# Generated by pormake.
# Topology wjl, (5)-cn, num edge types: 1
# Building blocks:
#     Node 0, Type 0, BuildingBlock: XOMCOT_clean_sbu_1, # of connection points: 5
#     Node 1, Type 0, BuildingBlock: XOMCOT_clean_sbu_1, # of connection points: 5
#     Node 2, Type 0, BuildingBlock: XOMCOT_clean_sbu_1, # of connection points: 5
#     Node 3, Type 0, BuildingBlock: XOMCOT_clean_sbu_1, # of connection points: 5
#     Node 4, Type 0, BuildingBlock: XOMCOT_clean_sbu_1, # of connection points: 5
#     Node 5, Type 0, BuildingBlock: XOMCOT_clean_sbu_1, # of connection points: 5
#     Node 6, Type 0, BuildingBlock: XOMCOT_clean_sbu_1, # of connection points: 5
#     Node 7, Type 0, BuildingBlock: XOMCOT_clean_sbu_1, # of connection points: 5
#     Node 8, Type 0, BuildingBlock: XOMCOT_clean_sbu_1, # of connection points: 5
#     Node 9, Type 0, BuildingBlock: XOMCOT_clean_sbu_1, # of connection points: 5
#     Node 10, Type 0, BuildingBlock: XOMCOT_clean_sbu_1, # of connection points: 5
#     Node 11, Type 0, BuildingBlock: XOMCOT_clean_sbu_1, # of connection points: 5
#     Edge 12, Type (0, 0), BuildingBlock: EZIPEK_clean_linker_0, # of connection points: 2
#     Edge 13, Type (0, 0), BuildingBlock: EZIPEK_clean_linker_0, # of connection points: 2
#     Edge 14, Type (0, 0), BuildingBlock: EZIPEK_clean_linker_0, # of connection points: 2
#     Edge 15, Type (0, 0), BuildingBlock: EZIPEK_clean_linker_0, # of connection points: 2
#     Edge 16, Type (0, 0), BuildingBlock: EZIPEK_clean_linker_0, # of connection points: 2
#     Edge 17, Type (0, 0), BuildingBlock: EZIPEK_clean_linker_0, # of connection points: 2
#     Edge 18, Type (0, 0), BuildingBlock: EZIPEK_clean_linker_0, # of connection points: 2
#     Edge 19, Type (0, 0), BuildingBlock: EZIPEK_clean_linker_0, # of connection points: 2
#     Edge 20, Type (0, 0), BuildingBlock: EZIPEK_clean_linker_0, # of connection points: 2
#     Edge 21, Type (0, 0), BuildingBlock: EZIPEK_clean_linker_0, # of connection points: 2
#     Edge 22, Type (0, 0), BuildingBlock: EZIPEK_clean_linker_0, # of connection points: 2
#     Edge 23, Type (0, 0), BuildingBlock: EZIPEK_clean_linker_0, # of connection points: 2
#     Edge 24, Type (0, 0), BuildingBlock: EZIPEK_clean_linker_0, # of connection points: 2
#     Edge 25, Type (0, 0), BuildingBlock: EZIPEK_clean_linker_0, # of connection points: 2
#     Edge 26, Type (0, 0), BuildingBlock: EZIPEK_clean_linker_0, # of connection points: 2
#     Edge 27, Type (0, 0), BuildingBlock: EZIPEK_clean_linker_0, # of connection points: 2
#     Edge 28, Type (0, 0), BuildingBlock: EZIPEK_clean_linker_0, # of connection points: 2
#     Edge 29, Type (0, 0), BuildingBlock: EZIPEK_clean_linker_0, # of connection points: 2
#     Edge 30, Type (0, 0), BuildingBlock: EZIPEK_clean_linker_0, # of connection points: 2
#     Edge 31, Type (0, 0), BuildingBlock: EZIPEK_clean_linker_0, # of connection points: 2
#     Edge 32, Type (0, 0), BuildingBlock: EZIPEK_clean_linker_0, # of connection points: 2
#     Edge 33, Type (0, 0), BuildingBlock: EZIPEK_clean_linker_0, # of connection points: 2
#     Edge 34, Type (0, 0), BuildingBlock: EZIPEK_clean_linker_0, # of connection points: 2
#     Edge 35, Type (0, 0), BuildingBlock: EZIPEK_clean_linker_0, # of connection points: 2
#     Edge 36, Type (0, 0), BuildingBlock: EZIPEK_clean_linker_0, # of connection points: 2
#     Edge 37, Type (0, 0), BuildingBlock: EZIPEK_clean_linker_0, # of connection points: 2
#     Edge 38, Type (0, 0), BuildingBlock: EZIPEK_clean_linker_0, # of connection points: 2
#     Edge 39, Type (0, 0), BuildingBlock: EZIPEK_clean_linker_0, # of connection points: 2
#     Edge 40, Type (0, 0), BuildingBlock: EZIPEK_clean_linker_0, # of connection points: 2
#     Edge 41, Type (0, 0), BuildingBlock: EZIPEK_clean_linker_0, # of connection points: 2
# Relax obj value: 0.466
# Max RMSD: 0.227
# Mean RMSD: 0.227
data_MOF--net-wjl--node1-XOMCOT_clean_sbu_1--edge1-EZIPEK_clean_linker_0
_symmetry_space_group_name_H-M    P1
_symmetry_Int_Tables_number       1
_symmetry_cell_setting            triclinic
loop_
_symmetry_equiv_pos_as_xyz
'x, y, z'
_cell_length_a     19.272308
_cell_length_b     19.252048
_cell_length_c     69.200417
_cell_angle_alpha  89.643215
_cell_angle_beta   89.977473
_cell_angle_gamma 119.98832
loop_
_atom_site_label
_atom_site_type_symbol
_atom_site_fract_x
_atom_site_fract_y
_atom_site_fract_z
_atom_type_partial_charge
C0 C 0.43717 0.26326 0.3625 0.0
C1 C 0.48896 0.29175 0.37791 0.0
N2 N 0.51975 0.37168 0.37862 0.0
N3 N 0.43745 0.32542 0.35329 0.0
C4 C 0.48735 0.39042 0.36369 0.0
H5 H 0.40339 0.20147 0.35799 0.0
Co6 Co 0.38728 0.32058 0.33008 0.0
C7 C 0.42789 0.49322 0.32361 0.0
O8 O 0.35334 0.47082 0.31936 0.0
N9 N 0.33554 0.31418 0.3061 0.0
C10 C 0.24656 0.29983 0.28341 0.0
C11 C 0.26731 0.31631 0.30253 0.0
C12 C 0.35543 0.29793 0.28864 0.0
N13 N 0.30226 0.2883 0.27482 0.0
O14 O 0.4729 0.31308 0.31712 0.0
H15 H 0.23242 0.32661 0.31315 0.0
H16 H 0.40551 0.2889 0.286 0.0
O17 O 0.44775 0.44035 0.32783 0.0
C18 C 0.45876 0.24059 0.31645 0.0
O19 O 0.38656 0.18253 0.32102 0.0
N20 N 0.30272 0.31729 0.34403 0.0
C21 C 0.17763 0.28237 0.36942 0.0
C22 C 0.24724 0.35765 0.36968 0.0
C23 C 0.30991 0.37359 0.35701 0.0
C24 C 0.23549 0.2433 0.34385 0.0
C25 C 0.17127 0.22499 0.35619 0.0
H26 H 0.36568 0.42893 0.35852 0.0
H27 H 0.23276 0.19756 0.33436 0.0
H28 H 0.50182 0.45108 0.36026 0.0
H29 H 0.50322 0.25685 0.38777 0.0
H30 H 0.19278 0.29253 0.27659 0.0
H31 H 0.25437 0.40229 0.38017 0.0
H32 H 0.11863 0.16576 0.35598 0.0
C33 C 0.13136 0.3567 0.52369 0.0
C34 C 0.15204 0.39243 0.5416 0.0
N35 N 0.14768 0.45994 0.54063 0.0
N36 N 0.11337 0.40163 0.51191 0.0
C37 C 0.12549 0.46469 0.52258 0.0
H38 H 0.12508 0.29949 0.51982 0.0
Co39 Co 0.07201 0.37829 0.48724 0.0
C40 C 0.95553 0.44166 0.48794 0.0
O41 O 0.8989 0.37371 0.48078 0.0
N42 N 0.03335 0.35468 0.4618 0.0
C43 C 0.99723 0.36166 0.43175 0.0
C44 C 1.01092 0.39496 0.44973 0.0
C45 C 0.03686 0.29993 0.45036 0.0
N46 N 1.01156 0.29978 0.43202 0.0
O47 O 0.17343 0.46595 0.47785 0.0
H48 H 1.01083 0.44943 0.45302 0.0
H49 H 0.0655 0.26698 0.45509 0.0
O50 O 1.02605 0.45148 0.49053 0.0
C51 C 0.23009 0.44954 0.47866 0.0
O52 O 0.21075 0.37476 0.48209 0.0
N53 N 0.97751 0.28944 0.49758 0.0
C54 C 0.87467 0.15975 0.52104 0.0
C55 C 0.88934 0.23677 0.52508 0.0
C56 C 0.94175 0.30077 0.5134 0.0
C57 C 0.96068 0.21362 0.49297 0.0
C58 C 0.90845 0.14751 0.50441 0.0
H59 H 0.95954 0.36027 0.51838 0.0
H60 H 0.99305 0.20428 0.48158 0.0
H61 H 0.11341 0.51112 0.51775 0.0
H62 H 0.16326 0.36805 0.55459 0.0
H63 H 0.98575 0.38745 0.41909 0.0
H64 H 0.86563 0.24837 0.5381 0.0
H65 H 0.89952 0.0886 0.50119 0.0
C66 C 0.77605 0.05873 0.6847 0.0
C67 C 0.75993 0.09005 0.70082 0.0
N68 N 0.69868 0.10198 0.69643 0.0
N69 N 0.72381 0.04999 0.67062 0.0
C70 C 0.67876 0.0784 0.6781 0.0
H71 H 0.82124 0.04145 0.68345 0.0
Co72 Co 0.71407 1.00961 0.64608 0.0
C73 C 0.53455 0.88618 0.64597 0.0
O74 O 0.55156 0.82869 0.6439 0.0
N75 N 0.70718 0.97128 0.62049 0.0
C76 C 0.68932 0.89804 0.59402 0.0
C77 C 0.67766 0.89574 0.6137 0.0
C78 C 0.73819 1.01802 0.60457 0.0
N79 N 0.72744 0.97513 0.58845 0.0
O80 O 0.72903 0.11259 0.63666 0.0
H81 H 0.65367 0.84202 0.62241 0.0
H82 H 0.77129 0.08262 0.60467 0.0
O83 O 0.59205 0.95978 0.647 0.0
C84 C 0.80282 0.16849 0.63724 0.0
O85 O 0.85772 0.14755 0.63931 0.0
N86 N 0.71 0.91688 0.6569 0.0
C87 C 0.75269 0.83244 0.68245 0.0
C88 C 0.68504 0.83924 0.686 0.0
C89 C 0.66488 0.88198 0.67313 0.0
C90 C 0.77215 0.90467 0.6524 0.0
C91 C 0.79356 0.86078 0.66485 0.0
H92 H 0.61907 0.89529 0.67752 0.0
H93 H 0.81026 0.93555 0.64013 0.0
H94 H 0.62993 0.07896 0.67052 0.0
H95 H 0.7874 0.09883 0.7149 0.0
H96 H 0.67414 0.84775 0.58468 0.0
H97 H 0.65263 0.81847 0.69955 0.0
H98 H 0.84657 0.85676 0.66182 0.0
C99 C 0.69417 0.81298 0.84253 0.0
C100 C 0.63846 0.79257 0.85707 0.0
N101 N 0.59592 0.71201 0.8583 0.0
N102 N 0.68492 0.74572 0.83428 0.0
C103 C 0.62535 0.68513 0.84438 0.0
H104 H 0.7376 0.87291 0.83799 0.0
Co105 Co 0.73569 0.74401 0.81177 0.0
C106 C 0.6859 0.5701 0.80623 0.0
O107 O 0.76049 0.5919 0.80209 0.0
N108 N 0.78783 0.74386 0.7882 0.0
C109 C 0.87376 0.74799 0.7658 0.0
C110 C 0.85791 0.74459 0.78527 0.0
C111 C 0.76242 0.74587 0.77007 0.0
N112 N 0.81382 0.74948 0.75638 0.0
O113 O 0.65822 0.76302 0.7982 0.0
H114 H 0.89609 0.74261 0.79639 0.0
H115 H 0.70846 0.74724 0.76671 0.0
O116 O 0.66664 0.62381 0.81004 0.0
C117 C 0.68342 0.83684 0.79387 0.0
O118 O 0.76096 0.88517 0.79197 0.0
N119 N 0.81275 0.73766 0.82685 0.0
C120 C 0.91564 0.76642 0.85768 0.0
C121 C 0.84478 0.69285 0.85613 0.0
C122 C 0.79326 0.68019 0.84077 0.0
C123 C 0.88316 0.80876 0.82787 0.0
C124 C 0.93659 0.82389 0.84302 0.0
H125 H 0.73423 0.62827 0.84141 0.0
H126 H 0.89515 0.85615 0.81762 0.0
H127 H 0.6018 0.62227 0.8413 0.0
H128 H 0.62955 0.83347 0.86599 0.0
H129 H 0.92656 0.75265 0.7591 0.0
H130 H 0.82601 0.64852 0.86762 0.0
H131 H 0.99018 0.88213 0.84416 0.0
C132 C 0.83143 0.63642 0.0181 0.0
C133 C 0.80567 0.58564 0.03385 0.0
N134 N 0.85464 0.55516 0.03583 0.0
N135 N 0.89484 0.63592 0.00994 0.0
C136 C 0.90836 0.58681 0.02132 0.0
H137 H 0.80495 0.67086 0.01288 0.0
Co138 Co 0.9481 0.69053 -0.01238 0.0
C139 C 1.00883 0.58956 0.97072 0.0
O140 O 0.98149 0.59299 0.95358 0.0
N141 N 1.00251 0.74751 0.96507 0.0
C142 C 0.09773 0.82575 0.94385 0.0
C143 C 0.08202 0.79945 0.96275 0.0
C144 C 0.97147 0.74389 0.94736 0.0
N145 N 0.02797 0.78993 0.93433 0.0
O146 O 0.85546 0.61529 0.97304 0.0
H147 H 0.12682 0.81611 0.97385 0.0
H148 H 0.90897 0.70703 0.94374 0.0
O149 O 0.99709 0.62353 -0.0149 0.0
C150 C 0.80048 0.63382 0.97229 0.0
O151 O 0.81932 0.70738 0.97682 0.0
N152 N 0.03192 0.76366 0.00295 0.0
C153 C 0.1238 0.86284 0.0326 0.0
C154 C 0.13628 0.80113 0.02627 0.0
C155 C 0.08921 0.75153 0.01139 0.0
C156 C 1.02309 0.82698 0.00808 0.0
C157 C 0.0687 0.87772 0.02297 0.0
H158 H 0.09627 0.70115 0.00761 0.0
H159 H 0.97653 0.83464 0.00143 0.0
H160 H 0.95609 0.5736 0.01904 0.0
H161 H 0.75532 0.57226 0.04317 0.0
H162 H 0.15556 0.86656 0.93751 0.0
H163 H 0.17809 0.78809 0.03365 0.0
H164 H 0.05745 0.92467 0.02776 0.0
C165 C 0.25293 0.8967 0.19878 0.0
C166 C 0.2822 0.87851 0.21504 0.0
N167 N 0.35716 0.895 0.21101 0.0
N168 N 0.30991 0.92517 0.18488 0.0
C169 C 0.37259 0.9232 0.1928 0.0
H170 H 0.19499 0.89233 0.1974 0.0
Co171 Co 0.30184 0.96434 0.1611 0.0
C172 C 0.47118 0.0743 0.1482 0.0
O173 O 0.45017 0.12737 0.14355 0.0
N174 N 0.2902 1.00322 0.1367 0.0
C175 C 0.27107 0.07192 0.11313 0.0
C176 C 0.29013 0.07201 0.13226 0.0
C177 C 0.27168 0.96306 0.11979 0.0
N178 N 0.25949 1.00326 0.10545 0.0
O179 O 0.27818 0.86296 0.15007 0.0
H180 H 0.30207 0.11969 0.14219 0.0
H181 H 0.26338 0.9037 0.11797 0.0
O182 O 0.41802 1.00833 0.15597 0.0
C183 C 0.20543 0.80795 0.15262 0.0
O184 O 0.1543 0.82789 0.15949 0.0
N185 N 0.318 0.05704 0.17362 0.0
C186 C 0.31013 0.15366 0.20213 0.0
C187 C 0.3826 0.15643 0.19813 0.0
C188 C 0.38497 0.10623 0.18404 0.0
C189 C 0.248 0.05681 0.17678 0.0
C190 C 0.24286 0.1054 0.19091 0.0
H191 H 0.43817 0.10131 0.18311 0.0
H192 H 0.19435 1.01404 0.16929 0.0
H193 H 0.42981 0.94487 0.18582 0.0
H194 H 0.25234 0.85778 0.22887 0.0
H195 H 0.26294 0.11688 0.10564 0.0
H196 H 0.4346 0.19099 0.20713 0.0
H197 H 0.18555 0.10056 0.19409 0.0
C198 C 0.82585 0.69292 0.45017 0.0
C199 C 0.80797 0.64359 0.43443 0.0
N200 N 0.72807 0.60495 0.4321 0.0
N201 N 0.75735 0.68345 0.45787 0.0
C202 C 0.69899 0.63072 0.44627 0.0
H203 H 0.88469 0.73156 0.45596 0.0
Co204 Co 0.75006 0.72597 0.48106 0.0
C205 C 0.57394 0.66229 0.48711 0.0
O206 O 0.59138 0.73635 0.49041 0.0
N207 N 0.74478 0.7708 0.50517 0.0
C208 C 0.74246 0.85047 0.5283 0.0
C209 C 0.73856 0.83681 0.50876 0.0
C210 C 0.75159 0.74557 0.52299 0.0
N211 N 0.75167 0.7934 0.53708 0.0
O212 O 0.77255 0.64826 0.49343 0.0
H213 H 0.73252 0.87422 0.49799 0.0
H214 H 0.75955 0.69483 0.52581 0.0
O215 O 0.63133 0.64954 0.48262 0.0
C216 C 0.84561 0.67294 0.49809 0.0
O217 O 0.89221 0.74956 0.50169 0.0
N218 N 0.7394 0.80366 0.46716 0.0
C219 C 0.76692 0.91303 0.43771 0.0
C220 C 0.69272 0.84266 0.43932 0.0
C221 C 0.68048 0.78779 0.454 0.0
C222 C 0.81044 0.87422 0.46631 0.0
C223 C 0.82526 0.9305 0.45178 0.0
H224 H 0.62708 0.72976 0.4534 0.0
H225 H 0.85823 0.88382 0.47608 0.0
H226 H 0.63603 0.60949 0.44834 0.0
H227 H 0.84977 0.63551 0.42561 0.0
H228 H 0.74339 0.90072 0.53542 0.0
H229 H 0.64765 0.82677 0.42823 0.0
H230 H 0.8839 0.98362 0.45055 0.0
C231 C 0.09374 0.75723 0.6057 0.0
C232 C 0.11831 0.73661 0.58904 0.0
N233 N 0.11411 0.66566 0.59232 0.0
N234 N 0.073 0.69834 0.61898 0.0
C235 C 0.08685 0.64401 0.61043 0.0
H236 H 0.08904 0.8103 0.60785 0.0
Co237 Co 0.03132 0.68991 0.64344 0.0
C238 C 0.90495 0.50991 0.64341 0.0
O239 O 0.84586 0.5235 0.64674 0.0
N240 N 0.9901 0.68288 0.66862 0.0
C241 C 0.91228 0.6689 0.69403 0.0
C242 C 0.91363 0.65568 0.67458 0.0
C243 C 0.03394 0.71365 0.68478 0.0
N244 N 0.98808 0.70543 0.70028 0.0
O245 O 0.13058 0.69849 0.65357 0.0
H246 H 0.86206 0.63371 0.66532 0.0
H247 H 0.09865 0.74533 0.68513 0.0
O248 O 0.97748 0.56891 0.64223 0.0
C249 C 0.19124 0.76946 0.65156 0.0
O250 O 0.17799 0.82717 0.64599 0.0
N251 N 0.94303 0.6917 0.63241 0.0
C252 C 0.85485 0.73412 0.60828 0.0
C253 C 0.85975 0.66545 0.60459 0.0
C254 C 0.90513 0.64593 0.61669 0.0
C255 C 0.93487 0.75634 0.63683 0.0
C256 C 0.88972 0.77806 0.62505 0.0
H257 H 0.91726 0.59965 0.61217 0.0
H258 H 0.96884 0.79509 0.64862 0.0
H259 H 0.07505 0.58805 0.61703 0.0
H260 H 0.13567 0.76954 0.5755 0.0
H261 H 0.86073 0.65753 0.70262 0.0
H262 H 0.8352 0.63171 0.59144 0.0
H263 H 0.88835 0.83258 0.62796 0.0
C264 C 0.37285 0.11699 0.7588 0.0
C265 C 0.41442 0.13743 0.74152 0.0
N266 N 0.48445 0.13961 0.74456 0.0
N267 N 0.41675 0.10553 0.77231 0.0
C268 C 0.48489 0.12154 0.76329 0.0
H269 H 0.31263 0.10594 0.76107 0.0
Co270 Co 0.38769 0.06592 0.79715 0.0
C271 C 0.44824 0.9443 0.79693 0.0
O272 O 0.37614 0.88313 0.79973 0.0
N273 N 0.35768 0.02741 0.82267 0.0
C274 C 0.29637 0.95198 0.84868 0.0
C275 C 0.31388 0.95117 0.82947 0.0
C276 C 0.36538 0.07306 0.83812 0.0
N277 N 0.32918 0.02881 0.85398 0.0
O278 O 0.47603 0.1684 0.80611 0.0
H279 H 0.28842 0.8978 0.82083 0.0
H280 H 0.3914 0.13737 0.83759 0.0
O281 O 0.45948 1.01628 0.79599 0.0
C282 C 0.45842 0.2245 0.80515 0.0
O283 O 0.38343 0.20413 0.80188 0.0
N284 N 0.29882 0.97359 0.7872 0.0
C285 C 0.16643 0.86752 0.76578 0.0
C286 C 0.2427 0.88183 0.7609 0.0
C287 C 0.3081 0.93603 0.77161 0.0
C288 C 0.22423 0.95867 0.79248 0.0
C289 C 0.15648 0.90438 0.78209 0.0
H290 H 0.36707 0.95318 0.76646 0.0
H291 H 0.2177 0.99245 0.80407 0.0
H292 H 0.53154 0.1137 0.76982 0.0
H293 H 0.39217 0.14291 0.72757 0.0
H294 H 0.25757 0.90069 0.85765 0.0
H295 H 0.2523 0.85578 0.74804 0.0
H296 H 0.09805 0.89553 0.78589 0.0
C297 C 0.23843 0.42132 0.92579 0.0
C298 C 0.2691 0.47115 0.90992 0.0
N299 N 0.34922 0.50406 0.91021 0.0
N300 N 0.29927 0.4249 0.93624 0.0
C301 C 0.36591 0.47507 0.9262 0.0
H302 H 0.17578 0.38576 0.9296 0.0
Co303 Co 0.28862 0.37242 0.95957 0.0
C304 C 0.45533 0.42827 0.97306 0.0
O305 O 0.43285 0.35328 0.97721 0.0
N306 N 0.27484 0.31738 0.98351 0.0
C307 C 0.25272 0.22601 0.00646 0.0
C308 C 0.27046 0.24592 -0.01272 0.0
C309 C 0.26065 0.33966 0.00091 0.0
N310 N 0.24649 0.28515 0.01485 0.0
O311 O 0.2635 0.44746 0.97156 0.0
H312 H 0.279 0.20923 0.97691 0.0
H313 H 0.25749 0.39331 0.00344 0.0
O314 O 0.40401 0.44358 0.96533 0.0
C315 C 0.18888 0.42467 0.97127 0.0
O316 O 0.13818 0.35054 0.96621 0.0
N317 N 0.30566 0.29813 0.9463 0.0
C318 C 0.30328 0.18891 0.91999 0.0
C319 C 0.37466 0.25984 0.92376 0.0
C320 C 0.37449 0.31441 0.93684 0.0
C321 C 0.23571 0.22896 0.94275 0.0
C322 C 0.23351 0.17224 0.92998 0.0
H323 H 0.42849 0.37154 0.93819 0.0
H324 H 0.18085 0.21909 0.94952 0.0
H325 H 0.4259 0.4908 0.93043 0.0
H326 H 0.23553 0.48228 0.899 0.0
H327 H 0.24188 0.17112 0.01353 0.0
H328 H 0.42893 0.27496 0.91582 0.0
H329 H 0.17715 0.11838 0.92702 0.0
C330 C 0.83056 0.23549 0.11023 0.0
C331 C 0.80201 0.2612 0.09524 0.0
N332 N 0.85372 0.33969 0.09241 0.0
N333 N 0.89872 0.29809 0.11703 0.0
C334 C 0.9117 0.36058 0.10567 0.0
H335 H 0.80315 0.17492 0.11582 0.0
Co336 Co 0.95726 0.29369 0.13772 0.0
C337 C 0.07359 0.46383 0.14781 0.0
O338 O 0.12972 0.44444 0.14942 0.0
N339 N 1.01577 0.28631 0.15901 0.0
C340 C 0.1014 0.26981 0.17766 0.0
C341 C 0.08372 0.28149 0.15909 0.0
C342 C 0.99443 0.27838 0.17787 0.0
N343 N 0.04496 0.26789 0.18933 0.0
O344 O 0.86773 0.2725 0.15402 0.0
H345 H 0.1185 0.28475 0.14655 0.0
H346 H 0.94064 0.27609 0.18323 0.0
O347 O 1.00355 0.41 0.14248 0.0
C348 C 0.8129 0.19961 0.15625 0.0
O349 O 0.83028 0.14384 0.15168 0.0
N350 N 0.0375 0.30756 0.12031 0.0
C351 C 0.12066 0.29764 0.08869 0.0
C352 C 0.13014 0.37163 0.09417 0.0
C353 C 0.08686 0.37523 0.1099 0.0
C354 C 0.02901 0.23535 0.11526 0.0
C355 C 0.07087 0.22909 0.09958 0.0
H356 H 0.08907 0.43129 0.11258 0.0
H357 H 0.98665 0.18178 0.12304 0.0
H358 H 0.96261 0.42032 0.10692 0.0
H359 H 0.74828 0.22528 0.08691 0.0
H360 H 0.14918 0.25922 0.18213 0.0
H361 H 0.16631 0.425 0.08554 0.0
H362 H 0.06105 0.1708 0.09533 0.0
C363 C 0.71709 0.92707 0.26894 0.0
C364 C 0.66627 0.90133 0.25331 0.0
N365 N 0.59923 0.9018 0.25845 0.0
N366 N 0.68207 0.94458 0.28355 0.0
C367 C 0.60966 0.92688 0.27684 0.0
H368 H 0.77693 0.93568 0.26942 0.0
Co369 Co 0.72755 0.9908 0.30684 0.0
C370 C 0.67867 0.11681 0.31125 0.0
O371 O 0.75425 0.17162 0.31324 0.0
N372 N 0.77521 0.03732 0.33098 0.0
C373 C 0.85573 0.11818 0.35413 0.0
C374 C 0.83824 0.11126 0.33477 0.0
C375 C 0.75597 1.00102 0.34851 0.0
N376 N 0.80348 0.04884 0.36265 0.0
O377 O 0.64393 0.89332 0.31924 0.0
H378 H 0.87163 0.15779 0.32421 0.0
H379 H 0.7102 0.93967 0.35103 0.0
O380 O 0.65941 0.04323 0.30852 0.0
C381 C 0.66127 0.83712 0.31995 0.0
O382 O 0.73604 0.85621 0.31681 0.0
N383 N 0.81034 0.07728 0.29305 0.0
C384 C 0.92408 0.15985 0.26445 0.0
C385 C 0.85145 0.15948 0.26449 0.0
C386 C 0.79494 0.11704 0.27879 0.0
C387 C 0.88266 0.08025 0.29367 0.0
C388 C 0.94145 0.1229 0.27967 0.0
H389 H 0.73615 0.10947 0.27712 0.0
H390 H 0.89249 0.04446 0.30424 0.0
H391 H 0.56671 0.93592 0.28488 0.0
H392 H 0.67928 0.88831 0.239 0.0
H393 H 0.90455 0.16864 0.36129 0.0
H394 H 0.83574 0.18581 0.25259 0.0
H395 H 0.99658 0.12081 0.27971 0.0
C396 C 0.51104 0.16284 0.29824 0.0
C397 C 0.52225 0.21886 0.31293 0.0
C398 C 0.62332 0.19386 0.32797 0.0
C399 C 0.61805 0.14392 0.31236 0.0
N400 N 0.56648 0.09347 0.28058 0.0
N401 N 0.60422 0.30193 0.33904 0.0
C402 C 0.56424 0.13147 0.29694 0.0
C403 C 0.58335 0.23906 0.32688 0.0
N404 N 0.44942 0.13951 0.28544 0.0
N405 N 0.66391 0.19556 0.34434 0.0
H406 H 0.57876 0.33833 0.33827 0.0
H407 H 0.65311 0.32365 0.34832 0.0
H408 H 0.69088 0.16053 0.34609 0.0
H409 H 0.66302 0.22442 0.35694 0.0
H410 H 0.4315 0.0915 0.27604 0.0
H411 H 0.41347 0.16578 0.28487 0.0
H412 H 0.53535 0.09059 0.26805 0.0
H413 H 0.60479 0.07065 0.27894 0.0
C414 C 0.34897 0.57404 0.49267 0.0
C415 C 0.31772 0.51176 0.47874 0.0
C416 C 0.45431 0.53398 0.4733 0.0
C417 C 0.48598 0.59878 0.48656 0.0
N418 N 0.45797 0.65454 0.5145 0.0
N419 N 0.34325 0.44535 0.45271 0.0
C420 C 0.43156 0.61161 0.49779 0.0
C421 C 0.37144 0.49565 0.4682 0.0
N422 N 0.30099 0.59967 0.50069 0.0
N423 N 0.50052 0.50319 0.46705 0.0
H424 H 0.28363 0.41848 0.44827 0.0
H425 H 0.38014 0.43742 0.44305 0.0
H426 H 0.55617 0.5196 0.47294 0.0
H427 H 0.47895 0.45234 0.45849 0.0
H428 H 0.32268 0.65027 0.50937 0.0
H429 H 0.2415 0.57728 0.4969 0.0
H430 H 0.42048 0.6602 0.5244 0.0
H431 H 0.51576 0.67545 0.51977 0.0
C432 C 0.82939 0.37678 0.62589 0.0
C433 C 0.88465 0.42451 0.64057 0.0
C434 C 0.87881 0.30304 0.65394 0.0
C435 C 0.82802 0.25607 0.63851 0.0
N436 N 0.76691 0.25221 0.6079 0.0
N437 N 0.97088 0.43423 0.66691 0.0
C438 C 0.80634 0.29403 0.62401 0.0
C439 C 0.91261 0.38804 0.65393 0.0
N440 N 0.79795 0.41011 0.61376 0.0
N441 N 0.89096 0.26603 0.66942 0.0
H442 H 0.9932 0.49552 0.66854 0.0
H443 H 1.00156 0.41289 0.67516 0.0
H444 H 0.86668 0.20442 0.67046 0.0
H445 H 0.91824 0.29524 0.68219 0.0
H446 H 0.74964 0.37664 0.60466 0.0
H447 H 0.81686 0.47099 0.61348 0.0
H448 H 0.75846 0.27877 0.59565 0.0
H449 H 0.74817 0.19174 0.60604 0.0
C450 C 0.5074 0.86865 0.78037 0.0
C451 C 0.51509 0.92642 0.79428 0.0
C452 C 0.64142 0.93679 0.80519 0.0
C453 C 0.62765 0.87055 0.79322 0.0
N454 N 0.5445 0.77171 0.76975 0.0
N455 N 0.58334 1.00566 0.82211 0.0
C456 C 0.55958 0.83593 0.78097 0.0
C457 C 0.58091 0.95848 0.80712 0.0
N458 N 0.45198 0.84715 0.76599 0.0
N459 N 0.71204 0.97994 0.81488 0.0
H460 H 0.54069 0.02311 0.8242 0.0
H461 H 0.62359 0.02158 0.83352 0.0
H462 H 0.75754 0.96609 0.81527 0.0
H463 H 0.72862 0.03458 0.82145 0.0
H464 H 0.44937 0.81307 0.7541 0.0
H465 H 0.41328 0.86981 0.76488 0.0
H466 H 0.49035 0.73657 0.76269 0.0
H467 H 0.58456 0.75068 0.76819 0.0
C468 C 0.66594 0.5947 0.95859 0.0
C469 C 0.71351 0.57324 0.97003 0.0
C470 C 0.59188 0.47165 -0.01335 0.0
C471 C 0.54351 0.48936 0.9744 0.0
N472 N 0.54061 0.59344 0.95527 0.0
N473 N 0.7177 0.47563 -0.0085 0.0
C474 C 0.58178 0.55772 0.96201 0.0
C475 C 0.67543 0.50706 0.98301 0.0
N476 N 0.70135 0.64897 0.94388 0.0
N477 N 0.55901 0.4266 0.00299 0.0
H478 H 0.7778 0.49603 -0.01129 0.0
H479 H 0.69052 0.4224 -0.00052 0.0
H480 H 0.50022 0.40746 0.0073 0.0
H481 H 0.59258 0.41829 0.0136 0.0
H482 H 0.66913 0.66056 0.93353 0.0
H483 H 0.76239 0.67542 0.94074 0.0
H484 H 0.56783 0.64759 0.9477 0.0
H485 H 0.48318 0.57736 0.95993 0.0
C486 C 0.11108 0.676 0.13749 0.0
C487 C 0.17731 0.72109 0.14981 0.0
C488 C 0.16015 0.59599 0.16388 0.0
C489 C 0.09717 0.55045 0.1507 0.0
N490 N 0.99265 0.54878 0.13094 0.0
N491 N 0.2741 0.72385 0.17239 0.0
C492 C 0.06685 0.59058 0.13905 0.0
C493 C 0.2046 0.68106 0.1623 0.0
N494 N 0.09228 0.71521 0.12374 0.0
N495 N 0.17259 0.55785 0.1791 0.0
H496 H 0.309 0.78588 0.17159 0.0
H497 H 0.30179 0.69743 0.17993 0.0
H498 H 0.13577 0.49661 0.18181 0.0
H499 H 0.2118 0.58773 0.19039 0.0
H500 H 0.05107 0.68623 0.11274 0.0
H501 H 0.12424 0.77744 0.12209 0.0
H502 H 0.96537 0.57582 0.12351 0.0
H503 H 0.95244 0.48919 0.13424 0.0
C504 C 0.97908 0.58331 0.48446 0.0
C505 C 0.93559 0.50571 0.49302 0.0
C506 C 0.84026 0.54261 0.5072 0.0
C507 C 0.87993 0.61767 0.49739 0.0
N508 N 0.99828 0.71625 0.47988 0.0
N509 N 0.82383 0.41062 0.51254 0.0
C510 C 0.95271 0.64011 0.48708 0.0
C511 C 0.86621 0.48549 0.50447 0.0
N512 N 0.04205 0.60103 0.47234 0.0
N513 N 0.78117 0.52821 0.52028 0.0
H514 H 0.8445 0.37003 0.51286 0.0
H515 H 0.76649 0.38696 0.51831 0.0
H516 H 0.76273 0.56951 0.52326 0.0
H517 H 0.75541 0.47912 0.52964 0.0
H518 H 0.06682 0.64965 0.46283 0.0
H519 H 0.06762 0.56502 0.47073 0.0
H520 H 0.05798 0.7405 0.47577 0.0
H521 H 0.97953 0.75806 0.47874 0.0
C522 C 0.33138 0.85428 0.66483 0.0
C523 C 0.27716 0.78924 0.65305 0.0
C524 C 0.39215 0.80057 0.63488 0.0
C525 C 0.44689 0.86079 0.64762 0.0
N526 N 0.46561 0.92962 0.67782 0.0
N527 N 0.25953 0.68577 0.63081 0.0
C528 C 0.41577 0.88387 0.66342 0.0
C529 C 0.30867 0.75759 0.63936 0.0
N530 N 0.30218 0.88732 0.6776 0.0
N531 N 0.41969 0.78603 0.61805 0.0
H532 H 0.19997 0.64979 0.63488 0.0
H533 H 0.28027 0.65696 0.62176 0.0
H534 H 0.47923 0.82001 0.61354 0.0
H535 H 0.38224 0.74641 0.60762 0.0
H536 H 0.33835 0.94097 0.68476 0.0
H537 H 0.24108 0.86272 0.68036 0.0
H538 H 0.4454 0.94243 0.69051 0.0
H539 H 0.52617 0.94764 0.67802 0.0
C540 C 0.56489 0.44871 0.79262 0.0
C541 C 0.62578 0.48205 0.80681 0.0
C542 C 0.57672 0.34617 0.82052 0.0
C543 C 0.5204 0.31229 0.80532 0.0
N544 N 0.47683 0.3315 0.774 0.0
N545 N 0.69973 0.45922 0.83196 0.0
C546 C 0.51862 0.36373 0.79062 0.0
C547 C 0.63483 0.4298 0.82003 0.0
N548 N 0.55196 0.49794 0.78068 0.0
N549 N 0.57293 0.29959 0.83591 0.0
H550 H 0.74309 0.51953 0.83258 0.0
H551 H 0.71427 0.42267 0.84013 0.0
H552 H 0.53195 0.23842 0.83685 0.0
H553 H 0.60581 0.32293 0.84852 0.0
H554 H 0.50221 0.47715 0.7717 0.0
H555 H 0.58746 0.56024 0.78071 0.0
H556 H 0.48008 0.3656 0.76192 0.0
H557 H 0.44638 0.27024 0.77133 0.0
C558 C 0.1817 0.5494 0.9629 0.0
C559 C 0.15713 0.48015 0.97473 0.0
C560 C 0.03765 0.48559 -0.01513 0.0
C561 C 0.06159 0.55407 0.97293 0.0
N562 N 0.16592 0.66321 0.95458 0.0
N563 N 0.07607 0.39792 0.00115 0.0
C564 C 0.13659 0.58964 0.96318 0.0
C565 C 0.0896 0.45345 -0.01292 0.0
N566 N 0.2456 0.57484 0.95065 0.0
N567 N 0.96337 0.44848 -0.00677 0.0
H568 H 0.11468 0.37533 0.00336 0.0
H569 H 0.03223 0.3809 0.01181 0.0
H570 H 0.92318 0.46946 -0.00834 0.0
H571 H 0.93901 0.39331 0.00032 0.0
H572 H 0.25805 0.61612 0.93951 0.0
H573 H 0.28498 0.55281 0.95099 0.0
H574 H 0.22404 0.69671 0.94919 0.0
H575 H 0.13458 0.69424 0.95436 0.0
C576 C 0.69529 0.21818 0.1474 0.0
C577 C 0.72583 0.1756 0.15787 0.0
C578 C 0.58972 0.05744 0.15898 0.0
C579 C 0.55956 0.10058 0.14854 0.0
N580 N 0.59473 0.20522 0.12474 0.0
N581 N 0.69718 0.06371 0.17858 0.0
C582 C 0.61546 0.17634 0.14045 0.0
C583 C 0.67127 0.0978 0.16514 0.0
N584 N 0.74016 0.29926 0.14479 0.0
N585 N 0.54413 0.97614 0.16095 0.0
H586 H 0.7556 0.09366 0.18393 0.0
H587 H 0.65892 1.01087 0.18599 0.0
H588 H 0.49011 0.94264 0.1537 0.0
H589 H 0.56506 0.94072 0.16717 0.0
H590 H 0.71723 0.3327 0.1384 0.0
H591 H 0.7945 0.33481 0.15169 0.0
H592 H 0.63563 0.25672 0.11721 0.0
H593 H 0.54083 0.17109 0.11743 0.0
C594 C 0.55031 0.6119 0.30919 0.0
C595 C 0.48858 0.58101 0.32332 0.0
C596 C 0.54004 0.71829 0.33583 0.0
C597 C 0.59808 0.74974 0.32078 0.0
N598 N 0.64296 0.72667 0.2901 0.0
N599 N 0.41611 0.6071 0.3481 0.0
C600 C 0.5992 0.69649 0.30669 0.0
C601 C 0.48074 0.63495 0.33599 0.0
N602 N 0.56184 0.56066 0.29782 0.0
N603 N 0.54333 0.76699 0.3505 0.0
H604 H 0.37304 0.54677 0.34942 0.0
H605 H 0.40182 0.64455 0.35583 0.0
H606 H 0.58449 0.82812 0.35081 0.0
H607 H 0.50947 0.74578 0.36313 0.0
H608 H 0.61229 0.57936 0.28911 0.0
H609 H 0.52412 0.49866 0.298 0.0
H610 H 0.63905 0.6914 0.27834 0.0
H611 H 0.67636 0.7877 0.28706 0.0
C612 C 0.62024 0.46771 0.42533 0.0
C613 C 0.68124 0.54321 0.41848 0.0
C614 C 0.64629 0.4968 0.38536 0.0
C615 C 0.57665 0.42718 0.39219 0.0
N616 N 0.48869 0.35579 0.41898 0.0
N617 N 0.74344 0.63526 0.39186 0.0
C618 C 0.56125 0.41471 0.4123 0.0
C619 C 0.69228 0.55942 0.39843 0.0
N620 N 0.61969 0.44621 0.44418 0.0
N621 N 0.6697 0.50217 0.36654 0.0
H622 H 0.7756 0.68347 0.40109 0.0
H623 H 0.74765 0.65165 0.37734 0.0
H624 H 0.6396 0.45552 0.35681 0.0
H625 H 0.72369 0.54896 0.36126 0.0
H626 H 0.57982 0.38908 0.44952 0.0
H627 H 0.66461 0.4826 0.45386 0.0
H628 H 0.47266 0.34912 0.43355 0.0
H629 H 0.44141 0.31961 0.40986 0.0
C630 C 0.06662 0.48419 0.56367 0.0
C631 C 0.14309 0.50607 0.55613 0.0
C632 C 0.20182 0.63484 0.57268 0.0
C633 C 0.12407 0.61532 0.57883 0.0
N634 N 0.98116 0.53016 0.57732 0.0
N635 N 0.28249 0.60125 0.5519 0.0
C636 C 0.05599 0.54209 0.57359 0.0
C637 C 0.21069 0.58126 0.56028 0.0
N638 N 1.0043 0.40809 0.56109 0.0
N639 N 0.2666 0.70367 0.57905 0.0
H640 H 0.2902 0.56078 0.54347 0.0
H641 H 0.3331 0.65796 0.55261 0.0
H642 H 0.26123 0.74342 0.58826 0.0
H643 H 0.32562 0.71969 0.57603 0.0
H644 H 0.94848 0.38596 0.56764 0.0
H645 H 1.01064 0.36454 0.55372 0.0
H646 H 0.92855 0.48083 0.57249 0.0
H647 H 0.97206 0.57404 0.58362 0.0
C648 C 0.58119 0.04533 0.71748 0.0
C649 C 0.64833 0.11365 0.70955 0.0
C650 C 0.60429 0.20092 0.72383 0.0
C651 C 0.53423 0.13193 0.73043 0.0
N652 N 0.44649 0.98914 0.72998 0.0
N653 N 0.72143 0.25507 0.7029 0.0
C654 C 0.51987 0.05416 0.72615 0.0
C655 C 0.65927 0.19134 0.71206 0.0
N656 N 0.57656 0.97223 0.71672 0.0
N657 N 0.61854 0.27488 0.7293 0.0
H658 H 0.76349 0.24899 0.69468 0.0
H659 H 0.72891 0.31249 0.70262 0.0
H660 H 0.57737 0.28253 0.7375 0.0
H661 H 0.67209 0.3277 0.72655 0.0
H662 H 0.53294 0.92152 0.72397 0.0
H663 H 0.62007 0.96354 0.71004 0.0
H664 H 0.43017 0.93066 0.72622 0.0
H665 H 0.39879 0.99498 0.73502 0.0
C666 C 0.53839 0.67813 0.89139 0.0
C667 C 0.53039 0.66365 0.87123 0.0
C668 C 0.40223 0.54126 0.87682 0.0
C669 C 0.40678 0.56033 0.89667 0.0
N670 N 0.46708 0.66028 0.92141 0.0
N671 N 0.44225 0.59527 0.84454 0.0
C672 C 0.47112 0.63322 0.90351 0.0
C673 C 0.45835 0.59936 0.86383 0.0
N674 N 0.61092 0.73074 0.89918 0.0
N675 N 0.34741 0.46671 0.87046 0.0
H676 H 0.47943 0.6403 0.83483 0.0
H677 H 0.38766 0.55251 0.8387 0.0
H678 H 0.30831 0.42089 0.87973 0.0
H679 H 0.34689 0.44819 0.85631 0.0
H680 H 0.62018 0.7386 0.91404 0.0
H681 H 0.66352 0.75934 0.89105 0.0
H682 H 0.50974 0.71671 0.92639 0.0
H683 H 0.41674 0.63001 0.93029 0.0
C684 C 0.84523 0.45964 0.08401 0.0
C685 C 0.84917 0.39149 0.07811 0.0
C686 C 0.84182 0.42468 0.0444 0.0
C687 C 0.85005 0.49883 0.05021 0.0
N688 N 0.8748 0.59371 0.07557 0.0
N689 N 0.86685 0.31701 0.0526 0.0
C690 C 0.85568 0.51827 0.07007 0.0
C691 C 0.85159 0.3759 0.05825 0.0
N692 N 0.82906 0.46692 0.10285 0.0
N693 N 0.82169 0.39956 0.02582 0.0
H694 H 0.87726 0.28198 0.06242 0.0
H695 H 0.87707 0.30856 0.03824 0.0
H696 H 0.81104 0.43275 0.01552 0.0
H697 H 0.80757 0.3425 0.02125 0.0
H698 H 0.81832 0.51191 0.10764 0.0
H699 H 0.81866 0.42334 0.11326 0.0
H700 H 0.88727 0.61311 0.08983 0.0
H701 H 0.88612 0.63919 0.06566 0.0
C702 C 0.5478 0.97095 0.2383 0.0
C703 C 0.53899 0.89851 0.24582 0.0
C704 C 0.40871 0.82228 0.23021 0.0
C705 C 0.41493 0.89549 0.22408 0.0
N706 N 0.48096 0.0393 0.2255 0.0
N707 N 0.46005 0.75652 0.25113 0.0
C708 C 0.48195 0.96993 0.22907 0.0
C709 C 0.46893 0.82431 0.24241 0.0
N710 N 0.61978 0.04021 0.23969 0.0
N711 N 0.34685 0.75143 0.22375 0.0
H712 H 0.50474 0.75693 0.25974 0.0
H713 H 0.4072 0.7014 0.25079 0.0
H714 H 0.30178 0.74869 0.2149 0.0
H715 H 0.34285 0.69609 0.22612 0.0
H716 H 0.6323 0.09361 0.23286 0.0
H717 H 0.66934 0.04251 0.24637 0.0
H718 H 0.52526 0.09536 0.23022 0.0
H719 H 0.43152 0.03963 0.21947 0.0
C720 C 0.28362 0.14 0.23763 0.0
C721 C 0.30083 0.187 0.22051 0.0
C722 C 0.31465 0.30059 0.2393 0.0
C723 C 0.29614 0.25302 0.25624 0.0
N724 N 0.24439 0.12374 0.27135 0.0
N725 N 0.31865 0.30572 0.20418 0.0
C726 C 0.27501 0.17146 0.25532 0.0
C727 C 0.31172 0.26547 0.22106 0.0
N728 N 0.2776 0.06613 0.23705 0.0
N729 N 0.33796 0.37996 0.24086 0.0
H730 H 0.31819 0.28182 0.19066 0.0
H731 H 0.31905 0.35994 0.20346 0.0
H732 H 0.3398 0.40641 0.25411 0.0
H733 H 0.35991 0.42047 0.22936 0.0
H734 H 0.27566 0.0338 0.24936 0.0
H735 H 0.27965 0.03882 0.22427 0.0
H736 H 0.22036 0.06183 0.27125 0.0
H737 H 0.23606 0.14508 0.28446 0.0
C738 C 0.05569 0.28532 0.38092 0.0
C739 C 0.11418 0.26227 0.38402 0.0
C740 C 0.06058 0.21557 0.41649 0.0
C741 C 1.02092 0.26024 0.41513 0.0
N742 N 0.93594 0.28115 0.3935 0.0
N743 N 0.16743 0.19685 0.40418 0.0
C744 C 1.00419 0.27792 0.39644 0.0
C745 C 0.1141 0.2231 0.4015 0.0
N746 N 0.05165 0.31704 0.36354 0.0
N747 N 0.04091 0.16072 0.43102 0.0
H748 H 0.20691 0.2002 0.39341 0.0
H749 H 0.17532 0.17602 0.41747 0.0
H750 H 0.99372 0.14785 0.44051 0.0
H751 H 0.06327 0.12147 0.43195 0.0
H752 H 1.01596 0.34277 0.36118 0.0
H753 H 0.08664 0.32032 0.35167 0.0
H754 H 0.9168 0.2883 0.37994 0.0
H755 H 0.89412 0.26702 0.4046 0.0
C756 C 0.84281 0.03449 0.56632 0.0
C757 C 0.76085 1.00721 0.56975 0.0
C758 C 0.74975 0.0585 0.53811 0.0
C759 C 0.83408 0.09622 0.53598 0.0
N760 N 0.96272 0.12314 0.54808 0.0
N761 N 0.63491 0.99178 0.55972 0.0
C762 C 0.88112 0.08388 0.54994 0.0
C763 C 0.71357 1.01783 0.55572 0.0
N764 N 0.88358 1.01319 0.57894 0.0
N765 N 0.70482 0.0617 0.52323 0.0
H766 H 0.60715 0.9604 0.57239 0.0
H767 H 0.59833 1.00445 0.55111 0.0
H768 H 0.73035 0.09099 0.5102 0.0
H769 H 0.64249 0.03029 0.52312 0.0
H770 H 0.94186 0.02504 0.57664 0.0
H771 H 0.85642 0.97747 0.59111 0.0
H772 H 1.00108 0.12428 0.55881 0.0
H773 H 0.9931 0.15874 0.53614 0.0
C774 C 0.76107 0.70691 0.72351 0.0
C775 C 0.81218 0.76814 0.73631 0.0
C776 C 0.84515 0.86884 0.71077 0.0
C777 C 0.78611 0.80829 0.69882 0.0
N778 N 0.69564 0.66827 0.69264 0.0
N779 N 0.90133 0.90757 0.74295 0.0
C780 C 0.74721 0.72697 0.70479 0.0
C781 C 0.85519 0.84912 0.73003 0.0
N782 N 0.72288 0.6285 0.72907 0.0
N783 N 0.89092 0.94519 0.70375 0.0
H784 H 0.90998 0.89507 0.75713 0.0
H785 H 0.92731 0.96872 0.74018 0.0
H786 H 0.88465 0.96234 0.68988 0.0
H787 H 0.93989 0.9904 0.71096 0.0
H788 H 0.73025 0.60891 0.74261 0.0
H789 H 0.73025 0.60891 0.74261 0.0
H790 H 0.66504 0.60775 0.69662 0.0
H791 H 0.6855 0.68046 0.67852 0.0
C792 C 0.03133 0.75401 0.90033 0.0
C793 C 1.01451 0.79724 0.91424 0.0
C794 C 0.94231 0.83012 0.89028 0.0
C795 C 0.95926 0.78698 0.87624 0.0
N796 N 0.03392 0.72356 0.86641 0.0
N797 N 0.97244 0.8917 0.92196 0.0
C798 C 1.00881 0.75428 0.88079 0.0
C799 C 0.97621 0.84063 0.90895 0.0
N800 N 0.06471 0.70925 0.90608 0.0
N801 N 0.89006 0.85674 0.88617 0.0
H802 H 0.99684 0.89965 0.93578 0.0
H803 H 0.95201 0.93113 0.91853 0.0
H804 H 0.86396 0.8508 0.87264 0.0
H805 H 0.86811 0.8799 0.89653 0.0
H806 H 0.07074 0.66938 0.89711 0.0
H807 H 0.08181 0.70819 0.92032 0.0
H808 H 0.07579 0.70511 0.86846 0.0
H809 H 1.01785 0.72303 0.85199 0.0
C810 C 0.273 0.99958 0.07011 0.0
C811 C 0.22498 0.97162 0.08697 0.0
C812 C 0.11194 0.87186 0.06827 0.0
C813 C 0.15845 0.90259 0.05115 0.0
N814 N 0.27843 1.002 0.03502 0.0
N815 N 0.09567 0.89429 0.10195 0.0
C816 C 0.23773 0.96858 0.05183 0.0
C817 C 0.14342 0.91149 0.08599 0.0
N818 N 0.35279 0.05379 0.0718 0.0
N819 N 0.03881 0.80326 0.06769 0.0
H820 H 0.11706 0.92323 0.11512 0.0
H821 H 0.03375 0.85679 0.10174 0.0
H822 H 1.01262 0.77278 0.05494 0.0
H823 H 1.0067 0.77295 0.08002 0.0
H824 H 0.39336 0.07127 0.06037 0.0
H825 H 0.37946 0.07744 0.08509 0.0
H826 H 0.33347 0.05488 0.03441 0.0
H827 H 0.25431 0.97971 0.02144 0.0
C828 C 0.85794 0.8376 0.56138 0.0
C829 C 0.77569 0.79288 0.55666 0.0
C830 C 0.74434 0.73191 0.58893 0.0
C831 C 0.82744 0.76681 0.59249 0.0
N832 N 0.96483 0.85262 0.58242 0.0
N833 N 0.63965 0.69873 0.56514 0.0
C834 C 0.88476 0.82115 0.57899 0.0
C835 C 0.71841 0.74097 0.57033 0.0
N836 N 0.91038 0.89463 0.54876 0.0
N837 N 0.69093 0.69035 0.60338 0.0
H838 H 0.61958 0.70704 0.55178 0.0
H839 H 0.59503 0.65365 0.5736 0.0
H840 H 0.70933 0.68382 0.61713 0.0
H841 H 0.62957 0.66837 0.60233 0.0
H842 H 0.96969 0.93556 0.55209 0.0
H843 H 0.89321 0.90527 0.5353 0.0
H844 H 1.00938 0.88382 0.57215 0.0
H845 H 0.98729 0.84426 0.59537 0.0
C846 C 0.06529 0.73846 0.75105 0.0
C847 C 0.1009 0.82295 0.75188 0.0
C848 C 0.04045 0.82419 0.72087 0.0
C849 C 1.01649 0.74232 0.71869 0.0
N850 N 1.00168 0.61912 0.73109 0.0
N851 N 0.12287 0.94795 0.7381 0.0
C852 C 1.02642 0.69833 0.73379 0.0
C853 C 0.08711 0.86624 0.73712 0.0
N854 N 0.06923 0.69743 0.7668 0.0
N855 N 1.01921 0.86138 0.70716 0.0
H856 H 0.15578 0.9807 0.75001 0.0
H857 H 0.12329 0.98416 0.72683 0.0
H858 H 0.98611 0.83176 0.69495 0.0
H859 H 0.02879 0.91931 0.70847 0.0
H860 H 0.03987 0.63518 0.7678 0.0
H861 H 0.09708 0.72623 0.77961 0.0
H862 H 1.01376 0.58455 0.74063 0.0
H863 H 0.9715 0.58861 0.71865 0.0
C864 C 0.35279 0.05875 0.88869 0.0
C865 C 0.31332 0.05809 0.87143 0.0
C866 C 0.26301 0.13886 0.88627 0.0
C867 C 0.30038 0.13767 0.90386 0.0
N868 N 0.3661 0.08316 0.92321 0.0
N869 N 0.2138 0.07684 0.85516 0.0
C870 C 0.34056 0.0931 0.90553 0.0
C871 C 0.26269 0.09145 0.87071 0.0
N872 N 0.4045 0.02969 0.88865 0.0
N873 N 0.23215 0.18877 0.88399 0.0
H874 H 0.21177 0.04105 0.84367 0.0
H875 H 0.16982 0.09318 0.85459 0.0
H876 H 0.23266 0.22634 0.89484 0.0
H877 H 0.21236 0.19824 0.87076 0.0
H878 H 0.44177 0.03592 0.90019 0.0
H879 H 0.41389 1.00382 0.87645 0.0
H880 H 0.38944 0.04543 0.92566 0.0
H881 H 0.35751 0.10748 0.93581 0.0
C882 C 0.26472 0.30586 0.04998 0.0
C883 C 0.2142 0.28299 0.03365 0.0
C884 C 0.10325 0.27063 0.0533 0.0
C885 C 0.15267 0.29016 0.0699 0.0
N886 N 0.2757 0.3152 0.08496 0.0
N887 N 0.08299 0.22845 0.01986 0.0
C888 C 0.23217 0.30436 0.06853 0.0
C889 C 0.13261 0.26081 0.03536 0.0
N890 N 0.34421 0.33124 0.0475 0.0
N891 N 0.02934 0.26407 0.05456 0.0
H892 H 0.10315 0.22086 0.00648 0.0
H893 H 1.02106 0.20332 0.02061 0.0
H894 H 1.0046 0.26897 0.06754 0.0
H895 H 0.99474 0.25956 0.04257 0.0
H896 H 0.38659 0.35634 0.05843 0.0
H897 H 0.36866 0.33156 0.03402 0.0
H898 H 0.33118 0.31831 0.08515 0.0
H899 H 0.25368 0.31562 0.09871 0.0
C900 C 0.05911 0.29439 0.22426 0.0
C901 C 0.02879 0.23911 0.20889 0.0
C902 C 0.95301 0.12881 0.23159 0.0
C903 C 0.97306 0.18571 0.24657 0.0
N904 N 0.0481 0.32106 0.25813 0.0
N905 N 0.94803 0.10486 0.19713 0.0
C906 C 0.02815 0.26816 0.24325 0.0
C907 C 0.97709 0.15632 0.21239 0.0
N908 N 0.11671 0.37179 0.22043 0.0
N909 N 0.9105 0.04859 0.23578 0.0
H910 H 0.96702 0.12281 0.18294 0.0
H911 H 0.90215 0.04551 0.19827 0.0
H912 H 0.89109 0.02628 0.24969 0.0
H913 H 0.90019 1.00391 0.22591 0.0
H914 H 0.14618 0.4149 0.23099 0.0
H915 H 0.13873 0.39152 0.20649 0.0
H916 H 0.08188 0.38303 0.25651 0.0
H917 H 0.02871 0.30238 0.27229 0.0
C918 C 0.83564 0.97267 0.38587 0.0
C919 C 0.80571 0.02504 0.3822 0.0
C920 C 0.76979 0.02007 0.41631 0.0
C921 C 0.78843 0.95833 0.41927 0.0
N922 N 0.83593 0.87215 0.40697 0.0
N923 N 0.74363 0.09926 0.39303 0.0
C924 C 0.82144 0.93418 0.40413 0.0
C925 C 0.77358 0.04995 0.39725 0.0
N926 N 0.87865 0.96102 0.37186 0.0
N927 N 0.74881 0.04984 0.43171 0.0
H928 H 0.74666 0.12235 0.37918 0.0
H929 H 0.71209 0.11382 0.40286 0.0
H930 H 0.74502 0.02822 0.44577 0.0
H931 H 0.74126 0.09965 0.43087 0.0
H932 H 0.90906 0.92969 0.37412 0.0
H933 H 0.88999 0.98913 0.35836 0.0
H934 H 0.85054 0.84545 0.39586 0.0
H935 H 0.82864 0.84357 0.42028 0.0
loop_
_geom_bond_atom_site_label_1
_geom_bond_atom_site_label_2
_geom_bond_distance
_geom_bond_site_symmetry_2
_ccdc_geom_bond_type
C0 C1 1.351 . S
C0 N3 1.368 . S
C0 H5 0.931 . S
C1 C0 1.351 . S
C1 N2 1.373 . S
C1 H29 0.930 . S
N2 C1 1.373 . S
N2 C4 1.340 . S
N3 C0 1.368 . S
N3 C4 1.321 . S
N3 Co6 2.135 . S
C4 N2 1.340 . S
C4 N3 1.321 . S
C4 H28 0.930 . S
H5 C0 0.931 . S
Co6 N3 2.135 . S
Co6 N9 2.121 . S
Co6 O14 2.055 . S
Co6 O17 2.039 . S
Co6 N20 2.140 . S
C7 O8 1.227 . S
C7 O17 1.265 . S
O8 C7 1.227 . S
N9 Co6 2.121 . S
N9 C11 1.375 . S
N9 C12 1.313 . S
C10 C11 1.338 . S
C10 N13 1.377 . S
C10 H30 0.930 . S
C11 N9 1.375 . S
C11 C10 1.338 . S
C11 H15 0.931 . S
C12 N9 1.313 . S
C12 N13 1.344 . S
C12 H16 0.930 . S
N13 C10 1.377 . S
N13 C12 1.344 . S
O14 Co6 2.055 . S
O14 C18 1.253 . S
H15 C11 0.931 . S
H16 C12 0.930 . S
O17 Co6 2.039 . S
O17 C7 1.265 . S
C18 O14 1.253 . S
C18 O19 1.227 . S
O19 C18 1.227 . S
N20 Co6 2.140 . S
N20 C23 1.346 . S
N20 C24 1.345 . S
C21 C22 1.387 . S
C21 C25 1.391 . S
C22 C21 1.387 . S
C22 C23 1.369 . S
C22 H31 0.929 . S
C23 N20 1.346 . S
C23 C22 1.369 . S
C23 H26 0.928 . S
C24 N20 1.345 . S
C24 C25 1.371 . S
C24 H27 0.931 . S
C25 C21 1.391 . S
C25 C24 1.371 . S
C25 H32 0.930 . S
H26 C23 0.928 . S
H27 C24 0.931 . S
H28 C4 0.930 . S
H29 C1 0.930 . S
H30 C10 0.930 . S
H31 C22 0.929 . S
H32 C25 0.930 . S
C33 C34 1.351 . S
C33 N36 1.368 . S
C33 H38 0.931 . S
C34 C33 1.351 . S
C34 N35 1.373 . S
C34 H62 0.930 . S
N35 C34 1.373 . S
N35 C37 1.340 . S
N36 C33 1.368 . S
N36 C37 1.321 . S
N36 Co39 2.135 . S
C37 N35 1.340 . S
C37 N36 1.321 . S
C37 H61 0.930 1_455 S
H38 C33 0.931 . S
Co39 N36 2.135 . S
Co39 N42 2.121 . S
Co39 O47 2.055 . S
Co39 O50 2.039 1_455 S
Co39 N53 2.140 1_455 S
C40 O41 1.227 . S
C40 O50 1.265 . S
O41 C40 1.227 . S
N42 Co39 2.121 . S
N42 C44 1.375 1_455 S
N42 C45 1.313 . S
C43 C44 1.338 . S
C43 N46 1.377 1_655 S
C43 H63 0.930 . S
C44 N42 1.375 1_655 S
C44 C43 1.338 . S
C44 H48 0.931 . S
C45 N42 1.313 . S
C45 N46 1.344 . S
C45 H49 0.930 . S
N46 C43 1.377 1_455 S
N46 C45 1.344 . S
O47 Co39 2.055 . S
O47 C51 1.253 . S
H48 C44 0.931 . S
H49 C45 0.930 . S
O50 Co39 2.039 1_655 S
O50 C40 1.265 . S
C51 O47 1.253 . S
C51 O52 1.227 . S
O52 C51 1.227 . S
N53 Co39 2.140 1_655 S
N53 C56 1.346 . S
N53 C57 1.345 . S
C54 C55 1.387 . S
C54 C58 1.391 . S
C55 C54 1.387 . S
C55 C56 1.369 . S
C55 H64 0.929 . S
C56 N53 1.346 . S
C56 C55 1.369 . S
C56 H59 0.928 . S
C57 N53 1.345 . S
C57 C58 1.371 . S
C57 H60 0.931 1_655 S
C58 C54 1.391 . S
C58 C57 1.371 . S
C58 H65 0.930 . S
H59 C56 0.928 . S
H60 C57 0.931 1_455 S
H61 C37 0.930 1_655 S
H62 C34 0.930 . S
H63 C43 0.930 . S
H64 C55 0.929 . S
H65 C58 0.930 . S
C66 C67 1.351 . S
C66 N69 1.368 . S
C66 H71 0.931 . S
C67 C66 1.351 . S
C67 N68 1.373 . S
C67 H95 0.930 . S
N68 C67 1.373 . S
N68 C70 1.340 . S
N69 C66 1.368 . S
N69 C70 1.321 . S
N69 Co72 2.135 . S
C70 N68 1.340 . S
C70 N69 1.321 . S
C70 H94 0.930 1_545 S
H71 C66 0.931 . S
Co72 N69 2.135 . S
Co72 N75 2.121 . S
Co72 O80 2.055 . S
Co72 O83 2.039 1_545 S
Co72 N86 2.140 1_545 S
C73 O74 1.227 . S
C73 O83 1.265 . S
O74 C73 1.227 . S
N75 Co72 2.121 . S
N75 C77 1.375 1_545 S
N75 C78 1.313 . S
C76 C77 1.338 . S
C76 N79 1.377 1_565 S
C76 H96 0.930 . S
C77 N75 1.375 1_565 S
C77 C76 1.338 . S
C77 H81 0.931 . S
C78 N75 1.313 . S
C78 N79 1.344 . S
C78 H82 0.930 . S
N79 C76 1.377 1_545 S
N79 C78 1.344 . S
O80 Co72 2.055 . S
O80 C84 1.253 . S
H81 C77 0.931 . S
H82 C78 0.930 . S
O83 Co72 2.039 1_565 S
O83 C73 1.265 . S
C84 O80 1.253 . S
C84 O85 1.227 . S
O85 C84 1.227 . S
N86 Co72 2.140 1_565 S
N86 C89 1.346 . S
N86 C90 1.345 . S
C87 C88 1.387 . S
C87 C91 1.391 . S
C88 C87 1.387 . S
C88 C89 1.369 . S
C88 H97 0.929 . S
C89 N86 1.346 . S
C89 C88 1.369 . S
C89 H92 0.928 . S
C90 N86 1.345 . S
C90 C91 1.371 . S
C90 H93 0.931 1_565 S
C91 C87 1.391 . S
C91 C90 1.371 . S
C91 H98 0.930 . S
H92 C89 0.928 . S
H93 C90 0.931 1_545 S
H94 C70 0.930 1_565 S
H95 C67 0.930 . S
H96 C76 0.930 . S
H97 C88 0.929 . S
H98 C91 0.930 . S
C99 C100 1.351 . S
C99 N102 1.368 . S
C99 H104 0.931 . S
C100 C99 1.351 . S
C100 N101 1.373 . S
C100 H128 0.930 . S
N101 C100 1.373 . S
N101 C103 1.340 . S
N102 C99 1.368 . S
N102 C103 1.321 . S
N102 Co105 2.135 . S
C103 N101 1.340 . S
C103 N102 1.321 . S
C103 H127 0.930 . S
H104 C99 0.931 . S
Co105 N102 2.135 . S
Co105 N108 2.121 . S
Co105 O113 2.055 . S
Co105 O116 2.039 . S
Co105 N119 2.140 . S
C106 O107 1.227 . S
C106 O116 1.265 . S
O107 C106 1.227 . S
N108 Co105 2.121 . S
N108 C110 1.375 . S
N108 C111 1.313 . S
C109 C110 1.338 . S
C109 N112 1.377 . S
C109 H129 0.930 . S
C110 N108 1.375 . S
C110 C109 1.338 . S
C110 H114 0.931 . S
C111 N108 1.313 . S
C111 N112 1.344 . S
C111 H115 0.930 . S
N112 C109 1.377 . S
N112 C111 1.344 . S
O113 Co105 2.055 . S
O113 C117 1.253 . S
H114 C110 0.931 . S
H115 C111 0.930 . S
O116 Co105 2.039 . S
O116 C106 1.265 . S
C117 O113 1.253 . S
C117 O118 1.227 . S
O118 C117 1.227 . S
N119 Co105 2.140 . S
N119 C122 1.346 . S
N119 C123 1.345 . S
C120 C121 1.387 . S
C120 C124 1.391 . S
C121 C120 1.387 . S
C121 C122 1.369 . S
C121 H130 0.929 . S
C122 N119 1.346 . S
C122 C121 1.369 . S
C122 H125 0.928 . S
C123 N119 1.345 . S
C123 C124 1.371 . S
C123 H126 0.931 . S
C124 C120 1.391 . S
C124 C123 1.371 . S
C124 H131 0.930 . S
H125 C122 0.928 . S
H126 C123 0.931 . S
H127 C103 0.930 . S
H128 C100 0.930 . S
H129 C109 0.930 . S
H130 C121 0.929 . S
H131 C124 0.930 . S
C132 C133 1.351 . S
C132 N135 1.368 . S
C132 H137 0.931 . S
C133 C132 1.351 . S
C133 N134 1.373 . S
C133 H161 0.930 . S
N134 C133 1.373 . S
N134 C136 1.340 . S
N135 C132 1.368 . S
N135 C136 1.321 . S
N135 Co138 2.135 . S
C136 N134 1.340 . S
C136 N135 1.321 . S
C136 H160 0.930 1_655 S
H137 C132 0.931 . S
Co138 N135 2.135 . S
Co138 N141 2.121 1_554 S
Co138 O146 2.055 1_554 S
Co138 O149 2.039 1_654 S
Co138 N152 2.140 1_655 S
C139 O140 1.227 1_556 S
C139 O149 1.265 . S
O140 C139 1.227 1_554 S
N141 Co138 2.121 1_556 S
N141 C143 1.375 1_655 S
N141 C144 1.313 . S
C142 C143 1.338 . S
C142 N145 1.377 1_455 S
C142 H162 0.930 . S
C143 N141 1.375 1_455 S
C143 C142 1.338 . S
C143 H147 0.931 . S
C144 N141 1.313 . S
C144 N145 1.344 . S
C144 H148 0.930 . S
N145 C142 1.377 1_655 S
N145 C144 1.344 . S
O146 Co138 2.055 1_556 S
O146 C150 1.253 1_556 S
H147 C143 0.931 . S
H148 C144 0.930 . S
O149 Co138 2.039 1_456 S
O149 C139 1.265 . S
C150 O146 1.253 1_554 S
C150 O151 1.227 . S
O151 C150 1.227 . S
N152 Co138 2.140 1_455 S
N152 C155 1.346 . S
N152 C156 1.345 . S
C153 C154 1.387 . S
C153 C157 1.391 . S
C154 C153 1.387 . S
C154 C155 1.369 . S
C154 H163 0.929 . S
C155 N152 1.346 . S
C155 C154 1.369 . S
C155 H158 0.928 . S
C156 N152 1.345 . S
C156 C157 1.371 . S
C156 H159 0.931 1_455 S
C157 C153 1.391 . S
C157 C156 1.371 . S
C157 H164 0.930 . S
H158 C155 0.928 . S
H159 C156 0.931 1_655 S
H160 C136 0.930 1_455 S
H161 C133 0.930 . S
H162 C142 0.930 . S
H163 C154 0.929 . S
H164 C157 0.930 . S
C165 C166 1.351 . S
C165 N168 1.368 . S
C165 H170 0.931 . S
C166 C165 1.351 . S
C166 N167 1.373 . S
C166 H194 0.930 . S
N167 C166 1.373 . S
N167 C169 1.340 . S
N168 C165 1.368 . S
N168 C169 1.321 . S
N168 Co171 2.135 . S
C169 N167 1.340 . S
C169 N168 1.321 . S
C169 H193 0.930 1_565 S
H170 C165 0.931 . S
Co171 N168 2.135 . S
Co171 N174 2.121 . S
Co171 O179 2.055 . S
Co171 O182 2.039 1_565 S
Co171 N185 2.140 1_565 S
C172 O173 1.227 . S
C172 O182 1.265 . S
O173 C172 1.227 . S
N174 Co171 2.121 . S
N174 C176 1.375 1_565 S
N174 C177 1.313 . S
C175 C176 1.338 . S
C175 N178 1.377 1_545 S
C175 H195 0.930 . S
C176 N174 1.375 1_545 S
C176 C175 1.338 . S
C176 H180 0.931 . S
C177 N174 1.313 . S
C177 N178 1.344 . S
C177 H181 0.930 . S
N178 C175 1.377 1_565 S
N178 C177 1.344 . S
O179 Co171 2.055 . S
O179 C183 1.253 . S
H180 C176 0.931 . S
H181 C177 0.930 . S
O182 Co171 2.039 1_545 S
O182 C172 1.265 . S
C183 O179 1.253 . S
C183 O184 1.227 . S
O184 C183 1.227 . S
N185 Co171 2.140 1_545 S
N185 C188 1.346 . S
N185 C189 1.345 . S
C186 C187 1.387 . S
C186 C190 1.391 . S
C187 C186 1.387 . S
C187 C188 1.369 . S
C187 H196 0.929 . S
C188 N185 1.346 . S
C188 C187 1.369 . S
C188 H191 0.928 . S
C189 N185 1.345 . S
C189 C190 1.371 . S
C189 H192 0.931 1_545 S
C190 C186 1.391 . S
C190 C189 1.371 . S
C190 H197 0.930 . S
H191 C188 0.928 . S
H192 C189 0.931 1_565 S
H193 C169 0.930 1_545 S
H194 C166 0.930 . S
H195 C175 0.930 . S
H196 C187 0.929 . S
H197 C190 0.930 . S
C198 C199 1.351 . S
C198 N201 1.368 . S
C198 H203 0.931 . S
C199 C198 1.351 . S
C199 N200 1.373 . S
C199 H227 0.930 . S
N200 C199 1.373 . S
N200 C202 1.340 . S
N201 C198 1.368 . S
N201 C202 1.321 . S
N201 Co204 2.135 . S
C202 N200 1.340 . S
C202 N201 1.321 . S
C202 H226 0.930 . S
H203 C198 0.931 . S
Co204 N201 2.135 . S
Co204 N207 2.121 . S
Co204 O212 2.055 . S
Co204 O215 2.039 . S
Co204 N218 2.140 . S
C205 O206 1.227 . S
C205 O215 1.265 . S
O206 C205 1.227 . S
N207 Co204 2.121 . S
N207 C209 1.375 . S
N207 C210 1.313 . S
C208 C209 1.338 . S
C208 N211 1.377 . S
C208 H228 0.930 . S
C209 N207 1.375 . S
C209 C208 1.338 . S
C209 H213 0.931 . S
C210 N207 1.313 . S
C210 N211 1.344 . S
C210 H214 0.930 . S
N211 C208 1.377 . S
N211 C210 1.344 . S
O212 Co204 2.055 . S
O212 C216 1.253 . S
H213 C209 0.931 . S
H214 C210 0.930 . S
O215 Co204 2.039 . S
O215 C205 1.265 . S
C216 O212 1.253 . S
C216 O217 1.227 . S
O217 C216 1.227 . S
N218 Co204 2.140 . S
N218 C221 1.346 . S
N218 C222 1.345 . S
C219 C220 1.387 . S
C219 C223 1.391 . S
C220 C219 1.387 . S
C220 C221 1.369 . S
C220 H229 0.929 . S
C221 N218 1.346 . S
C221 C220 1.369 . S
C221 H224 0.928 . S
C222 N218 1.345 . S
C222 C223 1.371 . S
C222 H225 0.931 . S
C223 C219 1.391 . S
C223 C222 1.371 . S
C223 H230 0.930 . S
H224 C221 0.928 . S
H225 C222 0.931 . S
H226 C202 0.930 . S
H227 C199 0.930 . S
H228 C208 0.930 . S
H229 C220 0.929 . S
H230 C223 0.930 . S
C231 C232 1.351 . S
C231 N234 1.368 . S
C231 H236 0.931 . S
C232 C231 1.351 . S
C232 N233 1.373 . S
C232 H260 0.930 . S
N233 C232 1.373 . S
N233 C235 1.340 . S
N234 C231 1.368 . S
N234 C235 1.321 . S
N234 Co237 2.135 . S
C235 N233 1.340 . S
C235 N234 1.321 . S
C235 H259 0.930 1_455 S
H236 C231 0.931 . S
Co237 N234 2.135 . S
Co237 N240 2.121 . S
Co237 O245 2.055 . S
Co237 O248 2.039 1_455 S
Co237 N251 2.140 1_455 S
C238 O239 1.227 . S
C238 O248 1.265 . S
O239 C238 1.227 . S
N240 Co237 2.121 . S
N240 C242 1.375 1_455 S
N240 C243 1.313 . S
C241 C242 1.338 . S
C241 N244 1.377 1_655 S
C241 H261 0.930 . S
C242 N240 1.375 1_655 S
C242 C241 1.338 . S
C242 H246 0.931 . S
C243 N240 1.313 . S
C243 N244 1.344 . S
C243 H247 0.930 . S
N244 C241 1.377 1_455 S
N244 C243 1.344 . S
O245 Co237 2.055 . S
O245 C249 1.253 . S
H246 C242 0.931 . S
H247 C243 0.930 . S
O248 Co237 2.039 1_655 S
O248 C238 1.265 . S
C249 O245 1.253 . S
C249 O250 1.227 . S
O250 C249 1.227 . S
N251 Co237 2.140 1_655 S
N251 C254 1.346 . S
N251 C255 1.345 . S
C252 C253 1.387 . S
C252 C256 1.391 . S
C253 C252 1.387 . S
C253 C254 1.369 . S
C253 H262 0.929 . S
C254 N251 1.346 . S
C254 C253 1.369 . S
C254 H257 0.928 . S
C255 N251 1.345 . S
C255 C256 1.371 . S
C255 H258 0.931 1_655 S
C256 C252 1.391 . S
C256 C255 1.371 . S
C256 H263 0.930 . S
H257 C254 0.928 . S
H258 C255 0.931 1_455 S
H259 C235 0.930 1_655 S
H260 C232 0.930 . S
H261 C241 0.930 . S
H262 C253 0.929 . S
H263 C256 0.930 . S
C264 C265 1.351 . S
C264 N267 1.368 . S
C264 H269 0.931 . S
C265 C264 1.351 . S
C265 N266 1.373 . S
C265 H293 0.930 . S
N266 C265 1.373 . S
N266 C268 1.340 . S
N267 C264 1.368 . S
N267 C268 1.321 . S
N267 Co270 2.135 . S
C268 N266 1.340 . S
C268 N267 1.321 . S
C268 H292 0.930 1_545 S
H269 C264 0.931 . S
Co270 N267 2.135 . S
Co270 N273 2.121 . S
Co270 O278 2.055 . S
Co270 O281 2.039 1_545 S
Co270 N284 2.140 1_545 S
C271 O272 1.227 . S
C271 O281 1.265 . S
O272 C271 1.227 . S
N273 Co270 2.121 . S
N273 C275 1.375 1_545 S
N273 C276 1.313 . S
C274 C275 1.338 . S
C274 N277 1.377 1_565 S
C274 H294 0.930 . S
C275 N273 1.375 1_565 S
C275 C274 1.338 . S
C275 H279 0.931 . S
C276 N273 1.313 . S
C276 N277 1.344 . S
C276 H280 0.930 . S
N277 C274 1.377 1_545 S
N277 C276 1.344 . S
O278 Co270 2.055 . S
O278 C282 1.253 . S
H279 C275 0.931 . S
H280 C276 0.930 . S
O281 Co270 2.039 1_565 S
O281 C271 1.265 . S
C282 O278 1.253 . S
C282 O283 1.227 . S
O283 C282 1.227 . S
N284 Co270 2.140 1_565 S
N284 C287 1.346 . S
N284 C288 1.345 . S
C285 C286 1.387 . S
C285 C289 1.391 . S
C286 C285 1.387 . S
C286 C287 1.369 . S
C286 H295 0.929 . S
C287 N284 1.346 . S
C287 C286 1.369 . S
C287 H290 0.928 . S
C288 N284 1.345 . S
C288 C289 1.371 . S
C288 H291 0.931 1_565 S
C289 C285 1.391 . S
C289 C288 1.371 . S
C289 H296 0.930 . S
H290 C287 0.928 . S
H291 C288 0.931 1_545 S
H292 C268 0.930 1_565 S
H293 C265 0.930 . S
H294 C274 0.930 . S
H295 C286 0.929 . S
H296 C289 0.930 . S
C297 C298 1.351 . S
C297 N300 1.368 . S
C297 H302 0.931 . S
C298 C297 1.351 . S
C298 N299 1.373 . S
C298 H326 0.930 . S
N299 C298 1.373 . S
N299 C301 1.340 . S
N300 C297 1.368 . S
N300 C301 1.321 . S
N300 Co303 2.135 . S
C301 N299 1.340 . S
C301 N300 1.321 . S
C301 H325 0.930 . S
H302 C297 0.931 . S
Co303 N300 2.135 . S
Co303 N306 2.121 1_556 S
Co303 O311 2.055 . S
Co303 O314 2.042 . S
Co303 N317 2.140 . S
C304 O305 1.227 . S
C304 O314 1.267 . S
O305 C304 1.227 . S
N306 Co303 2.121 1_554 S
N306 C308 1.375 . S
N306 C309 1.313 . S
C307 C308 1.338 . S
C307 N310 1.377 . S
C307 H327 0.930 . S
C308 N306 1.375 . S
C308 C307 1.338 . S
C308 H312 0.931 . S
C309 N306 1.313 . S
C309 N310 1.344 . S
C309 H313 0.930 . S
N310 C307 1.377 . S
N310 C309 1.344 . S
O311 Co303 2.055 . S
O311 C315 1.253 . S
H312 C308 0.931 . S
H313 C309 0.930 . S
O314 Co303 2.042 . S
O314 C304 1.267 . S
C315 O311 1.253 . S
C315 O316 1.227 . S
O316 C315 1.227 . S
N317 Co303 2.140 . S
N317 C320 1.346 . S
N317 C321 1.345 . S
C318 C319 1.387 . S
C318 C322 1.391 . S
C319 C318 1.387 . S
C319 C320 1.369 . S
C319 H328 0.929 . S
C320 N317 1.346 . S
C320 C319 1.369 . S
C320 H323 0.928 . S
C321 N317 1.345 . S
C321 C322 1.371 . S
C321 H324 0.931 . S
C322 C318 1.391 . S
C322 C321 1.371 . S
C322 H329 0.930 . S
H323 C320 0.928 . S
H324 C321 0.931 . S
H325 C301 0.930 . S
H326 C298 0.930 . S
H327 C307 0.930 . S
H328 C319 0.929 . S
H329 C322 0.930 . S
C330 C331 1.351 . S
C330 N333 1.368 . S
C330 H335 0.931 . S
C331 C330 1.351 . S
C331 N332 1.373 . S
C331 H359 0.930 . S
N332 C331 1.373 . S
N332 C334 1.340 . S
N333 C330 1.368 . S
N333 C334 1.321 . S
N333 Co336 2.135 . S
C334 N332 1.340 . S
C334 N333 1.321 . S
C334 H358 0.930 1_655 S
H335 C330 0.931 . S
Co336 N333 2.135 . S
Co336 N339 2.121 . S
Co336 O344 2.055 . S
Co336 O347 2.039 1_655 S
Co336 N350 2.140 1_655 S
C337 O338 1.227 . S
C337 O347 1.265 . S
O338 C337 1.227 . S
N339 Co336 2.121 . S
N339 C341 1.375 1_655 S
N339 C342 1.313 . S
C340 C341 1.338 . S
C340 N343 1.377 1_455 S
C340 H360 0.930 . S
C341 N339 1.375 1_455 S
C341 C340 1.338 . S
C341 H345 0.931 . S
C342 N339 1.313 . S
C342 N343 1.344 . S
C342 H346 0.930 . S
N343 C340 1.377 1_655 S
N343 C342 1.344 . S
O344 Co336 2.055 . S
O344 C348 1.253 . S
H345 C341 0.931 . S
H346 C342 0.930 . S
O347 Co336 2.039 1_455 S
O347 C337 1.265 . S
C348 O344 1.253 . S
C348 O349 1.227 . S
O349 C348 1.227 . S
N350 Co336 2.140 1_455 S
N350 C353 1.346 . S
N350 C354 1.345 . S
C351 C352 1.387 . S
C351 C355 1.391 . S
C352 C351 1.387 . S
C352 C353 1.369 . S
C352 H361 0.929 . S
C353 N350 1.346 . S
C353 C352 1.369 . S
C353 H356 0.928 . S
C354 N350 1.345 . S
C354 C355 1.371 . S
C354 H357 0.931 1_455 S
C355 C351 1.391 . S
C355 C354 1.371 . S
C355 H362 0.930 . S
H356 C353 0.928 . S
H357 C354 0.931 1_655 S
H358 C334 0.930 1_455 S
H359 C331 0.930 . S
H360 C340 0.930 . S
H361 C352 0.929 . S
H362 C355 0.930 . S
C363 C364 1.351 . S
C363 N366 1.368 . S
C363 H368 0.931 . S
C364 C363 1.351 . S
C364 N365 1.373 . S
C364 H392 0.930 . S
N365 C364 1.373 . S
N365 C367 1.340 . S
N366 C363 1.368 . S
N366 C367 1.321 . S
N366 Co369 2.135 . S
C367 N365 1.340 . S
C367 N366 1.321 . S
C367 H391 0.930 1_565 S
H368 C363 0.931 . S
Co369 N366 2.135 . S
Co369 N372 2.121 . S
Co369 O377 2.055 . S
Co369 O380 2.039 1_565 S
Co369 N383 2.140 1_565 S
C370 O371 1.227 . S
C370 O380 1.265 . S
O371 C370 1.227 . S
N372 Co369 2.121 . S
N372 C374 1.375 1_565 S
N372 C375 1.313 . S
C373 C374 1.338 . S
C373 N376 1.377 1_545 S
C373 H393 0.930 . S
C374 N372 1.375 1_545 S
C374 C373 1.338 . S
C374 H378 0.931 . S
C375 N372 1.313 . S
C375 N376 1.344 . S
C375 H379 0.930 . S
N376 C373 1.377 1_565 S
N376 C375 1.344 . S
O377 Co369 2.055 . S
O377 C381 1.253 . S
H378 C374 0.931 . S
H379 C375 0.930 . S
O380 Co369 2.039 1_545 S
O380 C370 1.265 . S
C381 O377 1.253 . S
C381 O382 1.227 . S
O382 C381 1.227 . S
N383 Co369 2.140 1_545 S
N383 C386 1.346 . S
N383 C387 1.345 . S
C384 C385 1.387 . S
C384 C388 1.391 . S
C385 C384 1.387 . S
C385 C386 1.369 . S
C385 H394 0.929 . S
C386 N383 1.346 . S
C386 C385 1.369 . S
C386 H389 0.928 . S
C387 N383 1.345 . S
C387 C388 1.371 . S
C387 H390 0.931 1_545 S
C388 C384 1.391 . S
C388 C387 1.371 . S
C388 H395 0.930 . S
H389 C386 0.928 . S
H390 C387 0.931 1_565 S
H391 C367 0.930 1_545 S
H392 C364 0.930 . S
H393 C373 0.930 . S
H394 C385 0.929 . S
H395 C388 0.930 . S
C396 C397 1.363 . S
C396 C402 1.379 . S
C396 N404 1.356 . S
C397 C396 1.363 . S
C397 C403 1.363 . S
C398 C399 1.363 . S
C398 C403 1.379 . S
C398 N405 1.356 . S
C399 C398 1.363 . S
C399 C402 1.363 . S
N400 C402 1.356 . S
N400 H412 0.984 . S
N400 H413 0.985 . S
N401 C403 1.356 . S
N401 H406 0.984 . S
N401 H407 0.985 . S
C402 C396 1.379 . S
C402 C399 1.363 . S
C402 N400 1.356 . S
C403 C397 1.363 . S
C403 C398 1.379 . S
C403 N401 1.356 . S
N404 C396 1.356 . S
N404 H410 0.984 . S
N404 H411 0.984 . S
N405 C398 1.356 . S
N405 H408 0.984 . S
N405 H409 0.985 . S
H406 N401 0.984 . S
H407 N401 0.985 . S
H408 N405 0.984 . S
H409 N405 0.985 . S
H410 N404 0.984 . S
H411 N404 0.984 . S
H412 N400 0.984 . S
H413 N400 0.985 . S
C414 C415 1.363 . S
C414 C420 1.379 . S
C414 N422 1.356 . S
C415 C414 1.363 . S
C415 C421 1.363 . S
C416 C417 1.363 . S
C416 C421 1.379 . S
C416 N423 1.356 . S
C417 C416 1.363 . S
C417 C420 1.363 . S
N418 C420 1.356 . S
N418 H430 0.984 . S
N418 H431 0.985 . S
N419 C421 1.356 . S
N419 H424 0.984 . S
N419 H425 0.985 . S
C420 C414 1.379 . S
C420 C417 1.363 . S
C420 N418 1.356 . S
C421 C415 1.363 . S
C421 C416 1.379 . S
C421 N419 1.356 . S
N422 C414 1.356 . S
N422 H428 0.984 . S
N422 H429 0.984 . S
N423 C416 1.356 . S
N423 H426 0.984 . S
N423 H427 0.985 . S
H424 N419 0.984 . S
H425 N419 0.985 . S
H426 N423 0.984 . S
H427 N423 0.985 . S
H428 N422 0.984 . S
H429 N422 0.984 . S
H430 N418 0.984 . S
H431 N418 0.985 . S
C432 C433 1.363 . S
C432 C438 1.379 . S
C432 N440 1.356 . S
C433 C432 1.363 . S
C433 C439 1.363 . S
C434 C435 1.363 . S
C434 C439 1.379 . S
C434 N441 1.356 . S
C435 C434 1.363 . S
C435 C438 1.363 . S
N436 C438 1.356 . S
N436 H448 0.984 . S
N436 H449 0.985 . S
N437 C439 1.356 . S
N437 H442 0.984 . S
N437 H443 0.985 . S
C438 C432 1.379 . S
C438 C435 1.363 . S
C438 N436 1.356 . S
C439 C433 1.363 . S
C439 C434 1.379 . S
C439 N437 1.356 . S
N440 C432 1.356 . S
N440 H446 0.984 . S
N440 H447 0.984 . S
N441 C434 1.356 . S
N441 H444 0.984 . S
N441 H445 0.985 . S
H442 N437 0.984 . S
H443 N437 0.985 . S
H444 N441 0.984 . S
H445 N441 0.985 . S
H446 N440 0.984 . S
H447 N440 0.984 . S
H448 N436 0.984 . S
H449 N436 0.985 . S
C450 C451 1.363 . S
C450 C456 1.379 . S
C450 N458 1.356 . S
C451 C450 1.363 . S
C451 C457 1.363 . S
C452 C453 1.363 . S
C452 C457 1.379 . S
C452 N459 1.356 . S
C453 C452 1.363 . S
C453 C456 1.363 . S
N454 C456 1.356 . S
N454 H466 0.984 . S
N454 H467 0.985 . S
N455 C457 1.356 . S
N455 H460 0.984 . S
N455 H461 0.985 . S
C456 C450 1.379 . S
C456 C453 1.363 . S
C456 N454 1.356 . S
C457 C451 1.363 . S
C457 C452 1.379 . S
C457 N455 1.356 . S
N458 C450 1.356 . S
N458 H464 0.984 . S
N458 H465 0.984 . S
N459 C452 1.356 . S
N459 H462 0.984 . S
N459 H463 0.985 . S
H460 N455 0.984 . S
H461 N455 0.985 . S
H462 N459 0.984 . S
H463 N459 0.985 . S
H464 N458 0.984 . S
H465 N458 0.984 . S
H466 N454 0.984 . S
H467 N454 0.985 . S
C468 C469 1.363 1_556 S
C468 C474 1.379 . S
C468 N476 1.356 . S
C469 C468 1.363 1_554 S
C469 C475 1.363 . S
C470 C471 1.363 . S
C470 C475 1.379 . S
C470 N477 1.356 . S
C471 C470 1.363 . S
C471 C474 1.363 1_554 S
N472 C474 1.356 . S
N472 H484 0.984 . S
N472 H485 0.985 . S
N473 C475 1.356 . S
N473 H478 0.984 . S
N473 H479 0.985 . S
C474 C468 1.379 . S
C474 C471 1.363 1_556 S
C474 N472 1.356 . S
C475 C469 1.363 . S
C475 C470 1.379 . S
C475 N473 1.356 . S
N476 C468 1.356 . S
N476 H482 0.984 . S
N476 H483 0.984 . S
N477 C470 1.356 . S
N477 H480 0.984 . S
N477 H481 0.985 . S
H478 N473 0.984 . S
H479 N473 0.985 . S
H480 N477 0.984 . S
H481 N477 0.985 . S
H482 N476 0.984 . S
H483 N476 0.984 . S
H484 N472 0.984 . S
H485 N472 0.985 . S
C486 C487 1.363 . S
C486 C492 1.379 . S
C486 N494 1.356 . S
C487 C486 1.363 . S
C487 C493 1.363 . S
C488 C489 1.363 . S
C488 C493 1.379 . S
C488 N495 1.356 . S
C489 C488 1.363 . S
C489 C492 1.363 . S
N490 C492 1.356 . S
N490 H502 0.984 . S
N490 H503 0.985 . S
N491 C493 1.356 . S
N491 H496 0.984 . S
N491 H497 0.985 . S
C492 C486 1.379 . S
C492 C489 1.363 . S
C492 N490 1.356 . S
C493 C487 1.363 . S
C493 C488 1.379 . S
C493 N491 1.356 . S
N494 C486 1.356 . S
N494 H500 0.984 . S
N494 H501 0.984 . S
N495 C488 1.356 . S
N495 H498 0.984 . S
N495 H499 0.985 . S
H496 N491 0.984 . S
H497 N491 0.985 . S
H498 N495 0.984 . S
H499 N495 0.985 . S
H500 N494 0.984 . S
H501 N494 0.984 . S
H502 N490 0.984 . S
H503 N490 0.985 . S
C504 C505 1.363 . S
C504 C510 1.379 . S
C504 N512 1.356 . S
C505 C504 1.363 . S
C505 C511 1.363 . S
C506 C507 1.363 . S
C506 C511 1.379 . S
C506 N513 1.356 . S
C507 C506 1.363 . S
C507 C510 1.363 . S
N508 C510 1.356 . S
N508 H520 0.984 . S
N508 H521 0.985 . S
N509 C511 1.356 . S
N509 H514 0.984 . S
N509 H515 0.985 . S
C510 C504 1.379 . S
C510 C507 1.363 . S
C510 N508 1.356 . S
C511 C505 1.363 . S
C511 C506 1.379 . S
C511 N509 1.356 . S
N512 C504 1.356 . S
N512 H518 0.984 . S
N512 H519 0.984 . S
N513 C506 1.356 . S
N513 H516 0.984 . S
N513 H517 0.985 . S
H514 N509 0.984 . S
H515 N509 0.985 . S
H516 N513 0.984 . S
H517 N513 0.985 . S
H518 N512 0.984 . S
H519 N512 0.984 . S
H520 N508 0.984 . S
H521 N508 0.985 . S
C522 C523 1.363 . S
C522 C528 1.379 . S
C522 N530 1.356 . S
C523 C522 1.363 . S
C523 C529 1.363 . S
C524 C525 1.363 . S
C524 C529 1.379 . S
C524 N531 1.356 . S
C525 C524 1.363 . S
C525 C528 1.363 . S
N526 C528 1.356 . S
N526 H538 0.984 . S
N526 H539 0.985 . S
N527 C529 1.356 . S
N527 H532 0.984 . S
N527 H533 0.985 . S
C528 C522 1.379 . S
C528 C525 1.363 . S
C528 N526 1.356 . S
C529 C523 1.363 . S
C529 C524 1.379 . S
C529 N527 1.356 . S
N530 C522 1.356 . S
N530 H536 0.984 . S
N530 H537 0.984 . S
N531 C524 1.356 . S
N531 H534 0.984 . S
N531 H535 0.985 . S
H532 N527 0.984 . S
H533 N527 0.985 . S
H534 N531 0.984 . S
H535 N531 0.985 . S
H536 N530 0.984 . S
H537 N530 0.984 . S
H538 N526 0.984 . S
H539 N526 0.985 . S
C540 C541 1.363 . S
C540 C546 1.379 . S
C540 N548 1.356 . S
C541 C540 1.363 . S
C541 C547 1.363 . S
C542 C543 1.363 . S
C542 C547 1.379 . S
C542 N549 1.356 . S
C543 C542 1.363 . S
C543 C546 1.363 . S
N544 C546 1.356 . S
N544 H556 0.984 . S
N544 H557 0.985 . S
N545 C547 1.356 . S
N545 H550 0.984 . S
N545 H551 0.985 . S
C546 C540 1.379 . S
C546 C543 1.363 . S
C546 N544 1.356 . S
C547 C541 1.363 . S
C547 C542 1.379 . S
C547 N545 1.356 . S
N548 C540 1.356 . S
N548 H554 0.984 . S
N548 H555 0.984 . S
N549 C542 1.356 . S
N549 H552 0.984 . S
N549 H553 0.985 . S
H550 N545 0.984 . S
H551 N545 0.985 . S
H552 N549 0.984 . S
H553 N549 0.985 . S
H554 N548 0.984 . S
H555 N548 0.984 . S
H556 N544 0.984 . S
H557 N544 0.985 . S
C558 C559 1.363 . S
C558 C564 1.379 . S
C558 N566 1.356 . S
C559 C558 1.363 . S
C559 C565 1.363 1_556 S
C560 C561 1.363 1_554 S
C560 C565 1.379 . S
C560 N567 1.356 . S
C561 C560 1.363 1_556 S
C561 C564 1.363 . S
N562 C564 1.356 . S
N562 H574 0.984 . S
N562 H575 0.985 . S
N563 C565 1.356 . S
N563 H568 0.984 . S
N563 H569 0.985 . S
C564 C558 1.379 . S
C564 C561 1.363 . S
C564 N562 1.356 . S
C565 C559 1.363 1_554 S
C565 C560 1.379 . S
C565 N563 1.356 . S
N566 C558 1.356 . S
N566 H572 0.984 . S
N566 H573 0.984 . S
N567 C560 1.356 . S
N567 H570 0.984 . S
N567 H571 0.985 . S
H568 N563 0.984 . S
H569 N563 0.985 . S
H570 N567 0.984 . S
H571 N567 0.985 . S
H572 N566 0.984 . S
H573 N566 0.984 . S
H574 N562 0.984 . S
H575 N562 0.985 . S
C576 C577 1.363 . S
C576 C582 1.379 . S
C576 N584 1.356 . S
C577 C576 1.363 . S
C577 C583 1.363 . S
C578 C579 1.363 . S
C578 C583 1.379 . S
C578 N585 1.356 . S
C579 C578 1.363 . S
C579 C582 1.363 . S
N580 C582 1.356 . S
N580 H592 0.984 . S
N580 H593 0.985 . S
N581 C583 1.356 . S
N581 H586 0.984 . S
N581 H587 0.985 . S
C582 C576 1.379 . S
C582 C579 1.363 . S
C582 N580 1.356 . S
C583 C577 1.363 . S
C583 C578 1.379 . S
C583 N581 1.356 . S
N584 C576 1.356 . S
N584 H590 0.984 . S
N584 H591 0.984 . S
N585 C578 1.356 . S
N585 H588 0.984 . S
N585 H589 0.985 . S
H586 N581 0.984 . S
H587 N581 0.985 . S
H588 N585 0.984 . S
H589 N585 0.985 . S
H590 N584 0.984 . S
H591 N584 0.984 . S
H592 N580 0.984 . S
H593 N580 0.985 . S
C594 C595 1.363 . S
C594 C600 1.379 . S
C594 N602 1.356 . S
C595 C594 1.363 . S
C595 C601 1.363 . S
C596 C597 1.363 . S
C596 C601 1.379 . S
C596 N603 1.356 . S
C597 C596 1.363 . S
C597 C600 1.363 . S
N598 C600 1.356 . S
N598 H610 0.984 . S
N598 H611 0.985 . S
N599 C601 1.356 . S
N599 H604 0.984 . S
N599 H605 0.985 . S
C600 C594 1.379 . S
C600 C597 1.363 . S
C600 N598 1.356 . S
C601 C595 1.363 . S
C601 C596 1.379 . S
C601 N599 1.356 . S
N602 C594 1.356 . S
N602 H608 0.984 . S
N602 H609 0.984 . S
N603 C596 1.356 . S
N603 H606 0.984 . S
N603 H607 0.985 . S
H604 N599 0.984 . S
H605 N599 0.985 . S
H606 N603 0.984 . S
H607 N603 0.985 . S
H608 N602 0.984 . S
H609 N602 0.984 . S
H610 N598 0.984 . S
H611 N598 0.985 . S
C612 C613 1.363 . S
C612 C618 1.379 . S
C612 N620 1.356 . S
C613 C612 1.363 . S
C613 C619 1.363 . S
C614 C615 1.363 . S
C614 C619 1.379 . S
C614 N621 1.356 . S
C615 C614 1.363 . S
C615 C618 1.363 . S
N616 C618 1.356 . S
N616 H628 0.984 . S
N616 H629 0.985 . S
N617 C619 1.356 . S
N617 H622 0.984 . S
N617 H623 0.985 . S
C618 C612 1.379 . S
C618 C615 1.363 . S
C618 N616 1.356 . S
C619 C613 1.363 . S
C619 C614 1.379 . S
C619 N617 1.356 . S
N620 C612 1.356 . S
N620 H626 0.984 . S
N620 H627 0.984 . S
N621 C614 1.356 . S
N621 H624 0.984 . S
N621 H625 0.985 . S
H622 N617 0.984 . S
H623 N617 0.985 . S
H624 N621 0.984 . S
H625 N621 0.985 . S
H626 N620 0.984 . S
H627 N620 0.984 . S
H628 N616 0.984 . S
H629 N616 0.985 . S
C630 C631 1.363 1_655 S
C630 C636 1.379 . S
C630 N638 1.356 . S
C631 C630 1.363 1_455 S
C631 C637 1.363 . S
C632 C633 1.363 . S
C632 C637 1.379 . S
C632 N639 1.356 . S
C633 C632 1.363 . S
C633 C636 1.363 1_455 S
N634 C636 1.356 . S
N634 H646 0.984 . S
N634 H647 0.985 . S
N635 C637 1.356 . S
N635 H640 0.984 . S
N635 H641 0.985 . S
C636 C630 1.379 . S
C636 C633 1.363 1_655 S
C636 N634 1.356 . S
C637 C631 1.363 . S
C637 C632 1.379 . S
C637 N635 1.356 . S
N638 C630 1.356 . S
N638 H644 0.984 . S
N638 H645 0.984 . S
N639 C632 1.356 . S
N639 H642 0.984 . S
N639 H643 0.985 . S
H640 N635 0.984 . S
H641 N635 0.985 . S
H642 N639 0.984 . S
H643 N639 0.985 . S
H644 N638 0.984 . S
H645 N638 0.984 . S
H646 N634 0.984 . S
H647 N634 0.985 . S
C648 C649 1.363 1_565 S
C648 C654 1.379 . S
C648 N656 1.356 . S
C649 C648 1.363 1_545 S
C649 C655 1.363 . S
C650 C651 1.363 . S
C650 C655 1.379 . S
C650 N657 1.356 . S
C651 C650 1.363 . S
C651 C654 1.363 1_545 S
N652 C654 1.356 . S
N652 H664 0.984 . S
N652 H665 0.985 . S
N653 C655 1.356 . S
N653 H658 0.984 . S
N653 H659 0.985 . S
C654 C648 1.379 . S
C654 C651 1.363 1_565 S
C654 N652 1.356 . S
C655 C649 1.363 . S
C655 C650 1.379 . S
C655 N653 1.356 . S
N656 C648 1.356 . S
N656 H662 0.984 . S
N656 H663 0.984 . S
N657 C650 1.356 . S
N657 H660 0.984 . S
N657 H661 0.985 . S
H658 N653 0.984 . S
H659 N653 0.985 . S
H660 N657 0.984 . S
H661 N657 0.985 . S
H662 N656 0.984 . S
H663 N656 0.984 . S
H664 N652 0.984 . S
H665 N652 0.985 . S
C666 C667 1.363 . S
C666 C672 1.379 . S
C666 N674 1.356 . S
C667 C666 1.363 . S
C667 C673 1.363 . S
C668 C669 1.363 . S
C668 C673 1.379 . S
C668 N675 1.356 . S
C669 C668 1.363 . S
C669 C672 1.363 . S
N670 C672 1.356 . S
N670 H682 0.984 . S
N670 H683 0.985 . S
N671 C673 1.356 . S
N671 H676 0.984 . S
N671 H677 0.985 . S
C672 C666 1.379 . S
C672 C669 1.363 . S
C672 N670 1.356 . S
C673 C667 1.363 . S
C673 C668 1.379 . S
C673 N671 1.356 . S
N674 C666 1.356 . S
N674 H680 0.984 . S
N674 H681 0.984 . S
N675 C668 1.356 . S
N675 H678 0.984 . S
N675 H679 0.985 . S
H676 N671 0.984 . S
H677 N671 0.985 . S
H678 N675 0.984 . S
H679 N675 0.985 . S
H680 N674 0.984 . S
H681 N674 0.984 . S
H682 N670 0.984 . S
H683 N670 0.985 . S
C684 C685 1.363 . S
C684 C690 1.379 . S
C684 N692 1.356 . S
C685 C684 1.363 . S
C685 C691 1.363 . S
C686 C687 1.363 . S
C686 C691 1.379 . S
C686 N693 1.356 1_655 S
C687 C686 1.363 . S
C687 C690 1.363 . S
N688 C690 1.356 . S
N688 H700 0.984 . S
N688 H701 0.985 . S
N689 C691 1.356 1_455 S
N689 H694 0.984 . S
N689 H695 0.985 . S
C690 C684 1.379 . S
C690 C687 1.363 . S
C690 N688 1.356 . S
C691 C685 1.363 . S
C691 C686 1.379 . S
C691 N689 1.356 1_655 S
N692 C684 1.356 . S
N692 H698 0.984 . S
N692 H699 0.984 . S
N693 C686 1.356 1_455 S
N693 H696 0.984 . S
N693 H697 0.985 . S
H694 N689 0.984 . S
H695 N689 0.985 . S
H696 N693 0.984 . S
H697 N693 0.985 . S
H698 N692 0.984 . S
H699 N692 0.984 . S
H700 N688 0.984 . S
H701 N688 0.985 . S
C702 C703 1.363 1_545 S
C702 C708 1.379 . S
C702 N710 1.356 . S
C703 C702 1.363 1_565 S
C703 C709 1.363 . S
C704 C705 1.363 . S
C704 C709 1.379 . S
C704 N711 1.356 . S
C705 C704 1.363 . S
C705 C708 1.363 1_565 S
N706 C708 1.356 . S
N706 H718 0.984 . S
N706 H719 0.985 . S
N707 C709 1.356 . S
N707 H712 0.984 . S
N707 H713 0.985 . S
C708 C702 1.379 . S
C708 C705 1.363 1_545 S
C708 N706 1.356 . S
C709 C703 1.363 . S
C709 C704 1.379 . S
C709 N707 1.356 . S
N710 C702 1.356 . S
N710 H716 0.984 . S
N710 H717 0.984 . S
N711 C704 1.356 . S
N711 H714 0.984 . S
N711 H715 0.985 . S
H712 N707 0.984 . S
H713 N707 0.985 . S
H714 N711 0.984 . S
H715 N711 0.985 . S
H716 N710 0.984 . S
H717 N710 0.984 . S
H718 N706 0.984 . S
H719 N706 0.985 . S
C720 C721 1.363 . S
C720 C726 1.379 . S
C720 N728 1.356 . S
C721 C720 1.363 . S
C721 C727 1.363 . S
C722 C723 1.363 . S
C722 C727 1.379 . S
C722 N729 1.356 . S
C723 C722 1.363 . S
C723 C726 1.363 . S
N724 C726 1.356 . S
N724 H736 0.984 . S
N724 H737 0.985 . S
N725 C727 1.356 . S
N725 H730 0.984 . S
N725 H731 0.985 . S
C726 C720 1.379 . S
C726 C723 1.363 . S
C726 N724 1.356 . S
C727 C721 1.363 . S
C727 C722 1.379 . S
C727 N725 1.356 . S
N728 C720 1.356 . S
N728 H734 0.984 1_545 S
N728 H735 0.984 . S
N729 C722 1.356 . S
N729 H732 0.984 . S
N729 H733 0.985 . S
H730 N725 0.984 . S
H731 N725 0.985 . S
H732 N729 0.984 . S
H733 N729 0.985 . S
H734 N728 0.984 1_565 S
H735 N728 0.984 . S
H736 N724 0.984 . S
H737 N724 0.985 . S
C738 C739 1.363 1_655 S
C738 C744 1.379 . S
C738 N746 1.356 . S
C739 C738 1.363 1_455 S
C739 C745 1.363 . S
C740 C741 1.363 . S
C740 C745 1.379 . S
C740 N747 1.356 . S
C741 C740 1.363 . S
C741 C744 1.363 1_455 S
N742 C744 1.356 . S
N742 H754 0.984 . S
N742 H755 0.985 . S
N743 C745 1.356 . S
N743 H748 0.984 . S
N743 H749 0.985 . S
C744 C738 1.379 . S
C744 C741 1.363 1_655 S
C744 N742 1.356 . S
C745 C739 1.363 . S
C745 C740 1.379 . S
C745 N743 1.356 . S
N746 C738 1.356 . S
N746 H752 0.984 . S
N746 H753 0.984 . S
N747 C740 1.356 . S
N747 H750 0.984 . S
N747 H751 0.985 . S
H748 N743 0.984 . S
H749 N743 0.985 . S
H750 N747 0.984 . S
H751 N747 0.985 . S
H752 N746 0.984 . S
H753 N746 0.984 . S
H754 N742 0.984 . S
H755 N742 0.985 . S
C756 C757 1.363 . S
C756 C762 1.379 . S
C756 N764 1.356 1_545 S
C757 C756 1.363 . S
C757 C763 1.363 . S
C758 C759 1.363 . S
C758 C763 1.379 . S
C758 N765 1.356 . S
C759 C758 1.363 . S
C759 C762 1.363 . S
N760 C762 1.356 1_565 S
N760 H772 0.984 . S
N760 H773 0.985 . S
N761 C763 1.356 . S
N761 H766 0.984 . S
N761 H767 0.985 . S
C762 C756 1.379 . S
C762 C759 1.363 . S
C762 N760 1.356 1_545 S
C763 C757 1.363 . S
C763 C758 1.379 . S
C763 N761 1.356 . S
N764 C756 1.356 1_565 S
N764 H770 0.984 . S
N764 H771 0.984 . S
N765 C758 1.356 . S
N765 H768 0.984 . S
N765 H769 0.985 . S
H766 N761 0.984 . S
H767 N761 0.985 . S
H768 N765 0.984 . S
H769 N765 0.985 . S
H770 N764 0.984 . S
H771 N764 0.984 . S
H772 N760 0.984 . S
H773 N760 0.985 . S
C774 C775 1.363 . S
C774 C780 1.379 . S
C774 N782 1.356 . S
C775 C774 1.363 . S
C775 C781 1.363 . S
C776 C777 1.363 . S
C776 C781 1.379 . S
C776 N783 1.356 . S
C777 C776 1.363 . S
C777 C780 1.363 . S
N778 C780 1.356 . S
N778 H790 0.984 . S
N778 H791 0.985 . S
N779 C781 1.356 . S
N779 H784 0.984 . S
N779 H785 0.985 . S
C780 C774 1.379 . S
C780 C777 1.363 . S
C780 N778 1.356 . S
C781 C775 1.363 . S
C781 C776 1.379 . S
C781 N779 1.356 . S
N782 C774 1.356 . S
N782 H788 0.984 . S
N782 H789 0.984 . S
N783 C776 1.356 . S
N783 H786 0.984 . S
N783 H787 0.985 1_565 S
H784 N779 0.984 . S
H785 N779 0.985 . S
H786 N783 0.984 . S
H787 N783 0.985 1_545 S
H788 N782 0.984 . S
H789 N782 0.984 . S
H790 N778 0.984 . S
H791 N778 0.985 . S
C792 C793 1.363 . S
C792 C798 1.379 . S
C792 N800 1.356 . S
C793 C792 1.363 . S
C793 C799 1.363 . S
C794 C795 1.363 . S
C794 C799 1.379 . S
C794 N801 1.356 . S
C795 C794 1.363 . S
C795 C798 1.363 . S
N796 C798 1.356 . S
N796 H808 0.984 . S
N796 H809 0.985 . S
N797 C799 1.356 . S
N797 H802 0.984 . S
N797 H803 0.985 . S
C798 C792 1.379 . S
C798 C795 1.363 . S
C798 N796 1.356 . S
C799 C793 1.363 . S
C799 C794 1.379 . S
C799 N797 1.356 . S
N800 C792 1.356 . S
N800 H806 0.984 . S
N800 H807 0.984 . S
N801 C794 1.356 . S
N801 H804 0.984 . S
N801 H805 0.985 . S
H802 N797 0.984 . S
H803 N797 0.985 . S
H804 N801 0.984 . S
H805 N801 0.985 . S
H806 N800 0.984 . S
H807 N800 0.984 . S
H808 N796 0.984 . S
H809 N796 0.985 . S
C810 C811 1.363 . S
C810 C816 1.379 . S
C810 N818 1.356 . S
C811 C810 1.363 . S
C811 C817 1.363 1_565 S
C812 C813 1.363 1_545 S
C812 C817 1.379 . S
C812 N819 1.356 . S
C813 C812 1.363 1_565 S
C813 C816 1.363 . S
N814 C816 1.356 . S
N814 H826 0.984 . S
N814 H827 0.985 . S
N815 C817 1.356 . S
N815 H820 0.984 . S
N815 H821 0.985 . S
C816 C810 1.379 . S
C816 C813 1.363 . S
C816 N814 1.356 . S
C817 C811 1.363 1_545 S
C817 C812 1.379 . S
C817 N815 1.356 . S
N818 C810 1.356 . S
N818 H824 0.984 . S
N818 H825 0.984 . S
N819 C812 1.356 . S
N819 H822 0.984 . S
N819 H823 0.985 . S
H820 N815 0.984 . S
H821 N815 0.985 . S
H822 N819 0.984 . S
H823 N819 0.985 . S
H824 N818 0.984 . S
H825 N818 0.984 . S
H826 N814 0.984 . S
H827 N814 0.985 . S
C828 C829 1.363 . S
C828 C834 1.379 . S
C828 N836 1.356 . S
C829 C828 1.363 . S
C829 C835 1.363 . S
C830 C831 1.363 . S
C830 C835 1.379 . S
C830 N837 1.356 . S
C831 C830 1.363 . S
C831 C834 1.363 . S
N832 C834 1.356 . S
N832 H844 0.984 1_655 S
N832 H845 0.985 . S
N833 C835 1.356 . S
N833 H838 0.984 . S
N833 H839 0.985 . S
C834 C828 1.379 . S
C834 C831 1.363 . S
C834 N832 1.356 . S
C835 C829 1.363 . S
C835 C830 1.379 . S
C835 N833 1.356 . S
N836 C828 1.356 . S
N836 H842 0.984 1_655 S
N836 H843 0.984 . S
N837 C830 1.356 . S
N837 H840 0.984 . S
N837 H841 0.985 . S
H838 N833 0.984 . S
H839 N833 0.985 . S
H840 N837 0.984 . S
H841 N837 0.985 . S
H842 N836 0.984 1_455 S
H843 N836 0.984 . S
H844 N832 0.984 1_455 S
H845 N832 0.985 . S
C846 C847 1.363 . S
C846 C852 1.379 . S
C846 N854 1.356 . S
C847 C846 1.363 . S
C847 C853 1.363 . S
C848 C849 1.363 . S
C848 C853 1.379 . S
C848 N855 1.356 1_455 S
C849 C848 1.363 . S
C849 C852 1.363 . S
N850 C852 1.356 . S
N850 H862 0.984 . S
N850 H863 0.985 . S
N851 C853 1.356 1_655 S
N851 H856 0.984 1_655 S
N851 H857 0.985 . S
C852 C846 1.379 . S
C852 C849 1.363 . S
C852 N850 1.356 . S
C853 C847 1.363 . S
C853 C848 1.379 . S
C853 N851 1.356 1_455 S
N854 C846 1.356 . S
N854 H860 0.984 . S
N854 H861 0.984 . S
N855 C848 1.356 1_655 S
N855 H858 0.984 . S
N855 H859 0.985 . S
H856 N851 0.984 1_455 S
H857 N851 0.985 . S
H858 N855 0.984 . S
H859 N855 0.985 . S
H860 N854 0.984 . S
H861 N854 0.984 . S
H862 N850 0.984 . S
H863 N850 0.985 . S
C864 C865 1.363 . S
C864 C870 1.379 . S
C864 N872 1.356 . S
C865 C864 1.363 . S
C865 C871 1.363 1_545 S
C866 C867 1.359 1_565 S
C866 C871 1.380 . S
C866 N873 1.358 . S
C867 C866 1.359 1_545 S
C867 C870 1.363 . S
N868 C870 1.356 . S
N868 H880 0.984 . S
N868 H881 0.985 . S
N869 C871 1.356 . S
N869 H874 0.984 . S
N869 H875 0.985 . S
C870 C864 1.379 . S
C870 C867 1.363 . S
C870 N868 1.356 . S
C871 C865 1.363 1_565 S
C871 C866 1.380 . S
C871 N869 1.356 . S
N872 C864 1.356 . S
N872 H878 0.984 . S
N872 H879 0.984 . S
N873 C866 1.358 . S
N873 H876 0.984 . S
N873 H877 0.985 . S
H874 N869 0.984 . S
H875 N869 0.985 . S
H876 N873 0.984 . S
H877 N873 0.985 . S
H878 N872 0.984 . S
H879 N872 0.984 . S
H880 N868 0.984 . S
H881 N868 0.985 . S
C882 C883 1.363 . S
C882 C888 1.379 . S
C882 N890 1.356 . S
C883 C882 1.363 . S
C883 C889 1.363 . S
C884 C885 1.363 . S
C884 C889 1.379 . S
C884 N891 1.356 . S
C885 C884 1.363 . S
C885 C888 1.363 . S
N886 C888 1.356 . S
N886 H898 0.984 . S
N886 H899 0.985 . S
N887 C889 1.356 . S
N887 H892 0.984 . S
N887 H893 0.985 1_455 S
C888 C882 1.379 . S
C888 C885 1.363 . S
C888 N886 1.356 . S
C889 C883 1.363 . S
C889 C884 1.379 . S
C889 N887 1.356 . S
N890 C882 1.356 . S
N890 H896 0.984 . S
N890 H897 0.984 . S
N891 C884 1.356 . S
N891 H894 0.984 . S
N891 H895 0.985 1_455 S
H892 N887 0.984 . S
H893 N887 0.985 1_655 S
H894 N891 0.984 . S
H895 N891 0.985 1_655 S
H896 N890 0.984 . S
H897 N890 0.984 . S
H898 N886 0.984 . S
H899 N886 0.985 . S
C900 C901 1.363 1_455 S
C900 C906 1.379 . S
C900 N908 1.356 . S
C901 C900 1.363 1_655 S
C901 C907 1.363 . S
C902 C903 1.363 . S
C902 C907 1.379 . S
C902 N909 1.356 . S
C903 C902 1.363 . S
C903 C906 1.363 1_655 S
N904 C906 1.356 . S
N904 H916 0.984 . S
N904 H917 0.985 . S
N905 C907 1.356 . S
N905 H910 0.984 . S
N905 H911 0.991 . S
C906 C900 1.379 . S
C906 C903 1.363 1_455 S
C906 N904 1.356 . S
C907 C901 1.363 . S
C907 C902 1.379 . S
C907 N905 1.356 . S
N908 C900 1.356 . S
N908 H914 0.984 . S
N908 H915 0.984 . S
N909 C902 1.356 . S
N909 H912 0.984 . S
N909 H913 0.985 1_545 S
H910 N905 0.984 . S
H911 N905 0.991 . S
H912 N909 0.984 . S
H913 N909 0.985 1_565 S
H914 N908 0.984 . S
H915 N908 0.984 . S
H916 N904 0.984 . S
H917 N904 0.985 . S
C918 C919 1.363 1_545 S
C918 C924 1.379 1_545 S
C918 N926 1.356 . S
C919 C918 1.363 1_565 S
C919 C925 1.363 . S
C920 C921 1.363 . S
C920 C925 1.379 . S
C920 N927 1.356 . S
C921 C920 1.363 . S
C921 C924 1.363 . S
N922 C924 1.356 1_545 S
N922 H934 0.984 . S
N922 H935 0.985 . S
N923 C925 1.356 . S
N923 H928 0.984 . S
N923 H929 0.985 . S
C924 C918 1.379 1_565 S
C924 C921 1.363 . S
C924 N922 1.356 1_565 S
C925 C919 1.363 . S
C925 C920 1.379 . S
C925 N923 1.356 . S
N926 C918 1.356 . S
N926 H932 0.984 . S
N926 H933 0.984 . S
N927 C920 1.356 . S
N927 H930 0.984 . S
N927 H931 0.985 . S
H928 N923 0.984 . S
H929 N923 0.985 . S
H930 N927 0.984 . S
H931 N927 0.985 . S
H932 N926 0.984 . S
H933 N926 0.984 . S
H934 N922 0.984 . S
H935 N922 0.985 . S
C397 C18 1.899 . S
C399 C370 1.816 . S
C415 C51 1.899 . S
C417 C205 1.816 . S
C433 C238 1.815 . S
C435 C84 1.899 . S
C451 C271 1.816 . S
C453 C117 1.899 . S
C469 C150 1.899 . S
C471 C304 1.816 1_554 S
C487 C183 1.899 . S
C489 C337 1.816 . S
C505 C40 1.816 . S
C507 C216 1.900 . S
C523 C249 1.899 . S
C525 C73 1.816 . S
C541 C106 1.816 . S
C543 C282 1.899 . S
C559 C315 1.899 . S
C561 C139 1.816 . S
C577 C348 1.899 . S
C579 C172 1.816 . S
C595 C7 1.816 . S
C597 C381 1.899 . S
C613 N200 0.565 . S
C615 N2 0.565 . S
C631 N35 0.564 . S
C633 N233 0.564 . S
C649 N68 0.564 . S
C651 N266 0.564 . S
C667 N101 0.565 . S
C669 N299 0.565 . S
C685 N332 0.564 . S
C687 N134 0.564 . S
C703 N365 0.564 . S
C705 N167 0.565 . S
C721 C186 1.303 . S
C723 N13 1.347 . S
C739 C21 1.303 . S
C741 N46 1.347 . S
C757 N79 1.347 . S
C759 C54 1.303 . S
C775 N112 1.347 . S
C777 C87 1.304 . S
C793 N145 1.346 . S
C795 C120 1.303 . S
C811 N178 1.347 . S
C813 C153 1.303 . S
C829 N211 1.347 . S
C831 C252 1.304 . S
C847 C285 1.303 . S
C849 N244 1.346 . S
C865 N277 1.347 . S
C867 C318 1.303 . S
C883 N310 1.347 . S
C885 C351 1.303 . S
C901 N343 1.347 . S
C903 C384 1.304 . S
C919 N376 1.347 . S
C921 C219 1.303 . S
