# Generated by pormake.
# Topology zfk, (5)-cn, num edge types: 1
# Building blocks:
#     Node 0, Type 0, BuildingBlock: BEQFEK_clean_sbu_0, # of connection points: 5
#     Node 1, Type 0, BuildingBlock: BEQFEK_clean_sbu_0, # of connection points: 5
#     Node 2, Type 0, BuildingBlock: BEQFEK_clean_sbu_0, # of connection points: 5
#     Node 3, Type 0, BuildingBlock: BEQFEK_clean_sbu_0, # of connection points: 5
#     Node 4, Type 0, BuildingBlock: BEQFEK_clean_sbu_0, # of connection points: 5
#     Node 5, Type 0, BuildingBlock: BEQFEK_clean_sbu_0, # of connection points: 5
#     Node 6, Type 0, BuildingBlock: BEQFEK_clean_sbu_0, # of connection points: 5
#     Node 7, Type 0, BuildingBlock: BEQFEK_clean_sbu_0, # of connection points: 5
#     Node 8, Type 0, BuildingBlock: BEQFEK_clean_sbu_0, # of connection points: 5
#     Node 9, Type 0, BuildingBlock: BEQFEK_clean_sbu_0, # of connection points: 5
#     Node 10, Type 0, BuildingBlock: BEQFEK_clean_sbu_0, # of connection points: 5
#     Node 11, Type 0, BuildingBlock: BEQFEK_clean_sbu_0, # of connection points: 5
#     Node 12, Type 0, BuildingBlock: BEQFEK_clean_sbu_0, # of connection points: 5
#     Node 13, Type 0, BuildingBlock: BEQFEK_clean_sbu_0, # of connection points: 5
#     Node 14, Type 0, BuildingBlock: BEQFEK_clean_sbu_0, # of connection points: 5
#     Node 15, Type 0, BuildingBlock: BEQFEK_clean_sbu_0, # of connection points: 5
#     Edge 16, Type (0, 0), BuildingBlock: OJICUG_clean_linker_0, # of connection points: 2
#     Edge 17, Type (0, 0), BuildingBlock: OJICUG_clean_linker_0, # of connection points: 2
#     Edge 18, Type (0, 0), BuildingBlock: OJICUG_clean_linker_0, # of connection points: 2
#     Edge 19, Type (0, 0), BuildingBlock: OJICUG_clean_linker_0, # of connection points: 2
#     Edge 20, Type (0, 0), BuildingBlock: OJICUG_clean_linker_0, # of connection points: 2
#     Edge 21, Type (0, 0), BuildingBlock: OJICUG_clean_linker_0, # of connection points: 2
#     Edge 22, Type (0, 0), BuildingBlock: OJICUG_clean_linker_0, # of connection points: 2
#     Edge 23, Type (0, 0), BuildingBlock: OJICUG_clean_linker_0, # of connection points: 2
#     Edge 24, Type (0, 0), BuildingBlock: OJICUG_clean_linker_0, # of connection points: 2
#     Edge 25, Type (0, 0), BuildingBlock: OJICUG_clean_linker_0, # of connection points: 2
#     Edge 26, Type (0, 0), BuildingBlock: OJICUG_clean_linker_0, # of connection points: 2
#     Edge 27, Type (0, 0), BuildingBlock: OJICUG_clean_linker_0, # of connection points: 2
#     Edge 28, Type (0, 0), BuildingBlock: OJICUG_clean_linker_0, # of connection points: 2
#     Edge 29, Type (0, 0), BuildingBlock: OJICUG_clean_linker_0, # of connection points: 2
#     Edge 30, Type (0, 0), BuildingBlock: OJICUG_clean_linker_0, # of connection points: 2
#     Edge 31, Type (0, 0), BuildingBlock: OJICUG_clean_linker_0, # of connection points: 2
#     Edge 32, Type (0, 0), BuildingBlock: OJICUG_clean_linker_0, # of connection points: 2
#     Edge 33, Type (0, 0), BuildingBlock: OJICUG_clean_linker_0, # of connection points: 2
#     Edge 34, Type (0, 0), BuildingBlock: OJICUG_clean_linker_0, # of connection points: 2
#     Edge 35, Type (0, 0), BuildingBlock: OJICUG_clean_linker_0, # of connection points: 2
#     Edge 36, Type (0, 0), BuildingBlock: OJICUG_clean_linker_0, # of connection points: 2
#     Edge 37, Type (0, 0), BuildingBlock: OJICUG_clean_linker_0, # of connection points: 2
#     Edge 38, Type (0, 0), BuildingBlock: OJICUG_clean_linker_0, # of connection points: 2
#     Edge 39, Type (0, 0), BuildingBlock: OJICUG_clean_linker_0, # of connection points: 2
#     Edge 40, Type (0, 0), BuildingBlock: OJICUG_clean_linker_0, # of connection points: 2
#     Edge 41, Type (0, 0), BuildingBlock: OJICUG_clean_linker_0, # of connection points: 2
#     Edge 42, Type (0, 0), BuildingBlock: OJICUG_clean_linker_0, # of connection points: 2
#     Edge 43, Type (0, 0), BuildingBlock: OJICUG_clean_linker_0, # of connection points: 2
#     Edge 44, Type (0, 0), BuildingBlock: OJICUG_clean_linker_0, # of connection points: 2
#     Edge 45, Type (0, 0), BuildingBlock: OJICUG_clean_linker_0, # of connection points: 2
#     Edge 46, Type (0, 0), BuildingBlock: OJICUG_clean_linker_0, # of connection points: 2
#     Edge 47, Type (0, 0), BuildingBlock: OJICUG_clean_linker_0, # of connection points: 2
#     Edge 48, Type (0, 0), BuildingBlock: OJICUG_clean_linker_0, # of connection points: 2
#     Edge 49, Type (0, 0), BuildingBlock: OJICUG_clean_linker_0, # of connection points: 2
#     Edge 50, Type (0, 0), BuildingBlock: OJICUG_clean_linker_0, # of connection points: 2
#     Edge 51, Type (0, 0), BuildingBlock: OJICUG_clean_linker_0, # of connection points: 2
#     Edge 52, Type (0, 0), BuildingBlock: OJICUG_clean_linker_0, # of connection points: 2
#     Edge 53, Type (0, 0), BuildingBlock: OJICUG_clean_linker_0, # of connection points: 2
#     Edge 54, Type (0, 0), BuildingBlock: OJICUG_clean_linker_0, # of connection points: 2
#     Edge 55, Type (0, 0), BuildingBlock: OJICUG_clean_linker_0, # of connection points: 2
# Relax obj value: 0.151
# Max RMSD: 0.132
# Mean RMSD: 0.132
data_MOF--net-zfk--node1-BEQFEK_clean_sbu_0--edge1-OJICUG_clean_linker_0
_symmetry_space_group_name_H-M    P1
_symmetry_Int_Tables_number       1
_symmetry_cell_setting            triclinic
loop_
_symmetry_equiv_pos_as_xyz
'x, y, z'
_cell_length_a     23.073736
_cell_length_b     22.998056
_cell_length_c     59.151871
_cell_angle_alpha  90.043089
_cell_angle_beta   90.17991
_cell_angle_gamma 90.11695
loop_
_atom_site_label
_atom_site_type_symbol
_atom_site_fract_x
_atom_site_fract_y
_atom_site_fract_z
_atom_type_partial_charge
Co0 Co 0.03267 0.33301 0.09382 0.0
Co1 Co 0.05484 0.33658 0.14661 0.0
C2 C 0.01569 0.23048 0.12688 0.0
O3 O 0.01954 0.25621 0.10789 0.0
O4 O 0.02267 0.25731 0.14557 0.0
C5 C 0.96057 0.29886 0.05555 0.0
O6 O 0.92335 0.2797 0.07057 0.0
C7 C 0.06944 0.34883 0.19699 0.0
C8 C 0.13741 0.41679 0.19731 0.0
C9 C 0.10376 0.3827 0.21139 0.0
N10 N 0.08254 0.36274 0.17548 0.0
N11 N 0.12341 0.40308 0.17591 0.0
C12 C 0.02279 0.30671 0.20329 0.0
H13 H 0.99116 0.30201 0.18922 0.0
H14 H 0.00028 0.32121 0.21886 0.0
H15 H 0.04253 0.26355 0.20653 0.0
C16 C 0.98405 0.4485 0.10521 0.0
N17 N 0.00186 0.39497 0.11117 0.0
N18 N 0.00579 0.39239 0.13334 0.0
C19 C 0.98788 0.44292 0.14226 0.0
C20 C 0.97533 0.4811 0.1248 0.0
C21 C 0.98539 0.47039 0.08139 0.0
H22 H 0.01024 0.44036 0.07042 0.0
H23 H 0.94037 0.47333 0.07486 0.0
H24 H 0.0051 0.51442 0.0807 0.0
O25 O 0.1164 0.33942 0.09215 0.0
O26 O 0.12698 0.33166 0.12923 0.0
H27 H 0.02662 0.46982 0.17356 0.0
H28 H 0.95134 0.48872 0.17065 0.0
C29 C 0.98408 0.45462 0.16712 0.0
H30 H 0.97225 0.41416 0.17622 0.0
H31 H 0.1414 0.42181 0.16148 0.0
O32 O 0.00525 0.32679 0.06207 0.0
C33 C 0.14836 0.33413 0.10948 0.0
Co34 Co 0.16796 0.01086 0.59596 0.0
Co35 Co 0.16054 0.03691 0.64834 0.0
C36 C 0.26948 0.00144 0.62977 0.0
O37 O 0.24504 0.00245 0.61044 0.0
O38 O 0.24115 0.00864 0.64803 0.0
C39 C 0.20723 0.94139 0.55789 0.0
O40 O 0.23104 0.90675 0.5729 0.0
C41 C 0.15083 0.06335 0.6982 0.0
C42 C 0.07342 0.1198 0.69682 0.0
C43 C 0.11361 0.09647 0.71165 0.0
N44 N 0.13247 0.06672 0.67658 0.0
N45 N 0.08649 0.10084 0.676 0.0
C46 C 0.20502 0.03266 0.70526 0.0
H47 H 0.235 0.02826 0.69078 0.0
H48 H 0.19371 0.98841 0.7113 0.0
H49 H 0.22704 0.05659 0.71915 0.0
C50 C 0.05406 0.95897 0.60667 0.0
N51 N 0.10672 0.97798 0.61315 0.0
N52 N 0.10728 0.98373 0.6353 0.0
C53 C 0.05623 0.96544 0.64365 0.0
C54 C 0.01965 0.95162 0.62578 0.0
C55 C 0.0349 0.95635 0.58251 0.0
H56 H 0.06808 0.9334 0.57233 0.0
H57 H -0.00746 0.93376 0.5808 0.0
H58 H 0.03115 0.00122 0.57578 0.0
O59 O 0.15789 0.09442 0.59325 0.0
O60 O 0.16284 0.10801 0.63021 0.0
H61 H 0.0132 0.00943 0.67075 0.0
H62 H 0.01289 0.93184 0.67305 0.0
C63 C 0.03954 0.96976 0.66804 0.0
H64 H 0.07855 0.97051 0.67898 0.0
H65 H 0.06404 0.11143 0.66122 0.0
O66 O 0.175 0.9829 0.56443 0.0
C67 C 0.16056 0.12795 0.61022 0.0
Co68 Co 0.4685 0.16673 0.09802 0.0
Co69 Co 0.43863 0.16375 0.1501 0.0
C70 C 0.51861 0.25063 0.13409 0.0
O71 O 0.51002 0.2307 0.11421 0.0
O72 O 0.49875 0.22463 0.15153 0.0
C73 C 0.54175 0.1852 0.05846 0.0
O74 O 0.58216 0.2028 0.07259 0.0
C75 C 0.41821 0.1448 0.19971 0.0
C76 C 0.32767 0.11338 0.19793 0.0
C77 C 0.37251 0.12412 0.21297 0.0
N78 N 0.40064 0.14556 0.17797 0.0
N79 N 0.34644 0.12706 0.17715 0.0
C80 C 0.47867 0.15938 0.20696 0.0
H81 H 0.50867 0.15686 0.19236 0.0
H82 H 0.4933 0.12941 0.22052 0.0
H83 H 0.47971 0.20453 0.21357 0.0
C84 C 0.4696 0.03879 0.10601 0.0
N85 N 0.46868 0.0942 0.11342 0.0
N86 N 0.46119 0.09416 0.13544 0.0
C87 C 0.45964 0.03887 0.14292 0.0
C88 C 0.46359 0.00147 0.12451 0.0
C89 C 0.4696 0.02283 0.08148 0.0
H90 H 0.44994 0.05819 0.07129 0.0
H91 H 0.515 0.01694 0.0758 0.0
H92 H 0.44534 0.98179 0.07852 0.0
O93 O 0.38963 0.19635 0.09586 0.0
O94 O 0.37764 0.20332 0.1329 0.0
H95 H 0.41107 0.02057 0.17283 0.0
H96 H 0.47743 0.97965 0.17041 0.0
C97 C 0.45699 0.02257 0.16738 0.0
H98 H 0.47993 0.05561 0.1777 0.0
H99 H 0.32249 0.12277 0.16225 0.0
O100 O 0.49475 0.16405 0.06611 0.0
C101 C 0.36119 0.21398 0.11283 0.0
Co102 Co 0.31484 0.456 0.59722 0.0
Co103 Co 0.31902 0.42698 0.64957 0.0
C104 C 0.23011 0.50449 0.63289 0.0
O105 O 0.25015 0.49653 0.61304 0.0
O106 O 0.25602 0.48465 0.65037 0.0
C107 C 0.29491 0.5283 0.55736 0.0
O108 O 0.28109 0.57018 0.57143 0.0
C109 C 0.33702 0.40921 0.69954 0.0
C110 C 0.37684 0.32188 0.69852 0.0
C111 C 0.3613 0.36599 0.71322 0.0
N112 N 0.33939 0.39136 0.67786 0.0
N113 N 0.36283 0.339 0.67751 0.0
C114 C 0.31022 0.46539 0.70673 0.0
H115 H 0.27827 0.48022 0.69395 0.0
H116 H 0.34453 0.49907 0.70819 0.0
H117 H 0.28861 0.46056 0.72336 0.0
C118 C 0.44245 0.4653 0.60568 0.0
N119 N 0.38718 0.46026 0.61277 0.0
N120 N 0.3872 0.45289 0.63482 0.0
C121 C 0.44204 0.45553 0.6426 0.0
C122 C 0.47947 0.4621 0.62442 0.0
C123 C 0.45904 0.46717 0.58126 0.0
H124 H 0.42514 0.446 0.57074 0.0
H125 H 0.46286 0.5132 0.57585 0.0
H126 H 0.50123 0.44525 0.57847 0.0
O127 O 0.28811 0.37559 0.59574 0.0
O128 O 0.28231 0.3632 0.63281 0.0
H129 H 0.46322 0.40945 0.67291 0.0
H130 H 0.49867 0.47908 0.67031 0.0
C131 C 0.4577 0.455 0.66718 0.0
H132 H 0.42271 0.47549 0.67718 0.0
H133 H 0.37009 0.31518 0.66277 0.0
O134 O 0.31513 0.48078 0.56502 0.0
C135 C 0.27217 0.34621 0.61275 0.0
Co136 Co 0.02411 0.19019 0.92354 0.0
Co137 Co 0.05359 0.18627 0.87139 0.0
C138 C 0.97537 0.27445 0.88766 0.0
O139 O 0.98339 0.25457 0.90756 0.0
O140 O -0.00421 0.24876 0.87028 0.0
C141 C 0.95479 0.21369 0.96361 0.0
O142 O 0.9147 0.23285 0.94969 0.0
C143 C 0.06963 0.16779 0.8216 0.0
C144 C 0.1563 0.12687 0.82231 0.0
C145 C 0.11174 0.14263 0.80789 0.0
N146 N 0.08862 0.1663 0.84314 0.0
N147 N 0.14068 0.14243 0.84331 0.0
C148 C 0.01052 0.188 0.81483 0.0
H149 H 0.98091 0.18745 0.82958 0.0
H150 H -0.00724 0.16021 0.8011 0.0
H151 H 0.01354 0.2333 0.8085 0.0
C152 C 0.01653 0.06244 0.91531 0.0
N153 N 0.02047 0.11785 0.90809 0.0
N154 N 0.02775 0.11781 0.88605 0.0
C155 C 0.02596 0.06272 0.87837 0.0
C156 C 0.02025 0.02531 0.89665 0.0
C157 C 0.01561 0.04595 0.93978 0.0
H158 H 0.03675 0.08024 0.95013 0.0
H159 H 0.96995 0.04174 0.94537 0.0
H160 H 0.03797 0.00387 0.94257 0.0
O161 O 0.10418 0.2166 0.92518 0.0
O162 O 0.11777 0.22223 0.88818 0.0
H163 H 0.07189 0.04194 0.84807 0.0
H164 H 0.0032 0.00514 0.85085 0.0
C165 C 0.02647 0.04672 0.85384 0.0
H166 H 0.00521 0.08124 0.84376 0.0
H167 H 0.16496 0.13523 0.85796 0.0
O168 O -0.00025 0.18912 0.9557 0.0
C169 C 0.13433 0.23192 0.90833 0.0
Co170 Co 0.3075 0.01997 0.42649 0.0
Co171 Co 0.30163 0.04001 0.37363 0.0
C172 C 0.21565 0.96901 0.39361 0.0
O173 O 0.24053 0.98207 0.41217 0.0
O174 O 0.23879 0.98128 0.37461 0.0
C175 C 0.29132 0.94727 0.46605 0.0
O176 O 0.27534 0.90633 0.45184 0.0
C177 C 0.3181 0.05541 0.32346 0.0
C178 C 0.3467 0.14724 0.32376 0.0
C179 C 0.33781 0.10033 0.30948 0.0
N180 N 0.31648 0.07535 0.34488 0.0
N181 N 0.33309 0.13035 0.34478 0.0
C182 C 0.30551 -0.00636 0.31719 0.0
H183 H 0.30629 0.96551 0.33243 0.0
H184 H 0.33753 0.97782 0.30465 0.0
H185 H 0.26161 0.99095 0.30956 0.0
C186 C 0.43154 0.01482 0.41598 0.0
N187 N 0.37574 0.01416 0.40949 0.0
N188 N 0.3728 0.01774 0.38732 0.0
C189 C 0.42699 0.01841 0.3789 0.0
C190 C 0.4662 0.01775 0.39676 0.0
C191 C 0.4501 0.02052 0.44016 0.0
H192 H 0.41573 0.04218 0.45016 0.0
H193 H 0.45707 0.9765 0.44733 0.0
H194 H 0.49099 0.04575 0.44163 0.0
O195 O 0.283 0.10046 0.42772 0.0
O196 O 0.26711 0.10455 0.39079 0.0
H197 H 0.44066 0.06391 0.34786 0.0
H198 H 0.48379 -0.00099 0.35094 0.0
C199 C 0.44069 0.01853 0.3542 0.0
H200 H 0.40751 -0.00676 0.34487 0.0
H201 H 0.33669 0.15606 0.35926 0.0
O202 O 0.31181 -0.00519 0.45849 0.0
C203 C 0.26186 0.1257 0.41053 0.0
Co204 Co 0.47809 0.29738 0.92617 0.0
Co205 Co 0.45383 0.30684 0.87372 0.0
C206 C 0.47923 0.19454 0.89268 0.0
O207 O 0.48035 0.21923 0.91196 0.0
O208 O 0.47451 0.22344 0.87436 0.0
C209 C 0.54796 0.26064 0.96529 0.0
O210 O 0.58669 0.24064 0.95106 0.0
C211 C 0.43298 0.3191 0.82358 0.0
C212 C 0.37853 0.39814 0.82431 0.0
C213 C 0.40284 0.35795 0.80979 0.0
N214 N 0.42675 0.33619 0.84523 0.0
N215 N 0.39368 0.38306 0.84543 0.0
C216 C 0.46927 0.26862 0.81644 0.0
H217 H 0.50301 0.2595 0.82938 0.0
H218 H 0.48982 0.27726 0.79983 0.0
H219 H 0.44122 0.22959 0.8148 0.0
C220 C 0.53466 0.40881 0.91584 0.0
N221 N 0.51567 0.35626 0.90905 0.0
N222 N 0.51067 0.35634 0.88687 0.0
C223 C 0.5296 0.40773 0.87884 0.0
C224 C 0.5425 0.44407 0.89692 0.0
C225 C 0.53544 0.42747 0.94007 0.0
H226 H 0.55883 0.39461 0.95032 0.0
H227 H 0.55663 0.47055 0.94212 0.0
H228 H 0.4903 0.42961 0.94644 0.0
O229 O 0.39611 0.31513 0.92855 0.0
O230 O 0.38269 0.31219 0.89154 0.0
H231 H 0.48677 0.4524 0.85176 0.0
H232 H 0.56416 0.4519 0.84982 0.0
C233 C 0.52592 0.4254 0.85452 0.0
H234 H 0.52506 0.38666 0.8434 0.0
H235 H 0.38188 0.40524 0.8601 0.0
O236 O 0.5044 0.28868 0.95791 0.0
C237 C 0.36291 0.31661 0.91147 0.0
Co238 Co 0.17034 0.46499 0.4268 0.0
Co239 Co 0.16739 0.44111 0.37408 0.0
C240 C 0.27525 0.47295 0.39456 0.0
O241 O 0.24857 0.4719 0.41336 0.0
O242 O 0.24857 0.46766 0.37576 0.0
C243 C 0.21022 0.53337 0.46525 0.0
O244 O 0.23578 0.56685 0.45031 0.0
C245 C 0.15467 0.42766 0.32351 0.0
C246 C 0.09092 0.35573 0.32313 0.0
C247 C 0.12241 0.39184 0.30906 0.0
N248 N 0.14197 0.41329 0.34503 0.0
N249 N 0.104 0.37019 0.34454 0.0
C250 C 0.19858 0.4727 0.31725 0.0
H251 H 0.22948 0.47989 0.33137 0.0
H252 H 0.17612 0.51437 0.31378 0.0
H253 H 0.22246 0.4594 0.30183 0.0
C254 C 0.05575 0.51225 0.41447 0.0
N255 N 0.11028 0.49764 0.40878 0.0
N256 N 0.11353 0.49376 0.3866 0.0
C257 C 0.06236 0.50903 0.37748 0.0
C258 C 0.02311 0.519 0.39476 0.0
C259 C 0.03303 0.50758 0.43808 0.0
H260 H 0.06497 0.48586 0.44927 0.0
H261 H 0.02447 0.55186 0.44472 0.0
H262 H -0.00833 0.48285 0.43829 0.0
O263 O 0.15835 0.38191 0.42902 0.0
O264 O 0.16616 0.36927 0.39204 0.0
H265 H 0.03781 0.46789 0.34632 0.0
H266 H 0.01486 0.54224 0.34887 0.0
C267 C 0.05062 0.51144 0.35259 0.0
H268 H 0.09029 0.5253 0.34351 0.0
H269 H 0.08656 0.35074 0.35893 0.0
O270 O 0.17664 0.49284 0.45856 0.0
C271 C 0.16143 0.3489 0.41192 0.0
Co272 Co 0.96146 0.67895 0.92443 0.0
Co273 Co 0.92783 0.69141 0.87243 0.0
C274 C 0.00526 0.77499 0.8926 0.0
O275 O -0.00354 0.74918 0.9113 0.0
O276 O 0.9883 0.75312 0.87386 0.0
C277 C 0.03199 0.69837 0.96434 0.0
O278 O 0.0697 0.72148 0.95038 0.0
C279 C 0.91185 0.67619 0.82218 0.0
C280 C 0.81643 0.66788 0.82099 0.0
C281 C 0.86541 0.66482 0.80762 0.0
N282 N 0.89086 0.68432 0.84321 0.0
N283 N 0.83374 0.68024 0.84217 0.0
C284 C 0.97506 0.6742 0.81677 0.0
H285 H 0.00093 0.66735 0.83241 0.0
H286 H 0.98402 0.63914 0.80437 0.0
H287 H 0.98819 0.71628 0.80918 0.0
C288 C 0.97231 0.55557 0.91057 0.0
N289 N 0.96584 0.61227 0.90549 0.0
N290 N 0.95031 0.61713 0.88409 0.0
C291 C 0.9454 0.56341 0.87506 0.0
C292 C 0.95935 0.52259 0.89146 0.0
C293 C 0.98807 0.53384 0.9336 0.0
H294 H 0.01764 0.56511 0.94209 0.0
H295 H 0.00907 0.49053 0.93261 0.0
H296 H 0.94814 0.53006 0.94391 0.0
O297 O 0.88058 0.70215 0.92778 0.0
O298 O 0.86717 0.7241 0.89162 0.0
H299 H 0.87706 0.57436 0.85095 0.0
H300 H 0.90952 0.5042 0.84984 0.0
C301 C 0.91873 0.55101 0.85243 0.0
H302 H 0.9483 0.56619 0.83895 0.0
H303 H 0.80649 0.68357 0.85615 0.0
O304 O 0.98812 0.67148 0.95638 0.0
C305 C 0.85128 0.72587 0.91214 0.0
Co306 Co 0.80574 0.96087 0.42523 0.0
Co307 Co 0.80347 0.94718 0.37159 0.0
C308 C 0.71556 0.01489 0.39273 0.0
O309 O 0.74 0.00063 0.41121 0.0
O310 O 0.7388 0.00374 0.37364 0.0
C311 C 0.79329 0.0301 0.46652 0.0
O312 O 0.78672 0.07533 0.45322 0.0
C313 C 0.81733 0.93702 0.32075 0.0
C314 C 0.85706 0.84969 0.31983 0.0
C315 C 0.84005 0.89515 0.306 0.0
N316 N 0.82176 0.91683 0.3421 0.0
N317 N 0.84527 0.86456 0.34125 0.0
C318 C 0.79004 -0.006 0.31494 0.0
H319 H 0.762 0.00907 0.32896 0.0
H320 H 0.82456 0.02695 0.31232 0.0
H321 H 0.76406 0.99012 0.29919 0.0
C322 C 0.93039 0.96872 0.41575 0.0
N323 N 0.87487 0.96999 0.40889 0.0
N324 N 0.87301 0.96963 0.38665 0.0
C325 C 0.92754 0.97087 0.37862 0.0
C326 C 0.96601 0.96891 0.39673 0.0
C327 C 0.94773 0.95911 0.43987 0.0
H328 H 0.91227 0.93714 0.4492 0.0
H329 H 0.95594 0.00181 0.44803 0.0
H330 H 0.9877 0.93248 0.441 0.0
O331 O 0.78159 0.88027 0.42395 0.0
O332 O 0.77008 0.87867 0.38671 0.0
H333 H 0.94604 0.93083 0.3468 0.0
H334 H 0.98391 -0.0017 0.35162 0.0
C335 C 0.94215 0.97513 0.35404 0.0
H336 H 0.90747 -0.00124 0.34487 0.0
H337 H 0.85389 0.8391 0.35546 0.0
O338 O 0.80671 0.98108 0.45803 0.0
C339 C 0.76356 0.85559 0.40606 0.0
Co340 Co 0.50642 0.79285 0.92545 0.0
Co341 Co 0.54461 0.80475 0.87403 0.0
C342 C 0.50958 0.69176 0.89157 0.0
O343 O 0.49992 0.71547 0.91068 0.0
O344 O 0.52551 0.72133 0.87445 0.0
C345 C 0.43916 0.74681 0.96331 0.0
O346 O 0.41045 0.71635 0.94817 0.0
C347 C 0.56315 0.81823 0.82393 0.0
C348 C 0.62967 0.88754 0.82454 0.0
C349 C 0.59749 0.85307 0.80998 0.0
N350 N 0.57473 0.83203 0.84563 0.0
N351 N 0.61488 0.87312 0.84575 0.0
C352 C 0.51768 0.77537 0.81698 0.0
H353 H 0.48595 0.76897 0.83083 0.0
H354 H 0.49509 0.79029 0.80144 0.0
H355 H 0.53856 0.73296 0.81337 0.0
C356 C 0.46261 0.90994 0.91343 0.0
N357 N 0.47767 0.85546 0.90741 0.0
N358 N 0.48566 0.85408 0.88536 0.0
C359 C 0.47194 0.90615 0.87656 0.0
C360 C 0.45953 0.9444 0.89403 0.0
C361 C 0.46346 0.93086 0.93739 0.0
H362 H 0.48217 0.89743 0.94875 0.0
H363 H 0.41846 0.94024 0.94283 0.0
H364 H 0.48906 0.97161 0.93885 0.0
O365 O 0.58897 0.80446 0.93016 0.0
O366 O 0.61223 0.81166 0.89396 0.0
H367 H 0.51594 0.93353 0.84643 0.0
H368 H 0.4413 0.95498 0.84787 0.0
C369 C 0.47223 0.91943 0.85177 0.0
H370 H 0.46026 0.87999 0.842 0.0
H371 H 0.63159 0.89215 0.86041 0.0
O372 O 0.47558 0.78498 0.95684 0.0
C373 C 0.62631 0.81133 0.91474 0.0
Co374 Co 0.67323 0.51813 0.42594 0.0
Co375 Co 0.66358 0.53045 0.37268 0.0
C376 C 0.7739 0.50477 0.39165 0.0
O377 O 0.74902 0.5096 0.41074 0.0
O378 O 0.7454 0.50555 0.37313 0.0
C379 C 0.71319 0.4511 0.46497 0.0
O380 O 0.72814 0.41079 0.45039 0.0
C381 C 0.65125 0.55605 0.32261 0.0
C382 C 0.56209 0.59091 0.3231 0.0
C383 C 0.6082 0.5804 0.30876 0.0
N384 N 0.63038 0.55173 0.34384 0.0
N385 N 0.5774 0.57338 0.34389 0.0
C386 C 0.71292 0.5435 0.31665 0.0
H387 H 0.7404 0.54285 0.33205 0.0
H388 H 0.71543 0.50019 0.30845 0.0
H389 H 0.7298 0.57678 0.30479 0.0
C390 C 0.55777 0.46796 0.41715 0.0
N391 N 0.61182 0.48104 0.41029 0.0
N392 N 0.61376 0.47808 0.38808 0.0
C393 C 0.5625 0.45866 0.38029 0.0
C394 C 0.52416 0.45437 0.39823 0.0
C395 C 0.53642 0.48006 0.44054 0.0
H396 H 0.57011 0.50272 0.45069 0.0
H397 H 0.52534 0.43835 0.44891 0.0
H398 H 0.49663 0.50707 0.43989 0.0
O399 O 0.65996 0.6008 0.42582 0.0
O400 O 0.66477 0.60604 0.38849 0.0
H401 H 0.52458 0.47397 0.34734 0.0
H402 H 0.52699 0.39971 0.35578 0.0
C403 C 0.55141 0.44135 0.3562 0.0
H404 H 0.59293 0.43627 0.34698 0.0
H405 H 0.55199 0.57744 0.35837 0.0
O406 O 0.6857 0.49573 0.45816 0.0
C407 C 0.6621 0.63039 0.40778 0.0
Co408 Co 0.95272 0.83024 0.09248 0.0
Co409 Co 0.92434 0.83862 0.14489 0.0
C410 C 0.96421 0.73056 0.12726 0.0
O411 O 0.96332 0.75474 0.1079 0.0
O412 O 0.95484 0.75887 0.14542 0.0
C413 C 0.02534 0.78905 0.05551 0.0
O414 O 0.05982 0.7683 0.07124 0.0
C415 C 0.90445 0.85255 0.19492 0.0
C416 C 0.84349 0.9266 0.19406 0.0
C417 C 0.872 0.88943 0.2087 0.0
N418 N 0.89539 0.8677 0.1732 0.0
N419 N 0.85855 0.91165 0.17292 0.0
C420 C 0.94543 0.80583 0.20215 0.0
H421 H 0.97956 0.79959 0.1892 0.0
H422 H 0.96554 0.81671 0.2187 0.0
H423 H 0.92115 0.7644 0.20392 0.0
C424 C -0.00025 0.94719 0.10364 0.0
N425 N 0.98197 0.89364 0.1097 0.0
N426 N 0.97645 0.89206 0.13184 0.0
C427 C -0.00616 0.94299 0.14065 0.0
C428 C 0.00694 0.9807 0.12313 0.0
C429 C -0.00023 0.96813 0.0797 0.0
H430 H 0.97732 0.93655 0.06849 0.0
H431 H 0.0452 0.9731 0.07392 0.0
H432 H 0.97828 0.01116 0.07845 0.0
O433 O 0.86956 0.83699 0.08926 0.0
O434 O 0.85369 0.83378 0.12618 0.0
H435 H 0.9562 0.97252 0.17176 0.0
H436 H 0.03214 0.98792 0.16898 0.0
C437 C -0.00215 0.95514 0.1655 0.0
H438 H 0.00764 0.91446 0.17483 0.0
H439 H 0.84412 0.93198 0.15817 0.0
O440 O 0.98247 0.82066 0.06111 0.0
C441 C 0.83521 0.83442 0.10589 0.0
Co442 Co 0.67196 0.96858 0.59723 0.0
Co443 Co 0.6623 0.92491 0.64827 0.0
C444 C 0.77182 0.97159 0.63126 0.0
O445 O 0.74797 0.98119 0.61217 0.0
O446 O 0.74339 0.95149 0.64797 0.0
C447 C 0.71468 0.03719 0.55932 0.0
O448 O 0.74679 0.06451 0.57433 0.0
C449 C 0.64917 0.90561 0.69844 0.0
C450 C 0.58957 0.83028 0.69768 0.0
C451 C 0.61855 0.86724 0.71236 0.0
N452 N 0.63777 0.89201 0.67669 0.0
N453 N 0.60238 0.84675 0.67649 0.0
C454 C 0.69042 0.9526 0.70542 0.0
H455 H 0.72108 0.96251 0.69155 0.0
H456 H 0.66569 0.99271 0.70924 0.0
H457 H 0.71483 0.93955 0.7208 0.0
C458 C 0.55357 0.00792 0.60945 0.0
N459 N 0.60761 0.99151 0.61532 0.0
N460 N 0.60855 0.9801 0.63715 0.0
C461 C 0.55643 0.99222 0.64603 0.0
C462 C 0.51893 0.00802 0.62875 0.0
C463 C 0.53345 0.01243 0.58544 0.0
H464 H 0.56556 0.99285 0.57381 0.0
H465 H 0.52799 0.05897 0.58101 0.0
H466 H 0.49099 0.99035 0.5832 0.0
O467 O 0.6684 0.88517 0.59211 0.0
O468 O 0.66218 0.85763 0.62793 0.0
H469 H 0.53089 0.94152 0.67473 0.0
H470 H 0.50529 0.0154 0.67513 0.0
C471 C 0.54243 0.98707 0.67065 0.0
H472 H 0.58069 -0.00027 0.68092 0.0
H473 H 0.58646 0.82725 0.66179 0.0
O474 O 0.67649 0.00102 0.56597 0.0
C475 C 0.66493 0.84571 0.60697 0.0
Co476 Co 0.51977 0.65652 0.09634 0.0
Co477 Co 0.54861 0.67045 0.14872 0.0
C478 C 0.46932 0.75035 0.12776 0.0
O479 O 0.4803 0.72477 0.10918 0.0
O480 O 0.48508 0.72867 0.14667 0.0
C481 C 0.44746 0.66719 0.05609 0.0
O482 O 0.40614 0.6833 0.06995 0.0
C483 C 0.56136 0.65592 0.19893 0.0
C484 C 0.65695 0.65433 0.20151 0.0
C485 C 0.60699 0.64757 0.2141 0.0
N486 N 0.58374 0.66605 0.17828 0.0
N487 N 0.64087 0.66615 0.18015 0.0
C488 C 0.498 0.64882 0.2034 0.0
H489 H 0.47398 0.64189 0.18732 0.0
H490 H 0.49043 0.61184 0.21508 0.0
H491 H 0.48142 0.68891 0.21155 0.0
C492 C 0.51464 0.53201 0.11008 0.0
N493 N 0.51808 0.58908 0.11518 0.0
N494 N 0.53174 0.59478 0.13674 0.0
C495 C 0.5387 0.54138 0.14584 0.0
C496 C 0.52778 0.49968 0.12935 0.0
C497 C 0.50094 0.50939 0.08696 0.0
H498 H 0.47125 0.53964 0.07807 0.0
H499 H 0.48089 0.46554 0.08788 0.0
H500 H 0.54164 0.50643 0.07708 0.0
O501 O 0.59934 0.68602 0.09393 0.0
O502 O 0.60797 0.7076 0.13034 0.0
H503 H 0.60376 0.55735 0.17093 0.0
H504 H 0.57713 0.48458 0.1712 0.0
C505 C 0.56433 0.53054 0.16875 0.0
H506 H 0.53242 0.54254 0.18189 0.0
H507 H 0.66912 0.6717 0.16658 0.0
O508 O 0.49502 0.64805 0.06412 0.0
C509 C 0.62537 0.71162 0.11007 0.0
Co510 Co 0.82491 0.52323 0.59574 0.0
Co511 Co 0.81444 0.55594 0.64779 0.0
C512 C 0.72952 0.4799 0.62842 0.0
O513 O 0.75474 0.48931 0.60965 0.0
O514 O 0.7524 0.4956 0.64717 0.0
C515 C 0.80274 0.4512 0.55646 0.0
O516 O 0.77902 0.41487 0.57085 0.0
C517 C 0.82706 0.57795 0.69794 0.0
C518 C 0.84452 0.67246 0.69692 0.0
C519 C 0.84107 0.62567 0.71154 0.0
N520 N 0.82351 0.59604 0.67628 0.0
N521 N 0.83318 0.65272 0.67599 0.0
C522 C 0.82184 0.51576 0.70498 0.0
H523 H 0.82842 0.48656 0.69025 0.0
H524 H 0.85372 0.50566 0.7185 0.0
H525 H 0.77768 0.50807 0.71173 0.0
C526 C 0.94881 0.51134 0.60928 0.0
N527 N 0.89236 0.51845 0.61437 0.0
N528 N 0.88785 0.53239 0.63592 0.0
C529 C 0.9414 0.53503 0.64513 0.0
C530 C 0.98199 0.52185 0.62859 0.0
C531 C 0.97027 0.49691 0.58612 0.0
H532 H 0.9385 0.46869 0.57723 0.0
H533 H 0.01295 0.47483 0.58694 0.0
H534 H 0.97501 0.53771 0.57628 0.0
O535 O 0.80185 0.60437 0.59202 0.0
O536 O 0.78008 0.61517 0.62826 0.0
H537 H 0.93621 0.6027 0.66975 0.0
H538 H 0.00057 0.56057 0.67225 0.0
C539 C 0.95371 0.55811 0.66835 0.0
H540 H 0.9321 0.53015 0.68104 0.0
H541 H 0.834 0.67781 0.6613 0.0
O542 O 0.83067 0.49507 0.56392 0.0
C543 C 0.77725 0.63202 0.60785 0.0
C544 C 0.00785 0.24408 0.99837 0.0
C545 C 0.9548 0.23255 0.98753 0.0
H546 H 0.05092 0.27565 0.02794 0.0
C547 C 0.90293 0.24372 0.99915 0.0
H548 H 0.04859 0.23672 0.98978 0.0
C549 C 0.90431 0.26527 0.02137 0.0
C550 C 0.95755 0.27795 0.03193 0.0
H551 H 0.86145 0.23557 0.99112 0.0
H552 H 0.8639 0.27277 0.03016 0.0
C553 C 0.00918 0.26718 0.02015 0.0
C554 C 0.25664 -0.0041 0.50102 0.0
C555 C 0.27278 0.94443 0.48993 0.0
H556 H 0.22172 0.03478 0.53077 0.0
C557 C 0.26646 0.89107 0.50126 0.0
H558 H 0.2602 0.03765 0.49265 0.0
C559 C 0.24516 0.88953 0.52347 0.0
C560 C 0.2279 0.94111 0.53427 0.0
H561 H 0.27821 0.85074 0.49301 0.0
H562 H 0.24145 0.84812 0.53207 0.0
C563 C 0.23379 -0.00582 0.52278 0.0
C564 C 0.59829 0.21038 0.02338 0.0
C565 C 0.54491 0.20126 0.03427 0.0
H566 H 0.64137 0.23558 0.99266 0.0
C567 C 0.49338 0.21193 0.02228 0.0
H568 H 0.63867 0.20276 0.03228 0.0
C569 C 0.49497 0.2324 1.00014 0.0
C570 C 0.5481 0.24137 0.98914 0.0
H571 H 0.45153 0.20602 0.03022 0.0
H572 H 0.4543 0.24045 0.9915 0.0
C573 C 0.59986 0.22935 1.00082 0.0
C574 C 0.25004 0.5851 0.49952 0.0
C575 C 0.23007 0.53386 0.48907 0.0
H576 H 0.28556 0.62387 0.52967 0.0
C577 C 0.23303 0.48126 0.50106 0.0
H578 H 0.24864 0.62615 0.49057 0.0
C579 C 0.25601 0.47962 0.52288 0.0
C580 C 0.2752 0.53079 0.53354 0.0
H581 H 0.21879 0.44088 0.49337 0.0
H582 H 0.25755 0.43824 0.53161 0.0
C583 C 0.27144 0.58375 0.52177 0.0
C584 C 0.97688 0.75394 0.02036 0.0
C585 C 0.02843 0.76591 0.03219 0.0
H586 H 0.93778 0.72117 0.99011 0.0
C587 C 0.08172 0.75244 0.02201 0.0
H588 H 0.93513 0.76295 0.02791 0.0
C589 C 0.0833 0.72938 1.00002 0.0
C590 C 0.03156 0.71724 0.98828 0.0
H591 H 0.12205 0.76078 0.03087 0.0
H592 H 0.12485 0.72107 0.99219 0.0
C593 C 0.9784 0.72915 0.99882 0.0
C594 C 0.74675 0.9845 0.50013 0.0
C595 C 0.77407 0.03297 0.49036 0.0
H596 H 0.70486 0.9487 0.52916 0.0
C597 C 0.7795 0.08427 0.50315 0.0
H598 H 0.74112 0.94462 0.4906 0.0
C599 C 0.75952 0.08629 0.52555 0.0
C600 C 0.73184 0.03777 0.5352 0.0
H601 H 0.8 0.12239 0.49596 0.0
H602 H 0.7656 0.12574 0.53529 0.0
C603 C 0.72522 0.98712 0.52214 0.0
C604 C 0.38966 0.70506 0.9976 0.0
C605 C 0.43958 0.72778 0.98723 0.0
H606 H 0.35263 0.66882 0.02785 0.0
C607 C 0.49192 0.72836 0.99943 0.0
H608 H 0.34888 0.70365 0.98849 0.0
C609 C 0.49458 0.70631 0.0214 0.0
C610 C 0.4446 0.68466 0.032 0.0
H611 H 0.53133 0.74473 0.99179 0.0
H612 H 0.53564 0.70769 0.03033 0.0
C613 C 0.39189 0.68478 0.01999 0.0
C614 C 0.75214 0.50231 0.49899 0.0
C615 C 0.73666 0.44993 0.4883 0.0
H616 H 0.78713 0.54345 0.52847 0.0
C617 C 0.74635 0.39722 0.49972 0.0
H618 H 0.74602 0.54358 0.4905 0.0
C619 C 0.76908 0.39719 0.52177 0.0
C620 C 0.78451 0.44973 0.53242 0.0
H621 H 0.7352 0.35621 0.49179 0.0
H622 H 0.77438 0.35619 0.53053 0.0
C623 C 0.7765 0.50217 0.52064 0.0
C624 C 0.04941 0.13643 0.11156 0.0
C625 C 0.01319 0.16686 0.12652 0.0
H626 H 0.07756 0.05344 0.09946 0.0
C627 C 0.97581 0.13609 0.14069 0.0
H628 H 0.07915 0.15959 0.10062 0.0
C629 C 0.97354 0.07551 0.13943 0.0
C630 C 0.01038 0.04479 0.12468 0.0
H631 H 0.94723 0.15888 0.15217 0.0
H632 H 0.94175 0.05309 0.1496 0.0
C633 C 0.04851 0.07587 0.11084 0.0
C634 C 0.36199 0.04474 0.61711 0.0
C635 C 0.33293 0.00302 0.63025 0.0
H636 H 0.44373 0.08057 0.60709 0.0
C637 C 0.36484 0.96376 0.64326 0.0
H638 H 0.33781 0.07579 0.60706 0.0
C639 C 0.42534 0.96519 0.64262 0.0
C640 C 0.45476 0.00748 0.62972 0.0
H641 H 0.34309 0.93097 0.65329 0.0
H642 H 0.44882 0.9321 0.6518 0.0
C643 C 0.4224 0.04742 0.61706 0.0
C644 C 0.50761 0.40781 0.15064 0.0
C645 C 0.53243 0.43555 0.13185 0.0
H646 H 0.48674 0.32743 0.1668 0.0
C647 C 0.56121 0.40164 0.11566 0.0
H648 H 0.48479 0.43281 0.16332 0.0
C649 C 0.56197 0.34092 0.11751 0.0
C650 C 0.53459 0.31294 0.13577 0.0
H651 H 0.58195 0.42188 0.10127 0.0
H652 H 0.58135 0.31571 0.10404 0.0
C653 C 0.50935 0.34732 0.15276 0.0
C654 C 0.14113 0.55108 0.61674 0.0
C655 C 0.16828 0.52098 0.63456 0.0
H656 H 0.06087 0.5757 0.60106 0.0
C657 C 0.13347 0.49458 0.65112 0.0
H658 H 0.16674 0.57124 0.60356 0.0
C659 C 0.07313 0.49498 0.6491 0.0
C660 C 0.04608 0.5233 0.63089 0.0
H661 H 0.15279 0.46975 0.66474 0.0
H662 H 0.04761 0.47139 0.66141 0.0
C663 C 0.0806 0.55261 0.61504 0.0
C664 C 0.92883 0.42427 0.90559 0.0
C665 C 0.95652 0.45849 0.88921 0.0
H666 H 0.91124 0.33816 0.91758 0.0
C667 C 0.98197 0.43116 0.87049 0.0
H668 H 0.90763 0.44431 0.91991 0.0
C669 C 0.982 0.37066 0.86863 0.0
C670 C 0.95796 0.3361 0.88583 0.0
H671 H 0.00383 0.45658 0.85766 0.0
H672 H 0.00496 0.35107 0.85462 0.0
C673 C 0.92984 0.36359 0.90399 0.0
C674 C 0.06273 -0.00524 0.41226 0.0
C675 C 0.03008 0.96481 0.39607 0.0
H676 H 0.14606 0.01752 0.42454 0.0
C677 C 0.05917 0.93201 0.37943 0.0
H678 H 0.04206 0.02172 0.42487 0.0
C679 C 0.11998 0.9313 0.37859 0.0
C680 C 0.15226 0.96134 0.39498 0.0
H681 H 0.03516 0.90716 0.36701 0.0
H682 H 0.1416 0.90772 0.3652 0.0
C683 C 0.12275 0.99225 0.41198 0.0
C684 C 0.43299 0.10376 0.90635 0.0
C685 C 0.4739 0.1309 0.89227 0.0
H686 H 0.3946 0.02359 0.91721 0.0
C687 C 0.50898 0.09687 0.87835 0.0
H688 H 0.4051 0.1295 0.91714 0.0
C689 C 0.50439 0.03629 0.87903 0.0
C690 C 0.46285 0.00883 0.89288 0.0
H691 H 0.54121 0.11697 0.86759 0.0
H692 H 0.53477 0.01121 0.8692 0.0
C693 C 0.42701 0.04331 0.90645 0.0
C694 C 0.43344 0.49333 0.3804 0.0
C695 C 0.46019 0.45728 0.39662 0.0
H696 H 0.35352 0.52585 0.36666 0.0
C697 C 0.42555 0.42774 0.41225 0.0
H698 H 0.45893 0.51926 0.36889 0.0
C699 C 0.36546 0.4342 0.41173 0.0
C700 C 0.33881 0.46936 0.39525 0.0
H701 H 0.4449 0.39982 0.42492 0.0
H702 H 0.33964 0.41069 0.42398 0.0
C703 C 0.37315 0.49829 0.37939 0.0
C704 C 0.05209 0.86852 0.87977 0.0
C705 C 0.01463 0.83824 0.89414 0.0
H706 H 0.0862 0.95171 0.87033 0.0
C707 C 0.98063 0.86954 0.90965 0.0
H708 H 0.07848 0.84533 0.86764 0.0
C709 C 0.9828 0.92995 0.91047 0.0
C710 C 0.02016 0.96072 0.89622 0.0
H711 H 0.95022 0.8473 0.92061 0.0
H712 H 0.95383 0.9525 0.92183 0.0
C713 C 0.05576 0.92935 0.88115 0.0
C714 C 0.62028 0.05625 0.37893 0.0
C715 C 0.65225 0.02224 0.39413 0.0
H716 H 0.53555 0.08423 0.36863 0.0
C717 C 0.62257 0.98802 0.41011 0.0
H718 H 0.64211 0.08241 0.36633 0.0
C719 C 0.56258 0.98669 0.41067 0.0
C720 C 0.53022 0.02082 0.39578 0.0
H721 H 0.6457 0.95971 0.42165 0.0
H722 H 0.54163 0.95754 0.42247 0.0
C723 C 0.55948 0.05646 0.38007 0.0
C724 C 0.48942 0.53447 0.90757 0.0
C725 C 0.53563 0.50801 0.89607 0.0
H726 H 0.4444 0.61363 0.91492 0.0
C727 C 0.57037 0.5419 0.88177 0.0
H728 H 0.46067 0.50907 0.91811 0.0
C729 C 0.55919 0.60123 0.87906 0.0
C730 C 0.51385 0.62789 0.891 0.0
H731 H 0.60638 0.52263 0.87281 0.0
H732 H 0.58766 0.6267 0.86839 0.0
C733 C 0.47918 0.59398 0.90532 0.0
C734 C 0.86497 0.54783 0.40635 0.0
C735 C 0.83744 0.50867 0.39149 0.0
H736 H 0.94519 0.5835 0.4183 0.0
C737 C 0.87098 0.47459 0.377 0.0
H738 H 0.83977 0.57527 0.4175 0.0
C739 C 0.93144 0.47813 0.37799 0.0
C740 C 0.95911 0.51749 0.39283 0.0
H741 H 0.85061 0.44393 0.36554 0.0
H742 H 0.95625 0.44861 0.36763 0.0
C743 C 0.92518 0.55264 0.40683 0.0
C744 C 0.00282 0.63721 0.14255 0.0
C745 C 0.9662 0.66699 0.12772 0.0
H746 H 0.03696 0.55487 0.1523 0.0
C747 C 0.93085 0.63563 0.11262 0.0
H748 H 0.03063 0.66079 0.15417 0.0
C749 C 0.93232 0.57511 0.11222 0.0
C750 C 0.97022 0.545 0.12653 0.0
H751 H 0.90167 0.65806 0.1012 0.0
H752 H 0.90421 0.55194 0.1006 0.0
C753 C 0.00565 0.5766 0.14165 0.0
C754 C 0.86467 0.92762 0.64412 0.0
C755 C 0.83559 0.97143 0.63204 0.0
H756 H 0.94535 0.8844 0.65035 0.0
C757 C 0.86736 0.00784 0.61761 0.0
H758 H 0.84098 0.8978 0.65486 0.0
C759 C 0.92707 0.00053 0.61527 0.0
C760 C 0.95585 0.95575 0.62687 0.0
H761 H 0.84587 0.04146 0.6079 0.0
H762 H 0.95078 0.03027 0.60452 0.0
C763 C 0.9242 0.91946 0.64135 0.0
C764 C 0.42508 0.84527 0.14068 0.0
C765 C 0.46118 0.8139 0.12612 0.0
H766 H 0.39452 0.92948 0.15057 0.0
C767 C 0.49625 0.84449 0.11071 0.0
H768 H 0.39805 0.82278 0.15281 0.0
C769 C 0.4966 0.90496 0.11021 0.0
C770 C 0.46071 0.9368 0.12465 0.0
H771 H 0.5259 0.82161 0.09967 0.0
H772 H 0.52655 0.92666 0.09896 0.0
C773 C 0.42389 0.9063 0.13958 0.0
C774 C 0.57585 0.42819 0.64013 0.0
C775 C 0.54399 0.46345 0.62501 0.0
H776 H 0.65998 0.40618 0.65361 0.0
C777 C 0.57422 0.50149 0.61081 0.0
H778 H 0.55401 0.39728 0.65095 0.0
C779 C 0.63448 0.50444 0.61166 0.0
C780 C 0.66626 0.47052 0.62713 0.0
H781 H 0.55135 0.53028 0.59942 0.0
H782 H 0.65622 0.53524 0.60069 0.0
C783 C 0.6365 0.43257 0.64152 0.0
C784 C 0.12522 0.44034 0.27086 0.0
C785 C 0.11917 0.38991 0.28399 0.0
H786 H 0.12443 0.47739 0.23768 0.0
C787 C 0.10615 0.33704 0.27305 0.0
H788 H 0.13299 0.48216 0.27866 0.0
C789 C 0.10011 0.33446 0.24953 0.0
C790 C 0.10649 0.38484 0.23642 0.0
H791 H 0.10115 0.29731 0.28268 0.0
H792 H 0.09199 0.29274 0.24168 0.0
C793 C 0.1194 0.43771 0.24734 0.0
C794 C 0.13596 0.06714 0.75184 0.0
C795 C 0.11427 0.10797 0.73636 0.0
H796 H 0.15202 0.04637 0.78659 0.0
C797 C 0.08997 0.15983 0.74473 0.0
H798 H 0.15267 0.02574 0.74623 0.0
C799 C 0.08818 0.17097 0.76796 0.0
C800 C 0.11062 0.13047 0.78334 0.0
H801 H 0.0727 0.19226 0.7333 0.0
H802 H 0.07052 0.21187 0.77378 0.0
C803 C 0.13476 0.07861 0.77505 0.0
C804 C 0.31949 0.06698 0.26938 0.0
C805 C 0.3503 0.10158 0.28485 0.0
H806 H 0.30332 0.04638 0.23468 0.0
C807 C 0.391 0.14183 0.27645 0.0
H808 H 0.28651 0.03694 0.27499 0.0
C809 C 0.39979 0.14826 0.25322 0.0
C810 C 0.36848 0.1142 0.23774 0.0
H811 H 0.41533 0.16958 0.28786 0.0
H812 H 0.42923 0.18176 0.24757 0.0
C813 C 0.32864 0.07309 0.24614 0.0
C814 C 0.39381 0.41286 0.77362 0.0
C815 C 0.39559 0.35914 0.78492 0.0
H816 H 0.38404 0.45748 0.74223 0.0
C817 C 0.38597 0.308 0.77254 0.0
H818 H 0.40144 0.45303 0.78275 0.0
C819 C 0.37426 0.31069 0.74933 0.0
C820 C 0.37179 0.36453 0.73802 0.0
H821 H 0.38566 0.26609 0.78084 0.0
H822 H 0.36638 0.27045 0.74029 0.0
C823 C 0.38275 0.41551 0.7504 0.0
C824 C 0.90092 0.67802 0.76777 0.0
C825 C 0.86476 0.64949 0.78323 0.0
H826 H 0.92162 0.69253 0.73294 0.0
C827 C 0.82352 0.60945 0.77498 0.0
H828 H 0.93221 0.70994 0.77348 0.0
C829 C 0.81755 0.5992 0.75174 0.0
C830 C 0.8522 0.62941 0.73623 0.0
H831 H 0.79484 0.58692 0.78651 0.0
H832 H 0.78386 0.56994 0.74596 0.0
C833 C 0.89442 0.66836 0.74452 0.0
C834 C 0.86152 0.94435 0.24498 0.0
C835 C 0.86613 0.89078 0.23364 0.0
H836 H 0.85213 0.98848 0.27651 0.0
C837 C 0.86116 0.83929 0.24613 0.0
H838 H 0.86535 0.98482 0.23573 0.0
C839 C 0.85175 0.84133 0.26947 0.0
C840 C 0.84716 0.89491 0.28095 0.0
H841 H 0.86294 0.79737 0.23784 0.0
H842 H 0.84763 0.8006 0.27851 0.0
C843 C 0.85289 0.94644 0.26839 0.0
C844 C 0.61217 0.91008 0.77448 0.0
C845 C 0.60081 0.85634 0.78495 0.0
H846 H 0.62478 0.95644 0.74361 0.0
C847 C 0.59627 0.80643 0.7714 0.0
H848 H 0.61564 0.94946 0.78446 0.0
C849 C 0.60282 0.81027 0.74793 0.0
C850 C 0.61442 0.86402 0.73743 0.0
H851 H 0.5892 0.76414 0.77891 0.0
H852 H 0.59936 0.77085 0.73798 0.0
C853 C 0.61836 0.91399 0.75101 0.0
C854 C 0.64521 0.58721 0.24593 0.0
C855 C 0.60567 0.6291 0.23809 0.0
H856 H 0.67549 0.53656 0.27375 0.0
C857 C 0.56717 0.65437 0.25347 0.0
H858 H 0.67503 0.56653 0.23434 0.0
C859 C 0.56875 0.63862 0.27631 0.0
C860 C 0.60859 0.59688 0.28434 0.0
H861 H 0.53689 0.68742 0.248 0.0
H862 H 0.53887 0.65979 0.28774 0.0
C863 C 0.6461 0.57064 0.2687 0.0
C864 C 0.27807 0.25152 0.08979 0.0
C865 C 0.31116 0.25232 0.10972 0.0
H866 H 0.19937 0.27896 0.07378 0.0
C867 C 0.2961 0.29044 0.12728 0.0
H868 H 0.28968 0.22333 0.07584 0.0
C869 C 0.24578 0.32305 0.12591 0.0
C870 C 0.20925 0.3176 0.10706 0.0
H871 H 0.32211 0.29356 0.14253 0.0
H872 H 0.23328 0.34919 0.14034 0.0
C873 C 0.22705 0.28402 0.08847 0.0
C874 C 0.23902 0.26029 0.59007 0.0
C875 C 0.23589 0.29445 0.60969 0.0
H876 H 0.21552 0.1794 0.57453 0.0
C877 C 0.19733 0.27883 0.62696 0.0
H878 H 0.26759 0.27231 0.57633 0.0
C879 C 0.16663 0.22708 0.6257 0.0
C880 C 0.17457 0.18959 0.60728 0.0
H881 H 0.19242 0.30561 0.64192 0.0
H882 H 0.14014 0.2143 0.63997 0.0
C883 C 0.20854 0.20778 0.58889 0.0
C884 C 0.22162 0.25695 0.93154 0.0
C885 C 0.18868 0.26373 0.91174 0.0
H886 H 0.30429 0.27026 0.94728 0.0
C887 C 0.20921 0.29969 0.89437 0.0
H888 H 0.20602 0.23024 0.94533 0.0
C889 C 0.26437 0.32346 0.89566 0.0
C890 C 0.30015 0.31098 0.91422 0.0
H891 H 0.1837 0.30726 0.87924 0.0
H892 H 0.28071 0.34763 0.88129 0.0
C893 C 0.2774 0.28047 0.93277 0.0
C894 C 0.16321 0.24967 0.39639 0.0
C895 C 0.17235 0.28678 0.41485 0.0
H896 H 0.18509 0.16971 0.38053 0.0
C897 C 0.20432 0.26709 0.43358 0.0
H898 H 0.13818 0.26373 0.38185 0.0
C899 C 0.23197 0.2132 0.43274 0.0
C900 C 0.22774 0.17892 0.41317 0.0
H901 H 0.21212 0.29518 0.44799 0.0
H902 H 0.25924 0.20007 0.44677 0.0
C903 C 0.19082 0.19627 0.39551 0.0
C904 C 0.78302 0.80482 0.90325 0.0
C905 C 0.79876 0.7585 0.91741 0.0
H906 H 0.71496 0.86052 0.89214 0.0
C907 C 0.76174 0.74142 0.93494 0.0
H908 H 0.8119 0.82012 0.89011 0.0
C909 C 0.70617 0.76514 0.93624 0.0
C910 C 0.68793 0.80584 0.92 0.0
H911 H 0.7737 0.70646 0.94629 0.0
H912 H 0.6758 0.74704 0.94828 0.0
C913 C 0.72799 0.82854 0.9046 0.0
C914 C 0.69935 0.71652 0.42878 0.0
C915 C 0.67508 0.69272 0.40901 0.0
H916 H 0.74779 0.78672 0.44327 0.0
C917 C 0.67465 0.72563 0.38906 0.0
H918 H 0.70035 0.692 0.44441 0.0
C919 C 0.70261 0.77906 0.38832 0.0
C920 C 0.73111 0.8008 0.40757 0.0
H921 H 0.65572 0.70858 0.37362 0.0
H922 H 0.70327 0.80242 0.37242 0.0
C923 C 0.72728 0.77029 0.42806 0.0
C924 C 0.73472 0.82958 0.11934 0.0
C925 C 0.77475 0.81779 0.10223 0.0
H926 H 0.65593 0.80454 0.13516 0.0
C927 C 0.76067 0.77739 0.08519 0.0
H928 H 0.7445 0.86093 0.13251 0.0
C929 C 0.71008 0.74417 0.08687 0.0
C930 C 0.67369 0.75134 0.1056 0.0
H931 H 0.7912 0.76743 0.07187 0.0
H932 H 0.70167 0.71039 0.07451 0.0
C933 C 0.68464 0.79654 0.12103 0.0
C934 C 0.65999 0.74141 0.61552 0.0
C935 C 0.67843 0.78563 0.60097 0.0
H936 H 0.67785 0.65754 0.62901 0.0
C937 C 0.72241 0.77431 0.58515 0.0
H938 H 0.62573 0.74904 0.62766 0.0
C939 C 0.75296 0.72195 0.5861 0.0
C940 C 0.73939 0.68124 0.60288 0.0
H941 H 0.73736 0.80802 0.57377 0.0
H942 H 0.78992 0.71554 0.57513 0.0
C943 C 0.69042 0.6896 0.61652 0.0
loop_
_geom_bond_atom_site_label_1
_geom_bond_atom_site_label_2
_geom_bond_distance
_geom_bond_site_symmetry_2
_ccdc_geom_bond_type
Co0 O3 1.970 . S
Co0 N17 1.989 . S
Co0 O25 1.967 . S
Co0 O32 1.920 . S
Co1 O4 1.966 . S
Co1 N10 2.022 . S
Co1 N18 1.993 . S
Co1 O26 1.941 . S
C2 O3 1.258 . S
C2 O4 1.263 . S
O3 Co0 1.970 . S
O3 C2 1.258 . S
O4 Co1 1.966 . S
O4 C2 1.263 . S
C5 O6 1.235 1_455 S
C5 O32 1.289 . S
O6 C5 1.235 1_655 S
C7 C9 1.400 . S
C7 N10 1.351 . S
C7 C12 1.501 . S
C8 C9 1.387 . S
C8 N11 1.341 . S
C9 C7 1.400 . S
C9 C8 1.387 . S
N10 Co1 2.022 . S
N10 C7 1.351 . S
N10 N11 1.365 . S
N11 C8 1.341 . S
N11 N10 1.365 . S
N11 H31 0.862 . S
C12 C7 1.501 . S
C12 H13 0.961 . S
C12 H14 0.961 1_455 S
C12 H15 0.960 . S
H13 C12 0.961 . S
H14 C12 0.961 1_655 S
H15 C12 0.960 . S
C16 N17 1.342 . S
C16 C20 1.401 . S
C16 C21 1.499 . S
N17 Co0 1.989 . S
N17 C16 1.342 . S
N17 N18 1.388 . S
N18 Co1 1.993 . S
N18 N17 1.388 . S
N18 C19 1.346 . S
C19 N18 1.346 . S
C19 C20 1.396 . S
C19 C29 1.510 . S
C20 C16 1.401 . S
C20 C19 1.396 . S
C21 C16 1.499 . S
C21 H22 0.959 . S
C21 H23 0.960 1_455 S
C21 H24 0.961 . S
H22 C21 0.959 . S
H23 C21 0.960 1_655 S
H24 C21 0.961 . S
O25 Co0 1.967 . S
O25 C33 1.258 . S
O26 Co1 1.941 . S
O26 C33 1.266 . S
H27 C29 0.959 . S
H28 C29 0.961 1_655 S
C29 C19 1.510 . S
C29 H27 0.959 . S
C29 H28 0.961 1_455 S
C29 H30 0.960 . S
H30 C29 0.960 . S
H31 N11 0.862 . S
O32 Co0 1.920 . S
O32 C5 1.289 . S
C33 O25 1.258 . S
C33 O26 1.266 . S
Co34 O37 1.970 . S
Co34 N51 1.989 . S
Co34 O59 1.967 . S
Co34 O66 1.920 . S
Co35 O38 1.966 . S
Co35 N44 2.022 . S
Co35 N52 1.993 . S
Co35 O60 1.941 . S
C36 O37 1.258 . S
C36 O38 1.263 . S
O37 Co34 1.970 . S
O37 C36 1.258 . S
O38 Co35 1.966 . S
O38 C36 1.263 . S
C39 O40 1.235 1_545 S
C39 O66 1.289 . S
O40 C39 1.235 1_565 S
C41 C43 1.400 . S
C41 N44 1.351 . S
C41 C46 1.501 . S
C42 C43 1.387 . S
C42 N45 1.341 . S
C43 C41 1.400 . S
C43 C42 1.387 . S
N44 Co35 2.022 . S
N44 C41 1.351 . S
N44 N45 1.365 . S
N45 C42 1.341 . S
N45 N44 1.365 . S
N45 H65 0.862 . S
C46 C41 1.501 . S
C46 H47 0.961 . S
C46 H48 0.961 1_545 S
C46 H49 0.960 . S
H47 C46 0.961 . S
H48 C46 0.961 1_565 S
H49 C46 0.960 . S
C50 N51 1.342 . S
C50 C54 1.401 . S
C50 C55 1.499 . S
N51 Co34 1.989 . S
N51 C50 1.342 . S
N51 N52 1.388 . S
N52 Co35 1.993 . S
N52 N51 1.388 . S
N52 C53 1.346 . S
C53 N52 1.346 . S
C53 C54 1.396 . S
C53 C63 1.510 . S
C54 C50 1.401 . S
C54 C53 1.396 . S
C55 C50 1.499 . S
C55 H56 0.959 . S
C55 H57 0.960 1_545 S
C55 H58 0.961 . S
H56 C55 0.959 . S
H57 C55 0.960 1_565 S
H58 C55 0.961 . S
O59 Co34 1.967 . S
O59 C67 1.258 . S
O60 Co35 1.941 . S
O60 C67 1.266 . S
H61 C63 0.959 . S
H62 C63 0.961 1_565 S
C63 C53 1.510 . S
C63 H61 0.959 . S
C63 H62 0.961 1_545 S
C63 H64 0.960 . S
H64 C63 0.960 . S
H65 N45 0.862 . S
O66 Co34 1.920 . S
O66 C39 1.289 . S
C67 O59 1.258 . S
C67 O60 1.266 . S
Co68 O71 1.970 . S
Co68 N85 1.989 . S
Co68 O93 1.967 . S
Co68 O100 1.920 . S
Co69 O72 1.966 . S
Co69 N78 2.022 . S
Co69 N86 1.993 . S
Co69 O94 1.941 . S
C70 O71 1.258 . S
C70 O72 1.263 . S
O71 Co68 1.970 . S
O71 C70 1.258 . S
O72 Co69 1.966 . S
O72 C70 1.263 . S
C73 O74 1.235 . S
C73 O100 1.289 . S
O74 C73 1.235 . S
C75 C77 1.400 . S
C75 N78 1.351 . S
C75 C80 1.501 . S
C76 C77 1.387 . S
C76 N79 1.341 . S
C77 C75 1.400 . S
C77 C76 1.387 . S
N78 Co69 2.022 . S
N78 C75 1.351 . S
N78 N79 1.365 . S
N79 C76 1.341 . S
N79 N78 1.365 . S
N79 H99 0.862 . S
C80 C75 1.501 . S
C80 H81 0.961 . S
C80 H82 0.961 . S
C80 H83 0.960 . S
H81 C80 0.961 . S
H82 C80 0.961 . S
H83 C80 0.960 . S
C84 N85 1.342 . S
C84 C88 1.401 . S
C84 C89 1.499 . S
N85 Co68 1.989 . S
N85 C84 1.342 . S
N85 N86 1.388 . S
N86 Co69 1.993 . S
N86 N85 1.388 . S
N86 C87 1.346 . S
C87 N86 1.346 . S
C87 C88 1.396 . S
C87 C97 1.510 . S
C88 C84 1.401 . S
C88 C87 1.396 . S
C89 C84 1.499 . S
C89 H90 0.959 . S
C89 H91 0.960 . S
C89 H92 0.961 . S
H90 C89 0.959 . S
H91 C89 0.960 . S
H92 C89 0.961 . S
O93 Co68 1.967 . S
O93 C101 1.258 . S
O94 Co69 1.941 . S
O94 C101 1.266 . S
H95 C97 0.959 . S
H96 C97 0.961 . S
C97 C87 1.510 . S
C97 H95 0.959 . S
C97 H96 0.961 . S
C97 H98 0.960 . S
H98 C97 0.960 . S
H99 N79 0.862 . S
O100 Co68 1.920 . S
O100 C73 1.289 . S
C101 O93 1.258 . S
C101 O94 1.266 . S
Co102 O105 1.970 . S
Co102 N119 1.989 . S
Co102 O127 1.967 . S
Co102 O134 1.920 . S
Co103 O106 1.966 . S
Co103 N112 2.022 . S
Co103 N120 1.993 . S
Co103 O128 1.941 . S
C104 O105 1.258 . S
C104 O106 1.263 . S
O105 Co102 1.970 . S
O105 C104 1.258 . S
O106 Co103 1.966 . S
O106 C104 1.263 . S
C107 O108 1.235 . S
C107 O134 1.289 . S
O108 C107 1.235 . S
C109 C111 1.400 . S
C109 N112 1.351 . S
C109 C114 1.501 . S
C110 C111 1.387 . S
C110 N113 1.341 . S
C111 C109 1.400 . S
C111 C110 1.387 . S
N112 Co103 2.022 . S
N112 C109 1.351 . S
N112 N113 1.365 . S
N113 C110 1.341 . S
N113 N112 1.365 . S
N113 H133 0.862 . S
C114 C109 1.501 . S
C114 H115 0.961 . S
C114 H116 0.961 . S
C114 H117 0.960 . S
H115 C114 0.961 . S
H116 C114 0.961 . S
H117 C114 0.960 . S
C118 N119 1.342 . S
C118 C122 1.401 . S
C118 C123 1.499 . S
N119 Co102 1.989 . S
N119 C118 1.342 . S
N119 N120 1.388 . S
N120 Co103 1.993 . S
N120 N119 1.388 . S
N120 C121 1.346 . S
C121 N120 1.346 . S
C121 C122 1.396 . S
C121 C131 1.510 . S
C122 C118 1.401 . S
C122 C121 1.396 . S
C123 C118 1.499 . S
C123 H124 0.959 . S
C123 H125 0.960 . S
C123 H126 0.961 . S
H124 C123 0.959 . S
H125 C123 0.960 . S
H126 C123 0.961 . S
O127 Co102 1.967 . S
O127 C135 1.258 . S
O128 Co103 1.941 . S
O128 C135 1.266 . S
H129 C131 0.959 . S
H130 C131 0.961 . S
C131 C121 1.510 . S
C131 H129 0.959 . S
C131 H130 0.961 . S
C131 H132 0.960 . S
H132 C131 0.960 . S
H133 N113 0.862 . S
O134 Co102 1.920 . S
O134 C107 1.289 . S
C135 O127 1.258 . S
C135 O128 1.266 . S
Co136 O139 1.970 . S
Co136 N153 1.989 . S
Co136 O161 1.967 . S
Co136 O168 1.920 . S
Co137 O140 1.966 . S
Co137 N146 2.022 . S
Co137 N154 1.993 . S
Co137 O162 1.941 . S
C138 O139 1.258 . S
C138 O140 1.263 . S
O139 Co136 1.970 . S
O139 C138 1.258 . S
O140 Co137 1.966 . S
O140 C138 1.263 . S
C141 O142 1.235 1_455 S
C141 O168 1.289 . S
O142 C141 1.235 1_655 S
C143 C145 1.400 . S
C143 N146 1.351 . S
C143 C148 1.501 . S
C144 C145 1.387 . S
C144 N147 1.341 . S
C145 C143 1.400 . S
C145 C144 1.387 . S
N146 Co137 2.022 . S
N146 C143 1.351 . S
N146 N147 1.365 . S
N147 C144 1.341 . S
N147 N146 1.365 . S
N147 H167 0.862 . S
C148 C143 1.501 . S
C148 H149 0.961 . S
C148 H150 0.961 1_455 S
C148 H151 0.960 . S
H149 C148 0.961 . S
H150 C148 0.961 1_655 S
H151 C148 0.960 . S
C152 N153 1.342 . S
C152 C156 1.401 . S
C152 C157 1.499 . S
N153 Co136 1.989 . S
N153 C152 1.342 . S
N153 N154 1.388 . S
N154 Co137 1.993 . S
N154 N153 1.388 . S
N154 C155 1.346 . S
C155 N154 1.346 . S
C155 C156 1.396 . S
C155 C165 1.510 . S
C156 C152 1.401 . S
C156 C155 1.396 . S
C157 C152 1.499 . S
C157 H158 0.959 . S
C157 H159 0.960 1_455 S
C157 H160 0.961 . S
H158 C157 0.959 . S
H159 C157 0.960 1_655 S
H160 C157 0.961 . S
O161 Co136 1.967 . S
O161 C169 1.258 . S
O162 Co137 1.941 . S
O162 C169 1.266 . S
H163 C165 0.959 . S
H164 C165 0.961 1_655 S
C165 C155 1.510 . S
C165 H163 0.959 . S
C165 H164 0.961 1_455 S
C165 H166 0.960 . S
H166 C165 0.960 . S
H167 N147 0.862 . S
O168 Co136 1.920 . S
O168 C141 1.289 . S
C169 O161 1.258 . S
C169 O162 1.266 . S
Co170 O173 1.970 . S
Co170 N187 1.989 . S
Co170 O195 1.967 . S
Co170 O202 1.920 . S
Co171 O174 1.966 . S
Co171 N180 2.022 . S
Co171 N188 1.993 . S
Co171 O196 1.941 . S
C172 O173 1.258 . S
C172 O174 1.263 . S
O173 Co170 1.970 . S
O173 C172 1.258 . S
O174 Co171 1.966 . S
O174 C172 1.263 . S
C175 O176 1.235 1_545 S
C175 O202 1.289 . S
O176 C175 1.235 1_565 S
C177 C179 1.400 . S
C177 N180 1.351 . S
C177 C182 1.501 . S
C178 C179 1.387 . S
C178 N181 1.341 . S
C179 C177 1.400 . S
C179 C178 1.387 . S
N180 Co171 2.022 . S
N180 C177 1.351 . S
N180 N181 1.365 . S
N181 C178 1.341 . S
N181 N180 1.365 . S
N181 H201 0.862 . S
C182 C177 1.501 . S
C182 H183 0.961 . S
C182 H184 0.961 1_545 S
C182 H185 0.960 . S
H183 C182 0.961 . S
H184 C182 0.961 1_565 S
H185 C182 0.960 . S
C186 N187 1.342 . S
C186 C190 1.401 . S
C186 C191 1.499 . S
N187 Co170 1.989 . S
N187 C186 1.342 . S
N187 N188 1.388 . S
N188 Co171 1.993 . S
N188 N187 1.388 . S
N188 C189 1.346 . S
C189 N188 1.346 . S
C189 C190 1.396 . S
C189 C199 1.510 . S
C190 C186 1.401 . S
C190 C189 1.396 . S
C191 C186 1.499 . S
C191 H192 0.959 . S
C191 H193 0.960 1_545 S
C191 H194 0.961 . S
H192 C191 0.959 . S
H193 C191 0.960 1_565 S
H194 C191 0.961 . S
O195 Co170 1.967 . S
O195 C203 1.258 . S
O196 Co171 1.941 . S
O196 C203 1.266 . S
H197 C199 0.959 . S
H198 C199 0.961 1_565 S
C199 C189 1.510 . S
C199 H197 0.959 . S
C199 H198 0.961 1_545 S
C199 H200 0.960 . S
H200 C199 0.960 . S
H201 N181 0.862 . S
O202 Co170 1.920 . S
O202 C175 1.289 . S
C203 O195 1.258 . S
C203 O196 1.266 . S
Co204 O207 1.970 . S
Co204 N221 1.989 . S
Co204 O229 1.967 . S
Co204 O236 1.920 . S
Co205 O208 1.966 . S
Co205 N214 2.022 . S
Co205 N222 1.993 . S
Co205 O230 1.941 . S
C206 O207 1.258 . S
C206 O208 1.263 . S
O207 Co204 1.970 . S
O207 C206 1.258 . S
O208 Co205 1.966 . S
O208 C206 1.263 . S
C209 O210 1.235 . S
C209 O236 1.289 . S
O210 C209 1.235 . S
C211 C213 1.400 . S
C211 N214 1.351 . S
C211 C216 1.501 . S
C212 C213 1.387 . S
C212 N215 1.341 . S
C213 C211 1.400 . S
C213 C212 1.387 . S
N214 Co205 2.022 . S
N214 C211 1.351 . S
N214 N215 1.365 . S
N215 C212 1.341 . S
N215 N214 1.365 . S
N215 H235 0.862 . S
C216 C211 1.501 . S
C216 H217 0.961 . S
C216 H218 0.961 . S
C216 H219 0.960 . S
H217 C216 0.961 . S
H218 C216 0.961 . S
H219 C216 0.960 . S
C220 N221 1.342 . S
C220 C224 1.401 . S
C220 C225 1.499 . S
N221 Co204 1.989 . S
N221 C220 1.342 . S
N221 N222 1.388 . S
N222 Co205 1.993 . S
N222 N221 1.388 . S
N222 C223 1.346 . S
C223 N222 1.346 . S
C223 C224 1.396 . S
C223 C233 1.510 . S
C224 C220 1.401 . S
C224 C223 1.396 . S
C225 C220 1.499 . S
C225 H226 0.959 . S
C225 H227 0.960 . S
C225 H228 0.961 . S
H226 C225 0.959 . S
H227 C225 0.960 . S
H228 C225 0.961 . S
O229 Co204 1.967 . S
O229 C237 1.258 . S
O230 Co205 1.941 . S
O230 C237 1.266 . S
H231 C233 0.959 . S
H232 C233 0.961 . S
C233 C223 1.510 . S
C233 H231 0.959 . S
C233 H232 0.961 . S
C233 H234 0.960 . S
H234 C233 0.960 . S
H235 N215 0.862 . S
O236 Co204 1.920 . S
O236 C209 1.289 . S
C237 O229 1.258 . S
C237 O230 1.266 . S
Co238 O241 1.970 . S
Co238 N255 1.989 . S
Co238 O263 1.967 . S
Co238 O270 1.920 . S
Co239 O242 1.966 . S
Co239 N248 2.022 . S
Co239 N256 1.993 . S
Co239 O264 1.941 . S
C240 O241 1.258 . S
C240 O242 1.263 . S
O241 Co238 1.970 . S
O241 C240 1.258 . S
O242 Co239 1.966 . S
O242 C240 1.263 . S
C243 O244 1.235 . S
C243 O270 1.289 . S
O244 C243 1.235 . S
C245 C247 1.400 . S
C245 N248 1.351 . S
C245 C250 1.501 . S
C246 C247 1.387 . S
C246 N249 1.341 . S
C247 C245 1.400 . S
C247 C246 1.387 . S
N248 Co239 2.022 . S
N248 C245 1.351 . S
N248 N249 1.365 . S
N249 C246 1.341 . S
N249 N248 1.365 . S
N249 H269 0.862 . S
C250 C245 1.501 . S
C250 H251 0.961 . S
C250 H252 0.961 . S
C250 H253 0.960 . S
H251 C250 0.961 . S
H252 C250 0.961 . S
H253 C250 0.960 . S
C254 N255 1.342 . S
C254 C258 1.401 . S
C254 C259 1.499 . S
N255 Co238 1.989 . S
N255 C254 1.342 . S
N255 N256 1.388 . S
N256 Co239 1.993 . S
N256 N255 1.388 . S
N256 C257 1.346 . S
C257 N256 1.346 . S
C257 C258 1.396 . S
C257 C267 1.510 . S
C258 C254 1.401 . S
C258 C257 1.396 . S
C259 C254 1.499 . S
C259 H260 0.959 . S
C259 H261 0.960 . S
C259 H262 0.961 . S
H260 C259 0.959 . S
H261 C259 0.960 . S
H262 C259 0.961 . S
O263 Co238 1.967 . S
O263 C271 1.258 . S
O264 Co239 1.941 . S
O264 C271 1.266 . S
H265 C267 0.959 . S
H266 C267 0.961 . S
C267 C257 1.510 . S
C267 H265 0.959 . S
C267 H266 0.961 . S
C267 H268 0.960 . S
H268 C267 0.960 . S
H269 N249 0.862 . S
O270 Co238 1.920 . S
O270 C243 1.289 . S
C271 O263 1.258 . S
C271 O264 1.266 . S
Co272 O275 1.970 . S
Co272 N289 1.989 . S
Co272 O297 1.967 . S
Co272 O304 1.920 . S
Co273 O276 1.966 . S
Co273 N282 2.022 . S
Co273 N290 1.993 . S
Co273 O298 1.941 . S
C274 O275 1.258 . S
C274 O276 1.263 . S
O275 Co272 1.970 . S
O275 C274 1.258 . S
O276 Co273 1.966 . S
O276 C274 1.263 . S
C277 O278 1.235 1_655 S
C277 O304 1.289 . S
O278 C277 1.235 1_455 S
C279 C281 1.400 . S
C279 N282 1.351 . S
C279 C284 1.501 . S
C280 C281 1.387 . S
C280 N283 1.341 . S
C281 C279 1.400 . S
C281 C280 1.387 . S
N282 Co273 2.022 . S
N282 C279 1.351 . S
N282 N283 1.365 . S
N283 C280 1.341 . S
N283 N282 1.365 . S
N283 H303 0.862 . S
C284 C279 1.501 . S
C284 H285 0.961 . S
C284 H286 0.961 1_655 S
C284 H287 0.960 . S
H285 C284 0.961 . S
H286 C284 0.961 1_455 S
H287 C284 0.960 . S
C288 N289 1.342 . S
C288 C292 1.401 . S
C288 C293 1.499 . S
N289 Co272 1.989 . S
N289 C288 1.342 . S
N289 N290 1.388 . S
N290 Co273 1.993 . S
N290 N289 1.388 . S
N290 C291 1.346 . S
C291 N290 1.346 . S
C291 C292 1.396 . S
C291 C301 1.510 . S
C292 C288 1.401 . S
C292 C291 1.396 . S
C293 C288 1.499 . S
C293 H294 0.959 . S
C293 H295 0.960 1_655 S
C293 H296 0.961 . S
H294 C293 0.959 . S
H295 C293 0.960 1_455 S
H296 C293 0.961 . S
O297 Co272 1.967 . S
O297 C305 1.258 . S
O298 Co273 1.941 . S
O298 C305 1.266 . S
H299 C301 0.959 . S
H300 C301 0.961 1_455 S
C301 C291 1.510 . S
C301 H299 0.959 . S
C301 H300 0.961 1_655 S
C301 H302 0.960 . S
H302 C301 0.960 . S
H303 N283 0.862 . S
O304 Co272 1.920 . S
O304 C277 1.289 . S
C305 O297 1.258 . S
C305 O298 1.266 . S
Co306 O309 1.970 . S
Co306 N323 1.989 . S
Co306 O331 1.967 . S
Co306 O338 1.920 . S
Co307 O310 1.966 . S
Co307 N316 2.022 . S
Co307 N324 1.993 . S
Co307 O332 1.941 . S
C308 O309 1.258 . S
C308 O310 1.263 . S
O309 Co306 1.970 . S
O309 C308 1.258 . S
O310 Co307 1.966 . S
O310 C308 1.263 . S
C311 O312 1.235 1_565 S
C311 O338 1.289 . S
O312 C311 1.235 1_545 S
C313 C315 1.400 . S
C313 N316 1.351 . S
C313 C318 1.501 . S
C314 C315 1.387 . S
C314 N317 1.341 . S
C315 C313 1.400 . S
C315 C314 1.387 . S
N316 Co307 2.022 . S
N316 C313 1.351 . S
N316 N317 1.365 . S
N317 C314 1.341 . S
N317 N316 1.365 . S
N317 H337 0.862 . S
C318 C313 1.501 . S
C318 H319 0.961 . S
C318 H320 0.961 1_565 S
C318 H321 0.960 . S
H319 C318 0.961 . S
H320 C318 0.961 1_545 S
H321 C318 0.960 . S
C322 N323 1.342 . S
C322 C326 1.401 . S
C322 C327 1.499 . S
N323 Co306 1.989 . S
N323 C322 1.342 . S
N323 N324 1.388 . S
N324 Co307 1.993 . S
N324 N323 1.388 . S
N324 C325 1.346 . S
C325 N324 1.346 . S
C325 C326 1.396 . S
C325 C335 1.510 . S
C326 C322 1.401 . S
C326 C325 1.396 . S
C327 C322 1.499 . S
C327 H328 0.959 . S
C327 H329 0.960 1_565 S
C327 H330 0.961 . S
H328 C327 0.959 . S
H329 C327 0.960 1_545 S
H330 C327 0.961 . S
O331 Co306 1.967 . S
O331 C339 1.258 . S
O332 Co307 1.941 . S
O332 C339 1.266 . S
H333 C335 0.959 . S
H334 C335 0.961 1_545 S
C335 C325 1.510 . S
C335 H333 0.959 . S
C335 H334 0.961 1_565 S
C335 H336 0.960 . S
H336 C335 0.960 . S
H337 N317 0.862 . S
O338 Co306 1.920 . S
O338 C311 1.289 . S
C339 O331 1.258 . S
C339 O332 1.266 . S
Co340 O343 1.970 . S
Co340 N357 1.989 . S
Co340 O365 1.967 . S
Co340 O372 1.920 . S
Co341 O344 1.966 . S
Co341 N350 2.022 . S
Co341 N358 1.993 . S
Co341 O366 1.941 . S
C342 O343 1.258 . S
C342 O344 1.263 . S
O343 Co340 1.970 . S
O343 C342 1.258 . S
O344 Co341 1.966 . S
O344 C342 1.263 . S
C345 O346 1.235 . S
C345 O372 1.289 . S
O346 C345 1.235 . S
C347 C349 1.400 . S
C347 N350 1.351 . S
C347 C352 1.501 . S
C348 C349 1.387 . S
C348 N351 1.341 . S
C349 C347 1.400 . S
C349 C348 1.387 . S
N350 Co341 2.022 . S
N350 C347 1.351 . S
N350 N351 1.365 . S
N351 C348 1.341 . S
N351 N350 1.365 . S
N351 H371 0.862 . S
C352 C347 1.501 . S
C352 H353 0.961 . S
C352 H354 0.961 . S
C352 H355 0.960 . S
H353 C352 0.961 . S
H354 C352 0.961 . S
H355 C352 0.960 . S
C356 N357 1.342 . S
C356 C360 1.401 . S
C356 C361 1.499 . S
N357 Co340 1.989 . S
N357 C356 1.342 . S
N357 N358 1.388 . S
N358 Co341 1.993 . S
N358 N357 1.388 . S
N358 C359 1.346 . S
C359 N358 1.346 . S
C359 C360 1.396 . S
C359 C369 1.510 . S
C360 C356 1.401 . S
C360 C359 1.396 . S
C361 C356 1.499 . S
C361 H362 0.959 . S
C361 H363 0.960 . S
C361 H364 0.961 . S
H362 C361 0.959 . S
H363 C361 0.960 . S
H364 C361 0.961 . S
O365 Co340 1.967 . S
O365 C373 1.258 . S
O366 Co341 1.941 . S
O366 C373 1.266 . S
H367 C369 0.959 . S
H368 C369 0.961 . S
C369 C359 1.510 . S
C369 H367 0.959 . S
C369 H368 0.961 . S
C369 H370 0.960 . S
H370 C369 0.960 . S
H371 N351 0.862 . S
O372 Co340 1.920 . S
O372 C345 1.289 . S
C373 O365 1.258 . S
C373 O366 1.266 . S
Co374 O377 1.970 . S
Co374 N391 1.989 . S
Co374 O399 1.967 . S
Co374 O406 1.920 . S
Co375 O378 1.966 . S
Co375 N384 2.022 . S
Co375 N392 1.993 . S
Co375 O400 1.941 . S
C376 O377 1.258 . S
C376 O378 1.263 . S
O377 Co374 1.970 . S
O377 C376 1.258 . S
O378 Co375 1.966 . S
O378 C376 1.263 . S
C379 O380 1.235 . S
C379 O406 1.289 . S
O380 C379 1.235 . S
C381 C383 1.400 . S
C381 N384 1.351 . S
C381 C386 1.501 . S
C382 C383 1.387 . S
C382 N385 1.341 . S
C383 C381 1.400 . S
C383 C382 1.387 . S
N384 Co375 2.022 . S
N384 C381 1.351 . S
N384 N385 1.365 . S
N385 C382 1.341 . S
N385 N384 1.365 . S
N385 H405 0.862 . S
C386 C381 1.501 . S
C386 H387 0.961 . S
C386 H388 0.961 . S
C386 H389 0.960 . S
H387 C386 0.961 . S
H388 C386 0.961 . S
H389 C386 0.960 . S
C390 N391 1.342 . S
C390 C394 1.401 . S
C390 C395 1.499 . S
N391 Co374 1.989 . S
N391 C390 1.342 . S
N391 N392 1.388 . S
N392 Co375 1.993 . S
N392 N391 1.388 . S
N392 C393 1.346 . S
C393 N392 1.346 . S
C393 C394 1.396 . S
C393 C403 1.510 . S
C394 C390 1.401 . S
C394 C393 1.396 . S
C395 C390 1.499 . S
C395 H396 0.959 . S
C395 H397 0.960 . S
C395 H398 0.961 . S
H396 C395 0.959 . S
H397 C395 0.960 . S
H398 C395 0.961 . S
O399 Co374 1.967 . S
O399 C407 1.258 . S
O400 Co375 1.941 . S
O400 C407 1.266 . S
H401 C403 0.959 . S
H402 C403 0.961 . S
C403 C393 1.510 . S
C403 H401 0.959 . S
C403 H402 0.961 . S
C403 H404 0.960 . S
H404 C403 0.960 . S
H405 N385 0.862 . S
O406 Co374 1.920 . S
O406 C379 1.289 . S
C407 O399 1.258 . S
C407 O400 1.266 . S
Co408 O411 1.970 . S
Co408 N425 1.989 . S
Co408 O433 1.967 . S
Co408 O440 1.920 . S
Co409 O412 1.966 . S
Co409 N418 2.022 . S
Co409 N426 1.993 . S
Co409 O434 1.941 . S
C410 O411 1.258 . S
C410 O412 1.263 . S
O411 Co408 1.970 . S
O411 C410 1.258 . S
O412 Co409 1.966 . S
O412 C410 1.263 . S
C413 O414 1.235 1_655 S
C413 O440 1.289 . S
O414 C413 1.235 1_455 S
C415 C417 1.400 . S
C415 N418 1.351 . S
C415 C420 1.501 . S
C416 C417 1.387 . S
C416 N419 1.341 . S
C417 C415 1.400 . S
C417 C416 1.387 . S
N418 Co409 2.022 . S
N418 C415 1.351 . S
N418 N419 1.365 . S
N419 C416 1.341 . S
N419 N418 1.365 . S
N419 H439 0.862 . S
C420 C415 1.501 . S
C420 H421 0.961 . S
C420 H422 0.961 1_655 S
C420 H423 0.960 . S
H421 C420 0.961 . S
H422 C420 0.961 1_455 S
H423 C420 0.960 . S
C424 N425 1.342 . S
C424 C428 1.401 . S
C424 C429 1.499 . S
N425 Co408 1.989 . S
N425 C424 1.342 . S
N425 N426 1.388 . S
N426 Co409 1.993 . S
N426 N425 1.388 . S
N426 C427 1.346 . S
C427 N426 1.346 . S
C427 C428 1.396 . S
C427 C437 1.510 . S
C428 C424 1.401 . S
C428 C427 1.396 . S
C429 C424 1.499 . S
C429 H430 0.959 . S
C429 H431 0.960 1_655 S
C429 H432 0.961 . S
H430 C429 0.959 . S
H431 C429 0.960 1_455 S
H432 C429 0.961 . S
O433 Co408 1.967 . S
O433 C441 1.258 . S
O434 Co409 1.941 . S
O434 C441 1.266 . S
H435 C437 0.959 . S
H436 C437 0.961 1_455 S
C437 C427 1.510 . S
C437 H435 0.959 . S
C437 H436 0.961 1_655 S
C437 H438 0.960 . S
H438 C437 0.960 . S
H439 N419 0.862 . S
O440 Co408 1.920 . S
O440 C413 1.289 . S
C441 O433 1.258 . S
C441 O434 1.266 . S
Co442 O445 1.970 . S
Co442 N459 1.989 . S
Co442 O467 1.967 . S
Co442 O474 1.920 . S
Co443 O446 1.966 . S
Co443 N452 2.022 . S
Co443 N460 1.993 . S
Co443 O468 1.941 . S
C444 O445 1.258 . S
C444 O446 1.263 . S
O445 Co442 1.970 . S
O445 C444 1.258 . S
O446 Co443 1.966 . S
O446 C444 1.263 . S
C447 O448 1.235 1_565 S
C447 O474 1.289 . S
O448 C447 1.235 1_545 S
C449 C451 1.400 . S
C449 N452 1.351 . S
C449 C454 1.501 . S
C450 C451 1.387 . S
C450 N453 1.341 . S
C451 C449 1.400 . S
C451 C450 1.387 . S
N452 Co443 2.022 . S
N452 C449 1.351 . S
N452 N453 1.365 . S
N453 C450 1.341 . S
N453 N452 1.365 . S
N453 H473 0.862 . S
C454 C449 1.501 . S
C454 H455 0.961 . S
C454 H456 0.961 1_565 S
C454 H457 0.960 . S
H455 C454 0.961 . S
H456 C454 0.961 1_545 S
H457 C454 0.960 . S
C458 N459 1.342 . S
C458 C462 1.401 . S
C458 C463 1.499 . S
N459 Co442 1.989 . S
N459 C458 1.342 . S
N459 N460 1.388 . S
N460 Co443 1.993 . S
N460 N459 1.388 . S
N460 C461 1.346 . S
C461 N460 1.346 . S
C461 C462 1.396 . S
C461 C471 1.510 . S
C462 C458 1.401 . S
C462 C461 1.396 . S
C463 C458 1.499 . S
C463 H464 0.959 . S
C463 H465 0.960 1_565 S
C463 H466 0.961 . S
H464 C463 0.959 . S
H465 C463 0.960 1_545 S
H466 C463 0.961 . S
O467 Co442 1.967 . S
O467 C475 1.258 . S
O468 Co443 1.941 . S
O468 C475 1.266 . S
H469 C471 0.959 . S
H470 C471 0.961 1_545 S
C471 C461 1.510 . S
C471 H469 0.959 . S
C471 H470 0.961 1_565 S
C471 H472 0.960 . S
H472 C471 0.960 . S
H473 N453 0.862 . S
O474 Co442 1.920 . S
O474 C447 1.289 . S
C475 O467 1.258 . S
C475 O468 1.266 . S
Co476 O479 1.970 . S
Co476 N493 1.989 . S
Co476 O501 1.967 . S
Co476 O508 1.920 . S
Co477 O480 1.966 . S
Co477 N486 2.022 . S
Co477 N494 1.993 . S
Co477 O502 1.941 . S
C478 O479 1.258 . S
C478 O480 1.263 . S
O479 Co476 1.970 . S
O479 C478 1.258 . S
O480 Co477 1.966 . S
O480 C478 1.263 . S
C481 O482 1.235 . S
C481 O508 1.289 . S
O482 C481 1.235 . S
C483 C485 1.400 . S
C483 N486 1.351 . S
C483 C488 1.501 . S
C484 C485 1.387 . S
C484 N487 1.341 . S
C485 C483 1.400 . S
C485 C484 1.387 . S
N486 Co477 2.022 . S
N486 C483 1.351 . S
N486 N487 1.365 . S
N487 C484 1.341 . S
N487 N486 1.365 . S
N487 H507 0.862 . S
C488 C483 1.501 . S
C488 H489 0.961 . S
C488 H490 0.961 . S
C488 H491 0.960 . S
H489 C488 0.961 . S
H490 C488 0.961 . S
H491 C488 0.960 . S
C492 N493 1.342 . S
C492 C496 1.401 . S
C492 C497 1.499 . S
N493 Co476 1.989 . S
N493 C492 1.342 . S
N493 N494 1.388 . S
N494 Co477 1.993 . S
N494 N493 1.388 . S
N494 C495 1.346 . S
C495 N494 1.346 . S
C495 C496 1.396 . S
C495 C505 1.510 . S
C496 C492 1.401 . S
C496 C495 1.396 . S
C497 C492 1.499 . S
C497 H498 0.959 . S
C497 H499 0.960 . S
C497 H500 0.961 . S
H498 C497 0.959 . S
H499 C497 0.960 . S
H500 C497 0.961 . S
O501 Co476 1.967 . S
O501 C509 1.258 . S
O502 Co477 1.941 . S
O502 C509 1.266 . S
H503 C505 0.959 . S
H504 C505 0.961 . S
C505 C495 1.510 . S
C505 H503 0.959 . S
C505 H504 0.961 . S
C505 H506 0.960 . S
H506 C505 0.960 . S
H507 N487 0.862 . S
O508 Co476 1.920 . S
O508 C481 1.289 . S
C509 O501 1.258 . S
C509 O502 1.266 . S
Co510 O513 1.970 . S
Co510 N527 1.989 . S
Co510 O535 1.967 . S
Co510 O542 1.920 . S
Co511 O514 1.966 . S
Co511 N520 2.022 . S
Co511 N528 1.993 . S
Co511 O536 1.941 . S
C512 O513 1.258 . S
C512 O514 1.263 . S
O513 Co510 1.970 . S
O513 C512 1.258 . S
O514 Co511 1.966 . S
O514 C512 1.263 . S
C515 O516 1.235 . S
C515 O542 1.289 . S
O516 C515 1.235 . S
C517 C519 1.400 . S
C517 N520 1.351 . S
C517 C522 1.501 . S
C518 C519 1.387 . S
C518 N521 1.341 . S
C519 C517 1.400 . S
C519 C518 1.387 . S
N520 Co511 2.022 . S
N520 C517 1.351 . S
N520 N521 1.365 . S
N521 C518 1.341 . S
N521 N520 1.365 . S
N521 H541 0.862 . S
C522 C517 1.501 . S
C522 H523 0.961 . S
C522 H524 0.961 . S
C522 H525 0.960 . S
H523 C522 0.961 . S
H524 C522 0.961 . S
H525 C522 0.960 . S
C526 N527 1.342 . S
C526 C530 1.401 . S
C526 C531 1.499 . S
N527 Co510 1.989 . S
N527 C526 1.342 . S
N527 N528 1.388 . S
N528 Co511 1.993 . S
N528 N527 1.388 . S
N528 C529 1.346 . S
C529 N528 1.346 . S
C529 C530 1.396 . S
C529 C539 1.510 . S
C530 C526 1.401 . S
C530 C529 1.396 . S
C531 C526 1.499 . S
C531 H532 0.959 . S
C531 H533 0.960 . S
C531 H534 0.961 . S
H532 C531 0.959 . S
H533 C531 0.960 . S
H534 C531 0.961 . S
O535 Co510 1.967 . S
O535 C543 1.258 . S
O536 Co511 1.941 . S
O536 C543 1.266 . S
H537 C539 0.959 . S
H538 C539 0.961 . S
C539 C529 1.510 . S
C539 H537 0.959 . S
C539 H538 0.961 . S
C539 H540 0.960 . S
H540 C539 0.960 . S
H541 N521 0.862 . S
O542 Co510 1.920 . S
O542 C515 1.289 . S
C543 O535 1.258 . S
C543 O536 1.266 . S
C544 C545 1.387 . S
C544 H548 0.950 . S
C544 C553 1.390 1_556 S
C545 C544 1.387 . S
C545 C547 1.387 1_455 S
H546 C553 0.950 . S
C547 C545 1.387 1_655 S
C547 C549 1.390 1_556 S
C547 H551 0.950 . S
H548 C544 0.950 . S
C549 C547 1.390 1_554 S
C549 C550 1.387 1_655 S
C549 H552 0.950 . S
C550 C549 1.387 1_455 S
C550 C553 1.387 . S
H551 C547 0.950 . S
H552 C549 0.950 . S
C553 C544 1.390 1_554 S
C553 H546 0.950 . S
C553 C550 1.387 . S
C554 C555 1.387 . S
C554 H558 0.950 . S
C554 C563 1.390 . S
C555 C554 1.387 . S
C555 C557 1.387 1_545 S
H556 C563 0.950 . S
C557 C555 1.387 1_565 S
C557 C559 1.390 . S
C557 H561 0.950 . S
H558 C554 0.950 . S
C559 C557 1.390 . S
C559 C560 1.387 1_565 S
C559 H562 0.950 . S
C560 C559 1.387 1_545 S
C560 C563 1.387 . S
H561 C557 0.950 . S
H562 C559 0.950 . S
C563 C554 1.390 . S
C563 H556 0.950 . S
C563 C560 1.387 . S
C564 C565 1.387 . S
C564 H568 0.950 . S
C564 C573 1.390 1_554 S
C565 C564 1.387 . S
C565 C567 1.387 . S
H566 C573 0.950 . S
C567 C565 1.387 . S
C567 C569 1.390 1_554 S
C567 H571 0.950 . S
H568 C564 0.950 . S
C569 C567 1.390 1_556 S
C569 C570 1.387 . S
C569 H572 0.950 . S
C570 C569 1.387 . S
C570 C573 1.387 . S
H571 C567 0.950 . S
H572 C569 0.950 . S
C573 C564 1.390 1_556 S
C573 H566 0.950 . S
C573 C570 1.387 . S
C574 C575 1.387 . S
C574 H578 0.950 . S
C574 C583 1.390 . S
C575 C574 1.387 . S
C575 C577 1.387 . S
H576 C583 0.950 . S
C577 C575 1.387 . S
C577 C579 1.390 . S
C577 H581 0.950 . S
H578 C574 0.950 . S
C579 C577 1.390 . S
C579 C580 1.387 . S
C579 H582 0.950 . S
C580 C579 1.387 . S
C580 C583 1.387 . S
H581 C577 0.950 . S
H582 C579 0.950 . S
C583 C574 1.390 . S
C583 H576 0.950 . S
C583 C580 1.387 . S
C584 C585 1.387 . S
C584 H588 0.950 . S
C584 C593 1.390 1_554 S
C585 C584 1.387 . S
C585 C587 1.387 1_655 S
H586 C593 0.950 . S
C587 C585 1.387 1_455 S
C587 C589 1.390 1_554 S
C587 H591 0.950 . S
H588 C584 0.950 . S
C589 C587 1.390 1_556 S
C589 C590 1.387 1_455 S
C589 H592 0.950 . S
C590 C589 1.387 1_655 S
C590 C593 1.387 . S
H591 C587 0.950 . S
H592 C589 0.950 . S
C593 C584 1.390 1_556 S
C593 H586 0.950 . S
C593 C590 1.387 . S
C594 C595 1.387 . S
C594 H598 0.950 . S
C594 C603 1.390 . S
C595 C594 1.387 . S
C595 C597 1.387 1_565 S
H596 C603 0.950 . S
C597 C595 1.387 1_545 S
C597 C599 1.390 . S
C597 H601 0.950 . S
H598 C594 0.950 . S
C599 C597 1.390 . S
C599 C600 1.387 1_545 S
C599 H602 0.950 . S
C600 C599 1.387 1_565 S
C600 C603 1.387 . S
H601 C597 0.950 . S
H602 C599 0.950 . S
C603 C594 1.390 . S
C603 H596 0.950 . S
C603 C600 1.387 . S
C604 C605 1.387 . S
C604 H608 0.950 . S
C604 C613 1.390 1_556 S
C605 C604 1.387 . S
C605 C607 1.387 . S
H606 C613 0.950 . S
C607 C605 1.387 . S
C607 C609 1.390 1_556 S
C607 H611 0.950 . S
H608 C604 0.950 . S
C609 C607 1.390 1_554 S
C609 C610 1.387 . S
C609 H612 0.950 . S
C610 C609 1.387 . S
C610 C613 1.387 . S
H611 C607 0.950 . S
H612 C609 0.950 . S
C613 C604 1.390 1_554 S
C613 H606 0.950 . S
C613 C610 1.387 . S
C614 C615 1.387 . S
C614 H618 0.950 . S
C614 C623 1.390 . S
C615 C614 1.387 . S
C615 C617 1.387 . S
H616 C623 0.950 . S
C617 C615 1.387 . S
C617 C619 1.390 . S
C617 H621 0.950 . S
H618 C614 0.950 . S
C619 C617 1.390 . S
C619 C620 1.387 . S
C619 H622 0.950 . S
C620 C619 1.387 . S
C620 C623 1.387 . S
H621 C617 0.950 . S
H622 C619 0.950 . S
C623 C614 1.390 . S
C623 H616 0.950 . S
C623 C620 1.387 . S
C624 C625 1.387 . S
C624 H628 0.950 . S
C624 C633 1.390 . S
C625 C624 1.387 . S
C625 C627 1.387 1_455 S
H626 C633 0.950 . S
C627 C625 1.387 1_655 S
C627 C629 1.390 . S
C627 H631 0.950 . S
H628 C624 0.950 . S
C629 C627 1.390 . S
C629 C630 1.387 . S
C629 H632 0.950 . S
C630 C629 1.387 . S
C630 C633 1.387 1_655 S
H631 C627 0.950 . S
H632 C629 0.950 . S
C633 C624 1.390 . S
C633 H626 0.950 . S
C633 C630 1.387 1_455 S
C634 C635 1.387 . S
C634 H638 0.950 . S
C634 C643 1.390 . S
C635 C634 1.387 . S
C635 C637 1.387 1_545 S
H636 C643 0.950 . S
C637 C635 1.387 1_565 S
C637 C639 1.390 . S
C637 H641 0.950 . S
H638 C634 0.950 . S
C639 C637 1.390 . S
C639 C640 1.387 . S
C639 H642 0.950 . S
C640 C639 1.387 . S
C640 C643 1.387 1_565 S
H641 C637 0.950 . S
H642 C639 0.950 . S
C643 C634 1.390 . S
C643 H636 0.950 . S
C643 C640 1.387 1_545 S
C644 C645 1.387 . S
C644 H648 0.950 . S
C644 C653 1.390 . S
C645 C644 1.387 . S
C645 C647 1.387 . S
H646 C653 0.950 . S
C647 C645 1.387 . S
C647 C649 1.390 . S
C647 H651 0.950 . S
H648 C644 0.950 . S
C649 C647 1.390 . S
C649 C650 1.387 . S
C649 H652 0.950 . S
C650 C649 1.387 . S
C650 C653 1.387 . S
H651 C647 0.950 . S
H652 C649 0.950 . S
C653 C644 1.390 . S
C653 H646 0.950 . S
C653 C650 1.387 . S
C654 C655 1.387 . S
C654 H658 0.950 . S
C654 C663 1.390 . S
C655 C654 1.387 . S
C655 C657 1.387 . S
H656 C663 0.950 . S
C657 C655 1.387 . S
C657 C659 1.390 . S
C657 H661 0.950 . S
H658 C654 0.950 . S
C659 C657 1.390 . S
C659 C660 1.387 . S
C659 H662 0.950 . S
C660 C659 1.387 . S
C660 C663 1.387 . S
H661 C657 0.950 . S
H662 C659 0.950 . S
C663 C654 1.390 . S
C663 H656 0.950 . S
C663 C660 1.387 . S
C664 C665 1.387 . S
C664 H668 0.950 . S
C664 C673 1.390 . S
C665 C664 1.387 . S
C665 C667 1.387 1_655 S
H666 C673 0.950 . S
C667 C665 1.387 1_455 S
C667 C669 1.390 . S
C667 H671 0.950 . S
H668 C664 0.950 . S
C669 C667 1.390 . S
C669 C670 1.387 . S
C669 H672 0.950 . S
C670 C669 1.387 . S
C670 C673 1.387 1_455 S
H671 C667 0.950 . S
H672 C669 0.950 . S
C673 C664 1.390 . S
C673 H666 0.950 . S
C673 C670 1.387 1_655 S
C674 C675 1.387 1_545 S
C674 H678 0.950 . S
C674 C683 1.390 . S
C675 C674 1.387 1_565 S
C675 C677 1.387 . S
H676 C683 0.950 . S
C677 C675 1.387 . S
C677 C679 1.390 . S
C677 H681 0.950 . S
H678 C674 0.950 . S
C679 C677 1.390 . S
C679 C680 1.387 1_565 S
C679 H682 0.950 . S
C680 C679 1.387 1_545 S
C680 C683 1.387 . S
H681 C677 0.950 . S
H682 C679 0.950 . S
C683 C674 1.390 . S
C683 H676 0.950 . S
C683 C680 1.387 . S
C684 C685 1.387 . S
C684 H688 0.950 . S
C684 C693 1.390 . S
C685 C684 1.387 . S
C685 C687 1.387 . S
H686 C693 0.950 . S
C687 C685 1.387 . S
C687 C689 1.390 . S
C687 H691 0.950 . S
H688 C684 0.950 . S
C689 C687 1.390 . S
C689 C690 1.387 . S
C689 H692 0.950 . S
C690 C689 1.387 . S
C690 C693 1.387 . S
H691 C687 0.950 . S
H692 C689 0.950 . S
C693 C684 1.390 . S
C693 H686 0.950 . S
C693 C690 1.387 . S
C694 C695 1.387 . S
C694 H698 0.950 . S
C694 C703 1.390 . S
C695 C694 1.387 . S
C695 C697 1.387 . S
H696 C703 0.950 . S
C697 C695 1.387 . S
C697 C699 1.390 . S
C697 H701 0.950 . S
H698 C694 0.950 . S
C699 C697 1.390 . S
C699 C700 1.387 . S
C699 H702 0.950 . S
C700 C699 1.387 . S
C700 C703 1.387 . S
H701 C697 0.950 . S
H702 C699 0.950 . S
C703 C694 1.390 . S
C703 H696 0.950 . S
C703 C700 1.387 . S
C704 C705 1.387 1_455 S
C704 H708 0.950 . S
C704 C713 1.390 . S
C705 C704 1.387 1_655 S
C705 C707 1.387 . S
H706 C713 0.950 . S
C707 C705 1.387 . S
C707 C709 1.390 . S
C707 H711 0.950 . S
H708 C704 0.950 . S
C709 C707 1.390 . S
C709 C710 1.387 1_655 S
C709 H712 0.950 . S
C710 C709 1.387 1_455 S
C710 C713 1.387 . S
H711 C707 0.950 . S
H712 C709 0.950 . S
C713 C704 1.390 . S
C713 H706 0.950 . S
C713 C710 1.387 . S
C714 C715 1.387 1_545 S
C714 H718 0.950 . S
C714 C723 1.390 . S
C715 C714 1.387 1_565 S
C715 C717 1.387 . S
H716 C723 0.950 . S
C717 C715 1.387 . S
C717 C719 1.390 . S
C717 H721 0.950 . S
H718 C714 0.950 . S
C719 C717 1.390 . S
C719 C720 1.387 1_565 S
C719 H722 0.950 . S
C720 C719 1.387 1_545 S
C720 C723 1.387 . S
H721 C717 0.950 . S
H722 C719 0.950 . S
C723 C714 1.390 . S
C723 H716 0.950 . S
C723 C720 1.387 . S
C724 C725 1.387 . S
C724 H728 0.950 . S
C724 C733 1.390 . S
C725 C724 1.387 . S
C725 C727 1.387 . S
H726 C733 0.950 . S
C727 C725 1.387 . S
C727 C729 1.390 . S
C727 H731 0.950 . S
H728 C724 0.950 . S
C729 C727 1.390 . S
C729 C730 1.387 . S
C729 H732 0.950 . S
C730 C729 1.387 . S
C730 C733 1.387 . S
H731 C727 0.950 . S
H732 C729 0.950 . S
C733 C724 1.390 . S
C733 H726 0.950 . S
C733 C730 1.387 . S
C734 C735 1.387 . S
C734 H738 0.950 . S
C734 C743 1.390 . S
C735 C734 1.387 . S
C735 C737 1.387 . S
H736 C743 0.950 . S
C737 C735 1.387 . S
C737 C739 1.390 . S
C737 H741 0.950 . S
H738 C734 0.950 . S
C739 C737 1.390 . S
C739 C740 1.387 . S
C739 H742 0.950 . S
C740 C739 1.387 . S
C740 C743 1.387 . S
H741 C737 0.950 . S
H742 C739 0.950 . S
C743 C734 1.390 . S
C743 H736 0.950 . S
C743 C740 1.387 . S
C744 C745 1.387 1_455 S
C744 H748 0.950 . S
C744 C753 1.390 . S
C745 C744 1.387 1_655 S
C745 C747 1.387 . S
H746 C753 0.950 . S
C747 C745 1.387 . S
C747 C749 1.390 . S
C747 H751 0.950 . S
H748 C744 0.950 . S
C749 C747 1.390 . S
C749 C750 1.387 1_655 S
C749 H752 0.950 . S
C750 C749 1.387 1_455 S
C750 C753 1.387 . S
H751 C747 0.950 . S
H752 C749 0.950 . S
C753 C744 1.390 . S
C753 H746 0.950 . S
C753 C750 1.387 . S
C754 C755 1.387 . S
C754 H758 0.950 . S
C754 C763 1.390 . S
C755 C754 1.387 . S
C755 C757 1.387 1_565 S
H756 C763 0.950 . S
C757 C755 1.387 1_545 S
C757 C759 1.390 . S
C757 H761 0.950 . S
H758 C754 0.950 . S
C759 C757 1.390 . S
C759 C760 1.387 . S
C759 H762 0.950 . S
C760 C759 1.387 . S
C760 C763 1.387 1_545 S
H761 C757 0.950 . S
H762 C759 0.950 . S
C763 C754 1.390 . S
C763 H756 0.950 . S
C763 C760 1.387 1_565 S
C764 C765 1.387 . S
C764 H768 0.950 . S
C764 C773 1.390 . S
C765 C764 1.387 . S
C765 C767 1.387 . S
H766 C773 0.950 . S
C767 C765 1.387 . S
C767 C769 1.390 . S
C767 H771 0.950 . S
H768 C764 0.950 . S
C769 C767 1.390 . S
C769 C770 1.387 . S
C769 H772 0.950 . S
C770 C769 1.387 . S
C770 C773 1.387 . S
H771 C767 0.950 . S
H772 C769 0.950 . S
C773 C764 1.390 . S
C773 H766 0.950 . S
C773 C770 1.387 . S
C774 C775 1.387 . S
C774 H778 0.950 . S
C774 C783 1.390 . S
C775 C774 1.387 . S
C775 C777 1.387 . S
H776 C783 0.950 . S
C777 C775 1.387 . S
C777 C779 1.390 . S
C777 H781 0.950 . S
H778 C774 0.950 . S
C779 C777 1.390 . S
C779 C780 1.387 . S
C779 H782 0.950 . S
C780 C779 1.387 . S
C780 C783 1.387 . S
H781 C777 0.950 . S
H782 C779 0.950 . S
C783 C774 1.390 . S
C783 H776 0.950 . S
C783 C780 1.387 . S
C784 C785 1.387 . S
C784 H788 0.950 . S
C784 C793 1.390 . S
C785 C784 1.387 . S
C785 C787 1.387 . S
H786 C793 0.950 . S
C787 C785 1.387 . S
C787 C789 1.390 . S
C787 H791 0.950 . S
H788 C784 0.950 . S
C789 C787 1.390 . S
C789 C790 1.387 . S
C789 H792 0.950 . S
C790 C789 1.387 . S
C790 C793 1.387 . S
H791 C787 0.950 . S
H792 C789 0.950 . S
C793 C784 1.390 . S
C793 H786 0.950 . S
C793 C790 1.387 . S
C794 C795 1.387 . S
C794 H798 0.950 1_545 S
C794 C803 1.390 . S
C795 C794 1.387 . S
C795 C797 1.387 . S
H796 C803 0.950 . S
C797 C795 1.387 . S
C797 C799 1.390 . S
C797 H801 0.950 . S
H798 C794 0.950 1_565 S
C799 C797 1.390 . S
C799 C800 1.387 . S
C799 H802 0.950 . S
C800 C799 1.387 . S
C800 C803 1.387 . S
H801 C797 0.950 . S
H802 C799 0.950 . S
C803 C794 1.390 . S
C803 H796 0.950 . S
C803 C800 1.387 . S
C804 C805 1.387 . S
C804 H808 0.950 . S
C804 C813 1.390 . S
C805 C804 1.387 . S
C805 C807 1.387 . S
H806 C813 0.950 . S
C807 C805 1.387 . S
C807 C809 1.390 . S
C807 H811 0.950 . S
H808 C804 0.950 . S
C809 C807 1.390 . S
C809 C810 1.387 . S
C809 H812 0.950 . S
C810 C809 1.387 . S
C810 C813 1.387 . S
H811 C807 0.950 . S
H812 C809 0.950 . S
C813 C804 1.390 . S
C813 H806 0.950 . S
C813 C810 1.387 . S
C814 C815 1.387 . S
C814 H818 0.950 . S
C814 C823 1.390 . S
C815 C814 1.387 . S
C815 C817 1.387 . S
H816 C823 0.950 . S
C817 C815 1.387 . S
C817 C819 1.390 . S
C817 H821 0.950 . S
H818 C814 0.950 . S
C819 C817 1.390 . S
C819 C820 1.387 . S
C819 H822 0.950 . S
C820 C819 1.387 . S
C820 C823 1.387 . S
H821 C817 0.950 . S
H822 C819 0.950 . S
C823 C814 1.390 . S
C823 H816 0.950 . S
C823 C820 1.387 . S
C824 C825 1.387 . S
C824 H828 0.950 . S
C824 C833 1.390 . S
C825 C824 1.387 . S
C825 C827 1.387 . S
H826 C833 0.950 . S
C827 C825 1.387 . S
C827 C829 1.390 . S
C827 H831 0.950 . S
H828 C824 0.950 . S
C829 C827 1.390 . S
C829 C830 1.387 . S
C829 H832 0.950 . S
C830 C829 1.387 . S
C830 C833 1.387 . S
H831 C827 0.950 . S
H832 C829 0.950 . S
C833 C824 1.390 . S
C833 H826 0.950 . S
C833 C830 1.387 . S
C834 C835 1.387 . S
C834 H838 0.950 . S
C834 C843 1.390 . S
C835 C834 1.387 . S
C835 C837 1.387 . S
H836 C843 0.950 1_545 S
C837 C835 1.387 . S
C837 C839 1.390 . S
C837 H841 0.950 . S
H838 C834 0.950 . S
C839 C837 1.390 . S
C839 C840 1.387 . S
C839 H842 0.950 . S
C840 C839 1.387 . S
C840 C843 1.387 . S
H841 C837 0.950 . S
H842 C839 0.950 . S
C843 C834 1.390 . S
C843 H836 0.950 1_565 S
C843 C840 1.387 . S
C844 C845 1.387 . S
C844 H848 0.950 . S
C844 C853 1.390 . S
C845 C844 1.387 . S
C845 C847 1.387 . S
H846 C853 0.950 1_545 S
C847 C845 1.387 . S
C847 C849 1.390 . S
C847 H851 0.950 . S
H848 C844 0.950 . S
C849 C847 1.390 . S
C849 C850 1.387 . S
C849 H852 0.950 . S
C850 C849 1.387 . S
C850 C853 1.387 . S
H851 C847 0.950 . S
H852 C849 0.950 . S
C853 C844 1.390 . S
C853 H846 0.950 1_565 S
C853 C850 1.387 . S
C854 C855 1.387 . S
C854 H858 0.950 . S
C854 C863 1.390 . S
C855 C854 1.387 . S
C855 C857 1.387 . S
H856 C863 0.950 . S
C857 C855 1.387 . S
C857 C859 1.390 . S
C857 H861 0.950 . S
H858 C854 0.950 . S
C859 C857 1.390 . S
C859 C860 1.387 . S
C859 H862 0.950 . S
C860 C859 1.387 . S
C860 C863 1.387 . S
H861 C857 0.950 . S
H862 C859 0.950 . S
C863 C854 1.390 . S
C863 H856 0.950 . S
C863 C860 1.387 . S
C864 C865 1.387 . S
C864 H868 0.950 . S
C864 C873 1.390 . S
C865 C864 1.387 . S
C865 C867 1.387 . S
H866 C873 0.950 . S
C867 C865 1.387 . S
C867 C869 1.390 . S
C867 H871 0.950 . S
H868 C864 0.950 . S
C869 C867 1.390 . S
C869 C870 1.387 . S
C869 H872 0.950 . S
C870 C869 1.387 . S
C870 C873 1.387 . S
H871 C867 0.950 . S
H872 C869 0.950 . S
C873 C864 1.390 . S
C873 H866 0.950 . S
C873 C870 1.387 . S
C874 C875 1.387 . S
C874 H878 0.950 . S
C874 C883 1.390 . S
C875 C874 1.387 . S
C875 C877 1.387 . S
H876 C883 0.950 . S
C877 C875 1.387 . S
C877 C879 1.390 . S
C877 H881 0.950 . S
H878 C874 0.950 . S
C879 C877 1.390 . S
C879 C880 1.387 . S
C879 H882 0.950 . S
C880 C879 1.387 . S
C880 C883 1.387 . S
H881 C877 0.950 . S
H882 C879 0.950 . S
C883 C874 1.390 . S
C883 H876 0.950 . S
C883 C880 1.387 . S
C884 C885 1.387 . S
C884 H888 0.950 . S
C884 C893 1.390 . S
C885 C884 1.387 . S
C885 C887 1.387 . S
H886 C893 0.950 . S
C887 C885 1.387 . S
C887 C889 1.390 . S
C887 H891 0.950 . S
H888 C884 0.950 . S
C889 C887 1.390 . S
C889 C890 1.387 . S
C889 H892 0.950 . S
C890 C889 1.387 . S
C890 C893 1.387 . S
H891 C887 0.950 . S
H892 C889 0.950 . S
C893 C884 1.390 . S
C893 H886 0.950 . S
C893 C890 1.387 . S
C894 C895 1.387 . S
C894 H898 0.950 . S
C894 C903 1.390 . S
C895 C894 1.387 . S
C895 C897 1.387 . S
H896 C903 0.950 . S
C897 C895 1.387 . S
C897 C899 1.390 . S
C897 H901 0.950 . S
H898 C894 0.950 . S
C899 C897 1.390 . S
C899 C900 1.387 . S
C899 H902 0.950 . S
C900 C899 1.387 . S
C900 C903 1.387 . S
H901 C897 0.950 . S
H902 C899 0.950 . S
C903 C894 1.390 . S
C903 H896 0.950 . S
C903 C900 1.387 . S
C904 C905 1.387 . S
C904 H908 0.950 . S
C904 C913 1.390 . S
C905 C904 1.387 . S
C905 C907 1.387 . S
H906 C913 0.950 . S
C907 C905 1.387 . S
C907 C909 1.390 . S
C907 H911 0.950 . S
H908 C904 0.950 . S
C909 C907 1.390 . S
C909 C910 1.387 . S
C909 H912 0.950 . S
C910 C909 1.387 . S
C910 C913 1.387 . S
H911 C907 0.950 . S
H912 C909 0.950 . S
C913 C904 1.390 . S
C913 H906 0.950 . S
C913 C910 1.387 . S
C914 C915 1.387 . S
C914 H918 0.950 . S
C914 C923 1.390 . S
C915 C914 1.387 . S
C915 C917 1.387 . S
H916 C923 0.950 . S
C917 C915 1.387 . S
C917 C919 1.390 . S
C917 H921 0.950 . S
H918 C914 0.950 . S
C919 C917 1.390 . S
C919 C920 1.387 . S
C919 H922 0.950 . S
C920 C919 1.387 . S
C920 C923 1.387 . S
H921 C917 0.950 . S
H922 C919 0.950 . S
C923 C914 1.390 . S
C923 H916 0.950 . S
C923 C920 1.387 . S
C924 C925 1.387 . S
C924 H928 0.950 . S
C924 C933 1.390 . S
C925 C924 1.387 . S
C925 C927 1.387 . S
H926 C933 0.950 . S
C927 C925 1.387 . S
C927 C929 1.390 . S
C927 H931 0.950 . S
H928 C924 0.950 . S
C929 C927 1.390 . S
C929 C930 1.387 . S
C929 H932 0.950 . S
C930 C929 1.387 . S
C930 C933 1.387 . S
H931 C927 0.950 . S
H932 C929 0.950 . S
C933 C924 1.390 . S
C933 H926 0.950 . S
C933 C930 1.387 . S
C934 C935 1.387 . S
C934 H938 0.950 . S
C934 C943 1.390 . S
C935 C934 1.387 . S
C935 C937 1.387 . S
H936 C943 0.950 . S
C937 C935 1.387 . S
C937 C939 1.390 . S
C937 H941 0.950 . S
H938 C934 0.950 . S
C939 C937 1.390 . S
C939 C940 1.387 . S
C939 H942 0.950 . S
C940 C939 1.387 . S
C940 C943 1.387 . S
H941 C937 0.950 . S
H942 C939 0.950 . S
C943 C934 1.390 . S
C943 H936 0.950 . S
C943 C940 1.387 . S
C545 C141 1.615 . S
C550 C5 1.615 . S
C555 C175 1.615 . S
C560 C39 1.615 . S
C565 C73 1.613 . S
C570 C209 1.613 . S
C575 C243 1.613 . S
C580 C107 1.613 . S
C585 C413 1.613 . S
C590 C277 1.613 . S
C595 C311 1.613 . S
C600 C447 1.613 . S
C605 C345 1.615 . S
C610 C481 1.615 . S
C615 C379 1.613 . S
C620 C515 1.613 . S
C625 C2 1.429 . S
C630 C428 1.454 1_545 S
C635 C36 1.428 . S
C640 C462 1.453 . S
C645 C496 1.453 . S
C650 C70 1.428 . S
C655 C104 1.430 . S
C660 C530 1.454 1_455 S
C665 C292 1.454 . S
C670 C138 1.430 . S
C675 C326 1.453 1_455 S
C680 C172 1.429 . S
C685 C206 1.429 . S
C690 C360 1.454 1_545 S
C695 C394 1.454 . S
C700 C240 1.429 . S
C705 C274 1.429 . S
C710 C156 1.454 1_565 S
C715 C308 1.428 . S
C720 C190 1.453 . S
C725 C224 1.453 . S
C730 C342 1.428 . S
C735 C376 1.429 . S
C740 C258 1.454 1_655 S
C745 C410 1.429 . S
C750 C20 1.453 . S
C755 C444 1.430 . S
C760 C54 1.455 1_655 S
C765 C478 1.429 . S
C770 C88 1.454 1_565 S
C775 C122 1.454 . S
C780 C512 1.429 . S
C785 C247 1.650 . S
C790 C9 1.648 . S
C795 C43 1.650 . S
C800 C145 1.648 . S
C805 C179 1.652 . S
C810 C77 1.649 . S
C815 C213 1.647 . S
C820 C111 1.649 . S
C825 C281 1.648 . S
C830 C519 1.649 . S
C835 C417 1.652 . S
C840 C315 1.650 . S
C845 C349 1.652 . S
C850 C451 1.652 . S
C855 C485 1.652 . S
C860 C383 1.651 . S
C865 C101 0.468 . S
C870 C33 0.468 . S
C875 C135 0.468 . S
C880 C67 0.468 . S
C885 C169 0.468 . S
C890 C237 0.468 . S
C895 C271 0.475 . S
C900 C203 0.475 . S
C905 C305 0.468 . S
C910 C373 0.468 . S
C915 C407 0.475 . S
C920 C339 0.475 . S
C925 C441 0.468 . S
C930 C509 0.468 . S
C935 C475 0.468 . S
C940 C543 0.468 . S
