# Generated by pormake.
# Topology wfx, (7)-cn, num edge types: 1
# Building blocks:
#     Node 0, Type 0, BuildingBlock: HICVOG_clean_sbu_0, # of connection points: 7
#     Node 1, Type 0, BuildingBlock: HICVOG_clean_sbu_0, # of connection points: 7
#     Node 2, Type 0, BuildingBlock: HICVOG_clean_sbu_0, # of connection points: 7
#     Node 3, Type 0, BuildingBlock: HICVOG_clean_sbu_0, # of connection points: 7
#     Node 4, Type 0, BuildingBlock: HICVOG_clean_sbu_0, # of connection points: 7
#     Node 5, Type 0, BuildingBlock: HICVOG_clean_sbu_0, # of connection points: 7
#     Node 6, Type 0, BuildingBlock: HICVOG_clean_sbu_0, # of connection points: 7
#     Node 7, Type 0, BuildingBlock: HICVOG_clean_sbu_0, # of connection points: 7
#     Node 8, Type 0, BuildingBlock: HICVOG_clean_sbu_0, # of connection points: 7
#     Node 9, Type 0, BuildingBlock: HICVOG_clean_sbu_0, # of connection points: 7
#     Node 10, Type 0, BuildingBlock: HICVOG_clean_sbu_0, # of connection points: 7
#     Node 11, Type 0, BuildingBlock: HICVOG_clean_sbu_0, # of connection points: 7
#     Node 12, Type 0, BuildingBlock: HICVOG_clean_sbu_0, # of connection points: 7
#     Node 13, Type 0, BuildingBlock: HICVOG_clean_sbu_0, # of connection points: 7
#     Node 14, Type 0, BuildingBlock: HICVOG_clean_sbu_0, # of connection points: 7
#     Node 15, Type 0, BuildingBlock: HICVOG_clean_sbu_0, # of connection points: 7
#     Edge 16, Type (0, 0), BuildingBlock: AJUNOK_clean_linker_0, # of connection points: 2
#     Edge 17, Type (0, 0), BuildingBlock: AJUNOK_clean_linker_0, # of connection points: 2
#     Edge 18, Type (0, 0), BuildingBlock: AJUNOK_clean_linker_0, # of connection points: 2
#     Edge 19, Type (0, 0), BuildingBlock: AJUNOK_clean_linker_0, # of connection points: 2
#     Edge 20, Type (0, 0), BuildingBlock: AJUNOK_clean_linker_0, # of connection points: 2
#     Edge 21, Type (0, 0), BuildingBlock: AJUNOK_clean_linker_0, # of connection points: 2
#     Edge 22, Type (0, 0), BuildingBlock: AJUNOK_clean_linker_0, # of connection points: 2
#     Edge 23, Type (0, 0), BuildingBlock: AJUNOK_clean_linker_0, # of connection points: 2
#     Edge 24, Type (0, 0), BuildingBlock: AJUNOK_clean_linker_0, # of connection points: 2
#     Edge 25, Type (0, 0), BuildingBlock: AJUNOK_clean_linker_0, # of connection points: 2
#     Edge 26, Type (0, 0), BuildingBlock: AJUNOK_clean_linker_0, # of connection points: 2
#     Edge 27, Type (0, 0), BuildingBlock: AJUNOK_clean_linker_0, # of connection points: 2
#     Edge 28, Type (0, 0), BuildingBlock: AJUNOK_clean_linker_0, # of connection points: 2
#     Edge 29, Type (0, 0), BuildingBlock: AJUNOK_clean_linker_0, # of connection points: 2
#     Edge 30, Type (0, 0), BuildingBlock: AJUNOK_clean_linker_0, # of connection points: 2
#     Edge 31, Type (0, 0), BuildingBlock: AJUNOK_clean_linker_0, # of connection points: 2
#     Edge 32, Type (0, 0), BuildingBlock: AJUNOK_clean_linker_0, # of connection points: 2
#     Edge 33, Type (0, 0), BuildingBlock: AJUNOK_clean_linker_0, # of connection points: 2
#     Edge 34, Type (0, 0), BuildingBlock: AJUNOK_clean_linker_0, # of connection points: 2
#     Edge 35, Type (0, 0), BuildingBlock: AJUNOK_clean_linker_0, # of connection points: 2
#     Edge 36, Type (0, 0), BuildingBlock: AJUNOK_clean_linker_0, # of connection points: 2
#     Edge 37, Type (0, 0), BuildingBlock: AJUNOK_clean_linker_0, # of connection points: 2
#     Edge 38, Type (0, 0), BuildingBlock: AJUNOK_clean_linker_0, # of connection points: 2
#     Edge 39, Type (0, 0), BuildingBlock: AJUNOK_clean_linker_0, # of connection points: 2
#     Edge 40, Type (0, 0), BuildingBlock: AJUNOK_clean_linker_0, # of connection points: 2
#     Edge 41, Type (0, 0), BuildingBlock: AJUNOK_clean_linker_0, # of connection points: 2
#     Edge 42, Type (0, 0), BuildingBlock: AJUNOK_clean_linker_0, # of connection points: 2
#     Edge 43, Type (0, 0), BuildingBlock: AJUNOK_clean_linker_0, # of connection points: 2
#     Edge 44, Type (0, 0), BuildingBlock: AJUNOK_clean_linker_0, # of connection points: 2
#     Edge 45, Type (0, 0), BuildingBlock: AJUNOK_clean_linker_0, # of connection points: 2
#     Edge 46, Type (0, 0), BuildingBlock: AJUNOK_clean_linker_0, # of connection points: 2
#     Edge 47, Type (0, 0), BuildingBlock: AJUNOK_clean_linker_0, # of connection points: 2
#     Edge 48, Type (0, 0), BuildingBlock: AJUNOK_clean_linker_0, # of connection points: 2
#     Edge 49, Type (0, 0), BuildingBlock: AJUNOK_clean_linker_0, # of connection points: 2
#     Edge 50, Type (0, 0), BuildingBlock: AJUNOK_clean_linker_0, # of connection points: 2
#     Edge 51, Type (0, 0), BuildingBlock: AJUNOK_clean_linker_0, # of connection points: 2
#     Edge 52, Type (0, 0), BuildingBlock: AJUNOK_clean_linker_0, # of connection points: 2
#     Edge 53, Type (0, 0), BuildingBlock: AJUNOK_clean_linker_0, # of connection points: 2
#     Edge 54, Type (0, 0), BuildingBlock: AJUNOK_clean_linker_0, # of connection points: 2
#     Edge 55, Type (0, 0), BuildingBlock: AJUNOK_clean_linker_0, # of connection points: 2
#     Edge 56, Type (0, 0), BuildingBlock: AJUNOK_clean_linker_0, # of connection points: 2
#     Edge 57, Type (0, 0), BuildingBlock: AJUNOK_clean_linker_0, # of connection points: 2
#     Edge 58, Type (0, 0), BuildingBlock: AJUNOK_clean_linker_0, # of connection points: 2
#     Edge 59, Type (0, 0), BuildingBlock: AJUNOK_clean_linker_0, # of connection points: 2
#     Edge 60, Type (0, 0), BuildingBlock: AJUNOK_clean_linker_0, # of connection points: 2
#     Edge 61, Type (0, 0), BuildingBlock: AJUNOK_clean_linker_0, # of connection points: 2
#     Edge 62, Type (0, 0), BuildingBlock: AJUNOK_clean_linker_0, # of connection points: 2
#     Edge 63, Type (0, 0), BuildingBlock: AJUNOK_clean_linker_0, # of connection points: 2
#     Edge 64, Type (0, 0), BuildingBlock: AJUNOK_clean_linker_0, # of connection points: 2
#     Edge 65, Type (0, 0), BuildingBlock: AJUNOK_clean_linker_0, # of connection points: 2
#     Edge 66, Type (0, 0), BuildingBlock: AJUNOK_clean_linker_0, # of connection points: 2
#     Edge 67, Type (0, 0), BuildingBlock: AJUNOK_clean_linker_0, # of connection points: 2
#     Edge 68, Type (0, 0), BuildingBlock: AJUNOK_clean_linker_0, # of connection points: 2
#     Edge 69, Type (0, 0), BuildingBlock: AJUNOK_clean_linker_0, # of connection points: 2
#     Edge 70, Type (0, 0), BuildingBlock: AJUNOK_clean_linker_0, # of connection points: 2
#     Edge 71, Type (0, 0), BuildingBlock: AJUNOK_clean_linker_0, # of connection points: 2
# Relax obj value: 0.401
# Max RMSD: 0.261
# Mean RMSD: 0.261
data_MOF--net-wfx--node1-HICVOG_clean_sbu_0--edge1-AJUNOK_clean_linker_0
_symmetry_space_group_name_H-M    P1
_symmetry_Int_Tables_number       1
_symmetry_cell_setting            triclinic
loop_
_symmetry_equiv_pos_as_xyz
'x, y, z'
_cell_length_a     24.864175
_cell_length_b     24.732245
_cell_length_c     50.413973
_cell_angle_alpha  90.201908
_cell_angle_beta   90.122394
_cell_angle_gamma 89.878394
loop_
_atom_site_label
_atom_site_type_symbol
_atom_site_fract_x
_atom_site_fract_y
_atom_site_fract_z
_atom_type_partial_charge
Zn0 Zn 0.64018 0.12408 0.07337 0.0
C1 C 0.60747 0.98896 0.11565 0.0
N2 N 0.57336 0.98003 0.09529 0.0
C3 C 0.57834 1.02385 0.08007 0.0
N4 N 0.61625 0.05805 0.09043 0.0
N5 N 0.63385 0.03764 0.1134 0.0
C6 C 0.77201 0.99548 0.15525 0.0
O7 O 0.73905 0.9545 0.15805 0.0
O8 O 0.58166 0.17728 0.08082 0.0
Zn9 Zn 0.68135 0.08101 0.14002 0.0
N10 N 0.65109 0.10993 0.03542 0.0
C11 C 0.65299 0.04585 1.00018 0.0
C12 C 0.65066 0.0576 1.02707 0.0
C13 C 0.66642 0.14973 1.0184 0.0
N14 N 0.66885 0.08505 0.98336 0.0
C15 C 0.68084 0.13575 0.99214 0.0
O16 O 0.71394 0.15869 0.12844 0.0
C17 C 0.72448 0.1842 0.10688 0.0
O18 O 0.7062 0.16646 0.08495 0.0
H19 H 0.64914 1.025 0.04109 0.0
H20 H 0.67501 0.18964 1.02616 0.0
C21 C 0.65212 0.10172 0.19789 0.0
C22 C 0.61339 0.11531 0.21769 0.0
C23 C 0.5461 0.11816 0.18413 0.0
C24 C 0.58382 0.10404 0.16505 0.0
N25 N 0.63612 0.0961 0.17192 0.0
N26 N 0.56163 0.12325 0.20975 0.0
H27 H 0.69417 0.09689 0.20283 0.0
C28 C 0.57457 0.19733 0.10394 0.0
O29 O 0.6069 0.18358 0.1233 0.0
O30 O 0.75306 0.04178 0.14898 0.0
H31 H 0.57116 0.0989 0.14469 0.0
H32 H 0.64783 1.00488 0.99306 0.0
H33 H 0.50447 0.12453 0.17867 0.0
Zn34 Zn 0.4309 0.63253 0.08966 0.0
C35 C 0.57877 0.60405 0.1174 0.0
N36 N 0.58213 0.57041 0.09642 0.0
C37 C 0.5342 0.57355 0.08435 0.0
N38 N 0.50188 0.60904 0.09834 0.0
N39 N 0.52952 0.62917 0.11895 0.0
C40 C 0.54258 0.79225 0.16263 0.0
O41 O 0.49686 0.79483 0.17557 0.0
O42 O 0.37985 0.5701 0.09235 0.0
Zn43 Zn 0.4991 0.68352 0.14776 0.0
N44 N 0.43816 0.66527 0.05562 0.0
C45 C 0.4914 0.69187 1.01897 0.0
C46 C 0.48754 0.67137 0.0444 0.0
C47 C 0.39301 0.68306 0.04348 0.0
N48 N 0.44665 0.71195 1.00742 0.0
C49 C 0.39755 0.71007 1.01946 0.0
O50 O 0.42234 0.72686 0.1444 0.0
C51 C 0.38349 0.72118 0.12794 0.0
O52 O 0.38967 0.68749 0.10943 0.0
H53 H 0.52356 0.65999 0.05482 0.0
H54 H 0.35476 0.67905 0.05327 0.0
C55 C 0.48389 0.65173 0.20584 0.0
C56 C 0.4666 0.61261 0.22467 0.0
C57 C 0.45474 0.5493 0.1896 0.0
C58 C 0.47082 0.58773 0.17132 0.0
N59 N 0.48613 0.63789 0.17946 0.0
N60 N 0.45293 0.56261 0.2156 0.0
H61 H 0.49317 0.6927 0.2118 0.0
C62 C 0.38687 0.52305 0.1019 0.0
O63 O 0.43307 0.51034 0.11291 0.0
O64 O 0.55482 0.74734 0.1514 0.0
H65 H 0.47 0.57769 0.15052 0.0
H66 H 0.52985 0.69525 1.00916 0.0
H67 H 0.44292 0.50929 0.18314 0.0
Zn68 Zn 0.89295 0.495 0.13643 0.0
C69 C 0.99762 0.52988 0.07464 0.0
N70 N 1.01991 0.56464 0.0919 0.0
C71 C 0.98734 0.56323 0.11328 0.0
N72 N 0.94679 0.52672 0.10986 0.0
N73 N 0.95237 0.50775 0.08529 0.0
C74 C 0.91244 0.4281 1.01765 0.0
O75 O 0.92199 0.42585 0.99206 0.0
O76 O 0.82597 0.54682 0.14314 0.0
Zn77 Zn 0.88869 0.48729 0.06689 0.0
N78 N 0.93745 0.47652 0.1681 0.0
C79 C 1.02576 0.44565 0.17874 0.0
C80 C 0.98768 0.4617 0.16024 0.0
C81 C 0.92312 0.4732 0.19433 0.0
N82 N 1.01218 0.44363 0.20466 0.0
C83 C 0.96207 0.45645 0.21355 0.0
O84 O 0.84754 0.42035 0.08173 0.0
C85 C 0.8404 0.3972 0.10412 0.0
O86 O 0.8582 0.41966 0.12537 0.0
H87 H 0.99817 0.46137 0.13949 0.0
H88 H 0.88197 0.48173 0.19965 0.0
C89 C 0.82522 0.56438 0.04168 0.0
C90 C 0.80444 0.61592 0.03624 0.0
C91 C 0.82774 0.64417 0.07952 0.0
C92 C 0.84883 0.59283 0.08469 0.0
N93 N 0.84713 0.55377 0.06563 0.0
N94 N 0.80537 0.65451 0.05548 0.0
H95 H 0.82386 0.53248 1.02695 0.0
C96 C 0.78195 0.53088 0.15376 0.0
O97 O 0.78074 0.48184 0.16365 0.0
O98 O 0.90896 0.47367 0.02897 0.0
H99 H 0.86762 0.5852 0.10345 0.0
H100 H 0.06588 0.43439 0.17254 0.0
H101 H 0.82907 0.67551 0.09453 0.0
Zn102 Zn 0.06714 0.88608 0.15222 0.0
C103 C 0.03195 0.99455 0.09181 0.0
N104 N 0.99366 1.01358 0.10797 0.0
C105 C 0.994 0.97903 0.12868 0.0
N106 N 0.03319 0.94046 0.12604 0.0
N107 N 0.05561 0.94972 0.10268 0.0
C108 C 0.14357 0.9465 0.05625 0.0
O109 O 0.16146 0.95267 0.08063 0.0
O110 O 1.02401 0.81191 0.15326 0.0
Zn111 Zn 0.08504 0.88715 0.0864 0.0
N112 N 0.0761 0.92884 0.18513 0.0
C113 C 0.09897 1.01901 0.19784 0.0
C114 C 0.08562 0.98137 0.17855 0.0
C115 C 0.08212 0.91206 0.21087 0.0
N116 N 0.10513 1.00258 0.22314 0.0
C117 C 0.09811 0.95021 0.23044 0.0
O118 O 0.15251 0.85031 0.10247 0.0
C119 C 0.17388 0.84385 0.12524 0.0
O120 O 0.14816 0.85974 0.14581 0.0
H121 H 0.08536 0.99414 0.15817 0.0
H122 H 0.07714 0.8698 0.21578 0.0
C123 C 0.03838 0.78695 0.081 0.0
C124 C 0.99781 0.74914 0.07633 0.0
C125 C 0.93216 0.817 0.0832 0.0
C126 C 0.97298 0.85521 0.08623 0.0
N127 N 1.0253 0.83908 0.08476 0.0
N128 N 0.94543 0.76505 0.07733 0.0
H129 H 0.08048 0.77664 0.07873 0.0
C130 C 0.04663 0.76779 0.16076 0.0
O131 O 0.09497 0.77113 0.17115 0.0
O132 O 0.10792 0.91121 0.05154 0.0
H133 H 0.96282 0.89725 0.08912 0.0
H134 H 0.10612 0.06078 0.19263 0.0
H135 H 0.89036 0.82909 0.08407 0.0
Zn136 Zn 0.18086 0.99767 0.41644 0.0
C137 C 0.09849 0.04807 0.48391 0.0
N138 N 0.10606 0.09812 0.47444 0.0
C139 C 0.12981 0.09023 0.45073 0.0
N140 N 0.13945 0.03628 0.4461 0.0
N141 N 0.11629 1.01009 0.46618 0.0
C142 C 1.02253 0.86391 0.44467 0.0
O143 O 0.06092 0.84596 0.42906 0.0
O144 O 0.24944 0.0427 0.4056 0.0
Zn145 Zn 0.10686 0.93077 0.46892 0.0
N146 N 0.12862 0.98732 0.38759 0.0
C147 C 0.03542 0.98516 0.37657 0.0
C148 C 0.07637 0.99484 0.39473 0.0
C149 C 0.14138 0.96952 0.36268 0.0
N150 N 0.04804 0.96859 0.35173 0.0
C151 C 0.0998 0.96051 0.34389 0.0
O152 O 0.1639 0.87952 0.45306 0.0
C153 C 0.20359 0.87739 0.43717 0.0
O154 O 0.21524 0.91931 0.42343 0.0
H155 H 0.0661 1.00731 0.4146 0.0
H156 H 0.18302 0.96147 0.35799 0.0
C157 C 0.16609 0.94025 0.51122 0.0
C158 C 0.19439 0.92533 0.53368 0.0
C159 C 0.12119 0.87037 0.54664 0.0
C160 C 0.09539 0.88125 0.52248 0.0
N161 N 0.11896 0.91635 0.50542 0.0
N162 N 0.17084 0.89161 0.55144 0.0
H163 H 0.18409 0.96686 0.4968 0.0
C164 C 0.27991 0.06138 0.42397 0.0
O165 O 0.26443 0.05554 0.44869 0.0
O166 O 0.03195 0.90519 0.45901 0.0
H167 H 0.0585 0.86083 0.51709 0.0
H168 H 0.99379 0.99083 0.38214 0.0
H169 H 0.1037 0.84275 0.56068 0.0
Zn170 Zn 0.58319 0.18729 0.40925 0.0
C171 C 0.54008 0.08228 0.47028 0.0
N172 N 0.49713 0.07005 0.45562 0.0
C173 C 0.49954 0.10494 0.4351 0.0
N174 N 0.54418 0.13798 0.43667 0.0
N175 N 0.56841 0.12306 0.45906 0.0
C176 C 0.69234 0.07106 0.47774 0.0
O177 O 0.69373 0.08471 0.4526 0.0
O178 O 0.53702 0.25375 0.39838 0.0
Zn179 Zn 0.62375 0.15887 0.47815 0.0
N180 N 0.60009 0.13899 0.37864 0.0
C181 C 0.62553 0.04792 0.36938 0.0
C182 C 0.61061 0.08801 0.38725 0.0
C183 C 0.60501 0.15159 0.35221 0.0
N184 N 0.63038 0.06018 0.34336 0.0
C185 C 0.62121 0.11079 0.33382 0.0
O186 O 0.67939 0.20508 0.46054 0.0
C187 C 0.69215 0.22886 0.43926 0.0
O188 O 0.66038 0.22519 0.41912 0.0
H189 H 0.6082 0.07853 0.4081 0.0
H190 H 0.59766 0.19262 0.34577 0.0
C191 C 0.5893 0.20316 0.5288 0.0
C192 C 0.55393 0.235 0.54409 0.0
C193 C 0.51299 0.26706 0.50436 0.0
C194 C 0.54838 0.23608 0.48948 0.0
N195 N 0.58527 0.20456 0.50195 0.0
N196 N 0.5168 0.26591 0.53113 0.0
H197 H 0.61746 0.17524 0.5376 0.0
C198 C 0.49436 0.2697 0.41007 0.0
O199 O 0.47409 0.23917 0.42869 0.0
O200 O 0.66517 0.0992 0.49417 0.0
H201 H 0.54615 0.23624 0.46808 0.0
H202 H 0.63369 1.00726 0.37616 0.0
H203 H 0.48306 0.29217 0.49479 0.0
Zn204 Zn 0.41781 0.61599 0.47987 0.0
C205 C 0.45229 0.47902 0.44056 0.0
N206 N 0.48442 0.46936 0.46158 0.0
C207 C 0.47837 0.51344 0.47666 0.0
N208 N 0.44204 0.5483 0.46544 0.0
N209 N 0.42651 0.52772 0.44223 0.0
C210 C 0.27949 0.54274 0.39019 0.0
O211 O 0.28549 0.5912 0.38006 0.0
O212 O 0.4797 0.6637 0.47417 0.0
Zn213 Zn 0.38539 0.56837 0.41311 0.0
N214 N 0.40178 0.60671 0.51736 0.0
C215 C 0.38776 0.55569 0.55669 0.0
C216 C 0.40348 0.55861 0.53023 0.0
C217 C 0.37868 0.65027 0.5289 0.0
N218 N 0.36208 0.59856 0.56776 0.0
C219 C 0.35456 0.64541 0.55411 0.0
O220 O 0.34986 0.64565 0.42114 0.0
C221 C 0.33722 0.67467 0.44132 0.0
O222 O 0.35488 0.66188 0.46425 0.0
H223 H 0.41297 0.52225 0.51969 0.0
H224 H 0.37267 0.68522 0.5165 0.0
C225 C 0.42618 0.59271 0.35778 0.0
C226 C 0.46905 0.60472 0.34008 0.0
C227 C 0.53119 0.59053 0.37526 0.0
C228 C 0.48922 0.5794 0.39248 0.0
N229 N 0.43743 0.58027 0.38372 0.0
N230 N 0.52018 0.60273 0.34969 0.0
H231 H 0.38478 0.59446 0.35121 0.0
C232 C 0.49117 0.68168 0.4512 0.0
O233 O 0.46094 0.66881 0.43082 0.0
O234 O 0.31903 0.5222 0.40293 0.0
H235 H 0.49819 0.57114 0.41301 0.0
H236 H 0.39081 0.51799 0.56741 0.0
H237 H 0.57239 0.58981 0.3822 0.0
Zn238 Zn 0.98882 0.41157 0.47614 0.0
C239 C 0.07212 0.49307 0.42715 0.0
N240 N 0.0759 0.53006 0.44683 0.0
C241 C 0.03772 0.51536 0.46409 0.0
N242 N 1.01183 0.47013 0.4552 0.0
N243 N 0.03296 0.45587 0.43199 0.0
C244 C 0.09239 0.30409 0.40645 0.0
O245 O 0.13044 0.34024 0.40359 0.0
O246 O 0.98659 0.43628 0.51403 0.0
Zn247 Zn 1.00005 0.39627 0.40828 0.0
N248 N 0.05021 0.36524 0.47411 0.0
C249 C 0.14466 0.34933 0.47357 0.0
C250 C 0.10119 0.38498 0.47298 0.0
C251 C 0.04092 0.31196 0.47621 0.0
N252 N 0.13537 0.29589 0.4773 0.0
C253 C 0.08441 0.27618 0.47863 0.0
O254 O 0.92336 0.3674 0.41998 0.0
C255 C 0.89833 0.35666 0.44152 0.0
O256 O 0.91935 0.37007 0.46381 0.0
H257 H 0.10825 0.42796 0.47235 0.0
H258 H 0.9998 0.29899 0.47905 0.0
C259 C 0.97864 0.42236 0.34842 0.0
C260 C 0.95774 0.46082 0.32991 0.0
C261 C 0.94445 0.52292 0.36537 0.0
C262 C 0.96263 0.48487 0.38333 0.0
N263 N 0.98094 0.43578 0.37493 0.0
N264 N 0.94251 0.51005 0.33938 0.0
H265 H 0.99106 0.38247 0.34203 0.0
C266 C 0.94869 0.43385 0.53072 0.0
O267 O 0.95799 0.4488 0.55533 0.0
O268 O 0.04331 0.32041 0.40726 0.0
H269 H 0.96087 0.49446 0.40418 0.0
H270 H 0.18546 0.36428 0.47263 0.0
H271 H 0.93079 0.56221 0.37208 0.0
Zn272 Zn 0.38034 0.9903 0.97183 0.0
C273 C 0.476 0.08197 0.9348 0.0
N274 N 0.50442 0.08412 0.95769 0.0
C275 C 0.48536 0.04257 0.97188 0.0
N276 N 0.44572 1.01673 0.95806 0.0
N277 N 0.44048 0.03986 0.93459 0.0
C278 C 0.30098 0.09682 0.90498 0.0
O279 O 0.33708 0.13503 0.90258 0.0
O280 O 0.39492 0.95173 1.00467 0.0
Zn281 Zn 0.3909 1.00664 0.90604 0.0
N282 N 0.33661 0.05204 0.97665 0.0
C283 C 0.31622 0.14478 0.98382 0.0
C284 C 0.35387 0.10387 0.97922 0.0
C285 C 0.28439 0.03928 0.9783 0.0
N286 N 0.26392 0.13117 0.98779 0.0
C287 C 0.24713 0.079 0.98519 0.0
O288 O 0.36365 0.92475 0.91124 0.0
C289 C 0.33695 0.90453 0.93054 0.0
O290 O 0.33675 0.9297 0.95257 0.0
H291 H 0.3962 0.11313 0.97838 0.0
H292 H 0.27377 0.99691 0.97768 0.0
C293 C 0.4211 0.9902 0.8476 0.0
C294 C 0.46145 0.97788 0.82849 0.0
C295 C 0.52844 0.98942 0.86154 0.0
C296 C 0.48904 0.99908 0.88036 0.0
N297 N 0.43608 1.00076 0.87337 0.0
N298 N 0.51379 0.97888 0.83628 0.0
H299 H 0.37891 0.98888 0.84234 0.0
C300 C 0.41358 0.90867 0.99441 0.0
O301 O 0.44025 0.91194 0.97198 0.0
O302 O 0.31636 0.04741 0.90504 0.0
H303 H 0.50128 1.00288 0.90072 0.0
H304 H 0.32891 0.18639 0.98591 0.0
H305 H 0.57047 0.98865 0.86713 0.0
Zn306 Zn 0.58543 0.39358 0.90665 0.0
C307 C 0.52587 0.47522 0.97437 0.0
N308 N 0.48363 0.48424 0.95848 0.0
C309 C 0.49599 0.45905 0.93561 0.0
N310 N 0.54529 0.43447 0.93663 0.0
N311 N 0.56374 0.44529 0.96101 0.0
C312 C 0.67711 0.51944 0.96904 0.0
O313 O 0.65767 0.51329 0.94502 0.0
O314 O 0.54284 0.32498 0.89607 0.0
Zn315 Zn 0.62877 0.41749 0.97598 0.0
N316 N 0.59362 0.44509 0.87681 0.0
C317 C 0.59989 0.53894 0.8667 0.0
C318 C 0.59159 0.49761 0.88481 0.0
C319 C 0.60414 0.43237 0.85082 0.0
N320 N 0.61016 0.52651 0.84103 0.0
C321 C 0.61256 0.47453 0.83216 0.0
O322 O 0.68139 0.37657 0.9546 0.0
C323 C 0.69494 0.35509 0.93289 0.0
O324 O 0.66352 0.35901 0.91286 0.0
H325 H 0.58438 0.50759 0.90535 0.0
H326 H 0.6072 0.39035 0.84499 0.0
C327 C 0.58714 0.36458 1.02531 0.0
C328 C 0.556 0.32251 0.0358 0.0
C329 C 0.56219 0.2753 0.9948 0.0
C330 C 0.59133 0.31771 0.98429 0.0
N331 N 0.60285 0.36183 0.99947 0.0
N332 N 0.54494 0.27892 1.02011 0.0
H333 H 0.59727 0.39903 0.03729 0.0
C334 C 0.51418 0.3011 0.91338 0.0
O335 O 0.50741 0.32439 0.93657 0.0
O336 O 0.67307 0.48177 0.98607 0.0
H337 H 0.60248 0.31655 0.96362 0.0
H338 H 0.59843 0.58077 0.87301 0.0
H339 H 0.55227 0.24031 0.98282 0.0
Zn340 Zn 0.19745 0.59357 0.97481 0.0
C341 C 0.11137 0.49634 0.92937 0.0
N342 N 0.07868 0.49182 0.95056 0.0
C343 C 0.09656 0.52947 0.96748 0.0
N344 N 0.13967 0.55629 0.95681 0.0
N345 N 0.14817 0.53685 0.93254 0.0
C346 C 0.28992 0.49232 0.88987 0.0
O347 O 0.25761 0.45366 0.88183 0.0
O348 O 0.16452 0.61723 1.00793 0.0
Zn349 Zn 0.19594 0.57521 0.90487 0.0
N350 N 0.24741 0.53592 0.98257 0.0
C351 C 0.28549 0.45214 0.96866 0.0
C352 C 0.26083 0.50126 0.96273 0.0
C353 C 0.25716 0.52316 1.00826 0.0
N354 N 0.29513 0.43925 0.99436 0.0
C355 C 0.28127 0.47316 1.01456 0.0
O356 O 0.22248 0.6553 0.91407 0.0
C357 C 0.23579 0.68362 0.93444 0.0
O358 O 0.22967 0.66379 0.95766 0.0
H359 H 0.24972 0.51043 0.94269 0.0
H360 H 0.24556 0.55175 1.02348 0.0
C361 C 0.16372 0.59177 0.84719 0.0
C362 C 0.1235 0.60424 0.82798 0.0
C363 C 0.05781 0.6041 0.86215 0.0
C364 C 0.09721 0.59262 0.88083 0.0
N365 N 0.1493 0.58577 0.87328 0.0
N366 N 0.07182 0.6097 0.83642 0.0
H367 H 0.20566 0.58881 0.84176 0.0
C368 C 0.12424 0.64661 1.00267 0.0
O369 O 0.11578 0.66143 0.97799 0.0
O370 O 0.27002 0.53714 0.89794 0.0
H371 H 0.08624 0.5907 0.90149 0.0
H372 H 0.29602 0.42406 0.953 0.0
H373 H 1.01636 0.60939 0.86811 0.0
Zn374 Zn 1.00722 0.18689 0.91927 0.0
C375 C 0.05433 0.10889 0.98902 0.0
N376 N 0.10317 0.10991 0.97791 0.0
C377 C 0.09519 0.13478 0.95446 0.0
N378 N 0.04273 0.14991 0.95107 0.0
N379 N 1.01754 0.13296 0.97289 0.0
C380 C 0.86357 0.06431 0.95338 0.0
O381 O 0.84883 1.02207 0.93931 0.0
O382 O 0.04752 0.25766 0.90918 0.0
Zn383 Zn 0.94158 0.13355 0.97967 0.0
N384 N 0.99823 0.13405 0.89034 0.0
C385 C 0.98445 0.04075 0.88085 0.0
C386 C 0.99523 0.08209 0.89882 0.0
C387 C 0.98875 0.14659 0.86431 0.0
N388 N 0.9761 0.0529 0.85497 0.0
C389 C 0.97776 0.10458 0.84578 0.0
O390 O 0.89798 0.1956 0.96318 0.0
C391 C 0.89387 0.22279 0.94189 0.0
O392 O 0.93053 0.2199 0.92429 0.0
H393 H 1.0003 0.07286 0.91962 0.0
H394 H 0.98792 0.18862 0.85855 0.0
C395 C 0.93038 0.19484 1.0234 0.0
C396 C 0.91406 0.21259 0.04836 0.0
C397 C 0.90917 0.12182 0.06264 0.0
C398 C 0.9223 0.10418 0.03695 0.0
N399 N 0.93214 0.14154 1.01778 0.0
N400 N 0.90394 0.1758 0.06768 0.0
H401 H 0.93814 0.22362 1.00774 0.0
C402 C 0.09235 0.27585 0.90071 0.0
O403 O 0.13176 0.24216 0.89538 0.0
O404 O 0.91095 0.06592 0.963 0.0
H405 H 0.92222 0.06156 0.03215 0.0
H406 H 0.98227 0.99924 0.88743 0.0
H407 H 0.90088 0.09276 0.07808 0.0
Zn408 Zn 0.90049 0.07556 0.65326 0.0
C409 C 1.0039 0.03493 0.59147 0.0
N410 N 1.01698 0.99269 0.60672 0.0
C411 C 0.98385 0.99761 0.62775 0.0
N412 N 0.95113 0.0417 0.62586 0.0
N413 N 0.96351 0.06442 0.6029 0.0
C414 C 0.98369 0.15975 0.55578 0.0
O415 O 0.99954 0.17192 0.57997 0.0
O416 O 0.83384 1.02403 0.65651 0.0
Zn417 Zn 0.91269 0.11218 0.5873 0.0
N418 N 0.94662 0.08503 0.68536 0.0
C419 C 0.03818 0.10414 0.69616 0.0
C420 C 0.99851 0.09279 0.67764 0.0
C421 C 0.93272 0.09047 0.71161 0.0
N422 N 1.02459 0.10973 0.72193 0.0
C423 C 0.97311 0.10419 0.73053 0.0
O424 O 0.89284 0.1817 0.60581 0.0
C425 C 0.87151 0.19255 0.62809 0.0
O426 O 0.86978 0.15602 0.64618 0.0
H427 H 1.00936 0.09194 0.65698 0.0
H428 H 0.89112 0.08632 0.71751 0.0
C429 C 0.84934 0.03749 0.56146 0.0
C430 C 0.80256 1.00889 0.55513 0.0
C431 C 0.76071 0.04608 0.59368 0.0
C432 C 0.80644 0.07622 0.59892 0.0
N433 N 0.84947 0.07128 0.58259 0.0
N434 N 0.75972 1.01384 0.57193 0.0
H435 H 0.88477 0.03594 0.54934 0.0
C436 C 0.78754 0.03621 0.66591 0.0
O437 O 0.78179 0.08321 0.67781 0.0
O438 O 0.94131 0.1323 0.55269 0.0
H439 H 0.8073 0.10355 0.61559 0.0
H440 H 0.07945 0.10982 0.69003 0.0
H441 H 0.72541 0.04999 0.60602 0.0
Zn442 Zn 0.50836 0.89192 0.63963 0.0
C443 C 0.56347 0.98453 0.57671 0.0
N444 N 0.60851 0.9912 0.59091 0.0
C445 C 0.59909 0.96244 0.61317 0.0
N446 N 0.5494 0.93822 0.61285 0.0
N447 N 0.52752 0.95326 0.58997 0.0
C448 C 0.41071 1.00366 0.53423 0.0
O449 O 0.41947 0.04192 0.51678 0.0
O450 O 0.55199 0.82086 0.64838 0.0
Zn451 Zn 0.46365 0.92589 0.57385 0.0
N452 N 0.49385 0.94063 0.67007 0.0
C453 C 0.47484 1.03307 0.67989 0.0
C454 C 0.48932 0.99287 0.662 0.0
C455 C 0.48272 0.92687 0.69581 0.0
N456 N 0.46454 1.01974 0.70536 0.0
C457 C 0.46778 0.96794 0.71425 0.0
O458 O 0.39626 0.90606 0.59483 0.0
C459 C 0.38996 0.8725 0.61377 0.0
O460 O 0.42929 0.86248 0.62962 0.0
H461 H 0.49574 1.00342 0.6415 0.0
H462 H 0.48376 0.88476 0.70145 0.0
C463 C 0.49458 0.85116 0.53318 0.0
C464 C 0.52275 0.80522 0.52452 0.0
C465 C 0.52924 0.77468 0.56899 0.0
C466 C 0.50376 0.82154 0.57753 0.0
N467 N 0.48752 0.85893 0.55951 0.0
N468 N 0.53855 0.76787 0.54277 0.0
H469 H 0.48142 0.88217 0.51953 0.0
C470 C 0.59103 0.80387 0.63403 0.0
O471 O 0.60773 0.83479 0.61466 0.0
O472 O 0.45003 0.9834 0.54656 0.0
H473 H 0.49878 0.82904 0.59842 0.0
H474 H 0.47131 0.07466 0.67353 0.0
H475 H 0.54264 0.74454 0.58305 0.0
Zn476 Zn 0.70055 0.50937 0.64283 0.0
C477 C 0.612 0.54068 0.57359 0.0
N478 N 0.61308 0.59151 0.58283 0.0
C479 C 0.64068 0.58799 0.60572 0.0
N480 N 0.65777 0.53642 0.61063 0.0
N481 N 0.63885 0.50656 0.59051 0.0
C482 C 0.58657 0.36114 0.62544 0.0
O483 O 0.62561 0.37031 0.64243 0.0
O484 O 0.76417 0.56331 0.64807 0.0
Zn485 Zn 0.64536 0.42771 0.58897 0.0
N486 N 0.64941 0.5007 0.67273 0.0
C487 C 0.55685 0.48291 0.68131 0.0
C488 C 0.59801 0.49533 0.66382 0.0
C489 C 0.66128 0.49274 0.69906 0.0
N490 N 0.56847 0.47481 0.70722 0.0
C491 C 0.61942 0.47873 0.71693 0.0
O492 O 0.71029 0.39051 0.60588 0.0
C493 C 0.7428 0.39373 0.62524 0.0
O494 O 0.74188 0.43492 0.64054 0.0
H495 H 0.58892 0.49924 0.64298 0.0
H496 H 0.70257 0.4952 0.70577 0.0
C497 C 0.7058 0.4147 0.5447 0.0
C498 C 0.72603 0.38948 0.522 0.0
C499 C 0.64108 0.34983 0.51429 0.0
C500 C 0.62234 0.37152 0.53827 0.0
N501 N 0.65494 0.40457 0.55269 0.0
N502 N 0.69309 0.35795 0.50701 0.0
H503 H 0.73196 0.43829 0.55745 0.0
C504 C 0.80872 0.54871 0.65866 0.0
O505 O 0.8103 0.50215 0.6711 0.0
O506 O 0.58118 0.3926 0.60568 0.0
H507 H 0.58363 0.3598 0.54583 0.0
H508 H 0.51593 0.47877 0.67427 0.0
H509 H 0.61559 0.32415 0.50238 0.0
Zn510 Zn 0.08596 0.69101 0.63958 0.0
C511 C 0.03718 0.6092 0.572 0.0
N512 N 0.99915 0.58824 0.58772 0.0
C513 C 1.0064 0.61386 0.61106 0.0
N514 N 0.04821 0.64935 0.61008 0.0
N515 N 0.06619 0.64765 0.58527 0.0
C516 C 0.15707 0.71177 0.52321 0.0
O517 O 0.16308 0.71086 0.49737 0.0
O518 O 0.04594 0.76074 0.65052 0.0
Zn519 Zn 0.09068 0.71553 0.5712 0.0
N520 N 0.09992 0.63915 0.66865 0.0
C521 C 0.12175 0.54651 0.67597 0.0
C522 C 0.10745 0.58827 0.65901 0.0
C523 C 0.10765 0.65007 0.69508 0.0
N524 N 0.12933 0.55714 0.70205 0.0
C525 C 0.12338 0.60764 0.71245 0.0
O526 O 0.1552 0.7535 0.58987 0.0
C527 C 0.18158 0.75083 0.61164 0.0
O528 O 0.16282 0.72309 0.63092 0.0
H529 H 0.10341 0.58017 0.63805 0.0
H530 H 0.1032 0.6911 0.70226 0.0
C531 C 0.99934 0.74459 0.54632 0.0
C532 C 0.96201 0.77992 0.53482 0.0
C533 C 0.96795 0.83438 0.57386 0.0
C534 C 1.01075 0.80275 0.58311 0.0
N535 N 1.02636 0.75925 0.56855 0.0
N536 N 0.94642 0.8237 0.5495 0.0
H537 H 1.0116 0.70807 0.53648 0.0
C538 C 0.99841 0.77793 0.65504 0.0
O539 O 0.95784 0.74418 0.65373 0.0
O540 O 0.11031 0.70739 0.53276 0.0
H541 H 0.03257 0.81401 0.60085 0.0
H542 H 0.12749 0.50593 0.66841 0.0
H543 H 0.9549 0.86958 0.58492 0.0
C544 C 0.50141 0.07905 1.01856 0.0
C545 C 0.50142 0.03473 1.00066 0.0
C546 C 0.5245 0.07566 0.04435 0.0
C547 C 0.54905 1.02776 0.05357 0.0
H548 H 0.48444 0.11733 1.01232 0.0
H549 H 0.52335 0.11093 0.05699 0.0
S550 S 0.56584 0.90196 1.01387 0.0
N551 N 0.53418 0.94353 0.99358 0.0
N552 N 0.5724 0.93518 0.04213 0.0
C553 C 0.54804 0.98283 0.03608 0.0
C554 C 0.5262 0.98693 1.00963 0.0
C555 C 0.57135 0.51774 0.04584 0.0
C556 C 0.52641 0.54474 0.05711 0.0
C557 C 0.57077 0.49448 1.0201 0.0
C558 C 0.52623 0.49695 1.00304 0.0
H559 H 0.60857 0.51451 0.0569 0.0
H560 H 0.60563 0.4732 1.01413 0.0
S561 S 0.39347 0.55305 1.02289 0.0
N562 N 0.43158 0.56141 0.04932 0.0
N563 N 0.43278 0.52483 1.00065 0.0
C564 C 0.48 0.52145 1.0142 0.0
C565 C 0.47959 0.54305 0.04102 0.0
C566 C 1.02333 0.55692 1.00017 0.0
C567 C 0.07379 0.53207 0.99538 0.0
C568 C 0.99746 0.55459 1.02534 0.0
C569 C 1.01913 0.52453 0.0466 0.0
H570 H 1.00406 0.57944 0.9844 0.0
H571 H 0.9606 0.57724 0.02826 0.0
S572 S 0.14274 0.44067 0.04273 0.0
N573 N 0.13926 0.46923 1.01319 0.0
N574 N 0.09127 0.46442 0.05987 0.0
C575 C 0.06779 0.49692 0.04154 0.0
C576 C 0.09446 0.50009 1.01612 0.0
C577 C 0.05911 0.07396 0.06339 0.0
C578 C 0.04038 1.0201 0.0648 0.0
C579 C 0.06197 0.10263 0.0391 0.0
C580 C 0.04426 0.07986 1.01493 0.0
H581 H 0.07222 0.0942 0.08135 0.0
H582 H 0.07851 0.1431 0.03925 0.0
S583 S 0.98605 0.94254 1.00754 0.0
N584 N 0.99942 0.94714 0.0396 0.0
N585 N 1.00556 1.00025 0.99423 0.0
C586 C 1.02412 1.02659 1.01605 0.0
C587 C 1.02141 0.99725 0.04084 0.0
C588 C 0.09669 0.07004 0.53298 0.0
C589 C 0.07579 0.03972 0.51149 0.0
C590 C 0.07287 0.06931 0.55853 0.0
C591 C 1.02596 0.03933 0.56374 0.0
H592 H 0.1317 0.09524 0.52994 0.0
H593 H 0.091 0.09305 0.57426 0.0
S594 S 0.96342 0.9429 0.51695 0.0
N595 N 1.00899 0.9737 0.49873 0.0
N596 N 0.96725 0.9695 0.54689 0.0
C597 C 1.00743 1.00563 0.54317 0.0
C598 C 1.03114 1.0069 0.51706 0.0
C599 C 0.53601 0.08653 0.52069 0.0
C600 C 0.54854 0.05782 0.49731 0.0
C601 C 0.54153 0.06298 0.54617 0.0
C602 C 0.5569 1.0084 0.54938 0.0
H603 H 0.51934 0.12671 0.51921 0.0
H604 H 0.53215 0.08728 0.56347 0.0
S605 S 0.58929 0.91384 0.49426 0.0
N606 N 0.57279 0.97054 0.47906 0.0
N607 N 0.58398 0.92636 0.52643 0.0
C608 C 0.56721 0.97859 0.52606 0.0
C609 C 0.56201 1.00293 0.5002 0.0
C610 C 0.58255 0.5666 0.52731 0.0
C611 C 0.58125 0.52837 0.54824 0.0
C612 C 0.54853 0.56291 0.50476 0.0
C613 C 0.51144 0.52045 0.50175 0.0
H614 H 0.60985 0.6006 0.52855 0.0
H615 H 0.55226 0.59294 0.48933 0.0
S616 S 0.48544 0.41377 0.55176 0.0
N617 N 0.53341 0.45082 0.56541 0.0
N618 N 0.47493 0.43954 0.52202 0.0
C619 C 0.51041 0.48127 0.52218 0.0
C620 C 0.54334 0.48652 0.54569 0.0
C621 C 0.08548 0.56772 0.53236 0.0
C622 C 0.03971 0.59337 0.54309 0.0
C623 C 0.08397 0.54171 0.50721 0.0
C624 C 0.03647 0.53934 0.4917 0.0
H625 H 0.12214 0.56566 0.54393 0.0
H626 H 0.12032 0.52253 0.49997 0.0
S627 S 0.90766 0.60631 0.50907 0.0
N628 N 0.94627 0.6172 0.53523 0.0
N629 N 0.94479 0.57166 0.4878 0.0
C630 C 0.99132 0.56693 0.5017 0.0
C631 C 0.99256 0.59269 0.52739 0.0
C632 C 0.63278 0.89505 0.12726 0.0
C633 C 0.61257 0.94551 0.13604 0.0
C634 C 0.61356 0.84544 0.13742 0.0
C635 C 0.57307 0.84383 0.15696 0.0
H636 H 0.65937 0.89368 0.11027 0.0
H637 H 0.62752 0.80825 0.12833 0.0
S638 S 0.51328 0.96436 0.19007 0.0
N639 N 0.55405 0.98988 0.16761 0.0
N640 N 0.51992 0.89813 0.18764 0.0
C641 C 0.55701 0.89401 0.16796 0.0
C642 C 0.57622 0.9443 0.15733 0.0
C643 C 0.72533 0.60586 0.1331 0.0
C644 C 0.72992 0.56245 0.15105 0.0
C645 C 0.67461 0.62693 0.1255 0.0
C646 C 0.62593 0.60639 0.13577 0.0
H647 H 0.76077 0.62091 0.12324 0.0
H648 H 0.6733 0.65568 0.10933 0.0
S649 S 0.6154 0.49962 0.18689 0.0
N650 N 0.68073 0.50532 0.18182 0.0
N651 N 0.58662 0.54434 0.16719 0.0
C652 C 0.6304 0.56711 0.15574 0.0
C653 C 0.68187 0.54534 0.16342 0.0
C654 C 0.97608 0.70685 0.13917 0.0
C655 C 1.02343 0.71254 0.15439 0.0
C656 C 0.96012 0.65616 0.12861 0.0
C657 C 0.99007 0.60842 0.13313 0.0
H658 H 0.95307 0.74237 0.13379 0.0
H659 H 0.92688 0.65559 0.11479 0.0
S660 S 0.11343 0.59888 0.17415 0.0
N661 N 0.09695 0.66352 0.17562 0.0
N662 N 0.06707 0.56981 0.15551 0.0
C663 C 0.03498 0.61282 0.14991 0.0
C664 C 0.05144 0.66422 0.16065 0.0
C665 C 0.86589 1.03314 0.15651 0.0
C666 C 0.83196 0.98761 0.15607 0.0
C667 C 0.92142 1.02849 0.1519 0.0
C668 C 0.94585 0.97824 0.1463 0.0
H669 H 0.84906 0.07331 0.15882 0.0
H670 H 0.94455 0.06539 0.15007 0.0
S671 S 0.87753 0.84522 0.14831 0.0
N672 N 0.82887 0.88928 0.15406 0.0
N673 N 0.93299 0.88113 0.14483 0.0
C674 C 0.91368 0.93183 0.14878 0.0
C675 C 0.85682 0.9364 0.15368 0.0
C676 C 0.06953 0.20327 0.40961 0.0
C677 C 0.10728 0.24553 0.41229 0.0
C678 C 0.08058 0.15006 0.41868 0.0
C679 C 0.12961 0.13629 0.43126 0.0
H680 H 1.03 0.21187 0.40159 0.0
H681 H 0.04842 0.12059 0.41795 0.0
S682 S 0.24354 0.23043 0.442 0.0
N683 N 0.19829 0.26757 0.42642 0.0
N684 N 0.21654 0.16986 0.44517 0.0
C685 C 0.16846 0.17743 0.43292 0.0
C686 C 0.15807 0.23111 0.42294 0.0
C687 C 0.35329 0.12642 0.43609 0.0
C688 C 0.33434 0.08575 0.41886 0.0
C689 C 0.4079 0.1411 0.43709 0.0
C690 C 0.44722 0.11503 0.42142 0.0
H691 H 0.32653 0.14402 0.45065 0.0
H692 H 0.42032 0.16746 0.45318 0.0
S693 S 0.41875 1.00831 0.37146 0.0
N694 N 0.3589 1.02288 0.38382 0.0
N695 N 0.46193 0.04865 0.38669 0.0
C696 C 0.42819 0.07721 0.40261 0.0
C697 C 0.37194 0.06293 0.40114 0.0
C698 C 0.41115 0.39521 0.42429 0.0
C699 C 0.44812 0.43708 0.41972 0.0
C700 C 0.42421 0.34099 0.41851 0.0
C701 C 0.47449 0.32664 0.40757 0.0
H702 H 0.37512 0.40332 0.4357 0.0
H703 H 0.3966 0.3098 0.42487 0.0
S704 S 0.58014 0.42286 0.38636 0.0
N705 N 0.53314 0.46147 0.39971 0.0
N706 N 0.55705 0.36041 0.38792 0.0
C707 C 0.50835 0.36896 0.3994 0.0
C708 C 0.49516 0.42401 0.40559 0.0
C709 C 0.16293 0.45865 0.41622 0.0
C710 C 0.11738 0.48836 0.40818 0.0
C711 C 0.2152 0.4732 0.4083 0.0
C712 C 0.22424 0.51855 0.39208 0.0
H713 H 0.159 0.42762 0.43106 0.0
H714 H 0.24886 0.45143 0.41683 0.0
S715 S 0.11734 0.60349 0.36148 0.0
N716 N 0.08412 0.56036 0.38021 0.0
N717 N 0.18155 0.58749 0.36467 0.0
C718 C 0.17844 0.54477 0.38148 0.0
C719 C 0.12532 0.52981 0.38969 0.0
C720 C 0.44887 0.22762 0.92334 0.0
C721 C 0.49543 0.2443 0.90993 0.0
C722 C 0.43781 0.17266 0.92741 0.0
C723 C 0.4729 0.13176 0.91852 0.0
H724 H 0.42277 0.25736 0.93255 0.0
H725 H 0.40433 0.16267 0.94003 0.0
S726 S 0.59626 0.15347 0.87892 0.0
N727 N 0.5734 0.2152 0.8846 0.0
N728 N 0.55343 0.11188 0.89327 0.0
C729 C 0.51706 0.14773 0.90305 0.0
C730 C 0.52801 0.20394 0.89843 0.0
C731 C 0.41885 0.41903 0.91061 0.0
C732 C 0.4563 0.46135 0.91351 0.0
C733 C 0.36639 0.42845 0.90078 0.0
C734 C 0.34861 0.48096 0.89418 0.0
H735 H 0.42786 0.3795 0.91852 0.0
H736 H 0.33822 0.39511 0.90063 0.0
S737 S 0.43277 0.60466 0.89521 0.0
N738 N 0.4732 0.55667 0.90627 0.0
N739 N 0.37501 0.57468 0.8885 0.0
C740 C 0.3869 0.52275 0.89506 0.0
C741 C 0.44048 0.51284 0.90448 0.0
C742 C 0.15182 0.3574 0.90807 0.0
C743 C 0.10168 0.33565 0.90039 0.0
C744 C 0.15783 0.41313 0.91359 0.0
C745 C 0.11441 0.44944 0.91096 0.0
H746 H 0.18535 0.33063 0.91215 0.0
H747 H 0.19487 0.42661 0.92278 0.0
S748 S 0.97768 0.4147 0.88697 0.0
N749 N 1.00991 0.35624 0.88722 0.0
N750 N 1.02174 0.46039 0.89693 0.0
C751 C 0.06598 0.42889 0.90059 0.0
C752 C 0.05942 0.37225 0.89555 0.0
C753 C 0.23318 0.16013 0.92597 0.0
C754 C 0.24409 0.11145 0.91224 0.0
C755 C 0.18228 0.17064 0.9373 0.0
C756 C 0.13917 0.13427 0.93437 0.0
H757 H 0.2653 0.18866 0.92978 0.0
H758 H 0.17761 0.206 0.94984 0.0
S759 S 0.14418 1.00409 0.89762 0.0
N760 N 0.20567 1.02849 0.89471 0.0
N761 N 0.11024 0.04911 0.91518 0.0
C762 C 0.14849 0.08742 0.91909 0.0
C763 C 0.20066 0.0759 0.90817 0.0
C764 C 0.93968 0.86002 0.64763 0.0
C765 C 0.98879 0.83761 0.65648 0.0
C766 C 0.93471 0.91581 0.64233 0.0
C767 C 0.9784 0.95118 0.64595 0.0
H768 H 0.90643 0.83381 0.64241 0.0
H769 H 0.8987 0.93006 0.63245 0.0
S770 S 0.11179 0.91514 0.67364 0.0
N771 N 0.07903 0.85716 0.6725 0.0
N772 N 0.06939 0.96124 0.66244 0.0
C773 C 1.02535 0.93025 0.65759 0.0
C774 C 1.03068 0.87369 0.66281 0.0
C775 C 0.68649 1.02294 0.66598 0.0
C776 C 0.73812 1.00385 0.65872 0.0
C777 C 0.63914 1.00264 0.65405 0.0
C778 C 0.64101 0.96217 0.63439 0.0
H779 H 0.68263 0.05688 0.67947 0.0
H780 H 0.60147 1.02295 0.65825 0.0
S781 S 0.76473 0.89306 0.61057 0.0
N782 N 0.78685 0.93647 0.633 0.0
N783 N 0.69879 0.90088 0.60977 0.0
C784 C 0.69182 0.93947 0.62871 0.0
C785 C 0.73998 0.9594 0.64115 0.0
C786 C 0.66064 0.73337 0.62256 0.0
C787 C 0.61168 0.74668 0.63523 0.0
C788 C 0.67498 0.67934 0.61687 0.0
C789 C 0.64131 0.63591 0.62368 0.0
H790 H 0.68639 0.7652 0.61517 0.0
H791 H 0.70998 0.672 0.6046 0.0
S792 S 0.51139 0.64763 0.65938 0.0
N793 N 0.53207 0.71078 0.65667 0.0
N794 N 0.55857 0.60995 0.64552 0.0
C795 C 0.59465 0.64833 0.63837 0.0
C796 C 0.58 0.70339 0.64428 0.0
C797 C 0.91026 0.55263 0.65972 0.0
C798 C 0.86082 0.57672 0.65224 0.0
C799 C 0.95972 0.56976 0.649 0.0
C800 C 0.96223 0.6126 0.63083 0.0
H801 H 0.91064 0.51748 0.67246 0.0
H802 H 0.99551 0.54627 0.65324 0.0
S803 S 0.84653 0.69421 0.60705 0.0
N804 N 0.81916 0.64984 0.62735 0.0
N805 N 0.91175 0.68149 0.60735 0.0
C806 C 0.91394 0.63991 0.62489 0.0
C807 C 0.86346 0.62232 0.6356 0.0
C808 C 0.49454 0.28568 0.06913 0.0
C809 C 0.53816 0.32028 0.06372 0.0
C810 C 0.4975 0.24983 0.0904 0.0
C811 C 0.54458 0.2481 0.10567 0.0
H812 H 0.46369 0.27874 0.05429 0.0
H813 H 0.46984 0.21602 0.09068 0.0
S814 S 0.64537 0.35685 0.1117 0.0
N815 N 0.6122 0.3704 0.08406 0.0
N816 N 0.61666 0.30248 0.12425 0.0
C817 C 0.57657 0.29463 0.1063 0.0
C818 C 0.5744 0.33088 0.08453 0.0
C819 C 0.27107 0.48522 0.06372 0.0
C820 C 0.29796 0.46081 0.0422 0.0
C821 C 0.29774 0.49452 0.08768 0.0
C822 C 0.35234 0.48117 0.09036 0.0
H823 H 0.23178 0.5033 0.06121 0.0
H824 H 0.27864 0.52073 0.10216 0.0
S825 S 0.43368 0.39906 0.04395 0.0
N826 N 0.37609 0.40851 0.02837 0.0
N827 N 0.42687 0.42816 0.07326 0.0
C828 C 0.37533 0.44624 0.07154 0.0
C829 C 0.34792 0.43594 0.04718 0.0
C830 C 0.86055 0.29052 0.0347 0.0
C831 C 0.90155 0.2703 0.05117 0.0
C832 C 0.86266 0.34328 1.02495 0.0
C833 C 0.90438 0.37804 0.03247 0.0
H834 H 0.83007 0.26343 1.02697 0.0
H835 H 0.83311 0.35601 1.01041 0.0
S836 S 1.01505 0.34805 0.07941 0.0
N837 N 0.98106 0.29082 0.07723 0.0
N838 N 0.98302 0.39177 0.0603 0.0
C839 C 0.9418 0.36056 0.05149 0.0
C840 C 0.94058 0.30617 0.06076 0.0
C841 C 0.19783 0.07346 1.02637 0.0
C842 C 0.19981 0.06001 0.99939 0.0
C843 C 0.17834 0.03647 0.04462 0.0
C844 C 0.15781 0.98635 0.03625 0.0
H845 H 0.21801 0.1092 0.03388 0.0
H846 H 0.18139 0.04651 0.06551 0.0
S847 S 0.1393 0.93994 0.96696 0.0
N848 N 0.16967 0.99901 0.96452 0.0
N849 N 0.1303 0.92995 0.99901 0.0
C850 C 0.15183 0.97616 1.00906 0.0
C851 C 0.17266 1.01349 0.99048 0.0
C852 C 0.99063 0.7525 0.48862 0.0
C853 C 0.95334 0.77953 0.50531 0.0
C854 C 1.0063 0.77512 0.46448 0.0
C855 C 0.98466 0.82469 0.45623 0.0
H856 H 1.01384 0.71817 0.49517 0.0
H857 H 0.04132 0.75823 0.45469 0.0
S858 S 0.85954 0.8862 0.48222 0.0
N859 N 0.87613 0.84026 0.50457 0.0
N860 N 0.90663 0.88357 0.45912 0.0
C861 C 0.93733 0.8425 0.46863 0.0
C862 C 0.92111 0.8193 0.49324 0.0
C863 C 0.74033 0.96624 0.52446 0.0
C864 C 0.79256 0.98636 0.52813 0.0
C865 C 0.70697 0.99195 0.50624 0.0
C866 C 0.72749 1.02855 0.48788 0.0
H867 H 0.72123 0.94278 0.53993 0.0
H868 H 0.66478 0.98861 0.50878 0.0
S869 S 0.87106 0.05255 0.4747 0.0
N870 N 0.86992 1.01936 0.50302 0.0
N871 N 0.80774 0.05947 0.46544 0.0
C872 C 0.78311 1.03237 0.48536 0.0
C873 C 0.81642 1.01097 0.50577 0.0
C874 C 0.49088 0.77749 0.45346 0.0
C875 C 0.52292 0.73102 0.45063 0.0
C876 C 0.49392 0.80736 0.47702 0.0
C877 C 0.53291 0.7941 0.49626 0.0
H878 H 0.45528 0.78243 0.44123 0.0
H879 H 0.46153 0.83529 0.48138 0.0
S880 S 0.64786 0.70043 0.4871 0.0
N881 N 0.60891 0.69018 0.46097 0.0
N882 N 0.61864 0.74907 0.50444 0.0
C883 C 0.57526 0.75951 0.48881 0.0
C884 C 0.57065 0.72849 0.46523 0.0
C885 C 0.81632 0.36265 0.53686 0.0
C886 C 0.78438 0.3895 0.51804 0.0
C887 C 0.87087 0.37481 0.53967 0.0
C888 C 0.89522 0.41353 0.52342 0.0
H889 H 0.79802 0.33465 0.55062 0.0
H890 H 0.89355 0.35568 0.55545 0.0
S891 S 0.83052 0.48839 0.46832 0.0
N892 N 0.78151 0.45174 0.48105 0.0
N893 N 0.88493 0.47384 0.48579 0.0
C894 C 0.86472 0.43711 0.50299 0.0
C895 C 0.80892 0.42506 0.50033 0.0
C896 C 0.3835 0.81805 0.97984 0.0
C897 C 0.38725 0.85737 1.00005 0.0
C898 C 0.3635 0.76673 0.98515 0.0
C899 C 0.35789 0.75101 1.01161 0.0
H900 H 0.39829 0.82579 0.96005 0.0
H901 H 0.36669 0.7363 0.96969 0.0
S902 S 0.33878 0.84381 0.06886 0.0
N903 N 0.36195 0.88257 0.04492 0.0
N904 N 0.33309 0.78281 0.05575 0.0
C905 C 0.34889 0.79228 0.03048 0.0
C906 C 0.36503 0.84598 1.02479 0.0
C907 C 0.7599 0.57279 0.9709 0.0
C908 C 0.70495 0.56881 0.9766 0.0
C909 C 0.79396 0.60081 0.98821 0.0
C910 C 0.77338 0.62339 1.01179 0.0
H911 H 0.77757 0.54811 0.95538 0.0
H912 H 0.83702 0.59642 0.98563 0.0
S913 S 0.63039 0.64047 0.02942 0.0
N914 N 0.62968 0.60287 1.00227 0.0
N915 N 0.69415 0.65453 0.03532 0.0
C916 C 0.71769 0.62941 1.01432 0.0
C917 C 0.68306 0.6013 0.99666 0.0
C918 C 0.03526 0.68288 1.0155 0.0
C919 C 0.08441 0.65931 1.02311 0.0
C920 C 0.9993 0.70192 0.03446 0.0
C921 C 1.0134 0.70131 0.06137 0.0
H922 H 1.02537 0.68885 0.99478 0.0
H923 H 0.96443 0.72444 0.02772 0.0
S924 S 0.12935 0.63078 0.09184 0.0
N925 N 0.13776 0.62271 0.05957 0.0
N926 N 0.07395 0.66702 0.09515 0.0
C927 C 0.05884 0.67192 0.06937 0.0
C928 C 0.09397 0.64951 0.05015 0.0
C929 C 0.77568 0.15198 0.99643 0.0
C930 C 0.72998 0.15861 0.98024 0.0
C931 C 0.81921 0.1216 0.98727 0.0
C932 C 0.8232 0.10556 0.96072 0.0
H933 H 0.7731 0.15841 1.01768 0.0
H934 H 0.84646 0.10528 1.00163 0.0
S935 S 0.72747 0.14108 0.9073 0.0
N936 N 0.69857 0.16377 0.93469 0.0
N937 N 0.78557 0.1144 0.91647 0.0
C938 C 0.78381 0.12407 0.94296 0.0
C939 C 0.73718 0.15144 0.95276 0.0
C940 C 0.06843 0.19587 0.53744 0.0
C941 C 1.01655 0.17527 0.53297 0.0
C942 C 0.09765 0.21882 0.51687 0.0
C943 C 0.07426 0.22466 0.49173 0.0
H944 H 0.08561 0.19688 0.55719 0.0
H945 H 0.13485 0.23932 0.52181 0.0
S946 S 0.94597 0.16653 0.46827 0.0
N947 N 0.94811 0.15202 0.50022 0.0
N948 N 1.00281 0.19782 0.46176 0.0
C949 C 1.0266 0.19673 0.48602 0.0
C950 C 0.99701 0.17248 0.50684 0.0
C951 C 0.27297 0.96408 0.55817 0.0
C952 C 0.25158 0.93989 0.53525 0.0
C953 C 0.32604 0.9833 0.55834 0.0
C954 C 0.3581 0.9789 0.53553 0.0
H955 H 0.24827 0.96938 0.57566 0.0
H956 H 0.34144 1.00316 0.57596 0.0
S957 S 0.32306 0.91537 0.47148 0.0
N958 N 0.26849 0.90948 0.48982 0.0
N959 N 0.36722 0.94684 0.49039 0.0
C960 C 0.3379 0.95369 0.51293 0.0
C961 C 0.28467 0.93394 0.51269 0.0
C962 C 0.52054 0.29612 0.60927 0.0
C963 C 0.57229 0.305 0.6194 0.0
C964 C 0.51335 0.26419 0.58663 0.0
C965 C 0.5579 0.24131 0.57337 0.0
H966 H 0.48722 0.32091 0.616 0.0
H967 H 0.47387 0.26399 0.57749 0.0
S968 S 0.6971 0.23321 0.60026 0.0
N969 N 0.66434 0.27255 0.62124 0.0
N970 N 0.65235 0.21502 0.57776 0.0
C971 C 0.60746 0.24007 0.58702 0.0
C972 C 0.61406 0.27117 0.61064 0.0
C973 C 0.20947 0.66575 0.55821 0.0
C974 C 0.20453 0.70898 0.54044 0.0
C975 C 0.25989 0.65111 0.56824 0.0
C976 C 0.30653 0.67886 0.56018 0.0
H977 H 0.17543 0.63982 0.5622 0.0
H978 H 0.26282 0.61325 0.57888 0.0
S979 S 0.31043 0.80795 0.52399 0.0
N980 N 0.24703 0.7885 0.52182 0.0
N981 N 0.34128 0.76285 0.54257 0.0
C982 C 0.2997 0.72902 0.54774 0.0
C983 C 0.24888 0.7429 0.53666 0.0
C984 C 0.59366 0.15508 0.29043 0.0
C985 C 0.62729 0.11922 0.30438 0.0
C986 C 0.59243 0.15563 0.26247 0.0
C987 C 0.62472 0.12051 0.24695 0.0
H988 H 0.56576 0.18086 0.30105 0.0
H989 H 0.56406 0.18259 0.25291 0.0
S990 S 0.72418 1.02258 0.27369 0.0
N991 N 0.69784 0.05118 0.3003 0.0
N992 N 0.69399 0.05113 0.24814 0.0
C993 C 0.66078 0.08665 0.26063 0.0
C994 C 0.66229 0.08624 0.28913 0.0
C995 C 0.4217 0.59136 0.29607 0.0
C996 C 0.46185 0.61709 0.31115 0.0
C997 C 0.42174 0.59377 0.26819 0.0
C998 C 0.46179 0.62201 0.25398 0.0
H999 H 0.39191 0.56628 0.30565 0.0
H1000 H 0.39127 0.57103 0.2576 0.0
S1001 S 0.57209 0.70225 0.28416 0.0
N1002 N 0.53942 0.67707 0.30976 0.0
N1003 N 0.54014 0.68006 0.25755 0.0
C1004 C 0.49999 0.651 0.26884 0.0
C1005 C 0.49988 0.64877 0.29729 0.0
C1006 C 0.98768 0.41906 0.28624 0.0
C1007 C 0.95167 0.45179 0.30051 0.0
C1008 C 0.98803 0.41891 0.25828 0.0
C1009 C 0.95284 0.45182 0.24306 0.0
H1010 H 1.01777 0.39542 0.29657 0.0
H1011 H 1.0179 0.3939 0.24855 0.0
S1012 S 0.84595 0.54035 0.27104 0.0
N1013 N 0.87514 0.51323 0.29722 0.0
N1014 N 0.87818 0.51541 0.24519 0.0
C1015 C 0.91459 0.48249 0.25716 0.0
C1016 C 0.91355 0.48188 0.28564 0.0
C1017 C 0.06876 0.91588 0.30184 0.0
C1018 C 0.10903 0.94522 0.31554 0.0
C1019 C 0.06815 0.91204 0.27399 0.0
C1020 C 0.10791 0.93738 0.25879 0.0
H1021 H 0.03539 0.89853 0.31263 0.0
H1022 H 0.03403 0.89312 0.26434 0.0
S1023 S 0.22682 1.0117 0.28443 0.0
N1024 N 0.1929 0.99506 0.31128 0.0
N1025 N 0.19257 0.98622 0.25928 0.0
C1026 C 0.15115 0.96215 0.27223 0.0
C1027 C 0.15161 0.96649 0.30051 0.0
C1028 C 0.42061 0.99429 0.75642 0.0
C1029 C 0.45651 0.95891 0.74311 0.0
C1030 C 0.4179 0.99686 0.7843 0.0
C1031 C 0.45105 0.96409 0.80008 0.0
H1032 H 0.39645 1.02266 0.74518 0.0
H1033 H 0.39285 1.02757 0.79343 0.0
S1034 S 0.54595 0.85879 0.77577 0.0
N1035 N 0.52182 0.88644 0.74847 0.0
N1036 N 0.51559 0.89008 0.80055 0.0
C1037 C 0.48342 0.92515 0.78713 0.0
C1038 C 0.48644 0.92274 0.75877 0.0
C1039 C 0.65639 0.50261 0.78947 0.0
C1040 C 0.62276 0.466 0.80312 0.0
C1041 C 0.65886 0.50387 0.76154 0.0
C1042 C 0.62731 0.46888 0.74599 0.0
H1043 H 0.67935 0.53237 0.80048 0.0
H1044 H 0.68287 0.53486 0.75217 0.0
S1045 S 0.53679 0.36154 0.77148 0.0
N1046 N 0.56031 0.39113 0.7985 0.0
N1047 N 0.56532 0.39292 0.74633 0.0
C1048 C 0.59621 0.42976 0.75935 0.0
C1049 C 0.59388 0.42836 0.78777 0.0
C1050 C 0.10035 0.64828 0.78466 0.0
C1051 C 0.13345 0.61191 0.79892 0.0
C1052 C 0.09975 0.64965 0.75675 0.0
C1053 C 0.1322 0.61452 0.74172 0.0
H1054 H 0.07267 0.67454 0.79517 0.0
H1055 H 0.0712 0.67613 0.74703 0.0
S1056 S 0.23098 0.5159 0.76899 0.0
N1057 N 0.20266 0.54279 0.79552 0.0
N1058 N 0.20283 0.54617 0.74332 0.0
C1059 C 0.16821 0.58053 0.75571 0.0
C1060 C 0.16866 0.57907 0.78417 0.0
C1061 C 0.93591 0.07608 0.80238 0.0
C1062 C 0.96844 0.11314 0.81664 0.0
C1063 C 0.93342 0.07596 0.77444 0.0
C1064 C 0.96353 0.11289 0.7595 0.0
H1065 H 0.91379 0.04516 0.81288 0.0
H1066 H 0.91066 0.0445 0.76453 0.0
S1067 S 0.05032 0.2223 0.78652 0.0
N1068 N 1.02843 0.19036 0.81305 0.0
N1069 N 1.02236 0.19125 0.76097 0.0
C1070 C 0.99309 0.15258 0.77346 0.0
C1071 C 0.99591 0.15253 0.80185 0.0
C1072 C 0.81532 0.30698 0.12683 0.0
C1073 C 0.81021 0.34325 0.10521 0.0
C1074 C 0.78801 0.25619 0.12755 0.0
C1075 C 0.75429 0.23851 0.10658 0.0
H1076 H 0.84113 0.31765 0.14335 0.0
H1077 H 0.79389 0.23036 0.14461 0.0
S1078 S 0.72137 0.32056 0.04672 0.0
N1079 N 0.76391 0.35882 0.06347 0.0
N1080 N 0.71489 0.26483 0.06428 0.0
C1081 C 0.74815 0.27507 0.08513 0.0
C1082 C 0.77528 0.3267 0.08459 0.0
C1083 C 0.31755 0.79428 0.14728 0.0
C1084 C 0.32951 0.75216 0.12901 0.0
C1085 C 0.26736 0.82316 0.14669 0.0
C1086 C 0.22712 0.81267 0.12729 0.0
H1087 H 0.34718 0.80531 0.16209 0.0
H1088 H 0.26067 0.85488 0.16117 0.0
S1089 S 0.23617 0.7059 0.07549 0.0
N1090 N 0.29251 0.69951 0.09238 0.0
N1091 N 0.2035 0.75617 0.08973 0.0
C1092 C 0.23859 0.77065 0.10922 0.0
C1093 C 0.28795 0.73997 0.11052 0.0
C1094 C 0.26561 0.73997 0.45871 0.0
C1095 C 0.3023 0.72549 0.43855 0.0
C1096 C 0.2338 0.78772 0.45748 0.0
C1097 C 0.23792 0.82559 0.43659 0.0
H1098 H 0.26117 0.71375 0.4757 0.0
H1099 H 0.20604 0.79562 0.4735 0.0
S1100 S 0.32981 0.80923 0.37897 0.0
N1101 N 0.34097 0.75425 0.39673 0.0
N1102 N 0.28372 0.8445 0.39513 0.0
C1103 C 0.27514 0.81211 0.41637 0.0
C1104 C 0.30646 0.76234 0.4172 0.0
C1105 C 0.81041 0.3248 0.41853 0.0
C1106 C 0.84545 0.32474 0.44082 0.0
C1107 C 0.76153 0.29432 0.41782 0.0
C1108 C 0.74508 0.26131 0.43924 0.0
H1109 H 0.82056 0.34911 0.40144 0.0
H1110 H 0.73641 0.29684 0.40031 0.0
S1111 S 0.82486 0.24215 0.50143 0.0
N1112 N 0.86072 0.28567 0.48423 0.0
N1113 N 0.7715 0.22898 0.48305 0.0
C1114 C 0.7807 0.26023 0.46139 0.0
C1115 C 0.82979 0.29153 0.46215 0.0
C1116 C 0.27248 0.83357 0.94956 0.0
C1117 C 0.30797 0.84949 0.92897 0.0
C1118 C 0.24948 0.781 0.95092 0.0
C1119 C 0.25906 0.74085 0.93144 0.0
H1120 H 0.26353 0.8616 0.96551 0.0
H1121 H 0.22405 0.77166 0.9677 0.0
S1122 S 0.34639 0.76053 0.87241 0.0
N1123 N 0.34997 0.81926 0.88806 0.0
N1124 N 0.30576 0.72221 0.89013 0.0
C1125 C 0.29267 0.75664 0.91014 0.0
C1126 C 0.31703 0.8101 0.90899 0.0
C1127 C 0.81483 0.27452 0.96026 0.0
C1128 C 0.84429 0.25756 0.93793 0.0
C1129 C 0.76762 0.30559 0.95802 0.0
C1130 C 0.74596 0.32125 0.93319 0.0
H1131 H 0.82844 0.26365 0.9799 0.0
H1132 H 0.74756 0.31689 0.97628 0.0
S1133 S 0.80529 0.28485 0.86798 0.0
N1134 N 0.8471 0.25754 0.8897 0.0
N1135 N 0.75766 0.31509 0.88546 0.0
C1136 C 0.77429 0.30375 0.91049 0.0
C1137 C 0.8234 0.27244 0.91284 0.0
C1138 C 0.81991 0.335 0.6102 0.0
C1139 C 0.78136 0.34734 0.62964 0.0
C1140 C 0.85027 0.28664 0.6108 0.0
C1141 C 0.84364 0.24724 0.6309 0.0
H1142 H 0.82586 0.36279 0.59397 0.0
H1143 H 0.87819 0.27948 0.5947 0.0
S1144 S 0.7487 0.2609 0.68742 0.0
N1145 N 0.7395 0.31715 0.67038 0.0
N1146 N 0.7957 0.22626 0.67157 0.0
C1147 C 0.80648 0.2602 0.65117 0.0
C1148 C 0.7757 0.31 0.65055 0.0
C1149 C 0.25105 0.81609 0.59334 0.0
C1150 C 0.23498 0.78129 0.61394 0.0
C1151 C 0.30005 0.84489 0.5939 0.0
C1152 C 0.3367 0.84168 0.61527 0.0
H1153 H 0.22573 0.82067 0.57612 0.0
H1154 H 0.30989 0.86901 0.5768 0.0
S1155 S 0.31578 0.75621 0.67493 0.0
N1156 N 0.26128 0.7452 0.65688 0.0
N1157 N 0.35286 0.7994 0.65802 0.0
C1158 C 0.32153 0.80701 0.63626 0.0
C1159 C 0.27112 0.77723 0.63564 0.0
loop_
_geom_bond_atom_site_label_1
_geom_bond_atom_site_label_2
_geom_bond_distance
_geom_bond_site_symmetry_2
_ccdc_geom_bond_type
Zn0 N4 2.020 . S
Zn0 O8 2.019 . S
Zn0 N10 2.119 . S
Zn0 O18 1.975 . S
C1 N2 1.334 . S
C1 N5 1.336 1_565 S
N2 C1 1.334 . S
N2 C3 1.334 1_565 S
C3 N2 1.334 1_545 S
C3 N4 1.336 . S
N4 Zn0 2.020 . S
N4 C3 1.336 . S
N4 N5 1.354 . S
N5 C1 1.336 1_545 S
N5 N4 1.354 . S
N5 Zn9 2.020 . S
C6 O7 1.244 . S
C6 O30 1.257 1_565 S
O7 C6 1.244 . S
O8 Zn0 2.019 . S
O8 C28 1.257 . S
Zn9 N5 2.020 . S
Zn9 O16 1.975 . S
Zn9 N25 2.119 . S
Zn9 O30 2.019 . S
N10 Zn0 2.119 . S
N10 C12 1.334 . S
N10 C13 1.328 . S
C11 C12 1.391 . S
C11 N14 1.329 . S
C11 H32 0.930 . S
C12 N10 1.334 . S
C12 C11 1.391 . S
C12 H19 0.930 . S
C13 N10 1.328 . S
C13 C15 1.392 . S
C13 H20 0.930 . S
N14 C11 1.329 . S
N14 C15 1.331 . S
C15 C13 1.392 . S
C15 N14 1.331 . S
O16 Zn9 1.975 . S
O16 C17 1.252 . S
C17 O16 1.252 . S
C17 O18 1.252 . S
O18 Zn0 1.975 . S
O18 C17 1.252 . S
H19 C12 0.930 . S
H20 C13 0.930 . S
C21 C22 1.392 . S
C21 N25 1.328 . S
C21 H27 0.930 . S
C22 C21 1.392 . S
C22 N26 1.331 . S
C23 C24 1.391 . S
C23 N26 1.329 . S
C23 H33 0.930 . S
C24 C23 1.391 . S
C24 N25 1.334 . S
C24 H31 0.930 . S
N25 Zn9 2.119 . S
N25 C21 1.328 . S
N25 C24 1.334 . S
N26 C22 1.331 . S
N26 C23 1.329 . S
H27 C21 0.930 . S
C28 O8 1.257 . S
C28 O29 1.244 . S
O29 C28 1.244 . S
O30 C6 1.257 1_545 S
O30 Zn9 2.019 . S
H31 C24 0.930 . S
H32 C11 0.930 . S
H33 C23 0.930 . S
Zn34 N38 2.020 . S
Zn34 O42 2.019 . S
Zn34 N44 2.119 . S
Zn34 O52 1.975 . S
C35 N36 1.334 . S
C35 N39 1.336 . S
N36 C35 1.334 . S
N36 C37 1.334 . S
C37 N36 1.334 . S
C37 N38 1.336 . S
N38 Zn34 2.020 . S
N38 C37 1.336 . S
N38 N39 1.354 . S
N39 C35 1.336 . S
N39 N38 1.354 . S
N39 Zn43 2.020 . S
C40 O41 1.244 . S
C40 O64 1.257 . S
O41 C40 1.244 . S
O42 Zn34 2.019 . S
O42 C62 1.257 . S
Zn43 N39 2.020 . S
Zn43 O50 1.975 . S
Zn43 N59 2.119 . S
Zn43 O64 2.019 . S
N44 Zn34 2.119 . S
N44 C46 1.334 . S
N44 C47 1.328 . S
C45 C46 1.391 . S
C45 N48 1.329 . S
C45 H66 0.930 . S
C46 N44 1.334 . S
C46 C45 1.391 . S
C46 H53 0.930 . S
C47 N44 1.328 . S
C47 C49 1.392 . S
C47 H54 0.930 . S
N48 C45 1.329 . S
N48 C49 1.331 . S
C49 C47 1.392 . S
C49 N48 1.331 . S
O50 Zn43 1.975 . S
O50 C51 1.252 . S
C51 O50 1.252 . S
C51 O52 1.252 . S
O52 Zn34 1.975 . S
O52 C51 1.252 . S
H53 C46 0.930 . S
H54 C47 0.930 . S
C55 C56 1.392 . S
C55 N59 1.328 . S
C55 H61 0.930 . S
C56 C55 1.392 . S
C56 N60 1.331 . S
C57 C58 1.391 . S
C57 N60 1.329 . S
C57 H67 0.930 . S
C58 C57 1.391 . S
C58 N59 1.334 . S
C58 H65 0.930 . S
N59 Zn43 2.119 . S
N59 C55 1.328 . S
N59 C58 1.334 . S
N60 C56 1.331 . S
N60 C57 1.329 . S
H61 C55 0.930 . S
C62 O42 1.257 . S
C62 O63 1.244 . S
O63 C62 1.244 . S
O64 C40 1.257 . S
O64 Zn43 2.019 . S
H65 C58 0.930 . S
H66 C45 0.930 . S
H67 C57 0.930 . S
Zn68 N72 2.020 . S
Zn68 O76 2.019 . S
Zn68 N78 2.119 . S
Zn68 O86 1.975 . S
C69 N70 1.334 . S
C69 N73 1.336 . S
N70 C69 1.334 . S
N70 C71 1.334 . S
C71 N70 1.334 . S
C71 N72 1.336 . S
N72 Zn68 2.020 . S
N72 C71 1.336 . S
N72 N73 1.354 . S
N73 C69 1.336 . S
N73 N72 1.354 . S
N73 Zn77 2.020 . S
C74 O75 1.244 . S
C74 O98 1.257 . S
O75 C74 1.244 . S
O76 Zn68 2.019 . S
O76 C96 1.257 . S
Zn77 N73 2.020 . S
Zn77 O84 1.975 . S
Zn77 N93 2.119 . S
Zn77 O98 2.019 . S
N78 Zn68 2.119 . S
N78 C80 1.334 . S
N78 C81 1.328 . S
C79 C80 1.391 . S
C79 N82 1.329 . S
C79 H100 0.930 . S
C80 N78 1.334 . S
C80 C79 1.391 . S
C80 H87 0.930 . S
C81 N78 1.328 . S
C81 C83 1.392 . S
C81 H88 0.930 . S
N82 C79 1.329 . S
N82 C83 1.331 . S
C83 C81 1.392 . S
C83 N82 1.331 . S
O84 Zn77 1.975 . S
O84 C85 1.252 . S
C85 O84 1.252 . S
C85 O86 1.252 . S
O86 Zn68 1.975 . S
O86 C85 1.252 . S
H87 C80 0.930 . S
H88 C81 0.930 . S
C89 C90 1.392 . S
C89 N93 1.328 . S
C89 H95 0.930 . S
C90 C89 1.392 . S
C90 N94 1.331 . S
C91 C92 1.391 . S
C91 N94 1.329 . S
C91 H101 0.930 . S
C92 C91 1.391 . S
C92 N93 1.334 . S
C92 H99 0.930 . S
N93 Zn77 2.119 . S
N93 C89 1.328 . S
N93 C92 1.334 . S
N94 C90 1.331 . S
N94 C91 1.329 . S
H95 C89 0.930 . S
C96 O76 1.257 . S
C96 O97 1.244 . S
O97 C96 1.244 . S
O98 C74 1.257 . S
O98 Zn77 2.019 . S
H99 C92 0.930 . S
H100 C79 0.930 . S
H101 C91 0.930 . S
Zn102 N106 2.020 . S
Zn102 O110 2.019 . S
Zn102 N112 2.119 . S
Zn102 O120 1.975 . S
C103 N104 1.334 1_455 S
C103 N107 1.336 . S
N104 C103 1.334 1_655 S
N104 C105 1.334 . S
C105 N104 1.334 . S
C105 N106 1.336 1_655 S
N106 Zn102 2.020 . S
N106 C105 1.336 1_455 S
N106 N107 1.354 . S
N107 C103 1.336 . S
N107 N106 1.354 . S
N107 Zn111 2.020 . S
C108 O109 1.244 . S
C108 O132 1.257 . S
O109 C108 1.244 . S
O110 Zn102 2.019 . S
O110 C130 1.257 1_455 S
Zn111 N107 2.020 . S
Zn111 O118 1.975 . S
Zn111 N127 2.119 . S
Zn111 O132 2.019 . S
N112 Zn102 2.119 . S
N112 C114 1.334 . S
N112 C115 1.328 . S
C113 C114 1.391 . S
C113 N116 1.329 . S
C113 H134 0.930 . S
C114 N112 1.334 . S
C114 C113 1.391 . S
C114 H121 0.930 . S
C115 N112 1.328 . S
C115 C117 1.392 . S
C115 H122 0.930 . S
N116 C113 1.329 . S
N116 C117 1.331 . S
C117 C115 1.392 . S
C117 N116 1.331 . S
O118 Zn111 1.975 . S
O118 C119 1.252 . S
C119 O118 1.252 . S
C119 O120 1.252 . S
O120 Zn102 1.975 . S
O120 C119 1.252 . S
H121 C114 0.930 . S
H122 C115 0.930 . S
C123 C124 1.392 . S
C123 N127 1.328 . S
C123 H129 0.930 . S
C124 C123 1.392 . S
C124 N128 1.331 . S
C125 C126 1.391 . S
C125 N128 1.329 . S
C125 H135 0.930 . S
C126 C125 1.391 . S
C126 N127 1.334 . S
C126 H133 0.930 . S
N127 Zn111 2.119 . S
N127 C123 1.328 . S
N127 C126 1.334 . S
N128 C124 1.331 . S
N128 C125 1.329 . S
H129 C123 0.930 . S
C130 O110 1.257 1_655 S
C130 O131 1.244 . S
O131 C130 1.244 . S
O132 C108 1.257 . S
O132 Zn111 2.019 . S
H133 C126 0.930 . S
H134 C113 0.930 . S
H135 C125 0.930 . S
Zn136 N140 2.020 . S
Zn136 O144 2.019 . S
Zn136 N146 2.119 . S
Zn136 O154 1.975 . S
C137 N138 1.334 1_565 S
C137 N141 1.336 . S
N138 C137 1.334 1_545 S
N138 C139 1.334 . S
C139 N138 1.334 . S
C139 N140 1.336 1_545 S
N140 Zn136 2.020 . S
N140 C139 1.336 1_565 S
N140 N141 1.354 . S
N141 C137 1.336 . S
N141 N140 1.354 . S
N141 Zn145 2.020 . S
C142 O143 1.244 . S
C142 O166 1.257 . S
O143 C142 1.244 . S
O144 Zn136 2.019 . S
O144 C164 1.257 1_565 S
Zn145 N141 2.020 . S
Zn145 O152 1.975 . S
Zn145 N161 2.119 . S
Zn145 O166 2.019 . S
N146 Zn136 2.119 . S
N146 C148 1.334 . S
N146 C149 1.328 . S
C147 C148 1.391 . S
C147 N150 1.329 . S
C147 H168 0.930 . S
C148 N146 1.334 . S
C148 C147 1.391 . S
C148 H155 0.930 . S
C149 N146 1.328 . S
C149 C151 1.392 . S
C149 H156 0.930 . S
N150 C147 1.329 . S
N150 C151 1.331 . S
C151 C149 1.392 . S
C151 N150 1.331 . S
O152 Zn145 1.975 . S
O152 C153 1.252 . S
C153 O152 1.252 . S
C153 O154 1.252 . S
O154 Zn136 1.975 . S
O154 C153 1.252 . S
H155 C148 0.930 . S
H156 C149 0.930 . S
C157 C158 1.392 . S
C157 N161 1.328 . S
C157 H163 0.930 . S
C158 C157 1.392 . S
C158 N162 1.331 . S
C159 C160 1.391 . S
C159 N162 1.329 . S
C159 H169 0.930 . S
C160 C159 1.391 . S
C160 N161 1.334 . S
C160 H167 0.930 . S
N161 Zn145 2.119 . S
N161 C157 1.328 . S
N161 C160 1.334 . S
N162 C158 1.331 . S
N162 C159 1.329 . S
H163 C157 0.930 . S
C164 O144 1.257 1_545 S
C164 O165 1.244 . S
O165 C164 1.244 . S
O166 C142 1.257 . S
O166 Zn145 2.019 . S
H167 C160 0.930 . S
H168 C147 0.930 . S
H169 C159 0.930 . S
Zn170 N174 2.020 . S
Zn170 O178 2.019 . S
Zn170 N180 2.119 . S
Zn170 O188 1.975 . S
C171 N172 1.334 . S
C171 N175 1.336 . S
N172 C171 1.334 . S
N172 C173 1.334 . S
C173 N172 1.334 . S
C173 N174 1.336 . S
N174 Zn170 2.020 . S
N174 C173 1.336 . S
N174 N175 1.354 . S
N175 C171 1.336 . S
N175 N174 1.354 . S
N175 Zn179 2.020 . S
C176 O177 1.244 . S
C176 O200 1.257 . S
O177 C176 1.244 . S
O178 Zn170 2.019 . S
O178 C198 1.257 . S
Zn179 N175 2.020 . S
Zn179 O186 1.975 . S
Zn179 N195 2.119 . S
Zn179 O200 2.019 . S
N180 Zn170 2.119 . S
N180 C182 1.334 . S
N180 C183 1.328 . S
C181 C182 1.391 . S
C181 N184 1.329 . S
C181 H202 0.930 . S
C182 N180 1.334 . S
C182 C181 1.391 . S
C182 H189 0.930 . S
C183 N180 1.328 . S
C183 C185 1.392 . S
C183 H190 0.930 . S
N184 C181 1.329 . S
N184 C185 1.331 . S
C185 C183 1.392 . S
C185 N184 1.331 . S
O186 Zn179 1.975 . S
O186 C187 1.252 . S
C187 O186 1.252 . S
C187 O188 1.252 . S
O188 Zn170 1.975 . S
O188 C187 1.252 . S
H189 C182 0.930 . S
H190 C183 0.930 . S
C191 C192 1.392 . S
C191 N195 1.328 . S
C191 H197 0.930 . S
C192 C191 1.392 . S
C192 N196 1.331 . S
C193 C194 1.391 . S
C193 N196 1.329 . S
C193 H203 0.930 . S
C194 C193 1.391 . S
C194 N195 1.334 . S
C194 H201 0.930 . S
N195 Zn179 2.119 . S
N195 C191 1.328 . S
N195 C194 1.334 . S
N196 C192 1.331 . S
N196 C193 1.329 . S
H197 C191 0.930 . S
C198 O178 1.257 . S
C198 O199 1.244 . S
O199 C198 1.244 . S
O200 C176 1.257 . S
O200 Zn179 2.019 . S
H201 C194 0.930 . S
H202 C181 0.930 . S
H203 C193 0.930 . S
Zn204 N208 2.020 . S
Zn204 O212 2.019 . S
Zn204 N214 2.119 . S
Zn204 O222 1.975 . S
C205 N206 1.334 . S
C205 N209 1.336 . S
N206 C205 1.334 . S
N206 C207 1.334 . S
C207 N206 1.334 . S
C207 N208 1.336 . S
N208 Zn204 2.020 . S
N208 C207 1.336 . S
N208 N209 1.354 . S
N209 C205 1.336 . S
N209 N208 1.354 . S
N209 Zn213 2.020 . S
C210 O211 1.244 . S
C210 O234 1.257 . S
O211 C210 1.244 . S
O212 Zn204 2.019 . S
O212 C232 1.257 . S
Zn213 N209 2.020 . S
Zn213 O220 1.975 . S
Zn213 N229 2.119 . S
Zn213 O234 2.019 . S
N214 Zn204 2.119 . S
N214 C216 1.334 . S
N214 C217 1.328 . S
C215 C216 1.391 . S
C215 N218 1.329 . S
C215 H236 0.930 . S
C216 N214 1.334 . S
C216 C215 1.391 . S
C216 H223 0.930 . S
C217 N214 1.328 . S
C217 C219 1.392 . S
C217 H224 0.930 . S
N218 C215 1.329 . S
N218 C219 1.331 . S
C219 C217 1.392 . S
C219 N218 1.331 . S
O220 Zn213 1.975 . S
O220 C221 1.252 . S
C221 O220 1.252 . S
C221 O222 1.252 . S
O222 Zn204 1.975 . S
O222 C221 1.252 . S
H223 C216 0.930 . S
H224 C217 0.930 . S
C225 C226 1.392 . S
C225 N229 1.328 . S
C225 H231 0.930 . S
C226 C225 1.392 . S
C226 N230 1.331 . S
C227 C228 1.391 . S
C227 N230 1.329 . S
C227 H237 0.930 . S
C228 C227 1.391 . S
C228 N229 1.334 . S
C228 H235 0.930 . S
N229 Zn213 2.119 . S
N229 C225 1.328 . S
N229 C228 1.334 . S
N230 C226 1.331 . S
N230 C227 1.329 . S
H231 C225 0.930 . S
C232 O212 1.257 . S
C232 O233 1.244 . S
O233 C232 1.244 . S
O234 C210 1.257 . S
O234 Zn213 2.019 . S
H235 C228 0.930 . S
H236 C215 0.930 . S
H237 C227 0.930 . S
Zn238 N242 2.020 . S
Zn238 O246 2.019 . S
Zn238 N248 2.119 . S
Zn238 O256 1.975 . S
C239 N240 1.334 . S
C239 N243 1.336 1_455 S
N240 C239 1.334 . S
N240 C241 1.334 1_455 S
C241 N240 1.334 1_655 S
C241 N242 1.336 . S
N242 Zn238 2.020 . S
N242 C241 1.336 . S
N242 N243 1.354 . S
N243 C239 1.336 1_655 S
N243 N242 1.354 . S
N243 Zn247 2.020 . S
C244 O245 1.244 . S
C244 O268 1.257 1_455 S
O245 C244 1.244 . S
O246 Zn238 2.019 . S
O246 C266 1.257 . S
Zn247 N243 2.020 . S
Zn247 O254 1.975 . S
Zn247 N263 2.119 . S
Zn247 O268 2.019 . S
N248 Zn238 2.119 . S
N248 C250 1.334 . S
N248 C251 1.328 . S
C249 C250 1.391 . S
C249 N252 1.329 . S
C249 H270 0.930 . S
C250 N248 1.334 . S
C250 C249 1.391 . S
C250 H257 0.930 . S
C251 N248 1.328 . S
C251 C253 1.392 . S
C251 H258 0.930 . S
N252 C249 1.329 . S
N252 C253 1.331 . S
C253 C251 1.392 . S
C253 N252 1.331 . S
O254 Zn247 1.975 . S
O254 C255 1.252 . S
C255 O254 1.252 . S
C255 O256 1.252 . S
O256 Zn238 1.975 . S
O256 C255 1.252 . S
H257 C250 0.930 . S
H258 C251 0.930 . S
C259 C260 1.392 . S
C259 N263 1.328 . S
C259 H265 0.930 . S
C260 C259 1.392 . S
C260 N264 1.331 . S
C261 C262 1.391 . S
C261 N264 1.329 . S
C261 H271 0.930 . S
C262 C261 1.391 . S
C262 N263 1.334 . S
C262 H269 0.930 . S
N263 Zn247 2.119 . S
N263 C259 1.328 . S
N263 C262 1.334 . S
N264 C260 1.331 . S
N264 C261 1.329 . S
H265 C259 0.930 . S
C266 O246 1.257 . S
C266 O267 1.244 . S
O267 C266 1.244 . S
O268 C244 1.257 1_655 S
O268 Zn247 2.019 . S
H269 C262 0.930 . S
H270 C249 0.930 . S
H271 C261 0.930 . S
Zn272 N276 2.020 . S
Zn272 O280 2.019 . S
Zn272 N282 2.119 . S
Zn272 O290 1.975 . S
C273 N274 1.334 . S
C273 N277 1.336 1_545 S
N274 C273 1.334 . S
N274 C275 1.334 1_545 S
C275 N274 1.334 1_565 S
C275 N276 1.336 . S
N276 Zn272 2.020 . S
N276 C275 1.336 . S
N276 N277 1.354 . S
N277 C273 1.336 1_565 S
N277 N276 1.354 . S
N277 Zn281 2.020 . S
C278 O279 1.244 . S
C278 O302 1.257 1_545 S
O279 C278 1.244 . S
O280 Zn272 2.019 . S
O280 C300 1.257 . S
Zn281 N277 2.020 . S
Zn281 O288 1.975 . S
Zn281 N297 2.119 . S
Zn281 O302 2.019 . S
N282 Zn272 2.119 . S
N282 C284 1.334 . S
N282 C285 1.328 . S
C283 C284 1.391 . S
C283 N286 1.329 . S
C283 H304 0.930 . S
C284 N282 1.334 . S
C284 C283 1.391 . S
C284 H291 0.930 . S
C285 N282 1.328 . S
C285 C287 1.392 . S
C285 H292 0.930 . S
N286 C283 1.329 . S
N286 C287 1.331 . S
C287 C285 1.392 . S
C287 N286 1.331 . S
O288 Zn281 1.975 . S
O288 C289 1.252 . S
C289 O288 1.252 . S
C289 O290 1.252 . S
O290 Zn272 1.975 . S
O290 C289 1.252 . S
H291 C284 0.930 . S
H292 C285 0.930 . S
C293 C294 1.392 . S
C293 N297 1.328 . S
C293 H299 0.930 . S
C294 C293 1.392 . S
C294 N298 1.331 . S
C295 C296 1.391 . S
C295 N298 1.329 . S
C295 H305 0.930 . S
C296 C295 1.391 . S
C296 N297 1.334 . S
C296 H303 0.930 . S
N297 Zn281 2.119 . S
N297 C293 1.328 . S
N297 C296 1.334 . S
N298 C294 1.331 . S
N298 C295 1.329 . S
H299 C293 0.930 . S
C300 O280 1.257 . S
C300 O301 1.244 . S
O301 C300 1.244 . S
O302 C278 1.257 1_565 S
O302 Zn281 2.019 . S
H303 C296 0.930 . S
H304 C283 0.930 . S
H305 C295 0.930 . S
Zn306 N310 2.020 . S
Zn306 O314 2.019 . S
Zn306 N316 2.119 . S
Zn306 O324 1.975 . S
C307 N308 1.334 . S
C307 N311 1.336 . S
N308 C307 1.334 . S
N308 C309 1.334 . S
C309 N308 1.334 . S
C309 N310 1.336 . S
N310 Zn306 2.020 . S
N310 C309 1.336 . S
N310 N311 1.354 . S
N311 C307 1.336 . S
N311 N310 1.354 . S
N311 Zn315 2.020 . S
C312 O313 1.244 . S
C312 O336 1.257 . S
O313 C312 1.244 . S
O314 Zn306 2.019 . S
O314 C334 1.257 . S
Zn315 N311 2.020 . S
Zn315 O322 1.975 . S
Zn315 N331 2.119 . S
Zn315 O336 2.019 . S
N316 Zn306 2.119 . S
N316 C318 1.334 . S
N316 C319 1.328 . S
C317 C318 1.391 . S
C317 N320 1.329 . S
C317 H338 0.930 . S
C318 N316 1.334 . S
C318 C317 1.391 . S
C318 H325 0.930 . S
C319 N316 1.328 . S
C319 C321 1.392 . S
C319 H326 0.930 . S
N320 C317 1.329 . S
N320 C321 1.331 . S
C321 C319 1.392 . S
C321 N320 1.331 . S
O322 Zn315 1.975 . S
O322 C323 1.252 . S
C323 O322 1.252 . S
C323 O324 1.252 . S
O324 Zn306 1.975 . S
O324 C323 1.252 . S
H325 C318 0.930 . S
H326 C319 0.930 . S
C327 C328 1.392 . S
C327 N331 1.328 . S
C327 H333 0.930 . S
C328 C327 1.392 . S
C328 N332 1.331 . S
C329 C330 1.391 . S
C329 N332 1.329 . S
C329 H339 0.930 . S
C330 C329 1.391 . S
C330 N331 1.334 . S
C330 H337 0.930 . S
N331 Zn315 2.119 . S
N331 C327 1.328 . S
N331 C330 1.334 . S
N332 C328 1.331 . S
N332 C329 1.329 . S
H333 C327 0.930 . S
C334 O314 1.257 . S
C334 O335 1.244 . S
O335 C334 1.244 . S
O336 C312 1.257 . S
O336 Zn315 2.019 . S
H337 C330 0.930 . S
H338 C317 0.930 . S
H339 C329 0.930 . S
Zn340 N344 2.020 . S
Zn340 O348 2.019 . S
Zn340 N350 2.119 . S
Zn340 O358 1.975 . S
C341 N342 1.334 . S
C341 N345 1.336 . S
N342 C341 1.334 . S
N342 C343 1.334 . S
C343 N342 1.334 . S
C343 N344 1.336 . S
N344 Zn340 2.020 . S
N344 C343 1.336 . S
N344 N345 1.354 . S
N345 C341 1.336 . S
N345 N344 1.354 . S
N345 Zn349 2.020 . S
C346 O347 1.244 . S
C346 O370 1.257 . S
O347 C346 1.244 . S
O348 Zn340 2.019 . S
O348 C368 1.257 . S
Zn349 N345 2.020 . S
Zn349 O356 1.975 . S
Zn349 N365 2.119 . S
Zn349 O370 2.019 . S
N350 Zn340 2.119 . S
N350 C352 1.334 . S
N350 C353 1.328 . S
C351 C352 1.391 . S
C351 N354 1.329 . S
C351 H372 0.930 . S
C352 N350 1.334 . S
C352 C351 1.391 . S
C352 H359 0.930 . S
C353 N350 1.328 . S
C353 C355 1.392 . S
C353 H360 0.930 . S
N354 C351 1.329 . S
N354 C355 1.331 . S
C355 C353 1.392 . S
C355 N354 1.331 . S
O356 Zn349 1.975 . S
O356 C357 1.252 . S
C357 O356 1.252 . S
C357 O358 1.252 . S
O358 Zn340 1.975 . S
O358 C357 1.252 . S
H359 C352 0.930 . S
H360 C353 0.930 . S
C361 C362 1.392 . S
C361 N365 1.328 . S
C361 H367 0.930 . S
C362 C361 1.392 . S
C362 N366 1.331 . S
C363 C364 1.391 . S
C363 N366 1.329 . S
C363 H373 0.930 . S
C364 C363 1.391 . S
C364 N365 1.334 . S
C364 H371 0.930 . S
N365 Zn349 2.119 . S
N365 C361 1.328 . S
N365 C364 1.334 . S
N366 C362 1.331 . S
N366 C363 1.329 . S
H367 C361 0.930 . S
C368 O348 1.257 . S
C368 O369 1.244 . S
O369 C368 1.244 . S
O370 C346 1.257 . S
O370 Zn349 2.019 . S
H371 C364 0.930 . S
H372 C351 0.930 . S
H373 C363 0.930 . S
Zn374 N378 2.020 . S
Zn374 O382 2.019 . S
Zn374 N384 2.119 . S
Zn374 O392 1.975 . S
C375 N376 1.334 1_655 S
C375 N379 1.336 . S
N376 C375 1.334 1_455 S
N376 C377 1.334 . S
C377 N376 1.334 . S
C377 N378 1.336 1_455 S
N378 Zn374 2.020 . S
N378 C377 1.336 1_655 S
N378 N379 1.354 . S
N379 C375 1.336 . S
N379 N378 1.354 . S
N379 Zn383 2.020 . S
C380 O381 1.244 . S
C380 O404 1.257 . S
O381 C380 1.244 . S
O382 Zn374 2.019 . S
O382 C402 1.257 1_655 S
Zn383 N379 2.020 . S
Zn383 O390 1.975 . S
Zn383 N399 2.119 . S
Zn383 O404 2.019 . S
N384 Zn374 2.119 . S
N384 C386 1.334 . S
N384 C387 1.328 . S
C385 C386 1.391 . S
C385 N388 1.329 . S
C385 H406 0.930 . S
C386 N384 1.334 . S
C386 C385 1.391 . S
C386 H393 0.930 . S
C387 N384 1.328 . S
C387 C389 1.392 . S
C387 H394 0.930 . S
N388 C385 1.329 . S
N388 C389 1.331 . S
C389 C387 1.392 . S
C389 N388 1.331 . S
O390 Zn383 1.975 . S
O390 C391 1.252 . S
C391 O390 1.252 . S
C391 O392 1.252 . S
O392 Zn374 1.975 . S
O392 C391 1.252 . S
H393 C386 0.930 . S
H394 C387 0.930 . S
C395 C396 1.392 . S
C395 N399 1.328 . S
C395 H401 0.930 . S
C396 C395 1.392 . S
C396 N400 1.331 . S
C397 C398 1.391 . S
C397 N400 1.329 . S
C397 H407 0.930 . S
C398 C397 1.391 . S
C398 N399 1.334 . S
C398 H405 0.930 . S
N399 Zn383 2.119 . S
N399 C395 1.328 . S
N399 C398 1.334 . S
N400 C396 1.331 . S
N400 C397 1.329 . S
H401 C395 0.930 . S
C402 O382 1.257 1_455 S
C402 O403 1.244 . S
O403 C402 1.244 . S
O404 C380 1.257 . S
O404 Zn383 2.019 . S
H405 C398 0.930 . S
H406 C385 0.930 . S
H407 C397 0.930 . S
Zn408 N412 2.020 . S
Zn408 O416 2.019 . S
Zn408 N418 2.119 . S
Zn408 O426 1.975 . S
C409 N410 1.334 1_545 S
C409 N413 1.336 . S
N410 C409 1.334 1_565 S
N410 C411 1.334 . S
C411 N410 1.334 . S
C411 N412 1.336 1_565 S
N412 Zn408 2.020 . S
N412 C411 1.336 1_545 S
N412 N413 1.354 . S
N413 C409 1.336 . S
N413 N412 1.354 . S
N413 Zn417 2.020 . S
C414 O415 1.244 . S
C414 O438 1.257 . S
O415 C414 1.244 . S
O416 Zn408 2.019 . S
O416 C436 1.257 1_545 S
Zn417 N413 2.020 . S
Zn417 O424 1.975 . S
Zn417 N433 2.119 . S
Zn417 O438 2.019 . S
N418 Zn408 2.119 . S
N418 C420 1.334 . S
N418 C421 1.328 . S
C419 C420 1.391 . S
C419 N422 1.329 . S
C419 H440 0.930 . S
C420 N418 1.334 . S
C420 C419 1.391 . S
C420 H427 0.930 . S
C421 N418 1.328 . S
C421 C423 1.392 . S
C421 H428 0.930 . S
N422 C419 1.329 . S
N422 C423 1.331 . S
C423 C421 1.392 . S
C423 N422 1.331 . S
O424 Zn417 1.975 . S
O424 C425 1.252 . S
C425 O424 1.252 . S
C425 O426 1.252 . S
O426 Zn408 1.975 . S
O426 C425 1.252 . S
H427 C420 0.930 . S
H428 C421 0.930 . S
C429 C430 1.392 . S
C429 N433 1.328 . S
C429 H435 0.930 . S
C430 C429 1.392 . S
C430 N434 1.331 . S
C431 C432 1.391 . S
C431 N434 1.329 . S
C431 H441 0.930 . S
C432 C431 1.391 . S
C432 N433 1.334 . S
C432 H439 0.930 . S
N433 Zn417 2.119 . S
N433 C429 1.328 . S
N433 C432 1.334 . S
N434 C430 1.331 . S
N434 C431 1.329 . S
H435 C429 0.930 . S
C436 O416 1.257 1_565 S
C436 O437 1.244 . S
O437 C436 1.244 . S
O438 C414 1.257 . S
O438 Zn417 2.019 . S
H439 C432 0.930 . S
H440 C419 0.930 . S
H441 C431 0.930 . S
Zn442 N446 2.020 . S
Zn442 O450 2.019 . S
Zn442 N452 2.119 . S
Zn442 O460 1.975 . S
C443 N444 1.334 . S
C443 N447 1.336 . S
N444 C443 1.334 . S
N444 C445 1.334 . S
C445 N444 1.334 . S
C445 N446 1.336 . S
N446 Zn442 2.020 . S
N446 C445 1.336 . S
N446 N447 1.354 . S
N447 C443 1.336 . S
N447 N446 1.354 . S
N447 Zn451 2.020 . S
C448 O449 1.244 . S
C448 O472 1.257 . S
O449 C448 1.244 . S
O450 Zn442 2.019 . S
O450 C470 1.257 . S
Zn451 N447 2.020 . S
Zn451 O458 1.975 . S
Zn451 N467 2.119 . S
Zn451 O472 2.019 . S
N452 Zn442 2.119 . S
N452 C454 1.334 . S
N452 C455 1.328 . S
C453 C454 1.391 . S
C453 N456 1.329 . S
C453 H474 0.930 . S
C454 N452 1.334 . S
C454 C453 1.391 . S
C454 H461 0.930 . S
C455 N452 1.328 . S
C455 C457 1.392 . S
C455 H462 0.930 . S
N456 C453 1.329 . S
N456 C457 1.331 . S
C457 C455 1.392 . S
C457 N456 1.331 . S
O458 Zn451 1.975 . S
O458 C459 1.252 . S
C459 O458 1.252 . S
C459 O460 1.252 . S
O460 Zn442 1.975 . S
O460 C459 1.252 . S
H461 C454 0.930 . S
H462 C455 0.930 . S
C463 C464 1.392 . S
C463 N467 1.328 . S
C463 H469 0.930 . S
C464 C463 1.392 . S
C464 N468 1.331 . S
C465 C466 1.391 . S
C465 N468 1.329 . S
C465 H475 0.930 . S
C466 C465 1.391 . S
C466 N467 1.334 . S
C466 H473 0.930 . S
N467 Zn451 2.119 . S
N467 C463 1.328 . S
N467 C466 1.334 . S
N468 C464 1.331 . S
N468 C465 1.329 . S
H469 C463 0.930 . S
C470 O450 1.257 . S
C470 O471 1.244 . S
O471 C470 1.244 . S
O472 C448 1.257 . S
O472 Zn451 2.019 . S
H473 C466 0.930 . S
H474 C453 0.930 . S
H475 C465 0.930 . S
Zn476 N480 2.020 . S
Zn476 O484 2.019 . S
Zn476 N486 2.119 . S
Zn476 O494 1.975 . S
C477 N478 1.334 . S
C477 N481 1.336 . S
N478 C477 1.334 . S
N478 C479 1.334 . S
C479 N478 1.334 . S
C479 N480 1.336 . S
N480 Zn476 2.020 . S
N480 C479 1.336 . S
N480 N481 1.354 . S
N481 C477 1.336 . S
N481 N480 1.354 . S
N481 Zn485 2.020 . S
C482 O483 1.244 . S
C482 O506 1.257 . S
O483 C482 1.244 . S
O484 Zn476 2.019 . S
O484 C504 1.257 . S
Zn485 N481 2.020 . S
Zn485 O492 1.975 . S
Zn485 N501 2.119 . S
Zn485 O506 2.019 . S
N486 Zn476 2.119 . S
N486 C488 1.334 . S
N486 C489 1.328 . S
C487 C488 1.391 . S
C487 N490 1.329 . S
C487 H508 0.930 . S
C488 N486 1.334 . S
C488 C487 1.391 . S
C488 H495 0.930 . S
C489 N486 1.328 . S
C489 C491 1.392 . S
C489 H496 0.930 . S
N490 C487 1.329 . S
N490 C491 1.331 . S
C491 C489 1.392 . S
C491 N490 1.331 . S
O492 Zn485 1.975 . S
O492 C493 1.252 . S
C493 O492 1.252 . S
C493 O494 1.252 . S
O494 Zn476 1.975 . S
O494 C493 1.252 . S
H495 C488 0.930 . S
H496 C489 0.930 . S
C497 C498 1.392 . S
C497 N501 1.328 . S
C497 H503 0.930 . S
C498 C497 1.392 . S
C498 N502 1.331 . S
C499 C500 1.391 . S
C499 N502 1.329 . S
C499 H509 0.930 . S
C500 C499 1.391 . S
C500 N501 1.334 . S
C500 H507 0.930 . S
N501 Zn485 2.119 . S
N501 C497 1.328 . S
N501 C500 1.334 . S
N502 C498 1.331 . S
N502 C499 1.329 . S
H503 C497 0.930 . S
C504 O484 1.257 . S
C504 O505 1.244 . S
O505 C504 1.244 . S
O506 C482 1.257 . S
O506 Zn485 2.019 . S
H507 C500 0.930 . S
H508 C487 0.930 . S
H509 C499 0.930 . S
Zn510 N514 2.020 . S
Zn510 O518 2.019 . S
Zn510 N520 2.119 . S
Zn510 O528 1.975 . S
C511 N512 1.334 1_455 S
C511 N515 1.336 . S
N512 C511 1.334 1_655 S
N512 C513 1.334 . S
C513 N512 1.334 . S
C513 N514 1.336 1_655 S
N514 Zn510 2.020 . S
N514 C513 1.336 1_455 S
N514 N515 1.354 . S
N515 C511 1.336 . S
N515 N514 1.354 . S
N515 Zn519 2.020 . S
C516 O517 1.244 . S
C516 O540 1.257 . S
O517 C516 1.244 . S
O518 Zn510 2.019 . S
O518 C538 1.257 1_455 S
Zn519 N515 2.020 . S
Zn519 O526 1.975 . S
Zn519 N535 2.119 . S
Zn519 O540 2.019 . S
N520 Zn510 2.119 . S
N520 C522 1.334 . S
N520 C523 1.328 . S
C521 C522 1.391 . S
C521 N524 1.329 . S
C521 H542 0.930 . S
C522 N520 1.334 . S
C522 C521 1.391 . S
C522 H529 0.930 . S
C523 N520 1.328 . S
C523 C525 1.392 . S
C523 H530 0.930 . S
N524 C521 1.329 . S
N524 C525 1.331 . S
C525 C523 1.392 . S
C525 N524 1.331 . S
O526 Zn519 1.975 . S
O526 C527 1.252 . S
C527 O526 1.252 . S
C527 O528 1.252 . S
O528 Zn510 1.975 . S
O528 C527 1.252 . S
H529 C522 0.930 . S
H530 C523 0.930 . S
C531 C532 1.392 . S
C531 N535 1.328 . S
C531 H537 0.930 . S
C532 C531 1.392 . S
C532 N536 1.331 . S
C533 C534 1.391 . S
C533 N536 1.329 . S
C533 H543 0.930 . S
C534 C533 1.391 . S
C534 N535 1.334 . S
C534 H541 0.930 . S
N535 Zn519 2.119 . S
N535 C531 1.328 . S
N535 C534 1.334 . S
N536 C532 1.331 . S
N536 C533 1.329 . S
H537 C531 0.930 . S
C538 O518 1.257 1_655 S
C538 O539 1.244 . S
O539 C538 1.244 . S
O540 C516 1.257 . S
O540 Zn519 2.019 . S
H541 C534 0.930 . S
H542 C521 0.930 . S
H543 C533 0.930 . S
C544 C545 1.369 1_545 S
C544 C546 1.419 1_556 S
C544 H548 0.930 . S
C545 C544 1.369 1_565 S
C545 C554 1.429 . S
C546 C544 1.419 1_554 S
C546 C547 1.363 . S
C546 H549 0.929 . S
C547 C546 1.363 . S
C547 C553 1.428 1_545 S
H548 C544 0.930 . S
H549 C546 0.929 . S
S550 N551 1.613 1_554 S
S550 N552 1.610 . S
N551 S550 1.613 1_556 S
N551 C554 1.350 . S
N552 S550 1.610 . S
N552 C553 1.351 . S
C553 C547 1.428 1_565 S
C553 N552 1.351 . S
C553 C554 1.434 1_554 S
C554 C545 1.429 . S
C554 N551 1.350 . S
C554 C553 1.434 1_556 S
C555 C556 1.369 . S
C555 C557 1.419 1_554 S
C555 H559 0.930 . S
C556 C555 1.369 . S
C556 C565 1.429 . S
C557 C555 1.419 1_556 S
C557 C558 1.363 . S
C557 H560 0.929 . S
C558 C557 1.363 . S
C558 C564 1.428 . S
H559 C555 0.930 . S
H560 C557 0.929 . S
S561 N562 1.613 1_556 S
S561 N563 1.610 . S
N562 S561 1.613 1_554 S
N562 C565 1.350 . S
N563 S561 1.610 . S
N563 C564 1.351 . S
C564 C558 1.428 . S
C564 N563 1.351 . S
C564 C565 1.434 1_556 S
C565 C556 1.429 . S
C565 N562 1.350 . S
C565 C564 1.434 1_554 S
C566 C567 1.369 . S
C566 C568 1.419 1_456 S
C566 H570 0.930 . S
C567 C566 1.369 . S
C567 C576 1.429 . S
C568 C566 1.419 1_654 S
C568 C569 1.363 . S
C568 H571 0.929 . S
C569 C568 1.363 . S
C569 C575 1.428 . S
H570 C566 0.930 . S
H571 C568 0.929 . S
S572 N573 1.613 1_655 S
S572 N574 1.610 1_556 S
N573 S572 1.613 1_455 S
N573 C576 1.350 . S
N574 S572 1.610 1_554 S
N574 C575 1.351 . S
C575 C569 1.428 . S
C575 N574 1.351 . S
C575 C576 1.434 1_654 S
C576 C567 1.429 . S
C576 N573 1.350 . S
C576 C575 1.434 1_456 S
C577 C578 1.369 1_545 S
C577 C579 1.419 1_554 S
C577 H581 0.930 . S
C578 C577 1.369 1_565 S
C578 C587 1.429 1_455 S
C579 C577 1.419 1_556 S
C579 C580 1.363 1_455 S
C579 H582 0.929 . S
C580 C579 1.363 1_655 S
C580 C586 1.428 1_545 S
H581 C577 0.930 . S
H582 C579 0.929 . S
S583 N584 1.613 1_556 S
S583 N585 1.610 . S
N584 S583 1.613 1_554 S
N584 C587 1.350 . S
N585 S583 1.610 . S
N585 C586 1.351 . S
C586 C580 1.428 1_565 S
C586 N585 1.351 . S
C586 C587 1.434 1_556 S
C587 C578 1.429 1_655 S
C587 N584 1.350 . S
C587 C586 1.434 1_554 S
C588 C589 1.369 1_545 S
C588 C590 1.419 . S
C588 H592 0.930 . S
C589 C588 1.369 1_565 S
C589 C598 1.429 1_455 S
C590 C588 1.419 . S
C590 C591 1.363 1_455 S
C590 H593 0.929 . S
C591 C590 1.363 1_655 S
C591 C597 1.428 1_545 S
H592 C588 0.930 . S
H593 C590 0.929 . S
S594 N595 1.613 . S
S594 N596 1.610 . S
N595 S594 1.613 . S
N595 C598 1.350 . S
N596 S594 1.610 . S
N596 C597 1.351 . S
C597 C591 1.428 1_565 S
C597 N596 1.351 . S
C597 C598 1.434 . S
C598 C589 1.429 1_655 S
C598 N595 1.350 . S
C598 C597 1.434 . S
C599 C600 1.369 . S
C599 C601 1.419 . S
C599 H603 0.930 . S
C600 C599 1.369 . S
C600 C609 1.429 1_545 S
C601 C599 1.419 . S
C601 C602 1.363 1_545 S
C601 H604 0.929 . S
C602 C601 1.363 1_565 S
C602 C608 1.428 . S
H603 C599 0.930 . S
H604 C601 0.929 . S
S605 N606 1.613 . S
S605 N607 1.610 . S
N606 S605 1.613 . S
N606 C609 1.350 . S
N607 S605 1.610 . S
N607 C608 1.351 . S
C608 C602 1.428 . S
C608 N607 1.351 . S
C608 C609 1.434 . S
C609 C600 1.429 1_565 S
C609 N606 1.350 . S
C609 C608 1.434 . S
C610 C611 1.369 . S
C610 C612 1.419 . S
C610 H614 0.930 . S
C611 C610 1.369 . S
C611 C620 1.429 . S
C612 C610 1.419 . S
C612 C613 1.363 . S
C612 H615 0.929 . S
C613 C612 1.363 . S
C613 C619 1.428 . S
H614 C610 0.930 . S
H615 C612 0.929 . S
S616 N617 1.613 . S
S616 N618 1.610 . S
N617 S616 1.613 . S
N617 C620 1.350 . S
N618 S616 1.610 . S
N618 C619 1.351 . S
C619 C613 1.428 . S
C619 N618 1.351 . S
C619 C620 1.434 . S
C620 C611 1.429 . S
C620 N617 1.350 . S
C620 C619 1.434 . S
C621 C622 1.369 1_655 S
C621 C623 1.419 . S
C621 H625 0.930 . S
C622 C621 1.369 1_455 S
C622 C631 1.429 . S
C623 C621 1.419 . S
C623 C624 1.363 . S
C623 H626 0.929 . S
C624 C623 1.363 . S
C624 C630 1.428 1_655 S
H625 C621 0.930 . S
H626 C623 0.929 . S
S627 N628 1.613 . S
S627 N629 1.610 . S
N628 S627 1.613 . S
N628 C631 1.350 . S
N629 S627 1.610 . S
N629 C630 1.351 . S
C630 C624 1.428 1_455 S
C630 N629 1.351 . S
C630 C631 1.434 . S
C631 C622 1.429 . S
C631 N628 1.350 . S
C631 C630 1.434 . S
C632 C633 1.369 . S
C632 C634 1.419 . S
C632 H636 0.930 . S
C633 C632 1.369 . S
C633 C642 1.429 . S
C634 C632 1.419 . S
C634 C635 1.363 . S
C634 H637 0.929 . S
C635 C634 1.363 . S
C635 C641 1.428 . S
H636 C632 0.930 . S
H637 C634 0.929 . S
S638 N639 1.613 . S
S638 N640 1.610 . S
N639 S638 1.613 . S
N639 C642 1.350 . S
N640 S638 1.610 . S
N640 C641 1.351 . S
C641 C635 1.428 . S
C641 N640 1.351 . S
C641 C642 1.434 . S
C642 C633 1.429 . S
C642 N639 1.350 . S
C642 C641 1.434 . S
C643 C644 1.369 . S
C643 C645 1.419 . S
C643 H647 0.930 . S
C644 C643 1.369 . S
C644 C653 1.429 . S
C645 C643 1.419 . S
C645 C646 1.363 . S
C645 H648 0.929 . S
C646 C645 1.363 . S
C646 C652 1.428 . S
H647 C643 0.930 . S
H648 C645 0.929 . S
S649 N650 1.613 . S
S649 N651 1.610 . S
N650 S649 1.613 . S
N650 C653 1.350 . S
N651 S649 1.610 . S
N651 C652 1.351 . S
C652 C646 1.428 . S
C652 N651 1.351 . S
C652 C653 1.434 . S
C653 C644 1.429 . S
C653 N650 1.350 . S
C653 C652 1.434 . S
C654 C655 1.369 . S
C654 C656 1.419 . S
C654 H658 0.930 . S
C655 C654 1.369 . S
C655 C664 1.429 . S
C656 C654 1.419 . S
C656 C657 1.363 . S
C656 H659 0.929 . S
C657 C656 1.363 . S
C657 C663 1.428 . S
H658 C654 0.930 . S
H659 C656 0.929 . S
S660 N661 1.613 . S
S660 N662 1.610 . S
N661 S660 1.613 . S
N661 C664 1.350 . S
N662 S660 1.610 . S
N662 C663 1.351 . S
C663 C657 1.428 . S
C663 N662 1.351 . S
C663 C664 1.434 . S
C664 C655 1.429 . S
C664 N661 1.350 . S
C664 C663 1.434 . S
C665 C666 1.369 . S
C665 C667 1.419 . S
C665 H669 0.930 1_565 S
C666 C665 1.369 . S
C666 C675 1.429 . S
C667 C665 1.419 . S
C667 C668 1.363 . S
C667 H670 0.929 . S
C668 C667 1.363 . S
C668 C674 1.428 . S
H669 C665 0.930 1_545 S
H670 C667 0.929 . S
S671 N672 1.613 . S
S671 N673 1.610 . S
N672 S671 1.613 . S
N672 C675 1.350 . S
N673 S671 1.610 . S
N673 C674 1.351 . S
C674 C668 1.428 . S
C674 N673 1.351 . S
C674 C675 1.434 . S
C675 C666 1.429 . S
C675 N672 1.350 . S
C675 C674 1.434 . S
C676 C677 1.369 . S
C676 C678 1.419 . S
C676 H680 0.930 . S
C677 C676 1.369 . S
C677 C686 1.429 . S
C678 C676 1.419 . S
C678 C679 1.363 . S
C678 H681 0.929 . S
C679 C678 1.363 . S
C679 C685 1.428 . S
H680 C676 0.930 . S
H681 C678 0.929 . S
S682 N683 1.613 . S
S682 N684 1.610 . S
N683 S682 1.613 . S
N683 C686 1.350 . S
N684 S682 1.610 . S
N684 C685 1.351 . S
C685 C679 1.428 . S
C685 N684 1.351 . S
C685 C686 1.434 . S
C686 C677 1.429 . S
C686 N683 1.350 . S
C686 C685 1.434 . S
C687 C688 1.369 . S
C687 C689 1.419 . S
C687 H691 0.930 . S
C688 C687 1.369 . S
C688 C697 1.429 . S
C689 C687 1.419 . S
C689 C690 1.363 . S
C689 H692 0.929 . S
C690 C689 1.363 . S
C690 C696 1.428 . S
H691 C687 0.930 . S
H692 C689 0.929 . S
S693 N694 1.613 . S
S693 N695 1.610 . S
N694 S693 1.613 . S
N694 C697 1.350 1_565 S
N695 S693 1.610 . S
N695 C696 1.351 1_565 S
C696 C690 1.428 . S
C696 N695 1.351 1_545 S
C696 C697 1.434 . S
C697 C688 1.429 . S
C697 N694 1.350 1_545 S
C697 C696 1.434 . S
C698 C699 1.369 . S
C698 C700 1.419 . S
C698 H702 0.930 . S
C699 C698 1.369 . S
C699 C708 1.429 . S
C700 C698 1.419 . S
C700 C701 1.363 . S
C700 H703 0.929 . S
C701 C700 1.363 . S
C701 C707 1.428 . S
H702 C698 0.930 . S
H703 C700 0.929 . S
S704 N705 1.613 . S
S704 N706 1.610 . S
N705 S704 1.613 . S
N705 C708 1.350 . S
N706 S704 1.610 . S
N706 C707 1.351 . S
C707 C701 1.428 . S
C707 N706 1.351 . S
C707 C708 1.434 . S
C708 C699 1.429 . S
C708 N705 1.350 . S
C708 C707 1.434 . S
C709 C710 1.369 . S
C709 C711 1.419 . S
C709 H713 0.930 . S
C710 C709 1.369 . S
C710 C719 1.429 . S
C711 C709 1.419 . S
C711 C712 1.363 . S
C711 H714 0.929 . S
C712 C711 1.363 . S
C712 C718 1.428 . S
H713 C709 0.930 . S
H714 C711 0.929 . S
S715 N716 1.613 . S
S715 N717 1.610 . S
N716 S715 1.613 . S
N716 C719 1.350 . S
N717 S715 1.610 . S
N717 C718 1.351 . S
C718 C712 1.428 . S
C718 N717 1.351 . S
C718 C719 1.434 . S
C719 C710 1.429 . S
C719 N716 1.350 . S
C719 C718 1.434 . S
C720 C721 1.369 . S
C720 C722 1.419 . S
C720 H724 0.930 . S
C721 C720 1.369 . S
C721 C730 1.429 . S
C722 C720 1.419 . S
C722 C723 1.363 . S
C722 H725 0.929 . S
C723 C722 1.363 . S
C723 C729 1.428 . S
H724 C720 0.930 . S
H725 C722 0.929 . S
S726 N727 1.613 . S
S726 N728 1.610 . S
N727 S726 1.613 . S
N727 C730 1.350 . S
N728 S726 1.610 . S
N728 C729 1.351 . S
C729 C723 1.428 . S
C729 N728 1.351 . S
C729 C730 1.434 . S
C730 C721 1.429 . S
C730 N727 1.350 . S
C730 C729 1.434 . S
C731 C732 1.369 . S
C731 C733 1.419 . S
C731 H735 0.930 . S
C732 C731 1.369 . S
C732 C741 1.429 . S
C733 C731 1.419 . S
C733 C734 1.363 . S
C733 H736 0.929 . S
C734 C733 1.363 . S
C734 C740 1.428 . S
H735 C731 0.930 . S
H736 C733 0.929 . S
S737 N738 1.613 . S
S737 N739 1.610 . S
N738 S737 1.613 . S
N738 C741 1.350 . S
N739 S737 1.610 . S
N739 C740 1.351 . S
C740 C734 1.428 . S
C740 N739 1.351 . S
C740 C741 1.434 . S
C741 C732 1.429 . S
C741 N738 1.350 . S
C741 C740 1.434 . S
C742 C743 1.369 . S
C742 C744 1.419 . S
C742 H746 0.930 . S
C743 C742 1.369 . S
C743 C752 1.429 . S
C744 C742 1.419 . S
C744 C745 1.363 . S
C744 H747 0.929 . S
C745 C744 1.363 . S
C745 C751 1.428 . S
H746 C742 0.930 . S
H747 C744 0.929 . S
S748 N749 1.613 . S
S748 N750 1.615 . S
N749 S748 1.613 . S
N749 C752 1.350 1_655 S
N750 S748 1.615 . S
N750 C751 1.347 1_655 S
C751 C745 1.428 . S
C751 N750 1.347 1_455 S
C751 C752 1.434 . S
C752 C743 1.429 . S
C752 N749 1.350 1_455 S
C752 C751 1.434 . S
C753 C754 1.369 . S
C753 C755 1.419 . S
C753 H757 0.930 . S
C754 C753 1.369 . S
C754 C763 1.429 . S
C755 C753 1.419 . S
C755 C756 1.363 . S
C755 H758 0.929 . S
C756 C755 1.363 . S
C756 C762 1.428 . S
H757 C753 0.930 . S
H758 C755 0.929 . S
S759 N760 1.613 . S
S759 N761 1.610 1_565 S
N760 S759 1.613 . S
N760 C763 1.350 1_565 S
N761 S759 1.610 1_545 S
N761 C762 1.351 . S
C762 C756 1.428 . S
C762 N761 1.351 . S
C762 C763 1.434 . S
C763 C754 1.429 . S
C763 N760 1.350 1_545 S
C763 C762 1.434 . S
C764 C765 1.369 . S
C764 C766 1.419 . S
C764 H768 0.930 . S
C765 C764 1.369 . S
C765 C774 1.429 . S
C766 C764 1.419 . S
C766 C767 1.363 . S
C766 H769 0.929 . S
C767 C766 1.363 . S
C767 C773 1.428 . S
H768 C764 0.930 . S
H769 C766 0.929 . S
S770 N771 1.613 . S
S770 N772 1.610 1_455 S
N771 S770 1.613 . S
N771 C774 1.350 1_455 S
N772 S770 1.610 1_655 S
N772 C773 1.351 . S
C773 C767 1.428 . S
C773 N772 1.351 . S
C773 C774 1.434 . S
C774 C765 1.429 . S
C774 N771 1.350 1_655 S
C774 C773 1.434 . S
C775 C776 1.369 . S
C775 C777 1.419 . S
C775 H779 0.930 . S
C776 C775 1.369 . S
C776 C785 1.429 . S
C777 C775 1.419 . S
C777 C778 1.363 . S
C777 H780 0.929 . S
C778 C777 1.363 . S
C778 C784 1.428 . S
H779 C775 0.930 . S
H780 C777 0.929 . S
S781 N782 1.613 . S
S781 N783 1.610 . S
N782 S781 1.613 . S
N782 C785 1.350 . S
N783 S781 1.610 . S
N783 C784 1.351 . S
C784 C778 1.428 . S
C784 N783 1.351 . S
C784 C785 1.434 . S
C785 C776 1.429 . S
C785 N782 1.350 . S
C785 C784 1.434 . S
C786 C787 1.369 . S
C786 C788 1.419 . S
C786 H790 0.930 . S
C787 C786 1.369 . S
C787 C796 1.429 . S
C788 C786 1.419 . S
C788 C789 1.363 . S
C788 H791 0.929 . S
C789 C788 1.363 . S
C789 C795 1.428 . S
H790 C786 0.930 . S
H791 C788 0.929 . S
S792 N793 1.613 . S
S792 N794 1.610 . S
N793 S792 1.613 . S
N793 C796 1.350 . S
N794 S792 1.610 . S
N794 C795 1.351 . S
C795 C789 1.428 . S
C795 N794 1.351 . S
C795 C796 1.434 . S
C796 C787 1.429 . S
C796 N793 1.350 . S
C796 C795 1.434 . S
C797 C798 1.369 . S
C797 C799 1.419 . S
C797 H801 0.930 . S
C798 C797 1.369 . S
C798 C807 1.429 . S
C799 C797 1.419 . S
C799 C800 1.363 . S
C799 H802 0.929 . S
C800 C799 1.363 . S
C800 C806 1.428 . S
H801 C797 0.930 . S
H802 C799 0.929 . S
S803 N804 1.613 . S
S803 N805 1.610 . S
N804 S803 1.613 . S
N804 C807 1.350 . S
N805 S803 1.610 . S
N805 C806 1.351 . S
C806 C800 1.428 . S
C806 N805 1.351 . S
C806 C807 1.434 . S
C807 C798 1.429 . S
C807 N804 1.350 . S
C807 C806 1.434 . S
C808 C809 1.369 . S
C808 C810 1.419 . S
C808 H812 0.930 1_554 S
C809 C808 1.369 . S
C809 C818 1.429 . S
C810 C808 1.419 . S
C810 C811 1.363 . S
C810 H813 0.929 . S
C811 C810 1.363 . S
C811 C817 1.428 . S
H812 C808 0.930 1_556 S
H813 C810 0.929 . S
S814 N815 1.613 . S
S814 N816 1.610 . S
N815 S814 1.613 . S
N815 C818 1.350 . S
N816 S814 1.610 . S
N816 C817 1.351 . S
C817 C811 1.428 . S
C817 N816 1.351 . S
C817 C818 1.434 . S
C818 C809 1.429 . S
C818 N815 1.350 . S
C818 C817 1.434 . S
C819 C820 1.369 . S
C819 C821 1.419 . S
C819 H823 0.930 . S
C820 C819 1.369 . S
C820 C829 1.429 . S
C821 C819 1.419 . S
C821 C822 1.363 . S
C821 H824 0.929 . S
C822 C821 1.363 . S
C822 C828 1.428 . S
H823 C819 0.930 . S
H824 C821 0.929 . S
S825 N826 1.613 . S
S825 N827 1.610 1_556 S
N826 S825 1.613 . S
N826 C829 1.350 1_556 S
N827 S825 1.610 1_554 S
N827 C828 1.351 . S
C828 C822 1.428 . S
C828 N827 1.351 . S
C828 C829 1.434 . S
C829 C820 1.429 . S
C829 N826 1.350 1_554 S
C829 C828 1.434 . S
C830 C831 1.369 . S
C830 C832 1.419 . S
C830 H834 0.930 1_554 S
C831 C830 1.369 . S
C831 C840 1.429 . S
C832 C830 1.419 . S
C832 C833 1.363 . S
C832 H835 0.929 . S
C833 C832 1.363 . S
C833 C839 1.428 . S
H834 C830 0.930 1_556 S
H835 C832 0.929 . S
S836 N837 1.613 . S
S836 N838 1.610 . S
N837 S836 1.613 . S
N837 C840 1.350 . S
N838 S836 1.610 . S
N838 C839 1.351 . S
C839 C833 1.428 . S
C839 N838 1.351 . S
C839 C840 1.434 . S
C840 C831 1.429 . S
C840 N837 1.350 . S
C840 C839 1.434 . S
C841 C842 1.369 . S
C841 C843 1.419 . S
C841 H845 0.930 . S
C842 C841 1.369 . S
C842 C851 1.429 . S
C843 C841 1.419 . S
C843 C844 1.363 . S
C843 H846 0.929 . S
C844 C843 1.363 . S
C844 C850 1.428 . S
H845 C841 0.930 . S
H846 C843 0.929 . S
S847 N848 1.613 1_554 S
S847 N849 1.610 . S
N848 S847 1.613 1_556 S
N848 C851 1.350 1_556 S
N849 S847 1.610 . S
N849 C850 1.351 . S
C850 C844 1.428 . S
C850 N849 1.351 . S
C850 C851 1.434 . S
C851 C842 1.429 . S
C851 N848 1.350 1_554 S
C851 C850 1.434 . S
C852 C853 1.369 . S
C852 C854 1.419 . S
C852 H856 0.930 . S
C853 C852 1.369 . S
C853 C862 1.429 . S
C854 C852 1.419 . S
C854 C855 1.363 . S
C854 H857 0.929 . S
C855 C854 1.363 . S
C855 C861 1.428 . S
H856 C852 0.930 . S
H857 C854 0.929 . S
S858 N859 1.613 . S
S858 N860 1.610 . S
N859 S858 1.613 . S
N859 C862 1.350 . S
N860 S858 1.610 . S
N860 C861 1.351 . S
C861 C855 1.428 . S
C861 N860 1.351 . S
C861 C862 1.434 . S
C862 C853 1.429 . S
C862 N859 1.350 . S
C862 C861 1.434 . S
C863 C864 1.369 . S
C863 C865 1.419 . S
C863 H867 0.930 . S
C864 C863 1.369 . S
C864 C873 1.429 . S
C865 C863 1.419 . S
C865 C866 1.363 . S
C865 H868 0.929 . S
C866 C865 1.363 . S
C866 C872 1.428 . S
H867 C863 0.930 . S
H868 C865 0.929 . S
S869 N870 1.613 . S
S869 N871 1.610 . S
N870 S869 1.613 . S
N870 C873 1.350 . S
N871 S869 1.610 . S
N871 C872 1.351 . S
C872 C866 1.428 . S
C872 N871 1.351 . S
C872 C873 1.434 . S
C873 C864 1.429 . S
C873 N870 1.350 . S
C873 C872 1.434 . S
C874 C875 1.369 . S
C874 C876 1.419 . S
C874 H878 0.930 . S
C875 C874 1.369 . S
C875 C884 1.429 . S
C876 C874 1.419 . S
C876 C877 1.363 . S
C876 H879 0.929 . S
C877 C876 1.363 . S
C877 C883 1.428 . S
H878 C874 0.930 . S
H879 C876 0.929 . S
S880 N881 1.613 . S
S880 N882 1.610 . S
N881 S880 1.613 . S
N881 C884 1.350 . S
N882 S880 1.610 . S
N882 C883 1.351 . S
C883 C877 1.428 . S
C883 N882 1.351 . S
C883 C884 1.434 . S
C884 C875 1.429 . S
C884 N881 1.350 . S
C884 C883 1.434 . S
C885 C886 1.369 . S
C885 C887 1.419 . S
C885 H889 0.930 . S
C886 C885 1.369 . S
C886 C895 1.429 . S
C887 C885 1.419 . S
C887 C888 1.363 . S
C887 H890 0.929 . S
C888 C887 1.363 . S
C888 C894 1.428 . S
H889 C885 0.930 . S
H890 C887 0.929 . S
S891 N892 1.613 . S
S891 N893 1.610 . S
N892 S891 1.613 . S
N892 C895 1.350 . S
N893 S891 1.610 . S
N893 C894 1.351 . S
C894 C888 1.428 . S
C894 N893 1.351 . S
C894 C895 1.434 . S
C895 C886 1.429 . S
C895 N892 1.350 . S
C895 C894 1.434 . S
C896 C897 1.369 . S
C896 C898 1.419 . S
C896 H900 0.930 . S
C897 C896 1.369 . S
C897 C906 1.429 . S
C898 C896 1.419 . S
C898 C899 1.363 . S
C898 H901 0.929 . S
C899 C898 1.363 . S
C899 C905 1.428 . S
H900 C896 0.930 . S
H901 C898 0.929 . S
S902 N903 1.613 1_554 S
S902 N904 1.610 . S
N903 S902 1.613 1_556 S
N903 C906 1.350 . S
N904 S902 1.610 . S
N904 C905 1.351 1_554 S
C905 C899 1.428 . S
C905 N904 1.351 1_556 S
C905 C906 1.434 . S
C906 C897 1.429 . S
C906 N903 1.350 . S
C906 C905 1.434 . S
C907 C908 1.369 . S
C907 C909 1.419 . S
C907 H911 0.930 . S
C908 C907 1.369 . S
C908 C917 1.429 . S
C909 C907 1.419 . S
C909 C910 1.363 . S
C909 H912 0.929 . S
C910 C909 1.363 . S
C910 C916 1.428 . S
H911 C907 0.930 . S
H912 C909 0.929 . S
S913 N914 1.613 1_554 S
S913 N915 1.610 . S
N914 S913 1.613 1_556 S
N914 C917 1.350 . S
N915 S913 1.610 . S
N915 C916 1.351 1_554 S
C916 C910 1.428 . S
C916 N915 1.351 1_556 S
C916 C917 1.434 . S
C917 C908 1.429 . S
C917 N914 1.350 . S
C917 C916 1.434 . S
C918 C919 1.369 . S
C918 C920 1.419 . S
C918 H922 0.930 . S
C919 C918 1.369 . S
C919 C928 1.429 . S
C920 C918 1.419 . S
C920 C921 1.363 . S
C920 H923 0.929 . S
C921 C920 1.363 . S
C921 C927 1.428 . S
H922 C918 0.930 . S
H923 C920 0.929 . S
S924 N925 1.613 1_554 S
S924 N926 1.610 . S
N925 S924 1.613 1_556 S
N925 C928 1.350 . S
N926 S924 1.610 . S
N926 C927 1.351 1_554 S
C927 C921 1.428 . S
C927 N926 1.351 1_556 S
C927 C928 1.434 . S
C928 C919 1.429 . S
C928 N925 1.350 . S
C928 C927 1.434 . S
C929 C930 1.369 . S
C929 C931 1.419 . S
C929 H933 0.930 . S
C930 C929 1.369 . S
C930 C939 1.429 . S
C931 C929 1.419 . S
C931 C932 1.363 . S
C931 H934 0.929 . S
C932 C931 1.363 . S
C932 C938 1.428 . S
H933 C929 0.930 . S
H934 C931 0.929 . S
S935 N936 1.613 1_565 S
S935 N937 1.610 . S
N936 S935 1.613 1_545 S
N936 C939 1.350 . S
N937 S935 1.610 . S
N937 C938 1.351 1_565 S
C938 C932 1.428 . S
C938 N937 1.351 1_545 S
C938 C939 1.434 . S
C939 C930 1.429 . S
C939 N936 1.350 . S
C939 C938 1.434 . S
C940 C941 1.369 . S
C940 C942 1.419 . S
C940 H944 0.930 . S
C941 C940 1.369 . S
C941 C950 1.429 . S
C942 C940 1.419 . S
C942 C943 1.363 . S
C942 H945 0.929 . S
C943 C942 1.363 . S
C943 C949 1.428 . S
H944 C940 0.930 . S
H945 C942 0.929 . S
S946 N947 1.613 . S
S946 N948 1.610 . S
N947 S946 1.613 . S
N947 C950 1.350 . S
N948 S946 1.610 . S
N948 C949 1.351 . S
C949 C943 1.428 . S
C949 N948 1.351 . S
C949 C950 1.434 . S
C950 C941 1.429 . S
C950 N947 1.350 . S
C950 C949 1.434 . S
C951 C952 1.369 . S
C951 C953 1.419 . S
C951 H955 0.930 . S
C952 C951 1.369 . S
C952 C961 1.429 . S
C953 C951 1.419 . S
C953 C954 1.363 . S
C953 H956 0.929 1_565 S
C954 C953 1.363 . S
C954 C960 1.428 . S
H955 C951 0.930 . S
H956 C953 0.929 1_545 S
S957 N958 1.613 . S
S957 N959 1.610 . S
N958 S957 1.613 . S
N958 C961 1.350 . S
N959 S957 1.610 . S
N959 C960 1.351 . S
C960 C954 1.428 . S
C960 N959 1.351 . S
C960 C961 1.434 . S
C961 C952 1.429 . S
C961 N958 1.350 . S
C961 C960 1.434 . S
C962 C963 1.369 . S
C962 C964 1.419 . S
C962 H966 0.930 . S
C963 C962 1.369 . S
C963 C972 1.429 . S
C964 C962 1.419 . S
C964 C965 1.363 . S
C964 H967 0.929 . S
C965 C964 1.363 . S
C965 C971 1.428 . S
H966 C962 0.930 . S
H967 C964 0.929 . S
S968 N969 1.613 . S
S968 N970 1.610 . S
N969 S968 1.613 . S
N969 C972 1.350 . S
N970 S968 1.610 . S
N970 C971 1.351 . S
C971 C965 1.428 . S
C971 N970 1.351 . S
C971 C972 1.434 . S
C972 C963 1.429 . S
C972 N969 1.350 . S
C972 C971 1.434 . S
C973 C974 1.369 . S
C973 C975 1.419 . S
C973 H977 0.930 . S
C974 C973 1.369 . S
C974 C983 1.429 . S
C975 C973 1.419 . S
C975 C976 1.363 . S
C975 H978 0.929 . S
C976 C975 1.363 . S
C976 C982 1.428 . S
H977 C973 0.930 . S
H978 C975 0.929 . S
S979 N980 1.613 . S
S979 N981 1.610 . S
N980 S979 1.613 . S
N980 C983 1.350 . S
N981 S979 1.610 . S
N981 C982 1.351 . S
C982 C976 1.428 . S
C982 N981 1.351 . S
C982 C983 1.434 . S
C983 C974 1.429 . S
C983 N980 1.350 . S
C983 C982 1.434 . S
C984 C985 1.369 . S
C984 C986 1.419 . S
C984 H988 0.930 . S
C985 C984 1.369 . S
C985 C994 1.429 . S
C986 C984 1.419 . S
C986 C987 1.363 . S
C986 H989 0.929 . S
C987 C986 1.363 . S
C987 C993 1.428 . S
H988 C984 0.930 . S
H989 C986 0.929 . S
S990 N991 1.613 . S
S990 N992 1.610 . S
N991 S990 1.613 . S
N991 C994 1.350 . S
N992 S990 1.610 . S
N992 C993 1.351 . S
C993 C987 1.428 . S
C993 N992 1.351 . S
C993 C994 1.434 . S
C994 C985 1.429 . S
C994 N991 1.350 . S
C994 C993 1.434 . S
C995 C996 1.369 . S
C995 C997 1.419 . S
C995 H999 0.930 . S
C996 C995 1.369 . S
C996 C1005 1.429 . S
C997 C995 1.419 . S
C997 C998 1.363 . S
C997 H1000 0.929 . S
C998 C997 1.363 . S
C998 C1004 1.428 . S
H999 C995 0.930 . S
H1000 C997 0.929 . S
S1001 N1002 1.613 . S
S1001 N1003 1.610 . S
N1002 S1001 1.613 . S
N1002 C1005 1.350 . S
N1003 S1001 1.610 . S
N1003 C1004 1.351 . S
C1004 C998 1.428 . S
C1004 N1003 1.351 . S
C1004 C1005 1.434 . S
C1005 C996 1.429 . S
C1005 N1002 1.350 . S
C1005 C1004 1.434 . S
C1006 C1007 1.369 . S
C1006 C1008 1.419 . S
C1006 H1010 0.930 . S
C1007 C1006 1.369 . S
C1007 C1016 1.429 . S
C1008 C1006 1.419 . S
C1008 C1009 1.363 . S
C1008 H1011 0.929 . S
C1009 C1008 1.363 . S
C1009 C1015 1.428 . S
H1010 C1006 0.930 . S
H1011 C1008 0.929 . S
S1012 N1013 1.613 . S
S1012 N1014 1.610 . S
N1013 S1012 1.613 . S
N1013 C1016 1.350 . S
N1014 S1012 1.610 . S
N1014 C1015 1.351 . S
C1015 C1009 1.428 . S
C1015 N1014 1.351 . S
C1015 C1016 1.434 . S
C1016 C1007 1.429 . S
C1016 N1013 1.350 . S
C1016 C1015 1.434 . S
C1017 C1018 1.369 . S
C1017 C1019 1.419 . S
C1017 H1021 0.930 . S
C1018 C1017 1.369 . S
C1018 C1027 1.429 . S
C1019 C1017 1.419 . S
C1019 C1020 1.363 . S
C1019 H1022 0.929 . S
C1020 C1019 1.363 . S
C1020 C1026 1.428 . S
H1021 C1017 0.930 . S
H1022 C1019 0.929 . S
S1023 N1024 1.613 . S
S1023 N1025 1.610 1_545 S
N1024 S1023 1.613 . S
N1024 C1027 1.350 1_545 S
N1025 S1023 1.610 1_565 S
N1025 C1026 1.351 . S
C1026 C1020 1.428 . S
C1026 N1025 1.351 . S
C1026 C1027 1.434 . S
C1027 C1018 1.429 . S
C1027 N1024 1.350 1_565 S
C1027 C1026 1.434 . S
C1028 C1029 1.369 . S
C1028 C1030 1.419 . S
C1028 H1032 0.930 . S
C1029 C1028 1.369 . S
C1029 C1038 1.429 . S
C1030 C1028 1.419 . S
C1030 C1031 1.363 . S
C1030 H1033 0.929 . S
C1031 C1030 1.363 . S
C1031 C1037 1.428 . S
H1032 C1028 0.930 . S
H1033 C1030 0.929 . S
S1034 N1035 1.613 1_545 S
S1034 N1036 1.610 1_545 S
N1035 S1034 1.613 1_565 S
N1035 C1038 1.350 . S
N1036 S1034 1.610 1_565 S
N1036 C1037 1.351 . S
C1037 C1031 1.428 . S
C1037 N1036 1.351 . S
C1037 C1038 1.434 . S
C1038 C1029 1.429 . S
C1038 N1035 1.350 . S
C1038 C1037 1.434 . S
C1039 C1040 1.369 . S
C1039 C1041 1.419 . S
C1039 H1043 0.930 . S
C1040 C1039 1.369 . S
C1040 C1049 1.429 . S
C1041 C1039 1.419 . S
C1041 C1042 1.363 . S
C1041 H1044 0.929 . S
C1042 C1041 1.363 . S
C1042 C1048 1.428 . S
H1043 C1039 0.930 . S
H1044 C1041 0.929 . S
S1045 N1046 1.613 . S
S1045 N1047 1.610 . S
N1046 S1045 1.613 . S
N1046 C1049 1.350 . S
N1047 S1045 1.610 . S
N1047 C1048 1.351 . S
C1048 C1042 1.428 . S
C1048 N1047 1.351 . S
C1048 C1049 1.434 . S
C1049 C1040 1.429 . S
C1049 N1046 1.350 . S
C1049 C1048 1.434 . S
C1050 C1051 1.369 . S
C1050 C1052 1.419 . S
C1050 H1054 0.930 . S
C1051 C1050 1.369 . S
C1051 C1060 1.429 . S
C1052 C1050 1.419 . S
C1052 C1053 1.363 . S
C1052 H1055 0.929 . S
C1053 C1052 1.363 . S
C1053 C1059 1.428 . S
H1054 C1050 0.930 . S
H1055 C1052 0.929 . S
S1056 N1057 1.613 . S
S1056 N1058 1.610 . S
N1057 S1056 1.613 . S
N1057 C1060 1.350 . S
N1058 S1056 1.610 . S
N1058 C1059 1.351 . S
C1059 C1053 1.428 . S
C1059 N1058 1.351 . S
C1059 C1060 1.434 . S
C1060 C1051 1.429 . S
C1060 N1057 1.350 . S
C1060 C1059 1.434 . S
C1061 C1062 1.369 . S
C1061 C1063 1.419 . S
C1061 H1065 0.930 . S
C1062 C1061 1.369 . S
C1062 C1071 1.429 . S
C1063 C1061 1.419 . S
C1063 C1064 1.363 . S
C1063 H1066 0.929 . S
C1064 C1063 1.363 . S
C1064 C1070 1.428 . S
H1065 C1061 0.930 . S
H1066 C1063 0.929 . S
S1067 N1068 1.613 1_455 S
S1067 N1069 1.610 1_455 S
N1068 S1067 1.613 1_655 S
N1068 C1071 1.350 . S
N1069 S1067 1.610 1_655 S
N1069 C1070 1.351 . S
C1070 C1064 1.428 . S
C1070 N1069 1.351 . S
C1070 C1071 1.434 . S
C1071 C1062 1.429 . S
C1071 N1068 1.350 . S
C1071 C1070 1.434 . S
C1072 C1073 1.369 . S
C1072 C1074 1.419 . S
C1072 H1076 0.930 . S
C1073 C1072 1.369 . S
C1073 C1082 1.429 . S
C1074 C1072 1.419 . S
C1074 C1075 1.363 . S
C1074 H1077 0.929 . S
C1075 C1074 1.363 . S
C1075 C1081 1.428 . S
H1076 C1072 0.930 . S
H1077 C1074 0.929 . S
S1078 N1079 1.613 . S
S1078 N1080 1.610 . S
N1079 S1078 1.613 . S
N1079 C1082 1.350 . S
N1080 S1078 1.610 . S
N1080 C1081 1.351 . S
C1081 C1075 1.428 . S
C1081 N1080 1.351 . S
C1081 C1082 1.434 . S
C1082 C1073 1.429 . S
C1082 N1079 1.350 . S
C1082 C1081 1.434 . S
C1083 C1084 1.369 . S
C1083 C1085 1.419 . S
C1083 H1087 0.930 . S
C1084 C1083 1.369 . S
C1084 C1093 1.429 . S
C1085 C1083 1.419 . S
C1085 C1086 1.363 . S
C1085 H1088 0.929 . S
C1086 C1085 1.363 . S
C1086 C1092 1.428 . S
H1087 C1083 0.930 . S
H1088 C1085 0.929 . S
S1089 N1090 1.613 . S
S1089 N1091 1.610 . S
N1090 S1089 1.613 . S
N1090 C1093 1.350 . S
N1091 S1089 1.610 . S
N1091 C1092 1.351 . S
C1092 C1086 1.428 . S
C1092 N1091 1.351 . S
C1092 C1093 1.434 . S
C1093 C1084 1.429 . S
C1093 N1090 1.350 . S
C1093 C1092 1.434 . S
C1094 C1095 1.369 . S
C1094 C1096 1.419 . S
C1094 H1098 0.930 . S
C1095 C1094 1.369 . S
C1095 C1104 1.429 . S
C1096 C1094 1.419 . S
C1096 C1097 1.363 . S
C1096 H1099 0.929 . S
C1097 C1096 1.363 . S
C1097 C1103 1.428 . S
H1098 C1094 0.930 . S
H1099 C1096 0.929 . S
S1100 N1101 1.613 . S
S1100 N1102 1.610 . S
N1101 S1100 1.613 . S
N1101 C1104 1.350 . S
N1102 S1100 1.610 . S
N1102 C1103 1.351 . S
C1103 C1097 1.428 . S
C1103 N1102 1.351 . S
C1103 C1104 1.434 . S
C1104 C1095 1.429 . S
C1104 N1101 1.350 . S
C1104 C1103 1.434 . S
C1105 C1106 1.369 . S
C1105 C1107 1.419 . S
C1105 H1109 0.930 . S
C1106 C1105 1.369 . S
C1106 C1115 1.429 . S
C1107 C1105 1.419 . S
C1107 C1108 1.363 . S
C1107 H1110 0.929 . S
C1108 C1107 1.363 . S
C1108 C1114 1.428 . S
H1109 C1105 0.930 . S
H1110 C1107 0.929 . S
S1111 N1112 1.613 . S
S1111 N1113 1.610 . S
N1112 S1111 1.613 . S
N1112 C1115 1.350 . S
N1113 S1111 1.610 . S
N1113 C1114 1.351 . S
C1114 C1108 1.428 . S
C1114 N1113 1.351 . S
C1114 C1115 1.434 . S
C1115 C1106 1.429 . S
C1115 N1112 1.350 . S
C1115 C1114 1.434 . S
C1116 C1117 1.369 . S
C1116 C1118 1.419 . S
C1116 H1120 0.930 . S
C1117 C1116 1.369 . S
C1117 C1126 1.429 . S
C1118 C1116 1.419 . S
C1118 C1119 1.363 . S
C1118 H1121 0.929 . S
C1119 C1118 1.363 . S
C1119 C1125 1.428 . S
H1120 C1116 0.930 . S
H1121 C1118 0.929 . S
S1122 N1123 1.613 . S
S1122 N1124 1.610 . S
N1123 S1122 1.613 . S
N1123 C1126 1.350 . S
N1124 S1122 1.610 . S
N1124 C1125 1.351 . S
C1125 C1119 1.428 . S
C1125 N1124 1.351 . S
C1125 C1126 1.434 . S
C1126 C1117 1.429 . S
C1126 N1123 1.350 . S
C1126 C1125 1.434 . S
C1127 C1128 1.369 . S
C1127 C1129 1.419 . S
C1127 H1131 0.930 . S
C1128 C1127 1.369 . S
C1128 C1137 1.429 . S
C1129 C1127 1.419 . S
C1129 C1130 1.363 . S
C1129 H1132 0.929 . S
C1130 C1129 1.363 . S
C1130 C1136 1.428 . S
H1131 C1127 0.930 . S
H1132 C1129 0.929 . S
S1133 N1134 1.613 . S
S1133 N1135 1.610 . S
N1134 S1133 1.613 . S
N1134 C1137 1.350 . S
N1135 S1133 1.610 . S
N1135 C1136 1.351 . S
C1136 C1130 1.428 . S
C1136 N1135 1.351 . S
C1136 C1137 1.434 . S
C1137 C1128 1.429 . S
C1137 N1134 1.350 . S
C1137 C1136 1.434 . S
C1138 C1139 1.369 . S
C1138 C1140 1.419 . S
C1138 H1142 0.930 . S
C1139 C1138 1.369 . S
C1139 C1148 1.429 . S
C1140 C1138 1.419 . S
C1140 C1141 1.363 . S
C1140 H1143 0.929 . S
C1141 C1140 1.363 . S
C1141 C1147 1.428 . S
H1142 C1138 0.930 . S
H1143 C1140 0.929 . S
S1144 N1145 1.613 . S
S1144 N1146 1.610 . S
N1145 S1144 1.613 . S
N1145 C1148 1.350 . S
N1146 S1144 1.610 . S
N1146 C1147 1.351 . S
C1147 C1141 1.428 . S
C1147 N1146 1.351 . S
C1147 C1148 1.434 . S
C1148 C1139 1.429 . S
C1148 N1145 1.350 . S
C1148 C1147 1.434 . S
C1149 C1150 1.369 . S
C1149 C1151 1.419 . S
C1149 H1153 0.930 . S
C1150 C1149 1.369 . S
C1150 C1159 1.429 . S
C1151 C1149 1.419 . S
C1151 C1152 1.363 . S
C1151 H1154 0.929 . S
C1152 C1151 1.363 . S
C1152 C1158 1.428 . S
H1153 C1149 0.930 . S
H1154 C1151 0.929 . S
S1155 N1156 1.613 . S
S1155 N1157 1.610 . S
N1156 S1155 1.613 . S
N1156 C1159 1.350 . S
N1157 S1155 1.610 . S
N1157 C1158 1.351 . S
C1158 C1152 1.428 . S
C1158 N1157 1.351 . S
C1158 C1159 1.434 . S
C1159 C1150 1.429 . S
C1159 N1156 1.350 . S
C1159 C1158 1.434 . S
C545 C275 2.841 . S
C547 C3 2.838 . S
C556 C37 2.839 . S
C558 C307 2.839 . S
C567 C343 2.838 . S
C569 C69 2.840 . S
C578 C103 2.838 . S
C580 C375 2.840 . S
C589 C137 2.840 . S
C591 C409 2.839 . S
C600 C171 2.839 . S
C602 C443 2.839 . S
C611 C477 2.840 . S
C613 C207 2.839 . S
C622 C511 2.840 . S
C624 C241 2.839 . S
C633 C1 2.006 . S
C635 C40 1.819 . S
C644 C96 1.819 . S
C646 C35 2.005 . S
C655 C130 1.819 . S
C657 C71 2.005 . S
C666 C6 1.820 . S
C668 C105 2.006 . S
C677 C244 1.820 . S
C679 C139 2.006 . S
C688 C164 1.809 . S
C690 C173 2.001 . S
C699 C205 2.000 . S
C701 C198 1.811 . S
C710 C239 2.006 . S
C712 C210 1.819 . S
C721 C334 1.818 . S
C723 C273 2.004 . S
C732 C309 2.002 . S
C734 C346 1.815 . S
C743 C402 1.812 . S
C745 C341 2.001 . S
C754 C278 1.816 . S
C756 C377 2.003 . S
C765 C538 1.809 . S
C767 C411 2.001 . S
C776 C436 1.808 . S
C778 C445 2.001 . S
C787 C470 1.812 . S
C789 C479 2.001 . S
C798 C504 1.808 . S
C800 C513 2.001 . S
C809 C328 0.791 1_554 S
C811 C28 0.772 . S
C820 C355 0.766 1_554 S
C822 C62 0.776 . S
C831 C396 0.789 1_554 S
C833 C74 0.780 . S
C842 C287 0.772 1_554 S
C844 C108 0.770 . S
C853 C532 0.765 . S
C855 C142 0.783 . S
C864 C430 0.791 . S
C866 C176 0.772 . S
C875 C232 0.774 . S
C877 C464 0.769 . S
C886 C498 0.766 . S
C888 C266 0.786 . S
C897 C300 0.773 . S
C899 C49 0.771 1_556 S
C908 C312 0.786 . S
C910 C90 0.768 1_556 S
C919 C368 0.774 . S
C921 C124 0.771 1_556 S
C930 C15 0.769 1_556 S
C932 C380 0.788 . S
C941 C414 0.781 . S
C943 C253 0.768 . S
C952 C158 0.791 . S
C954 C448 0.770 . S
C963 C482 0.770 . S
C965 C192 0.788 . S
C974 C516 0.778 . S
C976 C219 0.769 . S
C985 C185 1.348 . S
C987 C22 1.354 . S
C996 C226 1.349 . S
C998 C56 1.353 . S
C1007 C260 1.351 . S
C1009 C83 1.356 . S
C1018 C151 1.357 . S
C1020 C117 1.350 . S
C1029 C457 1.356 . S
C1031 C294 1.352 . S
C1040 C321 1.353 . S
C1042 C491 1.349 . S
C1051 C362 1.357 . S
C1053 C525 1.351 . S
C1062 C389 1.356 . S
C1064 C423 1.349 . S
C1073 C85 2.015 . S
C1075 C17 2.015 . S
C1084 C51 2.017 . S
C1086 C119 2.014 . S
C1095 C221 2.014 . S
C1097 C153 2.018 . S
C1106 C255 2.014 . S
C1108 C187 2.015 . S
C1117 C289 2.019 . S
C1119 C357 2.015 . S
C1128 C391 2.014 . S
C1130 C323 2.018 . S
C1139 C493 2.019 . S
C1141 C425 2.017 . S
C1150 C527 2.014 . S
C1152 C459 2.018 . S
