# Generated by pormake.
# Topology wjm, (5)-cn, num edge types: 1
# Building blocks:
#     Node 0, Type 0, BuildingBlock: BEQFEK_clean_sbu_0, # of connection points: 5
#     Node 1, Type 0, BuildingBlock: BEQFEK_clean_sbu_0, # of connection points: 5
#     Node 2, Type 0, BuildingBlock: BEQFEK_clean_sbu_0, # of connection points: 5
#     Node 3, Type 0, BuildingBlock: BEQFEK_clean_sbu_0, # of connection points: 5
#     Node 4, Type 0, BuildingBlock: BEQFEK_clean_sbu_0, # of connection points: 5
#     Node 5, Type 0, BuildingBlock: BEQFEK_clean_sbu_0, # of connection points: 5
#     Node 6, Type 0, BuildingBlock: BEQFEK_clean_sbu_0, # of connection points: 5
#     Node 7, Type 0, BuildingBlock: BEQFEK_clean_sbu_0, # of connection points: 5
#     Node 8, Type 0, BuildingBlock: BEQFEK_clean_sbu_0, # of connection points: 5
#     Node 9, Type 0, BuildingBlock: BEQFEK_clean_sbu_0, # of connection points: 5
#     Node 10, Type 0, BuildingBlock: BEQFEK_clean_sbu_0, # of connection points: 5
#     Node 11, Type 0, BuildingBlock: BEQFEK_clean_sbu_0, # of connection points: 5
#     Edge 12, Type (0, 0), BuildingBlock: XUDNAN_clean_linker_2, # of connection points: 2
#     Edge 13, Type (0, 0), BuildingBlock: XUDNAN_clean_linker_2, # of connection points: 2
#     Edge 14, Type (0, 0), BuildingBlock: XUDNAN_clean_linker_2, # of connection points: 2
#     Edge 15, Type (0, 0), BuildingBlock: XUDNAN_clean_linker_2, # of connection points: 2
#     Edge 16, Type (0, 0), BuildingBlock: XUDNAN_clean_linker_2, # of connection points: 2
#     Edge 17, Type (0, 0), BuildingBlock: XUDNAN_clean_linker_2, # of connection points: 2
#     Edge 18, Type (0, 0), BuildingBlock: XUDNAN_clean_linker_2, # of connection points: 2
#     Edge 19, Type (0, 0), BuildingBlock: XUDNAN_clean_linker_2, # of connection points: 2
#     Edge 20, Type (0, 0), BuildingBlock: XUDNAN_clean_linker_2, # of connection points: 2
#     Edge 21, Type (0, 0), BuildingBlock: XUDNAN_clean_linker_2, # of connection points: 2
#     Edge 22, Type (0, 0), BuildingBlock: XUDNAN_clean_linker_2, # of connection points: 2
#     Edge 23, Type (0, 0), BuildingBlock: XUDNAN_clean_linker_2, # of connection points: 2
#     Edge 24, Type (0, 0), BuildingBlock: XUDNAN_clean_linker_2, # of connection points: 2
#     Edge 25, Type (0, 0), BuildingBlock: XUDNAN_clean_linker_2, # of connection points: 2
#     Edge 26, Type (0, 0), BuildingBlock: XUDNAN_clean_linker_2, # of connection points: 2
#     Edge 27, Type (0, 0), BuildingBlock: XUDNAN_clean_linker_2, # of connection points: 2
#     Edge 28, Type (0, 0), BuildingBlock: XUDNAN_clean_linker_2, # of connection points: 2
#     Edge 29, Type (0, 0), BuildingBlock: XUDNAN_clean_linker_2, # of connection points: 2
#     Edge 30, Type (0, 0), BuildingBlock: XUDNAN_clean_linker_2, # of connection points: 2
#     Edge 31, Type (0, 0), BuildingBlock: XUDNAN_clean_linker_2, # of connection points: 2
#     Edge 32, Type (0, 0), BuildingBlock: XUDNAN_clean_linker_2, # of connection points: 2
#     Edge 33, Type (0, 0), BuildingBlock: XUDNAN_clean_linker_2, # of connection points: 2
#     Edge 34, Type (0, 0), BuildingBlock: XUDNAN_clean_linker_2, # of connection points: 2
#     Edge 35, Type (0, 0), BuildingBlock: XUDNAN_clean_linker_2, # of connection points: 2
#     Edge 36, Type (0, 0), BuildingBlock: XUDNAN_clean_linker_2, # of connection points: 2
#     Edge 37, Type (0, 0), BuildingBlock: XUDNAN_clean_linker_2, # of connection points: 2
#     Edge 38, Type (0, 0), BuildingBlock: XUDNAN_clean_linker_2, # of connection points: 2
#     Edge 39, Type (0, 0), BuildingBlock: XUDNAN_clean_linker_2, # of connection points: 2
#     Edge 40, Type (0, 0), BuildingBlock: XUDNAN_clean_linker_2, # of connection points: 2
#     Edge 41, Type (0, 0), BuildingBlock: XUDNAN_clean_linker_2, # of connection points: 2
# Relax obj value: 0.678
# Max RMSD: 0.241
# Mean RMSD: 0.241
data_MOF--net-wjm--node1-BEQFEK_clean_sbu_0--edge1-XUDNAN_clean_linker_2
_symmetry_space_group_name_H-M    P1
_symmetry_Int_Tables_number       1
_symmetry_cell_setting            triclinic
loop_
_symmetry_equiv_pos_as_xyz
'x, y, z'
_cell_length_a     35.574347
_cell_length_b     35.537824
_cell_length_c     43.621992
_cell_angle_alpha  90.082541
_cell_angle_beta   90.46522
_cell_angle_gamma 119.91279
loop_
_atom_site_label
_atom_site_type_symbol
_atom_site_fract_x
_atom_site_fract_y
_atom_site_fract_z
_atom_type_partial_charge
Co0 Co 0.27479 0.42814 0.27051 0.0
Co1 Co 0.25734 0.38735 0.20452 0.0
C2 C 0.22517 0.33356 0.26378 0.0
O3 O 0.23596 0.36777 0.27923 0.0
O4 O 0.23229 0.33516 0.2348 0.0
C5 C 0.3098 0.45018 0.32896 0.0
O6 O 0.30983 0.41352 0.3253 0.0
C7 C 0.20747 0.34583 0.14531 0.0
C8 C 0.25977 0.3829 0.11234 0.0
C9 C 0.2159 0.35298 0.11382 0.0
N10 N 0.24449 0.37144 0.16123 0.0
N11 N 0.27556 0.39275 0.14113 0.0
C12 C 0.16553 0.31465 0.16012 0.0
H13 H 0.17177 0.30525 0.18304 0.0
H14 H 0.14539 0.33011 0.16331 0.0
H15 H 0.14711 0.28535 0.14547 0.0
C16 C 0.24689 0.48448 0.24278 0.0
N17 N 0.25272 0.45003 0.24126 0.0
N18 N 0.24135 0.43169 0.21402 0.0
C19 C 0.22539 0.45325 0.19766 0.0
C20 C 0.22813 0.48748 0.21546 0.0
C21 C 0.26513 0.51713 0.2684 0.0
H22 H 0.29653 0.5209 0.2763 0.0
H23 H 0.24239 0.50547 0.28795 0.0
H24 H 0.27099 0.54949 0.26115 0.0
O25 O 0.32947 0.43509 0.25697 0.0
O26 O 0.3231 0.41399 0.20855 0.0
H27 H 0.23378 0.45166 0.1493 0.0
H28 H 0.18612 0.45462 0.15991 0.0
C29 C 0.20695 0.44067 0.16595 0.0
H30 H 0.1869 0.40507 0.16435 0.0
H31 H 0.30742 0.41562 0.14709 0.0
O32 O 0.29018 0.4606 0.30923 0.0
C33 C 0.34601 0.43006 0.2328 0.0
Co34 Co 0.84006 0.26548 0.60712 0.0
Co35 Co 0.87927 0.26518 0.54329 0.0
C36 C 0.89985 0.23221 0.60375 0.0
O37 O 0.87124 0.23613 0.61824 0.0
O38 O 0.90738 0.24281 0.57535 0.0
C39 C 0.83238 0.29201 0.66605 0.0
O40 O 0.87152 0.2977 0.67001 0.0
C41 C 0.87933 0.22321 0.48321 0.0
C42 C 0.91968 0.28153 0.45563 0.0
C43 C 0.89471 0.23671 0.45344 0.0
N44 N 0.89415 0.25857 0.50156 0.0
N45 N 0.91877 0.29312 0.48486 0.0
C46 C 0.84857 0.17817 0.49381 0.0
H47 H 0.8342 0.17897 0.51613 0.0
H48 H 0.82252 0.16051 0.47648 0.0
H49 H 0.86654 0.16036 0.49698 0.0
C50 C 0.75866 0.22508 0.57293 0.0
N51 N 0.80136 0.23886 0.5744 0.0
N52 N 0.81658 0.24084 0.5467 0.0
C53 C 0.78348 0.22974 0.52639 0.0
C54 C 0.74554 0.21866 0.54247 0.0
C55 C 0.73277 0.22469 0.59997 0.0
H56 H 0.74442 0.25862 0.60747 0.0
H57 H 0.73783 0.20725 0.61921 0.0
H58 H 0.69766 0.20924 0.59465 0.0
O59 O 0.88163 0.32667 0.59726 0.0
O60 O 0.90728 0.32924 0.55076 0.0
H61 H 0.82138 0.25952 0.48626 0.0
H62 H 0.76388 0.23931 0.48138 0.0
C63 C 0.78852 0.23315 0.49232 0.0
H64 H 0.78376 0.20202 0.48305 0.0
H65 H 0.93368 0.32496 0.49313 0.0
O66 O 0.81016 0.27063 0.64285 0.0
C67 C 0.90525 0.3483 0.57493 0.0
Co68 Co 0.56467 0.851 0.94109 0.0
Co69 Co 0.61242 0.86635 0.87711 0.0
C70 C 0.66457 0.90303 0.93245 0.0
O71 O 0.6278 0.8865 0.94519 0.0
O72 O 0.66738 0.89772 0.90364 0.0
C73 C 0.51683 0.8188 1.00284 0.0
O74 O 0.52173 0.80867 0.03098 0.0
C75 C 0.64748 0.86118 0.81399 0.0
C76 C 0.59045 0.85064 0.78664 0.0
C77 C 0.63017 0.85285 0.78427 0.0
N78 N 0.61879 0.86345 0.83303 0.0
N79 N 0.58522 0.85765 0.81616 0.0
C80 C 0.68843 0.86287 0.82428 0.0
H81 H 0.69214 0.86638 0.84958 0.0
H82 H 0.68813 0.83284 0.81682 0.0
H83 H 0.71644 0.89071 0.81319 0.0
C84 C 0.51745 0.76215 0.9176 0.0
N85 N 0.5499 0.80329 0.91534 0.0
N86 N 0.57255 0.80757 0.89064 0.0
C87 C 0.5564 0.76783 0.87737 0.0
C88 C 0.52085 0.73735 0.89424 0.0
C89 C 0.47931 0.74969 0.93779 0.0
H90 H 0.47297 0.77709 0.93874 0.0
H91 H 0.48669 0.74283 0.96119 0.0
H92 H 0.44941 0.72113 0.92889 0.0
O93 O 0.54497 0.88882 0.92331 0.0
O94 O 0.58488 0.90442 0.88116 0.0
H95 H 0.55948 0.76464 0.82865 0.0
H96 H 0.5685 0.72549 0.84882 0.0
C97 C 0.57479 0.75937 0.84922 0.0
H98 H 0.61023 0.78209 0.84841 0.0
H99 H 0.5577 0.85681 0.82511 0.0
O100 O 0.54895 0.83313 0.98484 0.0
C101 C 0.55918 0.90988 0.89854 0.0
Co102 Co 0.74457 0.57009 0.26625 0.0
Co103 Co 0.74796 0.61296 0.20254 0.0
C104 C 0.76999 0.66322 0.26303 0.0
O105 O 0.76959 0.63117 0.27622 0.0
O106 O 0.76332 0.66283 0.23396 0.0
C107 C 0.72738 0.54158 0.3274 0.0
O108 O 0.72604 0.5772 0.33262 0.0
C109 C 0.78195 0.65563 0.14013 0.0
C110 C 0.72979 0.60482 0.11155 0.0
C111 C 0.76979 0.6421 0.10975 0.0
N112 N 0.75069 0.62681 0.15891 0.0
N113 N 0.71928 0.59739 0.14131 0.0
C114 C 0.82434 0.69259 0.15095 0.0
H115 H 0.82847 0.69059 0.17604 0.0
H116 H 0.85144 0.69267 0.13845 0.0
H117 H 0.82519 0.72355 0.14571 0.0
C118 C 0.77766 0.52462 0.2306 0.0
N119 N 0.76998 0.55776 0.23396 0.0
N120 N 0.77811 0.57977 0.20844 0.0
C121 C 0.79589 0.56359 0.18871 0.0
C122 C 0.79577 0.52738 0.2019 0.0
C123 C 0.75839 0.48632 0.25168 0.0
H124 H 0.72924 0.48342 0.26276 0.0
H125 H 0.7824 0.49075 0.26977 0.0
H126 H 0.74804 0.45547 0.23913 0.0
O127 O 0.68414 0.54822 0.25639 0.0
O128 O 0.6829 0.5731 0.21006 0.0
H129 H 0.78845 0.5719 0.14089 0.0
H130 H 0.84008 0.57658 0.15129 0.0
C131 C 0.81457 0.58388 0.15854 0.0
H132 H 0.82963 0.61947 0.16061 0.0
H133 H 0.69177 0.57023 0.14969 0.0
O134 O 0.74488 0.53852 0.303 0.0
C135 C 0.66314 0.55084 0.23363 0.0
Co136 Co 0.1658 0.75015 0.59355 0.0
Co137 Co 0.1193 0.74723 0.53223 0.0
C138 C 0.10545 0.78113 0.59543 0.0
O139 O 0.13834 0.78168 0.60735 0.0
O140 O 0.09472 0.76927 0.5673 0.0
C141 C 0.18077 0.7283 0.65243 0.0
O142 O 0.14269 0.72423 0.65803 0.0
C143 C 0.12286 0.7913 0.47283 0.0
C144 C 0.07502 0.7355 0.44529 0.0
C145 C 0.10618 0.77901 0.44301 0.0
N146 N 0.10292 0.7564 0.49135 0.0
N147 N 0.07379 0.72349 0.4747 0.0
C148 C 0.15996 0.8341 0.48302 0.0
H149 H 0.17203 0.83149 0.50598 0.0
H150 H 0.1866 0.84616 0.46613 0.0
H151 H 0.14874 0.85808 0.48459 0.0
C152 C 0.24198 0.78324 0.55541 0.0
N153 N 0.20087 0.77431 0.55942 0.0
N154 N 0.18125 0.76807 0.53274 0.0
C155 C 0.20899 0.77016 0.5108 0.0
C156 C 0.24873 0.78058 0.52444 0.0
C157 C 0.27116 0.78513 0.58102 0.0
H158 H 0.26756 0.80225 0.60107 0.0
H159 H 0.30559 0.80213 0.57388 0.0
H160 H 0.26205 0.75158 0.5878 0.0
O161 O 0.11954 0.68929 0.58512 0.0
O162 O 0.08967 0.68334 0.53921 0.0
H163 H 0.16089 0.73039 0.47709 0.0
H164 H 0.21546 0.74244 0.4683 0.0
C165 C 0.19571 0.75549 0.47833 0.0
H166 H 0.20088 0.78362 0.4643 0.0
H167 H 0.05477 0.69205 0.483 0.0
O168 O 0.19884 0.74406 0.62704 0.0
C169 C 0.09291 0.66627 0.56404 0.0
Co170 Co 0.43377 0.17962 0.91884 0.0
Co171 Co 0.38286 0.1305 0.85926 0.0
C172 C 0.3418 0.11072 0.92361 0.0
O173 O 0.37695 0.14043 0.93528 0.0
O174 O 0.33814 0.10407 0.89449 0.0
C175 C 0.49199 0.2438 0.9742 0.0
O176 O 0.48072 0.27057 0.98627 0.0
C177 C 0.34455 0.13567 0.79887 0.0
C178 C 0.33729 0.07747 0.77529 0.0
C179 C 0.33377 0.11416 0.77065 0.0
N180 N 0.355 0.11324 0.81894 0.0
N181 N 0.34993 0.07818 0.80461 0.0
C182 C 0.34272 0.17567 0.80695 0.0
H183 H 0.34374 0.18007 0.83219 0.0
H184 H 0.37039 0.20458 0.79668 0.0
H185 H 0.31259 0.17325 0.79734 0.0
C186 C 0.4629 0.25515 0.881 0.0
N187 N 0.43306 0.21324 0.88574 0.0
N188 N 0.42105 0.1927 0.85931 0.0
C189 C 0.44685 0.22013 0.83729 0.0
C190 C 0.4736 0.26101 0.85028 0.0
C191 C 0.48788 0.28685 0.90607 0.0
H192 H 0.51541 0.28247 0.91334 0.0
H193 H 0.46636 0.28157 0.92577 0.0
H194 H 0.50129 0.32073 0.89803 0.0
O195 O 0.46002 0.1436 0.90542 0.0
O196 O 0.42073 0.10479 0.86504 0.0
H197 H 0.43518 0.16972 0.80443 0.0
H198 H 0.48791 0.21741 0.80236 0.0
C199 C 0.45306 0.20557 0.80641 0.0
H200 H 0.44201 0.21979 0.78829 0.0
H201 H 0.35684 0.05555 0.81449 0.0
O202 O 0.46939 0.21859 0.95251 0.0
C203 C 0.45105 0.11472 0.88471 0.0
Co204 Co 0.58433 0.75264 0.41702 0.0
Co205 Co 0.60764 0.73553 0.48258 0.0
C206 C 0.67215 0.77639 0.42877 0.0
O207 O 0.6471 0.78607 0.4145 0.0
O208 O 0.66053 0.75612 0.45429 0.0
C209 C 0.53716 0.74119 0.35849 0.0
O210 O 0.53266 0.75741 0.33259 0.0
C211 C 0.64005 0.77068 0.54582 0.0
C212 C 0.62014 0.71015 0.57131 0.0
C213 C 0.63834 0.75461 0.57534 0.0
N214 N 0.62327 0.73717 0.52566 0.0
N215 N 0.61209 0.70124 0.54116 0.0
C216 C 0.65329 0.81633 0.53721 0.0
H217 H 0.64146 0.81748 0.51382 0.0
H218 H 0.64065 0.83065 0.55403 0.0
H219 H 0.6892 0.83609 0.53745 0.0
C220 C 0.5334 0.78271 0.45146 0.0
N221 N 0.56417 0.77116 0.45027 0.0
N222 N 0.57097 0.7609 0.47787 0.0
C223 C 0.5422 0.76262 0.4971 0.0
C224 C 0.51771 0.77704 0.48107 0.0
C225 C 0.51503 0.79351 0.42406 0.0
H226 H 0.54094 0.81203 0.40725 0.0
H227 H 0.49998 0.81307 0.4309 0.0
H228 H 0.48959 0.76327 0.41303 0.0
O229 O 0.56575 0.68818 0.42025 0.0
O230 O 0.57224 0.67459 0.46929 0.0
H231 H 0.53728 0.71506 0.5296 0.0
H232 H 0.50052 0.73561 0.53647 0.0
C233 C 0.53349 0.74419 0.52878 0.0
H234 H 0.55733 0.76879 0.54492 0.0
H235 H 0.59715 0.67027 0.53133 0.0
O236 O 0.56525 0.76638 0.37789 0.0
C237 C 0.56067 0.66151 0.44175 0.0
Co238 Co 0.83256 0.58636 0.7477 0.0
Co239 Co 0.87764 0.61987 0.81252 0.0
C240 C 0.89991 0.67847 0.75588 0.0
O241 O 0.86974 0.64748 0.74089 0.0
O242 O 0.90776 0.67353 0.78391 0.0
C243 C 0.78201 0.5356 0.69132 0.0
O244 O 0.75929 0.53537 0.66734 0.0
C245 C 0.87705 0.65464 0.87509 0.0
C246 C 0.91172 0.62873 0.90204 0.0
C247 C 0.88845 0.65027 0.90506 0.0
N248 N 0.89238 0.636 0.85555 0.0
N249 N 0.91381 0.62141 0.87195 0.0
C250 C 0.84752 0.67124 0.86554 0.0
H251 H 0.8364 0.66184 0.84146 0.0
H252 H 0.81922 0.65859 0.88103 0.0
H253 H 0.86529 0.70718 0.86735 0.0
C254 C 0.75422 0.5459 0.78444 0.0
N255 N 0.79672 0.57532 0.78191 0.0
N256 N 0.81517 0.58403 0.80919 0.0
C257 C 0.78529 0.55727 0.82959 0.0
C258 C 0.7455 0.53238 0.81458 0.0
C259 C 0.72366 0.52574 0.75782 0.0
H260 H 0.73037 0.55046 0.74003 0.0
H261 H 0.6895 0.5118 0.76513 0.0
H262 H 0.72745 0.49912 0.74792 0.0
O263 O 0.87219 0.56113 0.75336 0.0
O264 O 0.9016 0.58222 0.80001 0.0
H265 H 0.8279 0.55134 0.86189 0.0
H266 H 0.77085 0.51855 0.8708 0.0
C267 C 0.79612 0.55008 0.86151 0.0
H268 H 0.79822 0.57608 0.8767 0.0
H269 H 0.92772 0.60412 0.86277 0.0
O270 O 0.79621 0.56751 0.70981 0.0
C271 C 0.89689 0.56147 0.77502 0.0
Co272 Co 0.27686 0.84484 0.08566 0.0
Co273 Co 0.25359 0.8744 0.14719 0.0
C274 C 0.24049 0.90649 0.08711 0.0
O275 O 0.25425 0.88336 0.07477 0.0
O276 O 0.23728 0.90775 0.11631 0.0
C277 C 0.25539 0.78937 0.02978 0.0
O278 O 0.21553 0.76341 0.03882 0.0
C279 C 0.21139 0.87822 0.20752 0.0
C280 C 0.26448 0.88782 0.23893 0.0
C281 C 0.22307 0.88174 0.23846 0.0
N282 N 0.2447 0.88189 0.19047 0.0
N283 N 0.27628 0.88811 0.20972 0.0
C284 C 0.16907 0.87063 0.19477 0.0
H285 H 0.16771 0.86613 0.16951 0.0
H286 H 0.14204 0.84171 0.20572 0.0
H287 H 0.1651 0.89891 0.20041 0.0
C288 C 0.2396 0.76289 0.11819 0.0
N289 N 0.24362 0.80225 0.11418 0.0
N290 N 0.22814 0.81252 0.13798 0.0
C291 C 0.20946 0.77764 0.15661 0.0
C292 C 0.21684 0.7448 0.14522 0.0
C293 C 0.26616 0.74858 0.10027 0.0
H294 H 0.29322 0.77659 0.08864 0.0
H295 H 0.24543 0.72459 0.08256 0.0
H296 H 0.28021 0.73365 0.11547 0.0
O297 O 0.33475 0.87762 0.10302 0.0
O298 O 0.31912 0.90113 0.14563 0.0
H299 H 0.20554 0.79006 0.20419 0.0
H300 H 0.15842 0.74183 0.18908 0.0
C301 C 0.18365 0.77573 0.18403 0.0
H302 H 0.16724 0.79465 0.17953 0.0
H303 H 0.30567 0.89097 0.20304 0.0
O304 O 0.28211 0.82065 0.04663 0.0
C305 C 0.34641 0.89901 0.12794 0.0
Co306 Co 0.43044 0.25765 0.41142 0.0
Co307 Co 0.39547 0.26777 0.4755 0.0
C308 C 0.33796 0.23402 0.41815 0.0
O309 O 0.36964 0.23584 0.40391 0.0
O310 O 0.34164 0.244 0.4467 0.0
C311 C 0.47779 0.25373 0.35552 0.0
O312 O 0.47693 0.2303 0.3319 0.0
C313 C 0.35666 0.23021 0.53587 0.0
C314 C 0.38176 0.28863 0.56514 0.0
C315 C 0.35864 0.2436 0.56636 0.0
N316 N 0.37805 0.26558 0.51801 0.0
N317 N 0.39232 0.30036 0.5357 0.0
C318 C 0.33899 0.18486 0.52406 0.0
H319 H 0.35182 0.18505 0.50093 0.0
H320 H 0.34725 0.16569 0.53999 0.0
H321 H 0.30317 0.16902 0.52218 0.0
C322 C 0.46989 0.21828 0.44917 0.0
N323 N 0.44216 0.23356 0.44601 0.0
N324 N 0.43096 0.24036 0.47323 0.0
C325 C 0.45336 0.23147 0.49462 0.0
C326 C 0.47835 0.21687 0.47996 0.0
C327 C 0.4898 0.20691 0.42322 0.0
H328 H 0.46496 0.18871 0.40531 0.0
H329 H 0.50366 0.18669 0.43123 0.0
H330 H 0.51627 0.23691 0.41309 0.0
O331 O 0.45566 0.32229 0.41628 0.0
O332 O 0.43273 0.32974 0.46223 0.0
H333 H 0.45484 0.27326 0.53083 0.0
H334 H 0.48741 0.24814 0.53816 0.0
C335 C 0.45662 0.24322 0.52788 0.0
H336 H 0.42948 0.21642 0.54033 0.0
H337 H 0.41116 0.33213 0.52792 0.0
O338 O 0.44657 0.23717 0.37417 0.0
C339 C 0.4538 0.3462 0.43754 0.0
Co340 Co 0.17171 0.43772 0.75501 0.0
Co341 Co 0.12776 0.39327 0.81823 0.0
C342 C 0.10845 0.34036 0.7612 0.0
O343 O 0.13541 0.37531 0.7481 0.0
O344 O 0.10152 0.33996 0.79003 0.0
C345 C 0.22412 0.4869 0.6975 0.0
O346 O 0.24604 0.48307 0.67477 0.0
C347 C 0.11264 0.35193 0.88167 0.0
C348 C 0.09892 0.39756 0.90687 0.0
C349 C 0.10485 0.36229 0.91098 0.0
N350 N 0.11223 0.38058 0.8614 0.0
N351 N 0.10342 0.40725 0.87685 0.0
C352 C 0.11834 0.31434 0.87307 0.0
H353 H 0.1238 0.31418 0.84806 0.0
H354 H 0.14603 0.31579 0.88595 0.0
H355 H 0.08888 0.28367 0.87952 0.0
C356 C 0.24953 0.48087 0.79536 0.0
N357 N 0.20733 0.45134 0.79048 0.0
N358 N 0.19071 0.42929 0.81569 0.0
C359 C 0.22286 0.44262 0.83699 0.0
C360 C 0.26146 0.47689 0.82528 0.0
C361 C 0.27671 0.51438 0.7723 0.0
H362 H 0.25654 0.51657 0.75421 0.0
H363 H 0.29904 0.50519 0.76134 0.0
H364 H 0.29551 0.54689 0.7832 0.0
O365 O 0.12789 0.45582 0.75878 0.0
O366 O 0.09855 0.42753 0.80386 0.0
H367 H 0.20198 0.43035 0.88363 0.0
H368 H 0.24915 0.42495 0.87574 0.0
C369 C 0.21763 0.41949 0.86659 0.0
H370 H 0.19683 0.38428 0.86261 0.0
H371 H 0.10191 0.43322 0.86702 0.0
O372 O 0.20768 0.45635 0.717 0.0
C373 C 0.10073 0.44919 0.77983 0.0
Co374 Co 0.71467 0.14523 0.09948 0.0
Co375 Co 0.75537 0.12644 0.15788 0.0
C376 C 0.76924 0.10121 0.09531 0.0
O377 O 0.74665 0.117 0.08481 0.0
O378 O 0.77731 0.10207 0.12411 0.0
C379 C 0.72208 0.19678 0.04545 0.0
O380 O 0.76421 0.2185 0.05025 0.0
C381 C 0.80685 0.13422 0.2172 0.0
C382 C 0.751 0.09543 0.24715 0.0
C383 C 0.79558 0.12006 0.24732 0.0
N384 N 0.77012 0.11891 0.20005 0.0
N385 N 0.73717 0.09539 0.21843 0.0
C386 C 0.8518 0.15948 0.20502 0.0
H387 H 0.85114 0.16453 0.17996 0.0
H388 H 0.86969 0.19108 0.21726 0.0
H389 H 0.86932 0.14152 0.20968 0.0
C390 C 0.75174 0.23059 0.12739 0.0
N391 N 0.74636 0.19048 0.12738 0.0
N392 N 0.76847 0.18634 0.15018 0.0
C393 C 0.79155 0.2259 0.16408 0.0
C394 C 0.78212 0.25543 0.14956 0.0
C395 C 0.72263 0.24282 0.11037 0.0
H396 H 0.69135 0.21353 0.10438 0.0
H397 H 0.73861 0.2604 0.0892 0.0
H398 H 0.71606 0.26483 0.12458 0.0
O399 O 0.66129 0.10329 0.1183 0.0
O400 O 0.68992 0.08626 0.15747 0.0
H401 H 0.80707 0.21266 0.20873 0.0
H402 H 0.837 0.2694 0.19836 0.0
C403 C 0.82318 0.23571 0.18973 0.0
H404 H 0.8502 0.23168 0.18122 0.0
H405 H 0.70467 0.07984 0.2117 0.0
O406 O 0.69786 0.16605 0.06323 0.0
C407 C 0.65711 0.0811 0.14199 0.0
H408 H 0.5995 0.53674 0.1893 0.0
H409 H 0.61762 0.51644 0.28544 0.0
H410 H 0.53967 0.48114 0.29321 0.0
H411 H 0.51242 0.55963 0.20179 0.0
H412 H 0.48173 0.53135 0.168 0.0
H413 H 0.5398 0.55476 0.1687 0.0
H414 H 0.53091 0.47988 0.15475 0.0
H415 H 0.47276 0.45619 0.15421 0.0
H416 H 0.49777 0.43363 0.17843 0.0
H417 H 0.46213 0.44868 0.2924 0.0
H418 H 0.38528 0.42352 0.28357 0.0
H419 H 0.41105 0.46244 0.18812 0.0
C420 C 0.58691 0.52454 0.21186 0.0
C421 C 0.61514 0.52913 0.23659 0.0
C422 C 0.5972 0.5131 0.26588 0.0
C423 C 0.55269 0.4928 0.27066 0.0
C424 C 0.52588 0.48819 0.24599 0.0
C425 C 0.54183 0.50361 0.21717 0.0
C426 C 0.5047 0.49496 0.19522 0.0
C427 C 0.50999 0.53773 0.18269 0.0
C428 C 0.50135 0.46434 0.1691 0.0
C429 C 0.46589 0.47282 0.21651 0.0
C430 C 0.47946 0.46923 0.24557 0.0
C431 C 0.45093 0.45115 0.26975 0.0
C432 C 0.40723 0.43699 0.26443 0.0
C433 C 0.39199 0.441 0.23516 0.0
C434 C 0.42166 0.45849 0.21062 0.0
H435 H 0.94902 0.40982 0.52997 0.0
H436 H 0.91999 0.39564 0.62729 0.0
H437 H 0.96383 0.47462 0.63415 0.0
H438 H 0.05898 0.49737 0.53651 0.0
H439 H 0.05626 0.52584 0.50316 0.0
H440 H 0.02242 0.46774 0.50534 0.0
H441 H 0.9542 0.47483 0.49616 0.0
H442 H 0.98784 0.53297 0.49393 0.0
H443 H 0.94413 0.50936 0.52101 0.0
H444 H 0.01375 0.55363 0.63177 0.0
H445 H 0.06258 0.63045 0.61943 0.0
H446 H 0.0568 0.59685 0.52309 0.0
C447 C 0.95194 0.42339 0.55269 0.0
C448 C 0.93124 0.39628 0.5781 0.0
C449 C 0.93554 0.41545 0.60742 0.0
C450 C 0.96046 0.4604 0.61162 0.0
C451 C 0.98063 0.48608 0.58626 0.0
C452 C 0.97634 0.46856 0.55728 0.0
C453 C 1.00103 0.50412 0.53396 0.0
C454 C 0.03679 0.49841 0.51886 0.0
C455 C 0.96994 0.50539 0.50984 0.0
C456 C 0.02019 0.54413 0.55452 0.0
C457 C 0.00816 0.53264 0.58462 0.0
C458 C 0.02306 0.56316 0.60825 0.0
C459 C 0.05095 0.60671 0.601 0.0
C460 C 0.06331 0.61967 0.5703 0.0
C461 C 0.04745 0.58791 0.5467 0.0
H462 H 0.41978 0.02799 0.87411 0.0
H463 H 0.53751 0.14864 0.89532 0.0
H464 H 0.57871 0.1095 0.89697 0.0
H465 H 0.44076 0.96355 0.92573 0.0
H466 H 0.41774 0.91585 0.9016 0.0
H467 H 0.39831 0.95378 0.89857 0.0
H468 H 0.4152 0.96224 0.84051 0.0
H469 H 0.4347 0.92427 0.84335 0.0
H470 H 0.46912 0.97763 0.82795 0.0
H471 H 0.60696 0.0575 0.89673 0.0
H472 H 0.61913 0.99487 0.90042 0.0
H473 H 0.48205 0.90666 0.88469 0.0
C474 C 0.45438 0.04616 0.87858 0.0
C475 C 0.47575 0.09142 0.88419 0.0
C476 C 0.52074 0.11403 0.89078 0.0
C477 C 0.54437 0.0921 0.89164 0.0
C478 C 0.52235 0.04742 0.88631 0.0
C479 C 0.47827 0.02453 0.88028 0.0
C480 C 0.46191 0.97614 0.8779 0.0
C481 C 0.42767 0.95086 0.90242 0.0
C482 C 0.44419 0.95907 0.8455 0.0
C483 C 0.50354 0.97537 0.88407 0.0
C484 C 0.53818 0.01698 0.88807 0.0
C485 C 0.58012 0.0248 0.89362 0.0
C486 C 0.58677 0.98916 0.89555 0.0
C487 C 0.55157 0.94632 0.89264 0.0
C488 C 0.50944 0.93927 0.8868 0.0
H489 H 0.52786 0.59272 0.48162 0.0
H490 H 0.55493 0.62437 0.38532 0.0
H491 H 0.53323 0.54788 0.37407 0.0
H492 H 0.56484 0.51649 0.48644 0.0
H493 H 0.52241 0.48009 0.5117 0.0
H494 H 0.54001 0.53719 0.51225 0.0
H495 H 0.46123 0.52008 0.50173 0.0
H496 H 0.44328 0.46289 0.50146 0.0
H497 H 0.43195 0.48712 0.469 0.0
H498 H 0.51168 0.46809 0.3738 0.0
H499 H 0.48479 0.3904 0.38359 0.0
H500 H 0.46762 0.41008 0.47959 0.0
C501 C 0.52891 0.58357 0.45809 0.0
C502 C 0.54351 0.61478 0.4344 0.0
C503 C 0.54397 0.60121 0.40389 0.0
C504 C 0.53173 0.55781 0.39726 0.0
C505 C 0.51823 0.52808 0.42125 0.0
C506 C 0.51604 0.54027 0.45097 0.0
C507 C 0.49951 0.50189 0.47251 0.0
C508 C 0.53374 0.50938 0.49718 0.0
C509 C 0.45643 0.49243 0.48702 0.0
C510 C 0.49301 0.46618 0.45034 0.0
C511 C 0.50446 0.48203 0.42093 0.0
C512 C 0.50224 0.45532 0.3967 0.0
C513 C 0.48707 0.41117 0.40255 0.0
C514 C 0.47372 0.39381 0.43235 0.0
C515 C 0.47725 0.42207 0.45652 0.0
H516 H 0.06024 0.47578 0.82184 0.0
H517 H 0.0682 0.45457 0.72467 0.0
H518 H 0.01371 0.47625 0.71351 0.0
H519 H 0.94496 0.44067 0.8238 0.0
H520 H 0.95166 0.48277 0.85013 0.0
H521 H 0.98926 0.46271 0.85111 0.0
H522 H 0.05335 0.54088 0.84387 0.0
H523 H 0.01597 0.56115 0.84301 0.0
H524 H 0.05275 0.57236 0.81168 0.0
H525 H 0.95748 0.49892 0.71252 0.0
H526 H 0.91011 0.53011 0.72118 0.0
H527 H 0.94191 0.5425 0.81838 0.0
C528 C 0.05022 0.47547 0.79829 0.0
C529 C 0.06833 0.46322 0.77415 0.0
C530 C 0.05492 0.46392 0.74355 0.0
C531 C 0.02374 0.47593 0.73695 0.0
C532 C 0.00653 0.48787 0.76113 0.0
C533 C 0.0197 0.48845 0.79115 0.0
C534 C 0.99808 0.50561 0.81249 0.0
C535 C 0.96928 0.47086 0.83576 0.0
C536 C 0.03206 0.54749 0.82871 0.0
C537 C 0.97095 0.5146 0.78976 0.0
C538 C 0.97575 0.50336 0.76034 0.0
C539 C 0.95369 0.50816 0.73544 0.0
C540 C 0.92673 0.52584 0.74062 0.0
C541 C 0.92248 0.53921 0.7704 0.0
C542 C 0.94462 0.53293 0.79529 0.0
H543 H 0.40304 0.98369 0.14365 0.0
H544 H 0.39273 0.85786 0.13166 0.0
H545 H 0.47104 0.89004 0.14301 0.0
H546 H 0.49878 0.04024 0.10383 0.0
H547 H 0.52181 0.08856 0.12734 0.0
H548 H 0.46394 0.05445 0.12458 0.0
H549 H 0.45974 0.04701 0.18376 0.0
H550 H 0.51784 0.08104 0.18665 0.0
H551 H 0.49159 0.02772 0.20342 0.0
H552 H 0.55105 0.93644 0.15157 0.0
H553 H 0.62792 0.99496 0.14939 0.0
H554 H 0.5873 0.09132 0.1507 0.0
C555 C 0.41725 0.96292 0.14438 0.0
C556 C 0.39211 0.91831 0.13745 0.0
C557 C 0.4117 0.8921 0.13734 0.0
C558 C 0.45599 0.91001 0.14394 0.0
C559 C 0.48031 0.95432 0.15024 0.0
C560 C 0.46177 0.98057 0.15016 0.0
C561 C 0.4961 0.02799 0.15329 0.0
C562 C 0.49509 0.05433 0.12561 0.0
C563 C 0.491 0.04706 0.18359 0.0
C564 C 0.53678 0.02438 0.1538 0.0
C565 C 0.52692 0.98153 0.15319 0.0
C566 C 0.55921 0.97011 0.15242 0.0
C567 C 0.60269 0.00342 0.15135 0.0
C568 C 0.61312 0.04729 0.1502 0.0
C569 C 0.57988 0.05787 0.152 0.0
H570 H 0.23522 0.34567 0.05425 0.0
H571 H 0.13038 0.33434 0.1108 0.0
H572 H 0.08651 0.32453 0.06441 0.0
H573 H 0.22684 0.40982 0.99867 0.0
H574 H 0.23914 0.38602 0.96652 0.0
H575 H 0.25936 0.38439 1.00411 0.0
H576 H 0.22296 0.30068 1.00024 0.0
H577 H 0.20263 0.30206 0.9625 0.0
H578 H 0.1657 0.26886 0.9919 0.0
H579 H 0.0582 0.32712 0.01169 0.0
H580 H 0.0478 0.34078 0.95759 0.0
H581 H 0.17077 0.35104 0.93464 0.0
C582 C 0.2025 0.33978 0.05698 0.0
C583 C 0.18604 0.33954 0.08656 0.0
C584 C 0.14343 0.33291 0.08884 0.0
C585 C 0.11828 0.32774 0.06241 0.0
C586 C 0.13591 0.32906 0.03367 0.0
C587 C 0.17698 0.33456 0.03081 0.0
C588 C 0.18993 0.33863 0.99731 0.0
C589 C 0.23125 0.38231 0.99132 0.0
C590 C 0.19564 0.30027 0.98741 0.0
C591 C 0.15051 0.33643 0.98179 0.0
C592 C 0.11946 0.3303 1.00317 0.0
C593 C 0.08183 0.33084 0.99473 0.0
C594 C 0.07614 0.33856 0.96391 0.0
C595 C 0.10767 0.34543 0.94164 0.0
C596 C 0.14507 0.34373 0.95075 0.0
H597 H 0.84178 0.2006 0.27363 0.0
H598 H 0.80347 0.06554 0.28682 0.0
H599 H 0.83063 0.08157 0.34037 0.0
H600 H 0.93963 0.24881 0.32618 0.0
H601 H 0.92803 0.28979 0.33986 0.0
H602 H 0.91325 0.26917 0.30124 0.0
H603 H 0.83391 0.2492 0.31173 0.0
H604 H 0.84818 0.26899 0.35047 0.0
H605 H 0.80551 0.21404 0.34334 0.0
H606 H 0.8544 0.11088 0.39433 0.0
H607 H 0.87402 0.15104 0.44344 0.0
H608 H 0.89278 0.26627 0.39589 0.0
C609 C 0.84118 0.17498 0.28741 0.0
C610 C 0.82202 0.13211 0.27584 0.0
C611 C 0.81929 0.09879 0.29504 0.0
C612 C 0.8344 0.10759 0.32553 0.0
C613 C 0.85177 0.14989 0.33668 0.0
C614 C 0.85556 0.18316 0.31812 0.0
C615 C 0.87115 0.2247 0.33653 0.0
C616 C 0.91567 0.26022 0.32528 0.0
C617 C 0.83768 0.24011 0.33545 0.0
C618 C 0.87451 0.20936 0.36837 0.0
C619 C 0.86367 0.16627 0.36796 0.0
C620 C 0.863 0.14469 0.39487 0.0
C621 C 0.87358 0.16768 0.42286 0.0
C622 C 0.88409 0.21173 0.42395 0.0
C623 C 0.88498 0.23268 0.39608 0.0
H624 H 0.59073 0.7784 0.75077 0.0
H625 H 0.70322 0.90735 0.75198 0.0
H626 H 0.72022 0.89619 0.69869 0.0
H627 H 0.64094 0.72715 0.70409 0.0
H628 H 0.59031 0.6918 0.68477 0.0
H629 H 0.59037 0.70917 0.72361 0.0
H630 H 0.54002 0.73877 0.70685 0.0
H631 H 0.54036 0.72222 0.66791 0.0
H632 H 0.55675 0.77801 0.67642 0.0
H633 H 0.71901 0.87271 0.6424 0.0
H634 H 0.70458 0.83706 0.59145 0.0
H635 H 0.59398 0.72269 0.62857 0.0
C636 C 0.61969 0.80376 0.74008 0.0
C637 C 0.64609 0.84351 0.75552 0.0
C638 C 0.68319 0.87634 0.74071 0.0
C639 C 0.69281 0.87034 0.71038 0.0
C640 C 0.66533 0.83103 0.69541 0.0
C641 C 0.63006 0.79795 0.71015 0.0
C642 C 0.60488 0.75918 0.68909 0.0
C643 C 0.60675 0.71948 0.7011 0.0
C644 C 0.55773 0.74898 0.68482 0.0
C645 C 0.63035 0.776 0.65976 0.0
C646 C 0.66517 0.81746 0.66373 0.0
C647 C 0.69204 0.8401 0.63925 0.0
C648 C 0.68327 0.81976 0.6102 0.0
C649 C 0.64787 0.77714 0.60576 0.0
C650 C 0.62148 0.75516 0.63112 0.0
H651 H 0.79225 0.59365 0.07439 0.0
H652 H 0.80418 0.72076 0.08026 0.0
H653 H 0.8371 0.73819 0.02839 0.0
H654 H 0.89484 0.62885 0.03373 0.0
H655 H 0.87236 0.57937 0.01152 0.0
H656 H 0.85231 0.57889 0.0494 0.0
H657 H 0.77433 0.54532 0.02717 0.0
H658 H 0.79417 0.54626 0.9892 0.0
H659 H 0.7633 0.57286 0.99675 0.0
H660 H 0.86215 0.73773 0.97274 0.0
H661 H 0.88469 0.72317 0.92245 0.0
H662 H 0.85949 0.5977 0.95513 0.0
C663 C 0.80259 0.62549 0.06495 0.0
C664 C 0.79594 0.65603 0.0813 0.0
C665 C 0.80955 0.6972 0.06822 0.0
C666 C 0.82796 0.70716 0.0387 0.0
C667 C 0.83313 0.6758 0.02282 0.0
C668 C 0.8216 0.63611 0.0359 0.0
C669 C 0.83019 0.60778 0.01436 0.0
C670 C 0.86447 0.59817 0.02807 0.0
C671 C 0.78799 0.56557 1.00641 0.0
C672 C 0.84754 0.63717 0.98673 0.0
C673 C 0.84877 0.67618 0.99182 0.0
C674 C 0.86172 0.70745 0.96879 0.0
C675 C 0.87412 0.69877 0.94015 0.0
C676 C 0.87388 0.65933 0.93479 0.0
C677 C 0.8605 0.62838 0.95858 0.0
H678 H 0.10778 0.74557 0.38682 0.0
H679 H 0.13865 0.86676 0.43173 0.0
H680 H 0.16547 0.9053 0.38266 0.0
H681 H 0.19969 0.78822 0.33907 0.0
H682 H 0.17117 0.75361 0.30681 0.0
H683 H 0.15249 0.73577 0.34512 0.0
H684 H 0.07662 0.7235 0.32982 0.0
H685 H 0.0953 0.7418 0.2915 0.0
H686 H 0.07188 0.76765 0.31369 0.0
H687 H 0.19301 0.93135 0.32857 0.0
H688 H 0.22152 0.94246 0.27564 0.0
H689 H 0.17091 0.80424 0.26586 0.0
C690 C 0.11975 0.78019 0.38636 0.0
C691 C 0.12158 0.80311 0.41348 0.0
C692 C 0.13786 0.84845 0.4117 0.0
C693 C 0.15268 0.8706 0.38372 0.0
C694 C 0.15075 0.84699 0.35753 0.0
C695 C 0.13469 0.80273 0.35868 0.0
C696 C 0.13796 0.78505 0.32772 0.0
C697 C 0.16707 0.76447 0.32982 0.0
C698 C 0.09274 0.75258 0.31493 0.0
C699 C 0.15898 0.82634 0.30897 0.0
C700 C 0.16575 0.86174 0.32647 0.0
C701 C 0.18711 0.90373 0.31457 0.0
C702 C 0.20287 0.90977 0.28442 0.0
C703 C 0.19699 0.87406 0.26642 0.0
C704 C 0.17425 0.83183 0.27878 0.0
H705 H 0.37981 0.1946 0.74343 0.0
H706 H 0.27219 0.06449 0.72821 0.0
H707 H 0.26388 0.08419 0.67519 0.0
H708 H 0.33854 0.25272 0.69596 0.0
H709 H 0.39165 0.29047 0.68172 0.0
H710 H 0.38596 0.26739 0.71933 0.0
H711 H 0.43828 0.23972 0.7043 0.0
H712 H 0.44382 0.26233 0.66659 0.0
H713 H 0.42627 0.2055 0.6709 0.0
H714 H 0.26937 0.11747 0.62277 0.0
H715 H 0.28914 0.16053 0.57537 0.0
H716 H 0.39584 0.26804 0.6237 0.0
C717 C 0.35352 0.17075 0.72932 0.0
C718 C 0.32577 0.12828 0.74031 0.0
C719 C 0.29328 0.09738 0.72047 0.0
C720 C 0.28837 0.10829 0.69029 0.0
C721 C 0.31656 0.15023 0.68001 0.0
C722 C 0.34854 0.181 0.69894 0.0
C723 C 0.37657 0.22274 0.68157 0.0
C724 C 0.37295 0.26057 0.69548 0.0
C725 C 0.42404 0.23317 0.6808 0.0
C726 C 0.35564 0.21056 0.6499 0.0
C727 C 0.32087 0.16872 0.64954 0.0
C728 C 0.29678 0.15017 0.6228 0.0
C729 C 0.30869 0.17481 0.59572 0.0
C730 C 0.34487 0.21748 0.59525 0.0
C731 C 0.3681 0.23552 0.62303 0.0
H732 H 0.33051 0.22489 0.35591 0.0
H733 H 0.26375 0.23655 0.435 0.0
H734 H 0.21338 0.24536 0.39997 0.0
H735 H 0.33474 0.30985 0.31832 0.0
H736 H 0.32987 0.28791 0.28028 0.0
H737 H 0.35196 0.27087 0.3108 0.0
H738 H 0.29397 0.19064 0.29991 0.0
H739 H 0.27143 0.20766 0.26937 0.0
H740 H 0.23728 0.17474 0.30006 0.0
H741 H 0.17865 0.26534 0.35641 0.0
H742 H 0.16977 0.30265 0.31168 0.0
H743 H 0.26314 0.28312 0.26158 0.0
C744 C 0.30435 0.22761 0.36617 0.0
C745 C 0.30094 0.22927 0.39855 0.0
C746 C 0.26677 0.23426 0.41048 0.0
C747 C 0.238 0.23935 0.39063 0.0
C748 C 0.24379 0.23954 0.35885 0.0
C749 C 0.27639 0.23388 0.34681 0.0
C750 C 0.28124 0.24284 0.31259 0.0
C751 C 0.32713 0.28007 0.30509 0.0
C752 C 0.27032 0.2015 0.29441 0.0
C753 C 0.24729 0.25607 0.30714 0.0
C754 C 0.22509 0.25267 0.33392 0.0
C755 C 0.19525 0.26719 0.3353 0.0
C756 C 0.19 0.28796 0.30954 0.0
C757 C 0.21491 0.2949 0.28272 0.0
C758 C 0.24221 0.27665 0.28111 0.0
H759 H 0.98874 0.27438 0.60315 0.0
H760 H 0.87703 0.17524 0.65079 0.0
H761 H 0.92341 0.18174 0.69506 0.0
H762 H 0.07279 0.24763 0.63957 0.0
H763 H 0.11259 0.30462 0.64106 0.0
H764 H 0.07327 0.28349 0.61019 0.0
H765 H 0.04982 0.33985 0.62334 0.0
H766 H 0.08839 0.36068 0.65436 0.0
H767 H 0.03191 0.3416 0.66161 0.0
H768 H 0.97729 0.2133 0.73894 0.0
H769 H 0.03464 0.26241 0.77551 0.0
H770 H 0.11306 0.33741 0.69886 0.0
C771 C 0.97466 0.252 0.62202 0.0
C772 C 0.92935 0.22366 0.62316 0.0
C773 C 0.91176 0.19654 0.64909 0.0
C774 C 0.93791 0.20021 0.67452 0.0
C775 C 0.982 0.23072 0.67368 0.0
C776 C 1.00053 0.25532 0.64769 0.0
C777 C 0.04731 0.28967 0.65404 0.0
C778 C 0.07833 0.28081 0.63509 0.0
C779 C 0.05474 0.33562 0.648 0.0
C780 C 0.05122 0.28244 0.68796 0.0
C781 C 0.01348 0.24798 0.69893 0.0
C782 C 0.00757 0.23941 0.73041 0.0
C783 C 0.04044 0.26745 0.75113 0.0
C784 C 0.07886 0.30371 0.74036 0.0
C785 C 0.08464 0.30968 0.70817 0.0
H786 H 0.67312 0.89511 0.99348 0.0
H787 H 0.73838 0.97969 0.91703 0.0
H788 H 0.78644 0.03784 0.95357 0.0
H789 H 0.66394 0.96825 0.03551 0.0
H790 H 0.67136 0.95061 0.07265 0.0
H791 H 0.65128 0.91291 0.04117 0.0
H792 H 0.71391 0.89646 0.04903 0.0
H793 H 0.7342 0.93417 0.08081 0.0
H794 H 0.76927 0.94039 0.04929 0.0
H795 H 0.81449 0.09125 0.99822 0.0
H796 H 0.81961 0.13309 0.04493 0.0
H797 H 0.73629 0.01385 0.09262 0.0
C798 C 0.69894 0.9252 0.98434 0.0
C799 C 0.70237 0.93254 0.95227 0.0
C800 C 0.73578 0.97279 0.94134 0.0
C801 C 0.76302 0.00613 0.96206 0.0
C802 C 0.75689 0.99855 0.99365 0.0
C803 C 0.72597 0.95862 1.00467 0.0
C804 C 0.72107 0.96006 0.03916 0.0
C805 C 0.67417 0.94723 0.04758 0.0
C806 C 0.73548 0.93105 0.05554 0.0
C807 C 0.75231 0.00765 0.04586 0.0
C808 C 0.77338 0.02922 0.01943 0.0
C809 C 0.79936 0.07436 0.01915 0.0
C810 C 0.80244 0.09796 0.04593 0.0
C811 C 0.77996 0.07664 0.07286 0.0
C812 C 0.75582 0.03081 0.07298 0.0
H813 H 0.67116 0.70279 0.41347 0.0
H814 H 0.73954 0.84079 0.39612 0.0
H815 H 0.7758 0.82924 0.35152 0.0
H816 H 0.75262 0.67493 0.38676 0.0
H817 H 0.71025 0.62518 0.37006 0.0
H818 H 0.69916 0.64801 0.40316 0.0
H819 H 0.63506 0.6458 0.37264 0.0
H820 H 0.64824 0.62572 0.33895 0.0
H821 H 0.64561 0.67501 0.33709 0.0
H822 H 0.79981 0.79905 0.30448 0.0
H823 H 0.80887 0.75461 0.26375 0.0
H824 H 0.71631 0.63797 0.3107 0.0
C825 C 0.69563 0.73085 0.40135 0.0
C826 C 0.70429 0.77293 0.40928 0.0
C827 C 0.73396 0.80848 0.39129 0.0
C828 C 0.75422 0.80207 0.36564 0.0
C829 C 0.74348 0.75971 0.35766 0.0
C830 C 0.71467 0.72481 0.37519 0.0
C831 C 0.70386 0.68215 0.36033 0.0
C832 C 0.71734 0.65607 0.38131 0.0
C833 C 0.65533 0.65565 0.35174 0.0
C834 C 0.73172 0.69815 0.33203 0.0
C835 C 0.75463 0.74287 0.33053 0.0
C836 C 0.78208 0.76398 0.30571 0.0
C837 C 0.78686 0.73863 0.28249 0.0
C838 C 0.76412 0.69277 0.28435 0.0
C839 C 0.73549 0.67292 0.30911 0.0
H840 H 0.989 0.71972 0.75502 0.0
H841 H 0.87833 0.71734 0.71109 0.0
H842 H 0.92304 0.75526 0.66636 0.0
H843 H 0.07538 0.82868 0.72023 0.0
H844 H 0.11256 0.80838 0.71666 0.0
H845 H 0.07484 0.79086 0.74796 0.0
H846 H 0.04617 0.71074 0.73202 0.0
H847 H 0.08332 0.72806 0.70065 0.0
H848 H 0.02605 0.69357 0.69348 0.0
H849 H 0.97417 0.77514 0.62112 0.0
H850 H 0.03008 0.78455 0.5834 0.0
H851 H 0.10947 0.78053 0.65797 0.0
C852 C 0.97502 0.72984 0.73693 0.0
C853 C 0.93027 0.71624 0.73697 0.0
C854 C 0.91269 0.72816 0.71194 0.0
C855 C 0.93783 0.74943 0.6862 0.0
C856 C 0.98105 0.75959 0.68584 0.0
C857 C 0.99993 0.75145 0.71102 0.0
C858 C 0.04562 0.76149 0.70363 0.0
C859 C 0.07908 0.79963 0.72329 0.0
C860 C 0.05052 0.72106 0.70767 0.0
C861 C 0.04852 0.7742 0.67011 0.0
C862 C 0.01109 0.77305 0.66012 0.0
C863 C 0.00431 0.77771 0.62897 0.0
C864 C 0.03628 0.78309 0.60759 0.0
C865 C 0.07488 0.78426 0.61741 0.0
C866 C 0.08111 0.78103 0.64935 0.0
H867 H 0.28485 0.99529 0.0848 0.0
H868 H 0.18483 0.88069 0.03875 0.0
H869 H 0.19116 0.9243 0.99301 0.0
H870 H 0.25942 0.07755 0.04641 0.0
H871 H 0.3164 0.11688 0.04426 0.0
H872 H 0.29627 0.07918 0.07569 0.0
H873 H 0.35134 0.05415 0.06272 0.0
H874 H 0.37118 0.09115 0.03112 0.0
H875 H 0.35131 0.03415 0.0247 0.0
H876 H 0.21957 0.97706 0.94846 0.0
H877 H 0.26485 0.03418 0.9112 0.0
H878 H 0.34534 0.11505 0.9864 0.0
C879 C 0.26236 0.9801 0.06584 0.0
C880 C 0.23308 0.93486 0.06585 0.0
C881 C 0.20629 0.91553 0.03969 0.0
C882 C 0.20997 0.94007 0.01345 0.0
C883 C 0.24069 0.98422 0.0135 0.0
C884 C 0.26591 0.00426 0.03929 0.0
C885 C 0.30027 0.05066 0.03219 0.0
C886 C 0.29262 0.08298 0.05074 0.0
C887 C 0.34621 0.05791 0.03802 0.0
C888 C 0.29179 0.0529 0.99822 0.0
C889 C 0.25698 0.01453 0.98782 0.0
C890 C 0.24618 0.00768 0.95656 0.0
C891 C 0.27206 0.04041 0.93545 0.0
C892 C 0.30857 0.07962 0.94557 0.0
C893 C 0.31735 0.08599 0.9776 0.0
H894 H 0.3839 0.50342 0.30157 0.0
H895 H 0.31865 0.47842 0.38868 0.0
H896 H 0.37984 0.54706 0.40962 0.0
H897 H 0.49938 0.56324 0.33107 0.0
H898 H 0.51587 0.60066 0.29955 0.0
H899 H 0.47304 0.54526 0.29424 0.0
H900 H 0.42176 0.57205 0.27463 0.0
H901 H 0.46385 0.6274 0.27982 0.0
H902 H 0.41232 0.60815 0.29827 0.0
H903 H 0.44099 0.62349 0.41739 0.0
H904 H 0.49485 0.70116 0.41121 0.0
H905 H 0.51737 0.67648 0.31783 0.0
C906 C 0.38349 0.5118 0.32542 0.0
C907 C 0.34749 0.48607 0.34385 0.0
C908 C 0.34665 0.49792 0.37459 0.0
C909 C 0.38124 0.53658 0.38657 0.0
C910 C 0.41592 0.56236 0.36735 0.0
C911 C 0.41727 0.5502 0.33741 0.0
C912 C 0.45397 0.58609 0.31979 0.0
C913 C 0.48756 0.57303 0.31064 0.0
C914 C 0.43693 0.59919 0.29149 0.0
C915 C 0.47185 0.62136 0.34394 0.0
C916 C 0.45033 0.60684 0.37147 0.0
C917 C 0.45858 0.63493 0.39616 0.0
C918 C 0.48894 0.67905 0.39238 0.0
C919 C 0.51023 0.69446 0.3641 0.0
C920 C 0.50197 0.66516 0.33984 0.0
H921 H 0.80972 0.34088 0.63278 0.0
H922 H 0.83859 0.32008 0.72584 0.0
H923 H 0.82839 0.38102 0.74373 0.0
H924 H 0.86954 0.45616 0.63815 0.0
H925 H 0.83307 0.46309 0.61295 0.0
H926 H 0.83984 0.41642 0.60869 0.0
H927 H 0.75681 0.36538 0.61434 0.0
H928 H 0.7497 0.41184 0.61845 0.0
H929 H 0.72985 0.37056 0.64756 0.0
H930 H 0.81141 0.44312 0.75047 0.0
H931 H 0.79559 0.50322 0.74514 0.0
H932 H 0.78664 0.48567 0.64651 0.0
C933 C 0.81287 0.34839 0.65708 0.0
C934 C 0.82337 0.32511 0.67823 0.0
C935 C 0.82947 0.33716 0.70955 0.0
C936 C 0.8239 0.37165 0.71978 0.0
C937 C 0.81348 0.39403 0.69811 0.0
C938 C 0.8087 0.38306 0.66736 0.0
C939 C 0.8005 0.41343 0.6481 0.0
C940 C 0.83796 0.43877 0.62566 0.0
C941 C 0.7566 0.38882 0.63113 0.0
C942 C 0.79982 0.44262 0.67287 0.0
C943 C 0.80729 0.43113 0.70161 0.0
C944 C 0.80641 0.45284 0.728 0.0
C945 C 0.7979 0.48723 0.72475 0.0
C946 C 0.7914 0.49998 0.69537 0.0
C947 C 0.79209 0.47705 0.66927 0.0
H948 H 0.27187 0.72382 0.02797 0.0
H949 H 0.28612 0.83452 0.97763 0.0
H950 H 0.35124 0.84216 0.95276 0.0
H951 H 0.36483 0.76617 0.05278 0.0
H952 H 0.37757 0.72306 0.05095 0.0
H953 H 0.32219 0.7101 0.05254 0.0
H954 H 0.30357 0.6657 1.00221 0.0
H955 H 0.35877 0.67654 1.00093 0.0
H956 H 0.33572 0.68959 0.96853 0.0
H957 H 0.42584 0.85783 0.95211 0.0
H958 H 0.49823 0.87091 0.96773 0.0
H959 H 0.43921 0.75045 0.01789 0.0
C960 C 0.28677 0.74707 1.00968 0.0
C961 C 0.27402 0.77807 1.00413 0.0
C962 C 0.29506 0.80985 0.98142 0.0
C963 C 0.33238 0.8146 0.96741 0.0
C964 C 0.34783 0.78709 0.97636 0.0
C965 C 0.3248 0.7527 0.9962 0.0
C966 C 0.3526 0.73423 1.00766 0.0
C967 C 0.3544 0.73344 0.04304 0.0
C968 C 0.33672 0.68882 0.994 0.0
C969 C 0.39589 0.76685 0.99443 0.0
C970 C 0.39226 0.79619 0.97559 0.0
C971 C 0.42883 0.83359 0.9652 0.0
C972 C 0.4699 0.84084 0.97399 0.0
C973 C 0.47402 0.8107 0.99263 0.0
C974 C 0.43663 0.7733 1.00286 0.0
H975 H 0.6715 0.47202 0.2944 0.0
H976 H 0.7022 0.52136 0.38755 0.0
H977 H 0.63937 0.45252 0.40611 0.0
H978 H 0.55657 0.41955 0.30168 0.0
H979 H 0.5473 0.37556 0.27641 0.0
H980 H 0.59438 0.42825 0.27146 0.0
H981 H 0.64417 0.3945 0.27601 0.0
H982 H 0.59725 0.34165 0.28081 0.0
H983 H 0.64014 0.36255 0.30919 0.0
H984 H 0.57413 0.3757 0.41342 0.0
H985 H 0.51236 0.30066 0.40885 0.0
H986 H 0.52558 0.30686 0.31005 0.0
C987 C 0.66589 0.46804 0.31882 0.0
C988 C 0.69248 0.50095 0.3398 0.0
C989 C 0.68253 0.49572 0.37136 0.0
C990 C 0.64698 0.45701 0.38196 0.0
C991 C 0.62167 0.42484 0.36046 0.0
C992 C 0.63068 0.43041 0.32952 0.0
C993 C 0.59868 0.39203 0.31066 0.0
C994 C 0.57271 0.40464 0.28876 0.0
C995 C 0.62143 0.37147 0.29316 0.0
C996 C 0.57058 0.36306 0.33584 0.0
C997 C 0.58393 0.38235 0.36443 0.0
C998 C 0.56313 0.36066 0.39109 0.0
C999 C 0.52789 0.31823 0.38827 0.0
C1000 C 0.51373 0.29849 0.35906 0.0
C1001 C 0.53552 0.32129 0.33268 0.0
H1002 H 0.24777 0.55004 0.65458 0.0
H1003 H 0.19384 0.51492 0.74553 0.0
H1004 H 0.18265 0.57781 0.74666 0.0
H1005 H 0.30704 0.66755 0.66963 0.0
H1006 H 0.29768 0.67994 0.63123 0.0
H1007 H 0.30203 0.63228 0.6382 0.0
H1008 H 0.22676 0.58397 0.61242 0.0
H1009 H 0.22264 0.63151 0.60502 0.0
H1010 H 0.18056 0.58693 0.62599 0.0
H1011 H 0.17 0.64019 0.73466 0.0
H1012 H 0.15911 0.69749 0.7111 0.0
H1013 H 0.23133 0.69697 0.63157 0.0
C1014 C 0.23386 0.55557 0.6749 0.0
C1015 C 0.2196 0.52606 0.69949 0.0
C1016 C 0.20212 0.53512 0.72564 0.0
C1017 C 0.19686 0.57161 0.72681 0.0
C1018 C 0.21065 0.59959 0.70193 0.0
C1019 C 0.22942 0.59232 0.67667 0.0
C1020 C 0.2405 0.62649 0.6525 0.0
C1021 C 0.28974 0.65315 0.64762 0.0
C1022 C 0.21614 0.60599 0.62222 0.0
C1023 C 0.22376 0.65337 0.66772 0.0
C1024 C 0.20665 0.63749 0.69624 0.0
C1025 C 0.18439 0.65379 0.71276 0.0
C1026 C 0.17841 0.68629 0.69928 0.0
C1027 C 0.19506 0.70218 0.66983 0.0
C1028 C 0.21936 0.68654 0.65453 0.0
H1029 H 0.50863 0.17743 0.97751 0.0
H1030 H 0.56799 0.31665 0.99 0.0
H1031 H 0.63848 0.32124 1.00177 0.0
H1032 H 0.56327 0.16313 0.0412 0.0
H1033 H 0.56681 0.11926 0.02333 0.0
H1034 H 0.52321 0.12879 0.01315 0.0
H1035 H 0.54506 0.13388 0.95633 0.0
H1036 H 0.59004 0.12622 0.96618 0.0
H1037 H 0.5992 0.17342 0.94484 0.0
H1038 H 0.70191 0.30975 0.0133 0.0
H1039 H 0.7489 0.28197 0.03297 0.0
H1040 H 0.6459 0.15016 0.01535 0.0
C1041 C 0.53665 0.2089 0.98243 0.0
C1042 C 0.53339 0.24676 0.98256 0.0
C1043 C 0.57018 0.28732 0.98981 0.0
C1044 C 0.6103 0.29026 0.99618 0.0
C1045 C 0.61262 0.25223 0.99553 0.0
C1046 C 0.57647 0.21223 0.98952 0.0
C1047 C 0.58606 0.17569 0.99366 0.0
C1048 C 0.55821 0.14494 0.01936 0.0
C1049 C 0.57975 0.15087 0.96344 0.0
C1050 C 0.63332 0.20128 1.00289 0.0
C1051 C 0.64842 0.24545 1.00331 0.0
C1052 C 0.69055 0.27526 0.01285 0.0
C1053 C 0.71714 0.25927 0.02371 0.0
C1054 C 0.70083 0.214 0.02552 0.0
C1055 C 0.65917 0.18494 0.01383 0.0
H1056 H 0.21045 0.67022 0.11862 0.0
H1057 H 0.20946 0.72533 0.20748 0.0
H1058 H 0.19762 0.65883 0.23214 0.0
H1059 H 0.14676 0.55534 0.13274 0.0
H1060 H 0.18444 0.5426 0.1146 0.0
H1061 H 0.18032 0.58871 0.10198 0.0
H1062 H 0.26266 0.63929 0.11145 0.0
H1063 H 0.26714 0.59327 0.12359 0.0
H1064 H 0.28558 0.63978 0.14856 0.0
H1065 H 0.18341 0.58421 0.24707 0.0
H1066 H 0.19202 0.52036 0.25447 0.0
H1067 H 0.23281 0.52911 0.15991 0.0
C1068 C 0.20843 0.66923 0.14327 0.0
C1069 C 0.20918 0.70356 0.16052 0.0
C1070 C 0.20572 0.69918 0.1929 0.0
C1071 C 0.19973 0.6614 0.20742 0.0
C1072 C 0.19993 0.62896 0.18965 0.0
C1073 C 0.20635 0.63348 0.15846 0.0
C1074 C 0.21483 0.59858 0.14568 0.0
C1075 C 0.17947 0.5696 0.12237 0.0
C1076 C 0.26025 0.61894 0.13149 0.0
C1077 C 0.21196 0.57369 0.17468 0.0
C1078 C 0.20113 0.59062 0.19938 0.0
C1079 C 0.19345 0.57162 0.22816 0.0
C1080 C 0.19894 0.53558 0.23218 0.0
C1081 C 0.21492 0.52048 0.20825 0.0
C1082 C 0.22052 0.53939 0.17882 0.0
H1083 H 0.56585 0.26911 0.47365 0.0
H1084 H 0.46895 0.14904 0.51468 0.0
H1085 H 0.52682 0.13393 0.53189 0.0
H1086 H 0.63719 0.23234 0.44716 0.0
H1087 H 0.68634 0.28202 0.45654 0.0
H1088 H 0.63751 0.28323 0.44723 0.0
H1089 H 0.64252 0.32155 0.49891 0.0
H1090 H 0.69176 0.32115 0.50813 0.0
H1091 H 0.64674 0.29739 0.53415 0.0
H1092 H 0.59529 0.13107 0.54294 0.0
H1093 H 0.66967 0.14497 0.55333 0.0
H1094 H 0.72271 0.26907 0.50769 0.0
C1095 C 0.55705 0.23986 0.48651 0.0
C1096 C 0.51314 0.21009 0.49297 0.0
C1097 C 0.50251 0.17218 0.50976 0.0
C1098 C 0.53512 0.16329 0.51937 0.0
C1099 C 0.57817 0.19294 0.51223 0.0
C1100 C 0.58927 0.23087 0.49667 0.0
C1101 C 0.63808 0.2582 0.493 0.0
C1102 C 0.65049 0.2643 0.45896 0.0
C1103 C 0.65581 0.30217 0.50954 0.0
C1104 C 0.6528 0.22968 0.50881 0.0
C1105 C 0.61765 0.19191 0.51937 0.0
C1106 C 0.62298 0.16055 0.53482 0.0
C1107 C 0.66527 0.16856 0.54045 0.0
C1108 C 0.70178 0.20774 0.53097 0.0
C1109 C 0.69537 0.23839 0.51456 0.0
H1110 H 0.34526 0.52856 0.80155 0.0
H1111 H 0.27486 0.4967 0.88741 0.0
H1112 H 0.34189 0.54746 0.91415 0.0
H1113 H 0.45674 0.57053 0.82643 0.0
H1114 H 0.47743 0.61807 0.80265 0.0
H1115 H 0.42979 0.56847 0.79076 0.0
H1116 H 0.38638 0.60897 0.78612 0.0
H1117 H 0.434 0.65868 0.79745 0.0
H1118 H 0.38438 0.63949 0.81849 0.0
H1119 H 0.41793 0.60308 0.93156 0.0
H1120 H 0.48316 0.6748 0.93772 0.0
H1121 H 0.49015 0.69113 0.83894 0.0
C1122 C 0.3427 0.53218 0.82578 0.0
C1123 C 0.30353 0.50645 0.84194 0.0
C1124 C 0.30415 0.51277 0.87415 0.0
C1125 C 0.34234 0.5424 0.88971 0.0
C1126 C 0.37944 0.56797 0.87271 0.0
C1127 C 0.37915 0.56478 0.84124 0.0
C1128 C 0.41867 0.6036 0.82759 0.0
C1129 C 0.44735 0.58929 0.81087 0.0
C1130 C 0.40504 0.6292 0.80616 0.0
C1131 C 0.44099 0.62929 0.85644 0.0
C1132 C 0.41911 0.60651 0.88218 0.0
C1133 C 0.43442 0.62191 0.91156 0.0
C1134 C 0.47133 0.66294 0.91477 0.0
C1135 C 0.49051 0.6899 0.88897 0.0
C1136 C 0.47624 0.67192 0.85926 0.0
H1137 H 0.8201 0.47328 0.23119 0.0
H1138 H 0.79238 0.50454 0.14051 0.0
H1139 H 0.80529 0.44882 0.11836 0.0
H1140 H 0.88712 0.4248 0.21387 0.0
H1141 H 0.85718 0.37907 0.23874 0.0
H1142 H 0.86125 0.4306 0.2475 0.0
H1143 H 0.77751 0.394 0.24879 0.0
H1144 H 0.77322 0.3424 0.24049 0.0
H1145 H 0.74603 0.36255 0.21617 0.0
H1146 H 0.81947 0.388 0.10603 0.0
H1147 H 0.80902 0.3143 0.10394 0.0
H1148 H 0.79735 0.30525 0.20297 0.0
C1149 C 0.81625 0.46859 0.20667 0.0
C1150 C 0.80635 0.49513 0.18781 0.0
C1151 C 0.80263 0.4874 0.15572 0.0
C1152 C 0.80934 0.45504 0.1428 0.0
C1153 C 0.81733 0.42871 0.16229 0.0
C1154 C 0.81871 0.43381 0.19366 0.0
C1155 C 0.81646 0.3948 0.20979 0.0
C1156 C 0.85799 0.40813 0.22859 0.0
C1157 C 0.77589 0.37209 0.22999 0.0
C1158 C 0.81326 0.3668 0.18246 0.0
C1159 C 0.81638 0.38837 0.1554 0.0
C1160 C 0.81589 0.37038 0.12702 0.0
C1161 C 0.80957 0.32829 0.12611 0.0
C1162 C 0.80088 0.30328 0.15315 0.0
C1163 C 0.80421 0.3234 0.18188 0.0
H1164 H 0.49346 0.83756 0.49448 0.0
H1165 H 0.44354 0.69949 0.48331 0.0
H1166 H 0.36868 0.68576 0.49013 0.0
H1167 H 0.41684 0.82808 0.55346 0.0
H1168 H 0.41235 0.87329 0.53927 0.0
H1169 H 0.46172 0.8718 0.53381 0.0
H1170 H 0.45584 0.88066 0.4753 0.0
H1171 H 0.40603 0.88143 0.48055 0.0
H1172 H 0.40739 0.84237 0.45485 0.0
H1173 H 0.29928 0.68721 0.49691 0.0
H1174 H 0.24044 0.70302 0.50825 0.0
H1175 H 0.33471 0.83999 0.51612 0.0
C1176 C 0.46667 0.80448 0.49398 0.0
C1177 C 0.47398 0.76941 0.48884 0.0
C1178 C 0.43837 0.72657 0.48774 0.0
C1179 C 0.39584 0.71857 0.49135 0.0
C1180 C 0.38948 0.75382 0.49605 0.0
C1181 C 0.42391 0.79589 0.4978 0.0
C1182 C 0.40805 0.82779 0.50362 0.0
C1183 C 0.42579 0.85164 0.53437 0.0
C1184 C 0.42005 0.85996 0.47699 0.0
C1185 C 0.35941 0.79712 0.50481 0.0
C1186 C 0.34941 0.75463 0.50008 0.0
C1187 C 0.30672 0.72037 0.50049 0.0
C1188 C 0.27348 0.72963 0.50663 0.0
C1189 C 0.28307 0.77274 0.51229 0.0
C1190 C 0.32655 0.80689 0.51113 0.0
H1191 H 0.65946 0.5066 0.8226 0.0
H1192 H 0.75115 0.46004 0.82394 0.0
H1193 H 0.69083 0.38473 0.83014 0.0
H1194 H 0.58507 0.42977 0.87938 0.0
H1195 H 0.53745 0.42377 0.85996 0.0
H1196 H 0.58819 0.47389 0.85706 0.0
H1197 H 0.58236 0.46703 0.79782 0.0
H1198 H 0.53209 0.41637 0.80059 0.0
H1199 H 0.57674 0.41888 0.77963 0.0
H1200 H 0.62062 0.31446 0.83449 0.0
H1201 H 0.54561 0.25449 0.84203 0.0
H1202 H 0.49859 0.34573 0.8375 0.0
C1203 C 0.66668 0.48052 0.82494 0.0
C1204 C 0.70986 0.48896 0.82347 0.0
C1205 C 0.71829 0.45414 0.82578 0.0
C1206 C 0.68424 0.41131 0.82896 0.0
C1207 C 0.64188 0.40384 0.82972 0.0
C1208 C 0.63297 0.43748 0.82824 0.0
C1209 C 0.58449 0.42043 0.82962 0.0
C1210 C 0.57314 0.43801 0.85821 0.0
C1211 C 0.56796 0.43133 0.80016 0.0
C1212 C 0.56757 0.372 0.83201 0.0
C1213 C 0.60126 0.36316 0.8318 0.0
C1214 C 0.59396 0.32095 0.83442 0.0
C1215 C 0.55124 0.28702 0.83826 0.0
C1216 C 0.51635 0.29541 0.83927 0.0
C1217 C 0.52463 0.3384 0.83582 0.0
loop_
_geom_bond_atom_site_label_1
_geom_bond_atom_site_label_2
_geom_bond_distance
_geom_bond_site_symmetry_2
_ccdc_geom_bond_type
Co0 O3 1.970 . S
Co0 N17 1.989 . S
Co0 O25 1.967 . S
Co0 O32 1.920 . S
Co1 O4 1.966 . S
Co1 N10 2.022 . S
Co1 N18 1.993 . S
Co1 O26 1.941 . S
C2 O3 1.258 . S
C2 O4 1.263 . S
O3 Co0 1.970 . S
O3 C2 1.258 . S
O4 Co1 1.966 . S
O4 C2 1.263 . S
C5 O6 1.235 . S
C5 O32 1.289 . S
O6 C5 1.235 . S
C7 C9 1.400 . S
C7 N10 1.351 . S
C7 C12 1.501 . S
C8 C9 1.387 . S
C8 N11 1.341 . S
C9 C7 1.400 . S
C9 C8 1.387 . S
N10 Co1 2.022 . S
N10 C7 1.351 . S
N10 N11 1.365 . S
N11 C8 1.341 . S
N11 N10 1.365 . S
N11 H31 0.862 . S
C12 C7 1.501 . S
C12 H13 0.961 . S
C12 H14 0.961 . S
C12 H15 0.960 . S
H13 C12 0.961 . S
H14 C12 0.961 . S
H15 C12 0.960 . S
C16 N17 1.342 . S
C16 C20 1.401 . S
C16 C21 1.499 . S
N17 Co0 1.989 . S
N17 C16 1.342 . S
N17 N18 1.388 . S
N18 Co1 1.993 . S
N18 N17 1.388 . S
N18 C19 1.346 . S
C19 N18 1.346 . S
C19 C20 1.396 . S
C19 C29 1.510 . S
C20 C16 1.401 . S
C20 C19 1.396 . S
C21 C16 1.499 . S
C21 H22 0.959 . S
C21 H23 0.960 . S
C21 H24 0.961 . S
H22 C21 0.959 . S
H23 C21 0.960 . S
H24 C21 0.961 . S
O25 Co0 1.967 . S
O25 C33 1.258 . S
O26 Co1 1.941 . S
O26 C33 1.266 . S
H27 C29 0.959 . S
H28 C29 0.961 . S
C29 C19 1.510 . S
C29 H27 0.959 . S
C29 H28 0.961 . S
C29 H30 0.960 . S
H30 C29 0.960 . S
H31 N11 0.862 . S
O32 Co0 1.920 . S
O32 C5 1.289 . S
C33 O25 1.258 . S
C33 O26 1.266 . S
Co34 O37 1.970 . S
Co34 N51 1.989 . S
Co34 O59 1.967 . S
Co34 O66 1.920 . S
Co35 O38 1.966 . S
Co35 N44 2.022 . S
Co35 N52 1.993 . S
Co35 O60 1.941 . S
C36 O37 1.258 . S
C36 O38 1.263 . S
O37 Co34 1.970 . S
O37 C36 1.258 . S
O38 Co35 1.966 . S
O38 C36 1.263 . S
C39 O40 1.235 . S
C39 O66 1.289 . S
O40 C39 1.235 . S
C41 C43 1.400 . S
C41 N44 1.351 . S
C41 C46 1.501 . S
C42 C43 1.387 . S
C42 N45 1.341 . S
C43 C41 1.400 . S
C43 C42 1.387 . S
N44 Co35 2.022 . S
N44 C41 1.351 . S
N44 N45 1.365 . S
N45 C42 1.341 . S
N45 N44 1.365 . S
N45 H65 0.862 . S
C46 C41 1.501 . S
C46 H47 0.961 . S
C46 H48 0.961 . S
C46 H49 0.960 . S
H47 C46 0.961 . S
H48 C46 0.961 . S
H49 C46 0.960 . S
C50 N51 1.342 . S
C50 C54 1.401 . S
C50 C55 1.499 . S
N51 Co34 1.989 . S
N51 C50 1.342 . S
N51 N52 1.388 . S
N52 Co35 1.993 . S
N52 N51 1.388 . S
N52 C53 1.346 . S
C53 N52 1.346 . S
C53 C54 1.396 . S
C53 C63 1.510 . S
C54 C50 1.401 . S
C54 C53 1.396 . S
C55 C50 1.499 . S
C55 H56 0.959 . S
C55 H57 0.960 . S
C55 H58 0.961 . S
H56 C55 0.959 . S
H57 C55 0.960 . S
H58 C55 0.961 . S
O59 Co34 1.967 . S
O59 C67 1.258 . S
O60 Co35 1.941 . S
O60 C67 1.266 . S
H61 C63 0.959 . S
H62 C63 0.961 . S
C63 C53 1.510 . S
C63 H61 0.959 . S
C63 H62 0.961 . S
C63 H64 0.960 . S
H64 C63 0.960 . S
H65 N45 0.862 . S
O66 Co34 1.920 . S
O66 C39 1.289 . S
C67 O59 1.258 . S
C67 O60 1.266 . S
Co68 O71 1.970 . S
Co68 N85 1.989 . S
Co68 O93 1.967 . S
Co68 O100 1.920 . S
Co69 O72 1.966 . S
Co69 N78 2.022 . S
Co69 N86 1.993 . S
Co69 O94 1.941 . S
C70 O71 1.258 . S
C70 O72 1.263 . S
O71 Co68 1.970 . S
O71 C70 1.258 . S
O72 Co69 1.966 . S
O72 C70 1.263 . S
C73 O74 1.235 . S
C73 O100 1.289 . S
O74 C73 1.235 . S
C75 C77 1.400 . S
C75 N78 1.351 . S
C75 C80 1.501 . S
C76 C77 1.387 . S
C76 N79 1.341 . S
C77 C75 1.400 . S
C77 C76 1.387 . S
N78 Co69 2.022 . S
N78 C75 1.351 . S
N78 N79 1.365 . S
N79 C76 1.341 . S
N79 N78 1.365 . S
N79 H99 0.862 . S
C80 C75 1.501 . S
C80 H81 0.961 . S
C80 H82 0.961 . S
C80 H83 0.960 . S
H81 C80 0.961 . S
H82 C80 0.961 . S
H83 C80 0.960 . S
C84 N85 1.342 . S
C84 C88 1.401 . S
C84 C89 1.499 . S
N85 Co68 1.989 . S
N85 C84 1.342 . S
N85 N86 1.388 . S
N86 Co69 1.993 . S
N86 N85 1.388 . S
N86 C87 1.346 . S
C87 N86 1.346 . S
C87 C88 1.396 . S
C87 C97 1.510 . S
C88 C84 1.401 . S
C88 C87 1.396 . S
C89 C84 1.499 . S
C89 H90 0.959 . S
C89 H91 0.960 . S
C89 H92 0.961 . S
H90 C89 0.959 . S
H91 C89 0.960 . S
H92 C89 0.961 . S
O93 Co68 1.967 . S
O93 C101 1.258 . S
O94 Co69 1.941 . S
O94 C101 1.266 . S
H95 C97 0.959 . S
H96 C97 0.961 . S
C97 C87 1.510 . S
C97 H95 0.959 . S
C97 H96 0.961 . S
C97 H98 0.960 . S
H98 C97 0.960 . S
H99 N79 0.862 . S
O100 Co68 1.920 . S
O100 C73 1.289 . S
C101 O93 1.258 . S
C101 O94 1.266 . S
Co102 O105 1.970 . S
Co102 N119 1.989 . S
Co102 O127 1.967 . S
Co102 O134 1.920 . S
Co103 O106 1.966 . S
Co103 N112 2.022 . S
Co103 N120 1.993 . S
Co103 O128 1.941 . S
C104 O105 1.258 . S
C104 O106 1.263 . S
O105 Co102 1.970 . S
O105 C104 1.258 . S
O106 Co103 1.966 . S
O106 C104 1.263 . S
C107 O108 1.235 . S
C107 O134 1.289 . S
O108 C107 1.235 . S
C109 C111 1.400 . S
C109 N112 1.351 . S
C109 C114 1.501 . S
C110 C111 1.387 . S
C110 N113 1.341 . S
C111 C109 1.400 . S
C111 C110 1.387 . S
N112 Co103 2.022 . S
N112 C109 1.351 . S
N112 N113 1.365 . S
N113 C110 1.341 . S
N113 N112 1.365 . S
N113 H133 0.862 . S
C114 C109 1.501 . S
C114 H115 0.961 . S
C114 H116 0.961 . S
C114 H117 0.960 . S
H115 C114 0.961 . S
H116 C114 0.961 . S
H117 C114 0.960 . S
C118 N119 1.342 . S
C118 C122 1.401 . S
C118 C123 1.499 . S
N119 Co102 1.989 . S
N119 C118 1.342 . S
N119 N120 1.388 . S
N120 Co103 1.993 . S
N120 N119 1.388 . S
N120 C121 1.346 . S
C121 N120 1.346 . S
C121 C122 1.396 . S
C121 C131 1.510 . S
C122 C118 1.401 . S
C122 C121 1.396 . S
C123 C118 1.499 . S
C123 H124 0.959 . S
C123 H125 0.960 . S
C123 H126 0.961 . S
H124 C123 0.959 . S
H125 C123 0.960 . S
H126 C123 0.961 . S
O127 Co102 1.967 . S
O127 C135 1.258 . S
O128 Co103 1.941 . S
O128 C135 1.266 . S
H129 C131 0.959 . S
H130 C131 0.961 . S
C131 C121 1.510 . S
C131 H129 0.959 . S
C131 H130 0.961 . S
C131 H132 0.960 . S
H132 C131 0.960 . S
H133 N113 0.862 . S
O134 Co102 1.920 . S
O134 C107 1.289 . S
C135 O127 1.258 . S
C135 O128 1.266 . S
Co136 O139 1.970 . S
Co136 N153 1.989 . S
Co136 O161 1.967 . S
Co136 O168 1.920 . S
Co137 O140 1.966 . S
Co137 N146 2.022 . S
Co137 N154 1.993 . S
Co137 O162 1.941 . S
C138 O139 1.258 . S
C138 O140 1.263 . S
O139 Co136 1.970 . S
O139 C138 1.258 . S
O140 Co137 1.966 . S
O140 C138 1.263 . S
C141 O142 1.235 . S
C141 O168 1.289 . S
O142 C141 1.235 . S
C143 C145 1.400 . S
C143 N146 1.351 . S
C143 C148 1.501 . S
C144 C145 1.387 . S
C144 N147 1.341 . S
C145 C143 1.400 . S
C145 C144 1.387 . S
N146 Co137 2.022 . S
N146 C143 1.351 . S
N146 N147 1.365 . S
N147 C144 1.341 . S
N147 N146 1.365 . S
N147 H167 0.862 . S
C148 C143 1.501 . S
C148 H149 0.961 . S
C148 H150 0.961 . S
C148 H151 0.960 . S
H149 C148 0.961 . S
H150 C148 0.961 . S
H151 C148 0.960 . S
C152 N153 1.342 . S
C152 C156 1.401 . S
C152 C157 1.499 . S
N153 Co136 1.989 . S
N153 C152 1.342 . S
N153 N154 1.388 . S
N154 Co137 1.993 . S
N154 N153 1.388 . S
N154 C155 1.346 . S
C155 N154 1.346 . S
C155 C156 1.396 . S
C155 C165 1.510 . S
C156 C152 1.401 . S
C156 C155 1.396 . S
C157 C152 1.499 . S
C157 H158 0.959 . S
C157 H159 0.960 . S
C157 H160 0.961 . S
H158 C157 0.959 . S
H159 C157 0.960 . S
H160 C157 0.961 . S
O161 Co136 1.967 . S
O161 C169 1.258 . S
O162 Co137 1.941 . S
O162 C169 1.266 . S
H163 C165 0.959 . S
H164 C165 0.961 . S
C165 C155 1.510 . S
C165 H163 0.959 . S
C165 H164 0.961 . S
C165 H166 0.960 . S
H166 C165 0.960 . S
H167 N147 0.862 . S
O168 Co136 1.920 . S
O168 C141 1.289 . S
C169 O161 1.258 . S
C169 O162 1.266 . S
Co170 O173 1.970 . S
Co170 N187 1.989 . S
Co170 O195 1.967 . S
Co170 O202 1.920 . S
Co171 O174 1.966 . S
Co171 N180 2.022 . S
Co171 N188 1.993 . S
Co171 O196 1.941 . S
C172 O173 1.258 . S
C172 O174 1.263 . S
O173 Co170 1.970 . S
O173 C172 1.258 . S
O174 Co171 1.966 . S
O174 C172 1.263 . S
C175 O176 1.235 . S
C175 O202 1.289 . S
O176 C175 1.235 . S
C177 C179 1.400 . S
C177 N180 1.351 . S
C177 C182 1.501 . S
C178 C179 1.387 . S
C178 N181 1.341 . S
C179 C177 1.400 . S
C179 C178 1.387 . S
N180 Co171 2.022 . S
N180 C177 1.351 . S
N180 N181 1.365 . S
N181 C178 1.341 . S
N181 N180 1.365 . S
N181 H201 0.862 . S
C182 C177 1.501 . S
C182 H183 0.961 . S
C182 H184 0.961 . S
C182 H185 0.960 . S
H183 C182 0.961 . S
H184 C182 0.961 . S
H185 C182 0.960 . S
C186 N187 1.342 . S
C186 C190 1.401 . S
C186 C191 1.499 . S
N187 Co170 1.989 . S
N187 C186 1.342 . S
N187 N188 1.388 . S
N188 Co171 1.993 . S
N188 N187 1.388 . S
N188 C189 1.346 . S
C189 N188 1.346 . S
C189 C190 1.396 . S
C189 C199 1.510 . S
C190 C186 1.401 . S
C190 C189 1.396 . S
C191 C186 1.499 . S
C191 H192 0.959 . S
C191 H193 0.960 . S
C191 H194 0.961 . S
H192 C191 0.959 . S
H193 C191 0.960 . S
H194 C191 0.961 . S
O195 Co170 1.967 . S
O195 C203 1.258 . S
O196 Co171 1.941 . S
O196 C203 1.266 . S
H197 C199 0.959 . S
H198 C199 0.961 . S
C199 C189 1.510 . S
C199 H197 0.959 . S
C199 H198 0.961 . S
C199 H200 0.960 . S
H200 C199 0.960 . S
H201 N181 0.862 . S
O202 Co170 1.920 . S
O202 C175 1.289 . S
C203 O195 1.258 . S
C203 O196 1.266 . S
Co204 O207 1.970 . S
Co204 N221 1.989 . S
Co204 O229 1.967 . S
Co204 O236 1.920 . S
Co205 O208 1.966 . S
Co205 N214 2.022 . S
Co205 N222 1.993 . S
Co205 O230 1.941 . S
C206 O207 1.258 . S
C206 O208 1.263 . S
O207 Co204 1.970 . S
O207 C206 1.258 . S
O208 Co205 1.966 . S
O208 C206 1.263 . S
C209 O210 1.235 . S
C209 O236 1.289 . S
O210 C209 1.235 . S
C211 C213 1.400 . S
C211 N214 1.351 . S
C211 C216 1.501 . S
C212 C213 1.387 . S
C212 N215 1.341 . S
C213 C211 1.400 . S
C213 C212 1.387 . S
N214 Co205 2.022 . S
N214 C211 1.351 . S
N214 N215 1.365 . S
N215 C212 1.341 . S
N215 N214 1.365 . S
N215 H235 0.862 . S
C216 C211 1.501 . S
C216 H217 0.961 . S
C216 H218 0.961 . S
C216 H219 0.960 . S
H217 C216 0.961 . S
H218 C216 0.961 . S
H219 C216 0.960 . S
C220 N221 1.342 . S
C220 C224 1.401 . S
C220 C225 1.499 . S
N221 Co204 1.989 . S
N221 C220 1.342 . S
N221 N222 1.388 . S
N222 Co205 1.993 . S
N222 N221 1.388 . S
N222 C223 1.346 . S
C223 N222 1.346 . S
C223 C224 1.396 . S
C223 C233 1.510 . S
C224 C220 1.401 . S
C224 C223 1.396 . S
C225 C220 1.499 . S
C225 H226 0.959 . S
C225 H227 0.960 . S
C225 H228 0.961 . S
H226 C225 0.959 . S
H227 C225 0.960 . S
H228 C225 0.961 . S
O229 Co204 1.967 . S
O229 C237 1.258 . S
O230 Co205 1.941 . S
O230 C237 1.266 . S
H231 C233 0.959 . S
H232 C233 0.961 . S
C233 C223 1.510 . S
C233 H231 0.959 . S
C233 H232 0.961 . S
C233 H234 0.960 . S
H234 C233 0.960 . S
H235 N215 0.862 . S
O236 Co204 1.920 . S
O236 C209 1.289 . S
C237 O229 1.258 . S
C237 O230 1.266 . S
Co238 O241 1.970 . S
Co238 N255 1.989 . S
Co238 O263 1.967 . S
Co238 O270 1.920 . S
Co239 O242 1.966 . S
Co239 N248 2.022 . S
Co239 N256 1.993 . S
Co239 O264 1.941 . S
C240 O241 1.258 . S
C240 O242 1.263 . S
O241 Co238 1.970 . S
O241 C240 1.258 . S
O242 Co239 1.966 . S
O242 C240 1.263 . S
C243 O244 1.235 . S
C243 O270 1.289 . S
O244 C243 1.235 . S
C245 C247 1.400 . S
C245 N248 1.351 . S
C245 C250 1.501 . S
C246 C247 1.387 . S
C246 N249 1.341 . S
C247 C245 1.400 . S
C247 C246 1.387 . S
N248 Co239 2.022 . S
N248 C245 1.351 . S
N248 N249 1.365 . S
N249 C246 1.341 . S
N249 N248 1.365 . S
N249 H269 0.862 . S
C250 C245 1.501 . S
C250 H251 0.961 . S
C250 H252 0.961 . S
C250 H253 0.960 . S
H251 C250 0.961 . S
H252 C250 0.961 . S
H253 C250 0.960 . S
C254 N255 1.342 . S
C254 C258 1.401 . S
C254 C259 1.499 . S
N255 Co238 1.989 . S
N255 C254 1.342 . S
N255 N256 1.388 . S
N256 Co239 1.993 . S
N256 N255 1.388 . S
N256 C257 1.346 . S
C257 N256 1.346 . S
C257 C258 1.396 . S
C257 C267 1.510 . S
C258 C254 1.401 . S
C258 C257 1.396 . S
C259 C254 1.499 . S
C259 H260 0.959 . S
C259 H261 0.960 . S
C259 H262 0.961 . S
H260 C259 0.959 . S
H261 C259 0.960 . S
H262 C259 0.961 . S
O263 Co238 1.967 . S
O263 C271 1.258 . S
O264 Co239 1.941 . S
O264 C271 1.266 . S
H265 C267 0.959 . S
H266 C267 0.961 . S
C267 C257 1.510 . S
C267 H265 0.959 . S
C267 H266 0.961 . S
C267 H268 0.960 . S
H268 C267 0.960 . S
H269 N249 0.862 . S
O270 Co238 1.920 . S
O270 C243 1.289 . S
C271 O263 1.258 . S
C271 O264 1.266 . S
Co272 O275 1.970 . S
Co272 N289 1.989 . S
Co272 O297 1.967 . S
Co272 O304 1.920 . S
Co273 O276 1.966 . S
Co273 N282 2.022 . S
Co273 N290 1.993 . S
Co273 O298 1.941 . S
C274 O275 1.258 . S
C274 O276 1.263 . S
O275 Co272 1.970 . S
O275 C274 1.258 . S
O276 Co273 1.966 . S
O276 C274 1.263 . S
C277 O278 1.235 . S
C277 O304 1.289 . S
O278 C277 1.235 . S
C279 C281 1.400 . S
C279 N282 1.351 . S
C279 C284 1.501 . S
C280 C281 1.387 . S
C280 N283 1.341 . S
C281 C279 1.400 . S
C281 C280 1.387 . S
N282 Co273 2.022 . S
N282 C279 1.351 . S
N282 N283 1.365 . S
N283 C280 1.341 . S
N283 N282 1.365 . S
N283 H303 0.862 . S
C284 C279 1.501 . S
C284 H285 0.961 . S
C284 H286 0.961 . S
C284 H287 0.960 . S
H285 C284 0.961 . S
H286 C284 0.961 . S
H287 C284 0.960 . S
C288 N289 1.342 . S
C288 C292 1.401 . S
C288 C293 1.499 . S
N289 Co272 1.989 . S
N289 C288 1.342 . S
N289 N290 1.388 . S
N290 Co273 1.993 . S
N290 N289 1.388 . S
N290 C291 1.346 . S
C291 N290 1.346 . S
C291 C292 1.396 . S
C291 C301 1.510 . S
C292 C288 1.401 . S
C292 C291 1.396 . S
C293 C288 1.499 . S
C293 H294 0.959 . S
C293 H295 0.960 . S
C293 H296 0.961 . S
H294 C293 0.959 . S
H295 C293 0.960 . S
H296 C293 0.961 . S
O297 Co272 1.967 . S
O297 C305 1.258 . S
O298 Co273 1.941 . S
O298 C305 1.266 . S
H299 C301 0.959 . S
H300 C301 0.961 . S
C301 C291 1.510 . S
C301 H299 0.959 . S
C301 H300 0.961 . S
C301 H302 0.960 . S
H302 C301 0.960 . S
H303 N283 0.862 . S
O304 Co272 1.920 . S
O304 C277 1.289 . S
C305 O297 1.258 . S
C305 O298 1.266 . S
Co306 O309 1.970 . S
Co306 N323 1.989 . S
Co306 O331 1.967 . S
Co306 O338 1.920 . S
Co307 O310 1.966 . S
Co307 N316 2.022 . S
Co307 N324 1.993 . S
Co307 O332 1.941 . S
C308 O309 1.258 . S
C308 O310 1.263 . S
O309 Co306 1.970 . S
O309 C308 1.258 . S
O310 Co307 1.966 . S
O310 C308 1.263 . S
C311 O312 1.235 . S
C311 O338 1.289 . S
O312 C311 1.235 . S
C313 C315 1.400 . S
C313 N316 1.351 . S
C313 C318 1.501 . S
C314 C315 1.387 . S
C314 N317 1.341 . S
C315 C313 1.400 . S
C315 C314 1.387 . S
N316 Co307 2.022 . S
N316 C313 1.351 . S
N316 N317 1.365 . S
N317 C314 1.341 . S
N317 N316 1.365 . S
N317 H337 0.862 . S
C318 C313 1.501 . S
C318 H319 0.961 . S
C318 H320 0.961 . S
C318 H321 0.960 . S
H319 C318 0.961 . S
H320 C318 0.961 . S
H321 C318 0.960 . S
C322 N323 1.342 . S
C322 C326 1.401 . S
C322 C327 1.499 . S
N323 Co306 1.989 . S
N323 C322 1.342 . S
N323 N324 1.388 . S
N324 Co307 1.993 . S
N324 N323 1.388 . S
N324 C325 1.346 . S
C325 N324 1.346 . S
C325 C326 1.396 . S
C325 C335 1.510 . S
C326 C322 1.401 . S
C326 C325 1.396 . S
C327 C322 1.499 . S
C327 H328 0.959 . S
C327 H329 0.960 . S
C327 H330 0.961 . S
H328 C327 0.959 . S
H329 C327 0.960 . S
H330 C327 0.961 . S
O331 Co306 1.967 . S
O331 C339 1.258 . S
O332 Co307 1.941 . S
O332 C339 1.266 . S
H333 C335 0.959 . S
H334 C335 0.961 . S
C335 C325 1.510 . S
C335 H333 0.959 . S
C335 H334 0.961 . S
C335 H336 0.960 . S
H336 C335 0.960 . S
H337 N317 0.862 . S
O338 Co306 1.920 . S
O338 C311 1.289 . S
C339 O331 1.258 . S
C339 O332 1.266 . S
Co340 O343 1.970 . S
Co340 N357 1.989 . S
Co340 O365 1.967 . S
Co340 O372 1.920 . S
Co341 O344 1.966 . S
Co341 N350 2.022 . S
Co341 N358 1.993 . S
Co341 O366 1.941 . S
C342 O343 1.258 . S
C342 O344 1.263 . S
O343 Co340 1.970 . S
O343 C342 1.258 . S
O344 Co341 1.966 . S
O344 C342 1.263 . S
C345 O346 1.235 . S
C345 O372 1.289 . S
O346 C345 1.235 . S
C347 C349 1.400 . S
C347 N350 1.351 . S
C347 C352 1.501 . S
C348 C349 1.387 . S
C348 N351 1.341 . S
C349 C347 1.400 . S
C349 C348 1.387 . S
N350 Co341 2.022 . S
N350 C347 1.351 . S
N350 N351 1.365 . S
N351 C348 1.341 . S
N351 N350 1.365 . S
N351 H371 0.862 . S
C352 C347 1.501 . S
C352 H353 0.961 . S
C352 H354 0.961 . S
C352 H355 0.960 . S
H353 C352 0.961 . S
H354 C352 0.961 . S
H355 C352 0.960 . S
C356 N357 1.342 . S
C356 C360 1.401 . S
C356 C361 1.499 . S
N357 Co340 1.989 . S
N357 C356 1.342 . S
N357 N358 1.388 . S
N358 Co341 1.993 . S
N358 N357 1.388 . S
N358 C359 1.346 . S
C359 N358 1.346 . S
C359 C360 1.396 . S
C359 C369 1.510 . S
C360 C356 1.401 . S
C360 C359 1.396 . S
C361 C356 1.499 . S
C361 H362 0.959 . S
C361 H363 0.960 . S
C361 H364 0.961 . S
H362 C361 0.959 . S
H363 C361 0.960 . S
H364 C361 0.961 . S
O365 Co340 1.967 . S
O365 C373 1.258 . S
O366 Co341 1.941 . S
O366 C373 1.266 . S
H367 C369 0.959 . S
H368 C369 0.961 . S
C369 C359 1.510 . S
C369 H367 0.959 . S
C369 H368 0.961 . S
C369 H370 0.960 . S
H370 C369 0.960 . S
H371 N351 0.862 . S
O372 Co340 1.920 . S
O372 C345 1.289 . S
C373 O365 1.258 . S
C373 O366 1.266 . S
Co374 O377 1.970 . S
Co374 N391 1.989 . S
Co374 O399 1.967 . S
Co374 O406 1.920 . S
Co375 O378 1.966 . S
Co375 N384 2.022 . S
Co375 N392 1.993 . S
Co375 O400 1.941 . S
C376 O377 1.258 . S
C376 O378 1.263 . S
O377 Co374 1.970 . S
O377 C376 1.258 . S
O378 Co375 1.966 . S
O378 C376 1.263 . S
C379 O380 1.235 . S
C379 O406 1.289 . S
O380 C379 1.235 . S
C381 C383 1.400 . S
C381 N384 1.351 . S
C381 C386 1.501 . S
C382 C383 1.387 . S
C382 N385 1.341 . S
C383 C381 1.400 . S
C383 C382 1.387 . S
N384 Co375 2.022 . S
N384 C381 1.351 . S
N384 N385 1.365 . S
N385 C382 1.341 . S
N385 N384 1.365 . S
N385 H405 0.862 . S
C386 C381 1.501 . S
C386 H387 0.961 . S
C386 H388 0.961 . S
C386 H389 0.960 . S
H387 C386 0.961 . S
H388 C386 0.961 . S
H389 C386 0.960 . S
C390 N391 1.342 . S
C390 C394 1.401 . S
C390 C395 1.499 . S
N391 Co374 1.989 . S
N391 C390 1.342 . S
N391 N392 1.388 . S
N392 Co375 1.993 . S
N392 N391 1.388 . S
N392 C393 1.346 . S
C393 N392 1.346 . S
C393 C394 1.396 . S
C393 C403 1.510 . S
C394 C390 1.401 . S
C394 C393 1.396 . S
C395 C390 1.499 . S
C395 H396 0.959 . S
C395 H397 0.960 . S
C395 H398 0.961 . S
H396 C395 0.959 . S
H397 C395 0.960 . S
H398 C395 0.961 . S
O399 Co374 1.967 . S
O399 C407 1.258 . S
O400 Co375 1.941 . S
O400 C407 1.266 . S
H401 C403 0.959 . S
H402 C403 0.961 . S
C403 C393 1.510 . S
C403 H401 0.959 . S
C403 H402 0.961 . S
C403 H404 0.960 . S
H404 C403 0.960 . S
H405 N385 0.862 . S
O406 Co374 1.920 . S
O406 C379 1.289 . S
C407 O399 1.258 . S
C407 O400 1.266 . S
H408 C420 0.930 . S
H409 C422 0.930 . S
H410 C423 0.930 . S
H411 C427 0.959 . S
H412 C427 0.959 . S
H413 C427 0.961 . S
H414 C428 0.960 . S
H415 C428 0.961 . S
H416 C428 0.959 . S
H417 C431 0.929 . S
H418 C432 0.931 . S
H419 C434 0.930 . S
C420 H408 0.930 . S
C420 C421 1.399 . S
C420 C425 1.399 . S
C421 C420 1.399 . S
C421 C422 1.376 . S
C422 H409 0.930 . S
C422 C421 1.376 . S
C422 C423 1.388 . S
C423 H410 0.930 . S
C423 C422 1.388 . S
C423 C424 1.390 . S
C424 C423 1.390 . S
C424 C425 1.394 . S
C424 C430 1.465 . S
C425 C420 1.399 . S
C425 C424 1.394 . S
C425 C426 1.516 . S
C426 C425 1.516 . S
C426 C427 1.502 . S
C426 C428 1.561 . S
C426 C429 1.526 . S
C427 H411 0.959 . S
C427 H412 0.959 . S
C427 H413 0.961 . S
C427 C426 1.502 . S
C428 H414 0.960 . S
C428 H415 0.961 . S
C428 H416 0.959 . S
C428 C426 1.561 . S
C429 C426 1.526 . S
C429 C430 1.396 . S
C429 C434 1.390 . S
C430 C424 1.465 . S
C430 C429 1.396 . S
C430 C431 1.399 . S
C431 H417 0.929 . S
C431 C430 1.399 . S
C431 C432 1.385 . S
C432 H418 0.931 . S
C432 C431 1.385 . S
C432 C433 1.389 . S
C433 C432 1.389 . S
C433 C434 1.387 . S
C434 H419 0.930 . S
C434 C429 1.390 . S
C434 C433 1.387 . S
H435 C447 0.930 . S
H436 C449 0.930 . S
H437 C450 0.930 . S
H438 C454 0.959 . S
H439 C454 0.959 . S
H440 C454 0.961 . S
H441 C455 0.960 . S
H442 C455 0.961 1_455 S
H443 C455 0.959 . S
H444 C458 0.929 1_655 S
H445 C459 0.931 . S
H446 C461 0.930 . S
C447 H435 0.930 . S
C447 C448 1.399 . S
C447 C452 1.399 . S
C448 C447 1.399 . S
C448 C449 1.376 . S
C449 H436 0.930 . S
C449 C448 1.376 . S
C449 C450 1.388 . S
C450 H437 0.930 . S
C450 C449 1.388 . S
C450 C451 1.390 . S
C451 C450 1.390 . S
C451 C452 1.394 . S
C451 C457 1.465 1_655 S
C452 C447 1.399 . S
C452 C451 1.394 . S
C452 C453 1.516 1_655 S
C453 C452 1.516 1_455 S
C453 C454 1.502 . S
C453 C455 1.561 1_455 S
C453 C456 1.526 . S
C454 H438 0.959 . S
C454 H439 0.959 . S
C454 H440 0.961 . S
C454 C453 1.502 . S
C455 H441 0.960 . S
C455 H442 0.961 1_655 S
C455 H443 0.959 . S
C455 C453 1.561 1_655 S
C456 C453 1.526 . S
C456 C457 1.398 . S
C456 C461 1.390 . S
C457 C451 1.465 1_455 S
C457 C456 1.398 . S
C457 C458 1.397 . S
C458 H444 0.929 1_455 S
C458 C457 1.397 . S
C458 C459 1.385 . S
C459 H445 0.931 . S
C459 C458 1.385 . S
C459 C460 1.389 . S
C460 C459 1.389 . S
C460 C461 1.387 . S
C461 H446 0.930 . S
C461 C456 1.390 . S
C461 C460 1.387 . S
H462 C474 0.930 . S
H463 C476 0.930 . S
H464 C477 0.930 . S
H465 C481 0.959 . S
H466 C481 0.959 . S
H467 C481 0.961 . S
H468 C482 0.960 . S
H469 C482 0.959 1_565 S
H470 C482 0.959 . S
H471 C485 0.929 1_545 S
H472 C486 0.931 . S
H473 C488 0.930 . S
C474 H462 0.930 . S
C474 C475 1.399 . S
C474 C479 1.399 . S
C475 C474 1.399 . S
C475 C476 1.376 . S
C476 H463 0.930 . S
C476 C475 1.376 . S
C476 C477 1.388 . S
C477 H464 0.930 . S
C477 C476 1.388 . S
C477 C478 1.390 . S
C478 C477 1.390 . S
C478 C479 1.394 . S
C478 C484 1.465 1_545 S
C479 C474 1.399 . S
C479 C478 1.394 . S
C479 C480 1.516 1_545 S
C480 C479 1.516 1_565 S
C480 C481 1.502 . S
C480 C482 1.561 1_565 S
C480 C483 1.526 . S
C481 H465 0.959 . S
C481 H466 0.959 . S
C481 H467 0.961 . S
C481 C480 1.502 . S
C482 H468 0.960 . S
C482 H469 0.959 1_545 S
C482 H470 0.959 . S
C482 C480 1.561 1_545 S
C483 C480 1.526 . S
C483 C484 1.396 . S
C483 C488 1.390 . S
C484 C478 1.465 1_565 S
C484 C483 1.396 . S
C484 C485 1.399 . S
C485 H471 0.929 1_565 S
C485 C484 1.399 . S
C485 C486 1.385 . S
C486 H472 0.931 . S
C486 C485 1.385 . S
C486 C487 1.389 . S
C487 C486 1.389 . S
C487 C488 1.387 . S
C488 H473 0.930 . S
C488 C483 1.390 . S
C488 C487 1.387 . S
H489 C501 0.930 . S
H490 C503 0.930 . S
H491 C504 0.930 . S
H492 C508 0.959 . S
H493 C508 0.959 . S
H494 C508 0.961 . S
H495 C509 0.960 . S
H496 C509 0.961 . S
H497 C509 0.959 . S
H498 C512 0.929 . S
H499 C513 0.931 . S
H500 C515 0.930 . S
C501 H489 0.930 . S
C501 C502 1.399 . S
C501 C506 1.399 . S
C502 C501 1.399 . S
C502 C503 1.376 . S
C503 H490 0.930 . S
C503 C502 1.376 . S
C503 C504 1.388 . S
C504 H491 0.930 . S
C504 C503 1.388 . S
C504 C505 1.390 . S
C505 C504 1.390 . S
C505 C506 1.394 . S
C505 C511 1.465 . S
C506 C501 1.399 . S
C506 C505 1.394 . S
C506 C507 1.516 . S
C507 C506 1.516 . S
C507 C508 1.502 . S
C507 C509 1.561 . S
C507 C510 1.526 . S
C508 H492 0.959 . S
C508 H493 0.959 . S
C508 H494 0.961 . S
C508 C507 1.502 . S
C509 H495 0.960 . S
C509 H496 0.961 . S
C509 H497 0.959 . S
C509 C507 1.561 . S
C510 C507 1.526 . S
C510 C511 1.396 . S
C510 C515 1.390 . S
C511 C505 1.465 . S
C511 C510 1.396 . S
C511 C512 1.399 . S
C512 H498 0.929 . S
C512 C511 1.399 . S
C512 C513 1.385 . S
C513 H499 0.931 . S
C513 C512 1.385 . S
C513 C514 1.389 . S
C514 C513 1.389 . S
C514 C515 1.387 . S
C515 H500 0.930 . S
C515 C510 1.390 . S
C515 C514 1.387 . S
H516 C528 0.930 . S
H517 C530 0.930 . S
H518 C531 0.930 . S
H519 C535 0.959 . S
H520 C535 0.959 . S
H521 C535 0.961 . S
H522 C536 0.960 . S
H523 C536 0.961 . S
H524 C536 0.959 . S
H525 C539 0.929 1_455 S
H526 C540 0.931 . S
H527 C542 0.930 . S
C528 H516 0.930 . S
C528 C529 1.399 . S
C528 C533 1.399 . S
C529 C528 1.399 . S
C529 C530 1.376 . S
C530 H517 0.930 . S
C530 C529 1.376 . S
C530 C531 1.388 . S
C531 H518 0.930 . S
C531 C530 1.388 . S
C531 C532 1.390 . S
C532 C531 1.390 . S
C532 C533 1.394 . S
C532 C538 1.465 1_455 S
C533 C528 1.399 . S
C533 C532 1.394 . S
C533 C534 1.516 1_455 S
C534 C533 1.516 1_655 S
C534 C535 1.502 . S
C534 C536 1.561 1_655 S
C534 C537 1.526 . S
C535 H519 0.959 . S
C535 H520 0.959 . S
C535 H521 0.961 . S
C535 C534 1.502 . S
C536 H522 0.960 . S
C536 H523 0.961 . S
C536 H524 0.959 . S
C536 C534 1.561 1_455 S
C537 C534 1.526 . S
C537 C538 1.396 . S
C537 C542 1.390 . S
C538 C532 1.465 1_655 S
C538 C537 1.396 . S
C538 C539 1.399 . S
C539 H525 0.929 1_655 S
C539 C538 1.399 . S
C539 C540 1.385 . S
C540 H526 0.931 . S
C540 C539 1.385 . S
C540 C541 1.389 . S
C541 C540 1.389 . S
C541 C542 1.387 . S
C542 H527 0.930 . S
C542 C537 1.390 . S
C542 C541 1.387 . S
H543 C555 0.930 . S
H544 C557 0.930 . S
H545 C558 0.930 . S
H546 C562 0.959 . S
H547 C562 0.959 . S
H548 C562 0.961 . S
H549 C563 0.960 . S
H550 C563 0.961 . S
H551 C563 0.959 . S
H552 C566 0.929 . S
H553 C567 0.931 . S
H554 C569 0.930 . S
C555 H543 0.930 . S
C555 C556 1.399 . S
C555 C560 1.399 . S
C556 C555 1.399 . S
C556 C557 1.376 . S
C557 H544 0.930 . S
C557 C556 1.376 . S
C557 C558 1.388 . S
C558 H545 0.930 . S
C558 C557 1.388 . S
C558 C559 1.390 . S
C559 C558 1.390 . S
C559 C560 1.394 . S
C559 C565 1.465 1_565 S
C560 C555 1.399 . S
C560 C559 1.394 . S
C560 C561 1.516 . S
C561 C560 1.516 . S
C561 C562 1.502 1_565 S
C561 C563 1.561 . S
C561 C564 1.526 1_565 S
C562 H546 0.959 . S
C562 H547 0.959 . S
C562 H548 0.961 . S
C562 C561 1.502 1_545 S
C563 H549 0.960 . S
C563 H550 0.961 . S
C563 H551 0.959 . S
C563 C561 1.561 . S
C564 C561 1.526 1_545 S
C564 C565 1.396 . S
C564 C569 1.390 . S
C565 C559 1.465 1_545 S
C565 C564 1.396 . S
C565 C566 1.399 . S
C566 H552 0.929 . S
C566 C565 1.399 . S
C566 C567 1.385 . S
C567 H553 0.931 . S
C567 C566 1.385 . S
C567 C568 1.389 . S
C568 C567 1.389 . S
C568 C569 1.387 . S
C569 H554 0.930 . S
C569 C564 1.390 . S
C569 C568 1.387 . S
H570 C582 0.930 . S
H571 C584 0.930 . S
H572 C585 0.930 . S
H573 C589 0.959 . S
H574 C589 0.959 . S
H575 C589 0.961 1_554 S
H576 C590 0.959 . S
H577 C590 0.962 1_556 S
H578 C590 0.959 1_556 S
H579 C593 0.929 . S
H580 C594 0.931 . S
H581 C596 0.930 . S
C582 H570 0.930 . S
C582 C583 1.399 . S
C582 C587 1.399 . S
C583 C582 1.399 . S
C583 C584 1.376 . S
C584 H571 0.930 . S
C584 C583 1.376 . S
C584 C585 1.388 . S
C585 H572 0.930 . S
C585 C584 1.388 . S
C585 C586 1.390 . S
C586 C585 1.390 . S
C586 C587 1.394 . S
C586 C592 1.465 1_554 S
C587 C582 1.399 . S
C587 C586 1.394 . S
C587 C588 1.511 1_554 S
C588 C587 1.511 1_556 S
C588 C589 1.502 . S
C588 C590 1.561 1_556 S
C588 C591 1.531 . S
C589 H573 0.959 . S
C589 H574 0.959 . S
C589 H575 0.961 1_556 S
C589 C588 1.502 . S
C590 H576 0.959 . S
C590 H577 0.962 1_554 S
C590 H578 0.959 1_554 S
C590 C588 1.561 1_554 S
C591 C588 1.531 . S
C591 C592 1.396 . S
C591 C596 1.390 . S
C592 C586 1.465 1_556 S
C592 C591 1.396 . S
C592 C593 1.399 . S
C593 H579 0.929 . S
C593 C592 1.399 . S
C593 C594 1.385 . S
C594 H580 0.931 . S
C594 C593 1.385 . S
C594 C595 1.389 . S
C595 C594 1.389 . S
C595 C596 1.387 . S
C596 H581 0.930 . S
C596 C591 1.390 . S
C596 C595 1.387 . S
H597 C609 0.930 . S
H598 C611 0.930 . S
H599 C612 0.930 . S
H600 C616 0.959 . S
H601 C616 0.959 . S
H602 C616 0.961 . S
H603 C617 0.960 . S
H604 C617 0.961 . S
H605 C617 0.959 . S
H606 C620 0.929 . S
H607 C621 0.931 . S
H608 C623 0.930 . S
C609 H597 0.930 . S
C609 C610 1.399 . S
C609 C614 1.399 . S
C610 C609 1.399 . S
C610 C611 1.376 . S
C611 H598 0.930 . S
C611 C610 1.376 . S
C611 C612 1.388 . S
C612 H599 0.930 . S
C612 C611 1.388 . S
C612 C613 1.390 . S
C613 C612 1.390 . S
C613 C614 1.394 . S
C613 C619 1.465 . S
C614 C609 1.399 . S
C614 C613 1.394 . S
C614 C615 1.516 . S
C615 C614 1.516 . S
C615 C616 1.502 . S
C615 C617 1.561 . S
C615 C618 1.526 . S
C616 H600 0.959 . S
C616 H601 0.959 . S
C616 H602 0.961 . S
C616 C615 1.502 . S
C617 H603 0.960 . S
C617 H604 0.961 . S
C617 H605 0.959 . S
C617 C615 1.561 . S
C618 C615 1.526 . S
C618 C619 1.396 . S
C618 C623 1.390 . S
C619 C613 1.465 . S
C619 C618 1.396 . S
C619 C620 1.399 . S
C620 H606 0.929 . S
C620 C619 1.399 . S
C620 C621 1.385 . S
C621 H607 0.931 . S
C621 C620 1.385 . S
C621 C622 1.389 . S
C622 C621 1.389 . S
C622 C623 1.387 . S
C623 H608 0.930 . S
C623 C618 1.390 . S
C623 C622 1.387 . S
H624 C636 0.930 . S
H625 C638 0.930 . S
H626 C639 0.930 . S
H627 C643 0.959 . S
H628 C643 0.959 . S
H629 C643 0.961 . S
H630 C644 0.960 . S
H631 C644 0.961 . S
H632 C644 0.959 . S
H633 C647 0.929 . S
H634 C648 0.931 . S
H635 C650 0.930 . S
C636 H624 0.930 . S
C636 C637 1.399 . S
C636 C641 1.399 . S
C637 C636 1.399 . S
C637 C638 1.376 . S
C638 H625 0.930 . S
C638 C637 1.376 . S
C638 C639 1.388 . S
C639 H626 0.930 . S
C639 C638 1.388 . S
C639 C640 1.390 . S
C640 C639 1.390 . S
C640 C641 1.394 . S
C640 C646 1.465 . S
C641 C636 1.399 . S
C641 C640 1.394 . S
C641 C642 1.516 . S
C642 C641 1.516 . S
C642 C643 1.502 . S
C642 C644 1.561 . S
C642 C645 1.526 . S
C643 H627 0.959 . S
C643 H628 0.959 . S
C643 H629 0.961 . S
C643 C642 1.502 . S
C644 H630 0.960 . S
C644 H631 0.961 . S
C644 H632 0.959 . S
C644 C642 1.561 . S
C645 C642 1.526 . S
C645 C646 1.396 . S
C645 C650 1.390 . S
C646 C640 1.465 . S
C646 C645 1.396 . S
C646 C647 1.399 . S
C647 H633 0.929 . S
C647 C646 1.399 . S
C647 C648 1.385 . S
C648 H634 0.931 . S
C648 C647 1.385 . S
C648 C649 1.389 . S
C649 C648 1.389 . S
C649 C650 1.387 . S
C650 H635 0.930 . S
C650 C645 1.390 . S
C650 C649 1.387 . S
H651 C663 0.930 . S
H652 C665 0.930 . S
H653 C666 0.930 . S
H654 C670 0.959 . S
H655 C670 0.957 . S
H656 C670 0.963 1_554 S
H657 C671 0.947 1_554 S
H658 C671 0.973 . S
H659 C671 0.961 . S
H660 C674 0.929 . S
H661 C675 0.931 . S
H662 C677 0.930 . S
C663 H651 0.930 . S
C663 C664 1.399 . S
C663 C668 1.399 . S
C664 C663 1.399 . S
C664 C665 1.376 . S
C665 H652 0.930 . S
C665 C664 1.376 . S
C665 C666 1.388 . S
C666 H653 0.930 . S
C666 C665 1.388 . S
C666 C667 1.390 . S
C667 C666 1.390 . S
C667 C668 1.394 . S
C667 C673 1.465 1_554 S
C668 C663 1.399 . S
C668 C667 1.394 . S
C668 C669 1.514 . S
C669 C668 1.514 . S
C669 C670 1.502 1_554 S
C669 C671 1.561 1_554 S
C669 C672 1.528 1_554 S
C670 H654 0.959 . S
C670 H655 0.957 . S
C670 H656 0.963 1_556 S
C670 C669 1.502 1_556 S
C671 H657 0.947 1_556 S
C671 H658 0.973 . S
C671 H659 0.961 . S
C671 C669 1.561 1_556 S
C672 C669 1.528 1_556 S
C672 C673 1.396 . S
C672 C677 1.390 . S
C673 C667 1.465 1_556 S
C673 C672 1.396 . S
C673 C674 1.399 . S
C674 H660 0.929 . S
C674 C673 1.399 . S
C674 C675 1.385 . S
C675 H661 0.931 . S
C675 C674 1.385 . S
C675 C676 1.389 . S
C676 C675 1.389 . S
C676 C677 1.387 . S
C677 H662 0.930 . S
C677 C672 1.390 . S
C677 C676 1.387 . S
H678 C690 0.930 . S
H679 C692 0.930 . S
H680 C693 0.930 . S
H681 C697 0.959 . S
H682 C697 0.959 . S
H683 C697 0.961 . S
H684 C698 0.960 . S
H685 C698 0.961 . S
H686 C698 0.959 . S
H687 C701 0.929 . S
H688 C702 0.931 . S
H689 C704 0.930 . S
C690 H678 0.930 . S
C690 C691 1.399 . S
C690 C695 1.399 . S
C691 C690 1.399 . S
C691 C692 1.376 . S
C692 H679 0.930 . S
C692 C691 1.376 . S
C692 C693 1.388 . S
C693 H680 0.930 . S
C693 C692 1.388 . S
C693 C694 1.390 . S
C694 C693 1.390 . S
C694 C695 1.394 . S
C694 C700 1.465 . S
C695 C690 1.399 . S
C695 C694 1.394 . S
C695 C696 1.516 . S
C696 C695 1.516 . S
C696 C697 1.502 . S
C696 C698 1.561 . S
C696 C699 1.526 . S
C697 H681 0.959 . S
C697 H682 0.959 . S
C697 H683 0.961 . S
C697 C696 1.502 . S
C698 H684 0.960 . S
C698 H685 0.961 . S
C698 H686 0.959 . S
C698 C696 1.561 . S
C699 C696 1.526 . S
C699 C700 1.396 . S
C699 C704 1.390 . S
C700 C694 1.465 . S
C700 C699 1.396 . S
C700 C701 1.399 . S
C701 H687 0.929 . S
C701 C700 1.399 . S
C701 C702 1.385 . S
C702 H688 0.931 . S
C702 C701 1.385 . S
C702 C703 1.389 . S
C703 C702 1.389 . S
C703 C704 1.387 . S
C704 H689 0.930 . S
C704 C699 1.390 . S
C704 C703 1.387 . S
H705 C717 0.930 . S
H706 C719 0.930 . S
H707 C720 0.930 . S
H708 C724 0.959 . S
H709 C724 0.959 . S
H710 C724 0.961 . S
H711 C725 0.960 . S
H712 C725 0.961 . S
H713 C725 0.959 . S
H714 C728 0.929 . S
H715 C729 0.931 . S
H716 C731 0.930 . S
C717 H705 0.930 . S
C717 C718 1.399 . S
C717 C722 1.399 . S
C718 C717 1.399 . S
C718 C719 1.376 . S
C719 H706 0.930 . S
C719 C718 1.376 . S
C719 C720 1.388 . S
C720 H707 0.930 . S
C720 C719 1.388 . S
C720 C721 1.390 . S
C721 C720 1.390 . S
C721 C722 1.394 . S
C721 C727 1.465 . S
C722 C717 1.399 . S
C722 C721 1.394 . S
C722 C723 1.516 . S
C723 C722 1.516 . S
C723 C724 1.502 . S
C723 C725 1.561 . S
C723 C726 1.526 . S
C724 H708 0.959 . S
C724 H709 0.959 . S
C724 H710 0.961 . S
C724 C723 1.502 . S
C725 H711 0.960 . S
C725 H712 0.961 . S
C725 H713 0.959 . S
C725 C723 1.561 . S
C726 C723 1.526 . S
C726 C727 1.396 . S
C726 C731 1.390 . S
C727 C721 1.465 . S
C727 C726 1.396 . S
C727 C728 1.399 . S
C728 H714 0.929 . S
C728 C727 1.399 . S
C728 C729 1.385 . S
C729 H715 0.931 . S
C729 C728 1.385 . S
C729 C730 1.389 . S
C730 C729 1.389 . S
C730 C731 1.387 . S
C731 H716 0.930 . S
C731 C726 1.390 . S
C731 C730 1.387 . S
H732 C744 0.930 . S
H733 C746 0.930 . S
H734 C747 0.930 . S
H735 C751 0.959 . S
H736 C751 0.959 . S
H737 C751 0.961 . S
H738 C752 0.960 . S
H739 C752 0.961 . S
H740 C752 0.959 . S
H741 C755 0.929 . S
H742 C756 0.931 . S
H743 C758 0.930 . S
C744 H732 0.930 . S
C744 C745 1.399 . S
C744 C749 1.399 . S
C745 C744 1.399 . S
C745 C746 1.376 . S
C746 H733 0.930 . S
C746 C745 1.376 . S
C746 C747 1.388 . S
C747 H734 0.930 . S
C747 C746 1.388 . S
C747 C748 1.390 . S
C748 C747 1.390 . S
C748 C749 1.394 . S
C748 C754 1.465 . S
C749 C744 1.399 . S
C749 C748 1.394 . S
C749 C750 1.516 . S
C750 C749 1.516 . S
C750 C751 1.502 . S
C750 C752 1.561 . S
C750 C753 1.526 . S
C751 H735 0.959 . S
C751 H736 0.959 . S
C751 H737 0.961 . S
C751 C750 1.502 . S
C752 H738 0.960 . S
C752 H739 0.961 . S
C752 H740 0.959 . S
C752 C750 1.561 . S
C753 C750 1.526 . S
C753 C754 1.396 . S
C753 C758 1.390 . S
C754 C748 1.465 . S
C754 C753 1.396 . S
C754 C755 1.399 . S
C755 H741 0.929 . S
C755 C754 1.399 . S
C755 C756 1.385 . S
C756 H742 0.931 . S
C756 C755 1.385 . S
C756 C757 1.389 . S
C757 C756 1.389 . S
C757 C758 1.387 . S
C758 H743 0.930 . S
C758 C753 1.390 . S
C758 C757 1.387 . S
H759 C771 0.930 . S
H760 C773 0.930 . S
H761 C774 0.930 . S
H762 C778 0.959 . S
H763 C778 0.959 . S
H764 C778 0.961 . S
H765 C779 0.960 . S
H766 C779 0.961 . S
H767 C779 0.959 . S
H768 C782 0.929 . S
H769 C783 0.931 . S
H770 C785 0.930 . S
C771 H759 0.930 . S
C771 C772 1.399 . S
C771 C776 1.399 . S
C772 C771 1.399 . S
C772 C773 1.376 . S
C773 H760 0.930 . S
C773 C772 1.376 . S
C773 C774 1.388 . S
C774 H761 0.930 . S
C774 C773 1.388 . S
C774 C775 1.390 . S
C775 C774 1.390 . S
C775 C776 1.394 . S
C775 C781 1.465 . S
C776 C771 1.399 . S
C776 C775 1.394 . S
C776 C777 1.516 1_655 S
C777 C776 1.516 1_455 S
C777 C778 1.502 . S
C777 C779 1.561 . S
C777 C780 1.526 . S
C778 H762 0.959 . S
C778 H763 0.959 . S
C778 H764 0.961 . S
C778 C777 1.502 . S
C779 H765 0.960 . S
C779 H766 0.961 . S
C779 H767 0.959 . S
C779 C777 1.561 . S
C780 C777 1.526 . S
C780 C781 1.396 1_455 S
C780 C785 1.390 . S
C781 C775 1.465 . S
C781 C780 1.396 1_655 S
C781 C782 1.399 . S
C782 H768 0.929 . S
C782 C781 1.399 . S
C782 C783 1.385 1_655 S
C783 H769 0.931 . S
C783 C782 1.385 1_455 S
C783 C784 1.389 . S
C784 C783 1.389 . S
C784 C785 1.387 . S
C785 H770 0.930 . S
C785 C780 1.390 . S
C785 C784 1.387 . S
H786 C798 0.930 . S
H787 C800 0.930 . S
H788 C801 0.930 . S
H789 C805 0.959 . S
H790 C805 0.959 . S
H791 C805 0.961 . S
H792 C806 0.960 . S
H793 C806 0.961 . S
H794 C806 0.959 . S
H795 C809 0.929 1_556 S
H796 C810 0.931 . S
H797 C812 0.930 . S
C798 H786 0.930 . S
C798 C799 1.399 . S
C798 C803 1.399 . S
C799 C798 1.399 . S
C799 C800 1.376 . S
C800 H787 0.930 . S
C800 C799 1.376 . S
C800 C801 1.388 1_565 S
C801 H788 0.930 . S
C801 C800 1.388 1_545 S
C801 C802 1.390 . S
C802 C801 1.390 . S
C802 C803 1.394 1_545 S
C802 C808 1.465 1_556 S
C803 C798 1.399 . S
C803 C802 1.394 1_565 S
C803 C804 1.516 1_556 S
C804 C803 1.516 1_554 S
C804 C805 1.502 . S
C804 C806 1.561 . S
C804 C807 1.526 1_565 S
C805 H789 0.959 . S
C805 H790 0.959 . S
C805 H791 0.961 . S
C805 C804 1.502 . S
C806 H792 0.960 . S
C806 H793 0.961 . S
C806 H794 0.959 . S
C806 C804 1.561 . S
C807 C804 1.526 1_545 S
C807 C808 1.396 . S
C807 C812 1.390 . S
C808 C802 1.465 1_554 S
C808 C807 1.396 . S
C808 C809 1.399 . S
C809 H795 0.929 1_554 S
C809 C808 1.399 . S
C809 C810 1.385 . S
C810 H796 0.931 . S
C810 C809 1.385 . S
C810 C811 1.389 . S
C811 C810 1.389 . S
C811 C812 1.387 . S
C812 H797 0.930 . S
C812 C807 1.390 . S
C812 C811 1.387 . S
H813 C825 0.930 . S
H814 C827 0.930 . S
H815 C828 0.930 . S
H816 C832 0.959 . S
H817 C832 0.959 . S
H818 C832 0.961 . S
H819 C833 0.960 . S
H820 C833 0.961 . S
H821 C833 0.959 . S
H822 C836 0.929 . S
H823 C837 0.931 . S
H824 C839 0.930 . S
C825 H813 0.930 . S
C825 C826 1.399 . S
C825 C830 1.399 . S
C826 C825 1.399 . S
C826 C827 1.376 . S
C827 H814 0.930 . S
C827 C826 1.376 . S
C827 C828 1.388 . S
C828 H815 0.930 . S
C828 C827 1.388 . S
C828 C829 1.390 . S
C829 C828 1.390 . S
C829 C830 1.394 . S
C829 C835 1.465 . S
C830 C825 1.399 . S
C830 C829 1.394 . S
C830 C831 1.516 . S
C831 C830 1.516 . S
C831 C832 1.502 . S
C831 C833 1.561 . S
C831 C834 1.526 . S
C832 H816 0.959 . S
C832 H817 0.959 . S
C832 H818 0.961 . S
C832 C831 1.502 . S
C833 H819 0.960 . S
C833 H820 0.961 . S
C833 H821 0.959 . S
C833 C831 1.561 . S
C834 C831 1.526 . S
C834 C835 1.396 . S
C834 C839 1.390 . S
C835 C829 1.465 . S
C835 C834 1.396 . S
C835 C836 1.399 . S
C836 H822 0.929 . S
C836 C835 1.399 . S
C836 C837 1.385 . S
C837 H823 0.931 . S
C837 C836 1.385 . S
C837 C838 1.389 . S
C838 C837 1.389 . S
C838 C839 1.387 . S
C839 H824 0.930 . S
C839 C834 1.390 . S
C839 C838 1.387 . S
H840 C852 0.930 . S
H841 C854 0.930 . S
H842 C855 0.930 . S
H843 C859 0.959 . S
H844 C859 0.959 . S
H845 C859 0.961 . S
H846 C860 0.960 . S
H847 C860 0.961 . S
H848 C860 0.959 . S
H849 C863 0.929 . S
H850 C864 0.931 . S
H851 C866 0.930 . S
C852 H840 0.930 . S
C852 C853 1.399 . S
C852 C857 1.399 . S
C853 C852 1.399 . S
C853 C854 1.376 . S
C854 H841 0.930 . S
C854 C853 1.376 . S
C854 C855 1.388 . S
C855 H842 0.930 . S
C855 C854 1.388 . S
C855 C856 1.390 . S
C856 C855 1.390 . S
C856 C857 1.394 . S
C856 C862 1.465 . S
C857 C852 1.399 . S
C857 C856 1.394 . S
C857 C858 1.516 1_655 S
C858 C857 1.516 1_455 S
C858 C859 1.502 . S
C858 C860 1.561 . S
C858 C861 1.526 . S
C859 H843 0.959 . S
C859 H844 0.959 . S
C859 H845 0.961 . S
C859 C858 1.502 . S
C860 H846 0.960 . S
C860 H847 0.961 . S
C860 H848 0.959 . S
C860 C858 1.561 . S
C861 C858 1.526 . S
C861 C862 1.396 1_455 S
C861 C866 1.390 . S
C862 C856 1.465 . S
C862 C861 1.396 1_655 S
C862 C863 1.399 . S
C863 H849 0.929 . S
C863 C862 1.399 . S
C863 C864 1.385 1_655 S
C864 H850 0.931 . S
C864 C863 1.385 1_455 S
C864 C865 1.389 . S
C865 C864 1.389 . S
C865 C866 1.387 . S
C866 H851 0.930 . S
C866 C861 1.390 . S
C866 C865 1.387 . S
H867 C879 0.930 . S
H868 C881 0.930 . S
H869 C882 0.930 . S
H870 C886 0.970 1_556 S
H871 C886 0.959 . S
H872 C886 0.961 . S
H873 C887 0.960 . S
H874 C887 0.961 . S
H875 C887 0.959 . S
H876 C890 0.929 1_565 S
H877 C891 0.931 . S
H878 C893 0.930 . S
C879 H867 0.930 . S
C879 C880 1.399 . S
C879 C884 1.399 . S
C880 C879 1.399 . S
C880 C881 1.376 . S
C881 H868 0.930 . S
C881 C880 1.376 . S
C881 C882 1.388 . S
C882 H869 0.930 . S
C882 C881 1.388 . S
C882 C883 1.390 . S
C883 C882 1.390 . S
C883 C884 1.394 . S
C883 C889 1.465 1_564 S
C884 C879 1.399 . S
C884 C883 1.394 . S
C884 C885 1.516 1_565 S
C885 C884 1.516 1_545 S
C885 C886 1.502 . S
C885 C887 1.561 . S
C885 C888 1.526 1_554 S
C886 H870 0.970 1_554 S
C886 H871 0.959 . S
C886 H872 0.961 . S
C886 C885 1.502 . S
C887 H873 0.960 . S
C887 H874 0.961 . S
C887 H875 0.959 . S
C887 C885 1.561 . S
C888 C885 1.526 1_556 S
C888 C889 1.396 . S
C888 C893 1.390 . S
C889 C883 1.465 1_546 S
C889 C888 1.396 . S
C889 C890 1.399 . S
C890 H876 0.929 1_545 S
C890 C889 1.399 . S
C890 C891 1.385 . S
C891 H877 0.931 . S
C891 C890 1.385 . S
C891 C892 1.389 . S
C892 C891 1.389 . S
C892 C893 1.387 . S
C893 H878 0.930 . S
C893 C888 1.390 . S
C893 C892 1.387 . S
H894 C906 0.930 . S
H895 C908 0.930 . S
H896 C909 0.930 . S
H897 C913 0.959 . S
H898 C913 0.959 . S
H899 C913 0.961 . S
H900 C914 0.960 . S
H901 C914 0.961 . S
H902 C914 0.959 . S
H903 C917 0.929 . S
H904 C918 0.931 . S
H905 C920 0.930 . S
C906 H894 0.930 . S
C906 C907 1.399 . S
C906 C911 1.399 . S
C907 C906 1.399 . S
C907 C908 1.376 . S
C908 H895 0.930 . S
C908 C907 1.376 . S
C908 C909 1.388 . S
C909 H896 0.930 . S
C909 C908 1.388 . S
C909 C910 1.390 . S
C910 C909 1.390 . S
C910 C911 1.394 . S
C910 C916 1.465 . S
C911 C906 1.399 . S
C911 C910 1.394 . S
C911 C912 1.516 . S
C912 C911 1.516 . S
C912 C913 1.502 . S
C912 C914 1.561 . S
C912 C915 1.526 . S
C913 H897 0.959 . S
C913 H898 0.959 . S
C913 H899 0.961 . S
C913 C912 1.502 . S
C914 H900 0.960 . S
C914 H901 0.961 . S
C914 H902 0.959 . S
C914 C912 1.561 . S
C915 C912 1.526 . S
C915 C916 1.396 . S
C915 C920 1.390 . S
C916 C910 1.465 . S
C916 C915 1.396 . S
C916 C917 1.399 . S
C917 H903 0.929 . S
C917 C916 1.399 . S
C917 C918 1.385 . S
C918 H904 0.931 . S
C918 C917 1.385 . S
C918 C919 1.389 . S
C919 C918 1.389 . S
C919 C920 1.387 . S
C920 H905 0.930 . S
C920 C915 1.390 . S
C920 C919 1.387 . S
H921 C933 0.930 . S
H922 C935 0.930 . S
H923 C936 0.930 . S
H924 C940 0.959 . S
H925 C940 0.959 . S
H926 C940 0.961 . S
H927 C941 0.960 . S
H928 C941 0.961 . S
H929 C941 0.959 . S
H930 C944 0.929 . S
H931 C945 0.931 . S
H932 C947 0.930 . S
C933 H921 0.930 . S
C933 C934 1.399 . S
C933 C938 1.399 . S
C934 C933 1.399 . S
C934 C935 1.376 . S
C935 H922 0.930 . S
C935 C934 1.376 . S
C935 C936 1.388 . S
C936 H923 0.930 . S
C936 C935 1.388 . S
C936 C937 1.390 . S
C937 C936 1.390 . S
C937 C938 1.394 . S
C937 C943 1.465 . S
C938 C933 1.399 . S
C938 C937 1.394 . S
C938 C939 1.516 . S
C939 C938 1.516 . S
C939 C940 1.502 . S
C939 C941 1.561 . S
C939 C942 1.526 . S
C940 H924 0.959 . S
C940 H925 0.959 . S
C940 H926 0.961 . S
C940 C939 1.502 . S
C941 H927 0.960 . S
C941 H928 0.961 . S
C941 H929 0.959 . S
C941 C939 1.561 . S
C942 C939 1.526 . S
C942 C943 1.396 . S
C942 C947 1.390 . S
C943 C937 1.465 . S
C943 C942 1.396 . S
C943 C944 1.399 . S
C944 H930 0.929 . S
C944 C943 1.399 . S
C944 C945 1.385 . S
C945 H931 0.931 . S
C945 C944 1.385 . S
C945 C946 1.389 . S
C946 C945 1.389 . S
C946 C947 1.387 . S
C947 H932 0.930 . S
C947 C942 1.390 . S
C947 C946 1.387 . S
H948 C960 0.930 . S
H949 C962 0.930 . S
H950 C963 0.930 . S
H951 C967 0.959 . S
H952 C967 0.959 . S
H953 C967 0.961 . S
H954 C968 0.953 1_554 S
H955 C968 0.961 . S
H956 C968 0.959 . S
H957 C971 0.929 . S
H958 C972 0.931 . S
H959 C974 0.930 1_554 S
C960 H948 0.930 . S
C960 C961 1.399 . S
C960 C965 1.399 . S
C961 C960 1.399 . S
C961 C962 1.376 1_554 S
C962 H949 0.930 . S
C962 C961 1.376 1_556 S
C962 C963 1.388 . S
C963 H950 0.930 . S
C963 C962 1.388 . S
C963 C964 1.390 . S
C964 C963 1.390 . S
C964 C965 1.394 1_556 S
C964 C970 1.465 . S
C965 C960 1.399 . S
C965 C964 1.394 1_554 S
C965 C966 1.516 . S
C966 C965 1.516 . S
C966 C967 1.502 . S
C966 C968 1.561 1_554 S
C966 C969 1.525 1_554 S
C967 H951 0.959 . S
C967 H952 0.959 . S
C967 H953 0.961 . S
C967 C966 1.502 . S
C968 H954 0.953 1_556 S
C968 H955 0.961 . S
C968 H956 0.959 . S
C968 C966 1.561 1_556 S
C969 C966 1.525 1_556 S
C969 C970 1.397 . S
C969 C974 1.390 . S
C970 C964 1.465 . S
C970 C969 1.397 . S
C970 C971 1.399 . S
C971 H957 0.929 . S
C971 C970 1.399 . S
C971 C972 1.385 . S
C972 H958 0.931 . S
C972 C971 1.385 . S
C972 C973 1.389 . S
C973 C972 1.389 . S
C973 C974 1.387 . S
C974 H959 0.930 1_556 S
C974 C969 1.390 . S
C974 C973 1.387 . S
H975 C987 0.930 . S
H976 C989 0.930 . S
H977 C990 0.930 . S
H978 C994 0.959 . S
H979 C994 0.959 . S
H980 C994 0.961 . S
H981 C995 0.960 . S
H982 C995 0.961 . S
H983 C995 0.959 . S
H984 C998 0.929 . S
H985 C999 0.931 . S
H986 C1001 0.930 . S
C987 H975 0.930 . S
C987 C988 1.399 . S
C987 C992 1.399 . S
C988 C987 1.399 . S
C988 C989 1.376 . S
C989 H976 0.930 . S
C989 C988 1.376 . S
C989 C990 1.388 . S
C990 H977 0.930 . S
C990 C989 1.388 . S
C990 C991 1.390 . S
C991 C990 1.390 . S
C991 C992 1.394 . S
C991 C997 1.465 . S
C992 C987 1.399 . S
C992 C991 1.394 . S
C992 C993 1.516 . S
C993 C992 1.516 . S
C993 C994 1.502 . S
C993 C995 1.561 . S
C993 C996 1.526 . S
C994 H978 0.959 . S
C994 H979 0.959 . S
C994 H980 0.961 . S
C994 C993 1.502 . S
C995 H981 0.960 . S
C995 H982 0.961 . S
C995 H983 0.959 . S
C995 C993 1.561 . S
C996 C993 1.526 . S
C996 C997 1.396 . S
C996 C1001 1.390 . S
C997 C991 1.465 . S
C997 C996 1.396 . S
C997 C998 1.399 . S
C998 H984 0.929 . S
C998 C997 1.399 . S
C998 C999 1.385 . S
C999 H985 0.931 . S
C999 C998 1.385 . S
C999 C1000 1.389 . S
C1000 C999 1.389 . S
C1000 C1001 1.387 . S
C1001 H986 0.930 . S
C1001 C996 1.390 . S
C1001 C1000 1.387 . S
H1002 C1014 0.930 . S
H1003 C1016 0.930 . S
H1004 C1017 0.930 . S
H1005 C1021 0.959 . S
H1006 C1021 0.959 . S
H1007 C1021 0.961 . S
H1008 C1022 0.960 . S
H1009 C1022 0.961 . S
H1010 C1022 0.959 . S
H1011 C1025 0.929 . S
H1012 C1026 0.931 . S
H1013 C1028 0.930 . S
C1014 H1002 0.930 . S
C1014 C1015 1.399 . S
C1014 C1019 1.399 . S
C1015 C1014 1.399 . S
C1015 C1016 1.376 . S
C1016 H1003 0.930 . S
C1016 C1015 1.376 . S
C1016 C1017 1.388 . S
C1017 H1004 0.930 . S
C1017 C1016 1.388 . S
C1017 C1018 1.390 . S
C1018 C1017 1.390 . S
C1018 C1019 1.394 . S
C1018 C1024 1.465 . S
C1019 C1014 1.399 . S
C1019 C1018 1.394 . S
C1019 C1020 1.516 . S
C1020 C1019 1.516 . S
C1020 C1021 1.502 . S
C1020 C1022 1.561 . S
C1020 C1023 1.526 . S
C1021 H1005 0.959 . S
C1021 H1006 0.959 . S
C1021 H1007 0.961 . S
C1021 C1020 1.502 . S
C1022 H1008 0.960 . S
C1022 H1009 0.961 . S
C1022 H1010 0.959 . S
C1022 C1020 1.561 . S
C1023 C1020 1.526 . S
C1023 C1024 1.396 . S
C1023 C1028 1.390 . S
C1024 C1018 1.465 . S
C1024 C1023 1.396 . S
C1024 C1025 1.399 . S
C1025 H1011 0.929 . S
C1025 C1024 1.399 . S
C1025 C1026 1.385 . S
C1026 H1012 0.931 . S
C1026 C1025 1.385 . S
C1026 C1027 1.389 . S
C1027 C1026 1.389 . S
C1027 C1028 1.387 . S
C1028 H1013 0.930 . S
C1028 C1023 1.390 . S
C1028 C1027 1.387 . S
H1029 C1041 0.930 . S
H1030 C1043 0.930 . S
H1031 C1044 0.930 . S
H1032 C1048 0.959 . S
H1033 C1048 0.959 . S
H1034 C1048 0.961 . S
H1035 C1049 0.960 . S
H1036 C1049 0.961 . S
H1037 C1049 0.959 . S
H1038 C1052 0.929 . S
H1039 C1053 0.931 . S
H1040 C1055 0.930 . S
C1041 H1029 0.930 . S
C1041 C1042 1.399 . S
C1041 C1046 1.399 . S
C1042 C1041 1.399 . S
C1042 C1043 1.376 . S
C1043 H1030 0.930 . S
C1043 C1042 1.376 . S
C1043 C1044 1.388 . S
C1044 H1031 0.930 . S
C1044 C1043 1.388 . S
C1044 C1045 1.390 . S
C1045 C1044 1.390 . S
C1045 C1046 1.394 . S
C1045 C1051 1.465 . S
C1046 C1041 1.399 . S
C1046 C1045 1.394 . S
C1046 C1047 1.516 1_556 S
C1047 C1046 1.516 1_554 S
C1047 C1048 1.502 . S
C1047 C1049 1.561 1_554 S
C1047 C1050 1.526 . S
C1048 H1032 0.959 . S
C1048 H1033 0.959 . S
C1048 H1034 0.961 . S
C1048 C1047 1.502 . S
C1049 H1035 0.960 . S
C1049 H1036 0.961 . S
C1049 H1037 0.959 . S
C1049 C1047 1.561 1_556 S
C1050 C1047 1.526 . S
C1050 C1051 1.396 1_554 S
C1050 C1055 1.390 . S
C1051 C1045 1.465 . S
C1051 C1050 1.396 1_556 S
C1051 C1052 1.399 . S
C1052 H1038 0.929 . S
C1052 C1051 1.399 . S
C1052 C1053 1.385 1_556 S
C1053 H1039 0.931 . S
C1053 C1052 1.385 1_554 S
C1053 C1054 1.389 . S
C1054 C1053 1.389 . S
C1054 C1055 1.387 . S
C1055 H1040 0.930 . S
C1055 C1050 1.390 . S
C1055 C1054 1.387 . S
H1056 C1068 0.930 . S
H1057 C1070 0.930 . S
H1058 C1071 0.930 . S
H1059 C1075 0.959 . S
H1060 C1075 0.959 . S
H1061 C1075 0.961 . S
H1062 C1076 0.960 . S
H1063 C1076 0.961 . S
H1064 C1076 0.959 . S
H1065 C1079 0.929 . S
H1066 C1080 0.931 . S
H1067 C1082 0.930 . S
C1068 H1056 0.930 . S
C1068 C1069 1.399 . S
C1068 C1073 1.399 . S
C1069 C1068 1.399 . S
C1069 C1070 1.376 . S
C1070 H1057 0.930 . S
C1070 C1069 1.376 . S
C1070 C1071 1.388 . S
C1071 H1058 0.930 . S
C1071 C1070 1.388 . S
C1071 C1072 1.390 . S
C1072 C1071 1.390 . S
C1072 C1073 1.394 . S
C1072 C1078 1.465 . S
C1073 C1068 1.399 . S
C1073 C1072 1.394 . S
C1073 C1074 1.516 . S
C1074 C1073 1.516 . S
C1074 C1075 1.502 . S
C1074 C1076 1.561 . S
C1074 C1077 1.526 . S
C1075 H1059 0.959 . S
C1075 H1060 0.959 . S
C1075 H1061 0.961 . S
C1075 C1074 1.502 . S
C1076 H1062 0.960 . S
C1076 H1063 0.961 . S
C1076 H1064 0.959 . S
C1076 C1074 1.561 . S
C1077 C1074 1.526 . S
C1077 C1078 1.396 . S
C1077 C1082 1.390 . S
C1078 C1072 1.465 . S
C1078 C1077 1.396 . S
C1078 C1079 1.399 . S
C1079 H1065 0.929 . S
C1079 C1078 1.399 . S
C1079 C1080 1.385 . S
C1080 H1066 0.931 . S
C1080 C1079 1.385 . S
C1080 C1081 1.389 . S
C1081 C1080 1.389 . S
C1081 C1082 1.387 . S
C1082 H1067 0.930 . S
C1082 C1077 1.390 . S
C1082 C1081 1.387 . S
H1083 C1095 0.930 . S
H1084 C1097 0.930 . S
H1085 C1098 0.930 . S
H1086 C1102 0.959 . S
H1087 C1102 0.959 . S
H1088 C1102 0.961 . S
H1089 C1103 0.960 . S
H1090 C1103 0.961 . S
H1091 C1103 0.959 . S
H1092 C1106 0.929 . S
H1093 C1107 0.931 . S
H1094 C1109 0.930 . S
C1095 H1083 0.930 . S
C1095 C1096 1.399 . S
C1095 C1100 1.399 . S
C1096 C1095 1.399 . S
C1096 C1097 1.376 . S
C1097 H1084 0.930 . S
C1097 C1096 1.376 . S
C1097 C1098 1.388 . S
C1098 H1085 0.930 . S
C1098 C1097 1.388 . S
C1098 C1099 1.390 . S
C1099 C1098 1.390 . S
C1099 C1100 1.394 . S
C1099 C1105 1.465 . S
C1100 C1095 1.399 . S
C1100 C1099 1.394 . S
C1100 C1101 1.516 . S
C1101 C1100 1.516 . S
C1101 C1102 1.502 . S
C1101 C1103 1.561 . S
C1101 C1104 1.526 . S
C1102 H1086 0.959 . S
C1102 H1087 0.959 . S
C1102 H1088 0.961 . S
C1102 C1101 1.502 . S
C1103 H1089 0.960 . S
C1103 H1090 0.961 . S
C1103 H1091 0.959 . S
C1103 C1101 1.561 . S
C1104 C1101 1.526 . S
C1104 C1105 1.396 . S
C1104 C1109 1.390 . S
C1105 C1099 1.465 . S
C1105 C1104 1.396 . S
C1105 C1106 1.399 . S
C1106 H1092 0.929 . S
C1106 C1105 1.399 . S
C1106 C1107 1.385 . S
C1107 H1093 0.931 . S
C1107 C1106 1.385 . S
C1107 C1108 1.389 . S
C1108 C1107 1.389 . S
C1108 C1109 1.387 . S
C1109 H1094 0.930 . S
C1109 C1104 1.390 . S
C1109 C1108 1.387 . S
H1110 C1122 0.930 . S
H1111 C1124 0.930 . S
H1112 C1125 0.930 . S
H1113 C1129 0.959 . S
H1114 C1129 0.959 . S
H1115 C1129 0.961 . S
H1116 C1130 0.960 . S
H1117 C1130 0.961 . S
H1118 C1130 0.959 . S
H1119 C1133 0.929 . S
H1120 C1134 0.931 . S
H1121 C1136 0.930 . S
C1122 H1110 0.930 . S
C1122 C1123 1.399 . S
C1122 C1127 1.399 . S
C1123 C1122 1.399 . S
C1123 C1124 1.376 . S
C1124 H1111 0.930 . S
C1124 C1123 1.376 . S
C1124 C1125 1.388 . S
C1125 H1112 0.930 . S
C1125 C1124 1.388 . S
C1125 C1126 1.390 . S
C1126 C1125 1.390 . S
C1126 C1127 1.394 . S
C1126 C1132 1.465 . S
C1127 C1122 1.399 . S
C1127 C1126 1.394 . S
C1127 C1128 1.516 . S
C1128 C1127 1.516 . S
C1128 C1129 1.502 . S
C1128 C1130 1.561 . S
C1128 C1131 1.526 . S
C1129 H1113 0.959 . S
C1129 H1114 0.959 . S
C1129 H1115 0.961 . S
C1129 C1128 1.502 . S
C1130 H1116 0.960 . S
C1130 H1117 0.961 . S
C1130 H1118 0.959 . S
C1130 C1128 1.561 . S
C1131 C1128 1.526 . S
C1131 C1132 1.396 . S
C1131 C1136 1.390 . S
C1132 C1126 1.465 . S
C1132 C1131 1.396 . S
C1132 C1133 1.399 . S
C1133 H1119 0.929 . S
C1133 C1132 1.399 . S
C1133 C1134 1.385 . S
C1134 H1120 0.931 . S
C1134 C1133 1.385 . S
C1134 C1135 1.389 . S
C1135 C1134 1.389 . S
C1135 C1136 1.387 . S
C1136 H1121 0.930 . S
C1136 C1131 1.390 . S
C1136 C1135 1.387 . S
H1137 C1149 0.930 . S
H1138 C1151 0.930 . S
H1139 C1152 0.930 . S
H1140 C1156 0.959 . S
H1141 C1156 0.959 . S
H1142 C1156 0.961 . S
H1143 C1157 0.960 . S
H1144 C1157 0.961 . S
H1145 C1157 0.959 . S
H1146 C1160 0.929 . S
H1147 C1161 0.931 . S
H1148 C1163 0.930 . S
C1149 H1137 0.930 . S
C1149 C1150 1.399 . S
C1149 C1154 1.399 . S
C1150 C1149 1.399 . S
C1150 C1151 1.376 . S
C1151 H1138 0.930 . S
C1151 C1150 1.376 . S
C1151 C1152 1.388 . S
C1152 H1139 0.930 . S
C1152 C1151 1.388 . S
C1152 C1153 1.390 . S
C1153 C1152 1.390 . S
C1153 C1154 1.394 . S
C1153 C1159 1.465 . S
C1154 C1149 1.399 . S
C1154 C1153 1.394 . S
C1154 C1155 1.516 . S
C1155 C1154 1.516 . S
C1155 C1156 1.502 . S
C1155 C1157 1.561 . S
C1155 C1158 1.526 . S
C1156 H1140 0.959 . S
C1156 H1141 0.959 . S
C1156 H1142 0.961 . S
C1156 C1155 1.502 . S
C1157 H1143 0.960 . S
C1157 H1144 0.961 . S
C1157 H1145 0.959 . S
C1157 C1155 1.561 . S
C1158 C1155 1.526 . S
C1158 C1159 1.396 . S
C1158 C1163 1.390 . S
C1159 C1153 1.465 . S
C1159 C1158 1.396 . S
C1159 C1160 1.399 . S
C1160 H1146 0.929 . S
C1160 C1159 1.399 . S
C1160 C1161 1.385 . S
C1161 H1147 0.931 . S
C1161 C1160 1.385 . S
C1161 C1162 1.389 . S
C1162 C1161 1.389 . S
C1162 C1163 1.387 . S
C1163 H1148 0.930 . S
C1163 C1158 1.390 . S
C1163 C1162 1.387 . S
H1164 C1176 0.930 . S
H1165 C1178 0.930 . S
H1166 C1179 0.930 . S
H1167 C1183 0.959 . S
H1168 C1183 0.959 . S
H1169 C1183 0.961 . S
H1170 C1184 0.960 . S
H1171 C1184 0.961 . S
H1172 C1184 0.959 . S
H1173 C1187 0.929 . S
H1174 C1188 0.931 . S
H1175 C1190 0.930 . S
C1176 H1164 0.930 . S
C1176 C1177 1.399 . S
C1176 C1181 1.399 . S
C1177 C1176 1.399 . S
C1177 C1178 1.376 . S
C1178 H1165 0.930 . S
C1178 C1177 1.376 . S
C1178 C1179 1.388 . S
C1179 H1166 0.930 . S
C1179 C1178 1.388 . S
C1179 C1180 1.390 . S
C1180 C1179 1.390 . S
C1180 C1181 1.394 . S
C1180 C1186 1.465 . S
C1181 C1176 1.399 . S
C1181 C1180 1.394 . S
C1181 C1182 1.516 . S
C1182 C1181 1.516 . S
C1182 C1183 1.502 . S
C1182 C1184 1.561 . S
C1182 C1185 1.526 . S
C1183 H1167 0.959 . S
C1183 H1168 0.959 . S
C1183 H1169 0.961 . S
C1183 C1182 1.502 . S
C1184 H1170 0.960 . S
C1184 H1171 0.961 . S
C1184 H1172 0.959 . S
C1184 C1182 1.561 . S
C1185 C1182 1.526 . S
C1185 C1186 1.396 . S
C1185 C1190 1.390 . S
C1186 C1180 1.465 . S
C1186 C1185 1.396 . S
C1186 C1187 1.399 . S
C1187 H1173 0.929 . S
C1187 C1186 1.399 . S
C1187 C1188 1.385 . S
C1188 H1174 0.931 . S
C1188 C1187 1.385 . S
C1188 C1189 1.389 . S
C1189 C1188 1.389 . S
C1189 C1190 1.387 . S
C1190 H1175 0.930 . S
C1190 C1185 1.390 . S
C1190 C1189 1.387 . S
H1191 C1203 0.930 . S
H1192 C1205 0.930 . S
H1193 C1206 0.930 . S
H1194 C1210 0.959 . S
H1195 C1210 0.959 . S
H1196 C1210 0.961 . S
H1197 C1211 0.960 . S
H1198 C1211 0.961 . S
H1199 C1211 0.959 . S
H1200 C1214 0.929 . S
H1201 C1215 0.931 . S
H1202 C1217 0.930 . S
C1203 H1191 0.930 . S
C1203 C1204 1.399 . S
C1203 C1208 1.399 . S
C1204 C1203 1.399 . S
C1204 C1205 1.376 . S
C1205 H1192 0.930 . S
C1205 C1204 1.376 . S
C1205 C1206 1.388 . S
C1206 H1193 0.930 . S
C1206 C1205 1.388 . S
C1206 C1207 1.390 . S
C1207 C1206 1.390 . S
C1207 C1208 1.394 . S
C1207 C1213 1.465 . S
C1208 C1203 1.399 . S
C1208 C1207 1.394 . S
C1208 C1209 1.516 . S
C1209 C1208 1.516 . S
C1209 C1210 1.502 . S
C1209 C1211 1.561 . S
C1209 C1212 1.526 . S
C1210 H1194 0.959 . S
C1210 H1195 0.959 . S
C1210 H1196 0.961 . S
C1210 C1209 1.502 . S
C1211 H1197 0.960 . S
C1211 H1198 0.961 . S
C1211 H1199 0.959 . S
C1211 C1209 1.561 . S
C1212 C1209 1.526 . S
C1212 C1213 1.396 . S
C1212 C1217 1.390 . S
C1213 C1207 1.465 . S
C1213 C1212 1.396 . S
C1213 C1214 1.399 . S
C1214 H1200 0.929 . S
C1214 C1213 1.399 . S
C1214 C1215 1.385 . S
C1215 H1201 0.931 . S
C1215 C1214 1.385 . S
C1215 C1216 1.389 . S
C1216 C1215 1.389 . S
C1216 C1217 1.387 . S
C1217 H1202 0.930 . S
C1217 C1212 1.390 . S
C1217 C1216 1.387 . S
C421 C135 1.333 . S
C433 C33 1.334 . S
C448 C67 1.324 . S
C460 C169 1.351 . S
C475 C203 1.324 . S
C487 C101 1.349 . S
C502 C237 1.323 . S
C514 C339 1.351 . S
C529 C373 1.324 . S
C541 C271 1.348 . S
C556 C305 1.328 . S
C568 C407 1.341 . S
C583 C9 1.674 . S
C595 C349 1.621 . S
C610 C383 1.622 . S
C622 C43 1.710 . S
C637 C77 1.625 . S
C649 C213 1.715 . S
C664 C111 1.682 . S
C676 C247 1.735 . S
C691 C145 1.731 . S
C703 C281 1.696 . S
C718 C179 1.626 . S
C730 C315 1.717 . S
C745 C308 1.790 . S
C757 C2 1.756 . S
C772 C36 1.741 . S
C784 C342 1.776 . S
C799 C70 1.798 . S
C811 C376 1.768 . S
C826 C206 1.792 . S
C838 C104 1.807 . S
C853 C240 1.735 . S
C865 C138 1.769 . S
C880 C274 1.716 . S
C892 C172 1.730 . S
C907 C5 1.063 . S
C919 C209 0.950 . S
C934 C39 1.069 . S
C946 C243 0.946 . S
C961 C277 1.064 . S
C973 C73 0.966 . S
C988 C107 1.069 . S
C1000 C311 0.945 . S
C1015 C345 0.969 . S
C1027 C141 1.060 . S
C1042 C175 0.973 . S
C1054 C379 1.037 . S
C1069 C292 1.203 . S
C1081 C20 1.192 . S
C1096 C326 1.220 . S
C1108 C54 1.213 . S
C1123 C360 1.195 . S
C1135 C88 1.186 . S
C1150 C122 1.203 . S
C1162 C394 1.192 . S
C1177 C224 1.185 . S
C1189 C156 1.181 . S
C1204 C258 1.182 . S
C1216 C190 1.182 . S
