# Generated by pormake.
# Topology umq, (4)-cn, num edge types: 1
# Building blocks:
#     Node 0, Type 0, BuildingBlock: GALJAG_clean_sbu_0, # of connection points: 4
#     Node 1, Type 0, BuildingBlock: GALJAG_clean_sbu_0, # of connection points: 4
#     Node 2, Type 0, BuildingBlock: GALJAG_clean_sbu_0, # of connection points: 4
#     Node 3, Type 0, BuildingBlock: GALJAG_clean_sbu_0, # of connection points: 4
#     Node 4, Type 0, BuildingBlock: GALJAG_clean_sbu_0, # of connection points: 4
#     Node 5, Type 0, BuildingBlock: GALJAG_clean_sbu_0, # of connection points: 4
#     Node 6, Type 0, BuildingBlock: GALJAG_clean_sbu_0, # of connection points: 4
#     Node 7, Type 0, BuildingBlock: GALJAG_clean_sbu_0, # of connection points: 4
#     Node 8, Type 0, BuildingBlock: GALJAG_clean_sbu_0, # of connection points: 4
#     Node 9, Type 0, BuildingBlock: GALJAG_clean_sbu_0, # of connection points: 4
#     Node 10, Type 0, BuildingBlock: GALJAG_clean_sbu_0, # of connection points: 4
#     Node 11, Type 0, BuildingBlock: GALJAG_clean_sbu_0, # of connection points: 4
#     Node 12, Type 0, BuildingBlock: GALJAG_clean_sbu_0, # of connection points: 4
#     Node 13, Type 0, BuildingBlock: GALJAG_clean_sbu_0, # of connection points: 4
#     Node 14, Type 0, BuildingBlock: GALJAG_clean_sbu_0, # of connection points: 4
#     Node 15, Type 0, BuildingBlock: GALJAG_clean_sbu_0, # of connection points: 4
#     Node 16, Type 0, BuildingBlock: GALJAG_clean_sbu_0, # of connection points: 4
#     Node 17, Type 0, BuildingBlock: GALJAG_clean_sbu_0, # of connection points: 4
#     Node 18, Type 0, BuildingBlock: GALJAG_clean_sbu_0, # of connection points: 4
#     Node 19, Type 0, BuildingBlock: GALJAG_clean_sbu_0, # of connection points: 4
#     Node 20, Type 0, BuildingBlock: GALJAG_clean_sbu_0, # of connection points: 4
#     Node 21, Type 0, BuildingBlock: GALJAG_clean_sbu_0, # of connection points: 4
#     Node 22, Type 0, BuildingBlock: GALJAG_clean_sbu_0, # of connection points: 4
#     Node 23, Type 0, BuildingBlock: GALJAG_clean_sbu_0, # of connection points: 4
#     Node 24, Type 0, BuildingBlock: GALJAG_clean_sbu_0, # of connection points: 4
#     Node 25, Type 0, BuildingBlock: GALJAG_clean_sbu_0, # of connection points: 4
#     Node 26, Type 0, BuildingBlock: GALJAG_clean_sbu_0, # of connection points: 4
#     Node 27, Type 0, BuildingBlock: GALJAG_clean_sbu_0, # of connection points: 4
#     Node 28, Type 0, BuildingBlock: GALJAG_clean_sbu_0, # of connection points: 4
#     Node 29, Type 0, BuildingBlock: GALJAG_clean_sbu_0, # of connection points: 4
#     Node 30, Type 0, BuildingBlock: GALJAG_clean_sbu_0, # of connection points: 4
#     Node 31, Type 0, BuildingBlock: GALJAG_clean_sbu_0, # of connection points: 4
#     Edge 32, Type (0, 0), BuildingBlock: AJUNOK_clean_linker_0, # of connection points: 2
#     Edge 33, Type (0, 0), BuildingBlock: AJUNOK_clean_linker_0, # of connection points: 2
#     Edge 34, Type (0, 0), BuildingBlock: AJUNOK_clean_linker_0, # of connection points: 2
#     Edge 35, Type (0, 0), BuildingBlock: AJUNOK_clean_linker_0, # of connection points: 2
#     Edge 36, Type (0, 0), BuildingBlock: AJUNOK_clean_linker_0, # of connection points: 2
#     Edge 37, Type (0, 0), BuildingBlock: AJUNOK_clean_linker_0, # of connection points: 2
#     Edge 38, Type (0, 0), BuildingBlock: AJUNOK_clean_linker_0, # of connection points: 2
#     Edge 39, Type (0, 0), BuildingBlock: AJUNOK_clean_linker_0, # of connection points: 2
#     Edge 40, Type (0, 0), BuildingBlock: AJUNOK_clean_linker_0, # of connection points: 2
#     Edge 41, Type (0, 0), BuildingBlock: AJUNOK_clean_linker_0, # of connection points: 2
#     Edge 42, Type (0, 0), BuildingBlock: AJUNOK_clean_linker_0, # of connection points: 2
#     Edge 43, Type (0, 0), BuildingBlock: AJUNOK_clean_linker_0, # of connection points: 2
#     Edge 44, Type (0, 0), BuildingBlock: AJUNOK_clean_linker_0, # of connection points: 2
#     Edge 45, Type (0, 0), BuildingBlock: AJUNOK_clean_linker_0, # of connection points: 2
#     Edge 46, Type (0, 0), BuildingBlock: AJUNOK_clean_linker_0, # of connection points: 2
#     Edge 47, Type (0, 0), BuildingBlock: AJUNOK_clean_linker_0, # of connection points: 2
#     Edge 48, Type (0, 0), BuildingBlock: AJUNOK_clean_linker_0, # of connection points: 2
#     Edge 49, Type (0, 0), BuildingBlock: AJUNOK_clean_linker_0, # of connection points: 2
#     Edge 50, Type (0, 0), BuildingBlock: AJUNOK_clean_linker_0, # of connection points: 2
#     Edge 51, Type (0, 0), BuildingBlock: AJUNOK_clean_linker_0, # of connection points: 2
#     Edge 52, Type (0, 0), BuildingBlock: AJUNOK_clean_linker_0, # of connection points: 2
#     Edge 53, Type (0, 0), BuildingBlock: AJUNOK_clean_linker_0, # of connection points: 2
#     Edge 54, Type (0, 0), BuildingBlock: AJUNOK_clean_linker_0, # of connection points: 2
#     Edge 55, Type (0, 0), BuildingBlock: AJUNOK_clean_linker_0, # of connection points: 2
#     Edge 56, Type (0, 0), BuildingBlock: AJUNOK_clean_linker_0, # of connection points: 2
#     Edge 57, Type (0, 0), BuildingBlock: AJUNOK_clean_linker_0, # of connection points: 2
#     Edge 58, Type (0, 0), BuildingBlock: AJUNOK_clean_linker_0, # of connection points: 2
#     Edge 59, Type (0, 0), BuildingBlock: AJUNOK_clean_linker_0, # of connection points: 2
#     Edge 60, Type (0, 0), BuildingBlock: AJUNOK_clean_linker_0, # of connection points: 2
#     Edge 61, Type (0, 0), BuildingBlock: AJUNOK_clean_linker_0, # of connection points: 2
#     Edge 62, Type (0, 0), BuildingBlock: AJUNOK_clean_linker_0, # of connection points: 2
#     Edge 63, Type (0, 0), BuildingBlock: AJUNOK_clean_linker_0, # of connection points: 2
#     Edge 64, Type (0, 0), BuildingBlock: AJUNOK_clean_linker_0, # of connection points: 2
#     Edge 65, Type (0, 0), BuildingBlock: AJUNOK_clean_linker_0, # of connection points: 2
#     Edge 66, Type (0, 0), BuildingBlock: AJUNOK_clean_linker_0, # of connection points: 2
#     Edge 67, Type (0, 0), BuildingBlock: AJUNOK_clean_linker_0, # of connection points: 2
#     Edge 68, Type (0, 0), BuildingBlock: AJUNOK_clean_linker_0, # of connection points: 2
#     Edge 69, Type (0, 0), BuildingBlock: AJUNOK_clean_linker_0, # of connection points: 2
#     Edge 70, Type (0, 0), BuildingBlock: AJUNOK_clean_linker_0, # of connection points: 2
#     Edge 71, Type (0, 0), BuildingBlock: AJUNOK_clean_linker_0, # of connection points: 2
#     Edge 72, Type (0, 0), BuildingBlock: AJUNOK_clean_linker_0, # of connection points: 2
#     Edge 73, Type (0, 0), BuildingBlock: AJUNOK_clean_linker_0, # of connection points: 2
#     Edge 74, Type (0, 0), BuildingBlock: AJUNOK_clean_linker_0, # of connection points: 2
#     Edge 75, Type (0, 0), BuildingBlock: AJUNOK_clean_linker_0, # of connection points: 2
#     Edge 76, Type (0, 0), BuildingBlock: AJUNOK_clean_linker_0, # of connection points: 2
#     Edge 77, Type (0, 0), BuildingBlock: AJUNOK_clean_linker_0, # of connection points: 2
#     Edge 78, Type (0, 0), BuildingBlock: AJUNOK_clean_linker_0, # of connection points: 2
#     Edge 79, Type (0, 0), BuildingBlock: AJUNOK_clean_linker_0, # of connection points: 2
#     Edge 80, Type (0, 0), BuildingBlock: AJUNOK_clean_linker_0, # of connection points: 2
#     Edge 81, Type (0, 0), BuildingBlock: AJUNOK_clean_linker_0, # of connection points: 2
#     Edge 82, Type (0, 0), BuildingBlock: AJUNOK_clean_linker_0, # of connection points: 2
#     Edge 83, Type (0, 0), BuildingBlock: AJUNOK_clean_linker_0, # of connection points: 2
#     Edge 84, Type (0, 0), BuildingBlock: AJUNOK_clean_linker_0, # of connection points: 2
#     Edge 85, Type (0, 0), BuildingBlock: AJUNOK_clean_linker_0, # of connection points: 2
#     Edge 86, Type (0, 0), BuildingBlock: AJUNOK_clean_linker_0, # of connection points: 2
#     Edge 87, Type (0, 0), BuildingBlock: AJUNOK_clean_linker_0, # of connection points: 2
#     Edge 88, Type (0, 0), BuildingBlock: AJUNOK_clean_linker_0, # of connection points: 2
#     Edge 89, Type (0, 0), BuildingBlock: AJUNOK_clean_linker_0, # of connection points: 2
#     Edge 90, Type (0, 0), BuildingBlock: AJUNOK_clean_linker_0, # of connection points: 2
#     Edge 91, Type (0, 0), BuildingBlock: AJUNOK_clean_linker_0, # of connection points: 2
#     Edge 92, Type (0, 0), BuildingBlock: AJUNOK_clean_linker_0, # of connection points: 2
#     Edge 93, Type (0, 0), BuildingBlock: AJUNOK_clean_linker_0, # of connection points: 2
#     Edge 94, Type (0, 0), BuildingBlock: AJUNOK_clean_linker_0, # of connection points: 2
#     Edge 95, Type (0, 0), BuildingBlock: AJUNOK_clean_linker_0, # of connection points: 2
# Relax obj value: 0.107
# Max RMSD: 0.085
# Mean RMSD: 0.085
data_MOF--net-umq--node1-GALJAG_clean_sbu_0--edge1-AJUNOK_clean_linker_0
_symmetry_space_group_name_H-M    P1
_symmetry_Int_Tables_number       1
_symmetry_cell_setting            triclinic
loop_
_symmetry_equiv_pos_as_xyz
'x, y, z'
_cell_length_a     46.69293
_cell_length_b     46.780589
_cell_length_c     35.071055
_cell_angle_alpha  89.962645
_cell_angle_beta   90.023097
_cell_angle_gamma 89.952702
loop_
_atom_site_label
_atom_site_type_symbol
_atom_site_fract_x
_atom_site_fract_y
_atom_site_fract_z
_atom_type_partial_charge
In0 In 0.23348 0.09579 0.16523 0.0
O1 O 0.18961 0.11535 0.17651 0.0
O2 O 0.21976 0.115 0.22194 0.0
C3 C 0.22561 0.08372 0.09019 0.0
C4 C 0.23713 0.04623 0.20442 0.0
C5 C 0.27421 0.13687 0.16262 0.0
O6 O 0.20717 0.09639 0.11023 0.0
O7 O 0.24774 0.0763 0.10831 0.0
O8 O 0.27997 0.11117 0.17048 0.0
O9 O 0.24817 0.14153 0.15561 0.0
C10 C 0.19499 0.12181 0.21073 0.0
O11 O 0.25827 0.06261 0.19964 0.0
O12 O 0.21447 0.05424 0.18797 0.0
In13 In 0.90251 0.23267 0.16522 0.0
O14 O 0.8775 0.19056 0.17068 0.0
O15 O 0.88904 0.21254 0.22125 0.0
C16 C 0.91767 0.22691 0.09116 0.0
C17 C 0.95035 0.23871 0.2072 0.0
C18 C 0.8618 0.2736 0.16036 0.0
O19 O 0.90969 0.20596 0.1113 0.0
O20 O 0.91908 0.25034 0.10893 0.0
O21 O 0.88761 0.27935 0.1677 0.0
O22 O 0.85679 0.24742 0.15555 0.0
C23 C 0.87647 0.19143 0.20666 0.0
O24 O 0.92763 0.25236 0.21388 0.0
O25 O 0.94954 0.22272 0.17821 0.0
In26 In 0.7661 0.9036 0.16389 0.0
O27 O 0.74251 0.93794 0.19698 0.0
O28 O 0.7874 0.94297 0.19002 0.0
C29 C 0.72206 0.86652 0.1581 0.0
C30 C 0.80106 0.87332 0.21001 0.0
C31 C 0.77461 0.91782 0.08968 0.0
O32 O 0.71921 0.89117 0.17207 0.0
O33 O 0.74704 0.86076 0.14686 0.0
O34 O 0.79251 0.90355 0.10879 0.0
O35 O 0.75308 0.92588 0.1085 0.0
C36 C 0.76454 0.95241 0.20461 0.0
O37 O 0.80783 0.8795 0.17611 0.0
O38 O 0.77678 0.88224 0.22024 0.0
In39 In 0.09727 0.76425 0.16691 0.0
O40 O 0.12254 0.80555 0.17579 0.0
O41 O 0.11249 0.78033 0.22447 0.0
C42 C 0.08321 0.77113 0.09237 0.0
C43 C 0.0478 0.76107 0.20624 0.0
C44 C 0.13839 0.7235 0.16606 0.0
O45 O 0.09453 0.79068 0.11195 0.0
O46 O 0.07827 0.74848 0.11067 0.0
O47 O 0.1126 0.71781 0.17357 0.0
O48 O 0.14302 0.74935 0.15827 0.0
C49 C 0.12444 0.80245 0.2115 0.0
O50 O 0.06432 0.73995 0.20192 0.0
O51 O 0.05572 0.78359 0.1894 0.0
In52 In 0.23466 0.90159 0.35119 0.0
O53 O 0.19182 0.87954 0.34126 0.0
O54 O 0.22147 0.88053 0.29533 0.0
C55 C 0.22489 0.91479 0.42545 0.0
C56 C 0.23727 0.95019 0.30971 0.0
C57 C 0.27853 0.86393 0.35682 0.0
O58 O 0.20779 0.90031 0.40556 0.0
O59 O 0.24658 0.92351 0.40751 0.0
O60 O 0.2822 0.88996 0.34901 0.0
O61 O 0.25276 0.85698 0.362 0.0
C62 C 0.1972 0.87271 0.3072 0.0
O63 O 0.25854 0.93405 0.31478 0.0
O64 O 0.2148 0.94237 0.32674 0.0
In65 In 0.09652 0.23227 0.34965 0.0
O66 O 0.07088 0.25088 0.30064 0.0
O67 O 0.0493 0.22234 0.33825 0.0
C68 C 0.1346 0.27581 0.35276 0.0
C69 C 0.1224 0.19123 0.30772 0.0
C70 C 0.08192 0.22409 0.42352 0.0
O71 O 0.10815 0.27979 0.34811 0.0
O72 O 0.14172 0.24996 0.35593 0.0
O73 O 0.09201 0.20426 0.4031 0.0
O74 O 0.07854 0.24753 0.4063 0.0
C75 C 0.04805 0.23785 0.30877 0.0
O76 O 0.12495 0.19236 0.34355 0.0
O77 O 0.10663 0.21033 0.29369 0.0
In78 In 0.76745 0.09589 0.35213 0.0
O79 O 0.81073 0.11673 0.33922 0.0
O80 O 0.77963 0.11521 0.29501 0.0
C81 C 0.77504 0.08305 0.42704 0.0
C82 C 0.76488 0.04655 0.31273 0.0
C83 C 0.72405 0.13413 0.35551 0.0
O84 O 0.79225 0.09848 0.4085 0.0
O85 O 0.75465 0.07331 0.40743 0.0
O86 O 0.72053 0.1086 0.34512 0.0
O87 O 0.74946 0.1403 0.36443 0.0
C88 C 0.80452 0.12247 0.30498 0.0
O89 O 0.74335 0.06223 0.31848 0.0
O90 O 0.78764 0.05505 0.32854 0.0
In91 In 0.90117 0.76316 0.34957 0.0
O92 O 0.87358 0.80318 0.34258 0.0
O93 O 0.88376 0.77935 0.29287 0.0
C94 C 0.91669 0.77022 0.4236 0.0
C95 C 0.95052 0.76089 0.30968 0.0
C96 C 0.86253 0.72014 0.35184 0.0
O97 O 0.90689 0.79032 0.40349 0.0
O98 O 0.91951 0.74693 0.40597 0.0
O99 O 0.88753 0.71694 0.33897 0.0
O100 O 0.85714 0.74499 0.36371 0.0
C101 C 0.87101 0.80064 0.3069 0.0
O102 O 0.93508 0.73925 0.31566 0.0
O103 O 0.94158 0.78361 0.32505 0.0
In104 In 0.7691 0.90089 0.84981 0.0
O105 O 0.8111 0.87667 0.8408 0.0
O106 O 0.78228 0.87984 0.7941 0.0
C107 C 0.77561 0.91558 0.92424 0.0
C108 C 0.7695 0.95009 0.80957 0.0
C109 C 0.72507 0.8634 0.85255 0.0
O110 O 0.79402 0.90124 0.90616 0.0
O111 O 0.75441 0.9232 0.90444 0.0
O112 O 0.72266 0.88806 0.83839 0.0
O113 O 0.74959 0.85782 0.8656 0.0
C114 C 0.80592 0.87059 0.8064 0.0
O115 O 0.7469 0.93617 0.81611 0.0
O116 O 0.79174 0.93986 0.82483 0.0
In117 In 0.09826 0.76312 0.85304 0.0
O118 O 0.06588 0.73849 0.81698 0.0
O119 O 0.05988 0.7832 0.82305 0.0
C120 C 0.134 0.71835 0.86148 0.0
C121 C 0.12998 0.7983 0.80904 0.0
C122 C 0.08379 0.77192 0.92707 0.0
O123 O 0.11029 0.71632 0.8443 0.0
O124 O 0.13939 0.7429 0.87463 0.0
O125 O 0.10142 0.78753 0.90952 0.0
O126 O 0.07264 0.75269 0.90681 0.0
C127 C 0.05132 0.76023 0.80814 0.0
O128 O 0.11181 0.8077 0.83256 0.0
O129 O 0.13233 0.7715 0.80828 0.0
In130 In 0.233 0.09331 0.84941 0.0
O131 O 0.18813 0.10724 0.82983 0.0
O132 O 0.22379 0.11777 0.795 0.0
C133 C 0.22456 0.08235 0.92449 0.0
C134 C 0.23813 0.04339 0.81168 0.0
C135 C 0.27398 0.13355 0.85595 0.0
O136 O 0.20719 0.09677 0.90468 0.0
O137 O 0.24561 0.07265 0.90605 0.0
O138 O 0.27921 0.10872 0.84357 0.0
O139 O 0.24821 0.13779 0.86515 0.0
C140 C 0.19704 0.11886 0.79953 0.0
O141 O 0.25892 0.06025 0.81625 0.0
O142 O 0.21521 0.05119 0.82762 0.0
In143 In 0.90466 0.236 0.85135 0.0
O144 O 0.87749 0.19532 0.84558 0.0
O145 O 0.88929 0.21722 0.7951 0.0
C146 C 0.91884 0.22867 0.92562 0.0
C147 C 0.95336 0.24024 0.81028 0.0
C148 C 0.8665 0.2794 0.85594 0.0
O149 O 0.91069 0.20828 0.90468 0.0
O150 O 0.92091 0.25236 0.9086 0.0
O151 O 0.89259 0.28341 0.8484 0.0
O152 O 0.85985 0.25362 0.86132 0.0
C153 C 0.87595 0.19656 0.80968 0.0
O154 O 0.93182 0.25595 0.80481 0.0
O155 O 0.95093 0.22286 0.83767 0.0
In156 In 0.767 0.09727 0.66736 0.0
O157 O 0.80881 0.12137 0.67874 0.0
O158 O 0.77911 0.11722 0.72426 0.0
C159 C 0.77462 0.08386 0.59271 0.0
C160 C 0.768 0.04764 0.70657 0.0
C161 C 0.72213 0.13377 0.6626 0.0
O162 O 0.79206 0.09907 0.61121 0.0
O163 O 0.75392 0.07466 0.61224 0.0
O164 O 0.71961 0.10857 0.67495 0.0
O165 O 0.74722 0.14042 0.65278 0.0
C166 C 0.80308 0.12646 0.71328 0.0
O167 O 0.74558 0.06242 0.70258 0.0
O168 O 0.78963 0.05726 0.68923 0.0
In169 In 0.90578 0.76307 0.66341 0.0
O170 O 0.93956 0.73877 0.69708 0.0
O171 O 0.94727 0.78271 0.68573 0.0
C172 C 0.86668 0.72061 0.66004 0.0
C173 C 0.87722 0.79973 0.70907 0.0
C174 C 0.91958 0.77053 0.58892 0.0
O175 O 0.89197 0.71664 0.67153 0.0
O176 O 0.86122 0.74596 0.65028 0.0
O177 O 0.90976 0.79044 0.60934 0.0
O178 O 0.92344 0.74735 0.60652 0.0
C179 C 0.95575 0.76005 0.70178 0.0
O180 O 0.87921 0.80351 0.6735 0.0
O181 O 0.88953 0.77757 0.72132 0.0
In182 In 0.2349 0.89937 0.66407 0.0
O183 O 0.19041 0.8864 0.68561 0.0
O184 O 0.22656 0.86447 0.70785 0.0
C185 C 0.22408 0.91374 0.59059 0.0
C186 C 0.2384 0.94689 0.70743 0.0
C187 C 0.2795 0.8636 0.65443 0.0
O188 O 0.20886 0.89635 0.60912 0.0
O189 O 0.24417 0.92473 0.60962 0.0
O190 O 0.28062 0.88479 0.67676 0.0
O191 O 0.25596 0.8607 0.63716 0.0
C192 C 0.19978 0.86756 0.70817 0.0
O193 O 0.26035 0.93364 0.6961 0.0
O194 O 0.21503 0.93672 0.69573 0.0
In195 In 0.09714 0.22875 0.66256 0.0
O196 O 0.10032 0.18452 0.69126 0.0
O197 O 0.1384 0.20831 0.68285 0.0
C198 C 0.08191 0.22148 0.58863 0.0
C199 C 0.05156 0.23614 0.70892 0.0
C200 C 0.13199 0.2748 0.65969 0.0
O201 O 0.09356 0.20177 0.60784 0.0
O202 O 0.07726 0.24407 0.60716 0.0
O203 O 0.10903 0.27489 0.67871 0.0
O204 O 0.13686 0.25182 0.64219 0.0
C205 C 0.12704 0.18615 0.69638 0.0
O206 O 0.07703 0.23794 0.72068 0.0
O207 O 0.0491 0.23093 0.67377 0.0
In208 In 0.73409 0.59582 0.65906 0.0
O209 O 0.69275 0.62066 0.67039 0.0
O210 O 0.72113 0.61357 0.71682 0.0
C211 C 0.72567 0.58287 0.58444 0.0
C212 C 0.73605 0.54566 0.69696 0.0
C213 C 0.7778 0.63367 0.65653 0.0
O214 O 0.7075 0.59632 0.60406 0.0
O215 O 0.7476 0.57525 0.60278 0.0
O216 O 0.78092 0.60829 0.66781 0.0
O217 O 0.7527 0.63983 0.64616 0.0
C218 C 0.69787 0.62427 0.70543 0.0
O219 O 0.75788 0.56087 0.69103 0.0
O220 O 0.71322 0.55524 0.68242 0.0
In221 In 0.40232 0.73031 0.66053 0.0
O222 O 0.38982 0.68579 0.68235 0.0
O223 O 0.36715 0.72168 0.70379 0.0
C224 C 0.41566 0.72033 0.5865 0.0
C225 C 0.45041 0.73385 0.70311 0.0
C226 C 0.36692 0.77539 0.6525 0.0
O227 O 0.3981 0.70521 0.60491 0.0
O228 O 0.42738 0.73974 0.60594 0.0
O229 O 0.38824 0.77584 0.67475 0.0
O230 O 0.36371 0.75227 0.63446 0.0
C231 C 0.37059 0.69499 0.70444 0.0
O232 O 0.43668 0.75564 0.69235 0.0
O233 O 0.44039 0.71047 0.69128 0.0
In234 In 0.26193 0.40212 0.66386 0.0
O235 O 0.23838 0.43703 0.69641 0.0
O236 O 0.28312 0.44209 0.6882 0.0
C237 C 0.21848 0.36406 0.66086 0.0
C238 C 0.29875 0.37157 0.70727 0.0
C239 C 0.26927 0.41666 0.58955 0.0
O240 O 0.21579 0.38836 0.67597 0.0
O241 O 0.24297 0.35915 0.64723 0.0
O242 O 0.28907 0.40623 0.60969 0.0
O243 O 0.24616 0.42072 0.60731 0.0
C244 C 0.26042 0.45182 0.70282 0.0
O245 O 0.30267 0.37565 0.67208 0.0
O246 O 0.27639 0.38298 0.72045 0.0
In247 In 0.59461 0.26317 0.66497 0.0
O248 O 0.56004 0.24053 0.70023 0.0
O249 O 0.557 0.28546 0.69336 0.0
C250 C 0.63141 0.219 0.65862 0.0
C251 C 0.62702 0.29785 0.70848 0.0
C252 C 0.58128 0.2714 0.59045 0.0
O253 O 0.60734 0.21649 0.67481 0.0
O254 O 0.63639 0.24352 0.64517 0.0
O255 O 0.59793 0.28763 0.60867 0.0
O256 O 0.57054 0.25162 0.61024 0.0
C257 C 0.54678 0.26324 0.70841 0.0
O258 O 0.61068 0.30753 0.68283 0.0
O259 O 0.62673 0.27107 0.71217 0.0
In260 In 0.73311 0.40243 0.8468 0.0
O261 O 0.68867 0.38794 0.82652 0.0
O262 O 0.72545 0.36846 0.80201 0.0
C263 C 0.72386 0.41646 0.92085 0.0
C264 C 0.73576 0.44926 0.80178 0.0
C265 C 0.7779 0.3667 0.85558 0.0
O266 O 0.70812 0.39926 0.90281 0.0
O267 O 0.7435 0.42744 0.90106 0.0
O268 O 0.78037 0.39092 0.83991 0.0
O269 O 0.75298 0.3609 0.86719 0.0
C270 C 0.69854 0.36981 0.80331 0.0
O271 O 0.7575 0.43451 0.81008 0.0
O272 O 0.71286 0.44089 0.81718 0.0
In273 In 0.59758 0.73337 0.84572 0.0
O274 O 0.62289 0.692 0.8376 0.0
O275 O 0.61656 0.71864 0.78929 0.0
C276 C 0.58181 0.72636 0.91954 0.0
C277 C 0.54811 0.73552 0.80603 0.0
C278 C 0.63622 0.77632 0.84992 0.0
O279 O 0.59418 0.70702 0.90067 0.0
O280 O 0.57673 0.74879 0.90081 0.0
O281 O 0.61163 0.77956 0.83571 0.0
O282 O 0.6412 0.75147 0.86214 0.0
C283 C 0.62729 0.69596 0.80249 0.0
O284 O 0.56395 0.75703 0.81091 0.0
O285 O 0.55681 0.71302 0.82226 0.0
In286 In 0.26687 0.59494 0.85212 0.0
O287 O 0.24145 0.56272 0.81685 0.0
O288 O 0.28598 0.55552 0.82355 0.0
C289 C 0.22216 0.63071 0.86091 0.0
C290 C 0.30159 0.62583 0.80638 0.0
C291 C 0.27728 0.58195 0.92625 0.0
O292 O 0.21982 0.6067 0.8447 0.0
O293 O 0.24702 0.63641 0.87292 0.0
O294 O 0.2931 0.59839 0.9071 0.0
O295 O 0.25684 0.57127 0.90761 0.0
C296 C 0.26281 0.54743 0.80863 0.0
O297 O 0.31123 0.60778 0.82989 0.0
O298 O 0.27476 0.62848 0.80647 0.0
In299 In 0.39971 0.26523 0.85112 0.0
O300 O 0.37397 0.30607 0.83994 0.0
O301 O 0.38164 0.27803 0.79341 0.0
C302 C 0.41357 0.27299 0.92551 0.0
C303 C 0.44976 0.26413 0.81266 0.0
C304 C 0.36056 0.22291 0.85604 0.0
O305 O 0.40251 0.29241 0.9053 0.0
O306 O 0.41858 0.25009 0.90776 0.0
O307 O 0.3855 0.21872 0.84334 0.0
O308 O 0.35564 0.24826 0.86622 0.0
C309 C 0.37048 0.30101 0.80486 0.0
O310 O 0.43441 0.24217 0.81706 0.0
O311 O 0.44047 0.28622 0.8292 0.0
In312 In 0.26366 0.40415 0.34945 0.0
O313 O 0.30611 0.37972 0.34357 0.0
O314 O 0.28248 0.38888 0.29339 0.0
C315 C 0.27 0.41752 0.42402 0.0
C316 C 0.25898 0.45276 0.30863 0.0
C317 C 0.22121 0.36501 0.3531 0.0
O318 O 0.29056 0.40883 0.40366 0.0
O319 O 0.24664 0.42043 0.4063 0.0
O320 O 0.21646 0.39121 0.34748 0.0
O321 O 0.24728 0.35872 0.35711 0.0
C322 C 0.30434 0.37738 0.30777 0.0
O323 O 0.24419 0.43081 0.30203 0.0
O324 O 0.27553 0.45078 0.33699 0.0
In325 In 0.59692 0.26463 0.35073 0.0
O326 O 0.56221 0.24237 0.3159 0.0
O327 O 0.55769 0.28689 0.32614 0.0
C328 C 0.63526 0.2214 0.35485 0.0
C329 C 0.62629 0.3013 0.30627 0.0
C330 C 0.58244 0.27176 0.42503 0.0
O331 O 0.61015 0.21795 0.34241 0.0
O332 O 0.64082 0.24653 0.36539 0.0
O333 O 0.59719 0.28968 0.40674 0.0
O334 O 0.57421 0.25072 0.40547 0.0
C335 C 0.54799 0.26488 0.30988 0.0
O336 O 0.62014 0.30688 0.34055 0.0
O337 O 0.61767 0.27729 0.29466 0.0
In338 In 0.73019 0.59538 0.34405 0.0
O339 O 0.68592 0.61254 0.32704 0.0
O340 O 0.72103 0.61986 0.28977 0.0
C341 C 0.72297 0.58304 0.41895 0.0
C342 C 0.73106 0.54611 0.30442 0.0
C343 C 0.77386 0.63288 0.34935 0.0
O344 O 0.70662 0.59987 0.40106 0.0
O345 O 0.74221 0.57181 0.39869 0.0
O346 O 0.77715 0.60776 0.33691 0.0
O347 O 0.74859 0.63888 0.3593 0.0
C348 C 0.69459 0.62294 0.29582 0.0
O349 O 0.75324 0.56101 0.30961 0.0
O350 O 0.70892 0.55535 0.32092 0.0
In351 In 0.40743 0.73563 0.34665 0.0
O352 O 0.39341 0.69048 0.32893 0.0
O353 O 0.38583 0.72477 0.29067 0.0
C354 C 0.41705 0.72452 0.42122 0.0
C355 C 0.45752 0.74268 0.30957 0.0
C356 C 0.36839 0.7778 0.35507 0.0
O357 O 0.40255 0.70816 0.40008 0.0
O358 O 0.42727 0.74609 0.4044 0.0
O359 O 0.39455 0.78274 0.34891 0.0
O360 O 0.36212 0.75165 0.35742 0.0
C361 C 0.38369 0.69837 0.29698 0.0
O362 O 0.43632 0.75897 0.30478 0.0
O363 O 0.45381 0.72322 0.334 0.0
In364 In 0.27122 0.59836 0.16572 0.0
O365 O 0.25611 0.57616 0.21981 0.0
O366 O 0.27426 0.55031 0.17604 0.0
C367 C 0.22859 0.63767 0.16835 0.0
C368 C 0.31631 0.62451 0.1993 0.0
C369 C 0.27768 0.584 0.0914 0.0
O370 O 0.22364 0.61121 0.1702 0.0
O371 O 0.25466 0.64388 0.16542 0.0
O372 O 0.29867 0.58996 0.11264 0.0
O373 O 0.25375 0.58437 0.10802 0.0
C374 C 0.2633 0.55146 0.20894 0.0
O375 O 0.30416 0.60297 0.21356 0.0
O376 O 0.30669 0.63184 0.16715 0.0
In377 In 0.40173 0.26722 0.16615 0.0
O378 O 0.37788 0.30922 0.17636 0.0
O379 O 0.38559 0.28208 0.22393 0.0
C380 C 0.41437 0.27391 0.09112 0.0
C381 C 0.45173 0.2655 0.2046 0.0
C382 C 0.36134 0.22583 0.16413 0.0
O383 O 0.40342 0.2935 0.11105 0.0
O384 O 0.41981 0.25132 0.10939 0.0
O385 O 0.3872 0.22059 0.172 0.0
O386 O 0.35615 0.25173 0.15711 0.0
C387 C 0.37514 0.30523 0.21182 0.0
O388 O 0.43531 0.24416 0.20209 0.0
O389 O 0.4436 0.28714 0.186 0.0
In390 In 0.73125 0.40066 0.16018 0.0
O391 O 0.69021 0.37534 0.17133 0.0
O392 O 0.71809 0.38361 0.21805 0.0
C393 C 0.72392 0.41532 0.08608 0.0
C394 C 0.73159 0.45 0.19947 0.0
C395 C 0.77328 0.36108 0.15654 0.0
O396 O 0.7051 0.40214 0.10498 0.0
O397 O 0.74599 0.42176 0.10492 0.0
O398 O 0.77788 0.38632 0.1677 0.0
O399 O 0.74778 0.35623 0.14686 0.0
C400 C 0.6951 0.37244 0.20658 0.0
O401 O 0.75389 0.43513 0.1947 0.0
O402 O 0.70957 0.44066 0.1827 0.0
In403 In 0.59796 0.73398 0.15767 0.0
O404 O 0.63856 0.71095 0.17533 0.0
O405 O 0.59914 0.69053 0.18808 0.0
C406 C 0.58123 0.72606 0.08448 0.0
C407 C 0.55472 0.74231 0.20717 0.0
C408 C 0.634 0.77902 0.15479 0.0
O409 O 0.59255 0.70634 0.10396 0.0
O410 O 0.5775 0.74906 0.10244 0.0
O411 O 0.61039 0.78015 0.17223 0.0
O412 O 0.63899 0.75547 0.13878 0.0
C413 C 0.62607 0.69025 0.19115 0.0
O414 O 0.58065 0.74223 0.2172 0.0
O415 O 0.55052 0.73903 0.17187 0.0
C416 C 0.34623 0.17451 0.16742 0.0
C417 C 0.33883 0.20353 0.1634 0.0
C418 C 0.32524 0.15307 0.16697 0.0
C419 C 0.29606 0.15983 0.16247 0.0
H420 H 0.36842 0.16827 0.1709 0.0
H421 H 0.33197 0.13103 0.17016 0.0
S422 S 0.2653 0.23266 0.15202 0.0
N423 N 0.30014 0.23792 0.15551 0.0
N424 N 0.2608 0.19774 0.15465 0.0
C425 C 0.28836 0.18878 0.15855 0.0
C426 C 0.30971 0.21059 0.15902 0.0
C427 C 0.84548 0.32438 0.16645 0.0
C428 C 0.83911 0.29566 0.1581 0.0
C429 C 0.82413 0.34548 0.16552 0.0
C430 C 0.79567 0.33866 0.15605 0.0
H431 H 0.86705 0.33061 0.17413 0.0
H432 H 0.83 0.36726 0.17251 0.0
S433 S 0.76792 0.26667 0.13104 0.0
N434 N 0.80231 0.26158 0.13948 0.0
N435 N 0.76233 0.30114 0.13762 0.0
C436 C 0.78909 0.31007 0.14716 0.0
C437 C 0.81078 0.2886 0.14823 0.0
C438 C 0.68212 0.7979 0.13778 0.0
C439 C 0.65512 0.80255 0.15444 0.0
C440 C 0.70337 0.81891 0.13866 0.0
C441 C 0.69846 0.84551 0.15608 0.0
H442 H 0.68718 0.77763 0.12443 0.0
H443 H 0.72392 0.81406 0.1259 0.0
S444 S 0.63091 0.86904 0.20228 0.0
N445 N 0.62422 0.83613 0.1878 0.0
N446 N 0.66421 0.87582 0.18931 0.0
C447 C 0.67133 0.85079 0.17209 0.0
C448 C 0.64965 0.82926 0.17132 0.0
C449 C 0.17679 0.65187 0.16928 0.0
C450 C 0.20586 0.65977 0.16866 0.0
C451 C 0.15502 0.67258 0.16861 0.0
C452 C 0.16156 0.70192 0.16707 0.0
H453 H 0.17076 0.62951 0.17006 0.0
H454 H 0.13293 0.66553 0.16894 0.0
S455 S 0.23433 0.73391 0.16687 0.0
N456 N 0.23998 0.69911 0.16782 0.0
N457 N 0.19921 0.73784 0.16635 0.0
C458 C 0.19054 0.7101 0.16689 0.0
C459 C 0.21265 0.68908 0.16776 0.0
C460 C 0.29597 0.8138 0.36429 0.0
C461 C 0.30221 0.84287 0.35833 0.0
C462 C 0.31761 0.79308 0.3639 0.0
C463 C 0.3464 0.80056 0.3576 0.0
H464 H 0.2741 0.80684 0.36872 0.0
H465 H 0.31159 0.77093 0.36805 0.0
S466 S 0.37435 0.87396 0.34236 0.0
N467 N 0.33946 0.87827 0.3473 0.0
N468 N 0.38017 0.83929 0.34663 0.0
C469 C 0.35308 0.82965 0.3525 0.0
C470 C 0.33099 0.85079 0.35284 0.0
C471 C 0.20584 0.31419 0.35893 0.0
C472 C 0.19838 0.3431 0.35405 0.0
C473 C 0.185 0.29273 0.35879 0.0
C474 C 0.15584 0.29927 0.3538 0.0
H475 H 0.22802 0.30796 0.36258 0.0
H476 H 0.19192 0.27077 0.36237 0.0
S477 S 0.12487 0.37175 0.34086 0.0
N478 N 0.15967 0.37726 0.3448 0.0
N479 N 0.12043 0.33684 0.34458 0.0
C480 C 0.14797 0.32812 0.34936 0.0
C481 C 0.16926 0.35005 0.34947 0.0
C482 C 0.70631 0.1835 0.36849 0.0
C483 C 0.70059 0.15545 0.35629 0.0
C484 C 0.68492 0.20448 0.36837 0.0
C485 C 0.65694 0.19829 0.35598 0.0
H486 H 0.72756 0.18945 0.37795 0.0
H487 H 0.69052 0.22583 0.37772 0.0
S488 S 0.63058 0.1279 0.32214 0.0
N489 N 0.66468 0.12237 0.33221 0.0
N490 N 0.62446 0.16187 0.33193 0.0
C491 C 0.65077 0.17023 0.34418 0.0
C492 C 0.6726 0.1488 0.34435 0.0
C493 C 0.79162 0.68189 0.36438 0.0
C494 C 0.79734 0.65412 0.35101 0.0
C495 C 0.81295 0.70289 0.36496 0.0
C496 C 0.84088 0.69702 0.35216 0.0
H497 H 0.77038 0.68763 0.37417 0.0
H498 H 0.80733 0.72402 0.37517 0.0
S499 S 0.86731 0.62738 0.31556 0.0
N500 N 0.83325 0.62161 0.32554 0.0
N501 N 0.87337 0.66114 0.3266 0.0
C502 C 0.84707 0.66921 0.33925 0.0
C503 C 0.8253 0.64776 0.33869 0.0
C504 C 0.70637 0.81478 0.8679 0.0
C505 C 0.70151 0.84222 0.85278 0.0
C506 C 0.68501 0.79381 0.86721 0.0
C507 C 0.65789 0.7994 0.85139 0.0
H508 H 0.72698 0.80927 0.88005 0.0
H509 H 0.68996 0.77293 0.8789 0.0
S510 S 0.63385 0.86813 0.80907 0.0
N511 N 0.66726 0.87411 0.82226 0.0
N512 N 0.62707 0.83467 0.82099 0.0
C513 C 0.65253 0.82689 0.83668 0.0
C514 C 0.67434 0.84829 0.83737 0.0
C515 C 0.18201 0.69959 0.88009 0.0
C516 C 0.15495 0.69463 0.86377 0.0
C517 C 0.20327 0.67849 0.87993 0.0
C518 C 0.19833 0.65153 0.86347 0.0
H519 H 0.18716 0.72021 0.89238 0.0
H520 H 0.22395 0.68364 0.89211 0.0
S521 S 0.13036 0.62691 0.81946 0.0
N522 N 0.12379 0.66017 0.83252 0.0
N523 N 0.16378 0.62043 0.83224 0.0
C524 C 0.17103 0.64588 0.84822 0.0
C525 C 0.14934 0.66744 0.84835 0.0
C526 C 0.34469 0.17261 0.84407 0.0
C527 C 0.33854 0.20016 0.85791 0.0
C528 C 0.32383 0.15106 0.84413 0.0
C529 C 0.29604 0.15624 0.85801 0.0
H530 H 0.36567 0.1677 0.83264 0.0
H531 H 0.32948 0.13029 0.8327 0.0
S532 S 0.26937 0.22442 0.89902 0.0
N533 N 0.30287 0.23118 0.88707 0.0
N534 N 0.26377 0.19076 0.88717 0.0
C535 C 0.28977 0.18354 0.87262 0.0
C536 C 0.31099 0.20547 0.87257 0.0
C537 C 0.8169 0.29643 0.86907 0.0
C538 C 0.84505 0.30269 0.85754 0.0
C539 C 0.79562 0.3175 0.86926 0.0
C540 C 0.80156 0.34568 0.8577 0.0
H541 H 0.81107 0.27496 0.87766 0.0
H542 H 0.77418 0.31142 0.87781 0.0
S543 S 0.87216 0.37355 0.82648 0.0
N544 N 0.87804 0.3394 0.83555 0.0
N545 N 0.83791 0.37903 0.83566 0.0
C546 C 0.82975 0.35244 0.84684 0.0
C547 C 0.85153 0.33095 0.84684 0.0
C548 C 0.68084 0.20213 0.64402 0.0
C549 C 0.65325 0.19601 0.6579 0.0
C550 C 0.70274 0.18172 0.64528 0.0
C551 C 0.69798 0.15427 0.66035 0.0
H552 H 0.68583 0.22309 0.63268 0.0
H553 H 0.72369 0.18771 0.63471 0.0
S554 S 0.62915 0.12687 0.69867 0.0
N555 N 0.62204 0.16013 0.68601 0.0
N556 N 0.66324 0.12163 0.68823 0.0
C557 C 0.67031 0.14756 0.67352 0.0
C558 C 0.64795 0.16845 0.67234 0.0
C559 C 0.79559 0.68321 0.64519 0.0
C560 C 0.80126 0.65493 0.65657 0.0
C561 C 0.81697 0.70415 0.64616 0.0
C562 C 0.84489 0.69767 0.65853 0.0
H563 H 0.77438 0.68937 0.63575 0.0
H564 H 0.81142 0.72566 0.63737 0.0
S565 S 0.8711 0.62662 0.69041 0.0
N566 N 0.83705 0.62136 0.67993 0.0
N567 N 0.87726 0.66076 0.68173 0.0
C568 C 0.851 0.66939 0.66957 0.0
C569 C 0.82918 0.64802 0.66858 0.0
C570 C 0.32606 0.8431 0.67679 0.0
C571 C 0.30305 0.84258 0.65089 0.0
C572 C 0.34719 0.82178 0.67632 0.0
C573 C 0.34608 0.79917 0.64993 0.0
H574 H 0.32736 0.85962 0.69836 0.0
H575 H 0.36403 0.82261 0.69754 0.0
S576 S 0.29204 0.78978 0.57327 0.0
N577 N 0.2817 0.81884 0.59611 0.0
N578 N 0.32133 0.77884 0.59523 0.0
C579 C 0.32388 0.79911 0.62279 0.0
C580 C 0.30239 0.82079 0.62327 0.0
C581 C 0.17923 0.29493 0.64094 0.0
C582 C 0.15266 0.29876 0.65913 0.0
C583 C 0.2001 0.31633 0.64133 0.0
C584 C 0.19526 0.34255 0.6598 0.0
H585 H 0.18426 0.275 0.62669 0.0
H586 H 0.22032 0.31209 0.6273 0.0
S587 S 0.1287 0.36398 0.71016 0.0
N588 N 0.1222 0.33118 0.6951 0.0
N589 N 0.16147 0.37162 0.6957 0.0
C590 C 0.16854 0.347 0.67742 0.0
C591 C 0.14724 0.32507 0.67714 0.0
C592 C 0.2452 0.06758 0.02735 0.0
C593 C 0.22287 0.08035 0.04823 0.0
C594 C 0.24488 0.06719 0.98736 0.0
C595 C 0.22227 0.07963 0.96658 0.0
H596 H 0.26357 0.05858 0.04193 0.0
H597 H 0.26306 0.05793 0.97267 0.0
S598 S 0.15724 0.1134 0.00759 0.0
N599 N 0.17642 0.10389 0.04507 0.0
N600 N 0.17591 0.10324 0.97 0.0
C601 C 0.19914 0.09127 0.98709 0.0
C602 C 0.19942 0.0916 0.02786 0.0
C603 C 0.93003 0.2504 0.98897 0.0
C604 C 0.92256 0.22608 0.96757 0.0
C605 C 0.92974 0.24997 0.02892 0.0
C606 C 0.92199 0.2252 0.04924 0.0
H607 H 0.93515 0.27033 0.97481 0.0
H608 H 0.93467 0.26959 0.04393 0.0
S609 S 0.90336 0.15491 0.00688 0.0
N610 N 0.90929 0.17582 0.96977 0.0
N611 N 0.90877 0.17502 0.04489 0.0
C612 C 0.91598 0.20026 0.02828 0.0
C613 C 0.91626 0.2007 0.98747 0.0
C614 C 0.79891 0.90672 0.98748 0.0
C615 C 0.77726 0.92022 0.96608 0.0
C616 C 0.79872 0.90733 0.02748 0.0
C617 C 0.77688 0.92148 0.04771 0.0
H618 H 0.81556 0.89458 0.97332 0.0
H619 H 0.81521 0.89561 0.04261 0.0
S620 S 0.71721 0.96324 1.00516 0.0
N621 N 0.73486 0.95044 0.96814 0.0
N622 N 0.73451 0.9516 0.04319 0.0
C623 C 0.75605 0.93649 0.02665 0.0
C624 C 0.75624 0.93586 0.9859 0.0
C625 C 0.09357 0.79518 0.99 0.0
C626 C 0.07943 0.77382 0.96893 0.0
C627 C 0.09336 0.79503 0.03 0.0
C628 C 0.07923 0.77337 0.05051 0.0
H629 H 0.10579 0.8116 0.97555 0.0
H630 H 0.1055 0.81129 0.04489 0.0
S631 S 0.03611 0.71445 0.00908 0.0
N632 N 0.04861 0.73193 0.97173 0.0
N633 N 0.04852 0.73151 0.04681 0.0
C634 C 0.06369 0.7528 0.02986 0.0
C635 C 0.0637 0.75307 0.98911 0.0
C636 C 0.24315 0.9321 0.48841 0.0
C637 C 0.22161 0.91829 0.46728 0.0
C638 C 0.24289 0.93194 0.5284 0.0
C639 C 0.22112 0.91786 0.54883 0.0
H640 H 0.26104 0.94216 0.47403 0.0
H641 H 0.26062 0.94183 0.54332 0.0
S642 S 0.15775 0.88161 0.50711 0.0
N643 N 0.17637 0.89255 0.46986 0.0
N644 N 0.17597 0.89214 0.54492 0.0
C645 C 0.19852 0.90548 0.52809 0.0
C646 C 0.19874 0.90572 0.48735 0.0
C647 C 0.08999 0.1977 0.52543 0.0
C648 C 0.07735 0.21984 0.54679 0.0
C649 C 0.09001 0.19837 0.48537 0.0
C650 C 0.07745 0.22122 0.46524 0.0
H651 H 0.10113 0.18042 0.53968 0.0
H652 H 0.10116 0.18156 0.47018 0.0
S653 S 0.03772 0.28216 0.50763 0.0
N654 N 0.04908 0.26354 0.54466 0.0
N655 N 0.04924 0.26481 0.46965 0.0
C656 C 0.06311 0.24247 0.48623 0.0
C657 C 0.06303 0.24176 0.52693 0.0
C658 C 0.79781 0.09449 0.52989 0.0
C659 C 0.77663 0.07987 0.55076 0.0
C660 C 0.79791 0.09429 0.48988 0.0
C661 C 0.77686 0.07945 0.46908 0.0
H662 H 0.81386 0.1071 0.5445 0.0
H663 H 0.81404 0.10676 0.47519 0.0
S664 S 0.71855 0.03509 0.51006 0.0
N665 N 0.73545 0.04813 0.54756 0.0
N666 N 0.73566 0.04774 0.47249 0.0
C667 C 0.75648 0.06347 0.48959 0.0
C668 C 0.75636 0.06368 0.53036 0.0
C669 C 0.93113 0.74846 0.52595 0.0
C670 C 0.92296 0.77277 0.54693 0.0
C671 C 0.93037 0.74836 0.48601 0.0
C672 C 0.92145 0.77257 0.46534 0.0
H673 H 0.9371 0.72889 0.54044 0.0
H674 H 0.93582 0.72873 0.47133 0.0
S675 S 0.90104 0.84281 0.50648 0.0
N676 N 0.90804 0.82256 0.54393 0.0
N677 N 0.90665 0.82239 0.46883 0.0
C678 C 0.91483 0.79759 0.48585 0.0
C679 C 0.91558 0.79768 0.52663 0.0
C680 C 0.70175 0.59433 0.52239 0.0
C681 C 0.72296 0.57919 0.54256 0.0
C682 C 0.70113 0.59444 0.48238 0.0
C683 C 0.72162 0.57929 0.46097 0.0
H684 H 0.68615 0.60718 0.53752 0.0
H685 H 0.68505 0.60732 0.46819 0.0
S686 S 0.77961 0.53348 0.50016 0.0
N687 N 0.76348 0.54667 0.53815 0.0
N688 N 0.76226 0.5467 0.46311 0.0
C689 C 0.74197 0.56276 0.48083 0.0
C690 C 0.74266 0.56276 0.52157 0.0
C691 C 0.43482 0.74052 0.48499 0.0
C692 C 0.41969 0.72038 0.46304 0.0
C693 C 0.43467 0.73939 0.52493 0.0
C694 C 0.41928 0.71813 0.54457 0.0
H695 H 0.44611 0.75795 0.4713 0.0
H696 H 0.44574 0.75605 0.54047 0.0
S697 S 0.37878 0.6584 0.50051 0.0
N698 N 0.39093 0.67703 0.46394 0.0
N699 N 0.39054 0.67498 0.53898 0.0
C700 C 0.40535 0.69693 0.52299 0.0
C701 C 0.40557 0.69803 0.48226 0.0
C702 C 0.24766 0.42963 0.48672 0.0
C703 C 0.27203 0.42111 0.46601 0.0
C704 C 0.24749 0.42946 0.52669 0.0
C705 C 0.27167 0.42072 0.54766 0.0
H706 H 0.22814 0.43555 0.472 0.0
H707 H 0.22784 0.43523 0.54117 0.0
S708 S 0.34192 0.39915 0.50725 0.0
N709 N 0.32178 0.40581 0.46957 0.0
N710 N 0.32144 0.40545 0.54468 0.0
C711 C 0.2967 0.41359 0.52738 0.0
C712 C 0.29688 0.4138 0.48659 0.0
C713 C 0.59246 0.2946 0.52793 0.0
C714 C 0.57751 0.27351 0.5485 0.0
C715 C 0.59272 0.2947 0.48795 0.0
C716 C 0.57811 0.27367 0.46689 0.0
H717 H 0.60499 0.31059 0.54277 0.0
H718 H 0.60545 0.31075 0.47354 0.0
S719 S 0.53294 0.21569 0.50691 0.0
N720 N 0.54558 0.23253 0.54468 0.0
N721 N 0.54615 0.23267 0.46959 0.0
C722 C 0.56176 0.25341 0.48703 0.0
C723 C 0.56143 0.25334 0.5278 0.0
C724 C 0.70038 0.4058 0.98337 0.0
C725 C 0.72166 0.42045 0.96273 0.0
C726 C 0.70038 0.40554 0.02336 0.0
C727 C 0.72175 0.41979 0.0443 0.0
H728 H 0.68419 0.39348 0.96858 0.0
H729 H 0.68421 0.39301 0.03788 0.0
S730 S 0.78026 0.46421 1.00408 0.0
N731 N 0.76311 0.45184 0.96639 0.0
N732 N 0.76318 0.45119 0.04145 0.0
C733 C 0.74217 0.43589 0.02408 0.0
C734 C 0.74209 0.43627 0.98334 0.0
C735 C 0.58854 0.70118 0.02204 0.0
C736 C 0.57644 0.72392 0.04277 0.0
C737 C 0.58878 0.70134 0.98202 0.0
C738 C 0.57692 0.72424 0.96124 0.0
H739 H 0.59919 0.6838 0.03675 0.0
H740 H 0.59955 0.68402 0.96736 0.0
S741 S 0.5387 0.78678 1.00194 0.0
N742 N 0.54938 0.76833 0.03947 0.0
N743 N 0.54985 0.76863 0.96443 0.0
C744 C 0.56299 0.7461 0.98161 0.0
C745 C 0.56275 0.74594 0.02232 0.0
C746 C 0.2567 0.56871 0.0292 0.0
C747 C 0.28017 0.57966 0.04966 0.0
C748 C 0.2567 0.56798 0.98925 0.0
C749 C 0.28002 0.57857 0.96814 0.0
H750 H 0.23775 0.56141 0.04411 0.0
H751 H 0.23767 0.5603 0.97486 0.0
S752 S 0.34786 0.60706 0.00801 0.0
N753 N 0.32833 0.59924 0.04584 0.0
N754 N 0.32815 0.59831 0.97071 0.0
C755 C 0.30421 0.58829 0.98823 0.0
C756 C 0.30435 0.5887 0.02899 0.0
C757 C 0.42706 0.25173 0.98845 0.0
C758 C 0.41741 0.2755 0.96743 0.0
C759 C 0.42723 0.25193 0.02843 0.0
C760 C 0.41775 0.27592 0.04909 0.0
H761 H 0.43362 0.23234 0.97399 0.0
H762 H 0.43392 0.23271 0.04319 0.0
S763 S 0.3932 0.3448 0.00772 0.0
N764 N 0.40026 0.32457 0.97032 0.0
N765 N 0.40058 0.32497 0.04542 0.0
C766 C 0.40946 0.3004 0.02846 0.0
C767 C 0.40929 0.30019 0.98767 0.0
C768 C 0.21222 0.00914 0.24337 0.0
C769 C 0.238 0.02117 0.23017 0.0
C770 C 0.21223 0.98662 0.26972 0.0
C771 C 0.23801 0.97499 0.28351 0.0
H772 H 0.1918 0.01747 0.23374 0.0
H773 H 0.19183 0.97805 0.27896 0.0
S774 S 0.31137 -0.00144 0.25765 0.0
N775 N 0.29003 0.01974 0.23288 0.0
N776 N 0.29005 0.97708 0.28193 0.0
C777 C 0.26396 0.98664 0.27035 0.0
C778 C 0.26395 0.00981 0.24382 0.0
C779 C 0.00298 0.24017 0.21911 0.0
C780 C 0.97494 0.23941 0.23342 0.0
C781 C 0.02655 0.24043 0.2439 0.0
C782 C 0.02278 0.23892 0.28368 0.0
H783 H 0.00671 0.24082 0.18863 0.0
H784 H 0.04789 0.24109 0.23182 0.0
S785 S 0.95361 0.23559 0.33515 0.0
N786 N 0.94458 0.23711 0.28964 0.0
N787 N 0.98898 0.23628 0.33616 0.0
C788 C 0.99485 0.23776 0.29827 0.0
C789 C 0.97087 0.23837 0.27311 0.0
C790 C 0.78987 0.01003 0.27278 0.0
C791 C 0.76412 0.02186 0.28639 0.0
C792 C 0.7898 0.98803 0.24566 0.0
C793 C 0.76398 0.97687 0.23136 0.0
H794 H 0.8103 0.01809 0.2827 0.0
H795 H 0.81018 0.97954 0.23617 0.0
S796 S 0.69066 0.00013 0.25818 0.0
N797 N 0.71207 0.02064 0.28372 0.0
N798 N 0.71193 0.97918 0.23304 0.0
C799 C 0.73806 0.98838 0.2449 0.0
C800 C 0.73814 0.01089 0.27235 0.0
C801 C 0.01002 0.78595 0.24416 0.0
C802 C 0.02256 0.76024 0.23173 0.0
C803 C 0.98716 0.78594 0.27004 0.0
C804 C 0.97573 0.76021 0.28414 0.0
H805 H 0.01816 0.80632 0.23425 0.0
H806 H 0.97817 0.80629 0.27866 0.0
S807 S 0.00072 0.68702 0.26031 0.0
N808 N 0.02187 0.70831 0.23551 0.0
N809 N 0.97866 0.70828 0.28373 0.0
C810 C 0.98797 0.73432 0.27181 0.0
C811 C 0.01143 0.73434 0.24572 0.0
C812 C 0.744 0.98796 0.77249 0.0
C813 C 0.76993 0.97527 0.78396 0.0
C814 C 0.74361 0.01111 0.74712 0.0
C815 C 0.76912 0.02228 0.73185 0.0
H816 H 0.72377 0.98002 0.78326 0.0
H817 H 0.7231 0.02031 0.73945 0.0
S818 S 0.84275 0.99644 0.75227 0.0
N819 N 0.82184 0.97546 0.77788 0.0
N820 N 0.8211 0.01879 0.72995 0.0
C821 C 0.79522 0.00967 0.74285 0.0
C822 C 0.79563 0.98625 0.769 0.0
C823 C 0.99339 0.78497 0.73981 0.0
C824 C 0.98106 0.75924 0.7272 0.0
C825 C 0.01588 0.78501 0.76627 0.0
C826 C 0.02712 0.75932 0.78088 0.0
H827 H 0.98527 0.80532 0.72977 0.0
H828 H 0.02456 0.80541 0.77521 0.0
S829 S 0.00298 0.68607 0.75614 0.0
N830 N 0.98207 0.7073 0.73081 0.0
N831 N 0.02457 0.70739 0.7802 0.0
C832 C 0.0153 0.7334 0.76807 0.0
C833 C 0.99222 0.73336 0.74133 0.0
C834 C 0.21396 0.98097 0.75115 0.0
C835 C 0.23946 0.97138 0.73406 0.0
C836 C 0.21398 0.00371 0.77702 0.0
C837 C 0.23947 0.01797 0.78664 0.0
H838 H 0.19371 0.9708 0.74463 0.0
H839 H 0.1937 0.01043 0.78903 0.0
S840 S 0.31217 0.00094 0.7503 0.0
N841 N 0.29104 0.97755 0.72906 0.0
N842 N 0.29106 0.02062 0.77746 0.0
C843 C 0.26522 0.00849 0.77003 0.0
C844 C 0.26522 0.98512 0.74381 0.0
C845 C 0.00563 0.23265 0.79807 0.0
C846 C 0.97844 0.24068 0.7846 0.0
C847 C 0.02941 0.23204 0.7736 0.0
C848 C 0.0266 0.23869 0.73461 0.0
H849 H 0.00856 0.22684 0.82774 0.0
H850 H 0.04996 0.2256 0.78508 0.0
S851 S 0.95991 0.26073 0.68518 0.0
N852 N 0.9501 0.25568 0.7299 0.0
N853 N 0.99455 0.2537 0.68377 0.0
C854 C -0.00047 0.24674 0.72083 0.0
C855 C 0.9755 0.24797 0.74587 0.0
C856 C 0.7109 0.50848 0.73557 0.0
C857 C 0.7367 0.52014 0.72194 0.0
C858 C 0.71087 0.48575 0.76161 0.0
C859 C 0.73663 0.47361 0.77479 0.0
H860 H 0.69052 0.51731 0.72665 0.0
H861 H 0.69044 0.47762 0.7714 0.0
S862 S 0.81003 0.49573 0.74694 0.0
N863 N 0.78874 0.51749 0.72301 0.0
N864 N 0.78867 0.4746 0.77165 0.0
C865 C 0.76259 0.48476 0.76094 0.0
C866 C 0.76263 0.50805 0.7346 0.0
C867 C 0.50955 0.71017 0.77022 0.0
C868 C 0.52261 0.73602 0.78093 0.0
C869 C 0.48646 0.70975 0.74473 0.0
C870 C 0.47535 0.73518 0.72915 0.0
H871 H 0.51744 0.68999 0.78116 0.0
H872 H 0.47719 0.68926 0.73735 0.0
S873 S 0.50143 0.80865 0.74869 0.0
N874 N 0.5225 0.78782 0.77437 0.0
N875 N 0.47891 0.78702 0.72671 0.0
C876 C 0.48798 0.76124 0.73991 0.0
C877 C 0.51165 0.76166 0.76574 0.0
C878 C 0.28626 0.48825 0.74173 0.0
C879 C 0.26021 0.477 0.72836 0.0
C880 C 0.28681 0.51074 0.76805 0.0
C881 C 0.26133 0.52306 0.7818 0.0
H882 H 0.30647 0.47933 0.73231 0.0
H883 H 0.30744 0.51861 0.77752 0.0
S884 S 0.18741 0.50189 0.75506 0.0
N885 N 0.20821 0.48012 0.73046 0.0
N886 N 0.20926 0.52262 0.77963 0.0
C887 C 0.2351 0.51227 0.76833 0.0
C888 C 0.23454 0.4892 0.74169 0.0
C889 C 0.48605 0.23862 0.77261 0.0
C890 C 0.47528 0.2644 0.78753 0.0
C891 C 0.50915 0.23841 0.74703 0.0
C892 C 0.52214 0.264 0.73503 0.0
H893 H 0.47651 0.21839 0.7806 0.0
H894 H 0.51672 0.21803 0.73638 0.0
S895 S 0.50222 0.3373 0.76594 0.0
N896 N 0.47964 0.31622 0.78872 0.0
N897 N 0.52277 0.31587 0.7405 0.0
C898 C 0.51165 0.28994 0.74984 0.0
C899 C 0.48833 0.29013 0.77615 0.0
C900 C 0.26378 0.52926 0.2736 0.0
C901 C 0.26076 0.52621 0.23389 0.0
C902 C 0.26319 0.50537 0.29779 0.0
C903 C 0.25862 0.47781 0.28312 0.0
H904 H 0.26743 0.55015 0.28598 0.0
H905 H 0.2662 0.50848 0.32814 0.0
S906 S 0.24875 0.45857 0.18134 0.0
N907 N 0.25298 0.49362 0.18102 0.0
N908 N 0.25074 0.44882 0.22653 0.0
C909 C 0.25492 0.47459 0.24356 0.0
C910 C 0.2563 0.49878 0.21889 0.0
C911 C 0.50998 0.24008 0.27213 0.0
C912 C 0.52324 0.26568 0.28353 0.0
C913 C 0.48714 0.24018 0.24617 0.0
C914 C 0.47698 0.26585 0.23015 0.0
H915 H 0.51719 0.21978 0.28351 0.0
H916 H 0.47735 0.21997 0.23864 0.0
S917 S 0.50485 0.33868 0.24986 0.0
N918 N 0.52479 0.31739 0.27644 0.0
N919 N 0.48215 0.31757 0.22734 0.0
C920 C 0.49028 0.29159 0.24096 0.0
C921 C 0.51329 0.29151 0.26777 0.0
C922 C 0.75645 0.50977 0.26458 0.0
C923 C 0.73061 0.52114 0.27855 0.0
C924 C 0.75657 0.48697 0.23867 0.0
C925 C 0.73084 0.47495 0.22535 0.0
H926 H 0.7768 0.51852 0.27373 0.0
H927 H 0.77701 0.47876 0.22896 0.0
S928 S 0.65733 0.49697 0.25305 0.0
N929 N 0.67856 0.51859 0.27719 0.0
N930 N 0.67879 0.47599 0.22825 0.0
C931 C 0.70483 0.48618 0.23896 0.0
C932 C 0.70471 0.50918 0.26566 0.0
C933 C 0.48138 0.7566 0.24886 0.0
C934 C 0.48338 0.74451 0.28552 0.0
C935 C 0.50471 0.75612 0.22377 0.0
C936 C 0.53105 0.74421 0.23483 0.0
H937 H 0.46134 0.76562 0.23894 0.0
H938 H 0.50205 0.76497 0.19542 0.0
S939 S 0.54779 0.71086 0.32823 0.0
N940 N 0.51394 0.72077 0.33191 0.0
N941 N 0.55811 0.72067 0.28513 0.0
C942 C 0.53365 0.73289 0.27182 0.0
C943 C 0.5097 0.7328 0.29708 0.0
C944 C 0.18023 0.14008 0.27471 0.0
C945 C 0.17455 0.13732 0.23546 0.0
C946 C 0.16247 0.1565 0.29835 0.0
C947 C 0.13859 0.17103 0.28349 0.0
H948 H 0.19884 0.12989 0.28723 0.0
H949 H 0.16813 0.15864 0.32816 0.0
S950 S 0.11325 0.16922 0.18313 0.0
N951 N 0.14238 0.1492 0.18322 0.0
N952 N 0.10919 0.18027 0.22749 0.0
C953 C 0.13209 0.16765 0.24455 0.0
C954 C 0.15002 0.15073 0.22057 0.0
C955 C 0.86408 0.17074 0.27007 0.0
C956 C 0.86 0.17104 0.23028 0.0
C957 C 0.8467 0.15414 0.29393 0.0
C958 C 0.82429 0.13758 0.27894 0.0
H959 H 0.88048 0.18391 0.28305 0.0
H960 H 0.85023 0.15511 0.32443 0.0
S961 S 0.806 0.12915 0.17654 0.0
N962 N 0.83306 0.15185 0.17677 0.0
N963 N 0.80008 0.12095 0.22166 0.0
C964 C 0.82058 0.13687 0.23912 0.0
C965 C 0.83855 0.1535 0.21476 0.0
C966 C 0.85766 0.82081 0.24339 0.0
C967 C 0.85391 0.82049 0.28321 0.0
C968 C 0.84099 0.83854 0.21998 0.0
C969 C 0.81961 0.85621 0.23547 0.0
H970 H 0.87354 0.80717 0.23012 0.0
H971 H 0.84443 0.83785 0.18944 0.0
S972 S 0.80182 0.86401 0.3381 0.0
N973 N 0.82785 0.84012 0.33723 0.0
N974 N 0.79617 0.87304 0.2932 0.0
C975 C 0.81588 0.8564 0.27529 0.0
C976 C 0.83314 0.83866 0.29917 0.0
C977 C 0.18136 0.85478 0.24355 0.0
C978 C 0.17711 0.85617 0.28323 0.0
C979 C 0.16351 0.83818 0.2203 0.0
C980 C 0.14109 0.82198 0.236 0.0
H981 H 0.19878 0.86642 0.23032 0.0
H982 H 0.16791 0.83733 0.18999 0.0
S983 S 0.11999 0.81928 0.33791 0.0
N984 N 0.14791 0.8409 0.33696 0.0
N985 N 0.11474 0.80926 0.29332 0.0
C986 C 0.1362 0.82362 0.27548 0.0
C987 C 0.1541 0.84086 0.29909 0.0
C988 C 0.83896 0.83629 0.71887 0.0
C989 C 0.86063 0.81891 0.73425 0.0
C990 C 0.82156 0.85312 0.74246 0.0
C991 C 0.82552 0.85356 0.78225 0.0
H992 H 0.83487 0.83635 0.68845 0.0
H993 H 0.80477 0.86576 0.72937 0.0
S994 S 0.88062 0.81324 0.83642 0.0
N995 N 0.88591 0.80395 0.79156 0.0
N996 N 0.85355 0.83598 0.83584 0.0
C997 C 0.84772 0.83695 0.79789 0.0
C998 C 0.86517 0.8195 0.77391 0.0
C999 C 0.19044 0.82338 0.74561 0.0
C1000 C 0.18119 0.85049 0.73344 0.0
C1001 C 0.17363 0.80672 0.77001 0.0
C1002 C 0.14727 0.81683 0.78393 0.0
H1003 H 0.21073 0.81481 0.73587 0.0
H1004 H 0.1815 0.78583 0.77833 0.0
S1005 S 0.11367 0.88667 0.76129 0.0
N1006 N 0.14402 0.88681 0.7371 0.0
N1007 N 0.11269 0.85572 0.78396 0.0
C1008 C 0.13788 0.84404 0.77238 0.0
C1009 C 0.15476 0.8608 0.74682 0.0
C1010 C 0.17381 0.1666 0.71803 0.0
C1011 C 0.14374 0.1658 0.71985 0.0
C1012 C 0.19067 0.15073 0.7433 0.0
C1013 C 0.17819 0.13363 0.77181 0.0
H1014 H 0.18451 0.18016 0.69743 0.0
H1015 H 0.21373 0.15259 0.74109 0.0
S1016 S 0.10035 0.12269 0.78726 0.0
N1017 N 0.10206 0.14531 0.75114 0.0
N1018 N 0.13386 0.11558 0.79909 0.0
C1019 C 0.14813 0.13184 0.77323 0.0
C1020 C 0.13088 0.14785 0.74709 0.0
C1021 C 0.86149 0.17701 0.74629 0.0
C1022 C 0.8586 0.17671 0.78625 0.0
C1023 C 0.84394 0.16013 0.72297 0.0
C1024 C 0.82254 0.14262 0.73868 0.0
H1025 H 0.87723 0.19068 0.73277 0.0
H1026 H 0.8467 0.16141 0.69235 0.0
S1027 S 0.80719 0.13281 0.84172 0.0
N1028 N 0.83357 0.15629 0.84061 0.0
N1029 N 0.8003 0.12488 0.79677 0.0
C1030 C 0.81983 0.14158 0.77863 0.0
C1031 C 0.83795 0.15851 0.80242 0.0
C1032 C 0.65943 0.66065 0.71513 0.0
C1033 C 0.67886 0.6409 0.73078 0.0
C1034 C 0.64264 0.67815 0.73861 0.0
C1035 C 0.64427 0.67618 0.7786 0.0
H1036 H 0.65772 0.66319 0.68451 0.0
H1037 H 0.62837 0.69346 0.72527 0.0
S1038 S 0.69053 0.62659 0.83373 0.0
N1039 N 0.69805 0.61958 0.7887 0.0
N1040 N 0.66608 0.6521 0.83282 0.0
C1041 C 0.66296 0.65589 0.79462 0.0
C1042 C 0.68038 0.63835 0.7707 0.0
C1043 C 0.3096 0.66886 0.76611 0.0
C1044 C 0.31992 0.64278 0.7806 0.0
C1045 C 0.32621 0.68552 0.74146 0.0
C1046 C 0.35348 0.6764 0.72965 0.0
H1047 H 0.28862 0.67668 0.77424 0.0
H1048 H 0.3175 0.70562 0.73135 0.0
S1049 S 0.39016 0.60953 0.75883 0.0
N1050 N 0.35912 0.60854 0.78137 0.0
N1051 N 0.39012 0.63959 0.73408 0.0
C1052 C 0.36397 0.6502 0.74348 0.0
C1053 C 0.34725 0.63347 0.76927 0.0
C1054 C 0.33366 0.33908 0.79492 0.0
C1055 C 0.35365 0.31986 0.7794 0.0
C1056 C 0.31617 0.35585 0.77131 0.0
C1057 C 0.31834 0.35438 0.73133 0.0
H1058 H 0.331 0.34071 0.82552 0.0
H1059 H 0.30074 0.37 0.78457 0.0
S1060 S 0.36852 0.30859 0.67653 0.0
N1061 N 0.37535 0.30098 0.72161 0.0
N1062 N 0.34283 0.33285 0.67728 0.0
C1063 C 0.33881 0.33581 0.71546 0.0
C1064 C 0.35636 0.31845 0.73949 0.0
C1065 C 0.63652 0.34376 0.74271 0.0
C1066 C 0.64545 0.31614 0.73228 0.0
C1067 C 0.65353 0.36092 0.76649 0.0
C1068 C 0.68031 0.35125 0.77959 0.0
H1069 H 0.61607 0.35195 0.73297 0.0
H1070 H 0.64592 0.38204 0.7741 0.0
S1071 S 0.71353 0.28076 0.75972 0.0
N1072 N 0.68264 0.27989 0.73685 0.0
N1073 N 0.71495 0.31242 0.78041 0.0
C1074 C 0.68955 0.3238 0.76898 0.0
C1075 C 0.67201 0.30615 0.7456 0.0
C1076 C 0.34002 0.34484 0.221 0.0
C1077 C 0.35945 0.32524 0.2369 0.0
C1078 C 0.32292 0.36219 0.24425 0.0
C1079 C 0.32485 0.36087 0.28429 0.0
H1080 H 0.33726 0.34615 0.19038 0.0
H1081 H 0.30764 0.37637 0.23066 0.0
S1082 S 0.37451 0.31504 0.33995 0.0
N1083 N 0.38111 0.30679 0.29504 0.0
N1084 N 0.34919 0.33969 0.33875 0.0
C1085 C 0.34515 0.34229 0.30053 0.0
C1086 C 0.36237 0.32437 0.27683 0.0
C1087 C 0.64247 0.31685 0.24172 0.0
C1088 C 0.64267 0.32094 0.28149 0.0
C1089 C 0.65875 0.33427 0.21751 0.0
C1090 C 0.67623 0.35604 0.23227 0.0
H1091 H 0.62976 0.29995 0.22915 0.0
H1092 H 0.65828 0.33008 0.18713 0.0
S1093 S 0.68336 0.37646 0.33405 0.0
N1094 N 0.66084 0.34926 0.33435 0.0
N1095 N 0.6919 0.38162 0.28889 0.0
C1096 C 0.67623 0.36073 0.27188 0.0
C1097 C 0.65931 0.34329 0.29648 0.0
C1098 C 0.68821 0.65118 0.23622 0.0
C1099 C 0.67581 0.63794 0.26825 0.0
C1100 C 0.67163 0.66693 0.21048 0.0
C1101 C 0.64192 0.66981 0.2154 0.0
H1102 H 0.71109 0.65003 0.23139 0.0
H1103 H 0.68234 0.67751 0.18698 0.0
S1104 S 0.5986 0.63818 0.2934 0.0
N1105 N 0.63172 0.62783 0.30266 0.0
N1106 N 0.60046 0.65735 0.25391 0.0
C1107 C 0.62897 0.65582 0.24644 0.0
C1108 C 0.64595 0.63994 0.27299 0.0
C1109 C 0.34645 0.63276 0.25721 0.0
C1110 C 0.33703 0.64203 0.22112 0.0
C1111 C 0.36249 0.65071 0.28106 0.0
C1112 C 0.36952 0.6787 0.2698 0.0
H1113 H 0.3406 0.61177 0.26773 0.0
H1114 H 0.36852 0.64293 0.30902 0.0
S1115 S 0.35221 0.71246 0.17669 0.0
N1116 N 0.33768 0.68037 0.17422 0.0
N1117 N 0.36764 0.71412 0.21898 0.0
C1118 C 0.36137 0.68777 0.23307 0.0
C1119 C 0.34521 0.66944 0.20872 0.0
loop_
_geom_bond_atom_site_label_1
_geom_bond_atom_site_label_2
_geom_bond_distance
_geom_bond_site_symmetry_2
_ccdc_geom_bond_type
In0 O1 2.294 . S
In0 O2 2.326 . S
In0 O6 2.266 . S
In0 O7 2.326 . S
In0 O8 2.266 . S
In0 O9 2.326 . S
In0 O11 2.294 . S
In0 O12 2.326 . S
O1 In0 2.294 . S
O1 C10 1.240 . S
O2 In0 2.326 . S
O2 C10 1.252 . S
C3 O6 1.252 . S
C3 O7 1.260 . S
C4 O11 1.240 . S
C4 O12 1.252 . S
C5 O8 1.252 . S
C5 O9 1.260 . S
O6 In0 2.266 . S
O6 C3 1.252 . S
O7 In0 2.326 . S
O7 C3 1.260 . S
O8 In0 2.266 . S
O8 C5 1.252 . S
O9 In0 2.326 . S
O9 C5 1.260 . S
C10 O1 1.240 . S
C10 O2 1.252 . S
O11 In0 2.294 . S
O11 C4 1.240 . S
O12 In0 2.326 . S
O12 C4 1.252 . S
In13 O14 2.294 . S
In13 O15 2.326 . S
In13 O19 2.266 . S
In13 O20 2.326 . S
In13 O21 2.266 . S
In13 O22 2.326 . S
In13 O24 2.294 . S
In13 O25 2.326 . S
O14 In13 2.294 . S
O14 C23 1.240 . S
O15 In13 2.326 . S
O15 C23 1.252 . S
C16 O19 1.252 . S
C16 O20 1.260 . S
C17 O24 1.240 . S
C17 O25 1.252 . S
C18 O21 1.252 . S
C18 O22 1.260 . S
O19 In13 2.266 . S
O19 C16 1.252 . S
O20 In13 2.326 . S
O20 C16 1.260 . S
O21 In13 2.266 . S
O21 C18 1.252 . S
O22 In13 2.326 . S
O22 C18 1.260 . S
C23 O14 1.240 . S
C23 O15 1.252 . S
O24 In13 2.294 . S
O24 C17 1.240 . S
O25 In13 2.326 . S
O25 C17 1.252 . S
In26 O27 2.294 . S
In26 O28 2.326 . S
In26 O32 2.266 . S
In26 O33 2.326 . S
In26 O34 2.266 . S
In26 O35 2.326 . S
In26 O37 2.294 . S
In26 O38 2.326 . S
O27 In26 2.294 . S
O27 C36 1.240 . S
O28 In26 2.326 . S
O28 C36 1.252 . S
C29 O32 1.252 . S
C29 O33 1.260 . S
C30 O37 1.240 . S
C30 O38 1.252 . S
C31 O34 1.252 . S
C31 O35 1.260 . S
O32 In26 2.266 . S
O32 C29 1.252 . S
O33 In26 2.326 . S
O33 C29 1.260 . S
O34 In26 2.266 . S
O34 C31 1.252 . S
O35 In26 2.326 . S
O35 C31 1.260 . S
C36 O27 1.240 . S
C36 O28 1.252 . S
O37 In26 2.294 . S
O37 C30 1.240 . S
O38 In26 2.326 . S
O38 C30 1.252 . S
In39 O40 2.294 . S
In39 O41 2.326 . S
In39 O45 2.266 . S
In39 O46 2.326 . S
In39 O47 2.266 . S
In39 O48 2.326 . S
In39 O50 2.294 . S
In39 O51 2.326 . S
O40 In39 2.294 . S
O40 C49 1.240 . S
O41 In39 2.326 . S
O41 C49 1.252 . S
C42 O45 1.252 . S
C42 O46 1.260 . S
C43 O50 1.240 . S
C43 O51 1.252 . S
C44 O47 1.252 . S
C44 O48 1.260 . S
O45 In39 2.266 . S
O45 C42 1.252 . S
O46 In39 2.326 . S
O46 C42 1.260 . S
O47 In39 2.266 . S
O47 C44 1.252 . S
O48 In39 2.326 . S
O48 C44 1.260 . S
C49 O40 1.240 . S
C49 O41 1.252 . S
O50 In39 2.294 . S
O50 C43 1.240 . S
O51 In39 2.326 . S
O51 C43 1.252 . S
In52 O53 2.294 . S
In52 O54 2.326 . S
In52 O58 2.266 . S
In52 O59 2.326 . S
In52 O60 2.266 . S
In52 O61 2.326 . S
In52 O63 2.294 . S
In52 O64 2.326 . S
O53 In52 2.294 . S
O53 C62 1.240 . S
O54 In52 2.326 . S
O54 C62 1.252 . S
C55 O58 1.252 . S
C55 O59 1.260 . S
C56 O63 1.240 . S
C56 O64 1.252 . S
C57 O60 1.252 . S
C57 O61 1.260 . S
O58 In52 2.266 . S
O58 C55 1.252 . S
O59 In52 2.326 . S
O59 C55 1.260 . S
O60 In52 2.266 . S
O60 C57 1.252 . S
O61 In52 2.326 . S
O61 C57 1.260 . S
C62 O53 1.240 . S
C62 O54 1.252 . S
O63 In52 2.294 . S
O63 C56 1.240 . S
O64 In52 2.326 . S
O64 C56 1.252 . S
In65 O66 2.294 . S
In65 O67 2.326 . S
In65 O71 2.266 . S
In65 O72 2.326 . S
In65 O73 2.266 . S
In65 O74 2.326 . S
In65 O76 2.294 . S
In65 O77 2.326 . S
O66 In65 2.294 . S
O66 C75 1.240 . S
O67 In65 2.326 . S
O67 C75 1.252 . S
C68 O71 1.252 . S
C68 O72 1.260 . S
C69 O76 1.240 . S
C69 O77 1.252 . S
C70 O73 1.252 . S
C70 O74 1.260 . S
O71 In65 2.266 . S
O71 C68 1.252 . S
O72 In65 2.326 . S
O72 C68 1.260 . S
O73 In65 2.266 . S
O73 C70 1.252 . S
O74 In65 2.326 . S
O74 C70 1.260 . S
C75 O66 1.240 . S
C75 O67 1.252 . S
O76 In65 2.294 . S
O76 C69 1.240 . S
O77 In65 2.326 . S
O77 C69 1.252 . S
In78 O79 2.294 . S
In78 O80 2.326 . S
In78 O84 2.266 . S
In78 O85 2.326 . S
In78 O86 2.266 . S
In78 O87 2.326 . S
In78 O89 2.294 . S
In78 O90 2.326 . S
O79 In78 2.294 . S
O79 C88 1.240 . S
O80 In78 2.326 . S
O80 C88 1.252 . S
C81 O84 1.252 . S
C81 O85 1.260 . S
C82 O89 1.240 . S
C82 O90 1.252 . S
C83 O86 1.252 . S
C83 O87 1.260 . S
O84 In78 2.266 . S
O84 C81 1.252 . S
O85 In78 2.326 . S
O85 C81 1.260 . S
O86 In78 2.266 . S
O86 C83 1.252 . S
O87 In78 2.326 . S
O87 C83 1.260 . S
C88 O79 1.240 . S
C88 O80 1.252 . S
O89 In78 2.294 . S
O89 C82 1.240 . S
O90 In78 2.326 . S
O90 C82 1.252 . S
In91 O92 2.294 . S
In91 O93 2.326 . S
In91 O97 2.266 . S
In91 O98 2.326 . S
In91 O99 2.266 . S
In91 O100 2.326 . S
In91 O102 2.294 . S
In91 O103 2.326 . S
O92 In91 2.294 . S
O92 C101 1.240 . S
O93 In91 2.326 . S
O93 C101 1.252 . S
C94 O97 1.252 . S
C94 O98 1.260 . S
C95 O102 1.240 . S
C95 O103 1.252 . S
C96 O99 1.252 . S
C96 O100 1.260 . S
O97 In91 2.266 . S
O97 C94 1.252 . S
O98 In91 2.326 . S
O98 C94 1.260 . S
O99 In91 2.266 . S
O99 C96 1.252 . S
O100 In91 2.326 . S
O100 C96 1.260 . S
C101 O92 1.240 . S
C101 O93 1.252 . S
O102 In91 2.294 . S
O102 C95 1.240 . S
O103 In91 2.326 . S
O103 C95 1.252 . S
In104 O105 2.294 . S
In104 O106 2.326 . S
In104 O110 2.266 . S
In104 O111 2.326 . S
In104 O112 2.266 . S
In104 O113 2.326 . S
In104 O115 2.294 . S
In104 O116 2.326 . S
O105 In104 2.294 . S
O105 C114 1.240 . S
O106 In104 2.326 . S
O106 C114 1.252 . S
C107 O110 1.252 . S
C107 O111 1.260 . S
C108 O115 1.240 . S
C108 O116 1.252 . S
C109 O112 1.252 . S
C109 O113 1.260 . S
O110 In104 2.266 . S
O110 C107 1.252 . S
O111 In104 2.326 . S
O111 C107 1.260 . S
O112 In104 2.266 . S
O112 C109 1.252 . S
O113 In104 2.326 . S
O113 C109 1.260 . S
C114 O105 1.240 . S
C114 O106 1.252 . S
O115 In104 2.294 . S
O115 C108 1.240 . S
O116 In104 2.326 . S
O116 C108 1.252 . S
In117 O118 2.294 . S
In117 O119 2.326 . S
In117 O123 2.266 . S
In117 O124 2.326 . S
In117 O125 2.266 . S
In117 O126 2.326 . S
In117 O128 2.294 . S
In117 O129 2.326 . S
O118 In117 2.294 . S
O118 C127 1.240 . S
O119 In117 2.326 . S
O119 C127 1.252 . S
C120 O123 1.252 . S
C120 O124 1.260 . S
C121 O128 1.240 . S
C121 O129 1.252 . S
C122 O125 1.252 . S
C122 O126 1.260 . S
O123 In117 2.266 . S
O123 C120 1.252 . S
O124 In117 2.326 . S
O124 C120 1.260 . S
O125 In117 2.266 . S
O125 C122 1.252 . S
O126 In117 2.326 . S
O126 C122 1.260 . S
C127 O118 1.240 . S
C127 O119 1.252 . S
O128 In117 2.294 . S
O128 C121 1.240 . S
O129 In117 2.326 . S
O129 C121 1.252 . S
In130 O131 2.294 . S
In130 O132 2.326 . S
In130 O136 2.266 . S
In130 O137 2.326 . S
In130 O138 2.266 . S
In130 O139 2.326 . S
In130 O141 2.294 . S
In130 O142 2.326 . S
O131 In130 2.294 . S
O131 C140 1.240 . S
O132 In130 2.326 . S
O132 C140 1.252 . S
C133 O136 1.252 . S
C133 O137 1.260 . S
C134 O141 1.240 . S
C134 O142 1.252 . S
C135 O138 1.252 . S
C135 O139 1.260 . S
O136 In130 2.266 . S
O136 C133 1.252 . S
O137 In130 2.326 . S
O137 C133 1.260 . S
O138 In130 2.266 . S
O138 C135 1.252 . S
O139 In130 2.326 . S
O139 C135 1.260 . S
C140 O131 1.240 . S
C140 O132 1.252 . S
O141 In130 2.294 . S
O141 C134 1.240 . S
O142 In130 2.326 . S
O142 C134 1.252 . S
In143 O144 2.294 . S
In143 O145 2.326 . S
In143 O149 2.266 . S
In143 O150 2.326 . S
In143 O151 2.266 . S
In143 O152 2.326 . S
In143 O154 2.294 . S
In143 O155 2.326 . S
O144 In143 2.294 . S
O144 C153 1.240 . S
O145 In143 2.326 . S
O145 C153 1.252 . S
C146 O149 1.252 . S
C146 O150 1.260 . S
C147 O154 1.240 . S
C147 O155 1.252 . S
C148 O151 1.252 . S
C148 O152 1.260 . S
O149 In143 2.266 . S
O149 C146 1.252 . S
O150 In143 2.326 . S
O150 C146 1.260 . S
O151 In143 2.266 . S
O151 C148 1.252 . S
O152 In143 2.326 . S
O152 C148 1.260 . S
C153 O144 1.240 . S
C153 O145 1.252 . S
O154 In143 2.294 . S
O154 C147 1.240 . S
O155 In143 2.326 . S
O155 C147 1.252 . S
In156 O157 2.294 . S
In156 O158 2.326 . S
In156 O162 2.266 . S
In156 O163 2.326 . S
In156 O164 2.266 . S
In156 O165 2.326 . S
In156 O167 2.294 . S
In156 O168 2.326 . S
O157 In156 2.294 . S
O157 C166 1.240 . S
O158 In156 2.326 . S
O158 C166 1.252 . S
C159 O162 1.252 . S
C159 O163 1.260 . S
C160 O167 1.240 . S
C160 O168 1.252 . S
C161 O164 1.252 . S
C161 O165 1.260 . S
O162 In156 2.266 . S
O162 C159 1.252 . S
O163 In156 2.326 . S
O163 C159 1.260 . S
O164 In156 2.266 . S
O164 C161 1.252 . S
O165 In156 2.326 . S
O165 C161 1.260 . S
C166 O157 1.240 . S
C166 O158 1.252 . S
O167 In156 2.294 . S
O167 C160 1.240 . S
O168 In156 2.326 . S
O168 C160 1.252 . S
In169 O170 2.294 . S
In169 O171 2.326 . S
In169 O175 2.266 . S
In169 O176 2.326 . S
In169 O177 2.266 . S
In169 O178 2.326 . S
In169 O180 2.294 . S
In169 O181 2.326 . S
O170 In169 2.294 . S
O170 C179 1.240 . S
O171 In169 2.326 . S
O171 C179 1.252 . S
C172 O175 1.252 . S
C172 O176 1.260 . S
C173 O180 1.240 . S
C173 O181 1.252 . S
C174 O177 1.252 . S
C174 O178 1.260 . S
O175 In169 2.266 . S
O175 C172 1.252 . S
O176 In169 2.326 . S
O176 C172 1.260 . S
O177 In169 2.266 . S
O177 C174 1.252 . S
O178 In169 2.326 . S
O178 C174 1.260 . S
C179 O170 1.240 . S
C179 O171 1.252 . S
O180 In169 2.294 . S
O180 C173 1.240 . S
O181 In169 2.326 . S
O181 C173 1.252 . S
In182 O183 2.294 . S
In182 O184 2.326 . S
In182 O188 2.266 . S
In182 O189 2.326 . S
In182 O190 2.266 . S
In182 O191 2.326 . S
In182 O193 2.294 . S
In182 O194 2.326 . S
O183 In182 2.294 . S
O183 C192 1.240 . S
O184 In182 2.326 . S
O184 C192 1.252 . S
C185 O188 1.252 . S
C185 O189 1.260 . S
C186 O193 1.240 . S
C186 O194 1.252 . S
C187 O190 1.252 . S
C187 O191 1.260 . S
O188 In182 2.266 . S
O188 C185 1.252 . S
O189 In182 2.326 . S
O189 C185 1.260 . S
O190 In182 2.266 . S
O190 C187 1.252 . S
O191 In182 2.326 . S
O191 C187 1.260 . S
C192 O183 1.240 . S
C192 O184 1.252 . S
O193 In182 2.294 . S
O193 C186 1.240 . S
O194 In182 2.326 . S
O194 C186 1.252 . S
In195 O196 2.294 . S
In195 O197 2.326 . S
In195 O201 2.266 . S
In195 O202 2.326 . S
In195 O203 2.266 . S
In195 O204 2.326 . S
In195 O206 2.294 . S
In195 O207 2.326 . S
O196 In195 2.294 . S
O196 C205 1.240 . S
O197 In195 2.326 . S
O197 C205 1.252 . S
C198 O201 1.252 . S
C198 O202 1.260 . S
C199 O206 1.240 . S
C199 O207 1.252 . S
C200 O203 1.252 . S
C200 O204 1.260 . S
O201 In195 2.266 . S
O201 C198 1.252 . S
O202 In195 2.326 . S
O202 C198 1.260 . S
O203 In195 2.266 . S
O203 C200 1.252 . S
O204 In195 2.326 . S
O204 C200 1.260 . S
C205 O196 1.240 . S
C205 O197 1.252 . S
O206 In195 2.294 . S
O206 C199 1.240 . S
O207 In195 2.326 . S
O207 C199 1.252 . S
In208 O209 2.294 . S
In208 O210 2.326 . S
In208 O214 2.266 . S
In208 O215 2.326 . S
In208 O216 2.266 . S
In208 O217 2.326 . S
In208 O219 2.294 . S
In208 O220 2.326 . S
O209 In208 2.294 . S
O209 C218 1.240 . S
O210 In208 2.326 . S
O210 C218 1.252 . S
C211 O214 1.252 . S
C211 O215 1.260 . S
C212 O219 1.240 . S
C212 O220 1.252 . S
C213 O216 1.252 . S
C213 O217 1.260 . S
O214 In208 2.266 . S
O214 C211 1.252 . S
O215 In208 2.326 . S
O215 C211 1.260 . S
O216 In208 2.266 . S
O216 C213 1.252 . S
O217 In208 2.326 . S
O217 C213 1.260 . S
C218 O209 1.240 . S
C218 O210 1.252 . S
O219 In208 2.294 . S
O219 C212 1.240 . S
O220 In208 2.326 . S
O220 C212 1.252 . S
In221 O222 2.294 . S
In221 O223 2.326 . S
In221 O227 2.266 . S
In221 O228 2.326 . S
In221 O229 2.266 . S
In221 O230 2.326 . S
In221 O232 2.294 . S
In221 O233 2.326 . S
O222 In221 2.294 . S
O222 C231 1.240 . S
O223 In221 2.326 . S
O223 C231 1.252 . S
C224 O227 1.252 . S
C224 O228 1.260 . S
C225 O232 1.240 . S
C225 O233 1.252 . S
C226 O229 1.252 . S
C226 O230 1.260 . S
O227 In221 2.266 . S
O227 C224 1.252 . S
O228 In221 2.326 . S
O228 C224 1.260 . S
O229 In221 2.266 . S
O229 C226 1.252 . S
O230 In221 2.326 . S
O230 C226 1.260 . S
C231 O222 1.240 . S
C231 O223 1.252 . S
O232 In221 2.294 . S
O232 C225 1.240 . S
O233 In221 2.326 . S
O233 C225 1.252 . S
In234 O235 2.294 . S
In234 O236 2.326 . S
In234 O240 2.266 . S
In234 O241 2.326 . S
In234 O242 2.266 . S
In234 O243 2.326 . S
In234 O245 2.294 . S
In234 O246 2.326 . S
O235 In234 2.294 . S
O235 C244 1.240 . S
O236 In234 2.326 . S
O236 C244 1.252 . S
C237 O240 1.252 . S
C237 O241 1.260 . S
C238 O245 1.240 . S
C238 O246 1.252 . S
C239 O242 1.252 . S
C239 O243 1.260 . S
O240 In234 2.266 . S
O240 C237 1.252 . S
O241 In234 2.326 . S
O241 C237 1.260 . S
O242 In234 2.266 . S
O242 C239 1.252 . S
O243 In234 2.326 . S
O243 C239 1.260 . S
C244 O235 1.240 . S
C244 O236 1.252 . S
O245 In234 2.294 . S
O245 C238 1.240 . S
O246 In234 2.326 . S
O246 C238 1.252 . S
In247 O248 2.294 . S
In247 O249 2.326 . S
In247 O253 2.266 . S
In247 O254 2.326 . S
In247 O255 2.266 . S
In247 O256 2.326 . S
In247 O258 2.294 . S
In247 O259 2.326 . S
O248 In247 2.294 . S
O248 C257 1.240 . S
O249 In247 2.326 . S
O249 C257 1.252 . S
C250 O253 1.252 . S
C250 O254 1.260 . S
C251 O258 1.240 . S
C251 O259 1.252 . S
C252 O255 1.252 . S
C252 O256 1.260 . S
O253 In247 2.266 . S
O253 C250 1.252 . S
O254 In247 2.326 . S
O254 C250 1.260 . S
O255 In247 2.266 . S
O255 C252 1.252 . S
O256 In247 2.326 . S
O256 C252 1.260 . S
C257 O248 1.240 . S
C257 O249 1.252 . S
O258 In247 2.294 . S
O258 C251 1.240 . S
O259 In247 2.326 . S
O259 C251 1.252 . S
In260 O261 2.294 . S
In260 O262 2.326 . S
In260 O266 2.266 . S
In260 O267 2.326 . S
In260 O268 2.266 . S
In260 O269 2.326 . S
In260 O271 2.294 . S
In260 O272 2.326 . S
O261 In260 2.294 . S
O261 C270 1.240 . S
O262 In260 2.326 . S
O262 C270 1.252 . S
C263 O266 1.252 . S
C263 O267 1.260 . S
C264 O271 1.240 . S
C264 O272 1.252 . S
C265 O268 1.252 . S
C265 O269 1.260 . S
O266 In260 2.266 . S
O266 C263 1.252 . S
O267 In260 2.326 . S
O267 C263 1.260 . S
O268 In260 2.266 . S
O268 C265 1.252 . S
O269 In260 2.326 . S
O269 C265 1.260 . S
C270 O261 1.240 . S
C270 O262 1.252 . S
O271 In260 2.294 . S
O271 C264 1.240 . S
O272 In260 2.326 . S
O272 C264 1.252 . S
In273 O274 2.294 . S
In273 O275 2.326 . S
In273 O279 2.266 . S
In273 O280 2.326 . S
In273 O281 2.266 . S
In273 O282 2.326 . S
In273 O284 2.294 . S
In273 O285 2.326 . S
O274 In273 2.294 . S
O274 C283 1.240 . S
O275 In273 2.326 . S
O275 C283 1.252 . S
C276 O279 1.252 . S
C276 O280 1.260 . S
C277 O284 1.240 . S
C277 O285 1.252 . S
C278 O281 1.252 . S
C278 O282 1.260 . S
O279 In273 2.266 . S
O279 C276 1.252 . S
O280 In273 2.326 . S
O280 C276 1.260 . S
O281 In273 2.266 . S
O281 C278 1.252 . S
O282 In273 2.326 . S
O282 C278 1.260 . S
C283 O274 1.240 . S
C283 O275 1.252 . S
O284 In273 2.294 . S
O284 C277 1.240 . S
O285 In273 2.326 . S
O285 C277 1.252 . S
In286 O287 2.294 . S
In286 O288 2.326 . S
In286 O292 2.266 . S
In286 O293 2.326 . S
In286 O294 2.266 . S
In286 O295 2.326 . S
In286 O297 2.294 . S
In286 O298 2.326 . S
O287 In286 2.294 . S
O287 C296 1.240 . S
O288 In286 2.326 . S
O288 C296 1.252 . S
C289 O292 1.252 . S
C289 O293 1.260 . S
C290 O297 1.240 . S
C290 O298 1.252 . S
C291 O294 1.252 . S
C291 O295 1.260 . S
O292 In286 2.266 . S
O292 C289 1.252 . S
O293 In286 2.326 . S
O293 C289 1.260 . S
O294 In286 2.266 . S
O294 C291 1.252 . S
O295 In286 2.326 . S
O295 C291 1.260 . S
C296 O287 1.240 . S
C296 O288 1.252 . S
O297 In286 2.294 . S
O297 C290 1.240 . S
O298 In286 2.326 . S
O298 C290 1.252 . S
In299 O300 2.294 . S
In299 O301 2.326 . S
In299 O305 2.266 . S
In299 O306 2.326 . S
In299 O307 2.266 . S
In299 O308 2.326 . S
In299 O310 2.294 . S
In299 O311 2.326 . S
O300 In299 2.294 . S
O300 C309 1.240 . S
O301 In299 2.326 . S
O301 C309 1.252 . S
C302 O305 1.252 . S
C302 O306 1.260 . S
C303 O310 1.240 . S
C303 O311 1.252 . S
C304 O307 1.252 . S
C304 O308 1.260 . S
O305 In299 2.266 . S
O305 C302 1.252 . S
O306 In299 2.326 . S
O306 C302 1.260 . S
O307 In299 2.266 . S
O307 C304 1.252 . S
O308 In299 2.326 . S
O308 C304 1.260 . S
C309 O300 1.240 . S
C309 O301 1.252 . S
O310 In299 2.294 . S
O310 C303 1.240 . S
O311 In299 2.326 . S
O311 C303 1.252 . S
In312 O313 2.294 . S
In312 O314 2.326 . S
In312 O318 2.266 . S
In312 O319 2.326 . S
In312 O320 2.266 . S
In312 O321 2.326 . S
In312 O323 2.294 . S
In312 O324 2.326 . S
O313 In312 2.294 . S
O313 C322 1.240 . S
O314 In312 2.326 . S
O314 C322 1.252 . S
C315 O318 1.252 . S
C315 O319 1.260 . S
C316 O323 1.240 . S
C316 O324 1.252 . S
C317 O320 1.252 . S
C317 O321 1.260 . S
O318 In312 2.266 . S
O318 C315 1.252 . S
O319 In312 2.326 . S
O319 C315 1.260 . S
O320 In312 2.266 . S
O320 C317 1.252 . S
O321 In312 2.326 . S
O321 C317 1.260 . S
C322 O313 1.240 . S
C322 O314 1.252 . S
O323 In312 2.294 . S
O323 C316 1.240 . S
O324 In312 2.326 . S
O324 C316 1.252 . S
In325 O326 2.294 . S
In325 O327 2.326 . S
In325 O331 2.266 . S
In325 O332 2.326 . S
In325 O333 2.266 . S
In325 O334 2.326 . S
In325 O336 2.294 . S
In325 O337 2.326 . S
O326 In325 2.294 . S
O326 C335 1.240 . S
O327 In325 2.326 . S
O327 C335 1.252 . S
C328 O331 1.252 . S
C328 O332 1.260 . S
C329 O336 1.240 . S
C329 O337 1.252 . S
C330 O333 1.252 . S
C330 O334 1.260 . S
O331 In325 2.266 . S
O331 C328 1.252 . S
O332 In325 2.326 . S
O332 C328 1.260 . S
O333 In325 2.266 . S
O333 C330 1.252 . S
O334 In325 2.326 . S
O334 C330 1.260 . S
C335 O326 1.240 . S
C335 O327 1.252 . S
O336 In325 2.294 . S
O336 C329 1.240 . S
O337 In325 2.326 . S
O337 C329 1.252 . S
In338 O339 2.294 . S
In338 O340 2.326 . S
In338 O344 2.266 . S
In338 O345 2.326 . S
In338 O346 2.266 . S
In338 O347 2.326 . S
In338 O349 2.294 . S
In338 O350 2.326 . S
O339 In338 2.294 . S
O339 C348 1.240 . S
O340 In338 2.326 . S
O340 C348 1.252 . S
C341 O344 1.252 . S
C341 O345 1.260 . S
C342 O349 1.240 . S
C342 O350 1.252 . S
C343 O346 1.252 . S
C343 O347 1.260 . S
O344 In338 2.266 . S
O344 C341 1.252 . S
O345 In338 2.326 . S
O345 C341 1.260 . S
O346 In338 2.266 . S
O346 C343 1.252 . S
O347 In338 2.326 . S
O347 C343 1.260 . S
C348 O339 1.240 . S
C348 O340 1.252 . S
O349 In338 2.294 . S
O349 C342 1.240 . S
O350 In338 2.326 . S
O350 C342 1.252 . S
In351 O352 2.294 . S
In351 O353 2.326 . S
In351 O357 2.266 . S
In351 O358 2.326 . S
In351 O359 2.266 . S
In351 O360 2.326 . S
In351 O362 2.294 . S
In351 O363 2.326 . S
O352 In351 2.294 . S
O352 C361 1.240 . S
O353 In351 2.326 . S
O353 C361 1.252 . S
C354 O357 1.252 . S
C354 O358 1.260 . S
C355 O362 1.240 . S
C355 O363 1.252 . S
C356 O359 1.252 . S
C356 O360 1.260 . S
O357 In351 2.266 . S
O357 C354 1.252 . S
O358 In351 2.326 . S
O358 C354 1.260 . S
O359 In351 2.266 . S
O359 C356 1.252 . S
O360 In351 2.326 . S
O360 C356 1.260 . S
C361 O352 1.240 . S
C361 O353 1.252 . S
O362 In351 2.294 . S
O362 C355 1.240 . S
O363 In351 2.326 . S
O363 C355 1.252 . S
In364 O365 2.294 . S
In364 O366 2.326 . S
In364 O370 2.266 . S
In364 O371 2.326 . S
In364 O372 2.266 . S
In364 O373 2.326 . S
In364 O375 2.294 . S
In364 O376 2.326 . S
O365 In364 2.294 . S
O365 C374 1.240 . S
O366 In364 2.326 . S
O366 C374 1.252 . S
C367 O370 1.252 . S
C367 O371 1.260 . S
C368 O375 1.240 . S
C368 O376 1.252 . S
C369 O372 1.252 . S
C369 O373 1.260 . S
O370 In364 2.266 . S
O370 C367 1.252 . S
O371 In364 2.326 . S
O371 C367 1.260 . S
O372 In364 2.266 . S
O372 C369 1.252 . S
O373 In364 2.326 . S
O373 C369 1.260 . S
C374 O365 1.240 . S
C374 O366 1.252 . S
O375 In364 2.294 . S
O375 C368 1.240 . S
O376 In364 2.326 . S
O376 C368 1.252 . S
In377 O378 2.294 . S
In377 O379 2.326 . S
In377 O383 2.266 . S
In377 O384 2.326 . S
In377 O385 2.266 . S
In377 O386 2.326 . S
In377 O388 2.294 . S
In377 O389 2.326 . S
O378 In377 2.294 . S
O378 C387 1.240 . S
O379 In377 2.326 . S
O379 C387 1.252 . S
C380 O383 1.252 . S
C380 O384 1.260 . S
C381 O388 1.240 . S
C381 O389 1.252 . S
C382 O385 1.252 . S
C382 O386 1.260 . S
O383 In377 2.266 . S
O383 C380 1.252 . S
O384 In377 2.326 . S
O384 C380 1.260 . S
O385 In377 2.266 . S
O385 C382 1.252 . S
O386 In377 2.326 . S
O386 C382 1.260 . S
C387 O378 1.240 . S
C387 O379 1.252 . S
O388 In377 2.294 . S
O388 C381 1.240 . S
O389 In377 2.326 . S
O389 C381 1.252 . S
In390 O391 2.294 . S
In390 O392 2.326 . S
In390 O396 2.266 . S
In390 O397 2.326 . S
In390 O398 2.266 . S
In390 O399 2.326 . S
In390 O401 2.294 . S
In390 O402 2.326 . S
O391 In390 2.294 . S
O391 C400 1.240 . S
O392 In390 2.326 . S
O392 C400 1.252 . S
C393 O396 1.252 . S
C393 O397 1.260 . S
C394 O401 1.240 . S
C394 O402 1.252 . S
C395 O398 1.252 . S
C395 O399 1.260 . S
O396 In390 2.266 . S
O396 C393 1.252 . S
O397 In390 2.326 . S
O397 C393 1.260 . S
O398 In390 2.266 . S
O398 C395 1.252 . S
O399 In390 2.326 . S
O399 C395 1.260 . S
C400 O391 1.240 . S
C400 O392 1.252 . S
O401 In390 2.294 . S
O401 C394 1.240 . S
O402 In390 2.326 . S
O402 C394 1.252 . S
In403 O404 2.294 . S
In403 O405 2.326 . S
In403 O409 2.266 . S
In403 O410 2.326 . S
In403 O411 2.266 . S
In403 O412 2.326 . S
In403 O414 2.294 . S
In403 O415 2.326 . S
O404 In403 2.294 . S
O404 C413 1.240 . S
O405 In403 2.326 . S
O405 C413 1.252 . S
C406 O409 1.252 . S
C406 O410 1.260 . S
C407 O414 1.240 . S
C407 O415 1.252 . S
C408 O411 1.252 . S
C408 O412 1.260 . S
O409 In403 2.266 . S
O409 C406 1.252 . S
O410 In403 2.326 . S
O410 C406 1.260 . S
O411 In403 2.266 . S
O411 C408 1.252 . S
O412 In403 2.326 . S
O412 C408 1.260 . S
C413 O404 1.240 . S
C413 O405 1.252 . S
O414 In403 2.294 . S
O414 C407 1.240 . S
O415 In403 2.326 . S
O415 C407 1.252 . S
C416 C417 1.369 . S
C416 C418 1.419 . S
C416 H420 0.930 . S
C417 C416 1.369 . S
C417 C426 1.429 . S
C418 C416 1.419 . S
C418 C419 1.363 . S
C418 H421 0.929 . S
C419 C418 1.363 . S
C419 C425 1.428 . S
H420 C416 0.930 . S
H421 C418 0.929 . S
S422 N423 1.613 . S
S422 N424 1.610 . S
N423 S422 1.613 . S
N423 C426 1.350 . S
N424 S422 1.610 . S
N424 C425 1.351 . S
C425 C419 1.428 . S
C425 N424 1.351 . S
C425 C426 1.434 . S
C426 C417 1.429 . S
C426 N423 1.350 . S
C426 C425 1.434 . S
C427 C428 1.369 . S
C427 C429 1.419 . S
C427 H431 0.930 . S
C428 C427 1.369 . S
C428 C437 1.429 . S
C429 C427 1.419 . S
C429 C430 1.363 . S
C429 H432 0.929 . S
C430 C429 1.363 . S
C430 C436 1.428 . S
H431 C427 0.930 . S
H432 C429 0.929 . S
S433 N434 1.613 . S
S433 N435 1.610 . S
N434 S433 1.613 . S
N434 C437 1.350 . S
N435 S433 1.610 . S
N435 C436 1.351 . S
C436 C430 1.428 . S
C436 N435 1.351 . S
C436 C437 1.434 . S
C437 C428 1.429 . S
C437 N434 1.350 . S
C437 C436 1.434 . S
C438 C439 1.369 . S
C438 C440 1.419 . S
C438 H442 0.930 . S
C439 C438 1.369 . S
C439 C448 1.429 . S
C440 C438 1.419 . S
C440 C441 1.363 . S
C440 H443 0.929 . S
C441 C440 1.363 . S
C441 C447 1.428 . S
H442 C438 0.930 . S
H443 C440 0.929 . S
S444 N445 1.613 . S
S444 N446 1.610 . S
N445 S444 1.613 . S
N445 C448 1.350 . S
N446 S444 1.610 . S
N446 C447 1.351 . S
C447 C441 1.428 . S
C447 N446 1.351 . S
C447 C448 1.434 . S
C448 C439 1.429 . S
C448 N445 1.350 . S
C448 C447 1.434 . S
C449 C450 1.369 . S
C449 C451 1.419 . S
C449 H453 0.930 . S
C450 C449 1.369 . S
C450 C459 1.429 . S
C451 C449 1.419 . S
C451 C452 1.363 . S
C451 H454 0.929 . S
C452 C451 1.363 . S
C452 C458 1.428 . S
H453 C449 0.930 . S
H454 C451 0.929 . S
S455 N456 1.613 . S
S455 N457 1.610 . S
N456 S455 1.613 . S
N456 C459 1.350 . S
N457 S455 1.610 . S
N457 C458 1.351 . S
C458 C452 1.428 . S
C458 N457 1.351 . S
C458 C459 1.434 . S
C459 C450 1.429 . S
C459 N456 1.350 . S
C459 C458 1.434 . S
C460 C461 1.369 . S
C460 C462 1.419 . S
C460 H464 0.930 . S
C461 C460 1.369 . S
C461 C470 1.429 . S
C462 C460 1.419 . S
C462 C463 1.363 . S
C462 H465 0.929 . S
C463 C462 1.363 . S
C463 C469 1.428 . S
H464 C460 0.930 . S
H465 C462 0.929 . S
S466 N467 1.613 . S
S466 N468 1.610 . S
N467 S466 1.613 . S
N467 C470 1.350 . S
N468 S466 1.610 . S
N468 C469 1.351 . S
C469 C463 1.428 . S
C469 N468 1.351 . S
C469 C470 1.434 . S
C470 C461 1.429 . S
C470 N467 1.350 . S
C470 C469 1.434 . S
C471 C472 1.369 . S
C471 C473 1.419 . S
C471 H475 0.930 . S
C472 C471 1.369 . S
C472 C481 1.429 . S
C473 C471 1.419 . S
C473 C474 1.363 . S
C473 H476 0.929 . S
C474 C473 1.363 . S
C474 C480 1.428 . S
H475 C471 0.930 . S
H476 C473 0.929 . S
S477 N478 1.613 . S
S477 N479 1.610 . S
N478 S477 1.613 . S
N478 C481 1.350 . S
N479 S477 1.610 . S
N479 C480 1.351 . S
C480 C474 1.428 . S
C480 N479 1.351 . S
C480 C481 1.434 . S
C481 C472 1.429 . S
C481 N478 1.350 . S
C481 C480 1.434 . S
C482 C483 1.369 . S
C482 C484 1.419 . S
C482 H486 0.930 . S
C483 C482 1.369 . S
C483 C492 1.429 . S
C484 C482 1.419 . S
C484 C485 1.363 . S
C484 H487 0.929 . S
C485 C484 1.363 . S
C485 C491 1.428 . S
H486 C482 0.930 . S
H487 C484 0.929 . S
S488 N489 1.613 . S
S488 N490 1.610 . S
N489 S488 1.613 . S
N489 C492 1.350 . S
N490 S488 1.610 . S
N490 C491 1.351 . S
C491 C485 1.428 . S
C491 N490 1.351 . S
C491 C492 1.434 . S
C492 C483 1.429 . S
C492 N489 1.350 . S
C492 C491 1.434 . S
C493 C494 1.369 . S
C493 C495 1.419 . S
C493 H497 0.930 . S
C494 C493 1.369 . S
C494 C503 1.429 . S
C495 C493 1.419 . S
C495 C496 1.363 . S
C495 H498 0.929 . S
C496 C495 1.363 . S
C496 C502 1.428 . S
H497 C493 0.930 . S
H498 C495 0.929 . S
S499 N500 1.613 . S
S499 N501 1.610 . S
N500 S499 1.613 . S
N500 C503 1.350 . S
N501 S499 1.610 . S
N501 C502 1.351 . S
C502 C496 1.428 . S
C502 N501 1.351 . S
C502 C503 1.434 . S
C503 C494 1.429 . S
C503 N500 1.350 . S
C503 C502 1.434 . S
C504 C505 1.369 . S
C504 C506 1.419 . S
C504 H508 0.930 . S
C505 C504 1.369 . S
C505 C514 1.429 . S
C506 C504 1.419 . S
C506 C507 1.363 . S
C506 H509 0.929 . S
C507 C506 1.363 . S
C507 C513 1.428 . S
H508 C504 0.930 . S
H509 C506 0.929 . S
S510 N511 1.613 . S
S510 N512 1.610 . S
N511 S510 1.613 . S
N511 C514 1.350 . S
N512 S510 1.610 . S
N512 C513 1.351 . S
C513 C507 1.428 . S
C513 N512 1.351 . S
C513 C514 1.434 . S
C514 C505 1.429 . S
C514 N511 1.350 . S
C514 C513 1.434 . S
C515 C516 1.369 . S
C515 C517 1.419 . S
C515 H519 0.930 . S
C516 C515 1.369 . S
C516 C525 1.429 . S
C517 C515 1.419 . S
C517 C518 1.363 . S
C517 H520 0.929 . S
C518 C517 1.363 . S
C518 C524 1.428 . S
H519 C515 0.930 . S
H520 C517 0.929 . S
S521 N522 1.613 . S
S521 N523 1.610 . S
N522 S521 1.613 . S
N522 C525 1.350 . S
N523 S521 1.610 . S
N523 C524 1.351 . S
C524 C518 1.428 . S
C524 N523 1.351 . S
C524 C525 1.434 . S
C525 C516 1.429 . S
C525 N522 1.350 . S
C525 C524 1.434 . S
C526 C527 1.369 . S
C526 C528 1.419 . S
C526 H530 0.930 . S
C527 C526 1.369 . S
C527 C536 1.429 . S
C528 C526 1.419 . S
C528 C529 1.363 . S
C528 H531 0.929 . S
C529 C528 1.363 . S
C529 C535 1.428 . S
H530 C526 0.930 . S
H531 C528 0.929 . S
S532 N533 1.613 . S
S532 N534 1.610 . S
N533 S532 1.613 . S
N533 C536 1.350 . S
N534 S532 1.610 . S
N534 C535 1.351 . S
C535 C529 1.428 . S
C535 N534 1.351 . S
C535 C536 1.434 . S
C536 C527 1.429 . S
C536 N533 1.350 . S
C536 C535 1.434 . S
C537 C538 1.369 . S
C537 C539 1.419 . S
C537 H541 0.930 . S
C538 C537 1.369 . S
C538 C547 1.429 . S
C539 C537 1.419 . S
C539 C540 1.363 . S
C539 H542 0.929 . S
C540 C539 1.363 . S
C540 C546 1.428 . S
H541 C537 0.930 . S
H542 C539 0.929 . S
S543 N544 1.613 . S
S543 N545 1.610 . S
N544 S543 1.613 . S
N544 C547 1.350 . S
N545 S543 1.610 . S
N545 C546 1.351 . S
C546 C540 1.428 . S
C546 N545 1.351 . S
C546 C547 1.434 . S
C547 C538 1.429 . S
C547 N544 1.350 . S
C547 C546 1.434 . S
C548 C549 1.369 . S
C548 C550 1.419 . S
C548 H552 0.930 . S
C549 C548 1.369 . S
C549 C558 1.429 . S
C550 C548 1.419 . S
C550 C551 1.363 . S
C550 H553 0.929 . S
C551 C550 1.363 . S
C551 C557 1.428 . S
H552 C548 0.930 . S
H553 C550 0.929 . S
S554 N555 1.613 . S
S554 N556 1.610 . S
N555 S554 1.613 . S
N555 C558 1.350 . S
N556 S554 1.610 . S
N556 C557 1.351 . S
C557 C551 1.428 . S
C557 N556 1.351 . S
C557 C558 1.434 . S
C558 C549 1.429 . S
C558 N555 1.350 . S
C558 C557 1.434 . S
C559 C560 1.369 . S
C559 C561 1.419 . S
C559 H563 0.930 . S
C560 C559 1.369 . S
C560 C569 1.429 . S
C561 C559 1.419 . S
C561 C562 1.363 . S
C561 H564 0.929 . S
C562 C561 1.363 . S
C562 C568 1.428 . S
H563 C559 0.930 . S
H564 C561 0.929 . S
S565 N566 1.613 . S
S565 N567 1.610 . S
N566 S565 1.613 . S
N566 C569 1.350 . S
N567 S565 1.610 . S
N567 C568 1.351 . S
C568 C562 1.428 . S
C568 N567 1.351 . S
C568 C569 1.434 . S
C569 C560 1.429 . S
C569 N566 1.350 . S
C569 C568 1.434 . S
C570 C571 1.369 . S
C570 C572 1.419 . S
C570 H574 0.930 . S
C571 C570 1.369 . S
C571 C580 1.429 . S
C572 C570 1.419 . S
C572 C573 1.363 . S
C572 H575 0.929 . S
C573 C572 1.363 . S
C573 C579 1.428 . S
H574 C570 0.930 . S
H575 C572 0.929 . S
S576 N577 1.613 . S
S576 N578 1.610 . S
N577 S576 1.613 . S
N577 C580 1.350 . S
N578 S576 1.610 . S
N578 C579 1.351 . S
C579 C573 1.428 . S
C579 N578 1.351 . S
C579 C580 1.434 . S
C580 C571 1.429 . S
C580 N577 1.350 . S
C580 C579 1.434 . S
C581 C582 1.369 . S
C581 C583 1.419 . S
C581 H585 0.930 . S
C582 C581 1.369 . S
C582 C591 1.429 . S
C583 C581 1.419 . S
C583 C584 1.363 . S
C583 H586 0.929 . S
C584 C583 1.363 . S
C584 C590 1.428 . S
H585 C581 0.930 . S
H586 C583 0.929 . S
S587 N588 1.613 . S
S587 N589 1.610 . S
N588 S587 1.613 . S
N588 C591 1.350 . S
N589 S587 1.610 . S
N589 C590 1.351 . S
C590 C584 1.428 . S
C590 N589 1.351 . S
C590 C591 1.434 . S
C591 C582 1.429 . S
C591 N588 1.350 . S
C591 C590 1.434 . S
C592 C593 1.369 . S
C592 C594 1.419 1_554 S
C592 H596 0.930 . S
C593 C592 1.369 . S
C593 C602 1.429 . S
C594 C592 1.419 1_556 S
C594 C595 1.363 . S
C594 H597 0.929 . S
C595 C594 1.363 . S
C595 C601 1.428 . S
H596 C592 0.930 . S
H597 C594 0.929 . S
S598 N599 1.615 1_556 S
S598 N600 1.608 . S
N599 S598 1.615 1_554 S
N599 C602 1.350 . S
N600 S598 1.608 . S
N600 C601 1.351 . S
C601 C595 1.428 . S
C601 N600 1.351 . S
C601 C602 1.434 1_556 S
C602 C593 1.429 . S
C602 N599 1.350 . S
C602 C601 1.434 1_554 S
C603 C604 1.369 . S
C603 C605 1.419 1_556 S
C603 H607 0.930 . S
C604 C603 1.369 . S
C604 C613 1.429 . S
C605 C603 1.419 1_554 S
C605 C606 1.363 . S
C605 H608 0.929 . S
C606 C605 1.363 . S
C606 C612 1.428 . S
H607 C603 0.930 . S
H608 C605 0.929 . S
S609 N610 1.615 1_554 S
S609 N611 1.608 . S
N610 S609 1.615 1_556 S
N610 C613 1.350 . S
N611 S609 1.608 . S
N611 C612 1.351 . S
C612 C606 1.428 . S
C612 N611 1.351 . S
C612 C613 1.434 1_554 S
C613 C604 1.429 . S
C613 N610 1.350 . S
C613 C612 1.434 1_556 S
C614 C615 1.369 . S
C614 C616 1.419 1_556 S
C614 H618 0.930 . S
C615 C614 1.369 . S
C615 C624 1.429 . S
C616 C614 1.419 1_554 S
C616 C617 1.363 . S
C616 H619 0.929 . S
C617 C616 1.363 . S
C617 C623 1.428 . S
H618 C614 0.930 . S
H619 C616 0.929 . S
S620 N621 1.615 1_554 S
S620 N622 1.608 . S
N621 S620 1.615 1_556 S
N621 C624 1.350 . S
N622 S620 1.608 . S
N622 C623 1.351 . S
C623 C617 1.428 . S
C623 N622 1.351 . S
C623 C624 1.434 1_554 S
C624 C615 1.429 . S
C624 N621 1.350 . S
C624 C623 1.434 1_556 S
C625 C626 1.369 . S
C625 C627 1.419 1_556 S
C625 H629 0.930 . S
C626 C625 1.369 . S
C626 C635 1.429 . S
C627 C625 1.419 1_554 S
C627 C628 1.363 . S
C627 H630 0.929 . S
C628 C627 1.363 . S
C628 C634 1.428 . S
H629 C625 0.930 . S
H630 C627 0.929 . S
S631 N632 1.615 1_554 S
S631 N633 1.608 . S
N632 S631 1.615 1_556 S
N632 C635 1.350 . S
N633 S631 1.608 . S
N633 C634 1.351 . S
C634 C628 1.428 . S
C634 N633 1.351 . S
C634 C635 1.434 1_554 S
C635 C626 1.429 . S
C635 N632 1.350 . S
C635 C634 1.434 1_556 S
C636 C637 1.369 . S
C636 C638 1.419 . S
C636 H640 0.930 . S
C637 C636 1.369 . S
C637 C646 1.429 . S
C638 C636 1.419 . S
C638 C639 1.363 . S
C638 H641 0.929 . S
C639 C638 1.363 . S
C639 C645 1.428 . S
H640 C636 0.930 . S
H641 C638 0.929 . S
S642 N643 1.613 . S
S642 N644 1.610 . S
N643 S642 1.613 . S
N643 C646 1.350 . S
N644 S642 1.610 . S
N644 C645 1.351 . S
C645 C639 1.428 . S
C645 N644 1.351 . S
C645 C646 1.434 . S
C646 C637 1.429 . S
C646 N643 1.350 . S
C646 C645 1.434 . S
C647 C648 1.369 . S
C647 C649 1.419 . S
C647 H651 0.930 . S
C648 C647 1.369 . S
C648 C657 1.429 . S
C649 C647 1.419 . S
C649 C650 1.363 . S
C649 H652 0.929 . S
C650 C649 1.363 . S
C650 C656 1.428 . S
H651 C647 0.930 . S
H652 C649 0.929 . S
S653 N654 1.613 . S
S653 N655 1.610 . S
N654 S653 1.613 . S
N654 C657 1.350 . S
N655 S653 1.610 . S
N655 C656 1.351 . S
C656 C650 1.428 . S
C656 N655 1.351 . S
C656 C657 1.434 . S
C657 C648 1.429 . S
C657 N654 1.350 . S
C657 C656 1.434 . S
C658 C659 1.369 . S
C658 C660 1.419 . S
C658 H662 0.930 . S
C659 C658 1.369 . S
C659 C668 1.429 . S
C660 C658 1.419 . S
C660 C661 1.363 . S
C660 H663 0.929 . S
C661 C660 1.363 . S
C661 C667 1.428 . S
H662 C658 0.930 . S
H663 C660 0.929 . S
S664 N665 1.613 . S
S664 N666 1.610 . S
N665 S664 1.613 . S
N665 C668 1.350 . S
N666 S664 1.610 . S
N666 C667 1.351 . S
C667 C661 1.428 . S
C667 N666 1.351 . S
C667 C668 1.434 . S
C668 C659 1.429 . S
C668 N665 1.350 . S
C668 C667 1.434 . S
C669 C670 1.369 . S
C669 C671 1.419 . S
C669 H673 0.930 . S
C670 C669 1.369 . S
C670 C679 1.429 . S
C671 C669 1.419 . S
C671 C672 1.363 . S
C671 H674 0.929 . S
C672 C671 1.363 . S
C672 C678 1.428 . S
H673 C669 0.930 . S
H674 C671 0.929 . S
S675 N676 1.613 . S
S675 N677 1.610 . S
N676 S675 1.613 . S
N676 C679 1.350 . S
N677 S675 1.610 . S
N677 C678 1.351 . S
C678 C672 1.428 . S
C678 N677 1.351 . S
C678 C679 1.434 . S
C679 C670 1.429 . S
C679 N676 1.350 . S
C679 C678 1.434 . S
C680 C681 1.369 . S
C680 C682 1.419 . S
C680 H684 0.930 . S
C681 C680 1.369 . S
C681 C690 1.429 . S
C682 C680 1.419 . S
C682 C683 1.363 . S
C682 H685 0.929 . S
C683 C682 1.363 . S
C683 C689 1.428 . S
H684 C680 0.930 . S
H685 C682 0.929 . S
S686 N687 1.613 . S
S686 N688 1.610 . S
N687 S686 1.613 . S
N687 C690 1.350 . S
N688 S686 1.610 . S
N688 C689 1.351 . S
C689 C683 1.428 . S
C689 N688 1.351 . S
C689 C690 1.434 . S
C690 C681 1.429 . S
C690 N687 1.350 . S
C690 C689 1.434 . S
C691 C692 1.369 . S
C691 C693 1.419 . S
C691 H695 0.930 . S
C692 C691 1.369 . S
C692 C701 1.429 . S
C693 C691 1.419 . S
C693 C694 1.363 . S
C693 H696 0.929 . S
C694 C693 1.363 . S
C694 C700 1.428 . S
H695 C691 0.930 . S
H696 C693 0.929 . S
S697 N698 1.613 . S
S697 N699 1.610 . S
N698 S697 1.613 . S
N698 C701 1.350 . S
N699 S697 1.610 . S
N699 C700 1.351 . S
C700 C694 1.428 . S
C700 N699 1.351 . S
C700 C701 1.434 . S
C701 C692 1.429 . S
C701 N698 1.350 . S
C701 C700 1.434 . S
C702 C703 1.369 . S
C702 C704 1.419 . S
C702 H706 0.930 . S
C703 C702 1.369 . S
C703 C712 1.429 . S
C704 C702 1.419 . S
C704 C705 1.363 . S
C704 H707 0.929 . S
C705 C704 1.363 . S
C705 C711 1.428 . S
H706 C702 0.930 . S
H707 C704 0.929 . S
S708 N709 1.613 . S
S708 N710 1.610 . S
N709 S708 1.613 . S
N709 C712 1.350 . S
N710 S708 1.610 . S
N710 C711 1.351 . S
C711 C705 1.428 . S
C711 N710 1.351 . S
C711 C712 1.434 . S
C712 C703 1.429 . S
C712 N709 1.350 . S
C712 C711 1.434 . S
C713 C714 1.369 . S
C713 C715 1.419 . S
C713 H717 0.930 . S
C714 C713 1.369 . S
C714 C723 1.429 . S
C715 C713 1.419 . S
C715 C716 1.363 . S
C715 H718 0.929 . S
C716 C715 1.363 . S
C716 C722 1.428 . S
H717 C713 0.930 . S
H718 C715 0.929 . S
S719 N720 1.613 . S
S719 N721 1.610 . S
N720 S719 1.613 . S
N720 C723 1.350 . S
N721 S719 1.610 . S
N721 C722 1.351 . S
C722 C716 1.428 . S
C722 N721 1.351 . S
C722 C723 1.434 . S
C723 C714 1.429 . S
C723 N720 1.350 . S
C723 C722 1.434 . S
C724 C725 1.369 . S
C724 C726 1.419 1_556 S
C724 H728 0.930 . S
C725 C724 1.369 . S
C725 C734 1.429 . S
C726 C724 1.419 1_554 S
C726 C727 1.363 . S
C726 H729 0.929 . S
C727 C726 1.363 . S
C727 C733 1.428 . S
H728 C724 0.930 . S
H729 C726 0.929 . S
S730 N731 1.615 1_554 S
S730 N732 1.608 . S
N731 S730 1.615 1_556 S
N731 C734 1.350 . S
N732 S730 1.608 . S
N732 C733 1.351 . S
C733 C727 1.428 . S
C733 N732 1.351 . S
C733 C734 1.434 1_554 S
C734 C725 1.429 . S
C734 N731 1.350 . S
C734 C733 1.434 1_556 S
C735 C736 1.369 . S
C735 C737 1.419 1_554 S
C735 H739 0.930 . S
C736 C735 1.369 . S
C736 C745 1.429 . S
C737 C735 1.419 1_556 S
C737 C738 1.363 . S
C737 H740 0.929 . S
C738 C737 1.363 . S
C738 C744 1.428 . S
H739 C735 0.930 . S
H740 C737 0.929 . S
S741 N742 1.615 1_556 S
S741 N743 1.608 . S
N742 S741 1.615 1_554 S
N742 C745 1.350 . S
N743 S741 1.608 . S
N743 C744 1.351 . S
C744 C738 1.428 . S
C744 N743 1.351 . S
C744 C745 1.434 1_556 S
C745 C736 1.429 . S
C745 N742 1.350 . S
C745 C744 1.434 1_554 S
C746 C747 1.369 . S
C746 C748 1.419 1_554 S
C746 H750 0.930 . S
C747 C746 1.369 . S
C747 C756 1.429 . S
C748 C746 1.419 1_556 S
C748 C749 1.363 . S
C748 H751 0.929 . S
C749 C748 1.363 . S
C749 C755 1.428 . S
H750 C746 0.930 . S
H751 C748 0.929 . S
S752 N753 1.615 1_556 S
S752 N754 1.608 . S
N753 S752 1.615 1_554 S
N753 C756 1.350 . S
N754 S752 1.608 . S
N754 C755 1.351 . S
C755 C749 1.428 . S
C755 N754 1.351 . S
C755 C756 1.434 1_556 S
C756 C747 1.429 . S
C756 N753 1.350 . S
C756 C755 1.434 1_554 S
C757 C758 1.369 . S
C757 C759 1.419 1_556 S
C757 H761 0.930 . S
C758 C757 1.369 . S
C758 C767 1.429 . S
C759 C757 1.419 1_554 S
C759 C760 1.363 . S
C759 H762 0.929 . S
C760 C759 1.363 . S
C760 C766 1.428 . S
H761 C757 0.930 . S
H762 C759 0.929 . S
S763 N764 1.615 1_554 S
S763 N765 1.608 . S
N764 S763 1.615 1_556 S
N764 C767 1.350 . S
N765 S763 1.608 . S
N765 C766 1.351 . S
C766 C760 1.428 . S
C766 N765 1.351 . S
C766 C767 1.434 1_554 S
C767 C758 1.429 . S
C767 N764 1.350 . S
C767 C766 1.434 1_556 S
C768 C769 1.369 1_565 S
C768 C770 1.419 . S
C768 H772 0.930 . S
C769 C768 1.369 1_545 S
C769 C778 1.429 . S
C770 C768 1.419 . S
C770 C771 1.363 . S
C770 H773 0.929 . S
C771 C770 1.363 . S
C771 C777 1.428 1_565 S
H772 C768 0.930 . S
H773 C770 0.929 . S
S774 N775 1.613 . S
S774 N776 1.610 . S
N775 S774 1.613 . S
N775 C778 1.350 . S
N776 S774 1.610 . S
N776 C777 1.351 . S
C777 C771 1.428 1_545 S
C777 N776 1.351 . S
C777 C778 1.434 . S
C778 C769 1.429 . S
C778 N775 1.350 . S
C778 C777 1.434 . S
C779 C780 1.369 1_455 S
C779 C781 1.419 . S
C779 H783 0.930 . S
C780 C779 1.369 1_655 S
C780 C789 1.429 . S
C781 C779 1.419 . S
C781 C782 1.363 . S
C781 H784 0.929 . S
C782 C781 1.363 . S
C782 C788 1.428 1_455 S
H783 C779 0.930 . S
H784 C781 0.929 . S
S785 N786 1.613 . S
S785 N787 1.610 . S
N786 S785 1.613 . S
N786 C789 1.350 . S
N787 S785 1.610 . S
N787 C788 1.351 . S
C788 C782 1.428 1_655 S
C788 N787 1.351 . S
C788 C789 1.434 . S
C789 C780 1.429 . S
C789 N786 1.350 . S
C789 C788 1.434 . S
C790 C791 1.369 . S
C790 C792 1.419 . S
C790 H794 0.930 . S
C791 C790 1.369 . S
C791 C800 1.429 1_545 S
C792 C790 1.419 . S
C792 C793 1.363 1_545 S
C792 H795 0.929 . S
C793 C792 1.363 1_565 S
C793 C799 1.428 . S
H794 C790 0.930 . S
H795 C792 0.929 . S
S796 N797 1.613 . S
S796 N798 1.610 . S
N797 S796 1.613 . S
N797 C800 1.350 . S
N798 S796 1.610 . S
N798 C799 1.351 . S
C799 C793 1.428 . S
C799 N798 1.351 . S
C799 C800 1.434 . S
C800 C791 1.429 1_565 S
C800 N797 1.350 . S
C800 C799 1.434 . S
C801 C802 1.369 . S
C801 C803 1.419 1_455 S
C801 H805 0.930 . S
C802 C801 1.369 . S
C802 C811 1.429 . S
C803 C801 1.419 1_655 S
C803 C804 1.363 . S
C803 H806 0.929 . S
C804 C803 1.363 . S
C804 C810 1.428 . S
H805 C801 0.930 . S
H806 C803 0.929 . S
S807 N808 1.613 . S
S807 N809 1.610 1_455 S
N808 S807 1.613 . S
N808 C811 1.350 . S
N809 S807 1.610 1_655 S
N809 C810 1.351 . S
C810 C804 1.428 . S
C810 N809 1.351 . S
C810 C811 1.434 1_655 S
C811 C802 1.429 . S
C811 N808 1.350 . S
C811 C810 1.434 1_455 S
C812 C813 1.369 1_545 S
C812 C814 1.419 . S
C812 H816 0.930 . S
C813 C812 1.369 1_565 S
C813 C822 1.429 . S
C814 C812 1.419 . S
C814 C815 1.363 . S
C814 H817 0.929 . S
C815 C814 1.363 . S
C815 C821 1.428 1_545 S
H816 C812 0.930 . S
H817 C814 0.929 . S
S818 N819 1.613 . S
S818 N820 1.610 . S
N819 S818 1.613 . S
N819 C822 1.350 . S
N820 S818 1.610 . S
N820 C821 1.351 . S
C821 C815 1.428 1_565 S
C821 N820 1.351 . S
C821 C822 1.434 . S
C822 C813 1.429 . S
C822 N819 1.350 . S
C822 C821 1.434 . S
C823 C824 1.369 . S
C823 C825 1.419 1_655 S
C823 H827 0.930 . S
C824 C823 1.369 . S
C824 C833 1.429 . S
C825 C823 1.419 1_455 S
C825 C826 1.363 . S
C825 H828 0.929 . S
C826 C825 1.363 . S
C826 C832 1.428 . S
H827 C823 0.930 . S
H828 C825 0.929 . S
S829 N830 1.613 1_455 S
S829 N831 1.610 . S
N830 S829 1.613 1_655 S
N830 C833 1.350 . S
N831 S829 1.610 . S
N831 C832 1.351 . S
C832 C826 1.428 . S
C832 N831 1.351 . S
C832 C833 1.434 1_455 S
C833 C824 1.429 . S
C833 N830 1.350 . S
C833 C832 1.434 1_655 S
C834 C835 1.369 . S
C834 C836 1.419 . S
C834 H838 0.930 . S
C835 C834 1.369 . S
C835 C844 1.429 1_565 S
C836 C834 1.419 . S
C836 C837 1.363 1_565 S
C836 H839 0.929 . S
C837 C836 1.363 1_545 S
C837 C843 1.428 . S
H838 C834 0.930 . S
H839 C836 0.929 . S
S840 N841 1.613 . S
S840 N842 1.610 . S
N841 S840 1.613 . S
N841 C844 1.350 . S
N842 S840 1.610 . S
N842 C843 1.351 . S
C843 C837 1.428 . S
C843 N842 1.351 . S
C843 C844 1.434 . S
C844 C835 1.429 1_545 S
C844 N841 1.350 . S
C844 C843 1.434 . S
C845 C846 1.369 1_455 S
C845 C847 1.419 . S
C845 H849 0.930 . S
C846 C845 1.369 1_655 S
C846 C855 1.429 . S
C847 C845 1.419 . S
C847 C848 1.363 . S
C847 H850 0.929 . S
C848 C847 1.363 . S
C848 C854 1.428 1_455 S
H849 C845 0.930 . S
H850 C847 0.929 . S
S851 N852 1.613 . S
S851 N853 1.610 . S
N852 S851 1.613 . S
N852 C855 1.350 . S
N853 S851 1.610 . S
N853 C854 1.351 . S
C854 C848 1.428 1_655 S
C854 N853 1.351 . S
C854 C855 1.434 . S
C855 C846 1.429 . S
C855 N852 1.350 . S
C855 C854 1.434 . S
C856 C857 1.369 . S
C856 C858 1.419 . S
C856 H860 0.930 . S
C857 C856 1.369 . S
C857 C866 1.429 . S
C858 C856 1.419 . S
C858 C859 1.363 . S
C858 H861 0.929 . S
C859 C858 1.363 . S
C859 C865 1.428 . S
H860 C856 0.930 . S
H861 C858 0.929 . S
S862 N863 1.613 . S
S862 N864 1.610 . S
N863 S862 1.613 . S
N863 C866 1.350 . S
N864 S862 1.610 . S
N864 C865 1.351 . S
C865 C859 1.428 . S
C865 N864 1.351 . S
C865 C866 1.434 . S
C866 C857 1.429 . S
C866 N863 1.350 . S
C866 C865 1.434 . S
C867 C868 1.369 . S
C867 C869 1.419 . S
C867 H871 0.930 . S
C868 C867 1.369 . S
C868 C877 1.429 . S
C869 C867 1.419 . S
C869 C870 1.363 . S
C869 H872 0.929 . S
C870 C869 1.363 . S
C870 C876 1.428 . S
H871 C867 0.930 . S
H872 C869 0.929 . S
S873 N874 1.613 . S
S873 N875 1.610 . S
N874 S873 1.613 . S
N874 C877 1.350 . S
N875 S873 1.610 . S
N875 C876 1.351 . S
C876 C870 1.428 . S
C876 N875 1.351 . S
C876 C877 1.434 . S
C877 C868 1.429 . S
C877 N874 1.350 . S
C877 C876 1.434 . S
C878 C879 1.369 . S
C878 C880 1.419 . S
C878 H882 0.930 . S
C879 C878 1.369 . S
C879 C888 1.429 . S
C880 C878 1.419 . S
C880 C881 1.363 . S
C880 H883 0.929 . S
C881 C880 1.363 . S
C881 C887 1.428 . S
H882 C878 0.930 . S
H883 C880 0.929 . S
S884 N885 1.613 . S
S884 N886 1.610 . S
N885 S884 1.613 . S
N885 C888 1.350 . S
N886 S884 1.610 . S
N886 C887 1.351 . S
C887 C881 1.428 . S
C887 N886 1.351 . S
C887 C888 1.434 . S
C888 C879 1.429 . S
C888 N885 1.350 . S
C888 C887 1.434 . S
C889 C890 1.369 . S
C889 C891 1.419 . S
C889 H893 0.930 . S
C890 C889 1.369 . S
C890 C899 1.429 . S
C891 C889 1.419 . S
C891 C892 1.363 . S
C891 H894 0.929 . S
C892 C891 1.363 . S
C892 C898 1.428 . S
H893 C889 0.930 . S
H894 C891 0.929 . S
S895 N896 1.613 . S
S895 N897 1.610 . S
N896 S895 1.613 . S
N896 C899 1.350 . S
N897 S895 1.610 . S
N897 C898 1.351 . S
C898 C892 1.428 . S
C898 N897 1.351 . S
C898 C899 1.434 . S
C899 C890 1.429 . S
C899 N896 1.350 . S
C899 C898 1.434 . S
C900 C901 1.369 . S
C900 C902 1.419 . S
C900 H904 0.930 . S
C901 C900 1.369 . S
C901 C910 1.429 . S
C902 C900 1.419 . S
C902 C903 1.363 . S
C902 H905 0.929 . S
C903 C902 1.363 . S
C903 C909 1.428 . S
H904 C900 0.930 . S
H905 C902 0.929 . S
S906 N907 1.613 . S
S906 N908 1.610 . S
N907 S906 1.613 . S
N907 C910 1.350 . S
N908 S906 1.610 . S
N908 C909 1.351 . S
C909 C903 1.428 . S
C909 N908 1.351 . S
C909 C910 1.434 . S
C910 C901 1.429 . S
C910 N907 1.350 . S
C910 C909 1.434 . S
C911 C912 1.369 . S
C911 C913 1.419 . S
C911 H915 0.930 . S
C912 C911 1.369 . S
C912 C921 1.429 . S
C913 C911 1.419 . S
C913 C914 1.363 . S
C913 H916 0.929 . S
C914 C913 1.363 . S
C914 C920 1.428 . S
H915 C911 0.930 . S
H916 C913 0.929 . S
S917 N918 1.613 . S
S917 N919 1.610 . S
N918 S917 1.613 . S
N918 C921 1.350 . S
N919 S917 1.610 . S
N919 C920 1.351 . S
C920 C914 1.428 . S
C920 N919 1.351 . S
C920 C921 1.434 . S
C921 C912 1.429 . S
C921 N918 1.350 . S
C921 C920 1.434 . S
C922 C923 1.369 . S
C922 C924 1.419 . S
C922 H926 0.930 . S
C923 C922 1.369 . S
C923 C932 1.429 . S
C924 C922 1.419 . S
C924 C925 1.363 . S
C924 H927 0.929 . S
C925 C924 1.363 . S
C925 C931 1.428 . S
H926 C922 0.930 . S
H927 C924 0.929 . S
S928 N929 1.613 . S
S928 N930 1.610 . S
N929 S928 1.613 . S
N929 C932 1.350 . S
N930 S928 1.610 . S
N930 C931 1.351 . S
C931 C925 1.428 . S
C931 N930 1.351 . S
C931 C932 1.434 . S
C932 C923 1.429 . S
C932 N929 1.350 . S
C932 C931 1.434 . S
C933 C934 1.369 . S
C933 C935 1.419 . S
C933 H937 0.930 . S
C934 C933 1.369 . S
C934 C943 1.429 . S
C935 C933 1.419 . S
C935 C936 1.363 . S
C935 H938 0.929 . S
C936 C935 1.363 . S
C936 C942 1.428 . S
H937 C933 0.930 . S
H938 C935 0.929 . S
S939 N940 1.613 . S
S939 N941 1.610 . S
N940 S939 1.613 . S
N940 C943 1.350 . S
N941 S939 1.610 . S
N941 C942 1.351 . S
C942 C936 1.428 . S
C942 N941 1.351 . S
C942 C943 1.434 . S
C943 C934 1.429 . S
C943 N940 1.350 . S
C943 C942 1.434 . S
C944 C945 1.369 . S
C944 C946 1.419 . S
C944 H948 0.930 . S
C945 C944 1.369 . S
C945 C954 1.429 . S
C946 C944 1.419 . S
C946 C947 1.363 . S
C946 H949 0.929 . S
C947 C946 1.363 . S
C947 C953 1.428 . S
H948 C944 0.930 . S
H949 C946 0.929 . S
S950 N951 1.613 . S
S950 N952 1.610 . S
N951 S950 1.613 . S
N951 C954 1.350 . S
N952 S950 1.610 . S
N952 C953 1.351 . S
C953 C947 1.428 . S
C953 N952 1.351 . S
C953 C954 1.434 . S
C954 C945 1.429 . S
C954 N951 1.350 . S
C954 C953 1.434 . S
C955 C956 1.369 . S
C955 C957 1.419 . S
C955 H959 0.930 . S
C956 C955 1.369 . S
C956 C965 1.429 . S
C957 C955 1.419 . S
C957 C958 1.363 . S
C957 H960 0.929 . S
C958 C957 1.363 . S
C958 C964 1.428 . S
H959 C955 0.930 . S
H960 C957 0.929 . S
S961 N962 1.613 . S
S961 N963 1.610 . S
N962 S961 1.613 . S
N962 C965 1.350 . S
N963 S961 1.610 . S
N963 C964 1.351 . S
C964 C958 1.428 . S
C964 N963 1.351 . S
C964 C965 1.434 . S
C965 C956 1.429 . S
C965 N962 1.350 . S
C965 C964 1.434 . S
C966 C967 1.369 . S
C966 C968 1.419 . S
C966 H970 0.930 . S
C967 C966 1.369 . S
C967 C976 1.429 . S
C968 C966 1.419 . S
C968 C969 1.363 . S
C968 H971 0.929 . S
C969 C968 1.363 . S
C969 C975 1.428 . S
H970 C966 0.930 . S
H971 C968 0.929 . S
S972 N973 1.613 . S
S972 N974 1.610 . S
N973 S972 1.613 . S
N973 C976 1.350 . S
N974 S972 1.610 . S
N974 C975 1.351 . S
C975 C969 1.428 . S
C975 N974 1.351 . S
C975 C976 1.434 . S
C976 C967 1.429 . S
C976 N973 1.350 . S
C976 C975 1.434 . S
C977 C978 1.369 . S
C977 C979 1.419 . S
C977 H981 0.930 . S
C978 C977 1.369 . S
C978 C987 1.429 . S
C979 C977 1.419 . S
C979 C980 1.363 . S
C979 H982 0.929 . S
C980 C979 1.363 . S
C980 C986 1.428 . S
H981 C977 0.930 . S
H982 C979 0.929 . S
S983 N984 1.613 . S
S983 N985 1.610 . S
N984 S983 1.613 . S
N984 C987 1.350 . S
N985 S983 1.610 . S
N985 C986 1.351 . S
C986 C980 1.428 . S
C986 N985 1.351 . S
C986 C987 1.434 . S
C987 C978 1.429 . S
C987 N984 1.350 . S
C987 C986 1.434 . S
C988 C989 1.369 . S
C988 C990 1.419 . S
C988 H992 0.930 . S
C989 C988 1.369 . S
C989 C998 1.429 . S
C990 C988 1.419 . S
C990 C991 1.363 . S
C990 H993 0.929 . S
C991 C990 1.363 . S
C991 C997 1.428 . S
H992 C988 0.930 . S
H993 C990 0.929 . S
S994 N995 1.613 . S
S994 N996 1.610 . S
N995 S994 1.613 . S
N995 C998 1.350 . S
N996 S994 1.610 . S
N996 C997 1.351 . S
C997 C991 1.428 . S
C997 N996 1.351 . S
C997 C998 1.434 . S
C998 C989 1.429 . S
C998 N995 1.350 . S
C998 C997 1.434 . S
C999 C1000 1.369 . S
C999 C1001 1.419 . S
C999 H1003 0.930 . S
C1000 C999 1.369 . S
C1000 C1009 1.429 . S
C1001 C999 1.419 . S
C1001 C1002 1.363 . S
C1001 H1004 0.929 . S
C1002 C1001 1.363 . S
C1002 C1008 1.428 . S
H1003 C999 0.930 . S
H1004 C1001 0.929 . S
S1005 N1006 1.613 . S
S1005 N1007 1.610 . S
N1006 S1005 1.613 . S
N1006 C1009 1.350 . S
N1007 S1005 1.610 . S
N1007 C1008 1.351 . S
C1008 C1002 1.428 . S
C1008 N1007 1.351 . S
C1008 C1009 1.434 . S
C1009 C1000 1.429 . S
C1009 N1006 1.350 . S
C1009 C1008 1.434 . S
C1010 C1011 1.369 . S
C1010 C1012 1.419 . S
C1010 H1014 0.930 . S
C1011 C1010 1.369 . S
C1011 C1020 1.429 . S
C1012 C1010 1.419 . S
C1012 C1013 1.363 . S
C1012 H1015 0.929 . S
C1013 C1012 1.363 . S
C1013 C1019 1.428 . S
H1014 C1010 0.930 . S
H1015 C1012 0.929 . S
S1016 N1017 1.613 . S
S1016 N1018 1.610 . S
N1017 S1016 1.613 . S
N1017 C1020 1.350 . S
N1018 S1016 1.610 . S
N1018 C1019 1.351 . S
C1019 C1013 1.428 . S
C1019 N1018 1.351 . S
C1019 C1020 1.434 . S
C1020 C1011 1.429 . S
C1020 N1017 1.350 . S
C1020 C1019 1.434 . S
C1021 C1022 1.369 . S
C1021 C1023 1.419 . S
C1021 H1025 0.930 . S
C1022 C1021 1.369 . S
C1022 C1031 1.429 . S
C1023 C1021 1.419 . S
C1023 C1024 1.363 . S
C1023 H1026 0.929 . S
C1024 C1023 1.363 . S
C1024 C1030 1.428 . S
H1025 C1021 0.930 . S
H1026 C1023 0.929 . S
S1027 N1028 1.613 . S
S1027 N1029 1.610 . S
N1028 S1027 1.613 . S
N1028 C1031 1.350 . S
N1029 S1027 1.610 . S
N1029 C1030 1.351 . S
C1030 C1024 1.428 . S
C1030 N1029 1.351 . S
C1030 C1031 1.434 . S
C1031 C1022 1.429 . S
C1031 N1028 1.350 . S
C1031 C1030 1.434 . S
C1032 C1033 1.369 . S
C1032 C1034 1.419 . S
C1032 H1036 0.930 . S
C1033 C1032 1.369 . S
C1033 C1042 1.429 . S
C1034 C1032 1.419 . S
C1034 C1035 1.363 . S
C1034 H1037 0.929 . S
C1035 C1034 1.363 . S
C1035 C1041 1.428 . S
H1036 C1032 0.930 . S
H1037 C1034 0.929 . S
S1038 N1039 1.613 . S
S1038 N1040 1.610 . S
N1039 S1038 1.613 . S
N1039 C1042 1.350 . S
N1040 S1038 1.610 . S
N1040 C1041 1.351 . S
C1041 C1035 1.428 . S
C1041 N1040 1.351 . S
C1041 C1042 1.434 . S
C1042 C1033 1.429 . S
C1042 N1039 1.350 . S
C1042 C1041 1.434 . S
C1043 C1044 1.369 . S
C1043 C1045 1.419 . S
C1043 H1047 0.930 . S
C1044 C1043 1.369 . S
C1044 C1053 1.429 . S
C1045 C1043 1.419 . S
C1045 C1046 1.363 . S
C1045 H1048 0.929 . S
C1046 C1045 1.363 . S
C1046 C1052 1.428 . S
H1047 C1043 0.930 . S
H1048 C1045 0.929 . S
S1049 N1050 1.613 . S
S1049 N1051 1.610 . S
N1050 S1049 1.613 . S
N1050 C1053 1.350 . S
N1051 S1049 1.610 . S
N1051 C1052 1.351 . S
C1052 C1046 1.428 . S
C1052 N1051 1.351 . S
C1052 C1053 1.434 . S
C1053 C1044 1.429 . S
C1053 N1050 1.350 . S
C1053 C1052 1.434 . S
C1054 C1055 1.369 . S
C1054 C1056 1.419 . S
C1054 H1058 0.930 . S
C1055 C1054 1.369 . S
C1055 C1064 1.429 . S
C1056 C1054 1.419 . S
C1056 C1057 1.363 . S
C1056 H1059 0.929 . S
C1057 C1056 1.363 . S
C1057 C1063 1.428 . S
H1058 C1054 0.930 . S
H1059 C1056 0.929 . S
S1060 N1061 1.613 . S
S1060 N1062 1.610 . S
N1061 S1060 1.613 . S
N1061 C1064 1.350 . S
N1062 S1060 1.610 . S
N1062 C1063 1.351 . S
C1063 C1057 1.428 . S
C1063 N1062 1.351 . S
C1063 C1064 1.434 . S
C1064 C1055 1.429 . S
C1064 N1061 1.350 . S
C1064 C1063 1.434 . S
C1065 C1066 1.369 . S
C1065 C1067 1.419 . S
C1065 H1069 0.930 . S
C1066 C1065 1.369 . S
C1066 C1075 1.429 . S
C1067 C1065 1.419 . S
C1067 C1068 1.363 . S
C1067 H1070 0.929 . S
C1068 C1067 1.363 . S
C1068 C1074 1.428 . S
H1069 C1065 0.930 . S
H1070 C1067 0.929 . S
S1071 N1072 1.613 . S
S1071 N1073 1.610 . S
N1072 S1071 1.613 . S
N1072 C1075 1.350 . S
N1073 S1071 1.610 . S
N1073 C1074 1.351 . S
C1074 C1068 1.428 . S
C1074 N1073 1.351 . S
C1074 C1075 1.434 . S
C1075 C1066 1.429 . S
C1075 N1072 1.350 . S
C1075 C1074 1.434 . S
C1076 C1077 1.369 . S
C1076 C1078 1.419 . S
C1076 H1080 0.930 . S
C1077 C1076 1.369 . S
C1077 C1086 1.429 . S
C1078 C1076 1.419 . S
C1078 C1079 1.363 . S
C1078 H1081 0.929 . S
C1079 C1078 1.363 . S
C1079 C1085 1.428 . S
H1080 C1076 0.930 . S
H1081 C1078 0.929 . S
S1082 N1083 1.613 . S
S1082 N1084 1.610 . S
N1083 S1082 1.613 . S
N1083 C1086 1.350 . S
N1084 S1082 1.610 . S
N1084 C1085 1.351 . S
C1085 C1079 1.428 . S
C1085 N1084 1.351 . S
C1085 C1086 1.434 . S
C1086 C1077 1.429 . S
C1086 N1083 1.350 . S
C1086 C1085 1.434 . S
C1087 C1088 1.369 . S
C1087 C1089 1.419 . S
C1087 H1091 0.930 . S
C1088 C1087 1.369 . S
C1088 C1097 1.429 . S
C1089 C1087 1.419 . S
C1089 C1090 1.363 . S
C1089 H1092 0.929 . S
C1090 C1089 1.363 . S
C1090 C1096 1.428 . S
H1091 C1087 0.930 . S
H1092 C1089 0.929 . S
S1093 N1094 1.613 . S
S1093 N1095 1.610 . S
N1094 S1093 1.613 . S
N1094 C1097 1.350 . S
N1095 S1093 1.610 . S
N1095 C1096 1.351 . S
C1096 C1090 1.428 . S
C1096 N1095 1.351 . S
C1096 C1097 1.434 . S
C1097 C1088 1.429 . S
C1097 N1094 1.350 . S
C1097 C1096 1.434 . S
C1098 C1099 1.369 . S
C1098 C1100 1.419 . S
C1098 H1102 0.930 . S
C1099 C1098 1.369 . S
C1099 C1108 1.429 . S
C1100 C1098 1.419 . S
C1100 C1101 1.363 . S
C1100 H1103 0.929 . S
C1101 C1100 1.363 . S
C1101 C1107 1.428 . S
H1102 C1098 0.930 . S
H1103 C1100 0.929 . S
S1104 N1105 1.613 . S
S1104 N1106 1.610 . S
N1105 S1104 1.613 . S
N1105 C1108 1.350 . S
N1106 S1104 1.610 . S
N1106 C1107 1.351 . S
C1107 C1101 1.428 . S
C1107 N1106 1.351 . S
C1107 C1108 1.434 . S
C1108 C1099 1.429 . S
C1108 N1105 1.350 . S
C1108 C1107 1.434 . S
C1109 C1110 1.369 . S
C1109 C1111 1.419 . S
C1109 H1113 0.930 . S
C1110 C1109 1.369 . S
C1110 C1119 1.429 . S
C1111 C1109 1.419 . S
C1111 C1112 1.363 . S
C1111 H1114 0.929 . S
C1112 C1111 1.363 . S
C1112 C1118 1.428 . S
H1113 C1109 0.930 . S
H1114 C1111 0.929 . S
S1115 N1116 1.613 . S
S1115 N1117 1.610 . S
N1116 S1115 1.613 . S
N1116 C1119 1.350 . S
N1117 S1115 1.610 . S
N1117 C1118 1.351 . S
C1118 C1112 1.428 . S
C1118 N1117 1.351 . S
C1118 C1119 1.434 . S
C1119 C1110 1.429 . S
C1119 N1116 1.350 . S
C1119 C1118 1.434 . S
C417 C382 1.644 . S
C419 C5 1.644 . S
C428 C18 1.644 . S
C430 C395 1.644 . S
C439 C408 1.645 . S
C441 C29 1.645 . S
C450 C367 1.644 . S
C452 C44 1.644 . S
C461 C57 1.646 . S
C463 C356 1.646 . S
C472 C317 1.645 . S
C474 C68 1.645 . S
C483 C83 1.645 . S
C485 C328 1.645 . S
C494 C343 1.646 . S
C496 C96 1.645 . S
C505 C109 1.644 . S
C507 C278 1.644 . S
C516 C120 1.646 . S
C518 C289 1.646 . S
C527 C304 1.645 . S
C529 C135 1.645 . S
C538 C148 1.646 . S
C540 C265 1.646 . S
C549 C250 1.646 . S
C551 C161 1.646 . S
C560 C213 1.646 . S
C562 C172 1.645 . S
C571 C187 1.645 . S
C573 C226 1.645 . S
C582 C200 1.646 . S
C584 C237 1.646 . S
C593 C3 1.412 . S
C595 C133 1.413 . S
C604 C146 1.412 . S
C606 C16 1.413 . S
C615 C107 1.415 . S
C617 C31 1.415 . S
C626 C122 1.415 . S
C628 C42 1.415 . S
C637 C55 1.413 . S
C639 C185 1.413 . S
C648 C198 1.414 . S
C650 C70 1.413 . S
C659 C159 1.415 . S
C661 C81 1.414 . S
C670 C174 1.413 . S
C672 C94 1.414 . S
C681 C211 1.412 . S
C683 C341 1.413 . S
C692 C354 1.414 . S
C694 C224 1.414 . S
C703 C315 1.414 . S
C705 C239 1.414 . S
C714 C252 1.415 . S
C716 C330 1.414 . S
C725 C263 1.412 . S
C727 C393 1.413 . S
C736 C406 1.414 . S
C738 C276 1.414 . S
C747 C369 1.413 . S
C749 C291 1.414 . S
C758 C302 1.413 . S
C760 C380 1.413 . S
C769 C4 1.643 . S
C771 C56 1.647 . S
C780 C17 1.643 . S
C782 C75 1.647 . S
C791 C82 1.649 . S
C793 C36 1.643 . S
C802 C43 1.645 . S
C804 C95 1.645 . S
C813 C108 1.644 . S
C815 C160 1.648 . S
C824 C179 1.644 . S
C826 C127 1.645 . S
C835 C186 1.646 . S
C837 C134 1.644 . S
C846 C147 1.643 . S
C848 C199 1.648 . S
C857 C212 1.647 . S
C859 C264 1.644 . S
C868 C277 1.645 . S
C870 C225 1.645 . S
C879 C244 1.648 . S
C881 C296 1.643 . S
C890 C303 1.646 . S
C892 C257 1.646 . S
C901 C374 1.649 . S
C903 C316 1.643 . S
C912 C335 1.644 . S
C914 C381 1.648 . S
C923 C342 1.647 . S
C925 C394 1.645 . S
C934 C355 1.648 . S
C936 C407 1.643 . S
C945 C10 1.453 . S
C947 C69 1.454 . S
C956 C23 1.454 . S
C958 C88 1.455 . S
C967 C101 1.453 . S
C969 C30 1.454 . S
C978 C62 1.454 . S
C980 C49 1.455 . S
C989 C173 1.456 . S
C991 C114 1.454 . S
C1000 C192 1.456 . S
C1002 C121 1.454 . S
C1011 C205 1.456 . S
C1013 C140 1.455 . S
C1022 C153 1.453 . S
C1024 C166 1.455 . S
C1033 C218 1.455 . S
C1035 C283 1.454 . S
C1044 C290 1.454 . S
C1046 C231 1.456 . S
C1055 C309 1.456 . S
C1057 C238 1.454 . S
C1066 C251 1.453 . S
C1068 C270 1.454 . S
C1077 C387 1.455 . S
C1079 C322 1.454 . S
C1088 C329 1.454 . S
C1090 C400 1.455 . S
C1099 C348 1.455 . S
C1101 C413 1.456 . S
C1110 C368 1.453 . S
C1112 C361 1.454 . S
