# Generated by pormake.
# Topology wfu, (7)-cn, num edge types: 1
# Building blocks:
#     Node 0, Type 0, BuildingBlock: HICVOG_clean_sbu_0, # of connection points: 7
#     Node 1, Type 0, BuildingBlock: HICVOG_clean_sbu_0, # of connection points: 7
#     Node 2, Type 0, BuildingBlock: HICVOG_clean_sbu_0, # of connection points: 7
#     Node 3, Type 0, BuildingBlock: HICVOG_clean_sbu_0, # of connection points: 7
#     Node 4, Type 0, BuildingBlock: HICVOG_clean_sbu_0, # of connection points: 7
#     Node 5, Type 0, BuildingBlock: HICVOG_clean_sbu_0, # of connection points: 7
#     Node 6, Type 0, BuildingBlock: HICVOG_clean_sbu_0, # of connection points: 7
#     Node 7, Type 0, BuildingBlock: HICVOG_clean_sbu_0, # of connection points: 7
#     Edge 8, Type (0, 0), BuildingBlock: UVAHIK_clean_linker_0, # of connection points: 2
#     Edge 9, Type (0, 0), BuildingBlock: UVAHIK_clean_linker_0, # of connection points: 2
#     Edge 10, Type (0, 0), BuildingBlock: UVAHIK_clean_linker_0, # of connection points: 2
#     Edge 11, Type (0, 0), BuildingBlock: UVAHIK_clean_linker_0, # of connection points: 2
#     Edge 12, Type (0, 0), BuildingBlock: UVAHIK_clean_linker_0, # of connection points: 2
#     Edge 13, Type (0, 0), BuildingBlock: UVAHIK_clean_linker_0, # of connection points: 2
#     Edge 14, Type (0, 0), BuildingBlock: UVAHIK_clean_linker_0, # of connection points: 2
#     Edge 15, Type (0, 0), BuildingBlock: UVAHIK_clean_linker_0, # of connection points: 2
#     Edge 16, Type (0, 0), BuildingBlock: UVAHIK_clean_linker_0, # of connection points: 2
#     Edge 17, Type (0, 0), BuildingBlock: UVAHIK_clean_linker_0, # of connection points: 2
#     Edge 18, Type (0, 0), BuildingBlock: UVAHIK_clean_linker_0, # of connection points: 2
#     Edge 19, Type (0, 0), BuildingBlock: UVAHIK_clean_linker_0, # of connection points: 2
#     Edge 20, Type (0, 0), BuildingBlock: UVAHIK_clean_linker_0, # of connection points: 2
#     Edge 21, Type (0, 0), BuildingBlock: UVAHIK_clean_linker_0, # of connection points: 2
#     Edge 22, Type (0, 0), BuildingBlock: UVAHIK_clean_linker_0, # of connection points: 2
#     Edge 23, Type (0, 0), BuildingBlock: UVAHIK_clean_linker_0, # of connection points: 2
#     Edge 24, Type (0, 0), BuildingBlock: UVAHIK_clean_linker_0, # of connection points: 2
#     Edge 25, Type (0, 0), BuildingBlock: UVAHIK_clean_linker_0, # of connection points: 2
#     Edge 26, Type (0, 0), BuildingBlock: UVAHIK_clean_linker_0, # of connection points: 2
#     Edge 27, Type (0, 0), BuildingBlock: UVAHIK_clean_linker_0, # of connection points: 2
#     Edge 28, Type (0, 0), BuildingBlock: UVAHIK_clean_linker_0, # of connection points: 2
#     Edge 29, Type (0, 0), BuildingBlock: UVAHIK_clean_linker_0, # of connection points: 2
#     Edge 30, Type (0, 0), BuildingBlock: UVAHIK_clean_linker_0, # of connection points: 2
#     Edge 31, Type (0, 0), BuildingBlock: UVAHIK_clean_linker_0, # of connection points: 2
#     Edge 32, Type (0, 0), BuildingBlock: UVAHIK_clean_linker_0, # of connection points: 2
#     Edge 33, Type (0, 0), BuildingBlock: UVAHIK_clean_linker_0, # of connection points: 2
#     Edge 34, Type (0, 0), BuildingBlock: UVAHIK_clean_linker_0, # of connection points: 2
#     Edge 35, Type (0, 0), BuildingBlock: UVAHIK_clean_linker_0, # of connection points: 2
# Relax obj value: 0.415
# Max RMSD: 0.287
# Mean RMSD: 0.287
data_MOF--net-wfu--node1-HICVOG_clean_sbu_0--edge1-UVAHIK_clean_linker_0
_symmetry_space_group_name_H-M    P1
_symmetry_Int_Tables_number       1
_symmetry_cell_setting            triclinic
loop_
_symmetry_equiv_pos_as_xyz
'x, y, z'
_cell_length_a     39.438821
_cell_length_b     39.516337
_cell_length_c     39.005349
_cell_angle_alpha  89.877398
_cell_angle_beta   89.9551
_cell_angle_gamma 90.000087
loop_
_atom_site_label
_atom_site_type_symbol
_atom_site_fract_x
_atom_site_fract_y
_atom_site_fract_z
_atom_type_partial_charge
Zn0 Zn 0.24542 0.36756 0.13774 0.0
C1 C 0.25432 0.37806 0.24031 0.0
N2 N 0.25281 0.34414 0.24103 0.0
C3 C 0.25088 0.33608 0.20763 0.0
N4 N 0.25175 0.36406 0.18737 0.0
N5 N 0.25414 0.39042 0.20821 0.0
C6 C 0.25005 0.48826 0.23971 0.0
O7 O 0.22149 0.48334 0.22314 0.0
O8 O 0.28132 0.34377 0.10916 0.0
Zn9 Zn 0.27482 0.43294 0.19632 0.0
N10 N 0.20122 0.34925 0.12727 0.0
C11 C 0.14627 0.33058 0.14419 0.0
C12 C 0.17824 0.34323 0.15256 0.0
C13 C 0.19284 0.34505 0.09382 0.0
N14 N 0.13798 0.32604 0.11073 0.0
C15 C 0.16029 0.33349 0.08519 0.0
O16 O 0.25701 0.45606 0.1545 0.0
C17 C 0.24763 0.44652 0.12495 0.0
O18 O 0.24418 0.41528 0.11782 0.0
H19 H 0.18465 0.34805 0.17903 0.0
H20 H 0.21132 0.35104 0.07418 0.0
C21 C 0.34329 0.42424 0.21411 0.0
C22 C 0.37657 0.41265 0.21003 0.0
C23 C 0.36365 0.39594 0.15317 0.0
C24 C 0.33056 0.40777 0.15728 0.0
N25 N 0.32109 0.42139 0.18776 0.0
N26 N 0.38588 0.39858 0.17962 0.0
H27 H 0.33489 0.43494 0.23818 0.0
C28 C 0.30932 0.33071 0.11841 0.0
O29 O 0.31737 0.32988 0.15099 0.0
O30 O 0.27482 0.46833 0.23425 0.0
H31 H 0.31235 0.40536 0.13674 0.0
H32 H 0.12798 0.32499 0.16409 0.0
H33 H 0.37156 0.38463 0.12923 0.0
Zn34 Zn 0.42143 0.73599 0.79441 0.0
C35 C 0.33065 0.78025 0.79828 0.0
N36 N 0.33631 0.78389 0.76451 0.0
C37 C 0.36896 0.77474 0.76139 0.0
N38 N 0.38269 0.76561 0.79157 0.0
N39 N 0.35852 0.76891 0.81497 0.0
C40 C 0.33949 0.70263 0.88531 0.0
O41 O 0.36533 0.69354 0.86618 0.0
O42 O 0.46032 0.7477 0.7617 0.0
Zn43 Zn 0.36407 0.76725 0.86444 0.0
N44 N 0.40446 0.69252 0.78049 0.0
C45 C 0.35801 0.65517 0.77152 0.0
C46 C 0.37123 0.68477 0.78549 0.0
C47 C 0.42501 0.67198 0.76196 0.0
N48 N 0.37854 0.63461 0.75296 0.0
C49 C 0.41185 0.64212 0.74779 0.0
O50 O 0.41113 0.75532 0.88179 0.0
C51 C 0.43895 0.74224 0.87187 0.0
O52 O 0.44367 0.73368 0.84084 0.0
H53 H 0.35486 0.70182 0.79939 0.0
H54 H 0.45101 0.67953 0.75748 0.0
C55 C 0.33837 0.81962 0.90903 0.0
C56 C 0.33382 0.85358 0.91928 0.0
C57 C 0.36233 0.87155 0.8686 0.0
C58 C 0.36737 0.83803 0.85916 0.0
N59 N 0.35527 0.81281 0.87947 0.0
N60 N 0.34596 0.87846 0.89834 0.0
H61 H 0.32894 0.79858 0.92389 0.0
C62 C 0.48467 0.76643 0.77166 0.0
O63 O 0.48214 0.7816 0.80149 0.0
O64 O 0.33253 0.73395 0.88806 0.0
H65 H 0.38091 0.83207 0.83582 0.0
H66 H 0.33158 0.64874 0.7751 0.0
H67 H 0.37169 0.89195 0.85267 0.0
Zn68 Zn 0.7416 0.58592 0.20327 0.0
C69 C 0.77535 0.68157 0.19689 0.0
N70 N 0.77509 0.67867 0.23117 0.0
C71 C 0.76868 0.64557 0.23581 0.0
N72 N 0.76466 0.62902 0.20597 0.0
N73 N 0.76856 0.65185 0.18132 0.0
C74 C 0.70703 0.67146 0.11239 0.0
O75 O 0.6977 0.65099 0.13723 0.0
O76 O 0.75772 0.54993 0.23728 0.0
Zn77 Zn 0.77112 0.64489 0.13239 0.0
N78 N 0.69583 0.59502 0.21729 0.0
C79 C 0.65234 0.63362 0.23332 0.0
C80 C 0.6833 0.62708 0.21733 0.0
C81 C 0.67845 0.56915 0.23196 0.0
N82 N 0.63523 0.60784 0.24858 0.0
C83 C 0.64747 0.57564 0.24819 0.0
O84 O 0.76079 0.59749 0.11584 0.0
C85 C 0.74994 0.56879 0.12585 0.0
O86 O 0.74214 0.56322 0.15699 0.0
H87 H 0.69777 0.64762 0.20631 0.0
H88 H 0.68936 0.54402 0.23209 0.0
C89 C 0.82673 0.66862 0.08993 0.0
C90 C 0.86133 0.67371 0.08253 0.0
C91 C 0.87566 0.65032 0.13672 0.0
C92 C 0.84146 0.64512 0.14379 0.0
N93 N 0.81769 0.65434 0.12034 0.0
N94 N 0.88479 0.66425 0.10628 0.0
H95 H 0.80721 0.67494 0.07152 0.0
C96 C 0.77764 0.52592 0.22908 0.0
O97 O 0.79318 0.52712 0.19931 0.0
O98 O 0.73851 0.67509 0.10625 0.0
H99 H 0.83388 0.63351 0.16772 0.0
H100 H 0.64225 0.65906 0.23404 0.0
H101 H 0.89485 0.64304 0.15511 0.0
Zn102 Zn 0.58891 0.27007 0.79095 0.0
C103 C 0.67962 0.22484 0.79615 0.0
N104 N 0.67246 0.21508 0.76395 0.0
C105 C 0.63996 0.22482 0.76014 0.0
N106 N 0.62778 0.24009 0.78844 0.0
N107 N 0.6526 0.23955 0.81133 0.0
C108 C 0.66999 0.30816 0.88344 0.0
O109 O 0.64217 0.31656 0.86702 0.0
O110 O 0.55067 0.26155 0.75657 0.0
Zn111 Zn 0.64787 0.24341 0.86082 0.0
N112 N 0.60642 0.31456 0.78073 0.0
C113 C 0.65292 0.3527 0.77629 0.0
C114 C 0.63927 0.32224 0.78784 0.0
C115 C 0.58664 0.33613 0.76245 0.0
N116 N 0.63327 0.37413 0.75772 0.0
C117 C 0.60034 0.36672 0.75043 0.0
O118 O 0.60089 0.25507 0.87803 0.0
C119 C 0.57167 0.26446 0.86807 0.0
O120 O 0.56524 0.27021 0.83668 0.0
H121 H 0.65503 0.30458 0.80161 0.0
H122 H 0.56096 0.32877 0.75622 0.0
C123 C 0.67396 0.19149 0.90693 0.0
C124 C 0.67693 0.15777 0.91832 0.0
C125 C 0.64498 0.13953 0.87026 0.0
C126 C 0.64178 0.17291 0.8593 0.0
N127 N 0.65625 0.19821 0.87778 0.0
N128 N 0.66218 0.13277 0.89956 0.0
H129 H 0.68451 0.21223 0.92153 0.0
C130 C 0.52827 0.23855 0.75967 0.0
O131 O 0.53209 0.21529 0.78346 0.0
O132 O 0.67943 0.27736 0.8833 0.0
H133 H 0.62745 0.17873 0.83641 0.0
H134 H 0.67906 0.35908 0.78163 0.0
H135 H 0.63349 0.11917 0.85586 0.0
Zn136 Zn 0.74332 0.14537 0.36134 0.0
C137 C 0.75848 0.14099 0.25876 0.0
N138 N 0.75824 0.17489 0.26093 0.0
C139 C 0.75356 0.1802 0.29458 0.0
N140 N 0.7515 0.15072 0.3123 0.0
N141 N 0.75468 0.12602 0.28954 0.0
C142 C 0.74564 0.02591 0.25771 0.0
O143 O 0.7189 0.02942 0.27749 0.0
O144 O 0.7786 0.16976 0.38996 0.0
Zn145 Zn 0.77179 0.08145 0.29956 0.0
N146 N 0.69889 0.16387 0.37017 0.0
C147 C 0.64271 0.17449 0.35081 0.0
C148 C 0.67546 0.16278 0.34467 0.0
C149 C 0.69076 0.17555 0.40187 0.0
N150 N 0.63449 0.18607 0.38247 0.0
C151 C 0.65756 0.18699 0.40842 0.0
O152 O 0.75231 0.05839 0.34058 0.0
C153 C 0.74367 0.06621 0.37089 0.0
O154 O 0.7415 0.097 0.38029 0.0
H155 H 0.68216 0.15279 0.31978 0.0
H156 H 0.70973 0.1746 0.42185 0.0
C157 C 0.84044 0.08875 0.28213 0.0
C158 C 0.87521 0.09377 0.28783 0.0
C159 C 0.86396 0.10001 0.34744 0.0
C160 C 0.82968 0.09388 0.34163 0.0
N161 N 0.81875 0.08842 0.30912 0.0
N162 N 0.88585 0.09952 0.32057 0.0
H163 H 0.83028 0.08512 0.25669 0.0
C164 C 0.80865 0.17626 0.38005 0.0
O165 O 0.81739 0.16936 0.34834 0.0
O166 O 0.76988 0.04703 0.26052 0.0
H167 H 0.81188 0.09405 0.36271 0.0
H168 H 0.62382 0.17395 0.33073 0.0
H169 H 0.87317 0.10482 0.37309 0.0
Zn170 Zn 0.08915 0.24649 0.70458 0.0
C171 C 0.1796 0.29129 0.69574 0.0
N172 N 0.17205 0.30425 0.72666 0.0
C173 C 0.13946 0.29499 0.73099 0.0
N174 N 0.12764 0.27692 0.70435 0.0
N175 N 0.15273 0.27519 0.68183 0.0
C176 C 0.17183 0.20484 0.61615 0.0
O177 O 0.14717 0.19692 0.63735 0.0
O178 O 0.05088 0.2575 0.73809 0.0
Zn179 Zn 0.14733 0.27028 0.63282 0.0
N180 N 0.10653 0.20327 0.71937 0.0
C181 C 0.15245 0.16633 0.73231 0.0
C182 C 0.14018 0.19601 0.71747 0.0
C183 C 0.08465 0.18208 0.73553 0.0
N184 N 0.1306 0.14523 0.74867 0.0
C185 C 0.09686 0.15224 0.75066 0.0
O186 O 0.10023 0.25772 0.61679 0.0
C187 C 0.07149 0.2473 0.62726 0.0
O188 O 0.06568 0.24213 0.65891 0.0
H189 H 0.15754 0.21336 0.70529 0.0
H190 H 0.05822 0.18914 0.7375 0.0
C191 C 0.1753 0.32129 0.58697 0.0
C192 C 0.17963 0.35491 0.57553 0.0
C193 C 0.14505 0.37393 0.62156 0.0
C194 C 0.14032 0.34068 0.63225 0.0
N195 N 0.1556 0.31508 0.61491 0.0
N196 N 0.16439 0.38023 0.59352 0.0
H197 H 0.18742 0.30024 0.57424 0.0
C198 C 0.02767 0.27931 0.73299 0.0
O199 O 0.0306 0.30046 0.70713 0.0
O200 O 0.17868 0.23591 0.61114 0.0
H201 H 0.12464 0.3352 0.65433 0.0
H202 H 0.17917 0.16028 0.73116 0.0
H203 H 0.13322 0.39459 0.63523 0.0
Zn204 Zn 0.26899 0.86571 0.36536 0.0
C205 C 0.27964 0.87466 0.26367 0.0
N206 N 0.29033 0.84245 0.26641 0.0
C207 C 0.28337 0.83516 0.29938 0.0
N208 N 0.26923 0.86163 0.31589 0.0
N209 N 0.26665 0.88645 0.2932 0.0
C210 C 0.27663 0.98454 0.27003 0.0
O211 O 0.29691 0.97839 0.29603 0.0
O212 O 0.23571 0.83393 0.38887 0.0
Zn213 Zn 0.23941 0.9266 0.29738 0.0
N214 N 0.31535 0.85634 0.37859 0.0
C215 C 0.37363 0.86205 0.36378 0.0
C216 C 0.33956 0.86714 0.35625 0.0
C217 C 0.3239 0.84103 0.40863 0.0
N218 N 0.38225 0.84704 0.39379 0.0
C219 C 0.35844 0.83633 0.41667 0.0
O220 O 0.24022 0.94836 0.34396 0.0
C221 C 0.24789 0.94159 0.37488 0.0
O222 O 0.25845 0.91244 0.38378 0.0
H223 H 0.33247 0.87994 0.33282 0.0
H224 H 0.30404 0.83378 0.42631 0.0
C225 C 0.17478 0.93617 0.2681 0.0
C226 C 0.14348 0.92606 0.25449 0.0
C227 C 0.1523 0.8709 0.27703 0.0
C228 C 0.18353 0.88103 0.29015 0.0
N229 N 0.19405 0.91347 0.28549 0.0
N230 N 0.13312 0.89353 0.25939 0.0
H231 H 0.18456 0.96139 0.26376 0.0
C232 C 0.20454 0.84222 0.38756 0.0
O233 O 0.19583 0.86895 0.36956 0.0
O234 O 0.25238 0.96418 0.26411 0.0
H235 H 0.19973 0.86289 0.30286 0.0
H236 H 0.39312 0.87043 0.34618 0.0
H237 H 0.14361 0.84513 0.28031 0.0
Zn238 Zn 0.9232 0.77769 0.7028 0.0
C239 C 0.8309 0.73697 0.70446 0.0
N240 N 0.83727 0.73438 0.73819 0.0
C241 C 0.8703 0.74249 0.7401 0.0
N242 N 0.88359 0.74993 0.70921 0.0
N243 N 0.85873 0.74653 0.68662 0.0
C244 C 0.84864 0.81049 0.60509 0.0
O245 O 0.88074 0.81445 0.61301 0.0
O246 O 0.96138 0.76974 0.73745 0.0
Zn247 Zn 0.86265 0.74656 0.63689 0.0
N248 N 0.90685 0.82303 0.70898 0.0
C249 C 0.86207 0.86302 0.70371 0.0
C250 C 0.8762 0.83171 0.6957 0.0
C251 C 0.92402 0.84434 0.72994 0.0
N252 N 0.87915 0.88433 0.72477 0.0
C253 C 0.90992 0.8759 0.73811 0.0
O254 O 0.91054 0.75167 0.61759 0.0
C255 C 0.93973 0.76225 0.62652 0.0
O256 O 0.94552 0.77271 0.65673 0.0
H257 H 0.86241 0.8141 0.67984 0.0
H258 H 0.94788 0.83626 0.74091 0.0
C259 C 0.83172 0.69582 0.59344 0.0
C260 C 0.82404 0.66227 0.58423 0.0
C261 C 0.84878 0.64289 0.63607 0.0
C262 C 0.85677 0.67607 0.64486 0.0
N263 N 0.84812 0.70186 0.62343 0.0
N264 N 0.83294 0.63673 0.60588 0.0
H265 H 0.82596 0.71677 0.5765 0.0
C266 C 0.9851 0.74911 0.7301 0.0
O267 O 0.98203 0.73036 0.7025 0.0
O268 O 0.83386 0.78308 0.6137 0.0
H269 H 0.87026 0.68121 0.6684 0.0
H270 H 0.83759 0.87021 0.69354 0.0
H271 H 0.85561 0.62214 0.65282 0.0
C272 C 0.15683 0.3572 0.02611 0.0
C273 C 0.14962 0.33085 0.0491 0.0
C274 C 0.14736 0.3547 0.99183 0.0
C275 C 0.09532 0.30492 0.92988 0.0
H276 H 0.16141 0.34085 0.86582 0.0
C277 C 0.11301 0.27276 0.78448 0.0
C278 C 0.12195 0.30032 0.76363 0.0
C279 C 0.10666 0.27771 0.81945 0.0
C280 C 0.14245 0.33111 0.88338 0.0
H281 H 0.12586 0.2818 0.0549 0.0
H282 H 0.1107 0.27648 0.9943 0.0
H283 H 0.17126 0.34637 0.92673 0.0
H284 H 0.12859 0.3546 0.76152 0.0
H285 H 0.11713 0.36337 0.82234 0.0
H286 H 0.06758 0.28811 0.88556 0.0
C287 C 0.12298 0.29946 0.00286 0.0
C288 C 0.148 0.33438 0.91839 0.0
C289 C 0.13188 0.30232 0.03746 0.0
C290 C 0.1215 0.33307 0.77724 0.0
C291 C 0.11509 0.33804 0.81196 0.0
C292 C 0.09001 0.30117 0.89455 0.0
C293 C 0.13109 0.32544 0.97951 0.0
C294 C 0.12445 0.32163 0.94219 0.0
C295 C 0.10953 0.31023 0.83369 0.0
C296 C 0.11345 0.31458 0.87108 0.0
H297 H 0.16963 0.37992 0.03471 0.0
H298 H 0.15306 0.37571 0.97491 0.0
H299 H 0.07655 0.29495 0.94747 0.0
H300 H 0.11396 0.24722 0.77456 0.0
H301 H 0.10265 0.25586 0.83577 0.0
C302 C 0.31127 0.83968 0.97869 0.0
C303 C 0.31763 0.8634 0.95242 0.0
C304 C 0.29878 0.85013 0.01043 0.0
C305 C 0.30188 0.92132 0.0682 0.0
H306 H 0.23659 0.86837 0.11978 0.0
C307 C 0.24677 0.89741 0.21448 0.0
C308 C 0.27809 0.89209 0.23055 0.0
C309 C 0.24546 0.90558 0.17964 0.0
C310 C 0.25428 0.88401 0.10559 0.0
H311 H 0.31446 0.91691 0.93939 0.0
H312 H 0.29349 0.93486 0.99512 0.0
H313 H 0.24396 0.85796 0.05868 0.0
H314 H 0.3325 0.89271 0.22405 0.0
H315 H 0.33048 0.90716 0.16323 0.0
H316 H 0.31351 0.9461 0.1156 0.0
C317 C 0.29814 0.90819 0.99075 0.0
C318 C 0.25874 0.87776 0.0707 0.0
C319 C 0.31023 0.89775 0.95881 0.0
C320 C 0.30811 0.89723 0.2121 0.0
C321 C 0.30688 0.90563 0.17738 0.0
C322 C 0.29763 0.92739 0.10323 0.0
C323 C 0.29268 0.88451 0.01696 0.0
C324 C 0.28341 0.89551 0.05197 0.0
C325 C 0.27553 0.90836 0.16045 0.0
C326 C 0.27463 0.90796 0.12249 0.0
H327 H 0.31694 0.81313 0.97573 0.0
H328 H 0.29534 0.83137 0.03043 0.0
H329 H 0.32117 0.93531 0.05437 0.0
H330 H 0.22335 0.89251 0.22798 0.0
H331 H 0.22098 0.90758 0.16724 0.0
C332 C 0.91502 0.7284 0.78282 0.0
C333 C 0.88702 0.748 0.77314 0.0
C334 C 0.92529 0.72746 0.81716 0.0
C335 C 0.90645 0.76371 0.90413 0.0
H336 H 0.91405 0.66997 0.93262 0.0
C337 C 0.85407 0.712 0.03141 0.0
C338 C 0.873 0.6875 0.04921 0.0
C339 C 0.86507 0.72393 -0.00046 0.0
C340 C 0.91262 0.69635 0.92517 0.0
H341 H 0.84893 0.78337 0.7905 0.0
H342 H 0.86605 0.78137 0.85021 0.0
H343 H 0.91965 0.68439 0.87235 0.0
H344 H 0.91885 0.65717 0.04808 0.0
H345 H 0.93772 0.6777 0.99216 0.0
H346 H 0.89703 0.77509 0.95701 0.0
C347 C 0.88087 0.76728 0.83174 0.0
C348 C 0.91604 0.70472 0.89056 0.0
C349 C 0.87082 0.76831 0.79753 0.0
C350 C 0.90362 0.67595 0.03492 0.0
C351 C 0.91442 0.68761 0.00291 0.0
C352 C 0.90263 0.75526 0.93873 0.0
C353 C 0.90726 0.74569 0.84228 0.0
C354 C 0.91174 0.73834 0.87942 0.0
C355 C 0.89509 0.71146 0.98475 0.0
C356 C 0.90456 0.72135 0.94937 0.0
H357 H 0.92742 0.71209 0.76438 0.0
H358 H 0.94604 0.71095 0.82432 0.0
H359 H 0.90369 0.78995 0.89655 0.0
H360 H 0.83075 0.72198 0.04202 0.0
H361 H 0.84951 0.74213 0.98595 0.0
C362 C 0.7398 0.10317 0.21175 0.0
C363 C 0.76494 0.12376 0.22618 0.0
C364 C 0.73967 0.09713 0.17639 0.0
C365 C 0.76161 0.1472 0.10243 0.0
H366 H 0.72803 0.07145 0.04952 0.0
C367 C 0.72354 0.1655 0.96154 0.0
C368 C 0.69391 0.14888 0.95091 0.0
C369 C 0.73887 0.15697 0.99269 0.0
C370 C 0.73723 0.09293 0.06398 0.0
H371 H 0.8115 0.15106 0.21647 0.0
H372 H 0.81176 0.13998 0.15493 0.0
H373 H 0.74451 0.06293 0.1094 0.0
H374 H 0.65747 0.10992 0.96412 0.0
H375 H 0.68314 0.09612 0.019 0.0
H376 H 0.75245 0.1778 0.0584 0.0
C377 C 0.7919 0.12891 0.17054 0.0
C378 C 0.74688 0.08792 0.09816 0.0
C379 C 0.79189 0.13507 0.20571 0.0
C380 C 0.68035 0.12314 0.97166 0.0
C381 C 0.6953 0.115 0.00304 0.0
C382 C 0.75158 0.15231 0.06857 0.0
C383 C 0.76461 0.11181 0.15525 0.0
C384 C 0.75875 0.11515 0.11784 0.0
C385 C 0.7246 0.13202 0.01417 0.0
C386 C 0.73869 0.12541 0.049 0.0
H387 H 0.71852 0.09468 0.2271 0.0
H388 H 0.71828 0.0839 0.16531 0.0
H389 H 0.76991 0.16891 0.11712 0.0
H390 H 0.73503 0.18489 0.94567 0.0
H391 H 0.76184 0.17011 -1e-05 0.0
C392 C 0.66954 0.21237 0.4664 0.0
C393 C 0.64658 0.19792 0.44309 0.0
C394 C 0.65922 0.2205 0.49964 0.0
C395 C 0.59657 0.19559 0.56425 0.0
H396 H 0.6349 0.27148 0.6137 0.0
C397 C 0.61253 0.25379 0.71052 0.0
C398 C 0.62326 0.22387 0.72654 0.0
C399 C 0.6044 0.25386 0.67562 0.0
C400 C 0.62329 0.25055 0.60021 0.0
H401 H 0.59429 0.1823 0.43603 0.0
H402 H 0.57629 0.19676 0.49398 0.0
H403 H 0.64267 0.26761 0.55191 0.0
H404 H 0.63282 0.17046 0.71958 0.0
H405 H 0.61877 0.17034 0.65881 0.0
H406 H 0.57791 0.17811 0.61271 0.0
C407 C 0.6024 0.20127 0.48666 0.0
C408 C 0.62818 0.2481 0.56484 0.0
C409 C 0.61271 0.19319 0.45338 0.0
C410 C 0.62405 0.19372 0.70776 0.0
C411 C 0.61586 0.19369 0.673 0.0
C412 C 0.59167 0.19804 0.59963 0.0
C413 C 0.62567 0.21454 0.51032 0.0
C414 C 0.61587 0.22001 0.54666 0.0
C415 C 0.60717 0.224 0.65622 0.0
C416 C 0.60598 0.22494 0.61818 0.0
H417 H 0.69559 0.21727 0.45919 0.0
H418 H 0.67788 0.23045 0.5173 0.0
H419 H 0.58682 0.17356 0.55104 0.0
H420 H 0.61273 0.27749 0.72424 0.0
H421 H 0.59764 0.27758 0.66345 0.0
C422 C 0.20305 0.34053 0.51712 0.0
C423 C 0.19914 0.36373 0.54413 0.0
C424 C 0.21874 0.35031 0.48659 0.0
C425 C 0.23366 0.42481 0.43318 0.0
H426 H 0.28867 0.36147 0.38176 0.0
C427 C 0.29077 0.39254 0.28946 0.0
C428 C 0.26053 0.3977 0.27139 0.0
C429 C 0.29257 0.40028 0.32431 0.0
C430 C 0.2741 0.38002 0.39589 0.0
H431 H 0.20952 0.4153 0.5602 0.0
H432 H 0.2367 0.43228 0.50668 0.0
H433 H 0.2749 0.34937 0.44111 0.0
H434 H 0.20958 0.41755 0.27395 0.0
H435 H 0.21212 0.43036 0.33498 0.0
H436 H 0.23207 0.45501 0.38749 0.0
C437 C 0.2275 0.40658 0.50928 0.0
C438 C 0.26579 0.37274 0.42985 0.0
C439 C 0.21195 0.39676 0.53993 0.0
C440 C 0.23326 0.4138 0.28751 0.0
C441 C 0.23483 0.42113 0.32251 0.0
C442 C 0.24202 0.43216 0.39909 0.0
C443 C 0.23073 0.38354 0.48215 0.0
C444 C 0.24443 0.39437 0.44844 0.0
C445 C 0.26377 0.41236 0.34173 0.0
C446 C 0.26133 0.40922 0.37966 0.0
H447 H 0.19279 0.31519 0.51873 0.0
H448 H 0.22021 0.33215 0.46587 0.0
H449 H 0.21712 0.442 0.44687 0.0
H450 H 0.31203 0.37994 0.27734 0.0
H451 H 0.31553 0.39406 0.33817 0.0
C452 C 0.35031 0.7982 0.46796 0.0
C453 C 0.36978 0.82218 0.44996 0.0
C454 C 0.36093 0.78647 0.50004 0.0
C455 C 0.40905 0.81485 0.57383 0.0
H456 H 0.39717 0.72252 0.60543 0.0
C457 C 0.41261 0.78694 0.71694 0.0
C458 C 0.38425 0.76851 0.72779 0.0
C459 C 0.42218 0.7866 0.68239 0.0
C460 C 0.40075 0.7484 0.59699 0.0
H461 H 0.41632 0.85152 0.45093 0.0
H462 H 0.43457 0.83117 0.50693 0.0
H463 H 0.39067 0.73573 0.54455 0.0
H464 H 0.34471 0.73386 0.71237 0.0
H465 H 0.36054 0.73376 0.6522 0.0
H466 H 0.41687 0.82817 0.62615 0.0
C467 C 0.41109 0.82163 0.49629 0.0
C468 C 0.397 0.75592 0.56217 0.0
C469 C 0.40063 0.83317 0.46418 0.0
C470 C 0.36683 0.74812 0.70437 0.0
C471 C 0.37616 0.74788 0.66993 0.0
C472 C 0.41244 0.80743 0.60863 0.0
C473 C 0.39111 0.79856 0.51477 0.0
C474 C 0.40009 0.7894 0.55046 0.0
C475 C 0.40306 0.76825 0.65822 0.0
C476 C 0.40716 0.77432 0.62082 0.0
H477 H 0.32684 0.78856 0.45744 0.0
H478 H 0.3449 0.76883 0.51385 0.0
H479 H 0.41133 0.84094 0.56558 0.0
H480 H 0.42601 0.80322 0.73467 0.0
H481 H 0.44334 0.80216 0.67431 0.0
C482 C 0.78278 0.67402 0.53679 0.0
C483 C 0.80866 0.65396 0.5508 0.0
C484 C 0.76961 0.66663 0.50442 0.0
C485 C 0.77007 0.60166 0.43441 0.0
H486 H 0.75496 0.68069 0.37748 0.0
C487 C 0.78118 0.60905 0.28625 0.0
C488 C 0.75978 0.63212 0.26963 0.0
C489 C 0.77849 0.6043 0.32175 0.0
C490 C 0.75838 0.65827 0.39315 0.0
H491 H 0.84035 0.60992 0.54264 0.0
H492 H 0.81864 0.59794 0.4856 0.0
H493 H 0.76732 0.68796 0.43768 0.0
H494 H 0.71712 0.66601 0.27558 0.0
H495 H 0.71182 0.65719 0.33725 0.0
H496 H 0.7631 0.57228 0.38864 0.0
C497 C 0.80769 0.61877 0.49977 0.0
C498 C 0.76541 0.66243 0.42783 0.0
C499 C 0.82038 0.6258 0.53238 0.0
C500 C 0.73376 0.64797 0.28805 0.0
C501 C 0.73089 0.64308 0.32328 0.0
C502 C 0.76344 0.59753 0.39939 0.0
C503 C 0.7825 0.63942 0.48511 0.0
C504 C 0.77177 0.63427 0.44892 0.0
C505 C 0.75446 0.62277 0.34075 0.0
C506 C 0.75782 0.62588 0.37842 0.0
H507 H 0.7727 0.6954 0.55083 0.0
H508 H 0.74961 0.68258 0.49438 0.0
H509 H 0.77434 0.57934 0.44995 0.0
H510 H 0.8017 0.59699 0.27242 0.0
H511 H 0.79708 0.5886 0.3346 0.0
C512 C 0.51044 0.26306 0.88502 0.0
C513 C 0.54443 0.26902 0.89376 0.0
C514 C 0.48466 0.26727 0.90932 0.0
C515 C 0.43172 0.29419 0.95797 0.0
H516 H 0.45095 0.28409 0.0548 0.0
C517 C 0.33485 0.33655 0.06008 0.0
C518 C 0.33446 0.32055 0.09223 0.0
C519 C 0.35995 0.32886 0.03601 0.0
C520 C 0.44474 0.28649 0.02789 0.0
H521 H 0.57812 0.2847 0.93452 0.0
H522 H 0.53329 0.29416 0.97627 0.0
H523 H 0.49472 0.27168 0.01325 0.0
H524 H 0.35942 0.28331 0.12417 0.0
H525 H 0.40198 0.26813 0.08151 0.0
H526 H 0.38111 0.30673 0.97244 0.0
C527 C 0.5263 0.28472 0.95124 0.0
C528 C 0.4703 0.28002 0.00386 0.0
C529 C 0.55213 0.27959 0.92719 0.0
C530 C 0.35923 0.29612 0.09959 0.0
C531 C 0.38387 0.28772 0.07514 0.0
C532 C 0.40593 0.2998 0.98193 0.0
C533 C 0.49209 0.27852 0.94278 0.0
C534 C 0.46437 0.28417 0.96849 0.0
C535 C 0.3849 0.30427 0.04306 0.0
C536 C 0.41209 0.29653 0.01735 0.0
H537 H 0.5038 0.25454 0.8595 0.0
H538 H 0.45896 0.26133 0.90177 0.0
H539 H 0.42594 0.29828 0.93117 0.0
H540 H 0.31638 0.35592 0.05389 0.0
H541 H 0.36011 0.34294 0.01219 0.0
C542 C 0.24419 0.50695 0.10526 0.0
C543 C 0.24507 0.47225 0.09725 0.0
C544 C 0.2473 0.53142 0.07945 0.0
C545 C 0.28788 0.54233 0.99652 0.0
H546 H 0.2371 0.62619 0.99141 0.0
C547 C 0.32207 0.64264 0.89538 0.0
C548 C 0.32083 0.67674 0.90532 0.0
C549 C 0.30759 0.61747 0.91592 0.0
C550 C 0.2518 0.60309 0.99266 0.0
H551 H 0.24822 0.43616 0.05552 0.0
H552 H 0.25404 0.47894 0.01056 0.0
H553 H 0.22054 0.58268 0.0328 0.0
H554 H 0.30254 0.71139 0.94411 0.0
H555 H 0.27841 0.66745 0.98074 0.0
H556 H 0.32021 0.5629 0.95792 0.0
C557 C 0.25099 0.48712 0.03687 0.0
C558 C 0.24214 0.57808 0.01627 0.0
C559 C 0.24742 0.46264 0.06263 0.0
C560 C 0.30377 0.68531 0.93571 0.0
C561 C 0.28978 0.66003 0.95664 0.0
C562 C 0.29784 0.56743 0.97332 0.0
C563 C 0.25177 0.52174 0.0451 0.0
C564 C 0.26018 0.54749 0.01854 0.0
C565 C 0.29205 0.62563 0.94736 0.0
C566 C 0.28009 0.5983 0.9711 0.0
H567 H 0.24231 0.51526 0.13164 0.0
H568 H 0.24796 0.55788 0.08662 0.0
H569 H 0.30269 0.51929 0.9981 0.0
H570 H 0.33467 0.6353 0.87184 0.0
H571 H 0.30905 0.5915 0.90727 0.0
C572 C 0.50048 0.73303 0.88537 0.0
C573 C 0.46698 0.7375 0.89686 0.0
C574 C 0.52708 0.72895 0.90874 0.0
C575 C 0.54915 0.73958 0.00148 0.0
H576 H 0.62367 0.68009 0.97764 0.0
C577 C 0.64678 0.6867 0.09923 0.0
C578 C 0.68103 0.68606 0.08921 0.0
C579 C 0.62153 0.69658 0.0761 0.0
C580 C 0.60324 0.6971 0.98451 0.0
H581 H 0.43518 0.74084 0.94206 0.0
H582 H 0.48124 0.7324 0.98281 0.0
H583 H 0.57769 0.6888 0.937 0.0
H584 H 0.71572 0.69625 0.04729 0.0
H585 H 0.67147 0.71306 0.0067 0.0
H586 H 0.57441 0.74665 0.04966 0.0
C587 C 0.48727 0.73305 0.95574 0.0
C588 C 0.57681 0.70222 0.96114 0.0
C589 C 0.46072 0.73765 0.93234 0.0
C590 C 0.68958 0.69657 0.05585 0.0
C591 C 0.66424 0.70595 0.03253 0.0
C592 C 0.57538 0.73404 0.02504 0.0
C593 C 0.5209 0.72868 0.94431 0.0
C594 C 0.54931 0.72353 0.96924 0.0
C595 C 0.62989 0.70558 0.04226 0.0
C596 C 0.6027 0.71273 0.01681 0.0
H597 H 0.50632 0.73316 0.85822 0.0
H598 H 0.55257 0.7264 0.89878 0.0
H599 H 0.52889 0.75669 0.00853 0.0
H600 H 0.63936 0.67879 0.12477 0.0
H601 H 0.59529 0.69587 0.08431 0.0
C602 C 0.70446 0.32373 0.93511 0.0
C603 C 0.68699 0.33357 0.90531 0.0
C604 C 0.71593 0.34811 0.95842 0.0
C605 C 0.73805 0.43777 0.96871 0.0
H606 H 0.70434 0.4276 0.06153 0.0
C607 C 0.74275 0.5483 0.06541 0.0
C608 C 0.74616 0.54108 0.10052 0.0
C609 C 0.73839 0.5222 0.04161 0.0
C610 C 0.71467 0.43068 0.036 0.0
H611 H 0.66952 0.37657 0.8756 0.0
H612 H 0.69048 0.4191 0.91576 0.0
H613 H 0.69415 0.38311 0.01972 0.0
H614 H 0.74863 0.50064 0.13807 0.0
H615 H 0.74255 0.45511 0.09662 0.0
H616 H 0.75919 0.48493 0.98482 0.0
C617 C 0.69492 0.39259 0.9213 0.0
C618 C 0.70866 0.40512 0.01199 0.0
C619 C 0.68285 0.36824 0.89838 0.0
C620 C 0.74571 0.5071 0.11122 0.0
C621 C 0.74199 0.48095 0.08737 0.0
C622 C 0.74464 0.46309 0.99286 0.0
C623 C 0.71081 0.38276 0.95196 0.0
C624 C 0.71989 0.4086 0.978 0.0
C625 C 0.73795 0.48807 0.05219 0.0
C626 C 0.73261 0.46019 0.02679 0.0
H627 H 0.70785 0.29719 0.94122 0.0
H628 H 0.72827 0.33989 0.9818 0.0
H629 H 0.74719 0.44097 0.9427 0.0
H630 H 0.74273 0.57424 0.05634 0.0
H631 H 0.73467 0.52897 0.01498 0.0
C632 C 0.82631 0.19132 0.43994 0.0
C633 C 0.83449 0.18793 0.40501 0.0
C634 C 0.85134 0.19951 0.46393 0.0
C635 C 0.93713 0.23619 0.47305 0.0
H636 H 0.93933 0.18422 0.55745 0.0
C637 C 0.05079 0.24243 0.56651 0.0
C638 C 0.04404 0.24124 0.60191 0.0
C639 C 0.02494 0.23679 0.54264 0.0
C640 C 0.93887 0.19935 0.53428 0.0
H641 H 0.87532 0.19136 0.36786 0.0
H642 H 0.9189 0.2058 0.40972 0.0
H643 H 0.89458 0.17396 0.51574 0.0
H644 H 1.00452 0.23344 0.63986 0.0
H645 H 0.95942 0.22424 0.59831 0.0
H646 H 0.98128 0.26175 0.49161 0.0
C647 C 0.89309 0.20224 0.41852 0.0
C648 C 0.91318 0.19341 0.51031 0.0
C649 C 0.8681 0.19386 0.39453 0.0
C650 C 0.01073 0.23434 0.61281 0.0
C651 C 0.98485 0.22888 0.58893 0.0
C652 C 0.96273 0.24228 0.49711 0.0
C653 C 0.8851 0.2047 0.45358 0.0
C654 C 0.91205 0.21168 0.47936 0.0
C655 C 0.99159 0.22997 0.5535 0.0
C656 C 0.96403 0.22385 0.52802 0.0
H657 H 0.80068 0.18699 0.44892 0.0
H658 H 0.84425 0.20167 0.49067 0.0
H659 H 0.93675 0.25099 0.44965 0.0
H660 H 0.07616 0.24749 0.55715 0.0
H661 H 0.03126 0.23729 0.51562 0.0
C662 C 0.20195 0.18578 0.56295 0.0
C663 C 0.18774 0.17809 0.59507 0.0
C664 C 0.21234 0.15986 0.54089 0.0
C665 C 0.19787 0.06786 0.52584 0.0
H666 H 0.26975 0.07931 0.45895 0.0
C667 C 0.24238 0.95996 0.43623 0.0
C668 C 0.2442 0.96837 0.40122 0.0
C669 C 0.23794 0.98519 0.46096 0.0
C670 C 0.24955 0.07584 0.47746 0.0
H671 H 0.17536 0.13742 0.63023 0.0
H672 H 0.19491 0.09235 0.59264 0.0
H673 H 0.25931 0.12363 0.50119 0.0
H674 H 0.2436 0.01 0.36485 0.0
H675 H 0.23641 0.05403 0.40816 0.0
H676 H 0.18862 0.01979 0.50232 0.0
C677 C 0.1968 0.11823 0.58369 0.0
C678 C 0.24342 0.10129 0.50162 0.0
C679 C 0.18588 0.1441 0.60546 0.0
C680 C 0.24213 1.00264 0.39158 0.0
C681 C 0.23824 0.02789 0.41637 0.0
C682 C 0.20436 0.04226 0.50205 0.0
C683 C 0.20926 0.12563 0.55066 0.0
C684 C 0.21726 0.09782 0.52599 0.0
C685 C 0.2358 0.0194 0.45128 0.0
C686 C 0.23004 0.04609 0.47741 0.0
H687 H 0.20349 0.21175 0.55412 0.0
H688 H 0.22141 0.16672 0.51562 0.0
H689 H 0.17699 0.06441 0.54353 0.0
H690 H 0.24383 0.93382 0.44452 0.0
H691 H 0.23632 0.97795 0.48771 0.0
C692 C 0.18806 0.80797 0.43931 0.0
C693 C 0.17876 0.82504 0.40909 0.0
C694 C 0.16317 0.79607 0.46201 0.0
C695 C 0.07312 0.77262 0.47004 0.0
H696 H 0.08122 0.80522 0.5633 0.0
C697 C 0.96067 0.76659 0.56575 0.0
C698 C 0.9676 0.76371 0.60096 0.0
C699 C 0.9871 0.77053 0.54203 0.0
C700 C 0.0787 0.79516 0.53764 0.0
H701 H 0.13619 0.84135 0.37805 0.0
H702 H 0.09285 0.81976 0.41719 0.0
H703 H 0.12646 0.81631 0.52241 0.0
H704 H 1.00781 0.7612 0.63872 0.0
H705 H 0.05378 0.76635 0.59753 0.0
H706 H 0.02569 0.75095 0.48516 0.0
C707 C 0.11931 0.81591 0.42352 0.0
C708 C 0.10471 0.8017 0.51414 0.0
C709 C 0.14414 0.82837 0.40118 0.0
C710 C 1.00157 0.76373 0.61179 0.0
C711 C 0.028 0.76699 0.58807 0.0
C712 C 0.04731 0.76553 0.49371 0.0
C713 C 0.12853 0.80038 0.45457 0.0
C714 C 0.10205 0.79087 0.48 0.0
C715 C 0.02122 0.77109 0.55285 0.0
C716 C 0.04949 0.77705 0.52782 0.0
H717 H 0.21452 0.80515 0.44618 0.0
H718 H 0.17097 0.784 0.48568 0.0
H719 H 0.0705 0.76378 0.4439 0.0
H720 H 0.93474 0.76694 0.55661 0.0
H721 H 0.9806 0.77413 0.51532 0.0
C722 C 0.74267 1.00454 0.38586 0.0
C723 C 0.74111 0.03848 0.39664 0.0
C724 C 0.7471 0.97841 0.40959 0.0
C725 C 0.74563 0.9543 0.50135 0.0
H726 H 0.82171 0.89749 0.47563 0.0
C727 C 0.79609 0.83603 0.57846 0.0
C728 C 0.83133 0.83666 0.58411 0.0
C729 C 0.78075 0.86023 0.55705 0.0
C730 C 0.80031 0.91303 0.48311 0.0
H731 H 0.74033 0.07113 0.44128 0.0
H732 H 0.748 0.02524 0.48282 0.0
H733 H 0.80072 0.93989 0.43552 0.0
H734 H 0.87786 0.86364 0.57221 0.0
H735 H 0.8513 0.90501 0.53469 0.0
H736 H 0.7458 0.92728 0.54934 0.0
C737 C 0.74583 0.01902 0.45588 0.0
C738 C 0.78811 0.93715 0.46005 0.0
C739 C 0.74148 0.04533 0.43204 0.0
C740 C 0.85069 0.86227 0.56844 0.0
C741 C 0.83552 0.88597 0.54679 0.0
C742 C 0.7576 0.92965 0.52436 0.0
C743 C 0.74997 0.98543 0.44476 0.0
C744 C 0.76088 0.95836 0.46897 0.0
C745 C 0.8005 0.88503 0.54053 0.0
C746 C 0.78545 0.9092 0.51561 0.0
H747 H 0.74205 0.99818 0.35886 0.0
H748 H 0.74957 0.95272 0.40027 0.0
H749 H 0.72457 0.97022 0.50889 0.0
H750 H 0.78047 0.81671 0.59029 0.0
H751 H 0.75367 0.85897 0.55259 0.0
C752 C 0.42498 0.39215 0.24568 0.0
C753 C 0.40206 0.41787 0.23701 0.0
C754 C 0.45223 0.39892 0.26753 0.0
C755 C 0.49454 0.47192 0.31385 0.0
H756 H 0.57469 0.43035 0.27526 0.0
C757 C 0.62219 0.51813 0.24557 0.0
C758 C 0.6277 0.54806 0.26386 0.0
C759 C 0.60005 0.49367 0.25819 0.0
C760 C 0.55257 0.44253 0.28612 0.0
H761 H 0.38829 0.47021 0.24545 0.0
H762 H 0.43641 0.48288 0.28101 0.0
H763 H 0.52071 0.40291 0.26863 0.0
H764 H 0.61697 0.57498 0.31086 0.0
H765 H 0.57956 0.53137 0.33413 0.0
H766 H 0.52562 0.51388 0.32687 0.0
C767 C 0.43326 0.45695 0.27283 0.0
C768 C 0.52134 0.42627 0.28299 0.0
C769 C 0.40557 0.44986 0.25194 0.0
C770 C 0.61257 0.55219 0.29611 0.0
C771 C 0.59106 0.52721 0.30929 0.0
C772 C 0.5255 0.48892 0.31556 0.0
C773 C 0.45784 0.43196 0.27992 0.0
C774 C 0.49141 0.44215 0.29435 0.0
C775 C 0.58334 0.49818 0.28986 0.0
C776 C 0.55439 0.47562 0.2992 0.0
H777 H 0.42233 0.36709 0.2348 0.0
H778 H 0.46971 0.37858 0.27323 0.0
H779 H 0.47252 0.48392 0.32509 0.0
H780 H 0.63339 0.51451 0.22047 0.0
H781 H 0.59453 0.47237 0.24176 0.0
C782 C 0.46731 0.61313 0.73769 0.0
C783 C 0.4334 0.61846 0.72822 0.0
C784 C 0.48633 0.58779 0.72208 0.0
C785 C 0.52566 0.53558 0.68383 0.0
H786 H 0.47532 0.45139 0.68286 0.0
C787 C 0.59508 0.41091 0.70488 0.0
C788 C 0.57983 0.39101 0.73048 0.0
C789 C 0.57668 0.43641 0.68843 0.0
C790 C 0.48979 0.47468 0.6828 0.0
H791 H 0.39348 0.603 0.69346 0.0
H792 H 0.42699 0.55888 0.66567 0.0
H793 H 0.44489 0.50467 0.68376 0.0
H794 H 0.53312 0.3816 0.75833 0.0
H795 H 0.50152 0.42636 0.73073 0.0
H796 H 0.57046 0.5056 0.68683 0.0
C797 C 0.43867 0.57393 0.6856 0.0
C798 C 0.47231 0.50537 0.68278 0.0
C799 C 0.41948 0.59915 0.70151 0.0
C800 C 0.54549 0.3961 0.73833 0.0
C801 C 0.52725 0.42178 0.72223 0.0
C802 C 0.54312 0.5049 0.68451 0.0
C803 C 0.47199 0.56723 0.69649 0.0
C804 C 0.49007 0.53611 0.68552 0.0
C805 C 0.54283 0.44286 0.69771 0.0
C806 C 0.52526 0.47413 0.68621 0.0
H807 H 0.47866 0.6271 0.75859 0.0
H808 H 0.51158 0.58298 0.73181 0.0
H809 H 0.54011 0.55887 0.68475 0.0
H810 H 0.62145 0.40721 0.69806 0.0
H811 H 0.58933 0.45183 0.66933 0.0
C812 C 0.89439 0.07064 0.23066 0.0
C813 C 0.9008 0.09028 0.26008 0.0
C814 C 0.92087 0.06137 0.20885 0.0
C815 C 0.98145 0.01683 0.19885 0.0
H816 H 0.06865 0.06156 0.19229 0.0
C817 C 0.11988 0.98416 0.24466 0.0
C818 C 0.12159 0.94988 0.23536 0.0
C819 C 0.096 1.0055 0.22957 0.0
C820 C 0.04441 0.04873 0.19353 0.0
H821 H 0.93946 0.11879 0.28705 0.0
H822 H 0.98559 0.10149 0.25007 0.0
H823 H 0.01706 0.09542 0.19718 0.0
H824 H 0.10158 0.91175 0.20103 0.0
H825 H 0.05992 0.94917 0.1744 0.0
H826 H 0.00852 0.97028 0.19812 0.0
C827 C 0.96014 0.09358 0.24345 0.0
C828 C 0.01489 0.06811 0.19626 0.0
C829 C 0.93365 0.10312 0.26507 0.0
C830 C 0.10044 0.93795 0.20907 0.0
C831 C 0.0767 0.9594 0.19375 0.0
C832 C 0.01085 0.99752 0.1962 0.0
C833 C 0.95434 0.07105 0.21623 0.0
C834 C 0.98335 0.05227 0.20123 0.0
C835 C 0.07331 0.99308 0.2048 0.0
C836 C 0.04281 0.01323 0.1958 0.0
H837 H 0.86964 0.06003 0.2256 0.0
H838 H 0.91551 0.04446 0.18772 0.0
H839 H 0.95769 1.00364 0.20275 0.0
H840 H 0.13544 0.99414 0.26513 0.0
H841 H 0.09377 0.03106 0.23926 0.0
C842 C 0.0412 0.12234 0.75528 0.0
C843 C 0.07387 0.12826 0.76814 0.0
C844 C 0.02084 0.09722 0.76956 0.0
C845 C 0.97765 0.04645 0.80554 0.0
H846 H 0.02703 0.96243 0.81686 0.0
C847 C 0.90997 0.92164 0.7822 0.0
C848 C 0.92807 0.90036 0.75996 0.0
C849 C 0.92656 0.94758 0.79976 0.0
C850 C 0.01278 0.98568 0.81393 0.0
H851 H 0.11018 0.11393 0.80723 0.0
H852 H 0.07423 0.07027 0.83277 0.0
H853 H 0.05772 0.01554 0.8162 0.0
H854 H 0.97785 0.88877 0.73946 0.0
H855 H 1.00644 0.93436 0.7687 0.0
H856 H 0.93326 0.01646 0.79922 0.0
C857 C 0.06459 0.08465 0.81122 0.0
C858 C 0.03036 0.01631 0.81409 0.0
C859 C 0.08518 0.10961 0.79661 0.0
C860 C 0.96326 0.90443 0.7568 0.0
C861 C 0.97973 0.9306 0.77389 0.0
C862 C 0.96017 0.01579 0.8046 0.0
C863 C 0.03252 0.07751 0.79724 0.0
C864 C 0.01322 0.04688 0.80769 0.0
C865 C 0.96146 0.95316 0.79482 0.0
C866 C 0.97788 0.98495 0.80659 0.0
H867 H 0.03194 0.13581 0.73296 0.0
H868 H 0.99673 0.09201 0.75742 0.0
H869 H 0.96351 0.06967 0.80184 0.0
H870 H 0.88283 0.91872 0.78537 0.0
H871 H 0.91179 0.96405 0.81614 0.0
C872 C 0.30639 0.03904 0.25648 0.0
C873 C 0.27821 0.01775 0.25213 0.0
C874 C 0.30595 0.07228 0.24403 0.0
C875 C 0.25784 0.13356 0.18874 0.0
H876 H 0.29719 0.19885 0.25112 0.0
C877 C 0.22981 0.27915 0.18826 0.0
C878 C 0.2568 0.30075 0.19676 0.0
C879 C 0.23435 0.24387 0.18813 0.0
C880 C 0.28653 0.18101 0.23304 0.0
H881 H 0.22799 0.01431 0.22977 0.0
H882 H 0.22686 0.07247 0.20882 0.0
H883 H 0.30176 0.13901 0.2638 0.0
H884 H 0.30938 0.30228 0.21247 0.0
H885 H 0.31774 0.2413 0.21089 0.0
H886 H 0.24161 0.17627 0.15867 0.0
C887 C 0.2496 0.06342 0.22137 0.0
C888 C 0.28923 0.1465 0.2403 0.0
C889 C 0.2502 0.02999 0.23351 0.0
C890 C 0.2885 0.28639 0.20432 0.0
C891 C 0.2931 0.25137 0.20405 0.0
C892 C 0.25493 0.16831 0.18158 0.0
C893 C 0.27713 0.08535 0.22728 0.0
C894 C 0.275 0.12217 0.2183 0.0
C895 C 0.26579 0.22956 0.19726 0.0
C896 C 0.26935 0.19246 0.20363 0.0
H897 H 0.32851 0.03034 0.27038 0.0
H898 H 0.32804 0.08799 0.24826 0.0
H899 H 0.24677 0.11565 0.17102 0.0
H900 H 0.20463 0.28912 0.18438 0.0
H901 H 0.21262 0.22781 0.18334 0.0
C902 C 0.28121 0.75292 0.82714 0.0
C903 C 0.29576 0.78169 0.81202 0.0
C904 C 0.24588 0.74993 0.83005 0.0
C905 C 0.17471 0.73684 0.80433 0.0
H906 H 0.1127 0.8129 0.80442 0.0
C907 C 0.04517 0.72989 0.73746 0.0
C908 C 0.0177 0.7493 0.74931 0.0
C909 C 0.07713 0.73256 0.75269 0.0
C910 C 0.12942 0.79117 0.80488 0.0
H911 H 0.28498 0.83027 0.78893 0.0
H912 H 0.22372 0.82509 0.79321 0.0
H913 H 0.17155 0.82136 0.82106 0.0
H914 H 1.00215 0.78583 0.78761 0.0
H915 H 0.05788 0.78994 0.81483 0.0
H916 H 0.13259 0.70655 0.78867 0.0
C917 C 0.23916 0.80509 0.80399 0.0
C918 C 0.16346 0.79614 0.81401 0.0
C919 C 0.27443 0.80816 0.80149 0.0
C920 C 0.02276 0.77058 0.77773 0.0
C921 C 0.05484 0.77312 0.79317 0.0
C922 C 0.14067 0.73182 0.79559 0.0
C923 C 0.22425 0.77532 0.81702 0.0
C924 C 0.1869 0.76924 0.81289 0.0
C925 C 0.08266 0.75452 0.78051 0.0
C926 C 0.11771 0.75908 0.79464 0.0
H927 H 0.2968 0.73137 0.83367 0.0
H928 H 0.23556 0.72681 0.84072 0.0
H929 H 0.19173 0.71541 0.80272 0.0
H930 H 0.04237 0.71335 0.71554 0.0
H931 H 0.09781 0.71824 0.74164 0.0
C932 C 0.74496 0.73204 0.1754 0.0
C933 C 0.77582 0.71514 0.18044 0.0
C934 C 0.74402 0.7674 0.17271 0.0
C935 C 0.79559 0.84084 0.20149 0.0
H936 H 0.72194 0.89235 0.16137 0.0
C937 C 0.78201 0.98461 0.2251 0.0
C938 C 0.74983 0.99458 0.23699 0.0
C939 C 0.78684 0.95257 0.21048 0.0
C940 C 0.74271 0.87831 0.17268 0.0
H941 H 0.83007 0.72136 0.18437 0.0
H942 H 0.82896 0.78284 0.17746 0.0
H943 H 0.72849 0.83252 0.14714 0.0
H944 H 0.69715 0.97934 0.24083 0.0
H945 H 0.7055 0.9238 0.2149 0.0
H946 H 0.80962 0.88659 0.22716 0.0
C947 C 0.8052 0.76917 0.17666 0.0
C948 C 0.74644 0.8439 0.16464 0.0
C949 C 0.806 0.73384 0.1799 0.0
C950 C 0.72229 0.9725 0.23204 0.0
C951 C 0.72704 0.94065 0.21703 0.0
C952 C 0.79211 0.87526 0.20914 0.0
C953 C 0.77405 0.78667 0.17491 0.0
C954 C 0.77252 0.82438 0.17951 0.0
C955 C 0.75954 0.9299 0.20692 0.0
C956 C 0.76523 0.8943 0.19543 0.0
H957 H 0.72126 0.7182 0.17674 0.0
H958 H 0.71947 0.77958 0.17171 0.0
H959 H 0.81557 0.82687 0.21421 0.0
H960 H 0.80382 1.00093 0.22848 0.0
H961 H 0.81214 0.94521 0.20263 0.0
C962 C 0.97215 0.30372 0.75277 0.0
C963 C 0.99476 0.27632 0.7514 0.0
C964 C 0.93938 0.29963 0.76617 0.0
C965 C 0.88227 0.23673 0.81177 0.0
H966 H 0.81182 0.29062 0.76906 0.0
C967 C 0.73853 0.20227 0.80113 0.0
C968 C 0.71516 0.22828 0.80779 0.0
C969 C 0.77351 0.2085 0.80255 0.0
C970 C 0.83125 0.27565 0.78157 0.0
H971 H 1.00081 0.22315 0.76365 0.0
H972 H 0.94359 0.21545 0.7852 0.0
H973 H 0.87074 0.30112 0.75455 0.0
H974 H 0.71011 0.28103 0.82168 0.0
H975 H 0.7711 0.29205 0.82382 0.0
H976 H 0.84181 0.20978 0.83686 0.0
C977 C 0.95114 0.24059 0.77724 0.0
C978 C 0.86529 0.28178 0.77343 0.0
C979 C 0.98416 0.24493 0.76465 0.0
C980 C 0.72744 0.2602 0.81755 0.0
C981 C 0.76238 0.26666 0.81824 0.0
C982 C 0.84807 0.23009 0.81926 0.0
C983 C 0.92788 0.26772 0.77769 0.0
C984 C 0.89151 0.26233 0.7882 0.0
C985 C 0.78576 0.24115 0.80971 0.0
C986 C 0.8222 0.24944 0.80415 0.0
H987 H 0.97962 0.32829 0.74298 0.0
H988 H 0.92297 0.32155 0.76694 0.0
H989 H 0.90137 0.22156 0.82443 0.0
H990 H 0.72972 0.17762 0.79289 0.0
H991 H 0.7909 0.18843 0.79561 0.0
C992 C 0.72974 0.23371 0.31947 0.0
C993 C 0.75778 0.2145 0.30899 0.0
C994 C 0.73224 0.26909 0.32229 0.0
C995 C 0.79445 0.3418 0.31629 0.0
H996 H 0.7173 0.38911 0.27762 0.0
C997 C 0.8035 0.46965 0.24381 0.0
C998 C 0.77817 0.49406 0.24948 0.0
C999 C 0.8015 0.43766 0.25926 0.0
C1000 C 0.73892 0.37641 0.28894 0.0
H1001 H 0.8105 0.21698 0.29401 0.0
H1002 H 0.81504 0.27794 0.29854 0.0
H1003 H 0.71254 0.32921 0.29148 0.0
H1004 H 0.73127 0.50415 0.27672 0.0
H1005 H 0.72751 0.44803 0.30315 0.0
H1006 H 0.82131 0.38885 0.31163 0.0
C1007 C 0.79124 0.26625 0.30568 0.0
C1008 C 0.73618 0.34195 0.29713 0.0
C1009 C 0.78872 0.23108 0.30312 0.0
C1010 C 0.75135 0.48606 0.27194 0.0
C1011 C 0.74904 0.45382 0.2869 0.0
C1012 C 0.79732 0.37613 0.30758 0.0
C1013 C 0.76272 0.28603 0.31404 0.0
C1014 C 0.76413 0.32385 0.31024 0.0
C1015 C 0.77382 0.42906 0.28031 0.0
C1016 C 0.76979 0.39369 0.2932 0.0
H1017 H 0.70528 0.22188 0.32296 0.0
H1018 H 0.7098 0.28324 0.32934 0.0
H1019 H 0.81636 0.32918 0.32707 0.0
H1020 H 0.82443 0.47493 0.22662 0.0
H1021 H 0.82087 0.4191 0.25345 0.0
C1022 C 0.48414 0.27323 0.72914 0.0
C1023 C 0.49535 0.24162 0.74127 0.0
C1024 C 0.4511 0.2773 0.71652 0.0
C1025 C 0.3661 0.23455 0.71894 0.0
H1026 H 0.34169 0.30695 0.65641 0.0
C1027 C 0.22761 0.25483 0.67646 0.0
C1028 C 0.21525 0.28719 0.68455 0.0
C1029 C 0.26258 0.24846 0.67593 0.0
C1030 C 0.34818 0.28654 0.67379 0.0
H1031 H 0.48126 0.18904 0.74761 0.0
H1032 H 0.42456 0.19549 0.72381 0.0
H1033 H 0.40138 0.29611 0.66899 0.0
H1034 H 0.22971 0.33858 0.69669 0.0
H1035 H 0.29086 0.32782 0.69445 0.0
H1036 H 0.31281 0.22479 0.72317 0.0
C1037 C 0.44054 0.21768 0.72541 0.0
C1038 C 0.38246 0.28043 0.68132 0.0
C1039 C 0.47334 0.2138 0.73874 0.0
C1040 C 0.23857 0.31355 0.68979 0.0
C1041 C 0.27356 0.30734 0.68862 0.0
C1042 C 0.33198 0.24024 0.71085 0.0
C1043 C 0.42844 0.24971 0.715 0.0
C1044 C 0.39203 0.25466 0.70452 0.0
C1045 C 0.28593 0.27443 0.68306 0.0
C1046 C 0.32254 0.26659 0.68859 0.0
H1047 H 0.50032 0.29531 0.73099 0.0
H1048 H 0.44303 0.30251 0.70936 0.0
H1049 H 0.37187 0.21502 0.73752 0.0
H1050 H 0.21032 0.23379 0.67347 0.0
H1051 H 0.27134 0.22286 0.6715 0.0
C1052 C 0.31471 0.78119 0.30739 0.0
C1053 C 0.28517 0.80022 0.31254 0.0
C1054 C 0.31398 0.74588 0.31007 0.0
C1055 C 0.25723 0.67136 0.33051 0.0
H1056 H 0.31172 0.6289 0.25989 0.0
C1057 C 0.22773 0.54139 0.26702 0.0
C1058 C 0.25522 0.51991 0.25962 0.0
C1059 C 0.23314 0.57353 0.28114 0.0
C1060 C 0.29668 0.64021 0.2801 0.0
H1061 H 0.232 0.7977 0.32573 0.0
H1062 H 0.23012 0.73617 0.32927 0.0
H1063 H 0.31855 0.68873 0.2713 0.0
H1064 H 0.3099 0.51482 0.26303 0.0
H1065 H 0.31929 0.57103 0.28717 0.0
H1066 H 0.23399 0.62262 0.33746 0.0
C1067 C 0.25432 0.74814 0.32432 0.0
C1068 C 0.30072 0.67469 0.2869 0.0
C1069 C 0.25533 0.78357 0.32247 0.0
C1070 C 0.28812 0.53069 0.26829 0.0
C1071 C 0.29355 0.56298 0.28197 0.0
C1072 C 0.25281 0.63686 0.32325 0.0
C1073 C 0.28334 0.72865 0.31672 0.0
C1074 C 0.28089 0.69101 0.31203 0.0
C1075 C 0.2662 0.58508 0.28781 0.0
C1076 C 0.27233 0.62097 0.29776 0.0
H1077 H 0.33799 0.79354 0.29954 0.0
H1078 H 0.3372 0.73208 0.30526 0.0
H1079 H 0.24181 0.68263 0.35041 0.0
H1080 H 0.20206 0.53387 0.26078 0.0
H1081 H 0.21156 0.59 0.28519 0.0
C1082 C 0.52262 0.74741 0.72319 0.0
C1083 C 0.5174 0.76729 0.75263 0.0
C1084 C 0.55485 0.74527 0.70801 0.0
C1085 C 0.64088 0.78571 0.7076 0.0
H1086 H 0.67172 0.69623 0.68166 0.0
C1087 C 0.78141 0.76367 0.67504 0.0
C1088 C 0.79579 0.73547 0.69139 0.0
C1089 C 0.74606 0.76682 0.67232 0.0
C1090 C 0.66358 0.72144 0.68874 0.0
H1091 H 0.54192 0.80149 0.78829 0.0
H1092 H 0.59767 0.79751 0.76232 0.0
H1093 H 0.61262 0.70485 0.69766 0.0
H1094 H 0.78481 0.68793 0.71655 0.0
H1095 H 0.72352 0.69322 0.71211 0.0
H1096 H 0.69214 0.80195 0.70077 0.0
C1097 C 0.57697 0.78383 0.75052 0.0
C1098 C 0.62946 0.72648 0.69756 0.0
C1099 C 0.54487 0.78597 0.76563 0.0
C1100 C 0.77435 0.7096 0.70316 0.0
C1101 C 0.73911 0.71272 0.70058 0.0
C1102 C 0.67497 0.78065 0.69895 0.0
C1103 C 0.58264 0.76302 0.72183 0.0
C1104 C 0.61781 0.75853 0.70801 0.0
C1105 C 0.72436 0.74202 0.68637 0.0
C1106 C 0.68706 0.74825 0.69022 0.0
H1107 H 0.50204 0.73272 0.71243 0.0
H1108 H 0.55807 0.72935 0.68568 0.0
H1109 H 0.63281 0.81089 0.71484 0.0
H1110 H 0.79719 0.7847 0.66721 0.0
H1111 H 0.73575 0.78957 0.66085 0.0
loop_
_geom_bond_atom_site_label_1
_geom_bond_atom_site_label_2
_geom_bond_distance
_geom_bond_site_symmetry_2
_ccdc_geom_bond_type
Zn0 N4 2.020 . S
Zn0 O8 2.019 . S
Zn0 N10 2.119 . S
Zn0 O18 1.975 . S
C1 N2 1.334 . S
C1 N5 1.336 . S
N2 C1 1.334 . S
N2 C3 1.334 . S
C3 N2 1.334 . S
C3 N4 1.336 . S
N4 Zn0 2.020 . S
N4 C3 1.336 . S
N4 N5 1.354 . S
N5 C1 1.336 . S
N5 N4 1.354 . S
N5 Zn9 2.020 . S
C6 O7 1.244 . S
C6 O30 1.257 . S
O7 C6 1.244 . S
O8 Zn0 2.019 . S
O8 C28 1.257 . S
Zn9 N5 2.020 . S
Zn9 O16 1.975 . S
Zn9 N25 2.119 . S
Zn9 O30 2.019 . S
N10 Zn0 2.119 . S
N10 C12 1.334 . S
N10 C13 1.328 . S
C11 C12 1.391 . S
C11 N14 1.329 . S
C11 H32 0.930 . S
C12 N10 1.334 . S
C12 C11 1.391 . S
C12 H19 0.930 . S
C13 N10 1.328 . S
C13 C15 1.392 . S
C13 H20 0.930 . S
N14 C11 1.329 . S
N14 C15 1.331 . S
C15 C13 1.392 . S
C15 N14 1.331 . S
O16 Zn9 1.975 . S
O16 C17 1.252 . S
C17 O16 1.252 . S
C17 O18 1.252 . S
O18 Zn0 1.975 . S
O18 C17 1.252 . S
H19 C12 0.930 . S
H20 C13 0.930 . S
C21 C22 1.392 . S
C21 N25 1.328 . S
C21 H27 0.930 . S
C22 C21 1.392 . S
C22 N26 1.331 . S
C23 C24 1.391 . S
C23 N26 1.329 . S
C23 H33 0.930 . S
C24 C23 1.391 . S
C24 N25 1.334 . S
C24 H31 0.930 . S
N25 Zn9 2.119 . S
N25 C21 1.328 . S
N25 C24 1.334 . S
N26 C22 1.331 . S
N26 C23 1.329 . S
H27 C21 0.930 . S
C28 O8 1.257 . S
C28 O29 1.244 . S
O29 C28 1.244 . S
O30 C6 1.257 . S
O30 Zn9 2.019 . S
H31 C24 0.930 . S
H32 C11 0.930 . S
H33 C23 0.930 . S
Zn34 N38 2.020 . S
Zn34 O42 2.019 . S
Zn34 N44 2.119 . S
Zn34 O52 1.975 . S
C35 N36 1.334 . S
C35 N39 1.336 . S
N36 C35 1.334 . S
N36 C37 1.334 . S
C37 N36 1.334 . S
C37 N38 1.336 . S
N38 Zn34 2.020 . S
N38 C37 1.336 . S
N38 N39 1.354 . S
N39 C35 1.336 . S
N39 N38 1.354 . S
N39 Zn43 2.020 . S
C40 O41 1.244 . S
C40 O64 1.257 . S
O41 C40 1.244 . S
O42 Zn34 2.019 . S
O42 C62 1.257 . S
Zn43 N39 2.020 . S
Zn43 O50 1.975 . S
Zn43 N59 2.119 . S
Zn43 O64 2.019 . S
N44 Zn34 2.119 . S
N44 C46 1.334 . S
N44 C47 1.328 . S
C45 C46 1.391 . S
C45 N48 1.329 . S
C45 H66 0.930 . S
C46 N44 1.334 . S
C46 C45 1.391 . S
C46 H53 0.930 . S
C47 N44 1.328 . S
C47 C49 1.392 . S
C47 H54 0.930 . S
N48 C45 1.329 . S
N48 C49 1.331 . S
C49 C47 1.392 . S
C49 N48 1.331 . S
O50 Zn43 1.975 . S
O50 C51 1.252 . S
C51 O50 1.252 . S
C51 O52 1.252 . S
O52 Zn34 1.975 . S
O52 C51 1.252 . S
H53 C46 0.930 . S
H54 C47 0.930 . S
C55 C56 1.392 . S
C55 N59 1.328 . S
C55 H61 0.930 . S
C56 C55 1.392 . S
C56 N60 1.331 . S
C57 C58 1.391 . S
C57 N60 1.329 . S
C57 H67 0.930 . S
C58 C57 1.391 . S
C58 N59 1.334 . S
C58 H65 0.930 . S
N59 Zn43 2.119 . S
N59 C55 1.328 . S
N59 C58 1.334 . S
N60 C56 1.331 . S
N60 C57 1.329 . S
H61 C55 0.930 . S
C62 O42 1.257 . S
C62 O63 1.244 . S
O63 C62 1.244 . S
O64 C40 1.257 . S
O64 Zn43 2.019 . S
H65 C58 0.930 . S
H66 C45 0.930 . S
H67 C57 0.930 . S
Zn68 N72 2.020 . S
Zn68 O76 2.019 . S
Zn68 N78 2.119 . S
Zn68 O86 1.975 . S
C69 N70 1.334 . S
C69 N73 1.336 . S
N70 C69 1.334 . S
N70 C71 1.334 . S
C71 N70 1.334 . S
C71 N72 1.336 . S
N72 Zn68 2.020 . S
N72 C71 1.336 . S
N72 N73 1.354 . S
N73 C69 1.336 . S
N73 N72 1.354 . S
N73 Zn77 2.020 . S
C74 O75 1.244 . S
C74 O98 1.257 . S
O75 C74 1.244 . S
O76 Zn68 2.019 . S
O76 C96 1.257 . S
Zn77 N73 2.020 . S
Zn77 O84 1.975 . S
Zn77 N93 2.119 . S
Zn77 O98 2.019 . S
N78 Zn68 2.119 . S
N78 C80 1.334 . S
N78 C81 1.328 . S
C79 C80 1.391 . S
C79 N82 1.329 . S
C79 H100 0.930 . S
C80 N78 1.334 . S
C80 C79 1.391 . S
C80 H87 0.930 . S
C81 N78 1.328 . S
C81 C83 1.392 . S
C81 H88 0.930 . S
N82 C79 1.329 . S
N82 C83 1.331 . S
C83 C81 1.392 . S
C83 N82 1.331 . S
O84 Zn77 1.975 . S
O84 C85 1.252 . S
C85 O84 1.252 . S
C85 O86 1.252 . S
O86 Zn68 1.975 . S
O86 C85 1.252 . S
H87 C80 0.930 . S
H88 C81 0.930 . S
C89 C90 1.392 . S
C89 N93 1.328 . S
C89 H95 0.930 . S
C90 C89 1.392 . S
C90 N94 1.331 . S
C91 C92 1.391 . S
C91 N94 1.329 . S
C91 H101 0.930 . S
C92 C91 1.391 . S
C92 N93 1.334 . S
C92 H99 0.930 . S
N93 Zn77 2.119 . S
N93 C89 1.328 . S
N93 C92 1.334 . S
N94 C90 1.331 . S
N94 C91 1.329 . S
H95 C89 0.930 . S
C96 O76 1.257 . S
C96 O97 1.244 . S
O97 C96 1.244 . S
O98 C74 1.257 . S
O98 Zn77 2.019 . S
H99 C92 0.930 . S
H100 C79 0.930 . S
H101 C91 0.930 . S
Zn102 N106 2.020 . S
Zn102 O110 2.019 . S
Zn102 N112 2.119 . S
Zn102 O120 1.975 . S
C103 N104 1.334 . S
C103 N107 1.336 . S
N104 C103 1.334 . S
N104 C105 1.334 . S
C105 N104 1.334 . S
C105 N106 1.336 . S
N106 Zn102 2.020 . S
N106 C105 1.336 . S
N106 N107 1.354 . S
N107 C103 1.336 . S
N107 N106 1.354 . S
N107 Zn111 2.020 . S
C108 O109 1.244 . S
C108 O132 1.257 . S
O109 C108 1.244 . S
O110 Zn102 2.019 . S
O110 C130 1.257 . S
Zn111 N107 2.020 . S
Zn111 O118 1.975 . S
Zn111 N127 2.119 . S
Zn111 O132 2.019 . S
N112 Zn102 2.119 . S
N112 C114 1.334 . S
N112 C115 1.328 . S
C113 C114 1.391 . S
C113 N116 1.329 . S
C113 H134 0.930 . S
C114 N112 1.334 . S
C114 C113 1.391 . S
C114 H121 0.930 . S
C115 N112 1.328 . S
C115 C117 1.392 . S
C115 H122 0.930 . S
N116 C113 1.329 . S
N116 C117 1.331 . S
C117 C115 1.392 . S
C117 N116 1.331 . S
O118 Zn111 1.975 . S
O118 C119 1.252 . S
C119 O118 1.252 . S
C119 O120 1.252 . S
O120 Zn102 1.975 . S
O120 C119 1.252 . S
H121 C114 0.930 . S
H122 C115 0.930 . S
C123 C124 1.392 . S
C123 N127 1.328 . S
C123 H129 0.930 . S
C124 C123 1.392 . S
C124 N128 1.331 . S
C125 C126 1.391 . S
C125 N128 1.329 . S
C125 H135 0.930 . S
C126 C125 1.391 . S
C126 N127 1.334 . S
C126 H133 0.930 . S
N127 Zn111 2.119 . S
N127 C123 1.328 . S
N127 C126 1.334 . S
N128 C124 1.331 . S
N128 C125 1.329 . S
H129 C123 0.930 . S
C130 O110 1.257 . S
C130 O131 1.244 . S
O131 C130 1.244 . S
O132 C108 1.257 . S
O132 Zn111 2.019 . S
H133 C126 0.930 . S
H134 C113 0.930 . S
H135 C125 0.930 . S
Zn136 N140 2.020 . S
Zn136 O144 2.019 . S
Zn136 N146 2.119 . S
Zn136 O154 1.975 . S
C137 N138 1.334 . S
C137 N141 1.336 . S
N138 C137 1.334 . S
N138 C139 1.334 . S
C139 N138 1.334 . S
C139 N140 1.336 . S
N140 Zn136 2.020 . S
N140 C139 1.336 . S
N140 N141 1.354 . S
N141 C137 1.336 . S
N141 N140 1.354 . S
N141 Zn145 2.020 . S
C142 O143 1.244 1_565 S
C142 O166 1.257 . S
O143 C142 1.244 1_545 S
O144 Zn136 2.019 . S
O144 C164 1.257 . S
Zn145 N141 2.020 . S
Zn145 O152 1.975 . S
Zn145 N161 2.119 . S
Zn145 O166 2.003 1_545 S
N146 Zn136 2.119 . S
N146 C148 1.334 . S
N146 C149 1.328 . S
C147 C148 1.391 . S
C147 N150 1.329 . S
C147 H168 0.930 . S
C148 N146 1.334 . S
C148 C147 1.391 . S
C148 H155 0.930 . S
C149 N146 1.328 . S
C149 C151 1.392 . S
C149 H156 0.930 . S
N150 C147 1.329 . S
N150 C151 1.331 . S
C151 C149 1.392 . S
C151 N150 1.331 . S
O152 Zn145 1.975 . S
O152 C153 1.252 . S
C153 O152 1.252 . S
C153 O154 1.252 . S
O154 Zn136 1.975 . S
O154 C153 1.252 . S
H155 C148 0.930 . S
H156 C149 0.930 . S
C157 C158 1.392 . S
C157 N161 1.328 . S
C157 H163 0.930 . S
C158 C157 1.392 . S
C158 N162 1.331 . S
C159 C160 1.391 . S
C159 N162 1.329 . S
C159 H169 0.930 . S
C160 C159 1.391 . S
C160 N161 1.334 . S
C160 H167 0.930 . S
N161 Zn145 2.119 . S
N161 C157 1.328 . S
N161 C160 1.334 . S
N162 C158 1.331 . S
N162 C159 1.329 . S
H163 C157 0.930 . S
C164 O144 1.257 . S
C164 O165 1.244 . S
O165 C164 1.244 . S
O166 C142 1.257 . S
O166 Zn145 2.003 1_565 S
H167 C160 0.930 . S
H168 C147 0.930 . S
H169 C159 0.930 . S
Zn170 N174 2.020 . S
Zn170 O178 2.003 1_455 S
Zn170 N180 2.119 . S
Zn170 O188 1.975 . S
C171 N172 1.334 . S
C171 N175 1.336 . S
N172 C171 1.334 . S
N172 C173 1.334 . S
C173 N172 1.334 . S
C173 N174 1.336 . S
N174 Zn170 2.020 . S
N174 C173 1.336 . S
N174 N175 1.354 . S
N175 C171 1.336 . S
N175 N174 1.354 . S
N175 Zn179 2.020 . S
C176 O177 1.244 . S
C176 O200 1.257 . S
O177 C176 1.244 . S
O178 Zn170 2.003 1_655 S
O178 C198 1.257 . S
Zn179 N175 2.020 . S
Zn179 O186 1.975 . S
Zn179 N195 2.119 . S
Zn179 O200 2.019 . S
N180 Zn170 2.119 . S
N180 C182 1.334 . S
N180 C183 1.328 . S
C181 C182 1.391 . S
C181 N184 1.329 . S
C181 H202 0.930 . S
C182 N180 1.334 . S
C182 C181 1.391 . S
C182 H189 0.930 . S
C183 N180 1.328 . S
C183 C185 1.392 . S
C183 H190 0.930 . S
N184 C181 1.329 . S
N184 C185 1.331 . S
C185 C183 1.392 . S
C185 N184 1.331 . S
O186 Zn179 1.975 . S
O186 C187 1.252 . S
C187 O186 1.252 . S
C187 O188 1.252 . S
O188 Zn170 1.975 . S
O188 C187 1.252 . S
H189 C182 0.930 . S
H190 C183 0.930 . S
C191 C192 1.392 . S
C191 N195 1.328 . S
C191 H197 0.930 . S
C192 C191 1.392 . S
C192 N196 1.331 . S
C193 C194 1.391 . S
C193 N196 1.329 . S
C193 H203 0.930 . S
C194 C193 1.391 . S
C194 N195 1.334 . S
C194 H201 0.930 . S
N195 Zn179 2.119 . S
N195 C191 1.328 . S
N195 C194 1.334 . S
N196 C192 1.331 . S
N196 C193 1.329 . S
H197 C191 0.930 . S
C198 O178 1.257 . S
C198 O199 1.244 1_655 S
O199 C198 1.244 1_455 S
O200 C176 1.257 . S
O200 Zn179 2.019 . S
H201 C194 0.930 . S
H202 C181 0.930 . S
H203 C193 0.930 . S
Zn204 N208 2.020 . S
Zn204 O212 2.019 . S
Zn204 N214 2.119 . S
Zn204 O222 1.975 . S
C205 N206 1.334 . S
C205 N209 1.336 . S
N206 C205 1.334 . S
N206 C207 1.334 . S
C207 N206 1.334 . S
C207 N208 1.336 . S
N208 Zn204 2.020 . S
N208 C207 1.336 . S
N208 N209 1.354 . S
N209 C205 1.336 . S
N209 N208 1.354 . S
N209 Zn213 2.020 . S
C210 O211 1.244 1_545 S
C210 O234 1.257 . S
O211 C210 1.244 1_565 S
O212 Zn204 2.019 . S
O212 C232 1.257 . S
Zn213 N209 2.020 . S
Zn213 O220 1.975 . S
Zn213 N229 2.119 . S
Zn213 O234 2.003 1_565 S
N214 Zn204 2.119 . S
N214 C216 1.334 . S
N214 C217 1.328 . S
C215 C216 1.391 . S
C215 N218 1.329 . S
C215 H236 0.930 . S
C216 N214 1.334 . S
C216 C215 1.391 . S
C216 H223 0.930 . S
C217 N214 1.328 . S
C217 C219 1.392 . S
C217 H224 0.930 . S
N218 C215 1.329 . S
N218 C219 1.331 . S
C219 C217 1.392 . S
C219 N218 1.331 . S
O220 Zn213 1.975 . S
O220 C221 1.252 . S
C221 O220 1.252 . S
C221 O222 1.252 . S
O222 Zn204 1.975 . S
O222 C221 1.252 . S
H223 C216 0.930 . S
H224 C217 0.930 . S
C225 C226 1.392 . S
C225 N229 1.328 . S
C225 H231 0.930 . S
C226 C225 1.392 . S
C226 N230 1.331 . S
C227 C228 1.391 . S
C227 N230 1.329 . S
C227 H237 0.930 . S
C228 C227 1.391 . S
C228 N229 1.334 . S
C228 H235 0.930 . S
N229 Zn213 2.119 . S
N229 C225 1.328 . S
N229 C228 1.334 . S
N230 C226 1.331 . S
N230 C227 1.329 . S
H231 C225 0.930 . S
C232 O212 1.257 . S
C232 O233 1.244 . S
O233 C232 1.244 . S
O234 C210 1.257 . S
O234 Zn213 2.003 1_545 S
H235 C228 0.930 . S
H236 C215 0.930 . S
H237 C227 0.930 . S
Zn238 N242 2.020 . S
Zn238 O246 2.003 1_655 S
Zn238 N248 2.119 . S
Zn238 O256 1.975 . S
C239 N240 1.334 . S
C239 N243 1.336 . S
N240 C239 1.334 . S
N240 C241 1.334 . S
C241 N240 1.334 . S
C241 N242 1.336 . S
N242 Zn238 2.020 . S
N242 C241 1.336 . S
N242 N243 1.354 . S
N243 C239 1.336 . S
N243 N242 1.354 . S
N243 Zn247 2.020 . S
C244 O245 1.244 . S
C244 O268 1.257 . S
O245 C244 1.244 . S
O246 Zn238 2.003 1_455 S
O246 C266 1.257 . S
Zn247 N243 2.020 . S
Zn247 O254 1.975 . S
Zn247 N263 2.119 . S
Zn247 O268 2.019 . S
N248 Zn238 2.119 . S
N248 C250 1.334 . S
N248 C251 1.328 . S
C249 C250 1.391 . S
C249 N252 1.329 . S
C249 H270 0.930 . S
C250 N248 1.334 . S
C250 C249 1.391 . S
C250 H257 0.930 . S
C251 N248 1.328 . S
C251 C253 1.392 . S
C251 H258 0.930 . S
N252 C249 1.329 . S
N252 C253 1.331 . S
C253 C251 1.392 . S
C253 N252 1.331 . S
O254 Zn247 1.975 . S
O254 C255 1.252 . S
C255 O254 1.252 . S
C255 O256 1.252 . S
O256 Zn238 1.975 . S
O256 C255 1.252 . S
H257 C250 0.930 . S
H258 C251 0.930 . S
C259 C260 1.392 . S
C259 N263 1.328 . S
C259 H265 0.930 . S
C260 C259 1.392 . S
C260 N264 1.331 . S
C261 C262 1.391 . S
C261 N264 1.329 . S
C261 H271 0.930 . S
C262 C261 1.391 . S
C262 N263 1.334 . S
C262 H269 0.930 . S
N263 Zn247 2.119 . S
N263 C259 1.328 . S
N263 C262 1.334 . S
N264 C260 1.331 . S
N264 C261 1.329 . S
H265 C259 0.930 . S
C266 O246 1.257 . S
C266 O267 1.244 1_455 S
O267 C266 1.244 1_655 S
O268 C244 1.257 . S
O268 Zn247 2.019 . S
H269 C262 0.930 . S
H270 C249 0.930 . S
H271 C261 0.930 . S
C272 C273 1.350 . S
C272 C274 1.326 1_554 S
C272 H297 0.950 . S
C273 C272 1.350 . S
C273 C289 1.349 . S
C274 C272 1.326 1_556 S
C274 C293 1.429 . S
C274 H298 0.950 . S
C275 C292 1.574 . S
C275 C294 1.368 . S
C275 H299 0.949 . S
H276 C280 0.949 . S
C277 C278 1.349 . S
C277 C279 1.327 . S
C277 H300 0.950 . S
C278 C277 1.349 . S
C278 C290 1.349 . S
C279 C277 1.327 . S
C279 C295 1.429 . S
C279 H301 0.950 . S
C280 H276 0.949 . S
C280 C288 1.574 . S
C280 C296 1.368 . S
H281 C289 0.950 . S
H282 C287 0.950 . S
H283 C288 0.949 . S
H284 C290 0.950 . S
H285 C291 0.950 . S
H286 C292 0.949 . S
C287 H282 0.950 . S
C287 C289 1.327 1_556 S
C287 C293 1.429 . S
C288 C280 1.574 . S
C288 H283 0.949 . S
C288 C294 1.368 . S
C289 C273 1.349 . S
C289 H281 0.950 . S
C289 C287 1.327 1_554 S
C290 C278 1.349 . S
C290 H284 0.950 . S
C290 C291 1.327 . S
C291 H285 0.950 . S
C291 C290 1.327 . S
C291 C295 1.429 . S
C292 C275 1.574 . S
C292 H286 0.949 . S
C292 C296 1.368 . S
C293 C274 1.429 . S
C293 C287 1.429 . S
C293 C294 1.523 . S
C294 C275 1.368 . S
C294 C288 1.368 . S
C294 C293 1.523 . S
C295 C279 1.429 . S
C295 C291 1.429 . S
C295 C296 1.523 . S
C296 C280 1.368 . S
C296 C292 1.368 . S
C296 C295 1.523 . S
H297 C272 0.950 . S
H298 C274 0.950 . S
H299 C275 0.949 . S
H300 C277 0.950 . S
H301 C279 0.950 . S
C302 C303 1.357 . S
C302 C304 1.318 1_556 S
C302 H327 0.951 . S
C303 C302 1.357 . S
C303 C319 1.349 . S
C304 C302 1.318 1_554 S
C304 C323 1.429 . S
C304 H328 0.950 . S
C305 C322 1.574 . S
C305 C324 1.368 . S
C305 H329 0.949 . S
H306 C310 0.949 . S
C307 C308 1.349 . S
C307 C309 1.327 . S
C307 H330 0.950 . S
C308 C307 1.349 . S
C308 C320 1.349 . S
C309 C307 1.327 . S
C309 C325 1.429 . S
C309 H331 0.950 . S
C310 H306 0.949 . S
C310 C318 1.574 . S
C310 C326 1.368 . S
H311 C319 0.950 . S
H312 C317 0.950 . S
H313 C318 0.949 . S
H314 C320 0.950 . S
H315 C321 0.950 . S
H316 C322 0.949 . S
C317 H312 0.950 . S
C317 C319 1.327 1_554 S
C317 C323 1.429 . S
C318 C310 1.574 . S
C318 H313 0.949 . S
C318 C324 1.368 . S
C319 C303 1.349 . S
C319 H311 0.950 . S
C319 C317 1.327 1_556 S
C320 C308 1.349 . S
C320 H314 0.950 . S
C320 C321 1.327 . S
C321 H315 0.950 . S
C321 C320 1.327 . S
C321 C325 1.429 . S
C322 C305 1.574 . S
C322 H316 0.949 . S
C322 C326 1.368 . S
C323 C304 1.429 . S
C323 C317 1.429 . S
C323 C324 1.523 . S
C324 C305 1.368 . S
C324 C318 1.368 . S
C324 C323 1.523 . S
C325 C309 1.429 . S
C325 C321 1.429 . S
C325 C326 1.523 . S
C326 C310 1.368 . S
C326 C322 1.368 . S
C326 C325 1.523 . S
H327 C302 0.951 . S
H328 C304 0.950 . S
H329 C305 0.949 . S
H330 C307 0.950 . S
H331 C309 0.950 . S
C332 C333 1.349 . S
C332 C334 1.327 . S
C332 H357 0.950 . S
C333 C332 1.349 . S
C333 C349 1.349 . S
C334 C332 1.327 . S
C334 C353 1.429 . S
C334 H358 0.950 . S
C335 C352 1.574 . S
C335 C354 1.368 . S
C335 H359 0.949 . S
H336 C340 0.949 . S
C337 C338 1.349 . S
C337 C339 1.327 1_554 S
C337 H360 0.950 . S
C338 C337 1.349 . S
C338 C350 1.349 . S
C339 C337 1.327 1_556 S
C339 C355 1.429 . S
C339 H361 0.950 . S
C340 H336 0.949 . S
C340 C348 1.574 . S
C340 C356 1.368 . S
H341 C349 0.950 . S
H342 C347 0.950 . S
H343 C348 0.949 . S
H344 C350 0.950 . S
H345 C351 0.950 . S
H346 C352 0.949 . S
C347 H342 0.950 . S
C347 C349 1.327 . S
C347 C353 1.429 . S
C348 C340 1.574 . S
C348 H343 0.949 . S
C348 C354 1.368 . S
C349 C333 1.349 . S
C349 H341 0.950 . S
C349 C347 1.327 . S
C350 C338 1.349 . S
C350 H344 0.950 . S
C350 C351 1.327 1_554 S
C351 H345 0.950 . S
C351 C350 1.327 1_556 S
C351 C355 1.429 . S
C352 C335 1.574 . S
C352 H346 0.949 . S
C352 C356 1.368 . S
C353 C334 1.429 . S
C353 C347 1.429 . S
C353 C354 1.523 . S
C354 C335 1.368 . S
C354 C348 1.368 . S
C354 C353 1.523 . S
C355 C339 1.429 . S
C355 C351 1.429 . S
C355 C356 1.523 . S
C356 C340 1.368 . S
C356 C352 1.368 . S
C356 C355 1.523 . S
H357 C332 0.950 . S
H358 C334 0.950 . S
H359 C335 0.949 . S
H360 C337 0.950 . S
H361 C339 0.950 . S
C362 C363 1.349 . S
C362 C364 1.327 . S
C362 H387 0.950 . S
C363 C362 1.349 . S
C363 C379 1.349 . S
C364 C362 1.327 . S
C364 C383 1.429 . S
C364 H388 0.950 . S
C365 C382 1.574 . S
C365 C384 1.368 . S
C365 H389 0.949 . S
H366 C370 0.949 . S
C367 C368 1.349 . S
C367 C369 1.327 1_556 S
C367 H390 0.950 . S
C368 C367 1.349 . S
C368 C380 1.349 . S
C369 C367 1.327 1_554 S
C369 C385 1.429 . S
C369 H391 0.950 . S
C370 H366 0.949 . S
C370 C378 1.574 . S
C370 C386 1.368 . S
H371 C379 0.950 . S
H372 C377 0.950 . S
H373 C378 0.949 . S
H374 C380 0.950 . S
H375 C381 0.950 . S
H376 C382 0.949 . S
C377 H372 0.950 . S
C377 C379 1.327 . S
C377 C383 1.429 . S
C378 C370 1.574 . S
C378 H373 0.949 . S
C378 C384 1.368 . S
C379 C363 1.349 . S
C379 H371 0.950 . S
C379 C377 1.327 . S
C380 C368 1.349 . S
C380 H374 0.950 . S
C380 C381 1.327 1_556 S
C381 H375 0.950 . S
C381 C380 1.327 1_554 S
C381 C385 1.429 . S
C382 C365 1.574 . S
C382 H376 0.949 . S
C382 C386 1.368 . S
C383 C364 1.429 . S
C383 C377 1.429 . S
C383 C384 1.523 . S
C384 C365 1.368 . S
C384 C378 1.368 . S
C384 C383 1.523 . S
C385 C369 1.429 . S
C385 C381 1.429 . S
C385 C386 1.523 . S
C386 C370 1.368 . S
C386 C382 1.368 . S
C386 C385 1.523 . S
H387 C362 0.950 . S
H388 C364 0.950 . S
H389 C365 0.949 . S
H390 C367 0.950 . S
H391 C369 0.950 . S
C392 C393 1.349 . S
C392 C394 1.327 . S
C392 H417 0.950 . S
C393 C392 1.349 . S
C393 C409 1.349 . S
C394 C392 1.327 . S
C394 C413 1.429 . S
C394 H418 0.950 . S
C395 C412 1.574 . S
C395 C414 1.368 . S
C395 H419 0.949 . S
H396 C400 0.949 . S
C397 C398 1.349 . S
C397 C399 1.327 . S
C397 H420 0.950 . S
C398 C397 1.349 . S
C398 C410 1.349 . S
C399 C397 1.327 . S
C399 C415 1.429 . S
C399 H421 0.950 . S
C400 H396 0.949 . S
C400 C408 1.574 . S
C400 C416 1.368 . S
H401 C409 0.950 . S
H402 C407 0.950 . S
H403 C408 0.949 . S
H404 C410 0.950 . S
H405 C411 0.950 . S
H406 C412 0.949 . S
C407 H402 0.950 . S
C407 C409 1.327 . S
C407 C413 1.429 . S
C408 C400 1.574 . S
C408 H403 0.949 . S
C408 C414 1.368 . S
C409 C393 1.349 . S
C409 H401 0.950 . S
C409 C407 1.327 . S
C410 C398 1.349 . S
C410 H404 0.950 . S
C410 C411 1.327 . S
C411 H405 0.950 . S
C411 C410 1.327 . S
C411 C415 1.429 . S
C412 C395 1.574 . S
C412 H406 0.949 . S
C412 C416 1.368 . S
C413 C394 1.429 . S
C413 C407 1.429 . S
C413 C414 1.523 . S
C414 C395 1.368 . S
C414 C408 1.368 . S
C414 C413 1.523 . S
C415 C399 1.429 . S
C415 C411 1.429 . S
C415 C416 1.523 . S
C416 C400 1.368 . S
C416 C412 1.368 . S
C416 C415 1.523 . S
H417 C392 0.950 . S
H418 C394 0.950 . S
H419 C395 0.949 . S
H420 C397 0.950 . S
H421 C399 0.950 . S
C422 C423 1.349 . S
C422 C424 1.327 . S
C422 H447 0.950 . S
C423 C422 1.349 . S
C423 C439 1.349 . S
C424 C422 1.327 . S
C424 C443 1.429 . S
C424 H448 0.950 . S
C425 C442 1.574 . S
C425 C444 1.368 . S
C425 H449 0.949 . S
H426 C430 0.949 . S
C427 C428 1.349 . S
C427 C429 1.327 . S
C427 H450 0.950 . S
C428 C427 1.349 . S
C428 C440 1.349 . S
C429 C427 1.327 . S
C429 C445 1.429 . S
C429 H451 0.950 . S
C430 H426 0.949 . S
C430 C438 1.574 . S
C430 C446 1.368 . S
H431 C439 0.950 . S
H432 C437 0.950 . S
H433 C438 0.949 . S
H434 C440 0.950 . S
H435 C441 0.950 . S
H436 C442 0.949 . S
C437 H432 0.950 . S
C437 C439 1.327 . S
C437 C443 1.429 . S
C438 C430 1.574 . S
C438 H433 0.949 . S
C438 C444 1.368 . S
C439 C423 1.349 . S
C439 H431 0.950 . S
C439 C437 1.327 . S
C440 C428 1.349 . S
C440 H434 0.950 . S
C440 C441 1.327 . S
C441 H435 0.950 . S
C441 C440 1.327 . S
C441 C445 1.429 . S
C442 C425 1.574 . S
C442 H436 0.949 . S
C442 C446 1.368 . S
C443 C424 1.429 . S
C443 C437 1.429 . S
C443 C444 1.523 . S
C444 C425 1.368 . S
C444 C438 1.368 . S
C444 C443 1.523 . S
C445 C429 1.429 . S
C445 C441 1.429 . S
C445 C446 1.523 . S
C446 C430 1.368 . S
C446 C442 1.368 . S
C446 C445 1.523 . S
H447 C422 0.950 . S
H448 C424 0.950 . S
H449 C425 0.949 . S
H450 C427 0.950 . S
H451 C429 0.950 . S
C452 C453 1.349 . S
C452 C454 1.327 . S
C452 H477 0.950 . S
C453 C452 1.349 . S
C453 C469 1.349 . S
C454 C452 1.327 . S
C454 C473 1.429 . S
C454 H478 0.950 . S
C455 C472 1.574 . S
C455 C474 1.368 . S
C455 H479 0.949 . S
H456 C460 0.949 . S
C457 C458 1.349 . S
C457 C459 1.327 . S
C457 H480 0.950 . S
C458 C457 1.349 . S
C458 C470 1.349 . S
C459 C457 1.327 . S
C459 C475 1.429 . S
C459 H481 0.950 . S
C460 H456 0.949 . S
C460 C468 1.574 . S
C460 C476 1.368 . S
H461 C469 0.950 . S
H462 C467 0.950 . S
H463 C468 0.949 . S
H464 C470 0.950 . S
H465 C471 0.950 . S
H466 C472 0.949 . S
C467 H462 0.950 . S
C467 C469 1.327 . S
C467 C473 1.429 . S
C468 C460 1.574 . S
C468 H463 0.949 . S
C468 C474 1.368 . S
C469 C453 1.349 . S
C469 H461 0.950 . S
C469 C467 1.327 . S
C470 C458 1.349 . S
C470 H464 0.950 . S
C470 C471 1.327 . S
C471 H465 0.950 . S
C471 C470 1.327 . S
C471 C475 1.429 . S
C472 C455 1.574 . S
C472 H466 0.949 . S
C472 C476 1.368 . S
C473 C454 1.429 . S
C473 C467 1.429 . S
C473 C474 1.523 . S
C474 C455 1.368 . S
C474 C468 1.368 . S
C474 C473 1.523 . S
C475 C459 1.429 . S
C475 C471 1.429 . S
C475 C476 1.523 . S
C476 C460 1.368 . S
C476 C472 1.368 . S
C476 C475 1.523 . S
H477 C452 0.950 . S
H478 C454 0.950 . S
H479 C455 0.949 . S
H480 C457 0.950 . S
H481 C459 0.950 . S
C482 C483 1.349 . S
C482 C484 1.327 . S
C482 H507 0.950 . S
C483 C482 1.349 . S
C483 C499 1.349 . S
C484 C482 1.327 . S
C484 C503 1.429 . S
C484 H508 0.950 . S
C485 C502 1.574 . S
C485 C504 1.368 . S
C485 H509 0.949 . S
H486 C490 0.949 . S
C487 C488 1.349 . S
C487 C489 1.327 . S
C487 H510 0.950 . S
C488 C487 1.349 . S
C488 C500 1.349 . S
C489 C487 1.327 . S
C489 C505 1.429 . S
C489 H511 0.950 . S
C490 H486 0.949 . S
C490 C498 1.574 . S
C490 C506 1.368 . S
H491 C499 0.950 . S
H492 C497 0.950 . S
H493 C498 0.949 . S
H494 C500 0.950 . S
H495 C501 0.950 . S
H496 C502 0.949 . S
C497 H492 0.950 . S
C497 C499 1.327 . S
C497 C503 1.429 . S
C498 C490 1.574 . S
C498 H493 0.949 . S
C498 C504 1.368 . S
C499 C483 1.349 . S
C499 H491 0.950 . S
C499 C497 1.327 . S
C500 C488 1.349 . S
C500 H494 0.950 . S
C500 C501 1.327 . S
C501 H495 0.950 . S
C501 C500 1.327 . S
C501 C505 1.429 . S
C502 C485 1.574 . S
C502 H496 0.949 . S
C502 C506 1.368 . S
C503 C484 1.429 . S
C503 C497 1.429 . S
C503 C504 1.523 . S
C504 C485 1.368 . S
C504 C498 1.368 . S
C504 C503 1.523 . S
C505 C489 1.429 . S
C505 C501 1.429 . S
C505 C506 1.523 . S
C506 C490 1.368 . S
C506 C502 1.368 . S
C506 C505 1.523 . S
H507 C482 0.950 . S
H508 C484 0.950 . S
H509 C485 0.949 . S
H510 C487 0.950 . S
H511 C489 0.950 . S
C512 C513 1.349 . S
C512 C514 1.327 . S
C512 H537 0.950 . S
C513 C512 1.349 . S
C513 C529 1.349 . S
C514 C512 1.327 . S
C514 C533 1.429 . S
C514 H538 0.950 . S
C515 C532 1.574 . S
C515 C534 1.368 . S
C515 H539 0.949 . S
H516 C520 0.949 . S
C517 C518 1.349 . S
C517 C519 1.327 . S
C517 H540 0.950 . S
C518 C517 1.349 . S
C518 C530 1.349 . S
C519 C517 1.327 . S
C519 C535 1.429 . S
C519 H541 0.950 . S
C520 H516 0.949 . S
C520 C528 1.574 1_554 S
C520 C536 1.368 . S
H521 C529 0.950 . S
H522 C527 0.950 . S
H523 C528 0.949 . S
H524 C530 0.950 . S
H525 C531 0.950 . S
H526 C532 0.949 . S
C527 H522 0.950 . S
C527 C529 1.327 . S
C527 C533 1.429 . S
C528 C520 1.574 1_556 S
C528 H523 0.949 . S
C528 C534 1.368 . S
C529 C513 1.349 . S
C529 H521 0.950 . S
C529 C527 1.327 . S
C530 C518 1.349 . S
C530 H524 0.950 . S
C530 C531 1.327 . S
C531 H525 0.950 . S
C531 C530 1.327 . S
C531 C535 1.429 . S
C532 C515 1.574 . S
C532 H526 0.949 . S
C532 C536 1.368 1_556 S
C533 C514 1.429 . S
C533 C527 1.429 . S
C533 C534 1.523 . S
C534 C515 1.368 . S
C534 C528 1.368 . S
C534 C533 1.523 . S
C535 C519 1.429 . S
C535 C531 1.429 . S
C535 C536 1.523 . S
C536 C520 1.368 . S
C536 C532 1.368 1_554 S
C536 C535 1.523 . S
H537 C512 0.950 . S
H538 C514 0.950 . S
H539 C515 0.949 . S
H540 C517 0.950 . S
H541 C519 0.950 . S
C542 C543 1.349 . S
C542 C544 1.327 . S
C542 H567 0.950 . S
C543 C542 1.349 . S
C543 C559 1.349 . S
C544 C542 1.327 . S
C544 C563 1.429 . S
C544 H568 0.950 . S
C545 C562 1.562 1_554 S
C545 C564 1.387 . S
C545 H569 0.943 1_554 S
H546 C550 0.949 . S
C547 C548 1.349 . S
C547 C549 1.327 . S
C547 H570 0.950 . S
C548 C547 1.349 . S
C548 C560 1.349 . S
C549 C547 1.327 . S
C549 C565 1.429 . S
C549 H571 0.950 . S
C550 H546 0.949 . S
C550 C558 1.574 . S
C550 C566 1.368 1_554 S
H551 C559 0.950 . S
H552 C557 0.950 . S
H553 C558 0.949 . S
H554 C560 0.950 . S
H555 C561 0.950 1_554 S
H556 C562 0.949 . S
C557 H552 0.950 . S
C557 C559 1.327 . S
C557 C563 1.429 . S
C558 C550 1.574 . S
C558 H553 0.949 . S
C558 C564 1.368 . S
C559 C543 1.349 . S
C559 H551 0.950 . S
C559 C557 1.327 . S
C560 C548 1.349 . S
C560 H554 0.950 . S
C560 C561 1.327 . S
C561 H555 0.950 1_556 S
C561 C560 1.327 . S
C561 C565 1.429 . S
C562 C545 1.562 1_556 S
C562 H556 0.949 . S
C562 C566 1.368 . S
C563 C544 1.429 . S
C563 C557 1.429 . S
C563 C564 1.523 . S
C564 C545 1.387 . S
C564 C558 1.368 . S
C564 C563 1.523 . S
C565 C549 1.429 . S
C565 C561 1.429 . S
C565 C566 1.523 . S
C566 C550 1.368 1_556 S
C566 C562 1.368 . S
C566 C565 1.523 . S
H567 C542 0.950 . S
H568 C544 0.950 . S
H569 C545 0.943 1_556 S
H570 C547 0.950 . S
H571 C549 0.950 . S
C572 C573 1.349 . S
C572 C574 1.327 . S
C572 H597 0.950 . S
C573 C572 1.349 . S
C573 C589 1.349 . S
C574 C572 1.327 . S
C574 C593 1.429 . S
C574 H598 0.950 . S
C575 C592 1.574 1_556 S
C575 C594 1.368 . S
C575 H599 0.949 . S
H576 C580 0.949 . S
C577 C578 1.349 . S
C577 C579 1.327 . S
C577 H600 0.950 . S
C578 C577 1.349 . S
C578 C590 1.349 . S
C579 C577 1.327 . S
C579 C595 1.429 . S
C579 H601 0.950 . S
C580 H576 0.949 . S
C580 C588 1.574 . S
C580 C596 1.368 1_556 S
H581 C589 0.950 . S
H582 C587 0.950 . S
H583 C588 0.949 . S
H584 C590 0.950 . S
H585 C591 0.950 . S
H586 C592 0.949 . S
C587 H582 0.950 . S
C587 C589 1.327 . S
C587 C593 1.429 . S
C588 C580 1.574 . S
C588 H583 0.949 . S
C588 C594 1.368 . S
C589 C573 1.349 . S
C589 H581 0.950 . S
C589 C587 1.327 . S
C590 C578 1.349 . S
C590 H584 0.950 . S
C590 C591 1.327 . S
C591 H585 0.950 . S
C591 C590 1.327 . S
C591 C595 1.429 . S
C592 C575 1.574 1_554 S
C592 H586 0.949 . S
C592 C596 1.368 . S
C593 C574 1.429 . S
C593 C587 1.429 . S
C593 C594 1.523 . S
C594 C575 1.368 . S
C594 C588 1.368 . S
C594 C593 1.523 . S
C595 C579 1.429 . S
C595 C591 1.429 . S
C595 C596 1.523 . S
C596 C580 1.368 1_554 S
C596 C592 1.368 . S
C596 C595 1.523 . S
H597 C572 0.950 . S
H598 C574 0.950 . S
H599 C575 0.949 . S
H600 C577 0.950 . S
H601 C579 0.950 . S
C602 C603 1.349 . S
C602 C604 1.327 . S
C602 H627 0.950 . S
C603 C602 1.349 . S
C603 C619 1.349 . S
C604 C602 1.327 . S
C604 C623 1.429 . S
C604 H628 0.950 . S
C605 C622 1.574 . S
C605 C624 1.368 1_554 S
C605 H629 0.949 1_554 S
H606 C610 0.949 . S
C607 C608 1.349 . S
C607 C609 1.327 . S
C607 H630 0.950 . S
C608 C607 1.349 . S
C608 C620 1.349 . S
C609 C607 1.327 . S
C609 C625 1.429 . S
C609 H631 0.950 . S
C610 H606 0.949 . S
C610 C618 1.574 . S
C610 C626 1.368 . S
H611 C619 0.950 . S
H612 C617 0.950 . S
H613 C618 0.949 1_556 S
H614 C620 0.950 . S
H615 C621 0.950 . S
H616 C622 0.949 . S
C617 H612 0.950 . S
C617 C619 1.327 . S
C617 C623 1.429 . S
C618 C610 1.574 . S
C618 H613 0.949 1_554 S
C618 C624 1.368 1_554 S
C619 C603 1.349 . S
C619 H611 0.950 . S
C619 C617 1.327 . S
C620 C608 1.349 . S
C620 H614 0.950 . S
C620 C621 1.327 . S
C621 H615 0.950 . S
C621 C620 1.327 . S
C621 C625 1.429 . S
C622 C605 1.574 . S
C622 H616 0.949 . S
C622 C626 1.368 . S
C623 C604 1.429 . S
C623 C617 1.429 . S
C623 C624 1.523 . S
C624 C605 1.368 1_556 S
C624 C618 1.368 1_556 S
C624 C623 1.523 . S
C625 C609 1.429 . S
C625 C621 1.429 . S
C625 C626 1.523 . S
C626 C610 1.368 . S
C626 C622 1.368 . S
C626 C625 1.523 . S
H627 C602 0.950 . S
H628 C604 0.950 . S
H629 C605 0.949 1_556 S
H630 C607 0.950 . S
H631 C609 0.950 . S
C632 C633 1.349 . S
C632 C634 1.327 . S
C632 H657 0.950 . S
C633 C632 1.349 . S
C633 C649 1.349 . S
C634 C632 1.327 . S
C634 C653 1.429 . S
C634 H658 0.950 . S
C635 C652 1.574 . S
C635 C654 1.368 . S
C635 H659 0.949 . S
H636 C640 0.949 . S
C637 C638 1.349 . S
C637 C639 1.327 . S
C637 H660 0.950 . S
C638 C637 1.349 . S
C638 C650 1.349 . S
C639 C637 1.327 . S
C639 C655 1.429 1_455 S
C639 H661 0.950 . S
C640 H636 0.949 . S
C640 C648 1.574 . S
C640 C656 1.368 . S
H641 C649 0.950 . S
H642 C647 0.950 . S
H643 C648 0.949 . S
H644 C650 0.950 . S
H645 C651 0.950 . S
H646 C652 0.949 . S
C647 H642 0.950 . S
C647 C649 1.327 . S
C647 C653 1.429 . S
C648 C640 1.574 . S
C648 H643 0.949 . S
C648 C654 1.368 . S
C649 C633 1.349 . S
C649 H641 0.950 . S
C649 C647 1.327 . S
C650 C638 1.349 . S
C650 H644 0.950 . S
C650 C651 1.327 1_455 S
C651 H645 0.950 . S
C651 C650 1.327 1_655 S
C651 C655 1.429 . S
C652 C635 1.574 . S
C652 H646 0.949 . S
C652 C656 1.368 . S
C653 C634 1.429 . S
C653 C647 1.429 . S
C653 C654 1.523 . S
C654 C635 1.368 . S
C654 C648 1.368 . S
C654 C653 1.523 . S
C655 C639 1.429 1_655 S
C655 C651 1.429 . S
C655 C656 1.523 . S
C656 C640 1.368 . S
C656 C652 1.368 . S
C656 C655 1.523 . S
H657 C632 0.950 . S
H658 C634 0.950 . S
H659 C635 0.949 . S
H660 C637 0.950 . S
H661 C639 0.950 . S
C662 C663 1.349 . S
C662 C664 1.327 . S
C662 H687 0.950 . S
C663 C662 1.349 . S
C663 C679 1.349 . S
C664 C662 1.327 . S
C664 C683 1.429 . S
C664 H688 0.950 . S
C665 C682 1.574 . S
C665 C684 1.368 . S
C665 H689 0.949 . S
H666 C670 0.949 . S
C667 C668 1.349 . S
C667 C669 1.327 . S
C667 H690 0.950 . S
C668 C667 1.349 . S
C668 C680 1.349 1_565 S
C669 C667 1.327 . S
C669 C685 1.429 1_565 S
C669 H691 0.950 . S
C670 H666 0.949 . S
C670 C678 1.574 . S
C670 C686 1.368 . S
H671 C679 0.950 . S
H672 C677 0.950 . S
H673 C678 0.949 . S
H674 C680 0.950 . S
H675 C681 0.950 . S
H676 C682 0.949 . S
C677 H672 0.950 . S
C677 C679 1.327 . S
C677 C683 1.429 . S
C678 C670 1.574 . S
C678 H673 0.949 . S
C678 C684 1.368 . S
C679 C663 1.349 . S
C679 H671 0.950 . S
C679 C677 1.327 . S
C680 C668 1.349 1_545 S
C680 H674 0.950 . S
C680 C681 1.327 . S
C681 H675 0.950 . S
C681 C680 1.327 . S
C681 C685 1.429 . S
C682 C665 1.574 . S
C682 H676 0.949 . S
C682 C686 1.368 . S
C683 C664 1.429 . S
C683 C677 1.429 . S
C683 C684 1.523 . S
C684 C665 1.368 . S
C684 C678 1.368 . S
C684 C683 1.523 . S
C685 C669 1.429 1_545 S
C685 C681 1.429 . S
C685 C686 1.523 . S
C686 C670 1.368 . S
C686 C682 1.368 . S
C686 C685 1.523 . S
H687 C662 0.950 . S
H688 C664 0.950 . S
H689 C665 0.949 . S
H690 C667 0.950 . S
H691 C669 0.950 . S
C692 C693 1.349 . S
C692 C694 1.327 . S
C692 H717 0.950 . S
C693 C692 1.349 . S
C693 C709 1.349 . S
C694 C692 1.327 . S
C694 C713 1.429 . S
C694 H718 0.950 . S
C695 C712 1.574 . S
C695 C714 1.368 . S
C695 H719 0.949 . S
H696 C700 0.949 . S
C697 C698 1.349 . S
C697 C699 1.327 . S
C697 H720 0.950 . S
C698 C697 1.349 . S
C698 C710 1.364 . S
C699 C697 1.327 . S
C699 C715 1.429 1_655 S
C699 H721 0.950 . S
C700 H696 0.949 . S
C700 C708 1.574 . S
C700 C716 1.368 . S
H701 C709 0.950 . S
H702 C707 0.950 . S
H703 C708 0.949 . S
H704 C710 0.949 1_455 S
H705 C711 0.950 . S
H706 C712 0.949 . S
C707 H702 0.950 . S
C707 C709 1.327 . S
C707 C713 1.429 . S
C708 C700 1.574 . S
C708 H703 0.949 . S
C708 C714 1.368 . S
C709 C693 1.349 . S
C709 H701 0.950 . S
C709 C707 1.327 . S
C710 C698 1.364 . S
C710 H704 0.949 1_655 S
C710 C711 1.313 1_655 S
C711 H705 0.950 . S
C711 C710 1.313 1_455 S
C711 C715 1.429 . S
C712 C695 1.574 . S
C712 H706 0.949 . S
C712 C716 1.368 . S
C713 C694 1.429 . S
C713 C707 1.429 . S
C713 C714 1.523 . S
C714 C695 1.368 . S
C714 C708 1.368 . S
C714 C713 1.523 . S
C715 C699 1.429 1_455 S
C715 C711 1.429 . S
C715 C716 1.523 . S
C716 C700 1.368 . S
C716 C712 1.368 . S
C716 C715 1.523 . S
H717 C692 0.950 . S
H718 C694 0.950 . S
H719 C695 0.949 . S
H720 C697 0.950 . S
H721 C699 0.950 . S
C722 C723 1.349 . S
C722 C724 1.327 1_545 S
C722 H747 0.950 . S
C723 C722 1.349 . S
C723 C739 1.349 . S
C724 C722 1.327 1_565 S
C724 C743 1.429 . S
C724 H748 0.950 . S
C725 C742 1.574 . S
C725 C744 1.368 . S
C725 H749 0.949 . S
H726 C730 0.949 . S
C727 C728 1.349 . S
C727 C729 1.327 . S
C727 H750 0.950 . S
C728 C727 1.349 . S
C728 C740 1.349 . S
C729 C727 1.327 . S
C729 C745 1.429 . S
C729 H751 0.950 . S
C730 H726 0.949 . S
C730 C738 1.574 . S
C730 C746 1.368 . S
H731 C739 0.950 . S
H732 C737 0.950 . S
H733 C738 0.949 . S
H734 C740 0.950 . S
H735 C741 0.950 . S
H736 C742 0.949 . S
C737 H732 0.950 . S
C737 C739 1.327 1_565 S
C737 C743 1.429 . S
C738 C730 1.574 . S
C738 H733 0.949 . S
C738 C744 1.368 . S
C739 C723 1.349 . S
C739 H731 0.950 . S
C739 C737 1.327 1_545 S
C740 C728 1.349 . S
C740 H734 0.950 . S
C740 C741 1.327 . S
C741 H735 0.950 . S
C741 C740 1.327 . S
C741 C745 1.429 . S
C742 C725 1.574 . S
C742 H736 0.949 . S
C742 C746 1.368 . S
C743 C724 1.429 . S
C743 C737 1.429 . S
C743 C744 1.523 . S
C744 C725 1.368 . S
C744 C738 1.368 . S
C744 C743 1.523 . S
C745 C729 1.429 . S
C745 C741 1.429 . S
C745 C746 1.523 . S
C746 C730 1.368 . S
C746 C742 1.368 . S
C746 C745 1.523 . S
H747 C722 0.950 . S
H748 C724 0.950 . S
H749 C725 0.949 . S
H750 C727 0.950 . S
H751 C729 0.950 . S
C752 C753 1.349 . S
C752 C754 1.327 . S
C752 H777 0.950 . S
C753 C752 1.349 . S
C753 C769 1.349 . S
C754 C752 1.327 . S
C754 C773 1.429 . S
C754 H778 0.950 . S
C755 C772 1.574 . S
C755 C774 1.368 . S
C755 H779 0.949 . S
H756 C760 0.949 . S
C757 C758 1.349 . S
C757 C759 1.327 . S
C757 H780 0.950 . S
C758 C757 1.349 . S
C758 C770 1.349 . S
C759 C757 1.327 . S
C759 C775 1.429 . S
C759 H781 0.950 . S
C760 H756 0.949 . S
C760 C768 1.574 . S
C760 C776 1.368 . S
H761 C769 0.950 . S
H762 C767 0.950 . S
H763 C768 0.949 . S
H764 C770 0.950 . S
H765 C771 0.950 . S
H766 C772 0.949 . S
C767 H762 0.950 . S
C767 C769 1.327 . S
C767 C773 1.429 . S
C768 C760 1.574 . S
C768 H763 0.949 . S
C768 C774 1.368 . S
C769 C753 1.349 . S
C769 H761 0.950 . S
C769 C767 1.327 . S
C770 C758 1.349 . S
C770 H764 0.950 . S
C770 C771 1.327 . S
C771 H765 0.950 . S
C771 C770 1.327 . S
C771 C775 1.429 . S
C772 C755 1.574 . S
C772 H766 0.949 . S
C772 C776 1.368 . S
C773 C754 1.429 . S
C773 C767 1.429 . S
C773 C774 1.523 . S
C774 C755 1.368 . S
C774 C768 1.368 . S
C774 C773 1.523 . S
C775 C759 1.429 . S
C775 C771 1.429 . S
C775 C776 1.523 . S
C776 C760 1.368 . S
C776 C772 1.368 . S
C776 C775 1.523 . S
H777 C752 0.950 . S
H778 C754 0.950 . S
H779 C755 0.949 . S
H780 C757 0.950 . S
H781 C759 0.950 . S
C782 C783 1.349 . S
C782 C784 1.327 . S
C782 H807 0.950 . S
C783 C782 1.349 . S
C783 C799 1.349 . S
C784 C782 1.327 . S
C784 C803 1.429 . S
C784 H808 0.950 . S
C785 C802 1.574 . S
C785 C804 1.368 . S
C785 H809 0.949 . S
H786 C790 0.949 . S
C787 C788 1.349 . S
C787 C789 1.327 . S
C787 H810 0.950 . S
C788 C787 1.349 . S
C788 C800 1.349 . S
C789 C787 1.327 . S
C789 C805 1.429 . S
C789 H811 0.950 . S
C790 H786 0.949 . S
C790 C798 1.574 . S
C790 C806 1.368 . S
H791 C799 0.950 . S
H792 C797 0.950 . S
H793 C798 0.949 . S
H794 C800 0.950 . S
H795 C801 0.950 . S
H796 C802 0.949 . S
C797 H792 0.950 . S
C797 C799 1.327 . S
C797 C803 1.429 . S
C798 C790 1.574 . S
C798 H793 0.949 . S
C798 C804 1.368 . S
C799 C783 1.349 . S
C799 H791 0.950 . S
C799 C797 1.327 . S
C800 C788 1.349 . S
C800 H794 0.950 . S
C800 C801 1.327 . S
C801 H795 0.950 . S
C801 C800 1.327 . S
C801 C805 1.429 . S
C802 C785 1.574 . S
C802 H796 0.949 . S
C802 C806 1.368 . S
C803 C784 1.429 . S
C803 C797 1.429 . S
C803 C804 1.523 . S
C804 C785 1.368 . S
C804 C798 1.368 . S
C804 C803 1.523 . S
C805 C789 1.429 . S
C805 C801 1.429 . S
C805 C806 1.523 . S
C806 C790 1.368 . S
C806 C802 1.368 . S
C806 C805 1.523 . S
H807 C782 0.950 . S
H808 C784 0.950 . S
H809 C785 0.949 . S
H810 C787 0.950 . S
H811 C789 0.950 . S
C812 C813 1.349 . S
C812 C814 1.327 . S
C812 H837 0.950 . S
C813 C812 1.349 . S
C813 C829 1.349 1_545 S
C814 C812 1.327 . S
C814 C833 1.429 . S
C814 H838 0.950 . S
C815 C832 1.574 1_655 S
C815 C834 1.368 1_565 S
C815 H839 0.949 . S
H816 C820 0.949 . S
C817 C818 1.349 . S
C817 C819 1.327 . S
C817 H840 0.950 . S
C818 C817 1.349 . S
C818 C830 1.349 1_565 S
C819 C817 1.327 . S
C819 C835 1.429 . S
C819 H841 0.950 . S
C820 H816 0.949 . S
C820 C828 1.574 1_455 S
C820 C836 1.368 1_545 S
H821 C829 0.950 . S
H822 C827 0.950 . S
H823 C828 0.949 . S
H824 C830 0.950 . S
H825 C831 0.950 . S
H826 C832 0.949 . S
C827 H822 0.950 . S
C827 C829 1.327 . S
C827 C833 1.429 1_565 S
C828 C820 1.574 1_655 S
C828 H823 0.949 . S
C828 C834 1.368 . S
C829 C813 1.349 1_565 S
C829 H821 0.950 . S
C829 C827 1.327 . S
C830 C818 1.349 1_545 S
C830 H824 0.950 . S
C830 C831 1.327 . S
C831 H825 0.950 . S
C831 C830 1.327 . S
C831 C835 1.429 1_545 S
C832 C815 1.574 1_455 S
C832 H826 0.949 . S
C832 C836 1.368 . S
C833 C814 1.429 . S
C833 C827 1.429 1_545 S
C833 C834 1.523 . S
C834 C815 1.368 1_545 S
C834 C828 1.368 . S
C834 C833 1.523 . S
C835 C819 1.429 . S
C835 C831 1.429 1_565 S
C835 C836 1.523 . S
C836 C820 1.368 1_565 S
C836 C832 1.368 . S
C836 C835 1.523 . S
H837 C812 0.950 . S
H838 C814 0.950 . S
H839 C815 0.949 . S
H840 C817 0.950 . S
H841 C819 0.950 . S
C842 C843 1.349 . S
C842 C844 1.327 . S
C842 H867 0.950 . S
C843 C842 1.349 . S
C843 C859 1.349 1_455 S
C844 C842 1.327 . S
C844 C863 1.429 . S
C844 H868 0.950 . S
C845 C862 1.574 1_545 S
C845 C864 1.368 1_655 S
C845 H869 0.949 . S
H846 C850 0.949 . S
C847 C848 1.349 . S
C847 C849 1.327 . S
C847 H870 0.950 . S
C848 C847 1.349 . S
C848 C860 1.349 1_655 S
C849 C847 1.327 . S
C849 C865 1.429 . S
C849 H871 0.950 . S
C850 H846 0.949 . S
C850 C858 1.574 1_565 S
C850 C866 1.368 1_455 S
H851 C859 0.950 . S
H852 C857 0.950 . S
H853 C858 0.949 . S
H854 C860 0.950 . S
H855 C861 0.950 . S
H856 C862 0.949 . S
C857 H852 0.950 . S
C857 C859 1.327 . S
C857 C863 1.429 1_655 S
C858 C850 1.574 1_545 S
C858 H853 0.949 . S
C858 C864 1.368 . S
C859 C843 1.349 1_655 S
C859 H851 0.950 . S
C859 C857 1.327 . S
C860 C848 1.349 1_455 S
C860 H854 0.950 . S
C860 C861 1.327 . S
C861 H855 0.950 . S
C861 C860 1.327 . S
C861 C865 1.429 1_455 S
C862 C845 1.574 1_565 S
C862 H856 0.949 . S
C862 C866 1.368 . S
C863 C844 1.429 . S
C863 C857 1.429 1_455 S
C863 C864 1.523 . S
C864 C845 1.368 1_455 S
C864 C858 1.368 . S
C864 C863 1.523 . S
C865 C849 1.429 . S
C865 C861 1.429 1_655 S
C865 C866 1.523 . S
C866 C850 1.368 1_655 S
C866 C862 1.368 . S
C866 C865 1.523 . S
H867 C842 0.950 . S
H868 C844 0.950 . S
H869 C845 0.949 . S
H870 C847 0.950 . S
H871 C849 0.950 . S
C872 C873 1.349 . S
C872 C874 1.327 . S
C872 H897 0.950 . S
C873 C872 1.349 . S
C873 C889 1.349 . S
C874 C872 1.327 . S
C874 C893 1.429 . S
C874 H898 0.950 . S
C875 C892 1.574 . S
C875 C894 1.368 . S
C875 H899 0.949 . S
H876 C880 0.949 . S
C877 C878 1.349 . S
C877 C879 1.327 . S
C877 H900 0.950 . S
C878 C877 1.349 . S
C878 C890 1.349 . S
C879 C877 1.327 . S
C879 C895 1.429 . S
C879 H901 0.950 . S
C880 H876 0.949 . S
C880 C888 1.574 . S
C880 C896 1.368 . S
H881 C889 0.950 . S
H882 C887 0.950 . S
H883 C888 0.949 . S
H884 C890 0.950 . S
H885 C891 0.950 . S
H886 C892 0.949 . S
C887 H882 0.950 . S
C887 C889 1.327 . S
C887 C893 1.429 . S
C888 C880 1.574 . S
C888 H883 0.949 . S
C888 C894 1.368 . S
C889 C873 1.349 . S
C889 H881 0.950 . S
C889 C887 1.327 . S
C890 C878 1.349 . S
C890 H884 0.950 . S
C890 C891 1.327 . S
C891 H885 0.950 . S
C891 C890 1.327 . S
C891 C895 1.429 . S
C892 C875 1.574 . S
C892 H886 0.949 . S
C892 C896 1.368 . S
C893 C874 1.429 . S
C893 C887 1.429 . S
C893 C894 1.523 . S
C894 C875 1.368 . S
C894 C888 1.368 . S
C894 C893 1.523 . S
C895 C879 1.429 . S
C895 C891 1.429 . S
C895 C896 1.523 . S
C896 C880 1.368 . S
C896 C892 1.368 . S
C896 C895 1.523 . S
H897 C872 0.950 . S
H898 C874 0.950 . S
H899 C875 0.949 . S
H900 C877 0.950 . S
H901 C879 0.950 . S
C902 C903 1.349 . S
C902 C904 1.327 . S
C902 H927 0.950 . S
C903 C902 1.349 . S
C903 C919 1.349 . S
C904 C902 1.327 . S
C904 C923 1.429 . S
C904 H928 0.950 . S
C905 C922 1.574 . S
C905 C924 1.368 . S
C905 H929 0.949 . S
H906 C910 0.949 . S
C907 C908 1.349 . S
C907 C909 1.327 . S
C907 H930 0.950 . S
C908 C907 1.349 . S
C908 C920 1.349 . S
C909 C907 1.327 . S
C909 C925 1.429 . S
C909 H931 0.950 . S
C910 H906 0.949 . S
C910 C918 1.574 . S
C910 C926 1.368 . S
H911 C919 0.950 . S
H912 C917 0.950 . S
H913 C918 0.949 . S
H914 C920 0.950 . S
H915 C921 0.950 . S
H916 C922 0.949 . S
C917 H912 0.950 . S
C917 C919 1.327 . S
C917 C923 1.429 . S
C918 C910 1.574 . S
C918 H913 0.949 . S
C918 C924 1.368 . S
C919 C903 1.349 . S
C919 H911 0.950 . S
C919 C917 1.327 . S
C920 C908 1.349 . S
C920 H914 0.950 . S
C920 C921 1.327 . S
C921 H915 0.950 . S
C921 C920 1.327 . S
C921 C925 1.429 . S
C922 C905 1.574 . S
C922 H916 0.949 . S
C922 C926 1.368 . S
C923 C904 1.429 . S
C923 C917 1.429 . S
C923 C924 1.523 . S
C924 C905 1.368 . S
C924 C918 1.368 . S
C924 C923 1.523 . S
C925 C909 1.429 . S
C925 C921 1.429 . S
C925 C926 1.523 . S
C926 C910 1.368 . S
C926 C922 1.368 . S
C926 C925 1.523 . S
H927 C902 0.950 . S
H928 C904 0.950 . S
H929 C905 0.949 . S
H930 C907 0.950 . S
H931 C909 0.950 . S
C932 C933 1.349 . S
C932 C934 1.327 . S
C932 H957 0.950 . S
C933 C932 1.349 . S
C933 C949 1.349 . S
C934 C932 1.327 . S
C934 C953 1.429 . S
C934 H958 0.950 . S
C935 C952 1.574 . S
C935 C954 1.368 . S
C935 H959 0.949 . S
H936 C940 0.949 . S
C937 C938 1.349 . S
C937 C939 1.327 . S
C937 H960 0.950 . S
C938 C937 1.349 . S
C938 C950 1.349 . S
C939 C937 1.327 . S
C939 C955 1.429 . S
C939 H961 0.950 . S
C940 H936 0.949 . S
C940 C948 1.574 . S
C940 C956 1.368 . S
H941 C949 0.950 . S
H942 C947 0.950 . S
H943 C948 0.949 . S
H944 C950 0.950 . S
H945 C951 0.950 . S
H946 C952 0.949 . S
C947 H942 0.950 . S
C947 C949 1.327 . S
C947 C953 1.429 . S
C948 C940 1.574 . S
C948 H943 0.949 . S
C948 C954 1.368 . S
C949 C933 1.349 . S
C949 H941 0.950 . S
C949 C947 1.327 . S
C950 C938 1.349 . S
C950 H944 0.950 . S
C950 C951 1.327 . S
C951 H945 0.950 . S
C951 C950 1.327 . S
C951 C955 1.429 . S
C952 C935 1.574 . S
C952 H946 0.949 . S
C952 C956 1.368 . S
C953 C934 1.429 . S
C953 C947 1.429 . S
C953 C954 1.523 . S
C954 C935 1.368 . S
C954 C948 1.368 . S
C954 C953 1.523 . S
C955 C939 1.429 . S
C955 C951 1.429 . S
C955 C956 1.523 . S
C956 C940 1.368 . S
C956 C952 1.368 . S
C956 C955 1.523 . S
H957 C932 0.950 . S
H958 C934 0.950 . S
H959 C935 0.949 . S
H960 C937 0.950 . S
H961 C939 0.950 . S
C962 C963 1.349 . S
C962 C964 1.327 . S
C962 H987 0.950 . S
C963 C962 1.349 . S
C963 C979 1.349 . S
C964 C962 1.327 . S
C964 C983 1.429 . S
C964 H988 0.950 . S
C965 C982 1.574 . S
C965 C984 1.368 . S
C965 H989 0.949 . S
H966 C970 0.949 . S
C967 C968 1.349 . S
C967 C969 1.327 . S
C967 H990 0.950 . S
C968 C967 1.349 . S
C968 C980 1.349 . S
C969 C967 1.327 . S
C969 C985 1.429 . S
C969 H991 0.950 . S
C970 H966 0.949 . S
C970 C978 1.574 . S
C970 C986 1.368 . S
H971 C979 0.950 . S
H972 C977 0.950 . S
H973 C978 0.949 . S
H974 C980 0.950 . S
H975 C981 0.950 . S
H976 C982 0.949 . S
C977 H972 0.950 . S
C977 C979 1.327 . S
C977 C983 1.429 . S
C978 C970 1.574 . S
C978 H973 0.949 . S
C978 C984 1.368 . S
C979 C963 1.349 . S
C979 H971 0.950 . S
C979 C977 1.327 . S
C980 C968 1.349 . S
C980 H974 0.950 . S
C980 C981 1.327 . S
C981 H975 0.950 . S
C981 C980 1.327 . S
C981 C985 1.429 . S
C982 C965 1.574 . S
C982 H976 0.949 . S
C982 C986 1.368 . S
C983 C964 1.429 . S
C983 C977 1.429 . S
C983 C984 1.523 . S
C984 C965 1.368 . S
C984 C978 1.368 . S
C984 C983 1.523 . S
C985 C969 1.429 . S
C985 C981 1.429 . S
C985 C986 1.523 . S
C986 C970 1.368 . S
C986 C982 1.368 . S
C986 C985 1.523 . S
H987 C962 0.950 . S
H988 C964 0.950 . S
H989 C965 0.949 . S
H990 C967 0.950 . S
H991 C969 0.950 . S
C992 C993 1.349 . S
C992 C994 1.327 . S
C992 H1017 0.950 . S
C993 C992 1.349 . S
C993 C1009 1.349 . S
C994 C992 1.327 . S
C994 C1013 1.429 . S
C994 H1018 0.950 . S
C995 C1012 1.574 . S
C995 C1014 1.368 . S
C995 H1019 0.949 . S
H996 C1000 0.949 . S
C997 C998 1.349 . S
C997 C999 1.327 . S
C997 H1020 0.950 . S
C998 C997 1.349 . S
C998 C1010 1.349 . S
C999 C997 1.327 . S
C999 C1015 1.429 . S
C999 H1021 0.950 . S
C1000 H996 0.949 . S
C1000 C1008 1.574 . S
C1000 C1016 1.368 . S
H1001 C1009 0.950 . S
H1002 C1007 0.950 . S
H1003 C1008 0.949 . S
H1004 C1010 0.950 . S
H1005 C1011 0.950 . S
H1006 C1012 0.949 . S
C1007 H1002 0.950 . S
C1007 C1009 1.327 . S
C1007 C1013 1.429 . S
C1008 C1000 1.574 . S
C1008 H1003 0.949 . S
C1008 C1014 1.368 . S
C1009 C993 1.349 . S
C1009 H1001 0.950 . S
C1009 C1007 1.327 . S
C1010 C998 1.349 . S
C1010 H1004 0.950 . S
C1010 C1011 1.327 . S
C1011 H1005 0.950 . S
C1011 C1010 1.327 . S
C1011 C1015 1.429 . S
C1012 C995 1.574 . S
C1012 H1006 0.949 . S
C1012 C1016 1.368 . S
C1013 C994 1.429 . S
C1013 C1007 1.429 . S
C1013 C1014 1.523 . S
C1014 C995 1.368 . S
C1014 C1008 1.368 . S
C1014 C1013 1.523 . S
C1015 C999 1.429 . S
C1015 C1011 1.429 . S
C1015 C1016 1.523 . S
C1016 C1000 1.368 . S
C1016 C1012 1.368 . S
C1016 C1015 1.523 . S
H1017 C992 0.950 . S
H1018 C994 0.950 . S
H1019 C995 0.949 . S
H1020 C997 0.950 . S
H1021 C999 0.950 . S
C1022 C1023 1.349 . S
C1022 C1024 1.327 . S
C1022 H1047 0.950 . S
C1023 C1022 1.349 . S
C1023 C1039 1.349 . S
C1024 C1022 1.327 . S
C1024 C1043 1.429 . S
C1024 H1048 0.950 . S
C1025 C1042 1.574 . S
C1025 C1044 1.368 . S
C1025 H1049 0.949 . S
H1026 C1030 0.949 . S
C1027 C1028 1.349 . S
C1027 C1029 1.327 . S
C1027 H1050 0.950 . S
C1028 C1027 1.349 . S
C1028 C1040 1.349 . S
C1029 C1027 1.327 . S
C1029 C1045 1.429 . S
C1029 H1051 0.950 . S
C1030 H1026 0.949 . S
C1030 C1038 1.574 . S
C1030 C1046 1.368 . S
H1031 C1039 0.950 . S
H1032 C1037 0.950 . S
H1033 C1038 0.949 . S
H1034 C1040 0.950 . S
H1035 C1041 0.950 . S
H1036 C1042 0.949 . S
C1037 H1032 0.950 . S
C1037 C1039 1.327 . S
C1037 C1043 1.429 . S
C1038 C1030 1.574 . S
C1038 H1033 0.949 . S
C1038 C1044 1.368 . S
C1039 C1023 1.349 . S
C1039 H1031 0.950 . S
C1039 C1037 1.327 . S
C1040 C1028 1.349 . S
C1040 H1034 0.950 . S
C1040 C1041 1.327 . S
C1041 H1035 0.950 . S
C1041 C1040 1.327 . S
C1041 C1045 1.429 . S
C1042 C1025 1.574 . S
C1042 H1036 0.949 . S
C1042 C1046 1.368 . S
C1043 C1024 1.429 . S
C1043 C1037 1.429 . S
C1043 C1044 1.523 . S
C1044 C1025 1.368 . S
C1044 C1038 1.368 . S
C1044 C1043 1.523 . S
C1045 C1029 1.429 . S
C1045 C1041 1.429 . S
C1045 C1046 1.523 . S
C1046 C1030 1.368 . S
C1046 C1042 1.368 . S
C1046 C1045 1.523 . S
H1047 C1022 0.950 . S
H1048 C1024 0.950 . S
H1049 C1025 0.949 . S
H1050 C1027 0.950 . S
H1051 C1029 0.950 . S
C1052 C1053 1.349 . S
C1052 C1054 1.327 . S
C1052 H1077 0.950 . S
C1053 C1052 1.349 . S
C1053 C1069 1.349 . S
C1054 C1052 1.327 . S
C1054 C1073 1.429 . S
C1054 H1078 0.950 . S
C1055 C1072 1.574 . S
C1055 C1074 1.368 . S
C1055 H1079 0.949 . S
H1056 C1060 0.949 . S
C1057 C1058 1.349 . S
C1057 C1059 1.327 . S
C1057 H1080 0.950 . S
C1058 C1057 1.349 . S
C1058 C1070 1.349 . S
C1059 C1057 1.327 . S
C1059 C1075 1.429 . S
C1059 H1081 0.950 . S
C1060 H1056 0.949 . S
C1060 C1068 1.574 . S
C1060 C1076 1.368 . S
H1061 C1069 0.950 . S
H1062 C1067 0.950 . S
H1063 C1068 0.949 . S
H1064 C1070 0.950 . S
H1065 C1071 0.950 . S
H1066 C1072 0.949 . S
C1067 H1062 0.950 . S
C1067 C1069 1.327 . S
C1067 C1073 1.429 . S
C1068 C1060 1.574 . S
C1068 H1063 0.949 . S
C1068 C1074 1.368 . S
C1069 C1053 1.349 . S
C1069 H1061 0.950 . S
C1069 C1067 1.327 . S
C1070 C1058 1.349 . S
C1070 H1064 0.950 . S
C1070 C1071 1.327 . S
C1071 H1065 0.950 . S
C1071 C1070 1.327 . S
C1071 C1075 1.429 . S
C1072 C1055 1.574 . S
C1072 H1066 0.949 . S
C1072 C1076 1.368 . S
C1073 C1054 1.429 . S
C1073 C1067 1.429 . S
C1073 C1074 1.523 . S
C1074 C1055 1.368 . S
C1074 C1068 1.368 . S
C1074 C1073 1.523 . S
C1075 C1059 1.429 . S
C1075 C1071 1.429 . S
C1075 C1076 1.523 . S
C1076 C1060 1.368 . S
C1076 C1072 1.368 . S
C1076 C1075 1.523 . S
H1077 C1052 0.950 . S
H1078 C1054 0.950 . S
H1079 C1055 0.949 . S
H1080 C1057 0.950 . S
H1081 C1059 0.950 . S
C1082 C1083 1.349 . S
C1082 C1084 1.327 . S
C1082 H1107 0.950 . S
C1083 C1082 1.349 . S
C1083 C1099 1.349 . S
C1084 C1082 1.327 . S
C1084 C1103 1.429 . S
C1084 H1108 0.950 . S
C1085 C1102 1.574 . S
C1085 C1104 1.368 . S
C1085 H1109 0.949 . S
H1086 C1090 0.949 . S
C1087 C1088 1.349 . S
C1087 C1089 1.327 . S
C1087 H1110 0.950 . S
C1088 C1087 1.349 . S
C1088 C1100 1.349 . S
C1089 C1087 1.327 . S
C1089 C1105 1.429 . S
C1089 H1111 0.950 . S
C1090 H1086 0.949 . S
C1090 C1098 1.574 . S
C1090 C1106 1.368 . S
H1091 C1099 0.950 . S
H1092 C1097 0.950 . S
H1093 C1098 0.949 . S
H1094 C1100 0.950 . S
H1095 C1101 0.950 . S
H1096 C1102 0.949 . S
C1097 H1092 0.950 . S
C1097 C1099 1.327 . S
C1097 C1103 1.429 . S
C1098 C1090 1.574 . S
C1098 H1093 0.949 . S
C1098 C1104 1.368 . S
C1099 C1083 1.349 . S
C1099 H1091 0.950 . S
C1099 C1097 1.327 . S
C1100 C1088 1.349 . S
C1100 H1094 0.950 . S
C1100 C1101 1.327 . S
C1101 H1095 0.950 . S
C1101 C1100 1.327 . S
C1101 C1105 1.429 . S
C1102 C1085 1.574 . S
C1102 H1096 0.949 . S
C1102 C1106 1.368 . S
C1103 C1084 1.429 . S
C1103 C1097 1.429 . S
C1103 C1104 1.523 . S
C1104 C1085 1.368 . S
C1104 C1098 1.368 . S
C1104 C1103 1.523 . S
C1105 C1089 1.429 . S
C1105 C1101 1.429 . S
C1105 C1106 1.523 . S
C1106 C1090 1.368 . S
C1106 C1102 1.368 . S
C1106 C1105 1.523 . S
H1107 C1082 0.950 . S
H1108 C1084 0.950 . S
H1109 C1085 0.949 . S
H1110 C1087 0.950 . S
H1111 C1089 0.950 . S
C273 C15 1.573 . S
C278 C173 1.482 . S
C303 C56 1.573 . S
C308 C205 1.482 . S
C333 C241 1.482 . S
C338 C90 1.573 . S
C363 C137 1.482 . S
C368 C124 1.573 . S
C393 C151 1.573 . S
C398 C105 1.482 . S
C423 C192 1.573 . S
C428 C1 1.482 . S
C453 C219 1.573 . S
C458 C37 1.482 . S
C483 C260 1.573 . S
C488 C71 1.482 . S
C513 C119 0.865 . S
C518 C28 0.852 . S
C543 C17 0.865 . S
C548 C40 0.852 . S
C573 C51 0.865 . S
C578 C74 0.852 . S
C603 C108 0.852 . S
C608 C85 0.866 . S
C633 C164 0.852 . S
C638 C187 0.866 . S
C663 C176 0.852 . S
C668 C221 0.865 . S
C693 C232 0.852 . S
C698 C255 0.865 . S
C723 C153 0.865 . S
C728 C244 0.852 . S
C753 C22 0.698 . S
C758 C83 0.698 . S
C783 C49 0.698 . S
C788 C117 0.698 . S
C813 C158 0.698 . S
C818 C226 0.698 . S
C843 C185 0.698 . S
C848 C253 0.698 . S
C873 C210 1.798 . S
C878 C3 1.739 . S
C903 C35 1.739 . S
C908 C266 1.798 . S
C933 C69 1.739 . S
C938 C142 1.798 . S
C963 C198 1.798 . S
C968 C103 1.739 . S
C993 C139 1.739 . S
C998 C96 1.798 . S
C1023 C130 1.798 . S
C1028 C171 1.739 . S
C1053 C207 1.739 . S
C1058 C6 1.798 . S
C1083 C62 1.798 . S
C1088 C239 1.739 . S
