# Generated by pormake.
# Topology vcc, (6)-cn, num edge types: 1
# Building blocks:
#     Node 0, Type 0, BuildingBlock: BETGAK_clean_sbu_0, # of connection points: 6
#     Node 1, Type 0, BuildingBlock: BETGAK_clean_sbu_0, # of connection points: 6
#     Node 2, Type 0, BuildingBlock: BETGAK_clean_sbu_0, # of connection points: 6
#     Node 3, Type 0, BuildingBlock: BETGAK_clean_sbu_0, # of connection points: 6
#     Node 4, Type 0, BuildingBlock: BETGAK_clean_sbu_0, # of connection points: 6
#     Node 5, Type 0, BuildingBlock: BETGAK_clean_sbu_0, # of connection points: 6
#     Node 6, Type 0, BuildingBlock: BETGAK_clean_sbu_0, # of connection points: 6
#     Node 7, Type 0, BuildingBlock: BETGAK_clean_sbu_0, # of connection points: 6
#     Node 8, Type 0, BuildingBlock: BETGAK_clean_sbu_0, # of connection points: 6
#     Node 9, Type 0, BuildingBlock: BETGAK_clean_sbu_0, # of connection points: 6
#     Node 10, Type 0, BuildingBlock: BETGAK_clean_sbu_0, # of connection points: 6
#     Node 11, Type 0, BuildingBlock: BETGAK_clean_sbu_0, # of connection points: 6
#     Node 12, Type 0, BuildingBlock: BETGAK_clean_sbu_0, # of connection points: 6
#     Node 13, Type 0, BuildingBlock: BETGAK_clean_sbu_0, # of connection points: 6
#     Node 14, Type 0, BuildingBlock: BETGAK_clean_sbu_0, # of connection points: 6
#     Node 15, Type 0, BuildingBlock: BETGAK_clean_sbu_0, # of connection points: 6
#     Node 16, Type 0, BuildingBlock: BETGAK_clean_sbu_0, # of connection points: 6
#     Node 17, Type 0, BuildingBlock: BETGAK_clean_sbu_0, # of connection points: 6
#     Node 18, Type 0, BuildingBlock: BETGAK_clean_sbu_0, # of connection points: 6
#     Node 19, Type 0, BuildingBlock: BETGAK_clean_sbu_0, # of connection points: 6
#     Node 20, Type 0, BuildingBlock: BETGAK_clean_sbu_0, # of connection points: 6
#     Node 21, Type 0, BuildingBlock: BETGAK_clean_sbu_0, # of connection points: 6
#     Node 22, Type 0, BuildingBlock: BETGAK_clean_sbu_0, # of connection points: 6
#     Node 23, Type 0, BuildingBlock: BETGAK_clean_sbu_0, # of connection points: 6
#     Node 24, Type 0, BuildingBlock: BETGAK_clean_sbu_0, # of connection points: 6
#     Node 25, Type 0, BuildingBlock: BETGAK_clean_sbu_0, # of connection points: 6
#     Node 26, Type 0, BuildingBlock: BETGAK_clean_sbu_0, # of connection points: 6
#     Node 27, Type 0, BuildingBlock: BETGAK_clean_sbu_0, # of connection points: 6
#     Node 28, Type 0, BuildingBlock: BETGAK_clean_sbu_0, # of connection points: 6
#     Node 29, Type 0, BuildingBlock: BETGAK_clean_sbu_0, # of connection points: 6
#     Node 30, Type 0, BuildingBlock: BETGAK_clean_sbu_0, # of connection points: 6
#     Node 31, Type 0, BuildingBlock: BETGAK_clean_sbu_0, # of connection points: 6
#     Edge 32, Type (0, 0), BuildingBlock: OJICUG_clean_linker_0, # of connection points: 2
#     Edge 33, Type (0, 0), BuildingBlock: OJICUG_clean_linker_0, # of connection points: 2
#     Edge 34, Type (0, 0), BuildingBlock: OJICUG_clean_linker_0, # of connection points: 2
#     Edge 35, Type (0, 0), BuildingBlock: OJICUG_clean_linker_0, # of connection points: 2
#     Edge 36, Type (0, 0), BuildingBlock: OJICUG_clean_linker_0, # of connection points: 2
#     Edge 37, Type (0, 0), BuildingBlock: OJICUG_clean_linker_0, # of connection points: 2
#     Edge 38, Type (0, 0), BuildingBlock: OJICUG_clean_linker_0, # of connection points: 2
#     Edge 39, Type (0, 0), BuildingBlock: OJICUG_clean_linker_0, # of connection points: 2
#     Edge 40, Type (0, 0), BuildingBlock: OJICUG_clean_linker_0, # of connection points: 2
#     Edge 41, Type (0, 0), BuildingBlock: OJICUG_clean_linker_0, # of connection points: 2
#     Edge 42, Type (0, 0), BuildingBlock: OJICUG_clean_linker_0, # of connection points: 2
#     Edge 43, Type (0, 0), BuildingBlock: OJICUG_clean_linker_0, # of connection points: 2
#     Edge 44, Type (0, 0), BuildingBlock: OJICUG_clean_linker_0, # of connection points: 2
#     Edge 45, Type (0, 0), BuildingBlock: OJICUG_clean_linker_0, # of connection points: 2
#     Edge 46, Type (0, 0), BuildingBlock: OJICUG_clean_linker_0, # of connection points: 2
#     Edge 47, Type (0, 0), BuildingBlock: OJICUG_clean_linker_0, # of connection points: 2
#     Edge 48, Type (0, 0), BuildingBlock: OJICUG_clean_linker_0, # of connection points: 2
#     Edge 49, Type (0, 0), BuildingBlock: OJICUG_clean_linker_0, # of connection points: 2
#     Edge 50, Type (0, 0), BuildingBlock: OJICUG_clean_linker_0, # of connection points: 2
#     Edge 51, Type (0, 0), BuildingBlock: OJICUG_clean_linker_0, # of connection points: 2
#     Edge 52, Type (0, 0), BuildingBlock: OJICUG_clean_linker_0, # of connection points: 2
#     Edge 53, Type (0, 0), BuildingBlock: OJICUG_clean_linker_0, # of connection points: 2
#     Edge 54, Type (0, 0), BuildingBlock: OJICUG_clean_linker_0, # of connection points: 2
#     Edge 55, Type (0, 0), BuildingBlock: OJICUG_clean_linker_0, # of connection points: 2
#     Edge 56, Type (0, 0), BuildingBlock: OJICUG_clean_linker_0, # of connection points: 2
#     Edge 57, Type (0, 0), BuildingBlock: OJICUG_clean_linker_0, # of connection points: 2
#     Edge 58, Type (0, 0), BuildingBlock: OJICUG_clean_linker_0, # of connection points: 2
#     Edge 59, Type (0, 0), BuildingBlock: OJICUG_clean_linker_0, # of connection points: 2
#     Edge 60, Type (0, 0), BuildingBlock: OJICUG_clean_linker_0, # of connection points: 2
#     Edge 61, Type (0, 0), BuildingBlock: OJICUG_clean_linker_0, # of connection points: 2
#     Edge 62, Type (0, 0), BuildingBlock: OJICUG_clean_linker_0, # of connection points: 2
#     Edge 63, Type (0, 0), BuildingBlock: OJICUG_clean_linker_0, # of connection points: 2
#     Edge 64, Type (0, 0), BuildingBlock: OJICUG_clean_linker_0, # of connection points: 2
#     Edge 65, Type (0, 0), BuildingBlock: OJICUG_clean_linker_0, # of connection points: 2
#     Edge 66, Type (0, 0), BuildingBlock: OJICUG_clean_linker_0, # of connection points: 2
#     Edge 67, Type (0, 0), BuildingBlock: OJICUG_clean_linker_0, # of connection points: 2
#     Edge 68, Type (0, 0), BuildingBlock: OJICUG_clean_linker_0, # of connection points: 2
#     Edge 69, Type (0, 0), BuildingBlock: OJICUG_clean_linker_0, # of connection points: 2
#     Edge 70, Type (0, 0), BuildingBlock: OJICUG_clean_linker_0, # of connection points: 2
#     Edge 71, Type (0, 0), BuildingBlock: OJICUG_clean_linker_0, # of connection points: 2
#     Edge 72, Type (0, 0), BuildingBlock: OJICUG_clean_linker_0, # of connection points: 2
#     Edge 73, Type (0, 0), BuildingBlock: OJICUG_clean_linker_0, # of connection points: 2
#     Edge 74, Type (0, 0), BuildingBlock: OJICUG_clean_linker_0, # of connection points: 2
#     Edge 75, Type (0, 0), BuildingBlock: OJICUG_clean_linker_0, # of connection points: 2
#     Edge 76, Type (0, 0), BuildingBlock: OJICUG_clean_linker_0, # of connection points: 2
#     Edge 77, Type (0, 0), BuildingBlock: OJICUG_clean_linker_0, # of connection points: 2
#     Edge 78, Type (0, 0), BuildingBlock: OJICUG_clean_linker_0, # of connection points: 2
#     Edge 79, Type (0, 0), BuildingBlock: OJICUG_clean_linker_0, # of connection points: 2
#     Edge 80, Type (0, 0), BuildingBlock: OJICUG_clean_linker_0, # of connection points: 2
#     Edge 81, Type (0, 0), BuildingBlock: OJICUG_clean_linker_0, # of connection points: 2
#     Edge 82, Type (0, 0), BuildingBlock: OJICUG_clean_linker_0, # of connection points: 2
#     Edge 83, Type (0, 0), BuildingBlock: OJICUG_clean_linker_0, # of connection points: 2
#     Edge 84, Type (0, 0), BuildingBlock: OJICUG_clean_linker_0, # of connection points: 2
#     Edge 85, Type (0, 0), BuildingBlock: OJICUG_clean_linker_0, # of connection points: 2
#     Edge 86, Type (0, 0), BuildingBlock: OJICUG_clean_linker_0, # of connection points: 2
#     Edge 87, Type (0, 0), BuildingBlock: OJICUG_clean_linker_0, # of connection points: 2
#     Edge 88, Type (0, 0), BuildingBlock: OJICUG_clean_linker_0, # of connection points: 2
#     Edge 89, Type (0, 0), BuildingBlock: OJICUG_clean_linker_0, # of connection points: 2
#     Edge 90, Type (0, 0), BuildingBlock: OJICUG_clean_linker_0, # of connection points: 2
#     Edge 91, Type (0, 0), BuildingBlock: OJICUG_clean_linker_0, # of connection points: 2
#     Edge 92, Type (0, 0), BuildingBlock: OJICUG_clean_linker_0, # of connection points: 2
#     Edge 93, Type (0, 0), BuildingBlock: OJICUG_clean_linker_0, # of connection points: 2
#     Edge 94, Type (0, 0), BuildingBlock: OJICUG_clean_linker_0, # of connection points: 2
#     Edge 95, Type (0, 0), BuildingBlock: OJICUG_clean_linker_0, # of connection points: 2
#     Edge 96, Type (0, 0), BuildingBlock: OJICUG_clean_linker_0, # of connection points: 2
#     Edge 97, Type (0, 0), BuildingBlock: OJICUG_clean_linker_0, # of connection points: 2
#     Edge 98, Type (0, 0), BuildingBlock: OJICUG_clean_linker_0, # of connection points: 2
#     Edge 99, Type (0, 0), BuildingBlock: OJICUG_clean_linker_0, # of connection points: 2
#     Edge 100, Type (0, 0), BuildingBlock: OJICUG_clean_linker_0, # of connection points: 2
#     Edge 101, Type (0, 0), BuildingBlock: OJICUG_clean_linker_0, # of connection points: 2
#     Edge 102, Type (0, 0), BuildingBlock: OJICUG_clean_linker_0, # of connection points: 2
#     Edge 103, Type (0, 0), BuildingBlock: OJICUG_clean_linker_0, # of connection points: 2
#     Edge 104, Type (0, 0), BuildingBlock: OJICUG_clean_linker_0, # of connection points: 2
#     Edge 105, Type (0, 0), BuildingBlock: OJICUG_clean_linker_0, # of connection points: 2
#     Edge 106, Type (0, 0), BuildingBlock: OJICUG_clean_linker_0, # of connection points: 2
#     Edge 107, Type (0, 0), BuildingBlock: OJICUG_clean_linker_0, # of connection points: 2
#     Edge 108, Type (0, 0), BuildingBlock: OJICUG_clean_linker_0, # of connection points: 2
#     Edge 109, Type (0, 0), BuildingBlock: OJICUG_clean_linker_0, # of connection points: 2
#     Edge 110, Type (0, 0), BuildingBlock: OJICUG_clean_linker_0, # of connection points: 2
#     Edge 111, Type (0, 0), BuildingBlock: OJICUG_clean_linker_0, # of connection points: 2
#     Edge 112, Type (0, 0), BuildingBlock: OJICUG_clean_linker_0, # of connection points: 2
#     Edge 113, Type (0, 0), BuildingBlock: OJICUG_clean_linker_0, # of connection points: 2
#     Edge 114, Type (0, 0), BuildingBlock: OJICUG_clean_linker_0, # of connection points: 2
#     Edge 115, Type (0, 0), BuildingBlock: OJICUG_clean_linker_0, # of connection points: 2
#     Edge 116, Type (0, 0), BuildingBlock: OJICUG_clean_linker_0, # of connection points: 2
#     Edge 117, Type (0, 0), BuildingBlock: OJICUG_clean_linker_0, # of connection points: 2
#     Edge 118, Type (0, 0), BuildingBlock: OJICUG_clean_linker_0, # of connection points: 2
#     Edge 119, Type (0, 0), BuildingBlock: OJICUG_clean_linker_0, # of connection points: 2
#     Edge 120, Type (0, 0), BuildingBlock: OJICUG_clean_linker_0, # of connection points: 2
#     Edge 121, Type (0, 0), BuildingBlock: OJICUG_clean_linker_0, # of connection points: 2
#     Edge 122, Type (0, 0), BuildingBlock: OJICUG_clean_linker_0, # of connection points: 2
#     Edge 123, Type (0, 0), BuildingBlock: OJICUG_clean_linker_0, # of connection points: 2
#     Edge 124, Type (0, 0), BuildingBlock: OJICUG_clean_linker_0, # of connection points: 2
#     Edge 125, Type (0, 0), BuildingBlock: OJICUG_clean_linker_0, # of connection points: 2
#     Edge 126, Type (0, 0), BuildingBlock: OJICUG_clean_linker_0, # of connection points: 2
#     Edge 127, Type (0, 0), BuildingBlock: OJICUG_clean_linker_0, # of connection points: 2
# Relax obj value: 0.473
# Max RMSD: 0.213
# Mean RMSD: 0.213
data_MOF--net-vcc--node1-BETGAK_clean_sbu_0--edge1-OJICUG_clean_linker_0
_symmetry_space_group_name_H-M    P1
_symmetry_Int_Tables_number       1
_symmetry_cell_setting            triclinic
loop_
_symmetry_equiv_pos_as_xyz
'x, y, z'
_cell_length_a     24.435296
_cell_length_b     40.805241
_cell_length_c     41.965131
_cell_angle_alpha  89.659959
_cell_angle_beta   89.929663
_cell_angle_gamma 89.965779
loop_
_atom_site_label
_atom_site_type_symbol
_atom_site_fract_x
_atom_site_fract_y
_atom_site_fract_z
_atom_type_partial_charge
La0 La 0.38882 0.01975 0.20431 0.0
La1 La 0.30665 0.99024 0.2261 0.0
C2 C 0.45872 0.04263 0.16621 0.0
C3 C 0.45125 0.04785 0.13159 0.0
C4 C 0.45581 0.07942 1.11816 0.0
C5 C 0.44041 0.08512 1.0864 0.0
C6 C 0.42045 0.05923 1.06792 0.0
C7 C 0.41843 0.02757 1.08081 0.0
C8 C 0.43306 0.02194 1.11237 0.0
C9 C 0.33062 0.0632 0.23669 0.0
C10 C 0.28264 1.01267 0.15696 0.0
C11 C 0.22014 0.96603 0.24775 0.0
C12 C 0.16768 0.98283 0.24938 0.0
C13 C 0.12875 0.96901 0.2697 0.0
C14 C 0.11056 0.9878 0.29519 0.0
C15 C 0.13532 0.01864 0.3001 0.0
C16 C 0.15495 0.03551 0.27328 0.0
C17 C 0.17071 0.01718 0.24697 0.0
C18 C 0.37675 0.94605 0.20126 0.0
C19 C 0.4046 1.0033 0.27837 0.0
O20 O 0.42811 0.06093 0.18412 0.0
O21 O 0.45864 1.01228 0.17631 0.0
O22 O 0.3823 0.05772 0.23952 0.0
O23 O 0.31136 0.04256 0.21686 0.0
O24 O 0.33716 1.01125 0.15874 0.0
O25 O 0.25929 1.01134 0.18514 0.0
O26 O 0.25819 0.97889 0.26574 0.0
O27 O 0.2377 0.96039 0.21916 0.0
O28 O 0.32601 0.94912 0.19435 0.0
O29 O 0.3881 0.96956 0.21923 0.0
O30 O 0.3512 0.99633 0.27421 0.0
O31 O 0.43175 1.01088 0.25157 0.0
H32 H 0.46927 0.09983 0.13257 0.0
H33 H 0.44244 0.10972 1.07663 0.0
H34 H 0.40399 1.00725 1.06659 0.0
H35 H 0.42899 0.9973 1.12181 0.0
H36 H 0.12303 0.94269 0.27064 0.0
H37 H 0.09183 0.97471 0.31486 0.0
H38 H 0.17002 0.06039 0.27525 0.0
H39 H 0.19717 0.0288 0.22964 0.0
La40 La 0.89444 0.26608 0.20799 0.0
La41 La 0.99356 0.27373 0.24025 0.0
C42 C 0.82342 0.2713 0.16609 0.0
C43 C 0.83528 0.27217 0.13168 0.0
C44 C 0.82529 0.24444 1.11296 0.0
C45 C 0.84352 0.24328 1.08148 0.0
C46 C 0.87453 0.26921 1.06847 0.0
C47 C 0.88468 0.29684 1.08753 0.0
C48 C 0.86444 0.29856 1.11843 0.0
C49 C 0.9215 0.21201 0.23678 0.0
C50 C 1.00918 0.26753 0.16416 0.0
C51 C 0.07437 0.25926 0.27458 0.0
C52 C 0.08348 0.2293 0.29381 0.0
C53 C 0.08621 0.23172 0.32695 0.0
C54 C 0.08594 0.20361 0.34593 0.0
C55 C 0.08093 0.17236 0.33215 0.0
C56 C 0.08074 0.16968 0.29887 0.0
C57 C 0.0826 0.19791 0.27981 0.0
C58 C 0.95122 0.33153 0.22141 0.0
C59 C 0.88087 0.27119 0.28417 0.0
O60 O 0.83432 0.24339 0.18015 0.0
O61 O 0.84056 0.29646 0.18261 0.0
O62 O 0.87201 0.22268 0.23357 0.0
O63 O 0.95516 0.23046 0.2218 0.0
O64 O 0.95446 0.26512 0.16549 0.0
O65 O 0.03445 0.27125 0.19197 0.0
O66 O 0.03501 0.27864 0.28406 0.0
O67 O 0.07313 0.25507 0.24386 0.0
O68 O 1.00313 0.32524 0.22378 0.0
O69 O 0.92649 0.30697 0.23229 0.0
O70 O 0.93561 0.26763 0.28288 0.0
O71 O 0.85461 0.27434 0.25619 0.0
H72 H 0.80348 0.22356 1.12274 0.0
H73 H 0.83328 0.2219 1.0676 0.0
H74 H 0.90999 0.31689 1.0793 0.0
H75 H 0.87423 0.32 0.1324 0.0
H76 H 0.08436 0.25546 0.33824 0.0
H77 H 0.0842 0.20661 0.37156 0.0
H78 H 0.07568 0.14599 0.28772 0.0
H79 H 0.07981 0.19512 0.25421 0.0
La80 La 0.38449 0.24924 0.29812 0.0
La81 La 0.28398 0.26179 0.26728 0.0
C82 C 0.46059 0.24693 0.33806 0.0
C83 C 0.4556 0.25124 0.37274 0.0
C84 C 0.47568 0.22722 0.39369 0.0
C85 C 0.46268 0.22836 0.42614 0.0
C86 C 0.4283 0.25319 0.43813 0.0
C87 C 0.40997 0.27777 0.417 0.0
C88 C 0.42378 0.27695 0.38487 0.0
C89 C 0.34374 0.19709 0.26981 0.0
C90 C 0.27307 0.25758 0.34361 0.0
C91 C 0.20261 0.24992 0.23267 0.0
C92 C 0.1947 0.22344 0.20917 0.0
C93 C 0.19643 0.2308 0.1766 0.0
C94 C 0.19677 0.20577 0.15414 0.0
C95 C 0.19689 0.17264 0.1638 0.0
C96 C 0.1933 0.16517 0.1964 0.0
C97 C 0.19146 0.19031 0.21887 0.0
C98 C 0.32686 0.31671 0.29003 0.0
C99 C 0.39747 0.25974 0.22272 0.0
O100 O 0.43642 0.22081 0.32712 0.0
O101 O 0.45019 0.27278 0.32045 0.0
O102 O 0.39488 0.20516 0.26964 0.0
O103 O 0.31725 0.21757 0.28633 0.0
O104 O 0.32752 0.25395 0.34148 0.0
O105 O 0.24587 0.26064 0.31625 0.0
O106 O 0.23898 0.27239 0.22559 0.0
O107 O 0.20683 0.24034 0.26225 0.0
O108 O 0.27485 0.31145 0.28651 0.0
O109 O 0.35244 0.2931 0.27755 0.0
O110 O 0.34239 0.25751 0.2242 0.0
O111 O 0.42424 0.2598 0.25056 0.0
H112 H 0.50022 0.20712 0.3848 0.0
H113 H 0.47899 0.20945 0.44161 0.0
H114 H 0.3823 0.29688 0.42465 0.0
H115 H 0.40694 0.29564 0.36927 0.0
H116 H 0.20095 0.25589 0.16854 0.0
H117 H 0.20145 0.21247 0.12927 0.0
H118 H 0.19418 0.13993 0.20456 0.0
H119 H 0.19048 0.18362 0.24387 0.0
La120 La 0.87397 0.02462 0.30531 0.0
La121 La 0.97339 0.01822 0.27237 0.0
C122 C 0.80353 0.01802 0.34739 0.0
C123 C 0.81562 0.01773 0.38173 0.0
C124 C 0.79976 0.04415 0.40087 0.0
C125 C 0.81876 0.04652 0.43211 0.0
C126 C 0.85561 0.02309 0.44442 0.0
C127 C 0.87045 0.99639 0.42518 0.0
C128 C 0.84992 0.99343 0.39454 0.0
C129 C 0.90772 0.08066 0.28207 0.0
C130 C 0.98916 0.01998 0.34896 0.0
C131 C 0.04952 0.03437 0.23517 0.0
C132 C 0.04929 0.05765 0.20826 0.0
C133 C 1.00972 0.05469 0.18436 0.0
C134 C 0.99631 0.0816 0.16547 0.0
C135 C 1.02255 0.11182 0.1699 0.0
C136 C 0.06643 0.11393 0.19118 0.0
C137 C 0.07978 0.08689 0.21039 0.0
C138 C 0.93225 0.96031 0.28938 0.0
C139 C 0.85908 0.02164 0.2295 0.0
O140 O 0.81204 0.04605 0.33301 0.0
O141 O 0.82262 0.99319 0.33111 0.0
O142 O 0.85698 0.07169 0.28351 0.0
O143 O 0.93755 0.05919 0.29545 0.0
O144 O 0.93435 0.02267 0.34776 0.0
O145 O 1.01444 0.01782 0.32085 0.0
O146 O 1.02215 1.00694 0.23231 0.0
O147 O 0.04024 0.04826 0.26257 0.0
O148 O 0.98422 0.96715 0.28847 0.0
O149 O 0.90642 0.9849 0.27901 0.0
O150 O 0.91354 0.02611 0.2309 0.0
O151 O 0.83321 0.01715 0.25739 0.0
H152 H 0.77343 0.06326 0.39147 0.0
H153 H 0.80478 0.0669 0.44636 0.0
H154 H 0.8999 0.97828 0.433 0.0
H155 H 0.86367 0.97291 0.38036 0.0
H156 H 0.9868 0.03222 0.18153 0.0
H157 H 0.96437 0.07908 0.14775 0.0
H158 H 0.08806 0.13682 0.19411 0.0
H159 H 0.11071 0.08971 0.22863 0.0
La160 La 0.73251 0.02565 1.02165 0.0
La161 La 0.63121 1.0121 1.05185 0.0
C162 C 0.81703 0.01515 0.98888 0.0
C163 C 0.82921 0.98832 0.96631 0.0
C164 C 0.8218 0.99341 0.9336 0.0
C165 C 0.82515 0.96725 0.91251 0.0
C166 C 0.83527 0.93524 0.92366 0.0
C167 C 0.84467 0.93011 0.95623 0.0
C168 C 0.8425 0.95652 0.97735 0.0
C169 C 0.68269 0.08037 1.04 0.0
C170 C 0.62068 0.01788 0.97631 0.0
C171 C 0.55659 1.01189 1.09206 0.0
C172 C 0.56564 1.01183 1.12678 0.0
C173 C 0.55448 0.98363 0.14485 0.0
C174 C 0.57073 0.98163 0.17671 0.0
C175 C 0.60003 1.00744 0.19106 0.0
C176 C 0.61003 0.0359 0.1727 0.0
C177 C 0.59258 0.03818 0.14126 0.0
C178 C 0.67541 0.96029 1.02617 0.0
C179 C 0.74066 0.02086 1.09834 0.0
O180 O 0.77908 0.03618 0.9805 0.0
O181 O 0.81157 1.00619 1.01857 0.0
O182 O 0.73538 0.07638 1.0387 0.0
O183 O 0.6606 0.05512 1.02862 0.0
O184 O 0.6759 0.01713 0.97836 0.0
O185 O 0.59276 0.01915 1.00372 0.0
O186 O 0.57265 0.98528 1.0776 0.0
O187 O 0.57131 0.03855 1.07668 0.0
O188 O 0.62356 0.96658 1.02601 0.0
O189 O 0.70079 0.98187 1.04195 0.0
O190 O 0.68699 0.01498 1.09559 0.0
O191 O 0.76814 0.02635 1.07134 0.0
H192 H 0.81103 0.01742 0.92438 0.0
H193 H 0.81576 0.97174 0.88763 0.0
H194 H 0.85106 0.90556 0.96547 0.0
H195 H 0.84832 0.95163 1.00251 0.0
H196 H 0.53366 0.96297 0.13422 0.0
H197 H 0.56013 0.95965 0.18974 0.0
H198 H 0.6339 0.05612 0.1816 0.0
H199 H 0.60275 0.06015 1.1279 0.0
La200 La 0.05598 0.75181 1.02124 0.0
La201 La 0.1535 0.77299 1.04916 0.0
C202 C 0.97467 0.74835 0.98487 0.0
C203 C 0.97353 0.75806 0.95105 0.0
C204 C 0.99016 0.73518 0.92815 0.0
C205 C 1.01874 0.74574 0.90132 0.0
C206 C 0.02945 0.7793 0.89685 0.0
C207 C 1.00281 0.80219 0.91626 0.0
C208 C 0.97437 0.7916 0.94313 0.0
C209 C 0.10849 0.70259 1.04854 0.0
C210 C 0.16846 0.7589 0.97483 0.0
C211 C 0.22978 0.78143 1.08802 0.0
C212 C 0.22591 0.77833 1.12285 0.0
C213 C 0.24582 0.80315 0.14262 0.0
C214 C 0.23414 0.80262 0.17527 0.0
C215 C 0.20077 0.77779 0.18851 0.0
C216 C 0.18256 0.7525 0.16848 0.0
C217 C 0.19556 0.75255 0.13627 0.0
C218 C 0.10211 0.82023 1.01834 0.0
C219 C 0.04448 0.7634 1.09644 0.0
O220 O 1.00611 0.7233 0.99161 0.0
O221 O 0.98248 0.77234 1.00489 0.0
O222 O 0.05593 0.70653 1.04886 0.0
O223 O 0.12982 0.72571 1.03258 0.0
O224 O 0.11332 0.75581 0.97693 0.0
O225 O 0.19505 0.76382 1.00218 0.0
O226 O 0.20134 0.80557 1.07596 0.0
O227 O 0.22308 0.75429 1.07198 0.0
O228 O 0.15442 0.81554 1.01775 0.0
O229 O 0.08024 0.79928 1.03673 0.0
O230 O 0.09839 0.76888 1.09348 0.0
O231 O 1.01727 0.75715 1.06966 0.0
H232 H 0.98825 0.70912 0.93314 0.0
H233 H 0.03753 0.72741 0.8863 0.0
H234 H 1.00788 0.82827 0.91227 0.0
H235 H 0.95956 0.80988 0.95967 0.0
H236 H 0.26942 0.82324 0.1327 0.0
H237 H 0.25071 0.82199 0.18986 0.0
H238 H 0.15561 0.73334 0.17697 0.0
H239 H 0.17916 0.73315 1.12158 0.0
La240 La 0.76192 0.76229 0.98646 0.0
La241 La 0.66619 0.77841 0.95968 0.0
C242 C 0.84545 0.74867 1.01882 0.0
C243 C 0.8561 0.71775 1.03597 0.0
C244 C 0.84781 0.68724 1.02104 0.0
C245 C 0.83943 0.65894 1.03934 0.0
C246 C 0.84057 0.66073 1.07266 0.0
C247 C 0.85645 0.69035 1.08712 0.0
C248 C 0.86296 0.7187 1.06891 0.0
C249 C 0.71231 0.70976 0.96162 0.0
C250 C 0.65256 0.76423 1.03421 0.0
C251 C 0.59249 0.78761 0.9192 0.0
C252 C 0.59867 0.78476 0.88434 0.0
C253 C 0.58909 0.81193 0.86449 0.0
C254 C 0.60203 0.81063 0.83201 0.0
C255 C 0.62595 0.78228 0.81878 0.0
C256 C 0.63307 0.75472 0.83875 0.0
C257 C 0.61979 0.75596 0.87098 0.0
C258 C 0.70816 0.82913 0.99002 0.0
C259 C 0.77459 0.77619 0.91328 0.0
O260 O 0.8436 0.74655 0.98796 0.0
O261 O 0.80487 0.76618 1.02981 0.0
O262 O 0.76367 0.71579 0.96026 0.0
O263 O 0.69051 0.7321 0.97755 0.0
O264 O 0.70764 0.76428 1.03167 0.0
O265 O 0.62504 0.7667 1.00673 0.0
O266 O 0.62047 0.81141 0.93176 0.0
O267 O 0.59697 0.7605 0.93586 0.0
O268 O 0.6582 0.81908 0.99163 0.0
O269 O 0.73476 0.81007 0.97175 0.0
O270 O 0.7211 0.77005 0.91602 0.0
O271 O 0.80007 0.78063 0.94082 0.0
H272 H 0.84245 0.68567 0.9955 0.0
H273 H 0.82667 0.63659 1.02768 0.0
H274 H 0.85645 0.6928 1.11283 0.0
H275 H 0.8672 0.74203 1.08076 0.0
H276 H 0.57252 0.83438 0.87424 0.0
H277 H 0.59357 0.83205 0.81754 0.0
H278 H 0.65206 0.73248 0.83031 0.0
H279 H 0.62822 0.73461 0.88564 0.0
La280 La 0.03475 0.02368 0.98595 0.0
La281 La 0.1267 1.00277 0.95749 0.0
C282 C 0.9514 0.0398 1.01803 0.0
C283 C 0.93586 0.07146 1.03188 0.0
C284 C 0.95595 0.10107 1.01918 0.0
C285 C 0.95279 0.12992 1.03685 0.0
C286 C 0.93074 0.12924 1.06778 0.0
C287 C 0.90289 0.10064 1.07793 0.0
C288 C 0.90595 0.07194 1.06012 0.0
C289 C 0.09029 0.07428 0.96055 0.0
C290 C 0.14611 0.01521 1.03148 0.0
C291 C 0.20086 0.99201 0.91768 0.0
C292 C 0.19574 0.99565 0.88301 0.0
C293 C 0.20868 0.96946 0.86292 0.0
C294 C 0.19448 0.97077 0.83067 0.0
C295 C 0.16549 0.99789 0.81825 0.0
C296 C 0.15481 0.02455 0.83847 0.0
C297 C 0.17016 0.02356 0.87027 0.0
C298 C 0.07857 0.95396 0.9888 0.0
C299 C 1.01657 1.00967 0.91259 0.0
O300 O 0.95295 0.03916 0.98716 0.0
O301 O 0.99429 0.02552 1.03039 0.0
O302 O 0.03842 0.07023 0.95953 0.0
O303 O 0.1096 0.05036 0.97572 0.0
O304 O 0.09106 0.01844 1.03024 0.0
O305 O 0.17128 1.01115 1.00355 0.0
O306 O 0.17028 0.96892 0.92978 0.0
O307 O 0.19786 0.01905 0.93421 0.0
O308 O 0.13008 0.96077 0.98895 0.0
O309 O 0.05436 0.97478 0.97108 0.0
O310 O 0.0712 1.01109 0.91388 0.0
O311 O 0.99195 1.00883 0.94077 0.0
H312 H 0.97772 0.10156 0.9968 0.0
H313 H 0.97341 0.15164 1.02796 0.0
H314 H 0.88477 0.09893 1.10144 0.0
H315 H 0.88913 0.0494 1.06955 0.0
H316 H 0.22849 0.94771 0.87233 0.0
H317 H 0.20535 0.95018 0.81581 0.0
H318 H 0.13151 0.04561 0.83057 0.0
H319 H 0.15904 0.04405 0.88526 0.0
La320 La 0.41109 0.5142 0.70452 0.0
La321 La 0.30846 0.51433 0.73813 0.0
C322 C 0.48182 0.50119 0.66376 0.0
C323 C 0.47875 0.50859 0.62944 0.0
C324 C 0.47584 0.54118 0.61832 0.0
C325 C 0.46359 0.54781 0.58647 0.0
C326 C 0.45426 0.522 0.56524 0.0
C327 C 0.45911 0.48949 0.57615 0.0
C328 C 0.47129 0.48286 0.60792 0.0
C329 C 0.38451 0.57265 0.72399 0.0
C330 C 0.29624 0.51461 0.66135 0.0
C331 C 0.23047 0.53443 0.77216 0.0
C332 C 0.23057 0.56018 0.79668 0.0
C333 C 0.2707 0.5598 0.82051 0.0
C334 C 0.28038 0.58758 0.83863 0.0
C335 C 0.2499 0.61633 0.8336 0.0
C336 C 0.20714 0.6163 0.81136 0.0
C337 C 0.19778 0.58837 0.79278 0.0
C338 C 0.34406 0.45487 0.72342 0.0
C339 C 0.42415 0.51433 0.78043 0.0
O340 O 0.48573 0.52638 0.68279 0.0
O341 O 0.44612 0.47958 0.67395 0.0
O342 O 0.43409 0.56195 0.72132 0.0
O343 O 0.35128 0.55183 0.71272 0.0
O344 O 0.35114 0.51592 0.66246 0.0
O345 O 0.26977 0.51331 0.68921 0.0
O346 O 0.25783 0.50748 0.77832 0.0
O347 O 0.24084 0.54543 0.74353 0.0
O348 O 0.29269 0.46292 0.72445 0.0
O349 O 0.3717 0.47876 0.73299 0.0
O350 O 0.37038 0.52197 0.7789 0.0
O351 O 0.44865 0.50604 0.75303 0.0
H352 H 0.48112 0.56162 0.63436 0.0
H353 H 0.46069 0.57307 0.57856 0.0
H354 H 0.45153 0.46907 0.56039 0.0
H355 H 0.47291 0.45759 0.61596 0.0
H356 H 0.29637 0.53853 0.82431 0.0
H357 H 0.31235 0.58673 0.85651 0.0
H358 H 0.18236 0.63802 0.80774 0.0
H359 H 0.16681 0.5893 0.77434 0.0
La360 La 0.91164 0.75494 0.70956 0.0
La361 La 0.98926 0.79223 0.72926 0.0
C362 C 0.84047 0.73078 0.67326 0.0
C363 C 0.83836 0.73561 0.63858 0.0
C364 C 0.82263 0.71034 0.61804 0.0
C365 C 0.82854 0.71425 0.58497 0.0
C366 C 0.85078 0.7434 0.57215 0.0
C367 C 0.86558 0.76861 0.59312 0.0
C368 C 0.859 0.76487 0.62573 0.0
C369 C 0.97817 0.71739 0.74385 0.0
C370 C 1.0184 0.76673 0.662 0.0
C371 C 0.05436 0.83369 0.75261 0.0
C372 C 0.11136 0.84317 0.75595 0.0
C373 C 0.12136 0.86852 0.77757 0.0
C374 C 0.15868 0.86287 0.80215 0.0
C375 C 0.17933 0.83084 0.80547 0.0
C376 C 0.18739 0.81358 0.77697 0.0
C377 C 0.15113 0.81898 0.75193 0.0
C378 C 0.9139 0.82752 0.69859 0.0
C379 C 0.89263 0.77506 0.78192 0.0
O380 O 0.88301 0.71453 0.68333 0.0
O381 O 0.83262 0.75718 0.69006 0.0
O382 O 0.92548 0.71823 0.74579 0.0
O383 O 0.99359 0.73908 0.72357 0.0
O384 O 0.964 0.76272 0.66405 0.0
O385 O 0.0421 0.77379 0.68951 0.0
O386 O 0.03903 0.80677 0.76723 0.0
O387 O 0.03332 0.83618 0.72443 0.0
O388 O 0.96408 0.8247 0.69029 0.0
O389 O 0.90584 0.80604 0.7197 0.0
O390 O 0.94329 0.78673 0.77693 0.0
O391 O 0.86843 0.76204 0.75653 0.0
H392 H 0.80706 0.68744 0.62756 0.0
H393 H 0.81624 0.69438 0.5696 0.0
H394 H 0.88444 0.79102 0.58467 0.0
H395 H 0.87175 0.78477 0.641 0.0
H396 H 0.09297 0.88881 0.77969 0.0
H397 H 0.1578 0.8794 0.82224 0.0
H398 H 0.20679 0.79006 0.77805 0.0
H399 H 0.14578 0.79995 0.73428 0.0
La400 La 0.41311 0.75646 0.80187 0.0
La401 La 0.31092 0.76032 0.76951 0.0
C402 C 0.4865 0.76314 0.84233 0.0
C403 C 0.47806 0.76449 0.87707 0.0
C404 C 0.49014 0.73704 0.8961 0.0
C405 C 0.47468 0.73621 0.92809 0.0
C406 C 0.4457 0.76256 0.9416 0.0
C407 C 0.43584 0.79056 0.92268 0.0
C408 C 0.45207 0.79158 0.89092 0.0
C409 C 0.38677 0.7013 0.77506 0.0
C410 C 0.29827 0.75739 0.84603 0.0
C411 C 0.2301 0.74242 0.73642 0.0
C412 C 0.22173 0.7145 0.71461 0.0
C413 C 0.21813 0.71999 0.68173 0.0
C414 C 0.21879 0.6936 0.66074 0.0
C415 C 0.22374 0.66122 0.67226 0.0
C416 C 0.22312 0.65554 0.70519 0.0
C417 C 0.22118 0.68195 0.72621 0.0
C418 C 0.35006 0.81897 0.78763 0.0
C419 C 0.4234 0.76155 0.72534 0.0
O420 O 0.47502 0.73489 0.82945 0.0
O421 O 0.46705 0.78782 0.82568 0.0
O422 O 0.4361 0.71241 0.77742 0.0
O423 O 0.35371 0.71985 0.78985 0.0
O424 O 0.35326 0.75821 0.84453 0.0
O425 O 0.27195 0.75727 0.81828 0.0
O426 O 0.26412 0.7655 0.72737 0.0
O427 O 0.23739 0.73446 0.76624 0.0
O428 O 0.29886 0.81136 0.7862 0.0
O429 O 0.37606 0.79516 0.77654 0.0
O430 O 0.36927 0.75553 0.72701 0.0
O431 O 0.44987 0.76622 0.75303 0.0
H432 H 0.5107 0.71594 0.88606 0.0
H433 H 0.48523 0.71472 0.94201 0.0
H434 H 0.41286 0.81121 0.93163 0.0
H435 H 0.44189 0.81312 0.87692 0.0
H436 H 0.21798 0.7447 0.67218 0.0
H437 H 0.22008 0.69875 0.63539 0.0
H438 H 0.22709 0.63086 0.71459 0.0
H439 H 0.2222 0.67677 0.75152 0.0
La440 La 0.93054 0.53393 0.79403 0.0
La441 La 1.0213 0.50872 0.7689 0.0
C442 C 0.85373 0.54761 0.83165 0.0
C443 C 0.85276 0.54142 0.86615 0.0
C444 C 0.83511 0.56566 0.88733 0.0
C445 C 0.84334 0.56169 0.92016 0.0
C446 C 0.87004 0.53356 0.93224 0.0
C447 C 0.8856 0.50894 0.9107 0.0
C448 C 0.87693 0.51277 0.87822 0.0
C449 C 0.98608 0.58078 0.76343 0.0
C450 C 0.03707 0.52427 0.84165 0.0
C451 C 0.10359 0.48771 0.73879 0.0
C452 C 0.11131 0.45553 0.72419 0.0
C453 C 0.07042 0.43171 0.72727 0.0
C454 C 0.07377 0.40259 0.71024 0.0
C455 C 0.11708 0.39733 0.6885 0.0
C456 C 0.16256 0.41884 0.69036 0.0
C457 C 0.15884 0.44818 0.70727 0.0
C458 C 0.95732 0.46103 0.79371 0.0
C459 C 0.91555 0.51836 0.71987 0.0
O460 O 0.89043 0.56883 0.82248 0.0
O461 O 0.85413 0.52159 0.81366 0.0
O462 O 0.93404 0.57569 0.76183 0.0
O463 O 1.00665 0.55917 0.78192 0.0
O464 O 0.98243 0.52323 0.83898 0.0
O465 O 0.06324 0.52473 0.81396 0.0
O466 O 0.09877 0.48668 0.76958 0.0
O467 O 0.06611 0.5064 0.72596 0.0
O468 O 1.00944 0.46315 0.79658 0.0
O469 O 0.94269 0.48531 0.77732 0.0
O470 O 0.96985 0.51329 0.72285 0.0
O471 O 0.88887 0.52522 0.74682 0.0
H472 H 0.81648 0.588 0.87844 0.0
H473 H 0.82931 0.58087 0.93588 0.0
H474 H 0.90746 0.48726 0.9184 0.0
H475 H 0.89147 0.49374 0.86243 0.0
H476 H 0.03418 0.4364 0.74137 0.0
H477 H 0.03917 0.38623 0.71197 0.0
H478 H 0.19922 0.415 0.67649 0.0
H479 H 0.19172 0.46584 0.70573 0.0
La480 La 0.77514 0.52489 0.51637 0.0
La481 La 0.68082 0.50522 0.54508 0.0
C482 C 0.85983 0.5408 0.485 0.0
C483 C 0.87688 0.57334 0.47317 0.0
C484 C 0.86163 0.60201 0.48943 0.0
C485 C 0.85875 0.63193 0.47313 0.0
C486 C 0.87031 0.63317 0.44034 0.0
C487 C 0.89705 0.60609 0.42647 0.0
C488 C 0.89934 0.5762 0.44272 0.0
C489 C 0.71955 0.57564 0.54077 0.0
C490 C 0.66446 0.51614 0.47027 0.0
C491 C 0.60553 0.49621 0.58484 0.0
C492 C 0.60887 0.49995 0.61966 0.0
C493 C 0.599 0.47295 0.63964 0.0
C494 C 0.61051 0.47469 0.6722 0.0
C495 C 0.63403 0.50315 0.68528 0.0
C496 C 0.64202 0.53049 0.66514 0.0
C497 C 0.62925 0.52899 0.63287 0.0
C498 C 0.72922 0.45564 0.51553 0.0
C499 C 0.79012 0.51252 0.59051 0.0
O500 O 0.85857 0.53735 0.51573 0.0
O501 O 0.81578 0.52869 0.47203 0.0
O502 O 0.77146 0.57186 0.54164 0.0
O503 O 0.70046 0.55189 0.52569 0.0
O504 O 0.71977 0.51759 0.47189 0.0
O505 O 0.63828 0.51416 0.49819 0.0
O506 O 0.63545 0.47252 0.57348 0.0
O507 O 0.61016 0.52301 0.56777 0.0
O508 O 0.6776 0.46231 0.5152 0.0
O509 O 0.75326 0.47672 0.53274 0.0
O510 O 0.7356 0.51493 0.58858 0.0
O511 O 0.81559 0.51015 0.56262 0.0
H512 H 0.84678 0.60091 0.51365 0.0
H513 H 0.83942 0.65257 0.48476 0.0
H514 H 0.90787 0.60615 0.40143 0.0
H515 H 0.91306 0.55467 0.43033 0.0
H516 H 0.5833 0.45028 0.62994 0.0
H517 H 0.60155 0.45345 0.68683 0.0
H518 H 0.66113 0.55268 0.67357 0.0
H519 H 0.63825 0.55012 0.61802 0.0
La520 La 0.03807 0.25712 0.51953 0.0
La521 La 0.13313 0.27365 0.54737 0.0
C522 C 0.9574 0.24225 0.48499 0.0
C523 C 0.9486 0.21105 0.46817 0.0
C524 C 0.96843 0.18139 0.48106 0.0
C525 C 0.9757 0.15402 0.46167 0.0
C526 C 0.96396 0.15608 0.42899 0.0
C527 C 0.9365 0.1842 0.41744 0.0
C528 C 0.92938 0.21151 0.43687 0.0
C529 C 0.08663 0.20506 0.54649 0.0
C530 C 0.14906 0.25982 0.47332 0.0
C531 C 0.20802 0.28213 0.58742 0.0
C532 C 0.20315 0.28043 0.62239 0.0
C533 C 0.21939 0.307 0.6412 0.0
C534 C 0.20714 0.30751 0.67379 0.0
C535 C 0.17737 0.28169 0.68811 0.0
C536 C 0.16274 0.25476 0.66908 0.0
C537 C 0.17571 0.25405 0.63682 0.0
C538 C 0.09202 0.32421 0.51561 0.0
C539 C 1.02237 0.27261 0.59246 0.0
O540 O 0.95705 0.24048 0.51588 0.0
O541 O 0.99859 0.25978 0.47483 0.0
O542 O 0.03543 0.2115 0.54743 0.0
O543 O 0.10911 0.22708 0.53017 0.0
O544 O 0.094 0.25998 0.47518 0.0
O545 O 0.17566 0.26184 0.50104 0.0
O546 O 0.18093 0.30615 0.57428 0.0
O547 O 0.20096 0.25466 0.57202 0.0
O548 O 0.142 0.31405 0.5148 0.0
O549 O 0.06466 0.30514 0.53374 0.0
O550 O 0.07655 0.26826 0.5908 0.0
O551 O 0.99721 0.27475 0.56444 0.0
H552 H 0.98284 0.18005 0.50533 0.0
H553 H 0.9962 0.13264 0.47141 0.0
H554 H 0.9268 0.18691 0.39238 0.0
H555 H 0.91377 0.23394 0.42661 0.0
H556 H 0.24047 0.32768 0.63052 0.0
H557 H 0.2207 0.32833 0.68753 0.0
H558 H 0.13847 0.23473 0.67839 0.0
H559 H 0.16181 0.23339 0.62291 0.0
La560 La 0.74309 0.24982 0.48631 0.0
La561 La 0.65157 0.27605 0.46102 0.0
C562 C 0.82201 0.22605 0.51741 0.0
C563 C 0.82118 0.1952 0.53547 0.0
C564 C 0.77115 0.17908 0.53989 0.0
C565 C 0.7672 0.15301 0.56129 0.0
C566 C 0.81332 0.14307 0.57914 0.0
C567 C 0.86512 0.15461 0.5691 0.0
C568 C 0.86882 0.18144 0.54829 0.0
C569 C 0.68249 0.20362 0.45865 0.0
C570 C 0.63467 0.25905 0.53448 0.0
C571 C 0.57525 0.29055 0.42334 0.0
C572 C 0.57417 0.2851 0.38879 0.0
C573 C 0.55447 0.30928 0.36795 0.0
C574 C 0.5617 0.30597 0.33501 0.0
C575 C 0.58974 0.27864 0.32244 0.0
C576 C 0.60749 0.25404 0.34372 0.0
C577 C 0.59953 0.25715 0.37631 0.0
C578 C 0.70879 0.32066 0.49249 0.0
C579 C 0.75839 0.26896 0.41398 0.0
O580 O 0.8156 0.22227 0.48696 0.0
O581 O 0.79044 0.24938 0.52828 0.0
O582 O 0.73438 0.20698 0.45599 0.0
O583 O 0.66544 0.22653 0.47602 0.0
O584 O 0.68871 0.25263 0.53165 0.0
O585 O 0.60885 0.26736 0.50769 0.0
O586 O 0.61205 0.31154 0.43265 0.0
O587 O 0.57548 0.26411 0.44107 0.0
O588 O 0.65642 0.3168 0.49394 0.0
O589 O 0.72847 0.29982 0.47335 0.0
O590 O 0.70386 0.2676 0.41633 0.0
O591 O 0.78474 0.26818 0.44169 0.0
H592 H 0.73423 0.18824 0.52865 0.0
H593 H 0.72654 0.14406 0.56664 0.0
H594 H 0.90219 0.14595 0.58049 0.0
H595 H 0.9083 0.19247 0.54388 0.0
H596 H 0.5347 0.33103 0.37716 0.0
H597 H 0.54571 0.32503 0.31961 0.0
H598 H 0.63047 0.23299 0.33573 0.0
H599 H 0.61548 0.23813 0.39186 0.0
La600 La 0.05626 0.51821 0.48779 0.0
La601 La 0.16081 0.51205 0.45616 0.0
C602 C 0.97868 0.50004 0.52281 0.0
C603 C 0.98194 0.47424 0.54772 0.0
C604 C 1.00775 0.48098 0.57681 0.0
C605 C 0.02727 0.45546 0.59579 0.0
C606 C 1.02104 0.42276 0.58622 0.0
C607 C 0.99029 0.41565 0.55905 0.0
C608 C 0.97059 0.4413 0.53993 0.0
C609 C 0.09772 0.57534 0.47046 0.0
C610 C 0.17089 0.51544 0.5321 0.0
C611 C 0.23534 0.51827 0.41589 0.0
C612 C 0.22879 0.51798 0.3809 0.0
C613 C 0.24079 0.48954 0.36363 0.0
C614 C 0.22717 0.48734 0.33143 0.0
C615 C 0.19939 0.51315 0.31583 0.0
C616 C 0.18954 0.54214 0.33311 0.0
C617 C 0.20455 0.54462 0.36501 0.0
C618 C 0.12275 0.45675 0.47909 0.0
C619 C 0.04826 0.51709 0.41097 0.0
O620 O 1.0063 0.52708 0.52781 0.0
O621 O 0.98609 0.48937 0.49385 0.0
O622 O 0.04545 0.56933 0.47194 0.0
O623 O 0.12332 0.55088 0.48126 0.0
O624 O 0.11605 0.51111 0.53013 0.0
O625 O 0.19803 0.51985 0.50464 0.0
O626 O 0.22485 0.49047 0.43032 0.0
O627 O 0.21357 0.54322 0.43079 0.0
O628 O 0.17393 0.46495 0.47937 0.0
O629 O 0.09532 0.47849 0.4647 0.0
O630 O 0.103 0.51512 0.4132 0.0
O631 O 1.02 0.51853 0.43824 0.0
H632 H 1.0166 0.50592 0.58383 0.0
H633 H 0.05006 0.4613 0.61717 0.0
H634 H 0.98453 0.39052 0.55161 0.0
H635 H 0.95036 0.4353 0.51776 0.0
H636 H 0.25994 0.46868 0.37519 0.0
H637 H 0.23825 0.46512 0.31914 0.0
H638 H 0.16738 0.56257 0.32296 0.0
H639 H 0.19447 0.56694 0.37757 0.0
La640 La 0.86639 0.02849 0.7123 0.0
La641 La 0.77291 1.00957 0.73916 0.0
C642 C 0.94433 0.04097 0.67511 0.0
C643 C 0.94538 0.03694 0.64055 0.0
C644 C 0.96467 0.06221 0.62077 0.0
C645 C 0.95738 0.06039 0.5878 0.0
C646 C 0.93042 0.0333 0.57435 0.0
C647 C 0.91195 1.00797 0.59449 0.0
C648 C 0.91952 1.00971 0.62711 0.0
C649 C 0.81997 0.07822 0.74351 0.0
C650 C 0.75908 0.02321 0.66518 0.0
C651 C 0.69206 0.99418 0.77358 0.0
C652 C 0.68571 0.96338 0.79184 0.0
C653 C 0.70165 0.93332 0.7783 0.0
C654 C 0.71695 0.90698 0.7978 0.0
C655 C 0.71508 0.91023 0.831 0.0
C656 C 0.69001 0.93822 0.8441 0.0
C657 C 0.67637 0.96481 0.82464 0.0
C658 C 0.82314 0.95832 0.7124 0.0
C659 C 0.88414 1.01254 0.78562 0.0
O660 O 0.90959 0.06297 0.6848 0.0
O661 O 0.94091 0.01397 0.69192 0.0
O662 O 0.86999 0.0685 0.74577 0.0
O663 O 0.7955 0.05852 0.72496 0.0
O664 O 0.81349 0.02031 0.66768 0.0
O665 O 0.7329 0.02527 0.69295 0.0
O666 O 0.69272 0.99123 0.74278 0.0
O667 O 0.73144 0.01335 0.78316 0.0
O668 O 0.77159 0.96382 0.71232 0.0
O669 O 0.8453 0.98055 0.72854 0.0
O670 O 0.82903 1.01112 0.78382 0.0
O671 O 0.91007 0.01659 0.75799 0.0
H672 H 0.98398 0.08366 0.63088 0.0
H673 H 0.9724 0.08024 0.57298 0.0
H674 H 0.88927 0.98727 0.58538 0.0
H675 H 0.90318 0.99016 0.64188 0.0
H676 H 0.70781 0.93122 0.7529 0.0
H677 H 0.73606 0.88573 0.78712 0.0
H678 H 0.68845 0.94164 0.86968 0.0
H679 H 0.66468 0.98765 0.83556 0.0
La680 La 0.39604 0.25458 0.70865 0.0
La681 La 0.4911 0.27129 0.73598 0.0
C682 C 0.31937 0.24827 0.66941 0.0
C683 C 0.32315 0.2514 0.6345 0.0
C684 C 0.30833 0.22511 0.61495 0.0
C685 C 0.32078 0.22579 0.58239 0.0
C686 C 0.34883 0.2527 0.56889 0.0
C687 C 0.36131 0.27952 0.5885 0.0
C688 C 0.34863 0.2789 0.62079 0.0
C689 C 0.43962 0.20324 0.73759 0.0
C690 C 0.50624 0.25743 0.66297 0.0
C691 C 0.57265 0.28654 0.76911 0.0
C692 C 0.57919 0.31677 0.78778 0.0
C693 C 0.56818 0.34775 0.77407 0.0
C694 C 0.55841 0.37492 0.79342 0.0
C695 C 0.56104 0.37165 0.82664 0.0
C696 C 0.57793 0.34153 0.83998 0.0
C697 C 0.58586 0.31425 0.82072 0.0
C698 C 0.43632 0.32389 0.71371 0.0
C699 C 0.38362 0.26518 0.78376 0.0
O700 O 0.34632 0.22351 0.68133 0.0
O701 O 0.32761 0.27503 0.68573 0.0
O702 O 0.38887 0.21194 0.73854 0.0
O703 O 0.46606 0.22353 0.72029 0.0
O704 O 0.45215 0.26247 0.665 0.0
O705 O 0.53123 0.25401 0.69085 0.0
O706 O 0.57065 0.29046 0.73836 0.0
O707 O 0.53453 0.26651 0.77913 0.0
O708 O 0.48777 0.31863 0.71058 0.0
O709 O 0.41733 0.30006 0.72895 0.0
O710 O 0.43849 0.26542 0.78116 0.0
O711 O 0.35584 0.26403 0.75633 0.0
H712 H 0.28863 0.20365 0.62504 0.0
H713 H 0.30896 0.20505 0.568 0.0
H714 H 0.38378 0.30046 0.57952 0.0
H715 H 0.36125 0.29946 0.63525 0.0
H716 H 0.56253 0.35052 0.74863 0.0
H717 H 0.54461 0.39766 0.78265 0.0
H718 H 0.57877 0.33796 0.86559 0.0
H719 H 0.59183 0.29049 0.83172 0.0
La720 La 0.88912 0.2653 0.79808 0.0
La721 La 0.79024 0.28189 0.76914 0.0
C722 C 0.96775 0.26005 0.83586 0.0
C723 C 0.96513 0.26281 0.87065 0.0
C724 C 0.98317 0.23695 0.89011 0.0
C725 C 0.97404 0.23776 0.92298 0.0
C726 C 0.94598 0.2643 0.93684 0.0
C727 C 0.92787 0.28998 0.91696 0.0
C728 C 0.93778 0.28941 0.88444 0.0
C729 C 0.8444 0.21449 0.76992 0.0
C730 C 0.77993 0.27416 0.84521 0.0
C731 C 0.70661 0.27523 0.73518 0.0
C732 C 0.69755 0.24722 0.71361 0.0
C733 C 0.71477 0.24983 0.68183 0.0
C734 C 0.72792 0.22175 0.66481 0.0
C735 C 0.72375 0.19069 0.67921 0.0
C736 C 0.69943 0.1876 0.70921 0.0
C737 C 0.68595 0.2158 0.72631 0.0
C738 C 0.84208 0.33525 0.79026 0.0
C739 C 0.89961 0.27422 0.72245 0.0
O740 O 0.94168 0.23482 0.82447 0.0
O741 O 0.9574 0.28687 0.81966 0.0
O742 O 0.89584 0.22165 0.76942 0.0
O743 O 0.81897 0.23544 0.78664 0.0
O744 O 0.83426 0.27 0.84257 0.0
O745 O 0.75274 0.27871 0.8181 0.0
O746 O 0.74691 0.2949 0.72754 0.0
O747 O 0.70802 0.2677 0.76538 0.0
O748 O 0.7894 0.33192 0.78883 0.0
O749 O 0.863 0.31038 0.77742 0.0
O750 O 0.8446 0.27357 0.72492 0.0
O751 O 0.92754 0.27429 0.74986 0.0
H752 H 1.00376 0.21599 0.87982 0.0
H753 H 0.9894 0.21769 0.93737 0.0
H754 H 0.90392 0.31017 0.92607 0.0
H755 H 0.9219 0.30933 0.86997 0.0
H756 H 0.72323 0.27355 0.67117 0.0
H757 H 0.74576 0.22444 0.64127 0.0
H758 H 0.69538 0.16375 0.72045 0.0
H759 H 0.67176 0.21287 0.75062 0.0
La760 La 0.38168 0.01805 0.8042 0.0
La761 La 0.48189 1.00884 0.77165 0.0
C762 C 0.30804 0.01816 0.84566 0.0
C763 C 0.31316 0.02662 0.87983 0.0
C764 C 0.29845 0.05807 0.89061 0.0
C765 C 0.31108 0.06785 0.92167 0.0
C766 C 0.3385 0.04629 0.94226 0.0
C767 C 0.34999 0.01431 0.93231 0.0
C768 C 0.33744 1.0045 0.9014 0.0
C769 C 0.41976 0.07213 0.77841 0.0
C770 C 0.49549 0.01412 0.84775 0.0
C771 C 0.56212 0.02212 0.73618 0.0
C772 C 0.56955 0.04944 0.71318 0.0
C773 C 0.56022 0.04414 0.68072 0.0
C774 C 0.56034 0.07032 0.65928 0.0
C775 C 0.56866 0.10254 0.66989 0.0
C776 C 0.5793 0.10806 0.70219 0.0
C777 C 0.58061 0.08163 0.72363 0.0
C778 C 0.43907 0.95197 0.7911 0.0
C779 C 0.36733 1.01215 0.72891 0.0
O780 O 0.31568 0.0424 0.8257 0.0
O781 O 0.33274 0.99133 0.83628 0.0
O782 O 0.36873 0.06399 0.77897 0.0
O783 O 0.44766 0.05095 0.79328 0.0
O784 O 0.44081 0.01642 0.84654 0.0
O785 O 0.52166 1.01115 0.82005 0.0
O786 O 0.52538 0.99999 0.72911 0.0
O787 O 0.55887 0.03062 0.76599 0.0
O788 O 0.49106 0.95821 0.78896 0.0
O789 O 0.41355 0.97639 0.78005 0.0
O790 O 0.42187 0.01718 0.73007 0.0
O791 O 0.34185 1.00745 0.75687 0.0
H792 H 0.27897 0.07547 0.87467 0.0
H793 H 0.30132 0.09252 0.9292 0.0
H794 H 0.37049 0.99723 0.94818 0.0
H795 H 0.34868 0.97998 0.89414 0.0
H796 H 0.55104 0.01983 0.67197 0.0
H797 H 0.55044 0.06557 0.63457 0.0
H798 H 0.58458 0.13278 0.71094 0.0
H799 H 0.58772 0.08669 0.74859 0.0
La800 La 0.23111 0.02606 0.52532 0.0
La801 La 0.13475 1.00328 0.55189 0.0
C802 C 0.31731 0.03676 0.49407 0.0
C803 C 0.33077 0.03012 0.46093 0.0
C804 C 0.33836 0.05678 0.44018 0.0
C805 C 0.32115 0.05432 0.40869 0.0
C806 C 0.29641 0.02523 0.39832 0.0
C807 C 0.29951 0.99698 0.41761 0.0
C808 C 0.31769 0.9993 0.44863 0.0
C809 C 0.17613 0.07388 0.55358 0.0
C810 C 0.12134 0.01825 0.47753 0.0
C811 C 0.05627 0.99236 0.58899 0.0
C812 C 0.05665 0.9966 0.62366 0.0
C813 C 0.03711 0.97179 0.64388 0.0
C814 C 0.04754 0.9731 0.67662 0.0
C815 C 0.07877 0.99892 0.68945 0.0
C816 C 0.09576 0.02442 0.66902 0.0
C817 C 0.08452 0.02338 0.63668 0.0
C818 C 0.18811 0.95708 0.52056 0.0
C819 C 0.24211 1.0127 0.60004 0.0
O820 O 0.27822 0.05827 0.49768 0.0
O821 O 0.30996 1.01106 0.5123 0.0
O822 O 0.22817 0.06922 0.55557 0.0
O823 O 0.15634 0.05149 0.53649 0.0
O824 O 0.17675 0.01983 0.4799 0.0
O825 O 0.09422 0.01473 0.50495 0.0
O826 O 0.08898 0.96939 0.57882 0.0
O827 O 0.06106 0.01927 0.57211 0.0
O828 O 0.13582 0.96164 0.51961 0.0
O829 O 0.20902 0.97759 0.53946 0.0
O830 O 0.18778 1.00872 0.59708 0.0
O831 O 0.26954 0.01782 0.57319 0.0
H832 H 0.35003 0.08057 0.4493 0.0
H833 H 0.32158 0.07604 0.39372 0.0
H834 H 0.28165 0.97389 0.41055 0.0
H835 H 0.31317 0.97801 0.46397 0.0
H836 H 1.01546 0.95092 0.63423 0.0
H837 H 0.0322 0.95349 0.69161 0.0
H838 H 0.12095 0.04439 0.67733 0.0
H839 H 0.10055 0.04279 0.62162 0.0
La840 La 0.55359 0.7522 0.52051 0.0
La841 La 0.6496 0.77371 0.54766 0.0
C842 C 0.46873 0.7361 0.48991 0.0
C843 C 0.45418 0.70387 0.47676 0.0
C844 C 0.46976 0.67487 0.49272 0.0
C845 C 0.4776 0.64604 0.47553 0.0
C846 C 0.47107 0.64653 0.44231 0.0
C847 C 0.44215 0.67293 0.42845 0.0
C848 C 0.43518 0.7019 0.44546 0.0
C849 C 0.61235 0.70234 0.54422 0.0
C850 C 0.66272 0.76214 0.47307 0.0
C851 C 0.72702 0.7831 0.5858 0.0
C852 C 0.72586 0.77981 0.62076 0.0
C853 C 0.74326 0.80571 0.63998 0.0
C854 C 0.73293 0.80517 0.67277 0.0
C855 C 0.70414 0.7789 0.68706 0.0
C856 C 0.68956 0.75223 0.6676 0.0
C857 C 0.70038 0.75266 0.63504 0.0
C858 C 0.59548 0.82141 0.51856 0.0
C859 C 0.54274 0.76566 0.59476 0.0
O860 O 0.47131 0.73752 0.52077 0.0
O861 O 0.51092 0.75048 0.4768 0.0
O862 O 0.5602 0.7051 0.54548 0.0
O863 O 0.62993 0.7267 0.529 0.0
O864 O 0.60756 0.76002 0.47547 0.0
O865 O 0.69016 0.76471 0.50042 0.0
O866 O 0.69666 0.80673 0.57443 0.0
O867 O 0.72082 0.75601 0.56968 0.0
O868 O 0.64781 0.81704 0.51733 0.0
O869 O 0.57438 0.79992 0.53662 0.0
O870 O 0.59721 0.76452 0.59211 0.0
O871 O 0.5155 0.76649 0.56735 0.0
H872 H 0.48193 0.67524 0.51746 0.0
H873 H 0.49809 0.62562 0.48708 0.0
H874 H 0.4346 0.67376 0.40302 0.0
H875 H 0.42124 0.72365 0.43307 0.0
H876 H 0.76322 0.82687 0.62946 0.0
H877 H 0.74659 0.82584 0.68651 0.0
H878 H 0.66641 0.73165 0.67667 0.0
H879 H 0.68606 0.73231 0.62083 0.0
La880 La 0.25757 0.75401 0.48812 0.0
La881 La 0.16652 0.77547 0.45979 0.0
C882 C 0.33854 0.73575 0.52118 0.0
C883 C 0.34864 0.70384 0.53669 0.0
C884 C 0.33084 0.67454 0.52249 0.0
C885 C 0.32514 0.64602 0.54078 0.0
C886 C 0.33703 0.64657 0.57349 0.0
C887 C 0.36346 0.67442 0.58605 0.0
C888 C 0.36852 0.70293 0.56782 0.0
C889 C 0.1993 0.70403 0.46391 0.0
C890 C 0.14813 0.76335 0.53425 0.0
C891 C 0.09282 0.78738 0.41983 0.0
C892 C 0.09687 0.78418 0.38503 0.0
C893 C 0.0862 0.8112 0.36524 0.0
C894 C 0.09797 0.80975 0.33266 0.0
C895 C 0.12219 0.78152 0.31945 0.0
C896 C 0.13102 0.7542 0.33946 0.0
C897 C 0.11835 0.75547 0.3717 0.0
C898 C 0.21496 0.82408 0.49044 0.0
C899 C 0.27659 0.76679 0.4148 0.0
O900 O 0.33741 0.7354 0.49027 0.0
O901 O 0.29795 0.75285 0.53262 0.0
O902 O 0.25128 0.70757 0.46216 0.0
O903 O 0.18145 0.72811 0.47907 0.0
O904 O 0.20304 0.76059 0.53265 0.0
O905 O 0.12235 0.7667 0.50635 0.0
O906 O 0.12424 0.80996 0.43177 0.0
O907 O 0.09518 0.76014 0.43639 0.0
O908 O 0.16345 0.81733 0.49082 0.0
O909 O 0.23925 0.80326 0.47287 0.0
O910 O 0.22192 0.76505 0.41643 0.0
O911 O 0.30119 0.7687 0.4429 0.0
H912 H 0.31697 0.67426 0.49806 0.0
H913 H 0.30546 0.62486 0.53032 0.0
H914 H 0.37344 0.6759 0.61114 0.0
H915 H 0.3831 0.72507 0.57896 0.0
H916 H 0.0696 0.8336 0.37508 0.0
H917 H 0.08857 0.83096 0.31808 0.0
H918 H 0.15076 0.73222 0.33093 0.0
H919 H 0.12794 0.73435 0.38644 0.0
La920 La 0.52797 0.02447 0.48535 0.0
La921 La 0.62233 1.00299 0.46093 0.0
C922 C 0.44467 0.04261 0.51619 0.0
C923 C 0.43609 0.07396 0.53271 0.0
C924 C 0.45681 0.10331 0.51962 0.0
C925 C 0.46642 0.13031 0.5391 0.0
C926 C 0.45584 0.12808 0.5719 0.0
C927 C 0.42599 0.1009 0.5835 0.0
C928 C 0.4168 0.07384 0.56404 0.0
C929 C 0.58431 0.07418 0.45945 0.0
C930 C 0.63596 0.01937 0.53454 0.0
C931 C 0.69825 0.9891 0.42322 0.0
C932 C 0.69609 0.9927 0.3884 0.0
C933 C 0.70855 0.96621 0.36855 0.0
C934 C 0.69953 0.96856 0.33566 0.0
C935 C 0.677 0.99733 0.32216 0.0
C936 C 0.66612 0.02397 0.34239 0.0
C937 C 0.67536 0.02166 0.37492 0.0
C938 C 0.57069 0.95544 0.49221 0.0
C939 C 0.51754 1.00781 0.41207 0.0
O940 O 0.44916 0.0447 0.4854 0.0
O941 O 0.48244 0.02353 0.52819 0.0
O942 O 0.5327 0.06953 0.45688 0.0
O943 O 0.60311 0.05132 0.47636 0.0
O944 O 0.58103 0.02203 0.53135 0.0
O945 O 0.66362 0.01418 0.50759 0.0
O946 O 0.66455 0.96728 0.43466 0.0
O947 O 0.69683 0.01629 0.43959 0.0
O948 O 0.62184 0.96271 0.49463 0.0
O949 O 0.54885 0.97532 0.47264 0.0
O950 O 0.57155 1.01166 0.41552 0.0
O951 O 0.49015 1.0062 0.43948 0.0
H952 H 0.47074 0.10443 0.49518 0.0
H953 H 0.48882 0.15103 0.52944 0.0
H954 H 0.41693 0.09833 0.60867 0.0
H955 H 0.40002 0.05166 0.57436 0.0
H956 H 0.72447 0.94359 0.37852 0.0
H957 H 0.71026 0.94777 0.32106 0.0
H958 H 0.6474 0.04631 0.33374 0.0
H959 H 0.66441 0.04239 0.38964 0.0
La960 La 0.91976 0.52452 0.20285 0.0
La961 La 0.81651 0.52267 0.23674 0.0
C962 C 0.99129 0.51579 0.16147 0.0
C963 C 0.98262 0.51547 1.12665 0.0
C964 C 0.99718 0.54279 1.10802 0.0
C965 C 0.98127 0.54489 1.07613 0.0
C966 C 0.94934 0.52 1.06228 0.0
C967 C 0.93758 0.49188 1.08069 0.0
C968 C 0.95421 0.48958 1.11234 0.0
C969 C 0.89373 0.58044 0.22811 0.0
C970 C 0.80336 0.5246 0.15986 0.0
C971 C 0.7397 0.54403 0.27109 0.0
C972 C 0.73655 0.56916 0.29629 0.0
C973 C 0.74142 0.56026 0.32844 0.0
C974 C 0.74729 0.58435 0.3516 0.0
C975 C 0.7488 0.61775 0.34299 0.0
C976 C 0.73984 0.62684 0.31125 0.0
C977 C 0.73257 0.60272 0.28816 0.0
C978 C 0.85441 0.46341 0.2205 0.0
C979 C 0.93077 0.52088 0.27966 0.0
O980 O 0.98331 0.54415 0.17506 0.0
O981 O 0.96931 0.4916 0.17775 0.0
O982 O 0.9433 0.56969 0.22533 0.0
O983 O 0.86079 0.56115 0.2143 0.0
O984 O 0.8584 0.52323 0.16095 0.0
O985 O 0.77739 0.52516 0.18785 0.0
O986 O 0.76602 0.5167 0.27734 0.0
O987 O 0.75199 0.55539 0.24286 0.0
O988 O 0.80259 0.47088 0.22245 0.0
O989 O 0.8809 0.48781 0.22999 0.0
O990 O 0.87667 0.52718 0.27829 0.0
O991 O 0.95692 0.51559 0.25185 0.0
H992 H 1.01984 0.56292 1.11834 0.0
H993 H 0.99363 0.5663 1.06261 0.0
H994 H 0.91265 0.47218 1.07157 0.0
H995 H 0.94231 0.46809 1.12594 0.0
H996 H 0.74342 0.53471 0.33554 0.0
H997 H 0.75453 0.57673 0.37602 0.0
H998 H 0.74056 0.65242 0.30418 0.0
H999 H 0.72664 0.61044 0.26368 0.0
La1000 La 0.42068 0.74849 0.21159 0.0
La1001 La 0.5202 0.76238 0.24181 0.0
C1002 C 0.34336 0.74431 0.17269 0.0
C1003 C 0.34634 0.7497 0.13814 0.0
C1004 C 0.32718 0.72573 1.11717 0.0
C1005 C 0.33759 0.7285 1.08451 0.0
C1006 C 0.36816 0.75509 1.07232 0.0
C1007 C 0.38611 0.77933 1.09362 0.0
C1008 C 0.37512 0.77676 1.126 0.0
C1009 C 0.46505 0.69646 0.23957 0.0
C1010 C 0.53116 0.75896 0.1654 0.0
C1011 C 0.6011 0.75136 0.2772 0.0
C1012 C 0.60788 0.72541 0.30168 0.0
C1013 C 0.60543 0.73355 0.33398 0.0
C1014 C 0.60293 0.70906 0.35725 0.0
C1015 C 0.60168 0.67576 0.34865 0.0
C1016 C 0.60688 0.66745 0.31642 0.0
C1017 C 0.61001 0.69202 0.29315 0.0
C1018 C 0.47616 0.81677 0.21833 0.0
C1019 C 0.4066 0.75926 0.28667 0.0
O1020 O 0.37107 0.71895 0.18274 0.0
O1021 O 0.35161 0.77005 0.1905 0.0
O1022 O 0.41373 0.70398 0.24065 0.0
O1023 O 0.48957 0.7177 0.22279 0.0
O1024 O 0.47661 0.7554 0.16778 0.0
O1025 O 0.55854 0.76145 0.19277 0.0
O1026 O 0.56486 0.77416 0.2832 0.0
O1027 O 0.59739 0.7411 0.24793 0.0
O1028 O 0.52831 0.81179 0.22174 0.0
O1029 O 0.45076 0.79309 0.23121 0.0
O1030 O 0.4618 0.75802 0.28517 0.0
O1031 O 0.38006 0.75836 0.25885 0.0
H1032 H 0.30508 0.70458 1.12614 0.0
H1033 H 0.32166 0.7097 1.069 0.0
H1034 H 0.41135 0.79962 1.08585 0.0
H1035 H 0.39145 0.79535 0.14167 0.0
H1036 H 0.60157 0.75888 0.34114 0.0
H1037 H 0.59725 0.71638 0.3818 0.0
H1038 H 0.60536 0.64205 0.30909 0.0
H1039 H 0.61054 0.68468 0.26842 0.0
La1040 La 0.90721 0.76604 0.30229 0.0
La1041 La 0.80656 0.7676 0.26858 0.0
C1042 C 0.97486 0.77767 0.34498 0.0
C1043 C 0.963 0.77546 0.37949 0.0
C1044 C 0.97988 0.74795 0.39717 0.0
C1045 C 0.96096 0.74294 0.42825 0.0
C1046 C 0.92292 0.76467 0.442 0.0
C1047 C 0.907 0.79252 0.42426 0.0
C1048 C 0.92746 0.7981 0.39375 0.0
C1049 C 0.88304 0.7084 0.28057 0.0
C1050 C 0.79138 0.76535 0.34483 0.0
C1051 C 0.72666 0.75043 0.23434 0.0
C1052 C 0.71901 0.72433 0.21031 0.0
C1053 C 0.72911 0.73081 0.17801 0.0
C1054 C 0.73055 0.70526 0.15613 0.0
C1055 C 0.72282 0.67264 0.1662 0.0
C1056 C 0.70911 0.6662 0.19799 0.0
C1057 C 0.70598 0.69199 0.21974 0.0
C1058 C 0.84302 0.82715 0.28445 0.0
C1059 C 0.92145 0.7661 0.2262 0.0
O1060 O 0.97394 0.74982 0.32973 0.0
O1061 O 0.94934 0.80095 0.32928 0.0
O1062 O 0.93211 0.72007 0.28282 0.0
O1063 O 0.84837 0.72825 0.29248 0.0
O1064 O 0.84617 0.76381 0.34393 0.0
O1065 O 0.76581 0.76767 0.31689 0.0
O1066 O 0.75946 0.77471 0.22699 0.0
O1067 O 0.73489 0.74016 0.26344 0.0
O1068 O 0.79172 0.81906 0.28322 0.0
O1069 O 0.87017 0.80315 0.27461 0.0
O1070 O 0.86747 0.75933 0.22765 0.0
O1071 O 0.94636 0.77341 0.25379 0.0
H1072 H 1.00693 0.72991 0.38673 0.0
H1073 H 0.97599 0.72177 0.44117 0.0
H1074 H 0.87671 0.80953 0.43306 0.0
H1075 H 0.91276 0.81935 0.38075 0.0
H1076 H 0.7387 0.75539 0.16986 0.0
H1077 H 0.74199 0.71074 0.13171 0.0
H1078 H 0.70377 0.64122 0.20629 0.0
H1079 H 0.69789 0.68612 0.24447 0.0
La1080 La 0.4199 0.51899 0.29789 0.0
La1081 La 0.49933 0.4856 0.27653 0.0
C1082 C 0.3497 0.54155 0.33562 0.0
C1083 C 0.35281 0.54001 0.37064 0.0
C1084 C 0.35359 0.56885 0.38873 0.0
C1085 C 0.36667 0.56757 0.42121 0.0
C1086 C 0.37854 0.53734 0.43598 0.0
C1087 C 0.37417 0.50847 0.41814 0.0
C1088 C 0.36281 0.50982 0.3858 0.0
C1089 C 0.48028 0.56003 0.26357 0.0
C1090 C 0.52846 0.51076 0.34412 0.0
C1091 C 0.57448 0.45026 0.25328 0.0
C1092 C 0.63277 0.45264 0.24647 0.0
C1093 C 0.65261 0.4306 0.22375 0.0
C1094 C 0.67706 0.4434 0.19633 0.0
C1095 C 0.67622 0.47764 0.1923 0.0
C1096 C 0.67976 0.49643 0.2201 0.0
C1097 C 0.65587 0.48397 0.2478 0.0
C1098 C 0.42601 0.44589 0.30537 0.0
C1099 C 0.40087 0.50178 0.22475 0.0
O1100 O 0.38719 0.55956 0.32219 0.0
O1101 O 0.34433 0.51353 0.32107 0.0
O1102 O 0.42807 0.55607 0.26166 0.0
O1103 O 0.499 0.5387 0.28328 0.0
O1104 O 0.47365 0.5119 0.34299 0.0
O1105 O 0.55115 0.50604 0.31589 0.0
O1106 O 0.54315 0.46984 0.23654 0.0
O1107 O 0.56068 0.45004 0.28307 0.0
O1108 O 0.47665 0.44861 0.31253 0.0
O1109 O 0.41674 0.46836 0.2856 0.0
O1110 O 0.45306 0.49199 0.22884 0.0
O1111 O 0.37583 0.51214 0.25112 0.0
H1112 H 0.34684 0.59244 0.37742 0.0
H1113 H 0.37005 0.59029 0.43427 0.0
H1114 H 0.38134 0.48468 0.42893 0.0
H1115 H 0.36324 0.4871 0.37259 0.0
H1116 H 0.63851 0.40541 0.22355 0.0
H1117 H 0.68124 0.42728 0.17606 0.0
H1118 H 0.68237 0.52272 0.21782 0.0
H1119 H 0.64316 0.50101 0.26609 0.0
La1120 La 0.26814 0.52648 1.02118 0.0
La1121 La 0.17587 0.50215 1.04568 0.0
C1122 C 0.34948 0.54844 0.99079 0.0
C1123 C 0.35546 0.58052 0.97496 0.0
C1124 C 0.3277 0.60815 0.98677 0.0
C1125 C 0.32116 0.63609 0.96779 0.0
C1126 C 0.34136 0.63652 0.93648 0.0
C1127 C 0.37578 0.61059 0.92663 0.0
C1128 C 0.38247 0.58276 0.94573 0.0
C1129 C 0.20882 0.57379 1.04875 0.0
C1130 C 0.16087 0.51947 0.97205 0.0
C1131 C 0.10143 0.48709 1.08419 0.0
C1132 C 0.10361 0.49214 1.11882 0.0
C1133 C 0.09068 0.46666 0.14005 0.0
C1134 C 0.10004 0.47034 0.17276 0.0
C1135 C 0.12389 0.49932 0.18471 0.0
C1136 C 0.13546 0.52489 0.16306 0.0
C1137 C 0.12521 0.52142 0.13074 0.0
C1138 C 0.23034 0.45633 1.01402 0.0
C1139 C 0.28188 0.50726 1.09335 0.0
O1140 O 0.34474 0.54949 1.02159 0.0
O1141 O 0.31353 0.52861 0.97833 0.0
O1142 O 0.26056 0.56978 1.05148 0.0
O1143 O 0.19146 0.55135 1.03108 0.0
O1144 O 0.21538 0.52391 0.97524 0.0
O1145 O 0.1338 0.51254 0.99891 0.0
O1146 O 0.13706 0.46602 1.0736 0.0
O1147 O 0.10024 0.51366 1.0666 0.0
O1148 O 0.17856 0.46214 1.01208 0.0
O1149 O 0.25103 0.47654 1.03343 0.0
O1150 O 0.22774 0.51098 1.09055 0.0
O1151 O 0.30831 0.50635 1.06566 0.0
H1152 H 0.30735 0.60733 1.00961 0.0
H1153 H 0.29531 0.65578 0.97632 0.0
H1154 H 0.39233 0.6098 0.9027 0.0
H1155 H 0.40483 0.56195 0.93655 0.0
H1156 H 0.07401 0.44383 0.1313 0.0
H1157 H 0.08863 0.45036 0.18844 0.0
H1158 H 0.15507 0.54731 0.17045 0.0
H1159 H 0.13638 0.54141 1.11492 0.0
La1160 La 0.53727 0.26728 1.0172 0.0
La1161 La 0.63824 0.27359 1.05026 0.0
C1162 C 0.45482 0.28317 0.9845 0.0
C1163 C 0.44343 0.3134 0.96627 0.0
C1164 C 0.42382 0.31113 0.93519 0.0
C1165 C 0.42398 0.33851 0.91517 0.0
C1166 C 0.44466 0.3688 0.92589 0.0
C1167 C 0.45818 0.37188 0.9583 0.0
C1168 C 0.45779 0.34435 0.9783 0.0
C1169 C 0.57919 0.20937 1.03423 0.0
C1170 C 0.65255 0.2711 0.97423 0.0
C1171 C 0.70989 0.2679 1.09205 0.0
C1172 C 0.70032 0.26732 1.12683 0.0
C1173 C 0.70864 0.29572 0.14486 0.0
C1174 C 0.69285 0.29678 0.17681 0.0
C1175 C 0.66614 0.2699 0.19125 0.0
C1176 C 0.65944 0.24113 0.17319 0.0
C1177 C 0.67685 0.23976 0.1416 0.0
C1178 C 0.6055 0.32909 1.02555 0.0
C1179 C 0.52399 0.2673 1.09375 0.0
O1180 O 0.49429 0.26462 0.97366 0.0
O1181 O 0.45806 0.28678 1.01523 0.0
O1182 O 0.52725 0.21522 1.03129 0.0
O1183 O 0.60437 0.23427 1.0244 0.0
O1184 O 0.59767 0.27553 0.97543 0.0
O1185 O 0.67815 0.26612 1.00215 0.0
O1186 O 0.69918 0.2958 1.07789 0.0
O1187 O 0.69111 0.24284 1.07602 0.0
O1188 O 0.65589 0.31953 1.02677 0.0
O1189 O 0.57465 0.30849 1.03964 0.0
O1190 O 0.57867 0.2698 1.09253 0.0
O1191 O 0.49796 0.26621 1.06593 0.0
H1192 H 0.41257 0.2876 0.92572 0.0
H1193 H 0.41357 0.33479 0.89038 0.0
H1194 H 0.47369 0.39483 0.96746 0.0
H1195 H 0.47221 0.34694 1.00252 0.0
H1196 H 0.7272 0.31726 0.13419 0.0
H1197 H 0.70143 0.31894 0.18988 0.0
H1198 H 0.63815 0.21997 0.18257 0.0
H1199 H 0.66937 0.21749 0.12837 0.0
La1200 La 0.2513 0.25154 0.98903 0.0
La1201 La 0.15869 0.27557 0.96187 0.0
C1202 C 0.33385 0.23285 1.02081 0.0
C1203 C 0.34489 0.20001 1.03413 0.0
C1204 C 0.32512 0.17202 1.01847 0.0
C1205 C 0.31295 0.14371 1.03584 0.0
C1206 C 0.32068 0.14325 1.06897 0.0
C1207 C 0.35241 0.16833 1.08274 0.0
C1208 C 0.3633 0.19697 1.06551 0.0
C1209 C 0.19239 0.203 0.96344 0.0
C1210 C 0.14108 0.26262 1.036 0.0
C1211 C 0.08462 0.28929 0.92252 0.0
C1212 C 0.08773 0.28674 0.88754 0.0
C1213 C 0.0717 0.31299 0.86796 0.0
C1214 C 0.08135 0.31202 0.83505 0.0
C1215 C 0.10848 0.28504 0.82122 0.0
C1216 C 0.12318 0.25857 0.84115 0.0
C1217 C 0.11247 0.25928 0.87366 0.0
C1218 C 0.21469 0.32165 0.99187 0.0
C1219 C 0.26535 0.26613 0.91497 0.0
O1220 O 0.33267 0.23473 0.98995 0.0
O1221 O 0.29221 0.24822 1.03325 0.0
O1222 O 0.24447 0.20592 0.96245 0.0
O1223 O 0.17432 0.22687 0.97915 0.0
O1224 O 0.19611 0.2589 1.03389 0.0
O1225 O 0.11491 0.26678 1.00837 0.0
O1226 O 0.11689 0.31125 0.93482 0.0
O1227 O 0.08675 0.26165 0.93844 0.0
O1228 O 0.16233 0.31764 0.99326 0.0
O1229 O 0.23488 0.30029 0.97355 0.0
O1230 O 0.21092 0.26652 0.91748 0.0
O1231 O 0.29214 0.26541 0.94254 0.0
H1232 H 0.31287 0.17315 0.99378 0.0
H1233 H 0.28918 0.12472 1.02443 0.0
H1234 H 0.36028 0.16856 1.10814 0.0
H1235 H 0.38 0.21791 1.07778 0.0
H1236 H 0.05243 0.33442 0.87819 0.0
H1237 H 0.06776 0.33253 0.82066 0.0
H1238 H 0.14557 0.23769 0.83222 0.0
H1239 H 0.12568 0.23867 0.88811 0.0
La1240 La 0.56334 0.53105 0.98321 0.0
La1241 La 0.66093 0.51027 0.95584 0.0
C1242 C 0.47587 0.53747 1.01444 0.0
C1243 C 0.46145 0.52688 1.04673 0.0
C1244 C 0.46501 0.55 1.07118 0.0
C1245 C 0.48691 0.54052 1.10033 0.0
C1246 C 0.50335 0.50782 1.10491 0.0
C1247 C 0.48623 0.48383 1.08337 0.0
C1248 C 0.46427 0.49335 1.05433 0.0
C1249 C 0.61706 0.58016 0.95559 0.0
C1250 C 0.67336 0.52379 1.03086 0.0
C1251 C 0.73831 0.50319 0.91731 0.0
C1252 C 0.73503 0.50654 0.88246 0.0
C1253 C 0.75514 0.48174 0.86272 0.0
C1254 C 0.74351 0.48216 0.83009 0.0
C1255 C 0.71033 0.507 0.81673 0.0
C1256 C 0.69178 0.53227 0.83675 0.0
C1257 C 0.70444 0.53222 0.86901 0.0
C1258 C 0.61243 0.46232 0.98755 0.0
C1259 C 0.55168 0.51783 0.9085 0.0
O1260 O 0.51411 0.55986 1.01286 0.0
O1261 O 0.48484 0.51393 0.99414 0.0
O1262 O 0.56484 0.57575 0.95426 0.0
O1263 O 0.63717 0.55735 0.97218 0.0
O1264 O 0.61811 0.52651 1.02849 0.0
O1265 O 0.7006 0.51936 1.00352 0.0
O1266 O 0.71053 0.47859 0.92901 0.0
O1267 O 0.73036 0.53007 0.93357 0.0
O1268 O 0.66446 0.46803 0.987 0.0
O1269 O 0.58891 0.48294 0.96931 0.0
O1270 O 0.60579 0.5129 0.91128 0.0
O1271 O 0.52495 0.52439 0.93522 0.0
H1272 H 0.46047 0.57593 1.06608 0.0
H1273 H 0.49812 0.55949 1.11703 0.0
H1274 H 0.49558 0.45817 1.08741 0.0
H1275 H 0.45821 0.47476 1.03635 0.0
H1276 H 0.77861 0.46161 0.87266 0.0
H1277 H 0.7598 0.46262 0.81564 0.0
H1278 H 0.66484 0.5514 0.82816 0.0
H1279 H 0.68757 0.55149 0.88372 0.0
C1280 C 0.48301 0.87866 0.21576 0.0
C1281 C 0.45169 0.84988 0.21225 0.0
H1282 H 0.48379 0.93149 0.21581 0.0
C1283 C 0.39641 0.85318 0.20359 0.0
H1284 H 0.5257 0.87712 0.22252 0.0
C1285 C 0.37299 0.88429 0.19871 0.0
C1286 C 0.40375 0.91313 0.20323 0.0
H1287 H 0.37107 0.8317 0.20065 0.0
H1288 H 0.33012 0.88571 0.19232 0.0
C1289 C 0.45912 0.90988 0.2118 0.0
C1290 C 0.93574 0.42501 0.21932 0.0
C1291 C 0.87844 0.42948 0.2188 0.0
H1292 H 1.00344 0.39126 0.21976 0.0
C1293 C 0.84538 0.40125 0.21827 0.0
H1294 H 0.96274 0.44598 0.22039 0.0
C1295 C 0.86897 0.36963 0.21888 0.0
C1296 C 0.92632 0.36524 0.21932 0.0
H1297 H 0.80121 0.40357 0.21817 0.0
H1298 H 0.84209 0.34858 0.21941 0.0
C1299 C 0.95928 0.39348 0.21916 0.0
C1300 C 0.43069 0.38423 0.3068 0.0
C1301 C 0.39903 0.41301 0.30409 0.0
H1302 H 0.43337 0.33185 0.30354 0.0
C1303 C 0.34279 0.40974 0.29777 0.0
H1304 H 0.47426 0.38567 0.31133 0.0
C1305 C 0.31896 0.37851 0.2942 0.0
C1306 C 0.35114 0.34982 0.29587 0.0
H1307 H 0.31735 0.43135 0.2953 0.0
H1308 H 0.27558 0.37689 0.2892 0.0
C1309 C 0.40726 0.3532 0.30228 0.0
C1310 C 0.9223 0.86682 0.28671 0.0
C1311 C 0.86535 0.86129 0.28726 0.0
H1312 H 0.98792 0.90187 0.28771 0.0
C1313 C 0.83062 0.88873 0.2895 0.0
H1314 H 0.95041 0.84644 0.28455 0.0
C1315 C 0.85226 0.92075 0.29047 0.0
C1316 C 0.90926 0.92621 0.28994 0.0
H1317 H 0.78663 0.88552 0.28983 0.0
H1318 H 0.82422 0.94128 0.29137 0.0
C1319 C 0.94392 0.89872 0.28842 0.0
C1320 C 0.6872 0.14204 1.03981 0.0
C1321 C 0.65561 0.11326 1.04072 0.0
H1322 H 0.6881 0.19442 1.03608 0.0
C1323 C 0.59813 0.11637 1.04059 0.0
H1324 H 0.73148 0.14068 1.03967 0.0
C1325 C 0.57304 0.14748 1.03936 0.0
C1326 C 0.60484 0.17621 1.03758 0.0
H1327 H 0.57248 0.09474 1.04108 0.0
H1328 H 0.52878 0.14897 1.03909 0.0
C1329 C 0.66222 0.17298 1.03788 0.0
C1330 C 0.10135 0.64113 1.05058 0.0
C1331 C 0.13388 0.66963 1.05178 0.0
H1332 H 0.0996 0.58848 1.04817 0.0
C1333 C 0.19089 0.66616 1.054 0.0
H1334 H 0.05724 0.64294 1.04879 0.0
C1335 C 0.21492 0.63494 1.05446 0.0
C1336 C 0.18259 0.60649 1.05174 0.0
H1337 H 0.21695 0.68759 1.05498 0.0
H1338 H 0.25907 0.63318 1.05586 0.0
C1339 C 0.1255 0.60992 1.05015 0.0
C1340 C 0.72201 0.64872 0.95678 0.0
C1341 C 0.68838 0.67673 0.95719 0.0
H1342 H 0.72569 0.59611 0.95628 0.0
C1343 C 0.6315 0.67276 0.95466 0.0
H1344 H 0.76604 0.65102 0.95875 0.0
C1345 C 0.60856 0.64139 0.95242 0.0
C1346 C 0.64197 0.61327 0.95348 0.0
H1347 H 0.60467 0.69391 0.95479 0.0
H1348 H 0.56445 0.63916 0.95113 0.0
C1349 C 0.69898 0.61728 0.95533 0.0
C1350 C 0.19767 0.14162 0.95993 0.0
C1351 C 0.16552 0.17033 0.96112 0.0
H1352 H 0.1992 0.08896 0.95931 0.0
C1353 C 0.10832 0.16717 0.96086 0.0
H1354 H 0.24191 0.14309 0.96009 0.0
C1355 C 0.0839 0.13601 0.95958 0.0
C1356 C 0.11615 0.1073 0.95933 0.0
H1357 H 0.08251 0.18874 0.96168 0.0
H1358 H 0.03967 0.13441 0.95956 0.0
C1359 C 0.1733 0.11052 0.95945 0.0
C1360 C 0.35479 0.36193 0.71466 0.0
C1361 C 0.4119 0.35731 0.71412 0.0
H1362 H 0.28824 0.39648 0.71727 0.0
C1363 C 0.44592 0.38499 0.71581 0.0
H1364 H 0.32755 0.34103 0.71352 0.0
C1365 C 0.42359 0.41641 0.71886 0.0
C1366 C 0.36658 0.42122 0.71934 0.0
H1367 H 0.49003 0.38233 0.71576 0.0
H1368 H 0.45122 0.43698 0.72121 0.0
C1369 C 0.33231 0.39363 0.71685 0.0
C1370 C 0.89779 0.92032 0.69449 0.0
C1371 C 0.84592 0.92489 0.70803 0.0
H1372 H 0.95881 0.886 0.67949 0.0
C1373 C 0.81525 0.89708 0.71697 0.0
H1374 H 0.92211 0.94125 0.68718 0.0
C1375 C 0.83678 0.86541 0.71354 0.0
C1376 C 0.88847 0.8607 0.69972 0.0
H1377 H 0.77509 0.89977 0.72745 0.0
H1378 H 0.81343 0.84464 0.7222 0.0
C1379 C 0.91846 0.88859 0.68989 0.0
C1380 C 0.35912 0.91248 0.79379 0.0
C1381 C 0.41603 0.91796 0.79232 0.0
H1382 H 0.29366 0.87712 0.79406 0.0
C1383 C 0.45076 0.8905 0.79047 0.0
H1384 H 0.33114 0.93302 0.79519 0.0
C1385 C 0.42926 0.85858 0.78915 0.0
C1386 C 0.37243 0.85303 0.79037 0.0
H1387 H 0.49471 0.89367 0.78916 0.0
H1388 H 0.45734 0.83823 0.78671 0.0
C1389 C 0.33762 0.88041 0.79311 0.0
C1390 C 0.92831 0.36894 0.79567 0.0
C1391 C 0.87092 0.36759 0.79309 0.0
H1392 H 1.00018 0.39904 0.79868 0.0
C1393 C 0.84196 0.39749 0.79185 0.0
H1394 H 0.95209 0.34658 0.79643 0.0
C1395 C 0.86982 0.42777 0.79226 0.0
C1396 C 0.9272 0.42902 0.79483 0.0
H1397 H 0.79779 0.39752 0.78967 0.0
H1398 H 0.84653 0.45026 0.7903 0.0
C1399 C 0.95596 0.39915 0.79695 0.0
C1400 C 0.72337 0.6371 0.5438 0.0
C1401 C 0.69234 0.60801 0.54354 0.0
H1402 H 0.72226 0.68981 0.54362 0.0
C1403 C 0.63506 0.61026 0.54471 0.0
H1404 H 0.76764 0.63619 0.54274 0.0
C1405 C 0.60929 0.64091 0.54598 0.0
C1406 C 0.6402 0.67003 0.54536 0.0
H1407 H 0.61016 0.58831 0.54447 0.0
H1408 H 0.56499 0.64177 0.5466 0.0
C1409 C 0.69751 0.66781 0.5443 0.0
C1410 C 0.09574 0.1123 0.55324 0.0
C1411 C 0.15248 0.10734 0.55521 0.0
H1412 H 0.03025 0.14717 0.5498 0.0
C1413 C 0.18715 0.13491 0.55613 0.0
H1414 H 0.06817 0.09155 0.55239 0.0
C1415 C 0.16571 0.16667 0.55367 0.0
C1416 C 0.10908 0.17161 0.55112 0.0
H1417 H 0.23114 0.13197 0.55751 0.0
H1418 H 0.19349 0.18736 0.55343 0.0
C1419 C 0.07417 0.14414 0.55168 0.0
C1420 C 0.68977 0.14235 0.45678 0.0
C1421 C 0.65674 0.17071 0.45691 0.0
H1422 H 0.69275 0.08971 0.45797 0.0
C1423 C 0.59969 0.16702 0.45661 0.0
H1424 H 0.73398 0.1443 0.45718 0.0
C1425 C 0.57617 0.13563 0.45627 0.0
C1426 C 0.60926 0.10729 0.45715 0.0
H1427 H 0.57336 0.18837 0.45673 0.0
H1428 H 0.53199 0.13359 0.45617 0.0
C1429 C 0.66629 0.11102 0.4573 0.0
C1430 C 0.11508 0.66815 0.46306 0.0
C1431 C 0.17243 0.67132 0.46344 0.0
H1432 H 0.04621 0.63523 0.46414 0.0
C1433 C 0.20446 0.64274 0.46504 0.0
H1434 H 0.08935 0.68975 0.4619 0.0
C1435 C 0.17995 0.61184 0.46729 0.0
C1436 C 0.12271 0.60845 0.46686 0.0
H1437 H 0.2487 0.64422 0.46558 0.0
H1438 H 0.20609 0.5906 0.46992 0.0
C1439 C 0.09044 0.63696 0.46435 0.0
C1440 C 0.18127 0.05028 0.34336 0.0
C1441 C 0.17262 0.02076 0.32733 0.0
H1442 H 0.22762 0.07491 0.37904 0.0
C1443 C 0.20753 0.99399 0.33315 0.0
H1444 H 0.15553 0.07139 0.33867 0.0
C1445 C 0.25031 0.99653 0.35421 0.0
C1446 C 0.25834 0.02544 0.37123 0.0
H1447 H 0.2032 0.97102 0.32066 0.0
H1448 H 0.27627 0.9753 0.35758 0.0
C1449 C 0.22348 0.05246 0.36564 0.0
C1450 C 0.05276 0.13563 0.40932 0.0
C1451 C 0.99539 0.13596 0.40591 0.0
H1452 H 0.12845 0.14692 0.38611 0.0
C1453 C 0.97351 0.1306 0.37543 0.0
H1454 H 0.07153 0.13828 0.43253 0.0
C1455 C 1.0067 0.13543 0.34869 0.0
C1456 C 0.06131 0.14526 0.3527 0.0
H1457 H 0.9296 0.12923 0.3721 0.0
H1458 H 0.98725 0.13791 0.32572 0.0
C1459 C 0.08583 0.14057 0.38258 0.0
C1460 C 0.29181 0.11825 1.12052 0.0
C1461 C 0.27806 0.12818 1.08945 0.0
H1462 H 0.2736 0.12446 0.16985 0.0
C1463 C 0.22418 0.1389 1.08364 0.0
H1464 H 0.33234 0.10879 1.1256 0.0
C1465 C 0.19221 0.14974 1.10894 0.0
C1466 C 0.21209 0.14731 0.1402 0.0
H1467 H 0.2112 0.14573 1.05982 0.0
H1468 H 0.15649 0.16446 1.10361 0.0
C1469 C 0.25844 0.12774 0.14595 0.0
C1470 C 0.94961 0.14849 0.14997 0.0
C1471 C 1.00521 0.13965 0.14991 0.0
H1472 H 0.8792 0.15597 1.12068 0.0
C1473 C 0.03671 0.14656 1.12293 0.0
H1474 H 0.92475 0.14427 0.171 0.0
C1475 C 1.01065 0.15351 1.09413 0.0
C1476 C 0.9531 0.15149 1.09254 0.0
H1477 H 0.07958 0.14017 1.12264 0.0
H1478 H 0.03543 0.15266 1.07274 0.0
C1479 C 0.92353 0.1553 1.12106 0.0
C1480 C 0.84428 0.90871 0.87099 0.0
C1481 C 0.82301 0.90779 0.90204 0.0
H1482 H 0.8243 0.90707 0.82166 0.0
C1483 C 0.77428 0.8905 0.9076 0.0
H1484 H 0.88256 0.9212 0.86616 0.0
C1485 C 0.73979 0.88325 0.88207 0.0
C1486 C 0.75529 0.89276 0.85115 0.0
H1487 H 0.75831 0.88846 0.93145 0.0
H1488 H 0.69786 0.87623 0.88705 0.0
C1489 C 0.81058 0.90051 0.84542 0.0
C1490 C 0.08042 0.77419 0.84575 0.0
C1491 C 0.07312 0.79001 0.87485 0.0
H1492 H 0.12242 0.7725 0.80203 0.0
C1493 C 0.10993 0.8149 0.88371 0.0
H1494 H 0.05329 0.75469 0.83835 0.0
C1495 C 0.15034 0.82565 0.86259 0.0
C1496 C 0.15447 0.81179 0.83216 0.0
H1497 H 0.1069 0.8265 0.90675 0.0
H1498 H 0.17574 0.84628 0.86917 0.0
C1499 C 0.12105 0.78449 0.82493 0.0
C1500 C 0.75124 0.63935 1.0879 0.0
C1501 C 0.80825 0.63756 1.09223 0.0
H1502 H 0.67606 0.65303 1.11041 0.0
C1503 C 0.8282 0.62956 1.12263 0.0
H1504 H 0.73434 0.6442 1.06447 0.0
C1505 C 0.79457 0.63454 0.14907 0.0
C1506 C 0.74109 0.6464 0.14469 0.0
H1507 H 0.87185 0.62697 1.12645 0.0
H1508 H 0.81375 0.63557 0.1722 0.0
C1509 C 0.71759 0.6446 1.1143 0.0
C1510 C 0.25583 0.65457 0.91049 0.0
C1511 C 0.31342 0.65653 0.91163 0.0
H1512 H 0.18789 0.6401 0.88177 0.0
C1513 C 0.34147 0.66341 0.88314 0.0
H1514 H 0.23207 0.65097 0.93203 0.0
C1515 C 0.31596 0.65668 0.85417 0.0
C1516 C 0.26201 0.64466 0.85402 0.0
H1517 H 0.38543 0.66689 0.88332 0.0
H1518 H 0.34144 0.65478 0.83318 0.0
C1519 C 0.23006 0.64831 0.88148 0.0
C1520 C 0.32788 0.61864 0.62602 0.0
C1521 C 0.30546 0.62558 0.5959 0.0
H1522 H 0.3167 0.62521 0.67599 0.0
C1523 C 0.24806 0.62713 0.59317 0.0
H1524 H 0.37174 0.61585 0.62874 0.0
C1525 C 0.2165 0.63286 0.6203 0.0
C1526 C 0.2423 0.63562 0.64998 0.0
H1527 H 0.22884 0.63097 0.5702 0.0
H1528 H 0.17439 0.64065 0.61737 0.0
C1529 C 0.29621 0.62408 0.65322 0.0
C1530 C 0.10842 0.3993 0.60483 0.0
C1531 C 0.0512 0.39727 0.60382 0.0
H1532 H 0.18011 0.39185 0.63211 0.0
C1533 C 1.02432 0.37728 0.62608 0.0
H1534 H 0.13053 0.4139 0.58748 0.0
C1535 C 0.05309 0.36617 0.65291 0.0
C1536 C 0.10657 0.37816 0.65848 0.0
H1537 H 0.9804 0.37388 0.62496 0.0
H1538 H 0.03017 0.35385 0.6715 0.0
C1539 C 0.13664 0.38718 0.63115 0.0
C1540 C 0.82096 0.65547 0.36204 0.0
C1541 C 0.76892 0.64154 0.36652 0.0
H1542 H 0.89724 0.66643 0.38462 0.0
C1543 C 0.746 0.64135 0.39707 0.0
H1544 H 0.83924 0.6563 0.33854 0.0
C1545 C 0.77828 0.64883 0.42332 0.0
C1546 C 0.83499 0.6533 0.41914 0.0
H1547 H 0.70647 0.6302 0.4011 0.0
H1548 H 0.76128 0.64357 0.44666 0.0
C1549 C 0.85413 0.6616 0.38851 0.0
C1550 C 0.83636 0.1505 0.63573 0.0
C1551 C 0.8047 0.13344 0.61325 0.0
H1552 H 0.83227 0.18615 0.67245 0.0
C1553 C 0.75245 0.12251 0.62321 0.0
H1554 H 0.87834 0.15735 0.63098 0.0
C1555 C 0.72622 0.13834 0.64859 0.0
C1556 C 0.75366 0.16341 0.66458 0.0
H1557 H 0.72835 0.10669 0.60808 0.0
H1558 H 0.68321 0.13408 0.65297 0.0
C1559 C 0.81004 0.16716 0.66005 0.0
C1560 C 0.44185 0.3948 0.87182 0.0
C1561 C 0.4668 0.39231 0.90191 0.0
H1562 H 0.45534 0.39147 0.82169 0.0
C1563 C 0.5223 0.40113 0.90445 0.0
H1564 H 0.39855 0.38981 0.86916 0.0
C1565 C 0.55501 0.40222 0.8772 0.0
C1566 C 0.53179 0.39475 0.8476 0.0
H1567 H 0.54258 0.40089 0.92725 0.0
H1568 H 0.59908 0.40249 0.88004 0.0
C1569 C 0.47454 0.39603 0.8445 0.0
C1570 C 0.57979 0.12988 0.61755 0.0
C1571 C 0.55527 0.12957 0.64777 0.0
H1572 H 0.56603 0.1333 0.56772 0.0
C1573 C 0.50459 0.14523 0.65173 0.0
H1574 H 0.61898 0.11811 0.6138 0.0
C1575 C 0.47282 0.15282 0.62501 0.0
C1576 C 0.49255 0.14495 0.59455 0.0
H1577 H 0.48561 0.14594 0.67493 0.0
H1578 H 0.43002 0.15885 0.62843 0.0
C1579 C 0.54885 0.13856 0.59095 0.0
C1580 C 0.60124 0.65356 0.40411 0.0
C1581 C 0.58312 0.6513 0.37254 0.0
H1582 H 0.5801 0.64894 0.45292 0.0
C1583 C 0.5363 0.63248 0.3661 0.0
H1584 H 0.63708 0.66793 0.4099 0.0
C1585 C 0.50181 0.62268 0.39099 0.0
C1586 C 0.51447 0.63183 0.42232 0.0
H1587 H 0.52183 0.62999 0.34201 0.0
H1588 H 0.46132 0.61366 0.38526 0.0
C1589 C 0.56809 0.64248 0.42891 0.0
C1590 C 0.63651 0.47555 0.13744 0.0
C1591 C 0.63754 0.48983 0.16772 0.0
H1592 H 0.59309 0.47009 1.09381 0.0
C1593 C 0.59379 0.51061 0.17678 0.0
H1594 H 0.66949 0.4598 0.12956 0.0
C1595 C 0.54937 0.51551 0.15691 0.0
C1596 C 0.54777 0.50038 1.12724 0.0
H1597 H 0.59151 0.52181 0.20004 0.0
H1598 H 0.51585 0.53072 0.16505 0.0
C1599 C 0.59216 0.48089 1.11732 0.0
C1600 C 0.34242 0.06224 1.03036 0.0
C1601 C 0.39905 0.06439 1.03557 0.0
H1602 H 0.27835 0.0553 0.99604 0.0
C1603 C 0.43489 0.06497 1.00951 0.0
H1604 H 0.31436 0.06175 1.05034 0.0
C1605 C 0.41443 0.0613 0.97866 0.0
C1606 C 0.35807 0.05702 0.97364 0.0
H1607 H 0.47875 0.0661 1.01317 0.0
H1608 H 0.44274 0.06015 0.95882 0.0
C1609 C 0.32192 0.05868 0.9995 0.0
C1610 C 0.90748 0.23727 1.02074 0.0
C1611 C 0.89654 0.26756 1.03539 0.0
H1612 H 0.9293 0.21219 0.97817 0.0
C1613 C 0.90666 0.29648 1.01799 0.0
H1614 H 0.9024 0.21434 1.03348 0.0
C1615 C 0.92633 0.29522 0.98698 0.0
C1616 C 0.93329 0.26505 0.9715 0.0
H1617 H 0.89833 0.32042 1.02776 0.0
H1618 H 0.93481 0.31823 0.97501 0.0
C1619 C 0.92456 0.23601 0.98901 0.0
C1620 C 0.39489 0.28223 0.48723 0.0
C1621 C 0.4092 0.25284 0.47194 0.0
H1622 H 0.36103 0.30514 0.5281 0.0
C1623 C 0.40262 0.22318 0.48885 0.0
H1624 H 0.40037 0.30576 0.47565 0.0
C1625 C 0.3829 0.22303 0.52013 0.0
C1626 C 0.36763 0.25244 0.53508 0.0
H1627 H 0.41203 0.19987 0.47798 0.0
H1628 H 0.38037 0.19978 0.53261 0.0
C1629 C 0.37325 0.28195 0.51793 0.0
C1630 C 0.89483 0.99836 0.49423 0.0
C1631 C 0.87901 0.0264 0.47693 0.0
H1632 H 0.92799 0.97881 0.53705 0.0
C1633 C 0.88587 0.05737 0.49105 0.0
H1634 H 0.8898 0.97395 0.48479 0.0
C1635 C 0.90451 0.05994 0.52236 0.0
C1636 C 0.91843 0.03166 0.53983 0.0
H1637 H 0.87618 0.07971 0.47823 0.0
H1638 H 0.90602 0.08398 0.53312 0.0
C1639 C 0.91575 1.00106 0.5248 0.0
C1640 C 0.63597 0.03258 0.2418 0.0
C1641 C 0.62157 1.00449 0.22438 0.0
H1642 H 0.66992 0.05238 0.2839 0.0
C1643 C 0.62918 0.97364 0.23907 0.0
H1644 H 0.63023 0.05703 0.23243 0.0
C1645 C 0.64772 0.97117 0.27047 0.0
C1646 C 0.6618 0.99937 0.28774 0.0
H1647 H 0.62084 0.95106 0.22668 0.0
H1648 H 0.64971 0.94703 0.28117 0.0
C1649 C 0.65753 0.02997 0.27235 0.0
C1650 C 0.16743 0.74995 0.23862 0.0
C1651 C 0.18232 0.77889 0.22241 0.0
H1652 H 0.13253 0.72814 0.27988 0.0
C1653 C 0.17655 0.8089 0.23845 0.0
H1654 H 0.17235 0.72612 0.22784 0.0
C1655 C 0.1572 0.80982 0.26976 0.0
C1656 C 0.14101 0.78089 0.2856 0.0
H1657 H 0.1863 0.83193 0.22689 0.0
H1658 H 0.15565 0.83334 0.28146 0.0
C1659 C 0.14564 0.75102 0.26924 0.0
C1660 C 0.65137 0.75184 0.76861 0.0
C1661 C 0.64564 0.78167 0.78494 0.0
H1662 H 0.67865 0.72702 0.72738 0.0
C1663 C 0.66114 0.81067 0.76894 0.0
H1664 H 0.63904 0.7288 0.77924 0.0
C1665 C 0.68011 0.80987 0.7375 0.0
C1666 C 0.68651 0.7799 0.72133 0.0
H1667 H 0.65908 0.83423 0.78054 0.0
H1668 H 0.68885 0.83307 0.72602 0.0
C1669 C 0.67297 0.75089 0.73789 0.0
C1670 C 0.12949 0.96841 0.76994 0.0
C1671 C 0.1435 0.99789 0.78513 0.0
H1672 H 0.09999 0.94531 0.72793 0.0
C1673 C 0.13362 0.02758 0.76894 0.0
H1674 H 0.13499 0.94499 0.78168 0.0
C1675 C 0.10946 0.02786 0.73897 0.0
C1676 C 0.09746 0.99842 0.72322 0.0
H1677 H 0.14469 0.05094 0.77912 0.0
H1678 H 0.10091 0.05143 0.72814 0.0
C1679 C 0.10768 0.96863 0.7392 0.0
C1680 C 0.46012 0.50955 0.5075 0.0
C1681 C 0.43784 0.52854 0.53197 0.0
H1682 H 0.45871 0.49729 0.45846 0.0
C1683 C 0.39758 0.55207 0.5246 0.0
H1684 H 0.49204 0.49177 0.51234 0.0
C1685 C 0.37863 0.5556 0.4933 0.0
C1686 C 0.39952 0.5355 0.46906 0.0
H1687 H 0.37933 0.56686 0.54316 0.0
H1688 H 0.34647 0.57317 0.48834 0.0
C1689 C 0.44094 0.51281 0.47654 0.0
C1690 C 0.87832 0.72111 0.51849 0.0
C1691 C 0.86158 0.74759 0.53744 0.0
H1692 H 0.90819 0.70527 0.47336 0.0
C1693 C 0.86033 0.77906 0.52367 0.0
H1694 H 0.87968 0.69644 0.52806 0.0
C1695 C 0.88046 0.78452 0.49311 0.0
C1696 C 0.89956 0.75838 0.47441 0.0
H1697 H 0.84556 0.79998 0.53691 0.0
H1698 H 0.88236 0.80963 0.48486 0.0
C1699 C 0.89622 0.72638 0.48719 0.0
C1700 C 0.41645 0.78911 0.99283 0.0
C1701 C 0.42431 0.76055 0.97481 0.0
H1702 H 0.38842 0.81018 1.03597 0.0
C1703 C 0.41035 0.73016 0.98864 0.0
H1704 H 0.4272 0.81304 0.98357 0.0
C1705 C 0.39158 0.72832 1.02001 0.0
C1706 C 0.38412 0.75693 1.03807 0.0
H1707 H 0.41389 0.70758 0.97541 0.0
H1708 H 0.38419 0.70427 1.0301 0.0
C1709 C 0.39528 0.78738 1.02358 0.0
C1710 C 0.8971 0.55823 0.98496 0.0
C1711 C 0.8852 0.53042 0.96656 0.0
H1712 H 0.92385 0.57703 1.02952 0.0
C1713 C 0.89217 0.4993 0.98059 0.0
H1714 H 0.89281 0.58271 0.97524 0.0
C1715 C 0.9141 0.49597 1.01103 0.0
C1716 C 0.92687 0.52369 1.02935 0.0
H1717 H 0.8817 0.47715 0.96795 0.0
H1718 H 0.92169 0.47139 1.0197 0.0
C1719 C 0.91665 0.55491 1.01608 0.0
C1720 C 0.68742 0.47594 0.76657 0.0
C1721 C 0.69254 0.50593 0.7827 0.0
H1722 H 0.66781 0.45148 0.72344 0.0
C1723 C 0.67795 0.53486 0.76638 0.0
H1724 H 0.69699 0.45289 0.77815 0.0
C1725 C 0.65703 0.53379 0.73555 0.0
C1726 C 0.65279 0.50392 0.71916 0.0
H1727 H 0.68244 0.55868 0.77723 0.0
H1728 H 0.64413 0.55667 0.72482 0.0
C1729 C 0.66889 0.47502 0.73512 0.0
C1730 C 0.13096 0.25472 0.77072 0.0
C1731 C 0.12366 0.28466 0.78666 0.0
H1732 H 0.15776 0.23008 0.72922 0.0
C1733 C 0.13378 0.31388 0.76959 0.0
H1734 H 0.12211 0.23154 0.78221 0.0
C1735 C 0.15072 0.31306 0.73772 0.0
C1736 C 0.15986 0.28299 0.72226 0.0
H1737 H 0.12955 0.33756 0.78078 0.0
H1738 H 0.15628 0.33615 0.72535 0.0
C1739 C 0.15023 0.25389 0.73952 0.0
C1740 C 0.63508 0.24378 0.24293 0.0
C1741 C 0.64388 0.27216 0.22442 0.0
H1742 H 0.60651 0.22314 0.28639 0.0
C1743 C 0.63027 0.30269 0.23785 0.0
H1744 H 0.64527 0.21967 0.23422 0.0
C1745 C 0.61177 0.30485 0.26927 0.0
C1746 C 0.60394 0.27644 0.28788 0.0
H1747 H 0.63406 0.32525 0.22439 0.0
H1748 H 0.60512 0.32902 0.27899 0.0
C1749 C 0.61394 0.24584 0.27369 0.0
C1750 C 0.15168 0.47486 0.2378 0.0
C1751 C 0.13952 0.50258 0.219 0.0
H1752 H 0.17641 0.45601 0.28277 0.0
C1753 C 0.14571 0.5337 0.23285 0.0
H1754 H 0.14836 0.45034 0.22838 0.0
C1755 C 0.1667 0.53709 0.26347 0.0
C1756 C 0.17891 0.50944 0.28239 0.0
H1757 H 0.13497 0.55588 0.22011 0.0
H1758 H 0.17362 0.56173 0.27181 0.0
C1759 C 0.16978 0.47822 0.26917 0.0
C1760 C 0.34579 0.15378 0.22852 0.0
C1761 C 0.32424 0.16498 0.25748 0.0
H1762 H 0.36181 0.11274 0.19847 0.0
C1763 C 0.29307 0.14308 0.27617 0.0
H1764 H 0.37006 0.17001 0.21364 0.0
C1765 C 0.28856 0.10975 0.26745 0.0
C1766 C 0.31384 0.09812 0.2395 0.0
H1767 H 0.27654 0.15092 0.29884 0.0
H1768 H 0.26945 0.09265 0.28387 0.0
C1769 C 0.34055 0.12093 0.21965 0.0
C1770 C 0.89025 0.1399 0.28883 0.0
C1771 C 0.92292 0.11519 0.27577 0.0
H1772 H 0.86696 0.19024 0.28764 0.0
C1773 C 0.96317 0.12385 0.25326 0.0
H1774 H 0.85908 0.134 0.30634 0.0
C1775 C 0.96752 0.15644 0.24205 0.0
C1776 C 0.93156 0.18052 0.25351 0.0
H1777 H 0.98803 0.10502 0.24271 0.0
H1778 H 0.99569 0.16221 0.22291 0.0
C1779 C 0.89497 0.17215 0.27813 0.0
C1780 C 0.68153 0.88534 0.97558 0.0
C1781 C 0.71694 0.86479 0.99285 0.0
H1782 H 0.64221 0.93192 0.97239 0.0
C1783 C 0.74661 0.87805 1.01844 0.0
H1784 H 0.65753 0.87566 0.95604 0.0
C1785 C 0.73764 0.91072 1.0279 0.0
C1786 C 0.69819 0.93003 1.0122 0.0
H1787 H 0.77296 0.86244 1.03271 0.0
H1788 H 0.75779 0.91985 1.04914 0.0
C1789 C 0.67241 0.91753 0.98502 0.0
C1790 C 0.05401 0.87338 1.03013 0.0
C1791 C 0.07809 0.85195 1.00805 0.0
H1792 H 0.03433 0.92355 1.041 0.0
C1793 C 0.09001 0.86374 0.97734 0.0
H1794 H 0.04544 0.86505 1.05419 0.0
C1795 C 0.08205 0.89681 0.9695 0.0
C1796 C 0.06317 0.91905 0.99248 0.0
H1797 H 0.1094 0.84784 0.96011 0.0
H1798 H 0.0961 0.90565 0.94649 0.0
C1799 C 0.04731 0.90682 1.02252 0.0
C1800 C 0.41307 0.66188 0.73363 0.0
C1801 C 0.3749 0.67112 0.75693 0.0
H1802 H 0.44481 0.62365 0.70454 0.0
C1803 C 0.33228 0.64937 0.76471 0.0
H1804 H 0.4457 0.67836 0.7265 0.0
C1805 C 0.33179 0.6175 0.75186 0.0
C1806 C 0.37359 0.60748 0.731 0.0
H1807 H 0.30169 0.65619 0.78207 0.0
H1808 H 0.30135 0.60016 0.75985 0.0
C1809 C 0.41253 0.63051 0.72094 0.0
C1810 C 1.00779 0.66278 0.72285 0.0
C1811 C 1.00379 0.68446 0.74873 0.0
H1812 H 1.00575 0.6126 0.70735 0.0
C1813 C 1.00585 0.67101 0.77972 0.0
H1814 H 1.00432 0.67209 0.69871 0.0
C1815 C 1.00766 0.6368 0.78471 0.0
C1816 C 1.00631 0.61508 0.7588 0.0
H1817 H 1.00101 0.68685 0.80017 0.0
H1818 H 1.00438 0.62736 0.80882 0.0
C1819 C 1.00836 0.62856 0.72784 0.0
C1820 C 0.75149 0.3742 0.47618 0.0
C1821 C 0.73302 0.35293 0.50037 0.0
H1822 H 0.76559 0.42437 0.46229 0.0
C1823 C 0.72532 0.36547 0.53116 0.0
H1824 H 0.75643 0.36534 0.45206 0.0
C1825 C 0.73197 0.39899 0.53718 0.0
C1826 C 0.74539 0.42083 0.51238 0.0
H1827 H 0.7101 0.34972 0.55007 0.0
H1828 H 0.72117 0.4083 0.5605 0.0
C1829 C 0.75695 0.40798 0.48206 0.0
C1830 C 0.05223 0.37397 0.48807 0.0
C1831 C 0.08399 0.36005 0.51263 0.0
H1832 H 0.03858 0.41653 0.45825 0.0
C1833 C 0.12161 0.38003 0.52861 0.0
H1834 H 1.02403 0.35886 0.47475 0.0
C1835 C 0.13083 0.41222 0.51881 0.0
C1836 C 0.10238 0.42555 0.49287 0.0
H1837 H 0.14764 0.36977 0.54703 0.0
H1838 H 0.16278 0.42613 0.53046 0.0
C1839 C 0.06094 0.4068 0.47846 0.0
C1840 C 0.84696 0.13397 0.72689 0.0
C1841 C 0.81088 0.11427 0.74458 0.0
H1842 H 0.88559 0.18056 0.72145 0.0
C1843 C 0.77895 0.12924 0.76845 0.0
H1844 H 0.87285 0.12322 0.70876 0.0
C1845 C 0.78552 0.16296 0.77542 0.0
C1846 C 0.82514 0.18175 0.7591 0.0
H1847 H 0.7519 0.1145 0.78312 0.0
H1848 H 0.76286 0.17355 0.79501 0.0
C1849 C 0.85444 0.16694 0.73429 0.0
C1850 C 0.41777 0.14593 0.72515 0.0
C1851 C 0.45186 0.16794 0.74131 0.0
H1852 H 0.38218 0.09815 0.72405 0.0
C1853 C 0.48364 0.15617 0.76689 0.0
H1854 H 0.39225 0.15441 0.70565 0.0
C1855 C 0.47777 0.1235 0.77759 0.0
C1856 C 0.43937 0.1027 0.76308 0.0
H1857 H 0.50911 0.17286 0.78029 0.0
H1858 H 0.49939 0.11553 0.79878 0.0
C1859 C 0.41168 0.11376 0.73584 0.0
C1860 C 0.2118 0.88154 0.47127 0.0
C1861 C 0.2303 0.85896 0.49429 0.0
H1862 H 0.18385 0.93054 0.46183 0.0
C1863 C 0.24446 0.87071 0.52464 0.0
H1864 H 0.1989 0.87306 0.44804 0.0
C1865 C 0.23652 0.90391 0.53246 0.0
C1866 C 0.21284 0.92562 0.51028 0.0
H1867 H 0.25695 0.8537 0.54318 0.0
H1868 H 0.24385 0.91177 0.5567 0.0
C1869 C 0.20262 0.9144 0.47928 0.0
C1870 C 0.55073 0.87451 0.53324 0.0
C1871 C 0.57093 0.85331 0.50974 0.0
H1872 H 0.53399 0.92458 0.54578 0.0
C1873 C 0.57887 0.86546 0.47871 0.0
H1874 H 0.54543 0.86585 0.55751 0.0
C1875 C 0.57065 0.89872 0.47177 0.0
C1876 C 0.55562 0.9206 0.49596 0.0
H1877 H 0.59525 0.84967 0.46033 0.0
H1878 H 0.5816 0.90788 0.44833 0.0
C1879 C 0.54389 0.90806 0.52649 0.0
C1880 C 0.83544 0.63033 0.24065 0.0
C1881 C 0.88091 0.61015 0.24678 0.0
H1882 H 0.8005 0.67848 0.24692 0.0
C1883 C 0.91987 0.62047 0.2691 0.0
H1884 H 0.80391 0.62243 0.2244 0.0
C1885 C 0.91686 0.65153 0.28241 0.0
C1886 C 0.87489 0.67326 0.27374 0.0
H1887 H 0.95468 0.60515 0.27506 0.0
H1888 H 0.94958 0.65931 0.29806 0.0
C1889 C 0.83282 0.66201 0.25388 0.0
C1890 C 0.47615 0.61639 0.28469 0.0
C1891 C 0.49793 0.59495 0.26182 0.0
H1892 H 0.44887 0.66506 0.29552 0.0
C1893 C 0.51725 0.60861 0.233 0.0
H1894 H 0.45873 0.60662 0.30649 0.0
C1895 C 0.51193 0.64257 0.22669 0.0
C1896 C 0.4855 0.66322 0.24868 0.0
H1897 H 0.53218 0.5927 0.21432 0.0
H1898 H 0.52389 0.65202 0.20354 0.0
C1899 C 0.46965 0.6499 0.27817 0.0
C1900 C 0.25659 0.40942 0.97951 0.0
C1901 C 0.2483 0.422 1.01026 0.0
H1902 H 0.25475 0.36678 0.94962 0.0
C1903 C 0.24001 0.4 1.03566 0.0
H1904 H 0.26146 0.42595 0.95941 0.0
C1905 C 0.23458 0.36637 1.02993 0.0
C1906 C 0.23871 0.35404 0.99885 0.0
H1907 H 0.23188 0.40913 1.0594 0.0
H1908 H 0.22286 0.35031 1.04944 0.0
C1909 C 0.2526 0.37559 0.9739 0.0
C1910 C 0.61602 0.3708 0.98328 0.0
C1911 C 0.5908 0.36151 1.01201 0.0
H1912 H 0.64125 0.41018 0.95276 0.0
C1913 C 0.56344 0.38554 1.02993 0.0
H1914 H 0.63787 0.35285 0.96918 0.0
C1915 C 0.56538 0.41875 1.02036 0.0
C1916 C 0.59418 0.4281 0.99269 0.0
H1917 H 0.54478 0.37914 1.05254 0.0
H1918 H 0.54826 0.43726 1.03583 0.0
C1919 C 0.61791 0.40363 0.97384 0.0
C1920 C 0.19004 0.02001 1.12391 0.0
C1921 C 0.24782 0.01411 1.12468 0.0
H1922 H 0.11437 0.02529 1.09676 0.0
C1923 C 0.27038 1.00866 1.09382 0.0
H1924 H 0.16899 0.0243 0.14622 0.0
C1925 C 0.23826 1.00912 1.06479 0.0
C1926 C 0.18058 0.01513 1.06393 0.0
H1927 H 0.31352 1.00333 1.09197 0.0
H1928 H 0.25933 1.00443 1.04258 0.0
C1929 C 0.15784 0.02057 1.09483 0.0
C1930 C 0.13161 0.27053 1.0994 0.0
C1931 C 0.10784 0.26319 1.06915 0.0
H1932 H 0.12166 0.2793 0.15033 0.0
C1933 C 0.05009 0.25732 1.07135 0.0
H1934 H 0.17501 0.27573 1.10037 0.0
C1935 C 1.01925 0.25825 1.10102 0.0
C1936 C 0.0429 0.26599 0.1312 0.0
H1937 H 0.02803 0.25152 1.04975 0.0
H1938 H 0.97606 0.25265 1.10016 0.0
C1939 C 0.10037 0.27231 0.1289 0.0
C1940 C 0.26705 0.25076 0.40703 0.0
C1941 C 0.24186 0.25821 0.37713 0.0
H1942 H 0.26086 0.24565 0.45864 0.0
C1943 C 0.18531 0.26632 0.38016 0.0
H1944 H 0.30986 0.24409 0.40724 0.0
C1945 C 0.1559 0.26618 0.41017 0.0
C1946 C 0.18103 0.25888 0.44007 0.0
H1947 H 0.16347 0.27349 0.35892 0.0
H1948 H 0.1129 0.27256 0.40985 0.0
C1949 C 0.23806 0.25144 0.43723 0.0
C1950 C 0.078 1.00807 0.38513 0.0
C1951 C 1.02288 0.01965 0.38214 0.0
H1952 H 0.15109 0.99917 0.41385 0.0
C1953 C 1.00159 0.03076 0.41198 0.0
H1954 H 0.09692 0.99746 0.36456 0.0
C1955 C 0.03246 0.03018 0.44169 0.0
C1956 C 0.08823 0.01938 0.44431 0.0
H1957 H 0.96034 0.04034 0.41253 0.0
H1958 H 1.01212 0.03883 0.46298 0.0
C1959 C 0.10963 1.00851 0.4145 0.0
C1960 C 0.77261 1.01067 0.19194 0.0
C1961 C 0.82766 0.02163 0.19616 0.0
H1962 H 0.70433 1.00045 0.16016 0.0
C1963 C 0.85261 0.03225 0.16715 0.0
H1964 H 0.75026 1.00182 0.21255 0.0
C1965 C 0.8252 0.03209 0.13666 0.0
C1966 C 0.7704 0.02111 0.13224 0.0
H1967 H 0.8941 0.04116 0.16788 0.0
H1968 H 0.84761 0.04091 1.11626 0.0
C1969 C 0.74537 1.01016 0.16122 0.0
C1970 C 0.95897 0.75321 0.13423 0.0
C1971 C 1.01399 0.764 0.13013 0.0
H1972 H 0.88817 0.74524 0.16476 0.0
C1973 C 0.03816 0.77526 0.15906 0.0
H1974 H 0.93794 0.74363 1.11382 0.0
C1975 C 1.00944 0.77572 0.18936 0.0
C1976 C 0.95392 0.76526 0.1932 0.0
H1977 H 0.07979 0.78422 0.15838 0.0
H1978 H 0.03119 0.78471 0.21 0.0
C1979 C 0.93002 0.75395 0.16429 0.0
C1980 C 0.8884 0.7868 0.84458 0.0
C1981 C 0.86301 0.77589 0.81584 0.0
H1982 H 0.88333 0.79567 0.89572 0.0
C1983 C 0.80784 0.76539 0.82044 0.0
H1984 H 0.9304 0.79518 0.84355 0.0
C1985 C 0.78048 0.76571 0.851 0.0
C1986 C 0.8055 0.77655 0.87972 0.0
H1987 H 0.78508 0.75661 0.80008 0.0
H1988 H 0.73911 0.75674 0.85218 0.0
C1989 C 0.86081 0.78703 0.87525 0.0
C1990 C 0.89379 0.01588 0.84907 0.0
C1991 C 0.91761 1.01099 0.81838 0.0
H1992 H 0.90407 0.02099 0.90036 0.0
C1993 C 0.9755 1.00566 0.81977 0.0
H1994 H 0.85028 0.02063 0.85055 0.0
C1995 C 1.00657 1.00487 0.84922 0.0
C1996 C 0.98277 1.00989 0.87989 0.0
H1997 H 0.9975 1.00179 0.79769 0.0
H1998 H 0.04995 1.00003 0.84779 0.0
C1999 C 0.92519 0.01572 0.87841 0.0
C2000 C 0.20601 0.51034 0.62569 0.0
C2001 C 0.2639 0.51487 0.62821 0.0
H2002 H 0.13288 0.50666 0.59621 0.0
C2003 C 0.28986 0.5196 0.59801 0.0
H2004 H 0.18263 0.50647 0.64732 0.0
C2005 C 0.26056 0.51982 0.56798 0.0
C2006 C 0.2027 0.51521 0.56542 0.0
H2007 H 0.33372 0.52333 0.59738 0.0
H2008 H 0.284 0.52368 0.54638 0.0
C2009 C 0.17672 0.51043 0.59562 0.0
C2010 C 0.14055 0.76566 0.59777 0.0
C2011 C 0.11517 0.76356 0.5672 0.0
H2012 H 0.13296 0.76878 0.64941 0.0
C2013 C 0.05677 0.76208 0.56899 0.0
H2014 H 0.18475 0.76693 0.59893 0.0
C2015 C 0.02644 0.76257 0.5987 0.0
C2016 C 0.05174 0.7651 0.62924 0.0
H2017 H 0.03372 0.7604 0.54704 0.0
H2018 H 0.98231 0.76122 0.59755 0.0
C2019 C 0.11012 0.76668 0.62746 0.0
C2020 C 0.20876 0.74808 0.88201 0.0
C2021 C 0.26528 0.7569 0.87923 0.0
H2022 H 0.13591 0.74102 0.91141 0.0
C2023 C 0.28884 0.76526 0.90923 0.0
H2024 H 0.18746 0.74037 0.86077 0.0
C2025 C 0.25848 0.76572 0.93902 0.0
C2026 C 0.20157 0.75771 0.94169 0.0
H2027 H 0.3315 0.77195 0.90977 0.0
H2028 H 0.28032 0.77273 0.96035 0.0
C2029 C 0.17835 0.74842 0.91184 0.0
C2030 C 0.07137 0.5187 0.9355 0.0
C2031 C 0.12958 0.52139 0.93843 0.0
H2032 H 0.99843 0.51773 0.90576 0.0
C2033 C 0.15615 0.52554 0.90827 0.0
H2034 H 0.04729 0.51554 0.95698 0.0
C2035 C 0.12715 0.52654 0.87801 0.0
C2036 C 0.06891 0.52375 0.87514 0.0
H2037 H 0.20028 0.52785 0.90784 0.0
H2038 H 0.15114 0.52957 0.85649 0.0
C2039 C 0.04244 0.51997 0.90531 0.0
C2040 C 0.79651 0.51796 0.6538 0.0
C2041 C 0.82258 0.51345 0.62367 0.0
H2042 H 0.80203 0.52309 0.7053 0.0
C2043 C 0.88076 0.51039 0.62629 0.0
H2044 H 0.75255 0.52049 0.65435 0.0
C2045 C 0.91014 0.51171 0.65636 0.0
C2046 C 0.88393 0.51649 0.68648 0.0
H2047 H 0.90432 0.50693 0.60473 0.0
H2048 H 0.95422 0.5091 0.65581 0.0
C2049 C 0.82578 0.5195 0.6838 0.0
C2050 C 1.01715 0.27657 0.65567 0.0
C2051 C 0.99028 0.27378 0.62564 0.0
H2052 H 1.01291 0.27896 0.70738 0.0
C2053 C 0.93209 0.27151 0.6285 0.0
H2054 H 0.0611 0.27907 0.65589 0.0
C2055 C 0.90343 0.27167 0.65882 0.0
C2056 C 0.93053 0.27419 0.68888 0.0
H2057 H 0.90801 0.26925 0.60699 0.0
H2058 H 0.85926 0.26961 0.65857 0.0
C2059 C 0.98865 0.27671 0.68593 0.0
C2060 C 0.84761 0.2725 0.37767 0.0
C2061 C 0.78955 0.27024 0.38055 0.0
H2062 H 0.92043 0.27405 0.34778 0.0
C2063 C 0.7624 0.26895 0.35046 0.0
H2064 H 0.87163 0.27466 0.39913 0.0
C2065 C 0.79087 0.26947 0.32015 0.0
C2066 C 0.84908 0.27105 0.31736 0.0
H2067 H 0.71829 0.26755 0.35018 0.0
H2068 H 0.76663 0.26836 0.2986 0.0
C2069 C 0.8762 0.27251 0.34744 0.0
C2070 C 0.93312 0.51991 0.34287 0.0
C2071 C 0.96154 0.51961 0.31313 0.0
H2072 H 0.93498 0.5175 0.39449 0.0
C2073 C 1.0196 0.51777 0.31665 0.0
H2074 H 0.88884 0.52078 0.34267 0.0
C2075 C 0.04673 0.51688 0.34736 0.0
C2076 C 1.01831 0.51764 0.37712 0.0
H2077 H 0.04477 0.51711 0.29541 0.0
H2078 H 0.09077 0.51525 0.34771 0.0
C2079 C 0.96029 0.51851 0.37345 0.0
C2080 C 0.66945 0.02083 0.62872 0.0
C2081 C 0.7276 0.02297 0.63157 0.0
H2082 H 0.59622 0.0185 0.59908 0.0
C2083 C 0.75435 0.02409 0.60127 0.0
H2084 H 0.6459 0.01888 0.65036 0.0
C2085 C 0.72551 0.02307 0.57101 0.0
C2086 C 0.66714 0.02118 0.5682 0.0
H2087 H 0.79849 0.02576 0.60074 0.0
H2088 H 0.74975 0.02387 0.54941 0.0
C2089 C 0.6404 0.02027 0.59851 0.0
C2090 C 0.5958 0.24884 0.62739 0.0
C2091 C 0.539 0.25689 0.62991 0.0
H2092 H 0.66912 0.24287 0.59822 0.0
C2093 C 0.51499 0.26494 0.59991 0.0
H2094 H 0.61728 0.24199 0.64888 0.0
C2095 C 0.54512 0.26537 0.57013 0.0
C2096 C 0.60214 0.25775 0.56762 0.0
H2097 H 0.47216 0.27138 0.59931 0.0
H2098 H 0.52303 0.27202 0.5487 0.0
C2099 C 0.62613 0.24926 0.59759 0.0
C2100 C 0.77361 0.26746 0.9089 0.0
C2101 C 0.74836 0.2736 0.87873 0.0
H2102 H 0.76649 0.26188 0.96047 0.0
C2103 C 0.69081 0.27896 0.88132 0.0
H2104 H 0.81721 0.26291 0.90954 0.0
C2105 C 0.6608 0.27825 0.91113 0.0
C2106 C 0.68581 0.27205 0.94129 0.0
H2107 H 0.66836 0.28381 0.85976 0.0
H2108 H 0.61713 0.28267 0.91035 0.0
C2109 C 0.74365 0.26677 0.93887 0.0
C2110 C 0.58576 0.01926 0.8829 0.0
C2111 C 0.52787 0.0151 0.8807 0.0
H2112 H 0.65924 0.02306 0.91205 0.0
C2113 C 0.50188 1.01213 0.911 0.0
H2114 H 0.6087 0.02281 0.86116 0.0
C2115 C 0.53119 0.01296 0.94091 0.0
C2116 C 0.58915 0.0168 0.94312 0.0
H2117 H 0.45806 1.0089 0.91174 0.0
H2118 H 0.50777 1.01035 0.96269 0.0
C2119 C 0.61529 0.01981 0.91282 0.0
C2120 C 0.33087 0.01786 0.63603 0.0
C2121 C 0.27332 1.01229 0.63346 0.0
H2122 H 0.40386 0.02241 0.66531 0.0
C2123 C 0.24764 1.00645 0.66355 0.0
H2124 H 0.35405 0.02224 0.6145 0.0
C2125 C 0.27703 1.00646 0.69358 0.0
C2126 C 0.33464 1.01217 0.69603 0.0
H2127 H 0.20419 1.00157 0.66405 0.0
H2128 H 0.25396 1.00181 0.71518 0.0
C2129 C 0.36022 0.01786 0.66594 0.0
C2130 C 0.51227 0.76605 0.68872 0.0
C2131 C 0.45432 0.76289 0.69193 0.0
H2132 H 0.58389 0.76976 0.65811 0.0
C2133 C 0.42654 0.76123 0.66208 0.0
H2134 H 0.53691 0.76767 0.71008 0.0
C2135 C 0.45431 0.76263 0.63163 0.0
C2136 C 0.51226 0.76523 0.62837 0.0
H2137 H 0.38239 0.75902 0.66206 0.0
H2138 H 0.4297 0.76174 0.6103 0.0
C2139 C 0.53999 0.7671 0.65821 0.0
C2140 C 0.39902 0.76414 0.35026 0.0
C2141 C 0.37366 0.76135 0.31971 0.0
H2142 H 0.39161 0.76875 0.40181 0.0
C2143 C 0.31518 0.76085 0.32162 0.0
H2144 H 0.44326 0.76488 0.35142 0.0
C2145 C 0.2849 0.7627 0.35133 0.0
C2146 C 0.31011 0.76538 0.38189 0.0
H2147 H 0.29198 0.75891 0.29975 0.0
H2148 H 0.24081 0.76205 0.35019 0.0
C2149 C 0.36859 0.76625 0.37997 0.0
C2150 C 0.43215 0.99789 0.37314 0.0
C2151 C 0.48837 1.00624 0.3778 0.0
H2152 H 0.36344 0.99 0.34099 0.0
C2153 C 0.51587 0.01326 0.34847 0.0
H2154 H 0.40781 0.99186 0.39387 0.0
C2155 C 0.48982 1.0122 0.3174 0.0
C2156 C 0.43354 1.00394 0.31273 0.0
H2157 H 0.55834 0.02011 0.34945 0.0
H2158 H 0.51452 0.01812 0.29672 0.0
C2159 C 0.40602 0.99675 0.34203 0.0
C2160 C 0.76165 0.51388 1.06736 0.0
C2161 C 0.70615 0.52476 1.06418 0.0
H2162 H 0.83319 0.50473 1.09703 0.0
C2163 C 0.68443 0.53676 1.09359 0.0
H2164 H 0.78234 0.50458 1.04644 0.0
C2165 C 0.71508 0.53717 1.12339 0.0
C2166 C 0.77004 0.52532 1.1267 0.0
H2167 H 0.64296 0.5461 1.09377 0.0
H2168 H 0.69498 0.547 0.14425 0.0
C2169 C 0.79195 0.51408 1.09715 0.0
C2170 C 0.64844 0.76537 1.09801 0.0
C2171 C 0.62151 0.76248 1.06792 0.0
H2172 H 0.64387 0.76759 0.14983 0.0
C2173 C 0.56357 0.75834 1.0711 0.0
H2174 H 0.69238 0.7687 1.09825 0.0
C2175 C 0.53529 0.75699 1.10156 0.0
C2176 C 0.56213 0.76023 0.13163 0.0
H2177 H 0.53931 0.75587 1.04968 0.0
H2178 H 0.49153 0.75323 1.10138 0.0
C2179 C 0.61995 0.76457 0.12842 0.0
C2180 C 0.6712 0.77177 0.41008 0.0
C2181 C 0.69488 0.76233 0.43985 0.0
H2182 H 0.6811 0.78185 0.35931 0.0
C2183 C 0.75153 0.75384 0.43719 0.0
H2184 H 0.62857 0.77899 0.40965 0.0
C2185 C 0.7816 0.75434 0.40738 0.0
C2186 C 0.75817 0.76423 0.3777 0.0
H2187 H 0.77317 0.74622 0.45848 0.0
H2188 H 0.82388 0.74655 0.40768 0.0
C2189 C 0.70181 0.7731 0.38043 0.0
C2190 C 0.62228 0.51045 0.37727 0.0
C2191 C 0.56379 0.51319 0.3763 0.0
H2192 H 0.69829 0.50928 0.40464 0.0
C2193 C 0.54043 0.5179 0.40713 0.0
H2194 H 0.64404 0.50701 0.35506 0.0
C2195 C 0.57239 0.51906 0.43628 0.0
C2196 C 0.63065 0.51579 0.43741 0.0
H2197 H 0.49653 0.52073 0.4089 0.0
H2198 H 0.55087 0.52281 0.45846 0.0
C2199 C 0.6543 0.51179 0.40648 0.0
C2200 C 0.31632 0.51501 0.18671 0.0
C2201 C 0.37063 0.50261 0.1909 0.0
H2202 H 0.24785 0.52657 0.15548 0.0
C2203 C 0.39441 0.49137 0.1618 0.0
H2204 H 0.29462 0.52414 0.20734 0.0
C2205 C 0.36638 0.49265 0.1313 0.0
C2206 C 0.31237 0.50532 1.12709 0.0
H2207 H 0.4353 0.48119 0.16248 0.0
H2208 H 0.38708 0.48301 1.11067 0.0
C2209 C 0.28852 0.51629 0.15621 0.0
C2210 C 0.40362 0.26109 0.1591 0.0
C2211 C 0.42972 0.2618 0.18955 0.0
H2212 H 0.40958 0.26282 1.10735 0.0
C2213 C 0.48791 0.26479 0.1873 0.0
H2214 H 0.35947 0.25908 0.15825 0.0
C2215 C 0.51731 0.26674 0.15731 0.0
C2216 C 0.49138 0.26564 1.12686 0.0
H2217 H 0.51151 0.26579 0.2091 0.0
H2218 H 0.56118 0.26945 0.15808 0.0
C2219 C 0.43314 0.26305 0.12912 0.0
C2220 C 0.29716 0.2745 0.82139 0.0
C2221 C 0.35331 0.26559 0.81743 0.0
H2222 H 0.22763 0.28294 0.85275 0.0
C2223 C 0.37934 0.25664 0.84664 0.0
H2224 H 0.27387 0.28165 0.80054 0.0
C2225 C 0.35147 0.2563 0.87713 0.0
C2226 C 0.29578 0.26601 0.88127 0.0
H2227 H 0.42177 0.24902 0.84599 0.0
H2228 H 0.37384 0.24749 0.89765 0.0
C2229 C 0.2698 0.27501 0.85203 0.0
C2230 C 0.54415 0.50773 0.84564 0.0
C2231 C 0.51983 0.5166 0.87533 0.0
H2232 H 0.5362 0.49997 0.79452 0.0
C2233 C 0.463 0.52436 0.8726 0.0
H2234 H 0.58697 0.50101 0.84531 0.0
C2235 C 0.43311 0.5237 0.84289 0.0
C2236 C 0.45731 0.51502 0.81318 0.0
H2237 H 0.4408 0.53114 0.89385 0.0
H2238 H 0.39019 0.53014 0.8434 0.0
C2239 C 0.51417 0.507 0.81582 0.0
loop_
_geom_bond_atom_site_label_1
_geom_bond_atom_site_label_2
_geom_bond_distance
_geom_bond_site_symmetry_2
_ccdc_geom_bond_type
La0 C2 2.928 1_554 S
La0 O20 2.521 . S
La0 O21 2.628 1_545 S
La0 O22 2.554 . S
La0 O23 2.757 . S
La0 O24 2.470 . S
La0 O29 2.482 1_545 S
La0 O31 2.503 . S
La1 C11 2.928 1_565 S
La1 O23 2.459 1_565 S
La1 O25 2.498 1_565 S
La1 O26 2.532 . S
La1 O27 2.615 1_565 S
La1 O28 2.582 . S
La1 O29 2.769 . S
La1 O30 2.476 . S
C2 La0 2.928 1_556 S
C2 C3 1.503 . S
C2 O20 1.261 1_556 S
C2 O21 1.243 1_546 S
C3 C2 1.503 . S
C3 C4 1.394 . S
C3 C8 1.373 1_545 S
C4 C3 1.394 . S
C4 C5 1.380 . S
C4 H32 0.930 . S
C5 C4 1.380 . S
C5 C6 1.376 . S
C5 H33 0.930 . S
C6 C5 1.376 . S
C6 C7 1.370 1_545 S
C7 C6 1.370 1_565 S
C7 C8 1.396 . S
C7 H34 0.929 . S
C8 C3 1.373 1_565 S
C8 C7 1.396 . S
C8 H35 0.929 . S
C9 O22 1.240 . S
C9 O23 1.289 . S
C10 O24 1.258 . S
C10 O25 1.256 . S
C11 La1 2.928 1_545 S
C11 C12 1.502 1_545 S
C11 O26 1.261 1_545 S
C11 O27 1.243 . S
C12 C11 1.502 1_565 S
C12 C13 1.416 . S
C12 C17 1.353 1_565 S
C13 C12 1.416 . S
C13 C14 1.380 . S
C13 H36 0.930 . S
C14 C13 1.380 . S
C14 C15 1.376 . S
C14 H37 0.930 . S
C15 C14 1.376 . S
C15 C16 1.370 1_565 S
C16 C15 1.370 1_545 S
C16 C17 1.396 . S
C16 H38 0.929 . S
C17 C12 1.353 1_545 S
C17 C16 1.396 . S
C17 H39 0.929 . S
C18 O28 1.240 . S
C18 O29 1.289 . S
C19 O30 1.258 . S
C19 O31 1.256 1_565 S
O20 La0 2.521 . S
O20 C2 1.261 1_554 S
O21 La0 2.628 1_565 S
O21 C2 1.243 1_564 S
O22 La0 2.554 . S
O22 C9 1.240 . S
O23 La0 2.757 . S
O23 La1 2.459 1_545 S
O23 C9 1.289 . S
O24 La0 2.470 . S
O24 C10 1.258 . S
O25 La1 2.498 1_545 S
O25 C10 1.256 . S
O26 La1 2.532 . S
O26 C11 1.261 1_565 S
O27 La1 2.615 1_545 S
O27 C11 1.243 . S
O28 La1 2.582 . S
O28 C18 1.240 . S
O29 La0 2.482 1_565 S
O29 La1 2.769 . S
O29 C18 1.289 . S
O30 La1 2.476 . S
O30 C19 1.258 . S
O31 La0 2.503 . S
O31 C19 1.256 1_545 S
H32 C4 0.930 . S
H33 C5 0.930 . S
H34 C7 0.929 . S
H35 C8 0.929 . S
H36 C13 0.930 . S
H37 C14 0.930 . S
H38 C16 0.929 . S
H39 C17 0.929 . S
La40 C42 2.928 1_554 S
La40 O60 2.521 . S
La40 O61 2.628 . S
La40 O62 2.554 . S
La40 O63 2.757 . S
La40 O64 2.470 . S
La40 O69 2.482 . S
La40 O71 2.503 . S
La41 C51 2.928 . S
La41 O63 2.482 . S
La41 O65 2.503 . S
La41 O66 2.521 . S
La41 O67 2.628 . S
La41 O68 2.554 . S
La41 O69 2.757 . S
La41 O70 2.470 . S
C42 La40 2.928 1_556 S
C42 C43 1.503 . S
C42 O60 1.261 1_556 S
C42 O61 1.243 1_556 S
C43 C42 1.503 . S
C43 C44 1.394 . S
C43 C48 1.373 . S
C44 C43 1.394 . S
C44 C45 1.380 . S
C44 H72 0.930 . S
C45 C44 1.380 . S
C45 C46 1.376 . S
C45 H73 0.930 . S
C46 C45 1.376 . S
C46 C47 1.370 . S
C47 C46 1.370 . S
C47 C48 1.396 . S
C47 H74 0.929 . S
C48 C43 1.373 . S
C48 C47 1.396 . S
C48 H75 0.929 . S
C49 O62 1.240 . S
C49 O63 1.289 . S
C50 O64 1.258 . S
C50 O65 1.256 . S
C51 La41 2.928 . S
C51 C52 1.503 . S
C51 O66 1.261 . S
C51 O67 1.243 . S
C52 C51 1.503 . S
C52 C53 1.394 . S
C52 C57 1.373 . S
C53 C52 1.394 . S
C53 C54 1.381 1_655 S
C53 H76 0.930 1_655 S
C54 C53 1.381 1_455 S
C54 C55 1.377 1_455 S
C54 H77 0.930 . S
C55 C54 1.377 1_655 S
C55 C56 1.370 . S
C56 C55 1.370 . S
C56 C57 1.396 . S
C56 H78 0.929 . S
C57 C52 1.373 . S
C57 C56 1.396 . S
C57 H79 0.929 . S
C58 O68 1.240 . S
C58 O69 1.289 . S
C59 O70 1.258 . S
C59 O71 1.256 . S
O60 La40 2.521 . S
O60 C42 1.261 1_554 S
O61 La40 2.628 . S
O61 C42 1.243 1_554 S
O62 La40 2.554 . S
O62 C49 1.240 . S
O63 La40 2.757 . S
O63 La41 2.482 . S
O63 C49 1.289 . S
O64 La40 2.470 . S
O64 C50 1.258 . S
O65 La41 2.503 . S
O65 C50 1.256 . S
O66 La41 2.521 . S
O66 C51 1.261 . S
O67 La41 2.628 . S
O67 C51 1.243 . S
O68 La41 2.554 . S
O68 C58 1.240 . S
O69 La40 2.482 . S
O69 La41 2.757 . S
O69 C58 1.289 . S
O70 La41 2.470 . S
O70 C59 1.258 . S
O71 La40 2.503 . S
O71 C59 1.256 . S
H72 C44 0.930 . S
H73 C45 0.930 . S
H74 C47 0.929 . S
H75 C48 0.929 . S
H76 C53 0.930 1_455 S
H77 C54 0.930 . S
H78 C56 0.929 . S
H79 C57 0.929 . S
La80 C82 2.928 . S
La80 O100 2.521 . S
La80 O101 2.628 . S
La80 O102 2.554 . S
La80 O103 2.757 . S
La80 O104 2.470 . S
La80 O109 2.482 . S
La80 O111 2.503 . S
La81 C91 2.928 . S
La81 O103 2.482 . S
La81 O105 2.503 . S
La81 O106 2.521 . S
La81 O107 2.628 . S
La81 O108 2.554 . S
La81 O109 2.757 . S
La81 O110 2.470 . S
C82 La80 2.928 . S
C82 C83 1.503 . S
C82 O100 1.261 . S
C82 O101 1.243 . S
C83 C82 1.503 . S
C83 C84 1.394 . S
C83 C88 1.373 . S
C84 C83 1.394 . S
C84 C85 1.380 . S
C84 H112 0.930 . S
C85 C84 1.380 . S
C85 C86 1.376 . S
C85 H113 0.930 . S
C86 C85 1.376 . S
C86 C87 1.370 . S
C87 C86 1.370 . S
C87 C88 1.396 . S
C87 H114 0.929 . S
C88 C83 1.373 . S
C88 C87 1.396 . S
C88 H115 0.929 . S
C89 O102 1.240 . S
C89 O103 1.289 . S
C90 O104 1.258 . S
C90 O105 1.256 . S
C91 La81 2.928 . S
C91 C92 1.503 . S
C91 O106 1.261 . S
C91 O107 1.243 . S
C92 C91 1.503 . S
C92 C93 1.394 . S
C92 C97 1.373 . S
C93 C92 1.394 . S
C93 C94 1.380 . S
C93 H116 0.930 . S
C94 C93 1.380 . S
C94 C95 1.376 . S
C94 H117 0.930 . S
C95 C94 1.376 . S
C95 C96 1.370 . S
C96 C95 1.370 . S
C96 C97 1.396 . S
C96 H118 0.929 . S
C97 C92 1.373 . S
C97 C96 1.396 . S
C97 H119 0.929 . S
C98 O108 1.240 . S
C98 O109 1.289 . S
C99 O110 1.258 . S
C99 O111 1.256 . S
O100 La80 2.521 . S
O100 C82 1.261 . S
O101 La80 2.628 . S
O101 C82 1.243 . S
O102 La80 2.554 . S
O102 C89 1.240 . S
O103 La80 2.757 . S
O103 La81 2.482 . S
O103 C89 1.289 . S
O104 La80 2.470 . S
O104 C90 1.258 . S
O105 La81 2.503 . S
O105 C90 1.256 . S
O106 La81 2.521 . S
O106 C91 1.261 . S
O107 La81 2.628 . S
O107 C91 1.243 . S
O108 La81 2.554 . S
O108 C98 1.240 . S
O109 La80 2.482 . S
O109 La81 2.757 . S
O109 C98 1.289 . S
O110 La81 2.470 . S
O110 C99 1.258 . S
O111 La80 2.503 . S
O111 C99 1.256 . S
H112 C84 0.930 . S
H113 C85 0.930 . S
H114 C87 0.929 . S
H115 C88 0.929 . S
H116 C93 0.930 . S
H117 C94 0.930 . S
H118 C96 0.929 . S
H119 C97 0.929 . S
La120 C122 2.928 . S
La120 O140 2.521 . S
La120 O141 2.628 1_545 S
La120 O142 2.554 . S
La120 O143 2.757 . S
La120 O144 2.470 . S
La120 O149 2.482 1_545 S
La120 O151 2.503 . S
La121 C131 2.928 1_565 S
La121 O143 2.459 1_565 S
La121 O145 2.498 1_565 S
La121 O146 2.532 . S
La121 O147 2.615 1_565 S
La121 O148 2.583 . S
La121 O149 2.770 . S
La121 O150 2.476 . S
C122 La120 2.928 . S
C122 C123 1.503 . S
C122 O140 1.261 . S
C122 O141 1.243 1_545 S
C123 C122 1.503 . S
C123 C124 1.394 . S
C123 C128 1.373 1_545 S
C124 C123 1.394 . S
C124 C125 1.380 . S
C124 H152 0.930 . S
C125 C124 1.380 . S
C125 C126 1.376 . S
C125 H153 0.930 . S
C126 C125 1.376 . S
C126 C127 1.370 1_545 S
C127 C126 1.370 1_565 S
C127 C128 1.396 . S
C127 H154 0.929 . S
C128 C123 1.373 1_565 S
C128 C127 1.396 . S
C128 H155 0.929 . S
C129 O142 1.240 . S
C129 O143 1.289 . S
C130 O144 1.258 . S
C130 O145 1.256 . S
C131 La121 2.928 1_545 S
C131 C132 1.502 1_545 S
C131 O146 1.261 1_545 S
C131 O147 1.243 . S
C132 C131 1.502 1_565 S
C132 C133 1.417 . S
C132 C137 1.352 1_565 S
C133 C132 1.417 . S
C133 C134 1.381 1_655 S
C133 H156 0.930 1_655 S
C134 C133 1.381 1_455 S
C134 C135 1.377 1_455 S
C134 H157 0.929 . S
C135 C134 1.377 1_655 S
C135 C136 1.370 1_565 S
C136 C135 1.370 1_545 S
C136 C137 1.396 . S
C136 H158 0.929 . S
C137 C132 1.352 1_545 S
C137 C136 1.396 . S
C137 H159 0.929 . S
C138 O148 1.240 . S
C138 O149 1.289 . S
C139 O150 1.258 . S
C139 O151 1.256 1_565 S
O140 La120 2.521 . S
O140 C122 1.261 . S
O141 La120 2.628 1_565 S
O141 C122 1.243 1_565 S
O142 La120 2.554 . S
O142 C129 1.240 . S
O143 La120 2.757 . S
O143 La121 2.459 1_545 S
O143 C129 1.289 . S
O144 La120 2.470 . S
O144 C130 1.258 . S
O145 La121 2.498 1_545 S
O145 C130 1.256 . S
O146 La121 2.532 . S
O146 C131 1.261 1_565 S
O147 La121 2.615 1_545 S
O147 C131 1.243 . S
O148 La121 2.583 . S
O148 C138 1.240 . S
O149 La120 2.482 1_565 S
O149 La121 2.770 . S
O149 C138 1.289 . S
O150 La121 2.476 . S
O150 C139 1.258 . S
O151 La120 2.503 . S
O151 C139 1.256 1_545 S
H152 C124 0.930 . S
H153 C125 0.930 . S
H154 C127 0.929 . S
H155 C128 0.929 . S
H156 C133 0.930 1_455 S
H157 C134 0.929 . S
H158 C136 0.929 . S
H159 C137 0.929 . S
La160 C162 2.928 1_545 S
La160 O180 2.532 . S
La160 O181 2.615 1_545 S
La160 O182 2.582 . S
La160 O183 2.769 . S
La160 O184 2.476 . S
La160 O189 2.459 1_545 S
La160 O191 2.498 1_545 S
La161 C171 2.928 1_556 S
La161 O183 2.482 1_565 S
La161 O185 2.503 . S
La161 O186 2.521 . S
La161 O187 2.628 1_565 S
La161 O188 2.554 . S
La161 O189 2.757 . S
La161 O190 2.470 . S
C162 La160 2.928 1_565 S
C162 C163 1.502 1_565 S
C162 O180 1.261 1_565 S
C162 O181 1.243 . S
C163 C162 1.502 1_545 S
C163 C164 1.416 . S
C163 C168 1.353 1_545 S
C164 C163 1.416 . S
C164 C165 1.380 . S
C164 H192 0.930 . S
C165 C164 1.380 . S
C165 C166 1.376 . S
C165 H193 0.930 . S
C166 C165 1.376 . S
C166 C167 1.370 1_545 S
C167 C166 1.370 1_565 S
C167 C168 1.396 . S
C167 H194 0.929 . S
C168 C163 1.353 1_565 S
C168 C167 1.396 . S
C168 H195 0.929 . S
C169 O182 1.240 . S
C169 O183 1.289 . S
C170 O184 1.258 . S
C170 O185 1.256 1_545 S
C171 La161 2.928 1_554 S
C171 C172 1.503 . S
C171 O186 1.261 1_554 S
C171 O187 1.243 1_564 S
C172 C171 1.503 . S
C172 C173 1.394 . S
C172 C177 1.373 1_565 S
C173 C172 1.394 . S
C173 C174 1.380 . S
C173 H196 0.930 . S
C174 C173 1.380 . S
C174 C175 1.376 . S
C174 H197 0.930 . S
C175 C174 1.376 . S
C175 C176 1.370 1_565 S
C176 C175 1.370 1_545 S
C176 C177 1.396 . S
C176 H198 0.929 . S
C177 C172 1.373 1_545 S
C177 C176 1.396 . S
C177 H199 0.929 . S
C178 O188 1.240 . S
C178 O189 1.289 . S
C179 O190 1.258 . S
C179 O191 1.256 . S
O180 La160 2.532 . S
O180 C162 1.261 1_545 S
O181 La160 2.615 1_565 S
O181 C162 1.243 . S
O182 La160 2.582 . S
O182 C169 1.240 . S
O183 La160 2.769 . S
O183 La161 2.482 1_545 S
O183 C169 1.289 . S
O184 La160 2.476 . S
O184 C170 1.258 . S
O185 La161 2.503 . S
O185 C170 1.256 1_565 S
O186 La161 2.521 . S
O186 C171 1.261 1_556 S
O187 La161 2.628 1_545 S
O187 C171 1.243 1_546 S
O188 La161 2.554 . S
O188 C178 1.240 . S
O189 La160 2.459 1_565 S
O189 La161 2.757 . S
O189 C178 1.289 . S
O190 La161 2.470 . S
O190 C179 1.258 . S
O191 La160 2.498 1_565 S
O191 C179 1.256 . S
H192 C164 0.930 . S
H193 C165 0.930 . S
H194 C167 0.929 . S
H195 C168 0.929 . S
H196 C173 0.930 . S
H197 C174 0.930 . S
H198 C176 0.929 . S
H199 C177 0.929 . S
La200 C202 2.928 . S
La200 O220 2.521 . S
La200 O221 2.628 . S
La200 O222 2.554 . S
La200 O223 2.757 . S
La200 O224 2.470 . S
La200 O229 2.482 . S
La200 O231 2.503 . S
La201 C211 2.928 1_556 S
La201 O223 2.482 . S
La201 O225 2.503 . S
La201 O226 2.521 . S
La201 O227 2.628 . S
La201 O228 2.554 . S
La201 O229 2.757 . S
La201 O230 2.470 . S
C202 La200 2.928 . S
C202 C203 1.503 . S
C202 O220 1.261 . S
C202 O221 1.243 . S
C203 C202 1.503 . S
C203 C204 1.394 . S
C203 C208 1.373 . S
C204 C203 1.394 . S
C204 C205 1.381 1_455 S
C204 H232 0.930 1_455 S
C205 C204 1.381 1_655 S
C205 C206 1.377 1_655 S
C205 H233 0.930 . S
C206 C205 1.377 1_455 S
C206 C207 1.370 . S
C207 C206 1.370 . S
C207 C208 1.396 . S
C207 H234 0.929 . S
C208 C203 1.373 . S
C208 C207 1.396 . S
C208 H235 0.929 . S
C209 O222 1.240 . S
C209 O223 1.289 . S
C210 O224 1.258 . S
C210 O225 1.256 . S
C211 La201 2.928 1_554 S
C211 C212 1.503 . S
C211 O226 1.261 1_554 S
C211 O227 1.243 1_554 S
C212 C211 1.503 . S
C212 C213 1.394 . S
C212 C217 1.373 . S
C213 C212 1.394 . S
C213 C214 1.380 . S
C213 H236 0.930 . S
C214 C213 1.380 . S
C214 C215 1.376 . S
C214 H237 0.930 . S
C215 C214 1.376 . S
C215 C216 1.370 . S
C216 C215 1.370 . S
C216 C217 1.396 . S
C216 H238 0.929 . S
C217 C212 1.373 . S
C217 C216 1.396 . S
C217 H239 0.929 . S
C218 O228 1.240 . S
C218 O229 1.289 . S
C219 O230 1.258 . S
C219 O231 1.256 . S
O220 La200 2.521 . S
O220 C202 1.261 . S
O221 La200 2.628 . S
O221 C202 1.243 . S
O222 La200 2.554 . S
O222 C209 1.240 . S
O223 La200 2.757 . S
O223 La201 2.482 . S
O223 C209 1.289 . S
O224 La200 2.470 . S
O224 C210 1.258 . S
O225 La201 2.503 . S
O225 C210 1.256 . S
O226 La201 2.521 . S
O226 C211 1.261 1_556 S
O227 La201 2.628 . S
O227 C211 1.243 1_556 S
O228 La201 2.554 . S
O228 C218 1.240 . S
O229 La200 2.482 . S
O229 La201 2.757 . S
O229 C218 1.289 . S
O230 La201 2.470 . S
O230 C219 1.258 . S
O231 La200 2.503 . S
O231 C219 1.256 . S
H232 C204 0.930 1_655 S
H233 C205 0.930 . S
H234 C207 0.929 . S
H235 C208 0.929 . S
H236 C213 0.930 . S
H237 C214 0.930 . S
H238 C216 0.929 . S
H239 C217 0.929 . S
La240 C242 2.928 . S
La240 O260 2.521 . S
La240 O261 2.628 . S
La240 O262 2.554 . S
La240 O263 2.757 . S
La240 O264 2.470 . S
La240 O269 2.482 . S
La240 O271 2.503 . S
La241 C251 2.928 . S
La241 O263 2.482 . S
La241 O265 2.503 . S
La241 O266 2.521 . S
La241 O267 2.628 . S
La241 O268 2.554 . S
La241 O269 2.757 . S
La241 O270 2.470 . S
C242 La240 2.928 . S
C242 C243 1.503 . S
C242 O260 1.261 . S
C242 O261 1.243 . S
C243 C242 1.503 . S
C243 C244 1.394 . S
C243 C248 1.373 . S
C244 C243 1.394 . S
C244 C245 1.380 . S
C244 H272 0.930 . S
C245 C244 1.380 . S
C245 C246 1.376 . S
C245 H273 0.930 . S
C246 C245 1.376 . S
C246 C247 1.370 . S
C247 C246 1.370 . S
C247 C248 1.396 . S
C247 H274 0.929 . S
C248 C243 1.373 . S
C248 C247 1.396 . S
C248 H275 0.929 . S
C249 O262 1.240 . S
C249 O263 1.289 . S
C250 O264 1.258 . S
C250 O265 1.256 . S
C251 La241 2.928 . S
C251 C252 1.503 . S
C251 O266 1.261 . S
C251 O267 1.243 . S
C252 C251 1.503 . S
C252 C253 1.394 . S
C252 C257 1.373 . S
C253 C252 1.394 . S
C253 C254 1.380 . S
C253 H276 0.930 . S
C254 C253 1.380 . S
C254 C255 1.376 . S
C254 H277 0.930 . S
C255 C254 1.376 . S
C255 C256 1.370 . S
C256 C255 1.370 . S
C256 C257 1.396 . S
C256 H278 0.929 . S
C257 C252 1.373 . S
C257 C256 1.396 . S
C257 H279 0.929 . S
C258 O268 1.240 . S
C258 O269 1.289 . S
C259 O270 1.258 . S
C259 O271 1.256 . S
O260 La240 2.521 . S
O260 C242 1.261 . S
O261 La240 2.628 . S
O261 C242 1.243 . S
O262 La240 2.554 . S
O262 C249 1.240 . S
O263 La240 2.757 . S
O263 La241 2.482 . S
O263 C249 1.289 . S
O264 La240 2.470 . S
O264 C250 1.258 . S
O265 La241 2.503 . S
O265 C250 1.256 . S
O266 La241 2.521 . S
O266 C251 1.261 . S
O267 La241 2.628 . S
O267 C251 1.243 . S
O268 La241 2.554 . S
O268 C258 1.240 . S
O269 La240 2.482 . S
O269 La241 2.757 . S
O269 C258 1.289 . S
O270 La241 2.470 . S
O270 C259 1.258 . S
O271 La240 2.503 . S
O271 C259 1.256 . S
H272 C244 0.930 . S
H273 C245 0.930 . S
H274 C247 0.929 . S
H275 C248 0.929 . S
H276 C253 0.930 . S
H277 C254 0.930 . S
H278 C256 0.929 . S
H279 C257 0.929 . S
La280 C282 2.928 1_545 S
La280 O300 2.532 . S
La280 O301 2.615 1_545 S
La280 O302 2.583 . S
La280 O303 2.770 . S
La280 O304 2.476 . S
La280 O309 2.459 1_545 S
La280 O311 2.498 1_545 S
La281 C291 2.928 . S
La281 O303 2.482 1_565 S
La281 O305 2.503 . S
La281 O306 2.521 . S
La281 O307 2.628 1_565 S
La281 O308 2.554 . S
La281 O309 2.757 . S
La281 O310 2.470 . S
C282 La280 2.928 1_565 S
C282 C283 1.502 1_565 S
C282 O300 1.261 1_565 S
C282 O301 1.243 . S
C283 C282 1.502 1_545 S
C283 C284 1.417 . S
C283 C288 1.352 1_545 S
C284 C283 1.417 . S
C284 C285 1.381 1_455 S
C284 H312 0.930 1_455 S
C285 C284 1.381 1_655 S
C285 C286 1.377 1_655 S
C285 H313 0.929 . S
C286 C285 1.377 1_455 S
C286 C287 1.370 1_545 S
C287 C286 1.370 1_565 S
C287 C288 1.396 . S
C287 H314 0.929 . S
C288 C283 1.352 1_565 S
C288 C287 1.396 . S
C288 H315 0.929 . S
C289 O302 1.240 . S
C289 O303 1.289 . S
C290 O304 1.258 . S
C290 O305 1.256 1_545 S
C291 La281 2.928 . S
C291 C292 1.503 . S
C291 O306 1.261 . S
C291 O307 1.243 1_565 S
C292 C291 1.503 . S
C292 C293 1.394 . S
C292 C297 1.373 1_565 S
C293 C292 1.394 . S
C293 C294 1.380 . S
C293 H316 0.930 . S
C294 C293 1.380 . S
C294 C295 1.376 . S
C294 H317 0.930 . S
C295 C294 1.376 . S
C295 C296 1.370 1_565 S
C296 C295 1.370 1_545 S
C296 C297 1.396 . S
C296 H318 0.929 . S
C297 C292 1.373 1_545 S
C297 C296 1.396 . S
C297 H319 0.929 . S
C298 O308 1.240 . S
C298 O309 1.289 . S
C299 O310 1.258 . S
C299 O311 1.256 . S
O300 La280 2.532 . S
O300 C282 1.261 1_545 S
O301 La280 2.615 1_565 S
O301 C282 1.243 . S
O302 La280 2.583 . S
O302 C289 1.240 . S
O303 La280 2.770 . S
O303 La281 2.482 1_545 S
O303 C289 1.289 . S
O304 La280 2.476 . S
O304 C290 1.258 . S
O305 La281 2.503 . S
O305 C290 1.256 1_565 S
O306 La281 2.521 . S
O306 C291 1.261 . S
O307 La281 2.628 1_545 S
O307 C291 1.243 1_545 S
O308 La281 2.554 . S
O308 C298 1.240 . S
O309 La280 2.459 1_565 S
O309 La281 2.757 . S
O309 C298 1.289 . S
O310 La281 2.470 . S
O310 C299 1.258 . S
O311 La280 2.498 1_565 S
O311 C299 1.256 . S
H312 C284 0.930 1_655 S
H313 C285 0.929 . S
H314 C287 0.929 . S
H315 C288 0.929 . S
H316 C293 0.930 . S
H317 C294 0.930 . S
H318 C296 0.929 . S
H319 C297 0.929 . S
La320 C322 2.928 . S
La320 O340 2.521 . S
La320 O341 2.628 . S
La320 O342 2.554 . S
La320 O343 2.757 . S
La320 O344 2.470 . S
La320 O349 2.482 . S
La320 O351 2.503 . S
La321 C331 2.928 . S
La321 O343 2.482 . S
La321 O345 2.503 . S
La321 O346 2.521 . S
La321 O347 2.628 . S
La321 O348 2.554 . S
La321 O349 2.757 . S
La321 O350 2.470 . S
C322 La320 2.928 . S
C322 C323 1.503 . S
C322 O340 1.261 . S
C322 O341 1.243 . S
C323 C322 1.503 . S
C323 C324 1.394 . S
C323 C328 1.373 . S
C324 C323 1.394 . S
C324 C325 1.380 . S
C324 H352 0.930 . S
C325 C324 1.380 . S
C325 C326 1.376 . S
C325 H353 0.930 . S
C326 C325 1.376 . S
C326 C327 1.370 . S
C327 C326 1.370 . S
C327 C328 1.396 . S
C327 H354 0.929 . S
C328 C323 1.373 . S
C328 C327 1.396 . S
C328 H355 0.929 . S
C329 O342 1.240 . S
C329 O343 1.289 . S
C330 O344 1.258 . S
C330 O345 1.256 . S
C331 La321 2.928 . S
C331 C332 1.503 . S
C331 O346 1.261 . S
C331 O347 1.243 . S
C332 C331 1.503 . S
C332 C333 1.394 . S
C332 C337 1.373 . S
C333 C332 1.394 . S
C333 C334 1.380 . S
C333 H356 0.930 . S
C334 C333 1.380 . S
C334 C335 1.376 . S
C334 H357 0.930 . S
C335 C334 1.376 . S
C335 C336 1.370 . S
C336 C335 1.370 . S
C336 C337 1.396 . S
C336 H358 0.929 . S
C337 C332 1.373 . S
C337 C336 1.396 . S
C337 H359 0.929 . S
C338 O348 1.240 . S
C338 O349 1.289 . S
C339 O350 1.258 . S
C339 O351 1.256 . S
O340 La320 2.521 . S
O340 C322 1.261 . S
O341 La320 2.628 . S
O341 C322 1.243 . S
O342 La320 2.554 . S
O342 C329 1.240 . S
O343 La320 2.757 . S
O343 La321 2.482 . S
O343 C329 1.289 . S
O344 La320 2.470 . S
O344 C330 1.258 . S
O345 La321 2.503 . S
O345 C330 1.256 . S
O346 La321 2.521 . S
O346 C331 1.261 . S
O347 La321 2.628 . S
O347 C331 1.243 . S
O348 La321 2.554 . S
O348 C338 1.240 . S
O349 La320 2.482 . S
O349 La321 2.757 . S
O349 C338 1.289 . S
O350 La321 2.470 . S
O350 C339 1.258 . S
O351 La320 2.503 . S
O351 C339 1.256 . S
H352 C324 0.930 . S
H353 C325 0.930 . S
H354 C327 0.929 . S
H355 C328 0.929 . S
H356 C333 0.930 . S
H357 C334 0.930 . S
H358 C336 0.929 . S
H359 C337 0.929 . S
La360 C362 2.928 . S
La360 O380 2.521 . S
La360 O381 2.628 . S
La360 O382 2.554 . S
La360 O383 2.757 . S
La360 O384 2.470 . S
La360 O389 2.482 . S
La360 O391 2.503 . S
La361 C371 2.928 . S
La361 O383 2.482 . S
La361 O385 2.503 . S
La361 O386 2.521 . S
La361 O387 2.628 . S
La361 O388 2.554 . S
La361 O389 2.757 . S
La361 O390 2.470 . S
C362 La360 2.928 . S
C362 C363 1.503 . S
C362 O380 1.261 . S
C362 O381 1.243 . S
C363 C362 1.503 . S
C363 C364 1.394 . S
C363 C368 1.373 . S
C364 C363 1.394 . S
C364 C365 1.380 . S
C364 H392 0.930 . S
C365 C364 1.380 . S
C365 C366 1.376 . S
C365 H393 0.930 . S
C366 C365 1.376 . S
C366 C367 1.370 . S
C367 C366 1.370 . S
C367 C368 1.396 . S
C367 H394 0.929 . S
C368 C363 1.373 . S
C368 C367 1.396 . S
C368 H395 0.929 . S
C369 O382 1.240 . S
C369 O383 1.289 . S
C370 O384 1.258 . S
C370 O385 1.256 . S
C371 La361 2.928 . S
C371 C372 1.503 . S
C371 O386 1.261 . S
C371 O387 1.243 . S
C372 C371 1.503 . S
C372 C373 1.394 . S
C372 C377 1.373 . S
C373 C372 1.394 . S
C373 C374 1.381 1_655 S
C373 H396 0.930 1_655 S
C374 C373 1.381 1_455 S
C374 C375 1.377 1_455 S
C374 H397 0.929 . S
C375 C374 1.377 1_655 S
C375 C376 1.370 . S
C376 C375 1.370 . S
C376 C377 1.396 . S
C376 H398 0.929 . S
C377 C372 1.373 . S
C377 C376 1.396 . S
C377 H399 0.929 . S
C378 O388 1.240 . S
C378 O389 1.289 . S
C379 O390 1.258 . S
C379 O391 1.256 . S
O380 La360 2.521 . S
O380 C362 1.261 . S
O381 La360 2.628 . S
O381 C362 1.243 . S
O382 La360 2.554 . S
O382 C369 1.240 . S
O383 La360 2.757 . S
O383 La361 2.482 . S
O383 C369 1.289 . S
O384 La360 2.470 . S
O384 C370 1.258 . S
O385 La361 2.503 . S
O385 C370 1.256 . S
O386 La361 2.521 . S
O386 C371 1.261 . S
O387 La361 2.628 . S
O387 C371 1.243 . S
O388 La361 2.554 . S
O388 C378 1.240 . S
O389 La360 2.482 . S
O389 La361 2.757 . S
O389 C378 1.289 . S
O390 La361 2.470 . S
O390 C379 1.258 . S
O391 La360 2.503 . S
O391 C379 1.256 . S
H392 C364 0.930 . S
H393 C365 0.930 . S
H394 C367 0.929 . S
H395 C368 0.929 . S
H396 C373 0.930 1_455 S
H397 C374 0.929 . S
H398 C376 0.929 . S
H399 C377 0.929 . S
La400 C402 2.928 . S
La400 O420 2.521 . S
La400 O421 2.628 . S
La400 O422 2.554 . S
La400 O423 2.757 . S
La400 O424 2.470 . S
La400 O429 2.482 . S
La400 O431 2.503 . S
La401 C411 2.928 . S
La401 O423 2.482 . S
La401 O425 2.503 . S
La401 O426 2.521 . S
La401 O427 2.628 . S
La401 O428 2.554 . S
La401 O429 2.757 . S
La401 O430 2.470 . S
C402 La400 2.928 . S
C402 C403 1.503 . S
C402 O420 1.261 . S
C402 O421 1.243 . S
C403 C402 1.503 . S
C403 C404 1.394 . S
C403 C408 1.373 . S
C404 C403 1.394 . S
C404 C405 1.380 . S
C404 H432 0.930 . S
C405 C404 1.380 . S
C405 C406 1.376 . S
C405 H433 0.930 . S
C406 C405 1.376 . S
C406 C407 1.370 . S
C407 C406 1.370 . S
C407 C408 1.396 . S
C407 H434 0.929 . S
C408 C403 1.373 . S
C408 C407 1.396 . S
C408 H435 0.929 . S
C409 O422 1.240 . S
C409 O423 1.289 . S
C410 O424 1.258 . S
C410 O425 1.256 . S
C411 La401 2.928 . S
C411 C412 1.503 . S
C411 O426 1.261 . S
C411 O427 1.243 . S
C412 C411 1.503 . S
C412 C413 1.394 . S
C412 C417 1.373 . S
C413 C412 1.394 . S
C413 C414 1.380 . S
C413 H436 0.930 . S
C414 C413 1.380 . S
C414 C415 1.376 . S
C414 H437 0.930 . S
C415 C414 1.376 . S
C415 C416 1.370 . S
C416 C415 1.370 . S
C416 C417 1.396 . S
C416 H438 0.929 . S
C417 C412 1.373 . S
C417 C416 1.396 . S
C417 H439 0.929 . S
C418 O428 1.240 . S
C418 O429 1.289 . S
C419 O430 1.258 . S
C419 O431 1.256 . S
O420 La400 2.521 . S
O420 C402 1.261 . S
O421 La400 2.628 . S
O421 C402 1.243 . S
O422 La400 2.554 . S
O422 C409 1.240 . S
O423 La400 2.757 . S
O423 La401 2.482 . S
O423 C409 1.289 . S
O424 La400 2.470 . S
O424 C410 1.258 . S
O425 La401 2.503 . S
O425 C410 1.256 . S
O426 La401 2.521 . S
O426 C411 1.261 . S
O427 La401 2.628 . S
O427 C411 1.243 . S
O428 La401 2.554 . S
O428 C418 1.240 . S
O429 La400 2.482 . S
O429 La401 2.757 . S
O429 C418 1.289 . S
O430 La401 2.470 . S
O430 C419 1.258 . S
O431 La400 2.503 . S
O431 C419 1.256 . S
H432 C404 0.930 . S
H433 C405 0.930 . S
H434 C407 0.929 . S
H435 C408 0.929 . S
H436 C413 0.930 . S
H437 C414 0.930 . S
H438 C416 0.929 . S
H439 C417 0.929 . S
La440 C442 2.928 . S
La440 O460 2.521 . S
La440 O461 2.628 . S
La440 O462 2.554 . S
La440 O463 2.757 . S
La440 O464 2.470 . S
La440 O469 2.482 . S
La440 O471 2.503 . S
La441 C451 2.928 . S
La441 O463 2.482 . S
La441 O465 2.503 . S
La441 O466 2.521 . S
La441 O467 2.628 . S
La441 O468 2.554 . S
La441 O469 2.757 . S
La441 O470 2.470 . S
C442 La440 2.928 . S
C442 C443 1.503 . S
C442 O460 1.261 . S
C442 O461 1.243 . S
C443 C442 1.503 . S
C443 C444 1.394 . S
C443 C448 1.373 . S
C444 C443 1.394 . S
C444 C445 1.380 . S
C444 H472 0.930 . S
C445 C444 1.380 . S
C445 C446 1.376 . S
C445 H473 0.930 . S
C446 C445 1.376 . S
C446 C447 1.370 . S
C447 C446 1.370 . S
C447 C448 1.396 . S
C447 H474 0.929 . S
C448 C443 1.373 . S
C448 C447 1.396 . S
C448 H475 0.929 . S
C449 O462 1.240 . S
C449 O463 1.289 . S
C450 O464 1.258 . S
C450 O465 1.256 . S
C451 La441 2.928 . S
C451 C452 1.503 . S
C451 O466 1.261 . S
C451 O467 1.243 . S
C452 C451 1.503 . S
C452 C453 1.394 . S
C452 C457 1.373 . S
C453 C452 1.394 . S
C453 C454 1.381 1_655 S
C453 H476 0.930 1_655 S
C454 C453 1.381 1_455 S
C454 C455 1.377 1_455 S
C454 H477 0.930 . S
C455 C454 1.377 1_655 S
C455 C456 1.370 . S
C456 C455 1.370 . S
C456 C457 1.396 . S
C456 H478 0.929 . S
C457 C452 1.373 . S
C457 C456 1.396 . S
C457 H479 0.929 . S
C458 O468 1.240 . S
C458 O469 1.289 . S
C459 O470 1.258 . S
C459 O471 1.256 . S
O460 La440 2.521 . S
O460 C442 1.261 . S
O461 La440 2.628 . S
O461 C442 1.243 . S
O462 La440 2.554 . S
O462 C449 1.240 . S
O463 La440 2.757 . S
O463 La441 2.482 . S
O463 C449 1.289 . S
O464 La440 2.470 . S
O464 C450 1.258 . S
O465 La441 2.503 . S
O465 C450 1.256 . S
O466 La441 2.521 . S
O466 C451 1.261 . S
O467 La441 2.628 . S
O467 C451 1.243 . S
O468 La441 2.554 . S
O468 C458 1.240 . S
O469 La440 2.482 . S
O469 La441 2.757 . S
O469 C458 1.289 . S
O470 La441 2.470 . S
O470 C459 1.258 . S
O471 La440 2.503 . S
O471 C459 1.256 . S
H472 C444 0.930 . S
H473 C445 0.930 . S
H474 C447 0.929 . S
H475 C448 0.929 . S
H476 C453 0.930 1_455 S
H477 C454 0.930 . S
H478 C456 0.929 . S
H479 C457 0.929 . S
La480 C482 2.928 . S
La480 O500 2.521 . S
La480 O501 2.628 . S
La480 O502 2.554 . S
La480 O503 2.757 . S
La480 O504 2.470 . S
La480 O509 2.482 . S
La480 O511 2.503 . S
La481 C491 2.928 . S
La481 O503 2.482 . S
La481 O505 2.503 . S
La481 O506 2.521 . S
La481 O507 2.628 . S
La481 O508 2.554 . S
La481 O509 2.757 . S
La481 O510 2.470 . S
C482 La480 2.928 . S
C482 C483 1.503 . S
C482 O500 1.261 . S
C482 O501 1.243 . S
C483 C482 1.503 . S
C483 C484 1.394 . S
C483 C488 1.373 . S
C484 C483 1.394 . S
C484 C485 1.380 . S
C484 H512 0.930 . S
C485 C484 1.380 . S
C485 C486 1.376 . S
C485 H513 0.930 . S
C486 C485 1.376 . S
C486 C487 1.370 . S
C487 C486 1.370 . S
C487 C488 1.396 . S
C487 H514 0.929 . S
C488 C483 1.373 . S
C488 C487 1.396 . S
C488 H515 0.929 . S
C489 O502 1.240 . S
C489 O503 1.289 . S
C490 O504 1.258 . S
C490 O505 1.256 . S
C491 La481 2.928 . S
C491 C492 1.503 . S
C491 O506 1.261 . S
C491 O507 1.243 . S
C492 C491 1.503 . S
C492 C493 1.394 . S
C492 C497 1.373 . S
C493 C492 1.394 . S
C493 C494 1.380 . S
C493 H516 0.930 . S
C494 C493 1.380 . S
C494 C495 1.376 . S
C494 H517 0.930 . S
C495 C494 1.376 . S
C495 C496 1.370 . S
C496 C495 1.370 . S
C496 C497 1.396 . S
C496 H518 0.929 . S
C497 C492 1.373 . S
C497 C496 1.396 . S
C497 H519 0.929 . S
C498 O508 1.240 . S
C498 O509 1.289 . S
C499 O510 1.258 . S
C499 O511 1.256 . S
O500 La480 2.521 . S
O500 C482 1.261 . S
O501 La480 2.628 . S
O501 C482 1.243 . S
O502 La480 2.554 . S
O502 C489 1.240 . S
O503 La480 2.757 . S
O503 La481 2.482 . S
O503 C489 1.289 . S
O504 La480 2.470 . S
O504 C490 1.258 . S
O505 La481 2.503 . S
O505 C490 1.256 . S
O506 La481 2.521 . S
O506 C491 1.261 . S
O507 La481 2.628 . S
O507 C491 1.243 . S
O508 La481 2.554 . S
O508 C498 1.240 . S
O509 La480 2.482 . S
O509 La481 2.757 . S
O509 C498 1.289 . S
O510 La481 2.470 . S
O510 C499 1.258 . S
O511 La480 2.503 . S
O511 C499 1.256 . S
H512 C484 0.930 . S
H513 C485 0.930 . S
H514 C487 0.929 . S
H515 C488 0.929 . S
H516 C493 0.930 . S
H517 C494 0.930 . S
H518 C496 0.929 . S
H519 C497 0.929 . S
La520 C522 2.928 . S
La520 O540 2.521 . S
La520 O541 2.628 . S
La520 O542 2.554 . S
La520 O543 2.757 . S
La520 O544 2.470 . S
La520 O549 2.482 . S
La520 O551 2.503 . S
La521 C531 2.928 . S
La521 O543 2.482 . S
La521 O545 2.503 . S
La521 O546 2.521 . S
La521 O547 2.628 . S
La521 O548 2.554 . S
La521 O549 2.757 . S
La521 O550 2.470 . S
C522 La520 2.928 . S
C522 C523 1.503 . S
C522 O540 1.261 . S
C522 O541 1.243 . S
C523 C522 1.503 . S
C523 C524 1.394 . S
C523 C528 1.373 . S
C524 C523 1.394 . S
C524 C525 1.381 1_455 S
C524 H552 0.930 1_455 S
C525 C524 1.381 1_655 S
C525 C526 1.377 1_655 S
C525 H553 0.929 . S
C526 C525 1.377 1_455 S
C526 C527 1.370 . S
C527 C526 1.370 . S
C527 C528 1.396 . S
C527 H554 0.929 . S
C528 C523 1.373 . S
C528 C527 1.396 . S
C528 H555 0.929 . S
C529 O542 1.240 . S
C529 O543 1.289 . S
C530 O544 1.258 . S
C530 O545 1.256 . S
C531 La521 2.928 . S
C531 C532 1.503 . S
C531 O546 1.261 . S
C531 O547 1.243 . S
C532 C531 1.503 . S
C532 C533 1.394 . S
C532 C537 1.373 . S
C533 C532 1.394 . S
C533 C534 1.380 . S
C533 H556 0.930 . S
C534 C533 1.380 . S
C534 C535 1.376 . S
C534 H557 0.930 . S
C535 C534 1.376 . S
C535 C536 1.370 . S
C536 C535 1.370 . S
C536 C537 1.396 . S
C536 H558 0.929 . S
C537 C532 1.373 . S
C537 C536 1.396 . S
C537 H559 0.929 . S
C538 O548 1.240 . S
C538 O549 1.289 . S
C539 O550 1.258 . S
C539 O551 1.256 . S
O540 La520 2.521 . S
O540 C522 1.261 . S
O541 La520 2.628 . S
O541 C522 1.243 . S
O542 La520 2.554 . S
O542 C529 1.240 . S
O543 La520 2.757 . S
O543 La521 2.482 . S
O543 C529 1.289 . S
O544 La520 2.470 . S
O544 C530 1.258 . S
O545 La521 2.503 . S
O545 C530 1.256 . S
O546 La521 2.521 . S
O546 C531 1.261 . S
O547 La521 2.628 . S
O547 C531 1.243 . S
O548 La521 2.554 . S
O548 C538 1.240 . S
O549 La520 2.482 . S
O549 La521 2.757 . S
O549 C538 1.289 . S
O550 La521 2.470 . S
O550 C539 1.258 . S
O551 La520 2.503 . S
O551 C539 1.256 . S
H552 C524 0.930 1_655 S
H553 C525 0.929 . S
H554 C527 0.929 . S
H555 C528 0.929 . S
H556 C533 0.930 . S
H557 C534 0.930 . S
H558 C536 0.929 . S
H559 C537 0.929 . S
La560 C562 2.928 . S
La560 O580 2.521 . S
La560 O581 2.628 . S
La560 O582 2.554 . S
La560 O583 2.757 . S
La560 O584 2.470 . S
La560 O589 2.482 . S
La560 O591 2.503 . S
La561 C571 2.928 . S
La561 O583 2.482 . S
La561 O585 2.503 . S
La561 O586 2.521 . S
La561 O587 2.628 . S
La561 O588 2.554 . S
La561 O589 2.757 . S
La561 O590 2.470 . S
C562 La560 2.928 . S
C562 C563 1.503 . S
C562 O580 1.261 . S
C562 O581 1.243 . S
C563 C562 1.503 . S
C563 C564 1.394 . S
C563 C568 1.373 . S
C564 C563 1.394 . S
C564 C565 1.380 . S
C564 H592 0.930 . S
C565 C564 1.380 . S
C565 C566 1.376 . S
C565 H593 0.930 . S
C566 C565 1.376 . S
C566 C567 1.370 . S
C567 C566 1.370 . S
C567 C568 1.396 . S
C567 H594 0.929 . S
C568 C563 1.373 . S
C568 C567 1.396 . S
C568 H595 0.929 . S
C569 O582 1.240 . S
C569 O583 1.289 . S
C570 O584 1.258 . S
C570 O585 1.256 . S
C571 La561 2.928 . S
C571 C572 1.503 . S
C571 O586 1.261 . S
C571 O587 1.243 . S
C572 C571 1.503 . S
C572 C573 1.394 . S
C572 C577 1.373 . S
C573 C572 1.394 . S
C573 C574 1.380 . S
C573 H596 0.930 . S
C574 C573 1.380 . S
C574 C575 1.376 . S
C574 H597 0.930 . S
C575 C574 1.376 . S
C575 C576 1.370 . S
C576 C575 1.370 . S
C576 C577 1.396 . S
C576 H598 0.929 . S
C577 C572 1.373 . S
C577 C576 1.396 . S
C577 H599 0.929 . S
C578 O588 1.240 . S
C578 O589 1.289 . S
C579 O590 1.258 . S
C579 O591 1.256 . S
O580 La560 2.521 . S
O580 C562 1.261 . S
O581 La560 2.628 . S
O581 C562 1.243 . S
O582 La560 2.554 . S
O582 C569 1.240 . S
O583 La560 2.757 . S
O583 La561 2.482 . S
O583 C569 1.289 . S
O584 La560 2.470 . S
O584 C570 1.258 . S
O585 La561 2.503 . S
O585 C570 1.256 . S
O586 La561 2.521 . S
O586 C571 1.261 . S
O587 La561 2.628 . S
O587 C571 1.243 . S
O588 La561 2.554 . S
O588 C578 1.240 . S
O589 La560 2.482 . S
O589 La561 2.757 . S
O589 C578 1.289 . S
O590 La561 2.470 . S
O590 C579 1.258 . S
O591 La560 2.503 . S
O591 C579 1.256 . S
H592 C564 0.930 . S
H593 C565 0.930 . S
H594 C567 0.929 . S
H595 C568 0.929 . S
H596 C573 0.930 . S
H597 C574 0.930 . S
H598 C576 0.929 . S
H599 C577 0.929 . S
La600 C602 2.928 . S
La600 O620 2.521 . S
La600 O621 2.628 . S
La600 O622 2.554 . S
La600 O623 2.757 . S
La600 O624 2.470 . S
La600 O629 2.482 . S
La600 O631 2.503 . S
La601 C611 2.928 . S
La601 O623 2.482 . S
La601 O625 2.503 . S
La601 O626 2.521 . S
La601 O627 2.628 . S
La601 O628 2.554 . S
La601 O629 2.757 . S
La601 O630 2.470 . S
C602 La600 2.928 . S
C602 C603 1.503 . S
C602 O620 1.261 . S
C602 O621 1.243 . S
C603 C602 1.503 . S
C603 C604 1.394 . S
C603 C608 1.373 . S
C604 C603 1.394 . S
C604 C605 1.381 1_455 S
C604 H632 0.930 1_455 S
C605 C604 1.381 1_655 S
C605 C606 1.377 1_655 S
C605 H633 0.930 . S
C606 C605 1.377 1_455 S
C606 C607 1.370 . S
C607 C606 1.370 . S
C607 C608 1.396 . S
C607 H634 0.929 . S
C608 C603 1.373 . S
C608 C607 1.396 . S
C608 H635 0.929 . S
C609 O622 1.240 . S
C609 O623 1.289 . S
C610 O624 1.258 . S
C610 O625 1.256 . S
C611 La601 2.928 . S
C611 C612 1.503 . S
C611 O626 1.261 . S
C611 O627 1.243 . S
C612 C611 1.503 . S
C612 C613 1.394 . S
C612 C617 1.373 . S
C613 C612 1.394 . S
C613 C614 1.380 . S
C613 H636 0.930 . S
C614 C613 1.380 . S
C614 C615 1.376 . S
C614 H637 0.930 . S
C615 C614 1.376 . S
C615 C616 1.370 . S
C616 C615 1.370 . S
C616 C617 1.396 . S
C616 H638 0.929 . S
C617 C612 1.373 . S
C617 C616 1.396 . S
C617 H639 0.929 . S
C618 O628 1.240 . S
C618 O629 1.289 . S
C619 O630 1.258 . S
C619 O631 1.256 . S
O620 La600 2.521 . S
O620 C602 1.261 . S
O621 La600 2.628 . S
O621 C602 1.243 . S
O622 La600 2.554 . S
O622 C609 1.240 . S
O623 La600 2.757 . S
O623 La601 2.482 . S
O623 C609 1.289 . S
O624 La600 2.470 . S
O624 C610 1.258 . S
O625 La601 2.503 . S
O625 C610 1.256 . S
O626 La601 2.521 . S
O626 C611 1.261 . S
O627 La601 2.628 . S
O627 C611 1.243 . S
O628 La601 2.554 . S
O628 C618 1.240 . S
O629 La600 2.482 . S
O629 La601 2.757 . S
O629 C618 1.289 . S
O630 La601 2.470 . S
O630 C619 1.258 . S
O631 La600 2.503 . S
O631 C619 1.256 . S
H632 C604 0.930 1_655 S
H633 C605 0.930 . S
H634 C607 0.929 . S
H635 C608 0.929 . S
H636 C613 0.930 . S
H637 C614 0.930 . S
H638 C616 0.929 . S
H639 C617 0.929 . S
La640 C642 2.928 . S
La640 O660 2.521 . S
La640 O661 2.628 1_545 S
La640 O662 2.554 . S
La640 O663 2.757 . S
La640 O664 2.470 . S
La640 O669 2.482 1_545 S
La640 O671 2.503 . S
La641 C651 2.928 1_565 S
La641 O663 2.459 1_565 S
La641 O665 2.498 1_565 S
La641 O666 2.532 . S
La641 O667 2.615 1_565 S
La641 O668 2.583 . S
La641 O669 2.770 . S
La641 O670 2.476 . S
C642 La640 2.928 . S
C642 C643 1.503 . S
C642 O660 1.261 . S
C642 O661 1.243 1_545 S
C643 C642 1.503 . S
C643 C644 1.394 . S
C643 C648 1.373 1_545 S
C644 C643 1.394 . S
C644 C645 1.380 1_655 S
C644 H672 0.930 1_655 S
C645 C644 1.380 1_455 S
C645 C646 1.376 1_455 S
C645 H673 0.930 . S
C646 C645 1.376 1_655 S
C646 C647 1.370 1_545 S
C647 C646 1.370 1_565 S
C647 C648 1.396 . S
C647 H674 0.929 . S
C648 C643 1.373 1_565 S
C648 C647 1.396 . S
C648 H675 0.929 . S
C649 O662 1.240 . S
C649 O663 1.289 . S
C650 O664 1.258 . S
C650 O665 1.256 . S
C651 La641 2.928 1_545 S
C651 C652 1.502 1_545 S
C651 O666 1.261 1_545 S
C651 O667 1.243 . S
C652 C651 1.502 1_565 S
C652 C653 1.417 . S
C652 C657 1.352 1_565 S
C653 C652 1.417 . S
C653 C654 1.380 . S
C653 H676 0.930 . S
C654 C653 1.380 . S
C654 C655 1.376 . S
C654 H677 0.930 . S
C655 C654 1.376 . S
C655 C656 1.370 1_565 S
C656 C655 1.370 1_545 S
C656 C657 1.396 . S
C656 H678 0.929 . S
C657 C652 1.352 1_545 S
C657 C656 1.396 . S
C657 H679 0.929 . S
C658 O668 1.240 . S
C658 O669 1.289 . S
C659 O670 1.258 . S
C659 O671 1.256 1_565 S
O660 La640 2.521 . S
O660 C642 1.261 . S
O661 La640 2.628 1_565 S
O661 C642 1.243 1_565 S
O662 La640 2.554 . S
O662 C649 1.240 . S
O663 La640 2.757 . S
O663 La641 2.459 1_545 S
O663 C649 1.289 . S
O664 La640 2.470 . S
O664 C650 1.258 . S
O665 La641 2.498 1_545 S
O665 C650 1.256 . S
O666 La641 2.532 . S
O666 C651 1.261 1_565 S
O667 La641 2.615 1_545 S
O667 C651 1.243 . S
O668 La641 2.583 . S
O668 C658 1.240 . S
O669 La640 2.482 1_565 S
O669 La641 2.770 . S
O669 C658 1.289 . S
O670 La641 2.476 . S
O670 C659 1.258 . S
O671 La640 2.503 . S
O671 C659 1.256 1_545 S
H672 C644 0.930 1_455 S
H673 C645 0.930 . S
H674 C647 0.929 . S
H675 C648 0.929 . S
H676 C653 0.930 . S
H677 C654 0.930 . S
H678 C656 0.929 . S
H679 C657 0.929 . S
La680 C682 2.928 . S
La680 O700 2.521 . S
La680 O701 2.628 . S
La680 O702 2.554 . S
La680 O703 2.757 . S
La680 O704 2.470 . S
La680 O709 2.482 . S
La680 O711 2.503 . S
La681 C691 2.928 . S
La681 O703 2.482 . S
La681 O705 2.503 . S
La681 O706 2.521 . S
La681 O707 2.628 . S
La681 O708 2.554 . S
La681 O709 2.757 . S
La681 O710 2.470 . S
C682 La680 2.928 . S
C682 C683 1.503 . S
C682 O700 1.261 . S
C682 O701 1.243 . S
C683 C682 1.503 . S
C683 C684 1.394 . S
C683 C688 1.373 . S
C684 C683 1.394 . S
C684 C685 1.380 . S
C684 H712 0.930 . S
C685 C684 1.380 . S
C685 C686 1.376 . S
C685 H713 0.930 . S
C686 C685 1.376 . S
C686 C687 1.370 . S
C687 C686 1.370 . S
C687 C688 1.396 . S
C687 H714 0.929 . S
C688 C683 1.373 . S
C688 C687 1.396 . S
C688 H715 0.929 . S
C689 O702 1.240 . S
C689 O703 1.289 . S
C690 O704 1.258 . S
C690 O705 1.256 . S
C691 La681 2.928 . S
C691 C692 1.503 . S
C691 O706 1.261 . S
C691 O707 1.243 . S
C692 C691 1.503 . S
C692 C693 1.394 . S
C692 C697 1.373 . S
C693 C692 1.394 . S
C693 C694 1.380 . S
C693 H716 0.930 . S
C694 C693 1.380 . S
C694 C695 1.376 . S
C694 H717 0.930 . S
C695 C694 1.376 . S
C695 C696 1.370 . S
C696 C695 1.370 . S
C696 C697 1.396 . S
C696 H718 0.929 . S
C697 C692 1.373 . S
C697 C696 1.396 . S
C697 H719 0.929 . S
C698 O708 1.240 . S
C698 O709 1.289 . S
C699 O710 1.258 . S
C699 O711 1.256 . S
O700 La680 2.521 . S
O700 C682 1.261 . S
O701 La680 2.628 . S
O701 C682 1.243 . S
O702 La680 2.554 . S
O702 C689 1.240 . S
O703 La680 2.757 . S
O703 La681 2.482 . S
O703 C689 1.289 . S
O704 La680 2.470 . S
O704 C690 1.258 . S
O705 La681 2.503 . S
O705 C690 1.256 . S
O706 La681 2.521 . S
O706 C691 1.261 . S
O707 La681 2.628 . S
O707 C691 1.243 . S
O708 La681 2.554 . S
O708 C698 1.240 . S
O709 La680 2.482 . S
O709 La681 2.757 . S
O709 C698 1.289 . S
O710 La681 2.470 . S
O710 C699 1.258 . S
O711 La680 2.503 . S
O711 C699 1.256 . S
H712 C684 0.930 . S
H713 C685 0.930 . S
H714 C687 0.929 . S
H715 C688 0.929 . S
H716 C693 0.930 . S
H717 C694 0.930 . S
H718 C696 0.929 . S
H719 C697 0.929 . S
La720 C722 2.928 . S
La720 O740 2.521 . S
La720 O741 2.628 . S
La720 O742 2.554 . S
La720 O743 2.757 . S
La720 O744 2.470 . S
La720 O749 2.482 . S
La720 O751 2.503 . S
La721 C731 2.928 . S
La721 O743 2.482 . S
La721 O745 2.503 . S
La721 O746 2.521 . S
La721 O747 2.628 . S
La721 O748 2.554 . S
La721 O749 2.757 . S
La721 O750 2.470 . S
C722 La720 2.928 . S
C722 C723 1.503 . S
C722 O740 1.261 . S
C722 O741 1.243 . S
C723 C722 1.503 . S
C723 C724 1.394 . S
C723 C728 1.373 . S
C724 C723 1.394 . S
C724 C725 1.380 1_655 S
C724 H752 0.930 1_655 S
C725 C724 1.380 1_455 S
C725 C726 1.376 1_455 S
C725 H753 0.930 . S
C726 C725 1.376 1_655 S
C726 C727 1.370 . S
C727 C726 1.370 . S
C727 C728 1.396 . S
C727 H754 0.929 . S
C728 C723 1.373 . S
C728 C727 1.396 . S
C728 H755 0.929 . S
C729 O742 1.240 . S
C729 O743 1.289 . S
C730 O744 1.258 . S
C730 O745 1.256 . S
C731 La721 2.928 . S
C731 C732 1.503 . S
C731 O746 1.261 . S
C731 O747 1.243 . S
C732 C731 1.503 . S
C732 C733 1.394 . S
C732 C737 1.373 . S
C733 C732 1.394 . S
C733 C734 1.380 . S
C733 H756 0.930 . S
C734 C733 1.380 . S
C734 C735 1.376 . S
C734 H757 0.930 . S
C735 C734 1.376 . S
C735 C736 1.370 . S
C736 C735 1.370 . S
C736 C737 1.396 . S
C736 H758 0.929 . S
C737 C732 1.373 . S
C737 C736 1.396 . S
C737 H759 0.929 . S
C738 O748 1.240 . S
C738 O749 1.289 . S
C739 O750 1.258 . S
C739 O751 1.256 . S
O740 La720 2.521 . S
O740 C722 1.261 . S
O741 La720 2.628 . S
O741 C722 1.243 . S
O742 La720 2.554 . S
O742 C729 1.240 . S
O743 La720 2.757 . S
O743 La721 2.482 . S
O743 C729 1.289 . S
O744 La720 2.470 . S
O744 C730 1.258 . S
O745 La721 2.503 . S
O745 C730 1.256 . S
O746 La721 2.521 . S
O746 C731 1.261 . S
O747 La721 2.628 . S
O747 C731 1.243 . S
O748 La721 2.554 . S
O748 C738 1.240 . S
O749 La720 2.482 . S
O749 La721 2.757 . S
O749 C738 1.289 . S
O750 La721 2.470 . S
O750 C739 1.258 . S
O751 La720 2.503 . S
O751 C739 1.256 . S
H752 C724 0.930 1_455 S
H753 C725 0.930 . S
H754 C727 0.929 . S
H755 C728 0.929 . S
H756 C733 0.930 . S
H757 C734 0.930 . S
H758 C736 0.929 . S
H759 C737 0.929 . S
La760 C762 2.928 . S
La760 O780 2.521 . S
La760 O781 2.628 1_545 S
La760 O782 2.554 . S
La760 O783 2.757 . S
La760 O784 2.470 . S
La760 O789 2.482 1_545 S
La760 O791 2.503 . S
La761 C771 2.928 1_565 S
La761 O783 2.459 1_565 S
La761 O785 2.498 1_565 S
La761 O786 2.532 . S
La761 O787 2.615 1_565 S
La761 O788 2.583 . S
La761 O789 2.770 . S
La761 O790 2.476 . S
C762 La760 2.928 . S
C762 C763 1.503 . S
C762 O780 1.261 . S
C762 O781 1.243 1_545 S
C763 C762 1.503 . S
C763 C764 1.394 . S
C763 C768 1.373 1_545 S
C764 C763 1.394 . S
C764 C765 1.380 . S
C764 H792 0.930 . S
C765 C764 1.380 . S
C765 C766 1.376 . S
C765 H793 0.930 . S
C766 C765 1.376 . S
C766 C767 1.370 1_545 S
C767 C766 1.370 1_565 S
C767 C768 1.396 . S
C767 H794 0.929 . S
C768 C763 1.373 1_565 S
C768 C767 1.396 . S
C768 H795 0.929 . S
C769 O782 1.240 . S
C769 O783 1.289 . S
C770 O784 1.258 . S
C770 O785 1.256 . S
C771 La761 2.928 1_545 S
C771 C772 1.502 1_545 S
C771 O786 1.261 1_545 S
C771 O787 1.243 . S
C772 C771 1.502 1_565 S
C772 C773 1.417 . S
C772 C777 1.352 1_565 S
C773 C772 1.417 . S
C773 C774 1.380 . S
C773 H796 0.930 . S
C774 C773 1.380 . S
C774 C775 1.376 . S
C774 H797 0.930 . S
C775 C774 1.376 . S
C775 C776 1.370 1_565 S
C776 C775 1.370 1_545 S
C776 C777 1.396 . S
C776 H798 0.929 . S
C777 C772 1.352 1_545 S
C777 C776 1.396 . S
C777 H799 0.929 . S
C778 O788 1.240 . S
C778 O789 1.289 . S
C779 O790 1.258 . S
C779 O791 1.256 1_565 S
O780 La760 2.521 . S
O780 C762 1.261 . S
O781 La760 2.628 1_565 S
O781 C762 1.243 1_565 S
O782 La760 2.554 . S
O782 C769 1.240 . S
O783 La760 2.757 . S
O783 La761 2.459 1_545 S
O783 C769 1.289 . S
O784 La760 2.470 . S
O784 C770 1.258 . S
O785 La761 2.498 1_545 S
O785 C770 1.256 . S
O786 La761 2.532 . S
O786 C771 1.261 1_565 S
O787 La761 2.615 1_545 S
O787 C771 1.243 . S
O788 La761 2.583 . S
O788 C778 1.240 . S
O789 La760 2.482 1_565 S
O789 La761 2.770 . S
O789 C778 1.289 . S
O790 La761 2.476 . S
O790 C779 1.258 . S
O791 La760 2.503 . S
O791 C779 1.256 1_545 S
H792 C764 0.930 . S
H793 C765 0.930 . S
H794 C767 0.929 . S
H795 C768 0.929 . S
H796 C773 0.930 . S
H797 C774 0.930 . S
H798 C776 0.929 . S
H799 C777 0.929 . S
La800 C802 2.928 1_545 S
La800 O820 2.532 . S
La800 O821 2.615 1_545 S
La800 O822 2.583 . S
La800 O823 2.770 . S
La800 O824 2.476 . S
La800 O829 2.459 1_545 S
La800 O831 2.498 1_545 S
La801 C811 2.928 . S
La801 O823 2.482 1_565 S
La801 O825 2.503 . S
La801 O826 2.521 . S
La801 O827 2.628 1_565 S
La801 O828 2.554 . S
La801 O829 2.757 . S
La801 O830 2.470 . S
C802 La800 2.928 1_565 S
C802 C803 1.502 1_565 S
C802 O820 1.261 1_565 S
C802 O821 1.243 . S
C803 C802 1.502 1_545 S
C803 C804 1.417 . S
C803 C808 1.352 1_545 S
C804 C803 1.417 . S
C804 C805 1.380 . S
C804 H832 0.930 . S
C805 C804 1.380 . S
C805 C806 1.376 . S
C805 H833 0.930 . S
C806 C805 1.376 . S
C806 C807 1.370 1_545 S
C807 C806 1.370 1_565 S
C807 C808 1.396 . S
C807 H834 0.929 . S
C808 C803 1.352 1_565 S
C808 C807 1.396 . S
C808 H835 0.929 . S
C809 O822 1.240 . S
C809 O823 1.289 . S
C810 O824 1.258 . S
C810 O825 1.256 1_545 S
C811 La801 2.928 . S
C811 C812 1.503 . S
C811 O826 1.261 . S
C811 O827 1.243 1_565 S
C812 C811 1.503 . S
C812 C813 1.394 . S
C812 C817 1.373 1_565 S
C813 C812 1.394 . S
C813 C814 1.380 1_455 S
C813 H836 0.930 1_455 S
C814 C813 1.380 1_655 S
C814 C815 1.376 1_655 S
C814 H837 0.930 . S
C815 C814 1.376 1_455 S
C815 C816 1.370 1_565 S
C816 C815 1.370 1_545 S
C816 C817 1.396 . S
C816 H838 0.929 . S
C817 C812 1.373 1_545 S
C817 C816 1.396 . S
C817 H839 0.929 . S
C818 O828 1.240 . S
C818 O829 1.289 . S
C819 O830 1.258 . S
C819 O831 1.256 . S
O820 La800 2.532 . S
O820 C802 1.261 1_545 S
O821 La800 2.615 1_565 S
O821 C802 1.243 . S
O822 La800 2.583 . S
O822 C809 1.240 . S
O823 La800 2.770 . S
O823 La801 2.482 1_545 S
O823 C809 1.289 . S
O824 La800 2.476 . S
O824 C810 1.258 . S
O825 La801 2.503 . S
O825 C810 1.256 1_565 S
O826 La801 2.521 . S
O826 C811 1.261 . S
O827 La801 2.628 1_545 S
O827 C811 1.243 1_545 S
O828 La801 2.554 . S
O828 C818 1.240 . S
O829 La800 2.459 1_565 S
O829 La801 2.757 . S
O829 C818 1.289 . S
O830 La801 2.470 . S
O830 C819 1.258 . S
O831 La800 2.498 1_565 S
O831 C819 1.256 . S
H832 C804 0.930 . S
H833 C805 0.930 . S
H834 C807 0.929 . S
H835 C808 0.929 . S
H836 C813 0.930 1_655 S
H837 C814 0.930 . S
H838 C816 0.929 . S
H839 C817 0.929 . S
La840 C842 2.928 . S
La840 O860 2.521 . S
La840 O861 2.628 . S
La840 O862 2.554 . S
La840 O863 2.757 . S
La840 O864 2.470 . S
La840 O869 2.482 . S
La840 O871 2.503 . S
La841 C851 2.928 . S
La841 O863 2.482 . S
La841 O865 2.503 . S
La841 O866 2.521 . S
La841 O867 2.628 . S
La841 O868 2.554 . S
La841 O869 2.757 . S
La841 O870 2.470 . S
C842 La840 2.928 . S
C842 C843 1.503 . S
C842 O860 1.261 . S
C842 O861 1.243 . S
C843 C842 1.503 . S
C843 C844 1.394 . S
C843 C848 1.373 . S
C844 C843 1.394 . S
C844 C845 1.380 . S
C844 H872 0.930 . S
C845 C844 1.380 . S
C845 C846 1.376 . S
C845 H873 0.930 . S
C846 C845 1.376 . S
C846 C847 1.370 . S
C847 C846 1.370 . S
C847 C848 1.396 . S
C847 H874 0.929 . S
C848 C843 1.373 . S
C848 C847 1.396 . S
C848 H875 0.929 . S
C849 O862 1.240 . S
C849 O863 1.289 . S
C850 O864 1.258 . S
C850 O865 1.256 . S
C851 La841 2.928 . S
C851 C852 1.503 . S
C851 O866 1.261 . S
C851 O867 1.243 . S
C852 C851 1.503 . S
C852 C853 1.394 . S
C852 C857 1.373 . S
C853 C852 1.394 . S
C853 C854 1.380 . S
C853 H876 0.930 . S
C854 C853 1.380 . S
C854 C855 1.376 . S
C854 H877 0.930 . S
C855 C854 1.376 . S
C855 C856 1.370 . S
C856 C855 1.370 . S
C856 C857 1.396 . S
C856 H878 0.929 . S
C857 C852 1.373 . S
C857 C856 1.396 . S
C857 H879 0.929 . S
C858 O868 1.240 . S
C858 O869 1.289 . S
C859 O870 1.258 . S
C859 O871 1.256 . S
O860 La840 2.521 . S
O860 C842 1.261 . S
O861 La840 2.628 . S
O861 C842 1.243 . S
O862 La840 2.554 . S
O862 C849 1.240 . S
O863 La840 2.757 . S
O863 La841 2.482 . S
O863 C849 1.289 . S
O864 La840 2.470 . S
O864 C850 1.258 . S
O865 La841 2.503 . S
O865 C850 1.256 . S
O866 La841 2.521 . S
O866 C851 1.261 . S
O867 La841 2.628 . S
O867 C851 1.243 . S
O868 La841 2.554 . S
O868 C858 1.240 . S
O869 La840 2.482 . S
O869 La841 2.757 . S
O869 C858 1.289 . S
O870 La841 2.470 . S
O870 C859 1.258 . S
O871 La840 2.503 . S
O871 C859 1.256 . S
H872 C844 0.930 . S
H873 C845 0.930 . S
H874 C847 0.929 . S
H875 C848 0.929 . S
H876 C853 0.930 . S
H877 C854 0.930 . S
H878 C856 0.929 . S
H879 C857 0.929 . S
La880 C882 2.928 . S
La880 O900 2.521 . S
La880 O901 2.628 . S
La880 O902 2.554 . S
La880 O903 2.757 . S
La880 O904 2.470 . S
La880 O909 2.482 . S
La880 O911 2.503 . S
La881 C891 2.928 . S
La881 O903 2.482 . S
La881 O905 2.503 . S
La881 O906 2.521 . S
La881 O907 2.628 . S
La881 O908 2.554 . S
La881 O909 2.757 . S
La881 O910 2.470 . S
C882 La880 2.928 . S
C882 C883 1.503 . S
C882 O900 1.261 . S
C882 O901 1.243 . S
C883 C882 1.503 . S
C883 C884 1.394 . S
C883 C888 1.373 . S
C884 C883 1.394 . S
C884 C885 1.380 . S
C884 H912 0.930 . S
C885 C884 1.380 . S
C885 C886 1.376 . S
C885 H913 0.930 . S
C886 C885 1.376 . S
C886 C887 1.370 . S
C887 C886 1.370 . S
C887 C888 1.396 . S
C887 H914 0.929 . S
C888 C883 1.373 . S
C888 C887 1.396 . S
C888 H915 0.929 . S
C889 O902 1.240 . S
C889 O903 1.289 . S
C890 O904 1.258 . S
C890 O905 1.256 . S
C891 La881 2.928 . S
C891 C892 1.503 . S
C891 O906 1.261 . S
C891 O907 1.243 . S
C892 C891 1.503 . S
C892 C893 1.394 . S
C892 C897 1.373 . S
C893 C892 1.394 . S
C893 C894 1.380 1_455 S
C893 H916 0.930 1_455 S
C894 C893 1.380 1_655 S
C894 C895 1.376 1_655 S
C894 H917 0.930 . S
C895 C894 1.376 1_455 S
C895 C896 1.370 . S
C896 C895 1.370 . S
C896 C897 1.396 . S
C896 H918 0.929 . S
C897 C892 1.373 . S
C897 C896 1.396 . S
C897 H919 0.929 . S
C898 O908 1.240 . S
C898 O909 1.289 . S
C899 O910 1.258 . S
C899 O911 1.256 . S
O900 La880 2.521 . S
O900 C882 1.261 . S
O901 La880 2.628 . S
O901 C882 1.243 . S
O902 La880 2.554 . S
O902 C889 1.240 . S
O903 La880 2.757 . S
O903 La881 2.482 . S
O903 C889 1.289 . S
O904 La880 2.470 . S
O904 C890 1.258 . S
O905 La881 2.503 . S
O905 C890 1.256 . S
O906 La881 2.521 . S
O906 C891 1.261 . S
O907 La881 2.628 . S
O907 C891 1.243 . S
O908 La881 2.554 . S
O908 C898 1.240 . S
O909 La880 2.482 . S
O909 La881 2.757 . S
O909 C898 1.289 . S
O910 La881 2.470 . S
O910 C899 1.258 . S
O911 La880 2.503 . S
O911 C899 1.256 . S
H912 C884 0.930 . S
H913 C885 0.930 . S
H914 C887 0.929 . S
H915 C888 0.929 . S
H916 C893 0.930 1_655 S
H917 C894 0.930 . S
H918 C896 0.929 . S
H919 C897 0.929 . S
La920 C922 2.928 1_545 S
La920 O940 2.532 . S
La920 O941 2.615 1_545 S
La920 O942 2.583 . S
La920 O943 2.770 . S
La920 O944 2.476 . S
La920 O949 2.459 1_545 S
La920 O951 2.498 1_545 S
La921 C931 2.928 . S
La921 O943 2.482 1_565 S
La921 O945 2.503 . S
La921 O946 2.521 . S
La921 O947 2.628 1_565 S
La921 O948 2.554 . S
La921 O949 2.757 . S
La921 O950 2.470 . S
C922 La920 2.928 1_565 S
C922 C923 1.502 1_565 S
C922 O940 1.261 1_565 S
C922 O941 1.243 . S
C923 C922 1.502 1_545 S
C923 C924 1.417 . S
C923 C928 1.352 1_545 S
C924 C923 1.417 . S
C924 C925 1.380 . S
C924 H952 0.930 . S
C925 C924 1.380 . S
C925 C926 1.376 . S
C925 H953 0.930 . S
C926 C925 1.376 . S
C926 C927 1.370 1_545 S
C927 C926 1.370 1_565 S
C927 C928 1.396 . S
C927 H954 0.929 . S
C928 C923 1.352 1_565 S
C928 C927 1.396 . S
C928 H955 0.929 . S
C929 O942 1.240 . S
C929 O943 1.289 . S
C930 O944 1.258 . S
C930 O945 1.256 1_545 S
C931 La921 2.928 . S
C931 C932 1.503 . S
C931 O946 1.261 . S
C931 O947 1.243 1_565 S
C932 C931 1.503 . S
C932 C933 1.394 . S
C932 C937 1.373 1_565 S
C933 C932 1.394 . S
C933 C934 1.380 . S
C933 H956 0.930 . S
C934 C933 1.380 . S
C934 C935 1.376 . S
C934 H957 0.930 . S
C935 C934 1.376 . S
C935 C936 1.370 1_565 S
C936 C935 1.370 1_545 S
C936 C937 1.396 . S
C936 H958 0.929 . S
C937 C932 1.373 1_545 S
C937 C936 1.396 . S
C937 H959 0.929 . S
C938 O948 1.240 . S
C938 O949 1.289 . S
C939 O950 1.258 . S
C939 O951 1.256 . S
O940 La920 2.532 . S
O940 C922 1.261 1_545 S
O941 La920 2.615 1_565 S
O941 C922 1.243 . S
O942 La920 2.583 . S
O942 C929 1.240 . S
O943 La920 2.770 . S
O943 La921 2.482 1_545 S
O943 C929 1.289 . S
O944 La920 2.476 . S
O944 C930 1.258 . S
O945 La921 2.503 . S
O945 C930 1.256 1_565 S
O946 La921 2.521 . S
O946 C931 1.261 . S
O947 La921 2.628 1_545 S
O947 C931 1.243 1_545 S
O948 La921 2.554 . S
O948 C938 1.240 . S
O949 La920 2.459 1_565 S
O949 La921 2.757 . S
O949 C938 1.289 . S
O950 La921 2.470 . S
O950 C939 1.258 . S
O951 La920 2.498 1_565 S
O951 C939 1.256 . S
H952 C924 0.930 . S
H953 C925 0.930 . S
H954 C927 0.929 . S
H955 C928 0.929 . S
H956 C933 0.930 . S
H957 C934 0.930 . S
H958 C936 0.929 . S
H959 C937 0.929 . S
La960 C962 2.928 1_554 S
La960 O980 2.521 . S
La960 O981 2.628 . S
La960 O982 2.554 . S
La960 O983 2.757 . S
La960 O984 2.470 . S
La960 O989 2.482 . S
La960 O991 2.503 . S
La961 C971 2.928 . S
La961 O983 2.482 . S
La961 O985 2.503 . S
La961 O986 2.521 . S
La961 O987 2.628 . S
La961 O988 2.554 . S
La961 O989 2.757 . S
La961 O990 2.470 . S
C962 La960 2.928 1_556 S
C962 C963 1.503 . S
C962 O980 1.261 1_556 S
C962 O981 1.243 1_556 S
C963 C962 1.503 . S
C963 C964 1.394 . S
C963 C968 1.373 . S
C964 C963 1.394 . S
C964 C965 1.380 1_655 S
C964 H992 0.930 1_655 S
C965 C964 1.380 1_455 S
C965 C966 1.376 1_455 S
C965 H993 0.930 . S
C966 C965 1.376 1_655 S
C966 C967 1.370 . S
C967 C966 1.370 . S
C967 C968 1.396 . S
C967 H994 0.929 . S
C968 C963 1.373 . S
C968 C967 1.396 . S
C968 H995 0.929 . S
C969 O982 1.240 . S
C969 O983 1.289 . S
C970 O984 1.258 . S
C970 O985 1.256 . S
C971 La961 2.928 . S
C971 C972 1.503 . S
C971 O986 1.261 . S
C971 O987 1.243 . S
C972 C971 1.503 . S
C972 C973 1.394 . S
C972 C977 1.373 . S
C973 C972 1.394 . S
C973 C974 1.380 . S
C973 H996 0.930 . S
C974 C973 1.380 . S
C974 C975 1.376 . S
C974 H997 0.930 . S
C975 C974 1.376 . S
C975 C976 1.370 . S
C976 C975 1.370 . S
C976 C977 1.396 . S
C976 H998 0.929 . S
C977 C972 1.373 . S
C977 C976 1.396 . S
C977 H999 0.929 . S
C978 O988 1.240 . S
C978 O989 1.289 . S
C979 O990 1.258 . S
C979 O991 1.256 . S
O980 La960 2.521 . S
O980 C962 1.261 1_554 S
O981 La960 2.628 . S
O981 C962 1.243 1_554 S
O982 La960 2.554 . S
O982 C969 1.240 . S
O983 La960 2.757 . S
O983 La961 2.482 . S
O983 C969 1.289 . S
O984 La960 2.470 . S
O984 C970 1.258 . S
O985 La961 2.503 . S
O985 C970 1.256 . S
O986 La961 2.521 . S
O986 C971 1.261 . S
O987 La961 2.628 . S
O987 C971 1.243 . S
O988 La961 2.554 . S
O988 C978 1.240 . S
O989 La960 2.482 . S
O989 La961 2.757 . S
O989 C978 1.289 . S
O990 La961 2.470 . S
O990 C979 1.258 . S
O991 La960 2.503 . S
O991 C979 1.256 . S
H992 C964 0.930 1_455 S
H993 C965 0.930 . S
H994 C967 0.929 . S
H995 C968 0.929 . S
H996 C973 0.930 . S
H997 C974 0.930 . S
H998 C976 0.929 . S
H999 C977 0.929 . S
La1000 C1002 2.928 1_554 S
La1000 O1020 2.521 . S
La1000 O1021 2.628 . S
La1000 O1022 2.554 . S
La1000 O1023 2.757 . S
La1000 O1024 2.470 . S
La1000 O1029 2.482 . S
La1000 O1031 2.503 . S
La1001 C1011 2.928 . S
La1001 O1023 2.482 . S
La1001 O1025 2.503 . S
La1001 O1026 2.521 . S
La1001 O1027 2.628 . S
La1001 O1028 2.554 . S
La1001 O1029 2.757 . S
La1001 O1030 2.470 . S
C1002 La1000 2.928 1_556 S
C1002 C1003 1.503 . S
C1002 O1020 1.261 1_556 S
C1002 O1021 1.243 1_556 S
C1003 C1002 1.503 . S
C1003 C1004 1.394 . S
C1003 C1008 1.373 . S
C1004 C1003 1.394 . S
C1004 C1005 1.380 . S
C1004 H1032 0.930 . S
C1005 C1004 1.380 . S
C1005 C1006 1.376 . S
C1005 H1033 0.930 . S
C1006 C1005 1.376 . S
C1006 C1007 1.370 . S
C1007 C1006 1.370 . S
C1007 C1008 1.396 . S
C1007 H1034 0.929 . S
C1008 C1003 1.373 . S
C1008 C1007 1.396 . S
C1008 H1035 0.929 . S
C1009 O1022 1.240 . S
C1009 O1023 1.289 . S
C1010 O1024 1.258 . S
C1010 O1025 1.256 . S
C1011 La1001 2.928 . S
C1011 C1012 1.503 . S
C1011 O1026 1.261 . S
C1011 O1027 1.243 . S
C1012 C1011 1.503 . S
C1012 C1013 1.394 . S
C1012 C1017 1.373 . S
C1013 C1012 1.394 . S
C1013 C1014 1.380 . S
C1013 H1036 0.930 . S
C1014 C1013 1.380 . S
C1014 C1015 1.376 . S
C1014 H1037 0.930 . S
C1015 C1014 1.376 . S
C1015 C1016 1.370 . S
C1016 C1015 1.370 . S
C1016 C1017 1.396 . S
C1016 H1038 0.929 . S
C1017 C1012 1.373 . S
C1017 C1016 1.396 . S
C1017 H1039 0.929 . S
C1018 O1028 1.240 . S
C1018 O1029 1.289 . S
C1019 O1030 1.258 . S
C1019 O1031 1.256 . S
O1020 La1000 2.521 . S
O1020 C1002 1.261 1_554 S
O1021 La1000 2.628 . S
O1021 C1002 1.243 1_554 S
O1022 La1000 2.554 . S
O1022 C1009 1.240 . S
O1023 La1000 2.757 . S
O1023 La1001 2.482 . S
O1023 C1009 1.289 . S
O1024 La1000 2.470 . S
O1024 C1010 1.258 . S
O1025 La1001 2.503 . S
O1025 C1010 1.256 . S
O1026 La1001 2.521 . S
O1026 C1011 1.261 . S
O1027 La1001 2.628 . S
O1027 C1011 1.243 . S
O1028 La1001 2.554 . S
O1028 C1018 1.240 . S
O1029 La1000 2.482 . S
O1029 La1001 2.757 . S
O1029 C1018 1.289 . S
O1030 La1001 2.470 . S
O1030 C1019 1.258 . S
O1031 La1000 2.503 . S
O1031 C1019 1.256 . S
H1032 C1004 0.930 . S
H1033 C1005 0.930 . S
H1034 C1007 0.929 . S
H1035 C1008 0.929 . S
H1036 C1013 0.930 . S
H1037 C1014 0.930 . S
H1038 C1016 0.929 . S
H1039 C1017 0.929 . S
La1040 C1042 2.928 . S
La1040 O1060 2.521 . S
La1040 O1061 2.628 . S
La1040 O1062 2.554 . S
La1040 O1063 2.757 . S
La1040 O1064 2.470 . S
La1040 O1069 2.482 . S
La1040 O1071 2.503 . S
La1041 C1051 2.928 . S
La1041 O1063 2.482 . S
La1041 O1065 2.503 . S
La1041 O1066 2.521 . S
La1041 O1067 2.628 . S
La1041 O1068 2.554 . S
La1041 O1069 2.757 . S
La1041 O1070 2.470 . S
C1042 La1040 2.928 . S
C1042 C1043 1.503 . S
C1042 O1060 1.261 . S
C1042 O1061 1.243 . S
C1043 C1042 1.503 . S
C1043 C1044 1.394 . S
C1043 C1048 1.373 . S
C1044 C1043 1.394 . S
C1044 C1045 1.380 1_655 S
C1044 H1072 0.930 1_655 S
C1045 C1044 1.380 1_455 S
C1045 C1046 1.376 1_455 S
C1045 H1073 0.930 . S
C1046 C1045 1.376 1_655 S
C1046 C1047 1.370 . S
C1047 C1046 1.370 . S
C1047 C1048 1.396 . S
C1047 H1074 0.929 . S
C1048 C1043 1.373 . S
C1048 C1047 1.396 . S
C1048 H1075 0.929 . S
C1049 O1062 1.240 . S
C1049 O1063 1.289 . S
C1050 O1064 1.258 . S
C1050 O1065 1.256 . S
C1051 La1041 2.928 . S
C1051 C1052 1.503 . S
C1051 O1066 1.261 . S
C1051 O1067 1.243 . S
C1052 C1051 1.503 . S
C1052 C1053 1.394 . S
C1052 C1057 1.373 . S
C1053 C1052 1.394 . S
C1053 C1054 1.380 . S
C1053 H1076 0.930 . S
C1054 C1053 1.380 . S
C1054 C1055 1.376 . S
C1054 H1077 0.930 . S
C1055 C1054 1.376 . S
C1055 C1056 1.370 . S
C1056 C1055 1.370 . S
C1056 C1057 1.396 . S
C1056 H1078 0.929 . S
C1057 C1052 1.373 . S
C1057 C1056 1.396 . S
C1057 H1079 0.929 . S
C1058 O1068 1.240 . S
C1058 O1069 1.289 . S
C1059 O1070 1.258 . S
C1059 O1071 1.256 . S
O1060 La1040 2.521 . S
O1060 C1042 1.261 . S
O1061 La1040 2.628 . S
O1061 C1042 1.243 . S
O1062 La1040 2.554 . S
O1062 C1049 1.240 . S
O1063 La1040 2.757 . S
O1063 La1041 2.482 . S
O1063 C1049 1.289 . S
O1064 La1040 2.470 . S
O1064 C1050 1.258 . S
O1065 La1041 2.503 . S
O1065 C1050 1.256 . S
O1066 La1041 2.521 . S
O1066 C1051 1.261 . S
O1067 La1041 2.628 . S
O1067 C1051 1.243 . S
O1068 La1041 2.554 . S
O1068 C1058 1.240 . S
O1069 La1040 2.482 . S
O1069 La1041 2.757 . S
O1069 C1058 1.289 . S
O1070 La1041 2.470 . S
O1070 C1059 1.258 . S
O1071 La1040 2.503 . S
O1071 C1059 1.256 . S
H1072 C1044 0.930 1_455 S
H1073 C1045 0.930 . S
H1074 C1047 0.929 . S
H1075 C1048 0.929 . S
H1076 C1053 0.930 . S
H1077 C1054 0.930 . S
H1078 C1056 0.929 . S
H1079 C1057 0.929 . S
La1080 C1082 2.928 . S
La1080 O1100 2.521 . S
La1080 O1101 2.628 . S
La1080 O1102 2.554 . S
La1080 O1103 2.757 . S
La1080 O1104 2.470 . S
La1080 O1109 2.482 . S
La1080 O1111 2.503 . S
La1081 C1091 2.928 . S
La1081 O1103 2.482 . S
La1081 O1105 2.503 . S
La1081 O1106 2.521 . S
La1081 O1107 2.628 . S
La1081 O1108 2.554 . S
La1081 O1109 2.757 . S
La1081 O1110 2.470 . S
C1082 La1080 2.928 . S
C1082 C1083 1.503 . S
C1082 O1100 1.261 . S
C1082 O1101 1.243 . S
C1083 C1082 1.503 . S
C1083 C1084 1.394 . S
C1083 C1088 1.373 . S
C1084 C1083 1.394 . S
C1084 C1085 1.380 . S
C1084 H1112 0.930 . S
C1085 C1084 1.380 . S
C1085 C1086 1.376 . S
C1085 H1113 0.930 . S
C1086 C1085 1.376 . S
C1086 C1087 1.370 . S
C1087 C1086 1.370 . S
C1087 C1088 1.396 . S
C1087 H1114 0.929 . S
C1088 C1083 1.373 . S
C1088 C1087 1.396 . S
C1088 H1115 0.929 . S
C1089 O1102 1.240 . S
C1089 O1103 1.289 . S
C1090 O1104 1.258 . S
C1090 O1105 1.256 . S
C1091 La1081 2.928 . S
C1091 C1092 1.503 . S
C1091 O1106 1.261 . S
C1091 O1107 1.243 . S
C1092 C1091 1.503 . S
C1092 C1093 1.394 . S
C1092 C1097 1.373 . S
C1093 C1092 1.394 . S
C1093 C1094 1.380 . S
C1093 H1116 0.930 . S
C1094 C1093 1.380 . S
C1094 C1095 1.376 . S
C1094 H1117 0.930 . S
C1095 C1094 1.376 . S
C1095 C1096 1.370 . S
C1096 C1095 1.370 . S
C1096 C1097 1.396 . S
C1096 H1118 0.929 . S
C1097 C1092 1.373 . S
C1097 C1096 1.396 . S
C1097 H1119 0.929 . S
C1098 O1108 1.240 . S
C1098 O1109 1.289 . S
C1099 O1110 1.258 . S
C1099 O1111 1.256 . S
O1100 La1080 2.521 . S
O1100 C1082 1.261 . S
O1101 La1080 2.628 . S
O1101 C1082 1.243 . S
O1102 La1080 2.554 . S
O1102 C1089 1.240 . S
O1103 La1080 2.757 . S
O1103 La1081 2.482 . S
O1103 C1089 1.289 . S
O1104 La1080 2.470 . S
O1104 C1090 1.258 . S
O1105 La1081 2.503 . S
O1105 C1090 1.256 . S
O1106 La1081 2.521 . S
O1106 C1091 1.261 . S
O1107 La1081 2.628 . S
O1107 C1091 1.243 . S
O1108 La1081 2.554 . S
O1108 C1098 1.240 . S
O1109 La1080 2.482 . S
O1109 La1081 2.757 . S
O1109 C1098 1.289 . S
O1110 La1081 2.470 . S
O1110 C1099 1.258 . S
O1111 La1080 2.503 . S
O1111 C1099 1.256 . S
H1112 C1084 0.930 . S
H1113 C1085 0.930 . S
H1114 C1087 0.929 . S
H1115 C1088 0.929 . S
H1116 C1093 0.930 . S
H1117 C1094 0.930 . S
H1118 C1096 0.929 . S
H1119 C1097 0.929 . S
La1120 C1122 2.928 . S
La1120 O1140 2.521 . S
La1120 O1141 2.628 . S
La1120 O1142 2.554 . S
La1120 O1143 2.757 . S
La1120 O1144 2.470 . S
La1120 O1149 2.482 . S
La1120 O1151 2.503 . S
La1121 C1131 2.928 1_556 S
La1121 O1143 2.482 . S
La1121 O1145 2.503 . S
La1121 O1146 2.521 . S
La1121 O1147 2.628 . S
La1121 O1148 2.554 . S
La1121 O1149 2.757 . S
La1121 O1150 2.470 . S
C1122 La1120 2.928 . S
C1122 C1123 1.503 . S
C1122 O1140 1.261 . S
C1122 O1141 1.243 . S
C1123 C1122 1.503 . S
C1123 C1124 1.394 . S
C1123 C1128 1.373 . S
C1124 C1123 1.394 . S
C1124 C1125 1.380 . S
C1124 H1152 0.930 . S
C1125 C1124 1.380 . S
C1125 C1126 1.376 . S
C1125 H1153 0.930 . S
C1126 C1125 1.376 . S
C1126 C1127 1.370 . S
C1127 C1126 1.370 . S
C1127 C1128 1.396 . S
C1127 H1154 0.929 . S
C1128 C1123 1.373 . S
C1128 C1127 1.396 . S
C1128 H1155 0.929 . S
C1129 O1142 1.240 . S
C1129 O1143 1.289 . S
C1130 O1144 1.258 . S
C1130 O1145 1.256 . S
C1131 La1121 2.928 1_554 S
C1131 C1132 1.503 . S
C1131 O1146 1.261 1_554 S
C1131 O1147 1.243 1_554 S
C1132 C1131 1.503 . S
C1132 C1133 1.394 . S
C1132 C1137 1.373 . S
C1133 C1132 1.394 . S
C1133 C1134 1.380 1_455 S
C1133 H1156 0.930 1_455 S
C1134 C1133 1.380 1_655 S
C1134 C1135 1.376 1_655 S
C1134 H1157 0.930 . S
C1135 C1134 1.376 1_455 S
C1135 C1136 1.370 . S
C1136 C1135 1.370 . S
C1136 C1137 1.396 . S
C1136 H1158 0.929 . S
C1137 C1132 1.373 . S
C1137 C1136 1.396 . S
C1137 H1159 0.929 . S
C1138 O1148 1.240 . S
C1138 O1149 1.289 . S
C1139 O1150 1.258 . S
C1139 O1151 1.256 . S
O1140 La1120 2.521 . S
O1140 C1122 1.261 . S
O1141 La1120 2.628 . S
O1141 C1122 1.243 . S
O1142 La1120 2.554 . S
O1142 C1129 1.240 . S
O1143 La1120 2.757 . S
O1143 La1121 2.482 . S
O1143 C1129 1.289 . S
O1144 La1120 2.470 . S
O1144 C1130 1.258 . S
O1145 La1121 2.503 . S
O1145 C1130 1.256 . S
O1146 La1121 2.521 . S
O1146 C1131 1.261 1_556 S
O1147 La1121 2.628 . S
O1147 C1131 1.243 1_556 S
O1148 La1121 2.554 . S
O1148 C1138 1.240 . S
O1149 La1120 2.482 . S
O1149 La1121 2.757 . S
O1149 C1138 1.289 . S
O1150 La1121 2.470 . S
O1150 C1139 1.258 . S
O1151 La1120 2.503 . S
O1151 C1139 1.256 . S
H1152 C1124 0.930 . S
H1153 C1125 0.930 . S
H1154 C1127 0.929 . S
H1155 C1128 0.929 . S
H1156 C1133 0.930 1_655 S
H1157 C1134 0.930 . S
H1158 C1136 0.929 . S
H1159 C1137 0.929 . S
La1160 C1162 2.928 . S
La1160 O1180 2.521 . S
La1160 O1181 2.628 . S
La1160 O1182 2.554 . S
La1160 O1183 2.757 . S
La1160 O1184 2.470 . S
La1160 O1189 2.482 . S
La1160 O1191 2.503 . S
La1161 C1171 2.928 1_556 S
La1161 O1183 2.482 . S
La1161 O1185 2.503 . S
La1161 O1186 2.521 . S
La1161 O1187 2.628 . S
La1161 O1188 2.554 . S
La1161 O1189 2.757 . S
La1161 O1190 2.470 . S
C1162 La1160 2.928 . S
C1162 C1163 1.503 . S
C1162 O1180 1.261 . S
C1162 O1181 1.243 . S
C1163 C1162 1.503 . S
C1163 C1164 1.394 . S
C1163 C1168 1.373 . S
C1164 C1163 1.394 . S
C1164 C1165 1.380 . S
C1164 H1192 0.930 . S
C1165 C1164 1.380 . S
C1165 C1166 1.376 . S
C1165 H1193 0.930 . S
C1166 C1165 1.376 . S
C1166 C1167 1.370 . S
C1167 C1166 1.370 . S
C1167 C1168 1.396 . S
C1167 H1194 0.929 . S
C1168 C1163 1.373 . S
C1168 C1167 1.396 . S
C1168 H1195 0.929 . S
C1169 O1182 1.240 . S
C1169 O1183 1.289 . S
C1170 O1184 1.258 . S
C1170 O1185 1.256 . S
C1171 La1161 2.928 1_554 S
C1171 C1172 1.503 . S
C1171 O1186 1.261 1_554 S
C1171 O1187 1.243 1_554 S
C1172 C1171 1.503 . S
C1172 C1173 1.394 . S
C1172 C1177 1.373 . S
C1173 C1172 1.394 . S
C1173 C1174 1.380 . S
C1173 H1196 0.930 . S
C1174 C1173 1.380 . S
C1174 C1175 1.376 . S
C1174 H1197 0.930 . S
C1175 C1174 1.376 . S
C1175 C1176 1.370 . S
C1176 C1175 1.370 . S
C1176 C1177 1.396 . S
C1176 H1198 0.929 . S
C1177 C1172 1.373 . S
C1177 C1176 1.396 . S
C1177 H1199 0.929 . S
C1178 O1188 1.240 . S
C1178 O1189 1.289 . S
C1179 O1190 1.258 . S
C1179 O1191 1.256 . S
O1180 La1160 2.521 . S
O1180 C1162 1.261 . S
O1181 La1160 2.628 . S
O1181 C1162 1.243 . S
O1182 La1160 2.554 . S
O1182 C1169 1.240 . S
O1183 La1160 2.757 . S
O1183 La1161 2.482 . S
O1183 C1169 1.289 . S
O1184 La1160 2.470 . S
O1184 C1170 1.258 . S
O1185 La1161 2.503 . S
O1185 C1170 1.256 . S
O1186 La1161 2.521 . S
O1186 C1171 1.261 1_556 S
O1187 La1161 2.628 . S
O1187 C1171 1.243 1_556 S
O1188 La1161 2.554 . S
O1188 C1178 1.240 . S
O1189 La1160 2.482 . S
O1189 La1161 2.757 . S
O1189 C1178 1.289 . S
O1190 La1161 2.470 . S
O1190 C1179 1.258 . S
O1191 La1160 2.503 . S
O1191 C1179 1.256 . S
H1192 C1164 0.930 . S
H1193 C1165 0.930 . S
H1194 C1167 0.929 . S
H1195 C1168 0.929 . S
H1196 C1173 0.930 . S
H1197 C1174 0.930 . S
H1198 C1176 0.929 . S
H1199 C1177 0.929 . S
La1200 C1202 2.928 . S
La1200 O1220 2.521 . S
La1200 O1221 2.628 . S
La1200 O1222 2.554 . S
La1200 O1223 2.757 . S
La1200 O1224 2.470 . S
La1200 O1229 2.482 . S
La1200 O1231 2.503 . S
La1201 C1211 2.928 . S
La1201 O1223 2.482 . S
La1201 O1225 2.503 . S
La1201 O1226 2.521 . S
La1201 O1227 2.628 . S
La1201 O1228 2.554 . S
La1201 O1229 2.757 . S
La1201 O1230 2.470 . S
C1202 La1200 2.928 . S
C1202 C1203 1.503 . S
C1202 O1220 1.261 . S
C1202 O1221 1.243 . S
C1203 C1202 1.503 . S
C1203 C1204 1.394 . S
C1203 C1208 1.373 . S
C1204 C1203 1.394 . S
C1204 C1205 1.380 . S
C1204 H1232 0.930 . S
C1205 C1204 1.380 . S
C1205 C1206 1.376 . S
C1205 H1233 0.930 . S
C1206 C1205 1.376 . S
C1206 C1207 1.370 . S
C1207 C1206 1.370 . S
C1207 C1208 1.396 . S
C1207 H1234 0.929 . S
C1208 C1203 1.373 . S
C1208 C1207 1.396 . S
C1208 H1235 0.929 . S
C1209 O1222 1.240 . S
C1209 O1223 1.289 . S
C1210 O1224 1.258 . S
C1210 O1225 1.256 . S
C1211 La1201 2.928 . S
C1211 C1212 1.503 . S
C1211 O1226 1.261 . S
C1211 O1227 1.243 . S
C1212 C1211 1.503 . S
C1212 C1213 1.394 . S
C1212 C1217 1.373 . S
C1213 C1212 1.394 . S
C1213 C1214 1.380 1_455 S
C1213 H1236 0.930 1_455 S
C1214 C1213 1.380 1_655 S
C1214 C1215 1.376 1_655 S
C1214 H1237 0.930 . S
C1215 C1214 1.376 1_455 S
C1215 C1216 1.370 . S
C1216 C1215 1.370 . S
C1216 C1217 1.396 . S
C1216 H1238 0.929 . S
C1217 C1212 1.373 . S
C1217 C1216 1.396 . S
C1217 H1239 0.929 . S
C1218 O1228 1.240 . S
C1218 O1229 1.289 . S
C1219 O1230 1.258 . S
C1219 O1231 1.256 . S
O1220 La1200 2.521 . S
O1220 C1202 1.261 . S
O1221 La1200 2.628 . S
O1221 C1202 1.243 . S
O1222 La1200 2.554 . S
O1222 C1209 1.240 . S
O1223 La1200 2.757 . S
O1223 La1201 2.482 . S
O1223 C1209 1.289 . S
O1224 La1200 2.470 . S
O1224 C1210 1.258 . S
O1225 La1201 2.503 . S
O1225 C1210 1.256 . S
O1226 La1201 2.521 . S
O1226 C1211 1.261 . S
O1227 La1201 2.628 . S
O1227 C1211 1.243 . S
O1228 La1201 2.554 . S
O1228 C1218 1.240 . S
O1229 La1200 2.482 . S
O1229 La1201 2.757 . S
O1229 C1218 1.289 . S
O1230 La1201 2.470 . S
O1230 C1219 1.258 . S
O1231 La1200 2.503 . S
O1231 C1219 1.256 . S
H1232 C1204 0.930 . S
H1233 C1205 0.930 . S
H1234 C1207 0.929 . S
H1235 C1208 0.929 . S
H1236 C1213 0.930 1_655 S
H1237 C1214 0.930 . S
H1238 C1216 0.929 . S
H1239 C1217 0.929 . S
La1240 C1242 2.928 . S
La1240 O1260 2.521 . S
La1240 O1261 2.628 . S
La1240 O1262 2.554 . S
La1240 O1263 2.757 . S
La1240 O1264 2.470 . S
La1240 O1269 2.482 . S
La1240 O1271 2.503 . S
La1241 C1251 2.928 . S
La1241 O1263 2.482 . S
La1241 O1265 2.503 . S
La1241 O1266 2.521 . S
La1241 O1267 2.628 . S
La1241 O1268 2.554 . S
La1241 O1269 2.757 . S
La1241 O1270 2.470 . S
C1242 La1240 2.928 . S
C1242 C1243 1.503 . S
C1242 O1260 1.261 . S
C1242 O1261 1.243 . S
C1243 C1242 1.503 . S
C1243 C1244 1.394 . S
C1243 C1248 1.373 . S
C1244 C1243 1.394 . S
C1244 C1245 1.380 . S
C1244 H1272 0.930 . S
C1245 C1244 1.380 . S
C1245 C1246 1.376 . S
C1245 H1273 0.930 . S
C1246 C1245 1.376 . S
C1246 C1247 1.370 . S
C1247 C1246 1.370 . S
C1247 C1248 1.396 . S
C1247 H1274 0.929 . S
C1248 C1243 1.373 . S
C1248 C1247 1.396 . S
C1248 H1275 0.929 . S
C1249 O1262 1.240 . S
C1249 O1263 1.289 . S
C1250 O1264 1.258 . S
C1250 O1265 1.256 . S
C1251 La1241 2.928 . S
C1251 C1252 1.503 . S
C1251 O1266 1.261 . S
C1251 O1267 1.243 . S
C1252 C1251 1.503 . S
C1252 C1253 1.394 . S
C1252 C1257 1.373 . S
C1253 C1252 1.394 . S
C1253 C1254 1.380 . S
C1253 H1276 0.930 . S
C1254 C1253 1.380 . S
C1254 C1255 1.376 . S
C1254 H1277 0.930 . S
C1255 C1254 1.376 . S
C1255 C1256 1.370 . S
C1256 C1255 1.370 . S
C1256 C1257 1.396 . S
C1256 H1278 0.929 . S
C1257 C1252 1.373 . S
C1257 C1256 1.396 . S
C1257 H1279 0.929 . S
C1258 O1268 1.240 . S
C1258 O1269 1.289 . S
C1259 O1270 1.258 . S
C1259 O1271 1.256 . S
O1260 La1240 2.521 . S
O1260 C1242 1.261 . S
O1261 La1240 2.628 . S
O1261 C1242 1.243 . S
O1262 La1240 2.554 . S
O1262 C1249 1.240 . S
O1263 La1240 2.757 . S
O1263 La1241 2.482 . S
O1263 C1249 1.289 . S
O1264 La1240 2.470 . S
O1264 C1250 1.258 . S
O1265 La1241 2.503 . S
O1265 C1250 1.256 . S
O1266 La1241 2.521 . S
O1266 C1251 1.261 . S
O1267 La1241 2.628 . S
O1267 C1251 1.243 . S
O1268 La1241 2.554 . S
O1268 C1258 1.240 . S
O1269 La1240 2.482 . S
O1269 La1241 2.757 . S
O1269 C1258 1.289 . S
O1270 La1241 2.470 . S
O1270 C1259 1.258 . S
O1271 La1240 2.503 . S
O1271 C1259 1.256 . S
H1272 C1244 0.930 . S
H1273 C1245 0.930 . S
H1274 C1247 0.929 . S
H1275 C1248 0.929 . S
H1276 C1253 0.930 . S
H1277 C1254 0.930 . S
H1278 C1256 0.929 . S
H1279 C1257 0.929 . S
C1280 C1281 1.387 . S
C1280 H1284 0.950 . S
C1280 C1289 1.390 . S
C1281 C1280 1.387 . S
C1281 C1283 1.387 . S
H1282 C1289 0.950 . S
C1283 C1281 1.387 . S
C1283 C1285 1.390 . S
C1283 H1287 0.950 . S
H1284 C1280 0.950 . S
C1285 C1283 1.390 . S
C1285 C1286 1.387 . S
C1285 H1288 0.950 . S
C1286 C1285 1.387 . S
C1286 C1289 1.387 . S
H1287 C1283 0.950 . S
H1288 C1285 0.950 . S
C1289 C1280 1.390 . S
C1289 H1282 0.950 . S
C1289 C1286 1.387 . S
C1290 C1291 1.387 . S
C1290 H1294 0.950 . S
C1290 C1299 1.390 . S
C1291 C1290 1.387 . S
C1291 C1293 1.387 . S
H1292 C1299 0.950 . S
C1293 C1291 1.387 . S
C1293 C1295 1.390 . S
C1293 H1297 0.950 . S
H1294 C1290 0.950 . S
C1295 C1293 1.390 . S
C1295 C1296 1.387 . S
C1295 H1298 0.950 . S
C1296 C1295 1.387 . S
C1296 C1299 1.387 . S
H1297 C1293 0.950 . S
H1298 C1295 0.950 . S
C1299 C1290 1.390 . S
C1299 H1292 0.950 . S
C1299 C1296 1.387 . S
C1300 C1301 1.387 . S
C1300 H1304 0.950 . S
C1300 C1309 1.390 . S
C1301 C1300 1.387 . S
C1301 C1303 1.387 . S
H1302 C1309 0.950 . S
C1303 C1301 1.387 . S
C1303 C1305 1.390 . S
C1303 H1307 0.950 . S
H1304 C1300 0.950 . S
C1305 C1303 1.390 . S
C1305 C1306 1.387 . S
C1305 H1308 0.950 . S
C1306 C1305 1.387 . S
C1306 C1309 1.387 . S
H1307 C1303 0.950 . S
H1308 C1305 0.950 . S
C1309 C1300 1.390 . S
C1309 H1302 0.950 . S
C1309 C1306 1.387 . S
C1310 C1311 1.387 . S
C1310 H1314 0.950 . S
C1310 C1319 1.390 . S
C1311 C1310 1.387 . S
C1311 C1313 1.387 . S
H1312 C1319 0.950 . S
C1313 C1311 1.387 . S
C1313 C1315 1.390 . S
C1313 H1317 0.950 . S
H1314 C1310 0.950 . S
C1315 C1313 1.390 . S
C1315 C1316 1.387 . S
C1315 H1318 0.950 . S
C1316 C1315 1.387 . S
C1316 C1319 1.387 . S
H1317 C1313 0.950 . S
H1318 C1315 0.950 . S
C1319 C1310 1.390 . S
C1319 H1312 0.950 . S
C1319 C1316 1.387 . S
C1320 C1321 1.387 . S
C1320 H1324 0.950 . S
C1320 C1329 1.390 . S
C1321 C1320 1.387 . S
C1321 C1323 1.387 . S
H1322 C1329 0.950 . S
C1323 C1321 1.387 . S
C1323 C1325 1.390 . S
C1323 H1327 0.950 . S
H1324 C1320 0.950 . S
C1325 C1323 1.390 . S
C1325 C1326 1.387 . S
C1325 H1328 0.950 . S
C1326 C1325 1.387 . S
C1326 C1329 1.387 . S
H1327 C1323 0.950 . S
H1328 C1325 0.950 . S
C1329 C1320 1.390 . S
C1329 H1322 0.950 . S
C1329 C1326 1.387 . S
C1330 C1331 1.387 . S
C1330 H1334 0.950 . S
C1330 C1339 1.390 . S
C1331 C1330 1.387 . S
C1331 C1333 1.387 . S
H1332 C1339 0.950 . S
C1333 C1331 1.387 . S
C1333 C1335 1.390 . S
C1333 H1337 0.950 . S
H1334 C1330 0.950 . S
C1335 C1333 1.390 . S
C1335 C1336 1.387 . S
C1335 H1338 0.950 . S
C1336 C1335 1.387 . S
C1336 C1339 1.387 . S
H1337 C1333 0.950 . S
H1338 C1335 0.950 . S
C1339 C1330 1.390 . S
C1339 H1332 0.950 . S
C1339 C1336 1.387 . S
C1340 C1341 1.387 . S
C1340 H1344 0.950 . S
C1340 C1349 1.390 . S
C1341 C1340 1.387 . S
C1341 C1343 1.387 . S
H1342 C1349 0.950 . S
C1343 C1341 1.387 . S
C1343 C1345 1.390 . S
C1343 H1347 0.950 . S
H1344 C1340 0.950 . S
C1345 C1343 1.390 . S
C1345 C1346 1.387 . S
C1345 H1348 0.950 . S
C1346 C1345 1.387 . S
C1346 C1349 1.387 . S
H1347 C1343 0.950 . S
H1348 C1345 0.950 . S
C1349 C1340 1.390 . S
C1349 H1342 0.950 . S
C1349 C1346 1.387 . S
C1350 C1351 1.387 . S
C1350 H1354 0.950 . S
C1350 C1359 1.390 . S
C1351 C1350 1.387 . S
C1351 C1353 1.387 . S
H1352 C1359 0.950 . S
C1353 C1351 1.387 . S
C1353 C1355 1.390 . S
C1353 H1357 0.950 . S
H1354 C1350 0.950 . S
C1355 C1353 1.390 . S
C1355 C1356 1.387 . S
C1355 H1358 0.950 . S
C1356 C1355 1.387 . S
C1356 C1359 1.387 . S
H1357 C1353 0.950 . S
H1358 C1355 0.950 . S
C1359 C1350 1.390 . S
C1359 H1352 0.950 . S
C1359 C1356 1.387 . S
C1360 C1361 1.387 . S
C1360 H1364 0.950 . S
C1360 C1369 1.390 . S
C1361 C1360 1.387 . S
C1361 C1363 1.387 . S
H1362 C1369 0.950 . S
C1363 C1361 1.387 . S
C1363 C1365 1.390 . S
C1363 H1367 0.950 . S
H1364 C1360 0.950 . S
C1365 C1363 1.390 . S
C1365 C1366 1.387 . S
C1365 H1368 0.950 . S
C1366 C1365 1.387 . S
C1366 C1369 1.387 . S
H1367 C1363 0.950 . S
H1368 C1365 0.950 . S
C1369 C1360 1.390 . S
C1369 H1362 0.950 . S
C1369 C1366 1.387 . S
C1370 C1371 1.387 . S
C1370 H1374 0.950 . S
C1370 C1379 1.390 . S
C1371 C1370 1.387 . S
C1371 C1373 1.387 . S
H1372 C1379 0.950 . S
C1373 C1371 1.387 . S
C1373 C1375 1.390 . S
C1373 H1377 0.950 . S
H1374 C1370 0.950 . S
C1375 C1373 1.390 . S
C1375 C1376 1.387 . S
C1375 H1378 0.950 . S
C1376 C1375 1.387 . S
C1376 C1379 1.387 . S
H1377 C1373 0.950 . S
H1378 C1375 0.950 . S
C1379 C1370 1.390 . S
C1379 H1372 0.950 . S
C1379 C1376 1.387 . S
C1380 C1381 1.387 . S
C1380 H1384 0.950 . S
C1380 C1389 1.390 . S
C1381 C1380 1.387 . S
C1381 C1383 1.387 . S
H1382 C1389 0.950 . S
C1383 C1381 1.387 . S
C1383 C1385 1.390 . S
C1383 H1387 0.950 . S
H1384 C1380 0.950 . S
C1385 C1383 1.390 . S
C1385 C1386 1.387 . S
C1385 H1388 0.950 . S
C1386 C1385 1.387 . S
C1386 C1389 1.387 . S
H1387 C1383 0.950 . S
H1388 C1385 0.950 . S
C1389 C1380 1.390 . S
C1389 H1382 0.950 . S
C1389 C1386 1.387 . S
C1390 C1391 1.387 . S
C1390 H1394 0.950 . S
C1390 C1399 1.390 . S
C1391 C1390 1.387 . S
C1391 C1393 1.387 . S
H1392 C1399 0.950 . S
C1393 C1391 1.387 . S
C1393 C1395 1.390 . S
C1393 H1397 0.950 . S
H1394 C1390 0.950 . S
C1395 C1393 1.390 . S
C1395 C1396 1.387 . S
C1395 H1398 0.950 . S
C1396 C1395 1.387 . S
C1396 C1399 1.387 . S
H1397 C1393 0.950 . S
H1398 C1395 0.950 . S
C1399 C1390 1.390 . S
C1399 H1392 0.950 . S
C1399 C1396 1.387 . S
C1400 C1401 1.387 . S
C1400 H1404 0.950 . S
C1400 C1409 1.390 . S
C1401 C1400 1.387 . S
C1401 C1403 1.387 . S
H1402 C1409 0.950 . S
C1403 C1401 1.387 . S
C1403 C1405 1.390 . S
C1403 H1407 0.950 . S
H1404 C1400 0.950 . S
C1405 C1403 1.390 . S
C1405 C1406 1.387 . S
C1405 H1408 0.950 . S
C1406 C1405 1.387 . S
C1406 C1409 1.387 . S
H1407 C1403 0.950 . S
H1408 C1405 0.950 . S
C1409 C1400 1.390 . S
C1409 H1402 0.950 . S
C1409 C1406 1.387 . S
C1410 C1411 1.387 . S
C1410 H1414 0.950 . S
C1410 C1419 1.390 . S
C1411 C1410 1.387 . S
C1411 C1413 1.387 . S
H1412 C1419 0.950 . S
C1413 C1411 1.387 . S
C1413 C1415 1.390 . S
C1413 H1417 0.950 . S
H1414 C1410 0.950 . S
C1415 C1413 1.390 . S
C1415 C1416 1.387 . S
C1415 H1418 0.950 . S
C1416 C1415 1.387 . S
C1416 C1419 1.387 . S
H1417 C1413 0.950 . S
H1418 C1415 0.950 . S
C1419 C1410 1.390 . S
C1419 H1412 0.950 . S
C1419 C1416 1.387 . S
C1420 C1421 1.387 . S
C1420 H1424 0.950 . S
C1420 C1429 1.390 . S
C1421 C1420 1.387 . S
C1421 C1423 1.387 . S
H1422 C1429 0.950 . S
C1423 C1421 1.387 . S
C1423 C1425 1.390 . S
C1423 H1427 0.950 . S
H1424 C1420 0.950 . S
C1425 C1423 1.390 . S
C1425 C1426 1.387 . S
C1425 H1428 0.950 . S
C1426 C1425 1.387 . S
C1426 C1429 1.387 . S
H1427 C1423 0.950 . S
H1428 C1425 0.950 . S
C1429 C1420 1.390 . S
C1429 H1422 0.950 . S
C1429 C1426 1.387 . S
C1430 C1431 1.387 . S
C1430 H1434 0.950 . S
C1430 C1439 1.390 . S
C1431 C1430 1.387 . S
C1431 C1433 1.387 . S
H1432 C1439 0.950 . S
C1433 C1431 1.387 . S
C1433 C1435 1.390 . S
C1433 H1437 0.950 . S
H1434 C1430 0.950 . S
C1435 C1433 1.390 . S
C1435 C1436 1.387 . S
C1435 H1438 0.950 . S
C1436 C1435 1.387 . S
C1436 C1439 1.387 . S
H1437 C1433 0.950 . S
H1438 C1435 0.950 . S
C1439 C1430 1.390 . S
C1439 H1432 0.950 . S
C1439 C1436 1.387 . S
C1440 C1441 1.387 1_545 S
C1440 H1444 0.950 . S
C1440 C1449 1.390 . S
C1441 C1440 1.387 1_565 S
C1441 C1443 1.387 . S
H1442 C1449 0.950 . S
C1443 C1441 1.387 . S
C1443 C1445 1.390 . S
C1443 H1447 0.950 . S
H1444 C1440 0.950 . S
C1445 C1443 1.390 . S
C1445 C1446 1.387 1_565 S
C1445 H1448 0.950 . S
C1446 C1445 1.387 1_545 S
C1446 C1449 1.387 . S
H1447 C1443 0.950 . S
H1448 C1445 0.950 . S
C1449 C1440 1.390 . S
C1449 H1442 0.950 . S
C1449 C1446 1.387 . S
C1450 C1451 1.387 . S
C1450 H1454 0.950 . S
C1450 C1459 1.390 . S
C1451 C1450 1.387 . S
C1451 C1453 1.387 1_455 S
H1452 C1459 0.950 . S
C1453 C1451 1.387 1_655 S
C1453 C1455 1.390 . S
C1453 H1457 0.950 . S
H1454 C1450 0.950 . S
C1455 C1453 1.390 . S
C1455 C1456 1.387 . S
C1455 H1458 0.950 . S
C1456 C1455 1.387 . S
C1456 C1459 1.387 1_655 S
H1457 C1453 0.950 . S
H1458 C1455 0.950 . S
C1459 C1450 1.390 . S
C1459 H1452 0.950 . S
C1459 C1456 1.387 1_455 S
C1460 C1461 1.387 1_554 S
C1460 H1464 0.950 . S
C1460 C1469 1.390 . S
C1461 C1460 1.387 1_556 S
C1461 C1463 1.387 . S
H1462 C1469 0.950 . S
C1463 C1461 1.387 . S
C1463 C1465 1.390 . S
C1463 H1467 0.950 . S
H1464 C1460 0.950 . S
C1465 C1463 1.390 . S
C1465 C1466 1.387 1_556 S
C1465 H1468 0.950 . S
C1466 C1465 1.387 1_554 S
C1466 C1469 1.387 . S
H1467 C1463 0.950 . S
H1468 C1465 0.950 . S
C1469 C1460 1.390 . S
C1469 H1462 0.950 . S
C1469 C1466 1.387 . S
C1470 C1471 1.387 1_545 S
C1470 H1474 0.950 . S
C1470 C1479 1.390 . S
C1471 C1470 1.387 1_565 S
C1471 C1473 1.387 1_654 S
H1472 C1479 0.950 . S
C1473 C1471 1.387 1_456 S
C1473 C1475 1.390 . S
C1473 H1477 0.950 . S
H1474 C1470 0.950 . S
C1475 C1473 1.390 . S
C1475 C1476 1.387 1_565 S
C1475 H1478 0.950 . S
C1476 C1475 1.387 1_545 S
C1476 C1479 1.387 1_456 S
H1477 C1473 0.950 . S
H1478 C1475 0.950 . S
C1479 C1470 1.390 . S
C1479 H1472 0.950 . S
C1479 C1476 1.387 1_654 S
C1480 C1481 1.387 . S
C1480 H1484 0.950 . S
C1480 C1489 1.390 . S
C1481 C1480 1.387 . S
C1481 C1483 1.387 1_545 S
H1482 C1489 0.950 . S
C1483 C1481 1.387 1_565 S
C1483 C1485 1.390 . S
C1483 H1487 0.950 . S
H1484 C1480 0.950 . S
C1485 C1483 1.390 . S
C1485 C1486 1.387 . S
C1485 H1488 0.950 . S
C1486 C1485 1.387 . S
C1486 C1489 1.387 1_565 S
H1487 C1483 0.950 . S
H1488 C1485 0.950 . S
C1489 C1480 1.390 . S
C1489 H1482 0.950 . S
C1489 C1486 1.387 1_545 S
C1490 C1491 1.387 . S
C1490 H1494 0.950 . S
C1490 C1499 1.390 1_455 S
C1491 C1490 1.387 . S
C1491 C1493 1.387 . S
H1492 C1499 0.950 . S
C1493 C1491 1.387 . S
C1493 C1495 1.390 1_455 S
C1493 H1497 0.950 . S
H1494 C1490 0.950 . S
C1495 C1493 1.390 1_655 S
C1495 C1496 1.387 . S
C1495 H1498 0.950 . S
C1496 C1495 1.387 . S
C1496 C1499 1.387 . S
H1497 C1493 0.950 . S
H1498 C1495 0.950 . S
C1499 C1490 1.390 1_655 S
C1499 H1492 0.950 . S
C1499 C1496 1.387 . S
C1500 C1501 1.387 . S
C1500 H1504 0.950 . S
C1500 C1509 1.390 . S
C1501 C1500 1.387 . S
C1501 C1503 1.387 1_556 S
H1502 C1509 0.950 . S
C1503 C1501 1.387 1_554 S
C1503 C1505 1.390 . S
C1503 H1507 0.950 . S
H1504 C1500 0.950 . S
C1505 C1503 1.390 . S
C1505 C1506 1.387 . S
C1505 H1508 0.950 . S
C1506 C1505 1.387 . S
C1506 C1509 1.387 1_554 S
H1507 C1503 0.950 . S
H1508 C1505 0.950 . S
C1509 C1500 1.390 . S
C1509 H1502 0.950 . S
C1509 C1506 1.387 1_556 S
C1510 C1511 1.387 . S
C1510 H1514 0.950 . S
C1510 C1519 1.390 . S
C1511 C1510 1.387 . S
C1511 C1513 1.387 . S
H1512 C1519 0.950 . S
C1513 C1511 1.387 . S
C1513 C1515 1.390 . S
C1513 H1517 0.950 . S
H1514 C1510 0.950 . S
C1515 C1513 1.390 . S
C1515 C1516 1.387 . S
C1515 H1518 0.950 . S
C1516 C1515 1.387 . S
C1516 C1519 1.387 . S
H1517 C1513 0.950 . S
H1518 C1515 0.950 . S
C1519 C1510 1.390 . S
C1519 H1512 0.950 . S
C1519 C1516 1.387 . S
C1520 C1521 1.387 . S
C1520 H1524 0.950 . S
C1520 C1529 1.390 . S
C1521 C1520 1.387 . S
C1521 C1523 1.387 . S
H1522 C1529 0.950 . S
C1523 C1521 1.387 . S
C1523 C1525 1.390 . S
C1523 H1527 0.950 . S
H1524 C1520 0.950 . S
C1525 C1523 1.390 . S
C1525 C1526 1.387 . S
C1525 H1528 0.950 . S
C1526 C1525 1.387 . S
C1526 C1529 1.387 . S
H1527 C1523 0.950 . S
H1528 C1525 0.950 . S
C1529 C1520 1.390 . S
C1529 H1522 0.950 . S
C1529 C1526 1.387 . S
C1530 C1531 1.387 . S
C1530 H1534 0.950 . S
C1530 C1539 1.390 1_455 S
C1531 C1530 1.387 . S
C1531 C1533 1.387 . S
H1532 C1539 0.950 . S
C1533 C1531 1.387 . S
C1533 C1535 1.390 1_455 S
C1533 H1537 0.950 . S
H1534 C1530 0.950 . S
C1535 C1533 1.390 1_655 S
C1535 C1536 1.387 . S
C1535 H1538 0.950 . S
C1536 C1535 1.387 . S
C1536 C1539 1.387 . S
H1537 C1533 0.950 . S
H1538 C1535 0.950 . S
C1539 C1530 1.390 1_655 S
C1539 H1532 0.950 . S
C1539 C1536 1.387 . S
C1540 C1541 1.387 . S
C1540 H1544 0.950 . S
C1540 C1549 1.390 . S
C1541 C1540 1.387 . S
C1541 C1543 1.387 . S
H1542 C1549 0.950 . S
C1543 C1541 1.387 . S
C1543 C1545 1.390 . S
C1543 H1547 0.950 . S
H1544 C1540 0.950 . S
C1545 C1543 1.390 . S
C1545 C1546 1.387 . S
C1545 H1548 0.950 . S
C1546 C1545 1.387 . S
C1546 C1549 1.387 . S
H1547 C1543 0.950 . S
H1548 C1545 0.950 . S
C1549 C1540 1.390 . S
C1549 H1542 0.950 . S
C1549 C1546 1.387 . S
C1550 C1551 1.387 . S
C1550 H1554 0.950 . S
C1550 C1559 1.390 . S
C1551 C1550 1.387 . S
C1551 C1553 1.387 . S
H1552 C1559 0.950 . S
C1553 C1551 1.387 . S
C1553 C1555 1.390 . S
C1553 H1557 0.950 . S
H1554 C1550 0.950 . S
C1555 C1553 1.390 . S
C1555 C1556 1.387 . S
C1555 H1558 0.950 . S
C1556 C1555 1.387 . S
C1556 C1559 1.387 . S
H1557 C1553 0.950 . S
H1558 C1555 0.950 . S
C1559 C1550 1.390 . S
C1559 H1552 0.950 . S
C1559 C1556 1.387 . S
C1560 C1561 1.387 . S
C1560 H1564 0.950 . S
C1560 C1569 1.390 . S
C1561 C1560 1.387 . S
C1561 C1563 1.387 . S
H1562 C1569 0.950 . S
C1563 C1561 1.387 . S
C1563 C1565 1.390 . S
C1563 H1567 0.950 . S
H1564 C1560 0.950 . S
C1565 C1563 1.390 . S
C1565 C1566 1.387 . S
C1565 H1568 0.950 . S
C1566 C1565 1.387 . S
C1566 C1569 1.387 . S
H1567 C1563 0.950 . S
H1568 C1565 0.950 . S
C1569 C1560 1.390 . S
C1569 H1562 0.950 . S
C1569 C1566 1.387 . S
C1570 C1571 1.387 1_545 S
C1570 H1574 0.950 . S
C1570 C1579 1.390 . S
C1571 C1570 1.387 1_565 S
C1571 C1573 1.387 . S
H1572 C1579 0.950 . S
C1573 C1571 1.387 . S
C1573 C1575 1.390 . S
C1573 H1577 0.950 . S
H1574 C1570 0.950 . S
C1575 C1573 1.390 . S
C1575 C1576 1.387 1_565 S
C1575 H1578 0.950 . S
C1576 C1575 1.387 1_545 S
C1576 C1579 1.387 . S
H1577 C1573 0.950 . S
H1578 C1575 0.950 . S
C1579 C1570 1.390 . S
C1579 H1572 0.950 . S
C1579 C1576 1.387 . S
C1580 C1581 1.387 . S
C1580 H1584 0.950 . S
C1580 C1589 1.390 . S
C1581 C1580 1.387 . S
C1581 C1583 1.387 . S
H1582 C1589 0.950 . S
C1583 C1581 1.387 . S
C1583 C1585 1.390 . S
C1583 H1587 0.950 . S
H1584 C1580 0.950 . S
C1585 C1583 1.390 . S
C1585 C1586 1.387 . S
C1585 H1588 0.950 . S
C1586 C1585 1.387 . S
C1586 C1589 1.387 . S
H1587 C1583 0.950 . S
H1588 C1585 0.950 . S
C1589 C1580 1.390 . S
C1589 H1582 0.950 . S
C1589 C1586 1.387 . S
C1590 C1591 1.387 . S
C1590 H1594 0.950 . S
C1590 C1599 1.390 . S
C1591 C1590 1.387 . S
C1591 C1593 1.387 1_554 S
H1592 C1599 0.950 . S
C1593 C1591 1.387 1_556 S
C1593 C1595 1.390 . S
C1593 H1597 0.950 . S
H1594 C1590 0.950 . S
C1595 C1593 1.390 . S
C1595 C1596 1.387 . S
C1595 H1598 0.950 . S
C1596 C1595 1.387 . S
C1596 C1599 1.387 1_556 S
H1597 C1593 0.950 . S
H1598 C1595 0.950 . S
C1599 C1590 1.390 . S
C1599 H1592 0.950 . S
C1599 C1596 1.387 1_554 S
C1600 C1601 1.387 . S
C1600 H1604 0.950 . S
C1600 C1609 1.390 . S
C1601 C1600 1.387 . S
C1601 C1603 1.387 1_545 S
H1602 C1609 0.950 . S
C1603 C1601 1.387 1_565 S
C1603 C1605 1.390 . S
C1603 H1607 0.950 . S
H1604 C1600 0.950 . S
C1605 C1603 1.390 . S
C1605 C1606 1.387 1_565 S
C1605 H1608 0.950 . S
C1606 C1605 1.387 1_545 S
C1606 C1609 1.387 . S
H1607 C1603 0.950 . S
H1608 C1605 0.950 . S
C1609 C1600 1.390 . S
C1609 H1602 0.950 . S
C1609 C1606 1.387 . S
C1610 C1611 1.387 . S
C1610 H1614 0.950 . S
C1610 C1619 1.390 . S
C1611 C1610 1.387 . S
C1611 C1613 1.387 . S
H1612 C1619 0.950 . S
C1613 C1611 1.387 . S
C1613 C1615 1.390 . S
C1613 H1617 0.950 . S
H1614 C1610 0.950 . S
C1615 C1613 1.390 . S
C1615 C1616 1.387 . S
C1615 H1618 0.950 . S
C1616 C1615 1.387 . S
C1616 C1619 1.387 . S
H1617 C1613 0.950 . S
H1618 C1615 0.950 . S
C1619 C1610 1.390 . S
C1619 H1612 0.950 . S
C1619 C1616 1.387 . S
C1620 C1621 1.387 . S
C1620 H1624 0.950 . S
C1620 C1629 1.390 . S
C1621 C1620 1.387 . S
C1621 C1623 1.387 . S
H1622 C1629 0.950 . S
C1623 C1621 1.387 . S
C1623 C1625 1.390 . S
C1623 H1627 0.950 . S
H1624 C1620 0.950 . S
C1625 C1623 1.390 . S
C1625 C1626 1.387 . S
C1625 H1628 0.950 . S
C1626 C1625 1.387 . S
C1626 C1629 1.387 . S
H1627 C1623 0.950 . S
H1628 C1625 0.950 . S
C1629 C1620 1.390 . S
C1629 H1622 0.950 . S
C1629 C1626 1.387 . S
C1630 C1631 1.387 1_565 S
C1630 H1634 0.950 . S
C1630 C1639 1.390 . S
C1631 C1630 1.387 1_545 S
C1631 C1633 1.387 . S
H1632 C1639 0.950 . S
C1633 C1631 1.387 . S
C1633 C1635 1.390 . S
C1633 H1637 0.950 . S
H1634 C1630 0.950 . S
C1635 C1633 1.390 . S
C1635 C1636 1.387 . S
C1635 H1638 0.950 . S
C1636 C1635 1.387 . S
C1636 C1639 1.387 1_545 S
H1637 C1633 0.950 . S
H1638 C1635 0.950 . S
C1639 C1630 1.390 . S
C1639 H1632 0.950 . S
C1639 C1636 1.387 1_565 S
C1640 C1641 1.387 1_545 S
C1640 H1644 0.950 . S
C1640 C1649 1.390 . S
C1641 C1640 1.387 1_565 S
C1641 C1643 1.387 . S
H1642 C1649 0.950 . S
C1643 C1641 1.387 . S
C1643 C1645 1.390 . S
C1643 H1647 0.950 . S
H1644 C1640 0.950 . S
C1645 C1643 1.390 . S
C1645 C1646 1.387 . S
C1645 H1648 0.950 . S
C1646 C1645 1.387 . S
C1646 C1649 1.387 1_565 S
H1647 C1643 0.950 . S
H1648 C1645 0.950 . S
C1649 C1640 1.390 . S
C1649 H1642 0.950 . S
C1649 C1646 1.387 1_545 S
C1650 C1651 1.387 . S
C1650 H1654 0.950 . S
C1650 C1659 1.390 . S
C1651 C1650 1.387 . S
C1651 C1653 1.387 . S
H1652 C1659 0.950 . S
C1653 C1651 1.387 . S
C1653 C1655 1.390 . S
C1653 H1657 0.950 . S
H1654 C1650 0.950 . S
C1655 C1653 1.390 . S
C1655 C1656 1.387 . S
C1655 H1658 0.950 . S
C1656 C1655 1.387 . S
C1656 C1659 1.387 . S
H1657 C1653 0.950 . S
H1658 C1655 0.950 . S
C1659 C1650 1.390 . S
C1659 H1652 0.950 . S
C1659 C1656 1.387 . S
C1660 C1661 1.387 . S
C1660 H1664 0.950 . S
C1660 C1669 1.390 . S
C1661 C1660 1.387 . S
C1661 C1663 1.387 . S
H1662 C1669 0.950 . S
C1663 C1661 1.387 . S
C1663 C1665 1.390 . S
C1663 H1667 0.950 . S
H1664 C1660 0.950 . S
C1665 C1663 1.390 . S
C1665 C1666 1.387 . S
C1665 H1668 0.950 . S
C1666 C1665 1.387 . S
C1666 C1669 1.387 . S
H1667 C1663 0.950 . S
H1668 C1665 0.950 . S
C1669 C1660 1.390 . S
C1669 H1662 0.950 . S
C1669 C1666 1.387 . S
C1670 C1671 1.387 . S
C1670 H1674 0.950 . S
C1670 C1679 1.390 . S
C1671 C1670 1.387 . S
C1671 C1673 1.387 1_565 S
H1672 C1679 0.950 . S
C1673 C1671 1.387 1_545 S
C1673 C1675 1.390 . S
C1673 H1677 0.950 . S
H1674 C1670 0.950 . S
C1675 C1673 1.390 . S
C1675 C1676 1.387 1_545 S
C1675 H1678 0.950 . S
C1676 C1675 1.387 1_565 S
C1676 C1679 1.387 . S
H1677 C1673 0.950 . S
H1678 C1675 0.950 . S
C1679 C1670 1.390 . S
C1679 H1672 0.950 . S
C1679 C1676 1.387 . S
C1680 C1681 1.387 . S
C1680 H1684 0.950 . S
C1680 C1689 1.390 . S
C1681 C1680 1.387 . S
C1681 C1683 1.387 . S
H1682 C1689 0.950 . S
C1683 C1681 1.387 . S
C1683 C1685 1.390 . S
C1683 H1687 0.950 . S
H1684 C1680 0.950 . S
C1685 C1683 1.390 . S
C1685 C1686 1.387 . S
C1685 H1688 0.950 . S
C1686 C1685 1.387 . S
C1686 C1689 1.387 . S
H1687 C1683 0.950 . S
H1688 C1685 0.950 . S
C1689 C1680 1.390 . S
C1689 H1682 0.950 . S
C1689 C1686 1.387 . S
C1690 C1691 1.387 . S
C1690 H1694 0.950 . S
C1690 C1699 1.390 . S
C1691 C1690 1.387 . S
C1691 C1693 1.387 . S
H1692 C1699 0.950 . S
C1693 C1691 1.387 . S
C1693 C1695 1.390 . S
C1693 H1697 0.950 . S
H1694 C1690 0.950 . S
C1695 C1693 1.390 . S
C1695 C1696 1.387 . S
C1695 H1698 0.950 . S
C1696 C1695 1.387 . S
C1696 C1699 1.387 . S
H1697 C1693 0.950 . S
H1698 C1695 0.950 . S
C1699 C1690 1.390 . S
C1699 H1692 0.950 . S
C1699 C1696 1.387 . S
C1700 C1701 1.387 . S
C1700 H1704 0.950 . S
C1700 C1709 1.390 . S
C1701 C1700 1.387 . S
C1701 C1703 1.387 . S
H1702 C1709 0.950 . S
C1703 C1701 1.387 . S
C1703 C1705 1.390 . S
C1703 H1707 0.950 . S
H1704 C1700 0.950 . S
C1705 C1703 1.390 . S
C1705 C1706 1.387 . S
C1705 H1708 0.950 . S
C1706 C1705 1.387 . S
C1706 C1709 1.387 . S
H1707 C1703 0.950 . S
H1708 C1705 0.950 . S
C1709 C1700 1.390 . S
C1709 H1702 0.950 . S
C1709 C1706 1.387 . S
C1710 C1711 1.387 . S
C1710 H1714 0.950 . S
C1710 C1719 1.390 . S
C1711 C1710 1.387 . S
C1711 C1713 1.387 . S
H1712 C1719 0.950 . S
C1713 C1711 1.387 . S
C1713 C1715 1.390 . S
C1713 H1717 0.950 . S
H1714 C1710 0.950 . S
C1715 C1713 1.390 . S
C1715 C1716 1.387 . S
C1715 H1718 0.950 . S
C1716 C1715 1.387 . S
C1716 C1719 1.387 . S
H1717 C1713 0.950 . S
H1718 C1715 0.950 . S
C1719 C1710 1.390 . S
C1719 H1712 0.950 . S
C1719 C1716 1.387 . S
C1720 C1721 1.387 . S
C1720 H1724 0.950 . S
C1720 C1729 1.390 . S
C1721 C1720 1.387 . S
C1721 C1723 1.387 . S
H1722 C1729 0.950 . S
C1723 C1721 1.387 . S
C1723 C1725 1.390 . S
C1723 H1727 0.950 . S
H1724 C1720 0.950 . S
C1725 C1723 1.390 . S
C1725 C1726 1.387 . S
C1725 H1728 0.950 . S
C1726 C1725 1.387 . S
C1726 C1729 1.387 . S
H1727 C1723 0.950 . S
H1728 C1725 0.950 . S
C1729 C1720 1.390 . S
C1729 H1722 0.950 . S
C1729 C1726 1.387 . S
C1730 C1731 1.387 . S
C1730 H1734 0.950 . S
C1730 C1739 1.390 . S
C1731 C1730 1.387 . S
C1731 C1733 1.387 . S
H1732 C1739 0.950 . S
C1733 C1731 1.387 . S
C1733 C1735 1.390 . S
C1733 H1737 0.950 . S
H1734 C1730 0.950 . S
C1735 C1733 1.390 . S
C1735 C1736 1.387 . S
C1735 H1738 0.950 . S
C1736 C1735 1.387 . S
C1736 C1739 1.387 . S
H1737 C1733 0.950 . S
H1738 C1735 0.950 . S
C1739 C1730 1.390 . S
C1739 H1732 0.950 . S
C1739 C1736 1.387 . S
C1740 C1741 1.387 . S
C1740 H1744 0.950 . S
C1740 C1749 1.390 . S
C1741 C1740 1.387 . S
C1741 C1743 1.387 . S
H1742 C1749 0.950 . S
C1743 C1741 1.387 . S
C1743 C1745 1.390 . S
C1743 H1747 0.950 . S
H1744 C1740 0.950 . S
C1745 C1743 1.390 . S
C1745 C1746 1.387 . S
C1745 H1748 0.950 . S
C1746 C1745 1.387 . S
C1746 C1749 1.387 . S
H1747 C1743 0.950 . S
H1748 C1745 0.950 . S
C1749 C1740 1.390 . S
C1749 H1742 0.950 . S
C1749 C1746 1.387 . S
C1750 C1751 1.387 . S
C1750 H1754 0.950 . S
C1750 C1759 1.390 . S
C1751 C1750 1.387 . S
C1751 C1753 1.387 . S
H1752 C1759 0.950 . S
C1753 C1751 1.387 . S
C1753 C1755 1.390 . S
C1753 H1757 0.950 . S
H1754 C1750 0.950 . S
C1755 C1753 1.390 . S
C1755 C1756 1.387 . S
C1755 H1758 0.950 . S
C1756 C1755 1.387 . S
C1756 C1759 1.387 . S
H1757 C1753 0.950 . S
H1758 C1755 0.950 . S
C1759 C1750 1.390 . S
C1759 H1752 0.950 . S
C1759 C1756 1.387 . S
C1760 C1761 1.387 . S
C1760 H1764 0.950 . S
C1760 C1769 1.390 . S
C1761 C1760 1.387 . S
C1761 C1763 1.387 . S
H1762 C1769 0.950 . S
C1763 C1761 1.387 . S
C1763 C1765 1.390 . S
C1763 H1767 0.950 . S
H1764 C1760 0.950 . S
C1765 C1763 1.390 . S
C1765 C1766 1.387 . S
C1765 H1768 0.950 . S
C1766 C1765 1.387 . S
C1766 C1769 1.387 . S
H1767 C1763 0.950 . S
H1768 C1765 0.950 . S
C1769 C1760 1.390 . S
C1769 H1762 0.950 . S
C1769 C1766 1.387 . S
C1770 C1771 1.387 . S
C1770 H1774 0.950 . S
C1770 C1779 1.390 . S
C1771 C1770 1.387 . S
C1771 C1773 1.387 . S
H1772 C1779 0.950 . S
C1773 C1771 1.387 . S
C1773 C1775 1.390 . S
C1773 H1777 0.950 . S
H1774 C1770 0.950 . S
C1775 C1773 1.390 . S
C1775 C1776 1.387 . S
C1775 H1778 0.950 . S
C1776 C1775 1.387 . S
C1776 C1779 1.387 . S
H1777 C1773 0.950 . S
H1778 C1775 0.950 . S
C1779 C1770 1.390 . S
C1779 H1772 0.950 . S
C1779 C1776 1.387 . S
C1780 C1781 1.387 . S
C1780 H1784 0.950 . S
C1780 C1789 1.390 . S
C1781 C1780 1.387 . S
C1781 C1783 1.387 . S
H1782 C1789 0.950 . S
C1783 C1781 1.387 . S
C1783 C1785 1.390 . S
C1783 H1787 0.950 . S
H1784 C1780 0.950 . S
C1785 C1783 1.390 . S
C1785 C1786 1.387 . S
C1785 H1788 0.950 . S
C1786 C1785 1.387 . S
C1786 C1789 1.387 . S
H1787 C1783 0.950 . S
H1788 C1785 0.950 . S
C1789 C1780 1.390 . S
C1789 H1782 0.950 . S
C1789 C1786 1.387 . S
C1790 C1791 1.387 . S
C1790 H1794 0.950 . S
C1790 C1799 1.390 . S
C1791 C1790 1.387 . S
C1791 C1793 1.387 . S
H1792 C1799 0.950 . S
C1793 C1791 1.387 . S
C1793 C1795 1.390 . S
C1793 H1797 0.950 . S
H1794 C1790 0.950 . S
C1795 C1793 1.390 . S
C1795 C1796 1.387 . S
C1795 H1798 0.950 . S
C1796 C1795 1.387 . S
C1796 C1799 1.387 . S
H1797 C1793 0.950 . S
H1798 C1795 0.950 . S
C1799 C1790 1.390 . S
C1799 H1792 0.950 . S
C1799 C1796 1.387 . S
C1800 C1801 1.387 . S
C1800 H1804 0.950 . S
C1800 C1809 1.390 . S
C1801 C1800 1.387 . S
C1801 C1803 1.387 . S
H1802 C1809 0.950 . S
C1803 C1801 1.387 . S
C1803 C1805 1.390 . S
C1803 H1807 0.950 . S
H1804 C1800 0.950 . S
C1805 C1803 1.390 . S
C1805 C1806 1.387 . S
C1805 H1808 0.950 . S
C1806 C1805 1.387 . S
C1806 C1809 1.387 . S
H1807 C1803 0.950 . S
H1808 C1805 0.950 . S
C1809 C1800 1.390 . S
C1809 H1802 0.950 . S
C1809 C1806 1.387 . S
C1810 C1811 1.387 . S
C1810 H1814 0.950 . S
C1810 C1819 1.390 . S
C1811 C1810 1.387 . S
C1811 C1813 1.387 . S
H1812 C1819 0.950 . S
C1813 C1811 1.387 . S
C1813 C1815 1.390 . S
C1813 H1817 0.950 . S
H1814 C1810 0.950 . S
C1815 C1813 1.390 . S
C1815 C1816 1.387 . S
C1815 H1818 0.950 . S
C1816 C1815 1.387 . S
C1816 C1819 1.387 . S
H1817 C1813 0.950 . S
H1818 C1815 0.950 . S
C1819 C1810 1.390 . S
C1819 H1812 0.950 . S
C1819 C1816 1.387 . S
C1820 C1821 1.387 . S
C1820 H1824 0.950 . S
C1820 C1829 1.390 . S
C1821 C1820 1.387 . S
C1821 C1823 1.387 . S
H1822 C1829 0.950 . S
C1823 C1821 1.387 . S
C1823 C1825 1.390 . S
C1823 H1827 0.950 . S
H1824 C1820 0.950 . S
C1825 C1823 1.390 . S
C1825 C1826 1.387 . S
C1825 H1828 0.950 . S
C1826 C1825 1.387 . S
C1826 C1829 1.387 . S
H1827 C1823 0.950 . S
H1828 C1825 0.950 . S
C1829 C1820 1.390 . S
C1829 H1822 0.950 . S
C1829 C1826 1.387 . S
C1830 C1831 1.387 . S
C1830 H1834 0.950 . S
C1830 C1839 1.390 . S
C1831 C1830 1.387 . S
C1831 C1833 1.387 . S
H1832 C1839 0.950 . S
C1833 C1831 1.387 . S
C1833 C1835 1.390 . S
C1833 H1837 0.950 . S
H1834 C1830 0.950 . S
C1835 C1833 1.390 . S
C1835 C1836 1.387 . S
C1835 H1838 0.950 . S
C1836 C1835 1.387 . S
C1836 C1839 1.387 . S
H1837 C1833 0.950 . S
H1838 C1835 0.950 . S
C1839 C1830 1.390 . S
C1839 H1832 0.950 . S
C1839 C1836 1.387 . S
C1840 C1841 1.387 . S
C1840 H1844 0.950 . S
C1840 C1849 1.390 . S
C1841 C1840 1.387 . S
C1841 C1843 1.387 . S
H1842 C1849 0.950 . S
C1843 C1841 1.387 . S
C1843 C1845 1.390 . S
C1843 H1847 0.950 . S
H1844 C1840 0.950 . S
C1845 C1843 1.390 . S
C1845 C1846 1.387 . S
C1845 H1848 0.950 . S
C1846 C1845 1.387 . S
C1846 C1849 1.387 . S
H1847 C1843 0.950 . S
H1848 C1845 0.950 . S
C1849 C1840 1.390 . S
C1849 H1842 0.950 . S
C1849 C1846 1.387 . S
C1850 C1851 1.387 . S
C1850 H1854 0.950 . S
C1850 C1859 1.390 . S
C1851 C1850 1.387 . S
C1851 C1853 1.387 . S
H1852 C1859 0.950 . S
C1853 C1851 1.387 . S
C1853 C1855 1.390 . S
C1853 H1857 0.950 . S
H1854 C1850 0.950 . S
C1855 C1853 1.390 . S
C1855 C1856 1.387 . S
C1855 H1858 0.950 . S
C1856 C1855 1.387 . S
C1856 C1859 1.387 . S
H1857 C1853 0.950 . S
H1858 C1855 0.950 . S
C1859 C1850 1.390 . S
C1859 H1852 0.950 . S
C1859 C1856 1.387 . S
C1860 C1861 1.387 . S
C1860 H1864 0.950 . S
C1860 C1869 1.390 . S
C1861 C1860 1.387 . S
C1861 C1863 1.387 . S
H1862 C1869 0.950 . S
C1863 C1861 1.387 . S
C1863 C1865 1.390 . S
C1863 H1867 0.950 . S
H1864 C1860 0.950 . S
C1865 C1863 1.390 . S
C1865 C1866 1.387 . S
C1865 H1868 0.950 . S
C1866 C1865 1.387 . S
C1866 C1869 1.387 . S
H1867 C1863 0.950 . S
H1868 C1865 0.950 . S
C1869 C1860 1.390 . S
C1869 H1862 0.950 . S
C1869 C1866 1.387 . S
C1870 C1871 1.387 . S
C1870 H1874 0.950 . S
C1870 C1879 1.390 . S
C1871 C1870 1.387 . S
C1871 C1873 1.387 . S
H1872 C1879 0.950 . S
C1873 C1871 1.387 . S
C1873 C1875 1.390 . S
C1873 H1877 0.950 . S
H1874 C1870 0.950 . S
C1875 C1873 1.390 . S
C1875 C1876 1.387 . S
C1875 H1878 0.950 . S
C1876 C1875 1.387 . S
C1876 C1879 1.387 . S
H1877 C1873 0.950 . S
H1878 C1875 0.950 . S
C1879 C1870 1.390 . S
C1879 H1872 0.950 . S
C1879 C1876 1.387 . S
C1880 C1881 1.387 . S
C1880 H1884 0.950 . S
C1880 C1889 1.390 . S
C1881 C1880 1.387 . S
C1881 C1883 1.387 . S
H1882 C1889 0.950 . S
C1883 C1881 1.387 . S
C1883 C1885 1.390 . S
C1883 H1887 0.950 . S
H1884 C1880 0.950 . S
C1885 C1883 1.390 . S
C1885 C1886 1.387 . S
C1885 H1888 0.950 . S
C1886 C1885 1.387 . S
C1886 C1889 1.387 . S
H1887 C1883 0.950 . S
H1888 C1885 0.950 . S
C1889 C1880 1.390 . S
C1889 H1882 0.950 . S
C1889 C1886 1.387 . S
C1890 C1891 1.387 . S
C1890 H1894 0.950 . S
C1890 C1899 1.390 . S
C1891 C1890 1.387 . S
C1891 C1893 1.387 . S
H1892 C1899 0.950 . S
C1893 C1891 1.387 . S
C1893 C1895 1.390 . S
C1893 H1897 0.950 . S
H1894 C1890 0.950 . S
C1895 C1893 1.390 . S
C1895 C1896 1.387 . S
C1895 H1898 0.950 . S
C1896 C1895 1.387 . S
C1896 C1899 1.387 . S
H1897 C1893 0.950 . S
H1898 C1895 0.950 . S
C1899 C1890 1.390 . S
C1899 H1892 0.950 . S
C1899 C1896 1.387 . S
C1900 C1901 1.387 . S
C1900 H1904 0.950 . S
C1900 C1909 1.390 . S
C1901 C1900 1.387 . S
C1901 C1903 1.387 . S
H1902 C1909 0.950 . S
C1903 C1901 1.387 . S
C1903 C1905 1.390 . S
C1903 H1907 0.950 . S
H1904 C1900 0.950 . S
C1905 C1903 1.390 . S
C1905 C1906 1.387 . S
C1905 H1908 0.950 . S
C1906 C1905 1.387 . S
C1906 C1909 1.387 . S
H1907 C1903 0.950 . S
H1908 C1905 0.950 . S
C1909 C1900 1.390 . S
C1909 H1902 0.950 . S
C1909 C1906 1.387 . S
C1910 C1911 1.387 . S
C1910 H1914 0.950 . S
C1910 C1919 1.390 . S
C1911 C1910 1.387 . S
C1911 C1913 1.387 . S
H1912 C1919 0.950 . S
C1913 C1911 1.387 . S
C1913 C1915 1.390 . S
C1913 H1917 0.950 . S
H1914 C1910 0.950 . S
C1915 C1913 1.390 . S
C1915 C1916 1.387 . S
C1915 H1918 0.950 . S
C1916 C1915 1.387 . S
C1916 C1919 1.387 . S
H1917 C1913 0.950 . S
H1918 C1915 0.950 . S
C1919 C1910 1.390 . S
C1919 H1912 0.950 . S
C1919 C1916 1.387 . S
C1920 C1921 1.387 1_565 S
C1920 H1924 0.950 . S
C1920 C1929 1.390 . S
C1921 C1920 1.387 1_545 S
C1921 C1923 1.387 . S
H1922 C1929 0.950 . S
C1923 C1921 1.387 . S
C1923 C1925 1.390 . S
C1923 H1927 0.950 . S
H1924 C1920 0.950 . S
C1925 C1923 1.390 . S
C1925 C1926 1.387 . S
C1925 H1928 0.950 . S
C1926 C1925 1.387 . S
C1926 C1929 1.387 1_545 S
H1927 C1923 0.950 . S
H1928 C1925 0.950 . S
C1929 C1920 1.390 . S
C1929 H1922 0.950 . S
C1929 C1926 1.387 1_565 S
C1930 C1931 1.387 . S
C1930 H1934 0.950 . S
C1930 C1939 1.390 1_455 S
C1931 C1930 1.387 . S
C1931 C1933 1.387 . S
H1932 C1939 0.950 . S
C1933 C1931 1.387 . S
C1933 C1935 1.390 1_455 S
C1933 H1937 0.950 . S
H1934 C1930 0.950 . S
C1935 C1933 1.390 1_655 S
C1935 C1936 1.387 . S
C1935 H1938 0.950 . S
C1936 C1935 1.387 . S
C1936 C1939 1.387 . S
H1937 C1933 0.950 . S
H1938 C1935 0.950 . S
C1939 C1930 1.390 1_655 S
C1939 H1932 0.950 . S
C1939 C1936 1.387 . S
C1940 C1941 1.387 . S
C1940 H1944 0.950 . S
C1940 C1949 1.390 . S
C1941 C1940 1.387 . S
C1941 C1943 1.387 . S
H1942 C1949 0.950 . S
C1943 C1941 1.387 . S
C1943 C1945 1.390 . S
C1943 H1947 0.950 . S
H1944 C1940 0.950 . S
C1945 C1943 1.390 . S
C1945 C1946 1.387 . S
C1945 H1948 0.950 . S
C1946 C1945 1.387 . S
C1946 C1949 1.387 . S
H1947 C1943 0.950 . S
H1948 C1945 0.950 . S
C1949 C1940 1.390 . S
C1949 H1942 0.950 . S
C1949 C1946 1.387 . S
C1950 C1951 1.387 1_565 S
C1950 H1954 0.950 . S
C1950 C1959 1.390 1_655 S
C1951 C1950 1.387 1_545 S
C1951 C1953 1.387 . S
H1952 C1959 0.950 . S
C1953 C1951 1.387 . S
C1953 C1955 1.390 1_655 S
C1953 H1957 0.950 . S
H1954 C1950 0.950 . S
C1955 C1953 1.390 1_455 S
C1955 C1956 1.387 . S
C1955 H1958 0.950 . S
C1956 C1955 1.387 . S
C1956 C1959 1.387 1_545 S
H1957 C1953 0.950 . S
H1958 C1955 0.950 . S
C1959 C1950 1.390 1_455 S
C1959 H1952 0.950 . S
C1959 C1956 1.387 1_565 S
C1960 C1961 1.387 . S
C1960 H1964 0.950 . S
C1960 C1969 1.390 . S
C1961 C1960 1.387 . S
C1961 C1963 1.387 1_565 S
H1962 C1969 0.950 . S
C1963 C1961 1.387 1_545 S
C1963 C1965 1.390 . S
C1963 H1967 0.950 . S
H1964 C1960 0.950 . S
C1965 C1963 1.390 . S
C1965 C1966 1.387 1_545 S
C1965 H1968 0.950 . S
C1966 C1965 1.387 1_565 S
C1966 C1969 1.387 . S
H1967 C1963 0.950 . S
H1968 C1965 0.950 . S
C1969 C1960 1.390 . S
C1969 H1962 0.950 . S
C1969 C1966 1.387 . S
C1970 C1971 1.387 . S
C1970 H1974 0.950 . S
C1970 C1979 1.390 1_455 S
C1971 C1970 1.387 . S
C1971 C1973 1.387 . S
H1972 C1979 0.950 . S
C1973 C1971 1.387 . S
C1973 C1975 1.390 1_455 S
C1973 H1977 0.950 . S
H1974 C1970 0.950 . S
C1975 C1973 1.390 1_655 S
C1975 C1976 1.387 . S
C1975 H1978 0.950 . S
C1976 C1975 1.387 . S
C1976 C1979 1.387 . S
H1977 C1973 0.950 . S
H1978 C1975 0.950 . S
C1979 C1970 1.390 1_655 S
C1979 H1972 0.950 . S
C1979 C1976 1.387 . S
C1980 C1981 1.387 . S
C1980 H1984 0.950 . S
C1980 C1989 1.390 . S
C1981 C1980 1.387 . S
C1981 C1983 1.387 . S
H1982 C1989 0.950 . S
C1983 C1981 1.387 . S
C1983 C1985 1.390 . S
C1983 H1987 0.950 . S
H1984 C1980 0.950 . S
C1985 C1983 1.390 . S
C1985 C1986 1.387 . S
C1985 H1988 0.950 . S
C1986 C1985 1.387 . S
C1986 C1989 1.387 . S
H1987 C1983 0.950 . S
H1988 C1985 0.950 . S
C1989 C1980 1.390 . S
C1989 H1982 0.950 . S
C1989 C1986 1.387 . S
C1990 C1991 1.387 1_545 S
C1990 H1994 0.950 . S
C1990 C1999 1.390 1_655 S
C1991 C1990 1.387 1_565 S
C1991 C1993 1.387 . S
H1992 C1999 0.950 . S
C1993 C1991 1.387 . S
C1993 C1995 1.390 1_655 S
C1993 H1997 0.950 . S
H1994 C1990 0.950 . S
C1995 C1993 1.390 1_455 S
C1995 C1996 1.387 . S
C1995 H1998 0.950 . S
C1996 C1995 1.387 . S
C1996 C1999 1.387 1_565 S
H1997 C1993 0.950 . S
H1998 C1995 0.950 . S
C1999 C1990 1.390 1_455 S
C1999 H1992 0.950 . S
C1999 C1996 1.387 1_545 S
C2000 C2001 1.387 . S
C2000 H2004 0.950 . S
C2000 C2009 1.390 . S
C2001 C2000 1.387 . S
C2001 C2003 1.387 . S
H2002 C2009 0.950 . S
C2003 C2001 1.387 . S
C2003 C2005 1.390 . S
C2003 H2007 0.950 . S
H2004 C2000 0.950 . S
C2005 C2003 1.390 . S
C2005 C2006 1.387 . S
C2005 H2008 0.950 . S
C2006 C2005 1.387 . S
C2006 C2009 1.387 . S
H2007 C2003 0.950 . S
H2008 C2005 0.950 . S
C2009 C2000 1.390 . S
C2009 H2002 0.950 . S
C2009 C2006 1.387 . S
C2010 C2011 1.387 . S
C2010 H2014 0.950 . S
C2010 C2019 1.390 1_455 S
C2011 C2010 1.387 . S
C2011 C2013 1.387 1_455 S
H2012 C2019 0.950 . S
C2013 C2011 1.387 1_655 S
C2013 C2015 1.390 . S
C2013 H2017 0.950 . S
H2014 C2010 0.950 . S
C2015 C2013 1.390 . S
C2015 C2016 1.387 . S
C2015 H2018 0.950 . S
C2016 C2015 1.387 . S
C2016 C2019 1.387 . S
H2017 C2013 0.950 . S
H2018 C2015 0.950 . S
C2019 C2010 1.390 1_655 S
C2019 H2012 0.950 . S
C2019 C2016 1.387 . S
C2020 C2021 1.387 . S
C2020 H2024 0.950 . S
C2020 C2029 1.390 . S
C2021 C2020 1.387 . S
C2021 C2023 1.387 . S
H2022 C2029 0.950 . S
C2023 C2021 1.387 . S
C2023 C2025 1.390 . S
C2023 H2027 0.950 . S
H2024 C2020 0.950 . S
C2025 C2023 1.390 . S
C2025 C2026 1.387 . S
C2025 H2028 0.950 . S
C2026 C2025 1.387 . S
C2026 C2029 1.387 . S
H2027 C2023 0.950 . S
H2028 C2025 0.950 . S
C2029 C2020 1.390 . S
C2029 H2022 0.950 . S
C2029 C2026 1.387 . S
C2030 C2031 1.388 . S
C2030 H2034 0.950 . S
C2030 C2039 1.389 1_455 S
C2031 C2030 1.388 . S
C2031 C2033 1.387 . S
H2032 C2039 0.950 . S
C2033 C2031 1.387 . S
C2033 C2035 1.390 1_455 S
C2033 H2037 0.950 . S
H2034 C2030 0.950 . S
C2035 C2033 1.390 1_655 S
C2035 C2036 1.387 . S
C2035 H2038 0.950 . S
C2036 C2035 1.387 . S
C2036 C2039 1.387 . S
H2037 C2033 0.950 . S
H2038 C2035 0.950 . S
C2039 C2030 1.389 1_655 S
C2039 H2032 0.950 . S
C2039 C2036 1.387 . S
C2040 C2041 1.387 . S
C2040 H2044 0.950 . S
C2040 C2049 1.390 . S
C2041 C2040 1.387 . S
C2041 C2043 1.387 . S
H2042 C2049 0.950 . S
C2043 C2041 1.387 . S
C2043 C2045 1.390 . S
C2043 H2047 0.950 . S
H2044 C2040 0.950 . S
C2045 C2043 1.390 . S
C2045 C2046 1.387 . S
C2045 H2048 0.950 . S
C2046 C2045 1.387 . S
C2046 C2049 1.387 . S
H2047 C2043 0.950 . S
H2048 C2045 0.950 . S
C2049 C2040 1.390 . S
C2049 H2042 0.950 . S
C2049 C2046 1.387 . S
C2050 C2051 1.387 . S
C2050 H2054 0.950 . S
C2050 C2059 1.390 . S
C2051 C2050 1.387 . S
C2051 C2053 1.387 1_455 S
H2052 C2059 0.950 . S
C2053 C2051 1.387 1_655 S
C2053 C2055 1.390 . S
C2053 H2057 0.950 . S
H2054 C2050 0.950 . S
C2055 C2053 1.390 . S
C2055 C2056 1.387 . S
C2055 H2058 0.950 . S
C2056 C2055 1.387 . S
C2056 C2059 1.387 1_655 S
H2057 C2053 0.950 . S
H2058 C2055 0.950 . S
C2059 C2050 1.390 . S
C2059 H2052 0.950 . S
C2059 C2056 1.387 1_455 S
C2060 C2061 1.387 . S
C2060 H2064 0.950 . S
C2060 C2069 1.390 . S
C2061 C2060 1.387 . S
C2061 C2063 1.387 . S
H2062 C2069 0.950 . S
C2063 C2061 1.387 . S
C2063 C2065 1.390 . S
C2063 H2067 0.950 . S
H2064 C2060 0.950 . S
C2065 C2063 1.390 . S
C2065 C2066 1.387 . S
C2065 H2068 0.950 . S
C2066 C2065 1.387 . S
C2066 C2069 1.387 . S
H2067 C2063 0.950 . S
H2068 C2065 0.950 . S
C2069 C2060 1.390 . S
C2069 H2062 0.950 . S
C2069 C2066 1.387 . S
C2070 C2071 1.387 . S
C2070 H2074 0.950 . S
C2070 C2079 1.390 1_655 S
C2071 C2070 1.387 . S
C2071 C2073 1.387 . S
H2072 C2079 0.950 . S
C2073 C2071 1.387 . S
C2073 C2075 1.390 1_655 S
C2073 H2077 0.950 . S
H2074 C2070 0.950 . S
C2075 C2073 1.390 1_455 S
C2075 C2076 1.387 . S
C2075 H2078 0.950 . S
C2076 C2075 1.387 . S
C2076 C2079 1.387 . S
H2077 C2073 0.950 . S
H2078 C2075 0.950 . S
C2079 C2070 1.390 1_455 S
C2079 H2072 0.950 . S
C2079 C2076 1.387 . S
C2080 C2081 1.387 1_565 S
C2080 H2084 0.950 . S
C2080 C2089 1.390 . S
C2081 C2080 1.387 1_545 S
C2081 C2083 1.387 . S
H2082 C2089 0.950 . S
C2083 C2081 1.387 . S
C2083 C2085 1.390 . S
C2083 H2087 0.950 . S
H2084 C2080 0.950 . S
C2085 C2083 1.390 . S
C2085 C2086 1.387 . S
C2085 H2088 0.950 . S
C2086 C2085 1.387 . S
C2086 C2089 1.387 1_545 S
H2087 C2083 0.950 . S
H2088 C2085 0.950 . S
C2089 C2080 1.390 . S
C2089 H2082 0.950 . S
C2089 C2086 1.387 1_565 S
C2090 C2091 1.387 . S
C2090 H2094 0.950 . S
C2090 C2099 1.390 . S
C2091 C2090 1.387 . S
C2091 C2093 1.387 . S
H2092 C2099 0.950 . S
C2093 C2091 1.387 . S
C2093 C2095 1.390 . S
C2093 H2097 0.950 . S
H2094 C2090 0.950 . S
C2095 C2093 1.390 . S
C2095 C2096 1.387 . S
C2095 H2098 0.950 . S
C2096 C2095 1.387 . S
C2096 C2099 1.387 . S
H2097 C2093 0.950 . S
H2098 C2095 0.950 . S
C2099 C2090 1.390 . S
C2099 H2092 0.950 . S
C2099 C2096 1.387 . S
C2100 C2101 1.387 . S
C2100 H2104 0.950 . S
C2100 C2109 1.390 . S
C2101 C2100 1.387 . S
C2101 C2103 1.387 . S
H2102 C2109 0.950 . S
C2103 C2101 1.387 . S
C2103 C2105 1.390 . S
C2103 H2107 0.950 . S
H2104 C2100 0.950 . S
C2105 C2103 1.390 . S
C2105 C2106 1.387 . S
C2105 H2108 0.950 . S
C2106 C2105 1.387 . S
C2106 C2109 1.387 . S
H2107 C2103 0.950 . S
H2108 C2105 0.950 . S
C2109 C2100 1.390 . S
C2109 H2102 0.950 . S
C2109 C2106 1.387 . S
C2110 C2111 1.387 . S
C2110 H2114 0.950 . S
C2110 C2119 1.390 . S
C2111 C2110 1.387 . S
C2111 C2113 1.387 1_545 S
H2112 C2119 0.950 . S
C2113 C2111 1.387 1_565 S
C2113 C2115 1.390 . S
C2113 H2117 0.950 . S
H2114 C2110 0.950 . S
C2115 C2113 1.390 . S
C2115 C2116 1.387 1_565 S
C2115 H2118 0.950 . S
C2116 C2115 1.387 1_545 S
C2116 C2119 1.387 . S
H2117 C2113 0.950 . S
H2118 C2115 0.950 . S
C2119 C2110 1.390 . S
C2119 H2112 0.950 . S
C2119 C2116 1.387 . S
C2120 C2121 1.387 1_545 S
C2120 H2124 0.950 . S
C2120 C2129 1.390 . S
C2121 C2120 1.387 1_565 S
C2121 C2123 1.387 . S
H2122 C2129 0.950 . S
C2123 C2121 1.387 . S
C2123 C2125 1.390 . S
C2123 H2127 0.950 . S
H2124 C2120 0.950 . S
C2125 C2123 1.390 . S
C2125 C2126 1.387 . S
C2125 H2128 0.950 . S
C2126 C2125 1.387 . S
C2126 C2129 1.387 1_565 S
H2127 C2123 0.950 . S
H2128 C2125 0.950 . S
C2129 C2120 1.390 . S
C2129 H2122 0.950 . S
C2129 C2126 1.387 1_545 S
C2130 C2131 1.387 . S
C2130 H2134 0.950 . S
C2130 C2139 1.390 . S
C2131 C2130 1.387 . S
C2131 C2133 1.387 . S
H2132 C2139 0.950 . S
C2133 C2131 1.387 . S
C2133 C2135 1.390 . S
C2133 H2137 0.950 . S
H2134 C2130 0.950 . S
C2135 C2133 1.390 . S
C2135 C2136 1.387 . S
C2135 H2138 0.950 . S
C2136 C2135 1.387 . S
C2136 C2139 1.387 . S
H2137 C2133 0.950 . S
H2138 C2135 0.950 . S
C2139 C2130 1.390 . S
C2139 H2132 0.950 . S
C2139 C2136 1.387 . S
C2140 C2141 1.387 . S
C2140 H2144 0.950 . S
C2140 C2149 1.390 . S
C2141 C2140 1.387 . S
C2141 C2143 1.387 . S
H2142 C2149 0.950 . S
C2143 C2141 1.387 . S
C2143 C2145 1.390 . S
C2143 H2147 0.950 . S
H2144 C2140 0.950 . S
C2145 C2143 1.390 . S
C2145 C2146 1.387 . S
C2145 H2148 0.950 . S
C2146 C2145 1.387 . S
C2146 C2149 1.387 . S
H2147 C2143 0.950 . S
H2148 C2145 0.950 . S
C2149 C2140 1.390 . S
C2149 H2142 0.950 . S
C2149 C2146 1.387 . S
C2150 C2151 1.387 1_545 S
C2150 H2154 0.950 . S
C2150 C2159 1.390 . S
C2151 C2150 1.387 1_565 S
C2151 C2153 1.387 . S
H2152 C2159 0.950 . S
C2153 C2151 1.387 . S
C2153 C2155 1.390 . S
C2153 H2157 0.950 . S
H2154 C2150 0.950 . S
C2155 C2153 1.390 . S
C2155 C2156 1.387 . S
C2155 H2158 0.950 . S
C2156 C2155 1.387 . S
C2156 C2159 1.387 1_565 S
H2157 C2153 0.950 . S
H2158 C2155 0.950 . S
C2159 C2150 1.390 . S
C2159 H2152 0.950 . S
C2159 C2156 1.387 1_545 S
C2160 C2161 1.387 . S
C2160 H2164 0.950 . S
C2160 C2169 1.390 . S
C2161 C2160 1.387 . S
C2161 C2163 1.387 . S
H2162 C2169 0.950 . S
C2163 C2161 1.387 . S
C2163 C2165 1.390 . S
C2163 H2167 0.950 . S
H2164 C2160 0.950 . S
C2165 C2163 1.390 . S
C2165 C2166 1.387 . S
C2165 H2168 0.950 . S
C2166 C2165 1.387 . S
C2166 C2169 1.387 . S
H2167 C2163 0.950 . S
H2168 C2165 0.950 . S
C2169 C2160 1.390 . S
C2169 H2162 0.950 . S
C2169 C2166 1.387 . S
C2170 C2171 1.387 . S
C2170 H2174 0.950 . S
C2170 C2179 1.390 . S
C2171 C2170 1.387 . S
C2171 C2173 1.387 . S
H2172 C2179 0.950 . S
C2173 C2171 1.387 . S
C2173 C2175 1.390 . S
C2173 H2177 0.950 . S
H2174 C2170 0.950 . S
C2175 C2173 1.390 . S
C2175 C2176 1.387 . S
C2175 H2178 0.950 . S
C2176 C2175 1.387 . S
C2176 C2179 1.387 . S
H2177 C2173 0.950 . S
H2178 C2175 0.950 . S
C2179 C2170 1.390 . S
C2179 H2172 0.950 . S
C2179 C2176 1.387 . S
C2180 C2181 1.387 . S
C2180 H2184 0.950 . S
C2180 C2189 1.390 . S
C2181 C2180 1.387 . S
C2181 C2183 1.387 . S
H2182 C2189 0.950 . S
C2183 C2181 1.387 . S
C2183 C2185 1.390 . S
C2183 H2187 0.950 . S
H2184 C2180 0.950 . S
C2185 C2183 1.390 . S
C2185 C2186 1.387 . S
C2185 H2188 0.950 . S
C2186 C2185 1.387 . S
C2186 C2189 1.387 . S
H2187 C2183 0.950 . S
H2188 C2185 0.950 . S
C2189 C2180 1.390 . S
C2189 H2182 0.950 . S
C2189 C2186 1.387 . S
C2190 C2191 1.387 . S
C2190 H2194 0.950 . S
C2190 C2199 1.390 . S
C2191 C2190 1.387 . S
C2191 C2193 1.387 . S
H2192 C2199 0.950 . S
C2193 C2191 1.387 . S
C2193 C2195 1.390 . S
C2193 H2197 0.950 . S
H2194 C2190 0.950 . S
C2195 C2193 1.390 . S
C2195 C2196 1.387 . S
C2195 H2198 0.950 . S
C2196 C2195 1.387 . S
C2196 C2199 1.387 . S
H2197 C2193 0.950 . S
H2198 C2195 0.950 . S
C2199 C2190 1.390 . S
C2199 H2192 0.950 . S
C2199 C2196 1.387 . S
C2200 C2201 1.387 . S
C2200 H2204 0.950 . S
C2200 C2209 1.390 . S
C2201 C2200 1.387 . S
C2201 C2203 1.387 . S
H2202 C2209 0.950 . S
C2203 C2201 1.387 . S
C2203 C2205 1.390 . S
C2203 H2207 0.950 . S
H2204 C2200 0.950 . S
C2205 C2203 1.390 . S
C2205 C2206 1.387 . S
C2205 H2208 0.950 . S
C2206 C2205 1.387 . S
C2206 C2209 1.387 . S
H2207 C2203 0.950 . S
H2208 C2205 0.950 . S
C2209 C2200 1.390 . S
C2209 H2202 0.950 . S
C2209 C2206 1.387 . S
C2210 C2211 1.387 . S
C2210 H2214 0.950 . S
C2210 C2219 1.390 . S
C2211 C2210 1.387 . S
C2211 C2213 1.387 . S
H2212 C2219 0.950 . S
C2213 C2211 1.387 . S
C2213 C2215 1.390 . S
C2213 H2217 0.950 . S
H2214 C2210 0.950 . S
C2215 C2213 1.390 . S
C2215 C2216 1.387 . S
C2215 H2218 0.950 . S
C2216 C2215 1.387 . S
C2216 C2219 1.387 . S
H2217 C2213 0.950 . S
H2218 C2215 0.950 . S
C2219 C2210 1.390 . S
C2219 H2212 0.950 . S
C2219 C2216 1.387 . S
C2220 C2221 1.387 . S
C2220 H2224 0.950 . S
C2220 C2229 1.390 . S
C2221 C2220 1.387 . S
C2221 C2223 1.387 . S
H2222 C2229 0.950 . S
C2223 C2221 1.387 . S
C2223 C2225 1.390 . S
C2223 H2227 0.950 . S
H2224 C2220 0.950 . S
C2225 C2223 1.390 . S
C2225 C2226 1.387 . S
C2225 H2228 0.950 . S
C2226 C2225 1.387 . S
C2226 C2229 1.387 . S
H2227 C2223 0.950 . S
H2228 C2225 0.950 . S
C2229 C2220 1.390 . S
C2229 H2222 0.950 . S
C2229 C2226 1.387 . S
C2230 C2231 1.387 . S
C2230 H2234 0.950 . S
C2230 C2239 1.390 . S
C2231 C2230 1.387 . S
C2231 C2233 1.387 . S
H2232 C2239 0.950 . S
C2233 C2231 1.387 . S
C2233 C2235 1.390 . S
C2233 H2237 0.950 . S
H2234 C2230 0.950 . S
C2235 C2233 1.390 . S
C2235 C2236 1.387 . S
C2235 H2238 0.950 . S
C2236 C2235 1.387 . S
C2236 C2239 1.387 . S
H2237 C2233 0.950 . S
H2238 C2235 0.950 . S
C2239 C2230 1.390 . S
C2239 H2232 0.950 . S
C2239 C2236 1.387 . S
C1281 C1018 1.564 . S
C1286 C18 1.564 . S
C1291 C978 1.564 . S
C1296 C58 1.564 . S
C1301 C1098 1.564 . S
C1306 C98 1.564 . S
C1311 C1058 1.561 . S
C1316 C138 1.561 . S
C1321 C169 1.564 . S
C1326 C1169 1.564 . S
C1331 C209 1.561 . S
C1336 C1129 1.561 . S
C1341 C249 1.564 . S
C1346 C1249 1.564 . S
C1351 C1209 1.561 . S
C1356 C289 1.561 . S
C1361 C698 1.564 . S
C1366 C338 1.564 . S
C1371 C658 1.564 . S
C1376 C378 1.564 . S
C1381 C778 1.564 . S
C1386 C418 1.564 . S
C1391 C738 1.564 . S
C1396 C458 1.564 . S
C1401 C489 1.564 . S
C1406 C849 1.564 . S
C1411 C809 1.564 . S
C1416 C529 1.564 . S
C1421 C569 1.562 . S
C1426 C929 1.562 . S
C1431 C889 1.561 . S
C1436 C609 1.561 . S
C1441 C15 0.826 . S
C1446 C806 0.826 . S
C1451 C526 0.824 . S
C1456 C55 0.824 . S
C1461 C1206 0.829 . S
C1466 C95 0.829 . S
C1471 C135 0.829 . S
C1476 C286 0.829 . S
C1481 C166 0.830 . S
C1486 C655 0.830 . S
C1491 C206 0.828 . S
C1496 C375 0.828 . S
C1501 C246 0.825 . S
C1506 C1055 0.825 . S
C1511 C1126 0.823 . S
C1516 C335 0.823 . S
C1521 C886 0.827 . S
C1526 C415 0.827 . S
C1531 C606 0.827 . S
C1536 C455 0.827 . S
C1541 C975 0.828 . S
C1546 C486 0.828 . S
C1551 C566 0.824 . S
C1556 C735 0.824 . S
C1561 C1166 0.828 . S
C1566 C695 0.828 . S
C1571 C775 0.826 . S
C1576 C926 0.826 . S
C1581 C1015 0.828 . S
C1586 C846 0.828 . S
C1591 C1095 0.828 . S
C1596 C1246 0.828 . S
C1601 C6 2.421 . S
C1606 C766 2.421 . S
C1611 C46 2.421 . S
C1616 C726 2.421 . S
C1621 C86 2.425 . S
C1626 C686 2.425 . S
C1631 C126 2.425 . S
C1636 C646 2.425 . S
C1641 C175 2.421 . S
C1646 C935 2.421 . S
C1651 C215 2.421 . S
C1656 C895 2.421 . S
C1661 C255 2.421 . S
C1666 C855 2.421 . S
C1671 C295 2.425 . S
C1676 C815 2.425 . S
C1681 C326 2.425 . S
C1686 C1086 2.425 . S
C1691 C366 2.421 . S
C1696 C1046 2.421 . S
C1701 C406 2.425 . S
C1706 C1006 2.425 . S
C1711 C446 2.422 . S
C1716 C966 2.422 . S
C1721 C1255 2.425 . S
C1726 C495 2.425 . S
C1731 C1215 2.421 . S
C1736 C535 2.421 . S
C1741 C1175 2.421 . S
C1746 C575 2.421 . S
C1751 C1135 2.425 . S
C1756 C615 2.425 . S
C1761 C89 1.937 . S
C1766 C9 1.937 . S
C1771 C129 1.936 . S
C1776 C49 1.936 . S
C1781 C258 1.937 . S
C1786 C178 1.937 . S
C1791 C218 1.937 . S
C1796 C298 1.937 . S
C1801 C409 1.935 . S
C1806 C329 1.935 . S
C1811 C369 1.936 . S
C1816 C449 1.936 . S
C1821 C578 1.937 . S
C1826 C498 1.937 . S
C1831 C538 1.937 . S
C1836 C618 1.937 . S
C1841 C649 1.937 . S
C1846 C729 1.937 . S
C1851 C689 1.938 . S
C1856 C769 1.938 . S
C1861 C898 1.937 . S
C1866 C818 1.937 . S
C1871 C858 1.938 . S
C1876 C938 1.938 . S
C1881 C969 1.936 . S
C1886 C1049 1.936 . S
C1891 C1089 1.936 . S
C1896 C1009 1.936 . S
C1901 C1138 1.938 . S
C1906 C1218 1.937 . S
C1911 C1178 1.937 . S
C1916 C1258 1.937 . S
C1921 C10 3.261 1_556 S
C1926 C290 3.242 . S
C1931 C1210 3.242 . S
C1936 C50 3.261 1_556 S
C1941 C90 3.262 . S
C1946 C530 3.242 . S
C1951 C130 3.261 . S
C1956 C810 3.242 . S
C1961 C139 3.242 . S
C1966 C179 3.261 1_554 S
C1971 C219 3.262 1_554 S
C1976 C1059 3.242 . S
C1981 C379 3.242 . S
C1986 C259 3.261 . S
C1991 C659 3.242 . S
C1996 C299 3.262 . S
C2001 C330 3.261 . S
C2006 C610 3.242 . S
C2011 C890 3.242 . S
C2016 C370 3.261 . S
C2021 C410 3.262 . S
C2026 C210 3.242 . S
C2031 C1130 3.242 . S
C2036 C450 3.262 . S
C2041 C499 3.262 . S
C2046 C459 3.242 . S
C2051 C539 3.262 . S
C2056 C739 3.242 . S
C2061 C579 3.262 . S
C2066 C59 3.242 . S
C2071 C979 3.242 . S
C2076 C619 3.262 . S
C2081 C650 3.261 . S
C2086 C930 3.242 . S
C2091 C690 3.262 . S
C2096 C570 3.242 . S
C2101 C730 3.262 . S
C2106 C1170 3.242 . S
C2111 C770 3.262 . S
C2116 C170 3.242 . S
C2121 C819 3.262 . S
C2126 C779 3.242 . S
C2131 C419 3.242 . S
C2136 C859 3.262 . S
C2141 C1019 3.242 . S
C2146 C899 3.261 . S
C2151 C939 3.262 . S
C2156 C19 3.242 . S
C2161 C1250 3.242 . S
C2166 C970 3.261 1_556 S
C2171 C250 3.242 . S
C2176 C1010 3.262 1_556 S
C2181 C850 3.242 . S
C2186 C1050 3.261 . S
C2191 C1090 3.262 . S
C2196 C490 3.242 . S
C2201 C1099 3.242 . S
C2206 C1139 3.262 1_554 S
C2211 C99 3.242 . S
C2216 C1179 3.261 1_554 S
C2221 C699 3.242 . S
C2226 C1219 3.262 . S
C2231 C1259 3.262 . S
C2236 C339 3.242 . S
