# Generated by pormake.
# Topology uni, (4)-cn, num edge types: 1
# Building blocks:
#     Node 0, Type 0, BuildingBlock: AZAVOO_clean_sbu_0, # of connection points: 4
#     Node 1, Type 0, BuildingBlock: AZAVOO_clean_sbu_0, # of connection points: 4
#     Node 2, Type 0, BuildingBlock: AZAVOO_clean_sbu_0, # of connection points: 4
#     Node 3, Type 0, BuildingBlock: AZAVOO_clean_sbu_0, # of connection points: 4
#     Node 4, Type 0, BuildingBlock: AZAVOO_clean_sbu_0, # of connection points: 4
#     Node 5, Type 0, BuildingBlock: AZAVOO_clean_sbu_0, # of connection points: 4
#     Edge 6, Type (0, 0), BuildingBlock: CIFDUS_clean_linker_0, # of connection points: 2
#     Edge 7, Type (0, 0), BuildingBlock: CIFDUS_clean_linker_0, # of connection points: 2
#     Edge 8, Type (0, 0), BuildingBlock: CIFDUS_clean_linker_0, # of connection points: 2
#     Edge 9, Type (0, 0), BuildingBlock: CIFDUS_clean_linker_0, # of connection points: 2
#     Edge 10, Type (0, 0), BuildingBlock: CIFDUS_clean_linker_0, # of connection points: 2
#     Edge 11, Type (0, 0), BuildingBlock: CIFDUS_clean_linker_0, # of connection points: 2
#     Edge 12, Type (0, 0), BuildingBlock: CIFDUS_clean_linker_0, # of connection points: 2
#     Edge 13, Type (0, 0), BuildingBlock: CIFDUS_clean_linker_0, # of connection points: 2
#     Edge 14, Type (0, 0), BuildingBlock: CIFDUS_clean_linker_0, # of connection points: 2
#     Edge 15, Type (0, 0), BuildingBlock: CIFDUS_clean_linker_0, # of connection points: 2
#     Edge 16, Type (0, 0), BuildingBlock: CIFDUS_clean_linker_0, # of connection points: 2
#     Edge 17, Type (0, 0), BuildingBlock: CIFDUS_clean_linker_0, # of connection points: 2
# Relax obj value: 0.053
# Max RMSD: 0.095
# Mean RMSD: 0.095
data_MOF--net-uni--node1-AZAVOO_clean_sbu_0--edge1-CIFDUS_clean_linker_0
_symmetry_space_group_name_H-M    P1
_symmetry_Int_Tables_number       1
_symmetry_cell_setting            triclinic
loop_
_symmetry_equiv_pos_as_xyz
'x, y, z'
_cell_length_a     35.151843
_cell_length_b     35.060184
_cell_length_c     18.95766
_cell_angle_alpha  89.353223
_cell_angle_beta   90.214449
_cell_angle_gamma 119.39556
loop_
_atom_site_label
_atom_site_type_symbol
_atom_site_fract_x
_atom_site_fract_y
_atom_site_fract_z
_atom_type_partial_charge
Mg0 Mg 0.65601 0.00373 0.04026 0.0
O1 O 0.61857 0.01225 0.13187 0.0
O2 O 0.60944 0.06979 0.10807 0.0
Mg3 Mg 0.63836 0.09646 0.9993 0.0
C4 C 0.60452 0.03831 0.14841 0.0
C5 C 0.70111 0.95221 0.11028 0.0
O6 O 0.73476 0.97829 0.07075 0.0
O7 O 0.72047 0.06335 0.07291 0.0
O8 O 0.70677 0.11692 0.04036 0.0
O9 O 0.59312 0.96043 0.98539 0.0
O10 O 0.63028 0.03217 0.97067 0.0
C11 C 0.73233 0.10393 0.06523 0.0
C12 C 0.59601 0.99549 0.95693 0.0
O13 O 0.66719 0.95643 0.10931 0.0
Mg14 Mg 0.63759 0.629 0.18618 0.0
O15 O 0.58957 0.59046 0.27487 0.0
O16 O 0.52558 0.58701 0.25266 0.0
Mg17 Mg 0.53203 0.62163 0.14691 0.0
C18 C 0.55007 0.5782 0.29141 0.0
C19 C 0.7285 0.66161 0.2742 0.0
O20 O 0.73994 0.70217 0.25638 0.0
O21 O 0.64642 0.69445 0.22512 0.0
O22 O 0.58198 0.68765 0.19352 0.0
O23 O 0.61577 0.56764 0.12671 0.0
O24 O 0.58561 0.60974 0.11471 0.0
C25 C 0.62023 0.70982 0.21955 0.0
C26 C 0.58599 0.57434 0.09834 0.0
O27 O 0.6918 0.6306 0.25449 0.0
Mg28 Mg 0.03331 0.65527 0.33973 0.0
O29 O 0.02153 0.60419 0.42561 0.0
O30 O 0.96616 0.53987 0.39248 0.0
Mg31 Mg 0.94563 0.54933 0.28164 0.0
C32 C 0.99537 0.5636 0.43697 0.0
C33 C 0.07507 0.74427 0.42769 0.0
O34 O 0.04755 0.75266 0.39296 0.0
O35 O 0.97143 0.65732 0.36842 0.0
O36 O 0.92013 0.59392 0.32408 0.0
O37 O 0.08125 0.64096 0.28736 0.0
O38 O 0.01079 0.6068 0.26249 0.0
C39 C 0.9316 0.6305 0.35395 0.0
C40 C 0.04894 0.61107 0.25215 0.0
O41 O 0.07481 0.7084 0.41743 0.0
Mg42 Mg 0.3886 0.00738 0.54796 0.0
O43 O 0.42309 0.987 0.6316 0.0
O44 O 0.43272 0.93399 0.58499 0.0
Mg45 Mg 0.40737 0.9223 0.47216 0.0
C46 C 0.43633 0.95898 0.63602 0.0
C47 C 0.33839 0.04715 0.62971 0.0
O48 O 0.30669 0.02153 0.58715 0.0
O49 O 0.32407 0.94466 0.56661 0.0
O50 O 0.33783 0.89563 0.51485 0.0
O51 O 0.45252 0.05769 0.50398 0.0
O52 O 0.41701 0.98923 0.46784 0.0
C53 C 0.31223 0.90563 0.54739 0.0
C54 C 0.45121 0.02742 0.46394 0.0
O55 O 0.3738 0.04565 0.62927 0.0
Mg56 Mg 0.36728 0.36175 0.69726 0.0
O57 O 0.42233 0.40068 0.77653 0.0
O58 O 0.48456 0.40996 0.72915 0.0
Mg59 Mg 0.47034 0.38025 0.61957 0.0
C60 C 0.46344 0.41493 0.77949 0.0
C61 C 0.27848 0.31682 0.78237 0.0
O62 O 0.26973 0.28428 0.73963 0.0
O63 O 0.36872 0.29866 0.72426 0.0
O64 O 0.43115 0.31248 0.67155 0.0
O65 O 0.37766 0.42349 0.64606 0.0
O66 O 0.41191 0.38794 0.61367 0.0
C67 C 0.39689 0.28738 0.70711 0.0
C68 C 0.40649 0.42157 0.60628 0.0
O69 O 0.31634 0.35027 0.78087 0.0
Mg70 Mg 0.00839 0.36774 0.84614 0.0
O71 O 0.02092 0.41998 0.92862 0.0
O72 O 0.07483 0.48482 0.89218 0.0
Mg73 Mg 0.09562 0.47424 0.78325 0.0
C74 C 0.04619 0.46081 0.93777 0.0
C75 C 0.93885 0.31972 0.95987 0.0
O76 O 0.93642 0.35533 0.94688 0.0
O77 O 0.07086 0.36694 0.87684 0.0
O78 O 0.12174 0.43141 0.83276 0.0
O79 O 0.96021 0.38142 0.79113 0.0
O80 O 0.03073 0.41608 0.76662 0.0
C81 C 0.1107 0.39504 0.86433 0.0
C82 C 0.9925 0.41146 0.7553 0.0
O83 O 0.96698 0.31403 0.92652 0.0
H84 H 0.59431 0.0974 0.22549 0.0
H85 H 0.55719 0.96052 0.21818 0.0
H86 H 0.50793 0.94516 0.31823 0.0
H87 H 0.47137 0.96987 0.40156 0.0
H88 H 0.51057 0.10715 0.41176 0.0
H89 H 0.56342 0.12319 0.31719 0.0
C90 C 0.5757 0.06428 0.24622 0.0
C91 C 0.57895 0.03008 0.214 0.0
C92 C 0.54772 0.05573 0.30402 0.0
C93 C 0.55522 0.98743 0.24207 0.0
C94 C 0.52689 0.97857 0.29905 0.0
C95 C 0.49166 0.00329 0.38353 0.0
C96 C 0.48662 0.03715 0.41302 0.0
C97 C 0.52223 0.01234 0.32948 0.0
C98 C 0.51377 0.08046 0.38985 0.0
C99 C 0.54387 0.08966 0.33554 0.0
H100 H 0.47952 0.5665 0.36712 0.0
H101 H 0.57837 0.52757 0.35862 0.0
H102 H 0.54357 0.47658 0.45693 0.0
H103 H 0.48271 0.44008 0.54065 0.0
H104 H 0.38561 0.48114 0.55264 0.0
H105 H 0.42223 0.53444 0.45786 0.0
C106 C 0.49357 0.54703 0.38707 0.0
C107 C 0.5312 0.55051 0.35513 0.0
C108 C 0.47364 0.51806 0.44405 0.0
C109 C 0.54941 0.52554 0.38224 0.0
C110 C 0.52943 0.49622 0.43829 0.0
C111 C 0.46968 0.4608 0.52292 0.0
C112 C 0.43124 0.45627 0.55327 0.0
C113 C 0.49116 0.49173 0.46888 0.0
C114 C 0.41516 0.48391 0.53015 0.0
C115 C 0.43599 0.51432 0.47577 0.0
H116 H 0.05238 0.4896 0.69686 0.0
H117 H 0.91589 0.39226 0.69137 0.0
H118 H 0.90424 0.4312 0.59351 0.0
H119 H 0.93371 0.49072 0.50501 0.0
H120 H 0.06943 0.59003 0.51442 0.0
H121 H 0.08043 0.55268 0.61544 0.0
C122 C 0.02006 0.47707 0.67468 0.0
C123 C 0.98519 0.43786 0.70104 0.0
C124 C 0.01346 0.49991 0.61887 0.0
C125 C 0.94333 0.4224 0.67213 0.0
C126 C 0.93664 0.44454 0.61592 0.0
C127 C 0.96562 0.50428 0.52945 0.0
C128 C 0.00077 0.54283 0.50182 0.0
C129 C 0.97161 0.48296 0.58815 0.0
C130 C 0.0418 0.5604 0.53469 0.0
C131 C 0.04818 0.53897 0.59231 0.0
H132 H 0.53994 0.92624 0.87907 0.0
H133 H 0.57687 0.06036 0.92353 0.0
H134 H 0.52735 0.05944 0.83253 0.0
H135 H 0.47819 0.02259 0.73334 0.0
H136 H 0.44521 0.89009 0.68335 0.0
H137 H 0.48812 0.8882 0.78348 0.0
C138 C 0.53663 0.95504 0.86955 0.0
C139 C 0.56228 0.99338 0.90783 0.0
C140 C 0.50896 0.95467 0.8156 0.0
C141 C 0.55794 0.03056 0.89446 0.0
C142 C 0.52953 0.03006 0.84235 0.0
C143 C 0.47989 0.9931 0.74499 0.0
C144 C 0.4587 0.95663 0.7008 0.0
C145 C 0.50561 0.99262 0.80151 0.0
C146 C 0.46152 0.91876 0.71623 0.0
C147 C 0.48604 0.91762 0.7735 0.0
H148 H 0.59507 0.51373 0.02519 0.0
H149 H 0.50796 0.56612 0.05387 0.0
H150 H 0.46021 0.51855 0.96139 0.0
H151 H 0.44568 0.4652 0.86704 0.0
H152 H 0.53657 0.41789 0.83288 0.0
H153 H 0.58026 0.46015 0.93287 0.0
C154 C 0.56536 0.51438 0.01184 0.0
C155 C 0.55503 0.54333 0.04657 0.0
C156 C 0.53887 0.48799 0.95718 0.0
C157 C 0.51672 0.54419 0.02799 0.0
C158 C 0.48941 0.51701 0.97499 0.0
C159 C 0.47481 0.46385 0.88209 0.0
C160 C 0.48794 0.43854 0.84272 0.0
C161 C 0.50051 0.48925 0.93846 0.0
C162 C 0.52599 0.4374 0.86215 0.0
C163 C 0.55095 0.46148 0.91934 0.0
H164 H 0.10792 0.53263 0.00533 0.0
H165 H 0.97158 0.43489 0.01336 0.0
H166 H 0.96049 0.47163 0.11339 0.0
H167 H 0.98875 0.53387 0.19429 0.0
H168 H 0.12583 0.62961 0.19024 0.0
H169 H 0.13749 0.59114 0.09346 0.0
C170 C 0.07586 0.51931 0.02926 0.0
C171 C 0.04056 0.48136 1.00161 0.0
C172 C 0.06983 0.54026 0.08742 0.0
C173 C -0.00069 0.46403 0.03375 0.0
C174 C 0.99289 0.48511 0.0908 0.0
C175 C 0.0212 0.54611 0.17268 0.0
C176 C 0.05625 0.58474 0.19906 0.0
C177 C 0.02779 0.52358 0.11747 0.0
C178 C 0.09826 0.5999 0.17093 0.0
C179 C 0.10495 0.57805 0.11533 0.0
H180 H 0.70038 0.77752 0.1877 0.0
H181 H 0.57474 0.74722 0.27188 0.0
H182 H 0.59238 0.82334 0.25552 0.0
H183 H 0.63739 0.89408 0.1974 0.0
H184 H 0.76074 0.92331 0.10418 0.0
H185 H 0.75045 0.85242 0.14464 0.0
C186 C 0.6776 0.78803 0.20484 0.0
C187 C 0.63626 0.75688 0.23066 0.0
C188 C 0.68714 0.83145 0.19203 0.0
C189 C 0.60672 0.77068 0.25175 0.0
C190 C 0.61664 0.8141 0.24182 0.0
C191 C 0.66244 0.88534 0.18691 0.0
C192 C 0.69932 0.91361 0.14642 0.0
C193 C 0.65578 0.84413 0.20868 0.0
C194 C 0.73175 0.90199 0.13444 0.0
C195 C 0.72584 0.86136 0.15743 0.0
H196 H 0.84395 0.57853 0.36329 0.0
H197 H 0.94464 0.71411 0.35926 0.0
H198 H 0.88953 0.73666 0.34192 0.0
H199 H 0.81381 0.71695 0.31018 0.0
H200 H 0.71398 0.58074 0.31415 0.0
H201 H 0.76758 0.55963 0.34966 0.0
C202 C 0.85379 0.61307 0.36006 0.0
C203 C 0.89834 0.64449 0.36137 0.0
C204 C 0.82208 0.62575 0.34897 0.0
C205 C 0.91053 0.68917 0.35824 0.0
C206 C 0.87904 0.7021 0.34767 0.0
C207 C 0.80366 0.68274 0.31999 0.0
C208 C 0.76005 0.6505 0.3078 0.0
C209 C 0.83486 0.67056 0.34013 0.0
C210 C 0.74741 0.60632 0.32181 0.0
C211 C 0.77807 0.59409 0.34218 0.0
H212 H 0.13539 0.73587 0.50521 0.0
H213 H 0.09676 0.83049 0.4414 0.0
H214 H 0.16519 0.88963 0.48759 0.0
H215 H 0.24092 0.91493 0.52641 0.0
H216 H 0.28088 0.8198 0.57867 0.0
H217 H 0.20681 0.76033 0.55802 0.0
C218 C 0.14151 0.76934 0.50239 0.0
C219 C 0.11144 0.77883 0.46843 0.0
C220 C 0.18141 0.80315 0.52673 0.0
C221 C 0.11959 0.8223 0.46648 0.0
C222 C 0.15882 0.85618 0.49265 0.0
C223 C 0.23292 0.88119 0.53545 0.0
C224 C 0.26612 0.87154 0.55363 0.0
C225 C 0.19074 0.84712 0.52009 0.0
C226 C 0.25572 0.8278 0.56437 0.0
C227 C 0.2135 0.79386 0.55216 0.0
H228 H 0.31984 0.21194 0.69474 0.0
H229 H 0.45547 0.26255 0.74764 0.0
H230 H 0.44658 0.18909 0.74155 0.0
H231 H 0.40412 0.11397 0.70064 0.0
H232 H 0.2703 0.06426 0.63587 0.0
H233 H 0.27424 0.13336 0.66842 0.0
C234 C 0.34697 0.2065 0.70712 0.0
C235 C 0.38828 0.24242 0.72129 0.0
C236 C 0.3421 0.16442 0.70016 0.0
C237 C 0.42344 0.23527 0.73632 0.0
C238 C 0.41841 0.19335 0.73247 0.0
C239 C 0.37545 0.11779 0.69499 0.0
C240 C 0.33725 0.08425 0.66449 0.0
C241 C 0.37847 0.15812 0.71118 0.0
C242 C 0.30033 0.08973 0.65835 0.0
C243 C 0.30261 0.12934 0.6767 0.0
H244 H 0.10382 0.31474 0.85387 0.0
H245 H 0.19524 0.44961 0.8998 0.0
H246 H 0.25589 0.4345 0.89154 0.0
H247 H 0.28327 0.38662 0.85103 0.0
H248 H 0.19253 0.25347 0.79333 0.0
H249 H 0.13136 0.26391 0.82778 0.0
C250 C 0.13691 0.34044 0.86421 0.0
C251 C 0.14517 0.38329 0.87697 0.0
C252 C 0.17181 0.33195 0.85611 0.0
C253 C 0.1882 0.41644 0.88946 0.0
C254 C 0.22287 0.40786 0.88441 0.0
C255 C 0.25019 0.3595 0.84735 0.0
C256 C 0.24252 0.31956 0.81833 0.0
C257 C 0.21518 0.36626 0.86456 0.0
C258 C 0.19939 0.28474 0.81466 0.0
C259 C 0.16435 0.29075 0.83409 0.0
H260 H 0.92232 0.23525 0.97773 0.0
H261 H 0.8795 0.32569 0.04339 0.0
H262 H 0.81469 0.26594 0.09742 0.0
H263 H 0.76404 0.18742 0.10566 0.0
H264 H 0.80421 0.09586 0.0366 0.0
H265 H 0.87666 0.15649 0.00672 0.0
C266 C 0.89929 0.24197 0.00524 0.0
C267 C 0.90513 0.2847 0.00472 0.0
C268 C 0.86147 0.20719 0.03546 0.0
C269 C 0.87533 0.29298 0.04152 0.0
C270 C 0.83821 0.25882 0.0726 0.0
C271 C 0.78918 0.18075 0.08622 0.0
C272 C 0.77871 0.13744 0.07218 0.0
C273 C 0.82999 0.21566 0.0669 0.0
C274 C 0.81154 0.12901 0.04785 0.0
C275 C 0.85278 0.16372 0.02981 0.0
loop_
_geom_bond_atom_site_label_1
_geom_bond_atom_site_label_2
_geom_bond_distance
_geom_bond_site_symmetry_2
_ccdc_geom_bond_type
Mg0 O1 2.031 . S
Mg0 O7 1.980 1_565 S
Mg0 O9 2.115 1_554 S
Mg0 O10 2.240 1_564 S
Mg0 O13 2.024 . S
O1 Mg0 2.031 . S
O1 C4 1.226 1_565 S
O2 Mg3 2.028 . S
O2 C4 1.248 . S
Mg3 O2 2.028 . S
Mg3 O8 2.032 . S
Mg3 O10 2.079 1_554 S
C4 O1 1.226 1_545 S
C4 O2 1.248 . S
C5 O6 1.264 . S
C5 O13 1.249 . S
O6 C5 1.264 . S
O7 Mg0 1.980 1_545 S
O7 C11 1.246 . S
O8 Mg3 2.032 . S
O8 C11 1.259 . S
O9 Mg0 2.115 1_556 S
O9 C12 1.252 . S
O10 Mg0 2.240 1_546 S
O10 Mg3 2.079 1_556 S
O10 C12 1.273 1_545 S
C11 O7 1.246 . S
C11 O8 1.259 . S
C12 O9 1.252 . S
C12 O10 1.273 1_565 S
O13 Mg0 2.024 . S
O13 C5 1.249 . S
Mg14 O15 2.028 . S
Mg14 O21 1.986 . S
Mg14 O23 2.114 . S
Mg14 O24 2.251 . S
Mg14 O27 2.010 . S
O15 Mg14 2.028 . S
O15 C18 1.250 . S
O16 Mg17 2.028 . S
O16 C18 1.248 . S
Mg17 O16 2.028 . S
Mg17 O22 2.032 . S
Mg17 O24 2.079 . S
C18 O15 1.250 . S
C18 O16 1.248 . S
C19 O20 1.264 . S
C19 O27 1.249 . S
O20 C19 1.264 . S
O21 Mg14 1.986 . S
O21 C25 1.246 . S
O22 Mg17 2.032 . S
O22 C25 1.259 . S
O23 Mg14 2.114 . S
O23 C26 1.252 . S
O24 Mg14 2.251 . S
O24 Mg17 2.079 . S
O24 C26 1.273 . S
C25 O21 1.246 . S
C25 O22 1.259 . S
C26 O23 1.252 . S
C26 O24 1.273 . S
O27 Mg14 2.010 . S
O27 C19 1.249 . S
Mg28 O29 2.028 . S
Mg28 O35 1.986 1_455 S
Mg28 O37 2.114 . S
Mg28 O38 2.251 1_455 S
Mg28 O41 2.010 . S
O29 Mg28 2.028 . S
O29 C32 1.250 . S
O30 Mg31 2.028 . S
O30 C32 1.248 1_655 S
Mg31 O30 2.028 . S
Mg31 O36 2.032 . S
Mg31 O38 2.079 . S
C32 O29 1.250 . S
C32 O30 1.248 1_455 S
C33 O34 1.264 . S
C33 O41 1.249 . S
O34 C33 1.264 . S
O35 Mg28 1.986 1_655 S
O35 C39 1.246 . S
O36 Mg31 2.032 . S
O36 C39 1.259 . S
O37 Mg28 2.114 . S
O37 C40 1.252 . S
O38 Mg28 2.251 1_655 S
O38 Mg31 2.079 . S
O38 C40 1.273 1_655 S
C39 O35 1.246 . S
C39 O36 1.259 . S
C40 O37 1.252 . S
C40 O38 1.273 1_455 S
O41 Mg28 2.010 . S
O41 C33 1.249 . S
Mg42 O43 2.028 . S
Mg42 O49 1.986 1_545 S
Mg42 O51 2.114 . S
Mg42 O52 2.251 1_545 S
Mg42 O55 2.010 . S
O43 Mg42 2.028 . S
O43 C46 1.250 1_545 S
O44 Mg45 2.028 . S
O44 C46 1.248 . S
Mg45 O44 2.028 . S
Mg45 O50 2.032 . S
Mg45 O52 2.079 . S
C46 O43 1.250 1_565 S
C46 O44 1.248 . S
C47 O48 1.264 . S
C47 O55 1.249 . S
O48 C47 1.264 . S
O49 Mg42 1.986 1_565 S
O49 C53 1.246 . S
O50 Mg45 2.032 . S
O50 C53 1.259 . S
O51 Mg42 2.114 . S
O51 C54 1.252 . S
O52 Mg42 2.251 1_565 S
O52 Mg45 2.079 . S
O52 C54 1.273 1_565 S
C53 O49 1.246 . S
C53 O50 1.259 . S
C54 O51 1.252 . S
C54 O52 1.273 1_545 S
O55 Mg42 2.010 . S
O55 C47 1.249 . S
Mg56 O57 2.028 . S
Mg56 O63 1.986 . S
Mg56 O65 2.114 . S
Mg56 O66 2.251 . S
Mg56 O69 2.010 . S
O57 Mg56 2.028 . S
O57 C60 1.250 . S
O58 Mg59 2.028 . S
O58 C60 1.248 . S
Mg59 O58 2.028 . S
Mg59 O64 2.032 . S
Mg59 O66 2.079 . S
C60 O57 1.250 . S
C60 O58 1.248 . S
C61 O62 1.264 . S
C61 O69 1.249 . S
O62 C61 1.264 . S
O63 Mg56 1.986 . S
O63 C67 1.246 . S
O64 Mg59 2.032 . S
O64 C67 1.259 . S
O65 Mg56 2.114 . S
O65 C68 1.252 . S
O66 Mg56 2.251 . S
O66 Mg59 2.079 . S
O66 C68 1.273 . S
C67 O63 1.246 . S
C67 O64 1.259 . S
C68 O65 1.252 . S
C68 O66 1.273 . S
O69 Mg56 2.010 . S
O69 C61 1.249 . S
Mg70 O71 2.028 . S
Mg70 O77 1.986 . S
Mg70 O79 2.114 1_455 S
Mg70 O80 2.251 . S
Mg70 O83 2.010 1_455 S
O71 Mg70 2.028 . S
O71 C74 1.250 . S
O72 Mg73 2.028 . S
O72 C74 1.248 . S
Mg73 O72 2.028 . S
Mg73 O78 2.032 . S
Mg73 O80 2.079 . S
C74 O71 1.250 . S
C74 O72 1.248 . S
C75 O76 1.264 . S
C75 O83 1.249 . S
O76 C75 1.264 . S
O77 Mg70 1.986 . S
O77 C81 1.246 . S
O78 Mg73 2.032 . S
O78 C81 1.259 . S
O79 Mg70 2.114 1_655 S
O79 C82 1.252 1_655 S
O80 Mg70 2.251 . S
O80 Mg73 2.079 . S
O80 C82 1.273 . S
C81 O77 1.246 . S
C81 O78 1.259 . S
C82 O79 1.252 1_455 S
C82 O80 1.273 . S
O83 Mg70 2.010 1_655 S
O83 C75 1.249 . S
H84 C90 0.930 . S
H85 C93 0.930 . S
H86 C94 0.930 . S
H87 C95 0.930 . S
H88 C98 0.930 . S
H89 C99 0.930 . S
C90 H84 0.930 . S
C90 C91 1.355 . S
C90 C92 1.415 . S
C91 C90 1.355 . S
C91 C93 1.419 . S
C92 C90 1.415 . S
C92 C97 1.425 . S
C92 C99 1.409 . S
C93 H85 0.930 . S
C93 C91 1.419 . S
C93 C94 1.362 . S
C94 H86 0.930 . S
C94 C93 1.362 . S
C94 C97 1.409 . S
C95 H87 0.930 . S
C95 C96 1.355 . S
C95 C97 1.415 . S
C96 C95 1.355 . S
C96 C98 1.419 . S
C97 C92 1.425 . S
C97 C94 1.409 . S
C97 C95 1.415 . S
C98 H88 0.930 . S
C98 C96 1.419 . S
C98 C99 1.362 . S
C99 H89 0.930 . S
C99 C92 1.409 . S
C99 C98 1.362 . S
H100 C106 0.930 . S
H101 C109 0.930 . S
H102 C110 0.930 . S
H103 C111 0.930 . S
H104 C114 0.930 . S
H105 C115 0.930 . S
C106 H100 0.930 . S
C106 C107 1.355 . S
C106 C108 1.415 . S
C107 C106 1.355 . S
C107 C109 1.419 . S
C108 C106 1.415 . S
C108 C113 1.425 . S
C108 C115 1.409 . S
C109 H101 0.930 . S
C109 C107 1.419 . S
C109 C110 1.362 . S
C110 H102 0.930 . S
C110 C109 1.362 . S
C110 C113 1.409 . S
C111 H103 0.930 . S
C111 C112 1.355 . S
C111 C113 1.415 . S
C112 C111 1.355 . S
C112 C114 1.419 . S
C113 C108 1.425 . S
C113 C110 1.409 . S
C113 C111 1.415 . S
C114 H104 0.930 . S
C114 C112 1.419 . S
C114 C115 1.362 . S
C115 H105 0.930 . S
C115 C108 1.409 . S
C115 C114 1.362 . S
H116 C122 0.930 . S
H117 C125 0.930 . S
H118 C126 0.930 . S
H119 C127 0.930 . S
H120 C130 0.930 . S
H121 C131 0.930 . S
C122 H116 0.930 . S
C122 C123 1.355 . S
C122 C124 1.415 . S
C123 C122 1.355 . S
C123 C125 1.419 1_455 S
C124 C122 1.415 . S
C124 C129 1.425 1_455 S
C124 C131 1.409 . S
C125 H117 0.930 . S
C125 C123 1.419 1_655 S
C125 C126 1.362 . S
C126 H118 0.930 . S
C126 C125 1.362 . S
C126 C129 1.409 . S
C127 H119 0.930 . S
C127 C128 1.355 1_655 S
C127 C129 1.415 . S
C128 C127 1.355 1_455 S
C128 C130 1.419 . S
C129 C124 1.425 1_655 S
C129 C126 1.409 . S
C129 C127 1.415 . S
C130 H120 0.930 . S
C130 C128 1.419 . S
C130 C131 1.362 . S
C131 H121 0.930 . S
C131 C124 1.409 . S
C131 C130 1.362 . S
H132 C138 0.930 . S
H133 C141 0.930 . S
H134 C142 0.930 . S
H135 C143 0.930 . S
H136 C146 0.930 . S
H137 C147 0.930 . S
C138 H132 0.930 . S
C138 C139 1.355 1_565 S
C138 C140 1.415 . S
C139 C138 1.355 1_545 S
C139 C141 1.419 . S
C140 C138 1.415 . S
C140 C145 1.425 1_565 S
C140 C147 1.409 . S
C141 H133 0.930 . S
C141 C139 1.419 . S
C141 C142 1.362 . S
C142 H134 0.930 . S
C142 C141 1.362 . S
C142 C145 1.409 . S
C143 H135 0.930 . S
C143 C144 1.355 1_545 S
C143 C145 1.415 . S
C144 C143 1.355 1_565 S
C144 C146 1.419 . S
C145 C140 1.425 1_545 S
C145 C142 1.409 . S
C145 C143 1.415 . S
C146 H136 0.930 . S
C146 C144 1.419 . S
C146 C147 1.362 . S
C147 H137 0.930 . S
C147 C140 1.409 . S
C147 C146 1.362 . S
H148 C154 0.930 . S
H149 C157 0.930 . S
H150 C158 0.930 . S
H151 C159 0.930 . S
H152 C162 0.930 . S
H153 C163 0.930 1_554 S
C154 H148 0.930 . S
C154 C155 1.355 . S
C154 C156 1.415 1_554 S
C155 C154 1.355 . S
C155 C157 1.419 . S
C156 C154 1.415 1_556 S
C156 C161 1.425 . S
C156 C163 1.409 . S
C157 H149 0.930 . S
C157 C155 1.419 . S
C157 C158 1.362 1_554 S
C158 H150 0.930 . S
C158 C157 1.362 1_556 S
C158 C161 1.409 . S
C159 H151 0.930 . S
C159 C160 1.355 . S
C159 C161 1.415 . S
C160 C159 1.355 . S
C160 C162 1.419 . S
C161 C156 1.425 . S
C161 C158 1.409 . S
C161 C159 1.415 . S
C162 H152 0.930 . S
C162 C160 1.419 . S
C162 C163 1.362 . S
C163 H153 0.930 1_556 S
C163 C156 1.409 . S
C163 C162 1.362 . S
H164 C170 0.930 . S
H165 C173 0.930 . S
H166 C174 0.930 . S
H167 C175 0.930 1_655 S
H168 C178 0.930 . S
H169 C179 0.930 . S
C170 H164 0.930 . S
C170 C171 1.355 . S
C170 C172 1.415 . S
C171 C170 1.355 . S
C171 C173 1.419 1_455 S
C172 C170 1.415 . S
C172 C177 1.425 . S
C172 C179 1.409 . S
C173 H165 0.930 . S
C173 C171 1.419 1_655 S
C173 C174 1.362 . S
C174 H166 0.930 . S
C174 C173 1.362 . S
C174 C177 1.409 1_655 S
C175 H167 0.930 1_455 S
C175 C176 1.355 . S
C175 C177 1.415 . S
C176 C175 1.355 . S
C176 C178 1.419 . S
C177 C172 1.425 . S
C177 C174 1.409 1_455 S
C177 C175 1.415 . S
C178 H168 0.930 . S
C178 C176 1.419 . S
C178 C179 1.362 . S
C179 H169 0.930 . S
C179 C172 1.409 . S
C179 C178 1.362 . S
H180 C186 0.930 . S
H181 C189 0.930 . S
H182 C190 0.930 . S
H183 C191 0.930 . S
H184 C194 0.930 . S
H185 C195 0.930 . S
C186 H180 0.930 . S
C186 C187 1.355 . S
C186 C188 1.415 . S
C187 C186 1.355 . S
C187 C189 1.419 . S
C188 C186 1.415 . S
C188 C193 1.425 . S
C188 C195 1.409 . S
C189 H181 0.930 . S
C189 C187 1.419 . S
C189 C190 1.362 . S
C190 H182 0.930 . S
C190 C189 1.362 . S
C190 C193 1.409 . S
C191 H183 0.930 . S
C191 C192 1.355 . S
C191 C193 1.415 . S
C192 C191 1.355 . S
C192 C194 1.419 . S
C193 C188 1.425 . S
C193 C190 1.409 . S
C193 C191 1.415 . S
C194 H184 0.930 . S
C194 C192 1.419 . S
C194 C195 1.362 . S
C195 H185 0.930 . S
C195 C188 1.409 . S
C195 C194 1.362 . S
H196 C202 0.930 . S
H197 C205 0.930 . S
H198 C206 0.930 . S
H199 C207 0.930 . S
H200 C210 0.930 . S
H201 C211 0.930 . S
C202 H196 0.930 . S
C202 C203 1.355 . S
C202 C204 1.415 . S
C203 C202 1.355 . S
C203 C205 1.419 . S
C204 C202 1.415 . S
C204 C209 1.425 . S
C204 C211 1.409 . S
C205 H197 0.930 . S
C205 C203 1.419 . S
C205 C206 1.362 . S
C206 H198 0.930 . S
C206 C205 1.362 . S
C206 C209 1.409 . S
C207 H199 0.930 . S
C207 C208 1.355 . S
C207 C209 1.415 . S
C208 C207 1.355 . S
C208 C210 1.419 . S
C209 C204 1.425 . S
C209 C206 1.409 . S
C209 C207 1.415 . S
C210 H200 0.930 . S
C210 C208 1.419 . S
C210 C211 1.362 . S
C211 H201 0.930 . S
C211 C204 1.409 . S
C211 C210 1.362 . S
H212 C218 0.930 . S
H213 C221 0.930 . S
H214 C222 0.930 . S
H215 C223 0.930 . S
H216 C226 0.930 . S
H217 C227 0.930 . S
C218 H212 0.930 . S
C218 C219 1.355 . S
C218 C220 1.415 . S
C219 C218 1.355 . S
C219 C221 1.419 . S
C220 C218 1.415 . S
C220 C225 1.425 . S
C220 C227 1.409 . S
C221 H213 0.930 . S
C221 C219 1.419 . S
C221 C222 1.362 . S
C222 H214 0.930 . S
C222 C221 1.362 . S
C222 C225 1.409 . S
C223 H215 0.930 . S
C223 C224 1.355 . S
C223 C225 1.415 . S
C224 C223 1.355 . S
C224 C226 1.419 . S
C225 C220 1.425 . S
C225 C222 1.409 . S
C225 C223 1.415 . S
C226 H216 0.930 . S
C226 C224 1.419 . S
C226 C227 1.362 . S
C227 H217 0.930 . S
C227 C220 1.409 . S
C227 C226 1.362 . S
H228 C234 0.930 . S
H229 C237 0.930 . S
H230 C238 0.930 . S
H231 C239 0.930 . S
H232 C242 0.930 . S
H233 C243 0.930 . S
C234 H228 0.930 . S
C234 C235 1.355 . S
C234 C236 1.415 . S
C235 C234 1.355 . S
C235 C237 1.419 . S
C236 C234 1.415 . S
C236 C241 1.425 . S
C236 C243 1.409 . S
C237 H229 0.930 . S
C237 C235 1.419 . S
C237 C238 1.362 . S
C238 H230 0.930 . S
C238 C237 1.362 . S
C238 C241 1.409 . S
C239 H231 0.930 . S
C239 C240 1.355 . S
C239 C241 1.415 . S
C240 C239 1.355 . S
C240 C242 1.419 . S
C241 C236 1.425 . S
C241 C238 1.409 . S
C241 C239 1.415 . S
C242 H232 0.930 . S
C242 C240 1.419 . S
C242 C243 1.362 . S
C243 H233 0.930 . S
C243 C236 1.409 . S
C243 C242 1.362 . S
H244 C250 0.930 . S
H245 C253 0.930 . S
H246 C254 0.930 . S
H247 C255 0.930 . S
H248 C258 0.930 . S
H249 C259 0.930 . S
C250 H244 0.930 . S
C250 C251 1.355 . S
C250 C252 1.415 . S
C251 C250 1.355 . S
C251 C253 1.419 . S
C252 C250 1.415 . S
C252 C257 1.425 . S
C252 C259 1.409 . S
C253 H245 0.930 . S
C253 C251 1.419 . S
C253 C254 1.362 . S
C254 H246 0.930 . S
C254 C253 1.362 . S
C254 C257 1.409 . S
C255 H247 0.930 . S
C255 C256 1.355 . S
C255 C257 1.415 . S
C256 C255 1.355 . S
C256 C258 1.419 . S
C257 C252 1.425 . S
C257 C254 1.409 . S
C257 C255 1.415 . S
C258 H248 0.930 . S
C258 C256 1.419 . S
C258 C259 1.362 . S
C259 H249 0.930 . S
C259 C252 1.409 . S
C259 C258 1.362 . S
H260 C266 0.930 1_554 S
H261 C269 0.930 . S
H262 C270 0.930 . S
H263 C271 0.930 . S
H264 C274 0.930 . S
H265 C275 0.930 . S
C266 H260 0.930 1_556 S
C266 C267 1.355 . S
C266 C268 1.415 1_556 S
C267 C266 1.355 . S
C267 C269 1.419 . S
C268 C266 1.415 1_554 S
C268 C273 1.425 1_554 S
C268 C275 1.409 . S
C269 H261 0.930 . S
C269 C267 1.419 . S
C269 C270 1.362 . S
C270 H262 0.930 . S
C270 C269 1.362 . S
C270 C273 1.409 . S
C271 H263 0.930 . S
C271 C272 1.355 1_556 S
C271 C273 1.415 . S
C272 C271 1.355 1_554 S
C272 C274 1.419 . S
C273 C268 1.425 1_556 S
C273 C270 1.409 . S
C273 C271 1.415 . S
C274 H264 0.930 . S
C274 C272 1.419 . S
C274 C275 1.362 . S
C275 H265 0.930 . S
C275 C268 1.409 . S
C275 C274 1.362 . S
C91 C4 1.322 . S
C96 C54 1.375 . S
C107 C18 1.352 . S
C112 C68 1.382 . S
C123 C82 1.375 . S
C128 C32 1.322 . S
C139 C12 1.370 1_545 S
C144 C46 1.308 . S
C155 C26 1.378 . S
C160 C60 1.351 . S
C171 C74 1.374 1_554 S
C176 C40 1.385 . S
C187 C25 1.416 . S
C192 C5 1.242 . S
C203 C39 1.400 . S
C208 C19 1.341 . S
C219 C33 1.266 . S
C224 C53 1.402 . S
C235 C67 1.400 . S
C240 C47 1.272 . S
C251 C81 1.434 . S
C256 C61 1.234 . S
C267 C75 1.267 . S
C272 C11 1.458 . S
