# Generated by pormake.
# Topology vcc, (6)-cn, num edge types: 1
# Building blocks:
#     Node 0, Type 0, BuildingBlock: KUMJIN_clean_sbu_0, # of connection points: 6
#     Node 1, Type 0, BuildingBlock: KUMJIN_clean_sbu_0, # of connection points: 6
#     Node 2, Type 0, BuildingBlock: KUMJIN_clean_sbu_0, # of connection points: 6
#     Node 3, Type 0, BuildingBlock: KUMJIN_clean_sbu_0, # of connection points: 6
#     Node 4, Type 0, BuildingBlock: KUMJIN_clean_sbu_0, # of connection points: 6
#     Node 5, Type 0, BuildingBlock: KUMJIN_clean_sbu_0, # of connection points: 6
#     Node 6, Type 0, BuildingBlock: KUMJIN_clean_sbu_0, # of connection points: 6
#     Node 7, Type 0, BuildingBlock: KUMJIN_clean_sbu_0, # of connection points: 6
#     Node 8, Type 0, BuildingBlock: KUMJIN_clean_sbu_0, # of connection points: 6
#     Node 9, Type 0, BuildingBlock: KUMJIN_clean_sbu_0, # of connection points: 6
#     Node 10, Type 0, BuildingBlock: KUMJIN_clean_sbu_0, # of connection points: 6
#     Node 11, Type 0, BuildingBlock: KUMJIN_clean_sbu_0, # of connection points: 6
#     Node 12, Type 0, BuildingBlock: KUMJIN_clean_sbu_0, # of connection points: 6
#     Node 13, Type 0, BuildingBlock: KUMJIN_clean_sbu_0, # of connection points: 6
#     Node 14, Type 0, BuildingBlock: KUMJIN_clean_sbu_0, # of connection points: 6
#     Node 15, Type 0, BuildingBlock: KUMJIN_clean_sbu_0, # of connection points: 6
#     Node 16, Type 0, BuildingBlock: KUMJIN_clean_sbu_0, # of connection points: 6
#     Node 17, Type 0, BuildingBlock: KUMJIN_clean_sbu_0, # of connection points: 6
#     Node 18, Type 0, BuildingBlock: KUMJIN_clean_sbu_0, # of connection points: 6
#     Node 19, Type 0, BuildingBlock: KUMJIN_clean_sbu_0, # of connection points: 6
#     Node 20, Type 0, BuildingBlock: KUMJIN_clean_sbu_0, # of connection points: 6
#     Node 21, Type 0, BuildingBlock: KUMJIN_clean_sbu_0, # of connection points: 6
#     Node 22, Type 0, BuildingBlock: KUMJIN_clean_sbu_0, # of connection points: 6
#     Node 23, Type 0, BuildingBlock: KUMJIN_clean_sbu_0, # of connection points: 6
#     Node 24, Type 0, BuildingBlock: KUMJIN_clean_sbu_0, # of connection points: 6
#     Node 25, Type 0, BuildingBlock: KUMJIN_clean_sbu_0, # of connection points: 6
#     Node 26, Type 0, BuildingBlock: KUMJIN_clean_sbu_0, # of connection points: 6
#     Node 27, Type 0, BuildingBlock: KUMJIN_clean_sbu_0, # of connection points: 6
#     Node 28, Type 0, BuildingBlock: KUMJIN_clean_sbu_0, # of connection points: 6
#     Node 29, Type 0, BuildingBlock: KUMJIN_clean_sbu_0, # of connection points: 6
#     Node 30, Type 0, BuildingBlock: KUMJIN_clean_sbu_0, # of connection points: 6
#     Node 31, Type 0, BuildingBlock: KUMJIN_clean_sbu_0, # of connection points: 6
#     Edge 32, Type (0, 0), BuildingBlock: UVAHIK_clean_linker_0, # of connection points: 2
#     Edge 33, Type (0, 0), BuildingBlock: UVAHIK_clean_linker_0, # of connection points: 2
#     Edge 34, Type (0, 0), BuildingBlock: UVAHIK_clean_linker_0, # of connection points: 2
#     Edge 35, Type (0, 0), BuildingBlock: UVAHIK_clean_linker_0, # of connection points: 2
#     Edge 36, Type (0, 0), BuildingBlock: UVAHIK_clean_linker_0, # of connection points: 2
#     Edge 37, Type (0, 0), BuildingBlock: UVAHIK_clean_linker_0, # of connection points: 2
#     Edge 38, Type (0, 0), BuildingBlock: UVAHIK_clean_linker_0, # of connection points: 2
#     Edge 39, Type (0, 0), BuildingBlock: UVAHIK_clean_linker_0, # of connection points: 2
#     Edge 40, Type (0, 0), BuildingBlock: UVAHIK_clean_linker_0, # of connection points: 2
#     Edge 41, Type (0, 0), BuildingBlock: UVAHIK_clean_linker_0, # of connection points: 2
#     Edge 42, Type (0, 0), BuildingBlock: UVAHIK_clean_linker_0, # of connection points: 2
#     Edge 43, Type (0, 0), BuildingBlock: UVAHIK_clean_linker_0, # of connection points: 2
#     Edge 44, Type (0, 0), BuildingBlock: UVAHIK_clean_linker_0, # of connection points: 2
#     Edge 45, Type (0, 0), BuildingBlock: UVAHIK_clean_linker_0, # of connection points: 2
#     Edge 46, Type (0, 0), BuildingBlock: UVAHIK_clean_linker_0, # of connection points: 2
#     Edge 47, Type (0, 0), BuildingBlock: UVAHIK_clean_linker_0, # of connection points: 2
#     Edge 48, Type (0, 0), BuildingBlock: UVAHIK_clean_linker_0, # of connection points: 2
#     Edge 49, Type (0, 0), BuildingBlock: UVAHIK_clean_linker_0, # of connection points: 2
#     Edge 50, Type (0, 0), BuildingBlock: UVAHIK_clean_linker_0, # of connection points: 2
#     Edge 51, Type (0, 0), BuildingBlock: UVAHIK_clean_linker_0, # of connection points: 2
#     Edge 52, Type (0, 0), BuildingBlock: UVAHIK_clean_linker_0, # of connection points: 2
#     Edge 53, Type (0, 0), BuildingBlock: UVAHIK_clean_linker_0, # of connection points: 2
#     Edge 54, Type (0, 0), BuildingBlock: UVAHIK_clean_linker_0, # of connection points: 2
#     Edge 55, Type (0, 0), BuildingBlock: UVAHIK_clean_linker_0, # of connection points: 2
#     Edge 56, Type (0, 0), BuildingBlock: UVAHIK_clean_linker_0, # of connection points: 2
#     Edge 57, Type (0, 0), BuildingBlock: UVAHIK_clean_linker_0, # of connection points: 2
#     Edge 58, Type (0, 0), BuildingBlock: UVAHIK_clean_linker_0, # of connection points: 2
#     Edge 59, Type (0, 0), BuildingBlock: UVAHIK_clean_linker_0, # of connection points: 2
#     Edge 60, Type (0, 0), BuildingBlock: UVAHIK_clean_linker_0, # of connection points: 2
#     Edge 61, Type (0, 0), BuildingBlock: UVAHIK_clean_linker_0, # of connection points: 2
#     Edge 62, Type (0, 0), BuildingBlock: UVAHIK_clean_linker_0, # of connection points: 2
#     Edge 63, Type (0, 0), BuildingBlock: UVAHIK_clean_linker_0, # of connection points: 2
#     Edge 64, Type (0, 0), BuildingBlock: UVAHIK_clean_linker_0, # of connection points: 2
#     Edge 65, Type (0, 0), BuildingBlock: UVAHIK_clean_linker_0, # of connection points: 2
#     Edge 66, Type (0, 0), BuildingBlock: UVAHIK_clean_linker_0, # of connection points: 2
#     Edge 67, Type (0, 0), BuildingBlock: UVAHIK_clean_linker_0, # of connection points: 2
#     Edge 68, Type (0, 0), BuildingBlock: UVAHIK_clean_linker_0, # of connection points: 2
#     Edge 69, Type (0, 0), BuildingBlock: UVAHIK_clean_linker_0, # of connection points: 2
#     Edge 70, Type (0, 0), BuildingBlock: UVAHIK_clean_linker_0, # of connection points: 2
#     Edge 71, Type (0, 0), BuildingBlock: UVAHIK_clean_linker_0, # of connection points: 2
#     Edge 72, Type (0, 0), BuildingBlock: UVAHIK_clean_linker_0, # of connection points: 2
#     Edge 73, Type (0, 0), BuildingBlock: UVAHIK_clean_linker_0, # of connection points: 2
#     Edge 74, Type (0, 0), BuildingBlock: UVAHIK_clean_linker_0, # of connection points: 2
#     Edge 75, Type (0, 0), BuildingBlock: UVAHIK_clean_linker_0, # of connection points: 2
#     Edge 76, Type (0, 0), BuildingBlock: UVAHIK_clean_linker_0, # of connection points: 2
#     Edge 77, Type (0, 0), BuildingBlock: UVAHIK_clean_linker_0, # of connection points: 2
#     Edge 78, Type (0, 0), BuildingBlock: UVAHIK_clean_linker_0, # of connection points: 2
#     Edge 79, Type (0, 0), BuildingBlock: UVAHIK_clean_linker_0, # of connection points: 2
#     Edge 80, Type (0, 0), BuildingBlock: UVAHIK_clean_linker_0, # of connection points: 2
#     Edge 81, Type (0, 0), BuildingBlock: UVAHIK_clean_linker_0, # of connection points: 2
#     Edge 82, Type (0, 0), BuildingBlock: UVAHIK_clean_linker_0, # of connection points: 2
#     Edge 83, Type (0, 0), BuildingBlock: UVAHIK_clean_linker_0, # of connection points: 2
#     Edge 84, Type (0, 0), BuildingBlock: UVAHIK_clean_linker_0, # of connection points: 2
#     Edge 85, Type (0, 0), BuildingBlock: UVAHIK_clean_linker_0, # of connection points: 2
#     Edge 86, Type (0, 0), BuildingBlock: UVAHIK_clean_linker_0, # of connection points: 2
#     Edge 87, Type (0, 0), BuildingBlock: UVAHIK_clean_linker_0, # of connection points: 2
#     Edge 88, Type (0, 0), BuildingBlock: UVAHIK_clean_linker_0, # of connection points: 2
#     Edge 89, Type (0, 0), BuildingBlock: UVAHIK_clean_linker_0, # of connection points: 2
#     Edge 90, Type (0, 0), BuildingBlock: UVAHIK_clean_linker_0, # of connection points: 2
#     Edge 91, Type (0, 0), BuildingBlock: UVAHIK_clean_linker_0, # of connection points: 2
#     Edge 92, Type (0, 0), BuildingBlock: UVAHIK_clean_linker_0, # of connection points: 2
#     Edge 93, Type (0, 0), BuildingBlock: UVAHIK_clean_linker_0, # of connection points: 2
#     Edge 94, Type (0, 0), BuildingBlock: UVAHIK_clean_linker_0, # of connection points: 2
#     Edge 95, Type (0, 0), BuildingBlock: UVAHIK_clean_linker_0, # of connection points: 2
#     Edge 96, Type (0, 0), BuildingBlock: UVAHIK_clean_linker_0, # of connection points: 2
#     Edge 97, Type (0, 0), BuildingBlock: UVAHIK_clean_linker_0, # of connection points: 2
#     Edge 98, Type (0, 0), BuildingBlock: UVAHIK_clean_linker_0, # of connection points: 2
#     Edge 99, Type (0, 0), BuildingBlock: UVAHIK_clean_linker_0, # of connection points: 2
#     Edge 100, Type (0, 0), BuildingBlock: UVAHIK_clean_linker_0, # of connection points: 2
#     Edge 101, Type (0, 0), BuildingBlock: UVAHIK_clean_linker_0, # of connection points: 2
#     Edge 102, Type (0, 0), BuildingBlock: UVAHIK_clean_linker_0, # of connection points: 2
#     Edge 103, Type (0, 0), BuildingBlock: UVAHIK_clean_linker_0, # of connection points: 2
#     Edge 104, Type (0, 0), BuildingBlock: UVAHIK_clean_linker_0, # of connection points: 2
#     Edge 105, Type (0, 0), BuildingBlock: UVAHIK_clean_linker_0, # of connection points: 2
#     Edge 106, Type (0, 0), BuildingBlock: UVAHIK_clean_linker_0, # of connection points: 2
#     Edge 107, Type (0, 0), BuildingBlock: UVAHIK_clean_linker_0, # of connection points: 2
#     Edge 108, Type (0, 0), BuildingBlock: UVAHIK_clean_linker_0, # of connection points: 2
#     Edge 109, Type (0, 0), BuildingBlock: UVAHIK_clean_linker_0, # of connection points: 2
#     Edge 110, Type (0, 0), BuildingBlock: UVAHIK_clean_linker_0, # of connection points: 2
#     Edge 111, Type (0, 0), BuildingBlock: UVAHIK_clean_linker_0, # of connection points: 2
#     Edge 112, Type (0, 0), BuildingBlock: UVAHIK_clean_linker_0, # of connection points: 2
#     Edge 113, Type (0, 0), BuildingBlock: UVAHIK_clean_linker_0, # of connection points: 2
#     Edge 114, Type (0, 0), BuildingBlock: UVAHIK_clean_linker_0, # of connection points: 2
#     Edge 115, Type (0, 0), BuildingBlock: UVAHIK_clean_linker_0, # of connection points: 2
#     Edge 116, Type (0, 0), BuildingBlock: UVAHIK_clean_linker_0, # of connection points: 2
#     Edge 117, Type (0, 0), BuildingBlock: UVAHIK_clean_linker_0, # of connection points: 2
#     Edge 118, Type (0, 0), BuildingBlock: UVAHIK_clean_linker_0, # of connection points: 2
#     Edge 119, Type (0, 0), BuildingBlock: UVAHIK_clean_linker_0, # of connection points: 2
#     Edge 120, Type (0, 0), BuildingBlock: UVAHIK_clean_linker_0, # of connection points: 2
#     Edge 121, Type (0, 0), BuildingBlock: UVAHIK_clean_linker_0, # of connection points: 2
#     Edge 122, Type (0, 0), BuildingBlock: UVAHIK_clean_linker_0, # of connection points: 2
#     Edge 123, Type (0, 0), BuildingBlock: UVAHIK_clean_linker_0, # of connection points: 2
#     Edge 124, Type (0, 0), BuildingBlock: UVAHIK_clean_linker_0, # of connection points: 2
#     Edge 125, Type (0, 0), BuildingBlock: UVAHIK_clean_linker_0, # of connection points: 2
#     Edge 126, Type (0, 0), BuildingBlock: UVAHIK_clean_linker_0, # of connection points: 2
#     Edge 127, Type (0, 0), BuildingBlock: UVAHIK_clean_linker_0, # of connection points: 2
# Relax obj value: 0.160
# Max RMSD: 0.181
# Mean RMSD: 0.180
data_MOF--net-vcc--node1-KUMJIN_clean_sbu_0--edge1-UVAHIK_clean_linker_0
_symmetry_space_group_name_H-M    P1
_symmetry_Int_Tables_number       1
_symmetry_cell_setting            triclinic
loop_
_symmetry_equiv_pos_as_xyz
'x, y, z'
_cell_length_a     46.044791
_cell_length_b     75.121472
_cell_length_c     65.529139
_cell_angle_alpha  89.990168
_cell_angle_beta   90.007044
_cell_angle_gamma 89.999984
loop_
_atom_site_label
_atom_site_type_symbol
_atom_site_fract_x
_atom_site_fract_y
_atom_site_fract_z
_atom_type_partial_charge
Eu0 Eu 0.39172 0.0107 0.09179 0.0
C1 C 0.27884 0.99085 0.08371 0.0
C2 C 0.24688 0.01627 0.08769 0.0
C3 C 0.23546 0.99358 0.06259 0.0
C4 C 0.27214 0.00676 0.09345 0.0
C5 C 0.26017 0.98397 0.06847 0.0
C6 C 0.229 0.00978 0.07202 0.0
C7 C 0.2921 0.95868 0.06529 0.0
N8 N 0.30373 0.98221 0.0888 0.0
C9 C 0.31028 0.96617 0.08005 0.0
C10 C 0.26699 0.96765 0.0594 0.0
Eu11 Eu 0.33015 0.99374 0.1169 0.0
N12 N 0.28944 0.01257 0.10899 0.0
C13 C 0.28021 0.0266 0.12077 0.0
C14 C 0.23969 0.03179 0.09826 0.0
C15 C 0.25614 0.03678 0.1151 0.0
H16 H 0.32912 0.95876 0.08464 0.0
H17 H 0.24974 0.04816 0.12417 0.0
H18 H 0.20972 0.01699 0.0674 0.0
H19 H 0.2975 0.94599 0.05847 0.0
H20 H 0.29046 0.02992 0.13506 0.0
H21 H 0.47754 0.9736 0.13129 0.0
H22 H 0.22067 0.0395 0.09417 0.0
H23 H 0.39318 0.05485 0.08061 0.0
H24 H 0.43596 0.97745 0.10858 0.0
H25 H 0.41544 0.08239 0.09397 0.0
H26 H 0.2212 0.98861 0.05074 0.0
H27 H 0.49837 -0.00052 0.14935 0.0
H28 H 0.49873 0.03235 0.1552 0.0
H29 H 0.25312 0.96192 0.04777 0.0
H30 H 0.4811 0.06204 0.14553 0.0
N31 N 0.43171 0.00536 0.11394 0.0
C32 C 0.44417 0.98896 0.11638 0.0
C33 C 0.47989 0.00132 0.13933 0.0
C34 C 0.46826 0.01824 0.13587 0.0
C35 C 0.46819 0.98669 0.12917 0.0
C36 C 0.44416 0.01994 0.12263 0.0
H37 H 0.45042 0.08083 0.12253 0.0
N38 N 0.41341 0.038 0.10257 0.0
C39 C 0.42075 0.06967 0.10077 0.0
C40 C 0.43436 0.03671 0.11708 0.0
C41 C 0.40814 0.05406 0.0933 0.0
C42 C 0.44037 0.06873 0.11694 0.0
C43 C 0.4482 0.0521 0.1248 0.0
O44 O 0.42802 0.02098 0.07391 0.0
O45 O 0.34638 0.00015 0.08469 0.0
O46 O 0.35964 0.97026 0.11225 0.0
O47 O 0.39356 0.98041 0.08873 0.0
O48 O 0.35791 0.02364 0.07057 0.0
O49 O 0.40452 0.9982 0.06301 0.0
O50 O 0.3169 0.96681 0.1246 0.0
O51 O 0.37888 0.99724 0.12158 0.0
O52 O 0.3642 0.03394 0.10302 0.0
O53 O 0.33731 0.02179 0.1292 0.0
O54 O 0.35397 0.99842 0.14752 0.0
O55 O 0.29577 0.98907 0.13923 0.0
C56 C 0.33753 0.01175 0.07149 0.0
C57 C 0.42295 0.01786 1.03836 0.0
C58 C 0.42852 0.01376 1.00194 0.0
C59 C 0.42875 0.00683 1.0217 0.0
C60 C 0.42228 0.03182 0.99872 0.0
C61 C 0.41637 0.03593 1.0351 0.0
C62 C 0.41606 0.04285 1.01531 0.0
C63 C 0.38082 0.9675 0.09913 0.0
C64 C 0.424 0.01012 0.05885 0.0
C65 C 0.47055 0.05037 0.13923 0.0
C66 C 0.48064 0.03347 0.14469 0.0
C67 C 0.38058 -0.00017 0.14116 0.0
C68 C 0.29981 0.9619 0.15747 0.0
C69 C 0.30546 0.97068 0.1758 0.0
C70 C 0.30595 0.96123 0.19418 0.0
C71 C 0.30235 0.94265 0.19397 0.0
C72 C 0.29582 0.94338 0.15738 0.0
C73 C 0.29744 0.93378 0.17558 0.0
C74 C 0.34922 0.03559 0.12002 0.0
C75 C 0.29833 0.97179 0.13831 0.0
H76 H 0.43367 0.99285 1.0241 0.0
H77 H 0.42194 0.03728 0.98342 0.0
H78 H 0.41156 0.04469 0.04776 0.0
H79 H 0.41103 0.05676 1.01282 0.0
H80 H 0.30888 0.98496 0.17588 0.0
H81 H 0.30226 0.93509 0.20805 0.0
H82 H 0.29151 0.93638 0.14324 0.0
H83 H 0.29431 0.9195 0.17548 0.0
Eu84 Eu 0.91475 0.2358 0.08815 0.0
C85 C 1.02849 0.26315 0.08084 0.0
C86 C 0.06047 0.23756 0.07922 0.0
C87 C 0.07403 0.26482 0.0619 0.0
C88 C 0.0349 0.24581 0.08668 0.0
C89 C 0.04781 0.27264 0.06802 0.0
C90 C 0.08032 0.24732 0.06745 0.0
C91 C 1.01299 0.29651 0.06651 0.0
N92 N 1.0024 0.27022 0.08622 0.0
C93 C 0.99451 0.2867 0.07911 0.0
C94 C 0.03987 0.28954 0.06109 0.0
Eu95 Eu 0.97669 0.25457 0.11223 0.0
N96 N 1.01478 0.23641 0.09755 0.0
C97 C 1.01777 0.21826 0.09896 0.0
C98 C 0.06465 0.21943 0.0827 0.0
C99 C 0.04282 0.20967 0.09209 0.0
H100 H 0.97472 0.29296 0.08383 0.0
H101 H 0.04497 0.19539 0.09369 0.0
H102 H 0.10009 0.2412 0.06186 0.0
H103 H 1.00662 0.3096 0.06125 0.0
H104 H 1.00096 0.2098 0.10453 0.0
H105 H 0.82919 0.27331 0.12704 0.0
H106 H 0.08384 0.21265 0.07711 0.0
H107 H 0.92114 0.19133 0.08113 0.0
H108 H 0.87291 0.26947 0.10623 0.0
H109 H 0.89583 0.16377 0.09169 0.0
H110 H 0.08912 0.27199 0.05222 0.0
H111 H 0.80362 0.24701 0.14082 0.0
H112 H 0.7996 0.21391 0.14332 0.0
H113 H 0.05412 0.29718 0.05127 0.0
H114 H 0.8176 0.18427 0.13376 0.0
N115 N 0.8733 0.2412 0.10855 0.0
C116 C 0.86242 0.25782 0.11218 0.0
C117 C 0.82303 0.24521 0.13171 0.0
C118 C 0.83355 0.22817 0.12729 0.0
C119 C 0.83739 0.26008 0.12395 0.0
C120 C 0.85905 0.22651 0.11544 0.0
H121 H 0.85317 0.16552 0.11451 0.0
N122 N 0.89364 0.20839 0.09848 0.0
C123 C 0.88827 0.17657 0.09709 0.0
C124 C 0.86936 0.20971 0.1102 0.0
C125 C 0.90251 0.19216 0.09115 0.0
C126 C 0.86421 0.17763 0.10997 0.0
C127 C 0.85423 0.1943 0.11648 0.0
O128 O 0.89903 0.22014 0.06283 0.0
O129 O 0.95902 0.2481 0.08061 0.0
O130 O 0.94464 0.27676 0.10719 0.0
O131 O 0.91339 0.26582 0.08229 0.0
O132 O 0.95042 0.22395 0.0674 0.0
O133 O 0.88119 0.24652 0.06761 0.0
O134 O 0.9934 0.28049 0.12034 0.0
O135 O 0.92923 0.24843 0.11725 0.0
O136 O 0.93208 0.21598 0.11175 0.0
O137 O 0.97466 0.2269 0.12655 0.0
O138 O 0.95147 0.25464 0.14296 0.0
O139 O 1.00927 0.25741 0.13645 0.0
C140 C 0.96897 0.23684 0.06764 0.0
C141 C 0.87766 0.2333 1.03416 0.0
C142 C 0.87313 0.24965 1.00237 0.0
C143 C 0.87801 0.24957 1.02352 0.0
C144 C 0.86842 0.23357 0.99195 0.0
C145 C 0.87273 0.21735 1.02346 0.0
C146 C 0.86831 0.2175 1.00247 0.0
C147 C 0.92446 0.27902 0.09319 0.0
C148 C 0.88089 0.23213 0.05641 0.0
C149 C 0.82935 0.19597 0.12869 0.0
C150 C 0.81908 0.21284 0.13411 0.0
C151 C 0.92582 0.25018 0.13677 0.0
C152 C 1.00242 0.28453 0.15494 0.0
C153 C 1.00584 0.27609 0.17379 0.0
C154 C 0.99885 0.28503 0.1919 0.0
C155 C 0.98802 0.30248 0.19109 0.0
C156 C 0.99221 0.30221 0.15437 0.0
C157 C 0.98484 0.31104 0.17236 0.0
C158 C 0.95445 0.21442 0.12437 0.0
C159 C 1.00816 0.27481 0.13584 0.0
H160 H 0.88168 0.26199 1.03154 0.0
H161 H 0.86488 0.23349 0.9756 0.0
H162 H 0.8721 0.2047 1.03143 0.0
H163 H 0.86461 0.20515 0.99436 0.0
H164 H 1.01367 0.26249 0.17442 0.0
H165 H 0.98273 0.30964 0.20495 0.0
H166 H 0.98952 0.30915 0.14 0.0
H167 H 0.97679 0.32456 0.17178 0.0
Eu168 Eu 0.3943 0.23676 0.2406 0.0
C169 C 0.28182 0.2571 0.24675 0.0
C170 C 0.24959 0.23202 0.24169 0.0
C171 C 0.23815 0.25409 0.2675 0.0
C172 C 0.2751 0.24152 0.23652 0.0
C173 C 0.26294 0.2638 0.26196 0.0
C174 C 0.23166 0.23813 0.25754 0.0
C175 C 0.29437 0.28929 0.26525 0.0
N176 N 0.30671 0.26581 0.24185 0.0
C177 C 0.31272 0.28197 0.25048 0.0
C178 C 0.26949 0.28009 0.27117 0.0
Eu179 Eu 0.335 0.25411 0.21462 0.0
N180 N 0.29241 0.23622 0.2208 0.0
C181 C 0.28274 0.22296 0.20807 0.0
C182 C 0.2421 0.21705 0.23024 0.0
C183 C 0.2584 0.21275 0.21307 0.0
H184 H 0.33126 0.28958 0.24573 0.0
H185 H 0.25175 0.20187 0.2033 0.0
H186 H 0.21221 0.2309 0.26177 0.0
H187 H 0.29944 0.30206 0.27202 0.0
H188 H 0.29318 0.22021 0.19366 0.0
H189 H 0.47962 0.27898 0.20799 0.0
H190 H 0.22288 0.20933 0.23384 0.0
H191 H 0.3978 0.19158 0.24536 0.0
H192 H 0.43795 0.27183 0.22961 0.0
H193 H 0.42075 0.16608 0.22811 0.0
H194 H 0.22375 0.25888 0.27937 0.0
H195 H 0.50269 0.25552 0.18711 0.0
H196 H 0.5051 0.22346 0.17692 0.0
H197 H 0.25545 0.28571 0.28277 0.0
H198 H 0.48815 0.19273 0.18174 0.0
N199 N 0.43528 0.24471 0.22026 0.0
C200 C 0.4468 0.26149 0.22019 0.0
C201 C 0.48399 0.25231 0.19645 0.0
C202 C 0.47327 0.23493 0.19744 0.0
C203 C 0.47097 0.26558 0.20816 0.0
C204 C 0.44885 0.23143 0.2099 0.0
H205 H 0.4568 0.17119 0.2008 0.0
N206 N 0.41779 0.2111 0.22629 0.0
C207 C 0.42593 0.17952 0.22337 0.0
C208 C 0.4394 0.21415 0.21266 0.0
C209 C 0.4127 0.19403 0.2329 0.0
C210 C 0.4462 0.18246 0.20795 0.0
C211 C 0.454 0.19991 0.20297 0.0
O212 O 0.42233 0.222 0.2615 0.0
O213 O 0.34922 0.24796 0.24725 0.0
O214 O 0.36621 0.27674 0.21962 0.0
O215 O 0.39265 0.26676 0.24725 0.0
O216 O 0.35881 0.2238 0.26034 0.0
O217 O 0.41427 0.24967 0.26701 0.0
O218 O 0.32677 0.28157 0.206 0.0
O219 O 0.38413 0.25063 0.2104 0.0
O220 O 0.3661 0.21365 0.22959 0.0
O221 O 0.34016 0.22577 0.20305 0.0
O222 O 0.35848 0.2447 0.1855 0.0
O223 O 0.30288 0.2606 0.19127 0.0
C224 C 0.33936 0.2362 0.25983 0.0
C225 C 0.41584 0.23102 0.29554 0.0
C226 C 0.4134 0.24079 0.33075 0.0
C227 C 0.42418 0.24283 0.31094 0.0
C228 C 0.39448 0.22665 0.33524 0.0
C229 C 0.39731 0.21668 0.30023 0.0
C230 C 0.38672 0.21455 0.32004 0.0
C231 C 0.38333 0.27975 0.23528 0.0
C232 C 0.42436 0.23492 0.27446 0.0
C233 C 0.47696 0.20347 0.18949 0.0
C234 C 0.48668 0.22095 0.1868 0.0
C235 C 0.38532 0.24547 0.19153 0.0
C236 C 0.31551 0.28603 0.17176 0.0
C237 C 0.31228 0.27648 0.15363 0.0
C238 C 0.31907 0.28434 0.13493 0.0
C239 C 0.32989 0.30182 0.13438 0.0
C240 C 0.32574 0.30365 0.17109 0.0
C241 C 0.33314 0.31143 0.15246 0.0
C242 C 0.3512 0.21193 0.21256 0.0
C243 C 0.30911 0.27751 0.19136 0.0
H244 H 0.43825 0.25398 0.30734 0.0
H245 H 0.386 0.22489 0.35053 0.0
H246 H 0.39058 0.20732 0.28859 0.0
H247 H 0.37226 0.20361 0.32355 0.0
H248 H 0.30447 0.26287 0.15397 0.0
H249 H 0.33502 0.30818 0.12 0.0
H250 H 0.32829 0.31133 0.18498 0.0
H251 H 0.34114 0.32497 0.15201 0.0
Eu252 Eu 0.91508 0.01056 0.24048 0.0
C253 C 1.02676 0.98513 0.25056 0.0
C254 C 0.06026 0.00999 0.25301 0.0
C255 C 0.07009 0.98295 0.27192 0.0
C256 C 0.03487 0.00223 0.24458 0.0
C257 C 0.04436 0.97546 0.26444 0.0
C258 C 0.07792 0.00018 0.26633 0.0
C259 C 1.00887 0.95197 0.26414 0.0
N260 N 1.00096 0.97837 0.24396 0.0
C261 C 0.99203 0.96194 0.25063 0.0
C262 C 0.03522 0.95869 0.27099 0.0
Eu263 Eu 0.97888 0.9943 0.21651 0.0
N264 N 1.01717 0.01169 0.23181 0.0
C265 C 1.02375 0.02914 0.22769 0.0
C266 C 0.06688 0.02764 0.24839 0.0
C267 C 0.04835 0.03728 0.2359 0.0
H268 H 0.9726 0.95581 0.24518 0.0
H269 H 0.05308 0.05107 0.23244 0.0
H270 H 0.09744 0.00598 0.27275 0.0
H271 H 1.00161 0.93896 0.26908 0.0
H272 H 1.01072 0.03733 0.21818 0.0
H273 H 0.82951 0.97819 0.19496 0.0
H274 H 0.08596 0.03404 0.25471 0.0
H275 H 0.91899 0.05313 0.25645 0.0
H276 H 0.87235 0.97901 0.2166 0.0
H277 H 0.89347 0.08161 0.25054 0.0
H278 H 0.08371 0.97568 0.28254 0.0
H279 H 0.80519 0.00606 0.18473 0.0
H280 H 0.8018 0.0391 0.18725 0.0
H281 H 0.04816 0.95092 0.28155 0.0
H282 H 0.81894 0.0671 0.20236 0.0
N283 N 0.87393 0.00743 0.21878 0.0
C284 C 0.86254 0.99147 0.21259 0.0
C285 C 0.82429 0.00662 0.19438 0.0
C286 C 0.83497 0.02287 0.20155 0.0
C287 C 0.8379 0.99087 0.20016 0.0
C288 C 0.86001 0.02292 0.21405 0.0
H289 H 0.85249 0.08295 0.22622 0.0
N290 N 0.89289 0.0386 0.23547 0.0
C291 C 0.88664 0.06972 0.24256 0.0
C292 C 0.86969 0.03886 0.2226 0.0
C293 C 0.90093 0.05358 0.24595 0.0
C294 C 0.86356 0.07042 0.22878 0.0
C295 C 0.85457 0.05488 0.2188 0.0
O296 O 0.87844 0.01798 0.2598 0.0
O297 O 0.96069 0.00064 0.24798 0.0
O298 O 0.94902 0.97061 0.21859 0.0
O299 O 0.91097 0.98041 0.23913 0.0
O300 O 0.94864 0.02411 0.26163 0.0
O301 O 0.90557 0.99594 0.26856 0.0
O302 O 0.99896 0.96933 0.20824 0.0
O303 O 0.93142 0.00025 0.21072 0.0
O304 O 0.93472 0.03345 0.22215 0.0
O305 O 0.974 0.02238 0.20346 0.0
O306 O 0.9543 0.99344 0.18547 0.0
O307 O 1.01421 0.99372 0.19416 0.0
C308 C 0.96914 0.01231 0.26109 0.0
C309 C 0.88631 0.0135 0.29482 0.0
C310 C 0.88224 0.00794 0.33103 0.0
C311 C 0.87985 0.00201 0.31093 0.0
C312 C 0.89094 0.02547 0.33513 0.0
C313 C 0.895 0.03108 0.29892 0.0
C314 C 0.89719 0.03704 0.31905 0.0
C315 C 0.9253 0.96778 0.22938 0.0
C316 C 0.88478 0.00661 0.27398 0.0
C317 C 0.83057 0.05488 0.20561 0.0
C318 C 0.82082 0.03893 0.197 0.0
C319 C 0.92845 0.99802 0.19124 0.0
C320 C 1.01647 0.96655 0.17527 0.0
C321 C 1.01165 0.97522 0.15673 0.0
C322 C 1.01187 0.96558 0.13846 0.0
C323 C 1.01596 0.94704 0.13889 0.0
C324 C 1.02103 0.94805 0.17552 0.0
C325 C 1.02049 0.93834 0.1574 0.0
C326 C 0.95549 0.0353 0.20829 0.0
C327 C 1.01588 0.97632 0.19458 0.0
H328 H 0.87346 0.98837 0.30785 0.0
H329 H 0.89301 0.03012 0.35071 0.0
H330 H 0.90026 0.04015 0.28668 0.0
H331 H 0.90395 0.05057 0.32218 0.0
H332 H 1.00797 0.98947 0.15642 0.0
H333 H 1.01667 0.93938 0.1249 0.0
H334 H 1.02478 0.94111 0.18978 0.0
H335 H 1.02398 0.92409 0.15767 0.0
Eu336 Eu 0.72173 0.00304 0.96747 0.0
C337 C 0.61866 0.9621 0.96241 0.0
C338 C 0.58438 0.98246 0.94662 0.0
C339 C 0.58234 0.951 0.93845 0.0
C340 C 0.60847 0.97932 0.95953 0.0
C341 C 0.605 0.94772 0.95228 0.0
C342 C 0.57192 0.96831 0.93574 0.0
C343 C 0.63285 0.92752 0.97304 0.0
N344 N 0.63995 0.95918 0.97641 0.0
C345 C 0.64502 0.94211 0.98308 0.0
C346 C 0.61327 0.93034 0.95719 0.0
Eu347 Eu 0.65955 0.98528 0.99244 0.0
N348 N 0.6212 0.99293 0.9699 0.0
C349 C 0.60953 0.00966 0.96912 0.0
C350 C 0.57309 -0.0003 0.94526 0.0
C351 C 0.5855 0.0133 0.95678 0.0
H352 H 0.65908 0.93966 0.99601 0.0
H353 H 0.57659 0.02662 0.95616 0.0
H354 H 0.55376 0.97056 0.92554 0.0
H355 H 0.63818 0.91411 0.97781 0.0
H356 H 0.61818 0.02026 0.97829 0.0
H357 H 0.80626 0.95098 0.96223 0.0
H358 H 0.55457 0.00258 0.93561 0.0
H359 H 0.72251 0.04013 0.99682 0.0
H360 H 0.7644 0.96792 0.95061 0.0
H361 H 0.75224 0.05404 1.02309 0.0
H362 H 0.5719 0.94013 0.93043 0.0
H363 H 0.83452 0.96113 0.99201 0.0
H364 H 0.8438 0.98461 1.01802 0.0
H365 H 0.6034 0.919 0.94968 0.0
H366 H 0.8303 0.01314 1.0336 0.0
N367 N 0.76433 0.98605 0.97594 0.0
C368 C 0.77447 0.97192 0.96473 0.0
C369 C 0.81508 0.96828 0.98757 0.0
C370 C 0.80679 0.98387 0.99758 0.0
C371 C 0.79911 0.96247 0.97084 0.0
C372 C 0.78097 0.99259 0.99141 0.0
H373 H 0.79673 0.03913 1.03534 0.0
N374 N 0.7479 0.01645 0.99479 0.0
C375 C 0.75817 0.04109 1.01715 0.0
C376 C 0.77309 0.0085 1.00054 0.0
C377 C 0.74081 0.03283 1.00246 0.0
C378 C 0.78336 0.03272 1.02388 0.0
C379 C 0.79118 0.01628 1.01558 0.0
O380 O 0.73073 0.03023 0.95818 0.0
O381 O 0.67257 -0.00051 0.96264 0.0
O382 O 0.69019 0.96277 0.98268 0.0
O383 O 0.71678 0.9747 0.95609 0.0
O384 O 0.69919 0.99403 0.93792 0.0
O385 O 0.7539 0.00862 0.94386 0.0
O386 O 0.637 0.96831 1.01435 0.0
O387 O 0.70619 0.99341 0.99808 0.0
O388 O 0.68954 0.02512 0.97324 0.0
O389 O 0.66144 0.01497 1.00013 0.0
O390 O 0.686 0.98217 1.0224 0.0
O391 O 0.62327 0.99563 1.01011 0.0
C392 C 0.67217 0.99471 0.94356 0.0
C393 C 0.74114 0.03361 0.92358 0.0
C394 C 0.73762 0.03119 0.88677 0.0
C395 C 0.74468 0.02376 0.90567 0.0
C396 C 0.72621 0.04852 0.88583 0.0
C397 C 0.73026 0.05108 0.92247 0.0
C398 C 0.72259 0.0584 0.90366 0.0
C399 C 0.70545 0.96096 0.96571 0.0
C400 C 0.74792 0.0256 0.94344 0.0
C401 C 0.81646 0.00747 1.02191 0.0
C402 C 0.82409 0.99121 1.01308 0.0
C403 C 0.7104 0.9892 1.017 0.0
C404 C 0.61216 0.98192 0.04148 0.0
C405 C 0.62605 0.99438 0.05401 0.0
C406 C 0.61875 0.99556 0.07474 0.0
C407 C 0.59752 0.984 0.08276 0.0
C408 C 0.59107 0.97051 0.04964 0.0
C409 C 0.5838 0.97157 0.07024 0.0
C410 C 0.67167 0.02796 0.98859 0.0
C411 C 0.61889 0.98072 1.01979 0.0
H412 H 0.75301 0.01027 0.90635 0.0
H413 H 0.72097 0.0546 0.8713 0.0
H414 H 0.72744 0.059 0.93614 0.0
H415 H 0.71413 0.07183 0.90288 0.0
H416 H 0.64225 0.00323 0.04757 0.0
H417 H 0.59191 0.98431 0.09881 0.0
H418 H 0.58021 0.96083 1.04004 0.0
H419 H 0.56759 0.96269 0.07653 0.0
Eu420 Eu 0.0836 0.74332 0.96873 0.0
C421 C 0.18926 0.78982 0.97351 0.0
C422 C 0.22567 0.77432 0.95339 0.0
C423 C 0.22832 0.80646 0.95733 0.0
C424 C 0.2002 0.77406 0.96537 0.0
C425 C 0.20346 0.80613 0.96974 0.0
C426 C 0.23939 0.79061 0.94919 0.0
C427 C 0.16836 0.82059 0.99166 0.0
N428 N 0.16498 0.78919 0.98535 0.0
C429 C 0.15515 0.80411 0.99516 0.0
C430 C 0.19247 0.82163 0.97877 0.0
Eu431 Eu 0.14657 0.76036 0.99194 0.0
N432 N 0.18658 0.75845 0.96967 0.0
C433 C 0.19816 0.74258 0.96354 0.0
C434 C 0.23695 0.75815 0.94631 0.0
C435 C 0.22327 0.7422 0.95157 0.0
H436 H 0.13674 0.80325 1.00534 0.0
H437 H 0.23206 0.72962 0.94641 0.0
H438 H 0.25885 0.79105 0.93991 0.0
H439 H 0.1601 0.83244 0.99902 0.0
H440 H 0.18783 0.73021 0.96774 0.0
H441 H 1.01677 0.8028 0.9889 0.0
H442 H 0.25642 0.75781 0.93704 0.0
H443 H 0.0858 0.70488 0.99688 0.0
H444 H 0.06036 0.78834 0.97751 0.0
H445 H 0.0538 0.68802 1.01925 0.0
H446 H 0.23941 0.81888 0.95417 0.0
H447 H 0.97786 0.78557 1.00547 0.0
H448 H 0.96127 0.7569 1.02027 0.0
H449 H 0.20273 0.83441 0.97618 0.0
H450 H 0.97178 0.72589 1.02924 0.0
N451 N 0.04644 0.76167 0.98437 0.0
C452 C 0.04363 0.77986 0.9832 0.0
C453 C 0.99691 0.77875 0.99971 0.0
C454 C 1.00083 0.76055 1.00284 0.0
C455 C 1.01877 0.78849 0.99034 0.0
C456 C 1.02619 0.75226 0.99511 0.0
H457 H 1.00645 0.70048 1.02957 0.0
N458 N 0.05817 0.72765 0.99484 0.0
C459 C 0.0475 0.70118 1.01419 0.0
C460 C 0.03227 0.73478 1.0005 0.0
C461 C 0.06599 0.71108 1.00169 0.0
C462 C 1.02071 0.70818 1.01981 0.0
C463 C 1.01292 0.72521 1.01322 0.0
O464 O 0.06641 0.71756 0.96039 0.0
O465 O 0.13204 0.74664 0.96298 0.0
O466 O 0.13005 0.7813 0.96941 0.0
O467 O 0.08629 0.77143 0.95545 0.0
O468 O 0.10637 0.74746 0.93755 0.0
O469 O 0.04984 0.74084 0.9452 0.0
O470 O 0.16383 0.77089 1.02056 0.0
O471 O 0.1022 0.7487 1.00023 0.0
O472 O 0.11506 0.72041 0.9719 0.0
O473 O 0.14764 0.7302 0.99648 0.0
O474 O 0.11302 0.77179 1.01484 0.0
O475 O 0.18559 0.74896 1.00554 0.0
C476 C 0.13314 0.74904 0.94337 0.0
C477 C 0.05461 0.71379 0.92628 0.0
C478 C 0.05865 0.71353 0.88936 0.0
C479 C 0.05312 0.72268 0.90757 0.0
C480 C 0.06619 0.69543 0.88993 0.0
C481 C 0.06138 0.69551 0.92661 0.0
C482 C 0.06741 0.68646 0.90853 0.0
C483 C 0.1071 0.78357 0.9575 0.0
C484 C 0.05057 0.72346 0.94557 0.0
C485 C 0.98691 0.7331 1.01964 0.0
C486 C 0.98089 0.75074 1.01448 0.0
C487 C 0.0933 0.75956 1.01405 0.0
C488 C 0.19646 0.75366 1.04021 0.0
C489 C 0.1797 0.74213 0.05214 0.0
C490 C 0.18985 0.7366 0.07138 0.0
C491 C 0.21727 0.74262 0.07813 0.0
C492 C 0.22372 0.75935 0.04706 0.0
C493 C 0.23413 0.75377 0.06594 0.0
C494 C 0.13582 0.71744 0.98535 0.0
C495 C 0.18612 0.76021 1.02059 0.0
H496 H 0.04784 0.73674 0.90712 0.0
H497 H 0.07029 0.68811 0.87599 0.0
H498 H 0.06245 0.68827 0.94089 0.0
H499 H 0.07287 0.67245 0.90893 0.0
H500 H 0.15883 0.73767 0.04645 0.0
H501 H 0.22548 0.73916 0.0931 0.0
H502 H 0.23687 0.76823 1.03785 0.0
H503 H 0.25508 0.75835 0.07131 0.0
Eu504 Eu 0.72327 0.74411 0.86502 0.0
C505 C 0.61725 0.78777 0.86128 0.0
C506 C 0.58394 0.77042 0.882 0.0
C507 C 0.57882 0.80256 0.88034 0.0
C508 C 0.6084 0.77143 0.86904 0.0
C509 C 0.60196 0.80343 0.86643 0.0
C510 C 0.56978 0.78609 0.88806 0.0
C511 C 0.63034 0.81926 0.84128 0.0
N512 N 0.63927 0.7882 0.84747 0.0
C513 C 0.64444 0.80336 0.83636 0.0
C514 C 0.6094 0.81937 0.85667 0.0
Eu515 Eu 0.66133 0.76038 0.83986 0.0
N516 N 0.62236 0.75642 0.86288 0.0
C517 C 0.61172 0.73999 0.86783 0.0
C518 C 0.5738 0.75363 0.88792 0.0
C519 C 0.58743 0.73835 0.8805 0.0
H520 H 0.66056 0.80326 0.82435 0.0
H521 H 0.57937 0.72531 0.88464 0.0
H522 H 0.55122 0.78557 0.89821 0.0
H523 H 0.63548 0.83137 0.8331 0.0
H524 H 0.62204 0.72813 0.86209 0.0
H525 H 0.80688 0.79701 0.87166 0.0
H526 H 0.55505 0.75231 0.89781 0.0
H527 H 0.72534 0.70775 0.83512 0.0
H528 H 0.76619 0.77908 0.88328 0.0
H529 H 0.75641 0.69412 0.80921 0.0
H530 H 0.56703 0.81448 0.88462 0.0
H531 H 0.83467 0.7881 0.84116 0.0
H532 H 0.84467 0.76515 0.8147 0.0
H533 H 0.59822 0.83167 0.86027 0.0
H534 H 0.83258 0.73644 0.79897 0.0
N535 N 0.76558 0.76187 0.85704 0.0
C536 C 0.77581 0.7757 0.86878 0.0
C537 C 0.8156 0.78057 0.84557 0.0
C538 C 0.80778 0.76505 0.83526 0.0
C539 C 0.79989 0.78569 0.86269 0.0
C540 C 0.78239 0.75584 0.84138 0.0
H541 H 0.80051 0.70971 0.79734 0.0
N542 N 0.75043 0.73145 0.83777 0.0
C543 C 0.76182 0.70709 0.81531 0.0
C544 C 0.77528 0.73985 0.83213 0.0
C545 C 0.74389 0.71508 0.82986 0.0
C546 C 0.78677 0.71586 0.80877 0.0
C547 C 0.79374 0.73245 0.81707 0.0
O548 O 0.734 0.71697 0.87358 0.0
O549 O 0.67447 0.74741 0.87 0.0
O550 O 0.6803 0.78391 0.85717 0.0
O551 O 0.7194 0.77293 0.87543 0.0
O552 O 0.70064 0.75294 0.89473 0.0
O553 O 0.75502 0.73865 0.88906 0.0
O554 O 0.64471 0.77047 0.81082 0.0
O555 O 0.70661 0.74947 0.83276 0.0
O556 O 0.69155 0.72141 0.86121 0.0
O557 O 0.66406 0.73044 0.83361 0.0
O558 O 0.69503 0.77234 0.81774 0.0
O559 O 0.62258 0.74865 0.8259 0.0
C560 C 0.67369 0.75246 0.88895 0.0
C561 C 0.74445 0.71249 0.90805 0.0
C562 C 0.74324 0.71283 0.94506 0.0
C563 C 0.74978 0.72116 0.92653 0.0
C564 C 0.73099 0.69572 0.94507 0.0
C565 C 0.73277 0.69518 0.90822 0.0
C566 C 0.7259 0.68692 0.92668 0.0
C567 C 0.70193 0.78602 0.87006 0.0
C568 C 0.75057 0.72152 0.88864 0.0
C569 C 0.81849 0.7418 0.81071 0.0
C570 C 0.82529 0.75817 0.81961 0.0
C571 C 0.71562 0.76072 0.81929 0.0
C572 C 0.60708 0.75597 0.79229 0.0
C573 C 0.62048 0.7458 0.77714 0.0
C574 C 0.60675 0.74335 0.75813 0.0
C575 C 0.57893 0.7508 0.75505 0.0
C576 C 0.57934 0.76306 0.78905 0.0
C577 C 0.56525 0.76036 0.77053 0.0
C578 C 0.67379 0.71789 0.84598 0.0
C579 C 0.62189 0.76029 0.81128 0.0
H580 H 0.75882 0.73449 0.92658 0.0
H581 H 0.726 0.68901 0.95928 0.0
H582 H 0.72871 0.68809 0.89411 0.0
H583 H 0.71677 0.67364 0.92672 0.0
H584 H 0.64168 0.74015 0.78019 0.0
H585 H 0.56794 0.74979 0.7405 0.0
H586 H 0.5688 0.77095 0.80076 0.0
H587 H 0.54398 0.76609 0.76796 0.0
Eu588 Eu 0.08256 0.00304 0.86312 0.0
C589 C 0.19189 0.95885 0.85954 0.0
C590 C 0.22671 0.97455 0.88085 0.0
C591 C 0.23132 0.94261 0.87579 0.0
C592 C 0.20161 0.9746 0.86848 0.0
C593 C 0.20686 0.94275 0.863 0.0
C594 C 0.24123 0.95845 0.88466 0.0
C595 C 0.17328 0.92816 0.84002 0.0
N596 N 0.16809 0.95929 0.84722 0.0
C597 C 0.15931 0.94444 0.83683 0.0
C598 C 0.19702 0.92728 0.85326 0.0
Eu599 Eu 0.14853 0.98785 0.8413 0.0
N600 N 0.1872 0.99004 0.8646 0.0
C601 C 0.19758 0.00595 0.87156 0.0
C602 C 0.23683 0.99074 0.88871 0.0
C603 C 0.22233 0.00652 0.88391 0.0
H604 H 0.14118 0.9452 0.82638 0.0
H605 H 0.23019 0.01912 0.8897 0.0
H606 H 0.26043 0.95816 0.89422 0.0
H607 H 0.16589 0.91634 0.83215 0.0
H608 H 0.18661 0.0182 0.86772 0.0
H609 H 1.02262 0.94204 0.83928 0.0
H610 H 0.256 0.99123 0.89827 0.0
H611 H 0.08366 0.04231 0.83612 0.0
H612 H 0.06426 0.9576 0.85255 0.0
H613 H 0.05111 0.05877 0.81378 0.0
H614 H 0.24301 0.93035 0.87869 0.0
H615 H 0.98324 0.95848 0.82217 0.0
H616 H 0.96487 0.98702 0.80802 0.0
H617 H 0.20791 0.91466 0.85559 0.0
H618 H 0.97307 0.01858 0.80046 0.0
N619 N 0.0486 0.98386 0.84571 0.0
C620 C 0.04724 0.96562 0.8464 0.0
C621 C 1.00141 0.96572 0.82862 0.0
C622 C 1.00392 0.9841 0.82617 0.0
C623 C 1.02356 0.95641 0.83828 0.0
C624 C 1.02819 0.99294 0.83475 0.0
H625 H 1.00542 0.04509 0.80192 0.0
N626 N 0.05813 0.01856 0.83653 0.0
C627 C 0.04584 0.04525 0.81812 0.0
C628 C 0.03308 0.01077 0.83008 0.0
C629 C 0.0647 0.03559 0.8306 0.0
C630 C 1.01996 0.03755 0.81164 0.0
C631 C 1.01344 0.02008 0.81735 0.0
O632 O 0.06126 0.02753 0.87179 0.0
O633 O 0.12973 0.99791 0.87054 0.0
O634 O 0.13185 0.9661 0.86298 0.0
O635 O 0.08703 0.97503 0.87636 0.0
O636 O 0.10489 0.00459 0.89493 0.0
O637 O 0.0453 0.00257 0.88395 0.0
O638 O 0.16903 0.97837 0.81331 0.0
O639 O 0.10398 0.99885 0.83219 0.0
O640 O 0.1118 0.027 0.86114 0.0
O641 O 0.14812 0.01818 0.83866 0.0
O642 O 0.11735 0.97651 0.81686 0.0
O643 O 0.18695 0.00123 0.82926 0.0
C644 C 0.13128 0.00036 0.89009 0.0
C645 C 0.03812 0.02933 0.90296 0.0
C646 C 0.04349 0.03149 0.93957 0.0
C647 C 0.04639 0.02176 0.92151 0.0
C648 C 0.03274 0.04899 0.93899 0.0
C649 C 1.02701 0.04673 0.90248 0.0
C650 C 1.02448 0.05655 0.92045 0.0
C651 C 0.10852 0.96329 0.87446 0.0
C652 C 0.04259 0.01992 0.88375 0.0
C653 C 0.9884 0.01156 0.8101 0.0
C654 C 0.98369 0.99361 0.81445 0.0
C655 C 0.09678 0.98819 0.81769 0.0
C656 C 0.20248 0.99654 0.79532 0.0
C657 C 0.18583 0.00607 0.7812 0.0
C658 C 0.19777 0.01089 0.76217 0.0
C659 C 0.22702 0.00647 0.75807 0.0
C660 C 0.23151 0.99247 0.79104 0.0
C661 C 0.24377 0.99753 0.77253 0.0
C662 C 0.13415 0.03049 0.84922 0.0
C663 C 0.19009 0.98997 0.81434 0.0
H664 H 0.05506 0.00834 0.92196 0.0
H665 H 0.02994 0.05659 0.9529 0.0
H666 H 1.02067 0.0528 0.88814 0.0
H667 H 1.01594 0.06997 0.92002 0.0
H668 H 0.16358 0.00937 0.78502 0.0
H669 H 0.23688 0.00932 0.74345 0.0
H670 H 0.24455 0.9851 0.80192 0.0
H671 H 0.26608 0.99409 0.76914 0.0
Eu672 Eu 0.39374 0.51201 0.58852 0.0
C673 C 0.28131 0.49114 0.58247 0.0
C674 C 0.24885 0.51617 0.58721 0.0
C675 C 0.23737 0.49367 0.56191 0.0
C676 C 0.2745 0.50684 0.59246 0.0
C677 C 0.26236 0.48416 0.56747 0.0
C678 C 0.2308 0.50973 0.5716 0.0
C679 C 0.29425 0.45888 0.56428 0.0
N680 N 0.30639 0.48264 0.58736 0.0
C681 C 0.31267 0.46648 0.57881 0.0
C682 C 0.26908 0.46781 0.55845 0.0
Eu683 Eu 0.3345 0.49466 0.61448 0.0
N684 N 0.29192 0.51246 0.60798 0.0
C685 C 0.28232 0.52597 0.62041 0.0
C686 C 0.24137 0.53133 0.59834 0.0
C687 C 0.25786 0.53602 0.61528 0.0
H688 H 0.33148 0.45907 0.58347 0.0
H689 H 0.25124 0.54707 0.62481 0.0
H690 H 0.21122 0.51682 0.56733 0.0
H691 H 0.29949 0.4461 0.5576 0.0
H692 H 0.29283 0.52902 0.6347 0.0
H693 H 0.47978 0.47088 0.6221 0.0
H694 H 0.22205 0.53892 0.59465 0.0
H695 H 0.39658 0.55713 0.58281 0.0
H696 H 0.43812 0.47736 0.60023 0.0
H697 H 0.41898 0.58302 0.5997 0.0
H698 H 0.22289 0.48865 0.55021 0.0
H699 H 0.50201 0.49476 0.64277 0.0
H700 H 0.5035 0.52692 0.65254 0.0
H701 H 0.25499 0.46199 0.54701 0.0
H702 H 0.48598 0.55745 0.64713 0.0
N703 N 0.43459 0.50455 0.60921 0.0
C704 C 0.4466 0.4879 0.60953 0.0
C705 C 0.48332 0.4977 0.6333 0.0
C706 C 0.47215 0.51496 0.63203 0.0
C707 C 0.47078 0.48418 0.62171 0.0
C708 C 0.44775 0.5181 0.61941 0.0
H709 H 0.45461 0.57851 0.62743 0.0
N710 N 0.4165 0.53804 0.60246 0.0
C711 C 0.42424 0.56969 0.60477 0.0
C712 C 0.43797 0.53529 0.61631 0.0
C713 C 0.41135 0.55497 0.59542 0.0
C714 C 0.44427 0.56709 0.62042 0.0
C715 C 0.45223 0.54975 0.62582 0.0
O716 O 0.42448 0.52603 0.56891 0.0
O717 O 0.34865 0.50081 0.58181 0.0
O718 O 0.36569 0.47205 0.6097 0.0
O719 O 0.39313 0.48194 0.58248 0.0
O720 O 0.35856 0.52464 0.56807 0.0
O721 O 0.41212 0.49932 0.56141 0.0
O722 O 0.3255 0.46728 0.62297 0.0
O723 O 0.38368 0.49806 0.61871 0.0
O724 O 0.36533 0.53509 0.59948 0.0
O725 O 0.33981 0.52288 0.62615 0.0
O726 O 0.35815 0.50388 0.64367 0.0
O727 O 0.30281 0.48846 0.63823 0.0
C728 C 0.33884 0.51238 0.56894 0.0
C729 C 0.41872 0.51905 0.53419 0.0
C730 C 0.41676 0.51111 0.4984 0.0
C731 C 0.42546 0.5073 0.51835 0.0
C732 C 0.40188 0.527 0.49416 0.0
C733 C 0.40403 0.53505 0.52984 0.0
C734 C 0.39583 0.53901 0.50984 0.0
C735 C 0.38342 0.46903 0.59438 0.0
C736 C 0.42507 0.51366 0.5552 0.0
C737 C 0.47508 0.54653 0.63951 0.0
C738 C 0.48513 0.52916 0.64253 0.0
C739 C 0.38499 0.50309 0.63764 0.0
C740 C 0.31611 0.46306 0.65753 0.0
C741 C 0.31128 0.47216 0.67577 0.0
C742 C 0.31945 0.46463 0.69438 0.0
C743 C 0.33311 0.44791 0.69472 0.0
C744 C 0.32919 0.44613 0.65801 0.0
C745 C 0.33785 0.4387 0.67654 0.0
C746 C 0.35075 0.53674 0.61667 0.0
C747 C 0.30871 0.4715 0.63805 0.0
H748 H 0.43647 0.49486 0.52165 0.0
H749 H 0.39504 0.53009 0.47874 0.0
H750 H 0.39841 0.54431 0.54188 0.0
H751 H 0.3844 0.55127 0.50655 0.0
H752 H 0.30127 0.48523 0.67556 0.0
H753 H 0.33936 0.44178 0.70902 0.0
H754 H 0.33305 0.43877 0.64405 0.0
H755 H 0.34809 0.42573 0.67683 0.0
Eu756 Eu 0.91498 0.73679 0.59091 0.0
C757 C 1.02803 0.75632 0.5849 0.0
C758 C 0.06026 0.73144 0.59111 0.0
C759 C 0.07197 0.75279 0.56456 0.0
C760 C 0.03463 0.74103 0.59571 0.0
C761 C 0.04713 0.76264 0.56962 0.0
C762 C 0.07835 0.73711 0.57513 0.0
C763 C 1.01594 0.78816 0.56549 0.0
N764 N 1.00316 0.76519 0.58943 0.0
C765 C 0.99736 0.78118 0.58034 0.0
C766 C 0.04079 0.77877 0.55994 0.0
Eu767 Eu 0.97439 0.7541 0.61675 0.0
N768 N 1.0172 0.73622 0.61156 0.0
C769 C 1.02684 0.72347 0.62497 0.0
C770 C 0.06774 0.71689 0.60328 0.0
C771 C 0.05131 0.71316 0.62058 0.0
H772 H 0.97879 0.78891 0.58478 0.0
H773 H 0.05793 0.70264 0.63087 0.0
H774 H 0.0979 0.7298 0.57132 0.0
H775 H 1.01104 0.80081 0.55835 0.0
H776 H 1.01608 0.72117 0.63938 0.0
H777 H 0.82986 0.7822 0.61762 0.0
H778 H 0.08706 0.70912 0.60014 0.0
H779 H 0.90954 0.69127 0.59104 0.0
H780 H 0.87123 0.77278 0.59699 0.0
H781 H 0.88643 0.66775 0.61142 0.0
H782 H 0.08654 0.75728 0.55264 0.0
H783 H 0.80629 0.76098 0.64117 0.0
H784 H 0.80329 0.73009 0.65522 0.0
H785 H 0.05501 0.78411 0.54826 0.0
H786 H 0.81979 0.699 0.65431 0.0
N787 N 0.87399 0.74682 0.61001 0.0
C788 C 0.86257 0.76352 0.60787 0.0
C789 C 0.82505 0.75682 0.6324 0.0
C790 C 0.83547 0.73938 0.63355 0.0
C791 C 0.8384 0.76885 0.61923 0.0
C792 C 0.85998 0.73461 0.62174 0.0
H793 H 0.85078 0.67563 0.63811 0.0
N794 N 0.89088 0.71266 0.60808 0.0
C795 C 0.88173 0.68159 0.61464 0.0
C796 C 0.86919 0.71711 0.62116 0.0
C797 C 0.89524 0.69505 0.6034 0.0
C798 C 0.86166 0.68609 0.62966 0.0
C799 C 0.85422 0.70395 0.63247 0.0
O800 O 0.88679 0.72083 0.57139 0.0
O801 O 0.96008 0.74794 0.58408 0.0
O802 O 0.94278 0.77648 0.61161 0.0
O803 O 0.91824 0.76659 0.58318 0.0
O804 O 0.9501 0.72398 0.57064 0.0
O805 O 0.89372 0.74837 0.56418 0.0
O806 O 0.98304 0.78173 0.6244 0.0
O807 O 0.92526 0.75072 0.62106 0.0
O808 O 0.94343 0.71356 0.60141 0.0
O809 O 0.96936 0.72565 0.62797 0.0
O810 O 0.95107 0.74454 0.64584 0.0
O811 O 1.00526 0.76106 0.64081 0.0
C812 C 0.96978 0.73626 0.57131 0.0
C813 C 0.89044 0.72853 0.5367 0.0
C814 C 0.89136 0.73724 0.5011 0.0
C815 C 0.88233 0.74027 0.52116 0.0
C816 C 0.90798 0.72211 0.49645 0.0
C817 C 0.90684 0.71327 0.53191 0.0
C818 C 0.91541 0.71007 0.51181 0.0
C819 C 0.92672 0.77959 0.59543 0.0
C820 C 0.88353 0.73323 0.55786 0.0
C821 C 0.83122 0.70889 0.64533 0.0
C822 C 0.82175 0.72656 0.64579 0.0
C823 C 0.9242 0.74547 0.6399 0.0
C824 C 0.99393 0.78782 0.65848 0.0
C825 C 0.99875 0.77974 0.67736 0.0
C826 C 0.99317 0.78896 0.69546 0.0
C827 C 0.98211 0.80637 0.69465 0.0
C828 C 0.98342 0.80539 0.65778 0.0
C829 C 0.97734 0.81454 0.67582 0.0
C830 C 0.95848 0.71181 0.61839 0.0
C831 C 0.99999 0.77806 0.63956 0.0
H832 H 0.86993 0.75214 0.52478 0.0
H833 H 0.91508 0.71961 0.48095 0.0
H834 H 0.91347 0.704 0.54368 0.0
H835 H 0.92816 0.69839 0.50819 0.0
H836 H 1.00682 0.76619 0.67805 0.0
H837 H 0.97782 0.81375 0.70852 0.0
H838 H 0.9798 0.81202 0.64331 0.0
H839 H 0.96915 0.82804 0.67521 0.0
Eu840 Eu 0.39297 0.73551 0.74187 0.0
C841 C 0.28096 0.75679 0.7485 0.0
C842 C 0.24793 0.73211 0.74339 0.0
C843 C 0.23727 0.75422 0.7693 0.0
C844 C 0.27371 0.74132 0.73821 0.0
C845 C 0.26233 0.76366 0.76376 0.0
C846 C 0.23026 0.73838 0.75929 0.0
C847 C 0.29455 0.78879 0.76708 0.0
N848 N 0.30609 0.76522 0.74359 0.0
C849 C 0.31263 0.78128 0.75227 0.0
C850 C 0.26941 0.77986 0.773 0.0
Eu851 Eu 0.3338 0.75333 0.71621 0.0
N852 N 0.29077 0.73588 0.72242 0.0
C853 C 0.28067 0.72275 0.70967 0.0
C854 C 0.23994 0.71725 0.73189 0.0
C855 C 0.25605 0.7128 0.71468 0.0
H856 H 0.33137 0.78869 0.7475 0.0
H857 H 0.24903 0.70202 0.70489 0.0
H858 H 0.21059 0.73136 0.76353 0.0
H859 H 0.30002 0.80148 0.77388 0.0
H860 H 0.291 0.71991 0.69525 0.0
H861 H 0.47868 0.77944 0.71276 0.0
H862 H 0.2205 0.70975 0.7355 0.0
H863 H 0.39726 0.69008 0.74353 0.0
H864 H 0.43775 0.77089 0.73429 0.0
H865 H 0.41993 0.6657 0.72417 0.0
H866 H 0.22305 0.75915 0.78121 0.0
H867 H 0.50121 0.75738 0.68971 0.0
H868 H 0.50347 0.72602 0.67699 0.0
H869 H 0.25557 0.78561 0.78464 0.0
H870 H 0.48654 0.69508 0.67946 0.0
N871 N 0.43412 0.74461 0.72227 0.0
C872 C 0.44593 0.76127 0.72366 0.0
C873 C 0.48263 0.75361 0.69889 0.0
C874 C 0.47192 0.73621 0.69858 0.0
C875 C 0.46987 0.7661 0.71177 0.0
C876 C 0.44761 0.73197 0.71086 0.0
H877 H 0.45547 0.67244 0.69699 0.0
N878 N 0.41659 0.71072 0.72569 0.0
C879 C 0.42493 0.67939 0.72038 0.0
C880 C 0.43812 0.71458 0.71226 0.0
C881 C 0.41178 0.6933 0.73109 0.0
C882 C 0.44493 0.68325 0.70506 0.0
C883 C 0.45265 0.70096 0.70141 0.0
O884 O 0.42045 0.71972 0.7621 0.0
O885 O 0.34815 0.74705 0.7488 0.0
O886 O 0.36611 0.77534 0.72077 0.0
O887 O 0.39103 0.76541 0.74904 0.0
O888 O 0.35739 0.72281 0.76181 0.0
O889 O 0.41403 0.74744 0.76846 0.0
O890 O 0.32621 0.78098 0.70808 0.0
O891 O 0.38278 0.74944 0.71172 0.0
O892 O 0.36438 0.71255 0.73086 0.0
O893 O 0.33816 0.72498 0.7046 0.0
O894 O 0.35673 0.74367 0.68697 0.0
O895 O 0.30194 0.76043 0.69289 0.0
C896 C 0.33817 0.73536 0.76143 0.0
C897 C 0.41511 0.72814 0.79646 0.0
C898 C 0.41263 0.73754 0.8318 0.0
C899 C 0.42324 0.73988 0.81199 0.0
C900 C 0.39421 0.72312 0.83618 0.0
C901 C 0.397 0.71357 0.80102 0.0
C902 C 0.38669 0.7111 0.82084 0.0
C903 C 0.38272 0.77835 0.73667 0.0
C904 C 0.42343 0.73233 0.7754 0.0
C905 C 0.47546 0.70532 0.68811 0.0
C906 C 0.48517 0.72292 0.68677 0.0
C907 C 0.38366 0.74427 0.69285 0.0
C908 C 0.31496 0.7862 0.67403 0.0
C909 C 0.31334 0.77677 0.65574 0.0
C910 C 0.31962 0.78514 0.63725 0.0
C911 C 0.32874 0.80298 0.63711 0.0
C912 C 0.32353 0.80416 0.6738 0.0
C913 C 0.33068 0.81243 0.65539 0.0
C914 C 0.34922 0.71104 0.7139 0.0
C915 C 0.30846 0.7773 0.69339 0.0
H916 H 0.43693 0.75123 0.8085 0.0
H917 H 0.38587 0.72112 0.85146 0.0
H918 H 0.39034 0.7043 0.78926 0.0
H919 H 0.37256 0.69997 0.82425 0.0
H920 H 0.30691 0.76288 0.65577 0.0
H921 H 0.33344 0.80973 0.62288 0.0
H922 H 0.32491 0.81172 0.68785 0.0
H923 H 0.33736 0.82625 0.65527 0.0
Eu924 Eu 0.91447 0.51171 0.74123 0.0
C925 C 1.02765 0.49188 0.74733 0.0
C926 C 0.06034 0.51642 0.74053 0.0
C927 C 0.07191 0.49529 0.76734 0.0
C928 C 0.03448 0.50696 0.73621 0.0
C929 C 0.04677 0.48559 0.7626 0.0
C930 C 0.0785 0.51079 0.75649 0.0
C931 C 1.01486 0.46049 0.76747 0.0
N932 N 1.00248 0.48321 0.74314 0.0
C933 C 0.99625 0.46747 0.75264 0.0
C934 C 0.04011 0.46968 0.77264 0.0
Eu935 Eu 0.97384 0.49406 0.71568 0.0
N936 N 1.01699 0.51171 0.72037 0.0
C937 C 1.02666 0.52428 0.70675 0.0
C938 C 0.06793 0.5308 0.72813 0.0
C939 C 0.05135 0.53448 0.71088 0.0
H940 H 0.9772 0.45999 0.7486 0.0
H941 H 0.05801 0.54487 0.70043 0.0
H942 H 0.09824 0.51799 0.76009 0.0
H943 H 1.00967 0.44804 0.77494 0.0
H944 H 1.01575 0.52652 0.69239 0.0
H945 H 0.82921 0.47011 0.70751 0.0
H946 H 0.08741 0.53848 0.73107 0.0
H947 H 0.91137 0.55689 0.74631 0.0
H948 H 0.87049 0.4769 0.72964 0.0
H949 H 0.88918 0.58257 0.7289 0.0
H950 H 0.08652 0.49082 0.77925 0.0
H951 H 0.80722 0.49375 0.68633 0.0
H952 H 0.80577 0.52582 0.6761 0.0
H953 H 0.05434 0.46436 0.78431 0.0
H954 H 0.82304 0.55643 0.68128 0.0
N955 N 0.87397 0.504 0.72035 0.0
C956 C 0.86209 0.48732 0.72014 0.0
C957 C 0.82572 0.49681 0.69593 0.0
C958 C 0.83677 0.51411 0.69707 0.0
C959 C 0.83813 0.48343 0.7078 0.0
C960 C 0.86091 0.51742 0.70986 0.0
H961 H 0.85399 0.57774 0.70097 0.0
N962 N 0.8918 0.53756 0.72679 0.0
C963 C 0.88403 0.56919 0.72397 0.0
C964 C 0.87056 0.53465 0.71282 0.0
C965 C 0.89683 0.55457 0.73361 0.0
C966 C 0.86425 0.5664 0.70821 0.0
C967 C 0.85642 0.549 0.70299 0.0
O968 O 0.8843 0.52615 0.76087 0.0
O969 O 0.95943 0.50049 0.74818 0.0
O970 O 0.94243 0.47162 0.72078 0.0
O971 O 0.91522 0.48172 0.74795 0.0
O972 O 0.94957 0.52443 0.76165 0.0
O973 O 0.89504 0.4991 0.76802 0.0
O974 O 0.98154 0.46623 0.70853 0.0
O975 O 0.92484 0.49768 0.71111 0.0
O976 O 0.94313 0.53475 0.73054 0.0
O977 O 0.9691 0.52246 0.70414 0.0
O978 O 0.95095 0.50345 0.68636 0.0
O979 O 1.00484 0.48643 0.69204 0.0
C980 C 0.96924 0.51214 0.76093 0.0
C981 C 0.89005 0.51873 0.79545 0.0
C982 C 0.89218 0.51034 0.8311 0.0
C983 C 0.88258 0.50708 0.81123 0.0
C984 C 0.90878 0.52558 0.83533 0.0
C985 C 0.9064 0.5341 0.7998 0.0
C986 C 0.91558 0.53751 0.81972 0.0
C987 C 0.9249 0.46869 0.73623 0.0
C988 C 0.88303 0.51368 0.77444 0.0
C989 C 0.83384 0.5456 0.68915 0.0
C990 C 0.82393 0.52819 0.68626 0.0
C991 C 0.92401 0.50276 0.69219 0.0
C992 C 0.99112 0.4602 0.67433 0.0
C993 C 0.99612 0.46844 0.65561 0.0
C994 C 0.98942 0.45973 0.63741 0.0
C995 C 0.97654 0.4428 0.63792 0.0
C996 C 0.97879 0.44307 0.6748 0.0
C997 C 0.97126 0.43451 0.65663 0.0
C998 C 0.95817 0.53637 0.71355 0.0
C999 C 0.99847 0.46956 0.69326 0.0
H1000 H 0.87028 0.49511 0.8079 0.0
H1001 H 0.91634 0.52824 0.85068 0.0
H1002 H 0.91259 0.54328 0.78782 0.0
H1003 H 0.92834 0.54927 0.823 0.0
H1004 H 1.00547 0.48168 0.65511 0.0
H1005 H 0.97137 0.43581 0.62393 0.0
H1006 H 0.97481 0.43637 0.68917 0.0
H1007 H 0.96168 0.42137 0.65705 0.0
Eu1008 Eu 0.72591 0.50341 0.46484 0.0
C1009 C 0.62062 0.4621 0.46446 0.0
C1010 C 0.58684 0.48173 0.44718 0.0
C1011 C 0.58378 0.44984 0.44175 0.0
C1012 C 0.61106 0.47918 0.46015 0.0
C1013 C 0.60648 0.44724 0.45572 0.0
C1014 C 0.57386 0.46705 0.43759 0.0
C1015 C 0.63476 0.42821 0.47771 0.0
N1016 N 0.64199 0.45995 0.4785 0.0
C1017 C 0.64761 0.44331 0.48624 0.0
C1018 C 0.61455 0.43015 0.46204 0.0
Eu1019 Eu 0.66448 0.4865 0.49099 0.0
N1020 N 0.62426 0.49321 0.46944 0.0
C1021 C 0.61261 0.5099 0.46769 0.0
C1022 C 0.57601 0.49895 0.44451 0.0
C1023 C 0.58864 0.51303 0.45509 0.0
H1024 H 0.66267 0.44166 0.49878 0.0
H1025 H 0.57992 0.52634 0.45358 0.0
H1026 H 0.55566 0.46884 0.4273 0.0
H1027 H 0.64024 0.41509 0.48337 0.0
H1028 H 0.62116 0.52097 0.47607 0.0
H1029 H 0.80716 0.44948 0.459 0.0
H1030 H 0.55752 0.50144 0.43468 0.0
H1031 H 0.7276 0.53992 0.49511 0.0
H1032 H 0.76595 0.46721 0.44769 0.0
H1033 H 0.75878 0.55324 0.52108 0.0
H1034 H 0.57297 0.43859 0.43472 0.0
H1035 H 0.83608 0.45895 0.48876 0.0
H1036 H 0.84662 0.48205 0.51496 0.0
H1037 H 0.60432 0.41844 0.45562 0.0
H1038 H 0.83482 0.51076 0.53074 0.0
N1039 N 0.76698 0.48515 0.47317 0.0
C1040 C 0.77636 0.47093 0.4618 0.0
C1041 C 0.81696 0.46648 0.48444 0.0
C1042 C 0.80953 0.48217 0.49458 0.0
C1043 C 0.80061 0.46103 0.46773 0.0
C1044 C 0.78418 0.49143 0.48853 0.0
H1045 H 0.80284 0.53747 0.53271 0.0
N1046 N 0.75248 0.51611 0.49223 0.0
C1047 C 0.7641 0.5403 0.51485 0.0
C1048 C 0.77732 0.50758 0.49773 0.0
C1049 C 0.74608 0.53246 0.50025 0.0
C1050 C 0.78904 0.53143 0.52125 0.0
C1051 C 0.79591 0.51488 0.51277 0.0
O1052 O 0.73942 0.52988 0.45563 0.0
O1053 O 0.6783 0.49716 0.46035 0.0
O1054 O 0.6934 0.46339 0.48125 0.0
O1055 O 0.71867 0.47496 0.45386 0.0
O1056 O 0.70093 0.50191 0.43417 0.0
O1057 O 0.75974 0.50679 0.44193 0.0
O1058 O 0.63333 0.47335 0.51104 0.0
O1059 O 0.70974 0.49786 0.4974 0.0
O1060 O 0.69606 0.52669 0.46945 0.0
O1061 O 0.66441 0.51683 0.49462 0.0
O1062 O 0.69927 0.4744 0.51198 0.0
O1063 O 0.64698 0.50004 0.51784 0.0
C1064 C 0.67509 0.49817 0.44069 0.0
C1065 C 0.75439 0.53278 0.42162 0.0
C1066 C 0.7591 0.5316 0.38477 0.0
C1067 C 0.76054 0.52326 0.40381 0.0
C1068 C 0.75061 0.54955 0.38354 0.0
C1069 C 0.74642 0.55082 0.42025 0.0
C1070 C 0.74429 0.55908 0.40125 0.0
C1071 C 0.70801 0.46136 0.46415 0.0
C1072 C 0.75699 0.52411 0.44159 0.0
C1073 C 0.82063 0.50546 0.51902 0.0
C1074 C 0.82728 0.48908 0.51009 0.0
C1075 C 0.71914 0.48655 0.51077 0.0
C1076 C 0.64075 0.4807 0.54546 0.0
C1077 C 0.63332 0.49217 0.56139 0.0
C1078 C 0.64278 0.48862 0.58125 0.0
C1079 C 0.65932 0.47331 0.58524 0.0
C1080 C 0.65698 0.46523 0.54959 0.0
C1081 C 0.66613 0.46157 0.56945 0.0
C1082 C 0.67596 0.52959 0.4833 0.0
C1083 C 0.63371 0.48595 0.52452 0.0
H1084 H 0.76679 0.50937 0.4047 0.0
H1085 H 0.74976 0.55635 0.36898 0.0
H1086 H 0.74191 0.55853 0.43386 0.0
H1087 H 0.73819 0.57297 0.40027 0.0
H1088 H 0.6211 0.50421 0.55823 0.0
H1089 H 0.66679 0.47041 0.60057 0.0
H1090 H 0.66306 0.45617 0.53747 0.0
H1091 H 0.67882 0.44974 0.57256 0.0
Eu1092 Eu 0.08477 0.24387 0.46423 0.0
C1093 C 0.19036 0.28071 0.4611 0.0
C1094 C 0.22299 0.25894 0.44631 0.0
C1095 C 0.22764 0.29005 0.43695 0.0
C1096 C 0.19901 0.26319 0.45889 0.0
C1097 C 0.20532 0.2944 0.45066 0.0
C1098 C 0.23657 0.27236 0.43486 0.0
C1099 C 0.17924 0.31586 0.47091 0.0
N1100 N 0.16934 0.28456 0.47495 0.0
C1101 C 0.16565 0.30187 0.48119 0.0
C1102 C 0.19862 0.31212 0.45517 0.0
Eu1103 Eu 0.14509 0.25964 0.49032 0.0
N1104 N 0.1851 0.25039 0.46983 0.0
C1105 C 0.19615 0.2335 0.47048 0.0
C1106 C 0.23309 0.2414 0.44597 0.0
C1107 C 0.21992 0.22871 0.4584 0.0
H1108 H 0.15165 0.30496 0.49397 0.0
H1109 H 0.22818 0.21522 0.4588 0.0
H1110 H 0.25456 0.26926 0.42481 0.0
H1111 H 0.17509 0.3295 0.47536 0.0
H1112 H 0.18741 0.22364 0.48061 0.0
H1113 H 1.00246 0.29579 0.44946 0.0
H1114 H 0.25146 0.23764 0.43658 0.0
H1115 H 0.07968 0.20926 0.49637 0.0
H1116 H 0.04424 0.27696 0.44134 0.0
H1117 H 0.04696 0.19764 0.52274 0.0
H1118 H 0.23901 0.30036 0.42859 0.0
H1119 H 0.97298 0.28969 0.48015 0.0
H1120 H 0.96167 0.26932 0.50922 0.0
H1121 H 0.20953 0.32297 0.44743 0.0
H1122 H 0.9724 0.24185 0.52813 0.0
N1123 N 0.0423 0.262 0.46916 0.0
C1124 C 0.0331 0.27477 0.45563 0.0
C1125 C 0.99215 0.28175 0.47712 0.0
C1126 C 0.99929 0.26724 0.48946 0.0
C1127 C 1.00877 0.28527 0.45985 0.0
C1128 C 1.02472 0.25742 0.485 0.0
H1129 H 1.00331 0.21473 0.53266 0.0
N1130 N 0.05565 0.23307 0.49148 0.0
C1131 C 0.04234 0.21029 0.51551 0.0
C1132 C 0.03097 0.24215 0.49593 0.0
C1133 C 0.06113 0.21707 0.50067 0.0
C1134 C 1.01767 0.21991 0.52098 0.0
C1135 C 1.01171 0.23605 0.51121 0.0
O1136 O 0.07472 0.21641 0.45663 0.0
O1137 O 0.13399 0.2466 0.45973 0.0
O1138 O 0.11746 0.28359 0.48094 0.0
O1139 O 0.0906 0.27257 0.45423 0.0
O1140 O 0.10795 0.25398 0.43542 0.0
O1141 O 0.05463 0.23746 0.43951 0.0
O1142 O 0.17673 0.27338 0.50943 0.0
O1143 O 0.09954 0.24931 0.49695 0.0
O1144 O 0.11554 0.22095 0.46839 0.0
O1145 O 0.14159 0.22966 0.49665 0.0
O1146 O 0.11088 0.27272 0.51113 0.0
O1147 O 0.16388 0.24679 0.5172 0.0
C1148 C 0.13485 0.25238 0.44108 0.0
C1149 C 0.06579 0.21049 0.42221 0.0
C1150 C 0.0675 0.20911 0.38525 0.0
C1151 C 0.06135 0.21842 0.40321 0.0
C1152 C 0.07887 0.1918 0.38631 0.0
C1153 C 0.0766 0.19298 0.42317 0.0
C1154 C 0.08332 0.18377 0.40527 0.0
C1155 C 0.1022 0.28598 0.46418 0.0
C1156 C 0.05896 0.22037 0.44094 0.0
C1157 C 0.98708 0.24615 0.51618 0.0
C1158 C 0.98106 0.26182 0.50548 0.0
C1159 C 0.09043 0.26092 0.51003 0.0
C1160 C 0.17227 0.26647 0.54427 0.0
C1161 C 0.1794 0.25468 0.55999 0.0
C1162 C 0.17193 0.25869 0.58013 0.0
C1163 C 0.15792 0.27481 0.58466 0.0
C1164 C 0.15842 0.28268 0.54889 0.0
C1165 C 0.15147 0.28684 0.56907 0.0
C1166 C 0.13195 0.21714 0.48419 0.0
C1167 C 0.17751 0.26099 0.52314 0.0
H1168 H 0.05303 0.2319 0.40231 0.0
H1169 H 0.08359 0.18437 0.37255 0.0
H1170 H 0.07991 0.18644 0.43772 0.0
H1171 H 0.09172 0.17033 0.40609 0.0
H1172 H 0.18974 0.24207 0.55648 0.0
H1173 H 0.15199 0.27804 0.60023 0.0
H1174 H 0.15252 0.29198 0.53696 0.0
H1175 H 0.14069 0.29927 0.57259 0.0
Eu1176 Eu 0.72777 0.24397 0.36325 0.0
C1177 C 0.61891 0.28888 0.35586 0.0
C1178 C 0.58367 0.27209 0.37556 0.0
C1179 C 0.57815 0.30409 0.37179 0.0
C1180 C 0.60933 0.27277 0.36379 0.0
C1181 C 0.60304 0.30464 0.35941 0.0
C1182 C 0.56851 0.28787 0.37985 0.0
C1183 C 0.63621 0.32012 0.33695 0.0
N1184 N 0.6431 0.28904 0.34397 0.0
C1185 C 0.65129 0.30418 0.33387 0.0
C1186 C 0.6122 0.3204 0.34997 0.0
Eu1187 Eu 0.66547 0.26119 0.33821 0.0
N1188 N 0.62428 0.25768 0.35929 0.0
C1189 C 0.61381 0.24141 0.36499 0.0
C1190 C 0.5736 0.25551 0.38227 0.0
C1191 C 0.58858 0.24009 0.37676 0.0
H1192 H 0.66984 0.30394 0.32376 0.0
H1193 H 0.58073 0.22718 0.3816 0.0
H1194 H 0.54892 0.2876 0.38901 0.0
H1195 H 0.64312 0.33216 0.32929 0.0
H1196 H 0.62507 0.22941 0.36078 0.0
H1197 H 0.80407 0.30112 0.35442 0.0
H1198 H 0.55404 0.25444 0.39137 0.0
H1199 H 0.72578 0.20601 0.33456 0.0
H1200 H 0.76265 0.28618 0.36809 0.0
H1201 H 0.75605 0.1903 0.31015 0.0
H1202 H 0.56584 0.31609 0.37484 0.0
H1203 H 0.83634 0.28607 0.33001 0.0
H1204 H 0.84849 0.25923 0.30993 0.0
H1205 H 0.60055 0.33276 0.35232 0.0
H1206 H 0.8361 0.22918 0.29842 0.0
N1207 N 0.76747 0.26204 0.35063 0.0
C1208 C 0.77464 0.27895 0.35693 0.0
C1209 C 0.81728 0.2792 0.33569 0.0
C1210 C 0.81084 0.2619 0.32954 0.0
C1211 C 0.79906 0.28774 0.34936 0.0
C1212 C 0.78545 0.25352 0.33717 0.0
H1213 H 0.80196 0.20365 0.29828 0.0
N1214 N 0.75268 0.22913 0.3363 0.0
C1215 C 0.76244 0.20337 0.31548 0.0
C1216 C 0.77818 0.23657 0.33022 0.0
C1217 C 0.74484 0.21266 0.32915 0.0
C1218 C 0.78842 0.21086 0.30898 0.0
C1219 C 0.7965 0.22766 0.31615 0.0
O1220 O 0.74423 0.21792 0.37108 0.0
O1221 O 0.68006 0.2494 0.36795 0.0
O1222 O 0.68129 0.28301 0.35979 0.0
O1223 O 0.72232 0.27198 0.3765 0.0
O1224 O 0.70288 0.24504 0.39403 0.0
O1225 O 0.7604 0.24086 0.38735 0.0
O1226 O 0.65221 0.27167 0.30846 0.0
O1227 O 0.71052 0.24974 0.33128 0.0
O1228 O 0.69642 0.22117 0.35951 0.0
O1229 O 0.66512 0.23099 0.33415 0.0
O1230 O 0.70066 0.27345 0.31746 0.0
O1231 O 0.62993 0.24838 0.32161 0.0
C1232 C 0.67695 0.24873 0.38765 0.0
C1233 C 0.75308 0.21369 0.40558 0.0
C1234 C 0.74699 0.21335 0.44233 0.0
C1235 C 0.75425 0.22239 0.42438 0.0
C1236 C 0.73781 0.19554 0.4414 0.0
C1237 C 0.74457 0.19569 0.40486 0.0
C1238 C 0.73671 0.18675 0.42268 0.0
C1239 C 0.70291 0.28473 0.37302 0.0
C1240 C 0.75908 0.22346 0.38661 0.0
C1241 C 0.82196 0.23584 0.30921 0.0
C1242 C 0.82899 0.25295 0.31576 0.0
C1243 C 0.72014 0.26109 0.31818 0.0
C1244 C 0.61235 0.25928 0.28926 0.0
C1245 C 0.61694 0.24625 0.27445 0.0
C1246 C 0.59977 0.24585 0.25678 0.0
C1247 C 0.57721 0.25837 0.25455 0.0
C1248 C 0.59009 0.27181 0.28687 0.0
C1249 C 0.57237 0.27122 0.2696 0.0
C1250 C 0.67614 0.21828 0.34573 0.0
C1251 C 0.63146 0.25998 0.30689 0.0
H1252 H 0.76074 0.23625 0.42511 0.0
H1253 H 0.73239 0.18828 0.45516 0.0
H1254 H 0.74357 0.18859 0.39049 0.0
H1255 H 0.72998 0.17296 0.422 0.0
H1256 H 0.6343 0.23665 0.27652 0.0
H1257 H 0.56392 0.25863 0.24092 0.0
H1258 H 0.58649 0.28199 0.29831 0.0
H1259 H 0.5552 0.28092 0.26768 0.0
Eu1260 Eu 0.07868 0.50311 0.36685 0.0
C1261 C 0.18777 0.46166 0.35509 0.0
C1262 C 0.2209 0.47787 0.37701 0.0
C1263 C 0.2281 0.44622 0.37125 0.0
C1264 C 0.19591 0.47736 0.36456 0.0
C1265 C 0.20425 0.44603 0.35788 0.0
C1266 C 0.23643 0.46212 0.38078 0.0
C1267 C 0.17468 0.43182 0.33211 0.0
N1268 N 0.16492 0.46198 0.342 0.0
C1269 C 0.15917 0.44769 0.32971 0.0
C1270 C 0.19698 0.43089 0.34652 0.0
Eu1271 Eu 0.13939 0.48926 0.33925 0.0
N1272 N 0.18064 0.49239 0.36045 0.0
C1273 C 0.19047 0.50858 0.36693 0.0
C1274 C 0.23017 0.49432 0.38465 0.0
C1275 C 0.2152 0.50978 0.37925 0.0
H1276 H 0.14188 0.4484 0.31858 0.0
H1277 H 0.22255 0.52261 0.3847 0.0
H1278 H 0.25545 0.46221 0.39051 0.0
H1279 H 0.16944 0.42034 0.32283 0.0
H1280 H 0.17896 0.52058 0.36287 0.0
H1281 H 0.99692 0.45026 0.37873 0.0
H1282 H 0.24926 0.49528 0.39425 0.0
H1283 H 0.07353 0.53895 0.33633 0.0
H1284 H 0.03856 0.46884 0.38794 0.0
H1285 H 0.04054 0.55156 0.31079 0.0
H1286 H 0.24083 0.43429 0.37377 0.0
H1287 H 0.96725 0.45767 0.34851 0.0
H1288 H 0.95564 0.47928 0.32073 0.0
H1289 H 0.2091 0.41861 0.34825 0.0
H1290 H 0.96608 0.50755 0.30338 0.0
N1291 N 0.03632 0.48509 0.36109 0.0
C1292 C 1.02732 0.47166 0.37382 0.0
C1293 C 0.98634 0.46555 0.35201 0.0
C1294 C 0.99326 0.48065 0.34057 0.0
C1295 C 1.00308 0.46129 0.36901 0.0
C1296 C 1.01861 0.49035 0.34558 0.0
H1297 H 0.99677 0.53488 0.30024 0.0
N1298 N 0.04948 0.515 0.34024 0.0
C1299 C 0.03597 0.53866 0.31741 0.0
C1300 C 1.02474 0.5061 0.33547 0.0
C1301 C 0.05492 0.53131 0.33178 0.0
C1302 C 1.01123 0.52927 0.3116 0.0
C1303 C 1.00537 0.51276 0.32056 0.0
O1304 O 0.06754 0.53016 0.37561 0.0
O1305 O 0.12773 0.50088 0.37042 0.0
O1306 O 0.12521 0.46448 0.35656 0.0
O1307 O 0.08458 0.47368 0.3747 0.0
O1308 O 0.1033 0.49332 0.39533 0.0
O1309 O 0.0485 0.50817 0.39186 0.0
O1310 O 0.14845 0.48429 0.30708 0.0
O1311 O 0.09296 0.4988 0.334 0.0
O1312 O 0.1083 0.52683 0.36399 0.0
O1313 O 0.13563 0.5194 0.33588 0.0
O1314 O 0.10438 0.47546 0.31983 0.0
O1315 O 0.17451 0.50331 0.32372 0.0
C1316 C 0.12988 0.49493 0.38898 0.0
C1317 C 0.06122 0.53411 0.41046 0.0
C1318 C 0.07095 0.53239 0.44671 0.0
C1319 C 0.06399 0.52415 0.42827 0.0
C1320 C 0.07747 0.55064 0.44704 0.0
C1321 C 0.06727 0.55245 0.41087 0.0
C1322 C 0.07582 0.5606 0.42907 0.0
C1323 C 0.10357 0.46136 0.36925 0.0
C1324 C 0.05271 0.52533 0.39142 0.0
C1325 C 0.98082 0.50281 0.31507 0.0
C1326 C 0.97495 0.48669 0.32489 0.0
C1327 C 0.08369 0.48701 0.32121 0.0
C1328 C 0.19556 0.48989 0.29474 0.0
C1329 C 0.19889 0.4974 0.27547 0.0
C1330 C 0.22083 0.49159 0.26223 0.0
C1331 C 0.24081 0.47879 0.26921 0.0
C1332 C 0.21539 0.47709 0.30164 0.0
C1333 C 0.23818 0.47172 0.28892 0.0
C1334 C 0.12555 0.53127 0.34886 0.0
C1335 C 0.17014 0.49533 0.30644 0.0
H1336 H 0.05978 0.50994 0.42804 0.0
H1337 H 0.0826 0.55732 0.46123 0.0
H1338 H 0.06549 0.56042 0.39715 0.0
H1339 H 0.08044 0.57473 0.42936 0.0
H1340 H 0.18372 0.50762 0.27065 0.0
H1341 H 0.25789 0.4739 0.25934 0.0
H1342 H 0.21317 0.47122 0.31663 0.0
H1343 H 0.25345 0.46176 0.29417 0.0
Eu1344 Eu 0.89939 0.01159 0.58972 0.0
C1345 C 0.78488 0.99047 0.5813 0.0
C1346 C 0.75285 0.01591 0.58456 0.0
C1347 C 0.74153 0.99271 0.56008 0.0
C1348 C 0.77814 0.00656 0.59059 0.0
C1349 C 0.7662 0.98322 0.56629 0.0
C1350 C 0.73505 0.0091 0.56903 0.0
C1351 C 0.79772 0.95766 0.56429 0.0
N1352 N 0.80962 0.98187 0.5868 0.0
C1353 C 0.81586 0.96548 0.57882 0.0
C1354 C 0.77286 0.96661 0.55788 0.0
Eu1355 Eu 0.83642 0.99424 0.61424 0.0
N1356 N 0.79526 0.01262 0.60609 0.0
C1357 C 0.7858 0.02676 0.61761 0.0
C1358 C 0.74547 0.03155 0.59481 0.0
C1359 C 0.76171 0.0368 0.61166 0.0
H1360 H 0.83428 0.95799 0.58401 0.0
H1361 H 0.75513 0.04827 0.62051 0.0
H1362 H 0.71575 0.0162 0.56419 0.0
H1363 H 0.80289 0.94468 0.5581 0.0
H1364 H 0.7959 0.03029 0.63188 0.0
H1365 H 0.9791 0.97012 0.62927 0.0
H1366 H 0.72642 0.03916 0.59051 0.0
H1367 H 0.90249 0.05658 0.58309 0.0
H1368 H 0.93815 0.97639 0.60657 0.0
H1369 H 0.92534 0.08265 0.59926 0.0
H1370 H 0.72727 0.98745 0.54838 0.0
H1371 H 1.0028 0.9946 0.64814 0.0
H1372 H 1.00603 0.02713 0.65576 0.0
H1373 H 0.75896 0.96058 0.54646 0.0
H1374 H 0.99009 0.05769 0.64856 0.0
N1375 N 0.93709 0.00418 0.61294 0.0
C1376 C 0.94752 0.98722 0.61496 0.0
C1377 C 0.98457 0.99746 0.63821 0.0
C1378 C 0.97465 0.01489 0.63551 0.0
C1379 C 0.9712 0.98361 0.62764 0.0
C1380 C 0.95082 0.01795 0.62233 0.0
H1381 H 0.96001 0.07851 0.62764 0.0
N1382 N 0.92109 0.03783 0.6038 0.0
C1383 C 0.92997 0.06941 0.60492 0.0
C1384 C 0.94203 0.0352 0.61809 0.0
C1385 C 0.91687 0.05459 0.59595 0.0
C1386 C 0.94946 0.06702 0.62094 0.0
C1387 C 0.95661 0.04976 0.62716 0.0
O1388 O 0.92065 0.02645 0.56526 0.0
O1389 O 0.85472 -0.00038 0.58218 0.0
O1390 O 0.86765 0.97177 0.6091 0.0
O1391 O 0.89682 0.98165 0.58264 0.0
O1392 O 0.86712 0.02155 0.56545 0.0
O1393 O 0.93567 7e-05 0.57296 0.0
O1394 O 0.82551 0.96712 0.62274 0.0
O1395 O 0.88343 0.00129 0.62004 0.0
O1396 O 0.87157 0.03471 0.60104 0.0
O1397 O 0.8429 0.02241 0.62634 0.0
O1398 O 0.85965 0.99568 0.64553 0.0
O1399 O 0.80242 0.98906 0.63665 0.0
C1400 C 0.84629 0.01015 0.56769 0.0
C1401 C 0.94791 0.01121 0.54051 0.0
C1402 C 0.94165 0.99612 0.50808 0.0
C1403 C 0.93341 0.99868 0.52848 0.0
C1404 C 0.9648 0.00622 0.50002 0.0
C1405 C 0.97093 0.02111 0.53236 0.0
C1406 C 0.97937 0.01857 0.51216 0.0
C1407 C 0.88633 0.96878 0.59434 0.0
C1408 C 0.9397 0.0141 0.56169 0.0
C1409 C 0.97894 0.04667 0.6413 0.0
C1410 C 0.98811 0.02928 0.64534 0.0
C1411 C 0.8857 -0.00029 0.63973 0.0
C1412 C 0.81374 0.96388 0.65707 0.0
C1413 C 0.81347 0.97431 0.67472 0.0
C1414 C 0.82056 0.96688 0.69361 0.0
C1415 C 0.82886 0.94891 0.69477 0.0
C1416 C 0.82155 0.94582 0.65841 0.0
C1417 C 0.82932 0.93845 0.67718 0.0
C1418 C 0.85526 0.03625 0.61749 0.0
C1419 C 0.80782 0.97198 0.63712 0.0
H1420 H 0.91581 0.99099 0.53505 0.0
H1421 H 0.97122 0.00491 0.4842 0.0
H1422 H 0.98231 0.03081 0.54163 0.0
H1423 H 0.99704 0.02632 0.50584 0.0
H1424 H 0.80775 0.98829 0.67385 0.0
H1425 H 0.83402 0.94282 0.7093 0.0
H1426 H 0.82204 0.93751 0.6449 0.0
H1427 H 0.83542 0.92456 0.67813 0.0
Eu1428 Eu 0.41198 0.2375 0.58792 0.0
C1429 C 0.52737 0.26148 0.57932 0.0
C1430 C 0.55775 0.23524 0.57659 0.0
C1431 C 0.57264 0.2626 0.56003 0.0
C1432 C 0.53283 0.24385 0.58454 0.0
C1433 C 0.547 0.27084 0.56662 0.0
C1434 C 0.57797 0.24484 0.56496 0.0
C1435 C 0.51342 0.29542 0.56603 0.0
N1436 N 0.50181 0.26898 0.58515 0.0
C1437 C 0.49458 0.2857 0.57846 0.0
C1438 C 0.53989 0.28805 0.56026 0.0
Eu1439 Eu 0.47631 0.2535 0.61132 0.0
N1440 N 0.5124 0.23467 0.59538 0.0
C1441 C 0.51448 0.21645 0.59642 0.0
C1442 C 0.56095 0.21696 0.57952 0.0
C1443 C 0.53883 0.20748 0.58896 0.0
H1444 H 0.47502 0.29215 0.58336 0.0
H1445 H 0.54028 0.19314 0.59025 0.0
H1446 H 0.59729 0.23843 0.55902 0.0
H1447 H 0.50763 0.30871 0.56112 0.0
H1448 H 0.49755 0.20821 0.60228 0.0
H1449 H 0.32799 0.26917 0.63409 0.0
H1450 H 0.57963 0.20989 0.57355 0.0
H1451 H 0.42021 0.19468 0.57402 0.0
H1452 H 0.37221 0.26815 0.61283 0.0
H1453 H 0.39576 0.16576 0.58009 0.0
H1454 H 0.58798 0.26966 0.55045 0.0
H1455 H 0.30235 0.24128 0.64292 0.0
H1456 H 0.2986 0.20813 0.63961 0.0
H1457 H 0.55441 0.29561 0.55055 0.0
H1458 H 0.31699 0.18015 0.62507 0.0
N1459 N 0.37218 0.23993 0.61029 0.0
C1460 C 0.36134 0.25589 0.61674 0.0
C1461 C 0.32182 0.24074 0.63365 0.0
C1462 C 0.33244 0.22448 0.62633 0.0
C1463 C 0.33622 0.25652 0.6287 0.0
C1464 C 0.35792 0.22447 0.61435 0.0
H1465 H 0.35306 0.16425 0.60293 0.0
N1466 N 0.39245 0.20897 0.5941 0.0
C1467 C 0.38794 0.17769 0.58755 0.0
C1468 C 0.36822 0.20862 0.60601 0.0
C1469 C 0.40175 0.19399 0.58419 0.0
C1470 C 0.36381 0.1769 0.60045 0.0
C1471 C 0.35341 0.19249 0.60964 0.0
O1472 O 0.39393 0.22735 0.55942 0.0
O1473 O 0.45669 0.249 0.57979 0.0
O1474 O 0.44623 0.27693 0.60845 0.0
O1475 O 0.41154 0.26784 0.58491 0.0
O1476 O 0.44492 0.22622 0.56464 0.0
O1477 O 0.37363 0.24983 0.57457 0.0
O1478 O 0.4966 0.27841 0.61947 0.0
O1479 O 0.4289 0.24798 0.61745 0.0
O1480 O 0.42815 0.2161 0.61018 0.0
O1481 O 0.47214 0.22548 0.62445 0.0
O1482 O 0.45237 0.2544 0.64254 0.0
O1483 O 0.50972 0.25451 0.63522 0.0
C1484 C 0.46498 0.23823 0.56565 0.0
C1485 C 0.36266 0.24553 0.53989 0.0
C1486 C 0.37057 0.26285 0.50907 0.0
C1487 C 0.38013 0.25693 0.5283 0.0
C1488 C 0.34302 0.25735 0.50198 0.0
C1489 C 0.3353 0.24035 0.53272 0.0
C1490 C 0.32548 0.24632 0.51384 0.0
C1491 C 0.42452 0.28025 0.59594 0.0
C1492 C 0.37237 0.23861 0.55947 0.0
C1493 C 0.32855 0.19243 0.62205 0.0
C1494 C 0.31808 0.20837 0.63034 0.0
C1495 C 0.42634 0.25014 0.637 0.0
C1496 C 0.50653 0.2818 0.65396 0.0
C1497 C 0.50723 0.273 0.67274 0.0
C1498 C 0.50108 0.28224 0.69079 0.0
C1499 C 0.49382 0.30038 0.69 0.0
C1500 C 0.49997 0.30012 0.65343 0.0
C1501 C 0.49342 0.30928 0.67135 0.0
C1502 C 0.451 0.21357 0.6222 0.0
C1503 C 0.51085 0.27192 0.63479 0.0
H1504 H 0.40108 0.26099 0.53423 0.0
H1505 H 0.33524 0.26111 0.487 0.0
H1506 H 0.32164 0.23158 0.54167 0.0
H1507 H 0.30445 0.24213 0.50822 0.0
H1508 H 0.51233 0.25891 0.67337 0.0
H1509 H 0.48931 0.30777 0.70383 0.0
H1510 H 0.49944 0.30733 0.63911 0.0
H1511 H 0.48816 0.32331 0.67079 0.0
Eu1512 Eu 0.89773 0.23736 0.74132 0.0
C1513 C 0.78289 0.25661 0.74863 0.0
C1514 C 0.75139 0.23103 0.74452 0.0
C1515 C 0.73932 0.25367 0.76951 0.0
C1516 C 0.77661 0.24067 0.73894 0.0
C1517 C 0.76386 0.26347 0.76366 0.0
C1518 C 0.73328 0.2374 0.76013 0.0
C1519 C 0.79478 0.28925 0.76634 0.0
N1520 N 0.80751 0.26547 0.74345 0.0
C1521 C 0.8133 0.28178 0.75179 0.0
C1522 C 0.77003 0.28 0.77242 0.0
Eu1523 Eu 0.83543 0.25377 0.71611 0.0
N1524 N 0.79399 0.23512 0.72336 0.0
C1525 C 0.78456 0.22137 0.71118 0.0
C1526 C 0.74431 0.21563 0.73372 0.0
C1527 C 0.76064 0.211 0.71669 0.0
H1528 H 0.83176 0.28942 0.74692 0.0
H1529 H 0.75423 0.19978 0.70736 0.0
H1530 H 0.71403 0.23008 0.76463 0.0
H1531 H 0.7996 0.30217 0.77283 0.0
H1532 H 0.79461 0.21838 0.69671 0.0
H1533 H 0.97789 0.27692 0.69996 0.0
H1534 H 0.72535 0.20781 0.73767 0.0
H1535 H 0.90197 0.19318 0.75235 0.0
H1536 H 0.93641 0.27161 0.72277 0.0
H1537 H 0.92693 0.16632 0.73953 0.0
H1538 H 0.72479 0.25862 0.78122 0.0
H1539 H 1.00217 0.25156 0.68301 0.0
H1540 H 1.00641 0.21861 0.67818 0.0
H1541 H 0.75585 0.28574 0.78386 0.0
H1542 H 0.99168 0.18845 0.68835 0.0
N1543 N 0.93634 0.24355 0.7185 0.0
C1544 C 0.94649 0.26043 0.71538 0.0
C1545 C 0.9839 0.24915 0.69305 0.0
C1546 C 0.9743 0.23182 0.69703 0.0
C1547 C 0.97026 0.26348 0.70258 0.0
C1548 C 0.9504 0.22937 0.71025 0.0
H1549 H 0.96227 0.16883 0.71128 0.0
N1550 N 0.92094 0.21052 0.73029 0.0
C1551 C 0.9312 0.17915 0.73261 0.0
C1552 C 0.94213 0.21237 0.71604 0.0
C1553 C 0.91713 0.19438 0.7398 0.0
C1554 C 0.95104 0.18061 0.71663 0.0
C1555 C 0.95751 0.19742 0.70864 0.0
O1556 O 0.91609 0.22453 0.76838 0.0
O1557 O 0.85238 0.24832 0.74834 0.0
O1558 O 0.86644 0.27652 0.72083 0.0
O1559 O 0.89429 0.26724 0.74822 0.0
O1560 O 0.86448 0.22588 0.76403 0.0
O1561 O 0.93381 0.24955 0.75797 0.0
O1562 O 0.82468 0.28103 0.708 0.0
O1563 O 0.88421 0.25042 0.71123 0.0
O1564 O 0.87511 0.21373 0.72655 0.0
O1565 O 0.84107 0.22546 0.70441 0.0
O1566 O 0.85845 0.24682 0.68588 0.0
O1567 O 0.80257 0.25949 0.69297 0.0
C1568 C 0.84365 0.23728 0.76215 0.0
C1569 C 0.94659 0.24006 0.79137 0.0
C1570 C 0.94403 0.25568 0.82385 0.0
C1571 C 0.93327 0.25272 0.80401 0.0
C1572 C 0.96818 0.24577 0.83066 0.0
C1573 C 0.97066 0.23044 0.7984 0.0
C1574 C 0.98142 0.23332 0.81796 0.0
C1575 C 0.88415 0.2799 0.73611 0.0
C1576 C 0.93626 0.23641 0.77073 0.0
C1577 C 0.97992 0.19978 0.69437 0.0
C1578 C 0.98838 0.21696 0.68864 0.0
C1579 C 0.8853 0.24649 0.6919 0.0
C1580 C 0.81276 0.28558 0.67385 0.0
C1581 C 0.80936 0.27636 0.65551 0.0
C1582 C 0.81541 0.28467 0.63691 0.0
C1583 C 0.82559 0.30229 0.63669 0.0
C1584 C 0.8223 0.30337 0.67349 0.0
C1585 C 0.82892 0.3116 0.65497 0.0
C1586 C 0.85614 0.21197 0.71169 0.0
C1587 C 0.8073 0.27659 0.69334 0.0
H1588 H 0.91477 0.26017 0.79837 0.0
H1589 H 0.9765 0.24729 0.84602 0.0
H1590 H 0.98111 0.22064 0.78873 0.0
H1591 H 0.99989 0.22575 0.82338 0.0
H1592 H 0.80208 0.26263 0.65561 0.0
H1593 H 0.83019 0.30898 0.62241 0.0
H1594 H 0.82495 0.31082 0.68752 0.0
H1595 H 0.83643 0.32525 0.65477 0.0
Eu1596 Eu 0.4107 0.00946 0.73992 0.0
C1597 C 0.52621 0.98769 0.75235 0.0
C1598 C 0.5537 0.01487 0.75765 0.0
C1599 C 0.57039 0.98728 0.77287 0.0
C1600 C 0.53019 0.00576 0.74844 0.0
C1601 C 0.54609 0.97843 0.76494 0.0
C1602 C 0.57414 0.00545 0.76929 0.0
C1603 C 0.5154 0.95254 0.76257 0.0
N1604 N 0.50185 0.97952 0.74521 0.0
C1605 C 0.4963 0.96214 0.75021 0.0
C1606 C 0.54054 0.96064 0.7698 0.0
Eu1607 Eu 0.47766 0.99532 0.7188 0.0
N1608 N 0.50962 0.01472 0.73749 0.0
C1609 C 0.51006 0.03298 0.73726 0.0
C1610 C 0.55527 0.03335 0.75583 0.0
C1611 C 0.53296 0.04245 0.74607 0.0
H1612 H 0.47803 0.95511 0.74406 0.0
H1613 H 0.5332 0.05685 0.74548 0.0
H1614 H 0.59241 0.01225 0.77622 0.0
H1615 H 0.51094 0.93875 0.76621 0.0
H1616 H 0.49288 0.04076 0.7309 0.0
H1617 H 0.33024 0.97902 0.68986 0.0
H1618 H 0.57284 0.04078 0.76278 0.0
H1619 H 0.4177 0.05187 0.75588 0.0
H1620 H 0.37339 0.97958 0.7123 0.0
H1621 H 0.39293 0.08079 0.75062 0.0
H1622 H 0.5859 0.98032 0.78242 0.0
H1623 H 0.30447 0.00703 0.68174 0.0
H1624 H 0.29967 0.03998 0.68671 0.0
H1625 H 0.5553 0.95314 0.77939 0.0
H1626 H 0.31657 0.0675 0.70318 0.0
N1627 N 0.37259 0.00768 0.71611 0.0
C1628 C 0.36242 0.99189 0.70866 0.0
C1629 C 0.32345 0.00736 0.69151 0.0
C1630 C 0.3333 0.02341 0.69991 0.0
C1631 C 0.33792 0.99152 0.69606 0.0
C1632 C 0.35813 0.02315 0.71253 0.0
H1633 H 0.35121 0.08281 0.72695 0.0
N1634 N 0.39111 0.0381 0.73456 0.0
C1635 C 0.3857 0.06909 0.74243 0.0
C1636 C 0.36751 0.03873 0.72204 0.0
C1637 C 0.39971 0.05278 0.74533 0.0
C1638 C 0.36212 0.07017 0.72906 0.0
C1639 C 0.35252 0.05487 0.71886 0.0
O1640 O 0.38814 0.01823 0.76743 0.0
O1641 O 0.45534 0.99881 0.74962 0.0
O1642 O 0.44961 0.97081 0.72002 0.0
O1643 O 0.41185 0.97909 0.74164 0.0
O1644 O 0.44049 0.02061 0.76533 0.0
O1645 O 0.37255 0.99515 0.7508 0.0
O1646 O 0.50087 0.97176 0.70896 0.0
O1647 O 0.43063 0.00011 0.71081 0.0
O1648 O 0.42707 0.03153 0.71853 0.0
O1649 O 0.47255 0.02331 0.70571 0.0
O1650 O 0.45598 0.99329 0.68673 0.0
O1651 O 0.51658 0.9978 0.69984 0.0
C1652 C 0.46154 0.00925 0.76458 0.0
C1653 C 0.35665 0.99848 0.78469 0.0
C1654 C 0.36375 0.98266 0.81669 0.0
C1655 C 0.3743 0.9884 0.79762 0.0
C1656 C 0.33463 0.98649 0.82189 0.0
C1657 C 0.32781 0.00204 0.79003 0.0
C1658 C 0.31676 0.99589 0.8085 0.0
C1659 C 0.42676 0.96701 0.73134 0.0
C1660 C 0.36801 0.00607 0.76588 0.0
C1661 C 0.32829 0.05521 0.70585 0.0
C1662 C 0.31869 0.03954 0.69643 0.0
C1663 C 0.42945 0.99744 0.69131 0.0
C1664 C 0.53056 0.97249 0.68034 0.0
C1665 C 0.5214 0.97905 0.66152 0.0
C1666 C 0.52965 0.97031 0.64365 0.0
C1667 C 0.54708 0.95501 0.64455 0.0
C1668 C 0.54824 0.95728 0.68127 0.0
C1669 C 0.55647 0.94857 0.66338 0.0
C1670 C 0.45057 0.03471 0.70736 0.0
C1671 C 0.52083 0.98059 0.6993 0.0
H1672 H 0.39634 0.9855 0.79289 0.0
H1673 H 0.32575 0.98288 0.8366 0.0
H1674 H 0.31398 0.00981 0.78003 0.0
H1675 H 0.29457 -0.00112 0.81273 0.0
H1676 H 0.50775 0.99081 0.66072 0.0
H1677 H 0.55385 0.94831 0.6307 0.0
H1678 H 0.5554 0.95207 0.69585 0.0
H1679 H 0.57011 0.93685 0.66412 0.0
Eu1680 Eu 0.22706 0.00421 0.46473 0.0
C1681 C 0.12166 0.96893 0.4559 0.0
C1682 C 0.08714 0.99182 0.44604 0.0
C1683 C 0.08425 0.9626 0.43051 0.0
C1684 C 0.11163 0.98633 0.4575 0.0
C1685 C 0.10737 0.95679 0.44276 0.0
C1686 C 0.07407 0.98004 0.43222 0.0
C1687 C 0.13586 0.93318 0.45738 0.0
N1688 N 0.14365 0.96347 0.46829 0.0
C1689 C 0.14869 0.94555 0.47047 0.0
C1690 C 0.11565 0.93891 0.44305 0.0
Eu1691 Eu 0.16515 0.9861 0.48938 0.0
N1692 N 0.12503 0.99771 0.47064 0.0
C1693 C 0.113 0.01405 0.47444 0.0
C1694 C 0.0762 0.00898 0.44893 0.0
C1695 C 0.08896 0.02004 0.46341 0.0
H1696 H 0.16243 0.94057 0.48255 0.0
H1697 H 0.07998 0.0331 0.46636 0.0
H1698 H 0.05567 0.98418 0.42307 0.0
H1699 H 0.14103 0.91918 0.45874 0.0
H1700 H 0.12086 0.02244 0.48648 0.0
H1701 H 0.31195 0.95271 0.45674 0.0
H1702 H 0.05751 0.01365 0.44044 0.0
H1703 H 0.2276 0.04022 0.49572 0.0
H1704 H 0.26981 0.96996 0.44605 0.0
H1705 H 0.25736 0.0533 0.52253 0.0
H1706 H 0.07339 0.9535 0.42019 0.0
H1707 H 0.34012 0.96176 0.48703 0.0
H1708 H 0.34925 0.98426 0.5142 0.0
H1709 H 0.10527 0.92924 0.43317 0.0
H1710 H 0.33563 0.01219 0.5311 0.0
N1711 N 0.26968 0.98701 0.47232 0.0
C1712 C 0.27995 0.97341 0.46035 0.0
C1713 C 0.32061 0.96901 0.48297 0.0
C1714 C 0.31219 0.98416 0.49378 0.0
C1715 C 0.30469 0.96381 0.46595 0.0
C1716 C 0.28628 0.99301 0.48809 0.0
H1717 H 0.30196 0.03805 0.53405 0.0
N1718 N 0.25299 0.01664 0.4927 0.0
C1719 C 0.2633 0.04056 0.51604 0.0
C1720 C 0.27831 0.00857 0.49798 0.0
C1721 C 0.2459 0.03276 0.50106 0.0
C1722 C 0.28856 0.03201 0.52235 0.0
C1723 C 0.29643 0.01587 0.51331 0.0
O1724 O 0.23626 0.0317 0.45663 0.0
O1725 O 0.17781 0.00088 0.45989 0.0
O1726 O 0.1965 0.96377 0.48006 0.0
O1727 O 0.22209 0.97595 0.45311 0.0
O1728 O 0.20441 0.99566 0.43505 0.0
O1729 O 0.25975 0.01048 0.44171 0.0
O1730 O 0.14046 0.96619 0.50594 0.0
O1731 O 0.21205 0.9937 0.49506 0.0
O1732 O 0.19464 0.02608 0.47073 0.0
O1733 O 0.16792 0.01555 0.49806 0.0
O1734 O 0.1919 0.98183 0.51898 0.0
O1735 O 0.13455 0.99404 0.5132 0.0
C1736 C 0.17738 0.99634 0.44076 0.0
C1737 C 0.25255 0.03755 0.42363 0.0
C1738 C 0.24981 0.03821 0.38671 0.0
C1739 C 0.2497 0.02867 0.40504 0.0
C1740 C 0.25091 0.05691 0.38716 0.0
C1741 C 0.25397 0.05621 0.42397 0.0
C1742 C 0.25277 0.06585 0.40578 0.0
C1743 C 0.21156 0.96208 0.46295 0.0
C1744 C 0.25509 0.02759 0.44271 0.0
C1745 C 0.32179 0.0069 0.51918 0.0
C1746 C 0.32947 0.99098 0.5096 0.0
C1747 C 0.21628 0.98898 0.51383 0.0
C1748 C 0.12868 0.97294 0.54004 0.0
C1749 C 0.12627 0.98622 0.55501 0.0
C1750 C 0.12501 0.98154 0.57564 0.0
C1751 C 0.12652 0.96359 0.58144 0.0
C1752 C 0.13003 0.95495 0.54604 0.0
C1753 C 0.12915 0.95036 0.56666 0.0
C1754 C 0.17731 0.02871 0.48642 0.0
C1755 C 0.12849 0.97764 0.51822 0.0
H1756 H 0.2483 0.01426 0.40475 0.0
H1757 H 0.25147 0.06457 0.37316 0.0
H1758 H 0.25623 0.0633 0.43828 0.0
H1759 H 0.25405 0.08023 0.40608 0.0
H1760 H 0.12483 0.00013 0.55071 0.0
H1761 H 0.12564 0.95986 0.5974 0.0
H1762 H 0.13158 0.94441 0.53482 0.0
H1763 H 0.13026 0.93651 0.57116 0.0
Eu1764 Eu 0.57878 0.74417 0.46716 0.0
C1765 C 0.69015 0.78463 0.46297 0.0
C1766 C 0.72204 0.76437 0.44465 0.0
C1767 C 0.72918 0.79625 0.44162 0.0
C1768 C 0.69797 0.76732 0.45763 0.0
C1769 C 0.70628 0.79921 0.45533 0.0
C1770 C 0.73712 0.77889 0.43637 0.0
C1771 C 0.67937 0.81855 0.47782 0.0
N1772 N 0.66839 0.78722 0.47673 0.0
C1773 C 0.66458 0.80373 0.48536 0.0
C1774 C 0.69994 0.81633 0.46245 0.0
Eu1775 Eu 0.64609 0.7607 0.48928 0.0
N1776 N 0.68291 0.75335 0.46559 0.0
C1777 C 0.69156 0.73625 0.46185 0.0
C1778 C 0.73057 0.74687 0.44051 0.0
C1779 C 0.71543 0.73277 0.44931 0.0
H1780 H 0.6492 0.80549 0.49769 0.0
H1781 H 0.72189 0.71918 0.44624 0.0
H1782 H 0.75537 0.77682 0.4262 0.0
H1783 H 0.67521 0.83163 0.48408 0.0
H1784 H 0.67987 0.72518 0.46811 0.0
H1785 H 0.52248 0.80058 0.50313 0.0
H1786 H 0.7489 0.7441 0.43064 0.0
H1787 H 0.56412 0.69979 0.47067 0.0
H1788 H 0.56018 0.7865 0.48276 0.0
H1789 H 0.53015 0.68023 0.48877 0.0
H1790 H 0.74157 0.8073 0.43552 0.0
H1791 H 0.48643 0.78222 0.52135 0.0
H1792 H 0.46778 0.75223 0.53058 0.0
H1793 H 0.71177 0.82781 0.45687 0.0
H1794 H 0.47078 0.71977 0.52757 0.0
N1795 N 0.54658 0.75992 0.48894 0.0
C1796 C 0.54504 0.77805 0.49041 0.0
C1797 C 0.5031 0.77581 0.51227 0.0
C1798 C 0.50462 0.75728 0.51086 0.0
C1799 C 0.52343 0.78622 0.50205 0.0
C1800 C 0.52681 0.7495 0.49886 0.0
H1801 H 0.49403 0.69297 0.51244 0.0
N1802 N 0.55015 0.72351 0.4858 0.0
C1803 C 0.52986 0.69442 0.49166 0.0
C1804 C 0.52885 0.73096 0.49745 0.0
C1805 C 0.5495 0.7056 0.48174 0.0
C1806 C 0.50945 0.70167 0.50492 0.0
C1807 C 0.50825 0.72012 0.50759 0.0
O1808 O 0.55618 0.72643 0.44623 0.0
O1809 O 0.62591 0.75066 0.45991 0.0
O1810 O 0.62207 0.78378 0.4743 0.0
O1811 O 0.58546 0.77199 0.45379 0.0
O1812 O 0.60408 0.73778 0.43735 0.0
O1813 O 0.53856 0.75283 0.45287 0.0
O1814 O 0.66691 0.77521 0.51419 0.0
O1815 O 0.60029 0.75158 0.49701 0.0
O1816 O 0.60273 0.72011 0.47933 0.0
O1817 O 0.64551 0.73058 0.49453 0.0
O1818 O 0.61979 0.7663 0.51891 0.0
O1819 O 0.68503 0.74988 0.50362 0.0
C1820 C 0.62896 0.74501 0.44136 0.0
C1821 C 0.51906 0.73748 0.42473 0.0
C1822 C 0.51854 0.7408 0.38818 0.0
C1823 C 0.53393 0.7403 0.40652 0.0
C1824 C 0.48827 0.7384 0.38808 0.0
C1825 C 0.48889 0.73492 0.42468 0.0
C1826 C 0.47353 0.73536 0.40634 0.0
C1827 C 0.60269 0.78521 0.45951 0.0
C1828 C 0.53437 0.73743 0.44405 0.0
C1829 C 0.48655 0.72793 0.51962 0.0
C1830 C 0.48474 0.74642 0.52125 0.0
C1831 C 0.59631 0.75743 0.51532 0.0
C1832 C 0.70581 0.76276 0.53357 0.0
C1833 C 0.6983 0.7512 0.54943 0.0
C1834 C 0.71531 0.75063 0.56725 0.0
C1835 C 0.73998 0.76167 0.56874 0.0
C1836 C 0.73043 0.77362 0.53525 0.0
C1837 C 0.7475 0.77302 0.55277 0.0
C1838 C 0.62722 0.71766 0.48951 0.0
C1839 C 0.68849 0.76398 0.51503 0.0
H1840 H 0.55725 0.74237 0.40664 0.0
H1841 H 0.47619 0.73872 0.3739 0.0
H1842 H 0.47725 0.73266 0.43883 0.0
H1843 H 0.45024 0.7334 0.40629 0.0
H1844 H 0.67928 0.7428 0.54789 0.0
H1845 H 0.75309 0.76191 0.58246 0.0
H1846 H 0.73637 0.78261 0.523 0.0
H1847 H 0.76638 0.78152 0.55409 0.0
Eu1848 Eu 0.22452 0.74449 0.36644 0.0
C1849 C 0.12078 0.78499 0.36859 0.0
C1850 C 0.08714 0.76445 0.38449 0.0
C1851 C 0.08387 0.79599 0.39206 0.0
C1852 C 0.11128 0.76776 0.37171 0.0
C1853 C 0.10648 0.79936 0.37823 0.0
C1854 C 0.07413 0.77856 0.39513 0.0
C1855 C 0.13408 0.81946 0.35713 0.0
N1856 N 0.14204 0.78784 0.35465 0.0
C1857 C 0.14705 0.80481 0.34769 0.0
C1858 C 0.11419 0.81674 0.37284 0.0
Eu1859 Eu 0.16511 0.76198 0.34058 0.0
N1860 N 0.12446 0.75433 0.36134 0.0
C1861 C 0.11266 0.73763 0.36162 0.0
C1862 C 0.07625 0.74712 0.38578 0.0
C1863 C 0.08876 0.73372 0.37399 0.0
H1864 H 0.16173 0.80706 0.33505 0.0
H1865 H 0.07993 0.72037 0.37434 0.0
H1866 H 0.05595 0.7762 0.40528 0.0
H1867 H 0.13919 0.83282 0.3521 0.0
H1868 H 0.12109 0.72721 0.35212 0.0
H1869 H 0.30877 0.79608 0.37786 0.0
H1870 H 0.05776 0.74405 0.39538 0.0
H1871 H 0.22707 0.70925 0.33492 0.0
H1872 H 0.26683 0.77811 0.38739 0.0
H1873 H 0.25876 0.69645 0.30874 0.0
H1874 H 0.07294 0.80685 0.39979 0.0
H1875 H 0.33769 0.78829 0.34745 0.0
H1876 H 0.34805 0.76659 0.31959 0.0
H1877 H 0.10381 0.82811 0.37994 0.0
H1878 H 0.33588 0.73875 0.30192 0.0
N1879 N 0.26749 0.76202 0.36032 0.0
C1880 C 0.27735 0.77523 0.37305 0.0
C1881 C 0.31828 0.78075 0.351 0.0
C1882 C 0.31052 0.76582 0.33955 0.0
C1883 C 0.30195 0.78523 0.3681 0.0
C1884 C 0.28474 0.75656 0.34465 0.0
H1885 H 0.30339 0.71229 0.2983 0.0
N1886 N 0.25247 0.73264 0.33913 0.0
C1887 C 0.2642 0.70912 0.31562 0.0
C1888 C 0.27765 0.74107 0.33436 0.0
C1889 C 0.24595 0.71662 0.33034 0.0
C1890 C 0.28944 0.71803 0.30988 0.0
C1891 C 0.29643 0.73421 0.31919 0.0
O1892 O 0.23285 0.71692 0.37446 0.0
O1893 O 0.1754 0.74812 0.37084 0.0
O1894 O 0.19344 0.78509 0.35144 0.0
O1895 O 0.21981 0.77289 0.37775 0.0
O1896 O 0.2014 0.754 0.39562 0.0
O1897 O 0.25593 0.73769 0.39016 0.0
O1898 O 0.13632 0.77641 0.31988 0.0
O1899 O 0.21007 0.75073 0.33393 0.0
O1900 O 0.19277 0.72217 0.36176 0.0
O1901 O 0.16629 0.73203 0.33411 0.0
O1902 O 0.20046 0.77467 0.32041 0.0
O1903 O 0.14514 0.74884 0.31431 0.0
C1904 C 0.17449 0.75326 0.38974 0.0
C1905 C 0.24318 0.71169 0.40871 0.0
C1906 C 0.24058 0.71208 0.44562 0.0
C1907 C 0.24723 0.7205 0.42722 0.0
C1908 C 0.22896 0.6948 0.4455 0.0
C1909 C 0.23212 0.69423 0.40868 0.0
C1910 C 0.2248 0.68592 0.42703 0.0
C1911 C 0.2087 0.78675 0.36832 0.0
C1912 C 0.24997 0.72074 0.38948 0.0
C1913 C 0.32153 0.74366 0.31376 0.0
C1914 C 0.32838 0.75954 0.32376 0.0
C1915 C 0.22003 0.76234 0.32122 0.0
C1916 C 0.14203 0.7674 0.28575 0.0
C1917 C 0.13407 0.7553 0.27052 0.0
C1918 C 0.14409 0.75756 0.25055 0.0
C1919 C 0.16167 0.77224 0.24569 0.0
C1920 C 0.15935 0.7822 0.28072 0.0
C1921 C 0.16901 0.7846 0.26072 0.0
C1922 C 0.1755 0.71914 0.3462 0.0
C1923 C 0.13433 0.76344 0.30698 0.0
H1924 H 0.25566 0.73398 0.4274 0.0
H1925 H 0.2239 0.68802 0.45964 0.0
H1926 H 0.22894 0.68709 0.39449 0.0
H1927 H 0.21618 0.67252 0.42694 0.0
H1928 H 0.12096 0.74377 0.27436 0.0
H1929 H 0.16952 0.77418 0.23026 0.0
H1930 H 0.16587 0.79173 0.29224 0.0
H1931 H 0.18249 0.79593 0.25693 0.0
Eu1932 Eu 0.5818 0.00308 0.36593 0.0
C1933 C 0.68969 0.96666 0.3712 0.0
C1934 C 0.72226 0.98864 0.38569 0.0
C1935 C 0.72684 0.95768 0.39565 0.0
C1936 C 0.69834 0.98424 0.37309 0.0
C1937 C 0.70451 0.95314 0.38204 0.0
C1938 C 0.73584 0.97538 0.39737 0.0
C1939 C 0.67815 0.93134 0.36245 0.0
N1940 N 0.66876 0.96257 0.35738 0.0
C1941 C 0.66475 0.94515 0.35172 0.0
C1942 C 0.69761 0.93536 0.37805 0.0
Eu1943 Eu 0.645 0.98713 0.34109 0.0
N1944 N 0.68456 0.99691 0.36183 0.0
C1945 C 0.69578 0.01377 0.36097 0.0
C1946 C 0.73232 0.00618 0.38586 0.0
C1947 C 0.71931 0.01872 0.37318 0.0
H1948 H 0.65079 0.94184 0.339 0.0
H1949 H 0.72765 0.03218 0.37258 0.0
H1950 H 0.75381 0.97861 0.40738 0.0
H1951 H 0.67382 0.91762 0.35842 0.0
H1952 H 0.68763 0.02353 0.35048 0.0
H1953 H 0.50385 0.94701 0.36609 0.0
H1954 H 0.7506 0.01005 0.39529 0.0
H1955 H 0.58059 0.04048 0.33683 0.0
H1956 H 0.54365 0.96472 0.37936 0.0
H1957 H 0.54994 0.05431 0.31102 0.0
H1958 H 0.73814 0.94749 0.40426 0.0
H1959 H 0.47504 0.9578 0.3369 0.0
H1960 H 0.46394 0.98216 0.31249 0.0
H1961 H 0.70839 0.92463 0.38611 0.0
H1962 H 0.4751 0.01169 0.29863 0.0
N1963 N 0.54258 0.98418 0.35534 0.0
C1964 C 0.53367 0.96909 0.36537 0.0
C1965 C 0.49372 0.96537 0.34202 0.0
C1966 C 0.50062 0.98175 0.33322 0.0
C1967 C 0.51005 0.95917 0.35837 0.0
C1968 C 0.52546 0.99104 0.34024 0.0
H1969 H 0.5065 0.03863 0.29823 0.0
N1970 N 0.55658 0.01622 0.33817 0.0
C1971 C 0.54485 0.0411 0.31654 0.0
C1972 C 0.53203 0.00768 0.33203 0.0
C1973 C 0.56271 0.03291 0.33097 0.0
C1974 C 0.52023 0.03228 0.30953 0.0
C1975 C 0.51356 0.0154 0.31717 0.0
O1976 O 0.56527 0.02898 0.37478 0.0
O1977 O 0.62942 0.99741 0.37141 0.0
O1978 O 0.61625 0.9637 0.35046 0.0
O1979 O 0.59008 0.97504 0.37758 0.0
O1980 O 0.60597 0.00263 0.39709 0.0
O1981 O 0.54585 0.00511 0.38751 0.0
O1982 O 0.67678 0.97281 0.32278 0.0
O1983 O 0.59959 0.99784 0.33374 0.0
O1984 O 0.61158 0.02648 0.36248 0.0
O1985 O 0.64225 0.01732 0.33646 0.0
O1986 O 0.61176 0.97477 0.31897 0.0
O1987 O 0.66477 -0.00054 0.31422 0.0
C1988 C 0.63213 -0.00102 0.39103 0.0
C1989 C 0.54199 0.0322 0.40614 0.0
C1990 C 0.54113 0.0332 0.44299 0.0
C1991 C 0.54546 0.0237 0.42492 0.0
C1992 C 0.53381 0.05134 0.44224 0.0
C1993 C 0.53431 0.05028 0.40545 0.0
C1994 C 0.53039 0.05983 0.42348 0.0
C1995 C 0.60173 0.96152 0.36765 0.0
C1996 C 0.54577 0.02252 0.38704 0.0
C1997 C 0.48919 0.00604 0.31018 0.0
C1998 C 0.48291 0.9892 0.31803 0.0
C1999 C 0.59123 0.98654 0.32004 0.0
C2000 C 0.67435 0.9792 0.28769 0.0
C2001 C 0.68057 0.99114 0.27191 0.0
C2002 C 0.67507 0.98641 0.25167 0.0
C2003 C 0.66391 0.9695 0.24708 0.0
C2004 C 0.66333 0.96219 0.283 0.0
C2005 C 0.65832 0.95738 0.26273 0.0
C2006 C 0.63117 0.02981 0.3484 0.0
C2007 C 0.67836 0.98503 0.30886 0.0
H2008 H 0.55129 0.00972 0.42557 0.0
H2009 H 0.52994 0.05879 0.45613 0.0
H2010 H 0.5313 0.05698 0.39095 0.0
H2011 H 0.52437 0.07375 0.42291 0.0
H2012 H 0.68885 0.00432 0.2754 0.0
H2013 H 0.65951 0.96573 0.23142 0.0
H2014 H 0.65827 0.95271 0.29493 0.0
H2015 H 0.64975 0.94432 0.25917 0.0
Eu2016 Eu 0.89522 0.50931 0.09163 0.0
C2017 C 0.7764 0.48463 0.08179 0.0
C2018 C 0.75362 0.51228 0.07107 0.0
C2019 C 0.7336 0.48412 0.05979 0.0
C2020 C 0.77537 0.50321 0.0823 0.0
C2021 C 0.75519 0.47501 0.07065 0.0
C2022 C 0.73285 0.50267 0.05997 0.0
C2023 C 0.77671 0.44775 0.08263 0.0
N2024 N 0.79785 0.47592 0.09204 0.0
C2025 C 0.79697 0.45772 0.09357 0.0
C2026 C 0.75596 0.45643 0.07088 0.0
Eu2027 Eu 0.82797 0.49406 0.1129 0.0
N2028 N 0.79606 0.51242 0.09292 0.0
C2029 C 0.79638 0.53066 0.09203 0.0
C2030 C 0.75358 0.53085 0.07089 0.0
C2031 C 0.77521 0.54004 0.08123 0.0
H2032 H 0.81136 0.45061 0.10371 0.0
H2033 H 0.77577 0.55444 0.08077 0.0
H2034 H 0.71617 0.50949 0.0513 0.0
H2035 H 0.77674 0.43337 0.08365 0.0
H2036 H 0.81292 0.53844 0.09906 0.0
H2037 H 0.96836 0.46893 0.13831 0.0
H2038 H 0.73732 0.53822 0.06242 0.0
H2039 H 0.90021 0.55259 0.07908 0.0
H2040 H 0.92668 0.47447 0.11581 0.0
H2041 H 0.9293 0.57897 0.08881 0.0
H2042 H 0.71735 0.4769 0.05114 0.0
H2043 H 0.99761 0.49414 0.15113 0.0
H2044 H 1.00701 0.52692 0.15181 0.0
H2045 H 0.74008 0.44865 0.06253 0.0
H2046 H 0.99564 0.55687 0.13906 0.0
N2047 N 0.93209 0.50259 0.1155 0.0
C2048 C 0.9394 0.4856 0.12092 0.0
C2049 C 0.97942 0.49666 0.14105 0.0
C2050 C 0.97235 0.51401 0.13504 0.0
C2051 C 0.96301 0.4824 0.13382 0.0
C2052 C 0.94836 0.51663 0.12192 0.0
H2053 H 0.96689 0.57637 0.11559 0.0
N2054 N 0.91975 0.5357 0.10122 0.0
C2055 C 0.93283 0.56636 0.0964 0.0
C2056 C 0.94183 0.53362 0.1148 0.0
C2057 C 0.9164 0.55146 0.09098 0.0
C2058 C 0.95398 0.56484 0.11155 0.0
C2059 C 0.95926 0.54825 0.12055 0.0
O2060 O 0.91422 0.52092 0.06422 0.0
O2061 O 0.85054 0.49824 0.08227 0.0
O2062 O 0.85218 0.46947 0.10214 0.0
O2063 O 0.89507 0.4793 0.08688 0.0
O2064 O 0.86476 0.52017 0.06648 0.0
O2065 O 0.93425 0.49776 0.0782 0.0
O2066 O 0.80881 0.47349 0.13207 0.0
O2067 O 0.87496 0.49976 0.12079 0.0
O2068 O 0.87635 0.53231 0.11028 0.0
O2069 O 0.83389 0.52205 0.126 0.0
O2070 O 0.85099 0.48997 0.14412 0.0
O2071 O 0.78651 0.49883 0.12778 0.0
C2072 C 0.84418 0.50845 0.06716 0.0
C2073 C 0.94718 0.50443 0.04421 0.0
C2074 C 0.94156 0.48926 1.01172 0.0
C2075 C 0.931 0.49345 1.03128 0.0
C2076 C 0.9688 0.49605 1.00563 0.0
C2077 C 0.97429 0.51091 1.03801 0.0
C2078 C 0.9851 0.50666 1.01879 0.0
C2079 C 0.87679 0.46658 0.09229 0.0
C2080 C 0.93605 0.50988 0.06402 0.0
C2081 C 0.98223 0.54575 0.13435 0.0
C2082 C 0.98878 0.52868 0.14155 0.0
C2083 C 0.87676 0.4957 0.13994 0.0
C2084 C 0.77115 0.48083 0.15501 0.0
C2085 C 0.7857 0.48531 0.17292 0.0
C2086 C 0.77114 0.48425 0.19154 0.0
C2087 C 0.74208 0.47861 0.19227 0.0
C2088 C 0.74223 0.475 0.15568 0.0
C2089 C 0.72773 0.47388 0.17432 0.0
C2090 C 0.85395 0.53446 0.12278 0.0
C2091 C 0.78526 0.48276 0.13536 0.0
H2092 H 0.91022 0.48839 1.03645 0.0
H2093 H 0.97728 0.49361 0.99047 0.0
H2094 H 0.98694 0.51943 0.04798 0.0
H2095 H 1.00592 0.51186 1.01394 0.0
H2096 H 0.80797 0.48997 0.17236 0.0
H2097 H 0.73064 0.4778 0.20669 0.0
H2098 H 0.73083 0.47151 0.14177 0.0
H2099 H 0.70537 0.46946 0.17485 0.0
Eu2100 Eu 0.41153 0.73648 0.09087 0.0
C2101 C 0.52564 0.75666 0.08121 0.0
C2102 C 0.55706 0.73081 0.08349 0.0
C2103 C 0.56846 0.75437 0.05947 0.0
C2104 C 0.53215 0.74029 0.09003 0.0
C2105 C 0.54414 0.76396 0.06613 0.0
C2106 C 0.57473 0.73777 0.06797 0.0
C2107 C 0.51308 0.78977 0.06483 0.0
N2108 N 0.50121 0.7654 0.08713 0.0
C2109 C 0.49513 0.78193 0.07946 0.0
C2110 C 0.53763 0.78072 0.05804 0.0
Eu2111 Eu 0.47532 0.75298 0.11492 0.0
N2112 N 0.51514 0.73401 0.1055 0.0
C2113 C 0.52437 0.71947 0.11644 0.0
C2114 C 0.56418 0.71485 0.09318 0.0
C2115 C 0.54807 0.70935 0.10997 0.0
H2116 H 0.47702 0.78952 0.085 0.0
H2117 H 0.55449 0.6976 0.1184 0.0
H2118 H 0.59374 0.73058 0.06277 0.0
H2119 H 0.50804 0.80286 0.05889 0.0
H2120 H 0.51451 0.71571 0.13071 0.0
H2121 H 0.33223 0.77724 0.13164 0.0
H2122 H 0.58294 0.70717 0.08849 0.0
H2123 H 0.40783 0.69168 0.0831 0.0
H2124 H 0.37279 0.77129 0.10842 0.0
H2125 H 0.38532 0.66534 0.09894 0.0
H2126 H 0.58259 0.75969 0.04773 0.0
H2127 H 0.30945 0.75253 0.15071 0.0
H2128 H 0.30679 0.71991 0.15808 0.0
H2129 H 0.55139 0.78677 0.04656 0.0
H2130 H 0.32244 0.68945 0.14998 0.0
N2131 N 0.37431 0.74348 0.11459 0.0
C2132 C 0.3637 0.76037 0.11683 0.0
C2133 C 0.32743 0.74982 0.14051 0.0
C2134 C 0.33749 0.73245 0.13754 0.0
C2135 C 0.34027 0.76379 0.12982 0.0
C2136 C 0.36095 0.7296 0.12401 0.0
H2137 H 0.35161 0.66898 0.12798 0.0
N2138 N 0.38988 0.71005 0.10451 0.0
C2139 C 0.38094 0.67847 0.10501 0.0
C2140 C 0.36952 0.71243 0.11924 0.0
C2141 C 0.39383 0.69344 0.09621 0.0
C2142 C 0.36201 0.68058 0.12141 0.0
C2143 C 0.3552 0.69772 0.1282 0.0
O2144 O 0.38861 0.72225 0.06666 0.0
O2145 O 0.45625 0.74812 0.08293 0.0
O2146 O 0.44486 0.77594 0.1108 0.0
O2147 O 0.41442 0.76651 0.08478 0.0
O2148 O 0.44289 0.72638 0.06617 0.0
O2149 O 0.3763 0.7492 0.07411 0.0
O2150 O 0.4893 0.77948 0.12369 0.0
O2151 O 0.42829 0.74616 0.1213 0.0
O2152 O 0.43955 0.71314 0.10123 0.0
O2153 O 0.46783 0.72497 0.127 0.0
O2154 O 0.45234 0.75295 0.14634 0.0
O2155 O 0.5109 0.75642 0.13652 0.0
C2156 C 0.464 0.73759 0.06825 0.0
C2157 C 0.36279 0.7383 0.04177 0.0
C2158 C 0.37002 0.75279 1.00907 0.0
C2159 C 0.37859 0.74997 1.02937 0.0
C2160 C 0.34553 0.74369 1.00142 0.0
C2161 C 0.33843 0.72942 1.03402 0.0
C2162 C 0.32983 0.73213 1.01389 0.0
C2163 C 0.42539 0.77911 0.09661 0.0
C2164 C 0.37085 0.73528 0.06297 0.0
C2165 C 0.33338 0.70058 0.1428 0.0
C2166 C 0.32439 0.71791 0.14734 0.0
C2167 C 0.42626 0.7486 0.14088 0.0
C2168 C 0.50775 0.78264 0.15677 0.0
C2169 C 0.51283 0.77297 0.17465 0.0
C2170 C 0.51331 0.78158 0.19355 0.0
C2171 C 0.5079 0.79998 0.19458 0.0
C2172 C 0.50286 0.80108 0.15792 0.0
C2173 C 0.50269 0.80966 0.1768 0.0
C2174 C 0.45549 0.71131 0.11781 0.0
C2175 C 0.50824 0.77375 0.13685 0.0
H2176 H 0.39729 0.75687 1.03558 0.0
H2177 H 0.3388 0.74522 0.98569 0.0
H2178 H 0.32606 0.72039 0.04356 0.0
H2179 H 0.3111 0.72517 1.00788 0.0
H2180 H 0.5167 0.75875 0.17394 0.0
H2181 H 0.50859 0.80696 0.20904 0.0
H2182 H 0.49925 0.80886 0.14423 0.0
H2183 H 0.49897 0.82387 0.17761 0.0
Eu2184 Eu 0.89643 0.73727 0.24255 0.0
C2185 C 0.78116 0.75624 0.25037 0.0
C2186 C 0.74755 0.73186 0.24512 0.0
C2187 C 0.73765 0.75379 0.27138 0.0
C2188 C 0.77348 0.74092 0.23995 0.0
C2189 C 0.76279 0.76313 0.26576 0.0
C2190 C 0.73024 0.73807 0.26125 0.0
C2191 C 0.79527 0.78814 0.26896 0.0
N2192 N 0.80628 0.76461 0.2453 0.0
C2193 C 0.81312 0.7806 0.25404 0.0
C2194 C 0.77012 0.77929 0.27501 0.0
Eu2195 Eu 0.8335 0.75264 0.21768 0.0
N2196 N 0.79009 0.73561 0.22389 0.0
C2197 C 0.77925 0.723 0.21076 0.0
C2198 C 0.73896 0.71731 0.23331 0.0
C2199 C 0.75452 0.71314 0.21574 0.0
H2200 H 0.83193 0.78792 0.24922 0.0
H2201 H 0.74705 0.70265 0.20572 0.0
H2202 H 0.7105 0.73115 0.26552 0.0
H2203 H 0.80094 0.8008 0.27577 0.0
H2204 H 0.78957 0.72039 0.19625 0.0
H2205 H 0.97462 0.77563 0.19767 0.0
H2206 H 0.71943 0.7099 0.23693 0.0
H2207 H 0.90278 0.69445 0.25751 0.0
H2208 H 0.93353 0.77116 0.22107 0.0
H2209 H 0.92947 0.66728 0.24733 0.0
H2210 H 0.72365 0.75872 0.28341 0.0
H2211 H 0.99973 0.74965 0.18269 0.0
H2212 H 1.00541 0.71656 0.18068 0.0
H2213 H 0.75646 0.78507 0.28673 0.0
H2214 H 0.99238 0.68694 0.19369 0.0
N2215 N 0.93453 0.7429 0.21909 0.0
C2216 C 0.94398 0.7597 0.21455 0.0
C2217 C 0.98162 0.7476 0.19298 0.0
C2218 C 0.97279 0.73043 0.19844 0.0
C2219 C 0.96752 0.76229 0.20141 0.0
C2220 C 0.94911 0.72845 0.21197 0.0
H2221 H 0.96439 0.66845 0.2187 0.0
N2222 N 0.92078 0.7104 0.23382 0.0
C2223 C 0.93293 0.67963 0.23918 0.0
C2224 C 0.9418 0.71172 0.21935 0.0
C2225 C 0.91792 0.69501 0.2449 0.0
C2226 C 0.95252 0.68034 0.22296 0.0
C2227 C 0.95794 0.69662 0.2133 0.0
O2228 O 0.91373 0.72704 0.2713 0.0
O2229 O 0.85078 0.74769 0.24982 0.0
O2230 O 0.8655 0.77514 0.22051 0.0
O2231 O 0.8922 0.76712 0.2488 0.0
O2232 O 0.86337 0.72508 0.26502 0.0
O2233 O 0.93456 0.74939 0.25666 0.0
O2234 O 0.8225 0.77998 0.20994 0.0
O2235 O 0.88212 0.7493 0.21213 0.0
O2236 O 0.87737 0.71308 0.2266 0.0
O2237 O 0.83594 0.72314 0.21025 0.0
O2238 O 0.85542 0.74264 0.18814 0.0
O2239 O 0.80321 0.75856 0.19295 0.0
C2240 C 0.84232 0.73639 0.26342 0.0
C2241 C 0.94576 0.7443 0.29125 0.0
C2242 C 0.93896 0.76096 0.32265 0.0
C2243 C 0.9291 0.75586 0.30319 0.0
C2244 C 0.96599 0.75448 0.32962 0.0
C2245 C 0.97264 0.73814 0.29831 0.0
C2246 C 0.98276 0.74329 0.31742 0.0
C2247 C 0.88257 0.77925 0.23589 0.0
C2248 C 0.93556 0.738 0.27152 0.0
C2249 C 0.98005 0.69842 0.1987 0.0
C2250 C 0.98753 0.71529 0.19133 0.0
C2251 C 0.88254 0.74352 0.19347 0.0
C2252 C 0.81419 0.78531 0.17529 0.0
C2253 C 0.81136 0.7768 0.15645 0.0
C2254 C 0.81809 0.78576 0.13838 0.0
C2255 C 0.82842 0.80333 0.13918 0.0
C2256 C 0.824 0.80303 0.17596 0.0
C2257 C 0.83129 0.81192 0.15796 0.0
C2258 C 0.85424 0.71038 0.21521 0.0
C2259 C 0.80711 0.7757 0.19416 0.0
H2260 H 0.90849 0.76065 0.29736 0.0
H2261 H 0.97393 0.75758 0.34476 0.0
H2262 H 0.98565 0.72919 0.28911 0.0
H2263 H 1.00338 0.73833 0.32296 0.0
H2264 H 0.80381 0.76314 0.15575 0.0
H2265 H 0.83347 0.81055 0.12532 0.0
H2266 H 0.82617 0.80997 0.19038 0.0
H2267 H 0.83889 0.82555 0.15855 0.0
Eu2268 Eu 0.40918 0.51095 0.23934 0.0
C2269 C 0.52595 0.47949 0.24725 0.0
C2270 C 0.55081 0.50503 0.26208 0.0
C2271 C 0.56823 0.47519 0.26916 0.0
C2272 C 0.52832 0.49795 0.24981 0.0
C2273 C 0.54639 0.46807 0.25667 0.0
C2274 C 0.57046 0.49358 0.27182 0.0
C2275 C 0.52479 0.44333 0.23881 0.0
N2276 N 0.50475 0.47273 0.23495 0.0
C2277 C 0.50536 0.45508 0.22956 0.0
C2278 C 0.54508 0.4498 0.2527 0.0
Eu2279 Eu 0.47685 0.49458 0.21762 0.0
N2280 N 0.50884 0.50897 0.24049 0.0
C2281 C 0.51108 0.52702 0.24256 0.0
C2282 C 0.55298 0.5235 0.26428 0.0
C2283 C 0.53304 0.53452 0.25448 0.0
H2284 H 0.49074 0.44997 0.21803 0.0
H2285 H 0.53461 0.54883 0.25607 0.0
H2286 H 0.58764 0.49884 0.28138 0.0
H2287 H 0.52445 0.42933 0.23491 0.0
H2288 H 0.49628 0.53582 0.23502 0.0
H2289 H 0.33399 0.46931 0.19598 0.0
H2290 H 0.56993 0.52938 0.27355 0.0
H2291 H 0.40552 0.5558 0.24759 0.0
H2292 H 0.37552 0.4754 0.2183 0.0
H2293 H 0.3803 0.58189 0.23325 0.0
H2294 H 0.5839 0.46657 0.27655 0.0
H2295 H 0.3076 0.49416 0.17969 0.0
H2296 H 0.30156 0.52686 0.17471 0.0
H2297 H 0.5604 0.44067 0.25964 0.0
H2298 H 0.31536 0.55738 0.18386 0.0
N2299 N 0.37293 0.50356 0.21523 0.0
C2300 C 0.36417 0.48645 0.21165 0.0
C2301 C 0.32574 0.49696 0.18973 0.0
C2302 C 0.33431 0.51448 0.19375 0.0
C2303 C 0.34054 0.48291 0.1989 0.0
C2304 C 0.3581 0.51748 0.20697 0.0
H2305 H 0.34469 0.57798 0.20542 0.0
N2306 N 0.38715 0.53742 0.22635 0.0
C2307 C 0.37629 0.56879 0.227 0.0
C2308 C 0.36585 0.5348 0.21226 0.0
C2309 C 0.3907 0.55398 0.23494 0.0
C2310 C 0.35626 0.56651 0.21129 0.0
C2311 C 0.35003 0.54936 0.20425 0.0
O2312 O 0.38693 0.52529 0.26365 0.0
O2313 O 0.45531 0.50258 0.24715 0.0
O2314 O 0.45346 0.47048 0.22992 0.0
O2315 O 0.41022 0.4808 0.24455 0.0
O2316 O 0.43413 0.51538 0.26983 0.0
O2317 O 0.37039 0.49972 0.25331 0.0
O2318 O 0.50195 0.4787 0.19606 0.0
O2319 O 0.42982 0.50098 0.20998 0.0
O2320 O 0.4349 0.53435 0.22655 0.0
O2321 O 0.46952 0.52241 0.20462 0.0
O2322 O 0.45194 0.48761 0.18784 0.0
O2323 O 0.51667 0.50535 0.2049 0.0
C2324 C 0.45821 0.50724 0.266 0.0
C2325 C 0.35645 0.50949 0.28603 0.0
C2326 C 0.36201 0.49485 0.31884 0.0
C2327 C 0.37178 0.49795 0.29884 0.0
C2328 C 0.33649 0.5034 0.32562 0.0
C2329 C 0.33106 0.51779 0.29292 0.0
C2330 C 0.32108 0.5147 0.31266 0.0
C2331 C 0.42887 0.46797 0.23989 0.0
C2332 C 0.36659 0.5133 0.26545 0.0
C2333 C 0.3275 0.54635 0.19024 0.0
C2334 C 0.31956 0.52897 0.1851 0.0
C2335 C 0.42705 0.49503 0.19152 0.0
C2336 C 0.54156 0.49137 0.17797 0.0
C2337 C 0.52992 0.49536 0.15898 0.0
C2338 C 0.54817 0.49646 0.14202 0.0
C2339 C 0.57825 0.49384 0.14426 0.0
C2340 C 0.57151 0.48864 0.18028 0.0
C2341 C 0.58985 0.48992 0.16341 0.0
C2342 C 0.45338 0.5358 0.21121 0.0
C2343 C 0.52301 0.49042 0.19571 0.0
H2344 H 0.39124 0.49148 0.2932 0.0
H2345 H 0.32875 0.50175 0.34111 0.0
H2346 H 0.31906 0.52674 0.28305 0.0
H2347 H 0.30158 0.52125 0.31802 0.0
H2348 H 0.50673 0.49758 0.15742 0.0
H2349 H 0.59261 0.49442 0.13118 0.0
H2350 H 0.58064 0.48557 0.19511 0.0
H2351 H 0.61296 0.48777 0.16513 0.0
Eu2352 Eu 0.22425 0.50242 0.96686 0.0
C2353 C 0.11853 0.45888 0.96864 0.0
C2354 C 0.08595 0.47625 0.94738 0.0
C2355 C 0.08128 0.44406 0.94848 0.0
C2356 C 0.10985 0.47524 0.96084 0.0
C2357 C 0.10372 0.44319 0.96295 0.0
C2358 C 0.07235 0.46055 0.94077 0.0
C2359 C 0.13099 0.42731 0.98867 0.0
N2360 N 0.13985 0.45846 0.98299 0.0
C2361 C 0.14462 0.44324 0.9941 0.0
C2362 C 0.11088 0.42721 0.97273 0.0
Eu2363 Eu 0.16151 0.48631 0.99115 0.0
N2364 N 0.12333 0.49026 0.96748 0.0
C2365 C 0.11259 0.50667 0.96258 0.0
C2366 C 0.07574 0.49304 0.94153 0.0
C2367 C 0.08875 0.50831 0.94949 0.0
H2368 H 0.16013 0.44333 1.0065 0.0
H2369 H 0.08061 0.52135 0.94541 0.0
H2370 H 0.05426 0.46108 0.9302 0.0
H2371 H 0.13588 0.41516 0.99685 0.0
H2372 H 0.1225 0.51854 0.96869 0.0
H2373 H 0.30702 0.44885 0.96158 0.0
H2374 H 0.0574 0.49435 0.93127 0.0
H2375 H 0.22562 0.53863 0.99689 0.0
H2376 H 0.2667 0.46674 0.94949 0.0
H2377 H 0.2565 0.55238 1.02284 0.0
H2378 H 0.06989 0.43212 0.94378 0.0
H2379 H 0.33484 0.45814 0.99191 0.0
H2380 H 0.34493 0.4814 1.01797 0.0
H2381 H 0.10007 0.41489 0.96872 0.0
H2382 H 0.33284 0.51023 1.03337 0.0
N2383 N 0.26605 0.48439 0.97539 0.0
C2384 C 0.27615 0.47032 0.96398 0.0
C2385 C 0.31584 0.46567 0.98733 0.0
C2386 C 0.30813 0.48135 0.99733 0.0
C2387 C 0.3001 0.46033 0.97031 0.0
C2388 C 0.28282 0.49056 0.99101 0.0
H2389 H 0.30065 0.5369 1.03484 0.0
N2390 N 0.25084 0.51498 0.99439 0.0
C2391 C 0.262 0.53941 1.01679 0.0
C2392 C 0.27569 0.50662 1.00011 0.0
C2393 C 0.24417 0.53135 1.00222 0.0
C2394 C 0.28698 0.5307 1.0234 0.0
C2395 C 0.29406 0.51409 1.01517 0.0
O2396 O 0.23427 0.52966 0.95824 0.0
O2397 O 0.17555 0.49933 0.96118 0.0
O2398 O 0.18136 0.46277 0.97436 0.0
O2399 O 0.22003 0.47387 0.95574 0.0
O2400 O 0.20235 0.49381 0.93677 0.0
O2401 O 0.25776 0.50816 0.94421 0.0
O2402 O 0.1432 0.47611 1.01954 0.0
O2403 O 0.20671 0.49709 0.99885 0.0
O2404 O 0.19251 0.52506 0.97016 0.0
O2405 O 0.16424 0.51624 0.99743 0.0
O2406 O 0.19438 0.47449 1.01406 0.0
O2407 O 0.12266 0.49831 1.00449 0.0
C2408 C 0.17522 0.49443 0.94216 0.0
C2409 C 0.24656 0.53354 0.92421 0.0
C2410 C 0.24016 0.5311 0.88764 0.0
C2411 C 0.24674 0.52333 0.90642 0.0
C2412 C 0.23247 0.54917 0.8867 0.0
C2413 C 0.23941 0.55171 0.92314 0.0
C2414 C 0.23214 0.55943 0.90445 0.0
C2415 C 0.20276 0.46074 0.96127 0.0
C2416 C 0.25224 0.52518 0.94398 0.0
C2417 C 0.3188 0.5048 1.02164 0.0
C2418 C 0.32561 0.48836 1.01292 0.0
C2419 C 0.21525 0.48593 1.01256 0.0
C2420 C 0.11134 0.49375 1.0391 0.0
C2421 C 0.13038 0.50232 0.05247 0.0
C2422 C 0.12132 0.50675 0.07234 0.0
C2423 C 0.09232 0.50316 0.07805 0.0
C2424 C 0.08258 0.49048 0.04491 0.0
C2425 C 0.07305 0.49533 0.06428 0.0
C2426 C 0.17434 0.52869 0.98508 0.0
C2427 C 0.12134 0.48707 1.01948 0.0
H2428 H 0.25209 0.50928 0.90707 0.0
H2429 H 0.22767 0.55547 0.87222 0.0
H2430 H 0.23908 0.55985 0.93679 0.0
H2431 H 0.22653 0.5734 0.90369 0.0
H2432 H 0.15232 0.50507 0.04741 0.0
H2433 H 0.08458 0.50582 0.09334 0.0
H2434 H 0.06768 0.48388 1.03458 0.0
H2435 H 0.05091 0.49255 0.06885 0.0
Eu2436 Eu 0.58537 0.24359 0.96585 0.0
C2437 C 0.69204 0.28571 0.9676 0.0
C2438 C 0.72455 0.26718 0.94764 0.0
C2439 C 0.73021 0.29931 0.94713 0.0
C2440 C 0.70041 0.26898 0.96079 0.0
C2441 C 0.70749 0.30099 0.96129 0.0
C2442 C 0.73879 0.28244 0.94038 0.0
C2443 C 0.68048 0.31814 0.986 0.0
N2444 N 0.67051 0.28692 0.98172 0.0
C2445 C 0.6663 0.30259 0.99212 0.0
C2446 C 0.70073 0.31741 0.9702 0.0
Eu2447 Eu 0.64767 0.2596 0.99104 0.0
N2448 N 0.68629 0.25438 0.96801 0.0
C2449 C 0.69652 0.23768 0.96393 0.0
C2450 C 0.73428 0.25008 0.94268 0.0
C2451 C 0.72054 0.23528 0.95118 0.0
H2452 H 0.65072 0.30317 1.00447 0.0
H2453 H 0.72827 0.222 0.94778 0.0
H2454 H 0.75707 0.2813 0.93005 0.0
H2455 H 0.67593 0.33063 0.99358 0.0
H2456 H 0.68618 0.22617 0.9705 0.0
H2457 H 0.50248 0.29639 0.95554 0.0
H2458 H 0.75277 0.24816 0.93269 0.0
H2459 H 0.58177 0.20816 0.99686 0.0
H2460 H 0.54322 0.27777 0.94529 0.0
H2461 H 0.54977 0.19548 1.02296 0.0
H2462 H 0.74207 0.31092 0.94196 0.0
H2463 H 0.47423 0.28901 0.98638 0.0
H2464 H 0.46353 0.26722 1.01404 0.0
H2465 H 0.71201 0.32943 0.96568 0.0
H2466 H 0.47474 0.23896 1.03113 0.0
N2467 N 0.54317 0.26181 0.97254 0.0
C2468 C 0.53322 0.27509 0.95988 0.0
C2469 C 0.49326 0.28121 0.98255 0.0
C2470 C 0.50074 0.26612 0.9938 0.0
C2471 C 0.50921 0.28546 0.96521 0.0
C2472 C 0.52607 0.25654 0.98838 0.0
H2473 H 0.50601 0.21191 1.03399 0.0
N2474 N 0.55733 0.232 0.99323 0.0
C2475 C 0.54485 0.20835 1.01637 0.0
C2476 C 0.53266 0.24082 0.99838 0.0
C2477 C 0.56326 0.21576 1.0017 0.0
C2478 C 0.5201 0.21759 1.02246 0.0
C2479 C 0.51377 0.23405 1.01354 0.0
O2480 O 0.57501 0.21626 0.9578 0.0
O2481 O 0.63424 0.24674 0.96086 0.0
O2482 O 0.62752 0.28325 0.97474 0.0
O2483 O 0.58972 0.27227 0.95527 0.0
O2484 O 0.60803 0.25233 0.93613 0.0
O2485 O 0.55367 0.23761 0.94197 0.0
O2486 O 0.66544 0.27114 1.01903 0.0
O2487 O 0.6022 0.24894 0.99812 0.0
O2488 O 0.6167 0.22084 0.97006 0.0
O2489 O 0.6441 0.2297 0.99777 0.0
O2490 O 0.61437 0.27149 1.01349 0.0
O2491 O 0.68525 0.24756 1.00611 0.0
C2492 C 0.63499 0.25177 0.9419 0.0
C2493 C 0.56372 0.21106 0.92357 0.0
C2494 C 0.56449 0.21071 0.88655 0.0
C2495 C 0.55877 0.21953 0.9049 0.0
C2496 C 0.57555 0.1933 0.88689 0.0
C2497 C 0.57422 0.19347 0.92376 0.0
C2498 C 0.58027 0.18471 0.90547 0.0
C2499 C 0.60656 0.28538 0.96136 0.0
C2500 C 0.55814 0.22051 0.94279 0.0
C2501 C 0.48916 0.24383 1.01931 0.0
C2502 C 0.48286 0.25994 1.00964 0.0
C2503 C 0.59343 0.26013 1.01174 0.0
C2504 C 0.70114 0.25648 1.03911 0.0
C2505 C 0.69022 0.24368 0.05255 0.0
C2506 C 0.70289 0.24144 0.07196 0.0
C2507 C 0.72733 0.25187 0.07715 0.0
C2508 C 0.72553 0.26657 0.04446 0.0
C2509 C 0.7387 0.26416 0.06337 0.0
C2510 C 0.63408 0.21717 0.98546 0.0
C2511 C 0.68719 0.26015 1.01961 0.0
H2512 H 0.55065 0.23308 0.90458 0.0
H2513 H 0.57992 0.18622 0.87282 0.0
H2514 H 0.57792 0.18655 0.93803 0.0
H2515 H 0.58848 0.17121 0.9057 0.0
H2516 H 0.67168 0.23579 0.04789 0.0
H2517 H 0.73722 0.25107 0.0921 0.0
H2518 H 0.73417 0.27648 1.03408 0.0
H2519 H 0.75734 0.27215 0.06755 0.0
Eu2520 Eu 0.22487 0.24401 0.86193 0.0
C2521 C 0.121 0.28692 0.86572 0.0
C2522 C 0.08795 0.26744 0.88394 0.0
C2523 C 0.08518 0.29938 0.88908 0.0
C2524 C 0.11162 0.2699 0.87048 0.0
C2525 C 0.10721 0.30186 0.87455 0.0
C2526 C 0.07544 0.28221 0.89366 0.0
C2527 C 0.13384 0.32063 0.85131 0.0
N2528 N 0.14161 0.28893 0.85109 0.0
C2529 C 0.14619 0.30543 0.84264 0.0
C2530 C 0.11475 0.31887 0.86768 0.0
Eu2531 Eu 0.16212 0.26212 0.83761 0.0
N2532 N 0.12438 0.25579 0.86112 0.0
C2533 C 0.11301 0.23908 0.86332 0.0
C2534 C 0.07709 0.25025 0.88688 0.0
C2535 C 0.08935 0.23606 0.87622 0.0
H2536 H 0.16043 0.30691 0.82961 0.0
H2537 H 0.08071 0.22275 0.87803 0.0
H2538 H 0.05767 0.28052 0.90433 0.0
H2539 H 0.13877 0.33367 0.84518 0.0
H2540 H 0.12175 0.22802 0.85495 0.0
H2541 H 0.30769 0.29732 0.86627 0.0
H2542 H 0.05893 0.24784 0.89702 0.0
H2543 H 0.22473 0.20759 0.83182 0.0
H2544 H 0.26649 0.28012 0.87828 0.0
H2545 H 0.25505 0.19365 0.80575 0.0
H2546 H 0.07465 0.3107 0.89618 0.0
H2547 H 0.33591 0.2872 0.83649 0.0
H2548 H 0.34554 0.26364 0.81069 0.0
H2549 H 0.10479 0.33065 0.87416 0.0
H2550 H 0.33263 0.23493 0.79535 0.0
N2551 N 0.26637 0.26183 0.85304 0.0
C2552 C 0.27632 0.27613 0.86408 0.0
C2553 C 0.31666 0.27992 0.84106 0.0
C2554 C 0.30868 0.26418 0.83125 0.0
C2555 C 0.30069 0.28573 0.85778 0.0
C2556 C 0.28314 0.25526 0.83761 0.0
H2557 H 0.29963 0.20866 0.79379 0.0
N2558 N 0.25061 0.23101 0.83437 0.0
C2559 C 0.26095 0.20654 0.81184 0.0
C2560 C 0.27564 0.23916 0.82862 0.0
C2561 C 0.24342 0.21474 0.82646 0.0
C2562 C 0.28618 0.21498 0.80526 0.0
C2563 C 0.29377 0.23149 0.81355 0.0
O2564 O 0.23644 0.21696 0.87014 0.0
O2565 O 0.17761 0.2505 0.86759 0.0
O2566 O 0.19021 0.28489 0.84916 0.0
O2567 O 0.21935 0.27226 0.874 0.0
O2568 O 0.20206 0.24656 0.89324 0.0
O2569 O 0.25818 0.23893 0.88494 0.0
O2570 O 0.14147 0.27653 0.81251 0.0
O2571 O 0.20649 0.24985 0.83003 0.0
O2572 O 0.19261 0.22195 0.85726 0.0
O2573 O 0.16389 0.23224 0.83068 0.0
O2574 O 0.19462 0.27189 0.81338 0.0
O2575 O 0.12535 0.25068 0.82129 0.0
C2576 C 0.17587 0.25022 0.88741 0.0
C2577 C 0.24697 0.21328 0.90467 0.0
C2578 C 0.24177 0.2152 0.94146 0.0
C2579 C 0.24956 0.22292 0.92283 0.0
C2580 C 0.23082 0.19776 0.94187 0.0
C2581 C 0.23659 0.19568 0.90531 0.0
C2582 C 0.22834 0.18804 0.92383 0.0
C2583 C 0.20692 0.28619 0.86539 0.0
C2584 C 0.25335 0.22179 0.88498 0.0
C2585 C 0.31876 0.24051 0.80708 0.0
C2586 C 0.32604 0.25689 0.81576 0.0
C2587 C 0.21519 0.26032 0.81558 0.0
C2588 C 0.11331 0.26096 0.78845 0.0
C2589 C 0.12783 0.24831 0.77657 0.0
C2590 C 0.119 0.24517 0.75638 0.0
C2591 C 0.09533 0.25485 0.74839 0.0
C2592 C 0.08978 0.27042 0.78035 0.0
C2593 C 0.08079 0.26733 0.76037 0.0
C2594 C 0.17369 0.2193 0.84255 0.0
C2595 C 0.12188 0.26439 0.80946 0.0
H2596 H 0.25745 0.23652 0.92254 0.0
H2597 H 0.225 0.19147 0.95618 0.0
H2598 H 0.23442 0.18792 0.89145 0.0
H2599 H 0.22019 0.17453 0.92421 0.0
H2600 H 0.14583 0.24095 0.7831 0.0
H2601 H 0.08844 0.25313 0.73272 0.0
H2602 H 0.07836 0.28019 0.7895 0.0
H2603 H 0.06271 0.27474 0.7541 0.0
Eu2604 Eu 0.58311 0.50209 0.8629 0.0
C2605 C 0.69002 0.46263 0.86901 0.0
C2606 C 0.72162 0.48321 0.88693 0.0
C2607 C 0.72645 0.45147 0.89281 0.0
C2608 C 0.69826 0.47996 0.8734 0.0
C2609 C 0.70466 0.4482 0.87831 0.0
C2610 C 0.73508 0.46893 0.89698 0.0
C2611 C 0.67921 0.42832 0.85565 0.0
N2612 N 0.66962 0.45983 0.85439 0.0
C2613 C 0.66602 0.44303 0.8465 0.0
C2614 C 0.69814 0.43088 0.87196 0.0
Eu2615 Eu 0.64761 0.48586 0.84003 0.0
N2616 N 0.68457 0.49362 0.86374 0.0
C2617 C 0.69472 0.51063 0.86583 0.0
C2618 C 0.73118 0.5007 0.8897 0.0
C2619 C 0.71795 0.51443 0.87885 0.0
H2620 H 0.65203 0.44091 0.83345 0.0
H2621 H 0.72561 0.52797 0.88051 0.0
H2622 H 0.75263 0.47123 0.90769 0.0
H2623 H 0.67508 0.41505 0.84992 0.0
H2624 H 0.68559 0.52139 0.85719 0.0
H2625 H 0.50864 0.44469 0.85344 0.0
H2626 H 0.74905 0.5037 0.8999 0.0
H2627 H 0.58187 0.54193 0.83817 0.0
H2628 H 0.54704 0.46128 0.86962 0.0
H2629 H 0.55252 0.55726 0.81287 0.0
H2630 H 0.73762 0.44055 0.90023 0.0
H2631 H 0.47998 0.45816 0.82573 0.0
H2632 H 0.46872 0.48458 0.80454 0.0
H2633 H 0.70878 0.41949 0.87882 0.0
H2634 H 0.47958 0.51522 0.79432 0.0
N2635 N 0.54594 0.48336 0.84872 0.0
C2636 C 0.53756 0.46708 0.85624 0.0
C2637 C 0.49822 0.46538 0.83211 0.0
C2638 C 0.50473 0.48263 0.82572 0.0
C2639 C 0.51451 0.45767 0.84759 0.0
C2640 C 0.52902 0.49149 0.83431 0.0
H2641 H 0.51044 0.54219 0.79726 0.0
N2642 N 0.5594 0.51713 0.8358 0.0
C2643 C 0.54774 0.54356 0.81672 0.0
C2644 C 0.53543 0.50886 0.82817 0.0
C2645 C 0.56505 0.53448 0.83076 0.0
C2646 C 0.52386 0.53508 0.80814 0.0
C2647 C 0.51732 0.51761 0.81384 0.0
O2648 O 0.56625 0.5271 0.87491 0.0
O2649 O 0.62992 0.49532 0.87018 0.0
O2650 O 0.62013 0.46254 0.85112 0.0
O2651 O 0.59041 0.47442 0.87612 0.0
O2652 O 0.60556 0.5031 0.89463 0.0
O2653 O 0.54334 0.50228 0.88062 0.0
O2654 O 0.67033 0.47117 0.81615 0.0
O2655 O 0.60325 0.4976 0.83126 0.0
O2656 O 0.61336 0.52532 0.85973 0.0
O2657 O 0.64449 0.51595 0.83402 0.0
O2658 O 0.61675 0.47575 0.81489 0.0
O2659 O 0.68371 0.49795 0.82356 0.0
C2660 C 0.63166 0.49828 0.88966 0.0
C2661 C 0.53477 0.52621 0.90306 0.0
C2662 C 0.52655 0.52175 0.93894 0.0
C2663 C 0.53754 0.51565 0.92047 0.0
C2664 C 0.51338 0.53855 0.94029 0.0
C2665 C 0.5216 0.54303 0.9043 0.0
C2666 C 0.51104 0.54921 0.92295 0.0
C2667 C 0.60406 0.46082 0.86767 0.0
C2668 C 0.54379 0.51951 0.88326 0.0
C2669 C 0.49341 0.50872 0.80544 0.0
C2670 C 0.48728 0.49126 0.81123 0.0
C2671 C 0.59584 0.48717 0.81644 0.0
C2672 C 0.69692 0.48668 0.79134 0.0
C2673 C 0.68166 0.4986 0.77894 0.0
C2674 C 0.69005 0.50108 0.75856 0.0
C2675 C 0.71388 0.49141 0.75082 0.0
C2676 C 0.72063 0.47721 0.7835 0.0
C2677 C 0.72908 0.47959 0.76328 0.0
C2678 C 0.63316 0.52855 0.84573 0.0
C2679 C 0.68871 0.48389 0.81253 0.0
H2680 H 0.54762 0.50262 0.91964 0.0
H2681 H 0.50483 0.54331 0.9547 0.0
H2682 H 0.51918 0.55124 0.89081 0.0
H2683 H 0.50076 0.56214 0.92392 0.0
H2684 H 0.66346 0.50594 0.78522 0.0
H2685 H 0.72044 0.49269 0.73502 0.0
H2686 H 0.73255 0.46795 0.79304 0.0
H2687 H 0.74729 0.47218 0.75721 0.0
C2688 C 0.41262 0.80577 0.07492 0.0
C2689 C 0.41677 0.79797 0.09418 0.0
C2690 C 0.40982 0.82436 0.0731 0.0
C2691 C 0.42807 0.86542 0.10226 0.0
H2692 H 0.37527 0.88932 0.06522 0.0
C2693 C 0.39035 0.93747 0.11348 0.0
C2694 C 0.39052 0.94894 0.09657 0.0
C2695 C 0.39636 0.91939 0.11111 0.0
C2696 C 0.39041 0.88279 0.07542 0.0
H2697 H 0.41917 0.8032 0.12666 0.0
H2698 H 0.41329 0.83515 0.12363 0.0
H2699 H 0.3785 0.85672 0.06491 0.0
H2700 H 0.3972 0.95063 0.06393 0.0
H2701 H 0.40716 0.91864 0.05965 0.0
H2702 H 0.43914 0.89137 0.11332 0.0
C2703 C 0.4133 0.82725 0.1098 0.0
C2704 C 0.39227 0.86414 0.07525 0.0
C2705 C 0.41635 0.80887 0.11157 0.0
C2706 C 0.39728 0.94205 0.07722 0.0
C2707 C 0.40268 0.92379 0.07476 0.0
C2708 C 0.42598 0.88395 0.10256 0.0
C2709 C 0.41097 0.83535 0.09054 0.0
C2710 C 0.41063 0.8552 0.08905 0.0
C2711 C 0.40213 0.91229 0.0917 0.0
C2712 C 0.40674 0.89282 0.08945 0.0
H2713 H 0.41313 0.79765 0.06126 0.0
H2714 H 0.408 0.83015 0.05802 0.0
H2715 H 0.44313 0.85908 0.11267 0.0
H2716 H 0.38517 0.94246 0.12857 0.0
H2717 H 0.39559 0.91084 0.12442 0.0
C2718 C 0.91105 0.44046 0.08997 0.0
C2719 C 0.88347 0.44793 0.08661 0.0
C2720 C 0.91551 0.4221 0.08733 0.0
C2721 C 0.87512 0.38096 0.09221 0.0
H2722 H 0.93847 0.35775 0.06368 0.0
C2723 C 0.91119 0.30865 0.10708 0.0
C2724 C 0.91442 0.29748 0.09005 0.0
C2725 C 0.90595 0.32681 0.10458 0.0
C2726 C 0.92057 0.36409 0.07155 0.0
H2727 H 0.84058 0.44257 0.07471 0.0
H2728 H 0.84766 0.4106 0.07125 0.0
H2729 H 0.93399 0.3904 0.06258 0.0
H2730 H 0.91475 0.29644 0.05704 0.0
H2731 H 0.90609 0.3286 0.05261 0.0
H2732 H 0.86225 0.35485 0.10181 0.0
C2733 C 0.86558 0.41875 0.07651 0.0
C2734 C 0.91816 0.38272 0.07107 0.0
C2735 C 0.86132 0.43701 0.07887 0.0
C2736 C 0.91183 0.30476 0.07039 0.0
C2737 C 0.90724 0.32311 0.06787 0.0
C2738 C 0.87786 0.36245 0.09303 0.0
C2739 C 0.89244 0.411 0.08129 0.0
C2740 C 0.89537 0.39131 0.08139 0.0
C2741 C 0.90446 0.3343 0.08499 0.0
C2742 C 0.9006 0.35382 0.08275 0.0
H2743 H 0.92878 0.44859 0.09549 0.0
H2744 H 0.93654 0.41646 0.09096 0.0
H2745 H 0.85747 0.38724 0.10043 0.0
H2746 H 0.91334 0.30337 0.1224 0.0
H2747 H 0.90404 0.33514 0.11802 0.0
C2748 C 0.39459 0.44183 0.24332 0.0
C2749 C 0.42233 0.44932 0.24591 0.0
C2750 C 0.39045 0.42337 0.24548 0.0
C2751 C 0.43087 0.3823 0.238 0.0
H2752 H 0.36892 0.35839 0.26726 0.0
C2753 C 0.3953 0.30994 0.22204 0.0
C2754 C 0.39217 0.29846 0.23884 0.0
C2755 C 0.40043 0.3281 0.22487 0.0
C2756 C 0.38644 0.36491 0.25915 0.0
H2757 H 0.46615 0.44377 0.25592 0.0
H2758 H 0.45948 0.41167 0.2586 0.0
H2759 H 0.37341 0.39098 0.26922 0.0
H2760 H 0.39206 0.29699 0.27183 0.0
H2761 H 0.40047 0.3291 0.27685 0.0
H2762 H 0.44335 0.35643 0.22734 0.0
C2763 C 0.44113 0.41989 0.25433 0.0
C2764 C 0.38885 0.38353 0.26014 0.0
C2765 C 0.44507 0.43825 0.25248 0.0
C2766 C 0.39472 0.30551 0.25863 0.0
C2767 C 0.39923 0.32386 0.26148 0.0
C2768 C 0.42811 0.3638 0.23668 0.0
C2769 C 0.41401 0.41215 0.25024 0.0
C2770 C 0.41114 0.39241 0.24958 0.0
C2771 C 0.40198 0.33534 0.24459 0.0
C2772 C 0.40587 0.35488 0.24721 0.0
H2773 H 0.37643 0.45001 0.23866 0.0
H2774 H 0.36922 0.41777 0.24241 0.0
H2775 H 0.44813 0.38878 0.22956 0.0
H2776 H 0.39338 0.3049 0.2066 0.0
H2777 H 0.40232 0.3366 0.21158 0.0
C2778 C 0.89234 0.80858 0.22009 0.0
C2779 C 0.89076 0.79819 0.23786 0.0
C2780 C 0.89536 0.82698 0.22127 0.0
C2781 C 0.91402 0.86481 0.25509 0.0
H2782 H 0.86994 0.89088 0.21437 0.0
C2783 C 0.90656 0.94253 0.2505 0.0
C2784 C 0.91564 0.94915 0.23148 0.0
C2785 C 0.90158 0.92427 0.25317 0.0
C2786 C 0.8823 0.88378 0.22585 0.0
H2787 H 0.89226 0.79879 0.27086 0.0
H2788 H 0.8972 0.83136 0.27304 0.0
H2789 H 0.8659 0.85862 0.21613 0.0
H2790 H 0.92584 0.94211 0.20025 0.0
H2791 H 0.91582 0.91037 0.20465 0.0
H2792 H 0.93011 0.89031 0.26481 0.0
C2793 C 0.89637 0.82514 0.25814 0.0
C2794 C 0.8802 0.86527 0.2268 0.0
C2795 C 0.89365 0.80652 0.25694 0.0
C2796 C 0.91866 0.93734 0.21502 0.0
C2797 C 0.91298 0.91922 0.21755 0.0
C2798 C 0.91582 0.88345 0.2543 0.0
C2799 C 0.89643 0.83562 0.24027 0.0
C2800 C 0.89668 0.85547 0.24101 0.0
C2801 C 0.90486 0.91245 0.23672 0.0
C2802 C 0.90049 0.89303 0.23933 0.0
H2803 H 0.89055 0.80249 0.20514 0.0
H2804 H 0.89634 0.83448 0.20717 0.0
H2805 H 0.92703 0.85771 0.26619 0.0
H2806 H 0.90457 0.95135 0.26351 0.0
H2807 H 0.89529 0.91936 0.26808 0.0
C2808 C 0.66041 0.0542 1.01129 0.0
C2809 C 0.66227 0.0466 0.99173 0.0
C2810 C 0.65581 0.07262 1.01353 0.0
C2811 C 0.62765 0.11196 0.9861 0.0
H2812 H 0.68175 0.1399 1.01823 0.0
C2813 C 0.6392 0.18641 0.97189 0.0
C2814 C 0.64142 0.19811 0.98856 0.0
C2815 C 0.64166 0.16807 0.97458 0.0
C2816 C 0.66618 0.13229 1.00944 0.0
H2817 H 0.65986 0.05209 0.95931 0.0
H2818 H 0.65104 0.08382 0.96319 0.0
H2819 H 0.68396 0.10726 1.01937 0.0
H2820 H 0.64923 0.19971 1.02109 0.0
H2821 H 0.65348 0.16732 1.0259 0.0
H2822 H 0.60994 0.1367 0.97597 0.0
C2823 C 0.65329 0.07576 0.97681 0.0
C2824 C 0.66743 0.1136 1.01012 0.0
C2825 C 0.65839 0.05756 0.97458 0.0
C2826 C 0.64757 0.19103 1.00794 0.0
C2827 C 0.64991 0.17248 1.01068 0.0
C2828 C 0.62629 0.13052 0.98551 0.0
C2829 C 0.65235 0.08359 0.99626 0.0
C2830 C 0.64863 0.10325 0.99803 0.0
C2831 C 0.64618 0.16076 0.99407 0.0
C2832 C 0.64606 0.14098 0.99669 0.0
H2833 H 0.66378 0.04606 1.02474 0.0
H2834 H 0.65514 0.07829 1.02871 0.0
H2835 H 0.61255 0.10438 0.97687 0.0
H2836 H 0.63488 0.19141 0.95667 0.0
H2837 H 0.63959 0.15957 0.96131 0.0
C2838 C 0.14561 0.68765 0.97052 0.0
C2839 C 0.14552 0.69884 0.98767 0.0
C2840 C 0.15096 0.66947 0.97262 0.0
C2841 C 0.1424 0.63249 1.00752 0.0
H2842 H 0.19502 0.60848 0.97045 0.0
C2843 C 0.16196 0.55524 1.00697 0.0
C2844 C 0.16625 0.54761 0.98763 0.0
C2845 C 0.15964 0.57383 1.00904 0.0
C2846 C 0.17998 0.61492 0.9808 0.0
H2847 H 0.15108 0.69996 1.02045 0.0
H2848 H 0.15997 0.6678 1.02423 0.0
H2849 H 0.19247 0.64083 0.97042 0.0
H2850 H 0.16937 0.5532 0.95524 0.0
H2851 H 0.16435 0.58517 0.95871 0.0
H2852 H 0.12911 0.60646 1.01735 0.0
C2853 C 0.1562 0.67324 1.00916 0.0
C2854 C 0.17872 0.63347 0.98086 0.0
C2855 C 0.15144 0.6916 1.00698 0.0
C2856 C 0.16643 0.55871 0.97039 0.0
C2857 C 0.16386 0.5771 0.97241 0.0
C2858 C 0.14345 0.61381 1.00733 0.0
C2859 C 0.15581 0.66201 0.99198 0.0
C2860 C 0.15954 0.64245 0.99391 0.0
C2861 C 0.16142 0.58499 0.99178 0.0
C2862 C 0.16178 0.6048 0.99359 0.0
H2863 H 0.14099 0.69291 0.95546 0.0
H2864 H 0.1503 0.66113 0.95914 0.0
H2865 H 0.12726 0.6391 1.01764 0.0
H2866 H 0.16199 0.54698 1.02052 0.0
H2867 H 0.15773 0.57946 1.02418 0.0
C2868 C 0.66063 0.69169 0.82371 0.0
C2869 C 0.6652 0.69903 0.84318 0.0
C2870 C 0.65599 0.67328 0.82143 0.0
C2871 C 0.63122 0.63367 0.84954 0.0
H2872 H 0.6809 0.60601 0.81377 0.0
C2873 C 0.641 0.55864 0.86039 0.0
C2874 C 0.6416 0.54747 0.84321 0.0
C2875 C 0.64399 0.57702 0.85834 0.0
C2876 C 0.66654 0.61354 0.8236 0.0
H2877 H 0.66765 0.69302 0.8755 0.0
H2878 H 0.65874 0.66128 0.87159 0.0
H2879 H 0.68373 0.63864 0.81339 0.0
H2880 H 0.64698 0.54674 0.81042 0.0
H2881 H 0.65202 0.57919 0.8067 0.0
H2882 H 0.61392 0.60888 0.85982 0.0
C2883 C 0.65896 0.66958 0.85807 0.0
C2884 C 0.66816 0.63223 0.82336 0.0
C2885 C 0.66413 0.68778 0.8603 0.0
C2886 C 0.64668 0.55504 0.82393 0.0
C2887 C 0.64944 0.57362 0.82183 0.0
C2888 C 0.62942 0.61511 0.84965 0.0
C2889 C 0.65517 0.66205 0.83863 0.0
C2890 C 0.651 0.64245 0.83671 0.0
C2891 C 0.64732 0.58487 0.83901 0.0
C2892 C 0.64761 0.60473 0.83712 0.0
H2893 H 0.66171 0.70003 0.81025 0.0
H2894 H 0.65307 0.66783 0.80627 0.0
H2895 H 0.61739 0.64119 0.85976 0.0
H2896 H 0.63746 0.55317 0.87549 0.0
H2897 H 0.64321 0.58512 0.872 0.0
C2898 C 0.15893 0.19035 0.85735 0.0
C2899 C 0.16364 0.20078 0.83988 0.0
C2900 C 0.15363 0.17214 0.85568 0.0
C2901 C 0.16986 0.13353 0.82464 0.0
H2902 H 0.10933 0.1113 0.8569 0.0
C2903 C 0.15133 0.0564 0.82804 0.0
C2904 C 0.14199 0.0495 0.84686 0.0
C2905 C 0.15379 0.07488 0.8252 0.0
C2906 C 0.1266 0.11722 0.84797 0.0
H2907 H 0.16639 0.20045 0.80692 0.0
H2908 H 0.15748 0.16816 0.80394 0.0
H2909 H 0.11203 0.14359 0.85496 0.0
H2910 H 0.12971 0.05636 0.87779 0.0
H2911 H 0.13514 0.08826 0.8732 0.0
H2912 H 0.18515 0.10711 0.81831 0.0
C2913 C 0.1576 0.17427 0.81891 0.0
C2914 C 0.12795 0.13576 0.84673 0.0
C2915 C 0.16234 0.1927 0.82057 0.0
C2916 C 0.13668 0.0613 0.86304 0.0
C2917 C 0.13948 0.07964 0.86031 0.0
C2918 C 0.16871 0.11489 0.82605 0.0
C2919 C 0.15341 0.1638 0.83651 0.0
C2920 C 0.14989 0.14414 0.83539 0.0
C2921 C 0.14719 0.08676 0.8412 0.0
C2922 C 0.14744 0.1065 0.83815 0.0
H2923 H 0.16001 0.19624 0.87243 0.0
H2924 H 0.15079 0.16444 0.86952 0.0
H2925 H 0.18716 0.13965 0.81591 0.0
H2926 H 0.15526 0.0476 0.81524 0.0
H2927 H 0.15972 0.07985 0.81027 0.0
C2928 C 0.40814 0.30648 0.57492 0.0
C2929 C 0.41616 0.29918 0.59384 0.0
C2930 C 0.40559 0.32502 0.5726 0.0
C2931 C 0.43062 0.36684 0.59767 0.0
H2932 H 0.37175 0.3899 0.56466 0.0
C2933 C 0.39666 0.43955 0.60871 0.0
C2934 C 0.39303 0.45043 0.59147 0.0
C2935 C 0.40224 0.4214 0.60658 0.0
C2936 C 0.38859 0.38361 0.57367 0.0
H2937 H 0.42595 0.30536 0.62541 0.0
H2938 H 0.42039 0.3373 0.62164 0.0
H2939 H 0.3741 0.35732 0.56587 0.0
H2940 H 0.3926 0.45096 0.55845 0.0
H2941 H 0.40191 0.4188 0.55465 0.0
H2942 H 0.44435 0.39306 0.60611 0.0
C2943 C 0.41714 0.32898 0.60834 0.0
C2944 C 0.38994 0.36495 0.5744 0.0
C2945 C 0.41999 0.31062 0.61058 0.0
C2946 C 0.39567 0.44286 0.57196 0.0
C2947 C 0.4007 0.4245 0.56981 0.0
C2948 C 0.42908 0.3854 0.5971 0.0
C2949 C 0.41081 0.33653 0.5892 0.0
C2950 C 0.41056 0.35632 0.58681 0.0
C2951 C 0.40384 0.41359 0.58715 0.0
C2952 C 0.40771 0.394 0.58543 0.0
H2953 H 0.40539 0.29797 0.56172 0.0
H2954 H 0.40071 0.33035 0.55763 0.0
H2955 H 0.4474 0.36074 0.6069 0.0
H2956 H 0.39467 0.44503 0.62394 0.0
H2957 H 0.4043 0.41334 0.62022 0.0
C2958 C 0.89961 0.94252 0.5719 0.0
C2959 C 0.89471 0.94986 0.59133 0.0
C2960 C 0.90223 0.92394 0.56947 0.0
C2961 C 0.88112 0.88228 0.59639 0.0
H2962 H 0.93703 0.8586 0.5615 0.0
C2963 C 0.91468 0.80972 0.60869 0.0
C2964 C 0.91789 0.79833 0.59183 0.0
C2965 C 0.90933 0.82785 0.60599 0.0
C2966 C 0.92098 0.86504 0.57105 0.0
H2967 H 0.8908 0.94365 0.62354 0.0
H2968 H 0.89601 0.91177 0.61943 0.0
H2969 H 0.93428 0.89125 0.56171 0.0
H2970 H 0.91781 0.79703 0.55883 0.0
H2971 H 0.90876 0.82913 0.55402 0.0
H2972 H 0.86837 0.85625 0.60621 0.0
C2973 C 0.89689 0.92006 0.60592 0.0
C2974 C 0.91943 0.88374 0.5712 0.0
C2975 C 0.89417 0.93842 0.6083 0.0
C2976 C 0.91512 0.80548 0.57209 0.0
C2977 C 0.91024 0.82383 0.56936 0.0
C2978 C 0.88276 0.86371 0.59631 0.0
C2979 C 0.90003 0.91245 0.58646 0.0
C2980 C 0.89999 0.89261 0.58432 0.0
C2981 C 0.9074 0.83523 0.58633 0.0
C2982 C 0.90317 0.85484 0.58404 0.0
H2983 H 0.8999 0.95101 0.55853 0.0
H2984 H 0.90473 0.91854 0.55426 0.0
H2985 H 0.86528 0.88857 0.60624 0.0
H2986 H 0.9167 0.80464 0.62411 0.0
H2987 H 0.90757 0.83622 0.61939 0.0
C2988 C 0.40831 0.94099 0.75175 0.0
C2989 C 0.41921 0.94793 0.73337 0.0
C2990 C 0.40552 0.92251 0.75441 0.0
C2991 C 0.43332 0.87994 0.73237 0.0
H2992 H 0.37016 0.85822 0.76253 0.0
C2993 C 0.39907 0.80714 0.7222 0.0
C2994 C 0.39285 0.79685 0.73954 0.0
C2995 C 0.40502 0.82527 0.72395 0.0
C2996 C 0.38817 0.86414 0.75434 0.0
H2997 H 0.43408 0.94114 0.703 0.0
H2998 H 0.42805 0.90924 0.70721 0.0
H2999 H 0.37325 0.8907 0.76018 0.0
H3000 H 0.38826 0.79734 0.7724 0.0
H3001 H 0.39821 0.8295 0.77552 0.0
H3002 H 0.44749 0.85339 0.72582 0.0
C3003 C 0.42275 0.91782 0.71995 0.0
C3004 C 0.38996 0.88275 0.75296 0.0
C3005 C 0.4259 0.93616 0.71742 0.0
C3006 C 0.39335 0.80497 0.75884 0.0
C3007 C 0.39874 0.82334 0.76058 0.0
C3008 C 0.43133 0.86142 0.73356 0.0
C3009 C 0.41329 0.91065 0.73865 0.0
C3010 C 0.41224 0.89091 0.74157 0.0
C3011 C 0.4044 0.83367 0.74308 0.0
C3012 C 0.40847 0.85329 0.74424 0.0
H3013 H 0.40327 0.94975 0.76439 0.0
H3014 H 0.39829 0.91753 0.76906 0.0
H3015 H 0.45133 0.88566 0.724 0.0
H3016 H 0.39877 0.80121 0.70712 0.0
H3017 H 0.40903 0.83288 0.71019 0.0
C3018 C 0.89153 0.31025 0.72212 0.0
C3019 C 0.89209 0.29883 0.73909 0.0
C3020 C 0.89411 0.3286 0.72453 0.0
C3021 C 0.91612 0.36476 0.75963 0.0
H3022 H 0.86592 0.3924 0.72415 0.0
C3023 C 0.91147 0.44291 0.75911 0.0
C3024 C 0.91554 0.45003 0.73948 0.0
C3025 C 0.90632 0.42458 0.76167 0.0
C3026 C 0.88002 0.38489 0.73421 0.0
H3027 H 0.89719 0.29763 0.7719 0.0
H3028 H 0.90165 0.33007 0.77624 0.0
H3029 H 0.86274 0.36008 0.72395 0.0
H3030 H 0.9164 0.44375 0.70718 0.0
H3031 H 0.90673 0.41219 0.7116 0.0
H3032 H 0.93347 0.38985 0.76969 0.0
C3033 C 0.89928 0.32469 0.761 0.0
C3034 C 0.87836 0.36633 0.73402 0.0
C3035 C 0.89685 0.30613 0.75854 0.0
C3036 C 0.91333 0.43867 0.72251 0.0
C3037 C 0.9077 0.42057 0.72504 0.0
C3038 C 0.91764 0.38344 0.75992 0.0
C3039 C 0.89708 0.33617 0.74403 0.0
C3040 C 0.89698 0.35597 0.74624 0.0
C3041 C 0.9045 0.41323 0.74462 0.0
C3042 C 0.90013 0.39367 0.74678 0.0
H3043 H 0.88831 0.30503 0.70686 0.0
H3044 H 0.89328 0.33691 0.71103 0.0
H3045 H 0.93078 0.35721 0.76923 0.0
H3046 H 0.91339 0.45135 0.77244 0.0
H3047 H 0.90387 0.41928 0.77694 0.0
C3048 C 0.66265 0.55534 0.50601 0.0
C3049 C 0.66714 0.54836 0.48636 0.0
C3050 C 0.65825 0.5737 0.50876 0.0
C3051 C 0.63189 0.61373 0.48335 0.0
H3052 H 0.68361 0.64069 0.51848 0.0
C3053 C 0.61178 0.6875 0.5013 0.0
C3054 C 0.63424 0.69898 0.49523 0.0
C3055 C 0.61631 0.66916 0.50273 0.0
C3056 C 0.66901 0.63329 0.50867 0.0
H3057 H 0.66967 0.55493 0.45421 0.0
H3058 H 0.66074 0.58673 0.45895 0.0
H3059 H 0.68883 0.60814 0.51595 0.0
H3060 H 0.68033 0.70039 0.4887 0.0
H3061 H 0.68855 0.66819 0.4917 0.0
H3062 H 0.61185 0.63871 0.47619 0.0
C3063 C 0.66107 0.57813 0.47222 0.0
C3064 C 0.67184 0.61471 0.50734 0.0
C3065 C 0.66615 0.55994 0.46952 0.0
C3066 C 0.66232 0.6919 0.49285 0.0
C3067 C 0.66705 0.67346 0.49461 0.0
C3068 C 0.62866 0.63219 0.48503 0.0
C3069 C 0.65754 0.58527 0.49187 0.0
C3070 C 0.65346 0.60478 0.4945 0.0
C3071 C 0.64377 0.66186 0.49876 0.0
C3072 C 0.64729 0.6422 0.49757 0.0
H3073 H 0.66371 0.54674 0.51926 0.0
H3074 H 0.65547 0.57886 0.52407 0.0
H3075 H 0.61746 0.60642 0.47334 0.0
H3076 H 0.5905 0.69267 0.50473 0.0
H3077 H 0.59816 0.66062 0.50658 0.0
C3078 C 0.16526 0.05459 0.50946 0.0
C3079 C 0.16747 0.04722 0.48981 0.0
C3080 C 0.15967 0.07288 0.51191 0.0
C3081 C 0.12903 0.11173 0.485 0.0
H3082 H 0.182 0.14067 0.5169 0.0
C3083 C 0.1372 0.18634 0.47073 0.0
C3084 C 0.13924 0.19809 0.48736 0.0
C3085 C 0.14021 0.16804 0.47346 0.0
C3086 C 0.16673 0.13277 0.50819 0.0
H3087 H 0.16455 0.05291 0.45745 0.0
H3088 H 0.15411 0.08441 0.46171 0.0
H3089 H 0.186 0.10809 0.51789 0.0
H3090 H 0.14723 0.19984 0.51986 0.0
H3091 H 0.15244 0.16751 0.52474 0.0
H3092 H 0.10987 0.13613 0.47506 0.0
C3093 C 0.15687 0.07628 0.47523 0.0
C3094 C 0.169 0.11412 0.50879 0.0
C3095 C 0.16295 0.05823 0.47279 0.0
C3096 C 0.14566 0.19111 0.50675 0.0
C3097 C 0.14857 0.17261 0.50953 0.0
C3098 C 0.12665 0.13026 0.48449 0.0
C3099 C 0.15554 0.08391 0.49477 0.0
C3100 C 0.15064 0.10344 0.49675 0.0
C3101 C 0.14515 0.16083 0.49295 0.0
C3102 C 0.146 0.14107 0.49558 0.0
H3103 H 0.16902 0.0464 0.5228 0.0
H3104 H 0.15869 0.07841 0.52716 0.0
H3105 H 0.11426 0.10387 0.47581 0.0
H3106 H 0.13275 0.19126 0.4555 0.0
H3107 H 0.13835 0.15949 0.46022 0.0
C3108 C 0.66157 0.19229 0.32383 0.0
C3109 C 0.66634 0.19969 0.34324 0.0
C3110 C 0.65626 0.17396 0.32172 0.0
C3111 C 0.62971 0.13498 0.3498 0.0
H3112 H 0.68052 0.10644 0.31575 0.0
C3113 C 0.63794 0.06019 0.36256 0.0
C3114 C 0.63932 0.04873 0.34567 0.0
C3115 C 0.64117 0.07851 0.36015 0.0
C3116 C 0.66583 0.11422 0.32508 0.0
H3117 H 0.66843 0.19401 0.37562 0.0
H3118 H 0.65812 0.16233 0.37203 0.0
H3119 H 0.68398 0.13903 0.31479 0.0
H3120 H 0.64633 0.04739 0.31305 0.0
H3121 H 0.65167 0.07973 0.30867 0.0
H3122 H 0.61144 0.11049 0.36016 0.0
C3123 C 0.65878 0.17053 0.35843 0.0
C3124 C 0.66782 0.13287 0.32451 0.0
C3125 C 0.6647 0.18865 0.36048 0.0
C3126 C 0.64536 0.05593 0.32634 0.0
C3127 C 0.64832 0.07444 0.32386 0.0
C3128 C 0.62752 0.11645 0.35022 0.0
C3129 C 0.65492 0.16291 0.33904 0.0
C3130 C 0.65027 0.14339 0.33728 0.0
C3131 C 0.64548 0.08599 0.34071 0.0
C3132 C 0.64613 0.10577 0.33836 0.0
H3133 H 0.66316 0.20051 0.31029 0.0
H3134 H 0.65332 0.16842 0.3066 0.0
H3135 H 0.61561 0.14276 0.35957 0.0
H3136 H 0.63371 0.055 0.37771 0.0
H3137 H 0.63983 0.08686 0.37358 0.0
C3138 C 0.16208 0.68973 0.36056 0.0
C3139 C 0.16556 0.70063 0.34332 0.0
C3140 C 0.15545 0.67174 0.35843 0.0
C3141 C 0.16555 0.63375 0.32568 0.0
H3142 H 0.10462 0.61282 0.35874 0.0
C3143 C 0.14077 0.55743 0.32737 0.0
C3144 C 0.1326 0.55036 0.34638 0.0
C3145 C 0.14408 0.57588 0.32488 0.0
C3146 C 0.12194 0.61838 0.34956 0.0
H3147 H 0.16478 0.70134 0.3103 0.0
H3148 H 0.15365 0.66939 0.3065 0.0
H3149 H 0.11029 0.64502 0.35778 0.0
H3150 H 0.12311 0.55692 0.37792 0.0
H3151 H 0.12977 0.58872 0.3738 0.0
H3152 H 0.17805 0.60703 0.31817 0.0
C3153 C 0.15579 0.67499 0.32165 0.0
C3154 C 0.12498 0.63685 0.34888 0.0
C3155 C 0.16188 0.69322 0.32381 0.0
C3156 C 0.12903 0.56196 0.36299 0.0
C3157 C 0.1326 0.58026 0.36057 0.0
C3158 C 0.16272 0.61517 0.32653 0.0
C3159 C 0.1526 0.66411 0.33899 0.0
C3160 C 0.14713 0.64471 0.33727 0.0
C3161 C 0.13948 0.58755 0.3414 0.0
C3162 C 0.14127 0.60725 0.33887 0.0
H3163 H 0.16482 0.69509 0.3758 0.0
H3164 H 0.15338 0.66365 0.37204 0.0
H3165 H 0.18297 0.6395 0.31674 0.0
H3166 H 0.14351 0.5488 0.31427 0.0
H3167 H 0.14933 0.58101 0.30989 0.0
C3168 C 0.32305 0.96476 0.23016 0.0
C3169 C 0.30688 0.97109 0.21354 0.0
C3170 C 0.32044 0.97293 0.24916 0.0
C3171 C 0.29106 0.0123 0.27569 0.0
H3172 H 0.27044 0.97812 0.31769 0.0
C3173 C 0.23726 0.03426 0.34987 0.0
C3174 C 0.25225 0.0285 0.3673 0.0
C3175 C 0.24277 0.02632 0.33106 0.0
C3176 C 0.27623 0.98776 0.30608 0.0
H3177 H 0.27653 0.9914 0.20335 0.0
H3178 H 0.27212 0.00558 0.23632 0.0
H3179 H 0.28846 0.96756 0.28485 0.0
H3180 H 0.28374 0.00948 0.37898 0.0
H3181 H 0.29296 0.99558 0.34628 0.0
H3182 H 0.27844 0.03249 0.29686 0.0
C3183 C 0.28703 0.99451 0.23473 0.0
C3184 C 0.28686 0.98176 0.28746 0.0
C3185 C 0.28955 0.98635 0.21585 0.0
C3186 C 0.27154 0.01405 0.36585 0.0
C3187 C 0.27687 0.00608 0.34714 0.0
C3188 C 0.28035 0.01829 0.29429 0.0
C3189 C 0.30165 0.98749 0.25166 0.0
C3190 C 0.29416 0.99399 0.2721 0.0
C3191 C 0.26324 0.01253 0.32954 0.0
C3192 C 0.27272 0.00605 0.30954 0.0
H3193 H 0.33696 0.95321 0.2286 0.0
H3194 H 0.33222 0.96749 0.26204 0.0
H3195 H 0.29667 0.02195 0.26405 0.0
H3196 H 0.22193 0.04517 0.35071 0.0
H3197 H 0.23172 0.03128 0.31761 0.0
C3198 C 0.08086 0.21717 0.34953 0.0
C3199 C 0.06071 0.21745 0.36556 0.0
C3200 C 0.07409 0.22523 0.33098 0.0
C3201 C 1.01162 0.23732 0.29999 0.0
H3202 H 0.06666 0.26673 0.2705 0.0
C3203 C 0.98351 0.27705 0.22727 0.0
C3204 C 1.00426 0.27633 0.21161 0.0
C3205 C 0.98958 0.26952 0.24622 0.0
C3206 C 0.05122 0.2584 0.27854 0.0
H3207 H 1.01797 0.22641 0.37508 0.0
H3208 H 1.00634 0.24066 0.34277 0.0
H3209 H 0.07977 0.25496 0.30397 0.0
H3210 H 0.04714 0.26693 0.2031 0.0
H3211 H 0.05753 0.25355 0.23611 0.0
H3212 H 0.98312 0.24071 0.27451 0.0
C3213 C 1.02716 0.2341 0.34445 0.0
C3214 C 0.0587 0.25172 0.29761 0.0
C3215 C 0.03391 0.22607 0.36292 0.0
C3216 C 0.03076 0.26759 0.21494 0.0
C3217 C 0.03682 0.2601 0.23383 0.0
C3218 C 1.00414 0.24401 0.28091 0.0
C3219 C 0.04704 0.23356 0.32829 0.0
C3220 C 0.039 0.24106 0.3084 0.0
C3221 C 1.0165 0.26129 0.2497 0.0
C3222 C 1.02398 0.25448 0.27001 0.0
H3223 H 0.1018 0.2108 0.35138 0.0
H3224 H 0.08969 0.22463 0.31863 0.0
H3225 H 0.99623 0.22894 0.30799 0.0
H3226 H 0.96277 0.28353 0.22489 0.0
H3227 H 0.9736 0.27056 0.2583 0.0
C3228 C 0.22667 0.22482 0.97635 0.0
C3229 C 0.24719 0.22494 0.96052 0.0
C3230 C 0.23362 0.23219 0.99522 0.0
C3231 C 0.29741 0.23869 1.02642 0.0
H3232 H 0.24714 0.26742 0.06055 0.0
C3233 C 0.3329 0.27442 0.09995 0.0
C3234 C 0.31285 0.27459 0.11603 0.0
C3235 C 0.3255 0.26653 0.08144 0.0
C3236 C 0.26117 0.25917 0.05123 0.0
H3237 H 0.29017 0.23381 0.9514 0.0
H3238 H 0.30207 0.24688 0.98429 0.0
H3239 H 0.23155 0.25963 1.02608 0.0
H3240 H 0.27018 0.26585 0.12604 0.0
H3241 H 0.25747 0.25193 0.09375 0.0
H3242 H 0.32707 0.23829 0.05155 0.0
C3243 C 0.28088 0.24087 0.98219 0.0
C3244 C 0.25233 0.25484 1.03157 0.0
C3245 C 0.27397 0.23353 0.96338 0.0
C3246 C 0.28601 0.26591 0.11381 0.0
C3247 C 0.27865 0.25806 0.09537 0.0
C3248 C 0.30625 0.24302 0.04608 0.0
C3249 C 0.26119 0.23966 0.99842 0.0
C3250 C 0.27048 0.24466 1.01902 0.0
C3251 C 0.29795 0.25885 0.07888 0.0
C3252 C 0.2882 0.25333 0.05857 0.0
H3253 H 0.20567 0.21856 0.97429 0.0
H3254 H 0.21807 0.23121 1.00758 0.0
H3255 H 0.31148 0.23049 1.01708 0.0
H3256 H 0.35392 0.28074 0.10154 0.0
H3257 H 0.34072 0.26724 0.06886 0.0
C3258 C 0.99483 0.96825 0.10249 0.0
C3259 C 1.01086 0.97509 0.1189 0.0
C3260 C 0.99828 0.97545 0.08308 0.0
C3261 C 1.02812 0.01265 0.05377 0.0
H3262 H 0.04955 0.9757 1.01518 0.0
C3263 C 0.06523 0.03143 0.97433 0.0
C3264 C 0.04901 0.02281 0.95918 0.0
C3265 C 0.06599 0.02451 0.99402 0.0
C3266 C 0.04363 0.98613 1.02581 0.0
H3267 H 0.04121 0.99561 0.12842 0.0
H3268 H 0.04706 0.00822 0.09453 0.0
H3269 H 0.03369 0.96749 0.04941 0.0
H3270 H 1.02277 -0.00031 0.95193 0.0
H3271 H 1.02344 0.98782 0.98635 0.0
H3272 H 0.03734 0.03129 1.03011 0.0
C3273 C 0.03185 0.99736 0.09665 0.0
C3274 C 0.0343 0.98144 0.04524 0.0
C3275 C 1.02848 0.99014 0.11601 0.0
C3276 C 0.03548 0.00651 0.96345 0.0
C3277 C 0.03601 -0.00031 0.98312 0.0
C3278 C 0.03724 0.01734 1.03428 0.0
C3279 C 1.01776 0.98956 0.07997 0.0
C3280 C 1.02621 0.99467 0.05925 0.0
C3281 C 0.05021 0.00904 0.99874 0.0
C3282 C 0.04477 0.0041 1.02008 0.0
H3283 H 0.98063 0.95688 0.10451 0.0
H3284 H 0.98679 0.96951 0.07036 0.0
H3285 H 1.02207 0.02303 0.06444 0.0
H3286 H 0.07624 0.04386 0.97113 0.0
H3287 H 0.07761 0.03172 1.00578 0.0
C3288 C 0.77162 0.01299 0.86605 0.0
C3289 C 0.74447 0.02135 0.86801 0.0
C3290 C 0.78005 0.00584 0.84745 0.0
C3291 C 0.7552 0.99331 0.79633 0.0
H3292 H 0.8309 0.01105 0.77972 0.0
C3293 C 0.79084 0.98749 0.71453 0.0
C3294 C 0.8164 0.97748 0.71224 0.0
C3295 C 0.78411 0.99509 0.73321 0.0
C3296 C 0.80981 0.00602 0.78426 0.0
H3297 H 0.70377 0.02734 0.85289 0.0
H3298 H 0.71885 0.01516 0.82 0.0
H3299 H 0.81342 0.01672 0.81433 0.0
H3300 H 0.85646 0.96916 0.72677 0.0
H3301 H 0.84427 0.98226 0.75988 0.0
H3302 H 0.75148 0.98276 0.76621 0.0
C3303 C 0.73354 0.01416 0.83287 0.0
C3304 C 0.79992 0.00908 0.804 0.0
C3305 C 0.72505 0.0213 0.85153 0.0
C3306 C 0.83633 0.97649 0.72839 0.0
C3307 C 0.82955 0.98413 0.74716 0.0
C3308 C 0.76502 0.99032 0.77659 0.0
C3309 C 0.76154 0.00705 0.83054 0.0
C3310 C 0.77254 0.00275 0.81014 0.0
C3311 C 0.80275 0.99269 0.74987 0.0
C3312 C 0.7923 0.99673 0.77043 0.0
H3313 H 0.78701 0.01284 0.87855 0.0
H3314 H 0.80154 8e-05 0.84603 0.0
H3315 H 0.73414 0.9882 0.80081 0.0
H3316 H 0.77508 0.98848 0.70231 0.0
H3317 H 0.76353 0.00192 0.735 0.0
C3318 C 0.07505 0.72066 0.85398 0.0
C3319 C 0.05468 0.72265 0.86974 0.0
C3320 C 0.06976 0.72821 0.83491 0.0
C3321 C 1.00906 0.74064 0.80279 0.0
H3322 H 0.06549 0.76782 0.77184 0.0
C3323 C 0.98013 0.78102 0.73125 0.0
C3324 C 0.99997 0.78043 0.71505 0.0
C3325 C 0.98696 0.77297 0.74978 0.0
C3326 C 0.04969 0.76003 0.78024 0.0
H3327 H 1.01345 0.73446 0.87837 0.0
H3328 H 1.00439 0.74776 0.84511 0.0
H3329 H 0.07846 0.75649 0.80557 0.0
H3330 H 0.04217 0.77083 0.70517 0.0
H3331 H 0.05387 0.75652 0.73745 0.0
H3332 H 0.98028 0.74414 0.77752 0.0
C3333 C 1.02422 0.74026 0.84743 0.0
C3334 C 0.05709 0.75363 0.79947 0.0
C3335 C 0.02953 0.73281 0.86645 0.0
C3336 C 1.02647 0.77141 0.71747 0.0
C3337 C 0.03327 0.76336 0.73593 0.0
C3338 C 1.0017 0.74698 0.78355 0.0
C3339 C 0.04395 0.73767 0.83143 0.0
C3340 C 0.0367 0.74407 0.81093 0.0
C3341 C 1.01375 0.76428 0.7523 0.0
C3342 C 1.02187 0.75685 0.77222 0.0
H3343 H 0.09478 0.71307 0.85634 0.0
H3344 H 0.08528 0.72611 0.82272 0.0
H3345 H 0.9932 0.73298 0.81129 0.0
H3346 H 0.9594 0.78768 0.72957 0.0
H3347 H 0.97162 0.7739 0.76226 0.0
C3348 C 0.73032 0.72221 0.98039 0.0
C3349 C 0.75035 0.72188 0.96429 0.0
C3350 C 0.73784 0.73006 0.9989 0.0
C3351 C 0.80182 0.73953 1.0295 0.0
H3352 H 0.74914 0.76886 0.06112 0.0
C3353 C 0.83289 0.77765 0.10293 0.0
C3354 C 0.81244 0.77697 0.11876 0.0
C3355 C 0.82646 0.77003 0.08407 0.0
C3356 C 0.76391 0.76053 0.05248 0.0
H3357 H 0.7934 0.72993 0.95442 0.0
H3358 H 0.80636 0.74386 0.98671 0.0
H3359 H 0.73471 0.75883 1.0272 0.0
H3360 H 0.76983 0.76737 0.12777 0.0
H3361 H 0.75881 0.75396 0.0949 0.0
H3362 H 0.83102 0.74128 0.05484 0.0
C3363 C 0.78508 0.73786 0.98512 0.0
C3364 C 0.7557 0.75486 1.03314 0.0
C3365 C 0.77758 0.73003 0.96666 0.0
C3366 C 0.78598 0.76805 0.11577 0.0
C3367 C 0.77958 0.7605 0.09698 0.0
C3368 C 0.81006 0.74525 0.04885 0.0
C3369 C 0.7655 0.7376 1.00149 0.0
C3370 C 0.77454 0.74426 1.02156 0.0
C3371 C 0.79946 0.76182 0.08088 0.0
C3372 C 0.79107 0.75569 0.06048 0.0
H3373 H 0.70902 0.71626 0.97873 0.0
H3374 H 0.7224 0.7297 1.01136 0.0
H3375 H 0.81652 0.73112 1.02093 0.0
H3376 H 0.85361 0.78421 0.10508 0.0
H3377 H 0.8421 0.77114 0.07178 0.0
C3378 C 0.22377 0.52143 0.85311 0.0
C3379 C 0.24419 0.52067 0.86896 0.0
C3380 C 0.23005 0.5136 0.83437 0.0
C3381 C 0.29307 0.50737 0.80374 0.0
H3382 H 0.2447 0.47832 0.76862 0.0
C3383 C 0.33201 0.47483 0.72947 0.0
C3384 C 0.31201 0.47388 0.71339 0.0
C3385 C 0.32366 0.48209 0.74809 0.0
C3386 C 0.25817 0.48669 0.77821 0.0
H3387 H 0.28598 0.51006 0.87845 0.0
H3388 H 0.29679 0.49639 0.8457 0.0
H3389 H 0.22836 0.48514 0.80323 0.0
H3390 H 0.26834 0.48069 0.70352 0.0
H3391 H 0.25404 0.4937 0.73593 0.0
H3392 H 0.32275 0.50912 0.77877 0.0
C3393 C 0.27616 0.50311 0.84773 0.0
C3394 C 0.24893 0.49041 0.79794 0.0
C3395 C 0.26989 0.51085 0.86641 0.0
C3396 C 0.28417 0.48124 0.71573 0.0
C3397 C 0.2759 0.48855 0.73427 0.0
C3398 C 0.30222 0.50375 0.784 0.0
C3399 C 0.25686 0.50513 0.83141 0.0
C3400 C 0.26648 0.50064 0.81082 0.0
C3401 C 0.29523 0.48843 0.75076 0.0
C3402 C 0.2849 0.49331 0.77114 0.0
H3403 H 0.20358 0.52865 0.85499 0.0
H3404 H 0.21487 0.51517 0.82187 0.0
H3405 H 0.30659 0.51563 0.81342 0.0
H3406 H 0.35379 0.46957 0.72779 0.0
H3407 H 0.33895 0.48192 0.76066 0.0
C3408 C 0.22793 0.72115 0.48112 0.0
C3409 C 0.24765 0.7211 0.46483 0.0
C3410 C 0.2357 0.72892 0.49962 0.0
C3411 C 0.30046 0.73792 0.52934 0.0
H3412 H 0.24923 0.76697 0.56241 0.0
C3413 C 0.33402 0.7762 0.602 0.0
C3414 C 0.3141 0.77554 0.61816 0.0
C3415 C 0.32718 0.76823 0.58343 0.0
C3416 C 0.26358 0.7587 0.55335 0.0
H3417 H 0.29034 0.72961 0.45461 0.0
H3418 H 0.30361 0.74343 0.48679 0.0
H3419 H 0.23342 0.75742 0.5286 0.0
H3420 H 0.27221 0.76545 0.62814 0.0
H3421 H 0.26054 0.75139 0.59579 0.0
H3422 H 0.33066 0.73928 0.55411 0.0
C3423 C 0.28243 0.73727 0.48537 0.0
C3424 C 0.25458 0.75332 0.53409 0.0
C3425 C 0.27472 0.7295 0.46697 0.0
C3426 C 0.28796 0.76611 0.61588 0.0
C3427 C 0.28118 0.75819 0.5974 0.0
C3428 C 0.30949 0.74334 0.54859 0.0
C3429 C 0.26329 0.73662 0.50196 0.0
C3430 C 0.27295 0.74287 0.522 0.0
C3431 C 0.30032 0.75968 0.58091 0.0
C3432 C 0.29102 0.75369 0.56071 0.0
H3433 H 0.20675 0.71501 0.47961 0.0
H3434 H 0.22061 0.72831 0.51228 0.0
H3435 H 0.31478 0.7296 0.52033 0.0
H3436 H 0.35449 0.78316 0.60363 0.0
H3437 H 0.34225 0.76944 0.5708 0.0
C3438 C 0.04232 0.51162 0.46792 0.0
C3439 C 0.06722 0.52226 0.46566 0.0
C3440 C 0.03636 0.50353 0.48639 0.0
C3441 C 0.06354 0.49017 0.53556 0.0
H3442 H 0.9868 0.50432 0.55424 0.0
C3443 C 1.02539 0.47594 0.61635 0.0
C3444 C 0.99781 0.4681 0.61809 0.0
C3445 C 0.03406 0.48356 0.5981 0.0
C3446 C 1.00814 0.50018 0.54912 0.0
H3447 H 0.10647 0.53179 0.48028 0.0
H3448 H 0.0955 0.51774 0.51325 0.0
H3449 H 1.00381 0.51383 0.52073 0.0
H3450 H 0.95716 0.46267 0.60263 0.0
H3451 H 0.97282 0.47558 0.57015 0.0
H3452 H 0.06771 0.47626 0.56381 0.0
C3453 C 0.08088 0.51573 0.5005 0.0
C3454 C 1.01783 0.50559 0.53007 0.0
C3455 C 0.08695 0.52386 0.48186 0.0
C3456 C 0.9787 0.46838 0.60145 0.0
C3457 C 0.9875 0.47595 0.58307 0.0
C3458 C 0.05377 0.48466 0.55461 0.0
C3459 C 0.05498 0.50612 0.50296 0.0
C3460 C 0.04546 0.5005 0.52318 0.0
C3461 C 1.01546 0.48325 0.58122 0.0
C3462 C 1.02597 0.48959 0.56144 0.0
H3463 H 1.02658 0.51025 0.45573 0.0
H3464 H 1.01647 0.49594 0.48803 0.0
H3465 H 0.08486 0.4861 0.53035 0.0
H3466 H 0.04058 0.47584 0.62898 0.0
H3467 H 0.05552 0.48942 0.59709 0.0
C3468 C 0.8099 0.47946 0.21725 0.0
C3469 C 0.78614 0.4894 0.21021 0.0
C3470 C 0.82178 0.48311 0.23636 0.0
C3471 C 0.82128 0.51508 0.27872 0.0
H3472 H 0.79663 0.4753 0.31241 0.0
C3473 C 0.7533 0.52374 0.34808 0.0
C3474 C 0.7686 0.52191 0.36645 0.0
C3475 C 0.76465 0.51665 0.3302 0.0
C3476 C 0.80445 0.48631 0.30324 0.0
H3477 H 0.75766 0.51172 0.21604 0.0
H3478 H 0.77851 0.51831 0.24936 0.0
H3479 H 0.80645 0.47059 0.2761 0.0
H3480 H 0.80658 0.51019 0.38091 0.0
H3481 H 0.82619 0.49763 0.34936 0.0
H3482 H 0.81639 0.5311 0.30545 0.0
C3483 C 0.78802 0.50772 0.24032 0.0
C3484 C 0.81029 0.48364 0.2826 0.0
C3485 C 0.77581 0.50385 0.22148 0.0
C3486 C 0.79431 0.51175 0.36693 0.0
C3487 C 0.80559 0.5046 0.349 0.0
C3488 C 0.81549 0.51772 0.29929 0.0
C3489 C 0.81034 0.49698 0.2482 0.0
C3490 C 0.81681 0.49826 0.27002 0.0
C3491 C 0.79129 0.50762 0.33055 0.0
C3492 C 0.80545 0.50355 0.31125 0.0
H3493 H 0.81814 0.46834 0.20847 0.0
H3494 H 0.83883 0.47464 0.24231 0.0
H3495 H 0.82626 0.52648 0.26922 0.0
H3496 H 0.73314 0.53116 0.34744 0.0
H3497 H 0.75334 0.51889 0.31592 0.0
C3498 C 0.77713 0.2315 0.4657 0.0
C3499 C 0.75123 0.22217 0.46207 0.0
C3500 C 0.78284 0.23844 0.48488 0.0
C3501 C 0.75123 0.2512 0.53349 0.0
H3502 H 0.82721 0.23831 0.55466 0.0
C3503 C 0.78311 0.26585 0.61564 0.0
C3504 C 0.80943 0.2751 0.61784 0.0
C3505 C 0.77632 0.25764 0.59729 0.0
C3506 C 0.80602 0.24203 0.54886 0.0
H3507 H 0.71014 0.21374 0.47499 0.0
H3508 H 0.72041 0.22579 0.50898 0.0
H3509 H 0.81314 0.22891 0.5204 0.0
H3510 H 0.85001 0.28224 0.60324 0.0
H3511 H 0.83778 0.26812 0.57071 0.0
H3512 H 0.74422 0.26448 0.56187 0.0
C3513 C 0.73618 0.22764 0.4969 0.0
C3514 C 0.79802 0.23674 0.52935 0.0
C3515 C 0.73045 0.22064 0.47763 0.0
C3516 C 0.82939 0.27543 0.6017 0.0
C3517 C 0.82257 0.26719 0.58328 0.0
C3518 C 0.75924 0.2565 0.55302 0.0
C3519 C 0.7628 0.2361 0.50073 0.0
C3520 C 0.7707 0.24145 0.52149 0.0
C3521 C 0.79566 0.25865 0.58084 0.0
C3522 C 0.78676 0.25206 0.56075 0.0
H3523 H 0.79354 0.23281 0.45395 0.0
H3524 H 0.80328 0.24522 0.48749 0.0
H3525 H 0.73014 0.25504 0.52762 0.0
H3526 H 0.76733 0.26544 0.62789 0.0
H3527 H 0.75563 0.25089 0.59578 0.0
C3528 C 0.57799 0.21933 0.85108 0.0
C3529 C 0.55793 0.21965 0.86715 0.0
C3530 C 0.57115 0.22733 0.83253 0.0
C3531 C 0.50828 0.23861 0.80161 0.0
H3532 H 0.56405 0.26551 0.76977 0.0
C3533 C 0.48333 0.27534 0.72589 0.0
C3534 C 0.50427 0.27321 0.71053 0.0
C3535 C 0.48816 0.26822 0.74524 0.0
C3536 C 0.5484 0.25789 0.7785 0.0
H3537 H 0.51548 0.22893 0.87688 0.0
H3538 H 0.50368 0.24308 0.84448 0.0
H3539 H 0.57683 0.25586 0.80416 0.0
H3540 H 0.54587 0.26143 0.70281 0.0
H3541 H 0.55418 0.24893 0.73658 0.0
H3542 H 0.47988 0.24065 0.77584 0.0
C3543 C 0.52448 0.23649 0.84614 0.0
C3544 C 0.55567 0.25243 0.7981 0.0
C3545 C 0.53131 0.22852 0.86466 0.0
C3546 C 0.52939 0.2632 0.71443 0.0
C3547 C 0.53426 0.2562 0.73372 0.0
C3548 C 0.50096 0.24413 0.782 0.0
C3549 C 0.54412 0.23568 0.82984 0.0
C3550 C 0.53578 0.24258 0.80971 0.0
C3551 C 0.51407 0.25909 0.74938 0.0
C3552 C 0.52114 0.2536 0.77026 0.0
H3553 H 0.59883 0.21281 0.85282 0.0
H3554 H 0.58661 0.22649 0.8201 0.0
H3555 H 0.49273 0.23081 0.81022 0.0
H3556 H 0.46361 0.28281 0.72306 0.0
H3557 H 0.47229 0.27052 0.75716 0.0
C3558 C 0.53273 0.99439 0.61825 0.0
C3559 C 0.52157 0.9778 0.62396 0.0
C3560 C 0.52879 0.0005 0.59845 0.0
C3561 C 0.52158 0.98154 0.5481 0.0
H3562 H 0.51885 0.03118 0.53205 0.0
C3563 C 0.52527 0.00843 0.46539 0.0
C3564 C 0.542 0.02386 0.46258 0.0
C3565 C 0.52209 0.00123 0.48481 0.0
C3566 C 0.51982 0.01728 0.53642 0.0
H3567 H 0.49547 0.95524 0.6148 0.0
H3568 H 0.48779 0.96618 0.57998 0.0
H3569 H 0.50761 0.02301 0.56714 0.0
H3570 H 0.57093 0.04283 0.47692 0.0
H3571 H 0.56553 0.0301 0.51105 0.0
H3572 H 0.53403 0.97591 0.5173 0.0
C3573 C 0.50022 0.9742 0.59058 0.0
C3574 C 0.51318 0.01261 0.55637 0.0
C3575 C 0.50455 0.96796 0.61034 0.0
C3576 C 0.55743 0.03115 0.47898 0.0
C3577 C 0.55435 0.02391 0.49836 0.0
C3578 C 0.528 0.98621 0.52806 0.0
C3579 C 0.51336 0.99014 0.58426 0.0
C3580 C 0.51477 0.99476 0.56251 0.0
C3581 C 0.53564 0.00942 0.50149 0.0
C3582 C 0.5279 0.00416 0.52229 0.0
H3583 H 0.54592 0.00209 0.62873 0.0
H3584 H 0.53947 0.01274 0.59395 0.0
H3585 H 0.5234 0.96769 0.55251 0.0
H3586 H 0.51322 0.00262 0.45285 0.0
H3587 H 0.50761 0.99001 0.48696 0.0
C3588 C 0.50675 0.77442 0.23034 0.0
C3589 C 0.52158 0.7716 0.21196 0.0
C3590 C 0.51727 0.767 0.2483 0.0
C3591 C 0.55203 0.73556 0.27626 0.0
H3592 H 0.58103 0.77523 0.30835 0.0
C3593 C 0.55587 0.73211 0.36274 0.0
C3594 C 0.53409 0.74393 0.36911 0.0
C3595 C 0.56825 0.73399 0.34345 0.0
C3596 C 0.57404 0.76388 0.2994 0.0
H3597 H 0.55767 0.75783 0.19752 0.0
H3598 H 0.57597 0.74479 0.22927 0.0
H3599 H 0.57243 0.77906 0.27184 0.0
H3600 H 0.5097 0.76768 0.36172 0.0
H3601 H 0.53144 0.77116 0.32807 0.0
H3602 H 0.55079 0.72092 0.30422 0.0
C3603 C 0.55634 0.75274 0.22957 0.0
C3604 C 0.56902 0.76608 0.27866 0.0
C3605 C 0.54583 0.76018 0.21155 0.0
C3606 C 0.52628 0.75837 0.35684 0.0
C3607 C 0.53901 0.76046 0.33781 0.0
C3608 C 0.55717 0.73332 0.29706 0.0
C3609 C 0.54263 0.75668 0.24802 0.0
C3610 C 0.55639 0.75227 0.26738 0.0
C3611 C 0.55934 0.74795 0.33072 0.0
C3612 C 0.56627 0.74788 0.30893 0.0
H3613 H 0.48769 0.78287 0.23093 0.0
H3614 H 0.50644 0.77 0.26258 0.0
H3615 H 0.54215 0.72485 0.26763 0.0
H3616 H 0.56215 0.72094 0.37223 0.0
H3617 H 0.5837 0.72417 0.3381 0.0
C3618 C 0.54788 0.51172 0.10852 0.0
C3619 C 0.53549 0.49932 0.12185 0.0
C3620 C 0.53808 0.51281 0.08854 0.0
C3621 C 0.5137 0.48296 0.05043 0.0
H3622 H 0.51165 0.52599 1.01782 0.0
C3623 C 0.50419 0.50008 0.96235 0.0
C3624 C 0.52819 0.51051 0.95691 0.0
C3625 C 0.5022 0.4933 0.98205 0.0
C3626 C 0.51192 0.5139 1.02686 0.0
H3627 H 0.50204 0.47922 0.12562 0.0
H3628 H 0.48508 0.48102 0.09035 0.0
H3629 H 0.50646 0.5281 0.0548 0.0
H3630 H 0.57042 0.52033 0.96595 0.0
H3631 H 0.56676 0.50864 1.00073 0.0
H3632 H 0.52051 0.46893 1.02227 0.0
C3633 C 0.50223 0.48985 0.09541 0.0
C3634 C 0.50877 0.5151 0.04782 0.0
C3635 C 0.51191 0.48886 0.11546 0.0
C3636 C 0.55175 0.51235 0.97018 0.0
C3637 C 0.54976 0.50558 0.98983 0.0
C3638 C 0.51679 0.48177 1.02933 0.0
C3639 C 0.51595 0.50141 0.08171 0.0
C3640 C 0.5109 0.49973 0.05979 0.0
C3641 C 0.52416 0.49709 0.99613 0.0
C3642 C 0.51707 0.49734 1.01771 0.0
H3643 H 0.56579 0.52008 0.11335 0.0
H3644 H 0.54915 0.52172 0.07812 0.0
H3645 H 0.51567 0.47096 0.0595 0.0
H3646 H 0.48601 0.49855 0.952 0.0
H3647 H 0.48229 0.48685 0.98687 0.0
C3648 C 0.41357 0.98968 0.97835 0.0
C3649 C 0.43452 0.00201 0.98466 0.0
C3650 C 0.41799 0.97977 0.96063 0.0
C3651 C 0.4527 0.98742 0.91241 0.0
H3652 H 0.41645 0.94249 0.8984 0.0
C3653 C 0.41315 0.97963 0.83272 0.0
C3654 C 0.38369 0.97459 0.832 0.0
C3655 C 0.43025 0.97529 0.84953 0.0
C3656 C 0.42685 0.95502 0.90204 0.0
H3657 H 0.47738 0.01271 0.97912 0.0
H3658 H 0.48552 0.99514 0.94816 0.0
H3659 H 0.42684 0.94935 0.93412 0.0
H3660 H 0.35076 0.95859 0.8471 0.0
H3661 H 0.37942 0.95277 0.87724 0.0
H3662 H 0.45044 0.99406 0.88106 0.0
C3663 C 0.46546 0.99335 0.95656 0.0
C3664 C 0.43289 0.95889 0.92247 0.0
C3665 C 0.46083 0.00343 0.97411 0.0
C3666 C 0.37287 0.96348 0.84752 0.0
C3667 C 0.38967 0.95972 0.86469 0.0
C3668 C 0.44641 0.98367 0.89215 0.0
C3669 C 0.44355 0.98202 0.94915 0.0
C3670 C 0.4446 0.97551 0.92788 0.0
C3671 C 0.41803 0.96652 0.86641 0.0
C3672 C 0.43206 0.96781 0.88677 0.0
H3673 H 0.39323 0.98839 0.98654 0.0
H3674 H 0.40053 0.97135 0.9552 0.0
H3675 H 0.46138 0.00045 0.91603 0.0
H3676 H 0.42269 0.98809 0.82118 0.0
H3677 H 0.4524 0.98014 0.84997 0.0
C3678 C 0.89945 0.27277 0.98291 0.0
C3679 C 0.87308 0.26616 0.9904 0.0
C3680 C 0.89974 0.28325 0.9653 0.0
C3681 C 0.85945 0.2798 0.91947 0.0
H3682 H 0.91795 0.31197 0.89843 0.0
C3683 C 0.89894 0.26903 0.83911 0.0
C3684 C 0.9294 0.26818 0.83806 0.0
C3685 C 0.88539 0.27791 0.85525 0.0
C3686 C 0.90139 0.30297 0.90401 0.0
H3687 H 0.82634 0.26688 0.98736 0.0
H3688 H 0.82673 0.28543 0.95673 0.0
H3689 H 0.90647 0.31214 0.93484 0.0
H3690 H 0.96935 0.27803 0.85149 0.0
H3691 H 0.94613 0.29227 0.88018 0.0
H3692 H 0.85638 0.26911 0.88957 0.0
C3693 C 0.84714 0.28251 0.96426 0.0
C3694 C 0.89467 0.30322 0.92484 0.0
C3695 C 0.84688 0.27199 0.9818 0.0
C3696 C 0.94585 0.27789 0.85227 0.0
C3697 C 0.93238 0.28643 0.86859 0.0
C3698 C 0.86652 0.27929 0.89883 0.0
C3699 C 0.87364 0.28707 0.95501 0.0
C3700 C 0.8746 0.29104 0.93288 0.0
C3701 C 0.90201 0.28577 0.87089 0.0
C3702 C 0.88873 0.2902 0.89101 0.0
H3703 H 0.91987 0.2682 0.98925 0.0
H3704 H 0.92052 0.28648 0.95848 0.0
H3705 H 0.84413 0.27005 0.9252 0.0
H3706 H 0.88554 0.26184 0.82832 0.0
H3707 H 0.86191 0.2776 0.85612 0.0
C3708 C 0.40037 0.26248 0.35786 0.0
C3709 C 0.42179 0.25353 0.3467 0.0
C3710 C 0.40818 0.27326 0.37426 0.0
C3711 C 0.45748 0.27027 0.41443 0.0
H3712 H 0.41734 0.31248 0.43334 0.0
C3713 C 0.41991 0.26986 0.49474 0.0
C3714 C 0.38992 0.27339 0.49556 0.0
C3715 C 0.43674 0.27661 0.4788 0.0
C3716 C 0.4289 0.30071 0.42836 0.0
H3717 H 0.46803 0.24946 0.34279 0.0
H3718 H 0.48172 0.26779 0.37226 0.0
H3719 H 0.42187 0.30691 0.3968 0.0
H3720 H 0.35529 0.28916 0.48228 0.0
H3721 H 0.38347 0.29947 0.45373 0.0
H3722 H 0.4612 0.26256 0.44541 0.0
C3723 C 0.45904 0.26678 0.36802 0.0
C3724 C 0.43176 0.29768 0.40743 0.0
C3725 C 0.45122 0.25625 0.35135 0.0
C3726 C 0.37802 0.28552 0.48158 0.0
C3727 C 0.39458 0.29181 0.46534 0.0
C3728 C 0.45397 0.27303 0.43528 0.0
C3729 C 0.4375 0.27497 0.37991 0.0
C3730 C 0.44435 0.28183 0.40041 0.0
C3731 C 0.42371 0.28648 0.46299 0.0
C3732 C 0.43756 0.28758 0.44247 0.0
H3733 H 0.37757 0.26068 0.35429 0.0
H3734 H 0.39114 0.27918 0.38342 0.0
H3735 H 0.46732 0.25793 0.40937 0.0
H3736 H 0.43008 0.26078 0.5054 0.0
H3737 H 0.4594 0.27281 0.47801 0.0
C3738 C 0.90018 0.98672 0.35688 0.0
C3739 C 0.87682 0.99553 0.34775 0.0
C3740 C 0.89556 0.97606 0.37394 0.0
C3741 C 0.85018 0.97805 0.41766 0.0
H3742 H 0.90234 0.94057 0.43526 0.0
C3743 C 0.89458 0.98307 0.49603 0.0
C3744 C 0.92506 0.98386 0.4948 0.0
C3745 C 0.87863 0.97433 0.48097 0.0
C3746 C 0.88724 0.95086 0.43063 0.0
H3747 H 0.8303 -0.00054 0.34779 0.0
H3748 H 0.82205 0.98099 0.37816 0.0
H3749 H 0.89174 0.94422 0.39901 0.0
H3750 H 0.96278 0.97405 0.47852 0.0
H3751 H 0.93525 0.95994 0.45163 0.0
H3752 H 0.84808 0.98611 0.44865 0.0
C3753 C 0.84386 0.9822 0.37212 0.0
C3754 C 0.8811 0.95289 0.4099 0.0
C3755 C 0.84854 0.99281 0.35495 0.0
C3756 C 0.9393 0.97418 0.47948 0.0
C3757 C 0.92339 0.96571 0.46426 0.0
C3758 C 0.85652 0.97615 0.4383 0.0
C3759 C 0.86748 0.97421 0.38217 0.0
C3760 C 0.86434 0.96738 0.40318 0.0
C3761 C 0.89284 0.96658 0.46419 0.0
C3762 C 0.87703 0.96347 0.44479 0.0
H3763 H 0.9221 0.98864 0.35126 0.0
H3764 H 0.91428 0.97037 0.38154 0.0
H3765 H 0.8371 0.98932 0.41299 0.0
H3766 H 0.88286 0.99029 0.50772 0.0
H3767 H 0.85515 0.9749 0.48162 0.0
C3768 C 0.6643 0.0103 0.08714 0.0
C3769 C 0.63399 0.00824 0.08828 0.0
C3770 C 0.67916 0.01962 0.10233 0.0
C3771 C 0.66738 0.04332 0.15223 0.0
H3772 H 0.72129 0.00733 0.17116 0.0
C3773 C 0.65574 0.00677 0.22534 0.0
C3774 C 0.67972 -0.00057 0.23537 0.0
C3775 C 0.65984 0.01772 0.20846 0.0
C3776 C 0.7071 0.01795 0.1661 0.0
H3777 H 0.59516 0.01622 0.10455 0.0
H3778 H 0.62084 0.03157 0.13147 0.0
H3779 H 0.71077 0.00958 0.13525 0.0
H3780 H 0.72661 0.99845 0.23701 0.0
H3781 H 0.73396 0.01724 0.20675 0.0
H3782 H 0.6613 0.05011 0.18368 0.0
C3783 C 0.63342 0.02631 0.11889 0.0
C3784 C 0.70102 0.0193 0.14534 0.0
C3785 C 0.61861 0.01716 0.10364 0.0
C3786 C 0.70791 0.00397 0.22922 0.0
C3787 C 0.71207 0.01476 0.2121 0.0
C3788 C 0.67323 0.04182 0.17306 0.0
C3789 C 0.66398 0.02682 0.11903 0.0
C3790 C 0.67922 0.03095 0.13842 0.0
C3791 C 0.68801 0.02127 0.2012 0.0
C3792 C 0.69137 0.02815 0.18022 0.0
H3793 H 0.67677 0.00368 0.07535 0.0
H3794 H 0.70267 0.02004 0.10178 0.0
H3795 H 0.65124 0.05287 0.14726 0.0
H3796 H 0.63385 0.00348 0.23012 0.0
H3797 H 0.64086 0.02227 0.20019 0.0
C3798 C 0.14106 0.72884 0.08617 0.0
C3799 C 0.17121 0.72589 0.08522 0.0
C3800 C 0.12473 0.72187 0.10225 0.0
C3801 C 0.13382 0.69782 0.15259 0.0
H3802 H 0.09248 0.73951 0.17175 0.0
C3803 C 0.15859 0.73577 0.22396 0.0
C3804 C 0.13654 0.74446 0.23478 0.0
C3805 C 0.15166 0.72488 0.20747 0.0
C3806 C 0.10315 0.72745 0.16664 0.0
H3807 H 0.20677 0.71092 0.09854 0.0
H3808 H 0.17935 0.70025 0.1273 0.0
H3809 H 0.09955 0.73537 0.13572 0.0
H3810 H 0.09008 0.74787 0.23808 0.0
H3811 H 0.0779 0.72934 0.20843 0.0
H3812 H 0.14055 0.69143 0.18414 0.0
C3813 C 0.16778 0.70762 0.11567 0.0
C3814 C 0.10722 0.72498 0.14579 0.0
C3815 C 0.18387 0.71413 0.09931 0.0
C3816 C 0.10736 0.74129 0.22977 0.0
C3817 C 0.10041 0.73065 0.21299 0.0
C3818 C 0.13035 0.70056 0.17353 0.0
C3819 C 0.13837 0.71233 0.11806 0.0
C3820 C 0.12456 0.71086 0.13857 0.0
C3821 C 0.12259 0.7228 0.20135 0.0
C3822 C 0.11665 0.71604 0.18066 0.0
H3823 H 0.13032 0.73763 0.07546 0.0
H3824 H 0.10188 0.7252 0.10308 0.0
H3825 H 0.14615 0.68636 0.14758 0.0
H3826 H 0.18121 0.73793 0.22782 0.0
H3827 H 0.16919 0.71923 0.19855 0.0
C3828 C 0.65253 0.73586 0.73907 0.0
C3829 C 0.62218 0.73445 0.741 0.0
C3830 C 0.66649 0.72992 0.7215 0.0
C3831 C 0.65331 0.7087 0.67026 0.0
H3832 H 0.71179 0.74302 0.65399 0.0
C3833 C 0.67709 0.7386 0.59067 0.0
C3834 C 0.70647 0.73957 0.58488 0.0
C3835 C 0.66935 0.73099 0.6093 0.0
C3836 C 0.69591 0.7331 0.65847 0.0
H3837 H 0.58333 0.72378 0.72666 0.0
H3838 H 0.60706 0.71526 0.69532 0.0
H3839 H 0.69426 0.74309 0.68869 0.0
H3840 H 0.75032 0.73162 0.59299 0.0
H3841 H 0.73675 0.71914 0.62605 0.0
H3842 H 0.65324 0.7002 0.63894 0.0
C3843 C 0.62037 0.72046 0.70756 0.0
C3844 C 0.68592 0.73301 0.67847 0.0
C3845 C 0.60654 0.72578 0.72546 0.0
C3846 C 0.7276 0.73147 0.59728 0.0
C3847 C 0.71989 0.72412 0.61603 0.0
C3848 C 0.66281 0.70916 0.65001 0.0
C3849 C 0.6504 0.7231 0.70503 0.0
C3850 C 0.66404 0.72105 0.6846 0.0
C3851 C 0.69087 0.72443 0.62243 0.0
C3852 C 0.68386 0.72156 0.64401 0.0
H3853 H 0.66558 0.74244 0.75054 0.0
H3854 H 0.68981 0.73156 0.72049 0.0
H3855 H 0.63688 0.69907 0.67446 0.0
H3856 H 0.6603 0.74484 0.58158 0.0
H3857 H 0.64687 0.73158 0.61418 0.0
C3858 C 0.14975 0.01432 0.74424 0.0
C3859 C 0.17932 0.01886 0.74588 0.0
C3860 C 0.13394 0.01889 0.72687 0.0
C3861 C 0.14109 0.04 0.67485 0.0
H3862 H 0.0996 0.99722 0.65936 0.0
C3863 C 0.14553 0.00553 0.59734 0.0
C3864 C 0.12163 0.99526 0.59133 0.0
C3865 C 0.14395 0.01581 0.61506 0.0
C3866 C 0.11037 0.00954 0.66345 0.0
H3867 H 0.21404 0.03401 0.73163 0.0
H3868 H 0.18762 0.04025 0.70063 0.0
H3869 H 0.11224 0.00175 0.69447 0.0
H3870 H 0.07666 0.98884 0.59729 0.0
H3871 H 0.07362 0.00703 0.62819 0.0
H3872 H 0.14149 0.04662 0.64297 0.0
C3873 C 0.17624 0.03354 0.71286 0.0
C3874 C 0.11762 0.01223 0.68379 0.0
C3875 C 0.19174 0.02954 0.73056 0.0
C3876 C 0.09535 0.99661 0.60194 0.0
C3877 C 0.09364 0.00701 0.61949 0.0
C3878 C 0.13425 0.03711 0.65431 0.0
C3879 C 0.14757 0.02745 0.71035 0.0
C3880 C 0.13409 0.02713 0.68971 0.0
C3881 C 0.1184 0.01588 0.62683 0.0
C3882 C 0.11969 0.02152 0.6484 0.0
H3883 H 0.13909 0.00619 0.75562 0.0
H3884 H 0.11154 0.0146 0.72588 0.0
H3885 H 0.15317 0.05186 0.67888 0.0
H3886 H 0.16597 0.00458 0.58921 0.0
H3887 H 0.16345 0.02237 0.62045 0.0
C3888 C 0.45089 0.4941 0.47633 0.0
C3889 C 0.42233 0.49819 0.48211 0.0
C3890 C 0.45598 0.48342 0.45926 0.0
C3891 C 0.42061 0.45509 0.42016 0.0
H3892 H 0.454 0.48887 0.38217 0.0
C3893 C 0.36508 0.47346 0.34802 0.0
C3894 C 0.37918 0.48371 0.33311 0.0
C3895 C 0.38076 0.46603 0.36405 0.0
C3896 C 0.4455 0.47875 0.39229 0.0
H3897 H 0.3768 0.49329 0.47627 0.0
H3898 H 0.38551 0.47456 0.44648 0.0
H3899 H 0.46358 0.49201 0.41809 0.0
H3900 H 0.42139 0.49222 0.32189 0.0
H3901 H 0.44886 0.47843 0.34926 0.0
H3902 H 0.40118 0.44239 0.39437 0.0
C3903 C 0.40402 0.47949 0.45499 0.0
C3904 C 0.45104 0.48062 0.41306 0.0
C3905 C 0.39896 0.49041 0.47178 0.0
C3906 C 0.40971 0.48454 0.33321 0.0
C3907 C 0.4255 0.47676 0.34906 0.0
C3908 C 0.41552 0.45298 0.39929 0.0
C3909 C 0.43252 0.47647 0.44811 0.0
C3910 C 0.43673 0.4697 0.42721 0.0
C3911 C 0.41104 0.4684 0.36537 0.0
C3912 C 0.4258 0.46576 0.38533 0.0
H3913 H 0.46914 0.49994 0.48433 0.0
H3914 H 0.47809 0.48136 0.45413 0.0
H3915 H 0.40974 0.44633 0.43084 0.0
H3916 H 0.34167 0.47204 0.34798 0.0
H3917 H 0.36861 0.45976 0.37623 0.0
C3918 C 0.85499 0.75349 0.48005 0.0
C3919 C 0.88408 0.75017 0.48514 0.0
C3920 C 0.84829 0.76439 0.46345 0.0
C3921 C 0.8788 0.79527 0.42508 0.0
H3922 H 0.84782 0.7616 0.38602 0.0
C3923 C 0.93298 0.78301 0.35096 0.0
C3924 C 0.9203 0.77163 0.33649 0.0
C3925 C 0.91674 0.78935 0.36733 0.0
C3926 C 0.85555 0.7717 0.39646 0.0
H3927 H 0.92889 0.75658 0.47849 0.0
H3928 H 0.91732 0.77574 0.44949 0.0
H3929 H 0.84048 0.75656 0.42187 0.0
H3930 H 0.87935 0.76043 0.32607 0.0
H3931 H 0.85068 0.77259 0.35372 0.0
H3932 H 0.89497 0.81006 0.39967 0.0
C3933 C 0.89966 0.77001 0.45822 0.0
C3934 C 0.85132 0.76871 0.4172 0.0
C3935 C 0.90633 0.75886 0.47453 0.0
C3936 C 0.89008 0.76894 0.33707 0.0
C3937 C 0.87361 0.77575 0.35316 0.0
C3938 C 0.88243 0.79855 0.40426 0.0
C3939 C 0.87065 0.77235 0.45208 0.0
C3940 C 0.86489 0.77968 0.43162 0.0
C3941 C 0.88718 0.78484 0.36934 0.0
C3942 C 0.87312 0.78591 0.38978 0.0
H3943 H 0.83758 0.74694 0.48826 0.0
H3944 H 0.82582 0.7659 0.45885 0.0
H3945 H 0.88906 0.80407 0.43602 0.0
H3946 H 0.95597 0.78601 0.35049 0.0
H3947 H 0.92826 0.79637 0.37925 0.0
C3948 C 0.44969 0.75371 0.85242 0.0
C3949 C 0.42042 0.75034 0.84784 0.0
C3950 C 0.45698 0.76435 0.86912 0.0
C3951 C 0.42688 0.79396 0.90913 0.0
H3952 H 0.46098 0.75974 0.94628 0.0
C3953 C 0.3731 0.77497 0.98083 0.0
C3954 C 0.38721 0.76443 0.99544 0.0
C3955 C 0.38881 0.78286 0.96512 0.0
C3956 C 0.45239 0.76998 0.93635 0.0
H3957 H 0.37586 0.75649 0.85559 0.0
H3958 H 0.38843 0.77508 0.88478 0.0
H3959 H 0.46796 0.75621 0.91008 0.0
H3960 H 0.42931 0.75587 1.00672 0.0
H3961 H 0.45693 0.77021 0.97965 0.0
H3962 H 0.40973 0.80709 0.93542 0.0
C3963 C 0.40581 0.76962 0.87555 0.0
C3964 C 0.45641 0.76789 0.91543 0.0
C3965 C 0.39855 0.75877 0.85911 0.0
C3966 C 0.41773 0.76376 0.99552 0.0
C3967 C 0.43357 0.77189 0.97991 0.0
C3968 C 0.42331 0.79627 0.93012 0.0
C3969 C 0.43504 0.77199 0.88115 0.0
C3970 C 0.44156 0.77894 0.90169 0.0
C3971 C 0.41911 0.78055 0.9638 0.0
C3972 C 0.43366 0.78329 0.9438 0.0
H3973 H 0.46684 0.74736 0.84376 0.0
H3974 H 0.47962 0.76588 0.87327 0.0
H3975 H 0.41571 0.80286 0.89875 0.0
H3976 H 0.34965 0.7762 0.98077 0.0
H3977 H 0.37668 0.78934 0.95308 0.0
C3978 C 0.90812 0.48931 0.85802 0.0
C3979 C 0.88549 0.49754 0.84732 0.0
C3980 C 0.90196 0.47839 0.87462 0.0
C3981 C 0.85414 0.48013 0.91581 0.0
H3982 H 0.89952 0.43982 0.93439 0.0
C3983 C 0.89324 0.48143 0.99628 0.0
C3984 C 0.92352 0.479 0.99708 0.0
C3985 C 0.87717 0.47455 0.98003 0.0
C3986 C 0.88649 0.45104 0.9295 0.0
H3987 H 0.83886 0.50013 0.84434 0.0
H3988 H 0.82801 0.48157 0.87424 0.0
H3989 H 0.89271 0.44473 0.8979 0.0
H3990 H 0.95987 0.46535 0.98299 0.0
H3991 H 0.93274 0.45484 0.95398 0.0
H3992 H 0.85098 0.48801 0.94678 0.0
C3993 C 0.85038 0.48326 0.86949 0.0
C3994 C 0.88235 0.45369 0.90862 0.0
C3995 C 0.85656 0.49393 0.8526 0.0
C3996 C 0.93679 0.46807 0.98242 0.0
C3997 C 0.92091 0.46163 0.96593 0.0
C3998 C 0.85884 0.47774 0.93661 0.0
C3999 C 0.8731 0.47581 0.88095 0.0
C4000 C 0.86781 0.46893 0.90166 0.0
C4001 C 0.89116 0.46562 0.96393 0.0
C4002 C 0.87698 0.46393 0.94361 0.0
H4003 H 0.93056 0.4918 0.85391 0.0
H4004 H 0.9199 0.47305 0.88342 0.0
H4005 H 0.84283 0.49201 0.91082 0.0
H4006 H 0.8821 0.48966 1.00735 0.0
H4007 H 0.85413 0.47739 0.97939 0.0
C4008 C 0.68762 0.52317 0.73022 0.0
C4009 C 0.67325 0.51298 0.74501 0.0
C4010 C 0.67198 0.5315 0.71478 0.0
C4011 C 0.60696 0.52037 0.6868 0.0
H4012 H 0.64433 0.55295 0.64922 0.0
C4013 C 0.60698 0.5051 0.60256 0.0
C4014 C 0.63596 0.50118 0.5977 0.0
C4015 C 0.60057 0.51563 0.61952 0.0
C4016 C 0.63296 0.54417 0.65962 0.0
H4017 H 0.63095 0.50537 0.75682 0.0
H4018 H 0.60352 0.52043 0.73019 0.0
H4019 H 0.6515 0.55664 0.68586 0.0
H4020 H 0.68097 0.50616 0.60523 0.0
H4021 H 0.66995 0.5246 0.63487 0.0
H4022 H 0.59005 0.50719 0.66055 0.0
C4023 C 0.62697 0.52156 0.73015 0.0
C4024 C 0.6372 0.54617 0.68058 0.0
C4025 C 0.64272 0.513 0.74549 0.0
C4026 C 0.65848 0.5089 0.60898 0.0
C4027 C 0.65212 0.51966 0.62567 0.0
C4028 C 0.6023 0.51858 0.66591 0.0
C4029 C 0.64152 0.52996 0.71391 0.0
C4030 C 0.62656 0.53323 0.69419 0.0
C4031 C 0.62313 0.52262 0.6315 0.0
C4032 C 0.61735 0.52951 0.65216 0.0
H4033 H 0.71112 0.52385 0.72985 0.0
H4034 H 0.68415 0.53774 0.70259 0.0
H4035 H 0.59813 0.51018 0.69671 0.0
H4036 H 0.58935 0.49928 0.59387 0.0
H4037 H 0.5781 0.51761 0.62387 0.0
C4038 C 0.12078 0.22267 0.72835 0.0
C4039 C 0.13539 0.23273 0.74316 0.0
C4040 C 0.13625 0.21418 0.71292 0.0
C4041 C 0.20231 0.22471 0.68549 0.0
H4042 H 0.16428 0.19344 0.6468 0.0
C4043 C 0.20622 0.24132 0.60174 0.0
C4044 C 0.17763 0.24568 0.5963 0.0
C4045 C 0.21143 0.23037 0.61857 0.0
C4046 C 0.17579 0.20186 0.65752 0.0
H4047 H 0.17792 0.2397 0.75512 0.0
H4048 H 0.20493 0.22421 0.72872 0.0
H4049 H 0.15572 0.18945 0.68326 0.0
H4050 H 0.13213 0.24107 0.60252 0.0
H4051 H 0.14104 0.22191 0.6319 0.0
H4052 H 0.22085 0.23782 0.65975 0.0
C4053 C 0.18145 0.22343 0.72852 0.0
C4054 C 0.17074 0.1997 0.67838 0.0
C4055 C 0.16591 0.23222 0.74379 0.0
C4056 C 0.15432 0.23798 0.60676 0.0
C4057 C 0.15948 0.22681 0.6233 0.0
C4058 C 0.20774 0.22664 0.66472 0.0
C4059 C 0.16675 0.21537 0.71213 0.0
C4060 C 0.18179 0.21218 0.69239 0.0
C4061 C 0.18806 0.22343 0.62983 0.0
C4062 C 0.19255 0.21623 0.65053 0.0
H4063 H 0.09727 0.22228 0.72789 0.0
H4064 H 0.12393 0.20815 0.70066 0.0
H4065 H 0.21146 0.23456 0.69568 0.0
H4066 H 0.22442 0.24711 0.59363 0.0
H4067 H 0.23361 0.22805 0.62342 0.0
C4068 C 0.65889 0.22743 0.08802 0.0
C4069 C 0.68922 0.22967 0.0875 0.0
C4070 C 0.64557 0.21934 0.10469 0.0
C4071 C 0.66076 0.19994 0.1567 0.0
H4072 H 0.59489 0.22966 0.17068 0.0
C4073 C 0.63617 0.23093 0.23424 0.0
C4074 C 0.60702 0.2335 0.23995 0.0
C4075 C 0.64295 0.22192 0.21628 0.0
C4076 C 0.61275 0.22085 0.16692 0.0
H4077 H 0.72943 0.22281 0.103 0.0
H4078 H 0.70621 0.21058 0.1329 0.0
H4079 H 0.61263 0.2296 0.1362 0.0
H4080 H 0.56235 0.22702 0.23256 0.0
H4081 H 0.57425 0.2117 0.20074 0.0
H4082 H 0.66233 0.1929 0.18844 0.0
C4083 C 0.69255 0.21462 0.12028 0.0
C4084 C 0.62298 0.22072 0.14698 0.0
C4085 C 0.70595 0.2221 0.10323 0.0
C4086 C 0.58495 0.22558 0.22827 0.0
C4087 C 0.59174 0.21666 0.21023 0.0
C4088 C 0.65083 0.2004 0.17686 0.0
C4089 C 0.66207 0.21398 0.12167 0.0
C4090 C 0.64776 0.21076 0.14169 0.0
C4091 C 0.6207 0.21546 0.20366 0.0
C4092 C 0.62727 0.2113 0.18218 0.0
H4093 H 0.645 0.23294 0.07629 0.0
H4094 H 0.62211 0.2184 0.10479 0.0
H4095 H 0.67947 0.19178 0.15314 0.0
H4096 H 0.6537 0.23697 0.24281 0.0
H4097 H 0.66542 0.2214 0.2114 0.0
C4098 C 0.13326 0.52429 0.10391 0.0
C4099 C 0.14253 0.51357 0.08758 0.0
C4100 C 0.15184 0.52791 0.12018 0.0
C4101 C 0.21508 0.50674 0.1446 0.0
H4102 H 0.198 0.54251 0.18548 0.0
C4103 C 0.2473 0.5017 0.23051 0.0
C4104 C 0.22115 0.49829 0.24093 0.0
C4105 C 0.24676 0.50828 0.21051 0.0
C4106 C 0.20367 0.53274 0.17398 0.0
H4107 H 0.18006 0.49988 0.07477 0.0
H4108 H 0.21283 0.50755 0.10206 0.0
H4109 H 0.18147 0.54695 0.15046 0.0
H4110 H 0.17404 0.49844 0.23806 0.0
H4111 H 0.17339 0.51059 0.20388 0.0
H4112 H 0.23653 0.49239 0.16847 0.0
C4113 C 0.19067 0.51233 0.10289 0.0
C4114 C 0.19384 0.53509 0.15402 0.0
C4115 C 0.17183 0.50819 0.08695 0.0
C4116 C 0.19463 0.50152 0.2309 0.0
C4117 C 0.19416 0.50845 0.21128 0.0
C4118 C 0.22549 0.50464 0.16442 0.0
C4119 C 0.1805 0.52137 0.12025 0.0
C4120 C 0.19785 0.52159 0.1394 0.0
C4121 C 0.22014 0.51185 0.20095 0.0
C4122 C 0.21845 0.51714 0.17943 0.0
H4123 H 0.11123 0.52928 0.10464 0.0
H4124 H 0.14294 0.53487 0.13321 0.0
H4125 H 0.21846 0.4959 0.134 0.0
H4126 H 0.26807 0.49941 0.2378 0.0
H4127 H 0.26697 0.51057 0.20251 0.0
C4128 C 0.34621 0.19188 0.18192 0.0
C4129 C 0.34811 0.19388 0.20324 0.0
C4130 C 0.34571 0.17489 0.17294 0.0
C4131 C 0.33048 0.12711 0.1841 0.0
H4132 H 0.37549 0.11842 0.13515 0.0
C4133 C 0.34423 0.05568 0.15067 0.0
C4134 C 0.34652 0.05366 0.12939 0.0
C4135 C 0.34408 0.07268 0.15965 0.0
C4136 C 0.36239 0.12058 0.14864 0.0
H4137 H 0.35012 0.17945 0.2318 0.0
H4138 H 0.34905 0.14988 0.21623 0.0
H4139 H 0.37548 0.14796 0.15054 0.0
H4140 H 0.34935 0.06808 0.10087 0.0
H4141 H 0.34848 0.09761 0.11631 0.0
H4142 H 0.31705 0.09986 0.18214 0.0
C4143 C 0.348 0.16143 0.20638 0.0
C4144 C 0.36246 0.13762 0.15753 0.0
C4145 C 0.3488 0.17842 0.21534 0.0
C4146 C 0.34798 0.06911 0.11732 0.0
C4147 C 0.34764 0.08611 0.12626 0.0
C4148 C 0.33023 0.11011 0.17514 0.0
C4149 C 0.3467 0.15937 0.18502 0.0
C4150 C 0.34651 0.14117 0.17542 0.0
C4151 C 0.34594 0.08824 0.14762 0.0
C4152 C 0.34619 0.1065 0.15724 0.0
H4153 H 0.34586 0.20349 0.17211 0.0
H4154 H 0.34439 0.17393 0.15648 0.0
H4155 H 0.3176 0.12931 0.19769 0.0
H4156 H 0.34342 0.04408 0.16047 0.0
H4157 H 0.34321 0.07357 0.17612 0.0
C4158 C 0.9834 0.05943 0.18893 0.0
C4159 C 0.95749 0.05304 0.1978 0.0
C4160 C 0.98498 0.07683 0.18094 0.0
C4161 C 0.93961 0.1129 0.15957 0.0
H4162 H 1.0004 0.14521 0.17695 0.0
C4163 C 0.93158 0.18758 0.14051 0.0
C4164 C 0.95687 0.19721 0.13576 0.0
C4165 C 0.93304 0.17032 0.14849 0.0
C4166 C 0.98347 0.13636 0.17164 0.0
H4167 H 0.91228 0.05954 0.20274 0.0
H4168 H 0.91485 0.08942 0.18885 0.0
H4169 H 1.00093 0.11421 0.1885 0.0
H4170 H 1.00385 0.19647 0.13733 0.0
H4171 H 1.00661 0.16611 0.15066 0.0
H4172 H 0.92236 0.1346 0.14235 0.0
C4173 C 0.93428 0.08129 0.18875 0.0
C4174 C 0.98379 0.11854 0.17832 0.0
C4175 C 0.9329 0.06415 0.19705 0.0
C4176 C 0.98385 0.18941 0.14045 0.0
C4177 C 0.9854 0.17194 0.14823 0.0
C4178 C 0.93949 0.13057 0.15267 0.0
C4179 C 0.96043 0.08804 0.18088 0.0
C4180 C 0.96161 0.10664 0.17261 0.0
C4181 C 0.95996 0.16191 0.15192 0.0
C4182 C 0.96112 0.14275 0.15883 0.0
H4183 H 1.0026 0.05117 0.18836 0.0
H4184 H 1.00534 0.08147 0.17459 0.0
H4185 H 0.92242 0.10406 0.1546 0.0
H4186 H 0.91042 0.19335 0.13786 0.0
H4187 H 0.91284 0.16355 0.15184 0.0
C4188 C 0.71237 0.80532 0.90076 0.0
C4189 C 0.70531 0.80379 0.87996 0.0
C4190 C 0.71328 0.8221 0.91033 0.0
C4191 C 0.68938 0.86973 0.90274 0.0
H4192 H 0.74187 0.87892 0.94775 0.0
C4193 C 0.70808 0.94096 0.935 0.0
C4194 C 0.70842 0.94292 0.95636 0.0
C4195 C 0.70823 0.92401 0.92597 0.0
C4196 C 0.72691 0.87655 0.93529 0.0
H4197 H 0.69526 0.81879 0.85271 0.0
H4198 H 0.69761 0.84787 0.86896 0.0
H4199 H 0.74155 0.84967 0.93155 0.0
H4200 H 0.71009 0.9285 0.98491 0.0
H4201 H 0.71093 0.89888 0.96919 0.0
H4202 H 0.67524 0.89677 0.90628 0.0
C4203 C 0.70132 0.8362 0.87829 0.0
C4204 C 0.72661 0.85967 0.92598 0.0
C4205 C 0.70005 0.81945 0.86885 0.0
C4206 C 0.70975 0.92746 0.96843 0.0
C4207 C 0.71035 0.91048 0.95939 0.0
C4208 C 0.68995 0.88664 0.91189 0.0
C4209 C 0.70756 0.83788 0.89929 0.0
C4210 C 0.70786 0.85593 0.90948 0.0
C4211 C 0.70924 0.90848 0.93801 0.0
C4212 C 0.70872 0.89034 0.9283 0.0
H4213 H 0.7163 0.79349 0.90981 0.0
H4214 H 0.7178 0.8226 0.92653 0.0
H4215 H 0.67405 0.86746 0.89049 0.0
H4216 H 0.70682 0.95257 0.92522 0.0
H4217 H 0.70764 0.92306 0.90948 0.0
C4218 C 0.13041 0.8108 0.94241 0.0
C4219 C 0.10501 0.80102 0.94648 0.0
C4220 C 0.12915 0.82811 0.93457 0.0
C4221 C 0.08046 0.86164 0.90935 0.0
H4222 H 0.13819 0.89465 0.92992 0.0
C4223 C 0.07929 0.93799 0.8901 0.0
C4224 C 0.10629 0.94557 0.8849 0.0
C4225 C 0.0776 0.92057 0.89803 0.0
C4226 C 0.12201 0.88563 0.92385 0.0
H4227 H 0.05812 0.80159 0.9438 0.0
H4228 H 0.05573 0.832 0.93035 0.0
H4229 H 0.13787 0.86407 0.94202 0.0
H4230 H 0.15269 0.94095 0.88542 0.0
H4231 H 0.14987 0.91092 0.89899 0.0
H4232 H 0.06452 0.88348 0.89131 0.0
C4233 C 0.07685 0.82624 0.93339 0.0
C4234 C 0.12187 0.86795 0.93076 0.0
C4235 C 0.07818 0.80875 0.9412 0.0
C4236 C 0.1315 0.93551 0.88871 0.0
C4237 C 0.12987 0.91825 0.89677 0.0
C4238 C 0.0805 0.87943 0.90251 0.0
C4239 C 0.10234 0.83639 0.93042 0.0
C4240 C 0.10138 0.85553 0.92344 0.0
C4241 C 0.1029 0.91038 0.90137 0.0
C4242 C 0.10153 0.89165 0.90947 0.0
H4243 H 0.1515 0.80509 0.9454 0.0
H4244 H 0.1494 0.83504 0.93182 0.0
H4245 H 0.06445 0.85258 0.90316 0.0
H4246 H 0.05936 0.94532 0.88757 0.0
H4247 H 0.05646 0.9151 0.90164 0.0
C4248 C 0.34731 0.67745 0.71581 0.0
C4249 C 0.34628 0.69315 0.70415 0.0
C4250 C 0.34687 0.66065 0.70637 0.0
C4251 C 0.36169 0.63813 0.65674 0.0
H4252 H 0.31752 0.59935 0.68033 0.0
C4253 C 0.34874 0.57033 0.61461 0.0
C4254 C 0.34794 0.55467 0.62633 0.0
C4255 C 0.34799 0.58716 0.62399 0.0
C4256 C 0.33035 0.6099 0.67361 0.0
H4257 H 0.34377 0.7034 0.67329 0.0
H4258 H 0.34283 0.6742 0.65684 0.0
H4259 H 0.31739 0.62842 0.6968 0.0
H4260 H 0.34572 0.54451 0.65723 0.0
H4261 H 0.34484 0.57364 0.67358 0.0
H4262 H 0.37503 0.6196 0.63371 0.0
C4263 C 0.34418 0.67482 0.67332 0.0
C4264 C 0.33021 0.62667 0.6831 0.0
C4265 C 0.34436 0.6916 0.68279 0.0
C4266 C 0.34599 0.55628 0.64768 0.0
C4267 C 0.34544 0.57308 0.65708 0.0
C4268 C 0.36199 0.62132 0.64731 0.0
C4269 C 0.34557 0.65905 0.68495 0.0
C4270 C 0.34581 0.64108 0.6748 0.0
C4271 C 0.34653 0.58885 0.64542 0.0
C4272 C 0.34626 0.60689 0.65554 0.0
H4273 H 0.34869 0.67814 0.73229 0.0
H4274 H 0.34821 0.64889 0.71588 0.0
H4275 H 0.37439 0.64876 0.65003 0.0
H4276 H 0.34992 0.5696 0.59813 0.0
H4277 H 0.34831 0.59886 0.61435 0.0
C4278 C 0.96056 0.6782 0.61592 0.0
C4279 C 0.96156 0.69377 0.62783 0.0
C4280 C 0.96128 0.66127 0.62509 0.0
C4281 C 0.94708 0.6381 0.67448 0.0
H4282 H 0.99115 0.59963 0.65015 0.0
C4283 C 0.96033 0.56996 0.71583 0.0
C4284 C 0.96128 0.55436 0.704 0.0
C4285 C 0.96107 0.58685 0.70659 0.0
C4286 C 0.97834 0.61008 0.65709 0.0
H4287 H 0.96435 0.7036 0.65885 0.0
H4288 H 0.96571 0.67421 0.67481 0.0
H4289 H 0.99094 0.62887 0.63405 0.0
H4290 H 0.9638 0.54441 0.67303 0.0
H4291 H 0.96463 0.57367 0.65691 0.0
H4292 H 0.93406 0.61933 0.69734 0.0
C4293 C 0.96417 0.67502 0.65835 0.0
C4294 C 0.97829 0.62696 0.6478 0.0
C4295 C 0.96374 0.69193 0.64916 0.0
C4296 C 0.96342 0.55612 0.68267 0.0
C4297 C 0.96393 0.573 0.6734 0.0
C4298 C 0.94696 0.62119 0.68369 0.0
C4299 C 0.9628 0.65939 0.64648 0.0
C4300 C 0.96275 0.64128 0.65637 0.0
C4301 C 0.96262 0.58871 0.68518 0.0
C4302 C 0.96267 0.60686 0.67522 0.0
H4303 H 0.95901 0.6791 0.59947 0.0
H4304 H 0.95996 0.64963 0.6154 0.0
H4305 H 0.93442 0.64863 0.6814 0.0
H4306 H 0.95899 0.56912 0.7323 0.0
H4307 H 0.96062 0.59847 0.71635 0.0
C4308 C 0.68221 0.31455 0.38312 0.0
C4309 C 0.7048 0.30199 0.38464 0.0
C4310 C 0.68417 0.33128 0.3924 0.0
C4311 C 0.72041 0.35734 0.43302 0.0
H4312 H 0.6969 0.39759 0.39989 0.0
C4313 C 0.73096 0.43092 0.46189 0.0
C4314 C 0.70997 0.4432 0.45531 0.0
C4315 C 0.73176 0.41358 0.45372 0.0
C4316 C 0.70315 0.38657 0.40959 0.0
H4317 H 0.7463 0.29701 0.39929 0.0
H4318 H 0.74978 0.32635 0.41554 0.0
H4319 H 0.69551 0.36777 0.3856 0.0
H4320 H 0.67262 0.44679 0.43591 0.0
H4321 H 0.67326 0.41674 0.422 0.0
H4322 H 0.7274 0.37613 0.45721 0.0
C4323 C 0.7307 0.32323 0.40657 0.0
C4324 C 0.70247 0.36937 0.40128 0.0
C4325 C 0.72879 0.30641 0.39706 0.0
C4326 C 0.6895 0.43774 0.44078 0.0
C4327 C 0.69001 0.42044 0.43279 0.0
C4328 C 0.7208 0.3746 0.44146 0.0
C4329 C 0.70864 0.33606 0.40397 0.0
C4330 C 0.71084 0.35446 0.41288 0.0
C4331 C 0.7113 0.40803 0.43895 0.0
C4332 C 0.71192 0.38953 0.42993 0.0
H4333 H 0.66272 0.31151 0.37477 0.0
H4334 H 0.66627 0.3405 0.39055 0.0
H4335 H 0.72681 0.34619 0.44248 0.0
H4336 H 0.74679 0.43474 0.47331 0.0
H4337 H 0.74865 0.40461 0.45885 0.0
C4338 C 0.10018 0.31954 0.46741 0.0
C4339 C 0.10002 0.30419 0.45516 0.0
C4340 C 0.09967 0.33662 0.45856 0.0
C4341 C 0.08655 0.3601 0.40822 0.0
H4342 H 0.1233 0.39976 0.43585 0.0
C4343 C 0.1098 0.42801 0.36844 0.0
C4344 C 0.10189 0.44349 0.37915 0.0
C4345 C 0.10903 0.41125 0.37793 0.0
C4346 C 0.11278 0.38884 0.42798 0.0
H4347 H 0.09988 0.29481 0.42393 0.0
H4348 H 0.10021 0.32421 0.40853 0.0
H4349 H 0.12342 0.37037 0.45173 0.0
H4350 H 0.08739 0.45343 0.40846 0.0
H4351 H 0.08667 0.4242 0.42518 0.0
H4352 H 0.07694 0.37858 0.38414 0.0
C4353 C 0.09952 0.32335 0.425 0.0
C4354 C 0.11266 0.3719 0.43716 0.0
C4355 C 0.09945 0.30634 0.43386 0.0
C4356 C 0.09337 0.44177 0.39969 0.0
C4357 C 0.09319 0.42503 0.40933 0.0
C4358 C 0.08717 0.37694 0.39891 0.0
C4359 C 0.09952 0.33887 0.43714 0.0
C4360 C 0.09951 0.35717 0.42746 0.0
C4361 C 0.10088 0.40951 0.39855 0.0
C4362 C 0.10024 0.39157 0.40864 0.0
H4363 H 0.10055 0.31836 0.48388 0.0
H4364 H 0.09916 0.34803 0.46862 0.0
H4365 H 0.0755 0.34944 0.40029 0.0
H4366 H 0.11622 0.42882 0.35258 0.0
H4367 H 0.11522 0.39962 0.36917 0.0
C4368 C 0.85288 0.06976 0.61488 0.0
C4369 C 0.85211 0.05426 0.62692 0.0
C4370 C 0.85212 0.08673 0.62388 0.0
C4371 C 0.86823 0.11043 0.67227 0.0
H4372 H 0.82054 0.14804 0.64956 0.0
C4373 C 0.8567 0.17848 0.7137 0.0
C4374 C 0.85303 0.19404 0.70207 0.0
C4375 C 0.85581 0.16159 0.70453 0.0
C4376 C 0.83441 0.13786 0.65601 0.0
H4377 H 0.84985 0.04456 0.658 0.0
H4378 H 0.84876 0.07413 0.67375 0.0
H4379 H 0.82069 0.1187 0.63367 0.0
H4380 H 0.84551 0.20397 0.67153 0.0
H4381 H 0.84471 0.17467 0.65535 0.0
H4382 H 0.88264 0.12955 0.69427 0.0
C4383 C 0.84992 0.07318 0.65728 0.0
C4384 C 0.83437 0.12091 0.64687 0.0
C4385 C 0.85023 0.0562 0.64824 0.0
C4386 C 0.84807 0.19225 0.68099 0.0
C4387 C 0.84756 0.17535 0.67173 0.0
C4388 C 0.86856 0.12743 0.68127 0.0
C4389 C 0.85096 0.08873 0.64525 0.0
C4390 C 0.85114 0.1069 0.65492 0.0
C4391 C 0.85157 0.15966 0.68331 0.0
C4392 C 0.85151 0.14147 0.6734 0.0
H4393 H 0.85424 0.06877 0.59842 0.0
H4394 H 0.85315 0.09833 0.6141 0.0
H4395 H 0.88183 0.10011 0.67873 0.0
H4396 H 0.86009 0.17934 0.73002 0.0
H4397 H 0.85825 0.15003 0.71422 0.0
C4398 C 0.47966 0.18863 0.63902 0.0
C4399 C 0.45287 0.19608 0.63311 0.0
C4400 C 0.48101 0.17138 0.64745 0.0
C4401 C 0.43576 0.13697 0.67337 0.0
H4402 H 0.49352 0.10352 0.65388 0.0
C4403 C 0.42702 0.0622 0.69293 0.0
C4404 C 0.45244 0.05246 0.69703 0.0
C4405 C 0.42831 0.07954 0.68511 0.0
C4406 C 0.47745 0.1127 0.65975 0.0
H4407 H 0.40645 0.19155 0.63301 0.0
H4408 H 0.40869 0.16181 0.64744 0.0
H4409 H 0.49391 0.13422 0.64147 0.0
H4410 H 0.49939 0.05327 0.69503 0.0
H4411 H 0.50179 0.08364 0.68162 0.0
H4412 H 0.41936 0.11571 0.69176 0.0
C4413 C 0.42878 0.16908 0.64536 0.0
C4414 C 0.47769 0.13037 0.65259 0.0
C4415 C 0.4275 0.18615 0.63679 0.0
C4416 C 0.47931 0.06035 0.6922 0.0
C4417 C 0.48066 0.07783 0.68443 0.0
C4418 C 0.43563 0.1194 0.68061 0.0
C4419 C 0.45556 0.1613 0.6506 0.0
C4420 C 0.45661 0.14272 0.65911 0.0
C4421 C 0.45514 0.08784 0.68109 0.0
C4422 C 0.45622 0.10686 0.67375 0.0
H4423 H 0.49968 0.1959 0.63669 0.0
H4424 H 0.502 0.16597 0.65157 0.0
H4425 H 0.4195 0.14613 0.67906 0.0
H4426 H 0.40593 0.05642 0.69576 0.0
H4427 H 0.40807 0.08643 0.68219 0.0
C4428 C 0.21062 0.8203 0.36585 0.0
C4429 C 0.21199 0.80474 0.37774 0.0
C4430 C 0.21164 0.83721 0.37501 0.0
C4431 C 0.23114 0.8605 0.42391 0.0
H4432 H 0.18524 0.89882 0.40093 0.0
C4433 C 0.21521 0.92852 0.46552 0.0
C4434 C 0.21492 0.94406 0.45355 0.0
C4435 C 0.21564 0.91159 0.45636 0.0
C4436 C 0.19848 0.88835 0.40746 0.0
H4437 H 0.21557 0.79486 0.40869 0.0
H4438 H 0.21697 0.82416 0.42467 0.0
H4439 H 0.18437 0.86952 0.38499 0.0
H4440 H 0.21531 0.95388 0.42245 0.0
H4441 H 0.21634 0.9245 0.40652 0.0
H4442 H 0.24494 0.87934 0.44653 0.0
C4443 C 0.21568 0.82343 0.40819 0.0
C4444 C 0.19803 0.87146 0.39825 0.0
C4445 C 0.21485 0.80655 0.39901 0.0
C4446 C 0.21572 0.94222 0.43218 0.0
C4447 C 0.21593 0.92531 0.42302 0.0
C4448 C 0.23146 0.87737 0.43318 0.0
C4449 C 0.21396 0.83909 0.39637 0.0
C4450 C 0.21441 0.85722 0.40627 0.0
C4451 C 0.21567 0.9097 0.43494 0.0
C4452 C 0.21521 0.8916 0.42509 0.0
H4453 H 0.20875 0.81942 0.34941 0.0
H4454 H 0.21082 0.84882 0.36524 0.0
H4455 H 0.24447 0.85009 0.43045 0.0
H4456 H 0.21464 0.92945 0.48201 0.0
H4457 H 0.2152 0.89995 0.4661 0.0
C4458 C 0.60303 0.81862 0.46125 0.0
C4459 C 0.59939 0.80302 0.4497 0.0
C4460 C 0.60236 0.83543 0.45198 0.0
C4461 C 0.58126 0.85924 0.40367 0.0
H4462 H 0.63024 0.89634 0.42618 0.0
C4463 C 0.59932 0.92808 0.36385 0.0
C4464 C 0.59914 0.94325 0.37644 0.0
C4465 C 0.59873 0.91088 0.37233 0.0
C4466 C 0.61621 0.8862 0.41978 0.0
H4467 H 0.59183 0.7929 0.41926 0.0
H4468 H 0.59123 0.82219 0.40287 0.0
H4469 H 0.63075 0.86677 0.44135 0.0
H4470 H 0.598 0.95217 0.40785 0.0
H4471 H 0.59713 0.92227 0.42263 0.0
H4472 H 0.56733 0.87875 0.38178 0.0
C4473 C 0.59408 0.82155 0.41924 0.0
C4474 C 0.61639 0.86915 0.42856 0.0
C4475 C 0.59443 0.80468 0.42862 0.0
C4476 C 0.59799 0.94079 0.3977 0.0
C4477 C 0.59779 0.92362 0.40618 0.0
C4478 C 0.58134 0.87627 0.39475 0.0
C4479 C 0.5983 0.83724 0.43075 0.0
C4480 C 0.59868 0.85538 0.42082 0.0
C4481 C 0.59828 0.90839 0.39363 0.0
C4482 C 0.59862 0.89006 0.40279 0.0
H4483 H 0.6063 0.81784 0.47759 0.0
H4484 H 0.60487 0.84704 0.4616 0.0
H4485 H 0.567 0.84922 0.39732 0.0
H4486 H 0.60009 0.92949 0.34742 0.0
H4487 H 0.5993 0.89952 0.36217 0.0
C4488 C 0.862 0.56754 0.12324 0.0
C4489 C 0.85023 0.55232 0.13253 0.0
C4490 C 0.86002 0.58429 0.13241 0.0
C4491 C 0.84234 0.60687 0.18211 0.0
H4492 H 0.84523 0.64883 0.14779 0.0
C4493 C 0.86026 0.6771 0.21664 0.0
C4494 C 0.8497 0.69223 0.20648 0.0
C4495 C 0.8581 0.66014 0.20788 0.0
C4496 C 0.84391 0.63737 0.15774 0.0
H4497 H 0.82534 0.54312 0.1585 0.0
H4498 H 0.82039 0.57254 0.17417 0.0
H4499 H 0.84375 0.61968 0.13226 0.0
H4500 H 0.82735 0.70119 0.17927 0.0
H4501 H 0.82208 0.67162 0.16439 0.0
H4502 H 0.8408 0.62465 0.20756 0.0
C4503 C 0.83252 0.57143 0.16009 0.0
C4504 C 0.84367 0.62042 0.14875 0.0
C4505 C 0.83504 0.55451 0.15098 0.0
C4506 C 0.83576 0.68984 0.18758 0.0
C4507 C 0.83316 0.67281 0.17889 0.0
C4508 C 0.842 0.62384 0.1911 0.0
C4509 C 0.84521 0.58664 0.15102 0.0
C4510 C 0.84342 0.60482 0.16075 0.0
C4511 C 0.84465 0.65764 0.18876 0.0
C4512 C 0.84325 0.63943 0.1791 0.0
H4513 H 0.87241 0.56666 0.10857 0.0
H4514 H 0.8705 0.59536 0.12484 0.0
H4515 H 0.84237 0.59537 0.19205 0.0
H4516 H 0.87012 0.67829 0.23152 0.0
H4517 H 0.86757 0.64906 0.21605 0.0
C4518 C 0.45352 0.56927 0.21298 0.0
C4519 C 0.45678 0.55361 0.20145 0.0
C4520 C 0.45486 0.58606 0.20365 0.0
C4521 C 0.44501 0.60891 0.15412 0.0
H4522 H 0.48776 0.64727 0.17984 0.0
C4523 C 0.45763 0.67788 0.11464 0.0
C4524 C 0.45848 0.69321 0.12692 0.0
C4525 C 0.45852 0.66082 0.12338 0.0
C4526 C 0.47529 0.63686 0.17252 0.0
H4527 H 0.46411 0.54337 0.171 0.0
H4528 H 0.46622 0.57272 0.15462 0.0
H4529 H 0.487 0.61791 0.1956 0.0
H4530 H 0.46081 0.70258 0.15811 0.0
H4531 H 0.46157 0.67302 0.17343 0.0
H4532 H 0.43256 0.62788 0.13133 0.0
C4533 C 0.46263 0.572 0.17093 0.0
C4534 C 0.47499 0.61992 0.18157 0.0
C4535 C 0.46172 0.55518 0.18034 0.0
C4536 C 0.46053 0.69105 0.14818 0.0
C4537 C 0.46104 0.674 0.15696 0.0
C4538 C 0.445 0.62592 0.14517 0.0
C4539 C 0.45918 0.58769 0.18246 0.0
C4540 C 0.45986 0.60569 0.17253 0.0
C4541 C 0.45996 0.65854 0.14474 0.0
C4542 C 0.46014 0.64023 0.1542 0.0
H4543 H 0.44997 0.56855 0.22929 0.0
H4544 H 0.45191 0.5978 0.21302 0.0
H4545 H 0.43279 0.59836 0.14683 0.0
H4546 H 0.45633 0.67907 0.09819 0.0
H4547 H 0.45826 0.64941 0.1133 0.0
C4548 C 0.21243 0.44159 0.93038 0.0
C4549 C 0.20603 0.44303 0.95129 0.0
C4550 C 0.21328 0.42485 0.92076 0.0
C4551 C 0.19078 0.37701 0.92871 0.0
H4552 H 0.24209 0.36837 0.88289 0.0
C4553 C 0.21133 0.30598 0.89624 0.0
C4554 C 0.21029 0.30411 0.87491 0.0
C4555 C 0.21132 0.32294 0.90531 0.0
C4556 C 0.22749 0.37058 0.8956 0.0
H4557 H 0.19692 0.42795 0.97865 0.0
H4558 H 0.19932 0.39891 0.96231 0.0
H4559 H 0.24139 0.39763 0.89904 0.0
H4560 H 0.20931 0.31863 0.84637 0.0
H4561 H 0.20997 0.34819 0.86212 0.0
H4562 H 0.17747 0.34977 0.92547 0.0
C4563 C 0.20255 0.41061 0.95294 0.0
C4564 C 0.22695 0.38747 0.90487 0.0
C4565 C 0.20129 0.42733 0.96244 0.0
C4566 C 0.2101 0.31961 0.86285 0.0
C4567 C 0.21058 0.33656 0.87189 0.0
C4568 C 0.19164 0.36009 0.91962 0.0
C4569 C 0.20819 0.40902 0.93186 0.0
C4570 C 0.20863 0.391 0.92165 0.0
C4571 C 0.2108 0.33849 0.89327 0.0
C4572 C 0.21003 0.3566 0.90295 0.0
H4573 H 0.21589 0.45346 0.9213 0.0
H4574 H 0.21727 0.42441 0.90449 0.0
H4575 H 0.17574 0.37912 0.94116 0.0
H4576 H 0.21117 0.29432 0.90597 0.0
H4577 H 0.21172 0.32389 0.9218 0.0
C4578 C 0.59764 0.30493 0.93073 0.0
C4579 C 0.60337 0.30322 0.95171 0.0
C4580 C 0.59705 0.32179 0.9214 0.0
C4581 C 0.61922 0.3695 0.9305 0.0
H4582 H 0.56963 0.37861 0.88387 0.0
C4583 C 0.59981 0.44078 0.89833 0.0
C4584 C 0.60141 0.4428 0.87703 0.0
C4585 C 0.59972 0.42377 0.90725 0.0
C4586 C 0.58376 0.37627 0.89681 0.0
H4587 H 0.61156 0.31791 0.97949 0.0
H4588 H 0.60947 0.34718 0.96363 0.0
H4589 H 0.56962 0.34922 0.89969 0.0
H4590 H 0.60331 0.42847 0.84839 0.0
H4591 H 0.60259 0.39882 0.86389 0.0
H4592 H 0.63275 0.39674 0.92781 0.0
C4593 C 0.6066 0.3356 0.95402 0.0
C4594 C 0.58388 0.35931 0.90589 0.0
C4595 C 0.60764 0.31876 0.96323 0.0
C4596 C 0.60218 0.42738 0.86485 0.0
C4597 C 0.60162 0.41038 0.87374 0.0
C4598 C 0.61877 0.38649 0.92159 0.0
C4599 C 0.60168 0.33746 0.93287 0.0
C4600 C 0.6016 0.3556 0.92295 0.0
C4601 C 0.60069 0.40831 0.89509 0.0
C4602 C 0.60103 0.39014 0.90462 0.0
H4603 H 0.59458 0.29318 0.92139 0.0
H4604 H 0.59364 0.32245 0.90508 0.0
H4605 H 0.63378 0.36725 0.94321 0.0
H4606 H 0.59943 0.45239 0.90814 0.0
H4607 H 0.59877 0.42272 0.92372 0.0
C4608 C 0.29687 0.02279 0.04702 0.0
C4609 C 0.31647 0.00918 0.05296 0.0
C4610 C 0.27816 0.02127 1.02961 0.0
C4611 C 0.24887 0.9883 0.9882 0.0
H4612 H 0.22019 0.03146 0.96332 0.0
C4613 C 0.17095 0.98516 0.91347 0.0
C4614 C 0.15629 0.00053 0.90618 0.0
C4615 C 0.19086 0.98575 0.93048 0.0
C4616 C 0.22721 0.01897 0.9698 0.0
H4617 H 0.33225 0.98355 0.04283 0.0
H4618 H 0.30002 0.98074 1.01303 0.0
H4619 H 0.25169 0.03311 0.99269 0.0
H4620 H 0.15071 0.02837 0.91328 0.0
H4621 H 0.18391 0.02954 0.94195 0.0
H4622 H 0.22432 0.97414 0.96525 0.0
C4623 C 0.2982 0.99261 1.02227 0.0
C4624 C 0.24593 0.01999 0.98726 0.0
C4625 C 0.317 0.99417 1.03975 0.0
C4626 C 0.162 0.01625 0.91744 0.0
C4627 C 0.18161 0.01686 0.93437 0.0
C4628 C 0.22991 0.98726 0.97074 0.0
C4629 C 0.278 0.00613 1.01652 0.0
C4630 C 0.25749 0.00474 0.99722 0.0
C4631 C 0.19694 0.00167 0.94171 0.0
C4632 C 0.21818 0.00258 0.9608 0.0
H4633 H 0.29568 0.03478 0.05613 0.0
H4634 H 0.26341 0.03217 1.02666 0.0
H4635 H 0.25638 0.97595 0.99484 0.0
H4636 H 0.1667 0.97247 0.90624 0.0
H4637 H 0.20132 0.97343 0.93477 0.0
C4638 C 0.14299 0.26535 0.9148 0.0
C4639 C 0.15042 0.25016 0.90304 0.0
C4640 C 0.12356 0.2645 0.93195 0.0
C4641 C 0.08394 0.23077 0.96834 0.0
H4642 H 0.04844 0.27321 0.99035 0.0
C4643 C 1.00816 0.22535 0.0425 0.0
C4644 C 0.99107 0.23966 0.04984 0.0
C4645 C 1.02743 0.22701 1.02546 0.0
C4646 C 0.05771 0.26095 0.98471 0.0
H4647 H 0.14439 0.22165 0.90269 0.0
H4648 H 0.11054 0.22009 0.93124 0.0
H4649 H 0.07951 0.27518 0.9605 0.0
H4650 H 0.98065 0.26702 0.04282 0.0
H4651 H 1.01347 0.27009 1.01367 0.0
H4652 H 0.06178 0.21641 0.99197 0.0
C4653 C 0.11901 0.23305 0.9273 0.0
C4654 C 0.07635 0.26216 0.96715 0.0
C4655 C 0.13845 0.23394 0.91024 0.0
C4656 C 0.99386 0.2557 1.03859 0.0
C4657 C 1.01304 0.25738 1.02137 0.0
C4658 C 0.06523 0.22954 0.98576 0.0
C4659 C 0.11088 0.24827 0.93897 0.0
C4660 C 0.09024 0.24709 0.95823 0.0
C4661 C 0.03058 0.24305 1.01401 0.0
C4662 C 0.05129 0.24456 0.99476 0.0
H4663 H 0.15263 0.27805 0.91091 0.0
H4664 H 0.11925 0.27676 0.94002 0.0
H4665 H 0.09372 0.21855 0.96302 0.0
H4666 H 1.00679 0.2126 0.05013 0.0
H4667 H 0.03985 0.21535 1.02146 0.0
C4668 C 0.2988 0.22526 0.28432 0.0
C4669 C 0.31851 0.23881 0.27839 0.0
C4670 C 0.28017 0.22684 0.30173 0.0
C4671 C 0.25244 0.2601 0.34334 0.0
H4672 H 0.21901 0.21767 0.36711 0.0
C4673 C 0.16512 0.26534 0.4113 0.0
C4674 C 0.15911 0.2509 0.42458 0.0
C4675 C 0.18481 0.264 0.39444 0.0
C4676 C 0.22802 0.22987 0.36109 0.0
H4677 H 0.33456 0.26439 0.28839 0.0
H4678 H 0.30271 0.26727 0.31829 0.0
H4679 H 0.25136 0.21531 0.33795 0.0
H4680 H 0.16901 0.22301 0.42856 0.0
H4681 H 0.20327 0.2206 0.39998 0.0
H4682 H 0.22963 0.27464 0.3668 0.0
C4683 C 0.30063 0.25541 0.30906 0.0
C4684 C 0.24682 0.22851 0.34368 0.0
C4685 C 0.31926 0.25381 0.29154 0.0
C4686 C 0.17338 0.23477 0.41953 0.0
C4687 C 0.19306 0.23336 0.40256 0.0
C4688 C 0.23363 0.26147 0.36076 0.0
C4689 C 0.28027 0.24198 0.31482 0.0
C4690 C 0.25975 0.24356 0.33406 0.0
C4691 C 0.19951 0.24793 0.38929 0.0
C4692 C 0.22057 0.24641 0.37032 0.0
H4693 H 0.29745 0.21328 0.27519 0.0
H4694 H 0.2653 0.21601 0.30468 0.0
H4695 H 0.261 0.27232 0.33702 0.0
H4696 H 0.15428 0.27794 0.41389 0.0
H4697 H 0.18779 0.27572 0.38511 0.0
C4698 C 1.00773 0.0243 0.28667 0.0
C4699 C 0.99053 0.00995 0.27946 0.0
C4700 C 1.02682 0.02276 0.30388 0.0
C4701 C 0.06088 0.98864 0.34224 0.0
H4702 H 0.08701 0.03112 0.37007 0.0
C4703 C 0.14918 0.98398 0.40964 0.0
C4704 C 0.15292 0.99766 0.42433 0.0
C4705 C 0.12924 0.98535 0.39293 0.0
C4706 C 0.08012 0.01888 0.36287 0.0
H4707 H 0.9794 0.98282 0.28712 0.0
H4708 H 1.0121 0.97997 0.31649 0.0
H4709 H 0.05418 0.03348 0.34113 0.0
H4710 H 0.13854 0.02442 0.43097 0.0
H4711 H 0.10387 0.02683 0.40258 0.0
H4712 H 0.08627 0.97401 0.36428 0.0
C4713 C 1.01187 0.99254 0.30845 0.0
C4714 C 0.06102 0.02028 0.3456 0.0
C4715 C 0.99275 0.99412 0.29119 0.0
C4716 C 0.13609 0.01317 0.42078 0.0
C4717 C 0.11614 0.01462 0.40394 0.0
C4718 C 0.07999 0.98723 0.35951 0.0
C4719 C 0.02973 0.00681 0.31548 0.0
C4720 C 0.05065 0.00522 0.33455 0.0
C4721 C 0.11193 0.00075 0.38931 0.0
C4722 C 0.09049 0.0023 0.37051 0.0
H4723 H 1.00676 0.03692 0.27871 0.0
H4724 H 0.03962 0.03431 0.30788 0.0
H4725 H 0.05444 0.97643 0.33478 0.0
H4726 H 0.16201 0.97195 0.41103 0.0
H4727 H 0.12812 0.97423 0.3825 0.0
C4728 C 0.89388 0.98215 0.16621 0.0
C4729 C 0.90227 0.9981 0.17613 0.0
C4730 C 0.87362 0.98167 0.14964 0.0
C4731 C 0.82468 0.01185 0.11407 0.0
H4732 H 0.80862 0.96684 0.08782 0.0
C4733 C 0.73529 0.00608 0.04692 0.0
C4734 C 0.73563 0.9919 1.03258 0.0
C4735 C 0.75542 0.00727 0.06361 0.0
C4736 C 0.81265 0.97976 0.09451 0.0
H4737 H 0.89581 0.02654 0.17419 0.0
H4738 H 0.86075 0.02596 0.14604 0.0
H4739 H 0.84154 0.96804 0.1164 0.0
H4740 H 0.75728 0.96688 1.02694 0.0
H4741 H 0.79222 0.96894 0.05505 0.0
H4742 H 0.79579 0.02347 0.09169 0.0
C4743 C 0.86917 0.01334 0.15124 0.0
C4744 C 0.83203 0.98049 0.11166 0.0
C4745 C 0.88952 0.01376 0.16796 0.0
C4746 C 0.75658 0.97852 1.03667 0.0
C4747 C 0.77668 0.97963 0.0534 0.0
C4748 C 0.80524 0.0111 0.09687 0.0
C4749 C 0.86053 0.99724 0.1412 0.0
C4750 C 0.83893 0.99656 0.12226 0.0
C4751 C 0.77687 0.99403 0.06761 0.0
C4752 C 0.79843 0.995 0.0864 0.0
H4753 H 0.90352 0.96972 0.17114 0.0
H4754 H 0.86879 0.96873 0.14339 0.0
H4755 H 0.82831 0.02475 0.12087 0.0
H4756 H 0.71892 0.01634 0.04541 0.0
H4757 H 0.75337 0.01853 0.07379 0.0
C4758 C 0.05423 0.77127 1.0394 0.0
C4759 C 0.07082 0.75682 1.03179 0.0
C4760 C 0.03465 0.76968 0.05633 0.0
C4761 C 1.00574 0.7362 0.09836 0.0
H4762 H 0.9593 0.77671 0.11436 0.0
C4763 C 0.9174 0.73003 0.16615 0.0
C4764 C 0.90672 0.74514 0.17677 0.0
C4765 C 0.93727 0.73133 0.1493 0.0
C4766 C 0.97204 0.76508 0.11061 0.0
H4767 H 0.08007 0.72924 1.03854 0.0
H4768 H 0.04634 0.72618 0.06715 0.0
H4769 H 0.99171 0.77896 0.08549 0.0
H4770 H 0.90812 0.77388 0.17561 0.0
H4771 H 0.94236 0.77627 0.14706 0.0
H4772 H 0.98588 0.7224 0.12373 0.0
C4773 C 0.04761 0.73905 0.05987 0.0
C4774 C 0.99125 0.76635 0.09337 0.0
C4775 C 0.06723 0.7407 0.04283 0.0
C4776 C 0.9162 0.76172 0.16877 0.0
C4777 C 0.93598 0.76306 0.15183 0.0
C4778 C 0.98645 0.73492 0.1156 0.0
C4779 C 0.03043 0.75352 0.06741 0.0
C4780 C 1.00903 0.75199 0.08644 0.0
C4781 C 0.94735 0.7479 0.14136 0.0
C4782 C 0.96877 0.74931 0.12246 0.0
H4783 H 0.0563 0.78413 1.03207 0.0
H4784 H 1.02308 0.78157 0.06069 0.0
H4785 H 1.01822 0.72448 0.0946 0.0
H4786 H 0.91029 0.71694 0.17092 0.0
H4787 H 0.94415 0.71905 0.14221 0.0
C4788 C 0.88411 0.7626 0.66065 0.0
C4789 C 0.89943 0.7467 0.65608 0.0
C4790 C 0.8641 0.76387 0.67747 0.0
C4791 C 0.82451 0.73561 0.71968 0.0
H4792 H 0.80437 0.78172 0.74165 0.0
C4793 C 0.73747 0.74279 0.7883 0.0
C4794 C 0.73736 0.75798 0.8012 0.0
C4795 C 0.75653 0.74121 0.77098 0.0
C4796 C 0.80959 0.76853 0.73615 0.0
H4797 H 0.90552 0.71996 0.66739 0.0
H4798 H 0.87139 0.72193 0.69583 0.0
H4799 H 0.83703 0.77957 0.71261 0.0
H4800 H 0.75747 0.78382 0.80411 0.0
H4801 H 0.79032 0.78113 0.77499 0.0
H4802 H 0.79743 0.72458 0.7435 0.0
C4803 C 0.87389 0.73356 0.68629 0.0
C4804 C 0.82858 0.76729 0.71882 0.0
C4805 C 0.89394 0.73236 0.66962 0.0
C4806 C 0.75675 0.77169 0.79521 0.0
C4807 C 0.7758 0.77014 0.77799 0.0
C4808 C 0.80547 0.73686 0.73701 0.0
C4809 C 0.85827 0.74939 0.69103 0.0
C4810 C 0.83692 0.75078 0.70989 0.0
C4811 C 0.77647 0.75486 0.76513 0.0
C4812 C 0.79728 0.75338 0.74599 0.0
H4813 H 0.88793 0.77429 0.65138 0.0
H4814 H 0.85316 0.77645 0.67972 0.0
H4815 H 0.82921 0.72245 0.71389 0.0
H4816 H 0.72247 0.73205 0.79146 0.0
H4817 H 0.75508 0.72921 0.76194 0.0
C4818 C 0.91988 0.01531 0.66616 0.0
C4819 C 0.91129 -0.00012 0.65523 0.0
C4820 C 0.93985 0.01464 0.68304 0.0
C4821 C 0.98687 0.98126 0.71603 0.0
H4822 H 1.00437 0.0234 0.74755 0.0
C4823 C 0.05917 0.97595 0.79177 0.0
C4824 C 0.07464 0.99067 0.79983 0.0
C4825 C 0.03962 0.97745 0.77486 0.0
C4826 C 1.00024 0.01133 0.73905 0.0
H4827 H 0.91553 0.97129 0.65623 0.0
H4828 H 0.9493 0.9699 0.68461 0.0
H4829 H 0.97178 0.02531 0.71843 0.0
H4830 H 0.08235 0.01858 0.7939 0.0
H4831 H 0.04867 0.02136 0.76498 0.0
H4832 H 1.01544 0.96733 0.73663 0.0
C4833 C 0.94223 0.98297 0.67993 0.0
C4834 C 0.9809 0.01241 0.72185 0.0
C4835 C 0.92248 0.98371 0.66308 0.0
C4836 C 0.07023 0.00694 0.78924 0.0
C4837 C 0.05064 0.00848 0.77223 0.0
C4838 C 1.00604 0.98018 0.73323 0.0
C4839 C 0.95186 0.99839 0.69069 0.0
C4840 C 0.97333 0.99739 0.70959 0.0
C4841 C 0.03459 0.99375 0.76436 0.0
C4842 C 1.01348 0.99514 0.74545 0.0
H4843 H 0.91093 0.02807 0.66175 0.0
H4844 H 0.94547 0.02714 0.69013 0.0
H4845 H 0.98311 0.96906 0.70776 0.0
H4846 H 0.06194 0.96301 0.79879 0.0
H4847 H 1.02821 0.96555 0.77019 0.0
C4848 C 0.29766 0.52311 0.54461 0.0
C4849 C 0.31746 0.5096 0.55058 0.0
C4850 C 0.27863 0.52139 0.52737 0.0
C4851 C 0.24965 0.48783 0.48631 0.0
H4852 H 0.21699 0.53023 0.46213 0.0
C4853 C 0.16764 0.48178 0.41453 0.0
C4854 C 0.15506 0.49682 0.40486 0.0
C4855 C 0.18765 0.4832 0.4313 0.0
C4856 C 0.22541 0.51795 0.46827 0.0
H4857 H 0.33309 0.48388 0.5407 0.0
H4858 H 0.30049 0.48073 0.5112 0.0
H4859 H 0.24933 0.53262 0.49108 0.0
H4860 H 0.15367 0.52546 0.4074 0.0
H4861 H 0.18779 0.52813 0.43573 0.0
H4862 H 0.22609 0.4731 0.46347 0.0
C4863 C 0.29871 0.49271 0.52026 0.0
C4864 C 0.24448 0.51939 0.48557 0.0
C4865 C 0.31778 0.49447 0.53759 0.0
C4866 C 0.16322 0.51341 0.41348 0.0
C4867 C 0.18313 0.51487 0.43033 0.0
C4868 C 0.23052 0.48636 0.469 0.0
C4869 C 0.27831 0.50612 0.51446 0.0
C4870 C 0.25739 0.50441 0.49535 0.0
C4871 C 0.19612 0.49981 0.44012 0.0
C4872 C 0.21748 0.50137 0.45918 0.0
H4873 H 0.29655 0.5352 0.55357 0.0
H4874 H 0.26381 0.53224 0.5244 0.0
H4875 H 0.25808 0.47563 0.49277 0.0
H4876 H 0.16171 0.46863 0.4092 0.0
H4877 H 0.19599 0.4709 0.43746 0.0
C4878 C 0.14276 0.76624 0.41884 0.0
C4879 C 0.14983 0.75168 0.40598 0.0
C4880 C 0.123 0.76479 0.43567 0.0
C4881 C 0.08224 0.73039 0.47025 0.0
H4882 H 0.04592 0.77246 0.49273 0.0
C4883 C 1.01098 0.72563 0.54702 0.0
C4884 C 0.99074 0.73896 0.55275 0.0
C4885 C 0.0296 0.72727 0.52957 0.0
C4886 C 0.05543 0.76032 0.4869 0.0
H4887 H 0.1417 0.72349 0.40281 0.0
H4888 H 0.10752 0.72086 0.43145 0.0
H4889 H 0.07709 0.77484 0.46286 0.0
H4890 H 0.97384 0.76421 0.54232 0.0
H4891 H 1.00553 0.76715 0.51238 0.0
H4892 H 0.06012 0.7158 0.49398 0.0
C4893 C 0.11685 0.7338 0.42848 0.0
C4894 C 0.07414 0.76176 0.4694 0.0
C4895 C 0.13651 0.73534 0.41149 0.0
C4896 C 0.98951 0.75379 0.53935 0.0
C4897 C 1.00808 0.75543 0.52178 0.0
C4898 C 0.06356 0.72895 0.48775 0.0
C4899 C 0.10937 0.74848 0.44132 0.0
C4900 C 0.08839 0.74685 0.46037 0.0
C4901 C 1.02896 0.74223 0.51619 0.0
C4902 C 0.04941 0.74386 0.49684 0.0
H4903 H 0.15284 0.77902 0.41594 0.0
H4904 H 0.11916 0.77663 0.44463 0.0
H4905 H 0.09221 0.7183 0.46468 0.0
H4906 H 1.01277 0.71378 0.55634 0.0
H4907 H 0.04486 0.71661 0.52682 0.0
C4908 C 0.31824 0.75301 0.7933 0.0
C4909 C 0.31732 0.73806 0.78004 0.0
C4910 C 0.29962 0.75463 0.81086 0.0
C4911 C 0.24688 0.72746 0.84584 0.0
H4912 H 0.22716 0.77334 0.86852 0.0
C4913 C 0.16537 0.73165 0.91752 0.0
C4914 C 0.15853 0.74782 0.92761 0.0
C4915 C 0.18494 0.73072 0.90049 0.0
C4916 C 0.23212 0.76019 0.86286 0.0
H4917 H 0.29583 0.71268 0.77671 0.0
H4918 H 0.26383 0.71542 0.80629 0.0
H4919 H 0.25869 0.77143 0.83878 0.0
H4920 H 0.16707 0.77602 0.92557 0.0
H4921 H 0.20139 0.77458 0.89716 0.0
H4922 H 0.22079 0.71606 0.86965 0.0
C4923 C 0.27883 0.72619 0.80338 0.0
C4924 C 0.25085 0.7591 0.84529 0.0
C4925 C 0.29739 0.72461 0.78592 0.0
C4926 C 0.17213 0.76309 0.91919 0.0
C4927 C 0.19197 0.76219 0.90225 0.0
C4928 C 0.22833 0.72853 0.86341 0.0
C4929 C 0.27917 0.74125 0.81661 0.0
C4930 C 0.25887 0.74267 0.83602 0.0
C4931 C 0.19903 0.74596 0.89198 0.0
C4932 C 0.21997 0.74492 0.8727 0.0
H4933 H 0.33367 0.76353 0.79021 0.0
H4934 H 0.30178 0.76644 0.82017 0.0
H4935 H 0.25213 0.71433 0.84019 0.0
H4936 H 0.15488 0.71951 0.92253 0.0
H4937 H 0.18825 0.71775 0.89382 0.0
C4938 C 0.14062 0.48121 0.91459 0.0
C4939 C 0.15099 0.49619 0.92558 0.0
C4940 C 0.12093 0.4827 0.89767 0.0
C4941 C 0.08588 0.5171 0.85984 0.0
H4942 H 0.04214 0.47623 0.84142 0.0
C4943 C 1.01139 0.52239 0.78463 0.0
C4944 C 0.99035 0.50939 0.77938 0.0
C4945 C 0.03032 0.52064 0.8019 0.0
C4946 C 0.05375 0.48806 0.84606 0.0
H4947 H 0.14923 0.52493 0.92509 0.0
H4948 H 0.11526 0.52765 0.89647 0.0
H4949 H 0.07369 0.47379 0.87102 0.0
H4950 H 0.97233 0.48467 0.79053 0.0
H4951 H 1.00436 0.48158 0.82021 0.0
H4952 H 0.06549 0.53152 0.83531 0.0
C4953 C 0.12175 0.5144 0.90095 0.0
C4954 C 0.07269 0.48656 0.86344 0.0
C4955 C 0.14136 0.51286 0.91794 0.0
C4956 C 0.9886 0.49482 0.79313 0.0
C4957 C 1.00742 0.49309 0.81057 0.0
C4958 C 0.06689 0.51862 0.84252 0.0
C4959 C 0.11074 0.49936 0.89006 0.0
C4960 C 0.08961 0.50102 0.87105 0.0
C4961 C 1.02919 0.50592 0.81565 0.0
C4962 C 0.05003 0.50417 0.83484 0.0
H4963 H 0.1479 0.46807 0.91908 0.0
H4964 H 0.11431 0.4705 0.89028 0.0
H4965 H 0.09795 0.52884 0.8642 0.0
H4966 H 1.01361 0.53404 0.77504 0.0
H4967 H 0.04616 0.53104 0.80419 0.0
C4968 C 0.75981 0.47572 0.53524 0.0
C4969 C 0.74045 0.48938 0.52907 0.0
C4970 C 0.77846 0.4773 0.55266 0.0
C4971 C 0.80596 0.51054 0.59457 0.0
H4972 H 0.84038 0.46815 0.61773 0.0
C4973 C 0.89282 0.51587 0.66291 0.0
C4974 C 0.89942 0.50132 0.6759 0.0
C4975 C 0.87312 0.51453 0.64605 0.0
C4976 C 0.83109 0.48035 0.6119 0.0
H4977 H 0.72499 0.51519 0.53875 0.0
H4978 H 0.75681 0.51806 0.56865 0.0
H4979 H 0.80827 0.46584 0.58846 0.0
H4980 H 0.8906 0.47321 0.67923 0.0
H4981 H 0.85642 0.47078 0.65059 0.0
H4982 H 0.82823 0.525 0.61835 0.0
C4983 C 0.75868 0.5061 0.55959 0.0
C4984 C 0.8124 0.47902 0.59441 0.0
C4985 C 0.74006 0.50451 0.54203 0.0
C4986 C 0.88574 0.48507 0.67047 0.0
C4987 C 0.86609 0.48365 0.65346 0.0
C4988 C 0.82464 0.51187 0.61208 0.0
C4989 C 0.77869 0.49253 0.5656 0.0
C4990 C 0.79911 0.49406 0.58496 0.0
C4991 C 0.85905 0.49834 0.64051 0.0
C4992 C 0.83807 0.49683 0.62144 0.0
H4993 H 0.76084 0.46361 0.52631 0.0
H4994 H 0.79301 0.46634 0.55574 0.0
H4995 H 0.79714 0.52277 0.58846 0.0
H4996 H 0.90323 0.52857 0.66575 0.0
H4997 H 0.86967 0.52636 0.63699 0.0
C4998 C 0.07036 0.24355 0.54197 0.0
C4999 C 0.06923 0.25829 0.52844 0.0
C5000 C 0.05168 0.24202 0.5595 0.0
C5001 C 0.9947 0.26862 0.5924 0.0
H5002 H 0.98488 0.22363 0.62011 0.0
C5003 C 0.92096 0.2642 0.66823 0.0
C5004 C 0.91038 0.24774 0.67588 0.0
C5005 C 0.94055 0.26533 0.65118 0.0
C5006 C 0.98677 0.23647 0.61279 0.0
H5007 H 0.04728 0.28345 0.52457 0.0
H5008 H 1.01495 0.28081 0.55387 0.0
H5009 H 1.01592 0.22556 0.59018 0.0
H5010 H 0.91165 0.21961 0.66921 0.0
H5011 H 0.94519 0.22133 0.64035 0.0
H5012 H 0.96503 0.27946 0.61459 0.0
C5013 C 0.03019 0.27011 0.55135 0.0
C5014 C 1.00541 0.23765 0.59521 0.0
C5015 C 0.04897 0.27165 0.53398 0.0
C5016 C 0.9198 0.23258 0.6648 0.0
C5017 C 0.93942 0.23365 0.6478 0.0
C5018 C 0.97603 0.26743 0.6099 0.0
C5019 C 0.03073 0.25525 0.5649 0.0
C5020 C 1.01018 0.2538 0.58426 0.0
C5021 C 0.95048 0.25009 0.64014 0.0
C5022 C 0.97126 0.25133 0.62089 0.0
H5023 H 0.08605 0.2331 0.53913 0.0
H5024 H 0.0542 0.23035 0.56898 0.0
H5025 H 0.997 0.28157 0.58541 0.0
H5026 H 0.91374 0.27644 0.67534 0.0
H5027 H 0.94776 0.27845 0.6467 0.0
C5028 C 0.74327 0.24268 0.2879 0.0
C5029 C 0.74168 0.25836 0.29994 0.0
C5030 C 0.76209 0.24114 0.27042 0.0
C5031 C 0.81891 0.26824 0.23728 0.0
H5032 H 0.82114 0.22525 0.20494 0.0
C5033 C 0.88981 0.26611 0.16071 0.0
C5034 C 0.89939 0.25001 0.15164 0.0
C5035 C 0.8703 0.26666 0.17772 0.0
C5036 C 0.82133 0.2375 0.21361 0.0
H5037 H 0.75886 0.28506 0.3011 0.0
H5038 H 0.79072 0.28269 0.27177 0.0
H5039 H 0.79025 0.22682 0.23499 0.0
H5040 H 0.89594 0.22154 0.15563 0.0
H5041 H 0.86202 0.22227 0.18458 0.0
H5042 H 0.85031 0.2788 0.21616 0.0
C5043 C 0.77812 0.27105 0.27557 0.0
C5044 C 0.80295 0.23849 0.23136 0.0
C5045 C 0.75937 0.27253 0.29293 0.0
C5046 C 0.88852 0.23435 0.16107 0.0
C5047 C 0.86887 0.23485 0.17818 0.0
C5048 C 0.83721 0.26725 0.2196 0.0
C5049 C 0.78035 0.25531 0.26345 0.0
C5050 C 0.80083 0.25396 0.24397 0.0
C5051 C 0.85935 0.25107 0.18741 0.0
C5052 C 0.83912 0.25189 0.20694 0.0
H5053 H 0.72957 0.23149 0.29182 0.0
H5054 H 0.76188 0.22861 0.26236 0.0
H5055 H 0.8194 0.28059 0.24567 0.0
H5056 H 0.89808 0.2786 0.15484 0.0
H5057 H 0.86412 0.27964 0.18333 0.0
C5058 C 0.91497 0.5116 0.16396 0.0
C5059 C 0.90132 0.49598 0.15642 0.0
C5060 C 0.93477 0.51132 0.18104 0.0
C5061 C 0.97305 0.47854 0.21993 0.0
H5062 H 0.99967 0.52192 0.24553 0.0
C5063 C 0.0431 0.47547 0.29701 0.0
C5064 C 0.06207 0.4894 0.30298 0.0
C5065 C 1.02415 0.47677 0.27971 0.0
C5066 C 0.99288 0.50948 0.23874 0.0
H5067 H 0.89711 0.46801 0.16335 0.0
H5068 H 0.93017 0.46733 0.19212 0.0
H5069 H 0.9675 0.52333 0.21597 0.0
H5070 H 0.07624 0.51547 0.29318 0.0
H5071 H 0.04357 0.51792 0.26359 0.0
H5072 H 0.99839 0.46472 0.24263 0.0
C5073 C 0.92721 0.48 0.18464 0.0
C5074 C 0.97386 0.51028 0.22129 0.0
C5075 C 0.90767 0.48033 0.16766 0.0
C5076 C 0.06156 0.50456 0.29003 0.0
C5077 C 0.04251 0.50592 0.27267 0.0
C5078 C 0.99183 0.47776 0.23737 0.0
C5079 C 0.94173 0.49544 0.19211 0.0
C5080 C 0.96303 0.49482 0.21117 0.0
C5081 C 1.02308 0.49203 0.2668 0.0
C5082 C 1.00247 0.49315 0.24754 0.0
H5083 H 0.91009 0.52425 0.15681 0.0
H5084 H 0.94451 0.52381 0.18548 0.0
H5085 H 0.96678 0.46598 0.21328 0.0
H5086 H 0.04267 0.46336 0.30596 0.0
H5087 H 1.00999 0.46561 0.27666 0.0
C5088 C 0.82342 0.99225 0.53698 0.0
C5089 C 0.82368 0.00728 0.55015 0.0
C5090 C 0.80389 0.99078 0.51987 0.0
C5091 C 0.74854 0.01825 0.48676 0.0
H5092 H 0.73092 0.97268 0.46234 0.0
C5093 C 0.67226 0.01448 0.41243 0.0
C5094 C 0.65824 0.99858 0.40619 0.0
C5095 C 0.69256 0.01513 0.42905 0.0
C5096 C 0.73506 0.98569 0.46875 0.0
H5097 H 0.80345 0.03303 0.55361 0.0
H5098 H 0.76971 0.03047 0.52506 0.0
H5099 H 0.7636 0.97438 0.49159 0.0
H5100 H 0.6541 0.97098 0.41506 0.0
H5101 H 0.68898 0.97186 0.44337 0.0
H5102 H 0.71966 0.02957 0.46438 0.0
C5103 C 0.78443 0.01949 0.52763 0.0
C5104 C 0.75461 0.98671 0.48589 0.0
C5105 C 0.80399 0.02097 0.54458 0.0
C5106 C 0.66502 0.98344 0.41828 0.0
C5107 C 0.68535 0.98404 0.43496 0.0
C5108 C 0.72905 0.01723 0.46969 0.0
C5109 C 0.78354 0.00437 0.51452 0.0
C5110 C 0.76214 0.00306 0.49562 0.0
C5111 C 0.69983 -3e-05 0.44113 0.0
C5112 C 0.72147 0.00093 0.45993 0.0
H5113 H 0.83872 0.98158 0.53973 0.0
H5114 H 0.8053 0.9789 0.51062 0.0
H5115 H 0.75307 0.03133 0.49282 0.0
H5116 H 0.6672 0.02675 0.40451 0.0
H5117 H 0.70247 0.02785 0.43233 0.0
C5118 C 0.50367 0.22627 0.54025 0.0
C5119 C 0.48749 0.24087 0.54795 0.0
C5120 C 0.52305 0.22773 0.52321 0.0
C5121 C 0.56028 0.26134 0.48564 0.0
H5122 H 0.57959 0.21847 0.45605 0.0
C5123 C 0.63691 0.26412 0.41031 0.0
C5124 C 0.65054 0.24855 0.4026 0.0
C5125 C 0.61663 0.26368 0.42709 0.0
C5126 C 0.57523 0.2308 0.46394 0.0
H5127 H 0.47872 0.26855 0.5413 0.0
H5128 H 0.51213 0.27125 0.51218 0.0
H5129 H 0.54771 0.21698 0.48534 0.0
H5130 H 0.65386 0.2204 0.40883 0.0
H5131 H 0.61977 0.21947 0.43715 0.0
H5132 H 0.58788 0.27516 0.4641 0.0
C5133 C 0.51075 0.2585 0.51978 0.0
C5134 C 0.55631 0.2299 0.48132 0.0
C5135 C 0.49132 0.25701 0.53695 0.0
C5136 C 0.64328 0.23269 0.4132 0.0
C5137 C 0.62326 0.23222 0.42993 0.0
C5138 C 0.57936 0.26224 0.46823 0.0
C5139 C 0.5273 0.24386 0.51216 0.0
C5140 C 0.5481 0.2451 0.49295 0.0
C5141 C 0.60915 0.24768 0.43771 0.0
C5142 C 0.58774 0.24697 0.45668 0.0
H5143 H 0.50149 0.21344 0.5476 0.0
H5144 H 0.53489 0.21591 0.51883 0.0
H5145 H 0.55552 0.27362 0.49359 0.0
H5146 H 0.64239 0.27687 0.40363 0.0
H5147 H 0.60705 0.27616 0.43177 0.0
C5148 C 0.82184 0.25516 0.79318 0.0
C5149 C 0.82173 0.2401 0.78008 0.0
C5150 C 0.80273 0.25669 0.81048 0.0
C5151 C 0.74878 0.22932 0.84461 0.0
H5152 H 0.73052 0.27519 0.86787 0.0
C5153 C 0.66992 0.23397 0.9179 0.0
C5154 C 0.65966 0.25044 0.92564 0.0
C5155 C 0.68978 0.23282 0.90102 0.0
C5156 C 0.7348 0.26205 0.86192 0.0
H5157 H 0.80123 0.21442 0.77679 0.0
H5158 H 0.76824 0.21705 0.8058 0.0
H5159 H 0.76233 0.27323 0.83843 0.0
H5160 H 0.66184 0.27863 0.91946 0.0
H5161 H 0.69577 0.27693 0.89097 0.0
H5162 H 0.72106 0.21807 0.86765 0.0
C5163 C 0.78297 0.22798 0.80301 0.0
C5164 C 0.75389 0.26091 0.84459 0.0
C5165 C 0.80208 0.22646 0.78584 0.0
C5166 C 0.66963 0.26563 0.91487 0.0
C5167 C 0.68952 0.26454 0.89805 0.0
C5168 C 0.72968 0.23045 0.86188 0.0
C5169 C 0.7825 0.24312 0.81609 0.0
C5170 C 0.76163 0.2445 0.8352 0.0
C5171 C 0.7004 0.24808 0.89029 0.0
C5172 C 0.72177 0.24686 0.87131 0.0
H5173 H 0.83708 0.26583 0.79021 0.0
H5174 H 0.80437 0.26859 0.8197 0.0
H5175 H 0.75366 0.21619 0.83882 0.0
H5176 H 0.6623 0.22175 0.92483 0.0
H5177 H 0.69654 0.21965 0.89647 0.0
C5178 C 0.49781 0.02178 0.79136 0.0
C5179 C 0.48347 0.00689 0.78266 0.0
C5180 C 0.51732 0.02035 0.80833 0.0
C5181 C 0.55751 0.98624 0.84375 0.0
H5182 H 0.57692 0.02848 0.87448 0.0
C5183 C 0.64117 0.98138 0.91424 0.0
C5184 C 0.64777 0.99601 0.92709 0.0
C5185 C 0.62124 0.98256 0.89748 0.0
C5186 C 0.57225 0.01626 0.86646 0.0
H5187 H 0.47767 0.97867 0.78761 0.0
H5188 H 0.51098 0.97603 0.81668 0.0
H5189 H 0.54393 0.03043 0.84588 0.0
H5190 H 0.63916 0.02416 0.93 0.0
H5191 H 0.60485 0.02638 0.90165 0.0
H5192 H 0.58526 0.97196 0.86445 0.0
C5193 C 0.50831 0.98904 0.80989 0.0
C5194 C 0.55283 0.01747 0.84935 0.0
C5195 C 0.48885 0.9905 0.79277 0.0
C5196 C 0.63415 0.01221 0.92144 0.0
C5197 C 0.61424 0.01347 0.90458 0.0
C5198 C 0.5769 0.98502 0.86089 0.0
C5199 C 0.5234 0.00393 0.81834 0.0
C5200 C 0.54469 0.00252 0.83724 0.0
C5201 C 0.60687 0.99867 0.89184 0.0
C5202 C 0.58521 -1e-05 0.873 0.0
H5203 H 0.49425 0.03481 0.78475 0.0
H5204 H 0.52783 0.03242 0.81342 0.0
H5205 H 0.55296 0.97414 0.83542 0.0
H5206 H 0.65157 0.9687 0.91721 0.0
H5207 H 0.61763 0.97054 0.88885 0.0
C5208 C 0.23988 0.00545 0.54448 0.0
C5209 C 0.24113 0.99167 0.5297 0.0
C5210 C 0.25963 0.00658 0.56139 0.0
C5211 C 0.32217 0.98052 0.58972 0.0
H5212 H 0.32358 0.02232 0.62408 0.0
C5213 C 0.3979 0.98172 0.66419 0.0
C5214 C 0.40468 0.9975 0.67505 0.0
C5215 C 0.37815 0.98131 0.64732 0.0
C5216 C 0.32411 0.0104 0.61486 0.0
H5217 H 0.26396 0.96716 0.52349 0.0
H5218 H 0.29828 0.96912 0.5518 0.0
H5219 H 0.29175 0.02128 0.59462 0.0
H5220 H 0.39593 0.02577 0.67451 0.0
H5221 H 0.36197 0.02527 0.6456 0.0
H5222 H 0.35509 0.96985 0.60952 0.0
C5223 C 0.28243 0.97964 0.55046 0.0
C5224 C 0.30502 0.00969 0.59748 0.0
C5225 C 0.26259 0.97855 0.53356 0.0
C5226 C 0.39095 0.01309 0.66749 0.0
C5227 C 0.37118 0.01273 0.65043 0.0
C5228 C 0.34133 0.98127 0.60698 0.0
C5229 C 0.28177 0.99369 0.56518 0.0
C5230 C 0.30312 0.99467 0.58419 0.0
C5231 C 0.36411 0.9968 0.63954 0.0
C5232 C 0.34305 0.99619 0.62039 0.0
H5233 H 0.22308 0.01547 0.54313 0.0
H5234 H 0.25676 0.01762 0.57174 0.0
H5235 H 0.32252 0.96845 0.58079 0.0
H5236 H 0.40819 0.96938 0.66876 0.0
H5237 H 0.37412 0.96849 0.64043 0.0
C5238 C 0.41473 0.73067 0.66384 0.0
C5239 C 0.40844 0.74536 0.67667 0.0
C5240 C 0.43471 0.73167 0.64711 0.0
C5241 C 0.48807 0.76404 0.61805 0.0
H5242 H 0.49397 0.72455 0.58044 0.0
C5243 C 0.56206 0.77023 0.54297 0.0
C5244 C 0.57197 0.75525 0.53178 0.0
C5245 C 0.54234 0.76891 0.5598 0.0
C5246 C 0.49324 0.73585 0.59064 0.0
H5247 H 0.41823 0.77333 0.67993 0.0
H5248 H 0.45215 0.77534 0.65125 0.0
H5249 H 0.46168 0.72266 0.60955 0.0
H5250 H 0.56943 0.7265 0.53207 0.0
H5251 H 0.53555 0.72404 0.56094 0.0
H5252 H 0.51974 0.77718 0.59907 0.0
C5253 C 0.4426 0.76249 0.65431 0.0
C5254 C 0.47407 0.73477 0.60792 0.0
C5255 C 0.4228 0.76138 0.67127 0.0
C5256 C 0.56175 0.73862 0.53921 0.0
C5257 C 0.54204 0.73724 0.55622 0.0
C5258 C 0.50718 0.76512 0.60076 0.0
C5259 C 0.44933 0.74767 0.64143 0.0
C5260 C 0.47062 0.74883 0.62241 0.0
C5261 C 0.53164 0.75237 0.56727 0.0
C5262 C 0.51056 0.75108 0.58631 0.0
H5263 H 0.404 0.71809 0.66678 0.0
H5264 H 0.43835 0.71957 0.63861 0.0
H5265 H 0.48746 0.7754 0.62813 0.0
H5266 H 0.56963 0.78334 0.53859 0.0
H5267 H 0.53554 0.78119 0.56691 0.0
C5268 C 0.38938 0.76475 0.16403 0.0
C5269 C 0.40092 0.74851 0.15659 0.0
C5270 C 0.36973 0.76565 0.18093 0.0
C5271 C 0.32594 0.73661 0.22034 0.0
H5272 H 0.31075 0.7825 0.24476 0.0
C5273 C 0.23996 0.74465 0.28953 0.0
C5274 C 0.24111 0.75953 0.30284 0.0
C5275 C 0.25883 0.74289 0.27214 0.0
C5276 C 0.31455 0.76935 0.23861 0.0
H5277 H 0.40208 0.72047 0.1639 0.0
H5278 H 0.36838 0.72177 0.19288 0.0
H5279 H 0.34325 0.78025 0.21599 0.0
H5280 H 0.26318 0.78468 0.30654 0.0
H5281 H 0.29577 0.78166 0.27739 0.0
H5282 H 0.29763 0.72575 0.24357 0.0
C5283 C 0.37321 0.73409 0.18507 0.0
C5284 C 0.33349 0.76804 0.22133 0.0
C5285 C 0.39283 0.73323 0.168 0.0
C5286 C 0.26148 0.7728 0.29725 0.0
C5287 C 0.28038 0.77105 0.28002 0.0
C5288 C 0.30701 0.73793 0.23774 0.0
C5289 C 0.36092 0.75039 0.19229 0.0
C5290 C 0.33998 0.75164 0.2114 0.0
C5291 C 0.27985 0.75604 0.26672 0.0
C5292 C 0.30056 0.75438 0.24758 0.0
H5293 H 0.39574 0.77707 0.1567 0.0
H5294 H 0.3616 0.77866 0.18497 0.0
H5295 H 0.32926 0.72354 0.21386 0.0
H5296 H 0.22417 0.73428 0.29243 0.0
H5297 H 0.25642 0.73115 0.26276 0.0
C5298 C 0.56883 0.00442 0.28915 0.0
C5299 C 0.56971 0.98905 0.30176 0.0
C5300 C 0.54969 0.0059 0.27184 0.0
C5301 C 0.49547 0.97831 0.2377 0.0
H5302 H 0.47907 0.02399 0.21319 0.0
C5303 C 0.41895 0.98276 0.16325 0.0
C5304 C 0.40643 -0.00097 0.15658 0.0
C5305 C 0.43911 0.98178 0.18 0.0
C5306 C 0.48282 0.01093 0.2196 0.0
H5307 H 0.55107 0.96277 0.30408 0.0
H5308 H 0.51802 0.96528 0.27518 0.0
H5309 H 0.51106 0.0221 0.24265 0.0
H5310 H 0.40485 0.02686 0.16471 0.0
H5311 H 0.4393 0.02541 0.19306 0.0
H5312 H 0.46674 0.96717 0.21512 0.0
C5313 C 0.53192 0.97653 0.27829 0.0
C5314 C 0.50202 0.0098 0.2369 0.0
C5315 C 0.55114 0.97505 0.29543 0.0
C5316 C 0.41452 0.0141 0.16833 0.0
C5317 C 0.43468 0.01317 0.18504 0.0
C5318 C 0.47623 0.97945 0.2205 0.0
C5319 C 0.53032 0.99201 0.26573 0.0
C5320 C 0.50918 0.99342 0.24668 0.0
C5321 C 0.44768 0.99694 0.19171 0.0
C5322 C 0.46908 0.99579 0.21066 0.0
H5323 H 0.58322 0.01542 0.29256 0.0
H5324 H 0.55055 0.01809 0.26311 0.0
H5325 H 0.49965 0.96519 0.24377 0.0
H5326 H 0.41283 0.97054 0.15563 0.0
H5327 H 0.4478 0.96882 0.18369 0.0
C5328 C 0.66517 0.48233 0.9164 0.0
C5329 C 0.65678 0.4979 0.90561 0.0
C5330 C 0.68511 0.48279 0.93333 0.0
C5331 C 0.7237 0.51554 0.97126 0.0
H5332 H 0.7661 0.47367 0.98825 0.0
C5333 C 0.81187 0.52093 1.03814 0.0
C5334 C 0.82201 0.50598 0.04927 0.0
C5335 C 0.79219 0.5195 1.02132 0.0
C5336 C 0.75451 0.48567 0.98415 0.0
H5337 H 0.66195 0.52645 0.9066 0.0
H5338 H 0.69654 0.52734 0.93478 0.0
H5339 H 0.73293 0.47212 0.95926 0.0
H5340 H 0.81948 0.47724 0.04922 0.0
H5341 H 0.78519 0.47462 1.02062 0.0
H5342 H 0.74481 0.5291 0.99609 0.0
C5343 C 0.6883 0.51445 0.9303 0.0
C5344 C 0.73494 0.48475 0.96705 0.0
C5345 C 0.66839 0.51396 0.91351 0.0
C5346 C 0.81201 0.48931 0.04188 0.0
C5347 C 0.79218 0.48783 1.02494 0.0
C5348 C 0.74315 0.51646 0.98831 0.0
C5349 C 0.69743 0.49891 0.94098 0.0
C5350 C 0.71884 0.49969 0.95985 0.0
C5351 C 0.78135 0.50292 1.01404 0.0
C5352 C 0.75953 0.50161 0.99543 0.0
H5353 H 0.65601 0.46965 0.9119 0.0
H5354 H 0.69026 0.4703 0.94069 0.0
H5355 H 0.71202 0.52755 0.96734 0.0
H5356 H 0.81909 0.53409 0.04259 0.0
H5357 H 0.78594 0.53173 1.01384 0.0
C5358 C 0.63952 0.73448 0.91331 0.0
C5359 C 0.64897 0.75101 0.90518 0.0
C5360 C 0.6196 0.73327 0.93014 0.0
C5361 C 0.56815 0.76142 0.96539 0.0
H5362 H 0.56543 0.71819 0.99717 0.0
C5363 C 0.48621 0.7555 1.03736 0.0
C5364 C 0.48609 0.74041 0.0504 0.0
C5365 C 0.50531 0.75697 1.02002 0.0
C5366 C 0.56527 0.7306 0.98888 0.0
H5367 H 0.64511 0.77928 0.91053 0.0
H5368 H 0.6108 0.77738 0.93903 0.0
H5369 H 0.59792 0.72036 0.96836 0.0
H5370 H 0.50585 0.71449 0.05335 0.0
H5371 H 0.53868 0.71693 1.0245 0.0
H5372 H 0.53587 0.77181 0.98601 0.0
C5373 C 0.61792 0.76505 0.93215 0.0
C5374 C 0.58443 0.73179 0.97164 0.0
C5375 C 0.63799 0.76622 0.91543 0.0
C5376 C 0.50535 0.72664 0.04445 0.0
C5377 C 0.52453 0.72811 1.02731 0.0
C5378 C 0.54894 0.76024 0.98266 0.0
C5379 C 0.60805 0.74852 0.9403 0.0
C5380 C 0.5867 0.74724 0.95917 0.0
C5381 C 0.52545 0.74334 1.01429 0.0
C5382 C 0.54664 0.74476 0.9952 0.0
H5383 H 0.64783 0.72228 0.90672 0.0
H5384 H 0.6133 0.72011 0.93512 0.0
H5385 H 0.56802 0.77368 0.95673 0.0
H5386 H 0.47118 0.76625 1.0404 0.0
H5387 H 0.50379 0.769 1.01108 0.0
C5388 C 0.66346 0.72958 0.4157 0.0
C5389 C 0.65394 0.74552 0.42518 0.0
C5390 C 0.68367 0.72929 0.39909 0.0
C5391 C 0.73436 0.7591 0.36487 0.0
H5392 H 0.74184 0.71547 0.33415 0.0
C5393 C 0.82071 0.75335 0.29521 0.0
C5394 C 0.82013 0.73885 0.2813 0.0
C5395 C 0.80112 0.75466 0.3123 0.0
C5396 C 0.7405 0.72804 0.34207 0.0
H5397 H 0.65749 0.77407 0.42183 0.0
H5398 H 0.69219 0.77378 0.39327 0.0
H5399 H 0.70832 0.71706 0.36223 0.0
H5400 H 0.79815 0.71385 0.27635 0.0
H5401 H 0.76434 0.71614 0.30472 0.0
H5402 H 0.76611 0.77019 0.34415 0.0
C5403 C 0.68508 0.7611 0.39926 0.0
C5404 C 0.72081 0.7289 0.359 0.0
C5405 C 0.66489 0.76134 0.4161 0.0
C5406 C 0.79946 0.7255 0.28604 0.0
C5407 C 0.77976 0.72684 0.30291 0.0
C5408 C 0.75405 0.75826 0.34778 0.0
C5409 C 0.69525 0.74501 0.39002 0.0
C5410 C 0.71694 0.7444 0.37122 0.0
C5411 C 0.77969 0.74146 0.31684 0.0
C5412 C 0.758 0.74265 0.33566 0.0
H5413 H 0.65525 0.71699 0.42131 0.0
H5414 H 0.69011 0.71638 0.39347 0.0
H5415 H 0.73317 0.77149 0.37322 0.0
H5416 H 0.83665 0.76377 0.29302 0.0
H5417 H 0.80329 0.76616 0.32208 0.0
C5418 C 0.49237 0.52029 0.29352 0.0
C5419 C 0.48268 0.50526 0.28236 0.0
C5420 C 0.51245 0.51908 0.31014 0.0
C5421 C 0.56258 0.48629 0.34069 0.0
H5422 H 0.56891 0.52631 0.37749 0.0
C5423 C 0.64015 0.48243 0.41493 0.0
C5424 C 0.64865 0.49789 0.42583 0.0
C5425 C 0.61987 0.4829 0.39825 0.0
C5426 C 0.56821 0.51485 0.36753 0.0
H5427 H 0.48578 0.47653 0.28254 0.0
H5428 H 0.52018 0.47426 0.31113 0.0
H5429 H 0.53614 0.52772 0.34874 0.0
H5430 H 0.64347 0.52646 0.42497 0.0
H5431 H 0.60907 0.52748 0.39668 0.0
H5432 H 0.59466 0.4734 0.35968 0.0
C5433 C 0.51333 0.48742 0.30651 0.0
C5434 C 0.54877 0.5157 0.35045 0.0
C5435 C 0.49331 0.48869 0.28967 0.0
C5436 C 0.63669 0.51398 0.4182 0.0
C5437 C 0.61659 0.51452 0.40148 0.0
C5438 C 0.58208 0.48544 0.35783 0.0
C5439 C 0.52367 0.50261 0.31746 0.0
C5440 C 0.54515 0.50148 0.33627 0.0
C5441 C 0.60737 0.499 0.39074 0.0
C5442 C 0.58575 0.49972 0.37195 0.0
H5443 H 0.48445 0.53334 0.28924 0.0
H5444 H 0.51914 0.53143 0.31717 0.0
H5445 H 0.56165 0.47485 0.33069 0.0
H5446 H 0.6495 0.46977 0.41913 0.0
H5447 H 0.61427 0.47036 0.3912 0.0
C5448 C 0.39149 0.51126 0.16589 0.0
C5449 C 0.40236 0.49548 0.1751 0.0
C5450 C 0.37142 0.51097 0.14898 0.0
C5451 C 0.33054 0.47798 0.11146 0.0
H5452 H 0.29887 0.52124 0.08858 0.0
C5453 C 0.25673 0.47474 1.03621 0.0
C5454 C 0.23724 0.4885 1.03057 0.0
C5455 C 0.27618 0.47615 0.05321 0.0
C5456 C 0.30706 0.50881 0.09461 0.0
H5457 H 0.40132 0.46697 0.17121 0.0
H5458 H 0.36716 0.46622 0.14314 0.0
H5459 H 0.3318 0.52267 0.11767 0.0
H5460 H 0.22255 0.51434 0.04083 0.0
H5461 H 0.25584 0.5169 0.07008 0.0
H5462 H 0.30551 0.46411 0.0887 0.0
C5463 C 0.37299 0.47919 0.14886 0.0
C5464 C 0.32669 0.50963 0.11174 0.0
C5465 C 0.39303 0.47953 0.16557 0.0
C5466 C 0.23762 0.50357 0.04369 0.0
C5467 C 0.25708 0.50499 0.06085 0.0
C5468 C 0.31102 0.47717 0.09442 0.0
C5469 C 0.36122 0.49486 0.13973 0.0
C5470 C 0.33937 0.49422 0.12091 0.0
C5471 C 0.27719 0.49131 0.06629 0.0
C5472 C 0.29851 0.49251 0.08521 0.0
H5473 H 0.39877 0.52401 0.17164 0.0
H5474 H 0.36422 0.52367 0.14313 0.0
H5475 H 0.33856 0.46541 0.11705 0.0
H5476 H 0.25727 0.46269 1.02715 0.0
H5477 H 0.2908 0.46514 0.05585 0.0
C5478 C 0.42403 0.26289 0.1699 0.0
C5479 C 0.41025 0.24671 0.17547 0.0
C5480 C 0.44392 0.26412 0.15302 0.0
C5481 C 0.48593 0.23547 0.1123 0.0
H5482 H 0.50245 0.28127 0.08812 0.0
C5483 C 0.57197 0.24245 0.04302 0.0
C5484 C 0.57162 0.25741 1.02978 0.0
C5485 C 0.55296 0.24094 0.06039 0.0
C5486 C 0.49828 0.26816 0.09423 0.0
H5487 H 0.40668 0.21933 0.16577 0.0
H5488 H 0.44069 0.2212 0.13724 0.0
H5489 H 0.46997 0.27923 0.11721 0.0
H5490 H 0.55069 0.28295 1.02626 0.0
H5491 H 0.51784 0.28034 0.05536 0.0
H5492 H 0.51382 0.22437 0.08901 0.0
C5493 C 0.43707 0.23315 0.14606 0.0
C5494 C 0.47938 0.26698 0.11162 0.0
C5495 C 0.41711 0.232 0.1628 0.0
C5496 C 0.55177 0.27098 1.03544 0.0
C5497 C 0.53273 0.26948 0.05267 0.0
C5498 C 0.50485 0.23665 0.09489 0.0
C5499 C 0.45116 0.24929 0.14034 0.0
C5500 C 0.47235 0.2506 0.12137 0.0
C5501 C 0.53255 0.25443 0.06591 0.0
C5502 C 0.51178 0.25304 0.08511 0.0
H5503 H 0.41902 0.27485 0.17843 0.0
H5504 H 0.4536 0.27696 0.15 0.0
H5505 H 0.48229 0.22241 0.11873 0.0
H5506 H 0.58733 0.23183 1.04012 0.0
H5507 H 0.55485 0.22912 0.0697 0.0
C5508 C 0.38659 0.2345 0.6599 0.0
C5509 C 0.40068 0.25005 0.65257 0.0
C5510 C 0.36641 0.23486 0.67674 0.0
C5511 C 0.3296 0.26766 0.71644 0.0
H5512 H 0.2978 0.22444 0.73933 0.0
C5513 C 0.25747 0.27087 0.7924 0.0
C5514 C 0.2376 0.25729 0.79798 0.0
C5515 C 0.27672 0.26938 0.77531 0.0
C5516 C 0.30606 0.23685 0.73331 0.0
H5517 H 0.40498 0.27801 0.65948 0.0
H5518 H 0.37124 0.27886 0.68777 0.0
H5519 H 0.33027 0.22298 0.70998 0.0
H5520 H 0.22194 0.23174 0.78747 0.0
H5521 H 0.25498 0.22902 0.75809 0.0
H5522 H 0.30534 0.28153 0.73961 0.0
C5523 C 0.37423 0.26615 0.68041 0.0
C5524 C 0.32531 0.23602 0.71599 0.0
C5525 C 0.39411 0.26574 0.66364 0.0
C5526 C 0.23741 0.24232 0.78471 0.0
C5527 C 0.25668 0.24082 0.76746 0.0
C5528 C 0.31055 0.26847 0.73372 0.0
C5529 C 0.35948 0.25075 0.68782 0.0
C5530 C 0.33799 0.25142 0.7068 0.0
C5531 C 0.2771 0.25434 0.76206 0.0
C5532 C 0.29801 0.25314 0.74293 0.0
H5533 H 0.39158 0.22183 0.65286 0.0
H5534 H 0.35654 0.22239 0.68109 0.0
H5535 H 0.33743 0.28022 0.71068 0.0
H5536 H 0.25834 0.28288 0.80152 0.0
H5537 H 0.29161 0.28026 0.77271 0.0
C5538 C 0.57202 0.5058 0.78655 0.0
C5539 C 0.57408 0.48998 0.79834 0.0
C5540 C 0.55291 0.50738 0.76921 0.0
C5541 C 0.49985 0.47965 0.73398 0.0
H5542 H 0.48296 0.52556 0.71026 0.0
C5543 C 0.4236 0.48538 0.65919 0.0
C5544 C 0.40999 0.50165 0.6537 0.0
C5545 C 0.44377 0.48403 0.67593 0.0
C5546 C 0.48682 0.51245 0.71648 0.0
H5547 H 0.55762 0.46308 0.79908 0.0
H5548 H 0.52456 0.46575 0.77029 0.0
H5549 H 0.51508 0.52343 0.73957 0.0
H5550 H 0.40696 0.52902 0.66352 0.0
H5551 H 0.44142 0.52694 0.69177 0.0
H5552 H 0.47108 0.46872 0.71118 0.0
C5553 C 0.53748 0.47729 0.77403 0.0
C5554 C 0.50612 0.51117 0.7337 0.0
C5555 C 0.55672 0.47571 0.79113 0.0
C5556 C 0.41723 0.5163 0.66639 0.0
C5557 C 0.43747 0.51502 0.68298 0.0
C5558 C 0.48052 0.48094 0.71682 0.0
C5559 C 0.53468 0.49318 0.76227 0.0
C5560 C 0.51347 0.4947 0.74323 0.0
C5561 C 0.45149 0.49881 0.68856 0.0
C5562 C 0.47312 0.49739 0.70734 0.0
H5563 H 0.58544 0.51708 0.79064 0.0
H5564 H 0.55289 0.51993 0.76116 0.0
H5565 H 0.50411 0.46646 0.7398 0.0
H5566 H 0.41832 0.47346 0.65068 0.0
H5567 H 0.4533 0.47113 0.67885 0.0
loop_
_geom_bond_atom_site_label_1
_geom_bond_atom_site_label_2
_geom_bond_distance
_geom_bond_site_symmetry_2
_ccdc_geom_bond_type
Eu0 N31 2.657 1_545 S
Eu0 N38 2.609 . S
Eu0 O44 2.558 . S
Eu0 O45 2.612 1_545 S
Eu0 O47 2.339 1_545 S
Eu0 O48 2.563 . S
Eu0 O49 2.419 1_545 S
Eu0 O51 2.380 . S
Eu0 O52 2.432 . S
Eu0 C64 2.848 . S
C1 C4 1.429 . S
C1 C5 1.411 . S
C1 N8 1.377 . S
C2 C4 1.420 . S
C2 C6 1.423 . S
C2 C14 1.392 1_565 S
C3 C5 1.420 . S
C3 C6 1.351 . S
C3 H26 0.931 . S
C4 C1 1.429 . S
C4 C2 1.420 . S
C4 N12 1.362 1_565 S
C5 C1 1.411 . S
C5 C3 1.420 . S
C5 C10 1.395 . S
C6 C2 1.423 . S
C6 C3 1.351 . S
C6 H18 0.930 . S
C7 C9 1.400 . S
C7 C10 1.386 . S
C7 H19 0.930 . S
N8 C1 1.377 . S
N8 C9 1.321 . S
N8 Eu11 2.609 . S
C9 C7 1.400 . S
C9 N8 1.321 . S
C9 H16 0.930 . S
C10 C5 1.395 . S
C10 C7 1.386 . S
C10 H29 0.930 . S
Eu11 N8 2.609 . S
Eu11 N12 2.657 1_565 S
Eu11 O45 2.380 . S
Eu11 O46 2.432 . S
Eu11 O50 2.558 . S
Eu11 O51 2.612 1_565 S
Eu11 O53 2.339 1_565 S
Eu11 O54 2.563 . S
Eu11 O55 2.419 1_565 S
Eu11 C75 2.848 . S
N12 C4 1.362 1_545 S
N12 Eu11 2.657 1_545 S
N12 C13 1.334 . S
C13 N12 1.334 . S
C13 C15 1.413 . S
C13 H20 0.929 . S
C14 C2 1.392 1_545 S
C14 C15 1.367 . S
C14 H22 0.930 . S
C15 C13 1.413 . S
C15 C14 1.367 . S
C15 H17 0.930 . S
H16 C9 0.930 . S
H17 C15 0.930 . S
H18 C6 0.930 . S
H19 C7 0.930 . S
H20 C13 0.929 . S
H21 C35 0.930 . S
H22 C14 0.930 . S
H23 C41 0.930 . S
H24 C32 0.929 . S
H25 C39 0.930 . S
H26 C3 0.931 . S
H27 C33 0.930 . S
H28 C66 0.930 . S
H29 C10 0.930 . S
H30 C65 0.931 . S
N31 Eu0 2.657 1_565 S
N31 C32 1.334 . S
N31 C36 1.362 1_565 S
C32 H24 0.929 . S
C32 N31 1.334 . S
C32 C35 1.413 . S
C33 H27 0.930 . S
C33 C34 1.392 1_565 S
C33 C35 1.367 . S
C34 C33 1.392 1_545 S
C34 C36 1.420 . S
C34 C66 1.423 . S
C35 H21 0.930 . S
C35 C32 1.413 . S
C35 C33 1.367 . S
C36 N31 1.362 1_545 S
C36 C34 1.420 . S
C36 C40 1.429 . S
H37 C42 0.930 . S
N38 Eu0 2.609 . S
N38 C40 1.377 . S
N38 C41 1.321 . S
C39 H25 0.930 . S
C39 C41 1.400 . S
C39 C42 1.386 . S
C40 C36 1.429 . S
C40 N38 1.377 . S
C40 C43 1.411 . S
C41 H23 0.930 . S
C41 N38 1.321 . S
C41 C39 1.400 . S
C42 H37 0.930 . S
C42 C39 1.386 . S
C42 C43 1.395 . S
C43 C40 1.411 . S
C43 C42 1.395 . S
C43 C65 1.420 . S
O44 Eu0 2.558 . S
O44 C64 1.257 . S
O45 Eu0 2.612 1_565 S
O45 Eu11 2.380 . S
O45 C56 1.276 1_565 S
O46 Eu11 2.432 . S
O46 C63 1.264 . S
O47 Eu0 2.339 1_565 S
O47 C63 1.254 . S
O48 Eu0 2.563 . S
O48 C56 1.234 . S
O49 Eu0 2.419 1_565 S
O49 C64 1.249 1_565 S
O50 Eu11 2.558 . S
O50 C75 1.257 . S
O51 Eu0 2.380 . S
O51 Eu11 2.612 1_545 S
O51 C67 1.276 . S
O52 Eu0 2.432 . S
O52 C74 1.264 . S
O53 Eu11 2.339 1_545 S
O53 C74 1.254 . S
O54 Eu11 2.563 . S
O54 C67 1.234 1_565 S
O55 Eu11 2.419 1_545 S
O55 C75 1.249 1_545 S
C56 O45 1.276 1_545 S
C56 O48 1.234 . S
C57 C59 1.393 1_545 S
C57 C61 1.395 . S
C57 C64 1.492 1_556 S
C58 C59 1.395 . S
C58 C60 1.342 1_565 S
C59 C57 1.393 1_565 S
C59 C58 1.395 . S
C59 H76 0.930 . S
C60 C58 1.342 1_545 S
C60 C62 1.395 . S
C60 H77 0.930 . S
C61 C57 1.395 . S
C61 C62 1.379 . S
C61 H78 0.930 . S
C62 C60 1.395 . S
C62 C61 1.379 . S
C62 H79 0.930 . S
C63 O46 1.264 . S
C63 O47 1.254 . S
C64 Eu0 2.848 . S
C64 O44 1.257 . S
C64 O49 1.249 1_545 S
C64 C57 1.492 1_554 S
C65 H30 0.931 . S
C65 C43 1.420 . S
C65 C66 1.351 . S
C66 H28 0.930 . S
C66 C34 1.423 . S
C66 C65 1.351 . S
C67 O51 1.276 . S
C67 O54 1.234 1_545 S
C68 C69 1.393 1_565 S
C68 C72 1.395 . S
C68 C75 1.492 . S
C69 C68 1.393 1_545 S
C69 C70 1.392 . S
C69 H80 0.930 . S
C70 C69 1.392 . S
C70 C71 1.386 1_545 S
C71 C70 1.386 1_565 S
C71 C73 1.395 . S
C71 H81 0.930 . S
C72 C68 1.395 . S
C72 C73 1.379 . S
C72 H82 0.930 . S
C73 C71 1.395 . S
C73 C72 1.379 . S
C73 H83 0.930 . S
C74 O52 1.264 . S
C74 O53 1.254 . S
C75 Eu11 2.848 . S
C75 O50 1.257 . S
C75 O55 1.249 1_565 S
C75 C68 1.492 . S
H76 C59 0.930 . S
H77 C60 0.930 . S
H78 C61 0.930 . S
H79 C62 0.930 . S
H80 C69 0.930 . S
H81 C71 0.930 . S
H82 C72 0.930 . S
H83 C73 0.930 . S
Eu84 N115 2.657 . S
Eu84 N122 2.609 . S
Eu84 O128 2.558 . S
Eu84 O129 2.612 . S
Eu84 O131 2.339 . S
Eu84 O132 2.563 . S
Eu84 O133 2.419 . S
Eu84 O135 2.380 . S
Eu84 O136 2.432 . S
Eu84 C148 2.848 . S
C85 C88 1.429 . S
C85 C89 1.411 . S
C85 N92 1.377 1_455 S
C86 C88 1.420 . S
C86 C90 1.423 . S
C86 C98 1.392 . S
C87 C89 1.420 . S
C87 C90 1.351 . S
C87 H110 0.931 . S
C88 C85 1.429 . S
C88 C86 1.420 . S
C88 N96 1.362 1_455 S
C89 C85 1.411 . S
C89 C87 1.420 . S
C89 C94 1.395 . S
C90 C86 1.423 . S
C90 C87 1.351 . S
C90 H102 0.930 . S
C91 C93 1.400 1_455 S
C91 C94 1.386 . S
C91 H103 0.930 1_455 S
N92 C85 1.377 1_655 S
N92 C93 1.321 . S
N92 Eu95 2.609 . S
C93 C91 1.400 1_655 S
C93 N92 1.321 . S
C93 H100 0.930 . S
C94 C89 1.395 . S
C94 C91 1.386 . S
C94 H113 0.930 . S
Eu95 N92 2.609 . S
Eu95 N96 2.657 . S
Eu95 O129 2.380 . S
Eu95 O130 2.432 . S
Eu95 O134 2.558 . S
Eu95 O135 2.612 . S
Eu95 O137 2.339 . S
Eu95 O138 2.563 . S
Eu95 O139 2.419 . S
Eu95 C159 2.848 . S
N96 C88 1.362 1_655 S
N96 Eu95 2.657 . S
N96 C97 1.334 1_655 S
C97 N96 1.334 1_455 S
C97 C99 1.413 . S
C97 H104 0.929 1_455 S
C98 C86 1.392 . S
C98 C99 1.367 . S
C98 H106 0.930 . S
C99 C97 1.413 . S
C99 C98 1.367 . S
C99 H101 0.930 . S
H100 C93 0.930 . S
H101 C99 0.930 . S
H102 C90 0.930 . S
H103 C91 0.930 1_655 S
H104 C97 0.929 1_655 S
H105 C119 0.930 . S
H106 C98 0.930 . S
H107 C125 0.930 . S
H108 C116 0.929 . S
H109 C123 0.930 . S
H110 C87 0.931 . S
H111 C117 0.930 . S
H112 C150 0.930 . S
H113 C94 0.930 . S
H114 C149 0.931 . S
N115 Eu84 2.657 . S
N115 C116 1.334 . S
N115 C120 1.362 . S
C116 H108 0.929 . S
C116 N115 1.334 . S
C116 C119 1.413 . S
C117 H111 0.930 . S
C117 C118 1.392 . S
C117 C119 1.367 . S
C118 C117 1.392 . S
C118 C120 1.420 . S
C118 C150 1.423 . S
C119 H105 0.930 . S
C119 C116 1.413 . S
C119 C117 1.367 . S
C120 N115 1.362 . S
C120 C118 1.420 . S
C120 C124 1.429 . S
H121 C126 0.930 . S
N122 Eu84 2.609 . S
N122 C124 1.377 . S
N122 C125 1.321 . S
C123 H109 0.930 . S
C123 C125 1.400 . S
C123 C126 1.386 . S
C124 C120 1.429 . S
C124 N122 1.377 . S
C124 C127 1.411 . S
C125 H107 0.930 . S
C125 N122 1.321 . S
C125 C123 1.400 . S
C126 H121 0.930 . S
C126 C123 1.386 . S
C126 C127 1.395 . S
C127 C124 1.411 . S
C127 C126 1.395 . S
C127 C149 1.420 . S
O128 Eu84 2.558 . S
O128 C148 1.257 . S
O129 Eu84 2.612 . S
O129 Eu95 2.380 . S
O129 C140 1.276 . S
O130 Eu95 2.432 . S
O130 C147 1.264 . S
O131 Eu84 2.339 . S
O131 C147 1.254 . S
O132 Eu84 2.563 . S
O132 C140 1.235 . S
O133 Eu84 2.419 . S
O133 C148 1.249 . S
O134 Eu95 2.558 . S
O134 C159 1.257 . S
O135 Eu84 2.380 . S
O135 Eu95 2.612 . S
O135 C151 1.276 . S
O136 Eu84 2.432 . S
O136 C158 1.264 . S
O137 Eu95 2.339 . S
O137 C158 1.254 . S
O138 Eu95 2.563 . S
O138 C151 1.235 . S
O139 Eu95 2.419 . S
O139 C159 1.249 . S
C140 O129 1.276 . S
C140 O132 1.235 . S
C141 C143 1.393 . S
C141 C145 1.395 . S
C141 C148 1.492 1_556 S
C142 C143 1.392 . S
C142 C144 1.386 . S
C143 C141 1.393 . S
C143 C142 1.392 . S
C143 H160 0.930 . S
C144 C142 1.386 . S
C144 C146 1.395 . S
C144 H161 0.930 . S
C145 C141 1.395 . S
C145 C146 1.379 . S
C145 H162 0.930 . S
C146 C144 1.395 . S
C146 C145 1.379 . S
C146 H163 0.930 . S
C147 O130 1.264 . S
C147 O131 1.254 . S
C148 Eu84 2.848 . S
C148 O128 1.257 . S
C148 O133 1.249 . S
C148 C141 1.492 1_554 S
C149 H114 0.931 . S
C149 C127 1.420 . S
C149 C150 1.351 . S
C150 H112 0.930 . S
C150 C118 1.423 . S
C150 C149 1.351 . S
C151 O135 1.276 . S
C151 O138 1.235 . S
C152 C153 1.393 . S
C152 C156 1.395 . S
C152 C159 1.492 . S
C153 C152 1.393 . S
C153 C154 1.392 . S
C153 H164 0.930 . S
C154 C153 1.392 . S
C154 C155 1.386 . S
C155 C154 1.386 . S
C155 C157 1.395 . S
C155 H165 0.929 . S
C156 C152 1.395 . S
C156 C157 1.379 . S
C156 H166 0.930 . S
C157 C155 1.395 . S
C157 C156 1.379 . S
C157 H167 0.930 1_655 S
C158 O136 1.264 . S
C158 O137 1.254 . S
C159 Eu95 2.848 . S
C159 O134 1.257 . S
C159 O139 1.249 . S
C159 C152 1.492 . S
H160 C143 0.930 . S
H161 C144 0.930 . S
H162 C145 0.930 . S
H163 C146 0.930 . S
H164 C153 0.930 . S
H165 C155 0.929 . S
H166 C156 0.930 . S
H167 C157 0.930 1_455 S
Eu168 N199 2.657 . S
Eu168 N206 2.609 . S
Eu168 O212 2.558 . S
Eu168 O213 2.612 . S
Eu168 O215 2.339 . S
Eu168 O216 2.563 . S
Eu168 O217 2.419 . S
Eu168 O219 2.380 . S
Eu168 O220 2.432 . S
Eu168 C232 2.848 . S
C169 C172 1.429 . S
C169 C173 1.411 . S
C169 N176 1.377 . S
C170 C172 1.420 . S
C170 C174 1.423 . S
C170 C182 1.392 . S
C171 C173 1.420 . S
C171 C174 1.351 . S
C171 H194 0.931 . S
C172 C169 1.429 . S
C172 C170 1.420 . S
C172 N180 1.362 . S
C173 C169 1.411 . S
C173 C171 1.420 . S
C173 C178 1.395 . S
C174 C170 1.423 . S
C174 C171 1.351 . S
C174 H186 0.930 . S
C175 C177 1.400 . S
C175 C178 1.386 . S
C175 H187 0.930 . S
N176 C169 1.377 . S
N176 C177 1.321 . S
N176 Eu179 2.609 . S
C177 C175 1.400 . S
C177 N176 1.321 . S
C177 H184 0.930 . S
C178 C173 1.395 . S
C178 C175 1.386 . S
C178 H197 0.930 . S
Eu179 N176 2.609 . S
Eu179 N180 2.657 . S
Eu179 O213 2.380 . S
Eu179 O214 2.432 . S
Eu179 O218 2.558 . S
Eu179 O219 2.612 . S
Eu179 O221 2.339 . S
Eu179 O222 2.563 . S
Eu179 O223 2.419 . S
Eu179 C243 2.848 . S
N180 C172 1.362 . S
N180 Eu179 2.657 . S
N180 C181 1.334 . S
C181 N180 1.334 . S
C181 C183 1.413 . S
C181 H188 0.929 . S
C182 C170 1.392 . S
C182 C183 1.367 . S
C182 H190 0.930 . S
C183 C181 1.413 . S
C183 C182 1.367 . S
C183 H185 0.930 . S
H184 C177 0.930 . S
H185 C183 0.930 . S
H186 C174 0.930 . S
H187 C175 0.930 . S
H188 C181 0.929 . S
H189 C203 0.930 . S
H190 C182 0.930 . S
H191 C209 0.930 . S
H192 C200 0.929 . S
H193 C207 0.930 . S
H194 C171 0.931 . S
H195 C201 0.930 . S
H196 C234 0.930 . S
H197 C178 0.930 . S
H198 C233 0.931 . S
N199 Eu168 2.657 . S
N199 C200 1.334 . S
N199 C204 1.362 . S
C200 H192 0.929 . S
C200 N199 1.334 . S
C200 C203 1.413 . S
C201 H195 0.930 . S
C201 C202 1.392 . S
C201 C203 1.367 . S
C202 C201 1.392 . S
C202 C204 1.420 . S
C202 C234 1.423 . S
C203 H189 0.930 . S
C203 C200 1.413 . S
C203 C201 1.367 . S
C204 N199 1.362 . S
C204 C202 1.420 . S
C204 C208 1.429 . S
H205 C210 0.930 . S
N206 Eu168 2.609 . S
N206 C208 1.377 . S
N206 C209 1.321 . S
C207 H193 0.930 . S
C207 C209 1.400 . S
C207 C210 1.386 . S
C208 C204 1.429 . S
C208 N206 1.377 . S
C208 C211 1.411 . S
C209 H191 0.930 . S
C209 N206 1.321 . S
C209 C207 1.400 . S
C210 H205 0.930 . S
C210 C207 1.386 . S
C210 C211 1.395 . S
C211 C208 1.411 . S
C211 C210 1.395 . S
C211 C233 1.420 . S
O212 Eu168 2.558 . S
O212 C232 1.257 . S
O213 Eu168 2.612 . S
O213 Eu179 2.380 . S
O213 C224 1.276 . S
O214 Eu179 2.432 . S
O214 C231 1.264 . S
O215 Eu168 2.339 . S
O215 C231 1.254 . S
O216 Eu168 2.563 . S
O216 C224 1.235 . S
O217 Eu168 2.419 . S
O217 C232 1.249 . S
O218 Eu179 2.558 . S
O218 C243 1.257 . S
O219 Eu168 2.380 . S
O219 Eu179 2.612 . S
O219 C235 1.276 . S
O220 Eu168 2.432 . S
O220 C242 1.264 . S
O221 Eu179 2.339 . S
O221 C242 1.254 . S
O222 Eu179 2.563 . S
O222 C235 1.235 . S
O223 Eu179 2.419 . S
O223 C243 1.249 . S
C224 O213 1.276 . S
C224 O216 1.235 . S
C225 C227 1.393 . S
C225 C229 1.395 . S
C225 C232 1.492 . S
C226 C227 1.392 . S
C226 C228 1.386 . S
C227 C225 1.393 . S
C227 C226 1.392 . S
C227 H244 0.930 . S
C228 C226 1.386 . S
C228 C230 1.395 . S
C228 H245 0.930 . S
C229 C225 1.395 . S
C229 C230 1.379 . S
C229 H246 0.930 . S
C230 C228 1.395 . S
C230 C229 1.379 . S
C230 H247 0.930 . S
C231 O214 1.264 . S
C231 O215 1.254 . S
C232 Eu168 2.848 . S
C232 O212 1.257 . S
C232 O217 1.249 . S
C232 C225 1.492 . S
C233 H198 0.931 . S
C233 C211 1.420 . S
C233 C234 1.351 . S
C234 H196 0.930 . S
C234 C202 1.423 . S
C234 C233 1.351 . S
C235 O219 1.276 . S
C235 O222 1.235 . S
C236 C237 1.393 . S
C236 C240 1.395 . S
C236 C243 1.492 . S
C237 C236 1.393 . S
C237 C238 1.392 . S
C237 H248 0.930 . S
C238 C237 1.392 . S
C238 C239 1.386 . S
C239 C238 1.386 . S
C239 C241 1.395 . S
C239 H249 0.930 . S
C240 C236 1.395 . S
C240 C241 1.379 . S
C240 H250 0.930 . S
C241 C239 1.395 . S
C241 C240 1.379 . S
C241 H251 0.930 . S
C242 O220 1.264 . S
C242 O221 1.254 . S
C243 Eu179 2.848 . S
C243 O218 1.257 . S
C243 O223 1.249 . S
C243 C236 1.492 . S
H244 C227 0.930 . S
H245 C228 0.930 . S
H246 C229 0.930 . S
H247 C230 0.930 . S
H248 C237 0.930 . S
H249 C239 0.930 . S
H250 C240 0.930 . S
H251 C241 0.930 . S
Eu252 N283 2.657 1_545 S
Eu252 N290 2.609 . S
Eu252 O296 2.558 . S
Eu252 O297 2.612 1_545 S
Eu252 O299 2.339 1_545 S
Eu252 O300 2.563 . S
Eu252 O301 2.419 1_545 S
Eu252 O303 2.380 . S
Eu252 O304 2.432 . S
Eu252 C316 2.848 . S
C253 C256 1.429 . S
C253 C257 1.411 . S
C253 N260 1.377 1_455 S
C254 C256 1.420 . S
C254 C258 1.423 . S
C254 C266 1.392 1_565 S
C255 C257 1.420 . S
C255 C258 1.351 . S
C255 H278 0.931 . S
C256 C253 1.429 . S
C256 C254 1.420 . S
C256 N264 1.362 1_465 S
C257 C253 1.411 . S
C257 C255 1.420 . S
C257 C262 1.395 . S
C258 C254 1.423 . S
C258 C255 1.351 . S
C258 H270 0.930 . S
C259 C261 1.400 1_455 S
C259 C262 1.386 . S
C259 H271 0.930 1_455 S
N260 C253 1.377 1_655 S
N260 C261 1.321 . S
N260 Eu263 2.609 . S
C261 C259 1.400 1_655 S
C261 N260 1.321 . S
C261 H268 0.930 . S
C262 C257 1.395 . S
C262 C259 1.386 . S
C262 H281 0.930 . S
Eu263 N260 2.609 . S
Eu263 N264 2.657 1_565 S
Eu263 O297 2.380 . S
Eu263 O298 2.432 . S
Eu263 O302 2.558 . S
Eu263 O303 2.612 1_565 S
Eu263 O305 2.339 1_565 S
Eu263 O306 2.563 . S
Eu263 O307 2.419 1_565 S
Eu263 C327 2.848 . S
N264 C256 1.362 1_645 S
N264 Eu263 2.657 1_545 S
N264 C265 1.334 1_655 S
C265 N264 1.334 1_455 S
C265 C267 1.411 . S
C265 H272 0.931 1_455 S
C266 C254 1.392 1_545 S
C266 C267 1.367 . S
C266 H274 0.930 . S
C267 C265 1.411 . S
C267 C266 1.367 . S
C267 H269 0.930 . S
H268 C261 0.930 . S
H269 C267 0.930 . S
H270 C258 0.930 . S
H271 C259 0.930 1_655 S
H272 C265 0.931 1_655 S
H273 C287 0.930 . S
H274 C266 0.930 . S
H275 C293 0.930 . S
H276 C284 0.929 . S
H277 C291 0.930 . S
H278 C255 0.931 . S
H279 C285 0.930 . S
H280 C318 0.930 . S
H281 C262 0.930 . S
H282 C317 0.931 . S
N283 Eu252 2.657 1_565 S
N283 C284 1.334 . S
N283 C288 1.362 1_565 S
C284 H276 0.929 . S
C284 N283 1.334 . S
C284 C287 1.413 . S
C285 H279 0.930 . S
C285 C286 1.392 1_565 S
C285 C287 1.367 . S
C286 C285 1.392 1_545 S
C286 C288 1.420 . S
C286 C318 1.423 . S
C287 H273 0.930 . S
C287 C284 1.413 . S
C287 C285 1.367 . S
C288 N283 1.362 1_545 S
C288 C286 1.420 . S
C288 C292 1.429 . S
H289 C294 0.930 . S
N290 Eu252 2.609 . S
N290 C292 1.377 . S
N290 C293 1.321 . S
C291 H277 0.930 . S
C291 C293 1.400 . S
C291 C294 1.386 . S
C292 C288 1.429 . S
C292 N290 1.377 . S
C292 C295 1.411 . S
C293 H275 0.930 . S
C293 N290 1.321 . S
C293 C291 1.400 . S
C294 H289 0.930 . S
C294 C291 1.386 . S
C294 C295 1.395 . S
C295 C292 1.411 . S
C295 C294 1.395 . S
C295 C317 1.420 . S
O296 Eu252 2.558 . S
O296 C316 1.257 . S
O297 Eu252 2.612 1_565 S
O297 Eu263 2.380 . S
O297 C308 1.276 1_565 S
O298 Eu263 2.432 . S
O298 C315 1.264 . S
O299 Eu252 2.339 1_565 S
O299 C315 1.254 . S
O300 Eu252 2.563 . S
O300 C308 1.234 . S
O301 Eu252 2.419 1_565 S
O301 C316 1.249 1_565 S
O302 Eu263 2.558 . S
O302 C327 1.257 . S
O303 Eu252 2.380 . S
O303 Eu263 2.612 1_545 S
O303 C319 1.276 . S
O304 Eu252 2.432 . S
O304 C326 1.264 . S
O305 Eu263 2.339 1_545 S
O305 C326 1.254 . S
O306 Eu263 2.563 . S
O306 C319 1.234 1_565 S
O307 Eu263 2.419 1_545 S
O307 C327 1.249 1_545 S
C308 O297 1.276 1_545 S
C308 O300 1.234 . S
C309 C311 1.393 1_545 S
C309 C313 1.395 . S
C309 C316 1.492 . S
C310 C311 1.395 . S
C310 C312 1.342 1_565 S
C311 C309 1.393 1_565 S
C311 C310 1.395 . S
C311 H328 0.930 . S
C312 C310 1.342 1_545 S
C312 C314 1.395 . S
C312 H329 0.930 . S
C313 C309 1.395 . S
C313 C314 1.379 . S
C313 H330 0.930 . S
C314 C312 1.395 . S
C314 C313 1.379 . S
C314 H331 0.930 . S
C315 O298 1.264 . S
C315 O299 1.254 . S
C316 Eu252 2.848 . S
C316 O296 1.257 . S
C316 O301 1.249 1_545 S
C316 C309 1.492 . S
C317 H282 0.931 . S
C317 C295 1.420 . S
C317 C318 1.351 . S
C318 H280 0.930 . S
C318 C286 1.423 . S
C318 C317 1.351 . S
C319 O303 1.276 . S
C319 O306 1.234 1_545 S
C320 C321 1.393 1_565 S
C320 C324 1.395 . S
C320 C327 1.492 . S
C321 C320 1.393 1_545 S
C321 C322 1.392 . S
C321 H332 0.930 . S
C322 C321 1.392 . S
C322 C323 1.386 1_545 S
C323 C322 1.386 1_565 S
C323 C325 1.395 . S
C323 H333 0.930 . S
C324 C320 1.395 . S
C324 C325 1.379 . S
C324 H334 0.930 . S
C325 C323 1.395 . S
C325 C324 1.379 . S
C325 H335 0.930 1_655 S
C326 O304 1.264 . S
C326 O305 1.254 . S
C327 Eu263 2.848 . S
C327 O302 1.257 . S
C327 O307 1.249 1_565 S
C327 C320 1.492 . S
H328 C311 0.930 . S
H329 C312 0.930 . S
H330 C313 0.930 . S
H331 C314 0.930 . S
H332 C321 0.930 . S
H333 C323 0.930 . S
H334 C324 0.930 . S
H335 C325 0.930 1_455 S
Eu336 N367 2.657 1_545 S
Eu336 N374 2.609 . S
Eu336 O380 2.558 . S
Eu336 O381 2.612 1_545 S
Eu336 O383 2.339 1_545 S
Eu336 O384 2.563 . S
Eu336 O385 2.419 1_545 S
Eu336 O387 2.380 . S
Eu336 O388 2.432 . S
Eu336 C400 2.848 . S
C337 C340 1.429 . S
C337 C341 1.411 . S
C337 N344 1.377 . S
C338 C340 1.420 . S
C338 C342 1.423 . S
C338 C350 1.392 1_565 S
C339 C341 1.420 . S
C339 C342 1.351 . S
C339 H362 0.931 . S
C340 C337 1.429 . S
C340 C338 1.420 . S
C340 N348 1.362 1_565 S
C341 C337 1.411 . S
C341 C339 1.420 . S
C341 C346 1.395 . S
C342 C338 1.423 . S
C342 C339 1.351 . S
C342 H354 0.930 . S
C343 C345 1.400 . S
C343 C346 1.386 . S
C343 H355 0.930 . S
N344 C337 1.377 . S
N344 C345 1.321 . S
N344 Eu347 2.609 . S
C345 C343 1.400 . S
C345 N344 1.321 . S
C345 H352 0.930 . S
C346 C341 1.395 . S
C346 C343 1.386 . S
C346 H365 0.930 . S
Eu347 N344 2.609 . S
Eu347 N348 2.657 1_565 S
Eu347 O381 2.380 . S
Eu347 O382 2.432 . S
Eu347 O386 2.558 . S
Eu347 O387 2.612 1_565 S
Eu347 O389 2.339 1_565 S
Eu347 O390 2.563 . S
Eu347 O391 2.419 1_565 S
Eu347 C411 2.848 . S
N348 C340 1.362 1_545 S
N348 Eu347 2.657 1_545 S
N348 C349 1.334 . S
C349 N348 1.334 . S
C349 C351 1.413 . S
C349 H356 0.929 . S
C350 C338 1.392 1_545 S
C350 C351 1.367 . S
C350 H358 0.930 . S
C351 C349 1.413 . S
C351 C350 1.367 . S
C351 H353 0.930 . S
H352 C345 0.930 . S
H353 C351 0.930 . S
H354 C342 0.930 . S
H355 C343 0.930 . S
H356 C349 0.929 . S
H357 C371 0.930 . S
H358 C350 0.930 . S
H359 C377 0.930 . S
H360 C368 0.929 . S
H361 C375 0.930 . S
H362 C339 0.931 . S
H363 C369 0.930 . S
H364 C402 0.930 . S
H365 C346 0.930 . S
H366 C401 0.931 . S
N367 Eu336 2.657 1_565 S
N367 C368 1.334 . S
N367 C372 1.362 1_565 S
C368 H360 0.929 . S
C368 N367 1.334 . S
C368 C371 1.413 . S
C369 H363 0.930 . S
C369 C370 1.392 1_565 S
C369 C371 1.367 . S
C370 C369 1.392 1_545 S
C370 C372 1.420 . S
C370 C402 1.423 . S
C371 H357 0.930 . S
C371 C368 1.413 . S
C371 C369 1.367 . S
C372 N367 1.362 1_545 S
C372 C370 1.420 . S
C372 C376 1.429 . S
H373 C378 0.930 . S
N374 Eu336 2.609 . S
N374 C376 1.377 . S
N374 C377 1.321 . S
C375 H361 0.930 . S
C375 C377 1.400 . S
C375 C378 1.386 . S
C376 C372 1.429 . S
C376 N374 1.377 . S
C376 C379 1.411 . S
C377 H359 0.930 . S
C377 N374 1.321 . S
C377 C375 1.400 . S
C378 H373 0.930 . S
C378 C375 1.386 . S
C378 C379 1.395 . S
C379 C376 1.411 . S
C379 C378 1.395 . S
C379 C401 1.420 . S
O380 Eu336 2.558 . S
O380 C400 1.257 . S
O381 Eu336 2.612 1_565 S
O381 Eu347 2.380 . S
O381 C392 1.276 . S
O382 Eu347 2.432 . S
O382 C399 1.264 . S
O383 Eu336 2.339 1_565 S
O383 C399 1.254 . S
O384 Eu336 2.563 . S
O384 C392 1.234 1_545 S
O385 Eu336 2.419 1_565 S
O385 C400 1.249 1_565 S
O386 Eu347 2.558 . S
O386 C411 1.257 . S
O387 Eu336 2.380 . S
O387 Eu347 2.612 1_545 S
O387 C403 1.276 1_545 S
O388 Eu336 2.432 . S
O388 C410 1.264 . S
O389 Eu347 2.339 1_545 S
O389 C410 1.254 . S
O390 Eu347 2.563 . S
O390 C403 1.234 . S
O391 Eu347 2.419 1_545 S
O391 C411 1.249 1_545 S
C392 O381 1.276 . S
C392 O384 1.234 1_565 S
C393 C395 1.393 1_545 S
C393 C397 1.395 . S
C393 C400 1.492 . S
C394 C395 1.392 . S
C394 C396 1.386 1_565 S
C395 C393 1.393 1_565 S
C395 C394 1.392 . S
C395 H412 0.930 . S
C396 C394 1.386 1_545 S
C396 C398 1.395 . S
C396 H413 0.930 . S
C397 C393 1.395 . S
C397 C398 1.379 . S
C397 H414 0.930 . S
C398 C396 1.395 . S
C398 C397 1.379 . S
C398 H415 0.930 . S
C399 O382 1.264 . S
C399 O383 1.254 . S
C400 Eu336 2.848 . S
C400 O380 1.257 . S
C400 O385 1.249 1_545 S
C400 C393 1.492 . S
C401 H366 0.931 . S
C401 C379 1.420 . S
C401 C402 1.351 . S
C402 H364 0.930 . S
C402 C370 1.423 . S
C402 C401 1.351 . S
C403 O387 1.276 1_565 S
C403 O390 1.234 . S
C404 C405 1.393 1_565 S
C404 C408 1.395 . S
C404 C411 1.492 1_554 S
C405 C404 1.393 1_545 S
C405 C406 1.395 . S
C405 H416 0.930 . S
C406 C405 1.395 . S
C406 C407 1.342 1_545 S
C407 C406 1.342 1_565 S
C407 C409 1.395 . S
C407 H417 0.930 . S
C408 C404 1.395 . S
C408 C409 1.379 . S
C408 H418 0.930 . S
C409 C407 1.395 . S
C409 C408 1.379 . S
C409 H419 0.930 . S
C410 O388 1.264 . S
C410 O389 1.254 . S
C411 Eu347 2.848 . S
C411 O386 1.257 . S
C411 O391 1.249 1_565 S
C411 C404 1.492 1_556 S
H412 C395 0.930 . S
H413 C396 0.930 . S
H414 C397 0.930 . S
H415 C398 0.930 . S
H416 C405 0.930 . S
H417 C407 0.930 . S
H418 C408 0.930 . S
H419 C409 0.930 . S
Eu420 N451 2.657 . S
Eu420 N458 2.609 . S
Eu420 O464 2.558 . S
Eu420 O465 2.612 . S
Eu420 O467 2.339 . S
Eu420 O468 2.563 . S
Eu420 O469 2.419 . S
Eu420 O471 2.380 . S
Eu420 O472 2.432 . S
Eu420 C484 2.848 . S
C421 C424 1.429 . S
C421 C425 1.411 . S
C421 N428 1.377 . S
C422 C424 1.420 . S
C422 C426 1.423 . S
C422 C434 1.392 . S
C423 C425 1.420 . S
C423 C426 1.351 . S
C423 H446 0.931 . S
C424 C421 1.429 . S
C424 C422 1.420 . S
C424 N432 1.362 . S
C425 C421 1.411 . S
C425 C423 1.420 . S
C425 C430 1.395 . S
C426 C422 1.423 . S
C426 C423 1.351 . S
C426 H438 0.930 . S
C427 C429 1.400 . S
C427 C430 1.386 . S
C427 H439 0.930 . S
N428 C421 1.377 . S
N428 C429 1.321 . S
N428 Eu431 2.609 . S
C429 C427 1.400 . S
C429 N428 1.321 . S
C429 H436 0.930 . S
C430 C425 1.395 . S
C430 C427 1.386 . S
C430 H449 0.930 . S
Eu431 N428 2.609 . S
Eu431 N432 2.657 . S
Eu431 O465 2.380 . S
Eu431 O466 2.432 . S
Eu431 O470 2.558 . S
Eu431 O471 2.612 . S
Eu431 O473 2.339 . S
Eu431 O474 2.563 . S
Eu431 O475 2.419 . S
Eu431 C495 2.848 . S
N432 C424 1.362 . S
N432 Eu431 2.657 . S
N432 C433 1.334 . S
C433 N432 1.334 . S
C433 C435 1.413 . S
C433 H440 0.929 . S
C434 C422 1.392 . S
C434 C435 1.367 . S
C434 H442 0.930 . S
C435 C433 1.413 . S
C435 C434 1.367 . S
C435 H437 0.930 . S
H436 C429 0.930 . S
H437 C435 0.930 . S
H438 C426 0.930 . S
H439 C427 0.930 . S
H440 C433 0.929 . S
H441 C455 0.930 . S
H442 C434 0.930 . S
H443 C461 0.930 . S
H444 C452 0.929 1_455 S
H445 C459 0.930 1_455 S
H446 C423 0.931 . S
H447 C453 0.930 . S
H448 C486 0.930 . S
H449 C430 0.930 . S
H450 C485 0.931 . S
N451 Eu420 2.657 . S
N451 C452 1.334 1_455 S
N451 C456 1.362 1_455 S
C452 H444 0.929 1_655 S
C452 N451 1.334 1_655 S
C452 C455 1.413 . S
C453 H447 0.930 . S
C453 C454 1.392 . S
C453 C455 1.367 . S
C454 C453 1.392 . S
C454 C456 1.420 . S
C454 C486 1.423 . S
C455 H441 0.930 . S
C455 C452 1.413 . S
C455 C453 1.367 . S
C456 N451 1.362 1_655 S
C456 C454 1.420 . S
C456 C460 1.429 . S
H457 C462 0.930 . S
N458 Eu420 2.609 . S
N458 C460 1.377 1_455 S
N458 C461 1.321 . S
C459 H445 0.930 1_655 S
C459 C461 1.400 1_655 S
C459 C462 1.386 . S
C460 C456 1.429 . S
C460 N458 1.377 1_655 S
C460 C463 1.411 . S
C461 H443 0.930 . S
C461 N458 1.321 . S
C461 C459 1.400 1_455 S
C462 H457 0.930 . S
C462 C459 1.386 . S
C462 C463 1.395 . S
C463 C460 1.411 . S
C463 C462 1.395 . S
C463 C485 1.420 . S
O464 Eu420 2.558 . S
O464 C484 1.257 . S
O465 Eu420 2.612 . S
O465 Eu431 2.380 . S
O465 C476 1.276 . S
O466 Eu431 2.432 . S
O466 C483 1.264 . S
O467 Eu420 2.339 . S
O467 C483 1.254 . S
O468 Eu420 2.563 . S
O468 C476 1.235 . S
O469 Eu420 2.419 . S
O469 C484 1.249 . S
O470 Eu431 2.558 . S
O470 C495 1.257 . S
O471 Eu420 2.380 . S
O471 Eu431 2.612 . S
O471 C487 1.276 . S
O472 Eu420 2.432 . S
O472 C494 1.264 . S
O473 Eu431 2.339 . S
O473 C494 1.254 . S
O474 Eu431 2.563 . S
O474 C487 1.235 . S
O475 Eu431 2.419 . S
O475 C495 1.249 . S
C476 O465 1.276 . S
C476 O468 1.235 . S
C477 C479 1.393 . S
C477 C481 1.395 . S
C477 C484 1.492 . S
C478 C479 1.392 . S
C478 C480 1.386 . S
C479 C477 1.393 . S
C479 C478 1.392 . S
C479 H496 0.930 . S
C480 C478 1.386 . S
C480 C482 1.395 . S
C480 H497 0.929 . S
C481 C477 1.395 . S
C481 C482 1.379 . S
C481 H498 0.930 . S
C482 C480 1.395 . S
C482 C481 1.379 . S
C482 H499 0.930 1_455 S
C483 O466 1.264 . S
C483 O467 1.254 . S
C484 Eu420 2.848 . S
C484 O464 1.257 . S
C484 O469 1.249 . S
C484 C477 1.492 . S
C485 H450 0.931 . S
C485 C463 1.420 . S
C485 C486 1.351 . S
C486 H448 0.930 . S
C486 C454 1.423 . S
C486 C485 1.351 . S
C487 O471 1.276 . S
C487 O474 1.235 . S
C488 C489 1.393 . S
C488 C492 1.395 . S
C488 C495 1.492 1_554 S
C489 C488 1.393 . S
C489 C490 1.392 . S
C489 H500 0.930 . S
C490 C489 1.392 . S
C490 C491 1.386 . S
C491 C490 1.386 . S
C491 C493 1.395 . S
C491 H501 0.930 . S
C492 C488 1.395 . S
C492 C493 1.379 . S
C492 H502 0.930 . S
C493 C491 1.395 . S
C493 C492 1.379 . S
C493 H503 0.930 . S
C494 O472 1.264 . S
C494 O473 1.254 . S
C495 Eu431 2.848 . S
C495 O470 1.257 . S
C495 O475 1.249 . S
C495 C488 1.492 1_556 S
H496 C479 0.930 . S
H497 C480 0.929 . S
H498 C481 0.930 . S
H499 C482 0.930 1_655 S
H500 C489 0.930 . S
H501 C491 0.930 . S
H502 C492 0.930 . S
H503 C493 0.930 . S
Eu504 N535 2.657 . S
Eu504 N542 2.609 . S
Eu504 O548 2.558 . S
Eu504 O549 2.612 . S
Eu504 O551 2.339 . S
Eu504 O552 2.563 . S
Eu504 O553 2.419 . S
Eu504 O555 2.380 . S
Eu504 O556 2.432 . S
Eu504 C568 2.848 . S
C505 C508 1.429 . S
C505 C509 1.411 . S
C505 N512 1.377 . S
C506 C508 1.420 . S
C506 C510 1.423 . S
C506 C518 1.392 . S
C507 C509 1.420 . S
C507 C510 1.351 . S
C507 H530 0.931 . S
C508 C505 1.429 . S
C508 C506 1.420 . S
C508 N516 1.362 . S
C509 C505 1.411 . S
C509 C507 1.420 . S
C509 C514 1.395 . S
C510 C506 1.423 . S
C510 C507 1.351 . S
C510 H522 0.930 . S
C511 C513 1.400 . S
C511 C514 1.386 . S
C511 H523 0.930 . S
N512 C505 1.377 . S
N512 C513 1.321 . S
N512 Eu515 2.609 . S
C513 C511 1.400 . S
C513 N512 1.321 . S
C513 H520 0.930 . S
C514 C509 1.395 . S
C514 C511 1.386 . S
C514 H533 0.930 . S
Eu515 N512 2.609 . S
Eu515 N516 2.657 . S
Eu515 O549 2.380 . S
Eu515 O550 2.432 . S
Eu515 O554 2.558 . S
Eu515 O555 2.612 . S
Eu515 O557 2.339 . S
Eu515 O558 2.563 . S
Eu515 O559 2.419 . S
Eu515 C579 2.848 . S
N516 C508 1.362 . S
N516 Eu515 2.657 . S
N516 C517 1.334 . S
C517 N516 1.334 . S
C517 C519 1.413 . S
C517 H524 0.929 . S
C518 C506 1.392 . S
C518 C519 1.367 . S
C518 H526 0.930 . S
C519 C517 1.413 . S
C519 C518 1.367 . S
C519 H521 0.930 . S
H520 C513 0.930 . S
H521 C519 0.930 . S
H522 C510 0.930 . S
H523 C511 0.930 . S
H524 C517 0.929 . S
H525 C539 0.930 . S
H526 C518 0.930 . S
H527 C545 0.930 . S
H528 C536 0.929 . S
H529 C543 0.930 . S
H530 C507 0.931 . S
H531 C537 0.930 . S
H532 C570 0.930 . S
H533 C514 0.930 . S
H534 C569 0.931 . S
N535 Eu504 2.657 . S
N535 C536 1.334 . S
N535 C540 1.362 . S
C536 H528 0.929 . S
C536 N535 1.334 . S
C536 C539 1.413 . S
C537 H531 0.930 . S
C537 C538 1.392 . S
C537 C539 1.367 . S
C538 C537 1.392 . S
C538 C540 1.420 . S
C538 C570 1.423 . S
C539 H525 0.930 . S
C539 C536 1.413 . S
C539 C537 1.367 . S
C540 N535 1.362 . S
C540 C538 1.420 . S
C540 C544 1.429 . S
H541 C546 0.930 . S
N542 Eu504 2.609 . S
N542 C544 1.377 . S
N542 C545 1.321 . S
C543 H529 0.930 . S
C543 C545 1.400 . S
C543 C546 1.386 . S
C544 C540 1.429 . S
C544 N542 1.377 . S
C544 C547 1.411 . S
C545 H527 0.930 . S
C545 N542 1.321 . S
C545 C543 1.400 . S
C546 H541 0.930 . S
C546 C543 1.386 . S
C546 C547 1.395 . S
C547 C544 1.411 . S
C547 C546 1.395 . S
C547 C569 1.420 . S
O548 Eu504 2.558 . S
O548 C568 1.257 . S
O549 Eu504 2.612 . S
O549 Eu515 2.380 . S
O549 C560 1.276 . S
O550 Eu515 2.432 . S
O550 C567 1.264 . S
O551 Eu504 2.339 . S
O551 C567 1.254 . S
O552 Eu504 2.563 . S
O552 C560 1.235 . S
O553 Eu504 2.419 . S
O553 C568 1.249 . S
O554 Eu515 2.558 . S
O554 C579 1.257 . S
O555 Eu504 2.380 . S
O555 Eu515 2.612 . S
O555 C571 1.276 . S
O556 Eu504 2.432 . S
O556 C578 1.264 . S
O557 Eu515 2.339 . S
O557 C578 1.254 . S
O558 Eu515 2.563 . S
O558 C571 1.235 . S
O559 Eu515 2.419 . S
O559 C579 1.249 . S
C560 O549 1.276 . S
C560 O552 1.235 . S
C561 C563 1.393 . S
C561 C565 1.395 . S
C561 C568 1.492 . S
C562 C563 1.392 . S
C562 C564 1.386 . S
C563 C561 1.393 . S
C563 C562 1.392 . S
C563 H580 0.930 . S
C564 C562 1.386 . S
C564 C566 1.395 . S
C564 H581 0.930 . S
C565 C561 1.395 . S
C565 C566 1.379 . S
C565 H582 0.930 . S
C566 C564 1.395 . S
C566 C565 1.379 . S
C566 H583 0.930 . S
C567 O550 1.264 . S
C567 O551 1.254 . S
C568 Eu504 2.848 . S
C568 O548 1.257 . S
C568 O553 1.249 . S
C568 C561 1.492 . S
C569 H534 0.931 . S
C569 C547 1.420 . S
C569 C570 1.351 . S
C570 H532 0.930 . S
C570 C538 1.423 . S
C570 C569 1.351 . S
C571 O555 1.276 . S
C571 O558 1.235 . S
C572 C573 1.393 . S
C572 C576 1.395 . S
C572 C579 1.492 . S
C573 C572 1.393 . S
C573 C574 1.392 . S
C573 H584 0.930 . S
C574 C573 1.392 . S
C574 C575 1.386 . S
C575 C574 1.386 . S
C575 C577 1.395 . S
C575 H585 0.930 . S
C576 C572 1.395 . S
C576 C577 1.379 . S
C576 H586 0.930 . S
C577 C575 1.395 . S
C577 C576 1.379 . S
C577 H587 0.930 . S
C578 O556 1.264 . S
C578 O557 1.254 . S
C579 Eu515 2.848 . S
C579 O554 1.257 . S
C579 O559 1.249 . S
C579 C572 1.492 . S
H580 C563 0.930 . S
H581 C564 0.930 . S
H582 C565 0.930 . S
H583 C566 0.930 . S
H584 C573 0.930 . S
H585 C575 0.930 . S
H586 C576 0.930 . S
H587 C577 0.930 . S
Eu588 N619 2.657 1_545 S
Eu588 N626 2.609 . S
Eu588 O632 2.558 . S
Eu588 O633 2.612 1_545 S
Eu588 O635 2.339 1_545 S
Eu588 O636 2.563 . S
Eu588 O637 2.419 1_545 S
Eu588 O639 2.380 . S
Eu588 O640 2.432 . S
Eu588 C652 2.848 . S
C589 C592 1.429 . S
C589 C593 1.411 . S
C589 N596 1.377 . S
C590 C592 1.420 . S
C590 C594 1.423 . S
C590 C602 1.392 1_565 S
C591 C593 1.420 . S
C591 C594 1.351 . S
C591 H614 0.931 . S
C592 C589 1.429 . S
C592 C590 1.420 . S
C592 N600 1.362 1_565 S
C593 C589 1.411 . S
C593 C591 1.420 . S
C593 C598 1.395 . S
C594 C590 1.423 . S
C594 C591 1.351 . S
C594 H606 0.930 . S
C595 C597 1.400 . S
C595 C598 1.386 . S
C595 H607 0.930 . S
N596 C589 1.377 . S
N596 C597 1.321 . S
N596 Eu599 2.609 . S
C597 C595 1.400 . S
C597 N596 1.321 . S
C597 H604 0.930 . S
C598 C593 1.395 . S
C598 C595 1.386 . S
C598 H617 0.930 . S
Eu599 N596 2.609 . S
Eu599 N600 2.657 1_565 S
Eu599 O633 2.380 . S
Eu599 O634 2.432 . S
Eu599 O638 2.558 . S
Eu599 O639 2.612 1_565 S
Eu599 O641 2.339 1_565 S
Eu599 O642 2.563 . S
Eu599 O643 2.419 1_565 S
Eu599 C663 2.848 . S
N600 C592 1.362 1_545 S
N600 Eu599 2.657 1_545 S
N600 C601 1.334 . S
C601 N600 1.334 . S
C601 C603 1.413 . S
C601 H608 0.929 . S
C602 C590 1.392 1_545 S
C602 C603 1.367 . S
C602 H610 0.930 . S
C603 C601 1.413 . S
C603 C602 1.367 . S
C603 H605 0.930 . S
H604 C597 0.930 . S
H605 C603 0.930 . S
H606 C594 0.930 . S
H607 C595 0.930 . S
H608 C601 0.929 . S
H609 C623 0.930 . S
H610 C602 0.930 . S
H611 C629 0.930 . S
H612 C620 0.931 1_455 S
H613 C627 0.930 1_455 S
H614 C591 0.931 . S
H615 C621 0.930 . S
H616 C654 0.930 . S
H617 C598 0.930 . S
H618 C653 0.931 . S
N619 Eu588 2.657 1_565 S
N619 C620 1.334 1_455 S
N619 C624 1.362 1_465 S
C620 H612 0.931 1_655 S
C620 N619 1.334 1_655 S
C620 C623 1.411 . S
C621 H615 0.930 . S
C621 C622 1.392 1_565 S
C621 C623 1.367 . S
C622 C621 1.392 1_545 S
C622 C624 1.420 . S
C622 C654 1.423 . S
C623 H609 0.930 . S
C623 C620 1.411 . S
C623 C621 1.367 . S
C624 N619 1.362 1_645 S
C624 C622 1.420 . S
C624 C628 1.429 . S
H625 C630 0.930 . S
N626 Eu588 2.609 . S
N626 C628 1.377 1_455 S
N626 C629 1.321 . S
C627 H613 0.930 1_655 S
C627 C629 1.400 1_655 S
C627 C630 1.386 . S
C628 C624 1.429 . S
C628 N626 1.377 1_655 S
C628 C631 1.411 . S
C629 H611 0.930 . S
C629 N626 1.321 . S
C629 C627 1.400 1_455 S
C630 H625 0.930 . S
C630 C627 1.386 . S
C630 C631 1.395 . S
C631 C628 1.411 . S
C631 C630 1.395 . S
C631 C653 1.420 . S
O632 Eu588 2.558 . S
O632 C652 1.257 . S
O633 Eu588 2.612 1_565 S
O633 Eu599 2.380 . S
O633 C644 1.276 . S
O634 Eu599 2.432 . S
O634 C651 1.264 . S
O635 Eu588 2.339 1_565 S
O635 C651 1.254 . S
O636 Eu588 2.563 . S
O636 C644 1.234 1_545 S
O637 Eu588 2.419 1_565 S
O637 C652 1.249 1_565 S
O638 Eu599 2.558 . S
O638 C663 1.257 . S
O639 Eu588 2.380 . S
O639 Eu599 2.612 1_545 S
O639 C655 1.276 1_545 S
O640 Eu588 2.432 . S
O640 C662 1.264 . S
O641 Eu599 2.339 1_545 S
O641 C662 1.254 . S
O642 Eu599 2.563 . S
O642 C655 1.234 . S
O643 Eu599 2.419 1_545 S
O643 C663 1.249 1_545 S
C644 O633 1.276 . S
C644 O636 1.234 1_565 S
C645 C647 1.393 1_545 S
C645 C649 1.395 . S
C645 C652 1.492 . S
C646 C647 1.392 . S
C646 C648 1.386 1_565 S
C647 C645 1.393 1_565 S
C647 C646 1.392 . S
C647 H664 0.930 . S
C648 C646 1.386 1_545 S
C648 C650 1.395 . S
C648 H665 0.930 . S
C649 C645 1.395 . S
C649 C650 1.379 . S
C649 H666 0.930 . S
C650 C648 1.395 . S
C650 C649 1.379 . S
C650 H667 0.930 1_455 S
C651 O634 1.264 . S
C651 O635 1.254 . S
C652 Eu588 2.848 . S
C652 O632 1.257 . S
C652 O637 1.249 1_545 S
C652 C645 1.492 . S
C653 H618 0.931 . S
C653 C631 1.420 . S
C653 C654 1.351 . S
C654 H616 0.930 . S
C654 C622 1.423 . S
C654 C653 1.351 . S
C655 O639 1.276 1_565 S
C655 O642 1.234 . S
C656 C657 1.393 1_565 S
C656 C660 1.395 . S
C656 C663 1.492 . S
C657 C656 1.393 1_545 S
C657 C658 1.395 . S
C657 H668 0.930 . S
C658 C657 1.395 . S
C658 C659 1.342 1_545 S
C659 C658 1.342 1_565 S
C659 C661 1.395 . S
C659 H669 0.930 . S
C660 C656 1.395 . S
C660 C661 1.379 . S
C660 H670 0.930 . S
C661 C659 1.395 . S
C661 C660 1.379 . S
C661 H671 0.930 . S
C662 O640 1.264 . S
C662 O641 1.254 . S
C663 Eu599 2.848 . S
C663 O638 1.257 . S
C663 O643 1.249 1_565 S
C663 C656 1.492 . S
H664 C647 0.930 . S
H665 C648 0.930 . S
H666 C649 0.930 . S
H667 C650 0.930 1_655 S
H668 C657 0.930 . S
H669 C659 0.930 . S
H670 C660 0.930 . S
H671 C661 0.930 . S
Eu672 N703 2.657 . S
Eu672 N710 2.609 . S
Eu672 O716 2.558 . S
Eu672 O717 2.612 . S
Eu672 O719 2.339 . S
Eu672 O720 2.563 . S
Eu672 O721 2.419 . S
Eu672 O723 2.380 . S
Eu672 O724 2.432 . S
Eu672 C736 2.848 . S
C673 C676 1.429 . S
C673 C677 1.411 . S
C673 N680 1.377 . S
C674 C676 1.420 . S
C674 C678 1.423 . S
C674 C686 1.392 . S
C675 C677 1.420 . S
C675 C678 1.351 . S
C675 H698 0.931 . S
C676 C673 1.429 . S
C676 C674 1.420 . S
C676 N684 1.362 . S
C677 C673 1.411 . S
C677 C675 1.420 . S
C677 C682 1.395 . S
C678 C674 1.423 . S
C678 C675 1.351 . S
C678 H690 0.930 . S
C679 C681 1.400 . S
C679 C682 1.386 . S
C679 H691 0.930 . S
N680 C673 1.377 . S
N680 C681 1.321 . S
N680 Eu683 2.609 . S
C681 C679 1.400 . S
C681 N680 1.321 . S
C681 H688 0.930 . S
C682 C677 1.395 . S
C682 C679 1.386 . S
C682 H701 0.930 . S
Eu683 N680 2.609 . S
Eu683 N684 2.657 . S
Eu683 O717 2.380 . S
Eu683 O718 2.432 . S
Eu683 O722 2.558 . S
Eu683 O723 2.612 . S
Eu683 O725 2.339 . S
Eu683 O726 2.563 . S
Eu683 O727 2.419 . S
Eu683 C747 2.848 . S
N684 C676 1.362 . S
N684 Eu683 2.657 . S
N684 C685 1.334 . S
C685 N684 1.334 . S
C685 C687 1.413 . S
C685 H692 0.929 . S
C686 C674 1.392 . S
C686 C687 1.367 . S
C686 H694 0.930 . S
C687 C685 1.413 . S
C687 C686 1.367 . S
C687 H689 0.930 . S
H688 C681 0.930 . S
H689 C687 0.930 . S
H690 C678 0.930 . S
H691 C679 0.930 . S
H692 C685 0.929 . S
H693 C707 0.930 . S
H694 C686 0.930 . S
H695 C713 0.930 . S
H696 C704 0.929 . S
H697 C711 0.930 . S
H698 C675 0.931 . S
H699 C705 0.930 . S
H700 C738 0.930 . S
H701 C682 0.930 . S
H702 C737 0.931 . S
N703 Eu672 2.657 . S
N703 C704 1.334 . S
N703 C708 1.362 . S
C704 H696 0.929 . S
C704 N703 1.334 . S
C704 C707 1.413 . S
C705 H699 0.930 . S
C705 C706 1.392 . S
C705 C707 1.367 . S
C706 C705 1.392 . S
C706 C708 1.420 . S
C706 C738 1.423 . S
C707 H693 0.930 . S
C707 C704 1.413 . S
C707 C705 1.367 . S
C708 N703 1.362 . S
C708 C706 1.420 . S
C708 C712 1.429 . S
H709 C714 0.930 . S
N710 Eu672 2.609 . S
N710 C712 1.377 . S
N710 C713 1.321 . S
C711 H697 0.930 . S
C711 C713 1.400 . S
C711 C714 1.386 . S
C712 C708 1.429 . S
C712 N710 1.377 . S
C712 C715 1.411 . S
C713 H695 0.930 . S
C713 N710 1.321 . S
C713 C711 1.400 . S
C714 H709 0.930 . S
C714 C711 1.386 . S
C714 C715 1.395 . S
C715 C712 1.411 . S
C715 C714 1.395 . S
C715 C737 1.420 . S
O716 Eu672 2.558 . S
O716 C736 1.257 . S
O717 Eu672 2.612 . S
O717 Eu683 2.380 . S
O717 C728 1.276 . S
O718 Eu683 2.432 . S
O718 C735 1.264 . S
O719 Eu672 2.339 . S
O719 C735 1.254 . S
O720 Eu672 2.563 . S
O720 C728 1.235 . S
O721 Eu672 2.419 . S
O721 C736 1.249 . S
O722 Eu683 2.558 . S
O722 C747 1.257 . S
O723 Eu672 2.380 . S
O723 Eu683 2.612 . S
O723 C739 1.276 . S
O724 Eu672 2.432 . S
O724 C746 1.264 . S
O725 Eu683 2.339 . S
O725 C746 1.254 . S
O726 Eu683 2.563 . S
O726 C739 1.235 . S
O727 Eu683 2.419 . S
O727 C747 1.249 . S
C728 O717 1.276 . S
C728 O720 1.235 . S
C729 C731 1.393 . S
C729 C733 1.395 . S
C729 C736 1.492 . S
C730 C731 1.392 . S
C730 C732 1.386 . S
C731 C729 1.393 . S
C731 C730 1.392 . S
C731 H748 0.930 . S
C732 C730 1.386 . S
C732 C734 1.395 . S
C732 H749 0.930 . S
C733 C729 1.395 . S
C733 C734 1.379 . S
C733 H750 0.930 . S
C734 C732 1.395 . S
C734 C733 1.379 . S
C734 H751 0.930 . S
C735 O718 1.264 . S
C735 O719 1.254 . S
C736 Eu672 2.848 . S
C736 O716 1.257 . S
C736 O721 1.249 . S
C736 C729 1.492 . S
C737 H702 0.931 . S
C737 C715 1.420 . S
C737 C738 1.351 . S
C738 H700 0.930 . S
C738 C706 1.423 . S
C738 C737 1.351 . S
C739 O723 1.276 . S
C739 O726 1.235 . S
C740 C741 1.393 . S
C740 C744 1.395 . S
C740 C747 1.492 . S
C741 C740 1.393 . S
C741 C742 1.392 . S
C741 H752 0.930 . S
C742 C741 1.392 . S
C742 C743 1.386 . S
C743 C742 1.386 . S
C743 C745 1.395 . S
C743 H753 0.930 . S
C744 C740 1.395 . S
C744 C745 1.379 . S
C744 H754 0.930 . S
C745 C743 1.395 . S
C745 C744 1.379 . S
C745 H755 0.930 . S
C746 O724 1.264 . S
C746 O725 1.254 . S
C747 Eu683 2.848 . S
C747 O722 1.257 . S
C747 O727 1.249 . S
C747 C740 1.492 . S
H748 C731 0.930 . S
H749 C732 0.930 . S
H750 C733 0.930 . S
H751 C734 0.930 . S
H752 C741 0.930 . S
H753 C743 0.930 . S
H754 C744 0.930 . S
H755 C745 0.930 . S
Eu756 N787 2.657 . S
Eu756 N794 2.609 . S
Eu756 O800 2.558 . S
Eu756 O801 2.612 . S
Eu756 O803 2.339 . S
Eu756 O804 2.563 . S
Eu756 O805 2.419 . S
Eu756 O807 2.380 . S
Eu756 O808 2.432 . S
Eu756 C820 2.848 . S
C757 C760 1.429 . S
C757 C761 1.411 . S
C757 N764 1.377 1_455 S
C758 C760 1.420 . S
C758 C762 1.423 . S
C758 C770 1.392 . S
C759 C761 1.420 . S
C759 C762 1.351 . S
C759 H782 0.931 . S
C760 C757 1.429 . S
C760 C758 1.420 . S
C760 N768 1.362 1_455 S
C761 C757 1.411 . S
C761 C759 1.420 . S
C761 C766 1.395 . S
C762 C758 1.423 . S
C762 C759 1.351 . S
C762 H774 0.930 . S
C763 C765 1.400 1_455 S
C763 C766 1.386 . S
C763 H775 0.930 1_455 S
N764 C757 1.377 1_655 S
N764 C765 1.321 . S
N764 Eu767 2.609 . S
C765 C763 1.400 1_655 S
C765 N764 1.321 . S
C765 H772 0.930 . S
C766 C761 1.395 . S
C766 C763 1.386 . S
C766 H785 0.930 . S
Eu767 N764 2.609 . S
Eu767 N768 2.657 . S
Eu767 O801 2.380 . S
Eu767 O802 2.432 . S
Eu767 O806 2.558 . S
Eu767 O807 2.612 . S
Eu767 O809 2.339 . S
Eu767 O810 2.563 . S
Eu767 O811 2.419 . S
Eu767 C831 2.848 . S
N768 C760 1.362 1_655 S
N768 Eu767 2.657 . S
N768 C769 1.327 1_655 S
C769 N768 1.327 1_455 S
C769 C771 1.452 . S
C769 H776 0.897 1_455 S
C770 C758 1.392 . S
C770 C771 1.367 . S
C770 H778 0.930 . S
C771 C769 1.452 . S
C771 C770 1.367 . S
C771 H773 0.930 . S
H772 C765 0.930 . S
H773 C771 0.930 . S
H774 C762 0.930 . S
H775 C763 0.930 1_655 S
H776 C769 0.897 1_655 S
H777 C791 0.930 . S
H778 C770 0.930 . S
H779 C797 0.930 . S
H780 C788 0.929 . S
H781 C795 0.930 . S
H782 C759 0.931 . S
H783 C789 0.930 . S
H784 C822 0.930 . S
H785 C766 0.930 . S
H786 C821 0.931 . S
N787 Eu756 2.657 . S
N787 C788 1.334 . S
N787 C792 1.362 . S
C788 H780 0.929 . S
C788 N787 1.334 . S
C788 C791 1.413 . S
C789 H783 0.930 . S
C789 C790 1.392 . S
C789 C791 1.367 . S
C790 C789 1.392 . S
C790 C792 1.420 . S
C790 C822 1.423 . S
C791 H777 0.930 . S
C791 C788 1.413 . S
C791 C789 1.367 . S
C792 N787 1.362 . S
C792 C790 1.420 . S
C792 C796 1.429 . S
H793 C798 0.930 . S
N794 Eu756 2.609 . S
N794 C796 1.377 . S
N794 C797 1.321 . S
C795 H781 0.930 . S
C795 C797 1.400 . S
C795 C798 1.386 . S
C796 C792 1.429 . S
C796 N794 1.377 . S
C796 C799 1.411 . S
C797 H779 0.930 . S
C797 N794 1.321 . S
C797 C795 1.400 . S
C798 H793 0.930 . S
C798 C795 1.386 . S
C798 C799 1.395 . S
C799 C796 1.411 . S
C799 C798 1.395 . S
C799 C821 1.420 . S
O800 Eu756 2.558 . S
O800 C820 1.257 . S
O801 Eu756 2.612 . S
O801 Eu767 2.380 . S
O801 C812 1.276 . S
O802 Eu767 2.432 . S
O802 C819 1.264 . S
O803 Eu756 2.339 . S
O803 C819 1.254 . S
O804 Eu756 2.563 . S
O804 C812 1.235 . S
O805 Eu756 2.419 . S
O805 C820 1.249 . S
O806 Eu767 2.558 . S
O806 C831 1.257 . S
O807 Eu756 2.380 . S
O807 Eu767 2.612 . S
O807 C823 1.276 . S
O808 Eu756 2.432 . S
O808 C830 1.264 . S
O809 Eu767 2.339 . S
O809 C830 1.254 . S
O810 Eu767 2.563 . S
O810 C823 1.235 . S
O811 Eu767 2.419 . S
O811 C831 1.249 . S
C812 O801 1.276 . S
C812 O804 1.235 . S
C813 C815 1.393 . S
C813 C817 1.395 . S
C813 C820 1.492 . S
C814 C815 1.392 . S
C814 C816 1.386 . S
C815 C813 1.393 . S
C815 C814 1.392 . S
C815 H832 0.930 . S
C816 C814 1.386 . S
C816 C818 1.395 . S
C816 H833 0.930 . S
C817 C813 1.395 . S
C817 C818 1.379 . S
C817 H834 0.930 . S
C818 C816 1.395 . S
C818 C817 1.379 . S
C818 H835 0.930 . S
C819 O802 1.264 . S
C819 O803 1.254 . S
C820 Eu756 2.848 . S
C820 O800 1.257 . S
C820 O805 1.249 . S
C820 C813 1.492 . S
C821 H786 0.931 . S
C821 C799 1.420 . S
C821 C822 1.351 . S
C822 H784 0.930 . S
C822 C790 1.423 . S
C822 C821 1.351 . S
C823 O807 1.276 . S
C823 O810 1.235 . S
C824 C825 1.393 . S
C824 C828 1.395 . S
C824 C831 1.492 . S
C825 C824 1.393 . S
C825 C826 1.392 . S
C825 H836 0.930 . S
C826 C825 1.392 . S
C826 C827 1.386 . S
C827 C826 1.386 . S
C827 C829 1.395 . S
C827 H837 0.931 . S
C828 C824 1.395 . S
C828 C829 1.379 . S
C828 H838 0.930 . S
C829 C827 1.395 . S
C829 C828 1.379 . S
C829 H839 0.930 1_655 S
C830 O808 1.264 . S
C830 O809 1.254 . S
C831 Eu767 2.848 . S
C831 O806 1.257 . S
C831 O811 1.249 . S
C831 C824 1.492 . S
H832 C815 0.930 . S
H833 C816 0.930 . S
H834 C817 0.930 . S
H835 C818 0.930 . S
H836 C825 0.930 . S
H837 C827 0.931 . S
H838 C828 0.930 . S
H839 C829 0.930 1_455 S
Eu840 N871 2.657 . S
Eu840 N878 2.609 . S
Eu840 O884 2.558 . S
Eu840 O885 2.612 . S
Eu840 O887 2.339 . S
Eu840 O888 2.563 . S
Eu840 O889 2.419 . S
Eu840 O891 2.380 . S
Eu840 O892 2.432 . S
Eu840 C904 2.848 . S
C841 C844 1.429 . S
C841 C845 1.411 . S
C841 N848 1.377 . S
C842 C844 1.420 . S
C842 C846 1.423 . S
C842 C854 1.392 . S
C843 C845 1.420 . S
C843 C846 1.351 . S
C843 H866 0.931 . S
C844 C841 1.429 . S
C844 C842 1.420 . S
C844 N852 1.362 . S
C845 C841 1.411 . S
C845 C843 1.420 . S
C845 C850 1.395 . S
C846 C842 1.423 . S
C846 C843 1.351 . S
C846 H858 0.930 . S
C847 C849 1.400 . S
C847 C850 1.386 . S
C847 H859 0.930 . S
N848 C841 1.377 . S
N848 C849 1.321 . S
N848 Eu851 2.609 . S
C849 C847 1.400 . S
C849 N848 1.321 . S
C849 H856 0.930 . S
C850 C845 1.395 . S
C850 C847 1.386 . S
C850 H869 0.930 . S
Eu851 N848 2.609 . S
Eu851 N852 2.657 . S
Eu851 O885 2.380 . S
Eu851 O886 2.432 . S
Eu851 O890 2.558 . S
Eu851 O891 2.612 . S
Eu851 O893 2.339 . S
Eu851 O894 2.563 . S
Eu851 O895 2.419 . S
Eu851 C915 2.848 . S
N852 C844 1.362 . S
N852 Eu851 2.657 . S
N852 C853 1.334 . S
C853 N852 1.334 . S
C853 C855 1.413 . S
C853 H860 0.929 . S
C854 C842 1.392 . S
C854 C855 1.367 . S
C854 H862 0.930 . S
C855 C853 1.413 . S
C855 C854 1.367 . S
C855 H857 0.930 . S
H856 C849 0.930 . S
H857 C855 0.930 . S
H858 C846 0.930 . S
H859 C847 0.930 . S
H860 C853 0.929 . S
H861 C875 0.930 . S
H862 C854 0.930 . S
H863 C881 0.930 . S
H864 C872 0.929 . S
H865 C879 0.930 . S
H866 C843 0.931 . S
H867 C873 0.930 . S
H868 C906 0.930 . S
H869 C850 0.930 . S
H870 C905 0.931 . S
N871 Eu840 2.657 . S
N871 C872 1.334 . S
N871 C876 1.362 . S
C872 H864 0.929 . S
C872 N871 1.334 . S
C872 C875 1.413 . S
C873 H867 0.930 . S
C873 C874 1.392 . S
C873 C875 1.367 . S
C874 C873 1.392 . S
C874 C876 1.420 . S
C874 C906 1.423 . S
C875 H861 0.930 . S
C875 C872 1.413 . S
C875 C873 1.367 . S
C876 N871 1.362 . S
C876 C874 1.420 . S
C876 C880 1.429 . S
H877 C882 0.930 . S
N878 Eu840 2.609 . S
N878 C880 1.377 . S
N878 C881 1.321 . S
C879 H865 0.930 . S
C879 C881 1.400 . S
C879 C882 1.386 . S
C880 C876 1.429 . S
C880 N878 1.377 . S
C880 C883 1.411 . S
C881 H863 0.930 . S
C881 N878 1.321 . S
C881 C879 1.400 . S
C882 H877 0.930 . S
C882 C879 1.386 . S
C882 C883 1.395 . S
C883 C880 1.411 . S
C883 C882 1.395 . S
C883 C905 1.420 . S
O884 Eu840 2.558 . S
O884 C904 1.257 . S
O885 Eu840 2.612 . S
O885 Eu851 2.380 . S
O885 C896 1.276 . S
O886 Eu851 2.432 . S
O886 C903 1.264 . S
O887 Eu840 2.339 . S
O887 C903 1.254 . S
O888 Eu840 2.563 . S
O888 C896 1.235 . S
O889 Eu840 2.419 . S
O889 C904 1.249 . S
O890 Eu851 2.558 . S
O890 C915 1.257 . S
O891 Eu840 2.380 . S
O891 Eu851 2.612 . S
O891 C907 1.276 . S
O892 Eu840 2.432 . S
O892 C914 1.264 . S
O893 Eu851 2.339 . S
O893 C914 1.254 . S
O894 Eu851 2.563 . S
O894 C907 1.235 . S
O895 Eu851 2.419 . S
O895 C915 1.249 . S
C896 O885 1.276 . S
C896 O888 1.235 . S
C897 C899 1.393 . S
C897 C901 1.395 . S
C897 C904 1.492 . S
C898 C899 1.392 . S
C898 C900 1.386 . S
C899 C897 1.393 . S
C899 C898 1.392 . S
C899 H916 0.930 . S
C900 C898 1.386 . S
C900 C902 1.395 . S
C900 H917 0.930 . S
C901 C897 1.395 . S
C901 C902 1.379 . S
C901 H918 0.930 . S
C902 C900 1.395 . S
C902 C901 1.379 . S
C902 H919 0.930 . S
C903 O886 1.264 . S
C903 O887 1.254 . S
C904 Eu840 2.848 . S
C904 O884 1.257 . S
C904 O889 1.249 . S
C904 C897 1.492 . S
C905 H870 0.931 . S
C905 C883 1.420 . S
C905 C906 1.351 . S
C906 H868 0.930 . S
C906 C874 1.423 . S
C906 C905 1.351 . S
C907 O891 1.276 . S
C907 O894 1.235 . S
C908 C909 1.393 . S
C908 C912 1.395 . S
C908 C915 1.492 . S
C909 C908 1.393 . S
C909 C910 1.392 . S
C909 H920 0.930 . S
C910 C909 1.392 . S
C910 C911 1.386 . S
C911 C910 1.386 . S
C911 C913 1.395 . S
C911 H921 0.930 . S
C912 C908 1.395 . S
C912 C913 1.379 . S
C912 H922 0.930 . S
C913 C911 1.395 . S
C913 C912 1.379 . S
C913 H923 0.930 . S
C914 O892 1.264 . S
C914 O893 1.254 . S
C915 Eu851 2.848 . S
C915 O890 1.257 . S
C915 O895 1.249 . S
C915 C908 1.492 . S
H916 C899 0.930 . S
H917 C900 0.930 . S
H918 C901 0.930 . S
H919 C902 0.930 . S
H920 C909 0.930 . S
H921 C911 0.930 . S
H922 C912 0.930 . S
H923 C913 0.930 . S
Eu924 N955 2.657 . S
Eu924 N962 2.609 . S
Eu924 O968 2.558 . S
Eu924 O969 2.612 . S
Eu924 O971 2.339 . S
Eu924 O972 2.563 . S
Eu924 O973 2.419 . S
Eu924 O975 2.380 . S
Eu924 O976 2.432 . S
Eu924 C988 2.848 . S
C925 C928 1.429 . S
C925 C929 1.411 . S
C925 N932 1.377 1_455 S
C926 C928 1.420 . S
C926 C930 1.423 . S
C926 C938 1.392 . S
C927 C929 1.420 . S
C927 C930 1.351 . S
C927 H950 0.931 . S
C928 C925 1.429 . S
C928 C926 1.420 . S
C928 N936 1.362 1_455 S
C929 C925 1.411 . S
C929 C927 1.420 . S
C929 C934 1.395 . S
C930 C926 1.423 . S
C930 C927 1.351 . S
C930 H942 0.930 . S
C931 C933 1.400 1_455 S
C931 C934 1.386 . S
C931 H943 0.930 1_455 S
N932 C925 1.377 1_655 S
N932 C933 1.321 . S
N932 Eu935 2.609 . S
C933 C931 1.400 1_655 S
C933 N932 1.321 . S
C933 H940 0.930 . S
C934 C929 1.395 . S
C934 C931 1.386 . S
C934 H953 0.930 . S
Eu935 N932 2.609 . S
Eu935 N936 2.657 . S
Eu935 O969 2.380 . S
Eu935 O970 2.432 . S
Eu935 O974 2.558 . S
Eu935 O975 2.612 . S
Eu935 O977 2.339 . S
Eu935 O978 2.563 . S
Eu935 O979 2.419 . S
Eu935 C999 2.848 . S
N936 C928 1.362 1_655 S
N936 Eu935 2.657 . S
N936 C937 1.329 1_655 S
C937 N936 1.329 1_455 S
C937 C939 1.436 . S
C937 H944 0.910 1_455 S
C938 C926 1.392 . S
C938 C939 1.367 . S
C938 H946 0.930 . S
C939 C937 1.436 . S
C939 C938 1.367 . S
C939 H941 0.930 . S
H940 C933 0.930 . S
H941 C939 0.930 . S
H942 C930 0.930 . S
H943 C931 0.930 1_655 S
H944 C937 0.910 1_655 S
H945 C959 0.930 . S
H946 C938 0.930 . S
H947 C965 0.930 . S
H948 C956 0.929 . S
H949 C963 0.930 . S
H950 C927 0.931 . S
H951 C957 0.930 . S
H952 C990 0.930 . S
H953 C934 0.930 . S
H954 C989 0.931 . S
N955 Eu924 2.657 . S
N955 C956 1.334 . S
N955 C960 1.362 . S
C956 H948 0.929 . S
C956 N955 1.334 . S
C956 C959 1.413 . S
C957 H951 0.930 . S
C957 C958 1.392 . S
C957 C959 1.367 . S
C958 C957 1.392 . S
C958 C960 1.420 . S
C958 C990 1.423 . S
C959 H945 0.930 . S
C959 C956 1.413 . S
C959 C957 1.367 . S
C960 N955 1.362 . S
C960 C958 1.420 . S
C960 C964 1.429 . S
H961 C966 0.930 . S
N962 Eu924 2.609 . S
N962 C964 1.377 . S
N962 C965 1.321 . S
C963 H949 0.930 . S
C963 C965 1.400 . S
C963 C966 1.386 . S
C964 C960 1.429 . S
C964 N962 1.377 . S
C964 C967 1.411 . S
C965 H947 0.930 . S
C965 N962 1.321 . S
C965 C963 1.400 . S
C966 H961 0.930 . S
C966 C963 1.386 . S
C966 C967 1.395 . S
C967 C964 1.411 . S
C967 C966 1.395 . S
C967 C989 1.420 . S
O968 Eu924 2.558 . S
O968 C988 1.257 . S
O969 Eu924 2.612 . S
O969 Eu935 2.380 . S
O969 C980 1.276 . S
O970 Eu935 2.432 . S
O970 C987 1.264 . S
O971 Eu924 2.339 . S
O971 C987 1.254 . S
O972 Eu924 2.563 . S
O972 C980 1.235 . S
O973 Eu924 2.419 . S
O973 C988 1.249 . S
O974 Eu935 2.558 . S
O974 C999 1.257 . S
O975 Eu924 2.380 . S
O975 Eu935 2.612 . S
O975 C991 1.276 . S
O976 Eu924 2.432 . S
O976 C998 1.264 . S
O977 Eu935 2.339 . S
O977 C998 1.254 . S
O978 Eu935 2.563 . S
O978 C991 1.235 . S
O979 Eu935 2.419 . S
O979 C999 1.249 . S
C980 O969 1.276 . S
C980 O972 1.235 . S
C981 C983 1.393 . S
C981 C985 1.395 . S
C981 C988 1.492 . S
C982 C983 1.392 . S
C982 C984 1.386 . S
C983 C981 1.393 . S
C983 C982 1.392 . S
C983 H1000 0.930 . S
C984 C982 1.386 . S
C984 C986 1.395 . S
C984 H1001 0.930 . S
C985 C981 1.395 . S
C985 C986 1.379 . S
C985 H1002 0.930 . S
C986 C984 1.395 . S
C986 C985 1.379 . S
C986 H1003 0.930 . S
C987 O970 1.264 . S
C987 O971 1.254 . S
C988 Eu924 2.848 . S
C988 O968 1.257 . S
C988 O973 1.249 . S
C988 C981 1.492 . S
C989 H954 0.931 . S
C989 C967 1.420 . S
C989 C990 1.351 . S
C990 H952 0.930 . S
C990 C958 1.423 . S
C990 C989 1.351 . S
C991 O975 1.276 . S
C991 O978 1.235 . S
C992 C993 1.393 . S
C992 C996 1.395 . S
C992 C999 1.492 . S
C993 C992 1.393 . S
C993 C994 1.392 . S
C993 H1004 0.930 . S
C994 C993 1.392 . S
C994 C995 1.386 . S
C995 C994 1.386 . S
C995 C997 1.395 . S
C995 H1005 0.939 . S
C996 C992 1.395 . S
C996 C997 1.379 . S
C996 H1006 0.930 . S
C997 C995 1.395 . S
C997 C996 1.379 . S
C997 H1007 0.930 1_655 S
C998 O976 1.264 . S
C998 O977 1.254 . S
C999 Eu935 2.848 . S
C999 O974 1.257 . S
C999 O979 1.249 . S
C999 C992 1.492 . S
H1000 C983 0.930 . S
H1001 C984 0.930 . S
H1002 C985 0.930 . S
H1003 C986 0.930 . S
H1004 C993 0.930 . S
H1005 C995 0.939 . S
H1006 C996 0.930 . S
H1007 C997 0.930 1_455 S
Eu1008 N1039 2.657 . S
Eu1008 N1046 2.609 . S
Eu1008 O1052 2.558 . S
Eu1008 O1053 2.612 . S
Eu1008 O1055 2.339 . S
Eu1008 O1056 2.563 . S
Eu1008 O1057 2.419 . S
Eu1008 O1059 2.380 . S
Eu1008 O1060 2.432 . S
Eu1008 C1072 2.848 . S
C1009 C1012 1.429 . S
C1009 C1013 1.411 . S
C1009 N1016 1.377 . S
C1010 C1012 1.420 . S
C1010 C1014 1.423 . S
C1010 C1022 1.392 . S
C1011 C1013 1.420 . S
C1011 C1014 1.351 . S
C1011 H1034 0.931 . S
C1012 C1009 1.429 . S
C1012 C1010 1.420 . S
C1012 N1020 1.362 . S
C1013 C1009 1.411 . S
C1013 C1011 1.420 . S
C1013 C1018 1.395 . S
C1014 C1010 1.423 . S
C1014 C1011 1.351 . S
C1014 H1026 0.930 . S
C1015 C1017 1.400 . S
C1015 C1018 1.386 . S
C1015 H1027 0.930 . S
N1016 C1009 1.377 . S
N1016 C1017 1.321 . S
N1016 Eu1019 2.609 . S
C1017 C1015 1.400 . S
C1017 N1016 1.321 . S
C1017 H1024 0.930 . S
C1018 C1013 1.395 . S
C1018 C1015 1.386 . S
C1018 H1037 0.930 . S
Eu1019 N1016 2.609 . S
Eu1019 N1020 2.657 . S
Eu1019 O1053 2.380 . S
Eu1019 O1054 2.432 . S
Eu1019 O1058 2.558 . S
Eu1019 O1059 2.612 . S
Eu1019 O1061 2.339 . S
Eu1019 O1062 2.563 . S
Eu1019 O1063 2.419 . S
Eu1019 C1083 2.848 . S
N1020 C1012 1.362 . S
N1020 Eu1019 2.657 . S
N1020 C1021 1.334 . S
C1021 N1020 1.334 . S
C1021 C1023 1.413 . S
C1021 H1028 0.929 . S
C1022 C1010 1.392 . S
C1022 C1023 1.367 . S
C1022 H1030 0.930 . S
C1023 C1021 1.413 . S
C1023 C1022 1.367 . S
C1023 H1025 0.930 . S
H1024 C1017 0.930 . S
H1025 C1023 0.930 . S
H1026 C1014 0.930 . S
H1027 C1015 0.930 . S
H1028 C1021 0.929 . S
H1029 C1043 0.930 . S
H1030 C1022 0.930 . S
H1031 C1049 0.930 . S
H1032 C1040 0.929 . S
H1033 C1047 0.930 . S
H1034 C1011 0.931 . S
H1035 C1041 0.930 . S
H1036 C1074 0.930 . S
H1037 C1018 0.930 . S
H1038 C1073 0.931 . S
N1039 Eu1008 2.657 . S
N1039 C1040 1.334 . S
N1039 C1044 1.362 . S
C1040 H1032 0.929 . S
C1040 N1039 1.334 . S
C1040 C1043 1.413 . S
C1041 H1035 0.930 . S
C1041 C1042 1.392 . S
C1041 C1043 1.367 . S
C1042 C1041 1.392 . S
C1042 C1044 1.420 . S
C1042 C1074 1.423 . S
C1043 H1029 0.930 . S
C1043 C1040 1.413 . S
C1043 C1041 1.367 . S
C1044 N1039 1.362 . S
C1044 C1042 1.420 . S
C1044 C1048 1.429 . S
H1045 C1050 0.930 . S
N1046 Eu1008 2.609 . S
N1046 C1048 1.377 . S
N1046 C1049 1.321 . S
C1047 H1033 0.930 . S
C1047 C1049 1.400 . S
C1047 C1050 1.386 . S
C1048 C1044 1.429 . S
C1048 N1046 1.377 . S
C1048 C1051 1.411 . S
C1049 H1031 0.930 . S
C1049 N1046 1.321 . S
C1049 C1047 1.400 . S
C1050 H1045 0.930 . S
C1050 C1047 1.386 . S
C1050 C1051 1.395 . S
C1051 C1048 1.411 . S
C1051 C1050 1.395 . S
C1051 C1073 1.420 . S
O1052 Eu1008 2.558 . S
O1052 C1072 1.257 . S
O1053 Eu1008 2.612 . S
O1053 Eu1019 2.380 . S
O1053 C1064 1.276 . S
O1054 Eu1019 2.432 . S
O1054 C1071 1.264 . S
O1055 Eu1008 2.339 . S
O1055 C1071 1.254 . S
O1056 Eu1008 2.563 . S
O1056 C1064 1.235 . S
O1057 Eu1008 2.419 . S
O1057 C1072 1.249 . S
O1058 Eu1019 2.558 . S
O1058 C1083 1.257 . S
O1059 Eu1008 2.380 . S
O1059 Eu1019 2.612 . S
O1059 C1075 1.276 . S
O1060 Eu1008 2.432 . S
O1060 C1082 1.264 . S
O1061 Eu1019 2.339 . S
O1061 C1082 1.254 . S
O1062 Eu1019 2.563 . S
O1062 C1075 1.235 . S
O1063 Eu1019 2.419 . S
O1063 C1083 1.249 . S
C1064 O1053 1.276 . S
C1064 O1056 1.235 . S
C1065 C1067 1.393 . S
C1065 C1069 1.395 . S
C1065 C1072 1.492 . S
C1066 C1067 1.392 . S
C1066 C1068 1.386 . S
C1067 C1065 1.393 . S
C1067 C1066 1.392 . S
C1067 H1084 0.930 . S
C1068 C1066 1.386 . S
C1068 C1070 1.395 . S
C1068 H1085 0.930 . S
C1069 C1065 1.395 . S
C1069 C1070 1.379 . S
C1069 H1086 0.930 . S
C1070 C1068 1.395 . S
C1070 C1069 1.379 . S
C1070 H1087 0.930 . S
C1071 O1054 1.264 . S
C1071 O1055 1.254 . S
C1072 Eu1008 2.848 . S
C1072 O1052 1.257 . S
C1072 O1057 1.249 . S
C1072 C1065 1.492 . S
C1073 H1038 0.931 . S
C1073 C1051 1.420 . S
C1073 C1074 1.351 . S
C1074 H1036 0.930 . S
C1074 C1042 1.423 . S
C1074 C1073 1.351 . S
C1075 O1059 1.276 . S
C1075 O1062 1.235 . S
C1076 C1077 1.393 . S
C1076 C1080 1.395 . S
C1076 C1083 1.492 . S
C1077 C1076 1.393 . S
C1077 C1078 1.392 . S
C1077 H1088 0.930 . S
C1078 C1077 1.392 . S
C1078 C1079 1.386 . S
C1079 C1078 1.386 . S
C1079 C1081 1.395 . S
C1079 H1089 0.930 . S
C1080 C1076 1.395 . S
C1080 C1081 1.379 . S
C1080 H1090 0.930 . S
C1081 C1079 1.395 . S
C1081 C1080 1.379 . S
C1081 H1091 0.930 . S
C1082 O1060 1.264 . S
C1082 O1061 1.254 . S
C1083 Eu1019 2.848 . S
C1083 O1058 1.257 . S
C1083 O1063 1.249 . S
C1083 C1076 1.492 . S
H1084 C1067 0.930 . S
H1085 C1068 0.930 . S
H1086 C1069 0.930 . S
H1087 C1070 0.930 . S
H1088 C1077 0.930 . S
H1089 C1079 0.930 . S
H1090 C1080 0.930 . S
H1091 C1081 0.930 . S
Eu1092 N1123 2.657 . S
Eu1092 N1130 2.609 . S
Eu1092 O1136 2.558 . S
Eu1092 O1137 2.612 . S
Eu1092 O1139 2.339 . S
Eu1092 O1140 2.563 . S
Eu1092 O1141 2.419 . S
Eu1092 O1143 2.380 . S
Eu1092 O1144 2.432 . S
Eu1092 C1156 2.848 . S
C1093 C1096 1.429 . S
C1093 C1097 1.411 . S
C1093 N1100 1.377 . S
C1094 C1096 1.420 . S
C1094 C1098 1.423 . S
C1094 C1106 1.392 . S
C1095 C1097 1.420 . S
C1095 C1098 1.351 . S
C1095 H1118 0.931 . S
C1096 C1093 1.429 . S
C1096 C1094 1.420 . S
C1096 N1104 1.362 . S
C1097 C1093 1.411 . S
C1097 C1095 1.420 . S
C1097 C1102 1.395 . S
C1098 C1094 1.423 . S
C1098 C1095 1.351 . S
C1098 H1110 0.930 . S
C1099 C1101 1.400 . S
C1099 C1102 1.386 . S
C1099 H1111 0.930 . S
N1100 C1093 1.377 . S
N1100 C1101 1.321 . S
N1100 Eu1103 2.609 . S
C1101 C1099 1.400 . S
C1101 N1100 1.321 . S
C1101 H1108 0.930 . S
C1102 C1097 1.395 . S
C1102 C1099 1.386 . S
C1102 H1121 0.930 . S
Eu1103 N1100 2.609 . S
Eu1103 N1104 2.657 . S
Eu1103 O1137 2.380 . S
Eu1103 O1138 2.432 . S
Eu1103 O1142 2.558 . S
Eu1103 O1143 2.612 . S
Eu1103 O1145 2.339 . S
Eu1103 O1146 2.563 . S
Eu1103 O1147 2.419 . S
Eu1103 C1167 2.848 . S
N1104 C1096 1.362 . S
N1104 Eu1103 2.657 . S
N1104 C1105 1.334 . S
C1105 N1104 1.334 . S
C1105 C1107 1.413 . S
C1105 H1112 0.929 . S
C1106 C1094 1.392 . S
C1106 C1107 1.367 . S
C1106 H1114 0.930 . S
C1107 C1105 1.413 . S
C1107 C1106 1.367 . S
C1107 H1109 0.930 . S
H1108 C1101 0.930 . S
H1109 C1107 0.930 . S
H1110 C1098 0.930 . S
H1111 C1099 0.930 . S
H1112 C1105 0.929 . S
H1113 C1127 0.930 . S
H1114 C1106 0.930 . S
H1115 C1133 0.930 . S
H1116 C1124 0.897 1_455 S
H1117 C1131 0.930 1_455 S
H1118 C1095 0.931 . S
H1119 C1125 0.930 . S
H1120 C1158 0.930 . S
H1121 C1102 0.930 . S
H1122 C1157 0.931 . S
N1123 Eu1092 2.657 . S
N1123 C1124 1.327 1_455 S
N1123 C1128 1.362 1_455 S
C1124 H1116 0.897 1_655 S
C1124 N1123 1.327 1_655 S
C1124 C1127 1.452 . S
C1125 H1119 0.930 . S
C1125 C1126 1.392 . S
C1125 C1127 1.367 . S
C1126 C1125 1.392 . S
C1126 C1128 1.420 . S
C1126 C1158 1.423 . S
C1127 H1113 0.930 . S
C1127 C1124 1.452 . S
C1127 C1125 1.367 . S
C1128 N1123 1.362 1_655 S
C1128 C1126 1.420 . S
C1128 C1132 1.429 . S
H1129 C1134 0.930 . S
N1130 Eu1092 2.609 . S
N1130 C1132 1.377 1_455 S
N1130 C1133 1.321 . S
C1131 H1117 0.930 1_655 S
C1131 C1133 1.400 1_655 S
C1131 C1134 1.386 . S
C1132 C1128 1.429 . S
C1132 N1130 1.377 1_655 S
C1132 C1135 1.411 . S
C1133 H1115 0.930 . S
C1133 N1130 1.321 . S
C1133 C1131 1.400 1_455 S
C1134 H1129 0.930 . S
C1134 C1131 1.386 . S
C1134 C1135 1.395 . S
C1135 C1132 1.411 . S
C1135 C1134 1.395 . S
C1135 C1157 1.420 . S
O1136 Eu1092 2.558 . S
O1136 C1156 1.257 . S
O1137 Eu1092 2.612 . S
O1137 Eu1103 2.380 . S
O1137 C1148 1.276 . S
O1138 Eu1103 2.432 . S
O1138 C1155 1.264 . S
O1139 Eu1092 2.339 . S
O1139 C1155 1.254 . S
O1140 Eu1092 2.563 . S
O1140 C1148 1.235 . S
O1141 Eu1092 2.419 . S
O1141 C1156 1.249 . S
O1142 Eu1103 2.558 . S
O1142 C1167 1.257 . S
O1143 Eu1092 2.380 . S
O1143 Eu1103 2.612 . S
O1143 C1159 1.276 . S
O1144 Eu1092 2.432 . S
O1144 C1166 1.264 . S
O1145 Eu1103 2.339 . S
O1145 C1166 1.254 . S
O1146 Eu1103 2.563 . S
O1146 C1159 1.235 . S
O1147 Eu1103 2.419 . S
O1147 C1167 1.249 . S
C1148 O1137 1.276 . S
C1148 O1140 1.235 . S
C1149 C1151 1.393 . S
C1149 C1153 1.395 . S
C1149 C1156 1.492 . S
C1150 C1151 1.392 . S
C1150 C1152 1.386 . S
C1151 C1149 1.393 . S
C1151 C1150 1.392 . S
C1151 H1168 0.930 . S
C1152 C1150 1.386 . S
C1152 C1154 1.395 . S
C1152 H1169 0.931 . S
C1153 C1149 1.395 . S
C1153 C1154 1.379 . S
C1153 H1170 0.930 . S
C1154 C1152 1.395 . S
C1154 C1153 1.379 . S
C1154 H1171 0.930 1_455 S
C1155 O1138 1.264 . S
C1155 O1139 1.254 . S
C1156 Eu1092 2.848 . S
C1156 O1136 1.257 . S
C1156 O1141 1.249 . S
C1156 C1149 1.492 . S
C1157 H1122 0.931 . S
C1157 C1135 1.420 . S
C1157 C1158 1.351 . S
C1158 H1120 0.930 . S
C1158 C1126 1.423 . S
C1158 C1157 1.351 . S
C1159 O1143 1.276 . S
C1159 O1146 1.235 . S
C1160 C1161 1.393 . S
C1160 C1164 1.395 . S
C1160 C1167 1.492 . S
C1161 C1160 1.393 . S
C1161 C1162 1.392 . S
C1161 H1172 0.930 . S
C1162 C1161 1.392 . S
C1162 C1163 1.386 . S
C1163 C1162 1.386 . S
C1163 C1165 1.395 . S
C1163 H1173 0.930 . S
C1164 C1160 1.395 . S
C1164 C1165 1.379 . S
C1164 H1174 0.930 . S
C1165 C1163 1.395 . S
C1165 C1164 1.379 . S
C1165 H1175 0.930 . S
C1166 O1144 1.264 . S
C1166 O1145 1.254 . S
C1167 Eu1103 2.848 . S
C1167 O1142 1.257 . S
C1167 O1147 1.249 . S
C1167 C1160 1.492 . S
H1168 C1151 0.930 . S
H1169 C1152 0.931 . S
H1170 C1153 0.930 . S
H1171 C1154 0.930 1_655 S
H1172 C1161 0.930 . S
H1173 C1163 0.930 . S
H1174 C1164 0.930 . S
H1175 C1165 0.930 . S
Eu1176 N1207 2.657 . S
Eu1176 N1214 2.609 . S
Eu1176 O1220 2.558 . S
Eu1176 O1221 2.612 . S
Eu1176 O1223 2.339 . S
Eu1176 O1224 2.563 . S
Eu1176 O1225 2.419 . S
Eu1176 O1227 2.380 . S
Eu1176 O1228 2.432 . S
Eu1176 C1240 2.848 . S
C1177 C1180 1.429 . S
C1177 C1181 1.411 . S
C1177 N1184 1.377 . S
C1178 C1180 1.420 . S
C1178 C1182 1.423 . S
C1178 C1190 1.392 . S
C1179 C1181 1.420 . S
C1179 C1182 1.351 . S
C1179 H1202 0.931 . S
C1180 C1177 1.429 . S
C1180 C1178 1.420 . S
C1180 N1188 1.362 . S
C1181 C1177 1.411 . S
C1181 C1179 1.420 . S
C1181 C1186 1.395 . S
C1182 C1178 1.423 . S
C1182 C1179 1.351 . S
C1182 H1194 0.930 . S
C1183 C1185 1.400 . S
C1183 C1186 1.386 . S
C1183 H1195 0.930 . S
N1184 C1177 1.377 . S
N1184 C1185 1.321 . S
N1184 Eu1187 2.609 . S
C1185 C1183 1.400 . S
C1185 N1184 1.321 . S
C1185 H1192 0.930 . S
C1186 C1181 1.395 . S
C1186 C1183 1.386 . S
C1186 H1205 0.930 . S
Eu1187 N1184 2.609 . S
Eu1187 N1188 2.657 . S
Eu1187 O1221 2.380 . S
Eu1187 O1222 2.432 . S
Eu1187 O1226 2.558 . S
Eu1187 O1227 2.612 . S
Eu1187 O1229 2.339 . S
Eu1187 O1230 2.563 . S
Eu1187 O1231 2.419 . S
Eu1187 C1251 2.848 . S
N1188 C1180 1.362 . S
N1188 Eu1187 2.657 . S
N1188 C1189 1.334 . S
C1189 N1188 1.334 . S
C1189 C1191 1.413 . S
C1189 H1196 0.929 . S
C1190 C1178 1.392 . S
C1190 C1191 1.367 . S
C1190 H1198 0.930 . S
C1191 C1189 1.413 . S
C1191 C1190 1.367 . S
C1191 H1193 0.930 . S
H1192 C1185 0.930 . S
H1193 C1191 0.930 . S
H1194 C1182 0.930 . S
H1195 C1183 0.930 . S
H1196 C1189 0.929 . S
H1197 C1211 0.930 . S
H1198 C1190 0.930 . S
H1199 C1217 0.930 . S
H1200 C1208 0.929 . S
H1201 C1215 0.930 . S
H1202 C1179 0.931 . S
H1203 C1209 0.930 . S
H1204 C1242 0.930 . S
H1205 C1186 0.930 . S
H1206 C1241 0.931 . S
N1207 Eu1176 2.657 . S
N1207 C1208 1.334 . S
N1207 C1212 1.362 . S
C1208 H1200 0.929 . S
C1208 N1207 1.334 . S
C1208 C1211 1.413 . S
C1209 H1203 0.930 . S
C1209 C1210 1.392 . S
C1209 C1211 1.367 . S
C1210 C1209 1.392 . S
C1210 C1212 1.420 . S
C1210 C1242 1.423 . S
C1211 H1197 0.930 . S
C1211 C1208 1.413 . S
C1211 C1209 1.367 . S
C1212 N1207 1.362 . S
C1212 C1210 1.420 . S
C1212 C1216 1.429 . S
H1213 C1218 0.930 . S
N1214 Eu1176 2.609 . S
N1214 C1216 1.377 . S
N1214 C1217 1.321 . S
C1215 H1201 0.930 . S
C1215 C1217 1.400 . S
C1215 C1218 1.386 . S
C1216 C1212 1.429 . S
C1216 N1214 1.377 . S
C1216 C1219 1.411 . S
C1217 H1199 0.930 . S
C1217 N1214 1.321 . S
C1217 C1215 1.400 . S
C1218 H1213 0.930 . S
C1218 C1215 1.386 . S
C1218 C1219 1.395 . S
C1219 C1216 1.411 . S
C1219 C1218 1.395 . S
C1219 C1241 1.420 . S
O1220 Eu1176 2.558 . S
O1220 C1240 1.257 . S
O1221 Eu1176 2.612 . S
O1221 Eu1187 2.380 . S
O1221 C1232 1.276 . S
O1222 Eu1187 2.432 . S
O1222 C1239 1.264 . S
O1223 Eu1176 2.339 . S
O1223 C1239 1.254 . S
O1224 Eu1176 2.563 . S
O1224 C1232 1.235 . S
O1225 Eu1176 2.419 . S
O1225 C1240 1.249 . S
O1226 Eu1187 2.558 . S
O1226 C1251 1.257 . S
O1227 Eu1176 2.380 . S
O1227 Eu1187 2.612 . S
O1227 C1243 1.276 . S
O1228 Eu1176 2.432 . S
O1228 C1250 1.264 . S
O1229 Eu1187 2.339 . S
O1229 C1250 1.254 . S
O1230 Eu1187 2.563 . S
O1230 C1243 1.235 . S
O1231 Eu1187 2.419 . S
O1231 C1251 1.249 . S
C1232 O1221 1.276 . S
C1232 O1224 1.235 . S
C1233 C1235 1.393 . S
C1233 C1237 1.395 . S
C1233 C1240 1.492 . S
C1234 C1235 1.392 . S
C1234 C1236 1.386 . S
C1235 C1233 1.393 . S
C1235 C1234 1.392 . S
C1235 H1252 0.930 . S
C1236 C1234 1.386 . S
C1236 C1238 1.395 . S
C1236 H1253 0.930 . S
C1237 C1233 1.395 . S
C1237 C1238 1.379 . S
C1237 H1254 0.930 . S
C1238 C1236 1.395 . S
C1238 C1237 1.379 . S
C1238 H1255 0.930 . S
C1239 O1222 1.264 . S
C1239 O1223 1.254 . S
C1240 Eu1176 2.848 . S
C1240 O1220 1.257 . S
C1240 O1225 1.249 . S
C1240 C1233 1.492 . S
C1241 H1206 0.931 . S
C1241 C1219 1.420 . S
C1241 C1242 1.351 . S
C1242 H1204 0.930 . S
C1242 C1210 1.423 . S
C1242 C1241 1.351 . S
C1243 O1227 1.276 . S
C1243 O1230 1.235 . S
C1244 C1245 1.393 . S
C1244 C1248 1.395 . S
C1244 C1251 1.492 . S
C1245 C1244 1.393 . S
C1245 C1246 1.392 . S
C1245 H1256 0.930 . S
C1246 C1245 1.392 . S
C1246 C1247 1.386 . S
C1247 C1246 1.386 . S
C1247 C1249 1.395 . S
C1247 H1257 0.930 . S
C1248 C1244 1.395 . S
C1248 C1249 1.379 . S
C1248 H1258 0.930 . S
C1249 C1247 1.395 . S
C1249 C1248 1.379 . S
C1249 H1259 0.930 . S
C1250 O1228 1.264 . S
C1250 O1229 1.254 . S
C1251 Eu1187 2.848 . S
C1251 O1226 1.257 . S
C1251 O1231 1.249 . S
C1251 C1244 1.492 . S
H1252 C1235 0.930 . S
H1253 C1236 0.930 . S
H1254 C1237 0.930 . S
H1255 C1238 0.930 . S
H1256 C1245 0.930 . S
H1257 C1247 0.930 . S
H1258 C1248 0.930 . S
H1259 C1249 0.930 . S
Eu1260 N1291 2.657 . S
Eu1260 N1298 2.609 . S
Eu1260 O1304 2.558 . S
Eu1260 O1305 2.612 . S
Eu1260 O1307 2.339 . S
Eu1260 O1308 2.563 . S
Eu1260 O1309 2.419 . S
Eu1260 O1311 2.380 . S
Eu1260 O1312 2.432 . S
Eu1260 C1324 2.848 . S
C1261 C1264 1.429 . S
C1261 C1265 1.411 . S
C1261 N1268 1.377 . S
C1262 C1264 1.420 . S
C1262 C1266 1.423 . S
C1262 C1274 1.392 . S
C1263 C1265 1.420 . S
C1263 C1266 1.351 . S
C1263 H1286 0.931 . S
C1264 C1261 1.429 . S
C1264 C1262 1.420 . S
C1264 N1272 1.362 . S
C1265 C1261 1.411 . S
C1265 C1263 1.420 . S
C1265 C1270 1.395 . S
C1266 C1262 1.423 . S
C1266 C1263 1.351 . S
C1266 H1278 0.930 . S
C1267 C1269 1.400 . S
C1267 C1270 1.386 . S
C1267 H1279 0.930 . S
N1268 C1261 1.377 . S
N1268 C1269 1.321 . S
N1268 Eu1271 2.609 . S
C1269 C1267 1.400 . S
C1269 N1268 1.321 . S
C1269 H1276 0.930 . S
C1270 C1265 1.395 . S
C1270 C1267 1.386 . S
C1270 H1289 0.930 . S
Eu1271 N1268 2.609 . S
Eu1271 N1272 2.657 . S
Eu1271 O1305 2.380 . S
Eu1271 O1306 2.432 . S
Eu1271 O1310 2.558 . S
Eu1271 O1311 2.612 . S
Eu1271 O1313 2.339 . S
Eu1271 O1314 2.563 . S
Eu1271 O1315 2.419 . S
Eu1271 C1335 2.848 . S
N1272 C1264 1.362 . S
N1272 Eu1271 2.657 . S
N1272 C1273 1.334 . S
C1273 N1272 1.334 . S
C1273 C1275 1.413 . S
C1273 H1280 0.929 . S
C1274 C1262 1.392 . S
C1274 C1275 1.367 . S
C1274 H1282 0.930 . S
C1275 C1273 1.413 . S
C1275 C1274 1.367 . S
C1275 H1277 0.930 . S
H1276 C1269 0.930 . S
H1277 C1275 0.930 . S
H1278 C1266 0.930 . S
H1279 C1267 0.930 . S
H1280 C1273 0.929 . S
H1281 C1295 0.930 . S
H1282 C1274 0.930 . S
H1283 C1301 0.930 . S
H1284 C1292 0.910 1_455 S
H1285 C1299 0.930 1_455 S
H1286 C1263 0.931 . S
H1287 C1293 0.930 . S
H1288 C1326 0.930 . S
H1289 C1270 0.930 . S
H1290 C1325 0.931 . S
N1291 Eu1260 2.657 . S
N1291 C1292 1.329 1_455 S
N1291 C1296 1.362 1_455 S
C1292 H1284 0.910 1_655 S
C1292 N1291 1.329 1_655 S
C1292 C1295 1.436 . S
C1293 H1287 0.930 . S
C1293 C1294 1.392 . S
C1293 C1295 1.367 . S
C1294 C1293 1.392 . S
C1294 C1296 1.420 . S
C1294 C1326 1.423 . S
C1295 H1281 0.930 . S
C1295 C1292 1.436 . S
C1295 C1293 1.367 . S
C1296 N1291 1.362 1_655 S
C1296 C1294 1.420 . S
C1296 C1300 1.429 . S
H1297 C1302 0.930 . S
N1298 Eu1260 2.609 . S
N1298 C1300 1.377 1_455 S
N1298 C1301 1.321 . S
C1299 H1285 0.930 1_655 S
C1299 C1301 1.400 1_655 S
C1299 C1302 1.386 . S
C1300 C1296 1.429 . S
C1300 N1298 1.377 1_655 S
C1300 C1303 1.411 . S
C1301 H1283 0.930 . S
C1301 N1298 1.321 . S
C1301 C1299 1.400 1_455 S
C1302 H1297 0.930 . S
C1302 C1299 1.386 . S
C1302 C1303 1.395 . S
C1303 C1300 1.411 . S
C1303 C1302 1.395 . S
C1303 C1325 1.420 . S
O1304 Eu1260 2.558 . S
O1304 C1324 1.257 . S
O1305 Eu1260 2.612 . S
O1305 Eu1271 2.380 . S
O1305 C1316 1.276 . S
O1306 Eu1271 2.432 . S
O1306 C1323 1.264 . S
O1307 Eu1260 2.339 . S
O1307 C1323 1.254 . S
O1308 Eu1260 2.563 . S
O1308 C1316 1.235 . S
O1309 Eu1260 2.419 . S
O1309 C1324 1.249 . S
O1310 Eu1271 2.558 . S
O1310 C1335 1.257 . S
O1311 Eu1260 2.380 . S
O1311 Eu1271 2.612 . S
O1311 C1327 1.276 . S
O1312 Eu1260 2.432 . S
O1312 C1334 1.264 . S
O1313 Eu1271 2.339 . S
O1313 C1334 1.254 . S
O1314 Eu1271 2.563 . S
O1314 C1327 1.235 . S
O1315 Eu1271 2.419 . S
O1315 C1335 1.249 . S
C1316 O1305 1.276 . S
C1316 O1308 1.235 . S
C1317 C1319 1.393 . S
C1317 C1321 1.395 . S
C1317 C1324 1.492 . S
C1318 C1319 1.392 . S
C1318 C1320 1.386 . S
C1319 C1317 1.393 . S
C1319 C1318 1.392 . S
C1319 H1336 0.930 . S
C1320 C1318 1.386 . S
C1320 C1322 1.395 . S
C1320 H1337 0.939 . S
C1321 C1317 1.395 . S
C1321 C1322 1.379 . S
C1321 H1338 0.930 . S
C1322 C1320 1.395 . S
C1322 C1321 1.379 . S
C1322 H1339 0.930 1_455 S
C1323 O1306 1.264 . S
C1323 O1307 1.254 . S
C1324 Eu1260 2.848 . S
C1324 O1304 1.257 . S
C1324 O1309 1.249 . S
C1324 C1317 1.492 . S
C1325 H1290 0.931 . S
C1325 C1303 1.420 . S
C1325 C1326 1.351 . S
C1326 H1288 0.930 . S
C1326 C1294 1.423 . S
C1326 C1325 1.351 . S
C1327 O1311 1.276 . S
C1327 O1314 1.235 . S
C1328 C1329 1.393 . S
C1328 C1332 1.395 . S
C1328 C1335 1.492 . S
C1329 C1328 1.393 . S
C1329 C1330 1.392 . S
C1329 H1340 0.930 . S
C1330 C1329 1.392 . S
C1330 C1331 1.386 . S
C1331 C1330 1.386 . S
C1331 C1333 1.395 . S
C1331 H1341 0.930 . S
C1332 C1328 1.395 . S
C1332 C1333 1.379 . S
C1332 H1342 0.930 . S
C1333 C1331 1.395 . S
C1333 C1332 1.379 . S
C1333 H1343 0.930 . S
C1334 O1312 1.264 . S
C1334 O1313 1.254 . S
C1335 Eu1271 2.848 . S
C1335 O1310 1.257 . S
C1335 O1315 1.249 . S
C1335 C1328 1.492 . S
H1336 C1319 0.930 . S
H1337 C1320 0.939 . S
H1338 C1321 0.930 . S
H1339 C1322 0.930 1_655 S
H1340 C1329 0.930 . S
H1341 C1331 0.930 . S
H1342 C1332 0.930 . S
H1343 C1333 0.930 . S
Eu1344 N1375 2.657 1_545 S
Eu1344 N1382 2.609 . S
Eu1344 O1388 2.558 . S
Eu1344 O1389 2.612 1_545 S
Eu1344 O1391 2.339 1_545 S
Eu1344 O1392 2.563 . S
Eu1344 O1393 2.419 1_545 S
Eu1344 O1395 2.380 . S
Eu1344 O1396 2.432 . S
Eu1344 C1408 2.848 . S
C1345 C1348 1.429 . S
C1345 C1349 1.411 . S
C1345 N1352 1.377 . S
C1346 C1348 1.420 . S
C1346 C1350 1.423 . S
C1346 C1358 1.392 1_565 S
C1347 C1349 1.420 . S
C1347 C1350 1.351 . S
C1347 H1370 0.931 . S
C1348 C1345 1.429 . S
C1348 C1346 1.420 . S
C1348 N1356 1.362 1_565 S
C1349 C1345 1.411 . S
C1349 C1347 1.420 . S
C1349 C1354 1.395 . S
C1350 C1346 1.423 . S
C1350 C1347 1.351 . S
C1350 H1362 0.930 . S
C1351 C1353 1.400 . S
C1351 C1354 1.386 . S
C1351 H1363 0.930 . S
N1352 C1345 1.377 . S
N1352 C1353 1.321 . S
N1352 Eu1355 2.609 . S
C1353 C1351 1.400 . S
C1353 N1352 1.321 . S
C1353 H1360 0.930 . S
C1354 C1349 1.395 . S
C1354 C1351 1.386 . S
C1354 H1373 0.930 . S
Eu1355 N1352 2.609 . S
Eu1355 N1356 2.657 1_565 S
Eu1355 O1389 2.380 . S
Eu1355 O1390 2.432 . S
Eu1355 O1394 2.558 . S
Eu1355 O1395 2.612 1_565 S
Eu1355 O1397 2.339 1_565 S
Eu1355 O1398 2.563 . S
Eu1355 O1399 2.419 1_565 S
Eu1355 C1419 2.848 . S
N1356 C1348 1.362 1_545 S
N1356 Eu1355 2.657 1_545 S
N1356 C1357 1.334 . S
C1357 N1356 1.334 . S
C1357 C1359 1.413 . S
C1357 H1364 0.929 . S
C1358 C1346 1.392 1_545 S
C1358 C1359 1.367 . S
C1358 H1366 0.930 . S
C1359 C1357 1.413 . S
C1359 C1358 1.367 . S
C1359 H1361 0.930 . S
H1360 C1353 0.930 . S
H1361 C1359 0.930 . S
H1362 C1350 0.930 . S
H1363 C1351 0.930 . S
H1364 C1357 0.929 . S
H1365 C1379 0.930 . S
H1366 C1358 0.930 . S
H1367 C1385 0.930 . S
H1368 C1376 0.929 . S
H1369 C1383 0.930 . S
H1370 C1347 0.931 . S
H1371 C1377 0.930 . S
H1372 C1410 0.930 . S
H1373 C1354 0.930 . S
H1374 C1409 0.931 . S
N1375 Eu1344 2.657 1_565 S
N1375 C1376 1.334 . S
N1375 C1380 1.362 1_565 S
C1376 H1368 0.929 . S
C1376 N1375 1.334 . S
C1376 C1379 1.413 . S
C1377 H1371 0.930 . S
C1377 C1378 1.392 1_565 S
C1377 C1379 1.367 . S
C1378 C1377 1.392 1_545 S
C1378 C1380 1.420 . S
C1378 C1410 1.423 . S
C1379 H1365 0.930 . S
C1379 C1376 1.413 . S
C1379 C1377 1.367 . S
C1380 N1375 1.362 1_545 S
C1380 C1378 1.420 . S
C1380 C1384 1.429 . S
H1381 C1386 0.930 . S
N1382 Eu1344 2.609 . S
N1382 C1384 1.377 . S
N1382 C1385 1.321 . S
C1383 H1369 0.930 . S
C1383 C1385 1.400 . S
C1383 C1386 1.386 . S
C1384 C1380 1.429 . S
C1384 N1382 1.377 . S
C1384 C1387 1.411 . S
C1385 H1367 0.930 . S
C1385 N1382 1.321 . S
C1385 C1383 1.400 . S
C1386 H1381 0.930 . S
C1386 C1383 1.386 . S
C1386 C1387 1.395 . S
C1387 C1384 1.411 . S
C1387 C1386 1.395 . S
C1387 C1409 1.420 . S
O1388 Eu1344 2.558 . S
O1388 C1408 1.257 . S
O1389 Eu1344 2.612 1_565 S
O1389 Eu1355 2.380 . S
O1389 C1400 1.276 1_565 S
O1390 Eu1355 2.432 . S
O1390 C1407 1.264 . S
O1391 Eu1344 2.339 1_565 S
O1391 C1407 1.254 . S
O1392 Eu1344 2.563 . S
O1392 C1400 1.234 . S
O1393 Eu1344 2.419 1_565 S
O1393 C1408 1.249 1_565 S
O1394 Eu1355 2.558 . S
O1394 C1419 1.257 . S
O1395 Eu1344 2.380 . S
O1395 Eu1355 2.612 1_545 S
O1395 C1411 1.276 . S
O1396 Eu1344 2.432 . S
O1396 C1418 1.264 . S
O1397 Eu1355 2.339 1_545 S
O1397 C1418 1.254 . S
O1398 Eu1355 2.563 . S
O1398 C1411 1.234 1_565 S
O1399 Eu1355 2.419 1_545 S
O1399 C1419 1.249 1_545 S
C1400 O1389 1.276 1_545 S
C1400 O1392 1.234 . S
C1401 C1403 1.393 1_545 S
C1401 C1405 1.395 . S
C1401 C1408 1.492 . S
C1402 C1403 1.395 . S
C1402 C1404 1.342 1_565 S
C1403 C1401 1.393 1_565 S
C1403 C1402 1.395 . S
C1403 H1420 0.930 . S
C1404 C1402 1.342 1_545 S
C1404 C1406 1.395 . S
C1404 H1421 0.930 . S
C1405 C1401 1.395 . S
C1405 C1406 1.379 . S
C1405 H1422 0.930 . S
C1406 C1404 1.395 . S
C1406 C1405 1.379 . S
C1406 H1423 0.930 . S
C1407 O1390 1.264 . S
C1407 O1391 1.254 . S
C1408 Eu1344 2.848 . S
C1408 O1388 1.257 . S
C1408 O1393 1.249 1_545 S
C1408 C1401 1.492 . S
C1409 H1374 0.931 . S
C1409 C1387 1.420 . S
C1409 C1410 1.351 . S
C1410 H1372 0.930 . S
C1410 C1378 1.423 . S
C1410 C1409 1.351 . S
C1411 O1395 1.276 . S
C1411 O1398 1.234 1_545 S
C1412 C1413 1.393 1_565 S
C1412 C1416 1.395 . S
C1412 C1419 1.492 . S
C1413 C1412 1.393 1_545 S
C1413 C1414 1.392 . S
C1413 H1424 0.930 . S
C1414 C1413 1.392 . S
C1414 C1415 1.386 1_545 S
C1415 C1414 1.386 1_565 S
C1415 C1417 1.395 . S
C1415 H1425 0.930 . S
C1416 C1412 1.395 . S
C1416 C1417 1.379 . S
C1416 H1426 0.930 . S
C1417 C1415 1.395 . S
C1417 C1416 1.379 . S
C1417 H1427 0.930 . S
C1418 O1396 1.264 . S
C1418 O1397 1.254 . S
C1419 Eu1355 2.848 . S
C1419 O1394 1.257 . S
C1419 O1399 1.249 1_565 S
C1419 C1412 1.492 . S
H1420 C1403 0.930 . S
H1421 C1404 0.930 . S
H1422 C1405 0.930 . S
H1423 C1406 0.930 . S
H1424 C1413 0.930 . S
H1425 C1415 0.930 . S
H1426 C1416 0.930 . S
H1427 C1417 0.930 . S
Eu1428 N1459 2.657 . S
Eu1428 N1466 2.609 . S
Eu1428 O1472 2.558 . S
Eu1428 O1473 2.612 . S
Eu1428 O1475 2.339 . S
Eu1428 O1476 2.563 . S
Eu1428 O1477 2.419 . S
Eu1428 O1479 2.380 . S
Eu1428 O1480 2.432 . S
Eu1428 C1492 2.848 . S
C1429 C1432 1.429 . S
C1429 C1433 1.411 . S
C1429 N1436 1.377 . S
C1430 C1432 1.420 . S
C1430 C1434 1.423 . S
C1430 C1442 1.392 . S
C1431 C1433 1.420 . S
C1431 C1434 1.351 . S
C1431 H1454 0.931 . S
C1432 C1429 1.429 . S
C1432 C1430 1.420 . S
C1432 N1440 1.362 . S
C1433 C1429 1.411 . S
C1433 C1431 1.420 . S
C1433 C1438 1.395 . S
C1434 C1430 1.423 . S
C1434 C1431 1.351 . S
C1434 H1446 0.930 . S
C1435 C1437 1.400 . S
C1435 C1438 1.386 . S
C1435 H1447 0.930 . S
N1436 C1429 1.377 . S
N1436 C1437 1.321 . S
N1436 Eu1439 2.609 . S
C1437 C1435 1.400 . S
C1437 N1436 1.321 . S
C1437 H1444 0.930 . S
C1438 C1433 1.395 . S
C1438 C1435 1.386 . S
C1438 H1457 0.930 . S
Eu1439 N1436 2.609 . S
Eu1439 N1440 2.657 . S
Eu1439 O1473 2.380 . S
Eu1439 O1474 2.432 . S
Eu1439 O1478 2.558 . S
Eu1439 O1479 2.612 . S
Eu1439 O1481 2.339 . S
Eu1439 O1482 2.563 . S
Eu1439 O1483 2.419 . S
Eu1439 C1503 2.848 . S
N1440 C1432 1.362 . S
N1440 Eu1439 2.657 . S
N1440 C1441 1.334 . S
C1441 N1440 1.334 . S
C1441 C1443 1.413 . S
C1441 H1448 0.929 . S
C1442 C1430 1.392 . S
C1442 C1443 1.367 . S
C1442 H1450 0.930 . S
C1443 C1441 1.413 . S
C1443 C1442 1.367 . S
C1443 H1445 0.930 . S
H1444 C1437 0.930 . S
H1445 C1443 0.930 . S
H1446 C1434 0.930 . S
H1447 C1435 0.930 . S
H1448 C1441 0.929 . S
H1449 C1463 0.930 . S
H1450 C1442 0.930 . S
H1451 C1469 0.930 . S
H1452 C1460 0.929 . S
H1453 C1467 0.930 . S
H1454 C1431 0.931 . S
H1455 C1461 0.930 . S
H1456 C1494 0.930 . S
H1457 C1438 0.930 . S
H1458 C1493 0.931 . S
N1459 Eu1428 2.657 . S
N1459 C1460 1.334 . S
N1459 C1464 1.362 . S
C1460 H1452 0.929 . S
C1460 N1459 1.334 . S
C1460 C1463 1.413 . S
C1461 H1455 0.930 . S
C1461 C1462 1.392 . S
C1461 C1463 1.367 . S
C1462 C1461 1.392 . S
C1462 C1464 1.420 . S
C1462 C1494 1.423 . S
C1463 H1449 0.930 . S
C1463 C1460 1.413 . S
C1463 C1461 1.367 . S
C1464 N1459 1.362 . S
C1464 C1462 1.420 . S
C1464 C1468 1.429 . S
H1465 C1470 0.930 . S
N1466 Eu1428 2.609 . S
N1466 C1468 1.377 . S
N1466 C1469 1.321 . S
C1467 H1453 0.930 . S
C1467 C1469 1.400 . S
C1467 C1470 1.386 . S
C1468 C1464 1.429 . S
C1468 N1466 1.377 . S
C1468 C1471 1.411 . S
C1469 H1451 0.930 . S
C1469 N1466 1.321 . S
C1469 C1467 1.400 . S
C1470 H1465 0.930 . S
C1470 C1467 1.386 . S
C1470 C1471 1.395 . S
C1471 C1468 1.411 . S
C1471 C1470 1.395 . S
C1471 C1493 1.420 . S
O1472 Eu1428 2.558 . S
O1472 C1492 1.257 . S
O1473 Eu1428 2.612 . S
O1473 Eu1439 2.380 . S
O1473 C1484 1.276 . S
O1474 Eu1439 2.432 . S
O1474 C1491 1.264 . S
O1475 Eu1428 2.339 . S
O1475 C1491 1.254 . S
O1476 Eu1428 2.563 . S
O1476 C1484 1.235 . S
O1477 Eu1428 2.419 . S
O1477 C1492 1.249 . S
O1478 Eu1439 2.558 . S
O1478 C1503 1.257 . S
O1479 Eu1428 2.380 . S
O1479 Eu1439 2.612 . S
O1479 C1495 1.276 . S
O1480 Eu1428 2.432 . S
O1480 C1502 1.264 . S
O1481 Eu1439 2.339 . S
O1481 C1502 1.254 . S
O1482 Eu1439 2.563 . S
O1482 C1495 1.235 . S
O1483 Eu1439 2.419 . S
O1483 C1503 1.249 . S
C1484 O1473 1.276 . S
C1484 O1476 1.235 . S
C1485 C1487 1.393 . S
C1485 C1489 1.395 . S
C1485 C1492 1.492 . S
C1486 C1487 1.392 . S
C1486 C1488 1.386 . S
C1487 C1485 1.393 . S
C1487 C1486 1.392 . S
C1487 H1504 0.930 . S
C1488 C1486 1.386 . S
C1488 C1490 1.395 . S
C1488 H1505 0.930 . S
C1489 C1485 1.395 . S
C1489 C1490 1.379 . S
C1489 H1506 0.930 . S
C1490 C1488 1.395 . S
C1490 C1489 1.379 . S
C1490 H1507 0.930 . S
C1491 O1474 1.264 . S
C1491 O1475 1.254 . S
C1492 Eu1428 2.848 . S
C1492 O1472 1.257 . S
C1492 O1477 1.249 . S
C1492 C1485 1.492 . S
C1493 H1458 0.931 . S
C1493 C1471 1.420 . S
C1493 C1494 1.351 . S
C1494 H1456 0.930 . S
C1494 C1462 1.423 . S
C1494 C1493 1.351 . S
C1495 O1479 1.276 . S
C1495 O1482 1.235 . S
C1496 C1497 1.393 . S
C1496 C1500 1.395 . S
C1496 C1503 1.492 . S
C1497 C1496 1.393 . S
C1497 C1498 1.392 . S
C1497 H1508 0.930 . S
C1498 C1497 1.392 . S
C1498 C1499 1.386 . S
C1499 C1498 1.386 . S
C1499 C1501 1.395 . S
C1499 H1509 0.930 . S
C1500 C1496 1.395 . S
C1500 C1501 1.379 . S
C1500 H1510 0.930 . S
C1501 C1499 1.395 . S
C1501 C1500 1.379 . S
C1501 H1511 0.930 . S
C1502 O1480 1.264 . S
C1502 O1481 1.254 . S
C1503 Eu1439 2.848 . S
C1503 O1478 1.257 . S
C1503 O1483 1.249 . S
C1503 C1496 1.492 . S
H1504 C1487 0.930 . S
H1505 C1488 0.930 . S
H1506 C1489 0.930 . S
H1507 C1490 0.930 . S
H1508 C1497 0.930 . S
H1509 C1499 0.930 . S
H1510 C1500 0.930 . S
H1511 C1501 0.930 . S
Eu1512 N1543 2.657 . S
Eu1512 N1550 2.609 . S
Eu1512 O1556 2.558 . S
Eu1512 O1557 2.612 . S
Eu1512 O1559 2.339 . S
Eu1512 O1560 2.563 . S
Eu1512 O1561 2.419 . S
Eu1512 O1563 2.380 . S
Eu1512 O1564 2.432 . S
Eu1512 C1576 2.848 . S
C1513 C1516 1.429 . S
C1513 C1517 1.411 . S
C1513 N1520 1.377 . S
C1514 C1516 1.420 . S
C1514 C1518 1.423 . S
C1514 C1526 1.392 . S
C1515 C1517 1.420 . S
C1515 C1518 1.351 . S
C1515 H1538 0.931 . S
C1516 C1513 1.429 . S
C1516 C1514 1.420 . S
C1516 N1524 1.362 . S
C1517 C1513 1.411 . S
C1517 C1515 1.420 . S
C1517 C1522 1.395 . S
C1518 C1514 1.423 . S
C1518 C1515 1.351 . S
C1518 H1530 0.930 . S
C1519 C1521 1.400 . S
C1519 C1522 1.386 . S
C1519 H1531 0.930 . S
N1520 C1513 1.377 . S
N1520 C1521 1.321 . S
N1520 Eu1523 2.609 . S
C1521 C1519 1.400 . S
C1521 N1520 1.321 . S
C1521 H1528 0.930 . S
C1522 C1517 1.395 . S
C1522 C1519 1.386 . S
C1522 H1541 0.930 . S
Eu1523 N1520 2.609 . S
Eu1523 N1524 2.657 . S
Eu1523 O1557 2.380 . S
Eu1523 O1558 2.432 . S
Eu1523 O1562 2.558 . S
Eu1523 O1563 2.612 . S
Eu1523 O1565 2.339 . S
Eu1523 O1566 2.563 . S
Eu1523 O1567 2.419 . S
Eu1523 C1587 2.848 . S
N1524 C1516 1.362 . S
N1524 Eu1523 2.657 . S
N1524 C1525 1.334 . S
C1525 N1524 1.334 . S
C1525 C1527 1.413 . S
C1525 H1532 0.929 . S
C1526 C1514 1.392 . S
C1526 C1527 1.367 . S
C1526 H1534 0.930 . S
C1527 C1525 1.413 . S
C1527 C1526 1.367 . S
C1527 H1529 0.930 . S
H1528 C1521 0.930 . S
H1529 C1527 0.930 . S
H1530 C1518 0.930 . S
H1531 C1519 0.930 . S
H1532 C1525 0.929 . S
H1533 C1547 0.930 . S
H1534 C1526 0.930 . S
H1535 C1553 0.930 . S
H1536 C1544 0.929 . S
H1537 C1551 0.930 . S
H1538 C1515 0.931 . S
H1539 C1545 0.930 . S
H1540 C1578 0.930 . S
H1541 C1522 0.930 . S
H1542 C1577 0.931 . S
N1543 Eu1512 2.657 . S
N1543 C1544 1.334 . S
N1543 C1548 1.362 . S
C1544 H1536 0.929 . S
C1544 N1543 1.334 . S
C1544 C1547 1.413 . S
C1545 H1539 0.930 . S
C1545 C1546 1.392 . S
C1545 C1547 1.367 . S
C1546 C1545 1.392 . S
C1546 C1548 1.420 . S
C1546 C1578 1.423 . S
C1547 H1533 0.930 . S
C1547 C1544 1.413 . S
C1547 C1545 1.367 . S
C1548 N1543 1.362 . S
C1548 C1546 1.420 . S
C1548 C1552 1.429 . S
H1549 C1554 0.930 . S
N1550 Eu1512 2.609 . S
N1550 C1552 1.377 . S
N1550 C1553 1.321 . S
C1551 H1537 0.930 . S
C1551 C1553 1.400 . S
C1551 C1554 1.386 . S
C1552 C1548 1.429 . S
C1552 N1550 1.377 . S
C1552 C1555 1.411 . S
C1553 H1535 0.930 . S
C1553 N1550 1.321 . S
C1553 C1551 1.400 . S
C1554 H1549 0.930 . S
C1554 C1551 1.386 . S
C1554 C1555 1.395 . S
C1555 C1552 1.411 . S
C1555 C1554 1.395 . S
C1555 C1577 1.420 . S
O1556 Eu1512 2.558 . S
O1556 C1576 1.257 . S
O1557 Eu1512 2.612 . S
O1557 Eu1523 2.380 . S
O1557 C1568 1.276 . S
O1558 Eu1523 2.432 . S
O1558 C1575 1.264 . S
O1559 Eu1512 2.339 . S
O1559 C1575 1.254 . S
O1560 Eu1512 2.563 . S
O1560 C1568 1.235 . S
O1561 Eu1512 2.419 . S
O1561 C1576 1.249 . S
O1562 Eu1523 2.558 . S
O1562 C1587 1.257 . S
O1563 Eu1512 2.380 . S
O1563 Eu1523 2.612 . S
O1563 C1579 1.276 . S
O1564 Eu1512 2.432 . S
O1564 C1586 1.264 . S
O1565 Eu1523 2.339 . S
O1565 C1586 1.254 . S
O1566 Eu1523 2.563 . S
O1566 C1579 1.235 . S
O1567 Eu1523 2.419 . S
O1567 C1587 1.249 . S
C1568 O1557 1.276 . S
C1568 O1560 1.235 . S
C1569 C1571 1.393 . S
C1569 C1573 1.395 . S
C1569 C1576 1.492 . S
C1570 C1571 1.392 . S
C1570 C1572 1.386 . S
C1571 C1569 1.393 . S
C1571 C1570 1.392 . S
C1571 H1588 0.930 . S
C1572 C1570 1.386 . S
C1572 C1574 1.395 . S
C1572 H1589 0.930 . S
C1573 C1569 1.395 . S
C1573 C1574 1.379 . S
C1573 H1590 0.930 . S
C1574 C1572 1.395 . S
C1574 C1573 1.379 . S
C1574 H1591 0.930 . S
C1575 O1558 1.264 . S
C1575 O1559 1.254 . S
C1576 Eu1512 2.848 . S
C1576 O1556 1.257 . S
C1576 O1561 1.249 . S
C1576 C1569 1.492 . S
C1577 H1542 0.931 . S
C1577 C1555 1.420 . S
C1577 C1578 1.351 . S
C1578 H1540 0.930 . S
C1578 C1546 1.423 . S
C1578 C1577 1.351 . S
C1579 O1563 1.276 . S
C1579 O1566 1.235 . S
C1580 C1581 1.393 . S
C1580 C1584 1.395 . S
C1580 C1587 1.492 . S
C1581 C1580 1.393 . S
C1581 C1582 1.392 . S
C1581 H1592 0.930 . S
C1582 C1581 1.392 . S
C1582 C1583 1.386 . S
C1583 C1582 1.386 . S
C1583 C1585 1.395 . S
C1583 H1593 0.930 . S
C1584 C1580 1.395 . S
C1584 C1585 1.379 . S
C1584 H1594 0.930 . S
C1585 C1583 1.395 . S
C1585 C1584 1.379 . S
C1585 H1595 0.930 . S
C1586 O1564 1.264 . S
C1586 O1565 1.254 . S
C1587 Eu1523 2.848 . S
C1587 O1562 1.257 . S
C1587 O1567 1.249 . S
C1587 C1580 1.492 . S
H1588 C1571 0.930 . S
H1589 C1572 0.930 . S
H1590 C1573 0.930 . S
H1591 C1574 0.930 . S
H1592 C1581 0.930 . S
H1593 C1583 0.930 . S
H1594 C1584 0.930 . S
H1595 C1585 0.930 . S
Eu1596 N1627 2.657 1_545 S
Eu1596 N1634 2.609 . S
Eu1596 O1640 2.558 . S
Eu1596 O1641 2.612 1_545 S
Eu1596 O1643 2.339 1_545 S
Eu1596 O1644 2.563 . S
Eu1596 O1645 2.419 1_545 S
Eu1596 O1647 2.380 . S
Eu1596 O1648 2.432 . S
Eu1596 C1660 2.848 . S
C1597 C1600 1.429 . S
C1597 C1601 1.411 . S
C1597 N1604 1.377 . S
C1598 C1600 1.420 . S
C1598 C1602 1.423 . S
C1598 C1610 1.392 1_565 S
C1599 C1601 1.420 . S
C1599 C1602 1.351 . S
C1599 H1622 0.931 . S
C1600 C1597 1.429 . S
C1600 C1598 1.420 . S
C1600 N1608 1.362 1_565 S
C1601 C1597 1.411 . S
C1601 C1599 1.420 . S
C1601 C1606 1.395 . S
C1602 C1598 1.423 . S
C1602 C1599 1.351 . S
C1602 H1614 0.930 . S
C1603 C1605 1.400 . S
C1603 C1606 1.386 . S
C1603 H1615 0.930 . S
N1604 C1597 1.377 . S
N1604 C1605 1.321 . S
N1604 Eu1607 2.609 . S
C1605 C1603 1.400 . S
C1605 N1604 1.321 . S
C1605 H1612 0.930 . S
C1606 C1601 1.395 . S
C1606 C1603 1.386 . S
C1606 H1625 0.930 . S
Eu1607 N1604 2.609 . S
Eu1607 N1608 2.657 1_565 S
Eu1607 O1641 2.380 . S
Eu1607 O1642 2.432 . S
Eu1607 O1646 2.558 . S
Eu1607 O1647 2.612 1_565 S
Eu1607 O1649 2.339 1_565 S
Eu1607 O1650 2.563 . S
Eu1607 O1651 2.419 1_565 S
Eu1607 C1671 2.848 . S
N1608 C1600 1.362 1_545 S
N1608 Eu1607 2.657 1_545 S
N1608 C1609 1.334 . S
C1609 N1608 1.334 . S
C1609 C1611 1.413 . S
C1609 H1616 0.929 . S
C1610 C1598 1.392 1_545 S
C1610 C1611 1.367 . S
C1610 H1618 0.930 . S
C1611 C1609 1.413 . S
C1611 C1610 1.367 . S
C1611 H1613 0.930 . S
H1612 C1605 0.930 . S
H1613 C1611 0.930 . S
H1614 C1602 0.930 . S
H1615 C1603 0.930 . S
H1616 C1609 0.929 . S
H1617 C1631 0.930 . S
H1618 C1610 0.930 . S
H1619 C1637 0.930 . S
H1620 C1628 0.929 . S
H1621 C1635 0.930 . S
H1622 C1599 0.931 . S
H1623 C1629 0.930 . S
H1624 C1662 0.930 . S
H1625 C1606 0.930 . S
H1626 C1661 0.931 . S
N1627 Eu1596 2.657 1_565 S
N1627 C1628 1.334 . S
N1627 C1632 1.362 1_565 S
C1628 H1620 0.929 . S
C1628 N1627 1.334 . S
C1628 C1631 1.413 . S
C1629 H1623 0.930 . S
C1629 C1630 1.392 1_565 S
C1629 C1631 1.367 . S
C1630 C1629 1.392 1_545 S
C1630 C1632 1.420 . S
C1630 C1662 1.423 . S
C1631 H1617 0.930 . S
C1631 C1628 1.413 . S
C1631 C1629 1.367 . S
C1632 N1627 1.362 1_545 S
C1632 C1630 1.420 . S
C1632 C1636 1.429 . S
H1633 C1638 0.930 . S
N1634 Eu1596 2.609 . S
N1634 C1636 1.377 . S
N1634 C1637 1.321 . S
C1635 H1621 0.930 . S
C1635 C1637 1.400 . S
C1635 C1638 1.386 . S
C1636 C1632 1.429 . S
C1636 N1634 1.377 . S
C1636 C1639 1.411 . S
C1637 H1619 0.930 . S
C1637 N1634 1.321 . S
C1637 C1635 1.400 . S
C1638 H1633 0.930 . S
C1638 C1635 1.386 . S
C1638 C1639 1.395 . S
C1639 C1636 1.411 . S
C1639 C1638 1.395 . S
C1639 C1661 1.420 . S
O1640 Eu1596 2.558 . S
O1640 C1660 1.257 . S
O1641 Eu1596 2.612 1_565 S
O1641 Eu1607 2.380 . S
O1641 C1652 1.276 1_565 S
O1642 Eu1607 2.432 . S
O1642 C1659 1.264 . S
O1643 Eu1596 2.339 1_565 S
O1643 C1659 1.254 . S
O1644 Eu1596 2.563 . S
O1644 C1652 1.234 . S
O1645 Eu1596 2.419 1_565 S
O1645 C1660 1.249 1_565 S
O1646 Eu1607 2.558 . S
O1646 C1671 1.257 . S
O1647 Eu1596 2.380 . S
O1647 Eu1607 2.612 1_545 S
O1647 C1663 1.276 . S
O1648 Eu1596 2.432 . S
O1648 C1670 1.264 . S
O1649 Eu1607 2.339 1_545 S
O1649 C1670 1.254 . S
O1650 Eu1607 2.563 . S
O1650 C1663 1.234 1_565 S
O1651 Eu1607 2.419 1_545 S
O1651 C1671 1.249 1_545 S
C1652 O1641 1.276 1_545 S
C1652 O1644 1.234 . S
C1653 C1655 1.393 1_545 S
C1653 C1657 1.395 . S
C1653 C1660 1.492 . S
C1654 C1655 1.395 . S
C1654 C1656 1.342 1_565 S
C1655 C1653 1.393 1_565 S
C1655 C1654 1.395 . S
C1655 H1672 0.930 . S
C1656 C1654 1.342 1_545 S
C1656 C1658 1.395 . S
C1656 H1673 0.930 . S
C1657 C1653 1.395 . S
C1657 C1658 1.379 . S
C1657 H1674 0.930 . S
C1658 C1656 1.395 . S
C1658 C1657 1.379 . S
C1658 H1675 0.930 . S
C1659 O1642 1.264 . S
C1659 O1643 1.254 . S
C1660 Eu1596 2.848 . S
C1660 O1640 1.257 . S
C1660 O1645 1.249 1_545 S
C1660 C1653 1.492 . S
C1661 H1626 0.931 . S
C1661 C1639 1.420 . S
C1661 C1662 1.351 . S
C1662 H1624 0.930 . S
C1662 C1630 1.423 . S
C1662 C1661 1.351 . S
C1663 O1647 1.276 . S
C1663 O1650 1.234 1_545 S
C1664 C1665 1.393 1_565 S
C1664 C1668 1.395 . S
C1664 C1671 1.492 . S
C1665 C1664 1.393 1_545 S
C1665 C1666 1.392 . S
C1665 H1676 0.930 . S
C1666 C1665 1.392 . S
C1666 C1667 1.386 1_545 S
C1667 C1666 1.386 1_565 S
C1667 C1669 1.395 . S
C1667 H1677 0.930 . S
C1668 C1664 1.395 . S
C1668 C1669 1.379 . S
C1668 H1678 0.930 . S
C1669 C1667 1.395 . S
C1669 C1668 1.379 . S
C1669 H1679 0.930 . S
C1670 O1648 1.264 . S
C1670 O1649 1.254 . S
C1671 Eu1607 2.848 . S
C1671 O1646 1.257 . S
C1671 O1651 1.249 1_565 S
C1671 C1664 1.492 . S
H1672 C1655 0.930 . S
H1673 C1656 0.930 . S
H1674 C1657 0.930 . S
H1675 C1658 0.930 . S
H1676 C1665 0.930 . S
H1677 C1667 0.930 . S
H1678 C1668 0.930 . S
H1679 C1669 0.930 . S
Eu1680 N1711 2.657 1_545 S
Eu1680 N1718 2.609 . S
Eu1680 O1724 2.558 . S
Eu1680 O1725 2.612 1_545 S
Eu1680 O1727 2.339 1_545 S
Eu1680 O1728 2.563 . S
Eu1680 O1729 2.419 1_545 S
Eu1680 O1731 2.380 . S
Eu1680 O1732 2.432 . S
Eu1680 C1744 2.848 . S
C1681 C1684 1.429 . S
C1681 C1685 1.411 . S
C1681 N1688 1.377 . S
C1682 C1684 1.420 . S
C1682 C1686 1.423 . S
C1682 C1694 1.392 1_565 S
C1683 C1685 1.420 . S
C1683 C1686 1.351 . S
C1683 H1706 0.931 . S
C1684 C1681 1.429 . S
C1684 C1682 1.420 . S
C1684 N1692 1.362 1_565 S
C1685 C1681 1.411 . S
C1685 C1683 1.420 . S
C1685 C1690 1.395 . S
C1686 C1682 1.423 . S
C1686 C1683 1.351 . S
C1686 H1698 0.930 . S
C1687 C1689 1.400 . S
C1687 C1690 1.386 . S
C1687 H1699 0.930 . S
N1688 C1681 1.377 . S
N1688 C1689 1.321 . S
N1688 Eu1691 2.609 . S
C1689 C1687 1.400 . S
C1689 N1688 1.321 . S
C1689 H1696 0.930 . S
C1690 C1685 1.395 . S
C1690 C1687 1.386 . S
C1690 H1709 0.930 . S
Eu1691 N1688 2.609 . S
Eu1691 N1692 2.657 1_565 S
Eu1691 O1725 2.380 . S
Eu1691 O1726 2.432 . S
Eu1691 O1730 2.558 . S
Eu1691 O1731 2.612 1_565 S
Eu1691 O1733 2.339 1_565 S
Eu1691 O1734 2.563 . S
Eu1691 O1735 2.419 1_565 S
Eu1691 C1755 2.848 . S
N1692 C1684 1.362 1_545 S
N1692 Eu1691 2.657 1_545 S
N1692 C1693 1.334 . S
C1693 N1692 1.334 . S
C1693 C1695 1.413 . S
C1693 H1700 0.929 . S
C1694 C1682 1.392 1_545 S
C1694 C1695 1.367 . S
C1694 H1702 0.930 . S
C1695 C1693 1.413 . S
C1695 C1694 1.367 . S
C1695 H1697 0.930 . S
H1696 C1689 0.930 . S
H1697 C1695 0.930 . S
H1698 C1686 0.930 . S
H1699 C1687 0.930 . S
H1700 C1693 0.929 . S
H1701 C1715 0.930 . S
H1702 C1694 0.930 . S
H1703 C1721 0.930 . S
H1704 C1712 0.929 . S
H1705 C1719 0.930 . S
H1706 C1683 0.931 . S
H1707 C1713 0.930 . S
H1708 C1746 0.930 . S
H1709 C1690 0.930 . S
H1710 C1745 0.931 . S
N1711 Eu1680 2.657 1_565 S
N1711 C1712 1.334 . S
N1711 C1716 1.362 1_565 S
C1712 H1704 0.929 . S
C1712 N1711 1.334 . S
C1712 C1715 1.413 . S
C1713 H1707 0.930 . S
C1713 C1714 1.392 1_565 S
C1713 C1715 1.367 . S
C1714 C1713 1.392 1_545 S
C1714 C1716 1.420 . S
C1714 C1746 1.423 . S
C1715 H1701 0.930 . S
C1715 C1712 1.413 . S
C1715 C1713 1.367 . S
C1716 N1711 1.362 1_545 S
C1716 C1714 1.420 . S
C1716 C1720 1.429 . S
H1717 C1722 0.930 . S
N1718 Eu1680 2.609 . S
N1718 C1720 1.377 . S
N1718 C1721 1.321 . S
C1719 H1705 0.930 . S
C1719 C1721 1.400 . S
C1719 C1722 1.386 . S
C1720 C1716 1.429 . S
C1720 N1718 1.377 . S
C1720 C1723 1.411 . S
C1721 H1703 0.930 . S
C1721 N1718 1.321 . S
C1721 C1719 1.400 . S
C1722 H1717 0.930 . S
C1722 C1719 1.386 . S
C1722 C1723 1.395 . S
C1723 C1720 1.411 . S
C1723 C1722 1.395 . S
C1723 C1745 1.420 . S
O1724 Eu1680 2.558 . S
O1724 C1744 1.257 . S
O1725 Eu1680 2.612 1_565 S
O1725 Eu1691 2.380 . S
O1725 C1736 1.276 . S
O1726 Eu1691 2.432 . S
O1726 C1743 1.264 . S
O1727 Eu1680 2.339 1_565 S
O1727 C1743 1.254 . S
O1728 Eu1680 2.563 . S
O1728 C1736 1.234 1_545 S
O1729 Eu1680 2.419 1_565 S
O1729 C1744 1.249 1_565 S
O1730 Eu1691 2.558 . S
O1730 C1755 1.257 . S
O1731 Eu1680 2.380 . S
O1731 Eu1691 2.612 1_545 S
O1731 C1747 1.276 1_545 S
O1732 Eu1680 2.432 . S
O1732 C1754 1.264 . S
O1733 Eu1691 2.339 1_545 S
O1733 C1754 1.254 . S
O1734 Eu1691 2.563 . S
O1734 C1747 1.234 . S
O1735 Eu1691 2.419 1_545 S
O1735 C1755 1.249 1_545 S
C1736 O1725 1.276 . S
C1736 O1728 1.234 1_565 S
C1737 C1739 1.393 1_545 S
C1737 C1741 1.395 . S
C1737 C1744 1.492 . S
C1738 C1739 1.392 . S
C1738 C1740 1.386 1_565 S
C1739 C1737 1.393 1_565 S
C1739 C1738 1.392 . S
C1739 H1756 0.930 . S
C1740 C1738 1.386 1_545 S
C1740 C1742 1.395 . S
C1740 H1757 0.930 . S
C1741 C1737 1.395 . S
C1741 C1742 1.379 . S
C1741 H1758 0.930 . S
C1742 C1740 1.395 . S
C1742 C1741 1.379 . S
C1742 H1759 0.930 . S
C1743 O1726 1.264 . S
C1743 O1727 1.254 . S
C1744 Eu1680 2.848 . S
C1744 O1724 1.257 . S
C1744 O1729 1.249 1_545 S
C1744 C1737 1.492 . S
C1745 H1710 0.931 . S
C1745 C1723 1.420 . S
C1745 C1746 1.351 . S
C1746 H1708 0.930 . S
C1746 C1714 1.423 . S
C1746 C1745 1.351 . S
C1747 O1731 1.276 1_565 S
C1747 O1734 1.234 . S
C1748 C1749 1.393 1_565 S
C1748 C1752 1.395 . S
C1748 C1755 1.492 . S
C1749 C1748 1.393 1_545 S
C1749 C1750 1.395 . S
C1749 H1760 0.930 . S
C1750 C1749 1.395 . S
C1750 C1751 1.342 1_545 S
C1751 C1750 1.342 1_565 S
C1751 C1753 1.395 . S
C1751 H1761 0.930 . S
C1752 C1748 1.395 . S
C1752 C1753 1.379 . S
C1752 H1762 0.930 . S
C1753 C1751 1.395 . S
C1753 C1752 1.379 . S
C1753 H1763 0.930 . S
C1754 O1732 1.264 . S
C1754 O1733 1.254 . S
C1755 Eu1691 2.848 . S
C1755 O1730 1.257 . S
C1755 O1735 1.249 1_565 S
C1755 C1748 1.492 . S
H1756 C1739 0.930 . S
H1757 C1740 0.930 . S
H1758 C1741 0.930 . S
H1759 C1742 0.930 . S
H1760 C1749 0.930 . S
H1761 C1751 0.930 . S
H1762 C1752 0.930 . S
H1763 C1753 0.930 . S
Eu1764 N1795 2.657 . S
Eu1764 N1802 2.609 . S
Eu1764 O1808 2.558 . S
Eu1764 O1809 2.612 . S
Eu1764 O1811 2.339 . S
Eu1764 O1812 2.563 . S
Eu1764 O1813 2.419 . S
Eu1764 O1815 2.380 . S
Eu1764 O1816 2.432 . S
Eu1764 C1828 2.848 . S
C1765 C1768 1.429 . S
C1765 C1769 1.411 . S
C1765 N1772 1.377 . S
C1766 C1768 1.420 . S
C1766 C1770 1.423 . S
C1766 C1778 1.392 . S
C1767 C1769 1.420 . S
C1767 C1770 1.351 . S
C1767 H1790 0.931 . S
C1768 C1765 1.429 . S
C1768 C1766 1.420 . S
C1768 N1776 1.362 . S
C1769 C1765 1.411 . S
C1769 C1767 1.420 . S
C1769 C1774 1.395 . S
C1770 C1766 1.423 . S
C1770 C1767 1.351 . S
C1770 H1782 0.930 . S
C1771 C1773 1.400 . S
C1771 C1774 1.386 . S
C1771 H1783 0.930 . S
N1772 C1765 1.377 . S
N1772 C1773 1.321 . S
N1772 Eu1775 2.609 . S
C1773 C1771 1.400 . S
C1773 N1772 1.321 . S
C1773 H1780 0.930 . S
C1774 C1769 1.395 . S
C1774 C1771 1.386 . S
C1774 H1793 0.930 . S
Eu1775 N1772 2.609 . S
Eu1775 N1776 2.657 . S
Eu1775 O1809 2.380 . S
Eu1775 O1810 2.432 . S
Eu1775 O1814 2.558 . S
Eu1775 O1815 2.612 . S
Eu1775 O1817 2.339 . S
Eu1775 O1818 2.563 . S
Eu1775 O1819 2.419 . S
Eu1775 C1839 2.848 . S
N1776 C1768 1.362 . S
N1776 Eu1775 2.657 . S
N1776 C1777 1.334 . S
C1777 N1776 1.334 . S
C1777 C1779 1.413 . S
C1777 H1784 0.929 . S
C1778 C1766 1.392 . S
C1778 C1779 1.367 . S
C1778 H1786 0.930 . S
C1779 C1777 1.413 . S
C1779 C1778 1.367 . S
C1779 H1781 0.930 . S
H1780 C1773 0.930 . S
H1781 C1779 0.930 . S
H1782 C1770 0.930 . S
H1783 C1771 0.930 . S
H1784 C1777 0.929 . S
H1785 C1799 0.930 . S
H1786 C1778 0.930 . S
H1787 C1805 0.930 . S
H1788 C1796 0.929 . S
H1789 C1803 0.930 . S
H1790 C1767 0.931 . S
H1791 C1797 0.930 . S
H1792 C1830 0.930 . S
H1793 C1774 0.930 . S
H1794 C1829 0.931 . S
N1795 Eu1764 2.657 . S
N1795 C1796 1.334 . S
N1795 C1800 1.362 . S
C1796 H1788 0.929 . S
C1796 N1795 1.334 . S
C1796 C1799 1.413 . S
C1797 H1791 0.930 . S
C1797 C1798 1.392 . S
C1797 C1799 1.367 . S
C1798 C1797 1.392 . S
C1798 C1800 1.420 . S
C1798 C1830 1.423 . S
C1799 H1785 0.930 . S
C1799 C1796 1.413 . S
C1799 C1797 1.367 . S
C1800 N1795 1.362 . S
C1800 C1798 1.420 . S
C1800 C1804 1.429 . S
H1801 C1806 0.930 . S
N1802 Eu1764 2.609 . S
N1802 C1804 1.377 . S
N1802 C1805 1.321 . S
C1803 H1789 0.930 . S
C1803 C1805 1.400 . S
C1803 C1806 1.386 . S
C1804 C1800 1.429 . S
C1804 N1802 1.377 . S
C1804 C1807 1.411 . S
C1805 H1787 0.930 . S
C1805 N1802 1.321 . S
C1805 C1803 1.400 . S
C1806 H1801 0.930 . S
C1806 C1803 1.386 . S
C1806 C1807 1.395 . S
C1807 C1804 1.411 . S
C1807 C1806 1.395 . S
C1807 C1829 1.420 . S
O1808 Eu1764 2.558 . S
O1808 C1828 1.257 . S
O1809 Eu1764 2.612 . S
O1809 Eu1775 2.380 . S
O1809 C1820 1.276 . S
O1810 Eu1775 2.432 . S
O1810 C1827 1.264 . S
O1811 Eu1764 2.339 . S
O1811 C1827 1.254 . S
O1812 Eu1764 2.563 . S
O1812 C1820 1.235 . S
O1813 Eu1764 2.419 . S
O1813 C1828 1.249 . S
O1814 Eu1775 2.558 . S
O1814 C1839 1.257 . S
O1815 Eu1764 2.380 . S
O1815 Eu1775 2.612 . S
O1815 C1831 1.276 . S
O1816 Eu1764 2.432 . S
O1816 C1838 1.264 . S
O1817 Eu1775 2.339 . S
O1817 C1838 1.254 . S
O1818 Eu1775 2.563 . S
O1818 C1831 1.235 . S
O1819 Eu1775 2.419 . S
O1819 C1839 1.249 . S
C1820 O1809 1.276 . S
C1820 O1812 1.235 . S
C1821 C1823 1.393 . S
C1821 C1825 1.395 . S
C1821 C1828 1.492 . S
C1822 C1823 1.392 . S
C1822 C1824 1.386 . S
C1823 C1821 1.393 . S
C1823 C1822 1.392 . S
C1823 H1840 0.930 . S
C1824 C1822 1.386 . S
C1824 C1826 1.395 . S
C1824 H1841 0.930 . S
C1825 C1821 1.395 . S
C1825 C1826 1.379 . S
C1825 H1842 0.930 . S
C1826 C1824 1.395 . S
C1826 C1825 1.379 . S
C1826 H1843 0.930 . S
C1827 O1810 1.264 . S
C1827 O1811 1.254 . S
C1828 Eu1764 2.848 . S
C1828 O1808 1.257 . S
C1828 O1813 1.249 . S
C1828 C1821 1.492 . S
C1829 H1794 0.931 . S
C1829 C1807 1.420 . S
C1829 C1830 1.351 . S
C1830 H1792 0.930 . S
C1830 C1798 1.423 . S
C1830 C1829 1.351 . S
C1831 O1815 1.276 . S
C1831 O1818 1.235 . S
C1832 C1833 1.393 . S
C1832 C1836 1.395 . S
C1832 C1839 1.492 . S
C1833 C1832 1.393 . S
C1833 C1834 1.392 . S
C1833 H1844 0.930 . S
C1834 C1833 1.392 . S
C1834 C1835 1.386 . S
C1835 C1834 1.386 . S
C1835 C1837 1.395 . S
C1835 H1845 0.930 . S
C1836 C1832 1.395 . S
C1836 C1837 1.379 . S
C1836 H1846 0.930 . S
C1837 C1835 1.395 . S
C1837 C1836 1.379 . S
C1837 H1847 0.930 . S
C1838 O1816 1.264 . S
C1838 O1817 1.254 . S
C1839 Eu1775 2.848 . S
C1839 O1814 1.257 . S
C1839 O1819 1.249 . S
C1839 C1832 1.492 . S
H1840 C1823 0.930 . S
H1841 C1824 0.930 . S
H1842 C1825 0.930 . S
H1843 C1826 0.930 . S
H1844 C1833 0.930 . S
H1845 C1835 0.930 . S
H1846 C1836 0.930 . S
H1847 C1837 0.930 . S
Eu1848 N1879 2.657 . S
Eu1848 N1886 2.609 . S
Eu1848 O1892 2.558 . S
Eu1848 O1893 2.612 . S
Eu1848 O1895 2.339 . S
Eu1848 O1896 2.563 . S
Eu1848 O1897 2.419 . S
Eu1848 O1899 2.380 . S
Eu1848 O1900 2.432 . S
Eu1848 C1912 2.848 . S
C1849 C1852 1.429 . S
C1849 C1853 1.411 . S
C1849 N1856 1.377 . S
C1850 C1852 1.420 . S
C1850 C1854 1.423 . S
C1850 C1862 1.392 . S
C1851 C1853 1.420 . S
C1851 C1854 1.351 . S
C1851 H1874 0.931 . S
C1852 C1849 1.429 . S
C1852 C1850 1.420 . S
C1852 N1860 1.362 . S
C1853 C1849 1.411 . S
C1853 C1851 1.420 . S
C1853 C1858 1.395 . S
C1854 C1850 1.423 . S
C1854 C1851 1.351 . S
C1854 H1866 0.930 . S
C1855 C1857 1.400 . S
C1855 C1858 1.386 . S
C1855 H1867 0.930 . S
N1856 C1849 1.377 . S
N1856 C1857 1.321 . S
N1856 Eu1859 2.609 . S
C1857 C1855 1.400 . S
C1857 N1856 1.321 . S
C1857 H1864 0.930 . S
C1858 C1853 1.395 . S
C1858 C1855 1.386 . S
C1858 H1877 0.930 . S
Eu1859 N1856 2.609 . S
Eu1859 N1860 2.657 . S
Eu1859 O1893 2.380 . S
Eu1859 O1894 2.432 . S
Eu1859 O1898 2.558 . S
Eu1859 O1899 2.612 . S
Eu1859 O1901 2.339 . S
Eu1859 O1902 2.563 . S
Eu1859 O1903 2.419 . S
Eu1859 C1923 2.848 . S
N1860 C1852 1.362 . S
N1860 Eu1859 2.657 . S
N1860 C1861 1.334 . S
C1861 N1860 1.334 . S
C1861 C1863 1.413 . S
C1861 H1868 0.929 . S
C1862 C1850 1.392 . S
C1862 C1863 1.367 . S
C1862 H1870 0.930 . S
C1863 C1861 1.413 . S
C1863 C1862 1.367 . S
C1863 H1865 0.930 . S
H1864 C1857 0.930 . S
H1865 C1863 0.930 . S
H1866 C1854 0.930 . S
H1867 C1855 0.930 . S
H1868 C1861 0.929 . S
H1869 C1883 0.930 . S
H1870 C1862 0.930 . S
H1871 C1889 0.930 . S
H1872 C1880 0.929 . S
H1873 C1887 0.930 . S
H1874 C1851 0.931 . S
H1875 C1881 0.930 . S
H1876 C1914 0.930 . S
H1877 C1858 0.930 . S
H1878 C1913 0.931 . S
N1879 Eu1848 2.657 . S
N1879 C1880 1.334 . S
N1879 C1884 1.362 . S
C1880 H1872 0.929 . S
C1880 N1879 1.334 . S
C1880 C1883 1.413 . S
C1881 H1875 0.930 . S
C1881 C1882 1.392 . S
C1881 C1883 1.367 . S
C1882 C1881 1.392 . S
C1882 C1884 1.420 . S
C1882 C1914 1.423 . S
C1883 H1869 0.930 . S
C1883 C1880 1.413 . S
C1883 C1881 1.367 . S
C1884 N1879 1.362 . S
C1884 C1882 1.420 . S
C1884 C1888 1.429 . S
H1885 C1890 0.930 . S
N1886 Eu1848 2.609 . S
N1886 C1888 1.377 . S
N1886 C1889 1.321 . S
C1887 H1873 0.930 . S
C1887 C1889 1.400 . S
C1887 C1890 1.386 . S
C1888 C1884 1.429 . S
C1888 N1886 1.377 . S
C1888 C1891 1.411 . S
C1889 H1871 0.930 . S
C1889 N1886 1.321 . S
C1889 C1887 1.400 . S
C1890 H1885 0.930 . S
C1890 C1887 1.386 . S
C1890 C1891 1.395 . S
C1891 C1888 1.411 . S
C1891 C1890 1.395 . S
C1891 C1913 1.420 . S
O1892 Eu1848 2.558 . S
O1892 C1912 1.257 . S
O1893 Eu1848 2.612 . S
O1893 Eu1859 2.380 . S
O1893 C1904 1.276 . S
O1894 Eu1859 2.432 . S
O1894 C1911 1.264 . S
O1895 Eu1848 2.339 . S
O1895 C1911 1.254 . S
O1896 Eu1848 2.563 . S
O1896 C1904 1.235 . S
O1897 Eu1848 2.419 . S
O1897 C1912 1.249 . S
O1898 Eu1859 2.558 . S
O1898 C1923 1.257 . S
O1899 Eu1848 2.380 . S
O1899 Eu1859 2.612 . S
O1899 C1915 1.276 . S
O1900 Eu1848 2.432 . S
O1900 C1922 1.264 . S
O1901 Eu1859 2.339 . S
O1901 C1922 1.254 . S
O1902 Eu1859 2.563 . S
O1902 C1915 1.235 . S
O1903 Eu1859 2.419 . S
O1903 C1923 1.249 . S
C1904 O1893 1.276 . S
C1904 O1896 1.235 . S
C1905 C1907 1.393 . S
C1905 C1909 1.395 . S
C1905 C1912 1.492 . S
C1906 C1907 1.392 . S
C1906 C1908 1.386 . S
C1907 C1905 1.393 . S
C1907 C1906 1.392 . S
C1907 H1924 0.930 . S
C1908 C1906 1.386 . S
C1908 C1910 1.395 . S
C1908 H1925 0.930 . S
C1909 C1905 1.395 . S
C1909 C1910 1.379 . S
C1909 H1926 0.930 . S
C1910 C1908 1.395 . S
C1910 C1909 1.379 . S
C1910 H1927 0.930 . S
C1911 O1894 1.264 . S
C1911 O1895 1.254 . S
C1912 Eu1848 2.848 . S
C1912 O1892 1.257 . S
C1912 O1897 1.249 . S
C1912 C1905 1.492 . S
C1913 H1878 0.931 . S
C1913 C1891 1.420 . S
C1913 C1914 1.351 . S
C1914 H1876 0.930 . S
C1914 C1882 1.423 . S
C1914 C1913 1.351 . S
C1915 O1899 1.276 . S
C1915 O1902 1.235 . S
C1916 C1917 1.393 . S
C1916 C1920 1.395 . S
C1916 C1923 1.492 . S
C1917 C1916 1.393 . S
C1917 C1918 1.392 . S
C1917 H1928 0.930 . S
C1918 C1917 1.392 . S
C1918 C1919 1.386 . S
C1919 C1918 1.386 . S
C1919 C1921 1.395 . S
C1919 H1929 0.930 . S
C1920 C1916 1.395 . S
C1920 C1921 1.379 . S
C1920 H1930 0.930 . S
C1921 C1919 1.395 . S
C1921 C1920 1.379 . S
C1921 H1931 0.930 . S
C1922 O1900 1.264 . S
C1922 O1901 1.254 . S
C1923 Eu1859 2.848 . S
C1923 O1898 1.257 . S
C1923 O1903 1.249 . S
C1923 C1916 1.492 . S
H1924 C1907 0.930 . S
H1925 C1908 0.930 . S
H1926 C1909 0.930 . S
H1927 C1910 0.930 . S
H1928 C1917 0.930 . S
H1929 C1919 0.930 . S
H1930 C1920 0.930 . S
H1931 C1921 0.930 . S
Eu1932 N1963 2.657 1_545 S
Eu1932 N1970 2.609 . S
Eu1932 O1976 2.558 . S
Eu1932 O1977 2.612 1_545 S
Eu1932 O1979 2.339 1_545 S
Eu1932 O1980 2.563 . S
Eu1932 O1981 2.419 1_545 S
Eu1932 O1983 2.380 . S
Eu1932 O1984 2.432 . S
Eu1932 C1996 2.848 . S
C1933 C1936 1.429 . S
C1933 C1937 1.411 . S
C1933 N1940 1.377 . S
C1934 C1936 1.420 . S
C1934 C1938 1.423 . S
C1934 C1946 1.392 1_565 S
C1935 C1937 1.420 . S
C1935 C1938 1.351 . S
C1935 H1958 0.931 . S
C1936 C1933 1.429 . S
C1936 C1934 1.420 . S
C1936 N1944 1.362 1_565 S
C1937 C1933 1.411 . S
C1937 C1935 1.420 . S
C1937 C1942 1.395 . S
C1938 C1934 1.423 . S
C1938 C1935 1.351 . S
C1938 H1950 0.930 . S
C1939 C1941 1.400 . S
C1939 C1942 1.386 . S
C1939 H1951 0.930 . S
N1940 C1933 1.377 . S
N1940 C1941 1.321 . S
N1940 Eu1943 2.609 . S
C1941 C1939 1.400 . S
C1941 N1940 1.321 . S
C1941 H1948 0.930 . S
C1942 C1937 1.395 . S
C1942 C1939 1.386 . S
C1942 H1961 0.930 . S
Eu1943 N1940 2.609 . S
Eu1943 N1944 2.657 1_565 S
Eu1943 O1977 2.380 . S
Eu1943 O1978 2.432 . S
Eu1943 O1982 2.558 . S
Eu1943 O1983 2.612 1_565 S
Eu1943 O1985 2.339 1_565 S
Eu1943 O1986 2.563 . S
Eu1943 O1987 2.419 1_565 S
Eu1943 C2007 2.848 . S
N1944 C1936 1.362 1_545 S
N1944 Eu1943 2.657 1_545 S
N1944 C1945 1.334 . S
C1945 N1944 1.334 . S
C1945 C1947 1.413 . S
C1945 H1952 0.929 . S
C1946 C1934 1.392 1_545 S
C1946 C1947 1.367 . S
C1946 H1954 0.930 . S
C1947 C1945 1.413 . S
C1947 C1946 1.367 . S
C1947 H1949 0.930 . S
H1948 C1941 0.930 . S
H1949 C1947 0.930 . S
H1950 C1938 0.930 . S
H1951 C1939 0.930 . S
H1952 C1945 0.929 . S
H1953 C1967 0.930 . S
H1954 C1946 0.930 . S
H1955 C1973 0.930 . S
H1956 C1964 0.929 . S
H1957 C1971 0.930 . S
H1958 C1935 0.931 . S
H1959 C1965 0.930 . S
H1960 C1998 0.930 . S
H1961 C1942 0.930 . S
H1962 C1997 0.931 . S
N1963 Eu1932 2.657 1_565 S
N1963 C1964 1.334 . S
N1963 C1968 1.362 1_565 S
C1964 H1956 0.929 . S
C1964 N1963 1.334 . S
C1964 C1967 1.413 . S
C1965 H1959 0.930 . S
C1965 C1966 1.392 1_565 S
C1965 C1967 1.367 . S
C1966 C1965 1.392 1_545 S
C1966 C1968 1.420 . S
C1966 C1998 1.423 . S
C1967 H1953 0.930 . S
C1967 C1964 1.413 . S
C1967 C1965 1.367 . S
C1968 N1963 1.362 1_545 S
C1968 C1966 1.420 . S
C1968 C1972 1.429 . S
H1969 C1974 0.930 . S
N1970 Eu1932 2.609 . S
N1970 C1972 1.377 . S
N1970 C1973 1.321 . S
C1971 H1957 0.930 . S
C1971 C1973 1.400 . S
C1971 C1974 1.386 . S
C1972 C1968 1.429 . S
C1972 N1970 1.377 . S
C1972 C1975 1.411 . S
C1973 H1955 0.930 . S
C1973 N1970 1.321 . S
C1973 C1971 1.400 . S
C1974 H1969 0.930 . S
C1974 C1971 1.386 . S
C1974 C1975 1.395 . S
C1975 C1972 1.411 . S
C1975 C1974 1.395 . S
C1975 C1997 1.420 . S
O1976 Eu1932 2.558 . S
O1976 C1996 1.257 . S
O1977 Eu1932 2.612 1_565 S
O1977 Eu1943 2.380 . S
O1977 C1988 1.276 . S
O1978 Eu1943 2.432 . S
O1978 C1995 1.264 . S
O1979 Eu1932 2.339 1_565 S
O1979 C1995 1.254 . S
O1980 Eu1932 2.563 . S
O1980 C1988 1.234 1_545 S
O1981 Eu1932 2.419 1_565 S
O1981 C1996 1.249 1_565 S
O1982 Eu1943 2.558 . S
O1982 C2007 1.257 . S
O1983 Eu1932 2.380 . S
O1983 Eu1943 2.612 1_545 S
O1983 C1999 1.276 1_545 S
O1984 Eu1932 2.432 . S
O1984 C2006 1.264 . S
O1985 Eu1943 2.339 1_545 S
O1985 C2006 1.254 . S
O1986 Eu1943 2.563 . S
O1986 C1999 1.234 . S
O1987 Eu1943 2.419 1_545 S
O1987 C2007 1.249 1_545 S
C1988 O1977 1.276 . S
C1988 O1980 1.234 1_565 S
C1989 C1991 1.393 1_545 S
C1989 C1993 1.395 . S
C1989 C1996 1.492 . S
C1990 C1991 1.392 . S
C1990 C1992 1.386 1_565 S
C1991 C1989 1.393 1_565 S
C1991 C1990 1.392 . S
C1991 H2008 0.930 . S
C1992 C1990 1.386 1_545 S
C1992 C1994 1.395 . S
C1992 H2009 0.930 . S
C1993 C1989 1.395 . S
C1993 C1994 1.379 . S
C1993 H2010 0.930 . S
C1994 C1992 1.395 . S
C1994 C1993 1.379 . S
C1994 H2011 0.930 . S
C1995 O1978 1.264 . S
C1995 O1979 1.254 . S
C1996 Eu1932 2.848 . S
C1996 O1976 1.257 . S
C1996 O1981 1.249 1_545 S
C1996 C1989 1.492 . S
C1997 H1962 0.931 . S
C1997 C1975 1.420 . S
C1997 C1998 1.351 . S
C1998 H1960 0.930 . S
C1998 C1966 1.423 . S
C1998 C1997 1.351 . S
C1999 O1983 1.276 1_565 S
C1999 O1986 1.234 . S
C2000 C2001 1.393 1_565 S
C2000 C2004 1.395 . S
C2000 C2007 1.492 . S
C2001 C2000 1.393 1_545 S
C2001 C2002 1.395 . S
C2001 H2012 0.930 . S
C2002 C2001 1.395 . S
C2002 C2003 1.342 1_545 S
C2003 C2002 1.342 1_565 S
C2003 C2005 1.395 . S
C2003 H2013 0.930 . S
C2004 C2000 1.395 . S
C2004 C2005 1.379 . S
C2004 H2014 0.930 . S
C2005 C2003 1.395 . S
C2005 C2004 1.379 . S
C2005 H2015 0.930 . S
C2006 O1984 1.264 . S
C2006 O1985 1.254 . S
C2007 Eu1943 2.848 . S
C2007 O1982 1.257 . S
C2007 O1987 1.249 1_565 S
C2007 C2000 1.492 . S
H2008 C1991 0.930 . S
H2009 C1992 0.930 . S
H2010 C1993 0.930 . S
H2011 C1994 0.930 . S
H2012 C2001 0.930 . S
H2013 C2003 0.930 . S
H2014 C2004 0.930 . S
H2015 C2005 0.930 . S
Eu2016 N2047 2.657 . S
Eu2016 N2054 2.609 . S
Eu2016 O2060 2.558 . S
Eu2016 O2061 2.612 . S
Eu2016 O2063 2.339 . S
Eu2016 O2064 2.563 . S
Eu2016 O2065 2.419 . S
Eu2016 O2067 2.380 . S
Eu2016 O2068 2.432 . S
Eu2016 C2080 2.848 . S
C2017 C2020 1.429 . S
C2017 C2021 1.411 . S
C2017 N2024 1.377 . S
C2018 C2020 1.420 . S
C2018 C2022 1.423 . S
C2018 C2030 1.392 . S
C2019 C2021 1.420 . S
C2019 C2022 1.351 . S
C2019 H2042 0.931 . S
C2020 C2017 1.429 . S
C2020 C2018 1.420 . S
C2020 N2028 1.362 . S
C2021 C2017 1.411 . S
C2021 C2019 1.420 . S
C2021 C2026 1.395 . S
C2022 C2018 1.423 . S
C2022 C2019 1.351 . S
C2022 H2034 0.930 . S
C2023 C2025 1.400 . S
C2023 C2026 1.386 . S
C2023 H2035 0.930 . S
N2024 C2017 1.377 . S
N2024 C2025 1.321 . S
N2024 Eu2027 2.609 . S
C2025 C2023 1.400 . S
C2025 N2024 1.321 . S
C2025 H2032 0.930 . S
C2026 C2021 1.395 . S
C2026 C2023 1.386 . S
C2026 H2045 0.930 . S
Eu2027 N2024 2.609 . S
Eu2027 N2028 2.657 . S
Eu2027 O2061 2.380 . S
Eu2027 O2062 2.432 . S
Eu2027 O2066 2.558 . S
Eu2027 O2067 2.612 . S
Eu2027 O2069 2.339 . S
Eu2027 O2070 2.563 . S
Eu2027 O2071 2.419 . S
Eu2027 C2091 2.848 . S
N2028 C2020 1.362 . S
N2028 Eu2027 2.657 . S
N2028 C2029 1.334 . S
C2029 N2028 1.334 . S
C2029 C2031 1.413 . S
C2029 H2036 0.929 . S
C2030 C2018 1.392 . S
C2030 C2031 1.367 . S
C2030 H2038 0.930 . S
C2031 C2029 1.413 . S
C2031 C2030 1.367 . S
C2031 H2033 0.930 . S
H2032 C2025 0.930 . S
H2033 C2031 0.930 . S
H2034 C2022 0.930 . S
H2035 C2023 0.930 . S
H2036 C2029 0.929 . S
H2037 C2051 0.930 . S
H2038 C2030 0.930 . S
H2039 C2057 0.930 . S
H2040 C2048 0.929 . S
H2041 C2055 0.930 . S
H2042 C2019 0.931 . S
H2043 C2049 0.930 . S
H2044 C2082 0.930 . S
H2045 C2026 0.930 . S
H2046 C2081 0.931 . S
N2047 Eu2016 2.657 . S
N2047 C2048 1.334 . S
N2047 C2052 1.362 . S
C2048 H2040 0.929 . S
C2048 N2047 1.334 . S
C2048 C2051 1.413 . S
C2049 H2043 0.930 . S
C2049 C2050 1.392 . S
C2049 C2051 1.367 . S
C2050 C2049 1.392 . S
C2050 C2052 1.420 . S
C2050 C2082 1.423 . S
C2051 H2037 0.930 . S
C2051 C2048 1.413 . S
C2051 C2049 1.367 . S
C2052 N2047 1.362 . S
C2052 C2050 1.420 . S
C2052 C2056 1.429 . S
H2053 C2058 0.930 . S
N2054 Eu2016 2.609 . S
N2054 C2056 1.377 . S
N2054 C2057 1.321 . S
C2055 H2041 0.930 . S
C2055 C2057 1.400 . S
C2055 C2058 1.386 . S
C2056 C2052 1.429 . S
C2056 N2054 1.377 . S
C2056 C2059 1.411 . S
C2057 H2039 0.930 . S
C2057 N2054 1.321 . S
C2057 C2055 1.400 . S
C2058 H2053 0.930 . S
C2058 C2055 1.386 . S
C2058 C2059 1.395 . S
C2059 C2056 1.411 . S
C2059 C2058 1.395 . S
C2059 C2081 1.420 . S
O2060 Eu2016 2.558 . S
O2060 C2080 1.257 . S
O2061 Eu2016 2.612 . S
O2061 Eu2027 2.380 . S
O2061 C2072 1.276 . S
O2062 Eu2027 2.432 . S
O2062 C2079 1.264 . S
O2063 Eu2016 2.339 . S
O2063 C2079 1.254 . S
O2064 Eu2016 2.563 . S
O2064 C2072 1.235 . S
O2065 Eu2016 2.419 . S
O2065 C2080 1.249 . S
O2066 Eu2027 2.558 . S
O2066 C2091 1.257 . S
O2067 Eu2016 2.380 . S
O2067 Eu2027 2.612 . S
O2067 C2083 1.276 . S
O2068 Eu2016 2.432 . S
O2068 C2090 1.264 . S
O2069 Eu2027 2.339 . S
O2069 C2090 1.254 . S
O2070 Eu2027 2.563 . S
O2070 C2083 1.235 . S
O2071 Eu2027 2.419 . S
O2071 C2091 1.249 . S
C2072 O2061 1.276 . S
C2072 O2064 1.235 . S
C2073 C2075 1.393 . S
C2073 C2077 1.395 . S
C2073 C2080 1.492 1_556 S
C2074 C2075 1.392 . S
C2074 C2076 1.386 . S
C2075 C2073 1.393 . S
C2075 C2074 1.392 . S
C2075 H2092 0.930 . S
C2076 C2074 1.386 . S
C2076 C2078 1.395 . S
C2076 H2093 0.930 . S
C2077 C2073 1.395 . S
C2077 C2078 1.379 . S
C2077 H2094 0.930 . S
C2078 C2076 1.395 . S
C2078 C2077 1.379 . S
C2078 H2095 0.930 . S
C2079 O2062 1.264 . S
C2079 O2063 1.254 . S
C2080 Eu2016 2.848 . S
C2080 O2060 1.257 . S
C2080 O2065 1.249 . S
C2080 C2073 1.492 1_554 S
C2081 H2046 0.931 . S
C2081 C2059 1.420 . S
C2081 C2082 1.351 . S
C2082 H2044 0.930 . S
C2082 C2050 1.423 . S
C2082 C2081 1.351 . S
C2083 O2067 1.276 . S
C2083 O2070 1.235 . S
C2084 C2085 1.393 . S
C2084 C2088 1.395 . S
C2084 C2091 1.492 . S
C2085 C2084 1.393 . S
C2085 C2086 1.392 . S
C2085 H2096 0.930 . S
C2086 C2085 1.392 . S
C2086 C2087 1.386 . S
C2087 C2086 1.386 . S
C2087 C2089 1.395 . S
C2087 H2097 0.930 . S
C2088 C2084 1.395 . S
C2088 C2089 1.379 . S
C2088 H2098 0.930 . S
C2089 C2087 1.395 . S
C2089 C2088 1.379 . S
C2089 H2099 0.930 . S
C2090 O2068 1.264 . S
C2090 O2069 1.254 . S
C2091 Eu2027 2.848 . S
C2091 O2066 1.257 . S
C2091 O2071 1.249 . S
C2091 C2084 1.492 . S
H2092 C2075 0.930 . S
H2093 C2076 0.930 . S
H2094 C2077 0.930 . S
H2095 C2078 0.930 . S
H2096 C2085 0.930 . S
H2097 C2087 0.930 . S
H2098 C2088 0.930 . S
H2099 C2089 0.930 . S
Eu2100 N2131 2.657 . S
Eu2100 N2138 2.609 . S
Eu2100 O2144 2.558 . S
Eu2100 O2145 2.612 . S
Eu2100 O2147 2.339 . S
Eu2100 O2148 2.563 . S
Eu2100 O2149 2.419 . S
Eu2100 O2151 2.380 . S
Eu2100 O2152 2.432 . S
Eu2100 C2164 2.848 . S
C2101 C2104 1.429 . S
C2101 C2105 1.411 . S
C2101 N2108 1.377 . S
C2102 C2104 1.420 . S
C2102 C2106 1.423 . S
C2102 C2114 1.392 . S
C2103 C2105 1.420 . S
C2103 C2106 1.351 . S
C2103 H2126 0.931 . S
C2104 C2101 1.429 . S
C2104 C2102 1.420 . S
C2104 N2112 1.362 . S
C2105 C2101 1.411 . S
C2105 C2103 1.420 . S
C2105 C2110 1.395 . S
C2106 C2102 1.423 . S
C2106 C2103 1.351 . S
C2106 H2118 0.930 . S
C2107 C2109 1.400 . S
C2107 C2110 1.386 . S
C2107 H2119 0.930 . S
N2108 C2101 1.377 . S
N2108 C2109 1.321 . S
N2108 Eu2111 2.609 . S
C2109 C2107 1.400 . S
C2109 N2108 1.321 . S
C2109 H2116 0.930 . S
C2110 C2105 1.395 . S
C2110 C2107 1.386 . S
C2110 H2129 0.930 . S
Eu2111 N2108 2.609 . S
Eu2111 N2112 2.657 . S
Eu2111 O2145 2.380 . S
Eu2111 O2146 2.432 . S
Eu2111 O2150 2.558 . S
Eu2111 O2151 2.612 . S
Eu2111 O2153 2.339 . S
Eu2111 O2154 2.563 . S
Eu2111 O2155 2.419 . S
Eu2111 C2175 2.848 . S
N2112 C2104 1.362 . S
N2112 Eu2111 2.657 . S
N2112 C2113 1.334 . S
C2113 N2112 1.334 . S
C2113 C2115 1.413 . S
C2113 H2120 0.929 . S
C2114 C2102 1.392 . S
C2114 C2115 1.367 . S
C2114 H2122 0.930 . S
C2115 C2113 1.413 . S
C2115 C2114 1.367 . S
C2115 H2117 0.930 . S
H2116 C2109 0.930 . S
H2117 C2115 0.930 . S
H2118 C2106 0.930 . S
H2119 C2107 0.930 . S
H2120 C2113 0.929 . S
H2121 C2135 0.930 . S
H2122 C2114 0.930 . S
H2123 C2141 0.930 . S
H2124 C2132 0.929 . S
H2125 C2139 0.930 . S
H2126 C2103 0.931 . S
H2127 C2133 0.930 . S
H2128 C2166 0.930 . S
H2129 C2110 0.930 . S
H2130 C2165 0.931 . S
N2131 Eu2100 2.657 . S
N2131 C2132 1.334 . S
N2131 C2136 1.362 . S
C2132 H2124 0.929 . S
C2132 N2131 1.334 . S
C2132 C2135 1.413 . S
C2133 H2127 0.930 . S
C2133 C2134 1.392 . S
C2133 C2135 1.367 . S
C2134 C2133 1.392 . S
C2134 C2136 1.420 . S
C2134 C2166 1.423 . S
C2135 H2121 0.930 . S
C2135 C2132 1.413 . S
C2135 C2133 1.367 . S
C2136 N2131 1.362 . S
C2136 C2134 1.420 . S
C2136 C2140 1.429 . S
H2137 C2142 0.930 . S
N2138 Eu2100 2.609 . S
N2138 C2140 1.377 . S
N2138 C2141 1.321 . S
C2139 H2125 0.930 . S
C2139 C2141 1.400 . S
C2139 C2142 1.386 . S
C2140 C2136 1.429 . S
C2140 N2138 1.377 . S
C2140 C2143 1.411 . S
C2141 H2123 0.930 . S
C2141 N2138 1.321 . S
C2141 C2139 1.400 . S
C2142 H2137 0.930 . S
C2142 C2139 1.386 . S
C2142 C2143 1.395 . S
C2143 C2140 1.411 . S
C2143 C2142 1.395 . S
C2143 C2165 1.420 . S
O2144 Eu2100 2.558 . S
O2144 C2164 1.257 . S
O2145 Eu2100 2.612 . S
O2145 Eu2111 2.380 . S
O2145 C2156 1.276 . S
O2146 Eu2111 2.432 . S
O2146 C2163 1.264 . S
O2147 Eu2100 2.339 . S
O2147 C2163 1.254 . S
O2148 Eu2100 2.563 . S
O2148 C2156 1.235 . S
O2149 Eu2100 2.419 . S
O2149 C2164 1.249 . S
O2150 Eu2111 2.558 . S
O2150 C2175 1.257 . S
O2151 Eu2100 2.380 . S
O2151 Eu2111 2.612 . S
O2151 C2167 1.276 . S
O2152 Eu2100 2.432 . S
O2152 C2174 1.264 . S
O2153 Eu2111 2.339 . S
O2153 C2174 1.254 . S
O2154 Eu2111 2.563 . S
O2154 C2167 1.235 . S
O2155 Eu2111 2.419 . S
O2155 C2175 1.249 . S
C2156 O2145 1.276 . S
C2156 O2148 1.235 . S
C2157 C2159 1.393 . S
C2157 C2161 1.395 . S
C2157 C2164 1.492 1_556 S
C2158 C2159 1.392 . S
C2158 C2160 1.386 . S
C2159 C2157 1.393 . S
C2159 C2158 1.392 . S
C2159 H2176 0.930 . S
C2160 C2158 1.386 . S
C2160 C2162 1.395 . S
C2160 H2177 0.930 . S
C2161 C2157 1.395 . S
C2161 C2162 1.379 . S
C2161 H2178 0.930 . S
C2162 C2160 1.395 . S
C2162 C2161 1.379 . S
C2162 H2179 0.930 . S
C2163 O2146 1.264 . S
C2163 O2147 1.254 . S
C2164 Eu2100 2.848 . S
C2164 O2144 1.257 . S
C2164 O2149 1.249 . S
C2164 C2157 1.492 1_554 S
C2165 H2130 0.931 . S
C2165 C2143 1.420 . S
C2165 C2166 1.351 . S
C2166 H2128 0.930 . S
C2166 C2134 1.423 . S
C2166 C2165 1.351 . S
C2167 O2151 1.276 . S
C2167 O2154 1.235 . S
C2168 C2169 1.393 . S
C2168 C2172 1.395 . S
C2168 C2175 1.492 . S
C2169 C2168 1.393 . S
C2169 C2170 1.392 . S
C2169 H2180 0.930 . S
C2170 C2169 1.392 . S
C2170 C2171 1.386 . S
C2171 C2170 1.386 . S
C2171 C2173 1.395 . S
C2171 H2181 0.930 . S
C2172 C2168 1.395 . S
C2172 C2173 1.379 . S
C2172 H2182 0.930 . S
C2173 C2171 1.395 . S
C2173 C2172 1.379 . S
C2173 H2183 0.930 . S
C2174 O2152 1.264 . S
C2174 O2153 1.254 . S
C2175 Eu2111 2.848 . S
C2175 O2150 1.257 . S
C2175 O2155 1.249 . S
C2175 C2168 1.492 . S
H2176 C2159 0.930 . S
H2177 C2160 0.930 . S
H2178 C2161 0.930 . S
H2179 C2162 0.930 . S
H2180 C2169 0.930 . S
H2181 C2171 0.930 . S
H2182 C2172 0.930 . S
H2183 C2173 0.930 . S
Eu2184 N2215 2.657 . S
Eu2184 N2222 2.609 . S
Eu2184 O2228 2.558 . S
Eu2184 O2229 2.612 . S
Eu2184 O2231 2.339 . S
Eu2184 O2232 2.563 . S
Eu2184 O2233 2.419 . S
Eu2184 O2235 2.380 . S
Eu2184 O2236 2.432 . S
Eu2184 C2248 2.848 . S
C2185 C2188 1.429 . S
C2185 C2189 1.411 . S
C2185 N2192 1.377 . S
C2186 C2188 1.420 . S
C2186 C2190 1.423 . S
C2186 C2198 1.392 . S
C2187 C2189 1.420 . S
C2187 C2190 1.351 . S
C2187 H2210 0.931 . S
C2188 C2185 1.429 . S
C2188 C2186 1.420 . S
C2188 N2196 1.362 . S
C2189 C2185 1.411 . S
C2189 C2187 1.420 . S
C2189 C2194 1.395 . S
C2190 C2186 1.423 . S
C2190 C2187 1.351 . S
C2190 H2202 0.930 . S
C2191 C2193 1.400 . S
C2191 C2194 1.386 . S
C2191 H2203 0.930 . S
N2192 C2185 1.377 . S
N2192 C2193 1.321 . S
N2192 Eu2195 2.609 . S
C2193 C2191 1.400 . S
C2193 N2192 1.321 . S
C2193 H2200 0.930 . S
C2194 C2189 1.395 . S
C2194 C2191 1.386 . S
C2194 H2213 0.930 . S
Eu2195 N2192 2.609 . S
Eu2195 N2196 2.657 . S
Eu2195 O2229 2.380 . S
Eu2195 O2230 2.432 . S
Eu2195 O2234 2.558 . S
Eu2195 O2235 2.612 . S
Eu2195 O2237 2.339 . S
Eu2195 O2238 2.563 . S
Eu2195 O2239 2.419 . S
Eu2195 C2259 2.848 . S
N2196 C2188 1.362 . S
N2196 Eu2195 2.657 . S
N2196 C2197 1.334 . S
C2197 N2196 1.334 . S
C2197 C2199 1.413 . S
C2197 H2204 0.929 . S
C2198 C2186 1.392 . S
C2198 C2199 1.367 . S
C2198 H2206 0.930 . S
C2199 C2197 1.413 . S
C2199 C2198 1.367 . S
C2199 H2201 0.930 . S
H2200 C2193 0.930 . S
H2201 C2199 0.930 . S
H2202 C2190 0.930 . S
H2203 C2191 0.930 . S
H2204 C2197 0.929 . S
H2205 C2219 0.930 . S
H2206 C2198 0.930 . S
H2207 C2225 0.930 . S
H2208 C2216 0.929 . S
H2209 C2223 0.930 . S
H2210 C2187 0.931 . S
H2211 C2217 0.930 . S
H2212 C2250 0.930 . S
H2213 C2194 0.930 . S
H2214 C2249 0.931 . S
N2215 Eu2184 2.657 . S
N2215 C2216 1.334 . S
N2215 C2220 1.362 . S
C2216 H2208 0.929 . S
C2216 N2215 1.334 . S
C2216 C2219 1.413 . S
C2217 H2211 0.930 . S
C2217 C2218 1.392 . S
C2217 C2219 1.367 . S
C2218 C2217 1.392 . S
C2218 C2220 1.420 . S
C2218 C2250 1.423 . S
C2219 H2205 0.930 . S
C2219 C2216 1.413 . S
C2219 C2217 1.367 . S
C2220 N2215 1.362 . S
C2220 C2218 1.420 . S
C2220 C2224 1.429 . S
H2221 C2226 0.930 . S
N2222 Eu2184 2.609 . S
N2222 C2224 1.377 . S
N2222 C2225 1.321 . S
C2223 H2209 0.930 . S
C2223 C2225 1.400 . S
C2223 C2226 1.386 . S
C2224 C2220 1.429 . S
C2224 N2222 1.377 . S
C2224 C2227 1.411 . S
C2225 H2207 0.930 . S
C2225 N2222 1.321 . S
C2225 C2223 1.400 . S
C2226 H2221 0.930 . S
C2226 C2223 1.386 . S
C2226 C2227 1.395 . S
C2227 C2224 1.411 . S
C2227 C2226 1.395 . S
C2227 C2249 1.420 . S
O2228 Eu2184 2.558 . S
O2228 C2248 1.257 . S
O2229 Eu2184 2.612 . S
O2229 Eu2195 2.380 . S
O2229 C2240 1.276 . S
O2230 Eu2195 2.432 . S
O2230 C2247 1.264 . S
O2231 Eu2184 2.339 . S
O2231 C2247 1.254 . S
O2232 Eu2184 2.563 . S
O2232 C2240 1.235 . S
O2233 Eu2184 2.419 . S
O2233 C2248 1.249 . S
O2234 Eu2195 2.558 . S
O2234 C2259 1.257 . S
O2235 Eu2184 2.380 . S
O2235 Eu2195 2.612 . S
O2235 C2251 1.276 . S
O2236 Eu2184 2.432 . S
O2236 C2258 1.264 . S
O2237 Eu2195 2.339 . S
O2237 C2258 1.254 . S
O2238 Eu2195 2.563 . S
O2238 C2251 1.235 . S
O2239 Eu2195 2.419 . S
O2239 C2259 1.249 . S
C2240 O2229 1.276 . S
C2240 O2232 1.235 . S
C2241 C2243 1.393 . S
C2241 C2245 1.395 . S
C2241 C2248 1.492 . S
C2242 C2243 1.392 . S
C2242 C2244 1.386 . S
C2243 C2241 1.393 . S
C2243 C2242 1.392 . S
C2243 H2260 0.930 . S
C2244 C2242 1.386 . S
C2244 C2246 1.395 . S
C2244 H2261 0.930 . S
C2245 C2241 1.395 . S
C2245 C2246 1.379 . S
C2245 H2262 0.930 . S
C2246 C2244 1.395 . S
C2246 C2245 1.379 . S
C2246 H2263 0.930 . S
C2247 O2230 1.264 . S
C2247 O2231 1.254 . S
C2248 Eu2184 2.848 . S
C2248 O2228 1.257 . S
C2248 O2233 1.249 . S
C2248 C2241 1.492 . S
C2249 H2214 0.931 . S
C2249 C2227 1.420 . S
C2249 C2250 1.351 . S
C2250 H2212 0.930 . S
C2250 C2218 1.423 . S
C2250 C2249 1.351 . S
C2251 O2235 1.276 . S
C2251 O2238 1.235 . S
C2252 C2253 1.393 . S
C2252 C2256 1.395 . S
C2252 C2259 1.492 . S
C2253 C2252 1.393 . S
C2253 C2254 1.392 . S
C2253 H2264 0.930 . S
C2254 C2253 1.392 . S
C2254 C2255 1.386 . S
C2255 C2254 1.386 . S
C2255 C2257 1.395 . S
C2255 H2265 0.930 . S
C2256 C2252 1.395 . S
C2256 C2257 1.379 . S
C2256 H2266 0.930 . S
C2257 C2255 1.395 . S
C2257 C2256 1.379 . S
C2257 H2267 0.930 . S
C2258 O2236 1.264 . S
C2258 O2237 1.254 . S
C2259 Eu2195 2.848 . S
C2259 O2234 1.257 . S
C2259 O2239 1.249 . S
C2259 C2252 1.492 . S
H2260 C2243 0.930 . S
H2261 C2244 0.930 . S
H2262 C2245 0.930 . S
H2263 C2246 0.930 . S
H2264 C2253 0.930 . S
H2265 C2255 0.930 . S
H2266 C2256 0.930 . S
H2267 C2257 0.930 . S
Eu2268 N2299 2.657 . S
Eu2268 N2306 2.609 . S
Eu2268 O2312 2.558 . S
Eu2268 O2313 2.612 . S
Eu2268 O2315 2.339 . S
Eu2268 O2316 2.563 . S
Eu2268 O2317 2.419 . S
Eu2268 O2319 2.380 . S
Eu2268 O2320 2.432 . S
Eu2268 C2332 2.848 . S
C2269 C2272 1.429 . S
C2269 C2273 1.411 . S
C2269 N2276 1.377 . S
C2270 C2272 1.420 . S
C2270 C2274 1.423 . S
C2270 C2282 1.392 . S
C2271 C2273 1.420 . S
C2271 C2274 1.351 . S
C2271 H2294 0.931 . S
C2272 C2269 1.429 . S
C2272 C2270 1.420 . S
C2272 N2280 1.362 . S
C2273 C2269 1.411 . S
C2273 C2271 1.420 . S
C2273 C2278 1.395 . S
C2274 C2270 1.423 . S
C2274 C2271 1.351 . S
C2274 H2286 0.930 . S
C2275 C2277 1.400 . S
C2275 C2278 1.386 . S
C2275 H2287 0.930 . S
N2276 C2269 1.377 . S
N2276 C2277 1.321 . S
N2276 Eu2279 2.609 . S
C2277 C2275 1.400 . S
C2277 N2276 1.321 . S
C2277 H2284 0.930 . S
C2278 C2273 1.395 . S
C2278 C2275 1.386 . S
C2278 H2297 0.930 . S
Eu2279 N2276 2.609 . S
Eu2279 N2280 2.657 . S
Eu2279 O2313 2.380 . S
Eu2279 O2314 2.432 . S
Eu2279 O2318 2.558 . S
Eu2279 O2319 2.612 . S
Eu2279 O2321 2.339 . S
Eu2279 O2322 2.563 . S
Eu2279 O2323 2.419 . S
Eu2279 C2343 2.848 . S
N2280 C2272 1.362 . S
N2280 Eu2279 2.657 . S
N2280 C2281 1.334 . S
C2281 N2280 1.334 . S
C2281 C2283 1.413 . S
C2281 H2288 0.929 . S
C2282 C2270 1.392 . S
C2282 C2283 1.367 . S
C2282 H2290 0.930 . S
C2283 C2281 1.413 . S
C2283 C2282 1.367 . S
C2283 H2285 0.930 . S
H2284 C2277 0.930 . S
H2285 C2283 0.930 . S
H2286 C2274 0.930 . S
H2287 C2275 0.930 . S
H2288 C2281 0.929 . S
H2289 C2303 0.930 . S
H2290 C2282 0.930 . S
H2291 C2309 0.930 . S
H2292 C2300 0.929 . S
H2293 C2307 0.930 . S
H2294 C2271 0.931 . S
H2295 C2301 0.930 . S
H2296 C2334 0.930 . S
H2297 C2278 0.930 . S
H2298 C2333 0.931 . S
N2299 Eu2268 2.657 . S
N2299 C2300 1.334 . S
N2299 C2304 1.362 . S
C2300 H2292 0.929 . S
C2300 N2299 1.334 . S
C2300 C2303 1.413 . S
C2301 H2295 0.930 . S
C2301 C2302 1.392 . S
C2301 C2303 1.367 . S
C2302 C2301 1.392 . S
C2302 C2304 1.420 . S
C2302 C2334 1.423 . S
C2303 H2289 0.930 . S
C2303 C2300 1.413 . S
C2303 C2301 1.367 . S
C2304 N2299 1.362 . S
C2304 C2302 1.420 . S
C2304 C2308 1.429 . S
H2305 C2310 0.930 . S
N2306 Eu2268 2.609 . S
N2306 C2308 1.377 . S
N2306 C2309 1.321 . S
C2307 H2293 0.930 . S
C2307 C2309 1.400 . S
C2307 C2310 1.386 . S
C2308 C2304 1.429 . S
C2308 N2306 1.377 . S
C2308 C2311 1.411 . S
C2309 H2291 0.930 . S
C2309 N2306 1.321 . S
C2309 C2307 1.400 . S
C2310 H2305 0.930 . S
C2310 C2307 1.386 . S
C2310 C2311 1.395 . S
C2311 C2308 1.411 . S
C2311 C2310 1.395 . S
C2311 C2333 1.420 . S
O2312 Eu2268 2.558 . S
O2312 C2332 1.257 . S
O2313 Eu2268 2.612 . S
O2313 Eu2279 2.380 . S
O2313 C2324 1.276 . S
O2314 Eu2279 2.432 . S
O2314 C2331 1.264 . S
O2315 Eu2268 2.339 . S
O2315 C2331 1.254 . S
O2316 Eu2268 2.563 . S
O2316 C2324 1.235 . S
O2317 Eu2268 2.419 . S
O2317 C2332 1.249 . S
O2318 Eu2279 2.558 . S
O2318 C2343 1.257 . S
O2319 Eu2268 2.380 . S
O2319 Eu2279 2.612 . S
O2319 C2335 1.276 . S
O2320 Eu2268 2.432 . S
O2320 C2342 1.264 . S
O2321 Eu2279 2.339 . S
O2321 C2342 1.254 . S
O2322 Eu2279 2.563 . S
O2322 C2335 1.235 . S
O2323 Eu2279 2.419 . S
O2323 C2343 1.249 . S
C2324 O2313 1.276 . S
C2324 O2316 1.235 . S
C2325 C2327 1.393 . S
C2325 C2329 1.395 . S
C2325 C2332 1.492 . S
C2326 C2327 1.392 . S
C2326 C2328 1.386 . S
C2327 C2325 1.393 . S
C2327 C2326 1.392 . S
C2327 H2344 0.930 . S
C2328 C2326 1.386 . S
C2328 C2330 1.395 . S
C2328 H2345 0.930 . S
C2329 C2325 1.395 . S
C2329 C2330 1.379 . S
C2329 H2346 0.930 . S
C2330 C2328 1.395 . S
C2330 C2329 1.379 . S
C2330 H2347 0.930 . S
C2331 O2314 1.264 . S
C2331 O2315 1.254 . S
C2332 Eu2268 2.848 . S
C2332 O2312 1.257 . S
C2332 O2317 1.249 . S
C2332 C2325 1.492 . S
C2333 H2298 0.931 . S
C2333 C2311 1.420 . S
C2333 C2334 1.351 . S
C2334 H2296 0.930 . S
C2334 C2302 1.423 . S
C2334 C2333 1.351 . S
C2335 O2319 1.276 . S
C2335 O2322 1.235 . S
C2336 C2337 1.393 . S
C2336 C2340 1.395 . S
C2336 C2343 1.492 . S
C2337 C2336 1.393 . S
C2337 C2338 1.392 . S
C2337 H2348 0.930 . S
C2338 C2337 1.392 . S
C2338 C2339 1.386 . S
C2339 C2338 1.386 . S
C2339 C2341 1.395 . S
C2339 H2349 0.930 . S
C2340 C2336 1.395 . S
C2340 C2341 1.379 . S
C2340 H2350 0.930 . S
C2341 C2339 1.395 . S
C2341 C2340 1.379 . S
C2341 H2351 0.930 . S
C2342 O2320 1.264 . S
C2342 O2321 1.254 . S
C2343 Eu2279 2.848 . S
C2343 O2318 1.257 . S
C2343 O2323 1.249 . S
C2343 C2336 1.492 . S
H2344 C2327 0.930 . S
H2345 C2328 0.930 . S
H2346 C2329 0.930 . S
H2347 C2330 0.930 . S
H2348 C2337 0.930 . S
H2349 C2339 0.930 . S
H2350 C2340 0.930 . S
H2351 C2341 0.930 . S
Eu2352 N2383 2.657 . S
Eu2352 N2390 2.609 . S
Eu2352 O2396 2.558 . S
Eu2352 O2397 2.612 . S
Eu2352 O2399 2.339 . S
Eu2352 O2400 2.563 . S
Eu2352 O2401 2.419 . S
Eu2352 O2403 2.380 . S
Eu2352 O2404 2.432 . S
Eu2352 C2416 2.848 . S
C2353 C2356 1.429 . S
C2353 C2357 1.411 . S
C2353 N2360 1.377 . S
C2354 C2356 1.420 . S
C2354 C2358 1.423 . S
C2354 C2366 1.392 . S
C2355 C2357 1.420 . S
C2355 C2358 1.351 . S
C2355 H2378 0.931 . S
C2356 C2353 1.429 . S
C2356 C2354 1.420 . S
C2356 N2364 1.362 . S
C2357 C2353 1.411 . S
C2357 C2355 1.420 . S
C2357 C2362 1.395 . S
C2358 C2354 1.423 . S
C2358 C2355 1.351 . S
C2358 H2370 0.930 . S
C2359 C2361 1.400 . S
C2359 C2362 1.386 . S
C2359 H2371 0.930 . S
N2360 C2353 1.377 . S
N2360 C2361 1.321 . S
N2360 Eu2363 2.609 . S
C2361 C2359 1.400 . S
C2361 N2360 1.321 . S
C2361 H2368 0.930 . S
C2362 C2357 1.395 . S
C2362 C2359 1.386 . S
C2362 H2381 0.930 . S
Eu2363 N2360 2.609 . S
Eu2363 N2364 2.657 . S
Eu2363 O2397 2.380 . S
Eu2363 O2398 2.432 . S
Eu2363 O2402 2.558 . S
Eu2363 O2403 2.612 . S
Eu2363 O2405 2.339 . S
Eu2363 O2406 2.563 . S
Eu2363 O2407 2.419 . S
Eu2363 C2427 2.848 . S
N2364 C2356 1.362 . S
N2364 Eu2363 2.657 . S
N2364 C2365 1.334 . S
C2365 N2364 1.334 . S
C2365 C2367 1.413 . S
C2365 H2372 0.929 . S
C2366 C2354 1.392 . S
C2366 C2367 1.367 . S
C2366 H2374 0.930 . S
C2367 C2365 1.413 . S
C2367 C2366 1.367 . S
C2367 H2369 0.930 . S
H2368 C2361 0.930 . S
H2369 C2367 0.930 . S
H2370 C2358 0.930 . S
H2371 C2359 0.930 . S
H2372 C2365 0.929 . S
H2373 C2387 0.930 . S
H2374 C2366 0.930 . S
H2375 C2393 0.930 . S
H2376 C2384 0.929 . S
H2377 C2391 0.930 . S
H2378 C2355 0.931 . S
H2379 C2385 0.930 . S
H2380 C2418 0.930 . S
H2381 C2362 0.930 . S
H2382 C2417 0.931 . S
N2383 Eu2352 2.657 . S
N2383 C2384 1.334 . S
N2383 C2388 1.362 . S
C2384 H2376 0.929 . S
C2384 N2383 1.334 . S
C2384 C2387 1.413 . S
C2385 H2379 0.930 . S
C2385 C2386 1.392 . S
C2385 C2387 1.367 . S
C2386 C2385 1.392 . S
C2386 C2388 1.420 . S
C2386 C2418 1.423 . S
C2387 H2373 0.930 . S
C2387 C2384 1.413 . S
C2387 C2385 1.367 . S
C2388 N2383 1.362 . S
C2388 C2386 1.420 . S
C2388 C2392 1.429 . S
H2389 C2394 0.930 . S
N2390 Eu2352 2.609 . S
N2390 C2392 1.377 . S
N2390 C2393 1.321 . S
C2391 H2377 0.930 . S
C2391 C2393 1.400 . S
C2391 C2394 1.386 . S
C2392 C2388 1.429 . S
C2392 N2390 1.377 . S
C2392 C2395 1.411 . S
C2393 H2375 0.930 . S
C2393 N2390 1.321 . S
C2393 C2391 1.400 . S
C2394 H2389 0.930 . S
C2394 C2391 1.386 . S
C2394 C2395 1.395 . S
C2395 C2392 1.411 . S
C2395 C2394 1.395 . S
C2395 C2417 1.420 . S
O2396 Eu2352 2.558 . S
O2396 C2416 1.257 . S
O2397 Eu2352 2.612 . S
O2397 Eu2363 2.380 . S
O2397 C2408 1.276 . S
O2398 Eu2363 2.432 . S
O2398 C2415 1.264 . S
O2399 Eu2352 2.339 . S
O2399 C2415 1.254 . S
O2400 Eu2352 2.563 . S
O2400 C2408 1.235 . S
O2401 Eu2352 2.419 . S
O2401 C2416 1.249 . S
O2402 Eu2363 2.558 . S
O2402 C2427 1.257 . S
O2403 Eu2352 2.380 . S
O2403 Eu2363 2.612 . S
O2403 C2419 1.276 . S
O2404 Eu2352 2.432 . S
O2404 C2426 1.264 . S
O2405 Eu2363 2.339 . S
O2405 C2426 1.254 . S
O2406 Eu2363 2.563 . S
O2406 C2419 1.235 . S
O2407 Eu2363 2.419 . S
O2407 C2427 1.249 . S
C2408 O2397 1.276 . S
C2408 O2400 1.235 . S
C2409 C2411 1.393 . S
C2409 C2413 1.395 . S
C2409 C2416 1.492 . S
C2410 C2411 1.392 . S
C2410 C2412 1.386 . S
C2411 C2409 1.393 . S
C2411 C2410 1.392 . S
C2411 H2428 0.930 . S
C2412 C2410 1.386 . S
C2412 C2414 1.395 . S
C2412 H2429 0.930 . S
C2413 C2409 1.395 . S
C2413 C2414 1.379 . S
C2413 H2430 0.930 . S
C2414 C2412 1.395 . S
C2414 C2413 1.379 . S
C2414 H2431 0.930 . S
C2415 O2398 1.264 . S
C2415 O2399 1.254 . S
C2416 Eu2352 2.848 . S
C2416 O2396 1.257 . S
C2416 O2401 1.249 . S
C2416 C2409 1.492 . S
C2417 H2382 0.931 . S
C2417 C2395 1.420 . S
C2417 C2418 1.351 . S
C2418 H2380 0.930 . S
C2418 C2386 1.423 . S
C2418 C2417 1.351 . S
C2419 O2403 1.276 . S
C2419 O2406 1.235 . S
C2420 C2421 1.393 . S
C2420 C2424 1.395 . S
C2420 C2427 1.492 1_554 S
C2421 C2420 1.393 . S
C2421 C2422 1.392 . S
C2421 H2432 0.930 . S
C2422 C2421 1.392 . S
C2422 C2423 1.386 . S
C2423 C2422 1.386 . S
C2423 C2425 1.395 . S
C2423 H2433 0.930 . S
C2424 C2420 1.395 . S
C2424 C2425 1.379 . S
C2424 H2434 0.930 . S
C2425 C2423 1.395 . S
C2425 C2424 1.379 . S
C2425 H2435 0.930 . S
C2426 O2404 1.264 . S
C2426 O2405 1.254 . S
C2427 Eu2363 2.848 . S
C2427 O2402 1.257 . S
C2427 O2407 1.249 . S
C2427 C2420 1.492 1_556 S
H2428 C2411 0.930 . S
H2429 C2412 0.930 . S
H2430 C2413 0.930 . S
H2431 C2414 0.930 . S
H2432 C2421 0.930 . S
H2433 C2423 0.930 . S
H2434 C2424 0.930 . S
H2435 C2425 0.930 . S
Eu2436 N2467 2.657 . S
Eu2436 N2474 2.609 . S
Eu2436 O2480 2.558 . S
Eu2436 O2481 2.612 . S
Eu2436 O2483 2.339 . S
Eu2436 O2484 2.563 . S
Eu2436 O2485 2.419 . S
Eu2436 O2487 2.380 . S
Eu2436 O2488 2.432 . S
Eu2436 C2500 2.848 . S
C2437 C2440 1.429 . S
C2437 C2441 1.411 . S
C2437 N2444 1.377 . S
C2438 C2440 1.420 . S
C2438 C2442 1.423 . S
C2438 C2450 1.392 . S
C2439 C2441 1.420 . S
C2439 C2442 1.351 . S
C2439 H2462 0.931 . S
C2440 C2437 1.429 . S
C2440 C2438 1.420 . S
C2440 N2448 1.362 . S
C2441 C2437 1.411 . S
C2441 C2439 1.420 . S
C2441 C2446 1.395 . S
C2442 C2438 1.423 . S
C2442 C2439 1.351 . S
C2442 H2454 0.930 . S
C2443 C2445 1.400 . S
C2443 C2446 1.386 . S
C2443 H2455 0.930 . S
N2444 C2437 1.377 . S
N2444 C2445 1.321 . S
N2444 Eu2447 2.609 . S
C2445 C2443 1.400 . S
C2445 N2444 1.321 . S
C2445 H2452 0.930 . S
C2446 C2441 1.395 . S
C2446 C2443 1.386 . S
C2446 H2465 0.930 . S
Eu2447 N2444 2.609 . S
Eu2447 N2448 2.657 . S
Eu2447 O2481 2.380 . S
Eu2447 O2482 2.432 . S
Eu2447 O2486 2.558 . S
Eu2447 O2487 2.612 . S
Eu2447 O2489 2.339 . S
Eu2447 O2490 2.563 . S
Eu2447 O2491 2.419 . S
Eu2447 C2511 2.848 . S
N2448 C2440 1.362 . S
N2448 Eu2447 2.657 . S
N2448 C2449 1.334 . S
C2449 N2448 1.334 . S
C2449 C2451 1.413 . S
C2449 H2456 0.929 . S
C2450 C2438 1.392 . S
C2450 C2451 1.367 . S
C2450 H2458 0.930 . S
C2451 C2449 1.413 . S
C2451 C2450 1.367 . S
C2451 H2453 0.930 . S
H2452 C2445 0.930 . S
H2453 C2451 0.930 . S
H2454 C2442 0.930 . S
H2455 C2443 0.930 . S
H2456 C2449 0.929 . S
H2457 C2471 0.930 . S
H2458 C2450 0.930 . S
H2459 C2477 0.930 . S
H2460 C2468 0.929 . S
H2461 C2475 0.930 . S
H2462 C2439 0.931 . S
H2463 C2469 0.930 . S
H2464 C2502 0.930 . S
H2465 C2446 0.930 . S
H2466 C2501 0.931 . S
N2467 Eu2436 2.657 . S
N2467 C2468 1.334 . S
N2467 C2472 1.362 . S
C2468 H2460 0.929 . S
C2468 N2467 1.334 . S
C2468 C2471 1.413 . S
C2469 H2463 0.930 . S
C2469 C2470 1.392 . S
C2469 C2471 1.367 . S
C2470 C2469 1.392 . S
C2470 C2472 1.420 . S
C2470 C2502 1.423 . S
C2471 H2457 0.930 . S
C2471 C2468 1.413 . S
C2471 C2469 1.367 . S
C2472 N2467 1.362 . S
C2472 C2470 1.420 . S
C2472 C2476 1.429 . S
H2473 C2478 0.930 . S
N2474 Eu2436 2.609 . S
N2474 C2476 1.377 . S
N2474 C2477 1.321 . S
C2475 H2461 0.930 . S
C2475 C2477 1.400 . S
C2475 C2478 1.386 . S
C2476 C2472 1.429 . S
C2476 N2474 1.377 . S
C2476 C2479 1.411 . S
C2477 H2459 0.930 . S
C2477 N2474 1.321 . S
C2477 C2475 1.400 . S
C2478 H2473 0.930 . S
C2478 C2475 1.386 . S
C2478 C2479 1.395 . S
C2479 C2476 1.411 . S
C2479 C2478 1.395 . S
C2479 C2501 1.420 . S
O2480 Eu2436 2.558 . S
O2480 C2500 1.257 . S
O2481 Eu2436 2.612 . S
O2481 Eu2447 2.380 . S
O2481 C2492 1.276 . S
O2482 Eu2447 2.432 . S
O2482 C2499 1.264 . S
O2483 Eu2436 2.339 . S
O2483 C2499 1.254 . S
O2484 Eu2436 2.563 . S
O2484 C2492 1.235 . S
O2485 Eu2436 2.419 . S
O2485 C2500 1.249 . S
O2486 Eu2447 2.558 . S
O2486 C2511 1.257 . S
O2487 Eu2436 2.380 . S
O2487 Eu2447 2.612 . S
O2487 C2503 1.276 . S
O2488 Eu2436 2.432 . S
O2488 C2510 1.264 . S
O2489 Eu2447 2.339 . S
O2489 C2510 1.254 . S
O2490 Eu2447 2.563 . S
O2490 C2503 1.235 . S
O2491 Eu2447 2.419 . S
O2491 C2511 1.249 . S
C2492 O2481 1.276 . S
C2492 O2484 1.235 . S
C2493 C2495 1.393 . S
C2493 C2497 1.395 . S
C2493 C2500 1.492 . S
C2494 C2495 1.392 . S
C2494 C2496 1.386 . S
C2495 C2493 1.393 . S
C2495 C2494 1.392 . S
C2495 H2512 0.930 . S
C2496 C2494 1.386 . S
C2496 C2498 1.395 . S
C2496 H2513 0.930 . S
C2497 C2493 1.395 . S
C2497 C2498 1.379 . S
C2497 H2514 0.930 . S
C2498 C2496 1.395 . S
C2498 C2497 1.379 . S
C2498 H2515 0.930 . S
C2499 O2482 1.264 . S
C2499 O2483 1.254 . S
C2500 Eu2436 2.848 . S
C2500 O2480 1.257 . S
C2500 O2485 1.249 . S
C2500 C2493 1.492 . S
C2501 H2466 0.931 . S
C2501 C2479 1.420 . S
C2501 C2502 1.351 . S
C2502 H2464 0.930 . S
C2502 C2470 1.423 . S
C2502 C2501 1.351 . S
C2503 O2487 1.276 . S
C2503 O2490 1.235 . S
C2504 C2505 1.393 . S
C2504 C2508 1.395 . S
C2504 C2511 1.492 1_554 S
C2505 C2504 1.393 . S
C2505 C2506 1.392 . S
C2505 H2516 0.930 . S
C2506 C2505 1.392 . S
C2506 C2507 1.386 . S
C2507 C2506 1.386 . S
C2507 C2509 1.395 . S
C2507 H2517 0.930 . S
C2508 C2504 1.395 . S
C2508 C2509 1.379 . S
C2508 H2518 0.930 . S
C2509 C2507 1.395 . S
C2509 C2508 1.379 . S
C2509 H2519 0.930 . S
C2510 O2488 1.264 . S
C2510 O2489 1.254 . S
C2511 Eu2447 2.848 . S
C2511 O2486 1.257 . S
C2511 O2491 1.249 . S
C2511 C2504 1.492 1_556 S
H2512 C2495 0.930 . S
H2513 C2496 0.930 . S
H2514 C2497 0.930 . S
H2515 C2498 0.930 . S
H2516 C2505 0.930 . S
H2517 C2507 0.930 . S
H2518 C2508 0.930 . S
H2519 C2509 0.930 . S
Eu2520 N2551 2.657 . S
Eu2520 N2558 2.609 . S
Eu2520 O2564 2.558 . S
Eu2520 O2565 2.612 . S
Eu2520 O2567 2.339 . S
Eu2520 O2568 2.563 . S
Eu2520 O2569 2.419 . S
Eu2520 O2571 2.380 . S
Eu2520 O2572 2.432 . S
Eu2520 C2584 2.848 . S
C2521 C2524 1.429 . S
C2521 C2525 1.411 . S
C2521 N2528 1.377 . S
C2522 C2524 1.420 . S
C2522 C2526 1.423 . S
C2522 C2534 1.392 . S
C2523 C2525 1.420 . S
C2523 C2526 1.351 . S
C2523 H2546 0.931 . S
C2524 C2521 1.429 . S
C2524 C2522 1.420 . S
C2524 N2532 1.362 . S
C2525 C2521 1.411 . S
C2525 C2523 1.420 . S
C2525 C2530 1.395 . S
C2526 C2522 1.423 . S
C2526 C2523 1.351 . S
C2526 H2538 0.930 . S
C2527 C2529 1.400 . S
C2527 C2530 1.386 . S
C2527 H2539 0.930 . S
N2528 C2521 1.377 . S
N2528 C2529 1.321 . S
N2528 Eu2531 2.609 . S
C2529 C2527 1.400 . S
C2529 N2528 1.321 . S
C2529 H2536 0.930 . S
C2530 C2525 1.395 . S
C2530 C2527 1.386 . S
C2530 H2549 0.930 . S
Eu2531 N2528 2.609 . S
Eu2531 N2532 2.657 . S
Eu2531 O2565 2.380 . S
Eu2531 O2566 2.432 . S
Eu2531 O2570 2.558 . S
Eu2531 O2571 2.612 . S
Eu2531 O2573 2.339 . S
Eu2531 O2574 2.563 . S
Eu2531 O2575 2.419 . S
Eu2531 C2595 2.848 . S
N2532 C2524 1.362 . S
N2532 Eu2531 2.657 . S
N2532 C2533 1.334 . S
C2533 N2532 1.334 . S
C2533 C2535 1.413 . S
C2533 H2540 0.929 . S
C2534 C2522 1.392 . S
C2534 C2535 1.367 . S
C2534 H2542 0.930 . S
C2535 C2533 1.413 . S
C2535 C2534 1.367 . S
C2535 H2537 0.930 . S
H2536 C2529 0.930 . S
H2537 C2535 0.930 . S
H2538 C2526 0.930 . S
H2539 C2527 0.930 . S
H2540 C2533 0.929 . S
H2541 C2555 0.930 . S
H2542 C2534 0.930 . S
H2543 C2561 0.930 . S
H2544 C2552 0.929 . S
H2545 C2559 0.930 . S
H2546 C2523 0.931 . S
H2547 C2553 0.930 . S
H2548 C2586 0.930 . S
H2549 C2530 0.930 . S
H2550 C2585 0.931 . S
N2551 Eu2520 2.657 . S
N2551 C2552 1.334 . S
N2551 C2556 1.362 . S
C2552 H2544 0.929 . S
C2552 N2551 1.334 . S
C2552 C2555 1.413 . S
C2553 H2547 0.930 . S
C2553 C2554 1.392 . S
C2553 C2555 1.367 . S
C2554 C2553 1.392 . S
C2554 C2556 1.420 . S
C2554 C2586 1.423 . S
C2555 H2541 0.930 . S
C2555 C2552 1.413 . S
C2555 C2553 1.367 . S
C2556 N2551 1.362 . S
C2556 C2554 1.420 . S
C2556 C2560 1.429 . S
H2557 C2562 0.930 . S
N2558 Eu2520 2.609 . S
N2558 C2560 1.377 . S
N2558 C2561 1.321 . S
C2559 H2545 0.930 . S
C2559 C2561 1.400 . S
C2559 C2562 1.386 . S
C2560 C2556 1.429 . S
C2560 N2558 1.377 . S
C2560 C2563 1.411 . S
C2561 H2543 0.930 . S
C2561 N2558 1.321 . S
C2561 C2559 1.400 . S
C2562 H2557 0.930 . S
C2562 C2559 1.386 . S
C2562 C2563 1.395 . S
C2563 C2560 1.411 . S
C2563 C2562 1.395 . S
C2563 C2585 1.420 . S
O2564 Eu2520 2.558 . S
O2564 C2584 1.257 . S
O2565 Eu2520 2.612 . S
O2565 Eu2531 2.380 . S
O2565 C2576 1.276 . S
O2566 Eu2531 2.432 . S
O2566 C2583 1.264 . S
O2567 Eu2520 2.339 . S
O2567 C2583 1.254 . S
O2568 Eu2520 2.563 . S
O2568 C2576 1.235 . S
O2569 Eu2520 2.419 . S
O2569 C2584 1.249 . S
O2570 Eu2531 2.558 . S
O2570 C2595 1.257 . S
O2571 Eu2520 2.380 . S
O2571 Eu2531 2.612 . S
O2571 C2587 1.276 . S
O2572 Eu2520 2.432 . S
O2572 C2594 1.264 . S
O2573 Eu2531 2.339 . S
O2573 C2594 1.254 . S
O2574 Eu2531 2.563 . S
O2574 C2587 1.235 . S
O2575 Eu2531 2.419 . S
O2575 C2595 1.249 . S
C2576 O2565 1.276 . S
C2576 O2568 1.235 . S
C2577 C2579 1.393 . S
C2577 C2581 1.395 . S
C2577 C2584 1.492 . S
C2578 C2579 1.392 . S
C2578 C2580 1.386 . S
C2579 C2577 1.393 . S
C2579 C2578 1.392 . S
C2579 H2596 0.930 . S
C2580 C2578 1.386 . S
C2580 C2582 1.395 . S
C2580 H2597 0.930 . S
C2581 C2577 1.395 . S
C2581 C2582 1.379 . S
C2581 H2598 0.930 . S
C2582 C2580 1.395 . S
C2582 C2581 1.379 . S
C2582 H2599 0.930 . S
C2583 O2566 1.264 . S
C2583 O2567 1.254 . S
C2584 Eu2520 2.848 . S
C2584 O2564 1.257 . S
C2584 O2569 1.249 . S
C2584 C2577 1.492 . S
C2585 H2550 0.931 . S
C2585 C2563 1.420 . S
C2585 C2586 1.351 . S
C2586 H2548 0.930 . S
C2586 C2554 1.423 . S
C2586 C2585 1.351 . S
C2587 O2571 1.276 . S
C2587 O2574 1.235 . S
C2588 C2589 1.393 . S
C2588 C2592 1.395 . S
C2588 C2595 1.492 . S
C2589 C2588 1.393 . S
C2589 C2590 1.392 . S
C2589 H2600 0.930 . S
C2590 C2589 1.392 . S
C2590 C2591 1.386 . S
C2591 C2590 1.386 . S
C2591 C2593 1.395 . S
C2591 H2601 0.930 . S
C2592 C2588 1.395 . S
C2592 C2593 1.379 . S
C2592 H2602 0.930 . S
C2593 C2591 1.395 . S
C2593 C2592 1.379 . S
C2593 H2603 0.930 . S
C2594 O2572 1.264 . S
C2594 O2573 1.254 . S
C2595 Eu2531 2.848 . S
C2595 O2570 1.257 . S
C2595 O2575 1.249 . S
C2595 C2588 1.492 . S
H2596 C2579 0.930 . S
H2597 C2580 0.930 . S
H2598 C2581 0.930 . S
H2599 C2582 0.930 . S
H2600 C2589 0.930 . S
H2601 C2591 0.930 . S
H2602 C2592 0.930 . S
H2603 C2593 0.930 . S
Eu2604 N2635 2.657 . S
Eu2604 N2642 2.609 . S
Eu2604 O2648 2.558 . S
Eu2604 O2649 2.612 . S
Eu2604 O2651 2.339 . S
Eu2604 O2652 2.563 . S
Eu2604 O2653 2.419 . S
Eu2604 O2655 2.380 . S
Eu2604 O2656 2.432 . S
Eu2604 C2668 2.848 . S
C2605 C2608 1.429 . S
C2605 C2609 1.411 . S
C2605 N2612 1.377 . S
C2606 C2608 1.420 . S
C2606 C2610 1.423 . S
C2606 C2618 1.392 . S
C2607 C2609 1.420 . S
C2607 C2610 1.351 . S
C2607 H2630 0.931 . S
C2608 C2605 1.429 . S
C2608 C2606 1.420 . S
C2608 N2616 1.362 . S
C2609 C2605 1.411 . S
C2609 C2607 1.420 . S
C2609 C2614 1.395 . S
C2610 C2606 1.423 . S
C2610 C2607 1.351 . S
C2610 H2622 0.930 . S
C2611 C2613 1.400 . S
C2611 C2614 1.386 . S
C2611 H2623 0.930 . S
N2612 C2605 1.377 . S
N2612 C2613 1.321 . S
N2612 Eu2615 2.609 . S
C2613 C2611 1.400 . S
C2613 N2612 1.321 . S
C2613 H2620 0.930 . S
C2614 C2609 1.395 . S
C2614 C2611 1.386 . S
C2614 H2633 0.930 . S
Eu2615 N2612 2.609 . S
Eu2615 N2616 2.657 . S
Eu2615 O2649 2.380 . S
Eu2615 O2650 2.432 . S
Eu2615 O2654 2.558 . S
Eu2615 O2655 2.612 . S
Eu2615 O2657 2.339 . S
Eu2615 O2658 2.563 . S
Eu2615 O2659 2.419 . S
Eu2615 C2679 2.848 . S
N2616 C2608 1.362 . S
N2616 Eu2615 2.657 . S
N2616 C2617 1.334 . S
C2617 N2616 1.334 . S
C2617 C2619 1.413 . S
C2617 H2624 0.929 . S
C2618 C2606 1.392 . S
C2618 C2619 1.367 . S
C2618 H2626 0.930 . S
C2619 C2617 1.413 . S
C2619 C2618 1.367 . S
C2619 H2621 0.930 . S
H2620 C2613 0.930 . S
H2621 C2619 0.930 . S
H2622 C2610 0.930 . S
H2623 C2611 0.930 . S
H2624 C2617 0.929 . S
H2625 C2639 0.930 . S
H2626 C2618 0.930 . S
H2627 C2645 0.930 . S
H2628 C2636 0.929 . S
H2629 C2643 0.930 . S
H2630 C2607 0.931 . S
H2631 C2637 0.930 . S
H2632 C2670 0.930 . S
H2633 C2614 0.930 . S
H2634 C2669 0.931 . S
N2635 Eu2604 2.657 . S
N2635 C2636 1.334 . S
N2635 C2640 1.362 . S
C2636 H2628 0.929 . S
C2636 N2635 1.334 . S
C2636 C2639 1.413 . S
C2637 H2631 0.930 . S
C2637 C2638 1.392 . S
C2637 C2639 1.367 . S
C2638 C2637 1.392 . S
C2638 C2640 1.420 . S
C2638 C2670 1.423 . S
C2639 H2625 0.930 . S
C2639 C2636 1.413 . S
C2639 C2637 1.367 . S
C2640 N2635 1.362 . S
C2640 C2638 1.420 . S
C2640 C2644 1.429 . S
H2641 C2646 0.930 . S
N2642 Eu2604 2.609 . S
N2642 C2644 1.377 . S
N2642 C2645 1.321 . S
C2643 H2629 0.930 . S
C2643 C2645 1.400 . S
C2643 C2646 1.386 . S
C2644 C2640 1.429 . S
C2644 N2642 1.377 . S
C2644 C2647 1.411 . S
C2645 H2627 0.930 . S
C2645 N2642 1.321 . S
C2645 C2643 1.400 . S
C2646 H2641 0.930 . S
C2646 C2643 1.386 . S
C2646 C2647 1.395 . S
C2647 C2644 1.411 . S
C2647 C2646 1.395 . S
C2647 C2669 1.420 . S
O2648 Eu2604 2.558 . S
O2648 C2668 1.257 . S
O2649 Eu2604 2.612 . S
O2649 Eu2615 2.380 . S
O2649 C2660 1.276 . S
O2650 Eu2615 2.432 . S
O2650 C2667 1.264 . S
O2651 Eu2604 2.339 . S
O2651 C2667 1.254 . S
O2652 Eu2604 2.563 . S
O2652 C2660 1.235 . S
O2653 Eu2604 2.419 . S
O2653 C2668 1.249 . S
O2654 Eu2615 2.558 . S
O2654 C2679 1.257 . S
O2655 Eu2604 2.380 . S
O2655 Eu2615 2.612 . S
O2655 C2671 1.276 . S
O2656 Eu2604 2.432 . S
O2656 C2678 1.264 . S
O2657 Eu2615 2.339 . S
O2657 C2678 1.254 . S
O2658 Eu2615 2.563 . S
O2658 C2671 1.235 . S
O2659 Eu2615 2.419 . S
O2659 C2679 1.249 . S
C2660 O2649 1.276 . S
C2660 O2652 1.235 . S
C2661 C2663 1.393 . S
C2661 C2665 1.395 . S
C2661 C2668 1.492 . S
C2662 C2663 1.392 . S
C2662 C2664 1.386 . S
C2663 C2661 1.393 . S
C2663 C2662 1.392 . S
C2663 H2680 0.930 . S
C2664 C2662 1.386 . S
C2664 C2666 1.395 . S
C2664 H2681 0.930 . S
C2665 C2661 1.395 . S
C2665 C2666 1.379 . S
C2665 H2682 0.930 . S
C2666 C2664 1.395 . S
C2666 C2665 1.379 . S
C2666 H2683 0.930 . S
C2667 O2650 1.264 . S
C2667 O2651 1.254 . S
C2668 Eu2604 2.848 . S
C2668 O2648 1.257 . S
C2668 O2653 1.249 . S
C2668 C2661 1.492 . S
C2669 H2634 0.931 . S
C2669 C2647 1.420 . S
C2669 C2670 1.351 . S
C2670 H2632 0.930 . S
C2670 C2638 1.423 . S
C2670 C2669 1.351 . S
C2671 O2655 1.276 . S
C2671 O2658 1.235 . S
C2672 C2673 1.393 . S
C2672 C2676 1.395 . S
C2672 C2679 1.492 . S
C2673 C2672 1.393 . S
C2673 C2674 1.392 . S
C2673 H2684 0.930 . S
C2674 C2673 1.392 . S
C2674 C2675 1.386 . S
C2675 C2674 1.386 . S
C2675 C2677 1.395 . S
C2675 H2685 0.930 . S
C2676 C2672 1.395 . S
C2676 C2677 1.379 . S
C2676 H2686 0.930 . S
C2677 C2675 1.395 . S
C2677 C2676 1.379 . S
C2677 H2687 0.930 . S
C2678 O2656 1.264 . S
C2678 O2657 1.254 . S
C2679 Eu2615 2.848 . S
C2679 O2654 1.257 . S
C2679 O2659 1.249 . S
C2679 C2672 1.492 . S
H2680 C2663 0.930 . S
H2681 C2664 0.930 . S
H2682 C2665 0.930 . S
H2683 C2666 0.930 . S
H2684 C2673 0.930 . S
H2685 C2675 0.930 . S
H2686 C2676 0.930 . S
H2687 C2677 0.930 . S
C2688 C2689 1.349 . S
C2688 C2690 1.327 . S
C2688 H2713 0.950 . S
C2689 C2688 1.349 . S
C2689 C2705 1.349 . S
C2690 C2688 1.327 . S
C2690 C2709 1.429 . S
C2690 H2714 0.950 . S
C2691 C2708 1.574 . S
C2691 C2710 1.368 . S
C2691 H2715 0.949 . S
H2692 C2696 0.949 . S
C2693 C2694 1.349 . S
C2693 C2695 1.327 . S
C2693 H2716 0.950 . S
C2694 C2693 1.349 . S
C2694 C2706 1.349 . S
C2695 C2693 1.327 . S
C2695 C2711 1.429 . S
C2695 H2717 0.950 . S
C2696 H2692 0.949 . S
C2696 C2704 1.574 . S
C2696 C2712 1.368 . S
H2697 C2705 0.950 . S
H2698 C2703 0.950 . S
H2699 C2704 0.949 . S
H2700 C2706 0.950 . S
H2701 C2707 0.950 . S
H2702 C2708 0.949 . S
C2703 H2698 0.950 . S
C2703 C2705 1.327 . S
C2703 C2709 1.429 . S
C2704 C2696 1.574 . S
C2704 H2699 0.949 . S
C2704 C2710 1.368 . S
C2705 C2689 1.349 . S
C2705 H2697 0.950 . S
C2705 C2703 1.327 . S
C2706 C2694 1.349 . S
C2706 H2700 0.950 . S
C2706 C2707 1.327 . S
C2707 H2701 0.950 . S
C2707 C2706 1.327 . S
C2707 C2711 1.429 . S
C2708 C2691 1.574 . S
C2708 H2702 0.949 . S
C2708 C2712 1.368 . S
C2709 C2690 1.429 . S
C2709 C2703 1.429 . S
C2709 C2710 1.523 . S
C2710 C2691 1.368 . S
C2710 C2704 1.368 . S
C2710 C2709 1.523 . S
C2711 C2695 1.429 . S
C2711 C2707 1.429 . S
C2711 C2712 1.523 . S
C2712 C2696 1.368 . S
C2712 C2708 1.368 . S
C2712 C2711 1.523 . S
H2713 C2688 0.950 . S
H2714 C2690 0.950 . S
H2715 C2691 0.949 . S
H2716 C2693 0.950 . S
H2717 C2695 0.950 . S
C2718 C2719 1.349 . S
C2718 C2720 1.327 . S
C2718 H2743 0.950 . S
C2719 C2718 1.349 . S
C2719 C2735 1.349 . S
C2720 C2718 1.327 . S
C2720 C2739 1.429 . S
C2720 H2744 0.950 . S
C2721 C2738 1.574 . S
C2721 C2740 1.368 . S
C2721 H2745 0.949 . S
H2722 C2726 0.949 . S
C2723 C2724 1.349 . S
C2723 C2725 1.327 . S
C2723 H2746 0.950 . S
C2724 C2723 1.349 . S
C2724 C2736 1.349 . S
C2725 C2723 1.327 . S
C2725 C2741 1.429 . S
C2725 H2747 0.950 . S
C2726 H2722 0.949 . S
C2726 C2734 1.574 . S
C2726 C2742 1.368 . S
H2727 C2735 0.950 . S
H2728 C2733 0.950 . S
H2729 C2734 0.949 . S
H2730 C2736 0.950 . S
H2731 C2737 0.950 . S
H2732 C2738 0.949 . S
C2733 H2728 0.950 . S
C2733 C2735 1.327 . S
C2733 C2739 1.429 . S
C2734 C2726 1.574 . S
C2734 H2729 0.949 . S
C2734 C2740 1.368 . S
C2735 C2719 1.349 . S
C2735 H2727 0.950 . S
C2735 C2733 1.327 . S
C2736 C2724 1.349 . S
C2736 H2730 0.950 . S
C2736 C2737 1.327 . S
C2737 H2731 0.950 . S
C2737 C2736 1.327 . S
C2737 C2741 1.429 . S
C2738 C2721 1.574 . S
C2738 H2732 0.949 . S
C2738 C2742 1.368 . S
C2739 C2720 1.429 . S
C2739 C2733 1.429 . S
C2739 C2740 1.523 . S
C2740 C2721 1.368 . S
C2740 C2734 1.368 . S
C2740 C2739 1.523 . S
C2741 C2725 1.429 . S
C2741 C2737 1.429 . S
C2741 C2742 1.523 . S
C2742 C2726 1.368 . S
C2742 C2738 1.368 . S
C2742 C2741 1.523 . S
H2743 C2718 0.950 . S
H2744 C2720 0.950 . S
H2745 C2721 0.949 . S
H2746 C2723 0.950 . S
H2747 C2725 0.950 . S
C2748 C2749 1.349 . S
C2748 C2750 1.327 . S
C2748 H2773 0.950 . S
C2749 C2748 1.349 . S
C2749 C2765 1.349 . S
C2750 C2748 1.327 . S
C2750 C2769 1.429 . S
C2750 H2774 0.950 . S
C2751 C2768 1.574 . S
C2751 C2770 1.368 . S
C2751 H2775 0.949 . S
H2752 C2756 0.949 . S
C2753 C2754 1.349 . S
C2753 C2755 1.327 . S
C2753 H2776 0.950 . S
C2754 C2753 1.349 . S
C2754 C2766 1.349 . S
C2755 C2753 1.327 . S
C2755 C2771 1.429 . S
C2755 H2777 0.950 . S
C2756 H2752 0.949 . S
C2756 C2764 1.574 . S
C2756 C2772 1.368 . S
H2757 C2765 0.950 . S
H2758 C2763 0.950 . S
H2759 C2764 0.949 . S
H2760 C2766 0.950 . S
H2761 C2767 0.950 . S
H2762 C2768 0.949 . S
C2763 H2758 0.950 . S
C2763 C2765 1.327 . S
C2763 C2769 1.429 . S
C2764 C2756 1.574 . S
C2764 H2759 0.949 . S
C2764 C2770 1.368 . S
C2765 C2749 1.349 . S
C2765 H2757 0.950 . S
C2765 C2763 1.327 . S
C2766 C2754 1.349 . S
C2766 H2760 0.950 . S
C2766 C2767 1.327 . S
C2767 H2761 0.950 . S
C2767 C2766 1.327 . S
C2767 C2771 1.429 . S
C2768 C2751 1.574 . S
C2768 H2762 0.949 . S
C2768 C2772 1.368 . S
C2769 C2750 1.429 . S
C2769 C2763 1.429 . S
C2769 C2770 1.523 . S
C2770 C2751 1.368 . S
C2770 C2764 1.368 . S
C2770 C2769 1.523 . S
C2771 C2755 1.429 . S
C2771 C2767 1.429 . S
C2771 C2772 1.523 . S
C2772 C2756 1.368 . S
C2772 C2768 1.368 . S
C2772 C2771 1.523 . S
H2773 C2748 0.950 . S
H2774 C2750 0.950 . S
H2775 C2751 0.949 . S
H2776 C2753 0.950 . S
H2777 C2755 0.950 . S
C2778 C2779 1.349 . S
C2778 C2780 1.327 . S
C2778 H2803 0.950 . S
C2779 C2778 1.349 . S
C2779 C2795 1.349 . S
C2780 C2778 1.327 . S
C2780 C2799 1.429 . S
C2780 H2804 0.950 . S
C2781 C2798 1.574 . S
C2781 C2800 1.368 . S
C2781 H2805 0.949 . S
H2782 C2786 0.949 . S
C2783 C2784 1.349 . S
C2783 C2785 1.327 . S
C2783 H2806 0.950 . S
C2784 C2783 1.349 . S
C2784 C2796 1.349 . S
C2785 C2783 1.327 . S
C2785 C2801 1.429 . S
C2785 H2807 0.950 . S
C2786 H2782 0.949 . S
C2786 C2794 1.574 . S
C2786 C2802 1.368 . S
H2787 C2795 0.950 . S
H2788 C2793 0.950 . S
H2789 C2794 0.949 . S
H2790 C2796 0.950 . S
H2791 C2797 0.950 . S
H2792 C2798 0.949 . S
C2793 H2788 0.950 . S
C2793 C2795 1.327 . S
C2793 C2799 1.429 . S
C2794 C2786 1.574 . S
C2794 H2789 0.949 . S
C2794 C2800 1.368 . S
C2795 C2779 1.349 . S
C2795 H2787 0.950 . S
C2795 C2793 1.327 . S
C2796 C2784 1.349 . S
C2796 H2790 0.950 . S
C2796 C2797 1.327 . S
C2797 H2791 0.950 . S
C2797 C2796 1.327 . S
C2797 C2801 1.429 . S
C2798 C2781 1.574 . S
C2798 H2792 0.949 . S
C2798 C2802 1.368 . S
C2799 C2780 1.429 . S
C2799 C2793 1.429 . S
C2799 C2800 1.523 . S
C2800 C2781 1.368 . S
C2800 C2794 1.368 . S
C2800 C2799 1.523 . S
C2801 C2785 1.429 . S
C2801 C2797 1.429 . S
C2801 C2802 1.523 . S
C2802 C2786 1.368 . S
C2802 C2798 1.368 . S
C2802 C2801 1.523 . S
H2803 C2778 0.950 . S
H2804 C2780 0.950 . S
H2805 C2781 0.949 . S
H2806 C2783 0.950 . S
H2807 C2785 0.950 . S
C2808 C2809 1.349 . S
C2808 C2810 1.327 . S
C2808 H2833 0.950 . S
C2809 C2808 1.349 . S
C2809 C2825 1.349 . S
C2810 C2808 1.327 . S
C2810 C2829 1.429 . S
C2810 H2834 0.950 . S
C2811 C2828 1.574 . S
C2811 C2830 1.368 . S
C2811 H2835 0.949 . S
H2812 C2816 0.949 . S
C2813 C2814 1.349 . S
C2813 C2815 1.327 . S
C2813 H2836 0.950 . S
C2814 C2813 1.349 . S
C2814 C2826 1.349 . S
C2815 C2813 1.327 . S
C2815 C2831 1.429 . S
C2815 H2837 0.950 . S
C2816 H2812 0.949 . S
C2816 C2824 1.574 . S
C2816 C2832 1.368 . S
H2817 C2825 0.950 . S
H2818 C2823 0.950 . S
H2819 C2824 0.949 . S
H2820 C2826 0.950 . S
H2821 C2827 0.950 . S
H2822 C2828 0.949 . S
C2823 H2818 0.950 . S
C2823 C2825 1.327 . S
C2823 C2829 1.429 . S
C2824 C2816 1.574 . S
C2824 H2819 0.949 . S
C2824 C2830 1.368 . S
C2825 C2809 1.349 . S
C2825 H2817 0.950 . S
C2825 C2823 1.327 . S
C2826 C2814 1.349 . S
C2826 H2820 0.950 . S
C2826 C2827 1.327 . S
C2827 H2821 0.950 . S
C2827 C2826 1.327 . S
C2827 C2831 1.429 . S
C2828 C2811 1.574 . S
C2828 H2822 0.949 . S
C2828 C2832 1.368 . S
C2829 C2810 1.429 . S
C2829 C2823 1.429 . S
C2829 C2830 1.523 . S
C2830 C2811 1.368 . S
C2830 C2824 1.368 . S
C2830 C2829 1.523 . S
C2831 C2815 1.429 . S
C2831 C2827 1.429 . S
C2831 C2832 1.523 . S
C2832 C2816 1.368 . S
C2832 C2828 1.368 . S
C2832 C2831 1.523 . S
H2833 C2808 0.950 . S
H2834 C2810 0.950 . S
H2835 C2811 0.949 . S
H2836 C2813 0.950 . S
H2837 C2815 0.950 . S
C2838 C2839 1.349 . S
C2838 C2840 1.327 . S
C2838 H2863 0.950 . S
C2839 C2838 1.349 . S
C2839 C2855 1.349 . S
C2840 C2838 1.327 . S
C2840 C2859 1.429 . S
C2840 H2864 0.950 . S
C2841 C2858 1.574 . S
C2841 C2860 1.368 . S
C2841 H2865 0.949 . S
H2842 C2846 0.949 . S
C2843 C2844 1.349 . S
C2843 C2845 1.327 . S
C2843 H2866 0.950 . S
C2844 C2843 1.349 . S
C2844 C2856 1.349 . S
C2845 C2843 1.327 . S
C2845 C2861 1.429 . S
C2845 H2867 0.950 . S
C2846 H2842 0.949 . S
C2846 C2854 1.574 . S
C2846 C2862 1.368 . S
H2847 C2855 0.950 . S
H2848 C2853 0.950 . S
H2849 C2854 0.949 . S
H2850 C2856 0.950 . S
H2851 C2857 0.950 . S
H2852 C2858 0.949 . S
C2853 H2848 0.950 . S
C2853 C2855 1.327 . S
C2853 C2859 1.429 . S
C2854 C2846 1.574 . S
C2854 H2849 0.949 . S
C2854 C2860 1.368 . S
C2855 C2839 1.349 . S
C2855 H2847 0.950 . S
C2855 C2853 1.327 . S
C2856 C2844 1.349 . S
C2856 H2850 0.950 . S
C2856 C2857 1.327 . S
C2857 H2851 0.950 . S
C2857 C2856 1.327 . S
C2857 C2861 1.429 . S
C2858 C2841 1.574 . S
C2858 H2852 0.949 . S
C2858 C2862 1.368 . S
C2859 C2840 1.429 . S
C2859 C2853 1.429 . S
C2859 C2860 1.523 . S
C2860 C2841 1.368 . S
C2860 C2854 1.368 . S
C2860 C2859 1.523 . S
C2861 C2845 1.429 . S
C2861 C2857 1.429 . S
C2861 C2862 1.523 . S
C2862 C2846 1.368 . S
C2862 C2858 1.368 . S
C2862 C2861 1.523 . S
H2863 C2838 0.950 . S
H2864 C2840 0.950 . S
H2865 C2841 0.949 . S
H2866 C2843 0.950 . S
H2867 C2845 0.950 . S
C2868 C2869 1.349 . S
C2868 C2870 1.327 . S
C2868 H2893 0.950 . S
C2869 C2868 1.349 . S
C2869 C2885 1.349 . S
C2870 C2868 1.327 . S
C2870 C2889 1.429 . S
C2870 H2894 0.950 . S
C2871 C2888 1.574 . S
C2871 C2890 1.368 . S
C2871 H2895 0.949 . S
H2872 C2876 0.949 . S
C2873 C2874 1.349 . S
C2873 C2875 1.327 . S
C2873 H2896 0.950 . S
C2874 C2873 1.349 . S
C2874 C2886 1.349 . S
C2875 C2873 1.327 . S
C2875 C2891 1.429 . S
C2875 H2897 0.950 . S
C2876 H2872 0.949 . S
C2876 C2884 1.574 . S
C2876 C2892 1.368 . S
H2877 C2885 0.950 . S
H2878 C2883 0.950 . S
H2879 C2884 0.949 . S
H2880 C2886 0.950 . S
H2881 C2887 0.950 . S
H2882 C2888 0.949 . S
C2883 H2878 0.950 . S
C2883 C2885 1.327 . S
C2883 C2889 1.429 . S
C2884 C2876 1.574 . S
C2884 H2879 0.949 . S
C2884 C2890 1.368 . S
C2885 C2869 1.349 . S
C2885 H2877 0.950 . S
C2885 C2883 1.327 . S
C2886 C2874 1.349 . S
C2886 H2880 0.950 . S
C2886 C2887 1.327 . S
C2887 H2881 0.950 . S
C2887 C2886 1.327 . S
C2887 C2891 1.429 . S
C2888 C2871 1.574 . S
C2888 H2882 0.949 . S
C2888 C2892 1.368 . S
C2889 C2870 1.429 . S
C2889 C2883 1.429 . S
C2889 C2890 1.523 . S
C2890 C2871 1.368 . S
C2890 C2884 1.368 . S
C2890 C2889 1.523 . S
C2891 C2875 1.429 . S
C2891 C2887 1.429 . S
C2891 C2892 1.523 . S
C2892 C2876 1.368 . S
C2892 C2888 1.368 . S
C2892 C2891 1.523 . S
H2893 C2868 0.950 . S
H2894 C2870 0.950 . S
H2895 C2871 0.949 . S
H2896 C2873 0.950 . S
H2897 C2875 0.950 . S
C2898 C2899 1.349 . S
C2898 C2900 1.327 . S
C2898 H2923 0.950 . S
C2899 C2898 1.349 . S
C2899 C2915 1.349 . S
C2900 C2898 1.327 . S
C2900 C2919 1.429 . S
C2900 H2924 0.950 . S
C2901 C2918 1.574 . S
C2901 C2920 1.368 . S
C2901 H2925 0.949 . S
H2902 C2906 0.949 . S
C2903 C2904 1.349 . S
C2903 C2905 1.327 . S
C2903 H2926 0.950 . S
C2904 C2903 1.349 . S
C2904 C2916 1.349 . S
C2905 C2903 1.327 . S
C2905 C2921 1.429 . S
C2905 H2927 0.950 . S
C2906 H2902 0.949 . S
C2906 C2914 1.574 . S
C2906 C2922 1.368 . S
H2907 C2915 0.950 . S
H2908 C2913 0.950 . S
H2909 C2914 0.949 . S
H2910 C2916 0.950 . S
H2911 C2917 0.950 . S
H2912 C2918 0.949 . S
C2913 H2908 0.950 . S
C2913 C2915 1.327 . S
C2913 C2919 1.429 . S
C2914 C2906 1.574 . S
C2914 H2909 0.949 . S
C2914 C2920 1.368 . S
C2915 C2899 1.349 . S
C2915 H2907 0.950 . S
C2915 C2913 1.327 . S
C2916 C2904 1.349 . S
C2916 H2910 0.950 . S
C2916 C2917 1.327 . S
C2917 H2911 0.950 . S
C2917 C2916 1.327 . S
C2917 C2921 1.429 . S
C2918 C2901 1.574 . S
C2918 H2912 0.949 . S
C2918 C2922 1.368 . S
C2919 C2900 1.429 . S
C2919 C2913 1.429 . S
C2919 C2920 1.523 . S
C2920 C2901 1.368 . S
C2920 C2914 1.368 . S
C2920 C2919 1.523 . S
C2921 C2905 1.429 . S
C2921 C2917 1.429 . S
C2921 C2922 1.523 . S
C2922 C2906 1.368 . S
C2922 C2918 1.368 . S
C2922 C2921 1.523 . S
H2923 C2898 0.950 . S
H2924 C2900 0.950 . S
H2925 C2901 0.949 . S
H2926 C2903 0.950 . S
H2927 C2905 0.950 . S
C2928 C2929 1.349 . S
C2928 C2930 1.327 . S
C2928 H2953 0.950 . S
C2929 C2928 1.349 . S
C2929 C2945 1.349 . S
C2930 C2928 1.327 . S
C2930 C2949 1.429 . S
C2930 H2954 0.950 . S
C2931 C2948 1.574 . S
C2931 C2950 1.368 . S
C2931 H2955 0.949 . S
H2932 C2936 0.949 . S
C2933 C2934 1.349 . S
C2933 C2935 1.327 . S
C2933 H2956 0.950 . S
C2934 C2933 1.349 . S
C2934 C2946 1.349 . S
C2935 C2933 1.327 . S
C2935 C2951 1.429 . S
C2935 H2957 0.950 . S
C2936 H2932 0.949 . S
C2936 C2944 1.574 . S
C2936 C2952 1.368 . S
H2937 C2945 0.950 . S
H2938 C2943 0.950 . S
H2939 C2944 0.949 . S
H2940 C2946 0.950 . S
H2941 C2947 0.950 . S
H2942 C2948 0.949 . S
C2943 H2938 0.950 . S
C2943 C2945 1.327 . S
C2943 C2949 1.429 . S
C2944 C2936 1.574 . S
C2944 H2939 0.949 . S
C2944 C2950 1.368 . S
C2945 C2929 1.349 . S
C2945 H2937 0.950 . S
C2945 C2943 1.327 . S
C2946 C2934 1.349 . S
C2946 H2940 0.950 . S
C2946 C2947 1.327 . S
C2947 H2941 0.950 . S
C2947 C2946 1.327 . S
C2947 C2951 1.429 . S
C2948 C2931 1.574 . S
C2948 H2942 0.949 . S
C2948 C2952 1.368 . S
C2949 C2930 1.429 . S
C2949 C2943 1.429 . S
C2949 C2950 1.523 . S
C2950 C2931 1.368 . S
C2950 C2944 1.368 . S
C2950 C2949 1.523 . S
C2951 C2935 1.429 . S
C2951 C2947 1.429 . S
C2951 C2952 1.523 . S
C2952 C2936 1.368 . S
C2952 C2948 1.368 . S
C2952 C2951 1.523 . S
H2953 C2928 0.950 . S
H2954 C2930 0.950 . S
H2955 C2931 0.949 . S
H2956 C2933 0.950 . S
H2957 C2935 0.950 . S
C2958 C2959 1.349 . S
C2958 C2960 1.327 . S
C2958 H2983 0.950 . S
C2959 C2958 1.349 . S
C2959 C2975 1.349 . S
C2960 C2958 1.327 . S
C2960 C2979 1.429 . S
C2960 H2984 0.950 . S
C2961 C2978 1.574 . S
C2961 C2980 1.368 . S
C2961 H2985 0.949 . S
H2962 C2966 0.949 . S
C2963 C2964 1.349 . S
C2963 C2965 1.327 . S
C2963 H2986 0.950 . S
C2964 C2963 1.349 . S
C2964 C2976 1.349 . S
C2965 C2963 1.327 . S
C2965 C2981 1.429 . S
C2965 H2987 0.950 . S
C2966 H2962 0.949 . S
C2966 C2974 1.574 . S
C2966 C2982 1.368 . S
H2967 C2975 0.950 . S
H2968 C2973 0.950 . S
H2969 C2974 0.949 . S
H2970 C2976 0.950 . S
H2971 C2977 0.950 . S
H2972 C2978 0.949 . S
C2973 H2968 0.950 . S
C2973 C2975 1.327 . S
C2973 C2979 1.429 . S
C2974 C2966 1.574 . S
C2974 H2969 0.949 . S
C2974 C2980 1.368 . S
C2975 C2959 1.349 . S
C2975 H2967 0.950 . S
C2975 C2973 1.327 . S
C2976 C2964 1.349 . S
C2976 H2970 0.950 . S
C2976 C2977 1.327 . S
C2977 H2971 0.950 . S
C2977 C2976 1.327 . S
C2977 C2981 1.429 . S
C2978 C2961 1.574 . S
C2978 H2972 0.949 . S
C2978 C2982 1.368 . S
C2979 C2960 1.429 . S
C2979 C2973 1.429 . S
C2979 C2980 1.523 . S
C2980 C2961 1.368 . S
C2980 C2974 1.368 . S
C2980 C2979 1.523 . S
C2981 C2965 1.429 . S
C2981 C2977 1.429 . S
C2981 C2982 1.523 . S
C2982 C2966 1.368 . S
C2982 C2978 1.368 . S
C2982 C2981 1.523 . S
H2983 C2958 0.950 . S
H2984 C2960 0.950 . S
H2985 C2961 0.949 . S
H2986 C2963 0.950 . S
H2987 C2965 0.950 . S
C2988 C2989 1.349 . S
C2988 C2990 1.327 . S
C2988 H3013 0.950 . S
C2989 C2988 1.349 . S
C2989 C3005 1.349 . S
C2990 C2988 1.327 . S
C2990 C3009 1.429 . S
C2990 H3014 0.950 . S
C2991 C3008 1.574 . S
C2991 C3010 1.368 . S
C2991 H3015 0.949 . S
H2992 C2996 0.949 . S
C2993 C2994 1.349 . S
C2993 C2995 1.327 . S
C2993 H3016 0.950 . S
C2994 C2993 1.349 . S
C2994 C3006 1.349 . S
C2995 C2993 1.327 . S
C2995 C3011 1.429 . S
C2995 H3017 0.950 . S
C2996 H2992 0.949 . S
C2996 C3004 1.574 . S
C2996 C3012 1.368 . S
H2997 C3005 0.950 . S
H2998 C3003 0.950 . S
H2999 C3004 0.949 . S
H3000 C3006 0.950 . S
H3001 C3007 0.950 . S
H3002 C3008 0.949 . S
C3003 H2998 0.950 . S
C3003 C3005 1.327 . S
C3003 C3009 1.429 . S
C3004 C2996 1.574 . S
C3004 H2999 0.949 . S
C3004 C3010 1.368 . S
C3005 C2989 1.349 . S
C3005 H2997 0.950 . S
C3005 C3003 1.327 . S
C3006 C2994 1.349 . S
C3006 H3000 0.950 . S
C3006 C3007 1.327 . S
C3007 H3001 0.950 . S
C3007 C3006 1.327 . S
C3007 C3011 1.429 . S
C3008 C2991 1.574 . S
C3008 H3002 0.949 . S
C3008 C3012 1.368 . S
C3009 C2990 1.429 . S
C3009 C3003 1.429 . S
C3009 C3010 1.523 . S
C3010 C2991 1.368 . S
C3010 C3004 1.368 . S
C3010 C3009 1.523 . S
C3011 C2995 1.429 . S
C3011 C3007 1.429 . S
C3011 C3012 1.523 . S
C3012 C2996 1.368 . S
C3012 C3008 1.368 . S
C3012 C3011 1.523 . S
H3013 C2988 0.950 . S
H3014 C2990 0.950 . S
H3015 C2991 0.949 . S
H3016 C2993 0.950 . S
H3017 C2995 0.950 . S
C3018 C3019 1.349 . S
C3018 C3020 1.327 . S
C3018 H3043 0.950 . S
C3019 C3018 1.349 . S
C3019 C3035 1.349 . S
C3020 C3018 1.327 . S
C3020 C3039 1.429 . S
C3020 H3044 0.950 . S
C3021 C3038 1.574 . S
C3021 C3040 1.368 . S
C3021 H3045 0.949 . S
H3022 C3026 0.949 . S
C3023 C3024 1.349 . S
C3023 C3025 1.327 . S
C3023 H3046 0.950 . S
C3024 C3023 1.349 . S
C3024 C3036 1.349 . S
C3025 C3023 1.327 . S
C3025 C3041 1.429 . S
C3025 H3047 0.950 . S
C3026 H3022 0.949 . S
C3026 C3034 1.574 . S
C3026 C3042 1.368 . S
H3027 C3035 0.950 . S
H3028 C3033 0.950 . S
H3029 C3034 0.949 . S
H3030 C3036 0.950 . S
H3031 C3037 0.950 . S
H3032 C3038 0.949 . S
C3033 H3028 0.950 . S
C3033 C3035 1.327 . S
C3033 C3039 1.429 . S
C3034 C3026 1.574 . S
C3034 H3029 0.949 . S
C3034 C3040 1.368 . S
C3035 C3019 1.349 . S
C3035 H3027 0.950 . S
C3035 C3033 1.327 . S
C3036 C3024 1.349 . S
C3036 H3030 0.950 . S
C3036 C3037 1.327 . S
C3037 H3031 0.950 . S
C3037 C3036 1.327 . S
C3037 C3041 1.429 . S
C3038 C3021 1.574 . S
C3038 H3032 0.949 . S
C3038 C3042 1.368 . S
C3039 C3020 1.429 . S
C3039 C3033 1.429 . S
C3039 C3040 1.523 . S
C3040 C3021 1.368 . S
C3040 C3034 1.368 . S
C3040 C3039 1.523 . S
C3041 C3025 1.429 . S
C3041 C3037 1.429 . S
C3041 C3042 1.523 . S
C3042 C3026 1.368 . S
C3042 C3038 1.368 . S
C3042 C3041 1.523 . S
H3043 C3018 0.950 . S
H3044 C3020 0.950 . S
H3045 C3021 0.949 . S
H3046 C3023 0.950 . S
H3047 C3025 0.950 . S
C3048 C3049 1.349 . S
C3048 C3050 1.327 . S
C3048 H3073 0.950 . S
C3049 C3048 1.349 . S
C3049 C3065 1.349 . S
C3050 C3048 1.327 . S
C3050 C3069 1.429 . S
C3050 H3074 0.950 . S
C3051 C3068 1.574 . S
C3051 C3070 1.368 . S
C3051 H3075 0.949 . S
H3052 C3056 0.949 . S
C3053 C3054 1.349 . S
C3053 C3055 1.327 . S
C3053 H3076 0.950 . S
C3054 C3053 1.349 . S
C3054 C3066 1.349 . S
C3055 C3053 1.327 . S
C3055 C3071 1.429 . S
C3055 H3077 0.950 . S
C3056 H3052 0.949 . S
C3056 C3064 1.574 . S
C3056 C3072 1.368 . S
H3057 C3065 0.950 . S
H3058 C3063 0.950 . S
H3059 C3064 0.949 . S
H3060 C3066 0.950 . S
H3061 C3067 0.950 . S
H3062 C3068 0.949 . S
C3063 H3058 0.950 . S
C3063 C3065 1.327 . S
C3063 C3069 1.429 . S
C3064 C3056 1.574 . S
C3064 H3059 0.949 . S
C3064 C3070 1.368 . S
C3065 C3049 1.349 . S
C3065 H3057 0.950 . S
C3065 C3063 1.327 . S
C3066 C3054 1.349 . S
C3066 H3060 0.950 . S
C3066 C3067 1.327 . S
C3067 H3061 0.950 . S
C3067 C3066 1.327 . S
C3067 C3071 1.429 . S
C3068 C3051 1.574 . S
C3068 H3062 0.949 . S
C3068 C3072 1.368 . S
C3069 C3050 1.429 . S
C3069 C3063 1.429 . S
C3069 C3070 1.523 . S
C3070 C3051 1.368 . S
C3070 C3064 1.368 . S
C3070 C3069 1.523 . S
C3071 C3055 1.429 . S
C3071 C3067 1.429 . S
C3071 C3072 1.523 . S
C3072 C3056 1.368 . S
C3072 C3068 1.368 . S
C3072 C3071 1.523 . S
H3073 C3048 0.950 . S
H3074 C3050 0.950 . S
H3075 C3051 0.949 . S
H3076 C3053 0.950 . S
H3077 C3055 0.950 . S
C3078 C3079 1.349 . S
C3078 C3080 1.327 . S
C3078 H3103 0.950 . S
C3079 C3078 1.349 . S
C3079 C3095 1.349 . S
C3080 C3078 1.327 . S
C3080 C3099 1.429 . S
C3080 H3104 0.950 . S
C3081 C3098 1.574 . S
C3081 C3100 1.368 . S
C3081 H3105 0.949 . S
H3082 C3086 0.949 . S
C3083 C3084 1.349 . S
C3083 C3085 1.327 . S
C3083 H3106 0.950 . S
C3084 C3083 1.349 . S
C3084 C3096 1.349 . S
C3085 C3083 1.327 . S
C3085 C3101 1.429 . S
C3085 H3107 0.950 . S
C3086 H3082 0.949 . S
C3086 C3094 1.574 . S
C3086 C3102 1.368 . S
H3087 C3095 0.950 . S
H3088 C3093 0.950 . S
H3089 C3094 0.949 . S
H3090 C3096 0.950 . S
H3091 C3097 0.950 . S
H3092 C3098 0.949 . S
C3093 H3088 0.950 . S
C3093 C3095 1.327 . S
C3093 C3099 1.429 . S
C3094 C3086 1.574 . S
C3094 H3089 0.949 . S
C3094 C3100 1.368 . S
C3095 C3079 1.349 . S
C3095 H3087 0.950 . S
C3095 C3093 1.327 . S
C3096 C3084 1.349 . S
C3096 H3090 0.950 . S
C3096 C3097 1.327 . S
C3097 H3091 0.950 . S
C3097 C3096 1.327 . S
C3097 C3101 1.429 . S
C3098 C3081 1.574 . S
C3098 H3092 0.949 . S
C3098 C3102 1.368 . S
C3099 C3080 1.429 . S
C3099 C3093 1.429 . S
C3099 C3100 1.523 . S
C3100 C3081 1.368 . S
C3100 C3094 1.368 . S
C3100 C3099 1.523 . S
C3101 C3085 1.429 . S
C3101 C3097 1.429 . S
C3101 C3102 1.523 . S
C3102 C3086 1.368 . S
C3102 C3098 1.368 . S
C3102 C3101 1.523 . S
H3103 C3078 0.950 . S
H3104 C3080 0.950 . S
H3105 C3081 0.949 . S
H3106 C3083 0.950 . S
H3107 C3085 0.950 . S
C3108 C3109 1.349 . S
C3108 C3110 1.327 . S
C3108 H3133 0.950 . S
C3109 C3108 1.349 . S
C3109 C3125 1.349 . S
C3110 C3108 1.327 . S
C3110 C3129 1.429 . S
C3110 H3134 0.950 . S
C3111 C3128 1.574 . S
C3111 C3130 1.368 . S
C3111 H3135 0.949 . S
H3112 C3116 0.949 . S
C3113 C3114 1.349 . S
C3113 C3115 1.327 . S
C3113 H3136 0.950 . S
C3114 C3113 1.349 . S
C3114 C3126 1.349 . S
C3115 C3113 1.327 . S
C3115 C3131 1.429 . S
C3115 H3137 0.950 . S
C3116 H3112 0.949 . S
C3116 C3124 1.574 . S
C3116 C3132 1.368 . S
H3117 C3125 0.950 . S
H3118 C3123 0.950 . S
H3119 C3124 0.949 . S
H3120 C3126 0.950 . S
H3121 C3127 0.950 . S
H3122 C3128 0.949 . S
C3123 H3118 0.950 . S
C3123 C3125 1.327 . S
C3123 C3129 1.429 . S
C3124 C3116 1.574 . S
C3124 H3119 0.949 . S
C3124 C3130 1.368 . S
C3125 C3109 1.349 . S
C3125 H3117 0.950 . S
C3125 C3123 1.327 . S
C3126 C3114 1.349 . S
C3126 H3120 0.950 . S
C3126 C3127 1.327 . S
C3127 H3121 0.950 . S
C3127 C3126 1.327 . S
C3127 C3131 1.429 . S
C3128 C3111 1.574 . S
C3128 H3122 0.949 . S
C3128 C3132 1.368 . S
C3129 C3110 1.429 . S
C3129 C3123 1.429 . S
C3129 C3130 1.523 . S
C3130 C3111 1.368 . S
C3130 C3124 1.368 . S
C3130 C3129 1.523 . S
C3131 C3115 1.429 . S
C3131 C3127 1.429 . S
C3131 C3132 1.523 . S
C3132 C3116 1.368 . S
C3132 C3128 1.368 . S
C3132 C3131 1.523 . S
H3133 C3108 0.950 . S
H3134 C3110 0.950 . S
H3135 C3111 0.949 . S
H3136 C3113 0.950 . S
H3137 C3115 0.950 . S
C3138 C3139 1.349 . S
C3138 C3140 1.327 . S
C3138 H3163 0.950 . S
C3139 C3138 1.349 . S
C3139 C3155 1.349 . S
C3140 C3138 1.327 . S
C3140 C3159 1.429 . S
C3140 H3164 0.950 . S
C3141 C3158 1.574 . S
C3141 C3160 1.368 . S
C3141 H3165 0.949 . S
H3142 C3146 0.949 . S
C3143 C3144 1.349 . S
C3143 C3145 1.327 . S
C3143 H3166 0.950 . S
C3144 C3143 1.349 . S
C3144 C3156 1.349 . S
C3145 C3143 1.327 . S
C3145 C3161 1.429 . S
C3145 H3167 0.950 . S
C3146 H3142 0.949 . S
C3146 C3154 1.574 . S
C3146 C3162 1.368 . S
H3147 C3155 0.950 . S
H3148 C3153 0.950 . S
H3149 C3154 0.949 . S
H3150 C3156 0.950 . S
H3151 C3157 0.950 . S
H3152 C3158 0.949 . S
C3153 H3148 0.950 . S
C3153 C3155 1.327 . S
C3153 C3159 1.429 . S
C3154 C3146 1.574 . S
C3154 H3149 0.949 . S
C3154 C3160 1.368 . S
C3155 C3139 1.349 . S
C3155 H3147 0.950 . S
C3155 C3153 1.327 . S
C3156 C3144 1.349 . S
C3156 H3150 0.950 . S
C3156 C3157 1.327 . S
C3157 H3151 0.950 . S
C3157 C3156 1.327 . S
C3157 C3161 1.429 . S
C3158 C3141 1.574 . S
C3158 H3152 0.949 . S
C3158 C3162 1.368 . S
C3159 C3140 1.429 . S
C3159 C3153 1.429 . S
C3159 C3160 1.523 . S
C3160 C3141 1.368 . S
C3160 C3154 1.368 . S
C3160 C3159 1.523 . S
C3161 C3145 1.429 . S
C3161 C3157 1.429 . S
C3161 C3162 1.523 . S
C3162 C3146 1.368 . S
C3162 C3158 1.368 . S
C3162 C3161 1.523 . S
H3163 C3138 0.950 . S
H3164 C3140 0.950 . S
H3165 C3141 0.949 . S
H3166 C3143 0.950 . S
H3167 C3145 0.950 . S
C3168 C3169 1.349 1_565 S
C3168 C3170 1.327 . S
C3168 H3193 0.950 . S
C3169 C3168 1.349 1_545 S
C3169 C3185 1.349 . S
C3170 C3168 1.327 . S
C3170 C3189 1.429 1_565 S
C3170 H3194 0.950 . S
C3171 C3188 1.574 . S
C3171 C3190 1.368 . S
C3171 H3195 0.949 . S
H3172 C3176 0.949 . S
C3173 C3174 1.349 1_545 S
C3173 C3175 1.327 . S
C3173 H3196 0.950 . S
C3174 C3173 1.349 1_565 S
C3174 C3186 1.349 . S
C3175 C3173 1.327 . S
C3175 C3191 1.429 1_545 S
C3175 H3197 0.950 . S
C3176 H3172 0.949 . S
C3176 C3184 1.574 . S
C3176 C3192 1.368 . S
H3177 C3185 0.950 . S
H3178 C3183 0.950 . S
H3179 C3184 0.949 . S
H3180 C3186 0.950 . S
H3181 C3187 0.950 . S
H3182 C3188 0.949 . S
C3183 H3178 0.950 . S
C3183 C3185 1.327 . S
C3183 C3189 1.429 . S
C3184 C3176 1.574 . S
C3184 H3179 0.949 . S
C3184 C3190 1.368 1_565 S
C3185 C3169 1.349 . S
C3185 H3177 0.950 . S
C3185 C3183 1.327 . S
C3186 C3174 1.349 . S
C3186 H3180 0.950 . S
C3186 C3187 1.327 . S
C3187 H3181 0.950 . S
C3187 C3186 1.327 . S
C3187 C3191 1.429 . S
C3188 C3171 1.574 . S
C3188 H3182 0.949 . S
C3188 C3192 1.368 1_545 S
C3189 C3170 1.429 1_545 S
C3189 C3183 1.429 . S
C3189 C3190 1.523 . S
C3190 C3171 1.368 . S
C3190 C3184 1.368 1_545 S
C3190 C3189 1.523 . S
C3191 C3175 1.429 1_565 S
C3191 C3187 1.429 . S
C3191 C3192 1.523 . S
C3192 C3176 1.368 . S
C3192 C3188 1.368 1_565 S
C3192 C3191 1.523 . S
H3193 C3168 0.950 . S
H3194 C3170 0.950 . S
H3195 C3171 0.949 . S
H3196 C3173 0.950 . S
H3197 C3175 0.950 . S
C3198 C3199 1.349 . S
C3198 C3200 1.327 . S
C3198 H3223 0.950 . S
C3199 C3198 1.349 . S
C3199 C3215 1.349 . S
C3200 C3198 1.327 . S
C3200 C3219 1.429 . S
C3200 H3224 0.950 . S
C3201 C3218 1.574 . S
C3201 C3220 1.368 1_655 S
C3201 H3225 0.949 . S
H3202 C3206 0.949 . S
C3203 C3204 1.349 . S
C3203 C3205 1.327 . S
C3203 H3226 0.950 . S
C3204 C3203 1.349 . S
C3204 C3216 1.349 . S
C3205 C3203 1.327 . S
C3205 C3221 1.429 . S
C3205 H3227 0.950 . S
C3206 H3202 0.949 . S
C3206 C3214 1.574 . S
C3206 C3222 1.368 1_455 S
H3207 C3215 0.950 1_655 S
H3208 C3213 0.949 1_655 S
H3209 C3214 0.949 . S
H3210 C3216 0.950 1_455 S
H3211 C3217 0.947 . S
H3212 C3218 0.949 . S
C3213 H3208 0.949 1_455 S
C3213 C3215 1.327 . S
C3213 C3219 1.429 . S
C3214 C3206 1.574 . S
C3214 H3209 0.949 . S
C3214 C3220 1.368 . S
C3215 C3199 1.349 . S
C3215 H3207 0.950 1_455 S
C3215 C3213 1.327 . S
C3216 C3204 1.349 . S
C3216 H3210 0.950 1_655 S
C3216 C3217 1.328 1_655 S
C3217 H3211 0.947 . S
C3217 C3216 1.328 1_455 S
C3217 C3221 1.430 1_455 S
C3218 C3201 1.574 . S
C3218 H3212 0.949 . S
C3218 C3222 1.368 . S
C3219 C3200 1.429 . S
C3219 C3213 1.429 . S
C3219 C3220 1.523 . S
C3220 C3201 1.368 1_455 S
C3220 C3214 1.368 . S
C3220 C3219 1.523 . S
C3221 C3205 1.429 . S
C3221 C3217 1.430 1_655 S
C3221 C3222 1.523 . S
C3222 C3206 1.368 1_655 S
C3222 C3218 1.368 . S
C3222 C3221 1.523 . S
H3223 C3198 0.950 . S
H3224 C3200 0.950 . S
H3225 C3201 0.949 . S
H3226 C3203 0.950 . S
H3227 C3205 0.950 . S
C3228 C3229 1.349 . S
C3228 C3230 1.327 . S
C3228 H3253 0.950 . S
C3229 C3228 1.349 . S
C3229 C3245 1.349 . S
C3230 C3228 1.327 . S
C3230 C3249 1.429 . S
C3230 H3254 0.950 . S
C3231 C3248 1.574 1_556 S
C3231 C3250 1.368 . S
C3231 H3255 0.949 . S
H3232 C3236 0.949 . S
C3233 C3234 1.349 . S
C3233 C3235 1.327 . S
C3233 H3256 0.950 . S
C3234 C3233 1.349 . S
C3234 C3246 1.349 . S
C3235 C3233 1.327 . S
C3235 C3251 1.429 . S
C3235 H3257 0.950 . S
C3236 H3232 0.949 . S
C3236 C3244 1.574 1_554 S
C3236 C3252 1.368 . S
H3237 C3245 0.950 . S
H3238 C3243 0.950 . S
H3239 C3244 0.949 . S
H3240 C3246 0.950 . S
H3241 C3247 0.950 . S
H3242 C3248 0.949 . S
C3243 H3238 0.950 . S
C3243 C3245 1.327 . S
C3243 C3249 1.429 . S
C3244 C3236 1.574 1_556 S
C3244 H3239 0.949 . S
C3244 C3250 1.368 . S
C3245 C3229 1.349 . S
C3245 H3237 0.950 . S
C3245 C3243 1.327 . S
C3246 C3234 1.349 . S
C3246 H3240 0.950 . S
C3246 C3247 1.327 . S
C3247 H3241 0.950 . S
C3247 C3246 1.327 . S
C3247 C3251 1.429 . S
C3248 C3231 1.574 1_554 S
C3248 H3242 0.949 . S
C3248 C3252 1.368 . S
C3249 C3230 1.429 . S
C3249 C3243 1.429 . S
C3249 C3250 1.523 . S
C3250 C3231 1.368 . S
C3250 C3244 1.368 . S
C3250 C3249 1.523 . S
C3251 C3235 1.429 . S
C3251 C3247 1.429 . S
C3251 C3252 1.523 . S
C3252 C3236 1.368 . S
C3252 C3248 1.368 . S
C3252 C3251 1.523 . S
H3253 C3228 0.950 . S
H3254 C3230 0.950 . S
H3255 C3231 0.949 . S
H3256 C3233 0.950 . S
H3257 C3235 0.950 . S
C3258 C3259 1.349 1_565 S
C3258 C3260 1.327 . S
C3258 H3283 0.950 . S
C3259 C3258 1.349 1_545 S
C3259 C3275 1.349 . S
C3260 C3258 1.327 . S
C3260 C3279 1.429 1_565 S
C3260 H3284 0.950 . S
C3261 C3278 1.574 1_554 S
C3261 C3280 1.368 1_455 S
C3261 H3285 0.949 . S
H3262 C3266 0.949 . S
C3263 C3264 1.349 1_545 S
C3263 C3265 1.327 . S
C3263 H3286 0.950 . S
C3264 C3263 1.349 1_565 S
C3264 C3276 1.349 . S
C3265 C3263 1.327 . S
C3265 C3281 1.429 1_545 S
C3265 H3287 0.950 . S
C3266 H3262 0.949 . S
C3266 C3274 1.574 1_556 S
C3266 C3282 1.368 1_655 S
H3267 C3275 0.950 1_455 S
H3268 C3273 0.946 1_455 S
H3269 C3274 0.949 . S
H3270 C3276 0.950 1_655 S
H3271 C3277 0.946 1_655 S
H3272 C3278 0.949 . S
C3273 H3268 0.946 1_655 S
C3273 C3275 1.328 . S
C3273 C3279 1.431 . S
C3274 C3266 1.574 1_554 S
C3274 H3269 0.949 . S
C3274 C3280 1.368 1_565 S
C3275 C3259 1.349 . S
C3275 H3267 0.950 1_655 S
C3275 C3273 1.328 . S
C3276 C3264 1.349 . S
C3276 H3270 0.950 1_455 S
C3276 C3277 1.328 . S
C3277 H3271 0.946 1_455 S
C3277 C3276 1.328 . S
C3277 C3281 1.431 . S
C3278 C3261 1.574 1_556 S
C3278 H3272 0.949 . S
C3278 C3282 1.368 1_545 S
C3279 C3260 1.429 1_545 S
C3279 C3273 1.431 . S
C3279 C3280 1.523 . S
C3280 C3261 1.368 1_655 S
C3280 C3274 1.368 1_545 S
C3280 C3279 1.523 . S
C3281 C3265 1.429 1_565 S
C3281 C3277 1.431 . S
C3281 C3282 1.523 . S
C3282 C3266 1.368 1_455 S
C3282 C3278 1.368 1_565 S
C3282 C3281 1.523 . S
H3283 C3258 0.950 . S
H3284 C3260 0.950 . S
H3285 C3261 0.949 . S
H3286 C3263 0.950 . S
H3287 C3265 0.950 . S
C3288 C3289 1.349 1_545 S
C3288 C3290 1.327 . S
C3288 H3313 0.950 . S
C3289 C3288 1.349 1_565 S
C3289 C3305 1.349 . S
C3290 C3288 1.327 . S
C3290 C3309 1.429 1_545 S
C3290 H3314 0.950 . S
C3291 C3308 1.574 . S
C3291 C3310 1.368 . S
C3291 H3315 0.949 . S
H3292 C3296 0.949 . S
C3293 C3294 1.349 1_565 S
C3293 C3295 1.327 . S
C3293 H3316 0.950 . S
C3294 C3293 1.349 1_545 S
C3294 C3306 1.349 . S
C3295 C3293 1.327 . S
C3295 C3311 1.429 1_565 S
C3295 H3317 0.950 . S
C3296 H3292 0.949 . S
C3296 C3304 1.574 . S
C3296 C3312 1.368 . S
H3297 C3305 0.950 . S
H3298 C3303 0.950 . S
H3299 C3304 0.949 . S
H3300 C3306 0.950 . S
H3301 C3307 0.950 . S
H3302 C3308 0.949 . S
C3303 H3298 0.950 . S
C3303 C3305 1.327 . S
C3303 C3309 1.429 . S
C3304 C3296 1.574 . S
C3304 H3299 0.949 . S
C3304 C3310 1.368 1_545 S
C3305 C3289 1.349 . S
C3305 H3297 0.950 . S
C3305 C3303 1.327 . S
C3306 C3294 1.349 . S
C3306 H3300 0.950 . S
C3306 C3307 1.327 . S
C3307 H3301 0.950 . S
C3307 C3306 1.327 . S
C3307 C3311 1.429 . S
C3308 C3291 1.574 . S
C3308 H3302 0.949 . S
C3308 C3312 1.368 1_565 S
C3309 C3290 1.429 1_565 S
C3309 C3303 1.429 . S
C3309 C3310 1.523 . S
C3310 C3291 1.368 . S
C3310 C3304 1.368 1_565 S
C3310 C3309 1.523 . S
C3311 C3295 1.429 1_545 S
C3311 C3307 1.429 . S
C3311 C3312 1.523 . S
C3312 C3296 1.368 . S
C3312 C3308 1.368 1_545 S
C3312 C3311 1.523 . S
H3313 C3288 0.950 . S
H3314 C3290 0.950 . S
H3315 C3291 0.949 . S
H3316 C3293 0.950 . S
H3317 C3295 0.950 . S
C3318 C3319 1.349 . S
C3318 C3320 1.327 . S
C3318 H3343 0.950 . S
C3319 C3318 1.349 . S
C3319 C3335 1.349 . S
C3320 C3318 1.327 . S
C3320 C3339 1.429 . S
C3320 H3344 0.950 . S
C3321 C3338 1.574 . S
C3321 C3340 1.368 1_655 S
C3321 H3345 0.949 . S
H3322 C3326 0.949 . S
C3323 C3324 1.349 . S
C3323 C3325 1.327 . S
C3323 H3346 0.950 . S
C3324 C3323 1.349 . S
C3324 C3336 1.349 . S
C3325 C3323 1.327 . S
C3325 C3341 1.429 . S
C3325 H3347 0.950 . S
C3326 H3322 0.949 . S
C3326 C3334 1.574 . S
C3326 C3342 1.368 1_455 S
H3327 C3335 0.950 1_655 S
H3328 C3333 0.950 . S
H3329 C3334 0.949 . S
H3330 C3336 0.950 1_455 S
H3331 C3337 0.950 . S
H3332 C3338 0.949 . S
C3333 H3328 0.950 . S
C3333 C3335 1.327 1_655 S
C3333 C3339 1.429 1_655 S
C3334 C3326 1.574 . S
C3334 H3329 0.949 . S
C3334 C3340 1.368 . S
C3335 C3319 1.349 . S
C3335 H3327 0.950 1_455 S
C3335 C3333 1.327 1_455 S
C3336 C3324 1.349 . S
C3336 H3330 0.950 1_655 S
C3336 C3337 1.327 1_655 S
C3337 H3331 0.950 . S
C3337 C3336 1.327 1_455 S
C3337 C3341 1.429 1_455 S
C3338 C3321 1.574 . S
C3338 H3332 0.949 . S
C3338 C3342 1.368 . S
C3339 C3320 1.429 . S
C3339 C3333 1.429 1_455 S
C3339 C3340 1.523 . S
C3340 C3321 1.368 1_455 S
C3340 C3334 1.368 . S
C3340 C3339 1.523 . S
C3341 C3325 1.429 . S
C3341 C3337 1.429 1_655 S
C3341 C3342 1.523 . S
C3342 C3326 1.368 1_655 S
C3342 C3338 1.368 . S
C3342 C3341 1.523 . S
H3343 C3318 0.950 . S
H3344 C3320 0.950 . S
H3345 C3321 0.949 . S
H3346 C3323 0.950 . S
H3347 C3325 0.950 . S
C3348 C3349 1.349 . S
C3348 C3350 1.327 . S
C3348 H3373 0.950 . S
C3349 C3348 1.349 . S
C3349 C3365 1.349 . S
C3350 C3348 1.327 . S
C3350 C3369 1.429 . S
C3350 H3374 0.950 . S
C3351 C3368 1.574 1_556 S
C3351 C3370 1.368 . S
C3351 H3375 0.949 . S
H3352 C3356 0.949 . S
C3353 C3354 1.349 . S
C3353 C3355 1.327 . S
C3353 H3376 0.950 . S
C3354 C3353 1.349 . S
C3354 C3366 1.349 . S
C3355 C3353 1.327 . S
C3355 C3371 1.429 . S
C3355 H3377 0.950 . S
C3356 H3352 0.949 . S
C3356 C3364 1.574 1_554 S
C3356 C3372 1.368 . S
H3357 C3365 0.950 . S
H3358 C3363 0.950 . S
H3359 C3364 0.949 . S
H3360 C3366 0.950 . S
H3361 C3367 0.950 . S
H3362 C3368 0.949 . S
C3363 H3358 0.950 . S
C3363 C3365 1.327 . S
C3363 C3369 1.429 . S
C3364 C3356 1.574 1_556 S
C3364 H3359 0.949 . S
C3364 C3370 1.368 . S
C3365 C3349 1.349 . S
C3365 H3357 0.950 . S
C3365 C3363 1.327 . S
C3366 C3354 1.349 . S
C3366 H3360 0.950 . S
C3366 C3367 1.327 . S
C3367 H3361 0.950 . S
C3367 C3366 1.327 . S
C3367 C3371 1.429 . S
C3368 C3351 1.574 1_554 S
C3368 H3362 0.949 . S
C3368 C3372 1.368 . S
C3369 C3350 1.429 . S
C3369 C3363 1.429 . S
C3369 C3370 1.523 . S
C3370 C3351 1.368 . S
C3370 C3364 1.368 . S
C3370 C3369 1.523 . S
C3371 C3355 1.429 . S
C3371 C3367 1.429 . S
C3371 C3372 1.523 . S
C3372 C3356 1.368 . S
C3372 C3368 1.368 . S
C3372 C3371 1.523 . S
H3373 C3348 0.950 . S
H3374 C3350 0.950 . S
H3375 C3351 0.949 . S
H3376 C3353 0.950 . S
H3377 C3355 0.950 . S
C3378 C3379 1.349 . S
C3378 C3380 1.327 . S
C3378 H3403 0.950 . S
C3379 C3378 1.349 . S
C3379 C3395 1.349 . S
C3380 C3378 1.327 . S
C3380 C3399 1.429 . S
C3380 H3404 0.950 . S
C3381 C3398 1.574 . S
C3381 C3400 1.368 . S
C3381 H3405 0.949 . S
H3382 C3386 0.949 . S
C3383 C3384 1.349 . S
C3383 C3385 1.327 . S
C3383 H3406 0.950 . S
C3384 C3383 1.349 . S
C3384 C3396 1.349 . S
C3385 C3383 1.327 . S
C3385 C3401 1.429 . S
C3385 H3407 0.950 . S
C3386 H3382 0.949 . S
C3386 C3394 1.574 . S
C3386 C3402 1.368 . S
H3387 C3395 0.950 . S
H3388 C3393 0.950 . S
H3389 C3394 0.949 . S
H3390 C3396 0.950 . S
H3391 C3397 0.950 . S
H3392 C3398 0.949 . S
C3393 H3388 0.950 . S
C3393 C3395 1.327 . S
C3393 C3399 1.429 . S
C3394 C3386 1.574 . S
C3394 H3389 0.949 . S
C3394 C3400 1.368 . S
C3395 C3379 1.349 . S
C3395 H3387 0.950 . S
C3395 C3393 1.327 . S
C3396 C3384 1.349 . S
C3396 H3390 0.950 . S
C3396 C3397 1.327 . S
C3397 H3391 0.950 . S
C3397 C3396 1.327 . S
C3397 C3401 1.429 . S
C3398 C3381 1.574 . S
C3398 H3392 0.949 . S
C3398 C3402 1.368 . S
C3399 C3380 1.429 . S
C3399 C3393 1.429 . S
C3399 C3400 1.523 . S
C3400 C3381 1.368 . S
C3400 C3394 1.368 . S
C3400 C3399 1.523 . S
C3401 C3385 1.429 . S
C3401 C3397 1.429 . S
C3401 C3402 1.523 . S
C3402 C3386 1.368 . S
C3402 C3398 1.368 . S
C3402 C3401 1.523 . S
H3403 C3378 0.950 . S
H3404 C3380 0.950 . S
H3405 C3381 0.949 . S
H3406 C3383 0.950 . S
H3407 C3385 0.950 . S
C3408 C3409 1.349 . S
C3408 C3410 1.327 . S
C3408 H3433 0.950 . S
C3409 C3408 1.349 . S
C3409 C3425 1.349 . S
C3410 C3408 1.327 . S
C3410 C3429 1.429 . S
C3410 H3434 0.950 . S
C3411 C3428 1.574 . S
C3411 C3430 1.368 . S
C3411 H3435 0.949 . S
H3412 C3416 0.949 . S
C3413 C3414 1.349 . S
C3413 C3415 1.327 . S
C3413 H3436 0.950 . S
C3414 C3413 1.349 . S
C3414 C3426 1.349 . S
C3415 C3413 1.327 . S
C3415 C3431 1.429 . S
C3415 H3437 0.950 . S
C3416 H3412 0.949 . S
C3416 C3424 1.574 . S
C3416 C3432 1.368 . S
H3417 C3425 0.950 . S
H3418 C3423 0.950 . S
H3419 C3424 0.949 . S
H3420 C3426 0.950 . S
H3421 C3427 0.950 . S
H3422 C3428 0.949 . S
C3423 H3418 0.950 . S
C3423 C3425 1.327 . S
C3423 C3429 1.429 . S
C3424 C3416 1.574 . S
C3424 H3419 0.949 . S
C3424 C3430 1.368 . S
C3425 C3409 1.349 . S
C3425 H3417 0.950 . S
C3425 C3423 1.327 . S
C3426 C3414 1.349 . S
C3426 H3420 0.950 . S
C3426 C3427 1.327 . S
C3427 H3421 0.950 . S
C3427 C3426 1.327 . S
C3427 C3431 1.429 . S
C3428 C3411 1.574 . S
C3428 H3422 0.949 . S
C3428 C3432 1.368 . S
C3429 C3410 1.429 . S
C3429 C3423 1.429 . S
C3429 C3430 1.523 . S
C3430 C3411 1.368 . S
C3430 C3424 1.368 . S
C3430 C3429 1.523 . S
C3431 C3415 1.429 . S
C3431 C3427 1.429 . S
C3431 C3432 1.523 . S
C3432 C3416 1.368 . S
C3432 C3428 1.368 . S
C3432 C3431 1.523 . S
H3433 C3408 0.950 . S
H3434 C3410 0.950 . S
H3435 C3411 0.949 . S
H3436 C3413 0.950 . S
H3437 C3415 0.950 . S
C3438 C3439 1.349 . S
C3438 C3440 1.327 . S
C3438 H3463 0.953 . S
C3439 C3438 1.349 . S
C3439 C3455 1.349 . S
C3440 C3438 1.327 . S
C3440 C3459 1.429 . S
C3440 H3464 0.950 1_455 S
C3441 C3458 1.574 . S
C3441 C3460 1.368 . S
C3441 H3465 0.949 . S
H3442 C3446 0.949 . S
C3443 C3444 1.349 . S
C3443 C3445 1.327 . S
C3443 H3466 0.953 . S
C3444 C3443 1.349 . S
C3444 C3456 1.349 . S
C3445 C3443 1.327 . S
C3445 C3461 1.429 . S
C3445 H3467 0.950 1_655 S
C3446 H3442 0.949 . S
C3446 C3454 1.574 . S
C3446 C3462 1.368 . S
H3447 C3455 0.950 . S
H3448 C3453 0.950 . S
H3449 C3454 0.949 . S
H3450 C3456 0.950 . S
H3451 C3457 0.950 . S
H3452 C3458 0.949 . S
C3453 H3448 0.950 . S
C3453 C3455 1.327 . S
C3453 C3459 1.429 . S
C3454 C3446 1.574 . S
C3454 H3449 0.949 . S
C3454 C3460 1.368 1_655 S
C3455 C3439 1.349 . S
C3455 H3447 0.950 . S
C3455 C3453 1.327 . S
C3456 C3444 1.349 . S
C3456 H3450 0.950 . S
C3456 C3457 1.327 . S
C3457 H3451 0.950 . S
C3457 C3456 1.327 . S
C3457 C3461 1.429 . S
C3458 C3441 1.574 . S
C3458 H3452 0.949 . S
C3458 C3462 1.368 1_455 S
C3459 C3440 1.429 . S
C3459 C3453 1.429 . S
C3459 C3460 1.523 . S
C3460 C3441 1.368 . S
C3460 C3454 1.368 1_455 S
C3460 C3459 1.523 . S
C3461 C3445 1.429 . S
C3461 C3457 1.429 . S
C3461 C3462 1.523 . S
C3462 C3446 1.368 . S
C3462 C3458 1.368 1_655 S
C3462 C3461 1.523 . S
H3463 C3438 0.953 . S
H3464 C3440 0.950 1_655 S
H3465 C3441 0.949 . S
H3466 C3443 0.953 . S
H3467 C3445 0.950 1_455 S
C3468 C3469 1.349 . S
C3468 C3470 1.327 . S
C3468 H3493 0.950 . S
C3469 C3468 1.349 . S
C3469 C3485 1.349 . S
C3470 C3468 1.327 . S
C3470 C3489 1.429 . S
C3470 H3494 0.950 . S
C3471 C3488 1.574 . S
C3471 C3490 1.368 . S
C3471 H3495 0.949 . S
H3472 C3476 0.949 . S
C3473 C3474 1.349 . S
C3473 C3475 1.327 . S
C3473 H3496 0.950 . S
C3474 C3473 1.349 . S
C3474 C3486 1.349 . S
C3475 C3473 1.327 . S
C3475 C3491 1.429 . S
C3475 H3497 0.950 . S
C3476 H3472 0.949 . S
C3476 C3484 1.574 . S
C3476 C3492 1.368 . S
H3477 C3485 0.950 . S
H3478 C3483 0.950 . S
H3479 C3484 0.949 . S
H3480 C3486 0.950 . S
H3481 C3487 0.950 . S
H3482 C3488 0.949 . S
C3483 H3478 0.950 . S
C3483 C3485 1.327 . S
C3483 C3489 1.429 . S
C3484 C3476 1.574 . S
C3484 H3479 0.949 . S
C3484 C3490 1.368 . S
C3485 C3469 1.349 . S
C3485 H3477 0.950 . S
C3485 C3483 1.327 . S
C3486 C3474 1.349 . S
C3486 H3480 0.950 . S
C3486 C3487 1.327 . S
C3487 H3481 0.950 . S
C3487 C3486 1.327 . S
C3487 C3491 1.429 . S
C3488 C3471 1.574 . S
C3488 H3482 0.949 . S
C3488 C3492 1.368 . S
C3489 C3470 1.429 . S
C3489 C3483 1.429 . S
C3489 C3490 1.523 . S
C3490 C3471 1.368 . S
C3490 C3484 1.368 . S
C3490 C3489 1.523 . S
C3491 C3475 1.429 . S
C3491 C3487 1.429 . S
C3491 C3492 1.523 . S
C3492 C3476 1.368 . S
C3492 C3488 1.368 . S
C3492 C3491 1.523 . S
H3493 C3468 0.950 . S
H3494 C3470 0.950 . S
H3495 C3471 0.949 . S
H3496 C3473 0.950 . S
H3497 C3475 0.950 . S
C3498 C3499 1.349 . S
C3498 C3500 1.327 . S
C3498 H3523 0.950 . S
C3499 C3498 1.349 . S
C3499 C3515 1.349 . S
C3500 C3498 1.327 . S
C3500 C3519 1.429 . S
C3500 H3524 0.950 . S
C3501 C3518 1.574 . S
C3501 C3520 1.368 . S
C3501 H3525 0.949 . S
H3502 C3506 0.949 . S
C3503 C3504 1.349 . S
C3503 C3505 1.327 . S
C3503 H3526 0.950 . S
C3504 C3503 1.349 . S
C3504 C3516 1.349 . S
C3505 C3503 1.327 . S
C3505 C3521 1.429 . S
C3505 H3527 0.950 . S
C3506 H3502 0.949 . S
C3506 C3514 1.574 . S
C3506 C3522 1.368 . S
H3507 C3515 0.950 . S
H3508 C3513 0.950 . S
H3509 C3514 0.949 . S
H3510 C3516 0.950 . S
H3511 C3517 0.950 . S
H3512 C3518 0.949 . S
C3513 H3508 0.950 . S
C3513 C3515 1.327 . S
C3513 C3519 1.429 . S
C3514 C3506 1.574 . S
C3514 H3509 0.949 . S
C3514 C3520 1.368 . S
C3515 C3499 1.349 . S
C3515 H3507 0.950 . S
C3515 C3513 1.327 . S
C3516 C3504 1.349 . S
C3516 H3510 0.950 . S
C3516 C3517 1.327 . S
C3517 H3511 0.950 . S
C3517 C3516 1.327 . S
C3517 C3521 1.429 . S
C3518 C3501 1.574 . S
C3518 H3512 0.949 . S
C3518 C3522 1.368 . S
C3519 C3500 1.429 . S
C3519 C3513 1.429 . S
C3519 C3520 1.523 . S
C3520 C3501 1.368 . S
C3520 C3514 1.368 . S
C3520 C3519 1.523 . S
C3521 C3505 1.429 . S
C3521 C3517 1.429 . S
C3521 C3522 1.523 . S
C3522 C3506 1.368 . S
C3522 C3518 1.368 . S
C3522 C3521 1.523 . S
H3523 C3498 0.950 . S
H3524 C3500 0.950 . S
H3525 C3501 0.949 . S
H3526 C3503 0.950 . S
H3527 C3505 0.950 . S
C3528 C3529 1.349 . S
C3528 C3530 1.327 . S
C3528 H3553 0.950 . S
C3529 C3528 1.349 . S
C3529 C3545 1.349 . S
C3530 C3528 1.327 . S
C3530 C3549 1.429 . S
C3530 H3554 0.950 . S
C3531 C3548 1.574 . S
C3531 C3550 1.368 . S
C3531 H3555 0.949 . S
H3532 C3536 0.949 . S
C3533 C3534 1.349 . S
C3533 C3535 1.327 . S
C3533 H3556 0.950 . S
C3534 C3533 1.349 . S
C3534 C3546 1.349 . S
C3535 C3533 1.327 . S
C3535 C3551 1.429 . S
C3535 H3557 0.950 . S
C3536 H3532 0.949 . S
C3536 C3544 1.574 . S
C3536 C3552 1.368 . S
H3537 C3545 0.950 . S
H3538 C3543 0.950 . S
H3539 C3544 0.949 . S
H3540 C3546 0.950 . S
H3541 C3547 0.950 . S
H3542 C3548 0.949 . S
C3543 H3538 0.950 . S
C3543 C3545 1.327 . S
C3543 C3549 1.429 . S
C3544 C3536 1.574 . S
C3544 H3539 0.949 . S
C3544 C3550 1.368 . S
C3545 C3529 1.349 . S
C3545 H3537 0.950 . S
C3545 C3543 1.327 . S
C3546 C3534 1.349 . S
C3546 H3540 0.950 . S
C3546 C3547 1.327 . S
C3547 H3541 0.950 . S
C3547 C3546 1.327 . S
C3547 C3551 1.429 . S
C3548 C3531 1.574 . S
C3548 H3542 0.949 . S
C3548 C3552 1.368 . S
C3549 C3530 1.429 . S
C3549 C3543 1.429 . S
C3549 C3550 1.523 . S
C3550 C3531 1.368 . S
C3550 C3544 1.368 . S
C3550 C3549 1.523 . S
C3551 C3535 1.429 . S
C3551 C3547 1.429 . S
C3551 C3552 1.523 . S
C3552 C3536 1.368 . S
C3552 C3548 1.368 . S
C3552 C3551 1.523 . S
H3553 C3528 0.950 . S
H3554 C3530 0.950 . S
H3555 C3531 0.949 . S
H3556 C3533 0.950 . S
H3557 C3535 0.950 . S
C3558 C3559 1.349 . S
C3558 C3560 1.327 . S
C3558 H3583 0.950 . S
C3559 C3558 1.349 . S
C3559 C3575 1.349 1_545 S
C3560 C3558 1.327 . S
C3560 C3579 1.429 . S
C3560 H3584 0.950 . S
C3561 C3578 1.574 . S
C3561 C3580 1.368 1_565 S
C3561 H3585 0.949 . S
H3562 C3566 0.949 . S
C3563 C3564 1.349 . S
C3563 C3565 1.327 . S
C3563 H3586 0.950 . S
C3564 C3563 1.349 . S
C3564 C3576 1.349 1_565 S
C3565 C3563 1.327 . S
C3565 C3581 1.429 . S
C3565 H3587 0.950 . S
C3566 H3562 0.949 . S
C3566 C3574 1.574 . S
C3566 C3582 1.368 1_545 S
H3567 C3575 0.950 . S
H3568 C3573 0.950 . S
H3569 C3574 0.949 . S
H3570 C3576 0.950 . S
H3571 C3577 0.950 . S
H3572 C3578 0.949 . S
C3573 H3568 0.950 . S
C3573 C3575 1.327 . S
C3573 C3579 1.429 1_565 S
C3574 C3566 1.574 . S
C3574 H3569 0.949 . S
C3574 C3580 1.368 . S
C3575 C3559 1.349 1_565 S
C3575 H3567 0.950 . S
C3575 C3573 1.327 . S
C3576 C3564 1.349 1_545 S
C3576 H3570 0.950 . S
C3576 C3577 1.327 . S
C3577 H3571 0.950 . S
C3577 C3576 1.327 . S
C3577 C3581 1.429 1_545 S
C3578 C3561 1.574 . S
C3578 H3572 0.949 . S
C3578 C3582 1.368 . S
C3579 C3560 1.429 . S
C3579 C3573 1.429 1_545 S
C3579 C3580 1.523 . S
C3580 C3561 1.368 1_545 S
C3580 C3574 1.368 . S
C3580 C3579 1.523 . S
C3581 C3565 1.429 . S
C3581 C3577 1.429 1_565 S
C3581 C3582 1.523 . S
C3582 C3566 1.368 1_565 S
C3582 C3578 1.368 . S
C3582 C3581 1.523 . S
H3583 C3558 0.950 . S
H3584 C3560 0.950 . S
H3585 C3561 0.949 . S
H3586 C3563 0.950 . S
H3587 C3565 0.950 . S
C3588 C3589 1.349 . S
C3588 C3590 1.327 . S
C3588 H3613 0.950 . S
C3589 C3588 1.349 . S
C3589 C3605 1.349 . S
C3590 C3588 1.327 . S
C3590 C3609 1.429 . S
C3590 H3614 0.950 . S
C3591 C3608 1.574 . S
C3591 C3610 1.368 . S
C3591 H3615 0.949 . S
H3592 C3596 0.949 . S
C3593 C3594 1.349 . S
C3593 C3595 1.327 . S
C3593 H3616 0.950 . S
C3594 C3593 1.349 . S
C3594 C3606 1.349 . S
C3595 C3593 1.327 . S
C3595 C3611 1.429 . S
C3595 H3617 0.950 . S
C3596 H3592 0.949 . S
C3596 C3604 1.574 . S
C3596 C3612 1.368 . S
H3597 C3605 0.950 . S
H3598 C3603 0.950 . S
H3599 C3604 0.949 . S
H3600 C3606 0.950 . S
H3601 C3607 0.950 . S
H3602 C3608 0.949 . S
C3603 H3598 0.950 . S
C3603 C3605 1.327 . S
C3603 C3609 1.429 . S
C3604 C3596 1.574 . S
C3604 H3599 0.949 . S
C3604 C3610 1.368 . S
C3605 C3589 1.349 . S
C3605 H3597 0.950 . S
C3605 C3603 1.327 . S
C3606 C3594 1.349 . S
C3606 H3600 0.950 . S
C3606 C3607 1.327 . S
C3607 H3601 0.950 . S
C3607 C3606 1.327 . S
C3607 C3611 1.429 . S
C3608 C3591 1.574 . S
C3608 H3602 0.949 . S
C3608 C3612 1.368 . S
C3609 C3590 1.429 . S
C3609 C3603 1.429 . S
C3609 C3610 1.523 . S
C3610 C3591 1.368 . S
C3610 C3604 1.368 . S
C3610 C3609 1.523 . S
C3611 C3595 1.429 . S
C3611 C3607 1.429 . S
C3611 C3612 1.523 . S
C3612 C3596 1.368 . S
C3612 C3608 1.368 . S
C3612 C3611 1.523 . S
H3613 C3588 0.950 . S
H3614 C3590 0.950 . S
H3615 C3591 0.949 . S
H3616 C3593 0.950 . S
H3617 C3595 0.950 . S
C3618 C3619 1.349 . S
C3618 C3620 1.327 . S
C3618 H3643 0.950 . S
C3619 C3618 1.349 . S
C3619 C3635 1.349 . S
C3620 C3618 1.327 . S
C3620 C3639 1.429 . S
C3620 H3644 0.950 . S
C3621 C3638 1.574 1_554 S
C3621 C3640 1.368 . S
C3621 H3645 0.949 . S
H3622 C3626 0.949 . S
C3623 C3624 1.349 . S
C3623 C3625 1.327 . S
C3623 H3646 0.950 . S
C3624 C3623 1.349 . S
C3624 C3636 1.349 . S
C3625 C3623 1.327 . S
C3625 C3641 1.429 . S
C3625 H3647 0.950 . S
C3626 H3622 0.949 . S
C3626 C3634 1.574 1_556 S
C3626 C3642 1.368 . S
H3627 C3635 0.950 . S
H3628 C3633 0.950 . S
H3629 C3634 0.949 . S
H3630 C3636 0.950 . S
H3631 C3637 0.950 . S
H3632 C3638 0.949 . S
C3633 H3628 0.950 . S
C3633 C3635 1.327 . S
C3633 C3639 1.429 . S
C3634 C3626 1.574 1_554 S
C3634 H3629 0.949 . S
C3634 C3640 1.368 . S
C3635 C3619 1.349 . S
C3635 H3627 0.950 . S
C3635 C3633 1.327 . S
C3636 C3624 1.349 . S
C3636 H3630 0.950 . S
C3636 C3637 1.327 . S
C3637 H3631 0.950 . S
C3637 C3636 1.327 . S
C3637 C3641 1.429 . S
C3638 C3621 1.574 1_556 S
C3638 H3632 0.949 . S
C3638 C3642 1.368 . S
C3639 C3620 1.429 . S
C3639 C3633 1.429 . S
C3639 C3640 1.523 . S
C3640 C3621 1.368 . S
C3640 C3634 1.368 . S
C3640 C3639 1.523 . S
C3641 C3625 1.429 . S
C3641 C3637 1.429 . S
C3641 C3642 1.523 . S
C3642 C3626 1.368 . S
C3642 C3638 1.368 . S
C3642 C3641 1.523 . S
H3643 C3618 0.950 . S
H3644 C3620 0.950 . S
H3645 C3621 0.949 . S
H3646 C3623 0.950 . S
H3647 C3625 0.950 . S
C3648 C3649 1.349 . S
C3648 C3650 1.327 . S
C3648 H3673 0.950 . S
C3649 C3648 1.349 . S
C3649 C3665 1.349 1_565 S
C3650 C3648 1.327 . S
C3650 C3669 1.429 . S
C3650 H3674 0.950 . S
C3651 C3668 1.574 . S
C3651 C3670 1.368 1_545 S
C3651 H3675 0.949 . S
H3652 C3656 0.949 . S
C3653 C3654 1.349 1_545 S
C3653 C3655 1.327 . S
C3653 H3676 0.950 . S
C3654 C3653 1.349 1_565 S
C3654 C3666 1.349 . S
C3655 C3653 1.327 . S
C3655 C3671 1.429 1_545 S
C3655 H3677 0.950 . S
C3656 H3652 0.949 . S
C3656 C3664 1.574 . S
C3656 C3672 1.368 . S
H3657 C3665 0.950 . S
H3658 C3663 0.950 . S
H3659 C3664 0.949 . S
H3660 C3666 0.950 . S
H3661 C3667 0.950 . S
H3662 C3668 0.949 . S
C3663 H3658 0.950 . S
C3663 C3665 1.327 . S
C3663 C3669 1.429 1_545 S
C3664 C3656 1.574 . S
C3664 H3659 0.949 . S
C3664 C3670 1.368 . S
C3665 C3649 1.349 1_545 S
C3665 H3657 0.950 . S
C3665 C3663 1.327 . S
C3666 C3654 1.349 . S
C3666 H3660 0.950 . S
C3666 C3667 1.327 . S
C3667 H3661 0.950 . S
C3667 C3666 1.327 . S
C3667 C3671 1.429 . S
C3668 C3651 1.574 . S
C3668 H3662 0.949 . S
C3668 C3672 1.368 1_545 S
C3669 C3650 1.429 . S
C3669 C3663 1.429 1_565 S
C3669 C3670 1.523 . S
C3670 C3651 1.368 1_565 S
C3670 C3664 1.368 . S
C3670 C3669 1.523 . S
C3671 C3655 1.429 1_565 S
C3671 C3667 1.429 . S
C3671 C3672 1.523 . S
C3672 C3656 1.368 . S
C3672 C3668 1.368 1_565 S
C3672 C3671 1.523 . S
H3673 C3648 0.950 . S
H3674 C3650 0.950 . S
H3675 C3651 0.949 . S
H3676 C3653 0.950 . S
H3677 C3655 0.950 . S
C3678 C3679 1.349 . S
C3678 C3680 1.327 . S
C3678 H3703 0.950 . S
C3679 C3678 1.349 . S
C3679 C3695 1.349 . S
C3680 C3678 1.327 . S
C3680 C3699 1.429 . S
C3680 H3704 0.950 . S
C3681 C3698 1.574 . S
C3681 C3700 1.368 . S
C3681 H3705 0.949 . S
H3682 C3686 0.949 . S
C3683 C3684 1.349 . S
C3683 C3685 1.327 . S
C3683 H3706 0.950 . S
C3684 C3683 1.349 . S
C3684 C3696 1.349 . S
C3685 C3683 1.327 . S
C3685 C3701 1.429 . S
C3685 H3707 0.950 . S
C3686 H3682 0.949 . S
C3686 C3694 1.574 . S
C3686 C3702 1.368 . S
H3687 C3695 0.950 . S
H3688 C3693 0.950 . S
H3689 C3694 0.949 . S
H3690 C3696 0.950 . S
H3691 C3697 0.950 . S
H3692 C3698 0.949 . S
C3693 H3688 0.950 . S
C3693 C3695 1.327 . S
C3693 C3699 1.429 . S
C3694 C3686 1.574 . S
C3694 H3689 0.949 . S
C3694 C3700 1.368 . S
C3695 C3679 1.349 . S
C3695 H3687 0.950 . S
C3695 C3693 1.327 . S
C3696 C3684 1.349 . S
C3696 H3690 0.950 . S
C3696 C3697 1.327 . S
C3697 H3691 0.950 . S
C3697 C3696 1.327 . S
C3697 C3701 1.429 . S
C3698 C3681 1.574 . S
C3698 H3692 0.949 . S
C3698 C3702 1.368 . S
C3699 C3680 1.429 . S
C3699 C3693 1.429 . S
C3699 C3700 1.523 . S
C3700 C3681 1.368 . S
C3700 C3694 1.368 . S
C3700 C3699 1.523 . S
C3701 C3685 1.429 . S
C3701 C3697 1.429 . S
C3701 C3702 1.523 . S
C3702 C3686 1.368 . S
C3702 C3698 1.368 . S
C3702 C3701 1.523 . S
H3703 C3678 0.950 . S
H3704 C3680 0.950 . S
H3705 C3681 0.949 . S
H3706 C3683 0.950 . S
H3707 C3685 0.950 . S
C3708 C3709 1.349 . S
C3708 C3710 1.327 . S
C3708 H3733 0.950 . S
C3709 C3708 1.349 . S
C3709 C3725 1.349 . S
C3710 C3708 1.327 . S
C3710 C3729 1.429 . S
C3710 H3734 0.950 . S
C3711 C3728 1.574 . S
C3711 C3730 1.368 . S
C3711 H3735 0.949 . S
H3712 C3716 0.949 . S
C3713 C3714 1.349 . S
C3713 C3715 1.327 . S
C3713 H3736 0.950 . S
C3714 C3713 1.349 . S
C3714 C3726 1.349 . S
C3715 C3713 1.327 . S
C3715 C3731 1.429 . S
C3715 H3737 0.950 . S
C3716 H3712 0.949 . S
C3716 C3724 1.574 . S
C3716 C3732 1.368 . S
H3717 C3725 0.950 . S
H3718 C3723 0.950 . S
H3719 C3724 0.949 . S
H3720 C3726 0.950 . S
H3721 C3727 0.950 . S
H3722 C3728 0.949 . S
C3723 H3718 0.950 . S
C3723 C3725 1.327 . S
C3723 C3729 1.429 . S
C3724 C3716 1.574 . S
C3724 H3719 0.949 . S
C3724 C3730 1.368 . S
C3725 C3709 1.349 . S
C3725 H3717 0.950 . S
C3725 C3723 1.327 . S
C3726 C3714 1.349 . S
C3726 H3720 0.950 . S
C3726 C3727 1.327 . S
C3727 H3721 0.950 . S
C3727 C3726 1.327 . S
C3727 C3731 1.429 . S
C3728 C3711 1.574 . S
C3728 H3722 0.949 . S
C3728 C3732 1.368 . S
C3729 C3710 1.429 . S
C3729 C3723 1.429 . S
C3729 C3730 1.523 . S
C3730 C3711 1.368 . S
C3730 C3724 1.368 . S
C3730 C3729 1.523 . S
C3731 C3715 1.429 . S
C3731 C3727 1.429 . S
C3731 C3732 1.523 . S
C3732 C3716 1.368 . S
C3732 C3728 1.368 . S
C3732 C3731 1.523 . S
H3733 C3708 0.950 . S
H3734 C3710 0.950 . S
H3735 C3711 0.949 . S
H3736 C3713 0.950 . S
H3737 C3715 0.950 . S
C3738 C3739 1.349 . S
C3738 C3740 1.327 . S
C3738 H3763 0.950 . S
C3739 C3738 1.349 . S
C3739 C3755 1.349 1_565 S
C3740 C3738 1.327 . S
C3740 C3759 1.429 . S
C3740 H3764 0.950 . S
C3741 C3758 1.574 . S
C3741 C3760 1.368 1_545 S
C3741 H3765 0.949 . S
H3742 C3746 0.949 . S
C3743 C3744 1.349 1_545 S
C3743 C3745 1.327 . S
C3743 H3766 0.950 . S
C3744 C3743 1.349 1_565 S
C3744 C3756 1.349 . S
C3745 C3743 1.327 . S
C3745 C3761 1.429 1_545 S
C3745 H3767 0.950 . S
C3746 H3742 0.949 . S
C3746 C3754 1.574 . S
C3746 C3762 1.368 . S
H3747 C3755 0.950 . S
H3748 C3753 0.950 . S
H3749 C3754 0.949 . S
H3750 C3756 0.950 . S
H3751 C3757 0.950 . S
H3752 C3758 0.949 . S
C3753 H3748 0.950 . S
C3753 C3755 1.327 . S
C3753 C3759 1.429 1_545 S
C3754 C3746 1.574 . S
C3754 H3749 0.949 . S
C3754 C3760 1.368 . S
C3755 C3739 1.349 1_545 S
C3755 H3747 0.950 . S
C3755 C3753 1.327 . S
C3756 C3744 1.349 . S
C3756 H3750 0.950 . S
C3756 C3757 1.327 . S
C3757 H3751 0.950 . S
C3757 C3756 1.327 . S
C3757 C3761 1.429 . S
C3758 C3741 1.574 . S
C3758 H3752 0.949 . S
C3758 C3762 1.368 1_545 S
C3759 C3740 1.429 . S
C3759 C3753 1.429 1_565 S
C3759 C3760 1.523 . S
C3760 C3741 1.368 1_565 S
C3760 C3754 1.368 . S
C3760 C3759 1.523 . S
C3761 C3745 1.429 1_565 S
C3761 C3757 1.429 . S
C3761 C3762 1.523 . S
C3762 C3746 1.368 . S
C3762 C3758 1.368 1_565 S
C3762 C3761 1.523 . S
H3763 C3738 0.950 . S
H3764 C3740 0.950 . S
H3765 C3741 0.949 . S
H3766 C3743 0.950 . S
H3767 C3745 0.950 . S
C3768 C3769 1.349 1_565 S
C3768 C3770 1.327 . S
C3768 H3793 0.950 . S
C3769 C3768 1.349 1_545 S
C3769 C3785 1.349 . S
C3770 C3768 1.327 . S
C3770 C3789 1.429 1_565 S
C3770 H3794 0.950 . S
C3771 C3788 1.574 . S
C3771 C3790 1.368 . S
C3771 H3795 0.949 . S
H3772 C3776 0.949 . S
C3773 C3774 1.349 . S
C3773 C3775 1.327 . S
C3773 H3796 0.950 . S
C3774 C3773 1.349 . S
C3774 C3786 1.349 1_545 S
C3775 C3773 1.327 . S
C3775 C3791 1.429 . S
C3775 H3797 0.950 . S
C3776 H3772 0.949 . S
C3776 C3784 1.574 . S
C3776 C3792 1.368 1_565 S
H3777 C3785 0.950 . S
H3778 C3783 0.950 . S
H3779 C3784 0.949 . S
H3780 C3786 0.950 . S
H3781 C3787 0.950 . S
H3782 C3788 0.949 . S
C3783 H3778 0.950 . S
C3783 C3785 1.327 . S
C3783 C3789 1.429 . S
C3784 C3776 1.574 . S
C3784 H3779 0.949 . S
C3784 C3790 1.368 1_565 S
C3785 C3769 1.349 . S
C3785 H3777 0.950 . S
C3785 C3783 1.327 . S
C3786 C3774 1.349 1_565 S
C3786 H3780 0.950 . S
C3786 C3787 1.327 . S
C3787 H3781 0.950 . S
C3787 C3786 1.327 . S
C3787 C3791 1.429 1_565 S
C3788 C3771 1.574 . S
C3788 H3782 0.949 . S
C3788 C3792 1.368 . S
C3789 C3770 1.429 1_545 S
C3789 C3783 1.429 . S
C3789 C3790 1.523 . S
C3790 C3771 1.368 . S
C3790 C3784 1.368 1_545 S
C3790 C3789 1.523 . S
C3791 C3775 1.429 . S
C3791 C3787 1.429 1_545 S
C3791 C3792 1.523 . S
C3792 C3776 1.368 1_545 S
C3792 C3788 1.368 . S
C3792 C3791 1.523 . S
H3793 C3768 0.950 . S
H3794 C3770 0.950 . S
H3795 C3771 0.949 . S
H3796 C3773 0.950 . S
H3797 C3775 0.950 . S
C3798 C3799 1.349 . S
C3798 C3800 1.327 . S
C3798 H3823 0.950 . S
C3799 C3798 1.349 . S
C3799 C3815 1.349 . S
C3800 C3798 1.327 . S
C3800 C3819 1.429 . S
C3800 H3824 0.950 . S
C3801 C3818 1.574 . S
C3801 C3820 1.368 . S
C3801 H3825 0.949 . S
H3802 C3806 0.949 . S
C3803 C3804 1.349 . S
C3803 C3805 1.327 . S
C3803 H3826 0.950 . S
C3804 C3803 1.349 . S
C3804 C3816 1.349 . S
C3805 C3803 1.327 . S
C3805 C3821 1.429 . S
C3805 H3827 0.950 . S
C3806 H3802 0.949 . S
C3806 C3814 1.574 . S
C3806 C3822 1.368 . S
H3807 C3815 0.950 . S
H3808 C3813 0.950 . S
H3809 C3814 0.949 . S
H3810 C3816 0.950 . S
H3811 C3817 0.950 . S
H3812 C3818 0.949 . S
C3813 H3808 0.950 . S
C3813 C3815 1.327 . S
C3813 C3819 1.429 . S
C3814 C3806 1.574 . S
C3814 H3809 0.949 . S
C3814 C3820 1.368 . S
C3815 C3799 1.349 . S
C3815 H3807 0.950 . S
C3815 C3813 1.327 . S
C3816 C3804 1.349 . S
C3816 H3810 0.950 . S
C3816 C3817 1.327 . S
C3817 H3811 0.950 . S
C3817 C3816 1.327 . S
C3817 C3821 1.429 . S
C3818 C3801 1.574 . S
C3818 H3812 0.949 . S
C3818 C3822 1.368 . S
C3819 C3800 1.429 . S
C3819 C3813 1.429 . S
C3819 C3820 1.523 . S
C3820 C3801 1.368 . S
C3820 C3814 1.368 . S
C3820 C3819 1.523 . S
C3821 C3805 1.429 . S
C3821 C3817 1.429 . S
C3821 C3822 1.523 . S
C3822 C3806 1.368 . S
C3822 C3818 1.368 . S
C3822 C3821 1.523 . S
H3823 C3798 0.950 . S
H3824 C3800 0.950 . S
H3825 C3801 0.949 . S
H3826 C3803 0.950 . S
H3827 C3805 0.950 . S
C3828 C3829 1.349 . S
C3828 C3830 1.327 . S
C3828 H3853 0.950 . S
C3829 C3828 1.349 . S
C3829 C3845 1.349 . S
C3830 C3828 1.327 . S
C3830 C3849 1.429 . S
C3830 H3854 0.950 . S
C3831 C3848 1.574 . S
C3831 C3850 1.368 . S
C3831 H3855 0.949 . S
H3832 C3836 0.949 . S
C3833 C3834 1.349 . S
C3833 C3835 1.327 . S
C3833 H3856 0.950 . S
C3834 C3833 1.349 . S
C3834 C3846 1.349 . S
C3835 C3833 1.327 . S
C3835 C3851 1.429 . S
C3835 H3857 0.950 . S
C3836 H3832 0.949 . S
C3836 C3844 1.574 . S
C3836 C3852 1.368 . S
H3837 C3845 0.950 . S
H3838 C3843 0.950 . S
H3839 C3844 0.949 . S
H3840 C3846 0.950 . S
H3841 C3847 0.950 . S
H3842 C3848 0.949 . S
C3843 H3838 0.950 . S
C3843 C3845 1.327 . S
C3843 C3849 1.429 . S
C3844 C3836 1.574 . S
C3844 H3839 0.949 . S
C3844 C3850 1.368 . S
C3845 C3829 1.349 . S
C3845 H3837 0.950 . S
C3845 C3843 1.327 . S
C3846 C3834 1.349 . S
C3846 H3840 0.950 . S
C3846 C3847 1.327 . S
C3847 H3841 0.950 . S
C3847 C3846 1.327 . S
C3847 C3851 1.429 . S
C3848 C3831 1.574 . S
C3848 H3842 0.949 . S
C3848 C3852 1.368 . S
C3849 C3830 1.429 . S
C3849 C3843 1.429 . S
C3849 C3850 1.523 . S
C3850 C3831 1.368 . S
C3850 C3844 1.368 . S
C3850 C3849 1.523 . S
C3851 C3835 1.429 . S
C3851 C3847 1.429 . S
C3851 C3852 1.523 . S
C3852 C3836 1.368 . S
C3852 C3848 1.368 . S
C3852 C3851 1.523 . S
H3853 C3828 0.950 . S
H3854 C3830 0.950 . S
H3855 C3831 0.949 . S
H3856 C3833 0.950 . S
H3857 C3835 0.950 . S
C3858 C3859 1.349 1_565 S
C3858 C3860 1.327 . S
C3858 H3883 0.950 . S
C3859 C3858 1.349 1_545 S
C3859 C3875 1.349 . S
C3860 C3858 1.327 . S
C3860 C3879 1.429 1_565 S
C3860 H3884 0.950 . S
C3861 C3878 1.574 . S
C3861 C3880 1.368 . S
C3861 H3885 0.949 . S
H3862 C3866 0.949 . S
C3863 C3864 1.349 . S
C3863 C3865 1.327 . S
C3863 H3886 0.950 . S
C3864 C3863 1.349 . S
C3864 C3876 1.349 1_545 S
C3865 C3863 1.327 . S
C3865 C3881 1.429 . S
C3865 H3887 0.950 . S
C3866 H3862 0.949 . S
C3866 C3874 1.574 . S
C3866 C3882 1.368 1_565 S
H3867 C3875 0.950 . S
H3868 C3873 0.950 . S
H3869 C3874 0.949 . S
H3870 C3876 0.950 . S
H3871 C3877 0.950 . S
H3872 C3878 0.949 . S
C3873 H3868 0.950 . S
C3873 C3875 1.327 . S
C3873 C3879 1.429 . S
C3874 C3866 1.574 . S
C3874 H3869 0.949 . S
C3874 C3880 1.368 1_565 S
C3875 C3859 1.349 . S
C3875 H3867 0.950 . S
C3875 C3873 1.327 . S
C3876 C3864 1.349 1_565 S
C3876 H3870 0.950 . S
C3876 C3877 1.327 . S
C3877 H3871 0.950 . S
C3877 C3876 1.327 . S
C3877 C3881 1.429 1_565 S
C3878 C3861 1.574 . S
C3878 H3872 0.949 . S
C3878 C3882 1.368 . S
C3879 C3860 1.429 1_545 S
C3879 C3873 1.429 . S
C3879 C3880 1.523 . S
C3880 C3861 1.368 . S
C3880 C3874 1.368 1_545 S
C3880 C3879 1.523 . S
C3881 C3865 1.429 . S
C3881 C3877 1.429 1_545 S
C3881 C3882 1.523 . S
C3882 C3866 1.368 1_545 S
C3882 C3878 1.368 . S
C3882 C3881 1.523 . S
H3883 C3858 0.950 . S
H3884 C3860 0.950 . S
H3885 C3861 0.949 . S
H3886 C3863 0.950 . S
H3887 C3865 0.950 . S
C3888 C3889 1.349 . S
C3888 C3890 1.327 . S
C3888 H3913 0.950 . S
C3889 C3888 1.349 . S
C3889 C3905 1.349 . S
C3890 C3888 1.327 . S
C3890 C3909 1.429 . S
C3890 H3914 0.950 . S
C3891 C3908 1.574 . S
C3891 C3910 1.368 . S
C3891 H3915 0.949 . S
H3892 C3896 0.949 . S
C3893 C3894 1.349 . S
C3893 C3895 1.327 . S
C3893 H3916 0.950 . S
C3894 C3893 1.349 . S
C3894 C3906 1.349 . S
C3895 C3893 1.327 . S
C3895 C3911 1.429 . S
C3895 H3917 0.950 . S
C3896 H3892 0.949 . S
C3896 C3904 1.574 . S
C3896 C3912 1.368 . S
H3897 C3905 0.950 . S
H3898 C3903 0.950 . S
H3899 C3904 0.949 . S
H3900 C3906 0.950 . S
H3901 C3907 0.950 . S
H3902 C3908 0.949 . S
C3903 H3898 0.950 . S
C3903 C3905 1.327 . S
C3903 C3909 1.429 . S
C3904 C3896 1.574 . S
C3904 H3899 0.949 . S
C3904 C3910 1.368 . S
C3905 C3889 1.349 . S
C3905 H3897 0.950 . S
C3905 C3903 1.327 . S
C3906 C3894 1.349 . S
C3906 H3900 0.950 . S
C3906 C3907 1.327 . S
C3907 H3901 0.950 . S
C3907 C3906 1.327 . S
C3907 C3911 1.429 . S
C3908 C3891 1.574 . S
C3908 H3902 0.949 . S
C3908 C3912 1.368 . S
C3909 C3890 1.429 . S
C3909 C3903 1.429 . S
C3909 C3910 1.523 . S
C3910 C3891 1.368 . S
C3910 C3904 1.368 . S
C3910 C3909 1.523 . S
C3911 C3895 1.429 . S
C3911 C3907 1.429 . S
C3911 C3912 1.523 . S
C3912 C3896 1.368 . S
C3912 C3908 1.368 . S
C3912 C3911 1.523 . S
H3913 C3888 0.950 . S
H3914 C3890 0.950 . S
H3915 C3891 0.949 . S
H3916 C3893 0.950 . S
H3917 C3895 0.950 . S
C3918 C3919 1.349 . S
C3918 C3920 1.327 . S
C3918 H3943 0.950 . S
C3919 C3918 1.349 . S
C3919 C3935 1.349 . S
C3920 C3918 1.327 . S
C3920 C3939 1.429 . S
C3920 H3944 0.950 . S
C3921 C3938 1.574 . S
C3921 C3940 1.368 . S
C3921 H3945 0.949 . S
H3922 C3926 0.949 . S
C3923 C3924 1.349 . S
C3923 C3925 1.327 . S
C3923 H3946 0.950 . S
C3924 C3923 1.349 . S
C3924 C3936 1.349 . S
C3925 C3923 1.327 . S
C3925 C3941 1.429 . S
C3925 H3947 0.950 . S
C3926 H3922 0.949 . S
C3926 C3934 1.574 . S
C3926 C3942 1.368 . S
H3927 C3935 0.950 . S
H3928 C3933 0.950 . S
H3929 C3934 0.949 . S
H3930 C3936 0.950 . S
H3931 C3937 0.950 . S
H3932 C3938 0.949 . S
C3933 H3928 0.950 . S
C3933 C3935 1.327 . S
C3933 C3939 1.429 . S
C3934 C3926 1.574 . S
C3934 H3929 0.949 . S
C3934 C3940 1.368 . S
C3935 C3919 1.349 . S
C3935 H3927 0.950 . S
C3935 C3933 1.327 . S
C3936 C3924 1.349 . S
C3936 H3930 0.950 . S
C3936 C3937 1.327 . S
C3937 H3931 0.950 . S
C3937 C3936 1.327 . S
C3937 C3941 1.429 . S
C3938 C3921 1.574 . S
C3938 H3932 0.949 . S
C3938 C3942 1.368 . S
C3939 C3920 1.429 . S
C3939 C3933 1.429 . S
C3939 C3940 1.523 . S
C3940 C3921 1.368 . S
C3940 C3934 1.368 . S
C3940 C3939 1.523 . S
C3941 C3925 1.429 . S
C3941 C3937 1.429 . S
C3941 C3942 1.523 . S
C3942 C3926 1.368 . S
C3942 C3938 1.368 . S
C3942 C3941 1.523 . S
H3943 C3918 0.950 . S
H3944 C3920 0.950 . S
H3945 C3921 0.949 . S
H3946 C3923 0.950 . S
H3947 C3925 0.950 . S
C3948 C3949 1.349 . S
C3948 C3950 1.327 . S
C3948 H3973 0.950 . S
C3949 C3948 1.349 . S
C3949 C3965 1.349 . S
C3950 C3948 1.327 . S
C3950 C3969 1.429 . S
C3950 H3974 0.950 . S
C3951 C3968 1.574 . S
C3951 C3970 1.368 . S
C3951 H3975 0.949 . S
H3952 C3956 0.949 . S
C3953 C3954 1.349 . S
C3953 C3955 1.327 . S
C3953 H3976 0.950 . S
C3954 C3953 1.349 . S
C3954 C3966 1.349 . S
C3955 C3953 1.327 . S
C3955 C3971 1.429 . S
C3955 H3977 0.950 . S
C3956 H3952 0.949 . S
C3956 C3964 1.574 . S
C3956 C3972 1.368 . S
H3957 C3965 0.950 . S
H3958 C3963 0.950 . S
H3959 C3964 0.949 . S
H3960 C3966 0.950 . S
H3961 C3967 0.950 . S
H3962 C3968 0.949 . S
C3963 H3958 0.950 . S
C3963 C3965 1.327 . S
C3963 C3969 1.429 . S
C3964 C3956 1.574 . S
C3964 H3959 0.949 . S
C3964 C3970 1.368 . S
C3965 C3949 1.349 . S
C3965 H3957 0.950 . S
C3965 C3963 1.327 . S
C3966 C3954 1.349 . S
C3966 H3960 0.950 . S
C3966 C3967 1.327 . S
C3967 H3961 0.950 . S
C3967 C3966 1.327 . S
C3967 C3971 1.429 . S
C3968 C3951 1.574 . S
C3968 H3962 0.949 . S
C3968 C3972 1.368 . S
C3969 C3950 1.429 . S
C3969 C3963 1.429 . S
C3969 C3970 1.523 . S
C3970 C3951 1.368 . S
C3970 C3964 1.368 . S
C3970 C3969 1.523 . S
C3971 C3955 1.429 . S
C3971 C3967 1.429 . S
C3971 C3972 1.523 . S
C3972 C3956 1.368 . S
C3972 C3968 1.368 . S
C3972 C3971 1.523 . S
H3973 C3948 0.950 . S
H3974 C3950 0.950 . S
H3975 C3951 0.949 . S
H3976 C3953 0.950 . S
H3977 C3955 0.950 . S
C3978 C3979 1.349 . S
C3978 C3980 1.327 . S
C3978 H4003 0.950 . S
C3979 C3978 1.349 . S
C3979 C3995 1.349 . S
C3980 C3978 1.327 . S
C3980 C3999 1.429 . S
C3980 H4004 0.950 . S
C3981 C3998 1.574 . S
C3981 C4000 1.368 . S
C3981 H4005 0.949 . S
H3982 C3986 0.949 . S
C3983 C3984 1.349 . S
C3983 C3985 1.327 . S
C3983 H4006 0.950 . S
C3984 C3983 1.349 . S
C3984 C3996 1.349 . S
C3985 C3983 1.327 . S
C3985 C4001 1.429 . S
C3985 H4007 0.950 . S
C3986 H3982 0.949 . S
C3986 C3994 1.574 . S
C3986 C4002 1.368 . S
H3987 C3995 0.950 . S
H3988 C3993 0.950 . S
H3989 C3994 0.949 . S
H3990 C3996 0.950 . S
H3991 C3997 0.950 . S
H3992 C3998 0.949 . S
C3993 H3988 0.950 . S
C3993 C3995 1.327 . S
C3993 C3999 1.429 . S
C3994 C3986 1.574 . S
C3994 H3989 0.949 . S
C3994 C4000 1.368 . S
C3995 C3979 1.349 . S
C3995 H3987 0.950 . S
C3995 C3993 1.327 . S
C3996 C3984 1.349 . S
C3996 H3990 0.950 . S
C3996 C3997 1.327 . S
C3997 H3991 0.950 . S
C3997 C3996 1.327 . S
C3997 C4001 1.429 . S
C3998 C3981 1.574 . S
C3998 H3992 0.949 . S
C3998 C4002 1.368 . S
C3999 C3980 1.429 . S
C3999 C3993 1.429 . S
C3999 C4000 1.523 . S
C4000 C3981 1.368 . S
C4000 C3994 1.368 . S
C4000 C3999 1.523 . S
C4001 C3985 1.429 . S
C4001 C3997 1.429 . S
C4001 C4002 1.523 . S
C4002 C3986 1.368 . S
C4002 C3998 1.368 . S
C4002 C4001 1.523 . S
H4003 C3978 0.950 . S
H4004 C3980 0.950 . S
H4005 C3981 0.949 . S
H4006 C3983 0.950 . S
H4007 C3985 0.950 . S
C4008 C4009 1.349 . S
C4008 C4010 1.327 . S
C4008 H4033 0.950 . S
C4009 C4008 1.349 . S
C4009 C4025 1.349 . S
C4010 C4008 1.327 . S
C4010 C4029 1.429 . S
C4010 H4034 0.950 . S
C4011 C4028 1.574 . S
C4011 C4030 1.368 . S
C4011 H4035 0.949 . S
H4012 C4016 0.949 . S
C4013 C4014 1.349 . S
C4013 C4015 1.327 . S
C4013 H4036 0.950 . S
C4014 C4013 1.349 . S
C4014 C4026 1.349 . S
C4015 C4013 1.327 . S
C4015 C4031 1.429 . S
C4015 H4037 0.950 . S
C4016 H4012 0.949 . S
C4016 C4024 1.574 . S
C4016 C4032 1.368 . S
H4017 C4025 0.950 . S
H4018 C4023 0.950 . S
H4019 C4024 0.949 . S
H4020 C4026 0.950 . S
H4021 C4027 0.950 . S
H4022 C4028 0.949 . S
C4023 H4018 0.950 . S
C4023 C4025 1.327 . S
C4023 C4029 1.429 . S
C4024 C4016 1.574 . S
C4024 H4019 0.949 . S
C4024 C4030 1.368 . S
C4025 C4009 1.349 . S
C4025 H4017 0.950 . S
C4025 C4023 1.327 . S
C4026 C4014 1.349 . S
C4026 H4020 0.950 . S
C4026 C4027 1.327 . S
C4027 H4021 0.950 . S
C4027 C4026 1.327 . S
C4027 C4031 1.429 . S
C4028 C4011 1.574 . S
C4028 H4022 0.949 . S
C4028 C4032 1.368 . S
C4029 C4010 1.429 . S
C4029 C4023 1.429 . S
C4029 C4030 1.523 . S
C4030 C4011 1.368 . S
C4030 C4024 1.368 . S
C4030 C4029 1.523 . S
C4031 C4015 1.429 . S
C4031 C4027 1.429 . S
C4031 C4032 1.523 . S
C4032 C4016 1.368 . S
C4032 C4028 1.368 . S
C4032 C4031 1.523 . S
H4033 C4008 0.950 . S
H4034 C4010 0.950 . S
H4035 C4011 0.949 . S
H4036 C4013 0.950 . S
H4037 C4015 0.950 . S
C4038 C4039 1.349 . S
C4038 C4040 1.327 . S
C4038 H4063 0.950 . S
C4039 C4038 1.349 . S
C4039 C4055 1.349 . S
C4040 C4038 1.327 . S
C4040 C4059 1.429 . S
C4040 H4064 0.950 . S
C4041 C4058 1.574 . S
C4041 C4060 1.368 . S
C4041 H4065 0.949 . S
H4042 C4046 0.949 . S
C4043 C4044 1.349 . S
C4043 C4045 1.327 . S
C4043 H4066 0.950 . S
C4044 C4043 1.349 . S
C4044 C4056 1.349 . S
C4045 C4043 1.327 . S
C4045 C4061 1.429 . S
C4045 H4067 0.950 . S
C4046 H4042 0.949 . S
C4046 C4054 1.574 . S
C4046 C4062 1.368 . S
H4047 C4055 0.950 . S
H4048 C4053 0.950 . S
H4049 C4054 0.949 . S
H4050 C4056 0.950 . S
H4051 C4057 0.950 . S
H4052 C4058 0.949 . S
C4053 H4048 0.950 . S
C4053 C4055 1.327 . S
C4053 C4059 1.429 . S
C4054 C4046 1.574 . S
C4054 H4049 0.949 . S
C4054 C4060 1.368 . S
C4055 C4039 1.349 . S
C4055 H4047 0.950 . S
C4055 C4053 1.327 . S
C4056 C4044 1.349 . S
C4056 H4050 0.950 . S
C4056 C4057 1.327 . S
C4057 H4051 0.950 . S
C4057 C4056 1.327 . S
C4057 C4061 1.429 . S
C4058 C4041 1.574 . S
C4058 H4052 0.949 . S
C4058 C4062 1.368 . S
C4059 C4040 1.429 . S
C4059 C4053 1.429 . S
C4059 C4060 1.523 . S
C4060 C4041 1.368 . S
C4060 C4054 1.368 . S
C4060 C4059 1.523 . S
C4061 C4045 1.429 . S
C4061 C4057 1.429 . S
C4061 C4062 1.523 . S
C4062 C4046 1.368 . S
C4062 C4058 1.368 . S
C4062 C4061 1.523 . S
H4063 C4038 0.950 . S
H4064 C4040 0.950 . S
H4065 C4041 0.949 . S
H4066 C4043 0.950 . S
H4067 C4045 0.950 . S
C4068 C4069 1.349 . S
C4068 C4070 1.327 . S
C4068 H4093 0.950 . S
C4069 C4068 1.349 . S
C4069 C4085 1.349 . S
C4070 C4068 1.327 . S
C4070 C4089 1.429 . S
C4070 H4094 0.950 . S
C4071 C4088 1.574 . S
C4071 C4090 1.368 . S
C4071 H4095 0.949 . S
H4072 C4076 0.949 . S
C4073 C4074 1.349 . S
C4073 C4075 1.327 . S
C4073 H4096 0.950 . S
C4074 C4073 1.349 . S
C4074 C4086 1.349 . S
C4075 C4073 1.327 . S
C4075 C4091 1.429 . S
C4075 H4097 0.950 . S
C4076 H4072 0.949 . S
C4076 C4084 1.574 . S
C4076 C4092 1.368 . S
H4077 C4085 0.950 . S
H4078 C4083 0.950 . S
H4079 C4084 0.949 . S
H4080 C4086 0.950 . S
H4081 C4087 0.950 . S
H4082 C4088 0.949 . S
C4083 H4078 0.950 . S
C4083 C4085 1.327 . S
C4083 C4089 1.429 . S
C4084 C4076 1.574 . S
C4084 H4079 0.949 . S
C4084 C4090 1.368 . S
C4085 C4069 1.349 . S
C4085 H4077 0.950 . S
C4085 C4083 1.327 . S
C4086 C4074 1.349 . S
C4086 H4080 0.950 . S
C4086 C4087 1.327 . S
C4087 H4081 0.950 . S
C4087 C4086 1.327 . S
C4087 C4091 1.429 . S
C4088 C4071 1.574 . S
C4088 H4082 0.949 . S
C4088 C4092 1.368 . S
C4089 C4070 1.429 . S
C4089 C4083 1.429 . S
C4089 C4090 1.523 . S
C4090 C4071 1.368 . S
C4090 C4084 1.368 . S
C4090 C4089 1.523 . S
C4091 C4075 1.429 . S
C4091 C4087 1.429 . S
C4091 C4092 1.523 . S
C4092 C4076 1.368 . S
C4092 C4088 1.368 . S
C4092 C4091 1.523 . S
H4093 C4068 0.950 . S
H4094 C4070 0.950 . S
H4095 C4071 0.949 . S
H4096 C4073 0.950 . S
H4097 C4075 0.950 . S
C4098 C4099 1.349 . S
C4098 C4100 1.327 . S
C4098 H4123 0.950 . S
C4099 C4098 1.349 . S
C4099 C4115 1.349 . S
C4100 C4098 1.327 . S
C4100 C4119 1.429 . S
C4100 H4124 0.950 . S
C4101 C4118 1.574 . S
C4101 C4120 1.368 . S
C4101 H4125 0.949 . S
H4102 C4106 0.949 . S
C4103 C4104 1.349 . S
C4103 C4105 1.327 . S
C4103 H4126 0.950 . S
C4104 C4103 1.349 . S
C4104 C4116 1.349 . S
C4105 C4103 1.327 . S
C4105 C4121 1.429 . S
C4105 H4127 0.950 . S
C4106 H4102 0.949 . S
C4106 C4114 1.574 . S
C4106 C4122 1.368 . S
H4107 C4115 0.950 . S
H4108 C4113 0.950 . S
H4109 C4114 0.949 . S
H4110 C4116 0.950 . S
H4111 C4117 0.950 . S
H4112 C4118 0.949 . S
C4113 H4108 0.950 . S
C4113 C4115 1.327 . S
C4113 C4119 1.429 . S
C4114 C4106 1.574 . S
C4114 H4109 0.949 . S
C4114 C4120 1.368 . S
C4115 C4099 1.349 . S
C4115 H4107 0.950 . S
C4115 C4113 1.327 . S
C4116 C4104 1.349 . S
C4116 H4110 0.950 . S
C4116 C4117 1.327 . S
C4117 H4111 0.950 . S
C4117 C4116 1.327 . S
C4117 C4121 1.429 . S
C4118 C4101 1.574 . S
C4118 H4112 0.949 . S
C4118 C4122 1.368 . S
C4119 C4100 1.429 . S
C4119 C4113 1.429 . S
C4119 C4120 1.523 . S
C4120 C4101 1.368 . S
C4120 C4114 1.368 . S
C4120 C4119 1.523 . S
C4121 C4105 1.429 . S
C4121 C4117 1.429 . S
C4121 C4122 1.523 . S
C4122 C4106 1.368 . S
C4122 C4118 1.368 . S
C4122 C4121 1.523 . S
H4123 C4098 0.950 . S
H4124 C4100 0.950 . S
H4125 C4101 0.949 . S
H4126 C4103 0.950 . S
H4127 C4105 0.950 . S
C4128 C4129 1.349 . S
C4128 C4130 1.327 . S
C4128 H4153 0.950 . S
C4129 C4128 1.349 . S
C4129 C4145 1.349 . S
C4130 C4128 1.327 . S
C4130 C4149 1.429 . S
C4130 H4154 0.950 . S
C4131 C4148 1.574 . S
C4131 C4150 1.368 . S
C4131 H4155 0.949 . S
H4132 C4136 0.949 . S
C4133 C4134 1.349 . S
C4133 C4135 1.327 . S
C4133 H4156 0.950 . S
C4134 C4133 1.349 . S
C4134 C4146 1.349 . S
C4135 C4133 1.327 . S
C4135 C4151 1.429 . S
C4135 H4157 0.950 . S
C4136 H4132 0.949 . S
C4136 C4144 1.574 . S
C4136 C4152 1.368 . S
H4137 C4145 0.950 . S
H4138 C4143 0.950 . S
H4139 C4144 0.949 . S
H4140 C4146 0.950 . S
H4141 C4147 0.950 . S
H4142 C4148 0.949 . S
C4143 H4138 0.950 . S
C4143 C4145 1.327 . S
C4143 C4149 1.429 . S
C4144 C4136 1.574 . S
C4144 H4139 0.949 . S
C4144 C4150 1.368 . S
C4145 C4129 1.349 . S
C4145 H4137 0.950 . S
C4145 C4143 1.327 . S
C4146 C4134 1.349 . S
C4146 H4140 0.950 . S
C4146 C4147 1.327 . S
C4147 H4141 0.950 . S
C4147 C4146 1.327 . S
C4147 C4151 1.429 . S
C4148 C4131 1.574 . S
C4148 H4142 0.949 . S
C4148 C4152 1.368 . S
C4149 C4130 1.429 . S
C4149 C4143 1.429 . S
C4149 C4150 1.523 . S
C4150 C4131 1.368 . S
C4150 C4144 1.368 . S
C4150 C4149 1.523 . S
C4151 C4135 1.429 . S
C4151 C4147 1.429 . S
C4151 C4152 1.523 . S
C4152 C4136 1.368 . S
C4152 C4148 1.368 . S
C4152 C4151 1.523 . S
H4153 C4128 0.950 . S
H4154 C4130 0.950 . S
H4155 C4131 0.949 . S
H4156 C4133 0.950 . S
H4157 C4135 0.950 . S
C4158 C4159 1.349 . S
C4158 C4160 1.327 . S
C4158 H4183 0.950 . S
C4159 C4158 1.349 . S
C4159 C4175 1.349 . S
C4160 C4158 1.327 . S
C4160 C4179 1.429 . S
C4160 H4184 0.950 . S
C4161 C4178 1.574 . S
C4161 C4180 1.368 . S
C4161 H4185 0.949 . S
H4162 C4166 0.949 . S
C4163 C4164 1.349 . S
C4163 C4165 1.327 . S
C4163 H4186 0.950 . S
C4164 C4163 1.349 . S
C4164 C4176 1.349 . S
C4165 C4163 1.327 . S
C4165 C4181 1.429 . S
C4165 H4187 0.950 . S
C4166 H4162 0.949 . S
C4166 C4174 1.574 . S
C4166 C4182 1.368 . S
H4167 C4175 0.950 . S
H4168 C4173 0.950 . S
H4169 C4174 0.949 . S
H4170 C4176 0.950 . S
H4171 C4177 0.950 . S
H4172 C4178 0.949 . S
C4173 H4168 0.950 . S
C4173 C4175 1.327 . S
C4173 C4179 1.429 . S
C4174 C4166 1.574 . S
C4174 H4169 0.949 . S
C4174 C4180 1.368 . S
C4175 C4159 1.349 . S
C4175 H4167 0.950 . S
C4175 C4173 1.327 . S
C4176 C4164 1.349 . S
C4176 H4170 0.950 . S
C4176 C4177 1.327 . S
C4177 H4171 0.950 . S
C4177 C4176 1.327 . S
C4177 C4181 1.429 . S
C4178 C4161 1.574 . S
C4178 H4172 0.949 . S
C4178 C4182 1.368 . S
C4179 C4160 1.429 . S
C4179 C4173 1.429 . S
C4179 C4180 1.523 . S
C4180 C4161 1.368 . S
C4180 C4174 1.368 . S
C4180 C4179 1.523 . S
C4181 C4165 1.429 . S
C4181 C4177 1.429 . S
C4181 C4182 1.523 . S
C4182 C4166 1.368 . S
C4182 C4178 1.368 . S
C4182 C4181 1.523 . S
H4183 C4158 0.950 . S
H4184 C4160 0.950 . S
H4185 C4161 0.949 . S
H4186 C4163 0.950 . S
H4187 C4165 0.950 . S
C4188 C4189 1.349 . S
C4188 C4190 1.327 . S
C4188 H4213 0.950 . S
C4189 C4188 1.349 . S
C4189 C4205 1.349 . S
C4190 C4188 1.327 . S
C4190 C4209 1.429 . S
C4190 H4214 0.950 . S
C4191 C4208 1.574 . S
C4191 C4210 1.368 . S
C4191 H4215 0.949 . S
H4192 C4196 0.949 . S
C4193 C4194 1.349 . S
C4193 C4195 1.327 . S
C4193 H4216 0.950 . S
C4194 C4193 1.349 . S
C4194 C4206 1.349 . S
C4195 C4193 1.327 . S
C4195 C4211 1.429 . S
C4195 H4217 0.950 . S
C4196 H4192 0.949 . S
C4196 C4204 1.574 . S
C4196 C4212 1.368 . S
H4197 C4205 0.950 . S
H4198 C4203 0.950 . S
H4199 C4204 0.949 . S
H4200 C4206 0.950 . S
H4201 C4207 0.950 . S
H4202 C4208 0.949 . S
C4203 H4198 0.950 . S
C4203 C4205 1.327 . S
C4203 C4209 1.429 . S
C4204 C4196 1.574 . S
C4204 H4199 0.949 . S
C4204 C4210 1.368 . S
C4205 C4189 1.349 . S
C4205 H4197 0.950 . S
C4205 C4203 1.327 . S
C4206 C4194 1.349 . S
C4206 H4200 0.950 . S
C4206 C4207 1.327 . S
C4207 H4201 0.950 . S
C4207 C4206 1.327 . S
C4207 C4211 1.429 . S
C4208 C4191 1.574 . S
C4208 H4202 0.949 . S
C4208 C4212 1.368 . S
C4209 C4190 1.429 . S
C4209 C4203 1.429 . S
C4209 C4210 1.523 . S
C4210 C4191 1.368 . S
C4210 C4204 1.368 . S
C4210 C4209 1.523 . S
C4211 C4195 1.429 . S
C4211 C4207 1.429 . S
C4211 C4212 1.523 . S
C4212 C4196 1.368 . S
C4212 C4208 1.368 . S
C4212 C4211 1.523 . S
H4213 C4188 0.950 . S
H4214 C4190 0.950 . S
H4215 C4191 0.949 . S
H4216 C4193 0.950 . S
H4217 C4195 0.950 . S
C4218 C4219 1.349 . S
C4218 C4220 1.327 . S
C4218 H4243 0.950 . S
C4219 C4218 1.349 . S
C4219 C4235 1.349 . S
C4220 C4218 1.327 . S
C4220 C4239 1.429 . S
C4220 H4244 0.950 . S
C4221 C4238 1.574 . S
C4221 C4240 1.368 . S
C4221 H4245 0.949 . S
H4222 C4226 0.949 . S
C4223 C4224 1.349 . S
C4223 C4225 1.327 . S
C4223 H4246 0.950 . S
C4224 C4223 1.349 . S
C4224 C4236 1.349 . S
C4225 C4223 1.327 . S
C4225 C4241 1.429 . S
C4225 H4247 0.950 . S
C4226 H4222 0.949 . S
C4226 C4234 1.574 . S
C4226 C4242 1.368 . S
H4227 C4235 0.950 . S
H4228 C4233 0.950 . S
H4229 C4234 0.949 . S
H4230 C4236 0.950 . S
H4231 C4237 0.950 . S
H4232 C4238 0.949 . S
C4233 H4228 0.950 . S
C4233 C4235 1.327 . S
C4233 C4239 1.429 . S
C4234 C4226 1.574 . S
C4234 H4229 0.949 . S
C4234 C4240 1.368 . S
C4235 C4219 1.349 . S
C4235 H4227 0.950 . S
C4235 C4233 1.327 . S
C4236 C4224 1.349 . S
C4236 H4230 0.950 . S
C4236 C4237 1.327 . S
C4237 H4231 0.950 . S
C4237 C4236 1.327 . S
C4237 C4241 1.429 . S
C4238 C4221 1.574 . S
C4238 H4232 0.949 . S
C4238 C4242 1.368 . S
C4239 C4220 1.429 . S
C4239 C4233 1.429 . S
C4239 C4240 1.523 . S
C4240 C4221 1.368 . S
C4240 C4234 1.368 . S
C4240 C4239 1.523 . S
C4241 C4225 1.429 . S
C4241 C4237 1.429 . S
C4241 C4242 1.523 . S
C4242 C4226 1.368 . S
C4242 C4238 1.368 . S
C4242 C4241 1.523 . S
H4243 C4218 0.950 . S
H4244 C4220 0.950 . S
H4245 C4221 0.949 . S
H4246 C4223 0.950 . S
H4247 C4225 0.950 . S
C4248 C4249 1.349 . S
C4248 C4250 1.327 . S
C4248 H4273 0.950 . S
C4249 C4248 1.349 . S
C4249 C4265 1.349 . S
C4250 C4248 1.327 . S
C4250 C4269 1.429 . S
C4250 H4274 0.950 . S
C4251 C4268 1.574 . S
C4251 C4270 1.368 . S
C4251 H4275 0.949 . S
H4252 C4256 0.949 . S
C4253 C4254 1.349 . S
C4253 C4255 1.327 . S
C4253 H4276 0.950 . S
C4254 C4253 1.349 . S
C4254 C4266 1.349 . S
C4255 C4253 1.327 . S
C4255 C4271 1.429 . S
C4255 H4277 0.950 . S
C4256 H4252 0.949 . S
C4256 C4264 1.574 . S
C4256 C4272 1.368 . S
H4257 C4265 0.950 . S
H4258 C4263 0.950 . S
H4259 C4264 0.949 . S
H4260 C4266 0.950 . S
H4261 C4267 0.950 . S
H4262 C4268 0.949 . S
C4263 H4258 0.950 . S
C4263 C4265 1.327 . S
C4263 C4269 1.429 . S
C4264 C4256 1.574 . S
C4264 H4259 0.949 . S
C4264 C4270 1.368 . S
C4265 C4249 1.349 . S
C4265 H4257 0.950 . S
C4265 C4263 1.327 . S
C4266 C4254 1.349 . S
C4266 H4260 0.950 . S
C4266 C4267 1.327 . S
C4267 H4261 0.950 . S
C4267 C4266 1.327 . S
C4267 C4271 1.429 . S
C4268 C4251 1.574 . S
C4268 H4262 0.949 . S
C4268 C4272 1.368 . S
C4269 C4250 1.429 . S
C4269 C4263 1.429 . S
C4269 C4270 1.523 . S
C4270 C4251 1.368 . S
C4270 C4264 1.368 . S
C4270 C4269 1.523 . S
C4271 C4255 1.429 . S
C4271 C4267 1.429 . S
C4271 C4272 1.523 . S
C4272 C4256 1.368 . S
C4272 C4268 1.368 . S
C4272 C4271 1.523 . S
H4273 C4248 0.950 . S
H4274 C4250 0.950 . S
H4275 C4251 0.949 . S
H4276 C4253 0.950 . S
H4277 C4255 0.950 . S
C4278 C4279 1.349 . S
C4278 C4280 1.327 . S
C4278 H4303 0.950 . S
C4279 C4278 1.349 . S
C4279 C4295 1.349 . S
C4280 C4278 1.327 . S
C4280 C4299 1.429 . S
C4280 H4304 0.950 . S
C4281 C4298 1.574 . S
C4281 C4300 1.368 . S
C4281 H4305 0.949 . S
H4282 C4286 0.949 . S
C4283 C4284 1.349 . S
C4283 C4285 1.327 . S
C4283 H4306 0.950 . S
C4284 C4283 1.349 . S
C4284 C4296 1.349 . S
C4285 C4283 1.327 . S
C4285 C4301 1.429 . S
C4285 H4307 0.950 . S
C4286 H4282 0.949 . S
C4286 C4294 1.574 . S
C4286 C4302 1.368 . S
H4287 C4295 0.950 . S
H4288 C4293 0.950 . S
H4289 C4294 0.949 . S
H4290 C4296 0.950 . S
H4291 C4297 0.950 . S
H4292 C4298 0.949 . S
C4293 H4288 0.950 . S
C4293 C4295 1.327 . S
C4293 C4299 1.429 . S
C4294 C4286 1.574 . S
C4294 H4289 0.949 . S
C4294 C4300 1.368 . S
C4295 C4279 1.349 . S
C4295 H4287 0.950 . S
C4295 C4293 1.327 . S
C4296 C4284 1.349 . S
C4296 H4290 0.950 . S
C4296 C4297 1.327 . S
C4297 H4291 0.950 . S
C4297 C4296 1.327 . S
C4297 C4301 1.429 . S
C4298 C4281 1.574 . S
C4298 H4292 0.949 . S
C4298 C4302 1.368 . S
C4299 C4280 1.429 . S
C4299 C4293 1.429 . S
C4299 C4300 1.523 . S
C4300 C4281 1.368 . S
C4300 C4294 1.368 . S
C4300 C4299 1.523 . S
C4301 C4285 1.429 . S
C4301 C4297 1.429 . S
C4301 C4302 1.523 . S
C4302 C4286 1.368 . S
C4302 C4298 1.368 . S
C4302 C4301 1.523 . S
H4303 C4278 0.950 . S
H4304 C4280 0.950 . S
H4305 C4281 0.949 . S
H4306 C4283 0.950 . S
H4307 C4285 0.950 . S
C4308 C4309 1.349 . S
C4308 C4310 1.327 . S
C4308 H4333 0.950 . S
C4309 C4308 1.349 . S
C4309 C4325 1.349 . S
C4310 C4308 1.327 . S
C4310 C4329 1.429 . S
C4310 H4334 0.950 . S
C4311 C4328 1.574 . S
C4311 C4330 1.368 . S
C4311 H4335 0.949 . S
H4312 C4316 0.949 . S
C4313 C4314 1.349 . S
C4313 C4315 1.327 . S
C4313 H4336 0.950 . S
C4314 C4313 1.349 . S
C4314 C4326 1.349 . S
C4315 C4313 1.327 . S
C4315 C4331 1.429 . S
C4315 H4337 0.950 . S
C4316 H4312 0.949 . S
C4316 C4324 1.574 . S
C4316 C4332 1.368 . S
H4317 C4325 0.950 . S
H4318 C4323 0.950 . S
H4319 C4324 0.949 . S
H4320 C4326 0.950 . S
H4321 C4327 0.950 . S
H4322 C4328 0.949 . S
C4323 H4318 0.950 . S
C4323 C4325 1.327 . S
C4323 C4329 1.429 . S
C4324 C4316 1.574 . S
C4324 H4319 0.949 . S
C4324 C4330 1.368 . S
C4325 C4309 1.349 . S
C4325 H4317 0.950 . S
C4325 C4323 1.327 . S
C4326 C4314 1.349 . S
C4326 H4320 0.950 . S
C4326 C4327 1.327 . S
C4327 H4321 0.950 . S
C4327 C4326 1.327 . S
C4327 C4331 1.429 . S
C4328 C4311 1.574 . S
C4328 H4322 0.949 . S
C4328 C4332 1.368 . S
C4329 C4310 1.429 . S
C4329 C4323 1.429 . S
C4329 C4330 1.523 . S
C4330 C4311 1.368 . S
C4330 C4324 1.368 . S
C4330 C4329 1.523 . S
C4331 C4315 1.429 . S
C4331 C4327 1.429 . S
C4331 C4332 1.523 . S
C4332 C4316 1.368 . S
C4332 C4328 1.368 . S
C4332 C4331 1.523 . S
H4333 C4308 0.950 . S
H4334 C4310 0.950 . S
H4335 C4311 0.949 . S
H4336 C4313 0.950 . S
H4337 C4315 0.950 . S
C4338 C4339 1.349 . S
C4338 C4340 1.327 . S
C4338 H4363 0.950 . S
C4339 C4338 1.349 . S
C4339 C4355 1.349 . S
C4340 C4338 1.327 . S
C4340 C4359 1.429 . S
C4340 H4364 0.950 . S
C4341 C4358 1.574 . S
C4341 C4360 1.368 . S
C4341 H4365 0.949 . S
H4342 C4346 0.949 . S
C4343 C4344 1.349 . S
C4343 C4345 1.327 . S
C4343 H4366 0.950 . S
C4344 C4343 1.349 . S
C4344 C4356 1.349 . S
C4345 C4343 1.327 . S
C4345 C4361 1.429 . S
C4345 H4367 0.950 . S
C4346 H4342 0.949 . S
C4346 C4354 1.574 . S
C4346 C4362 1.368 . S
H4347 C4355 0.950 . S
H4348 C4353 0.950 . S
H4349 C4354 0.949 . S
H4350 C4356 0.950 . S
H4351 C4357 0.950 . S
H4352 C4358 0.949 . S
C4353 H4348 0.950 . S
C4353 C4355 1.327 . S
C4353 C4359 1.429 . S
C4354 C4346 1.574 . S
C4354 H4349 0.949 . S
C4354 C4360 1.368 . S
C4355 C4339 1.349 . S
C4355 H4347 0.950 . S
C4355 C4353 1.327 . S
C4356 C4344 1.349 . S
C4356 H4350 0.950 . S
C4356 C4357 1.327 . S
C4357 H4351 0.950 . S
C4357 C4356 1.327 . S
C4357 C4361 1.429 . S
C4358 C4341 1.574 . S
C4358 H4352 0.949 . S
C4358 C4362 1.368 . S
C4359 C4340 1.429 . S
C4359 C4353 1.429 . S
C4359 C4360 1.523 . S
C4360 C4341 1.368 . S
C4360 C4354 1.368 . S
C4360 C4359 1.523 . S
C4361 C4345 1.429 . S
C4361 C4357 1.429 . S
C4361 C4362 1.523 . S
C4362 C4346 1.368 . S
C4362 C4358 1.368 . S
C4362 C4361 1.523 . S
H4363 C4338 0.950 . S
H4364 C4340 0.950 . S
H4365 C4341 0.949 . S
H4366 C4343 0.950 . S
H4367 C4345 0.950 . S
C4368 C4369 1.349 . S
C4368 C4370 1.327 . S
C4368 H4393 0.950 . S
C4369 C4368 1.349 . S
C4369 C4385 1.349 . S
C4370 C4368 1.327 . S
C4370 C4389 1.429 . S
C4370 H4394 0.950 . S
C4371 C4388 1.574 . S
C4371 C4390 1.368 . S
C4371 H4395 0.949 . S
H4372 C4376 0.949 . S
C4373 C4374 1.349 . S
C4373 C4375 1.327 . S
C4373 H4396 0.950 . S
C4374 C4373 1.349 . S
C4374 C4386 1.349 . S
C4375 C4373 1.327 . S
C4375 C4391 1.429 . S
C4375 H4397 0.950 . S
C4376 H4372 0.949 . S
C4376 C4384 1.574 . S
C4376 C4392 1.368 . S
H4377 C4385 0.950 . S
H4378 C4383 0.950 . S
H4379 C4384 0.949 . S
H4380 C4386 0.950 . S
H4381 C4387 0.950 . S
H4382 C4388 0.949 . S
C4383 H4378 0.950 . S
C4383 C4385 1.327 . S
C4383 C4389 1.429 . S
C4384 C4376 1.574 . S
C4384 H4379 0.949 . S
C4384 C4390 1.368 . S
C4385 C4369 1.349 . S
C4385 H4377 0.950 . S
C4385 C4383 1.327 . S
C4386 C4374 1.349 . S
C4386 H4380 0.950 . S
C4386 C4387 1.327 . S
C4387 H4381 0.950 . S
C4387 C4386 1.327 . S
C4387 C4391 1.429 . S
C4388 C4371 1.574 . S
C4388 H4382 0.949 . S
C4388 C4392 1.368 . S
C4389 C4370 1.429 . S
C4389 C4383 1.429 . S
C4389 C4390 1.523 . S
C4390 C4371 1.368 . S
C4390 C4384 1.368 . S
C4390 C4389 1.523 . S
C4391 C4375 1.429 . S
C4391 C4387 1.429 . S
C4391 C4392 1.523 . S
C4392 C4376 1.368 . S
C4392 C4388 1.368 . S
C4392 C4391 1.523 . S
H4393 C4368 0.950 . S
H4394 C4370 0.950 . S
H4395 C4371 0.949 . S
H4396 C4373 0.950 . S
H4397 C4375 0.950 . S
C4398 C4399 1.349 . S
C4398 C4400 1.327 . S
C4398 H4423 0.950 . S
C4399 C4398 1.349 . S
C4399 C4415 1.349 . S
C4400 C4398 1.327 . S
C4400 C4419 1.429 . S
C4400 H4424 0.950 . S
C4401 C4418 1.574 . S
C4401 C4420 1.368 . S
C4401 H4425 0.949 . S
H4402 C4406 0.949 . S
C4403 C4404 1.349 . S
C4403 C4405 1.327 . S
C4403 H4426 0.950 . S
C4404 C4403 1.349 . S
C4404 C4416 1.349 . S
C4405 C4403 1.327 . S
C4405 C4421 1.429 . S
C4405 H4427 0.950 . S
C4406 H4402 0.949 . S
C4406 C4414 1.574 . S
C4406 C4422 1.368 . S
H4407 C4415 0.950 . S
H4408 C4413 0.950 . S
H4409 C4414 0.949 . S
H4410 C4416 0.950 . S
H4411 C4417 0.950 . S
H4412 C4418 0.949 . S
C4413 H4408 0.950 . S
C4413 C4415 1.327 . S
C4413 C4419 1.429 . S
C4414 C4406 1.574 . S
C4414 H4409 0.949 . S
C4414 C4420 1.368 . S
C4415 C4399 1.349 . S
C4415 H4407 0.950 . S
C4415 C4413 1.327 . S
C4416 C4404 1.349 . S
C4416 H4410 0.950 . S
C4416 C4417 1.327 . S
C4417 H4411 0.950 . S
C4417 C4416 1.327 . S
C4417 C4421 1.429 . S
C4418 C4401 1.574 . S
C4418 H4412 0.949 . S
C4418 C4422 1.368 . S
C4419 C4400 1.429 . S
C4419 C4413 1.429 . S
C4419 C4420 1.523 . S
C4420 C4401 1.368 . S
C4420 C4414 1.368 . S
C4420 C4419 1.523 . S
C4421 C4405 1.429 . S
C4421 C4417 1.429 . S
C4421 C4422 1.523 . S
C4422 C4406 1.368 . S
C4422 C4418 1.368 . S
C4422 C4421 1.523 . S
H4423 C4398 0.950 . S
H4424 C4400 0.950 . S
H4425 C4401 0.949 . S
H4426 C4403 0.950 . S
H4427 C4405 0.950 . S
C4428 C4429 1.349 . S
C4428 C4430 1.327 . S
C4428 H4453 0.950 . S
C4429 C4428 1.349 . S
C4429 C4445 1.349 . S
C4430 C4428 1.327 . S
C4430 C4449 1.429 . S
C4430 H4454 0.950 . S
C4431 C4448 1.574 . S
C4431 C4450 1.368 . S
C4431 H4455 0.949 . S
H4432 C4436 0.949 . S
C4433 C4434 1.349 . S
C4433 C4435 1.327 . S
C4433 H4456 0.950 . S
C4434 C4433 1.349 . S
C4434 C4446 1.349 . S
C4435 C4433 1.327 . S
C4435 C4451 1.429 . S
C4435 H4457 0.950 . S
C4436 H4432 0.949 . S
C4436 C4444 1.574 . S
C4436 C4452 1.368 . S
H4437 C4445 0.950 . S
H4438 C4443 0.950 . S
H4439 C4444 0.949 . S
H4440 C4446 0.950 . S
H4441 C4447 0.950 . S
H4442 C4448 0.949 . S
C4443 H4438 0.950 . S
C4443 C4445 1.327 . S
C4443 C4449 1.429 . S
C4444 C4436 1.574 . S
C4444 H4439 0.949 . S
C4444 C4450 1.368 . S
C4445 C4429 1.349 . S
C4445 H4437 0.950 . S
C4445 C4443 1.327 . S
C4446 C4434 1.349 . S
C4446 H4440 0.950 . S
C4446 C4447 1.327 . S
C4447 H4441 0.950 . S
C4447 C4446 1.327 . S
C4447 C4451 1.429 . S
C4448 C4431 1.574 . S
C4448 H4442 0.949 . S
C4448 C4452 1.368 . S
C4449 C4430 1.429 . S
C4449 C4443 1.429 . S
C4449 C4450 1.523 . S
C4450 C4431 1.368 . S
C4450 C4444 1.368 . S
C4450 C4449 1.523 . S
C4451 C4435 1.429 . S
C4451 C4447 1.429 . S
C4451 C4452 1.523 . S
C4452 C4436 1.368 . S
C4452 C4448 1.368 . S
C4452 C4451 1.523 . S
H4453 C4428 0.950 . S
H4454 C4430 0.950 . S
H4455 C4431 0.949 . S
H4456 C4433 0.950 . S
H4457 C4435 0.950 . S
C4458 C4459 1.349 . S
C4458 C4460 1.327 . S
C4458 H4483 0.950 . S
C4459 C4458 1.349 . S
C4459 C4475 1.349 . S
C4460 C4458 1.327 . S
C4460 C4479 1.429 . S
C4460 H4484 0.950 . S
C4461 C4478 1.574 . S
C4461 C4480 1.368 . S
C4461 H4485 0.949 . S
H4462 C4466 0.949 . S
C4463 C4464 1.349 . S
C4463 C4465 1.327 . S
C4463 H4486 0.950 . S
C4464 C4463 1.349 . S
C4464 C4476 1.349 . S
C4465 C4463 1.327 . S
C4465 C4481 1.429 . S
C4465 H4487 0.950 . S
C4466 H4462 0.949 . S
C4466 C4474 1.574 . S
C4466 C4482 1.368 . S
H4467 C4475 0.950 . S
H4468 C4473 0.950 . S
H4469 C4474 0.949 . S
H4470 C4476 0.950 . S
H4471 C4477 0.950 . S
H4472 C4478 0.949 . S
C4473 H4468 0.950 . S
C4473 C4475 1.327 . S
C4473 C4479 1.429 . S
C4474 C4466 1.574 . S
C4474 H4469 0.949 . S
C4474 C4480 1.368 . S
C4475 C4459 1.349 . S
C4475 H4467 0.950 . S
C4475 C4473 1.327 . S
C4476 C4464 1.349 . S
C4476 H4470 0.950 . S
C4476 C4477 1.327 . S
C4477 H4471 0.950 . S
C4477 C4476 1.327 . S
C4477 C4481 1.429 . S
C4478 C4461 1.574 . S
C4478 H4472 0.949 . S
C4478 C4482 1.368 . S
C4479 C4460 1.429 . S
C4479 C4473 1.429 . S
C4479 C4480 1.523 . S
C4480 C4461 1.368 . S
C4480 C4474 1.368 . S
C4480 C4479 1.523 . S
C4481 C4465 1.429 . S
C4481 C4477 1.429 . S
C4481 C4482 1.523 . S
C4482 C4466 1.368 . S
C4482 C4478 1.368 . S
C4482 C4481 1.523 . S
H4483 C4458 0.950 . S
H4484 C4460 0.950 . S
H4485 C4461 0.949 . S
H4486 C4463 0.950 . S
H4487 C4465 0.950 . S
C4488 C4489 1.349 . S
C4488 C4490 1.327 . S
C4488 H4513 0.950 . S
C4489 C4488 1.349 . S
C4489 C4505 1.349 . S
C4490 C4488 1.327 . S
C4490 C4509 1.429 . S
C4490 H4514 0.950 . S
C4491 C4508 1.574 . S
C4491 C4510 1.368 . S
C4491 H4515 0.949 . S
H4492 C4496 0.949 . S
C4493 C4494 1.349 . S
C4493 C4495 1.327 . S
C4493 H4516 0.950 . S
C4494 C4493 1.349 . S
C4494 C4506 1.349 . S
C4495 C4493 1.327 . S
C4495 C4511 1.429 . S
C4495 H4517 0.950 . S
C4496 H4492 0.949 . S
C4496 C4504 1.574 . S
C4496 C4512 1.368 . S
H4497 C4505 0.950 . S
H4498 C4503 0.950 . S
H4499 C4504 0.949 . S
H4500 C4506 0.950 . S
H4501 C4507 0.950 . S
H4502 C4508 0.949 . S
C4503 H4498 0.950 . S
C4503 C4505 1.327 . S
C4503 C4509 1.429 . S
C4504 C4496 1.574 . S
C4504 H4499 0.949 . S
C4504 C4510 1.368 . S
C4505 C4489 1.349 . S
C4505 H4497 0.950 . S
C4505 C4503 1.327 . S
C4506 C4494 1.349 . S
C4506 H4500 0.950 . S
C4506 C4507 1.327 . S
C4507 H4501 0.950 . S
C4507 C4506 1.327 . S
C4507 C4511 1.429 . S
C4508 C4491 1.574 . S
C4508 H4502 0.949 . S
C4508 C4512 1.368 . S
C4509 C4490 1.429 . S
C4509 C4503 1.429 . S
C4509 C4510 1.523 . S
C4510 C4491 1.368 . S
C4510 C4504 1.368 . S
C4510 C4509 1.523 . S
C4511 C4495 1.429 . S
C4511 C4507 1.429 . S
C4511 C4512 1.523 . S
C4512 C4496 1.368 . S
C4512 C4508 1.368 . S
C4512 C4511 1.523 . S
H4513 C4488 0.950 . S
H4514 C4490 0.950 . S
H4515 C4491 0.949 . S
H4516 C4493 0.950 . S
H4517 C4495 0.950 . S
C4518 C4519 1.349 . S
C4518 C4520 1.327 . S
C4518 H4543 0.950 . S
C4519 C4518 1.349 . S
C4519 C4535 1.349 . S
C4520 C4518 1.327 . S
C4520 C4539 1.429 . S
C4520 H4544 0.950 . S
C4521 C4538 1.574 . S
C4521 C4540 1.368 . S
C4521 H4545 0.949 . S
H4522 C4526 0.949 . S
C4523 C4524 1.349 . S
C4523 C4525 1.327 . S
C4523 H4546 0.950 . S
C4524 C4523 1.349 . S
C4524 C4536 1.349 . S
C4525 C4523 1.327 . S
C4525 C4541 1.429 . S
C4525 H4547 0.950 . S
C4526 H4522 0.949 . S
C4526 C4534 1.574 . S
C4526 C4542 1.368 . S
H4527 C4535 0.950 . S
H4528 C4533 0.950 . S
H4529 C4534 0.949 . S
H4530 C4536 0.950 . S
H4531 C4537 0.950 . S
H4532 C4538 0.949 . S
C4533 H4528 0.950 . S
C4533 C4535 1.327 . S
C4533 C4539 1.429 . S
C4534 C4526 1.574 . S
C4534 H4529 0.949 . S
C4534 C4540 1.368 . S
C4535 C4519 1.349 . S
C4535 H4527 0.950 . S
C4535 C4533 1.327 . S
C4536 C4524 1.349 . S
C4536 H4530 0.950 . S
C4536 C4537 1.327 . S
C4537 H4531 0.950 . S
C4537 C4536 1.327 . S
C4537 C4541 1.429 . S
C4538 C4521 1.574 . S
C4538 H4532 0.949 . S
C4538 C4542 1.368 . S
C4539 C4520 1.429 . S
C4539 C4533 1.429 . S
C4539 C4540 1.523 . S
C4540 C4521 1.368 . S
C4540 C4534 1.368 . S
C4540 C4539 1.523 . S
C4541 C4525 1.429 . S
C4541 C4537 1.429 . S
C4541 C4542 1.523 . S
C4542 C4526 1.368 . S
C4542 C4538 1.368 . S
C4542 C4541 1.523 . S
H4543 C4518 0.950 . S
H4544 C4520 0.950 . S
H4545 C4521 0.949 . S
H4546 C4523 0.950 . S
H4547 C4525 0.950 . S
C4548 C4549 1.349 . S
C4548 C4550 1.327 . S
C4548 H4573 0.950 . S
C4549 C4548 1.349 . S
C4549 C4565 1.349 . S
C4550 C4548 1.327 . S
C4550 C4569 1.429 . S
C4550 H4574 0.950 . S
C4551 C4568 1.574 . S
C4551 C4570 1.368 . S
C4551 H4575 0.949 . S
H4552 C4556 0.949 . S
C4553 C4554 1.349 . S
C4553 C4555 1.327 . S
C4553 H4576 0.950 . S
C4554 C4553 1.349 . S
C4554 C4566 1.349 . S
C4555 C4553 1.327 . S
C4555 C4571 1.429 . S
C4555 H4577 0.950 . S
C4556 H4552 0.949 . S
C4556 C4564 1.574 . S
C4556 C4572 1.368 . S
H4557 C4565 0.950 . S
H4558 C4563 0.950 . S
H4559 C4564 0.949 . S
H4560 C4566 0.950 . S
H4561 C4567 0.950 . S
H4562 C4568 0.949 . S
C4563 H4558 0.950 . S
C4563 C4565 1.327 . S
C4563 C4569 1.429 . S
C4564 C4556 1.574 . S
C4564 H4559 0.949 . S
C4564 C4570 1.368 . S
C4565 C4549 1.349 . S
C4565 H4557 0.950 . S
C4565 C4563 1.327 . S
C4566 C4554 1.349 . S
C4566 H4560 0.950 . S
C4566 C4567 1.327 . S
C4567 H4561 0.950 . S
C4567 C4566 1.327 . S
C4567 C4571 1.429 . S
C4568 C4551 1.574 . S
C4568 H4562 0.949 . S
C4568 C4572 1.368 . S
C4569 C4550 1.429 . S
C4569 C4563 1.429 . S
C4569 C4570 1.523 . S
C4570 C4551 1.368 . S
C4570 C4564 1.368 . S
C4570 C4569 1.523 . S
C4571 C4555 1.429 . S
C4571 C4567 1.429 . S
C4571 C4572 1.523 . S
C4572 C4556 1.368 . S
C4572 C4568 1.368 . S
C4572 C4571 1.523 . S
H4573 C4548 0.950 . S
H4574 C4550 0.950 . S
H4575 C4551 0.949 . S
H4576 C4553 0.950 . S
H4577 C4555 0.950 . S
C4578 C4579 1.349 . S
C4578 C4580 1.327 . S
C4578 H4603 0.950 . S
C4579 C4578 1.349 . S
C4579 C4595 1.349 . S
C4580 C4578 1.327 . S
C4580 C4599 1.429 . S
C4580 H4604 0.950 . S
C4581 C4598 1.574 . S
C4581 C4600 1.368 . S
C4581 H4605 0.949 . S
H4582 C4586 0.949 . S
C4583 C4584 1.349 . S
C4583 C4585 1.327 . S
C4583 H4606 0.950 . S
C4584 C4583 1.349 . S
C4584 C4596 1.349 . S
C4585 C4583 1.327 . S
C4585 C4601 1.429 . S
C4585 H4607 0.950 . S
C4586 H4582 0.949 . S
C4586 C4594 1.574 . S
C4586 C4602 1.368 . S
H4587 C4595 0.950 . S
H4588 C4593 0.950 . S
H4589 C4594 0.949 . S
H4590 C4596 0.950 . S
H4591 C4597 0.950 . S
H4592 C4598 0.949 . S
C4593 H4588 0.950 . S
C4593 C4595 1.327 . S
C4593 C4599 1.429 . S
C4594 C4586 1.574 . S
C4594 H4589 0.949 . S
C4594 C4600 1.368 . S
C4595 C4579 1.349 . S
C4595 H4587 0.950 . S
C4595 C4593 1.327 . S
C4596 C4584 1.349 . S
C4596 H4590 0.950 . S
C4596 C4597 1.327 . S
C4597 H4591 0.950 . S
C4597 C4596 1.327 . S
C4597 C4601 1.429 . S
C4598 C4581 1.574 . S
C4598 H4592 0.949 . S
C4598 C4602 1.368 . S
C4599 C4580 1.429 . S
C4599 C4593 1.429 . S
C4599 C4600 1.523 . S
C4600 C4581 1.368 . S
C4600 C4594 1.368 . S
C4600 C4599 1.523 . S
C4601 C4585 1.429 . S
C4601 C4597 1.429 . S
C4601 C4602 1.523 . S
C4602 C4586 1.368 . S
C4602 C4598 1.368 . S
C4602 C4601 1.523 . S
H4603 C4578 0.950 . S
H4604 C4580 0.950 . S
H4605 C4581 0.949 . S
H4606 C4583 0.950 . S
H4607 C4585 0.950 . S
C4608 C4609 1.349 1_546 S
C4608 C4610 1.327 . S
C4608 H4633 0.950 . S
C4609 C4608 1.349 1_564 S
C4609 C4625 1.349 . S
C4610 C4608 1.327 . S
C4610 C4629 1.429 1_545 S
C4610 H4634 0.950 . S
C4611 C4628 1.574 . S
C4611 C4630 1.368 . S
C4611 H4635 0.949 . S
H4612 C4616 0.949 . S
C4613 C4614 1.349 . S
C4613 C4615 1.327 . S
C4613 H4636 0.950 . S
C4614 C4613 1.349 . S
C4614 C4626 1.349 1_565 S
C4615 C4613 1.327 . S
C4615 C4631 1.429 . S
C4615 H4637 0.950 . S
C4616 H4612 0.949 . S
C4616 C4624 1.574 . S
C4616 C4632 1.368 1_545 S
H4617 C4625 0.950 . S
H4618 C4623 0.950 . S
H4619 C4624 0.949 . S
H4620 C4626 0.950 . S
H4621 C4627 0.950 . S
H4622 C4628 0.949 . S
C4623 H4618 0.950 . S
C4623 C4625 1.327 1_556 S
C4623 C4629 1.429 . S
C4624 C4616 1.574 . S
C4624 H4619 0.949 . S
C4624 C4630 1.368 1_545 S
C4625 C4609 1.349 . S
C4625 H4617 0.950 . S
C4625 C4623 1.327 1_554 S
C4626 C4614 1.349 1_545 S
C4626 H4620 0.950 . S
C4626 C4627 1.327 . S
C4627 H4621 0.950 . S
C4627 C4626 1.327 . S
C4627 C4631 1.429 1_545 S
C4628 C4611 1.574 . S
C4628 H4622 0.949 . S
C4628 C4632 1.368 . S
C4629 C4610 1.429 1_565 S
C4629 C4623 1.429 . S
C4629 C4630 1.523 . S
C4630 C4611 1.368 . S
C4630 C4624 1.368 1_565 S
C4630 C4629 1.523 . S
C4631 C4615 1.429 . S
C4631 C4627 1.429 1_565 S
C4631 C4632 1.523 . S
C4632 C4616 1.368 1_565 S
C4632 C4628 1.368 . S
C4632 C4631 1.523 . S
H4633 C4608 0.950 . S
H4634 C4610 0.950 . S
H4635 C4611 0.949 . S
H4636 C4613 0.950 . S
H4637 C4615 0.950 . S
C4638 C4639 1.349 . S
C4638 C4640 1.327 . S
C4638 H4663 0.950 . S
C4639 C4638 1.349 . S
C4639 C4655 1.349 . S
C4640 C4638 1.327 . S
C4640 C4659 1.429 . S
C4640 H4664 0.950 . S
C4641 C4658 1.574 . S
C4641 C4660 1.368 . S
C4641 H4665 0.949 . S
H4642 C4646 0.949 . S
C4643 C4644 1.349 1_455 S
C4643 C4645 1.327 1_554 S
C4643 H4666 0.950 . S
C4644 C4643 1.349 1_655 S
C4644 C4656 1.349 1_554 S
C4645 C4643 1.327 1_556 S
C4645 C4661 1.429 . S
C4645 H4667 0.950 . S
C4646 H4642 0.949 . S
C4646 C4654 1.574 . S
C4646 C4662 1.368 . S
H4647 C4655 0.950 . S
H4648 C4653 0.950 . S
H4649 C4654 0.949 . S
H4650 C4656 0.950 . S
H4651 C4657 0.950 . S
H4652 C4658 0.949 . S
C4653 H4648 0.950 . S
C4653 C4655 1.327 . S
C4653 C4659 1.429 . S
C4654 C4646 1.574 . S
C4654 H4649 0.949 . S
C4654 C4660 1.368 . S
C4655 C4639 1.349 . S
C4655 H4647 0.950 . S
C4655 C4653 1.327 . S
C4656 C4644 1.349 1_556 S
C4656 H4650 0.950 . S
C4656 C4657 1.327 . S
C4657 H4651 0.950 . S
C4657 C4656 1.327 . S
C4657 C4661 1.429 1_655 S
C4658 C4641 1.574 . S
C4658 H4652 0.949 . S
C4658 C4662 1.368 . S
C4659 C4640 1.429 . S
C4659 C4653 1.429 . S
C4659 C4660 1.523 . S
C4660 C4641 1.368 . S
C4660 C4654 1.368 . S
C4660 C4659 1.523 . S
C4661 C4645 1.429 . S
C4661 C4657 1.429 1_455 S
C4661 C4662 1.523 . S
C4662 C4646 1.368 . S
C4662 C4658 1.368 . S
C4662 C4661 1.523 . S
H4663 C4638 0.950 . S
H4664 C4640 0.950 . S
H4665 C4641 0.949 . S
H4666 C4643 0.950 . S
H4667 C4645 0.950 . S
C4668 C4669 1.349 . S
C4668 C4670 1.327 . S
C4668 H4693 0.950 . S
C4669 C4668 1.349 . S
C4669 C4685 1.349 . S
C4670 C4668 1.327 . S
C4670 C4689 1.429 . S
C4670 H4694 0.950 . S
C4671 C4688 1.574 . S
C4671 C4690 1.368 . S
C4671 H4695 0.949 . S
H4672 C4676 0.949 . S
C4673 C4674 1.349 . S
C4673 C4675 1.327 . S
C4673 H4696 0.950 . S
C4674 C4673 1.349 . S
C4674 C4686 1.349 . S
C4675 C4673 1.327 . S
C4675 C4691 1.429 . S
C4675 H4697 0.950 . S
C4676 H4672 0.949 . S
C4676 C4684 1.574 . S
C4676 C4692 1.368 . S
H4677 C4685 0.950 . S
H4678 C4683 0.950 . S
H4679 C4684 0.949 . S
H4680 C4686 0.950 . S
H4681 C4687 0.950 . S
H4682 C4688 0.949 . S
C4683 H4678 0.950 . S
C4683 C4685 1.327 . S
C4683 C4689 1.429 . S
C4684 C4676 1.574 . S
C4684 H4679 0.949 . S
C4684 C4690 1.368 . S
C4685 C4669 1.349 . S
C4685 H4677 0.950 . S
C4685 C4683 1.327 . S
C4686 C4674 1.349 . S
C4686 H4680 0.950 . S
C4686 C4687 1.327 . S
C4687 H4681 0.950 . S
C4687 C4686 1.327 . S
C4687 C4691 1.429 . S
C4688 C4671 1.574 . S
C4688 H4682 0.949 . S
C4688 C4692 1.368 . S
C4689 C4670 1.429 . S
C4689 C4683 1.429 . S
C4689 C4690 1.523 . S
C4690 C4671 1.368 . S
C4690 C4684 1.368 . S
C4690 C4689 1.523 . S
C4691 C4675 1.429 . S
C4691 C4687 1.429 . S
C4691 C4692 1.523 . S
C4692 C4676 1.368 . S
C4692 C4688 1.368 . S
C4692 C4691 1.523 . S
H4693 C4668 0.950 . S
H4694 C4670 0.950 . S
H4695 C4671 0.949 . S
H4696 C4673 0.950 . S
H4697 C4675 0.950 . S
C4698 C4699 1.349 1_545 S
C4698 C4700 1.327 . S
C4698 H4723 0.950 . S
C4699 C4698 1.349 1_565 S
C4699 C4715 1.349 1_655 S
C4700 C4698 1.327 . S
C4700 C4719 1.429 1_645 S
C4700 H4724 0.950 . S
C4701 C4718 1.574 . S
C4701 C4720 1.368 . S
C4701 H4725 0.949 . S
H4702 C4706 0.949 . S
C4703 C4704 1.349 . S
C4703 C4705 1.327 . S
C4703 H4726 0.950 . S
C4704 C4703 1.349 . S
C4704 C4716 1.349 1_565 S
C4705 C4703 1.327 . S
C4705 C4721 1.429 . S
C4705 H4727 0.950 . S
C4706 H4702 0.949 . S
C4706 C4714 1.574 . S
C4706 C4722 1.368 1_545 S
H4707 C4715 0.950 . S
H4708 C4713 0.950 . S
H4709 C4714 0.949 . S
H4710 C4716 0.950 . S
H4711 C4717 0.950 . S
H4712 C4718 0.949 . S
C4713 H4708 0.950 . S
C4713 C4715 1.327 . S
C4713 C4719 1.429 . S
C4714 C4706 1.574 . S
C4714 H4709 0.949 . S
C4714 C4720 1.368 1_545 S
C4715 C4699 1.349 1_455 S
C4715 H4707 0.950 . S
C4715 C4713 1.327 . S
C4716 C4704 1.349 1_545 S
C4716 H4710 0.950 . S
C4716 C4717 1.327 . S
C4717 H4711 0.950 . S
C4717 C4716 1.327 . S
C4717 C4721 1.429 1_545 S
C4718 C4701 1.574 . S
C4718 H4712 0.949 . S
C4718 C4722 1.368 . S
C4719 C4700 1.429 1_465 S
C4719 C4713 1.429 . S
C4719 C4720 1.523 . S
C4720 C4701 1.368 . S
C4720 C4714 1.368 1_565 S
C4720 C4719 1.523 . S
C4721 C4705 1.429 . S
C4721 C4717 1.429 1_565 S
C4721 C4722 1.523 . S
C4722 C4706 1.368 1_565 S
C4722 C4718 1.368 . S
C4722 C4721 1.523 . S
H4723 C4698 0.950 . S
H4724 C4700 0.950 . S
H4725 C4701 0.949 . S
H4726 C4703 0.950 . S
H4727 C4705 0.950 . S
C4728 C4729 1.349 1_565 S
C4728 C4730 1.327 . S
C4728 H4753 0.950 . S
C4729 C4728 1.349 1_545 S
C4729 C4745 1.349 . S
C4730 C4728 1.327 . S
C4730 C4749 1.429 1_565 S
C4730 H4754 0.950 . S
C4731 C4748 1.574 . S
C4731 C4750 1.368 . S
C4731 H4755 0.949 . S
H4732 C4736 0.949 . S
C4733 C4734 1.349 . S
C4733 C4735 1.327 1_556 S
C4733 H4756 0.950 . S
C4734 C4733 1.349 . S
C4734 C4746 1.349 1_546 S
C4735 C4733 1.327 1_554 S
C4735 C4751 1.429 . S
C4735 H4757 0.950 . S
C4736 H4732 0.949 . S
C4736 C4744 1.574 . S
C4736 C4752 1.368 1_565 S
H4737 C4745 0.950 . S
H4738 C4743 0.950 . S
H4739 C4744 0.949 . S
H4740 C4746 0.950 . S
H4741 C4747 0.950 . S
H4742 C4748 0.949 . S
C4743 H4738 0.950 . S
C4743 C4745 1.327 . S
C4743 C4749 1.429 . S
C4744 C4736 1.574 . S
C4744 H4739 0.949 . S
C4744 C4750 1.368 1_565 S
C4745 C4729 1.349 . S
C4745 H4737 0.950 . S
C4745 C4743 1.327 . S
C4746 C4734 1.349 1_564 S
C4746 H4740 0.950 . S
C4746 C4747 1.327 . S
C4747 H4741 0.950 . S
C4747 C4746 1.327 . S
C4747 C4751 1.429 1_565 S
C4748 C4731 1.574 . S
C4748 H4742 0.949 . S
C4748 C4752 1.368 . S
C4749 C4730 1.429 1_545 S
C4749 C4743 1.429 . S
C4749 C4750 1.523 . S
C4750 C4731 1.368 . S
C4750 C4744 1.368 1_545 S
C4750 C4749 1.523 . S
C4751 C4735 1.429 . S
C4751 C4747 1.429 1_545 S
C4751 C4752 1.523 . S
C4752 C4736 1.368 1_545 S
C4752 C4748 1.368 . S
C4752 C4751 1.523 . S
H4753 C4728 0.950 . S
H4754 C4730 0.950 . S
H4755 C4731 0.949 . S
H4756 C4733 0.950 . S
H4757 C4735 0.950 . S
C4758 C4759 1.349 1_655 S
C4758 C4760 1.327 1_556 S
C4758 H4783 0.950 . S
C4759 C4758 1.349 1_455 S
C4759 C4775 1.349 1_556 S
C4760 C4758 1.327 1_554 S
C4760 C4779 1.429 . S
C4760 H4784 0.950 . S
C4761 C4778 1.574 . S
C4761 C4780 1.368 . S
C4761 H4785 0.949 . S
H4762 C4766 0.949 . S
C4763 C4764 1.349 . S
C4763 C4765 1.327 . S
C4763 H4786 0.950 . S
C4764 C4763 1.349 . S
C4764 C4776 1.349 . S
C4765 C4763 1.327 . S
C4765 C4781 1.429 . S
C4765 H4787 0.950 . S
C4766 H4762 0.949 . S
C4766 C4774 1.574 . S
C4766 C4782 1.368 . S
H4767 C4775 0.950 . S
H4768 C4773 0.950 . S
H4769 C4774 0.949 . S
H4770 C4776 0.950 . S
H4771 C4777 0.950 . S
H4772 C4778 0.949 . S
C4773 H4768 0.950 . S
C4773 C4775 1.327 . S
C4773 C4779 1.429 1_455 S
C4774 C4766 1.574 . S
C4774 H4769 0.949 . S
C4774 C4780 1.368 . S
C4775 C4759 1.349 1_554 S
C4775 H4767 0.950 . S
C4775 C4773 1.327 . S
C4776 C4764 1.349 . S
C4776 H4770 0.950 . S
C4776 C4777 1.327 . S
C4777 H4771 0.950 . S
C4777 C4776 1.327 . S
C4777 C4781 1.429 . S
C4778 C4761 1.574 . S
C4778 H4772 0.949 . S
C4778 C4782 1.368 . S
C4779 C4760 1.429 . S
C4779 C4773 1.429 1_655 S
C4779 C4780 1.523 . S
C4780 C4761 1.368 . S
C4780 C4774 1.368 . S
C4780 C4779 1.523 . S
C4781 C4765 1.429 . S
C4781 C4777 1.429 . S
C4781 C4782 1.523 . S
C4782 C4766 1.368 . S
C4782 C4778 1.368 . S
C4782 C4781 1.523 . S
H4783 C4758 0.950 . S
H4784 C4760 0.950 . S
H4785 C4761 0.949 . S
H4786 C4763 0.950 . S
H4787 C4765 0.950 . S
C4788 C4789 1.349 . S
C4788 C4790 1.327 . S
C4788 H4813 0.950 . S
C4789 C4788 1.349 . S
C4789 C4805 1.349 . S
C4790 C4788 1.327 . S
C4790 C4809 1.429 . S
C4790 H4814 0.950 . S
C4791 C4808 1.574 . S
C4791 C4810 1.368 . S
C4791 H4815 0.949 . S
H4792 C4796 0.949 . S
C4793 C4794 1.349 . S
C4793 C4795 1.327 . S
C4793 H4816 0.950 . S
C4794 C4793 1.349 . S
C4794 C4806 1.349 . S
C4795 C4793 1.327 . S
C4795 C4811 1.429 . S
C4795 H4817 0.950 . S
C4796 H4792 0.949 . S
C4796 C4804 1.574 . S
C4796 C4812 1.368 . S
H4797 C4805 0.950 . S
H4798 C4803 0.950 . S
H4799 C4804 0.949 . S
H4800 C4806 0.950 . S
H4801 C4807 0.950 . S
H4802 C4808 0.949 . S
C4803 H4798 0.950 . S
C4803 C4805 1.327 . S
C4803 C4809 1.429 . S
C4804 C4796 1.574 . S
C4804 H4799 0.949 . S
C4804 C4810 1.368 . S
C4805 C4789 1.349 . S
C4805 H4797 0.950 . S
C4805 C4803 1.327 . S
C4806 C4794 1.349 . S
C4806 H4800 0.950 . S
C4806 C4807 1.327 . S
C4807 H4801 0.950 . S
C4807 C4806 1.327 . S
C4807 C4811 1.429 . S
C4808 C4791 1.574 . S
C4808 H4802 0.949 . S
C4808 C4812 1.368 . S
C4809 C4790 1.429 . S
C4809 C4803 1.429 . S
C4809 C4810 1.523 . S
C4810 C4791 1.368 . S
C4810 C4804 1.368 . S
C4810 C4809 1.523 . S
C4811 C4795 1.429 . S
C4811 C4807 1.429 . S
C4811 C4812 1.523 . S
C4812 C4796 1.368 . S
C4812 C4808 1.368 . S
C4812 C4811 1.523 . S
H4813 C4788 0.950 . S
H4814 C4790 0.950 . S
H4815 C4791 0.949 . S
H4816 C4793 0.950 . S
H4817 C4795 0.950 . S
C4818 C4819 1.349 . S
C4818 C4820 1.327 . S
C4818 H4843 0.950 . S
C4819 C4818 1.349 . S
C4819 C4835 1.349 1_545 S
C4820 C4818 1.327 . S
C4820 C4839 1.429 . S
C4820 H4844 0.950 . S
C4821 C4838 1.574 . S
C4821 C4840 1.368 1_565 S
C4821 H4845 0.949 . S
H4822 C4826 0.949 . S
C4823 C4824 1.349 1_565 S
C4823 C4825 1.327 . S
C4823 H4846 0.950 . S
C4824 C4823 1.349 1_545 S
C4824 C4836 1.349 1_455 S
C4825 C4823 1.327 . S
C4825 C4841 1.429 1_465 S
C4825 H4847 0.950 . S
C4826 H4822 0.949 . S
C4826 C4834 1.574 . S
C4826 C4842 1.368 . S
H4827 C4835 0.950 . S
H4828 C4833 0.950 . S
H4829 C4834 0.949 . S
H4830 C4836 0.950 . S
H4831 C4837 0.950 . S
H4832 C4838 0.949 . S
C4833 H4828 0.950 . S
C4833 C4835 1.327 . S
C4833 C4839 1.429 1_565 S
C4834 C4826 1.574 . S
C4834 H4829 0.949 . S
C4834 C4840 1.368 . S
C4835 C4819 1.349 1_565 S
C4835 H4827 0.950 . S
C4835 C4833 1.327 . S
C4836 C4824 1.349 1_655 S
C4836 H4830 0.950 . S
C4836 C4837 1.327 . S
C4837 H4831 0.950 . S
C4837 C4836 1.327 . S
C4837 C4841 1.429 . S
C4838 C4821 1.574 . S
C4838 H4832 0.949 . S
C4838 C4842 1.368 1_565 S
C4839 C4820 1.429 . S
C4839 C4833 1.429 1_545 S
C4839 C4840 1.523 . S
C4840 C4821 1.368 1_545 S
C4840 C4834 1.368 . S
C4840 C4839 1.523 . S
C4841 C4825 1.429 1_645 S
C4841 C4837 1.429 . S
C4841 C4842 1.523 . S
C4842 C4826 1.368 . S
C4842 C4838 1.368 1_545 S
C4842 C4841 1.523 . S
H4843 C4818 0.950 . S
H4844 C4820 0.950 . S
H4845 C4821 0.949 . S
H4846 C4823 0.950 . S
H4847 C4825 0.950 . S
C4848 C4849 1.349 . S
C4848 C4850 1.327 . S
C4848 H4873 0.950 . S
C4849 C4848 1.349 . S
C4849 C4865 1.349 . S
C4850 C4848 1.327 . S
C4850 C4869 1.429 . S
C4850 H4874 0.950 . S
C4851 C4868 1.574 . S
C4851 C4870 1.368 . S
C4851 H4875 0.949 . S
H4852 C4856 0.949 . S
C4853 C4854 1.349 . S
C4853 C4855 1.327 . S
C4853 H4876 0.950 . S
C4854 C4853 1.349 . S
C4854 C4866 1.349 . S
C4855 C4853 1.327 . S
C4855 C4871 1.429 . S
C4855 H4877 0.950 . S
C4856 H4852 0.949 . S
C4856 C4864 1.574 . S
C4856 C4872 1.368 . S
H4857 C4865 0.950 . S
H4858 C4863 0.950 . S
H4859 C4864 0.949 . S
H4860 C4866 0.950 . S
H4861 C4867 0.950 . S
H4862 C4868 0.949 . S
C4863 H4858 0.950 . S
C4863 C4865 1.327 . S
C4863 C4869 1.429 . S
C4864 C4856 1.574 . S
C4864 H4859 0.949 . S
C4864 C4870 1.368 . S
C4865 C4849 1.349 . S
C4865 H4857 0.950 . S
C4865 C4863 1.327 . S
C4866 C4854 1.349 . S
C4866 H4860 0.950 . S
C4866 C4867 1.327 . S
C4867 H4861 0.950 . S
C4867 C4866 1.327 . S
C4867 C4871 1.429 . S
C4868 C4851 1.574 . S
C4868 H4862 0.949 . S
C4868 C4872 1.368 . S
C4869 C4850 1.429 . S
C4869 C4863 1.429 . S
C4869 C4870 1.523 . S
C4870 C4851 1.368 . S
C4870 C4864 1.368 . S
C4870 C4869 1.523 . S
C4871 C4855 1.429 . S
C4871 C4867 1.429 . S
C4871 C4872 1.523 . S
C4872 C4856 1.368 . S
C4872 C4868 1.368 . S
C4872 C4871 1.523 . S
H4873 C4848 0.950 . S
H4874 C4850 0.950 . S
H4875 C4851 0.949 . S
H4876 C4853 0.950 . S
H4877 C4855 0.950 . S
C4878 C4879 1.349 . S
C4878 C4880 1.327 . S
C4878 H4903 0.950 . S
C4879 C4878 1.349 . S
C4879 C4895 1.349 . S
C4880 C4878 1.327 . S
C4880 C4899 1.429 . S
C4880 H4904 0.950 . S
C4881 C4898 1.574 . S
C4881 C4900 1.368 . S
C4881 H4905 0.949 . S
H4882 C4886 0.949 . S
C4883 C4884 1.349 1_455 S
C4883 C4885 1.327 . S
C4883 H4906 0.950 . S
C4884 C4883 1.349 1_655 S
C4884 C4896 1.349 . S
C4885 C4883 1.327 . S
C4885 C4901 1.429 . S
C4885 H4907 0.950 . S
C4886 H4882 0.949 . S
C4886 C4894 1.574 . S
C4886 C4902 1.368 . S
H4887 C4895 0.950 . S
H4888 C4893 0.950 . S
H4889 C4894 0.949 . S
H4890 C4896 0.950 . S
H4891 C4897 0.950 . S
H4892 C4898 0.949 . S
C4893 H4888 0.950 . S
C4893 C4895 1.327 . S
C4893 C4899 1.429 . S
C4894 C4886 1.574 . S
C4894 H4889 0.949 . S
C4894 C4900 1.368 . S
C4895 C4879 1.349 . S
C4895 H4887 0.950 . S
C4895 C4893 1.327 . S
C4896 C4884 1.349 . S
C4896 H4890 0.950 . S
C4896 C4897 1.327 . S
C4897 H4891 0.950 . S
C4897 C4896 1.327 . S
C4897 C4901 1.429 1_655 S
C4898 C4881 1.574 . S
C4898 H4892 0.949 . S
C4898 C4902 1.368 . S
C4899 C4880 1.429 . S
C4899 C4893 1.429 . S
C4899 C4900 1.523 . S
C4900 C4881 1.368 . S
C4900 C4894 1.368 . S
C4900 C4899 1.523 . S
C4901 C4885 1.429 . S
C4901 C4897 1.429 1_455 S
C4901 C4902 1.523 . S
C4902 C4886 1.368 . S
C4902 C4898 1.368 . S
C4902 C4901 1.523 . S
H4903 C4878 0.950 . S
H4904 C4880 0.950 . S
H4905 C4881 0.949 . S
H4906 C4883 0.950 . S
H4907 C4885 0.950 . S
C4908 C4909 1.349 . S
C4908 C4910 1.327 . S
C4908 H4933 0.950 . S
C4909 C4908 1.349 . S
C4909 C4925 1.349 . S
C4910 C4908 1.327 . S
C4910 C4929 1.429 . S
C4910 H4934 0.950 . S
C4911 C4928 1.574 . S
C4911 C4930 1.368 . S
C4911 H4935 0.949 . S
H4912 C4916 0.949 . S
C4913 C4914 1.349 . S
C4913 C4915 1.327 . S
C4913 H4936 0.950 . S
C4914 C4913 1.349 . S
C4914 C4926 1.349 . S
C4915 C4913 1.327 . S
C4915 C4931 1.429 . S
C4915 H4937 0.950 . S
C4916 H4912 0.949 . S
C4916 C4924 1.574 . S
C4916 C4932 1.368 . S
H4917 C4925 0.950 . S
H4918 C4923 0.950 . S
H4919 C4924 0.949 . S
H4920 C4926 0.950 . S
H4921 C4927 0.950 . S
H4922 C4928 0.949 . S
C4923 H4918 0.950 . S
C4923 C4925 1.327 . S
C4923 C4929 1.429 . S
C4924 C4916 1.574 . S
C4924 H4919 0.949 . S
C4924 C4930 1.368 . S
C4925 C4909 1.349 . S
C4925 H4917 0.950 . S
C4925 C4923 1.327 . S
C4926 C4914 1.349 . S
C4926 H4920 0.950 . S
C4926 C4927 1.327 . S
C4927 H4921 0.950 . S
C4927 C4926 1.327 . S
C4927 C4931 1.429 . S
C4928 C4911 1.574 . S
C4928 H4922 0.949 . S
C4928 C4932 1.368 . S
C4929 C4910 1.429 . S
C4929 C4923 1.429 . S
C4929 C4930 1.523 . S
C4930 C4911 1.368 . S
C4930 C4924 1.368 . S
C4930 C4929 1.523 . S
C4931 C4915 1.429 . S
C4931 C4927 1.429 . S
C4931 C4932 1.523 . S
C4932 C4916 1.368 . S
C4932 C4928 1.368 . S
C4932 C4931 1.523 . S
H4933 C4908 0.950 . S
H4934 C4910 0.950 . S
H4935 C4911 0.949 . S
H4936 C4913 0.950 . S
H4937 C4915 0.950 . S
C4938 C4939 1.349 . S
C4938 C4940 1.327 . S
C4938 H4963 0.950 . S
C4939 C4938 1.349 . S
C4939 C4955 1.349 . S
C4940 C4938 1.327 . S
C4940 C4959 1.429 . S
C4940 H4964 0.950 . S
C4941 C4958 1.574 . S
C4941 C4960 1.368 . S
C4941 H4965 0.949 . S
H4942 C4946 0.949 . S
C4943 C4944 1.349 1_455 S
C4943 C4945 1.327 . S
C4943 H4966 0.950 . S
C4944 C4943 1.349 1_655 S
C4944 C4956 1.349 . S
C4945 C4943 1.327 . S
C4945 C4961 1.429 . S
C4945 H4967 0.950 . S
C4946 H4942 0.949 . S
C4946 C4954 1.574 . S
C4946 C4962 1.368 . S
H4947 C4955 0.950 . S
H4948 C4953 0.950 . S
H4949 C4954 0.949 . S
H4950 C4956 0.950 . S
H4951 C4957 0.950 . S
H4952 C4958 0.949 . S
C4953 H4948 0.950 . S
C4953 C4955 1.327 . S
C4953 C4959 1.429 . S
C4954 C4946 1.574 . S
C4954 H4949 0.949 . S
C4954 C4960 1.368 . S
C4955 C4939 1.349 . S
C4955 H4947 0.950 . S
C4955 C4953 1.327 . S
C4956 C4944 1.349 . S
C4956 H4950 0.950 . S
C4956 C4957 1.327 . S
C4957 H4951 0.950 . S
C4957 C4956 1.327 . S
C4957 C4961 1.429 1_655 S
C4958 C4941 1.574 . S
C4958 H4952 0.949 . S
C4958 C4962 1.368 . S
C4959 C4940 1.429 . S
C4959 C4953 1.429 . S
C4959 C4960 1.523 . S
C4960 C4941 1.368 . S
C4960 C4954 1.368 . S
C4960 C4959 1.523 . S
C4961 C4945 1.429 . S
C4961 C4957 1.429 1_455 S
C4961 C4962 1.523 . S
C4962 C4946 1.368 . S
C4962 C4958 1.368 . S
C4962 C4961 1.523 . S
H4963 C4938 0.950 . S
H4964 C4940 0.950 . S
H4965 C4941 0.949 . S
H4966 C4943 0.950 . S
H4967 C4945 0.950 . S
C4968 C4969 1.349 . S
C4968 C4970 1.327 . S
C4968 H4993 0.950 . S
C4969 C4968 1.349 . S
C4969 C4985 1.349 . S
C4970 C4968 1.327 . S
C4970 C4989 1.429 . S
C4970 H4994 0.950 . S
C4971 C4988 1.574 . S
C4971 C4990 1.368 . S
C4971 H4995 0.949 . S
H4972 C4976 0.949 . S
C4973 C4974 1.349 . S
C4973 C4975 1.327 . S
C4973 H4996 0.950 . S
C4974 C4973 1.349 . S
C4974 C4986 1.349 . S
C4975 C4973 1.327 . S
C4975 C4991 1.429 . S
C4975 H4997 0.950 . S
C4976 H4972 0.949 . S
C4976 C4984 1.574 . S
C4976 C4992 1.368 . S
H4977 C4985 0.950 . S
H4978 C4983 0.950 . S
H4979 C4984 0.949 . S
H4980 C4986 0.950 . S
H4981 C4987 0.950 . S
H4982 C4988 0.949 . S
C4983 H4978 0.950 . S
C4983 C4985 1.327 . S
C4983 C4989 1.429 . S
C4984 C4976 1.574 . S
C4984 H4979 0.949 . S
C4984 C4990 1.368 . S
C4985 C4969 1.349 . S
C4985 H4977 0.950 . S
C4985 C4983 1.327 . S
C4986 C4974 1.349 . S
C4986 H4980 0.950 . S
C4986 C4987 1.327 . S
C4987 H4981 0.950 . S
C4987 C4986 1.327 . S
C4987 C4991 1.429 . S
C4988 C4971 1.574 . S
C4988 H4982 0.949 . S
C4988 C4992 1.368 . S
C4989 C4970 1.429 . S
C4989 C4983 1.429 . S
C4989 C4990 1.523 . S
C4990 C4971 1.368 . S
C4990 C4984 1.368 . S
C4990 C4989 1.523 . S
C4991 C4975 1.429 . S
C4991 C4987 1.429 . S
C4991 C4992 1.523 . S
C4992 C4976 1.368 . S
C4992 C4988 1.368 . S
C4992 C4991 1.523 . S
H4993 C4968 0.950 . S
H4994 C4970 0.950 . S
H4995 C4971 0.949 . S
H4996 C4973 0.950 . S
H4997 C4975 0.950 . S
C4998 C4999 1.349 . S
C4998 C5000 1.327 . S
C4998 H5023 0.950 . S
C4999 C4998 1.349 . S
C4999 C5015 1.349 1_455 S
C5000 C4998 1.327 . S
C5000 C5019 1.429 1_455 S
C5000 H5024 0.950 . S
C5001 C5018 1.574 . S
C5001 C5020 1.368 . S
C5001 H5025 0.949 . S
H5002 C5006 0.949 . S
C5003 C5004 1.349 . S
C5003 C5005 1.327 . S
C5003 H5026 0.950 . S
C5004 C5003 1.349 . S
C5004 C5016 1.349 . S
C5005 C5003 1.327 . S
C5005 C5021 1.429 . S
C5005 H5027 0.950 . S
C5006 H5002 0.949 . S
C5006 C5014 1.574 . S
C5006 C5022 1.368 . S
H5007 C5015 0.950 . S
H5008 C5013 0.950 . S
H5009 C5014 0.949 . S
H5010 C5016 0.950 . S
H5011 C5017 0.950 . S
H5012 C5018 0.949 . S
C5013 H5008 0.950 . S
C5013 C5015 1.327 . S
C5013 C5019 1.429 . S
C5014 C5006 1.574 . S
C5014 H5009 0.949 . S
C5014 C5020 1.368 . S
C5015 C4999 1.349 1_655 S
C5015 H5007 0.950 . S
C5015 C5013 1.327 . S
C5016 C5004 1.349 . S
C5016 H5010 0.950 . S
C5016 C5017 1.327 . S
C5017 H5011 0.950 . S
C5017 C5016 1.327 . S
C5017 C5021 1.429 . S
C5018 C5001 1.574 . S
C5018 H5012 0.949 . S
C5018 C5022 1.368 . S
C5019 C5000 1.429 1_655 S
C5019 C5013 1.429 . S
C5019 C5020 1.523 . S
C5020 C5001 1.368 . S
C5020 C5014 1.368 . S
C5020 C5019 1.523 . S
C5021 C5005 1.429 . S
C5021 C5017 1.429 . S
C5021 C5022 1.523 . S
C5022 C5006 1.368 . S
C5022 C5018 1.368 . S
C5022 C5021 1.523 . S
H5023 C4998 0.950 . S
H5024 C5000 0.950 . S
H5025 C5001 0.949 . S
H5026 C5003 0.950 . S
H5027 C5005 0.950 . S
C5028 C5029 1.349 . S
C5028 C5030 1.327 . S
C5028 H5053 0.950 . S
C5029 C5028 1.349 . S
C5029 C5045 1.349 . S
C5030 C5028 1.327 . S
C5030 C5049 1.429 . S
C5030 H5054 0.950 . S
C5031 C5048 1.574 . S
C5031 C5050 1.368 . S
C5031 H5055 0.949 . S
H5032 C5036 0.949 . S
C5033 C5034 1.349 . S
C5033 C5035 1.327 . S
C5033 H5056 0.950 . S
C5034 C5033 1.349 . S
C5034 C5046 1.349 . S
C5035 C5033 1.327 . S
C5035 C5051 1.429 . S
C5035 H5057 0.950 . S
C5036 H5032 0.949 . S
C5036 C5044 1.574 . S
C5036 C5052 1.368 . S
H5037 C5045 0.950 . S
H5038 C5043 0.950 . S
H5039 C5044 0.949 . S
H5040 C5046 0.950 . S
H5041 C5047 0.950 . S
H5042 C5048 0.949 . S
C5043 H5038 0.950 . S
C5043 C5045 1.327 . S
C5043 C5049 1.429 . S
C5044 C5036 1.574 . S
C5044 H5039 0.949 . S
C5044 C5050 1.368 . S
C5045 C5029 1.349 . S
C5045 H5037 0.950 . S
C5045 C5043 1.327 . S
C5046 C5034 1.349 . S
C5046 H5040 0.950 . S
C5046 C5047 1.327 . S
C5047 H5041 0.950 . S
C5047 C5046 1.327 . S
C5047 C5051 1.429 . S
C5048 C5031 1.574 . S
C5048 H5042 0.949 . S
C5048 C5052 1.368 . S
C5049 C5030 1.429 . S
C5049 C5043 1.429 . S
C5049 C5050 1.523 . S
C5050 C5031 1.368 . S
C5050 C5044 1.368 . S
C5050 C5049 1.523 . S
C5051 C5035 1.429 . S
C5051 C5047 1.429 . S
C5051 C5052 1.523 . S
C5052 C5036 1.368 . S
C5052 C5048 1.368 . S
C5052 C5051 1.523 . S
H5053 C5028 0.950 . S
H5054 C5030 0.950 . S
H5055 C5031 0.949 . S
H5056 C5033 0.950 . S
H5057 C5035 0.950 . S
C5058 C5059 1.349 . S
C5058 C5060 1.327 . S
C5058 H5083 0.950 . S
C5059 C5058 1.349 . S
C5059 C5075 1.349 . S
C5060 C5058 1.327 . S
C5060 C5079 1.429 . S
C5060 H5084 0.950 . S
C5061 C5078 1.574 . S
C5061 C5080 1.368 . S
C5061 H5085 0.949 . S
H5062 C5066 0.949 . S
C5063 C5064 1.349 . S
C5063 C5065 1.327 . S
C5063 H5086 0.950 . S
C5064 C5063 1.349 . S
C5064 C5076 1.349 1_455 S
C5065 C5063 1.327 . S
C5065 C5081 1.429 1_455 S
C5065 H5087 0.950 . S
C5066 H5062 0.949 . S
C5066 C5074 1.574 . S
C5066 C5082 1.368 . S
H5067 C5075 0.950 . S
H5068 C5073 0.950 . S
H5069 C5074 0.949 . S
H5070 C5076 0.950 . S
H5071 C5077 0.950 . S
H5072 C5078 0.949 . S
C5073 H5068 0.950 . S
C5073 C5075 1.327 . S
C5073 C5079 1.429 . S
C5074 C5066 1.574 . S
C5074 H5069 0.949 . S
C5074 C5080 1.368 . S
C5075 C5059 1.349 . S
C5075 H5067 0.950 . S
C5075 C5073 1.327 . S
C5076 C5064 1.349 1_655 S
C5076 H5070 0.950 . S
C5076 C5077 1.327 . S
C5077 H5071 0.950 . S
C5077 C5076 1.327 . S
C5077 C5081 1.429 . S
C5078 C5061 1.574 . S
C5078 H5072 0.949 . S
C5078 C5082 1.368 . S
C5079 C5060 1.429 . S
C5079 C5073 1.429 . S
C5079 C5080 1.523 . S
C5080 C5061 1.368 . S
C5080 C5074 1.368 . S
C5080 C5079 1.523 . S
C5081 C5065 1.429 1_655 S
C5081 C5077 1.429 . S
C5081 C5082 1.523 . S
C5082 C5066 1.368 . S
C5082 C5078 1.368 . S
C5082 C5081 1.523 . S
H5083 C5058 0.950 . S
H5084 C5060 0.950 . S
H5085 C5061 0.949 . S
H5086 C5063 0.950 . S
H5087 C5065 0.950 . S
C5088 C5089 1.349 . S
C5088 C5090 1.327 . S
C5088 H5113 0.950 . S
C5089 C5088 1.349 . S
C5089 C5105 1.349 1_565 S
C5090 C5088 1.327 . S
C5090 C5109 1.429 . S
C5090 H5114 0.950 . S
C5091 C5108 1.574 . S
C5091 C5110 1.368 1_545 S
C5091 H5115 0.949 . S
H5092 C5096 0.949 . S
C5093 C5094 1.349 1_545 S
C5093 C5095 1.327 . S
C5093 H5116 0.950 . S
C5094 C5093 1.349 1_565 S
C5094 C5106 1.349 . S
C5095 C5093 1.327 . S
C5095 C5111 1.429 1_545 S
C5095 H5117 0.950 . S
C5096 H5092 0.949 . S
C5096 C5104 1.574 . S
C5096 C5112 1.368 . S
H5097 C5105 0.950 . S
H5098 C5103 0.950 . S
H5099 C5104 0.949 . S
H5100 C5106 0.950 . S
H5101 C5107 0.950 . S
H5102 C5108 0.949 . S
C5103 H5098 0.950 . S
C5103 C5105 1.327 . S
C5103 C5109 1.429 1_545 S
C5104 C5096 1.574 . S
C5104 H5099 0.949 . S
C5104 C5110 1.368 . S
C5105 C5089 1.349 1_545 S
C5105 H5097 0.950 . S
C5105 C5103 1.327 . S
C5106 C5094 1.349 . S
C5106 H5100 0.950 . S
C5106 C5107 1.327 . S
C5107 H5101 0.950 . S
C5107 C5106 1.327 . S
C5107 C5111 1.429 . S
C5108 C5091 1.574 . S
C5108 H5102 0.949 . S
C5108 C5112 1.368 1_545 S
C5109 C5090 1.429 . S
C5109 C5103 1.429 1_565 S
C5109 C5110 1.523 . S
C5110 C5091 1.368 1_565 S
C5110 C5104 1.368 . S
C5110 C5109 1.523 . S
C5111 C5095 1.429 1_565 S
C5111 C5107 1.429 . S
C5111 C5112 1.523 . S
C5112 C5096 1.368 . S
C5112 C5108 1.368 1_565 S
C5112 C5111 1.523 . S
H5113 C5088 0.950 . S
H5114 C5090 0.950 . S
H5115 C5091 0.949 . S
H5116 C5093 0.950 . S
H5117 C5095 0.950 . S
C5118 C5119 1.349 . S
C5118 C5120 1.327 . S
C5118 H5143 0.950 . S
C5119 C5118 1.349 . S
C5119 C5135 1.349 . S
C5120 C5118 1.327 . S
C5120 C5139 1.429 . S
C5120 H5144 0.950 . S
C5121 C5138 1.574 . S
C5121 C5140 1.368 . S
C5121 H5145 0.949 . S
H5122 C5126 0.949 . S
C5123 C5124 1.349 . S
C5123 C5125 1.327 . S
C5123 H5146 0.950 . S
C5124 C5123 1.349 . S
C5124 C5136 1.349 . S
C5125 C5123 1.327 . S
C5125 C5141 1.429 . S
C5125 H5147 0.950 . S
C5126 H5122 0.949 . S
C5126 C5134 1.574 . S
C5126 C5142 1.368 . S
H5127 C5135 0.950 . S
H5128 C5133 0.950 . S
H5129 C5134 0.949 . S
H5130 C5136 0.950 . S
H5131 C5137 0.950 . S
H5132 C5138 0.949 . S
C5133 H5128 0.950 . S
C5133 C5135 1.327 . S
C5133 C5139 1.429 . S
C5134 C5126 1.574 . S
C5134 H5129 0.949 . S
C5134 C5140 1.368 . S
C5135 C5119 1.349 . S
C5135 H5127 0.950 . S
C5135 C5133 1.327 . S
C5136 C5124 1.349 . S
C5136 H5130 0.950 . S
C5136 C5137 1.327 . S
C5137 H5131 0.950 . S
C5137 C5136 1.327 . S
C5137 C5141 1.429 . S
C5138 C5121 1.574 . S
C5138 H5132 0.949 . S
C5138 C5142 1.368 . S
C5139 C5120 1.429 . S
C5139 C5133 1.429 . S
C5139 C5140 1.523 . S
C5140 C5121 1.368 . S
C5140 C5134 1.368 . S
C5140 C5139 1.523 . S
C5141 C5125 1.429 . S
C5141 C5137 1.429 . S
C5141 C5142 1.523 . S
C5142 C5126 1.368 . S
C5142 C5138 1.368 . S
C5142 C5141 1.523 . S
H5143 C5118 0.950 . S
H5144 C5120 0.950 . S
H5145 C5121 0.949 . S
H5146 C5123 0.950 . S
H5147 C5125 0.950 . S
C5148 C5149 1.349 . S
C5148 C5150 1.327 . S
C5148 H5173 0.950 . S
C5149 C5148 1.349 . S
C5149 C5165 1.349 . S
C5150 C5148 1.327 . S
C5150 C5169 1.429 . S
C5150 H5174 0.950 . S
C5151 C5168 1.574 . S
C5151 C5170 1.368 . S
C5151 H5175 0.949 . S
H5152 C5156 0.949 . S
C5153 C5154 1.349 . S
C5153 C5155 1.327 . S
C5153 H5176 0.950 . S
C5154 C5153 1.349 . S
C5154 C5166 1.349 . S
C5155 C5153 1.327 . S
C5155 C5171 1.429 . S
C5155 H5177 0.950 . S
C5156 H5152 0.949 . S
C5156 C5164 1.574 . S
C5156 C5172 1.368 . S
H5157 C5165 0.950 . S
H5158 C5163 0.950 . S
H5159 C5164 0.949 . S
H5160 C5166 0.950 . S
H5161 C5167 0.950 . S
H5162 C5168 0.949 . S
C5163 H5158 0.950 . S
C5163 C5165 1.327 . S
C5163 C5169 1.429 . S
C5164 C5156 1.574 . S
C5164 H5159 0.949 . S
C5164 C5170 1.368 . S
C5165 C5149 1.349 . S
C5165 H5157 0.950 . S
C5165 C5163 1.327 . S
C5166 C5154 1.349 . S
C5166 H5160 0.950 . S
C5166 C5167 1.327 . S
C5167 H5161 0.950 . S
C5167 C5166 1.327 . S
C5167 C5171 1.429 . S
C5168 C5151 1.574 . S
C5168 H5162 0.949 . S
C5168 C5172 1.368 . S
C5169 C5150 1.429 . S
C5169 C5163 1.429 . S
C5169 C5170 1.523 . S
C5170 C5151 1.368 . S
C5170 C5164 1.368 . S
C5170 C5169 1.523 . S
C5171 C5155 1.429 . S
C5171 C5167 1.429 . S
C5171 C5172 1.523 . S
C5172 C5156 1.368 . S
C5172 C5168 1.368 . S
C5172 C5171 1.523 . S
H5173 C5148 0.950 . S
H5174 C5150 0.950 . S
H5175 C5151 0.949 . S
H5176 C5153 0.950 . S
H5177 C5155 0.950 . S
C5178 C5179 1.349 1_545 S
C5178 C5180 1.327 . S
C5178 H5203 0.950 . S
C5179 C5178 1.349 1_565 S
C5179 C5195 1.349 . S
C5180 C5178 1.327 . S
C5180 C5199 1.429 1_545 S
C5180 H5204 0.950 . S
C5181 C5198 1.574 . S
C5181 C5200 1.368 . S
C5181 H5205 0.949 . S
H5182 C5186 0.949 . S
C5183 C5184 1.349 . S
C5183 C5185 1.327 . S
C5183 H5206 0.950 . S
C5184 C5183 1.349 . S
C5184 C5196 1.349 1_565 S
C5185 C5183 1.327 . S
C5185 C5201 1.429 . S
C5185 H5207 0.950 . S
C5186 H5182 0.949 . S
C5186 C5194 1.574 . S
C5186 C5202 1.368 1_545 S
H5187 C5195 0.950 . S
H5188 C5193 0.950 . S
H5189 C5194 0.949 . S
H5190 C5196 0.950 . S
H5191 C5197 0.950 . S
H5192 C5198 0.949 . S
C5193 H5188 0.950 . S
C5193 C5195 1.327 . S
C5193 C5199 1.429 . S
C5194 C5186 1.574 . S
C5194 H5189 0.949 . S
C5194 C5200 1.368 1_545 S
C5195 C5179 1.349 . S
C5195 H5187 0.950 . S
C5195 C5193 1.327 . S
C5196 C5184 1.349 1_545 S
C5196 H5190 0.950 . S
C5196 C5197 1.327 . S
C5197 H5191 0.950 . S
C5197 C5196 1.327 . S
C5197 C5201 1.429 1_545 S
C5198 C5181 1.574 . S
C5198 H5192 0.949 . S
C5198 C5202 1.368 . S
C5199 C5180 1.429 1_565 S
C5199 C5193 1.429 . S
C5199 C5200 1.523 . S
C5200 C5181 1.368 . S
C5200 C5194 1.368 1_565 S
C5200 C5199 1.523 . S
C5201 C5185 1.429 . S
C5201 C5197 1.429 1_565 S
C5201 C5202 1.523 . S
C5202 C5186 1.368 1_565 S
C5202 C5198 1.368 . S
C5202 C5201 1.523 . S
H5203 C5178 0.950 . S
H5204 C5180 0.950 . S
H5205 C5181 0.949 . S
H5206 C5183 0.950 . S
H5207 C5185 0.950 . S
C5208 C5209 1.349 . S
C5208 C5210 1.327 . S
C5208 H5233 0.950 . S
C5209 C5208 1.349 . S
C5209 C5225 1.349 1_545 S
C5210 C5208 1.327 . S
C5210 C5229 1.429 . S
C5210 H5234 0.950 . S
C5211 C5228 1.574 . S
C5211 C5230 1.368 1_565 S
C5211 H5235 0.949 . S
H5212 C5216 0.949 . S
C5213 C5214 1.349 1_565 S
C5213 C5215 1.327 . S
C5213 H5236 0.950 . S
C5214 C5213 1.349 1_545 S
C5214 C5226 1.349 . S
C5215 C5213 1.327 . S
C5215 C5231 1.429 1_565 S
C5215 H5237 0.950 . S
C5216 H5212 0.949 . S
C5216 C5224 1.574 . S
C5216 C5232 1.368 . S
H5217 C5225 0.950 . S
H5218 C5223 0.950 . S
H5219 C5224 0.949 . S
H5220 C5226 0.950 . S
H5221 C5227 0.950 . S
H5222 C5228 0.949 . S
C5223 H5218 0.950 . S
C5223 C5225 1.327 . S
C5223 C5229 1.429 1_565 S
C5224 C5216 1.574 . S
C5224 H5219 0.949 . S
C5224 C5230 1.368 . S
C5225 C5209 1.349 1_565 S
C5225 H5217 0.950 . S
C5225 C5223 1.327 . S
C5226 C5214 1.349 . S
C5226 H5220 0.950 . S
C5226 C5227 1.327 . S
C5227 H5221 0.950 . S
C5227 C5226 1.327 . S
C5227 C5231 1.429 . S
C5228 C5211 1.574 . S
C5228 H5222 0.949 . S
C5228 C5232 1.368 1_565 S
C5229 C5210 1.429 . S
C5229 C5223 1.429 1_545 S
C5229 C5230 1.523 . S
C5230 C5211 1.368 1_545 S
C5230 C5224 1.368 . S
C5230 C5229 1.523 . S
C5231 C5215 1.429 1_545 S
C5231 C5227 1.429 . S
C5231 C5232 1.523 . S
C5232 C5216 1.368 . S
C5232 C5228 1.368 1_545 S
C5232 C5231 1.523 . S
H5233 C5208 0.950 . S
H5234 C5210 0.950 . S
H5235 C5211 0.949 . S
H5236 C5213 0.950 . S
H5237 C5215 0.950 . S
C5238 C5239 1.349 . S
C5238 C5240 1.327 . S
C5238 H5263 0.950 . S
C5239 C5238 1.349 . S
C5239 C5255 1.349 . S
C5240 C5238 1.327 . S
C5240 C5259 1.429 . S
C5240 H5264 0.950 . S
C5241 C5258 1.574 . S
C5241 C5260 1.368 . S
C5241 H5265 0.949 . S
H5242 C5246 0.949 . S
C5243 C5244 1.349 . S
C5243 C5245 1.327 . S
C5243 H5266 0.950 . S
C5244 C5243 1.349 . S
C5244 C5256 1.349 . S
C5245 C5243 1.327 . S
C5245 C5261 1.429 . S
C5245 H5267 0.950 . S
C5246 H5242 0.949 . S
C5246 C5254 1.574 . S
C5246 C5262 1.368 . S
H5247 C5255 0.950 . S
H5248 C5253 0.950 . S
H5249 C5254 0.949 . S
H5250 C5256 0.950 . S
H5251 C5257 0.950 . S
H5252 C5258 0.949 . S
C5253 H5248 0.950 . S
C5253 C5255 1.327 . S
C5253 C5259 1.429 . S
C5254 C5246 1.574 . S
C5254 H5249 0.949 . S
C5254 C5260 1.368 . S
C5255 C5239 1.349 . S
C5255 H5247 0.950 . S
C5255 C5253 1.327 . S
C5256 C5244 1.349 . S
C5256 H5250 0.950 . S
C5256 C5257 1.327 . S
C5257 H5251 0.950 . S
C5257 C5256 1.327 . S
C5257 C5261 1.429 . S
C5258 C5241 1.574 . S
C5258 H5252 0.949 . S
C5258 C5262 1.368 . S
C5259 C5240 1.429 . S
C5259 C5253 1.429 . S
C5259 C5260 1.523 . S
C5260 C5241 1.368 . S
C5260 C5254 1.368 . S
C5260 C5259 1.523 . S
C5261 C5245 1.429 . S
C5261 C5257 1.429 . S
C5261 C5262 1.523 . S
C5262 C5246 1.368 . S
C5262 C5258 1.368 . S
C5262 C5261 1.523 . S
H5263 C5238 0.950 . S
H5264 C5240 0.950 . S
H5265 C5241 0.949 . S
H5266 C5243 0.950 . S
H5267 C5245 0.950 . S
C5268 C5269 1.349 . S
C5268 C5270 1.327 . S
C5268 H5293 0.950 . S
C5269 C5268 1.349 . S
C5269 C5285 1.349 . S
C5270 C5268 1.327 . S
C5270 C5289 1.429 . S
C5270 H5294 0.950 . S
C5271 C5288 1.574 . S
C5271 C5290 1.368 . S
C5271 H5295 0.949 . S
H5272 C5276 0.949 . S
C5273 C5274 1.349 . S
C5273 C5275 1.327 . S
C5273 H5296 0.950 . S
C5274 C5273 1.349 . S
C5274 C5286 1.349 . S
C5275 C5273 1.327 . S
C5275 C5291 1.429 . S
C5275 H5297 0.950 . S
C5276 H5272 0.949 . S
C5276 C5284 1.574 . S
C5276 C5292 1.368 . S
H5277 C5285 0.950 . S
H5278 C5283 0.950 . S
H5279 C5284 0.949 . S
H5280 C5286 0.950 . S
H5281 C5287 0.950 . S
H5282 C5288 0.949 . S
C5283 H5278 0.950 . S
C5283 C5285 1.327 . S
C5283 C5289 1.429 . S
C5284 C5276 1.574 . S
C5284 H5279 0.949 . S
C5284 C5290 1.368 . S
C5285 C5269 1.349 . S
C5285 H5277 0.950 . S
C5285 C5283 1.327 . S
C5286 C5274 1.349 . S
C5286 H5280 0.950 . S
C5286 C5287 1.327 . S
C5287 H5281 0.950 . S
C5287 C5286 1.327 . S
C5287 C5291 1.429 . S
C5288 C5271 1.574 . S
C5288 H5282 0.949 . S
C5288 C5292 1.368 . S
C5289 C5270 1.429 . S
C5289 C5283 1.429 . S
C5289 C5290 1.523 . S
C5290 C5271 1.368 . S
C5290 C5284 1.368 . S
C5290 C5289 1.523 . S
C5291 C5275 1.429 . S
C5291 C5287 1.429 . S
C5291 C5292 1.523 . S
C5292 C5276 1.368 . S
C5292 C5288 1.368 . S
C5292 C5291 1.523 . S
H5293 C5268 0.950 . S
H5294 C5270 0.950 . S
H5295 C5271 0.949 . S
H5296 C5273 0.950 . S
H5297 C5275 0.950 . S
C5298 C5299 1.349 . S
C5298 C5300 1.327 . S
C5298 H5323 0.950 . S
C5299 C5298 1.349 . S
C5299 C5315 1.349 1_545 S
C5300 C5298 1.327 . S
C5300 C5319 1.429 . S
C5300 H5324 0.950 . S
C5301 C5318 1.574 . S
C5301 C5320 1.368 1_565 S
C5301 H5325 0.949 . S
H5302 C5306 0.949 . S
C5303 C5304 1.349 1_565 S
C5303 C5305 1.327 . S
C5303 H5326 0.950 . S
C5304 C5303 1.349 1_545 S
C5304 C5316 1.349 . S
C5305 C5303 1.327 . S
C5305 C5321 1.429 1_565 S
C5305 H5327 0.950 . S
C5306 H5302 0.949 . S
C5306 C5314 1.574 . S
C5306 C5322 1.368 . S
H5307 C5315 0.950 . S
H5308 C5313 0.950 . S
H5309 C5314 0.949 . S
H5310 C5316 0.950 . S
H5311 C5317 0.950 . S
H5312 C5318 0.949 . S
C5313 H5308 0.950 . S
C5313 C5315 1.327 . S
C5313 C5319 1.429 1_565 S
C5314 C5306 1.574 . S
C5314 H5309 0.949 . S
C5314 C5320 1.368 . S
C5315 C5299 1.349 1_565 S
C5315 H5307 0.950 . S
C5315 C5313 1.327 . S
C5316 C5304 1.349 . S
C5316 H5310 0.950 . S
C5316 C5317 1.327 . S
C5317 H5311 0.950 . S
C5317 C5316 1.327 . S
C5317 C5321 1.429 . S
C5318 C5301 1.574 . S
C5318 H5312 0.949 . S
C5318 C5322 1.368 1_565 S
C5319 C5300 1.429 . S
C5319 C5313 1.429 1_545 S
C5319 C5320 1.523 . S
C5320 C5301 1.368 1_545 S
C5320 C5314 1.368 . S
C5320 C5319 1.523 . S
C5321 C5305 1.429 1_545 S
C5321 C5317 1.429 . S
C5321 C5322 1.523 . S
C5322 C5306 1.368 . S
C5322 C5318 1.368 1_545 S
C5322 C5321 1.523 . S
H5323 C5298 0.950 . S
H5324 C5300 0.950 . S
H5325 C5301 0.949 . S
H5326 C5303 0.950 . S
H5327 C5305 0.950 . S
C5328 C5329 1.349 . S
C5328 C5330 1.327 . S
C5328 H5353 0.950 . S
C5329 C5328 1.349 . S
C5329 C5345 1.349 . S
C5330 C5328 1.327 . S
C5330 C5349 1.429 . S
C5330 H5354 0.950 . S
C5331 C5348 1.574 . S
C5331 C5350 1.368 . S
C5331 H5355 0.949 . S
H5332 C5336 0.949 . S
C5333 C5334 1.349 . S
C5333 C5335 1.327 1_554 S
C5333 H5356 0.950 . S
C5334 C5333 1.349 . S
C5334 C5346 1.349 1_554 S
C5335 C5333 1.327 1_556 S
C5335 C5351 1.429 . S
C5335 H5357 0.950 . S
C5336 H5332 0.949 . S
C5336 C5344 1.574 . S
C5336 C5352 1.368 . S
H5337 C5345 0.950 . S
H5338 C5343 0.950 . S
H5339 C5344 0.949 . S
H5340 C5346 0.950 . S
H5341 C5347 0.950 . S
H5342 C5348 0.949 . S
C5343 H5338 0.950 . S
C5343 C5345 1.327 . S
C5343 C5349 1.429 . S
C5344 C5336 1.574 . S
C5344 H5339 0.949 . S
C5344 C5350 1.368 . S
C5345 C5329 1.349 . S
C5345 H5337 0.950 . S
C5345 C5343 1.327 . S
C5346 C5334 1.349 1_556 S
C5346 H5340 0.950 . S
C5346 C5347 1.327 . S
C5347 H5341 0.950 . S
C5347 C5346 1.327 . S
C5347 C5351 1.429 . S
C5348 C5331 1.574 . S
C5348 H5342 0.949 . S
C5348 C5352 1.368 . S
C5349 C5330 1.429 . S
C5349 C5343 1.429 . S
C5349 C5350 1.523 . S
C5350 C5331 1.368 . S
C5350 C5344 1.368 . S
C5350 C5349 1.523 . S
C5351 C5335 1.429 . S
C5351 C5347 1.429 . S
C5351 C5352 1.523 . S
C5352 C5336 1.368 . S
C5352 C5348 1.368 . S
C5352 C5351 1.523 . S
H5353 C5328 0.950 . S
H5354 C5330 0.950 . S
H5355 C5331 0.949 . S
H5356 C5333 0.950 . S
H5357 C5335 0.950 . S
C5358 C5359 1.349 . S
C5358 C5360 1.327 . S
C5358 H5383 0.950 . S
C5359 C5358 1.349 . S
C5359 C5375 1.349 . S
C5360 C5358 1.327 . S
C5360 C5379 1.429 . S
C5360 H5384 0.950 . S
C5361 C5378 1.574 . S
C5361 C5380 1.368 . S
C5361 H5385 0.949 . S
H5362 C5366 0.949 . S
C5363 C5364 1.349 1_556 S
C5363 C5365 1.327 . S
C5363 H5386 0.950 . S
C5364 C5363 1.349 1_554 S
C5364 C5376 1.349 . S
C5365 C5363 1.327 . S
C5365 C5381 1.429 . S
C5365 H5387 0.950 . S
C5366 H5362 0.949 . S
C5366 C5374 1.574 . S
C5366 C5382 1.368 . S
H5367 C5375 0.950 . S
H5368 C5373 0.950 . S
H5369 C5374 0.949 . S
H5370 C5376 0.950 . S
H5371 C5377 0.950 . S
H5372 C5378 0.949 . S
C5373 H5368 0.950 . S
C5373 C5375 1.327 . S
C5373 C5379 1.429 . S
C5374 C5366 1.574 . S
C5374 H5369 0.949 . S
C5374 C5380 1.368 . S
C5375 C5359 1.349 . S
C5375 H5367 0.950 . S
C5375 C5373 1.327 . S
C5376 C5364 1.349 . S
C5376 H5370 0.950 . S
C5376 C5377 1.327 1_554 S
C5377 H5371 0.950 . S
C5377 C5376 1.327 1_556 S
C5377 C5381 1.429 . S
C5378 C5361 1.574 . S
C5378 H5372 0.949 . S
C5378 C5382 1.368 . S
C5379 C5360 1.429 . S
C5379 C5373 1.429 . S
C5379 C5380 1.523 . S
C5380 C5361 1.368 . S
C5380 C5374 1.368 . S
C5380 C5379 1.523 . S
C5381 C5365 1.429 . S
C5381 C5377 1.429 . S
C5381 C5382 1.523 . S
C5382 C5366 1.368 . S
C5382 C5378 1.368 . S
C5382 C5381 1.523 . S
H5383 C5358 0.950 . S
H5384 C5360 0.950 . S
H5385 C5361 0.949 . S
H5386 C5363 0.950 . S
H5387 C5365 0.950 . S
C5388 C5389 1.349 . S
C5388 C5390 1.327 . S
C5388 H5413 0.950 . S
C5389 C5388 1.349 . S
C5389 C5405 1.349 . S
C5390 C5388 1.327 . S
C5390 C5409 1.429 . S
C5390 H5414 0.950 . S
C5391 C5408 1.574 . S
C5391 C5410 1.368 . S
C5391 H5415 0.949 . S
H5392 C5396 0.949 . S
C5393 C5394 1.349 . S
C5393 C5395 1.327 . S
C5393 H5416 0.950 . S
C5394 C5393 1.349 . S
C5394 C5406 1.349 . S
C5395 C5393 1.327 . S
C5395 C5411 1.429 . S
C5395 H5417 0.950 . S
C5396 H5392 0.949 . S
C5396 C5404 1.574 . S
C5396 C5412 1.368 . S
H5397 C5405 0.950 . S
H5398 C5403 0.950 . S
H5399 C5404 0.949 . S
H5400 C5406 0.950 . S
H5401 C5407 0.950 . S
H5402 C5408 0.949 . S
C5403 H5398 0.950 . S
C5403 C5405 1.327 . S
C5403 C5409 1.429 . S
C5404 C5396 1.574 . S
C5404 H5399 0.949 . S
C5404 C5410 1.368 . S
C5405 C5389 1.349 . S
C5405 H5397 0.950 . S
C5405 C5403 1.327 . S
C5406 C5394 1.349 . S
C5406 H5400 0.950 . S
C5406 C5407 1.327 . S
C5407 H5401 0.950 . S
C5407 C5406 1.327 . S
C5407 C5411 1.429 . S
C5408 C5391 1.574 . S
C5408 H5402 0.949 . S
C5408 C5412 1.368 . S
C5409 C5390 1.429 . S
C5409 C5403 1.429 . S
C5409 C5410 1.523 . S
C5410 C5391 1.368 . S
C5410 C5404 1.368 . S
C5410 C5409 1.523 . S
C5411 C5395 1.429 . S
C5411 C5407 1.429 . S
C5411 C5412 1.523 . S
C5412 C5396 1.368 . S
C5412 C5408 1.368 . S
C5412 C5411 1.523 . S
H5413 C5388 0.950 . S
H5414 C5390 0.950 . S
H5415 C5391 0.949 . S
H5416 C5393 0.950 . S
H5417 C5395 0.950 . S
C5418 C5419 1.349 . S
C5418 C5420 1.327 . S
C5418 H5443 0.950 . S
C5419 C5418 1.349 . S
C5419 C5435 1.349 . S
C5420 C5418 1.327 . S
C5420 C5439 1.429 . S
C5420 H5444 0.950 . S
C5421 C5438 1.574 . S
C5421 C5440 1.368 . S
C5421 H5445 0.949 . S
H5422 C5426 0.949 . S
C5423 C5424 1.349 . S
C5423 C5425 1.327 . S
C5423 H5446 0.950 . S
C5424 C5423 1.349 . S
C5424 C5436 1.349 . S
C5425 C5423 1.327 . S
C5425 C5441 1.429 . S
C5425 H5447 0.950 . S
C5426 H5422 0.949 . S
C5426 C5434 1.574 . S
C5426 C5442 1.368 . S
H5427 C5435 0.950 . S
H5428 C5433 0.950 . S
H5429 C5434 0.949 . S
H5430 C5436 0.950 . S
H5431 C5437 0.950 . S
H5432 C5438 0.949 . S
C5433 H5428 0.950 . S
C5433 C5435 1.327 . S
C5433 C5439 1.429 . S
C5434 C5426 1.574 . S
C5434 H5429 0.949 . S
C5434 C5440 1.368 . S
C5435 C5419 1.349 . S
C5435 H5427 0.950 . S
C5435 C5433 1.327 . S
C5436 C5424 1.349 . S
C5436 H5430 0.950 . S
C5436 C5437 1.327 . S
C5437 H5431 0.950 . S
C5437 C5436 1.327 . S
C5437 C5441 1.429 . S
C5438 C5421 1.574 . S
C5438 H5432 0.949 . S
C5438 C5442 1.368 . S
C5439 C5420 1.429 . S
C5439 C5433 1.429 . S
C5439 C5440 1.523 . S
C5440 C5421 1.368 . S
C5440 C5434 1.368 . S
C5440 C5439 1.523 . S
C5441 C5425 1.429 . S
C5441 C5437 1.429 . S
C5441 C5442 1.523 . S
C5442 C5426 1.368 . S
C5442 C5438 1.368 . S
C5442 C5441 1.523 . S
H5443 C5418 0.950 . S
H5444 C5420 0.950 . S
H5445 C5421 0.949 . S
H5446 C5423 0.950 . S
H5447 C5425 0.950 . S
C5448 C5449 1.349 . S
C5448 C5450 1.327 . S
C5448 H5473 0.950 . S
C5449 C5448 1.349 . S
C5449 C5465 1.349 . S
C5450 C5448 1.327 . S
C5450 C5469 1.429 . S
C5450 H5474 0.950 . S
C5451 C5468 1.574 . S
C5451 C5470 1.368 . S
C5451 H5475 0.949 . S
H5452 C5456 0.949 . S
C5453 C5454 1.349 1_554 S
C5453 C5455 1.327 . S
C5453 H5476 0.950 . S
C5454 C5453 1.349 1_556 S
C5454 C5466 1.349 . S
C5455 C5453 1.327 . S
C5455 C5471 1.429 . S
C5455 H5477 0.950 . S
C5456 H5452 0.949 . S
C5456 C5464 1.574 . S
C5456 C5472 1.368 . S
H5457 C5465 0.950 . S
H5458 C5463 0.950 . S
H5459 C5464 0.949 . S
H5460 C5466 0.950 . S
H5461 C5467 0.950 . S
H5462 C5468 0.949 . S
C5463 H5458 0.950 . S
C5463 C5465 1.327 . S
C5463 C5469 1.429 . S
C5464 C5456 1.574 . S
C5464 H5459 0.949 . S
C5464 C5470 1.368 . S
C5465 C5449 1.349 . S
C5465 H5457 0.950 . S
C5465 C5463 1.327 . S
C5466 C5454 1.349 . S
C5466 H5460 0.950 . S
C5466 C5467 1.327 1_556 S
C5467 H5461 0.950 . S
C5467 C5466 1.327 1_554 S
C5467 C5471 1.429 . S
C5468 C5451 1.574 . S
C5468 H5462 0.949 . S
C5468 C5472 1.368 . S
C5469 C5450 1.429 . S
C5469 C5463 1.429 . S
C5469 C5470 1.523 . S
C5470 C5451 1.368 . S
C5470 C5464 1.368 . S
C5470 C5469 1.523 . S
C5471 C5455 1.429 . S
C5471 C5467 1.429 . S
C5471 C5472 1.523 . S
C5472 C5456 1.368 . S
C5472 C5468 1.368 . S
C5472 C5471 1.523 . S
H5473 C5448 0.950 . S
H5474 C5450 0.950 . S
H5475 C5451 0.949 . S
H5476 C5453 0.950 . S
H5477 C5455 0.950 . S
C5478 C5479 1.349 . S
C5478 C5480 1.327 . S
C5478 H5503 0.950 . S
C5479 C5478 1.349 . S
C5479 C5495 1.349 . S
C5480 C5478 1.327 . S
C5480 C5499 1.429 . S
C5480 H5504 0.950 . S
C5481 C5498 1.574 . S
C5481 C5500 1.368 . S
C5481 H5505 0.949 . S
H5482 C5486 0.949 . S
C5483 C5484 1.349 1_554 S
C5483 C5485 1.327 . S
C5483 H5506 0.950 1_554 S
C5484 C5483 1.349 1_556 S
C5484 C5496 1.349 1_556 S
C5485 C5483 1.327 . S
C5485 C5501 1.429 . S
C5485 H5507 0.950 . S
C5486 H5482 0.949 . S
C5486 C5494 1.574 . S
C5486 C5502 1.368 . S
H5487 C5495 0.950 . S
H5488 C5493 0.950 . S
H5489 C5494 0.949 . S
H5490 C5496 0.950 1_556 S
H5491 C5497 0.950 . S
H5492 C5498 0.949 . S
C5493 H5488 0.950 . S
C5493 C5495 1.327 . S
C5493 C5499 1.429 . S
C5494 C5486 1.574 . S
C5494 H5489 0.949 . S
C5494 C5500 1.368 . S
C5495 C5479 1.349 . S
C5495 H5487 0.950 . S
C5495 C5493 1.327 . S
C5496 C5484 1.349 1_554 S
C5496 H5490 0.950 1_554 S
C5496 C5497 1.327 . S
C5497 H5491 0.950 . S
C5497 C5496 1.327 . S
C5497 C5501 1.429 . S
C5498 C5481 1.574 . S
C5498 H5492 0.949 . S
C5498 C5502 1.368 . S
C5499 C5480 1.429 . S
C5499 C5493 1.429 . S
C5499 C5500 1.523 . S
C5500 C5481 1.368 . S
C5500 C5494 1.368 . S
C5500 C5499 1.523 . S
C5501 C5485 1.429 . S
C5501 C5497 1.429 . S
C5501 C5502 1.523 . S
C5502 C5486 1.368 . S
C5502 C5498 1.368 . S
C5502 C5501 1.523 . S
H5503 C5478 0.950 . S
H5504 C5480 0.950 . S
H5505 C5481 0.949 . S
H5506 C5483 0.950 1_556 S
H5507 C5485 0.950 . S
C5508 C5509 1.349 . S
C5508 C5510 1.327 . S
C5508 H5533 0.950 . S
C5509 C5508 1.349 . S
C5509 C5525 1.349 . S
C5510 C5508 1.327 . S
C5510 C5529 1.429 . S
C5510 H5534 0.950 . S
C5511 C5528 1.574 . S
C5511 C5530 1.368 . S
C5511 H5535 0.949 . S
H5512 C5516 0.949 . S
C5513 C5514 1.349 . S
C5513 C5515 1.327 . S
C5513 H5536 0.950 . S
C5514 C5513 1.349 . S
C5514 C5526 1.349 . S
C5515 C5513 1.327 . S
C5515 C5531 1.429 . S
C5515 H5537 0.950 . S
C5516 H5512 0.949 . S
C5516 C5524 1.574 . S
C5516 C5532 1.368 . S
H5517 C5525 0.950 . S
H5518 C5523 0.950 . S
H5519 C5524 0.949 . S
H5520 C5526 0.950 . S
H5521 C5527 0.950 . S
H5522 C5528 0.949 . S
C5523 H5518 0.950 . S
C5523 C5525 1.327 . S
C5523 C5529 1.429 . S
C5524 C5516 1.574 . S
C5524 H5519 0.949 . S
C5524 C5530 1.368 . S
C5525 C5509 1.349 . S
C5525 H5517 0.950 . S
C5525 C5523 1.327 . S
C5526 C5514 1.349 . S
C5526 H5520 0.950 . S
C5526 C5527 1.327 . S
C5527 H5521 0.950 . S
C5527 C5526 1.327 . S
C5527 C5531 1.429 . S
C5528 C5511 1.574 . S
C5528 H5522 0.949 . S
C5528 C5532 1.368 . S
C5529 C5510 1.429 . S
C5529 C5523 1.429 . S
C5529 C5530 1.523 . S
C5530 C5511 1.368 . S
C5530 C5524 1.368 . S
C5530 C5529 1.523 . S
C5531 C5515 1.429 . S
C5531 C5527 1.429 . S
C5531 C5532 1.523 . S
C5532 C5516 1.368 . S
C5532 C5528 1.368 . S
C5532 C5531 1.523 . S
H5533 C5508 0.950 . S
H5534 C5510 0.950 . S
H5535 C5511 0.949 . S
H5536 C5513 0.950 . S
H5537 C5515 0.950 . S
C5538 C5539 1.349 . S
C5538 C5540 1.327 . S
C5538 H5563 0.950 . S
C5539 C5538 1.349 . S
C5539 C5555 1.349 . S
C5540 C5538 1.327 . S
C5540 C5559 1.429 . S
C5540 H5564 0.950 . S
C5541 C5558 1.574 . S
C5541 C5560 1.368 . S
C5541 H5565 0.949 . S
H5542 C5546 0.949 . S
C5543 C5544 1.349 . S
C5543 C5545 1.327 . S
C5543 H5566 0.950 . S
C5544 C5543 1.349 . S
C5544 C5556 1.349 . S
C5545 C5543 1.327 . S
C5545 C5561 1.429 . S
C5545 H5567 0.950 . S
C5546 H5542 0.949 . S
C5546 C5554 1.574 . S
C5546 C5562 1.368 . S
H5547 C5555 0.950 . S
H5548 C5553 0.950 . S
H5549 C5554 0.949 . S
H5550 C5556 0.950 . S
H5551 C5557 0.950 . S
H5552 C5558 0.949 . S
C5553 H5548 0.950 . S
C5553 C5555 1.327 . S
C5553 C5559 1.429 . S
C5554 C5546 1.574 . S
C5554 H5549 0.949 . S
C5554 C5560 1.368 . S
C5555 C5539 1.349 . S
C5555 H5547 0.950 . S
C5555 C5553 1.327 . S
C5556 C5544 1.349 . S
C5556 H5550 0.950 . S
C5556 C5557 1.327 . S
C5557 H5551 0.950 . S
C5557 C5556 1.327 . S
C5557 C5561 1.429 . S
C5558 C5541 1.574 . S
C5558 H5552 0.949 . S
C5558 C5562 1.368 . S
C5559 C5540 1.429 . S
C5559 C5553 1.429 . S
C5559 C5560 1.523 . S
C5560 C5541 1.368 . S
C5560 C5554 1.368 . S
C5560 C5559 1.523 . S
C5561 C5545 1.429 . S
C5561 C5557 1.429 . S
C5561 C5562 1.523 . S
C5562 C5546 1.368 . S
C5562 C5558 1.368 . S
C5562 C5561 1.523 . S
H5563 C5538 0.950 . S
H5564 C5540 0.950 . S
H5565 C5541 0.949 . S
H5566 C5543 0.950 . S
H5567 C5545 0.950 . S
C2689 C2163 1.351 . S
C2694 C63 1.357 . S
C2719 C2079 1.264 . S
C2724 C147 1.264 . S
C2749 C2331 1.264 . S
C2754 C231 1.264 . S
C2779 C2247 1.351 . S
C2784 C315 1.357 . S
C2809 C410 1.350 . S
C2814 C2510 1.358 . S
C2839 C494 1.264 . S
C2844 C2426 1.264 . S
C2869 C578 1.264 . S
C2874 C2678 1.264 . S
C2899 C2594 1.351 . S
C2904 C662 1.357 . S
C2929 C1491 1.264 . S
C2934 C735 1.264 . S
C2959 C1407 1.350 . S
C2964 C819 1.358 . S
C2989 C1659 1.350 . S
C2994 C903 1.358 . S
C3019 C1575 1.264 . S
C3024 C987 1.264 . S
C3049 C1082 1.264 . S
C3054 C1838 1.264 . S
C3079 C1754 1.350 . S
C3084 C1166 1.358 . S
C3109 C1250 1.351 . S
C3114 C2006 1.357 . S
C3139 C1922 1.264 . S
C3144 C1334 1.264 . S
C3169 C70 0.671 . S
C3174 C1738 0.657 . S
C3199 C1150 0.655 . S
C3204 C154 0.655 . S
C3229 C2578 0.655 . S
C3234 C238 0.655 . S
C3259 C322 0.671 . S
C3264 C646 0.657 . S
C3289 C394 0.671 . S
C3294 C1414 0.657 . S
C3319 C478 0.655 . S
C3324 C826 0.655 . S
C3349 C562 0.655 . S
C3354 C2254 0.655 . S
C3379 C2410 0.661 . S
C3384 C742 0.661 . S
C3409 C1906 0.655 . S
C3414 C910 0.655 . S
C3439 C1318 0.661 . S
C3444 C994 0.661 . S
C3469 C2086 0.661 . S
C3474 C1066 0.661 . S
C3499 C1234 0.655 . S
C3504 C1582 0.655 . S
C3529 C2494 0.655 . S
C3534 C1498 0.655 . S
C3559 C1666 0.671 . S
C3564 C1990 0.657 . S
C3589 C2170 0.655 . S
C3594 C1822 0.655 . S
C3619 C2338 0.661 . S
C3624 C2662 0.661 . S
C3649 C58 0.731 . S
C3654 C1654 0.731 . S
C3679 C142 0.679 . S
C3684 C1570 0.679 . S
C3709 C226 0.679 . S
C3714 C1486 0.679 . S
C3739 C310 0.731 . S
C3744 C1402 0.731 . S
C3769 C406 0.731 . S
C3774 C2002 0.731 . S
C3799 C490 0.679 . S
C3804 C1918 0.679 . S
C3829 C574 0.679 . S
C3834 C1834 0.679 . S
C3859 C658 0.731 . S
C3864 C1750 0.731 . S
C3889 C730 0.688 . S
C3894 C2326 0.688 . S
C3919 C814 0.681 . S
C3924 C2242 0.681 . S
C3949 C898 0.681 . S
C3954 C2158 0.681 . S
C3979 C982 0.688 . S
C3984 C2074 0.688 . S
C4009 C2674 0.688 . S
C4014 C1078 0.688 . S
C4039 C2590 0.681 . S
C4044 C1162 0.681 . S
C4069 C2506 0.681 . S
C4074 C1246 0.681 . S
C4099 C2422 0.688 . S
C4104 C1330 0.688 . S
C4129 C242 2.170 . S
C4134 C74 2.163 . S
C4159 C326 2.169 . S
C4164 C158 2.163 . S
C4189 C567 2.170 . S
C4194 C399 2.163 . S
C4219 C483 2.170 . S
C4224 C651 2.163 . S
C4249 C914 2.256 . S
C4254 C746 2.256 . S
C4279 C830 2.256 . S
C4284 C998 2.256 . S
C4309 C1239 2.256 . S
C4314 C1071 2.256 . S
C4339 C1155 2.256 . S
C4344 C1323 2.256 . S
C4369 C1418 2.169 . S
C4374 C1586 2.163 . S
C4399 C1502 2.170 . S
C4404 C1670 2.163 . S
C4429 C1911 2.170 . S
C4434 C1743 2.163 . S
C4459 C1827 2.170 . S
C4464 C1995 2.163 . S
C4489 C2090 2.256 . S
C4494 C2258 2.256 . S
C4519 C2342 2.256 . S
C4524 C2174 2.256 . S
C4549 C2415 2.256 . S
C4554 C2583 2.256 . S
C4579 C2499 2.256 . S
C4584 C2667 2.256 . S
C4609 C56 2.558 1_565 S
C4614 C644 2.557 . S
C4639 C2576 2.573 . S
C4644 C140 2.558 . S
C4669 C224 2.558 . S
C4674 C1148 2.573 . S
C4699 C308 2.558 1_565 S
C4704 C1736 2.557 . S
C4729 C319 2.558 . S
C4734 C403 2.560 1_545 S
C4759 C487 2.558 . S
C4764 C2251 2.573 . S
C4789 C823 2.573 . S
C4794 C571 2.558 . S
C4819 C1411 2.558 . S
C4824 C655 2.560 1_545 S
C4849 C728 2.555 . S
C4854 C1316 2.566 . S
C4879 C1904 2.578 . S
C4884 C812 2.563 . S
C4909 C896 2.563 . S
C4914 C476 2.578 . S
C4939 C2408 2.566 . S
C4944 C980 2.555 . S
C4969 C1075 2.555 . S
C4974 C991 2.566 . S
C4999 C1159 2.563 . S
C5004 C1579 2.578 . S
C5029 C1243 2.563 . S
C5034 C151 2.578 . S
C5059 C2083 2.566 . S
C5064 C1327 2.555 . S
C5089 C1400 2.558 1_565 S
C5094 C1988 2.557 . S
C5119 C1484 2.558 . S
C5124 C1232 2.573 . S
C5149 C1568 2.558 . S
C5154 C2492 2.573 . S
C5179 C1652 2.558 1_565 S
C5184 C392 2.557 . S
C5209 C1747 2.558 1_545 S
C5214 C1663 2.557 . S
C5239 C907 2.573 . S
C5244 C1831 2.558 . S
C5269 C2167 2.573 . S
C5274 C1915 2.558 . S
C5299 C1999 2.558 1_545 S
C5304 C67 2.557 . S
C5329 C2660 2.566 . S
C5334 C2072 2.555 . S
C5359 C560 2.578 . S
C5364 C2156 2.563 . S
C5389 C1820 2.578 . S
C5394 C2240 2.563 . S
C5419 C2324 2.555 . S
C5424 C1064 2.566 . S
C5449 C2335 2.566 . S
C5454 C2419 2.555 . S
C5479 C235 2.578 . S
C5484 C2503 2.563 . S
C5509 C1495 2.578 . S
C5514 C2587 2.563 . S
C5539 C2671 2.555 . S
C5544 C739 2.566 . S
