# Generated by pormake.
# Topology snp, (6)-cn, num edge types: 1
# Building blocks:
#     Node 0, Type 0, BuildingBlock: PAMTUU_clean_sbu_0, # of connection points: 6
#     Node 1, Type 0, BuildingBlock: PAMTUU_clean_sbu_0, # of connection points: 6
#     Node 2, Type 0, BuildingBlock: PAMTUU_clean_sbu_0, # of connection points: 6
#     Node 3, Type 0, BuildingBlock: PAMTUU_clean_sbu_0, # of connection points: 6
#     Edge 4, Type (0, 0), BuildingBlock: MIFKUJ_clean_linker_0, # of connection points: 2
#     Edge 5, Type (0, 0), BuildingBlock: MIFKUJ_clean_linker_0, # of connection points: 2
#     Edge 6, Type (0, 0), BuildingBlock: MIFKUJ_clean_linker_0, # of connection points: 2
#     Edge 7, Type (0, 0), BuildingBlock: MIFKUJ_clean_linker_0, # of connection points: 2
#     Edge 8, Type (0, 0), BuildingBlock: MIFKUJ_clean_linker_0, # of connection points: 2
#     Edge 9, Type (0, 0), BuildingBlock: MIFKUJ_clean_linker_0, # of connection points: 2
#     Edge 10, Type (0, 0), BuildingBlock: MIFKUJ_clean_linker_0, # of connection points: 2
#     Edge 11, Type (0, 0), BuildingBlock: MIFKUJ_clean_linker_0, # of connection points: 2
#     Edge 12, Type (0, 0), BuildingBlock: MIFKUJ_clean_linker_0, # of connection points: 2
#     Edge 13, Type (0, 0), BuildingBlock: MIFKUJ_clean_linker_0, # of connection points: 2
#     Edge 14, Type (0, 0), BuildingBlock: MIFKUJ_clean_linker_0, # of connection points: 2
#     Edge 15, Type (0, 0), BuildingBlock: MIFKUJ_clean_linker_0, # of connection points: 2
# Relax obj value: 0.346
# Max RMSD: 0.223
# Mean RMSD: 0.212
data_MOF--net-snp--node1-PAMTUU_clean_sbu_0--edge1-MIFKUJ_clean_linker_0
_symmetry_space_group_name_H-M    P1
_symmetry_Int_Tables_number       1
_symmetry_cell_setting            triclinic
loop_
_symmetry_equiv_pos_as_xyz
'x, y, z'
_cell_length_a     32.748749
_cell_length_b     33.124187
_cell_length_c     41.65315
_cell_angle_alpha  96.205142
_cell_angle_beta   88.576521
_cell_angle_gamma 98.844836
loop_
_atom_site_label
_atom_site_type_symbol
_atom_site_fract_x
_atom_site_fract_y
_atom_site_fract_z
_atom_type_partial_charge
Tb0 Tb 0.20361 0.96787 0.19839 0.0
Tb1 Tb 0.26061 0.04805 0.22966 0.0
C2 C 0.16374 0.04004 0.23673 0.0
C3 C 0.1783 0.87817 0.14088 0.0
C4 C 0.19821 0.84362 0.07928 0.0
C5 C 0.15678 0.84004 0.08976 0.0
C6 C 0.14689 0.85732 0.12046 0.0
C7 C 0.21976 0.88065 0.13072 0.0
C8 C 0.22963 0.86342 0.10019 0.0
C9 C 0.16796 0.90068 0.17137 0.0
O10 O 0.1975 0.01374 0.16543 0.0
O11 O 0.25972 0.05362 0.1768 0.0
O12 O 0.29687 -0.00132 0.22276 0.0
O13 O 0.2659 0.9704 0.17669 0.0
O14 O 0.28116 0.11146 0.23204 0.0
O15 O 0.31257 0.07228 0.25781 0.0
O16 O 0.22908 0.02145 0.27188 0.0
O17 O 0.21406 0.9555 0.24796 0.0
O18 O 0.1591 0.00056 0.22628 0.0
O19 O 0.19956 0.06391 0.23633 0.0
C20 C 0.22725 0.04252 0.15778 0.0
O21 O 0.19518 0.9036 0.19411 0.0
O22 O 0.15566 0.93575 0.16876 0.0
C23 C 0.2992 0.97848 0.19444 0.0
C24 C 0.30736 0.13722 0.28342 0.0
C25 C 0.30429 0.18048 0.34474 0.0
C26 C 0.34242 0.17348 0.33099 0.0
C27 C 0.34394 0.15211 0.30035 0.0
C28 C 0.26925 0.14489 0.29689 0.0
C29 C 0.26777 0.16667 0.32729 0.0
C30 C 0.30888 0.10992 0.25361 0.0
C31 C 0.21648 0.98198 0.27395 0.0
H32 H 0.13198 0.82551 0.07375 0.0
H33 H 0.11476 0.85565 0.12782 0.0
H34 H 0.24457 0.89679 0.14603 0.0
H35 H 0.26177 0.86641 0.09264 0.0
H36 H 0.37083 0.18372 0.34424 0.0
H37 H 0.37349 0.14589 0.29037 0.0
H38 H 0.24056 0.13285 0.28444 0.0
H39 H 0.23794 0.17101 0.3378 0.0
Tb40 Tb 0.07139 0.23889 0.70632 0.0
Tb41 Tb 0.02263 0.21635 0.6303 0.0
C42 C 0.05577 0.30919 0.66354 0.0
C43 C 0.11239 0.21997 0.79034 0.0
C44 C 0.13079 0.18802 0.84957 0.0
C45 C 0.11033 0.22267 0.84976 0.0
C46 C 0.10158 0.23837 0.82085 0.0
C47 C 0.132 0.18476 0.78994 0.0
C48 C 0.14096 0.16912 0.81891 0.0
C49 C 0.10855 0.24111 0.76017 0.0
O50 O 0.00581 0.24042 0.71332 0.0
O51 O 0.97622 0.23864 0.6621 0.0
O52 O -0.00511 0.17089 0.66149 0.0
O53 O 0.05225 0.17467 0.69219 0.0
O54 O 0.0106 0.23447 0.58432 0.0
O55 O -0.00711 0.17124 0.59461 0.0
O56 O 0.08431 0.19976 0.6305 0.0
O57 O 0.11578 0.25023 0.66786 0.0
O58 O 0.06908 0.29919 0.69097 0.0
O59 O 0.0409 0.28291 0.63879 0.0
C60 C 0.97544 0.24408 0.69392 0.0
O61 O 0.07643 0.25921 0.75652 0.0
O62 O 0.12058 0.22419 0.73248 0.0
C63 C 0.01476 0.15719 0.68404 0.0
C64 C 0.97596 0.18631 0.53974 0.0
C65 C 0.94802 0.16173 0.47425 0.0
C66 C 0.93621 0.13688 0.49944 0.0
C67 C 0.95051 0.14851 0.53133 0.0
C68 C 0.98569 0.2125 0.51517 0.0
C69 C 0.97251 0.20022 0.483 0.0
C70 C -0.00664 0.19755 0.57341 0.0
C71 C 0.117 0.22491 0.64159 0.0
H72 H 0.10225 0.23883 0.87244 0.0
H73 H 0.08723 0.26589 0.82248 0.0
H74 H 0.14144 0.16969 0.7672 0.0
H75 H 0.15613 0.14214 0.81716 0.0
H76 H 0.91673 0.10757 0.49442 0.0
H77 H 0.94178 0.12756 0.54943 0.0
H78 H 0.00485 0.24204 0.52055 0.0
H79 H 0.98158 0.22118 0.465 0.0
Tb80 Tb 0.80733 0.93615 0.08539 0.0
Tb81 Tb 0.80147 0.02699 0.0695 0.0
C82 C 0.8861 -0.00136 0.06573 0.0
C83 C 0.78491 0.84446 0.12558 0.0
C84 C 0.75173 0.81804 0.18346 0.0
C85 C 0.78242 0.7984 0.16688 0.0
C86 C 0.79901 0.81167 0.13803 0.0
C87 C 0.75235 0.86224 0.1409 0.0
C88 C 0.73571 0.84897 0.16963 0.0
C89 C 0.80827 0.86488 0.10024 0.0
O90 O 0.80365 0.97186 0.13308 0.0
O91 O 0.83065 0.03423 0.11712 0.0
O92 O 0.74588 0.00619 0.09584 0.0
O93 O 0.74121 0.93815 0.08065 0.0
O94 O 0.82022 0.09046 0.07694 0.0
O95 O 0.7642 0.06452 0.0507 0.0
O96 O 0.80085 0.99082 1.02088 0.0
O97 O 0.82493 0.93347 1.03456 0.0
O98 O 0.8704 0.96818 0.0824 0.0
O99 O 0.86295 0.02151 0.05319 0.0
C100 C 0.82217 0.00998 0.14019 0.0
O101 O 0.78633 0.8729 0.0767 0.0
O102 O 0.83477 0.89659 0.11105 0.0
C103 C 0.72368 0.97001 0.09123 0.0
C104 C 0.80113 0.12485 1.03498 0.0
C105 C 0.81554 0.168 0.98113 0.0
C106 C 0.78045 0.17192 1.00046 0.0
C107 C 0.77336 0.15046 1.02742 0.0
C108 C 0.83722 0.12234 1.01656 0.0
C109 C 0.84454 0.14411 0.98979 0.0
C110 C 0.78983 0.09778 0.05989 0.0
C111 C 0.81707 0.95672 1.01255 0.0
H112 H 0.79586 0.77501 0.17741 0.0
H113 H 0.82457 0.7982 0.12663 0.0
H114 H 0.74164 0.88813 0.13175 0.0
H115 H 0.71212 0.86454 0.18202 0.0
H116 H 0.7578 0.19017 0.9939 0.0
H117 H 0.74529 0.15231 0.04148 0.0
H118 H 0.85869 0.1022 1.02197 0.0
H119 H 0.87143 0.14021 0.97476 0.0
Tb120 Tb 0.05723 0.8245 0.64242 0.0
Tb121 Tb 0.9634 0.79865 0.6167 0.0
C122 C 0.01551 0.88235 0.60283 0.0
C123 C 0.14877 0.82778 0.6909 0.0
C124 C 0.17925 0.80051 0.74542 0.0
C125 C 0.19502 0.8396 0.7363 0.0
C126 C 0.17977 0.85317 0.70912 0.0
C127 C 0.13423 0.7881 0.69911 0.0
C128 C 0.14961 0.77443 0.72609 0.0
C129 C 0.12875 0.84393 0.66535 0.0
O130 O 0.01766 0.82143 0.68629 0.0
O131 O 0.95769 0.83241 0.66444 0.0
O132 O 0.9783 0.74511 0.63763 0.0
O133 O 0.04877 0.75821 0.6365 0.0
O134 O 0.90248 0.81054 0.61591 0.0
O135 O 0.91911 0.75287 0.59399 0.0
O136 O 0.00099 0.79693 0.57131 0.0
O137 O 0.06696 0.82056 0.59022 0.0
O138 O 0.03958 0.8798 0.62701 0.0
O139 O 0.98378 0.85433 0.59468 0.0
C140 C 0.98051 0.83225 0.68991 0.0
O141 O 0.11991 0.81831 0.63968 0.0
O142 O 0.09777 0.86271 0.67484 0.0
C143 C 0.01436 0.73272 0.63838 0.0
C144 C 0.87174 0.78198 0.56708 0.0
C145 C 0.83985 0.78672 0.5063 0.0
C146 C 0.8196 0.75853 0.52653 0.0
C147 C 0.83554 0.75618 0.55685 0.0
C148 C 0.89172 0.81056 0.54713 0.0
C149 C 0.87577 0.81303 0.51693 0.0
C150 C 0.89075 0.77672 0.59722 0.0
C151 C 0.04104 0.80902 0.56615 0.0
H152 H 0.21726 0.8606 0.7512 0.0
H153 H 0.1908 0.88405 0.70317 0.0
H154 H 0.10989 0.76826 0.68539 0.0
H155 H 0.13707 0.74417 0.73262 0.0
H156 H 0.79166 0.73818 0.5188 0.0
H157 H 0.82015 0.73374 0.57198 0.0
H158 H 0.92015 0.83026 0.55458 0.0
H159 H 0.89218 0.83459 0.50153 0.0
H160 H 0.92802 0.07043 0.04674 0.0
H161 H 0.99112 0.10739 0.07235 0.0
H162 H 0.00485 -0.00062 0.11831 0.0
H163 H 0.94404 0.96221 0.09181 0.0
H164 H 0.9891 0.12483 0.13464 0.0
H165 H 0.09441 0.99527 0.14616 0.0
H166 H 0.11972 0.9418 0.10901 0.0
H167 H 0.10163 0.0075 1.02851 0.0
H168 H 0.07894 0.06301 0.06513 0.0
H169 H 0.08201 0.00485 0.24048 0.0
H170 H 0.02772 0.0374 0.22025 0.0
H171 H 0.10843 0.15323 0.22655 0.0
H172 H 0.16156 0.12238 0.24987 0.0
H173 H 0.10464 0.06115 0.1708 0.0
H174 H 0.03407 0.20234 0.16967 0.0
H175 H 0.00378 0.25343 0.20663 0.0
H176 H 0.95018 0.15851 0.26419 0.0
H177 H 0.98031 0.10693 0.22755 0.0
C178 C 0.94583 0.05397 0.06096 0.0
C179 C 0.93042 0.01393 0.06839 0.0
C180 C 0.98172 0.07529 0.07569 0.0
C181 C 0.0024 0.05645 0.09752 0.0
C182 C 0.98996 0.01463 0.10119 0.0
C183 C 0.95472 0.99328 0.08617 0.0
C184 C 0.03096 0.08097 0.12148 0.0
C185 C 0.01533 0.11178 0.14206 0.0
C186 C 0.06617 0.06521 0.13059 0.0
C187 C 0.08472 0.03382 0.10871 0.0
C188 C 0.09685 -0.00075 0.1207 0.0
C189 C 0.11074 0.96834 0.09964 0.0
C190 C 0.11213 0.97111 0.06644 0.0
C191 C 0.10035 0.0052 0.05424 0.0
C192 C 0.08739 0.03666 0.07519 0.0
C193 C 0.0873 0.03786 0.23986 0.0
C194 C 0.12708 0.06041 0.24377 0.0
C195 C 0.05591 0.05679 0.22879 0.0
C196 C 0.06607 0.09652 0.21908 0.0
C197 C 0.10104 0.12177 0.23223 0.0
C198 C 0.13186 0.10357 0.24485 0.0
C199 C 0.05835 0.09924 0.18485 0.0
C200 C 0.07965 0.07516 0.16239 0.0
C201 C 0.0285 0.12072 0.17414 0.0
C202 C 0.00966 0.15096 0.19609 0.0
C203 C 0.01576 0.19242 0.1902 0.0
C204 C -0.00128 0.22145 0.21112 0.0
C205 C 0.9752 0.20923 0.23782 0.0
C206 C 0.96864 0.16795 0.24363 0.0
C207 C 0.98584 0.13885 0.22288 0.0
H208 H 0.96199 0.23173 0.25397 0.0
H209 H 0.1225 0.94692 0.05019 0.0
H210 H 0.97315 0.91714 0.55959 0.0
H211 H 0.00483 0.96493 0.52146 0.0
H212 H 0.12407 0.94455 0.54344 0.0
H213 H 0.09577 0.8966 0.58196 0.0
H214 H 0.12188 0.98953 0.5922 0.0
H215 H 0.08017 0.05628 0.51001 0.0
H216 H 0.04543 0.07045 0.46164 0.0
H217 H 0.92716 0.04023 0.50662 0.0
H218 H 0.96095 0.03078 0.5566 0.0
H219 H 0.0568 0.11209 0.7189 0.0
H220 H 0.076 0.05526 0.68593 0.0
H221 H 0.95862 0.03797 0.63684 0.0
H222 H 0.94414 0.10211 0.66563 0.0
H223 H 0.00665 0.06874 0.59845 0.0
H224 H 0.02718 0.9602 0.66092 0.0
H225 H 0.0488 0.9289 0.70747 0.0
H226 H 0.17452 0.98382 0.693 0.0
H227 H 0.15351 0.0164 0.6468 0.0
C228 C 0.00647 0.92456 0.55799 0.0
C229 C 0.03239 0.90847 0.57796 0.0
C230 C 0.02463 0.95177 0.53639 0.0
C231 C 0.06669 0.96858 0.54086 0.0
C232 C 0.09089 0.93877 0.54699 0.0
C233 C 0.07496 0.91244 0.57001 0.0
C234 C 0.0732 0.007 0.56452 0.0
C235 C 0.0951 0.00517 0.59315 0.0
C236 C 0.04376 0.03427 0.56649 0.0
C237 C 0.02336 0.04358 0.53733 0.0
C238 C 0.04679 0.05356 0.50984 0.0
C239 C 0.02722 0.06082 0.48209 0.0
C240 C 0.98418 0.05571 0.48075 0.0
C241 C 0.96055 0.04467 0.50767 0.0
C242 C 0.97994 0.03963 0.53611 0.0
C243 C 0.03413 0.09529 0.70191 0.0
C244 C 0.00269 0.1143 0.69065 0.0
C245 C 0.04509 0.06163 0.68291 0.0
C246 C 0.02058 0.0445 0.65612 0.0
C247 C 0.97985 0.0533 0.65545 0.0
C248 C 0.9711 0.0897 0.6723 0.0
C249 C 0.04104 0.03242 0.62509 0.0
C250 C 0.02917 0.0478 0.597 0.0
C251 C 0.0755 0.0113 0.62313 0.0
C252 C 0.08867 0.99113 0.65052 0.0
C253 C 0.0594 0.96597 0.66782 0.0
C254 C 0.07152 0.94808 0.69422 0.0
C255 C 0.11298 0.95462 0.70333 0.0
C256 C 0.1424 0.97892 0.68597 0.0
C257 C 0.1304 0.99712 0.65966 0.0
H258 H 0.12235 0.94058 0.72369 0.0
H259 H 0.96915 0.06053 0.45893 0.0
H260 H 0.67108 0.90415 0.11178 0.0
H261 H 0.59835 0.9022 0.1283 0.0
H262 H 0.60188 0.02566 0.10288 0.0
H263 H 0.67462 0.02839 0.08838 0.0
H264 H 0.56267 0.02315 0.15402 0.0
H265 H 0.55114 0.93082 0.05608 0.0
H266 H 0.56504 0.87068 1.01949 0.0
H267 H 0.51498 0.79046 0.08986 0.0
H268 H 0.50123 0.85019 0.127 0.0
H269 H 0.32346 0.95737 0.13156 0.0
H270 H 0.39429 0.95345 0.11164 0.0
H271 H 0.43917 0.97841 0.20933 0.0
H272 H 0.36937 0.98317 0.2291 0.0
H273 H 0.45238 0.90734 0.11988 0.0
H274 H 0.52783 0.03467 0.21478 0.0
H275 H 0.51219 0.09873 0.24528 0.0
H276 H 0.43217 0.11607 0.16945 0.0
H277 H 0.44729 0.05208 0.13858 0.0
C278 C 0.65613 0.93067 0.10954 0.0
C279 C 0.67866 0.96638 0.09874 0.0
C280 C 0.61438 0.92955 0.11886 0.0
C281 C 0.5939 0.96365 0.1166 0.0
C282 C 0.61651 -0.00106 0.1052 0.0
C283 C 0.65826 0.00041 0.0967 0.0
C284 C 0.54946 0.96352 0.12671 0.0
C285 C 0.53877 -0.00232 0.1464 0.0
C286 C 0.5175 0.93084 0.11671 0.0
C287 C 0.52552 0.89495 0.09438 0.0
C288 C 0.54333 0.90035 0.06379 0.0
C289 C 0.55115 0.86635 0.04296 0.0
C290 C 0.54099 0.82678 0.05238 0.0
C291 C 0.52288 0.82112 0.08261 0.0
C292 C 0.51503 0.85503 0.10355 0.0
C293 C 0.34841 0.96159 0.14876 0.0
C294 C 0.34066 0.97083 0.18191 0.0
C295 C 0.38895 0.95944 0.13736 0.0
C296 C 0.42245 0.96651 0.15887 0.0
C297 C 0.41427 0.9739 0.19206 0.0
C298 C 0.37409 0.9763 0.20338 0.0
C299 C 0.46604 0.96681 0.147 0.0
C300 C 0.47649 0.93271 0.12726 0.0
C301 C 0.49768 6e-05 0.1561 0.0
C302 C 0.48848 0.03851 0.17453 0.0
C303 C 0.50698 0.05223 0.20462 0.0
C304 C 0.49812 0.08845 0.222 0.0
C305 C 0.47114 0.1114 0.20934 0.0
C306 C 0.45292 0.09817 0.17929 0.0
C307 C 0.4615 0.06186 0.1619 0.0
H308 H 0.46438 0.13947 0.2228 0.0
H309 H 0.54709 0.80049 1.03622 0.0
H310 H 0.11744 0.3757 0.66906 0.0
H311 H 0.11045 0.44744 0.66364 0.0
H312 H 0.97893 0.41164 0.65012 0.0
H313 H 0.98677 0.34002 0.65291 0.0
H314 H 0.00051 0.46277 0.61228 0.0
H315 H 0.03071 0.46441 0.72489 0.0
H316 H 0.07056 0.45409 0.77203 0.0
H317 H 0.17459 0.53616 0.74035 0.0
H318 H 0.13555 0.54652 0.69279 0.0
H319 H 0.95066 0.66808 0.64116 0.0
H320 H 0.95618 0.59571 0.64483 0.0
H321 H 0.08913 0.62533 0.64416 0.0
H322 H 0.08397 0.6973 0.64123 0.0
H323 H 0.06534 0.57774 0.68945 0.0
H324 H 0.03042 0.57622 0.57673 0.0
H325 H 0.98734 0.58567 0.53118 0.0
H326 H 0.88667 0.50255 0.56638 0.0
H327 H 0.92894 0.49308 0.61239 0.0
C328 C 0.08721 0.38346 0.66486 0.0
C329 C 0.05265 0.35266 0.6613 0.0
C330 C 0.08304 0.42447 0.66204 0.0
C331 C 0.04393 0.43552 0.65705 0.0
C332 C 0.00948 0.40434 0.6538 0.0
C333 C 0.0139 0.36338 0.65551 0.0
C334 C 0.03853 0.47917 0.65464 0.0
C335 C 0.01424 0.48774 0.62954 0.0
C336 C 0.05684 0.51227 0.67664 0.0
C337 C 0.08036 0.50591 0.70514 0.0
C338 C 0.06219 0.48001 0.72787 0.0
C339 C 0.08462 0.47418 0.75467 0.0
C340 C 0.12512 0.49437 0.75914 0.0
C341 C 0.14325 0.52049 0.73684 0.0
C342 C 0.12099 0.52636 0.70997 0.0
C343 C 0.98107 0.65918 0.6419 0.0
C344 C 0.01685 0.68871 0.64105 0.0
C345 C 0.98418 0.61768 0.64372 0.0
C346 C 0.02313 0.60484 0.64447 0.0
C347 C 0.05874 0.63433 0.64365 0.0
C348 C 0.05568 0.67564 0.64195 0.0
C349 C 0.02737 0.56113 0.64721 0.0
C350 C 0.05148 0.55262 0.67235 0.0
C351 C 0.00824 0.52806 0.62562 0.0
C352 C 0.98269 0.53437 0.59822 0.0
C353 C -0.00105 0.56032 0.57495 0.0
C354 C 0.9747 0.56559 0.549 0.0
C355 C 0.93425 0.54484 0.54595 0.0
C356 C 0.91797 0.5187 0.56881 0.0
C357 C 0.94205 0.51337 0.59482 0.0
H358 H 0.91556 0.54892 0.52582 0.0
H359 H 0.14242 0.48984 0.77992 0.0
H360 H 0.14498 0.29041 0.61029 0.0
H361 H 0.19354 0.29174 0.56451 0.0
H362 H 0.21895 0.17152 0.58041 0.0
H363 H 0.16817 0.16898 0.62492 0.0
H364 H 0.29059 0.24505 0.55614 0.0
H365 H 0.1643 0.15164 0.53729 0.0
H366 H 0.08995 0.12645 0.53735 0.0
H367 H 0.0691 0.22065 0.47927 0.0
H368 H 0.14324 0.24937 0.48197 0.0
H369 H 0.33695 0.1559 0.39714 0.0
H370 H 0.3207 0.1756 0.45367 0.0
H371 H 0.24906 0.26431 0.42454 0.0
H372 H 0.26436 0.24377 0.36785 0.0
H373 H 0.2048 0.20874 0.45765 0.0
H374 H 0.33872 0.29347 0.4708 0.0
H375 H 0.41474 0.30563 0.46613 0.0
H376 H 0.42277 0.21128 0.52773 0.0
H377 H 0.34677 0.19824 0.53247 0.0
C378 C 0.16198 0.26491 0.60453 0.0
C379 C 0.15325 0.22957 0.62066 0.0
C380 C 0.18962 0.26573 0.57859 0.0
C381 C 0.20936 0.23163 0.56926 0.0
C382 C 0.2039 0.19807 0.58755 0.0
C383 C 0.17501 0.19657 0.61274 0.0
C384 C 0.22901 0.22808 0.5373 0.0
C385 C 0.27208 0.23702 0.5345 0.0
C386 C 0.20449 0.21756 0.50935 0.0
C387 C 0.15929 0.20343 0.51072 0.0
C388 C 0.14377 0.16821 0.52581 0.0
C389 C 0.10164 0.153 0.52506 0.0
C390 C 0.07487 0.17139 0.50784 0.0
C391 C 0.08989 0.20636 0.49261 0.0
C392 C 0.13192 0.22254 0.49418 0.0
C393 C 0.31892 0.18057 0.40296 0.0
C394 C 0.30172 0.19836 0.37842 0.0
C395 C 0.30982 0.19192 0.43521 0.0
C396 C 0.28399 0.22163 0.44321 0.0
C397 C 0.26922 0.24144 0.41874 0.0
C398 C 0.27783 0.2297 0.38651 0.0
C399 C 0.26658 0.2268 0.47605 0.0
C400 C 0.22357 0.21778 0.47911 0.0
C401 C 0.29135 0.23613 0.50399 0.0
C402 C 0.33705 0.24482 0.50191 0.0
C403 C 0.3567 0.27525 0.48328 0.0
C404 C 0.39979 0.2823 0.48062 0.0
C405 C 0.42357 0.25923 0.49661 0.0
C406 C 0.40431 0.22917 0.51539 0.0
C407 C 0.36124 0.22201 0.51814 0.0
H408 H 0.45692 0.26467 0.49446 0.0
H409 H 0.04269 0.15806 0.50597 0.0
H410 H 0.95693 0.3006 0.74076 0.0
H411 H 0.9055 0.2851 0.7828 0.0
H412 H 0.85636 0.17179 0.72642 0.0
H413 H 0.9076 0.18757 0.68396 0.0
H414 H 0.80885 0.24567 0.78619 0.0
H415 H 0.88696 0.12358 0.76147 0.0
H416 H 0.94862 0.09113 0.74624 0.0
H417 H 0.02358 0.1844 0.80784 0.0
H418 H 0.96231 0.21732 0.82346 0.0
H419 H 0.75753 0.15455 0.9348 0.0
H420 H 0.76744 0.16892 0.87862 0.0
H421 H 0.89164 0.22939 0.90031 0.0
H422 H 0.88208 0.21426 0.95647 0.0
H423 H 0.88911 0.16935 0.85174 0.0
H424 H 0.81557 0.28376 0.88344 0.0
H425 H 0.75643 0.31517 0.90675 0.0
H426 H 0.67599 0.24112 0.83612 0.0
H427 H 0.73463 0.20894 0.81265 0.0
C428 C 0.93338 0.27382 0.73652 0.0
C429 C 0.93572 0.24521 0.70957 0.0
C430 C 0.90427 0.26487 0.76045 0.0
C431 C 0.87795 0.22716 0.75749 0.0
C432 C 0.87663 0.20104 0.72871 0.0
C433 C 0.90552 0.21027 0.7045 0.0
C434 C 0.85999 0.21205 0.78699 0.0
C435 C 0.82541 0.22788 0.80033 0.0
C436 C 0.88277 0.19001 0.8054 0.0
C437 C 0.92028 0.17334 0.79303 0.0
C438 C 0.91678 0.13768 0.77114 0.0
C439 C 0.95162 0.11907 0.76263 0.0
C440 C 0.99009 0.13595 0.77585 0.0
C441 C -0.00612 0.17163 0.79739 0.0
C442 C 0.95912 0.19025 0.80608 0.0
C443 C 0.78644 0.17203 0.92769 0.0
C444 C 0.81908 0.18363 0.9496 0.0
C445 C 0.79204 0.18008 0.89573 0.0
C446 C 0.83012 0.20023 0.88565 0.0
C447 C 0.86204 0.21374 0.90792 0.0
C448 C 0.85661 0.20529 0.93979 0.0
C449 C 0.83833 0.20369 0.85135 0.0
C450 C 0.87139 0.18584 0.83735 0.0
C451 C 0.81433 0.22409 0.8326 0.0
C452 C 0.77931 0.24372 0.84651 0.0
C453 C 0.7852 0.27401 0.87304 0.0
C454 C 0.7518 0.29197 0.88625 0.0
C455 C 0.71246 0.28008 0.87298 0.0
C456 C 0.70647 0.25028 0.8464 0.0
C457 C 0.73977 0.23221 0.83311 0.0
H458 H 0.68662 0.29401 0.88324 0.0
H459 H 0.01689 0.12115 0.76975 0.0
H460 H 0.82974 0.85422 0.47732 0.0
H461 H 0.80491 0.85569 0.42259 0.0
H462 H 0.79041 0.72329 0.40752 0.0
H463 H 0.81607 0.72163 0.46194 0.0
H464 H 0.83117 0.76235 0.35751 0.0
H465 H 0.7067 0.76713 0.42167 0.0
H466 H 0.66523 0.79485 0.46664 0.0
H467 H 0.68361 0.91251 0.42972 0.0
H468 H 0.72564 0.88558 0.38474 0.0
H469 H 0.73492 0.74487 0.20913 0.0
H470 H 0.73746 0.73536 0.26648 0.0
H471 H 0.7516 0.86669 0.29099 0.0
H472 H 0.74923 0.87645 0.23403 0.0
H473 H 0.70681 0.82431 0.33676 0.0
H474 H 0.83548 0.82626 0.27834 0.0
H475 H 0.88136 0.80463 0.23405 0.0
H476 H 0.86061 0.68151 0.26093 0.0
H477 H 0.81411 0.70237 0.30515 0.0
C478 C 0.8213 0.8255 0.46225 0.0
C479 C 0.82432 0.78778 0.47373 0.0
C480 C 0.80693 0.82637 0.43124 0.0
C481 C 0.79536 0.78954 0.41153 0.0
C482 C 0.79892 0.7519 0.42272 0.0
C483 C 0.81321 0.751 0.45373 0.0
C484 C 0.78036 0.79037 0.37884 0.0
C485 C 0.80351 0.77508 0.35291 0.0
C486 C 0.74511 0.8083 0.3732 0.0
C487 C 0.71948 0.8244 0.39998 0.0
C488 C 0.70208 0.79897 0.42326 0.0
C489 C 0.67846 0.81453 0.44873 0.0
C490 C 0.67184 0.85543 0.45106 0.0
C491 C 0.68876 0.88084 0.42789 0.0
C492 C 0.71243 0.86543 0.40237 0.0
C493 C 0.73734 0.77153 0.22689 0.0
C494 C 0.74224 0.81131 0.21729 0.0
C495 C 0.73873 0.7661 0.25947 0.0
C496 C 0.74539 0.80042 0.28258 0.0
C497 C 0.74636 0.83993 0.27333 0.0
C498 C 0.74487 0.84539 0.2408 0.0
C499 C 0.75729 0.79579 0.31548 0.0
C500 C 0.73394 0.81079 0.3414 0.0
C501 C 0.79288 0.77833 0.32119 0.0
C502 C 0.82092 0.76572 0.29474 0.0
C503 C 0.84042 0.7945 0.27461 0.0
C504 C 0.86659 0.7824 0.24957 0.0
C505 C 0.87378 0.74168 0.2446 0.0
C506 C 0.85493 0.71302 0.26476 0.0
C507 C 0.82868 0.72495 0.28982 0.0
H508 H 0.89405 0.73237 0.2252 0.0
H509 H 0.65355 0.86743 0.47081 0.0
H510 H 0.25492 0.81082 0.77406 0.0
H511 H 0.26768 0.80652 0.8313 0.0
H512 H 0.13825 0.76271 0.84572 0.0
H513 H 0.12506 0.76754 0.78915 0.0
H514 H 0.17329 0.8401 0.88138 0.0
H515 H 0.1988 0.69934 0.85367 0.0
H516 H 0.23569 0.64718 0.82396 0.0
H517 H 0.35055 0.70869 0.86506 0.0
H518 H 0.31439 0.76155 0.89467 0.0
H519 H 0.1689 0.77106 0.04425 0.0
H520 H 0.17748 0.75401 0.98597 0.0
H521 H 0.25842 0.86872 0.98058 0.0
H522 H 0.2497 0.8864 1.03862 0.0
H523 H 0.25247 0.75544 0.9403 0.0
H524 H 0.20909 0.91039 0.91914 0.0
H525 H 0.17445 0.96619 0.94601 0.0
H526 H 0.09862 0.88001 1.00061 0.0
H527 H 0.13194 0.82354 0.97339 0.0
C528 C 0.22948 0.79934 0.78936 0.0
C529 C 0.18905 0.78969 0.77735 0.0
C530 C 0.23684 0.79666 0.8218 0.0
C531 C 0.20381 0.78432 0.84229 0.0
C532 C 0.164 0.77203 0.82993 0.0
C533 C 0.15663 0.7746 0.79762 0.0
C534 C 0.20914 0.79036 0.87727 0.0
C535 C 0.19058 0.82161 0.89432 0.0
C536 C 0.23243 0.76665 0.89361 0.0
C537 C 0.25395 0.73455 0.87616 0.0
C538 C 0.23196 0.7019 0.85617 0.0
C539 C 0.25273 0.67218 0.83939 0.0
C540 C 0.29545 0.67466 0.84257 0.0
C541 C 0.31747 0.70681 0.86261 0.0
C542 C 0.29685 0.73663 0.87942 0.0
C543 C 0.18907 0.79224 1.03067 0.0
C544 C 0.20828 0.83015 0.04566 0.0
C545 C 0.1943 0.7823 0.99766 0.0
C546 C 0.21836 0.81042 0.97947 0.0
C547 C 0.23977 0.84697 0.99464 0.0
C548 C 0.23476 0.85687 1.02762 0.0
C549 C 0.21586 0.80455 0.94432 0.0
C550 C 0.23528 0.77387 0.92727 0.0
C551 C 0.19374 0.82919 0.92775 0.0
C552 C 0.17348 0.86283 0.94455 0.0
C553 C 0.18494 0.90334 0.93682 0.0
C554 C 0.1654 0.93504 0.95199 0.0
C555 C 0.1344 0.92664 0.97502 0.0
C556 C 0.12276 0.88648 0.98285 0.0
C557 C 0.14197 0.8546 0.96754 0.0
H558 H 0.11939 0.95124 0.98675 0.0
H559 H 0.31148 0.65163 0.82954 0.0
H560 H 0.86893 0.90129 0.99195 0.0
H561 H 0.89478 0.88288 0.93772 0.0
H562 H 0.82391 0.96575 0.89969 0.0
H563 H 0.79863 0.98566 0.9546 0.0
H564 H 0.83295 0.85693 0.8729 0.0
H565 H 0.88857 0.00653 0.88296 0.0
H566 H 0.92643 0.06842 0.9134 0.0
H567 H 0.03045 0.00562 0.92169 0.0
H568 H -0.00734 0.94298 0.89197 0.0
H569 H 0.90016 0.84093 0.70738 0.0
H570 H 0.87199 0.86194 0.76041 0.0
H571 H -0.00703 0.87343 0.80189 0.0
H572 H 0.02144 0.8525 0.74856 0.0
H573 H 0.95867 0.93542 0.82802 0.0
H574 H 0.91143 0.7916 0.81284 0.0
H575 H 0.87698 0.72515 0.78677 0.0
H576 H 0.76082 0.77058 0.79155 0.0
H577 H 0.7947 0.8376 0.81712 0.0
C578 C 0.85854 0.91585 0.97224 0.0
C579 C 0.83124 0.94515 0.97821 0.0
C580 C 0.87367 0.9052 0.94098 0.0
C581 C 0.86198 0.92306 0.91421 0.0
C582 C 0.83416 0.9518 0.91978 0.0
C583 C 0.81945 0.96309 0.95133 0.0
C584 C 0.87857 0.91088 0.88077 0.0
C585 C 0.85988 0.87464 0.86275 0.0
C586 C 0.91497 0.93248 0.86783 0.0
C587 C 0.93749 0.9699 0.88585 0.0
C588 C 0.9192 0.0057 0.89179 0.0
C589 C 0.94071 0.04096 0.90879 0.0
C590 C 0.98075 0.04089 0.91962 0.0
C591 C -0.00063 0.00557 0.91342 0.0
C592 C 0.97789 0.97018 0.89655 0.0
C593 C 0.92099 0.84776 0.7277 0.0
C594 C 0.96335 0.84456 0.72321 0.0
C595 C 0.90461 0.85967 0.75838 0.0
C596 C 0.92984 0.86905 0.78597 0.0
C597 C 0.97232 0.86639 0.78146 0.0
C598 C 0.9887 0.8541 0.75075 0.0
C599 C 0.9121 0.88205 0.8191 0.0
C600 C 0.93114 0.91798 0.83754 0.0
C601 C 0.87606 0.85987 0.8325 0.0
C602 C 0.85576 0.81987 0.81651 0.0
C603 C 0.87864 0.78762 0.80798 0.0
C604 C 0.85919 0.74981 0.79336 0.0
C605 C 0.81677 0.7437 0.7874 0.0
C606 C 0.7937 0.7754 0.79608 0.0
C607 C 0.81302 0.81331 0.81063 0.0
H608 H 0.80175 0.71437 0.77615 0.0
H609 H -0.00259 0.06826 0.93269 0.0
H610 H 0.14751 -0.00039 0.30757 0.0
H611 H 0.11509 0.96859 0.3543 0.0
H612 H 0.2158 0.89917 0.35837 0.0
H613 H 0.24561 0.92715 0.30931 0.0
H614 H 0.15801 0.85312 0.37587 0.0
H615 H 0.19578 0.99341 0.42008 0.0
H616 H 0.20133 0.06808 0.41702 0.0
H617 H 0.06956 0.05671 0.41069 0.0
H618 H 0.0629 0.98218 0.41525 0.0
H619 H 0.12036 0.81534 0.54202 0.0
H620 H 0.14817 0.84568 0.49343 0.0
H621 H 0.026 0.86384 0.46845 0.0
H622 H -0.00227 0.8326 0.51687 0.0
H623 H 0.09286 0.93633 0.4631 0.0
H624 H 0.06385 0.78954 0.42803 0.0
H625 H 0.0701 0.71748 0.434 0.0
H626 H 0.20217 0.7456 0.42618 0.0
H627 H 0.19675 0.81801 0.42073 0.0
C628 C 0.16305 0.9782 0.31878 0.0
C629 C 0.19991 0.96686 0.30516 0.0
C630 C 0.14459 0.96053 0.34599 0.0
C631 C 0.16329 0.93223 0.36159 0.0
C632 C 0.20024 0.92091 0.34764 0.0
C633 C 0.2178 0.93739 0.31963 0.0
C634 C 0.14413 0.9138 0.39165 0.0
C635 C 0.14437 0.87185 0.39491 0.0
C636 C 0.12572 0.93716 0.41727 0.0
C637 C 0.12888 0.98232 0.41802 0.0
C638 C 0.16792 0.007 0.41864 0.0
C639 C 0.17121 0.04926 0.41677 0.0
C640 C 0.13569 0.06714 0.41403 0.0
C641 C 0.09684 0.04283 0.41349 0.0
C642 C 0.09324 0.00068 0.41607 0.0
C643 C 0.09909 0.82473 0.52582 0.0
C644 C 0.05644 0.82023 0.53326 0.0
C645 C 0.11521 0.84265 0.49808 0.0
C646 C 0.08944 0.85738 0.47692 0.0
C647 C 0.04679 0.85288 0.48414 0.0
C648 C 0.03047 0.83419 0.51165 0.0
C649 C 0.10707 0.87604 0.44689 0.0
C650 C 0.10655 0.91794 0.44383 0.0
C651 C 0.12681 0.85307 0.42208 0.0
C652 C 0.12989 0.80923 0.42413 0.0
C653 C 0.09423 0.78039 0.4277 0.0
C654 C 0.09763 0.73949 0.43102 0.0
C655 C 0.13651 0.72698 0.43051 0.0
C656 C 0.17207 0.75533 0.42657 0.0
C657 C 0.16885 0.79629 0.42333 0.0
H658 H 0.13908 0.69532 0.43313 0.0
H659 H 0.13826 0.09977 0.41213 0.0
H660 H 0.08828 0.18761 0.90828 0.0
H661 H 0.10727 0.16465 0.9588 0.0
H662 H 0.21874 0.13028 0.91413 0.0
H663 H 0.19947 0.15256 0.86326 0.0
H664 H 0.19653 0.077 0.9516 0.0
H665 H 0.21419 0.22156 0.97297 0.0
H666 H 0.19719 0.29187 0.97606 0.0
H667 H 0.09676 0.25951 0.04125 0.0
H668 H 0.11295 0.18882 1.0383 0.0
H669 H 0.28198 0.05152 0.10595 0.0
H670 H 0.27063 0.07776 0.05423 0.0
H671 H 0.15153 0.10457 0.08864 0.0
H672 H 0.1633 0.07864 0.13996 0.0
H673 H 0.18161 0.16206 0.05536 0.0
H674 H 0.1795 0.0147 1.03568 0.0
H675 H 0.20929 0.95055 1.03256 0.0
H676 H 0.29827 0.9961 0.96262 0.0
H677 H 0.26906 0.0607 0.96572 0.0
C678 C 0.11708 0.17552 0.90902 0.0
C679 C 0.14221 0.17257 0.88102 0.0
C680 C 0.12815 0.16233 0.93836 0.0
C681 C 0.16525 0.14622 0.94135 0.0
C682 C 0.18999 0.14246 0.91323 0.0
C683 C 0.17875 0.15531 0.88376 0.0
C684 C 0.17807 0.13339 0.97345 0.0
C685 C 0.19371 0.09606 0.97416 0.0
C686 C 0.17483 0.15758 1.00354 0.0
C687 C 0.16451 0.1998 1.00514 0.0
C688 C 0.18827 0.22935 0.98776 0.0
C689 C 0.17884 0.26928 0.98953 0.0
C690 C 0.14585 0.28011 1.00877 0.0
C691 C 0.12227 0.25104 1.02632 0.0
C692 C 0.13159 0.21105 1.02464 0.0
C693 C 0.25349 0.06325 0.10251 0.0
C694 C 0.22315 0.06221 0.12714 0.0
C695 C 0.24669 0.07794 0.07261 0.0
C696 C 0.20925 0.09201 0.06631 0.0
C697 C 0.18016 0.09299 0.09181 0.0
C698 C 0.18679 0.07794 0.12137 0.0
C699 C 0.19968 0.10546 1.03365 0.0
C700 C 0.18446 0.14295 1.03282 0.0
C701 C 0.20497 0.08207 1.00339 0.0
C702 C 0.22196 0.04271 1.00111 0.0
C703 C 0.20521 0.01099 1.01961 0.0
C704 C 0.22222 0.97463 1.01799 0.0
C705 C 0.25582 0.96935 0.99751 0.0
C706 C 0.27228 0.00029 0.97853 0.0
C707 C 0.25548 0.03681 0.98027 0.0
H708 H 0.26916 0.94135 0.99633 0.0
H709 H 0.13862 0.31106 1.01014 0.0
H710 H 0.79429 0.97998 0.19781 0.0
H711 H 0.81543 0.00752 0.2532 0.0
H712 H 0.90068 0.10386 0.21586 0.0
H713 H 0.87942 0.07712 0.16071 0.0
H714 H 0.9351 0.06067 0.2656 0.0
H715 H 0.82351 0.13379 0.24911 0.0
H716 H 0.75285 0.14155 0.23449 0.0
H717 H 0.70301 0.06792 0.30913 0.0
H718 H 0.77345 0.05932 0.32394 0.0
H719 H 0.99033 0.1787 0.41719 0.0
H720 H 0.97023 0.15516 0.36141 0.0
H721 H 0.85792 0.08612 0.39496 0.0
H722 H 0.87669 0.11122 0.45065 0.0
H723 H 0.83818 0.11688 0.34553 0.0
H724 H 0.94734 0.03886 0.35978 0.0
H725 H 0.01661 0.02463 0.37203 0.0
H726 H 0.07051 0.10386 0.30217 0.0
H727 H 0.00138 0.11789 0.28909 0.0
C728 C 0.81758 0.00702 0.20132 0.0
C729 C 0.83493 0.02616 0.17441 0.0
C730 C 0.82966 0.02287 0.23315 0.0
C731 C 0.86005 0.05786 0.23911 0.0
C732 C 0.87763 0.07671 0.21227 0.0
C733 C 0.86508 0.0614 0.18055 0.0
C734 C 0.87345 0.07472 0.27315 0.0
C735 C 0.91403 0.0735 0.28292 0.0
C736 C 0.84609 0.09077 0.29634 0.0
C737 C 0.80371 0.0955 0.28737 0.0
C738 C 0.79746 0.11888 0.26217 0.0
C739 C 0.75746 0.12354 0.25391 0.0
C740 C 0.72345 0.10513 0.2708 0.0
C741 C 0.72939 0.0821 0.29603 0.0
C742 C 0.76935 0.07736 0.30439 0.0
C743 C 0.96104 0.15891 0.41296 0.0
C744 C 0.93543 0.14722 0.43928 0.0
C745 C 0.94977 0.14474 0.38065 0.0
C746 C 0.9126 0.11792 0.37321 0.0
C747 C 0.88684 0.10652 0.3994 0.0
C748 C 0.89798 0.12077 0.43167 0.0
C749 C 0.90001 0.10251 0.33847 0.0
C750 C 0.85948 0.10411 0.3284 0.0
C751 C 0.92743 0.08657 0.31503 0.0
C752 C 0.96923 0.07978 0.32372 0.0
C753 C 0.97402 0.05353 0.34725 0.0
C754 C 0.01327 0.04536 0.35423 0.0
C755 C 0.04805 0.06352 0.33801 0.0
C756 C 0.04358 0.0898 0.3147 0.0
C757 C 0.00433 0.09771 0.30737 0.0
H758 H 0.07843 0.0571 0.34341 0.0
H759 H 0.6925 0.1088 0.26439 0.0
loop_
_geom_bond_atom_site_label_1
_geom_bond_atom_site_label_2
_geom_bond_distance
_geom_bond_site_symmetry_2
_ccdc_geom_bond_type
Tb0 C9 2.764 . S
Tb0 O10 2.325 1_565 S
Tb0 O13 2.303 1_565 S
Tb0 O17 2.322 . S
Tb0 O18 2.349 . S
Tb0 O21 2.415 . S
Tb0 O22 2.399 . S
Tb1 O11 2.322 . S
Tb1 O12 2.349 . S
Tb1 O14 2.415 . S
Tb1 O15 2.399 . S
Tb1 O16 2.325 . S
Tb1 O19 2.303 . S
Tb1 C30 2.764 . S
C2 O18 1.261 1_545 S
C2 O19 1.257 . S
C3 C6 1.358 . S
C3 C7 1.332 . S
C3 C9 1.504 . S
C4 C5 1.373 . S
C4 C8 1.308 . S
C5 C4 1.373 . S
C5 C6 1.429 1_556 S
C5 H32 0.932 . S
C6 C3 1.358 . S
C6 C5 1.429 1_554 S
C6 H33 0.930 . S
C7 C3 1.332 . S
C7 C8 1.394 1_554 S
C7 H34 0.932 . S
C8 C4 1.308 . S
C8 C7 1.394 1_556 S
C8 H35 0.929 . S
C9 Tb0 2.764 . S
C9 C3 1.504 . S
C9 O21 1.239 . S
C9 O22 1.263 . S
O10 Tb0 2.325 1_545 S
O10 C20 1.236 . S
O11 Tb1 2.322 . S
O11 C20 1.257 . S
O12 Tb1 2.349 . S
O12 C23 1.261 . S
O13 Tb0 2.303 1_545 S
O13 C23 1.257 . S
O14 Tb1 2.415 . S
O14 C30 1.239 . S
O15 Tb1 2.399 . S
O15 C30 1.263 . S
O16 Tb1 2.325 . S
O16 C31 1.236 1_545 S
O17 Tb0 2.322 . S
O17 C31 1.257 . S
O18 Tb0 2.349 . S
O18 C2 1.261 1_565 S
O19 Tb1 2.303 . S
O19 C2 1.257 . S
C20 O10 1.236 . S
C20 O11 1.257 . S
O21 Tb0 2.415 . S
O21 C9 1.239 . S
O22 Tb0 2.399 . S
O22 C9 1.263 . S
C23 O12 1.261 . S
C23 O13 1.257 . S
C24 C27 1.358 . S
C24 C28 1.332 . S
C24 C30 1.504 . S
C25 C26 1.373 . S
C25 C29 1.308 . S
C26 C25 1.373 . S
C26 C27 1.429 . S
C26 H36 0.932 . S
C27 C24 1.358 . S
C27 C26 1.429 . S
C27 H37 0.930 . S
C28 C24 1.332 . S
C28 C29 1.394 . S
C28 H38 0.932 . S
C29 C25 1.308 . S
C29 C28 1.394 . S
C29 H39 0.929 . S
C30 Tb1 2.764 . S
C30 O14 1.239 . S
C30 O15 1.263 . S
C30 C24 1.504 . S
C31 O16 1.236 1_565 S
C31 O17 1.257 . S
H32 C5 0.932 . S
H33 C6 0.930 . S
H34 C7 0.932 . S
H35 C8 0.929 . S
H36 C26 0.932 . S
H37 C27 0.930 . S
H38 C28 0.932 . S
H39 C29 0.929 . S
Tb40 C49 2.764 . S
Tb40 O50 2.325 . S
Tb40 O53 2.303 . S
Tb40 O57 2.322 . S
Tb40 O58 2.349 . S
Tb40 O61 2.415 . S
Tb40 O62 2.399 . S
Tb41 O51 2.322 . S
Tb41 O52 2.349 . S
Tb41 O54 2.414 1_455 S
Tb41 O55 2.399 1_455 S
Tb41 O56 2.325 . S
Tb41 O59 2.303 . S
Tb41 C70 2.764 1_455 S
C42 O58 1.261 . S
C42 O59 1.257 . S
C43 C46 1.358 . S
C43 C47 1.332 . S
C43 C49 1.504 . S
C44 C45 1.373 . S
C44 C48 1.308 . S
C45 C44 1.373 . S
C45 C46 1.429 . S
C45 H72 0.932 . S
C46 C43 1.358 . S
C46 C45 1.429 . S
C46 H73 0.930 . S
C47 C43 1.332 . S
C47 C48 1.394 . S
C47 H74 0.932 . S
C48 C44 1.308 . S
C48 C47 1.394 . S
C48 H75 0.929 . S
C49 Tb40 2.764 . S
C49 C43 1.504 . S
C49 O61 1.239 . S
C49 O62 1.263 . S
O50 Tb40 2.325 . S
O50 C60 1.236 . S
O51 Tb41 2.322 . S
O51 C60 1.257 . S
O52 Tb41 2.349 . S
O52 C63 1.261 . S
O53 Tb40 2.303 . S
O53 C63 1.257 . S
O54 Tb41 2.414 1_655 S
O54 C70 1.240 . S
O55 Tb41 2.399 1_655 S
O55 C70 1.263 . S
O56 Tb41 2.325 . S
O56 C71 1.236 . S
O57 Tb40 2.322 . S
O57 C71 1.257 . S
O58 Tb40 2.349 . S
O58 C42 1.261 . S
O59 Tb41 2.303 . S
O59 C42 1.257 . S
C60 O50 1.236 . S
C60 O51 1.257 . S
O61 Tb40 2.415 . S
O61 C49 1.239 . S
O62 Tb40 2.399 . S
O62 C49 1.263 . S
C63 O52 1.261 . S
C63 O53 1.257 . S
C64 C67 1.358 . S
C64 C68 1.332 . S
C64 C70 1.504 . S
C65 C66 1.373 . S
C65 C69 1.308 . S
C66 C65 1.373 . S
C66 C67 1.429 . S
C66 H76 0.932 . S
C67 C64 1.358 . S
C67 C66 1.429 . S
C67 H77 0.930 . S
C68 C64 1.332 . S
C68 C69 1.394 . S
C68 H78 0.932 . S
C69 C65 1.308 . S
C69 C68 1.394 . S
C69 H79 0.929 . S
C70 Tb41 2.764 1_655 S
C70 O54 1.240 . S
C70 O55 1.263 . S
C70 C64 1.504 . S
C71 O56 1.236 . S
C71 O57 1.257 . S
H72 C45 0.932 . S
H73 C46 0.930 . S
H74 C47 0.932 . S
H75 C48 0.929 . S
H76 C66 0.932 . S
H77 C67 0.930 . S
H78 C68 0.932 . S
H79 C69 0.929 . S
Tb80 C89 2.764 . S
Tb80 O90 2.325 1_565 S
Tb80 O93 2.303 . S
Tb80 O97 2.322 . S
Tb80 O98 2.349 . S
Tb80 O101 2.415 . S
Tb80 O102 2.399 . S
Tb81 O91 2.322 . S
Tb81 O92 2.349 . S
Tb81 O94 2.415 1_554 S
Tb81 O95 2.399 1_554 S
Tb81 O96 2.325 1_545 S
Tb81 O99 2.303 . S
Tb81 C110 2.764 1_554 S
C82 O98 1.261 . S
C82 O99 1.257 1_565 S
C83 C86 1.358 . S
C83 C87 1.332 . S
C83 C89 1.504 . S
C84 C85 1.373 . S
C84 C88 1.308 . S
C85 C84 1.373 . S
C85 C86 1.429 . S
C85 H112 0.932 . S
C86 C83 1.358 . S
C86 C85 1.429 . S
C86 H113 0.930 . S
C87 C83 1.332 . S
C87 C88 1.394 . S
C87 H114 0.932 . S
C88 C84 1.308 . S
C88 C87 1.394 . S
C88 H115 0.929 . S
C89 Tb80 2.764 . S
C89 C83 1.504 . S
C89 O101 1.239 . S
C89 O102 1.263 . S
O90 Tb80 2.325 1_545 S
O90 C100 1.236 . S
O91 Tb81 2.322 . S
O91 C100 1.257 . S
O92 Tb81 2.349 . S
O92 C103 1.261 . S
O93 Tb80 2.303 . S
O93 C103 1.257 1_565 S
O94 Tb81 2.415 1_556 S
O94 C110 1.239 . S
O95 Tb81 2.399 1_556 S
O95 C110 1.263 . S
O96 Tb81 2.325 1_565 S
O96 C111 1.236 . S
O97 Tb80 2.322 . S
O97 C111 1.257 . S
O98 Tb80 2.349 . S
O98 C82 1.261 . S
O99 Tb81 2.303 . S
O99 C82 1.257 1_545 S
C100 O90 1.236 . S
C100 O91 1.257 . S
O101 Tb80 2.415 . S
O101 C89 1.239 . S
O102 Tb80 2.399 . S
O102 C89 1.263 . S
C103 O92 1.261 . S
C103 O93 1.257 1_545 S
C104 C107 1.358 . S
C104 C108 1.332 . S
C104 C110 1.504 . S
C105 C106 1.373 . S
C105 C109 1.308 . S
C106 C105 1.373 . S
C106 C107 1.429 . S
C106 H116 0.932 . S
C107 C104 1.358 . S
C107 C106 1.429 . S
C107 H117 0.930 . S
C108 C104 1.332 . S
C108 C109 1.394 . S
C108 H118 0.932 . S
C109 C105 1.308 . S
C109 C108 1.394 . S
C109 H119 0.929 . S
C110 Tb81 2.764 1_556 S
C110 O94 1.239 . S
C110 O95 1.263 . S
C110 C104 1.504 . S
C111 O96 1.236 . S
C111 O97 1.257 . S
H112 C85 0.932 . S
H113 C86 0.930 . S
H114 C87 0.932 . S
H115 C88 0.929 . S
H116 C106 0.932 . S
H117 C107 0.930 . S
H118 C108 0.932 . S
H119 C109 0.929 . S
Tb120 C129 2.764 . S
Tb120 O130 2.325 1_455 S
Tb120 O133 2.303 . S
Tb120 O137 2.322 . S
Tb120 O138 2.349 . S
Tb120 O141 2.415 . S
Tb120 O142 2.399 . S
Tb121 O131 2.322 . S
Tb121 O132 2.349 . S
Tb121 O134 2.415 . S
Tb121 O135 2.399 . S
Tb121 O136 2.325 1_655 S
Tb121 O139 2.303 . S
Tb121 C150 2.764 . S
C122 O138 1.261 . S
C122 O139 1.257 1_455 S
C123 C126 1.358 . S
C123 C127 1.332 . S
C123 C129 1.504 . S
C124 C125 1.373 . S
C124 C128 1.308 . S
C125 C124 1.373 . S
C125 C126 1.429 . S
C125 H152 0.932 . S
C126 C123 1.358 . S
C126 C125 1.429 . S
C126 H153 0.930 . S
C127 C123 1.332 . S
C127 C128 1.394 . S
C127 H154 0.932 . S
C128 C124 1.308 . S
C128 C127 1.394 . S
C128 H155 0.929 . S
C129 Tb120 2.764 . S
C129 C123 1.504 . S
C129 O141 1.239 . S
C129 O142 1.263 . S
O130 Tb120 2.325 1_655 S
O130 C140 1.236 . S
O131 Tb121 2.322 . S
O131 C140 1.257 . S
O132 Tb121 2.349 . S
O132 C143 1.261 . S
O133 Tb120 2.303 . S
O133 C143 1.257 1_455 S
O134 Tb121 2.415 . S
O134 C150 1.239 . S
O135 Tb121 2.399 . S
O135 C150 1.263 . S
O136 Tb121 2.325 1_455 S
O136 C151 1.236 . S
O137 Tb120 2.322 . S
O137 C151 1.257 . S
O138 Tb120 2.349 . S
O138 C122 1.261 . S
O139 Tb121 2.303 . S
O139 C122 1.257 1_655 S
C140 O130 1.236 . S
C140 O131 1.257 . S
O141 Tb120 2.415 . S
O141 C129 1.239 . S
O142 Tb120 2.399 . S
O142 C129 1.263 . S
C143 O132 1.261 . S
C143 O133 1.257 1_655 S
C144 C147 1.358 . S
C144 C148 1.332 . S
C144 C150 1.504 . S
C145 C146 1.373 . S
C145 C149 1.308 . S
C146 C145 1.373 . S
C146 C147 1.429 . S
C146 H156 0.932 . S
C147 C144 1.358 . S
C147 C146 1.429 . S
C147 H157 0.930 . S
C148 C144 1.332 . S
C148 C149 1.394 . S
C148 H158 0.932 . S
C149 C145 1.308 . S
C149 C148 1.394 . S
C149 H159 0.929 . S
C150 Tb121 2.764 . S
C150 O134 1.239 . S
C150 O135 1.263 . S
C150 C144 1.504 . S
C151 O136 1.236 . S
C151 O137 1.257 . S
H152 C125 0.932 . S
H153 C126 0.930 . S
H154 C127 0.932 . S
H155 C128 0.929 . S
H156 C146 0.932 . S
H157 C147 0.930 . S
H158 C148 0.932 . S
H159 C149 0.929 . S
H160 C178 0.951 . S
H161 C180 0.951 . S
H162 C182 0.950 . S
H163 C183 0.950 . S
H164 C185 0.950 1_655 S
H165 C188 0.950 . S
H166 C189 0.950 . S
H167 C191 0.950 . S
H168 C192 0.950 . S
H169 C193 0.951 . S
H170 C195 0.951 . S
H171 C197 0.950 . S
H172 C198 0.950 . S
H173 C200 0.950 . S
H174 C203 0.950 . S
H175 C204 0.950 . S
H176 C206 0.950 1_655 S
H177 C207 0.950 1_655 S
C178 H160 0.951 . S
C178 C179 1.366 . S
C178 C180 1.388 . S
C179 C178 1.366 . S
C179 C183 1.385 1_545 S
C180 H161 0.951 . S
C180 C178 1.388 . S
C180 C181 1.366 . S
C181 C180 1.366 . S
C181 C182 1.414 1_545 S
C181 C184 1.499 . S
C182 H162 0.950 . S
C182 C181 1.414 1_565 S
C182 C183 1.374 . S
C183 H163 0.950 . S
C183 C179 1.385 1_565 S
C183 C182 1.374 . S
C184 C181 1.499 . S
C184 C185 1.373 1_655 S
C184 C186 1.389 1_645 S
C185 H164 0.950 1_455 S
C185 C184 1.373 1_455 S
C185 C201 1.377 . S
C186 C184 1.389 1_465 S
C186 C187 1.524 . S
C186 C200 1.377 . S
C187 C186 1.524 . S
C187 C188 1.397 1_455 S
C187 C192 1.363 . S
C188 H165 0.950 . S
C188 C187 1.397 1_655 S
C188 C189 1.334 . S
C189 H166 0.950 . S
C189 C188 1.334 . S
C189 C190 1.287 1_654 S
C190 C189 1.287 1_456 S
C190 C191 1.524 . S
C190 H209 0.913 . S
C191 H167 0.950 . S
C191 C190 1.524 . S
C191 C192 1.415 1_556 S
C192 H168 0.950 . S
C192 C187 1.363 . S
C192 C191 1.415 1_554 S
C193 H169 0.951 . S
C193 C194 1.366 . S
C193 C195 1.388 . S
C194 C193 1.366 . S
C194 C198 1.385 . S
C195 H170 0.951 . S
C195 C193 1.388 . S
C195 C196 1.366 . S
C196 C195 1.366 . S
C196 C197 1.414 . S
C196 C199 1.499 . S
C197 H171 0.950 . S
C197 C196 1.414 . S
C197 C198 1.374 . S
C198 H172 0.950 . S
C198 C194 1.385 . S
C198 C197 1.374 . S
C199 C196 1.499 . S
C199 C200 1.373 1_545 S
C199 C201 1.389 . S
C200 H173 0.950 . S
C200 C186 1.377 . S
C200 C199 1.373 1_565 S
C201 C185 1.377 . S
C201 C199 1.389 . S
C201 C202 1.524 . S
C202 C201 1.524 . S
C202 C203 1.397 . S
C202 C207 1.363 . S
C203 H174 0.950 . S
C203 C202 1.397 . S
C203 C204 1.334 . S
C204 H175 0.950 . S
C204 C203 1.334 . S
C204 C205 1.287 . S
C205 C204 1.287 . S
C205 C206 1.524 . S
C205 H208 0.999 . S
C206 H176 0.950 1_455 S
C206 C205 1.524 . S
C206 C207 1.415 . S
C207 H177 0.950 1_455 S
C207 C202 1.363 . S
C207 C206 1.415 . S
H208 C205 0.999 . S
H209 C190 0.913 . S
H210 C228 0.951 . S
H211 C230 0.951 . S
H212 C232 0.950 . S
H213 C233 0.950 . S
H214 C235 0.950 . S
H215 C238 0.950 . S
H216 C239 0.950 . S
H217 C241 0.950 . S
H218 C242 0.950 1_545 S
H219 C243 0.951 . S
H220 C245 0.951 . S
H221 C247 0.950 1_655 S
H222 C248 0.950 . S
H223 C250 0.950 . S
H224 C253 0.950 . S
H225 C254 0.950 . S
H226 C256 0.950 . S
H227 C257 0.950 . S
C228 H210 0.951 . S
C228 C229 1.366 . S
C228 C230 1.388 . S
C229 C228 1.366 . S
C229 C233 1.385 1_655 S
C230 H211 0.951 . S
C230 C228 1.388 . S
C230 C231 1.366 1_655 S
C231 C230 1.366 1_455 S
C231 C232 1.414 . S
C231 C234 1.499 . S
C232 H212 0.950 . S
C232 C231 1.414 . S
C232 C233 1.374 . S
C233 H213 0.950 . S
C233 C229 1.385 1_455 S
C233 C232 1.374 . S
C234 C231 1.499 . S
C234 C235 1.373 . S
C234 C236 1.389 . S
C235 H214 0.950 . S
C235 C234 1.373 . S
C235 C251 1.377 1_565 S
C236 C234 1.389 . S
C236 C237 1.524 1_455 S
C236 C250 1.377 1_565 S
C237 C236 1.524 1_655 S
C237 C238 1.397 1_655 S
C237 C242 1.363 . S
C238 H215 0.950 . S
C238 C237 1.397 1_455 S
C238 C239 1.334 1_455 S
C239 H216 0.950 . S
C239 C238 1.334 1_655 S
C239 C240 1.287 . S
C240 C239 1.287 . S
C240 C241 1.524 . S
C240 H259 0.913 . S
C241 H217 0.950 . S
C241 C240 1.524 . S
C241 C242 1.415 . S
C242 H218 0.950 1_565 S
C242 C237 1.363 . S
C242 C241 1.415 . S
C243 H219 0.951 . S
C243 C244 1.366 . S
C243 C245 1.388 . S
C244 C243 1.366 . S
C244 C248 1.385 . S
C245 H220 0.951 . S
C245 C243 1.388 . S
C245 C246 1.366 . S
C246 C245 1.366 . S
C246 C247 1.414 . S
C246 C249 1.499 . S
C247 H221 0.950 1_455 S
C247 C246 1.414 . S
C247 C248 1.374 . S
C248 H222 0.950 . S
C248 C244 1.385 . S
C248 C247 1.374 . S
C249 C246 1.499 . S
C249 C250 1.373 . S
C249 C251 1.389 . S
C250 H223 0.950 . S
C250 C236 1.377 1_545 S
C250 C249 1.373 . S
C251 C235 1.377 1_545 S
C251 C249 1.389 . S
C251 C252 1.524 . S
C252 C251 1.524 . S
C252 C253 1.397 . S
C252 C257 1.363 . S
C253 H224 0.950 . S
C253 C252 1.397 . S
C253 C254 1.334 . S
C254 H225 0.950 . S
C254 C253 1.334 . S
C254 C255 1.287 . S
C255 C254 1.287 . S
C255 C256 1.524 . S
C255 H258 0.999 . S
C256 H226 0.950 . S
C256 C255 1.524 . S
C256 C257 1.415 . S
C257 H227 0.950 . S
C257 C252 1.363 . S
C257 C256 1.415 . S
H258 C255 0.999 . S
H259 C240 0.913 . S
H260 C278 0.951 . S
H261 C280 0.951 . S
H262 C282 0.950 . S
H263 C283 0.950 . S
H264 C285 0.950 . S
H265 C288 0.950 . S
H266 C289 0.950 . S
H267 C291 0.950 . S
H268 C292 0.950 . S
H269 C293 0.951 . S
H270 C295 0.951 . S
H271 C297 0.950 . S
H272 C298 0.950 . S
H273 C300 0.950 . S
H274 C303 0.950 . S
H275 C304 0.950 . S
H276 C306 0.950 . S
H277 C307 0.950 . S
C278 H260 0.951 . S
C278 C279 1.366 1_565 S
C278 C280 1.388 . S
C279 C278 1.366 1_545 S
C279 C283 1.385 . S
C280 H261 0.951 . S
C280 C278 1.388 . S
C280 C281 1.366 1_565 S
C281 C280 1.366 1_545 S
C281 C282 1.414 . S
C281 C284 1.499 . S
C282 H262 0.950 . S
C282 C281 1.414 . S
C282 C283 1.374 . S
C283 H263 0.950 . S
C283 C279 1.385 . S
C283 C282 1.374 . S
C284 C281 1.499 . S
C284 C285 1.373 . S
C284 C286 1.389 1_545 S
C285 H264 0.950 . S
C285 C284 1.373 . S
C285 C301 1.377 . S
C286 C284 1.389 1_565 S
C286 C287 1.524 . S
C286 C300 1.377 . S
C287 C286 1.524 . S
C287 C288 1.397 . S
C287 C292 1.363 . S
C288 H265 0.950 . S
C288 C287 1.397 . S
C288 C289 1.334 . S
C289 H266 0.950 . S
C289 C288 1.334 . S
C289 C290 1.287 . S
C290 C289 1.287 . S
C290 C291 1.524 . S
C290 H309 0.913 . S
C291 H267 0.950 . S
C291 C290 1.524 . S
C291 C292 1.415 . S
C292 H268 0.950 . S
C292 C287 1.363 . S
C292 C291 1.415 . S
C293 H269 0.951 . S
C293 C294 1.366 . S
C293 C295 1.388 . S
C294 C293 1.366 . S
C294 C298 1.385 1_545 S
C295 H270 0.951 . S
C295 C293 1.388 . S
C295 C296 1.366 . S
C296 C295 1.366 . S
C296 C297 1.414 1_545 S
C296 C299 1.499 . S
C297 H271 0.950 . S
C297 C296 1.414 1_565 S
C297 C298 1.374 . S
C298 H272 0.950 . S
C298 C294 1.385 1_565 S
C298 C297 1.374 . S
C299 C296 1.499 . S
C299 C300 1.373 1_545 S
C299 C301 1.389 . S
C300 H273 0.950 . S
C300 C286 1.377 . S
C300 C299 1.373 1_565 S
C301 C285 1.377 . S
C301 C299 1.389 . S
C301 C302 1.524 . S
C302 C301 1.524 . S
C302 C303 1.397 . S
C302 C307 1.363 . S
C303 H274 0.950 . S
C303 C302 1.397 . S
C303 C304 1.334 . S
C304 H275 0.950 . S
C304 C303 1.334 . S
C304 C305 1.287 . S
C305 C304 1.287 . S
C305 C306 1.524 . S
C305 H308 0.999 . S
C306 H276 0.950 . S
C306 C305 1.524 . S
C306 C307 1.415 . S
C307 H277 0.950 . S
C307 C302 1.363 . S
C307 C306 1.415 . S
H308 C305 0.999 . S
H309 C290 0.913 . S
H310 C328 0.951 . S
H311 C330 0.951 . S
H312 C332 0.950 1_655 S
H313 C333 0.950 . S
H314 C335 0.944 1_655 S
H315 C338 0.950 . S
H316 C339 0.950 . S
H317 C341 0.950 . S
H318 C342 0.950 . S
H319 C343 0.951 . S
H320 C345 0.951 . S
H321 C347 0.950 . S
H322 C348 0.950 . S
H323 C350 0.950 . S
H324 C353 0.950 1_455 S
H325 C354 0.950 . S
H326 C356 0.950 . S
H327 C357 0.950 . S
C328 H310 0.951 . S
C328 C329 1.366 . S
C328 C330 1.388 . S
C329 C328 1.366 . S
C329 C333 1.385 . S
C330 H311 0.951 . S
C330 C328 1.388 . S
C330 C331 1.366 . S
C331 C330 1.366 . S
C331 C332 1.414 . S
C331 C334 1.499 . S
C332 H312 0.950 1_455 S
C332 C331 1.414 . S
C332 C333 1.374 . S
C333 H313 0.950 . S
C333 C329 1.385 . S
C333 C332 1.374 . S
C334 C331 1.499 . S
C334 C335 1.373 . S
C334 C336 1.389 . S
C335 H314 0.944 1_455 S
C335 C334 1.373 . S
C335 C351 1.377 . S
C336 C334 1.389 . S
C336 C337 1.524 . S
C336 C350 1.377 . S
C337 C336 1.524 . S
C337 C338 1.397 . S
C337 C342 1.363 . S
C338 H315 0.950 . S
C338 C337 1.397 . S
C338 C339 1.334 . S
C339 H316 0.950 . S
C339 C338 1.334 . S
C339 C340 1.287 . S
C340 C339 1.287 . S
C340 C341 1.524 . S
C340 H359 0.913 . S
C341 H317 0.950 . S
C341 C340 1.524 . S
C341 C342 1.415 . S
C342 H318 0.950 . S
C342 C337 1.363 . S
C342 C341 1.415 . S
C343 H319 0.951 . S
C343 C344 1.366 . S
C343 C345 1.388 . S
C344 C343 1.366 . S
C344 C348 1.385 1_655 S
C345 H320 0.951 . S
C345 C343 1.388 . S
C345 C346 1.366 1_655 S
C346 C345 1.366 1_455 S
C346 C347 1.414 . S
C346 C349 1.499 . S
C347 H321 0.950 . S
C347 C346 1.414 . S
C347 C348 1.374 . S
C348 H322 0.950 . S
C348 C344 1.385 1_455 S
C348 C347 1.374 . S
C349 C346 1.499 . S
C349 C350 1.373 . S
C349 C351 1.389 . S
C350 H323 0.950 . S
C350 C336 1.377 . S
C350 C349 1.373 . S
C351 C335 1.377 . S
C351 C349 1.389 . S
C351 C352 1.524 1_455 S
C352 C351 1.524 1_655 S
C352 C353 1.397 . S
C352 C357 1.363 . S
C353 H324 0.950 1_655 S
C353 C352 1.397 . S
C353 C354 1.334 . S
C354 H325 0.950 . S
C354 C353 1.334 . S
C354 C355 1.287 . S
C355 C354 1.287 . S
C355 C356 1.524 . S
C355 H358 0.999 . S
C356 H326 0.950 . S
C356 C355 1.524 . S
C356 C357 1.415 . S
C357 H327 0.950 . S
C357 C352 1.363 . S
C357 C356 1.415 . S
H358 C355 0.999 . S
H359 C340 0.913 . S
H360 C378 0.951 . S
H361 C380 0.951 . S
H362 C382 0.950 . S
H363 C383 0.950 . S
H364 C385 0.950 . S
H365 C388 0.950 . S
H366 C389 0.950 . S
H367 C391 0.950 . S
H368 C392 0.950 . S
H369 C393 0.951 . S
H370 C395 0.951 . S
H371 C397 0.950 . S
H372 C398 0.950 . S
H373 C400 0.950 . S
H374 C403 0.950 . S
H375 C404 0.950 . S
H376 C406 0.950 . S
H377 C407 0.950 . S
C378 H360 0.951 . S
C378 C379 1.366 . S
C378 C380 1.388 . S
C379 C378 1.366 . S
C379 C383 1.385 . S
C380 H361 0.951 . S
C380 C378 1.388 . S
C380 C381 1.366 . S
C381 C380 1.366 . S
C381 C382 1.414 . S
C381 C384 1.499 . S
C382 H362 0.950 . S
C382 C381 1.414 . S
C382 C383 1.374 . S
C383 H363 0.950 . S
C383 C379 1.385 . S
C383 C382 1.374 . S
C384 C381 1.499 . S
C384 C385 1.373 . S
C384 C386 1.389 . S
C385 H364 0.950 . S
C385 C384 1.373 . S
C385 C401 1.377 . S
C386 C384 1.389 . S
C386 C387 1.524 . S
C386 C400 1.377 . S
C387 C386 1.524 . S
C387 C388 1.397 . S
C387 C392 1.363 . S
C388 H365 0.950 . S
C388 C387 1.397 . S
C388 C389 1.334 . S
C389 H366 0.950 . S
C389 C388 1.334 . S
C389 C390 1.287 . S
C390 C389 1.287 . S
C390 C391 1.524 . S
C390 H409 0.913 1_455 S
C391 H367 0.950 . S
C391 C390 1.524 . S
C391 C392 1.415 . S
C392 H368 0.950 . S
C392 C387 1.363 . S
C392 C391 1.415 . S
C393 H369 0.951 . S
C393 C394 1.366 . S
C393 C395 1.388 . S
C394 C393 1.366 . S
C394 C398 1.385 . S
C395 H370 0.951 . S
C395 C393 1.388 . S
C395 C396 1.366 . S
C396 C395 1.366 . S
C396 C397 1.414 . S
C396 C399 1.499 . S
C397 H371 0.950 . S
C397 C396 1.414 . S
C397 C398 1.374 . S
C398 H372 0.950 . S
C398 C394 1.385 . S
C398 C397 1.374 . S
C399 C396 1.499 . S
C399 C400 1.373 . S
C399 C401 1.389 . S
C400 H373 0.950 . S
C400 C386 1.377 . S
C400 C399 1.373 . S
C401 C385 1.377 . S
C401 C399 1.389 . S
C401 C402 1.524 . S
C402 C401 1.524 . S
C402 C403 1.397 . S
C402 C407 1.363 . S
C403 H374 0.950 . S
C403 C402 1.397 . S
C403 C404 1.334 . S
C404 H375 0.950 . S
C404 C403 1.334 . S
C404 C405 1.287 . S
C405 C404 1.287 . S
C405 C406 1.524 . S
C405 H408 0.999 . S
C406 H376 0.950 . S
C406 C405 1.524 . S
C406 C407 1.415 . S
C407 H377 0.950 . S
C407 C402 1.363 . S
C407 C406 1.415 . S
H408 C405 0.999 . S
H409 C390 0.913 1_655 S
H410 C428 0.951 . S
H411 C430 0.951 . S
H412 C432 0.950 . S
H413 C433 0.950 . S
H414 C435 0.950 . S
H415 C438 0.950 1_655 S
H416 C439 0.950 . S
H417 C441 0.950 . S
H418 C442 0.950 . S
H419 C443 0.951 . S
H420 C445 0.951 . S
H421 C447 0.950 . S
H422 C448 0.950 . S
H423 C450 0.950 . S
H424 C453 0.950 . S
H425 C454 0.950 . S
H426 C456 0.950 . S
H427 C457 0.950 . S
C428 H410 0.951 . S
C428 C429 1.366 . S
C428 C430 1.388 . S
C429 C428 1.366 . S
C429 C433 1.385 1_455 S
C430 H411 0.951 . S
C430 C428 1.388 . S
C430 C431 1.366 1_455 S
C431 C430 1.366 1_655 S
C431 C432 1.414 . S
C431 C434 1.499 . S
C432 H412 0.950 . S
C432 C431 1.414 . S
C432 C433 1.374 . S
C433 H413 0.950 . S
C433 C429 1.385 1_655 S
C433 C432 1.374 . S
C434 C431 1.499 . S
C434 C435 1.373 . S
C434 C436 1.389 . S
C435 H414 0.950 . S
C435 C434 1.373 . S
C435 C451 1.377 . S
C436 C434 1.389 . S
C436 C437 1.524 1_655 S
C436 C450 1.377 . S
C437 C436 1.524 1_455 S
C437 C438 1.397 . S
C437 C442 1.363 . S
C438 H415 0.950 1_455 S
C438 C437 1.397 . S
C438 C439 1.334 . S
C439 H416 0.950 . S
C439 C438 1.334 . S
C439 C440 1.287 . S
C440 C439 1.287 . S
C440 C441 1.524 . S
C440 H459 0.913 . S
C441 H417 0.950 . S
C441 C440 1.524 . S
C441 C442 1.415 . S
C442 H418 0.950 . S
C442 C437 1.363 . S
C442 C441 1.415 . S
C443 H419 0.951 . S
C443 C444 1.366 . S
C443 C445 1.388 . S
C444 C443 1.366 . S
C444 C448 1.385 . S
C445 H420 0.951 . S
C445 C443 1.388 . S
C445 C446 1.366 . S
C446 C445 1.366 . S
C446 C447 1.414 . S
C446 C449 1.499 . S
C447 H421 0.950 . S
C447 C446 1.414 . S
C447 C448 1.374 . S
C448 H422 0.950 . S
C448 C444 1.385 . S
C448 C447 1.374 . S
C449 C446 1.499 . S
C449 C450 1.373 . S
C449 C451 1.389 . S
C450 H423 0.950 . S
C450 C436 1.377 . S
C450 C449 1.373 . S
C451 C435 1.377 . S
C451 C449 1.389 . S
C451 C452 1.524 . S
C452 C451 1.524 . S
C452 C453 1.397 . S
C452 C457 1.363 . S
C453 H424 0.950 . S
C453 C452 1.397 . S
C453 C454 1.334 . S
C454 H425 0.950 . S
C454 C453 1.334 . S
C454 C455 1.287 . S
C455 C454 1.287 . S
C455 C456 1.524 . S
C455 H458 0.999 . S
C456 H426 0.950 . S
C456 C455 1.524 . S
C456 C457 1.415 . S
C457 H427 0.950 . S
C457 C452 1.363 . S
C457 C456 1.415 . S
H458 C455 0.999 . S
H459 C440 0.913 . S
H460 C478 0.951 . S
H461 C480 0.951 . S
H462 C482 0.950 . S
H463 C483 0.950 . S
H464 C485 0.950 . S
H465 C488 0.950 . S
H466 C489 0.950 . S
H467 C491 0.950 . S
H468 C492 0.950 . S
H469 C493 0.951 . S
H470 C495 0.951 . S
H471 C497 0.950 . S
H472 C498 0.950 . S
H473 C500 0.950 . S
H474 C503 0.950 . S
H475 C504 0.950 . S
H476 C506 0.950 . S
H477 C507 0.950 . S
C478 H460 0.951 . S
C478 C479 1.366 . S
C478 C480 1.388 . S
C479 C478 1.366 . S
C479 C483 1.385 . S
C480 H461 0.951 . S
C480 C478 1.388 . S
C480 C481 1.366 . S
C481 C480 1.366 . S
C481 C482 1.414 . S
C481 C484 1.499 . S
C482 H462 0.950 . S
C482 C481 1.414 . S
C482 C483 1.374 . S
C483 H463 0.950 . S
C483 C479 1.385 . S
C483 C482 1.374 . S
C484 C481 1.499 . S
C484 C485 1.373 . S
C484 C486 1.389 . S
C485 H464 0.950 . S
C485 C484 1.373 . S
C485 C501 1.377 . S
C486 C484 1.389 . S
C486 C487 1.524 . S
C486 C500 1.377 . S
C487 C486 1.524 . S
C487 C488 1.397 . S
C487 C492 1.363 . S
C488 H465 0.950 . S
C488 C487 1.397 . S
C488 C489 1.334 . S
C489 H466 0.950 . S
C489 C488 1.334 . S
C489 C490 1.287 . S
C490 C489 1.287 . S
C490 C491 1.524 . S
C490 H509 0.913 . S
C491 H467 0.950 . S
C491 C490 1.524 . S
C491 C492 1.415 . S
C492 H468 0.950 . S
C492 C487 1.363 . S
C492 C491 1.415 . S
C493 H469 0.951 . S
C493 C494 1.366 . S
C493 C495 1.388 . S
C494 C493 1.366 . S
C494 C498 1.385 . S
C495 H470 0.951 . S
C495 C493 1.388 . S
C495 C496 1.366 . S
C496 C495 1.366 . S
C496 C497 1.414 . S
C496 C499 1.499 . S
C497 H471 0.950 . S
C497 C496 1.414 . S
C497 C498 1.374 . S
C498 H472 0.950 . S
C498 C494 1.385 . S
C498 C497 1.374 . S
C499 C496 1.499 . S
C499 C500 1.373 . S
C499 C501 1.389 . S
C500 H473 0.950 . S
C500 C486 1.377 . S
C500 C499 1.373 . S
C501 C485 1.377 . S
C501 C499 1.389 . S
C501 C502 1.524 . S
C502 C501 1.524 . S
C502 C503 1.397 . S
C502 C507 1.363 . S
C503 H474 0.950 . S
C503 C502 1.397 . S
C503 C504 1.334 . S
C504 H475 0.950 . S
C504 C503 1.334 . S
C504 C505 1.287 . S
C505 C504 1.287 . S
C505 C506 1.524 . S
C505 H508 0.999 . S
C506 H476 0.950 . S
C506 C505 1.524 . S
C506 C507 1.415 . S
C507 H477 0.950 . S
C507 C502 1.363 . S
C507 C506 1.415 . S
H508 C505 0.999 . S
H509 C490 0.913 . S
H510 C528 0.951 . S
H511 C530 0.951 . S
H512 C532 0.950 . S
H513 C533 0.950 . S
H514 C535 0.950 . S
H515 C538 0.950 . S
H516 C539 0.950 . S
H517 C541 0.950 . S
H518 C542 0.950 . S
H519 C543 0.951 . S
H520 C545 0.951 . S
H521 C547 0.950 . S
H522 C548 0.950 . S
H523 C550 0.950 . S
H524 C553 0.950 . S
H525 C554 0.950 . S
H526 C556 0.950 . S
H527 C557 0.950 . S
C528 H510 0.951 . S
C528 C529 1.366 . S
C528 C530 1.388 . S
C529 C528 1.366 . S
C529 C533 1.385 . S
C530 H511 0.951 . S
C530 C528 1.388 . S
C530 C531 1.366 . S
C531 C530 1.366 . S
C531 C532 1.414 . S
C531 C534 1.499 . S
C532 H512 0.950 . S
C532 C531 1.414 . S
C532 C533 1.374 . S
C533 H513 0.950 . S
C533 C529 1.385 . S
C533 C532 1.374 . S
C534 C531 1.499 . S
C534 C535 1.373 . S
C534 C536 1.389 . S
C535 H514 0.950 . S
C535 C534 1.373 . S
C535 C551 1.377 . S
C536 C534 1.389 . S
C536 C537 1.524 . S
C536 C550 1.377 . S
C537 C536 1.524 . S
C537 C538 1.397 . S
C537 C542 1.363 . S
C538 H515 0.950 . S
C538 C537 1.397 . S
C538 C539 1.334 . S
C539 H516 0.950 . S
C539 C538 1.334 . S
C539 C540 1.287 . S
C540 C539 1.287 . S
C540 C541 1.524 . S
C540 H559 0.913 . S
C541 H517 0.950 . S
C541 C540 1.524 . S
C541 C542 1.415 . S
C542 H518 0.950 . S
C542 C537 1.363 . S
C542 C541 1.415 . S
C543 H519 0.951 . S
C543 C544 1.366 . S
C543 C545 1.388 . S
C544 C543 1.366 . S
C544 C548 1.385 . S
C545 H520 0.951 . S
C545 C543 1.388 . S
C545 C546 1.366 . S
C546 C545 1.366 . S
C546 C547 1.414 . S
C546 C549 1.499 . S
C547 H521 0.950 . S
C547 C546 1.414 . S
C547 C548 1.374 . S
C548 H522 0.950 . S
C548 C544 1.385 . S
C548 C547 1.374 . S
C549 C546 1.499 . S
C549 C550 1.373 . S
C549 C551 1.389 . S
C550 H523 0.950 . S
C550 C536 1.377 . S
C550 C549 1.373 . S
C551 C535 1.377 . S
C551 C549 1.389 . S
C551 C552 1.524 . S
C552 C551 1.524 . S
C552 C553 1.397 . S
C552 C557 1.363 . S
C553 H524 0.950 . S
C553 C552 1.397 . S
C553 C554 1.334 . S
C554 H525 0.950 . S
C554 C553 1.334 . S
C554 C555 1.287 . S
C555 C554 1.287 . S
C555 C556 1.524 . S
C555 H558 0.999 . S
C556 H526 0.950 . S
C556 C555 1.524 . S
C556 C557 1.415 . S
C557 H527 0.950 . S
C557 C552 1.363 . S
C557 C556 1.415 . S
H558 C555 0.999 . S
H559 C540 0.913 . S
H560 C578 0.951 . S
H561 C580 0.951 . S
H562 C582 0.950 . S
H563 C583 0.950 . S
H564 C585 0.950 . S
H565 C588 0.950 . S
H566 C589 0.950 . S
H567 C591 0.950 1_455 S
H568 C592 0.950 . S
H569 C593 0.951 . S
H570 C595 0.951 . S
H571 C597 0.950 . S
H572 C598 0.950 . S
H573 C600 0.950 . S
H574 C603 0.950 . S
H575 C604 0.950 . S
H576 C606 0.950 . S
H577 C607 0.950 . S
C578 H560 0.951 . S
C578 C579 1.366 . S
C578 C580 1.388 . S
C579 C578 1.366 . S
C579 C583 1.385 . S
C580 H561 0.951 . S
C580 C578 1.388 . S
C580 C581 1.366 . S
C581 C580 1.366 . S
C581 C582 1.414 . S
C581 C584 1.499 . S
C582 H562 0.950 . S
C582 C581 1.414 . S
C582 C583 1.374 . S
C583 H563 0.950 . S
C583 C579 1.385 . S
C583 C582 1.374 . S
C584 C581 1.499 . S
C584 C585 1.373 . S
C584 C586 1.389 . S
C585 H564 0.950 . S
C585 C584 1.373 . S
C585 C601 1.377 . S
C586 C584 1.389 . S
C586 C587 1.524 . S
C586 C600 1.377 . S
C587 C586 1.524 . S
C587 C588 1.397 . S
C587 C592 1.363 . S
C588 H565 0.950 . S
C588 C587 1.397 . S
C588 C589 1.334 1_565 S
C589 H566 0.950 . S
C589 C588 1.334 1_545 S
C589 C590 1.287 . S
C590 C589 1.287 . S
C590 C591 1.524 1_545 S
C590 H609 0.913 . S
C591 H567 0.950 1_655 S
C591 C590 1.524 1_565 S
C591 C592 1.415 . S
C592 H568 0.950 . S
C592 C587 1.363 . S
C592 C591 1.415 . S
C593 H569 0.951 . S
C593 C594 1.366 . S
C593 C595 1.388 . S
C594 C593 1.366 . S
C594 C598 1.385 . S
C595 H570 0.951 . S
C595 C593 1.388 . S
C595 C596 1.366 . S
C596 C595 1.366 . S
C596 C597 1.414 . S
C596 C599 1.499 . S
C597 H571 0.950 . S
C597 C596 1.414 . S
C597 C598 1.374 . S
C598 H572 0.950 . S
C598 C594 1.385 . S
C598 C597 1.374 . S
C599 C596 1.499 . S
C599 C600 1.373 . S
C599 C601 1.389 . S
C600 H573 0.950 . S
C600 C586 1.377 . S
C600 C599 1.373 . S
C601 C585 1.377 . S
C601 C599 1.389 . S
C601 C602 1.524 . S
C602 C601 1.524 . S
C602 C603 1.397 . S
C602 C607 1.363 . S
C603 H574 0.950 . S
C603 C602 1.397 . S
C603 C604 1.334 . S
C604 H575 0.950 . S
C604 C603 1.334 . S
C604 C605 1.287 . S
C605 C604 1.287 . S
C605 C606 1.524 . S
C605 H608 0.999 . S
C606 H576 0.950 . S
C606 C605 1.524 . S
C606 C607 1.415 . S
C607 H577 0.950 . S
C607 C602 1.363 . S
C607 C606 1.415 . S
H608 C605 0.999 . S
H609 C590 0.913 . S
H610 C628 0.951 . S
H611 C630 0.951 . S
H612 C632 0.950 . S
H613 C633 0.950 . S
H614 C635 0.950 . S
H615 C638 0.950 . S
H616 C639 0.950 . S
H617 C641 0.948 1_545 S
H618 C642 0.950 . S
H619 C643 0.951 . S
H620 C645 0.951 . S
H621 C647 0.950 . S
H622 C648 0.950 . S
H623 C650 0.950 . S
H624 C653 0.950 . S
H625 C654 0.950 . S
H626 C656 0.950 . S
H627 C657 0.950 . S
C628 H610 0.951 . S
C628 C629 1.366 . S
C628 C630 1.388 . S
C629 C628 1.366 . S
C629 C633 1.385 . S
C630 H611 0.951 . S
C630 C628 1.388 . S
C630 C631 1.366 . S
C631 C630 1.366 . S
C631 C632 1.414 . S
C631 C634 1.499 . S
C632 H612 0.950 . S
C632 C631 1.414 . S
C632 C633 1.374 . S
C633 H613 0.950 . S
C633 C629 1.385 . S
C633 C632 1.374 . S
C634 C631 1.499 . S
C634 C635 1.373 . S
C634 C636 1.389 . S
C635 H614 0.950 . S
C635 C634 1.373 . S
C635 C651 1.377 . S
C636 C634 1.389 . S
C636 C637 1.524 . S
C636 C650 1.377 . S
C637 C636 1.524 . S
C637 C638 1.397 . S
C637 C642 1.363 . S
C638 H615 0.950 . S
C638 C637 1.397 . S
C638 C639 1.334 1_565 S
C639 H616 0.950 . S
C639 C638 1.334 1_545 S
C639 C640 1.287 . S
C640 C639 1.287 . S
C640 C641 1.522 1_545 S
C640 H659 0.913 . S
C641 H617 0.948 1_565 S
C641 C640 1.522 1_565 S
C641 C642 1.418 . S
C642 H618 0.950 . S
C642 C637 1.363 . S
C642 C641 1.418 . S
C643 H619 0.951 . S
C643 C644 1.366 . S
C643 C645 1.388 . S
C644 C643 1.366 . S
C644 C648 1.385 . S
C645 H620 0.951 . S
C645 C643 1.388 . S
C645 C646 1.366 . S
C646 C645 1.366 . S
C646 C647 1.414 . S
C646 C649 1.499 . S
C647 H621 0.950 . S
C647 C646 1.414 . S
C647 C648 1.374 . S
C648 H622 0.950 . S
C648 C644 1.385 . S
C648 C647 1.374 . S
C649 C646 1.499 . S
C649 C650 1.373 . S
C649 C651 1.389 . S
C650 H623 0.950 . S
C650 C636 1.377 . S
C650 C649 1.373 . S
C651 C635 1.377 . S
C651 C649 1.389 . S
C651 C652 1.524 . S
C652 C651 1.524 . S
C652 C653 1.397 . S
C652 C657 1.363 . S
C653 H624 0.950 . S
C653 C652 1.397 . S
C653 C654 1.334 . S
C654 H625 0.950 . S
C654 C653 1.334 . S
C654 C655 1.287 . S
C655 C654 1.287 . S
C655 C656 1.524 . S
C655 H658 0.999 . S
C656 H626 0.950 . S
C656 C655 1.524 . S
C656 C657 1.415 . S
C657 H627 0.950 . S
C657 C652 1.363 . S
C657 C656 1.415 . S
H658 C655 0.999 . S
H659 C640 0.913 . S
H660 C678 0.951 . S
H661 C680 0.951 . S
H662 C682 0.950 . S
H663 C683 0.950 . S
H664 C685 0.950 . S
H665 C688 0.950 . S
H666 C689 0.950 . S
H667 C691 0.950 . S
H668 C692 0.950 . S
H669 C693 0.951 . S
H670 C695 0.948 1_556 S
H671 C697 0.950 . S
H672 C698 0.950 . S
H673 C700 0.950 . S
H674 C703 0.950 . S
H675 C704 0.950 1_565 S
H676 C706 0.950 . S
H677 C707 0.950 . S
C678 H660 0.951 . S
C678 C679 1.366 . S
C678 C680 1.388 . S
C679 C678 1.366 . S
C679 C683 1.385 . S
C680 H661 0.951 . S
C680 C678 1.388 . S
C680 C681 1.366 . S
C681 C680 1.366 . S
C681 C682 1.414 . S
C681 C684 1.499 . S
C682 H662 0.950 . S
C682 C681 1.414 . S
C682 C683 1.374 . S
C683 H663 0.950 . S
C683 C679 1.385 . S
C683 C682 1.374 . S
C684 C681 1.499 . S
C684 C685 1.373 . S
C684 C686 1.389 . S
C685 H664 0.950 . S
C685 C684 1.373 . S
C685 C701 1.377 . S
C686 C684 1.389 . S
C686 C687 1.524 . S
C686 C700 1.377 . S
C687 C686 1.524 . S
C687 C688 1.397 . S
C687 C692 1.363 . S
C688 H665 0.950 . S
C688 C687 1.397 . S
C688 C689 1.334 . S
C689 H666 0.950 . S
C689 C688 1.334 . S
C689 C690 1.287 . S
C690 C689 1.287 . S
C690 C691 1.524 . S
C690 H709 0.913 . S
C691 H667 0.950 . S
C691 C690 1.524 . S
C691 C692 1.415 . S
C692 H668 0.950 . S
C692 C687 1.363 . S
C692 C691 1.415 . S
C693 H669 0.951 . S
C693 C694 1.366 . S
C693 C695 1.392 . S
C694 C693 1.366 . S
C694 C698 1.385 . S
C695 H670 0.948 1_554 S
C695 C693 1.392 . S
C695 C696 1.365 1_554 S
C696 C695 1.365 1_556 S
C696 C697 1.414 1_556 S
C696 C699 1.499 . S
C697 H671 0.950 . S
C697 C696 1.414 1_554 S
C697 C698 1.374 . S
C698 H672 0.950 . S
C698 C694 1.385 . S
C698 C697 1.374 . S
C699 C696 1.499 . S
C699 C700 1.373 . S
C699 C701 1.389 . S
C700 H673 0.950 . S
C700 C686 1.377 . S
C700 C699 1.373 . S
C701 C685 1.377 . S
C701 C699 1.389 . S
C701 C702 1.524 . S
C702 C701 1.524 . S
C702 C703 1.397 . S
C702 C707 1.363 . S
C703 H674 0.950 . S
C703 C702 1.397 . S
C703 C704 1.334 . S
C704 H675 0.950 1_545 S
C704 C703 1.334 . S
C704 C705 1.287 1_545 S
C705 C704 1.287 1_565 S
C705 C706 1.524 1_565 S
C705 H708 0.999 . S
C706 H676 0.950 . S
C706 C705 1.524 1_545 S
C706 C707 1.415 . S
C707 H677 0.950 . S
C707 C702 1.363 . S
C707 C706 1.415 . S
H708 C705 0.999 . S
H709 C690 0.913 . S
H710 C728 0.951 . S
H711 C730 0.951 . S
H712 C732 0.950 . S
H713 C733 0.950 . S
H714 C735 0.950 . S
H715 C738 0.950 . S
H716 C739 0.950 . S
H717 C741 0.950 . S
H718 C742 0.950 . S
H719 C743 0.951 . S
H720 C745 0.951 . S
H721 C747 0.950 . S
H722 C748 0.950 . S
H723 C750 0.950 . S
H724 C753 0.950 . S
H725 C754 0.950 . S
H726 C756 0.950 . S
H727 C757 0.950 . S
C728 H710 0.951 . S
C728 C729 1.366 . S
C728 C730 1.388 . S
C729 C728 1.366 . S
C729 C733 1.385 . S
C730 H711 0.951 . S
C730 C728 1.388 . S
C730 C731 1.366 . S
C731 C730 1.366 . S
C731 C732 1.414 . S
C731 C734 1.499 . S
C732 H712 0.950 . S
C732 C731 1.414 . S
C732 C733 1.374 . S
C733 H713 0.950 . S
C733 C729 1.385 . S
C733 C732 1.374 . S
C734 C731 1.499 . S
C734 C735 1.373 . S
C734 C736 1.389 . S
C735 H714 0.950 . S
C735 C734 1.373 . S
C735 C751 1.377 . S
C736 C734 1.389 . S
C736 C737 1.524 . S
C736 C750 1.377 . S
C737 C736 1.524 . S
C737 C738 1.397 . S
C737 C742 1.363 . S
C738 H715 0.950 . S
C738 C737 1.397 . S
C738 C739 1.334 . S
C739 H716 0.950 . S
C739 C738 1.334 . S
C739 C740 1.287 . S
C740 C739 1.287 . S
C740 C741 1.524 . S
C740 H759 0.913 . S
C741 H717 0.950 . S
C741 C740 1.524 . S
C741 C742 1.415 . S
C742 H718 0.950 . S
C742 C737 1.363 . S
C742 C741 1.415 . S
C743 H719 0.951 . S
C743 C744 1.366 . S
C743 C745 1.388 . S
C744 C743 1.366 . S
C744 C748 1.385 . S
C745 H720 0.951 . S
C745 C743 1.388 . S
C745 C746 1.366 . S
C746 C745 1.366 . S
C746 C747 1.414 . S
C746 C749 1.499 . S
C747 H721 0.950 . S
C747 C746 1.414 . S
C747 C748 1.374 . S
C748 H722 0.950 . S
C748 C744 1.385 . S
C748 C747 1.374 . S
C749 C746 1.499 . S
C749 C750 1.373 . S
C749 C751 1.389 . S
C750 H723 0.950 . S
C750 C736 1.377 . S
C750 C749 1.373 . S
C751 C735 1.377 . S
C751 C749 1.389 . S
C751 C752 1.524 . S
C752 C751 1.524 . S
C752 C753 1.397 . S
C752 C757 1.363 . S
C753 H724 0.950 . S
C753 C752 1.397 . S
C753 C754 1.334 . S
C754 H725 0.950 . S
C754 C753 1.334 . S
C754 C755 1.287 1_655 S
C755 C754 1.287 1_455 S
C755 C756 1.524 . S
C755 H758 0.999 . S
C756 H726 0.950 . S
C756 C755 1.524 . S
C756 C757 1.415 1_455 S
C757 H727 0.950 . S
C757 C752 1.363 . S
C757 C756 1.415 1_655 S
H758 C755 0.999 . S
H759 C740 0.913 . S
C179 C82 0.759 1_545 S
C194 C2 0.790 . S
C229 C122 0.807 1_655 S
C244 C63 0.809 . S
C279 C103 0.806 . S
C294 C23 0.809 . S
C329 C42 0.705 . S
C344 C143 0.704 . S
C379 C71 0.457 . S
C394 C25 0.485 . S
C429 C60 0.743 . S
C444 C105 0.742 . S
C479 C145 0.311 . S
C494 C84 0.355 . S
C529 C124 0.452 . S
C544 C4 0.565 . S
C579 C111 3.298 1_556 S
C594 C140 3.218 . S
C629 C31 3.668 . S
C644 C151 3.655 . S
C679 C44 2.581 . S
C694 C20 2.618 . S
C729 C100 2.274 . S
C744 C65 2.261 . S
