# Generated by pormake.
# Topology zfq, (5)-cn, num edge types: 1
# Building blocks:
#     Node 0, Type 0, BuildingBlock: BEQFEK_clean_sbu_0, # of connection points: 5
#     Node 1, Type 0, BuildingBlock: BEQFEK_clean_sbu_0, # of connection points: 5
#     Node 2, Type 0, BuildingBlock: BEQFEK_clean_sbu_0, # of connection points: 5
#     Node 3, Type 0, BuildingBlock: BEQFEK_clean_sbu_0, # of connection points: 5
#     Node 4, Type 0, BuildingBlock: BEQFEK_clean_sbu_0, # of connection points: 5
#     Node 5, Type 0, BuildingBlock: BEQFEK_clean_sbu_0, # of connection points: 5
#     Node 6, Type 0, BuildingBlock: BEQFEK_clean_sbu_0, # of connection points: 5
#     Node 7, Type 0, BuildingBlock: BEQFEK_clean_sbu_0, # of connection points: 5
#     Node 8, Type 0, BuildingBlock: BEQFEK_clean_sbu_0, # of connection points: 5
#     Node 9, Type 0, BuildingBlock: BEQFEK_clean_sbu_0, # of connection points: 5
#     Node 10, Type 0, BuildingBlock: BEQFEK_clean_sbu_0, # of connection points: 5
#     Node 11, Type 0, BuildingBlock: BEQFEK_clean_sbu_0, # of connection points: 5
#     Node 12, Type 0, BuildingBlock: BEQFEK_clean_sbu_0, # of connection points: 5
#     Node 13, Type 0, BuildingBlock: BEQFEK_clean_sbu_0, # of connection points: 5
#     Node 14, Type 0, BuildingBlock: BEQFEK_clean_sbu_0, # of connection points: 5
#     Node 15, Type 0, BuildingBlock: BEQFEK_clean_sbu_0, # of connection points: 5
#     Edge 16, Type (0, 0), BuildingBlock: EZIPEK_clean_linker_0, # of connection points: 2
#     Edge 17, Type (0, 0), BuildingBlock: EZIPEK_clean_linker_0, # of connection points: 2
#     Edge 18, Type (0, 0), BuildingBlock: EZIPEK_clean_linker_0, # of connection points: 2
#     Edge 19, Type (0, 0), BuildingBlock: EZIPEK_clean_linker_0, # of connection points: 2
#     Edge 20, Type (0, 0), BuildingBlock: EZIPEK_clean_linker_0, # of connection points: 2
#     Edge 21, Type (0, 0), BuildingBlock: EZIPEK_clean_linker_0, # of connection points: 2
#     Edge 22, Type (0, 0), BuildingBlock: EZIPEK_clean_linker_0, # of connection points: 2
#     Edge 23, Type (0, 0), BuildingBlock: EZIPEK_clean_linker_0, # of connection points: 2
#     Edge 24, Type (0, 0), BuildingBlock: EZIPEK_clean_linker_0, # of connection points: 2
#     Edge 25, Type (0, 0), BuildingBlock: EZIPEK_clean_linker_0, # of connection points: 2
#     Edge 26, Type (0, 0), BuildingBlock: EZIPEK_clean_linker_0, # of connection points: 2
#     Edge 27, Type (0, 0), BuildingBlock: EZIPEK_clean_linker_0, # of connection points: 2
#     Edge 28, Type (0, 0), BuildingBlock: EZIPEK_clean_linker_0, # of connection points: 2
#     Edge 29, Type (0, 0), BuildingBlock: EZIPEK_clean_linker_0, # of connection points: 2
#     Edge 30, Type (0, 0), BuildingBlock: EZIPEK_clean_linker_0, # of connection points: 2
#     Edge 31, Type (0, 0), BuildingBlock: EZIPEK_clean_linker_0, # of connection points: 2
#     Edge 32, Type (0, 0), BuildingBlock: EZIPEK_clean_linker_0, # of connection points: 2
#     Edge 33, Type (0, 0), BuildingBlock: EZIPEK_clean_linker_0, # of connection points: 2
#     Edge 34, Type (0, 0), BuildingBlock: EZIPEK_clean_linker_0, # of connection points: 2
#     Edge 35, Type (0, 0), BuildingBlock: EZIPEK_clean_linker_0, # of connection points: 2
#     Edge 36, Type (0, 0), BuildingBlock: EZIPEK_clean_linker_0, # of connection points: 2
#     Edge 37, Type (0, 0), BuildingBlock: EZIPEK_clean_linker_0, # of connection points: 2
#     Edge 38, Type (0, 0), BuildingBlock: EZIPEK_clean_linker_0, # of connection points: 2
#     Edge 39, Type (0, 0), BuildingBlock: EZIPEK_clean_linker_0, # of connection points: 2
#     Edge 40, Type (0, 0), BuildingBlock: EZIPEK_clean_linker_0, # of connection points: 2
#     Edge 41, Type (0, 0), BuildingBlock: EZIPEK_clean_linker_0, # of connection points: 2
#     Edge 42, Type (0, 0), BuildingBlock: EZIPEK_clean_linker_0, # of connection points: 2
#     Edge 43, Type (0, 0), BuildingBlock: EZIPEK_clean_linker_0, # of connection points: 2
#     Edge 44, Type (0, 0), BuildingBlock: EZIPEK_clean_linker_0, # of connection points: 2
#     Edge 45, Type (0, 0), BuildingBlock: EZIPEK_clean_linker_0, # of connection points: 2
#     Edge 46, Type (0, 0), BuildingBlock: EZIPEK_clean_linker_0, # of connection points: 2
#     Edge 47, Type (0, 0), BuildingBlock: EZIPEK_clean_linker_0, # of connection points: 2
#     Edge 48, Type (0, 0), BuildingBlock: EZIPEK_clean_linker_0, # of connection points: 2
#     Edge 49, Type (0, 0), BuildingBlock: EZIPEK_clean_linker_0, # of connection points: 2
#     Edge 50, Type (0, 0), BuildingBlock: EZIPEK_clean_linker_0, # of connection points: 2
#     Edge 51, Type (0, 0), BuildingBlock: EZIPEK_clean_linker_0, # of connection points: 2
#     Edge 52, Type (0, 0), BuildingBlock: EZIPEK_clean_linker_0, # of connection points: 2
#     Edge 53, Type (0, 0), BuildingBlock: EZIPEK_clean_linker_0, # of connection points: 2
#     Edge 54, Type (0, 0), BuildingBlock: EZIPEK_clean_linker_0, # of connection points: 2
#     Edge 55, Type (0, 0), BuildingBlock: EZIPEK_clean_linker_0, # of connection points: 2
# Relax obj value: 0.104
# Max RMSD: 0.174
# Mean RMSD: 0.174
data_MOF--net-zfq--node1-BEQFEK_clean_sbu_0--edge1-EZIPEK_clean_linker_0
_symmetry_space_group_name_H-M    P1
_symmetry_Int_Tables_number       1
_symmetry_cell_setting            triclinic
loop_
_symmetry_equiv_pos_as_xyz
'x, y, z'
_cell_length_a     21.765797
_cell_length_b     21.751705
_cell_length_c     60.935533
_cell_angle_alpha  90.067882
_cell_angle_beta   89.995785
_cell_angle_gamma 90.024301
loop_
_atom_site_label
_atom_site_type_symbol
_atom_site_fract_x
_atom_site_fract_y
_atom_site_fract_z
_atom_type_partial_charge
Co0 Co 0.17131 0.17716 0.1602 0.0
Co1 Co 0.16608 0.195 0.10856 0.0
C2 C 0.09782 0.27904 0.13892 0.0
O3 O 0.11836 0.24855 0.15511 0.0
O4 O 0.11481 0.26577 0.11939 0.0
C5 C 0.18579 0.21539 0.20503 0.0
O6 O 0.18038 0.27075 0.19669 0.0
C7 C 0.18698 0.24645 0.06371 0.0
C8 C 0.19946 0.16039 0.04495 0.0
C9 C 0.20195 0.22377 0.04298 0.0
N10 N 0.17813 0.19843 0.07732 0.0
N11 N 0.1845 0.14728 0.06583 0.0
C12 C 0.18061 0.31214 0.07057 0.0
H13 H 0.13278 0.32021 0.07615 0.0
H14 H 0.21137 0.32133 0.08473 0.0
H15 H 0.19136 0.34403 0.05689 0.0
C16 C 0.3045 0.17818 0.15126 0.0
N17 N 0.24556 0.18152 0.14459 0.0
N18 N 0.2437 0.18516 0.12305 0.0
C19 C 0.30165 0.18132 0.11535 0.0
C20 C 0.34219 0.17796 0.13293 0.0
C21 C 0.32398 0.17919 0.17478 0.0
H22 H 0.30485 0.2208 0.1827 0.0
H23 H 0.37469 0.17956 0.17653 0.0
H24 H 0.30481 0.13844 0.18331 0.0
O25 O 0.12162 0.10633 0.15023 0.0
O26 O 0.11459 0.12256 0.11415 0.0
H27 H 0.36854 0.17584 0.08902 0.0
H28 H 0.30329 0.22538 0.08426 0.0
C29 C 0.31841 0.18148 0.09158 0.0
H30 H 0.29445 0.14325 0.08317 0.0
H31 H 0.18068 0.10324 0.07245 0.0
O32 O 0.18525 0.16888 0.19235 0.0
C33 C 0.10091 0.09233 0.13132 0.0
Co34 Co 0.13523 0.81535 0.84308 0.0
Co35 Co 0.16236 0.80689 0.89398 0.0
C36 C 0.22864 0.89629 0.86729 0.0
O37 O 0.19794 0.87958 0.85046 0.0
O38 O 0.22336 0.86924 0.88571 0.0
C39 C 0.17221 0.81487 0.79777 0.0
O40 O 0.22737 0.81567 0.80653 0.0
C41 C 0.21338 0.79143 0.93868 0.0
C42 C 0.13266 0.75206 0.95568 0.0
C43 C 0.19331 0.76901 0.95874 0.0
N44 N 0.16676 0.78686 0.92429 0.0
N45 N 0.11859 0.76385 0.93463 0.0
C46 C 0.27524 0.81712 0.93322 0.0
H47 H 0.27069 0.86711 0.93001 0.0
H48 H 0.29265 0.79536 0.91795 0.0
H49 H 0.30838 0.80997 0.94682 0.0
C50 C 0.15712 0.68009 0.84723 0.0
N51 N 0.15341 0.73734 0.85564 0.0
N52 N 0.16706 0.73496 0.87667 0.0
C53 C 0.18138 0.67671 0.88208 0.0
C54 C 0.17499 0.64005 0.86368 0.0
C55 C 0.14575 0.66404 0.8238 0.0
H56 H 0.17728 0.6909 0.81323 0.0
H57 H 0.15267 0.61424 0.82068 0.0
H58 H 0.09772 0.67648 0.81971 0.0
O59 O 0.05849 0.84782 0.85539 0.0
O60 O 0.08262 0.84764 0.89059 0.0
H61 H 0.2234 0.60966 0.90366 0.0
H62 H 0.24101 0.68929 0.90956 0.0
C63 C 0.20466 0.65709 0.90407 0.0
H64 H 0.16648 0.65866 0.9161 0.0
H65 H 0.07616 0.75562 0.9272 0.0
O66 O 0.12557 0.81285 0.81033 0.0
C67 C 0.04551 0.86071 0.87525 0.0
Co68 Co 0.83433 0.83429 0.15832 0.0
Co69 Co 0.84058 0.80917 0.10708 0.0
C70 C 0.90461 0.726 0.13806 0.0
O71 O 0.88587 0.75955 0.15392 0.0
O72 O 0.88857 0.738 0.11836 0.0
C73 C 0.81847 0.8051 0.20402 0.0
O74 O 0.81854 0.74832 0.19667 0.0
C75 C 0.82684 0.75918 0.06161 0.0
C76 C 0.80236 0.84459 0.04405 0.0
C77 C 0.80923 0.78185 0.04119 0.0
N78 N 0.82859 0.80641 0.07592 0.0
N79 N 0.81486 0.85732 0.06517 0.0
C80 C 0.84178 0.6942 0.06749 0.0
H81 H 0.81473 0.68031 0.08211 0.0
H82 H 0.83262 0.66233 0.05364 0.0
H83 H 0.89109 0.69143 0.07198 0.0
C84 C 0.70067 0.83174 0.14865 0.0
N85 N 0.75999 0.83003 0.14235 0.0
N86 N 0.76258 0.8177 0.12122 0.0
C87 C 0.70482 0.81029 0.11362 0.0
C88 C 0.66379 0.81928 0.13072 0.0
C89 C 0.67964 0.84018 0.17173 0.0
H90 H 0.7035 0.80684 0.18249 0.0
H91 H 0.62923 0.83399 0.17336 0.0
H92 H 0.69177 0.8875 0.17692 0.0
O93 O 0.88512 0.90224 0.14801 0.0
O94 O 0.89388 0.88161 0.11236 0.0
H95 H 0.70242 0.82181 0.07884 0.0
H96 H 0.63955 0.77712 0.08948 0.0
C97 C 0.68934 0.78699 0.09123 0.0
H98 H 0.7159 0.74444 0.08813 0.0
H99 H 0.81222 0.90069 0.07246 0.0
O100 O 0.82238 0.84919 0.19043 0.0
C101 C 0.90712 0.91369 0.12917 0.0
Co102 Co 0.84481 0.16047 0.84251 0.0
Co103 Co 0.81004 0.16192 0.89262 0.0
C104 C 0.72853 0.09859 0.86273 0.0
O105 O 0.76746 0.11169 0.84768 0.0
O106 O 0.73472 0.12111 0.88195 0.0
C107 C 0.81794 0.17574 0.79643 0.0
O108 O 0.76126 0.18149 0.80354 0.0
C109 C 0.76519 0.18006 0.93822 0.0
C110 C 0.85272 0.20506 0.9544 0.0
C111 C 0.79028 0.19907 0.95807 0.0
N112 N 0.81084 0.1765 0.92339 0.0
N113 N 0.86301 0.19062 0.93328 0.0
C114 C 0.69942 0.16586 0.93329 0.0
H115 H 0.69559 0.1169 0.92836 0.0
H116 H 0.68384 0.19408 0.91919 0.0
H117 H 0.6695 0.17438 0.94772 0.0
C118 C 0.85031 0.29587 0.8505 0.0
N119 N 0.84381 0.23722 0.85729 0.0
N120 N 0.82733 0.23741 0.87805 0.0
C121 C 0.82181 0.29615 0.88492 0.0
C122 C 0.83655 0.3352 0.86773 0.0
C123 C 0.86409 0.31436 0.82748 0.0
H124 H 0.91062 0.29738 0.82328 0.0
H125 H 0.8302 0.29302 0.81625 0.0
H126 H 0.86307 0.36504 0.82543 0.0
O127 O 0.90938 0.1066 0.85394 0.0
O128 O 0.87216 0.09755 0.8877 0.0
H129 H 0.82687 0.30523 0.91975 0.0
H130 H 0.78206 0.36426 0.9067 0.0
C131 C 0.79384 0.31464 0.90634 0.0
H132 H 0.7518 0.28705 0.90922 0.0
H133 H 0.90554 0.1921 0.92538 0.0
O134 O 0.86095 0.1679 0.81024 0.0
C135 C 0.90796 0.07997 0.87249 0.0
Co136 Co 0.84592 0.1628 0.65611 0.0
Co137 Co 0.84538 0.19886 0.60587 0.0
C138 C 0.90788 0.27922 0.63767 0.0
O139 O 0.89238 0.24153 0.65278 0.0
O140 O 0.88994 0.27085 0.61793 0.0
C141 C 0.82928 0.18559 0.70212 0.0
O142 O 0.82455 0.24268 0.69534 0.0
C143 C 0.83081 0.24937 0.56067 0.0
C144 C 0.8039 0.16406 0.54335 0.0
C145 C 0.8131 0.22637 0.54035 0.0
N146 N 0.83079 0.20261 0.57511 0.0
N147 N 0.81538 0.15179 0.56455 0.0
C148 C 0.84778 0.31405 0.56632 0.0
H149 H 0.89734 0.31563 0.57054 0.0
H150 H 0.8217 0.329 0.58104 0.0
H151 H 0.83886 0.34577 0.55243 0.0
C152 C 0.71069 0.15996 0.64779 0.0
N153 N 0.76946 0.16532 0.641 0.0
N154 N 0.76961 0.18366 0.62044 0.0
C155 C 0.71111 0.19198 0.61377 0.0
C156 C 0.67176 0.17681 0.63084 0.0
C157 C 0.69189 0.14437 0.67062 0.0
H158 H 0.7125 0.17783 0.6822 0.0
H159 H 0.64119 0.14469 0.67257 0.0
H160 H 0.70939 0.09777 0.67443 0.0
O161 O 0.90246 0.10132 0.64385 0.0
O162 O 0.90444 0.13103 0.60898 0.0
H163 H 0.70125 0.18805 0.57895 0.0
H164 H 0.64426 0.23486 0.5923 0.0
C165 C 0.69338 0.2212 0.59248 0.0
H166 H 0.72252 0.2622 0.58956 0.0
H167 H 0.81164 0.10874 0.57197 0.0
O168 O 0.837 0.14306 0.68807 0.0
C169 C 0.9234 0.09697 0.62445 0.0
Co170 Co 0.1592 0.17074 0.34333 0.0
Co171 Co 0.18193 0.17954 0.39424 0.0
C172 C 0.2519 0.09144 0.36652 0.0
O173 O 0.22967 0.11472 0.34907 0.0
O174 O 0.23995 0.11363 0.38542 0.0
C175 C 0.1999 0.17997 0.29919 0.0
O176 O 0.25379 0.17203 0.30845 0.0
C177 C 0.23324 0.1935 0.43912 0.0
C178 C 0.15317 0.23488 0.45594 0.0
C179 C 0.21306 0.21586 0.45922 0.0
N180 N 0.18724 0.19976 0.42456 0.0
N181 N 0.13956 0.22421 0.43477 0.0
C182 C 0.29445 0.16616 0.43381 0.0
H183 H 0.28847 0.11653 0.43013 0.0
H184 H 0.31322 0.18829 0.41884 0.0
H185 H 0.32714 0.17152 0.44766 0.0
C186 C 0.15882 0.30496 0.34824 0.0
N187 N 0.16741 0.24828 0.35644 0.0
N188 N 0.18485 0.25242 0.37701 0.0
C189 C 0.19179 0.31241 0.38217 0.0
C190 C 0.1752 0.34789 0.36409 0.0
C191 C 0.1312 0.3174 0.32618 0.0
H192 H 0.09376 0.284 0.32289 0.0
H193 H 0.16672 0.31127 0.31334 0.0
H194 H 0.1128 0.36488 0.32517 0.0
O195 O 0.08742 0.12715 0.35515 0.0
O196 O 0.1018 0.1377 0.39119 0.0
H197 H 0.17559 0.33649 0.41566 0.0
H198 H 0.2338 0.38226 0.40243 0.0
C199 C 0.21441 0.33523 0.40388 0.0
H200 H 0.24994 0.30361 0.4104 0.0
H201 H 0.09766 0.23388 0.4272 0.0
O202 O 0.15177 0.18049 0.31103 0.0
C203 C 0.0719 0.1164 0.37492 0.0
Co204 Co 0.16757 0.85703 0.65793 0.0
Co205 Co 0.18442 0.81584 0.6085 0.0
C206 C 0.08834 0.75893 0.63519 0.0
O207 O 0.10494 0.7925 0.65132 0.0
O208 O 0.11758 0.75896 0.61706 0.0
C209 C 0.17987 0.82602 0.70306 0.0
O210 O 0.19593 0.7731 0.69438 0.0
C211 C 0.20058 0.7599 0.56417 0.0
C212 C 0.2555 0.83294 0.54829 0.0
C213 C 0.22908 0.77603 0.5446 0.0
N214 N 0.21055 0.80515 0.57884 0.0
N215 N 0.24314 0.84863 0.56916 0.0
C216 C 0.16299 0.70383 0.56872 0.0
H217 H 0.18066 0.68084 0.5837 0.0
H218 H 0.16387 0.67135 0.55466 0.0
H219 H 0.11485 0.71779 0.57206 0.0
C220 C 0.30317 0.8486 0.6559 0.0
N221 N 0.24713 0.83839 0.64731 0.0
N222 N 0.25342 0.81444 0.62761 0.0
C223 C 0.31371 0.80505 0.62367 0.0
C224 C 0.34734 0.82715 0.64137 0.0
C225 C 0.31424 0.88445 0.67643 0.0
H226 H 0.28026 0.92231 0.67756 0.0
H227 H 0.30825 0.85368 0.69077 0.0
H228 H 0.36143 0.90377 0.67683 0.0
O229 O 0.13582 0.92996 0.64316 0.0
O230 O 0.14492 0.89813 0.60875 0.0
H231 H 0.34736 0.81262 0.59083 0.0
H232 H 0.38346 0.75326 0.60672 0.0
C233 C 0.33903 0.77638 0.60326 0.0
H234 H 0.30595 0.74254 0.59647 0.0
H235 H 0.25681 0.88931 0.57685 0.0
O236 O 0.16656 0.87056 0.69044 0.0
C237 C 0.12733 0.93793 0.62269 0.0
Co238 Co 0.83818 0.83566 0.34401 0.0
Co239 Co 0.80514 0.8351 0.39443 0.0
C240 C 0.72326 0.89812 0.36346 0.0
O241 O 0.7602 0.88277 0.34809 0.0
O242 O 0.73235 0.87959 0.38305 0.0
C243 C 0.81227 0.8167 0.29844 0.0
O244 O 0.75616 0.80948 0.30595 0.0
C245 C 0.75467 0.82327 0.43947 0.0
C246 C 0.8372 0.7894 0.45683 0.0
C247 C 0.77572 0.80329 0.45974 0.0
N248 N 0.80149 0.82002 0.42512 0.0
N249 N 0.85076 0.80049 0.43569 0.0
C250 C 0.6917 0.84539 0.43378 0.0
H251 H 0.69472 0.89394 0.42835 0.0
H252 H 0.67351 0.81795 0.41985 0.0
H253 H 0.66 0.8422 0.448 0.0
C254 C 0.8444 0.70097 0.35219 0.0
N255 N 0.83709 0.75943 0.35903 0.0
N256 N 0.81994 0.75905 0.37973 0.0
C257 C 0.81411 0.70016 0.38642 0.0
C258 C 0.83005 0.66142 0.36922 0.0
C259 C 0.86105 0.6828 0.32936 0.0
H260 H 0.90612 0.70368 0.32539 0.0
H261 H 0.82602 0.7005 0.3178 0.0
H262 H 0.86449 0.63214 0.32756 0.0
O263 O 0.90109 0.89055 0.35576 0.0
O264 O 0.8731 0.89456 0.39085 0.0
H265 H 0.82112 0.68536 0.42094 0.0
H266 H 0.77009 0.63274 0.40728 0.0
C267 C 0.78617 0.68115 0.40779 0.0
H268 H 0.74705 0.71177 0.41183 0.0
H269 H 0.89349 0.79362 0.42831 0.0
O270 O 0.85558 0.82696 0.31192 0.0
C271 C 0.9067 0.91225 0.37502 0.0
Co272 Co 0.66261 0.66779 0.65948 0.0
Co273 Co 0.66092 0.70021 0.60926 0.0
C274 C 0.59891 0.78192 0.64019 0.0
O275 O 0.61499 0.74454 0.65522 0.0
O276 O 0.61696 0.77362 0.62048 0.0
C277 C 0.68487 0.70494 0.70344 0.0
O278 O 0.68705 0.75956 0.69434 0.0
C279 C 0.67293 0.74864 0.56396 0.0
C280 C 0.7025 0.66402 0.54678 0.0
C281 C 0.69153 0.72605 0.54369 0.0
N282 N 0.67428 0.7021 0.57845 0.0
N283 N 0.69116 0.6516 0.56799 0.0
C284 C 0.65427 0.81289 0.56955 0.0
H285 H 0.60578 0.81263 0.57515 0.0
H286 H 0.68281 0.82996 0.58337 0.0
H287 H 0.65886 0.84406 0.55524 0.0
C288 C 0.79653 0.6612 0.65071 0.0
N289 N 0.73784 0.66804 0.64407 0.0
N290 N 0.73734 0.68575 0.62347 0.0
C291 C 0.79579 0.69259 0.61657 0.0
C292 C 0.83532 0.67702 0.63356 0.0
C293 C 0.81548 0.64708 0.67371 0.0
H294 H 0.78355 0.61317 0.68108 0.0
H295 H 0.81385 0.68994 0.68351 0.0
H296 H 0.86314 0.62894 0.67417 0.0
O297 O 0.60618 0.60374 0.64886 0.0
O298 O 0.60199 0.63252 0.61384 0.0
H299 H 0.80579 0.6869 0.58178 0.0
H300 H 0.86249 0.73472 0.59483 0.0
C301 C 0.81344 0.72081 0.59509 0.0
H302 H 0.78406 0.76144 0.59189 0.0
H303 H 0.69631 0.60883 0.57551 0.0
O304 O 0.67622 0.65785 0.69144 0.0
C305 C 0.58401 0.59884 0.62961 0.0
Co306 Co 0.66496 0.32664 0.34043 0.0
Co307 Co 0.68647 0.31987 0.39131 0.0
C308 C 0.75734 0.40612 0.36289 0.0
O309 O 0.73767 0.38087 0.34536 0.0
O310 O 0.74344 0.38534 0.38178 0.0
C311 C 0.69936 0.31518 0.29545 0.0
O312 O 0.755 0.32217 0.30343 0.0
C313 C 0.74142 0.31189 0.43562 0.0
C314 C 0.66636 0.26502 0.45348 0.0
C315 C 0.72496 0.28864 0.45599 0.0
N316 N 0.69478 0.30149 0.42163 0.0
N317 N 0.64999 0.27392 0.43246 0.0
C318 C 0.79963 0.34419 0.42954 0.0
H319 H 0.82025 0.32146 0.41498 0.0
H320 H 0.83295 0.34436 0.44333 0.0
H321 H 0.78886 0.39229 0.42487 0.0
C322 C 0.66011 0.19269 0.34616 0.0
N323 N 0.67099 0.24951 0.35393 0.0
N324 N 0.68857 0.24603 0.37449 0.0
C325 C 0.69376 0.18617 0.38003 0.0
C326 C 0.67532 0.15014 0.36228 0.0
C327 C 0.63093 0.18011 0.32435 0.0
H328 H 0.59407 0.21422 0.32123 0.0
H329 H 0.66582 0.18515 0.31122 0.0
H330 H 0.61133 0.13305 0.32363 0.0
O331 O 0.59533 0.37289 0.35235 0.0
O332 O 0.60631 0.3619 0.38852 0.0
H333 H 0.6783 0.16182 0.41355 0.0
H334 H 0.73692 0.11706 0.40018 0.0
C335 C 0.71695 0.16382 0.40172 0.0
H336 H 0.75217 0.19589 0.40821 0.0
H337 H 0.60828 0.26081 0.42541 0.0
O338 O 0.65351 0.31577 0.30837 0.0
C339 C 0.57837 0.3839 0.37194 0.0
Co340 Co 0.33821 0.35342 0.65928 0.0
Co341 Co 0.3237 0.31889 0.60937 0.0
C342 C 0.41894 0.25886 0.63511 0.0
O343 O 0.4021 0.29053 0.65171 0.0
O344 O 0.38974 0.26075 0.61702 0.0
C345 C 0.32124 0.31699 0.70376 0.0
O346 O 0.30221 0.26625 0.69421 0.0
C347 C 0.30741 0.26741 0.56461 0.0
C348 C 0.25885 0.34483 0.54873 0.0
C349 C 0.28172 0.2865 0.54492 0.0
N350 N 0.29937 0.31245 0.57948 0.0
N351 N 0.27058 0.35856 0.56982 0.0
C352 C 0.34011 0.20839 0.56916 0.0
H353 H 0.38948 0.2182 0.57209 0.0
H354 H 0.32135 0.18745 0.58436 0.0
H355 H 0.33568 0.17574 0.55524 0.0
C356 C 0.20224 0.34623 0.65608 0.0
N357 N 0.25888 0.33625 0.64792 0.0
N358 N 0.25383 0.31422 0.62791 0.0
C359 C 0.19387 0.30535 0.62331 0.0
C360 C 0.1589 0.32616 0.64091 0.0
C361 C 0.19009 0.38144 0.67669 0.0
H362 H 0.22467 0.41861 0.67841 0.0
H363 H 0.19433 0.35006 0.69094 0.0
H364 H 0.14326 0.40161 0.67668 0.0
O365 O 0.36978 0.42889 0.64629 0.0
O366 O 0.3631 0.40117 0.6114 0.0
H367 H 0.1652 0.31546 0.58994 0.0
H368 H 0.12476 0.25663 0.60483 0.0
C369 C 0.17032 0.27848 0.60231 0.0
H370 H 0.20324 0.24392 0.5959 0.0
H371 H 0.25896 0.39959 0.5777 0.0
O372 O 0.33791 0.36206 0.69191 0.0
C373 C 0.37936 0.43955 0.62604 0.0
Co374 Co 0.33946 0.66604 0.34167 0.0
Co375 Co 0.31445 0.66347 0.39292 0.0
C376 C 0.2296 0.60031 0.36278 0.0
O377 O 0.26409 0.61736 0.34702 0.0
O378 O 0.24078 0.61808 0.38236 0.0
C379 C 0.30274 0.68239 0.29659 0.0
O380 O 0.24719 0.68263 0.30498 0.0
C381 C 0.26828 0.67779 0.43873 0.0
C382 C 0.35555 0.69815 0.45583 0.0
C383 C 0.29292 0.69255 0.45913 0.0
N384 N 0.3144 0.67593 0.42401 0.0
N385 N 0.36639 0.68746 0.43444 0.0
C386 C 0.20249 0.66545 0.43324 0.0
H387 H 0.19741 0.61623 0.42882 0.0
H388 H 0.189 0.69296 0.41869 0.0
H389 H 0.17179 0.67605 0.44728 0.0
C390 C 0.34513 0.79959 0.35058 0.0
N391 N 0.33989 0.7409 0.35733 0.0
N392 N 0.32738 0.74021 0.37845 0.0
C393 C 0.32335 0.79872 0.38568 0.0
C394 C 0.33457 0.83832 0.36827 0.0
C395 C 0.35234 0.81844 0.32715 0.0
H396 H 0.38754 0.78936 0.31906 0.0
H397 H 0.308 0.81153 0.31857 0.0
H398 H 0.36561 0.86759 0.32586 0.0
O399 O 0.4055 0.61164 0.35174 0.0
O400 O 0.38259 0.60576 0.38732 0.0
H401 H 0.33568 0.80403 0.42038 0.0
H402 H 0.29147 0.86655 0.40915 0.0
C403 C 0.30066 0.81647 0.40796 0.0
H404 H 0.25799 0.79062 0.41164 0.0
H405 H 0.40931 0.68917 0.42683 0.0
O406 O 0.34893 0.67816 0.30931 0.0
C407 C 0.41418 0.58935 0.37078 0.0
Co408 Co 0.33353 0.64093 0.15782 0.0
Co409 Co 0.32028 0.66729 0.10731 0.0
C410 C 0.41255 0.73377 0.1324 0.0
O411 O 0.39691 0.70324 0.14937 0.0
O412 O 0.3838 0.72864 0.1143 0.0
C413 C 0.33384 0.68631 0.20188 0.0
O414 O 0.34578 0.73862 0.19201 0.0
C415 C 0.30038 0.71498 0.0624 0.0
C416 C 0.25617 0.6341 0.04701 0.0
C417 C 0.27456 0.6939 0.04299 0.0
N418 N 0.29649 0.66972 0.07735 0.0
N419 N 0.27044 0.62147 0.06798 0.0
C420 C 0.32839 0.77654 0.06676 0.0
H421 H 0.37827 0.77069 0.06988 0.0
H422 H 0.30773 0.79661 0.0818 0.0
H423 H 0.32185 0.80819 0.05268 0.0
C424 C 0.19845 0.64904 0.15452 0.0
N425 N 0.25494 0.65548 0.14585 0.0
N426 N 0.24993 0.67328 0.12535 0.0
C427 C 0.19013 0.68258 0.12069 0.0
C428 C 0.15518 0.6668 0.13894 0.0
C429 C 0.1865 0.62149 0.17662 0.0
H430 H 0.2185 0.58261 0.17946 0.0
H431 H 0.19535 0.65651 0.18947 0.0
H432 H 0.13836 0.60516 0.17809 0.0
O433 O 0.36642 0.56373 0.14634 0.0
O434 O 0.36131 0.58628 0.111 0.0
H435 H 0.16366 0.66827 0.08729 0.0
H436 H 0.1208 0.72767 0.10111 0.0
C437 C 0.16695 0.70662 0.09924 0.0
H438 H 0.19943 0.74132 0.0927 0.0
H439 H 0.26187 0.58002 0.07603 0.0
O440 O 0.32746 0.63769 0.19048 0.0
C441 C 0.37686 0.5499 0.12635 0.0
Co442 Co 0.66283 0.6689 0.84197 0.0
Co443 Co 0.68004 0.67242 0.89302 0.0
C444 C 0.75458 0.58852 0.86533 0.0
O445 O 0.73285 0.61221 0.84786 0.0
O446 O 0.74121 0.60971 0.88424 0.0
C447 C 0.70316 0.67506 0.79763 0.0
O448 O 0.75684 0.66265 0.80641 0.0
C449 C 0.73296 0.68523 0.93755 0.0
C450 C 0.65449 0.72644 0.95528 0.0
C451 C 0.71507 0.70844 0.95781 0.0
N452 N 0.68528 0.69042 0.92361 0.0
N453 N 0.63845 0.71458 0.93439 0.0
C454 C 0.79395 0.65864 0.93142 0.0
H455 H 0.78778 0.60972 0.92673 0.0
H456 H 0.81226 0.68321 0.91686 0.0
H457 H 0.82721 0.66166 0.94518 0.0
C458 C 0.6605 0.80235 0.84794 0.0
N459 N 0.66844 0.74524 0.85582 0.0
N460 N 0.68289 0.7479 0.87669 0.0
C461 C 0.68907 0.80769 0.88241 0.0
C462 C 0.67471 0.84451 0.86435 0.0
C463 C 0.63582 0.81564 0.82549 0.0
H464 H 0.59809 0.78308 0.82161 0.0
H465 H 0.6727 0.80866 0.81317 0.0
H466 H 0.61841 0.86345 0.82425 0.0
O467 O 0.59078 0.62467 0.8523 0.0
O468 O 0.60184 0.62558 0.88832 0.0
H469 H 0.67066 0.82828 0.91605 0.0
H470 H 0.72845 0.87664 0.90374 0.0
C471 C 0.71003 0.82911 0.9045 0.0
H472 H 0.74597 0.7977 0.91084 0.0
H473 H 0.59577 0.72392 0.92734 0.0
O474 O 0.65614 0.68011 0.80986 0.0
C475 C 0.57264 0.60814 0.87124 0.0
Co476 Co 0.66447 0.33223 0.15745 0.0
Co477 Co 0.67655 0.30734 0.10741 0.0
C478 C 0.60172 0.22675 0.13149 0.0
O479 O 0.60958 0.2627 0.14781 0.0
O480 O 0.63683 0.22929 0.11487 0.0
C481 C 0.66785 0.28647 0.20164 0.0
O482 O 0.65836 0.23268 0.19243 0.0
C483 C 0.69307 0.26684 0.06165 0.0
C484 C 0.73044 0.3513 0.04652 0.0
C485 C 0.71568 0.29059 0.04216 0.0
N486 N 0.6954 0.31129 0.07697 0.0
N487 N 0.71712 0.36179 0.06776 0.0
C488 C 0.67055 0.20291 0.06576 0.0
H489 H 0.69885 0.18146 0.07882 0.0
H490 H 0.67254 0.17429 0.05069 0.0
H491 H 0.62243 0.20473 0.07172 0.0
C492 C 0.79951 0.34371 0.15309 0.0
N493 N 0.74341 0.33328 0.14459 0.0
N494 N 0.74904 0.31846 0.12382 0.0
C495 C 0.8092 0.31536 0.11868 0.0
C496 C 0.8435 0.33174 0.13703 0.0
C497 C 0.8103 0.36489 0.17615 0.0
H498 H 0.77617 0.40074 0.18053 0.0
H499 H 0.80362 0.32568 0.18753 0.0
H500 H 0.85747 0.3834 0.17824 0.0
O501 O 0.6168 0.40322 0.14814 0.0
O502 O 0.61225 0.3717 0.11346 0.0
H503 H 0.8336 0.33098 0.08521 0.0
H504 H 0.8808 0.27469 0.09883 0.0
C505 C 0.83328 0.29258 0.09716 0.0
H506 H 0.80296 0.25576 0.09073 0.0
H507 H 0.72402 0.40315 0.07612 0.0
O508 O 0.67157 0.33433 0.1898 0.0
C509 C 0.59308 0.40571 0.1291 0.0
Co510 Co 0.36605 0.31059 0.84338 0.0
Co511 Co 0.34533 0.31609 0.89494 0.0
C512 C 0.2724 0.39413 0.86512 0.0
O513 O 0.3001 0.37199 0.84846 0.0
O514 O 0.28219 0.37433 0.88447 0.0
C515 C 0.32725 0.3029 0.79859 0.0
O516 O 0.27285 0.30808 0.80774 0.0
C517 C 0.29086 0.31202 0.93965 0.0
C518 C 0.36741 0.27092 0.95839 0.0
C519 C 0.30723 0.29081 0.96038 0.0
N520 N 0.33881 0.3035 0.926 0.0
N521 N 0.3846 0.27976 0.93742 0.0
C522 C 0.231 0.33981 0.93284 0.0
H523 H 0.23926 0.38706 0.92665 0.0
H524 H 0.21123 0.31261 0.91913 0.0
H525 H 0.19795 0.34171 0.94669 0.0
C526 C 0.34667 0.17797 0.85187 0.0
N527 N 0.35253 0.23649 0.85877 0.0
N528 N 0.3419 0.23886 0.88003 0.0
C529 C 0.32741 0.18188 0.88709 0.0
C530 C 0.33054 0.14148 0.86952 0.0
C531 C 0.35246 0.15798 0.82857 0.0
H532 H 0.31702 0.1816 0.8186 0.0
H533 H 0.34693 0.10748 0.8268 0.0
H534 H 0.39852 0.17162 0.82253 0.0
O535 O 0.44001 0.35244 0.85404 0.0
O536 O 0.42344 0.36131 0.88965 0.0
H537 H 0.28628 0.11987 0.9107 0.0
H538 H 0.26904 0.20062 0.91442 0.0
C539 C 0.30509 0.16721 0.90969 0.0
H540 H 0.34379 0.17133 0.92141 0.0
H541 H 0.42724 0.26822 0.93074 0.0
O542 O 0.37462 0.29984 0.81079 0.0
C543 C 0.45593 0.37305 0.87276 0.0
C544 C 0.23298 0.24017 0.24176 0.0
C545 C 0.18904 0.20705 0.22919 0.0
C546 C 0.15615 0.15219 0.26231 0.0
C547 C 0.19563 0.18965 0.27515 0.0
N548 N 0.26174 0.27871 0.27757 0.0
N549 N 0.09819 0.14303 0.22862 0.0
C550 C 0.23133 0.23633 0.26502 0.0
C551 C 0.14759 0.16622 0.23976 0.0
N552 N 0.27788 0.27351 0.23155 0.0
N553 N 0.12868 0.10165 0.27133 0.0
H554 H 0.08833 0.15432 0.21238 0.0
H555 H 0.06331 0.11807 0.23622 0.0
H556 H 0.13508 0.0885 0.28762 0.0
H557 H 0.10463 0.06932 0.26206 0.0
H558 H 0.31506 0.29268 0.23988 0.0
H559 H 0.28142 0.27735 0.21457 0.0
H560 H 0.28273 0.31765 0.27102 0.0
H561 H 0.2609 0.27858 0.29467 0.0
C562 C 0.20213 0.8743 0.74013 0.0
C563 C 0.16998 0.83043 0.7272 0.0
C564 C 0.13187 0.78036 0.76063 0.0
C565 C 0.16521 0.82331 0.7736 0.0
N566 N 0.21508 0.92209 0.7758 0.0
N567 N 0.0891 0.75504 0.72501 0.0
C568 C 0.1953 0.8736 0.76335 0.0
C569 C 0.13025 0.78744 0.73744 0.0
N570 N 0.24095 0.91532 0.73039 0.0
N571 N 0.10359 0.73134 0.77026 0.0
H572 H 0.08513 0.76064 0.70806 0.0
H573 H 0.05453 0.72768 0.73166 0.0
H574 H 0.10013 0.72632 0.78713 0.0
H575 H 0.08637 0.69396 0.76151 0.0
H576 H 0.27209 0.94237 0.73907 0.0
H577 H 0.24442 0.92018 0.71349 0.0
H578 H 0.23178 0.9629 0.76917 0.0
H579 H 0.20864 0.92431 0.79275 0.0
C580 C 0.78519 0.86227 0.26212 0.0
C581 C 0.8225 0.82144 0.27435 0.0
C582 C 0.87024 0.78727 0.24009 0.0
C583 C 0.823 0.81669 0.22802 0.0
N584 N 0.73407 0.88313 0.22785 0.0
N585 N 0.90264 0.74459 0.27473 0.0
C586 C 0.7803 0.85496 0.23908 0.0
C587 C 0.8661 0.78409 0.2633 0.0
N588 N 0.75736 0.91039 0.27246 0.0
N589 N 0.92092 0.76564 0.2294 0.0
H590 H 0.90398 0.74367 0.29173 0.0
H591 H 0.92927 0.71072 0.26725 0.0
H592 H 0.92742 0.77299 0.21268 0.0
H593 H 0.95945 0.74825 0.23741 0.0
H594 H 0.7335 0.94491 0.26424 0.0
H595 H 0.76582 0.9199 0.28893 0.0
H596 H 0.69741 0.90519 0.23554 0.0
H597 H 0.73043 0.88121 0.21091 0.0
C598 C 0.87877 0.20522 0.73842 0.0
C599 C 0.83408 0.17295 0.72605 0.0
C600 C 0.79511 0.12739 0.76003 0.0
C601 C 0.82976 0.17041 0.77241 0.0
N602 N 0.90667 0.25057 0.77317 0.0
N603 N 0.75008 0.10052 0.72512 0.0
C604 C 0.87278 0.209 0.76158 0.0
C605 C 0.79268 0.13268 0.73683 0.0
N606 N 0.92875 0.22953 0.72804 0.0
N607 N 0.76734 0.07932 0.77045 0.0
H608 H 0.74997 0.0993 0.70811 0.0
H609 H 0.71342 0.07724 0.73232 0.0
H610 H 0.77314 0.07174 0.78719 0.0
H611 H 0.7457 0.04324 0.76227 0.0
H612 H 0.96586 0.24913 0.73627 0.0
H613 H 0.93641 0.22277 0.71132 0.0
H614 H 0.93244 0.28527 0.76581 0.0
H615 H 0.90654 0.25239 0.79017 0.0
C616 C 0.64444 0.66307 0.73902 0.0
C617 C 0.68894 0.69865 0.72765 0.0
C618 C 0.73637 0.72647 0.76278 0.0
C619 C 0.69764 0.68374 0.77363 0.0
N620 N 0.62252 0.60212 0.77122 0.0
N621 N 0.78414 0.75621 0.72863 0.0
C622 C 0.65374 0.64941 0.76153 0.0
C623 C 0.73682 0.7283 0.73949 0.0
N624 N 0.59169 0.64482 0.72871 0.0
N625 N 0.77086 0.76718 0.77466 0.0
H626 H 0.78718 0.75821 0.7116 0.0
H627 H 0.82343 0.77236 0.73653 0.0
H628 H 0.77038 0.76884 0.79176 0.0
H629 H 0.79487 0.80348 0.76753 0.0
H630 H 0.5553 0.62392 0.73695 0.0
H631 H 0.58109 0.65681 0.71259 0.0
H632 H 0.59466 0.57184 0.76245 0.0
H633 H 0.62924 0.5891 0.78751 0.0
C634 C 0.72306 0.26001 0.26019 0.0
C635 C 0.69019 0.30667 0.27153 0.0
C636 C 0.63602 0.33295 0.23756 0.0
C637 C 0.67441 0.29182 0.22577 0.0
N638 N 0.76291 0.22484 0.2253 0.0
N639 N 0.62433 0.39603 0.26999 0.0
C640 C 0.72023 0.25754 0.23692 0.0
C641 C 0.64895 0.34546 0.25996 0.0
N642 N 0.75515 0.21656 0.27163 0.0
N643 N 0.5859 0.35854 0.2276 0.0
H644 H 0.63427 0.40838 0.28614 0.0
H645 H 0.5991 0.42923 0.2616 0.0
H646 H 0.5738 0.34927 0.21137 0.0
H647 H 0.55289 0.38385 0.23608 0.0
H648 H 0.77448 0.1779 0.26425 0.0
H649 H 0.75728 0.21563 0.28872 0.0
H650 H 0.8012 0.20453 0.23255 0.0
H651 H 0.7636 0.22296 0.20821 0.0
C652 C 0.36142 0.26388 0.76133 0.0
C653 C 0.33325 0.31008 0.77438 0.0
C654 C 0.30094 0.36457 0.74104 0.0
C655 C 0.32949 0.31851 0.728 0.0
N656 N 0.40279 0.23561 0.72581 0.0
N657 N 0.2931 0.41321 0.77673 0.0
C658 C 0.36451 0.27149 0.73819 0.0
C659 C 0.30803 0.36311 0.76424 0.0
N660 N 0.38315 0.2115 0.77084 0.0
N661 N 0.26506 0.40845 0.73146 0.0
H662 H 0.2997 0.41476 0.79368 0.0
H663 H 0.28048 0.45547 0.7701 0.0
H664 H 0.26049 0.413 0.71457 0.0
H665 H 0.2366 0.43792 0.74031 0.0
H666 H 0.39676 0.1729 0.76195 0.0
H667 H 0.38359 0.20498 0.78769 0.0
H668 H 0.43415 0.2048 0.73255 0.0
H669 H 0.40815 0.24137 0.70893 0.0
C670 C 0.34749 0.63788 0.26186 0.0
C671 C 0.31112 0.68357 0.27234 0.0
C672 C 0.28303 0.7251 0.23627 0.0
C673 C 0.32562 0.68469 0.22609 0.0
N674 N 0.40744 0.61047 0.22986 0.0
N675 N 0.2531 0.77796 0.26952 0.0
C676 C 0.36043 0.64321 0.23906 0.0
C677 C 0.28128 0.72924 0.25955 0.0
N678 N 0.36718 0.58763 0.27333 0.0
N679 N 0.24221 0.75763 0.2238 0.0
H680 H 0.25153 0.78358 0.28649 0.0
H681 H 0.23654 0.81586 0.26092 0.0
H682 H 0.24045 0.75459 0.20673 0.0
H683 H 0.20593 0.78264 0.23049 0.0
H684 H 0.38844 0.55007 0.2659 0.0
H685 H 0.35644 0.58016 0.28979 0.0
H686 H 0.4383 0.58453 0.23907 0.0
H687 H 0.41952 0.61402 0.21335 0.0
C688 C 0.06679 0.98273 0.13081 0.0
C689 C 0.052 0.04598 0.1297 0.0
C690 C 0.94307 0.02159 0.12448 0.0
C691 C 0.95711 0.95881 0.12771 0.0
N692 N 0.03018 0.87839 0.13585 0.0
N693 N 0.97642 0.12733 0.12833 0.0
C694 C 0.01848 0.93891 0.13132 0.0
C695 C 0.99022 0.06599 0.12718 0.0
N696 N 0.127 0.96474 0.13086 0.0
N697 N 0.88487 0.03846 0.11857 0.0
H698 H 0.00962 0.1615 0.13028 0.0
H699 H 0.93177 0.14436 0.12906 0.0
H700 H 0.84918 0.00679 0.11676 0.0
H701 H 0.87301 0.08279 0.11375 0.0
H702 H 0.14109 0.91921 0.12932 0.0
H703 H 0.16342 0.99596 0.13082 0.0
H704 H 0.07262 0.86216 0.14116 0.0
H705 H 0.99635 0.84441 0.13558 0.0
C706 C 0.9205 0.97028 0.86065 0.0
C707 C 0.93752 0.01932 0.875 0.0
C708 C 0.99922 0.94802 0.89666 0.0
C709 C 0.99396 0.90407 0.87957 0.0
N710 N 0.92998 0.86162 0.85149 0.0
N711 N 0.99502 0.05574 0.90632 0.0
C712 C 0.9485 0.91177 0.86331 0.0
C713 C 0.9768 0.00829 0.89311 0.0
N714 N 0.87828 0.97976 0.84439 0.0
N715 N 0.02185 0.93124 0.91667 0.0
H716 H 0.98045 0.10096 0.90401 0.0
H717 H 0.02893 0.05115 0.91827 0.0
H718 H 0.03014 0.88544 0.92073 0.0
H719 H 0.02295 0.96071 0.93015 0.0
H720 H 0.87168 0.94973 0.83132 0.0
H721 H 0.85048 0.01861 0.8435 0.0
H722 H 0.89401 0.86162 0.84026 0.0
H723 H 0.94741 0.81778 0.85468 0.0
C724 C 0.97686 0.00637 0.60796 0.0
C725 C 0.97942 0.06073 0.62064 0.0
C726 C 0.08928 0.04529 0.62728 0.0
C727 C 0.08554 0.98853 0.61593 0.0
N728 N 0.03423 0.93149 0.58705 0.0
N729 N 0.04042 0.14207 0.63668 0.0
C730 C 0.03211 0.97423 0.60348 0.0
C731 C 0.03656 0.08358 0.62849 0.0
N732 N 0.92151 0.98436 0.60082 0.0
N733 N 0.14315 0.0615 0.63724 0.0
H734 H 0.00262 0.17135 0.63786 0.0
H735 H 0.08165 0.16354 0.64072 0.0
H736 H 0.18366 0.03667 0.63482 0.0
H737 H 0.14751 0.09814 0.64814 0.0
H738 H 0.91609 0.94101 0.59379 0.0
H739 H 0.88016 0.00743 0.60352 0.0
H740 H 0.99723 0.9223 0.57672 0.0
H741 H 0.07496 0.91203 0.58146 0.0
C742 C 0.04599 0.00981 0.3873 0.0
C743 C 0.02616 0.06765 0.37887 0.0
C744 C 0.92554 0.02439 0.37 0.0
C745 C 0.94586 0.96662 0.37813 0.0
N746 N 0.01796 0.90713 0.39918 0.0
N747 N 0.94475 0.13413 0.36681 0.0
C748 C 0.00361 0.96039 0.38843 0.0
C749 C 0.96503 0.0762 0.37164 0.0
N750 N 0.10624 0.00068 0.39284 0.0
N751 N 0.86888 0.02928 0.36042 0.0
H752 H 0.97292 0.17282 0.36813 0.0
H753 H 0.89921 0.14487 0.36333 0.0
H754 H 0.83708 0.99339 0.36017 0.0
H755 H 0.85405 0.06792 0.3519 0.0
H756 H 0.12485 0.95762 0.39619 0.0
H757 H 0.13947 0.03505 0.39247 0.0
H758 H 0.05652 0.90216 0.40914 0.0
H759 H 0.9886 0.86922 0.39966 0.0
C760 C 0.41842 0.54563 0.63321 0.0
C761 C 0.42117 0.49131 0.62039 0.0
C762 C 0.52953 0.5102 0.61222 0.0
C763 C 0.52802 0.56209 0.6262 0.0
N764 N 0.46798 0.64048 0.64442 0.0
N765 N 0.47034 0.44104 0.58953 0.0
C766 C 0.47139 0.58347 0.63499 0.0
C767 C 0.47379 0.47953 0.60721 0.0
N768 N 0.36517 0.56013 0.6439 0.0
N769 N 0.58432 0.48914 0.60425 0.0
H770 H 0.42897 0.42394 0.58354 0.0
H771 H 0.50679 0.43392 0.57875 0.0
H772 H 0.6261 0.51091 0.60746 0.0
H773 H 0.58886 0.44731 0.59605 0.0
H774 H 0.36176 0.59432 0.6558 0.0
H775 H 0.32426 0.53634 0.64101 0.0
H776 H 0.42688 0.6612 0.64905 0.0
H777 H 0.50582 0.66955 0.64603 0.0
C778 C 0.5126 0.54219 0.38327 0.0
C779 C 0.45462 0.53565 0.37309 0.0
C780 C 0.47247 0.42531 0.36779 0.0
C781 C 0.53339 0.43358 0.37525 0.0
N782 N 0.61447 0.50054 0.38841 0.0
N783 N 0.37769 0.47245 0.35548 0.0
C784 C 0.55414 0.49198 0.38287 0.0
C785 C 0.43391 0.4775 0.36537 0.0
N786 N 0.52792 0.59642 0.39326 0.0
N787 N 0.4514 0.36725 0.36354 0.0
H788 H 0.34635 0.50861 0.35457 0.0
H789 H 0.3631 0.43332 0.34715 0.0
H790 H 0.47887 0.32828 0.36541 0.0
H791 H 0.40577 0.35687 0.36003 0.0
H792 H 0.56653 0.60187 0.40317 0.0
H793 H 0.49954 0.63505 0.39304 0.0
H794 H 0.63395 0.54355 0.39125 0.0
H795 H 0.64681 0.46533 0.38867 0.0
C796 C 0.525 0.48036 0.10926 0.0
C797 C 0.53319 0.43705 0.12633 0.0
C798 C 0.42546 0.45035 0.13747 0.0
C799 C 0.41963 0.49774 0.12171 0.0
N800 N 0.45158 0.53075 0.08561 0.0
N801 N 0.48594 0.36646 0.15206 0.0
C802 C 0.46546 0.50438 0.10531 0.0
C803 C 0.48177 0.4176 0.13911 0.0
N804 N 0.57424 0.50023 0.0973 0.0
N805 N 0.37671 0.43701 0.15077 0.0
H806 H 0.52568 0.34031 0.15347 0.0
H807 H 0.44878 0.34641 0.16005 0.0
H808 H 0.33296 0.45491 0.14782 0.0
H809 H 0.37938 0.40932 0.16465 0.0
H810 H 0.57162 0.53667 0.08625 0.0
H811 H 0.61879 0.4841 0.09986 0.0
H812 H 0.48273 0.53335 0.07266 0.0
H813 H 0.4066 0.54075 0.08097 0.0
C814 C 0.50888 0.45908 0.8935 0.0
C815 C 0.49949 0.42666 0.87351 0.0
C816 C 0.5177 0.52089 0.85297 0.0
C817 C 0.53041 0.55352 0.87259 0.0
N818 N 0.51532 0.55837 0.91168 0.0
N819 N 0.52726 0.42271 0.83519 0.0
C820 C 0.51981 0.52385 0.89302 0.0
C821 C 0.51397 0.45627 0.85351 0.0
N822 N 0.5116 0.42707 0.91273 0.0
N823 N 0.50556 0.55164 0.83395 0.0
H824 H 0.53282 0.37507 0.83577 0.0
H825 H 0.54161 0.44297 0.82055 0.0
H826 H 0.4996 0.59925 0.83361 0.0
H827 H 0.49247 0.52916 0.81956 0.0
H828 H 0.52309 0.44688 0.92774 0.0
H829 H 0.51019 0.37911 0.91307 0.0
H830 H 0.50301 0.54043 0.92689 0.0
H831 H 0.51577 0.60633 0.91126 0.0
C832 C 0.29389 0.31421 1.00026 0.0
C833 C 0.27035 0.28664 0.98093 0.0
C834 C 0.18794 0.24039 0.00278 0.0
C835 C 0.2196 0.25616 0.02233 0.0
N836 N 0.30836 0.30375 0.0393 0.0
N837 N 0.1979 0.21622 0.96427 0.0
C838 C 0.2736 0.29287 0.02107 0.0
C839 C 0.21747 0.2485 0.98219 0.0
N840 N 0.33585 0.36072 0.99872 0.0
N841 N 0.1297 0.21722 0.00393 0.0
H842 H 0.21936 0.21862 0.94905 0.0
H843 H 0.16371 0.18275 0.96506 0.0
H844 H 0.10648 0.2121 0.01881 0.0
H845 H 0.10245 0.20971 0.99012 0.0
H846 H 0.35055 0.38622 0.01223 0.0
H847 H 0.35068 0.37807 0.98366 0.0
H848 H 0.35176 0.32393 0.03868 0.0
H849 H 0.29643 0.28826 0.05482 0.0
C850 C 0.29642 0.70219 0.00304 0.0
C851 C 0.26616 0.72596 0.02179 0.0
C852 C 0.20637 0.79469 0.99828 0.0
C853 C 0.2272 0.76174 0.97965 0.0
N854 N 0.28993 0.68099 0.96415 0.0
N855 N 0.18944 0.79306 0.03752 0.0
C856 C 0.2726 0.71536 0.98188 0.0
C857 C 0.2211 0.77267 0.01957 0.0
N858 N 0.34779 0.6668 0.00556 0.0
N859 N 0.17233 0.84688 0.99554 0.0
H860 H 0.19865 0.77813 0.05341 0.0
H861 H 0.15114 0.8216 0.0365 0.0
H862 H 0.16152 0.86423 0.98005 0.0
H863 H 0.16032 0.87601 0.00842 0.0
H864 H 0.37514 0.65258 0.99248 0.0
H865 H 0.36646 0.65705 0.02095 0.0
H866 H 0.31724 0.64183 0.96535 0.0
H867 H 0.27355 0.68887 0.94835 0.0
C868 C 0.80024 0.75684 0.98015 0.0
C869 C 0.75056 0.71477 0.97852 0.0
C870 C 0.74529 0.70789 0.01856 0.0
C871 C 0.79574 0.74915 0.02026 0.0
N872 N 0.8826 0.79711 0.00278 0.0
N873 N 0.68966 0.63582 0.99562 0.0
C874 C 0.82715 0.7681 0.00103 0.0
C875 C 0.72798 0.68529 0.99759 0.0
N876 N 0.81906 0.78934 0.9622 0.0
N877 N 0.71076 0.69378 0.03657 0.0
H878 H 0.67695 0.61778 0.9804 0.0
H879 H 0.67608 0.60904 0.00893 0.0
H880 H 0.72053 0.71025 0.05218 0.0
H881 H 0.66937 0.66983 0.03568 0.0
H882 H 0.8503 0.82556 0.96308 0.0
H883 H 0.79994 0.7836 0.94667 0.0
H884 H 0.91021 0.80728 0.9893 0.0
H885 H 0.90377 0.80497 0.01791 0.0
C886 C 0.77975 0.18316 0.99835 0.0
C887 C 0.75979 0.21404 0.97918 0.0
C888 C 0.69647 0.28205 0.00186 0.0
C889 C 0.72584 0.25902 0.0209 0.0
N890 N 0.80292 0.19275 0.03695 0.0
N891 N 0.70486 0.29923 0.96285 0.0
C892 C 0.76903 0.21037 0.01916 0.0
C893 C 0.71896 0.26477 0.98088 0.0
N894 N 0.80895 0.12778 0.99663 0.0
N895 N 0.64689 0.32017 0.00382 0.0
H896 H 0.72147 0.28951 0.94723 0.0
H897 H 0.68096 0.34065 0.96374 0.0
H898 H 0.62864 0.33287 0.019 0.0
H899 H 0.62022 0.33377 0.99048 0.0
H900 H 0.81968 0.1006 0.01017 0.0
H901 H 0.81639 0.10614 0.98156 0.0
H902 H 0.83955 0.16206 0.0359 0.0
H903 H 0.79847 0.21291 0.05237 0.0
C904 C 0.83638 0.23942 0.50068 0.0
C905 C 0.80221 0.25849 0.51927 0.0
C906 C 0.73436 0.31785 0.49532 0.0
C907 C 0.75985 0.28754 0.47686 0.0
N908 N 0.83377 0.21605 0.46187 0.0
N909 N 0.71518 0.31326 0.53433 0.0
C910 C 0.81141 0.24831 0.47939 0.0
C911 C 0.75093 0.29815 0.51671 0.0
N912 N 0.89237 0.21221 0.50349 0.0
N913 N 0.69386 0.36505 0.49231 0.0
H914 H 0.72494 0.2993 0.55028 0.0
H915 H 0.67321 0.33591 0.5329 0.0
H916 H 0.68158 0.3807 0.47672 0.0
H917 H 0.67773 0.39248 0.50509 0.0
H918 H 0.92189 0.20195 0.49054 0.0
H919 H 0.91178 0.20585 0.519 0.0
H920 H 0.86658 0.18145 0.46334 0.0
H921 H 0.81645 0.22053 0.44602 0.0
C922 C 0.29032 0.26734 0.4838 0.0
C923 C 0.24578 0.22064 0.48047 0.0
C924 C 0.23551 0.20636 0.52015 0.0
C925 C 0.27847 0.2545 0.52348 0.0
N926 N 0.36042 0.31699 0.50924 0.0
N927 N 0.19066 0.13339 0.49457 0.0
C928 C 0.31067 0.28013 0.50548 0.0
C929 C 0.22355 0.18581 0.49843 0.0
N930 N 0.31002 0.30224 0.46654 0.0
N931 N 0.20318 0.18316 0.5375 0.0
H932 H 0.18189 0.11733 0.47873 0.0
H933 H 0.17753 0.10296 0.50689 0.0
H934 H 0.21098 0.19662 0.55368 0.0
H935 H 0.16606 0.15335 0.53575 0.0
H936 H 0.33663 0.3417 0.46838 0.0
H937 H 0.29665 0.29403 0.45039 0.0
H938 H 0.3892 0.33292 0.49683 0.0
H939 H 0.37636 0.32648 0.52505 0.0
C940 C 0.26799 0.6905 0.52035 0.0
C941 C 0.23077 0.74341 0.5232 0.0
C942 C 0.22441 0.75706 0.4834 0.0
C943 C 0.26185 0.70422 0.48046 0.0
N944 N 0.30371 0.61091 0.4955 0.0
N945 N 0.15799 0.8146 0.50788 0.0
C946 C 0.27825 0.66757 0.49879 0.0
C947 C 0.20355 0.77229 0.5048 0.0
N948 N 0.29673 0.66451 0.53798 0.0
N949 N 0.21246 0.79536 0.46616 0.0
H950 H 0.14147 0.82599 0.52345 0.0
H951 H 0.13248 0.83329 0.49505 0.0
H952 H 0.22759 0.78683 0.45026 0.0
H953 H 0.19161 0.83817 0.46797 0.0
H954 H 0.33013 0.63048 0.53655 0.0
H955 H 0.29025 0.67977 0.55404 0.0
H956 H 0.31179 0.57971 0.50812 0.0
H957 H 0.3109 0.5928 0.47983 0.0
C958 C 0.69539 0.74994 0.48272 0.0
C959 C 0.74209 0.79518 0.48068 0.0
C960 C 0.74969 0.80281 0.52063 0.0
C961 C 0.70193 0.75868 0.52268 0.0
N962 N 0.61695 0.70532 0.50598 0.0
N963 N 0.79915 0.87797 0.49724 0.0
C964 C 0.67045 0.73757 0.50376 0.0
C965 C 0.7641 0.82627 0.49954 0.0
N966 N 0.67798 0.71551 0.46501 0.0
N967 N 0.78451 0.81896 0.53838 0.0
H968 H 0.80961 0.89666 0.48192 0.0
H969 H 0.81206 0.90559 0.51045 0.0
H970 H 0.77712 0.80163 0.55406 0.0
H971 H 0.82417 0.84558 0.53716 0.0
H972 H 0.64916 0.67741 0.46624 0.0
H973 H 0.69622 0.72149 0.44936 0.0
H974 H 0.5892 0.69332 0.49272 0.0
H975 H 0.59722 0.69643 0.52127 0.0
C976 C 0.51526 0.15394 0.14092 0.0
C977 C 0.53827 0.20356 0.12832 0.0
C978 C 0.43372 0.23912 0.1215 0.0
C979 C 0.41 0.18641 0.1321 0.0
N980 N 0.42848 0.08675 0.14821 0.0
N981 N 0.51717 0.27985 0.10026 0.0
C982 C 0.45086 0.1415 0.14073 0.0
C983 C 0.49685 0.24152 0.11645 0.0
N984 N 0.55468 0.11937 0.15318 0.0
N985 N 0.39663 0.28829 0.11703 0.0
H986 H 0.56236 0.28074 0.0948 0.0
H987 H 0.48745 0.30483 0.09025 0.0
H988 H 0.35078 0.29054 0.12193 0.0
H989 H 0.41324 0.32965 0.11077 0.0
H990 H 0.53997 0.08668 0.16451 0.0
H991 H 0.60219 0.12587 0.15271 0.0
H992 H 0.4566 0.05022 0.15281 0.0
H993 H 0.38174 0.07615 0.14809 0.0
C994 C 0.15754 0.5262 0.86726 0.0
C995 C 0.19649 0.57587 0.86133 0.0
C996 C 0.28379 0.50628 0.85799 0.0
C997 C 0.24448 0.45571 0.86278 0.0
N998 N 0.14325 0.41531 0.86926 0.0
N999 N 0.29308 0.61248 0.84691 0.0
C1000 C 0.18097 0.465 0.86661 0.0
C1001 C 0.25832 0.56554 0.85523 0.0
N1002 N 0.09878 0.53789 0.87399 0.0
N1003 N 0.34619 0.49868 0.85761 0.0
H1004 H 0.27737 0.65756 0.84553 0.0
H1005 H 0.33587 0.60579 0.83963 0.0
H1006 H 0.36767 0.45652 0.8599 0.0
H1007 H 0.37723 0.53511 0.85715 0.0
H1008 H 0.06997 0.50487 0.88082 0.0
H1009 H 0.07967 0.58188 0.87376 0.0
H1010 H 0.09559 0.41825 0.87013 0.0
H1011 H 0.15963 0.37022 0.86905 0.0
C1012 C 0.52482 0.71481 0.12997 0.0
C1013 C 0.47601 0.7579 0.13173 0.0
C1014 C 0.55031 0.84265 0.13137 0.0
C1015 C 0.59881 0.79894 0.13147 0.0
N1016 N 0.63253 0.69382 0.13566 0.0
N1017 N 0.44086 0.86195 0.13613 0.0
C1018 C 0.58615 0.73514 0.13219 0.0
C1019 C 0.48828 0.82177 0.13298 0.0
N1020 N 0.51273 0.6545 0.1253 0.0
N1021 N 0.56369 0.90378 0.12934 0.0
H1022 H 0.39513 0.84764 0.13689 0.0
H1023 H 0.44681 0.90859 0.13931 0.0
H1024 H 0.60866 0.92032 0.1286 0.0
H1025 H 0.53064 0.93774 0.12708 0.0
H1026 H 0.54665 0.62267 0.12125 0.0
H1027 H 0.46847 0.63738 0.12332 0.0
H1028 H 0.62486 0.64743 0.13891 0.0
H1029 H 0.67849 0.70644 0.13739 0.0
C1030 C 0.83898 0.51065 0.87177 0.0
C1031 C 0.77904 0.52473 0.86408 0.0
C1032 C 0.75737 0.41451 0.85903 0.0
C1033 C 0.81808 0.40073 0.86575 0.0
N1034 N 0.91966 0.43395 0.87583 0.0
N1035 N 0.68282 0.48999 0.84801 0.0
C1036 C 0.85986 0.44838 0.87133 0.0
C1037 C 0.73903 0.4767 0.85686 0.0
N1038 N 0.87541 0.55673 0.87976 0.0
N1039 N 0.71585 0.36797 0.85582 0.0
H1040 H 0.66233 0.53296 0.8486 0.0
H1041 H 0.65718 0.45853 0.83895 0.0
H1042 H 0.72731 0.32149 0.85625 0.0
H1043 H 0.66872 0.3749 0.8543 0.0
H1044 H 0.91688 0.54928 0.88782 0.0
H1045 H 0.86258 0.60292 0.87926 0.0
H1046 H 0.95421 0.46646 0.87798 0.0
H1047 H 0.9358 0.38878 0.87595 0.0
C1048 C 0.53177 0.27896 0.63626 0.0
C1049 C 0.48301 0.23554 0.63482 0.0
C1050 C 0.55826 0.15256 0.6298 0.0
C1051 C 0.60645 0.19571 0.63304 0.0
N1052 N 0.63905 0.29735 0.64397 0.0
N1053 N 0.44874 0.13061 0.63243 0.0
C1054 C 0.59313 0.25802 0.63776 0.0
C1055 C 0.49592 0.17205 0.63218 0.0
N1056 N 0.51996 0.3406 0.63481 0.0
N1057 N 0.57224 0.09346 0.62403 0.0
H1058 H 0.40287 0.14392 0.63396 0.0
H1059 H 0.45499 0.08318 0.63265 0.0
H1060 H 0.61737 0.07766 0.62276 0.0
H1061 H 0.53962 0.06109 0.61927 0.0
H1062 H 0.5542 0.37373 0.63311 0.0
H1063 H 0.47601 0.35859 0.63297 0.0
H1064 H 0.63077 0.34127 0.65013 0.0
H1065 H 0.68511 0.28455 0.64492 0.0
C1066 C 0.14353 0.45448 0.37677 0.0
C1067 C 0.17623 0.41617 0.36181 0.0
C1068 C 0.20295 0.50741 0.34081 0.0
C1069 C 0.18951 0.54497 0.35913 0.0
N1070 N 0.13123 0.55693 0.39236 0.0
N1071 N 0.24491 0.40952 0.33052 0.0
C1072 C 0.15436 0.51932 0.37647 0.0
C1073 C 0.2076 0.44341 0.34389 0.0
N1074 N 0.10102 0.42931 0.39059 0.0
N1075 N 0.21086 0.53267 0.32056 0.0
H1076 H 0.25482 0.36333 0.33334 0.0
H1077 H 0.27155 0.42945 0.3182 0.0
H1078 H 0.20119 0.5789 0.31766 0.0
H1079 H 0.21803 0.50617 0.30651 0.0
H1080 H 0.07247 0.45522 0.40071 0.0
H1081 H 0.09029 0.38257 0.3904 0.0
H1082 H 0.11181 0.54096 0.40689 0.0
H1083 H 0.13206 0.60471 0.39076 0.0
C1084 C 0.50952 0.8098 0.6637 0.0
C1085 C 0.54427 0.82222 0.64462 0.0
C1086 C 0.45083 0.86373 0.62771 0.0
C1087 C 0.41538 0.83124 0.64357 0.0
N1088 N 0.41322 0.76965 0.67669 0.0
N1089 N 0.55156 0.88028 0.61124 0.0
C1090 C 0.44515 0.80413 0.66184 0.0
C1091 C 0.516 0.85591 0.62748 0.0
N1092 N 0.5381 0.80358 0.68346 0.0
N1093 N 0.42243 0.90303 0.61349 0.0
H1094 H 0.59938 0.88167 0.61255 0.0
H1095 H 0.53411 0.89898 0.59682 0.0
H1096 H 0.37527 0.91147 0.61403 0.0
H1097 H 0.4458 0.93115 0.60249 0.0
H1098 H 0.51419 0.79756 0.69813 0.0
H1099 H 0.58484 0.81304 0.68519 0.0
H1100 H 0.43484 0.74487 0.68913 0.0
H1101 H 0.36638 0.76055 0.67527 0.0
C1102 C 0.85658 0.54887 0.37239 0.0
C1103 C 0.81372 0.59544 0.36682 0.0
C1104 C 0.74053 0.51764 0.3542 0.0
C1105 C 0.78076 0.47032 0.36178 0.0
N1106 N 0.87514 0.44039 0.37942 0.0
N1107 N 0.71161 0.62489 0.35565 0.0
C1108 C 0.83836 0.48587 0.37126 0.0
C1109 C 0.75503 0.58002 0.35848 0.0
N1110 N 0.9149 0.56502 0.37841 0.0
N1111 N 0.68781 0.5037 0.343 0.0
H1112 H 0.72022 0.6716 0.35792 0.0
H1113 H 0.66529 0.6157 0.35287 0.0
H1114 H 0.67009 0.45977 0.34112 0.0
H1115 H 0.66269 0.53616 0.33422 0.0
H1116 H 0.95043 0.53359 0.38056 0.0
H1117 H 0.92895 0.61072 0.37988 0.0
H1118 H 0.91425 0.44862 0.3888 0.0
H1119 H 0.86487 0.3938 0.3776 0.0
C1120 C 0.97565 0.77891 0.63697 0.0
C1121 C 0.0243 0.73546 0.63536 0.0
C1122 C 0.94864 0.65216 0.63198 0.0
C1123 C 0.90079 0.69549 0.63549 0.0
N1124 N 0.8694 0.79771 0.64614 0.0
N1125 N 0.05834 0.63038 0.63353 0.0
C1126 C 0.91459 0.75804 0.63957 0.0
C1127 C 0.01118 0.6718 0.63346 0.0
N1128 N 0.98713 0.84039 0.6346 0.0
N1129 N 0.93413 0.59276 0.62681 0.0
H1130 H 0.10432 0.64378 0.63436 0.0
H1131 H 0.05205 0.58299 0.63427 0.0
H1132 H 0.88891 0.57685 0.62627 0.0
H1133 H 0.96631 0.5602 0.62185 0.0
H1134 H 0.95262 0.87328 0.63307 0.0
H1135 H 0.03074 0.85818 0.63172 0.0
H1136 H 0.87839 0.84206 0.65178 0.0
H1137 H 0.82355 0.78484 0.64797 0.0
C1138 C 0.69292 0.98738 0.34055 0.0
C1139 C 0.68207 0.95246 0.35958 0.0
C1140 C 0.64055 0.04605 0.37659 0.0
C1141 C 0.67286 0.08168 0.3607 0.0
N1142 N 0.73755 0.08185 0.32821 0.0
N1143 N 0.62614 0.94548 0.39346 0.0
C1144 C 0.70048 0.05134 0.34262 0.0
C1145 C 0.64934 0.98085 0.37699 0.0
N1146 N 0.69546 0.95965 0.32059 0.0
N1147 N 0.60015 0.07401 0.39054 0.0
H1148 H 0.62505 0.8976 0.39227 0.0
H1149 H 0.60818 0.96332 0.40797 0.0
H1150 H 0.59047 0.12091 0.38968 0.0
H1151 H 0.57213 0.05019 0.40145 0.0
H1152 H 0.69774 0.98518 0.30613 0.0
H1153 H 0.68659 0.91271 0.31879 0.0
H1154 H 0.76107 0.05913 0.31567 0.0
H1155 H 0.75037 0.12764 0.33031 0.0
C1156 C 0.05898 0.30536 0.66061 0.0
C1157 C 0.09058 0.33064 0.64238 0.0
C1158 C 0.99131 0.35295 0.6248 0.0
C1159 C 0.96158 0.32093 0.64206 0.0
N1160 N 0.96444 0.30927 0.6812 0.0
N1161 N 0.08562 0.40074 0.61173 0.0
C1162 C 0.99458 0.31163 0.66167 0.0
C1163 C 0.05636 0.36166 0.6258 0.0
N1164 N 0.08896 0.27158 0.67613 0.0
N1165 N 0.95734 0.37524 0.60778 0.0
H1166 H 0.13246 0.41035 0.61298 0.0
H1167 H 0.06293 0.42783 0.60024 0.0
H1168 H 0.90944 0.3768 0.60849 0.0
H1169 H 0.97631 0.39222 0.59332 0.0
H1170 H 0.06568 0.2489 0.68872 0.0
H1171 H 0.13553 0.26086 0.67514 0.0
H1172 H 0.98788 0.30822 0.69612 0.0
H1173 H 0.91719 0.31712 0.68218 0.0
C1174 C 0.33638 0.01365 0.37292 0.0
C1175 C 0.27631 0.02765 0.36532 0.0
C1176 C 0.25449 0.91744 0.36066 0.0
C1177 C 0.31555 0.90375 0.36693 0.0
N1178 N 0.41744 0.9372 0.37654 0.0
N1179 N 0.18041 0.9925 0.34901 0.0
C1180 C 0.35742 0.95146 0.37234 0.0
C1181 C 0.23633 0.97953 0.35815 0.0
N1182 N 0.37291 0.05973 0.38085 0.0
N1183 N 0.21245 0.87102 0.35822 0.0
H1184 H 0.15989 0.03552 0.34919 0.0
H1185 H 0.15479 0.96041 0.3402 0.0
H1186 H 0.22347 0.8245 0.35924 0.0
H1187 H 0.1653 0.87839 0.357 0.0
H1188 H 0.41446 0.05223 0.38885 0.0
H1189 H 0.36009 0.10592 0.38037 0.0
H1190 H 0.45198 0.96984 0.37851 0.0
H1191 H 0.43369 0.89207 0.37662 0.0
C1192 C 0.98493 0.64914 0.12483 0.0
C1193 C 0.95855 0.68437 0.14202 0.0
C1194 C 0.05861 0.69825 0.15882 0.0
C1195 C 0.08691 0.66746 0.14099 0.0
N1196 N 0.07467 0.59327 0.11178 0.0
N1197 N 0.96727 0.69997 0.18096 0.0
C1198 C 0.04932 0.63627 0.12538 0.0
C1199 C 0.99432 0.69496 0.16094 0.0
N1200 N 0.94843 0.6276 0.10835 0.0
N1201 N 0.09168 0.73395 0.17297 0.0
H1202 H 0.92037 0.69188 0.18305 0.0
H1203 H 0.99309 0.70266 0.19536 0.0
H1204 H 0.13839 0.74282 0.17096 0.0
H1205 H 0.07071 0.76002 0.18525 0.0
H1206 H 0.96538 0.60814 0.09395 0.0
H1207 H 0.90059 0.62957 0.10937 0.0
H1208 H 0.04907 0.56589 0.10114 0.0
H1209 H 0.12089 0.58085 0.11269 0.0
C1210 C 0.64371 0.95157 0.87738 0.0
C1211 C 0.67647 0.91318 0.86243 0.0
C1212 C 0.70186 0.00467 0.84129 0.0
C1213 C 0.68885 0.04247 0.85951 0.0
N1214 N 0.63027 0.05416 0.89275 0.0
N1215 N 0.74517 0.90738 0.83113 0.0
C1216 C 0.65411 0.01662 0.87697 0.0
C1217 C 0.70744 0.94078 0.84448 0.0
N1218 N 0.60105 0.9264 0.89113 0.0
N1219 N 0.70807 0.02963 0.82097 0.0
H1220 H 0.75703 0.86185 0.83433 0.0
H1221 H 0.76984 0.9273 0.8183 0.0
H1222 H 0.69961 0.07623 0.81818 0.0
H1223 H 0.71262 0.00239 0.80696 0.0
H1224 H 0.57241 0.95229 0.90122 0.0
H1225 H 0.59017 0.87971 0.89088 0.0
H1226 H 0.61152 0.03814 0.90739 0.0
H1227 H 0.62929 0.10185 0.89088 0.0
C1228 C 0.95049 0.36423 0.12514 0.0
C1229 C 0.91167 0.33004 0.13949 0.0
C1230 C 0.00204 0.2998 0.16022 0.0
C1231 C 0.04054 0.31636 0.14245 0.0
N1232 N 0.05312 0.37723 0.10987 0.0
N1233 N 0.90446 0.25428 0.16855 0.0
C1234 C 0.01525 0.35298 0.12544 0.0
C1235 C 0.93839 0.29503 0.15658 0.0
N1236 N 0.92581 0.40817 0.11181 0.0
N1237 N 0.02567 0.28981 0.18061 0.0
H1238 H 0.85856 0.24449 0.16513 0.0
H1239 H 0.92434 0.2251 0.18012 0.0
H1240 H 0.07098 0.30105 0.18441 0.0
H1241 H 0.99801 0.27994 0.19415 0.0
H1242 H 0.9521 0.4378 0.10223 0.0
H1243 H 0.87905 0.41869 0.11185 0.0
H1244 H 0.03738 0.39799 0.09554 0.0
H1245 H 0.10086 0.37584 0.11148 0.0
C1246 C 0.21629 0.01001 0.86759 0.0
C1247 C 0.25628 0.95835 0.86718 0.0
C1248 C 0.34559 0.02675 0.86976 0.0
C1249 C 0.30555 0.07815 0.86847 0.0
N1250 N 0.20413 0.11945 0.86222 0.0
N1251 N 0.35827 0.91611 0.86572 0.0
C1252 C 0.2413 0.06997 0.8662 0.0
C1253 C 0.32088 0.96627 0.86769 0.0
N1254 N 0.1544 0.00196 0.87038 0.0
N1255 N 0.40689 0.03594 0.87342 0.0
H1256 H 0.34115 0.87141 0.86447 0.0
H1257 H 0.40572 0.91877 0.86385 0.0
H1258 H 0.42639 0.07967 0.87452 0.0
H1259 H 0.43786 0.0007 0.87671 0.0
H1260 H 0.12404 0.03788 0.87356 0.0
H1261 H 0.13365 0.95893 0.87153 0.0
H1262 H 0.15812 0.11541 0.85776 0.0
H1263 H 0.22018 0.16458 0.86154 0.0
loop_
_geom_bond_atom_site_label_1
_geom_bond_atom_site_label_2
_geom_bond_distance
_geom_bond_site_symmetry_2
_ccdc_geom_bond_type
Co0 O3 1.970 . S
Co0 N17 1.989 . S
Co0 O25 1.967 . S
Co0 O32 1.920 . S
Co1 O4 1.966 . S
Co1 N10 2.022 . S
Co1 N18 1.993 . S
Co1 O26 1.941 . S
C2 O3 1.258 . S
C2 O4 1.263 . S
O3 Co0 1.970 . S
O3 C2 1.258 . S
O4 Co1 1.966 . S
O4 C2 1.263 . S
C5 O6 1.235 . S
C5 O32 1.289 . S
O6 C5 1.235 . S
C7 C9 1.400 . S
C7 N10 1.351 . S
C7 C12 1.501 . S
C8 C9 1.387 . S
C8 N11 1.341 . S
C9 C7 1.400 . S
C9 C8 1.387 . S
N10 Co1 2.022 . S
N10 C7 1.351 . S
N10 N11 1.365 . S
N11 C8 1.341 . S
N11 N10 1.365 . S
N11 H31 0.862 . S
C12 C7 1.501 . S
C12 H13 0.961 . S
C12 H14 0.961 . S
C12 H15 0.960 . S
H13 C12 0.961 . S
H14 C12 0.961 . S
H15 C12 0.960 . S
C16 N17 1.342 . S
C16 C20 1.401 . S
C16 C21 1.499 . S
N17 Co0 1.989 . S
N17 C16 1.342 . S
N17 N18 1.388 . S
N18 Co1 1.993 . S
N18 N17 1.388 . S
N18 C19 1.346 . S
C19 N18 1.346 . S
C19 C20 1.396 . S
C19 C29 1.510 . S
C20 C16 1.401 . S
C20 C19 1.396 . S
C21 C16 1.499 . S
C21 H22 0.959 . S
C21 H23 0.960 . S
C21 H24 0.961 . S
H22 C21 0.959 . S
H23 C21 0.960 . S
H24 C21 0.961 . S
O25 Co0 1.967 . S
O25 C33 1.258 . S
O26 Co1 1.941 . S
O26 C33 1.266 . S
H27 C29 0.959 . S
H28 C29 0.961 . S
C29 C19 1.510 . S
C29 H27 0.959 . S
C29 H28 0.961 . S
C29 H30 0.960 . S
H30 C29 0.960 . S
H31 N11 0.862 . S
O32 Co0 1.920 . S
O32 C5 1.289 . S
C33 O25 1.258 . S
C33 O26 1.266 . S
Co34 O37 1.970 . S
Co34 N51 1.989 . S
Co34 O59 1.967 . S
Co34 O66 1.920 . S
Co35 O38 1.966 . S
Co35 N44 2.022 . S
Co35 N52 1.993 . S
Co35 O60 1.941 . S
C36 O37 1.258 . S
C36 O38 1.263 . S
O37 Co34 1.970 . S
O37 C36 1.258 . S
O38 Co35 1.966 . S
O38 C36 1.263 . S
C39 O40 1.235 . S
C39 O66 1.289 . S
O40 C39 1.235 . S
C41 C43 1.400 . S
C41 N44 1.351 . S
C41 C46 1.501 . S
C42 C43 1.387 . S
C42 N45 1.341 . S
C43 C41 1.400 . S
C43 C42 1.387 . S
N44 Co35 2.022 . S
N44 C41 1.351 . S
N44 N45 1.365 . S
N45 C42 1.341 . S
N45 N44 1.365 . S
N45 H65 0.862 . S
C46 C41 1.501 . S
C46 H47 0.961 . S
C46 H48 0.961 . S
C46 H49 0.960 . S
H47 C46 0.961 . S
H48 C46 0.961 . S
H49 C46 0.960 . S
C50 N51 1.342 . S
C50 C54 1.401 . S
C50 C55 1.499 . S
N51 Co34 1.989 . S
N51 C50 1.342 . S
N51 N52 1.388 . S
N52 Co35 1.993 . S
N52 N51 1.388 . S
N52 C53 1.346 . S
C53 N52 1.346 . S
C53 C54 1.396 . S
C53 C63 1.510 . S
C54 C50 1.401 . S
C54 C53 1.396 . S
C55 C50 1.499 . S
C55 H56 0.959 . S
C55 H57 0.960 . S
C55 H58 0.961 . S
H56 C55 0.959 . S
H57 C55 0.960 . S
H58 C55 0.961 . S
O59 Co34 1.967 . S
O59 C67 1.258 . S
O60 Co35 1.941 . S
O60 C67 1.266 . S
H61 C63 0.959 . S
H62 C63 0.961 . S
C63 C53 1.510 . S
C63 H61 0.959 . S
C63 H62 0.961 . S
C63 H64 0.960 . S
H64 C63 0.960 . S
H65 N45 0.862 . S
O66 Co34 1.920 . S
O66 C39 1.289 . S
C67 O59 1.258 . S
C67 O60 1.266 . S
Co68 O71 1.970 . S
Co68 N85 1.989 . S
Co68 O93 1.967 . S
Co68 O100 1.920 . S
Co69 O72 1.966 . S
Co69 N78 2.022 . S
Co69 N86 1.993 . S
Co69 O94 1.941 . S
C70 O71 1.258 . S
C70 O72 1.263 . S
O71 Co68 1.970 . S
O71 C70 1.258 . S
O72 Co69 1.966 . S
O72 C70 1.263 . S
C73 O74 1.235 . S
C73 O100 1.289 . S
O74 C73 1.235 . S
C75 C77 1.400 . S
C75 N78 1.351 . S
C75 C80 1.501 . S
C76 C77 1.387 . S
C76 N79 1.341 . S
C77 C75 1.400 . S
C77 C76 1.387 . S
N78 Co69 2.022 . S
N78 C75 1.351 . S
N78 N79 1.365 . S
N79 C76 1.341 . S
N79 N78 1.365 . S
N79 H99 0.862 . S
C80 C75 1.501 . S
C80 H81 0.961 . S
C80 H82 0.961 . S
C80 H83 0.960 . S
H81 C80 0.961 . S
H82 C80 0.961 . S
H83 C80 0.960 . S
C84 N85 1.342 . S
C84 C88 1.401 . S
C84 C89 1.499 . S
N85 Co68 1.989 . S
N85 C84 1.342 . S
N85 N86 1.388 . S
N86 Co69 1.993 . S
N86 N85 1.388 . S
N86 C87 1.346 . S
C87 N86 1.346 . S
C87 C88 1.396 . S
C87 C97 1.510 . S
C88 C84 1.401 . S
C88 C87 1.396 . S
C89 C84 1.499 . S
C89 H90 0.959 . S
C89 H91 0.960 . S
C89 H92 0.961 . S
H90 C89 0.959 . S
H91 C89 0.960 . S
H92 C89 0.961 . S
O93 Co68 1.967 . S
O93 C101 1.258 . S
O94 Co69 1.941 . S
O94 C101 1.266 . S
H95 C97 0.959 . S
H96 C97 0.961 . S
C97 C87 1.510 . S
C97 H95 0.959 . S
C97 H96 0.961 . S
C97 H98 0.960 . S
H98 C97 0.960 . S
H99 N79 0.862 . S
O100 Co68 1.920 . S
O100 C73 1.289 . S
C101 O93 1.258 . S
C101 O94 1.266 . S
Co102 O105 1.970 . S
Co102 N119 1.989 . S
Co102 O127 1.967 . S
Co102 O134 1.920 . S
Co103 O106 1.966 . S
Co103 N112 2.022 . S
Co103 N120 1.993 . S
Co103 O128 1.941 . S
C104 O105 1.258 . S
C104 O106 1.263 . S
O105 Co102 1.970 . S
O105 C104 1.258 . S
O106 Co103 1.966 . S
O106 C104 1.263 . S
C107 O108 1.235 . S
C107 O134 1.289 . S
O108 C107 1.235 . S
C109 C111 1.400 . S
C109 N112 1.351 . S
C109 C114 1.501 . S
C110 C111 1.387 . S
C110 N113 1.341 . S
C111 C109 1.400 . S
C111 C110 1.387 . S
N112 Co103 2.022 . S
N112 C109 1.351 . S
N112 N113 1.365 . S
N113 C110 1.341 . S
N113 N112 1.365 . S
N113 H133 0.862 . S
C114 C109 1.501 . S
C114 H115 0.961 . S
C114 H116 0.961 . S
C114 H117 0.960 . S
H115 C114 0.961 . S
H116 C114 0.961 . S
H117 C114 0.960 . S
C118 N119 1.342 . S
C118 C122 1.401 . S
C118 C123 1.499 . S
N119 Co102 1.989 . S
N119 C118 1.342 . S
N119 N120 1.388 . S
N120 Co103 1.993 . S
N120 N119 1.388 . S
N120 C121 1.346 . S
C121 N120 1.346 . S
C121 C122 1.396 . S
C121 C131 1.510 . S
C122 C118 1.401 . S
C122 C121 1.396 . S
C123 C118 1.499 . S
C123 H124 0.959 . S
C123 H125 0.960 . S
C123 H126 0.961 . S
H124 C123 0.959 . S
H125 C123 0.960 . S
H126 C123 0.961 . S
O127 Co102 1.967 . S
O127 C135 1.258 . S
O128 Co103 1.941 . S
O128 C135 1.266 . S
H129 C131 0.959 . S
H130 C131 0.961 . S
C131 C121 1.510 . S
C131 H129 0.959 . S
C131 H130 0.961 . S
C131 H132 0.960 . S
H132 C131 0.960 . S
H133 N113 0.862 . S
O134 Co102 1.920 . S
O134 C107 1.289 . S
C135 O127 1.258 . S
C135 O128 1.266 . S
Co136 O139 1.970 . S
Co136 N153 1.989 . S
Co136 O161 1.967 . S
Co136 O168 1.920 . S
Co137 O140 1.966 . S
Co137 N146 2.022 . S
Co137 N154 1.993 . S
Co137 O162 1.941 . S
C138 O139 1.258 . S
C138 O140 1.263 . S
O139 Co136 1.970 . S
O139 C138 1.258 . S
O140 Co137 1.966 . S
O140 C138 1.263 . S
C141 O142 1.235 . S
C141 O168 1.289 . S
O142 C141 1.235 . S
C143 C145 1.400 . S
C143 N146 1.351 . S
C143 C148 1.501 . S
C144 C145 1.387 . S
C144 N147 1.341 . S
C145 C143 1.400 . S
C145 C144 1.387 . S
N146 Co137 2.022 . S
N146 C143 1.351 . S
N146 N147 1.365 . S
N147 C144 1.341 . S
N147 N146 1.365 . S
N147 H167 0.862 . S
C148 C143 1.501 . S
C148 H149 0.961 . S
C148 H150 0.961 . S
C148 H151 0.960 . S
H149 C148 0.961 . S
H150 C148 0.961 . S
H151 C148 0.960 . S
C152 N153 1.342 . S
C152 C156 1.401 . S
C152 C157 1.499 . S
N153 Co136 1.989 . S
N153 C152 1.342 . S
N153 N154 1.388 . S
N154 Co137 1.993 . S
N154 N153 1.388 . S
N154 C155 1.346 . S
C155 N154 1.346 . S
C155 C156 1.396 . S
C155 C165 1.510 . S
C156 C152 1.401 . S
C156 C155 1.396 . S
C157 C152 1.499 . S
C157 H158 0.959 . S
C157 H159 0.960 . S
C157 H160 0.961 . S
H158 C157 0.959 . S
H159 C157 0.960 . S
H160 C157 0.961 . S
O161 Co136 1.967 . S
O161 C169 1.258 . S
O162 Co137 1.941 . S
O162 C169 1.266 . S
H163 C165 0.959 . S
H164 C165 0.961 . S
C165 C155 1.510 . S
C165 H163 0.959 . S
C165 H164 0.961 . S
C165 H166 0.960 . S
H166 C165 0.960 . S
H167 N147 0.862 . S
O168 Co136 1.920 . S
O168 C141 1.289 . S
C169 O161 1.258 . S
C169 O162 1.266 . S
Co170 O173 1.970 . S
Co170 N187 1.989 . S
Co170 O195 1.967 . S
Co170 O202 1.920 . S
Co171 O174 1.966 . S
Co171 N180 2.022 . S
Co171 N188 1.993 . S
Co171 O196 1.941 . S
C172 O173 1.258 . S
C172 O174 1.263 . S
O173 Co170 1.970 . S
O173 C172 1.258 . S
O174 Co171 1.966 . S
O174 C172 1.263 . S
C175 O176 1.235 . S
C175 O202 1.289 . S
O176 C175 1.235 . S
C177 C179 1.400 . S
C177 N180 1.351 . S
C177 C182 1.501 . S
C178 C179 1.387 . S
C178 N181 1.341 . S
C179 C177 1.400 . S
C179 C178 1.387 . S
N180 Co171 2.022 . S
N180 C177 1.351 . S
N180 N181 1.365 . S
N181 C178 1.341 . S
N181 N180 1.365 . S
N181 H201 0.862 . S
C182 C177 1.501 . S
C182 H183 0.961 . S
C182 H184 0.961 . S
C182 H185 0.960 . S
H183 C182 0.961 . S
H184 C182 0.961 . S
H185 C182 0.960 . S
C186 N187 1.342 . S
C186 C190 1.401 . S
C186 C191 1.499 . S
N187 Co170 1.989 . S
N187 C186 1.342 . S
N187 N188 1.388 . S
N188 Co171 1.993 . S
N188 N187 1.388 . S
N188 C189 1.346 . S
C189 N188 1.346 . S
C189 C190 1.396 . S
C189 C199 1.510 . S
C190 C186 1.401 . S
C190 C189 1.396 . S
C191 C186 1.499 . S
C191 H192 0.959 . S
C191 H193 0.960 . S
C191 H194 0.961 . S
H192 C191 0.959 . S
H193 C191 0.960 . S
H194 C191 0.961 . S
O195 Co170 1.967 . S
O195 C203 1.258 . S
O196 Co171 1.941 . S
O196 C203 1.266 . S
H197 C199 0.959 . S
H198 C199 0.961 . S
C199 C189 1.510 . S
C199 H197 0.959 . S
C199 H198 0.961 . S
C199 H200 0.960 . S
H200 C199 0.960 . S
H201 N181 0.862 . S
O202 Co170 1.920 . S
O202 C175 1.289 . S
C203 O195 1.258 . S
C203 O196 1.266 . S
Co204 O207 1.970 . S
Co204 N221 1.989 . S
Co204 O229 1.967 . S
Co204 O236 1.920 . S
Co205 O208 1.966 . S
Co205 N214 2.022 . S
Co205 N222 1.993 . S
Co205 O230 1.941 . S
C206 O207 1.258 . S
C206 O208 1.263 . S
O207 Co204 1.970 . S
O207 C206 1.258 . S
O208 Co205 1.966 . S
O208 C206 1.263 . S
C209 O210 1.235 . S
C209 O236 1.289 . S
O210 C209 1.235 . S
C211 C213 1.400 . S
C211 N214 1.351 . S
C211 C216 1.501 . S
C212 C213 1.387 . S
C212 N215 1.341 . S
C213 C211 1.400 . S
C213 C212 1.387 . S
N214 Co205 2.022 . S
N214 C211 1.351 . S
N214 N215 1.365 . S
N215 C212 1.341 . S
N215 N214 1.365 . S
N215 H235 0.862 . S
C216 C211 1.501 . S
C216 H217 0.961 . S
C216 H218 0.961 . S
C216 H219 0.960 . S
H217 C216 0.961 . S
H218 C216 0.961 . S
H219 C216 0.960 . S
C220 N221 1.342 . S
C220 C224 1.401 . S
C220 C225 1.499 . S
N221 Co204 1.989 . S
N221 C220 1.342 . S
N221 N222 1.388 . S
N222 Co205 1.993 . S
N222 N221 1.388 . S
N222 C223 1.346 . S
C223 N222 1.346 . S
C223 C224 1.396 . S
C223 C233 1.510 . S
C224 C220 1.401 . S
C224 C223 1.396 . S
C225 C220 1.499 . S
C225 H226 0.959 . S
C225 H227 0.960 . S
C225 H228 0.961 . S
H226 C225 0.959 . S
H227 C225 0.960 . S
H228 C225 0.961 . S
O229 Co204 1.967 . S
O229 C237 1.258 . S
O230 Co205 1.941 . S
O230 C237 1.266 . S
H231 C233 0.959 . S
H232 C233 0.961 . S
C233 C223 1.510 . S
C233 H231 0.959 . S
C233 H232 0.961 . S
C233 H234 0.960 . S
H234 C233 0.960 . S
H235 N215 0.862 . S
O236 Co204 1.920 . S
O236 C209 1.289 . S
C237 O229 1.258 . S
C237 O230 1.266 . S
Co238 O241 1.970 . S
Co238 N255 1.989 . S
Co238 O263 1.967 . S
Co238 O270 1.920 . S
Co239 O242 1.966 . S
Co239 N248 2.022 . S
Co239 N256 1.993 . S
Co239 O264 1.941 . S
C240 O241 1.258 . S
C240 O242 1.263 . S
O241 Co238 1.970 . S
O241 C240 1.258 . S
O242 Co239 1.966 . S
O242 C240 1.263 . S
C243 O244 1.235 . S
C243 O270 1.289 . S
O244 C243 1.235 . S
C245 C247 1.400 . S
C245 N248 1.351 . S
C245 C250 1.501 . S
C246 C247 1.387 . S
C246 N249 1.341 . S
C247 C245 1.400 . S
C247 C246 1.387 . S
N248 Co239 2.022 . S
N248 C245 1.351 . S
N248 N249 1.365 . S
N249 C246 1.341 . S
N249 N248 1.365 . S
N249 H269 0.862 . S
C250 C245 1.501 . S
C250 H251 0.961 . S
C250 H252 0.961 . S
C250 H253 0.960 . S
H251 C250 0.961 . S
H252 C250 0.961 . S
H253 C250 0.960 . S
C254 N255 1.342 . S
C254 C258 1.401 . S
C254 C259 1.499 . S
N255 Co238 1.989 . S
N255 C254 1.342 . S
N255 N256 1.388 . S
N256 Co239 1.993 . S
N256 N255 1.388 . S
N256 C257 1.346 . S
C257 N256 1.346 . S
C257 C258 1.396 . S
C257 C267 1.510 . S
C258 C254 1.401 . S
C258 C257 1.396 . S
C259 C254 1.499 . S
C259 H260 0.959 . S
C259 H261 0.960 . S
C259 H262 0.961 . S
H260 C259 0.959 . S
H261 C259 0.960 . S
H262 C259 0.961 . S
O263 Co238 1.967 . S
O263 C271 1.258 . S
O264 Co239 1.941 . S
O264 C271 1.266 . S
H265 C267 0.959 . S
H266 C267 0.961 . S
C267 C257 1.510 . S
C267 H265 0.959 . S
C267 H266 0.961 . S
C267 H268 0.960 . S
H268 C267 0.960 . S
H269 N249 0.862 . S
O270 Co238 1.920 . S
O270 C243 1.289 . S
C271 O263 1.258 . S
C271 O264 1.266 . S
Co272 O275 1.970 . S
Co272 N289 1.989 . S
Co272 O297 1.967 . S
Co272 O304 1.920 . S
Co273 O276 1.966 . S
Co273 N282 2.022 . S
Co273 N290 1.993 . S
Co273 O298 1.941 . S
C274 O275 1.258 . S
C274 O276 1.263 . S
O275 Co272 1.970 . S
O275 C274 1.258 . S
O276 Co273 1.966 . S
O276 C274 1.263 . S
C277 O278 1.235 . S
C277 O304 1.289 . S
O278 C277 1.235 . S
C279 C281 1.400 . S
C279 N282 1.351 . S
C279 C284 1.501 . S
C280 C281 1.387 . S
C280 N283 1.341 . S
C281 C279 1.400 . S
C281 C280 1.387 . S
N282 Co273 2.022 . S
N282 C279 1.351 . S
N282 N283 1.365 . S
N283 C280 1.341 . S
N283 N282 1.365 . S
N283 H303 0.862 . S
C284 C279 1.501 . S
C284 H285 0.961 . S
C284 H286 0.961 . S
C284 H287 0.960 . S
H285 C284 0.961 . S
H286 C284 0.961 . S
H287 C284 0.960 . S
C288 N289 1.342 . S
C288 C292 1.401 . S
C288 C293 1.499 . S
N289 Co272 1.989 . S
N289 C288 1.342 . S
N289 N290 1.388 . S
N290 Co273 1.993 . S
N290 N289 1.388 . S
N290 C291 1.346 . S
C291 N290 1.346 . S
C291 C292 1.396 . S
C291 C301 1.510 . S
C292 C288 1.401 . S
C292 C291 1.396 . S
C293 C288 1.499 . S
C293 H294 0.959 . S
C293 H295 0.960 . S
C293 H296 0.961 . S
H294 C293 0.959 . S
H295 C293 0.960 . S
H296 C293 0.961 . S
O297 Co272 1.967 . S
O297 C305 1.258 . S
O298 Co273 1.941 . S
O298 C305 1.266 . S
H299 C301 0.959 . S
H300 C301 0.961 . S
C301 C291 1.510 . S
C301 H299 0.959 . S
C301 H300 0.961 . S
C301 H302 0.960 . S
H302 C301 0.960 . S
H303 N283 0.862 . S
O304 Co272 1.920 . S
O304 C277 1.289 . S
C305 O297 1.258 . S
C305 O298 1.266 . S
Co306 O309 1.970 . S
Co306 N323 1.989 . S
Co306 O331 1.967 . S
Co306 O338 1.920 . S
Co307 O310 1.966 . S
Co307 N316 2.022 . S
Co307 N324 1.993 . S
Co307 O332 1.941 . S
C308 O309 1.258 . S
C308 O310 1.263 . S
O309 Co306 1.970 . S
O309 C308 1.258 . S
O310 Co307 1.966 . S
O310 C308 1.263 . S
C311 O312 1.235 . S
C311 O338 1.289 . S
O312 C311 1.235 . S
C313 C315 1.400 . S
C313 N316 1.351 . S
C313 C318 1.501 . S
C314 C315 1.387 . S
C314 N317 1.341 . S
C315 C313 1.400 . S
C315 C314 1.387 . S
N316 Co307 2.022 . S
N316 C313 1.351 . S
N316 N317 1.365 . S
N317 C314 1.341 . S
N317 N316 1.365 . S
N317 H337 0.862 . S
C318 C313 1.501 . S
C318 H319 0.961 . S
C318 H320 0.961 . S
C318 H321 0.960 . S
H319 C318 0.961 . S
H320 C318 0.961 . S
H321 C318 0.960 . S
C322 N323 1.342 . S
C322 C326 1.401 . S
C322 C327 1.499 . S
N323 Co306 1.989 . S
N323 C322 1.342 . S
N323 N324 1.388 . S
N324 Co307 1.993 . S
N324 N323 1.388 . S
N324 C325 1.346 . S
C325 N324 1.346 . S
C325 C326 1.396 . S
C325 C335 1.510 . S
C326 C322 1.401 . S
C326 C325 1.396 . S
C327 C322 1.499 . S
C327 H328 0.959 . S
C327 H329 0.960 . S
C327 H330 0.961 . S
H328 C327 0.959 . S
H329 C327 0.960 . S
H330 C327 0.961 . S
O331 Co306 1.967 . S
O331 C339 1.258 . S
O332 Co307 1.941 . S
O332 C339 1.266 . S
H333 C335 0.959 . S
H334 C335 0.961 . S
C335 C325 1.510 . S
C335 H333 0.959 . S
C335 H334 0.961 . S
C335 H336 0.960 . S
H336 C335 0.960 . S
H337 N317 0.862 . S
O338 Co306 1.920 . S
O338 C311 1.289 . S
C339 O331 1.258 . S
C339 O332 1.266 . S
Co340 O343 1.970 . S
Co340 N357 1.989 . S
Co340 O365 1.967 . S
Co340 O372 1.920 . S
Co341 O344 1.966 . S
Co341 N350 2.022 . S
Co341 N358 1.993 . S
Co341 O366 1.941 . S
C342 O343 1.258 . S
C342 O344 1.263 . S
O343 Co340 1.970 . S
O343 C342 1.258 . S
O344 Co341 1.966 . S
O344 C342 1.263 . S
C345 O346 1.235 . S
C345 O372 1.289 . S
O346 C345 1.235 . S
C347 C349 1.400 . S
C347 N350 1.351 . S
C347 C352 1.501 . S
C348 C349 1.387 . S
C348 N351 1.341 . S
C349 C347 1.400 . S
C349 C348 1.387 . S
N350 Co341 2.022 . S
N350 C347 1.351 . S
N350 N351 1.365 . S
N351 C348 1.341 . S
N351 N350 1.365 . S
N351 H371 0.862 . S
C352 C347 1.501 . S
C352 H353 0.961 . S
C352 H354 0.961 . S
C352 H355 0.960 . S
H353 C352 0.961 . S
H354 C352 0.961 . S
H355 C352 0.960 . S
C356 N357 1.342 . S
C356 C360 1.401 . S
C356 C361 1.499 . S
N357 Co340 1.989 . S
N357 C356 1.342 . S
N357 N358 1.388 . S
N358 Co341 1.993 . S
N358 N357 1.388 . S
N358 C359 1.346 . S
C359 N358 1.346 . S
C359 C360 1.396 . S
C359 C369 1.510 . S
C360 C356 1.401 . S
C360 C359 1.396 . S
C361 C356 1.499 . S
C361 H362 0.959 . S
C361 H363 0.960 . S
C361 H364 0.961 . S
H362 C361 0.959 . S
H363 C361 0.960 . S
H364 C361 0.961 . S
O365 Co340 1.967 . S
O365 C373 1.258 . S
O366 Co341 1.941 . S
O366 C373 1.266 . S
H367 C369 0.959 . S
H368 C369 0.961 . S
C369 C359 1.510 . S
C369 H367 0.959 . S
C369 H368 0.961 . S
C369 H370 0.960 . S
H370 C369 0.960 . S
H371 N351 0.862 . S
O372 Co340 1.920 . S
O372 C345 1.289 . S
C373 O365 1.258 . S
C373 O366 1.266 . S
Co374 O377 1.970 . S
Co374 N391 1.989 . S
Co374 O399 1.967 . S
Co374 O406 1.920 . S
Co375 O378 1.966 . S
Co375 N384 2.022 . S
Co375 N392 1.993 . S
Co375 O400 1.941 . S
C376 O377 1.258 . S
C376 O378 1.263 . S
O377 Co374 1.970 . S
O377 C376 1.258 . S
O378 Co375 1.966 . S
O378 C376 1.263 . S
C379 O380 1.235 . S
C379 O406 1.289 . S
O380 C379 1.235 . S
C381 C383 1.400 . S
C381 N384 1.351 . S
C381 C386 1.501 . S
C382 C383 1.387 . S
C382 N385 1.341 . S
C383 C381 1.400 . S
C383 C382 1.387 . S
N384 Co375 2.022 . S
N384 C381 1.351 . S
N384 N385 1.365 . S
N385 C382 1.341 . S
N385 N384 1.365 . S
N385 H405 0.862 . S
C386 C381 1.501 . S
C386 H387 0.961 . S
C386 H388 0.961 . S
C386 H389 0.960 . S
H387 C386 0.961 . S
H388 C386 0.961 . S
H389 C386 0.960 . S
C390 N391 1.342 . S
C390 C394 1.401 . S
C390 C395 1.499 . S
N391 Co374 1.989 . S
N391 C390 1.342 . S
N391 N392 1.388 . S
N392 Co375 1.993 . S
N392 N391 1.388 . S
N392 C393 1.346 . S
C393 N392 1.346 . S
C393 C394 1.396 . S
C393 C403 1.510 . S
C394 C390 1.401 . S
C394 C393 1.396 . S
C395 C390 1.499 . S
C395 H396 0.959 . S
C395 H397 0.960 . S
C395 H398 0.961 . S
H396 C395 0.959 . S
H397 C395 0.960 . S
H398 C395 0.961 . S
O399 Co374 1.967 . S
O399 C407 1.258 . S
O400 Co375 1.941 . S
O400 C407 1.266 . S
H401 C403 0.959 . S
H402 C403 0.961 . S
C403 C393 1.510 . S
C403 H401 0.959 . S
C403 H402 0.961 . S
C403 H404 0.960 . S
H404 C403 0.960 . S
H405 N385 0.862 . S
O406 Co374 1.920 . S
O406 C379 1.289 . S
C407 O399 1.258 . S
C407 O400 1.266 . S
Co408 O411 1.970 . S
Co408 N425 1.989 . S
Co408 O433 1.967 . S
Co408 O440 1.920 . S
Co409 O412 1.966 . S
Co409 N418 2.022 . S
Co409 N426 1.993 . S
Co409 O434 1.941 . S
C410 O411 1.258 . S
C410 O412 1.263 . S
O411 Co408 1.970 . S
O411 C410 1.258 . S
O412 Co409 1.966 . S
O412 C410 1.263 . S
C413 O414 1.235 . S
C413 O440 1.289 . S
O414 C413 1.235 . S
C415 C417 1.400 . S
C415 N418 1.351 . S
C415 C420 1.501 . S
C416 C417 1.387 . S
C416 N419 1.341 . S
C417 C415 1.400 . S
C417 C416 1.387 . S
N418 Co409 2.022 . S
N418 C415 1.351 . S
N418 N419 1.365 . S
N419 C416 1.341 . S
N419 N418 1.365 . S
N419 H439 0.862 . S
C420 C415 1.501 . S
C420 H421 0.961 . S
C420 H422 0.961 . S
C420 H423 0.960 . S
H421 C420 0.961 . S
H422 C420 0.961 . S
H423 C420 0.960 . S
C424 N425 1.342 . S
C424 C428 1.401 . S
C424 C429 1.499 . S
N425 Co408 1.989 . S
N425 C424 1.342 . S
N425 N426 1.388 . S
N426 Co409 1.993 . S
N426 N425 1.388 . S
N426 C427 1.346 . S
C427 N426 1.346 . S
C427 C428 1.396 . S
C427 C437 1.510 . S
C428 C424 1.401 . S
C428 C427 1.396 . S
C429 C424 1.499 . S
C429 H430 0.959 . S
C429 H431 0.960 . S
C429 H432 0.961 . S
H430 C429 0.959 . S
H431 C429 0.960 . S
H432 C429 0.961 . S
O433 Co408 1.967 . S
O433 C441 1.258 . S
O434 Co409 1.941 . S
O434 C441 1.266 . S
H435 C437 0.959 . S
H436 C437 0.961 . S
C437 C427 1.510 . S
C437 H435 0.959 . S
C437 H436 0.961 . S
C437 H438 0.960 . S
H438 C437 0.960 . S
H439 N419 0.862 . S
O440 Co408 1.920 . S
O440 C413 1.289 . S
C441 O433 1.258 . S
C441 O434 1.266 . S
Co442 O445 1.970 . S
Co442 N459 1.989 . S
Co442 O467 1.967 . S
Co442 O474 1.920 . S
Co443 O446 1.966 . S
Co443 N452 2.022 . S
Co443 N460 1.993 . S
Co443 O468 1.941 . S
C444 O445 1.258 . S
C444 O446 1.263 . S
O445 Co442 1.970 . S
O445 C444 1.258 . S
O446 Co443 1.966 . S
O446 C444 1.263 . S
C447 O448 1.235 . S
C447 O474 1.289 . S
O448 C447 1.235 . S
C449 C451 1.400 . S
C449 N452 1.351 . S
C449 C454 1.501 . S
C450 C451 1.387 . S
C450 N453 1.341 . S
C451 C449 1.400 . S
C451 C450 1.387 . S
N452 Co443 2.022 . S
N452 C449 1.351 . S
N452 N453 1.365 . S
N453 C450 1.341 . S
N453 N452 1.365 . S
N453 H473 0.862 . S
C454 C449 1.501 . S
C454 H455 0.961 . S
C454 H456 0.961 . S
C454 H457 0.960 . S
H455 C454 0.961 . S
H456 C454 0.961 . S
H457 C454 0.960 . S
C458 N459 1.342 . S
C458 C462 1.401 . S
C458 C463 1.499 . S
N459 Co442 1.989 . S
N459 C458 1.342 . S
N459 N460 1.388 . S
N460 Co443 1.993 . S
N460 N459 1.388 . S
N460 C461 1.346 . S
C461 N460 1.346 . S
C461 C462 1.396 . S
C461 C471 1.510 . S
C462 C458 1.401 . S
C462 C461 1.396 . S
C463 C458 1.499 . S
C463 H464 0.959 . S
C463 H465 0.960 . S
C463 H466 0.961 . S
H464 C463 0.959 . S
H465 C463 0.960 . S
H466 C463 0.961 . S
O467 Co442 1.967 . S
O467 C475 1.258 . S
O468 Co443 1.941 . S
O468 C475 1.266 . S
H469 C471 0.959 . S
H470 C471 0.961 . S
C471 C461 1.510 . S
C471 H469 0.959 . S
C471 H470 0.961 . S
C471 H472 0.960 . S
H472 C471 0.960 . S
H473 N453 0.862 . S
O474 Co442 1.920 . S
O474 C447 1.289 . S
C475 O467 1.258 . S
C475 O468 1.266 . S
Co476 O479 1.970 . S
Co476 N493 1.989 . S
Co476 O501 1.967 . S
Co476 O508 1.920 . S
Co477 O480 1.966 . S
Co477 N486 2.022 . S
Co477 N494 1.993 . S
Co477 O502 1.941 . S
C478 O479 1.258 . S
C478 O480 1.263 . S
O479 Co476 1.970 . S
O479 C478 1.258 . S
O480 Co477 1.966 . S
O480 C478 1.263 . S
C481 O482 1.235 . S
C481 O508 1.289 . S
O482 C481 1.235 . S
C483 C485 1.400 . S
C483 N486 1.351 . S
C483 C488 1.501 . S
C484 C485 1.387 . S
C484 N487 1.341 . S
C485 C483 1.400 . S
C485 C484 1.387 . S
N486 Co477 2.022 . S
N486 C483 1.351 . S
N486 N487 1.365 . S
N487 C484 1.341 . S
N487 N486 1.365 . S
N487 H507 0.862 . S
C488 C483 1.501 . S
C488 H489 0.961 . S
C488 H490 0.961 . S
C488 H491 0.960 . S
H489 C488 0.961 . S
H490 C488 0.961 . S
H491 C488 0.960 . S
C492 N493 1.342 . S
C492 C496 1.401 . S
C492 C497 1.499 . S
N493 Co476 1.989 . S
N493 C492 1.342 . S
N493 N494 1.388 . S
N494 Co477 1.993 . S
N494 N493 1.388 . S
N494 C495 1.346 . S
C495 N494 1.346 . S
C495 C496 1.396 . S
C495 C505 1.510 . S
C496 C492 1.401 . S
C496 C495 1.396 . S
C497 C492 1.499 . S
C497 H498 0.959 . S
C497 H499 0.960 . S
C497 H500 0.961 . S
H498 C497 0.959 . S
H499 C497 0.960 . S
H500 C497 0.961 . S
O501 Co476 1.967 . S
O501 C509 1.258 . S
O502 Co477 1.941 . S
O502 C509 1.266 . S
H503 C505 0.959 . S
H504 C505 0.961 . S
C505 C495 1.510 . S
C505 H503 0.959 . S
C505 H504 0.961 . S
C505 H506 0.960 . S
H506 C505 0.960 . S
H507 N487 0.862 . S
O508 Co476 1.920 . S
O508 C481 1.289 . S
C509 O501 1.258 . S
C509 O502 1.266 . S
Co510 O513 1.970 . S
Co510 N527 1.989 . S
Co510 O535 1.967 . S
Co510 O542 1.920 . S
Co511 O514 1.966 . S
Co511 N520 2.022 . S
Co511 N528 1.993 . S
Co511 O536 1.941 . S
C512 O513 1.258 . S
C512 O514 1.263 . S
O513 Co510 1.970 . S
O513 C512 1.258 . S
O514 Co511 1.966 . S
O514 C512 1.263 . S
C515 O516 1.235 . S
C515 O542 1.289 . S
O516 C515 1.235 . S
C517 C519 1.400 . S
C517 N520 1.351 . S
C517 C522 1.501 . S
C518 C519 1.387 . S
C518 N521 1.341 . S
C519 C517 1.400 . S
C519 C518 1.387 . S
N520 Co511 2.022 . S
N520 C517 1.351 . S
N520 N521 1.365 . S
N521 C518 1.341 . S
N521 N520 1.365 . S
N521 H541 0.862 . S
C522 C517 1.501 . S
C522 H523 0.961 . S
C522 H524 0.961 . S
C522 H525 0.960 . S
H523 C522 0.961 . S
H524 C522 0.961 . S
H525 C522 0.960 . S
C526 N527 1.342 . S
C526 C530 1.401 . S
C526 C531 1.499 . S
N527 Co510 1.989 . S
N527 C526 1.342 . S
N527 N528 1.388 . S
N528 Co511 1.993 . S
N528 N527 1.388 . S
N528 C529 1.346 . S
C529 N528 1.346 . S
C529 C530 1.396 . S
C529 C539 1.510 . S
C530 C526 1.401 . S
C530 C529 1.396 . S
C531 C526 1.499 . S
C531 H532 0.959 . S
C531 H533 0.960 . S
C531 H534 0.961 . S
H532 C531 0.959 . S
H533 C531 0.960 . S
H534 C531 0.961 . S
O535 Co510 1.967 . S
O535 C543 1.258 . S
O536 Co511 1.941 . S
O536 C543 1.266 . S
H537 C539 0.959 . S
H538 C539 0.961 . S
C539 C529 1.510 . S
C539 H537 0.959 . S
C539 H538 0.961 . S
C539 H540 0.960 . S
H540 C539 0.960 . S
H541 N521 0.862 . S
O542 Co510 1.920 . S
O542 C515 1.289 . S
C543 O535 1.258 . S
C543 O536 1.266 . S
C544 C545 1.363 . S
C544 C550 1.379 . S
C544 N552 1.356 . S
C545 C544 1.363 . S
C545 C551 1.363 . S
C546 C547 1.363 . S
C546 C551 1.379 . S
C546 N553 1.356 . S
C547 C546 1.363 . S
C547 C550 1.363 . S
N548 C550 1.356 . S
N548 H560 0.984 . S
N548 H561 0.985 . S
N549 C551 1.356 . S
N549 H554 0.984 . S
N549 H555 0.985 . S
C550 C544 1.379 . S
C550 C547 1.363 . S
C550 N548 1.356 . S
C551 C545 1.363 . S
C551 C546 1.379 . S
C551 N549 1.356 . S
N552 C544 1.356 . S
N552 H558 0.984 . S
N552 H559 0.984 . S
N553 C546 1.356 . S
N553 H556 0.984 . S
N553 H557 0.985 . S
H554 N549 0.984 . S
H555 N549 0.985 . S
H556 N553 0.984 . S
H557 N553 0.985 . S
H558 N552 0.984 . S
H559 N552 0.984 . S
H560 N548 0.984 . S
H561 N548 0.985 . S
C562 C563 1.363 . S
C562 C568 1.379 . S
C562 N570 1.356 . S
C563 C562 1.363 . S
C563 C569 1.363 . S
C564 C565 1.363 . S
C564 C569 1.379 . S
C564 N571 1.356 . S
C565 C564 1.363 . S
C565 C568 1.363 . S
N566 C568 1.356 . S
N566 H578 0.984 . S
N566 H579 0.985 . S
N567 C569 1.356 . S
N567 H572 0.984 . S
N567 H573 0.985 . S
C568 C562 1.379 . S
C568 C565 1.363 . S
C568 N566 1.356 . S
C569 C563 1.363 . S
C569 C564 1.379 . S
C569 N567 1.356 . S
N570 C562 1.356 . S
N570 H576 0.984 . S
N570 H577 0.984 . S
N571 C564 1.356 . S
N571 H574 0.984 . S
N571 H575 0.985 . S
H572 N567 0.984 . S
H573 N567 0.985 . S
H574 N571 0.984 . S
H575 N571 0.985 . S
H576 N570 0.984 . S
H577 N570 0.984 . S
H578 N566 0.984 . S
H579 N566 0.985 . S
C580 C581 1.363 . S
C580 C586 1.379 . S
C580 N588 1.356 . S
C581 C580 1.363 . S
C581 C587 1.363 . S
C582 C583 1.363 . S
C582 C587 1.379 . S
C582 N589 1.356 . S
C583 C582 1.363 . S
C583 C586 1.363 . S
N584 C586 1.356 . S
N584 H596 0.984 . S
N584 H597 0.985 . S
N585 C587 1.356 . S
N585 H590 0.984 . S
N585 H591 0.985 . S
C586 C580 1.379 . S
C586 C583 1.363 . S
C586 N584 1.356 . S
C587 C581 1.363 . S
C587 C582 1.379 . S
C587 N585 1.356 . S
N588 C580 1.356 . S
N588 H594 0.984 . S
N588 H595 0.984 . S
N589 C582 1.356 . S
N589 H592 0.984 . S
N589 H593 0.985 . S
H590 N585 0.984 . S
H591 N585 0.985 . S
H592 N589 0.984 . S
H593 N589 0.985 . S
H594 N588 0.984 . S
H595 N588 0.984 . S
H596 N584 0.984 . S
H597 N584 0.985 . S
C598 C599 1.363 . S
C598 C604 1.379 . S
C598 N606 1.356 . S
C599 C598 1.363 . S
C599 C605 1.363 . S
C600 C601 1.363 . S
C600 C605 1.379 . S
C600 N607 1.356 . S
C601 C600 1.363 . S
C601 C604 1.363 . S
N602 C604 1.356 . S
N602 H614 0.984 . S
N602 H615 0.985 . S
N603 C605 1.356 . S
N603 H608 0.984 . S
N603 H609 0.985 . S
C604 C598 1.379 . S
C604 C601 1.363 . S
C604 N602 1.356 . S
C605 C599 1.363 . S
C605 C600 1.379 . S
C605 N603 1.356 . S
N606 C598 1.356 . S
N606 H612 0.984 . S
N606 H613 0.984 . S
N607 C600 1.356 . S
N607 H610 0.984 . S
N607 H611 0.985 . S
H608 N603 0.984 . S
H609 N603 0.985 . S
H610 N607 0.984 . S
H611 N607 0.985 . S
H612 N606 0.984 . S
H613 N606 0.984 . S
H614 N602 0.984 . S
H615 N602 0.985 . S
C616 C617 1.363 . S
C616 C622 1.379 . S
C616 N624 1.356 . S
C617 C616 1.363 . S
C617 C623 1.363 . S
C618 C619 1.363 . S
C618 C623 1.379 . S
C618 N625 1.356 . S
C619 C618 1.363 . S
C619 C622 1.363 . S
N620 C622 1.356 . S
N620 H632 0.984 . S
N620 H633 0.985 . S
N621 C623 1.356 . S
N621 H626 0.984 . S
N621 H627 0.985 . S
C622 C616 1.379 . S
C622 C619 1.363 . S
C622 N620 1.356 . S
C623 C617 1.363 . S
C623 C618 1.379 . S
C623 N621 1.356 . S
N624 C616 1.356 . S
N624 H630 0.984 . S
N624 H631 0.984 . S
N625 C618 1.356 . S
N625 H628 0.984 . S
N625 H629 0.985 . S
H626 N621 0.984 . S
H627 N621 0.985 . S
H628 N625 0.984 . S
H629 N625 0.985 . S
H630 N624 0.984 . S
H631 N624 0.984 . S
H632 N620 0.984 . S
H633 N620 0.985 . S
C634 C635 1.363 . S
C634 C640 1.379 . S
C634 N642 1.356 . S
C635 C634 1.363 . S
C635 C641 1.363 . S
C636 C637 1.363 . S
C636 C641 1.379 . S
C636 N643 1.356 . S
C637 C636 1.363 . S
C637 C640 1.363 . S
N638 C640 1.356 . S
N638 H650 0.984 . S
N638 H651 0.985 . S
N639 C641 1.356 . S
N639 H644 0.984 . S
N639 H645 0.985 . S
C640 C634 1.379 . S
C640 C637 1.363 . S
C640 N638 1.356 . S
C641 C635 1.363 . S
C641 C636 1.379 . S
C641 N639 1.356 . S
N642 C634 1.356 . S
N642 H648 0.984 . S
N642 H649 0.984 . S
N643 C636 1.356 . S
N643 H646 0.984 . S
N643 H647 0.985 . S
H644 N639 0.984 . S
H645 N639 0.985 . S
H646 N643 0.984 . S
H647 N643 0.985 . S
H648 N642 0.984 . S
H649 N642 0.984 . S
H650 N638 0.984 . S
H651 N638 0.985 . S
C652 C653 1.363 . S
C652 C658 1.379 . S
C652 N660 1.356 . S
C653 C652 1.363 . S
C653 C659 1.363 . S
C654 C655 1.363 . S
C654 C659 1.379 . S
C654 N661 1.356 . S
C655 C654 1.363 . S
C655 C658 1.363 . S
N656 C658 1.356 . S
N656 H668 0.984 . S
N656 H669 0.985 . S
N657 C659 1.356 . S
N657 H662 0.984 . S
N657 H663 0.985 . S
C658 C652 1.379 . S
C658 C655 1.363 . S
C658 N656 1.356 . S
C659 C653 1.363 . S
C659 C654 1.379 . S
C659 N657 1.356 . S
N660 C652 1.356 . S
N660 H666 0.984 . S
N660 H667 0.984 . S
N661 C654 1.356 . S
N661 H664 0.984 . S
N661 H665 0.985 . S
H662 N657 0.984 . S
H663 N657 0.985 . S
H664 N661 0.984 . S
H665 N661 0.985 . S
H666 N660 0.984 . S
H667 N660 0.984 . S
H668 N656 0.984 . S
H669 N656 0.985 . S
C670 C671 1.363 . S
C670 C676 1.379 . S
C670 N678 1.356 . S
C671 C670 1.363 . S
C671 C677 1.363 . S
C672 C673 1.363 . S
C672 C677 1.379 . S
C672 N679 1.356 . S
C673 C672 1.363 . S
C673 C676 1.363 . S
N674 C676 1.356 . S
N674 H686 0.984 . S
N674 H687 0.985 . S
N675 C677 1.356 . S
N675 H680 0.984 . S
N675 H681 0.985 . S
C676 C670 1.379 . S
C676 C673 1.363 . S
C676 N674 1.356 . S
C677 C671 1.363 . S
C677 C672 1.379 . S
C677 N675 1.356 . S
N678 C670 1.356 . S
N678 H684 0.984 . S
N678 H685 0.984 . S
N679 C672 1.356 . S
N679 H682 0.984 . S
N679 H683 0.985 . S
H680 N675 0.984 . S
H681 N675 0.985 . S
H682 N679 0.984 . S
H683 N679 0.985 . S
H684 N678 0.984 . S
H685 N678 0.984 . S
H686 N674 0.984 . S
H687 N674 0.985 . S
C688 C689 1.363 1_565 S
C688 C694 1.379 1_455 S
C688 N696 1.356 . S
C689 C688 1.363 1_545 S
C689 C695 1.363 . S
C690 C691 1.363 1_545 S
C690 C695 1.379 1_655 S
C690 N697 1.356 . S
C691 C690 1.363 1_565 S
C691 C694 1.363 . S
N692 C694 1.356 . S
N692 H704 0.984 . S
N692 H705 0.985 . S
N693 C695 1.356 . S
N693 H698 0.984 . S
N693 H699 0.985 . S
C694 C688 1.379 1_655 S
C694 C691 1.363 . S
C694 N692 1.356 . S
C695 C689 1.363 . S
C695 C690 1.379 1_455 S
C695 N693 1.356 . S
N696 C688 1.356 . S
N696 H702 0.984 . S
N696 H703 0.984 1_565 S
N697 C690 1.356 . S
N697 H700 0.984 1_545 S
N697 H701 0.985 . S
H698 N693 0.984 . S
H699 N693 0.985 . S
H700 N697 0.984 1_565 S
H701 N697 0.985 . S
H702 N696 0.984 . S
H703 N696 0.984 1_545 S
H704 N692 0.984 . S
H705 N692 0.985 . S
C706 C707 1.363 . S
C706 C712 1.379 1_545 S
C706 N714 1.356 . S
C707 C706 1.363 . S
C707 C713 1.363 1_655 S
C708 C709 1.363 . S
C708 C713 1.379 1_565 S
C708 N715 1.356 . S
C709 C708 1.363 . S
C709 C712 1.363 1_455 S
N710 C712 1.356 . S
N710 H722 0.984 . S
N710 H723 0.985 1_655 S
N711 C713 1.356 . S
N711 H716 0.984 1_455 S
N711 H717 0.985 . S
C712 C706 1.379 1_565 S
C712 C709 1.363 1_655 S
C712 N710 1.356 . S
C713 C707 1.363 1_455 S
C713 C708 1.379 1_545 S
C713 N711 1.356 . S
N714 C706 1.356 . S
N714 H720 0.984 . S
N714 H721 0.984 . S
N715 C708 1.356 . S
N715 H718 0.984 . S
N715 H719 0.985 . S
H716 N711 0.984 1_655 S
H717 N711 0.985 . S
H718 N715 0.984 . S
H719 N715 0.985 . S
H720 N714 0.984 . S
H721 N714 0.984 . S
H722 N710 0.984 . S
H723 N710 0.985 1_455 S
C724 C725 1.363 1_565 S
C724 C730 1.379 1_655 S
C724 N732 1.356 . S
C725 C724 1.363 1_545 S
C725 C731 1.363 . S
C726 C727 1.363 1_545 S
C726 C731 1.379 1_455 S
C726 N733 1.356 . S
C727 C726 1.363 1_565 S
C727 C730 1.363 . S
N728 C730 1.356 . S
N728 H740 0.984 . S
N728 H741 0.985 . S
N729 C731 1.356 . S
N729 H734 0.984 . S
N729 H735 0.985 . S
C730 C724 1.379 1_455 S
C730 C727 1.363 . S
C730 N728 1.356 . S
C731 C725 1.363 . S
C731 C726 1.379 1_655 S
C731 N729 1.356 . S
N732 C724 1.356 . S
N732 H738 0.984 . S
N732 H739 0.984 1_565 S
N733 C726 1.356 . S
N733 H736 0.984 1_545 S
N733 H737 0.985 . S
H734 N729 0.984 . S
H735 N729 0.985 . S
H736 N733 0.984 1_565 S
H737 N733 0.985 . S
H738 N732 0.984 . S
H739 N732 0.984 1_545 S
H740 N728 0.984 . S
H741 N728 0.985 . S
C742 C743 1.363 . S
C742 C748 1.379 1_545 S
C742 N750 1.356 . S
C743 C742 1.363 . S
C743 C749 1.363 1_455 S
C744 C745 1.363 . S
C744 C749 1.379 1_565 S
C744 N751 1.356 . S
C745 C744 1.363 . S
C745 C748 1.363 1_655 S
N746 C748 1.356 . S
N746 H758 0.984 . S
N746 H759 0.985 1_455 S
N747 C749 1.356 . S
N747 H752 0.984 1_655 S
N747 H753 0.985 . S
C748 C742 1.379 1_565 S
C748 C745 1.363 1_455 S
C748 N746 1.356 . S
C749 C743 1.363 1_655 S
C749 C744 1.379 1_545 S
C749 N747 1.356 . S
N750 C742 1.356 . S
N750 H756 0.984 . S
N750 H757 0.984 . S
N751 C744 1.356 . S
N751 H754 0.984 . S
N751 H755 0.985 . S
H752 N747 0.984 1_455 S
H753 N747 0.985 . S
H754 N751 0.984 . S
H755 N751 0.985 . S
H756 N750 0.984 . S
H757 N750 0.984 . S
H758 N746 0.984 . S
H759 N746 0.985 1_655 S
C760 C761 1.363 . S
C760 C766 1.379 . S
C760 N768 1.356 . S
C761 C760 1.363 . S
C761 C767 1.363 . S
C762 C763 1.363 . S
C762 C767 1.379 . S
C762 N769 1.356 . S
C763 C762 1.363 . S
C763 C766 1.363 . S
N764 C766 1.356 . S
N764 H776 0.984 . S
N764 H777 0.985 . S
N765 C767 1.356 . S
N765 H770 0.984 . S
N765 H771 0.985 . S
C766 C760 1.379 . S
C766 C763 1.363 . S
C766 N764 1.356 . S
C767 C761 1.363 . S
C767 C762 1.379 . S
C767 N765 1.356 . S
N768 C760 1.356 . S
N768 H774 0.984 . S
N768 H775 0.984 . S
N769 C762 1.356 . S
N769 H772 0.984 . S
N769 H773 0.985 . S
H770 N765 0.984 . S
H771 N765 0.985 . S
H772 N769 0.984 . S
H773 N769 0.985 . S
H774 N768 0.984 . S
H775 N768 0.984 . S
H776 N764 0.984 . S
H777 N764 0.985 . S
C778 C779 1.363 . S
C778 C784 1.379 . S
C778 N786 1.356 . S
C779 C778 1.363 . S
C779 C785 1.363 . S
C780 C781 1.363 . S
C780 C785 1.379 . S
C780 N787 1.356 . S
C781 C780 1.363 . S
C781 C784 1.363 . S
N782 C784 1.356 . S
N782 H794 0.984 . S
N782 H795 0.985 . S
N783 C785 1.356 . S
N783 H788 0.984 . S
N783 H789 0.985 . S
C784 C778 1.379 . S
C784 C781 1.363 . S
C784 N782 1.356 . S
C785 C779 1.363 . S
C785 C780 1.379 . S
C785 N783 1.356 . S
N786 C778 1.356 . S
N786 H792 0.984 . S
N786 H793 0.984 . S
N787 C780 1.356 . S
N787 H790 0.984 . S
N787 H791 0.985 . S
H788 N783 0.984 . S
H789 N783 0.985 . S
H790 N787 0.984 . S
H791 N787 0.985 . S
H792 N786 0.984 . S
H793 N786 0.984 . S
H794 N782 0.984 . S
H795 N782 0.985 . S
C796 C797 1.363 . S
C796 C802 1.379 . S
C796 N804 1.356 . S
C797 C796 1.363 . S
C797 C803 1.363 . S
C798 C799 1.363 . S
C798 C803 1.379 . S
C798 N805 1.356 . S
C799 C798 1.363 . S
C799 C802 1.363 . S
N800 C802 1.356 . S
N800 H812 0.984 . S
N800 H813 0.985 . S
N801 C803 1.356 . S
N801 H806 0.984 . S
N801 H807 0.985 . S
C802 C796 1.379 . S
C802 C799 1.363 . S
C802 N800 1.356 . S
C803 C797 1.363 . S
C803 C798 1.379 . S
C803 N801 1.356 . S
N804 C796 1.356 . S
N804 H810 0.984 . S
N804 H811 0.984 . S
N805 C798 1.356 . S
N805 H808 0.984 . S
N805 H809 0.985 . S
H806 N801 0.984 . S
H807 N801 0.985 . S
H808 N805 0.984 . S
H809 N805 0.985 . S
H810 N804 0.984 . S
H811 N804 0.984 . S
H812 N800 0.984 . S
H813 N800 0.985 . S
C814 C815 1.363 . S
C814 C820 1.379 . S
C814 N822 1.356 . S
C815 C814 1.363 . S
C815 C821 1.363 . S
C816 C817 1.363 . S
C816 C821 1.379 . S
C816 N823 1.356 . S
C817 C816 1.363 . S
C817 C820 1.363 . S
N818 C820 1.356 . S
N818 H830 0.984 . S
N818 H831 0.985 . S
N819 C821 1.356 . S
N819 H824 0.984 . S
N819 H825 0.985 . S
C820 C814 1.379 . S
C820 C817 1.363 . S
C820 N818 1.356 . S
C821 C815 1.363 . S
C821 C816 1.379 . S
C821 N819 1.356 . S
N822 C814 1.356 . S
N822 H828 0.984 . S
N822 H829 0.984 . S
N823 C816 1.356 . S
N823 H826 0.984 . S
N823 H827 0.985 . S
H824 N819 0.984 . S
H825 N819 0.985 . S
H826 N823 0.984 . S
H827 N823 0.985 . S
H828 N822 0.984 . S
H829 N822 0.984 . S
H830 N818 0.984 . S
H831 N818 0.985 . S
C832 C833 1.363 . S
C832 C838 1.379 1_556 S
C832 N840 1.356 . S
C833 C832 1.363 . S
C833 C839 1.363 . S
C834 C835 1.363 . S
C834 C839 1.379 1_554 S
C834 N841 1.356 . S
C835 C834 1.363 . S
C835 C838 1.363 . S
N836 C838 1.356 . S
N836 H848 0.984 . S
N836 H849 0.985 . S
N837 C839 1.356 . S
N837 H842 0.984 . S
N837 H843 0.985 . S
C838 C832 1.379 1_554 S
C838 C835 1.363 . S
C838 N836 1.356 . S
C839 C833 1.363 . S
C839 C834 1.379 1_556 S
C839 N837 1.356 . S
N840 C832 1.356 . S
N840 H846 0.984 . S
N840 H847 0.984 . S
N841 C834 1.356 . S
N841 H844 0.984 . S
N841 H845 0.985 . S
H842 N837 0.984 . S
H843 N837 0.985 . S
H844 N841 0.984 . S
H845 N841 0.985 . S
H846 N840 0.984 . S
H847 N840 0.984 . S
H848 N836 0.984 . S
H849 N836 0.985 . S
C850 C851 1.363 . S
C850 C856 1.379 1_554 S
C850 N858 1.356 . S
C851 C850 1.363 . S
C851 C857 1.363 . S
C852 C853 1.363 . S
C852 C857 1.379 1_556 S
C852 N859 1.356 . S
C853 C852 1.363 . S
C853 C856 1.363 . S
N854 C856 1.356 . S
N854 H866 0.984 . S
N854 H867 0.985 . S
N855 C857 1.356 . S
N855 H860 0.984 . S
N855 H861 0.985 . S
C856 C850 1.379 1_556 S
C856 C853 1.363 . S
C856 N854 1.356 . S
C857 C851 1.363 . S
C857 C852 1.379 1_554 S
C857 N855 1.356 . S
N858 C850 1.356 . S
N858 H864 0.984 . S
N858 H865 0.984 . S
N859 C852 1.356 . S
N859 H862 0.984 . S
N859 H863 0.985 . S
H860 N855 0.984 . S
H861 N855 0.985 . S
H862 N859 0.984 . S
H863 N859 0.985 . S
H864 N858 0.984 . S
H865 N858 0.984 . S
H866 N854 0.984 . S
H867 N854 0.985 . S
C868 C869 1.363 . S
C868 C874 1.379 1_556 S
C868 N876 1.356 . S
C869 C868 1.363 . S
C869 C875 1.363 . S
C870 C871 1.363 . S
C870 C875 1.379 1_554 S
C870 N877 1.356 . S
C871 C870 1.363 . S
C871 C874 1.363 . S
N872 C874 1.356 . S
N872 H884 0.984 . S
N872 H885 0.985 . S
N873 C875 1.356 . S
N873 H878 0.984 . S
N873 H879 0.985 . S
C874 C868 1.379 1_554 S
C874 C871 1.363 . S
C874 N872 1.356 . S
C875 C869 1.363 . S
C875 C870 1.379 1_556 S
C875 N873 1.356 . S
N876 C868 1.356 . S
N876 H882 0.984 . S
N876 H883 0.984 . S
N877 C870 1.356 . S
N877 H880 0.984 . S
N877 H881 0.985 . S
H878 N873 0.984 . S
H879 N873 0.985 . S
H880 N877 0.984 . S
H881 N877 0.985 . S
H882 N876 0.984 . S
H883 N876 0.984 . S
H884 N872 0.984 . S
H885 N872 0.985 . S
C886 C887 1.363 . S
C886 C892 1.379 1_556 S
C886 N894 1.356 . S
C887 C886 1.363 . S
C887 C893 1.363 . S
C888 C889 1.363 . S
C888 C893 1.379 1_554 S
C888 N895 1.356 . S
C889 C888 1.363 . S
C889 C892 1.363 . S
N890 C892 1.356 . S
N890 H902 0.984 . S
N890 H903 0.985 . S
N891 C893 1.356 . S
N891 H896 0.984 . S
N891 H897 0.985 . S
C892 C886 1.379 1_554 S
C892 C889 1.363 . S
C892 N890 1.356 . S
C893 C887 1.363 . S
C893 C888 1.379 1_556 S
C893 N891 1.356 . S
N894 C886 1.356 . S
N894 H900 0.984 . S
N894 H901 0.984 . S
N895 C888 1.356 . S
N895 H898 0.984 . S
N895 H899 0.985 . S
H896 N891 0.984 . S
H897 N891 0.985 . S
H898 N895 0.984 . S
H899 N895 0.985 . S
H900 N894 0.984 . S
H901 N894 0.984 . S
H902 N890 0.984 . S
H903 N890 0.985 . S
C904 C905 1.363 . S
C904 C910 1.379 . S
C904 N912 1.356 . S
C905 C904 1.363 . S
C905 C911 1.363 . S
C906 C907 1.363 . S
C906 C911 1.379 . S
C906 N913 1.356 . S
C907 C906 1.363 . S
C907 C910 1.363 . S
N908 C910 1.356 . S
N908 H920 0.984 . S
N908 H921 0.985 . S
N909 C911 1.356 . S
N909 H914 0.984 . S
N909 H915 0.985 . S
C910 C904 1.379 . S
C910 C907 1.363 . S
C910 N908 1.356 . S
C911 C905 1.363 . S
C911 C906 1.379 . S
C911 N909 1.356 . S
N912 C904 1.356 . S
N912 H918 0.984 . S
N912 H919 0.984 . S
N913 C906 1.356 . S
N913 H916 0.984 . S
N913 H917 0.985 . S
H914 N909 0.984 . S
H915 N909 0.985 . S
H916 N913 0.984 . S
H917 N913 0.985 . S
H918 N912 0.984 . S
H919 N912 0.984 . S
H920 N908 0.984 . S
H921 N908 0.985 . S
C922 C923 1.363 . S
C922 C928 1.379 . S
C922 N930 1.356 . S
C923 C922 1.363 . S
C923 C929 1.363 . S
C924 C925 1.363 . S
C924 C929 1.379 . S
C924 N931 1.356 . S
C925 C924 1.363 . S
C925 C928 1.363 . S
N926 C928 1.356 . S
N926 H938 0.984 . S
N926 H939 0.985 . S
N927 C929 1.356 . S
N927 H932 0.984 . S
N927 H933 0.985 . S
C928 C922 1.379 . S
C928 C925 1.363 . S
C928 N926 1.356 . S
C929 C923 1.363 . S
C929 C924 1.379 . S
C929 N927 1.356 . S
N930 C922 1.356 . S
N930 H936 0.984 . S
N930 H937 0.984 . S
N931 C924 1.356 . S
N931 H934 0.984 . S
N931 H935 0.985 . S
H932 N927 0.984 . S
H933 N927 0.985 . S
H934 N931 0.984 . S
H935 N931 0.985 . S
H936 N930 0.984 . S
H937 N930 0.984 . S
H938 N926 0.984 . S
H939 N926 0.985 . S
C940 C941 1.363 . S
C940 C946 1.379 . S
C940 N948 1.356 . S
C941 C940 1.363 . S
C941 C947 1.363 . S
C942 C943 1.363 . S
C942 C947 1.379 . S
C942 N949 1.356 . S
C943 C942 1.363 . S
C943 C946 1.363 . S
N944 C946 1.356 . S
N944 H956 0.984 . S
N944 H957 0.985 . S
N945 C947 1.356 . S
N945 H950 0.984 . S
N945 H951 0.985 . S
C946 C940 1.379 . S
C946 C943 1.363 . S
C946 N944 1.356 . S
C947 C941 1.363 . S
C947 C942 1.379 . S
C947 N945 1.356 . S
N948 C940 1.356 . S
N948 H954 0.984 . S
N948 H955 0.984 . S
N949 C942 1.356 . S
N949 H952 0.984 . S
N949 H953 0.985 . S
H950 N945 0.984 . S
H951 N945 0.985 . S
H952 N949 0.984 . S
H953 N949 0.985 . S
H954 N948 0.984 . S
H955 N948 0.984 . S
H956 N944 0.984 . S
H957 N944 0.985 . S
C958 C959 1.363 . S
C958 C964 1.379 . S
C958 N966 1.356 . S
C959 C958 1.363 . S
C959 C965 1.363 . S
C960 C961 1.363 . S
C960 C965 1.379 . S
C960 N967 1.356 . S
C961 C960 1.363 . S
C961 C964 1.363 . S
N962 C964 1.356 . S
N962 H974 0.984 . S
N962 H975 0.985 . S
N963 C965 1.356 . S
N963 H968 0.984 . S
N963 H969 0.985 . S
C964 C958 1.379 . S
C964 C961 1.363 . S
C964 N962 1.356 . S
C965 C959 1.363 . S
C965 C960 1.379 . S
C965 N963 1.356 . S
N966 C958 1.356 . S
N966 H972 0.984 . S
N966 H973 0.984 . S
N967 C960 1.356 . S
N967 H970 0.984 . S
N967 H971 0.985 . S
H968 N963 0.984 . S
H969 N963 0.985 . S
H970 N967 0.984 . S
H971 N967 0.985 . S
H972 N966 0.984 . S
H973 N966 0.984 . S
H974 N962 0.984 . S
H975 N962 0.985 . S
C976 C977 1.363 . S
C976 C982 1.379 . S
C976 N984 1.356 . S
C977 C976 1.363 . S
C977 C983 1.363 . S
C978 C979 1.363 . S
C978 C983 1.379 . S
C978 N985 1.356 . S
C979 C978 1.363 . S
C979 C982 1.363 . S
N980 C982 1.356 . S
N980 H992 0.984 . S
N980 H993 0.985 . S
N981 C983 1.356 . S
N981 H986 0.984 . S
N981 H987 0.985 . S
C982 C976 1.379 . S
C982 C979 1.363 . S
C982 N980 1.356 . S
C983 C977 1.363 . S
C983 C978 1.379 . S
C983 N981 1.356 . S
N984 C976 1.356 . S
N984 H990 0.984 . S
N984 H991 0.984 . S
N985 C978 1.356 . S
N985 H988 0.984 . S
N985 H989 0.985 . S
H986 N981 0.984 . S
H987 N981 0.985 . S
H988 N985 0.984 . S
H989 N985 0.985 . S
H990 N984 0.984 . S
H991 N984 0.984 . S
H992 N980 0.984 . S
H993 N980 0.985 . S
C994 C995 1.363 . S
C994 C1000 1.379 . S
C994 N1002 1.356 . S
C995 C994 1.363 . S
C995 C1001 1.363 . S
C996 C997 1.363 . S
C996 C1001 1.379 . S
C996 N1003 1.356 . S
C997 C996 1.363 . S
C997 C1000 1.363 . S
N998 C1000 1.356 . S
N998 H1010 0.984 . S
N998 H1011 0.985 . S
N999 C1001 1.356 . S
N999 H1004 0.984 . S
N999 H1005 0.985 . S
C1000 C994 1.379 . S
C1000 C997 1.363 . S
C1000 N998 1.356 . S
C1001 C995 1.363 . S
C1001 C996 1.379 . S
C1001 N999 1.356 . S
N1002 C994 1.356 . S
N1002 H1008 0.984 . S
N1002 H1009 0.984 . S
N1003 C996 1.356 . S
N1003 H1006 0.984 . S
N1003 H1007 0.985 . S
H1004 N999 0.984 . S
H1005 N999 0.985 . S
H1006 N1003 0.984 . S
H1007 N1003 0.985 . S
H1008 N1002 0.984 . S
H1009 N1002 0.984 . S
H1010 N998 0.984 . S
H1011 N998 0.985 . S
C1012 C1013 1.363 . S
C1012 C1018 1.379 . S
C1012 N1020 1.356 . S
C1013 C1012 1.363 . S
C1013 C1019 1.363 . S
C1014 C1015 1.363 . S
C1014 C1019 1.379 . S
C1014 N1021 1.356 . S
C1015 C1014 1.363 . S
C1015 C1018 1.363 . S
N1016 C1018 1.356 . S
N1016 H1028 0.984 . S
N1016 H1029 0.985 . S
N1017 C1019 1.356 . S
N1017 H1022 0.984 . S
N1017 H1023 0.985 . S
C1018 C1012 1.379 . S
C1018 C1015 1.363 . S
C1018 N1016 1.356 . S
C1019 C1013 1.363 . S
C1019 C1014 1.379 . S
C1019 N1017 1.356 . S
N1020 C1012 1.356 . S
N1020 H1026 0.984 . S
N1020 H1027 0.984 . S
N1021 C1014 1.356 . S
N1021 H1024 0.984 . S
N1021 H1025 0.985 . S
H1022 N1017 0.984 . S
H1023 N1017 0.985 . S
H1024 N1021 0.984 . S
H1025 N1021 0.985 . S
H1026 N1020 0.984 . S
H1027 N1020 0.984 . S
H1028 N1016 0.984 . S
H1029 N1016 0.985 . S
C1030 C1031 1.363 . S
C1030 C1036 1.379 . S
C1030 N1038 1.356 . S
C1031 C1030 1.363 . S
C1031 C1037 1.363 . S
C1032 C1033 1.363 . S
C1032 C1037 1.379 . S
C1032 N1039 1.356 . S
C1033 C1032 1.363 . S
C1033 C1036 1.363 . S
N1034 C1036 1.356 . S
N1034 H1046 0.984 . S
N1034 H1047 0.985 . S
N1035 C1037 1.356 . S
N1035 H1040 0.984 . S
N1035 H1041 0.985 . S
C1036 C1030 1.379 . S
C1036 C1033 1.363 . S
C1036 N1034 1.356 . S
C1037 C1031 1.363 . S
C1037 C1032 1.379 . S
C1037 N1035 1.356 . S
N1038 C1030 1.356 . S
N1038 H1044 0.984 . S
N1038 H1045 0.984 . S
N1039 C1032 1.356 . S
N1039 H1042 0.984 . S
N1039 H1043 0.985 . S
H1040 N1035 0.984 . S
H1041 N1035 0.985 . S
H1042 N1039 0.984 . S
H1043 N1039 0.985 . S
H1044 N1038 0.984 . S
H1045 N1038 0.984 . S
H1046 N1034 0.984 . S
H1047 N1034 0.985 . S
C1048 C1049 1.363 . S
C1048 C1054 1.379 . S
C1048 N1056 1.356 . S
C1049 C1048 1.363 . S
C1049 C1055 1.363 . S
C1050 C1051 1.363 . S
C1050 C1055 1.379 . S
C1050 N1057 1.356 . S
C1051 C1050 1.363 . S
C1051 C1054 1.363 . S
N1052 C1054 1.356 . S
N1052 H1064 0.984 . S
N1052 H1065 0.985 . S
N1053 C1055 1.356 . S
N1053 H1058 0.984 . S
N1053 H1059 0.985 . S
C1054 C1048 1.379 . S
C1054 C1051 1.363 . S
C1054 N1052 1.356 . S
C1055 C1049 1.363 . S
C1055 C1050 1.379 . S
C1055 N1053 1.356 . S
N1056 C1048 1.356 . S
N1056 H1062 0.984 . S
N1056 H1063 0.984 . S
N1057 C1050 1.356 . S
N1057 H1060 0.984 . S
N1057 H1061 0.985 . S
H1058 N1053 0.984 . S
H1059 N1053 0.985 . S
H1060 N1057 0.984 . S
H1061 N1057 0.985 . S
H1062 N1056 0.984 . S
H1063 N1056 0.984 . S
H1064 N1052 0.984 . S
H1065 N1052 0.985 . S
C1066 C1067 1.363 . S
C1066 C1072 1.379 . S
C1066 N1074 1.356 . S
C1067 C1066 1.363 . S
C1067 C1073 1.363 . S
C1068 C1069 1.363 . S
C1068 C1073 1.379 . S
C1068 N1075 1.356 . S
C1069 C1068 1.363 . S
C1069 C1072 1.363 . S
N1070 C1072 1.356 . S
N1070 H1082 0.984 . S
N1070 H1083 0.985 . S
N1071 C1073 1.356 . S
N1071 H1076 0.984 . S
N1071 H1077 0.985 . S
C1072 C1066 1.379 . S
C1072 C1069 1.363 . S
C1072 N1070 1.356 . S
C1073 C1067 1.363 . S
C1073 C1068 1.379 . S
C1073 N1071 1.356 . S
N1074 C1066 1.356 . S
N1074 H1080 0.984 . S
N1074 H1081 0.984 . S
N1075 C1068 1.356 . S
N1075 H1078 0.984 . S
N1075 H1079 0.985 . S
H1076 N1071 0.984 . S
H1077 N1071 0.985 . S
H1078 N1075 0.984 . S
H1079 N1075 0.985 . S
H1080 N1074 0.984 . S
H1081 N1074 0.984 . S
H1082 N1070 0.984 . S
H1083 N1070 0.985 . S
C1084 C1085 1.363 . S
C1084 C1090 1.379 . S
C1084 N1092 1.356 . S
C1085 C1084 1.363 . S
C1085 C1091 1.363 . S
C1086 C1087 1.363 . S
C1086 C1091 1.379 . S
C1086 N1093 1.356 . S
C1087 C1086 1.363 . S
C1087 C1090 1.363 . S
N1088 C1090 1.356 . S
N1088 H1100 0.984 . S
N1088 H1101 0.985 . S
N1089 C1091 1.356 . S
N1089 H1094 0.984 . S
N1089 H1095 0.985 . S
C1090 C1084 1.379 . S
C1090 C1087 1.363 . S
C1090 N1088 1.356 . S
C1091 C1085 1.363 . S
C1091 C1086 1.379 . S
C1091 N1089 1.356 . S
N1092 C1084 1.356 . S
N1092 H1098 0.984 . S
N1092 H1099 0.984 . S
N1093 C1086 1.356 . S
N1093 H1096 0.984 . S
N1093 H1097 0.985 . S
H1094 N1089 0.984 . S
H1095 N1089 0.985 . S
H1096 N1093 0.984 . S
H1097 N1093 0.985 . S
H1098 N1092 0.984 . S
H1099 N1092 0.984 . S
H1100 N1088 0.984 . S
H1101 N1088 0.985 . S
C1102 C1103 1.363 . S
C1102 C1108 1.379 . S
C1102 N1110 1.356 . S
C1103 C1102 1.363 . S
C1103 C1109 1.363 . S
C1104 C1105 1.363 . S
C1104 C1109 1.379 . S
C1104 N1111 1.356 . S
C1105 C1104 1.363 . S
C1105 C1108 1.363 . S
N1106 C1108 1.356 . S
N1106 H1118 0.984 . S
N1106 H1119 0.985 . S
N1107 C1109 1.356 . S
N1107 H1112 0.984 . S
N1107 H1113 0.985 . S
C1108 C1102 1.379 . S
C1108 C1105 1.363 . S
C1108 N1106 1.356 . S
C1109 C1103 1.363 . S
C1109 C1104 1.379 . S
C1109 N1107 1.356 . S
N1110 C1102 1.356 . S
N1110 H1116 0.984 . S
N1110 H1117 0.984 . S
N1111 C1104 1.356 . S
N1111 H1114 0.984 . S
N1111 H1115 0.985 . S
H1112 N1107 0.984 . S
H1113 N1107 0.985 . S
H1114 N1111 0.984 . S
H1115 N1111 0.985 . S
H1116 N1110 0.984 . S
H1117 N1110 0.984 . S
H1118 N1106 0.984 . S
H1119 N1106 0.985 . S
C1120 C1121 1.363 . S
C1120 C1126 1.379 . S
C1120 N1128 1.356 . S
C1121 C1120 1.363 . S
C1121 C1127 1.363 . S
C1122 C1123 1.363 . S
C1122 C1127 1.379 . S
C1122 N1129 1.356 . S
C1123 C1122 1.363 . S
C1123 C1126 1.363 . S
N1124 C1126 1.356 . S
N1124 H1136 0.984 . S
N1124 H1137 0.985 . S
N1125 C1127 1.356 . S
N1125 H1130 0.984 1_655 S
N1125 H1131 0.985 . S
C1126 C1120 1.379 . S
C1126 C1123 1.363 . S
C1126 N1124 1.356 . S
C1127 C1121 1.363 . S
C1127 C1122 1.379 . S
C1127 N1125 1.356 . S
N1128 C1120 1.356 . S
N1128 H1134 0.984 . S
N1128 H1135 0.984 1_655 S
N1129 C1122 1.356 . S
N1129 H1132 0.984 . S
N1129 H1133 0.985 . S
H1130 N1125 0.984 1_455 S
H1131 N1125 0.985 . S
H1132 N1129 0.984 . S
H1133 N1129 0.985 . S
H1134 N1128 0.984 . S
H1135 N1128 0.984 1_455 S
H1136 N1124 0.984 . S
H1137 N1124 0.985 . S
C1138 C1139 1.363 . S
C1138 C1144 1.379 . S
C1138 N1146 1.357 . S
C1139 C1138 1.363 . S
C1139 C1145 1.363 . S
C1140 C1141 1.363 . S
C1140 C1145 1.379 . S
C1140 N1147 1.356 . S
C1141 C1140 1.363 . S
C1141 C1144 1.363 . S
N1142 C1144 1.356 . S
N1142 H1154 0.984 . S
N1142 H1155 0.985 . S
N1143 C1145 1.356 . S
N1143 H1148 0.984 1_545 S
N1143 H1149 0.985 . S
C1144 C1138 1.379 . S
C1144 C1141 1.363 . S
C1144 N1142 1.356 . S
C1145 C1139 1.363 . S
C1145 C1140 1.379 . S
C1145 N1143 1.356 . S
N1146 C1138 1.357 . S
N1146 H1152 0.985 . S
N1146 H1153 0.983 1_545 S
N1147 C1140 1.356 . S
N1147 H1150 0.984 . S
N1147 H1151 0.985 . S
H1148 N1143 0.984 1_565 S
H1149 N1143 0.985 . S
H1150 N1147 0.984 . S
H1151 N1147 0.985 . S
H1152 N1146 0.985 . S
H1153 N1146 0.983 1_565 S
H1154 N1142 0.984 . S
H1155 N1142 0.985 . S
C1156 C1157 1.363 . S
C1156 C1162 1.379 . S
C1156 N1164 1.356 . S
C1157 C1156 1.363 . S
C1157 C1163 1.363 . S
C1158 C1159 1.363 . S
C1158 C1163 1.379 . S
C1158 N1165 1.356 . S
C1159 C1158 1.363 . S
C1159 C1162 1.363 . S
N1160 C1162 1.368 . S
N1160 H1172 0.987 . S
N1160 H1173 0.970 1_455 S
N1161 C1163 1.356 . S
N1161 H1166 0.984 . S
N1161 H1167 0.985 . S
C1162 C1156 1.379 . S
C1162 C1159 1.363 . S
C1162 N1160 1.368 . S
C1163 C1157 1.363 . S
C1163 C1158 1.379 . S
C1163 N1161 1.356 . S
N1164 C1156 1.356 . S
N1164 H1170 0.984 . S
N1164 H1171 0.984 . S
N1165 C1158 1.356 . S
N1165 H1168 0.984 1_455 S
N1165 H1169 0.985 . S
H1166 N1161 0.984 . S
H1167 N1161 0.985 . S
H1168 N1165 0.984 1_655 S
H1169 N1165 0.985 . S
H1170 N1164 0.984 . S
H1171 N1164 0.984 . S
H1172 N1160 0.987 . S
H1173 N1160 0.970 1_655 S
C1174 C1175 1.363 . S
C1174 C1180 1.379 . S
C1174 N1182 1.356 . S
C1175 C1174 1.363 . S
C1175 C1181 1.363 . S
C1176 C1177 1.363 . S
C1176 C1181 1.379 . S
C1176 N1183 1.356 . S
C1177 C1176 1.363 . S
C1177 C1180 1.363 . S
N1178 C1180 1.356 . S
N1178 H1190 0.984 . S
N1178 H1191 0.985 . S
N1179 C1181 1.355 . S
N1179 H1184 0.986 1_565 S
N1179 H1185 0.984 . S
C1180 C1174 1.379 . S
C1180 C1177 1.363 . S
C1180 N1178 1.356 . S
C1181 C1175 1.363 . S
C1181 C1176 1.379 . S
C1181 N1179 1.355 . S
N1182 C1174 1.356 . S
N1182 H1188 0.984 . S
N1182 H1189 0.984 1_565 S
N1183 C1176 1.356 . S
N1183 H1186 0.984 . S
N1183 H1187 0.985 . S
H1184 N1179 0.986 1_545 S
H1185 N1179 0.984 . S
H1186 N1183 0.984 . S
H1187 N1183 0.985 . S
H1188 N1182 0.984 . S
H1189 N1182 0.984 1_545 S
H1190 N1178 0.984 . S
H1191 N1178 0.985 . S
C1192 C1193 1.363 . S
C1192 C1198 1.379 . S
C1192 N1200 1.356 . S
C1193 C1192 1.363 . S
C1193 C1199 1.363 . S
C1194 C1195 1.363 . S
C1194 C1199 1.379 . S
C1194 N1201 1.356 . S
C1195 C1194 1.363 . S
C1195 C1198 1.363 . S
N1196 C1198 1.356 . S
N1196 H1208 0.984 . S
N1196 H1209 0.985 . S
N1197 C1199 1.356 . S
N1197 H1202 0.984 1_455 S
N1197 H1203 0.985 . S
C1198 C1192 1.379 . S
C1198 C1195 1.363 . S
C1198 N1196 1.356 . S
C1199 C1193 1.363 . S
C1199 C1194 1.379 . S
C1199 N1197 1.356 . S
N1200 C1192 1.356 . S
N1200 H1206 0.984 . S
N1200 H1207 0.984 1_455 S
N1201 C1194 1.356 . S
N1201 H1204 0.984 . S
N1201 H1205 0.985 . S
H1202 N1197 0.984 1_655 S
H1203 N1197 0.985 . S
H1204 N1201 0.984 . S
H1205 N1201 0.985 . S
H1206 N1200 0.984 . S
H1207 N1200 0.984 1_655 S
H1208 N1196 0.984 . S
H1209 N1196 0.985 . S
C1210 C1211 1.363 . S
C1210 C1216 1.379 . S
C1210 N1218 1.356 . S
C1211 C1210 1.363 . S
C1211 C1217 1.363 . S
C1212 C1213 1.363 . S
C1212 C1217 1.379 . S
C1212 N1219 1.356 . S
C1213 C1212 1.363 . S
C1213 C1216 1.363 . S
N1214 C1216 1.356 . S
N1214 H1226 0.984 . S
N1214 H1227 0.985 1_565 S
N1215 C1217 1.356 . S
N1215 H1220 0.984 . S
N1215 H1221 0.985 . S
C1216 C1210 1.379 . S
C1216 C1213 1.363 . S
C1216 N1214 1.356 . S
C1217 C1211 1.363 . S
C1217 C1212 1.379 . S
C1217 N1215 1.356 . S
N1218 C1210 1.356 . S
N1218 H1224 0.984 . S
N1218 H1225 0.984 . S
N1219 C1212 1.356 . S
N1219 H1222 0.985 1_565 S
N1219 H1223 0.984 . S
H1220 N1215 0.984 . S
H1221 N1215 0.985 . S
H1222 N1219 0.985 1_545 S
H1223 N1219 0.984 . S
H1224 N1218 0.984 . S
H1225 N1218 0.984 . S
H1226 N1214 0.984 . S
H1227 N1214 0.985 1_545 S
C1228 C1229 1.363 . S
C1228 C1234 1.379 . S
C1228 N1236 1.356 . S
C1229 C1228 1.363 . S
C1229 C1235 1.363 . S
C1230 C1231 1.363 . S
C1230 C1235 1.379 . S
C1230 N1237 1.356 . S
C1231 C1230 1.363 . S
C1231 C1234 1.363 . S
N1232 C1234 1.356 . S
N1232 H1244 0.984 . S
N1232 H1245 0.985 1_655 S
N1233 C1235 1.356 . S
N1233 H1238 0.984 . S
N1233 H1239 0.985 . S
C1234 C1228 1.379 . S
C1234 C1231 1.363 . S
C1234 N1232 1.356 . S
C1235 C1229 1.363 . S
C1235 C1230 1.379 . S
C1235 N1233 1.356 . S
N1236 C1228 1.356 . S
N1236 H1242 0.984 . S
N1236 H1243 0.984 . S
N1237 C1230 1.356 . S
N1237 H1240 0.984 1_655 S
N1237 H1241 0.985 . S
H1238 N1233 0.984 . S
H1239 N1233 0.985 . S
H1240 N1237 0.984 1_455 S
H1241 N1237 0.985 . S
H1242 N1236 0.984 . S
H1243 N1236 0.984 . S
H1244 N1232 0.984 . S
H1245 N1232 0.985 1_455 S
C1246 C1247 1.363 . S
C1246 C1252 1.379 . S
C1246 N1254 1.356 . S
C1247 C1246 1.363 . S
C1247 C1253 1.363 . S
C1248 C1249 1.363 . S
C1248 C1253 1.379 . S
C1248 N1255 1.356 . S
C1249 C1248 1.363 . S
C1249 C1252 1.363 . S
N1250 C1252 1.356 . S
N1250 H1262 0.984 . S
N1250 H1263 0.985 . S
N1251 C1253 1.356 . S
N1251 H1256 0.984 1_545 S
N1251 H1257 0.985 . S
C1252 C1246 1.379 . S
C1252 C1249 1.363 . S
C1252 N1250 1.356 . S
C1253 C1247 1.363 . S
C1253 C1248 1.379 . S
C1253 N1251 1.356 . S
N1254 C1246 1.356 . S
N1254 H1260 0.984 . S
N1254 H1261 0.984 1_545 S
N1255 C1248 1.356 . S
N1255 H1258 0.984 . S
N1255 H1259 0.985 . S
H1256 N1251 0.984 1_565 S
H1257 N1251 0.985 . S
H1258 N1255 0.984 . S
H1259 N1255 0.985 . S
H1260 N1254 0.984 . S
H1261 N1254 0.984 1_565 S
H1262 N1250 0.984 . S
H1263 N1250 0.985 . S
C545 C5 1.715 . S
C547 C175 1.715 . S
C563 C209 1.715 . S
C565 C39 1.715 . S
C581 C243 1.715 . S
C583 C73 1.715 . S
C599 C141 1.715 . S
C601 C107 1.715 . S
C617 C277 1.715 . S
C619 C447 1.715 . S
C635 C311 1.715 . S
C637 C481 1.715 . S
C653 C515 1.715 . S
C655 C345 1.715 . S
C671 C379 1.715 . S
C673 C413 1.715 . S
C689 C33 1.336 . S
C691 C101 1.336 . S
C707 C135 1.336 . S
C709 C67 1.336 . S
C725 C169 1.336 . S
C727 C237 1.336 . S
C743 C203 1.336 . S
C745 C271 1.336 . S
C761 C373 1.336 . S
C763 C305 1.336 . S
C779 C407 1.336 . S
C781 C339 1.336 . S
C797 C509 1.336 . S
C799 C441 1.336 . S
C815 C543 1.336 . S
C817 C475 1.336 . S
C833 C519 1.540 . S
C835 C9 1.540 . S
C851 C417 1.540 . S
C853 C43 1.540 . S
C869 C451 1.540 . S
C871 C77 1.540 . S
C887 C111 1.540 . S
C889 C485 1.540 . S
C905 C145 1.540 . S
C907 C315 1.540 . S
C923 C179 1.540 . S
C925 C349 1.540 . S
C941 C213 1.540 . S
C943 C383 1.540 . S
C959 C247 1.540 . S
C961 C281 1.540 . S
C977 C478 1.129 . S
C979 C20 1.164 . S
C995 C54 1.164 . S
C997 C512 1.129 . S
C1013 C410 1.129 . S
C1015 C88 1.164 . S
C1031 C444 1.129 . S
C1033 C122 1.164 . S
C1049 C342 1.129 . S
C1051 C156 1.164 . S
C1067 C190 1.164 . S
C1069 C376 1.129 . S
C1085 C274 1.129 . S
C1087 C224 1.164 . S
C1103 C258 1.164 . S
C1105 C308 1.129 . S
C1121 C206 1.129 1_655 S
C1123 C292 1.164 . S
C1139 C240 1.129 1_545 S
C1141 C326 1.164 . S
C1157 C360 1.164 . S
C1159 C138 1.129 1_455 S
C1175 C172 1.129 1_565 S
C1177 C394 1.164 . S
C1193 C70 1.129 1_455 S
C1195 C428 1.164 . S
C1211 C462 1.164 . S
C1213 C104 1.129 1_565 S
C1229 C496 1.164 . S
C1231 C2 1.129 1_655 S
C1247 C36 1.129 1_545 S
C1249 C530 1.164 . S
