# Generated by pormake.
# Topology smk, (6)-cn, num edge types: 1
# Building blocks:
#     Node 0, Type 0, BuildingBlock: UKALOJ_clean_sbu_0, # of connection points: 6
#     Node 1, Type 0, BuildingBlock: UKALOJ_clean_sbu_0, # of connection points: 6
#     Node 2, Type 0, BuildingBlock: UKALOJ_clean_sbu_0, # of connection points: 6
#     Node 3, Type 0, BuildingBlock: UKALOJ_clean_sbu_0, # of connection points: 6
#     Node 4, Type 0, BuildingBlock: UKALOJ_clean_sbu_0, # of connection points: 6
#     Node 5, Type 0, BuildingBlock: UKALOJ_clean_sbu_0, # of connection points: 6
#     Edge 6, Type (0, 0), BuildingBlock: ZUJKAS_clean_linker_0, # of connection points: 2
#     Edge 7, Type (0, 0), BuildingBlock: ZUJKAS_clean_linker_0, # of connection points: 2
#     Edge 8, Type (0, 0), BuildingBlock: ZUJKAS_clean_linker_0, # of connection points: 2
#     Edge 9, Type (0, 0), BuildingBlock: ZUJKAS_clean_linker_0, # of connection points: 2
#     Edge 10, Type (0, 0), BuildingBlock: ZUJKAS_clean_linker_0, # of connection points: 2
#     Edge 11, Type (0, 0), BuildingBlock: ZUJKAS_clean_linker_0, # of connection points: 2
#     Edge 12, Type (0, 0), BuildingBlock: ZUJKAS_clean_linker_0, # of connection points: 2
#     Edge 13, Type (0, 0), BuildingBlock: ZUJKAS_clean_linker_0, # of connection points: 2
#     Edge 14, Type (0, 0), BuildingBlock: ZUJKAS_clean_linker_0, # of connection points: 2
#     Edge 15, Type (0, 0), BuildingBlock: ZUJKAS_clean_linker_0, # of connection points: 2
#     Edge 16, Type (0, 0), BuildingBlock: ZUJKAS_clean_linker_0, # of connection points: 2
#     Edge 17, Type (0, 0), BuildingBlock: ZUJKAS_clean_linker_0, # of connection points: 2
#     Edge 18, Type (0, 0), BuildingBlock: ZUJKAS_clean_linker_0, # of connection points: 2
#     Edge 19, Type (0, 0), BuildingBlock: ZUJKAS_clean_linker_0, # of connection points: 2
#     Edge 20, Type (0, 0), BuildingBlock: ZUJKAS_clean_linker_0, # of connection points: 2
#     Edge 21, Type (0, 0), BuildingBlock: ZUJKAS_clean_linker_0, # of connection points: 2
#     Edge 22, Type (0, 0), BuildingBlock: ZUJKAS_clean_linker_0, # of connection points: 2
#     Edge 23, Type (0, 0), BuildingBlock: ZUJKAS_clean_linker_0, # of connection points: 2
# Relax obj value: 0.278
# Max RMSD: 0.213
# Mean RMSD: 0.213
data_MOF--net-smk--node1-UKALOJ_clean_sbu_0--edge1-ZUJKAS_clean_linker_0
_symmetry_space_group_name_H-M    P1
_symmetry_Int_Tables_number       1
_symmetry_cell_setting            triclinic
loop_
_symmetry_equiv_pos_as_xyz
'x, y, z'
_cell_length_a     58.063279
_cell_length_b     58.034666
_cell_length_c     19.151593
_cell_angle_alpha  90.483142
_cell_angle_beta   89.734479
_cell_angle_gamma 120.13716
loop_
_atom_site_label
_atom_site_type_symbol
_atom_site_fract_x
_atom_site_fract_y
_atom_site_fract_z
_atom_type_partial_charge
Zn0 Zn 0.43635 0.22295 0.523 0.0
O1 O 0.40553 0.18341 0.54773 0.0
C2 C 0.46093 0.23024 0.65966 0.0
Zn3 Zn 0.46695 0.21032 0.52261 0.0
C4 C 0.41183 0.16543 0.5537 0.0
O5 O 0.43612 0.17175 0.54787 0.0
C6 C 0.49151 0.26711 0.48577 0.0
O7 O 0.46008 0.20018 0.41791 0.0
O8 O 0.42993 0.21256 0.41793 0.0
N9 N 0.49386 0.19726 0.52763 0.0
C10 C 0.51841 0.20854 0.55608 0.0
C11 C 0.50861 0.16979 0.5201 0.0
N12 N 0.48784 0.1732 0.50527 0.0
N13 N 0.52799 0.19163 0.55223 0.0
C14 C 0.39297 0.23741 0.56583 0.0
C15 C 0.39465 0.26113 0.47966 0.0
N16 N 0.41017 0.23695 0.51886 0.0
N17 N 0.41102 0.25158 0.46527 0.0
N18 N 0.38314 0.25282 0.54281 0.0
H19 H 0.38782 0.20424 0.62782 0.0
H20 H 0.364 0.2149 0.64513 0.0
H21 H 0.39792 0.23446 0.67527 0.0
C22 C 0.3851 0.22173 0.63212 0.0
C23 C 0.53406 0.23703 0.58022 0.0
H24 H 0.54246 0.24988 0.53373 0.0
H25 H 0.55094 0.24079 0.61431 0.0
H26 H 0.52124 0.24316 0.60792 0.0
O27 O 0.49716 0.24884 0.49477 0.0
O28 O 0.46768 0.26191 0.49536 0.0
C29 C 0.44268 0.2032 0.38592 0.0
O30 O 0.44351 0.23334 0.62823 0.0
O31 O 0.47314 0.22046 0.6273 0.0
Zn32 Zn 0.23166 0.42765 0.71971 0.0
O33 O 0.24476 0.40034 0.74548 0.0
C34 C 0.24387 0.44914 0.8607 0.0
Zn35 Zn 0.27365 0.46147 0.72694 0.0
C36 C 0.26953 0.40885 0.75263 0.0
O37 O 0.28589 0.43373 0.74925 0.0
C38 C 0.23679 0.48057 0.68728 0.0
O39 O 0.28 0.45776 0.62116 0.0
O40 O 0.23902 0.42379 0.61594 0.0
N41 N 0.3124 0.49189 0.73839 0.0
C42 C 0.32327 0.51376 0.77982 0.0
C43 C 0.35527 0.51237 0.72896 0.0
N44 N 0.33234 0.49116 0.70663 0.0
N45 N 0.3501 0.52674 0.77542 0.0
C46 C 0.17011 0.39183 0.73682 0.0
C47 C 0.16246 0.35652 0.68213 0.0
N48 N 0.19346 0.39632 0.70943 0.0
N49 N 0.18861 0.37439 0.67522 0.0
N50 N 0.15042 0.36702 0.72036 0.0
H51 H 0.16773 0.4044 0.84033 0.0
H52 H 0.14786 0.40958 0.77816 0.0
H53 H 0.18346 0.43127 0.77887 0.0
C54 C 0.16718 0.41049 0.78586 0.0
C55 C 0.30778 0.5233 0.82174 0.0
H56 H 0.31759 0.54534 0.81919 0.0
H57 H 0.30756 0.51788 0.87703 0.0
H58 H 0.28701 0.51436 0.80335 0.0
O59 O 0.261 0.48846 0.70139 0.0
O60 O 0.21965 0.45582 0.69098 0.0
C61 C 0.26122 0.43896 0.58678 0.0
O62 O 0.22505 0.43148 0.82423 0.0
O63 O 0.26638 0.46424 0.8329 0.0
Zn64 Zn 0.81901 0.21884 0.85024 0.0
O65 O 0.85788 0.22599 0.87207 0.0
C66 C 0.81138 0.23067 -0.00742 0.0
Zn67 Zn 0.83135 0.26192 0.86165 0.0
C68 C 0.87603 0.25004 0.88247 0.0
O69 O 0.86999 0.26829 0.88229 0.0
C70 C 0.77462 0.23086 0.82524 0.0
O71 O 0.84146 0.26983 0.75655 0.0
O72 O 0.83015 0.22761 0.74633 0.0
N73 N 0.84517 0.30137 0.88398 0.0
C74 C 0.83685 0.31859 0.86773 0.0
C75 C 0.86872 0.33828 0.94037 0.0
N76 N 0.86509 0.31378 0.92875 0.0
N77 N 0.85116 0.34182 0.90299 0.0
C78 C 0.80367 0.15927 0.86921 0.0
C79 C 0.78233 0.1419 0.77505 0.0
N80 N 0.8053 0.17925 0.83 0.0
N81 N 0.79225 0.1684 0.77124 0.0
N82 N 0.78936 0.13566 0.83582 0.0
H83 H 0.83089 0.18291 0.95108 0.0
H84 H 0.82007 0.14782 0.95399 0.0
H85 H 0.79754 0.15907 -0.02087 0.0
C86 C 0.81381 0.16256 0.94247 0.0
C87 C 0.81584 0.31313 0.81469 0.0
H88 H 0.81557 0.29947 0.77344 0.0
H89 H 0.81935 0.33195 0.79054 0.0
H90 H 0.79616 0.30362 0.84082 0.0
O91 O 0.79261 0.25455 0.84004 0.0
O92 O 0.78031 0.21235 0.82597 0.0
C93 C 0.83906 0.25048 0.71954 0.0
O94 O 0.80822 0.21113 0.95531 0.0
O95 O 0.82093 0.25359 0.96584 0.0
Zn96 Zn 0.60777 0.80855 0.0707 0.0
O97 O 0.63921 0.8485 0.05425 0.0
C98 C 0.60541 0.82149 0.21416 0.0
Zn99 Zn 0.57812 0.82215 0.08298 0.0
C100 C 0.63344 0.86696 0.05284 0.0
O101 O 0.60947 0.86118 0.06299 0.0
C102 C 0.55228 0.76342 0.09527 0.0
O103 O 0.56777 0.81743 -0.02194 0.0
O104 O 0.59772 0.80496 0.96574 0.0
N105 N 0.55367 0.83725 0.10669 0.0
C106 C 0.52698 0.82627 0.11007 0.0
C107 C 0.54402 0.86505 0.1553 0.0
N108 N 0.56416 0.86145 0.13431 0.0
N109 N 0.52041 0.84318 0.14127 0.0
C110 C 0.65428 0.79619 0.08215 0.0
C111 C 0.64238 0.76531 0.00597 0.0
N112 N 0.63243 0.79355 0.05002 0.0
N113 N 0.62529 0.77454 0.00222 0.0
N114 N 0.66087 0.77866 0.05544 0.0
H115 H 0.66574 0.83223 0.14046 0.0
H116 H 0.68904 0.82026 0.14546 0.0
H117 H 0.6581 0.80336 0.19217 0.0
C118 C 0.66766 0.81419 0.14337 0.0
C119 C 0.50752 0.79968 0.07962 0.0
H120 H 0.51641 0.79494 0.03428 0.0
H121 H 0.48909 0.79937 0.06297 0.0
H122 H 0.50216 0.78424 0.11992 0.0
O123 O 0.54722 0.78228 0.10114 0.0
O124 O 0.57616 0.76903 0.08468 0.0
C125 C 0.58005 0.80913 0.93979 0.0
O126 O 0.6166 0.81187 0.17663 0.0
O127 O 0.5889 0.82704 0.18724 0.0
Zn128 Zn 0.77489 0.57675 0.16977 0.0
O129 O 0.76645 0.57897 0.06537 0.0
C130 C 0.80554 0.55097 0.13 0.0
Zn131 Zn 0.81808 0.60746 0.15961 0.0
C132 C 0.78581 0.59591 0.02885 0.0
O133 O 0.80871 0.60986 0.0561 0.0
C134 C 0.80672 0.58779 0.30064 0.0
O135 O 0.81155 0.6394 0.18459 0.0
O136 O 0.76917 0.60939 0.193 0.0
N137 N 0.85749 0.63335 0.13842 0.0
C138 C 0.87797 0.65159 0.17737 0.0
C139 C 0.89401 0.64848 0.07976 0.0
N140 N 0.86752 0.63168 0.07759 0.0
N141 N 0.90109 0.66135 0.14166 0.0
C142 C 0.71837 0.52498 0.1836 0.0
C143 C 0.6986 0.53976 0.24811 0.0
N144 N 0.73532 0.55131 0.19298 0.0
N145 N 0.72282 0.56039 0.23265 0.0
N146 N 0.69529 0.51719 0.21836 0.0
H147 H 0.73585 0.51861 0.09171 0.0
H148 H 0.70506 0.48988 0.11922 0.0
H149 H 0.73525 0.50014 0.16778 0.0
C150 C 0.72388 0.50735 0.13762 0.0
C151 C 0.87557 0.65779 0.25223 0.0
H152 H 0.85555 0.65502 0.26272 0.0
H153 H 0.89085 0.67847 0.26611 0.0
H154 H 0.87865 0.64412 0.28595 0.0
O155 O 0.82627 0.6042 0.26395 0.0
O156 O 0.78376 0.57458 0.27353 0.0
C157 C 0.78762 0.63366 0.19517 0.0
O158 O 0.78191 0.54526 0.14501 0.0
O159 O 0.82417 0.57516 0.13268 0.0
Zn160 Zn 0.228 0.80986 0.3857 0.0
O161 O 0.18856 0.80156 0.36421 0.0
C162 C 0.21291 0.79201 0.52697 0.0
Zn163 Zn 0.21455 0.76643 0.39318 0.0
C164 C 0.17016 0.77726 0.36046 0.0
O165 O 0.17581 0.75903 0.37061 0.0
C166 C 0.2728 0.7992 0.41268 0.0
O167 O 0.22074 0.76299 0.28786 0.0
O168 O 0.23379 0.80568 0.28039 0.0
N169 N 0.1992 0.72632 0.40914 0.0
C170 C 0.2097 0.71023 0.40531 0.0
C171 C 0.17064 0.68729 0.4474 0.0
N172 N 0.17485 0.71192 0.43487 0.0
N173 N 0.19227 0.68569 0.42975 0.0
C174 C 0.24004 0.86845 0.40714 0.0
C175 C 0.27233 0.88921 0.33651 0.0
N176 N 0.24361 0.85006 0.37281 0.0
N177 N 0.26358 0.86305 0.32871 0.0
N178 N 0.25811 0.89335 0.38581 0.0
H179 H 0.20059 0.84186 0.44606 0.0
H180 H 0.21173 0.87687 0.45744 0.0
H181 H 0.22493 0.86089 0.51159 0.0
C182 C 0.21797 0.86167 0.45829 0.0
C183 C 0.23636 0.71819 0.37435 0.0
H184 H 0.24174 0.7337 0.33412 0.0
H185 H 0.2364 0.70068 0.35068 0.0
H186 H 0.25154 0.72636 0.41626 0.0
O187 O 0.25407 0.77505 0.41387 0.0
O188 O 0.2671 0.81748 0.40462 0.0
C189 C 0.22975 0.78409 0.25206 0.0
O190 O 0.22234 0.81315 0.49143 0.0
O191 O 0.2083 0.77035 0.49817 0.0
H192 H 0.47045 0.18844 0.29953 0.0
H193 H 0.4729 0.19237 0.1726 0.0
H194 H 0.41096 0.21274 0.17491 0.0
H195 H 0.40832 0.20903 0.30188 0.0
H196 H 0.43187 0.17062 0.05815 0.0
H197 H 0.48273 0.28025 0.10509 0.0
H198 H 0.47886 0.25697 0.17245 0.0
H199 H 0.45101 0.26038 0.14704 0.0
C200 C 0.45688 0.1931 0.27294 0.0
C201 C 0.43968 0.19912 0.31038 0.0
C202 C 0.4583 0.19528 0.20069 0.0
C203 C 0.44251 0.20339 0.16574 0.0
C204 C 0.4235 0.20684 0.20204 0.0
H205 H 0.43536 0.24719 0.74782 0.0
H206 H 0.43456 0.24449 0.87496 0.0
C207 C 0.42205 0.20469 0.27426 0.0
C208 C 0.44808 0.21119 0.09281 0.0
H209 H 0.47553 0.26561 -0.01247 0.0
C210 C 0.44143 0.19132 0.04238 0.0
C211 C 0.46074 0.23832 0.07372 0.0
C212 C 0.46898 0.26031 0.1273 0.0
C213 C 0.44668 0.1979 0.97198 0.0
C214 C 0.45932 0.22503 0.95283 0.0
C215 C 0.46603 0.24491 0.0033 0.0
C216 C 0.46445 0.23272 0.8797 0.0
C217 C 0.43825 0.17584 0.91849 0.0
C218 C 0.4827 0.22852 0.84197 0.0
C219 C 0.483 0.22973 0.7696 0.0
C220 C 0.46503 0.23518 0.73478 0.0
C221 C 0.4489 0.24227 0.77339 0.0
C222 C 0.44854 0.24093 0.84581 0.0
H223 H 0.42437 0.15596 0.94079 0.0
H224 H 0.42844 0.17924 0.87329 0.0
H225 H 0.45612 0.17555 0.89886 0.0
H226 H 0.49538 0.22257 0.8682 0.0
H227 H 0.49608 0.22473 0.74105 0.0
H228 H 0.29766 0.47583 0.49827 0.0
H229 H 0.29478 0.47427 0.37077 0.0
H230 H 0.22802 0.39407 0.37963 0.0
H231 H 0.23054 0.39543 0.50689 0.0
H232 H 0.2903 0.43521 0.25951 0.0
H233 H 0.20012 0.44414 0.30419 0.0
H234 H 0.22443 0.45116 0.37167 0.0
H235 H 0.20109 0.41732 0.34779 0.0
C236 C 0.28289 0.45761 0.47292 0.0
C237 C 0.26388 0.436 0.51192 0.0
C238 C 0.2813 0.45676 0.40041 0.0
C239 C 0.26086 0.43426 0.367 0.0
C240 C 0.24364 0.41166 0.40538 0.0
H241 H 0.20583 0.41022 0.94164 0.0
H242 H 0.20769 0.4069 0.06844 0.0
C243 C 0.24509 0.41254 0.47773 0.0
C244 C 0.25526 0.43583 0.29362 0.0
H245 H 0.21196 0.44226 0.18732 0.0
C246 C 0.27318 0.43665 0.2434 0.0
C247 C 0.23287 0.43779 0.27393 0.0
C248 C 0.21356 0.43776 0.32708 0.0
C249 C 0.2692 0.43936 0.17284 0.0
C250 C 0.24706 0.44176 0.15329 0.0
C251 C 0.22891 0.44051 0.20338 0.0
C252 C 0.24274 0.44582 0.08059 0.0
C253 C 0.2886 0.43957 0.1197 0.0
C254 C 0.26092 0.46946 0.04743 0.0
C255 C 0.25999 0.4714 -0.02454 0.0
C256 C 0.24083 0.44975 0.93634 0.0
C257 C 0.22096 0.42713 0.97069 0.0
C258 C 0.22199 0.42515 0.04281 0.0
H259 H 0.30098 0.43172 0.14158 0.0
H260 H 0.27792 0.42753 0.07297 0.0
H261 H 0.30212 0.46035 0.10257 0.0
H262 H 0.2767 0.48575 0.07673 0.0
H263 H 0.27508 0.48923 0.95033 0.0
H264 H 0.81133 0.19323 0.07737 0.0
H265 H 0.81433 0.19561 0.20475 0.0
H266 H 0.80434 0.26445 0.2041 0.0
H267 H 0.80171 0.26246 0.07692 0.0
H268 H 0.85226 0.27276 0.26312 0.0
H269 H 0.76385 0.18303 0.37046 0.0
H270 H 0.7808 0.17661 0.30089 0.0
H271 H 0.76443 0.19526 0.28365 0.0
C272 C 0.80885 0.20827 0.1046 0.0
C273 C 0.80666 0.22788 0.06779 0.0
C274 C 0.81052 0.20958 0.17717 0.0
C275 C 0.80958 0.23023 0.21311 0.0
C276 C 0.80515 0.24845 0.17673 0.0
H277 H 0.83906 0.28788 0.63467 0.0
H278 H 0.83661 0.28569 0.50711 0.0
C279 C 0.80369 0.24729 0.10436 0.0
C280 C 0.81713 0.23525 0.28682 0.0
H281 H 0.79928 0.20875 0.44902 0.0
C282 C 0.84065 0.25888 0.30404 0.0
C283 C 0.80195 0.2169 0.33915 0.0
C284 C 0.77622 0.19161 0.32294 0.0
C285 C 0.84959 0.2646 0.373 0.0
C286 C 0.83439 0.24626 0.42532 0.0
C287 C 0.81089 0.22261 0.40809 0.0
C288 C 0.84183 0.25134 0.49908 0.0
C289 C 0.8753 0.2899 0.3893 0.0
C290 C 0.84637 0.23324 0.53564 0.0
C291 C 0.84749 0.23427 0.60803 0.0
C292 C 0.84405 0.25343 0.64445 0.0
C293 C 0.84181 0.27298 0.60752 0.0
C294 C 0.84048 0.2718 0.53489 0.0
H295 H 0.88764 0.29856 0.34178 0.0
H296 H 0.8707 0.30483 0.41167 0.0
H297 H 0.88712 0.2862 0.42841 0.0
H298 H 0.84749 0.21739 0.50835 0.0
H299 H 0.84958 0.21918 0.63557 0.0
H300 H 0.59701 0.85398 0.29872 0.0
H301 H 0.59516 0.85288 0.42561 0.0
H302 H 0.62156 0.79537 0.42639 0.0
H303 H 0.62333 0.79621 0.29842 0.0
H304 H 0.5705 0.77895 0.48774 0.0
H305 H 0.64877 0.87749 0.5881 0.0
H306 H 0.62973 0.87924 0.51681 0.0
H307 H 0.65054 0.86489 0.50283 0.0
C308 C 0.60306 0.84159 0.32597 0.0
C309 C 0.60988 0.82482 0.28933 0.0
C310 C 0.60224 0.8412 0.39829 0.0
C311 C 0.60833 0.82414 0.43461 0.0
C312 C 0.61697 0.80874 0.39852 0.0
H313 H 0.58843 0.77656 0.85571 0.0
H314 H 0.58948 0.77698 0.72868 0.0
C315 C 0.61798 0.80925 0.32585 0.0
C316 C 0.60142 0.8194 0.50853 0.0
H317 H 0.61354 0.85048 0.66641 0.0
C318 C 0.58004 0.79443 0.52719 0.0
C319 C 0.6137 0.83993 0.55871 0.0
C320 C 0.63712 0.86684 0.54087 0.0
C321 C 0.57035 0.7895 0.59549 0.0
C322 C 0.58261 0.81003 0.64563 0.0
C323 C 0.60398 0.835 0.62697 0.0
C324 C 0.5758 0.80532 0.71959 0.0
C325 C 0.547 0.76256 0.61347 0.0
C326 C 0.56708 0.82066 0.75566 0.0
C327 C 0.5665 0.8205 0.82837 0.0
C328 C 0.57514 0.80539 0.86488 0.0
C329 C 0.582 0.78863 0.82836 0.0
C330 C 0.58234 0.78862 0.75601 0.0
H331 H 0.53544 0.75176 0.56626 0.0
H332 H 0.55445 0.75031 0.63809 0.0
H333 H 0.53348 0.76452 0.65115 0.0
H334 H 0.56217 0.83378 0.72769 0.0
H335 H 0.56111 0.83353 0.85576 0.0
H336 H 0.77357 0.54718 0.38453 0.0
H337 H 0.77167 0.54856 0.5116 0.0
H338 H 0.84366 0.62529 0.51382 0.0
H339 H 0.84566 0.62422 0.38615 0.0
H340 H 0.80962 0.55882 0.6257 0.0
H341 H 0.78122 0.63645 0.58794 0.0
H342 H 0.78091 0.61544 0.51748 0.0
H343 H 0.81193 0.64259 0.54834 0.0
C344 C 0.78936 0.56406 0.41217 0.0
C345 C 0.80949 0.58585 0.37586 0.0
C346 C 0.78827 0.56475 0.48453 0.0
C347 C 0.80723 0.58724 0.52107 0.0
C348 C 0.82874 0.60795 0.48566 0.0
H349 H 0.81855 0.63644 0.94409 0.0
H350 H 0.82051 0.63458 0.81714 0.0
C351 C 0.82992 0.60724 0.41306 0.0
C352 C 0.80247 0.59023 0.59473 0.0
H353 H 0.7829 0.62391 0.70375 0.0
C354 C 0.80383 0.57304 0.64309 0.0
C355 C 0.79458 0.60862 0.61606 0.0
C356 C 0.79183 0.62674 0.56486 0.0
C357 C 0.79795 0.57412 0.71344 0.0
C358 C 0.79006 0.59251 0.73477 0.0
C359 C 0.78868 0.60969 0.68638 0.0
C360 C 0.78533 0.59557 0.80842 0.0
C361 C 0.80076 0.55604 0.76467 0.0
C362 C 0.76398 0.57483 0.84418 0.0
C363 C 0.76275 0.57582 0.91673 0.0
C364 C 0.78299 0.59752 0.95352 0.0
C365 C 0.80293 0.61931 0.91679 0.0
C366 C 0.80406 0.61834 0.84449 0.0
H367 H 0.8115 0.54645 0.74166 0.0
H368 H 0.8116 0.56735 0.81214 0.0
H369 H 0.78068 0.54011 0.78099 0.0
H370 H 0.74921 0.55729 0.81636 0.0
H371 H 0.74713 0.55883 0.94401 0.0
H372 H 0.20951 0.74055 0.16651 0.0
H373 H 0.20888 0.74105 0.03874 0.0
H374 H 0.25796 0.82675 0.04183 0.0
H375 H 0.25889 0.82648 0.16882 0.0
H376 H 0.18629 0.77048 -0.02047 0.0
H377 H 0.28782 0.80317 0.87757 0.0
H378 H 0.27672 0.7882 0.96249 0.0
H379 H 0.28677 0.82262 0.94969 0.0
C380 C 0.22083 0.75937 0.13974 0.0
C381 C 0.23381 0.78352 0.17699 0.0
C382 C 0.22046 0.75961 0.06713 0.0
C383 C 0.23341 0.78392 0.03173 0.0
C384 C 0.24818 0.80782 0.06869 0.0
H385 H 0.23376 0.83561 0.61247 0.0
H386 H 0.23488 0.83518 0.74016 0.0
C387 C 0.24844 0.80763 0.14106 0.0
C388 C 0.22783 0.78499 0.958 0.0
H389 H 0.2574 0.80584 0.79964 0.0
C390 C 0.20172 0.77793 0.93982 0.0
C391 C 0.24824 0.79523 0.90754 0.0
C392 C 0.27644 0.80255 0.92501 0.0
C393 C 0.19546 0.7811 0.87166 0.0
C394 C 0.21585 0.79129 0.82116 0.0
C395 C 0.24198 0.79838 0.83935 0.0
C396 C 0.21023 0.79233 0.74745 0.0
C397 C 0.16727 0.77383 0.85428 0.0
C398 C 0.19527 0.76842 0.71069 0.0
C399 C 0.19469 0.76856 0.63834 0.0
C400 C 0.20921 0.79264 0.60221 0.0
C401 C 0.22248 0.8168 0.63934 0.0
C402 C 0.22314 0.81661 0.71192 0.0
H403 H 0.15596 0.77335 0.90173 0.0
H404 H 0.167 0.78815 0.81662 0.0
H405 H 0.15686 0.75372 0.82988 0.0
H406 H 0.18553 0.74951 0.73764 0.0
H407 H 0.18406 0.74969 0.61072 0.0
H408 H 0.41894 0.12279 0.53928 0.0
H409 H 0.38509 0.07619 0.52801 0.0
H410 H 0.32381 0.0959 0.56895 0.0
H411 H 0.35789 0.14328 0.57676 0.0
H412 H 0.3494 0.04039 0.60799 0.0
H413 H 0.29729 0.05707 0.38843 0.0
H414 H 0.32844 0.08322 0.42272 0.0
H415 H 0.29782 0.07358 0.46851 0.0
C416 C 0.3983 0.11734 0.54655 0.0
C417 C 0.39113 0.13687 0.55817 0.0
C418 C 0.37888 0.09055 0.5401 0.0
C419 C 0.35175 0.08244 0.54598 0.0
C420 C 0.34453 0.10168 0.56196 0.0
H421 H 0.2534 0.90733 0.52015 0.0
H422 H 0.26962 0.95219 0.56521 0.0
C423 C 0.36404 0.12873 0.5672 0.0
C424 C 0.33158 0.05396 0.53257 0.0
H425 H 0.28147 1.01283 0.42156 0.0
C426 C 0.33438 0.03434 0.56759 0.0
C427 C 0.31205 0.04604 0.47952 0.0
C428 C 0.30878 0.06603 0.43713 0.0
C429 C 0.31946 1.00732 0.54851 0.0
C430 C 0.30006 0.99938 0.49502 0.0
C431 C 0.29622 0.01885 0.46266 0.0
C432 C 0.2858 0.97167 0.46649 0.0
C433 C 0.32605 0.98799 0.58277 0.0
C434 C 0.28753 0.96735 0.39488 0.0
C435 C 0.27696 0.94152 0.3682 0.0
C436 C 0.26455 0.9193 0.4124 0.0
C437 C 0.26188 0.92362 0.48371 0.0
C438 C 0.27188 0.9495 0.51012 0.0
H439 H 0.34584 0.99838 0.60872 0.0
H440 H 0.31093 0.97665 0.62337 0.0
H441 H 0.32608 0.97364 0.5441 0.0
H442 H 0.29807 0.98402 0.35983 0.0
H443 H 0.27941 0.93892 0.31313 0.0
H444 H 0.35169 0.26805 0.4795 0.0
H445 H 0.32953 0.29003 0.53276 0.0
H446 H 0.35384 0.27926 0.73663 0.0
H447 H 0.37865 0.2604 0.68332 0.0
H448 H 0.29134 0.27857 0.61669 0.0
H449 H 0.38283 0.3563 0.74756 0.0
H450 H 0.38329 0.33242 0.68795 0.0
H451 H 0.37309 0.3235 0.77743 0.0
C452 C 0.35231 0.27032 0.53575 0.0
C453 C 0.36675 0.2619 0.5767 0.0
C454 C 0.33947 0.28279 0.56629 0.0
C455 C 0.3404 0.2869 0.63886 0.0
C456 C 0.35341 0.2771 0.68039 0.0
H457 H 0.24293 0.35588 0.78876 0.0
H458 H 0.25881 0.3241 0.77442 0.0
C459 C 0.36703 0.2654 0.64964 0.0
C460 C 0.32869 0.30242 0.66981 0.0
H461 H 0.34334 0.35697 0.7705 0.0
C462 C 0.30274 0.29573 0.65034 0.0
C463 C 0.34357 0.325 0.71339 0.0
C464 C 0.3723 0.33491 0.73223 0.0
C465 C 0.29167 0.31146 0.67063 0.0
C466 C 0.30643 0.33381 0.715 0.0
C467 C 0.33192 0.33979 0.73694 0.0
C468 C 0.29735 0.35306 0.73274 0.0
C469 C 0.26498 0.30474 0.64073 0.0
C470 C 0.31429 0.38027 0.71911 0.0
C471 C 0.30568 0.39853 0.72997 0.0
C472 C 0.27968 0.39 0.7535 0.0
C473 C 0.26301 0.36299 0.77004 0.0
C474 C 0.27195 0.34475 0.76093 0.0
H475 H 0.25985 0.29167 0.59383 0.0
H476 H 0.24926 0.29392 0.68042 0.0
H477 H 0.26466 0.32303 0.62592 0.0
H478 H 0.33399 0.38735 0.69756 0.0
H479 H 0.31901 0.41916 0.71631 0.0
H480 H 0.89825 0.21965 0.84644 0.0
H481 H 0.94575 0.23511 0.83108 0.0
H482 H 0.96538 0.31296 0.90755 0.0
H483 H 0.91814 0.29776 0.92305 0.0
H484 H 0.97782 0.27793 0.73994 0.0
H485 H 1.01933 0.29804 0.00823 0.0
H486 H 0.9843 0.27636 -0.00968 0.0
H487 H 0.99842 0.31191 -0.00959 0.0
C488 C 0.91271 0.23984 0.86177 0.0
C489 C 0.90442 0.25751 0.88576 0.0
C490 C 0.93982 0.24867 0.85269 0.0
C491 C 0.95907 0.27513 0.86856 0.0
C492 C 0.9509 0.29236 0.89599 0.0
H493 H 0.11348 0.3811 0.69619 0.0
H494 H 0.06662 0.35704 0.73343 0.0
C495 C 0.92385 0.28365 0.90452 0.0
C496 C 0.98737 0.2857 0.84927 0.0
H497 H 0.05062 0.31798 0.9148 0.0
C498 C 0.99373 0.28638 0.77823 0.0
C499 C 1.00805 0.29664 0.89932 0.0
C500 C 1.00225 0.29554 -0.02356 0.0
C501 C 1.0203 0.29859 0.75569 0.0
C502 C 0.041 0.31057 0.80547 0.0
C503 C 0.03467 0.30901 0.87673 0.0
C504 C 0.06935 0.32531 0.78417 0.0
C505 C 0.02606 0.29879 0.67874 0.0
C506 C 0.08638 0.31559 0.80118 0.0
C507 C 0.11305 0.32935 0.78007 0.0
C508 C 0.12315 0.35324 0.74288 0.0
C509 C 0.10614 0.36299 0.72608 0.0
C510 C 0.07943 0.34916 0.74672 0.0
H511 H 1.00833 0.28374 0.64932 0.0
H512 H 0.03206 0.31874 0.65729 0.0
H513 H 0.0427 0.29487 0.66985 0.0
H514 H 0.07895 0.29722 0.83002 0.0
H515 H 0.12592 0.3215 0.79308 0.0
H516 H 0.62614 0.90957 0.04017 0.0
H517 H 0.659 0.95521 0.01041 0.0
H518 H 0.72026 0.93394 0.00219 0.0
H519 H 0.68716 0.88771 0.03081 0.0
H520 H 0.70455 0.99142 0.07905 0.0
H521 H 0.72827 0.9694 0.81341 0.0
H522 H 0.6999 0.94526 0.86265 0.0
H523 H 0.73275 0.95187 0.88415 0.0
C524 C 0.64658 0.91447 0.03211 0.0
C525 C 0.65397 0.89489 0.03751 0.0
C526 C 0.66538 0.94065 0.01517 0.0
C527 C 0.69203 0.94795 0.0032 0.0
C528 C 0.6997 0.92864 0.00989 0.0
H529 H 0.81554 0.11061 0.87765 0.0
H530 H 0.79524 0.06487 0.92376 0.0
C531 C 0.6808 0.90228 0.02665 0.0
C532 C 0.71137 0.97585 -0.01643 0.0
H533 H 0.74943 1.01443 0.84821 0.0
C534 C 0.71462 0.99643 0.02892 0.0
C535 C 0.72452 0.98238 0.91812 0.0
C536 C 0.72113 0.96114 0.86636 0.0
C537 C 0.72988 0.02326 0.00964 0.0
C538 C 0.74215 0.0297 0.94332 0.0
C539 C 0.74 1.00931 0.89915 0.0
C540 C 0.75482 0.0572 0.9163 0.0
C541 C 0.7322 0.04462 0.05937 0.0
C542 C 0.73875 0.06772 0.89645 0.0
C543 C 0.75023 0.0935 0.87009 0.0
C544 C 0.77797 0.10929 0.86374 0.0
C545 C 0.79412 0.09879 0.88327 0.0
C546 C 0.78258 0.07278 0.90913 0.0
H547 H 0.72631 0.03699 0.11336 0.0
H548 H 0.7529 0.06174 0.06013 0.0
H549 H 0.71895 0.05204 0.04148 0.0
H550 H 0.71727 0.05588 0.90107 0.0
H551 H 0.73751 0.10129 0.85498 0.0
H552 H 0.7387 0.62742 0.22234 0.0
H553 H 0.72542 0.66103 0.21498 0.0
H554 H 0.80694 0.72156 0.17683 0.0
H555 H 0.82047 0.68781 0.18286 0.0
H556 H 0.74022 0.70896 0.28506 0.0
H557 H 0.76787 0.7252 0.00335 0.0
H558 H 0.76607 0.69771 0.05117 0.0
H559 H 0.79386 0.73075 0.06349 0.0
C560 C 0.75394 0.64792 0.21326 0.0
C561 C 0.78062 0.65485 0.20225 0.0
C562 C 0.74629 0.66714 0.20922 0.0
C563 C 0.7651 0.69369 0.19402 0.0
C564 C 0.79203 0.70107 0.18724 0.0
H565 H 0.71463 0.8073 0.06149 0.0
H566 H 0.74438 0.79153 0.10391 0.0
C567 C 0.79974 0.68178 0.1912 0.0
C568 C 0.7558 0.71286 0.18084 0.0
H569 H 0.74558 0.74615 0.04933 0.0
C570 C 0.74177 0.71746 0.23384 0.0
C571 C 0.75788 0.72399 0.11397 0.0
C572 C 0.77205 0.71911 0.0544 0.0
C573 C 0.72883 0.73195 0.22096 0.0
C574 C 0.72969 0.74179 0.15315 0.0
C575 C 0.745 0.73857 0.10127 0.0
C576 C 0.71228 0.75246 0.13269 0.0
C577 C 0.71372 0.73597 0.27953 0.0
C578 C 0.68454 0.73567 0.13429 0.0
C579 C 0.66778 0.74457 0.10991 0.0
C580 C 0.67842 0.77044 0.08378 0.0
C581 C 0.70613 0.78742 0.08254 0.0
C582 C 0.72301 0.77841 0.10649 0.0
H583 H 0.72159 0.73483 0.33137 0.0
H584 H 0.71469 0.75551 0.27518 0.0
H585 H 0.6925 0.72003 0.27692 0.0
H586 H 0.67585 0.71538 0.15273 0.0
H587 H 0.64643 0.73119 0.11071 0.0
H588 H 0.93776 0.64637 0.14357 0.0
H589 H 0.98404 0.67273 0.18299 0.0
H590 H 0.97166 0.73839 0.23262 0.0
H591 H 0.92512 0.71175 0.19307 0.0
H592 H 0.02371 0.72127 0.13139 0.0
H593 H 1.0044 0.72943 0.41309 0.0
H594 H 0.97896 0.70567 0.35514 0.0
H595 H 0.98845 0.74023 0.35181 0.0
C596 C 0.94498 0.66638 0.16331 0.0
C597 C 0.92794 0.67695 0.1667 0.0
C598 C 0.97133 0.68142 0.18572 0.0
C599 C 0.9812 0.7074 0.21165 0.0
C600 C 0.96428 0.71818 0.21429 0.0
H601 H 0.14971 0.81033 0.33813 0.0
H602 H 0.10411 0.79722 0.30202 0.0
C603 C 0.93778 0.70302 0.19194 0.0
C604 C 1.00942 0.72302 0.23417 0.0
H605 H 0.04924 0.7488 0.37803 0.0
C606 C 0.0293 0.72761 0.18512 0.0
C607 C 1.01668 0.7313 0.30434 0.0
C608 C 0.99607 0.72631 0.35948 0.0
C609 C 0.05612 0.73938 0.20484 0.0
C610 C 0.06321 0.7467 0.27532 0.0
C611 C 0.0436 0.74323 0.32393 0.0
C612 C 0.09032 0.755 0.30039 0.0
C613 C 0.0767 0.74309 0.1509 0.0
C614 C 0.09735 0.73554 0.31202 0.0
C615 C 0.12314 0.74286 0.3327 0.0
C616 C 0.14252 0.76987 0.34196 0.0
C617 C 0.13527 0.78938 0.33134 0.0
C618 C 0.10929 0.78196 0.31084 0.0
H619 H 0.06878 0.74024 0.09687 0.0
H620 H 0.09447 0.76332 0.15565 0.0
H621 H 0.08326 0.7284 0.16007 0.0
H622 H 0.0829 0.71463 0.30423 0.0
H623 H 0.12796 0.72729 0.3404 0.0
H624 H 0.5437 0.28385 0.45684 0.0
H625 H 0.57727 0.32668 0.40974 0.0
H626 H 0.52007 0.35334 0.409 0.0
H627 H 0.48612 0.31033 0.45611 0.0
H628 H 0.54911 0.36232 0.28192 0.0
H629 H 0.61611 0.39894 0.5122 0.0
H630 H 0.60766 0.36609 0.48334 0.0
H631 H 0.5821 0.37191 0.51732 0.0
C632 C 0.53825 0.29888 0.44758 0.0
C633 C 0.51223 0.29369 0.46085 0.0
C634 C 0.55753 0.32339 0.42071 0.0
C635 C 0.55125 0.34329 0.40673 0.0
C636 C 0.52533 0.33826 0.41981 0.0
H637 H 0.6434 0.50222 0.22836 0.0
H638 H 0.60721 0.45934 0.27019 0.0
C639 C 0.506 0.31371 0.44692 0.0
C640 C 0.57162 0.36899 0.3764 0.0
H641 H 0.63306 0.42298 0.4068 0.0
C642 C 0.5674 0.37572 0.30931 0.0
C643 C 0.59545 0.38634 0.41226 0.0
C644 C 0.60059 0.38065 0.48552 0.0
C645 C 0.58675 0.39906 0.2763 0.0
C646 C 0.61071 0.41629 0.31193 0.0
C647 C 0.61475 0.40966 0.37935 0.0
C648 C 0.63191 0.44141 0.28076 0.0
C649 C 0.58168 0.40467 0.2029 0.0
C650 C 0.65784 0.44568 0.27342 0.0
C651 C 0.67849 0.47018 0.25005 0.0
C652 C 0.67359 0.49086 0.2332 0.0
C653 C 0.64756 0.48642 0.23976 0.0
C654 C 0.6269 0.46192 0.2633 0.0
H655 H 0.566 0.3864 0.17651 0.0
H656 H 0.57486 0.41942 0.20474 0.0
H657 H 0.60014 0.41312 0.17102 0.0
H658 H 0.66223 0.43025 0.28752 0.0
H659 H 0.69848 0.47331 0.24845 0.0
H660 H 0.18865 0.47083 0.63491 0.0
H661 H 0.17836 0.50334 0.58411 0.0
H662 H 0.25765 0.56673 0.63324 0.0
H663 H 0.26819 0.53461 0.68315 0.0
H664 H 0.18042 0.54941 0.64213 0.0
H665 H 0.25173 0.57539 0.42298 0.0
H666 H 0.24129 0.5462 0.47598 0.0
H667 H 0.2666 0.5784 0.50698 0.0
C668 C 0.20382 0.49172 0.63525 0.0
C669 C 0.22932 0.50008 0.66246 0.0
C670 C 0.19793 0.51024 0.6061 0.0
C671 C 0.21746 0.53735 0.60346 0.0
C672 C 0.24252 0.54582 0.63311 0.0
H673 H 0.23605 0.68756 0.48554 0.0
H674 H 0.24059 0.64976 0.52162 0.0
C675 C 0.24843 0.52741 0.66204 0.0
C676 C 0.21189 0.557 0.56985 0.0
H677 H 0.23466 0.60469 0.44349 0.0
C678 C 0.192 0.56128 0.59813 0.0
C679 C 0.22701 0.57238 0.51228 0.0
C680 C 0.24768 0.56773 0.47727 0.0
C681 C 0.18764 0.58138 0.57233 0.0
C682 C 0.20334 0.5973 0.51615 0.0
C683 C 0.22272 0.59252 0.48669 0.0
C684 C 0.20088 0.6199 0.48951 0.0
C685 C 0.16702 0.58615 0.60715 0.0
C686 C 0.17727 0.61563 0.45798 0.0
C687 C 0.17481 0.63727 0.43628 0.0
C688 C 0.19601 0.66351 0.44495 0.0
C689 C 0.21978 0.66764 0.47547 0.0
C690 C 0.22225 0.64604 0.49702 0.0
H691 H 0.16046 0.57583 0.65814 0.0
H692 H 0.17492 0.60779 0.61574 0.0
H693 H 0.14931 0.57853 0.57278 0.0
H694 H 0.16066 0.5956 0.45088 0.0
H695 H 0.15623 0.63359 0.41347 0.0
H696 H 0.75435 0.26443 0.82951 0.0
H697 H 0.71127 0.25593 0.78623 0.0
H698 H 0.69099 0.176 0.72792 0.0
H699 H 0.73405 0.18428 0.77153 0.0
H700 H 0.69259 0.24247 0.65036 0.0
H701 H 0.62505 0.16449 0.83606 0.0
H702 H 0.6603 0.18542 0.85191 0.0
H703 H 0.64844 0.15753 0.79285 0.0
C704 C 0.74072 0.245 0.80788 0.0
C705 C 0.74774 0.22509 0.80379 0.0
C706 C 0.71607 0.24016 0.78322 0.0
C707 C 0.69784 0.21528 0.75438 0.0
C708 C 0.70457 0.1952 0.7511 0.0
H709 H 0.56461 0.18477 0.48333 0.0
H710 H 0.60608 0.18966 0.5315 0.0
C711 C 0.72924 0.20001 0.77586 0.0
C712 C 0.67238 0.21087 0.72473 0.0
H713 H 0.60477 0.17268 0.73935 0.0
C714 C 0.67338 0.22723 0.66983 0.0
C715 C 0.64736 0.19113 0.75067 0.0
C716 C 0.64509 0.17377 0.81153 0.0
C717 C 0.65003 0.22428 0.63982 0.0
C718 C 0.62501 0.20415 0.66467 0.0
C719 C 0.62399 0.18791 0.71995 0.0
C720 C 0.59968 0.20026 0.63556 0.0
C721 C 0.65235 0.24314 0.58283 0.0
C722 C 0.58202 0.20376 0.67855 0.0
C723 C 0.55844 0.20086 0.65115 0.0
C724 C 0.55222 0.19456 0.58027 0.0
C725 C 0.56939 0.19014 0.53779 0.0
C726 C 0.59302 0.19305 0.56517 0.0
H727 H 0.67247 0.26119 0.58142 0.0
H728 H 0.64871 0.23286 0.53154 0.0
H729 H 0.63733 0.24947 0.58989 0.0
H730 H 0.58662 0.20901 0.73317 0.0
H731 H 0.54497 0.20346 0.68521 0.0
H732 H 0.49903 0.74301 0.12167 0.0
H733 H 0.46247 0.69983 0.08312 0.0
H734 H 0.51912 0.67762 0.01064 0.0
H735 H 0.55567 0.72056 0.04932 0.0
H736 H 0.45519 0.68482 0.94649 0.0
H737 H 0.46351 0.60937 0.10206 0.0
H738 H 0.47988 0.64412 0.12697 0.0
H739 H 0.49441 0.63279 0.06172 0.0
C740 C 0.50371 0.72877 0.09888 0.0
C741 C 0.53031 0.73546 0.08779 0.0
C742 C 0.48278 0.70404 0.07692 0.0
C743 C 0.48802 0.68544 0.04403 0.0
C744 C 0.51452 0.69141 0.03693 0.0
H745 H 0.39392 0.56962 0.72527 0.0
H746 H 0.42719 0.60828 0.79252 0.0
C747 C 0.53545 0.71609 0.05902 0.0
C748 C 0.46619 0.66134 0.00981 0.0
H749 H 0.43783 0.59374 -0.00341 0.0
C750 C 0.4512 0.66487 0.95803 0.0
C751 C 0.46088 0.63531 0.02507 0.0
C752 C 0.47534 0.6301 0.08248 0.0
C753 C 0.43157 0.6432 0.91982 0.0
C754 C 0.42713 0.61733 0.93281 0.0
C755 C 0.44153 0.61365 -0.01399 0.0
C756 C 0.40745 0.59382 0.89203 0.0
C757 C 0.41564 0.6482 0.86619 0.0
C758 C 0.38586 0.57256 0.92589 0.0
C759 C 0.36705 0.55054 0.88762 0.0
C760 C 0.36944 0.54943 0.81479 0.0
C761 C 0.39148 0.57032 0.7812 0.0
C762 C 0.41032 0.59238 0.81948 0.0
H763 H 0.41642 0.6675 0.87559 0.0
H764 H 0.42402 0.64889 0.81354 0.0
H765 H 0.39449 0.63201 0.86627 0.0
H766 H 0.38349 0.57306 -0.01807 0.0
H767 H 0.35092 0.53417 0.91518 0.0
H768 H 0.76993 0.49812 0.10633 0.0
H769 H 0.77919 0.46392 0.06282 0.0
H770 H 0.86299 0.52189 0.05392 0.0
H771 H 0.85398 0.55622 0.09844 0.0
H772 H 0.80379 0.46389 0.93537 0.0
H773 H 0.86068 0.46013 0.16328 0.0
H774 H 0.84028 0.47546 0.16778 0.0
H775 H 0.87262 0.49276 0.12781 0.0
C776 C 0.79037 0.50359 0.09602 0.0
C777 C 0.81121 0.52991 0.10651 0.0
C778 C 0.7956 0.48402 0.07078 0.0
C779 C 0.82179 0.4903 0.05586 0.0
C780 C 0.84268 0.51651 0.06625 0.0
H781 H 0.88889 0.39351 0.91224 0.0
H782 H 0.88228 0.43099 0.94231 0.0
C783 C 0.83746 0.53613 0.09148 0.0
C784 C 0.82708 0.46952 0.02779 0.0
H785 H 0.85874 0.43486 0.06373 0.0
C786 C 0.81578 0.4575 0.96339 0.0
C787 C 0.84281 0.46133 0.06438 0.0
C788 C 0.85465 0.47289 0.13493 0.0
C789 C 0.81995 0.43759 0.93432 0.0
C790 C 0.83545 0.42919 0.97127 0.0
C791 C 0.84695 0.44141 0.03535 0.0
C792 C 0.83928 0.40712 0.94588 0.0
C793 C 0.80802 0.42598 0.86393 0.0
C794 C 0.81733 0.38135 0.93751 0.0
C795 C 0.82111 0.36003 0.92012 0.0
C796 C 0.84691 0.3641 0.91076 0.0
C797 C 0.86882 0.38998 0.9182 0.0
C798 C 0.86505 0.41131 0.93551 0.0
H799 H 0.80346 0.43954 0.83407 0.0
H800 H 0.82164 0.42182 0.83237 0.0
H801 H 0.78911 0.40693 0.87148 0.0
H802 H 0.79733 0.3775 0.94732 0.0
H803 H 0.80393 0.34019 0.91777 0.0
H804 H 0.50244 0.87783 0.14228 0.0
H805 H 0.46161 0.87178 0.19815 0.0
H806 H 0.44088 0.79206 0.25687 0.0
H807 H 0.482 0.79847 0.20391 0.0
H808 H 0.40873 0.83476 0.17286 0.0
H809 H 0.43681 0.82447 0.44237 0.0
H810 H 0.46041 0.83647 0.37125 0.0
H811 H 0.43775 0.80134 0.38126 0.0
C812 C 0.48898 0.85898 0.16665 0.0
C813 C 0.49508 0.83842 0.16717 0.0
C814 C 0.46576 0.85554 0.19861 0.0
C815 C 0.4484 0.8316 0.23253 0.0
C816 C 0.45418 0.81084 0.23195 0.0
H817 H 0.29288 0.76538 0.42137 0.0
H818 H 0.337 0.77465 0.38366 0.0
C819 C 0.47742 0.81431 0.20017 0.0
C820 C 0.42414 0.82825 0.26801 0.0
H821 H 0.39201 0.81432 0.42542 0.0
C822 C 0.40517 0.8305 0.22816 0.0
C823 C 0.41956 0.8227 0.34027 0.0
C824 C 0.43981 0.82134 0.38651 0.0
C825 C 0.38144 0.82673 0.25819 0.0
C826 C 0.37675 0.82093 0.33022 0.0
C827 C 0.39573 0.8188 0.37026 0.0
C828 C 0.35182 0.81641 0.36391 0.0
C829 C 0.36123 0.82833 0.21226 0.0
C830 C 0.34607 0.83712 0.3687 0.0
C831 C 0.32088 0.83189 0.39024 0.0
C832 C 0.30095 0.8058 0.40723 0.0
C833 C 0.30756 0.78557 0.40784 0.0
C834 C 0.33281 0.79084 0.38634 0.0
H835 H 0.3654 0.82755 0.15587 0.0
H836 H 0.34082 0.8118 0.22382 0.0
H837 H 0.3617 0.8474 0.2227 0.0
H838 H 0.36068 0.8571 0.35272 0.0
H839 H 0.3166 0.84804 0.38954 0.0
loop_
_geom_bond_atom_site_label_1
_geom_bond_atom_site_label_2
_geom_bond_distance
_geom_bond_site_symmetry_2
_ccdc_geom_bond_type
Zn0 O1 2.055 . S
Zn0 O8 2.046 . S
Zn0 N16 2.036 . S
Zn0 O28 2.053 . S
Zn0 O30 2.066 . S
O1 Zn0 2.055 . S
O1 C4 1.259 . S
C2 O30 1.256 . S
C2 O31 1.244 . S
Zn3 O5 2.046 . S
Zn3 O7 2.055 . S
Zn3 N9 2.036 . S
Zn3 O27 2.066 . S
Zn3 O31 2.053 . S
C4 O1 1.259 . S
C4 O5 1.254 . S
O5 Zn3 2.046 . S
O5 C4 1.254 . S
C6 O27 1.256 . S
C6 O28 1.244 . S
O7 Zn3 2.055 . S
O7 C29 1.259 . S
O8 Zn0 2.046 . S
O8 C29 1.254 . S
N9 Zn3 2.036 . S
N9 C10 1.298 . S
N9 N12 1.398 . S
C10 N9 1.298 . S
C10 N13 1.367 . S
C10 C23 1.481 . S
C11 N12 1.299 . S
C11 N13 1.379 . S
N12 N9 1.398 . S
N12 C11 1.299 . S
N13 C10 1.367 . S
N13 C11 1.379 . S
C14 N16 1.298 . S
C14 N18 1.367 . S
C14 C22 1.481 . S
C15 N17 1.299 . S
C15 N18 1.379 . S
N16 Zn0 2.036 . S
N16 C14 1.298 . S
N16 N17 1.398 . S
N17 C15 1.299 . S
N17 N16 1.398 . S
N18 C14 1.367 . S
N18 C15 1.379 . S
H19 C22 0.980 . S
H20 C22 0.981 . S
H21 C22 0.981 . S
C22 C14 1.481 . S
C22 H19 0.980 . S
C22 H20 0.981 . S
C22 H21 0.981 . S
C23 C10 1.481 . S
C23 H24 0.980 . S
C23 H25 0.981 . S
C23 H26 0.981 . S
H24 C23 0.980 . S
H25 C23 0.981 . S
H26 C23 0.981 . S
O27 Zn3 2.066 . S
O27 C6 1.256 . S
O28 Zn0 2.053 . S
O28 C6 1.244 . S
C29 O7 1.259 . S
C29 O8 1.254 . S
O30 Zn0 2.066 . S
O30 C2 1.256 . S
O31 C2 1.244 . S
O31 Zn3 2.053 . S
Zn32 O33 2.055 . S
Zn32 O40 2.046 . S
Zn32 N48 2.036 . S
Zn32 O60 2.053 . S
Zn32 O62 2.066 . S
O33 Zn32 2.055 . S
O33 C36 1.259 . S
C34 O62 1.256 . S
C34 O63 1.244 . S
Zn35 O37 2.046 . S
Zn35 O39 2.055 . S
Zn35 N41 2.036 . S
Zn35 O59 2.066 . S
Zn35 O63 2.053 . S
C36 O33 1.259 . S
C36 O37 1.254 . S
O37 Zn35 2.046 . S
O37 C36 1.254 . S
C38 O59 1.256 . S
C38 O60 1.244 . S
O39 Zn35 2.055 . S
O39 C61 1.259 . S
O40 Zn32 2.046 . S
O40 C61 1.254 . S
N41 Zn35 2.036 . S
N41 C42 1.298 . S
N41 N44 1.398 . S
C42 N41 1.298 . S
C42 N45 1.367 . S
C42 C55 1.481 . S
C43 N44 1.299 . S
C43 N45 1.379 . S
N44 N41 1.398 . S
N44 C43 1.299 . S
N45 C42 1.367 . S
N45 C43 1.379 . S
C46 N48 1.298 . S
C46 N50 1.367 . S
C46 C54 1.481 . S
C47 N49 1.299 . S
C47 N50 1.379 . S
N48 Zn32 2.036 . S
N48 C46 1.298 . S
N48 N49 1.398 . S
N49 C47 1.299 . S
N49 N48 1.398 . S
N50 C46 1.367 . S
N50 C47 1.379 . S
H51 C54 0.980 . S
H52 C54 0.981 . S
H53 C54 0.981 . S
C54 C46 1.481 . S
C54 H51 0.980 . S
C54 H52 0.981 . S
C54 H53 0.981 . S
C55 C42 1.481 . S
C55 H56 0.980 . S
C55 H57 0.981 . S
C55 H58 0.981 . S
H56 C55 0.980 . S
H57 C55 0.981 . S
H58 C55 0.981 . S
O59 Zn35 2.066 . S
O59 C38 1.256 . S
O60 Zn32 2.053 . S
O60 C38 1.244 . S
C61 O39 1.259 . S
C61 O40 1.254 . S
O62 Zn32 2.066 . S
O62 C34 1.256 . S
O63 C34 1.244 . S
O63 Zn35 2.053 . S
Zn64 O65 2.055 . S
Zn64 O72 2.046 . S
Zn64 N80 2.036 . S
Zn64 O92 2.053 . S
Zn64 O94 2.066 1_556 S
O65 Zn64 2.055 . S
O65 C68 1.259 . S
C66 O94 1.256 . S
C66 O95 1.244 . S
Zn67 O69 2.046 . S
Zn67 O71 2.055 . S
Zn67 N73 2.036 . S
Zn67 O91 2.066 . S
Zn67 O95 2.053 1_556 S
C68 O65 1.259 . S
C68 O69 1.254 . S
O69 Zn67 2.046 . S
O69 C68 1.254 . S
C70 O91 1.256 . S
C70 O92 1.244 . S
O71 Zn67 2.055 . S
O71 C93 1.259 . S
O72 Zn64 2.046 . S
O72 C93 1.254 . S
N73 Zn67 2.036 . S
N73 C74 1.298 . S
N73 N76 1.398 1_556 S
C74 N73 1.298 . S
C74 N77 1.367 . S
C74 C87 1.481 . S
C75 N76 1.299 . S
C75 N77 1.379 1_554 S
N76 N73 1.398 1_554 S
N76 C75 1.299 . S
N77 C74 1.367 . S
N77 C75 1.379 1_556 S
C78 N80 1.298 . S
C78 N82 1.367 . S
C78 C86 1.481 . S
C79 N81 1.299 . S
C79 N82 1.379 . S
N80 Zn64 2.036 . S
N80 C78 1.298 . S
N80 N81 1.398 . S
N81 C79 1.299 . S
N81 N80 1.398 . S
N82 C78 1.367 . S
N82 C79 1.379 . S
H83 C86 0.980 . S
H84 C86 0.981 . S
H85 C86 0.981 1_554 S
C86 C78 1.481 . S
C86 H83 0.980 . S
C86 H84 0.981 . S
C86 H85 0.981 1_556 S
C87 C74 1.481 . S
C87 H88 0.980 . S
C87 H89 0.981 . S
C87 H90 0.981 . S
H88 C87 0.980 . S
H89 C87 0.981 . S
H90 C87 0.981 . S
O91 Zn67 2.066 . S
O91 C70 1.256 . S
O92 Zn64 2.053 . S
O92 C70 1.244 . S
C93 O71 1.259 . S
C93 O72 1.254 . S
O94 Zn64 2.066 1_554 S
O94 C66 1.256 . S
O95 C66 1.244 . S
O95 Zn67 2.053 1_554 S
Zn96 O97 2.055 . S
Zn96 O104 2.046 1_554 S
Zn96 N112 2.036 . S
Zn96 O124 2.053 . S
Zn96 O126 2.066 . S
O97 Zn96 2.055 . S
O97 C100 1.259 . S
C98 O126 1.256 . S
C98 O127 1.244 . S
Zn99 O101 2.046 . S
Zn99 O103 2.055 1_554 S
Zn99 N105 2.036 . S
Zn99 O123 2.066 . S
Zn99 O127 2.053 . S
C100 O97 1.259 . S
C100 O101 1.254 . S
O101 Zn99 2.046 . S
O101 C100 1.254 . S
C102 O123 1.256 . S
C102 O124 1.244 . S
O103 Zn99 2.055 1_556 S
O103 C125 1.259 . S
O104 Zn96 2.046 1_556 S
O104 C125 1.254 . S
N105 Zn99 2.036 . S
N105 C106 1.298 . S
N105 N108 1.398 . S
C106 N105 1.298 . S
C106 N109 1.367 . S
C106 C119 1.481 1_554 S
C107 N108 1.299 . S
C107 N109 1.379 . S
N108 N105 1.398 . S
N108 C107 1.299 . S
N109 C106 1.367 . S
N109 C107 1.379 . S
C110 N112 1.298 . S
C110 N114 1.367 . S
C110 C118 1.481 . S
C111 N113 1.299 . S
C111 N114 1.379 . S
N112 Zn96 2.036 . S
N112 C110 1.298 . S
N112 N113 1.398 . S
N113 C111 1.299 . S
N113 N112 1.398 . S
N114 C110 1.367 . S
N114 C111 1.379 . S
H115 C118 0.980 . S
H116 C118 0.981 . S
H117 C118 0.981 . S
C118 C110 1.481 . S
C118 H115 0.980 . S
C118 H116 0.981 . S
C118 H117 0.981 . S
C119 C106 1.481 1_556 S
C119 H120 0.980 . S
C119 H121 0.981 . S
C119 H122 0.981 . S
H120 C119 0.980 . S
H121 C119 0.981 . S
H122 C119 0.981 . S
O123 Zn99 2.066 . S
O123 C102 1.256 . S
O124 Zn96 2.053 . S
O124 C102 1.244 . S
C125 O103 1.259 . S
C125 O104 1.254 . S
O126 Zn96 2.066 . S
O126 C98 1.256 . S
O127 C98 1.244 . S
O127 Zn99 2.053 . S
Zn128 O129 2.055 . S
Zn128 O136 2.046 . S
Zn128 N144 2.036 . S
Zn128 O156 2.053 . S
Zn128 O158 2.066 . S
O129 Zn128 2.055 . S
O129 C132 1.259 . S
C130 O158 1.256 . S
C130 O159 1.244 . S
Zn131 O133 2.046 . S
Zn131 O135 2.055 . S
Zn131 N137 2.036 . S
Zn131 O155 2.066 . S
Zn131 O159 2.053 . S
C132 O129 1.259 . S
C132 O133 1.254 . S
O133 Zn131 2.046 . S
O133 C132 1.254 . S
C134 O155 1.256 . S
C134 O156 1.244 . S
O135 Zn131 2.055 . S
O135 C157 1.259 . S
O136 Zn128 2.046 . S
O136 C157 1.254 . S
N137 Zn131 2.036 . S
N137 C138 1.298 . S
N137 N140 1.398 . S
C138 N137 1.298 . S
C138 N141 1.367 . S
C138 C151 1.481 . S
C139 N140 1.299 . S
C139 N141 1.379 . S
N140 N137 1.398 . S
N140 C139 1.299 . S
N141 C138 1.367 . S
N141 C139 1.379 . S
C142 N144 1.298 . S
C142 N146 1.367 . S
C142 C150 1.481 . S
C143 N145 1.299 . S
C143 N146 1.379 . S
N144 Zn128 2.036 . S
N144 C142 1.298 . S
N144 N145 1.398 . S
N145 C143 1.299 . S
N145 N144 1.398 . S
N146 C142 1.367 . S
N146 C143 1.379 . S
H147 C150 0.980 . S
H148 C150 0.981 . S
H149 C150 0.981 . S
C150 C142 1.481 . S
C150 H147 0.980 . S
C150 H148 0.981 . S
C150 H149 0.981 . S
C151 C138 1.481 . S
C151 H152 0.980 . S
C151 H153 0.981 . S
C151 H154 0.981 . S
H152 C151 0.980 . S
H153 C151 0.981 . S
H154 C151 0.981 . S
O155 Zn131 2.066 . S
O155 C134 1.256 . S
O156 Zn128 2.053 . S
O156 C134 1.244 . S
C157 O135 1.259 . S
C157 O136 1.254 . S
O158 Zn128 2.066 . S
O158 C130 1.256 . S
O159 C130 1.244 . S
O159 Zn131 2.053 . S
Zn160 O161 2.055 . S
Zn160 O168 2.046 . S
Zn160 N176 2.036 . S
Zn160 O188 2.053 . S
Zn160 O190 2.066 . S
O161 Zn160 2.055 . S
O161 C164 1.259 . S
C162 O190 1.256 . S
C162 O191 1.244 . S
Zn163 O165 2.046 . S
Zn163 O167 2.055 . S
Zn163 N169 2.036 . S
Zn163 O187 2.066 . S
Zn163 O191 2.053 . S
C164 O161 1.259 . S
C164 O165 1.254 . S
O165 Zn163 2.046 . S
O165 C164 1.254 . S
C166 O187 1.256 . S
C166 O188 1.244 . S
O167 Zn163 2.055 . S
O167 C189 1.259 . S
O168 Zn160 2.046 . S
O168 C189 1.254 . S
N169 Zn163 2.036 . S
N169 C170 1.298 . S
N169 N172 1.398 . S
C170 N169 1.298 . S
C170 N173 1.367 . S
C170 C183 1.481 . S
C171 N172 1.299 . S
C171 N173 1.379 . S
N172 N169 1.398 . S
N172 C171 1.299 . S
N173 C170 1.367 . S
N173 C171 1.379 . S
C174 N176 1.298 . S
C174 N178 1.367 . S
C174 C182 1.481 . S
C175 N177 1.299 . S
C175 N178 1.379 . S
N176 Zn160 2.036 . S
N176 C174 1.298 . S
N176 N177 1.398 . S
N177 C175 1.299 . S
N177 N176 1.398 . S
N178 C174 1.367 . S
N178 C175 1.379 . S
H179 C182 0.980 . S
H180 C182 0.981 . S
H181 C182 0.981 . S
C182 C174 1.481 . S
C182 H179 0.980 . S
C182 H180 0.981 . S
C182 H181 0.981 . S
C183 C170 1.481 . S
C183 H184 0.980 . S
C183 H185 0.981 . S
C183 H186 0.981 . S
H184 C183 0.980 . S
H185 C183 0.981 . S
H186 C183 0.981 . S
O187 Zn163 2.066 . S
O187 C166 1.256 . S
O188 Zn160 2.053 . S
O188 C166 1.244 . S
C189 O167 1.259 . S
C189 O168 1.254 . S
O190 Zn160 2.066 . S
O190 C162 1.256 . S
O191 C162 1.244 . S
O191 Zn163 2.053 . S
H192 C200 0.929 . S
H193 C202 0.930 . S
H194 C204 0.930 . S
H195 C207 0.929 . S
H196 C210 0.930 . S
H197 C212 0.960 . S
H198 C212 0.960 . S
H199 C212 0.960 . S
C200 H192 0.929 . S
C200 C201 1.377 . S
C200 C202 1.384 . S
C201 C200 1.377 . S
C201 C207 1.390 . S
C202 H193 0.930 . S
C202 C200 1.384 . S
C202 C203 1.372 . S
C203 C202 1.372 . S
C203 C204 1.400 . S
C203 C208 1.490 . S
C204 H194 0.930 . S
C204 C203 1.400 . S
C204 C207 1.386 . S
H205 C221 0.930 . S
H206 C222 0.931 . S
C207 H195 0.929 . S
C207 C201 1.390 . S
C207 C204 1.386 . S
C208 C203 1.490 . S
C208 C210 1.395 . S
C208 C211 1.403 . S
H209 C215 0.930 . S
C210 H196 0.930 . S
C210 C208 1.395 . S
C210 C213 1.403 . S
C211 C208 1.403 . S
C211 C212 1.524 . S
C211 C215 1.400 . S
C212 H197 0.960 . S
C212 H198 0.960 . S
C212 H199 0.960 . S
C212 C211 1.524 . S
C213 C210 1.403 . S
C213 C214 1.392 1_554 S
C213 C217 1.495 1_554 S
C214 C213 1.392 1_556 S
C214 C215 1.385 1_556 S
C214 C216 1.478 . S
C215 H209 0.930 . S
C215 C211 1.400 . S
C215 C214 1.385 1_554 S
C216 C214 1.478 . S
C216 C218 1.381 . S
C216 C222 1.383 . S
C217 C213 1.495 1_556 S
C217 H223 0.959 1_556 S
C217 H224 0.961 . S
C217 H225 0.960 . S
C218 C216 1.381 . S
C218 C219 1.394 . S
C218 H226 0.930 . S
C219 C218 1.394 . S
C219 C220 1.383 . S
C219 H227 0.929 . S
C220 C219 1.383 . S
C220 C221 1.377 . S
C221 H205 0.930 . S
C221 C220 1.377 . S
C221 C222 1.379 . S
C222 H206 0.931 . S
C222 C216 1.383 . S
C222 C221 1.379 . S
H223 C217 0.959 1_554 S
H224 C217 0.961 . S
H225 C217 0.960 . S
H226 C218 0.930 . S
H227 C219 0.929 . S
H228 C236 0.929 . S
H229 C238 0.930 . S
H230 C240 0.930 . S
H231 C243 0.929 . S
H232 C246 0.930 . S
H233 C248 0.960 . S
H234 C248 0.960 . S
H235 C248 0.960 . S
C236 H228 0.929 . S
C236 C237 1.377 . S
C236 C238 1.384 . S
C237 C236 1.377 . S
C237 C243 1.390 . S
C238 H229 0.930 . S
C238 C236 1.384 . S
C238 C239 1.372 . S
C239 C238 1.372 . S
C239 C240 1.400 . S
C239 C244 1.490 . S
C240 H230 0.930 . S
C240 C239 1.400 . S
C240 C243 1.386 . S
H241 C257 0.930 . S
H242 C258 0.931 . S
C243 H231 0.929 . S
C243 C237 1.390 . S
C243 C240 1.386 . S
C244 C239 1.490 . S
C244 C246 1.395 . S
C244 C247 1.403 . S
H245 C251 0.930 . S
C246 H232 0.930 . S
C246 C244 1.395 . S
C246 C249 1.403 . S
C247 C244 1.403 . S
C247 C248 1.524 . S
C247 C251 1.400 . S
C248 H233 0.960 . S
C248 H234 0.960 . S
C248 H235 0.960 . S
C248 C247 1.524 . S
C249 C246 1.403 . S
C249 C250 1.392 . S
C249 C253 1.495 . S
C250 C249 1.392 . S
C250 C251 1.385 . S
C250 C252 1.478 . S
C251 H245 0.930 . S
C251 C247 1.400 . S
C251 C250 1.385 . S
C252 C250 1.478 . S
C252 C254 1.381 . S
C252 C258 1.383 . S
C253 C249 1.495 . S
C253 H259 0.959 . S
C253 H260 0.961 . S
C253 H261 0.960 . S
C254 C252 1.381 . S
C254 C255 1.394 1_554 S
C254 H262 0.930 . S
C255 C254 1.394 1_556 S
C255 C256 1.383 . S
C255 H263 0.929 . S
C256 C255 1.383 . S
C256 C257 1.377 . S
C257 H241 0.930 . S
C257 C256 1.377 . S
C257 C258 1.379 1_556 S
C258 H242 0.931 . S
C258 C252 1.383 . S
C258 C257 1.379 1_554 S
H259 C253 0.959 . S
H260 C253 0.961 . S
H261 C253 0.960 . S
H262 C254 0.930 . S
H263 C255 0.929 . S
H264 C272 0.929 . S
H265 C274 0.930 . S
H266 C276 0.930 . S
H267 C279 0.929 . S
H268 C282 0.930 . S
H269 C284 0.960 . S
H270 C284 0.960 . S
H271 C284 0.960 . S
C272 H264 0.929 . S
C272 C273 1.377 . S
C272 C274 1.384 . S
C273 C272 1.377 . S
C273 C279 1.390 . S
C274 H265 0.930 . S
C274 C272 1.384 . S
C274 C275 1.372 . S
C275 C274 1.372 . S
C275 C276 1.400 . S
C275 C280 1.490 . S
C276 H266 0.930 . S
C276 C275 1.400 . S
C276 C279 1.386 . S
H277 C293 0.930 . S
H278 C294 0.931 . S
C279 H267 0.929 . S
C279 C273 1.390 . S
C279 C276 1.386 . S
C280 C275 1.490 . S
C280 C282 1.395 . S
C280 C283 1.403 . S
H281 C287 0.930 . S
C282 H268 0.930 . S
C282 C280 1.395 . S
C282 C285 1.403 . S
C283 C280 1.403 . S
C283 C284 1.524 . S
C283 C287 1.400 . S
C284 H269 0.960 . S
C284 H270 0.960 . S
C284 H271 0.960 . S
C284 C283 1.524 . S
C285 C282 1.403 . S
C285 C286 1.392 . S
C285 C289 1.495 . S
C286 C285 1.392 . S
C286 C287 1.385 . S
C286 C288 1.478 . S
C287 H281 0.930 . S
C287 C283 1.400 . S
C287 C286 1.385 . S
C288 C286 1.478 . S
C288 C290 1.381 . S
C288 C294 1.383 . S
C289 C285 1.495 . S
C289 H295 0.959 . S
C289 H296 0.961 . S
C289 H297 0.960 . S
C290 C288 1.381 . S
C290 C291 1.394 . S
C290 H298 0.930 . S
C291 C290 1.394 . S
C291 C292 1.383 . S
C291 H299 0.929 . S
C292 C291 1.383 . S
C292 C293 1.377 . S
C293 H277 0.930 . S
C293 C292 1.377 . S
C293 C294 1.379 . S
C294 H278 0.931 . S
C294 C288 1.383 . S
C294 C293 1.379 . S
H295 C289 0.959 . S
H296 C289 0.961 . S
H297 C289 0.960 . S
H298 C290 0.930 . S
H299 C291 0.929 . S
H300 C308 0.929 . S
H301 C310 0.930 . S
H302 C312 0.930 . S
H303 C315 0.929 . S
H304 C318 0.930 . S
H305 C320 0.960 . S
H306 C320 0.960 . S
H307 C320 0.960 . S
C308 H300 0.929 . S
C308 C309 1.377 . S
C308 C310 1.384 . S
C309 C308 1.377 . S
C309 C315 1.390 . S
C310 H301 0.930 . S
C310 C308 1.384 . S
C310 C311 1.372 . S
C311 C310 1.372 . S
C311 C312 1.400 . S
C311 C316 1.490 . S
C312 H302 0.930 . S
C312 C311 1.400 . S
C312 C315 1.386 . S
H313 C329 0.930 . S
H314 C330 0.931 . S
C315 H303 0.929 . S
C315 C309 1.390 . S
C315 C312 1.386 . S
C316 C311 1.490 . S
C316 C318 1.395 . S
C316 C319 1.403 . S
H317 C323 0.930 . S
C318 H304 0.930 . S
C318 C316 1.395 . S
C318 C321 1.403 . S
C319 C316 1.403 . S
C319 C320 1.524 . S
C319 C323 1.400 . S
C320 H305 0.960 . S
C320 H306 0.960 . S
C320 H307 0.960 . S
C320 C319 1.524 . S
C321 C318 1.403 . S
C321 C322 1.392 . S
C321 C325 1.495 . S
C322 C321 1.392 . S
C322 C323 1.385 . S
C322 C324 1.478 . S
C323 H317 0.930 . S
C323 C319 1.400 . S
C323 C322 1.385 . S
C324 C322 1.478 . S
C324 C326 1.381 . S
C324 C330 1.383 . S
C325 C321 1.495 . S
C325 H331 0.959 . S
C325 H332 0.961 . S
C325 H333 0.960 . S
C326 C324 1.381 . S
C326 C327 1.394 . S
C326 H334 0.930 . S
C327 C326 1.394 . S
C327 C328 1.383 . S
C327 H335 0.929 . S
C328 C327 1.383 . S
C328 C329 1.377 . S
C329 H313 0.930 . S
C329 C328 1.377 . S
C329 C330 1.379 . S
C330 H314 0.931 . S
C330 C324 1.383 . S
C330 C329 1.379 . S
H331 C325 0.959 . S
H332 C325 0.961 . S
H333 C325 0.960 . S
H334 C326 0.930 . S
H335 C327 0.929 . S
H336 C344 0.929 . S
H337 C346 0.930 . S
H338 C348 0.930 . S
H339 C351 0.929 . S
H340 C354 0.930 . S
H341 C356 0.960 . S
H342 C356 0.960 . S
H343 C356 0.960 . S
C344 H336 0.929 . S
C344 C345 1.377 . S
C344 C346 1.384 . S
C345 C344 1.377 . S
C345 C351 1.390 . S
C346 H337 0.930 . S
C346 C344 1.384 . S
C346 C347 1.372 . S
C347 C346 1.372 . S
C347 C348 1.400 . S
C347 C352 1.490 . S
C348 H338 0.930 . S
C348 C347 1.400 . S
C348 C351 1.386 . S
H349 C365 0.930 . S
H350 C366 0.931 . S
C351 H339 0.929 . S
C351 C345 1.390 . S
C351 C348 1.386 . S
C352 C347 1.490 . S
C352 C354 1.395 . S
C352 C355 1.403 . S
H353 C359 0.930 . S
C354 H340 0.930 . S
C354 C352 1.395 . S
C354 C357 1.403 . S
C355 C352 1.403 . S
C355 C356 1.524 . S
C355 C359 1.400 . S
C356 H341 0.960 . S
C356 H342 0.960 . S
C356 H343 0.960 . S
C356 C355 1.524 . S
C357 C354 1.403 . S
C357 C358 1.392 . S
C357 C361 1.495 . S
C358 C357 1.392 . S
C358 C359 1.385 . S
C358 C360 1.478 . S
C359 H353 0.930 . S
C359 C355 1.400 . S
C359 C358 1.385 . S
C360 C358 1.478 . S
C360 C362 1.381 . S
C360 C366 1.383 . S
C361 C357 1.495 . S
C361 H367 0.959 . S
C361 H368 0.961 . S
C361 H369 0.960 . S
C362 C360 1.381 . S
C362 C363 1.394 1_556 S
C362 H370 0.930 . S
C363 C362 1.394 1_554 S
C363 C364 1.383 . S
C363 H371 0.929 . S
C364 C363 1.383 . S
C364 C365 1.377 . S
C365 H349 0.930 . S
C365 C364 1.377 . S
C365 C366 1.379 1_554 S
C366 H350 0.931 . S
C366 C360 1.383 . S
C366 C365 1.379 1_556 S
H367 C361 0.959 . S
H368 C361 0.961 . S
H369 C361 0.960 . S
H370 C362 0.930 . S
H371 C363 0.929 . S
H372 C380 0.929 . S
H373 C382 0.930 . S
H374 C384 0.930 . S
H375 C387 0.929 . S
H376 C390 0.930 . S
H377 C392 0.960 . S
H378 C392 0.960 . S
H379 C392 0.960 . S
C380 H372 0.929 . S
C380 C381 1.377 . S
C380 C382 1.384 . S
C381 C380 1.377 . S
C381 C387 1.390 . S
C382 H373 0.930 . S
C382 C380 1.384 . S
C382 C383 1.372 . S
C383 C382 1.372 . S
C383 C384 1.400 . S
C383 C388 1.490 1_554 S
C384 H374 0.930 . S
C384 C383 1.400 . S
C384 C387 1.386 . S
H385 C401 0.930 . S
H386 C402 0.931 . S
C387 H375 0.929 . S
C387 C381 1.390 . S
C387 C384 1.386 . S
C388 C383 1.490 1_556 S
C388 C390 1.395 . S
C388 C391 1.403 . S
H389 C395 0.930 . S
C390 H376 0.930 . S
C390 C388 1.395 . S
C390 C393 1.403 . S
C391 C388 1.403 . S
C391 C392 1.524 . S
C391 C395 1.400 . S
C392 H377 0.960 . S
C392 H378 0.960 . S
C392 H379 0.960 . S
C392 C391 1.524 . S
C393 C390 1.403 . S
C393 C394 1.392 . S
C393 C397 1.495 . S
C394 C393 1.392 . S
C394 C395 1.385 . S
C394 C396 1.478 . S
C395 H389 0.930 . S
C395 C391 1.400 . S
C395 C394 1.385 . S
C396 C394 1.478 . S
C396 C398 1.381 . S
C396 C402 1.383 . S
C397 C393 1.495 . S
C397 H403 0.959 . S
C397 H404 0.961 . S
C397 H405 0.960 . S
C398 C396 1.381 . S
C398 C399 1.394 . S
C398 H406 0.930 . S
C399 C398 1.394 . S
C399 C400 1.383 . S
C399 H407 0.929 . S
C400 C399 1.383 . S
C400 C401 1.377 . S
C401 H385 0.930 . S
C401 C400 1.377 . S
C401 C402 1.379 . S
C402 H386 0.931 . S
C402 C396 1.383 . S
C402 C401 1.379 . S
H403 C397 0.959 . S
H404 C397 0.961 . S
H405 C397 0.960 . S
H406 C398 0.930 . S
H407 C399 0.929 . S
H408 C416 0.929 . S
H409 C418 0.930 . S
H410 C420 0.930 . S
H411 C423 0.929 . S
H412 C426 0.930 . S
H413 C428 0.960 . S
H414 C428 0.960 . S
H415 C428 0.960 . S
C416 H408 0.929 . S
C416 C417 1.377 . S
C416 C418 1.384 . S
C417 C416 1.377 . S
C417 C423 1.390 . S
C418 H409 0.930 . S
C418 C416 1.384 . S
C418 C419 1.372 . S
C419 C418 1.372 . S
C419 C420 1.400 . S
C419 C424 1.490 . S
C420 H410 0.930 . S
C420 C419 1.400 . S
C420 C423 1.386 . S
H421 C437 0.930 . S
H422 C438 0.931 . S
C423 H411 0.929 . S
C423 C417 1.390 . S
C423 C420 1.386 . S
C424 C419 1.490 . S
C424 C426 1.395 . S
C424 C427 1.403 . S
H425 C431 0.930 . S
C426 H412 0.930 . S
C426 C424 1.395 . S
C426 C429 1.403 . S
C427 C424 1.403 . S
C427 C428 1.524 . S
C427 C431 1.400 . S
C428 H413 0.960 . S
C428 H414 0.960 . S
C428 H415 0.960 . S
C428 C427 1.524 . S
C429 C426 1.403 . S
C429 C430 1.392 1_545 S
C429 C433 1.495 1_545 S
C430 C429 1.392 1_565 S
C430 C431 1.385 1_565 S
C430 C432 1.478 . S
C431 H425 0.930 . S
C431 C427 1.400 . S
C431 C430 1.385 1_545 S
C432 C430 1.478 . S
C432 C434 1.381 . S
C432 C438 1.383 . S
C433 C429 1.495 1_565 S
C433 H439 0.959 1_565 S
C433 H440 0.961 . S
C433 H441 0.960 . S
C434 C432 1.381 . S
C434 C435 1.394 . S
C434 H442 0.930 . S
C435 C434 1.394 . S
C435 C436 1.383 . S
C435 H443 0.929 . S
C436 C435 1.383 . S
C436 C437 1.377 . S
C437 H421 0.930 . S
C437 C436 1.377 . S
C437 C438 1.379 . S
C438 H422 0.931 . S
C438 C432 1.383 . S
C438 C437 1.379 . S
H439 C433 0.959 1_545 S
H440 C433 0.961 . S
H441 C433 0.960 . S
H442 C434 0.930 . S
H443 C435 0.929 . S
H444 C452 0.929 . S
H445 C454 0.930 . S
H446 C456 0.930 . S
H447 C459 0.929 . S
H448 C462 0.930 . S
H449 C464 0.960 . S
H450 C464 0.960 . S
H451 C464 0.960 . S
C452 H444 0.929 . S
C452 C453 1.377 . S
C452 C454 1.384 . S
C453 C452 1.377 . S
C453 C459 1.390 . S
C454 H445 0.930 . S
C454 C452 1.384 . S
C454 C455 1.372 . S
C455 C454 1.372 . S
C455 C456 1.400 . S
C455 C460 1.490 . S
C456 H446 0.930 . S
C456 C455 1.400 . S
C456 C459 1.386 . S
H457 C473 0.930 . S
H458 C474 0.931 . S
C459 H447 0.929 . S
C459 C453 1.390 . S
C459 C456 1.386 . S
C460 C455 1.490 . S
C460 C462 1.395 . S
C460 C463 1.403 . S
H461 C467 0.930 . S
C462 H448 0.930 . S
C462 C460 1.395 . S
C462 C465 1.403 . S
C463 C460 1.403 . S
C463 C464 1.524 . S
C463 C467 1.400 . S
C464 H449 0.960 . S
C464 H450 0.960 . S
C464 H451 0.960 . S
C464 C463 1.524 . S
C465 C462 1.403 . S
C465 C466 1.392 . S
C465 C469 1.495 . S
C466 C465 1.392 . S
C466 C467 1.385 . S
C466 C468 1.478 . S
C467 H461 0.930 . S
C467 C463 1.400 . S
C467 C466 1.385 . S
C468 C466 1.478 . S
C468 C470 1.381 . S
C468 C474 1.383 . S
C469 C465 1.495 . S
C469 H475 0.959 . S
C469 H476 0.961 . S
C469 H477 0.960 . S
C470 C468 1.381 . S
C470 C471 1.394 . S
C470 H478 0.930 . S
C471 C470 1.394 . S
C471 C472 1.383 . S
C471 H479 0.929 . S
C472 C471 1.383 . S
C472 C473 1.377 . S
C473 H457 0.930 . S
C473 C472 1.377 . S
C473 C474 1.379 . S
C474 H458 0.931 . S
C474 C468 1.383 . S
C474 C473 1.379 . S
H475 C469 0.959 . S
H476 C469 0.961 . S
H477 C469 0.960 . S
H478 C470 0.930 . S
H479 C471 0.929 . S
H480 C488 0.929 . S
H481 C490 0.930 . S
H482 C492 0.930 . S
H483 C495 0.929 . S
H484 C498 0.930 . S
H485 C500 0.960 1_554 S
H486 C500 0.960 . S
H487 C500 0.960 1_554 S
C488 H480 0.929 . S
C488 C489 1.377 . S
C488 C490 1.384 . S
C489 C488 1.377 . S
C489 C495 1.390 . S
C490 H481 0.930 . S
C490 C488 1.384 . S
C490 C491 1.372 . S
C491 C490 1.372 . S
C491 C492 1.400 . S
C491 C496 1.490 . S
C492 H482 0.930 . S
C492 C491 1.400 . S
C492 C495 1.386 . S
H493 C509 0.930 . S
H494 C510 0.931 . S
C495 H483 0.929 . S
C495 C489 1.390 . S
C495 C492 1.386 . S
C496 C491 1.490 . S
C496 C498 1.395 . S
C496 C499 1.403 . S
H497 C503 0.930 1_455 S
C498 H484 0.930 . S
C498 C496 1.395 . S
C498 C501 1.403 . S
C499 C496 1.403 . S
C499 C500 1.524 . S
C499 C503 1.400 . S
C500 H485 0.960 1_556 S
C500 H486 0.960 . S
C500 H487 0.960 1_556 S
C500 C499 1.524 . S
C501 C498 1.403 . S
C501 C502 1.399 . S
C501 C505 1.495 . S
C502 C501 1.399 . S
C502 C503 1.386 . S
C502 C504 1.470 1_655 S
C503 H497 0.930 1_655 S
C503 C499 1.400 . S
C503 C502 1.386 . S
C504 C502 1.470 1_455 S
C504 C506 1.381 . S
C504 C510 1.383 . S
C505 C501 1.495 . S
C505 H511 0.959 . S
C505 H512 0.961 . S
C505 H513 0.960 . S
C506 C504 1.381 . S
C506 C507 1.394 . S
C506 H514 0.930 . S
C507 C506 1.394 . S
C507 C508 1.383 . S
C507 H515 0.929 . S
C508 C507 1.383 . S
C508 C509 1.377 . S
C509 H493 0.930 . S
C509 C508 1.377 . S
C509 C510 1.379 . S
C510 H494 0.931 . S
C510 C504 1.383 . S
C510 C509 1.379 . S
H511 C505 0.959 . S
H512 C505 0.961 . S
H513 C505 0.960 . S
H514 C506 0.930 . S
H515 C507 0.929 . S
H516 C524 0.929 . S
H517 C526 0.930 . S
H518 C528 0.930 . S
H519 C531 0.929 . S
H520 C534 0.930 . S
H521 C536 0.960 . S
H522 C536 0.960 . S
H523 C536 0.960 . S
C524 H516 0.929 . S
C524 C525 1.377 . S
C524 C526 1.384 . S
C525 C524 1.377 . S
C525 C531 1.390 . S
C526 H517 0.930 . S
C526 C524 1.384 . S
C526 C527 1.372 . S
C527 C526 1.372 . S
C527 C528 1.400 . S
C527 C532 1.490 . S
C528 H518 0.930 . S
C528 C527 1.400 . S
C528 C531 1.386 . S
H529 C545 0.930 1_554 S
H530 C546 0.931 . S
C531 H519 0.929 . S
C531 C525 1.390 . S
C531 C528 1.386 . S
C532 C527 1.490 . S
C532 C534 1.395 . S
C532 C535 1.403 1_554 S
H533 C539 0.930 . S
C534 H520 0.930 . S
C534 C532 1.395 . S
C534 C537 1.403 . S
C535 C532 1.403 1_556 S
C535 C536 1.524 . S
C535 C539 1.400 . S
C536 H521 0.960 . S
C536 H522 0.960 . S
C536 H523 0.960 . S
C536 C535 1.524 . S
C537 C534 1.403 . S
C537 C538 1.392 1_565 S
C537 C541 1.495 1_565 S
C538 C537 1.392 1_545 S
C538 C539 1.385 1_544 S
C538 C540 1.478 1_554 S
C539 H533 0.930 . S
C539 C535 1.400 . S
C539 C538 1.385 1_566 S
C540 C538 1.478 1_556 S
C540 C542 1.381 . S
C540 C546 1.383 1_556 S
C541 C537 1.495 1_545 S
C541 H547 0.959 1_545 S
C541 H548 0.961 . S
C541 H549 0.960 . S
C542 C540 1.381 . S
C542 C543 1.394 . S
C542 H550 0.930 . S
C543 C542 1.394 . S
C543 C544 1.383 . S
C543 H551 0.929 . S
C544 C543 1.383 . S
C544 C545 1.377 . S
C545 H529 0.930 1_556 S
C545 C544 1.377 . S
C545 C546 1.379 1_556 S
C546 H530 0.931 . S
C546 C540 1.383 1_554 S
C546 C545 1.379 1_554 S
H547 C541 0.959 1_565 S
H548 C541 0.961 . S
H549 C541 0.960 . S
H550 C542 0.930 . S
H551 C543 0.929 . S
H552 C560 0.929 . S
H553 C562 0.930 . S
H554 C564 0.930 . S
H555 C567 0.929 . S
H556 C570 0.930 . S
H557 C572 0.960 . S
H558 C572 0.960 . S
H559 C572 0.960 . S
C560 H552 0.929 . S
C560 C561 1.377 . S
C560 C562 1.384 . S
C561 C560 1.377 . S
C561 C567 1.390 . S
C562 H553 0.930 . S
C562 C560 1.384 . S
C562 C563 1.372 . S
C563 C562 1.372 . S
C563 C564 1.400 . S
C563 C568 1.490 . S
C564 H554 0.930 . S
C564 C563 1.400 . S
C564 C567 1.386 . S
H565 C581 0.930 . S
H566 C582 0.931 . S
C567 H555 0.929 . S
C567 C561 1.390 . S
C567 C564 1.386 . S
C568 C563 1.490 . S
C568 C570 1.395 . S
C568 C571 1.403 . S
H569 C575 0.930 . S
C570 H556 0.930 . S
C570 C568 1.395 . S
C570 C573 1.403 . S
C571 C568 1.403 . S
C571 C572 1.524 . S
C571 C575 1.400 . S
C572 H557 0.960 . S
C572 H558 0.960 . S
C572 H559 0.960 . S
C572 C571 1.524 . S
C573 C570 1.403 . S
C573 C574 1.392 . S
C573 C577 1.495 . S
C574 C573 1.392 . S
C574 C575 1.385 . S
C574 C576 1.478 . S
C575 H569 0.930 . S
C575 C571 1.400 . S
C575 C574 1.385 . S
C576 C574 1.478 . S
C576 C578 1.381 . S
C576 C582 1.383 . S
C577 C573 1.495 . S
C577 H583 0.959 . S
C577 H584 0.961 . S
C577 H585 0.960 . S
C578 C576 1.381 . S
C578 C579 1.394 . S
C578 H586 0.930 . S
C579 C578 1.394 . S
C579 C580 1.383 . S
C579 H587 0.929 . S
C580 C579 1.383 . S
C580 C581 1.377 . S
C581 H565 0.930 . S
C581 C580 1.377 . S
C581 C582 1.379 . S
C582 H566 0.931 . S
C582 C576 1.383 . S
C582 C581 1.379 . S
H583 C577 0.959 . S
H584 C577 0.961 . S
H585 C577 0.960 . S
H586 C578 0.930 . S
H587 C579 0.929 . S
H588 C596 0.929 . S
H589 C598 0.930 . S
H590 C600 0.930 . S
H591 C603 0.929 . S
H592 C606 0.930 . S
H593 C608 0.960 1_455 S
H594 C608 0.960 . S
H595 C608 0.960 . S
C596 H588 0.929 . S
C596 C597 1.377 . S
C596 C598 1.384 . S
C597 C596 1.377 . S
C597 C603 1.390 . S
C598 H589 0.930 . S
C598 C596 1.384 . S
C598 C599 1.372 . S
C599 C598 1.372 . S
C599 C600 1.400 . S
C599 C604 1.503 . S
C600 H590 0.930 . S
C600 C599 1.400 . S
C600 C603 1.386 . S
H601 C617 0.930 . S
H602 C618 0.931 . S
C603 H591 0.929 . S
C603 C597 1.390 . S
C603 C600 1.386 . S
C604 C599 1.503 . S
C604 C606 1.383 1_655 S
C604 C607 1.401 1_655 S
H605 C611 0.930 . S
C606 H592 0.930 . S
C606 C604 1.383 1_455 S
C606 C609 1.403 . S
C607 C604 1.401 1_455 S
C607 C608 1.524 1_455 S
C607 C611 1.400 . S
C608 H593 0.960 1_655 S
C608 H594 0.960 . S
C608 H595 0.960 . S
C608 C607 1.524 1_655 S
C609 C606 1.403 . S
C609 C610 1.392 . S
C609 C613 1.495 . S
C610 C609 1.392 . S
C610 C611 1.385 . S
C610 C612 1.478 . S
C611 H605 0.930 . S
C611 C607 1.400 . S
C611 C610 1.385 . S
C612 C610 1.478 . S
C612 C614 1.381 . S
C612 C618 1.383 . S
C613 C609 1.495 . S
C613 H619 0.959 . S
C613 H620 0.961 . S
C613 H621 0.960 . S
C614 C612 1.381 . S
C614 C615 1.394 . S
C614 H622 0.930 . S
C615 C614 1.394 . S
C615 C616 1.383 . S
C615 H623 0.929 . S
C616 C615 1.383 . S
C616 C617 1.377 . S
C617 H601 0.930 . S
C617 C616 1.377 . S
C617 C618 1.379 . S
C618 H602 0.931 . S
C618 C612 1.383 . S
C618 C617 1.379 . S
H619 C613 0.959 . S
H620 C613 0.961 . S
H621 C613 0.960 . S
H622 C614 0.930 . S
H623 C615 0.929 . S
H624 C632 0.929 . S
H625 C634 0.930 . S
H626 C636 0.930 . S
H627 C639 0.929 . S
H628 C642 0.930 . S
H629 C644 0.960 . S
H630 C644 0.960 . S
H631 C644 0.960 . S
C632 H624 0.929 . S
C632 C633 1.377 . S
C632 C634 1.384 . S
C633 C632 1.377 . S
C633 C639 1.390 . S
C634 H625 0.930 . S
C634 C632 1.384 . S
C634 C635 1.372 . S
C635 C634 1.372 . S
C635 C636 1.400 . S
C635 C640 1.490 . S
C636 H626 0.930 . S
C636 C635 1.400 . S
C636 C639 1.386 . S
H637 C653 0.930 . S
H638 C654 0.931 . S
C639 H627 0.929 . S
C639 C633 1.390 . S
C639 C636 1.386 . S
C640 C635 1.490 . S
C640 C642 1.395 . S
C640 C643 1.403 . S
H641 C647 0.930 . S
C642 H628 0.930 . S
C642 C640 1.395 . S
C642 C645 1.403 . S
C643 C640 1.403 . S
C643 C644 1.524 . S
C643 C647 1.400 . S
C644 H629 0.960 . S
C644 H630 0.960 . S
C644 H631 0.960 . S
C644 C643 1.524 . S
C645 C642 1.403 . S
C645 C646 1.392 . S
C645 C649 1.495 . S
C646 C645 1.392 . S
C646 C647 1.385 . S
C646 C648 1.478 . S
C647 H641 0.930 . S
C647 C643 1.400 . S
C647 C646 1.385 . S
C648 C646 1.478 . S
C648 C650 1.381 . S
C648 C654 1.383 . S
C649 C645 1.495 . S
C649 H655 0.959 . S
C649 H656 0.961 . S
C649 H657 0.960 . S
C650 C648 1.381 . S
C650 C651 1.394 . S
C650 H658 0.930 . S
C651 C650 1.394 . S
C651 C652 1.383 . S
C651 H659 0.929 . S
C652 C651 1.383 . S
C652 C653 1.377 . S
C653 H637 0.930 . S
C653 C652 1.377 . S
C653 C654 1.379 . S
C654 H638 0.931 . S
C654 C648 1.383 . S
C654 C653 1.379 . S
H655 C649 0.959 . S
H656 C649 0.961 . S
H657 C649 0.960 . S
H658 C650 0.930 . S
H659 C651 0.929 . S
H660 C668 0.929 . S
H661 C670 0.930 . S
H662 C672 0.930 . S
H663 C675 0.929 . S
H664 C678 0.930 . S
H665 C680 0.960 . S
H666 C680 0.960 . S
H667 C680 0.960 . S
C668 H660 0.929 . S
C668 C669 1.377 . S
C668 C670 1.384 . S
C669 C668 1.377 . S
C669 C675 1.390 . S
C670 H661 0.930 . S
C670 C668 1.384 . S
C670 C671 1.372 . S
C671 C670 1.372 . S
C671 C672 1.400 . S
C671 C676 1.490 . S
C672 H662 0.930 . S
C672 C671 1.400 . S
C672 C675 1.386 . S
H673 C689 0.930 . S
H674 C690 0.931 . S
C675 H663 0.929 . S
C675 C669 1.390 . S
C675 C672 1.386 . S
C676 C671 1.490 . S
C676 C678 1.395 . S
C676 C679 1.403 . S
H677 C683 0.930 . S
C678 H664 0.930 . S
C678 C676 1.395 . S
C678 C681 1.403 . S
C679 C676 1.403 . S
C679 C680 1.524 . S
C679 C683 1.400 . S
C680 H665 0.960 . S
C680 H666 0.960 . S
C680 H667 0.960 . S
C680 C679 1.524 . S
C681 C678 1.403 . S
C681 C682 1.392 . S
C681 C685 1.495 . S
C682 C681 1.392 . S
C682 C683 1.385 . S
C682 C684 1.478 . S
C683 H677 0.930 . S
C683 C679 1.400 . S
C683 C682 1.385 . S
C684 C682 1.478 . S
C684 C686 1.381 . S
C684 C690 1.383 . S
C685 C681 1.495 . S
C685 H691 0.959 . S
C685 H692 0.961 . S
C685 H693 0.960 . S
C686 C684 1.381 . S
C686 C687 1.394 . S
C686 H694 0.930 . S
C687 C686 1.394 . S
C687 C688 1.383 . S
C687 H695 0.929 . S
C688 C687 1.383 . S
C688 C689 1.377 . S
C689 H673 0.930 . S
C689 C688 1.377 . S
C689 C690 1.379 . S
C690 H674 0.931 . S
C690 C684 1.383 . S
C690 C689 1.379 . S
H691 C685 0.959 . S
H692 C685 0.961 . S
H693 C685 0.960 . S
H694 C686 0.930 . S
H695 C687 0.929 . S
H696 C704 0.929 . S
H697 C706 0.930 . S
H698 C708 0.930 . S
H699 C711 0.929 . S
H700 C714 0.930 . S
H701 C716 0.960 . S
H702 C716 0.960 . S
H703 C716 0.960 . S
C704 H696 0.929 . S
C704 C705 1.377 . S
C704 C706 1.384 . S
C705 C704 1.377 . S
C705 C711 1.390 . S
C706 H697 0.930 . S
C706 C704 1.384 . S
C706 C707 1.372 . S
C707 C706 1.372 . S
C707 C708 1.400 . S
C707 C712 1.490 . S
C708 H698 0.930 . S
C708 C707 1.400 . S
C708 C711 1.386 . S
H709 C725 0.930 . S
H710 C726 0.931 . S
C711 H699 0.929 . S
C711 C705 1.390 . S
C711 C708 1.386 . S
C712 C707 1.490 . S
C712 C714 1.395 . S
C712 C715 1.403 . S
H713 C719 0.930 . S
C714 H700 0.930 . S
C714 C712 1.395 . S
C714 C717 1.403 . S
C715 C712 1.403 . S
C715 C716 1.524 . S
C715 C719 1.400 . S
C716 H701 0.960 . S
C716 H702 0.960 . S
C716 H703 0.960 . S
C716 C715 1.524 . S
C717 C714 1.403 . S
C717 C718 1.392 . S
C717 C721 1.495 . S
C718 C717 1.392 . S
C718 C719 1.385 . S
C718 C720 1.478 . S
C719 H713 0.930 . S
C719 C715 1.400 . S
C719 C718 1.385 . S
C720 C718 1.478 . S
C720 C722 1.381 . S
C720 C726 1.383 . S
C721 C717 1.495 . S
C721 H727 0.959 . S
C721 H728 0.961 . S
C721 H729 0.960 . S
C722 C720 1.381 . S
C722 C723 1.394 . S
C722 H730 0.930 . S
C723 C722 1.394 . S
C723 C724 1.383 . S
C723 H731 0.929 . S
C724 C723 1.383 . S
C724 C725 1.377 . S
C725 H709 0.930 . S
C725 C724 1.377 . S
C725 C726 1.379 . S
C726 H710 0.931 . S
C726 C720 1.383 . S
C726 C725 1.379 . S
H727 C721 0.959 . S
H728 C721 0.961 . S
H729 C721 0.960 . S
H730 C722 0.930 . S
H731 C723 0.929 . S
H732 C740 0.929 . S
H733 C742 0.930 . S
H734 C744 0.930 . S
H735 C747 0.929 . S
H736 C750 0.930 . S
H737 C752 0.960 . S
H738 C752 0.960 1_554 S
H739 C752 0.960 . S
C740 H732 0.929 . S
C740 C741 1.377 . S
C740 C742 1.384 . S
C741 C740 1.377 . S
C741 C747 1.390 1_554 S
C742 H733 0.930 . S
C742 C740 1.384 . S
C742 C743 1.372 1_554 S
C743 C742 1.372 1_556 S
C743 C744 1.400 . S
C743 C748 1.490 . S
C744 H734 0.930 . S
C744 C743 1.400 . S
C744 C747 1.386 . S
H745 C761 0.930 . S
H746 C762 0.931 . S
C747 H735 0.929 . S
C747 C741 1.390 1_556 S
C747 C744 1.386 . S
C748 C743 1.490 . S
C748 C750 1.395 . S
C748 C751 1.403 . S
H749 C755 0.930 . S
C750 H736 0.930 . S
C750 C748 1.395 . S
C750 C753 1.403 . S
C751 C748 1.403 . S
C751 C752 1.524 . S
C751 C755 1.400 . S
C752 H737 0.960 . S
C752 H738 0.960 1_556 S
C752 H739 0.960 . S
C752 C751 1.524 . S
C753 C750 1.403 . S
C753 C754 1.392 . S
C753 C757 1.495 . S
C754 C753 1.392 . S
C754 C755 1.385 . S
C754 C756 1.478 . S
C755 H749 0.930 . S
C755 C751 1.400 . S
C755 C754 1.385 . S
C756 C754 1.478 . S
C756 C758 1.381 . S
C756 C762 1.383 . S
C757 C753 1.495 . S
C757 H763 0.959 . S
C757 H764 0.961 . S
C757 H765 0.960 . S
C758 C756 1.381 . S
C758 C759 1.394 . S
C758 H766 0.930 . S
C759 C758 1.394 . S
C759 C760 1.383 . S
C759 H767 0.929 . S
C760 C759 1.383 . S
C760 C761 1.377 . S
C761 H745 0.930 . S
C761 C760 1.377 . S
C761 C762 1.379 . S
C762 H746 0.931 . S
C762 C756 1.383 . S
C762 C761 1.379 . S
H763 C757 0.959 . S
H764 C757 0.961 . S
H765 C757 0.960 . S
H766 C758 0.930 . S
H767 C759 0.929 . S
H768 C776 0.929 . S
H769 C778 0.930 . S
H770 C780 0.930 . S
H771 C783 0.929 . S
H772 C786 0.930 . S
H773 C788 0.960 . S
H774 C788 0.960 . S
H775 C788 0.960 . S
C776 H768 0.929 . S
C776 C777 1.377 . S
C776 C778 1.384 . S
C777 C776 1.377 . S
C777 C783 1.390 . S
C778 H769 0.930 . S
C778 C776 1.384 . S
C778 C779 1.372 . S
C779 C778 1.372 . S
C779 C780 1.400 . S
C779 C784 1.490 . S
C780 H770 0.930 . S
C780 C779 1.400 . S
C780 C783 1.386 . S
H781 C797 0.930 . S
H782 C798 0.931 . S
C783 H771 0.929 . S
C783 C777 1.390 . S
C783 C780 1.386 . S
C784 C779 1.490 . S
C784 C786 1.395 . S
C784 C787 1.403 . S
H785 C791 0.930 . S
C786 H772 0.930 . S
C786 C784 1.395 . S
C786 C789 1.403 . S
C787 C784 1.403 . S
C787 C788 1.524 . S
C787 C791 1.400 . S
C788 H773 0.960 . S
C788 H774 0.960 . S
C788 H775 0.960 . S
C788 C787 1.524 . S
C789 C786 1.403 . S
C789 C790 1.392 . S
C789 C793 1.495 1_554 S
C790 C789 1.392 . S
C790 C791 1.385 . S
C790 C792 1.478 . S
C791 H785 0.930 . S
C791 C787 1.400 . S
C791 C790 1.385 . S
C792 C790 1.478 . S
C792 C794 1.381 . S
C792 C798 1.383 1_554 S
C793 C789 1.495 1_556 S
C793 H799 0.959 . S
C793 H800 0.961 . S
C793 H801 0.960 . S
C794 C792 1.381 . S
C794 C795 1.394 1_554 S
C794 H802 0.930 . S
C795 C794 1.394 1_556 S
C795 C796 1.383 . S
C795 H803 0.929 1_556 S
C796 C795 1.383 . S
C796 C797 1.377 . S
C797 H781 0.930 . S
C797 C796 1.377 . S
C797 C798 1.379 . S
C798 H782 0.931 . S
C798 C792 1.383 1_556 S
C798 C797 1.379 . S
H799 C793 0.959 . S
H800 C793 0.961 . S
H801 C793 0.960 . S
H802 C794 0.930 . S
H803 C795 0.929 1_554 S
H804 C812 0.929 . S
H805 C814 0.930 . S
H806 C816 0.930 . S
H807 C819 0.929 . S
H808 C822 0.930 . S
H809 C824 0.960 . S
H810 C824 0.960 . S
H811 C824 0.960 . S
C812 H804 0.929 . S
C812 C813 1.377 . S
C812 C814 1.384 . S
C813 C812 1.377 . S
C813 C819 1.390 . S
C814 H805 0.930 . S
C814 C812 1.384 . S
C814 C815 1.372 . S
C815 C814 1.372 . S
C815 C816 1.400 . S
C815 C820 1.490 . S
C816 H806 0.930 . S
C816 C815 1.400 . S
C816 C819 1.386 . S
H817 C833 0.930 . S
H818 C834 0.931 . S
C819 H807 0.929 . S
C819 C813 1.390 . S
C819 C816 1.386 . S
C820 C815 1.490 . S
C820 C822 1.395 . S
C820 C823 1.403 . S
H821 C827 0.930 . S
C822 H808 0.930 . S
C822 C820 1.395 . S
C822 C825 1.403 . S
C823 C820 1.403 . S
C823 C824 1.524 . S
C823 C827 1.400 . S
C824 H809 0.960 . S
C824 H810 0.960 . S
C824 H811 0.960 . S
C824 C823 1.524 . S
C825 C822 1.403 . S
C825 C826 1.392 . S
C825 C829 1.495 . S
C826 C825 1.392 . S
C826 C827 1.385 . S
C826 C828 1.478 . S
C827 H821 0.930 . S
C827 C823 1.400 . S
C827 C826 1.385 . S
C828 C826 1.478 . S
C828 C830 1.381 . S
C828 C834 1.383 . S
C829 C825 1.495 . S
C829 H835 0.959 . S
C829 H836 0.961 . S
C829 H837 0.960 . S
C830 C828 1.381 . S
C830 C831 1.394 . S
C830 H838 0.930 . S
C831 C830 1.394 . S
C831 C832 1.383 . S
C831 H839 0.929 . S
C832 C831 1.383 . S
C832 C833 1.377 . S
C833 H817 0.930 . S
C833 C832 1.377 . S
C833 C834 1.379 . S
C834 H818 0.931 . S
C834 C828 1.383 . S
C834 C833 1.379 . S
H835 C829 0.959 . S
H836 C829 0.961 . S
H837 C829 0.960 . S
H838 C830 0.930 . S
H839 C831 0.929 . S
C201 C29 0.863 . S
C220 C2 0.852 . S
C237 C61 0.865 . S
C256 C34 0.862 . S
C273 C66 0.865 . S
C292 C93 0.872 . S
C309 C98 0.861 . S
C328 C125 0.878 . S
C345 C134 0.859 . S
C364 C132 0.853 . S
C381 C189 0.861 . S
C400 C162 0.876 . S
C417 C4 1.456 . S
C436 N178 1.420 . S
C453 N18 1.440 . S
C472 C36 1.440 . S
C489 C68 1.464 . S
C508 N50 1.421 . S
C525 C100 1.455 . S
C544 N82 1.428 . S
C561 C157 1.455 . S
C580 N114 1.426 . S
C597 N141 1.445 . S
C616 C164 1.430 . S
C633 C6 1.922 . S
C652 N146 1.847 . S
C669 C38 1.924 . S
C688 N173 1.804 . S
C705 C70 1.922 . S
C724 N13 1.847 . S
C741 C102 1.926 . S
C760 N45 1.844 . S
C777 C130 1.926 . S
C796 N77 1.849 . S
C813 N109 1.829 . S
C832 C166 1.912 . S
