# Generated by pormake.
# Topology qtz-e, (6)-cn, num edge types: 1
# Building blocks:
#     Node 0, Type 0, BuildingBlock: CUWYAW_clean_sbu_0, # of connection points: 6
#     Node 1, Type 0, BuildingBlock: CUWYAW_clean_sbu_0, # of connection points: 6
#     Node 2, Type 0, BuildingBlock: CUWYAW_clean_sbu_0, # of connection points: 6
#     Node 3, Type 0, BuildingBlock: CUWYAW_clean_sbu_0, # of connection points: 6
#     Node 4, Type 0, BuildingBlock: CUWYAW_clean_sbu_0, # of connection points: 6
#     Node 5, Type 0, BuildingBlock: CUWYAW_clean_sbu_0, # of connection points: 6
#     Edge 6, Type (0, 0), BuildingBlock: KIFKEQ_clean_linker_1, # of connection points: 2
#     Edge 7, Type (0, 0), BuildingBlock: KIFKEQ_clean_linker_1, # of connection points: 2
#     Edge 8, Type (0, 0), BuildingBlock: KIFKEQ_clean_linker_1, # of connection points: 2
#     Edge 9, Type (0, 0), BuildingBlock: KIFKEQ_clean_linker_1, # of connection points: 2
#     Edge 10, Type (0, 0), BuildingBlock: KIFKEQ_clean_linker_1, # of connection points: 2
#     Edge 11, Type (0, 0), BuildingBlock: KIFKEQ_clean_linker_1, # of connection points: 2
#     Edge 12, Type (0, 0), BuildingBlock: KIFKEQ_clean_linker_1, # of connection points: 2
#     Edge 13, Type (0, 0), BuildingBlock: KIFKEQ_clean_linker_1, # of connection points: 2
#     Edge 14, Type (0, 0), BuildingBlock: KIFKEQ_clean_linker_1, # of connection points: 2
#     Edge 15, Type (0, 0), BuildingBlock: KIFKEQ_clean_linker_1, # of connection points: 2
#     Edge 16, Type (0, 0), BuildingBlock: KIFKEQ_clean_linker_1, # of connection points: 2
#     Edge 17, Type (0, 0), BuildingBlock: KIFKEQ_clean_linker_1, # of connection points: 2
#     Edge 18, Type (0, 0), BuildingBlock: KIFKEQ_clean_linker_1, # of connection points: 2
#     Edge 19, Type (0, 0), BuildingBlock: KIFKEQ_clean_linker_1, # of connection points: 2
#     Edge 20, Type (0, 0), BuildingBlock: KIFKEQ_clean_linker_1, # of connection points: 2
#     Edge 21, Type (0, 0), BuildingBlock: KIFKEQ_clean_linker_1, # of connection points: 2
#     Edge 22, Type (0, 0), BuildingBlock: KIFKEQ_clean_linker_1, # of connection points: 2
#     Edge 23, Type (0, 0), BuildingBlock: KIFKEQ_clean_linker_1, # of connection points: 2
# Relax obj value: 0.136
# Max RMSD: 0.205
# Mean RMSD: 0.205
data_MOF--net-qtz-e--node1-CUWYAW_clean_sbu_0--edge1-KIFKEQ_clean_linker_1
_symmetry_space_group_name_H-M    P1
_symmetry_Int_Tables_number       1
_symmetry_cell_setting            triclinic
loop_
_symmetry_equiv_pos_as_xyz
'x, y, z'
_cell_length_a     25.8009
_cell_length_b     26.0084
_cell_length_c     52.471815
_cell_angle_alpha  89.428673
_cell_angle_beta   90.142201
_cell_angle_gamma 120.36007
loop_
_atom_site_label
_atom_site_type_symbol
_atom_site_fract_x
_atom_site_fract_y
_atom_site_fract_z
_atom_type_partial_charge
C0 C 0.12217 0.25417 1.01326 0.0
Eu1 Eu 0.15008 0.34959 0.03922 0.0
C2 C 0.14513 0.24291 0.98945 0.0
C3 C 0.10587 0.19676 0.97338 0.0
C4 C 0.12554 0.1891 0.94961 0.0
C5 C 0.18491 0.22782 0.94129 0.0
C6 C 0.22443 0.27339 0.95777 0.0
C7 C 0.20478 0.28072 0.9816 0.0
C8 C 0.08987 0.40976 0.03952 0.0
C9 C 0.24399 0.46431 1.00419 0.0
C10 C 0.24716 0.58068 0.08021 0.0
Eu11 Eu 0.2135 0.47545 0.0629 0.0
C12 C 0.25411 0.60494 0.10613 0.0
C13 C 0.28559 0.59358 0.12515 0.0
C14 C 0.28621 0.61163 0.15024 0.0
C15 C 0.2548 0.64079 0.15693 0.0
C16 C 0.22417 0.65284 0.13767 0.0
C17 C 0.22405 0.63531 0.11257 0.0
C18 C 0.26098 0.40659 0.07567 0.0
C19 C 0.12259 0.3614 0.09728 0.0
O20 O 0.15796 0.27091 0.03309 0.0
O21 O 0.09502 0.28486 1.01049 0.0
O22 O 0.06358 0.35321 0.04502 0.0
O23 O 0.14386 0.42962 0.03456 0.0
O24 O 0.21104 0.40572 1.00687 0.0
O25 O 0.25041 0.50118 0.02277 0.0
O26 O 0.1916 0.54272 0.07366 0.0
O27 O 0.28542 0.56432 0.07299 0.0
O28 O 0.25773 0.44365 0.09099 0.0
O29 O 0.2415 0.4099 0.05406 0.0
O30 O 0.14107 0.41793 0.09168 0.0
O31 O 0.12897 0.32643 0.08095 0.0
H32 H 0.0596 0.16717 0.97904 0.0
H33 H 0.09405 0.15288 0.93772 0.0
H34 H 0.27017 0.30464 0.952 0.0
H35 H 0.23589 0.31686 0.99363 0.0
H36 H 0.30873 0.56969 0.1208 0.0
H37 H 0.31101 0.60233 0.16443 0.0
H38 H 0.19856 0.67418 0.14208 0.0
H39 H 0.19882 0.64385 0.09829 0.0
C40 C 0.90689 0.16565 0.35379 0.0
Eu41 Eu 0.82409 0.18003 0.37473 0.0
C42 C 0.92842 0.17842 0.3271 0.0
C43 C 0.88975 0.17587 0.30759 0.0
C44 C 0.91076 0.19264 0.28262 0.0
C45 C 0.97118 0.21302 0.27656 0.0
C46 C 0.00992 0.21553 0.29611 0.0
C47 C -0.01133 0.1983 0.32115 0.0
C48 C 0.7069 0.11647 0.36059 0.0
C49 C 0.79536 0.26668 0.34285 0.0
C50 C 0.65483 0.23092 0.41746 0.0
Eu51 Eu 0.73944 0.21483 0.3994 0.0
C52 C 0.63173 0.22387 0.44361 0.0
C53 C 0.58742 0.23778 0.44965 0.0
C54 C 0.56599 0.23068 0.47472 0.0
C55 C 0.58839 0.20921 0.49408 0.0
C56 C 0.6326 0.19503 0.4877 0.0
C57 C 0.65429 0.20274 0.46281 0.0
C58 C 0.85587 0.28187 0.41373 0.0
C59 C 0.7756 0.13315 0.43212 0.0
O60 O 0.91902 0.21249 0.36729 0.0
O61 O 0.85166 0.12182 0.35724 0.0
O62 O 0.75088 0.1326 0.34475 0.0
O63 O 0.72644 0.13291 0.38263 0.0
O64 O 0.83637 0.25233 0.34798 0.0
O65 O 0.74967 0.25187 0.35859 0.0
O66 O 0.64447 0.18154 0.40662 0.0
O67 O 0.71013 0.27428 0.41401 0.0
O68 O 0.81044 0.2632 0.42909 0.0
O69 O 0.83722 0.26372 0.39153 0.0
O70 O 0.73352 0.14672 0.42766 0.0
O71 O 0.81976 0.14708 0.41561 0.0
H72 H 0.84339 0.16203 0.31172 0.0
H73 H 0.88 0.19122 0.26817 0.0
H74 H 0.05666 0.23083 0.29204 0.0
H75 H 0.01949 0.20145 0.33594 0.0
H76 H 0.56966 0.25437 0.43506 0.0
H77 H 0.53255 0.24284 0.47897 0.0
H78 H 0.65023 0.17741 0.50188 0.0
H79 H 0.6888 0.19214 0.45854 0.0
C80 C 0.73969 0.90988 0.68788 0.0
Eu81 Eu 0.6443 0.82495 0.71025 0.0
C82 C 0.75008 0.93362 0.66144 0.0
C83 C 0.72786 0.89483 0.64056 0.0
C84 C 0.73571 0.91729 0.61566 0.0
C85 C 0.76543 0.97904 0.61102 0.0
C86 C 0.7877 0.01784 0.63192 0.0
C87 C 0.78024 -0.00469 0.65687 0.0
C88 C 0.60185 0.70743 0.70257 0.0
C89 C 0.53301 0.79441 0.67111 0.0
C90 C 0.4127 0.65548 0.74355 0.0
Eu91 Eu 0.51688 0.73961 0.72799 0.0
C92 C 0.3936 0.63681 0.77012 0.0
C93 C 0.33331 0.59779 0.77651 0.0
C94 C 0.31675 0.58074 0.80203 0.0
C95 C 0.36036 0.60241 0.8215 0.0
C96 C 0.4207 0.64151 0.8148 0.0
C97 C 0.43696 0.65873 0.78948 0.0
C98 C 0.56574 0.85099 0.7478 0.0
C99 C 0.62658 0.76654 0.76483 0.0
O100 O 0.70409 0.92 0.70201 0.0
O101 O 0.72934 0.8555 0.69066 0.0
O102 O 0.65565 0.74289 0.71106 0.0
O103 O 0.5749 0.73535 0.69913 0.0
O104 O 0.59155 0.8237 0.67544 0.0
O105 O 0.49395 0.75799 0.6884 0.0
O106 O 0.4549 0.64551 0.73552 0.0
O107 O 0.42327 0.70896 0.73739 0.0
O108 O 0.53555 0.80198 0.76067 0.0
O109 O 0.57123 0.83834 0.72522 0.0
O110 O 0.57619 0.7237 0.75489 0.0
O111 O 0.65902 0.81781 0.75249 0.0
H112 H 0.70352 0.84697 0.64345 0.0
H113 H 0.71705 0.88618 0.60007 0.0
H114 H 0.81105 0.06566 0.62897 0.0
H115 H 0.79749 0.02608 0.67263 0.0
H116 H 0.29917 0.58064 0.76185 0.0
H117 H 0.26977 0.5511 0.80651 0.0
H118 H 0.45576 0.65826 0.82906 0.0
H119 H 0.48374 0.68906 0.78501 0.0
C120 C 0.71992 0.66398 0.02824 0.0
Eu121 Eu 0.75792 0.5965 0.04788 0.0
C122 C 0.7079 0.67582 1.00174 0.0
C123 C 0.74107 0.7336 0.99135 0.0
C124 C 0.7334 0.74494 0.96586 0.0
C125 C 0.69213 0.69873 0.95012 0.0
C126 C 0.6582 0.64104 0.9607 0.0
C127 C 0.66595 0.62973 0.98617 0.0
C128 C 0.87231 0.62132 0.04271 0.0
C129 C 0.74328 0.50268 1.00264 0.0
C130 C 0.81837 0.42845 0.07857 0.0
Eu131 Eu 0.77905 0.49396 0.05864 0.0
C132 C 0.81447 0.4103 0.10552 0.0
C133 C 0.76982 0.40903 0.12123 0.0
C134 C 0.76784 0.39615 0.14723 0.0
C135 C 0.81093 0.3849 0.15824 0.0
C136 C 0.85569 0.38623 0.14238 0.0
C137 C 0.85734 0.39872 0.11625 0.0
C138 C 0.66367 0.46493 0.06304 0.0
C139 C 0.79356 0.58724 0.10442 0.0
O140 O 0.68394 0.61099 0.038 0.0
O141 O 0.77623 0.68339 0.03377 0.0
O142 O 0.85868 0.65692 0.0541 0.0
O143 O 0.82605 0.57544 0.03533 0.0
O144 O 0.72531 0.53787 1.01247 0.0
O145 O 0.77624 0.48658 1.01604 0.0
O146 O 0.853 0.48551 0.07412 0.0
O147 O 0.76709 0.40613 0.06653 0.0
O148 O 0.6806 0.42944 0.05419 0.0
O149 O 0.70793 0.51307 0.07061 0.0
O150 O 0.80687 0.54822 0.09507 0.0
O151 O 0.76606 0.60886 0.09045 0.0
H152 H 0.77361 0.77001 1.0029 0.0
H153 H 0.75968 0.79004 0.95851 0.0
H154 H 0.62651 0.60419 0.94912 0.0
H155 H 0.63966 0.58464 0.99352 0.0
H156 H 0.73669 0.4187 0.11343 0.0
H157 H 0.73222 0.39473 0.15864 0.0
H158 H 0.89021 0.37872 0.1502 0.0
H159 H 0.89254 0.40013 0.10455 0.0
C160 C 0.05887 0.79776 0.35127 0.0
Eu161 Eu 0.15552 0.81111 0.37345 0.0
C162 C 0.02814 0.77439 0.32659 0.0
C163 C 0.05969 0.79374 0.30336 0.0
C164 C 0.02972 0.77297 0.28016 0.0
C165 C 0.96761 0.73198 0.2796 0.0
C166 C 0.93632 0.71182 0.30286 0.0
C167 C 0.96626 0.73304 0.3261 0.0
C168 C 0.26805 0.90443 0.36633 0.0
C169 C 0.21247 0.75079 0.33674 0.0
C170 C 0.35489 0.79926 0.41038 0.0
Eu171 Eu 0.25847 0.79624 0.39413 0.0
C172 C 0.3743 0.79603 0.4366 0.0
C173 C 0.33218 0.75888 0.45504 0.0
C174 C 0.34948 0.75951 0.48036 0.0
C175 C 0.40926 0.79761 0.48794 0.0
C176 C 0.45156 0.83426 0.46934 0.0
C177 C 0.43418 0.8335 0.44394 0.0
C178 C 0.1476 0.71407 0.41176 0.0
C179 C 0.20448 0.85883 0.42864 0.0
O180 O 0.0581 0.75905 0.36765 0.0
O181 O 0.11091 0.84711 0.35039 0.0
O182 O 0.22379 0.91175 0.37305 0.0
O183 O 0.25087 0.85054 0.36404 0.0
O184 O 0.17093 0.76572 0.34014 0.0
O185 O 0.25281 0.75968 0.35448 0.0
O186 O 0.35293 0.84761 0.40488 0.0
O187 O 0.30812 0.75061 0.4018 0.0
O188 O 0.19572 0.73811 0.42549 0.0
O189 O 0.16086 0.73464 0.38944 0.0
O190 O 0.25485 0.86283 0.42047 0.0
O191 O 0.15442 0.83086 0.41522 0.0
H192 H 0.10757 0.82514 0.30306 0.0
H193 H 0.05535 0.78861 0.26262 0.0
H194 H 0.88844 0.68045 0.30309 0.0
H195 H 0.94096 0.71743 0.34372 0.0
H196 H 0.28554 0.72979 0.45001 0.0
H197 H 0.31586 0.73 0.49399 0.0
H198 H 0.49782 0.86467 0.47452 0.0
H199 H 0.46726 0.86309 0.43013 0.0
C200 C 0.22682 0.06257 0.68616 0.0
Eu201 Eu 0.32014 0.14411 0.71033 0.0
C202 C 0.21862 0.03504 0.66072 0.0
C203 C 0.1872 0.04663 0.64179 0.0
C204 C 0.18374 0.02632 0.61692 0.0
C205 C 0.21094 -0.00696 0.61033 0.0
C206 C 0.24101 0.98001 0.62955 0.0
C207 C 0.24507 0.00099 0.6544 0.0
C208 C 0.3635 0.26245 0.70425 0.0
C209 C 0.43603 0.17705 0.67417 0.0
C210 C 0.55001 0.31203 0.7457 0.0
Eu211 Eu 0.44535 0.22793 0.73101 0.0
C212 C 0.57529 0.33573 0.77112 0.0
C213 C 0.62368 0.33092 0.78054 0.0
C214 C 0.64464 0.3488 0.80537 0.0
C215 C 0.61768 0.37203 0.82125 0.0
C216 C 0.57045 0.37845 0.81145 0.0
C217 C 0.54935 0.36033 0.78677 0.0
C218 C 0.39517 0.11423 0.74894 0.0
C219 C 0.33033 0.19561 0.76577 0.0
O220 O 0.25519 0.04998 0.70369 0.0
O221 O 0.24302 0.11897 0.68581 0.0
O222 O 0.30872 0.22617 0.71165 0.0
O223 O 0.39076 0.23487 0.70113 0.0
O224 O 0.37713 0.14555 0.6773 0.0
O225 O 0.47215 0.21317 0.69196 0.0
O226 O 0.50754 0.32181 0.73762 0.0
O227 O 0.53851 0.25781 0.74096 0.0
O228 O 0.42408 0.16145 0.76273 0.0
O229 O 0.39203 0.12982 0.72641 0.0
O230 O 0.38364 0.23919 0.75812 0.0
O231 O 0.29921 0.14708 0.75192 0.0
H232 H 0.16662 0.07299 0.64607 0.0
H233 H 0.16107 0.03831 0.60273 0.0
H234 H 0.26163 0.95365 0.62545 0.0
H235 H 0.26978 -0.00868 0.6685 0.0
H236 H 0.64439 0.31204 0.76888 0.0
H237 H 0.68083 0.34285 0.81235 0.0
H238 H 0.54945 0.39733 0.82292 0.0
H239 H 0.512 0.36482 0.78017 0.0
H240 H 0.14877 0.74388 0.29403 0.0
H241 H 0.28692 0.70974 0.32141 0.0
H242 H 0.16122 0.71679 0.25125 0.0
H243 H 0.29896 0.68217 0.27824 0.0
H244 H 0.24753 0.57786 0.20056 0.0
H245 H 0.23857 0.60244 0.24453 0.0
H246 H 0.245 0.76345 0.21846 0.0
H247 H 0.256 0.74031 0.17465 0.0
C248 C 0.18154 0.73017 0.29103 0.0
C249 C 0.21709 0.72929 0.31123 0.0
C250 C 0.18887 0.71501 0.26641 0.0
C251 C 0.23147 0.69798 0.26137 0.0
C252 C 0.26571 0.69508 0.28162 0.0
C253 C 0.25887 0.71097 0.30631 0.0
C254 C 0.24821 0.61911 0.20418 0.0
C255 C 0.25222 0.65693 0.18391 0.0
C256 C 0.24281 0.63297 0.22939 0.0
C257 C 0.24057 0.68455 0.23487 0.0
C258 C 0.2456 0.72285 0.21474 0.0
C259 C 0.25169 0.70942 0.18961 0.0
H260 H 0.54796 0.25489 0.65537 0.0
H261 H 0.38009 0.09812 0.63552 0.0
H262 H 0.58452 0.26074 0.61217 0.0
H263 H 0.41743 0.10264 0.59252 0.0
H264 H 0.47357 0.17077 0.51087 0.0
H265 H 0.43848 0.16064 0.55465 0.0
H266 H 0.61762 0.21733 0.5818 0.0
H267 H 0.65341 0.23126 0.53812 0.0
C268 C 0.51928 0.22095 0.64194 0.0
C269 C 0.46103 0.17622 0.6489 0.0
C270 C 0.54033 0.22418 0.61711 0.0
C271 C 0.50385 0.1824 0.5987 0.0
C272 C 0.44634 0.13635 0.60599 0.0
C273 C 0.4251 0.13344 0.63075 0.0
C274 C 0.50566 0.18185 0.52616 0.0
C275 C 0.56641 0.20201 0.52085 0.0
C276 C 0.48532 0.17511 0.55134 0.0
C277 C 0.52513 0.18799 0.57187 0.0
C278 C 0.58575 0.20767 0.56654 0.0
C279 C 0.60616 0.21488 0.5414 0.0
H280 H 0.28165 0.57622 0.98498 0.0
H281 H 0.26232 0.40662 0.96524 0.0
H282 H 0.31002 0.61067 0.94106 0.0
H283 H 0.2923 0.44136 0.92168 0.0
H284 H 0.27676 0.49243 0.84044 0.0
H285 H 0.25199 0.46193 0.88482 0.0
H286 H 0.38435 0.63931 0.90866 0.0
H287 H 0.40651 0.67072 0.86427 0.0
C288 C 0.28463 0.5467 0.97141 0.0
C289 C 0.26932 0.4885 0.9786 0.0
C290 C 0.30092 0.56644 0.94619 0.0
C291 C 0.30273 0.52856 0.92765 0.0
C292 C 0.2899 0.47127 0.93521 0.0
C293 C 0.27318 0.45146 0.9603 0.0
C294 C 0.29991 0.52523 0.8551 0.0
C295 C 0.34375 0.58404 0.84866 0.0
C296 C 0.28639 0.50749 0.88064 0.0
C297 C 0.31657 0.54797 0.90044 0.0
C298 C 0.35987 0.60697 0.89399 0.0
C299 C 0.37312 0.6248 0.86846 0.0
H300 H 0.88905 0.31036 0.30962 0.0
H301 H 0.71143 0.28614 0.31861 0.0
H302 H 0.89214 0.34193 0.26582 0.0
H303 H 0.71525 0.31892 0.27418 0.0
H304 H 0.7806 0.43356 0.19786 0.0
H305 H 0.77563 0.40986 0.24332 0.0
H306 H 0.83315 0.28389 0.22728 0.0
H307 H 0.83617 0.30565 0.18192 0.0
C308 C 0.85079 0.31249 0.3024 0.0
C309 C 0.79962 0.29511 0.31768 0.0
C310 C 0.85263 0.3304 0.27717 0.0
C311 C 0.80363 0.33201 0.26646 0.0
C312 C 0.75368 0.31803 0.282 0.0
C313 C 0.75154 0.29942 0.30741 0.0
C314 C 0.79136 0.40014 0.20394 0.0
C315 C 0.80884 0.37154 0.18608 0.0
C316 C 0.78863 0.38678 0.23001 0.0
C317 C 0.80419 0.34524 0.23883 0.0
C318 C 0.82166 0.31673 0.22106 0.0
C319 C 0.8237 0.32949 0.19503 0.0
H320 H 0.60016 0.8692 0.63233 0.0
H321 H 0.4194 0.73011 0.65087 0.0
H322 H 0.56981 0.87174 0.58871 0.0
H323 H 0.38907 0.73239 0.60688 0.0
H324 H 0.34583 0.79243 0.53079 0.0
H325 H 0.37398 0.7937 0.57528 0.0
H326 H 0.54114 0.80859 0.55139 0.0
H327 H 0.51288 0.80689 0.50692 0.0
C328 C 0.5538 0.83916 0.62716 0.0
C329 C 0.51232 0.79908 0.64517 0.0
C330 C 0.53649 0.84045 0.60203 0.0
C331 C 0.47715 0.80183 0.59415 0.0
C332 C 0.43509 0.76302 0.61233 0.0
C333 C 0.45249 0.76161 0.63755 0.0
C334 C 0.38837 0.79541 0.535 0.0
C335 C 0.42698 0.79938 0.51517 0.0
C336 C 0.40451 0.7962 0.56055 0.0
C337 C 0.45982 0.80127 0.56697 0.0
C338 C 0.49858 0.80557 0.54717 0.0
C339 C 0.48238 0.80463 0.52162 0.0
H340 H 0.78559 0.44613 0.97239 0.0
H341 H 0.66275 0.51321 0.97269 0.0
H342 H 0.75643 0.41267 0.92848 0.0
H343 H 0.63438 0.48051 0.92907 0.0
H344 H 0.54726 0.35287 0.86316 0.0
H345 H 0.57896 0.38331 0.90682 0.0
H346 H 0.76422 0.45695 0.88433 0.0
H347 H 0.73266 0.42747 0.8403 0.0
C348 C 0.75248 0.45378 0.96313 0.0
C349 C 0.72647 0.48232 0.97606 0.0
C350 C 0.73609 0.43495 0.93797 0.0
C351 C 0.69293 0.44374 0.92541 0.0
C352 C 0.66718 0.47241 0.93835 0.0
C353 C 0.68382 0.49155 0.96333 0.0
C354 C 0.59484 0.37609 0.86739 0.0
C355 C 0.63744 0.38839 0.8481 0.0
C356 C 0.61295 0.39332 0.89246 0.0
C357 C 0.67408 0.4229 0.89895 0.0
C358 C 0.71674 0.43382 0.8799 0.0
C359 C 0.69862 0.41688 0.8547 0.0
H360 H 0.32775 0.42055 0.11792 0.0
H361 H 0.2984 0.35603 0.04062 0.0
H362 H 0.42296 0.42188 0.11887 0.0
H363 H 0.39376 0.35812 0.04144 0.0
H364 H 0.5664 0.35844 0.05156 0.0
H365 H 0.46111 0.32581 0.05975 0.0
H366 H 0.51431 0.49508 0.09479 0.0
H367 H 0.61966 0.5273 0.08694 0.0
C368 C 0.34085 0.40498 0.10143 0.0
C369 C 0.30688 0.38976 0.07895 0.0
C370 C 0.39538 0.40608 0.10193 0.0
C371 C 0.41626 0.39164 0.08002 0.0
C372 C 0.37879 0.36966 0.0586 0.0
C373 C 0.32428 0.3686 0.05809 0.0
C374 C 0.55549 0.38841 0.06121 0.0
C375 C 0.60078 0.44549 0.06852 0.0
C376 C 0.49537 0.36965 0.06592 0.0
C377 C 0.4797 0.4077 0.07803 0.0
C378 C 0.52524 0.46435 0.08586 0.0
C379 C 0.58538 0.48313 0.08111 0.0
H380 H 0.13218 0.64554 0.45397 0.0
H381 H 0.05559 0.6437 0.38039 0.0
H382 H 0.06771 0.53728 0.45722 0.0
H383 H -0.00903 0.53596 0.38379 0.0
H384 H 0.94452 0.34762 0.37956 0.0
H385 H 0.01592 0.45418 0.38217 0.0
H386 H 0.95944 0.45459 0.45956 0.0
H387 H 0.88845 0.34768 0.45712 0.0
C388 C 0.10055 0.62215 0.4388 0.0
C389 C 0.09933 0.65263 0.41674 0.0
C390 C 0.064 0.56031 0.44062 0.0
C391 C 0.02593 0.52837 0.4204 0.0
C392 C 0.02144 0.55951 0.39928 0.0
C393 C 0.05774 0.62115 0.39749 0.0
C394 C 0.94861 0.3701 0.39737 0.0
C395 C 0.91016 0.33988 0.41794 0.0
C396 C -0.01112 0.43112 0.39876 0.0
C397 C -0.00849 0.46266 0.42077 0.0
C398 C 0.95771 0.4313 0.44229 0.0
C399 C 0.91728 0.37016 0.44089 0.0
H400 H 0.43599 0.08946 0.79265 0.0
H401 H 0.37822 0.02694 0.71601 0.0
H402 H 0.48468 0.03001 0.79544 0.0
H403 H 0.42595 0.96674 0.71903 0.0
H404 H 0.58398 0.94168 0.71583 0.0
H405 H 0.53566 0.00116 0.71935 0.0
H406 H 0.47248 0.92902 0.79485 0.0
H407 H 0.52174 0.87027 0.79155 0.0
C408 C 0.432 0.06148 0.77673 0.0
C409 C 0.40468 0.06386 0.75386 0.0
C410 C 0.46017 0.02777 0.7783 0.0
C411 C 0.46097 -0.00424 0.75709 0.0
C412 C 0.4278 -0.00711 0.73532 0.0
C413 C 0.39966 0.02652 0.73374 0.0
C414 C 0.5614 0.93995 0.73348 0.0
C415 C 0.55539 0.90045 0.75318 0.0
C416 C 0.53293 0.97318 0.73534 0.0
C417 C 0.49842 0.9677 0.75698 0.0
C418 C 0.49804 0.93331 0.77781 0.0
C419 C 0.52655 0.90001 0.77596 0.0
H420 H 0.63847 0.63218 0.72169 0.0
H421 H 0.49206 0.63611 0.6833 0.0
H422 H 0.57798 0.52267 0.72365 0.0
H423 H 0.43195 0.52814 0.68587 0.0
H424 H 0.32515 0.33723 0.72164 0.0
H425 H 0.38509 0.44687 0.72266 0.0
H426 H 0.53366 0.44219 0.68739 0.0
H427 H 0.47424 0.33432 0.6857 0.0
C428 C 0.59374 0.60967 0.71363 0.0
C429 C 0.56976 0.6422 0.70242 0.0
C430 C 0.55911 0.54747 0.71491 0.0
C431 C 0.50016 0.51766 0.70527 0.0
C432 C 0.47677 0.55035 0.69387 0.0
C433 C 0.51146 0.61197 0.69222 0.0
C434 C 0.37036 0.35996 0.71395 0.0
C435 C 0.39528 0.32769 0.70374 0.0
C436 C 0.40463 0.42222 0.71468 0.0
C437 C 0.46413 0.45228 0.7055 0.0
C438 C 0.48841 0.41982 0.69506 0.0
C439 C 0.45411 0.3582 0.69394 0.0
H440 H -0.0088 0.39286 0.06676 0.0
H441 H 0.13608 0.51793 1.01805 0.0
H442 H 0.95691 0.4653 0.07095 0.0
H443 H 0.1023 0.58936 0.02244 0.0
H444 H 0.93506 0.61689 1.00341 0.0
H445 H 0.00068 0.57507 1.00543 0.0
H446 H -0.00303 0.57834 0.08767 0.0
H447 H 0.93238 0.6225 0.08549 0.0
C448 C 0.01547 0.43557 0.05704 0.0
C449 C 0.06566 0.44975 0.04189 0.0
C450 C -0.00326 0.47723 0.05982 0.0
C451 C 0.02776 0.53294 0.04732 0.0
C452 C 0.07814 0.54694 0.03242 0.0
C453 C 0.09693 0.50581 0.02977 0.0
C454 C 0.95128 0.61199 0.02184 0.0
C455 C 0.92939 0.62292 0.04427 0.0
C456 C -0.01177 0.58755 0.02304 0.0
C457 C 0.00264 0.57263 0.04672 0.0
C458 C -0.01414 0.58925 0.06923 0.0
C459 C 0.94986 0.61523 0.06799 0.0
H460 H 0.34399 0.01065 0.38938 0.0
H461 H 0.32868 0.89812 0.32649 0.0
H462 H 0.45314 0.0695 0.38246 0.0
H463 H 0.43651 0.95667 0.31934 0.0
H464 H 0.625 0.00185 0.35051 0.0
H465 H 0.51621 0.95881 0.34693 0.0
H466 H 0.53855 0.13452 0.35253 0.0
H467 H 0.64636 0.17683 0.35599 0.0
C468 C 0.36373 0.00019 0.37351 0.0
C469 C 0.32863 0.95009 0.35855 0.0
C470 C 0.42597 0.03345 0.36957 0.0
C471 C 0.45315 0.01672 0.35063 0.0
C472 C 0.41687 0.96973 0.33436 0.0
C473 C 0.35523 0.93663 0.33834 0.0
C474 C 0.60654 0.03114 0.35028 0.0
C475 C 0.64387 0.09249 0.35358 0.0
C476 C 0.54448 0.00674 0.34826 0.0
C477 C 0.51906 0.04351 0.34961 0.0
C478 C 0.55692 0.1052 0.35172 0.0
C479 C 0.61882 0.12944 0.35358 0.0
H480 H 0.21999 0.12038 0.78738 0.0
H481 H 0.38805 0.28245 0.80138 0.0
H482 H 0.18425 0.12726 0.82962 0.0
H483 H 0.35214 0.2894 0.84333 0.0
H484 H 0.29491 0.24427 0.9271 0.0
H485 H 0.3286 0.23685 0.88466 0.0
H486 H 0.15459 0.18918 0.85416 0.0
H487 H 0.12103 0.1976 0.8965 0.0
C488 C 0.24918 0.15763 0.79935 0.0
C489 C 0.30691 0.2008 0.7909 0.0
C490 C 0.22859 0.1617 0.82354 0.0
C491 C 0.26541 0.20874 0.83994 0.0
C492 C 0.32289 0.25213 0.83137 0.0
C493 C 0.34329 0.24833 0.80717 0.0
C494 C 0.26388 0.23276 0.91136 0.0
C495 C 0.20515 0.22162 0.91539 0.0
C496 C 0.28324 0.22842 0.88698 0.0
C497 C 0.24435 0.21251 0.86595 0.0
C498 C 0.18547 0.20078 0.86997 0.0
C499 C 0.1662 0.20547 0.89432 0.0
H500 H 0.07535 0.31275 0.26138 0.0
H501 H 0.91747 0.15889 0.23173 0.0
H502 H 0.11034 0.34734 0.21792 0.0
H503 H 0.95202 0.19393 0.18827 0.0
H504 H 0.07014 0.24615 0.11518 0.0
H505 H 0.03358 0.20949 0.15828 0.0
H506 H 0.08091 0.38711 0.18088 0.0
H507 H 0.11764 0.4239 0.13795 0.0
C508 C 0.04833 0.28608 0.24559 0.0
C509 C -0.00635 0.23301 0.25005 0.0
C510 C 0.06805 0.30623 0.22068 0.0
C511 C 0.03387 0.27352 0.19959 0.0
C512 C 0.97962 0.22 0.20406 0.0
C513 C 0.95961 0.20016 0.22897 0.0
C514 C 0.07245 0.27736 0.12928 0.0
C515 C 0.09689 0.33801 0.12301 0.0
C516 C 0.0513 0.25628 0.15398 0.0
C517 C 0.05462 0.29542 0.17308 0.0
C518 C 0.07843 0.35591 0.16673 0.0
C519 C 0.09906 0.37688 0.14201 0.0
H520 H 0.79745 0.9432 0.56776 0.0
H521 H 0.7458 0.0676 0.59431 0.0
H522 H 0.80116 0.9782 0.52393 0.0
H523 H 0.75031 0.10304 0.55069 0.0
H524 H 0.68941 0.09666 0.46898 0.0
H525 H 0.69005 0.0601 0.51158 0.0
H526 H 0.8586 0.06938 0.49553 0.0
H527 H 0.85836 0.10667 0.45241 0.0
C528 C 0.78709 0.97814 0.56425 0.0
C529 C 0.77117 0.00253 0.58453 0.0
C530 C 0.7897 -0.00152 0.53918 0.0
C531 C 0.77571 0.04314 0.53381 0.0
C532 C 0.76071 0.0681 0.55415 0.0
C533 C 0.75868 0.04821 0.57919 0.0
C534 C 0.72675 0.09092 0.47433 0.0
C535 C 0.77419 0.10523 0.45719 0.0
C536 C 0.72715 0.07016 0.49891 0.0
C537 C 0.77475 0.06262 0.50709 0.0
C538 C 0.82124 0.07471 0.48976 0.0
C539 C 0.8211 0.09606 0.46507 0.0
H540 H 0.71298 0.84867 0.79691 0.0
H541 H 0.57566 0.66293 0.7924 0.0
H542 H 0.73036 0.83374 0.84157 0.0
H543 H 0.59368 0.64788 0.83649 0.0
H544 H 0.58777 0.65455 0.92274 0.0
H545 H 0.5756 0.672 0.87803 0.0
H546 H 0.7677 0.78681 0.87055 0.0
H547 H 0.77978 0.76962 0.91545 0.0
C548 C 0.68719 0.80452 0.80528 0.0
C549 C 0.64278 0.75716 0.79102 0.0
C550 C 0.69715 0.79589 0.8309 0.0
C551 C 0.66293 0.73969 0.84284 0.0
C552 C 0.61998 0.69208 0.82823 0.0
C553 C 0.61001 0.70068 0.80276 0.0
C554 C 0.62751 0.68319 0.91155 0.0
C555 C 0.68477 0.71044 0.92277 0.0
C556 C 0.62056 0.69319 0.88583 0.0
C557 C 0.67071 0.73054 0.87049 0.0
C558 C 0.72798 0.75834 0.88177 0.0
C559 C 0.7349 0.74844 0.90756 0.0
H560 H 0.97932 0.79744 0.23655 0.0
H561 H 0.8842 0.61762 0.26652 0.0
H562 H 0.93134 0.7615 0.19521 0.0
H563 H 0.83539 0.58176 0.22531 0.0
H564 H 0.83154 0.53682 0.14008 0.0
H565 H 0.8678 0.57096 0.18281 0.0
H566 H 0.8334 0.71603 0.17261 0.0
H567 H 0.7969 0.68171 0.12936 0.0
C568 C 0.948 0.75024 0.23433 0.0
C569 C 0.93591 0.71035 0.2548 0.0
C570 C 0.91997 0.72974 0.21071 0.0
C571 C 0.87954 0.66874 0.20691 0.0
C572 C 0.86665 0.62898 0.22752 0.0
C573 C 0.89428 0.64957 0.2512 0.0
C574 C 0.83109 0.57576 0.14689 0.0
C575 C 0.81137 0.60662 0.13115 0.0
C576 C 0.85166 0.59515 0.17156 0.0
C577 C 0.85362 0.6463 0.18119 0.0
C578 C 0.83297 0.67674 0.16567 0.0
C579 C 0.81172 0.6569 0.14095 0.0
H580 H 0.29795 0.98368 0.58399 0.0
H581 H 0.11968 0.95784 0.5753 0.0
H582 H 0.29471 0.9515 0.5405 0.0
H583 H 0.11862 0.93083 0.53112 0.0
H584 H 0.10828 0.82577 0.46022 0.0
H585 H 0.10934 0.85723 0.50387 0.0
H586 H 0.30092 0.97888 0.49805 0.0
H587 H 0.29993 0.94475 0.45496 0.0
C588 C 0.25794 0.97113 0.57288 0.0
C589 C 0.209 0.97331 0.58345 0.0
C590 C 0.25653 0.95368 0.54761 0.0
C591 C 0.20654 0.93876 0.53194 0.0
C592 C 0.15768 0.94111 0.54251 0.0
C593 C 0.1587 0.95765 0.56789 0.0
C594 C 0.15048 0.85962 0.46823 0.0
C595 C 0.204 0.88267 0.45414 0.0
C596 C 0.15118 0.87793 0.49332 0.0
C597 C 0.20532 0.92055 0.50483 0.0
C598 C 0.25852 0.94492 0.49027 0.0
C599 C 0.25793 0.92581 0.46538 0.0
loop_
_geom_bond_atom_site_label_1
_geom_bond_atom_site_label_2
_geom_bond_distance
_geom_bond_site_symmetry_2
_ccdc_geom_bond_type
C0 Eu1 2.835 1_556 S
C0 C2 1.500 . S
C0 O20 1.257 . S
C0 O21 1.260 . S
Eu1 C0 2.835 1_554 S
Eu1 O20 2.473 1_554 S
Eu1 O21 2.480 1_554 S
Eu1 O22 2.430 . S
Eu1 O23 2.670 . S
Eu1 O24 2.394 1_554 S
Eu1 O29 2.355 . S
Eu1 O31 2.374 . S
C2 C0 1.500 . S
C2 C3 1.377 . S
C2 C7 1.377 . S
C3 C2 1.377 . S
C3 C4 1.395 . S
C3 H32 0.931 . S
C4 C3 1.395 . S
C4 C5 1.383 . S
C4 H33 0.931 . S
C5 C4 1.383 . S
C5 C6 1.394 . S
C6 C5 1.394 . S
C6 C7 1.378 . S
C6 H34 0.931 . S
C7 C2 1.377 . S
C7 C6 1.378 . S
C7 H35 0.931 . S
C8 O22 1.259 . S
C8 O23 1.270 . S
C9 O24 1.251 . S
C9 O25 1.251 1_556 S
C10 Eu11 2.835 . S
C10 C12 1.500 . S
C10 O26 1.257 . S
C10 O27 1.260 . S
Eu11 C10 2.835 . S
Eu11 O23 2.355 . S
Eu11 O25 2.374 . S
Eu11 O26 2.473 . S
Eu11 O27 2.480 . S
Eu11 O28 2.430 . S
Eu11 O29 2.670 . S
Eu11 O30 2.394 . S
C12 C10 1.500 . S
C12 C13 1.377 . S
C12 C17 1.377 . S
C13 C12 1.377 . S
C13 C14 1.395 . S
C13 H36 0.931 . S
C14 C13 1.395 . S
C14 C15 1.383 . S
C14 H37 0.931 . S
C15 C14 1.383 . S
C15 C16 1.394 . S
C16 C15 1.394 . S
C16 C17 1.378 . S
C16 H38 0.931 . S
C17 C12 1.377 . S
C17 C16 1.378 . S
C17 H39 0.931 . S
C18 O28 1.259 . S
C18 O29 1.270 . S
C19 O30 1.251 . S
C19 O31 1.251 . S
O20 C0 1.257 . S
O20 Eu1 2.473 1_556 S
O21 C0 1.260 . S
O21 Eu1 2.480 1_556 S
O22 Eu1 2.430 . S
O22 C8 1.259 . S
O23 Eu1 2.670 . S
O23 C8 1.270 . S
O23 Eu11 2.355 . S
O24 Eu1 2.394 1_556 S
O24 C9 1.251 . S
O25 C9 1.251 1_554 S
O25 Eu11 2.374 . S
O26 C10 1.257 . S
O26 Eu11 2.473 . S
O27 C10 1.260 . S
O27 Eu11 2.480 . S
O28 Eu11 2.430 . S
O28 C18 1.259 . S
O29 Eu1 2.355 . S
O29 Eu11 2.670 . S
O29 C18 1.270 . S
O30 Eu11 2.394 . S
O30 C19 1.251 . S
O31 Eu1 2.374 . S
O31 C19 1.251 . S
H32 C3 0.931 . S
H33 C4 0.931 . S
H34 C6 0.931 . S
H35 C7 0.931 . S
H36 C13 0.931 . S
H37 C14 0.931 . S
H38 C16 0.931 . S
H39 C17 0.931 . S
C40 Eu41 2.835 . S
C40 C42 1.500 . S
C40 O60 1.257 . S
C40 O61 1.260 . S
Eu41 C40 2.835 . S
Eu41 O60 2.473 . S
Eu41 O61 2.480 . S
Eu41 O62 2.430 . S
Eu41 O63 2.670 . S
Eu41 O64 2.394 . S
Eu41 O69 2.355 . S
Eu41 O71 2.374 . S
C42 C40 1.500 . S
C42 C43 1.377 . S
C42 C47 1.377 . S
C43 C42 1.377 . S
C43 C44 1.395 . S
C43 H72 0.931 . S
C44 C43 1.395 . S
C44 C45 1.383 . S
C44 H73 0.931 . S
C45 C44 1.383 . S
C45 C46 1.394 1_655 S
C46 C45 1.394 1_455 S
C46 C47 1.378 1_455 S
C46 H74 0.931 . S
C47 C42 1.377 . S
C47 C46 1.378 1_655 S
C47 H75 0.931 . S
C48 O62 1.259 . S
C48 O63 1.270 . S
C49 O64 1.251 . S
C49 O65 1.251 . S
C50 Eu51 2.835 . S
C50 C52 1.500 . S
C50 O66 1.257 . S
C50 O67 1.260 . S
Eu51 C50 2.835 . S
Eu51 O63 2.355 . S
Eu51 O65 2.374 . S
Eu51 O66 2.473 . S
Eu51 O67 2.480 . S
Eu51 O68 2.430 . S
Eu51 O69 2.670 . S
Eu51 O70 2.394 . S
C52 C50 1.500 . S
C52 C53 1.377 . S
C52 C57 1.377 . S
C53 C52 1.377 . S
C53 C54 1.395 . S
C53 H76 0.931 . S
C54 C53 1.395 . S
C54 C55 1.383 . S
C54 H77 0.931 . S
C55 C54 1.383 . S
C55 C56 1.394 . S
C56 C55 1.394 . S
C56 C57 1.378 . S
C56 H78 0.931 . S
C57 C52 1.377 . S
C57 C56 1.378 . S
C57 H79 0.931 . S
C58 O68 1.259 . S
C58 O69 1.270 . S
C59 O70 1.251 . S
C59 O71 1.251 . S
O60 C40 1.257 . S
O60 Eu41 2.473 . S
O61 C40 1.260 . S
O61 Eu41 2.480 . S
O62 Eu41 2.430 . S
O62 C48 1.259 . S
O63 Eu41 2.670 . S
O63 C48 1.270 . S
O63 Eu51 2.355 . S
O64 Eu41 2.394 . S
O64 C49 1.251 . S
O65 C49 1.251 . S
O65 Eu51 2.374 . S
O66 C50 1.257 . S
O66 Eu51 2.473 . S
O67 C50 1.260 . S
O67 Eu51 2.480 . S
O68 Eu51 2.430 . S
O68 C58 1.259 . S
O69 Eu41 2.355 . S
O69 Eu51 2.670 . S
O69 C58 1.270 . S
O70 Eu51 2.394 . S
O70 C59 1.251 . S
O71 Eu41 2.374 . S
O71 C59 1.251 . S
H72 C43 0.931 . S
H73 C44 0.931 . S
H74 C46 0.931 . S
H75 C47 0.931 . S
H76 C53 0.931 . S
H77 C54 0.931 . S
H78 C56 0.931 . S
H79 C57 0.931 . S
C80 Eu81 2.835 . S
C80 C82 1.500 . S
C80 O100 1.257 . S
C80 O101 1.260 . S
Eu81 C80 2.835 . S
Eu81 O100 2.473 . S
Eu81 O101 2.480 . S
Eu81 O102 2.430 . S
Eu81 O103 2.670 . S
Eu81 O104 2.394 . S
Eu81 O109 2.355 . S
Eu81 O111 2.374 . S
C82 C80 1.500 . S
C82 C83 1.377 . S
C82 C87 1.377 . S
C83 C82 1.377 . S
C83 C84 1.395 . S
C83 H112 0.931 . S
C84 C83 1.395 . S
C84 C85 1.383 . S
C84 H113 0.931 . S
C85 C84 1.383 . S
C85 C86 1.394 1_565 S
C86 C85 1.394 1_545 S
C86 C87 1.378 1_545 S
C86 H114 0.931 . S
C87 C82 1.377 . S
C87 C86 1.378 1_565 S
C87 H115 0.931 . S
C88 O102 1.259 . S
C88 O103 1.270 . S
C89 O104 1.251 . S
C89 O105 1.251 . S
C90 Eu91 2.835 . S
C90 C92 1.500 . S
C90 O106 1.257 . S
C90 O107 1.260 . S
Eu91 C90 2.835 . S
Eu91 O103 2.355 . S
Eu91 O105 2.374 . S
Eu91 O106 2.473 . S
Eu91 O107 2.480 . S
Eu91 O108 2.430 . S
Eu91 O109 2.670 . S
Eu91 O110 2.394 . S
C92 C90 1.500 . S
C92 C93 1.377 . S
C92 C97 1.377 . S
C93 C92 1.377 . S
C93 C94 1.395 . S
C93 H116 0.931 . S
C94 C93 1.395 . S
C94 C95 1.383 . S
C94 H117 0.931 . S
C95 C94 1.383 . S
C95 C96 1.394 . S
C96 C95 1.394 . S
C96 C97 1.378 . S
C96 H118 0.931 . S
C97 C92 1.377 . S
C97 C96 1.378 . S
C97 H119 0.931 . S
C98 O108 1.259 . S
C98 O109 1.270 . S
C99 O110 1.251 . S
C99 O111 1.251 . S
O100 C80 1.257 . S
O100 Eu81 2.473 . S
O101 C80 1.260 . S
O101 Eu81 2.480 . S
O102 Eu81 2.430 . S
O102 C88 1.259 . S
O103 Eu81 2.670 . S
O103 C88 1.270 . S
O103 Eu91 2.355 . S
O104 Eu81 2.394 . S
O104 C89 1.251 . S
O105 C89 1.251 . S
O105 Eu91 2.374 . S
O106 C90 1.257 . S
O106 Eu91 2.473 . S
O107 C90 1.260 . S
O107 Eu91 2.480 . S
O108 Eu91 2.430 . S
O108 C98 1.259 . S
O109 Eu81 2.355 . S
O109 Eu91 2.670 . S
O109 C98 1.270 . S
O110 Eu91 2.394 . S
O110 C99 1.251 . S
O111 Eu81 2.374 . S
O111 C99 1.251 . S
H112 C83 0.931 . S
H113 C84 0.931 . S
H114 C86 0.931 . S
H115 C87 0.931 . S
H116 C93 0.931 . S
H117 C94 0.931 . S
H118 C96 0.931 . S
H119 C97 0.931 . S
C120 Eu121 2.835 1_556 S
C120 C122 1.500 . S
C120 O140 1.257 . S
C120 O141 1.260 . S
Eu121 C120 2.835 1_554 S
Eu121 O140 2.473 1_554 S
Eu121 O141 2.480 1_554 S
Eu121 O142 2.430 . S
Eu121 O143 2.670 . S
Eu121 O144 2.394 1_554 S
Eu121 O149 2.355 . S
Eu121 O151 2.374 . S
C122 C120 1.500 . S
C122 C123 1.377 . S
C122 C127 1.377 . S
C123 C122 1.377 . S
C123 C124 1.395 . S
C123 H152 0.931 . S
C124 C123 1.395 . S
C124 C125 1.383 . S
C124 H153 0.931 . S
C125 C124 1.383 . S
C125 C126 1.394 . S
C126 C125 1.394 . S
C126 C127 1.378 . S
C126 H154 0.931 . S
C127 C122 1.377 . S
C127 C126 1.378 . S
C127 H155 0.931 . S
C128 O142 1.259 . S
C128 O143 1.270 . S
C129 O144 1.251 . S
C129 O145 1.251 1_556 S
C130 Eu131 2.835 . S
C130 C132 1.500 . S
C130 O146 1.257 . S
C130 O147 1.260 . S
Eu131 C130 2.835 . S
Eu131 O143 2.355 . S
Eu131 O145 2.374 . S
Eu131 O146 2.473 . S
Eu131 O147 2.480 . S
Eu131 O148 2.430 . S
Eu131 O149 2.670 . S
Eu131 O150 2.394 . S
C132 C130 1.500 . S
C132 C133 1.377 . S
C132 C137 1.377 . S
C133 C132 1.377 . S
C133 C134 1.395 . S
C133 H156 0.931 . S
C134 C133 1.395 . S
C134 C135 1.383 . S
C134 H157 0.931 . S
C135 C134 1.383 . S
C135 C136 1.394 . S
C136 C135 1.394 . S
C136 C137 1.378 . S
C136 H158 0.931 . S
C137 C132 1.377 . S
C137 C136 1.378 . S
C137 H159 0.931 . S
C138 O148 1.259 . S
C138 O149 1.270 . S
C139 O150 1.251 . S
C139 O151 1.251 . S
O140 C120 1.257 . S
O140 Eu121 2.473 1_556 S
O141 C120 1.260 . S
O141 Eu121 2.480 1_556 S
O142 Eu121 2.430 . S
O142 C128 1.259 . S
O143 Eu121 2.670 . S
O143 C128 1.270 . S
O143 Eu131 2.355 . S
O144 Eu121 2.394 1_556 S
O144 C129 1.251 . S
O145 C129 1.251 1_554 S
O145 Eu131 2.374 . S
O146 C130 1.257 . S
O146 Eu131 2.473 . S
O147 C130 1.260 . S
O147 Eu131 2.480 . S
O148 Eu131 2.430 . S
O148 C138 1.259 . S
O149 Eu121 2.355 . S
O149 Eu131 2.670 . S
O149 C138 1.270 . S
O150 Eu131 2.394 . S
O150 C139 1.251 . S
O151 Eu121 2.374 . S
O151 C139 1.251 . S
H152 C123 0.931 . S
H153 C124 0.931 . S
H154 C126 0.931 . S
H155 C127 0.931 . S
H156 C133 0.931 . S
H157 C134 0.931 . S
H158 C136 0.931 . S
H159 C137 0.931 . S
C160 Eu161 2.835 . S
C160 C162 1.500 . S
C160 O180 1.257 . S
C160 O181 1.260 . S
Eu161 C160 2.835 . S
Eu161 O180 2.473 . S
Eu161 O181 2.480 . S
Eu161 O182 2.430 . S
Eu161 O183 2.670 . S
Eu161 O184 2.394 . S
Eu161 O189 2.355 . S
Eu161 O191 2.374 . S
C162 C160 1.500 . S
C162 C163 1.377 . S
C162 C167 1.377 . S
C163 C162 1.377 . S
C163 C164 1.395 . S
C163 H192 0.931 . S
C164 C163 1.395 . S
C164 C165 1.383 . S
C164 H193 0.931 . S
C165 C164 1.383 . S
C165 C166 1.394 1_455 S
C166 C165 1.394 1_655 S
C166 C167 1.378 1_655 S
C166 H194 0.931 . S
C167 C162 1.377 . S
C167 C166 1.378 1_455 S
C167 H195 0.931 . S
C168 O182 1.259 . S
C168 O183 1.270 . S
C169 O184 1.251 . S
C169 O185 1.251 . S
C170 Eu171 2.835 . S
C170 C172 1.500 . S
C170 O186 1.257 . S
C170 O187 1.260 . S
Eu171 C170 2.835 . S
Eu171 O183 2.355 . S
Eu171 O185 2.374 . S
Eu171 O186 2.473 . S
Eu171 O187 2.480 . S
Eu171 O188 2.430 . S
Eu171 O189 2.670 . S
Eu171 O190 2.394 . S
C172 C170 1.500 . S
C172 C173 1.377 . S
C172 C177 1.377 . S
C173 C172 1.377 . S
C173 C174 1.395 . S
C173 H196 0.931 . S
C174 C173 1.395 . S
C174 C175 1.383 . S
C174 H197 0.931 . S
C175 C174 1.383 . S
C175 C176 1.394 . S
C176 C175 1.394 . S
C176 C177 1.378 . S
C176 H198 0.931 . S
C177 C172 1.377 . S
C177 C176 1.378 . S
C177 H199 0.931 . S
C178 O188 1.259 . S
C178 O189 1.270 . S
C179 O190 1.251 . S
C179 O191 1.251 . S
O180 C160 1.257 . S
O180 Eu161 2.473 . S
O181 C160 1.260 . S
O181 Eu161 2.480 . S
O182 Eu161 2.430 . S
O182 C168 1.259 . S
O183 Eu161 2.670 . S
O183 C168 1.270 . S
O183 Eu171 2.355 . S
O184 Eu161 2.394 . S
O184 C169 1.251 . S
O185 C169 1.251 . S
O185 Eu171 2.374 . S
O186 C170 1.257 . S
O186 Eu171 2.473 . S
O187 C170 1.260 . S
O187 Eu171 2.480 . S
O188 Eu171 2.430 . S
O188 C178 1.259 . S
O189 Eu161 2.355 . S
O189 Eu171 2.670 . S
O189 C178 1.270 . S
O190 Eu171 2.394 . S
O190 C179 1.251 . S
O191 Eu161 2.374 . S
O191 C179 1.251 . S
H192 C163 0.931 . S
H193 C164 0.931 . S
H194 C166 0.931 . S
H195 C167 0.931 . S
H196 C173 0.931 . S
H197 C174 0.931 . S
H198 C176 0.931 . S
H199 C177 0.931 . S
C200 Eu201 2.835 . S
C200 C202 1.500 . S
C200 O220 1.257 . S
C200 O221 1.260 . S
Eu201 C200 2.835 . S
Eu201 O220 2.473 . S
Eu201 O221 2.480 . S
Eu201 O222 2.430 . S
Eu201 O223 2.670 . S
Eu201 O224 2.394 . S
Eu201 O229 2.355 . S
Eu201 O231 2.374 . S
C202 C200 1.500 . S
C202 C203 1.377 . S
C202 C207 1.377 . S
C203 C202 1.377 . S
C203 C204 1.395 . S
C203 H232 0.931 . S
C204 C203 1.395 . S
C204 C205 1.383 . S
C204 H233 0.931 . S
C205 C204 1.383 . S
C205 C206 1.394 1_545 S
C206 C205 1.394 1_565 S
C206 C207 1.378 1_565 S
C206 H234 0.931 . S
C207 C202 1.377 . S
C207 C206 1.378 1_545 S
C207 H235 0.931 . S
C208 O222 1.259 . S
C208 O223 1.270 . S
C209 O224 1.251 . S
C209 O225 1.251 . S
C210 Eu211 2.835 . S
C210 C212 1.500 . S
C210 O226 1.257 . S
C210 O227 1.260 . S
Eu211 C210 2.835 . S
Eu211 O223 2.355 . S
Eu211 O225 2.374 . S
Eu211 O226 2.473 . S
Eu211 O227 2.480 . S
Eu211 O228 2.430 . S
Eu211 O229 2.670 . S
Eu211 O230 2.394 . S
C212 C210 1.500 . S
C212 C213 1.377 . S
C212 C217 1.377 . S
C213 C212 1.377 . S
C213 C214 1.395 . S
C213 H236 0.931 . S
C214 C213 1.395 . S
C214 C215 1.383 . S
C214 H237 0.931 . S
C215 C214 1.383 . S
C215 C216 1.394 . S
C216 C215 1.394 . S
C216 C217 1.378 . S
C216 H238 0.931 . S
C217 C212 1.377 . S
C217 C216 1.378 . S
C217 H239 0.931 . S
C218 O228 1.259 . S
C218 O229 1.270 . S
C219 O230 1.251 . S
C219 O231 1.251 . S
O220 C200 1.257 . S
O220 Eu201 2.473 . S
O221 C200 1.260 . S
O221 Eu201 2.480 . S
O222 Eu201 2.430 . S
O222 C208 1.259 . S
O223 Eu201 2.670 . S
O223 C208 1.270 . S
O223 Eu211 2.355 . S
O224 Eu201 2.394 . S
O224 C209 1.251 . S
O225 C209 1.251 . S
O225 Eu211 2.374 . S
O226 C210 1.257 . S
O226 Eu211 2.473 . S
O227 C210 1.260 . S
O227 Eu211 2.480 . S
O228 Eu211 2.430 . S
O228 C218 1.259 . S
O229 Eu201 2.355 . S
O229 Eu211 2.670 . S
O229 C218 1.270 . S
O230 Eu211 2.394 . S
O230 C219 1.251 . S
O231 Eu201 2.374 . S
O231 C219 1.251 . S
H232 C203 0.931 . S
H233 C204 0.931 . S
H234 C206 0.931 . S
H235 C207 0.931 . S
H236 C213 0.931 . S
H237 C214 0.931 . S
H238 C216 0.931 . S
H239 C217 0.931 . S
H240 C248 0.950 . S
H241 C253 0.950 . S
H242 C250 0.950 . S
H243 C252 0.950 . S
H244 C254 0.950 . S
H245 C256 0.950 . S
H246 C258 0.950 . S
H247 C259 0.950 . S
C248 H240 0.950 . S
C248 C249 1.386 . S
C248 C250 1.391 . S
C249 C248 1.386 . S
C249 C253 1.393 . S
C250 H242 0.950 . S
C250 C248 1.391 . S
C250 C251 1.400 . S
C251 C250 1.400 . S
C251 C252 1.398 . S
C251 C257 1.491 . S
C252 H243 0.950 . S
C252 C251 1.398 . S
C252 C253 1.391 . S
C253 H241 0.950 . S
C253 C249 1.393 . S
C253 C252 1.391 . S
C254 H244 0.950 . S
C254 C255 1.386 . S
C254 C256 1.391 . S
C255 C254 1.386 . S
C255 C259 1.393 . S
C256 H245 0.950 . S
C256 C254 1.391 . S
C256 C257 1.400 . S
C257 C251 1.491 . S
C257 C256 1.400 . S
C257 C258 1.398 . S
C258 H246 0.950 . S
C258 C257 1.398 . S
C258 C259 1.391 . S
C259 H247 0.950 . S
C259 C255 1.393 . S
C259 C258 1.391 . S
H260 C268 0.950 . S
H261 C273 0.950 . S
H262 C270 0.950 . S
H263 C272 0.950 . S
H264 C274 0.950 . S
H265 C276 0.950 . S
H266 C278 0.950 . S
H267 C279 0.950 . S
C268 H260 0.950 . S
C268 C269 1.386 . S
C268 C270 1.391 . S
C269 C268 1.386 . S
C269 C273 1.393 . S
C270 H262 0.950 . S
C270 C268 1.391 . S
C270 C271 1.400 . S
C271 C270 1.400 . S
C271 C272 1.398 . S
C271 C277 1.491 . S
C272 H263 0.950 . S
C272 C271 1.398 . S
C272 C273 1.391 . S
C273 H261 0.950 . S
C273 C269 1.393 . S
C273 C272 1.391 . S
C274 H264 0.950 . S
C274 C275 1.386 . S
C274 C276 1.391 . S
C275 C274 1.386 . S
C275 C279 1.393 . S
C276 H265 0.950 . S
C276 C274 1.391 . S
C276 C277 1.400 . S
C277 C271 1.491 . S
C277 C276 1.400 . S
C277 C278 1.398 . S
C278 H266 0.950 . S
C278 C277 1.398 . S
C278 C279 1.391 . S
C279 H267 0.950 . S
C279 C275 1.393 . S
C279 C278 1.391 . S
H280 C288 0.950 . S
H281 C293 0.950 . S
H282 C290 0.950 . S
H283 C292 0.950 . S
H284 C294 0.950 . S
H285 C296 0.950 . S
H286 C298 0.950 . S
H287 C299 0.950 . S
C288 H280 0.950 . S
C288 C289 1.386 . S
C288 C290 1.391 . S
C289 C288 1.386 . S
C289 C293 1.393 . S
C290 H282 0.950 . S
C290 C288 1.391 . S
C290 C291 1.400 . S
C291 C290 1.400 . S
C291 C292 1.398 . S
C291 C297 1.491 . S
C292 H283 0.950 . S
C292 C291 1.398 . S
C292 C293 1.391 . S
C293 H281 0.950 . S
C293 C289 1.393 . S
C293 C292 1.391 . S
C294 H284 0.950 . S
C294 C295 1.386 . S
C294 C296 1.391 . S
C295 C294 1.386 . S
C295 C299 1.393 . S
C296 H285 0.950 . S
C296 C294 1.391 . S
C296 C297 1.400 . S
C297 C291 1.491 . S
C297 C296 1.400 . S
C297 C298 1.398 . S
C298 H286 0.950 . S
C298 C297 1.398 . S
C298 C299 1.391 . S
C299 H287 0.950 . S
C299 C295 1.393 . S
C299 C298 1.391 . S
H300 C308 0.950 . S
H301 C313 0.950 . S
H302 C310 0.950 . S
H303 C312 0.950 . S
H304 C314 0.950 . S
H305 C316 0.950 . S
H306 C318 0.950 . S
H307 C319 0.950 . S
C308 H300 0.950 . S
C308 C309 1.386 . S
C308 C310 1.391 . S
C309 C308 1.386 . S
C309 C313 1.393 . S
C310 H302 0.950 . S
C310 C308 1.391 . S
C310 C311 1.400 . S
C311 C310 1.400 . S
C311 C312 1.398 . S
C311 C317 1.491 . S
C312 H303 0.950 . S
C312 C311 1.398 . S
C312 C313 1.391 . S
C313 H301 0.950 . S
C313 C309 1.393 . S
C313 C312 1.391 . S
C314 H304 0.950 . S
C314 C315 1.386 . S
C314 C316 1.391 . S
C315 C314 1.386 . S
C315 C319 1.393 . S
C316 H305 0.950 . S
C316 C314 1.391 . S
C316 C317 1.400 . S
C317 C311 1.491 . S
C317 C316 1.400 . S
C317 C318 1.398 . S
C318 H306 0.950 . S
C318 C317 1.398 . S
C318 C319 1.391 . S
C319 H307 0.950 . S
C319 C315 1.393 . S
C319 C318 1.391 . S
H320 C328 0.950 . S
H321 C333 0.950 . S
H322 C330 0.950 . S
H323 C332 0.950 . S
H324 C334 0.950 . S
H325 C336 0.950 . S
H326 C338 0.950 . S
H327 C339 0.950 . S
C328 H320 0.950 . S
C328 C329 1.386 . S
C328 C330 1.391 . S
C329 C328 1.386 . S
C329 C333 1.393 . S
C330 H322 0.950 . S
C330 C328 1.391 . S
C330 C331 1.400 . S
C331 C330 1.400 . S
C331 C332 1.398 . S
C331 C337 1.491 . S
C332 H323 0.950 . S
C332 C331 1.398 . S
C332 C333 1.391 . S
C333 H321 0.950 . S
C333 C329 1.393 . S
C333 C332 1.391 . S
C334 H324 0.950 . S
C334 C335 1.386 . S
C334 C336 1.391 . S
C335 C334 1.386 . S
C335 C339 1.393 . S
C336 H325 0.950 . S
C336 C334 1.391 . S
C336 C337 1.400 . S
C337 C331 1.491 . S
C337 C336 1.400 . S
C337 C338 1.398 . S
C338 H326 0.950 . S
C338 C337 1.398 . S
C338 C339 1.391 . S
C339 H327 0.950 . S
C339 C335 1.393 . S
C339 C338 1.391 . S
H340 C348 0.950 . S
H341 C353 0.950 . S
H342 C350 0.950 . S
H343 C352 0.950 . S
H344 C354 0.950 . S
H345 C356 0.950 . S
H346 C358 0.950 . S
H347 C359 0.950 . S
C348 H340 0.950 . S
C348 C349 1.386 . S
C348 C350 1.391 . S
C349 C348 1.386 . S
C349 C353 1.393 . S
C350 H342 0.950 . S
C350 C348 1.391 . S
C350 C351 1.400 . S
C351 C350 1.400 . S
C351 C352 1.398 . S
C351 C357 1.491 . S
C352 H343 0.950 . S
C352 C351 1.398 . S
C352 C353 1.391 . S
C353 H341 0.950 . S
C353 C349 1.393 . S
C353 C352 1.391 . S
C354 H344 0.950 . S
C354 C355 1.386 . S
C354 C356 1.391 . S
C355 C354 1.386 . S
C355 C359 1.393 . S
C356 H345 0.950 . S
C356 C354 1.391 . S
C356 C357 1.400 . S
C357 C351 1.491 . S
C357 C356 1.400 . S
C357 C358 1.398 . S
C358 H346 0.950 . S
C358 C357 1.398 . S
C358 C359 1.391 . S
C359 H347 0.950 . S
C359 C355 1.393 . S
C359 C358 1.391 . S
H360 C368 0.950 . S
H361 C373 0.950 . S
H362 C370 0.950 . S
H363 C372 0.950 . S
H364 C374 0.950 . S
H365 C376 0.950 . S
H366 C378 0.950 . S
H367 C379 0.950 . S
C368 H360 0.950 . S
C368 C369 1.386 . S
C368 C370 1.391 . S
C369 C368 1.386 . S
C369 C373 1.393 . S
C370 H362 0.950 . S
C370 C368 1.391 . S
C370 C371 1.400 . S
C371 C370 1.400 . S
C371 C372 1.398 . S
C371 C377 1.491 . S
C372 H363 0.950 . S
C372 C371 1.398 . S
C372 C373 1.391 . S
C373 H361 0.950 . S
C373 C369 1.393 . S
C373 C372 1.391 . S
C374 H364 0.950 . S
C374 C375 1.386 . S
C374 C376 1.391 . S
C375 C374 1.386 . S
C375 C379 1.393 . S
C376 H365 0.950 . S
C376 C374 1.391 . S
C376 C377 1.400 . S
C377 C371 1.491 . S
C377 C376 1.400 . S
C377 C378 1.398 . S
C378 H366 0.950 . S
C378 C377 1.398 . S
C378 C379 1.391 . S
C379 H367 0.950 . S
C379 C375 1.393 . S
C379 C378 1.391 . S
H380 C388 0.950 . S
H381 C393 0.950 1_655 S
H382 C390 0.950 . S
H383 C392 0.950 . S
H384 C394 0.950 . S
H385 C396 0.950 . S
H386 C398 0.950 . S
H387 C399 0.950 1_455 S
C388 H380 0.950 . S
C388 C389 1.386 . S
C388 C390 1.391 . S
C389 C388 1.386 . S
C389 C393 1.393 . S
C390 H382 0.950 . S
C390 C388 1.391 . S
C390 C391 1.400 . S
C391 C390 1.400 . S
C391 C392 1.398 1_455 S
C391 C397 1.491 1_455 S
C392 H383 0.950 . S
C392 C391 1.398 1_655 S
C392 C393 1.391 1_655 S
C393 H381 0.950 1_455 S
C393 C389 1.393 . S
C393 C392 1.391 1_455 S
C394 H384 0.950 . S
C394 C395 1.386 . S
C394 C396 1.391 . S
C395 C394 1.386 . S
C395 C399 1.393 . S
C396 H385 0.950 . S
C396 C394 1.391 . S
C396 C397 1.400 . S
C397 C391 1.491 1_655 S
C397 C396 1.400 . S
C397 C398 1.398 1_655 S
C398 H386 0.950 . S
C398 C397 1.398 1_455 S
C398 C399 1.391 1_455 S
C399 H387 0.950 1_655 S
C399 C395 1.393 . S
C399 C398 1.391 1_655 S
H400 C408 0.950 1_565 S
H401 C413 0.950 . S
H402 C410 0.950 . S
H403 C412 0.950 . S
H404 C414 0.950 1_545 S
H405 C416 0.950 . S
H406 C418 0.950 . S
H407 C419 0.950 . S
C408 H400 0.950 1_545 S
C408 C409 1.386 . S
C408 C410 1.391 1_545 S
C409 C408 1.386 . S
C409 C413 1.393 . S
C410 H402 0.950 . S
C410 C408 1.391 1_565 S
C410 C411 1.400 1_565 S
C411 C410 1.400 1_545 S
C411 C412 1.398 . S
C411 C417 1.491 1_545 S
C412 H403 0.950 . S
C412 C411 1.398 . S
C412 C413 1.391 . S
C413 H401 0.950 . S
C413 C409 1.393 . S
C413 C412 1.391 . S
C414 H404 0.950 1_565 S
C414 C415 1.386 . S
C414 C416 1.391 1_565 S
C415 C414 1.386 . S
C415 C419 1.393 . S
C416 H405 0.950 . S
C416 C414 1.391 1_545 S
C416 C417 1.400 1_545 S
C417 C411 1.491 1_565 S
C417 C416 1.400 1_565 S
C417 C418 1.398 . S
C418 H406 0.950 . S
C418 C417 1.398 . S
C418 C419 1.391 . S
C419 H407 0.950 . S
C419 C415 1.393 . S
C419 C418 1.391 . S
H420 C428 0.950 . S
H421 C433 0.950 . S
H422 C430 0.950 . S
H423 C432 0.950 . S
H424 C434 0.950 . S
H425 C436 0.950 . S
H426 C438 0.950 . S
H427 C439 0.950 . S
C428 H420 0.950 . S
C428 C429 1.386 . S
C428 C430 1.391 . S
C429 C428 1.386 . S
C429 C433 1.393 . S
C430 H422 0.950 . S
C430 C428 1.391 . S
C430 C431 1.400 . S
C431 C430 1.400 . S
C431 C432 1.398 . S
C431 C437 1.491 . S
C432 H423 0.950 . S
C432 C431 1.398 . S
C432 C433 1.391 . S
C433 H421 0.950 . S
C433 C429 1.393 . S
C433 C432 1.391 . S
C434 H424 0.950 . S
C434 C435 1.386 . S
C434 C436 1.391 . S
C435 C434 1.386 . S
C435 C439 1.393 . S
C436 H425 0.950 . S
C436 C434 1.391 . S
C436 C437 1.400 . S
C437 C431 1.491 . S
C437 C436 1.400 . S
C437 C438 1.398 . S
C438 H426 0.950 . S
C438 C437 1.398 . S
C438 C439 1.391 . S
C439 H427 0.950 . S
C439 C435 1.393 . S
C439 C438 1.391 . S
H440 C448 0.950 . S
H441 C453 0.950 1_556 S
H442 C450 0.950 1_655 S
H443 C452 0.950 1_556 S
H444 C454 0.950 1_556 S
H445 C456 0.950 1_456 S
H446 C458 0.950 . S
H447 C459 0.950 . S
C448 H440 0.950 . S
C448 C449 1.386 . S
C448 C450 1.391 . S
C449 C448 1.386 . S
C449 C453 1.393 . S
C450 H442 0.950 1_455 S
C450 C448 1.391 . S
C450 C451 1.400 . S
C451 C450 1.400 . S
C451 C452 1.398 . S
C451 C457 1.491 1_455 S
C452 H443 0.950 1_554 S
C452 C451 1.398 . S
C452 C453 1.391 . S
C453 H441 0.950 1_554 S
C453 C449 1.393 . S
C453 C452 1.391 . S
C454 H444 0.950 1_554 S
C454 C455 1.386 . S
C454 C456 1.391 . S
C455 C454 1.386 . S
C455 C459 1.393 . S
C456 H445 0.950 1_654 S
C456 C454 1.391 . S
C456 C457 1.400 . S
C457 C451 1.491 1_655 S
C457 C456 1.400 . S
C457 C458 1.398 . S
C458 H446 0.950 . S
C458 C457 1.398 . S
C458 C459 1.391 . S
C459 H447 0.950 . S
C459 C455 1.393 . S
C459 C458 1.391 . S
H460 C468 0.950 . S
H461 C473 0.950 . S
H462 C470 0.950 1_545 S
H463 C472 0.950 . S
H464 C474 0.950 . S
H465 C476 0.950 1_565 S
H466 C478 0.950 . S
H467 C479 0.950 . S
C468 H460 0.950 . S
C468 C469 1.386 . S
C468 C470 1.391 . S
C469 C468 1.386 . S
C469 C473 1.393 . S
C470 H462 0.950 1_565 S
C470 C468 1.391 . S
C470 C471 1.400 . S
C471 C470 1.400 . S
C471 C472 1.398 . S
C471 C477 1.491 1_565 S
C472 H463 0.950 . S
C472 C471 1.398 . S
C472 C473 1.391 . S
C473 H461 0.950 . S
C473 C469 1.393 . S
C473 C472 1.391 . S
C474 H464 0.950 . S
C474 C475 1.386 . S
C474 C476 1.391 . S
C475 C474 1.386 . S
C475 C479 1.393 . S
C476 H465 0.950 1_545 S
C476 C474 1.391 . S
C476 C477 1.400 . S
C477 C471 1.491 1_545 S
C477 C476 1.400 . S
C477 C478 1.398 . S
C478 H466 0.950 . S
C478 C477 1.398 . S
C478 C479 1.391 . S
C479 H467 0.950 . S
C479 C475 1.393 . S
C479 C478 1.391 . S
H480 C488 0.950 . S
H481 C493 0.950 . S
H482 C490 0.950 . S
H483 C492 0.950 . S
H484 C494 0.950 . S
H485 C496 0.950 . S
H486 C498 0.950 . S
H487 C499 0.950 . S
C488 H480 0.950 . S
C488 C489 1.386 . S
C488 C490 1.391 . S
C489 C488 1.386 . S
C489 C493 1.393 . S
C490 H482 0.950 . S
C490 C488 1.391 . S
C490 C491 1.400 . S
C491 C490 1.400 . S
C491 C492 1.398 . S
C491 C497 1.491 . S
C492 H483 0.950 . S
C492 C491 1.398 . S
C492 C493 1.391 . S
C493 H481 0.950 . S
C493 C489 1.393 . S
C493 C492 1.391 . S
C494 H484 0.950 . S
C494 C495 1.386 . S
C494 C496 1.391 . S
C495 C494 1.386 . S
C495 C499 1.393 . S
C496 H485 0.950 . S
C496 C494 1.391 . S
C496 C497 1.400 . S
C497 C491 1.491 . S
C497 C496 1.400 . S
C497 C498 1.398 . S
C498 H486 0.950 . S
C498 C497 1.398 . S
C498 C499 1.391 . S
C499 H487 0.950 . S
C499 C495 1.393 . S
C499 C498 1.391 . S
H500 C508 0.950 . S
H501 C513 0.950 . S
H502 C510 0.950 . S
H503 C512 0.950 . S
H504 C514 0.950 . S
H505 C516 0.950 . S
H506 C518 0.950 . S
H507 C519 0.950 . S
C508 H500 0.950 . S
C508 C509 1.386 . S
C508 C510 1.391 . S
C509 C508 1.386 . S
C509 C513 1.393 . S
C510 H502 0.950 . S
C510 C508 1.391 . S
C510 C511 1.400 . S
C511 C510 1.400 . S
C511 C512 1.398 . S
C511 C517 1.491 . S
C512 H503 0.950 . S
C512 C511 1.398 . S
C512 C513 1.391 . S
C513 H501 0.950 . S
C513 C509 1.393 . S
C513 C512 1.391 . S
C514 H504 0.950 . S
C514 C515 1.386 . S
C514 C516 1.391 . S
C515 C514 1.386 . S
C515 C519 1.393 . S
C516 H505 0.950 . S
C516 C514 1.391 . S
C516 C517 1.400 . S
C517 C511 1.491 . S
C517 C516 1.400 . S
C517 C518 1.398 . S
C518 H506 0.950 . S
C518 C517 1.398 . S
C518 C519 1.391 . S
C519 H507 0.950 . S
C519 C515 1.393 . S
C519 C518 1.391 . S
H520 C528 0.950 . S
H521 C533 0.950 . S
H522 C530 0.950 . S
H523 C532 0.950 . S
H524 C534 0.950 . S
H525 C536 0.950 . S
H526 C538 0.950 . S
H527 C539 0.950 . S
C528 H520 0.950 . S
C528 C529 1.386 . S
C528 C530 1.391 . S
C529 C528 1.386 . S
C529 C533 1.393 . S
C530 H522 0.950 . S
C530 C528 1.391 . S
C530 C531 1.400 . S
C531 C530 1.400 . S
C531 C532 1.398 . S
C531 C537 1.491 . S
C532 H523 0.950 . S
C532 C531 1.398 . S
C532 C533 1.391 . S
C533 H521 0.950 . S
C533 C529 1.393 . S
C533 C532 1.391 . S
C534 H524 0.950 . S
C534 C535 1.386 . S
C534 C536 1.391 . S
C535 C534 1.386 . S
C535 C539 1.393 . S
C536 H525 0.950 . S
C536 C534 1.391 . S
C536 C537 1.400 . S
C537 C531 1.491 . S
C537 C536 1.400 . S
C537 C538 1.398 . S
C538 H526 0.950 . S
C538 C537 1.398 . S
C538 C539 1.391 . S
C539 H527 0.950 . S
C539 C535 1.393 . S
C539 C538 1.391 . S
H540 C548 0.950 . S
H541 C553 0.950 . S
H542 C550 0.950 . S
H543 C552 0.950 . S
H544 C554 0.950 . S
H545 C556 0.950 . S
H546 C558 0.950 . S
H547 C559 0.950 . S
C548 H540 0.950 . S
C548 C549 1.386 . S
C548 C550 1.391 . S
C549 C548 1.386 . S
C549 C553 1.393 . S
C550 H542 0.950 . S
C550 C548 1.391 . S
C550 C551 1.400 . S
C551 C550 1.400 . S
C551 C552 1.398 . S
C551 C557 1.491 . S
C552 H543 0.950 . S
C552 C551 1.398 . S
C552 C553 1.391 . S
C553 H541 0.950 . S
C553 C549 1.393 . S
C553 C552 1.391 . S
C554 H544 0.950 . S
C554 C555 1.386 . S
C554 C556 1.391 . S
C555 C554 1.386 . S
C555 C559 1.393 . S
C556 H545 0.950 . S
C556 C554 1.391 . S
C556 C557 1.400 . S
C557 C551 1.491 . S
C557 C556 1.400 . S
C557 C558 1.398 . S
C558 H546 0.950 . S
C558 C557 1.398 . S
C558 C559 1.391 . S
C559 H547 0.950 . S
C559 C555 1.393 . S
C559 C558 1.391 . S
H560 C568 0.950 . S
H561 C573 0.950 . S
H562 C570 0.950 . S
H563 C572 0.950 . S
H564 C574 0.950 . S
H565 C576 0.950 . S
H566 C578 0.950 . S
H567 C579 0.950 . S
C568 H560 0.950 . S
C568 C569 1.386 . S
C568 C570 1.391 . S
C569 C568 1.386 . S
C569 C573 1.393 1_655 S
C570 H562 0.950 . S
C570 C568 1.391 . S
C570 C571 1.400 . S
C571 C570 1.400 . S
C571 C572 1.398 . S
C571 C577 1.491 . S
C572 H563 0.950 . S
C572 C571 1.398 . S
C572 C573 1.391 1_655 S
C573 H561 0.950 . S
C573 C569 1.393 1_455 S
C573 C572 1.391 1_455 S
C574 H564 0.950 . S
C574 C575 1.386 . S
C574 C576 1.391 . S
C575 C574 1.386 . S
C575 C579 1.393 . S
C576 H565 0.950 . S
C576 C574 1.391 . S
C576 C577 1.400 . S
C577 C571 1.491 . S
C577 C576 1.400 . S
C577 C578 1.398 . S
C578 H566 0.950 . S
C578 C577 1.398 . S
C578 C579 1.391 . S
C579 H567 0.950 . S
C579 C575 1.393 . S
C579 C578 1.391 . S
H580 C588 0.950 . S
H581 C593 0.950 . S
H582 C590 0.950 . S
H583 C592 0.950 . S
H584 C594 0.950 . S
H585 C596 0.950 . S
H586 C598 0.950 . S
H587 C599 0.950 . S
C588 H580 0.950 . S
C588 C589 1.386 1_545 S
C588 C590 1.391 1_545 S
C589 C588 1.386 1_565 S
C589 C593 1.393 . S
C590 H582 0.950 . S
C590 C588 1.391 1_565 S
C590 C591 1.400 . S
C591 C590 1.400 . S
C591 C592 1.398 . S
C591 C597 1.491 . S
C592 H583 0.950 . S
C592 C591 1.398 . S
C592 C593 1.391 . S
C593 H581 0.950 . S
C593 C589 1.393 . S
C593 C592 1.391 . S
C594 H584 0.950 . S
C594 C595 1.386 . S
C594 C596 1.391 . S
C595 C594 1.386 . S
C595 C599 1.393 . S
C596 H585 0.950 . S
C596 C594 1.391 . S
C596 C597 1.400 . S
C597 C591 1.491 . S
C597 C596 1.400 . S
C597 C598 1.398 . S
C598 H586 0.950 . S
C598 C597 1.398 . S
C598 C599 1.391 . S
C599 H587 0.950 . S
C599 C595 1.393 . S
C599 C598 1.391 . S
C249 C169 1.137 . S
C255 C15 1.139 . S
C269 C209 1.140 . S
C275 C55 1.137 . S
C289 C9 1.144 . S
C295 C95 1.138 . S
C309 C49 1.137 . S
C315 C135 1.142 . S
C329 C89 1.137 . S
C335 C175 1.139 . S
C349 C129 1.144 . S
C355 C215 1.147 . S
C369 C18 0.887 . S
C375 C138 0.887 . S
C389 C178 0.874 . S
C395 C58 0.875 . S
C409 C218 0.862 . S
C415 C98 0.862 . S
C429 C88 1.046 . S
C435 C208 1.045 . S
C449 C8 1.045 . S
C455 C128 1.045 . S
C469 C168 1.045 . S
C475 C48 1.045 . S
C489 C219 1.186 . S
C495 C5 1.156 . S
C509 C45 1.172 1_455 S
C515 C19 1.192 . S
C529 C85 1.163 1_545 S
C535 C59 1.185 . S
C549 C99 1.186 . S
C555 C125 1.157 . S
C569 C165 1.168 1_655 S
C575 C139 1.185 . S
C589 C205 1.165 1_565 S
C595 C179 1.191 . S
