# Generated by pormake.
# Topology wla, (5)-cn, num edge types: 1
# Building blocks:
#     Node 0, Type 0, BuildingBlock: XOMCOT_clean_sbu_1, # of connection points: 5
#     Node 1, Type 0, BuildingBlock: XOMCOT_clean_sbu_1, # of connection points: 5
#     Node 2, Type 0, BuildingBlock: XOMCOT_clean_sbu_1, # of connection points: 5
#     Node 3, Type 0, BuildingBlock: XOMCOT_clean_sbu_1, # of connection points: 5
#     Node 4, Type 0, BuildingBlock: XOMCOT_clean_sbu_1, # of connection points: 5
#     Node 5, Type 0, BuildingBlock: XOMCOT_clean_sbu_1, # of connection points: 5
#     Node 6, Type 0, BuildingBlock: XOMCOT_clean_sbu_1, # of connection points: 5
#     Node 7, Type 0, BuildingBlock: XOMCOT_clean_sbu_1, # of connection points: 5
#     Node 8, Type 0, BuildingBlock: XOMCOT_clean_sbu_1, # of connection points: 5
#     Node 9, Type 0, BuildingBlock: XOMCOT_clean_sbu_1, # of connection points: 5
#     Node 10, Type 0, BuildingBlock: XOMCOT_clean_sbu_1, # of connection points: 5
#     Node 11, Type 0, BuildingBlock: XOMCOT_clean_sbu_1, # of connection points: 5
#     Node 12, Type 0, BuildingBlock: XOMCOT_clean_sbu_1, # of connection points: 5
#     Node 13, Type 0, BuildingBlock: XOMCOT_clean_sbu_1, # of connection points: 5
#     Node 14, Type 0, BuildingBlock: XOMCOT_clean_sbu_1, # of connection points: 5
#     Node 15, Type 0, BuildingBlock: XOMCOT_clean_sbu_1, # of connection points: 5
#     Node 16, Type 0, BuildingBlock: XOMCOT_clean_sbu_1, # of connection points: 5
#     Node 17, Type 0, BuildingBlock: XOMCOT_clean_sbu_1, # of connection points: 5
#     Edge 18, Type (0, 0), BuildingBlock: EZIPEK_clean_linker_0, # of connection points: 2
#     Edge 19, Type (0, 0), BuildingBlock: EZIPEK_clean_linker_0, # of connection points: 2
#     Edge 20, Type (0, 0), BuildingBlock: EZIPEK_clean_linker_0, # of connection points: 2
#     Edge 21, Type (0, 0), BuildingBlock: EZIPEK_clean_linker_0, # of connection points: 2
#     Edge 22, Type (0, 0), BuildingBlock: EZIPEK_clean_linker_0, # of connection points: 2
#     Edge 23, Type (0, 0), BuildingBlock: EZIPEK_clean_linker_0, # of connection points: 2
#     Edge 24, Type (0, 0), BuildingBlock: EZIPEK_clean_linker_0, # of connection points: 2
#     Edge 25, Type (0, 0), BuildingBlock: EZIPEK_clean_linker_0, # of connection points: 2
#     Edge 26, Type (0, 0), BuildingBlock: EZIPEK_clean_linker_0, # of connection points: 2
#     Edge 27, Type (0, 0), BuildingBlock: EZIPEK_clean_linker_0, # of connection points: 2
#     Edge 28, Type (0, 0), BuildingBlock: EZIPEK_clean_linker_0, # of connection points: 2
#     Edge 29, Type (0, 0), BuildingBlock: EZIPEK_clean_linker_0, # of connection points: 2
#     Edge 30, Type (0, 0), BuildingBlock: EZIPEK_clean_linker_0, # of connection points: 2
#     Edge 31, Type (0, 0), BuildingBlock: EZIPEK_clean_linker_0, # of connection points: 2
#     Edge 32, Type (0, 0), BuildingBlock: EZIPEK_clean_linker_0, # of connection points: 2
#     Edge 33, Type (0, 0), BuildingBlock: EZIPEK_clean_linker_0, # of connection points: 2
#     Edge 34, Type (0, 0), BuildingBlock: EZIPEK_clean_linker_0, # of connection points: 2
#     Edge 35, Type (0, 0), BuildingBlock: EZIPEK_clean_linker_0, # of connection points: 2
#     Edge 36, Type (0, 0), BuildingBlock: EZIPEK_clean_linker_0, # of connection points: 2
#     Edge 37, Type (0, 0), BuildingBlock: EZIPEK_clean_linker_0, # of connection points: 2
#     Edge 38, Type (0, 0), BuildingBlock: EZIPEK_clean_linker_0, # of connection points: 2
#     Edge 39, Type (0, 0), BuildingBlock: EZIPEK_clean_linker_0, # of connection points: 2
#     Edge 40, Type (0, 0), BuildingBlock: EZIPEK_clean_linker_0, # of connection points: 2
#     Edge 41, Type (0, 0), BuildingBlock: EZIPEK_clean_linker_0, # of connection points: 2
#     Edge 42, Type (0, 0), BuildingBlock: EZIPEK_clean_linker_0, # of connection points: 2
#     Edge 43, Type (0, 0), BuildingBlock: EZIPEK_clean_linker_0, # of connection points: 2
#     Edge 44, Type (0, 0), BuildingBlock: EZIPEK_clean_linker_0, # of connection points: 2
#     Edge 45, Type (0, 0), BuildingBlock: EZIPEK_clean_linker_0, # of connection points: 2
#     Edge 46, Type (0, 0), BuildingBlock: EZIPEK_clean_linker_0, # of connection points: 2
#     Edge 47, Type (0, 0), BuildingBlock: EZIPEK_clean_linker_0, # of connection points: 2
#     Edge 48, Type (0, 0), BuildingBlock: EZIPEK_clean_linker_0, # of connection points: 2
#     Edge 49, Type (0, 0), BuildingBlock: EZIPEK_clean_linker_0, # of connection points: 2
#     Edge 50, Type (0, 0), BuildingBlock: EZIPEK_clean_linker_0, # of connection points: 2
#     Edge 51, Type (0, 0), BuildingBlock: EZIPEK_clean_linker_0, # of connection points: 2
#     Edge 52, Type (0, 0), BuildingBlock: EZIPEK_clean_linker_0, # of connection points: 2
#     Edge 53, Type (0, 0), BuildingBlock: EZIPEK_clean_linker_0, # of connection points: 2
#     Edge 54, Type (0, 0), BuildingBlock: EZIPEK_clean_linker_0, # of connection points: 2
#     Edge 55, Type (0, 0), BuildingBlock: EZIPEK_clean_linker_0, # of connection points: 2
#     Edge 56, Type (0, 0), BuildingBlock: EZIPEK_clean_linker_0, # of connection points: 2
#     Edge 57, Type (0, 0), BuildingBlock: EZIPEK_clean_linker_0, # of connection points: 2
#     Edge 58, Type (0, 0), BuildingBlock: EZIPEK_clean_linker_0, # of connection points: 2
#     Edge 59, Type (0, 0), BuildingBlock: EZIPEK_clean_linker_0, # of connection points: 2
#     Edge 60, Type (0, 0), BuildingBlock: EZIPEK_clean_linker_0, # of connection points: 2
#     Edge 61, Type (0, 0), BuildingBlock: EZIPEK_clean_linker_0, # of connection points: 2
#     Edge 62, Type (0, 0), BuildingBlock: EZIPEK_clean_linker_0, # of connection points: 2
# Relax obj value: 0.395
# Max RMSD: 0.238
# Mean RMSD: 0.238
data_MOF--net-wla--node1-XOMCOT_clean_sbu_1--edge1-EZIPEK_clean_linker_0
_symmetry_space_group_name_H-M    P1
_symmetry_Int_Tables_number       1
_symmetry_cell_setting            triclinic
loop_
_symmetry_equiv_pos_as_xyz
'x, y, z'
_cell_length_a     48.270149
_cell_length_b     48.062245
_cell_length_c     20.401045
_cell_angle_alpha  90.102184
_cell_angle_beta   89.938229
_cell_angle_gamma 119.99866
loop_
_atom_site_label
_atom_site_type_symbol
_atom_site_fract_x
_atom_site_fract_y
_atom_site_fract_z
_atom_type_partial_charge
C0 C 0.115 0.03422 0.22575 0.0
C1 C 0.08587 0.00651 0.22578 0.0
N2 N 0.08889 0.98415 0.25947 0.0
N3 N 0.13608 0.02945 0.26027 0.0
C4 C 0.11965 -0.00159 0.27885 0.0
H5 H 0.12047 0.0565 0.20214 0.0
Co6 Co 0.17805 0.06084 0.274 0.0
C7 C 0.19427 0.04994 0.41068 0.0
O8 O 0.20773 0.08107 0.41872 0.0
N9 N 0.22134 0.09373 0.28485 0.0
C10 C 0.26646 0.13978 0.30549 0.0
C11 C 0.23399 0.1225 0.31597 0.0
C12 C 0.24682 0.09468 0.25504 0.0
N13 N 0.27415 0.1224 0.26568 0.0
O14 O 0.19071 0.03747 0.2143 0.0
H15 H 0.22064 0.13097 0.34394 0.0
H16 H 0.24575 0.07609 0.22363 0.0
O17 O 0.18087 0.03785 0.35509 0.0
C18 C 0.18997 0.04621 0.1551 0.0
O19 O 0.18414 0.06984 0.14585 0.0
N20 N 0.16297 0.08378 0.32228 0.0
C21 C 0.11636 0.10092 0.33982 0.0
C22 C 0.12009 0.08151 0.38624 0.0
C23 C 0.14282 0.07206 0.37503 0.0
C24 C 0.16275 0.10655 0.28294 0.0
C25 C 0.13934 0.11517 0.29029 0.0
H26 H 0.14113 0.05243 0.40367 0.0
H27 H 0.17781 0.11455 0.23983 0.0
H28 H 0.12988 0.98633 0.30534 0.0
H29 H 0.06411 0.0029 0.20279 0.0
H30 H 0.28275 0.16403 0.32194 0.0
H31 H 0.10282 0.07032 0.42538 0.0
H32 H 0.13739 0.13044 0.25378 0.0
C33 C 0.96231 0.09614 0.21534 0.0
C34 C -0.01085 0.09311 0.21934 0.0
N35 N 0.00574 0.10907 0.27297 0.0
N36 N 0.96193 0.11379 0.26644 0.0
C37 C -0.01101 0.1216 0.30024 0.0
H38 H 0.9437 0.08523 0.17874 0.0
Co39 Co 0.93 0.12404 0.28445 0.0
C40 C 0.94396 0.13463 0.43181 0.0
O41 O 0.91591 0.10995 0.44651 0.0
N42 N 0.89813 0.13548 0.30114 0.0
C43 C 0.87156 0.15865 0.34205 0.0
C44 C 0.88989 0.14501 0.35687 0.0
C45 C 0.88333 0.14281 0.2535 0.0
N46 N 0.86788 0.1575 0.27693 0.0
O47 O 0.95527 0.16386 0.23747 0.0
H48 H 0.89829 0.14495 0.40532 0.0
H49 H 0.88544 0.13966 0.20184 0.0
O50 O 0.95146 0.14311 0.37157 0.0
C51 C 0.94772 0.15655 0.17692 0.0
O52 O 0.9248 0.1273 0.16297 0.0
N53 N 0.90388 0.08219 0.31753 0.0
C54 C 0.8793 0.01609 0.30646 0.0
C55 C 0.90253 0.03396 0.35355 0.0
C56 C 0.91547 0.06709 0.35601 0.0
C57 C 0.87827 0.06438 0.27761 0.0
C58 C 0.86587 0.03122 0.27045 0.0
H59 H 0.93738 0.08061 0.38208 0.0
H60 H 0.87031 0.07637 0.24419 0.0
H61 H -0.00368 0.13579 0.34456 0.0
H62 H -0.00468 0.07911 0.18713 0.0
H63 H 0.86372 0.17074 0.37577 0.0
H64 H 0.91385 0.02316 0.38133 0.0
H65 H 0.84818 0.01822 0.23289 0.0
C66 C 0.88803 0.8654 0.1933 0.0
C67 C 0.88809 0.89382 0.18583 0.0
N68 N 0.86929 0.89562 0.23265 0.0
N69 N 0.86916 0.84914 0.24434 0.0
C70 C 0.85705 0.86757 0.26539 0.0
H71 H 0.90167 0.85746 0.16472 0.0
Co72 Co 0.86345 0.8094 0.2704 0.0
C73 C 0.84615 0.82831 0.40842 0.0
O74 O 0.85998 0.85957 0.40262 0.0
N75 N 0.85725 0.76874 0.29492 0.0
C76 C 0.86021 0.72938 0.3469 0.0
C77 C 0.87005 0.76168 0.34699 0.0
C78 C 0.83919 0.74013 0.26502 0.0
N79 N 0.84065 0.71613 0.29542 0.0
O80 O 0.82203 0.79011 0.22757 0.0
H81 H 0.88602 0.77891 0.3824 0.0
H82 H 0.82483 0.73635 0.22192 0.0
O83 O 0.84685 0.8107 0.36131 0.0
C84 C 0.82715 0.78601 0.1673 0.0
O85 O 0.85487 0.78855 0.15281 0.0
N86 N 0.90615 0.82968 0.30055 0.0
C87 C 0.9723 0.86902 0.30184 0.0
C88 C 0.95276 0.87842 0.33396 0.0
C89 C 0.91979 0.85846 0.3326 0.0
C90 C 0.92513 0.81932 0.27241 0.0
C91 C 0.95845 0.83824 0.27437 0.0
H92 H 0.90564 0.86819 0.35036 0.0
H93 H 0.9145 0.79747 0.24367 0.0
H94 H 0.83892 0.86042 0.30251 0.0
H95 H 0.90276 0.91286 0.15184 0.0
H96 H 0.86655 0.71659 0.3819 0.0
H97 H 0.96272 0.90226 0.35495 0.0
H98 H 0.97303 0.83042 0.24872 0.0
C99 C 0.00786 0.1083 0.86058 0.0
C100 C -0.01644 0.07708 0.85145 0.0
N101 N 0.9611 0.07756 0.81317 0.0
N102 N 0.00099 0.12828 0.82704 0.0
C103 C 0.97194 0.10875 0.80004 0.0
H104 H 0.02942 0.11572 0.88861 0.0
Co105 Co 0.02526 0.17289 0.81646 0.0
C106 C 0.01308 0.18238 0.67591 0.0
O107 O 0.04299 0.20542 0.67 0.0
N108 N 0.048 0.21759 0.80516 0.0
C109 C 0.05427 0.26662 0.7986 0.0
C110 C 0.03343 0.23449 0.78946 0.0
C111 C 0.07779 0.24004 0.82384 0.0
N112 N 0.08193 0.26989 0.8206 0.0
O113 O -0.00595 0.17658 0.87045 0.0
H114 H 0.00841 0.22389 0.77679 0.0
H115 H 0.09501 0.23466 0.84544 0.0
O116 O 0.00287 0.16836 0.73141 0.0
C117 C 0.00816 0.18602 0.92627 0.0
O118 O 0.03902 0.19667 0.92883 0.0
N119 N 0.05833 0.16824 0.77791 0.0
C120 C 0.09154 0.13476 0.77281 0.0
C121 C 0.07684 0.13805 0.71621 0.0
C122 C 0.05955 0.15435 0.72023 0.0
C123 C 0.07734 0.16997 0.82899 0.0
C124 C 0.09373 0.15301 0.82795 0.0
H125 H 0.0453 0.153 0.67888 0.0
H126 H 0.07585 0.18026 0.87496 0.0
H127 H 0.95909 0.11697 0.76972 0.0
H128 H 0.98285 0.0556 0.86969 0.0
H129 H 0.04887 0.28587 0.79441 0.0
H130 H 0.07524 0.12472 0.67214 0.0
H131 H 0.10503 0.15136 0.8725 0.0
C132 C 0.87959 0.90054 0.84462 0.0
C133 C 0.91047 0.90637 0.84464 0.0
N134 N 0.91043 0.88077 0.81821 0.0
N135 N 0.86006 0.87168 0.81663 0.0
C136 C 0.87961 0.85966 0.80355 0.0
H137 H 0.87213 0.91643 0.86511 0.0
Co138 Co 0.81534 0.85301 0.80462 0.0
C139 C 0.83609 0.83864 0.67464 0.0
O140 O 0.86231 0.86666 0.67699 0.0
N141 N 0.77115 0.83497 0.794 0.0
C142 C 0.72437 0.82453 0.75149 0.0
C143 C 0.75594 0.83458 0.73803 0.0
C144 C 0.74828 0.82496 0.84061 0.0
N145 N 0.71995 0.81873 0.81609 0.0
O146 O 0.80964 0.81761 0.86054 0.0
H147 H 0.76754 0.84324 0.69119 0.0
H148 H 0.75217 0.82384 0.89233 0.0
O149 O 0.81588 0.83033 0.72179 0.0
C150 C 0.80889 0.828 0.91813 0.0
O151 O 0.80779 0.85471 0.92126 0.0
N152 N 0.82141 0.8905 0.76168 0.0
C153 C 0.85438 0.95634 0.74512 0.0
C154 C 0.84747 0.93603 0.6904 0.0
C155 C 0.83051 0.90258 0.69985 0.0
C156 C 0.82078 0.90976 0.80999 0.0
C157 C 0.83803 0.94293 0.80357 0.0
H158 H 0.8266 0.88708 0.65855 0.0
H159 H 0.81111 0.89976 0.85743 0.0
H160 H 0.87151 0.83606 0.7832 0.0
H161 H 0.93143 0.92776 0.8625 0.0
H162 H 0.70661 0.82346 0.71763 0.0
H163 H 0.85792 0.94577 0.64301 0.0
H164 H 0.84137 0.95773 0.84628 0.0
C165 C 0.09671 0.98037 0.86512 0.0
C166 C 0.08979 0.0048 0.87016 0.0
N167 N 0.11225 0.03032 0.83674 0.0
N168 N 0.12311 -0.00963 0.82795 0.0
C169 C 0.13281 0.02134 0.81408 0.0
H170 H 0.0825 0.95635 0.88438 0.0
Co171 Co 0.14116 0.96596 0.80113 0.0
C172 C 0.1531 0.00644 0.66811 0.0
O173 O 0.13425 0.01858 0.6756 0.0
N174 N 0.16064 0.94168 0.77492 0.0
C175 C 0.19486 0.92911 0.72818 0.0
C176 C 0.18394 0.95057 0.72912 0.0
C177 C 0.15822 0.91467 0.80137 0.0
N178 N 0.17868 0.9067 0.77378 0.0
O179 O 0.17965 -0.00325 0.84836 0.0
H180 H 0.19396 0.97224 0.70018 0.0
H181 H 0.14386 0.90239 0.84368 0.0
O182 O 0.1553 0.9888 0.71306 0.0
C183 C 0.18404 0.9865 0.90337 0.0
O184 O 0.17485 0.95595 0.90862 0.0
N185 N 0.10097 0.93464 0.76562 0.0
C186 C 0.03418 0.89886 0.76778 0.0
C187 C 0.05013 0.92671 0.72982 0.0
C188 C 0.08343 0.94391 0.7286 0.0
C189 C 0.08563 0.90583 0.79771 0.0
C190 C 0.05224 0.88681 0.79694 0.0
H191 H 0.09429 0.96701 0.70633 0.0
H192 H 0.09834 0.89924 0.83149 0.0
H193 H 0.15402 0.03685 0.78607 0.0
H194 H 0.06861 0.00317 0.89215 0.0
H195 H 0.21421 0.93062 0.69862 0.0
H196 H 0.03706 0.93682 0.70618 0.0
H197 H 0.04068 0.86515 0.82628 0.0
C198 C 0.77373 0.35784 0.56509 0.0
C199 C 0.74714 0.32779 0.5647 0.0
N200 N 0.7561 0.30629 0.5805 0.0
N201 N 0.79963 0.35577 0.5825 0.0
C202 C 0.78815 0.3237 0.58926 0.0
H203 H 0.77378 0.37958 0.55223 0.0
Co204 Co 0.8423 0.39 0.59168 0.0
C205 C 0.82959 0.35682 0.7234 0.0
O206 O 0.79917 0.34814 0.72086 0.0
N207 N 0.88566 0.42403 0.6016 0.0
C208 C 0.92948 0.47083 0.62538 0.0
C209 C 0.89678 0.45275 0.63227 0.0
C210 C 0.91256 0.42507 0.57874 0.0
N211 N 0.93911 0.45331 0.59135 0.0
O212 O 0.85506 0.36539 0.53587 0.0
H213 H 0.88233 0.46079 0.65734 0.0
H214 H 0.91299 0.40597 0.55157 0.0
O215 O 0.84822 0.37229 0.6756 0.0
C216 C 0.85972 0.37826 0.47873 0.0
O217 O 0.86466 0.4077 0.47518 0.0
N218 N 0.82747 0.41548 0.63223 0.0
C219 C 0.78652 0.44003 0.64354 0.0
C220 C 0.7937 0.42742 0.69879 0.0
C221 C 0.81452 0.41514 0.69207 0.0
C222 C 0.82512 0.433 0.58224 0.0
C223 C 0.80446 0.44521 0.58654 0.0
H224 H 0.81824 0.40399 0.73385 0.0
H225 H 0.83617 0.43394 0.53561 0.0
H226 H 0.80296 0.31333 0.60077 0.0
H227 H 0.723 0.32199 0.55255 0.0
H228 H 0.94485 0.49526 0.64201 0.0
H229 H 0.78105 0.42429 0.74451 0.0
H230 H 0.80014 0.45563 0.54342 0.0
C231 C 0.63044 0.43564 0.53132 0.0
C232 C 0.65753 0.43301 0.52814 0.0
N233 N 0.67671 0.4499 0.57827 0.0
N234 N 0.6324 0.45368 0.58363 0.0
C235 C 0.66136 0.4628 0.60999 0.0
H236 H 0.60994 0.42378 0.49959 0.0
Co237 Co 0.60027 0.46122 0.61358 0.0
C238 C 0.6192 0.48278 0.75226 0.0
O239 O 0.5901 0.46088 0.76883 0.0
N240 N 0.56779 0.46987 0.6441 0.0
C241 C 0.52375 0.46742 0.6861 0.0
C242 C 0.54117 0.45198 0.68076 0.0
C243 C 0.56618 0.4965 0.6299 0.0
N244 N 0.53934 0.49503 0.6526 0.0
O245 O 0.61747 0.49742 0.55298 0.0
H246 H 0.53418 0.42886 0.70207 0.0
H247 H 0.58352 0.51632 0.6007 0.0
O248 O 0.62754 0.48655 0.69136 0.0
C249 C 0.59952 0.48965 0.50166 0.0
O250 O 0.56931 0.46741 0.50781 0.0
N251 N 0.58176 0.4217 0.65795 0.0
C252 C 0.56599 0.35765 0.65614 0.0
C253 C 0.59117 0.37985 0.69532 0.0
C254 C 0.59866 0.41191 0.69563 0.0
C255 C 0.55501 0.39952 0.62552 0.0
C256 C 0.54594 0.36706 0.62605 0.0
H257 H 0.62058 0.42913 0.71809 0.0
H258 H 0.54284 0.40745 0.59253 0.0
H259 H 0.67091 0.4779 0.65253 0.0
H260 H 0.66194 0.41824 0.49438 0.0
H261 H 0.50058 0.45825 0.70906 0.0
H262 H 0.60713 0.37331 0.71925 0.0
H263 H 0.52631 0.35044 0.59522 0.0
C264 C 0.58402 0.21419 0.52082 0.0
C265 C 0.59219 0.24558 0.53256 0.0
N266 N 0.56913 0.2454 0.57012 0.0
N267 N 0.55647 0.19461 0.55244 0.0
C268 C 0.5476 0.21432 0.58072 0.0
H269 H 0.5977 0.20609 0.49301 0.0
Co270 Co 0.53726 0.15042 0.56116 0.0
C271 C 0.52208 0.14489 0.70658 0.0
O272 O 0.53816 0.12964 0.71352 0.0
N273 N 0.51666 0.10514 0.56717 0.0
C274 C 0.48054 0.05386 0.5874 0.0
C275 C 0.49485 0.08466 0.61094 0.0
C276 C 0.51444 0.08582 0.51663 0.0
N277 N 0.49266 0.05478 0.52792 0.0
O278 O 0.50164 0.14632 0.50846 0.0
H279 H 0.48684 0.09106 0.65444 0.0
H280 H 0.52688 0.0945 0.47054 0.0
O281 O 0.51834 0.15325 0.64855 0.0
C282 C 0.50978 0.14783 0.44788 0.0
O283 O 0.53735 0.14983 0.43459 0.0
N284 N 0.57521 0.15619 0.60238 0.0
C285 C 0.64193 0.18936 0.60432 0.0
C286 C 0.62476 0.19858 0.64558 0.0
C287 C 0.59142 0.18152 0.64444 0.0
C288 C 0.59153 0.1442 0.56901 0.0
C289 C 0.62509 0.16011 0.5705 0.0
H290 H 0.57923 0.19228 0.66871 0.0
H291 H 0.57913 0.12483 0.53441 0.0
H292 H 0.52605 0.20622 0.6094 0.0
H293 H 0.61322 0.26688 0.51477 0.0
H294 H 0.46081 0.03281 0.60958 0.0
H295 H 0.6369 0.22081 0.6732 0.0
H296 H 0.63769 0.15186 0.53922 0.0
C297 C 0.64746 0.44591 0.19757 0.0
C298 C 0.62203 0.41631 0.18108 0.0
N299 N 0.61029 0.41924 0.12339 0.0
N300 N 0.65224 0.46706 0.14937 0.0
C301 C 0.62867 0.45007 0.10552 0.0
H302 H 0.66175 0.45149 0.24154 0.0
Co303 Co 0.68354 0.51049 0.1471 0.0
C304 C 0.68029 0.52961 1.00387 0.0
O305 O 0.70926 0.55471 1.00384 0.0
N306 N 0.71375 0.55382 0.14621 0.0
C307 C 0.73229 0.60634 0.15083 0.0
C308 C 0.70724 0.57733 0.13136 0.0
C309 C 0.74272 0.569 0.17545 0.0
N310 N 0.75435 0.60096 0.17878 0.0
O311 O 0.65341 0.52007 0.18968 0.0
H312 H 0.68473 0.57335 0.11179 0.0
H313 H 0.75364 0.55675 0.19919 0.0
O314 O 0.66904 0.51282 0.05619 0.0
C315 C 0.66027 0.52296 0.25101 0.0
O316 O 0.68629 0.52283 0.26917 0.0
N317 N 0.71403 0.49952 0.11691 0.0
C318 C 0.74885 0.46813 0.09794 0.0
C319 C 0.74292 0.48313 0.04521 0.0
C320 C 0.72565 0.49914 0.05594 0.0
C321 C 0.72304 0.48829 0.16927 0.0
C322 C 0.74006 0.47217 0.1609 0.0
H323 H 0.72082 0.50975 1.01457 0.0
H324 H 0.71536 0.49032 0.21792 0.0
H325 H 0.62502 0.45948 0.06038 0.0
H326 H 0.61348 0.39411 0.20803 0.0
H327 H 0.73332 0.62935 0.14896 0.0
H328 H 0.75006 0.48101 0.99595 0.0
H329 H 0.74484 0.46147 0.20295 0.0
C330 C 0.53788 0.2537 0.11994 0.0
C331 C 0.56996 0.26389 0.12056 0.0
N332 N 0.57415 0.24125 0.09101 0.0
N333 N 0.52209 0.22497 0.08945 0.0
C334 C 0.54479 0.21763 0.07385 0.0
H335 H 0.52674 0.26635 0.14091 0.0
Co336 Co 0.47835 0.20232 0.07792 0.0
C337 C 0.4721 0.17263 0.94184 0.0
O338 O 0.45673 0.18711 0.92238 0.0
N339 N 0.43303 0.17993 0.06934 0.0
C340 C 0.38352 0.16832 0.04251 0.0
C341 C 0.41484 0.18332 1.02295 0.0
C342 C 0.4118 0.16345 0.11759 0.0
N343 N 0.3819 0.15669 0.10297 0.0
O344 O 0.47672 0.1719 0.14394 0.0
H345 H 0.42371 0.1996 0.98203 0.0
H346 H 0.4181 0.15893 0.16541 0.0
O347 O 0.48263 0.17714 1.00138 0.0
C348 C 0.47648 0.1835 0.20074 0.0
O349 O 0.47125 0.20785 0.20256 0.0
N350 N 0.48229 0.2357 1.02413 0.0
C351 C 0.51669 0.30179 1.00985 0.0
C352 C 0.51833 0.28201 0.96117 0.0
C353 C 0.50284 0.24885 0.97232 0.0
C354 C 0.47445 0.25427 0.06143 0.0
C355 C 0.4922 0.28759 0.05667 0.0
H356 H 0.51121 0.23514 0.9454 0.0
H357 H 0.45885 0.2438 0.10327 0.0
H358 H 0.5401 0.19546 0.05126 0.0
H359 H 0.58879 0.28607 0.14131 0.0
H360 H 0.36436 0.16987 1.01841 0.0
H361 H 0.53602 0.29227 0.92248 0.0
H362 H 0.48934 0.30188 0.09432 0.0
C363 C 0.77595 0.33041 0.1862 0.0
C364 C 0.77032 0.35572 0.18507 0.0
N365 N 0.78381 0.37294 0.13062 0.0
N366 N 0.79298 0.3316 0.13276 0.0
C367 C 0.79732 0.35785 0.09942 0.0
H368 H 0.7671 0.31153 0.2225 0.0
Co369 Co 0.80197 0.29872 0.11533 0.0
C370 C 0.82306 0.3092 0.97458 0.0
O371 O 0.8006 0.27946 0.96422 0.0
N372 N 0.81035 0.26399 0.10072 0.0
C373 C 0.80356 0.21546 0.07634 0.0
C374 C 0.794 0.23731 0.06285 0.0
C375 C 0.82985 0.25721 0.13669 0.0
N376 N 0.82566 0.22787 0.1237 0.0
O377 O 0.83984 0.32159 0.17031 0.0
H378 H 0.77418 0.23223 0.03102 0.0
H379 H 0.84558 0.27231 0.17484 0.0
O380 O 0.82628 0.3209 0.03276 0.0
C381 C 0.83309 0.31298 0.23048 0.0
O382 O 0.80564 0.28706 0.24336 0.0
N383 N 0.76267 0.27667 0.072 0.0
C384 C 0.6979 0.25439 0.05647 0.0
C385 C 0.72023 0.27928 1.01686 0.0
C386 C 0.75274 0.2902 1.02545 0.0
C387 C 0.74093 0.25077 0.10713 0.0
C388 C 0.70829 0.23844 0.09834 0.0
H389 H 0.76971 0.31177 1.00015 0.0
H390 H 0.74897 0.24148 0.14649 0.0
H391 H 0.80823 0.36466 0.05161 0.0
H392 H 0.75606 0.36029 0.21976 0.0
H393 H 0.79305 0.19121 0.05739 0.0
H394 H 0.71286 0.29222 0.98445 0.0
H395 H 0.69153 0.21927 0.12991 0.0
C396 C 0.44987 0.72059 0.98604 0.0
C397 C 0.42094 0.69263 0.98459 0.0
N398 N 0.42616 0.66817 0.99688 0.0
N399 N 0.47318 0.7139 1.00077 0.0
C400 C 0.45797 0.68149 1.00501 0.0
H401 H 0.45359 0.74399 0.97372 0.0
Co402 Co 0.51718 0.74241 1.00162 0.0
C403 C 0.50549 0.70842 0.13534 0.0
O404 O 0.47533 0.70067 0.13589 0.0
N405 N 0.5616 0.77078 1.00135 0.0
C406 C 0.6115 0.8059 0.03224 0.0
C407 C 0.57966 0.79116 0.04957 0.0
C408 C 0.58303 0.77393 0.95512 0.0
N409 N 0.61321 0.79484 0.97279 0.0
O410 O 0.5218 0.71267 0.94181 0.0
H411 H 0.57041 0.79493 0.0948 0.0
H412 H 0.57735 0.76071 0.90973 0.0
O413 O 0.52327 0.7234 0.08572 0.0
C414 C 0.51873 0.72255 0.88497 0.0
O415 O 0.51853 0.74979 0.88346 0.0
N416 N 0.51075 0.77335 0.04646 0.0
C417 C 0.47222 0.80075 0.05577 0.0
C418 C 0.47639 0.78559 0.11048 0.0
C419 C 0.49547 0.77128 0.10431 0.0
C420 C 0.51281 0.79457 0.99979 0.0
C421 C 0.49321 0.80812 1.00284 0.0
H422 H 0.49523 0.75659 0.14382 0.0
H423 H 0.52567 0.79694 0.95487 0.0
H424 H 0.47004 0.66788 1.0124 0.0
H425 H 0.39801 0.69018 0.97225 0.0
H426 H 0.63176 0.82296 0.06105 0.0
H427 H 0.462 0.78129 0.1541 0.0
H428 H 0.49171 0.82094 0.9606 0.0
C429 C 0.35298 0.81317 0.83498 0.0
C430 C 0.38003 0.81509 0.86204 0.0
N431 N 0.37698 0.81443 0.92764 0.0
N432 N 0.33328 0.81161 0.88348 0.0
C433 C 0.34837 0.81188 0.93948 0.0
H434 H 0.34742 0.81166 0.78333 0.0
Co435 Co 0.29269 0.8064 0.87341 0.0
C436 C 0.31716 0.855 0.98278 0.0
O437 O 0.34202 0.87411 0.94665 0.0
N438 N 0.25185 0.80126 0.86433 0.0
C439 C 0.20005 0.78305 0.84656 0.0
C440 C 0.22299 0.77442 0.85696 0.0
C441 C 0.24581 0.82567 0.85876 0.0
N442 N 0.21478 0.81532 0.84673 0.0
O443 O 0.31095 0.84564 0.8201 0.0
H444 H 0.21887 0.75016 0.85698 0.0
H445 H 0.26404 0.8508 0.86108 0.0
O446 O 0.29665 0.82794 0.95826 0.0
C447 C 0.3029 0.8385 0.75962 0.0
O448 O 0.28238 0.80843 0.74504 0.0
N449 N 0.27566 0.76664 0.914 0.0
C450 C 0.25388 0.70329 0.94929 0.0
C451 C 0.25506 0.72536 0.99599 0.0
C452 C 0.26624 0.75734 0.97718 0.0
C453 C 0.2743 0.74527 0.86849 0.0
C454 C 0.2635 0.7135 0.88504 0.0
H455 H 0.26757 0.77438 1.01316 0.0
H456 H 0.28194 0.75324 0.81878 0.0
H457 H 0.33807 0.8088 0.98791 0.0
H458 H 0.39968 0.81538 0.8358 0.0
H459 H 0.17489 0.76707 0.83674 0.0
H460 H 0.24778 0.71801 0.04616 0.0
H461 H 0.26287 0.697 0.84798 0.0
C462 C 0.243 0.5458 0.87035 0.0
C463 C 0.24846 0.57666 0.87436 0.0
N464 N 0.22928 0.57748 0.92122 0.0
N465 N 0.22081 0.52738 0.91511 0.0
C466 C 0.21245 0.54728 0.94476 0.0
H467 H 0.25525 0.53743 0.83854 0.0
Co468 Co 0.21065 0.48524 0.92976 0.0
C469 C 0.19016 0.47205 0.07069 0.0
O470 O 0.21103 0.46231 0.07639 0.0
N471 N 0.20066 0.44183 0.94207 0.0
C472 C 0.20313 0.39713 0.95955 0.0
C473 C 0.21854 0.42987 0.96774 0.0
C474 C 0.17408 0.41537 0.92014 0.0
N475 N 0.17537 0.38837 0.92928 0.0
O476 O 0.17321 0.47168 0.87336 0.0
H477 H 0.24159 0.44368 0.99091 0.0
H478 H 0.15429 0.41554 0.89591 0.0
O479 O 0.18666 0.48237 1.01448 0.0
C480 C 0.17978 0.46788 0.81399 0.0
O481 O 0.20649 0.46762 0.80338 0.0
N482 N 0.24997 0.50141 0.97306 0.0
C483 C 0.31448 0.54539 0.98985 0.0
C484 C 0.2917 0.54598 0.03131 0.0
C485 C 0.25944 0.52387 1.02182 0.0
C486 C 0.27224 0.49927 0.93537 0.0
C487 C 0.30483 0.52036 0.94457 0.0
H488 H 0.24232 0.5277 0.04803 0.0
H489 H 0.26458 0.48306 0.89389 0.0
H490 H 0.19466 0.54006 0.98272 0.0
H491 H 0.266 0.59722 0.84688 0.0
H492 H 0.2119 0.38113 0.97291 0.0
H493 H 0.29849 0.56531 0.06632 0.0
H494 H 0.32197 0.51953 0.9115 0.0
C495 C 0.32458 0.79099 0.46658 0.0
C496 C 0.29862 0.7604 0.46564 0.0
N497 N 0.28439 0.75544 0.4068 0.0
N498 N 0.32692 0.80529 0.40843 0.0
C499 C 0.30198 0.78288 0.37289 0.0
H500 H 0.3415 0.80167 0.5062 0.0
Co501 Co 0.3606 0.84632 0.38744 0.0
C502 C 0.34732 0.85319 0.24663 0.0
O503 O 0.37463 0.85481 0.23321 0.0
N504 N 0.39524 0.88891 0.36557 0.0
C505 C 0.44213 0.92937 0.33018 0.0
C506 C 0.42068 0.89709 0.32544 0.0
C507 C 0.40173 0.91746 0.39201 0.0
N508 N 0.43043 0.94185 0.37342 0.0
O509 O 0.34138 0.86326 0.44925 0.0
H510 H 0.42493 0.8806 0.29711 0.0
H511 H 0.38691 0.92041 0.42783 0.0
O512 O 0.33726 0.84882 0.30652 0.0
C513 C 0.35753 0.86956 0.5031 0.0
O514 O 0.38704 0.87534 0.49816 0.0
N515 N 0.38099 0.827 0.34483 0.0
C516 C 0.40331 0.78391 0.34865 0.0
C517 C 0.37932 0.77931 0.30389 0.0
C518 C 0.3681 0.80119 0.3032 0.0
C519 C 0.40612 0.83276 0.38425 0.0
C520 C 0.41809 0.81195 0.38588 0.0
H521 H 0.34708 0.79545 0.27464 0.0
H522 H 0.41478 0.85183 0.4202 0.0
H523 H 0.29801 0.78554 0.32197 0.0
H524 H 0.29163 0.74254 0.5039 0.0
H525 H 0.46572 0.9421 0.30835 0.0
H526 H 0.36729 0.7575 0.27502 0.0
H527 H 0.43632 0.81587 0.42157 0.0
C528 C 0.21597 0.57032 0.48098 0.0
C529 C 0.24752 0.57895 0.47284 0.0
N530 N 0.24875 0.55735 0.43279 0.0
N531 N 0.19745 0.54338 0.44629 0.0
C532 C 0.21821 0.53616 0.41694 0.0
H533 H 0.20704 0.58307 0.50979 0.0
Co534 Co 0.15309 0.52315 0.44315 0.0
C535 C 0.15224 0.47669 0.33709 0.0
O536 O 0.15637 0.45845 0.37919 0.0
N537 N 0.10782 0.50244 0.44046 0.0
C538 C 0.05654 0.46852 0.41673 0.0
C539 C 0.08765 0.47895 0.39902 0.0
C540 C 0.08805 0.50586 0.48281 0.0
N541 N 0.05698 0.48537 0.46949 0.0
O542 O 0.15104 0.48983 0.5021 0.0
H543 H 0.09449 0.46905 0.35896 0.0
H544 H 0.09598 0.52247 0.52353 0.0
O545 O 0.15251 0.50176 0.3591 0.0
C546 C 0.14988 0.50026 0.5597 0.0
O547 O 0.14583 0.52528 0.56281 0.0
N548 N 0.15688 0.55862 0.39688 0.0
C549 C 0.18823 0.62426 0.3704 0.0
C550 C 0.18861 0.60266 0.32444 0.0
C551 C 0.1738 0.56995 0.33992 0.0
C552 C 0.15249 0.57877 0.43712 0.0
C553 C 0.16832 0.61179 0.42528 0.0
H554 H 0.17987 0.55507 0.31076 0.0
H555 H 0.14058 0.5701 0.48361 0.0
H556 H 0.21144 0.51595 0.38467 0.0
H557 H 0.26807 0.59967 0.49395 0.0
H558 H 0.03521 0.44959 0.39365 0.0
H559 H 0.20397 0.61151 0.28175 0.0
H560 H 0.1675 0.62766 0.46204 0.0
C561 C 0.44262 0.67612 0.56426 0.0
C562 C 0.43115 0.69572 0.54375 0.0
N563 N 0.43653 0.70056 0.47891 0.0
N564 N 0.45612 0.66962 0.51294 0.0
C565 C 0.4512 0.68418 0.46131 0.0
H566 H 0.44061 0.66677 0.6132 0.0
Co567 Co 0.47308 0.64246 0.51039 0.0
C568 C 0.52245 0.6741 0.39749 0.0
O569 O 0.54637 0.67304 0.42554 0.0
N570 N 0.48928 0.61453 0.50667 0.0
C571 C 0.50337 0.58001 0.46833 0.0
C572 C 0.49313 0.60105 0.45183 0.0
C573 C 0.49628 0.60042 0.55615 0.0
N574 N 0.50523 0.57971 0.53397 0.0
O575 O 0.50788 0.6719 0.56936 0.0
H576 H 0.48714 0.60486 0.4031 0.0
H577 H 0.49378 0.60398 0.60751 0.0
O578 O 0.49594 0.66386 0.42804 0.0
C579 C 0.49941 0.66377 0.6294 0.0
O580 O 0.4718 0.63775 0.64041 0.0
N581 N 0.43727 0.61339 0.46328 0.0
C582 C 0.3747 0.58244 0.41863 0.0
C583 C 0.40017 0.59489 0.37367 0.0
C584 C 0.43167 0.61122 0.39727 0.0
C585 C 0.41289 0.59761 0.5065 0.0
C586 C 0.38137 0.58245 0.48539 0.0
H587 H 0.45105 0.62372 0.36288 0.0
H588 H 0.41795 0.59973 0.55848 0.0
H589 H 0.45741 0.68229 0.41119 0.0
H590 H 0.41894 0.70493 0.57356 0.0
H591 H 0.50748 0.56482 0.4352 0.0
H592 H 0.39572 0.59453 0.32156 0.0
H593 H 0.36235 0.57264 0.52147 0.0
C594 C 0.05625 0.07468 0.32606 0.0
C595 C 0.08651 0.10293 0.33598 0.0
C596 C 0.06252 0.13606 0.309 0.0
C597 C 0.03244 0.10783 0.30128 0.0
N598 N -0.00119 0.052 0.32666 0.0
N599 N 0.11596 0.16011 0.3549 0.0
C600 C 0.02875 0.07768 0.31788 0.0
C601 C 0.0888 0.13356 0.33344 0.0
N602 N 0.05372 0.0452 0.31951 0.0
N603 N 0.06637 0.16501 0.29017 0.0
H604 H 0.13524 0.15879 0.37449 0.0
H605 H 0.11803 0.18267 0.35938 0.0
H606 H 0.04759 0.16755 0.2722 0.0
H607 H 0.08857 0.18595 0.28791 0.0
H608 H 0.03259 0.02478 0.30524 0.0
H609 H 0.07306 0.04139 0.32164 0.0
H610 H -0.00535 0.02983 0.34397 0.0
H611 H 0.97841 0.05421 0.32422 0.0
C612 C 0.84214 0.92622 0.26788 0.0
C613 C 0.87041 0.92477 0.25493 0.0
C614 C 0.90217 0.98288 0.26491 0.0
C615 C 0.87493 0.98437 0.2858 0.0
N616 N 0.81939 0.95635 0.31756 0.0
N617 N 0.92772 0.95102 0.26871 0.0
C618 C 0.8449 0.95569 0.29025 0.0
C619 C 0.90058 0.9529 0.26173 0.0
N620 N 0.81279 0.89996 0.25748 0.0
N621 N 0.92937 0.00992 0.2458 0.0
H622 H 0.9272 0.92919 0.27408 0.0
H623 H 0.95 0.97112 0.27826 0.0
H624 H 0.93075 0.0322 0.24296 0.0
H625 H 0.9489 0.0093 0.2255 0.0
H626 H 0.7916 0.90071 0.25898 0.0
H627 H 0.80977 0.87791 0.24304 0.0
H628 H 0.7978 0.93568 0.3282 0.0
H629 H 0.82075 0.97746 0.33463 0.0
C630 C 0.02648 0.90911 0.34351 0.0
C631 C 0.0061 0.89367 0.28931 0.0
C632 C 0.04706 0.93263 0.21576 0.0
C633 C 0.06388 0.95163 0.27044 0.0
N634 N 0.06782 0.95967 0.38769 0.0
N635 N -0.00459 0.89398 0.17307 0.0
C636 C 0.05354 0.94015 0.33494 0.0
C637 C 0.01611 0.90587 0.22486 0.0
N638 N 0.0195 0.8943 0.40319 0.0
N639 N 0.06061 0.94064 0.15497 0.0
H640 H 0.97181 0.87546 0.17702 0.0
H641 H 0.00079 0.90465 0.1269 0.0
H642 H 0.08343 0.96025 0.14733 0.0
H643 H 0.05066 0.92604 0.11391 0.0
H644 H 0.03489 0.90325 0.44327 0.0
H645 H -0.00024 0.87144 0.41041 0.0
H646 H 0.05907 0.95356 0.43532 0.0
H647 H 0.08669 0.98317 0.38346 0.0
C648 C 0.13344 0.08912 0.82646 0.0
C649 C 0.10937 0.05705 0.8134 0.0
C650 C 0.0743 0.07574 0.77184 0.0
C651 C 0.09901 0.10823 0.77988 0.0
N652 N 0.15477 0.14555 0.80104 0.0
N653 N 0.06241 0.02147 0.75115 0.0
C654 C 0.12955 0.11485 0.80271 0.0
C655 C 0.08163 0.05093 0.77857 0.0
N656 N 0.15922 0.0949 0.8638 0.0
N657 N 0.04323 0.06803 0.76343 0.0
H658 H 0.06812 0.00321 0.75207 0.0
H659 H 0.04311 0.01671 0.72092 0.0
H660 H 0.03586 0.08497 0.76428 0.0
H661 H 0.02437 0.04436 0.76422 0.0
H662 H 0.17605 0.11772 0.88037 0.0
H663 H 0.16227 0.07645 0.88264 0.0
H664 H 0.17814 0.15141 0.81206 0.0
H665 H 0.1527 0.16465 0.78244 0.0
C666 C 0.93881 0.02893 0.74472 0.0
C667 C 0.93384 0.05015 0.78415 0.0
C668 C 0.87609 0.01477 0.77158 0.0
C669 C 0.88145 -0.00978 0.74652 0.0
N670 N 0.92021 0.97342 0.72068 0.0
N671 N 0.8973 0.06289 0.8385 0.0
C672 C 0.91342 -0.00284 0.73509 0.0
C673 C 0.90229 0.04326 0.79781 0.0
N674 N 0.96779 0.03938 0.71579 0.0
N675 N 0.84599 0.01064 0.77064 0.0
H676 H 0.91602 0.08352 0.85952 0.0
H677 H 0.87472 0.0573 0.8554 0.0
H678 H 0.82661 -0.00978 0.75041 0.0
H679 H 0.84103 0.02867 0.78367 0.0
H680 H 0.97212 0.02548 0.68255 0.0
H681 H -0.01416 0.06335 0.71881 0.0
H682 H 0.94356 0.97759 0.71843 0.0
H683 H 0.90309 0.94916 0.7181 0.0
C684 C 0.97813 0.87913 0.72992 0.0
C685 C -0.00046 0.88568 0.78283 0.0
C686 C 0.95666 0.87757 0.85889 0.0
C687 C 0.93842 0.8782 0.80558 0.0
N688 N 0.93573 0.88729 0.69049 0.0
N689 N 0.00985 0.89605 0.89971 0.0
C690 C 0.94986 0.88048 0.74081 0.0
C691 C -0.01108 0.88566 0.84827 0.0
N692 N -0.01466 0.87275 0.66903 0.0
N693 N 0.94329 0.87009 0.91988 0.0
H694 H 0.03415 0.90418 0.89515 0.0
H695 H 0.0036 0.89961 0.9466 0.0
H696 H 0.91967 0.86433 0.92836 0.0
H697 H 0.95451 0.86653 0.96 0.0
H698 H 0.96934 0.86566 0.62989 0.0
H699 H 0.00589 0.87132 0.65999 0.0
H700 H 0.94458 0.89155 0.64272 0.0
H701 H 0.91796 0.89307 0.69882 0.0
C702 C 0.73455 0.47611 0.60319 0.0
C703 C 0.70388 0.44827 0.60236 0.0
C704 C 0.72669 0.41536 0.63766 0.0
C705 C 0.75753 0.44339 0.64016 0.0
N706 N 0.78977 0.50106 0.63973 0.0
N707 N 0.66939 0.39369 0.63668 0.0
C708 C 0.76107 0.47405 0.62772 0.0
C709 C 0.69956 0.41862 0.62537 0.0
N710 N 0.73843 0.50409 0.57773 0.0
N711 N 0.72329 0.38545 0.64278 0.0
H712 H 0.64901 0.39546 0.62874 0.0
H713 H 0.66473 0.3725 0.65997 0.0
H714 H 0.74216 0.3814 0.65208 0.0
H715 H 0.70194 0.36439 0.63266 0.0
H716 H 0.76066 0.52456 0.57072 0.0
H717 H 0.71937 0.50604 0.55898 0.0
H718 H 0.79328 0.52423 0.63697 0.0
H719 H 0.80939 0.50006 0.65838 0.0
C720 C 0.5609 0.30379 0.68081 0.0
C721 C 0.5653 0.3277 0.63466 0.0
C722 C 0.56748 0.29456 0.54584 0.0
C723 C 0.56722 0.27277 0.59237 0.0
N724 N 0.56965 0.25942 0.70523 0.0
N725 N 0.58161 0.34921 0.52497 0.0
C726 C 0.56545 0.27803 0.66035 0.0
C727 C 0.571 0.32404 0.56756 0.0
N728 N 0.55187 0.30535 0.74356 0.0
N729 N 0.56353 0.28677 0.4808 0.0
H730 H 0.58621 0.37188 0.53908 0.0
H731 H 0.58925 0.34851 0.47749 0.0
H732 H 0.56003 0.26489 0.46313 0.0
H733 H 0.56033 0.30056 0.44548 0.0
H734 H 0.54544 0.28699 0.77761 0.0
H735 H 0.54802 0.32376 0.75976 0.0
H736 H 0.57149 0.26396 0.75544 0.0
H737 H 0.57449 0.24135 0.69176 0.0
C738 C 0.69807 0.22393 0.64512 0.0
C739 C 0.67646 0.21297 0.5915 0.0
C740 C 0.71708 0.25699 0.52472 0.0
C741 C 0.73469 0.27189 0.58194 0.0
N742 N 0.74374 0.26886 0.69696 0.0
N743 N 0.66563 0.2199 0.47831 0.0
C744 C 0.72615 0.25482 0.64208 0.0
C745 C 0.68632 0.22919 0.53008 0.0
N746 N 0.69136 0.20478 0.699 0.0
N747 N 0.72981 0.27023 0.46529 0.0
H748 H 0.64299 0.19965 0.47858 0.0
H749 H 0.6702 0.23354 0.43588 0.0
H750 H 0.75243 0.29067 0.4612 0.0
H751 H 0.71966 0.25926 0.42073 0.0
H752 H 0.70717 0.21004 0.73791 0.0
H753 H 0.67102 0.18201 0.70162 0.0
H754 H 0.7366 0.25967 0.74401 0.0
H755 H 0.76523 0.29043 0.69538 0.0
C756 C 0.74831 0.38922 0.07841 0.0
C757 C 0.7784 0.39789 0.10598 0.0
C758 C 0.7928 0.45464 0.10634 0.0
C759 C 0.76093 0.44528 0.0883 0.0
N760 N 0.70823 0.40407 0.05523 0.0
N761 N 0.83036 0.43794 0.14267 0.0
C762 C 0.73884 0.41274 0.07234 0.0
C763 C 0.80121 0.43051 0.11785 0.0
N764 N 0.7288 0.3582 0.05873 0.0
N765 N 0.81473 0.48657 0.11248 0.0
H766 H 0.8372 0.42065 0.14832 0.0
H767 H 0.84736 0.46068 0.15904 0.0
H768 H 0.80893 0.50445 0.10377 0.0
H769 H 0.83894 0.49553 0.12152 0.0
H770 H 0.70767 0.35032 0.03261 0.0
H771 H 0.73517 0.34058 0.06445 0.0
H772 H 0.68977 0.38038 0.05174 0.0
H773 H 0.70087 0.42077 0.04701 0.0
C774 C 0.59859 0.37387 0.05154 0.0
C775 C 0.58833 0.39339 0.08198 0.0
C776 C 0.53497 0.35953 0.03627 0.0
C777 C 0.54314 0.3356 1.02102 0.0
N778 N 0.58457 0.32031 1.02135 0.0
N779 N 0.54714 0.40626 0.10292 0.0
C780 C 0.57561 0.34297 0.02903 0.0
C781 C 0.55667 0.38692 0.07348 0.0
N782 N 0.63051 0.38491 0.04466 0.0
N783 N 0.50656 0.35595 1.015 0.0
H784 H 0.56292 0.42663 0.12966 0.0
H785 H 0.52343 0.40098 0.10418 0.0
H786 H 0.49083 0.33653 0.98592 0.0
H787 H 0.50024 0.37361 1.02053 0.0
H788 H 0.6394 0.3733 1.01555 0.0
H789 H 0.64777 0.4075 0.06159 0.0
H790 H 0.60719 0.32438 0.03431 0.0
H791 H 0.56942 0.29654 1.00864 0.0
C792 C 0.6561 0.25598 0.12634 0.0
C793 C 0.6653 0.24966 0.06438 0.0
C794 C 0.61458 0.24005 1.01793 0.0
C795 C 0.60405 0.2421 0.08176 0.0
N796 N 0.61172 0.24338 0.19849 0.0
N797 N 0.65099 0.2302 0.9534 0.0
C798 C 0.62388 0.24734 0.13658 0.0
C799 C 0.6438 0.23995 1.01067 0.0
N800 N 0.6783 0.27188 0.17428 0.0
N801 N 0.5977 0.24001 0.96426 0.0
H802 H 0.67207 0.2295 0.94682 0.0
H803 H 0.63477 0.2201 0.91488 0.0
H804 H 0.57699 0.2416 0.96761 0.0
H805 H 0.60605 0.24175 0.91647 0.0
H806 H 0.67282 0.27936 0.21797 0.0
H807 H 0.70275 0.28099 0.16752 0.0
H808 H 0.62472 0.24442 0.24012 0.0
H809 H 0.58762 0.23544 0.2075 0.0
C810 C 0.42401 0.83878 1.00061 0.0
C811 C 0.39741 0.81108 0.97431 0.0
C812 C 0.41362 0.77682 0.03136 0.0
C813 C 0.44354 0.8045 0.04658 0.0
N814 N 0.47608 0.86193 0.05359 0.0
N815 N 0.36635 0.75382 0.96253 0.0
C816 C 0.44811 0.83562 0.03455 0.0
C817 C 0.39177 0.7801 0.99013 0.0
N818 N 0.42612 0.86795 0.99205 0.0
N819 N 0.40589 0.7474 0.05603 0.0
H820 H 0.34929 0.75536 0.93386 0.0
H821 H 0.36334 0.73081 0.96421 0.0
H822 H 0.42078 0.74344 0.08646 0.0
H823 H 0.3832 0.72725 0.05185 0.0
H824 H 0.44363 0.88917 1.01341 0.0
H825 H 0.40875 0.87042 0.96648 0.0
H826 H 0.48281 0.88542 0.04084 0.0
H827 H 0.49304 0.85992 0.08178 0.0
C828 C 0.2126 0.6453 0.94314 0.0
C829 C 0.24318 0.66928 0.9652 0.0
C830 C 0.2588 0.62853 0.98099 0.0
C831 C 0.23094 0.60619 0.94683 0.0
N832 N 0.1802 0.59156 0.89835 0.0
N833 N 0.29502 0.68433 1.00955 0.0
C834 C 0.2071 0.61384 0.93013 0.0
C835 C 0.26595 0.66093 0.98696 0.0
N836 N 0.18925 0.65304 0.93371 0.0
N837 N 0.27837 0.61845 1.00684 0.0
H838 H 0.30041 0.70801 1.01667 0.0
H839 H 0.31414 0.68069 1.01918 0.0
H840 H 0.27316 0.59468 1.00279 0.0
H841 H 0.29801 0.6326 0.0365 0.0
H842 H 0.16566 0.63637 0.92203 0.0
H843 H 0.19303 0.67604 0.94319 0.0
H844 H 0.16332 0.59643 0.87797 0.0
H845 H 0.1754 0.56816 0.89014 0.0
C846 C 0.3566 0.5944 0.93125 0.0
C847 C 0.34697 0.57396 0.98714 0.0
C848 C 0.39262 0.615 0.04865 0.0
C849 C 0.40264 0.63469 0.9921 0.0
N850 N 0.4004 0.63925 0.87543 0.0
N851 N 0.36008 0.56137 0.09282 0.0
C852 C 0.38672 0.62287 0.93186 0.0
C853 C 0.36657 0.5831 0.04378 0.0
N854 N 0.33618 0.58824 0.87983 0.0
N855 N 0.40659 0.62741 0.10767 0.0
H856 H 0.34119 0.53772 0.09006 0.0
H857 H 0.37511 0.56586 0.13289 0.0
H858 H 0.42517 0.65093 0.11274 0.0
H859 H 0.3981 0.61532 0.15197 0.0
H860 H 0.34107 0.60442 0.84164 0.0
H861 H 0.31307 0.56866 0.87803 0.0
H862 H 0.39114 0.63036 0.82905 0.0
H863 H 0.42285 0.66005 0.875 0.0
C864 C 0.44949 0.74357 0.39712 0.0
C865 C 0.42674 0.71797 0.43648 0.0
C866 C 0.3869 0.73331 0.41167 0.0
C867 C 0.40885 0.75749 0.36846 0.0
N868 N 0.45821 0.78041 0.30798 0.0
N869 N 0.37139 0.68237 0.46323 0.0
C870 C 0.43912 0.76056 0.35656 0.0
C871 C 0.39455 0.71072 0.43743 0.0
N872 N 0.48126 0.75348 0.40256 0.0
N873 N 0.3602 0.73355 0.43306 0.0
H874 H 0.37627 0.6648 0.48023 0.0
H875 H 0.34709 0.67494 0.46038 0.0
H876 H 0.35497 0.75136 0.42007 0.0
H877 H 0.34515 0.71805 0.46923 0.0
H878 H 0.49903 0.77411 0.37975 0.0
H879 H 0.49009 0.74324 0.43542 0.0
H880 H 0.47946 0.78152 0.29353 0.0
H881 H 0.45103 0.79327 0.27808 0.0
C882 C 0.26897 0.70174 0.36574 0.0
C883 C 0.26013 0.72466 0.38222 0.0
C884 C 0.2037 0.68312 0.37168 0.0
C885 C 0.21286 0.65921 0.3685 0.0
N886 N 0.25573 0.64692 0.37921 0.0
N887 N 0.21923 0.73794 0.40292 0.0
C888 C 0.24595 0.66877 0.36922 0.0
C889 C 0.22744 0.71563 0.38521 0.0
N890 N 0.29959 0.71164 0.34714 0.0
N891 N 0.17258 0.67481 0.36105 0.0
H892 H 0.2364 0.76196 0.41108 0.0
H893 H 0.19582 0.73229 0.41279 0.0
H894 H 0.15495 0.65136 0.34962 0.0
H895 H 0.16493 0.69153 0.3577 0.0
H896 H 0.307 0.69594 0.32999 0.0
H897 H 0.3162 0.73592 0.34143 0.0
H898 H 0.27964 0.65363 0.38662 0.0
H899 H 0.24001 0.62273 0.38836 0.0
C900 C 0.33248 0.5942 0.37522 0.0
C901 C 0.34109 0.57175 0.39938 0.0
C902 C 0.2856 0.53545 0.43225 0.0
C903 C 0.27748 0.55835 0.41023 0.0
N904 N 0.28919 0.60235 0.33893 0.0
N905 N 0.3241 0.51704 0.42856 0.0
C906 C 0.29969 0.58525 0.37382 0.0
C907 C 0.31684 0.54082 0.4197 0.0
N908 N 0.3553 0.62479 0.3589 0.0
N909 N 0.26441 0.50993 0.46908 0.0
H910 H 0.34693 0.52062 0.41905 0.0
H911 H 0.30696 0.49331 0.43873 0.0
H912 H 0.24149 0.50559 0.47997 0.0
H913 H 0.27036 0.4944 0.49254 0.0
H914 H 0.34993 0.6427 0.34753 0.0
H915 H 0.37975 0.63335 0.36159 0.0
H916 H 0.30374 0.62096 0.30719 0.0
H917 H 0.26493 0.59521 0.33648 0.0
C918 C 0.34608 0.17145 0.15997 0.0
C919 C 0.35684 0.14928 0.14973 0.0
C920 C 0.31803 0.11344 0.23046 0.0
C921 C 0.30351 0.13282 0.23039 0.0
N922 N 0.29968 0.1764 0.18028 0.0
N923 N 0.35142 0.09755 0.17091 0.0
C924 C 0.31647 0.16094 0.19141 0.0
C925 C 0.34251 0.11981 0.18417 0.0
N926 N 0.36451 0.20276 0.14135 0.0
N927 N 0.30874 0.08944 0.2755 0.0
H928 H 0.36894 0.10146 0.13633 0.0
H929 H 0.33967 0.07439 0.19017 0.0
H930 H 0.29158 0.08512 0.31129 0.0
H931 H 0.32022 0.07614 0.28137 0.0
H932 H 0.35847 0.22026 0.15236 0.0
H933 H 0.38755 0.21188 0.12261 0.0
H934 H 0.30745 0.19551 0.14755 0.0
H935 H 0.2764 0.16781 0.19687 0.0
C936 C 0.86927 0.22004 0.1647 0.0
C937 C 0.83645 0.21054 0.16362 0.0
C938 C 0.82426 0.16503 0.23533 0.0
C939 C 0.85725 0.17567 0.23947 0.0
N940 N 0.91178 0.2174 0.2221 0.0
N941 N 0.78383 0.1792 0.21052 0.0
C942 C 0.88002 0.20442 0.20815 0.0
C943 C 0.81416 0.18442 0.20251 0.0
N944 N 0.8899 0.24335 0.12282 0.0
N945 N 0.80268 0.13613 0.26189 0.0
H946 H 0.7762 0.19405 0.1899 0.0
H947 H 0.76735 0.16228 0.2429 0.0
H948 H 0.8097 0.12168 0.28669 0.0
H949 H 0.77808 0.12545 0.25495 0.0
H950 H 0.9136 0.24909 0.11657 0.0
H951 H 0.88247 0.25505 0.09029 0.0
H952 H 0.92928 0.23989 0.20545 0.0
H953 H 0.92032 0.20683 0.25492 0.0
C954 C 0.77605 0.63004 0.2819 0.0
C955 C 0.78102 0.62443 0.21603 0.0
C956 C 0.83195 0.67481 0.21453 0.0
C957 C 0.82381 0.68312 0.27522 0.0
N958 N 0.78804 0.66966 0.36706 0.0
N959 N 0.81358 0.63947 0.11957 0.0
C960 C 0.79623 0.66069 0.30999 0.0
C961 C 0.80937 0.64601 0.18274 0.0
N962 N 0.75152 0.60621 0.3166 0.0
N963 N 0.86113 0.69499 0.18747 0.0
H964 H 0.79756 0.61786 0.0967 0.0
H965 H 0.83204 0.65558 0.08941 0.0
H966 H 0.87785 0.71613 0.21083 0.0
H967 H 0.86971 0.6897 0.14521 0.0
H968 H 0.74808 0.60768 0.36659 0.0
H969 H 0.73634 0.58369 0.29638 0.0
H970 H 0.7663 0.65575 0.39093 0.0
H971 H 0.8022 0.6921 0.38863 0.0
C972 C 0.13196 0.32117 0.80908 0.0
C973 C 0.10724 0.29849 0.8496 0.0
C974 C 0.12871 0.33463 0.94404 0.0
C975 C 0.1534 0.35728 0.90345 0.0
N976 N 0.1816 0.37226 0.80094 0.0
N977 N 0.08185 0.28152 0.95487 0.0
C978 C 0.15594 0.35052 0.83683 0.0
C979 C 0.10568 0.30456 0.91718 0.0
N980 N 0.13167 0.31466 0.74377 0.0
N981 N 0.12703 0.34268 1.00762 0.0
H982 H 0.06376 0.26004 0.9355 0.0
H983 H 0.0802 0.28295 1.00546 0.0
H984 H 0.14415 0.36441 0.02812 0.0
H985 H 0.10853 0.32863 0.0398 0.0
H986 H 0.1472 0.33099 0.7094 0.0
H987 H 0.11471 0.29282 0.72322 0.0
H988 H 0.18645 0.36834 0.75319 0.0
H989 H 0.19927 0.39402 0.82039 0.0
C990 C 0.65939 0.8319 0.90536 0.0
C991 C 0.64126 0.80167 0.93606 0.0
C992 C 0.67312 0.78184 0.88124 0.0
C993 C 0.69258 0.8127 0.85427 0.0
N994 N 0.70844 0.86872 0.84892 0.0
N995 N 0.63325 0.74944 0.96254 0.0
C996 C 0.6869 0.83826 0.86862 0.0
C997 C 0.64881 0.77701 0.92656 0.0
N998 N 0.64948 0.85395 0.90933 0.0
N999 N 0.67772 0.75718 0.86227 0.0
H1000 H 0.61591 0.74577 0.99738 0.0
H1001 H 0.63932 0.73148 0.96214 0.0
H1002 H 0.6956 0.76041 0.82921 0.0
H1003 H 0.66251 0.7333 0.87515 0.0
H1004 H 0.65977 0.87521 0.88251 0.0
H1005 H 0.62924 0.84978 0.9357 0.0
H1006 H 0.70739 0.88895 0.86351 0.0
H1007 H 0.72892 0.8741 0.82211 0.0
C1008 C 0.19029 0.8352 0.76632 0.0
C1009 C 0.20171 0.83555 0.83055 0.0
C1010 C 0.19921 0.8839 0.85629 0.0
C1011 C 0.18515 0.8819 0.7943 0.0
N1012 N 0.16156 0.85251 0.6952 0.0
N1013 N 0.2108 0.85583 0.9408 0.0
C1014 C 0.1788 0.85643 0.75088 0.0
C1015 C 0.20403 0.8585 0.87696 0.0
N1016 N 0.19236 0.81619 0.71901 0.0
N1017 N 0.20989 0.91101 0.89335 0.0
H1018 H 0.21397 0.83703 0.95711 0.0
H1019 H 0.21018 0.87028 0.97821 0.0
H1020 H 0.20888 0.931 0.87704 0.0
H1021 H 0.22286 0.91502 0.93653 0.0
H1022 H 0.18743 0.81745 0.66976 0.0
H1023 H 0.20199 0.80139 0.72763 0.0
H1024 H 0.1536 0.83263 0.66445 0.0
H1025 H 0.15278 0.86776 0.68316 0.0
C1026 C -0.00935 0.45438 0.59416 0.0
C1027 C 0.97038 0.46408 0.56446 0.0
C1028 C 0.01059 0.49311 0.4797 0.0
C1029 C 0.02938 0.48072 0.50547 0.0
N1030 N 0.03741 0.44809 0.58364 0.0
N1031 N 0.95877 0.48979 0.47629 0.0
C1032 C 0.01959 0.46116 0.56224 0.0
C1033 C 0.97985 0.48294 0.5067 0.0
N1034 N 0.98208 0.43892 0.65311 0.0
N1035 N 0.02252 0.5148 0.42962 0.0
H1036 H 0.93604 0.48253 0.49494 0.0
H1037 H 0.9628 0.50067 0.43052 0.0
H1038 H 0.04501 0.52237 0.40916 0.0
H1039 H 0.01148 0.52714 0.4119 0.0
H1040 H -0.00318 0.43343 0.68074 0.0
H1041 H 0.96074 0.43349 0.6766 0.0
H1042 H 0.03024 0.4311 0.62086 0.0
H1043 H 0.05885 0.45302 0.56137 0.0
C1044 C 0.49078 0.52479 0.56503 0.0
C1045 C 0.51123 0.55825 0.57224 0.0
C1046 C 0.54475 0.54858 0.64783 0.0
C1047 C 0.52742 0.51556 0.63152 0.0
N1048 N 0.48727 0.47296 0.56454 0.0
N1049 N 0.55946 0.60276 0.61552 0.0
C1050 C 0.50104 0.50367 0.58795 0.0
C1051 C 0.53857 0.57047 0.61304 0.0
N1052 N 0.46144 0.5133 0.53673 0.0
N1053 N 0.56708 0.55875 0.69652 0.0
H1054 H 0.55596 0.61929 0.58904 0.0
H1055 H 0.5814 0.61293 0.63957 0.0
H1056 H 0.57155 0.5428 0.72283 0.0
H1057 H 0.57885 0.58215 0.71465 0.0
H1058 H 0.44435 0.48895 0.53523 0.0
H1059 H 0.45301 0.52841 0.52127 0.0
H1060 H 0.47009 0.46431 0.52755 0.0
H1061 H 0.49519 0.4571 0.5769 0.0
C1062 C 0.47364 0.97702 0.44991 0.0
C1063 C 0.44823 0.97193 0.40742 0.0
C1064 C 0.45279 0.02254 0.44355 0.0
C1065 C 0.47971 0.02869 0.48197 0.0
N1066 N 0.51919 0.01515 0.51442 0.0
N1067 N 0.41671 -0.00856 0.35539 0.0
C1068 C 0.49138 0.00703 0.48223 0.0
C1069 C 0.43881 -0.00469 0.40158 0.0
N1070 N 0.4793 0.95243 0.46298 0.0
N1071 N 0.43979 0.04195 0.44965 0.0
H1072 H 0.40617 0.97149 0.32434 0.0
H1073 H 0.41087 0.00903 0.34435 0.0
H1074 H 0.44981 0.06232 0.47951 0.0
H1075 H 0.41818 0.03688 0.42825 0.0
H1076 H 0.49548 0.95379 0.49831 0.0
H1077 H 0.46559 0.92947 0.44331 0.0
H1078 H 0.53071 0.00176 0.51153 0.0
H1079 H 0.5321 0.03685 0.53964 0.0
C1080 C 0.16191 0.00038 0.48304 0.0
C1081 C 0.18978 0.03043 0.47212 0.0
C1082 C 0.19977 0.03655 0.59139 0.0
C1083 C 0.16855 0.01039 0.60241 0.0
N1084 N 0.12081 0.96497 0.55961 0.0
N1085 N 0.24216 0.06769 0.5129 0.0
C1086 C 0.15008 -0.00871 0.5484 0.0
C1087 C 0.21097 0.04554 0.52569 0.0
N1088 N 0.14835 0.97965 0.43189 0.0
N1089 N 0.21794 0.05384 0.64367 0.0
H1090 H 0.25104 0.07284 0.46506 0.0
H1091 H 0.25977 0.07824 0.5487 0.0
H1092 H 0.21085 0.04692 0.69208 0.0
H1093 H 0.23931 0.07552 0.63939 0.0
H1094 H 0.12871 0.95661 0.43634 0.0
H1095 H 0.16004 0.9838 0.38699 0.0
H1096 H 0.10423 0.95249 0.52281 0.0
H1097 H 0.11283 0.95619 0.60661 0.0
C1098 C -0.01406 0.1396 0.58931 0.0
C1099 C -0.0066 0.17008 0.61487 0.0
C1100 C 0.97141 0.18011 0.51395 0.0
C1101 C 0.96672 0.1508 0.48717 0.0
N1102 N 0.98093 0.10953 0.49122 0.0
N1103 N -0.00376 0.22116 0.5983 0.0
C1104 C 0.9773 0.13258 0.52256 0.0
C1105 C -0.01281 0.19099 0.57593 0.0
N1106 N -0.01326 0.11693 0.62813 0.0
N1107 N 0.96005 0.19706 0.48107 0.0
H1108 H 0.00556 0.22904 0.64514 0.0
H1109 H -0.00417 0.23882 0.56951 0.0
H1110 H 0.95032 0.19074 0.43411 0.0
H1111 H 0.9591 0.2165 0.50116 0.0
H1112 H 0.97815 0.0933 0.61287 0.0
H1113 H -0.00731 0.12045 0.67737 0.0
H1114 H -0.00893 0.09715 0.51317 0.0
H1115 H 0.97864 0.10666 0.44075 0.0
C1116 C 0.80397 0.81059 0.57259 0.0
C1117 C 0.83075 0.81913 0.61356 0.0
C1118 C 0.86147 0.81779 0.51893 0.0
C1119 C 0.83713 0.81564 0.47648 0.0
N1120 N 0.78396 0.80662 0.4612 0.0
N1121 N 0.87867 0.81696 0.63061 0.0
C1122 C 0.80763 0.81024 0.50298 0.0
C1123 C 0.85736 0.8179 0.58798 0.0
N1124 N 0.77513 0.80209 0.60039 0.0
N1125 N 0.88962 0.82256 0.49309 0.0
H1126 H 0.87518 0.81614 0.6812 0.0
H1127 H 0.89766 0.81384 0.61655 0.0
H1128 H 0.89309 0.82197 0.44292 0.0
H1129 H 0.90997 0.82849 0.52066 0.0
H1130 H 0.75408 0.7944 0.5741 0.0
H1131 H 0.77163 0.79897 0.6508 0.0
H1132 H 0.7631 0.80614 0.47607 0.0
H1133 H 0.78581 0.80492 0.41052 0.0
C1134 C 0.84817 0.36066 0.90432 0.0
C1135 C 0.84035 0.32827 0.91437 0.0
C1136 C 0.83913 0.32001 0.79519 0.0
C1137 C 0.84185 0.35036 0.78528 0.0
N1138 N 0.86162 0.40389 0.82582 0.0
N1139 N 0.84568 0.28471 0.87051 0.0
C1140 C 0.85048 0.37217 0.83862 0.0
C1141 C 0.84173 0.31055 0.85983 0.0
N1142 N 0.85325 0.38024 0.95678 0.0
N1143 N 0.83267 0.2997 0.74328 0.0
H1144 H 0.84901 0.2784 0.91762 0.0
H1145 H 0.84915 0.27202 0.83302 0.0
H1146 H 0.83228 0.30672 0.69507 0.0
H1147 H 0.82647 0.27572 0.74841 0.0
H1148 H 0.85427 0.40234 0.95371 0.0
H1149 H 0.85745 0.3746 1.0036 0.0
H1150 H 0.86998 0.42176 0.8615 0.0
H1151 H 0.86558 0.41271 0.77799 0.0
C1152 C 0.65384 0.53675 0.90266 0.0
C1153 C 0.66361 0.51787 0.93919 0.0
C1154 C 0.6562 0.48556 0.84076 0.0
C1155 C 0.64167 0.5007 0.80737 0.0
N1156 N 0.62481 0.54002 0.80803 0.0
N1157 N 0.66613 0.4688 0.94481 0.0
C1158 C 0.64012 0.52629 0.83875 0.0
C1159 C 0.66228 0.49057 0.90895 0.0
N1160 N 0.65739 0.56446 0.92918 0.0
N1161 N 0.66561 0.46732 0.80673 0.0
H1162 H 0.66921 0.47035 0.99521 0.0
H1163 H 0.66231 0.44706 0.92551 0.0
H1164 H 0.66497 0.46661 0.75598 0.0
H1165 H 0.67853 0.45752 0.82756 0.0
H1166 H 0.65396 0.581 0.90269 0.0
H1167 H 0.66534 0.57168 0.97707 0.0
H1168 H 0.61941 0.55614 0.83079 0.0
H1169 H 0.61634 0.53406 0.76006 0.0
C1170 C 0.52672 0.16173 0.82553 0.0
C1171 C 0.50778 0.15066 0.76734 0.0
C1172 C 0.46162 0.14467 0.83145 0.0
C1173 C 0.48123 0.15666 0.88855 0.0
N1174 N 0.52614 0.15896 0.94388 0.0
N1175 N 0.45495 0.12517 0.71922 0.0
C1176 C 0.51195 0.15997 0.88699 0.0
C1177 C 0.47454 0.14039 0.77139 0.0
N1178 N 0.55917 0.17502 0.82236 0.0
N1179 N 0.43024 0.1367 0.83542 0.0
H1180 H 0.46312 0.12201 0.67422 0.0
H1181 H 0.43012 0.11378 0.72113 0.0
H1182 H 0.41887 0.13433 0.88033 0.0
H1183 H 0.41558 0.13266 0.79498 0.0
H1184 H 0.57409 0.18597 0.86247 0.0
H1185 H 0.57149 0.17826 0.7786 0.0
H1186 H 0.54797 0.15946 0.94546 0.0
H1187 H 0.51339 0.15186 0.9877 0.0
C1188 C 0.532 0.71692 0.31364 0.0
C1189 C 0.52513 0.68519 0.32767 0.0
C1190 C 0.51232 0.67073 0.21115 0.0
C1191 C 0.51853 0.70224 0.19706 0.0
N1192 N 0.5424 0.75743 0.23094 0.0
N1193 N 0.52015 0.63602 0.28585 0.0
C1194 C 0.5311 0.72605 0.2472 0.0
C1195 C 0.51883 0.66335 0.27514 0.0
N1196 N 0.53908 0.73819 0.36404 0.0
N1197 N 0.49936 0.64756 0.1638 0.0
H1198 H 0.52729 0.6313 0.33064 0.0
H1199 H 0.51817 0.62025 0.24867 0.0
H1200 H 0.49591 0.65254 0.11568 0.0
H1201 H 0.49051 0.62326 0.17312 0.0
H1202 H 0.54183 0.76094 0.35861 0.0
H1203 H 0.54104 0.73255 0.41256 0.0
H1204 H 0.55399 0.77655 0.26344 0.0
H1205 H 0.54304 0.76459 0.18267 0.0
C1206 C 0.34265 0.88908 0.08514 0.0
C1207 C 0.31717 0.86119 0.05592 0.0
C1208 C 0.30152 0.83639 0.16536 0.0
C1209 C 0.33159 0.86018 0.19037 0.0
N1210 N 0.37775 0.91283 0.17914 0.0
N1211 N 0.26298 0.81955 0.07619 0.0
C1212 C 0.3509 0.88797 0.15191 0.0
C1213 C 0.29357 0.83799 0.09839 0.0
N1214 N 0.35724 0.91713 0.05054 0.0
N1215 N 0.28107 0.81185 0.20487 0.0
H1216 H 0.25589 0.82322 0.03024 0.0
H1217 H 0.244 0.80362 0.10554 0.0
H1218 H 0.28449 0.81264 0.25529 0.0
H1219 H 0.26099 0.79117 0.18782 0.0
H1220 H 0.37478 0.93895 0.06977 0.0
H1221 H 0.34863 0.91942 1.00519 0.0
H1222 H 0.39537 0.93192 0.15239 0.0
H1223 H 0.38264 0.91378 0.22921 0.0
C1224 C 0.14971 0.44226 0.23716 0.0
C1225 C 0.15125 0.47055 0.26338 0.0
C1226 C 0.17031 0.49716 0.15696 0.0
C1227 C 0.17159 0.47028 0.13169 0.0
N1228 N 0.15175 0.41346 0.1404 0.0
N1229 N 0.14139 0.51302 0.22994 0.0
C1230 C 0.15797 0.4416 0.16978 0.0
C1231 C 0.15485 0.49446 0.21787 0.0
N1232 N 0.13913 0.4156 0.27544 0.0
N1233 N 0.18543 0.52603 0.12585 0.0
H1234 H 0.126 0.50866 0.26937 0.0
H1235 H 0.14184 0.52937 0.1958 0.0
H1236 H 0.1991 0.52981 0.08414 0.0
H1237 H 0.18715 0.5468 0.14603 0.0
H1238 H 0.14242 0.39635 0.2638 0.0
H1239 H 0.12601 0.41234 0.31817 0.0
H1240 H 0.13964 0.39109 0.16297 0.0
H1241 H 0.15599 0.41212 0.09066 0.0
C1242 C 0.21594 0.04714 0.04646 0.0
C1243 C 0.19261 0.02937 0.09553 0.0
C1244 C 0.16187 0.98751 1.01427 0.0
C1245 C 0.18641 0.0036 0.9666 0.0
N1246 N 0.23898 0.04687 0.94019 0.0
N1247 N 0.14786 0.97866 0.12906 0.0
C1248 C 0.21411 0.03299 0.98346 0.0
C1249 C 0.16716 -0.00175 0.08042 0.0
N1250 N 0.23977 0.0777 0.05998 0.0
N1251 N 0.13259 0.96282 0.99576 0.0
H1252 H 0.15099 0.98532 0.17819 0.0
H1253 H 0.13116 0.9545 0.12145 0.0
H1254 H 0.12691 0.95503 0.94738 0.0
H1255 H 0.11285 0.95258 1.02695 0.0
H1256 H 0.25526 0.09336 1.02462 0.0
H1257 H 0.24317 0.08792 0.10653 0.0
H1258 H 0.26125 0.0664 0.95188 0.0
H1259 H 0.23794 0.03748 0.89353 0.0
C1260 C -0.00507 0.17174 0.10831 0.0
C1261 C 0.9682 0.1753 0.12084 0.0
C1262 C 0.9686 0.18973 1.00443 0.0
C1263 C -0.0087 0.17995 0.99067 0.0
N1264 N 0.01821 0.15202 0.02994 0.0
N1265 N 0.92769 0.18586 0.07947 0.0
C1266 C 0.00235 0.16833 0.04284 0.0
C1267 C 0.95457 0.184 0.0684 0.0
N1268 N 0.01272 0.17059 0.15895 0.0
N1269 N 0.96097 0.205 0.95758 0.0
H1270 H 0.91792 0.18309 0.1262 0.0
H1271 H 0.9145 0.18861 0.04223 0.0
H1272 H 0.97082 0.20954 0.91064 0.0
H1273 H 0.94683 0.21531 0.967 0.0
H1274 H 0.03375 0.16988 0.15184 0.0
H1275 H 0.00847 0.1744 0.20732 0.0
H1276 H 0.02432 0.14089 0.06643 0.0
H1277 H 0.02141 0.14598 0.98255 0.0
C1278 C 0.82024 0.83314 0.03878 0.0
C1279 C 0.81021 0.81299 0.98221 0.0
C1280 C 0.80229 0.76863 0.05498 0.0
C1281 C 0.80905 0.78888 0.1108 0.0
N1282 N 0.80793 0.83503 0.15212 0.0
N1283 N 0.78364 0.75805 0.94216 0.0
C1284 C 0.81198 0.8191 0.10142 0.0
C1285 C 0.79869 0.77952 0.99163 0.0
N1286 N 0.83992 0.86561 0.03391 0.0
N1287 N 0.7998 0.73928 0.06244 0.0
H1288 H 0.77919 0.76457 0.89648 0.0
H1289 H 0.77273 0.73329 0.94888 0.0
H1290 H 0.80048 0.73027 0.10859 0.0
H1291 H 0.79842 0.72484 1.02297 0.0
H1292 H 0.84805 0.88052 0.07501 0.0
H1293 H 0.85184 0.87674 0.99068 0.0
H1294 H 0.80825 0.85664 0.14462 0.0
H1295 H 0.80003 0.82437 0.19797 0.0
C1296 C 0.84542 0.36083 0.29729 0.0
C1297 C 0.85024 0.33457 0.28706 0.0
C1298 C 0.86645 0.33885 0.4034 0.0
C1299 C 0.85503 0.36056 0.41517 0.0
N1300 N 0.82229 0.38176 0.37284 0.0
N1301 N 0.86396 0.29684 0.33259 0.0
C1302 C 0.84136 0.36869 0.36192 0.0
C1303 C 0.86043 0.32305 0.34093 0.0
N1304 N 0.84402 0.37801 0.24567 0.0
N1305 N 0.88369 0.33394 0.45026 0.0
H1306 H 0.86162 0.28618 0.28679 0.0
H1307 H 0.8678 0.28507 0.37134 0.0
H1308 H 0.88914 0.34555 0.49552 0.0
H1309 H 0.89492 0.32055 0.44187 0.0
H1310 H 0.84214 0.39854 0.25213 0.0
H1311 H 0.84893 0.37417 0.19784 0.0
H1312 H 0.81024 0.38589 0.33506 0.0
H1313 H 0.81485 0.38399 0.41962 0.0
C1314 C 0.61108 0.48873 0.31531 0.0
C1315 C 0.63759 0.51952 0.30439 0.0
C1316 C 0.63412 0.53362 0.41955 0.0
C1317 C 0.61243 0.50072 0.43353 0.0
N1318 N 0.58466 0.44562 0.3925 0.0
N1319 N 0.67359 0.57259 0.34427 0.0
C1320 C 0.60169 0.47795 0.38069 0.0
C1321 C 0.64866 0.54244 0.35607 0.0
N1322 N 0.59528 0.46934 0.26328 0.0
N1323 N 0.64008 0.55647 0.46594 0.0
H1324 H 0.68268 0.58012 0.2971 0.0
H1325 H 0.68567 0.58949 0.38092 0.0
H1326 H 0.62917 0.55094 0.5119 0.0
H1327 H 0.65347 0.58104 0.45691 0.0
H1328 H 0.57402 0.44753 0.26814 0.0
H1329 H 0.60119 0.47689 0.21488 0.0
H1330 H 0.57972 0.42845 0.35627 0.0
H1331 H 0.57856 0.43548 0.43887 0.0
C1332 C 0.47174 0.13901 0.27854 0.0
C1333 C 0.48292 0.17199 0.26482 0.0
C1334 C 0.4982 0.18422 0.38111 0.0
C1335 C 0.49282 0.1529 0.39169 0.0
N1336 N 0.47869 0.10125 0.34551 0.0
N1337 N 0.51675 0.22689 0.30215 0.0
C1338 C 0.48075 0.13046 0.33888 0.0
C1339 C 0.49874 0.19487 0.316 0.0
N1340 N 0.45177 0.11572 0.2358 0.0
N1341 N 0.50377 0.20432 0.43287 0.0
H1342 H 0.52164 0.23579 0.25447 0.0
H1343 H 0.53057 0.24399 0.33738 0.0
H1344 H 0.50283 0.19699 0.48121 0.0
H1345 H 0.50515 0.22656 0.42766 0.0
H1346 H 0.44084 0.09129 0.2466 0.0
H1347 H 0.44342 0.12069 0.19287 0.0
H1348 H 0.47319 0.08521 0.30666 0.0
H1349 H 0.48477 0.09419 0.3889 0.0
C1350 C 0.49849 0.71143 0.7691 0.0
C1351 C 0.51573 0.70615 0.81972 0.0
C1352 C 0.52886 0.67634 0.73815 0.0
C1353 C 0.51469 0.68536 0.68734 0.0
N1354 N 0.4978 0.72233 0.65382 0.0
N1355 N 0.55357 0.68868 0.84612 0.0
C1356 C 0.50375 0.70677 0.70269 0.0
C1357 C 0.53283 0.69004 0.80266 0.0
N1358 N 0.47536 0.71886 0.78415 0.0
N1359 N 0.53823 0.65445 0.7249 0.0
H1360 H 0.55778 0.69889 0.89266 0.0
H1361 H 0.56868 0.67985 0.83367 0.0
H1362 H 0.53742 0.64581 0.67756 0.0
H1363 H 0.5454 0.64411 0.76109 0.0
H1364 H 0.46093 0.72077 0.74847 0.0
H1365 H 0.46764 0.71858 0.83207 0.0
H1366 H 0.49122 0.73961 0.66306 0.0
H1367 H 0.5033 0.72058 0.60504 0.0
C1368 C 0.30282 0.86257 0.64972 0.0
C1369 C 0.3204 0.86007 0.70312 0.0
C1370 C 0.35984 0.86225 0.62663 0.0
C1371 C 0.34407 0.8671 0.57173 0.0
N1372 N 0.30467 0.8815 0.53854 0.0
N1373 N 0.3726 0.87362 0.74158 0.0
C1374 C 0.31678 0.87031 0.58535 0.0
C1375 C 0.35157 0.86621 0.69116 0.0
N1376 N 0.27258 0.85701 0.66048 0.0
N1377 N 0.37993 0.85012 0.6191 0.0
H1378 H 0.36716 0.87738 0.78911 0.0
H1379 H 0.39634 0.8796 0.73402 0.0
H1380 H 0.38194 0.83978 0.57585 0.0
H1381 H 0.39018 0.84503 0.65897 0.0
H1382 H 0.25706 0.85481 0.62277 0.0
H1383 H 0.26288 0.85335 0.7076 0.0
H1384 H 0.28624 0.8863 0.54789 0.0
H1385 H 0.31538 0.88955 0.49292 0.0
C1386 C 0.14418 0.45618 0.64091 0.0
C1387 C 0.15694 0.48907 0.62364 0.0
C1388 C 0.1709 0.50356 0.73949 0.0
C1389 C 0.16363 0.47206 0.75502 0.0
N1390 N 0.14556 0.41809 0.71783 0.0
N1391 N 0.19328 0.54412 0.65631 0.0
C1392 C 0.15094 0.44823 0.70473 0.0
C1393 C 0.1734 0.51276 0.67297 0.0
N1394 N 0.12488 0.43258 0.59806 0.0
N1395 N 0.17583 0.52508 0.78797 0.0
H1396 H 0.19892 0.55152 0.60785 0.0
H1397 H 0.20755 0.56166 0.69045 0.0
H1398 H 0.17159 0.51835 0.83701 0.0
H1399 H 0.17959 0.54803 0.77842 0.0
H1400 H 0.11257 0.40832 0.61052 0.0
H1401 H 0.11915 0.43743 0.55186 0.0
H1402 H 0.1397 0.40064 0.68176 0.0
H1403 H 0.14849 0.41124 0.76469 0.0
loop_
_geom_bond_atom_site_label_1
_geom_bond_atom_site_label_2
_geom_bond_distance
_geom_bond_site_symmetry_2
_ccdc_geom_bond_type
C0 C1 1.351 . S
C0 N3 1.368 . S
C0 H5 0.931 . S
C1 C0 1.351 . S
C1 N2 1.373 . S
C1 H29 0.930 . S
N2 C1 1.373 . S
N2 C4 1.340 . S
N3 C0 1.368 . S
N3 C4 1.321 . S
N3 Co6 2.135 1_565 S
C4 N2 1.340 . S
C4 N3 1.321 . S
C4 H28 0.930 . S
H5 C0 0.931 . S
Co6 N3 2.135 1_545 S
Co6 N9 2.121 . S
Co6 O14 2.055 1_545 S
Co6 O17 2.039 1_545 S
Co6 N20 2.140 . S
C7 O8 1.227 1_565 S
C7 O17 1.265 . S
O8 C7 1.227 1_545 S
N9 Co6 2.121 . S
N9 C11 1.375 . S
N9 C12 1.313 . S
C10 C11 1.338 . S
C10 N13 1.377 . S
C10 H30 0.930 . S
C11 N9 1.375 . S
C11 C10 1.338 . S
C11 H15 0.931 . S
C12 N9 1.313 . S
C12 N13 1.344 . S
C12 H16 0.930 . S
N13 C10 1.377 . S
N13 C12 1.344 . S
O14 Co6 2.055 1_565 S
O14 C18 1.242 1_565 S
H15 C11 0.931 . S
H16 C12 0.930 . S
O17 Co6 2.039 1_565 S
O17 C7 1.265 . S
C18 O14 1.242 1_545 S
C18 O19 1.246 . S
O19 C18 1.246 . S
N20 Co6 2.140 . S
N20 C23 1.346 . S
N20 C24 1.345 . S
C21 C22 1.387 . S
C21 C25 1.391 . S
C22 C21 1.387 . S
C22 C23 1.369 . S
C22 H31 0.929 . S
C23 N20 1.346 . S
C23 C22 1.369 . S
C23 H26 0.928 . S
C24 N20 1.345 . S
C24 C25 1.371 . S
C24 H27 0.931 . S
C25 C21 1.391 . S
C25 C24 1.371 . S
C25 H32 0.930 . S
H26 C23 0.928 . S
H27 C24 0.931 . S
H28 C4 0.930 . S
H29 C1 0.930 . S
H30 C10 0.930 . S
H31 C22 0.929 . S
H32 C25 0.930 . S
C33 C34 1.351 . S
C33 N36 1.368 . S
C33 H38 0.931 . S
C34 C33 1.351 . S
C34 N35 1.373 . S
C34 H62 0.930 . S
N35 C34 1.373 . S
N35 C37 1.340 . S
N36 C33 1.368 . S
N36 C37 1.321 . S
N36 Co39 2.135 . S
C37 N35 1.340 . S
C37 N36 1.321 . S
C37 H61 0.930 . S
H38 C33 0.931 . S
Co39 N36 2.135 . S
Co39 N42 2.121 1_455 S
Co39 O47 2.055 . S
Co39 O50 2.039 . S
Co39 N53 2.140 1_455 S
C40 O41 1.227 . S
C40 O50 1.265 . S
O41 C40 1.227 . S
N42 Co39 2.121 1_655 S
N42 C44 1.375 . S
N42 C45 1.313 . S
C43 C44 1.338 . S
C43 N46 1.377 . S
C43 H63 0.930 . S
C44 N42 1.375 . S
C44 C43 1.338 . S
C44 H48 0.931 . S
C45 N42 1.313 . S
C45 N46 1.344 . S
C45 H49 0.930 . S
N46 C43 1.377 . S
N46 C45 1.344 . S
O47 Co39 2.055 . S
O47 C51 1.253 . S
H48 C44 0.931 . S
H49 C45 0.930 . S
O50 Co39 2.039 . S
O50 C40 1.265 . S
C51 O47 1.253 . S
C51 O52 1.235 . S
O52 C51 1.235 . S
N53 Co39 2.140 1_655 S
N53 C56 1.346 . S
N53 C57 1.345 . S
C54 C55 1.387 . S
C54 C58 1.391 . S
C55 C54 1.387 . S
C55 C56 1.369 . S
C55 H64 0.929 . S
C56 N53 1.346 . S
C56 C55 1.369 . S
C56 H59 0.928 . S
C57 N53 1.345 . S
C57 C58 1.371 . S
C57 H60 0.931 . S
C58 C54 1.391 . S
C58 C57 1.371 . S
C58 H65 0.930 . S
H59 C56 0.928 . S
H60 C57 0.931 . S
H61 C37 0.930 . S
H62 C34 0.930 . S
H63 C43 0.930 . S
H64 C55 0.929 . S
H65 C58 0.930 . S
C66 C67 1.351 . S
C66 N69 1.368 . S
C66 H71 0.931 . S
C67 C66 1.351 . S
C67 N68 1.373 . S
C67 H95 0.930 . S
N68 C67 1.373 . S
N68 C70 1.340 . S
N69 C66 1.368 . S
N69 C70 1.321 . S
N69 Co72 2.135 . S
C70 N68 1.340 . S
C70 N69 1.321 . S
C70 H94 0.930 . S
H71 C66 0.931 . S
Co72 N69 2.135 . S
Co72 N75 2.121 . S
Co72 O80 2.055 . S
Co72 O83 2.039 . S
Co72 N86 2.140 . S
C73 O74 1.227 . S
C73 O83 1.265 . S
O74 C73 1.227 . S
N75 Co72 2.121 . S
N75 C77 1.375 . S
N75 C78 1.313 . S
C76 C77 1.338 . S
C76 N79 1.377 . S
C76 H96 0.930 . S
C77 N75 1.375 . S
C77 C76 1.338 . S
C77 H81 0.931 . S
C78 N75 1.313 . S
C78 N79 1.344 . S
C78 H82 0.930 . S
N79 C76 1.377 . S
N79 C78 1.344 . S
O80 Co72 2.055 . S
O80 C84 1.253 . S
H81 C77 0.931 . S
H82 C78 0.930 . S
O83 Co72 2.039 . S
O83 C73 1.265 . S
C84 O80 1.253 . S
C84 O85 1.227 . S
O85 C84 1.227 . S
N86 Co72 2.140 . S
N86 C89 1.346 . S
N86 C90 1.345 . S
C87 C88 1.387 . S
C87 C91 1.391 . S
C88 C87 1.387 . S
C88 C89 1.369 . S
C88 H97 0.929 . S
C89 N86 1.346 . S
C89 C88 1.369 . S
C89 H92 0.928 . S
C90 N86 1.345 . S
C90 C91 1.371 . S
C90 H93 0.931 . S
C91 C87 1.391 . S
C91 C90 1.371 . S
C91 H98 0.930 . S
H92 C89 0.928 . S
H93 C90 0.931 . S
H94 C70 0.930 . S
H95 C67 0.930 . S
H96 C76 0.930 . S
H97 C88 0.929 . S
H98 C91 0.930 . S
C99 C100 1.351 . S
C99 N102 1.368 . S
C99 H104 0.931 . S
C100 C99 1.351 . S
C100 N101 1.373 . S
C100 H128 0.930 . S
N101 C100 1.373 . S
N101 C103 1.340 . S
N102 C99 1.368 . S
N102 C103 1.321 . S
N102 Co105 2.135 1_655 S
C103 N101 1.340 . S
C103 N102 1.321 . S
C103 H127 0.930 . S
H104 C99 0.931 . S
Co105 N102 2.135 1_455 S
Co105 N108 2.121 . S
Co105 O113 2.055 1_455 S
Co105 O116 2.039 1_455 S
Co105 N119 2.140 . S
C106 O107 1.227 1_655 S
C106 O116 1.265 . S
O107 C106 1.227 1_455 S
N108 Co105 2.121 . S
N108 C110 1.375 . S
N108 C111 1.313 . S
C109 C110 1.338 . S
C109 N112 1.377 . S
C109 H129 0.930 . S
C110 N108 1.375 . S
C110 C109 1.338 . S
C110 H114 0.931 . S
C111 N108 1.313 . S
C111 N112 1.344 . S
C111 H115 0.930 . S
N112 C109 1.377 . S
N112 C111 1.344 . S
O113 Co105 2.055 1_655 S
O113 C117 1.242 1_655 S
H114 C110 0.931 . S
H115 C111 0.930 . S
O116 Co105 2.039 1_655 S
O116 C106 1.265 . S
C117 O113 1.242 1_455 S
C117 O118 1.247 . S
O118 C117 1.247 . S
N119 Co105 2.140 . S
N119 C122 1.346 . S
N119 C123 1.345 . S
C120 C121 1.387 . S
C120 C124 1.391 . S
C121 C120 1.387 . S
C121 C122 1.369 . S
C121 H130 0.929 . S
C122 N119 1.346 . S
C122 C121 1.369 . S
C122 H125 0.928 . S
C123 N119 1.345 . S
C123 C124 1.371 . S
C123 H126 0.931 . S
C124 C120 1.391 . S
C124 C123 1.371 . S
C124 H131 0.930 . S
H125 C122 0.928 . S
H126 C123 0.931 . S
H127 C103 0.930 . S
H128 C100 0.930 . S
H129 C109 0.930 . S
H130 C121 0.929 . S
H131 C124 0.930 . S
C132 C133 1.351 . S
C132 N135 1.368 . S
C132 H137 0.931 . S
C133 C132 1.351 . S
C133 N134 1.373 . S
C133 H161 0.930 . S
N134 C133 1.373 . S
N134 C136 1.340 . S
N135 C132 1.368 . S
N135 C136 1.321 . S
N135 Co138 2.135 . S
C136 N134 1.340 . S
C136 N135 1.321 . S
C136 H160 0.930 . S
H137 C132 0.931 . S
Co138 N135 2.135 . S
Co138 N141 2.121 . S
Co138 O146 2.055 . S
Co138 O149 2.039 . S
Co138 N152 2.140 . S
C139 O140 1.227 . S
C139 O149 1.265 . S
O140 C139 1.227 . S
N141 Co138 2.121 . S
N141 C143 1.375 . S
N141 C144 1.313 . S
C142 C143 1.338 . S
C142 N145 1.377 . S
C142 H162 0.930 . S
C143 N141 1.375 . S
C143 C142 1.338 . S
C143 H147 0.931 . S
C144 N141 1.313 . S
C144 N145 1.344 . S
C144 H148 0.930 . S
N145 C142 1.377 . S
N145 C144 1.344 . S
O146 Co138 2.055 . S
O146 C150 1.253 . S
H147 C143 0.931 . S
H148 C144 0.930 . S
O149 Co138 2.039 . S
O149 C139 1.265 . S
C150 O146 1.253 . S
C150 O151 1.227 . S
O151 C150 1.227 . S
N152 Co138 2.140 . S
N152 C155 1.346 . S
N152 C156 1.345 . S
C153 C154 1.387 . S
C153 C157 1.391 . S
C154 C153 1.387 . S
C154 C155 1.369 . S
C154 H163 0.929 . S
C155 N152 1.346 . S
C155 C154 1.369 . S
C155 H158 0.928 . S
C156 N152 1.345 . S
C156 C157 1.371 . S
C156 H159 0.931 . S
C157 C153 1.391 . S
C157 C156 1.371 . S
C157 H164 0.930 . S
H158 C155 0.928 . S
H159 C156 0.931 . S
H160 C136 0.930 . S
H161 C133 0.930 . S
H162 C142 0.930 . S
H163 C154 0.929 . S
H164 C157 0.930 . S
C165 C166 1.351 . S
C165 N168 1.368 . S
C165 H170 0.931 . S
C166 C165 1.351 . S
C166 N167 1.373 . S
C166 H194 0.930 . S
N167 C166 1.373 . S
N167 C169 1.340 . S
N168 C165 1.368 . S
N168 C169 1.321 . S
N168 Co171 2.135 . S
C169 N167 1.340 . S
C169 N168 1.321 . S
C169 H193 0.930 . S
H170 C165 0.931 . S
Co171 N168 2.135 . S
Co171 N174 2.121 1_545 S
Co171 O179 2.055 . S
Co171 O182 2.039 . S
Co171 N185 2.140 1_545 S
C172 O173 1.227 . S
C172 O182 1.265 . S
O173 C172 1.227 . S
N174 Co171 2.121 1_565 S
N174 C176 1.375 . S
N174 C177 1.313 . S
C175 C176 1.338 . S
C175 N178 1.377 . S
C175 H195 0.930 . S
C176 N174 1.375 . S
C176 C175 1.338 . S
C176 H180 0.931 . S
C177 N174 1.313 . S
C177 N178 1.344 . S
C177 H181 0.930 . S
N178 C175 1.377 . S
N178 C177 1.344 . S
O179 Co171 2.055 . S
O179 C183 1.253 . S
H180 C176 0.931 . S
H181 C177 0.930 . S
O182 Co171 2.039 . S
O182 C172 1.265 . S
C183 O179 1.253 . S
C183 O184 1.235 . S
O184 C183 1.235 . S
N185 Co171 2.140 1_565 S
N185 C188 1.346 . S
N185 C189 1.345 . S
C186 C187 1.387 . S
C186 C190 1.391 . S
C187 C186 1.387 . S
C187 C188 1.369 . S
C187 H196 0.929 . S
C188 N185 1.346 . S
C188 C187 1.369 . S
C188 H191 0.928 . S
C189 N185 1.345 . S
C189 C190 1.371 . S
C189 H192 0.931 . S
C190 C186 1.391 . S
C190 C189 1.371 . S
C190 H197 0.930 . S
H191 C188 0.928 . S
H192 C189 0.931 . S
H193 C169 0.930 . S
H194 C166 0.930 . S
H195 C175 0.930 . S
H196 C187 0.929 . S
H197 C190 0.930 . S
C198 C199 1.351 . S
C198 N201 1.368 . S
C198 H203 0.931 . S
C199 C198 1.351 . S
C199 N200 1.373 . S
C199 H227 0.930 . S
N200 C199 1.373 . S
N200 C202 1.340 . S
N201 C198 1.368 . S
N201 C202 1.321 . S
N201 Co204 2.135 . S
C202 N200 1.340 . S
C202 N201 1.321 . S
C202 H226 0.930 . S
H203 C198 0.931 . S
Co204 N201 2.135 . S
Co204 N207 2.121 . S
Co204 O212 2.055 . S
Co204 O215 2.039 . S
Co204 N218 2.140 . S
C205 O206 1.227 . S
C205 O215 1.265 . S
O206 C205 1.227 . S
N207 Co204 2.121 . S
N207 C209 1.375 . S
N207 C210 1.313 . S
C208 C209 1.338 . S
C208 N211 1.377 . S
C208 H228 0.930 . S
C209 N207 1.375 . S
C209 C208 1.338 . S
C209 H213 0.931 . S
C210 N207 1.313 . S
C210 N211 1.344 . S
C210 H214 0.930 . S
N211 C208 1.377 . S
N211 C210 1.344 . S
O212 Co204 2.055 . S
O212 C216 1.253 . S
H213 C209 0.931 . S
H214 C210 0.930 . S
O215 Co204 2.039 . S
O215 C205 1.265 . S
C216 O212 1.253 . S
C216 O217 1.227 . S
O217 C216 1.227 . S
N218 Co204 2.140 . S
N218 C221 1.346 . S
N218 C222 1.345 . S
C219 C220 1.387 . S
C219 C223 1.391 . S
C220 C219 1.387 . S
C220 C221 1.369 . S
C220 H229 0.929 . S
C221 N218 1.346 . S
C221 C220 1.369 . S
C221 H224 0.928 . S
C222 N218 1.345 . S
C222 C223 1.371 . S
C222 H225 0.931 . S
C223 C219 1.391 . S
C223 C222 1.371 . S
C223 H230 0.930 . S
H224 C221 0.928 . S
H225 C222 0.931 . S
H226 C202 0.930 . S
H227 C199 0.930 . S
H228 C208 0.930 . S
H229 C220 0.929 . S
H230 C223 0.930 . S
C231 C232 1.351 . S
C231 N234 1.368 . S
C231 H236 0.931 . S
C232 C231 1.351 . S
C232 N233 1.373 . S
C232 H260 0.930 . S
N233 C232 1.373 . S
N233 C235 1.340 . S
N234 C231 1.368 . S
N234 C235 1.321 . S
N234 Co237 2.135 . S
C235 N233 1.340 . S
C235 N234 1.321 . S
C235 H259 0.930 . S
H236 C231 0.931 . S
Co237 N234 2.135 . S
Co237 N240 2.121 . S
Co237 O245 2.055 . S
Co237 O248 2.039 . S
Co237 N251 2.140 . S
C238 O239 1.227 . S
C238 O248 1.265 . S
O239 C238 1.227 . S
N240 Co237 2.121 . S
N240 C242 1.375 . S
N240 C243 1.313 . S
C241 C242 1.338 . S
C241 N244 1.377 . S
C241 H261 0.930 . S
C242 N240 1.375 . S
C242 C241 1.338 . S
C242 H246 0.931 . S
C243 N240 1.313 . S
C243 N244 1.344 . S
C243 H247 0.930 . S
N244 C241 1.377 . S
N244 C243 1.344 . S
O245 Co237 2.055 . S
O245 C249 1.253 . S
H246 C242 0.931 . S
H247 C243 0.930 . S
O248 Co237 2.039 . S
O248 C238 1.265 . S
C249 O245 1.253 . S
C249 O250 1.227 . S
O250 C249 1.227 . S
N251 Co237 2.140 . S
N251 C254 1.346 . S
N251 C255 1.345 . S
C252 C253 1.387 . S
C252 C256 1.391 . S
C253 C252 1.387 . S
C253 C254 1.369 . S
C253 H262 0.929 . S
C254 N251 1.346 . S
C254 C253 1.369 . S
C254 H257 0.928 . S
C255 N251 1.345 . S
C255 C256 1.371 . S
C255 H258 0.931 . S
C256 C252 1.391 . S
C256 C255 1.371 . S
C256 H263 0.930 . S
H257 C254 0.928 . S
H258 C255 0.931 . S
H259 C235 0.930 . S
H260 C232 0.930 . S
H261 C241 0.930 . S
H262 C253 0.929 . S
H263 C256 0.930 . S
C264 C265 1.351 . S
C264 N267 1.368 . S
C264 H269 0.931 . S
C265 C264 1.351 . S
C265 N266 1.373 . S
C265 H293 0.930 . S
N266 C265 1.373 . S
N266 C268 1.340 . S
N267 C264 1.368 . S
N267 C268 1.321 . S
N267 Co270 2.135 . S
C268 N266 1.340 . S
C268 N267 1.321 . S
C268 H292 0.930 . S
H269 C264 0.931 . S
Co270 N267 2.135 . S
Co270 N273 2.121 . S
Co270 O278 2.055 . S
Co270 O281 2.039 . S
Co270 N284 2.140 . S
C271 O272 1.227 . S
C271 O281 1.265 . S
O272 C271 1.227 . S
N273 Co270 2.121 . S
N273 C275 1.375 . S
N273 C276 1.313 . S
C274 C275 1.338 . S
C274 N277 1.377 . S
C274 H294 0.930 . S
C275 N273 1.375 . S
C275 C274 1.338 . S
C275 H279 0.931 . S
C276 N273 1.313 . S
C276 N277 1.344 . S
C276 H280 0.930 . S
N277 C274 1.377 . S
N277 C276 1.344 . S
O278 Co270 2.055 . S
O278 C282 1.253 . S
H279 C275 0.931 . S
H280 C276 0.930 . S
O281 Co270 2.039 . S
O281 C271 1.265 . S
C282 O278 1.253 . S
C282 O283 1.227 . S
O283 C282 1.227 . S
N284 Co270 2.140 . S
N284 C287 1.346 . S
N284 C288 1.345 . S
C285 C286 1.387 . S
C285 C289 1.391 . S
C286 C285 1.387 . S
C286 C287 1.369 . S
C286 H295 0.929 . S
C287 N284 1.346 . S
C287 C286 1.369 . S
C287 H290 0.928 . S
C288 N284 1.345 . S
C288 C289 1.371 . S
C288 H291 0.931 . S
C289 C285 1.391 . S
C289 C288 1.371 . S
C289 H296 0.930 . S
H290 C287 0.928 . S
H291 C288 0.931 . S
H292 C268 0.930 . S
H293 C265 0.930 . S
H294 C274 0.930 . S
H295 C286 0.929 . S
H296 C289 0.930 . S
C297 C298 1.351 . S
C297 N300 1.368 . S
C297 H302 0.931 . S
C298 C297 1.351 . S
C298 N299 1.373 . S
C298 H326 0.930 . S
N299 C298 1.373 . S
N299 C301 1.340 . S
N300 C297 1.368 . S
N300 C301 1.321 . S
N300 Co303 2.135 . S
C301 N299 1.340 . S
C301 N300 1.321 . S
C301 H325 0.930 . S
H302 C297 0.931 . S
Co303 N300 2.135 . S
Co303 N306 2.121 . S
Co303 O311 2.055 . S
Co303 O314 2.039 . S
Co303 N317 2.140 . S
C304 O305 1.227 . S
C304 O314 1.265 1_556 S
O305 C304 1.227 . S
N306 Co303 2.121 . S
N306 C308 1.375 . S
N306 C309 1.313 . S
C307 C308 1.338 . S
C307 N310 1.377 . S
C307 H327 0.930 . S
C308 N306 1.375 . S
C308 C307 1.338 . S
C308 H312 0.931 1_554 S
C309 N306 1.313 . S
C309 N310 1.344 . S
C309 H313 0.930 . S
N310 C307 1.377 . S
N310 C309 1.344 . S
O311 Co303 2.055 . S
O311 C315 1.253 . S
H312 C308 0.931 1_556 S
H313 C309 0.930 . S
O314 Co303 2.039 . S
O314 C304 1.265 1_554 S
C315 O311 1.253 . S
C315 O316 1.227 . S
O316 C315 1.227 . S
N317 Co303 2.140 . S
N317 C320 1.346 . S
N317 C321 1.345 . S
C318 C319 1.387 . S
C318 C322 1.391 . S
C319 C318 1.387 . S
C319 C320 1.369 . S
C319 H328 0.929 . S
C320 N317 1.346 . S
C320 C319 1.369 . S
C320 H323 0.928 . S
C321 N317 1.345 . S
C321 C322 1.371 . S
C321 H324 0.931 . S
C322 C318 1.391 . S
C322 C321 1.371 . S
C322 H329 0.930 . S
H323 C320 0.928 . S
H324 C321 0.931 . S
H325 C301 0.930 . S
H326 C298 0.930 . S
H327 C307 0.930 . S
H328 C319 0.929 . S
H329 C322 0.930 . S
C330 C331 1.351 . S
C330 N333 1.368 . S
C330 H335 0.931 . S
C331 C330 1.351 . S
C331 N332 1.373 . S
C331 H359 0.930 . S
N332 C331 1.373 . S
N332 C334 1.340 . S
N333 C330 1.368 . S
N333 C334 1.321 . S
N333 Co336 2.135 . S
C334 N332 1.340 . S
C334 N333 1.321 . S
C334 H358 0.930 . S
H335 C330 0.931 . S
Co336 N333 2.135 . S
Co336 N339 2.121 . S
Co336 O344 2.055 . S
Co336 O347 2.039 . S
Co336 N350 2.140 . S
C337 O338 1.227 . S
C337 O347 1.265 1_556 S
O338 C337 1.227 . S
N339 Co336 2.121 . S
N339 C341 1.375 . S
N339 C342 1.313 . S
C340 C341 1.338 . S
C340 N343 1.377 . S
C340 H360 0.930 . S
C341 N339 1.375 . S
C341 C340 1.338 . S
C341 H345 0.931 1_554 S
C342 N339 1.313 . S
C342 N343 1.344 . S
C342 H346 0.930 . S
N343 C340 1.377 . S
N343 C342 1.344 . S
O344 Co336 2.055 . S
O344 C348 1.253 . S
H345 C341 0.931 1_556 S
H346 C342 0.930 . S
O347 Co336 2.039 . S
O347 C337 1.265 1_554 S
C348 O344 1.253 . S
C348 O349 1.227 . S
O349 C348 1.227 . S
N350 Co336 2.140 . S
N350 C353 1.346 . S
N350 C354 1.345 . S
C351 C352 1.387 . S
C351 C355 1.391 . S
C352 C351 1.387 . S
C352 C353 1.369 . S
C352 H361 0.929 . S
C353 N350 1.346 . S
C353 C352 1.369 . S
C353 H356 0.928 . S
C354 N350 1.345 . S
C354 C355 1.371 . S
C354 H357 0.931 . S
C355 C351 1.391 . S
C355 C354 1.371 . S
C355 H362 0.930 . S
H356 C353 0.928 . S
H357 C354 0.931 . S
H358 C334 0.930 . S
H359 C331 0.930 . S
H360 C340 0.930 . S
H361 C352 0.929 . S
H362 C355 0.930 . S
C363 C364 1.351 . S
C363 N366 1.368 . S
C363 H368 0.931 . S
C364 C363 1.351 . S
C364 N365 1.373 . S
C364 H392 0.930 . S
N365 C364 1.373 . S
N365 C367 1.340 . S
N366 C363 1.368 . S
N366 C367 1.321 . S
N366 Co369 2.135 . S
C367 N365 1.340 . S
C367 N366 1.321 . S
C367 H391 0.930 . S
H368 C363 0.931 . S
Co369 N366 2.135 . S
Co369 N372 2.121 . S
Co369 O377 2.055 . S
Co369 O380 2.039 . S
Co369 N383 2.140 . S
C370 O371 1.227 . S
C370 O380 1.265 1_556 S
O371 C370 1.227 . S
N372 Co369 2.121 . S
N372 C374 1.375 . S
N372 C375 1.313 . S
C373 C374 1.338 . S
C373 N376 1.377 . S
C373 H393 0.930 . S
C374 N372 1.375 . S
C374 C373 1.338 . S
C374 H378 0.931 1_554 S
C375 N372 1.313 . S
C375 N376 1.344 . S
C375 H379 0.930 . S
N376 C373 1.377 . S
N376 C375 1.344 . S
O377 Co369 2.055 . S
O377 C381 1.253 . S
H378 C374 0.931 1_556 S
H379 C375 0.930 . S
O380 Co369 2.039 . S
O380 C370 1.265 1_554 S
C381 O377 1.253 . S
C381 O382 1.227 . S
O382 C381 1.227 . S
N383 Co369 2.140 . S
N383 C386 1.346 . S
N383 C387 1.345 . S
C384 C385 1.387 . S
C384 C388 1.391 . S
C385 C384 1.387 . S
C385 C386 1.369 . S
C385 H394 0.929 . S
C386 N383 1.346 . S
C386 C385 1.369 . S
C386 H389 0.928 . S
C387 N383 1.345 . S
C387 C388 1.371 . S
C387 H390 0.931 . S
C388 C384 1.391 . S
C388 C387 1.371 . S
C388 H395 0.930 . S
H389 C386 0.928 . S
H390 C387 0.931 . S
H391 C367 0.930 . S
H392 C364 0.930 . S
H393 C373 0.930 . S
H394 C385 0.929 . S
H395 C388 0.930 . S
C396 C397 1.351 . S
C396 N399 1.368 . S
C396 H401 0.931 . S
C397 C396 1.351 . S
C397 N398 1.373 . S
C397 H425 0.930 . S
N398 C397 1.373 . S
N398 C400 1.340 . S
N399 C396 1.368 . S
N399 C400 1.321 . S
N399 Co402 2.135 . S
C400 N398 1.340 . S
C400 N399 1.321 . S
C400 H424 0.930 . S
H401 C396 0.931 . S
Co402 N399 2.135 . S
Co402 N405 2.121 . S
Co402 O410 2.055 . S
Co402 O413 2.039 . S
Co402 N416 2.140 . S
C403 O404 1.227 . S
C403 O413 1.265 1_554 S
O404 C403 1.227 . S
N405 Co402 2.121 . S
N405 C407 1.375 . S
N405 C408 1.313 . S
C406 C407 1.338 . S
C406 N409 1.377 . S
C406 H426 0.930 . S
C407 N405 1.375 . S
C407 C406 1.338 . S
C407 H411 0.931 1_556 S
C408 N405 1.313 . S
C408 N409 1.344 . S
C408 H412 0.930 . S
N409 C406 1.377 . S
N409 C408 1.344 . S
O410 Co402 2.055 . S
O410 C414 1.253 . S
H411 C407 0.931 1_554 S
H412 C408 0.930 . S
O413 Co402 2.039 . S
O413 C403 1.265 1_556 S
C414 O410 1.253 . S
C414 O415 1.227 . S
O415 C414 1.227 . S
N416 Co402 2.140 . S
N416 C419 1.346 . S
N416 C420 1.345 . S
C417 C418 1.387 . S
C417 C421 1.391 . S
C418 C417 1.387 . S
C418 C419 1.369 . S
C418 H427 0.929 . S
C419 N416 1.346 . S
C419 C418 1.369 . S
C419 H422 0.928 . S
C420 N416 1.345 . S
C420 C421 1.371 . S
C420 H423 0.931 . S
C421 C417 1.391 . S
C421 C420 1.371 . S
C421 H428 0.930 . S
H422 C419 0.928 . S
H423 C420 0.931 . S
H424 C400 0.930 . S
H425 C397 0.930 . S
H426 C406 0.930 . S
H427 C418 0.929 . S
H428 C421 0.930 . S
C429 C430 1.351 . S
C429 N432 1.368 . S
C429 H434 0.931 . S
C430 C429 1.351 . S
C430 N431 1.373 . S
C430 H458 0.930 . S
N431 C430 1.373 . S
N431 C433 1.340 . S
N432 C429 1.368 . S
N432 C433 1.321 . S
N432 Co435 2.135 . S
C433 N431 1.340 . S
C433 N432 1.321 . S
C433 H457 0.930 . S
H434 C429 0.931 . S
Co435 N432 2.135 . S
Co435 N438 2.121 . S
Co435 O443 2.055 . S
Co435 O446 2.039 . S
Co435 N449 2.140 . S
C436 O437 1.227 . S
C436 O446 1.265 1_554 S
O437 C436 1.227 . S
N438 Co435 2.121 . S
N438 C440 1.375 . S
N438 C441 1.313 . S
C439 C440 1.338 . S
C439 N442 1.377 . S
C439 H459 0.930 . S
C440 N438 1.375 . S
C440 C439 1.338 . S
C440 H444 0.931 1_556 S
C441 N438 1.313 . S
C441 N442 1.344 . S
C441 H445 0.930 . S
N442 C439 1.377 . S
N442 C441 1.344 . S
O443 Co435 2.055 . S
O443 C447 1.253 . S
H444 C440 0.931 1_554 S
H445 C441 0.930 . S
O446 Co435 2.039 . S
O446 C436 1.265 1_556 S
C447 O443 1.253 . S
C447 O448 1.227 . S
O448 C447 1.227 . S
N449 Co435 2.140 . S
N449 C452 1.346 . S
N449 C453 1.345 . S
C450 C451 1.387 . S
C450 C454 1.391 . S
C451 C450 1.387 . S
C451 C452 1.369 . S
C451 H460 0.929 . S
C452 N449 1.346 . S
C452 C451 1.369 . S
C452 H455 0.928 . S
C453 N449 1.345 . S
C453 C454 1.371 . S
C453 H456 0.931 . S
C454 C450 1.391 . S
C454 C453 1.371 . S
C454 H461 0.930 . S
H455 C452 0.928 . S
H456 C453 0.931 . S
H457 C433 0.930 . S
H458 C430 0.930 . S
H459 C439 0.930 . S
H460 C451 0.929 . S
H461 C454 0.930 . S
C462 C463 1.351 . S
C462 N465 1.368 . S
C462 H467 0.931 . S
C463 C462 1.351 . S
C463 N464 1.373 . S
C463 H491 0.930 . S
N464 C463 1.373 . S
N464 C466 1.340 . S
N465 C462 1.368 . S
N465 C466 1.321 . S
N465 Co468 2.135 . S
C466 N464 1.340 . S
C466 N465 1.321 . S
C466 H490 0.930 . S
H467 C462 0.931 . S
Co468 N465 2.135 . S
Co468 N471 2.121 . S
Co468 O476 2.055 . S
Co468 O479 2.039 . S
Co468 N482 2.140 . S
C469 O470 1.227 . S
C469 O479 1.265 1_554 S
O470 C469 1.227 . S
N471 Co468 2.121 . S
N471 C473 1.375 . S
N471 C474 1.313 . S
C472 C473 1.338 . S
C472 N475 1.377 . S
C472 H492 0.930 . S
C473 N471 1.375 . S
C473 C472 1.338 . S
C473 H477 0.931 1_556 S
C474 N471 1.313 . S
C474 N475 1.344 . S
C474 H478 0.930 . S
N475 C472 1.377 . S
N475 C474 1.344 . S
O476 Co468 2.055 . S
O476 C480 1.253 . S
H477 C473 0.931 1_554 S
H478 C474 0.930 . S
O479 Co468 2.039 . S
O479 C469 1.265 1_556 S
C480 O476 1.253 . S
C480 O481 1.227 . S
O481 C480 1.227 . S
N482 Co468 2.140 . S
N482 C485 1.346 . S
N482 C486 1.345 . S
C483 C484 1.387 . S
C483 C487 1.391 . S
C484 C483 1.387 . S
C484 C485 1.369 . S
C484 H493 0.929 . S
C485 N482 1.346 . S
C485 C484 1.369 . S
C485 H488 0.928 . S
C486 N482 1.345 . S
C486 C487 1.371 . S
C486 H489 0.931 . S
C487 C483 1.391 . S
C487 C486 1.371 . S
C487 H494 0.930 . S
H488 C485 0.928 . S
H489 C486 0.931 . S
H490 C466 0.930 . S
H491 C463 0.930 . S
H492 C472 0.930 . S
H493 C484 0.929 . S
H494 C487 0.930 . S
C495 C496 1.351 . S
C495 N498 1.368 . S
C495 H500 0.931 . S
C496 C495 1.351 . S
C496 N497 1.373 . S
C496 H524 0.930 . S
N497 C496 1.373 . S
N497 C499 1.340 . S
N498 C495 1.368 . S
N498 C499 1.321 . S
N498 Co501 2.135 . S
C499 N497 1.340 . S
C499 N498 1.321 . S
C499 H523 0.930 . S
H500 C495 0.931 . S
Co501 N498 2.135 . S
Co501 N504 2.121 . S
Co501 O509 2.055 . S
Co501 O512 2.039 . S
Co501 N515 2.140 . S
C502 O503 1.227 . S
C502 O512 1.265 . S
O503 C502 1.227 . S
N504 Co501 2.121 . S
N504 C506 1.375 . S
N504 C507 1.313 . S
C505 C506 1.338 . S
C505 N508 1.377 . S
C505 H525 0.930 . S
C506 N504 1.375 . S
C506 C505 1.338 . S
C506 H510 0.931 . S
C507 N504 1.313 . S
C507 N508 1.344 . S
C507 H511 0.930 . S
N508 C505 1.377 . S
N508 C507 1.344 . S
O509 Co501 2.055 . S
O509 C513 1.253 . S
H510 C506 0.931 . S
H511 C507 0.930 . S
O512 Co501 2.039 . S
O512 C502 1.265 . S
C513 O509 1.253 . S
C513 O514 1.227 . S
O514 C513 1.227 . S
N515 Co501 2.140 . S
N515 C518 1.346 . S
N515 C519 1.345 . S
C516 C517 1.387 . S
C516 C520 1.391 . S
C517 C516 1.387 . S
C517 C518 1.369 . S
C517 H526 0.929 . S
C518 N515 1.346 . S
C518 C517 1.369 . S
C518 H521 0.928 . S
C519 N515 1.345 . S
C519 C520 1.371 . S
C519 H522 0.931 . S
C520 C516 1.391 . S
C520 C519 1.371 . S
C520 H527 0.930 . S
H521 C518 0.928 . S
H522 C519 0.931 . S
H523 C499 0.930 . S
H524 C496 0.930 . S
H525 C505 0.930 . S
H526 C517 0.929 . S
H527 C520 0.930 . S
C528 C529 1.351 . S
C528 N531 1.368 . S
C528 H533 0.931 . S
C529 C528 1.351 . S
C529 N530 1.373 . S
C529 H557 0.930 . S
N530 C529 1.373 . S
N530 C532 1.340 . S
N531 C528 1.368 . S
N531 C532 1.321 . S
N531 Co534 2.135 . S
C532 N530 1.340 . S
C532 N531 1.321 . S
C532 H556 0.930 . S
H533 C528 0.931 . S
Co534 N531 2.135 . S
Co534 N537 2.121 . S
Co534 O542 2.055 . S
Co534 O545 2.039 . S
Co534 N548 2.140 . S
C535 O536 1.227 . S
C535 O545 1.265 . S
O536 C535 1.227 . S
N537 Co534 2.121 . S
N537 C539 1.375 . S
N537 C540 1.313 . S
C538 C539 1.338 . S
C538 N541 1.377 . S
C538 H558 0.930 . S
C539 N537 1.375 . S
C539 C538 1.338 . S
C539 H543 0.931 . S
C540 N537 1.313 . S
C540 N541 1.344 . S
C540 H544 0.930 . S
N541 C538 1.377 . S
N541 C540 1.344 . S
O542 Co534 2.055 . S
O542 C546 1.253 . S
H543 C539 0.931 . S
H544 C540 0.930 . S
O545 Co534 2.039 . S
O545 C535 1.265 . S
C546 O542 1.253 . S
C546 O547 1.227 . S
O547 C546 1.227 . S
N548 Co534 2.140 . S
N548 C551 1.346 . S
N548 C552 1.345 . S
C549 C550 1.387 . S
C549 C553 1.391 . S
C550 C549 1.387 . S
C550 C551 1.369 . S
C550 H559 0.929 . S
C551 N548 1.346 . S
C551 C550 1.369 . S
C551 H554 0.928 . S
C552 N548 1.345 . S
C552 C553 1.371 . S
C552 H555 0.931 . S
C553 C549 1.391 . S
C553 C552 1.371 . S
C553 H560 0.930 . S
H554 C551 0.928 . S
H555 C552 0.931 . S
H556 C532 0.930 . S
H557 C529 0.930 . S
H558 C538 0.930 . S
H559 C550 0.929 . S
H560 C553 0.930 . S
C561 C562 1.351 . S
C561 N564 1.368 . S
C561 H566 0.931 . S
C562 C561 1.351 . S
C562 N563 1.373 . S
C562 H590 0.930 . S
N563 C562 1.373 . S
N563 C565 1.340 . S
N564 C561 1.368 . S
N564 C565 1.321 . S
N564 Co567 2.135 . S
C565 N563 1.340 . S
C565 N564 1.321 . S
C565 H589 0.930 . S
H566 C561 0.931 . S
Co567 N564 2.135 . S
Co567 N570 2.121 . S
Co567 O575 2.055 . S
Co567 O578 2.039 . S
Co567 N581 2.140 . S
C568 O569 1.227 . S
C568 O578 1.265 . S
O569 C568 1.227 . S
N570 Co567 2.121 . S
N570 C572 1.375 . S
N570 C573 1.313 . S
C571 C572 1.338 . S
C571 N574 1.377 . S
C571 H591 0.930 . S
C572 N570 1.375 . S
C572 C571 1.338 . S
C572 H576 0.931 . S
C573 N570 1.313 . S
C573 N574 1.344 . S
C573 H577 0.930 . S
N574 C571 1.377 . S
N574 C573 1.344 . S
O575 Co567 2.055 . S
O575 C579 1.253 . S
H576 C572 0.931 . S
H577 C573 0.930 . S
O578 Co567 2.039 . S
O578 C568 1.265 . S
C579 O575 1.253 . S
C579 O580 1.227 . S
O580 C579 1.227 . S
N581 Co567 2.140 . S
N581 C584 1.346 . S
N581 C585 1.345 . S
C582 C583 1.387 . S
C582 C586 1.391 . S
C583 C582 1.387 . S
C583 C584 1.369 . S
C583 H592 0.929 . S
C584 N581 1.346 . S
C584 C583 1.369 . S
C584 H587 0.928 . S
C585 N581 1.345 . S
C585 C586 1.371 . S
C585 H588 0.931 . S
C586 C582 1.391 . S
C586 C585 1.371 . S
C586 H593 0.930 . S
H587 C584 0.928 . S
H588 C585 0.931 . S
H589 C565 0.930 . S
H590 C562 0.930 . S
H591 C571 0.930 . S
H592 C583 0.929 . S
H593 C586 0.930 . S
C594 C595 1.363 . S
C594 C600 1.379 . S
C594 N602 1.356 . S
C595 C594 1.363 . S
C595 C601 1.363 . S
C596 C597 1.363 . S
C596 C601 1.379 . S
C596 N603 1.356 . S
C597 C596 1.363 . S
C597 C600 1.363 . S
N598 C600 1.356 . S
N598 H610 0.984 . S
N598 H611 0.985 . S
N599 C601 1.356 . S
N599 H604 0.984 . S
N599 H605 0.985 . S
C600 C594 1.379 . S
C600 C597 1.363 . S
C600 N598 1.356 . S
C601 C595 1.363 . S
C601 C596 1.379 . S
C601 N599 1.356 . S
N602 C594 1.356 . S
N602 H608 0.984 . S
N602 H609 0.984 . S
N603 C596 1.356 . S
N603 H606 0.984 . S
N603 H607 0.985 . S
H604 N599 0.984 . S
H605 N599 0.985 . S
H606 N603 0.984 . S
H607 N603 0.985 . S
H608 N602 0.984 . S
H609 N602 0.984 . S
H610 N598 0.984 . S
H611 N598 0.985 . S
C612 C613 1.363 . S
C612 C618 1.379 1_565 S
C612 N620 1.356 . S
C613 C612 1.363 . S
C613 C619 1.363 . S
C614 C615 1.363 . S
C614 C619 1.379 1_545 S
C614 N621 1.356 . S
C615 C614 1.363 . S
C615 C618 1.363 . S
N616 C618 1.356 . S
N616 H628 0.984 . S
N616 H629 0.985 . S
N617 C619 1.356 . S
N617 H622 0.984 . S
N617 H623 0.985 . S
C618 C612 1.379 1_545 S
C618 C615 1.363 . S
C618 N616 1.356 . S
C619 C613 1.363 . S
C619 C614 1.379 1_565 S
C619 N617 1.356 . S
N620 C612 1.356 . S
N620 H626 0.984 . S
N620 H627 0.984 . S
N621 C614 1.356 . S
N621 H624 0.984 . S
N621 H625 0.985 . S
H622 N617 0.984 . S
H623 N617 0.985 . S
H624 N621 0.984 . S
H625 N621 0.985 . S
H626 N620 0.984 . S
H627 N620 0.984 . S
H628 N616 0.984 . S
H629 N616 0.985 . S
C630 C631 1.363 . S
C630 C636 1.379 1_655 S
C630 N638 1.356 . S
C631 C630 1.363 . S
C631 C637 1.363 1_655 S
C632 C633 1.363 . S
C632 C637 1.379 . S
C632 N639 1.356 . S
C633 C632 1.363 . S
C633 C636 1.363 . S
N634 C636 1.356 . S
N634 H646 0.984 . S
N634 H647 0.985 . S
N635 C637 1.356 1_655 S
N635 H640 0.984 . S
N635 H641 0.985 . S
C636 C630 1.379 1_455 S
C636 C633 1.363 . S
C636 N634 1.356 . S
C637 C631 1.363 1_455 S
C637 C632 1.379 . S
C637 N635 1.356 1_455 S
N638 C630 1.356 . S
N638 H644 0.984 . S
N638 H645 0.984 . S
N639 C632 1.356 . S
N639 H642 0.984 . S
N639 H643 0.985 . S
H640 N635 0.984 . S
H641 N635 0.985 . S
H642 N639 0.984 . S
H643 N639 0.985 . S
H644 N638 0.984 . S
H645 N638 0.984 . S
H646 N634 0.984 . S
H647 N634 0.985 . S
C648 C649 1.363 . S
C648 C654 1.379 . S
C648 N656 1.356 . S
C649 C648 1.363 . S
C649 C655 1.363 . S
C650 C651 1.363 . S
C650 C655 1.379 . S
C650 N657 1.356 . S
C651 C650 1.363 . S
C651 C654 1.363 . S
N652 C654 1.356 . S
N652 H664 0.984 . S
N652 H665 0.985 . S
N653 C655 1.356 . S
N653 H658 0.984 . S
N653 H659 0.985 . S
C654 C648 1.379 . S
C654 C651 1.363 . S
C654 N652 1.356 . S
C655 C649 1.363 . S
C655 C650 1.379 . S
C655 N653 1.356 . S
N656 C648 1.356 . S
N656 H662 0.984 . S
N656 H663 0.984 . S
N657 C650 1.356 . S
N657 H660 0.984 . S
N657 H661 0.985 . S
H658 N653 0.984 . S
H659 N653 0.985 . S
H660 N657 0.984 . S
H661 N657 0.985 . S
H662 N656 0.984 . S
H663 N656 0.984 . S
H664 N652 0.984 . S
H665 N652 0.985 . S
C666 C667 1.363 . S
C666 C672 1.379 . S
C666 N674 1.356 . S
C667 C666 1.363 . S
C667 C673 1.363 . S
C668 C669 1.363 1_545 S
C668 C673 1.379 . S
C668 N675 1.356 1_545 S
C669 C668 1.363 1_565 S
C669 C672 1.363 1_565 S
N670 C672 1.356 1_565 S
N670 H682 0.984 . S
N670 H683 0.985 . S
N671 C673 1.356 . S
N671 H676 0.984 . S
N671 H677 0.985 . S
C672 C666 1.379 . S
C672 C669 1.363 1_545 S
C672 N670 1.356 1_545 S
C673 C667 1.363 . S
C673 C668 1.379 . S
C673 N671 1.356 . S
N674 C666 1.356 . S
N674 H680 0.984 . S
N674 H681 0.984 . S
N675 C668 1.356 1_565 S
N675 H678 0.984 . S
N675 H679 0.985 . S
H676 N671 0.984 . S
H677 N671 0.985 . S
H678 N675 0.984 . S
H679 N675 0.985 . S
H680 N674 0.984 . S
H681 N674 0.984 . S
H682 N670 0.984 . S
H683 N670 0.985 . S
C684 C685 1.363 . S
C684 C690 1.379 1_455 S
C684 N692 1.356 . S
C685 C684 1.363 . S
C685 C691 1.363 . S
C686 C687 1.363 . S
C686 C691 1.379 1_655 S
C686 N693 1.356 . S
C687 C686 1.363 . S
C687 C690 1.363 . S
N688 C690 1.356 . S
N688 H700 0.984 . S
N688 H701 0.985 . S
N689 C691 1.356 . S
N689 H694 0.984 . S
N689 H695 0.985 . S
C690 C684 1.379 1_655 S
C690 C687 1.363 . S
C690 N688 1.356 . S
C691 C685 1.363 . S
C691 C686 1.379 1_455 S
C691 N689 1.356 . S
N692 C684 1.356 . S
N692 H698 0.984 . S
N692 H699 0.984 . S
N693 C686 1.356 . S
N693 H696 0.984 . S
N693 H697 0.985 . S
H694 N689 0.984 . S
H695 N689 0.985 . S
H696 N693 0.984 . S
H697 N693 0.985 . S
H698 N692 0.984 . S
H699 N692 0.984 . S
H700 N688 0.984 . S
H701 N688 0.985 . S
C702 C703 1.363 . S
C702 C708 1.379 . S
C702 N710 1.356 . S
C703 C702 1.363 . S
C703 C709 1.363 . S
C704 C705 1.363 . S
C704 C709 1.379 . S
C704 N711 1.356 . S
C705 C704 1.363 . S
C705 C708 1.363 . S
N706 C708 1.356 . S
N706 H718 0.984 . S
N706 H719 0.985 . S
N707 C709 1.356 . S
N707 H712 0.984 . S
N707 H713 0.985 . S
C708 C702 1.379 . S
C708 C705 1.363 . S
C708 N706 1.356 . S
C709 C703 1.363 . S
C709 C704 1.379 . S
C709 N707 1.356 . S
N710 C702 1.356 . S
N710 H716 0.984 . S
N710 H717 0.984 . S
N711 C704 1.356 . S
N711 H714 0.984 . S
N711 H715 0.985 . S
H712 N707 0.984 . S
H713 N707 0.985 . S
H714 N711 0.984 . S
H715 N711 0.985 . S
H716 N710 0.984 . S
H717 N710 0.984 . S
H718 N706 0.984 . S
H719 N706 0.985 . S
C720 C721 1.363 . S
C720 C726 1.379 . S
C720 N728 1.356 . S
C721 C720 1.363 . S
C721 C727 1.363 . S
C722 C723 1.363 . S
C722 C727 1.379 . S
C722 N729 1.356 . S
C723 C722 1.363 . S
C723 C726 1.363 . S
N724 C726 1.356 . S
N724 H736 0.984 . S
N724 H737 0.985 . S
N725 C727 1.356 . S
N725 H730 0.984 . S
N725 H731 0.985 . S
C726 C720 1.379 . S
C726 C723 1.363 . S
C726 N724 1.356 . S
C727 C721 1.363 . S
C727 C722 1.379 . S
C727 N725 1.356 . S
N728 C720 1.356 . S
N728 H734 0.984 . S
N728 H735 0.984 . S
N729 C722 1.356 . S
N729 H732 0.984 . S
N729 H733 0.985 . S
H730 N725 0.984 . S
H731 N725 0.985 . S
H732 N729 0.984 . S
H733 N729 0.985 . S
H734 N728 0.984 . S
H735 N728 0.984 . S
H736 N724 0.984 . S
H737 N724 0.985 . S
C738 C739 1.363 . S
C738 C744 1.379 . S
C738 N746 1.356 . S
C739 C738 1.363 . S
C739 C745 1.363 . S
C740 C741 1.363 . S
C740 C745 1.379 . S
C740 N747 1.356 . S
C741 C740 1.363 . S
C741 C744 1.363 . S
N742 C744 1.356 . S
N742 H754 0.984 . S
N742 H755 0.985 . S
N743 C745 1.356 . S
N743 H748 0.984 . S
N743 H749 0.985 . S
C744 C738 1.379 . S
C744 C741 1.363 . S
C744 N742 1.356 . S
C745 C739 1.363 . S
C745 C740 1.379 . S
C745 N743 1.356 . S
N746 C738 1.356 . S
N746 H752 0.984 . S
N746 H753 0.984 . S
N747 C740 1.356 . S
N747 H750 0.984 . S
N747 H751 0.985 . S
H748 N743 0.984 . S
H749 N743 0.985 . S
H750 N747 0.984 . S
H751 N747 0.985 . S
H752 N746 0.984 . S
H753 N746 0.984 . S
H754 N742 0.984 . S
H755 N742 0.985 . S
C756 C757 1.363 . S
C756 C762 1.379 . S
C756 N764 1.356 . S
C757 C756 1.363 . S
C757 C763 1.363 . S
C758 C759 1.363 . S
C758 C763 1.379 . S
C758 N765 1.356 . S
C759 C758 1.363 . S
C759 C762 1.363 . S
N760 C762 1.356 . S
N760 H772 0.984 . S
N760 H773 0.985 . S
N761 C763 1.356 1_556 S
N761 H766 0.984 . S
N761 H767 0.985 . S
C762 C756 1.379 . S
C762 C759 1.363 . S
C762 N760 1.356 . S
C763 C757 1.363 . S
C763 C758 1.379 . S
C763 N761 1.356 1_554 S
N764 C756 1.356 . S
N764 H770 0.984 . S
N764 H771 0.984 . S
N765 C758 1.356 . S
N765 H768 0.984 . S
N765 H769 0.985 1_554 S
H766 N761 0.984 . S
H767 N761 0.985 . S
H768 N765 0.984 . S
H769 N765 0.985 1_556 S
H770 N764 0.984 . S
H771 N764 0.984 . S
H772 N760 0.984 . S
H773 N760 0.985 . S
C774 C775 1.363 . S
C774 C780 1.379 . S
C774 N782 1.356 . S
C775 C774 1.363 . S
C775 C781 1.363 . S
C776 C777 1.363 . S
C776 C781 1.379 . S
C776 N783 1.356 1_554 S
C777 C776 1.363 . S
C777 C780 1.363 . S
N778 C780 1.356 . S
N778 H790 0.984 . S
N778 H791 0.985 . S
N779 C781 1.356 1_556 S
N779 H784 0.984 . S
N779 H785 0.985 . S
C780 C774 1.379 . S
C780 C777 1.363 . S
C780 N778 1.356 . S
C781 C775 1.363 . S
C781 C776 1.379 . S
C781 N779 1.356 1_554 S
N782 C774 1.356 . S
N782 H788 0.984 . S
N782 H789 0.984 . S
N783 C776 1.356 1_556 S
N783 H786 0.984 1_556 S
N783 H787 0.985 . S
H784 N779 0.984 . S
H785 N779 0.985 . S
H786 N783 0.984 1_554 S
H787 N783 0.985 . S
H788 N782 0.984 . S
H789 N782 0.984 . S
H790 N778 0.984 . S
H791 N778 0.985 . S
C792 C793 1.363 . S
C792 C798 1.379 . S
C792 N800 1.356 . S
C793 C792 1.363 . S
C793 C799 1.363 . S
C794 C795 1.363 . S
C794 C799 1.379 . S
C794 N801 1.356 1_554 S
C795 C794 1.363 . S
C795 C798 1.363 . S
N796 C798 1.356 . S
N796 H808 0.984 . S
N796 H809 0.985 . S
N797 C799 1.356 . S
N797 H802 0.984 . S
N797 H803 0.985 1_554 S
C798 C792 1.379 . S
C798 C795 1.363 . S
C798 N796 1.356 . S
C799 C793 1.363 . S
C799 C794 1.379 . S
C799 N797 1.356 . S
N800 C792 1.356 . S
N800 H806 0.984 . S
N800 H807 0.984 . S
N801 C794 1.356 1_556 S
N801 H804 0.984 . S
N801 H805 0.985 . S
H802 N797 0.984 . S
H803 N797 0.985 1_556 S
H804 N801 0.984 . S
H805 N801 0.985 . S
H806 N800 0.984 . S
H807 N800 0.984 . S
H808 N796 0.984 . S
H809 N796 0.985 . S
C810 C811 1.363 . S
C810 C816 1.379 . S
C810 N818 1.356 1_556 S
C811 C810 1.363 . S
C811 C817 1.363 . S
C812 C813 1.363 . S
C812 C817 1.379 . S
C812 N819 1.356 . S
C813 C812 1.363 . S
C813 C816 1.363 . S
N814 C816 1.356 1_554 S
N814 H826 0.984 . S
N814 H827 0.985 . S
N815 C817 1.356 . S
N815 H820 0.984 . S
N815 H821 0.985 . S
C816 C810 1.379 . S
C816 C813 1.363 . S
C816 N814 1.356 1_556 S
C817 C811 1.363 . S
C817 C812 1.379 . S
C817 N815 1.356 . S
N818 C810 1.356 1_554 S
N818 H824 0.984 . S
N818 H825 0.984 . S
N819 C812 1.356 . S
N819 H822 0.984 . S
N819 H823 0.985 . S
H820 N815 0.984 . S
H821 N815 0.985 . S
H822 N819 0.984 . S
H823 N819 0.985 . S
H824 N818 0.984 . S
H825 N818 0.984 . S
H826 N814 0.984 . S
H827 N814 0.985 . S
C828 C829 1.363 . S
C828 C834 1.379 . S
C828 N836 1.356 . S
C829 C828 1.363 . S
C829 C835 1.363 . S
C830 C831 1.363 . S
C830 C835 1.379 . S
C830 N837 1.356 . S
C831 C830 1.363 . S
C831 C834 1.363 . S
N832 C834 1.356 . S
N832 H844 0.984 . S
N832 H845 0.985 . S
N833 C835 1.356 . S
N833 H838 0.984 . S
N833 H839 0.985 1_556 S
C834 C828 1.379 . S
C834 C831 1.363 . S
C834 N832 1.356 . S
C835 C829 1.363 . S
C835 C830 1.379 . S
C835 N833 1.356 . S
N836 C828 1.356 . S
N836 H842 0.984 . S
N836 H843 0.984 . S
N837 C830 1.356 . S
N837 H840 0.984 . S
N837 H841 0.985 1_556 S
H838 N833 0.984 . S
H839 N833 0.985 1_554 S
H840 N837 0.984 . S
H841 N837 0.985 1_554 S
H842 N836 0.984 . S
H843 N836 0.984 . S
H844 N832 0.984 . S
H845 N832 0.985 . S
C846 C847 1.363 . S
C846 C852 1.379 . S
C846 N854 1.356 . S
C847 C846 1.363 . S
C847 C853 1.363 . S
C848 C849 1.363 . S
C848 C853 1.379 . S
C848 N855 1.356 1_556 S
C849 C848 1.363 . S
C849 C852 1.363 . S
N850 C852 1.356 . S
N850 H862 0.984 . S
N850 H863 0.985 . S
N851 C853 1.356 1_554 S
N851 H856 0.984 . S
N851 H857 0.985 . S
C852 C846 1.379 . S
C852 C849 1.363 . S
C852 N850 1.356 . S
C853 C847 1.363 . S
C853 C848 1.379 . S
C853 N851 1.356 1_556 S
N854 C846 1.356 . S
N854 H860 0.984 . S
N854 H861 0.984 . S
N855 C848 1.356 1_554 S
N855 H858 0.984 . S
N855 H859 0.985 . S
H856 N851 0.984 . S
H857 N851 0.985 . S
H858 N855 0.984 . S
H859 N855 0.985 . S
H860 N854 0.984 . S
H861 N854 0.984 . S
H862 N850 0.984 . S
H863 N850 0.985 . S
C864 C865 1.363 . S
C864 C870 1.379 . S
C864 N872 1.356 . S
C865 C864 1.363 . S
C865 C871 1.363 . S
C866 C867 1.363 . S
C866 C871 1.379 . S
C866 N873 1.356 . S
C867 C866 1.363 . S
C867 C870 1.363 . S
N868 C870 1.356 . S
N868 H880 0.984 . S
N868 H881 0.985 . S
N869 C871 1.356 . S
N869 H874 0.984 . S
N869 H875 0.985 . S
C870 C864 1.379 . S
C870 C867 1.363 . S
C870 N868 1.356 . S
C871 C865 1.363 . S
C871 C866 1.379 . S
C871 N869 1.356 . S
N872 C864 1.356 . S
N872 H878 0.984 . S
N872 H879 0.984 . S
N873 C866 1.356 . S
N873 H876 0.984 . S
N873 H877 0.985 . S
H874 N869 0.984 . S
H875 N869 0.985 . S
H876 N873 0.984 . S
H877 N873 0.985 . S
H878 N872 0.984 . S
H879 N872 0.984 . S
H880 N868 0.984 . S
H881 N868 0.985 . S
C882 C883 1.363 . S
C882 C888 1.379 . S
C882 N890 1.356 . S
C883 C882 1.363 . S
C883 C889 1.363 . S
C884 C885 1.363 . S
C884 C889 1.379 . S
C884 N891 1.356 . S
C885 C884 1.363 . S
C885 C888 1.363 . S
N886 C888 1.356 . S
N886 H898 0.984 . S
N886 H899 0.985 . S
N887 C889 1.356 . S
N887 H892 0.984 . S
N887 H893 0.985 . S
C888 C882 1.379 . S
C888 C885 1.363 . S
C888 N886 1.356 . S
C889 C883 1.363 . S
C889 C884 1.379 . S
C889 N887 1.356 . S
N890 C882 1.356 . S
N890 H896 0.984 . S
N890 H897 0.984 . S
N891 C884 1.356 . S
N891 H894 0.984 . S
N891 H895 0.985 . S
H892 N887 0.984 . S
H893 N887 0.985 . S
H894 N891 0.984 . S
H895 N891 0.985 . S
H896 N890 0.984 . S
H897 N890 0.984 . S
H898 N886 0.984 . S
H899 N886 0.985 . S
C900 C901 1.363 . S
C900 C906 1.379 . S
C900 N908 1.356 . S
C901 C900 1.363 . S
C901 C907 1.363 . S
C902 C903 1.363 . S
C902 C907 1.379 . S
C902 N909 1.356 . S
C903 C902 1.363 . S
C903 C906 1.363 . S
N904 C906 1.356 . S
N904 H916 0.984 . S
N904 H917 0.985 . S
N905 C907 1.356 . S
N905 H910 0.984 . S
N905 H911 0.985 . S
C906 C900 1.379 . S
C906 C903 1.363 . S
C906 N904 1.356 . S
C907 C901 1.363 . S
C907 C902 1.379 . S
C907 N905 1.356 . S
N908 C900 1.356 . S
N908 H914 0.984 . S
N908 H915 0.984 . S
N909 C902 1.356 . S
N909 H912 0.984 . S
N909 H913 0.985 . S
H910 N905 0.984 . S
H911 N905 0.985 . S
H912 N909 0.984 . S
H913 N909 0.985 . S
H914 N908 0.984 . S
H915 N908 0.984 . S
H916 N904 0.984 . S
H917 N904 0.985 . S
C918 C919 1.363 . S
C918 C924 1.379 . S
C918 N926 1.356 . S
C919 C918 1.363 . S
C919 C925 1.363 . S
C920 C921 1.363 . S
C920 C925 1.379 . S
C920 N927 1.356 . S
C921 C920 1.363 . S
C921 C924 1.363 . S
N922 C924 1.356 . S
N922 H934 0.984 . S
N922 H935 0.985 . S
N923 C925 1.356 . S
N923 H928 0.984 . S
N923 H929 0.985 . S
C924 C918 1.379 . S
C924 C921 1.363 . S
C924 N922 1.356 . S
C925 C919 1.363 . S
C925 C920 1.379 . S
C925 N923 1.356 . S
N926 C918 1.356 . S
N926 H932 0.984 . S
N926 H933 0.984 . S
N927 C920 1.356 . S
N927 H930 0.984 . S
N927 H931 0.985 . S
H928 N923 0.984 . S
H929 N923 0.985 . S
H930 N927 0.984 . S
H931 N927 0.985 . S
H932 N926 0.984 . S
H933 N926 0.984 . S
H934 N922 0.984 . S
H935 N922 0.985 . S
C936 C937 1.363 . S
C936 C942 1.379 . S
C936 N944 1.356 . S
C937 C936 1.363 . S
C937 C943 1.363 . S
C938 C939 1.363 . S
C938 C943 1.379 . S
C938 N945 1.356 . S
C939 C938 1.363 . S
C939 C942 1.363 . S
N940 C942 1.356 . S
N940 H952 0.984 . S
N940 H953 0.985 . S
N941 C943 1.356 . S
N941 H946 0.984 . S
N941 H947 0.985 . S
C942 C936 1.379 . S
C942 C939 1.363 . S
C942 N940 1.356 . S
C943 C937 1.363 . S
C943 C938 1.379 . S
C943 N941 1.356 . S
N944 C936 1.356 . S
N944 H950 0.984 . S
N944 H951 0.984 . S
N945 C938 1.356 . S
N945 H948 0.984 . S
N945 H949 0.985 . S
H946 N941 0.984 . S
H947 N941 0.985 . S
H948 N945 0.984 . S
H949 N945 0.985 . S
H950 N944 0.984 . S
H951 N944 0.984 . S
H952 N940 0.984 . S
H953 N940 0.985 . S
C954 C955 1.363 . S
C954 C960 1.379 . S
C954 N962 1.356 . S
C955 C954 1.363 . S
C955 C961 1.363 . S
C956 C957 1.363 . S
C956 C961 1.379 . S
C956 N963 1.356 . S
C957 C956 1.363 . S
C957 C960 1.363 . S
N958 C960 1.356 . S
N958 H970 0.984 . S
N958 H971 0.985 . S
N959 C961 1.356 . S
N959 H964 0.984 . S
N959 H965 0.985 . S
C960 C954 1.379 . S
C960 C957 1.363 . S
C960 N958 1.356 . S
C961 C955 1.363 . S
C961 C956 1.379 . S
C961 N959 1.356 . S
N962 C954 1.356 . S
N962 H968 0.984 . S
N962 H969 0.984 . S
N963 C956 1.356 . S
N963 H966 0.984 . S
N963 H967 0.985 . S
H964 N959 0.984 . S
H965 N959 0.985 . S
H966 N963 0.984 . S
H967 N963 0.985 . S
H968 N962 0.984 . S
H969 N962 0.984 . S
H970 N958 0.984 . S
H971 N958 0.985 . S
C972 C973 1.363 . S
C972 C978 1.379 . S
C972 N980 1.356 . S
C973 C972 1.363 . S
C973 C979 1.363 . S
C974 C975 1.363 . S
C974 C979 1.379 . S
C974 N981 1.356 . S
C975 C974 1.363 . S
C975 C978 1.363 . S
N976 C978 1.356 . S
N976 H988 0.984 . S
N976 H989 0.985 . S
N977 C979 1.356 . S
N977 H982 0.984 . S
N977 H983 0.985 . S
C978 C972 1.379 . S
C978 C975 1.363 . S
C978 N976 1.356 . S
C979 C973 1.363 . S
C979 C974 1.379 . S
C979 N977 1.356 . S
N980 C972 1.356 . S
N980 H986 0.984 . S
N980 H987 0.984 . S
N981 C974 1.356 . S
N981 H984 0.984 . S
N981 H985 0.985 . S
H982 N977 0.984 . S
H983 N977 0.985 . S
H984 N981 0.984 . S
H985 N981 0.985 . S
H986 N980 0.984 . S
H987 N980 0.984 . S
H988 N976 0.984 . S
H989 N976 0.985 . S
C990 C991 1.363 . S
C990 C996 1.379 . S
C990 N998 1.356 . S
C991 C990 1.363 . S
C991 C997 1.363 . S
C992 C993 1.363 . S
C992 C997 1.379 . S
C992 N999 1.356 . S
C993 C992 1.363 . S
C993 C996 1.363 . S
N994 C996 1.356 . S
N994 H1006 0.984 . S
N994 H1007 0.985 . S
N995 C997 1.356 . S
N995 H1000 0.984 . S
N995 H1001 0.985 . S
C996 C990 1.379 . S
C996 C993 1.363 . S
C996 N994 1.356 . S
C997 C991 1.363 . S
C997 C992 1.379 . S
C997 N995 1.356 . S
N998 C990 1.356 . S
N998 H1004 0.984 . S
N998 H1005 0.984 . S
N999 C992 1.356 . S
N999 H1002 0.984 . S
N999 H1003 0.985 . S
H1000 N995 0.984 . S
H1001 N995 0.985 . S
H1002 N999 0.984 . S
H1003 N999 0.985 . S
H1004 N998 0.984 . S
H1005 N998 0.984 . S
H1006 N994 0.984 . S
H1007 N994 0.985 . S
C1008 C1009 1.363 . S
C1008 C1014 1.379 . S
C1008 N1016 1.356 . S
C1009 C1008 1.363 . S
C1009 C1015 1.363 . S
C1010 C1011 1.363 . S
C1010 C1015 1.379 . S
C1010 N1017 1.356 . S
C1011 C1010 1.363 . S
C1011 C1014 1.363 . S
N1012 C1014 1.356 . S
N1012 H1024 0.984 . S
N1012 H1025 0.985 . S
N1013 C1015 1.356 . S
N1013 H1018 0.984 . S
N1013 H1019 0.985 . S
C1014 C1008 1.379 . S
C1014 C1011 1.363 . S
C1014 N1012 1.356 . S
C1015 C1009 1.363 . S
C1015 C1010 1.379 . S
C1015 N1013 1.356 . S
N1016 C1008 1.356 . S
N1016 H1022 0.984 . S
N1016 H1023 0.984 . S
N1017 C1010 1.356 . S
N1017 H1020 0.984 . S
N1017 H1021 0.985 . S
H1018 N1013 0.984 . S
H1019 N1013 0.985 . S
H1020 N1017 0.984 . S
H1021 N1017 0.985 . S
H1022 N1016 0.984 . S
H1023 N1016 0.984 . S
H1024 N1012 0.984 . S
H1025 N1012 0.985 . S
C1026 C1027 1.363 1_455 S
C1026 C1032 1.379 . S
C1026 N1034 1.356 1_455 S
C1027 C1026 1.363 1_655 S
C1027 C1033 1.363 . S
C1028 C1029 1.363 . S
C1028 C1033 1.379 1_455 S
C1028 N1035 1.356 . S
C1029 C1028 1.363 . S
C1029 C1032 1.363 . S
N1030 C1032 1.356 . S
N1030 H1042 0.984 . S
N1030 H1043 0.985 . S
N1031 C1033 1.356 . S
N1031 H1036 0.984 . S
N1031 H1037 0.985 . S
C1032 C1026 1.379 . S
C1032 C1029 1.363 . S
C1032 N1030 1.356 . S
C1033 C1027 1.363 . S
C1033 C1028 1.379 1_655 S
C1033 N1031 1.356 . S
N1034 C1026 1.356 1_655 S
N1034 H1040 0.984 1_655 S
N1034 H1041 0.984 . S
N1035 C1028 1.356 . S
N1035 H1038 0.984 . S
N1035 H1039 0.985 . S
H1036 N1031 0.984 . S
H1037 N1031 0.985 . S
H1038 N1035 0.984 . S
H1039 N1035 0.985 . S
H1040 N1034 0.984 1_455 S
H1041 N1034 0.984 . S
H1042 N1030 0.984 . S
H1043 N1030 0.985 . S
C1044 C1045 1.363 . S
C1044 C1050 1.379 . S
C1044 N1052 1.356 . S
C1045 C1044 1.363 . S
C1045 C1051 1.363 . S
C1046 C1047 1.363 . S
C1046 C1051 1.379 . S
C1046 N1053 1.356 . S
C1047 C1046 1.363 . S
C1047 C1050 1.363 . S
N1048 C1050 1.356 . S
N1048 H1060 0.984 . S
N1048 H1061 0.985 . S
N1049 C1051 1.356 . S
N1049 H1054 0.984 . S
N1049 H1055 0.985 . S
C1050 C1044 1.379 . S
C1050 C1047 1.363 . S
C1050 N1048 1.356 . S
C1051 C1045 1.363 . S
C1051 C1046 1.379 . S
C1051 N1049 1.356 . S
N1052 C1044 1.356 . S
N1052 H1058 0.984 . S
N1052 H1059 0.984 . S
N1053 C1046 1.356 . S
N1053 H1056 0.984 . S
N1053 H1057 0.985 . S
H1054 N1049 0.984 . S
H1055 N1049 0.985 . S
H1056 N1053 0.984 . S
H1057 N1053 0.985 . S
H1058 N1052 0.984 . S
H1059 N1052 0.984 . S
H1060 N1048 0.984 . S
H1061 N1048 0.985 . S
C1062 C1063 1.363 1_545 S
C1062 C1068 1.379 . S
C1062 N1070 1.356 1_545 S
C1063 C1062 1.363 1_565 S
C1063 C1069 1.363 . S
C1064 C1065 1.363 . S
C1064 C1069 1.379 1_545 S
C1064 N1071 1.356 . S
C1065 C1064 1.363 . S
C1065 C1068 1.363 . S
N1066 C1068 1.356 . S
N1066 H1078 0.984 . S
N1066 H1079 0.985 . S
N1067 C1069 1.356 . S
N1067 H1072 0.984 . S
N1067 H1073 0.985 . S
C1068 C1062 1.379 . S
C1068 C1065 1.363 . S
C1068 N1066 1.356 . S
C1069 C1063 1.363 . S
C1069 C1064 1.379 1_565 S
C1069 N1067 1.356 . S
N1070 C1062 1.356 1_565 S
N1070 H1076 0.984 1_565 S
N1070 H1077 0.984 . S
N1071 C1064 1.356 . S
N1071 H1074 0.984 . S
N1071 H1075 0.985 . S
H1072 N1067 0.984 . S
H1073 N1067 0.985 . S
H1074 N1071 0.984 . S
H1075 N1071 0.985 . S
H1076 N1070 0.984 1_545 S
H1077 N1070 0.984 . S
H1078 N1066 0.984 . S
H1079 N1066 0.985 . S
C1080 C1081 1.363 1_565 S
C1080 C1086 1.379 . S
C1080 N1088 1.356 . S
C1081 C1080 1.363 1_545 S
C1081 C1087 1.363 . S
C1082 C1083 1.363 . S
C1082 C1087 1.379 . S
C1082 N1089 1.356 . S
C1083 C1082 1.363 . S
C1083 C1086 1.363 1_545 S
N1084 C1086 1.356 . S
N1084 H1096 0.984 . S
N1084 H1097 0.985 1_565 S
N1085 C1087 1.356 . S
N1085 H1090 0.984 . S
N1085 H1091 0.985 . S
C1086 C1080 1.379 . S
C1086 C1083 1.363 1_565 S
C1086 N1084 1.356 . S
C1087 C1081 1.363 . S
C1087 C1082 1.379 . S
C1087 N1085 1.356 . S
N1088 C1080 1.356 . S
N1088 H1094 0.984 . S
N1088 H1095 0.984 . S
N1089 C1082 1.356 . S
N1089 H1092 0.984 . S
N1089 H1093 0.985 . S
H1090 N1085 0.984 . S
H1091 N1085 0.985 . S
H1092 N1089 0.984 . S
H1093 N1089 0.985 . S
H1094 N1088 0.984 . S
H1095 N1088 0.984 . S
H1096 N1084 0.984 . S
H1097 N1084 0.985 1_545 S
C1098 C1099 1.363 . S
C1098 C1104 1.379 . S
C1098 N1106 1.356 . S
C1099 C1098 1.363 . S
C1099 C1105 1.363 . S
C1100 C1101 1.363 . S
C1100 C1105 1.379 . S
C1100 N1107 1.356 . S
C1101 C1100 1.363 . S
C1101 C1104 1.363 . S
N1102 C1104 1.356 . S
N1102 H1114 0.984 . S
N1102 H1115 0.985 . S
N1103 C1105 1.356 1_655 S
N1103 H1108 0.984 . S
N1103 H1109 0.985 . S
C1104 C1098 1.379 . S
C1104 C1101 1.363 . S
C1104 N1102 1.356 . S
C1105 C1099 1.363 . S
C1105 C1100 1.379 . S
C1105 N1103 1.356 1_455 S
N1106 C1098 1.356 . S
N1106 H1112 0.984 . S
N1106 H1113 0.984 1_455 S
N1107 C1100 1.356 . S
N1107 H1110 0.984 . S
N1107 H1111 0.985 . S
H1108 N1103 0.984 . S
H1109 N1103 0.985 . S
H1110 N1107 0.984 . S
H1111 N1107 0.985 . S
H1112 N1106 0.984 . S
H1113 N1106 0.984 1_655 S
H1114 N1102 0.984 . S
H1115 N1102 0.985 . S
C1116 C1117 1.363 . S
C1116 C1122 1.379 . S
C1116 N1124 1.356 . S
C1117 C1116 1.363 . S
C1117 C1123 1.363 . S
C1118 C1119 1.363 . S
C1118 C1123 1.379 . S
C1118 N1125 1.356 . S
C1119 C1118 1.363 . S
C1119 C1122 1.363 . S
N1120 C1122 1.356 . S
N1120 H1132 0.984 . S
N1120 H1133 0.985 . S
N1121 C1123 1.356 . S
N1121 H1126 0.984 . S
N1121 H1127 0.985 . S
C1122 C1116 1.379 . S
C1122 C1119 1.363 . S
C1122 N1120 1.356 . S
C1123 C1117 1.363 . S
C1123 C1118 1.379 . S
C1123 N1121 1.356 . S
N1124 C1116 1.356 . S
N1124 H1130 0.984 . S
N1124 H1131 0.984 . S
N1125 C1118 1.356 . S
N1125 H1128 0.984 . S
N1125 H1129 0.985 . S
H1126 N1121 0.984 . S
H1127 N1121 0.985 . S
H1128 N1125 0.984 . S
H1129 N1125 0.985 . S
H1130 N1124 0.984 . S
H1131 N1124 0.984 . S
H1132 N1120 0.984 . S
H1133 N1120 0.985 . S
C1134 C1135 1.363 . S
C1134 C1140 1.379 . S
C1134 N1142 1.356 . S
C1135 C1134 1.363 . S
C1135 C1141 1.363 . S
C1136 C1137 1.363 . S
C1136 C1141 1.379 . S
C1136 N1143 1.356 . S
C1137 C1136 1.363 . S
C1137 C1140 1.363 . S
N1138 C1140 1.356 . S
N1138 H1150 0.984 . S
N1138 H1151 0.985 . S
N1139 C1141 1.356 . S
N1139 H1144 0.984 . S
N1139 H1145 0.985 . S
C1140 C1134 1.379 . S
C1140 C1137 1.363 . S
C1140 N1138 1.356 . S
C1141 C1135 1.363 . S
C1141 C1136 1.379 . S
C1141 N1139 1.356 . S
N1142 C1134 1.356 . S
N1142 H1148 0.984 . S
N1142 H1149 0.984 . S
N1143 C1136 1.356 . S
N1143 H1146 0.984 . S
N1143 H1147 0.985 . S
H1144 N1139 0.984 . S
H1145 N1139 0.985 . S
H1146 N1143 0.984 . S
H1147 N1143 0.985 . S
H1148 N1142 0.984 . S
H1149 N1142 0.984 . S
H1150 N1138 0.984 . S
H1151 N1138 0.985 . S
C1152 C1153 1.363 . S
C1152 C1158 1.379 . S
C1152 N1160 1.356 . S
C1153 C1152 1.363 . S
C1153 C1159 1.363 . S
C1154 C1155 1.363 . S
C1154 C1159 1.379 . S
C1154 N1161 1.356 . S
C1155 C1154 1.363 . S
C1155 C1158 1.363 . S
N1156 C1158 1.356 . S
N1156 H1168 0.984 . S
N1156 H1169 0.985 . S
N1157 C1159 1.356 . S
N1157 H1162 0.984 . S
N1157 H1163 0.985 . S
C1158 C1152 1.379 . S
C1158 C1155 1.363 . S
C1158 N1156 1.356 . S
C1159 C1153 1.363 . S
C1159 C1154 1.379 . S
C1159 N1157 1.356 . S
N1160 C1152 1.356 . S
N1160 H1166 0.984 . S
N1160 H1167 0.984 . S
N1161 C1154 1.356 . S
N1161 H1164 0.984 . S
N1161 H1165 0.985 . S
H1162 N1157 0.984 . S
H1163 N1157 0.985 . S
H1164 N1161 0.984 . S
H1165 N1161 0.985 . S
H1166 N1160 0.984 . S
H1167 N1160 0.984 . S
H1168 N1156 0.984 . S
H1169 N1156 0.985 . S
C1170 C1171 1.363 . S
C1170 C1176 1.379 . S
C1170 N1178 1.356 . S
C1171 C1170 1.363 . S
C1171 C1177 1.363 . S
C1172 C1173 1.363 . S
C1172 C1177 1.379 . S
C1172 N1179 1.356 . S
C1173 C1172 1.363 . S
C1173 C1176 1.363 . S
N1174 C1176 1.356 . S
N1174 H1186 0.984 . S
N1174 H1187 0.985 . S
N1175 C1177 1.356 . S
N1175 H1180 0.984 . S
N1175 H1181 0.985 . S
C1176 C1170 1.379 . S
C1176 C1173 1.363 . S
C1176 N1174 1.356 . S
C1177 C1171 1.363 . S
C1177 C1172 1.379 . S
C1177 N1175 1.356 . S
N1178 C1170 1.356 . S
N1178 H1184 0.984 . S
N1178 H1185 0.984 . S
N1179 C1172 1.356 . S
N1179 H1182 0.984 . S
N1179 H1183 0.985 . S
H1180 N1175 0.984 . S
H1181 N1175 0.985 . S
H1182 N1179 0.984 . S
H1183 N1179 0.985 . S
H1184 N1178 0.984 . S
H1185 N1178 0.984 . S
H1186 N1174 0.984 . S
H1187 N1174 0.985 . S
C1188 C1189 1.363 . S
C1188 C1194 1.379 . S
C1188 N1196 1.356 . S
C1189 C1188 1.363 . S
C1189 C1195 1.363 . S
C1190 C1191 1.363 . S
C1190 C1195 1.379 . S
C1190 N1197 1.356 . S
C1191 C1190 1.363 . S
C1191 C1194 1.363 . S
N1192 C1194 1.356 . S
N1192 H1204 0.984 . S
N1192 H1205 0.985 . S
N1193 C1195 1.356 . S
N1193 H1198 0.984 . S
N1193 H1199 0.985 . S
C1194 C1188 1.379 . S
C1194 C1191 1.363 . S
C1194 N1192 1.356 . S
C1195 C1189 1.363 . S
C1195 C1190 1.379 . S
C1195 N1193 1.356 . S
N1196 C1188 1.356 . S
N1196 H1202 0.984 . S
N1196 H1203 0.984 . S
N1197 C1190 1.356 . S
N1197 H1200 0.984 . S
N1197 H1201 0.985 . S
H1198 N1193 0.984 . S
H1199 N1193 0.985 . S
H1200 N1197 0.984 . S
H1201 N1197 0.985 . S
H1202 N1196 0.984 . S
H1203 N1196 0.984 . S
H1204 N1192 0.984 . S
H1205 N1192 0.985 . S
C1206 C1207 1.363 . S
C1206 C1212 1.379 . S
C1206 N1214 1.356 . S
C1207 C1206 1.363 . S
C1207 C1213 1.363 . S
C1208 C1209 1.363 . S
C1208 C1213 1.379 . S
C1208 N1215 1.356 . S
C1209 C1208 1.363 . S
C1209 C1212 1.363 . S
N1210 C1212 1.356 . S
N1210 H1222 0.984 . S
N1210 H1223 0.985 . S
N1211 C1213 1.356 . S
N1211 H1216 0.984 . S
N1211 H1217 0.985 . S
C1212 C1206 1.379 . S
C1212 C1209 1.363 . S
C1212 N1210 1.356 . S
C1213 C1207 1.363 . S
C1213 C1208 1.379 . S
C1213 N1211 1.356 . S
N1214 C1206 1.356 . S
N1214 H1220 0.984 . S
N1214 H1221 0.984 . S
N1215 C1208 1.356 . S
N1215 H1218 0.984 . S
N1215 H1219 0.985 . S
H1216 N1211 0.984 . S
H1217 N1211 0.985 . S
H1218 N1215 0.984 . S
H1219 N1215 0.985 . S
H1220 N1214 0.984 . S
H1221 N1214 0.984 . S
H1222 N1210 0.984 . S
H1223 N1210 0.985 . S
C1224 C1225 1.363 . S
C1224 C1230 1.379 . S
C1224 N1232 1.356 . S
C1225 C1224 1.363 . S
C1225 C1231 1.363 . S
C1226 C1227 1.363 . S
C1226 C1231 1.379 . S
C1226 N1233 1.356 . S
C1227 C1226 1.363 . S
C1227 C1230 1.363 . S
N1228 C1230 1.356 . S
N1228 H1240 0.984 . S
N1228 H1241 0.985 . S
N1229 C1231 1.356 . S
N1229 H1234 0.984 . S
N1229 H1235 0.985 . S
C1230 C1224 1.379 . S
C1230 C1227 1.363 . S
C1230 N1228 1.356 . S
C1231 C1225 1.363 . S
C1231 C1226 1.379 . S
C1231 N1229 1.356 . S
N1232 C1224 1.356 . S
N1232 H1238 0.984 . S
N1232 H1239 0.984 . S
N1233 C1226 1.356 . S
N1233 H1236 0.984 . S
N1233 H1237 0.985 . S
H1234 N1229 0.984 . S
H1235 N1229 0.985 . S
H1236 N1233 0.984 . S
H1237 N1233 0.985 . S
H1238 N1232 0.984 . S
H1239 N1232 0.984 . S
H1240 N1228 0.984 . S
H1241 N1228 0.985 . S
C1242 C1243 1.372 . S
C1242 C1248 1.379 1_554 S
C1242 N1250 1.356 . S
C1243 C1242 1.372 . S
C1243 C1249 1.363 1_545 S
C1244 C1245 1.362 . S
C1244 C1249 1.380 1_546 S
C1244 N1251 1.356 1_545 S
C1245 C1244 1.362 . S
C1245 C1248 1.363 . S
N1246 C1248 1.356 . S
N1246 H1258 0.984 . S
N1246 H1259 0.985 . S
N1247 C1249 1.356 . S
N1247 H1252 0.984 . S
N1247 H1253 0.985 . S
C1248 C1242 1.379 1_556 S
C1248 C1245 1.363 . S
C1248 N1246 1.356 . S
C1249 C1243 1.363 1_565 S
C1249 C1244 1.380 1_564 S
C1249 N1247 1.356 . S
N1250 C1242 1.356 . S
N1250 H1256 0.984 . S
N1250 H1257 0.984 . S
N1251 C1244 1.356 1_565 S
N1251 H1254 0.984 1_565 S
N1251 H1255 0.985 . S
H1252 N1247 0.984 . S
H1253 N1247 0.985 . S
H1254 N1251 0.984 1_545 S
H1255 N1251 0.985 . S
H1256 N1250 0.984 . S
H1257 N1250 0.984 . S
H1258 N1246 0.984 . S
H1259 N1246 0.985 . S
C1260 C1261 1.363 . S
C1260 C1266 1.379 1_554 S
C1260 N1268 1.356 . S
C1261 C1260 1.363 . S
C1261 C1267 1.363 . S
C1262 C1263 1.366 . S
C1262 C1267 1.390 1_556 S
C1262 N1269 1.332 1_455 S
C1263 C1262 1.366 . S
C1263 C1266 1.385 . S
N1264 C1266 1.356 . S
N1264 H1276 0.984 . S
N1264 H1277 0.976 1_455 S
N1265 C1267 1.356 . S
N1265 H1270 0.984 . S
N1265 H1271 0.985 . S
C1266 C1260 1.379 1_556 S
C1266 C1263 1.385 . S
C1266 N1264 1.356 . S
C1267 C1261 1.363 . S
C1267 C1262 1.390 1_554 S
C1267 N1265 1.356 . S
N1268 C1260 1.356 . S
N1268 H1274 0.984 . S
N1268 H1275 0.984 . S
N1269 C1262 1.332 1_655 S
N1269 H1272 0.984 . S
N1269 H1273 0.985 . S
H1270 N1265 0.984 . S
H1271 N1265 0.985 . S
H1272 N1269 0.984 . S
H1273 N1269 0.985 . S
H1274 N1268 0.984 . S
H1275 N1268 0.984 . S
H1276 N1264 0.984 . S
H1277 N1264 0.976 1_655 S
C1278 C1279 1.363 . S
C1278 C1284 1.379 1_556 S
C1278 N1286 1.356 . S
C1279 C1278 1.363 . S
C1279 C1285 1.363 . S
C1280 C1281 1.363 . S
C1280 C1285 1.379 1_554 S
C1280 N1287 1.356 . S
C1281 C1280 1.363 . S
C1281 C1284 1.363 . S
N1282 C1284 1.356 . S
N1282 H1294 0.984 . S
N1282 H1295 0.985 . S
N1283 C1285 1.356 . S
N1283 H1288 0.984 . S
N1283 H1289 0.985 . S
C1284 C1278 1.379 1_554 S
C1284 C1281 1.363 . S
C1284 N1282 1.356 . S
C1285 C1279 1.363 . S
C1285 C1280 1.379 1_556 S
C1285 N1283 1.356 . S
N1286 C1278 1.356 . S
N1286 H1292 0.984 . S
N1286 H1293 0.984 . S
N1287 C1280 1.356 . S
N1287 H1290 0.984 . S
N1287 H1291 0.985 . S
H1288 N1283 0.984 . S
H1289 N1283 0.985 . S
H1290 N1287 0.984 . S
H1291 N1287 0.985 . S
H1292 N1286 0.984 . S
H1293 N1286 0.984 . S
H1294 N1282 0.984 . S
H1295 N1282 0.985 . S
C1296 C1297 1.363 . S
C1296 C1302 1.379 . S
C1296 N1304 1.356 . S
C1297 C1296 1.363 . S
C1297 C1303 1.363 . S
C1298 C1299 1.363 . S
C1298 C1303 1.379 . S
C1298 N1305 1.356 . S
C1299 C1298 1.363 . S
C1299 C1302 1.363 . S
N1300 C1302 1.356 . S
N1300 H1312 0.984 . S
N1300 H1313 0.985 . S
N1301 C1303 1.356 . S
N1301 H1306 0.984 . S
N1301 H1307 0.985 . S
C1302 C1296 1.379 . S
C1302 C1299 1.363 . S
C1302 N1300 1.356 . S
C1303 C1297 1.363 . S
C1303 C1298 1.379 . S
C1303 N1301 1.356 . S
N1304 C1296 1.356 . S
N1304 H1310 0.984 . S
N1304 H1311 0.984 . S
N1305 C1298 1.356 . S
N1305 H1308 0.984 . S
N1305 H1309 0.985 . S
H1306 N1301 0.984 . S
H1307 N1301 0.985 . S
H1308 N1305 0.984 . S
H1309 N1305 0.985 . S
H1310 N1304 0.984 . S
H1311 N1304 0.984 . S
H1312 N1300 0.984 . S
H1313 N1300 0.985 . S
C1314 C1315 1.363 . S
C1314 C1320 1.379 . S
C1314 N1322 1.356 . S
C1315 C1314 1.363 . S
C1315 C1321 1.363 . S
C1316 C1317 1.363 . S
C1316 C1321 1.379 . S
C1316 N1323 1.356 . S
C1317 C1316 1.363 . S
C1317 C1320 1.363 . S
N1318 C1320 1.356 . S
N1318 H1330 0.984 . S
N1318 H1331 0.985 . S
N1319 C1321 1.356 . S
N1319 H1324 0.984 . S
N1319 H1325 0.985 . S
C1320 C1314 1.379 . S
C1320 C1317 1.363 . S
C1320 N1318 1.356 . S
C1321 C1315 1.363 . S
C1321 C1316 1.379 . S
C1321 N1319 1.356 . S
N1322 C1314 1.356 . S
N1322 H1328 0.984 . S
N1322 H1329 0.984 . S
N1323 C1316 1.356 . S
N1323 H1326 0.984 . S
N1323 H1327 0.985 . S
H1324 N1319 0.984 . S
H1325 N1319 0.985 . S
H1326 N1323 0.984 . S
H1327 N1323 0.985 . S
H1328 N1322 0.984 . S
H1329 N1322 0.984 . S
H1330 N1318 0.984 . S
H1331 N1318 0.985 . S
C1332 C1333 1.363 . S
C1332 C1338 1.379 . S
C1332 N1340 1.356 . S
C1333 C1332 1.363 . S
C1333 C1339 1.363 . S
C1334 C1335 1.363 . S
C1334 C1339 1.379 . S
C1334 N1341 1.356 . S
C1335 C1334 1.363 . S
C1335 C1338 1.363 . S
N1336 C1338 1.356 . S
N1336 H1348 0.984 . S
N1336 H1349 0.985 . S
N1337 C1339 1.356 . S
N1337 H1342 0.984 . S
N1337 H1343 0.985 . S
C1338 C1332 1.379 . S
C1338 C1335 1.363 . S
C1338 N1336 1.356 . S
C1339 C1333 1.363 . S
C1339 C1334 1.379 . S
C1339 N1337 1.356 . S
N1340 C1332 1.356 . S
N1340 H1346 0.984 . S
N1340 H1347 0.984 . S
N1341 C1334 1.356 . S
N1341 H1344 0.984 . S
N1341 H1345 0.985 . S
H1342 N1337 0.984 . S
H1343 N1337 0.985 . S
H1344 N1341 0.984 . S
H1345 N1341 0.985 . S
H1346 N1340 0.984 . S
H1347 N1340 0.984 . S
H1348 N1336 0.984 . S
H1349 N1336 0.985 . S
C1350 C1351 1.363 . S
C1350 C1356 1.379 . S
C1350 N1358 1.356 . S
C1351 C1350 1.363 . S
C1351 C1357 1.363 . S
C1352 C1353 1.363 . S
C1352 C1357 1.379 . S
C1352 N1359 1.356 . S
C1353 C1352 1.363 . S
C1353 C1356 1.363 . S
N1354 C1356 1.356 . S
N1354 H1366 0.984 . S
N1354 H1367 0.985 . S
N1355 C1357 1.356 . S
N1355 H1360 0.984 . S
N1355 H1361 0.985 . S
C1356 C1350 1.379 . S
C1356 C1353 1.363 . S
C1356 N1354 1.356 . S
C1357 C1351 1.363 . S
C1357 C1352 1.379 . S
C1357 N1355 1.356 . S
N1358 C1350 1.356 . S
N1358 H1364 0.984 . S
N1358 H1365 0.984 . S
N1359 C1352 1.356 . S
N1359 H1362 0.984 . S
N1359 H1363 0.985 . S
H1360 N1355 0.984 . S
H1361 N1355 0.985 . S
H1362 N1359 0.984 . S
H1363 N1359 0.985 . S
H1364 N1358 0.984 . S
H1365 N1358 0.984 . S
H1366 N1354 0.984 . S
H1367 N1354 0.985 . S
C1368 C1369 1.363 . S
C1368 C1374 1.379 . S
C1368 N1376 1.356 . S
C1369 C1368 1.363 . S
C1369 C1375 1.363 . S
C1370 C1371 1.363 . S
C1370 C1375 1.379 . S
C1370 N1377 1.356 . S
C1371 C1370 1.363 . S
C1371 C1374 1.363 . S
N1372 C1374 1.356 . S
N1372 H1384 0.984 . S
N1372 H1385 0.985 . S
N1373 C1375 1.356 . S
N1373 H1378 0.984 . S
N1373 H1379 0.985 . S
C1374 C1368 1.379 . S
C1374 C1371 1.363 . S
C1374 N1372 1.356 . S
C1375 C1369 1.363 . S
C1375 C1370 1.379 . S
C1375 N1373 1.356 . S
N1376 C1368 1.356 . S
N1376 H1382 0.984 . S
N1376 H1383 0.984 . S
N1377 C1370 1.356 . S
N1377 H1380 0.984 . S
N1377 H1381 0.985 . S
H1378 N1373 0.984 . S
H1379 N1373 0.985 . S
H1380 N1377 0.984 . S
H1381 N1377 0.985 . S
H1382 N1376 0.984 . S
H1383 N1376 0.984 . S
H1384 N1372 0.984 . S
H1385 N1372 0.985 . S
C1386 C1387 1.363 . S
C1386 C1392 1.379 . S
C1386 N1394 1.356 . S
C1387 C1386 1.363 . S
C1387 C1393 1.363 . S
C1388 C1389 1.363 . S
C1388 C1393 1.379 . S
C1388 N1395 1.356 . S
C1389 C1388 1.363 . S
C1389 C1392 1.363 . S
N1390 C1392 1.356 . S
N1390 H1402 0.984 . S
N1390 H1403 0.985 . S
N1391 C1393 1.356 . S
N1391 H1396 0.984 . S
N1391 H1397 0.985 . S
C1392 C1386 1.379 . S
C1392 C1389 1.363 . S
C1392 N1390 1.356 . S
C1393 C1387 1.363 . S
C1393 C1388 1.379 . S
C1393 N1391 1.356 . S
N1394 C1386 1.356 . S
N1394 H1400 0.984 . S
N1394 H1401 0.984 . S
N1395 C1388 1.356 . S
N1395 H1398 0.984 . S
N1395 H1399 0.985 . S
H1396 N1391 0.984 . S
H1397 N1391 0.985 . S
H1398 N1395 0.984 . S
H1399 N1395 0.985 . S
H1400 N1394 0.984 . S
H1401 N1394 0.984 . S
H1402 N1390 0.984 . S
H1403 N1390 0.985 . S
C595 C21 1.234 . S
C597 N35 1.186 . S
C613 N68 1.186 . S
C615 C54 1.233 . S
C631 C87 1.233 . S
C633 N2 1.186 . S
C649 N167 1.186 . S
C651 C120 1.233 . S
C667 N101 1.186 . S
C669 C153 1.233 . S
C685 C186 1.233 . S
C687 N134 1.186 . S
C703 N233 1.186 . S
C705 C219 1.233 . S
C721 C252 1.233 . S
C723 N266 1.186 . S
C739 C285 1.233 . S
C741 N200 1.186 . S
C757 N365 1.186 . S
C759 C318 1.233 . S
C775 N299 1.186 . S
C777 C351 1.233 . S
C793 C384 1.234 . S
C795 N332 1.186 . S
C811 N431 1.186 . S
C813 C417 1.233 . S
C829 C450 1.233 . S
C831 N464 1.186 . S
C847 C483 1.233 . S
C849 N398 1.186 . S
C865 N563 1.186 . S
C867 C516 1.234 . S
C883 N497 1.186 . S
C885 C549 1.233 . S
C901 C582 1.233 . S
C903 N530 1.186 . S
C919 N343 1.442 . S
C921 N13 1.442 . S
C937 N376 1.442 . S
C939 N46 1.442 . S
C955 N310 1.442 . S
C957 N79 1.442 . S
C973 N112 1.442 . S
C975 N475 1.442 . S
C991 N409 1.442 . S
C993 N145 1.442 . S
C1009 N442 1.442 . S
C1011 N178 1.442 . S
C1027 N211 1.442 . S
C1029 N541 1.442 . S
C1045 N574 1.442 . S
C1047 N244 1.442 . S
C1063 N508 1.442 . S
C1065 N277 1.442 . S
C1081 C7 1.404 1_545 S
C1083 C172 1.404 . S
C1099 C106 1.404 1_455 S
C1101 C40 1.404 . S
C1117 C139 1.404 . S
C1119 C73 1.404 . S
C1135 C370 1.404 . S
C1137 C205 1.404 . S
C1153 C304 1.404 . S
C1155 C238 1.404 . S
C1171 C271 1.404 . S
C1173 C337 1.404 . S
C1189 C568 1.404 . S
C1191 C403 1.404 . S
C1207 C436 1.404 . S
C1209 C502 1.404 . S
C1225 C535 1.404 . S
C1227 C469 1.404 . S
C1243 C18 1.477 . S
C1245 C183 1.476 . S
C1261 C51 1.476 . S
C1263 C117 1.477 . S
C1279 C150 1.476 . S
C1281 C84 1.476 . S
C1297 C381 1.476 . S
C1299 C216 1.476 . S
C1315 C315 1.476 . S
C1317 C249 1.476 . S
C1333 C348 1.476 . S
C1335 C282 1.476 . S
C1351 C414 1.476 . S
C1353 C579 1.476 . S
C1369 C447 1.476 . S
C1371 C513 1.476 . S
C1387 C546 1.476 . S
C1389 C480 1.476 . S
