# Generated by pormake.
# Topology fee, (5)-cn, num edge types: 1
# Building blocks:
#     Node 0, Type 0, BuildingBlock: XOMCOT_clean_sbu_0, # of connection points: 5
#     Node 1, Type 0, BuildingBlock: XOMCOT_clean_sbu_0, # of connection points: 5
#     Node 2, Type 0, BuildingBlock: XOMCOT_clean_sbu_0, # of connection points: 5
#     Node 3, Type 0, BuildingBlock: XOMCOT_clean_sbu_0, # of connection points: 5
#     Edge 4, Type (0, 0), BuildingBlock: FUNLAD_clean_linker_1, # of connection points: 2
#     Edge 5, Type (0, 0), BuildingBlock: FUNLAD_clean_linker_1, # of connection points: 2
#     Edge 6, Type (0, 0), BuildingBlock: FUNLAD_clean_linker_1, # of connection points: 2
#     Edge 7, Type (0, 0), BuildingBlock: FUNLAD_clean_linker_1, # of connection points: 2
#     Edge 8, Type (0, 0), BuildingBlock: FUNLAD_clean_linker_1, # of connection points: 2
#     Edge 9, Type (0, 0), BuildingBlock: FUNLAD_clean_linker_1, # of connection points: 2
#     Edge 10, Type (0, 0), BuildingBlock: FUNLAD_clean_linker_1, # of connection points: 2
#     Edge 11, Type (0, 0), BuildingBlock: FUNLAD_clean_linker_1, # of connection points: 2
#     Edge 12, Type (0, 0), BuildingBlock: FUNLAD_clean_linker_1, # of connection points: 2
#     Edge 13, Type (0, 0), BuildingBlock: FUNLAD_clean_linker_1, # of connection points: 2
# Relax obj value: 0.155
# Max RMSD: 0.169
# Mean RMSD: 0.152
data_MOF--net-fee--node1-XOMCOT_clean_sbu_0--edge1-FUNLAD_clean_linker_1
_symmetry_space_group_name_H-M    P1
_symmetry_Int_Tables_number       1
_symmetry_cell_setting            triclinic
loop_
_symmetry_equiv_pos_as_xyz
'x, y, z'
_cell_length_a     39.848496
_cell_length_b     39.431754
_cell_length_c     18.504647
_cell_angle_alpha  96.04707
_cell_angle_beta   95.792024
_cell_angle_gamma 89.972572
loop_
_atom_site_label
_atom_site_type_symbol
_atom_site_fract_x
_atom_site_fract_y
_atom_site_fract_z
_atom_type_partial_charge
Co0 Co 0.18594 0.5505 0.09944 0.0
C1 C 0.185 0.54809 0.25896 0.0
C2 C 0.18819 0.59931 0.23057 0.0
C3 C 0.18777 0.60053 0.30512 0.0
N4 N 0.18655 0.56648 0.20184 0.0
N5 N 0.18575 0.56827 0.32282 0.0
H6 H 0.18322 0.52053 0.25404 0.0
H7 H 0.18954 0.62089 0.19938 0.0
C8 C 0.24722 0.58559 0.05446 0.0
O9 O 0.25489 0.55834 0.01233 0.0
N10 N 0.18489 0.53513 0.99576 0.0
C11 C 0.18068 0.50309 0.96233 0.0
C12 C 0.17964 0.50398 0.88803 0.0
C13 C 0.18516 0.55513 0.94076 0.0
N14 N 0.18265 0.53673 0.87461 0.0
C15 C 0.20613 0.48244 0.1223 0.0
C16 C 0.27452 0.4947 0.15295 0.0
C17 C 0.2626 0.46087 0.14252 0.0
C18 C 0.22783 0.4551 0.13072 0.0
C19 C 0.25167 0.5215 0.14578 0.0
N20 N 0.21823 0.51498 0.12431 0.0
H21 H 0.17948 0.47702 0.11174 0.0
H22 H 0.26117 0.54725 0.15754 0.0
H23 H 0.17733 0.48047 0.98879 0.0
H24 H 0.18708 0.58268 0.94896 0.0
O25 O 0.14433 0.52588 0.10413 0.0
O26 O 0.1476 0.57917 0.07724 0.0
O27 O 0.22206 0.58544 0.09196 0.0
C28 C 0.12889 0.55341 0.08712 0.0
H29 H 0.18902 0.62347 0.34289 0.0
H30 H 0.176 0.48215 0.84738 0.0
H31 H 0.3011 0.50046 0.16684 0.0
H32 H 0.21749 0.42943 0.12516 0.0
Co33 Co 0.45474 0.20265 0.08499 0.0
C34 C 0.45903 0.20423 0.24615 0.0
C35 C 0.41099 0.22131 0.20099 0.0
C36 C 0.41064 0.22191 0.27542 0.0
N37 N 0.44135 0.21041 0.18285 0.0
N38 N 0.44087 0.2111 0.30367 0.0
H39 H 0.48446 0.19443 0.24993 0.0
H40 H 0.39025 0.22768 0.16264 0.0
C41 C 0.43362 0.26835 0.02609 0.0
O42 O 0.46282 0.26979 0.99932 0.0
N43 N 0.46716 0.19363 0.98504 0.0
C44 C 0.49152 0.17243 0.96211 0.0
C45 C 0.49037 0.17034 0.88731 0.0
C46 C 0.45022 0.2023 0.92254 0.0
N47 N 0.46452 0.18942 0.86258 0.0
C48 C 0.52513 0.2235 0.09863 0.0
C49 C 0.51487 0.28928 0.15916 0.0
C50 C 0.54598 0.28122 0.13308 0.0
C51 C 0.55159 0.24728 0.1062 0.0
C52 C 0.4891 0.26473 0.15015 0.0
N53 N 0.49357 0.23314 0.11438 0.0
H54 H 0.53008 0.19755 0.07915 0.0
H55 H 0.46481 0.27191 0.16786 0.0
H56 H 0.50811 0.15782 0.99649 0.0
H57 H 0.42725 0.21691 0.92019 0.0
O58 O 0.47442 0.15975 0.10827 0.0
O59 O 0.4214 0.16648 0.06281 0.0
O60 O 0.42582 0.24258 0.05792 0.0
C61 C 0.44492 0.14614 0.08581 0.0
H62 H 0.3894 0.22903 0.30559 0.0
H63 H 0.50657 0.15489 0.85397 0.0
H64 H 0.50991 0.31485 0.18302 0.0
H65 H 0.57597 0.23911 0.09036 0.0
Co66 Co 0.81276 0.54054 0.10696 0.0
C67 C 0.81254 0.53775 0.94633 0.0
C68 C 0.80516 0.58856 0.99603 0.0
C69 C 0.80511 0.58953 0.92185 0.0
N70 N 0.8097 0.55613 0.01114 0.0
N71 N 0.80975 0.55753 0.89074 0.0
H72 H 0.81679 0.51052 0.94 0.0
H73 H 0.8024 0.61007 0.03627 0.0
C74 C 0.74964 0.57068 0.16514 0.0
O75 O 0.74248 0.542 0.19083 0.0
N76 N 0.81641 0.52558 0.20463 0.0
C77 C 0.82873 0.49581 0.22548 0.0
C78 C 0.82951 0.49657 0.30007 0.0
C79 C 0.81145 0.5446 0.26786 0.0
N80 N 0.81841 0.52722 0.32657 0.0
C81 C 0.79118 0.47099 0.06745 0.0
C82 C 0.72393 0.48407 0.03036 0.0
C83 C 0.73379 0.45042 0.03911 0.0
C84 C 0.76817 0.44388 0.05345 0.0
C85 C 0.74804 0.5104 0.04384 0.0
N86 N 0.78053 0.50393 0.06964 0.0
H87 H 0.81755 0.46537 0.07765 0.0
H88 H 0.74025 0.53603 0.03548 0.0
H89 H 0.83844 0.47542 0.19036 0.0
H90 H 0.80358 0.57093 0.27129 0.0
O91 O 0.85432 0.51751 0.0874 0.0
O92 O 0.85073 0.57081 0.13818 0.0
O93 O 0.77605 0.57359 0.13252 0.0
C94 C 0.86953 0.5458 0.11522 0.0
H95 H 0.80214 0.61217 0.89367 0.0
H96 H 0.83887 0.47652 0.33212 0.0
H97 H 0.69796 0.49013 0.01397 0.0
H98 H 0.77712 0.41807 0.05663 0.0
Co99 Co 0.47071 0.82703 0.10816 0.0
C100 C 0.47441 0.82516 0.94867 0.0
C101 C 0.42474 0.81276 0.97393 0.0
C102 C 0.42419 0.81241 0.89933 0.0
N103 N 0.45623 0.82061 1.00468 0.0
N104 N 0.45545 0.82027 0.88361 0.0
H105 H 0.50082 0.83244 0.95544 0.0
H106 H 0.40343 0.80836 1.0037 0.0
C107 C 0.44106 0.76503 0.15914 0.0
O108 O 0.47016 0.76049 0.19673 0.0
N109 N 0.48442 0.8347 0.21334 0.0
C110 C 0.51207 0.85184 0.24674 0.0
C111 C 0.51109 0.85431 0.32117 0.0
C112 C 0.46607 0.82896 0.26873 0.0
N113 N 0.48223 0.83962 0.33489 0.0
C114 C 0.53808 0.79944 0.1171 0.0
C115 C 0.51984 0.73447 0.05511 0.0
C116 C 0.55289 0.74032 0.08778 0.0
C117 C 0.56233 0.77384 0.11577 0.0
C118 C 0.4965 0.76094 0.05722 0.0
N119 N 0.50507 0.79224 0.09354 0.0
H120 H 0.54605 0.82503 0.13691 0.0
H121 H 0.47105 0.75578 0.03234 0.0
H122 H 0.53102 0.86361 0.2196 0.0
H123 H 0.44096 0.81797 0.26127 0.0
O124 O 0.49643 0.86672 0.09333 0.0
O125 O 0.44295 0.86741 0.11736 0.0
O126 O 0.43646 0.7911 0.12362 0.0
C127 C 0.46941 0.88423 0.10397 0.0
H128 H 0.40219 0.80756 0.86035 0.0
H129 H 0.52976 0.86698 0.36148 0.0
H130 H 0.5118 0.70937 0.02984 0.0
H131 H 0.58805 0.7806 0.13651 0.0
H132 H 0.18122 0.57762 0.80334 0.0
C133 C 0.18264 0.55016 0.80498 0.0
H134 H 0.18636 0.50244 0.74251 0.0
H135 H 0.12456 0.54846 0.44238 0.0
H136 H 0.07852 0.51455 0.47352 0.0
H137 H 0.08026 0.49338 0.59457 0.0
H138 H 0.12795 0.50629 0.68548 0.0
C139 C 0.18516 0.5299 0.74245 0.0
C140 C 0.18424 0.54355 0.67009 0.0
C141 C 0.15651 0.53519 0.61684 0.0
C142 C 0.1558 0.54686 0.54645 0.0
C143 C 0.12703 0.53936 0.49573 0.0
C144 C 0.10024 0.52012 0.51311 0.0
C145 C 0.10119 0.50823 0.58129 0.0
C146 C 0.12882 0.51573 0.63287 0.0
H147 H 0.1855 0.52946 0.39866 0.0
C148 C 0.18488 0.55673 0.39413 0.0
H149 H 0.18302 0.60575 0.45235 0.0
H150 H 0.24233 0.5625 0.75754 0.0
H151 H 0.28813 0.59686 0.72684 0.0
H152 H 0.28665 0.61758 0.60538 0.0
H153 H 0.23937 0.60393 0.51378 0.0
C154 C 0.18304 0.57842 0.45495 0.0
C155 C 0.18325 0.56626 0.52873 0.0
C156 C 0.21081 0.57497 0.58229 0.0
C157 C 0.21146 0.56338 0.65279 0.0
C158 C 0.23999 0.57135 0.70395 0.0
C159 C 0.26663 0.59088 0.68686 0.0
C160 C 0.2658 0.60253 0.61847 0.0
C161 C 0.23841 0.59459 0.56646 0.0
H162 H 0.42975 0.2081 0.77701 0.0
C163 C 0.4534 0.19493 0.78811 0.0
H164 H 0.49647 0.17406 0.7427 0.0
H165 H 0.38877 0.16893 0.44457 0.0
H166 H 0.35798 0.1268 0.49885 0.0
H167 H 0.37451 0.11401 0.62509 0.0
H168 H 0.4218 0.14338 0.69796 0.0
C169 C 0.47192 0.18548 0.73251 0.0
C170 C 0.46141 0.19323 0.65643 0.0
C171 C 0.43375 0.17568 0.61444 0.0
C172 C 0.42446 0.1828 0.54128 0.0
C173 C 0.39684 0.16473 0.50049 0.0
C174 C 0.379 0.14036 0.53088 0.0
C175 C 0.38829 0.13318 0.60197 0.0
C176 C 0.4154 0.15041 0.64338 0.0
H177 H 0.47619 0.19439 0.3906 0.0
C178 C 0.45175 0.20593 0.37847 0.0
H179 H 0.4079 0.22549 0.42287 0.0
H180 H 0.51585 0.23117 0.72156 0.0
H181 H 0.54656 0.27346 0.6675 0.0
H182 H 0.5298 0.28658 0.54156 0.0
H183 H 0.48242 0.25734 0.46876 0.0
C184 C 0.43266 0.21461 0.43349 0.0
C185 C 0.44309 0.20709 0.5098 0.0
C186 C 0.47069 0.22473 0.55189 0.0
C187 C 0.48004 0.21753 0.62498 0.0
C188 C 0.50771 0.23551 0.66575 0.0
C189 C 0.5255 0.25995 0.63548 0.0
C190 C 0.51609 0.26731 0.56456 0.0
C191 C 0.48894 0.25014 0.52315 0.0
H192 H 0.81625 0.51903 0.79956 0.0
C193 C 0.81212 0.54599 0.81477 0.0
H194 H 0.80462 0.59419 0.77532 0.0
H195 H 0.87858 0.51021 0.50569 0.0
H196 H 0.92793 0.50929 0.59352 0.0
H197 H 0.92513 0.53017 0.72316 0.0
H198 H 0.87295 0.55184 0.76585 0.0
C199 C 0.80976 0.56738 0.76232 0.0
C200 C 0.81193 0.55506 0.68391 0.0
C201 C 0.84282 0.54283 0.65969 0.0
C202 C 0.84458 0.53129 0.58464 0.0
C203 C 0.87574 0.51916 0.56203 0.0
C204 C 0.90433 0.5186 0.61183 0.0
C205 C 0.90274 0.53033 0.68482 0.0
C206 C 0.8725 0.54248 0.70871 0.0
H207 H 0.81061 0.56695 0.41469 0.0
C208 C 0.8155 0.53997 0.40167 0.0
H209 H 0.82273 0.49246 0.44411 0.0
H210 H 0.74912 0.57779 0.71168 0.0
H211 H 0.69984 0.57902 0.62373 0.0
H212 H 0.70265 0.55821 0.49405 0.0
H213 H 0.75475 0.53627 0.45144 0.0
C214 C 0.81773 0.51941 0.45562 0.0
C215 C 0.81567 0.53261 0.53357 0.0
C216 C 0.78483 0.54505 0.55769 0.0
C217 C 0.78307 0.55658 0.63277 0.0
C218 C 0.75195 0.56884 0.65534 0.0
C219 C 0.72341 0.56958 0.60546 0.0
C220 C 0.725 0.55789 0.53245 0.0
C221 C 0.7552 0.54557 0.50861 0.0
H222 H 0.49219 0.83434 0.81176 0.0
C223 C 0.46675 0.8247 0.81344 0.0
H224 H 0.42126 0.80845 0.75034 0.0
H225 H 0.44233 0.88855 0.48139 0.0
H226 H 0.39694 0.92038 0.53343 0.0
H227 H 0.37895 0.90867 0.65212 0.0
H228 H 0.40637 0.86517 0.71969 0.0
C229 C 0.44693 0.8175 0.75023 0.0
C230 C 0.45807 0.82416 0.67834 0.0
C231 C 0.44138 0.84929 0.63875 0.0
C232 C 0.45148 0.85578 0.56977 0.0
C233 C 0.43516 0.88191 0.53297 0.0
C234 C 0.40918 0.90057 0.56248 0.0
C235 C 0.39907 0.894 0.62932 0.0
C236 C 0.41497 0.86883 0.66741 0.0
H237 H 0.44528 0.82462 0.40541 0.0
C238 C 0.47024 0.83561 0.40463 0.0
H239 H 0.51496 0.85316 0.46907 0.0
H240 H 0.49327 0.77182 0.73595 0.0
H241 H 0.53873 0.74011 0.68402 0.0
H242 H 0.55704 0.75219 0.56584 0.0
H243 H 0.52977 0.79589 0.49861 0.0
C244 C 0.48938 0.84372 0.46843 0.0
C245 C 0.47798 0.83675 0.53987 0.0
C246 C 0.49463 0.81158 0.57938 0.0
C247 C 0.48445 0.80501 0.64823 0.0
C248 C 0.50061 0.77868 0.68469 0.0
C249 C 0.52661 0.76005 0.65519 0.0
C250 C 0.53689 0.76682 0.58862 0.0
C251 C 0.52108 0.7921 0.55074 0.0
H252 H 0.91837 0.56622 0.16809 0.0
C253 C 0.90649 0.54933 0.12251 0.0
H254 H 0.91297 0.5167 0.02772 0.0
H255 H 0.05862 0.60255 0.14928 0.0
H256 H 0.02679 0.6546 0.14173 0.0
H257 H 0.96603 0.65261 0.09932 0.0
H258 H 0.93655 0.59851 0.06809 0.0
C259 C 0.92533 0.53313 0.07356 0.0
C260 C 0.96307 0.53492 0.08255 0.0
C261 C 0.9805 0.56678 0.09288 0.0
C262 C 0.01619 0.56795 0.1094 0.0
C263 C 0.03214 0.60011 0.12995 0.0
C264 C 0.01406 0.63024 0.1268 0.0
C265 C 0.97983 0.62912 0.10349 0.0
C266 C 0.96312 0.59785 0.08661 0.0
H267 H 0.08018 0.57168 0.03923 0.0
C268 C 0.09184 0.55524 0.07796 0.0
H269 H 0.08491 0.5218 0.1565 0.0
H270 H 0.93811 0.46931 0.06627 0.0
H271 H 0.97052 0.41745 0.06021 0.0
H272 H 0.03268 0.41951 0.07163 0.0
H273 H 0.06276 0.47344 0.09084 0.0
C274 C 0.07269 0.53778 0.1174 0.0
C275 C 0.03497 0.53725 0.10592 0.0
C276 C 0.01765 0.5054 0.0915 0.0
C277 C 0.98174 0.50422 0.08173 0.0
C278 C 0.96527 0.47194 0.07166 0.0
C279 C 0.98358 0.44184 0.06835 0.0
C280 C 0.01856 0.44299 0.07498 0.0
C281 C 0.03552 0.47425 0.08638 0.0
H282 H 0.49266 0.93301 0.08728 0.0
C283 C 0.4696 0.92146 0.10058 0.0
H284 H 0.42018 0.93057 0.1294 0.0
H285 H 0.45454 0.08565 0.24585 0.0
H286 H 0.44822 0.06149 0.35911 0.0
H287 H 0.44065 0.99947 0.36044 0.0
H288 H 0.43919 0.96121 0.2485 0.0
C289 C 0.44304 0.94139 0.11342 0.0
C290 C 0.44533 0.9791 0.11149 0.0
C291 C 0.44598 1.00115 0.17732 0.0
C292 C 0.45069 0.03691 0.17668 0.0
C293 C 0.45133 0.05828 0.24332 0.0
C294 C 0.44768 0.04476 0.3087 0.0
C295 C 0.44339 0.00984 0.30943 0.0
C296 C 0.44257 0.98816 0.24475 0.0
H297 H 0.41353 0.09933 0.06239 0.0
C298 C 0.43825 0.10925 0.08504 0.0
H299 H 0.48609 0.0976 0.13592 0.0
H300 H 0.44059 0.94477 0.97425 0.0
H301 H 0.44741 0.96883 0.86119 0.0
H302 H 0.45846 0.03037 0.8609 0.0
H303 H 0.4623 0.06829 0.97344 0.0
C304 C 0.46168 0.08785 0.11088 0.0
C305 C 0.45465 0.05065 0.11022 0.0
C306 C 0.45324 0.0287 0.04406 0.0
C307 C 0.44805 0.99299 0.04456 0.0
C308 C 0.44559 0.97188 0.97737 0.0
C309 C 0.44925 0.98538 0.91199 0.0
C310 C 0.45538 0.02005 0.9118 0.0
C311 C 0.4574 0.04157 0.97685 0.0
H312 H 0.42059 0.3208 1.00341 0.0
C313 C 0.41208 0.29883 0.02778 0.0
H314 H 0.37645 0.28006 0.09097 0.0
H315 H 0.33981 0.42245 0.2479 0.0
H316 H 0.36821 0.395 0.3481 0.0
H317 H 0.39647 0.33978 0.32531 0.0
H318 H 0.39652 0.31166 0.20245 0.0
C319 C 0.38433 0.30135 0.06368 0.0
C320 C 0.36668 0.33448 0.07661 0.0
C321 C 0.36674 0.35051 0.14903 0.0
C322 C 0.3504 0.38235 0.16231 0.0
C323 C 0.35139 0.39804 0.23493 0.0
C324 C 0.36774 0.38264 0.29291 0.0
C325 C 0.38366 0.35156 0.28008 0.0
C326 C 0.38337 0.33563 0.20916 0.0
H327 H 0.27523 0.40716 0.15659 0.0
C328 C 0.2853 0.43102 0.14266 0.0
H329 H 0.3251 0.45334 0.09621 0.0
H330 H 0.35857 0.30918 0.93205 0.0
H331 H 0.33054 0.33694 0.83216 0.0
H332 H 0.30405 0.39309 0.85482 0.0
H333 H 0.3052 0.42168 0.97767 0.0
C334 C 0.31561 0.43076 0.11668 0.0
C335 C 0.33397 0.39811 0.10323 0.0
C336 C 0.33402 0.3822 0.03082 0.0
C337 C 0.34994 0.35013 0.01755 0.0
C338 C 0.34797 0.33405 0.94508 0.0
C339 C 0.33169 0.34958 0.88722 0.0
C340 C 0.31672 0.38116 0.89999 0.0
C341 C 0.31765 0.39733 0.97081 0.0
H342 H 0.71868 0.39591 0.02545 0.0
C343 C 0.70932 0.42173 0.03556 0.0
H344 H 0.66763 0.45102 0.0676 0.0
H345 H 0.56904 0.32258 0.95943 0.0
H346 H 0.56121 0.35199 0.85039 0.0
H347 H 0.59676 0.40169 0.83687 0.0
H348 H 0.64036 0.42236 0.93263 0.0
C349 C 0.67765 0.42584 0.05386 0.0
C350 C 0.65629 0.3958 0.06206 0.0
C351 C 0.63106 0.38395 1.0057 0.0
C352 C 0.6108 0.35509 0.01333 0.0
C353 C 0.58548 0.34409 0.95631 0.0
C354 C 0.58064 0.3608 0.89344 0.0
C355 C 0.60063 0.3888 0.88584 0.0
C356 C 0.62556 0.40039 0.94117 0.0
H357 H 0.56907 0.33215 0.16892 0.0
C358 C 0.57136 0.30883 0.13279 0.0
H359 H 0.59555 0.28603 0.04354 0.0
H360 H 0.70113 0.41325 0.18236 0.0
H361 H 0.71014 0.3831 0.29025 0.0
H362 H 0.67691 0.33143 0.3011 0.0
H363 H 0.6342 0.30986 0.2046 0.0
C364 C 0.59452 0.30777 0.08441 0.0
C365 C 0.61583 0.3381 0.07745 0.0
C366 C 0.64128 0.34985 0.13371 0.0
C367 C 0.66118 0.37904 0.12644 0.0
C368 C 0.68577 0.39081 0.18432 0.0
C369 C 0.69116 0.37379 0.24666 0.0
C370 C 0.6724 0.34476 0.25285 0.0
C371 C 0.64779 0.33276 0.19717 0.0
H372 H 0.56869 0.68704 0.05958 0.0
C373 C 0.5764 0.711 0.09158 0.0
H374 H 0.61296 0.73444 0.17243 0.0
H375 H 0.67366 0.60546 0.30131 0.0
H376 H 0.64581 0.63263 0.40255 0.0
H377 H 0.60823 0.68156 0.38615 0.0
H378 H 0.59851 0.70384 0.26875 0.0
C379 C 0.6055 0.71184 0.13578 0.0
C380 C 0.6265 0.68082 0.14347 0.0
C381 C 0.63137 0.66763 0.21225 0.0
C382 C 0.65253 0.63898 0.22146 0.0
C383 C 0.65756 0.62691 0.29113 0.0
C384 C 0.64174 0.64226 0.34973 0.0
C385 C 0.62062 0.66984 0.34052 0.0
C386 C 0.61536 0.68245 0.27278 0.0
H387 H 0.73418 0.62312 0.14959 0.0
C388 C 0.72544 0.5989 0.16444 0.0
H389 H 0.68323 0.57101 0.18761 0.0
H390 H 0.62566 0.70132 1.00591 0.0
H391 H 0.65047 0.6718 0.90312 0.0
H392 H 0.6821 0.61862 0.91607 0.0
H393 H 0.68982 0.5952 0.03247 0.0
C394 C 0.69266 0.59495 0.17297 0.0
C395 C 0.66848 0.62328 0.16176 0.0
C396 C 0.66233 0.63541 0.09207 0.0
C397 C 0.64229 0.66488 0.08348 0.0
C398 C 0.63907 0.67805 0.01479 0.0
C399 C 0.65344 0.66149 0.95533 0.0
C400 C 0.67138 0.63165 0.96269 0.0
C401 C 0.67585 0.61865 0.03006 0.0
H402 H 0.42238 0.71429 0.17612 0.0
C403 C 0.41555 0.73741 0.15115 0.0
H404 H 0.37901 0.76139 0.08384 0.0
H405 H 0.31043 0.62813 0.91696 0.0
H406 H 0.33178 0.65554 0.81939 0.0
H407 H 0.36821 0.70679 0.8466 0.0
H408 H 0.38312 0.73122 0.97128 0.0
C409 C 0.38561 0.73881 0.11094 0.0
C410 C 0.36279 0.70827 0.09505 0.0
C411 C 0.35479 0.6939 0.02166 0.0
C412 C 0.33444 0.66381 1.00599 0.0
C413 C 0.32622 0.65057 0.93212 0.0
C414 C 0.33827 0.66608 0.87549 0.0
C415 C 0.35874 0.69496 0.89081 0.0
C416 C 0.36703 0.70878 0.96282 0.0
H417 H 0.25945 0.63911 0.09414 0.0
C418 C 0.26907 0.61625 0.06535 0.0
H419 H 0.31076 0.594 0.01723 0.0
H420 H 0.36772 0.73222 0.24041 0.0
H421 H 0.3493 0.703 0.33854 0.0
H422 H 0.32066 0.64695 0.31272 0.0
H423 H 0.30929 0.62041 0.18859 0.0
C424 C 0.30076 0.61647 0.04656 0.0
C425 C 0.32261 0.64767 0.06367 0.0
C426 C 0.33121 0.66165 0.1372 0.0
C427 C 0.35002 0.69271 0.15262 0.0
C428 C 0.35542 0.70766 0.22593 0.0
C429 C 0.34469 0.69132 0.2828 0.0
C430 C 0.3284 0.65987 0.26823 0.0
C431 C 0.32172 0.64507 0.19649 0.0
loop_
_geom_bond_atom_site_label_1
_geom_bond_atom_site_label_2
_geom_bond_distance
_geom_bond_site_symmetry_2
_ccdc_geom_bond_type
Co0 N4 2.148 . S
Co0 N10 2.128 1_554 S
Co0 N20 2.194 . S
Co0 O25 2.351 . S
Co0 O26 2.155 . S
Co0 O27 2.096 . S
C1 N4 1.301 . S
C1 N5 1.328 . S
C1 H6 0.930 . S
C2 C3 1.333 . S
C2 N4 1.317 . S
C2 H7 0.930 . S
C3 C2 1.333 . S
C3 N5 1.350 . S
C3 H29 0.931 . S
N4 Co0 2.148 . S
N4 C1 1.301 . S
N4 C2 1.317 . S
N5 C1 1.328 . S
N5 C3 1.350 . S
H6 C1 0.930 . S
H7 C2 0.930 . S
C8 O9 1.224 . S
C8 O27 1.247 . S
O9 C8 1.224 . S
N10 Co0 2.128 1_556 S
N10 C11 1.355 . S
N10 C13 1.311 . S
C11 N10 1.355 . S
C11 C12 1.363 . S
C11 H23 0.929 . S
C12 C11 1.363 . S
C12 N14 1.375 . S
C12 H30 0.931 . S
C13 N10 1.311 . S
C13 N14 1.347 . S
C13 H24 0.929 . S
N14 C12 1.375 . S
N14 C13 1.347 . S
C15 C18 1.365 . S
C15 N20 1.328 . S
C15 H21 0.929 . S
C16 C17 1.362 . S
C16 C19 1.378 . S
C16 H31 0.929 . S
C17 C16 1.362 . S
C17 C18 1.366 . S
C18 C15 1.365 . S
C18 C17 1.366 . S
C18 H32 0.930 . S
C19 C16 1.378 . S
C19 N20 1.315 . S
C19 H22 0.930 . S
N20 Co0 2.194 . S
N20 C15 1.328 . S
N20 C19 1.315 . S
H21 C15 0.929 . S
H22 C19 0.930 . S
H23 C11 0.929 . S
H24 C13 0.929 . S
O25 Co0 2.351 . S
O25 C28 1.244 . S
O26 Co0 2.155 . S
O26 C28 1.240 . S
O27 Co0 2.096 . S
O27 C8 1.247 . S
C28 O25 1.244 . S
C28 O26 1.240 . S
H29 C3 0.931 . S
H30 C12 0.931 . S
H31 C16 0.929 . S
H32 C18 0.930 . S
Co33 N37 2.148 . S
Co33 N43 2.128 1_554 S
Co33 N53 2.194 . S
Co33 O58 2.351 . S
Co33 O59 2.155 . S
Co33 O60 2.096 . S
C34 N37 1.301 . S
C34 N38 1.328 . S
C34 H39 0.930 . S
C35 C36 1.333 . S
C35 N37 1.317 . S
C35 H40 0.930 . S
C36 C35 1.333 . S
C36 N38 1.350 . S
C36 H62 0.931 . S
N37 Co33 2.148 . S
N37 C34 1.301 . S
N37 C35 1.317 . S
N38 C34 1.328 . S
N38 C36 1.350 . S
H39 C34 0.930 . S
H40 C35 0.930 . S
C41 O42 1.224 . S
C41 O60 1.247 . S
O42 C41 1.224 . S
N43 Co33 2.128 1_556 S
N43 C44 1.355 . S
N43 C46 1.311 . S
C44 N43 1.355 . S
C44 C45 1.363 . S
C44 H56 0.929 . S
C45 C44 1.363 . S
C45 N47 1.375 . S
C45 H63 0.931 . S
C46 N43 1.311 . S
C46 N47 1.347 . S
C46 H57 0.929 . S
N47 C45 1.375 . S
N47 C46 1.347 . S
C48 C51 1.365 . S
C48 N53 1.328 . S
C48 H54 0.929 . S
C49 C50 1.362 . S
C49 C52 1.378 . S
C49 H64 0.929 . S
C50 C49 1.362 . S
C50 C51 1.366 . S
C51 C48 1.365 . S
C51 C50 1.366 . S
C51 H65 0.930 . S
C52 C49 1.378 . S
C52 N53 1.315 . S
C52 H55 0.930 . S
N53 Co33 2.194 . S
N53 C48 1.328 . S
N53 C52 1.315 . S
H54 C48 0.929 . S
H55 C52 0.930 . S
H56 C44 0.929 . S
H57 C46 0.929 . S
O58 Co33 2.351 . S
O58 C61 1.244 . S
O59 Co33 2.155 . S
O59 C61 1.240 . S
O60 Co33 2.096 . S
O60 C41 1.247 . S
C61 O58 1.244 . S
C61 O59 1.240 . S
H62 C36 0.931 . S
H63 C45 0.931 . S
H64 C49 0.929 . S
H65 C51 0.930 . S
Co66 N70 2.148 . S
Co66 N76 2.128 . S
Co66 N86 2.194 . S
Co66 O91 2.351 . S
Co66 O92 2.155 . S
Co66 O93 2.096 . S
C67 N70 1.301 1_556 S
C67 N71 1.328 . S
C67 H72 0.930 . S
C68 C69 1.333 . S
C68 N70 1.317 1_556 S
C68 H73 0.930 1_556 S
C69 C68 1.333 . S
C69 N71 1.350 . S
C69 H95 0.931 . S
N70 Co66 2.148 . S
N70 C67 1.301 1_554 S
N70 C68 1.317 1_554 S
N71 C67 1.328 . S
N71 C69 1.350 . S
H72 C67 0.930 . S
H73 C68 0.930 1_554 S
C74 O75 1.224 . S
C74 O93 1.247 . S
O75 C74 1.224 . S
N76 Co66 2.128 . S
N76 C77 1.355 . S
N76 C79 1.311 . S
C77 N76 1.355 . S
C77 C78 1.363 . S
C77 H89 0.929 . S
C78 C77 1.363 . S
C78 N80 1.375 . S
C78 H96 0.931 . S
C79 N76 1.311 . S
C79 N80 1.347 . S
C79 H90 0.929 . S
N80 C78 1.375 . S
N80 C79 1.347 . S
C81 C84 1.365 . S
C81 N86 1.328 . S
C81 H87 0.929 . S
C82 C83 1.362 . S
C82 C85 1.378 . S
C82 H97 0.929 . S
C83 C82 1.362 . S
C83 C84 1.366 . S
C84 C81 1.365 . S
C84 C83 1.366 . S
C84 H98 0.930 . S
C85 C82 1.378 . S
C85 N86 1.315 . S
C85 H88 0.930 . S
N86 Co66 2.194 . S
N86 C81 1.328 . S
N86 C85 1.315 . S
H87 C81 0.929 . S
H88 C85 0.930 . S
H89 C77 0.929 . S
H90 C79 0.929 . S
O91 Co66 2.351 . S
O91 C94 1.244 . S
O92 Co66 2.155 . S
O92 C94 1.240 . S
O93 Co66 2.096 . S
O93 C74 1.247 . S
C94 O91 1.244 . S
C94 O92 1.240 . S
H95 C69 0.931 . S
H96 C78 0.931 . S
H97 C82 0.929 . S
H98 C84 0.930 . S
Co99 N103 2.148 . S
Co99 N109 2.128 . S
Co99 N119 2.194 . S
Co99 O124 2.351 . S
Co99 O125 2.155 . S
Co99 O126 2.096 . S
C100 N103 1.301 1_556 S
C100 N104 1.328 . S
C100 H105 0.930 . S
C101 C102 1.333 . S
C101 N103 1.317 1_556 S
C101 H106 0.930 . S
C102 C101 1.333 . S
C102 N104 1.350 . S
C102 H128 0.931 . S
N103 Co99 2.148 . S
N103 C100 1.301 1_554 S
N103 C101 1.317 1_554 S
N104 C100 1.328 . S
N104 C102 1.350 . S
H105 C100 0.930 . S
H106 C101 0.930 . S
C107 O108 1.224 . S
C107 O126 1.247 . S
O108 C107 1.224 . S
N109 Co99 2.128 . S
N109 C110 1.355 . S
N109 C112 1.311 . S
C110 N109 1.355 . S
C110 C111 1.363 . S
C110 H122 0.929 . S
C111 C110 1.363 . S
C111 N113 1.375 . S
C111 H129 0.931 . S
C112 N109 1.311 . S
C112 N113 1.347 . S
C112 H123 0.929 . S
N113 C111 1.375 . S
N113 C112 1.347 . S
C114 C117 1.365 . S
C114 N119 1.328 . S
C114 H120 0.929 . S
C115 C116 1.362 . S
C115 C118 1.378 . S
C115 H130 0.929 . S
C116 C115 1.362 . S
C116 C117 1.366 . S
C117 C114 1.365 . S
C117 C116 1.366 . S
C117 H131 0.930 . S
C118 C115 1.378 . S
C118 N119 1.315 . S
C118 H121 0.930 . S
N119 Co99 2.194 . S
N119 C114 1.328 . S
N119 C118 1.315 . S
H120 C114 0.929 . S
H121 C118 0.930 . S
H122 C110 0.929 . S
H123 C112 0.929 . S
O124 Co99 2.351 . S
O124 C127 1.244 . S
O125 Co99 2.155 . S
O125 C127 1.240 . S
O126 Co99 2.096 . S
O126 C107 1.247 . S
C127 O124 1.244 . S
C127 O125 1.240 . S
H128 C102 0.931 . S
H129 C111 0.931 . S
H130 C115 0.929 . S
H131 C117 0.930 . S
H132 C133 0.951 . S
C133 H132 0.951 . S
C133 C139 1.265 . S
H134 C139 0.950 . S
H135 C143 0.949 . S
H136 C144 0.950 . S
H137 C145 0.951 . S
H138 C146 0.951 . S
C139 C133 1.265 . S
C139 H134 0.950 . S
C139 C140 1.478 . S
C140 C139 1.478 . S
C140 C141 1.397 . S
C140 C157 1.394 . S
C141 C140 1.397 . S
C141 C142 1.438 . S
C141 C146 1.429 . S
C142 C141 1.438 . S
C142 C143 1.428 . S
C142 C155 1.394 . S
C143 H135 0.949 . S
C143 C142 1.428 . S
C143 C144 1.345 . S
C144 H136 0.950 . S
C144 C143 1.345 . S
C144 C145 1.424 . S
C145 H137 0.951 . S
C145 C144 1.424 . S
C145 C146 1.347 . S
C146 H138 0.951 . S
C146 C141 1.429 . S
C146 C145 1.347 . S
H147 C148 0.951 . S
C148 H147 0.951 . S
C148 C154 1.265 . S
H149 C154 0.950 . S
H150 C158 0.949 . S
H151 C159 0.950 . S
H152 C160 0.951 . S
H153 C161 0.951 . S
C154 C148 1.265 . S
C154 H149 0.950 . S
C154 C155 1.478 . S
C155 C142 1.394 . S
C155 C154 1.478 . S
C155 C156 1.397 . S
C156 C155 1.397 . S
C156 C157 1.438 . S
C156 C161 1.429 . S
C157 C140 1.394 . S
C157 C156 1.438 . S
C157 C158 1.428 . S
C158 H150 0.949 . S
C158 C157 1.428 . S
C158 C159 1.345 . S
C159 H151 0.950 . S
C159 C158 1.345 . S
C159 C160 1.424 . S
C160 H152 0.951 . S
C160 C159 1.424 . S
C160 C161 1.347 . S
C161 H153 0.951 . S
C161 C156 1.429 . S
C161 C160 1.347 . S
H162 C163 0.951 . S
C163 H162 0.951 . S
C163 C169 1.265 . S
H164 C169 0.950 . S
H165 C173 0.949 . S
H166 C174 0.950 . S
H167 C175 0.951 . S
H168 C176 0.951 . S
C169 C163 1.265 . S
C169 H164 0.950 . S
C169 C170 1.478 . S
C170 C169 1.478 . S
C170 C171 1.397 . S
C170 C187 1.394 . S
C171 C170 1.397 . S
C171 C172 1.438 . S
C171 C176 1.429 . S
C172 C171 1.438 . S
C172 C173 1.428 . S
C172 C185 1.394 . S
C173 H165 0.949 . S
C173 C172 1.428 . S
C173 C174 1.345 . S
C174 H166 0.950 . S
C174 C173 1.345 . S
C174 C175 1.424 . S
C175 H167 0.951 . S
C175 C174 1.424 . S
C175 C176 1.347 . S
C176 H168 0.951 . S
C176 C171 1.429 . S
C176 C175 1.347 . S
H177 C178 0.951 . S
C178 H177 0.951 . S
C178 C184 1.265 . S
H179 C184 0.950 . S
H180 C188 0.949 . S
H181 C189 0.950 . S
H182 C190 0.951 . S
H183 C191 0.951 . S
C184 C178 1.265 . S
C184 H179 0.950 . S
C184 C185 1.478 . S
C185 C172 1.394 . S
C185 C184 1.478 . S
C185 C186 1.397 . S
C186 C185 1.397 . S
C186 C187 1.438 . S
C186 C191 1.429 . S
C187 C170 1.394 . S
C187 C186 1.438 . S
C187 C188 1.428 . S
C188 H180 0.949 . S
C188 C187 1.428 . S
C188 C189 1.345 . S
C189 H181 0.950 . S
C189 C188 1.345 . S
C189 C190 1.424 . S
C190 H182 0.951 . S
C190 C189 1.424 . S
C190 C191 1.347 . S
C191 H183 0.951 . S
C191 C186 1.429 . S
C191 C190 1.347 . S
H192 C193 0.951 . S
C193 H192 0.951 . S
C193 C199 1.265 . S
H194 C199 0.950 . S
H195 C203 0.949 . S
H196 C204 0.950 . S
H197 C205 0.951 . S
H198 C206 0.951 . S
C199 C193 1.265 . S
C199 H194 0.950 . S
C199 C200 1.478 . S
C200 C199 1.478 . S
C200 C201 1.397 . S
C200 C217 1.394 . S
C201 C200 1.397 . S
C201 C202 1.438 . S
C201 C206 1.429 . S
C202 C201 1.438 . S
C202 C203 1.428 . S
C202 C215 1.394 . S
C203 H195 0.949 . S
C203 C202 1.428 . S
C203 C204 1.345 . S
C204 H196 0.950 . S
C204 C203 1.345 . S
C204 C205 1.424 . S
C205 H197 0.951 . S
C205 C204 1.424 . S
C205 C206 1.347 . S
C206 H198 0.951 . S
C206 C201 1.429 . S
C206 C205 1.347 . S
H207 C208 0.951 . S
C208 H207 0.951 . S
C208 C214 1.265 . S
H209 C214 0.950 . S
H210 C218 0.949 . S
H211 C219 0.950 . S
H212 C220 0.951 . S
H213 C221 0.951 . S
C214 C208 1.265 . S
C214 H209 0.950 . S
C214 C215 1.478 . S
C215 C202 1.394 . S
C215 C214 1.478 . S
C215 C216 1.397 . S
C216 C215 1.397 . S
C216 C217 1.438 . S
C216 C221 1.429 . S
C217 C200 1.394 . S
C217 C216 1.438 . S
C217 C218 1.428 . S
C218 H210 0.949 . S
C218 C217 1.428 . S
C218 C219 1.345 . S
C219 H211 0.950 . S
C219 C218 1.345 . S
C219 C220 1.424 . S
C220 H212 0.951 . S
C220 C219 1.424 . S
C220 C221 1.347 . S
C221 H213 0.951 . S
C221 C216 1.429 . S
C221 C220 1.347 . S
H222 C223 0.951 . S
C223 H222 0.951 . S
C223 C229 1.265 . S
H224 C229 0.950 . S
H225 C233 0.949 . S
H226 C234 0.950 . S
H227 C235 0.951 . S
H228 C236 0.951 . S
C229 C223 1.265 . S
C229 H224 0.950 . S
C229 C230 1.478 . S
C230 C229 1.478 . S
C230 C231 1.397 . S
C230 C247 1.394 . S
C231 C230 1.397 . S
C231 C232 1.438 . S
C231 C236 1.429 . S
C232 C231 1.438 . S
C232 C233 1.428 . S
C232 C245 1.394 . S
C233 H225 0.949 . S
C233 C232 1.428 . S
C233 C234 1.345 . S
C234 H226 0.950 . S
C234 C233 1.345 . S
C234 C235 1.424 . S
C235 H227 0.951 . S
C235 C234 1.424 . S
C235 C236 1.347 . S
C236 H228 0.951 . S
C236 C231 1.429 . S
C236 C235 1.347 . S
H237 C238 0.951 . S
C238 H237 0.951 . S
C238 C244 1.265 . S
H239 C244 0.950 . S
H240 C248 0.949 . S
H241 C249 0.950 . S
H242 C250 0.951 . S
H243 C251 0.951 . S
C244 C238 1.265 . S
C244 H239 0.950 . S
C244 C245 1.478 . S
C245 C232 1.394 . S
C245 C244 1.478 . S
C245 C246 1.397 . S
C246 C245 1.397 . S
C246 C247 1.438 . S
C246 C251 1.429 . S
C247 C230 1.394 . S
C247 C246 1.438 . S
C247 C248 1.428 . S
C248 H240 0.949 . S
C248 C247 1.428 . S
C248 C249 1.345 . S
C249 H241 0.950 . S
C249 C248 1.345 . S
C249 C250 1.424 . S
C250 H242 0.951 . S
C250 C249 1.424 . S
C250 C251 1.347 . S
C251 H243 0.951 . S
C251 C246 1.429 . S
C251 C250 1.347 . S
H252 C253 0.951 . S
C253 H252 0.951 . S
C253 C259 1.265 . S
H254 C259 0.950 . S
H255 C263 0.949 . S
H256 C264 0.950 . S
H257 C265 0.951 1_556 S
H258 C266 0.951 . S
C259 C253 1.265 . S
C259 H254 0.950 . S
C259 C260 1.478 . S
C260 C259 1.478 . S
C260 C261 1.397 . S
C260 C277 1.394 . S
C261 C260 1.397 . S
C261 C262 1.438 1_655 S
C261 C266 1.429 . S
C262 C261 1.438 1_455 S
C262 C263 1.428 . S
C262 C275 1.394 . S
C263 H255 0.949 . S
C263 C262 1.428 . S
C263 C264 1.345 . S
C264 H256 0.950 . S
C264 C263 1.345 . S
C264 C265 1.424 1_455 S
C265 H257 0.951 1_554 S
C265 C264 1.424 1_655 S
C265 C266 1.347 . S
C266 H258 0.951 . S
C266 C261 1.429 . S
C266 C265 1.347 . S
H267 C268 0.951 . S
C268 H267 0.951 . S
C268 C274 1.265 . S
H269 C274 0.950 . S
H270 C278 0.949 . S
H271 C279 0.950 . S
H272 C280 0.951 . S
H273 C281 0.951 . S
C274 C268 1.265 . S
C274 H269 0.950 . S
C274 C275 1.478 . S
C275 C262 1.394 . S
C275 C274 1.478 . S
C275 C276 1.397 . S
C276 C275 1.397 . S
C276 C277 1.438 1_455 S
C276 C281 1.429 . S
C277 C260 1.394 . S
C277 C276 1.438 1_655 S
C277 C278 1.428 . S
C278 H270 0.949 . S
C278 C277 1.428 . S
C278 C279 1.345 . S
C279 H271 0.950 . S
C279 C278 1.345 . S
C279 C280 1.424 1_655 S
C280 H272 0.951 . S
C280 C279 1.424 1_455 S
C280 C281 1.347 . S
C281 H273 0.951 . S
C281 C276 1.429 . S
C281 C280 1.347 . S
H282 C283 0.951 . S
C283 H282 0.951 . S
C283 C289 1.265 . S
H284 C289 0.950 . S
H285 C293 0.949 . S
H286 C294 0.950 . S
H287 C295 0.951 . S
H288 C296 0.951 . S
C289 C283 1.265 . S
C289 H284 0.950 . S
C289 C290 1.478 . S
C290 C289 1.478 . S
C290 C291 1.397 1_565 S
C290 C307 1.394 . S
C291 C290 1.397 1_545 S
C291 C292 1.438 . S
C291 C296 1.429 1_545 S
C292 C291 1.438 . S
C292 C293 1.428 . S
C292 C305 1.394 . S
C293 H285 0.949 . S
C293 C292 1.428 . S
C293 C294 1.345 . S
C294 H286 0.950 . S
C294 C293 1.345 . S
C294 C295 1.424 . S
C295 H287 0.951 . S
C295 C294 1.424 . S
C295 C296 1.347 1_545 S
C296 H288 0.951 . S
C296 C291 1.429 1_565 S
C296 C295 1.347 1_565 S
H297 C298 0.951 . S
C298 H297 0.951 . S
C298 C304 1.265 . S
H299 C304 0.950 . S
H300 C308 0.949 . S
H301 C309 0.950 . S
H302 C310 0.952 . S
H303 C311 0.951 . S
C304 C298 1.265 . S
C304 H299 0.950 . S
C304 C305 1.478 . S
C305 C292 1.394 . S
C305 C304 1.478 . S
C305 C306 1.397 . S
C306 C305 1.397 . S
C306 C307 1.438 1_545 S
C306 C311 1.429 1_554 S
C307 C290 1.394 . S
C307 C306 1.438 1_565 S
C307 C308 1.428 1_554 S
C308 H300 0.949 . S
C308 C307 1.428 1_556 S
C308 C309 1.345 . S
C309 H301 0.950 . S
C309 C308 1.345 . S
C309 C310 1.421 1_565 S
C310 H302 0.952 . S
C310 C309 1.421 1_545 S
C310 C311 1.349 . S
C311 H303 0.951 . S
C311 C306 1.429 1_556 S
C311 C310 1.349 . S
H312 C313 0.951 . S
C313 H312 0.951 . S
C313 C319 1.265 . S
H314 C319 0.950 . S
H315 C323 0.949 . S
H316 C324 0.950 . S
H317 C325 0.951 . S
H318 C326 0.951 . S
C319 C313 1.265 . S
C319 H314 0.950 . S
C319 C320 1.478 . S
C320 C319 1.478 . S
C320 C321 1.397 . S
C320 C337 1.394 1_554 S
C321 C320 1.397 . S
C321 C322 1.438 . S
C321 C326 1.429 . S
C322 C321 1.438 . S
C322 C323 1.428 . S
C322 C335 1.394 . S
C323 H315 0.949 . S
C323 C322 1.428 . S
C323 C324 1.345 . S
C324 H316 0.950 . S
C324 C323 1.345 . S
C324 C325 1.424 . S
C325 H317 0.951 . S
C325 C324 1.424 . S
C325 C326 1.347 . S
C326 H318 0.951 . S
C326 C321 1.429 . S
C326 C325 1.347 . S
H327 C328 0.951 . S
C328 H327 0.951 . S
C328 C334 1.265 . S
H329 C334 0.950 . S
H330 C338 0.949 . S
H331 C339 0.950 . S
H332 C340 0.951 . S
H333 C341 0.951 . S
C334 C328 1.265 . S
C334 H329 0.950 . S
C334 C335 1.478 . S
C335 C322 1.394 . S
C335 C334 1.478 . S
C335 C336 1.397 1_554 S
C336 C335 1.397 1_556 S
C336 C337 1.438 . S
C336 C341 1.429 . S
C337 C320 1.394 1_556 S
C337 C336 1.438 . S
C337 C338 1.428 . S
C338 H330 0.949 . S
C338 C337 1.428 . S
C338 C339 1.345 . S
C339 H331 0.950 . S
C339 C338 1.345 . S
C339 C340 1.424 . S
C340 H332 0.951 . S
C340 C339 1.424 . S
C340 C341 1.347 . S
C341 H333 0.951 . S
C341 C336 1.429 . S
C341 C340 1.347 . S
H342 C343 0.951 . S
C343 H342 0.951 . S
C343 C349 1.265 . S
H344 C349 0.950 . S
H345 C353 0.949 . S
H346 C354 0.950 . S
H347 C355 0.951 . S
H348 C356 0.951 . S
C349 C343 1.265 . S
C349 H344 0.950 . S
C349 C350 1.478 . S
C350 C349 1.478 . S
C350 C351 1.397 . S
C350 C367 1.394 . S
C351 C350 1.397 . S
C351 C352 1.438 . S
C351 C356 1.429 1_554 S
C352 C351 1.438 . S
C352 C353 1.428 1_554 S
C352 C365 1.394 . S
C353 H345 0.949 . S
C353 C352 1.428 1_556 S
C353 C354 1.345 . S
C354 H346 0.950 . S
C354 C353 1.345 . S
C354 C355 1.424 . S
C355 H347 0.951 . S
C355 C354 1.424 . S
C355 C356 1.347 . S
C356 H348 0.951 . S
C356 C351 1.429 1_556 S
C356 C355 1.347 . S
H357 C358 0.951 . S
C358 H357 0.951 . S
C358 C364 1.265 . S
H359 C364 0.950 . S
H360 C368 0.949 . S
H361 C369 0.950 . S
H362 C370 0.951 . S
H363 C371 0.951 . S
C364 C358 1.265 . S
C364 H359 0.950 . S
C364 C365 1.478 . S
C365 C352 1.394 . S
C365 C364 1.478 . S
C365 C366 1.397 . S
C366 C365 1.397 . S
C366 C367 1.438 . S
C366 C371 1.429 . S
C367 C350 1.394 . S
C367 C366 1.438 . S
C367 C368 1.428 . S
C368 H360 0.949 . S
C368 C367 1.428 . S
C368 C369 1.345 . S
C369 H361 0.950 . S
C369 C368 1.345 . S
C369 C370 1.424 . S
C370 H362 0.951 . S
C370 C369 1.424 . S
C370 C371 1.347 . S
C371 H363 0.951 . S
C371 C366 1.429 . S
C371 C370 1.347 . S
H372 C373 0.951 . S
C373 H372 0.951 . S
C373 C379 1.265 . S
H374 C379 0.950 . S
H375 C383 0.949 . S
H376 C384 0.950 . S
H377 C385 0.951 . S
H378 C386 0.951 . S
C379 C373 1.265 . S
C379 H374 0.950 . S
C379 C380 1.478 . S
C380 C379 1.478 . S
C380 C381 1.397 . S
C380 C397 1.394 . S
C381 C380 1.397 . S
C381 C382 1.438 . S
C381 C386 1.429 . S
C382 C381 1.438 . S
C382 C383 1.428 . S
C382 C395 1.394 . S
C383 H375 0.949 . S
C383 C382 1.428 . S
C383 C384 1.345 . S
C384 H376 0.950 . S
C384 C383 1.345 . S
C384 C385 1.424 . S
C385 H377 0.951 . S
C385 C384 1.424 . S
C385 C386 1.347 . S
C386 H378 0.951 . S
C386 C381 1.429 . S
C386 C385 1.347 . S
H387 C388 0.951 . S
C388 H387 0.951 . S
C388 C394 1.265 . S
H389 C394 0.950 . S
H390 C398 0.949 . S
H391 C399 0.950 . S
H392 C400 0.951 . S
H393 C401 0.951 . S
C394 C388 1.265 . S
C394 H389 0.950 . S
C394 C395 1.478 . S
C395 C382 1.394 . S
C395 C394 1.478 . S
C395 C396 1.397 . S
C396 C395 1.397 . S
C396 C397 1.438 . S
C396 C401 1.429 . S
C397 C380 1.394 . S
C397 C396 1.438 . S
C397 C398 1.428 . S
C398 H390 0.949 . S
C398 C397 1.428 . S
C398 C399 1.345 1_554 S
C399 H391 0.950 . S
C399 C398 1.345 1_556 S
C399 C400 1.424 . S
C400 H392 0.951 . S
C400 C399 1.424 . S
C400 C401 1.347 1_556 S
C401 H393 0.951 . S
C401 C396 1.429 . S
C401 C400 1.347 1_554 S
H402 C403 0.951 . S
C403 H402 0.951 . S
C403 C409 1.265 . S
H404 C409 0.950 . S
H405 C413 0.949 . S
H406 C414 0.950 . S
H407 C415 0.951 . S
H408 C416 0.951 . S
C409 C403 1.265 . S
C409 H404 0.950 . S
C409 C410 1.478 . S
C410 C409 1.478 . S
C410 C411 1.397 . S
C410 C427 1.394 . S
C411 C410 1.397 . S
C411 C412 1.438 . S
C411 C416 1.429 1_554 S
C412 C411 1.438 . S
C412 C413 1.428 1_554 S
C412 C425 1.394 . S
C413 H405 0.949 . S
C413 C412 1.428 1_556 S
C413 C414 1.345 . S
C414 H406 0.950 . S
C414 C413 1.345 . S
C414 C415 1.424 . S
C415 H407 0.951 . S
C415 C414 1.424 . S
C415 C416 1.347 . S
C416 H408 0.951 . S
C416 C411 1.429 1_556 S
C416 C415 1.347 . S
H417 C418 0.951 . S
C418 H417 0.951 . S
C418 C424 1.265 . S
H419 C424 0.950 . S
H420 C428 0.949 . S
H421 C429 0.950 . S
H422 C430 0.951 . S
H423 C431 0.951 . S
C424 C418 1.265 . S
C424 H419 0.950 . S
C424 C425 1.478 . S
C425 C412 1.394 . S
C425 C424 1.478 . S
C425 C426 1.397 . S
C426 C425 1.397 . S
C426 C427 1.438 . S
C426 C431 1.429 . S
C427 C410 1.394 . S
C427 C426 1.438 . S
C427 C428 1.428 . S
C428 H420 0.949 . S
C428 C427 1.428 . S
C428 C429 1.345 . S
C429 H421 0.950 . S
C429 C428 1.345 . S
C429 C430 1.424 . S
C430 H422 0.951 . S
C430 C429 1.424 . S
C430 C431 1.347 . S
C431 H423 0.951 . S
C431 C426 1.429 . S
C431 C430 1.347 . S
C133 N14 1.419 . S
C148 N5 1.424 . S
C163 N47 1.401 . S
C178 N38 1.414 . S
C193 N71 1.471 . S
C208 N80 1.467 . S
C223 N104 1.416 . S
C238 N113 1.405 . S
C253 C94 0.963 . S
C268 C28 0.963 . S
C283 C127 0.967 . S
C298 C61 0.953 . S
C313 C41 1.424 . S
C328 C17 1.491 . S
C343 C83 1.240 . S
C358 C50 1.189 . S
C373 C116 1.458 . S
C388 C74 1.485 . S
C403 C107 1.748 . S
C418 C8 1.791 . S
