# Generated by pormake.
# Topology vmf, (6)-cn, num edge types: 1
# Building blocks:
#     Node 0, Type 0, BuildingBlock: OJICUG_clean_sbu_0, # of connection points: 6
#     Node 1, Type 0, BuildingBlock: OJICUG_clean_sbu_0, # of connection points: 6
#     Node 2, Type 0, BuildingBlock: OJICUG_clean_sbu_0, # of connection points: 6
#     Node 3, Type 0, BuildingBlock: OJICUG_clean_sbu_0, # of connection points: 6
#     Node 4, Type 0, BuildingBlock: OJICUG_clean_sbu_0, # of connection points: 6
#     Node 5, Type 0, BuildingBlock: OJICUG_clean_sbu_0, # of connection points: 6
#     Node 6, Type 0, BuildingBlock: OJICUG_clean_sbu_0, # of connection points: 6
#     Node 7, Type 0, BuildingBlock: OJICUG_clean_sbu_0, # of connection points: 6
#     Edge 8, Type (0, 0), BuildingBlock: ZUJKAS_clean_linker_0, # of connection points: 2
#     Edge 9, Type (0, 0), BuildingBlock: ZUJKAS_clean_linker_0, # of connection points: 2
#     Edge 10, Type (0, 0), BuildingBlock: ZUJKAS_clean_linker_0, # of connection points: 2
#     Edge 11, Type (0, 0), BuildingBlock: ZUJKAS_clean_linker_0, # of connection points: 2
#     Edge 12, Type (0, 0), BuildingBlock: ZUJKAS_clean_linker_0, # of connection points: 2
#     Edge 13, Type (0, 0), BuildingBlock: ZUJKAS_clean_linker_0, # of connection points: 2
#     Edge 14, Type (0, 0), BuildingBlock: ZUJKAS_clean_linker_0, # of connection points: 2
#     Edge 15, Type (0, 0), BuildingBlock: ZUJKAS_clean_linker_0, # of connection points: 2
#     Edge 16, Type (0, 0), BuildingBlock: ZUJKAS_clean_linker_0, # of connection points: 2
#     Edge 17, Type (0, 0), BuildingBlock: ZUJKAS_clean_linker_0, # of connection points: 2
#     Edge 18, Type (0, 0), BuildingBlock: ZUJKAS_clean_linker_0, # of connection points: 2
#     Edge 19, Type (0, 0), BuildingBlock: ZUJKAS_clean_linker_0, # of connection points: 2
#     Edge 20, Type (0, 0), BuildingBlock: ZUJKAS_clean_linker_0, # of connection points: 2
#     Edge 21, Type (0, 0), BuildingBlock: ZUJKAS_clean_linker_0, # of connection points: 2
#     Edge 22, Type (0, 0), BuildingBlock: ZUJKAS_clean_linker_0, # of connection points: 2
#     Edge 23, Type (0, 0), BuildingBlock: ZUJKAS_clean_linker_0, # of connection points: 2
#     Edge 24, Type (0, 0), BuildingBlock: ZUJKAS_clean_linker_0, # of connection points: 2
#     Edge 25, Type (0, 0), BuildingBlock: ZUJKAS_clean_linker_0, # of connection points: 2
#     Edge 26, Type (0, 0), BuildingBlock: ZUJKAS_clean_linker_0, # of connection points: 2
#     Edge 27, Type (0, 0), BuildingBlock: ZUJKAS_clean_linker_0, # of connection points: 2
#     Edge 28, Type (0, 0), BuildingBlock: ZUJKAS_clean_linker_0, # of connection points: 2
#     Edge 29, Type (0, 0), BuildingBlock: ZUJKAS_clean_linker_0, # of connection points: 2
#     Edge 30, Type (0, 0), BuildingBlock: ZUJKAS_clean_linker_0, # of connection points: 2
#     Edge 31, Type (0, 0), BuildingBlock: ZUJKAS_clean_linker_0, # of connection points: 2
# Relax obj value: 0.306
# Max RMSD: 0.281
# Mean RMSD: 0.281
data_MOF--net-vmf--node1-OJICUG_clean_sbu_0--edge1-ZUJKAS_clean_linker_0
_symmetry_space_group_name_H-M    P1
_symmetry_Int_Tables_number       1
_symmetry_cell_setting            triclinic
loop_
_symmetry_equiv_pos_as_xyz
'x, y, z'
_cell_length_a     37.294966
_cell_length_b     55.838857
_cell_length_c     36.731705
_cell_angle_alpha  90.005106
_cell_angle_beta   100.07304
_cell_angle_gamma 89.937627
loop_
_atom_site_label
_atom_site_type_symbol
_atom_site_fract_x
_atom_site_fract_y
_atom_site_fract_z
_atom_type_partial_charge
Sc0 Sc 0.1897 0.3404 0.2062 0.0
Sc1 Sc 0.18641 0.28259 0.24326 0.0
Sc2 Sc 0.12256 0.32622 0.25907 0.0
O3 O 0.1663 0.31637 0.23629 0.0
C4 C 0.17014 0.37414 0.26869 0.0
C5 C 0.25984 0.31284 0.24648 0.0
C6 C 0.17373 0.29762 0.32376 0.0
C7 C 0.18875 0.29242 0.15881 0.0
C8 C 0.10423 0.34861 0.17814 0.0
C9 C 0.10227 0.2717 0.23903 0.0
O10 O 0.19178 0.36794 0.24731 0.0
O11 O 0.24229 0.29432 0.253 0.0
O12 O 0.14948 0.3137 0.31372 0.0
O13 O 0.19043 0.31508 0.16232 0.0
O14 O 0.09352 0.33832 0.2054 0.0
O15 O 0.13401 0.26525 0.23526 0.0
O16 O 0.13768 0.35227 0.17713 0.0
O17 O 0.18668 0.27827 0.18546 0.0
O18 O 0.09488 0.2928 0.24799 0.0
O19 O 0.24463 0.33116 0.23019 0.0
O20 O 0.1428 0.36173 0.2733 0.0
O21 O 0.18785 0.28499 0.30119 0.0
Sc22 Sc 0.86775 0.32629 0.73532 0.0
Sc23 Sc 0.80498 0.2826 0.75348 0.0
Sc24 Sc 0.80057 0.34089 0.7881 0.0
O25 O 0.82443 0.3166 0.75882 0.0
C26 C 0.88554 0.34999 0.8161 0.0
C27 C 0.88995 0.27264 0.75787 0.0
C28 C 0.80227 0.29322 0.83695 0.0
C29 C 0.81644 0.29605 0.67228 0.0
C30 C 0.81916 0.37375 0.72321 0.0
C31 C 0.73097 0.31286 0.74983 0.0
O32 O 0.89615 0.3413 0.78757 0.0
O33 O 0.85779 0.26561 0.75883 0.0
O34 O 0.79747 0.31557 0.8314 0.0
O35 O 0.84238 0.31099 0.68201 0.0
O36 O 0.80069 0.36887 0.74816 0.0
O37 O 0.74877 0.29371 0.74709 0.0
O38 O 0.84456 0.36032 0.71616 0.0
O39 O 0.80049 0.28489 0.69501 0.0
O40 O 0.74621 0.33234 0.76159 0.0
O41 O 0.89739 0.29407 0.75084 0.0
O42 O 0.85214 0.35171 0.81875 0.0
O43 O 0.80778 0.27865 0.8119 0.0
Sc44 Sc 0.86162 0.66207 0.73032 0.0
Sc45 Sc 0.80431 0.70512 0.76049 0.0
Sc46 Sc 0.8016 0.64526 0.78968 0.0
O47 O 0.82233 0.67083 0.75993 0.0
C48 C 0.81271 0.61466 0.71999 0.0
C49 C 0.80619 0.6948 0.67524 0.0
C50 C 0.73055 0.67538 0.76093 0.0
C51 C 0.88738 0.7149 0.75566 0.0
C52 C 0.88748 0.63606 0.8081 0.0
C53 C 0.81038 0.69033 0.84426 0.0
O54 O 0.83793 0.628 0.71244 0.0
O55 O 0.79524 0.70603 0.7014 0.0
O56 O 0.74597 0.65558 0.77082 0.0
O57 O 0.89192 0.69426 0.743 0.0
O58 O 0.85498 0.63264 0.81302 0.0
O59 O 0.81193 0.70613 0.81969 0.0
O60 O 0.89507 0.64679 0.77965 0.0
O61 O 0.85734 0.72153 0.76411 0.0
O62 O 0.80531 0.66823 0.83691 0.0
O63 O 0.83033 0.67823 0.68045 0.0
O64 O 0.79565 0.61921 0.74617 0.0
O65 O 0.74827 0.69438 0.75704 0.0
Sc66 Sc 0.19692 0.65949 0.20184 0.0
Sc67 Sc 0.19369 0.712 0.25208 0.0
Sc68 Sc 0.12538 0.66859 0.25045 0.0
O69 O 0.17187 0.68001 0.23489 0.0
C70 C 0.11472 0.6547 0.16384 0.0
C71 C 0.20735 0.7124 0.1713 0.0
C72 C 0.1081 0.72346 0.23994 0.0
C73 C 0.26488 0.67889 0.25426 0.0
C74 C 0.16863 0.62013 0.25322 0.0
C75 C 0.1709 0.69218 0.32449 0.0
O76 O 0.14816 0.6573 0.16205 0.0
O77 O 0.19539 0.7236 0.1968 0.0
O78 O 0.09836 0.70175 0.23521 0.0
O79 O 0.24788 0.66076 0.23917 0.0
O80 O 0.14831 0.63418 0.26767 0.0
O81 O 0.19408 0.7023 0.30814 0.0
O82 O 0.18496 0.62638 0.22717 0.0
O83 O 0.24914 0.69884 0.25759 0.0
O84 O 0.14277 0.6812 0.30752 0.0
O85 O 0.21223 0.68984 0.17186 0.0
O86 O 0.10266 0.65567 0.19439 0.0
O87 O 0.14128 0.72971 0.24914 0.0
Sc88 Sc 0.69374 0.83179 0.20312 0.0
Sc89 Sc 0.68946 0.7763 0.24642 0.0
Sc90 Sc 0.62256 0.82026 0.25225 0.0
O91 O 0.66848 0.80945 0.23397 0.0
C92 C 0.66898 0.8684 0.2604 0.0
C93 C 0.76255 0.80747 0.25039 0.0
C94 C 0.67088 0.79461 0.32268 0.0
C95 C 0.69849 0.78095 0.16352 0.0
C96 C 0.6096 0.83912 0.16825 0.0
C97 C 0.6043 0.76523 0.23738 0.0
O98 O 0.68913 0.8622 0.23755 0.0
O99 O 0.74538 0.78827 0.25447 0.0
O100 O 0.64433 0.80818 0.30867 0.0
O101 O 0.70186 0.80361 0.16547 0.0
O102 O 0.59721 0.83259 0.19703 0.0
O103 O 0.63726 0.75859 0.24068 0.0
O104 O 0.64348 0.83993 0.16732 0.0
O105 O 0.69101 0.7682 0.18984 0.0
O106 O 0.59512 0.78699 0.23923 0.0
O107 O 0.74687 0.82594 0.23503 0.0
O108 O 0.6435 0.85534 0.26806 0.0
O109 O 0.6898 0.78266 0.3035 0.0
Sc110 Sc 0.36045 0.82579 0.73191 0.0
Sc111 Sc 0.30592 0.78324 0.76584 0.0
Sc112 Sc 0.30087 0.84406 0.79003 0.0
O113 O 0.322 0.81764 0.76236 0.0
C114 C 0.38666 0.8525 0.80826 0.0
C115 C 0.38766 0.77353 0.76009 0.0
C116 C 0.31014 0.80144 0.84861 0.0
C117 C 0.30818 0.7911 0.67932 0.0
C118 C 0.31166 0.87334 0.72004 0.0
C119 C 0.23096 0.81207 0.762 0.0
O120 O 0.39433 0.83974 0.78174 0.0
O121 O 0.36028 0.76836 0.77475 0.0
O122 O 0.30721 0.8234 0.83972 0.0
O123 O 0.32717 0.81034 0.68283 0.0
O124 O 0.29198 0.86795 0.74366 0.0
O125 O 0.24924 0.79338 0.75742 0.0
O126 O 0.3389 0.86079 0.71546 0.0
O127 O 0.30106 0.77915 0.70681 0.0
O128 O 0.24575 0.83177 0.77359 0.0
O129 O 0.38934 0.79271 0.7421 0.0
O130 O 0.35418 0.8586 0.81051 0.0
O131 O 0.3097 0.7847 0.82503 0.0
Sc132 Sc 0.36663 0.16362 0.73623 0.0
Sc133 Sc 0.30747 0.20714 0.76215 0.0
Sc134 Sc 0.30245 0.14771 0.79205 0.0
O135 O 0.3254 0.1728 0.76324 0.0
C136 C 0.31784 0.11627 0.72418 0.0
C137 C 0.31681 0.19799 0.67848 0.0
C138 C 0.23289 0.17727 0.75626 0.0
C139 C 0.39182 0.21617 0.76416 0.0
C140 C 0.38785 0.13809 0.81553 0.0
C141 C 0.3054 0.19336 0.84493 0.0
O142 O 0.34275 0.12984 0.71647 0.0
O143 O 0.3041 0.20869 0.70395 0.0
O144 O 0.24779 0.15763 0.76804 0.0
O145 O 0.39721 0.19555 0.75174 0.0
O146 O 0.35487 0.13596 0.81971 0.0
O147 O 0.30972 0.20862 0.82052 0.0
O148 O 0.39699 0.14759 0.78681 0.0
O149 O 0.36096 0.22303 0.77022 0.0
O150 O 0.30116 0.17115 0.83814 0.0
O151 O 0.33918 0.18042 0.68468 0.0
O152 O 0.30048 0.12083 0.75012 0.0
O153 O 0.25099 0.19631 0.75357 0.0
Sc154 Sc 0.69536 0.1511 0.20726 0.0
Sc155 Sc 0.69134 0.20795 0.24662 0.0
Sc156 Sc 0.62566 0.16424 0.25744 0.0
O157 O 0.67072 0.17443 0.2372 0.0
C158 C 0.61093 0.143 0.17492 0.0
C159 C 0.69719 0.20055 0.16325 0.0
C160 C 0.6063 0.21872 0.23915 0.0
C161 C 0.76464 0.17694 0.25053 0.0
C162 C 0.67276 0.11629 0.26794 0.0
C163 C 0.67563 0.19177 0.32496 0.0
O164 O 0.64464 0.14177 0.1734 0.0
O165 O 0.69055 0.21422 0.18895 0.0
O166 O 0.59751 0.19705 0.24241 0.0
O167 O 0.74897 0.15799 0.23708 0.0
O168 O 0.64724 0.12954 0.27516 0.0
O169 O 0.6938 0.20314 0.30439 0.0
O170 O 0.69234 0.12187 0.24427 0.0
O171 O 0.74737 0.19625 0.25363 0.0
O172 O 0.64886 0.17796 0.31262 0.0
O173 O 0.70145 0.17802 0.16707 0.0
O174 O 0.59915 0.1506 0.20348 0.0
O175 O 0.63905 0.22562 0.24178 0.0
H176 H 0.6039 0.25929 0.27974 0.0
H177 H 0.54889 0.28225 0.28527 0.0
H178 H 0.48761 0.24105 0.19616 0.0
H179 H 0.54192 0.21731 0.19203 0.0
H180 H 0.49669 0.30952 0.24375 0.0
H181 H 0.43717 0.22423 0.28096 0.0
H182 H 0.48427 0.2268 0.27612 0.0
H183 H 0.44941 0.22259 0.23598 0.0
C184 C 0.57884 0.25564 0.26075 0.0
C185 C 0.57681 0.23647 0.23572 0.0
C186 C 0.54746 0.26866 0.264 0.0
C187 C 0.51395 0.2628 0.24192 0.0
C188 C 0.51294 0.24532 0.21428 0.0
H189 H 0.30646 0.33196 0.20538 0.0
H190 H 0.37108 0.32307 0.21023 0.0
C191 C 0.54397 0.23194 0.21167 0.0
C192 C 0.47951 0.27315 0.24984 0.0
H193 H 0.39591 0.25687 0.26656 0.0
C194 C 0.4747 0.29809 0.24912 0.0
C195 C 0.45134 0.25827 0.25824 0.0
C196 C 0.45594 0.23152 0.26332 0.0
C197 C 0.44171 0.30846 0.25472 0.0
C198 C 0.41246 0.2934 0.25996 0.0
C199 C 0.41804 0.26854 0.26226 0.0
C200 C 0.37512 0.30248 0.26082 0.0
C201 C 0.43882 0.3354 0.25526 0.0
C202 C 0.3555 0.29389 0.28752 0.0
C203 C 0.31815 0.29823 0.28397 0.0
C204 C 0.29994 0.31174 0.25416 0.0
C205 C 0.31998 0.32176 0.22894 0.0
C206 C 0.3571 0.31685 0.23188 0.0
H207 H 0.46574 0.34367 0.26572 0.0
H208 H 0.42967 0.34199 0.22664 0.0
H209 H 0.41917 0.34153 0.27277 0.0
H210 H 0.36872 0.28278 0.31013 0.0
H211 H 0.30328 0.29036 0.30382 0.0
H212 H 0.68757 0.27738 0.71481 0.0
H213 H 0.62276 0.27154 0.71492 0.0
H214 H 0.61832 0.33894 0.77125 0.0
H215 H 0.68325 0.34503 0.77129 0.0
H216 H 0.59537 0.29842 0.80807 0.0
H217 H 0.52668 0.30226 0.66171 0.0
H218 H 0.5672 0.28421 0.66876 0.0
H219 H 0.57058 0.31585 0.67782 0.0
C220 C 0.67268 0.29127 0.72643 0.0
C221 C 0.6907 0.31157 0.74332 0.0
C222 C 0.63556 0.28797 0.72624 0.0
C223 C 0.61577 0.30489 0.74291 0.0
C224 C 0.63314 0.32577 0.75805 0.0
H225 H 0.38926 0.26489 0.75585 0.0
H226 H 0.44117 0.29178 0.7543 0.0
C227 C 0.67024 0.32921 0.75796 0.0
C228 C 0.5786 0.299 0.74886 0.0
H229 H 0.49577 0.28015 0.7035 0.0
C230 C 0.57326 0.295 0.78527 0.0
C231 C 0.5498 0.29468 0.71911 0.0
C232 C 0.55366 0.29969 0.67965 0.0
C233 C 0.5407 0.28509 0.79251 0.0
C234 C 0.51298 0.27911 0.76259 0.0
C235 C 0.51724 0.28472 0.72636 0.0
C236 C 0.48181 0.26405 0.76787 0.0
C237 C 0.53673 0.28001 0.83192 0.0
C238 C 0.48777 0.23976 0.77646 0.0
C239 C 0.45842 0.22442 0.77692 0.0
C240 C 0.42256 0.23315 0.76913 0.0
C241 C 0.41666 0.25776 0.76229 0.0
C242 C 0.44616 0.27308 0.76122 0.0
H243 H 0.5562 0.2907 0.85187 0.0
H244 H 0.50857 0.28393 0.83623 0.0
H245 H 0.54225 0.26075 0.83795 0.0
H246 H 0.51514 0.23247 0.78133 0.0
H247 H 0.46374 0.20555 0.78236 0.0
H248 H 0.44667 0.77781 0.72637 0.0
H249 H 0.49678 0.75008 0.72735 0.0
H250 H 0.45011 0.70273 0.79911 0.0
H251 H 0.3989 0.73073 0.79837 0.0
H252 H 0.52754 0.71351 0.82095 0.0
H253 H 0.49392 0.68412 0.67531 0.0
H254 H 0.49128 0.71605 0.67974 0.0
H255 H 0.46058 0.69726 0.69964 0.0
C256 C 0.4467 0.76154 0.74242 0.0
C257 C 0.41852 0.75651 0.76223 0.0
C258 C 0.47536 0.74558 0.74265 0.0
C259 C 0.47668 0.72415 0.76259 0.0
C260 C 0.44918 0.71909 0.78312 0.0
H261 H 0.68384 0.64358 0.78514 0.0
H262 H 0.61876 0.64933 0.7857 0.0
C263 C 0.42008 0.73511 0.78274 0.0
C264 C 0.50824 0.70807 0.76285 0.0
H265 H 0.55798 0.68277 0.70325 0.0
C266 C 0.53383 0.70602 0.79556 0.0
C267 C 0.51621 0.69831 0.72963 0.0
C268 C 0.48885 0.69882 0.69416 0.0
C269 C 0.56859 0.69643 0.79515 0.0
C270 C 0.57758 0.68863 0.76123 0.0
C271 C 0.551 0.68893 0.72915 0.0
C272 C 0.61565 0.68348 0.75764 0.0
C273 C 0.59643 0.69641 0.8303 0.0
C274 C 0.63494 0.70047 0.74066 0.0
C275 C 0.672 0.69734 0.74036 0.0
C276 C 0.69041 0.67703 0.75683 0.0
C277 C 0.67049 0.65942 0.77218 0.0
C278 C 0.63338 0.66268 0.77271 0.0
H279 H 0.58563 0.70432 0.85395 0.0
H280 H 0.60519 0.67775 0.83751 0.0
H281 H 0.6209 0.70666 0.82614 0.0
H282 H 0.62157 0.71662 0.7288 0.0
H283 H 0.68641 0.71117 0.72809 0.0
H284 H 0.31147 0.71399 0.28532 0.0
H285 H 0.37691 0.71576 0.28652 0.0
H286 H 0.37561 0.64354 0.24481 0.0
H287 H 0.3098 0.64161 0.24293 0.0
H288 H 0.43937 0.68799 0.31672 0.0
H289 H 0.40722 0.68492 0.16266 0.0
H290 H 0.37237 0.6894 0.19039 0.0
H291 H 0.39214 0.66028 0.18764 0.0
C292 C 0.32508 0.69825 0.27712 0.0
C293 C 0.30517 0.67785 0.26324 0.0
C294 C 0.36257 0.69928 0.27795 0.0
C295 C 0.38087 0.67996 0.265 0.0
C296 C 0.36178 0.65878 0.25429 0.0
H297 H 0.61026 0.71792 0.25806 0.0
H298 H 0.55999 0.69034 0.26282 0.0
C299 C 0.32418 0.65771 0.25339 0.0
C300 C 0.41861 0.68348 0.25873 0.0
H301 H 0.4662 0.69604 0.18968 0.0
C302 C 0.44568 0.68915 0.28905 0.0
C303 C 0.42648 0.68509 0.22247 0.0
C304 C 0.3981 0.67975 0.1888 0.0
C305 C 0.47972 0.69791 0.28397 0.0
C306 C 0.48677 0.70082 0.24762 0.0
C307 C 0.46064 0.69359 0.21745 0.0
C308 C 0.5177 0.71546 0.24022 0.0
C309 C 0.5068 0.70576 0.31727 0.0
C310 C 0.51044 0.7382 0.22453 0.0
C311 C 0.53884 0.75388 0.22177 0.0
C312 C 0.57515 0.74706 0.23449 0.0
C313 C 0.58255 0.72366 0.24803 0.0
C314 C 0.55393 0.70796 0.251 0.0
H315 H 0.49579 0.70413 0.34338 0.0
H316 H 0.5317 0.69456 0.3197 0.0
H317 H 0.51488 0.72466 0.314 0.0
H318 H 0.48263 0.74426 0.21593 0.0
H319 H 0.53224 0.77168 0.21087 0.0
H320 H 0.11168 0.76817 0.27173 0.0
H321 H 0.06007 0.79454 0.27704 0.0
H322 H 0.98716 0.74558 0.21003 0.0
H323 H 0.03816 0.7195 0.20418 0.0
H324 H 0.97122 0.7943 0.1944 0.0
H325 H 0.98813 0.77333 0.34486 0.0
H326 H 0.0262 0.78628 0.32792 0.0
H327 H 0.01147 0.75655 0.3141 0.0
C328 C 0.08475 0.76335 0.25744 0.0
C329 C 0.07891 0.74161 0.23792 0.0
C330 C 0.05531 0.77832 0.26076 0.0
C331 C 0.01978 0.77175 0.24448 0.0
C332 C 0.01435 0.75091 0.22295 0.0
H333 H 0.80697 0.77009 0.2771 0.0
H334 H 0.87268 0.76751 0.28052 0.0
C335 C 0.04355 0.73598 0.21975 0.0
C336 C 0.98746 0.7851 0.25175 0.0
H337 H 0.93394 0.79207 0.31754 0.0
C338 C 0.96333 0.79441 0.22146 0.0
C339 C 0.97729 0.78496 0.28711 0.0
C340 C 0.0019 0.77467 0.32046 0.0
C341 C 0.92831 0.80214 0.22503 0.0
C342 C 0.91749 0.80093 0.26006 0.0
C343 C 0.94246 0.79305 0.29082 0.0
C344 C 0.87896 0.80426 0.26402 0.0
C345 C 0.90231 0.8098 0.19076 0.0
C346 C 0.86093 0.8261 0.25524 0.0
C347 C 0.82317 0.82763 0.253 0.0
C348 C 0.80288 0.80733 0.25973 0.0
C349 C 0.82157 0.78603 0.27141 0.0
C350 C 0.85922 0.78452 0.27347 0.0
H351 H 0.91322 0.80608 0.16505 0.0
H352 H 0.87579 0.80046 0.18899 0.0
H353 H 0.89725 0.82934 0.19204 0.0
H354 H 0.87582 0.84168 0.24861 0.0
H355 H 0.80976 0.84441 0.24436 0.0
H356 H 0.95719 0.70456 0.74894 0.0
H357 H 0.00756 0.73215 0.74941 0.0
H358 H 0.93951 0.79118 0.77046 0.0
H359 H 0.88807 0.76348 0.7699 0.0
H360 H -0.00167 0.77917 0.69849 0.0
H361 H 0.04384 0.78946 0.85055 0.0
H362 H 0.02177 0.76211 0.83252 0.0
H363 H 0.99611 0.78938 0.83008 0.0
C364 C 0.95268 0.72337 0.75384 0.0
C365 C 0.91839 0.73181 0.75914 0.0
C366 C 0.98159 0.7391 0.75408 0.0
C367 C 0.97706 0.7636 0.75976 0.0
C368 C 0.94333 0.77224 0.76601 0.0
H369 H 0.18223 0.84393 0.78281 0.0
H370 H 0.11652 0.83846 0.77884 0.0
C371 C 0.9141 0.75641 0.76577 0.0
C372 C 0.00805 0.77967 0.75801 0.0
H373 H 0.08557 0.80028 0.81192 0.0
C374 C 0.01702 0.78444 0.72322 0.0
C375 C 0.0321 0.78654 0.79033 0.0
C376 C 0.02321 0.78174 0.82814 0.0
C377 C 0.05077 0.79447 0.71997 0.0
C378 C 0.07624 0.79935 0.75236 0.0
C379 C 0.06603 0.79639 0.78712 0.0
C380 C 0.11496 0.80427 0.75098 0.0
C381 C 0.05946 0.79876 0.68193 0.0
C382 C 0.13573 0.78689 0.73646 0.0
C383 C 0.17319 0.78985 0.73881 0.0
C384 C 0.19072 0.81026 0.75587 0.0
C385 C 0.16961 0.82804 0.76936 0.0
C386 C 0.13207 0.82496 0.76718 0.0
H387 H 0.03428 0.80201 0.66141 0.0
H388 H 0.07803 0.81428 0.68179 0.0
H389 H 0.07299 0.78263 0.67296 0.0
H390 H 0.12317 0.77054 0.72452 0.0
H391 H 0.18853 0.77582 0.72812 0.0
H392 H 0.88712 0.22469 0.74153 0.0
H393 H 0.93924 0.19765 0.74155 0.0
H394 H 0.01268 0.25445 0.78493 0.0
H395 H 0.96119 0.28147 0.78464 0.0
H396 H -0.00196 0.20971 0.69999 0.0
H397 H 0.04843 0.19416 0.84921 0.0
H398 H 0.00197 0.20283 0.83119 0.0
H399 H 0.03755 0.22492 0.83781 0.0
C400 C 0.91436 0.23119 0.75184 0.0
C401 C 0.92017 0.25518 0.76297 0.0
C402 C 0.94402 0.21578 0.75169 0.0
C403 C 0.97967 0.22406 0.7635 0.0
C404 C 0.98532 0.24766 0.77617 0.0
H405 H 0.19027 0.21345 0.722 0.0
H406 H 0.12495 0.21888 0.7194 0.0
C407 C 0.9559 0.2631 0.7758 0.0
C408 C 0.01152 0.20919 0.75946 0.0
H409 H 0.09201 0.18919 0.80859 0.0
C410 C 0.01826 0.20463 0.72369 0.0
C411 C 0.03762 0.20247 0.79042 0.0
C412 C 0.03097 0.20613 0.82937 0.0
C413 C 0.05173 0.19514 0.71811 0.0
C414 C 0.079 0.19028 0.74908 0.0
C415 C 0.07114 0.19311 0.78484 0.0
C416 C 0.11703 0.18494 0.7453 0.0
C417 C 0.05817 0.19123 0.67914 0.0
C418 C 0.13414 0.16393 0.76039 0.0
C419 C 0.17156 0.16074 0.7619 0.0
C420 C 0.19259 0.17873 0.74892 0.0
C421 C 0.17496 0.19927 0.73234 0.0
C422 C 0.13754 0.20234 0.73058 0.0
H423 H 0.03211 0.18864 0.65965 0.0
H424 H 0.07184 0.20723 0.67002 0.0
H425 H 0.07594 0.17543 0.67753 0.0
H426 H 0.11878 0.15039 0.77213 0.0
H427 H 0.18423 0.14472 0.77495 0.0
H428 H 0.10769 0.2236 0.25358 0.0
H429 H 0.05715 0.19572 0.25614 0.0
H430 H 0.98011 0.25197 0.21894 0.0
H431 H 0.03007 0.27984 0.21683 0.0
H432 H 4e-05 0.20755 0.30244 0.0
H433 H 0.94449 0.1908 0.15451 0.0
H434 H 0.99129 0.19943 0.17074 0.0
H435 H 0.95575 0.22158 0.16536 0.0
C436 C 0.07995 0.22981 0.24518 0.0
C437 C 0.07271 0.25387 0.23512 0.0
C438 C 0.05123 0.21393 0.2468 0.0
C439 C 0.01507 0.22184 0.23751 0.0
C440 C 0.00789 0.24552 0.22582 0.0
H441 H 0.8087 0.21211 0.28565 0.0
H442 H 0.8741 0.21638 0.28782 0.0
C443 C 0.03643 0.26142 0.22478 0.0
C444 C 0.98439 0.20645 0.24316 0.0
H445 H 0.90318 0.18555 0.19729 0.0
C446 C 0.97922 0.20211 0.27951 0.0
C447 C 0.95755 0.19926 0.21319 0.0
C448 C 0.96258 0.20279 0.1737 0.0
C449 C 0.94641 0.19246 0.28664 0.0
C450 C 0.91829 0.18723 0.25664 0.0
C451 C 0.92472 0.18973 0.2203 0.0
C452 C 0.88062 0.18221 0.26191 0.0
C453 C 0.94153 0.1889 0.32617 0.0
C454 C 0.86273 0.16139 0.24719 0.0
C455 C 0.82526 0.15888 0.24588 0.0
C456 C 0.80496 0.17738 0.2587 0.0
C457 C 0.82343 0.19759 0.27539 0.0
C458 C 0.86091 0.19998 0.27692 0.0
H459 H 0.96815 0.18627 0.34473 0.0
H460 H 0.92852 0.20508 0.33566 0.0
H461 H 0.92381 0.17325 0.32879 0.0
H462 H 0.87748 0.14757 0.23526 0.0
H463 H 0.81195 0.14307 0.23286 0.0
H464 H 0.87375 0.37679 0.87487 0.0
H465 H 0.91213 0.37991 0.9353 0.0
H466 H 0.99637 0.3396 0.896 0.0
H467 H 0.9573 0.33572 0.83509 0.0
H468 H 0.98206 0.32168 0.96018 0.0
H469 H -0.00072 0.41962 0.97587 0.0
H470 H 0.95217 0.41147 0.96448 0.0
H471 H 0.98209 0.40579 0.93189 0.0
C472 C 0.90073 0.36895 0.87865 0.0
C473 C 0.91235 0.35597 0.84991 0.0
C474 C 0.92281 0.37091 0.91337 0.0
C475 C 0.95739 0.36024 0.92031 0.0
C476 C 0.96983 0.34809 0.8913 0.0
H477 H 0.11534 0.37743 0.12122 0.0
H478 H 0.07834 0.38046 0.05993 0.0
C479 C 0.9476 0.34606 0.85636 0.0
C480 C 0.9789 0.36017 0.95859 0.0
H481 H 0.01186 0.39653 0.0317 0.0
C482 C 0.98886 0.33806 0.9757 0.0
C483 C 0.98798 0.38153 0.97893 0.0
C484 C 0.98015 0.40593 0.96171 0.0
C485 C 0.00705 0.3367 0.01259 0.0
C486 C 0.01474 0.35802 0.03342 0.0
C487 C 0.00535 0.38015 0.01609 0.0
C488 C 0.03495 0.35784 0.07225 0.0
C489 C 0.01859 0.31242 0.02858 0.0
C490 C 0.02228 0.34494 0.10039 0.0
C491 C 0.04361 0.34307 0.13582 0.0
C492 C 0.07793 0.35421 0.14377 0.0
C493 C 0.08925 0.3684 0.11615 0.0
C494 C 0.06807 0.37018 0.08093 0.0
H495 H 0.01902 0.2988 0.0066 0.0
H496 H 0.04608 0.31322 0.04601 0.0
H497 H -0.00101 0.30634 0.04613 0.0
H498 H 0.99633 0.33578 0.0947 0.0
H499 H 0.03399 0.33201 0.15634 0.0
H500 H 0.12664 0.6671 0.09556 0.0
H501 H 0.08811 0.66034 0.03604 0.0
H502 H 0.00765 0.62661 0.09019 0.0
H503 H 0.04609 0.63405 0.15072 0.0
H504 H 0.06621 0.6198 0.0022 0.0
H505 H 0.94486 0.67242 0.0226 0.0
H506 H 0.98758 0.67409 0.05426 0.0
H507 H 0.95733 0.64925 0.0563 0.0
C508 C 0.10068 0.6583 0.09506 0.0
C509 C 0.08954 0.65105 0.12809 0.0
C510 C 0.07863 0.65443 0.06081 0.0
C511 C 0.04479 0.64309 0.05839 0.0
C512 C 0.03333 0.63583 0.09127 0.0
H513 H 0.88336 0.60622 0.86603 0.0
H514 H 0.92363 0.60558 0.92594 0.0
C515 C 0.05536 0.64 0.12588 0.0
C516 C 0.02244 0.63865 0.02115 0.0
H517 H 0.94028 0.65069 0.96671 0.0
C518 C 0.03865 0.62656 0.99451 0.0
C519 C 0.98651 0.64753 0.0109 0.0
C520 C 0.96809 0.66175 0.03735 0.0
C521 C 0.02005 0.62321 0.95812 0.0
C522 C 0.98427 0.63213 0.94798 0.0
C523 C 0.96777 0.64384 0.97463 0.0
C524 C 0.96331 0.62971 0.90983 0.0
C525 C 0.03862 0.61004 0.93074 0.0
C526 C 0.97292 0.64285 0.88033 0.0
C527 C 0.94982 0.64331 0.84576 0.0
C528 C 0.91665 0.6307 0.84023 0.0
C529 C 0.90857 0.61625 0.86922 0.0
C530 C 0.9315 0.6159 0.90364 0.0
H531 H 0.06355 0.60056 0.94447 0.0
H532 H 0.01977 0.59684 0.91493 0.0
H533 H 0.04651 0.62305 0.91071 0.0
H534 H -0.00274 0.65379 0.88462 0.0
H535 H 0.95675 0.65482 0.8243 0.0
H536 H 0.62715 0.85858 0.10556 0.0
H537 H 0.58853 0.86406 0.04578 0.0
H538 H 0.49602 0.83822 0.08992 0.0
H539 H 0.53507 0.83203 0.15044 0.0
H540 H 0.50131 0.81701 0.02408 0.0
H541 H 0.51448 0.91496 0.00945 0.0
H542 H 0.5581 0.90058 0.01946 0.0
H543 H 0.52823 0.89976 0.05303 0.0
C544 C 0.59851 0.85426 0.10298 0.0
C545 C 0.58433 0.84485 0.13314 0.0
C546 C 0.57633 0.85762 0.0686 0.0
C547 C 0.53918 0.85196 0.0633 0.0
C548 C 0.52459 0.8429 0.09337 0.0
H549 H 0.38373 0.88459 0.86393 0.0
H550 H 0.42164 0.88498 0.92516 0.0
C551 C 0.54691 0.83948 0.12803 0.0
C552 C 0.51651 0.85423 0.02573 0.0
H553 H 0.49318 0.89317 0.95354 0.0
C554 C 0.49928 0.83372 0.0088 0.0
C555 C 0.51347 0.87607 0.00577 0.0
C556 C 0.52924 0.89914 0.02301 0.0
C557 C 0.48002 0.8343 0.97225 0.0
C558 C 0.47863 0.85584 0.95165 0.0
C559 C 0.49492 0.87652 0.96895 0.0
C560 C 0.45869 0.85754 0.91283 0.0
C561 C 0.46079 0.81189 0.95627 0.0
C562 C 0.46795 0.84289 0.88471 0.0
C563 C 0.44629 0.84266 0.84938 0.0
C564 C 0.41496 0.85714 0.84148 0.0
C565 C 0.4075 0.8731 0.86896 0.0
C566 C 0.42912 0.87331 0.90414 0.0
H567 H 0.45669 0.79902 0.97824 0.0
H568 H 0.43384 0.81623 0.93944 0.0
H569 H 0.47752 0.80291 0.9381 0.0
H570 H 0.49121 0.831 0.89046 0.0
H571 H 0.45285 0.8301 0.82906 0.0
H572 H 0.62561 0.11792 0.1156 0.0
H573 H 0.58807 0.11416 0.05473 0.0
H574 H 0.50026 0.15095 0.09352 0.0
H575 H 0.53834 0.15541 0.15489 0.0
H576 H 0.52374 0.09361 0.02781 0.0
H577 H 0.51445 0.19192 0.00575 0.0
H578 H 0.54484 0.17857 0.04398 0.0
H579 H 0.49719 0.18178 0.04574 0.0
C580 C 0.59819 0.12508 0.11149 0.0
C581 C 0.58521 0.13724 0.14023 0.0
C582 C 0.5767 0.12287 0.07651 0.0
C583 C 0.54161 0.13274 0.06915 0.0
C584 C 0.52762 0.14369 0.09825 0.0
H585 H 0.38049 0.10856 0.87283 0.0
H586 H 0.42008 0.10592 0.93279 0.0
C587 C 0.54924 0.14597 0.13349 0.0
C588 C 0.52061 0.13206 0.03066 0.0
H589 H 0.48118 0.16763 0.95889 0.0
C590 C 0.5144 0.1098 0.01278 0.0
C591 C 0.50918 0.1532 0.01061 0.0
C592 C 0.51701 0.17775 0.02729 0.0
C593 C 0.49666 0.10809 0.97577 0.0
C594 C 0.48406 0.12917 0.95616 0.0
C595 C 0.49074 0.15144 0.97385 0.0
C596 C 0.46234 0.12854 0.91799 0.0
C597 C 0.49222 0.0837 0.95787 0.0
C598 C 0.47285 0.14202 0.88923 0.0
C599 C 0.45 0.14367 0.85459 0.0
C600 C 0.41599 0.13208 0.84825 0.0
C601 C 0.40649 0.11768 0.87659 0.0
C602 C 0.42925 0.11605 0.91102 0.0
H603 H 0.51318 0.07094 0.97163 0.0
H604 H 0.46512 0.07639 0.96045 0.0
H605 H 0.49404 0.08466 0.92806 0.0
H606 H 0.49823 0.1519 0.89396 0.0
H607 H 0.458 0.15515 0.83364 0.0
H608 H 0.17075 0.60354 0.32372 0.0
H609 H 0.18141 0.56209 0.34544 0.0
H610 H 0.18484 0.53951 0.23367 0.0
H611 H 0.17648 0.58075 0.21252 0.0
H612 H 0.14579 0.52308 0.33343 0.0
H613 H 0.27419 0.50779 0.28381 0.0
H614 H 0.25478 0.53735 0.2846 0.0
H615 H 0.24164 0.51789 0.24522 0.0
C616 C 0.17409 0.58964 0.30399 0.0
C617 C 0.17331 0.59528 0.26657 0.0
C618 C 0.18024 0.56604 0.31639 0.0
C619 C 0.18519 0.54776 0.29142 0.0
C620 C 0.18286 0.55339 0.25381 0.0
H621 H 0.11751 0.40692 0.27156 0.0
H622 H 0.12566 0.4488 0.28901 0.0
C623 C 0.17767 0.57694 0.24164 0.0
C624 C 0.19078 0.5225 0.30364 0.0
H625 H 0.23559 0.4722 0.28468 0.0
C626 C 0.16603 0.51201 0.3236 0.0
C627 C 0.2182 0.5081 0.29257 0.0
C628 C 0.24893 0.51852 0.27582 0.0
C629 C 0.16569 0.48716 0.32935 0.0
C630 C 0.18943 0.47239 0.31301 0.0
C631 C 0.21654 0.48321 0.29643 0.0
C632 C 0.18395 0.44611 0.3084 0.0
C633 C 0.13947 0.47715 0.35239 0.0
C634 C 0.21396 0.43042 0.31258 0.0
C635 C 0.20947 0.40664 0.30076 0.0
C636 C 0.17474 0.39799 0.28572 0.0
C637 C 0.14448 0.41314 0.28366 0.0
C638 C 0.14913 0.43709 0.29414 0.0
H639 H 0.13715 0.48941 0.37569 0.0
H640 H 0.11197 0.47576 0.33516 0.0
H641 H 0.14806 0.45924 0.36385 0.0
H642 H 0.24113 0.43683 0.32343 0.0
H643 H 0.23316 0.39516 0.3026 0.0
H644 H 0.76537 0.5794 0.73215 0.0
H645 H 0.76212 0.53881 0.70765 0.0
H646 H 0.83937 0.55702 0.63744 0.0
H647 H 0.84349 0.59775 0.66234 0.0
H648 H 0.74833 0.51617 0.63676 0.0
H649 H 0.89241 0.50647 0.70855 0.0
H650 H 0.86506 0.53202 0.71611 0.0
H651 H 0.88275 0.52937 0.67385 0.0
C652 C 0.78123 0.57501 0.71101 0.0
C653 C 0.80538 0.5917 0.6999 0.0
C654 C 0.77915 0.55179 0.69687 0.0
C655 C 0.80103 0.54485 0.6713 0.0
C656 C 0.82276 0.56198 0.65767 0.0
H657 H 0.8558 0.39286 0.67142 0.0
H658 H 0.84897 0.43313 0.64493 0.0
C659 C 0.82503 0.58523 0.67195 0.0
C660 C 0.80442 0.51911 0.66329 0.0
H661 H 0.86098 0.47169 0.68831 0.0
C662 C 0.77317 0.50642 0.64722 0.0
C663 C 0.83697 0.50649 0.67676 0.0
C664 C 0.87123 0.51915 0.69499 0.0
C665 C 0.773 0.4813 0.6464 0.0
C666 C 0.80467 0.4687 0.66265 0.0
C667 C 0.8367 0.48142 0.67591 0.0
C668 C 0.80396 0.44294 0.67191 0.0
C669 C 0.73852 0.46852 0.6294 0.0
C670 C 0.78055 0.43499 0.6954 0.0
C671 C 0.78441 0.41209 0.71067 0.0
C672 C 0.81208 0.39672 0.70308 0.0
C673 C 0.83433 0.40427 0.67803 0.0
C674 C 0.83039 0.42724 0.66271 0.0
H675 H 0.72285 0.47922 0.60647 0.0
H676 H 0.74439 0.45062 0.61864 0.0
H677 H 0.72104 0.46615 0.65067 0.0
H678 H 0.76061 0.44698 0.70373 0.0
H679 H 0.76667 0.40687 0.7297 0.0
H680 H 0.62001 0.89522 0.29044 0.0
H681 H 0.62576 0.93759 0.30776 0.0
H682 H 0.73562 0.93809 0.28584 0.0
H683 H 0.72999 0.89599 0.26782 0.0
H684 H 0.67861 0.96771 0.35785 0.0
H685 H 0.67509 0.98318 0.20771 0.0
H686 H 0.66287 0.95488 0.22579 0.0
H687 H 0.70998 0.96287 0.22882 0.0
C688 C 0.64565 0.90423 0.29005 0.0
C689 C 0.67428 0.89248 0.27697 0.0
C690 C 0.64891 0.92836 0.30011 0.0
C691 C 0.6809 0.9409 0.2975 0.0
C692 C 0.71058 0.92868 0.28755 0.0
H693 H 0.73328 0.08825 0.27434 0.0
H694 H 0.73802 0.04597 0.29105 0.0
C695 C 0.70723 0.90469 0.2771 0.0
C696 C 0.68158 0.96723 0.29981 0.0
H697 H 0.6857 0.0168 0.24673 0.0
C698 C 0.6802 0.97854 0.33368 0.0
C699 C 0.68309 0.98116 0.26799 0.0
C700 C 0.6825 0.96998 0.23042 0.0
C701 C 0.68129 0.00365 0.33666 0.0
C702 C 0.68361 0.01745 0.30493 0.0
C703 C 0.68449 0.00606 0.27111 0.0
C704 C 0.68415 0.04384 0.30507 0.0
C705 C 0.68048 0.01525 0.37355 0.0
C706 C 0.65275 0.05678 0.30882 0.0
C707 C 0.64993 0.08103 0.29928 0.0
C708 C 0.67829 0.09245 0.28535 0.0
C709 C 0.71075 0.07984 0.28443 0.0
C710 C 0.71363 0.05574 0.29422 0.0
H711 H 0.68618 0.00217 0.39664 0.0
H712 H 0.70067 0.03001 0.37866 0.0
H713 H 0.65309 0.02307 0.37343 0.0
H714 H 0.62948 0.04777 0.31654 0.0
H715 H 0.6246 0.0903 0.30032 0.0
H716 H 0.25867 0.90647 0.72531 0.0
H717 H 0.2553 0.94737 0.70223 0.0
H718 H 0.34591 0.93383 0.64648 0.0
H719 H 0.34999 0.89282 0.67003 0.0
H720 H 0.35851 0.97048 0.69397 0.0
H721 H 0.22363 0.98382 0.60721 0.0
H722 H 0.21941 0.96957 0.64998 0.0
H723 H 0.24296 0.95441 0.61777 0.0
C724 C 0.27734 0.91192 0.70737 0.0
C725 C 0.30497 0.89641 0.70003 0.0
C726 C 0.27511 0.93532 0.69382 0.0
C727 C 0.30012 0.94362 0.6723 0.0
C728 C 0.3262 0.92773 0.66285 0.0
H729 H 0.35249 0.09739 0.67044 0.0
H730 H 0.34723 0.05647 0.64613 0.0
C731 C 0.32852 0.9043 0.67646 0.0
C732 C 0.30291 0.96965 0.66555 0.0
H733 H 0.25129 0.01929 0.63958 0.0
C734 C 0.33543 0.98116 0.68108 0.0
C735 C 0.27277 0.98352 0.64876 0.0
C736 C 0.23787 0.97212 0.62966 0.0
C737 C 0.33768 0.00618 0.68318 0.0
C738 C 0.3067 0.02006 0.66863 0.0
C739 C 0.27496 0.0086 0.65077 0.0
C740 C 0.30524 0.04596 0.67676 0.0
C741 C 0.37226 0.01743 0.70355 0.0
C742 C 0.28194 0.05392 0.70031 0.0
C743 C 0.28465 0.07725 0.71405 0.0
C744 C 0.31085 0.09309 0.70455 0.0
C745 C 0.33233 0.08558 0.67871 0.0
C746 C 0.32945 0.0622 0.66484 0.0
H747 H 0.39151 0.00392 0.71809 0.0
H748 H 0.38618 0.02705 0.68356 0.0
H749 H 0.36601 0.03062 0.7242 0.0
H750 H 0.26297 0.04168 0.70975 0.0
H751 H 0.26733 0.08244 0.7335 0.0
H752 H 0.28592 0.24127 0.6609 0.0
H753 H 0.26267 0.2577 0.60065 0.0
H754 H 0.2973 0.19449 0.54885 0.0
H755 H 0.3206 0.17723 0.61036 0.0
H756 H 0.30004 0.26809 0.54447 0.0
H757 H 0.18839 0.20257 0.5009 0.0
H758 H 0.21157 0.20507 0.5482 0.0
H759 H 0.23346 0.19042 0.5145 0.0
C760 C 0.28862 0.23057 0.63693 0.0
C761 C 0.30488 0.20768 0.64065 0.0
C762 C 0.27532 0.24015 0.60235 0.0
C763 C 0.27783 0.22727 0.5703 0.0
C764 C 0.29462 0.20457 0.57341 0.0
H765 H 0.24357 0.28882 0.35307 0.0
H766 H 0.26776 0.2732 0.41415 0.0
C767 C 0.30816 0.19483 0.60846 0.0
C768 C 0.26297 0.23833 0.53412 0.0
H769 H 0.19442 0.23403 0.45943 0.0
C770 C 0.27706 0.26058 0.52576 0.0
C771 C 0.23245 0.22878 0.51028 0.0
C772 C 0.21525 0.20549 0.51885 0.0
C773 C 0.26154 0.27353 0.49423 0.0
C774 C 0.23154 0.26376 0.4699 0.0
C775 C 0.21729 0.24155 0.47826 0.0
C776 C 0.21665 0.27536 0.43416 0.0
C777 C 0.27709 0.29778 0.48762 0.0
C778 C 0.1797 0.28193 0.42502 0.0
C779 C 0.16559 0.29095 0.3897 0.0
C780 C 0.18828 0.29311 0.36315 0.0
C781 C 0.22544 0.28736 0.37304 0.0
C782 C 0.23939 0.2785 0.40801 0.0
H783 H 0.29132 0.3059 0.51382 0.0
H784 H 0.2973 0.29571 0.46897 0.0
H785 H 0.2555 0.31029 0.47446 0.0
H786 H 0.16168 0.27953 0.44488 0.0
H787 H 0.1368 0.29496 0.38257 0.0
H788 H 0.85591 0.28503 0.61804 0.0
H789 H 0.83137 0.26742 0.55723 0.0
H790 H 0.72215 0.27658 0.57879 0.0
H791 H 0.74635 0.29394 0.63899 0.0
H792 H 0.7868 0.22466 0.55181 0.0
H793 H 0.71484 0.29988 0.47121 0.0
H794 H 0.75026 0.3045 0.5109 0.0
H795 H 0.70495 0.29679 0.51711 0.0
C796 C 0.82669 0.28401 0.60909 0.0
C797 C 0.80296 0.2909 0.63295 0.0
C798 C 0.81271 0.27379 0.57462 0.0
C799 C 0.77492 0.27084 0.56349 0.0
C800 C 0.7513 0.27901 0.58654 0.0
H801 H 0.63365 0.20347 0.37673 0.0
H802 H 0.65643 0.22002 0.43865 0.0
C803 C 0.76518 0.28888 0.62093 0.0
C804 C 0.75992 0.25703 0.52983 0.0
H805 H 0.70088 0.26064 0.44778 0.0
C806 C 0.76827 0.23255 0.52887 0.0
C807 C 0.73522 0.26728 0.50037 0.0
C808 C 0.72595 0.2936 0.49966 0.0
C809 C 0.75228 0.21796 0.49932 0.0
C810 C 0.72778 0.22824 0.46968 0.0
C811 C 0.71932 0.25272 0.47074 0.0
C812 C 0.71335 0.21457 0.43565 0.0
C813 C 0.76134 0.1916 0.5004 0.0
C814 C 0.73769 0.20548 0.41404 0.0
C815 C 0.72479 0.19608 0.3791 0.0
C816 C 0.68727 0.19558 0.36495 0.0
C817 C 0.66263 0.20328 0.38734 0.0
C818 C 0.67565 0.21292 0.42245 0.0
H819 H 0.77041 0.18524 0.52921 0.0
H820 H 0.73757 0.18075 0.48742 0.0
H821 H 0.78393 0.18843 0.48493 0.0
H822 H 0.76683 0.20697 0.42324 0.0
H823 H 0.74433 0.19045 0.36215 0.0
H824 H 0.62614 0.78911 0.37425 0.0
H825 H 0.64515 0.77493 0.43829 0.0
H826 H 0.75758 0.77775 0.42439 0.0
H827 H 0.73894 0.79208 0.36144 0.0
H828 H 0.68154 0.73228 0.4551 0.0
H829 H 0.7642 0.80616 0.52605 0.0
H830 H 0.73314 0.81043 0.48297 0.0
H831 H 0.77821 0.79872 0.48318 0.0
C832 C 0.65489 0.78752 0.3855 0.0
C833 C 0.6811 0.7917 0.36306 0.0
C834 C 0.66573 0.77925 0.42187 0.0
C835 C 0.70284 0.77548 0.43623 0.0
C836 C 0.72891 0.78098 0.41432 0.0
H837 H 0.83771 0.6971 0.61299 0.0
H838 H 0.8109 0.71529 0.55326 0.0
C839 C 0.71818 0.78906 0.37823 0.0
C840 C 0.71465 0.76326 0.47219 0.0
H841 H 0.77649 0.76679 0.55245 0.0
C842 C 0.70185 0.73998 0.47667 0.0
C843 C 0.74137 0.77324 0.50019 0.0
C844 C 0.75473 0.79861 0.49803 0.0
C845 C 0.716 0.72614 0.50782 0.0
C846 C 0.74361 0.73583 0.53501 0.0
C847 C 0.75581 0.75927 0.53105 0.0
C848 C 0.75867 0.72249 0.569 0.0
C849 C 0.70204 0.70104 0.51122 0.0
C850 C 0.7379 0.72028 0.59706 0.0
C851 C 0.75312 0.71018 0.63094 0.0
C852 C 0.78937 0.70196 0.63738 0.0
C853 C 0.80967 0.70313 0.60863 0.0
C854 C 0.79449 0.7136 0.57471 0.0
H855 H 0.68439 0.69492 0.48536 0.0
H856 H 0.72518 0.68837 0.51832 0.0
H857 H 0.68599 0.70044 0.53395 0.0
H858 H 0.71032 0.72716 0.59319 0.0
H859 H 0.73675 0.70939 0.65256 0.0
H860 H 0.29372 0.81538 0.61286 0.0
H861 H 0.26403 0.7993 0.55276 0.0
H862 H 0.25984 0.72938 0.60173 0.0
H863 H 0.28826 0.74526 0.6614 0.0
H864 H 0.28343 0.76537 0.50902 0.0
H865 H 0.1558 0.73661 0.55251 0.0
H866 H 0.18842 0.75569 0.58081 0.0
H867 H 0.19453 0.72366 0.58164 0.0
C868 C 0.28646 0.79659 0.6107 0.0
C869 C 0.29295 0.78169 0.64203 0.0
C870 C 0.26936 0.78744 0.57642 0.0
C871 C 0.25863 0.76326 0.57295 0.0
C872 C 0.2665 0.74826 0.60391 0.0
H873 H 0.22966 0.67909 0.37431 0.0
H874 H 0.24797 0.69579 0.43636 0.0
C875 C 0.28311 0.75738 0.63803 0.0
C876 C 0.24058 0.75321 0.53686 0.0
H877 H 0.16905 0.71837 0.49679 0.0
C878 C 0.2582 0.75535 0.50627 0.0
C879 C 0.20722 0.7405 0.5329 0.0
C880 C 0.18521 0.73921 0.56364 0.0
C881 C 0.24432 0.74426 0.47243 0.0
C882 C 0.21251 0.72998 0.46939 0.0
C883 C 0.1939 0.72879 0.49938 0.0
C884 C 0.19842 0.71623 0.4352 0.0
C885 C 0.26383 0.74814 0.44021 0.0
C886 C 0.16319 0.72044 0.41534 0.0
C887 C 0.15223 0.71022 0.38028 0.0
C888 C 0.17643 0.69575 0.36475 0.0
C889 C 0.21044 0.69003 0.38592 0.0
C890 C 0.22112 0.69989 0.42106 0.0
H891 H 0.28001 0.76495 0.44342 0.0
H892 H 0.28297 0.73308 0.4388 0.0
H893 H 0.24436 0.74897 0.41366 0.0
H894 H 0.14507 0.7328 0.42587 0.0
H895 H 0.12616 0.71525 0.36412 0.0
H896 H 0.20287 0.31587 0.09755 0.0
H897 H 0.22081 0.29779 0.04297 0.0
H898 H 0.20325 0.22739 0.08476 0.0
H899 H 0.185 0.24514 0.13935 0.0
H900 H 0.28243 0.26553 0.05317 0.0
H901 H 0.1567 0.22485 0.97332 0.0
H902 H 0.15558 0.24879 0.0062 0.0
H903 H 0.16536 0.2187 0.02213 0.0
C904 C 0.20199 0.29656 0.09481 0.0
C905 C 0.19303 0.28191 0.12305 0.0
C906 C 0.21226 0.28631 0.06364 0.0
C907 C 0.21328 0.26136 0.06012 0.0
C908 C 0.20221 0.24672 0.08701 0.0
H909 H 0.28924 0.16733 0.90302 0.0
H910 H 0.27164 0.18311 0.95934 0.0
C911 C 0.192 0.25691 0.11824 0.0
C912 C 0.22994 0.25063 0.03068 0.0
H913 H 0.21252 0.21488 0.95465 0.0
C914 C 0.26721 0.25452 0.03148 0.0
C915 C 0.20987 0.23612 0.00297 0.0
C916 C 0.16959 0.23194 0.00076 0.0
C917 C 0.28517 0.24412 0.00506 0.0
C918 C 0.26503 0.22982 0.97706 0.0
C919 C 0.2278 0.22576 0.97647 0.0
C920 C 0.28133 0.2201 0.94659 0.0
C921 C 0.32549 0.2483 0.00751 0.0
C922 C 0.29346 0.23576 0.92157 0.0
C923 C 0.30358 0.22687 0.88946 0.0
C924 C 0.30129 0.20219 0.88175 0.0
C925 C 0.29113 0.18644 0.90803 0.0
C926 C 0.28103 0.19538 0.94017 0.0
H927 H 0.33858 0.25371 0.03583 0.0
H928 H 0.3393 0.23198 -0.00047 0.0
H929 H 0.32972 0.26293 0.98827 0.0
H930 H 0.29332 0.25494 0.92591 0.0
H931 H 0.31143 0.23949 0.86989 0.0
H932 H 0.70573 0.17722 0.10012 0.0
H933 H 0.72381 0.19453 0.04523 0.0
H934 H 0.71996 0.26528 0.0915 0.0
H935 H 0.70228 0.24817 0.14704 0.0
H936 H 0.68994 0.23023 0.99512 0.0
H937 H 0.82586 0.25757 0.07195 0.0
H938 H 0.79686 0.23669 0.09061 0.0
H939 H 0.78719 0.2682 0.09043 0.0
C940 C 0.70841 0.19649 0.09862 0.0
C941 C 0.7031 0.21131 0.12819 0.0
C942 C 0.71869 0.20631 0.06721 0.0
C943 C 0.72385 0.23104 0.06491 0.0
C944 C 0.71671 0.24607 0.09334 0.0
H945 H 0.79497 0.31859 0.89877 0.0
H946 H 0.77816 0.30296 0.95543 0.0
C947 C 0.70639 0.23627 0.12485 0.0
C948 C 0.73793 0.24085 0.03314 0.0
H949 H 0.81222 0.26771 0.00858 0.0
C950 C 0.71663 0.23845 0.99795 0.0
C951 C 0.77285 0.25139 0.03728 0.0
C952 C 0.79725 0.2535 0.07453 0.0
C953 C 0.72927 0.2466 0.9665 0.0
C954 C 0.76428 0.25698 0.97061 0.0
C955 C 0.78548 0.25957 0.00581 0.0
C956 C 0.77877 0.26589 0.93853 0.0
C957 C 0.70493 0.24436 0.92923 0.0
C958 C 0.78605 0.25 0.91122 0.0
C959 C 0.79561 0.25881 0.87876 0.0
C960 C 0.79799 0.28365 0.8733 0.0
C961 C 0.79293 0.29938 0.9019 0.0
C962 C 0.78341 0.29053 0.93431 0.0
H963 H 0.67622 0.24065 0.9318 0.0
H964 H 0.70573 0.26098 0.91279 0.0
H965 H 0.71471 0.22936 0.91371 0.0
H966 H 0.78314 0.23086 0.91454 0.0
H967 H 0.79962 0.24621 0.8574 0.0
H968 H 0.8088 0.73612 0.87028 0.0
H969 H 0.79844 0.74819 0.93133 0.0
H970 H 0.80348 0.67436 0.96638 0.0
H971 H 0.81361 0.66197 0.90532 0.0
H972 H 0.73825 0.69757 0.97113 0.0
H973 H 0.85685 0.75143 0.03675 0.0
H974 H 0.83987 0.75995 0.98976 0.0
H975 H 0.85908 0.7306 -0.00045 0.0
C976 C 0.80868 0.72247 0.8912 0.0
C977 C 0.81132 0.69806 0.88276 0.0
C978 C 0.80302 0.72943 0.92617 0.0
C979 C 0.80037 0.71212 0.9532 0.0
C980 C 0.80556 0.68791 0.94574 0.0
H981 H 0.70945 0.73306 0.15435 0.0
H982 H 0.73378 0.71412 0.10389 0.0
C983 C 0.81117 0.6809 0.9108 0.0
C984 C 0.78651 0.71902 0.98675 0.0
H985 H 0.80105 0.75734 0.05989 0.0
C986 C 0.7522 0.7103 0.99101 0.0
C987 C 0.80485 0.73569 0.01226 0.0
C988 C 0.84237 0.7448 0.00961 0.0
C989 C 0.73484 0.71877 0.01927 0.0
C990 C 0.75262 0.7361 0.04395 0.0
C991 C 0.78751 0.74415 0.04055 0.0
C992 C 0.73497 0.74688 0.07271 0.0
C993 C 0.69702 0.70999 0.0215 0.0
C994 C 0.72727 0.77144 0.07134 0.0
C995 C 0.7135 0.78235 0.10005 0.0
C996 C 0.70742 0.76882 0.13066 0.0
C997 C 0.7137 0.74396 0.13109 0.0
C998 C 0.7276 0.73309 0.10235 0.0
H999 H 0.68446 0.7002 0.99613 0.0
H1000 H 0.69843 0.69763 0.04536 0.0
H1001 H 0.67903 0.7252 0.02588 0.0
H1002 H 0.73271 0.78226 0.04843 0.0
H1003 H 0.70876 0.8015 0.09877 0.0
H1004 H 0.22018 0.76064 0.16805 0.0
H1005 H 0.24592 0.78189 0.12019 0.0
H1006 H 0.2464 0.71611 0.05871 0.0
H1007 H 0.22116 0.69475 0.10617 0.0
H1008 H 0.31413 0.74188 0.07138 0.0
H1009 H 0.1946 0.79877 0.01366 0.0
H1010 H 0.21025 0.79952 0.06285 0.0
H1011 H 0.19028 0.77265 0.04153 0.0
C1012 C 0.22528 0.7508 0.14405 0.0
C1013 C 0.21875 0.72601 0.14091 0.0
C1014 C 0.24003 0.76295 0.11686 0.0
C1015 C 0.24803 0.75048 0.08614 0.0
C1016 C 0.24059 0.72594 0.08246 0.0
H1017 H 0.30836 0.75681 0.87912 0.0
H1018 H 0.3015 0.74737 0.94237 0.0
C1019 C 0.22606 0.71381 0.10955 0.0
C1020 C 0.26477 0.76255 0.05771 0.0
H1021 H 0.24502 0.79982 0.98355 0.0
C1022 C 0.29933 0.75484 0.05244 0.0
C1023 C 0.24541 0.77957 0.03345 0.0
C1024 C 0.20799 0.78812 0.03782 0.0
C1025 C 0.31434 0.76287 0.02229 0.0
C1026 C 0.29398 0.77872 0.99675 0.0
C1027 C 0.26046 0.78759 0.0033 0.0
C1028 C 0.30463 0.78424 0.96093 0.0
C1029 C 0.35135 0.75384 0.01743 0.0
C1030 C 0.30904 0.80805 0.9507 0.0
C1031 C 0.31274 0.81353 0.91454 0.0
C1032 C 0.31166 0.79526 0.88793 0.0
C1033 C 0.30919 0.7713 0.89887 0.0
C1034 C 0.30554 0.76585 0.93508 0.0
H1035 H 0.36784 0.74826 0.04427 0.0
H1036 H 0.34791 0.73799 0.99893 0.0
H1037 H 0.36654 0.76773 0.00474 0.0
H1038 H 0.30823 0.82244 0.97034 0.0
H1039 H 0.315 0.83218 0.90718 0.0
loop_
_geom_bond_atom_site_label_1
_geom_bond_atom_site_label_2
_geom_bond_distance
_geom_bond_site_symmetry_2
_ccdc_geom_bond_type
Sc0 O3 2.025 . S
Sc0 O10 2.105 . S
Sc0 O13 2.105 . S
Sc0 O16 2.105 . S
Sc0 O19 2.105 . S
Sc1 O3 2.025 . S
Sc1 O11 2.105 . S
Sc1 O15 2.105 . S
Sc1 O17 2.105 . S
Sc1 O21 2.105 . S
Sc2 O3 2.025 . S
Sc2 O12 2.105 . S
Sc2 O14 2.105 . S
Sc2 O18 2.105 . S
Sc2 O20 2.105 . S
O3 Sc0 2.025 . S
O3 Sc1 2.025 . S
O3 Sc2 2.025 . S
C4 O10 1.268 . S
C4 O20 1.268 . S
C5 O11 1.268 . S
C5 O19 1.268 . S
C6 O12 1.268 . S
C6 O21 1.268 . S
C7 O13 1.268 . S
C7 O17 1.268 . S
C8 O14 1.268 . S
C8 O16 1.268 . S
C9 O15 1.268 . S
C9 O18 1.268 . S
O10 Sc0 2.105 . S
O10 C4 1.268 . S
O11 Sc1 2.105 . S
O11 C5 1.268 . S
O12 Sc2 2.105 . S
O12 C6 1.268 . S
O13 Sc0 2.105 . S
O13 C7 1.268 . S
O14 Sc2 2.105 . S
O14 C8 1.268 . S
O15 Sc1 2.105 . S
O15 C9 1.268 . S
O16 Sc0 2.105 . S
O16 C8 1.268 . S
O17 Sc1 2.105 . S
O17 C7 1.268 . S
O18 Sc2 2.105 . S
O18 C9 1.268 . S
O19 Sc0 2.105 . S
O19 C5 1.268 . S
O20 Sc2 2.105 . S
O20 C4 1.268 . S
O21 Sc1 2.105 . S
O21 C6 1.268 . S
Sc22 O25 2.025 . S
Sc22 O32 2.105 . S
Sc22 O35 2.105 . S
Sc22 O38 2.105 . S
Sc22 O41 2.105 . S
Sc23 O25 2.025 . S
Sc23 O33 2.105 . S
Sc23 O37 2.105 . S
Sc23 O39 2.105 . S
Sc23 O43 2.105 . S
Sc24 O25 2.025 . S
Sc24 O34 2.105 . S
Sc24 O36 2.105 . S
Sc24 O40 2.105 . S
Sc24 O42 2.105 . S
O25 Sc22 2.025 . S
O25 Sc23 2.025 . S
O25 Sc24 2.025 . S
C26 O32 1.268 . S
C26 O42 1.268 . S
C27 O33 1.268 . S
C27 O41 1.268 . S
C28 O34 1.268 . S
C28 O43 1.268 . S
C29 O35 1.268 . S
C29 O39 1.268 . S
C30 O36 1.268 . S
C30 O38 1.268 . S
C31 O37 1.268 . S
C31 O40 1.268 . S
O32 Sc22 2.105 . S
O32 C26 1.268 . S
O33 Sc23 2.105 . S
O33 C27 1.268 . S
O34 Sc24 2.105 . S
O34 C28 1.268 . S
O35 Sc22 2.105 . S
O35 C29 1.268 . S
O36 Sc24 2.105 . S
O36 C30 1.268 . S
O37 Sc23 2.105 . S
O37 C31 1.268 . S
O38 Sc22 2.105 . S
O38 C30 1.268 . S
O39 Sc23 2.105 . S
O39 C29 1.268 . S
O40 Sc24 2.105 . S
O40 C31 1.268 . S
O41 Sc22 2.105 . S
O41 C27 1.268 . S
O42 Sc24 2.105 . S
O42 C26 1.268 . S
O43 Sc23 2.105 . S
O43 C28 1.268 . S
Sc44 O47 2.025 . S
Sc44 O54 2.105 . S
Sc44 O57 2.105 . S
Sc44 O60 2.105 . S
Sc44 O63 2.105 . S
Sc45 O47 2.025 . S
Sc45 O55 2.105 . S
Sc45 O59 2.105 . S
Sc45 O61 2.105 . S
Sc45 O65 2.105 . S
Sc46 O47 2.025 . S
Sc46 O56 2.105 . S
Sc46 O58 2.105 . S
Sc46 O62 2.105 . S
Sc46 O64 2.105 . S
O47 Sc44 2.025 . S
O47 Sc45 2.025 . S
O47 Sc46 2.025 . S
C48 O54 1.268 . S
C48 O64 1.268 . S
C49 O55 1.268 . S
C49 O63 1.268 . S
C50 O56 1.268 . S
C50 O65 1.268 . S
C51 O57 1.268 . S
C51 O61 1.268 . S
C52 O58 1.268 . S
C52 O60 1.268 . S
C53 O59 1.268 . S
C53 O62 1.268 . S
O54 Sc44 2.105 . S
O54 C48 1.268 . S
O55 Sc45 2.105 . S
O55 C49 1.268 . S
O56 Sc46 2.105 . S
O56 C50 1.268 . S
O57 Sc44 2.105 . S
O57 C51 1.268 . S
O58 Sc46 2.105 . S
O58 C52 1.268 . S
O59 Sc45 2.105 . S
O59 C53 1.268 . S
O60 Sc44 2.105 . S
O60 C52 1.268 . S
O61 Sc45 2.105 . S
O61 C51 1.268 . S
O62 Sc46 2.105 . S
O62 C53 1.268 . S
O63 Sc44 2.105 . S
O63 C49 1.268 . S
O64 Sc46 2.105 . S
O64 C48 1.268 . S
O65 Sc45 2.105 . S
O65 C50 1.268 . S
Sc66 O69 2.025 . S
Sc66 O76 2.105 . S
Sc66 O79 2.105 . S
Sc66 O82 2.105 . S
Sc66 O85 2.105 . S
Sc67 O69 2.025 . S
Sc67 O77 2.105 . S
Sc67 O81 2.105 . S
Sc67 O83 2.105 . S
Sc67 O87 2.105 . S
Sc68 O69 2.025 . S
Sc68 O78 2.105 . S
Sc68 O80 2.105 . S
Sc68 O84 2.105 . S
Sc68 O86 2.105 . S
O69 Sc66 2.025 . S
O69 Sc67 2.025 . S
O69 Sc68 2.025 . S
C70 O76 1.268 . S
C70 O86 1.268 . S
C71 O77 1.268 . S
C71 O85 1.268 . S
C72 O78 1.268 . S
C72 O87 1.268 . S
C73 O79 1.268 . S
C73 O83 1.268 . S
C74 O80 1.268 . S
C74 O82 1.268 . S
C75 O81 1.268 . S
C75 O84 1.268 . S
O76 Sc66 2.105 . S
O76 C70 1.268 . S
O77 Sc67 2.105 . S
O77 C71 1.268 . S
O78 Sc68 2.105 . S
O78 C72 1.268 . S
O79 Sc66 2.105 . S
O79 C73 1.268 . S
O80 Sc68 2.105 . S
O80 C74 1.268 . S
O81 Sc67 2.105 . S
O81 C75 1.268 . S
O82 Sc66 2.105 . S
O82 C74 1.268 . S
O83 Sc67 2.105 . S
O83 C73 1.268 . S
O84 Sc68 2.105 . S
O84 C75 1.268 . S
O85 Sc66 2.105 . S
O85 C71 1.268 . S
O86 Sc68 2.105 . S
O86 C70 1.268 . S
O87 Sc67 2.105 . S
O87 C72 1.268 . S
Sc88 O91 2.025 . S
Sc88 O98 2.105 . S
Sc88 O101 2.105 . S
Sc88 O104 2.105 . S
Sc88 O107 2.105 . S
Sc89 O91 2.025 . S
Sc89 O99 2.105 . S
Sc89 O103 2.105 . S
Sc89 O105 2.105 . S
Sc89 O109 2.105 . S
Sc90 O91 2.025 . S
Sc90 O100 2.105 . S
Sc90 O102 2.105 . S
Sc90 O106 2.105 . S
Sc90 O108 2.105 . S
O91 Sc88 2.025 . S
O91 Sc89 2.025 . S
O91 Sc90 2.025 . S
C92 O98 1.268 . S
C92 O108 1.268 . S
C93 O99 1.268 . S
C93 O107 1.268 . S
C94 O100 1.268 . S
C94 O109 1.268 . S
C95 O101 1.268 . S
C95 O105 1.268 . S
C96 O102 1.268 . S
C96 O104 1.268 . S
C97 O103 1.268 . S
C97 O106 1.268 . S
O98 Sc88 2.105 . S
O98 C92 1.268 . S
O99 Sc89 2.105 . S
O99 C93 1.268 . S
O100 Sc90 2.105 . S
O100 C94 1.268 . S
O101 Sc88 2.105 . S
O101 C95 1.268 . S
O102 Sc90 2.105 . S
O102 C96 1.268 . S
O103 Sc89 2.105 . S
O103 C97 1.268 . S
O104 Sc88 2.105 . S
O104 C96 1.268 . S
O105 Sc89 2.105 . S
O105 C95 1.268 . S
O106 Sc90 2.105 . S
O106 C97 1.268 . S
O107 Sc88 2.105 . S
O107 C93 1.268 . S
O108 Sc90 2.105 . S
O108 C92 1.268 . S
O109 Sc89 2.105 . S
O109 C94 1.268 . S
Sc110 O113 2.025 . S
Sc110 O120 2.105 . S
Sc110 O123 2.105 . S
Sc110 O126 2.105 . S
Sc110 O129 2.105 . S
Sc111 O113 2.025 . S
Sc111 O121 2.105 . S
Sc111 O125 2.105 . S
Sc111 O127 2.105 . S
Sc111 O131 2.105 . S
Sc112 O113 2.025 . S
Sc112 O122 2.105 . S
Sc112 O124 2.105 . S
Sc112 O128 2.105 . S
Sc112 O130 2.105 . S
O113 Sc110 2.025 . S
O113 Sc111 2.025 . S
O113 Sc112 2.025 . S
C114 O120 1.268 . S
C114 O130 1.268 . S
C115 O121 1.268 . S
C115 O129 1.268 . S
C116 O122 1.268 . S
C116 O131 1.268 . S
C117 O123 1.268 . S
C117 O127 1.268 . S
C118 O124 1.268 . S
C118 O126 1.268 . S
C119 O125 1.268 . S
C119 O128 1.268 . S
O120 Sc110 2.105 . S
O120 C114 1.268 . S
O121 Sc111 2.105 . S
O121 C115 1.268 . S
O122 Sc112 2.105 . S
O122 C116 1.268 . S
O123 Sc110 2.105 . S
O123 C117 1.268 . S
O124 Sc112 2.105 . S
O124 C118 1.268 . S
O125 Sc111 2.105 . S
O125 C119 1.268 . S
O126 Sc110 2.105 . S
O126 C118 1.268 . S
O127 Sc111 2.105 . S
O127 C117 1.268 . S
O128 Sc112 2.105 . S
O128 C119 1.268 . S
O129 Sc110 2.105 . S
O129 C115 1.268 . S
O130 Sc112 2.105 . S
O130 C114 1.268 . S
O131 Sc111 2.105 . S
O131 C116 1.268 . S
Sc132 O135 2.025 . S
Sc132 O142 2.105 . S
Sc132 O145 2.105 . S
Sc132 O148 2.105 . S
Sc132 O151 2.105 . S
Sc133 O135 2.025 . S
Sc133 O143 2.105 . S
Sc133 O147 2.105 . S
Sc133 O149 2.105 . S
Sc133 O153 2.105 . S
Sc134 O135 2.025 . S
Sc134 O144 2.105 . S
Sc134 O146 2.105 . S
Sc134 O150 2.105 . S
Sc134 O152 2.105 . S
O135 Sc132 2.025 . S
O135 Sc133 2.025 . S
O135 Sc134 2.025 . S
C136 O142 1.268 . S
C136 O152 1.268 . S
C137 O143 1.268 . S
C137 O151 1.268 . S
C138 O144 1.268 . S
C138 O153 1.268 . S
C139 O145 1.268 . S
C139 O149 1.268 . S
C140 O146 1.268 . S
C140 O148 1.268 . S
C141 O147 1.268 . S
C141 O150 1.268 . S
O142 Sc132 2.105 . S
O142 C136 1.268 . S
O143 Sc133 2.105 . S
O143 C137 1.268 . S
O144 Sc134 2.105 . S
O144 C138 1.268 . S
O145 Sc132 2.105 . S
O145 C139 1.268 . S
O146 Sc134 2.105 . S
O146 C140 1.268 . S
O147 Sc133 2.105 . S
O147 C141 1.268 . S
O148 Sc132 2.105 . S
O148 C140 1.268 . S
O149 Sc133 2.105 . S
O149 C139 1.268 . S
O150 Sc134 2.105 . S
O150 C141 1.268 . S
O151 Sc132 2.105 . S
O151 C137 1.268 . S
O152 Sc134 2.105 . S
O152 C136 1.268 . S
O153 Sc133 2.105 . S
O153 C138 1.268 . S
Sc154 O157 2.025 . S
Sc154 O164 2.105 . S
Sc154 O167 2.105 . S
Sc154 O170 2.105 . S
Sc154 O173 2.105 . S
Sc155 O157 2.025 . S
Sc155 O165 2.105 . S
Sc155 O169 2.105 . S
Sc155 O171 2.105 . S
Sc155 O175 2.105 . S
Sc156 O157 2.025 . S
Sc156 O166 2.105 . S
Sc156 O168 2.105 . S
Sc156 O172 2.105 . S
Sc156 O174 2.105 . S
O157 Sc154 2.025 . S
O157 Sc155 2.025 . S
O157 Sc156 2.025 . S
C158 O164 1.268 . S
C158 O174 1.268 . S
C159 O165 1.268 . S
C159 O173 1.268 . S
C160 O166 1.268 . S
C160 O175 1.268 . S
C161 O167 1.268 . S
C161 O171 1.268 . S
C162 O168 1.268 . S
C162 O170 1.268 . S
C163 O169 1.268 . S
C163 O172 1.268 . S
O164 Sc154 2.105 . S
O164 C158 1.268 . S
O165 Sc155 2.105 . S
O165 C159 1.268 . S
O166 Sc156 2.105 . S
O166 C160 1.268 . S
O167 Sc154 2.105 . S
O167 C161 1.268 . S
O168 Sc156 2.105 . S
O168 C162 1.268 . S
O169 Sc155 2.105 . S
O169 C163 1.268 . S
O170 Sc154 2.105 . S
O170 C162 1.268 . S
O171 Sc155 2.105 . S
O171 C161 1.268 . S
O172 Sc156 2.105 . S
O172 C163 1.268 . S
O173 Sc154 2.105 . S
O173 C159 1.268 . S
O174 Sc156 2.105 . S
O174 C158 1.268 . S
O175 Sc155 2.105 . S
O175 C160 1.268 . S
H176 C184 0.929 . S
H177 C186 0.930 . S
H178 C188 0.930 . S
H179 C191 0.929 . S
H180 C194 0.930 . S
H181 C196 0.960 . S
H182 C196 0.960 . S
H183 C196 0.960 . S
C184 H176 0.929 . S
C184 C185 1.377 . S
C184 C186 1.384 . S
C185 C184 1.377 . S
C185 C191 1.390 . S
C186 H177 0.930 . S
C186 C184 1.384 . S
C186 C187 1.372 . S
C187 C186 1.372 . S
C187 C188 1.400 . S
C187 C192 1.490 . S
C188 H178 0.930 . S
C188 C187 1.400 . S
C188 C191 1.386 . S
H189 C205 0.930 . S
H190 C206 0.931 . S
C191 H179 0.929 . S
C191 C185 1.390 . S
C191 C188 1.386 . S
C192 C187 1.490 . S
C192 C194 1.395 . S
C192 C195 1.403 . S
H193 C199 0.930 . S
C194 H180 0.930 . S
C194 C192 1.395 . S
C194 C197 1.403 . S
C195 C192 1.403 . S
C195 C196 1.524 . S
C195 C199 1.400 . S
C196 H181 0.960 . S
C196 H182 0.960 . S
C196 H183 0.960 . S
C196 C195 1.524 . S
C197 C194 1.403 . S
C197 C198 1.392 . S
C197 C201 1.495 . S
C198 C197 1.392 . S
C198 C199 1.385 . S
C198 C200 1.478 . S
C199 H193 0.930 . S
C199 C195 1.400 . S
C199 C198 1.385 . S
C200 C198 1.478 . S
C200 C202 1.381 . S
C200 C206 1.383 . S
C201 C197 1.495 . S
C201 H207 0.959 . S
C201 H208 0.961 . S
C201 H209 0.960 . S
C202 C200 1.381 . S
C202 C203 1.394 . S
C202 H210 0.930 . S
C203 C202 1.394 . S
C203 C204 1.383 . S
C203 H211 0.929 . S
C204 C203 1.383 . S
C204 C205 1.377 . S
C205 H189 0.930 . S
C205 C204 1.377 . S
C205 C206 1.379 . S
C206 H190 0.931 . S
C206 C200 1.383 . S
C206 C205 1.379 . S
H207 C201 0.959 . S
H208 C201 0.961 . S
H209 C201 0.960 . S
H210 C202 0.930 . S
H211 C203 0.929 . S
H212 C220 0.929 . S
H213 C222 0.930 . S
H214 C224 0.930 . S
H215 C227 0.929 . S
H216 C230 0.930 . S
H217 C232 0.960 . S
H218 C232 0.960 . S
H219 C232 0.960 . S
C220 H212 0.929 . S
C220 C221 1.377 . S
C220 C222 1.384 . S
C221 C220 1.377 . S
C221 C227 1.390 . S
C222 H213 0.930 . S
C222 C220 1.384 . S
C222 C223 1.372 . S
C223 C222 1.372 . S
C223 C224 1.400 . S
C223 C228 1.490 . S
C224 H214 0.930 . S
C224 C223 1.400 . S
C224 C227 1.386 . S
H225 C241 0.930 . S
H226 C242 0.931 . S
C227 H215 0.929 . S
C227 C221 1.390 . S
C227 C224 1.386 . S
C228 C223 1.490 . S
C228 C230 1.395 . S
C228 C231 1.403 . S
H229 C235 0.930 . S
C230 H216 0.930 . S
C230 C228 1.395 . S
C230 C233 1.403 . S
C231 C228 1.403 . S
C231 C232 1.524 . S
C231 C235 1.400 . S
C232 H217 0.960 . S
C232 H218 0.960 . S
C232 H219 0.960 . S
C232 C231 1.524 . S
C233 C230 1.403 . S
C233 C234 1.392 . S
C233 C237 1.495 . S
C234 C233 1.392 . S
C234 C235 1.385 . S
C234 C236 1.478 . S
C235 H229 0.930 . S
C235 C231 1.400 . S
C235 C234 1.385 . S
C236 C234 1.478 . S
C236 C238 1.381 . S
C236 C242 1.383 . S
C237 C233 1.495 . S
C237 H243 0.959 . S
C237 H244 0.961 . S
C237 H245 0.960 . S
C238 C236 1.381 . S
C238 C239 1.394 . S
C238 H246 0.930 . S
C239 C238 1.394 . S
C239 C240 1.383 . S
C239 H247 0.929 . S
C240 C239 1.383 . S
C240 C241 1.377 . S
C241 H225 0.930 . S
C241 C240 1.377 . S
C241 C242 1.379 . S
C242 H226 0.931 . S
C242 C236 1.383 . S
C242 C241 1.379 . S
H243 C237 0.959 . S
H244 C237 0.961 . S
H245 C237 0.960 . S
H246 C238 0.930 . S
H247 C239 0.929 . S
H248 C256 0.929 . S
H249 C258 0.930 . S
H250 C260 0.930 . S
H251 C263 0.929 . S
H252 C266 0.930 . S
H253 C268 0.960 . S
H254 C268 0.960 . S
H255 C268 0.960 . S
C256 H248 0.929 . S
C256 C257 1.377 . S
C256 C258 1.384 . S
C257 C256 1.377 . S
C257 C263 1.390 . S
C258 H249 0.930 . S
C258 C256 1.384 . S
C258 C259 1.372 . S
C259 C258 1.372 . S
C259 C260 1.400 . S
C259 C264 1.490 . S
C260 H250 0.930 . S
C260 C259 1.400 . S
C260 C263 1.386 . S
H261 C277 0.930 . S
H262 C278 0.931 . S
C263 H251 0.929 . S
C263 C257 1.390 . S
C263 C260 1.386 . S
C264 C259 1.490 . S
C264 C266 1.395 . S
C264 C267 1.403 . S
H265 C271 0.930 . S
C266 H252 0.930 . S
C266 C264 1.395 . S
C266 C269 1.403 . S
C267 C264 1.403 . S
C267 C268 1.524 . S
C267 C271 1.400 . S
C268 H253 0.960 . S
C268 H254 0.960 . S
C268 H255 0.960 . S
C268 C267 1.524 . S
C269 C266 1.403 . S
C269 C270 1.392 . S
C269 C273 1.495 . S
C270 C269 1.392 . S
C270 C271 1.385 . S
C270 C272 1.478 . S
C271 H265 0.930 . S
C271 C267 1.400 . S
C271 C270 1.385 . S
C272 C270 1.478 . S
C272 C274 1.381 . S
C272 C278 1.383 . S
C273 C269 1.495 . S
C273 H279 0.959 . S
C273 H280 0.961 . S
C273 H281 0.960 . S
C274 C272 1.381 . S
C274 C275 1.394 . S
C274 H282 0.930 . S
C275 C274 1.394 . S
C275 C276 1.383 . S
C275 H283 0.929 . S
C276 C275 1.383 . S
C276 C277 1.377 . S
C277 H261 0.930 . S
C277 C276 1.377 . S
C277 C278 1.379 . S
C278 H262 0.931 . S
C278 C272 1.383 . S
C278 C277 1.379 . S
H279 C273 0.959 . S
H280 C273 0.961 . S
H281 C273 0.960 . S
H282 C274 0.930 . S
H283 C275 0.929 . S
H284 C292 0.929 . S
H285 C294 0.930 . S
H286 C296 0.930 . S
H287 C299 0.929 . S
H288 C302 0.930 . S
H289 C304 0.960 . S
H290 C304 0.960 . S
H291 C304 0.960 . S
C292 H284 0.929 . S
C292 C293 1.377 . S
C292 C294 1.384 . S
C293 C292 1.377 . S
C293 C299 1.390 . S
C294 H285 0.930 . S
C294 C292 1.384 . S
C294 C295 1.372 . S
C295 C294 1.372 . S
C295 C296 1.400 . S
C295 C300 1.490 . S
C296 H286 0.930 . S
C296 C295 1.400 . S
C296 C299 1.386 . S
H297 C313 0.930 . S
H298 C314 0.931 . S
C299 H287 0.929 . S
C299 C293 1.390 . S
C299 C296 1.386 . S
C300 C295 1.490 . S
C300 C302 1.395 . S
C300 C303 1.403 . S
H301 C307 0.930 . S
C302 H288 0.930 . S
C302 C300 1.395 . S
C302 C305 1.403 . S
C303 C300 1.403 . S
C303 C304 1.524 . S
C303 C307 1.400 . S
C304 H289 0.960 . S
C304 H290 0.960 . S
C304 H291 0.960 . S
C304 C303 1.524 . S
C305 C302 1.403 . S
C305 C306 1.392 . S
C305 C309 1.495 . S
C306 C305 1.392 . S
C306 C307 1.385 . S
C306 C308 1.478 . S
C307 H301 0.930 . S
C307 C303 1.400 . S
C307 C306 1.385 . S
C308 C306 1.478 . S
C308 C310 1.381 . S
C308 C314 1.383 . S
C309 C305 1.495 . S
C309 H315 0.959 . S
C309 H316 0.961 . S
C309 H317 0.960 . S
C310 C308 1.381 . S
C310 C311 1.394 . S
C310 H318 0.930 . S
C311 C310 1.394 . S
C311 C312 1.383 . S
C311 H319 0.929 . S
C312 C311 1.383 . S
C312 C313 1.377 . S
C313 H297 0.930 . S
C313 C312 1.377 . S
C313 C314 1.379 . S
C314 H298 0.931 . S
C314 C308 1.383 . S
C314 C313 1.379 . S
H315 C309 0.959 . S
H316 C309 0.961 . S
H317 C309 0.960 . S
H318 C310 0.930 . S
H319 C311 0.929 . S
H320 C328 0.929 . S
H321 C330 0.930 . S
H322 C332 0.930 . S
H323 C335 0.929 . S
H324 C338 0.930 1_455 S
H325 C340 0.960 . S
H326 C340 0.960 1_455 S
H327 C340 0.960 1_455 S
C328 H320 0.929 . S
C328 C329 1.377 . S
C328 C330 1.384 . S
C329 C328 1.377 . S
C329 C335 1.390 . S
C330 H321 0.930 . S
C330 C328 1.384 . S
C330 C331 1.372 . S
C331 C330 1.372 . S
C331 C332 1.400 . S
C331 C336 1.490 . S
C332 H322 0.930 . S
C332 C331 1.400 . S
C332 C335 1.386 . S
H333 C349 0.930 . S
H334 C350 0.931 . S
C335 H323 0.929 . S
C335 C329 1.390 . S
C335 C332 1.386 . S
C336 C331 1.490 . S
C336 C338 1.395 1_455 S
C336 C339 1.403 1_455 S
H337 C343 0.930 . S
C338 H324 0.930 1_655 S
C338 C336 1.395 1_655 S
C338 C341 1.403 . S
C339 C336 1.403 1_655 S
C339 C340 1.524 . S
C339 C343 1.400 . S
C340 H325 0.960 . S
C340 H326 0.960 1_655 S
C340 H327 0.960 1_655 S
C340 C339 1.524 . S
C341 C338 1.403 . S
C341 C342 1.392 . S
C341 C345 1.495 . S
C342 C341 1.392 . S
C342 C343 1.385 . S
C342 C344 1.478 . S
C343 H337 0.930 . S
C343 C339 1.400 . S
C343 C342 1.385 . S
C344 C342 1.478 . S
C344 C346 1.381 . S
C344 C350 1.383 . S
C345 C341 1.495 . S
C345 H351 0.959 . S
C345 H352 0.961 . S
C345 H353 0.960 . S
C346 C344 1.381 . S
C346 C347 1.394 . S
C346 H354 0.930 . S
C347 C346 1.394 . S
C347 C348 1.383 . S
C347 H355 0.929 . S
C348 C347 1.383 . S
C348 C349 1.377 . S
C349 H333 0.930 . S
C349 C348 1.377 . S
C349 C350 1.379 . S
C350 H334 0.931 . S
C350 C344 1.383 . S
C350 C349 1.379 . S
H351 C345 0.959 . S
H352 C345 0.961 . S
H353 C345 0.960 . S
H354 C346 0.930 . S
H355 C347 0.929 . S
H356 C364 0.929 . S
H357 C366 0.930 . S
H358 C368 0.930 . S
H359 C371 0.929 . S
H360 C374 0.930 1_655 S
H361 C376 0.960 . S
H362 C376 0.960 . S
H363 C376 0.960 1_655 S
C364 H356 0.929 . S
C364 C365 1.377 . S
C364 C366 1.384 . S
C365 C364 1.377 . S
C365 C371 1.390 . S
C366 H357 0.930 . S
C366 C364 1.384 . S
C366 C367 1.372 . S
C367 C366 1.372 . S
C367 C368 1.400 . S
C367 C372 1.490 . S
C368 H358 0.930 . S
C368 C367 1.400 . S
C368 C371 1.386 . S
H369 C385 0.930 . S
H370 C386 0.931 . S
C371 H359 0.929 . S
C371 C365 1.390 . S
C371 C368 1.386 . S
C372 C367 1.490 . S
C372 C374 1.395 1_655 S
C372 C375 1.403 1_655 S
H373 C379 0.930 . S
C374 H360 0.930 1_455 S
C374 C372 1.395 1_455 S
C374 C377 1.403 . S
C375 C372 1.403 1_455 S
C375 C376 1.524 . S
C375 C379 1.400 . S
C376 H361 0.960 . S
C376 H362 0.960 . S
C376 H363 0.960 1_455 S
C376 C375 1.524 . S
C377 C374 1.403 . S
C377 C378 1.392 . S
C377 C381 1.495 . S
C378 C377 1.392 . S
C378 C379 1.385 . S
C378 C380 1.478 . S
C379 H373 0.930 . S
C379 C375 1.400 . S
C379 C378 1.385 . S
C380 C378 1.478 . S
C380 C382 1.381 . S
C380 C386 1.383 . S
C381 C377 1.495 . S
C381 H387 0.959 . S
C381 H388 0.961 . S
C381 H389 0.960 . S
C382 C380 1.381 . S
C382 C383 1.394 . S
C382 H390 0.930 . S
C383 C382 1.394 . S
C383 C384 1.383 . S
C383 H391 0.929 . S
C384 C383 1.383 . S
C384 C385 1.377 . S
C385 H369 0.930 . S
C385 C384 1.377 . S
C385 C386 1.379 . S
C386 H370 0.931 . S
C386 C380 1.383 . S
C386 C385 1.379 . S
H387 C381 0.959 . S
H388 C381 0.961 . S
H389 C381 0.960 . S
H390 C382 0.930 . S
H391 C383 0.929 . S
H392 C400 0.929 . S
H393 C402 0.930 . S
H394 C404 0.930 . S
H395 C407 0.929 . S
H396 C410 0.930 . S
H397 C412 0.960 . S
H398 C412 0.960 . S
H399 C412 0.960 . S
C400 H392 0.929 . S
C400 C401 1.377 . S
C400 C402 1.384 . S
C401 C400 1.377 . S
C401 C407 1.390 . S
C402 H393 0.930 . S
C402 C400 1.384 . S
C402 C403 1.372 . S
C403 C402 1.372 . S
C403 C404 1.400 . S
C403 C408 1.490 . S
C404 H394 0.930 . S
C404 C403 1.400 . S
C404 C407 1.386 . S
H405 C421 0.930 . S
H406 C422 0.931 . S
C407 H395 0.929 . S
C407 C401 1.390 . S
C407 C404 1.386 . S
C408 C403 1.490 . S
C408 C410 1.395 . S
C408 C411 1.403 1_655 S
H409 C415 0.930 . S
C410 H396 0.930 . S
C410 C408 1.395 . S
C410 C413 1.403 1_655 S
C411 C408 1.403 1_455 S
C411 C412 1.524 . S
C411 C415 1.400 . S
C412 H397 0.960 . S
C412 H398 0.960 . S
C412 H399 0.960 . S
C412 C411 1.524 . S
C413 C410 1.403 1_455 S
C413 C414 1.392 . S
C413 C417 1.495 . S
C414 C413 1.392 . S
C414 C415 1.385 . S
C414 C416 1.478 . S
C415 H409 0.930 . S
C415 C411 1.400 . S
C415 C414 1.385 . S
C416 C414 1.478 . S
C416 C418 1.381 . S
C416 C422 1.383 . S
C417 C413 1.495 . S
C417 H423 0.959 . S
C417 H424 0.961 . S
C417 H425 0.960 . S
C418 C416 1.381 . S
C418 C419 1.394 . S
C418 H426 0.930 . S
C419 C418 1.394 . S
C419 C420 1.383 . S
C419 H427 0.929 . S
C420 C419 1.383 . S
C420 C421 1.377 . S
C421 H405 0.930 . S
C421 C420 1.377 . S
C421 C422 1.379 . S
C422 H406 0.931 . S
C422 C416 1.383 . S
C422 C421 1.379 . S
H423 C417 0.959 . S
H424 C417 0.961 . S
H425 C417 0.960 . S
H426 C418 0.930 . S
H427 C419 0.929 . S
H428 C436 0.929 . S
H429 C438 0.930 . S
H430 C440 0.930 . S
H431 C443 0.929 . S
H432 C446 0.930 . S
H433 C448 0.960 . S
H434 C448 0.960 . S
H435 C448 0.960 . S
C436 H428 0.929 . S
C436 C437 1.377 . S
C436 C438 1.384 . S
C437 C436 1.377 . S
C437 C443 1.390 . S
C438 H429 0.930 . S
C438 C436 1.384 . S
C438 C439 1.372 . S
C439 C438 1.372 . S
C439 C440 1.400 . S
C439 C444 1.490 . S
C440 H430 0.930 . S
C440 C439 1.400 . S
C440 C443 1.386 . S
H441 C457 0.930 . S
H442 C458 0.931 . S
C443 H431 0.929 . S
C443 C437 1.390 . S
C443 C440 1.386 . S
C444 C439 1.490 . S
C444 C446 1.395 . S
C444 C447 1.403 1_455 S
H445 C451 0.930 . S
C446 H432 0.930 . S
C446 C444 1.395 . S
C446 C449 1.403 1_455 S
C447 C444 1.403 1_655 S
C447 C448 1.524 . S
C447 C451 1.400 . S
C448 H433 0.960 . S
C448 H434 0.960 . S
C448 H435 0.960 . S
C448 C447 1.524 . S
C449 C446 1.403 1_655 S
C449 C450 1.392 . S
C449 C453 1.495 . S
C450 C449 1.392 . S
C450 C451 1.385 . S
C450 C452 1.478 . S
C451 H445 0.930 . S
C451 C447 1.400 . S
C451 C450 1.385 . S
C452 C450 1.478 . S
C452 C454 1.381 . S
C452 C458 1.383 . S
C453 C449 1.495 . S
C453 H459 0.959 . S
C453 H460 0.961 . S
C453 H461 0.960 . S
C454 C452 1.381 . S
C454 C455 1.394 . S
C454 H462 0.930 . S
C455 C454 1.394 . S
C455 C456 1.383 . S
C455 H463 0.929 . S
C456 C455 1.383 . S
C456 C457 1.377 . S
C457 H441 0.930 . S
C457 C456 1.377 . S
C457 C458 1.379 . S
C458 H442 0.931 . S
C458 C452 1.383 . S
C458 C457 1.379 . S
H459 C453 0.959 . S
H460 C453 0.961 . S
H461 C453 0.960 . S
H462 C454 0.930 . S
H463 C455 0.929 . S
H464 C472 0.929 . S
H465 C474 0.930 . S
H466 C476 0.930 . S
H467 C479 0.929 . S
H468 C482 0.933 1_655 S
H469 C484 0.960 . S
H470 C484 0.960 . S
H471 C484 0.960 1_556 S
C472 H464 0.929 . S
C472 C473 1.377 . S
C472 C474 1.384 . S
C473 C472 1.377 . S
C473 C479 1.390 . S
C474 H465 0.930 . S
C474 C472 1.384 . S
C474 C475 1.372 . S
C475 C474 1.372 . S
C475 C476 1.400 . S
C475 C480 1.490 . S
C476 H466 0.930 . S
C476 C475 1.400 . S
C476 C479 1.386 . S
H477 C493 0.930 . S
H478 C494 0.931 . S
C479 H467 0.929 . S
C479 C473 1.390 . S
C479 C476 1.386 . S
C480 C475 1.490 . S
C480 C482 1.387 1_655 S
C480 C483 1.389 1_556 S
H481 C487 0.930 . S
C482 H468 0.933 1_455 S
C482 C480 1.387 1_455 S
C482 C485 1.410 . S
C483 C480 1.389 1_554 S
C483 C484 1.527 . S
C483 C487 1.411 1_655 S
C484 H469 0.960 . S
C484 H470 0.960 . S
C484 H471 0.960 1_554 S
C484 C483 1.527 . S
C485 C482 1.410 . S
C485 C486 1.392 1_556 S
C485 C489 1.495 . S
C486 C485 1.392 1_554 S
C486 C487 1.385 . S
C486 C488 1.478 . S
C487 H481 0.930 . S
C487 C483 1.411 1_455 S
C487 C486 1.385 . S
C488 C486 1.478 . S
C488 C490 1.381 . S
C488 C494 1.383 . S
C489 C485 1.495 . S
C489 H495 0.959 . S
C489 H496 0.961 . S
C489 H497 0.960 1_556 S
C490 C488 1.381 . S
C490 C491 1.394 . S
C490 H498 0.930 . S
C491 C490 1.394 . S
C491 C492 1.383 . S
C491 H499 0.929 . S
C492 C491 1.383 . S
C492 C493 1.377 . S
C493 H477 0.930 . S
C493 C492 1.377 . S
C493 C494 1.379 . S
C494 H478 0.931 . S
C494 C488 1.383 . S
C494 C493 1.379 . S
H495 C489 0.959 . S
H496 C489 0.961 . S
H497 C489 0.960 1_554 S
H498 C490 0.930 . S
H499 C491 0.929 . S
H500 C508 0.929 . S
H501 C510 0.930 . S
H502 C512 0.930 . S
H503 C515 0.929 . S
H504 C518 0.930 . S
H505 C520 0.960 . S
H506 C520 0.960 . S
H507 C520 0.960 . S
C508 H500 0.929 . S
C508 C509 1.377 . S
C508 C510 1.384 . S
C509 C508 1.377 . S
C509 C515 1.390 . S
C510 H501 0.930 . S
C510 C508 1.384 . S
C510 C511 1.372 . S
C511 C510 1.372 . S
C511 C512 1.400 . S
C511 C516 1.490 . S
C512 H502 0.930 . S
C512 C511 1.400 . S
C512 C515 1.386 . S
H513 C529 0.930 . S
H514 C530 0.931 . S
C515 H503 0.929 . S
C515 C509 1.390 . S
C515 C512 1.386 . S
C516 C511 1.490 . S
C516 C518 1.395 1_554 S
C516 C519 1.403 1_455 S
H517 C523 0.931 1_554 S
C518 H504 0.930 . S
C518 C516 1.395 1_556 S
C518 C521 1.403 . S
C519 C516 1.403 1_655 S
C519 C520 1.524 . S
C519 C523 1.401 1_554 S
C520 H505 0.960 . S
C520 H506 0.960 . S
C520 H507 0.960 . S
C520 C519 1.524 . S
C521 C518 1.403 . S
C521 C522 1.392 1_455 S
C521 C525 1.495 . S
C522 C521 1.392 1_655 S
C522 C523 1.384 . S
C522 C524 1.478 . S
C523 H517 0.931 1_556 S
C523 C519 1.401 1_556 S
C523 C522 1.384 . S
C524 C522 1.478 . S
C524 C526 1.381 . S
C524 C530 1.383 . S
C525 C521 1.495 . S
C525 H531 0.959 . S
C525 H532 0.961 . S
C525 H533 0.960 . S
C526 C524 1.381 . S
C526 C527 1.394 . S
C526 H534 0.930 . S
C527 C526 1.394 . S
C527 C528 1.383 . S
C527 H535 0.929 . S
C528 C527 1.383 . S
C528 C529 1.377 . S
C529 H513 0.930 . S
C529 C528 1.377 . S
C529 C530 1.379 . S
C530 H514 0.931 . S
C530 C524 1.383 . S
C530 C529 1.379 . S
H531 C525 0.959 . S
H532 C525 0.961 . S
H533 C525 0.960 . S
H534 C526 0.930 . S
H535 C527 0.929 . S
H536 C544 0.929 . S
H537 C546 0.930 . S
H538 C548 0.930 . S
H539 C551 0.929 . S
H540 C554 0.930 . S
H541 C556 0.960 . S
H542 C556 0.960 . S
H543 C556 0.960 1_554 S
C544 H536 0.929 . S
C544 C545 1.377 . S
C544 C546 1.384 . S
C545 C544 1.377 . S
C545 C551 1.390 . S
C546 H537 0.930 . S
C546 C544 1.384 . S
C546 C547 1.372 . S
C547 C546 1.372 . S
C547 C548 1.400 . S
C547 C552 1.490 . S
C548 H538 0.930 . S
C548 C547 1.400 . S
C548 C551 1.386 . S
H549 C565 0.930 . S
H550 C566 0.931 . S
C551 H539 0.929 . S
C551 C545 1.390 . S
C551 C548 1.386 . S
C552 C547 1.490 . S
C552 C554 1.395 . S
C552 C555 1.403 1_554 S
H553 C559 0.930 . S
C554 H540 0.930 . S
C554 C552 1.395 . S
C554 C557 1.403 . S
C555 C552 1.403 1_556 S
C555 C556 1.524 . S
C555 C559 1.400 . S
C556 H541 0.960 . S
C556 H542 0.960 . S
C556 H543 0.960 1_556 S
C556 C555 1.524 . S
C557 C554 1.403 . S
C557 C558 1.392 1_554 S
C557 C561 1.495 . S
C558 C557 1.392 1_556 S
C558 C559 1.385 . S
C558 C560 1.478 . S
C559 H553 0.930 . S
C559 C555 1.400 . S
C559 C558 1.385 . S
C560 C558 1.478 . S
C560 C562 1.381 . S
C560 C566 1.383 . S
C561 C557 1.495 . S
C561 H567 0.959 . S
C561 H568 0.961 . S
C561 H569 0.960 1_554 S
C562 C560 1.381 . S
C562 C563 1.394 . S
C562 H570 0.930 . S
C563 C562 1.394 . S
C563 C564 1.383 . S
C563 H571 0.929 . S
C564 C563 1.383 . S
C564 C565 1.377 . S
C565 H549 0.930 . S
C565 C564 1.377 . S
C565 C566 1.379 . S
C566 H550 0.931 . S
C566 C560 1.383 . S
C566 C565 1.379 . S
H567 C561 0.959 . S
H568 C561 0.961 . S
H569 C561 0.960 1_556 S
H570 C562 0.930 . S
H571 C563 0.929 . S
H572 C580 0.929 . S
H573 C582 0.930 . S
H574 C584 0.930 . S
H575 C587 0.929 . S
H576 C590 0.930 . S
H577 C592 0.960 . S
H578 C592 0.960 . S
H579 C592 0.960 . S
C580 H572 0.929 . S
C580 C581 1.377 . S
C580 C582 1.384 . S
C581 C580 1.377 . S
C581 C587 1.390 . S
C582 H573 0.930 . S
C582 C580 1.384 . S
C582 C583 1.372 . S
C583 C582 1.372 . S
C583 C584 1.400 . S
C583 C588 1.490 . S
C584 H574 0.930 . S
C584 C583 1.400 . S
C584 C587 1.386 . S
H585 C601 0.930 . S
H586 C602 0.931 . S
C587 H575 0.929 . S
C587 C581 1.390 . S
C587 C584 1.386 . S
C588 C583 1.490 . S
C588 C590 1.395 1_554 S
C588 C591 1.403 . S
H589 C595 0.930 . S
C590 H576 0.930 . S
C590 C588 1.395 1_556 S
C590 C593 1.403 . S
C591 C588 1.403 . S
C591 C592 1.524 . S
C591 C595 1.400 1_554 S
C592 H577 0.960 . S
C592 H578 0.960 . S
C592 H579 0.960 . S
C592 C591 1.524 . S
C593 C590 1.403 . S
C593 C594 1.392 . S
C593 C597 1.495 . S
C594 C593 1.392 . S
C594 C595 1.385 . S
C594 C596 1.478 . S
C595 H589 0.930 . S
C595 C591 1.400 1_556 S
C595 C594 1.385 . S
C596 C594 1.478 . S
C596 C598 1.381 . S
C596 C602 1.383 . S
C597 C593 1.495 . S
C597 H603 0.959 . S
C597 H604 0.961 . S
C597 H605 0.960 . S
C598 C596 1.381 . S
C598 C599 1.394 . S
C598 H606 0.930 . S
C599 C598 1.394 . S
C599 C600 1.383 . S
C599 H607 0.929 . S
C600 C599 1.383 . S
C600 C601 1.377 . S
C601 H585 0.930 . S
C601 C600 1.377 . S
C601 C602 1.379 . S
C602 H586 0.931 . S
C602 C596 1.383 . S
C602 C601 1.379 . S
H603 C597 0.959 . S
H604 C597 0.961 . S
H605 C597 0.960 . S
H606 C598 0.930 . S
H607 C599 0.929 . S
H608 C616 0.929 . S
H609 C618 0.930 . S
H610 C620 0.930 . S
H611 C623 0.929 . S
H612 C626 0.930 . S
H613 C628 0.960 . S
H614 C628 0.960 . S
H615 C628 0.960 . S
C616 H608 0.929 . S
C616 C617 1.377 . S
C616 C618 1.384 . S
C617 C616 1.377 . S
C617 C623 1.390 . S
C618 H609 0.930 . S
C618 C616 1.384 . S
C618 C619 1.372 . S
C619 C618 1.372 . S
C619 C620 1.400 . S
C619 C624 1.490 . S
C620 H610 0.930 . S
C620 C619 1.400 . S
C620 C623 1.386 . S
H621 C637 0.930 . S
H622 C638 0.931 . S
C623 H611 0.929 . S
C623 C617 1.390 . S
C623 C620 1.386 . S
C624 C619 1.490 . S
C624 C626 1.395 . S
C624 C627 1.403 . S
H625 C631 0.930 . S
C626 H612 0.930 . S
C626 C624 1.395 . S
C626 C629 1.403 . S
C627 C624 1.403 . S
C627 C628 1.524 . S
C627 C631 1.400 . S
C628 H613 0.960 . S
C628 H614 0.960 . S
C628 H615 0.960 . S
C628 C627 1.524 . S
C629 C626 1.403 . S
C629 C630 1.392 . S
C629 C633 1.495 . S
C630 C629 1.392 . S
C630 C631 1.385 . S
C630 C632 1.478 . S
C631 H625 0.930 . S
C631 C627 1.400 . S
C631 C630 1.385 . S
C632 C630 1.478 . S
C632 C634 1.381 . S
C632 C638 1.383 . S
C633 C629 1.495 . S
C633 H639 0.959 . S
C633 H640 0.961 . S
C633 H641 0.960 . S
C634 C632 1.381 . S
C634 C635 1.394 . S
C634 H642 0.930 . S
C635 C634 1.394 . S
C635 C636 1.383 . S
C635 H643 0.929 . S
C636 C635 1.383 . S
C636 C637 1.377 . S
C637 H621 0.930 . S
C637 C636 1.377 . S
C637 C638 1.379 . S
C638 H622 0.931 . S
C638 C632 1.383 . S
C638 C637 1.379 . S
H639 C633 0.959 . S
H640 C633 0.961 . S
H641 C633 0.960 . S
H642 C634 0.930 . S
H643 C635 0.929 . S
H644 C652 0.929 . S
H645 C654 0.930 . S
H646 C656 0.930 . S
H647 C659 0.929 . S
H648 C662 0.930 . S
H649 C664 0.960 . S
H650 C664 0.960 . S
H651 C664 0.960 . S
C652 H644 0.929 . S
C652 C653 1.377 . S
C652 C654 1.384 . S
C653 C652 1.377 . S
C653 C659 1.390 . S
C654 H645 0.930 . S
C654 C652 1.384 . S
C654 C655 1.372 . S
C655 C654 1.372 . S
C655 C656 1.400 . S
C655 C660 1.490 . S
C656 H646 0.930 . S
C656 C655 1.400 . S
C656 C659 1.386 . S
H657 C673 0.930 . S
H658 C674 0.931 . S
C659 H647 0.929 . S
C659 C653 1.390 . S
C659 C656 1.386 . S
C660 C655 1.490 . S
C660 C662 1.395 . S
C660 C663 1.403 . S
H661 C667 0.930 . S
C662 H648 0.930 . S
C662 C660 1.395 . S
C662 C665 1.403 . S
C663 C660 1.403 . S
C663 C664 1.524 . S
C663 C667 1.400 . S
C664 H649 0.960 . S
C664 H650 0.960 . S
C664 H651 0.960 . S
C664 C663 1.524 . S
C665 C662 1.403 . S
C665 C666 1.392 . S
C665 C669 1.495 . S
C666 C665 1.392 . S
C666 C667 1.385 . S
C666 C668 1.478 . S
C667 H661 0.930 . S
C667 C663 1.400 . S
C667 C666 1.385 . S
C668 C666 1.478 . S
C668 C670 1.381 . S
C668 C674 1.383 . S
C669 C665 1.495 . S
C669 H675 0.959 . S
C669 H676 0.961 . S
C669 H677 0.960 . S
C670 C668 1.381 . S
C670 C671 1.394 . S
C670 H678 0.930 . S
C671 C670 1.394 . S
C671 C672 1.383 . S
C671 H679 0.929 . S
C672 C671 1.383 . S
C672 C673 1.377 . S
C673 H657 0.930 . S
C673 C672 1.377 . S
C673 C674 1.379 . S
C674 H658 0.931 . S
C674 C668 1.383 . S
C674 C673 1.379 . S
H675 C669 0.959 . S
H676 C669 0.961 . S
H677 C669 0.960 . S
H678 C670 0.930 . S
H679 C671 0.929 . S
H680 C688 0.929 . S
H681 C690 0.930 . S
H682 C692 0.930 . S
H683 C695 0.929 . S
H684 C698 0.930 . S
H685 C700 0.960 . S
H686 C700 0.960 . S
H687 C700 0.960 . S
C688 H680 0.929 . S
C688 C689 1.377 . S
C688 C690 1.384 . S
C689 C688 1.377 . S
C689 C695 1.390 . S
C690 H681 0.930 . S
C690 C688 1.384 . S
C690 C691 1.372 . S
C691 C690 1.372 . S
C691 C692 1.400 . S
C691 C696 1.490 . S
C692 H682 0.930 . S
C692 C691 1.400 . S
C692 C695 1.386 . S
H693 C709 0.930 . S
H694 C710 0.931 . S
C695 H683 0.929 . S
C695 C689 1.390 . S
C695 C692 1.386 . S
C696 C691 1.490 . S
C696 C698 1.395 . S
C696 C699 1.403 . S
H697 C703 0.930 . S
C698 H684 0.930 . S
C698 C696 1.395 . S
C698 C701 1.403 1_565 S
C699 C696 1.403 . S
C699 C700 1.524 . S
C699 C703 1.400 1_565 S
C700 H685 0.960 . S
C700 H686 0.960 . S
C700 H687 0.960 . S
C700 C699 1.524 . S
C701 C698 1.403 1_545 S
C701 C702 1.392 . S
C701 C705 1.495 . S
C702 C701 1.392 . S
C702 C703 1.385 . S
C702 C704 1.478 . S
C703 H697 0.930 . S
C703 C699 1.400 1_545 S
C703 C702 1.385 . S
C704 C702 1.478 . S
C704 C706 1.381 . S
C704 C710 1.383 . S
C705 C701 1.495 . S
C705 H711 0.959 . S
C705 H712 0.961 . S
C705 H713 0.960 . S
C706 C704 1.381 . S
C706 C707 1.394 . S
C706 H714 0.930 . S
C707 C706 1.394 . S
C707 C708 1.383 . S
C707 H715 0.929 . S
C708 C707 1.383 . S
C708 C709 1.377 . S
C709 H693 0.930 . S
C709 C708 1.377 . S
C709 C710 1.379 . S
C710 H694 0.931 . S
C710 C704 1.383 . S
C710 C709 1.379 . S
H711 C705 0.959 . S
H712 C705 0.961 . S
H713 C705 0.960 . S
H714 C706 0.930 . S
H715 C707 0.929 . S
H716 C724 0.929 . S
H717 C726 0.930 . S
H718 C728 0.930 . S
H719 C731 0.929 . S
H720 C734 0.930 . S
H721 C736 0.960 . S
H722 C736 0.960 . S
H723 C736 0.960 . S
C724 H716 0.929 . S
C724 C725 1.377 . S
C724 C726 1.384 . S
C725 C724 1.377 . S
C725 C731 1.390 . S
C726 H717 0.930 . S
C726 C724 1.384 . S
C726 C727 1.372 . S
C727 C726 1.372 . S
C727 C728 1.400 . S
C727 C732 1.490 . S
C728 H718 0.930 . S
C728 C727 1.400 . S
C728 C731 1.386 . S
H729 C745 0.930 . S
H730 C746 0.931 . S
C731 H719 0.929 . S
C731 C725 1.390 . S
C731 C728 1.386 . S
C732 C727 1.490 . S
C732 C734 1.395 . S
C732 C735 1.403 . S
H733 C739 0.930 . S
C734 H720 0.930 . S
C734 C732 1.395 . S
C734 C737 1.403 1_565 S
C735 C732 1.403 . S
C735 C736 1.524 . S
C735 C739 1.400 1_565 S
C736 H721 0.960 . S
C736 H722 0.960 . S
C736 H723 0.960 . S
C736 C735 1.524 . S
C737 C734 1.403 1_545 S
C737 C738 1.392 . S
C737 C741 1.495 . S
C738 C737 1.392 . S
C738 C739 1.385 . S
C738 C740 1.478 . S
C739 H733 0.930 . S
C739 C735 1.400 1_545 S
C739 C738 1.385 . S
C740 C738 1.478 . S
C740 C742 1.381 . S
C740 C746 1.383 . S
C741 C737 1.495 . S
C741 H747 0.959 . S
C741 H748 0.961 . S
C741 H749 0.960 . S
C742 C740 1.381 . S
C742 C743 1.394 . S
C742 H750 0.930 . S
C743 C742 1.394 . S
C743 C744 1.383 . S
C743 H751 0.929 . S
C744 C743 1.383 . S
C744 C745 1.377 . S
C745 H729 0.930 . S
C745 C744 1.377 . S
C745 C746 1.379 . S
C746 H730 0.931 . S
C746 C740 1.383 . S
C746 C745 1.379 . S
H747 C741 0.959 . S
H748 C741 0.961 . S
H749 C741 0.960 . S
H750 C742 0.930 . S
H751 C743 0.929 . S
H752 C760 0.929 . S
H753 C762 0.930 . S
H754 C764 0.930 . S
H755 C767 0.929 . S
H756 C770 0.930 . S
H757 C772 0.960 . S
H758 C772 0.960 . S
H759 C772 0.960 . S
C760 H752 0.929 . S
C760 C761 1.377 . S
C760 C762 1.384 . S
C761 C760 1.377 . S
C761 C767 1.390 . S
C762 H753 0.930 . S
C762 C760 1.384 . S
C762 C763 1.372 . S
C763 C762 1.372 . S
C763 C764 1.400 . S
C763 C768 1.490 . S
C764 H754 0.930 . S
C764 C763 1.400 . S
C764 C767 1.386 . S
H765 C781 0.930 . S
H766 C782 0.931 . S
C767 H755 0.929 . S
C767 C761 1.390 . S
C767 C764 1.386 . S
C768 C763 1.490 . S
C768 C770 1.395 . S
C768 C771 1.403 . S
H769 C775 0.930 . S
C770 H756 0.930 . S
C770 C768 1.395 . S
C770 C773 1.403 . S
C771 C768 1.403 . S
C771 C772 1.524 . S
C771 C775 1.400 . S
C772 H757 0.960 . S
C772 H758 0.960 . S
C772 H759 0.960 . S
C772 C771 1.524 . S
C773 C770 1.403 . S
C773 C774 1.392 . S
C773 C777 1.495 . S
C774 C773 1.392 . S
C774 C775 1.385 . S
C774 C776 1.478 . S
C775 H769 0.930 . S
C775 C771 1.400 . S
C775 C774 1.385 . S
C776 C774 1.478 . S
C776 C778 1.381 . S
C776 C782 1.383 . S
C777 C773 1.495 . S
C777 H783 0.959 . S
C777 H784 0.961 . S
C777 H785 0.960 . S
C778 C776 1.381 . S
C778 C779 1.394 . S
C778 H786 0.930 . S
C779 C778 1.394 . S
C779 C780 1.383 . S
C779 H787 0.929 . S
C780 C779 1.383 . S
C780 C781 1.377 . S
C781 H765 0.930 . S
C781 C780 1.377 . S
C781 C782 1.379 . S
C782 H766 0.931 . S
C782 C776 1.383 . S
C782 C781 1.379 . S
H783 C777 0.959 . S
H784 C777 0.961 . S
H785 C777 0.960 . S
H786 C778 0.930 . S
H787 C779 0.929 . S
H788 C796 0.929 . S
H789 C798 0.930 . S
H790 C800 0.930 . S
H791 C803 0.929 . S
H792 C806 0.930 . S
H793 C808 0.960 . S
H794 C808 0.960 . S
H795 C808 0.960 . S
C796 H788 0.929 . S
C796 C797 1.377 . S
C796 C798 1.384 . S
C797 C796 1.377 . S
C797 C803 1.390 . S
C798 H789 0.930 . S
C798 C796 1.384 . S
C798 C799 1.372 . S
C799 C798 1.372 . S
C799 C800 1.400 . S
C799 C804 1.490 . S
C800 H790 0.930 . S
C800 C799 1.400 . S
C800 C803 1.386 . S
H801 C817 0.930 . S
H802 C818 0.931 . S
C803 H791 0.929 . S
C803 C797 1.390 . S
C803 C800 1.386 . S
C804 C799 1.490 . S
C804 C806 1.395 . S
C804 C807 1.403 . S
H805 C811 0.930 . S
C806 H792 0.930 . S
C806 C804 1.395 . S
C806 C809 1.403 . S
C807 C804 1.403 . S
C807 C808 1.524 . S
C807 C811 1.400 . S
C808 H793 0.960 . S
C808 H794 0.960 . S
C808 H795 0.960 . S
C808 C807 1.524 . S
C809 C806 1.403 . S
C809 C810 1.392 . S
C809 C813 1.495 . S
C810 C809 1.392 . S
C810 C811 1.385 . S
C810 C812 1.478 . S
C811 H805 0.930 . S
C811 C807 1.400 . S
C811 C810 1.385 . S
C812 C810 1.478 . S
C812 C814 1.381 . S
C812 C818 1.383 . S
C813 C809 1.495 . S
C813 H819 0.959 . S
C813 H820 0.961 . S
C813 H821 0.960 . S
C814 C812 1.381 . S
C814 C815 1.394 . S
C814 H822 0.930 . S
C815 C814 1.394 . S
C815 C816 1.383 . S
C815 H823 0.929 . S
C816 C815 1.383 . S
C816 C817 1.377 . S
C817 H801 0.930 . S
C817 C816 1.377 . S
C817 C818 1.379 . S
C818 H802 0.931 . S
C818 C812 1.383 . S
C818 C817 1.379 . S
H819 C813 0.959 . S
H820 C813 0.961 . S
H821 C813 0.960 . S
H822 C814 0.930 . S
H823 C815 0.929 . S
H824 C832 0.929 . S
H825 C834 0.930 . S
H826 C836 0.930 . S
H827 C839 0.929 . S
H828 C842 0.930 . S
H829 C844 0.960 . S
H830 C844 0.960 . S
H831 C844 0.960 . S
C832 H824 0.929 . S
C832 C833 1.377 . S
C832 C834 1.384 . S
C833 C832 1.377 . S
C833 C839 1.390 . S
C834 H825 0.930 . S
C834 C832 1.384 . S
C834 C835 1.372 . S
C835 C834 1.372 . S
C835 C836 1.400 . S
C835 C840 1.490 . S
C836 H826 0.930 . S
C836 C835 1.400 . S
C836 C839 1.386 . S
H837 C853 0.930 . S
H838 C854 0.931 . S
C839 H827 0.929 . S
C839 C833 1.390 . S
C839 C836 1.386 . S
C840 C835 1.490 . S
C840 C842 1.395 . S
C840 C843 1.403 . S
H841 C847 0.930 . S
C842 H828 0.930 . S
C842 C840 1.395 . S
C842 C845 1.403 . S
C843 C840 1.403 . S
C843 C844 1.524 . S
C843 C847 1.400 . S
C844 H829 0.960 . S
C844 H830 0.960 . S
C844 H831 0.960 . S
C844 C843 1.524 . S
C845 C842 1.403 . S
C845 C846 1.392 . S
C845 C849 1.495 . S
C846 C845 1.392 . S
C846 C847 1.385 . S
C846 C848 1.478 . S
C847 H841 0.930 . S
C847 C843 1.400 . S
C847 C846 1.385 . S
C848 C846 1.478 . S
C848 C850 1.381 . S
C848 C854 1.383 . S
C849 C845 1.495 . S
C849 H855 0.959 . S
C849 H856 0.961 . S
C849 H857 0.960 . S
C850 C848 1.381 . S
C850 C851 1.394 . S
C850 H858 0.930 . S
C851 C850 1.394 . S
C851 C852 1.383 . S
C851 H859 0.929 . S
C852 C851 1.383 . S
C852 C853 1.377 . S
C853 H837 0.930 . S
C853 C852 1.377 . S
C853 C854 1.379 . S
C854 H838 0.931 . S
C854 C848 1.383 . S
C854 C853 1.379 . S
H855 C849 0.959 . S
H856 C849 0.961 . S
H857 C849 0.960 . S
H858 C850 0.930 . S
H859 C851 0.929 . S
H860 C868 0.929 . S
H861 C870 0.930 . S
H862 C872 0.930 . S
H863 C875 0.929 . S
H864 C878 0.930 . S
H865 C880 0.960 . S
H866 C880 0.960 . S
H867 C880 0.960 . S
C868 H860 0.929 . S
C868 C869 1.377 . S
C868 C870 1.384 . S
C869 C868 1.377 . S
C869 C875 1.390 . S
C870 H861 0.930 . S
C870 C868 1.384 . S
C870 C871 1.372 . S
C871 C870 1.372 . S
C871 C872 1.400 . S
C871 C876 1.490 . S
C872 H862 0.930 . S
C872 C871 1.400 . S
C872 C875 1.386 . S
H873 C889 0.930 . S
H874 C890 0.931 . S
C875 H863 0.929 . S
C875 C869 1.390 . S
C875 C872 1.386 . S
C876 C871 1.490 . S
C876 C878 1.395 . S
C876 C879 1.403 . S
H877 C883 0.930 . S
C878 H864 0.930 . S
C878 C876 1.395 . S
C878 C881 1.403 . S
C879 C876 1.403 . S
C879 C880 1.524 . S
C879 C883 1.400 . S
C880 H865 0.960 . S
C880 H866 0.960 . S
C880 H867 0.960 . S
C880 C879 1.524 . S
C881 C878 1.403 . S
C881 C882 1.392 . S
C881 C885 1.495 . S
C882 C881 1.392 . S
C882 C883 1.385 . S
C882 C884 1.478 . S
C883 H877 0.930 . S
C883 C879 1.400 . S
C883 C882 1.385 . S
C884 C882 1.478 . S
C884 C886 1.381 . S
C884 C890 1.383 . S
C885 C881 1.495 . S
C885 H891 0.959 . S
C885 H892 0.961 . S
C885 H893 0.960 . S
C886 C884 1.381 . S
C886 C887 1.394 . S
C886 H894 0.930 . S
C887 C886 1.394 . S
C887 C888 1.383 . S
C887 H895 0.929 . S
C888 C887 1.383 . S
C888 C889 1.377 . S
C889 H873 0.930 . S
C889 C888 1.377 . S
C889 C890 1.379 . S
C890 H874 0.931 . S
C890 C884 1.383 . S
C890 C889 1.379 . S
H891 C885 0.959 . S
H892 C885 0.961 . S
H893 C885 0.960 . S
H894 C886 0.930 . S
H895 C887 0.929 . S
H896 C904 0.929 . S
H897 C906 0.930 . S
H898 C908 0.930 . S
H899 C911 0.929 . S
H900 C914 0.930 . S
H901 C916 0.960 . S
H902 C916 0.960 . S
H903 C916 0.960 . S
C904 H896 0.929 . S
C904 C905 1.377 . S
C904 C906 1.384 . S
C905 C904 1.377 . S
C905 C911 1.390 . S
C906 H897 0.930 . S
C906 C904 1.384 . S
C906 C907 1.372 . S
C907 C906 1.372 . S
C907 C908 1.400 . S
C907 C912 1.490 . S
C908 H898 0.930 . S
C908 C907 1.400 . S
C908 C911 1.386 . S
H909 C925 0.930 . S
H910 C926 0.931 . S
C911 H899 0.929 . S
C911 C905 1.390 . S
C911 C908 1.386 . S
C912 C907 1.490 . S
C912 C914 1.395 . S
C912 C915 1.403 . S
H913 C919 0.930 . S
C914 H900 0.930 . S
C914 C912 1.395 . S
C914 C917 1.403 1_554 S
C915 C912 1.403 . S
C915 C916 1.524 . S
C915 C919 1.400 1_554 S
C916 H901 0.960 . S
C916 H902 0.960 . S
C916 H903 0.960 . S
C916 C915 1.524 . S
C917 C914 1.403 1_556 S
C917 C918 1.392 . S
C917 C921 1.495 . S
C918 C917 1.392 . S
C918 C919 1.385 . S
C918 C920 1.478 . S
C919 H913 0.930 . S
C919 C915 1.400 1_556 S
C919 C918 1.385 . S
C920 C918 1.478 . S
C920 C922 1.381 . S
C920 C926 1.383 . S
C921 C917 1.495 . S
C921 H927 0.959 . S
C921 H928 0.961 . S
C921 H929 0.960 . S
C922 C920 1.381 . S
C922 C923 1.394 . S
C922 H930 0.930 . S
C923 C922 1.394 . S
C923 C924 1.383 . S
C923 H931 0.929 . S
C924 C923 1.383 . S
C924 C925 1.377 . S
C925 H909 0.930 . S
C925 C924 1.377 . S
C925 C926 1.379 . S
C926 H910 0.931 . S
C926 C920 1.383 . S
C926 C925 1.379 . S
H927 C921 0.959 . S
H928 C921 0.961 . S
H929 C921 0.960 . S
H930 C922 0.930 . S
H931 C923 0.929 . S
H932 C940 0.929 . S
H933 C942 0.930 . S
H934 C944 0.930 . S
H935 C947 0.929 . S
H936 C950 0.930 . S
H937 C952 0.960 . S
H938 C952 0.960 . S
H939 C952 0.960 . S
C940 H932 0.929 . S
C940 C941 1.377 . S
C940 C942 1.384 . S
C941 C940 1.377 . S
C941 C947 1.390 . S
C942 H933 0.930 . S
C942 C940 1.384 . S
C942 C943 1.372 . S
C943 C942 1.372 . S
C943 C944 1.400 . S
C943 C948 1.490 . S
C944 H934 0.930 . S
C944 C943 1.400 . S
C944 C947 1.386 . S
H945 C961 0.930 . S
H946 C962 0.931 . S
C947 H935 0.929 . S
C947 C941 1.390 . S
C947 C944 1.386 . S
C948 C943 1.490 . S
C948 C950 1.395 . S
C948 C951 1.403 . S
H949 C955 0.930 . S
C950 H936 0.930 . S
C950 C948 1.395 . S
C950 C953 1.403 1_554 S
C951 C948 1.403 . S
C951 C952 1.524 . S
C951 C955 1.400 1_554 S
C952 H937 0.960 . S
C952 H938 0.960 . S
C952 H939 0.960 . S
C952 C951 1.524 . S
C953 C950 1.403 1_556 S
C953 C954 1.392 . S
C953 C957 1.495 . S
C954 C953 1.392 . S
C954 C955 1.385 . S
C954 C956 1.478 . S
C955 H949 0.930 . S
C955 C951 1.400 1_556 S
C955 C954 1.385 . S
C956 C954 1.478 . S
C956 C958 1.381 . S
C956 C962 1.383 . S
C957 C953 1.495 . S
C957 H963 0.959 . S
C957 H964 0.961 . S
C957 H965 0.960 . S
C958 C956 1.381 . S
C958 C959 1.394 . S
C958 H966 0.930 . S
C959 C958 1.394 . S
C959 C960 1.383 . S
C959 H967 0.929 . S
C960 C959 1.383 . S
C960 C961 1.377 . S
C961 H945 0.930 . S
C961 C960 1.377 . S
C961 C962 1.379 . S
C962 H946 0.931 . S
C962 C956 1.383 . S
C962 C961 1.379 . S
H963 C957 0.959 . S
H964 C957 0.961 . S
H965 C957 0.960 . S
H966 C958 0.930 . S
H967 C959 0.929 . S
H968 C976 0.929 . S
H969 C978 0.930 . S
H970 C980 0.930 . S
H971 C983 0.929 . S
H972 C986 0.930 . S
H973 C988 0.960 . S
H974 C988 0.960 . S
H975 C988 0.960 . S
C976 H968 0.929 . S
C976 C977 1.377 . S
C976 C978 1.384 . S
C977 C976 1.377 . S
C977 C983 1.390 . S
C978 H969 0.930 . S
C978 C976 1.384 . S
C978 C979 1.372 . S
C979 C978 1.372 . S
C979 C980 1.400 . S
C979 C984 1.490 . S
C980 H970 0.930 . S
C980 C979 1.400 . S
C980 C983 1.386 . S
H981 C997 0.930 . S
H982 C998 0.931 . S
C983 H971 0.929 . S
C983 C977 1.390 . S
C983 C980 1.386 . S
C984 C979 1.490 . S
C984 C986 1.395 . S
C984 C987 1.403 . S
H985 C991 0.930 . S
C986 H972 0.930 . S
C986 C984 1.395 . S
C986 C989 1.403 1_556 S
C987 C984 1.403 . S
C987 C988 1.524 . S
C987 C991 1.400 1_556 S
C988 H973 0.960 . S
C988 H974 0.960 . S
C988 H975 0.960 . S
C988 C987 1.524 . S
C989 C986 1.403 1_554 S
C989 C990 1.392 . S
C989 C993 1.495 . S
C990 C989 1.392 . S
C990 C991 1.385 . S
C990 C992 1.478 . S
C991 H985 0.930 . S
C991 C987 1.400 1_554 S
C991 C990 1.385 . S
C992 C990 1.478 . S
C992 C994 1.381 . S
C992 C998 1.383 . S
C993 C989 1.495 . S
C993 H999 0.959 . S
C993 H1000 0.961 . S
C993 H1001 0.960 . S
C994 C992 1.381 . S
C994 C995 1.394 . S
C994 H1002 0.930 . S
C995 C994 1.394 . S
C995 C996 1.383 . S
C995 H1003 0.929 . S
C996 C995 1.383 . S
C996 C997 1.377 . S
C997 H981 0.930 . S
C997 C996 1.377 . S
C997 C998 1.379 . S
C998 H982 0.931 . S
C998 C992 1.383 . S
C998 C997 1.379 . S
H999 C993 0.959 . S
H1000 C993 0.961 . S
H1001 C993 0.960 . S
H1002 C994 0.930 . S
H1003 C995 0.929 . S
H1004 C1012 0.929 . S
H1005 C1014 0.930 . S
H1006 C1016 0.930 . S
H1007 C1019 0.929 . S
H1008 C1022 0.930 . S
H1009 C1024 0.960 1_556 S
H1010 C1024 0.960 . S
H1011 C1024 0.960 . S
C1012 H1004 0.929 . S
C1012 C1013 1.377 . S
C1012 C1014 1.384 . S
C1013 C1012 1.377 . S
C1013 C1019 1.390 . S
C1014 H1005 0.930 . S
C1014 C1012 1.384 . S
C1014 C1015 1.372 . S
C1015 C1014 1.372 . S
C1015 C1016 1.400 . S
C1015 C1020 1.490 . S
C1016 H1006 0.930 . S
C1016 C1015 1.400 . S
C1016 C1019 1.386 . S
H1017 C1033 0.930 . S
H1018 C1034 0.931 . S
C1019 H1007 0.929 . S
C1019 C1013 1.390 . S
C1019 C1016 1.386 . S
C1020 C1015 1.490 . S
C1020 C1022 1.395 . S
C1020 C1023 1.403 . S
H1021 C1027 0.930 . S
C1022 H1008 0.930 . S
C1022 C1020 1.395 . S
C1022 C1025 1.403 1_554 S
C1023 C1020 1.403 . S
C1023 C1024 1.524 . S
C1023 C1027 1.400 1_554 S
C1024 H1009 0.960 1_554 S
C1024 H1010 0.960 . S
C1024 H1011 0.960 . S
C1024 C1023 1.524 . S
C1025 C1022 1.403 1_556 S
C1025 C1026 1.392 . S
C1025 C1029 1.495 . S
C1026 C1025 1.392 . S
C1026 C1027 1.385 . S
C1026 C1028 1.478 . S
C1027 H1021 0.930 . S
C1027 C1023 1.400 1_556 S
C1027 C1026 1.385 . S
C1028 C1026 1.478 . S
C1028 C1030 1.381 . S
C1028 C1034 1.383 . S
C1029 C1025 1.495 . S
C1029 H1035 0.959 1_556 S
C1029 H1036 0.961 . S
C1029 H1037 0.960 . S
C1030 C1028 1.381 . S
C1030 C1031 1.394 . S
C1030 H1038 0.930 . S
C1031 C1030 1.394 . S
C1031 C1032 1.383 . S
C1031 H1039 0.929 . S
C1032 C1031 1.383 . S
C1032 C1033 1.377 . S
C1033 H1017 0.930 . S
C1033 C1032 1.377 . S
C1033 C1034 1.379 . S
C1034 H1018 0.931 . S
C1034 C1028 1.383 . S
C1034 C1033 1.379 . S
H1035 C1029 0.959 1_554 S
H1036 C1029 0.961 . S
H1037 C1029 0.960 . S
H1038 C1030 0.930 . S
H1039 C1031 0.929 . S
C185 C160 1.173 . S
C204 C5 1.172 . S
C221 C31 1.144 . S
C240 C139 1.170 . S
C257 C115 1.175 . S
C276 C50 1.097 . S
C293 C73 1.138 . S
C312 C97 1.186 . S
C329 C72 1.176 . S
C348 C93 1.135 . S
C365 C51 1.176 . S
C384 C119 1.170 . S
C401 C27 1.180 . S
C420 C138 1.165 . S
C437 C9 1.183 . S
C456 C161 1.177 . S
C473 C26 1.846 . S
C492 C8 1.839 . S
C509 C70 1.846 . S
C528 C52 1.844 . S
C545 C96 1.846 . S
C564 C114 1.840 . S
C581 C158 1.846 . S
C600 C140 1.847 . S
C617 C74 1.413 . S
C636 C4 1.419 . S
C653 C48 1.403 . S
C672 C30 1.400 . S
C689 C92 1.403 . S
C708 C162 1.435 . S
C725 C118 1.408 . S
C744 C136 1.380 . S
C761 C137 1.792 . S
C780 C6 1.810 . S
C797 C29 1.793 . S
C816 C163 1.812 . S
C833 C94 1.797 . S
C852 C49 1.813 . S
C869 C117 1.798 . S
C888 C75 1.788 . S
C905 C7 0.566 . S
C924 C141 0.635 . S
C941 C159 0.544 . S
C960 C28 0.550 . S
C977 C53 0.546 . S
C996 C95 0.571 . S
C1013 C71 0.573 . S
C1032 C116 0.622 . S
