# Generated by pormake.
# Topology fnz, (5)-cn, num edge types: 1
# Building blocks:
#     Node 0, Type 0, BuildingBlock: XOMCOT_clean_sbu_1, # of connection points: 5
#     Node 1, Type 0, BuildingBlock: XOMCOT_clean_sbu_1, # of connection points: 5
#     Node 2, Type 0, BuildingBlock: XOMCOT_clean_sbu_1, # of connection points: 5
#     Node 3, Type 0, BuildingBlock: XOMCOT_clean_sbu_1, # of connection points: 5
#     Node 4, Type 0, BuildingBlock: XOMCOT_clean_sbu_1, # of connection points: 5
#     Node 5, Type 0, BuildingBlock: XOMCOT_clean_sbu_1, # of connection points: 5
#     Node 6, Type 0, BuildingBlock: XOMCOT_clean_sbu_1, # of connection points: 5
#     Node 7, Type 0, BuildingBlock: XOMCOT_clean_sbu_1, # of connection points: 5
#     Node 8, Type 0, BuildingBlock: XOMCOT_clean_sbu_1, # of connection points: 5
#     Node 9, Type 0, BuildingBlock: XOMCOT_clean_sbu_1, # of connection points: 5
#     Node 10, Type 0, BuildingBlock: XOMCOT_clean_sbu_1, # of connection points: 5
#     Node 11, Type 0, BuildingBlock: XOMCOT_clean_sbu_1, # of connection points: 5
#     Edge 12, Type (0, 0), BuildingBlock: UVAHIK_clean_linker_0, # of connection points: 2
#     Edge 13, Type (0, 0), BuildingBlock: UVAHIK_clean_linker_0, # of connection points: 2
#     Edge 14, Type (0, 0), BuildingBlock: UVAHIK_clean_linker_0, # of connection points: 2
#     Edge 15, Type (0, 0), BuildingBlock: UVAHIK_clean_linker_0, # of connection points: 2
#     Edge 16, Type (0, 0), BuildingBlock: UVAHIK_clean_linker_0, # of connection points: 2
#     Edge 17, Type (0, 0), BuildingBlock: UVAHIK_clean_linker_0, # of connection points: 2
#     Edge 18, Type (0, 0), BuildingBlock: UVAHIK_clean_linker_0, # of connection points: 2
#     Edge 19, Type (0, 0), BuildingBlock: UVAHIK_clean_linker_0, # of connection points: 2
#     Edge 20, Type (0, 0), BuildingBlock: UVAHIK_clean_linker_0, # of connection points: 2
#     Edge 21, Type (0, 0), BuildingBlock: UVAHIK_clean_linker_0, # of connection points: 2
#     Edge 22, Type (0, 0), BuildingBlock: UVAHIK_clean_linker_0, # of connection points: 2
#     Edge 23, Type (0, 0), BuildingBlock: UVAHIK_clean_linker_0, # of connection points: 2
#     Edge 24, Type (0, 0), BuildingBlock: UVAHIK_clean_linker_0, # of connection points: 2
#     Edge 25, Type (0, 0), BuildingBlock: UVAHIK_clean_linker_0, # of connection points: 2
#     Edge 26, Type (0, 0), BuildingBlock: UVAHIK_clean_linker_0, # of connection points: 2
#     Edge 27, Type (0, 0), BuildingBlock: UVAHIK_clean_linker_0, # of connection points: 2
#     Edge 28, Type (0, 0), BuildingBlock: UVAHIK_clean_linker_0, # of connection points: 2
#     Edge 29, Type (0, 0), BuildingBlock: UVAHIK_clean_linker_0, # of connection points: 2
#     Edge 30, Type (0, 0), BuildingBlock: UVAHIK_clean_linker_0, # of connection points: 2
#     Edge 31, Type (0, 0), BuildingBlock: UVAHIK_clean_linker_0, # of connection points: 2
#     Edge 32, Type (0, 0), BuildingBlock: UVAHIK_clean_linker_0, # of connection points: 2
#     Edge 33, Type (0, 0), BuildingBlock: UVAHIK_clean_linker_0, # of connection points: 2
#     Edge 34, Type (0, 0), BuildingBlock: UVAHIK_clean_linker_0, # of connection points: 2
#     Edge 35, Type (0, 0), BuildingBlock: UVAHIK_clean_linker_0, # of connection points: 2
#     Edge 36, Type (0, 0), BuildingBlock: UVAHIK_clean_linker_0, # of connection points: 2
#     Edge 37, Type (0, 0), BuildingBlock: UVAHIK_clean_linker_0, # of connection points: 2
#     Edge 38, Type (0, 0), BuildingBlock: UVAHIK_clean_linker_0, # of connection points: 2
#     Edge 39, Type (0, 0), BuildingBlock: UVAHIK_clean_linker_0, # of connection points: 2
#     Edge 40, Type (0, 0), BuildingBlock: UVAHIK_clean_linker_0, # of connection points: 2
#     Edge 41, Type (0, 0), BuildingBlock: UVAHIK_clean_linker_0, # of connection points: 2
# Relax obj value: 0.376
# Max RMSD: 0.283
# Mean RMSD: 0.283
data_MOF--net-fnz--node1-XOMCOT_clean_sbu_1--edge1-UVAHIK_clean_linker_0
_symmetry_space_group_name_H-M    P1
_symmetry_Int_Tables_number       1
_symmetry_cell_setting            triclinic
loop_
_symmetry_equiv_pos_as_xyz
'x, y, z'
_cell_length_a     56.711878
_cell_length_b     56.585517
_cell_length_c     34.902472
_cell_angle_alpha  89.927841
_cell_angle_beta   89.970726
_cell_angle_gamma 120.04775
loop_
_atom_site_label
_atom_site_type_symbol
_atom_site_fract_x
_atom_site_fract_y
_atom_site_fract_z
_atom_type_partial_charge
C0 C 0.48763 0.15687 0.03762 0.0
C1 C 0.49773 0.13984 0.029 0.0
N2 N 0.47664 0.11407 0.02718 0.0
N3 N 0.46029 0.14189 0.04157 0.0
C4 C 0.45428 0.11601 0.0342 0.0
H5 H 0.49958 0.17871 0.04177 0.0
Co6 Co 0.43601 0.15433 0.05406 0.0
C7 C 0.47126 0.16925 0.12589 0.0
O8 O 0.48032 0.15223 0.12025 0.0
N9 N 0.41198 0.16671 0.06681 0.0
C10 C 0.38456 0.17542 0.10201 0.0
C11 C 0.39975 0.16274 0.10131 0.0
C12 C 0.40397 0.18205 0.04702 0.0
N13 N 0.38726 0.18765 0.06791 0.0
O14 O 0.45899 0.18771 0.02707 0.0
H15 H 0.4023 0.1519 0.12501 0.0
H16 H 0.41048 0.18926 0.01812 0.0
O17 O 0.45483 0.17045 0.10204 0.0
C18 C 0.45375 0.18332 0.99141 0.0
O19 O 0.43451 0.15908 0.98032 0.0
N20 N 0.41197 0.12048 0.07618 0.0
C21 C 0.37713 0.06491 0.08677 0.0
C22 C 0.39676 0.08017 0.11454 0.0
C23 C 0.41422 0.10822 0.10865 0.0
C24 C 0.39147 0.10622 0.05074 0.0
C25 C 0.37394 0.07835 0.05531 0.0
H26 H 0.43003 0.11941 0.12921 0.0
H27 H 0.39005 0.11627 0.02518 0.0
H28 H 0.43385 0.09873 0.03383 0.0
H29 H 0.51899 0.1459 0.02562 0.0
H30 H 0.37335 0.17654 0.12639 0.0
H31 H 0.39956 0.07027 0.13929 0.0
H32 H 0.35881 0.06715 0.03351 0.0
C33 C 0.33341 0.50755 0.983 0.0
C34 C 0.3614 0.52012 0.98377 0.0
N35 N 0.36838 0.50072 0.9805 0.0
N36 N 0.32267 0.48026 0.97954 0.0
C37 C 0.34466 0.47692 0.97789 0.0
H38 H 0.3216 0.51768 0.9855 0.0
Co39 Co 0.285 0.45404 0.97784 0.0
C40 C 0.29484 0.47574 0.05785 0.0
O41 O 0.31892 0.47767 0.05817 0.0
N42 N 0.24807 0.42869 0.97585 0.0
C43 C 0.20825 0.39248 0.96118 0.0
C44 C 0.23574 0.40652 0.95313 0.0
C45 C 0.22777 0.42805 0.99685 0.0
N46 N 0.20335 0.40614 0.98873 0.0
O47 O 0.27796 0.47947 0.95094 0.0
H48 H 0.24609 0.40084 0.93222 0.0
H49 H 0.23076 0.44308 0.01823 0.0
O50 O 0.27988 0.46678 0.02796 0.0
C51 C 0.28628 0.48167 0.91643 0.0
O52 O 0.29919 0.4688 0.90629 0.0
N53 N 0.29108 0.42716 0.99927 0.0
C54 C 0.30319 0.38621 1.01574 0.0
C55 C 0.29394 0.39681 0.04474 0.0
C56 C 0.28751 0.41711 0.03574 0.0
C57 C 0.2975 0.41517 0.97044 0.0
C58 C 0.3041 0.39508 0.97804 0.0
H59 H 0.27954 0.42432 0.05801 0.0
H60 H 0.29862 0.42222 0.94131 0.0
H61 H 0.34363 0.45745 0.97607 0.0
H62 H 0.37544 0.5418 0.98655 0.0
H63 H 0.19306 0.37383 0.94762 0.0
H64 H 0.29209 0.3898 0.07406 0.0
H65 H 0.31002 0.38666 0.95453 0.0
C66 C 0.84535 0.34068 0.0307 0.0
C67 C 0.8629 0.36791 0.02299 0.0
N68 N 0.88835 0.37191 0.02052 0.0
N69 N 0.85974 0.32767 0.03397 0.0
C70 C 0.88576 0.34717 0.02663 0.0
H71 H 0.8235 0.33104 0.03412 0.0
Co72 Co 0.84683 0.29045 0.04399 0.0
C73 C 0.82477 0.30534 0.11559 0.0
O74 O 0.83689 0.33195 0.11138 0.0
N75 N 0.83399 0.2534 0.0544 0.0
C76 C 0.82536 0.21637 0.0876 0.0
C77 C 0.83794 0.24423 0.08821 0.0
C78 C 0.81854 0.23047 0.03376 0.0
N79 N 0.81311 0.20764 0.05342 0.0
O80 O 0.81489 0.28097 1.01396 0.0
H81 H 0.8487 0.25698 0.11243 0.0
H82 H 0.81113 0.23045 1.0052 0.0
O83 O 0.82859 0.29083 0.09112 0.0
C84 C 0.82163 0.28374 0.97865 0.0
O85 O 0.84697 0.29145 0.96963 0.0
N86 N 0.87928 0.29959 0.06948 0.0
C87 C 0.93224 0.3153 0.09177 0.0
C88 C 0.91666 0.32378 0.11279 0.0
C89 C 0.88998 0.31556 0.10121 0.0
C90 C 0.89402 0.29093 0.0492 0.0
C91 C 0.92038 0.29829 0.06001 0.0
H92 H 0.87864 0.32314 0.11654 0.0
H93 H 0.88549 0.27897 0.0235 0.0
H94 H 0.90269 0.34345 0.02646 0.0
H95 H 0.85733 0.38348 0.01932 0.0
H96 H 0.8243 0.20343 0.1112 0.0
H97 H 0.92524 0.33715 0.13729 0.0
H98 H 0.93185 0.29185 0.04235 0.0
C99 C 0.49217 0.83126 0.99836 0.0
C100 C 0.4794 0.84649 1.00027 0.0
N101 N 0.49835 0.87296 0.99548 0.0
N102 N 0.51916 0.848 0.99268 0.0
C103 C 0.52212 0.87324 0.99086 0.0
H104 H 0.48239 0.80931 1.00126 0.0
Co105 Co 0.54562 0.83707 0.98747 0.0
C106 C 0.52699 0.82445 0.06888 0.0
O107 O 0.52495 0.84656 0.07043 0.0
N108 N 0.57128 0.82627 0.98176 0.0
C109 C 0.60109 0.81695 0.95476 0.0
C110 C 0.58387 0.82713 0.94864 0.0
C111 C 0.58116 0.81568 1.00765 0.0
N112 N 0.59929 0.80968 0.99193 0.0
O113 O 0.51969 0.80439 0.96119 0.0
H114 H 0.58038 0.83433 0.92169 0.0
H115 H 0.57532 0.81252 0.03752 0.0
O116 O 0.53493 0.81854 0.03782 0.0
C117 C 0.51543 0.81009 0.92737 0.0
O118 O 0.5261 0.83586 0.9175 0.0
N119 N 0.57281 0.87017 1.00762 0.0
C120 C 0.61378 0.92386 0.02012 0.0
C121 C 0.60427 0.90486 0.05036 0.0
C122 C 0.58387 0.87778 0.04337 0.0
C123 C 0.58376 0.88774 0.97756 0.0
C124 C 0.60382 0.91474 0.9832 0.0
H125 H 0.5774 0.86325 0.06654 0.0
H126 H 0.57586 0.88088 0.94903 0.0
H127 H 0.54135 0.89173 0.98703 0.0
H128 H 0.45783 0.83861 1.00453 0.0
H129 H 0.61336 0.81438 0.93323 0.0
H130 H 0.61217 0.91096 0.0791 0.0
H131 H 0.61137 0.92841 0.95879 0.0
C132 C 0.6638 0.51301 1.01379 0.0
C133 C 0.63582 0.50076 1.01419 0.0
N134 N 0.62929 0.52054 1.01255 0.0
N135 N 0.6749 0.54043 1.01192 0.0
C136 C 0.65318 0.54421 1.0109 0.0
H137 H 0.67534 0.50254 1.0148 0.0
Co138 Co 0.71249 0.56607 1.00805 0.0
C139 C 0.70542 0.54247 0.08646 0.0
O140 O 0.68152 0.54084 0.08869 0.0
N141 N 0.74933 0.59086 1.00312 0.0
C142 C 0.78857 0.62639 0.98485 0.0
C143 C 0.76075 0.61501 0.98461 0.0
C144 C 0.77048 0.58776 1.0139 0.0
N145 N 0.79468 0.60916 1.00319 0.0
O146 O 0.71739 0.54082 0.97686 0.0
H147 H 0.74961 0.62353 0.97085 0.0
H148 H 0.76807 0.56957 0.02775 0.0
O149 O 0.71973 0.552 0.05594 0.0
C150 C 0.71028 0.54288 0.94286 0.0
O151 O 0.70048 0.5593 0.93713 0.0
N152 N 0.70818 0.59285 0.03389 0.0
C153 C 0.70253 0.63701 0.05635 0.0
C154 C 0.71083 0.62398 0.08284 0.0
C155 C 0.71435 0.60229 0.07069 0.0
C156 C 0.70104 0.60608 1.00782 0.0
C157 C 0.69787 0.62797 0.01841 0.0
H158 H 0.72272 0.59392 0.09065 0.0
H159 H 0.69761 0.59934 0.97833 0.0
H160 H 0.65445 0.56375 1.00793 0.0
H161 H 0.62147 0.47907 1.01577 0.0
H162 H 0.80309 0.6457 0.97201 0.0
H163 H 0.71535 0.63103 0.11219 0.0
H164 H 0.6916 0.63762 0.99705 0.0
C165 C 0.15366 0.66497 0.92768 0.0
C166 C 0.14054 0.63692 0.92953 0.0
N167 N 0.13164 0.6292 0.96565 0.0
N168 N 0.15326 0.675 0.96255 0.0
C169 C 0.14035 0.65269 0.98525 0.0
H170 H 0.16051 0.67695 0.9017 0.0
Co171 Co 0.15933 0.7102 0.97166 0.0
C172 C 0.17818 0.72388 0.05219 0.0
O173 O 0.16319 0.73549 0.05551 0.0
N174 N 0.16535 0.74577 0.97961 0.0
C175 C 0.1609 0.78242 0.98605 0.0
C176 C 0.14769 0.75512 0.97694 0.0
C177 C 0.18931 0.76798 0.98922 0.0
N178 N 0.18707 0.79044 0.99412 0.0
O179 O 0.19311 0.72542 0.94317 0.0
H180 H 0.12645 0.74302 0.96941 0.0
H181 H 0.20793 0.76742 0.9934 0.0
O182 O 0.17828 0.71226 0.02065 0.0
C183 C 0.18943 0.73346 0.91063 0.0
O184 O 0.16553 0.73082 0.90313 0.0
N185 N 0.12446 0.69458 0.99441 0.0
C186 C 0.06879 0.66811 1.01004 0.0
C187 C 0.08745 0.67269 0.03932 0.0
C188 C 0.11527 0.68541 0.03075 0.0
C189 C 0.10633 0.68961 0.96566 0.0
C190 C 0.07847 0.67651 0.97278 0.0
H191 H 0.12875 0.68628 0.05304 0.0
H192 H 0.11374 0.6959 0.93675 0.0
H193 H 0.13534 0.65341 1.0149 0.0
H194 H 0.13531 0.62327 0.9053 0.0
H195 H 0.15164 0.7951 0.98779 0.0
H196 H 0.08051 0.66567 0.06824 0.0
H197 H 0.06463 0.67325 0.94937 0.0
C198 C 0.83368 0.50276 0.51939 0.0
C199 C 0.84756 0.48862 0.52121 0.0
N200 N 0.87409 0.50673 0.52691 0.0
N201 N 0.85138 0.52977 0.52349 0.0
C202 C 0.8758 0.53136 0.52829 0.0
H203 H 0.81198 0.49388 0.51518 0.0
Co204 Co 0.84171 0.55732 0.52449 0.0
C205 C 0.82894 0.53524 0.44472 0.0
O206 O 0.85046 0.53221 0.44497 0.0
N207 N 0.83173 0.58388 0.52613 0.0
C208 C 0.82938 0.62077 0.54099 0.0
C209 C 0.84326 0.60692 0.54715 0.0
C210 C 0.81073 0.58389 0.50797 0.0
N211 N 0.80888 0.60618 0.51629 0.0
O212 O 0.80911 0.53319 0.55257 0.0
H213 H 0.86043 0.61309 0.56612 0.0
H214 H 0.79698 0.56779 0.489 0.0
O215 O 0.82326 0.54471 0.47444 0.0
C216 C 0.81644 0.53308 0.58716 0.0
O217 O 0.84254 0.54714 0.59537 0.0
N218 N 0.87504 0.58287 0.50214 0.0
C219 C 0.92869 0.62159 0.48408 0.0
C220 C 0.9084 0.61183 0.45572 0.0
C221 C 0.8814 0.5927 0.46552 0.0
C222 C 0.89401 0.59428 0.53038 0.0
C223 C 0.92096 0.61321 0.52199 0.0
H224 H 0.86594 0.58621 0.44375 0.0
H225 H 0.88827 0.5877 0.55971 0.0
H226 H 0.89472 0.55012 0.53224 0.0
H227 H 0.83872 0.46672 0.51896 0.0
H228 H 0.83369 0.63976 0.55439 0.0
H229 H 0.91339 0.61856 0.42627 0.0
H230 H 0.93567 0.62111 0.54509 0.0
C231 C 0.3438 0.8416 0.49145 0.0
C232 C 0.37124 0.85969 0.49646 0.0
N233 N 0.37637 0.8847 0.48564 0.0
N234 N 0.3318 0.85525 0.4776 0.0
C235 C 0.35223 0.88129 0.47388 0.0
H236 H 0.33337 0.81999 0.49768 0.0
Co237 Co 0.29566 0.84346 0.46491 0.0
C238 C 0.30603 0.82056 0.40269 0.0
O239 O 0.32315 0.84645 0.39549 0.0
N240 N 0.26008 0.83214 0.45065 0.0
C241 C 0.22641 0.8249 0.41131 0.0
C242 C 0.25414 0.83721 0.41531 0.0
C243 C 0.23563 0.81641 0.46765 0.0
N244 N 0.21474 0.81173 0.4442 0.0
O245 O 0.28313 0.82127 0.51105 0.0
H246 H 0.26915 0.84859 0.39346 0.0
H247 H 0.23314 0.80815 0.49629 0.0
O248 O 0.29349 0.81411 0.43471 0.0
C249 C 0.27775 0.79775 0.52284 0.0
O250 O 0.27999 0.78082 0.49942 0.0
N251 N 0.29764 0.873 0.49233 0.0
C252 C 0.30501 0.92056 0.52709 0.0
C253 C 0.29729 0.91512 0.48854 0.0
C254 C 0.29412 0.89142 0.47158 0.0
C255 C 0.30512 0.8779 0.53003 0.0
C256 C 0.30899 0.90167 0.54794 0.0
H257 H 0.28967 0.8882 0.44135 0.0
H258 H 0.30933 0.86409 0.54605 0.0
H259 H 0.34936 0.89754 0.46279 0.0
H260 H 0.38608 0.85494 0.50805 0.0
H261 H 0.21567 0.82465 0.38555 0.0
H262 H 0.29476 0.92959 0.47122 0.0
H263 H 0.31532 0.90539 0.57764 0.0
C264 C 0.49923 0.33143 0.56981 0.0
C265 C 0.50964 0.3592 0.57295 0.0
N266 N 0.48863 0.36397 0.57435 0.0
N267 N 0.47177 0.31874 0.56861 0.0
C268 C 0.46605 0.33909 0.57275 0.0
H269 H 0.51099 0.32127 0.5669 0.0
Co270 Co 0.44664 0.28122 0.56195 0.0
C271 C 0.47872 0.29587 0.48688 0.0
O272 O 0.48914 0.3224 0.4897 0.0
N273 N 0.42176 0.24409 0.55504 0.0
C274 C 0.39068 0.206 0.52671 0.0
C275 C 0.40736 0.23358 0.5225 0.0
C276 C 0.4138 0.22231 0.57847 0.0
N277 N 0.39475 0.19894 0.56182 0.0
O278 O 0.47029 0.27223 0.58996 0.0
H279 H 0.40901 0.24525 0.49707 0.0
H280 H 0.42166 0.22349 0.60706 0.0
O281 O 0.46299 0.27999 0.51307 0.0
C282 C 0.46809 0.27645 0.62535 0.0
O283 O 0.45168 0.2855 0.63524 0.0
N284 N 0.42184 0.28968 0.53907 0.0
C285 C 0.38469 0.30737 0.52542 0.0
C286 C 0.4056 0.313 0.49897 0.0
C287 C 0.42396 0.30377 0.50622 0.0
C288 C 0.40082 0.28282 0.56382 0.0
C289 C 0.38186 0.29106 0.55732 0.0
H290 H 0.44048 0.30935 0.48651 0.0
H291 H 0.39951 0.2718 0.58983 0.0
H292 H 0.4456 0.33581 0.57422 0.0
H293 H 0.53099 0.37467 0.5724 0.0
H294 H 0.37714 0.19201 0.50521 0.0
H295 H 0.4086 0.32551 0.47393 0.0
H296 H 0.3656 0.28536 0.57791 0.0
C297 C 0.15554 0.49423 0.50417 0.0
C298 C 0.13796 0.50373 0.51213 0.0
N299 N 0.11266 0.48207 0.51554 0.0
N300 N 0.14132 0.4667 0.50205 0.0
C301 C 0.11541 0.45999 0.51015 0.0
H302 H 0.17724 0.50665 0.49935 0.0
Co303 Co 0.15442 0.44268 0.49225 0.0
C304 C 0.17063 0.47654 0.41828 0.0
O305 O 0.1554 0.48777 0.42286 0.0
N306 N 0.16762 0.41889 0.4822 0.0
C307 C 0.17618 0.38963 0.45132 0.0
C308 C 0.16234 0.40371 0.45009 0.0
C309 C 0.18517 0.41404 0.50222 0.0
N310 N 0.1906 0.39627 0.48399 0.0
O311 O 0.18742 0.46686 0.51917 0.0
H312 H 0.14974 0.40341 0.42664 0.0
H313 H 0.19413 0.42356 0.52929 0.0
O314 O 0.17051 0.46004 0.44338 0.0
C315 C 0.18233 0.46414 0.55504 0.0
O316 O 0.15758 0.44652 0.56664 0.0
N317 N 0.12092 0.41761 0.47011 0.0
C318 C 0.06649 0.37949 0.45618 0.0
C319 C 0.08058 0.40225 0.4321 0.0
C320 C 0.10805 0.42107 0.43934 0.0
C321 C 0.10764 0.3952 0.49301 0.0
C322 C 0.08057 0.37574 0.48631 0.0
H323 H 0.11817 0.43897 0.42162 0.0
H324 H 0.11788 0.39311 0.51784 0.0
H325 H 0.09874 0.4392 0.51226 0.0
H326 H 0.14328 0.52492 0.51401 0.0
H327 H 0.1766 0.37647 0.42917 0.0
H328 H 0.07025 0.40583 0.40865 0.0
H329 H 0.07031 0.35872 0.50598 0.0
C330 C 0.6602 0.15628 0.5872 0.0
C331 C 0.63285 0.14258 0.57871 0.0
N332 N 0.62948 0.1308 0.54415 0.0
N333 N 0.67418 0.15339 0.55803 0.0
C334 C 0.65485 0.13827 0.53187 0.0
H335 H 0.66884 0.16563 0.61442 0.0
Co336 Co 0.71039 0.16101 0.56031 0.0
C337 C 0.73202 0.17475 0.48083 0.0
O338 O 0.7445 0.16075 0.48651 0.0
N339 N 0.74677 0.16882 0.56382 0.0
C340 C 0.78476 0.16728 0.57309 0.0
C341 C 0.75688 0.15329 0.57717 0.0
C342 C 0.76902 0.19253 0.55328 0.0
N343 N 0.79236 0.19192 0.55764 0.0
O344 O 0.72157 0.19639 0.58173 0.0
H345 H 0.74498 0.13298 0.58885 0.0
H346 H 0.76785 0.20938 0.54065 0.0
O347 O 0.71707 0.17612 0.50737 0.0
C348 C 0.72405 0.19442 0.61776 0.0
O349 O 0.71847 0.1707 0.6321 0.0
N350 N 0.69859 0.12487 0.54442 0.0
C351 C 0.67824 0.06883 0.5374 0.0
C352 C 0.68384 0.08526 0.50476 0.0
C353 C 0.69354 0.1132 0.50884 0.0
C354 C 0.69207 0.10886 0.5763 0.0
C355 C 0.6821 0.08089 0.57353 0.0
H356 H 0.69559 0.12476 0.48334 0.0
H357 H 0.69496 0.11809 0.60428 0.0
H358 H 0.65895 0.13121 0.50536 0.0
H359 H 0.61656 0.13924 0.59812 0.0
H360 H 0.79828 0.15971 0.58064 0.0
H361 H 0.68011 0.07646 0.47632 0.0
H362 H 0.67788 0.06891 0.59949 0.0
C363 C 0.49356 0.65514 0.51224 0.0
C364 C 0.48277 0.62789 0.52077 0.0
N365 N 0.50344 0.62272 0.52403 0.0
N366 N 0.52091 0.66708 0.50948 0.0
C367 C 0.52627 0.64686 0.51745 0.0
H368 H 0.48216 0.6656 0.50835 0.0
Co369 Co 0.54617 0.70416 0.501 0.0
C370 C 0.51223 0.68937 0.4273 0.0
O371 O 0.50041 0.66273 0.43103 0.0
N372 N 0.57119 0.741 0.49226 0.0
C373 C 0.59987 0.77886 0.46103 0.0
C374 C 0.58447 0.75103 0.45879 0.0
C375 C 0.57878 0.76324 0.51442 0.0
N376 N 0.59626 0.7866 0.49597 0.0
O377 O 0.52363 0.71417 0.53027 0.0
H378 H 0.58238 0.73892 0.43373 0.0
H379 H 0.57127 0.76241 0.54316 0.0
O380 O 0.52889 0.70502 0.45278 0.0
C381 C 0.52598 0.71023 0.56578 0.0
O382 O 0.54182 0.7005 0.57571 0.0
N383 N 0.56987 0.69479 0.4768 0.0
C384 C 0.60935 0.68174 0.4556 0.0
C385 C 0.58641 0.67404 0.43242 0.0
C386 C 0.56683 0.68091 0.44347 0.0
C387 C 0.59198 0.70225 0.49957 0.0
C388 C 0.61204 0.69617 0.4894 0.0
H389 H 0.54922 0.67446 0.42568 0.0
H390 H 0.59373 0.71265 0.52632 0.0
H391 H 0.54661 0.64976 0.51828 0.0
H392 H 0.46141 0.61317 0.52484 0.0
H393 H 0.61172 0.79245 0.43795 0.0
H394 H 0.58358 0.66272 0.4062 0.0
H395 H 0.62907 0.70194 0.50859 0.0
C396 C 0.45725 0.06444 0.0372 0.0
C397 C 0.4777 0.08933 0.02176 0.0
C398 C 0.45857 0.04059 0.03295 0.0
C399 C 0.4899 0.00913 0.97473 0.0
H400 H 0.47338 0.96143 0.06272 0.0
C401 C 0.51318 0.9208 0.97778 0.0
C402 C 0.49449 0.89633 0.99616 0.0
C403 C 0.51016 0.9438 0.97971 0.0
C404 C 0.47768 0.97429 0.03769 0.0
H405 H 0.51533 0.10845 0.98922 0.0
H406 H 0.5178 0.06681 0.98217 0.0
H407 H 0.47009 0.0026 0.06823 0.0
H408 H 0.45772 0.87694 0.03065 0.0
H409 H 0.45209 0.91687 0.03325 0.0
H410 H 0.49749 0.98084 0.94417 0.0
C411 C 0.50064 0.06578 0.99733 0.0
C412 C 0.47583 0.99793 0.04088 0.0
C413 C 0.49938 0.0897 1.00169 0.0
C414 C 0.4724 0.89533 1.01594 0.0
C415 C 0.46936 0.91836 0.01782 0.0
C416 C 0.49167 0.98544 0.9715 0.0
C417 C 0.48033 0.04098 1.01312 0.0
C418 C 0.482 0.01568 1.00948 0.0
C419 C 0.48831 0.94295 0.99995 0.0
C420 C 0.48568 0.96777 1.00299 0.0
H421 H 0.44043 0.0634 0.05327 0.0
H422 H 0.44244 0.02178 0.04512 0.0
H423 H 0.49441 0.02218 0.94985 0.0
H424 H 0.53021 0.92227 0.96178 0.0
H425 H 0.5253 0.96244 0.96591 0.0
C426 C 0.58071 0.49459 0.99413 0.0
C427 C 0.60253 0.5175 1.01143 0.0
C428 C 0.55518 0.49258 0.99111 0.0
C429 C 0.51277 0.51888 0.03174 0.0
H430 H 0.47529 0.49717 0.93413 0.0
C431 C 0.41661 0.52616 1.00106 0.0
C432 C 0.39529 0.50403 0.98165 0.0
C433 C 0.4422 0.52831 1.00411 0.0
C434 C 0.48534 0.50298 0.96171 0.0
H435 H 0.61444 0.55569 0.04052 0.0
H436 H 0.57002 0.55228 0.03502 0.0
H437 H 0.51875 0.4987 0.94197 0.0
H438 H 0.38456 0.46744 0.94889 0.0
H439 H 0.42878 0.4708 0.95506 0.0
H440 H 0.47931 0.52297 0.05162 0.0
C441 C 0.57261 0.53589 0.02376 0.0
C442 C 0.51022 0.50383 0.96619 0.0
C443 C 0.59812 0.53798 0.02655 0.0
C444 C 0.40035 0.4845 0.96459 0.0
C445 C 0.42586 0.48662 0.96771 0.0
C446 C 0.48783 0.51792 0.02732 0.0
C447 C 0.55094 0.51332 1.00565 0.0
C448 C 0.52421 0.5118 1.00124 0.0
C449 C 0.44703 0.50841 0.98778 0.0
C450 C 0.47383 0.50998 0.99224 0.0
H451 H 0.58356 0.47859 0.98204 0.0
H452 H 0.53876 0.4748 0.97736 0.0
H453 H 0.52295 0.5248 0.05923 0.0
H454 H 0.41338 0.54146 1.01472 0.0
H455 H 0.45819 0.54556 0.01933 0.0
C456 C 0.10881 0.57892 0.96129 0.0
C457 C 0.11026 0.60244 0.97701 0.0
C458 C 0.0862 0.55313 0.96834 0.0
C459 C 0.02446 0.51613 0.0304 0.0
H460 H 0.99676 0.46624 0.94437 0.0
C461 C 0.91592 0.42206 0.02789 0.0
C462 C 0.91337 0.39739 1.01486 0.0
C463 C 0.94062 0.44658 0.02413 0.0
C464 C 0.00438 0.47984 0.96877 0.0
H465 H 0.08908 0.6173 1.01259 0.0
H466 H 0.04968 0.57264 0.02448 0.0
H467 H 0.03913 0.50955 0.93758 0.0
H468 H 0.93462 0.37929 0.98676 0.0
H469 H 0.97771 0.42209 0.9801 0.0
H470 H 0.98922 0.48657 0.06117 0.0
C471 C 0.06624 0.57385 1.00752 0.0
C472 C 0.02877 0.50465 0.96498 0.0
C473 C 0.08894 0.59955 1.00076 0.0
C474 C 0.93598 0.39789 0.99741 0.0
C475 C 0.9606 0.42243 0.99332 0.0
C476 C -5e-05 0.49142 0.03405 0.0
C477 C 0.06434 0.5503 0.99093 0.0
C478 C 0.03909 0.52322 0.99569 0.0
C479 C 0.96326 0.44703 1.00691 0.0
C480 C 0.98957 0.47306 1.00322 0.0
H481 H 0.125 0.58059 0.94299 0.0
H482 H 0.08571 0.53543 0.95566 0.0
H483 H 0.03197 0.52964 0.05488 0.0
H484 H 0.899 0.42234 0.04178 0.0
H485 H 0.94196 0.46524 0.03453 0.0
C486 C 0.06304 0.46103 0.50554 0.0
C487 C 0.08754 0.48229 0.52051 0.0
C488 C 0.03887 0.46172 0.50882 0.0
C489 C 0.00581 0.4932 0.56292 0.0
H490 H 0.9605 0.47602 0.47241 0.0
C491 C 0.92032 0.51961 0.54949 0.0
C492 C 0.89634 0.50134 0.52994 0.0
C493 C 0.94251 0.51534 0.55061 0.0
C494 C 0.97265 0.48045 0.49815 0.0
H495 H 0.10568 0.5206 0.55141 0.0
H496 H 0.06343 0.52197 0.55682 0.0
H497 H 0.00144 0.47231 0.47028 0.0
H498 H 0.87677 0.46388 0.49697 0.0
H499 H 0.9153 0.45608 0.49965 0.0
H500 H 0.97709 0.50147 0.59075 0.0
C501 C 0.06296 0.50468 0.54276 0.0
C502 C 0.99616 0.47837 0.49689 0.0
C503 C 0.08721 0.50405 0.53934 0.0
C504 C 0.89484 0.47827 0.51242 0.0
C505 C 0.91706 0.47397 0.5136 0.0
C506 C 0.98223 0.49519 0.56423 0.0
C507 C 0.03858 0.48364 0.52722 0.0
C508 C 0.01311 0.48493 0.52916 0.0
C509 C 0.94126 0.49263 0.53235 0.0
C510 C 0.9655 0.48906 0.53175 0.0
H511 H 0.0626 0.44413 0.49042 0.0
H512 H 0.02037 0.44508 0.49686 0.0
H513 H 0.01827 0.49801 0.58841 0.0
H514 H 0.92206 0.53733 0.56389 0.0
H515 H 0.9609 0.53026 0.56501 0.0
C516 C 0.57969 0.10861 0.53539 0.0
C517 C 0.60424 0.10872 0.52965 0.0
C518 C 0.55476 0.08554 0.52629 0.0
C519 C 0.52343 0.01835 0.47559 0.0
H520 H 0.46506 0.99918 0.54872 0.0
C521 C 0.42679 0.91091 0.48385 0.0
C522 C 0.40178 0.91014 0.48818 0.0
C523 C 0.45137 0.9357 0.48642 0.0
C524 C 0.48106 0.00438 0.52783 0.0
H525 H 0.62193 0.08482 0.50927 0.0
H526 H 0.57864 0.04454 0.49398 0.0
H527 H 0.5079 0.04176 0.55629 0.0
H528 H 0.38297 0.93469 0.49929 0.0
H529 H 0.42576 0.97784 0.50376 0.0
H530 H 0.49659 0.9804 0.44785 0.0
C531 C 0.57849 0.06243 0.50463 0.0
C532 C 0.50563 0.0289 0.53202 0.0
C533 C 0.60341 0.0856 0.51335 0.0
C534 C 0.40188 0.93464 0.49531 0.0
C535 C 0.4264 0.95933 0.49825 0.0
C536 C 0.4989 0.99368 0.47162 0.0
C537 C 0.55378 0.06186 0.5117 0.0
C538 C 0.52719 0.03624 0.50601 0.0
C539 C 0.45143 0.96016 0.49385 0.0
C540 C 0.47746 0.98641 0.49773 0.0
H541 H 0.57979 0.12622 0.54769 0.0
H542 H 0.53621 0.08612 0.53133 0.0
H543 H 0.53938 0.02345 0.45468 0.0
H544 H 0.42733 0.89239 0.47814 0.0
H545 H 0.47036 0.93567 0.48322 0.0
C546 C 0.46795 0.3921 0.55743 0.0
C547 C 0.48979 0.39005 0.57287 0.0
C548 C 0.46945 0.4174 0.55409 0.0
C549 C 0.50631 0.48867 0.589 0.0
H550 H 0.47846 0.50284 0.49555 0.0
C551 C 0.52359 0.59564 0.54863 0.0
C552 C 0.50161 0.5968 0.53196 0.0
C553 C 0.52212 0.57054 0.55511 0.0
C554 C 0.48603 0.49911 0.52202 0.0
H555 H 0.53013 0.41318 0.5976 0.0
H556 H 0.53297 0.45752 0.59109 0.0
H557 H 0.47618 0.45907 0.50422 0.0
H558 H 0.46078 0.57231 0.50923 0.0
H559 H 0.45805 0.52859 0.52105 0.0
H560 H 0.51629 0.5289 0.60661 0.0
C561 C 0.51455 0.4394 0.58194 0.0
C562 C 0.48473 0.474 0.52701 0.0
C563 C 0.51304 0.41401 0.58534 0.0
C564 C 0.47799 0.57221 0.52239 0.0
C565 C 0.47655 0.54713 0.52877 0.0
C566 C 0.50765 0.51386 0.58397 0.0
C567 C 0.49286 0.4414 0.5659 0.0
C568 C 0.49472 0.46839 0.56063 0.0
C569 C 0.49867 0.546 0.54495 0.0
C570 C 0.49741 0.51932 0.55047 0.0
H571 H 0.44984 0.37427 0.54696 0.0
H572 H 0.45221 0.41812 0.54211 0.0
H573 H 0.51391 0.48491 0.61542 0.0
H574 H 0.54195 0.61412 0.55683 0.0
H575 H 0.53959 0.57041 0.56738 0.0
C576 C 0.34173 0.02077 0.11602 0.0
C577 C 0.36157 0.03483 0.08787 0.0
C578 C 0.32436 0.99249 0.11305 0.0
C579 C 0.31452 0.93041 0.06245 0.0
H580 H 0.2377 0.90719 0.06958 0.0
C581 C 0.22922 0.81944 0.03095 0.0
C582 C 0.2076 0.8168 1.00807 0.0
C583 C 0.24855 0.84488 0.04555 0.0
C584 C 0.25908 0.91336 0.0675 0.0
H585 H 0.38015 0.03073 0.03601 0.0
H586 H 0.3501 0.98151 0.03084 0.0
H587 H 0.27159 0.95347 0.08842 0.0
H588 H 0.18978 0.83905 0.98208 0.0
H589 H 0.2234 0.88333 1.00757 0.0
H590 H 0.30199 0.89061 0.04012 0.0
C591 C 0.34779 0.99201 0.05521 0.0
C592 C 0.27849 0.93975 0.07878 0.0
C593 C 0.36488 0.02018 0.05799 0.0
C594 C 0.20588 0.84024 1.00004 0.0
C595 C 0.22513 0.86563 1.01473 0.0
C596 C 0.2951 0.90396 0.05134 0.0
C597 C 0.32687 0.97793 0.08211 0.0
C598 C 0.30643 0.94877 0.07557 0.0
C599 C 0.24663 0.86823 0.03777 0.0
C600 C 0.26718 0.89537 0.05291 0.0
H601 H 0.33888 0.0318 0.13923 0.0
H602 H 0.30856 0.98212 0.13436 0.0
H603 H 0.33592 0.93671 0.05993 0.0
H604 H 0.23094 0.80179 0.03832 0.0
H605 H 0.26475 0.8462 0.06349 0.0
C606 C 0.35233 0.20111 0.07529 0.0
C607 C 0.37653 0.2052 0.05816 0.0
C608 C 0.34335 0.21972 0.06955 0.0
C609 C 0.3404 0.27154 0.07518 0.0
H610 H 0.34511 0.30541 0.97675 0.0
C611 C 0.29659 0.34334 0.04756 0.0
C612 C 0.31206 0.3661 0.02395 0.0
C613 C 0.30409 0.32339 0.05229 0.0
C614 C 0.34393 0.29634 1.00455 0.0
H615 H 0.40981 0.23161 0.02046 0.0
H616 H 0.39414 0.26426 1.01036 0.0
H617 H 0.35828 0.27061 0.98212 0.0
H618 H 0.34834 0.38664 0.98862 0.0
H619 H 0.3615 0.35212 0.99708 0.0
H620 H 0.32617 0.29737 0.09764 0.0
C621 C 0.382 0.24648 0.02808 0.0
C622 C 0.35146 0.27638 1.00758 0.0
C623 C 0.39097 0.22777 0.03379 0.0
C624 C 0.33568 0.36902 1.00635 0.0
C625 C 0.34318 0.3492 1.0111 0.0
C626 C 0.33286 0.29151 0.07214 0.0
C627 C 0.35836 0.24294 0.04653 0.0
C628 C 0.34985 0.26379 0.04295 0.0
C629 C 0.32725 0.32591 0.03358 0.0
C630 C 0.33467 0.30425 0.03683 0.0
H631 H 0.34046 0.18361 0.0936 0.0
H632 H 0.32472 0.21603 0.08344 0.0
H633 H 0.33934 0.26257 0.10301 0.0
H634 H 0.2782 0.34048 0.06129 0.0
H635 H 0.2913 0.30561 0.06966 0.0
C636 C 0.97252 0.30866 0.09674 0.0
C637 C 0.96153 0.32599 0.09974 0.0
C638 C 0.00065 0.31942 0.0953 0.0
C639 C 0.06117 0.38229 0.06364 0.0
H640 H 0.09833 0.34357 0.09471 0.0
C641 C 0.17283 0.419 0.0217 0.0
C642 C 0.1777 0.39876 1.00676 0.0
C643 C 0.14809 0.41188 0.03952 0.0
C644 C 0.08818 0.35458 0.08582 0.0
H645 H 0.97139 0.36801 0.10686 0.0
H646 H 0.02066 0.38684 0.10545 0.0
H647 H 0.05245 0.32856 0.11851 0.0
H648 H 0.1606 0.35517 0.99951 0.0
H649 H 0.11722 0.34271 0.03029 0.0
H650 H 0.0967 0.40798 0.03043 0.0
C651 C 0.00749 0.36493 0.10329 0.0
C652 C 0.06193 0.34602 0.09947 0.0
C653 C 0.97927 0.35413 0.10461 0.0
C654 C 0.15734 0.37122 1.01032 0.0
C655 C 0.13266 0.36409 0.0284 0.0
C656 C 0.08746 0.39095 0.05023 0.0
C657 C 0.01847 0.34779 0.09702 0.0
C658 C 0.04783 0.35935 0.08777 0.0
C659 C 0.12773 0.38436 0.04305 0.0
C660 C 0.10099 0.37679 0.06045 0.0
H661 H 0.9593 0.28684 0.09338 0.0
H662 H 0.00828 0.30557 0.09027 0.0
H663 H 0.05082 0.39279 0.05345 0.0
H664 H 0.188 0.4404 0.01913 0.0
H665 H 0.14491 0.42793 0.05066 0.0
C666 C 0.77191 0.17127 0.02149 0.0
C667 C 0.79568 0.17948 0.04302 0.0
C668 C 0.75293 0.14347 0.01688 0.0
C669 C 0.72145 0.08219 0.99896 0.0
H670 H 0.70626 0.03835 0.09106 0.0
C671 C 0.62981 0.97319 1.00854 0.0
C672 C 0.63387 0.95315 0.02615 0.0
C673 C 0.64961 0.00074 1.01085 0.0
C674 C 0.71047 0.05019 0.06496 0.0
H675 H 0.81931 0.16519 0.07385 0.0
H676 H 0.7865 0.11688 0.06556 0.0
H677 H 0.74128 0.08642 0.0921 0.0
H678 H 0.66148 0.9463 0.06097 0.0
H679 H 0.69635 0.99463 0.06494 0.0
H680 H 0.69064 0.04593 0.9718 0.0
C681 C 0.78205 0.13178 0.05318 0.0
C682 C 0.73056 0.07775 0.06553 0.0
C683 C 0.80088 0.15943 0.0578 0.0
C684 C 0.65777 0.96133 0.04733 0.0
C685 C 0.67771 0.989 0.04953 0.0
C686 C 0.7014 0.05458 0.99835 0.0
C687 C 0.75749 0.12345 0.03364 0.0
C688 C 0.73629 0.09408 0.03255 0.0
C689 C 0.67402 0.00897 0.03078 0.0
C690 C 0.6956 0.03826 0.03139 0.0
H691 H 0.76731 0.18629 1.01 0.0
H692 H 0.73416 0.1377 1.00172 0.0
H693 H 0.72559 0.09413 0.97298 0.0
H694 H 0.61134 0.9675 0.9926 0.0
H695 H 0.64577 0.0156 0.99692 0.0
C696 C 0.63751 0.80051 0.99605 0.0
C697 C 0.61268 0.79673 1.01034 0.0
C698 C 0.64966 0.78666 1.01229 0.0
C699 C 0.67727 0.76321 0.06108 0.0
H700 H 0.62925 0.68556 0.07681 0.0
C701 C 0.71125 0.68419 0.0454 0.0
C702 C 0.69861 0.66007 0.06714 0.0
C703 C 0.70358 0.70391 0.0497 0.0
C704 C 0.64294 0.70731 0.07352 0.0
H705 H 0.58148 0.77578 0.05363 0.0
H706 H 0.60287 0.75183 0.08221 0.0
H707 H 0.60997 0.71451 0.06256 0.0
H708 H 0.6693 0.63825 0.11204 0.0
H709 H 0.65572 0.67291 0.11975 0.0
H710 H 0.71029 0.75573 0.07048 0.0
C711 C 0.61282 0.76541 0.05823 0.0
C712 C 0.63187 0.72393 0.06524 0.0
C713 C 0.60069 0.77934 0.04203 0.0
C714 C 0.67941 0.65678 0.09511 0.0
C715 C 0.67151 0.67647 0.09923 0.0
C716 C 0.68834 0.74658 0.06935 0.0
C717 C 0.63728 0.76864 0.04322 0.0
C718 C 0.64893 0.75192 0.05774 0.0
C719 C 0.68292 0.69985 0.07568 0.0
C720 C 0.67133 0.7183 0.07446 0.0
H721 H 0.64746 0.81401 0.97204 0.0
H722 H 0.66833 0.78939 0.99971 0.0
H723 H 0.69094 0.7848 0.05622 0.0
H724 H 0.72615 0.68715 0.02366 0.0
H725 H 0.7126 0.72148 0.03082 0.0
C726 C 0.84241 0.62831 0.98217 0.0
C727 C 0.82125 0.612 1.00772 0.0
C728 C 0.86797 0.63066 0.98585 0.0
C729 C 0.91301 0.62249 0.05385 0.0
H730 H 0.95099 0.6243 0.96053 0.0
C731 C 0.02928 0.66556 0.04548 0.0
C732 C 0.03927 0.65485 0.01777 0.0
C733 C 0.0013 0.65581 0.04841 0.0
C734 C 0.94058 0.62337 0.98699 0.0
H735 H 0.81064 0.58578 0.05772 0.0
H736 H 0.85531 0.58952 0.0637 0.0
H737 H 0.90474 0.61593 0.95692 0.0
H738 H 0.0281 0.62417 0.97372 0.0
H739 H 0.97921 0.60652 0.97953 0.0
H740 H 0.94899 0.62979 0.08391 0.0
C741 C 0.85205 0.60061 0.04096 0.0
C742 C 0.91416 0.61899 0.98484 0.0
C743 C 0.82639 0.59826 0.03728 0.0
C744 C 0.02082 0.63301 0.9949 0.0
C745 C 0.99289 0.62303 0.99813 0.0
C746 C 0.93953 0.6268 0.05604 0.0
C747 C 0.87305 0.6167 1.01507 0.0
C748 C 0.90026 0.61905 0.01812 0.0
C749 C 0.98285 0.635 0.02392 0.0
C750 C 0.95377 0.62771 0.02255 0.0
H751 H 0.83918 0.63896 0.95884 0.0
H752 H 0.88383 0.64359 0.9658 0.0
H753 H 0.90286 0.62273 0.08001 0.0
H754 H 0.04319 0.6825 0.06332 0.0
H755 H 0.99434 0.66565 0.06838 0.0
C756 C 0.16706 0.79917 0.43144 0.0
C757 C 0.18595 0.79423 0.45067 0.0
C758 C 0.13912 0.78094 0.43466 0.0
C759 C 0.09061 0.7089 0.4562 0.0
H760 H 0.03822 0.73359 0.46556 0.0
C761 C 0.96622 0.66315 0.45125 0.0
C762 C 0.95789 0.64026 0.47504 0.0
C763 C 0.99399 0.68182 0.44591 0.0
C764 C 0.05256 0.72637 0.46234 0.0
H765 H 0.19022 0.76655 0.4892 0.0
H766 H 0.14133 0.73478 0.49527 0.0
H767 H 0.08682 0.767 0.46343 0.0
H768 H 0.97204 0.61824 0.51023 0.0
H769 H 0.02016 0.6508 0.50145 0.0
H770 H 0.05643 0.66832 0.45506 0.0
C771 C 0.14822 0.75268 0.4773 0.0
C772 C 0.08041 0.74551 0.46129 0.0
C773 C 0.17621 0.77103 0.47421 0.0
C774 C 0.97782 0.6359 0.49215 0.0
C775 C 0.00545 0.65443 0.48677 0.0
C776 C 0.06278 0.68978 0.45714 0.0
C777 C 0.12939 0.75724 0.45712 0.0
C778 C 0.09976 0.73698 0.45847 0.0
C779 C 0.01391 0.67782 0.46402 0.0
C780 C 0.04341 0.69826 0.46052 0.0
H781 H 0.17391 0.81704 0.41346 0.0
H782 H 0.12519 0.785 0.4186 0.0
H783 H 0.10495 0.70168 0.4532 0.0
H784 H 0.95131 0.66707 0.43778 0.0
H785 H -0.00013 0.69947 0.42781 0.0
C786 C 0.39866 0.16131 0.59093 0.0
C787 C 0.38252 0.17146 0.5759 0.0
C788 C 0.38767 0.13312 0.5959 0.0
C789 C 0.35653 0.07103 0.61088 0.0
H790 H 0.31413 0.03276 0.52138 0.0
C791 C 0.33508 0.96367 0.56313 0.0
C792 C 0.31034 0.94667 0.54435 0.0
C793 C 0.34168 0.98998 0.57457 0.0
C794 C 0.32542 0.04288 0.54701 0.0
H795 H 0.34195 0.16094 0.55801 0.0
H796 H 0.32244 0.11197 0.56787 0.0
H797 H 0.32944 0.08076 0.52921 0.0
H798 H 0.27227 0.94289 0.52536 0.0
H799 H 0.28337 0.98844 0.54612 0.0
H800 H 0.35289 0.03288 0.62801 0.0
C801 C 0.34373 0.12544 0.57462 0.0
C802 C 0.33424 0.07052 0.55152 0.0
C803 C 0.35478 0.15342 0.56922 0.0
C804 C 0.29165 0.95578 0.53927 0.0
C805 C 0.29808 0.98189 0.55104 0.0
C806 C 0.34759 0.04316 0.60639 0.0
C807 C 0.36034 0.11483 0.58618 0.0
C808 C 0.34994 0.08499 0.58341 0.0
C809 C 0.32355 0.99966 0.56764 0.0
C810 C 0.33198 0.02881 0.57428 0.0
H811 H 0.42017 0.17493 0.59603 0.0
H812 H 0.40102 0.12561 0.6048 0.0
H813 H 0.36854 0.08161 0.63581 0.0
H814 H 0.34992 0.95716 0.56714 0.0
H815 H 0.36153 0.00317 0.58699 0.0
C816 C 0.20368 0.36105 0.48846 0.0
C817 C 0.20996 0.3881 0.49436 0.0
C818 C 0.22334 0.35351 0.49454 0.0
C819 C 0.29527 0.37919 0.4882 0.0
H820 H 0.28203 0.31786 0.55274 0.0
C821 C 0.35748 0.32241 0.48527 0.0
C822 C 0.36668 0.31934 0.52137 0.0
C823 C 0.33963 0.33268 0.48234 0.0
C824 C 0.28595 0.33503 0.53465 0.0
H825 H 0.24136 0.42849 0.51151 0.0
H826 H 0.27626 0.41541 0.52132 0.0
H827 H 0.24782 0.33212 0.54898 0.0
H828 H 0.3656 0.32644 0.58241 0.0
H829 H 0.33366 0.34307 0.57719 0.0
H830 H 0.3331 0.38155 0.47303 0.0
C831 C 0.25598 0.40005 0.51244 0.0
C832 C 0.26644 0.34313 0.53249 0.0
C833 C 0.23607 0.40746 0.50718 0.0
C834 C 0.35825 0.32757 0.55423 0.0
C835 C 0.34013 0.33734 0.55133 0.0
C836 C 0.31457 0.37072 0.48974 0.0
C837 C 0.24979 0.37306 0.50583 0.0
C838 C 0.27097 0.3653 0.50934 0.0
C839 C 0.33046 0.33972 0.51546 0.0
C840 C 0.31006 0.34862 0.51308 0.0
H841 H 0.18364 0.34586 0.47859 0.0
H842 H 0.21816 0.33259 0.48917 0.0
H843 H 0.29903 0.3962 0.46988 0.0
H844 H 0.36345 0.31623 0.4594 0.0
H845 H 0.33231 0.33432 0.45435 0.0
C846 C 0.01899 0.37153 0.45255 0.0
C847 C 0.03672 0.36094 0.4529 0.0
C848 C 0.99092 0.35415 0.45705 0.0
C849 C 0.93601 0.2815 0.4558 0.0
H850 H 0.90389 0.30376 0.53602 0.0
C851 C 0.83843 0.2043 0.53466 0.0
C852 C 0.81914 0.21201 0.54427 0.0
C853 C 0.86382 0.22337 0.51977 0.0
C854 C 0.91234 0.29738 0.51312 0.0
H855 H 0.03902 0.32392 0.45576 0.0
H856 H 0.99009 0.29356 0.46334 0.0
H857 H 0.94979 0.33555 0.5134 0.0
H858 H 0.81186 0.24615 0.54641 0.0
H859 H 0.856 0.27931 0.51979 0.0
H860 H 0.89876 0.24319 0.45592 0.0
C861 C 0.99773 0.3152 0.45959 0.0
C862 C 0.93865 0.31563 0.50009 0.0
C863 C 0.02576 0.33257 0.45544 0.0
C864 C 0.82606 0.2394 0.53899 0.0
C865 C 0.85149 0.25849 0.52402 0.0
C866 C 0.90967 0.26329 0.46872 0.0
C867 C 0.98008 0.32587 0.46161 0.0
C868 C 0.95097 0.30771 0.47181 0.0
C869 C 0.87062 0.25065 0.51399 0.0
C870 C 0.89773 0.2708 0.4981 0.0
H871 H 0.02696 0.39337 0.45102 0.0
H872 H 0.97777 0.36292 0.45812 0.0
H873 H 0.94482 0.27494 0.43362 0.0
H874 H 0.83379 0.18339 0.53786 0.0
H875 H 0.87822 0.21671 0.513 0.0
C876 C 0.68151 0.03012 0.50864 0.0
C877 C 0.66858 0.03929 0.53396 0.0
C878 C 0.67336 0.00243 0.50667 0.0
C879 C 0.63607 0.93759 0.56109 0.0
H880 H 0.63626 0.90582 0.46283 0.0
C881 C 0.59093 0.82121 0.53231 0.0
C882 C 0.6064 0.81435 0.50805 0.0
C883 C 0.59894 0.84862 0.53892 0.0
C884 C 0.63634 0.91448 0.49054 0.0
H885 H 0.6365 0.02668 0.57628 0.0
H886 H 0.6218 0.97817 0.57229 0.0
H887 H 0.6482 0.95347 0.46607 0.0
H888 H 0.64349 0.83071 0.47451 0.0
H889 H 0.65731 0.87836 0.4858 0.0
H890 H 0.62367 0.89816 0.58525 0.0
C891 C 0.63871 0.99243 0.55465 0.0
C892 C 0.64323 0.9418 0.49242 0.0
C893 C 0.64703 0.02018 0.55684 0.0
C894 C 0.63083 0.83537 0.49257 0.0
C895 C 0.63874 0.86263 0.49901 0.0
C896 C 0.62892 0.9101 0.55913 0.0
C897 C 0.65189 0.98324 0.52971 0.0
C898 C 0.64348 0.95381 0.52775 0.0
C899 C 0.62248 0.86953 0.52129 0.0
C900 C 0.62932 0.8984 0.52386 0.0
H901 H 0.69843 0.04446 0.49107 0.0
H902 H 0.68429 0.99617 0.48762 0.0
H903 H 0.63634 0.94626 0.58884 0.0
H904 H 0.57195 0.80548 0.5445 0.0
H905 H 0.58603 0.85342 0.55623 0.0
C906 C 0.6216 0.64637 0.4375 0.0
C907 C 0.62981 0.6736 0.4465 0.0
C908 C 0.64079 0.63774 0.43569 0.0
C909 C 0.71519 0.66232 0.43299 0.0
H910 H 0.69512 0.59757 0.49387 0.0
C911 C 0.79456 0.63984 0.50084 0.0
C912 C 0.78885 0.61265 0.50221 0.0
C913 C 0.77501 0.64605 0.48769 0.0
C914 C 0.70095 0.61541 0.4762 0.0
H915 H 0.66458 0.71356 0.45777 0.0
H916 H 0.69797 0.69858 0.45493 0.0
H917 H 0.66106 0.61042 0.47946 0.0
H918 H 0.75793 0.57065 0.49065 0.0
H919 H 0.72411 0.58154 0.46717 0.0
H920 H 0.75533 0.66768 0.43069 0.0
C921 C 0.67683 0.68382 0.44918 0.0
C922 C 0.68139 0.62275 0.46785 0.0
C923 C 0.65768 0.69239 0.45113 0.0
C924 C 0.7632 0.59184 0.48968 0.0
C925 C 0.74366 0.59805 0.47655 0.0
C926 C 0.73478 0.65497 0.44135 0.0
C927 C 0.66853 0.65624 0.44262 0.0
C928 C 0.6884 0.64658 0.4468 0.0
C929 C 0.74927 0.62521 0.47561 0.0
C930 C 0.72801 0.63173 0.4637 0.0
H931 H 0.60023 0.63143 0.43396 0.0
H932 H 0.63382 0.61642 0.43009 0.0
H933 H 0.72114 0.68059 0.41626 0.0
H934 H 0.81417 0.65638 0.50982 0.0
H935 H 0.77989 0.66716 0.48777 0.0
C936 C 0.48859 0.29893 0.41647 0.0
C937 C 0.48208 0.28401 0.45083 0.0
C938 C 0.48975 0.28708 0.38185 0.0
C939 C 0.46811 0.21888 0.33756 0.0
H940 H 0.5144 0.26364 0.25443 0.0
C941 C 0.48351 0.17464 0.19568 0.0
C942 C 0.47671 0.18419 0.16265 0.0
C943 C 0.48617 0.18731 0.23113 0.0
C944 C 0.50139 0.25094 0.27745 0.0
H945 H 0.47258 0.24524 0.47607 0.0
H946 H 0.47608 0.22504 0.4163 0.0
H947 H 0.51615 0.28456 0.3162 0.0
H948 H 0.46825 0.21504 0.14068 0.0
H949 H 0.47389 0.23775 0.20246 0.0
H950 H 0.45415 0.18514 0.2987 0.0
C951 C 0.47925 0.24555 0.41551 0.0
C952 C 0.50217 0.26291 0.31287 0.0
C953 C 0.4775 0.25722 0.45 0.0
C954 C 0.47352 0.20722 0.16561 0.0
C955 C 0.4768 0.22026 0.20089 0.0
C956 C 0.46782 0.20685 0.30241 0.0
C957 C 0.48499 0.26014 0.38073 0.0
C958 C 0.48528 0.24714 0.34341 0.0
C959 C 0.48272 0.21015 0.23409 0.0
C960 C 0.48422 0.2228 0.27191 0.0
H961 H 0.49191 0.31952 0.41604 0.0
H962 H 0.49365 0.29894 0.35587 0.0
H963 H 0.45432 0.20599 0.35976 0.0
H964 H 0.48591 0.15683 0.19441 0.0
H965 H 0.49081 0.17919 0.25632 0.0
C966 C 0.29572 0.47989 0.12929 0.0
C967 C 0.28345 0.47951 0.09412 0.0
C968 C 0.28404 0.48124 0.16388 0.0
C969 C 0.23924 0.50218 0.20877 0.0
H970 H 0.22733 0.44747 0.28514 0.0
C971 C 0.17836 0.48933 0.34858 0.0
C972 C 0.18541 0.48014 0.38172 0.0
C973 C 0.19081 0.49053 0.31338 0.0
C974 C 0.23093 0.46327 0.26458 0.0
H975 H 0.24974 0.48127 0.06776 0.0
H976 H 0.22959 0.48422 0.1285 0.0
H977 H 0.24832 0.44781 0.22421 0.0
H978 H 0.21185 0.46605 0.4042 0.0
H979 H 0.23441 0.46932 0.34355 0.0
H980 H 0.22264 0.51824 0.2494 0.0
C981 C 0.24817 0.4832 0.12907 0.0
C982 C 0.24281 0.4633 0.22948 0.0
C983 C 0.25963 0.4814 0.09435 0.0
C984 C 0.20579 0.47302 0.37913 0.0
C985 C 0.21855 0.47465 0.34414 0.0
C986 C 0.22773 0.50246 0.24421 0.0
C987 C 0.26004 0.48268 0.16419 0.0
C988 C 0.24711 0.48274 0.20121 0.0
C989 C 0.21093 0.48295 0.31053 0.0
C990 C 0.22341 0.483 0.2727 0.0
H991 H 0.31402 0.4784 0.13025 0.0
H992 H 0.29376 0.48105 0.19051 0.0
H993 H 0.24252 0.51753 0.18756 0.0
H994 H 0.16258 0.49477 0.34952 0.0
H995 H 0.18402 0.49667 0.28825 0.0
C996 C 0.80821 0.30791 0.18175 0.0
C997 C 0.80986 0.29228 0.15161 0.0
C998 C 0.79659 0.2957 0.21705 0.0
C999 C 0.7866 0.23819 0.2763 0.0
H1000 H 0.73481 0.24936 0.33473 0.0
C1001 C 0.73811 0.17469 0.41045 0.0
C1002 C 0.73478 0.18743 0.4428 0.0
C1003 C 0.74448 0.18767 0.37489 0.0
C1004 C 0.74951 0.24628 0.31899 0.0
H1005 H 0.79901 0.25119 0.13444 0.0
H1006 H 0.77929 0.2302 0.19579 0.0
H1007 H 0.75122 0.27216 0.27257 0.0
H1008 H 0.73442 0.22336 0.4631 0.0
H1009 H 0.74647 0.24673 0.40072 0.0
H1010 H 0.78579 0.21311 0.32246 0.0
C1011 C 0.78723 0.25192 0.19232 0.0
C1012 C 0.75883 0.25929 0.28336 0.0
C1013 C 0.79856 0.26401 0.15708 0.0
C1014 C 0.73677 0.21306 0.43851 0.0
C1015 C 0.74367 0.22639 0.40278 0.0
C1016 C 0.7776 0.22552 0.31185 0.0
C1017 C 0.78662 0.26769 0.22297 0.0
C1018 C 0.77717 0.255 0.26141 0.0
C1019 C 0.74834 0.21411 0.37072 0.0
C1020 C 0.75855 0.22893 0.33349 0.0
H1021 H 0.81659 0.32971 0.17851 0.0
H1022 H 0.79642 0.30836 0.24017 0.0
H1023 H 0.80122 0.235 0.26051 0.0
H1024 H 0.73628 0.15473 0.41278 0.0
H1025 H 0.74693 0.17709 0.35074 0.0
C1026 C 0.52095 0.78266 0.10384 0.0
C1027 C 0.52322 0.80855 0.10458 0.0
C1028 C 0.51769 0.76815 0.13799 0.0
C1029 C 0.50051 0.76761 0.24233 0.0
H1030 H 0.53267 0.7215 0.25236 0.0
C1031 C 0.51831 0.72933 0.38806 0.0
C1032 C 0.50993 0.7014 0.39058 0.0
C1033 C 0.51792 0.74108 0.35287 0.0
C1034 C 0.5234 0.73416 0.24985 0.0
H1035 H 0.52446 0.83973 0.14202 0.0
H1036 H 0.51999 0.81529 0.201 0.0
H1037 H 0.53631 0.74449 0.1916 0.0
H1038 H 0.49455 0.66394 0.35794 0.0
H1039 H 0.49446 0.68466 0.2964 0.0
H1040 H 0.48867 0.75805 0.30126 0.0
C1041 C 0.51962 0.80545 0.17425 0.0
C1042 C 0.52534 0.74727 0.2149 0.0
C1043 C 0.52242 0.81967 0.14022 0.0
C1044 C 0.50096 0.68547 0.3571 0.0
C1045 C 0.50109 0.69734 0.32179 0.0
C1046 C 0.49903 0.75491 0.27741 0.0
C1047 C 0.51703 0.77938 0.17381 0.0
C1048 C 0.51406 0.76437 0.21062 0.0
C1049 C 0.50966 0.72529 0.31926 0.0
C1050 C 0.51054 0.73812 0.28162 0.0
H1051 H 0.52148 0.77349 0.07686 0.0
H1052 H 0.51542 0.74803 0.13617 0.0
H1053 H 0.49088 0.77993 0.24019 0.0
H1054 H 0.52542 0.7422 0.41325 0.0
H1055 H 0.52479 0.7627 0.35175 0.0
C1056 C 0.82555 0.52933 0.37339 0.0
C1057 C 0.81437 0.53208 0.40798 0.0
C1058 C 0.81325 0.52841 0.33827 0.0
C1059 C 0.7487 0.51337 0.29314 0.0
H1060 H 0.79467 0.56076 0.2117 0.0
C1061 C 0.70319 0.5324 0.15667 0.0
C1062 C 0.71722 0.53763 0.12164 0.0
C1063 C 0.71475 0.52989 0.19067 0.0
C1064 C 0.78152 0.54698 0.23375 0.0
H1065 H 0.78093 0.53518 0.43264 0.0
H1066 H 0.75917 0.53311 0.37114 0.0
H1067 H 0.81489 0.55962 0.27277 0.0
H1068 H 0.75429 0.54353 0.0949 0.0
H1069 H 0.7742 0.53823 0.15411 0.0
H1070 H 0.71539 0.50026 0.25417 0.0
C1071 C 0.7776 0.53183 0.37137 0.0
C1072 C 0.79315 0.54647 0.26892 0.0
C1073 C 0.79012 0.53312 0.40659 0.0
C1074 C 0.74293 0.53958 0.12136 0.0
C1075 C 0.75444 0.53677 0.15547 0.0
C1076 C 0.7371 0.5136 0.25781 0.0
C1077 C 0.78925 0.52984 0.33677 0.0
C1078 C 0.77685 0.52984 0.29914 0.0
C1079 C 0.74062 0.53218 0.19074 0.0
C1080 C 0.75328 0.53065 0.22767 0.0
H1081 H 0.84421 0.5285 0.37325 0.0
H1082 H 0.82256 0.52656 0.31218 0.0
H1083 H 0.73566 0.50005 0.31567 0.0
H1084 H 0.68342 0.53093 0.15817 0.0
H1085 H 0.7036 0.52691 0.2171 0.0
C1086 C 0.18018 0.71841 0.12241 0.0
C1087 C 0.19297 0.72308 0.08651 0.0
C1088 C 0.19486 0.72218 0.15613 0.0
C1089 C 0.22925 0.72329 0.22411 0.0
H1090 H 0.29234 0.79587 0.23025 0.0
C1091 C 0.26961 0.78002 0.36777 0.0
C1092 C 0.29692 0.80092 0.37049 0.0
C1093 C 0.25948 0.76565 0.3334 0.0
C1094 C 0.27523 0.77524 0.22913 0.0
H1095 H 0.23093 0.73456 0.05749 0.0
H1096 H 0.25708 0.74187 0.11694 0.0
H1097 H 0.27028 0.77855 0.16886 0.0
H1098 H 0.33554 0.82162 0.34058 0.0
H1099 H 0.31838 0.79569 0.28146 0.0
H1100 H 0.2339 0.72002 0.28442 0.0
C1101 C 0.23551 0.7349 0.1188 0.0
C1102 C 0.26253 0.76534 0.19372 0.0
C1103 C 0.22057 0.73054 0.08484 0.0
C1104 C 0.31435 0.80572 0.33922 0.0
C1105 C 0.30437 0.79104 0.30513 0.0
C1106 C 0.24216 0.73304 0.25949 0.0
C1107 C 0.22287 0.73127 0.15482 0.0
C1108 C 0.23896 0.73957 0.19097 0.0
C1109 C 0.27654 0.77157 0.30112 0.0
C1110 C 0.26492 0.75949 0.26276 0.0
H1111 H 0.15891 0.71272 0.12444 0.0
H1112 H 0.18458 0.71949 0.18331 0.0
H1113 H 0.21123 0.70323 0.22281 0.0
H1114 H 0.25558 0.77609 0.39122 0.0
H1115 H 0.2379 0.75109 0.3316 0.0
C1116 C 0.52014 0.74368 0.60519 0.0
C1117 C 0.51218 0.71653 0.59647 0.0
C1118 C 0.51337 0.75025 0.64075 0.0
C1119 C 0.49478 0.72131 0.7396 0.0
H1120 H 0.49096 0.78677 0.75761 0.0
C1121 C 0.51437 0.77252 0.88874 0.0
C1122 C 0.50356 0.7895 0.89673 0.0
C1123 C 0.50962 0.75946 0.85311 0.0
C1124 C 0.49142 0.76807 0.75334 0.0
H1125 H 0.48964 0.6748 0.61649 0.0
H1126 H 0.47617 0.68581 0.67721 0.0
H1127 H 0.49168 0.77245 0.69244 0.0
H1128 H 0.47771 0.80453 0.87541 0.0
H1129 H 0.46778 0.78033 0.81458 0.0
H1130 H 0.49376 0.71652 0.8005 0.0
C1131 C 0.48851 0.70232 0.65765 0.0
C1132 C 0.49234 0.76009 0.71566 0.0
C1133 C 0.49577 0.69589 0.62254 0.0
C1134 C 0.48615 0.7914 0.86993 0.0
C1135 C 0.4809 0.7779 0.83475 0.0
C1136 C 0.49346 0.72906 0.77728 0.0
C1137 C 0.49822 0.7297 0.66808 0.0
C1138 C 0.49454 0.73686 0.70815 0.0
C1139 C 0.49363 0.76282 0.82499 0.0
C1140 C 0.49225 0.75285 0.78481 0.0
H1141 H 0.53333 0.76 0.58587 0.0
H1142 H 0.52153 0.77159 0.64759 0.0
H1143 H 0.4969 0.70352 0.73537 0.0
H1144 H 0.52837 0.77125 0.9086 0.0
H1145 H 0.52004 0.74828 0.84684 0.0
C1146 C 0.77332 0.52132 0.62265 0.0
C1147 C 0.79711 0.51967 0.61907 0.0
C1148 C 0.75939 0.51519 0.65784 0.0
C1149 C 0.77576 0.5174 0.76022 0.0
H1150 H 0.69822 0.48675 0.77574 0.0
C1151 C 0.73355 0.52046 0.90952 0.0
C1152 C 0.71455 0.52948 0.90921 0.0
C1153 C 0.74034 0.51216 0.87532 0.0
C1154 C 0.71996 0.49545 0.77192 0.0
H1155 H 0.82352 0.50795 0.64788 0.0
H1156 H 0.79895 0.49654 0.70844 0.0
H1157 H 0.71545 0.48523 0.71211 0.0
H1158 H 0.68643 0.53506 0.87339 0.0
H1159 H 0.69839 0.52114 0.81446 0.0
H1160 H 0.78058 0.5287 0.81931 0.0
C1161 C 0.79139 0.50329 0.68481 0.0
C1162 C 0.7298 0.49455 0.7354 0.0
C1163 C 0.80533 0.5096 0.64999 0.0
C1164 C 0.70133 0.52843 0.87464 0.0
C1165 C 0.70803 0.52016 0.84071 0.0
C1166 C 0.76598 0.51844 0.79658 0.0
C1167 C 0.76902 0.50722 0.68979 0.0
C1168 C 0.75788 0.50587 0.72899 0.0
C1169 C 0.72816 0.51262 0.84026 0.0
C1170 C 0.73799 0.50794 0.80284 0.0
H1171 H 0.76674 0.52933 0.59937 0.0
H1172 H 0.74223 0.51848 0.66071 0.0
H1173 H 0.79757 0.52677 0.75628 0.0
H1174 H 0.74406 0.52104 0.93571 0.0
H1175 H 0.75565 0.50609 0.87618 0.0
C1176 C 0.26587 0.80778 0.5877 0.0
C1177 C 0.27049 0.79049 0.56385 0.0
C1178 C 0.26001 0.80185 0.62658 0.0
C1179 C 0.2648 0.7617 0.70745 0.0
H1180 H 0.21086 0.77622 0.75249 0.0
C1181 C 0.21736 0.72698 0.86087 0.0
C1182 C 0.21002 0.7442 0.87991 0.0
C1183 C 0.2288 0.7337 0.82395 0.0
C1184 C 0.22632 0.77243 0.74063 0.0
H1185 H 0.27236 0.75315 0.56249 0.0
H1186 H 0.26165 0.74252 0.63053 0.0
H1187 H 0.22109 0.78443 0.68469 0.0
H1188 H 0.21053 0.78261 0.87694 0.0
H1189 H 0.23153 0.79498 0.8137 0.0
H1190 H 0.2696 0.74932 0.76383 0.0
C1191 C 0.26298 0.76094 0.61908 0.0
C1192 C 0.23215 0.7771 0.70157 0.0
C1193 C 0.26888 0.76691 0.57998 0.0
C1194 C 0.21631 0.76916 0.86297 0.0
C1195 C 0.22792 0.77599 0.82646 0.0
C1196 C 0.25888 0.75694 0.74676 0.0
C1197 C 0.25843 0.77834 0.64289 0.0
C1198 C 0.25166 0.77211 0.68442 0.0
C1199 C 0.23301 0.75773 0.80563 0.0
C1200 C 0.23978 0.76258 0.76393 0.0
H1201 H 0.26681 0.82607 0.5764 0.0
H1202 H 0.25703 0.81597 0.64401 0.0
H1203 H 0.28007 0.75777 0.69529 0.0
H1204 H 0.21209 0.70731 0.87302 0.0
H1205 H 0.23243 0.71915 0.80875 0.0
C1206 C 0.45667 0.21808 0.94563 0.0
C1207 C 0.46867 0.20399 0.96186 0.0
C1208 C 0.46573 0.23123 0.91026 0.0
C1209 C 0.4972 0.22475 0.82161 0.0
H1210 H 0.49238 0.28815 0.79184 0.0
C1211 C 0.49945 0.2927 0.68051 0.0
C1212 C 0.48261 0.27117 0.65601 0.0
C1213 C 0.50623 0.28741 0.71674 0.0
C1214 C 0.49441 0.27071 0.79952 0.0
H1215 H 0.49982 0.19298 0.95488 0.0
H1216 H 0.51631 0.21659 0.89337 0.0
H1217 H 0.48957 0.27612 0.8591 0.0
H1218 H 0.4607 0.22734 0.649 0.0
H1219 H 0.47197 0.21784 0.71262 0.0
H1220 H 0.50183 0.21926 0.76188 0.0
C1221 C 0.49985 0.21747 0.90776 0.0
C1222 C 0.49241 0.2636 0.83824 0.0
C1223 C 0.49075 0.20435 0.94323 0.0
C1224 C 0.47422 0.24429 0.66713 0.0
C1225 C 0.48064 0.23891 0.70373 0.0
C1226 C 0.49931 0.23193 0.7828 0.0
C1227 C 0.48681 0.23027 0.89019 0.0
C1228 C 0.49306 0.24014 0.84976 0.0
C1229 C 0.49568 0.2604 0.72968 0.0
C1230 C 0.4973 0.25466 0.77112 0.0
H1231 H 0.43908 0.21736 0.95903 0.0
H1232 H 0.45491 0.2405 0.89749 0.0
H1233 H 0.49755 0.20639 0.8293 0.0
H1234 H 0.50588 0.3136 0.67259 0.0
H1235 H 0.51845 0.30451 0.73544 0.0
C1236 C 0.29927 0.51253 0.86042 0.0
C1237 C 0.27901 0.49493 0.8861 0.0
C1238 C 0.29226 0.51867 0.82492 0.0
C1239 C 0.23298 0.50735 0.76358 0.0
H1240 H 0.2789 0.50579 0.68242 0.0
C1241 C 0.22139 0.47208 0.59606 0.0
C1242 C 0.20282 0.48009 0.58423 0.0
C1243 C 0.23486 0.48105 0.63123 0.0
C1244 C 0.26575 0.50615 0.70462 0.0
H1245 H 0.23562 0.47087 0.89594 0.0
H1246 H 0.22312 0.48072 0.83353 0.0
H1247 H 0.29273 0.50804 0.74857 0.0
H1248 H 0.18469 0.50469 0.59827 0.0
H1249 H 0.20932 0.52173 0.65852 0.0
H1250 H 0.20498 0.50328 0.71968 0.0
C1251 C 0.2445 0.49062 0.84092 0.0
C1252 C 0.27393 0.50794 0.74281 0.0
C1253 C 0.25159 0.485 0.87688 0.0
C1254 C 0.19929 0.49861 0.60668 0.0
C1255 C 0.21304 0.50794 0.64151 0.0
C1256 C 0.22462 0.50518 0.72538 0.0
C1257 C 0.26478 0.5066 0.81376 0.0
C1258 C 0.25745 0.50807 0.77297 0.0
C1259 C 0.2301 0.49834 0.65514 0.0
C1260 C 0.24064 0.50402 0.69535 0.0
H1261 H 0.32058 0.52027 0.86692 0.0
H1262 H 0.30848 0.53176 0.80546 0.0
H1263 H 0.21989 0.50782 0.78578 0.0
H1264 H 0.22388 0.45725 0.57963 0.0
H1265 H 0.24751 0.47287 0.64071 0.0
C1266 C 0.78245 0.25411 0.93626 0.0
C1267 C 0.80275 0.28026 0.94745 0.0
C1268 C 0.7701 0.25009 0.9002 0.0
C1269 C 0.78693 0.28272 0.8044 0.0
H1270 H 0.71516 0.22315 0.7788 0.0
C1271 C 0.76026 0.2303 0.65721 0.0
C1272 C 0.73324 0.21742 0.64437 0.0
C1273 C 0.76738 0.24418 0.69221 0.0
C1274 C 0.7351 0.24026 0.78533 0.0
H1275 H 0.82501 0.32289 0.93141 0.0
H1276 H 0.8026 0.31628 0.8695 0.0
H1277 H 0.72761 0.23468 0.84575 0.0
H1278 H 0.69269 0.20986 0.65669 0.0
H1279 H 0.70518 0.23497 0.71726 0.0
H1280 H 0.79448 0.28825 0.74405 0.0
C1281 C 0.79661 0.29866 0.88771 0.0
C1282 C 0.74238 0.24661 0.82387 0.0
C1283 C 0.80917 0.30256 0.92341 0.0
C1284 C 0.71382 0.22026 0.66562 0.0
C1285 C 0.72091 0.23419 0.70064 0.0
C1286 C 0.77961 0.27647 0.76591 0.0
C1287 C 0.77781 0.27223 0.87483 0.0
C1288 C 0.76863 0.26752 0.83399 0.0
C1289 C 0.74751 0.24522 0.71524 0.0
C1290 C 0.75385 0.25471 0.75582 0.0
H1291 H 0.77767 0.23655 0.95405 0.0
H1292 H 0.75593 0.22941 0.89129 0.0
H1293 H 0.80746 0.29876 0.81083 0.0
H1294 H 0.77536 0.22762 0.64183 0.0
H1295 H 0.78798 0.25209 0.70253 0.0
loop_
_geom_bond_atom_site_label_1
_geom_bond_atom_site_label_2
_geom_bond_distance
_geom_bond_site_symmetry_2
_ccdc_geom_bond_type
C0 C1 1.351 . S
C0 N3 1.368 . S
C0 H5 0.931 . S
C1 C0 1.351 . S
C1 N2 1.353 1_556 S
C1 H29 0.930 . S
N2 C1 1.353 1_554 S
N2 C4 1.349 . S
N3 C0 1.368 . S
N3 C4 1.321 1_556 S
N3 Co6 2.139 . S
C4 N2 1.349 . S
C4 N3 1.321 1_554 S
C4 H28 0.930 . S
H5 C0 0.931 . S
Co6 N3 2.139 . S
Co6 N9 2.116 1_556 S
Co6 O14 2.077 . S
Co6 O17 2.013 1_556 S
Co6 N20 2.139 1_556 S
C7 O8 1.227 . S
C7 O17 1.265 . S
O8 C7 1.227 . S
N9 Co6 2.116 1_554 S
N9 C11 1.375 . S
N9 C12 1.313 1_554 S
C10 C11 1.338 . S
C10 N13 1.377 1_554 S
C10 H30 0.930 . S
C11 N9 1.375 . S
C11 C10 1.338 . S
C11 H15 0.931 . S
C12 N9 1.313 1_556 S
C12 N13 1.344 . S
C12 H16 0.930 . S
N13 C10 1.377 1_556 S
N13 C12 1.344 . S
O14 Co6 2.077 . S
O14 C18 1.253 . S
H15 C11 0.931 . S
H16 C12 0.930 . S
O17 Co6 2.013 1_554 S
O17 C7 1.265 . S
C18 O14 1.253 . S
C18 O19 1.227 . S
O19 C18 1.227 . S
N20 Co6 2.139 1_554 S
N20 C23 1.346 . S
N20 C24 1.345 1_554 S
C21 C22 1.387 . S
C21 C25 1.391 1_554 S
C22 C21 1.387 . S
C22 C23 1.369 . S
C22 H31 0.929 . S
C23 N20 1.346 . S
C23 C22 1.369 . S
C23 H26 0.928 . S
C24 N20 1.345 1_556 S
C24 C25 1.371 . S
C24 H27 0.931 . S
C25 C21 1.391 1_556 S
C25 C24 1.371 . S
C25 H32 0.930 . S
H26 C23 0.928 . S
H27 C24 0.931 . S
H28 C4 0.930 . S
H29 C1 0.930 . S
H30 C10 0.930 . S
H31 C22 0.929 . S
H32 C25 0.930 . S
C33 C34 1.351 . S
C33 N36 1.368 . S
C33 H38 0.931 . S
C34 C33 1.351 . S
C34 N35 1.353 1_556 S
C34 H62 0.930 . S
N35 C34 1.353 1_554 S
N35 C37 1.349 . S
N36 C33 1.368 . S
N36 C37 1.321 1_556 S
N36 Co39 2.139 . S
C37 N35 1.349 . S
C37 N36 1.321 1_554 S
C37 H61 0.930 . S
H38 C33 0.931 . S
Co39 N36 2.139 . S
Co39 N42 2.116 1_556 S
Co39 O47 2.077 . S
Co39 O50 2.013 1_556 S
Co39 N53 2.139 1_556 S
C40 O41 1.227 . S
C40 O50 1.265 . S
O41 C40 1.227 . S
N42 Co39 2.116 1_554 S
N42 C44 1.375 . S
N42 C45 1.313 1_554 S
C43 C44 1.338 . S
C43 N46 1.377 1_554 S
C43 H63 0.930 . S
C44 N42 1.375 . S
C44 C43 1.338 . S
C44 H48 0.931 . S
C45 N42 1.313 1_556 S
C45 N46 1.344 . S
C45 H49 0.930 . S
N46 C43 1.377 1_556 S
N46 C45 1.344 . S
O47 Co39 2.077 . S
O47 C51 1.253 . S
H48 C44 0.931 . S
H49 C45 0.930 . S
O50 Co39 2.013 1_554 S
O50 C40 1.265 . S
C51 O47 1.253 . S
C51 O52 1.227 . S
O52 C51 1.227 . S
N53 Co39 2.139 1_554 S
N53 C56 1.346 . S
N53 C57 1.345 1_554 S
C54 C55 1.387 . S
C54 C58 1.391 1_554 S
C55 C54 1.387 . S
C55 C56 1.369 . S
C55 H64 0.929 . S
C56 N53 1.346 . S
C56 C55 1.369 . S
C56 H59 0.928 . S
C57 N53 1.345 1_556 S
C57 C58 1.371 . S
C57 H60 0.931 . S
C58 C54 1.391 1_556 S
C58 C57 1.371 . S
C58 H65 0.930 . S
H59 C56 0.928 . S
H60 C57 0.931 . S
H61 C37 0.930 . S
H62 C34 0.930 . S
H63 C43 0.930 . S
H64 C55 0.929 . S
H65 C58 0.930 . S
C66 C67 1.351 . S
C66 N69 1.368 . S
C66 H71 0.931 . S
C67 C66 1.351 . S
C67 N68 1.353 1_556 S
C67 H95 0.930 . S
N68 C67 1.353 1_554 S
N68 C70 1.349 . S
N69 C66 1.368 . S
N69 C70 1.321 1_556 S
N69 Co72 2.139 . S
C70 N68 1.349 . S
C70 N69 1.321 1_554 S
C70 H94 0.930 . S
H71 C66 0.931 . S
Co72 N69 2.139 . S
Co72 N75 2.116 1_556 S
Co72 O80 2.077 . S
Co72 O83 2.013 1_556 S
Co72 N86 2.139 1_556 S
C73 O74 1.227 . S
C73 O83 1.265 . S
O74 C73 1.227 . S
N75 Co72 2.116 1_554 S
N75 C77 1.375 . S
N75 C78 1.313 1_554 S
C76 C77 1.338 . S
C76 N79 1.377 1_554 S
C76 H96 0.930 . S
C77 N75 1.375 . S
C77 C76 1.338 . S
C77 H81 0.931 . S
C78 N75 1.313 1_556 S
C78 N79 1.344 . S
C78 H82 0.930 . S
N79 C76 1.377 1_556 S
N79 C78 1.344 . S
O80 Co72 2.077 . S
O80 C84 1.253 . S
H81 C77 0.931 . S
H82 C78 0.930 . S
O83 Co72 2.013 1_554 S
O83 C73 1.265 . S
C84 O80 1.253 . S
C84 O85 1.227 . S
O85 C84 1.227 . S
N86 Co72 2.139 1_554 S
N86 C89 1.346 . S
N86 C90 1.345 1_554 S
C87 C88 1.387 . S
C87 C91 1.391 1_554 S
C88 C87 1.387 . S
C88 C89 1.369 . S
C88 H97 0.929 . S
C89 N86 1.346 . S
C89 C88 1.369 . S
C89 H92 0.928 . S
C90 N86 1.345 1_556 S
C90 C91 1.371 . S
C90 H93 0.931 . S
C91 C87 1.391 1_556 S
C91 C90 1.371 . S
C91 H98 0.930 . S
H92 C89 0.928 . S
H93 C90 0.931 . S
H94 C70 0.930 . S
H95 C67 0.930 . S
H96 C76 0.930 . S
H97 C88 0.929 . S
H98 C91 0.930 . S
C99 C100 1.351 . S
C99 N102 1.368 . S
C99 H104 0.931 . S
C100 C99 1.351 . S
C100 N101 1.353 1_556 S
C100 H128 0.930 . S
N101 C100 1.353 1_554 S
N101 C103 1.349 . S
N102 C99 1.368 . S
N102 C103 1.321 1_556 S
N102 Co105 2.139 . S
C103 N101 1.349 . S
C103 N102 1.321 1_554 S
C103 H127 0.930 . S
H104 C99 0.931 . S
Co105 N102 2.139 . S
Co105 N108 2.116 1_556 S
Co105 O113 2.077 . S
Co105 O116 2.013 1_556 S
Co105 N119 2.139 1_556 S
C106 O107 1.227 . S
C106 O116 1.265 . S
O107 C106 1.227 . S
N108 Co105 2.116 1_554 S
N108 C110 1.375 . S
N108 C111 1.313 1_554 S
C109 C110 1.338 . S
C109 N112 1.377 1_554 S
C109 H129 0.930 . S
C110 N108 1.375 . S
C110 C109 1.338 . S
C110 H114 0.931 . S
C111 N108 1.313 1_556 S
C111 N112 1.344 . S
C111 H115 0.930 . S
N112 C109 1.377 1_556 S
N112 C111 1.344 . S
O113 Co105 2.077 . S
O113 C117 1.253 . S
H114 C110 0.931 . S
H115 C111 0.930 . S
O116 Co105 2.013 1_554 S
O116 C106 1.265 . S
C117 O113 1.253 . S
C117 O118 1.227 . S
O118 C117 1.227 . S
N119 Co105 2.139 1_554 S
N119 C122 1.346 . S
N119 C123 1.345 1_554 S
C120 C121 1.387 . S
C120 C124 1.391 1_554 S
C121 C120 1.387 . S
C121 C122 1.369 . S
C121 H130 0.929 . S
C122 N119 1.346 . S
C122 C121 1.369 . S
C122 H125 0.928 . S
C123 N119 1.345 1_556 S
C123 C124 1.371 . S
C123 H126 0.931 . S
C124 C120 1.391 1_556 S
C124 C123 1.371 . S
C124 H131 0.930 . S
H125 C122 0.928 . S
H126 C123 0.931 . S
H127 C103 0.930 . S
H128 C100 0.930 . S
H129 C109 0.930 . S
H130 C121 0.929 . S
H131 C124 0.930 . S
C132 C133 1.351 . S
C132 N135 1.368 . S
C132 H137 0.931 . S
C133 C132 1.351 . S
C133 N134 1.353 1_556 S
C133 H161 0.930 . S
N134 C133 1.353 1_554 S
N134 C136 1.349 . S
N135 C132 1.368 . S
N135 C136 1.321 1_556 S
N135 Co138 2.139 . S
C136 N134 1.349 . S
C136 N135 1.321 1_554 S
C136 H160 0.930 . S
H137 C132 0.931 . S
Co138 N135 2.139 . S
Co138 N141 2.116 1_556 S
Co138 O146 2.077 . S
Co138 O149 2.013 1_556 S
Co138 N152 2.139 1_556 S
C139 O140 1.227 . S
C139 O149 1.265 . S
O140 C139 1.227 . S
N141 Co138 2.116 1_554 S
N141 C143 1.375 . S
N141 C144 1.313 1_554 S
C142 C143 1.338 . S
C142 N145 1.377 1_554 S
C142 H162 0.930 . S
C143 N141 1.375 . S
C143 C142 1.338 . S
C143 H147 0.931 . S
C144 N141 1.313 1_556 S
C144 N145 1.344 . S
C144 H148 0.930 . S
N145 C142 1.377 1_556 S
N145 C144 1.344 . S
O146 Co138 2.077 . S
O146 C150 1.253 . S
H147 C143 0.931 . S
H148 C144 0.930 . S
O149 Co138 2.013 1_554 S
O149 C139 1.265 . S
C150 O146 1.253 . S
C150 O151 1.227 . S
O151 C150 1.227 . S
N152 Co138 2.139 1_554 S
N152 C155 1.346 . S
N152 C156 1.345 1_554 S
C153 C154 1.387 . S
C153 C157 1.391 1_554 S
C154 C153 1.387 . S
C154 C155 1.369 . S
C154 H163 0.929 . S
C155 N152 1.346 . S
C155 C154 1.369 . S
C155 H158 0.928 . S
C156 N152 1.345 1_556 S
C156 C157 1.371 . S
C156 H159 0.931 . S
C157 C153 1.391 1_556 S
C157 C156 1.371 . S
C157 H164 0.930 . S
H158 C155 0.928 . S
H159 C156 0.931 . S
H160 C136 0.930 . S
H161 C133 0.930 . S
H162 C142 0.930 . S
H163 C154 0.929 . S
H164 C157 0.930 . S
C165 C166 1.351 . S
C165 N168 1.368 . S
C165 H170 0.931 . S
C166 C165 1.351 . S
C166 N167 1.353 1_556 S
C166 H194 0.930 . S
N167 C166 1.353 1_554 S
N167 C169 1.349 . S
N168 C165 1.368 . S
N168 C169 1.321 1_556 S
N168 Co171 2.139 . S
C169 N167 1.349 . S
C169 N168 1.321 1_554 S
C169 H193 0.930 . S
H170 C165 0.931 . S
Co171 N168 2.139 . S
Co171 N174 2.116 1_556 S
Co171 O179 2.077 . S
Co171 O182 2.013 1_556 S
Co171 N185 2.139 1_556 S
C172 O173 1.227 . S
C172 O182 1.265 . S
O173 C172 1.227 . S
N174 Co171 2.116 1_554 S
N174 C176 1.375 . S
N174 C177 1.313 1_554 S
C175 C176 1.338 . S
C175 N178 1.377 1_554 S
C175 H195 0.930 . S
C176 N174 1.375 . S
C176 C175 1.338 . S
C176 H180 0.931 . S
C177 N174 1.313 1_556 S
C177 N178 1.344 . S
C177 H181 0.930 . S
N178 C175 1.377 1_556 S
N178 C177 1.344 . S
O179 Co171 2.077 . S
O179 C183 1.253 . S
H180 C176 0.931 . S
H181 C177 0.930 . S
O182 Co171 2.013 1_554 S
O182 C172 1.265 . S
C183 O179 1.253 . S
C183 O184 1.227 . S
O184 C183 1.227 . S
N185 Co171 2.139 1_554 S
N185 C188 1.346 . S
N185 C189 1.345 1_554 S
C186 C187 1.387 . S
C186 C190 1.391 1_554 S
C187 C186 1.387 . S
C187 C188 1.369 . S
C187 H196 0.929 . S
C188 N185 1.346 . S
C188 C187 1.369 . S
C188 H191 0.928 . S
C189 N185 1.345 1_556 S
C189 C190 1.371 . S
C189 H192 0.931 . S
C190 C186 1.391 1_556 S
C190 C189 1.371 . S
C190 H197 0.930 . S
H191 C188 0.928 . S
H192 C189 0.931 . S
H193 C169 0.930 . S
H194 C166 0.930 . S
H195 C175 0.930 . S
H196 C187 0.929 . S
H197 C190 0.930 . S
C198 C199 1.351 . S
C198 N201 1.368 . S
C198 H203 0.931 . S
C199 C198 1.351 . S
C199 N200 1.373 . S
C199 H227 0.930 . S
N200 C199 1.373 . S
N200 C202 1.340 . S
N201 C198 1.368 . S
N201 C202 1.321 . S
N201 Co204 2.135 . S
C202 N200 1.340 . S
C202 N201 1.321 . S
C202 H226 0.930 . S
H203 C198 0.931 . S
Co204 N201 2.135 . S
Co204 N207 2.121 . S
Co204 O212 2.055 . S
Co204 O215 2.039 . S
Co204 N218 2.140 . S
C205 O206 1.227 . S
C205 O215 1.265 . S
O206 C205 1.227 . S
N207 Co204 2.121 . S
N207 C209 1.375 . S
N207 C210 1.313 . S
C208 C209 1.338 . S
C208 N211 1.377 . S
C208 H228 0.930 . S
C209 N207 1.375 . S
C209 C208 1.338 . S
C209 H213 0.931 . S
C210 N207 1.313 . S
C210 N211 1.344 . S
C210 H214 0.930 . S
N211 C208 1.377 . S
N211 C210 1.344 . S
O212 Co204 2.055 . S
O212 C216 1.253 . S
H213 C209 0.931 . S
H214 C210 0.930 . S
O215 Co204 2.039 . S
O215 C205 1.265 . S
C216 O212 1.253 . S
C216 O217 1.227 . S
O217 C216 1.227 . S
N218 Co204 2.140 . S
N218 C221 1.346 . S
N218 C222 1.345 . S
C219 C220 1.387 . S
C219 C223 1.391 . S
C220 C219 1.387 . S
C220 C221 1.369 . S
C220 H229 0.929 . S
C221 N218 1.346 . S
C221 C220 1.369 . S
C221 H224 0.928 . S
C222 N218 1.345 . S
C222 C223 1.371 . S
C222 H225 0.931 . S
C223 C219 1.391 . S
C223 C222 1.371 . S
C223 H230 0.930 . S
H224 C221 0.928 . S
H225 C222 0.931 . S
H226 C202 0.930 . S
H227 C199 0.930 . S
H228 C208 0.930 . S
H229 C220 0.929 . S
H230 C223 0.930 . S
C231 C232 1.351 . S
C231 N234 1.368 . S
C231 H236 0.931 . S
C232 C231 1.351 . S
C232 N233 1.373 . S
C232 H260 0.930 . S
N233 C232 1.373 . S
N233 C235 1.340 . S
N234 C231 1.368 . S
N234 C235 1.321 . S
N234 Co237 2.135 . S
C235 N233 1.340 . S
C235 N234 1.321 . S
C235 H259 0.930 . S
H236 C231 0.931 . S
Co237 N234 2.135 . S
Co237 N240 2.121 . S
Co237 O245 2.055 . S
Co237 O248 2.039 . S
Co237 N251 2.140 . S
C238 O239 1.227 . S
C238 O248 1.265 . S
O239 C238 1.227 . S
N240 Co237 2.121 . S
N240 C242 1.375 . S
N240 C243 1.313 . S
C241 C242 1.338 . S
C241 N244 1.377 . S
C241 H261 0.930 . S
C242 N240 1.375 . S
C242 C241 1.338 . S
C242 H246 0.931 . S
C243 N240 1.313 . S
C243 N244 1.344 . S
C243 H247 0.930 . S
N244 C241 1.377 . S
N244 C243 1.344 . S
O245 Co237 2.055 . S
O245 C249 1.253 . S
H246 C242 0.931 . S
H247 C243 0.930 . S
O248 Co237 2.039 . S
O248 C238 1.265 . S
C249 O245 1.253 . S
C249 O250 1.227 . S
O250 C249 1.227 . S
N251 Co237 2.140 . S
N251 C254 1.346 . S
N251 C255 1.345 . S
C252 C253 1.387 . S
C252 C256 1.391 . S
C253 C252 1.387 . S
C253 C254 1.369 . S
C253 H262 0.929 . S
C254 N251 1.346 . S
C254 C253 1.369 . S
C254 H257 0.928 . S
C255 N251 1.345 . S
C255 C256 1.371 . S
C255 H258 0.931 . S
C256 C252 1.391 . S
C256 C255 1.371 . S
C256 H263 0.930 . S
H257 C254 0.928 . S
H258 C255 0.931 . S
H259 C235 0.930 . S
H260 C232 0.930 . S
H261 C241 0.930 . S
H262 C253 0.929 . S
H263 C256 0.930 . S
C264 C265 1.351 . S
C264 N267 1.368 . S
C264 H269 0.931 . S
C265 C264 1.351 . S
C265 N266 1.373 . S
C265 H293 0.930 . S
N266 C265 1.373 . S
N266 C268 1.340 . S
N267 C264 1.368 . S
N267 C268 1.321 . S
N267 Co270 2.135 . S
C268 N266 1.340 . S
C268 N267 1.321 . S
C268 H292 0.930 . S
H269 C264 0.931 . S
Co270 N267 2.135 . S
Co270 N273 2.121 . S
Co270 O278 2.055 . S
Co270 O281 2.039 . S
Co270 N284 2.140 . S
C271 O272 1.227 . S
C271 O281 1.265 . S
O272 C271 1.227 . S
N273 Co270 2.121 . S
N273 C275 1.375 . S
N273 C276 1.313 . S
C274 C275 1.338 . S
C274 N277 1.377 . S
C274 H294 0.930 . S
C275 N273 1.375 . S
C275 C274 1.338 . S
C275 H279 0.931 . S
C276 N273 1.313 . S
C276 N277 1.344 . S
C276 H280 0.930 . S
N277 C274 1.377 . S
N277 C276 1.344 . S
O278 Co270 2.055 . S
O278 C282 1.253 . S
H279 C275 0.931 . S
H280 C276 0.930 . S
O281 Co270 2.039 . S
O281 C271 1.265 . S
C282 O278 1.253 . S
C282 O283 1.227 . S
O283 C282 1.227 . S
N284 Co270 2.140 . S
N284 C287 1.346 . S
N284 C288 1.345 . S
C285 C286 1.387 . S
C285 C289 1.391 . S
C286 C285 1.387 . S
C286 C287 1.369 . S
C286 H295 0.929 . S
C287 N284 1.346 . S
C287 C286 1.369 . S
C287 H290 0.928 . S
C288 N284 1.345 . S
C288 C289 1.371 . S
C288 H291 0.931 . S
C289 C285 1.391 . S
C289 C288 1.371 . S
C289 H296 0.930 . S
H290 C287 0.928 . S
H291 C288 0.931 . S
H292 C268 0.930 . S
H293 C265 0.930 . S
H294 C274 0.930 . S
H295 C286 0.929 . S
H296 C289 0.930 . S
C297 C298 1.351 . S
C297 N300 1.368 . S
C297 H302 0.931 . S
C298 C297 1.351 . S
C298 N299 1.373 . S
C298 H326 0.930 . S
N299 C298 1.373 . S
N299 C301 1.340 . S
N300 C297 1.368 . S
N300 C301 1.321 . S
N300 Co303 2.135 . S
C301 N299 1.340 . S
C301 N300 1.321 . S
C301 H325 0.930 . S
H302 C297 0.931 . S
Co303 N300 2.135 . S
Co303 N306 2.121 . S
Co303 O311 2.055 . S
Co303 O314 2.039 . S
Co303 N317 2.140 . S
C304 O305 1.227 . S
C304 O314 1.265 . S
O305 C304 1.227 . S
N306 Co303 2.121 . S
N306 C308 1.375 . S
N306 C309 1.313 . S
C307 C308 1.338 . S
C307 N310 1.377 . S
C307 H327 0.930 . S
C308 N306 1.375 . S
C308 C307 1.338 . S
C308 H312 0.931 . S
C309 N306 1.313 . S
C309 N310 1.344 . S
C309 H313 0.930 . S
N310 C307 1.377 . S
N310 C309 1.344 . S
O311 Co303 2.055 . S
O311 C315 1.253 . S
H312 C308 0.931 . S
H313 C309 0.930 . S
O314 Co303 2.039 . S
O314 C304 1.265 . S
C315 O311 1.253 . S
C315 O316 1.227 . S
O316 C315 1.227 . S
N317 Co303 2.140 . S
N317 C320 1.346 . S
N317 C321 1.345 . S
C318 C319 1.387 . S
C318 C322 1.391 . S
C319 C318 1.387 . S
C319 C320 1.369 . S
C319 H328 0.929 . S
C320 N317 1.346 . S
C320 C319 1.369 . S
C320 H323 0.928 . S
C321 N317 1.345 . S
C321 C322 1.371 . S
C321 H324 0.931 . S
C322 C318 1.391 . S
C322 C321 1.371 . S
C322 H329 0.930 . S
H323 C320 0.928 . S
H324 C321 0.931 . S
H325 C301 0.930 . S
H326 C298 0.930 . S
H327 C307 0.930 . S
H328 C319 0.929 . S
H329 C322 0.930 . S
C330 C331 1.351 . S
C330 N333 1.368 . S
C330 H335 0.931 . S
C331 C330 1.351 . S
C331 N332 1.373 . S
C331 H359 0.930 . S
N332 C331 1.373 . S
N332 C334 1.340 . S
N333 C330 1.368 . S
N333 C334 1.321 . S
N333 Co336 2.135 . S
C334 N332 1.340 . S
C334 N333 1.321 . S
C334 H358 0.930 . S
H335 C330 0.931 . S
Co336 N333 2.135 . S
Co336 N339 2.121 . S
Co336 O344 2.055 . S
Co336 O347 2.039 . S
Co336 N350 2.140 . S
C337 O338 1.227 . S
C337 O347 1.265 . S
O338 C337 1.227 . S
N339 Co336 2.121 . S
N339 C341 1.375 . S
N339 C342 1.313 . S
C340 C341 1.338 . S
C340 N343 1.377 . S
C340 H360 0.930 . S
C341 N339 1.375 . S
C341 C340 1.338 . S
C341 H345 0.931 . S
C342 N339 1.313 . S
C342 N343 1.344 . S
C342 H346 0.930 . S
N343 C340 1.377 . S
N343 C342 1.344 . S
O344 Co336 2.055 . S
O344 C348 1.253 . S
H345 C341 0.931 . S
H346 C342 0.930 . S
O347 Co336 2.039 . S
O347 C337 1.265 . S
C348 O344 1.253 . S
C348 O349 1.227 . S
O349 C348 1.227 . S
N350 Co336 2.140 . S
N350 C353 1.346 . S
N350 C354 1.345 . S
C351 C352 1.387 . S
C351 C355 1.391 . S
C352 C351 1.387 . S
C352 C353 1.369 . S
C352 H361 0.929 . S
C353 N350 1.346 . S
C353 C352 1.369 . S
C353 H356 0.928 . S
C354 N350 1.345 . S
C354 C355 1.371 . S
C354 H357 0.931 . S
C355 C351 1.391 . S
C355 C354 1.371 . S
C355 H362 0.930 . S
H356 C353 0.928 . S
H357 C354 0.931 . S
H358 C334 0.930 . S
H359 C331 0.930 . S
H360 C340 0.930 . S
H361 C352 0.929 . S
H362 C355 0.930 . S
C363 C364 1.351 . S
C363 N366 1.368 . S
C363 H368 0.931 . S
C364 C363 1.351 . S
C364 N365 1.373 . S
C364 H392 0.930 . S
N365 C364 1.373 . S
N365 C367 1.340 . S
N366 C363 1.368 . S
N366 C367 1.321 . S
N366 Co369 2.135 . S
C367 N365 1.340 . S
C367 N366 1.321 . S
C367 H391 0.930 . S
H368 C363 0.931 . S
Co369 N366 2.135 . S
Co369 N372 2.121 . S
Co369 O377 2.055 . S
Co369 O380 2.039 . S
Co369 N383 2.140 . S
C370 O371 1.227 . S
C370 O380 1.265 . S
O371 C370 1.227 . S
N372 Co369 2.121 . S
N372 C374 1.375 . S
N372 C375 1.313 . S
C373 C374 1.338 . S
C373 N376 1.377 . S
C373 H393 0.930 . S
C374 N372 1.375 . S
C374 C373 1.338 . S
C374 H378 0.931 . S
C375 N372 1.313 . S
C375 N376 1.344 . S
C375 H379 0.930 . S
N376 C373 1.377 . S
N376 C375 1.344 . S
O377 Co369 2.055 . S
O377 C381 1.253 . S
H378 C374 0.931 . S
H379 C375 0.930 . S
O380 Co369 2.039 . S
O380 C370 1.265 . S
C381 O377 1.253 . S
C381 O382 1.227 . S
O382 C381 1.227 . S
N383 Co369 2.140 . S
N383 C386 1.346 . S
N383 C387 1.345 . S
C384 C385 1.387 . S
C384 C388 1.391 . S
C385 C384 1.387 . S
C385 C386 1.369 . S
C385 H394 0.929 . S
C386 N383 1.346 . S
C386 C385 1.369 . S
C386 H389 0.928 . S
C387 N383 1.345 . S
C387 C388 1.371 . S
C387 H390 0.931 . S
C388 C384 1.391 . S
C388 C387 1.371 . S
C388 H395 0.930 . S
H389 C386 0.928 . S
H390 C387 0.931 . S
H391 C367 0.930 . S
H392 C364 0.930 . S
H393 C373 0.930 . S
H394 C385 0.929 . S
H395 C388 0.930 . S
C396 C397 1.349 . S
C396 C398 1.327 . S
C396 H421 0.950 . S
C397 C396 1.349 . S
C397 C413 1.349 1_554 S
C398 C396 1.327 . S
C398 C417 1.429 . S
C398 H422 0.950 . S
C399 C416 1.528 1_545 S
C399 C418 1.368 1_556 S
C399 H423 0.949 . S
H400 C404 0.949 . S
C401 C402 1.349 1_556 S
C401 C403 1.327 . S
C401 H424 0.950 . S
C402 C401 1.349 1_554 S
C402 C414 1.349 . S
C403 C401 1.327 . S
C403 C419 1.429 1_556 S
C403 H425 0.950 . S
C404 H400 0.949 . S
C404 C412 1.528 1_565 S
C404 C420 1.368 . S
H405 C413 0.950 . S
H406 C411 0.950 . S
H407 C412 0.969 . S
H408 C414 0.950 . S
H409 C415 0.950 . S
H410 C416 0.969 . S
C411 H406 0.950 . S
C411 C413 1.327 . S
C411 C417 1.429 1_556 S
C412 C404 1.528 1_545 S
C412 H407 0.969 . S
C412 C418 1.393 . S
C413 C397 1.349 1_556 S
C413 H405 0.950 . S
C413 C411 1.327 . S
C414 C402 1.349 . S
C414 H408 0.950 . S
C414 C415 1.327 . S
C415 H409 0.950 . S
C415 C414 1.327 . S
C415 C419 1.429 . S
C416 C399 1.528 1_565 S
C416 H410 0.969 . S
C416 C420 1.393 1_556 S
C417 C398 1.429 . S
C417 C411 1.429 1_554 S
C417 C418 1.523 . S
C418 C399 1.368 1_554 S
C418 C412 1.393 . S
C418 C417 1.523 . S
C419 C403 1.429 1_554 S
C419 C415 1.429 . S
C419 C420 1.523 . S
C420 C404 1.368 . S
C420 C416 1.393 1_554 S
C420 C419 1.523 . S
H421 C396 0.950 . S
H422 C398 0.950 . S
H423 C399 0.949 . S
H424 C401 0.950 . S
H425 C403 0.950 . S
C426 C427 1.349 1_556 S
C426 C428 1.327 . S
C426 H451 0.950 . S
C427 C426 1.349 1_554 S
C427 C443 1.349 . S
C428 C426 1.327 . S
C428 C447 1.429 1_556 S
C428 H452 0.950 . S
C429 C446 1.574 . S
C429 C448 1.368 . S
C429 H453 0.949 . S
H430 C434 0.949 . S
C431 C432 1.349 . S
C431 C433 1.327 . S
C431 H454 0.950 . S
C432 C431 1.349 . S
C432 C444 1.349 1_554 S
C433 C431 1.327 . S
C433 C449 1.429 . S
C433 H455 0.950 . S
C434 H430 0.949 . S
C434 C442 1.574 . S
C434 C450 1.368 1_556 S
H435 C443 0.950 . S
H436 C441 0.950 . S
H437 C442 0.949 . S
H438 C444 0.950 . S
H439 C445 0.950 . S
H440 C446 0.949 . S
C441 H436 0.950 . S
C441 C443 1.327 . S
C441 C447 1.429 . S
C442 C434 1.574 . S
C442 H437 0.949 . S
C442 C448 1.368 1_556 S
C443 C427 1.349 . S
C443 H435 0.950 . S
C443 C441 1.327 . S
C444 C432 1.349 1_556 S
C444 H438 0.950 . S
C444 C445 1.327 . S
C445 H439 0.950 . S
C445 C444 1.327 . S
C445 C449 1.429 1_556 S
C446 C429 1.574 . S
C446 H440 0.949 . S
C446 C450 1.368 . S
C447 C428 1.429 1_554 S
C447 C441 1.429 . S
C447 C448 1.523 . S
C448 C429 1.368 . S
C448 C442 1.368 1_554 S
C448 C447 1.523 . S
C449 C433 1.429 . S
C449 C445 1.429 1_554 S
C449 C450 1.523 . S
C450 C434 1.368 1_554 S
C450 C446 1.368 . S
C450 C449 1.523 . S
H451 C426 0.950 . S
H452 C428 0.950 . S
H453 C429 0.949 . S
H454 C431 0.950 . S
H455 C433 0.950 . S
C456 C457 1.349 1_556 S
C456 C458 1.327 . S
C456 H481 0.950 . S
C457 C456 1.349 1_554 S
C457 C473 1.349 . S
C458 C456 1.327 . S
C458 C477 1.429 1_556 S
C458 H482 0.950 . S
C459 C476 1.562 1_455 S
C459 C478 1.398 . S
C459 H483 0.935 . S
H460 C464 0.935 . S
C461 C462 1.349 . S
C461 C463 1.327 . S
C461 H484 0.950 . S
C462 C461 1.349 . S
C462 C474 1.349 1_554 S
C463 C461 1.327 . S
C463 C479 1.429 . S
C463 H485 0.950 . S
C464 H460 0.935 . S
C464 C472 1.562 1_655 S
C464 C480 1.398 1_556 S
H465 C473 0.950 . S
H466 C471 0.950 . S
H467 C472 0.949 . S
H468 C474 0.950 . S
H469 C475 0.950 . S
H470 C476 0.949 . S
C471 H466 0.950 . S
C471 C473 1.327 . S
C471 C477 1.429 . S
C472 C464 1.562 1_455 S
C472 H467 0.949 . S
C472 C478 1.368 1_556 S
C473 C457 1.349 . S
C473 H465 0.950 . S
C473 C471 1.327 . S
C474 C462 1.349 1_556 S
C474 H468 0.950 . S
C474 C475 1.327 . S
C475 H469 0.950 . S
C475 C474 1.327 . S
C475 C479 1.429 1_556 S
C476 C459 1.562 1_655 S
C476 H470 0.949 . S
C476 C480 1.368 . S
C477 C458 1.429 1_554 S
C477 C471 1.429 . S
C477 C478 1.523 . S
C478 C459 1.398 . S
C478 C472 1.368 1_554 S
C478 C477 1.523 . S
C479 C463 1.429 . S
C479 C475 1.429 1_554 S
C479 C480 1.523 . S
C480 C464 1.398 1_554 S
C480 C476 1.368 . S
C480 C479 1.523 . S
H481 C456 0.950 . S
H482 C458 0.950 . S
H483 C459 0.935 . S
H484 C461 0.950 . S
H485 C463 0.950 . S
C486 C487 1.349 . S
C486 C488 1.327 . S
C486 H511 0.950 . S
C487 C486 1.349 . S
C487 C503 1.349 . S
C488 C486 1.327 . S
C488 C507 1.429 . S
C488 H512 0.950 . S
C489 C506 1.528 1_455 S
C489 C508 1.368 . S
C489 H513 0.949 . S
H490 C494 0.949 . S
C491 C492 1.349 . S
C491 C493 1.327 . S
C491 H514 0.950 . S
C492 C491 1.349 . S
C492 C504 1.349 . S
C493 C491 1.327 . S
C493 C509 1.429 . S
C493 H515 0.950 . S
C494 H490 0.949 . S
C494 C502 1.528 1_655 S
C494 C510 1.368 . S
H495 C503 0.950 . S
H496 C501 0.950 . S
H497 C502 0.969 . S
H498 C504 0.950 . S
H499 C505 0.950 . S
H500 C506 0.969 . S
C501 H496 0.950 . S
C501 C503 1.327 . S
C501 C507 1.429 . S
C502 C494 1.528 1_455 S
C502 H497 0.969 . S
C502 C508 1.393 . S
C503 C487 1.349 . S
C503 H495 0.950 . S
C503 C501 1.327 . S
C504 C492 1.349 . S
C504 H498 0.950 . S
C504 C505 1.327 . S
C505 H499 0.950 . S
C505 C504 1.327 . S
C505 C509 1.429 . S
C506 C489 1.528 1_655 S
C506 H500 0.969 . S
C506 C510 1.393 . S
C507 C488 1.429 . S
C507 C501 1.429 . S
C507 C508 1.523 . S
C508 C489 1.368 . S
C508 C502 1.393 . S
C508 C507 1.523 . S
C509 C493 1.429 . S
C509 C505 1.429 . S
C509 C510 1.523 . S
C510 C494 1.368 . S
C510 C506 1.393 . S
C510 C509 1.523 . S
H511 C486 0.950 . S
H512 C488 0.950 . S
H513 C489 0.949 . S
H514 C491 0.950 . S
H515 C493 0.950 . S
C516 C517 1.349 . S
C516 C518 1.327 . S
C516 H541 0.950 . S
C517 C516 1.349 . S
C517 C533 1.349 . S
C518 C516 1.327 . S
C518 C537 1.429 . S
C518 H542 0.950 . S
C519 C536 1.562 1_545 S
C519 C538 1.398 . S
C519 H543 0.935 . S
H520 C524 0.935 . S
C521 C522 1.349 . S
C521 C523 1.327 . S
C521 H544 0.950 . S
C522 C521 1.349 . S
C522 C534 1.349 . S
C523 C521 1.327 . S
C523 C539 1.429 . S
C523 H545 0.950 . S
C524 H520 0.935 . S
C524 C532 1.562 1_565 S
C524 C540 1.398 . S
H525 C533 0.950 . S
H526 C531 0.950 . S
H527 C532 0.949 . S
H528 C534 0.950 . S
H529 C535 0.950 . S
H530 C536 0.949 . S
C531 H526 0.950 . S
C531 C533 1.327 . S
C531 C537 1.429 . S
C532 C524 1.562 1_545 S
C532 H527 0.949 . S
C532 C538 1.368 . S
C533 C517 1.349 . S
C533 H525 0.950 . S
C533 C531 1.327 . S
C534 C522 1.349 . S
C534 H528 0.950 . S
C534 C535 1.327 . S
C535 H529 0.950 . S
C535 C534 1.327 . S
C535 C539 1.429 . S
C536 C519 1.562 1_565 S
C536 H530 0.949 . S
C536 C540 1.368 . S
C537 C518 1.429 . S
C537 C531 1.429 . S
C537 C538 1.523 . S
C538 C519 1.398 . S
C538 C532 1.368 . S
C538 C537 1.523 . S
C539 C523 1.429 . S
C539 C535 1.429 . S
C539 C540 1.523 . S
C540 C524 1.398 . S
C540 C536 1.368 . S
C540 C539 1.523 . S
H541 C516 0.950 . S
H542 C518 0.950 . S
H543 C519 0.935 . S
H544 C521 0.950 . S
H545 C523 0.950 . S
C546 C547 1.349 . S
C546 C548 1.327 . S
C546 H571 0.950 . S
C547 C546 1.349 . S
C547 C563 1.349 . S
C548 C546 1.327 . S
C548 C567 1.429 . S
C548 H572 0.950 . S
C549 C566 1.574 . S
C549 C568 1.368 . S
C549 H573 0.949 . S
H550 C554 0.949 . S
C551 C552 1.349 . S
C551 C553 1.327 . S
C551 H574 0.950 . S
C552 C551 1.349 . S
C552 C564 1.349 . S
C553 C551 1.327 . S
C553 C569 1.429 . S
C553 H575 0.950 . S
C554 H550 0.949 . S
C554 C562 1.574 . S
C554 C570 1.368 . S
H555 C563 0.950 . S
H556 C561 0.950 . S
H557 C562 0.949 . S
H558 C564 0.950 . S
H559 C565 0.950 . S
H560 C566 0.949 . S
C561 H556 0.950 . S
C561 C563 1.327 . S
C561 C567 1.429 . S
C562 C554 1.574 . S
C562 H557 0.949 . S
C562 C568 1.368 . S
C563 C547 1.349 . S
C563 H555 0.950 . S
C563 C561 1.327 . S
C564 C552 1.349 . S
C564 H558 0.950 . S
C564 C565 1.327 . S
C565 H559 0.950 . S
C565 C564 1.327 . S
C565 C569 1.429 . S
C566 C549 1.574 . S
C566 H560 0.949 . S
C566 C570 1.368 . S
C567 C548 1.429 . S
C567 C561 1.429 . S
C567 C568 1.523 . S
C568 C549 1.368 . S
C568 C562 1.368 . S
C568 C567 1.523 . S
C569 C553 1.429 . S
C569 C565 1.429 . S
C569 C570 1.523 . S
C570 C554 1.368 . S
C570 C566 1.368 . S
C570 C569 1.523 . S
H571 C546 0.950 . S
H572 C548 0.950 . S
H573 C549 0.949 . S
H574 C551 0.950 . S
H575 C553 0.950 . S
C576 C577 1.349 . S
C576 C578 1.327 . S
C576 H601 0.950 . S
C577 C576 1.349 . S
C577 C593 1.349 1_554 S
C578 C576 1.327 . S
C578 C597 1.449 1_545 S
C578 H602 0.949 1_545 S
C579 C596 1.574 . S
C579 C598 1.368 . S
C579 H603 0.949 . S
H580 C584 0.949 . S
C581 C582 1.349 . S
C581 C583 1.327 . S
C581 H604 0.950 . S
C582 C581 1.349 . S
C582 C594 1.349 1_556 S
C583 C581 1.327 . S
C583 C599 1.429 . S
C583 H605 0.950 . S
C584 H580 0.949 . S
C584 C592 1.574 . S
C584 C600 1.368 1_554 S
H585 C593 0.950 . S
H586 C591 0.950 1_565 S
H587 C592 0.949 . S
H588 C594 0.950 . S
H589 C595 0.950 . S
H590 C596 0.949 . S
C591 H586 0.950 1_545 S
C591 C593 1.327 . S
C591 C597 1.410 1_546 S
C592 C584 1.574 . S
C592 H587 0.949 . S
C592 C598 1.368 1_554 S
C593 C577 1.349 1_556 S
C593 H585 0.950 . S
C593 C591 1.327 . S
C594 C582 1.349 1_554 S
C594 H588 0.950 . S
C594 C595 1.327 . S
C595 H589 0.950 . S
C595 C594 1.327 . S
C595 C599 1.429 1_554 S
C596 C579 1.574 . S
C596 H590 0.949 . S
C596 C600 1.368 . S
C597 C578 1.449 1_565 S
C597 C591 1.410 1_564 S
C597 C598 1.522 1_554 S
C598 C579 1.368 . S
C598 C592 1.368 1_556 S
C598 C597 1.522 1_556 S
C599 C583 1.429 . S
C599 C595 1.429 1_556 S
C599 C600 1.523 . S
C600 C584 1.368 1_556 S
C600 C596 1.368 . S
C600 C599 1.523 . S
H601 C576 0.950 . S
H602 C578 0.949 1_565 S
H603 C579 0.949 . S
H604 C581 0.950 . S
H605 C583 0.950 . S
C606 C607 1.349 . S
C606 C608 1.327 . S
C606 H631 0.950 . S
C607 C606 1.349 . S
C607 C623 1.349 1_556 S
C608 C606 1.327 . S
C608 C627 1.429 . S
C608 H632 0.950 . S
C609 C626 1.574 . S
C609 C628 1.368 1_554 S
C609 H633 0.949 . S
H610 C614 0.949 . S
C611 C612 1.349 . S
C611 C613 1.327 . S
C611 H634 0.950 . S
C612 C611 1.349 . S
C612 C624 1.349 1_554 S
C613 C611 1.327 . S
C613 C629 1.450 . S
C613 H635 0.950 . S
C614 H610 0.949 . S
C614 C622 1.574 . S
C614 C630 1.368 . S
H615 C623 0.950 . S
H616 C621 0.950 . S
H617 C622 0.949 . S
H618 C624 0.950 . S
H619 C625 0.950 . S
H620 C626 0.949 . S
C621 H616 0.950 . S
C621 C623 1.327 . S
C621 C627 1.429 1_554 S
C622 C614 1.574 . S
C622 H617 0.949 . S
C622 C628 1.368 . S
C623 C607 1.349 1_554 S
C623 H615 0.950 . S
C623 C621 1.327 . S
C624 C612 1.349 1_556 S
C624 H618 0.950 . S
C624 C625 1.327 . S
C625 H619 0.950 . S
C625 C624 1.327 . S
C625 C629 1.409 1_556 S
C626 C609 1.574 . S
C626 H620 0.949 . S
C626 C630 1.368 1_554 S
C627 C608 1.429 . S
C627 C621 1.429 1_556 S
C627 C628 1.523 . S
C628 C609 1.368 1_556 S
C628 C622 1.368 . S
C628 C627 1.523 . S
C629 C613 1.450 . S
C629 C625 1.409 1_554 S
C629 C630 1.522 1_554 S
C630 C614 1.368 . S
C630 C626 1.368 1_556 S
C630 C629 1.522 1_556 S
H631 C606 0.950 . S
H632 C608 0.950 . S
H633 C609 0.949 . S
H634 C611 0.950 . S
H635 C613 0.950 . S
C636 C637 1.349 . S
C636 C638 1.327 . S
C636 H661 0.950 . S
C637 C636 1.349 . S
C637 C653 1.349 1_554 S
C638 C636 1.327 . S
C638 C657 1.451 1_655 S
C638 H662 0.950 1_655 S
C639 C656 1.574 . S
C639 C658 1.368 . S
C639 H663 0.949 . S
H640 C644 0.949 . S
C641 C642 1.349 . S
C641 C643 1.327 . S
C641 H664 0.950 . S
C642 C641 1.349 . S
C642 C654 1.349 1_556 S
C643 C641 1.327 . S
C643 C659 1.429 . S
C643 H665 0.950 . S
C644 H640 0.949 . S
C644 C652 1.574 . S
C644 C660 1.368 1_554 S
H645 C653 0.950 . S
H646 C651 0.950 1_455 S
H647 C652 0.949 . S
H648 C654 0.950 . S
H649 C655 0.950 . S
H650 C656 0.949 . S
C651 H646 0.950 1_655 S
C651 C653 1.327 . S
C651 C657 1.408 1_656 S
C652 C644 1.574 . S
C652 H647 0.949 . S
C652 C658 1.368 1_554 S
C653 C637 1.349 1_556 S
C653 H645 0.950 . S
C653 C651 1.327 . S
C654 C642 1.349 1_554 S
C654 H648 0.950 . S
C654 C655 1.327 . S
C655 H649 0.950 . S
C655 C654 1.327 . S
C655 C659 1.429 1_554 S
C656 C639 1.574 . S
C656 H650 0.949 . S
C656 C660 1.368 . S
C657 C638 1.451 1_455 S
C657 C651 1.408 1_454 S
C657 C658 1.522 1_554 S
C658 C639 1.368 . S
C658 C652 1.368 1_556 S
C658 C657 1.522 1_556 S
C659 C643 1.429 . S
C659 C655 1.429 1_556 S
C659 C660 1.523 . S
C660 C644 1.368 1_556 S
C660 C656 1.368 . S
C660 C659 1.523 . S
H661 C636 0.950 . S
H662 C638 0.950 1_455 S
H663 C639 0.949 . S
H664 C641 0.950 . S
H665 C643 0.950 . S
C666 C667 1.349 1_554 S
C666 C668 1.327 . S
C666 H691 0.950 . S
C667 C666 1.349 1_556 S
C667 C683 1.349 . S
C668 C666 1.327 . S
C668 C687 1.429 1_554 S
C668 H692 0.950 . S
C669 C686 1.574 . S
C669 C688 1.368 . S
C669 H693 0.949 . S
H670 C674 0.949 . S
C671 C672 1.349 1_556 S
C671 C673 1.327 . S
C671 H694 0.950 . S
C672 C671 1.349 1_554 S
C672 C684 1.349 . S
C673 C671 1.327 . S
C673 C689 1.411 1_566 S
C673 H695 0.950 . S
C674 H670 0.949 . S
C674 C682 1.574 . S
C674 C690 1.368 1_554 S
H675 C683 0.950 . S
H676 C681 0.950 . S
H677 C682 0.949 . S
H678 C684 0.950 . S
H679 C685 0.950 1_545 S
H680 C686 0.949 . S
C681 H676 0.950 . S
C681 C683 1.327 . S
C681 C687 1.429 . S
C682 C674 1.574 . S
C682 H677 0.949 . S
C682 C688 1.368 1_554 S
C683 C667 1.349 . S
C683 H675 0.950 . S
C683 C681 1.327 . S
C684 C672 1.349 . S
C684 H678 0.950 . S
C684 C685 1.327 . S
C685 H679 0.950 1_565 S
C685 C684 1.327 . S
C685 C689 1.449 1_565 S
C686 C669 1.574 . S
C686 H680 0.949 . S
C686 C690 1.368 . S
C687 C668 1.429 1_556 S
C687 C681 1.429 . S
C687 C688 1.523 . S
C688 C669 1.368 . S
C688 C682 1.368 1_556 S
C688 C687 1.523 . S
C689 C673 1.411 1_544 S
C689 C685 1.449 1_545 S
C689 C690 1.522 1_554 S
C690 C674 1.368 1_556 S
C690 C686 1.368 . S
C690 C689 1.522 1_556 S
H691 C666 0.950 . S
H692 C668 0.950 . S
H693 C669 0.949 . S
H694 C671 0.950 . S
H695 C673 0.950 . S
C696 C697 1.349 . S
C696 C698 1.327 . S
C696 H721 0.950 . S
C697 C696 1.349 . S
C697 C713 1.349 1_556 S
C698 C696 1.327 . S
C698 C717 1.429 . S
C698 H722 0.950 . S
C699 C716 1.574 . S
C699 C718 1.368 1_554 S
C699 H723 0.949 . S
H700 C704 0.949 . S
C701 C702 1.349 . S
C701 C703 1.327 . S
C701 H724 0.950 . S
C702 C701 1.349 . S
C702 C714 1.349 1_554 S
C703 C701 1.327 . S
C703 C719 1.452 . S
C703 H725 0.950 . S
C704 H700 0.949 . S
C704 C712 1.574 . S
C704 C720 1.368 . S
H705 C713 0.950 . S
H706 C711 0.950 . S
H707 C712 0.949 . S
H708 C714 0.950 . S
H709 C715 0.950 . S
H710 C716 0.949 . S
C711 H706 0.950 . S
C711 C713 1.327 . S
C711 C717 1.429 1_554 S
C712 C704 1.574 . S
C712 H707 0.949 . S
C712 C718 1.368 . S
C713 C697 1.349 1_554 S
C713 H705 0.950 . S
C713 C711 1.327 . S
C714 C702 1.349 1_556 S
C714 H708 0.950 . S
C714 C715 1.327 . S
C715 H709 0.950 . S
C715 C714 1.327 . S
C715 C719 1.407 1_556 S
C716 C699 1.574 . S
C716 H710 0.949 . S
C716 C720 1.368 1_554 S
C717 C698 1.429 . S
C717 C711 1.429 1_556 S
C717 C718 1.523 . S
C718 C699 1.368 1_556 S
C718 C712 1.368 . S
C718 C717 1.523 . S
C719 C703 1.452 . S
C719 C715 1.407 1_554 S
C719 C720 1.522 1_554 S
C720 C704 1.368 . S
C720 C716 1.368 1_556 S
C720 C719 1.522 1_556 S
H721 C696 0.950 . S
H722 C698 0.950 . S
H723 C699 0.949 . S
H724 C701 0.950 . S
H725 C703 0.950 . S
C726 C727 1.349 . S
C726 C728 1.327 . S
C726 H751 0.950 . S
C727 C726 1.349 . S
C727 C743 1.349 1_556 S
C728 C726 1.327 . S
C728 C747 1.429 . S
C728 H752 0.950 . S
C729 C746 1.574 . S
C729 C748 1.368 1_554 S
C729 H753 0.949 . S
H730 C734 0.949 . S
C731 C732 1.349 . S
C731 C733 1.327 . S
C731 H754 0.950 . S
C732 C731 1.349 . S
C732 C744 1.349 1_554 S
C733 C731 1.327 . S
C733 C749 1.449 1_455 S
C733 H755 0.950 1_455 S
C734 H730 0.949 . S
C734 C742 1.574 . S
C734 C750 1.368 . S
H735 C743 0.950 . S
H736 C741 0.950 . S
H737 C742 0.949 . S
H738 C744 0.950 . S
H739 C745 0.950 . S
H740 C746 0.949 . S
C741 H736 0.950 . S
C741 C743 1.327 . S
C741 C747 1.429 1_554 S
C742 C734 1.574 . S
C742 H737 0.949 . S
C742 C748 1.368 . S
C743 C727 1.349 1_554 S
C743 H735 0.950 . S
C743 C741 1.327 . S
C744 C732 1.349 1_556 S
C744 H738 0.950 . S
C744 C745 1.327 . S
C745 H739 0.950 . S
C745 C744 1.327 . S
C745 C749 1.411 1_456 S
C746 C729 1.574 . S
C746 H740 0.949 . S
C746 C750 1.368 1_554 S
C747 C728 1.429 . S
C747 C741 1.429 1_556 S
C747 C748 1.523 . S
C748 C729 1.368 1_556 S
C748 C742 1.368 . S
C748 C747 1.523 . S
C749 C733 1.449 1_655 S
C749 C745 1.411 1_654 S
C749 C750 1.522 1_554 S
C750 C734 1.368 . S
C750 C746 1.368 1_556 S
C750 C749 1.522 1_556 S
H751 C726 0.950 . S
H752 C728 0.950 . S
H753 C729 0.949 . S
H754 C731 0.950 . S
H755 C733 0.950 1_655 S
C756 C757 1.349 . S
C756 C758 1.327 . S
C756 H781 0.950 . S
C757 C756 1.349 . S
C757 C773 1.349 . S
C758 C756 1.327 . S
C758 C777 1.429 . S
C758 H782 0.950 . S
C759 C776 1.574 . S
C759 C778 1.368 . S
C759 H783 0.949 . S
H760 C764 0.949 . S
C761 C762 1.349 . S
C761 C763 1.327 . S
C761 H784 0.950 . S
C762 C761 1.349 . S
C762 C774 1.349 . S
C763 C761 1.327 . S
C763 C779 1.429 1_655 S
C763 H785 0.950 1_655 S
C764 H760 0.949 . S
C764 C772 1.574 . S
C764 C780 1.368 . S
H765 C773 0.950 . S
H766 C771 0.950 . S
H767 C772 0.949 . S
H768 C774 0.950 . S
H769 C775 0.950 . S
H770 C776 0.949 . S
C771 H766 0.950 . S
C771 C773 1.327 . S
C771 C777 1.429 . S
C772 C764 1.574 . S
C772 H767 0.949 . S
C772 C778 1.368 . S
C773 C757 1.349 . S
C773 H765 0.950 . S
C773 C771 1.327 . S
C774 C762 1.349 . S
C774 H768 0.950 . S
C774 C775 1.327 . S
C775 H769 0.950 . S
C775 C774 1.327 . S
C775 C779 1.429 1_655 S
C776 C759 1.574 . S
C776 H770 0.949 . S
C776 C780 1.368 . S
C777 C758 1.429 . S
C777 C771 1.429 . S
C777 C778 1.523 . S
C778 C759 1.368 . S
C778 C772 1.368 . S
C778 C777 1.523 . S
C779 C763 1.429 1_455 S
C779 C775 1.429 1_455 S
C779 C780 1.523 . S
C780 C764 1.368 . S
C780 C776 1.368 . S
C780 C779 1.523 . S
H781 C756 0.950 . S
H782 C758 0.950 . S
H783 C759 0.949 . S
H784 C761 0.950 . S
H785 C763 0.950 1_455 S
C786 C787 1.349 . S
C786 C788 1.327 . S
C786 H811 0.950 . S
C787 C786 1.349 . S
C787 C803 1.349 . S
C788 C786 1.327 . S
C788 C807 1.429 . S
C788 H812 0.950 . S
C789 C806 1.574 . S
C789 C808 1.368 . S
C789 H813 0.949 . S
H790 C794 0.949 . S
C791 C792 1.349 . S
C791 C793 1.327 . S
C791 H814 0.950 . S
C792 C791 1.349 . S
C792 C804 1.349 . S
C793 C791 1.327 . S
C793 C809 1.429 1_565 S
C793 H815 0.950 . S
C794 H790 0.949 . S
C794 C802 1.574 . S
C794 C810 1.368 . S
H795 C803 0.950 . S
H796 C801 0.950 . S
H797 C802 0.949 . S
H798 C804 0.950 . S
H799 C805 0.950 1_545 S
H800 C806 0.949 . S
C801 H796 0.950 . S
C801 C803 1.327 . S
C801 C807 1.429 . S
C802 C794 1.574 . S
C802 H797 0.949 . S
C802 C808 1.368 . S
C803 C787 1.349 . S
C803 H795 0.950 . S
C803 C801 1.327 . S
C804 C792 1.349 . S
C804 H798 0.950 . S
C804 C805 1.327 . S
C805 H799 0.950 1_565 S
C805 C804 1.327 . S
C805 C809 1.429 1_565 S
C806 C789 1.574 . S
C806 H800 0.949 . S
C806 C810 1.368 . S
C807 C788 1.429 . S
C807 C801 1.429 . S
C807 C808 1.523 . S
C808 C789 1.368 . S
C808 C802 1.368 . S
C808 C807 1.523 . S
C809 C793 1.429 1_545 S
C809 C805 1.429 1_545 S
C809 C810 1.523 . S
C810 C794 1.368 . S
C810 C806 1.368 . S
C810 C809 1.523 . S
H811 C786 0.950 . S
H812 C788 0.950 . S
H813 C789 0.949 . S
H814 C791 0.950 . S
H815 C793 0.950 . S
C816 C817 1.349 . S
C816 C818 1.327 . S
C816 H841 0.950 . S
C817 C816 1.349 . S
C817 C833 1.349 . S
C818 C816 1.327 . S
C818 C837 1.429 . S
C818 H842 0.950 . S
C819 C836 1.574 . S
C819 C838 1.368 . S
C819 H843 0.949 . S
H820 C824 0.949 . S
C821 C822 1.349 . S
C821 C823 1.327 . S
C821 H844 0.950 . S
C822 C821 1.349 . S
C822 C834 1.349 . S
C823 C821 1.327 . S
C823 C839 1.429 . S
C823 H845 0.950 . S
C824 H820 0.949 . S
C824 C832 1.574 . S
C824 C840 1.368 . S
H825 C833 0.950 . S
H826 C831 0.950 . S
H827 C832 0.949 . S
H828 C834 0.950 . S
H829 C835 0.950 . S
H830 C836 0.949 . S
C831 H826 0.950 . S
C831 C833 1.327 . S
C831 C837 1.429 . S
C832 C824 1.574 . S
C832 H827 0.949 . S
C832 C838 1.368 . S
C833 C817 1.349 . S
C833 H825 0.950 . S
C833 C831 1.327 . S
C834 C822 1.349 . S
C834 H828 0.950 . S
C834 C835 1.327 . S
C835 H829 0.950 . S
C835 C834 1.327 . S
C835 C839 1.429 . S
C836 C819 1.574 . S
C836 H830 0.949 . S
C836 C840 1.368 . S
C837 C818 1.429 . S
C837 C831 1.429 . S
C837 C838 1.523 . S
C838 C819 1.368 . S
C838 C832 1.368 . S
C838 C837 1.523 . S
C839 C823 1.429 . S
C839 C835 1.429 . S
C839 C840 1.523 . S
C840 C824 1.368 . S
C840 C836 1.368 . S
C840 C839 1.523 . S
H841 C816 0.950 . S
H842 C818 0.950 . S
H843 C819 0.949 . S
H844 C821 0.950 . S
H845 C823 0.950 . S
C846 C847 1.349 . S
C846 C848 1.327 . S
C846 H871 0.950 . S
C847 C846 1.349 . S
C847 C863 1.349 . S
C848 C846 1.327 . S
C848 C867 1.429 1_455 S
C848 H872 0.950 1_455 S
C849 C866 1.574 . S
C849 C868 1.368 . S
C849 H873 0.949 . S
H850 C854 0.949 . S
C851 C852 1.349 . S
C851 C853 1.327 . S
C851 H874 0.950 . S
C852 C851 1.349 . S
C852 C864 1.349 . S
C853 C851 1.327 . S
C853 C869 1.429 . S
C853 H875 0.950 . S
C854 H850 0.949 . S
C854 C862 1.574 . S
C854 C870 1.368 . S
H855 C863 0.950 . S
H856 C861 0.950 1_655 S
H857 C862 0.949 . S
H858 C864 0.950 . S
H859 C865 0.950 . S
H860 C866 0.949 . S
C861 H856 0.950 1_455 S
C861 C863 1.327 . S
C861 C867 1.429 1_455 S
C862 C854 1.574 . S
C862 H857 0.949 . S
C862 C868 1.368 . S
C863 C847 1.349 . S
C863 H855 0.950 . S
C863 C861 1.327 . S
C864 C852 1.349 . S
C864 H858 0.950 . S
C864 C865 1.327 . S
C865 H859 0.950 . S
C865 C864 1.327 . S
C865 C869 1.429 . S
C866 C849 1.574 . S
C866 H860 0.949 . S
C866 C870 1.368 . S
C867 C848 1.429 1_655 S
C867 C861 1.429 1_655 S
C867 C868 1.523 . S
C868 C849 1.368 . S
C868 C862 1.368 . S
C868 C867 1.523 . S
C869 C853 1.429 . S
C869 C865 1.429 . S
C869 C870 1.523 . S
C870 C854 1.368 . S
C870 C866 1.368 . S
C870 C869 1.523 . S
H871 C846 0.950 . S
H872 C848 0.950 1_655 S
H873 C849 0.949 . S
H874 C851 0.950 . S
H875 C853 0.950 . S
C876 C877 1.349 . S
C876 C878 1.327 . S
C876 H901 0.950 . S
C877 C876 1.349 . S
C877 C893 1.349 . S
C878 C876 1.327 . S
C878 C897 1.429 1_545 S
C878 H902 0.927 1_545 S
C879 C896 1.574 . S
C879 C898 1.368 . S
C879 H903 0.949 . S
H880 C884 0.949 . S
C881 C882 1.349 . S
C881 C883 1.327 . S
C881 H904 0.950 . S
C882 C881 1.349 . S
C882 C894 1.349 . S
C883 C881 1.327 . S
C883 C899 1.429 . S
C883 H905 0.950 . S
C884 H880 0.949 . S
C884 C892 1.574 . S
C884 C900 1.368 . S
H885 C893 0.950 . S
H886 C891 0.950 1_565 S
H887 C892 0.949 . S
H888 C894 0.950 . S
H889 C895 0.950 . S
H890 C896 0.949 . S
C891 H886 0.950 1_545 S
C891 C893 1.327 . S
C891 C897 1.429 1_545 S
C892 C884 1.574 . S
C892 H887 0.949 . S
C892 C898 1.368 . S
C893 C877 1.349 . S
C893 H885 0.950 . S
C893 C891 1.327 . S
C894 C882 1.349 . S
C894 H888 0.950 . S
C894 C895 1.327 . S
C895 H889 0.950 . S
C895 C894 1.327 . S
C895 C899 1.429 . S
C896 C879 1.574 . S
C896 H890 0.949 . S
C896 C900 1.368 . S
C897 C878 1.429 1_565 S
C897 C891 1.429 1_565 S
C897 C898 1.523 . S
C898 C879 1.368 . S
C898 C892 1.368 . S
C898 C897 1.523 . S
C899 C883 1.429 . S
C899 C895 1.429 . S
C899 C900 1.523 . S
C900 C884 1.368 . S
C900 C896 1.368 . S
C900 C899 1.523 . S
H901 C876 0.950 . S
H902 C878 0.927 1_565 S
H903 C879 0.949 . S
H904 C881 0.950 . S
H905 C883 0.950 . S
C906 C907 1.349 . S
C906 C908 1.327 . S
C906 H931 0.950 . S
C907 C906 1.349 . S
C907 C923 1.349 . S
C908 C906 1.327 . S
C908 C927 1.429 . S
C908 H932 0.950 . S
C909 C926 1.574 . S
C909 C928 1.368 . S
C909 H933 0.949 . S
H910 C914 0.949 . S
C911 C912 1.349 . S
C911 C913 1.327 . S
C911 H934 0.950 . S
C912 C911 1.349 . S
C912 C924 1.349 . S
C913 C911 1.327 . S
C913 C929 1.429 . S
C913 H935 0.950 . S
C914 H910 0.949 . S
C914 C922 1.574 . S
C914 C930 1.368 . S
H915 C923 0.950 . S
H916 C921 0.950 . S
H917 C922 0.949 . S
H918 C924 0.950 . S
H919 C925 0.950 . S
H920 C926 0.949 . S
C921 H916 0.950 . S
C921 C923 1.327 . S
C921 C927 1.429 . S
C922 C914 1.574 . S
C922 H917 0.949 . S
C922 C928 1.368 . S
C923 C907 1.349 . S
C923 H915 0.950 . S
C923 C921 1.327 . S
C924 C912 1.349 . S
C924 H918 0.950 . S
C924 C925 1.327 . S
C925 H919 0.950 . S
C925 C924 1.327 . S
C925 C929 1.429 . S
C926 C909 1.574 . S
C926 H920 0.949 . S
C926 C930 1.368 . S
C927 C908 1.429 . S
C927 C921 1.429 . S
C927 C928 1.523 . S
C928 C909 1.368 . S
C928 C922 1.368 . S
C928 C927 1.523 . S
C929 C913 1.429 . S
C929 C925 1.429 . S
C929 C930 1.523 . S
C930 C914 1.368 . S
C930 C926 1.368 . S
C930 C929 1.523 . S
H931 C906 0.950 . S
H932 C908 0.950 . S
H933 C909 0.949 . S
H934 C911 0.950 . S
H935 C913 0.950 . S
C936 C937 1.349 . S
C936 C938 1.327 . S
C936 H961 0.950 . S
C937 C936 1.349 . S
C937 C953 1.349 . S
C938 C936 1.327 . S
C938 C957 1.429 . S
C938 H962 0.950 . S
C939 C956 1.574 . S
C939 C958 1.368 . S
C939 H963 0.949 . S
H940 C944 0.949 . S
C941 C942 1.349 . S
C941 C943 1.327 . S
C941 H964 0.950 . S
C942 C941 1.349 . S
C942 C954 1.349 . S
C943 C941 1.327 . S
C943 C959 1.429 . S
C943 H965 0.950 . S
C944 H940 0.949 . S
C944 C952 1.574 . S
C944 C960 1.368 . S
H945 C953 0.950 . S
H946 C951 0.950 . S
H947 C952 0.949 . S
H948 C954 0.950 . S
H949 C955 0.950 . S
H950 C956 0.949 . S
C951 H946 0.950 . S
C951 C953 1.327 . S
C951 C957 1.429 . S
C952 C944 1.574 . S
C952 H947 0.949 . S
C952 C958 1.368 . S
C953 C937 1.349 . S
C953 H945 0.950 . S
C953 C951 1.327 . S
C954 C942 1.349 . S
C954 H948 0.950 . S
C954 C955 1.327 . S
C955 H949 0.950 . S
C955 C954 1.327 . S
C955 C959 1.429 . S
C956 C939 1.574 . S
C956 H950 0.949 . S
C956 C960 1.368 . S
C957 C938 1.429 . S
C957 C951 1.429 . S
C957 C958 1.523 . S
C958 C939 1.368 . S
C958 C952 1.368 . S
C958 C957 1.523 . S
C959 C943 1.429 . S
C959 C955 1.429 . S
C959 C960 1.523 . S
C960 C944 1.368 . S
C960 C956 1.368 . S
C960 C959 1.523 . S
H961 C936 0.950 . S
H962 C938 0.950 . S
H963 C939 0.949 . S
H964 C941 0.950 . S
H965 C943 0.950 . S
C966 C967 1.349 . S
C966 C968 1.327 . S
C966 H991 0.950 . S
C967 C966 1.349 . S
C967 C983 1.349 . S
C968 C966 1.327 . S
C968 C987 1.429 . S
C968 H992 0.950 . S
C969 C986 1.574 . S
C969 C988 1.368 . S
C969 H993 0.949 . S
H970 C974 0.949 . S
C971 C972 1.349 . S
C971 C973 1.327 . S
C971 H994 0.950 . S
C972 C971 1.349 . S
C972 C984 1.349 . S
C973 C971 1.327 . S
C973 C989 1.429 . S
C973 H995 0.950 . S
C974 H970 0.949 . S
C974 C982 1.574 . S
C974 C990 1.368 . S
H975 C983 0.950 . S
H976 C981 0.950 . S
H977 C982 0.949 . S
H978 C984 0.950 . S
H979 C985 0.950 . S
H980 C986 0.949 . S
C981 H976 0.950 . S
C981 C983 1.327 . S
C981 C987 1.429 . S
C982 C974 1.574 . S
C982 H977 0.949 . S
C982 C988 1.368 . S
C983 C967 1.349 . S
C983 H975 0.950 . S
C983 C981 1.327 . S
C984 C972 1.349 . S
C984 H978 0.950 . S
C984 C985 1.327 . S
C985 H979 0.950 . S
C985 C984 1.327 . S
C985 C989 1.429 . S
C986 C969 1.574 . S
C986 H980 0.949 . S
C986 C990 1.368 . S
C987 C968 1.429 . S
C987 C981 1.429 . S
C987 C988 1.523 . S
C988 C969 1.368 . S
C988 C982 1.368 . S
C988 C987 1.523 . S
C989 C973 1.429 . S
C989 C985 1.429 . S
C989 C990 1.523 . S
C990 C974 1.368 . S
C990 C986 1.368 . S
C990 C989 1.523 . S
H991 C966 0.950 . S
H992 C968 0.950 . S
H993 C969 0.949 . S
H994 C971 0.950 . S
H995 C973 0.950 . S
C996 C997 1.349 . S
C996 C998 1.327 . S
C996 H1021 0.950 . S
C997 C996 1.349 . S
C997 C1013 1.349 . S
C998 C996 1.327 . S
C998 C1017 1.429 . S
C998 H1022 0.950 . S
C999 C1016 1.574 . S
C999 C1018 1.368 . S
C999 H1023 0.949 . S
H1000 C1004 0.949 . S
C1001 C1002 1.349 . S
C1001 C1003 1.327 . S
C1001 H1024 0.950 . S
C1002 C1001 1.349 . S
C1002 C1014 1.349 . S
C1003 C1001 1.327 . S
C1003 C1019 1.429 . S
C1003 H1025 0.950 . S
C1004 H1000 0.949 . S
C1004 C1012 1.574 . S
C1004 C1020 1.368 . S
H1005 C1013 0.950 . S
H1006 C1011 0.950 . S
H1007 C1012 0.949 . S
H1008 C1014 0.950 . S
H1009 C1015 0.950 . S
H1010 C1016 0.949 . S
C1011 H1006 0.950 . S
C1011 C1013 1.327 . S
C1011 C1017 1.429 . S
C1012 C1004 1.574 . S
C1012 H1007 0.949 . S
C1012 C1018 1.368 . S
C1013 C997 1.349 . S
C1013 H1005 0.950 . S
C1013 C1011 1.327 . S
C1014 C1002 1.349 . S
C1014 H1008 0.950 . S
C1014 C1015 1.327 . S
C1015 H1009 0.950 . S
C1015 C1014 1.327 . S
C1015 C1019 1.429 . S
C1016 C999 1.574 . S
C1016 H1010 0.949 . S
C1016 C1020 1.368 . S
C1017 C998 1.429 . S
C1017 C1011 1.429 . S
C1017 C1018 1.523 . S
C1018 C999 1.368 . S
C1018 C1012 1.368 . S
C1018 C1017 1.523 . S
C1019 C1003 1.429 . S
C1019 C1015 1.429 . S
C1019 C1020 1.523 . S
C1020 C1004 1.368 . S
C1020 C1016 1.368 . S
C1020 C1019 1.523 . S
H1021 C996 0.950 . S
H1022 C998 0.950 . S
H1023 C999 0.949 . S
H1024 C1001 0.950 . S
H1025 C1003 0.950 . S
C1026 C1027 1.349 . S
C1026 C1028 1.327 . S
C1026 H1051 0.950 . S
C1027 C1026 1.349 . S
C1027 C1043 1.349 . S
C1028 C1026 1.327 . S
C1028 C1047 1.429 . S
C1028 H1052 0.950 . S
C1029 C1046 1.574 . S
C1029 C1048 1.368 . S
C1029 H1053 0.949 . S
H1030 C1034 0.949 . S
C1031 C1032 1.349 . S
C1031 C1033 1.327 . S
C1031 H1054 0.950 . S
C1032 C1031 1.349 . S
C1032 C1044 1.349 . S
C1033 C1031 1.327 . S
C1033 C1049 1.429 . S
C1033 H1055 0.950 . S
C1034 H1030 0.949 . S
C1034 C1042 1.574 . S
C1034 C1050 1.368 . S
H1035 C1043 0.950 . S
H1036 C1041 0.950 . S
H1037 C1042 0.949 . S
H1038 C1044 0.950 . S
H1039 C1045 0.950 . S
H1040 C1046 0.949 . S
C1041 H1036 0.950 . S
C1041 C1043 1.327 . S
C1041 C1047 1.429 . S
C1042 C1034 1.574 . S
C1042 H1037 0.949 . S
C1042 C1048 1.368 . S
C1043 C1027 1.349 . S
C1043 H1035 0.950 . S
C1043 C1041 1.327 . S
C1044 C1032 1.349 . S
C1044 H1038 0.950 . S
C1044 C1045 1.327 . S
C1045 H1039 0.950 . S
C1045 C1044 1.327 . S
C1045 C1049 1.429 . S
C1046 C1029 1.574 . S
C1046 H1040 0.949 . S
C1046 C1050 1.368 . S
C1047 C1028 1.429 . S
C1047 C1041 1.429 . S
C1047 C1048 1.523 . S
C1048 C1029 1.368 . S
C1048 C1042 1.368 . S
C1048 C1047 1.523 . S
C1049 C1033 1.429 . S
C1049 C1045 1.429 . S
C1049 C1050 1.523 . S
C1050 C1034 1.368 . S
C1050 C1046 1.368 . S
C1050 C1049 1.523 . S
H1051 C1026 0.950 . S
H1052 C1028 0.950 . S
H1053 C1029 0.949 . S
H1054 C1031 0.950 . S
H1055 C1033 0.950 . S
C1056 C1057 1.349 . S
C1056 C1058 1.327 . S
C1056 H1081 0.950 . S
C1057 C1056 1.349 . S
C1057 C1073 1.349 . S
C1058 C1056 1.327 . S
C1058 C1077 1.429 . S
C1058 H1082 0.950 . S
C1059 C1076 1.574 . S
C1059 C1078 1.368 . S
C1059 H1083 0.949 . S
H1060 C1064 0.949 . S
C1061 C1062 1.349 . S
C1061 C1063 1.327 . S
C1061 H1084 0.950 . S
C1062 C1061 1.349 . S
C1062 C1074 1.349 . S
C1063 C1061 1.327 . S
C1063 C1079 1.429 . S
C1063 H1085 0.950 . S
C1064 H1060 0.949 . S
C1064 C1072 1.574 . S
C1064 C1080 1.368 . S
H1065 C1073 0.950 . S
H1066 C1071 0.950 . S
H1067 C1072 0.949 . S
H1068 C1074 0.950 . S
H1069 C1075 0.950 . S
H1070 C1076 0.949 . S
C1071 H1066 0.950 . S
C1071 C1073 1.327 . S
C1071 C1077 1.429 . S
C1072 C1064 1.574 . S
C1072 H1067 0.949 . S
C1072 C1078 1.368 . S
C1073 C1057 1.349 . S
C1073 H1065 0.950 . S
C1073 C1071 1.327 . S
C1074 C1062 1.349 . S
C1074 H1068 0.950 . S
C1074 C1075 1.327 . S
C1075 H1069 0.950 . S
C1075 C1074 1.327 . S
C1075 C1079 1.429 . S
C1076 C1059 1.574 . S
C1076 H1070 0.949 . S
C1076 C1080 1.368 . S
C1077 C1058 1.429 . S
C1077 C1071 1.429 . S
C1077 C1078 1.523 . S
C1078 C1059 1.368 . S
C1078 C1072 1.368 . S
C1078 C1077 1.523 . S
C1079 C1063 1.429 . S
C1079 C1075 1.429 . S
C1079 C1080 1.523 . S
C1080 C1064 1.368 . S
C1080 C1076 1.368 . S
C1080 C1079 1.523 . S
H1081 C1056 0.950 . S
H1082 C1058 0.950 . S
H1083 C1059 0.949 . S
H1084 C1061 0.950 . S
H1085 C1063 0.950 . S
C1086 C1087 1.349 . S
C1086 C1088 1.327 . S
C1086 H1111 0.950 . S
C1087 C1086 1.349 . S
C1087 C1103 1.349 . S
C1088 C1086 1.327 . S
C1088 C1107 1.429 . S
C1088 H1112 0.950 . S
C1089 C1106 1.574 . S
C1089 C1108 1.368 . S
C1089 H1113 0.949 . S
H1090 C1094 0.949 . S
C1091 C1092 1.349 . S
C1091 C1093 1.327 . S
C1091 H1114 0.950 . S
C1092 C1091 1.349 . S
C1092 C1104 1.349 . S
C1093 C1091 1.327 . S
C1093 C1109 1.429 . S
C1093 H1115 0.950 . S
C1094 H1090 0.949 . S
C1094 C1102 1.574 . S
C1094 C1110 1.368 . S
H1095 C1103 0.950 . S
H1096 C1101 0.950 . S
H1097 C1102 0.949 . S
H1098 C1104 0.950 . S
H1099 C1105 0.950 . S
H1100 C1106 0.949 . S
C1101 H1096 0.950 . S
C1101 C1103 1.327 . S
C1101 C1107 1.429 . S
C1102 C1094 1.574 . S
C1102 H1097 0.949 . S
C1102 C1108 1.368 . S
C1103 C1087 1.349 . S
C1103 H1095 0.950 . S
C1103 C1101 1.327 . S
C1104 C1092 1.349 . S
C1104 H1098 0.950 . S
C1104 C1105 1.327 . S
C1105 H1099 0.950 . S
C1105 C1104 1.327 . S
C1105 C1109 1.429 . S
C1106 C1089 1.574 . S
C1106 H1100 0.949 . S
C1106 C1110 1.368 . S
C1107 C1088 1.429 . S
C1107 C1101 1.429 . S
C1107 C1108 1.523 . S
C1108 C1089 1.368 . S
C1108 C1102 1.368 . S
C1108 C1107 1.523 . S
C1109 C1093 1.429 . S
C1109 C1105 1.429 . S
C1109 C1110 1.523 . S
C1110 C1094 1.368 . S
C1110 C1106 1.368 . S
C1110 C1109 1.523 . S
H1111 C1086 0.950 . S
H1112 C1088 0.950 . S
H1113 C1089 0.949 . S
H1114 C1091 0.950 . S
H1115 C1093 0.950 . S
C1116 C1117 1.349 . S
C1116 C1118 1.327 . S
C1116 H1141 0.950 . S
C1117 C1116 1.349 . S
C1117 C1133 1.349 . S
C1118 C1116 1.327 . S
C1118 C1137 1.429 . S
C1118 H1142 0.950 . S
C1119 C1136 1.574 . S
C1119 C1138 1.368 . S
C1119 H1143 0.949 . S
H1120 C1124 0.949 . S
C1121 C1122 1.349 . S
C1121 C1123 1.327 . S
C1121 H1144 0.950 . S
C1122 C1121 1.349 . S
C1122 C1134 1.349 . S
C1123 C1121 1.327 . S
C1123 C1139 1.429 . S
C1123 H1145 0.950 . S
C1124 H1120 0.949 . S
C1124 C1132 1.574 . S
C1124 C1140 1.368 . S
H1125 C1133 0.950 . S
H1126 C1131 0.950 . S
H1127 C1132 0.949 . S
H1128 C1134 0.950 . S
H1129 C1135 0.950 . S
H1130 C1136 0.949 . S
C1131 H1126 0.950 . S
C1131 C1133 1.327 . S
C1131 C1137 1.429 . S
C1132 C1124 1.574 . S
C1132 H1127 0.949 . S
C1132 C1138 1.368 . S
C1133 C1117 1.349 . S
C1133 H1125 0.950 . S
C1133 C1131 1.327 . S
C1134 C1122 1.349 . S
C1134 H1128 0.950 . S
C1134 C1135 1.327 . S
C1135 H1129 0.950 . S
C1135 C1134 1.327 . S
C1135 C1139 1.429 . S
C1136 C1119 1.574 . S
C1136 H1130 0.949 . S
C1136 C1140 1.368 . S
C1137 C1118 1.429 . S
C1137 C1131 1.429 . S
C1137 C1138 1.523 . S
C1138 C1119 1.368 . S
C1138 C1132 1.368 . S
C1138 C1137 1.523 . S
C1139 C1123 1.429 . S
C1139 C1135 1.429 . S
C1139 C1140 1.523 . S
C1140 C1124 1.368 . S
C1140 C1136 1.368 . S
C1140 C1139 1.523 . S
H1141 C1116 0.950 . S
H1142 C1118 0.950 . S
H1143 C1119 0.949 . S
H1144 C1121 0.950 . S
H1145 C1123 0.950 . S
C1146 C1147 1.349 . S
C1146 C1148 1.327 . S
C1146 H1171 0.950 . S
C1147 C1146 1.349 . S
C1147 C1163 1.349 . S
C1148 C1146 1.327 . S
C1148 C1167 1.429 . S
C1148 H1172 0.950 . S
C1149 C1166 1.574 . S
C1149 C1168 1.368 . S
C1149 H1173 0.949 . S
H1150 C1154 0.949 . S
C1151 C1152 1.349 . S
C1151 C1153 1.327 . S
C1151 H1174 0.950 . S
C1152 C1151 1.349 . S
C1152 C1164 1.349 . S
C1153 C1151 1.327 . S
C1153 C1169 1.429 . S
C1153 H1175 0.950 . S
C1154 H1150 0.949 . S
C1154 C1162 1.574 . S
C1154 C1170 1.368 . S
H1155 C1163 0.950 . S
H1156 C1161 0.950 . S
H1157 C1162 0.949 . S
H1158 C1164 0.950 . S
H1159 C1165 0.950 . S
H1160 C1166 0.949 . S
C1161 H1156 0.950 . S
C1161 C1163 1.327 . S
C1161 C1167 1.429 . S
C1162 C1154 1.574 . S
C1162 H1157 0.949 . S
C1162 C1168 1.368 . S
C1163 C1147 1.349 . S
C1163 H1155 0.950 . S
C1163 C1161 1.327 . S
C1164 C1152 1.349 . S
C1164 H1158 0.950 . S
C1164 C1165 1.327 . S
C1165 H1159 0.950 . S
C1165 C1164 1.327 . S
C1165 C1169 1.429 . S
C1166 C1149 1.574 . S
C1166 H1160 0.949 . S
C1166 C1170 1.368 . S
C1167 C1148 1.429 . S
C1167 C1161 1.429 . S
C1167 C1168 1.523 . S
C1168 C1149 1.368 . S
C1168 C1162 1.368 . S
C1168 C1167 1.523 . S
C1169 C1153 1.429 . S
C1169 C1165 1.429 . S
C1169 C1170 1.523 . S
C1170 C1154 1.368 . S
C1170 C1166 1.368 . S
C1170 C1169 1.523 . S
H1171 C1146 0.950 . S
H1172 C1148 0.950 . S
H1173 C1149 0.949 . S
H1174 C1151 0.950 . S
H1175 C1153 0.950 . S
C1176 C1177 1.349 . S
C1176 C1178 1.327 . S
C1176 H1201 0.950 . S
C1177 C1176 1.349 . S
C1177 C1193 1.349 . S
C1178 C1176 1.327 . S
C1178 C1197 1.429 . S
C1178 H1202 0.950 . S
C1179 C1196 1.574 . S
C1179 C1198 1.368 . S
C1179 H1203 0.949 . S
H1180 C1184 0.949 . S
C1181 C1182 1.349 . S
C1181 C1183 1.327 . S
C1181 H1204 0.950 . S
C1182 C1181 1.349 . S
C1182 C1194 1.349 . S
C1183 C1181 1.327 . S
C1183 C1199 1.429 . S
C1183 H1205 0.950 . S
C1184 H1180 0.949 . S
C1184 C1192 1.574 . S
C1184 C1200 1.368 . S
H1185 C1193 0.950 . S
H1186 C1191 0.950 . S
H1187 C1192 0.949 . S
H1188 C1194 0.950 . S
H1189 C1195 0.950 . S
H1190 C1196 0.949 . S
C1191 H1186 0.950 . S
C1191 C1193 1.327 . S
C1191 C1197 1.429 . S
C1192 C1184 1.574 . S
C1192 H1187 0.949 . S
C1192 C1198 1.368 . S
C1193 C1177 1.349 . S
C1193 H1185 0.950 . S
C1193 C1191 1.327 . S
C1194 C1182 1.349 . S
C1194 H1188 0.950 . S
C1194 C1195 1.327 . S
C1195 H1189 0.950 . S
C1195 C1194 1.327 . S
C1195 C1199 1.429 . S
C1196 C1179 1.574 . S
C1196 H1190 0.949 . S
C1196 C1200 1.368 . S
C1197 C1178 1.429 . S
C1197 C1191 1.429 . S
C1197 C1198 1.523 . S
C1198 C1179 1.368 . S
C1198 C1192 1.368 . S
C1198 C1197 1.523 . S
C1199 C1183 1.429 . S
C1199 C1195 1.429 . S
C1199 C1200 1.523 . S
C1200 C1184 1.368 . S
C1200 C1196 1.368 . S
C1200 C1199 1.523 . S
H1201 C1176 0.950 . S
H1202 C1178 0.950 . S
H1203 C1179 0.949 . S
H1204 C1181 0.950 . S
H1205 C1183 0.950 . S
C1206 C1207 1.349 . S
C1206 C1208 1.327 . S
C1206 H1231 0.950 . S
C1207 C1206 1.349 . S
C1207 C1223 1.349 . S
C1208 C1206 1.327 . S
C1208 C1227 1.429 . S
C1208 H1232 0.950 . S
C1209 C1226 1.574 . S
C1209 C1228 1.368 . S
C1209 H1233 0.949 . S
H1210 C1214 0.949 . S
C1211 C1212 1.349 . S
C1211 C1213 1.327 . S
C1211 H1234 0.950 . S
C1212 C1211 1.349 . S
C1212 C1224 1.349 . S
C1213 C1211 1.327 . S
C1213 C1229 1.429 . S
C1213 H1235 0.950 . S
C1214 H1210 0.949 . S
C1214 C1222 1.574 . S
C1214 C1230 1.368 . S
H1215 C1223 0.950 . S
H1216 C1221 0.950 . S
H1217 C1222 0.949 . S
H1218 C1224 0.950 . S
H1219 C1225 0.950 . S
H1220 C1226 0.949 . S
C1221 H1216 0.950 . S
C1221 C1223 1.327 . S
C1221 C1227 1.429 . S
C1222 C1214 1.574 . S
C1222 H1217 0.949 . S
C1222 C1228 1.368 . S
C1223 C1207 1.349 . S
C1223 H1215 0.950 . S
C1223 C1221 1.327 . S
C1224 C1212 1.349 . S
C1224 H1218 0.950 . S
C1224 C1225 1.327 . S
C1225 H1219 0.950 . S
C1225 C1224 1.327 . S
C1225 C1229 1.429 . S
C1226 C1209 1.574 . S
C1226 H1220 0.949 . S
C1226 C1230 1.368 . S
C1227 C1208 1.429 . S
C1227 C1221 1.429 . S
C1227 C1228 1.523 . S
C1228 C1209 1.368 . S
C1228 C1222 1.368 . S
C1228 C1227 1.523 . S
C1229 C1213 1.429 . S
C1229 C1225 1.429 . S
C1229 C1230 1.523 . S
C1230 C1214 1.368 . S
C1230 C1226 1.368 . S
C1230 C1229 1.523 . S
H1231 C1206 0.950 . S
H1232 C1208 0.950 . S
H1233 C1209 0.949 . S
H1234 C1211 0.950 . S
H1235 C1213 0.950 . S
C1236 C1237 1.349 . S
C1236 C1238 1.327 . S
C1236 H1261 0.950 . S
C1237 C1236 1.349 . S
C1237 C1253 1.349 . S
C1238 C1236 1.327 . S
C1238 C1257 1.429 . S
C1238 H1262 0.950 . S
C1239 C1256 1.574 . S
C1239 C1258 1.368 . S
C1239 H1263 0.949 . S
H1240 C1244 0.949 . S
C1241 C1242 1.349 . S
C1241 C1243 1.327 . S
C1241 H1264 0.950 . S
C1242 C1241 1.349 . S
C1242 C1254 1.349 . S
C1243 C1241 1.327 . S
C1243 C1259 1.429 . S
C1243 H1265 0.950 . S
C1244 H1240 0.949 . S
C1244 C1252 1.574 . S
C1244 C1260 1.368 . S
H1245 C1253 0.950 . S
H1246 C1251 0.950 . S
H1247 C1252 0.949 . S
H1248 C1254 0.950 . S
H1249 C1255 0.950 . S
H1250 C1256 0.949 . S
C1251 H1246 0.950 . S
C1251 C1253 1.327 . S
C1251 C1257 1.429 . S
C1252 C1244 1.574 . S
C1252 H1247 0.949 . S
C1252 C1258 1.368 . S
C1253 C1237 1.349 . S
C1253 H1245 0.950 . S
C1253 C1251 1.327 . S
C1254 C1242 1.349 . S
C1254 H1248 0.950 . S
C1254 C1255 1.327 . S
C1255 H1249 0.950 . S
C1255 C1254 1.327 . S
C1255 C1259 1.429 . S
C1256 C1239 1.574 . S
C1256 H1250 0.949 . S
C1256 C1260 1.368 . S
C1257 C1238 1.429 . S
C1257 C1251 1.429 . S
C1257 C1258 1.523 . S
C1258 C1239 1.368 . S
C1258 C1252 1.368 . S
C1258 C1257 1.523 . S
C1259 C1243 1.429 . S
C1259 C1255 1.429 . S
C1259 C1260 1.523 . S
C1260 C1244 1.368 . S
C1260 C1256 1.368 . S
C1260 C1259 1.523 . S
H1261 C1236 0.950 . S
H1262 C1238 0.950 . S
H1263 C1239 0.949 . S
H1264 C1241 0.950 . S
H1265 C1243 0.950 . S
C1266 C1267 1.349 . S
C1266 C1268 1.327 . S
C1266 H1291 0.950 . S
C1267 C1266 1.349 . S
C1267 C1283 1.349 . S
C1268 C1266 1.327 . S
C1268 C1287 1.429 . S
C1268 H1292 0.950 . S
C1269 C1286 1.574 . S
C1269 C1288 1.368 . S
C1269 H1293 0.949 . S
H1270 C1274 0.949 . S
C1271 C1272 1.349 . S
C1271 C1273 1.327 . S
C1271 H1294 0.950 . S
C1272 C1271 1.349 . S
C1272 C1284 1.349 . S
C1273 C1271 1.327 . S
C1273 C1289 1.429 . S
C1273 H1295 0.950 . S
C1274 H1270 0.949 . S
C1274 C1282 1.574 . S
C1274 C1290 1.368 . S
H1275 C1283 0.950 . S
H1276 C1281 0.950 . S
H1277 C1282 0.949 . S
H1278 C1284 0.950 . S
H1279 C1285 0.950 . S
H1280 C1286 0.949 . S
C1281 H1276 0.950 . S
C1281 C1283 1.327 . S
C1281 C1287 1.429 . S
C1282 C1274 1.574 . S
C1282 H1277 0.949 . S
C1282 C1288 1.368 . S
C1283 C1267 1.349 . S
C1283 H1275 0.950 . S
C1283 C1281 1.327 . S
C1284 C1272 1.349 . S
C1284 H1278 0.950 . S
C1284 C1285 1.327 . S
C1285 H1279 0.950 . S
C1285 C1284 1.327 . S
C1285 C1289 1.429 . S
C1286 C1269 1.574 . S
C1286 H1280 0.949 . S
C1286 C1290 1.368 . S
C1287 C1268 1.429 . S
C1287 C1281 1.429 . S
C1287 C1288 1.523 . S
C1288 C1269 1.368 . S
C1288 C1282 1.368 . S
C1288 C1287 1.523 . S
C1289 C1273 1.429 . S
C1289 C1285 1.429 . S
C1289 C1290 1.523 . S
C1290 C1274 1.368 . S
C1290 C1286 1.368 . S
C1290 C1289 1.523 . S
H1291 C1266 0.950 . S
H1292 C1268 0.950 . S
H1293 C1269 0.949 . S
H1294 C1271 0.950 . S
H1295 C1273 0.950 . S
C397 N2 1.860 . S
C402 N101 1.860 . S
C427 N134 1.860 . S
C432 N35 1.860 . S
C457 N167 1.860 . S
C462 N68 1.860 . S
C487 N299 1.856 . S
C492 N200 1.856 . S
C517 N332 1.856 . S
C522 N233 1.856 . S
C547 N266 1.856 . S
C552 N365 1.856 . S
C577 C21 0.173 . S
C582 N178 0.424 . S
C607 N13 0.424 . S
C612 C54 0.173 . S
C637 C87 0.173 . S
C642 N46 0.424 . S
C667 N79 0.424 . S
C672 C120 0.173 . S
C697 N112 0.424 . S
C702 C153 0.173 . S
C727 N145 0.424 . S
C732 C186 0.173 . S
C757 N244 0.424 . S
C762 C219 0.173 . S
C787 N277 0.424 . S
C792 C252 0.173 . S
C817 N310 0.424 . S
C822 C285 0.173 . S
C847 C318 0.173 . S
C852 N343 0.424 . S
C877 C351 0.173 . S
C882 N376 0.424 . S
C907 C384 0.173 . S
C912 N211 0.424 . S
C937 C271 1.603 . S
C942 C7 1.603 . S
C967 C40 1.603 . S
C972 C304 1.603 . S
C997 C73 1.603 . S
C1002 C337 1.603 . S
C1027 C106 1.603 . S
C1032 C370 1.603 . S
C1057 C205 1.603 . S
C1062 C139 1.603 . S
C1087 C172 1.603 . S
C1092 C238 1.603 . S
C1117 C381 1.455 . S
C1122 C117 1.455 . S
C1147 C216 1.455 . S
C1152 C150 1.455 . S
C1177 C249 1.455 . S
C1182 C183 1.455 . S
C1207 C18 1.455 . S
C1212 C282 1.455 . S
C1237 C51 1.455 . S
C1242 C315 1.455 . S
C1267 C84 1.455 . S
C1272 C348 1.455 . S
