# Generated by pormake.
# Topology gme, (4)-cn, num edge types: 1
# Building blocks:
#     Node 0, Type 0, BuildingBlock: CEKHIL_clean_sbu_0, # of connection points: 4
#     Node 1, Type 0, BuildingBlock: CEKHIL_clean_sbu_0, # of connection points: 4
#     Node 2, Type 0, BuildingBlock: CEKHIL_clean_sbu_0, # of connection points: 4
#     Node 3, Type 0, BuildingBlock: CEKHIL_clean_sbu_0, # of connection points: 4
#     Node 4, Type 0, BuildingBlock: CEKHIL_clean_sbu_0, # of connection points: 4
#     Node 5, Type 0, BuildingBlock: CEKHIL_clean_sbu_0, # of connection points: 4
#     Node 6, Type 0, BuildingBlock: CEKHIL_clean_sbu_0, # of connection points: 4
#     Node 7, Type 0, BuildingBlock: CEKHIL_clean_sbu_0, # of connection points: 4
#     Node 8, Type 0, BuildingBlock: CEKHIL_clean_sbu_0, # of connection points: 4
#     Node 9, Type 0, BuildingBlock: CEKHIL_clean_sbu_0, # of connection points: 4
#     Node 10, Type 0, BuildingBlock: CEKHIL_clean_sbu_0, # of connection points: 4
#     Node 11, Type 0, BuildingBlock: CEKHIL_clean_sbu_0, # of connection points: 4
#     Node 12, Type 0, BuildingBlock: CEKHIL_clean_sbu_0, # of connection points: 4
#     Node 13, Type 0, BuildingBlock: CEKHIL_clean_sbu_0, # of connection points: 4
#     Node 14, Type 0, BuildingBlock: CEKHIL_clean_sbu_0, # of connection points: 4
#     Node 15, Type 0, BuildingBlock: CEKHIL_clean_sbu_0, # of connection points: 4
#     Node 16, Type 0, BuildingBlock: CEKHIL_clean_sbu_0, # of connection points: 4
#     Node 17, Type 0, BuildingBlock: CEKHIL_clean_sbu_0, # of connection points: 4
#     Node 18, Type 0, BuildingBlock: CEKHIL_clean_sbu_0, # of connection points: 4
#     Node 19, Type 0, BuildingBlock: CEKHIL_clean_sbu_0, # of connection points: 4
#     Node 20, Type 0, BuildingBlock: CEKHIL_clean_sbu_0, # of connection points: 4
#     Node 21, Type 0, BuildingBlock: CEKHIL_clean_sbu_0, # of connection points: 4
#     Node 22, Type 0, BuildingBlock: CEKHIL_clean_sbu_0, # of connection points: 4
#     Node 23, Type 0, BuildingBlock: CEKHIL_clean_sbu_0, # of connection points: 4
#     Edge 24, Type (0, 0), BuildingBlock: UVAHIK_clean_linker_0, # of connection points: 2
#     Edge 25, Type (0, 0), BuildingBlock: UVAHIK_clean_linker_0, # of connection points: 2
#     Edge 26, Type (0, 0), BuildingBlock: UVAHIK_clean_linker_0, # of connection points: 2
#     Edge 27, Type (0, 0), BuildingBlock: UVAHIK_clean_linker_0, # of connection points: 2
#     Edge 28, Type (0, 0), BuildingBlock: UVAHIK_clean_linker_0, # of connection points: 2
#     Edge 29, Type (0, 0), BuildingBlock: UVAHIK_clean_linker_0, # of connection points: 2
#     Edge 30, Type (0, 0), BuildingBlock: UVAHIK_clean_linker_0, # of connection points: 2
#     Edge 31, Type (0, 0), BuildingBlock: UVAHIK_clean_linker_0, # of connection points: 2
#     Edge 32, Type (0, 0), BuildingBlock: UVAHIK_clean_linker_0, # of connection points: 2
#     Edge 33, Type (0, 0), BuildingBlock: UVAHIK_clean_linker_0, # of connection points: 2
#     Edge 34, Type (0, 0), BuildingBlock: UVAHIK_clean_linker_0, # of connection points: 2
#     Edge 35, Type (0, 0), BuildingBlock: UVAHIK_clean_linker_0, # of connection points: 2
#     Edge 36, Type (0, 0), BuildingBlock: UVAHIK_clean_linker_0, # of connection points: 2
#     Edge 37, Type (0, 0), BuildingBlock: UVAHIK_clean_linker_0, # of connection points: 2
#     Edge 38, Type (0, 0), BuildingBlock: UVAHIK_clean_linker_0, # of connection points: 2
#     Edge 39, Type (0, 0), BuildingBlock: UVAHIK_clean_linker_0, # of connection points: 2
#     Edge 40, Type (0, 0), BuildingBlock: UVAHIK_clean_linker_0, # of connection points: 2
#     Edge 41, Type (0, 0), BuildingBlock: UVAHIK_clean_linker_0, # of connection points: 2
#     Edge 42, Type (0, 0), BuildingBlock: UVAHIK_clean_linker_0, # of connection points: 2
#     Edge 43, Type (0, 0), BuildingBlock: UVAHIK_clean_linker_0, # of connection points: 2
#     Edge 44, Type (0, 0), BuildingBlock: UVAHIK_clean_linker_0, # of connection points: 2
#     Edge 45, Type (0, 0), BuildingBlock: UVAHIK_clean_linker_0, # of connection points: 2
#     Edge 46, Type (0, 0), BuildingBlock: UVAHIK_clean_linker_0, # of connection points: 2
#     Edge 47, Type (0, 0), BuildingBlock: UVAHIK_clean_linker_0, # of connection points: 2
#     Edge 48, Type (0, 0), BuildingBlock: UVAHIK_clean_linker_0, # of connection points: 2
#     Edge 49, Type (0, 0), BuildingBlock: UVAHIK_clean_linker_0, # of connection points: 2
#     Edge 50, Type (0, 0), BuildingBlock: UVAHIK_clean_linker_0, # of connection points: 2
#     Edge 51, Type (0, 0), BuildingBlock: UVAHIK_clean_linker_0, # of connection points: 2
#     Edge 52, Type (0, 0), BuildingBlock: UVAHIK_clean_linker_0, # of connection points: 2
#     Edge 53, Type (0, 0), BuildingBlock: UVAHIK_clean_linker_0, # of connection points: 2
#     Edge 54, Type (0, 0), BuildingBlock: UVAHIK_clean_linker_0, # of connection points: 2
#     Edge 55, Type (0, 0), BuildingBlock: UVAHIK_clean_linker_0, # of connection points: 2
#     Edge 56, Type (0, 0), BuildingBlock: UVAHIK_clean_linker_0, # of connection points: 2
#     Edge 57, Type (0, 0), BuildingBlock: UVAHIK_clean_linker_0, # of connection points: 2
#     Edge 58, Type (0, 0), BuildingBlock: UVAHIK_clean_linker_0, # of connection points: 2
#     Edge 59, Type (0, 0), BuildingBlock: UVAHIK_clean_linker_0, # of connection points: 2
#     Edge 60, Type (0, 0), BuildingBlock: UVAHIK_clean_linker_0, # of connection points: 2
#     Edge 61, Type (0, 0), BuildingBlock: UVAHIK_clean_linker_0, # of connection points: 2
#     Edge 62, Type (0, 0), BuildingBlock: UVAHIK_clean_linker_0, # of connection points: 2
#     Edge 63, Type (0, 0), BuildingBlock: UVAHIK_clean_linker_0, # of connection points: 2
#     Edge 64, Type (0, 0), BuildingBlock: UVAHIK_clean_linker_0, # of connection points: 2
#     Edge 65, Type (0, 0), BuildingBlock: UVAHIK_clean_linker_0, # of connection points: 2
#     Edge 66, Type (0, 0), BuildingBlock: UVAHIK_clean_linker_0, # of connection points: 2
#     Edge 67, Type (0, 0), BuildingBlock: UVAHIK_clean_linker_0, # of connection points: 2
#     Edge 68, Type (0, 0), BuildingBlock: UVAHIK_clean_linker_0, # of connection points: 2
#     Edge 69, Type (0, 0), BuildingBlock: UVAHIK_clean_linker_0, # of connection points: 2
#     Edge 70, Type (0, 0), BuildingBlock: UVAHIK_clean_linker_0, # of connection points: 2
#     Edge 71, Type (0, 0), BuildingBlock: UVAHIK_clean_linker_0, # of connection points: 2
# Relax obj value: 0.071
# Max RMSD: 0.095
# Mean RMSD: 0.095
data_MOF--net-gme--node1-CEKHIL_clean_sbu_0--edge1-UVAHIK_clean_linker_0
_symmetry_space_group_name_H-M    P1
_symmetry_Int_Tables_number       1
_symmetry_cell_setting            triclinic
loop_
_symmetry_equiv_pos_as_xyz
'x, y, z'
_cell_length_a     69.493868
_cell_length_b     69.497162
_cell_length_c     73.204353
_cell_angle_alpha  89.991377
_cell_angle_beta   90.012489
_cell_angle_gamma 120.01356
loop_
_atom_site_label
_atom_site_type_symbol
_atom_site_fract_x
_atom_site_fract_y
_atom_site_fract_z
_atom_type_partial_charge
Co0 Co 0.38612 0.06271 0.11897 0.0
O1 O 0.39192 0.0686 0.09334 0.0
O2 O 0.37186 0.03508 0.10544 0.0
C3 C 0.37741 0.08946 0.12408 0.0
O4 O 0.37585 0.05033 0.14466 0.0
Co5 Co 0.41493 0.09889 0.14761 0.0
O6 O 0.39184 0.07845 0.16493 0.0
C7 C 0.43275 0.07304 0.12953 0.0
C8 C 0.38002 0.0473 0.0909 0.0
C9 C 0.37817 0.0583 0.1609 0.0
O10 O 0.4139 0.06057 0.12175 0.0
O11 O 0.43684 0.08999 0.13926 0.0
O12 O 0.36256 0.07028 0.11762 0.0
O13 O 0.39717 0.09236 0.12575 0.0
Co14 Co 0.32596 0.38767 0.6193 0.0
O15 O 0.3284 0.39455 0.59376 0.0
O16 O 0.34008 0.37341 0.6066 0.0
C17 C 0.29029 0.37946 0.62171 0.0
O18 O 0.32512 0.37639 0.64535 0.0
Co19 Co 0.31604 0.41577 0.64683 0.0
O20 O 0.30758 0.38965 0.66268 0.0
C21 C 0.36106 0.43421 0.63096 0.0
C22 C 0.33742 0.38227 0.59182 0.0
C23 C 0.31526 0.37661 0.66022 0.0
O24 O 0.35572 0.41525 0.62379 0.0
O25 O 0.34717 0.43797 0.63946 0.0
O26 O 0.29483 0.36452 0.61589 0.0
O27 O 0.30722 0.39892 0.62446 0.0
Co28 Co 0.93749 0.32663 0.12073 0.0
O29 O 0.93235 0.32853 0.09522 0.0
O30 O 0.96542 0.33982 0.10746 0.0
C31 C 0.90962 0.29129 0.12409 0.0
O32 O 0.9487 0.32629 0.14658 0.0
Co33 Co 0.90089 0.31855 0.1491 0.0
O34 O 0.91855 0.30985 0.16473 0.0
C35 C 0.9289 0.36344 0.13343 0.0
C36 C 0.95356 0.33707 0.09288 0.0
C37 C 0.93911 0.3171 0.16178 0.0
O38 O 0.94081 0.35686 0.12497 0.0
O39 O 0.91166 0.35044 0.14282 0.0
O40 O 0.92878 0.29534 0.11783 0.0
O41 O 0.90748 0.3085 0.12665 0.0
Co42 Co 0.61054 0.93978 0.61865 0.0
O43 O 0.60369 0.93496 0.59312 0.0
O44 O 0.62445 0.96798 0.60584 0.0
C45 C 0.61921 0.91269 0.62155 0.0
O46 O 0.62183 0.9508 0.64451 0.0
Co47 Co 0.58284 0.90223 0.64664 0.0
O48 O 0.60865 0.92059 0.66261 0.0
C49 C 0.56367 0.92758 0.62972 0.0
C50 C 0.61569 0.9563 0.59112 0.0
C51 C 0.62162 0.94121 0.65963 0.0
O52 O 0.58274 0.94157 0.62291 0.0
O53 O 0.5601 0.91006 0.63835 0.0
O54 O 0.63397 0.93216 0.61551 0.0
O55 O 0.59964 0.90992 0.62421 0.0
Co56 Co 0.67222 0.61093 0.12197 0.0
O57 O 0.67118 0.60474 0.09637 0.0
O58 O 0.65886 0.62557 0.10883 0.0
C59 C 0.70766 0.61902 0.12591 0.0
O60 O 0.67161 0.62157 0.14794 0.0
Co61 Co 0.68006 0.5819 0.14995 0.0
O62 O 0.68796 0.60773 0.16605 0.0
C63 C 0.63558 0.5648 0.13345 0.0
C64 C 0.66227 0.6171 0.09416 0.0
C65 C 0.68054 0.62093 0.1632 0.0
O66 O 0.64214 0.58355 0.12544 0.0
O67 O 0.64849 0.5605 0.14291 0.0
O68 O 0.70341 0.63405 0.11978 0.0
O69 O 0.69064 0.59941 0.12794 0.0
Co70 Co 0.0575 0.67272 0.62027 0.0
O71 O 0.06248 0.67139 0.59466 0.0
O72 O 0.02933 0.65847 0.60725 0.0
C73 C 0.08443 0.70851 0.62363 0.0
O74 O 0.04644 0.67223 0.64635 0.0
Co75 Co 0.09524 0.6823 0.64802 0.0
O76 O 0.0768 0.68931 0.66427 0.0
C77 C 0.0699 0.63798 0.63074 0.0
C78 C 0.04116 0.66187 0.59253 0.0
C79 C 0.05607 0.68138 0.66156 0.0
O80 O 0.05596 0.64314 0.62397 0.0
O81 O 0.08736 0.65181 0.63951 0.0
O82 O 0.06493 0.70382 0.61768 0.0
O83 O 0.08729 0.69173 0.62593 0.0
Co84 Co 0.93682 0.60898 0.3815 0.0
O85 O 0.93152 0.60194 0.407 0.0
O86 O 0.96472 0.62333 0.39485 0.0
C87 C 0.90937 0.61703 0.378 0.0
O88 O 0.94824 0.62051 0.35569 0.0
Co89 Co 0.90013 0.58089 0.35301 0.0
O90 O 0.91816 0.60726 0.33748 0.0
C91 C 0.92737 0.56325 0.3689 0.0
C92 C 0.95275 0.61434 0.4094 0.0
C93 C 0.93876 0.62036 0.34049 0.0
O94 O 0.9396 0.58175 0.37728 0.0
O95 O 0.91022 0.5593 0.3595 0.0
O96 O 0.92857 0.63193 0.38436 0.0
O97 O 0.90692 0.59756 0.37547 0.0
Co98 Co 0.32648 0.93855 0.88191 0.0
O99 O 0.32931 0.934 0.9074 0.0
O100 O 0.34045 0.96679 0.89461 0.0
C101 C 0.29093 0.91074 0.87959 0.0
O102 O 0.32534 0.94946 0.8562 0.0
Co103 Co 0.31638 0.90144 0.8534 0.0
O104 O 0.30752 0.9193 0.83819 0.0
C105 C 0.36156 0.92768 0.86925 0.0
C106 C 0.33815 0.95531 0.90933 0.0
C107 C 0.31526 0.9399 0.84128 0.0
O108 O 0.35628 0.94106 0.87698 0.0
O109 O 0.3476 0.91032 0.86044 0.0
O110 O 0.29525 0.93007 0.88567 0.0
O111 O 0.30799 0.90858 0.87642 0.0
Co112 Co 0.38465 0.32494 0.38097 0.0
O113 O 0.3917 0.32669 0.40646 0.0
O114 O 0.37001 0.33816 0.39435 0.0
C115 C 0.37719 0.28962 0.3775 0.0
O116 O 0.37314 0.32473 0.35513 0.0
Co117 Co 0.41326 0.31697 0.35257 0.0
O118 O 0.38692 0.30838 0.33694 0.0
C119 C 0.43026 0.36169 0.36857 0.0
C120 C 0.37913 0.33531 0.40888 0.0
C121 C 0.37358 0.3156 0.33991 0.0
O122 O 0.41165 0.35517 0.37684 0.0
O123 O 0.4345 0.34869 0.35919 0.0
O124 O 0.36203 0.29356 0.38382 0.0
O125 O 0.3965 0.30688 0.37496 0.0
Co126 Co 0.05837 0.38635 0.882 0.0
O127 O 0.06314 0.39283 0.9076 0.0
O128 O 0.0303 0.37085 0.89506 0.0
C129 C 0.08691 0.37985 0.87868 0.0
O130 O 0.04758 0.37527 0.85597 0.0
Co131 Co 0.09502 0.41598 0.85405 0.0
O132 O 0.07792 0.38992 0.83799 0.0
C133 C 0.06631 0.43178 0.87013 0.0
C134 C 0.04197 0.37981 0.90976 0.0
C135 C 0.05739 0.37624 0.84075 0.0
O136 O 0.05446 0.41298 0.87821 0.0
O137 O 0.08374 0.43654 0.86082 0.0
O138 O 0.0678 0.36423 0.88459 0.0
O139 O 0.0885 0.39899 0.87632 0.0
Co140 Co 0.67348 0.0601 0.38044 0.0
O141 O 0.67316 0.06612 0.40596 0.0
O142 O 0.65911 0.03245 0.39403 0.0
C143 C 0.70933 0.08611 0.37592 0.0
O144 O 0.67187 0.04784 0.35475 0.0
Co145 Co 0.68263 0.09683 0.35183 0.0
O146 O 0.68828 0.07726 0.33575 0.0
C147 C 0.639 0.07299 0.37028 0.0
C148 C 0.66324 0.04483 0.4085 0.0
C149 C 0.68041 0.05671 0.33921 0.0
O150 O 0.64413 0.05909 0.37716 0.0
O151 O 0.65267 0.09003 0.361 0.0
O152 O 0.70431 0.06675 0.38243 0.0
O153 O 0.69287 0.08956 0.37388 0.0
Co154 Co 0.61125 0.67117 0.88374 0.0
O155 O 0.60441 0.66941 0.90926 0.0
O156 O 0.62557 0.65747 0.89684 0.0
C157 C 0.61957 0.70673 0.88027 0.0
O158 O 0.62253 0.67126 0.85789 0.0
Co159 Co 0.58274 0.67966 0.85566 0.0
O160 O 0.60867 0.68757 0.83969 0.0
C161 C 0.56531 0.63482 0.87147 0.0
C162 C 0.61669 0.66042 0.91147 0.0
C163 C 0.62195 0.6803 0.84268 0.0
O164 O 0.58395 0.6412 0.87962 0.0
O165 O 0.56115 0.64795 0.86219 0.0
O166 O 0.63437 0.70225 0.88656 0.0
O167 O 0.59995 0.68982 0.87788 0.0
Co168 Co 0.6113 0.93645 0.88133 0.0
O169 O 0.60456 0.93151 0.90688 0.0
O170 O 0.62488 0.96461 0.89415 0.0
C171 C 0.62047 0.90976 0.87819 0.0
O172 O 0.62243 0.94768 0.85549 0.0
Co173 Co 0.58399 0.89899 0.85317 0.0
O174 O 0.60998 0.91754 0.8374 0.0
C175 C 0.56454 0.92429 0.86972 0.0
C176 C 0.61628 0.95288 0.90888 0.0
C177 C 0.62261 0.93822 0.8404 0.0
O178 O 0.58334 0.93792 0.87711 0.0
O179 O 0.56117 0.90702 0.8608 0.0
O180 O 0.63502 0.92925 0.88432 0.0
O181 O 0.60076 0.90666 0.87563 0.0
Co182 Co 0.67083 0.60875 0.38182 0.0
O183 O 0.66934 0.602 0.40735 0.0
O184 O 0.65742 0.62325 0.39507 0.0
C185 C 0.70628 0.61675 0.37811 0.0
O186 O 0.67067 0.61999 0.35598 0.0
Co187 Co 0.67894 0.58026 0.35346 0.0
O188 O 0.68719 0.60646 0.33774 0.0
C189 C 0.63422 0.56298 0.36955 0.0
C190 C 0.6605 0.6144 0.40967 0.0
C191 C 0.67978 0.61964 0.34074 0.0
O192 O 0.64073 0.58154 0.37787 0.0
O193 O 0.64722 0.55884 0.36005 0.0
O194 O 0.70204 0.6317 0.38442 0.0
O195 O 0.68922 0.59723 0.37577 0.0
Co196 Co 0.05699 0.67054 0.88204 0.0
O197 O 0.06201 0.669 0.90761 0.0
O198 O 0.02899 0.65764 0.89525 0.0
C199 C 0.08511 0.70576 0.87859 0.0
O200 O 0.04598 0.6706 0.85605 0.0
Co201 Co 0.0937 0.67798 0.85402 0.0
O202 O 0.07628 0.68662 0.83803 0.0
C203 C 0.06554 0.63343 0.8702 0.0
C204 C 0.04082 0.66059 0.90989 0.0
C205 C 0.05571 0.67954 0.84083 0.0
O206 O 0.05352 0.64017 0.87827 0.0
O207 O 0.08289 0.64624 0.86085 0.0
O208 O 0.06595 0.70198 0.88462 0.0
O209 O 0.08703 0.68839 0.87624 0.0
Co210 Co 0.38682 0.05877 0.38097 0.0
O211 O 0.39326 0.0652 0.40646 0.0
O212 O 0.37327 0.03139 0.39487 0.0
C213 C 0.37752 0.08513 0.37603 0.0
O214 O 0.37599 0.04594 0.35545 0.0
Co215 Co 0.41432 0.09476 0.35172 0.0
O216 O 0.39022 0.07418 0.3352 0.0
C217 C 0.43411 0.07143 0.37105 0.0
C218 C 0.38165 0.04395 0.40923 0.0
C219 C 0.37715 0.05392 0.33935 0.0
O220 O 0.41504 0.05744 0.37786 0.0
O221 O 0.43741 0.08834 0.36163 0.0
O222 O 0.36294 0.06598 0.38273 0.0
O223 O 0.39724 0.08813 0.37395 0.0
Co224 Co 0.32738 0.38508 0.88138 0.0
O225 O 0.33002 0.38975 0.90731 0.0
O226 O 0.34023 0.36859 0.89224 0.0
C227 C 0.2924 0.37912 0.87973 0.0
O228 O 0.32598 0.37554 0.85471 0.0
Co229 Co 0.31945 0.41621 0.85583 0.0
O230 O 0.30956 0.39098 0.83864 0.0
C231 C 0.36459 0.43097 0.87023 0.0
C232 C 0.33807 0.3765 0.90772 0.0
C233 C 0.31645 0.37716 0.84015 0.0
O234 O 0.3579 0.41183 0.87762 0.0
O235 O 0.3516 0.43619 0.86195 0.0
O236 O 0.29582 0.363 0.8843 0.0
O237 O 0.31 0.39828 0.87766 0.0
Co238 Co 0.93745 0.32411 0.38143 0.0
O239 O 0.932 0.32538 0.40695 0.0
O240 O 0.96537 0.33829 0.39478 0.0
C241 C 0.91078 0.28834 0.37769 0.0
O242 O 0.94894 0.32462 0.35553 0.0
Co243 Co 0.90028 0.31491 0.35325 0.0
O244 O 0.91876 0.30744 0.33744 0.0
C245 C 0.9268 0.35977 0.36928 0.0
C246 C 0.95328 0.33484 0.40935 0.0
C247 C 0.93946 0.31535 0.34031 0.0
O248 O 0.93934 0.35377 0.37748 0.0
O249 O 0.9097 0.34641 0.3599 0.0
O250 O 0.93014 0.29316 0.38404 0.0
O251 O 0.90768 0.305 0.3754 0.0
Co252 Co 0.05732 0.38656 0.62043 0.0
O253 O 0.06218 0.39317 0.59486 0.0
O254 O 0.02912 0.37242 0.60744 0.0
C255 C 0.08456 0.3781 0.62341 0.0
O256 O 0.04643 0.37561 0.64647 0.0
Co257 Co 0.09504 0.41468 0.6482 0.0
O258 O 0.07691 0.38889 0.66424 0.0
C259 C 0.06931 0.43345 0.63126 0.0
C260 C 0.04089 0.38108 0.59272 0.0
C261 C 0.0562 0.37596 0.66157 0.0
O262 O 0.05544 0.41436 0.62442 0.0
O263 O 0.08684 0.43714 0.63995 0.0
O264 O 0.06509 0.36319 0.61751 0.0
O265 O 0.0872 0.39763 0.62593 0.0
Co266 Co 0.67023 0.06086 0.11817 0.0
O267 O 0.66854 0.06618 0.09267 0.0
O268 O 0.65687 0.03301 0.10492 0.0
C269 C 0.7056 0.08846 0.12187 0.0
O270 O 0.67025 0.04924 0.14383 0.0
Co271 Co 0.6783 0.09706 0.14694 0.0
O272 O 0.68634 0.07887 0.16258 0.0
C273 C 0.63366 0.06988 0.13062 0.0
C274 C 0.65974 0.04493 0.09036 0.0
C275 C 0.67918 0.05843 0.15918 0.0
O276 O 0.64011 0.0578 0.12228 0.0
O277 O 0.64667 0.08695 0.14018 0.0
O278 O 0.70148 0.06935 0.11542 0.0
O279 O 0.68848 0.09075 0.12438 0.0
Co280 Co 0.6128 0.67305 0.61968 0.0
O281 O 0.60584 0.67098 0.59415 0.0
O282 O 0.6267 0.65879 0.60676 0.0
C283 C 0.62131 0.70879 0.62249 0.0
O284 O 0.62416 0.67334 0.64556 0.0
Co285 Co 0.58531 0.68302 0.64782 0.0
O286 O 0.61131 0.69071 0.66361 0.0
C287 C 0.56621 0.63821 0.63135 0.0
C288 C 0.61786 0.66168 0.59207 0.0
C289 C 0.62412 0.68286 0.66066 0.0
O290 O 0.58507 0.64341 0.62405 0.0
O291 O 0.56274 0.65213 0.64013 0.0
O292 O 0.63613 0.70418 0.61645 0.0
O293 O 0.60182 0.69192 0.62526 0.0
Co294 Co 0.9385 0.61178 0.12152 0.0
O295 O 0.93312 0.6047 0.09604 0.0
O296 O 0.96634 0.62633 0.1081 0.0
C297 C 0.91087 0.61954 0.1251 0.0
O298 O 0.94991 0.62331 0.14732 0.0
Co299 Co 0.90195 0.58334 0.14998 0.0
O300 O 0.91981 0.60973 0.16553 0.0
C301 C 0.92963 0.56623 0.1341 0.0
C302 C 0.95432 0.61721 0.09358 0.0
C303 C 0.94038 0.62298 0.16254 0.0
O304 O 0.94162 0.58475 0.12568 0.0
O305 O 0.91245 0.56205 0.14355 0.0
O306 O 0.93 0.63454 0.11871 0.0
O307 O 0.90858 0.60012 0.12759 0.0
Co308 Co 0.32499 0.9405 0.62007 0.0
O309 O 0.32664 0.93528 0.59456 0.0
O310 O 0.33916 0.9685 0.60697 0.0
C311 C 0.28927 0.91344 0.62341 0.0
O312 O 0.32511 0.95195 0.64584 0.0
Co313 Co 0.31555 0.90343 0.64845 0.0
O314 O 0.3083 0.92204 0.66428 0.0
C315 C 0.35981 0.92846 0.63105 0.0
C316 C 0.33602 0.95659 0.59235 0.0
C317 C 0.31591 0.94261 0.66108 0.0
O318 O 0.35464 0.94234 0.62416 0.0
O319 O 0.34598 0.9111 0.63992 0.0
O320 O 0.29387 0.93279 0.61716 0.0
O321 O 0.30612 0.91074 0.626 0.0
Co322 Co 0.38523 0.32817 0.12003 0.0
O323 O 0.39263 0.33148 0.09454 0.0
O324 O 0.37017 0.34152 0.10752 0.0
C325 C 0.37798 0.29281 0.12235 0.0
O326 O 0.37352 0.32663 0.14601 0.0
Co327 Co 0.41393 0.31924 0.14765 0.0
O328 O 0.38773 0.31015 0.16359 0.0
C329 C 0.43071 0.36453 0.13289 0.0
C330 C 0.37978 0.3399 0.0928 0.0
C331 C 0.3742 0.31722 0.16101 0.0
O332 O 0.412 0.35831 0.12492 0.0
O333 O 0.4351 0.3512 0.14162 0.0
O334 O 0.36283 0.29695 0.11634 0.0
O335 O 0.39728 0.30999 0.12515 0.0
C336 C 0.34523 0.03864 0.31793 0.0
C337 C 0.36446 0.03908 0.32429 0.0
C338 C 0.33683 0.03012 0.30059 0.0
C339 C 0.33874 0.03438 0.25969 0.0
H340 H 0.34975 0.99297 0.23254 0.0
C341 C 0.37674 0.0347 0.1867 0.0
C342 C 0.3661 0.04344 0.17613 0.0
C343 C 0.36835 0.02551 0.20385 0.0
C344 C 0.34641 0.00448 0.23994 0.0
H345 H 0.3894 0.03009 0.31832 0.0
H346 H 0.37522 0.0157 0.28794 0.0
H347 H 0.34898 0.99171 0.26591 0.0
H348 H 0.33789 0.04847 0.17438 0.0
H349 H 0.3228 0.03196 0.20431 0.0
H350 H 0.33726 0.04791 0.23394 0.0
C351 C 0.36607 0.02123 0.29632 0.0
C352 C 0.346 0.00379 0.25907 0.0
C353 C 0.37428 0.02951 0.31373 0.0
C354 C 0.34616 0.04156 0.18231 0.0
C355 C 0.33769 0.0323 0.19947 0.0
C356 C 0.33904 0.035 0.24064 0.0
C357 C 0.34788 0.02243 0.28917 0.0
C358 C 0.34309 0.01937 0.26919 0.0
C359 C 0.34924 0.02507 0.21077 0.0
C360 C 0.34379 0.02068 0.23054 0.0
H361 H 0.33759 0.0462 0.32586 0.0
H362 H 0.32253 0.0309 0.29569 0.0
H363 H 0.33676 0.04689 0.2669 0.0
H364 H 0.39237 0.03637 0.18223 0.0
H365 H 0.37787 0.02041 0.21222 0.0
C366 C 0.33249 0.3609 0.68127 0.0
C367 C 0.31409 0.36284 0.676 0.0
C368 C 0.3331 0.35268 0.69865 0.0
C369 C 0.33667 0.35671 0.74025 0.0
H370 H 0.2837 0.31516 0.76681 0.0
C371 C 0.29702 0.35771 0.81164 0.0
C372 C 0.31493 0.36417 0.8237 0.0
C373 C 0.2972 0.3492 0.79444 0.0
C374 C 0.29874 0.32661 0.75958 0.0
H375 H 0.28119 0.35588 0.68389 0.0
H376 H 0.28209 0.34148 0.71385 0.0
H377 H 0.28368 0.31439 0.73346 0.0
H378 H 0.34655 0.36569 0.82765 0.0
H379 H 0.34712 0.35117 0.79717 0.0
H380 H 0.3513 0.36973 0.76635 0.0
C381 C 0.2961 0.34621 0.70482 0.0
C382 C 0.29872 0.32621 0.74048 0.0
C383 C 0.29561 0.35463 0.68765 0.0
C384 C 0.33248 0.36072 0.81863 0.0
C385 C 0.33286 0.35255 0.80119 0.0
C386 C 0.33672 0.35702 0.75936 0.0
C387 C 0.31519 0.346 0.71087 0.0
C388 C 0.31729 0.34205 0.73058 0.0
C389 C 0.31546 0.34726 0.78875 0.0
C390 C 0.31737 0.34273 0.76918 0.0
H391 H 0.34699 0.36723 0.67255 0.0
H392 H 0.34798 0.35255 0.70285 0.0
H393 H 0.35121 0.36925 0.73311 0.0
H394 H 0.28326 0.36014 0.81523 0.0
H395 H 0.28366 0.34556 0.78514 0.0
C396 C 0.97233 0.33537 0.18241 0.0
C397 C 0.95225 0.31648 0.17738 0.0
C398 C 0.98163 0.33649 0.19968 0.0
C399 C 0.97686 0.30304 0.24118 0.0
H400 H 0.98175 0.35355 0.26772 0.0
C401 C 0.9435 0.29691 0.31277 0.0
C402 C 0.95274 0.31524 0.32462 0.0
C403 C 0.95287 0.29822 0.29566 0.0
C404 C 0.98113 0.33962 0.26056 0.0
H405 H 0.92721 0.28334 0.18558 0.0
H406 H 0.9435 0.28502 0.21533 0.0
H407 H 0.9816 0.35378 0.23449 0.0
H408 H 0.97986 0.34887 0.32842 0.0
H409 H 0.99629 0.35134 0.29818 0.0
H410 H 0.97494 0.28829 0.2673 0.0
C411 C 0.95215 0.29904 0.20618 0.0
C412 C 0.98103 0.33975 0.24144 0.0
C413 C 0.94271 0.29809 0.18915 0.0
C414 C 0.97252 0.33444 0.31957 0.0
C415 C 0.98179 0.3359 0.30223 0.0
C416 C 0.97699 0.30292 0.26028 0.0
C417 C 0.97119 0.31857 0.21197 0.0
C418 C 0.97773 0.32098 0.23157 0.0
C419 C 0.97158 0.31803 0.28985 0.0
C420 C 0.97794 0.32072 0.27019 0.0
H421 H 0.97989 0.34985 0.17362 0.0
H422 H 0.99637 0.35172 0.20374 0.0
H423 H 0.97469 0.28849 0.23394 0.0
H424 H 0.92822 0.28191 0.31635 0.0
H425 H 0.94438 0.28422 0.28647 0.0
C426 C 0.65115 0.94919 0.68219 0.0
C427 C 0.63559 0.95433 0.67499 0.0
C428 C 0.65974 0.95627 0.6997 0.0
C429 C 0.65883 0.98809 0.74079 0.0
H430 H 0.6519 0.93587 0.76584 0.0
C431 C 0.63103 0.96604 0.81586 0.0
C432 C 0.63634 0.95159 0.82503 0.0
C433 C 0.63909 0.97335 0.79818 0.0
C434 C 0.65457 0.95094 0.75919 0.0
H435 H 0.61774 0.97195 0.67965 0.0
H436 H 0.63213 0.98379 0.71058 0.0
H437 H 0.65179 0.93656 0.73299 0.0
H438 H 0.65574 0.93514 0.82404 0.0
H439 H 0.67089 0.94887 0.79368 0.0
H440 H 0.6605 0.0019 0.76737 0.0
C441 C 0.63829 0.97487 0.70262 0.0
C442 C 0.6545 0.95133 0.74018 0.0
C443 C 0.63001 0.96811 0.68491 0.0
C444 C 0.65148 0.94632 0.81714 0.0
C445 C 0.65991 0.95399 0.79969 0.0
C446 C 0.65893 0.98771 0.75996 0.0
C447 C 0.65235 0.96802 0.71057 0.0
C448 C 0.65613 0.96966 0.73068 0.0
C449 C 0.65273 0.96644 0.78953 0.0
C450 C 0.6563 0.96888 0.76939 0.0
H451 H 0.65556 0.93848 0.67474 0.0
H452 H 0.67098 0.95119 0.7052 0.0
H453 H 0.6603 0.00255 0.7339 0.0
H454 H 0.61911 0.97004 0.82166 0.0
H455 H 0.63309 0.98281 0.7908 0.0
C456 C 0.66144 0.63486 0.32049 0.0
C457 C 0.68027 0.63342 0.32522 0.0
C458 C 0.66023 0.64329 0.30337 0.0
C459 C 0.69342 0.67203 0.26176 0.0
H460 H 0.64259 0.62656 0.23538 0.0
C461 C 0.69901 0.64305 0.19089 0.0
C462 C 0.68085 0.63441 0.17887 0.0
C463 C 0.69782 0.65152 0.20784 0.0
C464 C 0.65661 0.63984 0.24251 0.0
H465 H 0.71324 0.64132 0.31667 0.0
H466 H 0.71139 0.6563 0.28717 0.0
H467 H 0.64247 0.62635 0.26862 0.0
H468 H 0.6477 0.62905 0.17459 0.0
H469 H 0.6454 0.64361 0.20461 0.0
H470 H 0.70819 0.68454 0.23559 0.0
C471 C 0.69749 0.65096 0.29644 0.0
C472 C 0.65654 0.63972 0.26162 0.0
C473 C 0.69853 0.64224 0.31331 0.0
C474 C 0.66198 0.63577 0.18359 0.0
C475 C 0.66062 0.64395 0.20079 0.0
C476 C 0.69349 0.67215 0.24267 0.0
C477 C 0.67801 0.65076 0.29093 0.0
C478 C 0.67545 0.65507 0.27143 0.0
C479 C 0.6783 0.65125 0.21331 0.0
C480 C 0.67559 0.65531 0.23284 0.0
H481 H 0.64708 0.62801 0.3294 0.0
H482 H 0.64504 0.64301 0.29952 0.0
H483 H 0.70807 0.68433 0.26895 0.0
H484 H 0.71375 0.64219 0.18755 0.0
H485 H 0.71165 0.65673 0.21718 0.0
C486 C 0.02319 0.66221 0.68249 0.0
C487 C 0.04294 0.68143 0.67739 0.0
C488 C 0.01404 0.66072 0.69988 0.0
C489 C 0.01889 0.69369 0.74182 0.0
H490 H 0.01423 0.64284 0.76767 0.0
C491 C 0.05248 0.69849 0.81328 0.0
C492 C 0.04278 0.6801 0.82505 0.0
C493 C 0.04329 0.69752 0.79613 0.0
C494 C 0.01482 0.65687 0.7607 0.0
H495 H 0.06751 0.71474 0.68564 0.0
H496 H 0.05153 0.71239 0.71562 0.0
H497 H 0.01422 0.64309 0.73442 0.0
H498 H 0.01516 0.6467 0.82865 0.0
H499 H -0.00088 0.64479 0.79832 0.0
H500 H 0.02103 0.70809 0.76815 0.0
C501 C 0.043 0.69839 0.70643 0.0
C502 C 0.01481 0.65702 0.74157 0.0
C503 C 0.05227 0.69973 0.68926 0.0
C504 C 0.02283 0.66117 0.81986 0.0
C505 C 0.01378 0.66003 0.80248 0.0
C506 C 0.01893 0.69356 0.76093 0.0
C507 C 0.02431 0.67858 0.71227 0.0
C508 C 0.01799 0.6759 0.73194 0.0
C509 C 0.02435 0.67798 0.79021 0.0
C510 C 0.01803 0.67562 0.77056 0.0
H511 H 0.01579 0.64781 0.67361 0.0
H512 H -0.00045 0.64528 0.70395 0.0
H513 H 0.02094 0.70831 0.7348 0.0
H514 H 0.06791 0.71326 0.81696 0.0
H515 H 0.05205 0.71155 0.78701 0.0
C516 C 0.97363 0.63787 0.18312 0.0
C517 C 0.95357 0.63672 0.17813 0.0
C518 C 0.98288 0.64587 0.20044 0.0
C519 C 0.9774 0.67349 0.24244 0.0
H520 H 0.98261 0.62751 0.2681 0.0
C521 C 0.94256 0.64317 0.31321 0.0
C522 C 0.95203 0.63425 0.32499 0.0
C523 C 0.9522 0.65192 0.2963 0.0
C524 C 0.98188 0.64091 0.26119 0.0
H525 H 0.92854 0.64479 0.18642 0.0
H526 H 0.94468 0.65901 0.21625 0.0
H527 H 0.98302 0.62814 0.23487 0.0
H528 H 0.97977 0.62871 0.32891 0.0
H529 H 0.99662 0.64382 0.299 0.0
H530 H 0.9747 0.6853 0.2688 0.0
C531 C 0.95339 0.65377 0.20705 0.0
C532 C 0.98213 0.64128 0.24207 0.0
C533 C 0.94403 0.6455 0.18996 0.0
C534 C 0.97224 0.63565 0.3201 0.0
C535 C 0.98176 0.64412 0.30295 0.0
C536 C 0.97715 0.67311 0.26154 0.0
C537 C 0.97238 0.65317 0.21283 0.0
C538 C 0.9787 0.65686 0.23249 0.0
C539 C 0.97141 0.65168 0.29063 0.0
C540 C 0.9782 0.6561 0.2711 0.0
H541 H 0.98121 0.63103 0.17427 0.0
H542 H 0.9976 0.64532 0.20446 0.0
H543 H 0.97515 0.68596 0.23545 0.0
H544 H 0.92698 0.64229 0.31668 0.0
H545 H 0.94361 0.65733 0.28713 0.0
C546 C 0.33376 0.968 0.81677 0.0
C547 C 0.31427 0.95316 0.82609 0.0
C548 C 0.33252 0.97531 0.79921 0.0
C549 C 0.29392 0.9526 0.7606 0.0
H550 H 0.33921 0.00448 0.73515 0.0
C551 C 0.29463 0.95092 0.68364 0.0
C552 C 0.31526 0.95597 0.67632 0.0
C553 C 0.2933 0.95811 0.70115 0.0
C554 C 0.32637 0.98995 0.74208 0.0
H555 H 0.27837 0.93603 0.8255 0.0
H556 H 0.27609 0.94981 0.7954 0.0
H557 H 0.33882 0.00374 0.76861 0.0
H558 H 0.35077 0.97357 0.68078 0.0
H559 H 0.34853 0.98563 0.71169 0.0
H560 H 0.28201 0.93829 0.73442 0.0
C561 C 0.29235 0.95519 0.80117 0.0
C562 C 0.32615 0.98951 0.76125 0.0
C563 C 0.2936 0.9475 0.81849 0.0
C564 C 0.33471 0.9698 0.68612 0.0
C565 C 0.33338 0.97669 0.70382 0.0
C566 C 0.2941 0.95307 0.74159 0.0
C567 C 0.31175 0.96804 0.79083 0.0
C568 C 0.31021 0.97057 0.77074 0.0
C569 C 0.31254 0.96989 0.71189 0.0
C570 C 0.3106 0.9715 0.73203 0.0
H571 H 0.34987 0.97231 0.82234 0.0
H572 H 0.34782 0.98508 0.79169 0.0
H573 H 0.28171 0.93746 0.76726 0.0
H574 H 0.27942 0.94016 0.67629 0.0
H575 H 0.27703 0.95306 0.70676 0.0
C576 C 0.35862 0.33383 0.31925 0.0
C577 C 0.35986 0.31498 0.32428 0.0
C578 C 0.35059 0.335 0.30192 0.0
C579 C 0.3229 0.30162 0.26002 0.0
H580 H 0.36808 0.35313 0.23413 0.0
C581 C 0.35238 0.29785 0.18863 0.0
C582 C 0.36056 0.3162 0.17683 0.0
C583 C 0.34398 0.29853 0.20576 0.0
C584 C 0.3549 0.3389 0.24112 0.0
H585 H 0.35199 0.28193 0.31601 0.0
H586 H 0.33775 0.28371 0.28616 0.0
H587 H 0.36789 0.35291 0.26738 0.0
H588 H 0.36518 0.34916 0.17318 0.0
H589 H 0.35071 0.35055 0.20349 0.0
H590 H 0.31089 0.28702 0.23371 0.0
C591 C 0.34291 0.29766 0.29535 0.0
C592 C 0.35478 0.33877 0.26024 0.0
C593 C 0.35119 0.29665 0.31244 0.0
C594 C 0.35879 0.33473 0.18199 0.0
C595 C 0.35069 0.33557 0.19936 0.0
C596 C 0.32304 0.30173 0.24092 0.0
C597 C 0.34336 0.31717 0.28954 0.0
C598 C 0.33948 0.31968 0.2699 0.0
C599 C 0.34385 0.31772 0.21164 0.0
C600 C 0.33974 0.31993 0.23127 0.0
H601 H 0.36538 0.34826 0.32809 0.0
H602 H 0.35103 0.3502 0.29788 0.0
H603 H 0.31062 0.28682 0.26706 0.0
H604 H 0.35358 0.28338 0.18497 0.0
H605 H 0.33912 0.28459 0.2149 0.0
C606 C 0.0234 0.36155 0.68266 0.0
C607 C 0.04325 0.36245 0.67734 0.0
C608 C 0.01443 0.35359 0.70006 0.0
C609 C 0.02029 0.32552 0.74165 0.0
H610 H 0.01483 0.37094 0.76799 0.0
C611 C 0.05448 0.35453 0.81295 0.0
C612 C 0.04454 0.36275 0.82494 0.0
C613 C 0.0452 0.34628 0.79583 0.0
C614 C 0.01566 0.3577 0.76088 0.0
H615 H 0.06819 0.35404 0.68518 0.0
H616 H 0.05255 0.33996 0.71515 0.0
H617 H 0.01445 0.37085 0.73475 0.0
H618 H 0.01641 0.36763 0.82895 0.0
H619 H 0.00021 0.35344 0.79867 0.0
H620 H 0.02307 0.31335 0.76784 0.0
C621 C 0.04379 0.34533 0.70614 0.0
C622 C 0.01543 0.35764 0.74176 0.0
C623 C 0.05286 0.35353 0.68897 0.0
C624 C 0.02428 0.3612 0.81999 0.0
C625 C 0.01514 0.35326 0.80264 0.0
C626 C 0.02057 0.32561 0.76076 0.0
C627 C 0.02499 0.3461 0.71223 0.0
C628 C 0.01889 0.34224 0.73193 0.0
C629 C 0.02591 0.34636 0.79016 0.0
C630 C 0.01938 0.34238 0.77056 0.0
H631 H 0.01577 0.36848 0.67397 0.0
H632 H -0.00015 0.35426 0.70431 0.0
H633 H 0.02255 0.31316 0.73449 0.0
H634 H 0.07014 0.35558 0.81644 0.0
H635 H 0.05411 0.34137 0.78654 0.0
C636 C 0.66046 0.0298 0.31426 0.0
C637 C 0.68017 0.04284 0.32402 0.0
C638 C 0.66126 0.02253 0.29658 0.0
C639 C 0.70052 0.04416 0.25868 0.0
H640 H 0.6538 0.99468 0.23196 0.0
C641 C 0.70015 0.04954 0.18168 0.0
C642 C 0.67965 0.04489 0.17435 0.0
C643 C 0.70121 0.0417 0.199 0.0
C644 C 0.66703 0.00857 0.23923 0.0
H645 H 0.71582 0.05687 0.32399 0.0
H646 H 0.71723 0.04333 0.29353 0.0
H647 H 0.65373 0.99407 0.26542 0.0
H648 H 0.64411 0.02753 0.1786 0.0
H649 H 0.64587 0.01448 0.20919 0.0
H650 H 0.7132 0.05937 0.23292 0.0
C651 C 0.7012 0.03915 0.29918 0.0
C652 C 0.66699 0.0082 0.2584 0.0
C653 C 0.70041 0.04671 0.31668 0.0
C654 C 0.66007 0.03099 0.18395 0.0
C655 C 0.66114 0.02351 0.20148 0.0
C656 C 0.70052 0.04457 0.23967 0.0
C657 C 0.68181 0.02817 0.28848 0.0
C658 C 0.68348 0.02627 0.26835 0.0
C659 C 0.68184 0.02973 0.20958 0.0
C660 C 0.6835 0.02707 0.22964 0.0
H661 H 0.64472 0.02696 0.31962 0.0
H662 H 0.64601 0.01424 0.28875 0.0
H663 H 0.71321 0.05865 0.26577 0.0
H664 H 0.71545 0.06034 0.17447 0.0
H665 H 0.71739 0.0463 0.20458 0.0
C666 C 0.6525 0.7036 0.68428 0.0
C667 C 0.63764 0.68319 0.6762 0.0
C668 C 0.6603 0.70433 0.70199 0.0
C669 C 0.65836 0.66975 0.74212 0.0
H670 H 0.65045 0.7137 0.7684 0.0
C671 C 0.6301 0.6615 0.81748 0.0
C672 C 0.63568 0.68101 0.82717 0.0
C673 C 0.63796 0.66272 0.79964 0.0
C674 C 0.65334 0.70166 0.76141 0.0
H675 H 0.62028 0.64751 0.67958 0.0
H676 H 0.63325 0.64867 0.71083 0.0
H677 H 0.65092 0.71419 0.73552 0.0
H678 H 0.65518 0.71687 0.82681 0.0
H679 H 0.66992 0.7191 0.79614 0.0
H680 H 0.65966 0.65664 0.76838 0.0
C681 C 0.63948 0.66414 0.70342 0.0
C682 C 0.65363 0.70194 0.74239 0.0
C683 C 0.63203 0.66342 0.6855 0.0
C684 C 0.6508 0.70162 0.81956 0.0
C685 C 0.65898 0.70285 0.80192 0.0
C686 C 0.65806 0.66946 0.7613 0.0
C687 C 0.65278 0.68468 0.7122 0.0
C688 C 0.65574 0.6858 0.73243 0.0
C689 C 0.65161 0.6835 0.79133 0.0
C690 C 0.65516 0.68521 0.77117 0.0
H691 H 0.65694 0.71904 0.67734 0.0
H692 H 0.67102 0.72042 0.70813 0.0
H693 H 0.66017 0.65715 0.7349 0.0
H694 H 0.61813 0.64544 0.82303 0.0
H695 H 0.63183 0.64748 0.79191 0.0
C696 C 0.35175 0.10505 0.12428 0.0
C697 C 0.37252 0.10732 0.12843 0.0
C698 C 0.34807 0.12291 0.12683 0.0
C699 C 0.37122 0.17814 0.14921 0.0
H700 H 0.3461 0.19239 0.1076 0.0
C701 C 0.39023 0.26674 0.13352 0.0
C702 C 0.37346 0.27006 0.12616 0.0
C703 C 0.38649 0.24529 0.1364 0.0
C704 C 0.35274 0.18846 0.1195 0.0
H705 H 0.40538 0.12966 0.13924 0.0
H706 H 0.39906 0.16072 0.14355 0.0
H707 H 0.34569 0.15714 0.10835 0.0
H708 H 0.33941 0.25359 0.11649 0.0
H709 H 0.33285 0.21596 0.12152 0.0
H710 H 0.37897 0.20982 0.16005 0.0
C711 C 0.38551 0.14518 0.13848 0.0
C712 C 0.35249 0.16823 0.11994 0.0
C713 C 0.3892 0.12741 0.13587 0.0
C714 C 0.35268 0.25151 0.12211 0.0
C715 C 0.34895 0.22999 0.12493 0.0
C716 C 0.37149 0.19836 0.14876 0.0
C717 C 0.36505 0.14329 0.13368 0.0
C718 C 0.36228 0.16312 0.13456 0.0
C719 C 0.3659 0.22667 0.13196 0.0
C720 C 0.3628 0.204 0.13367 0.0
H721 H 0.33855 0.08971 0.11859 0.0
H722 H 0.33205 0.12088 0.12319 0.0
H723 H 0.37852 0.1745 0.16083 0.0
H724 H 0.40643 0.28071 0.13678 0.0
H725 H 0.40001 0.24333 0.14156 0.0
C726 C 0.10201 0.35422 0.61972 0.0
C727 C 0.10309 0.37379 0.62616 0.0
C728 C 0.12085 0.35178 0.6204 0.0
C729 C 0.18133 0.38698 0.62038 0.0
H730 H 0.18338 0.3345 0.63538 0.0
C731 C 0.26415 0.39162 0.63246 0.0
C732 C 0.26744 0.37511 0.62452 0.0
C733 C 0.24294 0.38893 0.63349 0.0
C734 C 0.18294 0.34916 0.63099 0.0
H735 H 0.12414 0.40543 0.63948 0.0
H736 H 0.15666 0.40108 0.64085 0.0
H737 H 0.14782 0.33414 0.6358 0.0
H738 H 0.25101 0.34233 0.61224 0.0
H739 H 0.21364 0.33769 0.6139 0.0
H740 H 0.21617 0.40209 0.61554 0.0
C741 C 0.14153 0.38783 0.6349 0.0
C742 C 0.16266 0.34895 0.63123 0.0
C743 C 0.12285 0.39027 0.63418 0.0
C744 C 0.24892 0.35535 0.61839 0.0
C745 C 0.22757 0.35267 0.61938 0.0
C746 C 0.20144 0.38718 0.62012 0.0
C747 C 0.14096 0.3689 0.62752 0.0
C748 C 0.16181 0.36806 0.62628 0.0
C749 C 0.22451 0.36973 0.62651 0.0
C750 C 0.20259 0.36848 0.62578 0.0
H751 H 0.08694 0.34122 0.6135 0.0
H752 H 0.11996 0.33701 0.61464 0.0
H753 H 0.18108 0.40174 0.616 0.0
H754 H 0.27803 0.40693 0.63751 0.0
H755 H 0.24104 0.40215 0.63944 0.0
C756 C 0.89325 0.24997 0.12348 0.0
C757 C 0.89129 0.26859 0.12785 0.0
C758 C 0.87518 0.22851 0.12584 0.0
C759 C 0.82017 0.19674 0.14846 0.0
H760 H 0.80547 0.15711 0.10697 0.0
C761 C 0.73156 0.12652 0.13359 0.0
C762 C 0.7283 0.10655 0.12602 0.0
C763 C 0.75297 0.1443 0.13644 0.0
C764 C 0.80954 0.16776 0.11884 0.0
H765 H 0.86921 0.27941 0.13869 0.0
H766 H 0.83775 0.24213 0.14266 0.0
H767 H 0.84062 0.19207 0.10737 0.0
H768 H 0.74487 0.08921 0.11605 0.0
H769 H 0.78245 0.1204 0.12105 0.0
H770 H 0.78874 0.17273 0.15965 0.0
C771 C 0.85323 0.24399 0.13759 0.0
C772 C 0.8297 0.18781 0.11907 0.0
C773 C 0.87122 0.26538 0.13518 0.0
C774 C 0.7469 0.10446 0.12183 0.0
C775 C 0.76838 0.12232 0.12463 0.0
C776 C 0.80002 0.1767 0.14823 0.0
C777 C 0.85488 0.22531 0.1327 0.0
C778 C 0.83498 0.20278 0.13366 0.0
C779 C 0.77163 0.14253 0.13175 0.0
C780 C 0.79423 0.16225 0.1332 0.0
H781 H 0.90856 0.25196 0.11787 0.0
H782 H 0.87701 0.21442 0.12212 0.0
H783 H 0.82396 0.20775 0.16005 0.0
H784 H 0.71755 0.12863 0.13698 0.0
H785 H 0.75487 0.15972 0.14171 0.0
C786 C 0.64521 0.75016 0.61876 0.0
C787 C 0.62569 0.73166 0.62528 0.0
C788 C 0.64768 0.77144 0.61954 0.0
C789 C 0.61249 0.79671 0.61988 0.0
H790 H 0.66492 0.85122 0.635 0.0
C791 C 0.60749 0.87455 0.63249 0.0
C792 C 0.62383 0.89438 0.62446 0.0
C793 C 0.61035 0.85614 0.63349 0.0
C794 C 0.65027 0.83613 0.63058 0.0
H795 H 0.59418 0.72109 0.63882 0.0
H796 H 0.59858 0.75795 0.64033 0.0
H797 H 0.66539 0.81608 0.63515 0.0
H798 H 0.65653 0.91092 0.61204 0.0
H799 H 0.66146 0.87837 0.61364 0.0
H800 H 0.59727 0.81638 0.61528 0.0
C801 C 0.61176 0.75607 0.63426 0.0
C802 C 0.65054 0.81608 0.63067 0.0
C803 C 0.60929 0.73495 0.63346 0.0
C804 C 0.64364 0.89579 0.61825 0.0
C805 C 0.64649 0.87722 0.61921 0.0
C806 C 0.61222 0.81658 0.61978 0.0
C807 C 0.63064 0.77443 0.62682 0.0
C808 C 0.63145 0.79612 0.62568 0.0
C809 C 0.62955 0.85703 0.62638 0.0
C810 C 0.6309 0.83643 0.62549 0.0
H811 H 0.65814 0.74808 0.61243 0.0
H812 H 0.66241 0.78534 0.61372 0.0
H813 H 0.59773 0.78169 0.61547 0.0
H814 H 0.59216 0.87301 0.63762 0.0
H815 H 0.59723 0.84096 0.63948 0.0
C816 C 0.74889 0.6446 0.126 0.0
C817 C 0.7304 0.62378 0.13005 0.0
C818 C 0.77044 0.64836 0.12866 0.0
C819 C 0.80252 0.62566 0.15153 0.0
H820 H 0.8424 0.65095 0.11023 0.0
C821 C 0.8728 0.60744 0.13679 0.0
C822 C 0.89279 0.62416 0.12924 0.0
C823 C 0.85505 0.6111 0.13965 0.0
C824 C 0.83169 0.64428 0.12206 0.0
H825 H 0.71989 0.59086 0.14071 0.0
H826 H 0.75733 0.59733 0.14522 0.0
H827 H 0.80732 0.65089 0.11047 0.0
H828 H 0.9102 0.6581 0.11933 0.0
H829 H 0.87906 0.66455 0.12435 0.0
H830 H 0.82658 0.61839 0.16283 0.0
C831 C 0.75529 0.61085 0.14015 0.0
C832 C 0.81157 0.64424 0.12219 0.0
C833 C 0.73381 0.60707 0.13742 0.0
C834 C 0.89493 0.64488 0.1251 0.0
C835 C 0.8771 0.64853 0.12791 0.0
C836 C 0.82264 0.6257 0.1514 0.0
C837 C 0.77385 0.6314 0.13553 0.0
C838 C 0.7965 0.63438 0.13669 0.0
C839 C 0.85687 0.63157 0.135 0.0
C840 C 0.83716 0.63446 0.13643 0.0
H841 H 0.74673 0.65782 0.12038 0.0
H842 H 0.78442 0.66444 0.12514 0.0
H843 H 0.79143 0.6183 0.16305 0.0
H844 H 0.87066 0.5913 0.14014 0.0
H845 H 0.83961 0.59757 0.14488 0.0
C846 C 0.24789 0.89612 0.62007 0.0
C847 C 0.2664 0.89513 0.6266 0.0
C848 C 0.22655 0.87742 0.62121 0.0
C849 C 0.20093 0.81691 0.62285 0.0
H850 H 0.14658 0.81587 0.6368 0.0
C851 C 0.12224 0.73474 0.63531 0.0
C852 C 0.10271 0.7314 0.62679 0.0
C853 C 0.14076 0.75593 0.63645 0.0
C854 C 0.16163 0.81601 0.63272 0.0
H855 H 0.27697 0.87446 0.64058 0.0
H856 H 0.24 0.84221 0.64277 0.0
H857 H 0.18196 0.85126 0.63677 0.0
H858 H 0.08677 0.74776 0.61369 0.0
H859 H 0.11954 0.78512 0.61551 0.0
H860 H 0.18097 0.78195 0.61874 0.0
C861 C 0.24191 0.85712 0.63638 0.0
C862 C 0.18182 0.8362 0.63271 0.0
C863 C 0.26309 0.87565 0.63519 0.0
C864 C 0.10167 0.74989 0.62028 0.0
C865 C 0.12036 0.77123 0.62137 0.0
C866 C 0.18092 0.79689 0.62286 0.0
C867 C 0.22351 0.85754 0.62891 0.0
C868 C 0.20172 0.83672 0.6281 0.0
C869 C 0.14029 0.77431 0.62899 0.0
C870 C 0.16111 0.79611 0.62813 0.0
H871 H 0.24999 0.91097 0.61343 0.0
H872 H 0.21265 0.8782 0.61535 0.0
H873 H 0.21588 0.81685 0.61872 0.0
H874 H 0.12348 0.72088 0.64068 0.0
H875 H 0.15572 0.75786 0.64279 0.0
C876 C 0.87135 0.60517 0.36632 0.0
C877 C 0.89137 0.6218 0.37391 0.0
C878 C 0.85365 0.60893 0.36354 0.0
C879 C 0.83043 0.64206 0.38149 0.0
H880 H 0.78996 0.6163 0.34058 0.0
C881 C 0.74753 0.64229 0.37812 0.0
C882 C 0.72903 0.62152 0.37397 0.0
C883 C 0.76907 0.64608 0.37538 0.0
C884 C 0.80111 0.6236 0.35208 0.0
H885 H 0.90889 0.65567 0.38395 0.0
H886 H 0.87781 0.66228 0.37908 0.0
H887 H 0.82513 0.61641 0.34056 0.0
H888 H 0.71851 0.5887 0.36306 0.0
H889 H 0.75595 0.59522 0.35842 0.0
H890 H 0.8061 0.64857 0.39329 0.0
C891 C 0.8758 0.64627 0.37543 0.0
C892 C 0.82124 0.62366 0.35207 0.0
C893 C 0.89359 0.64252 0.37816 0.0
C894 C 0.73244 0.60488 0.36643 0.0
C895 C 0.75392 0.60868 0.36363 0.0
C896 C 0.8103 0.64201 0.38149 0.0
C897 C 0.85553 0.62939 0.3683 0.0
C898 C 0.83583 0.63233 0.36701 0.0
C899 C 0.77249 0.6292 0.36832 0.0
C900 C 0.79515 0.63221 0.36703 0.0
H901 H 0.86914 0.58903 0.36288 0.0
H902 H 0.83818 0.59546 0.35828 0.0
H903 H 0.8412 0.64866 0.39329 0.0
H904 H 0.74538 0.65546 0.38387 0.0
H905 H 0.78306 0.66213 0.37897 0.0
C906 C 0.10322 0.7472 0.88141 0.0
C907 C 0.10404 0.72834 0.87561 0.0
C908 C 0.1222 0.76831 0.88041 0.0
C909 C 0.18282 0.79337 0.88021 0.0
H910 H 0.1843 0.84768 0.86539 0.0
C911 C 0.26522 0.87243 0.86862 0.0
C912 C 0.26818 0.89203 0.87673 0.0
C913 C 0.24417 0.85371 0.86745 0.0
C914 C 0.18403 0.83265 0.86971 0.0
H915 H 0.12483 0.71689 0.86315 0.0
H916 H 0.15767 0.75356 0.86117 0.0
H917 H 0.14896 0.81233 0.86491 0.0
H918 H 0.25129 0.9078 0.88919 0.0
H919 H 0.21416 0.8747 0.88727 0.0
H920 H 0.21765 0.81338 0.88505 0.0
C921 C 0.14261 0.75207 0.86689 0.0
C922 C 0.16386 0.81246 0.86943 0.0
C923 C 0.12375 0.73107 0.86794 0.0
C924 C 0.24947 0.89286 0.88292 0.0
C925 C 0.22825 0.87398 0.88177 0.0
C926 C 0.20283 0.8134 0.88048 0.0
C927 C 0.14225 0.77084 0.87358 0.0
C928 C 0.16317 0.79257 0.87441 0.0
C929 C 0.22554 0.85406 0.87444 0.0
C930 C 0.20377 0.8332 0.87496 0.0
H931 H 0.08819 0.74556 0.88734 0.0
H932 H 0.12144 0.78248 0.88568 0.0
H933 H 0.18274 0.77845 0.88463 0.0
H934 H 0.27925 0.8713 0.86352 0.0
H935 H 0.24253 0.83875 0.86136 0.0
C936 C 0.38858 0.12218 0.36288 0.0
C937 C 0.37273 0.10316 0.3722 0.0
C938 C 0.38603 0.14074 0.36137 0.0
C939 C 0.3476 0.16248 0.366 0.0
H940 H 0.40179 0.21656 0.37896 0.0
C941 C 0.35374 0.24816 0.38018 0.0
C942 C 0.37315 0.26701 0.37394 0.0
C943 C 0.35135 0.22699 0.37848 0.0
C944 C 0.38658 0.20169 0.37506 0.0
H945 H 0.34105 0.08807 0.38627 0.0
H946 H 0.33668 0.1209 0.38379 0.0
H947 H 0.40149 0.18154 0.37839 0.0
H948 H 0.40454 0.27839 0.35998 0.0
H949 H 0.40021 0.24166 0.35674 0.0
H950 H 0.33274 0.18296 0.36276 0.0
C951 C 0.35102 0.1213 0.37759 0.0
C952 C 0.38641 0.1816 0.37475 0.0
C953 C 0.35355 0.10256 0.37905 0.0
C954 C 0.38953 0.26422 0.36515 0.0
C955 C 0.3871 0.24317 0.36337 0.0
C956 C 0.34778 0.18275 0.36627 0.0
C957 C 0.36764 0.1408 0.36925 0.0
C958 C 0.36705 0.16182 0.36998 0.0
C959 C 0.36831 0.22439 0.37048 0.0
C960 C 0.3674 0.2026 0.37057 0.0
H961 H 0.4034 0.12304 0.35723 0.0
H962 H 0.39885 0.15535 0.35449 0.0
H963 H 0.33244 0.14746 0.3623 0.0
H964 H 0.34082 0.24985 0.38697 0.0
H965 H 0.3367 0.21283 0.38412 0.0
C966 C 0.25079 0.35621 0.88186 0.0
C967 C 0.27002 0.37621 0.87722 0.0
C968 C 0.22985 0.35448 0.8808 0.0
C969 C 0.2049 0.39032 0.88189 0.0
H970 H 0.15181 0.33896 0.86324 0.0
C971 C 0.12608 0.39419 0.869 0.0
C972 C 0.10612 0.37661 0.87581 0.0
C973 C 0.14509 0.39229 0.86803 0.0
C974 C 0.16649 0.35332 0.86862 0.0
H975 H 0.28235 0.40968 0.86702 0.0
H976 H 0.24605 0.40657 0.86492 0.0
H977 H 0.18709 0.33892 0.86378 0.0
H978 H 0.09005 0.34284 0.8861 0.0
H979 H 0.12352 0.33957 0.88449 0.0
H980 H 0.18458 0.40479 0.88674 0.0
C981 C 0.24707 0.39237 0.86977 0.0
C982 C 0.18664 0.35329 0.86895 0.0
C983 C 0.26788 0.39411 0.87088 0.0
C984 C 0.10526 0.35668 0.88084 0.0
C985 C 0.12437 0.35478 0.87987 0.0
C986 C 0.1849 0.39036 0.88154 0.0
C987 C 0.22786 0.37274 0.87509 0.0
C988 C 0.20612 0.37195 0.87536 0.0
C989 C 0.14461 0.3728 0.87388 0.0
C990 C 0.16553 0.37202 0.87468 0.0
H991 H 0.25198 0.34214 0.88678 0.0
H992 H 0.21534 0.33915 0.88503 0.0
H993 H 0.21947 0.40472 0.88737 0.0
H994 H 0.12723 0.40968 0.86483 0.0
H995 H 0.16033 0.4063 0.863 0.0
C996 C 0.73629 0.12332 0.36334 0.0
C997 C 0.7323 0.1034 0.37153 0.0
C998 C 0.75796 0.14061 0.36056 0.0
C999 C 0.81353 0.16348 0.37983 0.0
H1000 H 0.82973 0.20351 0.33847 0.0
C1001 C 0.89605 0.24724 0.37787 0.0
C1002 C 0.89336 0.2654 0.37334 0.0
C1003 C 0.87877 0.2255 0.37486 0.0
C1004 C 0.82547 0.19246 0.35009 0.0
H1005 H 0.74783 0.08554 0.3826 0.0
H1006 H 0.78591 0.11593 0.37776 0.0
H1007 H 0.79482 0.16819 0.33793 0.0
H1008 H 0.87087 0.27513 0.36152 0.0
H1009 H 0.84082 0.23737 0.35636 0.0
H1010 H 0.84378 0.18811 0.39228 0.0
C1011 C 0.7722 0.11817 0.3736 0.0
C1012 C 0.8055 0.17225 0.34978 0.0
C1013 C 0.75043 0.10077 0.3763 0.0
C1014 C 0.87343 0.26147 0.36519 0.0
C1015 C 0.85626 0.23981 0.36209 0.0
C1016 C 0.83353 0.1837 0.38013 0.0
C1017 C 0.77617 0.1384 0.36595 0.0
C1018 C 0.79897 0.15787 0.3649 0.0
C1019 C 0.8586 0.22157 0.36713 0.0
C1020 C 0.83936 0.1987 0.36551 0.0
H1021 H 0.72266 0.12583 0.35947 0.0
H1022 H 0.7604 0.15606 0.35487 0.0
H1023 H 0.80889 0.15287 0.39177 0.0
H1024 H 0.91128 0.2498 0.38411 0.0
H1025 H 0.88109 0.21176 0.37876 0.0
C1026 C 0.60841 0.73334 0.86831 0.0
C1027 C 0.62467 0.7296 0.87617 0.0
C1028 C 0.61261 0.75495 0.86543 0.0
C1029 C 0.64593 0.81115 0.88347 0.0
H1030 H 0.62242 0.82659 0.84144 0.0
C1031 C 0.64643 0.8945 0.87924 0.0
C1032 C 0.62578 0.89208 0.87437 0.0
C1033 C 0.6505 0.87686 0.87681 0.0
C1034 C 0.6291 0.82254 0.85325 0.0
H1035 H 0.65835 0.74549 0.88668 0.0
H1036 H 0.66568 0.78339 0.88169 0.0
H1037 H 0.62189 0.79123 0.84195 0.0
H1038 H 0.59352 0.86967 0.86254 0.0
H1039 H 0.60052 0.83906 0.85843 0.0
H1040 H 0.65234 0.84206 0.89509 0.0
C1041 C 0.64964 0.76956 0.87786 0.0
C1042 C 0.6288 0.80231 0.85354 0.0
C1043 C 0.64546 0.74789 0.88066 0.0
C1044 C 0.6096 0.87205 0.86646 0.0
C1045 C 0.61369 0.85454 0.86395 0.0
C1046 C 0.6462 0.8314 0.8832 0.0
C1047 C 0.63315 0.7733 0.8704 0.0
C1048 C 0.6366 0.79611 0.86888 0.0
C1049 C 0.63404 0.8566 0.86934 0.0
C1050 C 0.63717 0.837 0.86832 0.0
H1051 H 0.59223 0.71957 0.8647 0.0
H1052 H 0.59944 0.75725 0.8599 0.0
H1053 H 0.6519 0.80677 0.89555 0.0
H1054 H 0.65922 0.9098 0.88532 0.0
H1055 H 0.66641 0.87898 0.88096 0.0
C1056 C 0.35325 0.98855 0.93007 0.0
C1057 C 0.34419 0.96556 0.92767 0.0
C1058 C 0.35772 0.99775 0.94765 0.0
C1059 C 0.34098 0.98265 0.99559 0.0
H1060 H 0.39601 0.0366 0.00688 0.0
C1061 C 0.36539 0.01466 0.06962 0.0
C1062 C 0.37593 0.03773 0.07232 0.0
C1063 C 0.36172 0.00589 0.05192 0.0
C1064 C 0.38042 0.02167 0.00392 0.0
H1065 H 0.33313 0.93426 0.94176 0.0
H1066 H 0.34095 0.95028 0.97225 0.0
H1067 H 0.38936 0.02172 0.9759 0.0
H1068 H 0.3906 0.06968 0.05864 0.0
H1069 H 0.38378 0.05443 0.02792 0.0
H1070 H 0.33185 0.98267 0.02349 0.0
C1071 C 0.34437 0.96118 0.96063 0.0
C1072 C 0.37665 0.01315 0.98616 0.0
C1073 C 0.34003 0.95204 0.94313 0.0
C1074 C 0.38259 0.05182 0.05702 0.0
C1075 C 0.3788 0.04308 0.03938 0.0
C1076 C 0.34468 0.99123 0.01332 0.0
C1077 C 0.35306 0.98409 0.96311 0.0
C1078 C 0.35694 0.9935 0.98183 0.0
C1079 C 0.36839 0.02001 0.03658 0.0
C1080 C 0.36448 0.01082 0.01772 0.0
H1081 H 0.35659 -0.00062 0.91842 0.0
H1082 H 0.36431 0.01546 0.94916 0.0
H1083 H 0.32546 0.96765 0.9926 0.0
H1084 H 0.36014 0.0034 0.08115 0.0
H1085 H 0.35391 0.98805 0.05028 0.0
C1086 C 0.38287 0.33424 0.44267 0.0
C1087 C 0.37519 0.34087 0.42751 0.0
C1088 C 0.37912 0.33894 0.4604 0.0
C1089 C 0.34356 0.35415 0.48729 0.0
H1090 H 0.38904 0.36953 0.52423 0.0
C1091 C 0.33849 0.38716 0.55805 0.0
C1092 C 0.3433 0.37811 0.57338 0.0
C1093 C 0.34275 0.38261 0.54044 0.0
C1094 C 0.37611 0.36503 0.5141 0.0
H1095 H 0.35762 0.35779 0.41905 0.0
H1096 H 0.35146 0.36654 0.45014 0.0
H1097 H 0.39591 0.36247 0.49294 0.0
H1098 H 0.35677 0.35747 0.58225 0.0
H1099 H 0.36444 0.3496 0.55125 0.0
H1100 H 0.32393 0.35709 0.50846 0.0
C1101 C 0.36006 0.3573 0.44829 0.0
C1102 C 0.38 0.36097 0.49616 0.0
C1103 C 0.36369 0.35242 0.43047 0.0
C1104 C 0.35291 0.3647 0.57071 0.0
C1105 C 0.35733 0.36025 0.55299 0.0
C1106 C 0.33974 0.35838 0.5052 0.0
C1107 C 0.36773 0.35059 0.46349 0.0
C1108 C 0.36376 0.35543 0.48251 0.0
C1109 C 0.35205 0.36898 0.53767 0.0
C1110 C 0.35598 0.36389 0.51879 0.0
H1111 H 0.39163 0.32513 0.4409 0.0
H1112 H 0.38487 0.33309 0.47171 0.0
H1113 H 0.33051 0.34953 0.47726 0.0
H1114 H 0.33115 0.39763 0.55958 0.0
H1115 H 0.33884 0.38988 0.52895 0.0
C1116 C 0.00909 0.36375 0.93107 0.0
C1117 C 0.03218 0.37526 0.92831 0.0
C1118 C 0.00035 0.35977 0.94883 0.0
C1119 C 0.01627 0.37912 0.99684 0.0
H1120 H 0.96383 0.32312 0.00888 0.0
C1121 C 0.98613 0.35198 0.07132 0.0
C1122 C 0.96317 0.34246 0.07427 0.0
C1123 C 0.99469 0.35623 0.05351 0.0
C1124 C 0.97841 0.33891 0.00569 0.0
H1125 H 0.06419 0.3912 0.94198 0.0
H1126 H 0.04909 0.38382 0.97265 0.0
H1127 H 0.978 0.32993 0.97767 0.0
H1128 H 0.93125 0.33012 0.06086 0.0
H1129 H 0.94616 0.33753 0.03002 0.0
H1130 H 0.01681 0.38793 0.02496 0.0
C1131 C 0.03762 0.37838 0.96125 0.0
C1132 C 0.98648 0.34286 0.98777 0.0
C1133 C 0.0463 0.38249 0.9436 0.0
C1134 C 0.94902 0.33743 0.0591 0.0
C1135 C 0.95754 0.34153 0.04138 0.0
C1136 C 0.00829 0.3751 0.01477 0.0
C1137 C 0.01455 0.3671 0.96415 0.0
C1138 C 0.00554 0.36301 0.98311 0.0
C1139 C 0.98043 0.35088 0.03835 0.0
C1140 C 0.98925 0.35497 0.01939 0.0
H1141 H 0.9978 0.35801 0.91954 0.0
H1142 H 0.98248 0.35122 0.95053 0.0
H1143 H 0.03075 0.395 0.99371 0.0
H1144 H 0.99743 0.35598 0.08273 0.0
H1145 H 0.01242 0.36334 0.05159 0.0
C1146 C 0.66485 0.04995 0.44227 0.0
C1147 C 0.65752 0.03553 0.42716 0.0
C1148 C 0.65998 0.04158 0.46002 0.0
C1149 C 0.62102 0.99304 0.48681 0.0
H1150 H 0.66758 0.01737 0.52348 0.0
C1151 C 0.63295 0.98937 0.57013 0.0
C1152 C 0.61956 0.96635 0.57273 0.0
C1153 C 0.63711 0.99837 0.55248 0.0
C1154 C 0.6543 0.01063 0.51349 0.0
H1155 H 0.6392 0.00101 0.4188 0.0
H1156 H 0.63052 0.98629 0.45 0.0
H1157 H 0.67583 0.0315 0.49227 0.0
H1158 H 0.59992 0.93474 0.5589 0.0
H1159 H 0.60742 0.95029 0.52835 0.0
H1160 H 0.59943 0.9723 0.508 0.0
C1161 C 0.64001 0.00411 0.44801 0.0
C1162 C 0.65906 0.01866 0.49559 0.0
C1163 C 0.64505 0.01251 0.43018 0.0
C1164 C 0.61024 0.95258 0.5574 0.0
C1165 C 0.61443 0.96151 0.53984 0.0
C1166 C 0.61623 0.9851 0.50473 0.0
C1167 C 0.64754 0.01859 0.4631 0.0
C1168 C 0.64249 0.00989 0.48205 0.0
C1169 C 0.62797 0.9845 0.53712 0.0
C1170 C 0.63284 0.99371 0.51827 0.0
H1171 H 0.6745 0.06779 0.44043 0.0
H1172 H 0.66577 0.05316 0.47135 0.0
H1173 H 0.60784 0.98622 0.47674 0.0
H1174 H 0.64033 0.0004 0.58168 0.0
H1175 H 0.64742 0.01618 0.55087 0.0
C1176 C 0.66434 0.61474 0.06032 0.0
C1177 C 0.65701 0.62155 0.07561 0.0
C1178 C 0.65991 0.61902 0.04267 0.0
C1179 C 0.62181 0.62994 0.01612 0.0
H1180 H 0.66868 0.65226 0.97974 0.0
C1181 C 0.63423 0.64522 0.93282 0.0
C1182 C 0.6207 0.65465 0.92999 0.0
C1183 C 0.63842 0.64067 0.95056 0.0
C1184 C 0.65532 0.64572 0.98965 0.0
H1185 H 0.63919 0.6381 0.08438 0.0
H1186 H 0.6312 0.64543 0.05332 0.0
H1187 H 0.67657 0.646 0.01096 0.0
H1188 H 0.6009 0.66662 0.94353 0.0
H1189 H 0.60844 0.65907 0.97424 0.0
H1190 H 0.60045 0.62935 0.99483 0.0
C1191 C 0.64039 0.63676 0.05511 0.0
C1192 C 0.65987 0.64224 0.00755 0.0
C1193 C 0.64502 0.63265 0.07286 0.0
C1194 C 0.61132 0.65925 0.9452 0.0
C1195 C 0.61554 0.65478 0.96286 0.0
C1196 C 0.61721 0.63328 0.99819 0.0
C1197 C 0.6479 0.63005 0.03985 0.0
C1198 C 0.64317 0.63432 0.02098 0.0
C1199 C 0.62917 0.64549 0.9658 0.0
C1200 C 0.63392 0.64127 0.98473 0.0
H1201 H 0.67365 0.60618 0.06195 0.0
H1202 H 0.66568 0.61341 0.0312 0.0
H1203 H 0.60853 0.6235 0.0261 0.0
H1204 H 0.64167 0.64148 0.92136 0.0
H1205 H 0.64879 0.63327 0.95233 0.0
C1206 C 0.04541 0.66211 0.5587 0.0
C1207 C 0.03133 0.65585 0.57401 0.0
C1208 C 0.03669 0.65702 0.54107 0.0
C1209 C 0.98577 0.64174 0.51445 0.0
H1210 H 0.01529 0.62545 0.47768 0.0
C1211 C 0.94806 0.60971 0.44319 0.0
C1212 C 0.9623 0.61842 0.42803 0.0
C1213 C 0.95654 0.61402 0.46093 0.0
C1214 C 0.007 0.63019 0.48775 0.0
H1215 H 0.99697 0.63916 0.5828 0.0
H1216 H 0.98157 0.6298 0.55186 0.0
H1217 H 0.02924 0.63252 0.50896 0.0
H1218 H 0.99669 0.63827 0.41962 0.0
H1219 H 0.01161 0.64573 0.45079 0.0
H1220 H 0.96339 0.63914 0.49322 0.0
C1221 C -0.00055 0.639 0.55354 0.0
C1222 C 0.01498 0.63425 0.5057 0.0
C1223 C 0.00824 0.64424 0.57127 0.0
C1224 C 0.98531 0.63131 0.43102 0.0
C1225 C 0.99384 0.63551 0.44884 0.0
C1226 C 0.97771 0.63753 0.49653 0.0
C1227 C 0.0136 0.64536 0.53821 0.0
C1228 C 0.00454 0.64019 0.51927 0.0
C1229 C 0.97949 0.62705 0.46399 0.0
C1230 C 0.98827 0.63176 0.48297 0.0
H1231 H 0.06331 0.67122 0.56029 0.0
H1232 H 0.04812 0.66258 0.52965 0.0
H1233 H 0.97753 0.64664 0.52443 0.0
H1234 H 0.93024 0.59967 0.4414 0.0
H1235 H 0.94508 0.60699 0.47228 0.0
C1236 C 0.6315 0.98613 0.92961 0.0
C1237 C 0.61992 0.96298 0.92723 0.0
C1238 C 0.63516 0.9953 0.94717 0.0
C1239 C 0.61534 0.98112 0.99514 0.0
H1240 H 0.67246 0.03239 0.00676 0.0
C1241 C 0.64359 0.01209 0.06917 0.0
C1242 C 0.65399 0.03516 0.07186 0.0
C1243 C 0.63886 0.00324 0.05148 0.0
C1244 C 0.65635 0.01817 0.00367 0.0
H1245 H 0.60316 0.93128 0.94137 0.0
H1246 H 0.60991 0.94717 0.9718 0.0
H1247 H 0.66523 0.01744 0.97581 0.0
H1248 H 0.66741 0.06703 0.05815 0.0
H1249 H 0.65918 0.05161 0.02744 0.0
H1250 H 0.60665 0.98171 0.02313 0.0
C1251 C 0.61578 0.95833 0.9602 0.0
C1252 C 0.65217 0.00966 0.98592 0.0
C1253 C 0.61203 0.94921 0.94271 0.0
C1254 C 0.65942 0.04917 0.05656 0.0
C1255 C 0.65483 0.04036 0.03894 0.0
C1256 C 0.61958 0.98956 0.01292 0.0
C1257 C 0.62739 0.98148 0.96268 0.0
C1258 C 0.63162 0.991 0.98143 0.0
C1259 C 0.6446 0.01733 0.03618 0.0
C1260 C 0.64013 0.00817 0.01737 0.0
H1261 H 0.63773 0.99715 0.91793 0.0
H1262 H 0.64394 0.01321 0.94859 0.0
H1263 H 0.59919 0.96696 0.9921 0.0
H1264 H 0.63924 0.0009 0.08069 0.0
H1265 H 0.63109 0.98542 0.04975 0.0
C1266 C 0.66097 0.61037 0.44348 0.0
C1267 C 0.65502 0.61857 0.42824 0.0
C1268 C 0.65663 0.61465 0.46116 0.0
C1269 C 0.62106 0.62932 0.48765 0.0
H1270 H 0.66723 0.64777 0.52438 0.0
C1271 C 0.61325 0.66105 0.55827 0.0
C1272 C 0.62158 0.65545 0.57363 0.0
C1273 C 0.61703 0.65594 0.5407 0.0
C1274 C 0.65403 0.6423 0.51438 0.0
H1275 H 0.6396 0.63753 0.41959 0.0
H1276 H 0.63181 0.64493 0.45066 0.0
H1277 H 0.67436 0.64046 0.49326 0.0
H1278 H 0.64025 0.63987 0.5826 0.0
H1279 H 0.64655 0.63048 0.55179 0.0
H1280 H 0.60061 0.63089 0.50874 0.0
C1281 C 0.63984 0.63513 0.44883 0.0
C1282 C 0.65816 0.63821 0.49653 0.0
C1283 C 0.64436 0.63097 0.43107 0.0
C1284 C 0.63366 0.64443 0.57103 0.0
C1285 C 0.63737 0.63919 0.55337 0.0
C1286 C 0.61687 0.63326 0.50553 0.0
C1287 C 0.64609 0.62713 0.46406 0.0
C1288 C 0.64173 0.63173 0.48295 0.0
C1289 C 0.62913 0.64495 0.53798 0.0
C1290 C 0.63334 0.63991 0.51911 0.0
H1291 H 0.6692 0.60073 0.4418 0.0
H1292 H 0.66136 0.608 0.47259 0.0
H1293 H 0.60797 0.62402 0.47755 0.0
H1294 H 0.60398 0.66969 0.55977 0.0
H1295 H 0.6108 0.66103 0.52921 0.0
C1296 C 0.9867 0.63463 0.07182 0.0
C1297 C 0.96378 0.6212 0.07493 0.0
C1298 C 0.99509 0.63868 0.05395 0.0
C1299 C 0.97826 0.63886 0.00615 0.0
H1300 H 0.03063 0.63521 0.9941 0.0
C1301 C 0.00817 0.64369 0.93142 0.0
C1302 C 0.03123 0.65542 0.92849 0.0
C1303 C -0.00038 0.6391 0.94924 0.0
C1304 C 0.01613 0.63658 0.99725 0.0
H1305 H 0.93174 0.60132 0.06176 0.0
H1306 H 0.94635 0.60836 0.03083 0.0
H1307 H 0.01703 0.62882 0.02545 0.0
H1308 H 0.06338 0.67189 0.94194 0.0
H1309 H 0.0486 0.66445 0.97272 0.0
H1310 H 0.97748 0.64692 0.97804 0.0
C1311 C 0.95783 0.61595 0.0421 0.0
C1312 C 0.00836 0.6329 0.01524 0.0
C1313 C 0.94949 0.6118 0.05987 0.0
C1314 C 0.04551 0.6626 0.94369 0.0
C1315 C 0.03702 0.65819 0.9614 0.0
C1316 C 0.98612 0.6427 0.98818 0.0
C1317 C 0.98069 0.6295 0.0389 0.0
C1318 C 0.98931 0.63395 0.01989 0.0
C1319 C 0.01398 0.64629 0.96446 0.0
C1320 C 0.00518 0.64163 0.98348 0.0
H1321 H 0.9981 0.64213 0.08314 0.0
H1322 H 0.0128 0.64932 0.05189 0.0
H1323 H 0.96367 0.64005 0.00936 0.0
H1324 H 0.99676 0.63793 0.91997 0.0
H1325 H 0.98177 0.62969 0.95107 0.0
C1326 C 0.33624 0.95235 0.55857 0.0
C1327 C 0.34215 0.96639 0.57387 0.0
C1328 C 0.34135 0.96115 0.54097 0.0
C1329 C 0.3555 0.01173 0.51447 0.0
H1330 H 0.37332 0.98338 0.47783 0.0
C1331 C 0.38621 0.04939 0.44297 0.0
C1332 C 0.37789 0.03484 0.42797 0.0
C1333 C 0.38232 0.04116 0.46078 0.0
C1334 C 0.36816 0.99134 0.48787 0.0
H1335 H 0.35827 0.00073 0.58273 0.0
H1336 H 0.36765 0.01623 0.55185 0.0
H1337 H 0.36652 0.96943 0.50909 0.0
H1338 H 0.35911 0.00024 0.41989 0.0
H1339 H 0.3523 0.98579 0.45115 0.0
H1340 H 0.35732 0.03374 0.49321 0.0
C1341 C 0.35871 0.99835 0.55351 0.0
C1342 C 0.36426 0.98336 0.50579 0.0
C1343 C 0.35347 0.9895 0.57119 0.0
C1344 C 0.36576 0.01184 0.43117 0.0
C1345 C 0.36195 0.00359 0.44905 0.0
C1346 C 0.35952 0.01978 0.49656 0.0
C1347 C 0.35266 0.98424 0.53818 0.0
C1348 C 0.35774 0.99337 0.5193 0.0
C1349 C 0.37008 0.01819 0.46404 0.0
C1350 C 0.36581 0.00961 0.48305 0.0
H1351 H 0.32736 0.93445 0.56013 0.0
H1352 H 0.33605 0.94977 0.52951 0.0
H1353 H 0.35016 0.01961 0.52443 0.0
H1354 H 0.39567 0.06721 0.44098 0.0
H1355 H 0.38906 0.05282 0.47203 0.0
C1356 C 0.35469 0.34147 0.0691 0.0
C1357 C 0.37601 0.34646 0.07463 0.0
C1358 C 0.35075 0.34481 0.05092 0.0
C1359 C 0.37607 0.35277 0.00449 0.0
H1360 H 0.33093 0.36749 0.99148 0.0
C1361 C 0.36475 0.37788 0.93122 0.0
C1362 C 0.34283 0.36974 0.92534 0.0
C1363 C 0.369 0.37422 0.94922 0.0
C1364 C 0.34347 0.36317 0.99488 0.0
H1365 H 0.41016 0.35998 0.06604 0.0
H1366 H 0.40374 0.36718 0.03474 0.0
H1367 H 0.33814 0.36428 0.02352 0.0
H1368 H 0.30818 0.35094 0.93303 0.0
H1369 H 0.31547 0.34388 0.96427 0.0
H1370 H 0.38164 0.35218 0.97575 0.0
C1371 C 0.38974 0.3597 0.04401 0.0
C1372 C 0.34759 0.36128 0.0133 0.0
C1373 C 0.39352 0.35584 0.06201 0.0
C1374 C 0.32522 0.35728 0.93737 0.0
C1375 C 0.32941 0.35345 0.95525 0.0
C1376 C 0.37211 0.35492 0.98608 0.0
C1377 C 0.3682 0.35367 0.03804 0.0
C1378 C 0.36393 0.35601 0.01839 0.0
C1379 C 0.35135 0.36234 0.96153 0.0
C1380 C 0.3557 0.36005 0.98107 0.0
H1381 H 0.34087 0.33395 0.07857 0.0
H1382 H 0.33388 0.33967 0.04687 0.0
H1383 H 0.38844 0.34819 0.00776 0.0
H1384 H 0.37854 0.3879 0.92218 0.0
H1385 H 0.38609 0.38146 0.95371 0.0
C1386 C 0.04517 0.38582 0.55895 0.0
C1387 C 0.03109 0.37699 0.57418 0.0
C1388 C 0.03655 0.38147 0.54127 0.0
C1389 C 0.98594 0.36488 0.5146 0.0
H1390 H 0.01584 0.34908 0.47784 0.0
C1391 C 0.94844 0.33409 0.44313 0.0
C1392 C 0.96277 0.34063 0.42798 0.0
C1393 C 0.95688 0.33888 0.46087 0.0
C1394 C 0.00748 0.35379 0.48784 0.0
H1395 H 0.9968 0.35691 0.58279 0.0
H1396 H 0.9816 0.34936 0.55168 0.0
H1397 H 0.02979 0.35632 0.5091 0.0
H1398 H 0.99728 0.35755 0.41956 0.0
H1399 H 0.01217 0.36641 0.45066 0.0
H1400 H 0.96378 0.36265 0.49336 0.0
C1401 C -0.00062 0.35971 0.55354 0.0
C1402 C 0.01542 0.35784 0.50579 0.0
C1403 C 0.00806 0.36396 0.57133 0.0
C1404 C 0.98582 0.35225 0.43096 0.0
C1405 C 0.99432 0.35719 0.44879 0.0
C1406 C 0.97807 0.36097 0.49662 0.0
C1407 C 0.0136 0.36826 0.53832 0.0
C1408 C 0.00474 0.36344 0.51937 0.0
C1409 C 0.97992 0.35052 0.46397 0.0
C1410 C 0.98871 0.35532 0.48301 0.0
H1411 H 0.063 0.39599 0.56062 0.0
H1412 H 0.04791 0.3886 0.52987 0.0
H1413 H 0.97755 0.36946 0.5247 0.0
H1414 H 0.93057 0.32496 0.44135 0.0
H1415 H 0.94527 0.33309 0.47217 0.0
C1416 C 0.44985 0.05261 0.11429 0.0
C1417 C 0.45044 0.06716 0.12796 0.0
C1418 C 0.46672 0.04718 0.11321 0.0
C1419 C 0.50949 0.04517 0.1413 0.0
H1420 H 0.54402 0.05705 0.09686 0.0
C1421 C 0.60117 0.07218 0.14236 0.0
C1422 C 0.61001 0.06379 0.12942 0.0
C1423 C 0.57911 0.06707 0.14126 0.0
C1424 C 0.53425 0.05316 0.10925 0.0
H1425 H 0.46907 0.08715 0.15126 0.0
H1426 H 0.49809 0.07755 0.14943 0.0
H1427 H 0.50921 0.05799 0.09637 0.0
H1428 H 0.6025 0.04329 0.10517 0.0
H1429 H 0.56371 0.03463 0.10309 0.0
H1430 H 0.53483 0.04127 0.1544 0.0
C1431 C 0.48465 0.07032 0.13959 0.0
C1432 C 0.51437 0.05371 0.10897 0.0
C1433 C 0.46809 0.07598 0.14052 0.0
C1434 C 0.59615 0.04997 0.11537 0.0
C1435 C 0.57401 0.04507 0.11413 0.0
C1436 C 0.52924 0.04458 0.14158 0.0
C1437 C 0.48415 0.05585 0.12599 0.0
C1438 C 0.50234 0.05064 0.12518 0.0
C1439 C 0.56531 0.05357 0.12711 0.0
C1440 C 0.5423 0.04951 0.12575 0.0
H1441 H 0.43648 0.04559 0.10439 0.0
H1442 H 0.46604 0.03603 0.10255 0.0
H1443 H 0.50028 0.04233 0.15391 0.0
H1444 H 0.61132 0.08278 0.1534 0.0
H1445 H 0.57299 0.07417 0.15129 0.0
C1446 C 0.52662 0.60961 0.63718 0.0
C1447 C 0.54724 0.61523 0.62933 0.0
C1448 C 0.50822 0.5886 0.63465 0.0
C1449 C 0.48919 0.53067 0.62481 0.0
H1450 H 0.43463 0.53032 0.61279 0.0
C1451 C 0.40037 0.45098 0.61903 0.0
C1452 C 0.38418 0.45297 0.62911 0.0
C1453 C 0.42173 0.4694 0.61667 0.0
C1454 C 0.44974 0.53012 0.61607 0.0
H1455 H 0.56474 0.60268 0.61309 0.0
H1456 H 0.53221 0.56552 0.60879 0.0
H1457 H 0.46972 0.56528 0.6128 0.0
H1458 H 0.37819 0.4758 0.64514 0.0
H1459 H 0.41499 0.50749 0.64096 0.0
H1460 H 0.46877 0.49539 0.62869 0.0
C1461 C 0.53054 0.57769 0.61683 0.0
C1462 C 0.4698 0.55011 0.61608 0.0
C1463 C 0.54909 0.59894 0.61928 0.0
C1464 C 0.39003 0.47358 0.63712 0.0
C1465 C 0.41115 0.49184 0.63467 0.0
C1466 C 0.46895 0.51051 0.62479 0.0
C1467 C 0.50985 0.57253 0.62424 0.0
C1468 C 0.48959 0.55073 0.62112 0.0
C1469 C 0.4271 0.4901 0.62419 0.0
C1470 C 0.44897 0.51026 0.62109 0.0
H1471 H 0.52449 0.62154 0.64516 0.0
H1472 H 0.49258 0.58492 0.64084 0.0
H1473 H 0.50425 0.53074 0.62871 0.0
H1474 H 0.39646 0.43534 0.61272 0.0
H1475 H 0.43381 0.46764 0.60858 0.0
C1476 C 0.92722 0.39601 0.1458 0.0
C1477 C 0.93546 0.38724 0.13266 0.0
C1478 C 0.93285 0.41825 0.14518 0.0
C1479 C 0.94824 0.46427 0.1141 0.0
H1480 H 0.95933 0.49724 0.15935 0.0
C1481 C 0.95019 0.54897 0.11941 0.0
C1482 C 0.93603 0.54888 0.13321 0.0
C1483 C 0.95547 0.53199 0.11852 0.0
C1484 C 0.95638 0.4883 0.14658 0.0
H1485 H 0.95626 0.39508 0.10857 0.0
H1486 H 0.96584 0.43419 0.10733 0.0
H1487 H 0.95921 0.46209 0.15923 0.0
H1488 H 0.91686 0.53122 0.15713 0.0
H1489 H 0.92613 0.50193 0.15562 0.0
H1490 H 0.94443 0.49012 0.10165 0.0
C1491 C 0.9551 0.42368 0.11816 0.0
C1492 C 0.95631 0.46821 0.14651 0.0
C1493 C 0.94967 0.40136 0.11891 0.0
C1494 C 0.9277 0.53177 0.14626 0.0
C1495 C 0.93319 0.51507 0.14551 0.0
C1496 C 0.9483 0.48446 0.11417 0.0
C1497 C 0.94674 0.43231 0.13133 0.0
C1498 C 0.95134 0.45555 0.13044 0.0
C1499 C 0.94703 0.5149 0.13161 0.0
C1500 C 0.95148 0.49617 0.13058 0.0
H1501 H 0.91634 0.38568 0.15664 0.0
H1502 H 0.92586 0.42432 0.15535 0.0
H1503 H 0.94431 0.45482 0.10153 0.0
H1504 H 0.95685 0.56192 0.10913 0.0
H1505 H 0.96617 0.53223 0.10765 0.0
C1506 C 0.39943 0.95157 0.62 0.0
C1507 C 0.38259 0.93217 0.62837 0.0
C1508 C 0.42063 0.95429 0.61715 0.0
C1509 C 0.44814 0.92126 0.61201 0.0
H1510 H 0.5018 0.97241 0.63016 0.0
C1511 C 0.52327 0.91493 0.63277 0.0
C1512 C 0.54463 0.93139 0.62724 0.0
C1513 C 0.505 0.91772 0.63003 0.0
C1514 C 0.48702 0.95824 0.6247 0.0
H1515 H 0.37509 0.9006 0.6405 0.0
H1516 H 0.41163 0.90535 0.63547 0.0
H1517 H 0.46654 0.97262 0.63042 0.0
H1518 H 0.56349 0.964 0.61477 0.0
H1519 H 0.5312 0.96893 0.61018 0.0
H1520 H 0.46818 0.90648 0.60691 0.0
C1521 C 0.40846 0.91837 0.63097 0.0
C1522 C 0.46689 0.95835 0.62485 0.0
C1523 C 0.38751 0.91574 0.63396 0.0
C1524 C 0.54726 0.95096 0.61915 0.0
C1525 C 0.52885 0.95383 0.61655 0.0
C1526 C 0.46812 0.92115 0.61186 0.0
C1527 C 0.42518 0.93752 0.6224 0.0
C1528 C 0.44714 0.93948 0.61915 0.0
C1529 C 0.5075 0.93706 0.62177 0.0
C1530 C 0.48758 0.93925 0.61885 0.0
H1531 H 0.39623 0.96458 0.61557 0.0
H1532 H 0.43329 0.96925 0.61055 0.0
H1533 H 0.43324 0.90668 0.60719 0.0
H1534 H 0.52051 0.89966 0.6391 0.0
H1535 H 0.48881 0.90469 0.63452 0.0
C1536 C 0.60295 0.52986 0.14485 0.0
C1537 C 0.61186 0.5474 0.13218 0.0
C1538 C 0.58066 0.51338 0.14397 0.0
C1539 C 0.53428 0.484 0.11305 0.0
H1540 H 0.50125 0.46275 0.15834 0.0
C1541 C 0.44835 0.40251 0.11847 0.0
C1542 C 0.44818 0.38825 0.1322 0.0
C1543 C 0.46568 0.42464 0.11757 0.0
C1544 C 0.5102 0.46856 0.14556 0.0
H1545 H 0.6043 0.56129 0.10854 0.0
H1546 H 0.56513 0.53196 0.10683 0.0
H1547 H 0.53701 0.49714 0.15823 0.0
H1548 H 0.46566 0.3862 0.15603 0.0
H1549 H 0.49553 0.42452 0.15454 0.0
H1550 H 0.50782 0.45475 0.10059 0.0
C1551 C 0.57554 0.53125 0.11751 0.0
C1552 C 0.53063 0.48822 0.1455 0.0
C1553 C 0.5979 0.54802 0.11853 0.0
C1554 C 0.46532 0.39668 0.14522 0.0
C1555 C 0.48236 0.41873 0.14447 0.0
C1556 C 0.51375 0.46423 0.11312 0.0
C1557 C 0.56672 0.51387 0.13032 0.0
C1558 C 0.54329 0.49566 0.12942 0.0
C1559 C 0.48284 0.43292 0.1306 0.0
C1560 C 0.50198 0.45589 0.12955 0.0
H1561 H 0.61315 0.52887 0.15558 0.0
H1562 H 0.57441 0.49999 0.15385 0.0
H1563 H 0.54373 0.48937 0.10047 0.0
H1564 H 0.43539 0.39646 0.1082 0.0
H1565 H 0.46569 0.43525 0.10673 0.0
C1566 C 0.04654 0.45006 0.61957 0.0
C1567 C 0.06541 0.45243 0.62878 0.0
C1568 C 0.04379 0.46854 0.61678 0.0
C1569 C 0.07686 0.52919 0.61335 0.0
H1570 H 0.02459 0.53107 0.62926 0.0
C1571 C 0.082 0.6099 0.63451 0.0
C1572 C 0.06607 0.61514 0.62816 0.0
C1573 C 0.07925 0.58887 0.6317 0.0
C1574 C 0.0391 0.53064 0.62442 0.0
H1575 H 0.09586 0.47609 0.64264 0.0
H1576 H 0.09107 0.50786 0.63773 0.0
H1577 H 0.02437 0.49559 0.62944 0.0
H1578 H 0.03439 0.60199 0.61418 0.0
H1579 H 0.02954 0.56482 0.60942 0.0
H1580 H 0.09195 0.56417 0.60897 0.0
C1581 C 0.07853 0.49185 0.63248 0.0
C1582 C 0.03897 0.51039 0.62453 0.0
C1583 C 0.08118 0.47354 0.63537 0.0
C1584 C 0.04702 0.59854 0.6192 0.0
C1585 C 0.04419 0.57728 0.61651 0.0
C1586 C 0.07698 0.54927 0.61324 0.0
C1587 C 0.06 0.48965 0.62298 0.0
C1588 C 0.0582 0.50972 0.61967 0.0
C1589 C 0.06049 0.57241 0.62252 0.0
C1590 C 0.05845 0.55039 0.61945 0.0
H1591 H 0.03403 0.43404 0.61435 0.0
H1592 H 0.02932 0.46643 0.60946 0.0
H1593 H 0.09174 0.52903 0.60919 0.0
H1594 H 0.09683 0.6221 0.64156 0.0
H1595 H 0.09187 0.58546 0.63682 0.0
C1596 C 0.92454 0.52834 0.35685 0.0
C1597 C 0.93339 0.54561 0.36977 0.0
C1598 C 0.92962 0.51135 0.35759 0.0
C1599 C 0.94488 0.48057 0.38875 0.0
H1600 H 0.95424 0.45735 0.34351 0.0
C1601 C 0.94698 0.39774 0.38375 0.0
C1602 C 0.93251 0.38334 0.37026 0.0
C1603 C 0.95192 0.41991 0.38456 0.0
C1604 C 0.95175 0.4637 0.35627 0.0
H1605 H 0.95467 0.55859 0.3936 0.0
H1606 H 0.96331 0.52842 0.39503 0.0
H1607 H 0.95465 0.49263 0.34336 0.0
H1608 H 0.91225 0.38107 0.34687 0.0
H1609 H 0.92094 0.41947 0.34824 0.0
H1610 H 0.94112 0.45107 0.40149 0.0
C1611 C 0.95251 0.52827 0.38429 0.0
C1612 C 0.95198 0.48387 0.35619 0.0
C1613 C 0.94762 0.54554 0.38343 0.0
C1614 C 0.92337 0.39163 0.3575 0.0
C1615 C 0.92852 0.41373 0.35816 0.0
C1616 C 0.94467 0.46031 0.38884 0.0
C1617 C 0.94356 0.51104 0.37133 0.0
C1618 C 0.94768 0.49208 0.37228 0.0
C1619 C 0.94279 0.42811 0.37169 0.0
C1620 C 0.94724 0.4513 0.37245 0.0
H1621 H 0.91361 0.52789 0.3461 0.0
H1622 H 0.92216 0.49812 0.34758 0.0
H1623 H 0.94146 0.48649 0.40134 0.0
H1624 H 0.95425 0.39184 0.39381 0.0
H1625 H 0.96296 0.43067 0.39514 0.0
C1626 C 0.52497 0.91344 0.86384 0.0
C1627 C 0.5456 0.92834 0.87174 0.0
C1628 C 0.50671 0.91633 0.8662 0.0
C1629 C 0.48879 0.95634 0.87607 0.0
H1630 H 0.43303 0.90261 0.88635 0.0
C1631 C 0.40068 0.94914 0.88178 0.0
C1632 C 0.38461 0.93181 0.87091 0.0
C1633 C 0.42184 0.95156 0.88413 0.0
C1634 C 0.44849 0.91779 0.88357 0.0
H1635 H 0.56325 0.95841 0.88796 0.0
H1636 H 0.531 0.96347 0.89199 0.0
H1637 H 0.46751 0.90158 0.88669 0.0
H1638 H 0.37868 0.90412 0.85335 0.0
H1639 H 0.41511 0.90831 0.85757 0.0
H1640 H 0.46933 0.97229 0.87244 0.0
C1641 C 0.52919 0.94953 0.88402 0.0
C1642 C 0.46821 0.91719 0.88373 0.0
C1643 C 0.54759 0.94658 0.88173 0.0
C1644 C 0.39042 0.91749 0.86202 0.0
C1645 C 0.41132 0.91982 0.86446 0.0
C1646 C 0.46891 0.95695 0.87595 0.0
C1647 C 0.50849 0.93419 0.8765 0.0
C1648 C 0.48845 0.93621 0.87931 0.0
C1649 C 0.42708 0.93655 0.87579 0.0
C1650 C 0.44853 0.93743 0.87904 0.0
H1651 H 0.52276 0.89932 0.85592 0.0
H1652 H 0.49108 0.9045 0.8599 0.0
H1653 H 0.5042 0.97125 0.87265 0.0
H1654 H 0.39679 0.96051 0.88877 0.0
H1655 H 0.4338 0.96466 0.89288 0.0
C1656 C 0.46479 0.39418 0.3565 0.0
C1657 C 0.4477 0.38541 0.36957 0.0
C1658 C 0.4817 0.41628 0.35741 0.0
C1659 C 0.51289 0.46147 0.38908 0.0
H1660 H 0.53558 0.49512 0.34422 0.0
C1661 C 0.59646 0.54575 0.38434 0.0
C1662 C 0.61048 0.54558 0.37053 0.0
C1663 C 0.57414 0.52886 0.38521 0.0
C1664 C 0.52937 0.486 0.35689 0.0
H1665 H 0.4349 0.39309 0.39384 0.0
H1666 H 0.46497 0.43196 0.39559 0.0
H1667 H 0.50009 0.46043 0.34398 0.0
H1668 H 0.6119 0.52783 0.34664 0.0
H1669 H 0.57323 0.49874 0.3481 0.0
H1670 H 0.54276 0.4867 0.40179 0.0
C1671 C 0.46503 0.42157 0.38459 0.0
C1672 C 0.50908 0.46617 0.35675 0.0
C1673 C 0.44782 0.39939 0.38354 0.0
C1674 C 0.60164 0.52845 0.35751 0.0
C1675 C 0.57939 0.51185 0.35823 0.0
C1676 C 0.53327 0.48141 0.38923 0.0
C1677 C 0.48211 0.43019 0.37149 0.0
C1678 C 0.50107 0.45324 0.37266 0.0
C1679 C 0.56541 0.51182 0.37209 0.0
C1680 C 0.54208 0.49336 0.37295 0.0
H1681 H 0.46518 0.38395 0.3455 0.0
H1682 H 0.49482 0.42233 0.34729 0.0
H1683 H 0.50713 0.45181 0.40154 0.0
H1684 H 0.6028 0.55871 0.39461 0.0
H1685 H 0.56369 0.52918 0.39605 0.0
C1686 C 0.06726 0.46583 0.85816 0.0
C1687 C 0.05949 0.4488 0.87127 0.0
C1688 C 0.0615 0.48231 0.85915 0.0
C1689 C 0.04707 0.513 0.89085 0.0
H1690 H 0.03402 0.53414 0.84609 0.0
C1691 C 0.04512 0.59592 0.88545 0.0
C1692 C 0.05899 0.60965 0.87137 0.0
C1693 C 0.03976 0.57363 0.88658 0.0
C1694 C 0.03748 0.52834 0.85874 0.0
H1695 H 0.03942 0.43569 0.89571 0.0
H1696 H 0.02964 0.46507 0.89763 0.0
H1697 H 0.03406 0.49907 0.84606 0.0
H1698 H 0.07761 0.6106 0.84724 0.0
H1699 H 0.06814 0.572 0.84915 0.0
H1700 H 0.05152 0.54293 0.90329 0.0
C1701 C 0.04008 0.46537 0.88652 0.0
C1702 C 0.03751 0.5083 0.85872 0.0
C1703 C 0.04562 0.44857 0.88538 0.0
C1704 C 0.06698 0.60056 0.85831 0.0
C1705 C 0.06138 0.57835 0.8593 0.0
C1706 C 0.04704 0.53315 0.89088 0.0
C1707 C 0.04796 0.48237 0.87336 0.0
C1708 C 0.04323 0.5009 0.87456 0.0
C1709 C 0.04781 0.56465 0.87345 0.0
C1710 C 0.04317 0.54142 0.8746 0.0
H1711 H 0.07788 0.46647 0.84706 0.0
H1712 H 0.06812 0.49539 0.84897 0.0
H1713 H 0.05158 0.50769 0.90325 0.0
H1714 H 0.03877 0.60248 0.89574 0.0
H1715 H 0.02929 0.5634 0.89765 0.0
C1716 C 0.59963 0.05015 0.38185 0.0
C1717 C 0.61637 0.06952 0.37336 0.0
C1718 C 0.57848 0.04743 0.38488 0.0
C1719 C 0.55062 0.08021 0.38995 0.0
H1720 H 0.49713 0.02835 0.37244 0.0
C1721 C 0.47474 0.08495 0.36885 0.0
C1722 C 0.45342 0.06826 0.37426 0.0
C1723 C 0.49321 0.08261 0.37191 0.0
C1724 C 0.51187 0.04272 0.37773 0.0
H1725 H 0.6238 0.10109 0.36132 0.0
H1726 H 0.58728 0.09634 0.36665 0.0
H1727 H 0.53262 0.02866 0.37209 0.0
H1728 H 0.4349 0.03578 0.38699 0.0
H1729 H 0.46756 0.03163 0.39219 0.0
H1730 H 0.53027 0.09466 0.39497 0.0
C1731 C 0.5905 0.08335 0.3711 0.0
C1732 C 0.53213 0.04291 0.37753 0.0
C1733 C 0.61144 0.08598 0.36793 0.0
C1734 C 0.45108 0.04898 0.38269 0.0
C1735 C 0.46971 0.04655 0.38563 0.0
C1736 C 0.53049 0.08002 0.39017 0.0
C1737 C 0.57386 0.06417 0.37971 0.0
C1738 C 0.55182 0.06202 0.38297 0.0
C1739 C 0.49098 0.0635 0.38042 0.0
C1740 C 0.51108 0.06165 0.3834 0.0
H1741 H 0.60285 0.03711 0.38617 0.0
H1742 H 0.56589 0.03246 0.39152 0.0
H1743 H 0.56547 0.09498 0.39459 0.0
H1744 H 0.47729 0.10001 0.36227 0.0
H1745 H 0.50933 0.09576 0.36741 0.0
C1746 C 0.54844 0.59684 0.88582 0.0
C1747 C 0.54789 0.61107 0.8724 0.0
C1748 C 0.53168 0.57446 0.88655 0.0
C1749 C 0.48875 0.53006 0.8581 0.0
H1750 H 0.45524 0.50641 0.90288 0.0
C1751 C 0.39716 0.46525 0.85805 0.0
C1752 C 0.38847 0.44797 0.87094 0.0
C1753 C 0.41931 0.48201 0.85884 0.0
C1754 C 0.46474 0.51256 0.89038 0.0
H1755 H 0.5295 0.61284 0.8491 0.0
H1756 H 0.50061 0.57404 0.85032 0.0
H1757 H 0.48983 0.54232 0.90331 0.0
H1758 H 0.39637 0.43452 0.89467 0.0
H1759 H 0.43541 0.46437 0.89624 0.0
H1760 H 0.46332 0.50088 0.84498 0.0
C1761 C 0.51396 0.5801 0.86024 0.0
C1762 C 0.48449 0.5331 0.89062 0.0
C1763 C 0.53043 0.60241 0.85965 0.0
C1764 C 0.40262 0.44763 0.88453 0.0
C1765 C 0.42488 0.4647 0.88548 0.0
C1766 C 0.46912 0.50959 0.85786 0.0
C1767 C 0.51437 0.56588 0.87368 0.0
C1768 C 0.49615 0.54243 0.87432 0.0
C1769 C 0.43339 0.48206 0.87262 0.0
C1770 C 0.45642 0.50108 0.87383 0.0
H1771 H 0.56165 0.60303 0.89587 0.0
H1772 H 0.53234 0.56384 0.89707 0.0
H1773 H 0.49767 0.53667 0.84541 0.0
H1774 H 0.38678 0.46597 0.84733 0.0
H1775 H 0.42526 0.49533 0.84891 0.0
loop_
_geom_bond_atom_site_label_1
_geom_bond_atom_site_label_2
_geom_bond_distance
_geom_bond_site_symmetry_2
_ccdc_geom_bond_type
Co0 O1 2.216 . S
Co0 O2 2.091 . S
Co0 O4 2.004 . S
Co0 O10 2.021 . S
Co0 O12 2.137 . S
Co0 O13 2.244 . S
O1 Co0 2.216 . S
O1 C8 1.247 . S
O2 Co0 2.091 . S
O2 C8 1.261 . S
C3 O12 1.247 . S
C3 O13 1.272 . S
O4 Co0 2.004 . S
O4 C9 1.259 . S
Co5 O6 2.061 . S
Co5 O11 2.052 . S
Co5 O13 2.135 . S
O6 Co5 2.061 . S
O6 C9 1.235 . S
C7 O10 1.238 . S
C7 O11 1.241 . S
C8 O1 1.247 . S
C8 O2 1.261 . S
C9 O4 1.259 . S
C9 O6 1.235 . S
O10 Co0 2.021 . S
O10 C7 1.238 . S
O11 Co5 2.052 . S
O11 C7 1.241 . S
O12 Co0 2.137 . S
O12 C3 1.247 . S
O13 Co0 2.244 . S
O13 C3 1.272 . S
O13 Co5 2.135 . S
Co14 O15 2.216 . S
Co14 O16 2.091 . S
Co14 O18 2.004 . S
Co14 O24 2.021 . S
Co14 O26 2.137 . S
Co14 O27 2.244 . S
O15 Co14 2.216 . S
O15 C22 1.247 . S
O16 Co14 2.091 . S
O16 C22 1.261 . S
C17 O26 1.247 . S
C17 O27 1.272 . S
O18 Co14 2.004 . S
O18 C23 1.259 . S
Co19 O20 2.061 . S
Co19 O25 2.052 . S
Co19 O27 2.135 . S
O20 Co19 2.061 . S
O20 C23 1.235 . S
C21 O24 1.238 . S
C21 O25 1.241 . S
C22 O15 1.247 . S
C22 O16 1.261 . S
C23 O18 1.259 . S
C23 O20 1.235 . S
O24 Co14 2.021 . S
O24 C21 1.238 . S
O25 Co19 2.052 . S
O25 C21 1.241 . S
O26 Co14 2.137 . S
O26 C17 1.247 . S
O27 Co14 2.244 . S
O27 C17 1.272 . S
O27 Co19 2.135 . S
Co28 O29 2.216 . S
Co28 O30 2.091 . S
Co28 O32 2.004 . S
Co28 O38 2.021 . S
Co28 O40 2.137 . S
Co28 O41 2.244 . S
O29 Co28 2.216 . S
O29 C36 1.247 . S
O30 Co28 2.091 . S
O30 C36 1.261 . S
C31 O40 1.247 . S
C31 O41 1.272 . S
O32 Co28 2.004 . S
O32 C37 1.259 . S
Co33 O34 2.061 . S
Co33 O39 2.052 . S
Co33 O41 2.135 . S
O34 Co33 2.061 . S
O34 C37 1.235 . S
C35 O38 1.238 . S
C35 O39 1.241 . S
C36 O29 1.247 . S
C36 O30 1.261 . S
C37 O32 1.259 . S
C37 O34 1.235 . S
O38 Co28 2.021 . S
O38 C35 1.238 . S
O39 Co33 2.052 . S
O39 C35 1.241 . S
O40 Co28 2.137 . S
O40 C31 1.247 . S
O41 Co28 2.244 . S
O41 C31 1.272 . S
O41 Co33 2.135 . S
Co42 O43 2.216 . S
Co42 O44 2.091 . S
Co42 O46 2.004 . S
Co42 O52 2.021 . S
Co42 O54 2.137 . S
Co42 O55 2.244 . S
O43 Co42 2.216 . S
O43 C50 1.247 . S
O44 Co42 2.091 . S
O44 C50 1.261 . S
C45 O54 1.247 . S
C45 O55 1.272 . S
O46 Co42 2.004 . S
O46 C51 1.259 . S
Co47 O48 2.061 . S
Co47 O53 2.052 . S
Co47 O55 2.135 . S
O48 Co47 2.061 . S
O48 C51 1.235 . S
C49 O52 1.238 . S
C49 O53 1.241 . S
C50 O43 1.247 . S
C50 O44 1.261 . S
C51 O46 1.259 . S
C51 O48 1.235 . S
O52 Co42 2.021 . S
O52 C49 1.238 . S
O53 Co47 2.052 . S
O53 C49 1.241 . S
O54 Co42 2.137 . S
O54 C45 1.247 . S
O55 Co42 2.244 . S
O55 C45 1.272 . S
O55 Co47 2.135 . S
Co56 O57 2.216 . S
Co56 O58 2.091 . S
Co56 O60 2.004 . S
Co56 O66 2.021 . S
Co56 O68 2.137 . S
Co56 O69 2.244 . S
O57 Co56 2.216 . S
O57 C64 1.247 . S
O58 Co56 2.091 . S
O58 C64 1.261 . S
C59 O68 1.247 . S
C59 O69 1.272 . S
O60 Co56 2.004 . S
O60 C65 1.259 . S
Co61 O62 2.061 . S
Co61 O67 2.052 . S
Co61 O69 2.135 . S
O62 Co61 2.061 . S
O62 C65 1.235 . S
C63 O66 1.238 . S
C63 O67 1.241 . S
C64 O57 1.247 . S
C64 O58 1.261 . S
C65 O60 1.259 . S
C65 O62 1.235 . S
O66 Co56 2.021 . S
O66 C63 1.238 . S
O67 Co61 2.052 . S
O67 C63 1.241 . S
O68 Co56 2.137 . S
O68 C59 1.247 . S
O69 Co56 2.244 . S
O69 C59 1.272 . S
O69 Co61 2.135 . S
Co70 O71 2.216 . S
Co70 O72 2.091 . S
Co70 O74 2.004 . S
Co70 O80 2.021 . S
Co70 O82 2.137 . S
Co70 O83 2.244 . S
O71 Co70 2.216 . S
O71 C78 1.247 . S
O72 Co70 2.091 . S
O72 C78 1.261 . S
C73 O82 1.247 . S
C73 O83 1.272 . S
O74 Co70 2.004 . S
O74 C79 1.259 . S
Co75 O76 2.061 . S
Co75 O81 2.052 . S
Co75 O83 2.135 . S
O76 Co75 2.061 . S
O76 C79 1.235 . S
C77 O80 1.238 . S
C77 O81 1.241 . S
C78 O71 1.247 . S
C78 O72 1.261 . S
C79 O74 1.259 . S
C79 O76 1.235 . S
O80 Co70 2.021 . S
O80 C77 1.238 . S
O81 Co75 2.052 . S
O81 C77 1.241 . S
O82 Co70 2.137 . S
O82 C73 1.247 . S
O83 Co70 2.244 . S
O83 C73 1.272 . S
O83 Co75 2.135 . S
Co84 O85 2.216 . S
Co84 O86 2.091 . S
Co84 O88 2.004 . S
Co84 O94 2.021 . S
Co84 O96 2.137 . S
Co84 O97 2.244 . S
O85 Co84 2.216 . S
O85 C92 1.247 . S
O86 Co84 2.091 . S
O86 C92 1.261 . S
C87 O96 1.247 . S
C87 O97 1.272 . S
O88 Co84 2.004 . S
O88 C93 1.259 . S
Co89 O90 2.061 . S
Co89 O95 2.052 . S
Co89 O97 2.135 . S
O90 Co89 2.061 . S
O90 C93 1.235 . S
C91 O94 1.238 . S
C91 O95 1.241 . S
C92 O85 1.247 . S
C92 O86 1.261 . S
C93 O88 1.259 . S
C93 O90 1.235 . S
O94 Co84 2.021 . S
O94 C91 1.238 . S
O95 Co89 2.052 . S
O95 C91 1.241 . S
O96 Co84 2.137 . S
O96 C87 1.247 . S
O97 Co84 2.244 . S
O97 C87 1.272 . S
O97 Co89 2.135 . S
Co98 O99 2.216 . S
Co98 O100 2.091 . S
Co98 O102 2.004 . S
Co98 O108 2.021 . S
Co98 O110 2.137 . S
Co98 O111 2.244 . S
O99 Co98 2.216 . S
O99 C106 1.247 . S
O100 Co98 2.091 . S
O100 C106 1.261 . S
C101 O110 1.247 . S
C101 O111 1.272 . S
O102 Co98 2.004 . S
O102 C107 1.259 . S
Co103 O104 2.061 . S
Co103 O109 2.052 . S
Co103 O111 2.135 . S
O104 Co103 2.061 . S
O104 C107 1.235 . S
C105 O108 1.238 . S
C105 O109 1.241 . S
C106 O99 1.247 . S
C106 O100 1.261 . S
C107 O102 1.259 . S
C107 O104 1.235 . S
O108 Co98 2.021 . S
O108 C105 1.238 . S
O109 Co103 2.052 . S
O109 C105 1.241 . S
O110 Co98 2.137 . S
O110 C101 1.247 . S
O111 Co98 2.244 . S
O111 C101 1.272 . S
O111 Co103 2.135 . S
Co112 O113 2.216 . S
Co112 O114 2.091 . S
Co112 O116 2.004 . S
Co112 O122 2.021 . S
Co112 O124 2.137 . S
Co112 O125 2.244 . S
O113 Co112 2.216 . S
O113 C120 1.247 . S
O114 Co112 2.091 . S
O114 C120 1.261 . S
C115 O124 1.247 . S
C115 O125 1.272 . S
O116 Co112 2.004 . S
O116 C121 1.259 . S
Co117 O118 2.061 . S
Co117 O123 2.052 . S
Co117 O125 2.135 . S
O118 Co117 2.061 . S
O118 C121 1.235 . S
C119 O122 1.238 . S
C119 O123 1.241 . S
C120 O113 1.247 . S
C120 O114 1.261 . S
C121 O116 1.259 . S
C121 O118 1.235 . S
O122 Co112 2.021 . S
O122 C119 1.238 . S
O123 Co117 2.052 . S
O123 C119 1.241 . S
O124 Co112 2.137 . S
O124 C115 1.247 . S
O125 Co112 2.244 . S
O125 C115 1.272 . S
O125 Co117 2.135 . S
Co126 O127 2.216 . S
Co126 O128 2.091 . S
Co126 O130 2.004 . S
Co126 O136 2.021 . S
Co126 O138 2.137 . S
Co126 O139 2.244 . S
O127 Co126 2.216 . S
O127 C134 1.247 . S
O128 Co126 2.091 . S
O128 C134 1.261 . S
C129 O138 1.247 . S
C129 O139 1.272 . S
O130 Co126 2.004 . S
O130 C135 1.259 . S
Co131 O132 2.061 . S
Co131 O137 2.052 . S
Co131 O139 2.135 . S
O132 Co131 2.061 . S
O132 C135 1.235 . S
C133 O136 1.238 . S
C133 O137 1.241 . S
C134 O127 1.247 . S
C134 O128 1.261 . S
C135 O130 1.259 . S
C135 O132 1.235 . S
O136 Co126 2.021 . S
O136 C133 1.238 . S
O137 Co131 2.052 . S
O137 C133 1.241 . S
O138 Co126 2.137 . S
O138 C129 1.247 . S
O139 Co126 2.244 . S
O139 C129 1.272 . S
O139 Co131 2.135 . S
Co140 O141 2.216 . S
Co140 O142 2.091 . S
Co140 O144 2.004 . S
Co140 O150 2.021 . S
Co140 O152 2.137 . S
Co140 O153 2.244 . S
O141 Co140 2.216 . S
O141 C148 1.247 . S
O142 Co140 2.091 . S
O142 C148 1.261 . S
C143 O152 1.247 . S
C143 O153 1.272 . S
O144 Co140 2.004 . S
O144 C149 1.259 . S
Co145 O146 2.061 . S
Co145 O151 2.052 . S
Co145 O153 2.135 . S
O146 Co145 2.061 . S
O146 C149 1.235 . S
C147 O150 1.238 . S
C147 O151 1.241 . S
C148 O141 1.247 . S
C148 O142 1.261 . S
C149 O144 1.259 . S
C149 O146 1.235 . S
O150 Co140 2.021 . S
O150 C147 1.238 . S
O151 Co145 2.052 . S
O151 C147 1.241 . S
O152 Co140 2.137 . S
O152 C143 1.247 . S
O153 Co140 2.244 . S
O153 C143 1.272 . S
O153 Co145 2.135 . S
Co154 O155 2.216 . S
Co154 O156 2.091 . S
Co154 O158 2.004 . S
Co154 O164 2.021 . S
Co154 O166 2.137 . S
Co154 O167 2.244 . S
O155 Co154 2.216 . S
O155 C162 1.247 . S
O156 Co154 2.091 . S
O156 C162 1.261 . S
C157 O166 1.247 . S
C157 O167 1.272 . S
O158 Co154 2.004 . S
O158 C163 1.259 . S
Co159 O160 2.061 . S
Co159 O165 2.052 . S
Co159 O167 2.135 . S
O160 Co159 2.061 . S
O160 C163 1.235 . S
C161 O164 1.238 . S
C161 O165 1.241 . S
C162 O155 1.247 . S
C162 O156 1.261 . S
C163 O158 1.259 . S
C163 O160 1.235 . S
O164 Co154 2.021 . S
O164 C161 1.238 . S
O165 Co159 2.052 . S
O165 C161 1.241 . S
O166 Co154 2.137 . S
O166 C157 1.247 . S
O167 Co154 2.244 . S
O167 C157 1.272 . S
O167 Co159 2.135 . S
Co168 O169 2.216 . S
Co168 O170 2.091 . S
Co168 O172 2.004 . S
Co168 O178 2.021 . S
Co168 O180 2.137 . S
Co168 O181 2.244 . S
O169 Co168 2.216 . S
O169 C176 1.247 . S
O170 Co168 2.091 . S
O170 C176 1.261 . S
C171 O180 1.247 . S
C171 O181 1.272 . S
O172 Co168 2.004 . S
O172 C177 1.259 . S
Co173 O174 2.061 . S
Co173 O179 2.052 . S
Co173 O181 2.135 . S
O174 Co173 2.061 . S
O174 C177 1.235 . S
C175 O178 1.238 . S
C175 O179 1.241 . S
C176 O169 1.247 . S
C176 O170 1.261 . S
C177 O172 1.259 . S
C177 O174 1.235 . S
O178 Co168 2.021 . S
O178 C175 1.238 . S
O179 Co173 2.052 . S
O179 C175 1.241 . S
O180 Co168 2.137 . S
O180 C171 1.247 . S
O181 Co168 2.244 . S
O181 C171 1.272 . S
O181 Co173 2.135 . S
Co182 O183 2.216 . S
Co182 O184 2.091 . S
Co182 O186 2.004 . S
Co182 O192 2.021 . S
Co182 O194 2.137 . S
Co182 O195 2.244 . S
O183 Co182 2.216 . S
O183 C190 1.247 . S
O184 Co182 2.091 . S
O184 C190 1.261 . S
C185 O194 1.247 . S
C185 O195 1.272 . S
O186 Co182 2.004 . S
O186 C191 1.259 . S
Co187 O188 2.061 . S
Co187 O193 2.052 . S
Co187 O195 2.135 . S
O188 Co187 2.061 . S
O188 C191 1.235 . S
C189 O192 1.238 . S
C189 O193 1.241 . S
C190 O183 1.247 . S
C190 O184 1.261 . S
C191 O186 1.259 . S
C191 O188 1.235 . S
O192 Co182 2.021 . S
O192 C189 1.238 . S
O193 Co187 2.052 . S
O193 C189 1.241 . S
O194 Co182 2.137 . S
O194 C185 1.247 . S
O195 Co182 2.244 . S
O195 C185 1.272 . S
O195 Co187 2.135 . S
Co196 O197 2.216 . S
Co196 O198 2.091 . S
Co196 O200 2.004 . S
Co196 O206 2.021 . S
Co196 O208 2.137 . S
Co196 O209 2.244 . S
O197 Co196 2.216 . S
O197 C204 1.247 . S
O198 Co196 2.091 . S
O198 C204 1.261 . S
C199 O208 1.247 . S
C199 O209 1.272 . S
O200 Co196 2.004 . S
O200 C205 1.259 . S
Co201 O202 2.061 . S
Co201 O207 2.052 . S
Co201 O209 2.135 . S
O202 Co201 2.061 . S
O202 C205 1.235 . S
C203 O206 1.238 . S
C203 O207 1.241 . S
C204 O197 1.247 . S
C204 O198 1.261 . S
C205 O200 1.259 . S
C205 O202 1.235 . S
O206 Co196 2.021 . S
O206 C203 1.238 . S
O207 Co201 2.052 . S
O207 C203 1.241 . S
O208 Co196 2.137 . S
O208 C199 1.247 . S
O209 Co196 2.244 . S
O209 C199 1.272 . S
O209 Co201 2.135 . S
Co210 O211 2.216 . S
Co210 O212 2.091 . S
Co210 O214 2.004 . S
Co210 O220 2.021 . S
Co210 O222 2.137 . S
Co210 O223 2.244 . S
O211 Co210 2.216 . S
O211 C218 1.247 . S
O212 Co210 2.091 . S
O212 C218 1.261 . S
C213 O222 1.247 . S
C213 O223 1.272 . S
O214 Co210 2.004 . S
O214 C219 1.259 . S
Co215 O216 2.061 . S
Co215 O221 2.052 . S
Co215 O223 2.135 . S
O216 Co215 2.061 . S
O216 C219 1.235 . S
C217 O220 1.238 . S
C217 O221 1.241 . S
C218 O211 1.247 . S
C218 O212 1.261 . S
C219 O214 1.259 . S
C219 O216 1.235 . S
O220 Co210 2.021 . S
O220 C217 1.238 . S
O221 Co215 2.052 . S
O221 C217 1.241 . S
O222 Co210 2.137 . S
O222 C213 1.247 . S
O223 Co210 2.244 . S
O223 C213 1.272 . S
O223 Co215 2.135 . S
Co224 O225 2.216 . S
Co224 O226 2.091 . S
Co224 O228 2.004 . S
Co224 O234 2.021 . S
Co224 O236 2.137 . S
Co224 O237 2.244 . S
O225 Co224 2.216 . S
O225 C232 1.247 . S
O226 Co224 2.091 . S
O226 C232 1.261 . S
C227 O236 1.247 . S
C227 O237 1.272 . S
O228 Co224 2.004 . S
O228 C233 1.259 . S
Co229 O230 2.061 . S
Co229 O235 2.052 . S
Co229 O237 2.135 . S
O230 Co229 2.061 . S
O230 C233 1.235 . S
C231 O234 1.238 . S
C231 O235 1.241 . S
C232 O225 1.247 . S
C232 O226 1.261 . S
C233 O228 1.259 . S
C233 O230 1.235 . S
O234 Co224 2.021 . S
O234 C231 1.238 . S
O235 Co229 2.052 . S
O235 C231 1.241 . S
O236 Co224 2.137 . S
O236 C227 1.247 . S
O237 Co224 2.244 . S
O237 C227 1.272 . S
O237 Co229 2.135 . S
Co238 O239 2.216 . S
Co238 O240 2.091 . S
Co238 O242 2.004 . S
Co238 O248 2.021 . S
Co238 O250 2.137 . S
Co238 O251 2.244 . S
O239 Co238 2.216 . S
O239 C246 1.247 . S
O240 Co238 2.091 . S
O240 C246 1.261 . S
C241 O250 1.247 . S
C241 O251 1.272 . S
O242 Co238 2.004 . S
O242 C247 1.259 . S
Co243 O244 2.061 . S
Co243 O249 2.052 . S
Co243 O251 2.135 . S
O244 Co243 2.061 . S
O244 C247 1.235 . S
C245 O248 1.238 . S
C245 O249 1.241 . S
C246 O239 1.247 . S
C246 O240 1.261 . S
C247 O242 1.259 . S
C247 O244 1.235 . S
O248 Co238 2.021 . S
O248 C245 1.238 . S
O249 Co243 2.052 . S
O249 C245 1.241 . S
O250 Co238 2.137 . S
O250 C241 1.247 . S
O251 Co238 2.244 . S
O251 C241 1.272 . S
O251 Co243 2.135 . S
Co252 O253 2.216 . S
Co252 O254 2.091 . S
Co252 O256 2.004 . S
Co252 O262 2.021 . S
Co252 O264 2.137 . S
Co252 O265 2.244 . S
O253 Co252 2.216 . S
O253 C260 1.247 . S
O254 Co252 2.091 . S
O254 C260 1.261 . S
C255 O264 1.247 . S
C255 O265 1.272 . S
O256 Co252 2.004 . S
O256 C261 1.259 . S
Co257 O258 2.061 . S
Co257 O263 2.052 . S
Co257 O265 2.135 . S
O258 Co257 2.061 . S
O258 C261 1.235 . S
C259 O262 1.238 . S
C259 O263 1.241 . S
C260 O253 1.247 . S
C260 O254 1.261 . S
C261 O256 1.259 . S
C261 O258 1.235 . S
O262 Co252 2.021 . S
O262 C259 1.238 . S
O263 Co257 2.052 . S
O263 C259 1.241 . S
O264 Co252 2.137 . S
O264 C255 1.247 . S
O265 Co252 2.244 . S
O265 C255 1.272 . S
O265 Co257 2.135 . S
Co266 O267 2.216 . S
Co266 O268 2.091 . S
Co266 O270 2.004 . S
Co266 O276 2.021 . S
Co266 O278 2.137 . S
Co266 O279 2.244 . S
O267 Co266 2.216 . S
O267 C274 1.247 . S
O268 Co266 2.091 . S
O268 C274 1.261 . S
C269 O278 1.247 . S
C269 O279 1.272 . S
O270 Co266 2.004 . S
O270 C275 1.259 . S
Co271 O272 2.061 . S
Co271 O277 2.052 . S
Co271 O279 2.135 . S
O272 Co271 2.061 . S
O272 C275 1.235 . S
C273 O276 1.238 . S
C273 O277 1.241 . S
C274 O267 1.247 . S
C274 O268 1.261 . S
C275 O270 1.259 . S
C275 O272 1.235 . S
O276 Co266 2.021 . S
O276 C273 1.238 . S
O277 Co271 2.052 . S
O277 C273 1.241 . S
O278 Co266 2.137 . S
O278 C269 1.247 . S
O279 Co266 2.244 . S
O279 C269 1.272 . S
O279 Co271 2.135 . S
Co280 O281 2.216 . S
Co280 O282 2.091 . S
Co280 O284 2.004 . S
Co280 O290 2.021 . S
Co280 O292 2.137 . S
Co280 O293 2.244 . S
O281 Co280 2.216 . S
O281 C288 1.247 . S
O282 Co280 2.091 . S
O282 C288 1.261 . S
C283 O292 1.247 . S
C283 O293 1.272 . S
O284 Co280 2.004 . S
O284 C289 1.259 . S
Co285 O286 2.061 . S
Co285 O291 2.052 . S
Co285 O293 2.135 . S
O286 Co285 2.061 . S
O286 C289 1.235 . S
C287 O290 1.238 . S
C287 O291 1.241 . S
C288 O281 1.247 . S
C288 O282 1.261 . S
C289 O284 1.259 . S
C289 O286 1.235 . S
O290 Co280 2.021 . S
O290 C287 1.238 . S
O291 Co285 2.052 . S
O291 C287 1.241 . S
O292 Co280 2.137 . S
O292 C283 1.247 . S
O293 Co280 2.244 . S
O293 C283 1.272 . S
O293 Co285 2.135 . S
Co294 O295 2.216 . S
Co294 O296 2.091 . S
Co294 O298 2.004 . S
Co294 O304 2.021 . S
Co294 O306 2.137 . S
Co294 O307 2.244 . S
O295 Co294 2.216 . S
O295 C302 1.247 . S
O296 Co294 2.091 . S
O296 C302 1.261 . S
C297 O306 1.247 . S
C297 O307 1.272 . S
O298 Co294 2.004 . S
O298 C303 1.259 . S
Co299 O300 2.061 . S
Co299 O305 2.052 . S
Co299 O307 2.135 . S
O300 Co299 2.061 . S
O300 C303 1.235 . S
C301 O304 1.238 . S
C301 O305 1.241 . S
C302 O295 1.247 . S
C302 O296 1.261 . S
C303 O298 1.259 . S
C303 O300 1.235 . S
O304 Co294 2.021 . S
O304 C301 1.238 . S
O305 Co299 2.052 . S
O305 C301 1.241 . S
O306 Co294 2.137 . S
O306 C297 1.247 . S
O307 Co294 2.244 . S
O307 C297 1.272 . S
O307 Co299 2.135 . S
Co308 O309 2.216 . S
Co308 O310 2.091 . S
Co308 O312 2.004 . S
Co308 O318 2.021 . S
Co308 O320 2.137 . S
Co308 O321 2.244 . S
O309 Co308 2.216 . S
O309 C316 1.247 . S
O310 Co308 2.091 . S
O310 C316 1.261 . S
C311 O320 1.247 . S
C311 O321 1.272 . S
O312 Co308 2.004 . S
O312 C317 1.259 . S
Co313 O314 2.061 . S
Co313 O319 2.052 . S
Co313 O321 2.135 . S
O314 Co313 2.061 . S
O314 C317 1.235 . S
C315 O318 1.238 . S
C315 O319 1.241 . S
C316 O309 1.247 . S
C316 O310 1.261 . S
C317 O312 1.259 . S
C317 O314 1.235 . S
O318 Co308 2.021 . S
O318 C315 1.238 . S
O319 Co313 2.052 . S
O319 C315 1.241 . S
O320 Co308 2.137 . S
O320 C311 1.247 . S
O321 Co308 2.244 . S
O321 C311 1.272 . S
O321 Co313 2.135 . S
Co322 O323 2.216 . S
Co322 O324 2.091 . S
Co322 O326 2.004 . S
Co322 O332 2.021 . S
Co322 O334 2.137 . S
Co322 O335 2.244 . S
O323 Co322 2.216 . S
O323 C330 1.247 . S
O324 Co322 2.091 . S
O324 C330 1.261 . S
C325 O334 1.247 . S
C325 O335 1.272 . S
O326 Co322 2.004 . S
O326 C331 1.259 . S
Co327 O328 2.061 . S
Co327 O333 2.052 . S
Co327 O335 2.135 . S
O328 Co327 2.061 . S
O328 C331 1.235 . S
C329 O332 1.238 . S
C329 O333 1.241 . S
C330 O323 1.247 . S
C330 O324 1.261 . S
C331 O326 1.259 . S
C331 O328 1.235 . S
O332 Co322 2.021 . S
O332 C329 1.238 . S
O333 Co327 2.052 . S
O333 C329 1.241 . S
O334 Co322 2.137 . S
O334 C325 1.247 . S
O335 Co322 2.244 . S
O335 C325 1.272 . S
O335 Co327 2.135 . S
C336 C337 1.349 . S
C336 C338 1.327 . S
C336 H361 0.950 . S
C337 C336 1.349 . S
C337 C353 1.349 . S
C338 C336 1.327 . S
C338 C357 1.429 . S
C338 H362 0.950 . S
C339 C356 1.574 . S
C339 C358 1.368 . S
C339 H363 0.949 . S
H340 C344 0.949 . S
C341 C342 1.349 . S
C341 C343 1.327 . S
C341 H364 0.950 . S
C342 C341 1.349 . S
C342 C354 1.349 . S
C343 C341 1.327 . S
C343 C359 1.429 . S
C343 H365 0.950 . S
C344 H340 0.949 . S
C344 C352 1.574 . S
C344 C360 1.368 . S
H345 C353 0.950 . S
H346 C351 0.950 . S
H347 C352 0.949 . S
H348 C354 0.950 . S
H349 C355 0.950 . S
H350 C356 0.949 . S
C351 H346 0.950 . S
C351 C353 1.327 . S
C351 C357 1.429 . S
C352 C344 1.574 . S
C352 H347 0.949 . S
C352 C358 1.368 . S
C353 C337 1.349 . S
C353 H345 0.950 . S
C353 C351 1.327 . S
C354 C342 1.349 . S
C354 H348 0.950 . S
C354 C355 1.327 . S
C355 H349 0.950 . S
C355 C354 1.327 . S
C355 C359 1.429 . S
C356 C339 1.574 . S
C356 H350 0.949 . S
C356 C360 1.368 . S
C357 C338 1.429 . S
C357 C351 1.429 . S
C357 C358 1.523 . S
C358 C339 1.368 . S
C358 C352 1.368 . S
C358 C357 1.523 . S
C359 C343 1.429 . S
C359 C355 1.429 . S
C359 C360 1.523 . S
C360 C344 1.368 . S
C360 C356 1.368 . S
C360 C359 1.523 . S
H361 C336 0.950 . S
H362 C338 0.950 . S
H363 C339 0.949 . S
H364 C341 0.950 . S
H365 C343 0.950 . S
C366 C367 1.349 . S
C366 C368 1.327 . S
C366 H391 0.950 . S
C367 C366 1.349 . S
C367 C383 1.349 . S
C368 C366 1.327 . S
C368 C387 1.429 . S
C368 H392 0.950 . S
C369 C386 1.574 . S
C369 C388 1.368 . S
C369 H393 0.949 . S
H370 C374 0.949 . S
C371 C372 1.349 . S
C371 C373 1.327 . S
C371 H394 0.950 . S
C372 C371 1.349 . S
C372 C384 1.349 . S
C373 C371 1.327 . S
C373 C389 1.429 . S
C373 H395 0.950 . S
C374 H370 0.949 . S
C374 C382 1.574 . S
C374 C390 1.368 . S
H375 C383 0.950 . S
H376 C381 0.950 . S
H377 C382 0.949 . S
H378 C384 0.950 . S
H379 C385 0.950 . S
H380 C386 0.949 . S
C381 H376 0.950 . S
C381 C383 1.327 . S
C381 C387 1.429 . S
C382 C374 1.574 . S
C382 H377 0.949 . S
C382 C388 1.368 . S
C383 C367 1.349 . S
C383 H375 0.950 . S
C383 C381 1.327 . S
C384 C372 1.349 . S
C384 H378 0.950 . S
C384 C385 1.327 . S
C385 H379 0.950 . S
C385 C384 1.327 . S
C385 C389 1.429 . S
C386 C369 1.574 . S
C386 H380 0.949 . S
C386 C390 1.368 . S
C387 C368 1.429 . S
C387 C381 1.429 . S
C387 C388 1.523 . S
C388 C369 1.368 . S
C388 C382 1.368 . S
C388 C387 1.523 . S
C389 C373 1.429 . S
C389 C385 1.429 . S
C389 C390 1.523 . S
C390 C374 1.368 . S
C390 C386 1.368 . S
C390 C389 1.523 . S
H391 C366 0.950 . S
H392 C368 0.950 . S
H393 C369 0.949 . S
H394 C371 0.950 . S
H395 C373 0.950 . S
C396 C397 1.349 . S
C396 C398 1.327 . S
C396 H421 0.950 . S
C397 C396 1.349 . S
C397 C413 1.349 . S
C398 C396 1.327 . S
C398 C417 1.429 . S
C398 H422 0.950 . S
C399 C416 1.574 . S
C399 C418 1.368 . S
C399 H423 0.949 . S
H400 C404 0.949 . S
C401 C402 1.349 . S
C401 C403 1.327 . S
C401 H424 0.950 . S
C402 C401 1.349 . S
C402 C414 1.349 . S
C403 C401 1.327 . S
C403 C419 1.429 . S
C403 H425 0.950 . S
C404 H400 0.949 . S
C404 C412 1.574 . S
C404 C420 1.368 . S
H405 C413 0.950 . S
H406 C411 0.950 . S
H407 C412 0.949 . S
H408 C414 0.950 . S
H409 C415 0.950 . S
H410 C416 0.949 . S
C411 H406 0.950 . S
C411 C413 1.327 . S
C411 C417 1.429 . S
C412 C404 1.574 . S
C412 H407 0.949 . S
C412 C418 1.368 . S
C413 C397 1.349 . S
C413 H405 0.950 . S
C413 C411 1.327 . S
C414 C402 1.349 . S
C414 H408 0.950 . S
C414 C415 1.327 . S
C415 H409 0.950 . S
C415 C414 1.327 . S
C415 C419 1.429 . S
C416 C399 1.574 . S
C416 H410 0.949 . S
C416 C420 1.368 . S
C417 C398 1.429 . S
C417 C411 1.429 . S
C417 C418 1.523 . S
C418 C399 1.368 . S
C418 C412 1.368 . S
C418 C417 1.523 . S
C419 C403 1.429 . S
C419 C415 1.429 . S
C419 C420 1.523 . S
C420 C404 1.368 . S
C420 C416 1.368 . S
C420 C419 1.523 . S
H421 C396 0.950 . S
H422 C398 0.950 . S
H423 C399 0.949 . S
H424 C401 0.950 . S
H425 C403 0.950 . S
C426 C427 1.349 . S
C426 C428 1.327 . S
C426 H451 0.950 . S
C427 C426 1.349 . S
C427 C443 1.349 . S
C428 C426 1.327 . S
C428 C447 1.429 . S
C428 H452 0.950 . S
C429 C446 1.574 . S
C429 C448 1.368 . S
C429 H453 0.949 . S
H430 C434 0.949 . S
C431 C432 1.349 . S
C431 C433 1.327 . S
C431 H454 0.950 . S
C432 C431 1.349 . S
C432 C444 1.349 . S
C433 C431 1.327 . S
C433 C449 1.429 . S
C433 H455 0.950 . S
C434 H430 0.949 . S
C434 C442 1.574 . S
C434 C450 1.368 . S
H435 C443 0.950 . S
H436 C441 0.950 . S
H437 C442 0.949 . S
H438 C444 0.950 . S
H439 C445 0.950 . S
H440 C446 0.949 . S
C441 H436 0.950 . S
C441 C443 1.327 . S
C441 C447 1.429 . S
C442 C434 1.574 . S
C442 H437 0.949 . S
C442 C448 1.368 . S
C443 C427 1.349 . S
C443 H435 0.950 . S
C443 C441 1.327 . S
C444 C432 1.349 . S
C444 H438 0.950 . S
C444 C445 1.327 . S
C445 H439 0.950 . S
C445 C444 1.327 . S
C445 C449 1.429 . S
C446 C429 1.574 . S
C446 H440 0.949 . S
C446 C450 1.368 . S
C447 C428 1.429 . S
C447 C441 1.429 . S
C447 C448 1.523 . S
C448 C429 1.368 . S
C448 C442 1.368 . S
C448 C447 1.523 . S
C449 C433 1.429 . S
C449 C445 1.429 . S
C449 C450 1.523 . S
C450 C434 1.368 . S
C450 C446 1.368 . S
C450 C449 1.523 . S
H451 C426 0.950 . S
H452 C428 0.950 . S
H453 C429 0.949 . S
H454 C431 0.950 . S
H455 C433 0.950 . S
C456 C457 1.349 . S
C456 C458 1.327 . S
C456 H481 0.950 . S
C457 C456 1.349 . S
C457 C473 1.349 . S
C458 C456 1.327 . S
C458 C477 1.429 . S
C458 H482 0.950 . S
C459 C476 1.574 . S
C459 C478 1.368 . S
C459 H483 0.949 . S
H460 C464 0.949 . S
C461 C462 1.349 . S
C461 C463 1.327 . S
C461 H484 0.950 . S
C462 C461 1.349 . S
C462 C474 1.349 . S
C463 C461 1.327 . S
C463 C479 1.429 . S
C463 H485 0.950 . S
C464 H460 0.949 . S
C464 C472 1.574 . S
C464 C480 1.368 . S
H465 C473 0.950 . S
H466 C471 0.950 . S
H467 C472 0.949 . S
H468 C474 0.950 . S
H469 C475 0.950 . S
H470 C476 0.949 . S
C471 H466 0.950 . S
C471 C473 1.327 . S
C471 C477 1.429 . S
C472 C464 1.574 . S
C472 H467 0.949 . S
C472 C478 1.368 . S
C473 C457 1.349 . S
C473 H465 0.950 . S
C473 C471 1.327 . S
C474 C462 1.349 . S
C474 H468 0.950 . S
C474 C475 1.327 . S
C475 H469 0.950 . S
C475 C474 1.327 . S
C475 C479 1.429 . S
C476 C459 1.574 . S
C476 H470 0.949 . S
C476 C480 1.368 . S
C477 C458 1.429 . S
C477 C471 1.429 . S
C477 C478 1.523 . S
C478 C459 1.368 . S
C478 C472 1.368 . S
C478 C477 1.523 . S
C479 C463 1.429 . S
C479 C475 1.429 . S
C479 C480 1.523 . S
C480 C464 1.368 . S
C480 C476 1.368 . S
C480 C479 1.523 . S
H481 C456 0.950 . S
H482 C458 0.950 . S
H483 C459 0.949 . S
H484 C461 0.950 . S
H485 C463 0.950 . S
C486 C487 1.349 . S
C486 C488 1.327 . S
C486 H511 0.950 . S
C487 C486 1.349 . S
C487 C503 1.349 . S
C488 C486 1.327 . S
C488 C507 1.429 . S
C488 H512 0.950 . S
C489 C506 1.574 . S
C489 C508 1.368 . S
C489 H513 0.949 . S
H490 C494 0.949 . S
C491 C492 1.349 . S
C491 C493 1.327 . S
C491 H514 0.950 . S
C492 C491 1.349 . S
C492 C504 1.349 . S
C493 C491 1.327 . S
C493 C509 1.429 . S
C493 H515 0.950 . S
C494 H490 0.949 . S
C494 C502 1.574 . S
C494 C510 1.368 . S
H495 C503 0.950 . S
H496 C501 0.950 . S
H497 C502 0.949 . S
H498 C504 0.950 . S
H499 C505 0.950 . S
H500 C506 0.949 . S
C501 H496 0.950 . S
C501 C503 1.327 . S
C501 C507 1.429 . S
C502 C494 1.574 . S
C502 H497 0.949 . S
C502 C508 1.368 . S
C503 C487 1.349 . S
C503 H495 0.950 . S
C503 C501 1.327 . S
C504 C492 1.349 . S
C504 H498 0.950 . S
C504 C505 1.327 . S
C505 H499 0.950 . S
C505 C504 1.327 . S
C505 C509 1.429 . S
C506 C489 1.574 . S
C506 H500 0.949 . S
C506 C510 1.368 . S
C507 C488 1.429 . S
C507 C501 1.429 . S
C507 C508 1.523 . S
C508 C489 1.368 . S
C508 C502 1.368 . S
C508 C507 1.523 . S
C509 C493 1.429 . S
C509 C505 1.429 . S
C509 C510 1.523 . S
C510 C494 1.368 . S
C510 C506 1.368 . S
C510 C509 1.523 . S
H511 C486 0.950 . S
H512 C488 0.950 . S
H513 C489 0.949 . S
H514 C491 0.950 . S
H515 C493 0.950 . S
C516 C517 1.349 . S
C516 C518 1.327 . S
C516 H541 0.950 . S
C517 C516 1.349 . S
C517 C533 1.349 . S
C518 C516 1.327 . S
C518 C537 1.429 . S
C518 H542 0.950 . S
C519 C536 1.574 . S
C519 C538 1.368 . S
C519 H543 0.949 . S
H520 C524 0.949 . S
C521 C522 1.349 . S
C521 C523 1.327 . S
C521 H544 0.950 . S
C522 C521 1.349 . S
C522 C534 1.349 . S
C523 C521 1.327 . S
C523 C539 1.429 . S
C523 H545 0.950 . S
C524 H520 0.949 . S
C524 C532 1.574 . S
C524 C540 1.368 . S
H525 C533 0.950 . S
H526 C531 0.950 . S
H527 C532 0.949 . S
H528 C534 0.950 . S
H529 C535 0.950 . S
H530 C536 0.949 . S
C531 H526 0.950 . S
C531 C533 1.327 . S
C531 C537 1.429 . S
C532 C524 1.574 . S
C532 H527 0.949 . S
C532 C538 1.368 . S
C533 C517 1.349 . S
C533 H525 0.950 . S
C533 C531 1.327 . S
C534 C522 1.349 . S
C534 H528 0.950 . S
C534 C535 1.327 . S
C535 H529 0.950 . S
C535 C534 1.327 . S
C535 C539 1.429 . S
C536 C519 1.574 . S
C536 H530 0.949 . S
C536 C540 1.368 . S
C537 C518 1.429 . S
C537 C531 1.429 . S
C537 C538 1.523 . S
C538 C519 1.368 . S
C538 C532 1.368 . S
C538 C537 1.523 . S
C539 C523 1.429 . S
C539 C535 1.429 . S
C539 C540 1.523 . S
C540 C524 1.368 . S
C540 C536 1.368 . S
C540 C539 1.523 . S
H541 C516 0.950 . S
H542 C518 0.950 . S
H543 C519 0.949 . S
H544 C521 0.950 . S
H545 C523 0.950 . S
C546 C547 1.349 . S
C546 C548 1.327 . S
C546 H571 0.950 . S
C547 C546 1.349 . S
C547 C563 1.349 . S
C548 C546 1.327 . S
C548 C567 1.429 . S
C548 H572 0.950 . S
C549 C566 1.574 . S
C549 C568 1.368 . S
C549 H573 0.949 . S
H550 C554 0.949 . S
C551 C552 1.349 . S
C551 C553 1.327 . S
C551 H574 0.950 . S
C552 C551 1.349 . S
C552 C564 1.349 . S
C553 C551 1.327 . S
C553 C569 1.429 . S
C553 H575 0.950 . S
C554 H550 0.949 . S
C554 C562 1.574 . S
C554 C570 1.368 . S
H555 C563 0.950 . S
H556 C561 0.950 . S
H557 C562 0.949 . S
H558 C564 0.950 . S
H559 C565 0.950 . S
H560 C566 0.949 . S
C561 H556 0.950 . S
C561 C563 1.327 . S
C561 C567 1.429 . S
C562 C554 1.574 . S
C562 H557 0.949 . S
C562 C568 1.368 . S
C563 C547 1.349 . S
C563 H555 0.950 . S
C563 C561 1.327 . S
C564 C552 1.349 . S
C564 H558 0.950 . S
C564 C565 1.327 . S
C565 H559 0.950 . S
C565 C564 1.327 . S
C565 C569 1.429 . S
C566 C549 1.574 . S
C566 H560 0.949 . S
C566 C570 1.368 . S
C567 C548 1.429 . S
C567 C561 1.429 . S
C567 C568 1.523 . S
C568 C549 1.368 . S
C568 C562 1.368 . S
C568 C567 1.523 . S
C569 C553 1.429 . S
C569 C565 1.429 . S
C569 C570 1.523 . S
C570 C554 1.368 . S
C570 C566 1.368 . S
C570 C569 1.523 . S
H571 C546 0.950 . S
H572 C548 0.950 . S
H573 C549 0.949 . S
H574 C551 0.950 . S
H575 C553 0.950 . S
C576 C577 1.349 . S
C576 C578 1.327 . S
C576 H601 0.950 . S
C577 C576 1.349 . S
C577 C593 1.349 . S
C578 C576 1.327 . S
C578 C597 1.429 . S
C578 H602 0.950 . S
C579 C596 1.574 . S
C579 C598 1.368 . S
C579 H603 0.949 . S
H580 C584 0.949 . S
C581 C582 1.349 . S
C581 C583 1.327 . S
C581 H604 0.950 . S
C582 C581 1.349 . S
C582 C594 1.349 . S
C583 C581 1.327 . S
C583 C599 1.429 . S
C583 H605 0.950 . S
C584 H580 0.949 . S
C584 C592 1.574 . S
C584 C600 1.368 . S
H585 C593 0.950 . S
H586 C591 0.950 . S
H587 C592 0.949 . S
H588 C594 0.950 . S
H589 C595 0.950 . S
H590 C596 0.949 . S
C591 H586 0.950 . S
C591 C593 1.327 . S
C591 C597 1.429 . S
C592 C584 1.574 . S
C592 H587 0.949 . S
C592 C598 1.368 . S
C593 C577 1.349 . S
C593 H585 0.950 . S
C593 C591 1.327 . S
C594 C582 1.349 . S
C594 H588 0.950 . S
C594 C595 1.327 . S
C595 H589 0.950 . S
C595 C594 1.327 . S
C595 C599 1.429 . S
C596 C579 1.574 . S
C596 H590 0.949 . S
C596 C600 1.368 . S
C597 C578 1.429 . S
C597 C591 1.429 . S
C597 C598 1.523 . S
C598 C579 1.368 . S
C598 C592 1.368 . S
C598 C597 1.523 . S
C599 C583 1.429 . S
C599 C595 1.429 . S
C599 C600 1.523 . S
C600 C584 1.368 . S
C600 C596 1.368 . S
C600 C599 1.523 . S
H601 C576 0.950 . S
H602 C578 0.950 . S
H603 C579 0.949 . S
H604 C581 0.950 . S
H605 C583 0.950 . S
C606 C607 1.349 . S
C606 C608 1.327 . S
C606 H631 0.950 . S
C607 C606 1.349 . S
C607 C623 1.349 . S
C608 C606 1.327 . S
C608 C627 1.429 . S
C608 H632 0.950 . S
C609 C626 1.574 . S
C609 C628 1.368 . S
C609 H633 0.949 . S
H610 C614 0.949 . S
C611 C612 1.349 . S
C611 C613 1.327 . S
C611 H634 0.950 . S
C612 C611 1.349 . S
C612 C624 1.349 . S
C613 C611 1.327 . S
C613 C629 1.429 . S
C613 H635 0.950 . S
C614 H610 0.949 . S
C614 C622 1.574 . S
C614 C630 1.368 . S
H615 C623 0.950 . S
H616 C621 0.950 . S
H617 C622 0.949 . S
H618 C624 0.950 . S
H619 C625 0.950 . S
H620 C626 0.949 . S
C621 H616 0.950 . S
C621 C623 1.327 . S
C621 C627 1.429 . S
C622 C614 1.574 . S
C622 H617 0.949 . S
C622 C628 1.368 . S
C623 C607 1.349 . S
C623 H615 0.950 . S
C623 C621 1.327 . S
C624 C612 1.349 . S
C624 H618 0.950 . S
C624 C625 1.327 . S
C625 H619 0.950 . S
C625 C624 1.327 . S
C625 C629 1.429 . S
C626 C609 1.574 . S
C626 H620 0.949 . S
C626 C630 1.368 . S
C627 C608 1.429 . S
C627 C621 1.429 . S
C627 C628 1.523 . S
C628 C609 1.368 . S
C628 C622 1.368 . S
C628 C627 1.523 . S
C629 C613 1.429 . S
C629 C625 1.429 . S
C629 C630 1.523 . S
C630 C614 1.368 . S
C630 C626 1.368 . S
C630 C629 1.523 . S
H631 C606 0.950 . S
H632 C608 0.950 . S
H633 C609 0.949 . S
H634 C611 0.950 . S
H635 C613 0.950 . S
C636 C637 1.349 . S
C636 C638 1.327 . S
C636 H661 0.950 . S
C637 C636 1.349 . S
C637 C653 1.349 . S
C638 C636 1.327 . S
C638 C657 1.429 . S
C638 H662 0.950 . S
C639 C656 1.574 . S
C639 C658 1.368 . S
C639 H663 0.949 . S
H640 C644 0.949 . S
C641 C642 1.349 . S
C641 C643 1.327 . S
C641 H664 0.950 . S
C642 C641 1.349 . S
C642 C654 1.349 . S
C643 C641 1.327 . S
C643 C659 1.429 . S
C643 H665 0.950 . S
C644 H640 0.949 . S
C644 C652 1.574 . S
C644 C660 1.368 . S
H645 C653 0.950 . S
H646 C651 0.950 . S
H647 C652 0.949 . S
H648 C654 0.950 . S
H649 C655 0.950 . S
H650 C656 0.949 . S
C651 H646 0.950 . S
C651 C653 1.327 . S
C651 C657 1.429 . S
C652 C644 1.574 . S
C652 H647 0.949 . S
C652 C658 1.368 . S
C653 C637 1.349 . S
C653 H645 0.950 . S
C653 C651 1.327 . S
C654 C642 1.349 . S
C654 H648 0.950 . S
C654 C655 1.327 . S
C655 H649 0.950 . S
C655 C654 1.327 . S
C655 C659 1.429 . S
C656 C639 1.574 . S
C656 H650 0.949 . S
C656 C660 1.368 . S
C657 C638 1.429 . S
C657 C651 1.429 . S
C657 C658 1.523 . S
C658 C639 1.368 . S
C658 C652 1.368 . S
C658 C657 1.523 . S
C659 C643 1.429 . S
C659 C655 1.429 . S
C659 C660 1.523 . S
C660 C644 1.368 . S
C660 C656 1.368 . S
C660 C659 1.523 . S
H661 C636 0.950 . S
H662 C638 0.950 . S
H663 C639 0.949 . S
H664 C641 0.950 . S
H665 C643 0.950 . S
C666 C667 1.349 . S
C666 C668 1.327 . S
C666 H691 0.950 . S
C667 C666 1.349 . S
C667 C683 1.349 . S
C668 C666 1.327 . S
C668 C687 1.429 . S
C668 H692 0.950 . S
C669 C686 1.574 . S
C669 C688 1.368 . S
C669 H693 0.949 . S
H670 C674 0.949 . S
C671 C672 1.349 . S
C671 C673 1.327 . S
C671 H694 0.950 . S
C672 C671 1.349 . S
C672 C684 1.349 . S
C673 C671 1.327 . S
C673 C689 1.429 . S
C673 H695 0.950 . S
C674 H670 0.949 . S
C674 C682 1.574 . S
C674 C690 1.368 . S
H675 C683 0.950 . S
H676 C681 0.950 . S
H677 C682 0.949 . S
H678 C684 0.950 . S
H679 C685 0.950 . S
H680 C686 0.949 . S
C681 H676 0.950 . S
C681 C683 1.327 . S
C681 C687 1.429 . S
C682 C674 1.574 . S
C682 H677 0.949 . S
C682 C688 1.368 . S
C683 C667 1.349 . S
C683 H675 0.950 . S
C683 C681 1.327 . S
C684 C672 1.349 . S
C684 H678 0.950 . S
C684 C685 1.327 . S
C685 H679 0.950 . S
C685 C684 1.327 . S
C685 C689 1.429 . S
C686 C669 1.574 . S
C686 H680 0.949 . S
C686 C690 1.368 . S
C687 C668 1.429 . S
C687 C681 1.429 . S
C687 C688 1.523 . S
C688 C669 1.368 . S
C688 C682 1.368 . S
C688 C687 1.523 . S
C689 C673 1.429 . S
C689 C685 1.429 . S
C689 C690 1.523 . S
C690 C674 1.368 . S
C690 C686 1.368 . S
C690 C689 1.523 . S
H691 C666 0.950 . S
H692 C668 0.950 . S
H693 C669 0.949 . S
H694 C671 0.950 . S
H695 C673 0.950 . S
C696 C697 1.349 . S
C696 C698 1.327 . S
C696 H721 0.950 . S
C697 C696 1.349 . S
C697 C713 1.349 . S
C698 C696 1.327 . S
C698 C717 1.429 . S
C698 H722 0.950 . S
C699 C716 1.574 . S
C699 C718 1.368 . S
C699 H723 0.949 . S
H700 C704 0.949 . S
C701 C702 1.349 . S
C701 C703 1.327 . S
C701 H724 0.950 . S
C702 C701 1.349 . S
C702 C714 1.349 . S
C703 C701 1.327 . S
C703 C719 1.429 . S
C703 H725 0.950 . S
C704 H700 0.949 . S
C704 C712 1.574 . S
C704 C720 1.368 . S
H705 C713 0.950 . S
H706 C711 0.950 . S
H707 C712 0.949 . S
H708 C714 0.950 . S
H709 C715 0.950 . S
H710 C716 0.949 . S
C711 H706 0.950 . S
C711 C713 1.327 . S
C711 C717 1.429 . S
C712 C704 1.574 . S
C712 H707 0.949 . S
C712 C718 1.368 . S
C713 C697 1.349 . S
C713 H705 0.950 . S
C713 C711 1.327 . S
C714 C702 1.349 . S
C714 H708 0.950 . S
C714 C715 1.327 . S
C715 H709 0.950 . S
C715 C714 1.327 . S
C715 C719 1.429 . S
C716 C699 1.574 . S
C716 H710 0.949 . S
C716 C720 1.368 . S
C717 C698 1.429 . S
C717 C711 1.429 . S
C717 C718 1.523 . S
C718 C699 1.368 . S
C718 C712 1.368 . S
C718 C717 1.523 . S
C719 C703 1.429 . S
C719 C715 1.429 . S
C719 C720 1.523 . S
C720 C704 1.368 . S
C720 C716 1.368 . S
C720 C719 1.523 . S
H721 C696 0.950 . S
H722 C698 0.950 . S
H723 C699 0.949 . S
H724 C701 0.950 . S
H725 C703 0.950 . S
C726 C727 1.349 . S
C726 C728 1.327 . S
C726 H751 0.950 . S
C727 C726 1.349 . S
C727 C743 1.349 . S
C728 C726 1.327 . S
C728 C747 1.429 . S
C728 H752 0.950 . S
C729 C746 1.574 . S
C729 C748 1.368 . S
C729 H753 0.949 . S
H730 C734 0.949 . S
C731 C732 1.349 . S
C731 C733 1.327 . S
C731 H754 0.950 . S
C732 C731 1.349 . S
C732 C744 1.349 . S
C733 C731 1.327 . S
C733 C749 1.429 . S
C733 H755 0.950 . S
C734 H730 0.949 . S
C734 C742 1.574 . S
C734 C750 1.368 . S
H735 C743 0.950 . S
H736 C741 0.950 . S
H737 C742 0.949 . S
H738 C744 0.950 . S
H739 C745 0.950 . S
H740 C746 0.949 . S
C741 H736 0.950 . S
C741 C743 1.327 . S
C741 C747 1.429 . S
C742 C734 1.574 . S
C742 H737 0.949 . S
C742 C748 1.368 . S
C743 C727 1.349 . S
C743 H735 0.950 . S
C743 C741 1.327 . S
C744 C732 1.349 . S
C744 H738 0.950 . S
C744 C745 1.327 . S
C745 H739 0.950 . S
C745 C744 1.327 . S
C745 C749 1.429 . S
C746 C729 1.574 . S
C746 H740 0.949 . S
C746 C750 1.368 . S
C747 C728 1.429 . S
C747 C741 1.429 . S
C747 C748 1.523 . S
C748 C729 1.368 . S
C748 C742 1.368 . S
C748 C747 1.523 . S
C749 C733 1.429 . S
C749 C745 1.429 . S
C749 C750 1.523 . S
C750 C734 1.368 . S
C750 C746 1.368 . S
C750 C749 1.523 . S
H751 C726 0.950 . S
H752 C728 0.950 . S
H753 C729 0.949 . S
H754 C731 0.950 . S
H755 C733 0.950 . S
C756 C757 1.349 . S
C756 C758 1.327 . S
C756 H781 0.950 . S
C757 C756 1.349 . S
C757 C773 1.349 . S
C758 C756 1.327 . S
C758 C777 1.429 . S
C758 H782 0.950 . S
C759 C776 1.574 . S
C759 C778 1.368 . S
C759 H783 0.949 . S
H760 C764 0.949 . S
C761 C762 1.349 . S
C761 C763 1.327 . S
C761 H784 0.950 . S
C762 C761 1.349 . S
C762 C774 1.349 . S
C763 C761 1.327 . S
C763 C779 1.429 . S
C763 H785 0.950 . S
C764 H760 0.949 . S
C764 C772 1.574 . S
C764 C780 1.368 . S
H765 C773 0.950 . S
H766 C771 0.950 . S
H767 C772 0.949 . S
H768 C774 0.950 . S
H769 C775 0.950 . S
H770 C776 0.949 . S
C771 H766 0.950 . S
C771 C773 1.327 . S
C771 C777 1.429 . S
C772 C764 1.574 . S
C772 H767 0.949 . S
C772 C778 1.368 . S
C773 C757 1.349 . S
C773 H765 0.950 . S
C773 C771 1.327 . S
C774 C762 1.349 . S
C774 H768 0.950 . S
C774 C775 1.327 . S
C775 H769 0.950 . S
C775 C774 1.327 . S
C775 C779 1.429 . S
C776 C759 1.574 . S
C776 H770 0.949 . S
C776 C780 1.368 . S
C777 C758 1.429 . S
C777 C771 1.429 . S
C777 C778 1.523 . S
C778 C759 1.368 . S
C778 C772 1.368 . S
C778 C777 1.523 . S
C779 C763 1.429 . S
C779 C775 1.429 . S
C779 C780 1.523 . S
C780 C764 1.368 . S
C780 C776 1.368 . S
C780 C779 1.523 . S
H781 C756 0.950 . S
H782 C758 0.950 . S
H783 C759 0.949 . S
H784 C761 0.950 . S
H785 C763 0.950 . S
C786 C787 1.349 . S
C786 C788 1.327 . S
C786 H811 0.950 . S
C787 C786 1.349 . S
C787 C803 1.349 . S
C788 C786 1.327 . S
C788 C807 1.429 . S
C788 H812 0.950 . S
C789 C806 1.574 . S
C789 C808 1.368 . S
C789 H813 0.949 . S
H790 C794 0.949 . S
C791 C792 1.349 . S
C791 C793 1.327 . S
C791 H814 0.950 . S
C792 C791 1.349 . S
C792 C804 1.349 . S
C793 C791 1.327 . S
C793 C809 1.429 . S
C793 H815 0.950 . S
C794 H790 0.949 . S
C794 C802 1.574 . S
C794 C810 1.368 . S
H795 C803 0.950 . S
H796 C801 0.950 . S
H797 C802 0.949 . S
H798 C804 0.950 . S
H799 C805 0.950 . S
H800 C806 0.949 . S
C801 H796 0.950 . S
C801 C803 1.327 . S
C801 C807 1.429 . S
C802 C794 1.574 . S
C802 H797 0.949 . S
C802 C808 1.368 . S
C803 C787 1.349 . S
C803 H795 0.950 . S
C803 C801 1.327 . S
C804 C792 1.349 . S
C804 H798 0.950 . S
C804 C805 1.327 . S
C805 H799 0.950 . S
C805 C804 1.327 . S
C805 C809 1.429 . S
C806 C789 1.574 . S
C806 H800 0.949 . S
C806 C810 1.368 . S
C807 C788 1.429 . S
C807 C801 1.429 . S
C807 C808 1.523 . S
C808 C789 1.368 . S
C808 C802 1.368 . S
C808 C807 1.523 . S
C809 C793 1.429 . S
C809 C805 1.429 . S
C809 C810 1.523 . S
C810 C794 1.368 . S
C810 C806 1.368 . S
C810 C809 1.523 . S
H811 C786 0.950 . S
H812 C788 0.950 . S
H813 C789 0.949 . S
H814 C791 0.950 . S
H815 C793 0.950 . S
C816 C817 1.349 . S
C816 C818 1.327 . S
C816 H841 0.950 . S
C817 C816 1.349 . S
C817 C833 1.349 . S
C818 C816 1.327 . S
C818 C837 1.429 . S
C818 H842 0.950 . S
C819 C836 1.574 . S
C819 C838 1.368 . S
C819 H843 0.949 . S
H820 C824 0.949 . S
C821 C822 1.349 . S
C821 C823 1.327 . S
C821 H844 0.950 . S
C822 C821 1.349 . S
C822 C834 1.349 . S
C823 C821 1.327 . S
C823 C839 1.429 . S
C823 H845 0.950 . S
C824 H820 0.949 . S
C824 C832 1.574 . S
C824 C840 1.368 . S
H825 C833 0.950 . S
H826 C831 0.950 . S
H827 C832 0.949 . S
H828 C834 0.950 . S
H829 C835 0.950 . S
H830 C836 0.949 . S
C831 H826 0.950 . S
C831 C833 1.327 . S
C831 C837 1.429 . S
C832 C824 1.574 . S
C832 H827 0.949 . S
C832 C838 1.368 . S
C833 C817 1.349 . S
C833 H825 0.950 . S
C833 C831 1.327 . S
C834 C822 1.349 . S
C834 H828 0.950 . S
C834 C835 1.327 . S
C835 H829 0.950 . S
C835 C834 1.327 . S
C835 C839 1.429 . S
C836 C819 1.574 . S
C836 H830 0.949 . S
C836 C840 1.368 . S
C837 C818 1.429 . S
C837 C831 1.429 . S
C837 C838 1.523 . S
C838 C819 1.368 . S
C838 C832 1.368 . S
C838 C837 1.523 . S
C839 C823 1.429 . S
C839 C835 1.429 . S
C839 C840 1.523 . S
C840 C824 1.368 . S
C840 C836 1.368 . S
C840 C839 1.523 . S
H841 C816 0.950 . S
H842 C818 0.950 . S
H843 C819 0.949 . S
H844 C821 0.950 . S
H845 C823 0.950 . S
C846 C847 1.349 . S
C846 C848 1.327 . S
C846 H871 0.950 . S
C847 C846 1.349 . S
C847 C863 1.349 . S
C848 C846 1.327 . S
C848 C867 1.429 . S
C848 H872 0.950 . S
C849 C866 1.574 . S
C849 C868 1.368 . S
C849 H873 0.949 . S
H850 C854 0.949 . S
C851 C852 1.349 . S
C851 C853 1.327 . S
C851 H874 0.950 . S
C852 C851 1.349 . S
C852 C864 1.349 . S
C853 C851 1.327 . S
C853 C869 1.429 . S
C853 H875 0.950 . S
C854 H850 0.949 . S
C854 C862 1.574 . S
C854 C870 1.368 . S
H855 C863 0.950 . S
H856 C861 0.950 . S
H857 C862 0.949 . S
H858 C864 0.950 . S
H859 C865 0.950 . S
H860 C866 0.949 . S
C861 H856 0.950 . S
C861 C863 1.327 . S
C861 C867 1.429 . S
C862 C854 1.574 . S
C862 H857 0.949 . S
C862 C868 1.368 . S
C863 C847 1.349 . S
C863 H855 0.950 . S
C863 C861 1.327 . S
C864 C852 1.349 . S
C864 H858 0.950 . S
C864 C865 1.327 . S
C865 H859 0.950 . S
C865 C864 1.327 . S
C865 C869 1.429 . S
C866 C849 1.574 . S
C866 H860 0.949 . S
C866 C870 1.368 . S
C867 C848 1.429 . S
C867 C861 1.429 . S
C867 C868 1.523 . S
C868 C849 1.368 . S
C868 C862 1.368 . S
C868 C867 1.523 . S
C869 C853 1.429 . S
C869 C865 1.429 . S
C869 C870 1.523 . S
C870 C854 1.368 . S
C870 C866 1.368 . S
C870 C869 1.523 . S
H871 C846 0.950 . S
H872 C848 0.950 . S
H873 C849 0.949 . S
H874 C851 0.950 . S
H875 C853 0.950 . S
C876 C877 1.349 . S
C876 C878 1.327 . S
C876 H901 0.950 . S
C877 C876 1.349 . S
C877 C893 1.349 . S
C878 C876 1.327 . S
C878 C897 1.429 . S
C878 H902 0.950 . S
C879 C896 1.574 . S
C879 C898 1.368 . S
C879 H903 0.949 . S
H880 C884 0.949 . S
C881 C882 1.349 . S
C881 C883 1.327 . S
C881 H904 0.950 . S
C882 C881 1.349 . S
C882 C894 1.349 . S
C883 C881 1.327 . S
C883 C899 1.429 . S
C883 H905 0.950 . S
C884 H880 0.949 . S
C884 C892 1.574 . S
C884 C900 1.368 . S
H885 C893 0.950 . S
H886 C891 0.950 . S
H887 C892 0.949 . S
H888 C894 0.950 . S
H889 C895 0.950 . S
H890 C896 0.949 . S
C891 H886 0.950 . S
C891 C893 1.327 . S
C891 C897 1.429 . S
C892 C884 1.574 . S
C892 H887 0.949 . S
C892 C898 1.368 . S
C893 C877 1.349 . S
C893 H885 0.950 . S
C893 C891 1.327 . S
C894 C882 1.349 . S
C894 H888 0.950 . S
C894 C895 1.327 . S
C895 H889 0.950 . S
C895 C894 1.327 . S
C895 C899 1.429 . S
C896 C879 1.574 . S
C896 H890 0.949 . S
C896 C900 1.368 . S
C897 C878 1.429 . S
C897 C891 1.429 . S
C897 C898 1.523 . S
C898 C879 1.368 . S
C898 C892 1.368 . S
C898 C897 1.523 . S
C899 C883 1.429 . S
C899 C895 1.429 . S
C899 C900 1.523 . S
C900 C884 1.368 . S
C900 C896 1.368 . S
C900 C899 1.523 . S
H901 C876 0.950 . S
H902 C878 0.950 . S
H903 C879 0.949 . S
H904 C881 0.950 . S
H905 C883 0.950 . S
C906 C907 1.349 . S
C906 C908 1.327 . S
C906 H931 0.950 . S
C907 C906 1.349 . S
C907 C923 1.349 . S
C908 C906 1.327 . S
C908 C927 1.429 . S
C908 H932 0.950 . S
C909 C926 1.574 . S
C909 C928 1.368 . S
C909 H933 0.949 . S
H910 C914 0.949 . S
C911 C912 1.349 . S
C911 C913 1.327 . S
C911 H934 0.950 . S
C912 C911 1.349 . S
C912 C924 1.349 . S
C913 C911 1.327 . S
C913 C929 1.429 . S
C913 H935 0.950 . S
C914 H910 0.949 . S
C914 C922 1.574 . S
C914 C930 1.368 . S
H915 C923 0.950 . S
H916 C921 0.950 . S
H917 C922 0.949 . S
H918 C924 0.950 . S
H919 C925 0.950 . S
H920 C926 0.949 . S
C921 H916 0.950 . S
C921 C923 1.327 . S
C921 C927 1.429 . S
C922 C914 1.574 . S
C922 H917 0.949 . S
C922 C928 1.368 . S
C923 C907 1.349 . S
C923 H915 0.950 . S
C923 C921 1.327 . S
C924 C912 1.349 . S
C924 H918 0.950 . S
C924 C925 1.327 . S
C925 H919 0.950 . S
C925 C924 1.327 . S
C925 C929 1.429 . S
C926 C909 1.574 . S
C926 H920 0.949 . S
C926 C930 1.368 . S
C927 C908 1.429 . S
C927 C921 1.429 . S
C927 C928 1.523 . S
C928 C909 1.368 . S
C928 C922 1.368 . S
C928 C927 1.523 . S
C929 C913 1.429 . S
C929 C925 1.429 . S
C929 C930 1.523 . S
C930 C914 1.368 . S
C930 C926 1.368 . S
C930 C929 1.523 . S
H931 C906 0.950 . S
H932 C908 0.950 . S
H933 C909 0.949 . S
H934 C911 0.950 . S
H935 C913 0.950 . S
C936 C937 1.349 . S
C936 C938 1.327 . S
C936 H961 0.950 . S
C937 C936 1.349 . S
C937 C953 1.349 . S
C938 C936 1.327 . S
C938 C957 1.429 . S
C938 H962 0.950 . S
C939 C956 1.574 . S
C939 C958 1.368 . S
C939 H963 0.949 . S
H940 C944 0.949 . S
C941 C942 1.349 . S
C941 C943 1.327 . S
C941 H964 0.950 . S
C942 C941 1.349 . S
C942 C954 1.349 . S
C943 C941 1.327 . S
C943 C959 1.429 . S
C943 H965 0.950 . S
C944 H940 0.949 . S
C944 C952 1.574 . S
C944 C960 1.368 . S
H945 C953 0.950 . S
H946 C951 0.950 . S
H947 C952 0.949 . S
H948 C954 0.950 . S
H949 C955 0.950 . S
H950 C956 0.949 . S
C951 H946 0.950 . S
C951 C953 1.327 . S
C951 C957 1.429 . S
C952 C944 1.574 . S
C952 H947 0.949 . S
C952 C958 1.368 . S
C953 C937 1.349 . S
C953 H945 0.950 . S
C953 C951 1.327 . S
C954 C942 1.349 . S
C954 H948 0.950 . S
C954 C955 1.327 . S
C955 H949 0.950 . S
C955 C954 1.327 . S
C955 C959 1.429 . S
C956 C939 1.574 . S
C956 H950 0.949 . S
C956 C960 1.368 . S
C957 C938 1.429 . S
C957 C951 1.429 . S
C957 C958 1.523 . S
C958 C939 1.368 . S
C958 C952 1.368 . S
C958 C957 1.523 . S
C959 C943 1.429 . S
C959 C955 1.429 . S
C959 C960 1.523 . S
C960 C944 1.368 . S
C960 C956 1.368 . S
C960 C959 1.523 . S
H961 C936 0.950 . S
H962 C938 0.950 . S
H963 C939 0.949 . S
H964 C941 0.950 . S
H965 C943 0.950 . S
C966 C967 1.349 . S
C966 C968 1.327 . S
C966 H991 0.950 . S
C967 C966 1.349 . S
C967 C983 1.349 . S
C968 C966 1.327 . S
C968 C987 1.429 . S
C968 H992 0.950 . S
C969 C986 1.574 . S
C969 C988 1.368 . S
C969 H993 0.949 . S
H970 C974 0.949 . S
C971 C972 1.349 . S
C971 C973 1.327 . S
C971 H994 0.950 . S
C972 C971 1.349 . S
C972 C984 1.349 . S
C973 C971 1.327 . S
C973 C989 1.429 . S
C973 H995 0.950 . S
C974 H970 0.949 . S
C974 C982 1.574 . S
C974 C990 1.368 . S
H975 C983 0.950 . S
H976 C981 0.950 . S
H977 C982 0.949 . S
H978 C984 0.950 . S
H979 C985 0.950 . S
H980 C986 0.949 . S
C981 H976 0.950 . S
C981 C983 1.327 . S
C981 C987 1.429 . S
C982 C974 1.574 . S
C982 H977 0.949 . S
C982 C988 1.368 . S
C983 C967 1.349 . S
C983 H975 0.950 . S
C983 C981 1.327 . S
C984 C972 1.349 . S
C984 H978 0.950 . S
C984 C985 1.327 . S
C985 H979 0.950 . S
C985 C984 1.327 . S
C985 C989 1.429 . S
C986 C969 1.574 . S
C986 H980 0.949 . S
C986 C990 1.368 . S
C987 C968 1.429 . S
C987 C981 1.429 . S
C987 C988 1.523 . S
C988 C969 1.368 . S
C988 C982 1.368 . S
C988 C987 1.523 . S
C989 C973 1.429 . S
C989 C985 1.429 . S
C989 C990 1.523 . S
C990 C974 1.368 . S
C990 C986 1.368 . S
C990 C989 1.523 . S
H991 C966 0.950 . S
H992 C968 0.950 . S
H993 C969 0.949 . S
H994 C971 0.950 . S
H995 C973 0.950 . S
C996 C997 1.349 . S
C996 C998 1.327 . S
C996 H1021 0.950 . S
C997 C996 1.349 . S
C997 C1013 1.349 . S
C998 C996 1.327 . S
C998 C1017 1.429 . S
C998 H1022 0.950 . S
C999 C1016 1.574 . S
C999 C1018 1.368 . S
C999 H1023 0.949 . S
H1000 C1004 0.949 . S
C1001 C1002 1.349 . S
C1001 C1003 1.327 . S
C1001 H1024 0.950 . S
C1002 C1001 1.349 . S
C1002 C1014 1.349 . S
C1003 C1001 1.327 . S
C1003 C1019 1.429 . S
C1003 H1025 0.950 . S
C1004 H1000 0.949 . S
C1004 C1012 1.574 . S
C1004 C1020 1.368 . S
H1005 C1013 0.950 . S
H1006 C1011 0.950 . S
H1007 C1012 0.949 . S
H1008 C1014 0.950 . S
H1009 C1015 0.950 . S
H1010 C1016 0.949 . S
C1011 H1006 0.950 . S
C1011 C1013 1.327 . S
C1011 C1017 1.429 . S
C1012 C1004 1.574 . S
C1012 H1007 0.949 . S
C1012 C1018 1.368 . S
C1013 C997 1.349 . S
C1013 H1005 0.950 . S
C1013 C1011 1.327 . S
C1014 C1002 1.349 . S
C1014 H1008 0.950 . S
C1014 C1015 1.327 . S
C1015 H1009 0.950 . S
C1015 C1014 1.327 . S
C1015 C1019 1.429 . S
C1016 C999 1.574 . S
C1016 H1010 0.949 . S
C1016 C1020 1.368 . S
C1017 C998 1.429 . S
C1017 C1011 1.429 . S
C1017 C1018 1.523 . S
C1018 C999 1.368 . S
C1018 C1012 1.368 . S
C1018 C1017 1.523 . S
C1019 C1003 1.429 . S
C1019 C1015 1.429 . S
C1019 C1020 1.523 . S
C1020 C1004 1.368 . S
C1020 C1016 1.368 . S
C1020 C1019 1.523 . S
H1021 C996 0.950 . S
H1022 C998 0.950 . S
H1023 C999 0.949 . S
H1024 C1001 0.950 . S
H1025 C1003 0.950 . S
C1026 C1027 1.349 . S
C1026 C1028 1.327 . S
C1026 H1051 0.950 . S
C1027 C1026 1.349 . S
C1027 C1043 1.349 . S
C1028 C1026 1.327 . S
C1028 C1047 1.429 . S
C1028 H1052 0.950 . S
C1029 C1046 1.574 . S
C1029 C1048 1.368 . S
C1029 H1053 0.949 . S
H1030 C1034 0.949 . S
C1031 C1032 1.349 . S
C1031 C1033 1.327 . S
C1031 H1054 0.950 . S
C1032 C1031 1.349 . S
C1032 C1044 1.349 . S
C1033 C1031 1.327 . S
C1033 C1049 1.429 . S
C1033 H1055 0.950 . S
C1034 H1030 0.949 . S
C1034 C1042 1.574 . S
C1034 C1050 1.368 . S
H1035 C1043 0.950 . S
H1036 C1041 0.950 . S
H1037 C1042 0.949 . S
H1038 C1044 0.950 . S
H1039 C1045 0.950 . S
H1040 C1046 0.949 . S
C1041 H1036 0.950 . S
C1041 C1043 1.327 . S
C1041 C1047 1.429 . S
C1042 C1034 1.574 . S
C1042 H1037 0.949 . S
C1042 C1048 1.368 . S
C1043 C1027 1.349 . S
C1043 H1035 0.950 . S
C1043 C1041 1.327 . S
C1044 C1032 1.349 . S
C1044 H1038 0.950 . S
C1044 C1045 1.327 . S
C1045 H1039 0.950 . S
C1045 C1044 1.327 . S
C1045 C1049 1.429 . S
C1046 C1029 1.574 . S
C1046 H1040 0.949 . S
C1046 C1050 1.368 . S
C1047 C1028 1.429 . S
C1047 C1041 1.429 . S
C1047 C1048 1.523 . S
C1048 C1029 1.368 . S
C1048 C1042 1.368 . S
C1048 C1047 1.523 . S
C1049 C1033 1.429 . S
C1049 C1045 1.429 . S
C1049 C1050 1.523 . S
C1050 C1034 1.368 . S
C1050 C1046 1.368 . S
C1050 C1049 1.523 . S
H1051 C1026 0.950 . S
H1052 C1028 0.950 . S
H1053 C1029 0.949 . S
H1054 C1031 0.950 . S
H1055 C1033 0.950 . S
C1056 C1057 1.349 . S
C1056 C1058 1.328 1_565 S
C1056 H1081 0.950 1_565 S
C1057 C1056 1.349 . S
C1057 C1073 1.349 . S
C1058 C1056 1.328 1_545 S
C1058 C1077 1.431 1_545 S
C1058 H1082 0.946 . S
C1059 C1076 1.574 1_556 S
C1059 C1078 1.368 . S
C1059 H1083 0.949 . S
H1060 C1064 0.949 . S
C1061 C1062 1.349 . S
C1061 C1063 1.328 1_545 S
C1061 H1084 0.950 1_545 S
C1062 C1061 1.349 . S
C1062 C1074 1.349 . S
C1063 C1061 1.328 1_565 S
C1063 C1079 1.431 1_565 S
C1063 H1085 0.946 . S
C1064 H1060 0.949 . S
C1064 C1072 1.574 1_554 S
C1064 C1080 1.368 . S
H1065 C1073 0.950 . S
H1066 C1071 0.950 . S
H1067 C1072 0.949 . S
H1068 C1074 0.950 . S
H1069 C1075 0.950 . S
H1070 C1076 0.949 . S
C1071 H1066 0.950 . S
C1071 C1073 1.327 . S
C1071 C1077 1.429 . S
C1072 C1064 1.574 1_556 S
C1072 H1067 0.949 . S
C1072 C1078 1.368 1_545 S
C1073 C1057 1.349 . S
C1073 H1065 0.950 . S
C1073 C1071 1.327 . S
C1074 C1062 1.349 . S
C1074 H1068 0.950 . S
C1074 C1075 1.327 . S
C1075 H1069 0.950 . S
C1075 C1074 1.327 . S
C1075 C1079 1.429 . S
C1076 C1059 1.574 1_554 S
C1076 H1070 0.949 . S
C1076 C1080 1.368 1_565 S
C1077 C1058 1.431 1_565 S
C1077 C1071 1.429 . S
C1077 C1078 1.523 . S
C1078 C1059 1.368 . S
C1078 C1072 1.368 1_565 S
C1078 C1077 1.523 . S
C1079 C1063 1.431 1_545 S
C1079 C1075 1.429 . S
C1079 C1080 1.523 . S
C1080 C1064 1.368 . S
C1080 C1076 1.368 1_545 S
C1080 C1079 1.523 . S
H1081 C1056 0.950 1_545 S
H1082 C1058 0.946 . S
H1083 C1059 0.949 . S
H1084 C1061 0.950 1_565 S
H1085 C1063 0.946 . S
C1086 C1087 1.349 . S
C1086 C1088 1.327 . S
C1086 H1111 0.950 . S
C1087 C1086 1.349 . S
C1087 C1103 1.349 . S
C1088 C1086 1.327 . S
C1088 C1107 1.429 . S
C1088 H1112 0.950 . S
C1089 C1106 1.574 . S
C1089 C1108 1.368 . S
C1089 H1113 0.949 . S
H1090 C1094 0.949 . S
C1091 C1092 1.349 . S
C1091 C1093 1.327 . S
C1091 H1114 0.950 . S
C1092 C1091 1.349 . S
C1092 C1104 1.349 . S
C1093 C1091 1.327 . S
C1093 C1109 1.429 . S
C1093 H1115 0.950 . S
C1094 H1090 0.949 . S
C1094 C1102 1.574 . S
C1094 C1110 1.368 . S
H1095 C1103 0.950 . S
H1096 C1101 0.950 . S
H1097 C1102 0.949 . S
H1098 C1104 0.950 . S
H1099 C1105 0.950 . S
H1100 C1106 0.949 . S
C1101 H1096 0.950 . S
C1101 C1103 1.327 . S
C1101 C1107 1.429 . S
C1102 C1094 1.574 . S
C1102 H1097 0.949 . S
C1102 C1108 1.368 . S
C1103 C1087 1.349 . S
C1103 H1095 0.950 . S
C1103 C1101 1.327 . S
C1104 C1092 1.349 . S
C1104 H1098 0.950 . S
C1104 C1105 1.327 . S
C1105 H1099 0.950 . S
C1105 C1104 1.327 . S
C1105 C1109 1.429 . S
C1106 C1089 1.574 . S
C1106 H1100 0.949 . S
C1106 C1110 1.368 . S
C1107 C1088 1.429 . S
C1107 C1101 1.429 . S
C1107 C1108 1.523 . S
C1108 C1089 1.368 . S
C1108 C1102 1.368 . S
C1108 C1107 1.523 . S
C1109 C1093 1.429 . S
C1109 C1105 1.429 . S
C1109 C1110 1.523 . S
C1110 C1094 1.368 . S
C1110 C1106 1.368 . S
C1110 C1109 1.523 . S
H1111 C1086 0.950 . S
H1112 C1088 0.950 . S
H1113 C1089 0.949 . S
H1114 C1091 0.950 . S
H1115 C1093 0.950 . S
C1116 C1117 1.349 . S
C1116 C1118 1.327 . S
C1116 H1141 0.950 . S
C1117 C1116 1.349 . S
C1117 C1133 1.349 . S
C1118 C1116 1.327 . S
C1118 C1137 1.429 . S
C1118 H1142 0.950 . S
C1119 C1136 1.574 1_556 S
C1119 C1138 1.368 . S
C1119 H1143 0.949 . S
H1120 C1124 0.949 . S
C1121 C1122 1.349 . S
C1121 C1123 1.327 . S
C1121 H1144 0.950 . S
C1122 C1121 1.349 . S
C1122 C1134 1.349 . S
C1123 C1121 1.327 . S
C1123 C1139 1.429 . S
C1123 H1145 0.950 . S
C1124 H1120 0.949 . S
C1124 C1132 1.574 1_554 S
C1124 C1140 1.368 . S
H1125 C1133 0.950 . S
H1126 C1131 0.950 . S
H1127 C1132 0.949 . S
H1128 C1134 0.950 . S
H1129 C1135 0.950 . S
H1130 C1136 0.949 . S
C1131 H1126 0.950 . S
C1131 C1133 1.327 . S
C1131 C1137 1.429 . S
C1132 C1124 1.574 1_556 S
C1132 H1127 0.949 . S
C1132 C1138 1.368 1_655 S
C1133 C1117 1.349 . S
C1133 H1125 0.950 . S
C1133 C1131 1.327 . S
C1134 C1122 1.349 . S
C1134 H1128 0.950 . S
C1134 C1135 1.327 . S
C1135 H1129 0.950 . S
C1135 C1134 1.327 . S
C1135 C1139 1.429 . S
C1136 C1119 1.574 1_554 S
C1136 H1130 0.949 . S
C1136 C1140 1.368 1_455 S
C1137 C1118 1.429 . S
C1137 C1131 1.429 . S
C1137 C1138 1.523 . S
C1138 C1119 1.368 . S
C1138 C1132 1.368 1_455 S
C1138 C1137 1.523 . S
C1139 C1123 1.429 . S
C1139 C1135 1.429 . S
C1139 C1140 1.523 . S
C1140 C1124 1.368 . S
C1140 C1136 1.368 1_655 S
C1140 C1139 1.523 . S
H1141 C1116 0.950 . S
H1142 C1118 0.950 . S
H1143 C1119 0.949 . S
H1144 C1121 0.950 . S
H1145 C1123 0.950 . S
C1146 C1147 1.349 . S
C1146 C1148 1.327 . S
C1146 H1171 0.950 . S
C1147 C1146 1.349 . S
C1147 C1163 1.349 . S
C1148 C1146 1.327 . S
C1148 C1167 1.429 . S
C1148 H1172 0.950 . S
C1149 C1166 1.575 . S
C1149 C1168 1.370 1_565 S
C1149 H1173 0.949 . S
H1150 C1154 0.949 . S
C1151 C1152 1.349 . S
C1151 C1153 1.327 . S
C1151 H1174 0.950 . S
C1152 C1151 1.349 . S
C1152 C1164 1.349 . S
C1153 C1151 1.327 . S
C1153 C1169 1.429 . S
C1153 H1175 0.950 . S
C1154 H1150 0.949 . S
C1154 C1162 1.575 . S
C1154 C1170 1.370 1_545 S
H1155 C1163 0.950 . S
H1156 C1161 0.950 . S
H1157 C1162 0.949 . S
H1158 C1164 0.950 . S
H1159 C1165 0.950 . S
H1160 C1166 0.949 . S
C1161 H1156 0.950 . S
C1161 C1163 1.327 . S
C1161 C1167 1.429 . S
C1162 C1154 1.575 . S
C1162 H1157 0.949 . S
C1162 C1168 1.368 . S
C1163 C1147 1.349 . S
C1163 H1155 0.950 . S
C1163 C1161 1.327 . S
C1164 C1152 1.349 . S
C1164 H1158 0.950 . S
C1164 C1165 1.327 . S
C1165 H1159 0.950 . S
C1165 C1164 1.327 . S
C1165 C1169 1.429 . S
C1166 C1149 1.575 . S
C1166 H1160 0.949 . S
C1166 C1170 1.368 . S
C1167 C1148 1.429 . S
C1167 C1161 1.429 . S
C1167 C1168 1.523 . S
C1168 C1149 1.370 1_545 S
C1168 C1162 1.368 . S
C1168 C1167 1.523 . S
C1169 C1153 1.429 . S
C1169 C1165 1.429 . S
C1169 C1170 1.523 . S
C1170 C1154 1.370 1_565 S
C1170 C1166 1.368 . S
C1170 C1169 1.523 . S
H1171 C1146 0.950 . S
H1172 C1148 0.950 . S
H1173 C1149 0.949 . S
H1174 C1151 0.950 . S
H1175 C1153 0.950 . S
C1176 C1177 1.349 . S
C1176 C1178 1.327 . S
C1176 H1201 0.950 . S
C1177 C1176 1.349 . S
C1177 C1193 1.349 . S
C1178 C1176 1.327 . S
C1178 C1197 1.429 . S
C1178 H1202 0.950 . S
C1179 C1196 1.574 1_554 S
C1179 C1198 1.368 . S
C1179 H1203 0.949 . S
H1180 C1184 0.949 . S
C1181 C1182 1.349 . S
C1181 C1183 1.327 . S
C1181 H1204 0.950 . S
C1182 C1181 1.349 . S
C1182 C1194 1.349 . S
C1183 C1181 1.327 . S
C1183 C1199 1.429 . S
C1183 H1205 0.950 . S
C1184 H1180 0.949 . S
C1184 C1192 1.574 1_556 S
C1184 C1200 1.368 . S
H1185 C1193 0.950 . S
H1186 C1191 0.950 . S
H1187 C1192 0.949 . S
H1188 C1194 0.950 . S
H1189 C1195 0.950 . S
H1190 C1196 0.949 . S
C1191 H1186 0.950 . S
C1191 C1193 1.327 . S
C1191 C1197 1.429 . S
C1192 C1184 1.574 1_554 S
C1192 H1187 0.949 . S
C1192 C1198 1.368 . S
C1193 C1177 1.349 . S
C1193 H1185 0.950 . S
C1193 C1191 1.327 . S
C1194 C1182 1.349 . S
C1194 H1188 0.950 . S
C1194 C1195 1.327 . S
C1195 H1189 0.950 . S
C1195 C1194 1.327 . S
C1195 C1199 1.429 . S
C1196 C1179 1.574 1_556 S
C1196 H1190 0.949 . S
C1196 C1200 1.368 . S
C1197 C1178 1.429 . S
C1197 C1191 1.429 . S
C1197 C1198 1.523 . S
C1198 C1179 1.368 . S
C1198 C1192 1.368 . S
C1198 C1197 1.523 . S
C1199 C1183 1.429 . S
C1199 C1195 1.429 . S
C1199 C1200 1.523 . S
C1200 C1184 1.368 . S
C1200 C1196 1.368 . S
C1200 C1199 1.523 . S
H1201 C1176 0.950 . S
H1202 C1178 0.950 . S
H1203 C1179 0.949 . S
H1204 C1181 0.950 . S
H1205 C1183 0.950 . S
C1206 C1207 1.349 . S
C1206 C1208 1.327 . S
C1206 H1231 0.950 . S
C1207 C1206 1.349 . S
C1207 C1223 1.349 . S
C1208 C1206 1.327 . S
C1208 C1227 1.429 . S
C1208 H1232 0.950 . S
C1209 C1226 1.574 . S
C1209 C1228 1.368 1_655 S
C1209 H1233 0.949 . S
H1210 C1214 0.949 . S
C1211 C1212 1.349 . S
C1211 C1213 1.327 . S
C1211 H1234 0.950 . S
C1212 C1211 1.349 . S
C1212 C1224 1.349 . S
C1213 C1211 1.327 . S
C1213 C1229 1.429 . S
C1213 H1235 0.950 . S
C1214 H1210 0.949 . S
C1214 C1222 1.574 . S
C1214 C1230 1.368 1_455 S
H1215 C1223 0.950 1_655 S
H1216 C1221 0.950 . S
H1217 C1222 0.949 . S
H1218 C1224 0.950 1_455 S
H1219 C1225 0.950 . S
H1220 C1226 0.949 . S
C1221 H1216 0.950 . S
C1221 C1223 1.327 1_655 S
C1221 C1227 1.429 1_655 S
C1222 C1214 1.574 . S
C1222 H1217 0.949 . S
C1222 C1228 1.368 . S
C1223 C1207 1.349 . S
C1223 H1215 0.950 1_455 S
C1223 C1221 1.327 1_455 S
C1224 C1212 1.349 . S
C1224 H1218 0.950 1_655 S
C1224 C1225 1.327 1_655 S
C1225 H1219 0.950 . S
C1225 C1224 1.327 1_455 S
C1225 C1229 1.429 1_455 S
C1226 C1209 1.574 . S
C1226 H1220 0.949 . S
C1226 C1230 1.368 . S
C1227 C1208 1.429 . S
C1227 C1221 1.429 1_455 S
C1227 C1228 1.523 . S
C1228 C1209 1.368 1_455 S
C1228 C1222 1.368 . S
C1228 C1227 1.523 . S
C1229 C1213 1.429 . S
C1229 C1225 1.429 1_655 S
C1229 C1230 1.523 . S
C1230 C1214 1.368 1_655 S
C1230 C1226 1.368 . S
C1230 C1229 1.523 . S
H1231 C1206 0.950 . S
H1232 C1208 0.950 . S
H1233 C1209 0.949 . S
H1234 C1211 0.950 . S
H1235 C1213 0.950 . S
C1236 C1237 1.349 . S
C1236 C1238 1.326 . S
C1236 H1261 0.950 1_565 S
C1237 C1236 1.349 . S
C1237 C1253 1.349 . S
C1238 C1236 1.326 . S
C1238 C1257 1.425 . S
C1238 H1262 0.955 1_565 S
C1239 C1256 1.574 1_556 S
C1239 C1258 1.368 . S
C1239 H1263 0.949 . S
H1240 C1244 0.949 . S
C1241 C1242 1.349 . S
C1241 C1243 1.326 . S
C1241 H1264 0.950 1_545 S
C1242 C1241 1.349 . S
C1242 C1254 1.349 . S
C1243 C1241 1.326 . S
C1243 C1259 1.425 . S
C1243 H1265 0.955 1_545 S
C1244 H1240 0.949 . S
C1244 C1252 1.574 1_554 S
C1244 C1260 1.368 . S
H1245 C1253 0.950 . S
H1246 C1251 0.950 . S
H1247 C1252 0.949 . S
H1248 C1254 0.950 . S
H1249 C1255 0.950 . S
H1250 C1256 0.949 . S
C1251 H1246 0.950 . S
C1251 C1253 1.327 . S
C1251 C1257 1.429 . S
C1252 C1244 1.574 1_556 S
C1252 H1247 0.949 . S
C1252 C1258 1.368 1_545 S
C1253 C1237 1.349 . S
C1253 H1245 0.950 . S
C1253 C1251 1.327 . S
C1254 C1242 1.349 . S
C1254 H1248 0.950 . S
C1254 C1255 1.327 . S
C1255 H1249 0.950 . S
C1255 C1254 1.327 . S
C1255 C1259 1.429 . S
C1256 C1239 1.574 1_554 S
C1256 H1250 0.949 . S
C1256 C1260 1.368 1_565 S
C1257 C1238 1.425 . S
C1257 C1251 1.429 . S
C1257 C1258 1.523 . S
C1258 C1239 1.368 . S
C1258 C1252 1.368 1_565 S
C1258 C1257 1.523 . S
C1259 C1243 1.425 . S
C1259 C1255 1.429 . S
C1259 C1260 1.523 . S
C1260 C1244 1.368 . S
C1260 C1256 1.368 1_545 S
C1260 C1259 1.523 . S
H1261 C1236 0.950 1_545 S
H1262 C1238 0.955 1_545 S
H1263 C1239 0.949 . S
H1264 C1241 0.950 1_565 S
H1265 C1243 0.955 1_565 S
C1266 C1267 1.349 . S
C1266 C1268 1.327 . S
C1266 H1291 0.950 . S
C1267 C1266 1.349 . S
C1267 C1283 1.349 . S
C1268 C1266 1.327 . S
C1268 C1287 1.429 . S
C1268 H1292 0.950 . S
C1269 C1286 1.574 . S
C1269 C1288 1.368 . S
C1269 H1293 0.949 . S
H1270 C1274 0.949 . S
C1271 C1272 1.349 . S
C1271 C1273 1.327 . S
C1271 H1294 0.950 . S
C1272 C1271 1.349 . S
C1272 C1284 1.349 . S
C1273 C1271 1.327 . S
C1273 C1289 1.429 . S
C1273 H1295 0.950 . S
C1274 H1270 0.949 . S
C1274 C1282 1.574 . S
C1274 C1290 1.368 . S
H1275 C1283 0.950 . S
H1276 C1281 0.950 . S
H1277 C1282 0.949 . S
H1278 C1284 0.950 . S
H1279 C1285 0.950 . S
H1280 C1286 0.949 . S
C1281 H1276 0.950 . S
C1281 C1283 1.327 . S
C1281 C1287 1.429 . S
C1282 C1274 1.574 . S
C1282 H1277 0.949 . S
C1282 C1288 1.368 . S
C1283 C1267 1.349 . S
C1283 H1275 0.950 . S
C1283 C1281 1.327 . S
C1284 C1272 1.349 . S
C1284 H1278 0.950 . S
C1284 C1285 1.327 . S
C1285 H1279 0.950 . S
C1285 C1284 1.327 . S
C1285 C1289 1.429 . S
C1286 C1269 1.574 . S
C1286 H1280 0.949 . S
C1286 C1290 1.368 . S
C1287 C1268 1.429 . S
C1287 C1281 1.429 . S
C1287 C1288 1.523 . S
C1288 C1269 1.368 . S
C1288 C1282 1.368 . S
C1288 C1287 1.523 . S
C1289 C1273 1.429 . S
C1289 C1285 1.429 . S
C1289 C1290 1.523 . S
C1290 C1274 1.368 . S
C1290 C1286 1.368 . S
C1290 C1289 1.523 . S
H1291 C1266 0.950 . S
H1292 C1268 0.950 . S
H1293 C1269 0.949 . S
H1294 C1271 0.950 . S
H1295 C1273 0.950 . S
C1296 C1297 1.349 . S
C1296 C1298 1.327 . S
C1296 H1321 0.950 . S
C1297 C1296 1.349 . S
C1297 C1313 1.349 . S
C1298 C1296 1.327 . S
C1298 C1317 1.429 . S
C1298 H1322 0.950 . S
C1299 C1316 1.574 1_554 S
C1299 C1318 1.368 . S
C1299 H1323 0.949 . S
H1300 C1304 0.949 . S
C1301 C1302 1.349 . S
C1301 C1303 1.327 . S
C1301 H1324 0.950 . S
C1302 C1301 1.349 . S
C1302 C1314 1.349 . S
C1303 C1301 1.327 . S
C1303 C1319 1.429 . S
C1303 H1325 0.950 . S
C1304 H1300 0.949 . S
C1304 C1312 1.574 1_556 S
C1304 C1320 1.368 . S
H1305 C1313 0.950 . S
H1306 C1311 0.950 . S
H1307 C1312 0.949 . S
H1308 C1314 0.950 . S
H1309 C1315 0.950 . S
H1310 C1316 0.949 . S
C1311 H1306 0.950 . S
C1311 C1313 1.327 . S
C1311 C1317 1.429 . S
C1312 C1304 1.574 1_554 S
C1312 H1307 0.949 . S
C1312 C1318 1.368 1_455 S
C1313 C1297 1.349 . S
C1313 H1305 0.950 . S
C1313 C1311 1.327 . S
C1314 C1302 1.349 . S
C1314 H1308 0.950 . S
C1314 C1315 1.327 . S
C1315 H1309 0.950 . S
C1315 C1314 1.327 . S
C1315 C1319 1.429 . S
C1316 C1299 1.574 1_556 S
C1316 H1310 0.949 . S
C1316 C1320 1.368 1_655 S
C1317 C1298 1.429 . S
C1317 C1311 1.429 . S
C1317 C1318 1.523 . S
C1318 C1299 1.368 . S
C1318 C1312 1.368 1_655 S
C1318 C1317 1.523 . S
C1319 C1303 1.429 . S
C1319 C1315 1.429 . S
C1319 C1320 1.523 . S
C1320 C1304 1.368 . S
C1320 C1316 1.368 1_455 S
C1320 C1319 1.523 . S
H1321 C1296 0.950 . S
H1322 C1298 0.950 . S
H1323 C1299 0.949 . S
H1324 C1301 0.950 . S
H1325 C1303 0.950 . S
C1326 C1327 1.349 . S
C1326 C1328 1.327 . S
C1326 H1351 0.950 . S
C1327 C1326 1.349 . S
C1327 C1343 1.349 . S
C1328 C1326 1.327 . S
C1328 C1347 1.429 . S
C1328 H1352 0.950 . S
C1329 C1346 1.574 . S
C1329 C1348 1.368 1_545 S
C1329 H1353 0.949 . S
H1330 C1334 0.949 . S
C1331 C1332 1.349 . S
C1331 C1333 1.327 . S
C1331 H1354 0.950 . S
C1332 C1331 1.349 . S
C1332 C1344 1.349 . S
C1333 C1331 1.327 . S
C1333 C1349 1.429 . S
C1333 H1355 0.950 . S
C1334 H1330 0.949 . S
C1334 C1342 1.574 . S
C1334 C1350 1.368 1_565 S
H1335 C1343 0.950 1_545 S
H1336 C1341 0.941 1_545 S
H1337 C1342 0.949 . S
H1338 C1344 0.950 1_565 S
H1339 C1345 0.941 1_565 S
H1340 C1346 0.949 . S
C1341 H1336 0.941 1_565 S
C1341 C1343 1.333 . S
C1341 C1347 1.432 . S
C1342 C1334 1.574 . S
C1342 H1337 0.949 . S
C1342 C1348 1.368 . S
C1343 C1327 1.349 . S
C1343 H1335 0.950 1_565 S
C1343 C1341 1.333 . S
C1344 C1332 1.349 . S
C1344 H1338 0.950 1_545 S
C1344 C1345 1.333 . S
C1345 H1339 0.941 1_545 S
C1345 C1344 1.333 . S
C1345 C1349 1.432 . S
C1346 C1329 1.574 . S
C1346 H1340 0.949 . S
C1346 C1350 1.368 . S
C1347 C1328 1.429 . S
C1347 C1341 1.432 . S
C1347 C1348 1.523 . S
C1348 C1329 1.368 1_565 S
C1348 C1342 1.368 . S
C1348 C1347 1.523 . S
C1349 C1333 1.429 . S
C1349 C1345 1.432 . S
C1349 C1350 1.523 . S
C1350 C1334 1.368 1_545 S
C1350 C1346 1.368 . S
C1350 C1349 1.523 . S
H1351 C1326 0.950 . S
H1352 C1328 0.950 . S
H1353 C1329 0.949 . S
H1354 C1331 0.950 . S
H1355 C1333 0.950 . S
C1356 C1357 1.349 . S
C1356 C1358 1.327 . S
C1356 H1381 0.950 . S
C1357 C1356 1.349 . S
C1357 C1373 1.349 . S
C1358 C1356 1.327 . S
C1358 C1377 1.429 . S
C1358 H1382 0.950 . S
C1359 C1376 1.574 1_554 S
C1359 C1378 1.368 . S
C1359 H1383 0.949 . S
H1360 C1364 0.949 . S
C1361 C1362 1.349 . S
C1361 C1363 1.327 . S
C1361 H1384 0.950 . S
C1362 C1361 1.349 . S
C1362 C1374 1.349 . S
C1363 C1361 1.327 . S
C1363 C1379 1.429 . S
C1363 H1385 0.950 . S
C1364 H1360 0.949 . S
C1364 C1372 1.574 1_556 S
C1364 C1380 1.368 . S
H1365 C1373 0.950 . S
H1366 C1371 0.950 . S
H1367 C1372 0.949 . S
H1368 C1374 0.950 . S
H1369 C1375 0.950 . S
H1370 C1376 0.949 . S
C1371 H1366 0.950 . S
C1371 C1373 1.327 . S
C1371 C1377 1.429 . S
C1372 C1364 1.574 1_554 S
C1372 H1367 0.949 . S
C1372 C1378 1.368 . S
C1373 C1357 1.349 . S
C1373 H1365 0.950 . S
C1373 C1371 1.327 . S
C1374 C1362 1.349 . S
C1374 H1368 0.950 . S
C1374 C1375 1.327 . S
C1375 H1369 0.950 . S
C1375 C1374 1.327 . S
C1375 C1379 1.429 . S
C1376 C1359 1.574 1_556 S
C1376 H1370 0.949 . S
C1376 C1380 1.368 . S
C1377 C1358 1.429 . S
C1377 C1371 1.429 . S
C1377 C1378 1.523 . S
C1378 C1359 1.368 . S
C1378 C1372 1.368 . S
C1378 C1377 1.523 . S
C1379 C1363 1.429 . S
C1379 C1375 1.429 . S
C1379 C1380 1.523 . S
C1380 C1364 1.368 . S
C1380 C1376 1.368 . S
C1380 C1379 1.523 . S
H1381 C1356 0.950 . S
H1382 C1358 0.950 . S
H1383 C1359 0.949 . S
H1384 C1361 0.950 . S
H1385 C1363 0.950 . S
C1386 C1387 1.349 . S
C1386 C1388 1.327 . S
C1386 H1411 0.950 . S
C1387 C1386 1.349 . S
C1387 C1403 1.349 . S
C1388 C1386 1.327 . S
C1388 C1407 1.429 . S
C1388 H1412 0.950 . S
C1389 C1406 1.574 . S
C1389 C1408 1.368 1_655 S
C1389 H1413 0.949 . S
H1390 C1394 0.949 . S
C1391 C1392 1.349 . S
C1391 C1393 1.327 . S
C1391 H1414 0.950 . S
C1392 C1391 1.349 . S
C1392 C1404 1.349 . S
C1393 C1391 1.327 . S
C1393 C1409 1.429 . S
C1393 H1415 0.950 . S
C1394 H1390 0.949 . S
C1394 C1402 1.574 . S
C1394 C1410 1.368 1_455 S
H1395 C1403 0.950 1_655 S
H1396 C1401 0.950 . S
H1397 C1402 0.949 . S
H1398 C1404 0.950 1_455 S
H1399 C1405 0.950 . S
H1400 C1406 0.949 . S
C1401 H1396 0.950 . S
C1401 C1403 1.327 1_655 S
C1401 C1407 1.429 1_655 S
C1402 C1394 1.574 . S
C1402 H1397 0.949 . S
C1402 C1408 1.368 . S
C1403 C1387 1.349 . S
C1403 H1395 0.950 1_455 S
C1403 C1401 1.327 1_455 S
C1404 C1392 1.349 . S
C1404 H1398 0.950 1_655 S
C1404 C1405 1.327 1_655 S
C1405 H1399 0.950 . S
C1405 C1404 1.327 1_455 S
C1405 C1409 1.429 1_455 S
C1406 C1389 1.574 . S
C1406 H1400 0.949 . S
C1406 C1410 1.368 . S
C1407 C1388 1.429 . S
C1407 C1401 1.429 1_455 S
C1407 C1408 1.523 . S
C1408 C1389 1.368 1_455 S
C1408 C1402 1.368 . S
C1408 C1407 1.523 . S
C1409 C1393 1.429 . S
C1409 C1405 1.429 1_655 S
C1409 C1410 1.523 . S
C1410 C1394 1.368 1_655 S
C1410 C1406 1.368 . S
C1410 C1409 1.523 . S
H1411 C1386 0.950 . S
H1412 C1388 0.950 . S
H1413 C1389 0.949 . S
H1414 C1391 0.950 . S
H1415 C1393 0.950 . S
C1416 C1417 1.349 . S
C1416 C1418 1.327 . S
C1416 H1441 0.950 . S
C1417 C1416 1.349 . S
C1417 C1433 1.349 . S
C1418 C1416 1.327 . S
C1418 C1437 1.429 . S
C1418 H1442 0.950 . S
C1419 C1436 1.574 . S
C1419 C1438 1.368 . S
C1419 H1443 0.949 . S
H1420 C1424 0.949 . S
C1421 C1422 1.349 . S
C1421 C1423 1.327 . S
C1421 H1444 0.950 . S
C1422 C1421 1.349 . S
C1422 C1434 1.349 . S
C1423 C1421 1.327 . S
C1423 C1439 1.429 . S
C1423 H1445 0.950 . S
C1424 H1420 0.949 . S
C1424 C1432 1.574 . S
C1424 C1440 1.368 . S
H1425 C1433 0.950 . S
H1426 C1431 0.950 . S
H1427 C1432 0.949 . S
H1428 C1434 0.950 . S
H1429 C1435 0.950 . S
H1430 C1436 0.949 . S
C1431 H1426 0.950 . S
C1431 C1433 1.327 . S
C1431 C1437 1.429 . S
C1432 C1424 1.574 . S
C1432 H1427 0.949 . S
C1432 C1438 1.368 . S
C1433 C1417 1.349 . S
C1433 H1425 0.950 . S
C1433 C1431 1.327 . S
C1434 C1422 1.349 . S
C1434 H1428 0.950 . S
C1434 C1435 1.327 . S
C1435 H1429 0.950 . S
C1435 C1434 1.327 . S
C1435 C1439 1.429 . S
C1436 C1419 1.574 . S
C1436 H1430 0.949 . S
C1436 C1440 1.368 . S
C1437 C1418 1.429 . S
C1437 C1431 1.429 . S
C1437 C1438 1.523 . S
C1438 C1419 1.368 . S
C1438 C1432 1.368 . S
C1438 C1437 1.523 . S
C1439 C1423 1.429 . S
C1439 C1435 1.429 . S
C1439 C1440 1.523 . S
C1440 C1424 1.368 . S
C1440 C1436 1.368 . S
C1440 C1439 1.523 . S
H1441 C1416 0.950 . S
H1442 C1418 0.950 . S
H1443 C1419 0.949 . S
H1444 C1421 0.950 . S
H1445 C1423 0.950 . S
C1446 C1447 1.349 . S
C1446 C1448 1.327 . S
C1446 H1471 0.950 . S
C1447 C1446 1.349 . S
C1447 C1463 1.349 . S
C1448 C1446 1.327 . S
C1448 C1467 1.429 . S
C1448 H1472 0.950 . S
C1449 C1466 1.574 . S
C1449 C1468 1.368 . S
C1449 H1473 0.949 . S
H1450 C1454 0.949 . S
C1451 C1452 1.349 . S
C1451 C1453 1.327 . S
C1451 H1474 0.950 . S
C1452 C1451 1.349 . S
C1452 C1464 1.349 . S
C1453 C1451 1.327 . S
C1453 C1469 1.429 . S
C1453 H1475 0.950 . S
C1454 H1450 0.949 . S
C1454 C1462 1.574 . S
C1454 C1470 1.368 . S
H1455 C1463 0.950 . S
H1456 C1461 0.950 . S
H1457 C1462 0.949 . S
H1458 C1464 0.950 . S
H1459 C1465 0.950 . S
H1460 C1466 0.949 . S
C1461 H1456 0.950 . S
C1461 C1463 1.327 . S
C1461 C1467 1.429 . S
C1462 C1454 1.574 . S
C1462 H1457 0.949 . S
C1462 C1468 1.368 . S
C1463 C1447 1.349 . S
C1463 H1455 0.950 . S
C1463 C1461 1.327 . S
C1464 C1452 1.349 . S
C1464 H1458 0.950 . S
C1464 C1465 1.327 . S
C1465 H1459 0.950 . S
C1465 C1464 1.327 . S
C1465 C1469 1.429 . S
C1466 C1449 1.574 . S
C1466 H1460 0.949 . S
C1466 C1470 1.368 . S
C1467 C1448 1.429 . S
C1467 C1461 1.429 . S
C1467 C1468 1.523 . S
C1468 C1449 1.368 . S
C1468 C1462 1.368 . S
C1468 C1467 1.523 . S
C1469 C1453 1.429 . S
C1469 C1465 1.429 . S
C1469 C1470 1.523 . S
C1470 C1454 1.368 . S
C1470 C1466 1.368 . S
C1470 C1469 1.523 . S
H1471 C1446 0.950 . S
H1472 C1448 0.950 . S
H1473 C1449 0.949 . S
H1474 C1451 0.950 . S
H1475 C1453 0.950 . S
C1476 C1477 1.349 . S
C1476 C1478 1.327 . S
C1476 H1501 0.950 . S
C1477 C1476 1.349 . S
C1477 C1493 1.349 . S
C1478 C1476 1.327 . S
C1478 C1497 1.429 . S
C1478 H1502 0.950 . S
C1479 C1496 1.574 . S
C1479 C1498 1.368 . S
C1479 H1503 0.949 . S
H1480 C1484 0.949 . S
C1481 C1482 1.349 . S
C1481 C1483 1.327 . S
C1481 H1504 0.950 . S
C1482 C1481 1.349 . S
C1482 C1494 1.349 . S
C1483 C1481 1.327 . S
C1483 C1499 1.429 . S
C1483 H1505 0.950 . S
C1484 H1480 0.949 . S
C1484 C1492 1.574 . S
C1484 C1500 1.368 . S
H1485 C1493 0.950 . S
H1486 C1491 0.950 . S
H1487 C1492 0.949 . S
H1488 C1494 0.950 . S
H1489 C1495 0.950 . S
H1490 C1496 0.949 . S
C1491 H1486 0.950 . S
C1491 C1493 1.327 . S
C1491 C1497 1.429 . S
C1492 C1484 1.574 . S
C1492 H1487 0.949 . S
C1492 C1498 1.368 . S
C1493 C1477 1.349 . S
C1493 H1485 0.950 . S
C1493 C1491 1.327 . S
C1494 C1482 1.349 . S
C1494 H1488 0.950 . S
C1494 C1495 1.327 . S
C1495 H1489 0.950 . S
C1495 C1494 1.327 . S
C1495 C1499 1.429 . S
C1496 C1479 1.574 . S
C1496 H1490 0.949 . S
C1496 C1500 1.368 . S
C1497 C1478 1.429 . S
C1497 C1491 1.429 . S
C1497 C1498 1.523 . S
C1498 C1479 1.368 . S
C1498 C1492 1.368 . S
C1498 C1497 1.523 . S
C1499 C1483 1.429 . S
C1499 C1495 1.429 . S
C1499 C1500 1.523 . S
C1500 C1484 1.368 . S
C1500 C1496 1.368 . S
C1500 C1499 1.523 . S
H1501 C1476 0.950 . S
H1502 C1478 0.950 . S
H1503 C1479 0.949 . S
H1504 C1481 0.950 . S
H1505 C1483 0.950 . S
C1506 C1507 1.349 . S
C1506 C1508 1.327 . S
C1506 H1531 0.950 . S
C1507 C1506 1.349 . S
C1507 C1523 1.349 . S
C1508 C1506 1.327 . S
C1508 C1527 1.429 . S
C1508 H1532 0.950 . S
C1509 C1526 1.574 . S
C1509 C1528 1.368 . S
C1509 H1533 0.949 . S
H1510 C1514 0.949 . S
C1511 C1512 1.349 . S
C1511 C1513 1.327 . S
C1511 H1534 0.950 . S
C1512 C1511 1.349 . S
C1512 C1524 1.349 . S
C1513 C1511 1.327 . S
C1513 C1529 1.429 . S
C1513 H1535 0.950 . S
C1514 H1510 0.949 . S
C1514 C1522 1.574 . S
C1514 C1530 1.368 . S
H1515 C1523 0.950 . S
H1516 C1521 0.950 . S
H1517 C1522 0.949 . S
H1518 C1524 0.950 . S
H1519 C1525 0.950 . S
H1520 C1526 0.949 . S
C1521 H1516 0.950 . S
C1521 C1523 1.327 . S
C1521 C1527 1.429 . S
C1522 C1514 1.574 . S
C1522 H1517 0.949 . S
C1522 C1528 1.368 . S
C1523 C1507 1.349 . S
C1523 H1515 0.950 . S
C1523 C1521 1.327 . S
C1524 C1512 1.349 . S
C1524 H1518 0.950 . S
C1524 C1525 1.327 . S
C1525 H1519 0.950 . S
C1525 C1524 1.327 . S
C1525 C1529 1.429 . S
C1526 C1509 1.574 . S
C1526 H1520 0.949 . S
C1526 C1530 1.368 . S
C1527 C1508 1.429 . S
C1527 C1521 1.429 . S
C1527 C1528 1.523 . S
C1528 C1509 1.368 . S
C1528 C1522 1.368 . S
C1528 C1527 1.523 . S
C1529 C1513 1.429 . S
C1529 C1525 1.429 . S
C1529 C1530 1.523 . S
C1530 C1514 1.368 . S
C1530 C1526 1.368 . S
C1530 C1529 1.523 . S
H1531 C1506 0.950 . S
H1532 C1508 0.950 . S
H1533 C1509 0.949 . S
H1534 C1511 0.950 . S
H1535 C1513 0.950 . S
C1536 C1537 1.349 . S
C1536 C1538 1.327 . S
C1536 H1561 0.950 . S
C1537 C1536 1.349 . S
C1537 C1553 1.349 . S
C1538 C1536 1.327 . S
C1538 C1557 1.429 . S
C1538 H1562 0.950 . S
C1539 C1556 1.574 . S
C1539 C1558 1.368 . S
C1539 H1563 0.949 . S
H1540 C1544 0.949 . S
C1541 C1542 1.349 . S
C1541 C1543 1.327 . S
C1541 H1564 0.950 . S
C1542 C1541 1.349 . S
C1542 C1554 1.349 . S
C1543 C1541 1.327 . S
C1543 C1559 1.429 . S
C1543 H1565 0.950 . S
C1544 H1540 0.949 . S
C1544 C1552 1.574 . S
C1544 C1560 1.368 . S
H1545 C1553 0.950 . S
H1546 C1551 0.950 . S
H1547 C1552 0.949 . S
H1548 C1554 0.950 . S
H1549 C1555 0.950 . S
H1550 C1556 0.949 . S
C1551 H1546 0.950 . S
C1551 C1553 1.327 . S
C1551 C1557 1.429 . S
C1552 C1544 1.574 . S
C1552 H1547 0.949 . S
C1552 C1558 1.368 . S
C1553 C1537 1.349 . S
C1553 H1545 0.950 . S
C1553 C1551 1.327 . S
C1554 C1542 1.349 . S
C1554 H1548 0.950 . S
C1554 C1555 1.327 . S
C1555 H1549 0.950 . S
C1555 C1554 1.327 . S
C1555 C1559 1.429 . S
C1556 C1539 1.574 . S
C1556 H1550 0.949 . S
C1556 C1560 1.368 . S
C1557 C1538 1.429 . S
C1557 C1551 1.429 . S
C1557 C1558 1.523 . S
C1558 C1539 1.368 . S
C1558 C1552 1.368 . S
C1558 C1557 1.523 . S
C1559 C1543 1.429 . S
C1559 C1555 1.429 . S
C1559 C1560 1.523 . S
C1560 C1544 1.368 . S
C1560 C1556 1.368 . S
C1560 C1559 1.523 . S
H1561 C1536 0.950 . S
H1562 C1538 0.950 . S
H1563 C1539 0.949 . S
H1564 C1541 0.950 . S
H1565 C1543 0.950 . S
C1566 C1567 1.349 . S
C1566 C1568 1.327 . S
C1566 H1591 0.950 . S
C1567 C1566 1.349 . S
C1567 C1583 1.349 . S
C1568 C1566 1.327 . S
C1568 C1587 1.429 . S
C1568 H1592 0.950 . S
C1569 C1586 1.574 . S
C1569 C1588 1.368 . S
C1569 H1593 0.949 . S
H1570 C1574 0.949 . S
C1571 C1572 1.349 . S
C1571 C1573 1.327 . S
C1571 H1594 0.950 . S
C1572 C1571 1.349 . S
C1572 C1584 1.349 . S
C1573 C1571 1.327 . S
C1573 C1589 1.429 . S
C1573 H1595 0.950 . S
C1574 H1570 0.949 . S
C1574 C1582 1.574 . S
C1574 C1590 1.368 . S
H1575 C1583 0.950 . S
H1576 C1581 0.950 . S
H1577 C1582 0.949 . S
H1578 C1584 0.950 . S
H1579 C1585 0.950 . S
H1580 C1586 0.949 . S
C1581 H1576 0.950 . S
C1581 C1583 1.327 . S
C1581 C1587 1.429 . S
C1582 C1574 1.574 . S
C1582 H1577 0.949 . S
C1582 C1588 1.368 . S
C1583 C1567 1.349 . S
C1583 H1575 0.950 . S
C1583 C1581 1.327 . S
C1584 C1572 1.349 . S
C1584 H1578 0.950 . S
C1584 C1585 1.327 . S
C1585 H1579 0.950 . S
C1585 C1584 1.327 . S
C1585 C1589 1.429 . S
C1586 C1569 1.574 . S
C1586 H1580 0.949 . S
C1586 C1590 1.368 . S
C1587 C1568 1.429 . S
C1587 C1581 1.429 . S
C1587 C1588 1.523 . S
C1588 C1569 1.368 . S
C1588 C1582 1.368 . S
C1588 C1587 1.523 . S
C1589 C1573 1.429 . S
C1589 C1585 1.429 . S
C1589 C1590 1.523 . S
C1590 C1574 1.368 . S
C1590 C1586 1.368 . S
C1590 C1589 1.523 . S
H1591 C1566 0.950 . S
H1592 C1568 0.950 . S
H1593 C1569 0.949 . S
H1594 C1571 0.950 . S
H1595 C1573 0.950 . S
C1596 C1597 1.349 . S
C1596 C1598 1.327 . S
C1596 H1621 0.950 . S
C1597 C1596 1.349 . S
C1597 C1613 1.349 . S
C1598 C1596 1.327 . S
C1598 C1617 1.429 . S
C1598 H1622 0.950 . S
C1599 C1616 1.574 . S
C1599 C1618 1.368 . S
C1599 H1623 0.949 . S
H1600 C1604 0.949 . S
C1601 C1602 1.349 . S
C1601 C1603 1.327 . S
C1601 H1624 0.950 . S
C1602 C1601 1.349 . S
C1602 C1614 1.349 . S
C1603 C1601 1.327 . S
C1603 C1619 1.429 . S
C1603 H1625 0.950 . S
C1604 H1600 0.949 . S
C1604 C1612 1.574 . S
C1604 C1620 1.368 . S
H1605 C1613 0.950 . S
H1606 C1611 0.950 . S
H1607 C1612 0.949 . S
H1608 C1614 0.950 . S
H1609 C1615 0.950 . S
H1610 C1616 0.949 . S
C1611 H1606 0.950 . S
C1611 C1613 1.327 . S
C1611 C1617 1.429 . S
C1612 C1604 1.574 . S
C1612 H1607 0.949 . S
C1612 C1618 1.368 . S
C1613 C1597 1.349 . S
C1613 H1605 0.950 . S
C1613 C1611 1.327 . S
C1614 C1602 1.349 . S
C1614 H1608 0.950 . S
C1614 C1615 1.327 . S
C1615 H1609 0.950 . S
C1615 C1614 1.327 . S
C1615 C1619 1.429 . S
C1616 C1599 1.574 . S
C1616 H1610 0.949 . S
C1616 C1620 1.368 . S
C1617 C1598 1.429 . S
C1617 C1611 1.429 . S
C1617 C1618 1.523 . S
C1618 C1599 1.368 . S
C1618 C1612 1.368 . S
C1618 C1617 1.523 . S
C1619 C1603 1.429 . S
C1619 C1615 1.429 . S
C1619 C1620 1.523 . S
C1620 C1604 1.368 . S
C1620 C1616 1.368 . S
C1620 C1619 1.523 . S
H1621 C1596 0.950 . S
H1622 C1598 0.950 . S
H1623 C1599 0.949 . S
H1624 C1601 0.950 . S
H1625 C1603 0.950 . S
C1626 C1627 1.349 . S
C1626 C1628 1.327 . S
C1626 H1651 0.950 . S
C1627 C1626 1.349 . S
C1627 C1643 1.349 . S
C1628 C1626 1.327 . S
C1628 C1647 1.429 . S
C1628 H1652 0.950 . S
C1629 C1646 1.574 . S
C1629 C1648 1.368 . S
C1629 H1653 0.949 . S
H1630 C1634 0.949 . S
C1631 C1632 1.349 . S
C1631 C1633 1.327 . S
C1631 H1654 0.950 . S
C1632 C1631 1.349 . S
C1632 C1644 1.349 . S
C1633 C1631 1.327 . S
C1633 C1649 1.429 . S
C1633 H1655 0.950 . S
C1634 H1630 0.949 . S
C1634 C1642 1.574 . S
C1634 C1650 1.368 . S
H1635 C1643 0.950 . S
H1636 C1641 0.950 . S
H1637 C1642 0.949 . S
H1638 C1644 0.950 . S
H1639 C1645 0.950 . S
H1640 C1646 0.949 . S
C1641 H1636 0.950 . S
C1641 C1643 1.327 . S
C1641 C1647 1.429 . S
C1642 C1634 1.574 . S
C1642 H1637 0.949 . S
C1642 C1648 1.368 . S
C1643 C1627 1.349 . S
C1643 H1635 0.950 . S
C1643 C1641 1.327 . S
C1644 C1632 1.349 . S
C1644 H1638 0.950 . S
C1644 C1645 1.327 . S
C1645 H1639 0.950 . S
C1645 C1644 1.327 . S
C1645 C1649 1.429 . S
C1646 C1629 1.574 . S
C1646 H1640 0.949 . S
C1646 C1650 1.368 . S
C1647 C1628 1.429 . S
C1647 C1641 1.429 . S
C1647 C1648 1.523 . S
C1648 C1629 1.368 . S
C1648 C1642 1.368 . S
C1648 C1647 1.523 . S
C1649 C1633 1.429 . S
C1649 C1645 1.429 . S
C1649 C1650 1.523 . S
C1650 C1634 1.368 . S
C1650 C1646 1.368 . S
C1650 C1649 1.523 . S
H1651 C1626 0.950 . S
H1652 C1628 0.950 . S
H1653 C1629 0.949 . S
H1654 C1631 0.950 . S
H1655 C1633 0.950 . S
C1656 C1657 1.349 . S
C1656 C1658 1.327 . S
C1656 H1681 0.950 . S
C1657 C1656 1.349 . S
C1657 C1673 1.349 . S
C1658 C1656 1.327 . S
C1658 C1677 1.429 . S
C1658 H1682 0.950 . S
C1659 C1676 1.574 . S
C1659 C1678 1.368 . S
C1659 H1683 0.949 . S
H1660 C1664 0.949 . S
C1661 C1662 1.349 . S
C1661 C1663 1.327 . S
C1661 H1684 0.950 . S
C1662 C1661 1.349 . S
C1662 C1674 1.349 . S
C1663 C1661 1.327 . S
C1663 C1679 1.429 . S
C1663 H1685 0.950 . S
C1664 H1660 0.949 . S
C1664 C1672 1.574 . S
C1664 C1680 1.368 . S
H1665 C1673 0.950 . S
H1666 C1671 0.950 . S
H1667 C1672 0.949 . S
H1668 C1674 0.950 . S
H1669 C1675 0.950 . S
H1670 C1676 0.949 . S
C1671 H1666 0.950 . S
C1671 C1673 1.327 . S
C1671 C1677 1.429 . S
C1672 C1664 1.574 . S
C1672 H1667 0.949 . S
C1672 C1678 1.368 . S
C1673 C1657 1.349 . S
C1673 H1665 0.950 . S
C1673 C1671 1.327 . S
C1674 C1662 1.349 . S
C1674 H1668 0.950 . S
C1674 C1675 1.327 . S
C1675 H1669 0.950 . S
C1675 C1674 1.327 . S
C1675 C1679 1.429 . S
C1676 C1659 1.574 . S
C1676 H1670 0.949 . S
C1676 C1680 1.368 . S
C1677 C1658 1.429 . S
C1677 C1671 1.429 . S
C1677 C1678 1.523 . S
C1678 C1659 1.368 . S
C1678 C1672 1.368 . S
C1678 C1677 1.523 . S
C1679 C1663 1.429 . S
C1679 C1675 1.429 . S
C1679 C1680 1.523 . S
C1680 C1664 1.368 . S
C1680 C1676 1.368 . S
C1680 C1679 1.523 . S
H1681 C1656 0.950 . S
H1682 C1658 0.950 . S
H1683 C1659 0.949 . S
H1684 C1661 0.950 . S
H1685 C1663 0.950 . S
C1686 C1687 1.349 . S
C1686 C1688 1.327 . S
C1686 H1711 0.950 . S
C1687 C1686 1.349 . S
C1687 C1703 1.349 . S
C1688 C1686 1.327 . S
C1688 C1707 1.429 . S
C1688 H1712 0.950 . S
C1689 C1706 1.574 . S
C1689 C1708 1.368 . S
C1689 H1713 0.949 . S
H1690 C1694 0.949 . S
C1691 C1692 1.349 . S
C1691 C1693 1.327 . S
C1691 H1714 0.950 . S
C1692 C1691 1.349 . S
C1692 C1704 1.349 . S
C1693 C1691 1.327 . S
C1693 C1709 1.429 . S
C1693 H1715 0.950 . S
C1694 H1690 0.949 . S
C1694 C1702 1.574 . S
C1694 C1710 1.368 . S
H1695 C1703 0.950 . S
H1696 C1701 0.950 . S
H1697 C1702 0.949 . S
H1698 C1704 0.950 . S
H1699 C1705 0.950 . S
H1700 C1706 0.949 . S
C1701 H1696 0.950 . S
C1701 C1703 1.327 . S
C1701 C1707 1.429 . S
C1702 C1694 1.574 . S
C1702 H1697 0.949 . S
C1702 C1708 1.368 . S
C1703 C1687 1.349 . S
C1703 H1695 0.950 . S
C1703 C1701 1.327 . S
C1704 C1692 1.349 . S
C1704 H1698 0.950 . S
C1704 C1705 1.327 . S
C1705 H1699 0.950 . S
C1705 C1704 1.327 . S
C1705 C1709 1.429 . S
C1706 C1689 1.574 . S
C1706 H1700 0.949 . S
C1706 C1710 1.368 . S
C1707 C1688 1.429 . S
C1707 C1701 1.429 . S
C1707 C1708 1.523 . S
C1708 C1689 1.368 . S
C1708 C1702 1.368 . S
C1708 C1707 1.523 . S
C1709 C1693 1.429 . S
C1709 C1705 1.429 . S
C1709 C1710 1.523 . S
C1710 C1694 1.368 . S
C1710 C1706 1.368 . S
C1710 C1709 1.523 . S
H1711 C1686 0.950 . S
H1712 C1688 0.950 . S
H1713 C1689 0.949 . S
H1714 C1691 0.950 . S
H1715 C1693 0.950 . S
C1716 C1717 1.349 . S
C1716 C1718 1.327 . S
C1716 H1741 0.950 . S
C1717 C1716 1.349 . S
C1717 C1733 1.349 . S
C1718 C1716 1.327 . S
C1718 C1737 1.429 . S
C1718 H1742 0.950 . S
C1719 C1736 1.574 . S
C1719 C1738 1.368 . S
C1719 H1743 0.949 . S
H1720 C1724 0.949 . S
C1721 C1722 1.349 . S
C1721 C1723 1.327 . S
C1721 H1744 0.950 . S
C1722 C1721 1.349 . S
C1722 C1734 1.349 . S
C1723 C1721 1.327 . S
C1723 C1739 1.429 . S
C1723 H1745 0.950 . S
C1724 H1720 0.949 . S
C1724 C1732 1.574 . S
C1724 C1740 1.368 . S
H1725 C1733 0.950 . S
H1726 C1731 0.950 . S
H1727 C1732 0.949 . S
H1728 C1734 0.950 . S
H1729 C1735 0.950 . S
H1730 C1736 0.949 . S
C1731 H1726 0.950 . S
C1731 C1733 1.327 . S
C1731 C1737 1.429 . S
C1732 C1724 1.574 . S
C1732 H1727 0.949 . S
C1732 C1738 1.368 . S
C1733 C1717 1.349 . S
C1733 H1725 0.950 . S
C1733 C1731 1.327 . S
C1734 C1722 1.349 . S
C1734 H1728 0.950 . S
C1734 C1735 1.327 . S
C1735 H1729 0.950 . S
C1735 C1734 1.327 . S
C1735 C1739 1.429 . S
C1736 C1719 1.574 . S
C1736 H1730 0.949 . S
C1736 C1740 1.368 . S
C1737 C1718 1.429 . S
C1737 C1731 1.429 . S
C1737 C1738 1.523 . S
C1738 C1719 1.368 . S
C1738 C1732 1.368 . S
C1738 C1737 1.523 . S
C1739 C1723 1.429 . S
C1739 C1735 1.429 . S
C1739 C1740 1.523 . S
C1740 C1724 1.368 . S
C1740 C1736 1.368 . S
C1740 C1739 1.523 . S
H1741 C1716 0.950 . S
H1742 C1718 0.950 . S
H1743 C1719 0.949 . S
H1744 C1721 0.950 . S
H1745 C1723 0.950 . S
C1746 C1747 1.349 . S
C1746 C1748 1.327 . S
C1746 H1771 0.950 . S
C1747 C1746 1.349 . S
C1747 C1763 1.349 . S
C1748 C1746 1.327 . S
C1748 C1767 1.429 . S
C1748 H1772 0.950 . S
C1749 C1766 1.574 . S
C1749 C1768 1.368 . S
C1749 H1773 0.949 . S
H1750 C1754 0.949 . S
C1751 C1752 1.349 . S
C1751 C1753 1.327 . S
C1751 H1774 0.950 . S
C1752 C1751 1.349 . S
C1752 C1764 1.349 . S
C1753 C1751 1.327 . S
C1753 C1769 1.429 . S
C1753 H1775 0.950 . S
C1754 H1750 0.949 . S
C1754 C1762 1.574 . S
C1754 C1770 1.368 . S
H1755 C1763 0.950 . S
H1756 C1761 0.950 . S
H1757 C1762 0.949 . S
H1758 C1764 0.950 . S
H1759 C1765 0.950 . S
H1760 C1766 0.949 . S
C1761 H1756 0.950 . S
C1761 C1763 1.327 . S
C1761 C1767 1.429 . S
C1762 C1754 1.574 . S
C1762 H1757 0.949 . S
C1762 C1768 1.368 . S
C1763 C1747 1.349 . S
C1763 H1755 0.950 . S
C1763 C1761 1.327 . S
C1764 C1752 1.349 . S
C1764 H1758 0.950 . S
C1764 C1765 1.327 . S
C1765 H1759 0.950 . S
C1765 C1764 1.327 . S
C1765 C1769 1.429 . S
C1766 C1749 1.574 . S
C1766 H1760 0.949 . S
C1766 C1770 1.368 . S
C1767 C1748 1.429 . S
C1767 C1761 1.429 . S
C1767 C1768 1.523 . S
C1768 C1749 1.368 . S
C1768 C1762 1.368 . S
C1768 C1767 1.523 . S
C1769 C1753 1.429 . S
C1769 C1765 1.429 . S
C1769 C1770 1.523 . S
C1770 C1754 1.368 . S
C1770 C1766 1.368 . S
C1770 C1769 1.523 . S
H1771 C1746 0.950 . S
H1772 C1748 0.950 . S
H1773 C1749 0.949 . S
H1774 C1751 0.950 . S
H1775 C1753 0.950 . S
C337 C219 1.173 . S
C342 C9 1.173 . S
C367 C23 1.173 . S
C372 C233 1.173 . S
C397 C37 1.173 . S
C402 C247 1.173 . S
C427 C51 1.173 . S
C432 C177 1.173 . S
C457 C191 1.173 . S
C462 C65 1.173 . S
C487 C79 1.173 . S
C492 C205 1.173 . S
C517 C303 1.173 . S
C522 C93 1.173 . S
C547 C107 1.173 . S
C552 C317 1.173 . S
C577 C121 1.173 . S
C582 C331 1.173 . S
C607 C261 1.173 . S
C612 C135 1.173 . S
C637 C149 1.173 . S
C642 C275 1.173 . S
C667 C289 1.173 . S
C672 C163 1.173 . S
C697 C3 1.613 . S
C702 C325 1.613 . S
C727 C255 1.613 . S
C732 C17 1.613 . S
C757 C31 1.613 . S
C762 C269 1.613 . S
C787 C283 1.613 . S
C792 C45 1.613 . S
C817 C59 1.613 . S
C822 C297 1.613 . S
C847 C311 1.613 . S
C852 C73 1.613 . S
C877 C87 1.613 . S
C882 C185 1.613 . S
C907 C199 1.613 . S
C912 C101 1.613 . S
C937 C213 1.613 . S
C942 C115 1.613 . S
C967 C227 1.613 . S
C972 C129 1.613 . S
C997 C143 1.613 . S
C1002 C241 1.613 . S
C1027 C157 1.613 . S
C1032 C171 1.613 . S
C1057 C106 1.174 . S
C1062 C8 1.174 . S
C1087 C120 1.174 . S
C1092 C22 1.174 . S
C1117 C134 1.174 . S
C1122 C36 1.174 . S
C1147 C148 1.174 . S
C1152 C50 1.174 . S
C1177 C64 1.174 . S
C1182 C162 1.174 . S
C1207 C78 1.174 . S
C1212 C92 1.174 . S
C1237 C176 1.174 . S
C1242 C274 1.174 . S
C1267 C190 1.174 . S
C1272 C288 1.174 . S
C1297 C302 1.174 . S
C1302 C204 1.174 . S
C1327 C316 1.174 . S
C1332 C218 1.174 . S
C1357 C330 1.174 . S
C1362 C232 1.174 . S
C1387 C260 1.174 . S
C1392 C246 1.174 . S
C1417 C7 1.604 . S
C1422 C273 1.604 . S
C1447 C287 1.604 . S
C1452 C21 1.604 . S
C1477 C35 1.604 . S
C1482 C301 1.604 . S
C1507 C315 1.604 . S
C1512 C49 1.604 . S
C1537 C63 1.604 . S
C1542 C329 1.604 . S
C1567 C259 1.604 . S
C1572 C77 1.604 . S
C1597 C91 1.604 . S
C1602 C245 1.604 . S
C1627 C175 1.604 . S
C1632 C105 1.604 . S
C1657 C119 1.604 . S
C1662 C189 1.604 . S
C1687 C133 1.604 . S
C1692 C203 1.604 . S
C1717 C147 1.604 . S
C1722 C217 1.604 . S
C1747 C161 1.604 . S
C1752 C231 1.604 . S
