# Generated by pormake.
# Topology wfa, (4)-cn, num edge types: 1
# Building blocks:
#     Node 0, Type 0, BuildingBlock: MUDLON_clean_sbu_0, # of connection points: 4
#     Node 1, Type 0, BuildingBlock: MUDLON_clean_sbu_0, # of connection points: 4
#     Node 2, Type 0, BuildingBlock: MUDLON_clean_sbu_0, # of connection points: 4
#     Node 3, Type 0, BuildingBlock: MUDLON_clean_sbu_0, # of connection points: 4
#     Node 4, Type 0, BuildingBlock: MUDLON_clean_sbu_0, # of connection points: 4
#     Node 5, Type 0, BuildingBlock: MUDLON_clean_sbu_0, # of connection points: 4
#     Node 6, Type 0, BuildingBlock: MUDLON_clean_sbu_0, # of connection points: 4
#     Node 7, Type 0, BuildingBlock: MUDLON_clean_sbu_0, # of connection points: 4
#     Node 8, Type 0, BuildingBlock: MUDLON_clean_sbu_0, # of connection points: 4
#     Node 9, Type 0, BuildingBlock: MUDLON_clean_sbu_0, # of connection points: 4
#     Node 10, Type 0, BuildingBlock: MUDLON_clean_sbu_0, # of connection points: 4
#     Node 11, Type 0, BuildingBlock: MUDLON_clean_sbu_0, # of connection points: 4
#     Node 12, Type 0, BuildingBlock: MUDLON_clean_sbu_0, # of connection points: 4
#     Node 13, Type 0, BuildingBlock: MUDLON_clean_sbu_0, # of connection points: 4
#     Node 14, Type 0, BuildingBlock: MUDLON_clean_sbu_0, # of connection points: 4
#     Node 15, Type 0, BuildingBlock: MUDLON_clean_sbu_0, # of connection points: 4
#     Edge 16, Type (0, 0), BuildingBlock: TEMPAE_clean_linker_10, # of connection points: 2
#     Edge 17, Type (0, 0), BuildingBlock: TEMPAE_clean_linker_10, # of connection points: 2
#     Edge 18, Type (0, 0), BuildingBlock: TEMPAE_clean_linker_10, # of connection points: 2
#     Edge 19, Type (0, 0), BuildingBlock: TEMPAE_clean_linker_10, # of connection points: 2
#     Edge 20, Type (0, 0), BuildingBlock: TEMPAE_clean_linker_10, # of connection points: 2
#     Edge 21, Type (0, 0), BuildingBlock: TEMPAE_clean_linker_10, # of connection points: 2
#     Edge 22, Type (0, 0), BuildingBlock: TEMPAE_clean_linker_10, # of connection points: 2
#     Edge 23, Type (0, 0), BuildingBlock: TEMPAE_clean_linker_10, # of connection points: 2
#     Edge 24, Type (0, 0), BuildingBlock: TEMPAE_clean_linker_10, # of connection points: 2
#     Edge 25, Type (0, 0), BuildingBlock: TEMPAE_clean_linker_10, # of connection points: 2
#     Edge 26, Type (0, 0), BuildingBlock: TEMPAE_clean_linker_10, # of connection points: 2
#     Edge 27, Type (0, 0), BuildingBlock: TEMPAE_clean_linker_10, # of connection points: 2
#     Edge 28, Type (0, 0), BuildingBlock: TEMPAE_clean_linker_10, # of connection points: 2
#     Edge 29, Type (0, 0), BuildingBlock: TEMPAE_clean_linker_10, # of connection points: 2
#     Edge 30, Type (0, 0), BuildingBlock: TEMPAE_clean_linker_10, # of connection points: 2
#     Edge 31, Type (0, 0), BuildingBlock: TEMPAE_clean_linker_10, # of connection points: 2
#     Edge 32, Type (0, 0), BuildingBlock: TEMPAE_clean_linker_10, # of connection points: 2
#     Edge 33, Type (0, 0), BuildingBlock: TEMPAE_clean_linker_10, # of connection points: 2
#     Edge 34, Type (0, 0), BuildingBlock: TEMPAE_clean_linker_10, # of connection points: 2
#     Edge 35, Type (0, 0), BuildingBlock: TEMPAE_clean_linker_10, # of connection points: 2
#     Edge 36, Type (0, 0), BuildingBlock: TEMPAE_clean_linker_10, # of connection points: 2
#     Edge 37, Type (0, 0), BuildingBlock: TEMPAE_clean_linker_10, # of connection points: 2
#     Edge 38, Type (0, 0), BuildingBlock: TEMPAE_clean_linker_10, # of connection points: 2
#     Edge 39, Type (0, 0), BuildingBlock: TEMPAE_clean_linker_10, # of connection points: 2
#     Edge 40, Type (0, 0), BuildingBlock: TEMPAE_clean_linker_10, # of connection points: 2
#     Edge 41, Type (0, 0), BuildingBlock: TEMPAE_clean_linker_10, # of connection points: 2
#     Edge 42, Type (0, 0), BuildingBlock: TEMPAE_clean_linker_10, # of connection points: 2
#     Edge 43, Type (0, 0), BuildingBlock: TEMPAE_clean_linker_10, # of connection points: 2
#     Edge 44, Type (0, 0), BuildingBlock: TEMPAE_clean_linker_10, # of connection points: 2
#     Edge 45, Type (0, 0), BuildingBlock: TEMPAE_clean_linker_10, # of connection points: 2
#     Edge 46, Type (0, 0), BuildingBlock: TEMPAE_clean_linker_10, # of connection points: 2
#     Edge 47, Type (0, 0), BuildingBlock: TEMPAE_clean_linker_10, # of connection points: 2
# Relax obj value: 0.200
# Max RMSD: 0.234
# Mean RMSD: 0.228
data_MOF--net-wfa--node1-MUDLON_clean_sbu_0--edge1-TEMPAE_clean_linker_10
_symmetry_space_group_name_H-M    P1
_symmetry_Int_Tables_number       1
_symmetry_cell_setting            triclinic
loop_
_symmetry_equiv_pos_as_xyz
'x, y, z'
_cell_length_a     49.447947
_cell_length_b     49.541389
_cell_length_c     25.276437
_cell_angle_alpha  89.528853
_cell_angle_beta   89.602961
_cell_angle_gamma 89.541258
loop_
_atom_site_label
_atom_site_type_symbol
_atom_site_fract_x
_atom_site_fract_y
_atom_site_fract_z
_atom_type_partial_charge
Mg0 Mg 0.68284 0.01594 0.07014 0.0
C1 C 0.69879 0.01075 0.18276 0.0
O2 O 0.67707 0.02611 0.18624 0.0
C3 C 0.62891 0.99848 0.02488 0.0
O4 O 0.64247 1.00133 0.98032 0.0
C5 C 0.7151 0.02463 0.96836 0.0
O6 O 0.71056 0.0501 0.97975 0.0
O7 O 0.70547 1.00641 0.99858 0.0
O8 O 0.70512 1.00084 0.13803 0.0
O9 O 0.68143 0.05851 0.08857 0.0
C10 C 0.65877 0.07073 0.08911 0.0
O11 O 0.63836 0.05978 0.06439 0.0
O12 O 0.64109 1.00196 0.06844 0.0
Mg13 Mg 0.48762 0.66527 0.02605 0.0
C14 C 0.44622 0.64617 0.09646 0.0
O15 O 0.4672 0.63011 0.10317 0.0
C16 C 0.47239 0.69865 0.92755 0.0
O17 O 0.4476 0.69286 0.94254 0.0
C18 C 0.48374 0.60736 0.9954 0.0
O19 O 0.45972 0.61688 0.9829 0.0
O20 O 0.50118 0.62356 0.01367 0.0
O21 O 0.44722 0.66395 0.05996 0.0
O22 O 0.50617 0.68622 0.09146 0.0
C23 C 0.49682 0.71013 0.09554 0.0
O24 O 0.48161 0.71966 0.05713 0.0
O25 O 0.49213 0.68959 0.9545 0.0
Mg26 Mg 0.85691 0.50163 0.06089 0.0
C27 C 0.83903 0.50764 0.17282 0.0
O28 O 0.86026 0.49172 0.17793 0.0
C29 C 0.91245 0.51512 0.01675 0.0
O30 O 0.90056 0.50747 0.97308 0.0
C31 C 0.82136 0.4936 0.96459 0.0
O32 O 0.82039 0.46896 0.9841 0.0
O33 O 0.83551 0.51113 0.98796 0.0
O34 O 0.83366 0.51735 0.12729 0.0
O35 O 0.85725 0.45891 0.08052 0.0
C36 C 0.87963 0.44669 0.08753 0.0
O37 O 0.90199 0.45852 0.07178 0.0
O38 O 0.8987 0.51577 0.0595 0.0
Mg39 Mg 0.02781 0.8636 0.05065 0.0
C40 C 0.07888 0.84554 0.1038 0.0
O41 O 0.06598 0.82246 0.10293 0.0
C42 C 0.04061 0.82553 0.95845 0.0
O43 O 0.06387 0.82304 0.9829 0.0
C44 C 0.03012 0.92199 0.02022 0.0
O45 O 0.05411 0.91306 1.00564 0.0
O46 O 0.01359 0.90536 0.04113 0.0
O47 O 0.06923 0.86547 0.07781 0.0
O48 O 1.009 0.84159 0.11598 0.0
C49 C 0.01506 0.84835 0.1629 0.0
O50 O 0.02862 0.87073 0.16988 0.0
O51 O 0.02257 0.84117 0.97753 0.0
Mg52 Mg 0.18109 0.96769 0.4657 0.0
C53 C 0.19857 0.97871 0.35515 0.0
O54 O 0.17573 0.96588 0.34805 0.0
C55 C 0.12826 0.98442 0.5172 0.0
O56 O 0.14064 0.97362 0.55816 0.0
C57 C 0.22941 0.96658 0.53834 0.0
O58 O 0.24165 0.96163 0.4931 0.0
O59 O 0.20381 0.96947 0.53904 0.0
O60 O 0.20521 0.98493 0.402 0.0
O61 O 0.17544 0.927 0.43663 0.0
C62 C 0.15176 0.9174 0.43353 0.0
O63 O 0.13188 0.92977 0.45837 0.0
O64 O 0.14095 0.98606 0.47332 0.0
Mg65 Mg 0.5274 0.16529 0.44352 0.0
C66 C 0.58067 0.13843 0.41705 0.0
O67 O 0.56877 0.11795 0.44059 0.0
C68 C 0.53995 0.20266 0.53428 0.0
O69 O 0.56156 0.2069 0.50492 0.0
C70 C 0.51062 0.11132 0.48961 0.0
O71 O 0.51931 0.12306 0.53263 0.0
O72 O 0.51052 0.12467 0.44637 0.0
O73 O 0.56933 0.1615 0.41884 0.0
O74 O 0.51094 0.18993 0.37959 0.0
C75 C 0.51903 0.18421 0.33307 0.0
O76 O 0.53394 0.16241 0.32632 0.0
O77 O 0.52238 0.186 0.51853 0.0
Mg78 Mg 0.35294 0.55871 0.4808 0.0
C79 C 0.30599 0.54428 0.41578 0.0
O80 O 0.29544 0.56054 0.45133 0.0
C81 C 0.40829 0.54699 0.52902 0.0
O82 O 0.39553 0.55493 0.57198 0.0
C83 C 0.32557 0.5332 0.57549 0.0
O84 O 0.33299 0.51146 0.54953 0.0
O85 O 0.33154 0.55623 0.55628 0.0
O86 O 0.33074 0.53744 0.42016 0.0
O87 O 0.35243 0.59891 0.44651 0.0
C88 C 0.37388 0.61271 0.44256 0.0
O89 O 0.39513 0.6051 0.46999 0.0
O90 O 0.39524 0.54563 0.48589 0.0
Mg91 Mg 0.97734 0.365 0.46899 0.0
C92 C 0.9255 0.3521 0.41387 0.0
O93 O 0.93671 0.32799 0.41308 0.0
C94 C 0.96519 0.32471 0.55839 0.0
O95 O 0.94391 0.3201 0.5291 0.0
C96 C 0.98684 0.42041 0.51506 0.0
O97 O 0.97285 0.40947 0.55395 0.0
O98 O 0.9928 0.40609 0.47497 0.0
O99 O 0.936 0.37017 0.44255 0.0
O100 O 0.99494 0.34382 0.40162 0.0
C101 C 0.99727 0.31823 0.40126 0.0
O102 O 0.99288 0.30464 0.4453 0.0
O103 O 0.9821 0.34241 0.54309 0.0
Mg104 Mg 0.37068 0.97026 0.96507 0.0
C105 C 0.33089 0.97063 0.88323 0.0
O106 O 0.32383 0.9519 0.91764 0.0
C107 C 0.4269 0.969 1.00639 0.0
O108 O 0.41662 0.94657 0.02564 0.0
C109 C 0.33851 0.95896 0.06635 0.0
O110 O 0.35027 0.93519 0.06219 0.0
O111 O 0.34374 0.9771 0.03203 0.0
O112 O 0.35092 0.98558 0.89407 0.0
O113 O 0.37369 0.92832 0.94141 0.0
C114 C 0.39276 0.924 0.90852 0.0
O115 O 0.41066 0.94305 0.9003 0.0
O116 O 0.41169 0.98465 0.97937 0.0
Mg117 Mg 0.53886 0.35292 0.94316 0.0
C118 C 0.52755 0.30373 0.87813 0.0
O119 O 0.53832 0.29238 0.92026 0.0
C120 C 0.52093 0.40623 0.99034 0.0
O121 O 0.53198 0.39517 0.03246 0.0
C122 C 0.51515 0.31736 0.0285 0.0
O123 O 0.49444 0.31948 0.9964 0.0
O124 O 0.53679 0.3299 0.01691 0.0
O125 O 0.52359 0.32914 0.87784 0.0
O126 O 0.57984 0.36284 0.91934 0.0
C127 C 0.59464 0.34719 0.8917 0.0
O128 O 0.58677 0.32228 0.88405 0.0
O129 O 0.51934 0.39243 0.94825 0.0
Mg130 Mg 0.17184 0.55172 0.97884 0.0
C131 C 0.21935 0.52944 0.91747 0.0
O132 O 0.23189 0.53826 0.95954 0.0
C133 C 0.11308 0.55456 1.00489 0.0
O134 O 0.12085 0.57968 1.01033 0.0
C135 C 0.19926 0.53139 0.07807 0.0
O136 O 0.18854 0.50885 0.06137 0.0
O137 O 0.19538 0.55298 0.05144 0.0
O138 O 0.19363 0.53012 0.9169 0.0
O139 O 0.16599 0.5912 0.94255 0.0
C140 C 0.1835 0.60155 0.91154 0.0
O141 O 0.20755 0.59025 0.90796 0.0
O142 O 0.13082 0.53679 0.99293 0.0
Mg143 Mg 0.96699 0.17681 0.97656 0.0
C144 C 0.97401 0.22347 0.90548 0.0
O145 O 0.95654 0.23197 0.9412 0.0
C146 C 0.98243 0.11875 0.95282 0.0
O147 O 0.9706 0.12547 0.90816 0.0
C148 C 0.98953 0.21212 0.06168 0.0
O149 O 1.01081 0.20933 0.03071 0.0
O150 O 0.96769 0.20044 0.04907 0.0
O151 O 0.98446 0.20008 0.91146 0.0
O152 O 0.92648 0.17063 0.94701 0.0
C153 C 0.91375 0.14872 0.95429 0.0
O154 O 0.92304 0.13112 0.98896 0.0
O155 O 0.98513 0.1367 0.98815 0.0
Mg156 Mg 0.86835 0.01495 0.57299 0.0
C157 C 0.82566 0.98937 0.6406 0.0
O158 O 0.81236 0.99252 0.59613 0.0
C159 C 0.92741 0.02262 0.55 0.0
O160 O 0.91858 0.0477 0.55105 0.0
C161 C 0.83743 0.02833 0.47108 0.0
O162 O 0.84992 0.05154 0.47495 0.0
O163 O 0.84201 1.00995 0.50529 0.0
O164 O 0.85094 0.99389 0.64063 0.0
O165 O 0.86825 0.05557 0.6041 0.0
C166 C 0.84783 0.0644 0.6297 0.0
O167 O 0.82493 0.05125 0.62698 0.0
O168 O 0.9105 1.00364 0.55707 0.0
Mg169 Mg 0.47276 0.85203 0.52309 0.0
C170 C 0.49541 0.80753 0.59201 0.0
O171 O 0.49217 0.79412 0.54791 0.0
C172 C 0.46716 0.91196 0.50587 0.0
O173 O 0.44183 0.90433 0.50335 0.0
C174 C 0.46469 0.8113 0.43391 0.0
O175 O 0.44134 0.80767 0.45793 0.0
O176 O 0.48098 0.82863 0.45199 0.0
O177 O 0.49153 0.83294 0.59153 0.0
O178 O 0.43083 0.85323 0.54926 0.0
C179 C 0.42148 0.83413 0.57777 0.0
O180 O 0.43421 0.81077 0.57772 0.0
O181 O 0.48542 0.89405 0.51322 0.0
Mg182 Mg 0.66867 0.50994 0.56641 0.0
C183 C 0.71453 0.52862 0.63298 0.0
O184 O 0.72703 0.52382 0.58795 0.0
C185 C 0.60941 0.5068 0.54403 0.0
O186 O 0.61745 0.48171 0.53741 0.0
C187 C 0.69847 0.49685 0.46324 0.0
O188 O 0.68611 0.47365 0.46945 0.0
O189 O 0.69415 0.51548 0.49661 0.0
O190 O 0.68885 0.52713 0.63453 0.0
O191 O 0.66552 0.46795 0.5904 0.0
C192 C 0.68421 0.45594 0.61595 0.0
O193 O 0.70777 0.4677 0.62052 0.0
O194 O 0.627 0.52445 0.55553 0.0
Mg195 Mg 0.03861 0.67734 0.55069 0.0
C196 C 0.02184 0.72503 0.61584 0.0
O197 O 0.03178 0.7371 0.5736 0.0
C198 C 0.03877 0.61758 0.53326 0.0
O199 O 0.06468 0.62323 0.53254 0.0
C200 C 0.01578 0.71273 0.46417 0.0
O201 O 0.99387 0.70771 0.49216 0.0
O202 O 0.03806 0.70201 0.47857 0.0
O203 O 0.01962 0.69944 0.61563 0.0
O204 O 0.07902 0.67058 0.58174 0.0
C205 C 0.09187 0.68835 0.60725 0.0
O206 O 0.0827 0.71328 0.60764 0.0
O207 O 0.0218 0.63687 0.53906 0.0
C208 C 0.61142 0.15456 0.34435 0.0
C209 C 0.60186 0.13337 0.3765 0.0
C210 C 0.62596 0.14926 0.29759 0.0
C211 C 0.63069 0.1222 0.2825 0.0
C212 C 0.62342 0.10089 0.31737 0.0
C213 C 0.60926 0.10676 0.36417 0.0
C214 C 0.6344 0.17256 0.26255 0.0
C215 C 0.62844 0.0717 0.30313 0.0
C216 C 0.62676 0.09967 0.14051 0.0
C217 C 0.65332 0.09073 0.13124 0.0
C218 C 0.61953 0.11194 0.18839 0.0
C219 C 0.63945 0.11568 0.22764 0.0
C220 C 0.66683 0.10946 0.21616 0.0
C221 C 0.67346 0.09698 0.16806 0.0
C222 C 0.59008 0.11852 0.1988 0.0
C223 C 0.68884 0.11379 0.2562 0.0
H224 H 0.60617 0.17524 0.35394 0.0
H225 H 0.60233 0.09028 0.3891 0.0
H226 H 0.65469 0.16881 0.24493 0.0
H227 H 0.61983 0.17487 0.22961 0.0
H228 H 0.63479 0.19184 0.28466 0.0
H229 H 0.62347 0.0577 0.33628 0.0
H230 H 0.61586 0.06637 0.26859 0.0
H231 H 0.6499 0.0685 0.29166 0.0
H232 H 0.61113 0.09529 0.11204 0.0
H233 H 0.69415 0.09046 0.16109 0.0
H234 H 0.58779 0.13936 0.21397 0.0
H235 H 0.58202 0.10458 0.22958 0.0
H236 H 0.57755 0.11661 0.16272 0.0
H237 H 0.68498 0.13223 0.27979 0.0
H238 H 0.70899 0.11546 0.23674 0.0
H239 H 0.68957 0.0963 0.28387 0.0
C240 C 0.35667 0.63325 0.3583 0.0
C241 C 0.37741 0.63067 0.39581 0.0
C242 C 0.36226 0.64236 0.30665 0.0
C243 C 0.38914 0.64891 0.29245 0.0
C244 C 0.40919 0.65003 0.33215 0.0
C245 C 0.40306 0.64091 0.38349 0.0
C246 C 0.34006 0.64198 0.26605 0.0
C247 C 0.43801 0.65763 0.31909 0.0
C248 C 0.41997 0.62275 0.16598 0.0
C249 C 0.42526 0.64665 0.13812 0.0
C250 C 0.40632 0.62316 0.21458 0.0
C251 C 0.39784 0.64821 0.23603 0.0
C252 C 0.4011 0.67224 0.20595 0.0
C253 C 0.41471 0.67116 0.15688 0.0
C254 C 0.40306 0.59694 0.24491 0.0
C255 C 0.39143 0.69914 0.22666 0.0
H256 H 0.33656 0.62602 0.36775 0.0
H257 H 0.41906 0.63963 0.41251 0.0
H258 H 0.34213 0.65903 0.23762 0.0
H259 H 0.34142 0.62295 0.24332 0.0
H260 H 0.31973 0.64303 0.28496 0.0
H261 H 0.44965 0.66251 0.35517 0.0
H262 H 0.44819 0.64044 0.29903 0.0
H263 H 0.43865 0.67522 0.29172 0.0
H264 H 0.42799 0.60379 0.15119 0.0
H265 H 0.41886 0.68969 0.13529 0.0
H266 H 0.38177 0.59443 0.25797 0.0
H267 H 0.4158 0.59724 0.28088 0.0
H268 H 0.40903 0.57912 0.221 0.0
H269 H 0.36901 0.69973 0.22647 0.0
H270 H 0.39901 0.71629 0.2023 0.0
H271 H 0.3979 0.70196 0.26817 0.0
C272 C 0.90639 0.41471 0.14347 0.0
C273 C 0.88109 0.4241 0.12625 0.0
C274 C 0.90871 0.39867 0.18916 0.0
C275 C 0.8851 0.39148 0.21789 0.0
C276 C 0.85936 0.3985 0.19765 0.0
C277 C 0.85764 0.4149 0.15217 0.0
C278 C 0.93661 0.39139 0.20906 0.0
C279 C 0.83368 0.39039 0.22595 0.0
C280 C 0.90219 0.34257 0.32855 0.0
C281 C 0.90765 0.36056 0.36974 0.0
C282 C 0.89227 0.35199 0.2798 0.0
C283 C 0.88794 0.38 0.27213 0.0
C284 C 0.8906 0.39779 0.31538 0.0
C285 C 0.90027 0.3878 0.36379 0.0
C286 C 0.88877 0.3322 0.23533 0.0
C287 C 0.88583 0.42781 0.30915 0.0
H288 H 0.92461 0.42139 0.12337 0.0
H289 H 0.83794 0.42176 0.13883 0.0
H290 H 0.94046 0.40222 0.2465 0.0
H291 H 0.93806 0.36946 0.21776 0.0
H292 H 0.95275 0.39675 0.18013 0.0
H293 H 0.81598 0.39128 0.19914 0.0
H294 H 0.83546 0.36968 0.24271 0.0
H295 H 0.82975 0.4044 0.25919 0.0
H296 H 0.90744 0.32139 0.33292 0.0
H297 H 0.90398 0.40179 0.39565 0.0
H298 H 0.90715 0.33226 0.2099 0.0
H299 H 0.87126 0.33785 0.21024 0.0
H300 H 0.8859 0.31132 0.25063 0.0
H301 H 0.90172 0.43649 0.283 0.0
H302 H 0.88627 0.43846 0.34765 0.0
H303 H 0.86603 0.43188 0.29024 0.0
C304 C 0.10476 0.83031 0.1836 0.0
C305 C 0.0986 0.85063 0.14642 0.0
C306 C 0.1178 0.83645 0.23117 0.0
C307 C 0.12461 0.86355 0.24182 0.0
C308 C 0.12059 0.88367 0.20246 0.0
C309 C 0.10781 0.87692 0.15508 0.0
C310 C 0.12256 0.81432 0.27149 0.0
C311 C 0.12762 0.91284 0.21213 0.0
C312 C 0.11852 0.8921 0.37962 0.0
C313 C 0.14554 0.89793 0.39113 0.0
C314 C 0.11159 0.87933 0.33238 0.0
C315 C 0.13222 0.87178 0.29615 0.0
C316 C 0.15967 0.87527 0.30981 0.0
C317 C 0.16603 0.88848 0.35706 0.0
C318 C 0.08202 0.87596 0.31941 0.0
C319 C 0.18231 0.86688 0.27296 0.0
H320 H 0.098 0.80985 0.17708 0.0
H321 H 0.10341 0.89272 0.12641 0.0
H322 H 0.1433 0.81563 0.28774 0.0
H323 H 0.10818 0.81674 0.30503 0.0
H324 H 0.11976 0.79393 0.25446 0.0
H325 H 0.12529 0.92556 0.17603 0.0
H326 H 0.11421 0.92109 0.24358 0.0
H327 H 0.14874 0.91449 0.22612 0.0
H328 H 0.10255 0.89907 0.40586 0.0
H329 H 0.18701 0.89268 0.36576 0.0
H330 H 0.07796 0.85492 0.30736 0.0
H331 H 0.07662 0.88931 0.28555 0.0
H332 H 0.06859 0.88103 0.35336 0.0
H333 H 0.17774 0.84745 0.25356 0.0
H334 H 0.20184 0.86486 0.29414 0.0
H335 H 0.18475 0.8824 0.24144 0.0
C336 C 0.3661 0.8924 0.85293 0.0
C337 C 0.39122 0.90186 0.87002 0.0
C338 C 0.36417 0.87684 0.80682 0.0
C339 C 0.38794 0.87071 0.77756 0.0
C340 C 0.4135 0.87832 0.79741 0.0
C341 C 0.41478 0.89385 0.8433 0.0
C342 C 0.33655 0.86887 0.78767 0.0
C343 C 0.43946 0.87198 0.76791 0.0
C344 C 0.4004 0.8227 0.66534 0.0
C345 C 0.40372 0.84111 0.62326 0.0
C346 C 0.39175 0.83151 0.71539 0.0
C347 C 0.38663 0.85931 0.72338 0.0
C348 C 0.38627 0.87719 0.67936 0.0
C349 C 0.39471 0.86782 0.62967 0.0
C350 C 0.39101 0.8116 0.76082 0.0
C351 C 0.38016 0.9069 0.6858 0.0
H352 H 0.34777 0.89875 0.87325 0.0
H353 H 0.43421 0.90106 0.85666 0.0
H354 H 0.32895 0.88446 0.75963 0.0
H355 H 0.33723 0.84927 0.76674 0.0
H356 H 0.32186 0.86746 0.82102 0.0
H357 H 0.45768 0.87736 0.79091 0.0
H358 H 0.44064 0.85019 0.75838 0.0
H359 H 0.43988 0.88339 0.72994 0.0
H360 H 0.40672 0.80184 0.66062 0.0
H361 H 0.39655 0.88207 0.59709 0.0
H362 H 0.37417 0.81634 0.78854 0.0
H363 H 0.41019 0.81277 0.78319 0.0
H364 H 0.38873 0.79058 0.74664 0.0
H365 H 0.362 0.90997 0.71108 0.0
H366 H 0.37678 0.91719 0.64714 0.0
H367 H 0.39744 0.91671 0.70557 0.0
C368 C 0.65102 0.42216 0.64975 0.0
C369 C 0.67725 0.43269 0.65054 0.0
C370 C 0.64199 0.40459 0.68971 0.0
C371 C 0.65971 0.39712 0.73123 0.0
C372 C 0.68693 0.40575 0.72971 0.0
C373 C 0.69538 0.42353 0.6894 0.0
C374 C 0.61281 0.39577 0.68965 0.0
C375 C 0.70661 0.3978 0.77258 0.0
C376 C 0.62125 0.38669 0.85927 0.0
C377 C 0.61645 0.35883 0.8583 0.0
C378 C 0.63698 0.39918 0.81993 0.0
C379 C 0.6485 0.38338 0.779 0.0
C380 C 0.64593 0.35496 0.78068 0.0
C381 C 0.62979 0.34299 0.82023 0.0
C382 C 0.63932 0.42957 0.8198 0.0
C383 C 0.65855 0.33737 0.73861 0.0
H384 H 0.63696 0.42887 0.61957 0.0
H385 H 0.71577 0.4314 0.69017 0.0
H386 H 0.61148 0.37359 0.69511 0.0
H387 H 0.60185 0.40529 0.72321 0.0
H388 H 0.60234 0.40146 0.65239 0.0
H389 H 0.7279 0.4013 0.76014 0.0
H390 H 0.70246 0.41001 0.80837 0.0
H391 H 0.70427 0.37624 0.78379 0.0
H392 H 0.61132 0.39908 0.88886 0.0
H393 H 0.62648 0.3214 0.81949 0.0
H394 H 0.62777 0.43815 0.78603 0.0
H395 H 0.66071 0.43565 0.81457 0.0
H396 H 0.63137 0.43864 0.8569 0.0
H397 H 0.64646 0.33898 0.70189 0.0
H398 H 0.65928 0.31581 0.75103 0.0
H399 H 0.67937 0.34411 0.72897 0.0
C400 C 0.12363 0.69816 0.68143 0.0
C401 C 0.11275 0.67964 0.64574 0.0
C402 C 0.13913 0.68932 0.72472 0.0
C403 C 0.14362 0.66133 0.73265 0.0
C404 C 0.13431 0.64275 0.69471 0.0
C405 C 0.11915 0.65215 0.65158 0.0
C406 C 0.14914 0.70982 0.76369 0.0
C407 C 0.13866 0.61271 0.70161 0.0
C408 C 0.19253 0.62982 0.83074 0.0
C409 C 0.17479 0.62174 0.87139 0.0
C410 C 0.18307 0.64447 0.78668 0.0
C411 C 0.15521 0.65096 0.78311 0.0
C412 C 0.13764 0.64461 0.82583 0.0
C413 C 0.14767 0.63022 0.86956 0.0
C414 C 0.20255 0.65144 0.74251 0.0
C415 C 0.10778 0.65123 0.8237 0.0
H416 H 0.11896 0.71947 0.67712 0.0
H417 H 0.11104 0.63769 0.62404 0.0
H418 H 0.13611 0.70943 0.79958 0.0
H419 H 0.17009 0.70494 0.77622 0.0
H420 H 0.14867 0.73061 0.74691 0.0
H421 H 0.13195 0.60116 0.66664 0.0
H422 H 0.16033 0.60812 0.70863 0.0
H423 H 0.12717 0.6055 0.73679 0.0
H424 H 0.21358 0.62357 0.83196 0.0
H425 H 0.13384 0.6243 0.90095 0.0
H426 H 0.19917 0.67247 0.72847 0.0
H427 H 0.1991 0.6379 0.70851 0.0
H428 H 0.22395 0.64912 0.75496 0.0
H429 H 0.1046 0.67282 0.81344 0.0
H430 H 0.09732 0.64691 0.86184 0.0
H431 H 0.09817 0.63912 0.79233 0.0
C432 C 0.8885 0.11274 0.90735 0.0
C433 C 0.89423 0.14021 0.91357 0.0
C434 C 0.87611 0.10342 0.86127 0.0
C435 C 0.86898 0.12208 0.82083 0.0
C436 C 0.87213 0.15006 0.82934 0.0
C437 C 0.88487 0.1588 0.87554 0.0
C438 C 0.87296 0.07337 0.85391 0.0
C439 C 0.86406 0.17065 0.78792 0.0
C440 C 0.87805 0.09322 0.68369 0.0
C441 C 0.85192 0.08415 0.67261 0.0
C442 C 0.88356 0.10679 0.73077 0.0
C443 C 0.86231 0.11192 0.76729 0.0
C444 C 0.83549 0.10492 0.75431 0.0
C445 C 0.83062 0.09089 0.70725 0.0
C446 C 0.9125 0.11392 0.74303 0.0
C447 C 0.8122 0.11084 0.79143 0.0
H448 H 0.89549 0.09822 0.93661 0.0
H449 H 0.88889 0.18012 0.88035 0.0
H450 H 0.85239 0.06868 0.83964 0.0
H451 H 0.88759 0.06627 0.82346 0.0
H452 H 0.87663 0.06184 0.89108 0.0
H453 H 0.86246 0.19127 0.80466 0.0
H454 H 0.87952 0.17097 0.75589 0.0
H455 H 0.84444 0.16537 0.76982 0.0
H456 H 0.89463 0.0883 0.65708 0.0
H457 H 0.8103 0.08414 0.69892 0.0
H458 H 0.91952 0.1019 0.77763 0.0
H459 H 0.91395 0.13554 0.75361 0.0
H460 H 0.9264 0.10995 0.70921 0.0
H461 H 0.81289 0.09659 0.82547 0.0
H462 H 0.79236 0.10872 0.7716 0.0
H463 H 0.81368 0.13156 0.80743 0.0
C464 C 0.74059 0.03709 0.88582 0.0
C465 C 0.7318 0.01718 0.92163 0.0
C466 C 0.75649 0.03036 0.84154 0.0
C467 C 0.7639 1.00306 0.83293 0.0
C468 C 0.75533 0.98289 0.86914 0.0
C469 C 0.73929 0.99017 0.91293 0.0
C470 C 0.76507 0.05244 0.80358 0.0
C471 C 0.76306 0.95363 0.86154 0.0
C472 C 0.78219 0.98578 0.69106 0.0
C473 C 0.81046 0.988 0.69135 0.0
C474 C 0.76685 0.98962 0.73735 0.0
C475 C 0.78009 0.9957 0.78521 0.0
C476 C 0.80871 0.9965 0.78645 0.0
C477 C 0.82356 0.9926 0.73951 0.0
C478 C 0.73638 0.98864 0.73434 0.0
C479 C 0.82358 1.00287 0.83675 0.0
H480 H 0.73491 0.058 0.89216 0.0
H481 H 0.73273 0.97465 0.94051 0.0
H482 H 0.78738 0.05221 0.79853 0.0
H483 H 0.75618 0.04887 0.76409 0.0
H484 H 0.75866 0.07279 0.81716 0.0
H485 H 0.75532 0.94047 0.89398 0.0
H486 H 0.75496 0.94632 0.82348 0.0
H487 H 0.7854 0.95149 0.85953 0.0
H488 H 0.77187 0.98218 0.65412 0.0
H489 H 0.84538 0.99445 0.74018 0.0
H490 H 0.72781 1.00905 0.7417 0.0
H491 H 0.72819 0.97496 0.76537 0.0
H492 H 0.72928 0.98171 0.69516 0.0
H493 H 0.81932 0.02406 0.8482 0.0
H494 H 0.84582 1.00026 0.8323 0.0
H495 H 0.81643 0.98972 0.86963 0.0
C496 C 0.49988 0.76444 0.64356 0.0
C497 C 0.49731 0.79267 0.64308 0.0
C498 C 0.49748 0.74957 0.69084 0.0
C499 C 0.49247 0.76322 0.73895 0.0
C500 C 0.49106 0.79179 0.73915 0.0
C501 C 0.49346 0.80617 0.69122 0.0
C502 C 0.49918 0.71914 0.68894 0.0
C503 C 0.48569 0.80713 0.78955 0.0
C504 C 0.45599 0.72378 0.84725 0.0
C505 C 0.47744 0.71566 0.87991 0.0
C506 C 0.46058 0.73957 0.80169 0.0
C507 C 0.48726 0.74748 0.78842 0.0
C508 C 0.50895 0.7397 0.8216 0.0
C509 C 0.5038 0.72384 0.86683 0.0
C510 C 0.43691 0.74729 0.76711 0.0
C511 C 0.53762 0.74801 0.80912 0.0
H512 H 0.50288 0.75382 0.60664 0.0
H513 H 0.49124 0.82796 0.69132 0.0
H514 H 0.51429 0.71149 0.71775 0.0
H515 H 0.47935 0.71044 0.70034 0.0
H516 H 0.50479 0.71168 0.64898 0.0
H517 H 0.48902 0.82914 0.7844 0.0
H518 H 0.4644 0.80401 0.80226 0.0
H519 H 0.49886 0.79954 0.82186 0.0
H520 H 0.43556 0.71757 0.85694 0.0
H521 H 0.52051 0.71783 0.89195 0.0
H522 H 0.43849 0.73639 0.72903 0.0
H523 H 0.43721 0.76919 0.75779 0.0
H524 H 0.41719 0.74233 0.78596 0.0
H525 H 0.544 0.73964 0.77037 0.0
H526 H 0.55213 0.74098 0.83973 0.0
H527 H 0.53879 0.77032 0.8058 0.0
C528 C 0.7924 0.48104 0.88779 0.0
C529 C 0.8056 0.501 0.91675 0.0
C530 C 0.77733 0.48769 0.84256 0.0
C531 C 0.7752 0.51501 0.82602 0.0
C532 C 0.78822 0.53531 0.85536 0.0
C533 C 0.80337 0.52805 0.9002 0.0
C534 C 0.76391 0.4654 0.81212 0.0
C535 C 0.78618 0.56467 0.83929 0.0
C536 C 0.75852 0.52601 0.68101 0.0
C537 C 0.73031 0.52944 0.68271 0.0
C538 C 0.77347 0.5222 0.72749 0.0
C539 C 0.75999 0.52209 0.77706 0.0
C540 C 0.73175 0.52703 0.77932 0.0
C541 C 0.71722 0.53056 0.7321 0.0
C542 C 0.80354 0.51691 0.7233 0.0
C543 C 0.71668 0.52742 0.83146 0.0
H544 H 0.79399 0.4601 0.90022 0.0
H545 H 0.81335 0.54364 0.92248 0.0
H546 H 0.7418 0.46918 0.80995 0.0
H547 H 0.77179 0.46508 0.77091 0.0
H548 H 0.76736 0.4452 0.83037 0.0
H549 H 0.79677 0.57809 0.86726 0.0
H550 H 0.79505 0.5676 0.79924 0.0
H551 H 0.76464 0.57098 0.8372 0.0
H552 H 0.76888 0.52516 0.64313 0.0
H553 H 0.69546 0.53324 0.73388 0.0
H554 H 0.80809 0.496 0.73678 0.0
H555 H 0.81471 0.53076 0.74941 0.0
H556 H 0.81126 0.51942 0.68219 0.0
H557 H 0.71671 0.50684 0.84911 0.0
H558 H 0.69537 0.53426 0.82692 0.0
H559 H 0.7269 0.5409 0.85975 0.0
C560 C 0.05581 0.79396 0.88691 0.0
C561 C 0.03543 0.8102 0.9093 0.0
C562 C 0.05139 0.77969 0.84 0.0
C563 C 0.02592 0.78158 0.81485 0.0
C564 C 1.00511 0.79755 0.83768 0.0
C565 C 1.01013 0.81172 0.88452 0.0
C566 C 0.07416 0.76294 0.81684 0.0
C567 C 0.97764 0.79993 0.81226 0.0
C568 C 0.02641 0.76757 0.66739 0.0
C569 C 0.01897 0.7403 0.66592 0.0
C570 C 0.02796 0.78143 0.71544 0.0
C571 C 0.02163 0.76783 0.76335 0.0
C572 C 0.01274 0.74073 0.762 0.0
C573 C 0.01162 0.72724 0.71331 0.0
C574 C 0.03762 0.81028 0.71509 0.0
C575 C 1.00546 0.72565 0.81217 0.0
H576 H 0.07539 0.79257 0.90577 0.0
H577 H 0.99419 0.82409 0.9016 0.0
H578 H 0.06759 0.74175 0.81194 0.0
H579 H 0.07962 0.77081 0.77697 0.0
H580 H 0.09253 0.76301 0.84191 0.0
H581 H 0.96321 0.81206 0.83634 0.0
H582 H 0.97962 0.80955 0.77265 0.0
H583 H 0.96902 0.77958 0.80634 0.0
H584 H 0.0321 0.7779 0.63108 0.0
H585 H 1.0058 0.7062 0.71263 0.0
H586 H 0.05729 0.81146 0.7358 0.0
H587 H 0.02308 0.82338 0.73673 0.0
H588 H 0.04025 0.81846 0.67434 0.0
H589 H 0.02388 0.72244 0.83631 0.0
H590 H 0.99639 0.70568 0.80403 0.0
H591 H 0.99099 0.73767 0.83627 0.0
C592 C 0.23298 0.97832 0.63434 0.0
C593 C 0.2453 0.96907 0.58765 0.0
C594 C 0.24773 0.98046 0.68139 0.0
C595 C 0.27542 0.97294 0.68199 0.0
C596 C 0.28809 0.96394 0.63485 0.0
C597 C 0.27291 0.96224 0.58821 0.0
C598 C 0.2335 0.99021 0.73081 0.0
C599 C 0.31748 0.95538 0.63404 0.0
C600 C 0.31852 0.99472 0.79856 0.0
C601 C 0.3173 0.97176 0.83123 0.0
C602 C 0.30506 0.99545 0.74962 0.0
C603 C 0.2905 0.97254 0.73284 0.0
C604 C 0.28983 0.94913 0.76522 0.0
C605 C 0.30306 0.9491 0.81402 0.0
C606 C 0.30615 0.02078 0.71615 0.0
C607 C 0.27503 0.92407 0.74848 0.0
H608 H 0.21172 0.98383 0.63422 0.0
H609 H 0.28263 0.95509 0.55234 0.0
H610 H 0.23296 0.97371 0.76074 0.0
H611 H 0.24477 1.00719 0.74832 0.0
H612 H 0.21242 0.99699 0.72298 0.0
H613 H 0.32477 0.95049 0.59354 0.0
H614 H 0.33029 0.97158 0.65025 0.0
H615 H 0.32032 0.93729 0.65964 0.0
H616 H 0.32958 0.01222 0.81162 0.0
H617 H 0.30243 0.93107 0.83858 0.0
H618 H 0.28539 0.02888 0.71026 0.0
H619 H 0.31457 0.01611 0.67645 0.0
H620 H 0.31865 0.0367 0.73437 0.0
H621 H 0.25325 0.92879 0.74296 0.0
H622 H 0.27689 0.90737 0.77787 0.0
H623 H 0.28309 0.91692 0.70995 0.0
C624 C 0.51176 0.21497 0.61361 0.0
C625 C 0.53601 0.21732 0.58476 0.0
C626 C 0.50783 0.22883 0.66138 0.0
C627 C 0.52873 0.24528 0.681 0.0
C628 C 0.55321 0.24779 0.65202 0.0
C629 C 0.55651 0.23387 0.60422 0.0
C630 C 0.48139 0.2258 0.69097 0.0
C631 C 0.57605 0.265 0.67177 0.0
C632 C 0.51523 0.30024 0.78224 0.0
C633 C 0.52451 0.2879 0.82896 0.0
C634 C 0.51549 0.28626 0.73406 0.0
C635 C 0.52543 0.25938 0.73251 0.0
C636 C 0.53379 0.24649 0.77989 0.0
C637 C 0.53313 0.26085 0.82751 0.0
C638 C 0.50611 0.30061 0.68448 0.0
C639 C 0.54456 0.21787 0.77994 0.0
H640 H 0.49575 0.20233 0.5988 0.0
H641 H 0.57531 0.23582 0.58229 0.0
H642 H 0.4851 0.21682 0.73063 0.0
H643 H 0.47192 0.24592 0.6972 0.0
H644 H 0.46688 0.21287 0.66967 0.0
H645 H 0.59369 0.26503 0.64431 0.0
H646 H 0.56895 0.28611 0.67702 0.0
H647 H 0.58282 0.25748 0.71101 0.0
H648 H 0.50844 0.32109 0.78296 0.0
H649 H 0.5403 0.25109 0.86335 0.0
H650 H 0.49121 0.28811 0.66332 0.0
H651 H 0.52357 0.3037 0.65734 0.0
H652 H 0.49677 0.32058 0.69304 0.0
H653 H 0.52997 0.20423 0.76078 0.0
H654 H 0.54865 0.21018 0.82054 0.0
H655 H 0.56365 0.21693 0.75664 0.0
C656 C 0.3005 0.55392 0.6519 0.0
C657 C 0.31009 0.5308 0.62587 0.0
C658 C 0.28557 0.55186 0.69925 0.0
C659 C 0.28016 0.52606 0.72132 0.0
C660 C 0.2898 0.50265 0.6953 0.0
C661 C 0.3046 0.5053 0.6479 0.0
C662 C 0.27556 0.57732 0.72569 0.0
C663 C 0.28449 0.47481 0.7176 0.0
C664 C 0.26324 0.52486 0.86826 0.0
C665 C 0.23487 0.52455 0.8679 0.0
C666 C 0.27827 0.52442 0.8209 0.0
C667 C 0.26461 0.52372 0.77189 0.0
C668 C 0.23602 0.52219 0.7713 0.0
C669 C 0.2215 0.52255 0.81929 0.0
C670 C 0.30873 0.52584 0.82329 0.0
C671 C 0.2207 0.52138 0.71988 0.0
H672 H 0.30456 0.5737 0.63517 0.0
H673 H 0.3119 0.4873 0.62814 0.0
H674 H 0.25321 0.5769 0.7297 0.0
H675 H 0.28397 0.57859 0.76616 0.0
H676 H 0.2813 0.59582 0.70328 0.0
H677 H 0.29329 0.45862 0.69249 0.0
H678 H 0.29316 0.47296 0.75784 0.0
H679 H 0.26239 0.47152 0.7214 0.0
H680 H 0.27378 0.52632 0.90558 0.0
H681 H 0.19959 0.52238 0.8185 0.0
H682 H 0.31563 0.54523 0.80579 0.0
H683 H 0.318 0.50938 0.79965 0.0
H684 H 0.31635 0.52432 0.86446 0.0
H685 H 0.22346 0.54069 0.69805 0.0
H686 H 0.1987 0.51816 0.7262 0.0
H687 H 0.22875 0.50503 0.69437 0.0
C688 C 0.95036 0.29028 0.62552 0.0
C689 C 0.96937 0.30945 0.60861 0.0
C690 C 0.95359 0.27607 0.6734 0.0
C691 C 0.97641 0.28106 0.70534 0.0
C692 C 0.99595 0.3 0.68808 0.0
C693 C 0.99219 0.31399 0.63999 0.0
C694 C 0.93224 0.25608 0.69035 0.0
C695 C 0.02059 0.30583 0.7209 0.0
C696 C 0.96644 0.26525 0.85139 0.0
C697 C 0.97802 0.23938 0.85601 0.0
C698 C 0.96671 0.27941 0.80309 0.0
C699 C 0.97888 0.26749 0.75804 0.0
C700 C 0.99171 0.24191 0.76292 0.0
C701 C 0.99114 0.22815 0.81188 0.0
C702 C 0.95288 0.30667 0.79977 0.0
C703 C 1.00503 0.22858 0.7159 0.0
H704 H 0.93272 0.28652 0.60156 0.0
H705 H 1.00706 0.32866 0.62722 0.0
H706 H 0.94163 0.23605 0.69815 0.0
H707 H 0.92256 0.26281 0.72777 0.0
H708 H 0.91626 0.25372 0.66009 0.0
H709 H 0.03464 0.31998 0.70063 0.0
H710 H 0.01427 0.31476 0.75919 0.0
H711 H 0.03166 0.28681 0.73001 0.0
H712 H 0.95639 0.27422 0.88529 0.0
H713 H 1.00013 0.20818 0.81501 0.0
H714 H 0.93504 0.30543 0.77354 0.0
H715 H 0.96676 0.32183 0.78217 0.0
H716 H 0.94601 0.31396 0.83911 0.0
H717 H 0.98942 0.22322 0.68657 0.0
H718 H 0.01629 0.20994 0.72722 0.0
H719 H 0.01922 0.24272 0.69608 0.0
C720 C 0.21154 0.97174 0.26044 0.0
C721 C 0.21826 0.98116 0.31085 0.0
C722 C 0.23101 0.97014 0.21989 0.0
C723 C 0.25789 0.97819 0.22989 0.0
C724 C 0.26452 0.98891 0.27989 0.0
C725 C 0.24463 0.99029 0.31978 0.0
C726 C 0.22305 0.95873 0.16706 0.0
C727 C 0.29293 0.9978 0.29202 0.0
C728 C 0.31301 0.94445 0.14763 0.0
C729 C 0.31861 0.96432 0.10934 0.0
C730 C 0.29359 0.9489 0.18748 0.0
C731 C 0.27934 0.9738 0.1891 0.0
C732 C 0.28512 0.99408 0.151 0.0
C733 C 0.30469 0.98911 0.11163 0.0
C734 C 0.28806 0.92677 0.22749 0.0
C735 C 0.27032 0.02086 0.15136 0.0
H736 H 0.19123 0.96469 0.25304 0.0
H737 H 0.25002 0.9976 0.35857 0.0
H738 H 0.22912 0.97265 0.13457 0.0
H739 H 0.23381 0.93929 0.16054 0.0
H740 H 0.20095 0.95516 0.16444 0.0
H741 H 0.29431 1.00765 0.33123 0.0
H742 H 0.30674 0.98004 0.29169 0.0
H743 H 0.30025 0.01208 0.26119 0.0
H744 H 0.32367 0.92527 0.1463 0.0
H745 H 0.30885 1.00461 0.08224 0.0
H746 H 0.26669 0.9203 0.22463 0.0
H747 H 0.29104 0.93443 0.26814 0.0
H748 H 0.30137 0.90886 0.22165 0.0
H749 H 0.24838 0.01761 0.14544 0.0
H750 H 0.27777 0.03483 0.11999 0.0
H751 H 0.27265 0.03069 0.19032 0.0
C752 C 0.50281 0.22872 0.29637 0.0
C753 C 0.51498 0.20338 0.28833 0.0
C754 C 0.50141 0.24797 0.25523 0.0
C755 C 0.51237 0.24169 0.20484 0.0
C756 C 0.52399 0.21589 0.19612 0.0
C757 C 0.52517 0.19709 0.2379 0.0
C758 C 0.48886 0.27526 0.26607 0.0
C759 C 0.53578 0.20832 0.14293 0.0
C760 C 0.49143 0.28231 0.08326 0.0
C761 C 0.51384 0.29913 0.07537 0.0
C762 C 0.49046 0.26385 0.12571 0.0
C763 C 0.51234 0.26226 0.16143 0.0
C764 C 0.53474 0.27963 0.15444 0.0
C765 C 0.53526 0.29778 0.11142 0.0
C766 C 0.4663 0.24559 0.1316 0.0
C767 C 0.55841 0.27868 0.19187 0.0
H768 H 0.49496 0.23381 0.3352 0.0
H769 H 0.53462 0.17759 0.2312 0.0
H770 H 0.50431 0.2912 0.26094 0.0
H771 H 0.47253 0.2796 0.23728 0.0
H772 H 0.4803 0.27662 0.30673 0.0
H773 H 0.54325 0.18712 0.14213 0.0
H774 H 0.52034 0.21101 0.11165 0.0
H775 H 0.55286 0.22186 0.13288 0.0
H776 H 0.47478 0.28315 0.05563 0.0
H777 H 0.55261 0.31075 0.10579 0.0
H778 H 0.45727 0.24766 0.17167 0.0
H779 H 0.47281 0.22423 0.12731 0.0
H780 H 0.45046 0.25006 0.10176 0.0
H781 H 0.55126 0.28156 0.23316 0.0
H782 H 0.57368 0.29434 0.1824 0.0
H783 H 0.56838 0.25856 0.19007 0.0
C784 C 0.30341 0.52842 0.3218 0.0
C785 C 0.29036 0.5378 0.36766 0.0
C786 C 0.28924 0.52574 0.27407 0.0
C787 C 0.26133 0.5324 0.27228 0.0
C788 C 0.24786 0.54079 0.319 0.0
C789 C 0.26253 0.54347 0.36598 0.0
C790 C 0.30436 0.51679 0.22509 0.0
C791 C 0.21808 0.54781 0.319 0.0
C792 C 0.22932 0.55487 0.1425 0.0
C793 C 0.21568 0.53151 0.12709 0.0
C794 C 0.2447 0.55523 0.18905 0.0
C795 C 0.24637 0.53174 0.22126 0.0
C796 C 0.23287 0.50803 0.20568 0.0
C797 C 0.21777 0.50818 0.15877 0.0
C798 C 0.25892 0.58089 0.20411 0.0
C799 C 0.23405 0.48262 0.239 0.0
H800 H 0.32494 0.52413 0.32264 0.0
H801 H 0.25225 0.55062 0.40126 0.0
H802 H 0.29395 0.49953 0.20666 0.0
H803 H 0.30462 0.53349 0.19557 0.0
H804 H 0.32557 0.51075 0.23373 0.0
H805 H 0.21027 0.55248 0.35924 0.0
H806 H 0.21445 0.5656 0.293 0.0
H807 H 0.20627 0.53084 0.30284 0.0
H808 H 0.22797 0.57294 0.11818 0.0
H809 H 0.20735 0.49001 0.14724 0.0
H810 H 0.28083 0.57686 0.20965 0.0
H811 H 0.25077 0.58836 0.24233 0.0
H812 H 0.2565 0.59709 0.17381 0.0
H813 H 0.25539 0.47642 0.24541 0.0
H814 H 0.22316 0.46561 0.22056 0.0
H815 H 0.22496 0.48649 0.2785 0.0
C816 C 0.01592 0.23987 0.12542 0.0
C817 C 0.9912 0.22855 0.11049 0.0
C818 C 0.01807 0.25518 0.17172 0.0
C819 C 0.99493 0.25939 0.20398 0.0
C820 C 0.96983 0.24833 0.18887 0.0
C821 C 0.96827 0.23299 0.1424 0.0
C822 C 0.04517 0.26669 0.18634 0.0
C823 C 0.94464 0.25254 0.222 0.0
C824 C 1.00408 0.27575 0.3496 0.0
C825 C 0.99941 0.30371 0.35022 0.0
C826 C 1.00312 0.26119 0.30218 0.0
C827 C 0.99713 0.27486 0.25417 0.0
C828 C 0.99291 0.30317 0.25434 0.0
C829 C 0.99421 0.31726 0.30229 0.0
C830 C 1.00793 0.23106 0.30365 0.0
C831 C 0.98618 0.3185 0.20419 0.0
H832 H 0.03376 0.23663 0.10106 0.0
H833 H 0.94906 0.22445 0.13114 0.0
H834 H 0.04353 0.28894 0.19016 0.0
H835 H 0.05159 0.25853 0.22533 0.0
H836 H 0.06114 0.26195 0.15663 0.0
H837 H 0.92659 0.24301 0.20435 0.0
H838 H 0.9477 0.24393 0.26219 0.0
H839 H 0.9405 0.27444 0.22665 0.0
H840 H 1.00805 0.26512 0.38642 0.0
H841 H 0.99021 0.33881 0.3024 0.0
H842 H 0.02453 0.22553 0.27596 0.0
H843 H 0.9895 0.22048 0.29043 0.0
H844 H 0.01321 0.22359 0.34386 0.0
H845 H 1.00116 0.31379 0.17266 0.0
H846 H 0.98571 0.34069 0.21022 0.0
H847 H 0.96607 0.31219 0.18978 0.0
C848 C 0.71153 0.02202 0.27554 0.0
C849 C 0.71787 1.00914 0.22773 0.0
C850 C 0.73061 0.02379 0.31619 0.0
C851 C 0.75674 0.01246 0.3089 0.0
C852 C 0.76297 0.99859 0.26152 0.0
C853 C 0.74345 0.99703 0.22156 0.0
C854 C 0.72308 0.03859 0.36624 0.0
C855 C 0.79062 0.98629 0.25221 0.0
C856 C 0.81401 0.04293 0.38783 0.0
C857 C 0.81733 0.02391 0.42873 0.0
C858 C 0.79457 0.03928 0.34829 0.0
C859 C 0.77789 0.01616 0.34988 0.0
C860 C 0.78121 0.99684 0.39093 0.0
C861 C 0.80094 1.00089 0.42971 0.0
C862 C 0.79177 0.06026 0.30495 0.0
C863 C 0.76367 0.97206 0.39424 0.0
H864 H 0.69184 0.03144 0.28075 0.0
H865 H 0.74857 0.98709 0.18475 0.0
H866 H 0.72715 0.02563 0.40134 0.0
H867 H 0.7357 0.05689 0.36988 0.0
H868 H 0.70145 0.04485 0.36701 0.0
H869 H 0.79179 0.97495 0.21452 0.0
H870 H 0.80603 1.00245 0.25106 0.0
H871 H 0.79597 0.97242 0.28524 0.0
H872 H 0.82659 0.06073 0.38666 0.0
H873 H 0.80326 0.98612 0.46127 0.0
H874 H 0.77111 0.06917 0.30585 0.0
H875 H 0.79457 0.0507 0.26573 0.0
H876 H 0.80666 0.07679 0.30871 0.0
H877 H 0.74212 0.97815 0.39812 0.0
H878 H 0.76901 0.95879 0.4283 0.0
H879 H 0.76567 0.96022 0.35733 0.0
C880 C 0.45309 0.7782 0.36328 0.0
C881 C 0.47207 0.79527 0.38649 0.0
C882 C 0.45953 0.76347 0.31758 0.0
C883 C 0.48562 0.76574 0.29456 0.0
C884 C 0.5051 0.78236 0.31857 0.0
C885 C 0.49807 0.797 0.3641 0.0
C886 C 0.4381 0.74612 0.29301 0.0
C887 C 0.53321 0.78509 0.29554 0.0
C888 C 0.50496 0.71213 0.19349 0.0
C889 C 0.49816 0.7252 0.14588 0.0
C890 C 0.50185 0.72534 0.24228 0.0
C891 C 0.49177 0.7522 0.24335 0.0
C892 C 0.48606 0.76581 0.19523 0.0
C893 C 0.48936 0.75218 0.1472 0.0
C894 C 0.50812 0.71013 0.29276 0.0
C895 C 0.47527 0.79443 0.1945 0.0
H896 H 0.43298 0.77664 0.38031 0.0
H897 H 0.51296 0.80995 0.38197 0.0
H898 H 0.43227 0.75474 0.25404 0.0
H899 H 0.4461 0.72549 0.28592 0.0
H900 H 0.41966 0.74462 0.3182 0.0
H901 H 0.54656 0.79737 0.32086 0.0
H902 H 0.54259 0.76486 0.2903 0.0
H903 H 0.5321 0.79475 0.25585 0.0
H904 H 0.51156 0.69122 0.19287 0.0
H905 H 0.48414 0.76246 0.11061 0.0
H906 H 0.48904 0.70595 0.31457 0.0
H907 H 0.52095 0.72248 0.31887 0.0
H908 H 0.5186 0.69062 0.28509 0.0
H909 H 0.45511 0.79511 0.21404 0.0
H910 H 0.47324 0.80265 0.15368 0.0
H911 H 0.4888 0.80781 0.21707 0.0
C912 C 0.72156 0.48124 0.38023 0.0
C913 C 0.71844 0.50075 0.41975 0.0
C914 C 0.74115 0.4841 0.3401 0.0
C915 C 0.75822 0.50694 0.33963 0.0
C916 C 0.755 0.52685 0.37906 0.0
C917 C 0.7351 0.52358 0.41851 0.0
C918 C 0.74381 0.4625 0.29853 0.0
C919 C 0.77293 0.55137 0.38016 0.0
C920 C 0.82509 0.49826 0.26647 0.0
C921 C 0.8195 0.51042 0.21736 0.0
C922 C 0.80561 0.4977 0.30713 0.0
C923 C 0.77984 0.50953 0.29853 0.0
C924 C 0.77438 0.52269 0.24975 0.0
C925 C 0.7943 0.52304 0.20979 0.0
C926 C 0.81234 0.48362 0.35866 0.0
C927 C 0.74714 0.5355 0.23901 0.0
H928 H 0.70875 0.46358 0.38074 0.0
H929 H 0.73293 0.53873 0.44898 0.0
H930 H 0.74168 0.47159 0.25849 0.0
H931 H 0.7642 0.45305 0.30049 0.0
H932 H 0.72842 0.44643 0.30345 0.0
H933 H 0.76739 0.56536 0.41267 0.0
H934 H 0.79431 0.54497 0.38522 0.0
H935 H 0.77165 0.56251 0.342 0.0
H936 H 0.8445 0.48847 0.2728 0.0
H937 H 0.78976 0.53244 0.17198 0.0
H938 H 0.79921 0.46574 0.36406 0.0
H939 H 0.80833 0.49729 0.39241 0.0
H940 H 0.83379 0.47681 0.36019 0.0
H941 H 0.73136 0.5197 0.23903 0.0
H942 H 0.74663 0.54632 0.20037 0.0
H943 H 0.74177 0.54995 0.27076 0.0
C944 C 0.01848 0.83661 0.25921 0.0
C945 C 0.01167 0.82901 0.20764 0.0
C946 C 0.01827 0.81782 0.30114 0.0
C947 C 0.01149 0.79061 0.29122 0.0
C948 C 1.00409 0.78291 0.23949 0.0
C949 C 1.00412 0.80222 0.19841 0.0
C950 C 0.02608 0.82699 0.35574 0.0
C951 C 0.99686 0.75409 0.22722 0.0
C952 C 0.03768 0.73711 0.38761 0.0
C953 C 0.01466 0.73198 0.41878 0.0
C954 C 0.03688 0.75596 0.3457 0.0
C955 C 0.01252 0.77014 0.33481 0.0
C956 C 0.98921 0.76499 0.36599 0.0
C957 C 0.99053 0.74594 0.40739 0.0
C958 C 0.06216 0.76086 0.31327 0.0
C959 C 0.96297 0.77995 0.35618 0.0
H960 H 0.02446 0.85722 0.26678 0.0
H961 H 0.99905 0.79607 0.15866 0.0
H962 H 0.01169 0.81919 0.38597 0.0
H963 H 0.04642 0.81885 0.36554 0.0
H964 H 0.02664 0.84933 0.35859 0.0
H965 H 0.99095 0.75149 0.18526 0.0
H966 H 0.01438 0.74064 0.23564 0.0
H967 H 0.97991 0.74738 0.25299 0.0
H968 H 0.05641 0.72646 0.39607 0.0
H969 H 0.97264 0.74226 0.43131 0.0
H970 H 0.06821 0.78229 0.31646 0.0
H971 H 0.05814 0.75698 0.27088 0.0
H972 H 0.07935 0.74787 0.32613 0.0
H973 H 0.96607 0.80196 0.36093 0.0
H974 H 0.94659 0.77345 0.38364 0.0
H975 H 0.95624 0.77671 0.31496 0.0
C976 C 0.47358 0.95384 0.03072 0.0
C977 C 0.45625 0.97436 0.01215 0.0
C978 C 0.5016 0.95776 0.03399 0.0
C979 C 0.51266 0.98298 0.01902 0.0
C980 C 0.49525 1.00401 1.00132 0.0
C981 C 0.46727 0.99938 0.9977 0.0
C982 C 0.51944 0.9347 0.05244 0.0
C983 C 0.50622 0.0313 0.98572 0.0
C984 C 0.58326 0.99896 0.06886 0.0
C985 C 0.59931 0.99368 0.02405 0.0
C986 C 0.55502 0.99594 0.0676 0.0
C987 C 0.54253 0.98701 0.02067 0.0
C988 C 0.55868 0.98134 0.97553 0.0
C989 C 0.58682 0.98494 0.97765 0.0
C990 C 0.53851 1.0025 0.11637 0.0
C991 C 0.54624 0.97137 0.92499 0.0
H992 H 0.46532 0.93437 0.04175 0.0
H993 H 0.45404 0.01537 0.98348 0.0
H994 H 0.5341 0.92929 0.02075 0.0
H995 H 0.53131 0.94089 0.08732 0.0
H996 H 0.50765 0.91645 0.06324 0.0
H997 H 0.48993 0.04589 0.97509 0.0
H998 H 0.5181 0.03975 0.0187 0.0
H999 H 0.52014 0.0292 0.95136 0.0
H1000 H 0.59271 1.00599 0.10473 0.0
H1001 H 0.59906 0.9808 0.94288 0.0
H1002 H 0.52746 0.98433 0.13012 0.0
H1003 H 0.52315 0.01821 0.1068 0.0
H1004 H 0.5512 1.00983 0.1493 0.0
H1005 H 0.53518 0.95233 0.9328 0.0
H1006 H 0.5616 0.96767 0.89355 0.0
H1007 H 0.53131 0.98637 0.91002 0.0
C1008 C 0.51022 0.44918 0.03803 0.0
C1009 C 0.51349 0.43532 0.99021 0.0
C1010 C 0.50506 0.47713 0.03863 0.0
C1011 C 0.50364 0.4917 0.99025 0.0
C1012 C 0.50675 0.47779 0.94182 0.0
C1013 C 0.51138 0.44975 0.94237 0.0
C1014 C 0.50129 0.49109 0.09108 0.0
C1015 C 0.50572 0.49261 0.88943 0.0
C1016 C 0.46762 0.55983 0.98828 0.0
C1017 C 0.48922 0.57789 0.9926 0.0
C1018 C 0.47203 0.53181 0.98761 0.0
C1019 C 0.49875 0.52148 0.99038 0.0
C1020 C 0.52072 0.53959 0.99388 0.0
C1021 C 0.51567 0.56758 0.99547 0.0
C1022 C 0.44802 0.51323 0.98476 0.0
C1023 C 0.54954 0.52939 0.99603 0.0
H1024 H 0.51176 0.43818 0.07514 0.0
H1025 H 0.51413 0.43925 0.90524 0.0
H1026 H 0.51724 0.50645 0.09618 0.0
H1027 H 0.48153 0.50183 0.09202 0.0
H1028 H 0.50212 0.47674 0.12506 0.0
H1029 H 0.50866 0.47889 0.8553 0.0
H1030 H 0.48598 0.50314 0.88509 0.0
H1031 H 0.52165 0.50826 0.88796 0.0
H1032 H 0.44708 0.56758 0.98647 0.0
H1033 H 0.53246 0.5814 0.99864 0.0
H1034 H 0.44768 0.49963 0.01987 0.0
H1035 H 0.44973 0.50028 0.94928 0.0
H1036 H 0.42851 0.52446 0.98306 0.0
H1037 H 0.55242 0.5166 0.0318 0.0
H1038 H 0.56439 0.54609 0.99685 0.0
H1039 H 0.55397 0.51659 0.96116 0.0
C1040 C 0.95606 0.5237 0.9686 0.0
C1041 C 0.94189 0.52094 0.01662 0.0
C1042 C 0.98404 0.52844 0.96757 0.0
C1043 C 0.99837 0.53019 0.01573 0.0
C1044 C 0.98424 0.52724 0.06437 0.0
C1045 C 0.95617 0.52281 0.06425 0.0
C1046 C 0.99824 0.53181 0.91486 0.0
C1047 C 0.9988 0.52875 0.11656 0.0
C1048 C 0.07505 0.52101 1.00909 0.0
C1049 C 0.0839 0.54784 1.00966 0.0
C1050 C 0.04731 0.51489 0.01207 0.0
C1051 C 0.02795 0.53611 0.01507 0.0
C1052 C 0.03681 0.56318 0.01602 0.0
C1053 C 0.0646 0.56869 0.0136 0.0
C1054 C 0.03868 0.48574 0.01152 0.0
C1055 C 0.0169 0.58643 0.01865 0.0
H1056 H 0.94523 0.5223 0.93159 0.0
H1057 H 0.94547 0.52047 0.10155 0.0
H1058 H 1.00771 0.55202 0.91242 0.0
H1059 H 0.0147 0.5166 0.91097 0.0
H1060 H 0.98426 0.52966 0.88097 0.0
H1061 H 0.98508 0.52517 0.15085 0.0
H1062 H 0.01542 0.51358 0.11779 0.0
H1063 H 1.00811 0.54891 0.12081 0.0
H1064 H 0.0898 0.50477 1.00622 0.0
H1065 H 0.07115 0.58951 0.0139 0.0
H1066 H 0.02624 0.48195 0.97603 0.0
H1067 H 0.02589 0.48125 0.0467 0.0
H1068 H 0.05621 0.47157 0.01125 0.0
H1069 H 1.00346 0.5861 0.9837 0.0
H1070 H 0.02708 0.60633 0.0198 0.0
H1071 H 1.00387 0.5844 0.05433 0.0
C1072 C 0.98472 0.07018 0.92579 0.0
C1073 C 0.99011 0.0901 0.96341 0.0
C1074 C 0.99073 0.04283 0.93576 0.0
C1075 C 1.00249 0.03507 0.98455 0.0
C1076 C 1.00806 0.05506 0.02268 0.0
C1077 C 1.0018 0.0823 0.01169 0.0
C1078 C 0.98448 0.02222 0.89397 0.0
C1079 C 0.02065 0.04766 0.07513 0.0
C1080 C 0.99739 0.96112 0.02712 0.0
C1081 C 0.02285 0.95094 0.01202 0.0
C1082 C 0.99055 0.98849 0.0189 0.0
C1083 C 1.00958 1.00613 0.99499 0.0
C1084 C 0.03533 0.99598 0.97999 0.0
C1085 C 0.04163 0.96861 0.98867 0.0
C1086 C 0.96288 0.99852 0.03546 0.0
C1087 C 0.05622 0.01402 0.95434 0.0
H1088 H 0.97557 0.07589 0.88846 0.0
H1089 H 1.00597 0.09748 0.04111 0.0
H1090 H 1.00334 0.0117 0.88157 0.0
H1091 H 0.97066 1.00669 0.91042 0.0
H1092 H 0.97495 0.03147 0.85843 0.0
H1093 H 0.02342 0.0655 0.10081 0.0
H1094 H 1.00777 0.03284 0.09642 0.0
H1095 H 0.04064 0.03789 0.06852 0.0
H1096 H 0.98275 0.9477 0.04524 0.0
H1097 H 0.06137 0.96104 0.97687 0.0
H1098 H 0.95186 1.00645 1.00047 0.0
H1099 H 0.96484 0.01542 0.06365 0.0
H1100 H 0.95056 0.98241 0.05439 0.0
H1101 H 0.04825 0.02244 0.91669 0.0
H1102 H 0.07547 1.00314 0.94582 0.0
H1103 H 0.06058 0.03132 0.98045 0.0
C1104 C 0.08395 0.99678 0.47502 0.0
C1105 C 0.09907 0.99159 0.52084 0.0
C1106 C 0.05592 1.00166 0.47788 0.0
C1107 C 0.04269 1.00161 0.52779 0.0
C1108 C 0.05793 0.99681 0.57421 0.0
C1109 C 0.08586 0.99176 0.57016 0.0
C1110 C 0.04039 1.00656 0.42745 0.0
C1111 C 0.04468 0.99687 0.62823 0.0
C1112 C 0.97526 0.03836 0.54245 0.0
C1113 C 0.95677 0.01699 0.54272 0.0
C1114 C 1.00319 0.03365 0.53723 0.0
C1115 C 0.01298 1.00689 0.53166 0.0
C1116 C 0.99443 0.98523 0.53111 0.0
C1117 C 0.96656 0.99052 0.53688 0.0
C1118 C 0.02225 0.0573 0.53844 0.0
C1119 C 1.00407 0.95643 0.52484 0.0
H1120 H 0.09392 0.99649 0.4367 0.0
H1121 H 0.09735 0.9878 0.60579 0.0
H1122 H 0.0244 0.99113 0.42345 0.0
H1123 H 0.03015 0.02655 0.42879 0.0
H1124 H 0.05362 1.00589 0.39178 0.0
H1125 H 0.05941 0.99312 0.66051 0.0
H1126 H 0.03452 0.01659 0.63517 0.0
H1127 H 0.02888 0.98112 0.63035 0.0
H1128 H 0.96797 0.0589 0.54707 0.0
H1129 H 0.95245 0.97389 0.53687 0.0
H1130 H 0.03472 0.05783 0.50181 0.0
H1131 H 0.03632 0.055 0.57222 0.0
H1132 H 0.01138 0.07691 0.54223 0.0
H1133 H 0.01625 0.95447 0.48801 0.0
H1134 H 0.98705 0.94196 0.5234 0.0
H1135 H 0.01738 0.95071 0.55832 0.0
C1136 C 0.45306 0.96053 0.49993 0.0
C1137 C 0.47389 0.9411 0.5016 0.0
C1138 C 0.45875 0.98822 0.49702 0.0
C1139 C 0.48596 0.99685 0.49535 0.0
C1140 C 0.50712 0.97737 0.49642 0.0
C1141 C 0.50084 0.94974 0.49974 0.0
C1142 C 0.43559 1.00829 0.49636 0.0
C1143 C 0.53639 0.98575 0.49437 0.0
C1144 C 0.49988 0.06794 0.44372 0.0
C1145 C 0.50338 0.08226 0.49084 0.0
C1146 C 0.49444 0.04011 0.44455 0.0
C1147 C 0.49219 0.02628 0.49365 0.0
C1148 C 0.49542 0.04069 0.54132 0.0
C1149 C 0.50107 0.06844 0.53933 0.0
C1150 C 0.49128 0.02545 0.39285 0.0
C1151 C 0.49291 0.0268 0.59451 0.0
H1152 H 0.43216 0.95413 0.50147 0.0
H1153 H 0.51706 0.93491 0.50088 0.0
H1154 H 0.43696 0.02182 0.53099 0.0
H1155 H 0.43682 0.02117 0.46033 0.0
H1156 H 0.41556 0.99831 0.49731 0.0
H1157 H 0.55045 0.96814 0.49403 0.0
H1158 H 0.54022 0.99822 0.45847 0.0
H1159 H 0.54106 0.99839 0.52911 0.0
H1160 H 0.50181 0.07838 0.40605 0.0
H1161 H 0.50372 0.0793 0.57595 0.0
H1162 H 0.47094 0.01624 0.39097 0.0
H1163 H 0.50634 1.00879 0.3902 0.0
H1164 H 0.49393 0.03903 0.35803 0.0
H1165 H 0.47263 0.01756 0.59864 0.0
H1166 H 0.49589 0.04088 0.62791 0.0
H1167 H 0.50807 0.01024 0.59762 0.0
C1168 C 0.57101 0.54057 0.54073 0.0
C1169 C 0.58014 0.51368 0.54023 0.0
C1170 C 0.54322 0.54686 0.53779 0.0
C1171 C 0.52408 0.52576 0.5349 0.0
C1172 C 0.53322 0.49861 0.53438 0.0
C1173 C 0.56105 0.49294 0.53676 0.0
C1174 C 0.5343 0.57606 0.5379 0.0
C1175 C 0.51356 0.47548 0.53192 0.0
C1176 C 0.45131 0.53877 0.57886 0.0
C1177 C 0.43786 0.5413 0.53033 0.0
C1178 C 0.47934 0.53393 0.5809 0.0
C1179 C 0.49445 0.53187 0.53326 0.0
C1180 C 0.48104 0.53465 0.48413 0.0
C1181 C 0.45292 0.53915 0.48324 0.0
C1182 C 0.49275 0.53074 0.6341 0.0
C1183 C 0.49641 0.53281 0.43245 0.0
H1184 H 0.58559 0.55673 0.54326 0.0
H1185 H 0.56781 0.47208 0.53658 0.0
H1186 H 0.52212 0.58059 0.50216 0.0
H1187 H 0.52117 0.57998 0.57281 0.0
H1188 H 0.55168 0.59012 0.53885 0.0
H1189 H 0.52392 0.4555 0.53178 0.0
H1190 H 0.49955 0.47622 0.56637 0.0
H1191 H 0.50108 0.47729 0.49575 0.0
H1192 H 0.43988 0.54038 0.61546 0.0
H1193 H 0.44277 0.5413 0.44555 0.0
H1194 H 0.50905 0.54582 0.63819 0.0
H1195 H 0.50232 0.51046 0.63728 0.0
H1196 H 0.47824 0.53321 0.66749 0.0
H1197 H 0.51296 0.54781 0.43155 0.0
H1198 H 0.48321 0.53641 0.39767 0.0
H1199 H 0.5059 0.51254 0.42877 0.0
C1200 C 1.00299 0.58221 0.52077 0.0
C1201 C 0.03009 0.58899 0.52938 0.0
C1202 C 0.99506 0.55502 0.5171 0.0
C1203 C 0.01463 0.53414 0.52295 0.0
C1204 C 0.04195 0.54091 0.53191 0.0
C1205 C 0.04935 0.56816 0.53466 0.0
C1206 C 0.96578 0.54863 0.50688 0.0
C1207 C 0.06342 0.51935 0.53913 0.0
C1208 C 0.99233 0.46362 0.56467 0.0
C1209 C 0.99418 0.44944 0.51692 0.0
C1210 C 0.99867 0.4912 0.56708 0.0
C1211 C 1.00667 0.50513 0.52045 0.0
C1212 C 1.00826 0.49101 0.47198 0.0
C1213 C 1.00222 0.46331 0.47087 0.0
C1214 C 0.99716 0.50533 0.61973 0.0
C1215 C 0.0164 0.50516 0.42127 0.0
H1216 H 0.988 0.59815 0.51648 0.0
H1217 H 0.07032 0.57311 0.54165 0.0
H1218 H 0.96411 0.53628 0.47064 0.0
H1219 H 0.95743 0.5365 0.54017 0.0
H1220 H 0.95317 0.56713 0.50197 0.0
H1221 H 0.08374 0.52797 0.54621 0.0
H1222 H 0.05804 0.50608 0.57312 0.0
H1223 H 0.06457 0.50645 0.50351 0.0
H1224 H 0.98617 0.45308 0.60046 0.0
H1225 H 1.00345 0.4526 0.4337 0.0
H1226 H 0.98311 0.52286 0.61725 0.0
H1227 H 0.01736 0.51325 0.63004 0.0
H1228 H 0.99022 0.49175 0.65218 0.0
H1229 H 1.00299 0.52287 0.41415 0.0
H1230 H 0.01545 0.49166 0.38647 0.0
H1231 H 0.03733 0.51283 0.42463 0.0
loop_
_geom_bond_atom_site_label_1
_geom_bond_atom_site_label_2
_geom_bond_distance
_geom_bond_site_symmetry_2
_ccdc_geom_bond_type
Mg0 O7 2.141 . S
Mg0 O8 2.048 . S
Mg0 O9 2.048 . S
Mg0 O12 2.141 . S
C1 O2 1.329 . S
C1 O8 1.184 1_565 S
O2 C1 1.329 . S
C3 O4 1.245 . S
C3 O12 1.289 1_565 S
O4 C3 1.245 . S
C5 O6 1.245 . S
C5 O7 1.289 1_565 S
O6 C5 1.245 . S
O7 Mg0 2.141 . S
O7 C5 1.289 1_545 S
O8 Mg0 2.048 . S
O8 C1 1.184 1_545 S
O9 Mg0 2.048 . S
O9 C10 1.195 . S
C10 O9 1.195 . S
C10 O11 1.313 1_545 S
O11 C10 1.313 1_565 S
O12 Mg0 2.141 . S
O12 C3 1.289 1_545 S
Mg13 O20 2.141 . S
Mg13 O21 2.048 . S
Mg13 O22 2.048 . S
Mg13 O25 2.141 . S
C14 O15 1.313 . S
C14 O21 1.195 . S
O15 C14 1.313 . S
C16 O17 1.245 . S
C16 O25 1.289 . S
O17 C16 1.245 . S
C18 O19 1.245 . S
C18 O20 1.289 . S
O19 C18 1.245 . S
O20 Mg13 2.141 . S
O20 C18 1.289 . S
O21 Mg13 2.048 . S
O21 C14 1.195 . S
O22 Mg13 2.048 . S
O22 C23 1.195 . S
C23 O22 1.195 . S
C23 O24 1.313 . S
O24 C23 1.313 . S
O25 Mg13 2.141 . S
O25 C16 1.289 . S
Mg26 O33 2.141 . S
Mg26 O34 2.048 . S
Mg26 O35 2.048 . S
Mg26 O38 2.141 . S
C27 O28 1.313 . S
C27 O34 1.195 . S
O28 C27 1.313 . S
C29 O30 1.245 . S
C29 O38 1.289 . S
O30 C29 1.245 . S
C31 O32 1.245 . S
C31 O33 1.289 . S
O32 C31 1.245 . S
O33 Mg26 2.141 . S
O33 C31 1.289 . S
O34 Mg26 2.048 . S
O34 C27 1.195 . S
O35 Mg26 2.048 . S
O35 C36 1.195 . S
C36 O35 1.195 . S
C36 O37 1.313 . S
O37 C36 1.313 . S
O38 Mg26 2.141 . S
O38 C29 1.289 . S
Mg39 O46 2.141 . S
Mg39 O47 2.048 . S
Mg39 O48 2.048 . S
Mg39 O51 2.141 . S
C40 O41 1.313 . S
C40 O47 1.195 1_455 S
O41 C40 1.313 . S
C42 O43 1.245 1_655 S
C42 O51 1.289 . S
O43 C42 1.245 1_455 S
C44 O45 1.245 . S
C44 O46 1.289 1_455 S
O45 C44 1.245 . S
O46 Mg39 2.141 . S
O46 C44 1.289 1_655 S
O47 Mg39 2.048 . S
O47 C40 1.195 1_655 S
O48 Mg39 2.048 . S
O48 C49 1.195 1_655 S
C49 O48 1.195 1_455 S
C49 O50 1.313 . S
O50 C49 1.313 . S
O51 Mg39 2.141 . S
O51 C42 1.289 . S
Mg52 O59 2.141 . S
Mg52 O60 2.048 . S
Mg52 O61 2.048 . S
Mg52 O64 2.141 . S
C53 O54 1.338 . S
C53 O60 1.177 1_545 S
O54 C53 1.338 . S
C55 O56 1.245 . S
C55 O64 1.289 1_545 S
O56 C55 1.245 . S
C57 O58 1.245 . S
C57 O59 1.289 1_545 S
O58 C57 1.245 . S
O59 Mg52 2.141 . S
O59 C57 1.289 1_565 S
O60 Mg52 2.048 . S
O60 C53 1.177 1_565 S
O61 Mg52 2.048 . S
O61 C62 1.195 . S
C62 O61 1.195 . S
C62 O63 1.313 1_565 S
O63 C62 1.313 1_545 S
O64 Mg52 2.141 . S
O64 C55 1.289 1_565 S
Mg65 O72 2.141 . S
Mg65 O73 2.048 . S
Mg65 O74 2.048 . S
Mg65 O77 2.141 . S
C66 O67 1.313 . S
C66 O73 1.195 . S
O67 C66 1.313 . S
C68 O69 1.245 . S
C68 O77 1.289 . S
O69 C68 1.245 . S
C70 O71 1.245 . S
C70 O72 1.289 . S
O71 C70 1.245 . S
O72 Mg65 2.141 . S
O72 C70 1.289 . S
O73 Mg65 2.048 . S
O73 C66 1.195 . S
O74 Mg65 2.048 . S
O74 C75 1.195 . S
C75 O74 1.195 . S
C75 O76 1.313 . S
O76 C75 1.313 . S
O77 Mg65 2.141 . S
O77 C68 1.289 . S
Mg78 O85 2.141 . S
Mg78 O86 2.048 . S
Mg78 O87 2.048 . S
Mg78 O90 2.141 . S
C79 O80 1.313 . S
C79 O86 1.195 . S
O80 C79 1.313 . S
C81 O82 1.245 . S
C81 O90 1.289 . S
O82 C81 1.245 . S
C83 O84 1.245 . S
C83 O85 1.289 . S
O84 C83 1.245 . S
O85 Mg78 2.141 . S
O85 C83 1.289 . S
O86 Mg78 2.048 . S
O86 C79 1.195 . S
O87 Mg78 2.048 . S
O87 C88 1.195 . S
C88 O87 1.195 . S
C88 O89 1.313 . S
O89 C88 1.313 . S
O90 Mg78 2.141 . S
O90 C81 1.289 . S
Mg91 O98 2.141 . S
Mg91 O99 2.048 . S
Mg91 O100 2.048 . S
Mg91 O103 2.141 . S
C92 O93 1.313 . S
C92 O99 1.195 1_655 S
O93 C92 1.313 . S
C94 O95 1.245 1_455 S
C94 O103 1.289 . S
O95 C94 1.245 1_655 S
C96 O97 1.245 . S
C96 O98 1.289 1_655 S
O97 C96 1.245 . S
O98 Mg91 2.141 . S
O98 C96 1.289 1_455 S
O99 Mg91 2.048 . S
O99 C92 1.195 1_455 S
O100 Mg91 2.048 . S
O100 C101 1.195 1_455 S
C101 O100 1.195 1_655 S
C101 O102 1.313 . S
O102 C101 1.313 . S
O103 Mg91 2.141 . S
O103 C94 1.289 . S
Mg104 O111 2.141 . S
Mg104 O112 2.048 . S
Mg104 O113 2.048 . S
Mg104 O116 2.141 . S
C105 O106 1.313 . S
C105 O112 1.195 1_565 S
O106 C105 1.313 . S
C107 O108 1.245 . S
C107 O116 1.289 1_565 S
O108 C107 1.245 . S
C109 O110 1.245 1_545 S
C109 O111 1.289 . S
O110 C109 1.245 1_565 S
O111 Mg104 2.141 . S
O111 C109 1.289 . S
O112 Mg104 2.048 . S
O112 C105 1.195 1_545 S
O113 Mg104 2.048 . S
O113 C114 1.195 1_545 S
C114 O113 1.195 1_565 S
C114 O115 1.313 . S
O115 C114 1.313 . S
O116 Mg104 2.141 . S
O116 C107 1.289 1_545 S
Mg117 O124 2.141 . S
Mg117 O125 2.048 . S
Mg117 O126 2.048 . S
Mg117 O129 2.141 . S
C118 O119 1.313 . S
C118 O125 1.195 . S
O119 C118 1.313 . S
C120 O121 1.245 . S
C120 O129 1.289 . S
O121 C120 1.245 . S
C122 O123 1.245 . S
C122 O124 1.289 . S
O123 C122 1.245 . S
O124 Mg117 2.141 . S
O124 C122 1.289 . S
O125 Mg117 2.048 . S
O125 C118 1.195 . S
O126 Mg117 2.048 . S
O126 C127 1.195 . S
C127 O126 1.195 . S
C127 O128 1.313 . S
O128 C127 1.313 . S
O129 Mg117 2.141 . S
O129 C120 1.289 . S
Mg130 O137 2.141 . S
Mg130 O138 2.048 . S
Mg130 O139 2.048 . S
Mg130 O142 2.141 . S
C131 O132 1.313 . S
C131 O138 1.195 . S
O132 C131 1.313 . S
C133 O134 1.245 . S
C133 O142 1.289 . S
O134 C133 1.245 . S
C135 O136 1.245 . S
C135 O137 1.289 . S
O136 C135 1.245 . S
O137 Mg130 2.141 . S
O137 C135 1.289 . S
O138 Mg130 2.048 . S
O138 C131 1.195 . S
O139 Mg130 2.048 . S
O139 C140 1.195 . S
C140 O139 1.195 . S
C140 O141 1.313 . S
O141 C140 1.313 . S
O142 Mg130 2.141 . S
O142 C133 1.289 . S
Mg143 O150 2.141 . S
Mg143 O151 2.048 . S
Mg143 O152 2.048 . S
Mg143 O155 2.141 . S
C144 O145 1.313 . S
C144 O151 1.195 1_655 S
O145 C144 1.313 . S
C146 O147 1.245 . S
C146 O155 1.289 1_655 S
O147 C146 1.245 . S
C148 O149 1.245 1_455 S
C148 O150 1.289 . S
O149 C148 1.245 1_655 S
O150 Mg143 2.141 . S
O150 C148 1.289 . S
O151 Mg143 2.048 . S
O151 C144 1.195 1_455 S
O152 Mg143 2.048 . S
O152 C153 1.195 1_455 S
C153 O152 1.195 1_655 S
C153 O154 1.313 . S
O154 C153 1.313 . S
O155 Mg143 2.141 . S
O155 C146 1.289 1_455 S
Mg156 O163 2.141 . S
Mg156 O164 2.048 . S
Mg156 O165 2.048 . S
Mg156 O168 2.141 . S
C157 O158 1.313 . S
C157 O164 1.195 1_545 S
O158 C157 1.313 . S
C159 O160 1.245 . S
C159 O168 1.289 1_545 S
O160 C159 1.245 . S
C161 O162 1.245 1_565 S
C161 O163 1.289 . S
O162 C161 1.245 1_545 S
O163 Mg156 2.141 . S
O163 C161 1.289 . S
O164 Mg156 2.048 . S
O164 C157 1.195 1_565 S
O165 Mg156 2.048 . S
O165 C166 1.195 1_565 S
C166 O165 1.195 1_545 S
C166 O167 1.313 . S
O167 C166 1.313 . S
O168 Mg156 2.141 . S
O168 C159 1.289 1_565 S
Mg169 O176 2.141 . S
Mg169 O177 2.048 . S
Mg169 O178 2.048 . S
Mg169 O181 2.141 . S
C170 O171 1.313 . S
C170 O177 1.195 . S
O171 C170 1.313 . S
C172 O173 1.245 . S
C172 O181 1.289 . S
O173 C172 1.245 . S
C174 O175 1.245 . S
C174 O176 1.289 . S
O175 C174 1.245 . S
O176 Mg169 2.141 . S
O176 C174 1.289 . S
O177 Mg169 2.048 . S
O177 C170 1.195 . S
O178 Mg169 2.048 . S
O178 C179 1.195 . S
C179 O178 1.195 . S
C179 O180 1.313 . S
O180 C179 1.313 . S
O181 Mg169 2.141 . S
O181 C172 1.289 . S
Mg182 O189 2.141 . S
Mg182 O190 2.048 . S
Mg182 O191 2.048 . S
Mg182 O194 2.141 . S
C183 O184 1.313 . S
C183 O190 1.195 . S
O184 C183 1.313 . S
C185 O186 1.245 . S
C185 O194 1.289 . S
O186 C185 1.245 . S
C187 O188 1.245 . S
C187 O189 1.289 . S
O188 C187 1.245 . S
O189 Mg182 2.141 . S
O189 C187 1.289 . S
O190 Mg182 2.048 . S
O190 C183 1.195 . S
O191 Mg182 2.048 . S
O191 C192 1.195 . S
C192 O191 1.195 . S
C192 O193 1.313 . S
O193 C192 1.313 . S
O194 Mg182 2.141 . S
O194 C185 1.289 . S
Mg195 O202 2.141 . S
Mg195 O203 2.048 . S
Mg195 O204 2.048 . S
Mg195 O207 2.141 . S
C196 O197 1.313 . S
C196 O203 1.195 1_455 S
O197 C196 1.313 . S
C198 O199 1.245 . S
C198 O207 1.289 1_455 S
O199 C198 1.245 . S
C200 O201 1.245 1_655 S
C200 O202 1.289 . S
O201 C200 1.245 1_455 S
O202 Mg195 2.141 . S
O202 C200 1.289 . S
O203 Mg195 2.048 . S
O203 C196 1.195 1_655 S
O204 Mg195 2.048 . S
O204 C205 1.195 1_655 S
C205 O204 1.195 1_455 S
C205 O206 1.313 . S
O206 C205 1.313 . S
O207 Mg195 2.141 . S
O207 C198 1.289 1_655 S
C208 C209 1.391 . S
C208 C210 1.394 . S
C208 H224 0.931 . S
C209 C208 1.391 . S
C209 C213 1.376 . S
C210 C208 1.394 . S
C210 C211 1.369 . S
C210 C214 1.531 . S
C211 C210 1.369 . S
C211 C212 1.410 . S
C211 C219 1.503 . S
C212 C211 1.410 . S
C212 C213 1.392 . S
C212 C215 1.511 . S
C213 C209 1.376 . S
C213 C212 1.392 . S
C213 H225 0.929 . S
C214 C210 1.531 . S
C214 H226 0.960 . S
C214 H227 0.962 . S
C214 H228 0.960 . S
C215 C212 1.511 . S
C215 H229 0.961 . S
C215 H230 0.961 . S
C215 H231 0.961 . S
C216 C217 1.370 . S
C216 C218 1.363 . S
C216 H232 0.931 . S
C217 C216 1.370 . S
C217 C221 1.408 . S
C218 C216 1.363 . S
C218 C219 1.370 . S
C218 C222 1.524 . S
C219 C211 1.503 . S
C219 C218 1.370 . S
C219 C220 1.403 . S
C220 C219 1.403 . S
C220 C221 1.404 . S
C220 C223 1.539 . S
C221 C217 1.408 . S
C221 C220 1.404 . S
C221 H233 0.930 . S
C222 C218 1.524 . S
C222 H234 0.956 . S
C222 H235 0.961 . S
C222 H236 0.961 . S
C223 C220 1.539 . S
C223 H237 0.958 . S
C223 H238 0.961 . S
C223 H239 0.960 . S
H224 C208 0.931 . S
H225 C213 0.929 . S
H226 C214 0.960 . S
H227 C214 0.962 . S
H228 C214 0.960 . S
H229 C215 0.961 . S
H230 C215 0.961 . S
H231 C215 0.961 . S
H232 C216 0.931 . S
H233 C221 0.930 . S
H234 C222 0.956 . S
H235 C222 0.961 . S
H236 C222 0.961 . S
H237 C223 0.958 . S
H238 C223 0.961 . S
H239 C223 0.960 . S
C240 C241 1.391 . S
C240 C242 1.394 . S
C240 H256 0.931 . S
C241 C240 1.391 . S
C241 C245 1.376 . S
C242 C240 1.394 . S
C242 C243 1.369 . S
C242 C246 1.531 . S
C243 C242 1.369 . S
C243 C244 1.410 . S
C243 C251 1.503 . S
C244 C243 1.410 . S
C244 C245 1.392 . S
C244 C247 1.511 . S
C245 C241 1.376 . S
C245 C244 1.392 . S
C245 H257 0.929 . S
C246 C242 1.531 . S
C246 H258 0.960 . S
C246 H259 0.962 . S
C246 H260 0.960 . S
C247 C244 1.511 . S
C247 H261 0.961 . S
C247 H262 0.961 . S
C247 H263 0.961 . S
C248 C249 1.370 . S
C248 C250 1.363 . S
C248 H264 0.931 . S
C249 C248 1.370 . S
C249 C253 1.408 . S
C250 C248 1.363 . S
C250 C251 1.370 . S
C250 C254 1.524 . S
C251 C243 1.503 . S
C251 C250 1.370 . S
C251 C252 1.403 . S
C252 C251 1.403 . S
C252 C253 1.404 . S
C252 C255 1.539 . S
C253 C249 1.408 . S
C253 C252 1.404 . S
C253 H265 0.930 . S
C254 C250 1.524 . S
C254 H266 0.956 . S
C254 H267 0.961 . S
C254 H268 0.961 . S
C255 C252 1.539 . S
C255 H269 0.958 . S
C255 H270 0.961 . S
C255 H271 0.960 . S
H256 C240 0.931 . S
H257 C245 0.929 . S
H258 C246 0.960 . S
H259 C246 0.962 . S
H260 C246 0.960 . S
H261 C247 0.961 . S
H262 C247 0.961 . S
H263 C247 0.961 . S
H264 C248 0.931 . S
H265 C253 0.930 . S
H266 C254 0.956 . S
H267 C254 0.961 . S
H268 C254 0.961 . S
H269 C255 0.958 . S
H270 C255 0.961 . S
H271 C255 0.960 . S
C272 C273 1.391 . S
C272 C274 1.394 . S
C272 H288 0.931 . S
C273 C272 1.391 . S
C273 C277 1.376 . S
C274 C272 1.394 . S
C274 C275 1.369 . S
C274 C278 1.531 . S
C275 C274 1.369 . S
C275 C276 1.410 . S
C275 C283 1.503 . S
C276 C275 1.410 . S
C276 C277 1.392 . S
C276 C279 1.511 . S
C277 C273 1.376 . S
C277 C276 1.392 . S
C277 H289 0.929 . S
C278 C274 1.531 . S
C278 H290 0.960 . S
C278 H291 0.962 . S
C278 H292 0.960 . S
C279 C276 1.511 . S
C279 H293 0.961 . S
C279 H294 0.961 . S
C279 H295 0.961 . S
C280 C281 1.370 . S
C280 C282 1.363 . S
C280 H296 0.931 . S
C281 C280 1.370 . S
C281 C285 1.408 . S
C282 C280 1.363 . S
C282 C283 1.370 . S
C282 C286 1.524 . S
C283 C275 1.503 . S
C283 C282 1.370 . S
C283 C284 1.403 . S
C284 C283 1.403 . S
C284 C285 1.404 . S
C284 C287 1.539 . S
C285 C281 1.408 . S
C285 C284 1.404 . S
C285 H297 0.930 . S
C286 C282 1.524 . S
C286 H298 0.956 . S
C286 H299 0.961 . S
C286 H300 0.961 . S
C287 C284 1.539 . S
C287 H301 0.958 . S
C287 H302 0.961 . S
C287 H303 0.960 . S
H288 C272 0.931 . S
H289 C277 0.929 . S
H290 C278 0.960 . S
H291 C278 0.962 . S
H292 C278 0.960 . S
H293 C279 0.961 . S
H294 C279 0.961 . S
H295 C279 0.961 . S
H296 C280 0.931 . S
H297 C285 0.930 . S
H298 C286 0.956 . S
H299 C286 0.961 . S
H300 C286 0.961 . S
H301 C287 0.958 . S
H302 C287 0.961 . S
H303 C287 0.960 . S
C304 C305 1.391 . S
C304 C306 1.394 . S
C304 H320 0.931 . S
C305 C304 1.391 . S
C305 C309 1.376 . S
C306 C304 1.394 . S
C306 C307 1.369 . S
C306 C310 1.531 . S
C307 C306 1.369 . S
C307 C308 1.410 . S
C307 C315 1.503 . S
C308 C307 1.410 . S
C308 C309 1.392 . S
C308 C311 1.511 . S
C309 C305 1.376 . S
C309 C308 1.392 . S
C309 H321 0.945 . S
C310 C306 1.531 . S
C310 H322 0.960 . S
C310 H323 0.962 . S
C310 H324 0.960 . S
C311 C308 1.511 . S
C311 H325 0.961 . S
C311 H326 0.961 . S
C311 H327 0.961 . S
C312 C313 1.370 . S
C312 C314 1.363 . S
C312 H328 0.931 . S
C313 C312 1.370 . S
C313 C317 1.408 . S
C314 C312 1.363 . S
C314 C315 1.370 . S
C314 C318 1.524 . S
C315 C307 1.503 . S
C315 C314 1.370 . S
C315 C316 1.403 . S
C316 C315 1.403 . S
C316 C317 1.404 . S
C316 C319 1.539 . S
C317 C313 1.408 . S
C317 C316 1.404 . S
C317 H329 0.930 . S
C318 C314 1.524 . S
C318 H330 0.956 . S
C318 H331 0.961 . S
C318 H332 0.961 . S
C319 C316 1.539 . S
C319 H333 0.958 . S
C319 H334 0.961 . S
C319 H335 0.960 . S
H320 C304 0.931 . S
H321 C309 0.945 . S
H322 C310 0.960 . S
H323 C310 0.962 . S
H324 C310 0.960 . S
H325 C311 0.961 . S
H326 C311 0.961 . S
H327 C311 0.961 . S
H328 C312 0.931 . S
H329 C317 0.930 . S
H330 C318 0.956 . S
H331 C318 0.961 . S
H332 C318 0.961 . S
H333 C319 0.958 . S
H334 C319 0.961 . S
H335 C319 0.960 . S
C336 C337 1.391 . S
C336 C338 1.394 . S
C336 H352 0.931 1_565 S
C337 C336 1.391 . S
C337 C341 1.376 . S
C338 C336 1.394 . S
C338 C339 1.369 . S
C338 C342 1.531 . S
C339 C338 1.369 . S
C339 C340 1.410 . S
C339 C347 1.503 . S
C340 C339 1.410 . S
C340 C341 1.392 . S
C340 C343 1.511 . S
C341 C337 1.376 . S
C341 C340 1.392 . S
C341 H353 0.929 . S
C342 C338 1.531 . S
C342 H354 0.960 . S
C342 H355 0.962 . S
C342 H356 0.944 1_565 S
C343 C340 1.511 . S
C343 H357 0.961 . S
C343 H358 0.961 . S
C343 H359 0.961 . S
C344 C345 1.370 . S
C344 C346 1.363 . S
C344 H360 0.931 . S
C345 C344 1.370 . S
C345 C349 1.408 . S
C346 C344 1.363 . S
C346 C347 1.370 . S
C346 C350 1.524 . S
C347 C339 1.503 . S
C347 C346 1.370 . S
C347 C348 1.403 . S
C348 C347 1.403 . S
C348 C349 1.404 . S
C348 C351 1.539 . S
C349 C345 1.408 . S
C349 C348 1.404 . S
C349 H361 0.930 . S
C350 C346 1.524 . S
C350 H362 0.956 . S
C350 H363 0.961 . S
C350 H364 0.961 . S
C351 C348 1.539 . S
C351 H365 0.958 . S
C351 H366 0.961 . S
C351 H367 0.960 . S
H352 C336 0.931 1_545 S
H353 C341 0.929 . S
H354 C342 0.960 . S
H355 C342 0.962 . S
H356 C342 0.944 1_545 S
H357 C343 0.961 . S
H358 C343 0.961 . S
H359 C343 0.961 . S
H360 C344 0.931 . S
H361 C349 0.930 . S
H362 C350 0.956 . S
H363 C350 0.961 . S
H364 C350 0.961 . S
H365 C351 0.958 . S
H366 C351 0.961 . S
H367 C351 0.960 . S
C368 C369 1.391 . S
C368 C370 1.394 . S
C368 H384 0.931 . S
C369 C368 1.391 . S
C369 C373 1.376 . S
C370 C368 1.394 . S
C370 C371 1.369 . S
C370 C374 1.531 . S
C371 C370 1.369 . S
C371 C372 1.410 . S
C371 C379 1.503 . S
C372 C371 1.410 . S
C372 C373 1.392 . S
C372 C375 1.511 . S
C373 C369 1.376 . S
C373 C372 1.392 . S
C373 H385 0.929 . S
C374 C370 1.531 . S
C374 H386 0.960 . S
C374 H387 0.962 . S
C374 H388 0.960 . S
C375 C372 1.511 . S
C375 H389 0.961 . S
C375 H390 0.961 . S
C375 H391 0.961 . S
C376 C377 1.370 . S
C376 C378 1.363 . S
C376 H392 0.931 . S
C377 C376 1.370 . S
C377 C381 1.408 . S
C378 C376 1.363 . S
C378 C379 1.370 . S
C378 C382 1.524 . S
C379 C371 1.503 . S
C379 C378 1.370 . S
C379 C380 1.403 . S
C380 C379 1.403 . S
C380 C381 1.404 . S
C380 C383 1.539 . S
C381 C377 1.408 . S
C381 C380 1.404 . S
C381 H393 0.930 . S
C382 C378 1.524 . S
C382 H394 0.956 . S
C382 H395 0.961 . S
C382 H396 0.961 . S
C383 C380 1.539 . S
C383 H397 0.958 . S
C383 H398 0.961 . S
C383 H399 0.960 . S
H384 C368 0.931 . S
H385 C373 0.929 . S
H386 C374 0.960 . S
H387 C374 0.962 . S
H388 C374 0.960 . S
H389 C375 0.961 . S
H390 C375 0.961 . S
H391 C375 0.961 . S
H392 C376 0.931 . S
H393 C381 0.930 . S
H394 C382 0.956 . S
H395 C382 0.961 . S
H396 C382 0.961 . S
H397 C383 0.958 . S
H398 C383 0.961 . S
H399 C383 0.960 . S
C400 C401 1.391 . S
C400 C402 1.394 . S
C400 H416 0.931 . S
C401 C400 1.391 . S
C401 C405 1.376 . S
C402 C400 1.394 . S
C402 C403 1.369 . S
C402 C406 1.531 . S
C403 C402 1.369 . S
C403 C404 1.410 . S
C403 C411 1.503 . S
C404 C403 1.410 . S
C404 C405 1.392 . S
C404 C407 1.511 . S
C405 C401 1.376 . S
C405 C404 1.392 . S
C405 H417 0.929 1_455 S
C406 C402 1.531 . S
C406 H418 0.960 . S
C406 H419 0.962 . S
C406 H420 0.960 . S
C407 C404 1.511 . S
C407 H421 0.961 1_455 S
C407 H422 0.961 . S
C407 H423 0.961 . S
C408 C409 1.370 . S
C408 C410 1.363 . S
C408 H424 0.931 . S
C409 C408 1.370 . S
C409 C413 1.408 . S
C410 C408 1.363 . S
C410 C411 1.370 . S
C410 C414 1.524 . S
C411 C403 1.503 . S
C411 C410 1.370 . S
C411 C412 1.403 . S
C412 C411 1.403 . S
C412 C413 1.404 . S
C412 C415 1.539 . S
C413 C409 1.408 . S
C413 C412 1.404 . S
C413 H425 0.930 . S
C414 C410 1.524 . S
C414 H426 0.956 . S
C414 H427 0.961 . S
C414 H428 0.961 . S
C415 C412 1.539 . S
C415 H429 0.958 . S
C415 H430 0.961 . S
C415 H431 0.960 . S
H416 C400 0.931 . S
H417 C405 0.929 1_655 S
H418 C406 0.960 . S
H419 C406 0.962 . S
H420 C406 0.960 . S
H421 C407 0.961 1_655 S
H422 C407 0.961 . S
H423 C407 0.961 . S
H424 C408 0.931 . S
H425 C413 0.930 . S
H426 C414 0.956 . S
H427 C414 0.961 . S
H428 C414 0.961 . S
H429 C415 0.958 . S
H430 C415 0.961 . S
H431 C415 0.960 . S
C432 C433 1.391 . S
C432 C434 1.394 . S
C432 H448 0.931 . S
C433 C432 1.391 . S
C433 C437 1.376 . S
C434 C432 1.394 . S
C434 C435 1.369 . S
C434 C438 1.531 . S
C435 C434 1.369 . S
C435 C436 1.410 . S
C435 C443 1.503 . S
C436 C435 1.410 . S
C436 C437 1.392 . S
C436 C439 1.511 . S
C437 C433 1.376 . S
C437 C436 1.392 . S
C437 H449 0.946 . S
C438 C434 1.531 . S
C438 H450 0.960 . S
C438 H451 0.962 . S
C438 H452 0.960 . S
C439 C436 1.511 . S
C439 H453 0.961 . S
C439 H454 0.961 . S
C439 H455 0.961 . S
C440 C441 1.370 . S
C440 C442 1.363 . S
C440 H456 0.931 1_545 S
C441 C440 1.370 . S
C441 C445 1.408 . S
C442 C440 1.363 . S
C442 C443 1.370 . S
C442 C446 1.524 . S
C443 C435 1.503 . S
C443 C442 1.370 . S
C443 C444 1.403 . S
C444 C443 1.403 . S
C444 C445 1.404 . S
C444 C447 1.539 . S
C445 C441 1.408 . S
C445 C444 1.404 . S
C445 H457 0.930 . S
C446 C442 1.524 . S
C446 H458 0.956 . S
C446 H459 0.961 . S
C446 H460 0.961 . S
C447 C444 1.539 . S
C447 H461 0.958 . S
C447 H462 0.961 . S
C447 H463 0.960 . S
H448 C432 0.931 . S
H449 C437 0.946 . S
H450 C438 0.960 . S
H451 C438 0.962 . S
H452 C438 0.960 . S
H453 C439 0.961 . S
H454 C439 0.961 . S
H455 C439 0.961 . S
H456 C440 0.931 1_565 S
H457 C445 0.930 . S
H458 C446 0.956 . S
H459 C446 0.961 . S
H460 C446 0.961 . S
H461 C447 0.958 . S
H462 C447 0.961 . S
H463 C447 0.960 . S
C464 C465 1.391 . S
C464 C466 1.394 . S
C464 H480 0.931 . S
C465 C464 1.391 . S
C465 C469 1.376 . S
C466 C464 1.394 . S
C466 C467 1.369 . S
C466 C470 1.531 . S
C467 C466 1.369 . S
C467 C468 1.410 . S
C467 C475 1.503 . S
C468 C467 1.410 . S
C468 C469 1.392 . S
C468 C471 1.511 1_565 S
C469 C465 1.376 . S
C469 C468 1.392 . S
C469 H481 0.929 1_565 S
C470 C466 1.531 . S
C470 H482 0.960 . S
C470 H483 0.962 . S
C470 H484 0.960 . S
C471 C468 1.511 1_545 S
C471 H485 0.961 . S
C471 H486 0.961 . S
C471 H487 0.961 . S
C472 C473 1.370 1_545 S
C472 C474 1.363 . S
C472 H488 0.931 . S
C473 C472 1.370 1_565 S
C473 C477 1.408 . S
C474 C472 1.363 . S
C474 C475 1.370 1_545 S
C474 C478 1.524 . S
C475 C467 1.503 . S
C475 C474 1.370 1_565 S
C475 C476 1.403 . S
C476 C475 1.403 . S
C476 C477 1.404 . S
C476 C479 1.539 . S
C477 C473 1.408 . S
C477 C476 1.404 . S
C477 H489 0.930 . S
C478 C474 1.524 . S
C478 H490 0.956 . S
C478 H491 0.961 . S
C478 H492 0.961 . S
C479 C476 1.539 . S
C479 H493 0.958 . S
C479 H494 0.961 . S
C479 H495 0.960 . S
H480 C464 0.931 . S
H481 C469 0.929 1_545 S
H482 C470 0.960 . S
H483 C470 0.962 . S
H484 C470 0.960 . S
H485 C471 0.961 . S
H486 C471 0.961 . S
H487 C471 0.961 . S
H488 C472 0.931 . S
H489 C477 0.930 . S
H490 C478 0.956 . S
H491 C478 0.961 . S
H492 C478 0.961 . S
H493 C479 0.958 . S
H494 C479 0.961 . S
H495 C479 0.960 . S
C496 C497 1.391 . S
C496 C498 1.394 . S
C496 H512 0.931 . S
C497 C496 1.391 . S
C497 C501 1.376 . S
C498 C496 1.394 . S
C498 C499 1.369 . S
C498 C502 1.531 . S
C499 C498 1.369 . S
C499 C500 1.410 . S
C499 C507 1.503 . S
C500 C499 1.410 . S
C500 C501 1.392 . S
C500 C503 1.511 . S
C501 C497 1.376 . S
C501 C500 1.392 . S
C501 H513 0.929 . S
C502 C498 1.531 . S
C502 H514 0.960 . S
C502 H515 0.962 . S
C502 H516 0.960 . S
C503 C500 1.511 . S
C503 H517 0.961 . S
C503 H518 0.961 . S
C503 H519 0.961 . S
C504 C505 1.370 . S
C504 C506 1.363 . S
C504 H520 0.931 . S
C505 C504 1.370 . S
C505 C509 1.408 . S
C506 C504 1.363 . S
C506 C507 1.370 . S
C506 C510 1.524 . S
C507 C499 1.503 . S
C507 C506 1.370 . S
C507 C508 1.403 . S
C508 C507 1.403 . S
C508 C509 1.404 . S
C508 C511 1.539 . S
C509 C505 1.408 . S
C509 C508 1.404 . S
C509 H521 0.930 . S
C510 C506 1.524 . S
C510 H522 0.956 . S
C510 H523 0.961 . S
C510 H524 0.961 . S
C511 C508 1.539 . S
C511 H525 0.958 . S
C511 H526 0.961 . S
C511 H527 0.960 . S
H512 C496 0.931 . S
H513 C501 0.929 . S
H514 C502 0.960 . S
H515 C502 0.962 . S
H516 C502 0.960 . S
H517 C503 0.961 . S
H518 C503 0.961 . S
H519 C503 0.961 . S
H520 C504 0.931 . S
H521 C509 0.930 . S
H522 C510 0.956 . S
H523 C510 0.961 . S
H524 C510 0.961 . S
H525 C511 0.958 . S
H526 C511 0.961 . S
H527 C511 0.960 . S
C528 C529 1.391 . S
C528 C530 1.394 . S
C528 H544 0.931 . S
C529 C528 1.391 . S
C529 C533 1.376 . S
C530 C528 1.394 . S
C530 C531 1.369 . S
C530 C534 1.531 . S
C531 C530 1.369 . S
C531 C532 1.410 . S
C531 C539 1.503 . S
C532 C531 1.410 . S
C532 C533 1.392 . S
C532 C535 1.511 . S
C533 C529 1.376 . S
C533 C532 1.392 . S
C533 H545 0.929 . S
C534 C530 1.531 . S
C534 H546 0.960 . S
C534 H547 0.962 . S
C534 H548 0.960 . S
C535 C532 1.511 . S
C535 H549 0.961 . S
C535 H550 0.961 . S
C535 H551 0.961 . S
C536 C537 1.370 . S
C536 C538 1.363 . S
C536 H552 0.931 . S
C537 C536 1.370 . S
C537 C541 1.408 . S
C538 C536 1.363 . S
C538 C539 1.370 . S
C538 C542 1.524 . S
C539 C531 1.503 . S
C539 C538 1.370 . S
C539 C540 1.403 . S
C540 C539 1.403 . S
C540 C541 1.404 . S
C540 C543 1.539 . S
C541 C537 1.408 . S
C541 C540 1.404 . S
C541 H553 0.930 . S
C542 C538 1.524 . S
C542 H554 0.956 . S
C542 H555 0.961 . S
C542 H556 0.961 . S
C543 C540 1.539 . S
C543 H557 0.958 . S
C543 H558 0.961 . S
C543 H559 0.960 . S
H544 C528 0.931 . S
H545 C533 0.929 . S
H546 C534 0.960 . S
H547 C534 0.962 . S
H548 C534 0.960 . S
H549 C535 0.961 . S
H550 C535 0.961 . S
H551 C535 0.961 . S
H552 C536 0.931 . S
H553 C541 0.930 . S
H554 C542 0.956 . S
H555 C542 0.961 . S
H556 C542 0.961 . S
H557 C543 0.958 . S
H558 C543 0.961 . S
H559 C543 0.960 . S
C560 C561 1.391 . S
C560 C562 1.394 . S
C560 H576 0.931 . S
C561 C560 1.391 . S
C561 C565 1.376 . S
C562 C560 1.394 . S
C562 C563 1.369 . S
C562 C566 1.531 . S
C563 C562 1.369 . S
C563 C564 1.410 . S
C563 C571 1.503 . S
C564 C563 1.410 . S
C564 C565 1.392 . S
C564 C567 1.511 . S
C565 C561 1.376 . S
C565 C564 1.392 . S
C565 H577 0.929 . S
C566 C562 1.531 . S
C566 H578 0.960 . S
C566 H579 0.962 1_655 S
C566 H580 0.960 . S
C567 C564 1.511 . S
C567 H581 0.961 . S
C567 H582 0.961 . S
C567 H583 0.961 . S
C568 C569 1.370 1_455 S
C568 C570 1.363 . S
C568 H584 0.931 . S
C569 C568 1.370 1_655 S
C569 C573 1.408 . S
C570 C568 1.363 . S
C570 C571 1.370 1_455 S
C570 C574 1.524 . S
C571 C563 1.503 . S
C571 C570 1.370 1_655 S
C571 C572 1.403 . S
C572 C571 1.403 . S
C572 C573 1.404 . S
C572 C575 1.539 . S
C573 C569 1.408 . S
C573 C572 1.404 . S
C573 H585 0.930 . S
C574 C570 1.524 . S
C574 H586 0.956 . S
C574 H587 0.961 . S
C574 H588 0.961 . S
C575 C572 1.539 . S
C575 H589 0.958 . S
C575 H590 0.961 . S
C575 H591 0.960 . S
H576 C560 0.931 . S
H577 C565 0.929 . S
H578 C566 0.960 . S
H579 C566 0.962 1_455 S
H580 C566 0.960 . S
H581 C567 0.961 . S
H582 C567 0.961 . S
H583 C567 0.961 . S
H584 C568 0.931 . S
H585 C573 0.930 . S
H586 C574 0.956 . S
H587 C574 0.961 . S
H588 C574 0.961 . S
H589 C575 0.958 . S
H590 C575 0.961 . S
H591 C575 0.960 . S
C592 C593 1.391 1_565 S
C592 C594 1.394 . S
C592 H608 0.931 . S
C593 C592 1.391 1_545 S
C593 C597 1.376 . S
C594 C592 1.394 . S
C594 C595 1.369 1_565 S
C594 C598 1.531 . S
C595 C594 1.369 1_545 S
C595 C596 1.410 . S
C595 C603 1.503 . S
C596 C595 1.410 . S
C596 C597 1.392 . S
C596 C599 1.511 . S
C597 C593 1.376 . S
C597 C596 1.392 . S
C597 H609 0.929 . S
C598 C594 1.531 . S
C598 H610 0.960 . S
C598 H611 0.962 . S
C598 H612 0.960 . S
C599 C596 1.511 . S
C599 H613 0.961 . S
C599 H614 0.961 . S
C599 H615 0.961 . S
C600 C601 1.387 . S
C600 C602 1.363 . S
C600 H616 0.931 . S
C601 C600 1.387 . S
C601 C605 1.393 1_545 S
C602 C600 1.363 . S
C602 C603 1.370 . S
C602 C606 1.524 . S
C603 C595 1.503 . S
C603 C602 1.370 . S
C603 C604 1.403 1_545 S
C604 C603 1.403 1_565 S
C604 C605 1.404 . S
C604 C607 1.539 . S
C605 C601 1.393 1_565 S
C605 C604 1.404 . S
C605 H617 0.930 . S
C606 C602 1.524 . S
C606 H618 0.956 . S
C606 H619 0.961 . S
C606 H620 0.961 . S
C607 C604 1.539 . S
C607 H621 0.958 . S
C607 H622 0.961 . S
C607 H623 0.960 . S
H608 C592 0.931 . S
H609 C597 0.929 . S
H610 C598 0.960 . S
H611 C598 0.962 . S
H612 C598 0.960 . S
H613 C599 0.961 . S
H614 C599 0.961 . S
H615 C599 0.961 . S
H616 C600 0.931 . S
H617 C605 0.930 . S
H618 C606 0.956 . S
H619 C606 0.961 . S
H620 C606 0.961 . S
H621 C607 0.958 . S
H622 C607 0.961 . S
H623 C607 0.960 . S
C624 C625 1.391 . S
C624 C626 1.394 . S
C624 H640 0.931 . S
C625 C624 1.391 . S
C625 C629 1.376 . S
C626 C624 1.394 . S
C626 C627 1.369 . S
C626 C630 1.531 . S
C627 C626 1.369 . S
C627 C628 1.410 . S
C627 C635 1.503 . S
C628 C627 1.410 . S
C628 C629 1.392 . S
C628 C631 1.511 . S
C629 C625 1.376 . S
C629 C628 1.392 . S
C629 H641 0.929 . S
C630 C626 1.531 . S
C630 H642 0.960 . S
C630 H643 0.962 . S
C630 H644 0.960 . S
C631 C628 1.511 . S
C631 H645 0.961 . S
C631 H646 0.961 . S
C631 H647 0.961 . S
C632 C633 1.370 . S
C632 C634 1.363 . S
C632 H648 0.931 . S
C633 C632 1.370 . S
C633 C637 1.408 . S
C634 C632 1.363 . S
C634 C635 1.370 . S
C634 C638 1.524 . S
C635 C627 1.503 . S
C635 C634 1.370 . S
C635 C636 1.403 . S
C636 C635 1.403 . S
C636 C637 1.404 . S
C636 C639 1.539 . S
C637 C633 1.408 . S
C637 C636 1.404 . S
C637 H649 0.930 . S
C638 C634 1.524 . S
C638 H650 0.956 . S
C638 H651 0.961 . S
C638 H652 0.961 . S
C639 C636 1.539 . S
C639 H653 0.958 . S
C639 H654 0.961 . S
C639 H655 0.960 . S
H640 C624 0.931 . S
H641 C629 0.929 . S
H642 C630 0.960 . S
H643 C630 0.962 . S
H644 C630 0.960 . S
H645 C631 0.961 . S
H646 C631 0.961 . S
H647 C631 0.961 . S
H648 C632 0.931 . S
H649 C637 0.930 . S
H650 C638 0.956 . S
H651 C638 0.961 . S
H652 C638 0.961 . S
H653 C639 0.958 . S
H654 C639 0.961 . S
H655 C639 0.960 . S
C656 C657 1.391 . S
C656 C658 1.394 . S
C656 H672 0.931 . S
C657 C656 1.391 . S
C657 C661 1.376 . S
C658 C656 1.394 . S
C658 C659 1.369 . S
C658 C662 1.531 . S
C659 C658 1.369 . S
C659 C660 1.410 . S
C659 C667 1.503 . S
C660 C659 1.410 . S
C660 C661 1.392 . S
C660 C663 1.511 . S
C661 C657 1.376 . S
C661 C660 1.392 . S
C661 H673 0.929 . S
C662 C658 1.531 . S
C662 H674 0.960 . S
C662 H675 0.962 . S
C662 H676 0.960 . S
C663 C660 1.511 . S
C663 H677 0.961 . S
C663 H678 0.961 . S
C663 H679 0.961 . S
C664 C665 1.370 . S
C664 C666 1.363 . S
C664 H680 0.931 . S
C665 C664 1.370 . S
C665 C669 1.408 . S
C666 C664 1.363 . S
C666 C667 1.370 . S
C666 C670 1.524 . S
C667 C659 1.503 . S
C667 C666 1.370 . S
C667 C668 1.403 . S
C668 C667 1.403 . S
C668 C669 1.404 . S
C668 C671 1.539 . S
C669 C665 1.408 . S
C669 C668 1.404 . S
C669 H681 0.930 . S
C670 C666 1.524 . S
C670 H682 0.956 . S
C670 H683 0.961 . S
C670 H684 0.961 . S
C671 C668 1.539 . S
C671 H685 0.958 . S
C671 H686 0.961 . S
C671 H687 0.960 . S
H672 C656 0.931 . S
H673 C661 0.929 . S
H674 C662 0.960 . S
H675 C662 0.962 . S
H676 C662 0.960 . S
H677 C663 0.961 . S
H678 C663 0.961 . S
H679 C663 0.961 . S
H680 C664 0.931 . S
H681 C669 0.930 . S
H682 C670 0.956 . S
H683 C670 0.961 . S
H684 C670 0.961 . S
H685 C671 0.958 . S
H686 C671 0.961 . S
H687 C671 0.960 . S
C688 C689 1.391 . S
C688 C690 1.396 . S
C688 H704 0.931 1_455 S
C689 C688 1.391 . S
C689 C693 1.376 . S
C690 C688 1.396 . S
C690 C691 1.384 . S
C690 C694 1.513 1_455 S
C691 C690 1.384 . S
C691 C692 1.410 . S
C691 C699 1.503 . S
C692 C691 1.410 . S
C692 C693 1.392 . S
C692 C695 1.511 . S
C693 C689 1.376 . S
C693 C692 1.392 . S
C693 H705 0.929 . S
C694 C690 1.513 1_655 S
C694 H706 0.960 . S
C694 H707 0.962 . S
C694 H708 0.960 . S
C695 C692 1.511 . S
C695 H709 0.961 . S
C695 H710 0.961 . S
C695 H711 0.961 . S
C696 C697 1.370 1_655 S
C696 C698 1.363 . S
C696 H712 0.931 . S
C697 C696 1.370 1_455 S
C697 C701 1.408 . S
C698 C696 1.363 . S
C698 C699 1.370 1_655 S
C698 C702 1.524 . S
C699 C691 1.503 . S
C699 C698 1.370 1_455 S
C699 C700 1.403 . S
C700 C699 1.403 . S
C700 C701 1.404 . S
C700 C703 1.539 . S
C701 C697 1.408 . S
C701 C700 1.404 . S
C701 H713 0.930 . S
C702 C698 1.524 . S
C702 H714 0.956 . S
C702 H715 0.961 . S
C702 H716 0.961 . S
C703 C700 1.539 . S
C703 H717 0.958 . S
C703 H718 0.961 . S
C703 H719 0.960 . S
H704 C688 0.931 1_655 S
H705 C693 0.929 . S
H706 C694 0.960 . S
H707 C694 0.962 . S
H708 C694 0.960 . S
H709 C695 0.961 . S
H710 C695 0.961 . S
H711 C695 0.961 . S
H712 C696 0.931 . S
H713 C701 0.930 . S
H714 C702 0.956 . S
H715 C702 0.961 . S
H716 C702 0.961 . S
H717 C703 0.958 . S
H718 C703 0.961 . S
H719 C703 0.960 . S
C720 C721 1.391 . S
C720 C722 1.394 . S
C720 H736 0.931 . S
C721 C720 1.391 . S
C721 C725 1.376 . S
C722 C720 1.394 . S
C722 C723 1.369 . S
C722 C726 1.531 . S
C723 C722 1.369 . S
C723 C724 1.410 . S
C723 C731 1.503 . S
C724 C723 1.410 . S
C724 C725 1.392 . S
C724 C727 1.511 . S
C725 C721 1.376 . S
C725 C724 1.392 . S
C725 H737 0.929 . S
C726 C722 1.531 . S
C726 H738 0.960 . S
C726 H739 0.962 1_545 S
C726 H740 0.960 . S
C727 C724 1.511 . S
C727 H741 0.961 . S
C727 H742 0.961 . S
C727 H743 0.961 . S
C728 C729 1.370 1_565 S
C728 C730 1.363 . S
C728 H744 0.931 . S
C729 C728 1.370 1_545 S
C729 C733 1.408 . S
C730 C728 1.363 . S
C730 C731 1.370 1_565 S
C730 C734 1.524 . S
C731 C723 1.503 . S
C731 C730 1.370 1_545 S
C731 C732 1.403 . S
C732 C731 1.403 . S
C732 C733 1.404 . S
C732 C735 1.539 . S
C733 C729 1.408 . S
C733 C732 1.404 . S
C733 H745 0.930 . S
C734 C730 1.524 . S
C734 H746 0.956 . S
C734 H747 0.961 . S
C734 H748 0.961 . S
C735 C732 1.539 . S
C735 H749 0.958 . S
C735 H750 0.961 . S
C735 H751 0.960 . S
H736 C720 0.931 . S
H737 C725 0.929 . S
H738 C726 0.960 . S
H739 C726 0.962 1_565 S
H740 C726 0.960 . S
H741 C727 0.961 . S
H742 C727 0.961 . S
H743 C727 0.961 . S
H744 C728 0.931 . S
H745 C733 0.930 . S
H746 C734 0.956 . S
H747 C734 0.961 . S
H748 C734 0.961 . S
H749 C735 0.958 . S
H750 C735 0.961 . S
H751 C735 0.960 . S
C752 C753 1.391 . S
C752 C754 1.394 . S
C752 H768 0.931 . S
C753 C752 1.391 . S
C753 C757 1.376 . S
C754 C752 1.394 . S
C754 C755 1.369 . S
C754 C758 1.531 . S
C755 C754 1.369 . S
C755 C756 1.410 . S
C755 C763 1.503 . S
C756 C755 1.410 . S
C756 C757 1.392 . S
C756 C759 1.511 . S
C757 C753 1.376 . S
C757 C756 1.392 . S
C757 H769 0.929 . S
C758 C754 1.531 . S
C758 H770 0.960 . S
C758 H771 0.962 . S
C758 H772 0.960 . S
C759 C756 1.511 . S
C759 H773 0.961 . S
C759 H774 0.961 . S
C759 H775 0.961 . S
C760 C761 1.370 . S
C760 C762 1.363 . S
C760 H776 0.931 . S
C761 C760 1.370 . S
C761 C765 1.408 . S
C762 C760 1.363 . S
C762 C763 1.370 . S
C762 C766 1.524 . S
C763 C755 1.503 . S
C763 C762 1.370 . S
C763 C764 1.403 . S
C764 C763 1.403 . S
C764 C765 1.404 . S
C764 C767 1.539 . S
C765 C761 1.408 . S
C765 C764 1.404 . S
C765 H777 0.930 . S
C766 C762 1.524 . S
C766 H778 0.956 . S
C766 H779 0.961 . S
C766 H780 0.961 . S
C767 C764 1.539 . S
C767 H781 0.958 . S
C767 H782 0.961 . S
C767 H783 0.960 . S
H768 C752 0.931 . S
H769 C757 0.929 . S
H770 C758 0.960 . S
H771 C758 0.962 . S
H772 C758 0.960 . S
H773 C759 0.961 . S
H774 C759 0.961 . S
H775 C759 0.961 . S
H776 C760 0.931 . S
H777 C765 0.930 . S
H778 C766 0.956 . S
H779 C766 0.961 . S
H780 C766 0.961 . S
H781 C767 0.958 . S
H782 C767 0.961 . S
H783 C767 0.960 . S
C784 C785 1.391 . S
C784 C786 1.394 . S
C784 H800 0.931 . S
C785 C784 1.391 . S
C785 C789 1.376 . S
C786 C784 1.394 . S
C786 C787 1.369 . S
C786 C790 1.531 . S
C787 C786 1.369 . S
C787 C788 1.410 . S
C787 C795 1.503 . S
C788 C787 1.410 . S
C788 C789 1.392 . S
C788 C791 1.511 . S
C789 C785 1.376 . S
C789 C788 1.392 . S
C789 H801 0.929 . S
C790 C786 1.531 . S
C790 H802 0.960 . S
C790 H803 0.962 . S
C790 H804 0.960 . S
C791 C788 1.511 . S
C791 H805 0.961 . S
C791 H806 0.961 . S
C791 H807 0.961 . S
C792 C793 1.370 . S
C792 C794 1.363 . S
C792 H808 0.931 . S
C793 C792 1.370 . S
C793 C797 1.408 . S
C794 C792 1.363 . S
C794 C795 1.370 . S
C794 C798 1.524 . S
C795 C787 1.503 . S
C795 C794 1.370 . S
C795 C796 1.403 . S
C796 C795 1.403 . S
C796 C797 1.404 . S
C796 C799 1.539 . S
C797 C793 1.408 . S
C797 C796 1.404 . S
C797 H809 0.930 . S
C798 C794 1.524 . S
C798 H810 0.956 . S
C798 H811 0.961 . S
C798 H812 0.961 . S
C799 C796 1.539 . S
C799 H813 0.958 . S
C799 H814 0.961 . S
C799 H815 0.960 . S
H800 C784 0.931 . S
H801 C789 0.929 . S
H802 C790 0.960 . S
H803 C790 0.962 . S
H804 C790 0.960 . S
H805 C791 0.961 . S
H806 C791 0.961 . S
H807 C791 0.961 . S
H808 C792 0.931 . S
H809 C797 0.930 . S
H810 C798 0.956 . S
H811 C798 0.961 . S
H812 C798 0.961 . S
H813 C799 0.958 . S
H814 C799 0.961 . S
H815 C799 0.960 . S
C816 C817 1.378 1_655 S
C816 C818 1.395 . S
C816 H832 0.942 . S
C817 C816 1.378 1_455 S
C817 C821 1.376 . S
C818 C816 1.395 . S
C818 C819 1.369 1_655 S
C818 C822 1.531 . S
C819 C818 1.369 1_455 S
C819 C820 1.410 . S
C819 C827 1.503 . S
C820 C819 1.410 . S
C820 C821 1.392 . S
C820 C823 1.511 . S
C821 C817 1.376 . S
C821 C820 1.392 . S
C821 H833 0.929 . S
C822 C818 1.531 . S
C822 H834 0.960 . S
C822 H835 0.962 . S
C822 H836 0.960 . S
C823 C820 1.511 . S
C823 H837 0.961 . S
C823 H838 0.961 . S
C823 H839 0.961 . S
C824 C825 1.370 1_655 S
C824 C826 1.363 . S
C824 H840 0.931 . S
C825 C824 1.370 1_455 S
C825 C829 1.408 . S
C826 C824 1.363 . S
C826 C827 1.370 1_655 S
C826 C830 1.524 . S
C827 C819 1.503 . S
C827 C826 1.370 1_455 S
C827 C828 1.403 . S
C828 C827 1.403 . S
C828 C829 1.404 . S
C828 C831 1.539 . S
C829 C825 1.408 . S
C829 C828 1.404 . S
C829 H841 0.930 . S
C830 C826 1.524 . S
C830 H842 0.956 . S
C830 H843 0.961 . S
C830 H844 0.961 . S
C831 C828 1.539 . S
C831 H845 0.958 . S
C831 H846 0.961 . S
C831 H847 0.960 . S
H832 C816 0.942 . S
H833 C821 0.929 . S
H834 C822 0.960 . S
H835 C822 0.962 . S
H836 C822 0.960 . S
H837 C823 0.961 . S
H838 C823 0.961 . S
H839 C823 0.961 . S
H840 C824 0.931 . S
H841 C829 0.930 . S
H842 C830 0.956 . S
H843 C830 0.961 . S
H844 C830 0.961 . S
H845 C831 0.958 . S
H846 C831 0.961 . S
H847 C831 0.960 . S
C848 C849 1.391 . S
C848 C850 1.394 . S
C848 H864 0.931 . S
C849 C848 1.391 . S
C849 C853 1.376 . S
C850 C848 1.394 . S
C850 C851 1.369 . S
C850 C854 1.531 . S
C851 C850 1.369 . S
C851 C852 1.410 . S
C851 C859 1.503 . S
C852 C851 1.410 . S
C852 C853 1.392 . S
C852 C855 1.511 . S
C853 C849 1.376 . S
C853 C852 1.392 . S
C853 H865 0.929 1_565 S
C854 C850 1.531 . S
C854 H866 0.960 . S
C854 H867 0.962 . S
C854 H868 0.960 . S
C855 C852 1.511 . S
C855 H869 0.961 1_565 S
C855 H870 0.967 . S
C855 H871 0.961 . S
C856 C857 1.370 1_545 S
C856 C858 1.363 . S
C856 H872 0.931 . S
C857 C856 1.370 1_565 S
C857 C861 1.408 . S
C858 C856 1.363 . S
C858 C859 1.370 1_545 S
C858 C862 1.524 . S
C859 C851 1.503 . S
C859 C858 1.370 1_565 S
C859 C860 1.403 . S
C860 C859 1.403 . S
C860 C861 1.404 . S
C860 C863 1.539 . S
C861 C857 1.408 . S
C861 C860 1.404 . S
C861 H873 0.930 . S
C862 C858 1.524 . S
C862 H874 0.956 . S
C862 H875 0.961 . S
C862 H876 0.961 . S
C863 C860 1.539 . S
C863 H877 0.958 . S
C863 H878 0.961 . S
C863 H879 0.960 . S
H864 C848 0.931 . S
H865 C853 0.929 1_545 S
H866 C854 0.960 . S
H867 C854 0.962 . S
H868 C854 0.960 . S
H869 C855 0.961 1_545 S
H870 C855 0.967 . S
H871 C855 0.961 . S
H872 C856 0.931 . S
H873 C861 0.930 . S
H874 C862 0.956 . S
H875 C862 0.961 . S
H876 C862 0.961 . S
H877 C863 0.958 . S
H878 C863 0.961 . S
H879 C863 0.960 . S
C880 C881 1.391 . S
C880 C882 1.394 . S
C880 H896 0.931 . S
C881 C880 1.391 . S
C881 C885 1.376 . S
C882 C880 1.394 . S
C882 C883 1.369 . S
C882 C886 1.531 . S
C883 C882 1.369 . S
C883 C884 1.410 . S
C883 C891 1.503 . S
C884 C883 1.410 . S
C884 C885 1.392 . S
C884 C887 1.511 . S
C885 C881 1.376 . S
C885 C884 1.392 . S
C885 H897 0.929 . S
C886 C882 1.531 . S
C886 H898 0.960 . S
C886 H899 0.962 . S
C886 H900 0.960 . S
C887 C884 1.511 . S
C887 H901 0.961 . S
C887 H902 0.961 . S
C887 H903 0.961 . S
C888 C889 1.370 . S
C888 C890 1.363 . S
C888 H904 0.931 . S
C889 C888 1.370 . S
C889 C893 1.408 . S
C890 C888 1.363 . S
C890 C891 1.370 . S
C890 C894 1.524 . S
C891 C883 1.503 . S
C891 C890 1.370 . S
C891 C892 1.403 . S
C892 C891 1.403 . S
C892 C893 1.404 . S
C892 C895 1.539 . S
C893 C889 1.408 . S
C893 C892 1.404 . S
C893 H905 0.930 . S
C894 C890 1.524 . S
C894 H906 0.956 . S
C894 H907 0.961 . S
C894 H908 0.961 . S
C895 C892 1.539 . S
C895 H909 0.958 . S
C895 H910 0.961 . S
C895 H911 0.960 . S
H896 C880 0.931 . S
H897 C885 0.929 . S
H898 C886 0.960 . S
H899 C886 0.962 . S
H900 C886 0.960 . S
H901 C887 0.961 . S
H902 C887 0.961 . S
H903 C887 0.961 . S
H904 C888 0.931 . S
H905 C893 0.930 . S
H906 C894 0.956 . S
H907 C894 0.961 . S
H908 C894 0.961 . S
H909 C895 0.958 . S
H910 C895 0.961 . S
H911 C895 0.960 . S
C912 C913 1.391 . S
C912 C914 1.394 . S
C912 H928 0.931 . S
C913 C912 1.391 . S
C913 C917 1.376 . S
C914 C912 1.394 . S
C914 C915 1.369 . S
C914 C918 1.531 . S
C915 C914 1.369 . S
C915 C916 1.410 . S
C915 C923 1.503 . S
C916 C915 1.410 . S
C916 C917 1.392 . S
C916 C919 1.511 . S
C917 C913 1.376 . S
C917 C916 1.392 . S
C917 H929 0.929 . S
C918 C914 1.531 . S
C918 H930 0.960 . S
C918 H931 0.962 . S
C918 H932 0.960 . S
C919 C916 1.511 . S
C919 H933 0.961 . S
C919 H934 0.961 . S
C919 H935 0.961 . S
C920 C921 1.370 . S
C920 C922 1.363 . S
C920 H936 0.931 . S
C921 C920 1.370 . S
C921 C925 1.408 . S
C922 C920 1.363 . S
C922 C923 1.370 . S
C922 C926 1.524 . S
C923 C915 1.503 . S
C923 C922 1.370 . S
C923 C924 1.403 . S
C924 C923 1.403 . S
C924 C925 1.404 . S
C924 C927 1.539 . S
C925 C921 1.408 . S
C925 C924 1.404 . S
C925 H937 0.930 . S
C926 C922 1.524 . S
C926 H938 0.956 . S
C926 H939 0.961 . S
C926 H940 0.961 . S
C927 C924 1.539 . S
C927 H941 0.958 . S
C927 H942 0.961 . S
C927 H943 0.960 . S
H928 C912 0.931 . S
H929 C917 0.929 . S
H930 C918 0.960 . S
H931 C918 0.962 . S
H932 C918 0.960 . S
H933 C919 0.961 . S
H934 C919 0.961 . S
H935 C919 0.961 . S
H936 C920 0.931 . S
H937 C925 0.930 . S
H938 C926 0.956 . S
H939 C926 0.961 . S
H940 C926 0.961 . S
H941 C927 0.958 . S
H942 C927 0.961 . S
H943 C927 0.960 . S
C944 C945 1.391 1_455 S
C944 C946 1.394 . S
C944 H960 0.931 . S
C945 C944 1.391 1_655 S
C945 C949 1.376 . S
C946 C944 1.394 . S
C946 C947 1.369 1_455 S
C946 C950 1.531 . S
C947 C946 1.369 1_655 S
C947 C948 1.410 . S
C947 C955 1.503 . S
C948 C947 1.410 . S
C948 C949 1.392 . S
C948 C951 1.511 . S
C949 C945 1.376 . S
C949 C948 1.392 . S
C949 H961 0.929 . S
C950 C946 1.531 . S
C950 H962 0.960 . S
C950 H963 0.962 . S
C950 H964 0.960 . S
C951 C948 1.511 . S
C951 H965 0.961 . S
C951 H966 0.961 . S
C951 H967 0.961 . S
C952 C953 1.370 . S
C952 C954 1.363 . S
C952 H968 0.931 . S
C953 C952 1.370 . S
C953 C957 1.408 . S
C954 C952 1.363 . S
C954 C955 1.370 . S
C954 C958 1.524 . S
C955 C947 1.503 . S
C955 C954 1.370 . S
C955 C956 1.403 . S
C956 C955 1.403 . S
C956 C957 1.404 . S
C956 C959 1.539 . S
C957 C953 1.408 . S
C957 C956 1.404 . S
C957 H969 0.930 . S
C958 C954 1.524 . S
C958 H970 0.956 1_655 S
C958 H971 0.961 . S
C958 H972 0.961 . S
C959 C956 1.539 . S
C959 H973 0.958 1_655 S
C959 H974 0.961 . S
C959 H975 0.960 . S
H960 C944 0.931 . S
H961 C949 0.929 . S
H962 C950 0.960 . S
H963 C950 0.962 . S
H964 C950 0.960 . S
H965 C951 0.961 . S
H966 C951 0.961 . S
H967 C951 0.961 . S
H968 C952 0.931 . S
H969 C957 0.930 . S
H970 C958 0.956 1_455 S
H971 C958 0.961 . S
H972 C958 0.961 . S
H973 C959 0.958 1_455 S
H974 C959 0.961 . S
H975 C959 0.960 . S
C976 C977 1.391 1_554 S
C976 C978 1.394 . S
C976 H992 0.931 . S
C977 C976 1.391 1_556 S
C977 C981 1.376 1_565 S
C978 C976 1.394 . S
C978 C979 1.369 1_554 S
C978 C982 1.531 . S
C979 C978 1.369 1_556 S
C979 C980 1.411 . S
C979 C987 1.502 1_556 S
C980 C979 1.411 . S
C980 C981 1.392 1_565 S
C980 C983 1.510 1_565 S
C981 C977 1.376 1_545 S
C981 C980 1.392 1_545 S
C981 H993 0.929 . S
C982 C978 1.531 . S
C982 H994 0.960 . S
C982 H995 0.962 . S
C982 H996 0.960 . S
C983 C980 1.510 1_545 S
C983 H997 0.961 . S
C983 H998 0.961 . S
C983 H999 0.961 1_545 S
C984 C985 1.370 1_545 S
C984 C986 1.363 . S
C984 H1000 0.931 . S
C985 C984 1.370 1_565 S
C985 C989 1.408 1_554 S
C986 C984 1.363 . S
C986 C987 1.374 1_545 S
C986 C990 1.524 . S
C987 C979 1.502 1_554 S
C987 C986 1.374 1_565 S
C987 C988 1.401 1_554 S
C988 C987 1.401 1_556 S
C988 C989 1.404 . S
C988 C991 1.539 . S
C989 C985 1.408 1_556 S
C989 C988 1.404 . S
C989 H1001 0.930 . S
C990 C986 1.524 . S
C990 H1002 0.956 . S
C990 H1003 0.961 1_554 S
C990 H1004 0.961 . S
C991 C988 1.539 . S
C991 H1005 0.958 1_556 S
C991 H1006 0.961 . S
C991 H1007 0.960 . S
H992 C976 0.931 . S
H993 C981 0.929 . S
H994 C982 0.960 . S
H995 C982 0.962 . S
H996 C982 0.960 . S
H997 C983 0.961 . S
H998 C983 0.961 . S
H999 C983 0.961 1_565 S
H1000 C984 0.931 . S
H1001 C989 0.930 . S
H1002 C990 0.956 . S
H1003 C990 0.961 1_556 S
H1004 C990 0.961 . S
H1005 C991 0.958 1_554 S
H1006 C991 0.961 . S
H1007 C991 0.960 . S
C1008 C1009 1.391 1_554 S
C1008 C1010 1.394 . S
C1008 H1024 0.931 . S
C1009 C1008 1.391 1_556 S
C1009 C1013 1.376 . S
C1010 C1008 1.394 . S
C1010 C1011 1.352 1_554 S
C1010 C1014 1.531 . S
C1011 C1010 1.352 1_556 S
C1011 C1012 1.429 . S
C1011 C1019 1.502 1_556 S
C1012 C1011 1.429 . S
C1012 C1013 1.392 . S
C1012 C1015 1.511 . S
C1013 C1009 1.376 . S
C1013 C1012 1.392 . S
C1013 H1025 0.929 . S
C1014 C1010 1.531 . S
C1014 H1026 0.960 . S
C1014 H1027 0.962 . S
C1014 H1028 0.960 . S
C1015 C1012 1.511 . S
C1015 H1029 0.961 . S
C1015 H1030 0.961 . S
C1015 H1031 0.961 . S
C1016 C1017 1.370 . S
C1016 C1018 1.363 . S
C1016 H1032 0.931 . S
C1017 C1016 1.370 . S
C1017 C1021 1.408 . S
C1018 C1016 1.363 . S
C1018 C1019 1.370 . S
C1018 C1022 1.524 1_554 S
C1019 C1011 1.502 1_554 S
C1019 C1018 1.370 . S
C1019 C1020 1.403 . S
C1020 C1019 1.403 . S
C1020 C1021 1.404 . S
C1020 C1023 1.539 . S
C1021 C1017 1.408 . S
C1021 C1020 1.404 . S
C1021 H1033 0.930 . S
C1022 C1018 1.524 1_556 S
C1022 H1034 0.956 1_556 S
C1022 H1035 0.961 . S
C1022 H1036 0.961 . S
C1023 C1020 1.539 . S
C1023 H1037 0.958 . S
C1023 H1038 0.961 1_554 S
C1023 H1039 0.960 1_554 S
H1024 C1008 0.931 . S
H1025 C1013 0.929 . S
H1026 C1014 0.960 . S
H1027 C1014 0.962 . S
H1028 C1014 0.960 . S
H1029 C1015 0.961 . S
H1030 C1015 0.961 . S
H1031 C1015 0.961 . S
H1032 C1016 0.931 . S
H1033 C1021 0.930 . S
H1034 C1022 0.956 1_554 S
H1035 C1022 0.961 . S
H1036 C1022 0.961 . S
H1037 C1023 0.958 . S
H1038 C1023 0.961 1_556 S
H1039 C1023 0.960 1_556 S
C1040 C1041 1.391 1_556 S
C1040 C1042 1.394 . S
C1040 H1056 0.931 . S
C1041 C1040 1.391 1_554 S
C1041 C1045 1.376 . S
C1042 C1040 1.394 . S
C1042 C1043 1.369 1_556 S
C1042 C1046 1.531 . S
C1043 C1042 1.369 1_554 S
C1043 C1044 1.410 . S
C1043 C1051 1.503 1_654 S
C1044 C1043 1.410 . S
C1044 C1045 1.392 . S
C1044 C1047 1.511 . S
C1045 C1041 1.376 . S
C1045 C1044 1.392 . S
C1045 H1057 0.929 . S
C1046 C1042 1.531 . S
C1046 H1058 0.960 1_655 S
C1046 H1059 0.962 . S
C1046 H1060 0.960 . S
C1047 C1044 1.511 . S
C1047 H1061 0.961 . S
C1047 H1062 0.961 1_655 S
C1047 H1063 0.961 . S
C1048 C1049 1.370 . S
C1048 C1050 1.363 . S
C1048 H1064 0.931 . S
C1049 C1048 1.370 . S
C1049 C1053 1.408 . S
C1050 C1048 1.363 . S
C1050 C1051 1.370 . S
C1050 C1054 1.552 . S
C1051 C1043 1.503 1_456 S
C1051 C1050 1.370 . S
C1051 C1052 1.403 . S
C1052 C1051 1.403 . S
C1052 C1053 1.404 . S
C1052 C1055 1.539 . S
C1053 C1049 1.408 . S
C1053 C1052 1.404 . S
C1053 H1065 0.930 . S
C1054 C1050 1.552 . S
C1054 H1066 0.935 1_455 S
C1054 H1067 0.938 1_456 S
C1054 H1068 0.978 1_556 S
C1055 C1052 1.539 . S
C1055 H1069 0.958 . S
C1055 H1070 0.961 1_556 S
C1055 H1071 0.960 1_556 S
H1056 C1040 0.931 . S
H1057 C1045 0.929 . S
H1058 C1046 0.960 1_455 S
H1059 C1046 0.962 . S
H1060 C1046 0.960 . S
H1061 C1047 0.961 . S
H1062 C1047 0.961 1_455 S
H1063 C1047 0.961 . S
H1064 C1048 0.931 . S
H1065 C1053 0.930 . S
H1066 C1054 0.935 1_655 S
H1067 C1054 0.938 1_654 S
H1068 C1054 0.978 1_554 S
H1069 C1055 0.958 . S
H1070 C1055 0.961 1_554 S
H1071 C1055 0.960 1_554 S
C1072 C1073 1.391 1_655 S
C1072 C1074 1.394 . S
C1072 H1088 0.931 . S
C1073 C1072 1.391 1_455 S
C1073 C1077 1.376 1_556 S
C1074 C1072 1.394 . S
C1074 C1075 1.369 1_655 S
C1074 C1078 1.531 . S
C1075 C1074 1.369 1_455 S
C1075 C1076 1.410 1_556 S
C1075 C1083 1.503 1_545 S
C1076 C1075 1.410 1_554 S
C1076 C1077 1.392 . S
C1076 C1079 1.511 . S
C1077 C1073 1.376 1_554 S
C1077 C1076 1.392 . S
C1077 H1089 0.929 . S
C1078 C1074 1.531 . S
C1078 H1090 0.960 1_545 S
C1078 H1091 0.962 . S
C1078 H1092 0.960 . S
C1079 C1076 1.511 . S
C1079 H1093 0.961 . S
C1079 H1094 0.961 1_545 S
C1079 H1095 0.961 . S
C1080 C1081 1.373 . S
C1080 C1082 1.363 . S
C1080 H1096 0.931 . S
C1081 C1080 1.373 . S
C1081 C1085 1.405 1_654 S
C1082 C1080 1.363 . S
C1082 C1083 1.370 1_654 S
C1082 C1086 1.524 . S
C1083 C1075 1.503 1_565 S
C1083 C1082 1.370 1_456 S
C1083 C1084 1.403 . S
C1084 C1083 1.403 . S
C1084 C1085 1.404 . S
C1084 C1087 1.539 . S
C1085 C1081 1.405 1_456 S
C1085 C1084 1.404 . S
C1085 H1097 0.930 . S
C1086 C1082 1.524 . S
C1086 H1098 0.956 1_565 S
C1086 H1099 0.961 1_565 S
C1086 H1100 0.961 . S
C1087 C1084 1.539 . S
C1087 H1101 0.958 . S
C1087 H1102 0.961 . S
C1087 H1103 0.960 . S
H1088 C1072 0.931 . S
H1089 C1077 0.929 . S
H1090 C1078 0.960 1_565 S
H1091 C1078 0.962 . S
H1092 C1078 0.960 . S
H1093 C1079 0.961 . S
H1094 C1079 0.961 1_565 S
H1095 C1079 0.961 . S
H1096 C1080 0.931 . S
H1097 C1085 0.930 . S
H1098 C1086 0.956 1_545 S
H1099 C1086 0.961 1_545 S
H1100 C1086 0.961 . S
H1101 C1087 0.958 . S
H1102 C1087 0.961 . S
H1103 C1087 0.960 . S
C1104 C1105 1.390 1_545 S
C1104 C1106 1.393 1_545 S
C1104 H1120 0.932 . S
C1105 C1104 1.390 1_565 S
C1105 C1109 1.376 . S
C1106 C1104 1.393 1_565 S
C1106 C1107 1.369 . S
C1106 C1110 1.529 1_565 S
C1107 C1106 1.369 . S
C1107 C1108 1.410 . S
C1107 C1115 1.503 1_455 S
C1108 C1107 1.410 . S
C1108 C1109 1.392 . S
C1108 C1111 1.511 . S
C1109 C1105 1.376 . S
C1109 C1108 1.392 . S
C1109 H1121 0.929 . S
C1110 C1106 1.529 1_545 S
C1110 H1122 0.944 1_445 S
C1110 H1123 0.991 . S
C1110 H1124 0.951 1_545 S
C1111 C1108 1.511 . S
C1111 H1125 0.961 . S
C1111 H1126 0.967 . S
C1111 H1127 0.961 . S
C1112 C1113 1.370 1_545 S
C1112 C1114 1.363 . S
C1112 H1128 0.931 . S
C1113 C1112 1.370 1_565 S
C1113 C1117 1.408 . S
C1114 C1112 1.363 . S
C1114 C1115 1.370 1_545 S
C1114 C1118 1.524 . S
C1115 C1107 1.503 1_655 S
C1115 C1114 1.370 1_565 S
C1115 C1116 1.403 . S
C1116 C1115 1.403 . S
C1116 C1117 1.404 . S
C1116 C1119 1.539 . S
C1117 C1113 1.408 . S
C1117 C1116 1.404 . S
C1117 H1129 0.930 . S
C1118 C1114 1.524 . S
C1118 H1130 0.956 . S
C1118 H1131 0.961 1_655 S
C1118 H1132 0.961 . S
C1119 C1116 1.539 . S
C1119 H1133 0.958 . S
C1119 H1134 0.961 . S
C1119 H1135 0.924 1_655 S
H1120 C1104 0.932 . S
H1121 C1109 0.929 . S
H1122 C1110 0.944 1_665 S
H1123 C1110 0.991 . S
H1124 C1110 0.951 1_565 S
H1125 C1111 0.961 . S
H1126 C1111 0.967 . S
H1127 C1111 0.961 . S
H1128 C1112 0.931 . S
H1129 C1117 0.930 . S
H1130 C1118 0.956 . S
H1131 C1118 0.961 1_455 S
H1132 C1118 0.961 . S
H1133 C1119 0.958 . S
H1134 C1119 0.961 . S
H1135 C1119 0.924 1_455 S
C1136 C1137 1.391 . S
C1136 C1138 1.394 . S
C1136 H1152 0.931 . S
C1137 C1136 1.391 . S
C1137 C1141 1.376 . S
C1138 C1136 1.394 . S
C1138 C1139 1.369 . S
C1138 C1142 1.531 . S
C1139 C1138 1.369 . S
C1139 C1140 1.410 . S
C1139 C1147 1.503 1_565 S
C1140 C1139 1.410 . S
C1140 C1141 1.392 . S
C1140 C1143 1.511 . S
C1141 C1137 1.376 . S
C1141 C1140 1.392 . S
C1141 H1153 0.929 . S
C1142 C1138 1.531 . S
C1142 H1154 0.960 . S
C1142 H1155 0.962 . S
C1142 H1156 0.960 . S
C1143 C1140 1.511 . S
C1143 H1157 0.961 . S
C1143 H1158 0.961 1_565 S
C1143 H1159 0.961 1_565 S
C1144 C1145 1.370 . S
C1144 C1146 1.363 . S
C1144 H1160 0.931 . S
C1145 C1144 1.370 . S
C1145 C1149 1.408 . S
C1146 C1144 1.363 . S
C1146 C1147 1.370 . S
C1146 C1150 1.524 . S
C1147 C1139 1.503 1_545 S
C1147 C1146 1.370 . S
C1147 C1148 1.403 . S
C1148 C1147 1.403 . S
C1148 C1149 1.404 . S
C1148 C1151 1.539 . S
C1149 C1145 1.408 . S
C1149 C1148 1.404 . S
C1149 H1161 0.930 . S
C1150 C1146 1.524 . S
C1150 H1162 0.956 1_545 S
C1150 H1163 0.961 1_545 S
C1150 H1164 0.961 . S
C1151 C1148 1.539 . S
C1151 H1165 0.958 . S
C1151 H1166 0.961 . S
C1151 H1167 0.960 . S
H1152 C1136 0.931 . S
H1153 C1141 0.929 . S
H1154 C1142 0.960 . S
H1155 C1142 0.962 . S
H1156 C1142 0.960 . S
H1157 C1143 0.961 . S
H1158 C1143 0.961 1_545 S
H1159 C1143 0.961 1_545 S
H1160 C1144 0.931 . S
H1161 C1149 0.930 . S
H1162 C1150 0.956 1_565 S
H1163 C1150 0.961 1_565 S
H1164 C1150 0.961 . S
H1165 C1151 0.958 . S
H1166 C1151 0.961 . S
H1167 C1151 0.960 . S
C1168 C1169 1.391 . S
C1168 C1170 1.394 . S
C1168 H1184 0.931 . S
C1169 C1168 1.391 . S
C1169 C1173 1.376 . S
C1170 C1168 1.394 . S
C1170 C1171 1.369 . S
C1170 C1174 1.531 . S
C1171 C1170 1.369 . S
C1171 C1172 1.410 . S
C1171 C1179 1.503 . S
C1172 C1171 1.410 . S
C1172 C1173 1.392 . S
C1172 C1175 1.511 . S
C1173 C1169 1.376 . S
C1173 C1172 1.392 . S
C1173 H1185 0.929 . S
C1174 C1170 1.531 . S
C1174 H1186 0.960 . S
C1174 H1187 0.962 . S
C1174 H1188 0.960 . S
C1175 C1172 1.511 . S
C1175 H1189 0.961 . S
C1175 H1190 0.961 . S
C1175 H1191 0.961 . S
C1176 C1177 1.370 . S
C1176 C1178 1.363 . S
C1176 H1192 0.931 . S
C1177 C1176 1.370 . S
C1177 C1181 1.408 . S
C1178 C1176 1.363 . S
C1178 C1179 1.370 . S
C1178 C1182 1.524 . S
C1179 C1171 1.503 . S
C1179 C1178 1.370 . S
C1179 C1180 1.403 . S
C1180 C1179 1.403 . S
C1180 C1181 1.404 . S
C1180 C1183 1.539 . S
C1181 C1177 1.408 . S
C1181 C1180 1.404 . S
C1181 H1193 0.930 . S
C1182 C1178 1.524 . S
C1182 H1194 0.956 . S
C1182 H1195 0.961 . S
C1182 H1196 0.961 . S
C1183 C1180 1.539 . S
C1183 H1197 0.958 . S
C1183 H1198 0.961 . S
C1183 H1199 0.960 . S
H1184 C1168 0.931 . S
H1185 C1173 0.929 . S
H1186 C1174 0.960 . S
H1187 C1174 0.962 . S
H1188 C1174 0.960 . S
H1189 C1175 0.961 . S
H1190 C1175 0.961 . S
H1191 C1175 0.961 . S
H1192 C1176 0.931 . S
H1193 C1181 0.930 . S
H1194 C1182 0.956 . S
H1195 C1182 0.961 . S
H1196 C1182 0.961 . S
H1197 C1183 0.958 . S
H1198 C1183 0.961 . S
H1199 C1183 0.960 . S
C1200 C1201 1.394 1_655 S
C1200 C1202 1.394 . S
C1200 H1216 0.931 . S
C1201 C1200 1.394 1_455 S
C1201 C1205 1.373 . S
C1202 C1200 1.394 . S
C1202 C1203 1.369 1_655 S
C1202 C1206 1.531 . S
C1203 C1202 1.369 1_455 S
C1203 C1204 1.410 . S
C1203 C1211 1.503 . S
C1204 C1203 1.410 . S
C1204 C1205 1.392 . S
C1204 C1207 1.511 . S
C1205 C1201 1.373 . S
C1205 C1204 1.392 . S
C1205 H1217 0.929 . S
C1206 C1202 1.531 . S
C1206 H1218 0.960 . S
C1206 H1219 0.962 . S
C1206 H1220 0.960 . S
C1207 C1204 1.511 . S
C1207 H1221 0.961 . S
C1207 H1222 0.961 . S
C1207 H1223 0.961 . S
C1208 C1209 1.370 1_655 S
C1208 C1210 1.363 . S
C1208 H1224 0.931 . S
C1209 C1208 1.370 1_455 S
C1209 C1213 1.408 . S
C1210 C1208 1.363 . S
C1210 C1211 1.370 1_655 S
C1210 C1214 1.524 . S
C1211 C1203 1.503 . S
C1211 C1210 1.370 1_455 S
C1211 C1212 1.403 . S
C1212 C1211 1.403 . S
C1212 C1213 1.404 . S
C1212 C1215 1.539 . S
C1213 C1209 1.408 . S
C1213 C1212 1.404 . S
C1213 H1225 0.930 . S
C1214 C1210 1.524 . S
C1214 H1226 0.956 . S
C1214 H1227 0.961 . S
C1214 H1228 0.961 . S
C1215 C1212 1.539 . S
C1215 H1229 0.958 . S
C1215 H1230 0.961 . S
C1215 H1231 0.960 . S
H1216 C1200 0.931 . S
H1217 C1205 0.929 . S
H1218 C1206 0.960 . S
H1219 C1206 0.962 . S
H1220 C1206 0.960 . S
H1221 C1207 0.961 . S
H1222 C1207 0.961 . S
H1223 C1207 0.961 . S
H1224 C1208 0.931 . S
H1225 C1213 0.930 . S
H1226 C1214 0.956 . S
H1227 C1214 0.961 . S
H1228 C1214 0.961 . S
H1229 C1215 0.958 . S
H1230 C1215 0.961 . S
H1231 C1215 0.960 . S
C209 C66 0.678 . S
C217 C10 0.769 . S
C241 C88 0.839 . S
C249 C14 0.883 . S
C273 C36 0.796 . S
C281 C92 0.728 . S
C305 C40 0.533 . S
C313 C62 0.596 . S
C337 C114 0.753 . S
C345 C179 0.786 . S
C369 C192 0.791 . S
C377 C127 0.868 . S
C401 C205 0.801 . S
C409 C140 0.726 . S
C433 C153 0.607 . S
C441 C166 0.576 . S
C465 C5 2.046 1_556 S
C473 C157 2.041 1_565 S
C497 C170 2.090 . S
C505 C16 2.015 1_556 S
C529 C31 2.170 1_556 S
C537 C183 2.170 . S
C561 C42 2.018 1_556 S
C569 C196 2.083 1_655 S
C593 C57 2.085 . S
C601 C105 2.076 1_545 S
C625 C68 2.036 . S
C633 C118 2.165 . S
C657 C83 2.092 . S
C665 C131 2.078 . S
C689 C94 1.977 . S
C697 C144 2.034 1_455 S
C721 C53 1.980 . S
C729 C109 1.968 1_554 S
C753 C75 2.088 . S
C761 C122 1.999 1_554 S
C785 C79 2.116 . S
C793 C135 2.071 1_554 S
C817 C148 2.002 1_554 S
C825 C101 2.087 1_455 S
C849 C1 2.031 . S
C857 C161 2.005 . S
C881 C174 2.038 . S
C889 C23 2.168 . S
C913 C187 1.984 . S
C921 C27 2.068 . S
C945 C49 2.017 1_655 S
C953 C200 1.961 . S
C977 C107 1.495 . S
C985 C3 1.495 . S
C1009 C120 1.505 . S
C1017 C18 1.535 . S
C1041 C29 1.674 . S
C1049 C133 1.678 . S
C1073 C146 1.656 1_455 S
C1081 C44 1.676 1_655 S
C1105 C55 1.646 1_565 S
C1113 C159 1.678 1_565 S
C1137 C172 1.659 . S
C1145 C70 1.691 . S
C1169 C185 1.555 . S
C1177 C81 1.510 . S
C1201 C198 1.531 . S
C1209 C96 1.515 1_455 S
