# Generated by pormake.
# Topology bor-e, (5)-cn, num edge types: 1
# Building blocks:
#     Node 0, Type 0, BuildingBlock: BEQFEK_clean_sbu_0, # of connection points: 5
#     Node 1, Type 0, BuildingBlock: BEQFEK_clean_sbu_0, # of connection points: 5
#     Node 2, Type 0, BuildingBlock: BEQFEK_clean_sbu_0, # of connection points: 5
#     Node 3, Type 0, BuildingBlock: BEQFEK_clean_sbu_0, # of connection points: 5
#     Node 4, Type 0, BuildingBlock: BEQFEK_clean_sbu_0, # of connection points: 5
#     Node 5, Type 0, BuildingBlock: BEQFEK_clean_sbu_0, # of connection points: 5
#     Node 6, Type 0, BuildingBlock: BEQFEK_clean_sbu_0, # of connection points: 5
#     Node 7, Type 0, BuildingBlock: BEQFEK_clean_sbu_0, # of connection points: 5
#     Node 8, Type 0, BuildingBlock: BEQFEK_clean_sbu_0, # of connection points: 5
#     Node 9, Type 0, BuildingBlock: BEQFEK_clean_sbu_0, # of connection points: 5
#     Node 10, Type 0, BuildingBlock: BEQFEK_clean_sbu_0, # of connection points: 5
#     Node 11, Type 0, BuildingBlock: BEQFEK_clean_sbu_0, # of connection points: 5
#     Edge 12, Type (0, 0), BuildingBlock: MIFKUJ_clean_linker_0, # of connection points: 2
#     Edge 13, Type (0, 0), BuildingBlock: MIFKUJ_clean_linker_0, # of connection points: 2
#     Edge 14, Type (0, 0), BuildingBlock: MIFKUJ_clean_linker_0, # of connection points: 2
#     Edge 15, Type (0, 0), BuildingBlock: MIFKUJ_clean_linker_0, # of connection points: 2
#     Edge 16, Type (0, 0), BuildingBlock: MIFKUJ_clean_linker_0, # of connection points: 2
#     Edge 17, Type (0, 0), BuildingBlock: MIFKUJ_clean_linker_0, # of connection points: 2
#     Edge 18, Type (0, 0), BuildingBlock: MIFKUJ_clean_linker_0, # of connection points: 2
#     Edge 19, Type (0, 0), BuildingBlock: MIFKUJ_clean_linker_0, # of connection points: 2
#     Edge 20, Type (0, 0), BuildingBlock: MIFKUJ_clean_linker_0, # of connection points: 2
#     Edge 21, Type (0, 0), BuildingBlock: MIFKUJ_clean_linker_0, # of connection points: 2
#     Edge 22, Type (0, 0), BuildingBlock: MIFKUJ_clean_linker_0, # of connection points: 2
#     Edge 23, Type (0, 0), BuildingBlock: MIFKUJ_clean_linker_0, # of connection points: 2
#     Edge 24, Type (0, 0), BuildingBlock: MIFKUJ_clean_linker_0, # of connection points: 2
#     Edge 25, Type (0, 0), BuildingBlock: MIFKUJ_clean_linker_0, # of connection points: 2
#     Edge 26, Type (0, 0), BuildingBlock: MIFKUJ_clean_linker_0, # of connection points: 2
#     Edge 27, Type (0, 0), BuildingBlock: MIFKUJ_clean_linker_0, # of connection points: 2
#     Edge 28, Type (0, 0), BuildingBlock: MIFKUJ_clean_linker_0, # of connection points: 2
#     Edge 29, Type (0, 0), BuildingBlock: MIFKUJ_clean_linker_0, # of connection points: 2
#     Edge 30, Type (0, 0), BuildingBlock: MIFKUJ_clean_linker_0, # of connection points: 2
#     Edge 31, Type (0, 0), BuildingBlock: MIFKUJ_clean_linker_0, # of connection points: 2
#     Edge 32, Type (0, 0), BuildingBlock: MIFKUJ_clean_linker_0, # of connection points: 2
#     Edge 33, Type (0, 0), BuildingBlock: MIFKUJ_clean_linker_0, # of connection points: 2
#     Edge 34, Type (0, 0), BuildingBlock: MIFKUJ_clean_linker_0, # of connection points: 2
#     Edge 35, Type (0, 0), BuildingBlock: MIFKUJ_clean_linker_0, # of connection points: 2
#     Edge 36, Type (0, 0), BuildingBlock: MIFKUJ_clean_linker_0, # of connection points: 2
#     Edge 37, Type (0, 0), BuildingBlock: MIFKUJ_clean_linker_0, # of connection points: 2
#     Edge 38, Type (0, 0), BuildingBlock: MIFKUJ_clean_linker_0, # of connection points: 2
#     Edge 39, Type (0, 0), BuildingBlock: MIFKUJ_clean_linker_0, # of connection points: 2
#     Edge 40, Type (0, 0), BuildingBlock: MIFKUJ_clean_linker_0, # of connection points: 2
#     Edge 41, Type (0, 0), BuildingBlock: MIFKUJ_clean_linker_0, # of connection points: 2
# Relax obj value: 0.531
# Max RMSD: 0.273
# Mean RMSD: 0.273
data_MOF--net-bor-e--node1-BEQFEK_clean_sbu_0--edge1-MIFKUJ_clean_linker_0
_symmetry_space_group_name_H-M    P1
_symmetry_Int_Tables_number       1
_symmetry_cell_setting            triclinic
loop_
_symmetry_equiv_pos_as_xyz
'x, y, z'
_cell_length_a     58.636929
_cell_length_b     58.757081
_cell_length_c     59.099745
_cell_angle_alpha  90.11798
_cell_angle_beta   89.800619
_cell_angle_gamma 90.034517
loop_
_atom_site_label
_atom_site_type_symbol
_atom_site_fract_x
_atom_site_fract_y
_atom_site_fract_z
_atom_type_partial_charge
Co0 Co 0.0876 0.10404 0.57392 0.0
Co1 Co 0.05742 0.12656 0.61143 0.0
C2 C 0.05582 0.14184 0.56294 0.0
O3 O 0.07126 0.12786 0.55688 0.0
O4 O 0.04901 0.14295 0.58339 0.0
C5 C 0.10566 0.08545 0.53315 0.0
O6 O 0.08771 0.09527 0.52419 0.0
C7 C 0.04653 0.16395 0.64168 0.0
C8 C 0.02823 0.14663 0.66947 0.0
C9 C 0.03725 0.1675 0.66305 0.0
N10 N 0.0435 0.14202 0.63606 0.0
N11 N 0.03198 0.13187 0.65243 0.0
C12 C 0.06074 0.18009 0.628 0.0
H13 H 0.07049 0.17081 0.61477 0.0
H14 H 0.0727 0.18965 0.63901 0.0
H15 H 0.04937 0.19256 0.61961 0.0
C16 C 0.12386 0.11368 0.60652 0.0
N17 N 0.10215 0.11584 0.59963 0.0
N18 N 0.08976 0.12485 0.61594 0.0
C19 C 0.10337 0.12864 0.63397 0.0
C20 C 0.12544 0.12183 0.62851 0.0
C21 C 0.14158 0.10068 0.59352 0.0
H22 H 0.13529 0.08315 0.59036 0.0
H23 H 0.14431 0.10892 0.57685 0.0
H24 H 0.15804 0.09959 0.60258 0.0
O25 O 0.06601 0.0799 0.58316 0.0
O26 O 0.04413 0.09555 0.60971 0.0
H27 H 0.07964 0.12809 0.66171 0.0
H28 H 0.10837 0.13588 0.66976 0.0
C29 C 0.09523 0.13738 0.65644 0.0
H30 H 0.09107 0.15566 0.6549 0.0
H31 H 0.02796 0.11457 0.65258 0.0
O32 O 0.10965 0.08832 0.55405 0.0
C33 C 0.04969 0.07865 0.59735 0.0
Co34 Co 0.08342 0.85855 0.38535 0.0
Co35 Co 0.06398 0.8307 0.34475 0.0
C36 C 0.05555 0.81799 0.39396 0.0
O37 O 0.06829 0.83368 0.40179 0.0
O38 O 0.05242 0.81559 0.37275 0.0
C39 C 0.10799 0.87792 0.4251 0.0
O40 O 0.10937 0.85772 0.43447 0.0
C41 C 0.06668 0.79081 0.31552 0.0
C42 C 0.04526 0.80091 0.28656 0.0
C43 C 0.05946 0.78378 0.29429 0.0
N44 N 0.05755 0.81132 0.31985 0.0
N45 N 0.04451 0.81715 0.30263 0.0
C46 C 0.08145 0.77819 0.33187 0.0
H47 H 0.07709 0.78312 0.34949 0.0
H48 H 0.09958 0.78267 0.32893 0.0
H49 H 0.07943 0.75954 0.32966 0.0
C50 C 0.12604 0.85303 0.35968 0.0
N51 N 0.10404 0.84766 0.36343 0.0
N52 N 0.09586 0.83697 0.34564 0.0
C53 C 0.11235 0.83575 0.32969 0.0
C54 C 0.13207 0.84552 0.33827 0.0
C55 C 0.14008 0.86757 0.37507 0.0
H56 H 0.13296 0.88506 0.37542 0.0
H57 H 0.13932 0.86059 0.39247 0.0
H58 H 0.15814 0.86831 0.36943 0.0
O59 O 0.06015 0.87779 0.37054 0.0
O60 O 0.04707 0.85941 0.34049 0.0
H61 H 0.09059 0.83465 0.30044 0.0
H62 H 0.12039 0.8388 0.29401 0.0
C63 C 0.10818 0.82991 0.30533 0.0
H64 H 0.11046 0.81137 0.30277 0.0
H65 H 0.03566 0.83252 0.30154 0.0
O66 O 0.09851 0.88016 0.40596 0.0
C67 C 0.04738 0.87691 0.35319 0.0
Co68 Co 0.86818 0.85924 0.56657 0.0
Co69 Co 0.89443 0.83287 0.60422 0.0
C70 C 0.89366 0.81727 0.55539 0.0
O71 O 0.88082 0.83347 0.54889 0.0
O72 O 0.89969 0.81548 0.576 0.0
C73 C 0.84433 0.87799 0.52713 0.0
O74 O 0.85414 0.86221 0.51469 0.0
C75 C 0.89917 0.79398 0.63406 0.0
C76 C 0.92394 0.80631 0.65936 0.0
C77 C 0.91032 0.78779 0.65385 0.0
N78 N 0.90583 0.81507 0.6284 0.0
N79 N 0.92087 0.82227 0.64337 0.0
C80 C 0.88099 0.78122 0.6216 0.0
H81 H 0.87145 0.79277 0.61023 0.0
H82 H 0.86901 0.77302 0.63367 0.0
H83 H 0.88905 0.7678 0.61105 0.0
C84 C 0.83063 0.85434 0.59915 0.0
N85 N 0.85196 0.84946 0.59228 0.0
N86 N 0.86301 0.83946 0.60884 0.0
C87 C 0.84905 0.83802 0.627 0.0
C88 C 0.82807 0.84727 0.62132 0.0
C89 C 0.81363 0.86722 0.58537 0.0
H90 H 0.81307 0.86013 0.56797 0.0
H91 H 0.79633 0.86637 0.593 0.0
H92 H 0.819 0.8853 0.5843 0.0
O93 O 0.89331 0.87978 0.57596 0.0
O94 O 0.91236 0.86134 0.60265 0.0
H95 H 0.87429 0.83665 0.65322 0.0
H96 H 0.84522 0.83832 0.66343 0.0
C97 C 0.85652 0.83104 0.65017 0.0
H98 H 0.85579 0.81224 0.65148 0.0
H99 H 0.92851 0.83831 0.64304 0.0
O100 O 0.84808 0.87867 0.54825 0.0
C101 C 0.90954 0.87873 0.59018 0.0
Co102 Co 0.87253 0.09626 0.37766 0.0
Co103 Co 0.89705 0.12219 0.33855 0.0
C104 C 0.90275 0.13483 0.3881 0.0
O105 O 0.88868 0.1199 0.39512 0.0
O106 O 0.90716 0.13705 0.36709 0.0
C107 C 0.84394 0.08115 0.41614 0.0
O108 O 0.84528 0.10165 0.42494 0.0
C109 C 0.89957 0.16149 0.30866 0.0
C110 C 0.92299 0.14931 0.28192 0.0
C111 C 0.90909 0.16751 0.28789 0.0
N112 N 0.90717 0.14068 0.31422 0.0
N113 N 0.92152 0.13367 0.29843 0.0
C114 C 0.88209 0.17406 0.32235 0.0
H115 H 0.87477 0.16296 0.33567 0.0
H116 H 0.86826 0.1805 0.31131 0.0
H117 H 0.89033 0.18879 0.33079 0.0
C118 C 0.83254 0.10451 0.34898 0.0
N119 N 0.85449 0.10846 0.35432 0.0
N120 N 0.86491 0.11783 0.33693 0.0
C121 C 0.85005 0.11933 0.31963 0.0
C122 C 0.829 0.11128 0.32685 0.0
C123 C 0.81642 0.09103 0.36336 0.0
H124 H 0.82262 0.07324 0.36458 0.0
H125 H 0.81593 0.09839 0.38064 0.0
H126 H 0.79893 0.09095 0.35625 0.0
O127 O 0.89508 0.07473 0.36447 0.0
O128 O 0.91215 0.09237 0.33591 0.0
H129 H 0.87403 0.11886 0.29201 0.0
H130 H 0.84448 0.11782 0.28338 0.0
C131 C 0.8566 0.12513 0.29579 0.0
H132 H 0.85633 0.14385 0.2937 0.0
H133 H 0.92954 0.11783 0.29845 0.0
O134 O 0.85384 0.07684 0.39748 0.0
C135 C 0.90935 0.07481 0.34817 0.0
Co136 Co 0.57666 0.09012 0.09229 0.0
Co137 Co 0.61436 0.06325 0.11829 0.0
C138 C 0.56419 0.05716 0.1282 0.0
O139 O 0.55828 0.07261 0.11433 0.0
O140 O 0.58506 0.05187 0.13091 0.0
C141 C 0.53571 0.11349 0.07712 0.0
O142 O 0.525 0.10295 0.09361 0.0
C143 C 0.64097 0.05247 0.15856 0.0
C144 C 0.67367 0.04133 0.14357 0.0
C145 C 0.66323 0.04658 0.16402 0.0
N146 N 0.63876 0.05162 0.13596 0.0
N147 N 0.65816 0.04436 0.12713 0.0
C148 C 0.62206 0.05922 0.1743 0.0
H149 H 0.60583 0.05143 0.16868 0.0
H150 H 0.61986 0.07797 0.17389 0.0
H151 H 0.62559 0.05369 0.19188 0.0
C152 C 0.60623 0.1287 0.10391 0.0
N153 N 0.60018 0.10673 0.1062 0.0
N154 N 0.616 0.09577 0.11752 0.0
C155 C 0.6326 0.11066 0.12313 0.0
C156 C 0.62703 0.132 0.11462 0.0
C157 C 0.59425 0.14484 0.08834 0.0
H158 H 0.59287 0.13698 0.07131 0.0
H159 H 0.57669 0.14786 0.09474 0.0
H160 H 0.60321 0.16134 0.08663 0.0
O161 O 0.58965 0.0689 0.06974 0.0
O162 O 0.61769 0.05076 0.0872 0.0
H163 H 0.66364 0.09159 0.12495 0.0
H164 H 0.66519 0.11933 0.13827 0.0
C165 C 0.65414 0.10435 0.13511 0.0
H166 H 0.64986 0.09678 0.15169 0.0
H167 H 0.6612 0.04268 0.1098 0.0
O168 O 0.55702 0.11063 0.07459 0.0
C169 C 0.60589 0.05454 0.06955 0.0
Co170 Co 0.10039 0.38103 0.86159 0.0
Co171 Co 0.12788 0.34626 0.89062 0.0
C172 C 0.13835 0.39658 0.89073 0.0
O173 O 0.12242 0.40126 0.87689 0.0
O174 O 0.14226 0.37618 0.89683 0.0
C175 C 0.06007 0.38988 0.83986 0.0
O176 O 0.07973 0.40046 0.83959 0.0
C177 C 0.16806 0.31807 0.89782 0.0
C178 C 0.15586 0.29387 0.92373 0.0
C179 C 0.17444 0.29885 0.90999 0.0
N180 N 0.14672 0.32375 0.90391 0.0
N181 N 0.13968 0.30953 0.91973 0.0
C182 C 0.1809 0.32988 0.8793 0.0
H183 H 0.16958 0.34162 0.8699 0.0
H184 H 0.1885 0.31729 0.86745 0.0
H185 H 0.19488 0.3401 0.88682 0.0
C186 C 0.11267 0.34874 0.82515 0.0
N187 N 0.11474 0.35646 0.84651 0.0
N188 N 0.12431 0.34062 0.859 0.0
C189 C 0.12761 0.3219 0.84613 0.0
C190 C 0.12071 0.32661 0.82419 0.0
C191 C 0.09989 0.36079 0.80687 0.0
H192 H 0.08132 0.35831 0.80954 0.0
H193 H 0.10375 0.37926 0.80738 0.0
H194 H 0.10443 0.35393 0.78993 0.0
O195 O 0.0786 0.36892 0.88429 0.0
O196 O 0.09789 0.345 0.90597 0.0
H197 H 0.12772 0.29698 0.87276 0.0
H198 H 0.12733 0.28507 0.84451 0.0
C199 C 0.13412 0.29902 0.85521 0.0
H200 H 0.15295 0.2975 0.85523 0.0
H201 H 0.12349 0.30996 0.92712 0.0
O202 O 0.07965 0.39928 0.84038 0.0
C203 C 0.07949 0.35517 0.90084 0.0
Co204 Co 0.37506 0.86916 0.09043 0.0
Co205 Co 0.33855 0.89388 0.12027 0.0
C206 C 0.38885 0.8994 0.12853 0.0
O207 O 0.39422 0.88567 0.11267 0.0
O208 O 0.36808 0.90391 0.13302 0.0
C209 C 0.41187 0.83855 0.07534 0.0
O210 O 0.41921 0.83776 0.0963 0.0
C211 C 0.31251 0.90254 0.16183 0.0
C212 C 0.28019 0.91589 0.14809 0.0
C213 C 0.29066 0.90929 0.16801 0.0
N214 N 0.31452 0.9044 0.13926 0.0
N215 N 0.29533 0.91286 0.13121 0.0
C216 C 0.33128 0.89445 0.17695 0.0
H217 H 0.3477 0.90207 0.17156 0.0
H218 H 0.33297 0.87571 0.17551 0.0
H219 H 0.32794 0.89911 0.19487 0.0
C220 C 0.34642 0.82942 0.10128 0.0
N221 N 0.35227 0.85136 0.10437 0.0
N222 N 0.33678 0.86151 0.117 0.0
C223 C 0.32061 0.84613 0.1226 0.0
C224 C 0.3262 0.82529 0.11286 0.0
C225 C 0.35795 0.81401 0.08455 0.0
H226 H 0.36048 0.82317 0.06835 0.0
H227 H 0.37494 0.80915 0.09115 0.0
H228 H 0.34796 0.79837 0.08111 0.0
O229 O 0.36068 0.89114 0.06972 0.0
O230 O 0.33463 0.90897 0.09049 0.0
H231 H 0.28965 0.86497 0.12706 0.0
H232 H 0.28858 0.8364 0.13849 0.0
C233 C 0.2995 0.85157 0.13589 0.0
H234 H 0.30436 0.85807 0.15275 0.0
H235 H 0.29222 0.91565 0.11406 0.0
O236 O 0.39441 0.85035 0.07057 0.0
C237 C 0.34493 0.90588 0.07174 0.0
Co238 Co 0.85912 0.57014 0.86151 0.0
Co239 Co 0.83686 0.61121 0.88684 0.0
C240 C 0.82009 0.56328 0.89303 0.0
O241 O 0.83431 0.55529 0.87878 0.0
O242 O 0.81944 0.58445 0.89751 0.0
C243 C 0.86745 0.52734 0.83859 0.0
O244 O 0.84776 0.52092 0.84712 0.0
C245 C 0.79952 0.64245 0.89521 0.0
C246 C 0.81635 0.67079 0.91324 0.0
C247 C 0.7955 0.66383 0.90454 0.0
N248 N 0.82161 0.63732 0.89809 0.0
N249 N 0.83154 0.65411 0.9092 0.0
C250 C 0.78361 0.6279 0.88167 0.0
H251 H 0.77196 0.6187 0.89333 0.0
H252 H 0.79327 0.6151 0.87168 0.0
H253 H 0.77324 0.63851 0.8701 0.0
C254 C 0.85346 0.60053 0.82263 0.0
N255 N 0.84891 0.59497 0.84425 0.0
N256 N 0.83972 0.61249 0.85472 0.0
C257 C 0.83808 0.62989 0.83998 0.0
C258 C 0.84683 0.62294 0.81917 0.0
C259 C 0.86763 0.586 0.80719 0.0
H260 H 0.88434 0.58262 0.81528 0.0
H261 H 0.85898 0.5694 0.80467 0.0
H262 H 0.87066 0.59408 0.79054 0.0
O263 O 0.88281 0.58066 0.88287 0.0
O264 O 0.86751 0.61027 0.90068 0.0
H265 H 0.84044 0.65988 0.86055 0.0
H266 H 0.83114 0.66531 0.83182 0.0
C267 C 0.83014 0.65332 0.84624 0.0
H268 H 0.81212 0.65252 0.85173 0.0
H269 H 0.84881 0.65447 0.91341 0.0
O270 O 0.87454 0.54745 0.84215 0.0
C271 C 0.88412 0.59671 0.89731 0.0
Co272 Co 0.5724 0.86668 0.86033 0.0
Co273 Co 0.60916 0.89142 0.83085 0.0
C274 C 0.55891 0.8944 0.82064 0.0
O275 O 0.55347 0.88132 0.83695 0.0
O276 O 0.57965 0.89941 0.81661 0.0
C277 C 0.53258 0.84245 0.87818 0.0
O278 O 0.52092 0.85083 0.86119 0.0
C279 C 0.63632 0.8976 0.78974 0.0
C280 C 0.66604 0.9167 0.80266 0.0
C281 C 0.65737 0.90638 0.78343 0.0
N282 N 0.63303 0.90203 0.81182 0.0
N283 N 0.65064 0.91384 0.81934 0.0
C284 C 0.61949 0.88526 0.77516 0.0
H285 H 0.60194 0.89085 0.77939 0.0
H286 H 0.62047 0.86673 0.77848 0.0
H287 H 0.62287 0.8884 0.75694 0.0
C288 C 0.60331 0.82813 0.8531 0.0
N289 N 0.59646 0.84936 0.84799 0.0
N290 N 0.61231 0.85956 0.83591 0.0
C291 C 0.62993 0.84507 0.833 0.0
C292 C 0.62482 0.82467 0.84383 0.0
C293 C 0.5913 0.81338 0.87002 0.0
H294 H 0.59019 0.82256 0.88641 0.0
H295 H 0.57368 0.80997 0.86413 0.0
H296 H 0.60012 0.79698 0.87285 0.0
O297 O 0.58494 0.8905 0.88038 0.0
O298 O 0.61165 0.90789 0.8601 0.0
H299 H 0.6594 0.86653 0.83051 0.0
H300 H 0.6646 0.83722 0.82233 0.0
C301 C 0.65211 0.85136 0.82198 0.0
H302 H 0.6491 0.85565 0.80406 0.0
H303 H 0.65252 0.91921 0.83607 0.0
O304 O 0.55359 0.84721 0.88014 0.0
C305 C 0.60044 0.90556 0.87844 0.0
Co306 Co 0.85933 0.37626 0.07932 0.0
Co307 Co 0.83075 0.34212 0.05039 0.0
C308 C 0.82152 0.39272 0.05074 0.0
O309 O 0.83716 0.397 0.06503 0.0
O310 O 0.81762 0.37247 0.0441 0.0
C311 C 0.8784 0.41519 0.10612 0.0
O312 O 0.8812 0.39374 0.10123 0.0
C313 C 0.78904 0.31666 0.04322 0.0
C314 C 0.80028 0.28925 0.02015 0.0
C315 C 0.78174 0.29672 0.03282 0.0
N316 N 0.81085 0.32035 0.03734 0.0
N317 N 0.81732 0.30429 0.02305 0.0
C318 C 0.77666 0.33068 0.06055 0.0
H319 H 0.78853 0.34252 0.0692 0.0
H320 H 0.76818 0.31959 0.07322 0.0
H321 H 0.76331 0.34088 0.05201 0.0
C322 C 0.84703 0.34415 0.11561 0.0
N323 N 0.84491 0.35176 0.09427 0.0
N324 N 0.83415 0.33644 0.08204 0.0
C325 C 0.82965 0.31818 0.09518 0.0
C326 C 0.83744 0.3226 0.11694 0.0
C327 C 0.86115 0.3558 0.13325 0.0
H328 H 0.87932 0.3554 0.12796 0.0
H329 H 0.85583 0.37386 0.13468 0.0
H330 H 0.8596 0.34758 0.15003 0.0
O331 O 0.88044 0.36426 0.05592 0.0
O332 O 0.86064 0.33997 0.03493 0.0
H333 H 0.82692 0.2922 0.06965 0.0
H334 H 0.82343 0.28182 0.09826 0.0
C335 C 0.81994 0.29617 0.08666 0.0
H336 H 0.80119 0.29774 0.0854 0.0
H337 H 0.83374 0.30287 0.01633 0.0
O338 O 0.8805 0.39417 0.10087 0.0
C339 C 0.87917 0.35026 0.03952 0.0
Co340 Co 0.37647 0.08266 0.86069 0.0
Co341 Co 0.3425 0.05854 0.82788 0.0
C342 C 0.39333 0.05362 0.82296 0.0
O343 O 0.39733 0.06626 0.84 0.0
O344 O 0.37304 0.04961 0.81653 0.0
C345 C 0.41363 0.11016 0.87855 0.0
O346 O 0.42289 0.10869 0.85833 0.0
C347 C 0.32024 0.05546 0.78416 0.0
C348 C 0.28877 0.03647 0.79228 0.0
C349 C 0.29975 0.0481 0.77499 0.0
N350 N 0.32093 0.04907 0.80595 0.0
N351 N 0.30234 0.03725 0.81058 0.0
C352 C 0.33889 0.06856 0.77268 0.0
H353 H 0.35572 0.06188 0.77795 0.0
H354 H 0.33811 0.08667 0.77794 0.0
H355 H 0.33744 0.06741 0.754 0.0
C356 C 0.34913 0.12259 0.84873 0.0
N357 N 0.35525 0.1008 0.84521 0.0
N358 N 0.33991 0.09069 0.83247 0.0
C359 C 0.3232 0.10576 0.82779 0.0
C360 C 0.32864 0.12652 0.83775 0.0
C361 C 0.3604 0.13777 0.86575 0.0
H362 H 0.35966 0.1296 0.88265 0.0
H363 H 0.3786 0.13998 0.86109 0.0
H364 H 0.3522 0.15472 0.86688 0.0
O365 O 0.35966 0.06077 0.8797 0.0
O366 O 0.33623 0.04211 0.85667 0.0
H367 H 0.29445 0.08358 0.82334 0.0
H368 H 0.28821 0.1133 0.81824 0.0
C369 C 0.30121 0.09974 0.81637 0.0
H370 H 0.30432 0.09741 0.79805 0.0
H371 H 0.2984 0.03069 0.82652 0.0
O372 O 0.39444 0.10085 0.88228 0.0
C373 C 0.34449 0.04568 0.87627 0.0
Co374 Co 0.10028 0.57392 0.08245 0.0
Co375 Co 0.12884 0.60786 0.05306 0.0
C376 C 0.13968 0.55779 0.05508 0.0
O377 O 0.12343 0.55356 0.06879 0.0
O378 O 0.14355 0.57792 0.04815 0.0
C379 C 0.08038 0.53569 0.10642 0.0
O380 O 0.09581 0.52334 0.0959 0.0
C381 C 0.16974 0.63442 0.04487 0.0
C382 C 0.15718 0.66151 0.02229 0.0
C383 C 0.17617 0.65464 0.03448 0.0
N384 N 0.14795 0.63003 0.03949 0.0
N385 N 0.14072 0.64588 0.02545 0.0
C386 C 0.1829 0.62074 0.06176 0.0
H387 H 0.17147 0.60885 0.07096 0.0
H388 H 0.19167 0.63203 0.07403 0.0
H389 H 0.19607 0.61064 0.05271 0.0
C390 C 0.11063 0.60752 0.11791 0.0
N391 N 0.11336 0.59948 0.09675 0.0
N392 N 0.12446 0.61454 0.08447 0.0
C393 C 0.12885 0.63297 0.09748 0.0
C394 C 0.12045 0.62897 0.11915 0.0
C395 C 0.0961 0.5961 0.13544 0.0
H396 H 0.0784 0.59464 0.129 0.0
H397 H 0.10256 0.57862 0.1384 0.0
H398 H 0.09571 0.6056 0.15165 0.0
O399 O 0.07942 0.58409 0.0584 0.0
O400 O 0.09915 0.6081 0.03701 0.0
H401 H 0.13348 0.65864 0.07202 0.0
H402 H 0.13697 0.669 0.1006 0.0
C403 C 0.1399 0.65439 0.08911 0.0
H404 H 0.15856 0.65183 0.08815 0.0
H405 H 0.12414 0.64679 0.01917 0.0
O406 O 0.08033 0.55712 0.10371 0.0
C407 C 0.08079 0.5974 0.0415 0.0
H408 H 0.14152 0.3203 0.78342 0.0
H409 H 0.12837 0.29556 0.75235 0.0
H410 H 0.07283 0.27206 0.79435 0.0
H411 H 0.08597 0.29662 0.82522 0.0
H412 H 0.12027 0.24788 0.74951 0.0
H413 H 0.02494 0.27293 0.76151 0.0
H414 H 0.00283 0.30606 0.77488 0.0
H415 H 0.05806 0.35055 0.75687 0.0
H416 H 0.0803 0.31779 0.74294 0.0
H417 H 0.04865 0.16444 0.70727 0.0
H418 H 0.06301 0.19467 0.73169 0.0
H419 H 0.05212 0.2437 0.67861 0.0
H420 H 0.03715 0.21342 0.65409 0.0
H421 H 0.04115 0.26013 0.7223 0.0
H422 H 0.10253 0.22431 0.68343 0.0
H423 H 0.12439 0.1914 0.66924 0.0
H424 H 0.13902 0.17114 0.73742 0.0
H425 H 0.11674 0.20362 0.75206 0.0
C426 C 0.12677 0.30948 0.78598 0.0
C427 C 0.11479 0.31 0.80655 0.0
C428 C 0.11929 0.29546 0.76834 0.0
C429 C 0.09954 0.28221 0.77107 0.0
C430 C 0.088 0.28232 0.7919 0.0
C431 C 0.09554 0.29617 0.80951 0.0
C432 C 0.09024 0.26883 0.75202 0.0
C433 C 0.10306 0.25063 0.7434 0.0
C434 C 0.06799 0.27288 0.74372 0.0
C435 C 0.05437 0.29282 0.75134 0.0
C436 C 0.0323 0.28979 0.76022 0.0
C437 C 0.01975 0.30852 0.76792 0.0
C438 C 0.02905 0.33039 0.76678 0.0
C439 C 0.05089 0.3336 0.7578 0.0
C440 C 0.06348 0.31495 0.75001 0.0
C441 C 0.04882 0.18172 0.70092 0.0
C442 C 0.04225 0.18653 0.67861 0.0
C443 C 0.05718 0.19893 0.71484 0.0
C444 C 0.05908 0.22125 0.70672 0.0
C445 C 0.05101 0.22648 0.68503 0.0
C446 C 0.04266 0.20918 0.67102 0.0
C447 C 0.07081 0.23861 0.72056 0.0
C448 C 0.05847 0.25758 0.72815 0.0
C449 C 0.09367 0.23551 0.72758 0.0
C450 C 0.10781 0.21637 0.71886 0.0
C451 C 0.1103 0.21278 0.69542 0.0
C452 C 0.12276 0.19418 0.68729 0.0
C453 C 0.13307 0.17917 0.70242 0.0
C454 C 0.13101 0.18278 0.72572 0.0
C455 C 0.11847 0.2013 0.73395 0.0
H456 H 0.14267 0.16476 0.69609 0.0
H457 H 0.01933 0.34485 0.77281 0.0
H458 H 0.14218 0.88854 0.3257 0.0
H459 H 0.17262 0.90077 0.29984 0.0
H460 H 0.19658 0.83153 0.29492 0.0
H461 H 0.16562 0.81915 0.32036 0.0
H462 H 0.23186 0.8714 0.30045 0.0
H463 H 0.16913 0.84183 0.25591 0.0
H464 H 0.12842 0.83898 0.24604 0.0
H465 H 0.12693 0.91037 0.23074 0.0
H466 H 0.16753 0.91377 0.24114 0.0
H467 H 0.29446 0.87333 0.19707 0.0
H468 H 0.27073 0.86522 0.22997 0.0
H469 H 0.23408 0.92797 0.21964 0.0
H470 H 0.25813 0.93636 0.1867 0.0
H471 H 0.20572 0.89238 0.22345 0.0
H472 H 0.2688 0.92192 0.26496 0.0
H473 H 0.30902 0.92591 0.27628 0.0
H474 H 0.31008 0.85616 0.29777 0.0
H475 H 0.26993 0.85164 0.28626 0.0
C476 C 0.15423 0.87607 0.31936 0.0
C477 C 0.15188 0.853 0.32494 0.0
C478 C 0.17152 0.88302 0.30468 0.0
C479 C 0.18677 0.86702 0.29565 0.0
C480 C 0.18501 0.84408 0.30195 0.0
C481 C 0.16741 0.83704 0.31632 0.0
C482 C 0.20314 0.87404 0.27805 0.0
C483 C 0.22631 0.87574 0.2835 0.0
C484 C 0.19559 0.88021 0.25625 0.0
C485 C 0.17129 0.87811 0.24959 0.0
C486 C 0.16007 0.85697 0.25069 0.0
C487 C 0.13703 0.85524 0.24495 0.0
C488 C 0.12509 0.87448 0.2378 0.0
C489 C 0.13619 0.89548 0.23633 0.0
C490 C 0.15922 0.89733 0.24216 0.0
C491 C 0.28204 0.88589 0.20231 0.0
C492 C 0.27858 0.90583 0.18968 0.0
C493 C 0.26831 0.88111 0.22104 0.0
C494 C 0.25081 0.89611 0.2274 0.0
C495 C 0.24758 0.91623 0.21507 0.0
C496 C 0.26134 0.92104 0.19634 0.0
C497 C 0.23471 0.88978 0.24568 0.0
C498 C 0.21145 0.88816 0.24036 0.0
C499 C 0.24224 0.88375 0.2676 0.0
C500 C 0.2664 0.88638 0.27454 0.0
C501 C 0.27766 0.90736 0.27191 0.0
C502 C 0.30044 0.90974 0.2784 0.0
C503 C 0.31212 0.89128 0.28769 0.0
C504 C 0.30102 0.87043 0.29055 0.0
C505 C 0.27824 0.86796 0.28407 0.0
H506 H 0.32976 0.89316 0.29271 0.0
H507 H 0.10725 0.8731 0.23335 0.0
H508 H 0.91336 0.7859 0.69958 0.0
H509 H 0.90496 0.75373 0.72427 0.0
H510 H 0.89029 0.71192 0.66607 0.0
H511 H 0.89961 0.74375 0.64114 0.0
H512 H 0.85578 0.71171 0.70061 0.0
H513 H 0.93644 0.70075 0.69273 0.0
H514 H 0.97679 0.71259 0.69289 0.0
H515 H 0.97134 0.73089 0.76307 0.0
H516 H 0.93086 0.71947 0.76326 0.0
H517 H 0.83751 0.61712 0.77433 0.0
H518 H 0.85051 0.64095 0.74274 0.0
H519 H 0.88401 0.68593 0.79004 0.0
H520 H 0.87248 0.66128 0.8212 0.0
H521 H 0.91034 0.6802 0.75631 0.0
H522 H 0.83009 0.69748 0.76395 0.0
H523 H 0.78898 0.6886 0.76516 0.0
H524 H 0.79258 0.66185 0.69757 0.0
H525 H 0.8338 0.67032 0.69608 0.0
C526 C 0.90861 0.76981 0.69196 0.0
C527 C 0.90653 0.76762 0.66837 0.0
C528 C 0.9038 0.75146 0.70611 0.0
C529 C 0.89691 0.73054 0.69695 0.0
C530 C 0.89535 0.72805 0.67342 0.0
C531 C 0.90041 0.74637 0.65921 0.0
C532 C 0.89055 0.71166 0.71217 0.0
C533 C 0.86776 0.70443 0.71252 0.0
C534 C 0.90614 0.70267 0.72797 0.0
C535 C 0.93056 0.70938 0.72796 0.0
C536 C 0.94379 0.70745 0.70816 0.0
C537 C 0.9667 0.71406 0.70819 0.0
C538 C 0.97661 0.72252 0.72797 0.0
C539 C 0.96364 0.72434 0.74777 0.0
C540 C 0.94072 0.71776 0.74782 0.0
C541 C 0.8477 0.63209 0.77782 0.0
C542 C 0.8537 0.63766 0.80012 0.0
C543 C 0.85499 0.64577 0.75985 0.0
C544 C 0.86794 0.66548 0.76402 0.0
C545 C 0.87402 0.67086 0.78635 0.0
C546 C 0.86717 0.65696 0.80419 0.0
C547 C 0.8753 0.68066 0.74532 0.0
C548 C 0.89834 0.68718 0.74425 0.0
C549 C 0.85982 0.68933 0.72914 0.0
C550 C 0.83506 0.68428 0.73001 0.0
C551 C 0.82214 0.68955 0.74942 0.0
C552 C 0.79882 0.68462 0.75014 0.0
C553 C 0.78819 0.6746 0.73148 0.0
C554 C 0.80085 0.66956 0.71202 0.0
C555 C 0.82418 0.67443 0.71123 0.0
H556 H 0.77014 0.6708 0.73207 0.0
H557 H -0.00566 0.72764 0.72796 0.0
H558 H 0.69938 0.02255 0.17976 0.0
H559 H 0.72406 0.03232 0.21156 0.0
H560 H 0.68031 0.08905 0.22809 0.0
H561 H 0.65668 0.08039 0.19553 0.0
H562 H 0.72164 0.10277 0.2267 0.0
H563 H 0.68471 0.04002 0.2626 0.0
H564 H 0.67039 0.00076 0.26647 0.0
H565 H 0.7387 0.97502 0.26097 0.0
H566 H 0.75342 0.01412 0.25675 0.0
H567 H 0.78668 0.12997 0.32523 0.0
H568 H 0.75463 0.1178 0.30129 0.0
H569 H 0.79646 0.06434 0.27301 0.0
H570 H 0.82832 0.07645 0.297 0.0
H571 H 0.75311 0.0496 0.28368 0.0
H572 H 0.78891 0.11249 0.24442 0.0
H573 H 0.80297 0.15188 0.24078 0.0
H574 H 0.73548 0.17739 0.25336 0.0
H575 H 0.72109 0.13812 0.25742 0.0
C576 C 0.69479 0.03682 0.19047 0.0
C577 C 0.67565 0.05023 0.18547 0.0
C578 C 0.70882 0.04232 0.20874 0.0
C579 C 0.70383 0.06122 0.2225 0.0
C580 C 0.68437 0.07424 0.21789 0.0
C581 C 0.67055 0.06896 0.19945 0.0
C582 C 0.72008 0.06871 0.24021 0.0
C583 C 0.72811 0.09123 0.23947 0.0
C584 C 0.72893 0.05357 0.25658 0.0
C585 C 0.72015 0.03002 0.25919 0.0
C586 C 0.69667 0.02599 0.26205 0.0
C587 C 0.68848 0.00376 0.26434 0.0
C588 C 0.70362 -0.01459 0.26392 0.0
C589 C 0.72699 -0.01075 0.26128 0.0
C590 C 0.73527 0.01145 0.25897 0.0
C591 C 0.78888 0.11568 0.31381 0.0
C592 C 0.80982 0.10429 0.31249 0.0
C593 C 0.77068 0.10873 0.30024 0.0
C594 C 0.77329 0.09028 0.28529 0.0
C595 C 0.79413 0.0786 0.28444 0.0
C596 C 0.81229 0.08559 0.29793 0.0
C597 C 0.75461 0.08348 0.26995 0.0
C598 C 0.74625 0.06113 0.27111 0.0
C599 C 0.74534 0.09878 0.25403 0.0
C600 C 0.75398 0.12238 0.25148 0.0
C601 C 0.77711 0.1265 0.2466 0.0
C602 C 0.78513 0.14881 0.24443 0.0
C603 C 0.77014 0.16713 0.24689 0.0
C604 C 0.74708 0.16318 0.25149 0.0
C605 C 0.73898 0.1409 0.25373 0.0
H606 H 0.77638 0.18438 0.24519 0.0
H607 H 0.69724 0.96821 0.26569 0.0
H608 H 0.13546 0.62285 0.16214 0.0
H609 H 0.12887 0.64795 0.19486 0.0
H610 H 0.09512 0.69629 0.15158 0.0
H611 H 0.10073 0.67084 0.11916 0.0
H612 H 0.12701 0.71558 0.1851 0.0
H613 H 0.06297 0.66355 0.17687 0.0
H614 H 0.04631 0.62515 0.17361 0.0
H615 H 0.07359 0.60744 0.23856 0.0
H616 H 0.09083 0.64563 0.24198 0.0
H617 H 0.0344 0.75878 0.26486 0.0
H618 H 0.04824 0.73019 0.23797 0.0
H619 H 0.1161 0.73676 0.26517 0.0
H620 H 0.10252 0.76573 0.29163 0.0
H621 H 0.07009 0.68866 0.24144 0.0
H622 H 0.15307 0.73517 0.21896 0.0
H623 H 0.1699 0.77362 0.22108 0.0
H624 H 0.10323 0.80335 0.21626 0.0
H625 H 0.08604 0.76508 0.21373 0.0
C626 C 0.12687 0.63897 0.15968 0.0
C627 C 0.11878 0.64511 0.13822 0.0
C628 C 0.1232 0.65325 0.17827 0.0
C629 C 0.11161 0.67393 0.17551 0.0
C630 C 0.10433 0.68049 0.15392 0.0
C631 C 0.10761 0.66603 0.13545 0.0
C632 C 0.10526 0.6879 0.19532 0.0
C633 C 0.11475 0.70967 0.19758 0.0
C634 C 0.08916 0.68011 0.2114 0.0
C635 C 0.07841 0.65734 0.20955 0.0
C636 C 0.06559 0.6514 0.19036 0.0
C637 C 0.05602 0.62968 0.18849 0.0
C638 C 0.05894 0.61384 0.20584 0.0
C639 C 0.07138 0.61971 0.22512 0.0
C640 C 0.08106 0.64139 0.22703 0.0
C641 C 0.05218 0.75381 0.26535 0.0
C642 C 0.06728 0.76423 0.28058 0.0
C643 C 0.06004 0.73744 0.25007 0.0
C644 C 0.08319 0.73147 0.24954 0.0
C645 C 0.09816 0.74119 0.26531 0.0
C646 C 0.0903 0.75754 0.28064 0.0
C647 C 0.09181 0.71646 0.2313 0.0
C648 C 0.08269 0.69447 0.22926 0.0
C649 C 0.1082 0.72411 0.21536 0.0
C650 C 0.11827 0.74725 0.21643 0.0
C651 C 0.14202 0.74992 0.21827 0.0
C652 C 0.15162 0.77167 0.21954 0.0
C653 C 0.13764 0.7909 0.21887 0.0
C654 C 0.11403 0.78843 0.21685 0.0
C655 C 0.10435 0.76671 0.21551 0.0
H656 H 0.14512 0.80772 0.21985 0.0
H657 H 0.05153 0.59703 0.20436 0.0
H658 H 0.79924 0.81888 0.64375 0.0
H659 H 0.76759 0.82983 0.66905 0.0
H660 H 0.78426 0.90066 0.65918 0.0
H661 H 0.81546 0.88975 0.6336 0.0
H662 H 0.77834 0.88588 0.70587 0.0
H663 H 0.74145 0.8837 0.63317 0.0
H664 H 0.73038 0.86593 0.59702 0.0
H665 H 0.69516 0.81297 0.63293 0.0
H666 H 0.70637 0.83023 0.66933 0.0
H667 H 0.68519 0.93576 0.7612 0.0
H668 H 0.71197 0.92675 0.73057 0.0
H669 H 0.6875 0.85748 0.72956 0.0
H670 H 0.66065 0.86645 0.75992 0.0
H671 H 0.69704 0.87161 0.6874 0.0
H672 H 0.73437 0.87133 0.75936 0.0
H673 H 0.74598 0.88694 0.79633 0.0
H674 H 0.78115 0.94164 0.76304 0.0
H675 H 0.76943 0.92652 0.72586 0.0
C676 C 0.79599 0.83673 0.64704 0.0
C677 C 0.80946 0.85355 0.63682 0.0
C678 C 0.77799 0.84295 0.66134 0.0
C679 C 0.77362 0.86603 0.66578 0.0
C680 C 0.78739 0.88279 0.65585 0.0
C681 C 0.80509 0.87659 0.64129 0.0
C682 C 0.7549 0.87277 0.68112 0.0
C683 C 0.76054 0.88307 0.70174 0.0
C684 C 0.7318 0.86847 0.67585 0.0
C685 C 0.72497 0.85812 0.65398 0.0
C686 C 0.73154 0.86814 0.63337 0.0
C687 C 0.7252 0.85819 0.61283 0.0
C688 C 0.71213 0.8383 0.61267 0.0
C689 C 0.70532 0.82836 0.63307 0.0
C690 C 0.71166 0.83822 0.65367 0.0
C691 C 0.68522 0.91877 0.75405 0.0
C692 C 0.67065 0.90191 0.76268 0.0
C693 C 0.70054 0.91361 0.73666 0.0
C694 C 0.70191 0.89136 0.72803 0.0
C695 C 0.68663 0.87477 0.7359 0.0
C696 C 0.67117 0.87998 0.75316 0.0
C697 C 0.72044 0.88491 0.71218 0.0
C698 C 0.71482 0.87456 0.69152 0.0
C699 C 0.74364 0.88886 0.71753 0.0
C700 C 0.75082 0.89793 0.73984 0.0
C701 C 0.74443 0.88678 0.75993 0.0
C702 C 0.75105 0.89553 0.78092 0.0
C703 C 0.76424 0.9153 0.78203 0.0
C704 C 0.77089 0.92634 0.76215 0.0
C705 C 0.76428 0.91769 0.74112 0.0
H706 H 0.76936 0.92205 0.7983 0.0
H707 H 0.70722 0.83062 0.59675 0.0
H708 H 0.911 0.16726 0.24204 0.0
H709 H 0.89844 0.19667 0.21596 0.0
H710 H 0.88013 0.2399 0.27214 0.0
H711 H 0.89392 0.2111 0.29852 0.0
H712 H 0.84479 0.23256 0.23658 0.0
H713 H 0.92206 0.25668 0.24638 0.0
H714 H 0.96375 0.25175 0.24845 0.0
H715 H 0.96512 0.22875 0.17944 0.0
H716 H 0.92337 0.23322 0.17707 0.0
H717 H 0.82213 0.32546 0.16037 0.0
H718 H 0.83295 0.30094 0.19216 0.0
H719 H 0.87164 0.25839 0.1464 0.0
H720 H 0.86182 0.28353 0.11503 0.0
H721 H 0.89653 0.26914 0.18089 0.0
H722 H 0.81949 0.241 0.17179 0.0
H723 H 0.77753 0.2436 0.16973 0.0
H724 H 0.77537 0.27267 0.23638 0.0
H725 H 0.8173 0.27026 0.23887 0.0
C726 C 0.90458 0.18309 0.24898 0.0
C727 C 0.90285 0.18643 0.27251 0.0
C728 C 0.89732 0.19984 0.23401 0.0
C729 C 0.88815 0.22026 0.2422 0.0
C730 C 0.88686 0.22402 0.26558 0.0
C731 C 0.8945 0.20737 0.28064 0.0
C732 C 0.87964 0.23733 0.22604 0.0
C733 C 0.85606 0.24098 0.22463 0.0
C734 C 0.89441 0.24778 0.21028 0.0
C735 C 0.91955 0.24511 0.21161 0.0
C736 C 0.93122 0.25038 0.23171 0.0
C737 C 0.95487 0.24771 0.23292 0.0
C738 C 0.96707 0.2399 0.2141 0.0
C739 C 0.95565 0.23479 0.19401 0.0
C740 C 0.93199 0.23741 0.19272 0.0
C741 C 0.83265 0.31063 0.1572 0.0
C742 C 0.84099 0.30614 0.13537 0.0
C743 C 0.83873 0.2966 0.17528 0.0
C744 C 0.853 0.27773 0.17164 0.0
C745 C 0.86063 0.27286 0.14961 0.0
C746 C 0.85483 0.28704 0.13167 0.0
C747 C 0.86147 0.26396 0.19084 0.0
C748 C 0.88514 0.26097 0.1929 0.0
C749 C 0.84672 0.25399 0.20705 0.0
C750 C 0.82155 0.2557 0.20541 0.0
C751 C 0.81009 0.24814 0.18592 0.0
C752 C 0.78632 0.24953 0.18469 0.0
C753 C 0.77383 0.25842 0.20283 0.0
C754 C 0.78507 0.26584 0.22231 0.0
C755 C 0.80882 0.26442 0.22366 0.0
H756 H 0.75543 0.25948 0.20183 0.0
H757 H -0.01461 0.23784 0.21507 0.0
H758 H 0.16868 0.13753 0.62265 0.0
H759 H 0.20234 0.12794 0.64543 0.0
H760 H 0.15965 0.09 0.69144 0.0
H761 H 0.12628 0.09861 0.66821 0.0
H762 H 0.19527 0.11943 0.71216 0.0
H763 H 0.18252 0.06091 0.65504 0.0
H764 H 0.177 0.04838 0.61559 0.0
H765 H 0.24258 0.07552 0.59752 0.0
H766 H 0.24826 0.08865 0.63681 0.0
H767 H 0.27086 0.0238 0.74847 0.0
H768 H 0.24541 0.03887 0.71932 0.0
H769 H 0.27681 0.10491 0.726 0.0
H770 H 0.30169 0.09026 0.75539 0.0
H771 H 0.24879 0.06374 0.67748 0.0
H772 H 0.23267 0.14227 0.73214 0.0
H773 H 0.23859 0.15499 0.77154 0.0
H774 H 0.22998 0.08638 0.79497 0.0
H775 H 0.22361 0.07336 0.75579 0.0
C776 C 0.16655 0.12742 0.63782 0.0
C777 C 0.14499 0.11892 0.64386 0.0
C778 C 0.18567 0.12202 0.65077 0.0
C779 C 0.18334 0.10832 0.67005 0.0
C780 C 0.16166 0.10077 0.67671 0.0
C781 C 0.14265 0.10578 0.66352 0.0
C782 C 0.20361 0.10013 0.68225 0.0
C783 C 0.2071 0.10744 0.70454 0.0
C784 C 0.21887 0.08437 0.67225 0.0
C785 C 0.2157 0.07599 0.64879 0.0
C786 C 0.19568 0.06438 0.64261 0.0
C787 C 0.19253 0.05715 0.62029 0.0
C788 C 0.2094 0.06121 0.60404 0.0
C789 C 0.2295 0.07243 0.61011 0.0
C790 C 0.23269 0.07977 0.63241 0.0
C791 C 0.27277 0.04135 0.7432 0.0
C792 C 0.28845 0.05574 0.75405 0.0
C793 C 0.25833 0.0499 0.7265 0.0
C794 C 0.25921 0.07301 0.72067 0.0
C795 C 0.27595 0.08701 0.73028 0.0
C796 C 0.29036 0.07849 0.74696 0.0
C797 C 0.2405 0.08311 0.70738 0.0
C798 C 0.23721 0.07606 0.68495 0.0
C799 C 0.22534 0.09906 0.71728 0.0
C800 C 0.22789 0.10684 0.74103 0.0
C801 C 0.23186 0.12995 0.74574 0.0
C802 C 0.23533 0.1372 0.76802 0.0
C803 C 0.23475 0.12149 0.78573 0.0
C804 C 0.23049 0.09853 0.78123 0.0
C805 C 0.22693 0.09121 0.75899 0.0
H806 H 0.23757 0.12712 0.80295 0.0
H807 H 0.20693 0.05561 0.58677 0.0
H808 H 0.33764 0.78105 0.12061 0.0
H809 H 0.31487 0.74711 0.11143 0.0
H810 H 0.2592 0.79014 0.09067 0.0
H811 H 0.28214 0.8239 0.09884 0.0
H812 H 0.24645 0.74966 0.11719 0.0
H813 H 0.29247 0.77415 0.05225 0.0
H814 H 0.32936 0.78335 0.03432 0.0
H815 H 0.35355 0.71586 0.04821 0.0
H816 H 0.31689 0.70641 0.06664 0.0
H817 H 0.17479 0.70035 0.03987 0.0
H818 H 0.20393 0.72478 0.05621 0.0
H819 H 0.24996 0.66773 0.06038 0.0
H820 H 0.22091 0.64309 0.04319 0.0
H821 H 0.27155 0.70855 0.04792 0.0
H822 H 0.22308 0.68124 0.10582 0.0
H823 H 0.18639 0.67143 0.1238 0.0
H824 H 0.1676 0.74202 0.12516 0.0
H825 H 0.20395 0.75225 0.10665 0.0
C826 C 0.3204 0.78314 0.1144 0.0
C827 C 0.31153 0.80498 0.11054 0.0
C828 C 0.30745 0.76384 0.10926 0.0
C829 C 0.2854 0.76622 0.10046 0.0
C830 C 0.27612 0.78802 0.09769 0.0
C831 C 0.28918 0.80726 0.10244 0.0
C832 C 0.27269 0.74634 0.09185 0.0
C833 C 0.25189 0.74059 0.1021 0.0
C834 C 0.28027 0.73414 0.07258 0.0
C835 C 0.30207 0.73967 0.06106 0.0
C836 C 0.30572 0.76133 0.05164 0.0
C837 C 0.32657 0.76659 0.04137 0.0
C838 C 0.34382 0.75022 0.04018 0.0
C839 C 0.3402 0.72853 0.04919 0.0
C840 C 0.31939 0.72322 0.05956 0.0
C841 C 0.19125 0.69301 0.04378 0.0
C842 C 0.19536 0.66965 0.0408 0.0
C843 C 0.20782 0.70698 0.05331 0.0
C844 C 0.2288 0.69788 0.06008 0.0
C845 C 0.23369 0.67494 0.05558 0.0
C846 C 0.21704 0.66088 0.04597 0.0
C847 C 0.24489 0.71237 0.07282 0.0
C848 C 0.26631 0.71714 0.06336 0.0
C849 C 0.23799 0.72346 0.09301 0.0
C850 C 0.21626 0.71751 0.10469 0.0
C851 C 0.21108 0.69469 0.1098 0.0
C852 C 0.19033 0.68904 0.12009 0.0
C853 C 0.17466 0.70609 0.1256 0.0
C854 C 0.17976 0.72883 0.12088 0.0
C855 C 0.20045 0.73457 0.11049 0.0
H856 H 0.1586 0.70167 0.13355 0.0
H857 H 0.35996 0.75432 0.03224 0.0
H858 H 0.21852 0.30964 0.89674 0.0
H859 H 0.2482 0.28296 0.8848 0.0
H860 H 0.20531 0.22663 0.90425 0.0
H861 H 0.17518 0.25301 0.91519 0.0
H862 H 0.25205 0.22181 0.91647 0.0
H863 H 0.20472 0.24178 0.85205 0.0
H864 H 0.18728 0.26945 0.82601 0.0
H865 H 0.25377 0.29258 0.8058 0.0
H866 H 0.2716 0.26533 0.8321 0.0
H867 H 0.28785 0.1252 0.8593 0.0
H868 H 0.26443 0.15753 0.87115 0.0
H869 H 0.31223 0.20367 0.83972 0.0
H870 H 0.33537 0.17107 0.82715 0.0
H871 H 0.26788 0.21756 0.83396 0.0
H872 H 0.31566 0.19488 0.89476 0.0
H873 H 0.33358 0.16776 0.92103 0.0
H874 H 0.26787 0.15083 0.94857 0.0
H875 H 0.2495 0.17755 0.92216 0.0
C876 C 0.21521 0.29162 0.89817 0.0
C877 C 0.19407 0.28347 0.90603 0.0
C878 C 0.23235 0.27641 0.89165 0.0
C879 C 0.22873 0.25288 0.89335 0.0
C880 C 0.20835 0.24476 0.90276 0.0
C881 C 0.19115 0.2599 0.90899 0.0
C882 C 0.24532 0.23653 0.88387 0.0
C883 C 0.25551 0.2208 0.89845 0.0
C884 C 0.25019 0.23572 0.86041 0.0
C885 C 0.23949 0.25171 0.84423 0.0
C886 C 0.21562 0.25289 0.84218 0.0
C887 C 0.20566 0.26848 0.82737 0.0
C888 C 0.21941 0.28281 0.8143 0.0
C889 C 0.24315 0.2815 0.81597 0.0
C890 C 0.25319 0.26599 0.83083 0.0
C891 C 0.29298 0.14221 0.8544 0.0
C892 C 0.31319 0.1458 0.84219 0.0
C893 C 0.27977 0.16065 0.86136 0.0
C894 C 0.28684 0.18298 0.85664 0.0
C895 C 0.30654 0.18656 0.84357 0.0
C896 C 0.3197 0.16804 0.83644 0.0
C897 C 0.27421 0.20242 0.86652 0.0
C898 C 0.26477 0.21875 0.85203 0.0
C899 C 0.27017 0.20391 0.89012 0.0
C900 C 0.28118 0.18814 0.90637 0.0
C901 C 0.30501 0.18528 0.90633 0.0
C902 C 0.31525 0.16998 0.92125 0.0
C903 C 0.30187 0.15756 0.93644 0.0
C904 C 0.27822 0.16047 0.93678 0.0
C905 C 0.26788 0.17571 0.92186 0.0
H906 H 0.30983 0.14571 0.94797 0.0
H907 H 0.21167 0.29487 0.80284 0.0
H908 H 0.79443 0.70991 0.90194 0.0
H909 H 0.76153 0.73426 0.89506 0.0
H910 H 0.71741 0.67555 0.89528 0.0
H911 H 0.75008 0.65108 0.90336 0.0
H912 H 0.71414 0.70515 0.85584 0.0
H913 H 0.7115 0.70853 0.93685 0.0
H914 H 0.7275 0.71377 -0.02496 0.0
H915 H 0.74625 0.78243 0.95852 0.0
H916 H 0.73066 0.77749 0.92011 0.0
H917 H 0.61883 0.77894 0.83871 0.0
H918 H 0.64408 0.74854 0.85195 0.0
H919 H 0.69235 0.79904 0.87497 0.0
H920 H 0.66627 0.82918 0.86358 0.0
H921 H 0.6893 0.769 0.90509 0.0
H922 H 0.69825 0.76531 0.82378 0.0
H923 H 0.68526 0.76114 0.78433 0.0
H924 H 0.65817 0.69498 0.79956 0.0
H925 H 0.67077 0.69889 0.83918 0.0
C926 C 0.77771 0.70214 0.90089 0.0
C927 C 0.77503 0.67841 0.90247 0.0
C928 C 0.75895 0.7161 0.89691 0.0
C929 C 0.73716 0.70661 0.89448 0.0
C930 C 0.73421 0.68307 0.89684 0.0
C931 C 0.75297 0.6691 0.90116 0.0
C932 C 0.71783 0.72137 0.88831 0.0
C933 C 0.7083 0.71887 0.86673 0.0
C934 C 0.71078 0.7395 0.90238 0.0
C935 C 0.72004 0.74258 0.92554 0.0
C936 C 0.71919 0.72469 0.9413 0.0
C937 C 0.72816 0.72762 0.963 0.0
C938 C 0.73792 0.74841 0.96919 0.0
C939 C 0.73869 0.76633 0.9537 0.0
C940 C 0.72976 0.76348 0.93198 0.0
C941 C 0.63488 0.7834 0.84659 0.0
C942 C 0.64083 0.8063 0.84987 0.0
C943 C 0.64936 0.76608 0.85399 0.0
C944 C 0.67033 0.77145 0.86417 0.0
C945 C 0.6763 0.79441 0.86717 0.0
C946 C 0.66157 0.81165 0.86035 0.0
C947 C 0.68602 0.75338 0.87218 0.0
C948 C 0.69484 0.75517 0.8942 0.0
C949 C 0.69277 0.73486 0.85829 0.0
C950 C 0.6852 0.73251 0.83449 0.0
C951 C 0.68937 0.74995 0.81874 0.0
C952 C 0.68211 0.74762 0.79635 0.0
C953 C 0.67083 0.72784 0.78946 0.0
C954 C 0.66686 0.71032 0.80493 0.0
C955 C 0.67407 0.71257 0.82735 0.0
H956 H 0.66522 0.72607 0.77212 0.0
H957 H 0.74485 0.75064 -0.014 0.0
H958 H 0.61799 0.1766 0.12408 0.0
H959 H 0.6418 0.2097 0.11434 0.0
H960 H 0.69431 0.1647 0.08946 0.0
H961 H 0.67025 0.13185 0.098 0.0
H962 H 0.70981 0.20468 0.11669 0.0
H963 H 0.66114 0.18192 0.05309 0.0
H964 H 0.62335 0.17394 0.03669 0.0
H965 H 0.60174 0.24202 0.05232 0.0
H966 H 0.63931 0.25023 0.06926 0.0
H967 H 0.78109 0.2509 0.03719 0.0
H968 H 0.7512 0.22758 0.05394 0.0
H969 H 0.70793 0.28658 0.06035 0.0
H970 H 0.73765 0.31009 0.0427 0.0
H971 H 0.68417 0.24648 0.04836 0.0
H972 H 0.73528 0.27206 0.10478 0.0
H973 H 0.7732 0.28059 0.12057 0.0
H974 H 0.7897 0.20942 0.12022 0.0
H975 H 0.75205 0.20047 0.10394 0.0
C976 C 0.63475 0.17388 0.11679 0.0
C977 C 0.64238 0.15177 0.11184 0.0
C978 C 0.64831 0.1927 0.11137 0.0
C979 C 0.66978 0.18952 0.1013 0.0
C980 C 0.67788 0.16741 0.09747 0.0
C981 C 0.66417 0.14869 0.10242 0.0
C982 C 0.68292 0.20896 0.09236 0.0
C983 C 0.70423 0.21393 0.10184 0.0
C984 C 0.67523 0.22136 0.07337 0.0
C985 C 0.6529 0.2166 0.06269 0.0
C986 C 0.64826 0.19512 0.0532 0.0
C987 C 0.6269 0.19056 0.04379 0.0
C988 C 0.61013 0.20744 0.04352 0.0
C989 C 0.61473 0.22894 0.05259 0.0
C990 C 0.63605 0.23356 0.0621 0.0
C991 C 0.76506 0.25891 0.04167 0.0
C992 C 0.76198 0.28248 0.03926 0.0
C993 C 0.74806 0.24557 0.0514 0.0
C994 C 0.72768 0.25553 0.05895 0.0
C995 C 0.72374 0.27871 0.05495 0.0
C996 C 0.74081 0.29212 0.0451 0.0
C997 C 0.71142 0.24173 0.07226 0.0
C998 C 0.68955 0.23777 0.0636 0.0
C999 C 0.71849 0.23048 0.09221 0.0
C1000 C 0.74083 0.2356 0.10297 0.0
C1001 C 0.74701 0.25822 0.10796 0.0
C1002 C 0.76848 0.26314 0.11696 0.0
C1003 C 0.78389 0.24557 0.12126 0.0
C1004 C 0.77777 0.22302 0.11679 0.0
C1005 C 0.75634 0.21801 0.1077 0.0
H1006 H 0.80052 0.24943 0.12819 0.0
H1007 H 0.5936 0.20388 0.03624 0.0
H1008 H 0.10407 0.92168 0.41093 0.0
H1009 H 0.11561 0.95604 0.43043 0.0
H1010 H 0.14344 0.91593 0.48484 0.0
H1011 H 0.13112 0.88099 0.46551 0.0
H1012 H 0.11858 0.94896 0.50125 0.0
H1013 H 0.17892 0.94675 0.44815 0.0
H1014 H 0.19744 0.94195 0.41094 0.0
H1015 H 0.1605 -0.00063 0.38524 0.0
H1016 H 0.14148 0.00433 0.42219 0.0
H1017 H 0.13886 0.05692 0.54895 0.0
H1018 H 0.152 0.02172 0.53109 0.0
H1019 H 0.11307 0.03763 0.4714 0.0
H1020 H 0.09988 0.07285 0.48903 0.0
H1021 H 0.15439 0.01454 0.46196 0.0
H1022 H 0.08914 0.01042 0.5136 0.0
H1023 H 0.07109 0.01514 0.55103 0.0
H1024 H 0.11893 0.96819 0.57982 0.0
H1025 H 0.13773 0.96373 0.54264 0.0
C1026 C 0.11284 0.92 0.42694 0.0
C1027 C 0.11663 0.89852 0.43669 0.0
C1028 C 0.11967 0.93976 0.438 0.0
C1029 C 0.13087 0.93862 0.45889 0.0
C1030 C 0.13501 0.91721 0.46862 0.0
C1031 C 0.12795 0.89728 0.45758 0.0
C1032 C 0.13622 0.96003 0.47115 0.0
C1033 C 0.12705 0.96308 0.49291 0.0
C1034 C 0.14712 -0.02143 0.46023 0.0
C1035 C 0.15872 0.97587 0.43799 0.0
C1036 C 0.17465 0.9583 0.43455 0.0
C1037 C 0.18525 0.95555 0.41349 0.0
C1038 C 0.18014 0.97034 0.39574 0.0
C1039 C 0.16446 -0.01206 0.39902 0.0
C1040 C 0.1538 -0.00924 0.42004 0.0
C1041 C 0.13358 0.05327 0.53177 0.0
C1042 C 0.1179 0.06742 0.52057 0.0
C1043 C 0.14115 0.03315 0.52161 0.0
C1044 C 0.13316 0.02693 0.50013 0.0
C1045 C 0.11935 0.04212 0.48804 0.0
C1046 C 0.11173 0.06219 0.4982 0.0
C1047 C 0.1361 0.00345 0.49155 0.0
C1048 C 0.1467 0.00012 0.47052 0.0
C1049 C 0.12667 -0.01541 0.50318 0.0
C1050 C 0.11506 -0.01299 0.52541 0.0
C1051 C 0.09598 0.0013 0.52796 0.0
C1052 C 0.08563 0.00395 0.54914 0.0
C1053 C 0.09389 -0.00798 0.56781 0.0
C1054 C 0.11257 -0.02255 0.56535 0.0
C1055 C 0.12312 0.97492 0.54424 0.0
H1056 H 0.08583 -0.00597 0.58419 0.0
H1057 H 0.18835 0.96817 0.37945 0.0
H1058 H 0.92669 0.78536 0.56262 0.0
H1059 H 0.95353 0.77106 0.53446 0.0
H1060 H 0.91388 0.80165 0.48137 0.0
H1061 H 0.88701 0.81652 0.50944 0.0
H1062 H 0.94385 0.75514 0.47262 0.0
H1063 H 0.94459 0.83735 0.49565 0.0
H1064 H 0.94222 0.86574 0.52642 0.0
H1065 H -0.00217 0.83318 0.56059 0.0
H1066 H 0.00021 0.80436 0.53016 0.0
H1067 H 0.01394 0.79915 0.38615 0.0
H1068 H -0.01306 0.78571 0.41442 0.0
H1069 H 0.03837 0.79262 0.46613 0.0
H1070 H 0.06507 0.80752 0.43795 0.0
H1071 H 0.00432 0.81395 0.47916 0.0
H1072 H 0.0118 0.73922 0.45024 0.0
H1073 H 0.01405 0.70851 0.42185 0.0
H1074 H 0.94536 0.72244 0.40115 0.0
H1075 H 0.94278 0.75347 0.42919 0.0
C1076 C 0.92311 0.78839 0.54491 0.0
C1077 C 0.90506 0.80269 0.53832 0.0
C1078 C 0.93842 0.77999 0.52883 0.0
C1079 C 0.93572 0.7855 0.50595 0.0
C1080 C 0.91611 0.79716 0.499 0.0
C1081 C 0.90089 0.80581 0.5151 0.0
C1082 C 0.95568 0.78458 0.49074 0.0
C1083 C 0.95714 0.76792 0.47383 0.0
C1084 C 0.97325 0.80084 0.49302 0.0
C1085 C 0.97246 0.81866 0.51078 0.0
C1086 C 0.95624 0.83622 0.50978 0.0
C1087 C 0.95488 0.85237 0.52715 0.0
C1088 C 0.96983 0.85124 0.54548 0.0
C1089 C -0.01376 0.83401 0.5464 0.0
C1090 C -0.01239 0.81778 0.52911 0.0
C1091 C 0.01972 0.79719 0.40343 0.0
C1092 C 0.04152 0.80462 0.40991 0.0
C1093 C 0.00425 0.78931 0.41963 0.0
C1094 C 0.01053 0.78804 0.44253 0.0
C1095 C 0.03302 0.7936 0.44864 0.0
C1096 C 0.0483 0.80205 0.43253 0.0
C1097 C -0.00719 0.78455 0.46028 0.0
C1098 C -0.00845 0.80064 0.47787 0.0
C1099 C 0.97573 0.76747 0.45868 0.0
C1100 C 0.97715 0.7488 0.44176 0.0
C1101 C -0.00278 0.73586 0.43953 0.0
C1102 C -0.00145 0.71837 0.42351 0.0
C1103 C -0.02013 0.71355 0.40968 0.0
C1104 C 0.95981 0.72619 0.41188 0.0
C1105 C 0.95839 0.74371 0.42786 0.0
H1106 H -0.01906 0.7 0.39729 0.0
H1107 H 0.96873 0.86373 0.55893 0.0
H1108 H 0.82455 0.08168 0.45861 0.0
H1109 H 0.81082 0.0487 0.48009 0.0
H1110 H 0.82467 0.00522 0.42273 0.0
H1111 H 0.83756 0.03787 0.40111 0.0
H1112 H 0.78853 -0.01011 0.44436 0.0
H1113 H 0.86496 0.01526 0.4649 0.0
H1114 H 0.89302 0.04304 0.47923 0.0
H1115 H 0.85581 0.04832 0.54174 0.0
H1116 H 0.82738 0.02074 0.52763 0.0
H1117 H 0.84002 0.88776 0.482 0.0
H1118 H 0.82603 0.92329 0.46569 0.0
H1119 H 0.80671 0.94701 0.53216 0.0
H1120 H 0.82066 0.91167 0.5486 0.0
H1121 H 0.83646 0.97514 0.51172 0.0
H1122 H 0.76619 0.94008 0.49271 0.0
H1123 H 0.74073 0.91053 0.47727 0.0
H1124 H 0.76842 0.92136 0.41081 0.0
H1125 H 0.79431 0.95074 0.42588 0.0
C1126 C 0.82421 0.06515 0.45047 0.0
C1127 C 0.83261 0.06231 0.42834 0.0
C1128 C 0.81638 0.04633 0.46275 0.0
C1129 C 0.81714 0.02442 0.45315 0.0
C1130 C 0.82396 0.02191 0.43053 0.0
C1131 C 0.83156 0.04064 0.41825 0.0
C1132 C 0.81369 0.00372 0.46705 0.0
C1133 C 0.79891 -0.01336 0.45916 0.0
C1134 C 0.82688 -0.00033 0.48664 0.0
C1135 C 0.84392 0.01622 0.49511 0.0
C1136 C 0.8627 0.02248 0.48163 0.0
C1137 C 0.87867 0.03816 0.48972 0.0
C1138 C 0.87615 0.0475 0.51135 0.0
C1139 C 0.85769 0.04112 0.52496 0.0
C1140 C 0.84165 0.02548 0.51693 0.0
C1141 C 0.83223 0.90027 0.49307 0.0
C1142 C 0.83184 0.89707 0.51662 0.0
C1143 C 0.82412 0.92053 0.48371 0.0
C1144 C 0.81538 0.9378 0.49775 0.0
C1145 C 0.81343 0.93391 0.52106 0.0
C1146 C 0.82149 0.9137 0.5304 0.0
C1147 C 0.81184 0.96098 0.48863 0.0
C1148 C 0.82544 -0.02147 0.49739 0.0
C1149 C 0.79785 0.96523 0.46968 0.0
C1150 C 0.78229 0.94757 0.46048 0.0
C1151 C 0.76699 0.93605 0.47483 0.0
C1152 C 0.75245 0.91935 0.46614 0.0
C1153 C 0.75297 0.91405 0.44308 0.0
C1154 C 0.76802 0.92549 0.42867 0.0
C1155 C 0.78261 0.9422 0.43727 0.0
H1156 H 0.7417 0.90112 0.43638 0.0
H1157 H 0.88854 0.05963 0.51759 0.0
H1158 H 0.89496 0.1401 0.43358 0.0
H1159 H 0.92233 0.15357 0.46183 0.0
H1160 H 0.97012 0.17009 0.40879 0.0
H1161 H 0.9428 0.15724 0.3804 0.0
H1162 H -0.01699 0.13501 0.44338 0.0
H1163 H 0.95544 0.21161 0.43543 0.0
H1164 H 0.92598 0.24151 0.43462 0.0
H1165 H 0.90788 0.22656 0.50346 0.0
H1166 H 0.937 0.19631 0.50458 0.0
H1167 H 0.06983 0.15215 0.51998 0.0
H1168 H 0.0454 0.16342 0.48851 0.0
H1169 H -0.01192 0.16881 0.5342 0.0
H1170 H 0.0126 0.1587 0.56582 0.0
H1171 H -0.01805 0.19707 0.50046 0.0
H1172 H 0.00134 0.11808 0.50795 0.0
H1173 H 0.0275 0.08541 0.51139 0.0
H1174 H 0.05643 0.10081 0.44635 0.0
H1175 H 0.03063 0.13379 0.44267 0.0
C1176 C 0.91102 0.14723 0.42788 0.0
C1177 C 0.91679 0.14737 0.40476 0.0
C1178 C 0.92659 0.15498 0.44403 0.0
C1179 C 0.94819 0.16274 0.43731 0.0
C1180 C 0.95346 0.16423 0.41422 0.0
C1181 C 0.93779 0.15689 0.39805 0.0
C1182 C 0.96633 0.16576 0.45432 0.0
C1183 C -0.01685 0.14889 0.45554 0.0
C1184 C 0.96581 0.18336 0.47063 0.0
C1185 C 0.94828 0.20154 0.47001 0.0
C1186 C 0.94503 0.21453 0.45033 0.0
C1187 C 0.92842 0.23159 0.44983 0.0
C1188 C 0.91503 0.2359 0.46896 0.0
C1189 C 0.91825 0.22319 0.48865 0.0
C1190 C 0.93483 0.20611 0.48923 0.0
C1191 C 0.05219 0.15648 0.52341 0.0
C1192 C 0.04302 0.1541 0.54527 0.0
C1193 C 0.03823 0.16284 0.50542 0.0
C1194 C 0.01474 0.1662 0.50889 0.0
C1195 C 0.00609 0.16612 0.53106 0.0
C1196 C 0.02016 0.16026 0.54915 0.0
C1197 C -0.00124 0.16634 0.48947 0.0
C1198 C -0.01782 0.18353 0.48796 0.0
C1199 C -0.00102 0.14859 0.47319 0.0
C1200 C 0.01425 0.12855 0.47515 0.0
C1201 C 0.01337 0.11457 0.49444 0.0
C1202 C 0.02812 0.096 0.49643 0.0
C1203 C 0.04366 0.09108 0.47913 0.0
C1204 C 0.04441 0.10467 0.45976 0.0
C1205 C 0.02973 0.1233 0.4577 0.0
H1206 H 0.05508 0.0767 0.48071 0.0
H1207 H 0.90219 0.24911 0.46854 0.0
H1208 H 0.39911 0.11469 0.92215 0.0
H1209 H 0.42118 0.12704 0.95463 0.0
H1210 H 0.47837 0.1421 0.911 0.0
H1211 H 0.45644 0.12908 0.87821 0.0
H1212 H 0.4912 0.1162 0.94441 0.0
H1213 H 0.4495 0.185 0.94015 0.0
H1214 H 0.4157 0.20959 0.93621 0.0
H1215 H 0.38778 0.18246 -0.00224 0.0
H1216 H 0.42124 0.15745 0.00193 0.0
H1217 H 0.5529 0.13912 0.04259 0.0
H1218 H 0.53292 0.15071 0.00834 0.0
H1219 H 0.46971 0.12541 0.03608 0.0
H1220 H 0.48951 0.11388 0.07054 0.0
H1221 H 0.464 0.16415 0.00825 0.0
H1222 H 0.50182 0.09027 0.0069 0.0
H1223 H 0.53531 0.06518 0.01081 0.0
H1224 H 0.57025 0.10253 0.95881 0.0
H1225 H 0.53709 0.12808 0.95487 0.0
C1226 C 0.41626 0.12095 0.91933 0.0
C1227 C 0.42611 0.12067 0.8976 0.0
C1228 C 0.42881 0.12825 0.93796 0.0
C1229 C 0.45137 0.13575 0.93526 0.0
C1230 C 0.46095 0.13645 0.91345 0.0
C1231 C 0.4484 0.12901 0.89474 0.0
C1232 C 0.46558 0.14008 0.95554 0.0
C1233 C 0.48557 0.12723 0.95807 0.0
C1234 C 0.45802 0.15411 0.97359 0.0
C1235 C 0.43788 0.16926 0.97129 0.0
C1236 C 0.43609 0.18416 0.95278 0.0
C1237 C 0.417 0.1982 0.95052 0.0
C1238 C 0.39959 0.19757 0.96671 0.0
C1239 C 0.40128 0.18294 -0.01477 0.0
C1240 C 0.42034 0.16886 -0.01242 0.0
C1241 C 0.53464 0.13651 0.04167 0.0
C1242 C 0.52285 0.12509 0.05905 0.0
C1243 C 0.52326 0.14322 0.0221 0.0
C1244 C 0.49997 0.1385 0.01955 0.0
C1245 C 0.48773 0.12912 0.03773 0.0
C1246 C 0.49909 0.12246 0.05738 0.0
C1247 C 0.48918 0.13999 -0.00297 0.0
C1248 C 0.46987 0.15373 -0.00578 0.0
C1249 C 0.49731 0.1268 -0.02137 0.0
C1250 C 0.51711 0.11125 -0.01921 0.0
C1251 C 0.51672 0.09323 -0.00358 0.0
C1252 C 0.53562 0.07892 -0.00137 0.0
C1253 C 0.55492 0.08231 -0.01489 0.0
C1254 C 0.55532 0.09996 0.96931 0.0
C1255 C 0.53648 0.11436 0.96708 0.0
H1256 H 0.56954 0.07122 -0.01316 0.0
H1257 H 0.38482 0.20844 0.96492 0.0
H1258 H 0.18039 0.55888 0.03223 0.0
H1259 H 0.19443 0.53012 0.00561 0.0
H1260 H 0.13889 0.48573 0.02456 0.0
H1261 H 0.12559 0.51374 0.05186 0.0
H1262 H 0.17227 0.46076 0.01223 0.0
H1263 H 0.13481 0.52735 -0.01926 0.0
H1264 H 0.1307 0.56853 0.97372 0.0
H1265 H 0.19666 0.56994 0.94193 0.0
H1266 H 0.20124 0.52878 0.94903 0.0
H1267 H 0.12385 0.44029 0.89576 0.0
H1268 H 0.13743 0.4678 0.92336 0.0
H1269 H 0.1933 0.42323 0.94036 0.0
H1270 H 0.17895 0.39495 0.91346 0.0
H1271 H 0.17095 0.49267 0.93457 0.0
H1272 H 0.2022 0.42486 -0.00336 0.0
H1273 H 0.19807 0.38368 0.00395 0.0
H1274 H 0.13116 0.38462 -0.02535 0.0
H1275 H 0.13482 0.42581 0.96743 0.0
C1276 C 0.17165 0.54266 0.03123 0.0
C1277 C 0.15163 0.53873 0.04381 0.0
C1278 C 0.17962 0.52629 0.01593 0.0
C1279 C 0.16728 0.50607 0.01251 0.0
C1280 C 0.14866 0.50124 0.02673 0.0
C1281 C 0.141 0.51735 0.04236 0.0
C1282 C 0.17142 0.49144 -0.00763 0.0
C1283 C 0.1724 0.46776 -0.00475 0.0
C1284 C 0.17129 0.50048 0.97013 0.0
C1285 C 0.16849 0.52512 0.96566 0.0
C1286 C 0.14846 0.53649 0.97235 0.0
C1287 C 0.14605 0.55981 0.96836 0.0
C1288 C 0.16344 0.57186 0.95745 0.0
C1289 C 0.18324 0.56059 0.95044 0.0
C1290 C 0.18576 0.53728 0.95444 0.0
C1291 C 0.13935 0.43653 0.90495 0.0
C1292 C 0.15006 0.41526 0.90278 0.0
C1293 C 0.14717 0.45234 0.92075 0.0
C1294 C 0.16606 0.44736 0.93443 0.0
C1295 C 0.1783 0.42719 0.93047 0.0
C1296 C 0.17016 0.41109 0.91501 0.0
C1297 C 0.1708 0.46197 0.95444 0.0
C1298 C 0.17164 0.48566 0.95152 0.0
C1299 C 0.17146 0.45294 -0.02334 0.0
C1300 C 0.16893 0.42828 -0.01876 0.0
C1301 C 0.18661 0.41625 -0.00818 0.0
C1302 C 0.18434 0.39293 -0.00406 0.0
C1303 C 0.1644 0.38152 -0.01032 0.0
C1304 C 0.14662 0.39345 -0.02058 0.0
C1305 C 0.14878 0.41677 -0.02469 0.0
H1306 H 0.16271 0.36346 -0.00716 0.0
H1307 H 0.16155 0.58991 0.95438 0.0
H1308 H 0.45298 0.81608 0.0772 0.0
H1309 H 0.47572 0.80252 0.04497 0.0
H1310 H 0.4221 0.82273 -0.0006 0.0
H1311 H 0.3992 0.83554 0.03124 0.0
H1312 H 0.44228 0.78564 -0.01634 0.0
H1313 H 0.46671 0.85924 0.01429 0.0
H1314 H 0.48157 0.88437 0.04434 0.0
H1315 H 0.54114 0.84233 0.05028 0.0
H1316 H 0.52646 0.81682 0.02042 0.0
H1317 H 0.48674 0.83851 0.88622 0.0
H1318 H 0.46857 0.8238 0.92044 0.0
H1319 H 0.53423 0.80326 0.94603 0.0
H1320 H 0.55254 0.81828 0.91207 0.0
H1321 H 0.5136 0.83019 -0.02515 0.0
H1322 H 0.49242 0.76345 0.93506 0.0
H1323 H 0.47706 0.74045 0.90368 0.0
H1324 H 0.41107 0.77064 0.91334 0.0
H1325 H 0.42608 0.79408 0.94456 0.0
C1326 C 0.44589 0.81719 0.06034 0.0
C1327 C 0.42451 0.82734 0.05673 0.0
C1328 C 0.45889 0.80945 0.04195 0.0
C1329 C 0.45077 0.81201 0.01975 0.0
C1330 C 0.42876 0.8206 0.01635 0.0
C1331 C 0.41576 0.82815 0.03462 0.0
C1332 C 0.46581 0.80861 -0.00019 0.0
C1333 C 0.45795 0.79525 -0.01831 0.0
C1334 C 0.48657 0.82068 -0.00251 0.0
C1335 C 0.49537 0.83599 0.01539 0.0
C1336 C 0.4829 0.8553 0.02213 0.0
C1337 C 0.49129 0.86961 0.0391 0.0
C1338 C 0.51225 0.8649 0.04927 0.0
C1339 C 0.52488 0.84592 0.04244 0.0
C1340 C 0.51654 0.83153 0.0255 0.0
C1341 C 0.49724 0.83036 0.89887 0.0
C1342 C 0.52109 0.8299 0.89662 0.0
C1343 C 0.48682 0.8218 0.91839 0.0
C1344 C 0.50005 0.81238 0.93581 0.0
C1345 C 0.52371 0.81049 0.93284 0.0
C1346 C 0.53414 0.81916 0.91343 0.0
C1347 C 0.48966 0.80788 0.95826 0.0
C1348 C 0.49838 0.81985 -0.0231 0.0
C1349 C 0.46962 0.79473 0.96089 0.0
C1350 C 0.46043 0.78061 0.94213 0.0
C1351 C 0.47467 0.76531 0.93041 0.0
C1352 C 0.46601 0.75217 0.91265 0.0
C1353 C 0.44311 0.7541 0.90651 0.0
C1354 C 0.4288 0.76915 0.91813 0.0
C1355 C 0.43737 0.78234 0.93589 0.0
H1356 H 0.43644 0.74391 0.89276 0.0
H1357 H 0.51872 0.87601 0.0624 0.0
H1358 H 0.81316 0.51764 0.8864 0.0
H1359 H 0.80108 0.4902 0.91514 0.0
H1360 H 0.78704 0.54507 0.96159 0.0
H1361 H 0.79842 0.57269 0.93292 0.0
H1362 H 0.82872 0.50463 0.96471 0.0
H1363 H 0.7476 0.52533 0.96261 0.0
H1364 H 0.71109 0.53013 0.94259 0.0
H1365 H 0.71253 0.45986 0.92253 0.0
H1366 H 0.74926 0.45476 0.94213 0.0
H1367 H 0.82363 0.43819 0.06095 0.0
H1368 H 0.81228 0.46961 0.03645 0.0
H1369 H 0.78319 0.42185 -0.01091 0.0
H1370 H 0.79377 0.39044 0.01375 0.0
H1371 H 0.76018 0.46051 -0.01271 0.0
H1372 H 0.83798 0.43764 -0.01547 0.0
H1373 H 0.87641 0.42884 -0.00122 0.0
H1374 H 0.88451 0.4981 0.02062 0.0
H1375 H 0.8458 0.50717 0.00709 0.0
C1376 C 0.80665 0.52393 0.90241 0.0
C1377 C 0.80707 0.54733 0.90748 0.0
C1378 C 0.79966 0.50823 0.91875 0.0
C1379 C 0.79309 0.51571 0.94034 0.0
C1380 C 0.79173 0.53907 0.94486 0.0
C1381 C 0.79834 0.55481 0.92844 0.0
C1382 C 0.79285 0.49942 0.95925 0.0
C1383 C 0.81365 0.49532 0.97007 0.0
C1384 C 0.77337 0.48669 0.96531 0.0
C1385 C 0.75132 0.48976 0.95357 0.0
C1386 C 0.74028 0.51099 0.95368 0.0
C1387 C 0.71951 0.51374 0.94248 0.0
C1388 C 0.70954 0.49534 0.93122 0.0
C1389 C 0.72029 0.47412 0.93121 0.0
C1390 C 0.74108 0.47129 0.94238 0.0
C1391 C 0.81425 0.4344 0.04564 0.0
C1392 C 0.81008 0.41178 0.03905 0.0
C1393 C 0.8078 0.45238 0.03164 0.0
C1394 C 0.79747 0.44799 0.01066 0.0
C1395 C 0.79129 0.42562 0.00512 0.0
C1396 C 0.79747 0.40765 0.01924 0.0
C1397 C 0.79603 0.46607 -0.00672 0.0
C1398 C 0.77514 0.47023 -0.01757 0.0
C1399 C 0.81567 0.47845 -0.01342 0.0
C1400 C 0.83883 0.473 -0.00488 0.0
C1401 C 0.84783 0.45093 -0.00736 0.0
C1402 C 0.86968 0.4459 0.00057 0.0
C1403 C 0.88287 0.46288 0.01069 0.0
C1404 C 0.87422 0.48493 0.01291 0.0
C1405 C 0.8523 0.49002 0.00516 0.0
H1406 H 0.89983 0.45897 0.01671 0.0
H1407 H 0.69345 0.4975 0.92257 0.0
H1408 H 0.87718 0.45837 0.12179 0.0
H1409 H 0.90954 0.48191 0.13397 0.0
H1410 H 0.95476 0.42475 0.12422 0.0
H1411 H 0.92266 0.40114 0.11314 0.0
H1412 H 0.96919 0.44848 0.15842 0.0
H1413 H 0.9439 0.46609 0.08189 0.0
H1414 H 0.91592 0.47881 0.0535 0.0
H1415 H 0.90866 0.54262 0.08834 0.0
H1416 H 0.93641 0.53015 0.11708 0.0
H1417 H 0.0719 0.49012 0.11103 0.0
H1418 H 0.03618 0.47246 0.12298 0.0
H1419 H 0.00849 0.53854 0.13916 0.0
H1420 H 0.04413 0.5564 0.12715 0.0
H1421 H -0.01773 0.5158 0.10958 0.0
H1422 H 0.01602 0.49971 0.18079 0.0
H1423 H 0.04562 0.48607 0.20698 0.0
H1424 H 0.03892 0.41841 0.18023 0.0
H1425 H 0.00951 0.43169 0.15363 0.0
C1426 C 0.89399 0.4508 0.12277 0.0
C1427 C 0.89739 0.42807 0.11634 0.0
C1428 C 0.91246 0.46423 0.12961 0.0
C1429 C 0.93468 0.45523 0.12956 0.0
C1430 C 0.93783 0.43212 0.1244 0.0
C1431 C 0.9194 0.41865 0.11793 0.0
C1432 C 0.955 0.47001 0.13258 0.0
C1433 C 0.97207 0.46323 0.14777 0.0
C1434 C 0.95857 0.48959 0.11908 0.0
C1435 C 0.94197 0.49709 0.10177 0.0
C1436 C 0.93621 0.48277 0.08356 0.0
C1437 C 0.92042 0.48994 0.0674 0.0
C1438 C 0.91046 0.51148 0.06916 0.0
C1439 C 0.91634 0.52592 0.08703 0.0
C1440 C 0.93209 0.51882 0.10326 0.0
C1441 C 0.05844 0.50088 0.11765 0.0
C1442 C 0.06076 0.52469 0.11781 0.0
C1443 C 0.03804 0.49073 0.12461 0.0
C1444 C 0.01966 0.50419 0.13196 0.0
C1445 C 0.02245 0.52785 0.13352 0.0
C1446 C 0.04286 0.53801 0.12663 0.0
C1447 C -0.00323 0.49386 0.1349 0.0
C1448 C -0.02078 0.50146 0.12073 0.0
C1449 C -0.00703 0.47486 0.14907 0.0
C1450 C 0.0106 0.46674 0.16512 0.0
C1451 C 0.02096 0.48195 0.18037 0.0
C1452 C 0.03769 0.47428 0.19532 0.0
C1453 C 0.04417 0.4514 0.19525 0.0
C1454 C 0.03388 0.43613 0.18027 0.0
C1455 C 0.01715 0.44372 0.16528 0.0
H1456 H 0.05713 0.44549 0.20683 0.0
H1457 H 0.89824 0.51702 0.05666 0.0
H1458 H 0.86379 0.48096 0.83941 0.0
H1459 H 0.894 0.45361 0.83073 0.0
H1460 H 0.93722 0.50814 0.80728 0.0
H1461 H 0.90714 0.53562 0.81582 0.0
H1462 H 0.94372 0.46694 0.78295 0.0
H1463 H 0.94326 0.49532 0.85956 0.0
H1464 H 0.92565 0.50469 0.8964 0.0
H1465 H 0.90698 0.43466 0.90553 0.0
H1466 H 0.92458 0.42484 0.86875 0.0
H1467 H 0.0556 0.4318 0.8186 0.0
H1468 H 0.01956 0.45081 0.80958 0.0
H1469 H -0.01774 0.3918 0.83237 0.0
H1470 H 0.01821 0.37267 0.84126 0.0
H1471 H 0.97071 0.43231 0.85456 0.0
H1472 H -0.02 0.40441 0.77892 0.0
H1473 H 0.00045 0.39789 0.74299 0.0
H1474 H 0.00514 0.47001 0.73231 0.0
H1475 H -0.01496 0.47699 0.76839 0.0
C1476 C 0.87946 0.48708 0.8318 0.0
C1477 C 0.88328 0.51048 0.82871 0.0
C1478 C 0.89669 0.47143 0.82687 0.0
C1479 C 0.9179 0.47896 0.8187 0.0
C1480 C 0.92097 0.50203 0.81361 0.0
C1481 C 0.90381 0.51771 0.81865 0.0
C1482 C 0.93778 0.46353 0.81876 0.0
C1483 C 0.9497 0.45934 0.79855 0.0
C1484 C 0.94547 0.45368 0.83916 0.0
C1485 C 0.93501 0.45939 0.86134 0.0
C1486 C 0.9353 0.48194 0.86939 0.0
C1487 C 0.9254 0.48731 0.89029 0.0
C1488 C 0.91521 0.47025 0.9033 0.0
C1489 C 0.91497 0.4478 0.89547 0.0
C1490 C 0.92494 0.44231 0.87463 0.0
C1491 C 0.03974 0.42272 0.8212 0.0
C1492 C 0.03953 0.40082 0.83078 0.0
C1493 C 0.01919 0.43354 0.81596 0.0
C1494 C -0.00169 0.42266 0.82033 0.0
C1495 C -0.00178 0.40042 0.82886 0.0
C1496 C 0.0187 0.38954 0.83389 0.0
C1497 C 0.97669 0.43544 0.8187 0.0
C1498 C 0.96453 0.4394 0.83879 0.0
C1499 C 0.96915 0.44536 0.79825 0.0
C1500 C -0.01883 0.44122 0.77648 0.0
C1501 C -0.01444 0.4189 0.76902 0.0
C1502 C -0.00294 0.41511 0.7486 0.0
C1503 C 0.00413 0.43353 0.73539 0.0
C1504 C -0.00033 0.45576 0.74256 0.0
C1505 C -0.0118 0.45964 0.76299 0.0
H1506 H 0.01303 0.43056 0.71958 0.0
H1507 H 0.90752 0.47443 0.91946 0.0
H1508 H 0.38377 0.93774 0.15423 0.0
H1509 H 0.41363 0.96461 0.16487 0.0
H1510 H 0.4648 0.91876 0.13896 0.0
H1511 H 0.435 0.89184 0.12772 0.0
H1512 H 0.47496 0.94881 0.18297 0.0
H1513 H 0.45211 0.9497 0.10251 0.0
H1514 H 0.42221 0.95049 0.07325 0.0
H1515 H 0.39541 0.01235 0.10155 0.0
H1516 H 0.42496 0.01167 0.13123 0.0
H1517 H 0.56836 0.01389 0.14408 0.0
H1518 H 0.53767 -0.012 0.15433 0.0
H1519 H 0.48889 0.04257 0.14754 0.0
H1520 H 0.51955 0.06829 0.13594 0.0
H1521 H 0.47462 0.0097 0.12489 0.0
H1522 H 0.5017 0.01432 0.2002 0.0
H1523 H 0.52955 0.01418 0.23134 0.0
H1524 H 0.54636 0.94459 0.21657 0.0
H1525 H 0.51884 0.94439 0.18511 0.0
C1526 C 0.40139 0.933 0.15136 0.0
C1527 C 0.40699 0.91281 0.13975 0.0
C1528 C 0.41842 0.94837 0.15755 0.0
C1529 C 0.44132 0.94364 0.1526 0.0
C1530 C 0.44718 0.92259 0.14301 0.0
C1531 C 0.43012 0.90732 0.13646 0.0
C1532 C 0.45837 0.96211 0.15346 0.0
C1533 C 0.47511 0.96213 0.1703 0.0
C1534 C 0.45791 -0.02022 0.13733 0.0
C1535 C 0.44054 -0.01951 0.11919 0.0
C1536 C 0.43972 0.96336 0.10258 0.0
C1537 C 0.42287 0.9638 0.08591 0.0
C1538 C 0.40688 -0.01858 0.08558 0.0
C1539 C 0.40778 -0.00131 0.10185 0.0
C1540 C 0.42457 -0.00171 0.11859 0.0
C1541 C 0.55117 0.02054 0.14529 0.0
C1542 C 0.54634 0.04309 0.13901 0.0
C1543 C 0.53358 0.0057 0.15133 0.0
C1544 C 0.51085 0.01327 0.15188 0.0
C1545 C 0.50623 0.03625 0.14713 0.0
C1546 C 0.52377 0.05097 0.14057 0.0
C1547 C 0.49184 -0.00335 0.15441 0.0
C1548 C 0.47457 -0.0032 0.13799 0.0
C1549 C 0.49173 -0.02058 0.17122 0.0
C1550 C 0.50829 -0.0206 0.19017 0.0
C1551 C 0.51145 -0.00097 0.20347 0.0
C1552 C 0.52716 -0.001 0.22121 0.0
C1553 C 0.53975 -0.0206 0.2259 0.0
C1554 C 0.53661 0.95977 0.2129 0.0
C1555 C 0.52092 0.9597 0.19514 0.0
H1556 H 0.55191 -0.02058 0.23964 0.0
H1557 H 0.39383 -0.01827 0.07267 0.0
H1558 H 0.43626 0.04726 0.83927 0.0
H1559 H 0.46519 0.02151 0.82467 0.0
H1560 H 0.42284 0.00648 0.7669 0.0
H1561 H 0.39323 0.0316 0.78207 0.0
H1562 H 0.43597 0.96929 0.78288 0.0
H1563 H 0.47652 0.03451 0.76161 0.0
H1564 H 0.49284 0.07309 0.76434 0.0
H1565 H 0.53549 0.05169 0.81922 0.0
H1566 H 0.51921 0.01307 0.81708 0.0
H1567 H 0.56322 0.92099 0.78279 0.0
H1568 H 0.53487 0.94741 0.7678 0.0
H1569 H 0.48583 0.92307 0.81675 0.0
H1570 H 0.5136 0.8962 0.83111 0.0
H1571 H 0.51942 -0.01861 0.78874 0.0
H1572 H 0.43299 0.93283 0.80427 0.0
H1573 H 0.41706 0.89469 0.79707 0.0
H1574 H 0.46669 0.88353 0.74464 0.0
H1575 H 0.48274 0.92174 0.75126 0.0
C1576 C 0.43327 0.03889 0.8232 0.0
C1577 C 0.41237 0.04133 0.81193 0.0
C1578 C 0.44995 0.02424 0.81473 0.0
C1579 C 0.44638 0.01215 0.7945 0.0
C1580 C 0.42601 0.01557 0.78254 0.0
C1581 C 0.40912 0.02996 0.79122 0.0
C1582 C 0.46271 -0.00595 0.7876 0.0
C1583 C 0.45424 0.97199 0.78382 0.0
C1584 C 0.48658 -0.00237 0.7878 0.0
C1585 C 0.49658 0.02085 0.78918 0.0
C1586 C 0.48929 0.03804 0.77435 0.0
C1587 C 0.49855 0.05993 0.77579 0.0
C1588 C 0.51518 0.06484 0.79195 0.0
C1589 C 0.52262 0.04785 0.80669 0.0
C1590 C 0.51342 0.02594 0.80533 0.0
C1591 C 0.54616 0.9208 0.78989 0.0
C1592 C 0.54075 0.90665 0.80832 0.0
C1593 C 0.52999 0.93596 0.78132 0.0
C1594 C 0.50816 0.9373 0.79108 0.0
C1595 C 0.50234 0.92212 0.80853 0.0
C1596 C 0.51836 0.9068 0.81688 0.0
C1597 C 0.49259 0.95647 0.78564 0.0
C1598 C 0.5012 -0.02126 0.78708 0.0
C1599 C 0.4689 0.95316 0.78253 0.0
C1600 C 0.45912 0.9302 0.77832 0.0
C1601 C 0.44041 0.92234 0.79108 0.0
C1602 C 0.43138 0.90067 0.78713 0.0
C1603 C 0.44087 0.88669 0.77043 0.0
C1604 C 0.45939 0.89436 0.75761 0.0
C1605 C 0.46848 0.91602 0.76148 0.0
H1606 H 0.43386 0.86991 0.76741 0.0
H1607 H 0.52232 0.08179 0.79304 0.0
H1608 H 0.06516 0.03562 0.58991 0.0
H1609 H 0.04311 0.00029 0.59051 0.0
H1610 H -0.0176 0.03837 0.60742 0.0
H1611 H 0.00473 0.07352 0.60806 0.0
H1612 H -0.01896 0.00234 0.62977 0.0
H1613 H -0.00377 0.01727 0.55181 0.0
H1614 H 0.01839 0.02459 0.51704 0.0
H1615 H 0.05276 0.96057 0.52459 0.0
H1616 H 0.03111 0.95304 0.55966 0.0
H1617 H 0.90059 0.92311 0.58062 0.0
H1618 H 0.9265 0.95564 0.58402 0.0
H1619 H -0.02002 0.91105 0.6069 0.0
H1620 H 0.95393 0.87839 0.60421 0.0
H1621 H -0.01384 0.94814 0.56547 0.0
H1622 H 0.96727 0.93526 0.64524 0.0
H1623 H 0.93967 0.92913 0.67623 0.0
H1624 H 0.9067 -0.00768 0.66032 0.0
H1625 H 0.9339 -0.00138 0.62899 0.0
C1626 C 0.04711 0.03637 0.59384 0.0
C1627 C 0.03658 0.05727 0.59882 0.0
C1628 C 0.03449 0.01621 0.59404 0.0
C1629 C 0.01094 0.01664 0.59849 0.0
C1630 C 0.00053 0.03752 0.6039 0.0
C1631 C 0.01327 0.05762 0.60426 0.0
C1632 C -0.00287 -0.0046 0.59757 0.0
C1633 C -0.01784 -0.00935 0.61558 0.0
C1634 C -0.00143 -0.02013 0.57918 0.0
C1635 C 0.01218 -0.01531 0.55849 0.0
C1636 C 0.00868 0.00486 0.5462 0.0
C1637 C 0.0211 0.00901 0.52639 0.0
C1638 C 0.03689 -0.00699 0.51856 0.0
C1639 C 0.04043 0.97289 0.53061 0.0
C1640 C 0.02813 0.9687 0.55049 0.0
C1641 C 0.91786 0.92023 0.58641 0.0
C1642 C 0.92525 0.89825 0.59223 0.0
C1643 C 0.93258 0.93879 0.58837 0.0
C1644 C 0.95502 0.93563 0.59576 0.0
C1645 C 0.96264 0.91372 0.60125 0.0
C1646 C 0.94775 0.89517 0.59978 0.0
C1647 C 0.97044 0.95539 0.59757 0.0
C1648 C -0.01451 0.95985 0.57969 0.0
C1649 C 0.96865 0.97096 0.61568 0.0
C1650 C 0.95245 0.96727 0.63463 0.0
C1651 C 0.95399 0.94772 0.6482 0.0
C1652 C 0.93845 0.94424 0.66586 0.0
C1653 C 0.9214 0.96029 0.6702 0.0
C1654 C 0.9199 -0.02012 0.65693 0.0
C1655 C 0.93538 -0.01658 0.63923 0.0
H1656 H 0.90939 0.95757 0.68388 0.0
H1657 H 0.04645 -0.00377 0.5032 0.0
H1658 H 0.01893 0.88292 0.31679 0.0
H1659 H -0.00439 0.91645 0.30826 0.0
H1660 H 0.01963 0.94904 0.36917 0.0
H1661 H 0.04308 0.91607 0.37761 0.0
H1662 H 0.96113 0.93596 0.33111 0.0
H1663 H 0.0259 0.0046 0.36174 0.0
H1664 H 0.06755 0.01042 0.36235 0.0
H1665 H 0.07526 0.96544 0.30549 0.0
H1666 H 0.03364 0.9596 0.30432 0.0
H1667 H 0.90864 0.03482 0.37161 0.0
H1668 H 0.93145 0.00089 0.36471 0.0
H1669 H 0.96325 0.03336 0.30727 0.0
H1670 H 0.94068 0.06771 0.31429 0.0
H1671 H -0.00574 0.0137 0.33286 0.0
H1672 H 0.92486 -0.0097 0.29934 0.0
H1673 H 0.88335 -0.01562 0.29638 0.0
H1674 H 0.8851 0.93902 0.35321 0.0
H1675 H 0.92658 0.94491 0.35674 0.0
C1676 C 0.01929 0.89727 0.32831 0.0
C1677 C 0.03296 0.89684 0.34783 0.0
C1678 C 0.00595 0.91639 0.32342 0.0
C1679 C 0.00619 0.93536 0.33789 0.0
C1680 C 0.01957 0.9348 0.3575 0.0
C1681 C 0.03289 0.91582 0.36236 0.0
C1682 C -0.00796 0.95566 0.33313 0.0
C1683 C 0.96836 0.95297 0.33126 0.0
C1684 C 0.00157 -0.0222 0.33271 0.0
C1685 C 0.02662 -0.01842 0.33303 0.0
C1686 C 0.03645 -0.00393 0.34926 0.0
C1687 C 0.06007 -0.00066 0.34974 0.0
C1688 C 0.07404 -0.01173 0.334 0.0
C1689 C 0.06442 0.97396 0.31771 0.0
C1690 C 0.04082 0.97064 0.31715 0.0
C1691 C 0.92038 0.03478 0.35741 0.0
C1692 C 0.92284 0.05403 0.34351 0.0
C1693 C 0.9333 0.01527 0.35339 0.0
C1694 C 0.9488 0.01446 0.33527 0.0
C1695 C 0.95129 0.03359 0.32129 0.0
C1696 C 0.93839 0.0532 0.32533 0.0
C1697 C 0.96325 -0.00596 0.33189 0.0
C1698 C -0.01298 -0.00328 0.33225 0.0
C1699 C 0.9538 0.9719 0.33049 0.0
C1700 C 0.92885 0.96815 0.32836 0.0
C1701 C 0.91638 -0.02083 0.3113 0.0
C1702 C 0.89286 0.9758 0.30951 0.0
C1703 C 0.8816 0.96135 0.32461 0.0
C1704 C 0.89385 0.9502 0.34151 0.0
C1705 C 0.91738 0.95352 0.34339 0.0
H1706 H 0.86338 0.95878 0.3232 0.0
H1707 H 0.09232 -0.0092 0.33442 0.0
H1708 H 0.58053 0.05431 0.03091 0.0
H1709 H 0.58521 0.02993 -0.0021 0.0
H1710 H 0.64581 0.00072 0.02716 0.0
H1711 H 0.64085 0.02467 0.06077 0.0
H1712 H 0.61561 0.02389 0.96613 0.0
H1713 H 0.64815 0.9445 0.01303 0.0
H1714 H 0.647 0.92751 0.05119 0.0
H1715 H 0.58367 0.96157 0.06498 0.0
H1716 H 0.58431 -0.02149 0.02683 0.0
H1717 H 0.63424 0.9377 0.88263 0.0
H1718 H 0.64075 0.96347 0.91459 0.0
H1719 H 0.58328 0.93404 0.94974 0.0
H1720 H 0.577 0.90801 0.91831 0.0
H1721 H 0.6167 0.94036 -0.02181 0.0
H1722 H 0.5793 -0.01499 0.92083 0.0
H1723 H 0.57483 0.00185 0.8829 0.0
H1724 H 0.63851 0.03714 0.89044 0.0
H1725 H 0.64348 0.02027 0.92832 0.0
C1726 C 0.59498 0.04284 0.03034 0.0
C1727 C 0.61017 0.04125 0.04865 0.0
C1728 C 0.59769 0.02898 0.01134 0.0
C1729 C 0.6157 0.0133 0.01015 0.0
C1730 C 0.63156 0.01243 0.02789 0.0
C1731 C 0.62873 0.02616 0.04707 0.0
C1732 C 0.61684 -0.00293 -0.00909 0.0
C1733 C 0.61609 0.00563 0.96876 0.0
C1734 C 0.61714 0.97322 -0.00569 0.0
C1735 C 0.61645 0.96298 0.01721 0.0
C1736 C 0.63397 0.94831 0.02421 0.0
C1737 C 0.6334 0.9387 0.04583 0.0
C1738 C 0.61532 0.94353 0.06053 0.0
C1739 C 0.59771 0.95791 0.05361 0.0
C1740 C 0.59818 0.96754 0.03201 0.0
C1741 C 0.62306 0.93666 0.89722 0.0
C1742 C 0.60503 0.92085 0.89785 0.0
C1743 C 0.62678 0.95143 0.91544 0.0
C1744 C 0.61238 0.95081 0.93448 0.0
C1745 C 0.59467 0.93477 0.93528 0.0
C1746 C 0.59104 0.91995 0.91721 0.0
C1747 C 0.61513 0.96718 0.95343 0.0
C1748 C 0.61669 0.95863 -0.02447 0.0
C1749 C 0.61486 -0.00899 0.95001 0.0
C1750 C 0.61189 0.00117 0.92727 0.0
C1751 C 0.59243 -0.00378 0.91431 0.0
C1752 C 0.58979 0.0058 0.89285 0.0
C1753 C 0.60641 0.0205 0.88424 0.0
C1754 C 0.62568 0.02571 0.89711 0.0
C1755 C 0.62841 0.01616 0.91858 0.0
H1756 H 0.60434 0.0279 0.86761 0.0
H1757 H 0.61492 0.93609 0.07727 0.0
H1758 H 0.0765 0.34395 0.94554 0.0
H1759 H 0.04186 0.33994 0.9683 0.0
H1760 H 0.00089 0.3525 0.90902 0.0
H1761 H 0.03552 0.35795 0.88661 0.0
H1762 H -0.01658 0.37461 0.94059 0.0
H1763 H 0.00757 0.29745 0.93533 0.0
H1764 H 0.03393 0.26487 0.9377 0.0
H1765 H 0.04125 0.27587 0.00916 0.0
H1766 H 0.01515 0.30872 0.00717 0.0
H1767 H 0.8808 0.33532 -0.00433 0.0
H1768 H 0.91462 0.33251 0.97123 0.0
H1769 H 0.95722 0.35381 0.02668 0.0
H1770 H 0.92357 0.3572 0.05107 0.0
H1771 H 0.97181 0.31216 -0.00413 0.0
H1772 H 0.9509 0.39409 -0.00348 0.0
H1773 H 0.92209 0.4244 -0.00772 0.0
H1774 H 0.9051 0.39899 0.92626 0.0
H1775 H 0.93402 0.36876 0.93004 0.0
C1776 C 0.06008 0.34569 0.93739 0.0
C1777 C 0.05866 0.35124 0.91435 0.0
C1778 C 0.04025 0.34324 0.95036 0.0
C1779 C 0.01863 0.3455 0.94036 0.0
C1780 C 0.01729 0.3507 0.9172 0.0
C1781 C 0.03709 0.35375 0.90438 0.0
C1782 C -0.00254 0.34352 0.95419 0.0
C1783 C -0.01913 0.36069 0.95235 0.0
C1784 C -0.00608 0.32548 0.96975 0.0
C1785 C 0.00955 0.30567 0.97106 0.0
C1786 C 0.01491 0.29302 0.95153 0.0
C1787 C 0.02979 0.27449 0.9528 0.0
C1788 C 0.0393 0.26834 0.97355 0.0
C1789 C 0.03389 0.28067 -0.00691 0.0
C1790 C 0.01903 0.29923 -0.0081 0.0
C1791 C 0.8974 0.33914 0.00272 0.0
C1792 C 0.89955 0.34658 0.02524 0.0
C1793 C 0.91664 0.33753 -0.01124 0.0
C1794 C 0.93829 0.34292 -0.00273 0.0
C1795 C 0.94061 0.3495 0.01993 0.0
C1796 C 0.92137 0.35153 0.03376 0.0
C1797 C 0.95836 0.34321 -0.01784 0.0
C1798 C 0.97458 0.32582 -0.01615 0.0
C1799 C 0.96137 0.36066 0.96609 0.0
C1800 C 0.9445 0.37919 0.96358 0.0
C1801 C 0.94101 0.39503 -0.0189 0.0
C1802 C 0.92472 0.41223 -0.02125 0.0
C1803 C 0.91181 0.4137 0.95897 0.0
C1804 C 0.91522 0.39799 0.94149 0.0
C1805 C 0.93161 0.38088 0.94369 0.0
H1806 H 0.89916 0.42698 0.9572 0.0
H1807 H 0.05082 0.25399 -0.02549 0.0
H1808 H 0.33406 0.06053 0.91839 0.0
H1809 H 0.32702 0.03742 0.95203 0.0
H1810 H 0.33338 0.97636 0.91169 0.0
H1811 H 0.3388 -0.00033 0.87769 0.0
H1812 H 0.30408 0.96865 0.9429 0.0
H1813 H 0.3793 0.00084 0.94303 0.0
H1814 H 0.40793 0.03157 0.94123 0.0
H1815 H 0.37927 0.0621 0.00096 0.0
H1816 H 0.35027 0.0317 0.00293 0.0
H1817 H 0.35191 0.89579 0.02726 0.0
H1818 H 0.34507 0.92027 -0.00542 0.0
H1819 H 0.31886 0.97271 0.03867 0.0
H1820 H 0.32525 0.9481 0.07155 0.0
H1821 H 0.35533 -0.01413 0.00737 0.0
H1822 H 0.28227 0.94857 0.00794 0.0
H1823 H 0.25666 0.91529 0.00877 0.0
H1824 H 0.28564 0.89105 0.94641 0.0
H1825 H 0.31168 0.92402 0.94538 0.0
C1826 C 0.33347 0.04217 0.91671 0.0
C1827 C 0.33713 0.03178 0.89561 0.0
C1828 C 0.32964 0.02897 0.93593 0.0
C1829 C 0.33044 0.00511 0.93458 0.0
C1830 C 0.33284 -0.00527 0.91323 0.0
C1831 C 0.33596 0.008 0.89382 0.0
C1832 C 0.33026 -0.00891 0.9555 0.0
C1833 C 0.31542 0.97235 0.9569 0.0
C1834 C 0.34488 -0.00403 0.97397 0.0
C1835 C 0.36247 0.01414 0.97298 0.0
C1836 C 0.37903 0.01418 0.9557 0.0
C1837 C 0.39532 0.03154 0.95466 0.0
C1838 C 0.39537 0.04882 0.97093 0.0
C1839 C 0.37918 0.04873 -0.01166 0.0
C1840 C 0.36282 0.03144 -0.01056 0.0
C1841 C 0.34446 0.91244 0.03 0.0
C1842 C 0.33916 0.92007 0.05196 0.0
C1843 C 0.34048 0.92634 0.01131 0.0
C1844 C 0.33139 0.9482 0.01427 0.0
C1845 C 0.32579 0.95581 0.03611 0.0
C1846 C 0.32939 0.94174 0.05482 0.0
C1847 C 0.32925 0.96356 -0.00538 0.0
C1848 C 0.3438 -0.01756 -0.00656 0.0
C1849 C 0.31483 0.95844 -0.02381 0.0
C1850 C 0.29906 0.93869 -0.02332 0.0
C1851 C 0.28332 0.93605 -0.0055 0.0
C1852 C 0.26869 0.91725 -0.00501 0.0
C1853 C 0.26955 0.90104 -0.02232 0.0
C1854 C 0.285 0.90362 0.95981 0.0
C1855 C 0.29968 0.92237 0.95925 0.0
H1856 H 0.25822 0.8865 -0.02191 0.0
H1857 H 0.40799 0.06225 0.97008 0.0
H1858 H 0.92412 0.57334 0.8923 0.0
H1859 H 0.95803 0.5757 0.91596 0.0
H1860 H 0.92573 0.62738 0.95691 0.0
H1861 H 0.89181 0.62551 0.93302 0.0
H1862 H 0.96981 0.63742 0.94977 0.0
H1863 H 0.9269 0.57231 -0.0251 0.0
H1864 H 0.90636 0.53601 0.96982 0.0
H1865 H 0.96742 0.50478 0.94422 0.0
H1866 H -0.0117 0.54097 0.94901 0.0
H1867 H 0.0372 0.58388 0.05027 0.0
H1868 H 0.00426 0.58611 0.02539 0.0
H1869 H 0.04583 0.61771 0.97388 0.0
H1870 H 0.0789 0.61609 -0.00099 0.0
H1871 H -0.00348 0.56655 -0.0133 0.0
H1872 H 0.01256 0.65217 0.94131 0.0
H1873 H 0.03075 0.68932 0.9487 0.0
H1874 H 0.01934 0.68098 0.02001 0.0
H1875 H 0.00083 0.64393 0.01302 0.0
C1876 C 0.92423 0.58533 0.90625 0.0
C1877 C 0.90515 0.59911 0.91089 0.0
C1878 C 0.94363 0.58661 0.91979 0.0
C1879 C 0.94425 0.60146 0.93839 0.0
C1880 C 0.92557 0.61577 0.94265 0.0
C1881 C 0.90617 0.61462 0.92902 0.0
C1882 C 0.96406 0.60145 0.95388 0.0
C1883 C 0.9757 0.62194 0.95784 0.0
C1884 C 0.97149 0.5813 0.96465 0.0
C1885 C 0.95911 0.5594 0.96214 0.0
C1886 C 0.93592 0.55773 0.9681 0.0
C1887 C 0.92422 0.53717 0.96529 0.0
C1888 C 0.93557 0.51812 0.95665 0.0
C1889 C 0.95866 0.51956 0.95091 0.0
C1890 C 0.97044 0.54007 0.95371 0.0
C1891 C 0.03936 0.59145 0.0337 0.0
C1892 C 0.06069 0.59982 0.02662 0.0
C1893 C 0.02049 0.59265 0.01947 0.0
C1894 C 0.02252 0.60214 -0.0022 0.0
C1895 C 0.04377 0.61062 -0.00934 0.0
C1896 C 0.06267 0.60964 0.00502 0.0
C1897 C 0.00242 0.60255 -0.01739 0.0
C1898 C -0.00927 0.58206 -0.02138 0.0
C1899 C -0.00533 0.6228 0.97224 0.0
C1900 C 0.00553 0.64518 -0.02336 0.0
C1901 C 0.01387 0.65831 0.95856 0.0
C1902 C 0.02424 0.67934 0.96267 0.0
C1903 C 0.02627 0.68747 -0.01519 0.0
C1904 C 0.01784 0.67462 0.00288 0.0
C1905 C 0.00743 0.65359 -0.00115 0.0
H1906 H 0.03432 0.70374 -0.01203 0.0
H1907 H 0.92647 0.50223 0.95443 0.0
loop_
_geom_bond_atom_site_label_1
_geom_bond_atom_site_label_2
_geom_bond_distance
_geom_bond_site_symmetry_2
_ccdc_geom_bond_type
Co0 O3 1.970 . S
Co0 N17 1.989 . S
Co0 O25 1.967 . S
Co0 O32 1.920 . S
Co1 O4 1.966 . S
Co1 N10 2.022 . S
Co1 N18 1.993 . S
Co1 O26 1.941 . S
C2 O3 1.258 . S
C2 O4 1.263 . S
O3 Co0 1.970 . S
O3 C2 1.258 . S
O4 Co1 1.966 . S
O4 C2 1.263 . S
C5 O6 1.235 . S
C5 O32 1.289 . S
O6 C5 1.235 . S
C7 C9 1.400 . S
C7 N10 1.351 . S
C7 C12 1.501 . S
C8 C9 1.387 . S
C8 N11 1.341 . S
C9 C7 1.400 . S
C9 C8 1.387 . S
N10 Co1 2.022 . S
N10 C7 1.351 . S
N10 N11 1.365 . S
N11 C8 1.341 . S
N11 N10 1.365 . S
N11 H31 0.862 . S
C12 C7 1.501 . S
C12 H13 0.961 . S
C12 H14 0.961 . S
C12 H15 0.960 . S
H13 C12 0.961 . S
H14 C12 0.961 . S
H15 C12 0.960 . S
C16 N17 1.342 . S
C16 C20 1.401 . S
C16 C21 1.499 . S
N17 Co0 1.989 . S
N17 C16 1.342 . S
N17 N18 1.388 . S
N18 Co1 1.993 . S
N18 N17 1.388 . S
N18 C19 1.346 . S
C19 N18 1.346 . S
C19 C20 1.396 . S
C19 C29 1.510 . S
C20 C16 1.401 . S
C20 C19 1.396 . S
C21 C16 1.499 . S
C21 H22 0.959 . S
C21 H23 0.960 . S
C21 H24 0.961 . S
H22 C21 0.959 . S
H23 C21 0.960 . S
H24 C21 0.961 . S
O25 Co0 1.967 . S
O25 C33 1.258 . S
O26 Co1 1.941 . S
O26 C33 1.266 . S
H27 C29 0.959 . S
H28 C29 0.961 . S
C29 C19 1.510 . S
C29 H27 0.959 . S
C29 H28 0.961 . S
C29 H30 0.960 . S
H30 C29 0.960 . S
H31 N11 0.862 . S
O32 Co0 1.920 . S
O32 C5 1.289 . S
C33 O25 1.258 . S
C33 O26 1.266 . S
Co34 O37 1.970 . S
Co34 N51 1.989 . S
Co34 O59 1.967 . S
Co34 O66 1.920 . S
Co35 O38 1.966 . S
Co35 N44 2.022 . S
Co35 N52 1.993 . S
Co35 O60 1.941 . S
C36 O37 1.258 . S
C36 O38 1.263 . S
O37 Co34 1.970 . S
O37 C36 1.258 . S
O38 Co35 1.966 . S
O38 C36 1.263 . S
C39 O40 1.235 . S
C39 O66 1.289 . S
O40 C39 1.235 . S
C41 C43 1.400 . S
C41 N44 1.351 . S
C41 C46 1.501 . S
C42 C43 1.387 . S
C42 N45 1.341 . S
C43 C41 1.400 . S
C43 C42 1.387 . S
N44 Co35 2.022 . S
N44 C41 1.351 . S
N44 N45 1.365 . S
N45 C42 1.341 . S
N45 N44 1.365 . S
N45 H65 0.862 . S
C46 C41 1.501 . S
C46 H47 0.961 . S
C46 H48 0.961 . S
C46 H49 0.960 . S
H47 C46 0.961 . S
H48 C46 0.961 . S
H49 C46 0.960 . S
C50 N51 1.342 . S
C50 C54 1.401 . S
C50 C55 1.499 . S
N51 Co34 1.989 . S
N51 C50 1.342 . S
N51 N52 1.388 . S
N52 Co35 1.993 . S
N52 N51 1.388 . S
N52 C53 1.346 . S
C53 N52 1.346 . S
C53 C54 1.396 . S
C53 C63 1.510 . S
C54 C50 1.401 . S
C54 C53 1.396 . S
C55 C50 1.499 . S
C55 H56 0.959 . S
C55 H57 0.960 . S
C55 H58 0.961 . S
H56 C55 0.959 . S
H57 C55 0.960 . S
H58 C55 0.961 . S
O59 Co34 1.967 . S
O59 C67 1.258 . S
O60 Co35 1.941 . S
O60 C67 1.266 . S
H61 C63 0.959 . S
H62 C63 0.961 . S
C63 C53 1.510 . S
C63 H61 0.959 . S
C63 H62 0.961 . S
C63 H64 0.960 . S
H64 C63 0.960 . S
H65 N45 0.862 . S
O66 Co34 1.920 . S
O66 C39 1.289 . S
C67 O59 1.258 . S
C67 O60 1.266 . S
Co68 O71 1.970 . S
Co68 N85 1.989 . S
Co68 O93 1.967 . S
Co68 O100 1.920 . S
Co69 O72 1.966 . S
Co69 N78 2.022 . S
Co69 N86 1.993 . S
Co69 O94 1.941 . S
C70 O71 1.258 . S
C70 O72 1.263 . S
O71 Co68 1.970 . S
O71 C70 1.258 . S
O72 Co69 1.966 . S
O72 C70 1.263 . S
C73 O74 1.235 . S
C73 O100 1.289 . S
O74 C73 1.235 . S
C75 C77 1.400 . S
C75 N78 1.351 . S
C75 C80 1.501 . S
C76 C77 1.387 . S
C76 N79 1.341 . S
C77 C75 1.400 . S
C77 C76 1.387 . S
N78 Co69 2.022 . S
N78 C75 1.351 . S
N78 N79 1.365 . S
N79 C76 1.341 . S
N79 N78 1.365 . S
N79 H99 0.862 . S
C80 C75 1.501 . S
C80 H81 0.961 . S
C80 H82 0.961 . S
C80 H83 0.960 . S
H81 C80 0.961 . S
H82 C80 0.961 . S
H83 C80 0.960 . S
C84 N85 1.342 . S
C84 C88 1.401 . S
C84 C89 1.499 . S
N85 Co68 1.989 . S
N85 C84 1.342 . S
N85 N86 1.388 . S
N86 Co69 1.993 . S
N86 N85 1.388 . S
N86 C87 1.346 . S
C87 N86 1.346 . S
C87 C88 1.396 . S
C87 C97 1.510 . S
C88 C84 1.401 . S
C88 C87 1.396 . S
C89 C84 1.499 . S
C89 H90 0.959 . S
C89 H91 0.960 . S
C89 H92 0.961 . S
H90 C89 0.959 . S
H91 C89 0.960 . S
H92 C89 0.961 . S
O93 Co68 1.967 . S
O93 C101 1.258 . S
O94 Co69 1.941 . S
O94 C101 1.266 . S
H95 C97 0.959 . S
H96 C97 0.961 . S
C97 C87 1.510 . S
C97 H95 0.959 . S
C97 H96 0.961 . S
C97 H98 0.960 . S
H98 C97 0.960 . S
H99 N79 0.862 . S
O100 Co68 1.920 . S
O100 C73 1.289 . S
C101 O93 1.258 . S
C101 O94 1.266 . S
Co102 O105 1.970 . S
Co102 N119 1.989 . S
Co102 O127 1.967 . S
Co102 O134 1.920 . S
Co103 O106 1.966 . S
Co103 N112 2.022 . S
Co103 N120 1.993 . S
Co103 O128 1.941 . S
C104 O105 1.258 . S
C104 O106 1.263 . S
O105 Co102 1.970 . S
O105 C104 1.258 . S
O106 Co103 1.966 . S
O106 C104 1.263 . S
C107 O108 1.235 . S
C107 O134 1.289 . S
O108 C107 1.235 . S
C109 C111 1.400 . S
C109 N112 1.351 . S
C109 C114 1.501 . S
C110 C111 1.387 . S
C110 N113 1.341 . S
C111 C109 1.400 . S
C111 C110 1.387 . S
N112 Co103 2.022 . S
N112 C109 1.351 . S
N112 N113 1.365 . S
N113 C110 1.341 . S
N113 N112 1.365 . S
N113 H133 0.862 . S
C114 C109 1.501 . S
C114 H115 0.961 . S
C114 H116 0.961 . S
C114 H117 0.960 . S
H115 C114 0.961 . S
H116 C114 0.961 . S
H117 C114 0.960 . S
C118 N119 1.342 . S
C118 C122 1.401 . S
C118 C123 1.499 . S
N119 Co102 1.989 . S
N119 C118 1.342 . S
N119 N120 1.388 . S
N120 Co103 1.993 . S
N120 N119 1.388 . S
N120 C121 1.346 . S
C121 N120 1.346 . S
C121 C122 1.396 . S
C121 C131 1.510 . S
C122 C118 1.401 . S
C122 C121 1.396 . S
C123 C118 1.499 . S
C123 H124 0.959 . S
C123 H125 0.960 . S
C123 H126 0.961 . S
H124 C123 0.959 . S
H125 C123 0.960 . S
H126 C123 0.961 . S
O127 Co102 1.967 . S
O127 C135 1.258 . S
O128 Co103 1.941 . S
O128 C135 1.266 . S
H129 C131 0.959 . S
H130 C131 0.961 . S
C131 C121 1.510 . S
C131 H129 0.959 . S
C131 H130 0.961 . S
C131 H132 0.960 . S
H132 C131 0.960 . S
H133 N113 0.862 . S
O134 Co102 1.920 . S
O134 C107 1.289 . S
C135 O127 1.258 . S
C135 O128 1.266 . S
Co136 O139 1.970 . S
Co136 N153 1.989 . S
Co136 O161 1.967 . S
Co136 O168 1.920 . S
Co137 O140 1.966 . S
Co137 N146 2.022 . S
Co137 N154 1.993 . S
Co137 O162 1.941 . S
C138 O139 1.258 . S
C138 O140 1.263 . S
O139 Co136 1.970 . S
O139 C138 1.258 . S
O140 Co137 1.966 . S
O140 C138 1.263 . S
C141 O142 1.235 . S
C141 O168 1.289 . S
O142 C141 1.235 . S
C143 C145 1.400 . S
C143 N146 1.351 . S
C143 C148 1.501 . S
C144 C145 1.387 . S
C144 N147 1.341 . S
C145 C143 1.400 . S
C145 C144 1.387 . S
N146 Co137 2.022 . S
N146 C143 1.351 . S
N146 N147 1.365 . S
N147 C144 1.341 . S
N147 N146 1.365 . S
N147 H167 0.862 . S
C148 C143 1.501 . S
C148 H149 0.961 . S
C148 H150 0.961 . S
C148 H151 0.960 . S
H149 C148 0.961 . S
H150 C148 0.961 . S
H151 C148 0.960 . S
C152 N153 1.342 . S
C152 C156 1.401 . S
C152 C157 1.499 . S
N153 Co136 1.989 . S
N153 C152 1.342 . S
N153 N154 1.388 . S
N154 Co137 1.993 . S
N154 N153 1.388 . S
N154 C155 1.346 . S
C155 N154 1.346 . S
C155 C156 1.396 . S
C155 C165 1.510 . S
C156 C152 1.401 . S
C156 C155 1.396 . S
C157 C152 1.499 . S
C157 H158 0.959 . S
C157 H159 0.960 . S
C157 H160 0.961 . S
H158 C157 0.959 . S
H159 C157 0.960 . S
H160 C157 0.961 . S
O161 Co136 1.967 . S
O161 C169 1.258 . S
O162 Co137 1.941 . S
O162 C169 1.266 . S
H163 C165 0.959 . S
H164 C165 0.961 . S
C165 C155 1.510 . S
C165 H163 0.959 . S
C165 H164 0.961 . S
C165 H166 0.960 . S
H166 C165 0.960 . S
H167 N147 0.862 . S
O168 Co136 1.920 . S
O168 C141 1.289 . S
C169 O161 1.258 . S
C169 O162 1.266 . S
Co170 O173 1.970 . S
Co170 N187 1.989 . S
Co170 O195 1.967 . S
Co170 O202 1.920 . S
Co171 O174 1.966 . S
Co171 N180 2.022 . S
Co171 N188 1.993 . S
Co171 O196 1.941 . S
C172 O173 1.258 . S
C172 O174 1.263 . S
O173 Co170 1.970 . S
O173 C172 1.258 . S
O174 Co171 1.966 . S
O174 C172 1.263 . S
C175 O176 1.235 . S
C175 O202 1.289 . S
O176 C175 1.235 . S
C177 C179 1.400 . S
C177 N180 1.351 . S
C177 C182 1.501 . S
C178 C179 1.387 . S
C178 N181 1.341 . S
C179 C177 1.400 . S
C179 C178 1.387 . S
N180 Co171 2.022 . S
N180 C177 1.351 . S
N180 N181 1.365 . S
N181 C178 1.341 . S
N181 N180 1.365 . S
N181 H201 0.862 . S
C182 C177 1.501 . S
C182 H183 0.961 . S
C182 H184 0.961 . S
C182 H185 0.960 . S
H183 C182 0.961 . S
H184 C182 0.961 . S
H185 C182 0.960 . S
C186 N187 1.342 . S
C186 C190 1.401 . S
C186 C191 1.499 . S
N187 Co170 1.989 . S
N187 C186 1.342 . S
N187 N188 1.388 . S
N188 Co171 1.993 . S
N188 N187 1.388 . S
N188 C189 1.346 . S
C189 N188 1.346 . S
C189 C190 1.396 . S
C189 C199 1.510 . S
C190 C186 1.401 . S
C190 C189 1.396 . S
C191 C186 1.499 . S
C191 H192 0.959 . S
C191 H193 0.960 . S
C191 H194 0.961 . S
H192 C191 0.959 . S
H193 C191 0.960 . S
H194 C191 0.961 . S
O195 Co170 1.967 . S
O195 C203 1.258 . S
O196 Co171 1.941 . S
O196 C203 1.266 . S
H197 C199 0.959 . S
H198 C199 0.961 . S
C199 C189 1.510 . S
C199 H197 0.959 . S
C199 H198 0.961 . S
C199 H200 0.960 . S
H200 C199 0.960 . S
H201 N181 0.862 . S
O202 Co170 1.920 . S
O202 C175 1.289 . S
C203 O195 1.258 . S
C203 O196 1.266 . S
Co204 O207 1.970 . S
Co204 N221 1.989 . S
Co204 O229 1.967 . S
Co204 O236 1.920 . S
Co205 O208 1.966 . S
Co205 N214 2.022 . S
Co205 N222 1.993 . S
Co205 O230 1.941 . S
C206 O207 1.258 . S
C206 O208 1.263 . S
O207 Co204 1.970 . S
O207 C206 1.258 . S
O208 Co205 1.966 . S
O208 C206 1.263 . S
C209 O210 1.235 . S
C209 O236 1.289 . S
O210 C209 1.235 . S
C211 C213 1.400 . S
C211 N214 1.351 . S
C211 C216 1.501 . S
C212 C213 1.387 . S
C212 N215 1.341 . S
C213 C211 1.400 . S
C213 C212 1.387 . S
N214 Co205 2.022 . S
N214 C211 1.351 . S
N214 N215 1.365 . S
N215 C212 1.341 . S
N215 N214 1.365 . S
N215 H235 0.862 . S
C216 C211 1.501 . S
C216 H217 0.961 . S
C216 H218 0.961 . S
C216 H219 0.960 . S
H217 C216 0.961 . S
H218 C216 0.961 . S
H219 C216 0.960 . S
C220 N221 1.342 . S
C220 C224 1.401 . S
C220 C225 1.499 . S
N221 Co204 1.989 . S
N221 C220 1.342 . S
N221 N222 1.388 . S
N222 Co205 1.993 . S
N222 N221 1.388 . S
N222 C223 1.346 . S
C223 N222 1.346 . S
C223 C224 1.396 . S
C223 C233 1.510 . S
C224 C220 1.401 . S
C224 C223 1.396 . S
C225 C220 1.499 . S
C225 H226 0.959 . S
C225 H227 0.960 . S
C225 H228 0.961 . S
H226 C225 0.959 . S
H227 C225 0.960 . S
H228 C225 0.961 . S
O229 Co204 1.967 . S
O229 C237 1.258 . S
O230 Co205 1.941 . S
O230 C237 1.266 . S
H231 C233 0.959 . S
H232 C233 0.961 . S
C233 C223 1.510 . S
C233 H231 0.959 . S
C233 H232 0.961 . S
C233 H234 0.960 . S
H234 C233 0.960 . S
H235 N215 0.862 . S
O236 Co204 1.920 . S
O236 C209 1.289 . S
C237 O229 1.258 . S
C237 O230 1.266 . S
Co238 O241 1.970 . S
Co238 N255 1.989 . S
Co238 O263 1.967 . S
Co238 O270 1.920 . S
Co239 O242 1.966 . S
Co239 N248 2.022 . S
Co239 N256 1.993 . S
Co239 O264 1.941 . S
C240 O241 1.258 . S
C240 O242 1.263 . S
O241 Co238 1.970 . S
O241 C240 1.258 . S
O242 Co239 1.966 . S
O242 C240 1.263 . S
C243 O244 1.235 . S
C243 O270 1.289 . S
O244 C243 1.235 . S
C245 C247 1.400 . S
C245 N248 1.351 . S
C245 C250 1.501 . S
C246 C247 1.387 . S
C246 N249 1.341 . S
C247 C245 1.400 . S
C247 C246 1.387 . S
N248 Co239 2.022 . S
N248 C245 1.351 . S
N248 N249 1.365 . S
N249 C246 1.341 . S
N249 N248 1.365 . S
N249 H269 0.862 . S
C250 C245 1.501 . S
C250 H251 0.961 . S
C250 H252 0.961 . S
C250 H253 0.960 . S
H251 C250 0.961 . S
H252 C250 0.961 . S
H253 C250 0.960 . S
C254 N255 1.342 . S
C254 C258 1.401 . S
C254 C259 1.499 . S
N255 Co238 1.989 . S
N255 C254 1.342 . S
N255 N256 1.388 . S
N256 Co239 1.993 . S
N256 N255 1.388 . S
N256 C257 1.346 . S
C257 N256 1.346 . S
C257 C258 1.396 . S
C257 C267 1.510 . S
C258 C254 1.401 . S
C258 C257 1.396 . S
C259 C254 1.499 . S
C259 H260 0.959 . S
C259 H261 0.960 . S
C259 H262 0.961 . S
H260 C259 0.959 . S
H261 C259 0.960 . S
H262 C259 0.961 . S
O263 Co238 1.967 . S
O263 C271 1.258 . S
O264 Co239 1.941 . S
O264 C271 1.266 . S
H265 C267 0.959 . S
H266 C267 0.961 . S
C267 C257 1.510 . S
C267 H265 0.959 . S
C267 H266 0.961 . S
C267 H268 0.960 . S
H268 C267 0.960 . S
H269 N249 0.862 . S
O270 Co238 1.920 . S
O270 C243 1.289 . S
C271 O263 1.258 . S
C271 O264 1.266 . S
Co272 O275 1.970 . S
Co272 N289 1.989 . S
Co272 O297 1.967 . S
Co272 O304 1.920 . S
Co273 O276 1.966 . S
Co273 N282 2.022 . S
Co273 N290 1.993 . S
Co273 O298 1.941 . S
C274 O275 1.258 . S
C274 O276 1.263 . S
O275 Co272 1.970 . S
O275 C274 1.258 . S
O276 Co273 1.966 . S
O276 C274 1.263 . S
C277 O278 1.235 . S
C277 O304 1.289 . S
O278 C277 1.235 . S
C279 C281 1.400 . S
C279 N282 1.351 . S
C279 C284 1.501 . S
C280 C281 1.387 . S
C280 N283 1.341 . S
C281 C279 1.400 . S
C281 C280 1.387 . S
N282 Co273 2.022 . S
N282 C279 1.351 . S
N282 N283 1.365 . S
N283 C280 1.341 . S
N283 N282 1.365 . S
N283 H303 0.862 . S
C284 C279 1.501 . S
C284 H285 0.961 . S
C284 H286 0.961 . S
C284 H287 0.960 . S
H285 C284 0.961 . S
H286 C284 0.961 . S
H287 C284 0.960 . S
C288 N289 1.342 . S
C288 C292 1.401 . S
C288 C293 1.499 . S
N289 Co272 1.989 . S
N289 C288 1.342 . S
N289 N290 1.388 . S
N290 Co273 1.993 . S
N290 N289 1.388 . S
N290 C291 1.346 . S
C291 N290 1.346 . S
C291 C292 1.396 . S
C291 C301 1.510 . S
C292 C288 1.401 . S
C292 C291 1.396 . S
C293 C288 1.499 . S
C293 H294 0.959 . S
C293 H295 0.960 . S
C293 H296 0.961 . S
H294 C293 0.959 . S
H295 C293 0.960 . S
H296 C293 0.961 . S
O297 Co272 1.967 . S
O297 C305 1.258 . S
O298 Co273 1.941 . S
O298 C305 1.266 . S
H299 C301 0.959 . S
H300 C301 0.961 . S
C301 C291 1.510 . S
C301 H299 0.959 . S
C301 H300 0.961 . S
C301 H302 0.960 . S
H302 C301 0.960 . S
H303 N283 0.862 . S
O304 Co272 1.920 . S
O304 C277 1.289 . S
C305 O297 1.258 . S
C305 O298 1.266 . S
Co306 O309 1.970 . S
Co306 N323 1.989 . S
Co306 O331 1.967 . S
Co306 O338 1.920 . S
Co307 O310 1.966 . S
Co307 N316 2.022 . S
Co307 N324 1.993 . S
Co307 O332 1.941 . S
C308 O309 1.258 . S
C308 O310 1.263 . S
O309 Co306 1.970 . S
O309 C308 1.258 . S
O310 Co307 1.966 . S
O310 C308 1.263 . S
C311 O312 1.235 . S
C311 O338 1.289 . S
O312 C311 1.235 . S
C313 C315 1.400 . S
C313 N316 1.351 . S
C313 C318 1.501 . S
C314 C315 1.387 . S
C314 N317 1.341 . S
C315 C313 1.400 . S
C315 C314 1.387 . S
N316 Co307 2.022 . S
N316 C313 1.351 . S
N316 N317 1.365 . S
N317 C314 1.341 . S
N317 N316 1.365 . S
N317 H337 0.862 . S
C318 C313 1.501 . S
C318 H319 0.961 . S
C318 H320 0.961 . S
C318 H321 0.960 . S
H319 C318 0.961 . S
H320 C318 0.961 . S
H321 C318 0.960 . S
C322 N323 1.342 . S
C322 C326 1.401 . S
C322 C327 1.499 . S
N323 Co306 1.989 . S
N323 C322 1.342 . S
N323 N324 1.388 . S
N324 Co307 1.993 . S
N324 N323 1.388 . S
N324 C325 1.346 . S
C325 N324 1.346 . S
C325 C326 1.396 . S
C325 C335 1.510 . S
C326 C322 1.401 . S
C326 C325 1.396 . S
C327 C322 1.499 . S
C327 H328 0.959 . S
C327 H329 0.960 . S
C327 H330 0.961 . S
H328 C327 0.959 . S
H329 C327 0.960 . S
H330 C327 0.961 . S
O331 Co306 1.967 . S
O331 C339 1.258 . S
O332 Co307 1.941 . S
O332 C339 1.266 . S
H333 C335 0.959 . S
H334 C335 0.961 . S
C335 C325 1.510 . S
C335 H333 0.959 . S
C335 H334 0.961 . S
C335 H336 0.960 . S
H336 C335 0.960 . S
H337 N317 0.862 . S
O338 Co306 1.920 . S
O338 C311 1.289 . S
C339 O331 1.258 . S
C339 O332 1.266 . S
Co340 O343 1.970 . S
Co340 N357 1.989 . S
Co340 O365 1.967 . S
Co340 O372 1.920 . S
Co341 O344 1.966 . S
Co341 N350 2.022 . S
Co341 N358 1.993 . S
Co341 O366 1.941 . S
C342 O343 1.258 . S
C342 O344 1.263 . S
O343 Co340 1.970 . S
O343 C342 1.258 . S
O344 Co341 1.966 . S
O344 C342 1.263 . S
C345 O346 1.235 . S
C345 O372 1.289 . S
O346 C345 1.235 . S
C347 C349 1.400 . S
C347 N350 1.351 . S
C347 C352 1.501 . S
C348 C349 1.387 . S
C348 N351 1.341 . S
C349 C347 1.400 . S
C349 C348 1.387 . S
N350 Co341 2.022 . S
N350 C347 1.351 . S
N350 N351 1.365 . S
N351 C348 1.341 . S
N351 N350 1.365 . S
N351 H371 0.862 . S
C352 C347 1.501 . S
C352 H353 0.961 . S
C352 H354 0.961 . S
C352 H355 0.960 . S
H353 C352 0.961 . S
H354 C352 0.961 . S
H355 C352 0.960 . S
C356 N357 1.342 . S
C356 C360 1.401 . S
C356 C361 1.499 . S
N357 Co340 1.989 . S
N357 C356 1.342 . S
N357 N358 1.388 . S
N358 Co341 1.993 . S
N358 N357 1.388 . S
N358 C359 1.346 . S
C359 N358 1.346 . S
C359 C360 1.396 . S
C359 C369 1.510 . S
C360 C356 1.401 . S
C360 C359 1.396 . S
C361 C356 1.499 . S
C361 H362 0.959 . S
C361 H363 0.960 . S
C361 H364 0.961 . S
H362 C361 0.959 . S
H363 C361 0.960 . S
H364 C361 0.961 . S
O365 Co340 1.967 . S
O365 C373 1.258 . S
O366 Co341 1.941 . S
O366 C373 1.266 . S
H367 C369 0.959 . S
H368 C369 0.961 . S
C369 C359 1.510 . S
C369 H367 0.959 . S
C369 H368 0.961 . S
C369 H370 0.960 . S
H370 C369 0.960 . S
H371 N351 0.862 . S
O372 Co340 1.920 . S
O372 C345 1.289 . S
C373 O365 1.258 . S
C373 O366 1.266 . S
Co374 O377 1.970 . S
Co374 N391 1.989 . S
Co374 O399 1.967 . S
Co374 O406 1.920 . S
Co375 O378 1.966 . S
Co375 N384 2.022 . S
Co375 N392 1.993 . S
Co375 O400 1.941 . S
C376 O377 1.258 . S
C376 O378 1.263 . S
O377 Co374 1.970 . S
O377 C376 1.258 . S
O378 Co375 1.966 . S
O378 C376 1.263 . S
C379 O380 1.235 . S
C379 O406 1.289 . S
O380 C379 1.235 . S
C381 C383 1.400 . S
C381 N384 1.351 . S
C381 C386 1.501 . S
C382 C383 1.387 . S
C382 N385 1.341 . S
C383 C381 1.400 . S
C383 C382 1.387 . S
N384 Co375 2.022 . S
N384 C381 1.351 . S
N384 N385 1.365 . S
N385 C382 1.341 . S
N385 N384 1.365 . S
N385 H405 0.862 . S
C386 C381 1.501 . S
C386 H387 0.961 . S
C386 H388 0.961 . S
C386 H389 0.960 . S
H387 C386 0.961 . S
H388 C386 0.961 . S
H389 C386 0.960 . S
C390 N391 1.342 . S
C390 C394 1.401 . S
C390 C395 1.499 . S
N391 Co374 1.989 . S
N391 C390 1.342 . S
N391 N392 1.388 . S
N392 Co375 1.993 . S
N392 N391 1.388 . S
N392 C393 1.346 . S
C393 N392 1.346 . S
C393 C394 1.396 . S
C393 C403 1.510 . S
C394 C390 1.401 . S
C394 C393 1.396 . S
C395 C390 1.499 . S
C395 H396 0.959 . S
C395 H397 0.960 . S
C395 H398 0.961 . S
H396 C395 0.959 . S
H397 C395 0.960 . S
H398 C395 0.961 . S
O399 Co374 1.967 . S
O399 C407 1.258 . S
O400 Co375 1.941 . S
O400 C407 1.266 . S
H401 C403 0.959 . S
H402 C403 0.961 . S
C403 C393 1.510 . S
C403 H401 0.959 . S
C403 H402 0.961 . S
C403 H404 0.960 . S
H404 C403 0.960 . S
H405 N385 0.862 . S
O406 Co374 1.920 . S
O406 C379 1.289 . S
C407 O399 1.258 . S
C407 O400 1.266 . S
H408 C426 0.951 . S
H409 C428 0.951 . S
H410 C430 0.950 . S
H411 C431 0.950 . S
H412 C433 0.950 . S
H413 C436 0.950 . S
H414 C437 0.950 . S
H415 C439 0.950 . S
H416 C440 0.950 . S
H417 C441 0.951 . S
H418 C443 0.951 . S
H419 C445 0.950 . S
H420 C446 0.950 . S
H421 C448 0.950 . S
H422 C451 0.950 . S
H423 C452 0.950 . S
H424 C454 0.950 . S
H425 C455 0.950 . S
C426 H408 0.951 . S
C426 C427 1.366 . S
C426 C428 1.388 . S
C427 C426 1.366 . S
C427 C431 1.385 . S
C428 H409 0.951 . S
C428 C426 1.388 . S
C428 C429 1.366 . S
C429 C428 1.366 . S
C429 C430 1.414 . S
C429 C432 1.499 . S
C430 H410 0.950 . S
C430 C429 1.414 . S
C430 C431 1.374 . S
C431 H411 0.950 . S
C431 C427 1.385 . S
C431 C430 1.374 . S
C432 C429 1.499 . S
C432 C433 1.373 . S
C432 C434 1.389 . S
C433 H412 0.950 . S
C433 C432 1.373 . S
C433 C449 1.377 . S
C434 C432 1.389 . S
C434 C435 1.524 . S
C434 C448 1.377 . S
C435 C434 1.524 . S
C435 C436 1.397 . S
C435 C440 1.363 . S
C436 H413 0.950 . S
C436 C435 1.397 . S
C436 C437 1.334 . S
C437 H414 0.950 . S
C437 C436 1.334 . S
C437 C438 1.287 . S
C438 C437 1.287 . S
C438 C439 1.524 . S
C438 H457 0.913 . S
C439 H415 0.950 . S
C439 C438 1.524 . S
C439 C440 1.415 . S
C440 H416 0.950 . S
C440 C435 1.363 . S
C440 C439 1.415 . S
C441 H417 0.951 . S
C441 C442 1.366 . S
C441 C443 1.388 . S
C442 C441 1.366 . S
C442 C446 1.385 . S
C443 H418 0.951 . S
C443 C441 1.388 . S
C443 C444 1.366 . S
C444 C443 1.366 . S
C444 C445 1.414 . S
C444 C447 1.499 . S
C445 H419 0.950 . S
C445 C444 1.414 . S
C445 C446 1.374 . S
C446 H420 0.950 . S
C446 C442 1.385 . S
C446 C445 1.374 . S
C447 C444 1.499 . S
C447 C448 1.373 . S
C447 C449 1.389 . S
C448 H421 0.950 . S
C448 C434 1.377 . S
C448 C447 1.373 . S
C449 C433 1.377 . S
C449 C447 1.389 . S
C449 C450 1.524 . S
C450 C449 1.524 . S
C450 C451 1.397 . S
C450 C455 1.363 . S
C451 H422 0.950 . S
C451 C450 1.397 . S
C451 C452 1.334 . S
C452 H423 0.950 . S
C452 C451 1.334 . S
C452 C453 1.287 . S
C453 C452 1.287 . S
C453 C454 1.524 . S
C453 H456 0.999 . S
C454 H424 0.950 . S
C454 C453 1.524 . S
C454 C455 1.415 . S
C455 H425 0.950 . S
C455 C450 1.363 . S
C455 C454 1.415 . S
H456 C453 0.999 . S
H457 C438 0.913 . S
H458 C476 0.951 . S
H459 C478 0.951 . S
H460 C480 0.950 . S
H461 C481 0.950 . S
H462 C483 0.950 . S
H463 C486 0.950 . S
H464 C487 0.950 . S
H465 C489 0.950 . S
H466 C490 0.950 . S
H467 C491 0.951 . S
H468 C493 0.951 . S
H469 C495 0.950 . S
H470 C496 0.950 . S
H471 C498 0.950 . S
H472 C501 0.950 . S
H473 C502 0.950 . S
H474 C504 0.950 . S
H475 C505 0.950 . S
C476 H458 0.951 . S
C476 C477 1.366 . S
C476 C478 1.388 . S
C477 C476 1.366 . S
C477 C481 1.385 . S
C478 H459 0.951 . S
C478 C476 1.388 . S
C478 C479 1.366 . S
C479 C478 1.366 . S
C479 C480 1.414 . S
C479 C482 1.499 . S
C480 H460 0.950 . S
C480 C479 1.414 . S
C480 C481 1.374 . S
C481 H461 0.950 . S
C481 C477 1.385 . S
C481 C480 1.374 . S
C482 C479 1.499 . S
C482 C483 1.373 . S
C482 C484 1.389 . S
C483 H462 0.950 . S
C483 C482 1.373 . S
C483 C499 1.377 . S
C484 C482 1.389 . S
C484 C485 1.524 . S
C484 C498 1.377 . S
C485 C484 1.524 . S
C485 C486 1.397 . S
C485 C490 1.363 . S
C486 H463 0.950 . S
C486 C485 1.397 . S
C486 C487 1.334 . S
C487 H464 0.950 . S
C487 C486 1.334 . S
C487 C488 1.287 . S
C488 C487 1.287 . S
C488 C489 1.524 . S
C488 H507 0.913 . S
C489 H465 0.950 . S
C489 C488 1.524 . S
C489 C490 1.415 . S
C490 H466 0.950 . S
C490 C485 1.363 . S
C490 C489 1.415 . S
C491 H467 0.951 . S
C491 C492 1.366 . S
C491 C493 1.388 . S
C492 C491 1.366 . S
C492 C496 1.385 . S
C493 H468 0.951 . S
C493 C491 1.388 . S
C493 C494 1.366 . S
C494 C493 1.366 . S
C494 C495 1.414 . S
C494 C497 1.499 . S
C495 H469 0.950 . S
C495 C494 1.414 . S
C495 C496 1.374 . S
C496 H470 0.950 . S
C496 C492 1.385 . S
C496 C495 1.374 . S
C497 C494 1.499 . S
C497 C498 1.373 . S
C497 C499 1.389 . S
C498 H471 0.950 . S
C498 C484 1.377 . S
C498 C497 1.373 . S
C499 C483 1.377 . S
C499 C497 1.389 . S
C499 C500 1.524 . S
C500 C499 1.524 . S
C500 C501 1.397 . S
C500 C505 1.363 . S
C501 H472 0.950 . S
C501 C500 1.397 . S
C501 C502 1.334 . S
C502 H473 0.950 . S
C502 C501 1.334 . S
C502 C503 1.287 . S
C503 C502 1.287 . S
C503 C504 1.524 . S
C503 H506 0.999 . S
C504 H474 0.950 . S
C504 C503 1.524 . S
C504 C505 1.415 . S
C505 H475 0.950 . S
C505 C500 1.363 . S
C505 C504 1.415 . S
H506 C503 0.999 . S
H507 C488 0.913 . S
H508 C526 0.951 . S
H509 C528 0.951 . S
H510 C530 0.950 . S
H511 C531 0.950 . S
H512 C533 0.950 . S
H513 C536 0.950 . S
H514 C537 0.950 . S
H515 C539 0.950 . S
H516 C540 0.950 . S
H517 C541 0.951 . S
H518 C543 0.951 . S
H519 C545 0.950 . S
H520 C546 0.950 . S
H521 C548 0.950 . S
H522 C551 0.950 . S
H523 C552 0.950 . S
H524 C554 0.950 . S
H525 C555 0.950 . S
C526 H508 0.951 . S
C526 C527 1.366 . S
C526 C528 1.388 . S
C527 C526 1.366 . S
C527 C531 1.385 . S
C528 H509 0.951 . S
C528 C526 1.388 . S
C528 C529 1.366 . S
C529 C528 1.366 . S
C529 C530 1.414 . S
C529 C532 1.499 . S
C530 H510 0.950 . S
C530 C529 1.414 . S
C530 C531 1.374 . S
C531 H511 0.950 . S
C531 C527 1.385 . S
C531 C530 1.374 . S
C532 C529 1.499 . S
C532 C533 1.373 . S
C532 C534 1.389 . S
C533 H512 0.950 . S
C533 C532 1.373 . S
C533 C549 1.377 . S
C534 C532 1.389 . S
C534 C535 1.524 . S
C534 C548 1.377 . S
C535 C534 1.524 . S
C535 C536 1.397 . S
C535 C540 1.363 . S
C536 H513 0.950 . S
C536 C535 1.397 . S
C536 C537 1.334 . S
C537 H514 0.950 . S
C537 C536 1.334 . S
C537 C538 1.287 . S
C538 C537 1.287 . S
C538 C539 1.524 . S
C538 H557 0.913 . S
C539 H515 0.950 . S
C539 C538 1.524 . S
C539 C540 1.415 . S
C540 H516 0.950 . S
C540 C535 1.363 . S
C540 C539 1.415 . S
C541 H517 0.951 . S
C541 C542 1.366 . S
C541 C543 1.388 . S
C542 C541 1.366 . S
C542 C546 1.385 . S
C543 H518 0.951 . S
C543 C541 1.388 . S
C543 C544 1.366 . S
C544 C543 1.366 . S
C544 C545 1.414 . S
C544 C547 1.499 . S
C545 H519 0.950 . S
C545 C544 1.414 . S
C545 C546 1.374 . S
C546 H520 0.950 . S
C546 C542 1.385 . S
C546 C545 1.374 . S
C547 C544 1.499 . S
C547 C548 1.373 . S
C547 C549 1.389 . S
C548 H521 0.950 . S
C548 C534 1.377 . S
C548 C547 1.373 . S
C549 C533 1.377 . S
C549 C547 1.389 . S
C549 C550 1.524 . S
C550 C549 1.524 . S
C550 C551 1.397 . S
C550 C555 1.363 . S
C551 H522 0.950 . S
C551 C550 1.397 . S
C551 C552 1.334 . S
C552 H523 0.950 . S
C552 C551 1.334 . S
C552 C553 1.287 . S
C553 C552 1.287 . S
C553 C554 1.524 . S
C553 H556 0.999 . S
C554 H524 0.950 . S
C554 C553 1.524 . S
C554 C555 1.415 . S
C555 H525 0.950 . S
C555 C550 1.363 . S
C555 C554 1.415 . S
H556 C553 0.999 . S
H557 C538 0.913 . S
H558 C576 0.951 . S
H559 C578 0.951 . S
H560 C580 0.950 . S
H561 C581 0.950 . S
H562 C583 0.950 . S
H563 C586 0.950 . S
H564 C587 0.950 . S
H565 C589 0.950 . S
H566 C590 0.950 . S
H567 C591 0.951 . S
H568 C593 0.951 . S
H569 C595 0.950 . S
H570 C596 0.950 . S
H571 C598 0.950 . S
H572 C601 0.950 . S
H573 C602 0.950 . S
H574 C604 0.950 . S
H575 C605 0.950 . S
C576 H558 0.951 . S
C576 C577 1.366 . S
C576 C578 1.388 . S
C577 C576 1.366 . S
C577 C581 1.385 . S
C578 H559 0.951 . S
C578 C576 1.388 . S
C578 C579 1.366 . S
C579 C578 1.366 . S
C579 C580 1.414 . S
C579 C582 1.499 . S
C580 H560 0.950 . S
C580 C579 1.414 . S
C580 C581 1.374 . S
C581 H561 0.950 . S
C581 C577 1.385 . S
C581 C580 1.374 . S
C582 C579 1.499 . S
C582 C583 1.373 . S
C582 C584 1.389 . S
C583 H562 0.950 . S
C583 C582 1.373 . S
C583 C599 1.377 . S
C584 C582 1.389 . S
C584 C585 1.524 . S
C584 C598 1.377 . S
C585 C584 1.524 . S
C585 C586 1.397 . S
C585 C590 1.363 . S
C586 H563 0.950 . S
C586 C585 1.397 . S
C586 C587 1.334 . S
C587 H564 0.950 . S
C587 C586 1.334 . S
C587 C588 1.287 . S
C588 C587 1.287 . S
C588 C589 1.524 . S
C588 H607 0.896 1_545 S
C589 H565 0.950 . S
C589 C588 1.524 . S
C589 C590 1.415 . S
C590 H566 0.950 . S
C590 C585 1.363 . S
C590 C589 1.415 . S
C591 H567 0.951 . S
C591 C592 1.366 . S
C591 C593 1.388 . S
C592 C591 1.366 . S
C592 C596 1.385 . S
C593 H568 0.951 . S
C593 C591 1.388 . S
C593 C594 1.366 . S
C594 C593 1.366 . S
C594 C595 1.414 . S
C594 C597 1.499 . S
C595 H569 0.950 . S
C595 C594 1.414 . S
C595 C596 1.374 . S
C596 H570 0.950 . S
C596 C592 1.385 . S
C596 C595 1.374 . S
C597 C594 1.499 . S
C597 C598 1.373 . S
C597 C599 1.389 . S
C598 H571 0.950 . S
C598 C584 1.377 . S
C598 C597 1.373 . S
C599 C583 1.377 . S
C599 C597 1.389 . S
C599 C600 1.524 . S
C600 C599 1.524 . S
C600 C601 1.397 . S
C600 C605 1.363 . S
C601 H572 0.950 . S
C601 C600 1.397 . S
C601 C602 1.334 . S
C602 H573 0.950 . S
C602 C601 1.334 . S
C602 C603 1.287 . S
C603 C602 1.287 . S
C603 C604 1.524 . S
C603 H606 0.999 . S
C604 H574 0.950 . S
C604 C603 1.524 . S
C604 C605 1.415 . S
C605 H575 0.950 . S
C605 C600 1.363 . S
C605 C604 1.415 . S
H606 C603 0.999 . S
H607 C588 0.896 1_565 S
H608 C626 0.951 . S
H609 C628 0.951 . S
H610 C630 0.950 . S
H611 C631 0.950 . S
H612 C633 0.950 . S
H613 C636 0.950 . S
H614 C637 0.950 . S
H615 C639 0.950 . S
H616 C640 0.950 . S
H617 C641 0.951 . S
H618 C643 0.951 . S
H619 C645 0.950 . S
H620 C646 0.950 . S
H621 C648 0.950 . S
H622 C651 0.950 . S
H623 C652 0.950 . S
H624 C654 0.950 . S
H625 C655 0.950 . S
C626 H608 0.951 . S
C626 C627 1.366 . S
C626 C628 1.388 . S
C627 C626 1.366 . S
C627 C631 1.385 . S
C628 H609 0.951 . S
C628 C626 1.388 . S
C628 C629 1.366 . S
C629 C628 1.366 . S
C629 C630 1.414 . S
C629 C632 1.499 . S
C630 H610 0.950 . S
C630 C629 1.414 . S
C630 C631 1.374 . S
C631 H611 0.950 . S
C631 C627 1.385 . S
C631 C630 1.374 . S
C632 C629 1.499 . S
C632 C633 1.373 . S
C632 C634 1.389 . S
C633 H612 0.950 . S
C633 C632 1.373 . S
C633 C649 1.377 . S
C634 C632 1.389 . S
C634 C635 1.524 . S
C634 C648 1.377 . S
C635 C634 1.524 . S
C635 C636 1.397 . S
C635 C640 1.363 . S
C636 H613 0.950 . S
C636 C635 1.397 . S
C636 C637 1.334 . S
C637 H614 0.950 . S
C637 C636 1.334 . S
C637 C638 1.287 . S
C638 C637 1.287 . S
C638 C639 1.524 . S
C638 H657 0.913 . S
C639 H615 0.950 . S
C639 C638 1.524 . S
C639 C640 1.415 . S
C640 H616 0.950 . S
C640 C635 1.363 . S
C640 C639 1.415 . S
C641 H617 0.951 . S
C641 C642 1.366 . S
C641 C643 1.388 . S
C642 C641 1.366 . S
C642 C646 1.385 . S
C643 H618 0.951 . S
C643 C641 1.388 . S
C643 C644 1.366 . S
C644 C643 1.366 . S
C644 C645 1.414 . S
C644 C647 1.499 . S
C645 H619 0.950 . S
C645 C644 1.414 . S
C645 C646 1.374 . S
C646 H620 0.950 . S
C646 C642 1.385 . S
C646 C645 1.374 . S
C647 C644 1.499 . S
C647 C648 1.373 . S
C647 C649 1.389 . S
C648 H621 0.950 . S
C648 C634 1.377 . S
C648 C647 1.373 . S
C649 C633 1.377 . S
C649 C647 1.389 . S
C649 C650 1.524 . S
C650 C649 1.524 . S
C650 C651 1.397 . S
C650 C655 1.363 . S
C651 H622 0.950 . S
C651 C650 1.397 . S
C651 C652 1.334 . S
C652 H623 0.950 . S
C652 C651 1.334 . S
C652 C653 1.287 . S
C653 C652 1.287 . S
C653 C654 1.524 . S
C653 H656 0.999 . S
C654 H624 0.950 . S
C654 C653 1.524 . S
C654 C655 1.415 . S
C655 H625 0.950 . S
C655 C650 1.363 . S
C655 C654 1.415 . S
H656 C653 0.999 . S
H657 C638 0.913 . S
H658 C676 0.951 . S
H659 C678 0.951 . S
H660 C680 0.950 . S
H661 C681 0.950 . S
H662 C683 0.950 . S
H663 C686 0.950 . S
H664 C687 0.950 . S
H665 C689 0.950 . S
H666 C690 0.950 . S
H667 C691 0.951 . S
H668 C693 0.951 . S
H669 C695 0.950 . S
H670 C696 0.950 . S
H671 C698 0.950 . S
H672 C701 0.950 . S
H673 C702 0.950 . S
H674 C704 0.950 . S
H675 C705 0.950 . S
C676 H658 0.951 . S
C676 C677 1.366 . S
C676 C678 1.388 . S
C677 C676 1.366 . S
C677 C681 1.385 . S
C678 H659 0.951 . S
C678 C676 1.388 . S
C678 C679 1.366 . S
C679 C678 1.366 . S
C679 C680 1.414 . S
C679 C682 1.499 . S
C680 H660 0.950 . S
C680 C679 1.414 . S
C680 C681 1.374 . S
C681 H661 0.950 . S
C681 C677 1.385 . S
C681 C680 1.374 . S
C682 C679 1.499 . S
C682 C683 1.373 . S
C682 C684 1.389 . S
C683 H662 0.950 . S
C683 C682 1.373 . S
C683 C699 1.377 . S
C684 C682 1.389 . S
C684 C685 1.524 . S
C684 C698 1.377 . S
C685 C684 1.524 . S
C685 C686 1.397 . S
C685 C690 1.363 . S
C686 H663 0.950 . S
C686 C685 1.397 . S
C686 C687 1.334 . S
C687 H664 0.950 . S
C687 C686 1.334 . S
C687 C688 1.287 . S
C688 C687 1.287 . S
C688 C689 1.524 . S
C688 H707 0.913 . S
C689 H665 0.950 . S
C689 C688 1.524 . S
C689 C690 1.415 . S
C690 H666 0.950 . S
C690 C685 1.363 . S
C690 C689 1.415 . S
C691 H667 0.951 . S
C691 C692 1.366 . S
C691 C693 1.388 . S
C692 C691 1.366 . S
C692 C696 1.385 . S
C693 H668 0.951 . S
C693 C691 1.388 . S
C693 C694 1.366 . S
C694 C693 1.366 . S
C694 C695 1.414 . S
C694 C697 1.499 . S
C695 H669 0.950 . S
C695 C694 1.414 . S
C695 C696 1.374 . S
C696 H670 0.950 . S
C696 C692 1.385 . S
C696 C695 1.374 . S
C697 C694 1.499 . S
C697 C698 1.373 . S
C697 C699 1.389 . S
C698 H671 0.950 . S
C698 C684 1.377 . S
C698 C697 1.373 . S
C699 C683 1.377 . S
C699 C697 1.389 . S
C699 C700 1.524 . S
C700 C699 1.524 . S
C700 C701 1.397 . S
C700 C705 1.363 . S
C701 H672 0.950 . S
C701 C700 1.397 . S
C701 C702 1.334 . S
C702 H673 0.950 . S
C702 C701 1.334 . S
C702 C703 1.287 . S
C703 C702 1.287 . S
C703 C704 1.524 . S
C703 H706 0.999 . S
C704 H674 0.950 . S
C704 C703 1.524 . S
C704 C705 1.415 . S
C705 H675 0.950 . S
C705 C700 1.363 . S
C705 C704 1.415 . S
H706 C703 0.999 . S
H707 C688 0.913 . S
H708 C726 0.951 . S
H709 C728 0.951 . S
H710 C730 0.950 . S
H711 C731 0.950 . S
H712 C733 0.950 . S
H713 C736 0.950 . S
H714 C737 0.950 . S
H715 C739 0.950 . S
H716 C740 0.950 . S
H717 C741 0.951 . S
H718 C743 0.951 . S
H719 C745 0.950 . S
H720 C746 0.950 . S
H721 C748 0.950 . S
H722 C751 0.950 . S
H723 C752 0.950 . S
H724 C754 0.950 . S
H725 C755 0.950 . S
C726 H708 0.951 . S
C726 C727 1.366 . S
C726 C728 1.388 . S
C727 C726 1.366 . S
C727 C731 1.385 . S
C728 H709 0.951 . S
C728 C726 1.388 . S
C728 C729 1.366 . S
C729 C728 1.366 . S
C729 C730 1.414 . S
C729 C732 1.499 . S
C730 H710 0.950 . S
C730 C729 1.414 . S
C730 C731 1.374 . S
C731 H711 0.950 . S
C731 C727 1.385 . S
C731 C730 1.374 . S
C732 C729 1.499 . S
C732 C733 1.373 . S
C732 C734 1.389 . S
C733 H712 0.950 . S
C733 C732 1.373 . S
C733 C749 1.377 . S
C734 C732 1.389 . S
C734 C735 1.524 . S
C734 C748 1.377 . S
C735 C734 1.524 . S
C735 C736 1.397 . S
C735 C740 1.363 . S
C736 H713 0.950 . S
C736 C735 1.397 . S
C736 C737 1.334 . S
C737 H714 0.950 . S
C737 C736 1.334 . S
C737 C738 1.287 . S
C738 C737 1.287 . S
C738 C739 1.524 . S
C738 H757 0.913 . S
C739 H715 0.950 . S
C739 C738 1.524 . S
C739 C740 1.415 . S
C740 H716 0.950 . S
C740 C735 1.363 . S
C740 C739 1.415 . S
C741 H717 0.951 . S
C741 C742 1.366 . S
C741 C743 1.388 . S
C742 C741 1.366 . S
C742 C746 1.385 . S
C743 H718 0.951 . S
C743 C741 1.388 . S
C743 C744 1.366 . S
C744 C743 1.366 . S
C744 C745 1.414 . S
C744 C747 1.499 . S
C745 H719 0.950 . S
C745 C744 1.414 . S
C745 C746 1.374 . S
C746 H720 0.950 . S
C746 C742 1.385 . S
C746 C745 1.374 . S
C747 C744 1.499 . S
C747 C748 1.373 . S
C747 C749 1.389 . S
C748 H721 0.950 . S
C748 C734 1.377 . S
C748 C747 1.373 . S
C749 C733 1.377 . S
C749 C747 1.389 . S
C749 C750 1.524 . S
C750 C749 1.524 . S
C750 C751 1.397 . S
C750 C755 1.363 . S
C751 H722 0.950 . S
C751 C750 1.397 . S
C751 C752 1.334 . S
C752 H723 0.950 . S
C752 C751 1.334 . S
C752 C753 1.287 . S
C753 C752 1.287 . S
C753 C754 1.524 . S
C753 H756 0.999 . S
C754 H724 0.950 . S
C754 C753 1.524 . S
C754 C755 1.415 . S
C755 H725 0.950 . S
C755 C750 1.363 . S
C755 C754 1.415 . S
H756 C753 0.999 . S
H757 C738 0.913 . S
H758 C776 0.951 . S
H759 C778 0.951 . S
H760 C780 0.950 . S
H761 C781 0.950 . S
H762 C783 0.950 . S
H763 C786 0.950 . S
H764 C787 0.950 . S
H765 C789 0.950 . S
H766 C790 0.950 . S
H767 C791 0.951 . S
H768 C793 0.951 . S
H769 C795 0.950 . S
H770 C796 0.950 . S
H771 C798 0.950 . S
H772 C801 0.950 . S
H773 C802 0.950 . S
H774 C804 0.950 . S
H775 C805 0.950 . S
C776 H758 0.951 . S
C776 C777 1.366 . S
C776 C778 1.388 . S
C777 C776 1.366 . S
C777 C781 1.385 . S
C778 H759 0.951 . S
C778 C776 1.388 . S
C778 C779 1.366 . S
C779 C778 1.366 . S
C779 C780 1.414 . S
C779 C782 1.499 . S
C780 H760 0.950 . S
C780 C779 1.414 . S
C780 C781 1.374 . S
C781 H761 0.950 . S
C781 C777 1.385 . S
C781 C780 1.374 . S
C782 C779 1.499 . S
C782 C783 1.373 . S
C782 C784 1.389 . S
C783 H762 0.950 . S
C783 C782 1.373 . S
C783 C799 1.377 . S
C784 C782 1.389 . S
C784 C785 1.524 . S
C784 C798 1.377 . S
C785 C784 1.524 . S
C785 C786 1.397 . S
C785 C790 1.363 . S
C786 H763 0.950 . S
C786 C785 1.397 . S
C786 C787 1.334 . S
C787 H764 0.950 . S
C787 C786 1.334 . S
C787 C788 1.287 . S
C788 C787 1.287 . S
C788 C789 1.524 . S
C788 H807 0.913 . S
C789 H765 0.950 . S
C789 C788 1.524 . S
C789 C790 1.415 . S
C790 H766 0.950 . S
C790 C785 1.363 . S
C790 C789 1.415 . S
C791 H767 0.951 . S
C791 C792 1.366 . S
C791 C793 1.388 . S
C792 C791 1.366 . S
C792 C796 1.385 . S
C793 H768 0.951 . S
C793 C791 1.388 . S
C793 C794 1.366 . S
C794 C793 1.366 . S
C794 C795 1.414 . S
C794 C797 1.499 . S
C795 H769 0.950 . S
C795 C794 1.414 . S
C795 C796 1.374 . S
C796 H770 0.950 . S
C796 C792 1.385 . S
C796 C795 1.374 . S
C797 C794 1.499 . S
C797 C798 1.373 . S
C797 C799 1.389 . S
C798 H771 0.950 . S
C798 C784 1.377 . S
C798 C797 1.373 . S
C799 C783 1.377 . S
C799 C797 1.389 . S
C799 C800 1.524 . S
C800 C799 1.524 . S
C800 C801 1.397 . S
C800 C805 1.363 . S
C801 H772 0.950 . S
C801 C800 1.397 . S
C801 C802 1.334 . S
C802 H773 0.950 . S
C802 C801 1.334 . S
C802 C803 1.287 . S
C803 C802 1.287 . S
C803 C804 1.524 . S
C803 H806 0.999 . S
C804 H774 0.950 . S
C804 C803 1.524 . S
C804 C805 1.415 . S
C805 H775 0.950 . S
C805 C800 1.363 . S
C805 C804 1.415 . S
H806 C803 0.999 . S
H807 C788 0.913 . S
H808 C826 0.951 . S
H809 C828 0.951 . S
H810 C830 0.950 . S
H811 C831 0.950 . S
H812 C833 0.950 . S
H813 C836 0.950 . S
H814 C837 0.950 . S
H815 C839 0.950 . S
H816 C840 0.950 . S
H817 C841 0.951 . S
H818 C843 0.951 . S
H819 C845 0.950 . S
H820 C846 0.950 . S
H821 C848 0.950 . S
H822 C851 0.950 . S
H823 C852 0.950 . S
H824 C854 0.950 . S
H825 C855 0.950 . S
C826 H808 0.951 . S
C826 C827 1.366 . S
C826 C828 1.388 . S
C827 C826 1.366 . S
C827 C831 1.385 . S
C828 H809 0.951 . S
C828 C826 1.388 . S
C828 C829 1.366 . S
C829 C828 1.366 . S
C829 C830 1.414 . S
C829 C832 1.499 . S
C830 H810 0.950 . S
C830 C829 1.414 . S
C830 C831 1.374 . S
C831 H811 0.950 . S
C831 C827 1.385 . S
C831 C830 1.374 . S
C832 C829 1.499 . S
C832 C833 1.373 . S
C832 C834 1.389 . S
C833 H812 0.950 . S
C833 C832 1.373 . S
C833 C849 1.377 . S
C834 C832 1.389 . S
C834 C835 1.524 . S
C834 C848 1.377 . S
C835 C834 1.524 . S
C835 C836 1.397 . S
C835 C840 1.363 . S
C836 H813 0.950 . S
C836 C835 1.397 . S
C836 C837 1.334 . S
C837 H814 0.950 . S
C837 C836 1.334 . S
C837 C838 1.287 . S
C838 C837 1.287 . S
C838 C839 1.524 . S
C838 H857 0.913 . S
C839 H815 0.950 . S
C839 C838 1.524 . S
C839 C840 1.415 . S
C840 H816 0.950 . S
C840 C835 1.363 . S
C840 C839 1.415 . S
C841 H817 0.951 . S
C841 C842 1.366 . S
C841 C843 1.388 . S
C842 C841 1.366 . S
C842 C846 1.385 . S
C843 H818 0.951 . S
C843 C841 1.388 . S
C843 C844 1.366 . S
C844 C843 1.366 . S
C844 C845 1.414 . S
C844 C847 1.499 . S
C845 H819 0.950 . S
C845 C844 1.414 . S
C845 C846 1.374 . S
C846 H820 0.950 . S
C846 C842 1.385 . S
C846 C845 1.374 . S
C847 C844 1.499 . S
C847 C848 1.373 . S
C847 C849 1.389 . S
C848 H821 0.950 . S
C848 C834 1.377 . S
C848 C847 1.373 . S
C849 C833 1.377 . S
C849 C847 1.389 . S
C849 C850 1.524 . S
C850 C849 1.524 . S
C850 C851 1.397 . S
C850 C855 1.363 . S
C851 H822 0.950 . S
C851 C850 1.397 . S
C851 C852 1.334 . S
C852 H823 0.950 . S
C852 C851 1.334 . S
C852 C853 1.287 . S
C853 C852 1.287 . S
C853 C854 1.524 . S
C853 H856 0.999 . S
C854 H824 0.950 . S
C854 C853 1.524 . S
C854 C855 1.415 . S
C855 H825 0.950 . S
C855 C850 1.363 . S
C855 C854 1.415 . S
H856 C853 0.999 . S
H857 C838 0.913 . S
H858 C876 0.951 . S
H859 C878 0.951 . S
H860 C880 0.950 . S
H861 C881 0.950 . S
H862 C883 0.950 . S
H863 C886 0.950 . S
H864 C887 0.950 . S
H865 C889 0.950 . S
H866 C890 0.950 . S
H867 C891 0.951 . S
H868 C893 0.951 . S
H869 C895 0.950 . S
H870 C896 0.950 . S
H871 C898 0.950 . S
H872 C901 0.950 . S
H873 C902 0.950 . S
H874 C904 0.950 . S
H875 C905 0.950 . S
C876 H858 0.951 . S
C876 C877 1.366 . S
C876 C878 1.388 . S
C877 C876 1.366 . S
C877 C881 1.385 . S
C878 H859 0.951 . S
C878 C876 1.388 . S
C878 C879 1.366 . S
C879 C878 1.366 . S
C879 C880 1.414 . S
C879 C882 1.499 . S
C880 H860 0.950 . S
C880 C879 1.414 . S
C880 C881 1.374 . S
C881 H861 0.950 . S
C881 C877 1.385 . S
C881 C880 1.374 . S
C882 C879 1.499 . S
C882 C883 1.373 . S
C882 C884 1.389 . S
C883 H862 0.950 . S
C883 C882 1.373 . S
C883 C899 1.377 . S
C884 C882 1.389 . S
C884 C885 1.524 . S
C884 C898 1.377 . S
C885 C884 1.524 . S
C885 C886 1.397 . S
C885 C890 1.363 . S
C886 H863 0.950 . S
C886 C885 1.397 . S
C886 C887 1.334 . S
C887 H864 0.950 . S
C887 C886 1.334 . S
C887 C888 1.287 . S
C888 C887 1.287 . S
C888 C889 1.524 . S
C888 H907 0.913 . S
C889 H865 0.950 . S
C889 C888 1.524 . S
C889 C890 1.415 . S
C890 H866 0.950 . S
C890 C885 1.363 . S
C890 C889 1.415 . S
C891 H867 0.951 . S
C891 C892 1.366 . S
C891 C893 1.388 . S
C892 C891 1.366 . S
C892 C896 1.385 . S
C893 H868 0.951 . S
C893 C891 1.388 . S
C893 C894 1.366 . S
C894 C893 1.366 . S
C894 C895 1.414 . S
C894 C897 1.499 . S
C895 H869 0.950 . S
C895 C894 1.414 . S
C895 C896 1.374 . S
C896 H870 0.950 . S
C896 C892 1.385 . S
C896 C895 1.374 . S
C897 C894 1.499 . S
C897 C898 1.373 . S
C897 C899 1.389 . S
C898 H871 0.950 . S
C898 C884 1.377 . S
C898 C897 1.373 . S
C899 C883 1.377 . S
C899 C897 1.389 . S
C899 C900 1.524 . S
C900 C899 1.524 . S
C900 C901 1.397 . S
C900 C905 1.363 . S
C901 H872 0.950 . S
C901 C900 1.397 . S
C901 C902 1.334 . S
C902 H873 0.950 . S
C902 C901 1.334 . S
C902 C903 1.287 . S
C903 C902 1.287 . S
C903 C904 1.524 . S
C903 H906 0.999 . S
C904 H874 0.950 . S
C904 C903 1.524 . S
C904 C905 1.415 . S
C905 H875 0.950 . S
C905 C900 1.363 . S
C905 C904 1.415 . S
H906 C903 0.999 . S
H907 C888 0.913 . S
H908 C926 0.951 . S
H909 C928 0.951 . S
H910 C930 0.950 . S
H911 C931 0.950 . S
H912 C933 0.950 . S
H913 C936 0.950 . S
H914 C937 0.950 . S
H915 C939 0.950 . S
H916 C940 0.950 . S
H917 C941 0.951 . S
H918 C943 0.951 . S
H919 C945 0.950 . S
H920 C946 0.950 . S
H921 C948 0.950 . S
H922 C951 0.950 . S
H923 C952 0.950 . S
H924 C954 0.950 . S
H925 C955 0.950 . S
C926 H908 0.951 . S
C926 C927 1.366 . S
C926 C928 1.388 . S
C927 C926 1.366 . S
C927 C931 1.385 . S
C928 H909 0.951 . S
C928 C926 1.388 . S
C928 C929 1.366 . S
C929 C928 1.366 . S
C929 C930 1.414 . S
C929 C932 1.499 . S
C930 H910 0.950 . S
C930 C929 1.414 . S
C930 C931 1.374 . S
C931 H911 0.950 . S
C931 C927 1.385 . S
C931 C930 1.374 . S
C932 C929 1.499 . S
C932 C933 1.373 . S
C932 C934 1.389 . S
C933 H912 0.950 . S
C933 C932 1.373 . S
C933 C949 1.377 . S
C934 C932 1.389 . S
C934 C935 1.524 . S
C934 C948 1.377 . S
C935 C934 1.524 . S
C935 C936 1.397 . S
C935 C940 1.363 . S
C936 H913 0.950 . S
C936 C935 1.397 . S
C936 C937 1.334 . S
C937 H914 0.950 . S
C937 C936 1.334 . S
C937 C938 1.287 . S
C938 C937 1.287 . S
C938 C939 1.524 . S
C938 H957 0.913 . S
C939 H915 0.950 . S
C939 C938 1.524 . S
C939 C940 1.415 . S
C940 H916 0.950 . S
C940 C935 1.363 . S
C940 C939 1.415 . S
C941 H917 0.951 . S
C941 C942 1.366 . S
C941 C943 1.388 . S
C942 C941 1.366 . S
C942 C946 1.385 . S
C943 H918 0.951 . S
C943 C941 1.388 . S
C943 C944 1.366 . S
C944 C943 1.366 . S
C944 C945 1.414 . S
C944 C947 1.499 . S
C945 H919 0.950 . S
C945 C944 1.414 . S
C945 C946 1.374 . S
C946 H920 0.950 . S
C946 C942 1.385 . S
C946 C945 1.374 . S
C947 C944 1.499 . S
C947 C948 1.373 . S
C947 C949 1.389 . S
C948 H921 0.950 . S
C948 C934 1.377 . S
C948 C947 1.373 . S
C949 C933 1.377 . S
C949 C947 1.389 . S
C949 C950 1.524 . S
C950 C949 1.524 . S
C950 C951 1.397 . S
C950 C955 1.363 . S
C951 H922 0.950 . S
C951 C950 1.397 . S
C951 C952 1.334 . S
C952 H923 0.950 . S
C952 C951 1.334 . S
C952 C953 1.287 . S
C953 C952 1.287 . S
C953 C954 1.524 . S
C953 H956 0.999 . S
C954 H924 0.950 . S
C954 C953 1.524 . S
C954 C955 1.415 . S
C955 H925 0.950 . S
C955 C950 1.363 . S
C955 C954 1.415 . S
H956 C953 0.999 . S
H957 C938 0.913 . S
H958 C976 0.951 . S
H959 C978 0.951 . S
H960 C980 0.950 . S
H961 C981 0.950 . S
H962 C983 0.950 . S
H963 C986 0.950 . S
H964 C987 0.950 . S
H965 C989 0.950 . S
H966 C990 0.950 . S
H967 C991 0.951 . S
H968 C993 0.951 . S
H969 C995 0.950 . S
H970 C996 0.950 . S
H971 C998 0.950 . S
H972 C1001 0.950 . S
H973 C1002 0.950 . S
H974 C1004 0.950 . S
H975 C1005 0.950 . S
C976 H958 0.951 . S
C976 C977 1.366 . S
C976 C978 1.388 . S
C977 C976 1.366 . S
C977 C981 1.385 . S
C978 H959 0.951 . S
C978 C976 1.388 . S
C978 C979 1.366 . S
C979 C978 1.366 . S
C979 C980 1.414 . S
C979 C982 1.499 . S
C980 H960 0.950 . S
C980 C979 1.414 . S
C980 C981 1.374 . S
C981 H961 0.950 . S
C981 C977 1.385 . S
C981 C980 1.374 . S
C982 C979 1.499 . S
C982 C983 1.373 . S
C982 C984 1.389 . S
C983 H962 0.950 . S
C983 C982 1.373 . S
C983 C999 1.377 . S
C984 C982 1.389 . S
C984 C985 1.524 . S
C984 C998 1.377 . S
C985 C984 1.524 . S
C985 C986 1.397 . S
C985 C990 1.363 . S
C986 H963 0.950 . S
C986 C985 1.397 . S
C986 C987 1.334 . S
C987 H964 0.950 . S
C987 C986 1.334 . S
C987 C988 1.287 . S
C988 C987 1.287 . S
C988 C989 1.524 . S
C988 H1007 0.913 . S
C989 H965 0.950 . S
C989 C988 1.524 . S
C989 C990 1.415 . S
C990 H966 0.950 . S
C990 C985 1.363 . S
C990 C989 1.415 . S
C991 H967 0.951 . S
C991 C992 1.366 . S
C991 C993 1.388 . S
C992 C991 1.366 . S
C992 C996 1.385 . S
C993 H968 0.951 . S
C993 C991 1.388 . S
C993 C994 1.366 . S
C994 C993 1.366 . S
C994 C995 1.414 . S
C994 C997 1.499 . S
C995 H969 0.950 . S
C995 C994 1.414 . S
C995 C996 1.374 . S
C996 H970 0.950 . S
C996 C992 1.385 . S
C996 C995 1.374 . S
C997 C994 1.499 . S
C997 C998 1.373 . S
C997 C999 1.389 . S
C998 H971 0.950 . S
C998 C984 1.377 . S
C998 C997 1.373 . S
C999 C983 1.377 . S
C999 C997 1.389 . S
C999 C1000 1.524 . S
C1000 C999 1.524 . S
C1000 C1001 1.397 . S
C1000 C1005 1.363 . S
C1001 H972 0.950 . S
C1001 C1000 1.397 . S
C1001 C1002 1.334 . S
C1002 H973 0.950 . S
C1002 C1001 1.334 . S
C1002 C1003 1.287 . S
C1003 C1002 1.287 . S
C1003 C1004 1.524 . S
C1003 H1006 0.999 . S
C1004 H974 0.950 . S
C1004 C1003 1.524 . S
C1004 C1005 1.415 . S
C1005 H975 0.950 . S
C1005 C1000 1.363 . S
C1005 C1004 1.415 . S
H1006 C1003 0.999 . S
H1007 C988 0.913 . S
H1008 C1026 0.951 . S
H1009 C1028 0.951 . S
H1010 C1030 0.950 . S
H1011 C1031 0.950 . S
H1012 C1033 0.950 . S
H1013 C1036 0.950 . S
H1014 C1037 0.950 . S
H1015 C1039 0.950 . S
H1016 C1040 0.950 . S
H1017 C1041 0.951 . S
H1018 C1043 0.951 . S
H1019 C1045 0.950 . S
H1020 C1046 0.950 . S
H1021 C1048 0.950 . S
H1022 C1051 0.950 . S
H1023 C1052 0.950 . S
H1024 C1054 0.950 . S
H1025 C1055 0.950 . S
C1026 H1008 0.951 . S
C1026 C1027 1.366 . S
C1026 C1028 1.388 . S
C1027 C1026 1.366 . S
C1027 C1031 1.385 . S
C1028 H1009 0.951 . S
C1028 C1026 1.388 . S
C1028 C1029 1.366 . S
C1029 C1028 1.366 . S
C1029 C1030 1.414 . S
C1029 C1032 1.499 . S
C1030 H1010 0.950 . S
C1030 C1029 1.414 . S
C1030 C1031 1.374 . S
C1031 H1011 0.950 . S
C1031 C1027 1.385 . S
C1031 C1030 1.374 . S
C1032 C1029 1.499 . S
C1032 C1033 1.373 . S
C1032 C1034 1.382 1_565 S
C1033 H1012 0.950 . S
C1033 C1032 1.373 . S
C1033 C1049 1.384 . S
C1034 C1032 1.382 1_545 S
C1034 C1035 1.525 . S
C1034 C1048 1.384 . S
C1035 C1034 1.525 . S
C1035 C1036 1.397 1_545 S
C1035 C1040 1.363 . S
C1036 H1013 0.950 . S
C1036 C1035 1.397 1_565 S
C1036 C1037 1.334 . S
C1037 H1014 0.950 . S
C1037 C1036 1.334 . S
C1037 C1038 1.287 1_565 S
C1038 C1037 1.287 1_545 S
C1038 C1039 1.524 . S
C1038 H1057 0.913 . S
C1039 H1015 0.950 . S
C1039 C1038 1.524 . S
C1039 C1040 1.415 . S
C1040 H1016 0.950 . S
C1040 C1035 1.363 . S
C1040 C1039 1.415 . S
C1041 H1017 0.951 . S
C1041 C1042 1.366 . S
C1041 C1043 1.388 . S
C1042 C1041 1.366 . S
C1042 C1046 1.385 . S
C1043 H1018 0.951 . S
C1043 C1041 1.388 . S
C1043 C1044 1.366 . S
C1044 C1043 1.366 . S
C1044 C1045 1.414 . S
C1044 C1047 1.499 . S
C1045 H1019 0.950 . S
C1045 C1044 1.414 . S
C1045 C1046 1.374 . S
C1046 H1020 0.950 . S
C1046 C1042 1.385 . S
C1046 C1045 1.374 . S
C1047 C1044 1.499 . S
C1047 C1048 1.373 . S
C1047 C1049 1.382 1_545 S
C1048 H1021 0.950 . S
C1048 C1034 1.384 . S
C1048 C1047 1.373 . S
C1049 C1033 1.384 . S
C1049 C1047 1.382 1_565 S
C1049 C1050 1.525 . S
C1050 C1049 1.525 . S
C1050 C1051 1.397 1_565 S
C1050 C1055 1.363 . S
C1051 H1022 0.950 . S
C1051 C1050 1.397 1_545 S
C1051 C1052 1.334 . S
C1052 H1023 0.950 . S
C1052 C1051 1.334 . S
C1052 C1053 1.287 1_545 S
C1053 C1052 1.287 1_565 S
C1053 C1054 1.524 . S
C1053 H1056 0.999 . S
C1054 H1024 0.950 . S
C1054 C1053 1.524 . S
C1054 C1055 1.415 . S
C1055 H1025 0.950 . S
C1055 C1050 1.363 . S
C1055 C1054 1.415 . S
H1056 C1053 0.999 . S
H1057 C1038 0.913 . S
H1058 C1076 0.951 . S
H1059 C1078 0.951 . S
H1060 C1080 0.950 . S
H1061 C1081 0.950 . S
H1062 C1083 0.950 . S
H1063 C1086 0.950 . S
H1064 C1087 0.950 . S
H1065 C1089 0.950 . S
H1066 C1090 0.950 . S
H1067 C1091 0.951 . S
H1068 C1093 0.951 . S
H1069 C1095 0.950 . S
H1070 C1096 0.950 . S
H1071 C1098 0.950 . S
H1072 C1101 0.950 . S
H1073 C1102 0.950 . S
H1074 C1104 0.950 . S
H1075 C1105 0.950 . S
C1076 H1058 0.951 . S
C1076 C1077 1.366 . S
C1076 C1078 1.388 . S
C1077 C1076 1.366 . S
C1077 C1081 1.385 . S
C1078 H1059 0.951 . S
C1078 C1076 1.388 . S
C1078 C1079 1.366 . S
C1079 C1078 1.366 . S
C1079 C1080 1.414 . S
C1079 C1082 1.499 . S
C1080 H1060 0.950 . S
C1080 C1079 1.414 . S
C1080 C1081 1.374 . S
C1081 H1061 0.950 . S
C1081 C1077 1.385 . S
C1081 C1080 1.374 . S
C1082 C1079 1.499 . S
C1082 C1083 1.373 . S
C1082 C1084 1.389 . S
C1083 H1062 0.950 . S
C1083 C1082 1.373 . S
C1083 C1099 1.377 1_655 S
C1084 C1082 1.389 . S
C1084 C1085 1.524 . S
C1084 C1098 1.377 1_655 S
C1085 C1084 1.524 . S
C1085 C1086 1.397 . S
C1085 C1090 1.363 1_655 S
C1086 H1063 0.950 . S
C1086 C1085 1.397 . S
C1086 C1087 1.334 . S
C1087 H1064 0.950 . S
C1087 C1086 1.334 . S
C1087 C1088 1.287 . S
C1088 C1087 1.287 . S
C1088 C1089 1.524 1_655 S
C1088 H1107 0.913 . S
C1089 H1065 0.950 . S
C1089 C1088 1.524 1_455 S
C1089 C1090 1.415 . S
C1090 H1066 0.950 . S
C1090 C1085 1.363 1_455 S
C1090 C1089 1.415 . S
C1091 H1067 0.951 . S
C1091 C1092 1.366 . S
C1091 C1093 1.388 . S
C1092 C1091 1.366 . S
C1092 C1096 1.385 . S
C1093 H1068 0.951 . S
C1093 C1091 1.388 . S
C1093 C1094 1.366 . S
C1094 C1093 1.366 . S
C1094 C1095 1.414 . S
C1094 C1097 1.499 . S
C1095 H1069 0.950 . S
C1095 C1094 1.414 . S
C1095 C1096 1.374 . S
C1096 H1070 0.950 . S
C1096 C1092 1.385 . S
C1096 C1095 1.374 . S
C1097 C1094 1.499 . S
C1097 C1098 1.373 . S
C1097 C1099 1.389 . S
C1098 H1071 0.950 . S
C1098 C1084 1.377 1_455 S
C1098 C1097 1.373 . S
C1099 C1083 1.377 1_455 S
C1099 C1097 1.389 . S
C1099 C1100 1.524 . S
C1100 C1099 1.524 . S
C1100 C1101 1.397 . S
C1100 C1105 1.363 1_455 S
C1101 H1072 0.950 . S
C1101 C1100 1.397 . S
C1101 C1102 1.334 . S
C1102 H1073 0.950 . S
C1102 C1101 1.334 . S
C1102 C1103 1.287 . S
C1103 C1102 1.287 . S
C1103 C1104 1.524 1_455 S
C1103 H1106 0.999 . S
C1104 H1074 0.950 . S
C1104 C1103 1.524 1_655 S
C1104 C1105 1.415 . S
C1105 H1075 0.950 . S
C1105 C1100 1.363 1_655 S
C1105 C1104 1.415 . S
H1106 C1103 0.999 . S
H1107 C1088 0.913 . S
H1108 C1126 0.951 . S
H1109 C1128 0.951 . S
H1110 C1130 0.950 . S
H1111 C1131 0.950 . S
H1112 C1133 0.950 . S
H1113 C1136 0.950 . S
H1114 C1137 0.950 . S
H1115 C1139 0.950 . S
H1116 C1140 0.950 . S
H1117 C1141 0.951 . S
H1118 C1143 0.951 . S
H1119 C1145 0.950 . S
H1120 C1146 0.950 . S
H1121 C1148 0.950 . S
H1122 C1151 0.950 . S
H1123 C1152 0.950 . S
H1124 C1154 0.950 . S
H1125 C1155 0.950 . S
C1126 H1108 0.951 . S
C1126 C1127 1.366 . S
C1126 C1128 1.388 . S
C1127 C1126 1.366 . S
C1127 C1131 1.385 . S
C1128 H1109 0.951 . S
C1128 C1126 1.388 . S
C1128 C1129 1.366 . S
C1129 C1128 1.366 . S
C1129 C1130 1.414 . S
C1129 C1132 1.499 . S
C1130 H1110 0.950 . S
C1130 C1129 1.414 . S
C1130 C1131 1.374 . S
C1131 H1111 0.950 . S
C1131 C1127 1.385 . S
C1131 C1130 1.374 . S
C1132 C1129 1.499 . S
C1132 C1133 1.373 . S
C1132 C1134 1.389 . S
C1133 H1112 0.950 . S
C1133 C1132 1.373 . S
C1133 C1149 1.377 1_545 S
C1134 C1132 1.389 . S
C1134 C1135 1.524 . S
C1134 C1148 1.377 1_545 S
C1135 C1134 1.524 . S
C1135 C1136 1.397 . S
C1135 C1140 1.363 . S
C1136 H1113 0.950 . S
C1136 C1135 1.397 . S
C1136 C1137 1.334 . S
C1137 H1114 0.950 . S
C1137 C1136 1.334 . S
C1137 C1138 1.287 . S
C1138 C1137 1.287 . S
C1138 C1139 1.524 . S
C1138 H1157 0.913 . S
C1139 H1115 0.950 . S
C1139 C1138 1.524 . S
C1139 C1140 1.415 . S
C1140 H1116 0.950 . S
C1140 C1135 1.363 . S
C1140 C1139 1.415 . S
C1141 H1117 0.951 . S
C1141 C1142 1.366 . S
C1141 C1143 1.388 . S
C1142 C1141 1.366 . S
C1142 C1146 1.385 . S
C1143 H1118 0.951 . S
C1143 C1141 1.388 . S
C1143 C1144 1.366 . S
C1144 C1143 1.366 . S
C1144 C1145 1.414 . S
C1144 C1147 1.499 . S
C1145 H1119 0.950 . S
C1145 C1144 1.414 . S
C1145 C1146 1.374 . S
C1146 H1120 0.950 . S
C1146 C1142 1.385 . S
C1146 C1145 1.374 . S
C1147 C1144 1.499 . S
C1147 C1148 1.373 . S
C1147 C1149 1.389 . S
C1148 H1121 0.950 . S
C1148 C1134 1.377 1_565 S
C1148 C1147 1.373 . S
C1149 C1133 1.377 1_565 S
C1149 C1147 1.389 . S
C1149 C1150 1.524 . S
C1150 C1149 1.524 . S
C1150 C1151 1.397 . S
C1150 C1155 1.363 . S
C1151 H1122 0.950 . S
C1151 C1150 1.397 . S
C1151 C1152 1.334 . S
C1152 H1123 0.950 . S
C1152 C1151 1.334 . S
C1152 C1153 1.287 . S
C1153 C1152 1.287 . S
C1153 C1154 1.524 . S
C1153 H1156 0.999 . S
C1154 H1124 0.950 . S
C1154 C1153 1.524 . S
C1154 C1155 1.415 . S
C1155 H1125 0.950 . S
C1155 C1150 1.363 . S
C1155 C1154 1.415 . S
H1156 C1153 0.999 . S
H1157 C1138 0.913 . S
H1158 C1176 0.951 . S
H1159 C1178 0.951 . S
H1160 C1180 0.950 . S
H1161 C1181 0.950 . S
H1162 C1183 0.950 . S
H1163 C1186 0.950 . S
H1164 C1187 0.950 . S
H1165 C1189 0.950 . S
H1166 C1190 0.950 . S
H1167 C1191 0.951 . S
H1168 C1193 0.951 . S
H1169 C1195 0.950 . S
H1170 C1196 0.950 . S
H1171 C1198 0.950 . S
H1172 C1201 0.950 . S
H1173 C1202 0.950 . S
H1174 C1204 0.950 . S
H1175 C1205 0.950 . S
C1176 H1158 0.951 . S
C1176 C1177 1.366 . S
C1176 C1178 1.388 . S
C1177 C1176 1.366 . S
C1177 C1181 1.385 . S
C1178 H1159 0.951 . S
C1178 C1176 1.388 . S
C1178 C1179 1.366 . S
C1179 C1178 1.366 . S
C1179 C1180 1.414 . S
C1179 C1182 1.499 . S
C1180 H1160 0.950 . S
C1180 C1179 1.414 . S
C1180 C1181 1.374 . S
C1181 H1161 0.950 . S
C1181 C1177 1.385 . S
C1181 C1180 1.374 . S
C1182 C1179 1.499 . S
C1182 C1183 1.373 . S
C1182 C1184 1.389 . S
C1183 H1162 0.950 . S
C1183 C1182 1.373 . S
C1183 C1199 1.377 1_655 S
C1184 C1182 1.389 . S
C1184 C1185 1.524 . S
C1184 C1198 1.377 1_655 S
C1185 C1184 1.524 . S
C1185 C1186 1.397 . S
C1185 C1190 1.363 . S
C1186 H1163 0.950 . S
C1186 C1185 1.397 . S
C1186 C1187 1.334 . S
C1187 H1164 0.950 . S
C1187 C1186 1.334 . S
C1187 C1188 1.287 . S
C1188 C1187 1.287 . S
C1188 C1189 1.524 . S
C1188 H1207 0.913 . S
C1189 H1165 0.950 . S
C1189 C1188 1.524 . S
C1189 C1190 1.415 . S
C1190 H1166 0.950 . S
C1190 C1185 1.363 . S
C1190 C1189 1.415 . S
C1191 H1167 0.951 . S
C1191 C1192 1.366 . S
C1191 C1193 1.388 . S
C1192 C1191 1.366 . S
C1192 C1196 1.385 . S
C1193 H1168 0.951 . S
C1193 C1191 1.388 . S
C1193 C1194 1.366 . S
C1194 C1193 1.366 . S
C1194 C1195 1.414 . S
C1194 C1197 1.499 . S
C1195 H1169 0.950 . S
C1195 C1194 1.414 . S
C1195 C1196 1.374 . S
C1196 H1170 0.950 . S
C1196 C1192 1.385 . S
C1196 C1195 1.374 . S
C1197 C1194 1.499 . S
C1197 C1198 1.373 . S
C1197 C1199 1.389 . S
C1198 H1171 0.950 . S
C1198 C1184 1.377 1_455 S
C1198 C1197 1.373 . S
C1199 C1183 1.377 1_455 S
C1199 C1197 1.389 . S
C1199 C1200 1.524 . S
C1200 C1199 1.524 . S
C1200 C1201 1.397 . S
C1200 C1205 1.363 . S
C1201 H1172 0.950 . S
C1201 C1200 1.397 . S
C1201 C1202 1.334 . S
C1202 H1173 0.950 . S
C1202 C1201 1.334 . S
C1202 C1203 1.287 . S
C1203 C1202 1.287 . S
C1203 C1204 1.524 . S
C1203 H1206 0.999 . S
C1204 H1174 0.950 . S
C1204 C1203 1.524 . S
C1204 C1205 1.415 . S
C1205 H1175 0.950 . S
C1205 C1200 1.363 . S
C1205 C1204 1.415 . S
H1206 C1203 0.999 . S
H1207 C1188 0.913 . S
H1208 C1226 0.951 . S
H1209 C1228 0.951 . S
H1210 C1230 0.950 . S
H1211 C1231 0.950 . S
H1212 C1233 0.950 . S
H1213 C1236 0.950 . S
H1214 C1237 0.950 . S
H1215 C1239 0.950 . S
H1216 C1240 0.950 . S
H1217 C1241 0.951 . S
H1218 C1243 0.951 . S
H1219 C1245 0.950 . S
H1220 C1246 0.950 . S
H1221 C1248 0.950 . S
H1222 C1251 0.950 . S
H1223 C1252 0.950 . S
H1224 C1254 0.950 . S
H1225 C1255 0.950 . S
C1226 H1208 0.951 . S
C1226 C1227 1.366 . S
C1226 C1228 1.388 . S
C1227 C1226 1.366 . S
C1227 C1231 1.385 . S
C1228 H1209 0.951 . S
C1228 C1226 1.388 . S
C1228 C1229 1.366 . S
C1229 C1228 1.366 . S
C1229 C1230 1.414 . S
C1229 C1232 1.499 . S
C1230 H1210 0.950 . S
C1230 C1229 1.414 . S
C1230 C1231 1.374 . S
C1231 H1211 0.950 . S
C1231 C1227 1.385 . S
C1231 C1230 1.374 . S
C1232 C1229 1.499 . S
C1232 C1233 1.373 . S
C1232 C1234 1.389 . S
C1233 H1212 0.950 . S
C1233 C1232 1.373 . S
C1233 C1249 1.377 1_556 S
C1234 C1232 1.389 . S
C1234 C1235 1.524 . S
C1234 C1248 1.377 1_556 S
C1235 C1234 1.524 . S
C1235 C1236 1.397 . S
C1235 C1240 1.363 1_556 S
C1236 H1213 0.950 . S
C1236 C1235 1.397 . S
C1236 C1237 1.334 . S
C1237 H1214 0.950 . S
C1237 C1236 1.334 . S
C1237 C1238 1.287 . S
C1238 C1237 1.287 . S
C1238 C1239 1.524 1_556 S
C1238 H1257 0.913 . S
C1239 H1215 0.950 . S
C1239 C1238 1.524 1_554 S
C1239 C1240 1.415 . S
C1240 H1216 0.950 . S
C1240 C1235 1.363 1_554 S
C1240 C1239 1.415 . S
C1241 H1217 0.951 . S
C1241 C1242 1.366 . S
C1241 C1243 1.388 . S
C1242 C1241 1.366 . S
C1242 C1246 1.385 . S
C1243 H1218 0.951 . S
C1243 C1241 1.388 . S
C1243 C1244 1.366 . S
C1244 C1243 1.366 . S
C1244 C1245 1.414 . S
C1244 C1247 1.499 . S
C1245 H1219 0.950 . S
C1245 C1244 1.414 . S
C1245 C1246 1.374 . S
C1246 H1220 0.950 . S
C1246 C1242 1.385 . S
C1246 C1245 1.374 . S
C1247 C1244 1.499 . S
C1247 C1248 1.373 . S
C1247 C1249 1.389 . S
C1248 H1221 0.950 . S
C1248 C1234 1.377 1_554 S
C1248 C1247 1.373 . S
C1249 C1233 1.377 1_554 S
C1249 C1247 1.389 . S
C1249 C1250 1.524 . S
C1250 C1249 1.524 . S
C1250 C1251 1.397 . S
C1250 C1255 1.363 1_554 S
C1251 H1222 0.950 . S
C1251 C1250 1.397 . S
C1251 C1252 1.334 . S
C1252 H1223 0.950 . S
C1252 C1251 1.334 . S
C1252 C1253 1.287 . S
C1253 C1252 1.287 . S
C1253 C1254 1.524 1_554 S
C1253 H1256 0.999 . S
C1254 H1224 0.950 . S
C1254 C1253 1.524 1_556 S
C1254 C1255 1.415 . S
C1255 H1225 0.950 . S
C1255 C1250 1.363 1_556 S
C1255 C1254 1.415 . S
H1256 C1253 0.999 . S
H1257 C1238 0.913 . S
H1258 C1276 0.951 . S
H1259 C1278 0.951 . S
H1260 C1280 0.950 . S
H1261 C1281 0.950 . S
H1262 C1283 0.950 . S
H1263 C1286 0.950 1_554 S
H1264 C1287 0.950 . S
H1265 C1289 0.950 . S
H1266 C1290 0.950 . S
H1267 C1291 0.951 . S
H1268 C1293 0.951 . S
H1269 C1295 0.950 . S
H1270 C1296 0.950 . S
H1271 C1298 0.950 . S
H1272 C1301 0.950 1_556 S
H1273 C1302 0.950 . S
H1274 C1304 0.950 . S
H1275 C1305 0.950 . S
C1276 H1258 0.951 . S
C1276 C1277 1.366 . S
C1276 C1278 1.388 . S
C1277 C1276 1.366 . S
C1277 C1281 1.385 . S
C1278 H1259 0.951 . S
C1278 C1276 1.388 . S
C1278 C1279 1.366 . S
C1279 C1278 1.366 . S
C1279 C1280 1.414 . S
C1279 C1282 1.499 . S
C1280 H1260 0.950 . S
C1280 C1279 1.414 . S
C1280 C1281 1.374 . S
C1281 H1261 0.950 . S
C1281 C1277 1.385 . S
C1281 C1280 1.374 . S
C1282 C1279 1.499 . S
C1282 C1283 1.373 . S
C1282 C1284 1.389 1_554 S
C1283 H1262 0.950 . S
C1283 C1282 1.373 . S
C1283 C1299 1.377 . S
C1284 C1282 1.389 1_556 S
C1284 C1285 1.524 . S
C1284 C1298 1.377 . S
C1285 C1284 1.524 . S
C1285 C1286 1.397 . S
C1285 C1290 1.363 . S
C1286 H1263 0.950 1_556 S
C1286 C1285 1.397 . S
C1286 C1287 1.334 . S
C1287 H1264 0.950 . S
C1287 C1286 1.334 . S
C1287 C1288 1.287 . S
C1288 C1287 1.287 . S
C1288 C1289 1.524 . S
C1288 H1307 0.913 . S
C1289 H1265 0.950 . S
C1289 C1288 1.524 . S
C1289 C1290 1.415 . S
C1290 H1266 0.950 . S
C1290 C1285 1.363 . S
C1290 C1289 1.415 . S
C1291 H1267 0.951 . S
C1291 C1292 1.366 . S
C1291 C1293 1.388 . S
C1292 C1291 1.366 . S
C1292 C1296 1.385 . S
C1293 H1268 0.951 . S
C1293 C1291 1.388 . S
C1293 C1294 1.366 . S
C1294 C1293 1.366 . S
C1294 C1295 1.414 . S
C1294 C1297 1.499 . S
C1295 H1269 0.950 . S
C1295 C1294 1.414 . S
C1295 C1296 1.374 . S
C1296 H1270 0.950 . S
C1296 C1292 1.385 . S
C1296 C1295 1.374 . S
C1297 C1294 1.499 . S
C1297 C1298 1.373 . S
C1297 C1299 1.389 1_556 S
C1298 H1271 0.950 . S
C1298 C1284 1.377 . S
C1298 C1297 1.373 . S
C1299 C1283 1.377 . S
C1299 C1297 1.389 1_554 S
C1299 C1300 1.524 . S
C1300 C1299 1.524 . S
C1300 C1301 1.397 . S
C1300 C1305 1.363 . S
C1301 H1272 0.950 1_554 S
C1301 C1300 1.397 . S
C1301 C1302 1.334 . S
C1302 H1273 0.950 . S
C1302 C1301 1.334 . S
C1302 C1303 1.287 . S
C1303 C1302 1.287 . S
C1303 C1304 1.524 . S
C1303 H1306 0.999 . S
C1304 H1274 0.950 . S
C1304 C1303 1.524 . S
C1304 C1305 1.415 . S
C1305 H1275 0.950 . S
C1305 C1300 1.363 . S
C1305 C1304 1.415 . S
H1306 C1303 0.999 . S
H1307 C1288 0.913 . S
H1308 C1326 0.951 . S
H1309 C1328 0.951 . S
H1310 C1330 0.950 . S
H1311 C1331 0.950 . S
H1312 C1333 0.950 . S
H1313 C1336 0.950 . S
H1314 C1337 0.950 . S
H1315 C1339 0.950 . S
H1316 C1340 0.950 . S
H1317 C1341 0.951 . S
H1318 C1343 0.951 . S
H1319 C1345 0.950 . S
H1320 C1346 0.950 . S
H1321 C1348 0.950 . S
H1322 C1351 0.950 . S
H1323 C1352 0.950 . S
H1324 C1354 0.950 . S
H1325 C1355 0.950 . S
C1326 H1308 0.951 . S
C1326 C1327 1.366 . S
C1326 C1328 1.388 . S
C1327 C1326 1.366 . S
C1327 C1331 1.385 . S
C1328 H1309 0.951 . S
C1328 C1326 1.388 . S
C1328 C1329 1.366 . S
C1329 C1328 1.366 . S
C1329 C1330 1.414 . S
C1329 C1332 1.499 . S
C1330 H1310 0.950 . S
C1330 C1329 1.414 . S
C1330 C1331 1.374 . S
C1331 H1311 0.950 . S
C1331 C1327 1.385 . S
C1331 C1330 1.374 . S
C1332 C1329 1.499 . S
C1332 C1333 1.373 . S
C1332 C1334 1.389 . S
C1333 H1312 0.950 . S
C1333 C1332 1.373 . S
C1333 C1349 1.377 1_554 S
C1334 C1332 1.389 . S
C1334 C1335 1.524 . S
C1334 C1348 1.377 1_554 S
C1335 C1334 1.524 . S
C1335 C1336 1.397 . S
C1335 C1340 1.363 . S
C1336 H1313 0.950 . S
C1336 C1335 1.397 . S
C1336 C1337 1.334 . S
C1337 H1314 0.950 . S
C1337 C1336 1.334 . S
C1337 C1338 1.287 . S
C1338 C1337 1.287 . S
C1338 C1339 1.524 . S
C1338 H1357 0.913 . S
C1339 H1315 0.950 . S
C1339 C1338 1.524 . S
C1339 C1340 1.415 . S
C1340 H1316 0.950 . S
C1340 C1335 1.363 . S
C1340 C1339 1.415 . S
C1341 H1317 0.951 . S
C1341 C1342 1.366 . S
C1341 C1343 1.388 . S
C1342 C1341 1.366 . S
C1342 C1346 1.385 . S
C1343 H1318 0.951 . S
C1343 C1341 1.388 . S
C1343 C1344 1.366 . S
C1344 C1343 1.366 . S
C1344 C1345 1.414 . S
C1344 C1347 1.499 . S
C1345 H1319 0.950 . S
C1345 C1344 1.414 . S
C1345 C1346 1.374 . S
C1346 H1320 0.950 . S
C1346 C1342 1.385 . S
C1346 C1345 1.374 . S
C1347 C1344 1.499 . S
C1347 C1348 1.373 . S
C1347 C1349 1.389 . S
C1348 H1321 0.950 . S
C1348 C1334 1.377 1_556 S
C1348 C1347 1.373 . S
C1349 C1333 1.377 1_556 S
C1349 C1347 1.389 . S
C1349 C1350 1.524 . S
C1350 C1349 1.524 . S
C1350 C1351 1.397 . S
C1350 C1355 1.363 . S
C1351 H1322 0.950 . S
C1351 C1350 1.397 . S
C1351 C1352 1.334 . S
C1352 H1323 0.950 . S
C1352 C1351 1.334 . S
C1352 C1353 1.287 . S
C1353 C1352 1.287 . S
C1353 C1354 1.524 . S
C1353 H1356 0.999 . S
C1354 H1324 0.950 . S
C1354 C1353 1.524 . S
C1354 C1355 1.415 . S
C1355 H1325 0.950 . S
C1355 C1350 1.363 . S
C1355 C1354 1.415 . S
H1356 C1353 0.999 . S
H1357 C1338 0.913 . S
H1358 C1376 0.951 . S
H1359 C1378 0.951 . S
H1360 C1380 0.950 . S
H1361 C1381 0.950 . S
H1362 C1383 0.950 . S
H1363 C1386 0.950 . S
H1364 C1387 0.950 . S
H1365 C1389 0.950 . S
H1366 C1390 0.950 . S
H1367 C1391 0.951 . S
H1368 C1393 0.951 . S
H1369 C1395 0.950 . S
H1370 C1396 0.950 . S
H1371 C1398 0.950 . S
H1372 C1401 0.950 . S
H1373 C1402 0.950 . S
H1374 C1404 0.950 . S
H1375 C1405 0.950 . S
C1376 H1358 0.951 . S
C1376 C1377 1.366 . S
C1376 C1378 1.388 . S
C1377 C1376 1.366 . S
C1377 C1381 1.385 . S
C1378 H1359 0.951 . S
C1378 C1376 1.388 . S
C1378 C1379 1.366 . S
C1379 C1378 1.366 . S
C1379 C1380 1.414 . S
C1379 C1382 1.499 . S
C1380 H1360 0.950 . S
C1380 C1379 1.414 . S
C1380 C1381 1.374 . S
C1381 H1361 0.950 . S
C1381 C1377 1.385 . S
C1381 C1380 1.374 . S
C1382 C1379 1.499 . S
C1382 C1383 1.373 . S
C1382 C1384 1.389 . S
C1383 H1362 0.950 . S
C1383 C1382 1.373 . S
C1383 C1399 1.377 1_556 S
C1384 C1382 1.389 . S
C1384 C1385 1.524 . S
C1384 C1398 1.377 1_556 S
C1385 C1384 1.524 . S
C1385 C1386 1.397 . S
C1385 C1390 1.363 . S
C1386 H1363 0.950 . S
C1386 C1385 1.397 . S
C1386 C1387 1.334 . S
C1387 H1364 0.950 . S
C1387 C1386 1.334 . S
C1387 C1388 1.287 . S
C1388 C1387 1.287 . S
C1388 C1389 1.524 . S
C1388 H1407 0.913 . S
C1389 H1365 0.950 . S
C1389 C1388 1.524 . S
C1389 C1390 1.415 . S
C1390 H1366 0.950 . S
C1390 C1385 1.363 . S
C1390 C1389 1.415 . S
C1391 H1367 0.951 . S
C1391 C1392 1.366 . S
C1391 C1393 1.388 . S
C1392 C1391 1.366 . S
C1392 C1396 1.385 . S
C1393 H1368 0.951 . S
C1393 C1391 1.388 . S
C1393 C1394 1.366 . S
C1394 C1393 1.366 . S
C1394 C1395 1.414 . S
C1394 C1397 1.499 . S
C1395 H1369 0.950 . S
C1395 C1394 1.414 . S
C1395 C1396 1.374 . S
C1396 H1370 0.950 . S
C1396 C1392 1.385 . S
C1396 C1395 1.374 . S
C1397 C1394 1.499 . S
C1397 C1398 1.373 . S
C1397 C1399 1.389 . S
C1398 H1371 0.950 . S
C1398 C1384 1.377 1_554 S
C1398 C1397 1.373 . S
C1399 C1383 1.377 1_554 S
C1399 C1397 1.389 . S
C1399 C1400 1.524 . S
C1400 C1399 1.524 . S
C1400 C1401 1.397 . S
C1400 C1405 1.363 . S
C1401 H1372 0.950 . S
C1401 C1400 1.397 . S
C1401 C1402 1.334 . S
C1402 H1373 0.950 . S
C1402 C1401 1.334 . S
C1402 C1403 1.287 . S
C1403 C1402 1.287 . S
C1403 C1404 1.524 . S
C1403 H1406 0.999 . S
C1404 H1374 0.950 . S
C1404 C1403 1.524 . S
C1404 C1405 1.415 . S
C1405 H1375 0.950 . S
C1405 C1400 1.363 . S
C1405 C1404 1.415 . S
H1406 C1403 0.999 . S
H1407 C1388 0.913 . S
H1408 C1426 0.951 . S
H1409 C1428 0.951 . S
H1410 C1430 0.950 . S
H1411 C1431 0.950 . S
H1412 C1433 0.953 . S
H1413 C1436 0.950 . S
H1414 C1437 0.950 . S
H1415 C1439 0.950 . S
H1416 C1440 0.950 . S
H1417 C1441 0.951 . S
H1418 C1443 0.951 . S
H1419 C1445 0.950 . S
H1420 C1446 0.950 . S
H1421 C1448 0.953 . S
H1422 C1451 0.950 . S
H1423 C1452 0.950 . S
H1424 C1454 0.950 . S
H1425 C1455 0.950 . S
C1426 H1408 0.951 . S
C1426 C1427 1.366 . S
C1426 C1428 1.388 . S
C1427 C1426 1.366 . S
C1427 C1431 1.385 . S
C1428 H1409 0.951 . S
C1428 C1426 1.388 . S
C1428 C1429 1.366 . S
C1429 C1428 1.366 . S
C1429 C1430 1.414 . S
C1429 C1432 1.499 . S
C1430 H1410 0.950 . S
C1430 C1429 1.414 . S
C1430 C1431 1.374 . S
C1431 H1411 0.950 . S
C1431 C1427 1.385 . S
C1431 C1430 1.374 . S
C1432 C1429 1.499 . S
C1432 C1433 1.415 . S
C1432 C1434 1.389 . S
C1433 H1412 0.953 . S
C1433 C1432 1.415 . S
C1433 C1449 1.334 1_655 S
C1434 C1432 1.389 . S
C1434 C1435 1.524 . S
C1434 C1448 1.334 1_655 S
C1435 C1434 1.524 . S
C1435 C1436 1.397 . S
C1435 C1440 1.363 . S
C1436 H1413 0.950 . S
C1436 C1435 1.397 . S
C1436 C1437 1.334 . S
C1437 H1414 0.950 . S
C1437 C1436 1.334 . S
C1437 C1438 1.287 . S
C1438 C1437 1.287 . S
C1438 C1439 1.524 . S
C1438 H1457 0.913 . S
C1439 H1415 0.950 . S
C1439 C1438 1.524 . S
C1439 C1440 1.415 . S
C1440 H1416 0.950 . S
C1440 C1435 1.363 . S
C1440 C1439 1.415 . S
C1441 H1417 0.951 . S
C1441 C1442 1.366 . S
C1441 C1443 1.388 . S
C1442 C1441 1.366 . S
C1442 C1446 1.385 . S
C1443 H1418 0.951 . S
C1443 C1441 1.388 . S
C1443 C1444 1.366 . S
C1444 C1443 1.366 . S
C1444 C1445 1.414 . S
C1444 C1447 1.499 . S
C1445 H1419 0.950 . S
C1445 C1444 1.414 . S
C1445 C1446 1.374 . S
C1446 H1420 0.950 . S
C1446 C1442 1.385 . S
C1446 C1445 1.374 . S
C1447 C1444 1.499 . S
C1447 C1448 1.415 . S
C1447 C1449 1.389 . S
C1448 H1421 0.953 . S
C1448 C1434 1.334 1_455 S
C1448 C1447 1.415 . S
C1449 C1433 1.334 1_455 S
C1449 C1447 1.389 . S
C1449 C1450 1.524 . S
C1450 C1449 1.524 . S
C1450 C1451 1.397 . S
C1450 C1455 1.363 . S
C1451 H1422 0.950 . S
C1451 C1450 1.397 . S
C1451 C1452 1.334 . S
C1452 H1423 0.950 . S
C1452 C1451 1.334 . S
C1452 C1453 1.287 . S
C1453 C1452 1.287 . S
C1453 C1454 1.524 . S
C1453 H1456 0.999 . S
C1454 H1424 0.950 . S
C1454 C1453 1.524 . S
C1454 C1455 1.415 . S
C1455 H1425 0.950 . S
C1455 C1450 1.363 . S
C1455 C1454 1.415 . S
H1456 C1453 0.999 . S
H1457 C1438 0.913 . S
H1458 C1476 0.951 . S
H1459 C1478 0.951 . S
H1460 C1480 0.950 . S
H1461 C1481 0.950 . S
H1462 C1483 0.950 . S
H1463 C1486 0.950 . S
H1464 C1487 0.950 . S
H1465 C1489 0.950 . S
H1466 C1490 0.950 . S
H1467 C1491 0.951 . S
H1468 C1493 0.951 . S
H1469 C1495 0.950 . S
H1470 C1496 0.950 . S
H1471 C1498 0.950 . S
H1472 C1501 0.950 . S
H1473 C1502 0.950 . S
H1474 C1504 0.950 . S
H1475 C1505 0.950 . S
C1476 H1458 0.951 . S
C1476 C1477 1.366 . S
C1476 C1478 1.388 . S
C1477 C1476 1.366 . S
C1477 C1481 1.385 . S
C1478 H1459 0.951 . S
C1478 C1476 1.388 . S
C1478 C1479 1.366 . S
C1479 C1478 1.366 . S
C1479 C1480 1.414 . S
C1479 C1482 1.499 . S
C1480 H1460 0.950 . S
C1480 C1479 1.414 . S
C1480 C1481 1.374 . S
C1481 H1461 0.950 . S
C1481 C1477 1.385 . S
C1481 C1480 1.374 . S
C1482 C1479 1.499 . S
C1482 C1483 1.373 . S
C1482 C1484 1.389 . S
C1483 H1462 0.950 . S
C1483 C1482 1.373 . S
C1483 C1499 1.377 1_655 S
C1484 C1482 1.389 . S
C1484 C1485 1.524 . S
C1484 C1498 1.377 1_655 S
C1485 C1484 1.524 . S
C1485 C1486 1.397 . S
C1485 C1490 1.363 . S
C1486 H1463 0.950 . S
C1486 C1485 1.397 . S
C1486 C1487 1.334 . S
C1487 H1464 0.950 . S
C1487 C1486 1.334 . S
C1487 C1488 1.287 . S
C1488 C1487 1.287 . S
C1488 C1489 1.524 . S
C1488 H1507 0.913 . S
C1489 H1465 0.950 . S
C1489 C1488 1.524 . S
C1489 C1490 1.415 . S
C1490 H1466 0.950 . S
C1490 C1485 1.363 . S
C1490 C1489 1.415 . S
C1491 H1467 0.951 . S
C1491 C1492 1.366 . S
C1491 C1493 1.388 . S
C1492 C1491 1.366 . S
C1492 C1496 1.385 . S
C1493 H1468 0.951 . S
C1493 C1491 1.388 . S
C1493 C1494 1.366 . S
C1494 C1493 1.366 . S
C1494 C1495 1.414 . S
C1494 C1497 1.499 . S
C1495 H1469 0.950 . S
C1495 C1494 1.414 . S
C1495 C1496 1.374 . S
C1496 H1470 0.950 . S
C1496 C1492 1.385 . S
C1496 C1495 1.374 . S
C1497 C1494 1.499 . S
C1497 C1498 1.373 . S
C1497 C1499 1.389 . S
C1498 H1471 0.950 . S
C1498 C1484 1.377 1_455 S
C1498 C1497 1.373 . S
C1499 C1483 1.377 1_455 S
C1499 C1497 1.389 . S
C1499 C1500 1.524 . S
C1500 C1499 1.524 . S
C1500 C1501 1.397 . S
C1500 C1505 1.363 . S
C1501 H1472 0.950 . S
C1501 C1500 1.397 . S
C1501 C1502 1.334 . S
C1502 H1473 0.950 . S
C1502 C1501 1.334 . S
C1502 C1503 1.287 . S
C1503 C1502 1.287 . S
C1503 C1504 1.524 . S
C1503 H1506 0.999 . S
C1504 H1474 0.950 . S
C1504 C1503 1.524 . S
C1504 C1505 1.415 . S
C1505 H1475 0.950 . S
C1505 C1500 1.363 . S
C1505 C1504 1.415 . S
H1506 C1503 0.999 . S
H1507 C1488 0.913 . S
H1508 C1526 0.951 . S
H1509 C1528 0.951 . S
H1510 C1530 0.950 . S
H1511 C1531 0.950 . S
H1512 C1533 0.950 . S
H1513 C1536 0.950 . S
H1514 C1537 0.950 . S
H1515 C1539 0.950 . S
H1516 C1540 0.950 . S
H1517 C1541 0.951 . S
H1518 C1543 0.951 . S
H1519 C1545 0.950 . S
H1520 C1546 0.950 . S
H1521 C1548 0.950 . S
H1522 C1551 0.950 . S
H1523 C1552 0.950 . S
H1524 C1554 0.950 . S
H1525 C1555 0.950 . S
C1526 H1508 0.951 . S
C1526 C1527 1.366 . S
C1526 C1528 1.388 . S
C1527 C1526 1.366 . S
C1527 C1531 1.385 . S
C1528 H1509 0.951 . S
C1528 C1526 1.388 . S
C1528 C1529 1.366 . S
C1529 C1528 1.366 . S
C1529 C1530 1.414 . S
C1529 C1532 1.499 . S
C1530 H1510 0.950 . S
C1530 C1529 1.414 . S
C1530 C1531 1.374 . S
C1531 H1511 0.950 . S
C1531 C1527 1.385 . S
C1531 C1530 1.374 . S
C1532 C1529 1.499 . S
C1532 C1533 1.373 . S
C1532 C1534 1.398 . S
C1533 H1512 0.950 . S
C1533 C1532 1.373 . S
C1533 C1549 1.368 1_565 S
C1534 C1532 1.398 . S
C1534 C1535 1.524 1_565 S
C1534 C1548 1.368 1_565 S
C1535 C1534 1.524 1_545 S
C1535 C1536 1.396 1_545 S
C1535 C1540 1.363 . S
C1536 H1513 0.950 . S
C1536 C1535 1.396 1_565 S
C1536 C1537 1.334 . S
C1537 H1514 0.950 . S
C1537 C1536 1.334 . S
C1537 C1538 1.287 . S
C1538 C1537 1.287 . S
C1538 C1539 1.524 1_565 S
C1538 H1557 0.913 . S
C1539 H1515 0.950 . S
C1539 C1538 1.524 1_545 S
C1539 C1540 1.415 . S
C1540 H1516 0.950 . S
C1540 C1535 1.363 . S
C1540 C1539 1.415 . S
C1541 H1517 0.951 . S
C1541 C1542 1.366 . S
C1541 C1543 1.388 . S
C1542 C1541 1.366 . S
C1542 C1546 1.385 . S
C1543 H1518 0.951 . S
C1543 C1541 1.388 . S
C1543 C1544 1.366 . S
C1544 C1543 1.366 . S
C1544 C1545 1.414 . S
C1544 C1547 1.499 . S
C1545 H1519 0.950 . S
C1545 C1544 1.414 . S
C1545 C1546 1.374 . S
C1546 H1520 0.950 . S
C1546 C1542 1.385 . S
C1546 C1545 1.374 . S
C1547 C1544 1.499 . S
C1547 C1548 1.373 . S
C1547 C1549 1.398 . S
C1548 H1521 0.950 . S
C1548 C1534 1.368 1_545 S
C1548 C1547 1.373 . S
C1549 C1533 1.368 1_545 S
C1549 C1547 1.398 . S
C1549 C1550 1.524 1_545 S
C1550 C1549 1.524 1_565 S
C1550 C1551 1.396 1_565 S
C1550 C1555 1.363 . S
C1551 H1522 0.950 . S
C1551 C1550 1.396 1_545 S
C1551 C1552 1.334 . S
C1552 H1523 0.950 . S
C1552 C1551 1.334 . S
C1552 C1553 1.287 . S
C1553 C1552 1.287 . S
C1553 C1554 1.524 1_545 S
C1553 H1556 0.999 . S
C1554 H1524 0.950 . S
C1554 C1553 1.524 1_565 S
C1554 C1555 1.415 . S
C1555 H1525 0.950 . S
C1555 C1550 1.363 . S
C1555 C1554 1.415 . S
H1556 C1553 0.999 . S
H1557 C1538 0.913 . S
H1558 C1576 0.951 . S
H1559 C1578 0.951 . S
H1560 C1580 0.950 . S
H1561 C1581 0.950 . S
H1562 C1583 0.950 . S
H1563 C1586 0.950 . S
H1564 C1587 0.950 . S
H1565 C1589 0.950 . S
H1566 C1590 0.950 . S
H1567 C1591 0.951 . S
H1568 C1593 0.951 . S
H1569 C1595 0.950 . S
H1570 C1596 0.950 . S
H1571 C1598 0.950 . S
H1572 C1601 0.950 . S
H1573 C1602 0.950 . S
H1574 C1604 0.950 . S
H1575 C1605 0.950 . S
C1576 H1558 0.951 . S
C1576 C1577 1.366 . S
C1576 C1578 1.388 . S
C1577 C1576 1.366 . S
C1577 C1581 1.385 . S
C1578 H1559 0.951 . S
C1578 C1576 1.388 . S
C1578 C1579 1.366 . S
C1579 C1578 1.366 . S
C1579 C1580 1.414 . S
C1579 C1582 1.499 . S
C1580 H1560 0.950 . S
C1580 C1579 1.414 . S
C1580 C1581 1.374 . S
C1581 H1561 0.950 . S
C1581 C1577 1.385 . S
C1581 C1580 1.374 . S
C1582 C1579 1.499 . S
C1582 C1583 1.373 1_545 S
C1582 C1584 1.389 . S
C1583 H1562 0.950 . S
C1583 C1582 1.373 1_565 S
C1583 C1599 1.377 . S
C1584 C1582 1.389 . S
C1584 C1585 1.524 . S
C1584 C1598 1.377 . S
C1585 C1584 1.524 . S
C1585 C1586 1.397 . S
C1585 C1590 1.363 . S
C1586 H1563 0.950 . S
C1586 C1585 1.397 . S
C1586 C1587 1.334 . S
C1587 H1564 0.950 . S
C1587 C1586 1.334 . S
C1587 C1588 1.287 . S
C1588 C1587 1.287 . S
C1588 C1589 1.524 . S
C1588 H1607 0.913 . S
C1589 H1565 0.950 . S
C1589 C1588 1.524 . S
C1589 C1590 1.415 . S
C1590 H1566 0.950 . S
C1590 C1585 1.363 . S
C1590 C1589 1.415 . S
C1591 H1567 0.951 . S
C1591 C1592 1.366 . S
C1591 C1593 1.388 . S
C1592 C1591 1.366 . S
C1592 C1596 1.385 . S
C1593 H1568 0.951 . S
C1593 C1591 1.388 . S
C1593 C1594 1.366 . S
C1594 C1593 1.366 . S
C1594 C1595 1.414 . S
C1594 C1597 1.499 . S
C1595 H1569 0.950 . S
C1595 C1594 1.414 . S
C1595 C1596 1.374 . S
C1596 H1570 0.950 . S
C1596 C1592 1.385 . S
C1596 C1595 1.374 . S
C1597 C1594 1.499 . S
C1597 C1598 1.373 1_565 S
C1597 C1599 1.389 . S
C1598 H1571 0.950 . S
C1598 C1584 1.377 . S
C1598 C1597 1.373 1_545 S
C1599 C1583 1.377 . S
C1599 C1597 1.389 . S
C1599 C1600 1.524 . S
C1600 C1599 1.524 . S
C1600 C1601 1.397 . S
C1600 C1605 1.363 . S
C1601 H1572 0.950 . S
C1601 C1600 1.397 . S
C1601 C1602 1.334 . S
C1602 H1573 0.950 . S
C1602 C1601 1.334 . S
C1602 C1603 1.287 . S
C1603 C1602 1.287 . S
C1603 C1604 1.524 . S
C1603 H1606 0.999 . S
C1604 H1574 0.950 . S
C1604 C1603 1.524 . S
C1604 C1605 1.415 . S
C1605 H1575 0.950 . S
C1605 C1600 1.363 . S
C1605 C1604 1.415 . S
H1606 C1603 0.999 . S
H1607 C1588 0.913 . S
H1608 C1626 0.951 . S
H1609 C1628 0.951 . S
H1610 C1630 0.950 . S
H1611 C1631 0.950 . S
H1612 C1633 0.950 . S
H1613 C1636 0.950 . S
H1614 C1637 0.950 . S
H1615 C1639 0.950 . S
H1616 C1640 0.950 . S
H1617 C1641 0.951 . S
H1618 C1643 0.951 . S
H1619 C1645 0.950 . S
H1620 C1646 0.950 . S
H1621 C1648 0.950 . S
H1622 C1651 0.950 . S
H1623 C1652 0.950 . S
H1624 C1654 0.950 . S
H1625 C1655 0.950 . S
C1626 H1608 0.951 . S
C1626 C1627 1.366 . S
C1626 C1628 1.388 . S
C1627 C1626 1.366 . S
C1627 C1631 1.385 . S
C1628 H1609 0.951 . S
C1628 C1626 1.388 . S
C1628 C1629 1.366 . S
C1629 C1628 1.366 . S
C1629 C1630 1.414 . S
C1629 C1632 1.499 . S
C1630 H1610 0.950 . S
C1630 C1629 1.414 . S
C1630 C1631 1.374 . S
C1631 H1611 0.950 . S
C1631 C1627 1.385 . S
C1631 C1630 1.374 . S
C1632 C1629 1.499 . S
C1632 C1633 1.373 1_455 S
C1632 C1634 1.376 1_545 S
C1633 H1612 0.950 . S
C1633 C1632 1.373 1_655 S
C1633 C1649 1.390 . S
C1634 C1632 1.376 1_565 S
C1634 C1635 1.526 . S
C1634 C1648 1.390 . S
C1635 C1634 1.526 . S
C1635 C1636 1.397 1_565 S
C1635 C1640 1.363 . S
C1636 H1613 0.950 . S
C1636 C1635 1.397 1_545 S
C1636 C1637 1.334 . S
C1637 H1614 0.950 . S
C1637 C1636 1.334 . S
C1637 C1638 1.287 1_545 S
C1638 C1637 1.287 1_565 S
C1638 C1639 1.524 . S
C1638 H1657 0.913 . S
C1639 H1615 0.950 . S
C1639 C1638 1.524 . S
C1639 C1640 1.415 . S
C1640 H1616 0.950 . S
C1640 C1635 1.363 . S
C1640 C1639 1.415 . S
C1641 H1617 0.951 . S
C1641 C1642 1.366 . S
C1641 C1643 1.388 . S
C1642 C1641 1.366 . S
C1642 C1646 1.385 . S
C1643 H1618 0.951 . S
C1643 C1641 1.388 . S
C1643 C1644 1.366 . S
C1644 C1643 1.366 . S
C1644 C1645 1.414 . S
C1644 C1647 1.499 . S
C1645 H1619 0.950 . S
C1645 C1644 1.414 . S
C1645 C1646 1.374 . S
C1646 H1620 0.950 . S
C1646 C1642 1.385 . S
C1646 C1645 1.374 . S
C1647 C1644 1.499 . S
C1647 C1648 1.373 1_655 S
C1647 C1649 1.376 1_565 S
C1648 H1621 0.950 . S
C1648 C1634 1.390 . S
C1648 C1647 1.373 1_455 S
C1649 C1633 1.390 . S
C1649 C1647 1.376 1_545 S
C1649 C1650 1.526 . S
C1650 C1649 1.526 . S
C1650 C1651 1.397 1_545 S
C1650 C1655 1.363 . S
C1651 H1622 0.950 . S
C1651 C1650 1.397 1_565 S
C1651 C1652 1.334 . S
C1652 H1623 0.950 . S
C1652 C1651 1.334 . S
C1652 C1653 1.287 1_565 S
C1653 C1652 1.287 1_545 S
C1653 C1654 1.524 . S
C1653 H1656 0.999 . S
C1654 H1624 0.950 . S
C1654 C1653 1.524 . S
C1654 C1655 1.415 . S
C1655 H1625 0.950 . S
C1655 C1650 1.363 . S
C1655 C1654 1.415 . S
H1656 C1653 0.999 . S
H1657 C1638 0.913 . S
H1658 C1676 0.951 . S
H1659 C1678 0.951 . S
H1660 C1680 0.950 . S
H1661 C1681 0.950 . S
H1662 C1683 0.950 . S
H1663 C1686 0.950 . S
H1664 C1687 0.938 1_565 S
H1665 C1689 0.950 . S
H1666 C1690 0.950 . S
H1667 C1691 0.951 . S
H1668 C1693 0.951 . S
H1669 C1695 0.950 . S
H1670 C1696 0.950 . S
H1671 C1698 0.950 . S
H1672 C1701 0.950 . S
H1673 C1702 0.938 1_545 S
H1674 C1704 0.950 . S
H1675 C1705 0.950 . S
C1676 H1658 0.951 . S
C1676 C1677 1.366 . S
C1676 C1678 1.388 . S
C1677 C1676 1.366 . S
C1677 C1681 1.385 . S
C1678 H1659 0.951 . S
C1678 C1676 1.388 . S
C1678 C1679 1.366 . S
C1679 C1678 1.366 . S
C1679 C1680 1.414 . S
C1679 C1682 1.499 . S
C1680 H1660 0.950 . S
C1680 C1679 1.414 . S
C1680 C1681 1.374 . S
C1681 H1661 0.950 . S
C1681 C1677 1.385 . S
C1681 C1680 1.374 . S
C1682 C1679 1.499 . S
C1682 C1683 1.373 1_455 S
C1682 C1684 1.389 1_565 S
C1683 H1662 0.950 . S
C1683 C1682 1.373 1_655 S
C1683 C1699 1.377 . S
C1684 C1682 1.389 1_545 S
C1684 C1685 1.524 . S
C1684 C1698 1.377 . S
C1685 C1684 1.524 . S
C1685 C1686 1.397 1_545 S
C1685 C1690 1.363 . S
C1686 H1663 0.950 . S
C1686 C1685 1.397 1_565 S
C1686 C1687 1.330 1_565 S
C1687 H1664 0.938 1_545 S
C1687 C1686 1.330 1_545 S
C1687 C1688 1.303 . S
C1688 C1687 1.303 . S
C1688 C1689 1.524 . S
C1688 H1707 0.913 . S
C1689 H1665 0.950 . S
C1689 C1688 1.524 . S
C1689 C1690 1.415 . S
C1690 H1666 0.950 . S
C1690 C1685 1.363 . S
C1690 C1689 1.415 . S
C1691 H1667 0.951 . S
C1691 C1692 1.366 . S
C1691 C1693 1.388 . S
C1692 C1691 1.366 . S
C1692 C1696 1.385 . S
C1693 H1668 0.951 . S
C1693 C1691 1.388 . S
C1693 C1694 1.366 . S
C1694 C1693 1.366 . S
C1694 C1695 1.414 . S
C1694 C1697 1.499 . S
C1695 H1669 0.950 . S
C1695 C1694 1.414 . S
C1695 C1696 1.374 . S
C1696 H1670 0.950 . S
C1696 C1692 1.385 . S
C1696 C1695 1.374 . S
C1697 C1694 1.499 . S
C1697 C1698 1.373 1_655 S
C1697 C1699 1.389 1_545 S
C1698 H1671 0.950 . S
C1698 C1684 1.377 . S
C1698 C1697 1.373 1_455 S
C1699 C1683 1.377 . S
C1699 C1697 1.389 1_565 S
C1699 C1700 1.524 . S
C1700 C1699 1.524 . S
C1700 C1701 1.397 1_565 S
C1700 C1705 1.363 . S
C1701 H1672 0.950 . S
C1701 C1700 1.397 1_545 S
C1701 C1702 1.330 1_545 S
C1702 H1673 0.938 1_565 S
C1702 C1701 1.330 1_565 S
C1702 C1703 1.303 . S
C1703 C1702 1.303 . S
C1703 C1704 1.524 . S
C1703 H1706 0.999 . S
C1704 H1674 0.950 . S
C1704 C1703 1.524 . S
C1704 C1705 1.415 . S
C1705 H1675 0.950 . S
C1705 C1700 1.363 . S
C1705 C1704 1.415 . S
H1706 C1703 0.999 . S
H1707 C1688 0.913 . S
H1708 C1726 0.951 . S
H1709 C1728 0.951 . S
H1710 C1730 0.950 . S
H1711 C1731 0.950 . S
H1712 C1733 0.950 . S
H1713 C1736 0.950 . S
H1714 C1737 0.950 . S
H1715 C1739 0.950 . S
H1716 C1740 0.950 . S
H1717 C1741 0.951 . S
H1718 C1743 0.951 . S
H1719 C1745 0.950 . S
H1720 C1746 0.950 . S
H1721 C1748 0.950 . S
H1722 C1751 0.950 . S
H1723 C1752 0.950 . S
H1724 C1754 0.950 . S
H1725 C1755 0.950 . S
C1726 H1708 0.951 . S
C1726 C1727 1.366 . S
C1726 C1728 1.388 . S
C1727 C1726 1.366 . S
C1727 C1731 1.385 . S
C1728 H1709 0.951 . S
C1728 C1726 1.388 . S
C1728 C1729 1.366 . S
C1729 C1728 1.366 . S
C1729 C1730 1.414 . S
C1729 C1732 1.499 . S
C1730 H1710 0.950 . S
C1730 C1729 1.414 . S
C1730 C1731 1.374 . S
C1731 H1711 0.950 . S
C1731 C1727 1.385 . S
C1731 C1730 1.374 . S
C1732 C1729 1.499 . S
C1732 C1733 1.373 1_554 S
C1732 C1734 1.389 1_545 S
C1733 H1712 0.950 . S
C1733 C1732 1.373 1_556 S
C1733 C1749 1.377 . S
C1734 C1732 1.389 1_565 S
C1734 C1735 1.524 . S
C1734 C1748 1.377 . S
C1735 C1734 1.524 . S
C1735 C1736 1.397 . S
C1735 C1740 1.363 . S
C1736 H1713 0.950 . S
C1736 C1735 1.397 . S
C1736 C1737 1.334 . S
C1737 H1714 0.950 . S
C1737 C1736 1.334 . S
C1737 C1738 1.287 . S
C1738 C1737 1.287 . S
C1738 C1739 1.524 . S
C1738 H1757 0.913 . S
C1739 H1715 0.950 . S
C1739 C1738 1.524 . S
C1739 C1740 1.415 . S
C1740 H1716 0.950 . S
C1740 C1735 1.363 . S
C1740 C1739 1.415 . S
C1741 H1717 0.951 . S
C1741 C1742 1.366 . S
C1741 C1743 1.388 . S
C1742 C1741 1.366 . S
C1742 C1746 1.385 . S
C1743 H1718 0.951 . S
C1743 C1741 1.388 . S
C1743 C1744 1.366 . S
C1744 C1743 1.366 . S
C1744 C1745 1.414 . S
C1744 C1747 1.499 . S
C1745 H1719 0.950 . S
C1745 C1744 1.414 . S
C1745 C1746 1.374 . S
C1746 H1720 0.950 . S
C1746 C1742 1.385 . S
C1746 C1745 1.374 . S
C1747 C1744 1.499 . S
C1747 C1748 1.373 1_556 S
C1747 C1749 1.389 1_565 S
C1748 H1721 0.950 . S
C1748 C1734 1.377 . S
C1748 C1747 1.373 1_554 S
C1749 C1733 1.377 . S
C1749 C1747 1.389 1_545 S
C1749 C1750 1.524 . S
C1750 C1749 1.524 . S
C1750 C1751 1.397 . S
C1750 C1755 1.363 . S
C1751 H1722 0.950 . S
C1751 C1750 1.397 . S
C1751 C1752 1.334 . S
C1752 H1723 0.950 . S
C1752 C1751 1.334 . S
C1752 C1753 1.287 . S
C1753 C1752 1.287 . S
C1753 C1754 1.524 . S
C1753 H1756 0.999 . S
C1754 H1724 0.950 . S
C1754 C1753 1.524 . S
C1754 C1755 1.415 . S
C1755 H1725 0.950 . S
C1755 C1750 1.363 . S
C1755 C1754 1.415 . S
H1756 C1753 0.999 . S
H1757 C1738 0.913 . S
H1758 C1776 0.951 . S
H1759 C1778 0.951 . S
H1760 C1780 0.950 . S
H1761 C1781 0.950 . S
H1762 C1783 0.952 . S
H1763 C1786 0.947 1_556 S
H1764 C1787 0.950 1_556 S
H1765 C1789 0.950 . S
H1766 C1790 0.950 . S
H1767 C1791 0.951 . S
H1768 C1793 0.951 . S
H1769 C1795 0.950 . S
H1770 C1796 0.950 . S
H1771 C1798 0.952 . S
H1772 C1801 0.947 1_554 S
H1773 C1802 0.950 1_554 S
H1774 C1804 0.950 . S
H1775 C1805 0.950 . S
C1776 H1758 0.951 . S
C1776 C1777 1.366 . S
C1776 C1778 1.388 . S
C1777 C1776 1.366 . S
C1777 C1781 1.385 . S
C1778 H1759 0.951 . S
C1778 C1776 1.388 . S
C1778 C1779 1.366 . S
C1779 C1778 1.366 . S
C1779 C1780 1.414 . S
C1779 C1782 1.499 . S
C1780 H1760 0.950 . S
C1780 C1779 1.414 . S
C1780 C1781 1.374 . S
C1781 H1761 0.950 . S
C1781 C1777 1.385 . S
C1781 C1780 1.374 . S
C1782 C1779 1.499 . S
C1782 C1783 1.409 . S
C1782 C1784 1.389 1_556 S
C1783 H1762 0.952 . S
C1783 C1782 1.409 . S
C1783 C1799 1.341 1_455 S
C1784 C1782 1.389 1_554 S
C1784 C1785 1.524 . S
C1784 C1798 1.341 1_455 S
C1785 C1784 1.524 . S
C1785 C1786 1.398 . S
C1785 C1790 1.363 . S
C1786 H1763 0.947 1_554 S
C1786 C1785 1.398 . S
C1786 C1787 1.335 . S
C1787 H1764 0.950 1_554 S
C1787 C1786 1.335 . S
C1787 C1788 1.287 . S
C1788 C1787 1.287 . S
C1788 C1789 1.524 . S
C1788 H1807 0.913 . S
C1789 H1765 0.950 . S
C1789 C1788 1.524 . S
C1789 C1790 1.415 . S
C1790 H1766 0.950 . S
C1790 C1785 1.363 . S
C1790 C1789 1.415 . S
C1791 H1767 0.951 . S
C1791 C1792 1.366 . S
C1791 C1793 1.388 . S
C1792 C1791 1.366 . S
C1792 C1796 1.385 . S
C1793 H1768 0.951 . S
C1793 C1791 1.388 . S
C1793 C1794 1.366 . S
C1794 C1793 1.366 . S
C1794 C1795 1.414 . S
C1794 C1797 1.499 . S
C1795 H1769 0.950 . S
C1795 C1794 1.414 . S
C1795 C1796 1.374 . S
C1796 H1770 0.950 . S
C1796 C1792 1.385 . S
C1796 C1795 1.374 . S
C1797 C1794 1.499 . S
C1797 C1798 1.409 . S
C1797 C1799 1.389 1_554 S
C1798 H1771 0.952 . S
C1798 C1784 1.341 1_655 S
C1798 C1797 1.409 . S
C1799 C1783 1.341 1_655 S
C1799 C1797 1.389 1_556 S
C1799 C1800 1.524 . S
C1800 C1799 1.524 . S
C1800 C1801 1.398 . S
C1800 C1805 1.363 . S
C1801 H1772 0.947 1_556 S
C1801 C1800 1.398 . S
C1801 C1802 1.335 . S
C1802 H1773 0.950 1_556 S
C1802 C1801 1.335 . S
C1802 C1803 1.287 . S
C1803 C1802 1.287 . S
C1803 C1804 1.524 . S
C1803 H1806 0.999 . S
C1804 H1774 0.950 . S
C1804 C1803 1.524 . S
C1804 C1805 1.415 . S
C1805 H1775 0.950 . S
C1805 C1800 1.363 . S
C1805 C1804 1.415 . S
H1806 C1803 0.999 . S
H1807 C1788 0.913 . S
H1808 C1826 0.951 . S
H1809 C1828 0.951 . S
H1810 C1830 0.950 . S
H1811 C1831 0.950 . S
H1812 C1833 0.950 . S
H1813 C1836 0.950 . S
H1814 C1837 0.950 . S
H1815 C1839 0.950 . S
H1816 C1840 0.950 . S
H1817 C1841 0.951 . S
H1818 C1843 0.951 . S
H1819 C1845 0.950 . S
H1820 C1846 0.950 . S
H1821 C1848 0.950 . S
H1822 C1851 0.950 . S
H1823 C1852 0.950 . S
H1824 C1854 0.950 . S
H1825 C1855 0.950 . S
C1826 H1808 0.951 . S
C1826 C1827 1.366 . S
C1826 C1828 1.388 . S
C1827 C1826 1.366 . S
C1827 C1831 1.385 . S
C1828 H1809 0.951 . S
C1828 C1826 1.388 . S
C1828 C1829 1.366 . S
C1829 C1828 1.366 . S
C1829 C1830 1.414 . S
C1829 C1832 1.499 . S
C1830 H1810 0.950 . S
C1830 C1829 1.414 . S
C1830 C1831 1.374 . S
C1831 H1811 0.950 . S
C1831 C1827 1.385 . S
C1831 C1830 1.374 . S
C1832 C1829 1.499 . S
C1832 C1833 1.373 1_545 S
C1832 C1834 1.389 1_556 S
C1833 H1812 0.950 . S
C1833 C1832 1.373 1_565 S
C1833 C1849 1.377 . S
C1834 C1832 1.389 1_554 S
C1834 C1835 1.524 . S
C1834 C1848 1.377 . S
C1835 C1834 1.524 . S
C1835 C1836 1.397 1_554 S
C1835 C1840 1.363 . S
C1836 H1813 0.950 . S
C1836 C1835 1.397 1_556 S
C1836 C1837 1.334 . S
C1837 H1814 0.950 . S
C1837 C1836 1.334 . S
C1837 C1838 1.287 1_556 S
C1838 C1837 1.287 1_554 S
C1838 C1839 1.524 . S
C1838 H1857 0.913 . S
C1839 H1815 0.950 . S
C1839 C1838 1.524 . S
C1839 C1840 1.415 . S
C1840 H1816 0.950 . S
C1840 C1835 1.363 . S
C1840 C1839 1.415 . S
C1841 H1817 0.951 . S
C1841 C1842 1.366 . S
C1841 C1843 1.388 . S
C1842 C1841 1.366 . S
C1842 C1846 1.385 . S
C1843 H1818 0.951 . S
C1843 C1841 1.388 . S
C1843 C1844 1.366 . S
C1844 C1843 1.366 . S
C1844 C1845 1.414 . S
C1844 C1847 1.499 . S
C1845 H1819 0.950 . S
C1845 C1844 1.414 . S
C1845 C1846 1.374 . S
C1846 H1820 0.950 . S
C1846 C1842 1.385 . S
C1846 C1845 1.374 . S
C1847 C1844 1.499 . S
C1847 C1848 1.373 1_565 S
C1847 C1849 1.389 1_554 S
C1848 H1821 0.950 . S
C1848 C1834 1.377 . S
C1848 C1847 1.373 1_545 S
C1849 C1833 1.377 . S
C1849 C1847 1.389 1_556 S
C1849 C1850 1.524 . S
C1850 C1849 1.524 . S
C1850 C1851 1.397 1_556 S
C1850 C1855 1.363 . S
C1851 H1822 0.950 . S
C1851 C1850 1.397 1_554 S
C1851 C1852 1.334 . S
C1852 H1823 0.950 . S
C1852 C1851 1.334 . S
C1852 C1853 1.287 1_554 S
C1853 C1852 1.287 1_556 S
C1853 C1854 1.524 . S
C1853 H1856 0.999 . S
C1854 H1824 0.950 . S
C1854 C1853 1.524 . S
C1854 C1855 1.415 . S
C1855 H1825 0.950 . S
C1855 C1850 1.363 . S
C1855 C1854 1.415 . S
H1856 C1853 0.999 . S
H1857 C1838 0.913 . S
H1858 C1876 0.951 . S
H1859 C1878 0.951 . S
H1860 C1880 0.950 . S
H1861 C1881 0.950 . S
H1862 C1883 0.950 . S
H1863 C1886 0.950 . S
H1864 C1887 0.950 . S
H1865 C1889 0.950 . S
H1866 C1890 0.950 1_455 S
H1867 C1891 0.951 . S
H1868 C1893 0.951 . S
H1869 C1895 0.950 . S
H1870 C1896 0.950 . S
H1871 C1898 0.950 . S
H1872 C1901 0.950 . S
H1873 C1902 0.950 . S
H1874 C1904 0.950 . S
H1875 C1905 0.950 1_655 S
C1876 H1858 0.951 . S
C1876 C1877 1.366 . S
C1876 C1878 1.388 . S
C1877 C1876 1.366 . S
C1877 C1881 1.385 . S
C1878 H1859 0.951 . S
C1878 C1876 1.388 . S
C1878 C1879 1.366 . S
C1879 C1878 1.366 . S
C1879 C1880 1.414 . S
C1879 C1882 1.499 . S
C1880 H1860 0.950 . S
C1880 C1879 1.414 . S
C1880 C1881 1.374 . S
C1881 H1861 0.950 . S
C1881 C1877 1.385 . S
C1881 C1880 1.374 . S
C1882 C1879 1.499 . S
C1882 C1883 1.373 . S
C1882 C1884 1.389 . S
C1883 H1862 0.950 . S
C1883 C1882 1.373 . S
C1883 C1899 1.377 1_656 S
C1884 C1882 1.389 . S
C1884 C1885 1.524 . S
C1884 C1898 1.377 1_656 S
C1885 C1884 1.524 . S
C1885 C1886 1.397 1_556 S
C1885 C1890 1.363 . S
C1886 H1863 0.950 . S
C1886 C1885 1.397 1_554 S
C1886 C1887 1.334 . S
C1887 H1864 0.950 . S
C1887 C1886 1.334 . S
C1887 C1888 1.287 1_554 S
C1888 C1887 1.287 1_556 S
C1888 C1889 1.524 . S
C1888 H1907 0.913 . S
C1889 H1865 0.950 . S
C1889 C1888 1.524 . S
C1889 C1890 1.415 . S
C1890 H1866 0.950 1_655 S
C1890 C1885 1.363 . S
C1890 C1889 1.415 . S
C1891 H1867 0.951 . S
C1891 C1892 1.366 . S
C1891 C1893 1.388 . S
C1892 C1891 1.366 . S
C1892 C1896 1.385 . S
C1893 H1868 0.951 . S
C1893 C1891 1.388 . S
C1893 C1894 1.366 . S
C1894 C1893 1.366 . S
C1894 C1895 1.414 . S
C1894 C1897 1.499 . S
C1895 H1869 0.950 . S
C1895 C1894 1.414 . S
C1895 C1896 1.374 . S
C1896 H1870 0.950 . S
C1896 C1892 1.385 . S
C1896 C1895 1.374 . S
C1897 C1894 1.499 . S
C1897 C1898 1.373 . S
C1897 C1899 1.389 . S
C1898 H1871 0.950 . S
C1898 C1884 1.377 1_454 S
C1898 C1897 1.373 . S
C1899 C1883 1.377 1_454 S
C1899 C1897 1.389 . S
C1899 C1900 1.524 . S
C1900 C1899 1.524 . S
C1900 C1901 1.397 1_554 S
C1900 C1905 1.363 . S
C1901 H1872 0.950 . S
C1901 C1900 1.397 1_556 S
C1901 C1902 1.334 . S
C1902 H1873 0.950 . S
C1902 C1901 1.334 . S
C1902 C1903 1.287 1_556 S
C1903 C1902 1.287 1_554 S
C1903 C1904 1.524 . S
C1903 H1906 0.999 . S
C1904 H1874 0.950 . S
C1904 C1903 1.524 . S
C1904 C1905 1.415 . S
C1905 H1875 0.950 1_455 S
C1905 C1900 1.363 . S
C1905 C1904 1.415 . S
H1906 C1903 0.999 . S
H1907 C1888 0.913 . S
C427 C190 0.937 . S
C442 C9 0.905 . S
C477 C54 0.937 . S
C492 C213 0.904 . S
C527 C77 0.906 . S
C542 C258 0.936 . S
C577 C145 0.905 . S
C592 C122 0.936 . S
C627 C394 0.937 . S
C642 C43 0.906 . S
C677 C88 0.936 . S
C692 C281 0.906 . S
C727 C111 0.905 . S
C742 C326 0.936 . S
C777 C20 0.936 . S
C792 C349 0.906 . S
C827 C224 0.937 . S
C842 C383 0.905 . S
C877 C179 0.905 . S
C892 C360 0.937 . S
C927 C247 0.906 . S
C942 C292 0.936 . S
C977 C156 0.937 . S
C992 C315 0.905 . S
C1027 C39 0.245 . S
C1042 C5 0.245 . S
C1077 C70 0.719 . S
C1092 C36 0.716 . S
C1127 C107 0.245 . S
C1142 C73 0.243 . S
C1177 C104 0.716 . S
C1192 C2 0.719 . S
C1227 C345 0.243 . S
C1242 C141 0.246 . S
C1277 C376 0.718 . S
C1292 C172 0.718 . S
C1327 C209 0.245 . S
C1342 C277 0.243 . S
C1377 C240 0.716 . S
C1392 C308 0.719 . S
C1427 C311 0.245 . S
C1442 C379 0.243 . S
C1477 C243 0.246 . S
C1492 C175 0.243 . S
C1527 C206 0.719 . S
C1542 C138 0.716 . S
C1577 C342 0.717 . S
C1592 C274 0.717 . S
C1627 C33 1.136 . S
C1642 C101 1.135 . S
C1677 C67 1.136 . S
C1692 C135 1.135 . S
C1727 C169 1.135 . S
C1742 C305 1.135 . S
C1777 C203 1.135 . S
C1792 C339 1.135 . S
C1827 C373 1.136 . S
C1842 C237 1.135 . S
C1877 C271 1.135 . S
C1892 C407 1.135 . S
