# Generated by pormake.
# Topology fnu, (5)-cn, num edge types: 1
# Building blocks:
#     Node 0, Type 0, BuildingBlock: XOMCOT_clean_sbu_1, # of connection points: 5
#     Node 1, Type 0, BuildingBlock: XOMCOT_clean_sbu_1, # of connection points: 5
#     Node 2, Type 0, BuildingBlock: XOMCOT_clean_sbu_1, # of connection points: 5
#     Node 3, Type 0, BuildingBlock: XOMCOT_clean_sbu_1, # of connection points: 5
#     Node 4, Type 0, BuildingBlock: XOMCOT_clean_sbu_1, # of connection points: 5
#     Node 5, Type 0, BuildingBlock: XOMCOT_clean_sbu_1, # of connection points: 5
#     Edge 6, Type (0, 0), BuildingBlock: KIFKEQ_clean_linker_1, # of connection points: 2
#     Edge 7, Type (0, 0), BuildingBlock: KIFKEQ_clean_linker_1, # of connection points: 2
#     Edge 8, Type (0, 0), BuildingBlock: KIFKEQ_clean_linker_1, # of connection points: 2
#     Edge 9, Type (0, 0), BuildingBlock: KIFKEQ_clean_linker_1, # of connection points: 2
#     Edge 10, Type (0, 0), BuildingBlock: KIFKEQ_clean_linker_1, # of connection points: 2
#     Edge 11, Type (0, 0), BuildingBlock: KIFKEQ_clean_linker_1, # of connection points: 2
#     Edge 12, Type (0, 0), BuildingBlock: KIFKEQ_clean_linker_1, # of connection points: 2
#     Edge 13, Type (0, 0), BuildingBlock: KIFKEQ_clean_linker_1, # of connection points: 2
#     Edge 14, Type (0, 0), BuildingBlock: KIFKEQ_clean_linker_1, # of connection points: 2
#     Edge 15, Type (0, 0), BuildingBlock: KIFKEQ_clean_linker_1, # of connection points: 2
#     Edge 16, Type (0, 0), BuildingBlock: KIFKEQ_clean_linker_1, # of connection points: 2
#     Edge 17, Type (0, 0), BuildingBlock: KIFKEQ_clean_linker_1, # of connection points: 2
#     Edge 18, Type (0, 0), BuildingBlock: KIFKEQ_clean_linker_1, # of connection points: 2
#     Edge 19, Type (0, 0), BuildingBlock: KIFKEQ_clean_linker_1, # of connection points: 2
#     Edge 20, Type (0, 0), BuildingBlock: KIFKEQ_clean_linker_1, # of connection points: 2
# Relax obj value: 0.195
# Max RMSD: 0.141
# Mean RMSD: 0.141
data_MOF--net-fnu--node1-XOMCOT_clean_sbu_1--edge1-KIFKEQ_clean_linker_1
_symmetry_space_group_name_H-M    P1
_symmetry_Int_Tables_number       1
_symmetry_cell_setting            triclinic
loop_
_symmetry_equiv_pos_as_xyz
'x, y, z'
_cell_length_a     26.644078
_cell_length_b     27.785873
_cell_length_c     33.902219
_cell_angle_alpha  89.828261
_cell_angle_beta   95.712607
_cell_angle_gamma 121.45459
loop_
_atom_site_label
_atom_site_type_symbol
_atom_site_fract_x
_atom_site_fract_y
_atom_site_fract_z
_atom_type_partial_charge
C0 C 0.13642 0.15339 0.31059 0.0
C1 C 0.14228 0.15702 0.35142 0.0
N2 N 0.10418 0.10582 0.36374 0.0
N3 N 0.09526 0.0998 0.29701 0.0
C4 C 0.07612 0.07192 0.33046 0.0
H5 H 0.16127 0.18793 0.29211 0.0
Co6 Co 0.07693 0.072 0.24326 0.0
C7 C 1.0146 0.1363 0.24815 0.0
O8 O 1.01224 0.12998 0.28646 0.0
N9 N 1.06017 0.04429 0.19105 0.0
C10 C 1.02064 1.01526 0.12868 0.0
C11 C 1.01562 0.0361 0.16371 0.0
C12 C 0.0912 1.0276 0.17218 0.0
N13 N 0.06845 1.01023 0.13404 0.0
O14 O 0.1528 0.13444 0.23038 0.0
H15 H 0.98211 0.04555 0.1685 0.0
H16 H 0.13036 1.02901 0.18591 0.0
O17 O 1.03889 0.11568 0.22903 0.0
C18 C 0.19512 0.12537 0.23719 0.0
O19 O 0.18495 0.08059 0.25651 0.0
N20 N 1.00555 1.007 0.25364 0.0
C21 C 0.91404 0.89451 0.23763 0.0
C22 C 0.90296 0.93855 0.23325 0.0
C23 C 0.94937 0.99475 0.24164 0.0
C24 C 1.01569 0.96452 0.26171 0.0
C25 C 0.97051 0.90798 0.25425 0.0
H26 H 0.94073 1.0276 0.23406 0.0
H27 H 1.06061 0.97474 0.26998 0.0
H28 H 1.04343 1.02737 0.33081 0.0
H29 H 0.17205 0.19436 0.37063 0.0
H30 H 0.99314 1.00742 0.10085 0.0
H31 H 0.85986 0.92993 0.22072 0.0
H32 H 0.98137 0.87557 0.25777 0.0
C33 C 1.02741 0.05787 0.70928 0.0
C34 C 1.01489 0.05297 0.66861 0.0
N35 N 1.05623 0.04766 0.65288 0.0
N36 N 0.07526 0.05358 0.71936 0.0
C37 C 0.09265 0.04886 0.68411 0.0
H38 H 1.0046 0.0667 0.73009 0.0
Co39 Co 0.11734 0.06728 0.77014 0.0
C40 C 0.15932 0.17997 0.76212 0.0
O41 O 0.19125 0.17306 0.73819 0.0
N42 N 0.16155 0.08327 0.81893 0.0
C43 C 0.23975 0.11916 0.8646 0.0
C44 C 0.21938 0.12365 0.82667 0.0
C45 C 0.14763 0.05463 0.85218 0.0
N46 N 0.19456 0.07515 0.88017 0.0
O47 O 1.04242 1.02818 0.79574 0.0
H48 H 0.24545 0.15336 0.80564 0.0
H49 H 0.10411 1.01894 0.85577 0.0
O50 O 0.1187 0.1365 0.7769 0.0
C51 C 0.99007 0.98614 0.78484 0.0
O52 O 0.97967 0.95691 0.75142 0.0
N53 N 0.12239 1.00202 0.76484 0.0
C54 C 0.17661 0.94034 0.78496 0.0
C55 C 0.20175 0.98531 0.75988 0.0
C56 C 0.17409 1.01576 0.75045 0.0
C57 C 0.09435 0.95485 0.78607 0.0
C58 C 0.12072 0.9235 0.79632 0.0
H59 H 0.19795 0.0548 0.73576 0.0
H60 H 1.05541 0.94454 0.79962 0.0
H61 H 0.13271 0.04896 0.68116 0.0
H62 H 0.98052 0.05682 0.65182 0.0
H63 H 0.28439 0.14522 0.87926 0.0
H64 H 0.24515 1.00036 0.75079 0.0
H65 H 0.09948 0.88881 0.81552 0.0
C66 C 0.83017 0.46013 0.65149 0.0
C67 C 0.83558 0.46856 0.69209 0.0
N68 N 0.78903 0.42361 0.70571 0.0
N69 N 0.78145 0.40918 0.63983 0.0
C70 C 0.75687 0.38867 0.67362 0.0
H71 H 0.85796 0.49089 0.6316 0.0
Co72 Co 0.7446 0.38017 0.58844 0.0
C73 C 0.70204 0.45065 0.59055 0.0
O74 O 0.66704 0.41125 0.61316 0.0
N75 N 0.70605 0.35136 0.53871 0.0
C76 C 0.63491 0.30649 0.48891 0.0
C77 C 0.64811 0.32989 0.52707 0.0
C78 C 0.72706 0.34042 0.50778 0.0
N79 N 0.68488 0.31314 0.47707 0.0
O80 O 0.8223 0.41534 0.56701 0.0
H81 H 0.61741 0.33041 0.54542 0.0
H82 H 0.77211 0.35051 0.50817 0.0
O83 O 0.74416 0.44784 0.5783 0.0
C84 C 0.87404 0.4251 0.57909 0.0
O85 O 0.88315 0.40698 0.61333 0.0
N86 N 0.7382 0.30991 0.59705 0.0
C87 C 0.6808 0.19291 0.57964 0.0
C88 C 0.65622 0.2155 0.60275 0.0
C89 C 0.68498 0.27387 0.61036 0.0
C90 C 0.76618 0.28851 0.5783 0.0
C91 C 0.7381 0.23016 0.56922 0.0
H92 H 0.66076 0.29058 0.62244 0.0
H93 H 0.80655 0.31596 0.56561 0.0
H94 H 0.7143 0.35054 0.6747 0.0
H95 H 0.86845 0.50645 0.70978 0.0
H96 H 0.59227 0.28712 0.47112 0.0
H97 H 0.61284 0.18888 0.61239 0.0
H98 H 0.75906 0.21537 0.55102 0.0
C99 C 0.61941 0.39719 0.02868 0.0
C100 C 0.61705 0.39591 0.9879 0.0
N101 N 0.665 0.39633 0.97825 0.0
N102 N 0.66769 0.39657 0.04445 0.0
C103 C 0.69511 0.39725 0.01287 0.0
H104 H 0.58874 0.4 0.04575 0.0
Co105 Co 0.69693 0.40373 0.09777 0.0
C106 C 0.73217 0.51604 0.0963 0.0
O107 O 0.77178 0.51707 0.07553 0.0
N108 N 0.72781 0.41244 0.14953 0.0
C109 C 0.79486 0.43153 0.20095 0.0
C110 C 0.78534 0.4467 0.16353 0.0
C111 C 0.70299 0.37768 0.17866 0.0
N112 N 0.74283 0.38792 0.20998 0.0
O113 O 0.61546 0.3561 0.11281 0.0
H114 H 0.81875 0.47791 0.14653 0.0
H115 H 0.65775 0.34233 0.17587 0.0
O116 O 0.69071 0.46853 0.10609 0.0
C117 C 0.56715 0.3123 0.09765 0.0
O118 O 0.5663 0.28728 0.06453 0.0
N119 N 0.70975 0.34306 0.09177 0.0
C120 C 0.76648 0.28303 0.1111 0.0
C121 C 0.79554 0.33477 0.093 0.0
C122 C 0.76655 0.36397 0.08382 0.0
C123 C 0.67928 0.29103 0.10706 0.0
C124 C 0.7066 0.26016 0.11639 0.0
H125 H 0.79202 0.40671 0.07451 0.0
H126 H 0.63615 0.2751 0.1163 0.0
H127 H 0.73711 0.39977 0.01496 0.0
H128 H 0.58422 0.3971 0.96707 0.0
H129 H 0.83679 0.44987 0.21952 0.0
H130 H 0.842 0.35519 0.08904 0.0
H131 H 0.68189 0.2202 0.12996 0.0
C132 C 0.52902 0.82273 0.99332 0.0
C133 C 0.51855 0.82229 0.03213 0.0
N134 N 0.48957 0.76848 0.04268 0.0
N135 N 0.50673 0.76938 0.97854 0.0
C136 C 0.48324 0.73708 1.00984 0.0
H137 H 0.54975 0.86001 0.97643 0.0
Co138 Co 0.50963 0.75516 0.92371 0.0
C139 C 0.42132 0.79002 0.92159 0.0
O140 O 0.40002 0.75841 0.95172 0.0
N141 N 0.51439 0.74382 0.87031 0.0
C142 C 0.53143 0.76484 0.80797 0.0
C143 C 0.53139 0.78529 0.84462 0.0
C144 C 0.50384 0.69812 0.8484 0.0
N145 N 0.51395 0.71 0.81026 0.0
O146 O 0.58562 0.82549 0.92427 0.0
H147 H 0.54204 0.8277 0.85192 0.0
H148 H 0.48805 0.65682 0.85985 0.0
O149 O 0.46598 0.79357 0.90748 0.0
C150 C 0.63092 0.82133 0.93304 0.0
O151 O 0.62294 0.77487 0.94873 0.0
N152 N 0.43904 0.68327 0.92103 0.0
C153 C 0.35966 0.56894 0.89799 0.0
C154 C 0.3497 0.61061 0.88284 0.0
C155 C 0.39042 0.6676 0.89415 0.0
C156 C 0.44765 0.64296 0.93753 0.0
C157 C 0.40826 0.58562 0.92679 0.0
H158 H 0.38592 0.69865 0.8777 0.0
H159 H 0.48824 0.65562 0.95642 0.0
H160 H 0.45948 0.69148 1.00842 0.0
H161 H 0.53041 0.85889 0.05101 0.0
H162 H 0.54058 0.78779 0.78113 0.0
H163 H 0.31388 0.59984 0.85963 0.0
H164 H 0.41791 0.5549 0.93905 0.0
C165 C 0.3306 0.72363 0.36745 0.0
C166 C 0.33469 0.72868 0.32752 0.0
N167 N 0.36185 0.70246 0.31616 0.0
N168 N 0.355 0.69427 0.38218 0.0
C169 C 0.37407 0.68211 0.3499 0.0
H170 H 0.31165 0.7414 0.38488 0.0
Co171 Co 0.35481 0.67881 0.43729 0.0
C172 C 0.43806 0.80316 0.43752 0.0
O173 O 0.45926 0.79462 0.40669 0.0
N174 N 0.35243 0.66404 0.49098 0.0
C175 C 0.33639 0.66805 0.5535 0.0
C176 C 0.33503 0.68791 0.51669 0.0
C177 C 0.36467 0.62993 0.51303 0.0
N178 N 0.35513 0.63168 0.55128 0.0
O179 O 0.27737 0.66974 0.43741 0.0
H180 H 0.32285 0.71863 0.50922 0.0
H181 H 0.38097 0.60497 0.50155 0.0
O182 O 0.39527 0.76078 0.45225 0.0
C183 C 0.233 0.6195 0.42977 0.0
O184 O 0.24204 0.58156 0.41462 0.0
N185 N 0.42752 0.68142 0.43952 0.0
C186 C 0.51358 0.65451 0.46287 0.0
C187 C 0.51985 0.70498 0.47698 0.0
C188 C 0.47593 0.71709 0.46566 0.0
C189 C 0.42222 0.63357 0.42392 0.0
C190 C 0.46499 0.61962 0.4348 0.0
H191 H 0.47834 0.75188 0.48154 0.0
H192 H 0.38172 0.60315 0.40597 0.0
H193 H 0.39601 0.65859 0.35069 0.0
H194 H 0.31982 0.7512 0.30845 0.0
H195 H 0.32703 0.68143 0.58035 0.0
H196 H 0.55637 0.73315 0.49882 0.0
H197 H 0.45724 0.57946 0.42386 0.0
H198 H 0.24442 0.23047 0.20515 0.0
H199 H 0.27242 0.0923 0.22578 0.0
H200 H 0.33516 0.27906 0.17172 0.0
H201 H 0.36106 0.13982 0.19204 0.0
H202 H 0.46729 0.20719 0.08463 0.0
H203 H 0.37831 0.16598 0.11855 0.0
H204 H 0.45287 0.32083 0.19058 0.0
H205 H 0.54303 0.36218 0.15703 0.0
C206 C 0.26987 0.21061 0.20274 0.0
C207 C 0.25112 0.15757 0.21837 0.0
C208 C 0.32181 0.23843 0.1837 0.0
C209 C 0.35508 0.21308 0.17909 0.0
C210 C 0.33626 0.16029 0.19484 0.0
C211 C 0.28546 0.13322 0.21445 0.0
C212 C 0.46491 0.23268 0.10761 0.0
C213 C 0.51259 0.288 0.11815 0.0
C214 C 0.41385 0.20896 0.1271 0.0
C215 C 0.40851 0.24015 0.15723 0.0
C216 C 0.45553 0.29591 0.1673 0.0
C217 C 0.50727 0.3194 0.14825 0.0
H218 H 0.96458 0.18941 0.28003 0.0
H219 H 0.98967 0.1377 0.16739 0.0
H220 H 0.90551 0.22346 0.24583 0.0
H221 H 0.92817 0.16953 0.133 0.0
H222 H 0.85815 0.28 0.08194 0.0
H223 H 0.91997 0.24727 0.11419 0.0
H224 H 0.81234 0.19214 0.21127 0.0
H225 H 0.75328 0.22814 0.18046 0.0
C226 C 0.95734 0.18507 0.24789 0.0
C227 C 0.98172 0.16033 0.22659 0.0
C228 C 0.92278 0.20416 0.22817 0.0
C229 C 0.91089 0.19866 0.18646 0.0
C230 C 0.93642 0.17499 0.16507 0.0
C231 C 0.97157 0.15635 0.18485 0.0
C232 C 0.84774 0.26112 0.11026 0.0
C233 C 0.80038 0.25699 0.1284 0.0
C234 C 0.88299 0.2417 0.12865 0.0
C235 C 0.87185 0.21728 0.1657 0.0
C236 C 0.82338 0.21165 0.18321 0.0
C237 C 0.7885 0.23141 0.16501 0.0
H238 H 0.69303 0.53196 0.16405 0.0
H239 H 0.79813 0.62179 0.07014 0.0
H240 H 0.72559 0.62217 0.19931 0.0
H241 H 0.83011 0.71155 0.10508 0.0
H242 H 0.85108 0.86638 0.16416 0.0
H243 H 0.79499 0.7734 0.12906 0.0
H244 H 0.8261 0.69898 0.23337 0.0
H245 H 0.88202 0.79214 0.26867 0.0
C246 C 0.72187 0.5709 0.15046 0.0
C247 C 0.74302 0.56975 0.11427 0.0
C248 C 0.7409 0.62252 0.17082 0.0
C249 C 0.78057 0.67402 0.15506 0.0
C250 C 0.79913 0.67271 0.11788 0.0
C251 C 0.78093 0.62123 0.09789 0.0
C252 C 0.84451 0.83 0.18004 0.0
C253 C 0.87103 0.83672 0.21928 0.0
C254 C 0.81288 0.77679 0.15975 0.0
C255 C 0.80643 0.72887 0.17831 0.0
C256 C 0.82992 0.73499 0.2183 0.0
C257 C 0.86221 0.78837 0.23847 0.0
H258 H 0.11575 0.21105 0.82098 0.0
H259 H 0.24896 0.28002 0.73973 0.0
H260 H 0.1601 0.30523 0.85376 0.0
H261 H 0.29283 0.37339 0.7724 0.0
H262 H 0.2389 0.5006 0.8788 0.0
H263 H 0.18439 0.40681 0.84374 0.0
H264 H 0.34874 0.41233 0.83977 0.0
H265 H 0.40282 0.5054 0.8742 0.0
C266 C 0.15371 0.24634 0.80962 0.0
C267 C 0.17908 0.23777 0.77792 0.0
C268 C 0.17909 0.30027 0.82842 0.0
C269 C 0.23056 0.34653 0.81609 0.0
C270 C 0.25389 0.33839 0.7831 0.0
C271 C 0.22842 0.28482 0.7642 0.0
C272 C 0.26317 0.48147 0.8706 0.0
C273 C 0.32513 0.51025 0.87961 0.0
C274 C 0.23198 0.4278 0.85066 0.0
C275 C 0.26232 0.40239 0.8387 0.0
C276 C 0.32412 0.43101 0.84814 0.0
C277 C 0.35505 0.48408 0.86838 0.0
H278 H 0.73923 0.83704 0.95837 0.0
H279 H 0.65263 0.89166 0.87123 0.0
H280 H 0.82881 0.88467 0.92487 0.0
H281 H 0.74205 0.93847 0.83728 0.0
H282 H 0.87184 0.92558 0.75986 0.0
H283 H 0.78926 0.8966 0.79868 0.0
H284 H 0.91206 0.98019 0.90388 0.0
H285 H 0.99543 1.01025 0.86465 0.0
C286 C 0.73968 0.86023 0.93253 0.0
C287 C 0.68847 0.86024 0.91747 0.0
C288 C 0.79116 0.88761 0.91334 0.0
C289 C 0.7925 0.9149 0.87812 0.0
C290 C 0.7423 0.91733 0.86412 0.0
C291 C 0.69113 0.89083 0.88378 0.0
C292 C 0.88146 0.93811 0.79124 0.0
C293 C 0.94041 0.9701 0.80912 0.0
C294 C 0.83398 0.92187 0.81345 0.0
C295 C 0.84389 0.93626 0.85439 0.0
C296 C 0.90287 0.96838 0.8724 0.0
C297 C 0.95061 0.98568 0.84993 0.0
H298 H 0.18991 0.92052 0.8629 0.0
H299 H 0.24524 0.9091 0.74973 0.0
H300 H 0.25097 0.88742 0.89506 0.0
H301 H 0.30554 0.87396 0.7818 0.0
H302 H 0.45015 0.86009 0.85882 0.0
H303 H 0.39216 0.89668 0.82515 0.0
H304 H 0.25673 0.80735 0.90311 0.0
H305 H 0.31525 0.77329 0.93736 0.0
C306 C 0.21419 0.90971 0.84468 0.0
C307 C 0.21179 0.91662 0.80357 0.0
C308 C 0.24946 0.89067 0.86319 0.0
C309 C 0.28316 0.87727 0.84117 0.0
C310 C 0.28091 0.88435 0.79995 0.0
C311 C 0.24595 0.90409 0.78144 0.0
C312 C 0.40821 0.84878 0.8689 0.0
C313 C 0.38782 0.81413 0.90111 0.0
C314 C 0.37459 0.86933 0.84935 0.0
C315 C 0.31954 0.85541 0.86137 0.0
C316 C 0.2993 0.82034 0.89339 0.0
C317 C 0.33297 0.80039 0.91303 0.0
H318 H 0.99247 0.48042 0.6044 0.0
H319 H 0.86984 0.44444 0.49942 0.0
H320 H 0.07553 0.53357 0.56562 0.0
H321 H 0.95339 0.49686 0.46036 0.0
H322 H 0.12524 0.52562 0.40562 0.0
H323 H 1.03621 0.48296 0.43978 0.0
H324 H 0.12278 0.62395 0.52654 0.0
H325 H 0.21153 0.66738 0.49183 0.0
C326 C 0.98315 0.48375 0.57302 0.0
C327 C 0.92432 0.45781 0.55506 0.0
C328 C 1.03087 0.51468 0.55085 0.0
C329 C 1.0212 0.51972 0.5099 0.0
C330 C 0.96238 0.49373 0.49183 0.0
C331 C 0.91451 0.46372 0.51423 0.0
C332 C 0.12484 0.54827 0.43142 0.0
C333 C 0.17573 0.59995 0.44596 0.0
C334 C 0.07373 0.52375 0.45101 0.0
C335 C 0.07253 0.5497 0.48614 0.0
C336 C 0.12247 0.60259 0.49976 0.0
C337 C 0.17322 0.62773 0.47966 0.0
H338 H 0.62427 0.47471 0.61751 0.0
H339 H 0.74203 0.51732 0.52711 0.0
H340 H 0.58669 0.53056 0.58673 0.0
H341 H 0.70471 0.57424 0.49636 0.0
H342 H 0.55762 0.59759 0.42691 0.0
H343 H 0.61126 0.55595 0.4591 0.0
H344 H 0.6115 0.62546 0.57293 0.0
H345 H 0.55638 0.66512 0.54121 0.0
C346 C 0.64291 0.49683 0.5914 0.0
C347 C 0.68609 0.49141 0.57476 0.0
C348 C 0.62151 0.52915 0.5738 0.0
C349 C 0.6425 0.55685 0.53895 0.0
C350 C 0.68714 0.55297 0.52295 0.0
C351 C 0.70893 0.52081 0.54079 0.0
C352 C 0.56943 0.60423 0.45877 0.0
C353 C 0.55248 0.63473 0.48134 0.0
C354 C 0.60071 0.58083 0.4772 0.0
C355 C 0.61547 0.58708 0.51867 0.0
C356 C 0.60032 0.61924 0.541 0.0
C357 C 0.56926 0.64266 0.52264 0.0
H358 H 0.54486 0.89413 0.42372 0.0
H359 H 0.40708 0.84073 0.50059 0.0
H360 H 0.60263 0.98531 0.46067 0.0
H361 H 0.46523 0.9329 0.53751 0.0
H362 H 0.56055 0.13018 0.55682 0.0
H363 H 0.50147 1.03559 0.52529 0.0
H364 H 0.65762 1.02489 0.52897 0.0
H365 H 0.7171 0.11916 0.56217 0.0
C366 C 0.52658 0.90185 0.44837 0.0
C367 C 0.47102 0.85989 0.45903 0.0
C368 C 0.56013 0.95411 0.46981 0.0
C369 C 0.53886 0.96633 0.50225 0.0
C370 C 0.48284 0.92486 0.5126 0.0
C371 C 0.4495 0.87206 0.49143 0.0
C372 C 0.58251 0.10746 0.55213 0.0
C373 C 0.64411 0.13292 0.56262 0.0
C374 C 0.54834 0.05305 0.53368 0.0
C375 C 0.57472 1.02264 0.52449 0.0
C376 C 0.636 0.04747 0.53526 0.0
C377 C 0.67017 0.1017 0.55425 0.0
H378 H 0.15618 0.1175 0.62038 0.0
H379 H 0.97429 0.98392 0.59213 0.0
H380 H 0.16747 0.12892 0.55 0.0
H381 H 0.98578 0.99119 0.52147 0.0
H382 H 1.00253 0.05737 0.39731 0.0
H383 H 0.99109 0.04059 0.46744 0.0
H384 H 0.17803 0.10059 0.49093 0.0
H385 H 0.18903 0.12153 0.42135 0.0
C386 C 0.11908 0.08953 0.59883 0.0
C387 C 0.06447 0.04983 0.61146 0.0
C388 C 0.12539 0.09567 0.55829 0.0
C389 C 0.07756 0.06108 0.52922 0.0
C390 C 1.02342 1.01984 0.54236 0.0
C391 C 1.01677 1.01498 0.58292 0.0
C392 C 1.04078 0.06657 0.41775 0.0
C393 C 0.09659 0.09087 0.40428 0.0
C394 C 1.03445 0.05664 0.45804 0.0
C395 C 0.08366 0.06931 0.48569 0.0
C396 C 0.13918 0.09167 0.47136 0.0
C397 C 0.14564 0.10316 0.43134 0.0
H398 H 0.59618 0.33495 0.91218 0.0
H399 H 0.77411 0.46484 0.95687 0.0
H400 H 0.62665 0.3387 0.84618 0.0
H401 H 0.80458 0.47215 0.8906 0.0
H402 H 0.857 0.44141 0.7748 0.0
H403 H 0.82686 0.432 0.84153 0.0
H404 H 0.65196 0.38976 0.79079 0.0
H405 H 0.68177 0.39545 0.72456 0.0
C406 C 0.64172 0.36482 0.90751 0.0
C407 C 0.6829 0.39946 0.93932 0.0
C408 C 0.65932 0.36742 0.86969 0.0
C409 C 0.71827 0.40596 0.86262 0.0
C410 C 0.75921 0.44101 0.89474 0.0
C411 C 0.74183 0.43726 0.93273 0.0
C412 C 0.81214 0.4298 0.77832 0.0
C413 C 0.77148 0.41864 0.74489 0.0
C414 C 0.79478 0.42481 0.81646 0.0
C415 C 0.73672 0.41005 0.82195 0.0
C416 C 0.69649 0.39972 0.7881 0.0
C417 C 0.71351 0.4033 0.75005 0.0
H418 H 0.45511 0.69837 0.2929 0.0
H419 H 0.29832 0.69915 0.2478 0.0
H420 H 0.48296 0.70634 0.22499 0.0
H421 H 0.32608 0.70755 0.18086 0.0
H422 H 0.44029 0.81185 0.08468 0.0
H423 H 0.40744 0.78786 0.15018 0.0
H424 H 0.45301 0.65979 0.15289 0.0
H425 H 0.48634 0.68437 0.08635 0.0
C426 C 0.42611 0.69925 0.26855 0.0
C427 C 0.37506 0.69927 0.27605 0.0
C428 C 0.44204 0.70382 0.22962 0.0
C429 C 0.40729 0.70861 0.19748 0.0
C430 C 0.35463 0.70527 0.20491 0.0
C431 C 0.33876 0.70058 0.24345 0.0
C432 C 0.44321 0.77844 0.0991 0.0
C433 C 0.46607 0.75014 0.08029 0.0
C434 C 0.42399 0.76437 0.13664 0.0
C435 C 0.42739 0.72176 0.15694 0.0
C436 C 0.45001 0.69299 0.13817 0.0
C437 C 0.46856 0.70663 0.09999 0.0
H438 H 1.01279 0.94372 0.06717 0.0
H439 H 0.18585 0.05419 0.13096 0.0
H440 H 1.05796 0.94741 1.00777 0.0
H441 H 0.23168 0.05595 0.07187 0.0
H442 H 0.25237 0.13858 0.94787 0.0
H443 H 0.2336 0.10742 0.01476 0.0
H444 H 0.1187 0.93466 0.96745 0.0
H445 H 0.13647 0.96681 0.9003 0.0
C446 C 1.06064 0.96738 0.06874 0.0
C447 C 0.0956 0.99999 0.10323 0.0
C448 C 0.08677 0.96892 0.03483 0.0
C449 C 0.14855 1.003 0.03483 0.0
C450 C 0.18391 1.03025 0.07074 0.0
C451 C 0.15763 1.02887 0.1047 0.0
C452 C 0.22461 0.09383 0.95199 0.0
C453 C 0.19446 0.05524 0.91919 0.0
C454 C 0.21407 0.07572 0.99033 0.0
C455 C 0.1736 1.01856 0.99642 0.0
C456 C 0.1489 0.97914 0.96366 0.0
C457 C 0.15888 0.99744 0.92531 0.0
H458 H 0.81607 0.36158 0.25205 0.0
H459 H 0.64281 0.34006 0.2447 0.0
H460 H 0.79902 0.31442 0.3147 0.0
H461 H 0.62604 0.29463 0.30702 0.0
H462 H 0.78789 0.36402 0.4444 0.0
H463 H 0.79983 0.35646 0.37606 0.0
H464 H 0.61514 0.2244 0.35247 0.0
H465 H 0.60292 0.23237 0.42219 0.0
C466 C 0.77431 0.34639 0.26381 0.0
C467 C 0.73137 0.3557 0.24446 0.0
C468 C 0.76421 0.31888 0.29924 0.0
C469 C 0.71149 0.30139 0.31605 0.0
C470 C 0.6668 0.30673 0.29478 0.0
C471 C 0.67667 0.33355 0.25929 0.0
C472 C 0.75007 0.33183 0.42528 0.0
C473 C 0.69389 0.29997 0.43851 0.0
C474 C 0.75713 0.32712 0.3858 0.0
C475 C 0.70812 0.29058 0.35862 0.0
C476 C 0.6534 0.25387 0.37272 0.0
C477 C 0.64625 0.25877 0.41243 0.0
H478 H 0.2953 0.59122 0.61451 0.0
H479 H 0.4513 0.62185 0.56461 0.0
H480 H 0.33668 0.58369 0.67945 0.0
H481 H 0.49284 0.61231 0.62975 0.0
H482 H 0.57442 0.731 0.74726 0.0
H483 H 0.53363 0.68302 0.68212 0.0
H484 H 0.37801 0.55324 0.73133 0.0
H485 H 0.41883 0.60336 0.79666 0.0
C486 C 0.33765 0.5941 0.61732 0.0
C487 C 0.37091 0.60879 0.58498 0.0
C488 C 0.36134 0.58918 0.65456 0.0
C489 C 0.41902 0.59892 0.66027 0.0
C490 C 0.44889 0.60595 0.62663 0.0
C491 C 0.42501 0.61097 0.58922 0.0
C492 C 0.53236 0.69124 0.7443 0.0
C493 C 0.49897 0.6718 0.77656 0.0
C494 C 0.509 0.66317 0.70694 0.0
C495 C 0.45156 0.61491 0.70105 0.0
C496 C 0.42174 0.59113 0.73461 0.0
C497 C 0.44525 0.61949 0.77213 0.0
loop_
_geom_bond_atom_site_label_1
_geom_bond_atom_site_label_2
_geom_bond_distance
_geom_bond_site_symmetry_2
_ccdc_geom_bond_type
C0 C1 1.351 . S
C0 N3 1.368 . S
C0 H5 0.931 . S
C1 C0 1.351 . S
C1 N2 1.373 . S
C1 H29 0.930 . S
N2 C1 1.373 . S
N2 C4 1.340 . S
N3 C0 1.368 . S
N3 C4 1.321 . S
N3 Co6 2.135 . S
C4 N2 1.340 . S
C4 N3 1.321 . S
C4 H28 0.930 . S
H5 C0 0.931 . S
Co6 N3 2.135 . S
Co6 N9 2.121 . S
Co6 O14 2.055 . S
Co6 O17 2.039 . S
Co6 N20 2.140 1_445 S
C7 O8 1.227 . S
C7 O17 1.265 1_655 S
O8 C7 1.227 . S
N9 Co6 2.121 . S
N9 C11 1.375 1_455 S
N9 C12 1.313 . S
C10 C11 1.338 . S
C10 N13 1.377 1_655 S
C10 H30 0.930 . S
C11 N9 1.375 1_655 S
C11 C10 1.338 . S
C11 H15 0.931 . S
C12 N9 1.313 . S
C12 N13 1.344 . S
C12 H16 0.930 . S
N13 C10 1.377 1_455 S
N13 C12 1.344 . S
O14 Co6 2.055 . S
O14 C18 1.253 . S
H15 C11 0.931 . S
H16 C12 0.930 . S
O17 Co6 2.039 . S
O17 C7 1.265 1_455 S
C18 O14 1.253 . S
C18 O19 1.227 . S
O19 C18 1.227 . S
N20 Co6 2.140 1_665 S
N20 C23 1.346 . S
N20 C24 1.345 . S
C21 C22 1.387 . S
C21 C25 1.391 . S
C22 C21 1.387 . S
C22 C23 1.369 . S
C22 H31 0.929 . S
C23 N20 1.346 . S
C23 C22 1.369 . S
C23 H26 0.928 . S
C24 N20 1.345 . S
C24 C25 1.371 . S
C24 H27 0.931 1_655 S
C25 C21 1.391 . S
C25 C24 1.371 . S
C25 H32 0.930 . S
H26 C23 0.928 . S
H27 C24 0.931 1_455 S
H28 C4 0.930 . S
H29 C1 0.930 . S
H30 C10 0.930 . S
H31 C22 0.929 . S
H32 C25 0.930 . S
C33 C34 1.351 . S
C33 N36 1.368 1_565 S
C33 H38 0.931 . S
C34 C33 1.351 . S
C34 N35 1.373 1_565 S
C34 H62 0.930 . S
N35 C34 1.373 1_545 S
N35 C37 1.340 1_655 S
N36 C33 1.368 1_545 S
N36 C37 1.321 1_655 S
N36 Co39 2.135 . S
C37 N35 1.340 1_455 S
C37 N36 1.321 1_455 S
C37 H61 0.930 . S
H38 C33 0.931 . S
Co39 N36 2.135 . S
Co39 N42 2.121 1_655 S
Co39 O47 2.055 1_545 S
Co39 O50 2.039 1_655 S
Co39 N53 2.140 1_645 S
C40 O41 1.227 . S
C40 O50 1.265 . S
O41 C40 1.227 . S
N42 Co39 2.121 1_455 S
N42 C44 1.375 . S
N42 C45 1.313 1_455 S
C43 C44 1.338 . S
C43 N46 1.377 . S
C43 H63 0.930 . S
C44 N42 1.375 . S
C44 C43 1.338 . S
C44 H48 0.931 . S
C45 N42 1.313 1_655 S
C45 N46 1.344 1_655 S
C45 H49 0.930 1_545 S
N46 C43 1.377 . S
N46 C45 1.344 1_455 S
O47 Co39 2.055 1_565 S
O47 C51 1.253 . S
H48 C44 0.931 . S
H49 C45 0.930 1_565 S
O50 Co39 2.039 1_455 S
O50 C40 1.265 . S
C51 O47 1.253 . S
C51 O52 1.227 . S
O52 C51 1.227 . S
N53 Co39 2.140 1_465 S
N53 C56 1.346 . S
N53 C57 1.345 . S
C54 C55 1.387 . S
C54 C58 1.391 . S
C55 C54 1.387 . S
C55 C56 1.369 . S
C55 H64 0.929 . S
C56 N53 1.346 . S
C56 C55 1.369 . S
C56 H59 0.928 1_565 S
C57 N53 1.345 . S
C57 C58 1.371 . S
C57 H60 0.931 . S
C58 C54 1.391 . S
C58 C57 1.371 . S
C58 H65 0.930 . S
H59 C56 0.928 1_545 S
H60 C57 0.931 . S
H61 C37 0.930 . S
H62 C34 0.930 . S
H63 C43 0.930 . S
H64 C55 0.929 . S
H65 C58 0.930 . S
C66 C67 1.351 . S
C66 N69 1.368 . S
C66 H71 0.931 . S
C67 C66 1.351 . S
C67 N68 1.373 . S
C67 H95 0.930 . S
N68 C67 1.373 . S
N68 C70 1.340 . S
N69 C66 1.368 . S
N69 C70 1.321 . S
N69 Co72 2.135 . S
C70 N68 1.340 . S
C70 N69 1.321 . S
C70 H94 0.930 . S
H71 C66 0.931 . S
Co72 N69 2.135 . S
Co72 N75 2.121 . S
Co72 O80 2.055 . S
Co72 O83 2.039 . S
Co72 N86 2.140 . S
C73 O74 1.227 . S
C73 O83 1.265 . S
O74 C73 1.227 . S
N75 Co72 2.121 . S
N75 C77 1.375 . S
N75 C78 1.313 . S
C76 C77 1.338 . S
C76 N79 1.377 . S
C76 H96 0.930 . S
C77 N75 1.375 . S
C77 C76 1.338 . S
C77 H81 0.931 . S
C78 N75 1.313 . S
C78 N79 1.344 . S
C78 H82 0.930 . S
N79 C76 1.377 . S
N79 C78 1.344 . S
O80 Co72 2.055 . S
O80 C84 1.253 . S
H81 C77 0.931 . S
H82 C78 0.930 . S
O83 Co72 2.039 . S
O83 C73 1.265 . S
C84 O80 1.253 . S
C84 O85 1.227 . S
O85 C84 1.227 . S
N86 Co72 2.140 . S
N86 C89 1.346 . S
N86 C90 1.345 . S
C87 C88 1.387 . S
C87 C91 1.391 . S
C88 C87 1.387 . S
C88 C89 1.369 . S
C88 H97 0.929 . S
C89 N86 1.346 . S
C89 C88 1.369 . S
C89 H92 0.928 . S
C90 N86 1.345 . S
C90 C91 1.371 . S
C90 H93 0.931 . S
C91 C87 1.391 . S
C91 C90 1.371 . S
C91 H98 0.930 . S
H92 C89 0.928 . S
H93 C90 0.931 . S
H94 C70 0.930 . S
H95 C67 0.930 . S
H96 C76 0.930 . S
H97 C88 0.929 . S
H98 C91 0.930 . S
C99 C100 1.327 1_554 S
C99 N102 1.368 . S
C99 H104 0.931 . S
C100 C99 1.327 1_556 S
C100 N101 1.378 . S
C100 H128 0.946 . S
N101 C100 1.378 . S
N101 C103 1.340 1_556 S
N102 C99 1.368 . S
N102 C103 1.321 . S
N102 Co105 2.135 . S
C103 N101 1.340 1_554 S
C103 N102 1.321 . S
C103 H127 0.930 . S
H104 C99 0.931 . S
Co105 N102 2.135 . S
Co105 N108 2.121 . S
Co105 O113 2.055 . S
Co105 O116 2.039 . S
Co105 N119 2.140 . S
C106 O107 1.227 . S
C106 O116 1.265 . S
O107 C106 1.227 . S
N108 Co105 2.121 . S
N108 C110 1.375 . S
N108 C111 1.313 . S
C109 C110 1.338 . S
C109 N112 1.377 . S
C109 H129 0.930 . S
C110 N108 1.375 . S
C110 C109 1.338 . S
C110 H114 0.931 . S
C111 N108 1.313 . S
C111 N112 1.344 . S
C111 H115 0.930 . S
N112 C109 1.377 . S
N112 C111 1.344 . S
O113 Co105 2.055 . S
O113 C117 1.253 . S
H114 C110 0.931 . S
H115 C111 0.930 . S
O116 Co105 2.039 . S
O116 C106 1.265 . S
C117 O113 1.253 . S
C117 O118 1.227 . S
O118 C117 1.227 . S
N119 Co105 2.140 . S
N119 C122 1.346 . S
N119 C123 1.345 . S
C120 C121 1.387 . S
C120 C124 1.391 . S
C121 C120 1.387 . S
C121 C122 1.369 . S
C121 H130 0.929 . S
C122 N119 1.346 . S
C122 C121 1.369 . S
C122 H125 0.928 . S
C123 N119 1.345 . S
C123 C124 1.371 . S
C123 H126 0.931 . S
C124 C120 1.391 . S
C124 C123 1.371 . S
C124 H131 0.930 . S
H125 C122 0.928 . S
H126 C123 0.931 . S
H127 C103 0.930 . S
H128 C100 0.946 . S
H129 C109 0.930 . S
H130 C121 0.929 . S
H131 C124 0.930 . S
C132 C133 1.326 1_556 S
C132 N135 1.368 . S
C132 H137 0.931 . S
C133 C132 1.326 1_554 S
C133 N134 1.378 . S
C133 H161 0.946 . S
N134 C133 1.378 . S
N134 C136 1.340 1_554 S
N135 C132 1.368 . S
N135 C136 1.321 . S
N135 Co138 2.135 . S
C136 N134 1.340 1_556 S
C136 N135 1.321 . S
C136 H160 0.930 . S
H137 C132 0.931 . S
Co138 N135 2.135 . S
Co138 N141 2.121 . S
Co138 O146 2.055 . S
Co138 O149 2.039 . S
Co138 N152 2.140 . S
C139 O140 1.227 . S
C139 O149 1.265 . S
O140 C139 1.227 . S
N141 Co138 2.121 . S
N141 C143 1.375 . S
N141 C144 1.313 . S
C142 C143 1.338 . S
C142 N145 1.377 . S
C142 H162 0.930 . S
C143 N141 1.375 . S
C143 C142 1.338 . S
C143 H147 0.931 . S
C144 N141 1.313 . S
C144 N145 1.344 . S
C144 H148 0.930 . S
N145 C142 1.377 . S
N145 C144 1.344 . S
O146 Co138 2.055 . S
O146 C150 1.253 . S
H147 C143 0.931 . S
H148 C144 0.930 . S
O149 Co138 2.039 . S
O149 C139 1.265 . S
C150 O146 1.253 . S
C150 O151 1.227 . S
O151 C150 1.227 . S
N152 Co138 2.140 . S
N152 C155 1.346 . S
N152 C156 1.345 . S
C153 C154 1.387 . S
C153 C157 1.391 . S
C154 C153 1.387 . S
C154 C155 1.369 . S
C154 H163 0.929 . S
C155 N152 1.346 . S
C155 C154 1.369 . S
C155 H158 0.928 . S
C156 N152 1.345 . S
C156 C157 1.371 . S
C156 H159 0.931 . S
C157 C153 1.391 . S
C157 C156 1.371 . S
C157 H164 0.930 . S
H158 C155 0.928 . S
H159 C156 0.931 . S
H160 C136 0.930 . S
H161 C133 0.946 . S
H162 C142 0.930 . S
H163 C154 0.929 . S
H164 C157 0.930 . S
C165 C166 1.351 . S
C165 N168 1.368 . S
C165 H170 0.931 . S
C166 C165 1.351 . S
C166 N167 1.373 . S
C166 H194 0.930 . S
N167 C166 1.373 . S
N167 C169 1.340 . S
N168 C165 1.368 . S
N168 C169 1.321 . S
N168 Co171 2.135 . S
C169 N167 1.340 . S
C169 N168 1.321 . S
C169 H193 0.930 . S
H170 C165 0.931 . S
Co171 N168 2.135 . S
Co171 N174 2.121 . S
Co171 O179 2.055 . S
Co171 O182 2.039 . S
Co171 N185 2.140 . S
C172 O173 1.227 . S
C172 O182 1.265 . S
O173 C172 1.227 . S
N174 Co171 2.121 . S
N174 C176 1.375 . S
N174 C177 1.313 . S
C175 C176 1.338 . S
C175 N178 1.377 . S
C175 H195 0.930 . S
C176 N174 1.375 . S
C176 C175 1.338 . S
C176 H180 0.931 . S
C177 N174 1.313 . S
C177 N178 1.344 . S
C177 H181 0.930 . S
N178 C175 1.377 . S
N178 C177 1.344 . S
O179 Co171 2.055 . S
O179 C183 1.253 . S
H180 C176 0.931 . S
H181 C177 0.930 . S
O182 Co171 2.039 . S
O182 C172 1.265 . S
C183 O179 1.253 . S
C183 O184 1.227 . S
O184 C183 1.227 . S
N185 Co171 2.140 . S
N185 C188 1.346 . S
N185 C189 1.345 . S
C186 C187 1.387 . S
C186 C190 1.391 . S
C187 C186 1.387 . S
C187 C188 1.369 . S
C187 H196 0.929 . S
C188 N185 1.346 . S
C188 C187 1.369 . S
C188 H191 0.928 . S
C189 N185 1.345 . S
C189 C190 1.371 . S
C189 H192 0.931 . S
C190 C186 1.391 . S
C190 C189 1.371 . S
C190 H197 0.930 . S
H191 C188 0.928 . S
H192 C189 0.931 . S
H193 C169 0.930 . S
H194 C166 0.930 . S
H195 C175 0.930 . S
H196 C187 0.929 . S
H197 C190 0.930 . S
H198 C206 0.950 . S
H199 C211 0.950 . S
H200 C208 0.950 . S
H201 C210 0.950 . S
H202 C212 0.950 . S
H203 C214 0.950 . S
H204 C216 0.950 . S
H205 C217 0.950 . S
C206 H198 0.950 . S
C206 C207 1.386 . S
C206 C208 1.391 . S
C207 C206 1.386 . S
C207 C211 1.393 . S
C208 H200 0.950 . S
C208 C206 1.391 . S
C208 C209 1.400 . S
C209 C208 1.400 . S
C209 C210 1.398 . S
C209 C215 1.491 . S
C210 H201 0.950 . S
C210 C209 1.398 . S
C210 C211 1.391 . S
C211 H199 0.950 . S
C211 C207 1.393 . S
C211 C210 1.391 . S
C212 H202 0.950 . S
C212 C213 1.386 . S
C212 C214 1.391 . S
C213 C212 1.386 . S
C213 C217 1.393 . S
C214 H203 0.950 . S
C214 C212 1.391 . S
C214 C215 1.400 . S
C215 C209 1.491 . S
C215 C214 1.400 . S
C215 C216 1.398 . S
C216 H204 0.950 . S
C216 C215 1.398 . S
C216 C217 1.391 . S
C217 H205 0.950 . S
C217 C213 1.393 . S
C217 C216 1.391 . S
H218 C226 0.950 . S
H219 C231 0.950 . S
H220 C228 0.950 . S
H221 C230 0.950 . S
H222 C232 0.950 . S
H223 C234 0.950 . S
H224 C236 0.950 . S
H225 C237 0.950 . S
C226 H218 0.950 . S
C226 C227 1.386 . S
C226 C228 1.391 . S
C227 C226 1.386 . S
C227 C231 1.393 . S
C228 H220 0.950 . S
C228 C226 1.391 . S
C228 C229 1.400 . S
C229 C228 1.400 . S
C229 C230 1.398 . S
C229 C235 1.491 . S
C230 H221 0.950 . S
C230 C229 1.398 . S
C230 C231 1.391 . S
C231 H219 0.950 . S
C231 C227 1.393 . S
C231 C230 1.391 . S
C232 H222 0.950 . S
C232 C233 1.386 . S
C232 C234 1.391 . S
C233 C232 1.386 . S
C233 C237 1.393 . S
C234 H223 0.950 . S
C234 C232 1.391 . S
C234 C235 1.400 . S
C235 C229 1.491 . S
C235 C234 1.400 . S
C235 C236 1.398 . S
C236 H224 0.950 . S
C236 C235 1.398 . S
C236 C237 1.391 . S
C237 H225 0.950 . S
C237 C233 1.393 . S
C237 C236 1.391 . S
H238 C246 0.950 . S
H239 C251 0.950 . S
H240 C248 0.950 . S
H241 C250 0.950 . S
H242 C252 0.950 . S
H243 C254 0.950 . S
H244 C256 0.950 . S
H245 C257 0.950 . S
C246 H238 0.950 . S
C246 C247 1.386 . S
C246 C248 1.391 . S
C247 C246 1.386 . S
C247 C251 1.393 . S
C248 H240 0.950 . S
C248 C246 1.391 . S
C248 C249 1.400 . S
C249 C248 1.400 . S
C249 C250 1.398 . S
C249 C255 1.491 . S
C250 H241 0.950 . S
C250 C249 1.398 . S
C250 C251 1.391 . S
C251 H239 0.950 . S
C251 C247 1.393 . S
C251 C250 1.391 . S
C252 H242 0.950 . S
C252 C253 1.386 . S
C252 C254 1.391 . S
C253 C252 1.386 . S
C253 C257 1.393 . S
C254 H243 0.950 . S
C254 C252 1.391 . S
C254 C255 1.400 . S
C255 C249 1.491 . S
C255 C254 1.400 . S
C255 C256 1.398 . S
C256 H244 0.950 . S
C256 C255 1.398 . S
C256 C257 1.391 . S
C257 H245 0.950 . S
C257 C253 1.393 . S
C257 C256 1.391 . S
H258 C266 0.950 . S
H259 C271 0.950 . S
H260 C268 0.950 . S
H261 C270 0.950 . S
H262 C272 0.950 . S
H263 C274 0.950 . S
H264 C276 0.950 . S
H265 C277 0.950 . S
C266 H258 0.950 . S
C266 C267 1.386 . S
C266 C268 1.391 . S
C267 C266 1.386 . S
C267 C271 1.393 . S
C268 H260 0.950 . S
C268 C266 1.391 . S
C268 C269 1.400 . S
C269 C268 1.400 . S
C269 C270 1.398 . S
C269 C275 1.491 . S
C270 H261 0.950 . S
C270 C269 1.398 . S
C270 C271 1.391 . S
C271 H259 0.950 . S
C271 C267 1.393 . S
C271 C270 1.391 . S
C272 H262 0.950 . S
C272 C273 1.386 . S
C272 C274 1.391 . S
C273 C272 1.386 . S
C273 C277 1.393 . S
C274 H263 0.950 . S
C274 C272 1.391 . S
C274 C275 1.400 . S
C275 C269 1.491 . S
C275 C274 1.400 . S
C275 C276 1.398 . S
C276 H264 0.950 . S
C276 C275 1.398 . S
C276 C277 1.391 . S
C277 H265 0.950 . S
C277 C273 1.393 . S
C277 C276 1.391 . S
H278 C286 0.950 . S
H279 C291 0.950 . S
H280 C288 0.950 . S
H281 C290 0.950 . S
H282 C292 0.950 . S
H283 C294 0.950 . S
H284 C296 0.950 . S
H285 C297 0.950 . S
C286 H278 0.950 . S
C286 C287 1.386 . S
C286 C288 1.391 . S
C287 C286 1.386 . S
C287 C291 1.393 . S
C288 H280 0.950 . S
C288 C286 1.391 . S
C288 C289 1.400 . S
C289 C288 1.400 . S
C289 C290 1.398 . S
C289 C295 1.491 . S
C290 H281 0.950 . S
C290 C289 1.398 . S
C290 C291 1.391 . S
C291 H279 0.950 . S
C291 C287 1.393 . S
C291 C290 1.391 . S
C292 H282 0.950 . S
C292 C293 1.386 . S
C292 C294 1.391 . S
C293 C292 1.386 . S
C293 C297 1.393 . S
C294 H283 0.950 . S
C294 C292 1.391 . S
C294 C295 1.400 . S
C295 C289 1.491 . S
C295 C294 1.400 . S
C295 C296 1.398 . S
C296 H284 0.950 . S
C296 C295 1.398 . S
C296 C297 1.391 . S
C297 H285 0.950 . S
C297 C293 1.393 . S
C297 C296 1.391 . S
H298 C306 0.950 . S
H299 C311 0.950 . S
H300 C308 0.950 . S
H301 C310 0.950 . S
H302 C312 0.950 . S
H303 C314 0.950 . S
H304 C316 0.950 . S
H305 C317 0.950 . S
C306 H298 0.950 . S
C306 C307 1.386 . S
C306 C308 1.391 . S
C307 C306 1.386 . S
C307 C311 1.393 . S
C308 H300 0.950 . S
C308 C306 1.391 . S
C308 C309 1.400 . S
C309 C308 1.400 . S
C309 C310 1.398 . S
C309 C315 1.491 . S
C310 H301 0.950 . S
C310 C309 1.398 . S
C310 C311 1.391 . S
C311 H299 0.950 . S
C311 C307 1.393 . S
C311 C310 1.391 . S
C312 H302 0.950 . S
C312 C313 1.386 . S
C312 C314 1.391 . S
C313 C312 1.386 . S
C313 C317 1.393 . S
C314 H303 0.950 . S
C314 C312 1.391 . S
C314 C315 1.400 . S
C315 C309 1.491 . S
C315 C314 1.400 . S
C315 C316 1.398 . S
C316 H304 0.950 . S
C316 C315 1.398 . S
C316 C317 1.391 . S
C317 H305 0.950 . S
C317 C313 1.393 . S
C317 C316 1.391 . S
H318 C326 0.950 . S
H319 C331 0.950 . S
H320 C328 0.950 1_455 S
H321 C330 0.950 . S
H322 C332 0.950 . S
H323 C334 0.950 . S
H324 C336 0.950 . S
H325 C337 0.950 . S
C326 H318 0.950 . S
C326 C327 1.386 . S
C326 C328 1.391 . S
C327 C326 1.386 . S
C327 C331 1.393 . S
C328 H320 0.950 1_655 S
C328 C326 1.391 . S
C328 C329 1.400 . S
C329 C328 1.400 . S
C329 C330 1.398 . S
C329 C335 1.491 1_655 S
C330 H321 0.950 . S
C330 C329 1.398 . S
C330 C331 1.391 . S
C331 H319 0.950 . S
C331 C327 1.393 . S
C331 C330 1.391 . S
C332 H322 0.950 . S
C332 C333 1.386 . S
C332 C334 1.391 . S
C333 C332 1.386 . S
C333 C337 1.393 . S
C334 H323 0.950 . S
C334 C332 1.391 . S
C334 C335 1.400 . S
C335 C329 1.491 1_455 S
C335 C334 1.400 . S
C335 C336 1.398 . S
C336 H324 0.950 . S
C336 C335 1.398 . S
C336 C337 1.391 . S
C337 H325 0.950 . S
C337 C333 1.393 . S
C337 C336 1.391 . S
H338 C346 0.950 . S
H339 C351 0.950 . S
H340 C348 0.950 . S
H341 C350 0.950 . S
H342 C352 0.950 . S
H343 C354 0.950 . S
H344 C356 0.950 . S
H345 C357 0.950 . S
C346 H338 0.950 . S
C346 C347 1.386 . S
C346 C348 1.391 . S
C347 C346 1.386 . S
C347 C351 1.393 . S
C348 H340 0.950 . S
C348 C346 1.391 . S
C348 C349 1.400 . S
C349 C348 1.400 . S
C349 C350 1.398 . S
C349 C355 1.491 . S
C350 H341 0.950 . S
C350 C349 1.398 . S
C350 C351 1.391 . S
C351 H339 0.950 . S
C351 C347 1.393 . S
C351 C350 1.391 . S
C352 H342 0.950 . S
C352 C353 1.386 . S
C352 C354 1.391 . S
C353 C352 1.386 . S
C353 C357 1.393 . S
C354 H343 0.950 . S
C354 C352 1.391 . S
C354 C355 1.400 . S
C355 C349 1.491 . S
C355 C354 1.400 . S
C355 C356 1.398 . S
C356 H344 0.950 . S
C356 C355 1.398 . S
C356 C357 1.391 . S
C357 H345 0.950 . S
C357 C353 1.393 . S
C357 C356 1.391 . S
H358 C366 0.950 . S
H359 C371 0.950 . S
H360 C368 0.950 . S
H361 C370 0.950 . S
H362 C372 0.950 . S
H363 C374 0.950 . S
H364 C376 0.950 . S
H365 C377 0.950 . S
C366 H358 0.950 . S
C366 C367 1.386 . S
C366 C368 1.391 . S
C367 C366 1.386 . S
C367 C371 1.393 . S
C368 H360 0.950 . S
C368 C366 1.391 . S
C368 C369 1.400 . S
C369 C368 1.400 . S
C369 C370 1.398 . S
C369 C375 1.491 1_565 S
C370 H361 0.950 . S
C370 C369 1.398 . S
C370 C371 1.391 . S
C371 H359 0.950 . S
C371 C367 1.393 . S
C371 C370 1.391 . S
C372 H362 0.950 . S
C372 C373 1.386 . S
C372 C374 1.391 . S
C373 C372 1.386 . S
C373 C377 1.393 . S
C374 H363 0.950 . S
C374 C372 1.391 . S
C374 C375 1.400 . S
C375 C369 1.491 1_545 S
C375 C374 1.400 . S
C375 C376 1.398 . S
C376 H364 0.950 . S
C376 C375 1.398 . S
C376 C377 1.391 . S
C377 H365 0.950 . S
C377 C373 1.393 . S
C377 C376 1.391 . S
H378 C386 0.950 1_565 S
H379 C391 0.950 . S
H380 C388 0.950 1_565 S
H381 C390 0.950 . S
H382 C392 0.950 . S
H383 C394 0.950 . S
H384 C396 0.950 . S
H385 C397 0.950 . S
C386 H378 0.950 1_545 S
C386 C387 1.386 . S
C386 C388 1.391 . S
C387 C386 1.386 . S
C387 C391 1.393 1_455 S
C388 H380 0.950 1_545 S
C388 C386 1.391 . S
C388 C389 1.400 . S
C389 C388 1.400 . S
C389 C390 1.398 1_455 S
C389 C395 1.491 . S
C390 H381 0.950 . S
C390 C389 1.398 1_655 S
C390 C391 1.391 . S
C391 H379 0.950 . S
C391 C387 1.393 1_655 S
C391 C390 1.391 . S
C392 H382 0.950 . S
C392 C393 1.386 1_655 S
C392 C394 1.391 . S
C393 C392 1.386 1_455 S
C393 C397 1.393 . S
C394 H383 0.950 . S
C394 C392 1.391 . S
C394 C395 1.400 1_655 S
C395 C389 1.491 . S
C395 C394 1.400 1_455 S
C395 C396 1.398 . S
C396 H384 0.950 . S
C396 C395 1.398 . S
C396 C397 1.391 . S
C397 H385 0.950 . S
C397 C393 1.393 . S
C397 C396 1.391 . S
H398 C406 0.950 . S
H399 C411 0.950 . S
H400 C408 0.950 . S
H401 C410 0.950 . S
H402 C412 0.950 . S
H403 C414 0.950 . S
H404 C416 0.950 . S
H405 C417 0.950 . S
C406 H398 0.950 . S
C406 C407 1.386 . S
C406 C408 1.391 . S
C407 C406 1.386 . S
C407 C411 1.393 . S
C408 H400 0.950 . S
C408 C406 1.391 . S
C408 C409 1.400 . S
C409 C408 1.400 . S
C409 C410 1.398 . S
C409 C415 1.491 . S
C410 H401 0.950 . S
C410 C409 1.398 . S
C410 C411 1.391 . S
C411 H399 0.950 . S
C411 C407 1.393 . S
C411 C410 1.391 . S
C412 H402 0.950 . S
C412 C413 1.386 . S
C412 C414 1.391 . S
C413 C412 1.386 . S
C413 C417 1.393 . S
C414 H403 0.950 . S
C414 C412 1.391 . S
C414 C415 1.400 . S
C415 C409 1.491 . S
C415 C414 1.400 . S
C415 C416 1.398 . S
C416 H404 0.950 . S
C416 C415 1.398 . S
C416 C417 1.391 . S
C417 H405 0.950 . S
C417 C413 1.393 . S
C417 C416 1.391 . S
H418 C426 0.950 . S
H419 C431 0.950 . S
H420 C428 0.950 . S
H421 C430 0.950 . S
H422 C432 0.950 . S
H423 C434 0.950 . S
H424 C436 0.950 . S
H425 C437 0.950 . S
C426 H418 0.950 . S
C426 C427 1.386 . S
C426 C428 1.391 . S
C427 C426 1.386 . S
C427 C431 1.393 . S
C428 H420 0.950 . S
C428 C426 1.391 . S
C428 C429 1.400 . S
C429 C428 1.400 . S
C429 C430 1.398 . S
C429 C435 1.491 . S
C430 H421 0.950 . S
C430 C429 1.398 . S
C430 C431 1.391 . S
C431 H419 0.950 . S
C431 C427 1.393 . S
C431 C430 1.391 . S
C432 H422 0.950 . S
C432 C433 1.386 . S
C432 C434 1.391 . S
C433 C432 1.386 . S
C433 C437 1.393 . S
C434 H423 0.950 . S
C434 C432 1.391 . S
C434 C435 1.400 . S
C435 C429 1.491 . S
C435 C434 1.400 . S
C435 C436 1.398 . S
C436 H424 0.950 . S
C436 C435 1.398 . S
C436 C437 1.391 . S
C437 H425 0.950 . S
C437 C433 1.393 . S
C437 C436 1.391 . S
H438 C446 0.950 1_655 S
H439 C451 0.950 . S
H440 C448 0.950 . S
H441 C450 0.950 . S
H442 C452 0.950 . S
H443 C454 0.950 . S
H444 C456 0.950 . S
H445 C457 0.950 . S
C446 H438 0.950 1_455 S
C446 C447 1.386 1_565 S
C446 C448 1.391 1_455 S
C447 C446 1.386 1_545 S
C447 C451 1.393 . S
C448 H440 0.950 . S
C448 C446 1.391 1_655 S
C448 C449 1.400 1_665 S
C449 C448 1.400 1_445 S
C449 C450 1.398 . S
C449 C455 1.491 1_554 S
C450 H441 0.950 . S
C450 C449 1.398 . S
C450 C451 1.391 . S
C451 H439 0.950 . S
C451 C447 1.393 . S
C451 C450 1.391 . S
C452 H442 0.950 . S
C452 C453 1.386 1_455 S
C452 C454 1.391 . S
C453 C452 1.386 1_655 S
C453 C457 1.393 1_545 S
C454 H443 0.950 . S
C454 C452 1.391 . S
C454 C455 1.400 . S
C455 C449 1.491 1_556 S
C455 C454 1.400 . S
C455 C456 1.398 1_445 S
C456 H444 0.950 . S
C456 C455 1.398 1_665 S
C456 C457 1.391 . S
C457 H445 0.950 . S
C457 C453 1.393 1_565 S
C457 C456 1.391 . S
H458 C466 0.950 . S
H459 C471 0.950 . S
H460 C468 0.950 . S
H461 C470 0.950 . S
H462 C472 0.950 . S
H463 C474 0.950 . S
H464 C476 0.950 . S
H465 C477 0.950 . S
C466 H458 0.950 . S
C466 C467 1.386 . S
C466 C468 1.391 . S
C467 C466 1.386 . S
C467 C471 1.393 . S
C468 H460 0.950 . S
C468 C466 1.391 . S
C468 C469 1.400 . S
C469 C468 1.400 . S
C469 C470 1.398 . S
C469 C475 1.491 . S
C470 H461 0.950 . S
C470 C469 1.398 . S
C470 C471 1.391 . S
C471 H459 0.950 . S
C471 C467 1.393 . S
C471 C470 1.391 . S
C472 H462 0.950 . S
C472 C473 1.386 . S
C472 C474 1.391 . S
C473 C472 1.386 . S
C473 C477 1.393 . S
C474 H463 0.950 . S
C474 C472 1.391 . S
C474 C475 1.400 . S
C475 C469 1.491 . S
C475 C474 1.400 . S
C475 C476 1.398 . S
C476 H464 0.950 . S
C476 C475 1.398 . S
C476 C477 1.391 . S
C477 H465 0.950 . S
C477 C473 1.393 . S
C477 C476 1.391 . S
H478 C486 0.950 . S
H479 C491 0.950 . S
H480 C488 0.950 . S
H481 C490 0.950 . S
H482 C492 0.950 . S
H483 C494 0.950 . S
H484 C496 0.950 . S
H485 C497 0.950 . S
C486 H478 0.950 . S
C486 C487 1.386 . S
C486 C488 1.391 . S
C487 C486 1.386 . S
C487 C491 1.393 . S
C488 H480 0.950 . S
C488 C486 1.391 . S
C488 C489 1.400 . S
C489 C488 1.400 . S
C489 C490 1.398 . S
C489 C495 1.491 . S
C490 H481 0.950 . S
C490 C489 1.398 . S
C490 C491 1.391 . S
C491 H479 0.950 . S
C491 C487 1.393 . S
C491 C490 1.391 . S
C492 H482 0.950 . S
C492 C493 1.386 . S
C492 C494 1.391 . S
C493 C492 1.386 . S
C493 C497 1.393 . S
C494 H483 0.950 . S
C494 C492 1.391 . S
C494 C495 1.400 . S
C495 C489 1.491 . S
C495 C494 1.400 . S
C495 C496 1.398 . S
C496 H484 0.950 . S
C496 C495 1.398 . S
C496 C497 1.391 . S
C497 H485 0.950 . S
C497 C493 1.393 . S
C497 C496 1.391 . S
C207 C18 2.012 . S
C213 C117 2.012 . S
C227 C7 1.562 . S
C233 C120 1.547 . S
C247 C106 1.562 . S
C253 C21 1.550 . S
C267 C40 1.570 . S
C273 C153 1.560 . S
C287 C150 2.006 . S
C293 C51 2.006 . S
C307 C54 1.551 . S
C313 C139 1.564 . S
C327 C84 2.001 . S
C333 C183 2.002 . S
C347 C73 1.564 . S
C353 C186 1.550 . S
C367 C172 1.570 . S
C373 C87 1.560 . S
C387 N35 2.210 1_455 S
C393 N2 2.213 . S
C407 N101 2.222 . S
C413 N68 2.221 . S
C427 N167 2.210 . S
C433 N134 2.212 . S
C447 N13 0.662 . S
C453 N46 0.676 1_655 S
C467 N112 0.658 . S
C473 N79 0.658 . S
C487 N178 0.693 . S
C493 N145 0.675 . S
