# Generated by pormake.
# Topology umy, (4)-cn, num edge types: 1
# Building blocks:
#     Node 0, Type 0, BuildingBlock: TATPOV_clean_sbu_0, # of connection points: 4
#     Node 1, Type 0, BuildingBlock: TATPOV_clean_sbu_0, # of connection points: 4
#     Node 2, Type 0, BuildingBlock: TATPOV_clean_sbu_0, # of connection points: 4
#     Node 3, Type 0, BuildingBlock: TATPOV_clean_sbu_0, # of connection points: 4
#     Node 4, Type 0, BuildingBlock: TATPOV_clean_sbu_0, # of connection points: 4
#     Node 5, Type 0, BuildingBlock: TATPOV_clean_sbu_0, # of connection points: 4
#     Node 6, Type 0, BuildingBlock: TATPOV_clean_sbu_0, # of connection points: 4
#     Node 7, Type 0, BuildingBlock: TATPOV_clean_sbu_0, # of connection points: 4
#     Node 8, Type 0, BuildingBlock: TATPOV_clean_sbu_0, # of connection points: 4
#     Node 9, Type 0, BuildingBlock: TATPOV_clean_sbu_0, # of connection points: 4
#     Node 10, Type 0, BuildingBlock: TATPOV_clean_sbu_0, # of connection points: 4
#     Node 11, Type 0, BuildingBlock: TATPOV_clean_sbu_0, # of connection points: 4
#     Edge 12, Type (0, 0), BuildingBlock: KIFKEQ_clean_linker_1, # of connection points: 2
#     Edge 13, Type (0, 0), BuildingBlock: KIFKEQ_clean_linker_1, # of connection points: 2
#     Edge 14, Type (0, 0), BuildingBlock: KIFKEQ_clean_linker_1, # of connection points: 2
#     Edge 15, Type (0, 0), BuildingBlock: KIFKEQ_clean_linker_1, # of connection points: 2
#     Edge 16, Type (0, 0), BuildingBlock: KIFKEQ_clean_linker_1, # of connection points: 2
#     Edge 17, Type (0, 0), BuildingBlock: KIFKEQ_clean_linker_1, # of connection points: 2
#     Edge 18, Type (0, 0), BuildingBlock: KIFKEQ_clean_linker_1, # of connection points: 2
#     Edge 19, Type (0, 0), BuildingBlock: KIFKEQ_clean_linker_1, # of connection points: 2
#     Edge 20, Type (0, 0), BuildingBlock: KIFKEQ_clean_linker_1, # of connection points: 2
#     Edge 21, Type (0, 0), BuildingBlock: KIFKEQ_clean_linker_1, # of connection points: 2
#     Edge 22, Type (0, 0), BuildingBlock: KIFKEQ_clean_linker_1, # of connection points: 2
#     Edge 23, Type (0, 0), BuildingBlock: KIFKEQ_clean_linker_1, # of connection points: 2
#     Edge 24, Type (0, 0), BuildingBlock: KIFKEQ_clean_linker_1, # of connection points: 2
#     Edge 25, Type (0, 0), BuildingBlock: KIFKEQ_clean_linker_1, # of connection points: 2
#     Edge 26, Type (0, 0), BuildingBlock: KIFKEQ_clean_linker_1, # of connection points: 2
#     Edge 27, Type (0, 0), BuildingBlock: KIFKEQ_clean_linker_1, # of connection points: 2
#     Edge 28, Type (0, 0), BuildingBlock: KIFKEQ_clean_linker_1, # of connection points: 2
#     Edge 29, Type (0, 0), BuildingBlock: KIFKEQ_clean_linker_1, # of connection points: 2
#     Edge 30, Type (0, 0), BuildingBlock: KIFKEQ_clean_linker_1, # of connection points: 2
#     Edge 31, Type (0, 0), BuildingBlock: KIFKEQ_clean_linker_1, # of connection points: 2
#     Edge 32, Type (0, 0), BuildingBlock: KIFKEQ_clean_linker_1, # of connection points: 2
#     Edge 33, Type (0, 0), BuildingBlock: KIFKEQ_clean_linker_1, # of connection points: 2
#     Edge 34, Type (0, 0), BuildingBlock: KIFKEQ_clean_linker_1, # of connection points: 2
#     Edge 35, Type (0, 0), BuildingBlock: KIFKEQ_clean_linker_1, # of connection points: 2
# Relax obj value: 0.091
# Max RMSD: 0.114
# Mean RMSD: 0.114
data_MOF--net-umy--node1-TATPOV_clean_sbu_0--edge1-KIFKEQ_clean_linker_1
_symmetry_space_group_name_H-M    P1
_symmetry_Int_Tables_number       1
_symmetry_cell_setting            triclinic
loop_
_symmetry_equiv_pos_as_xyz
'x, y, z'
_cell_length_a     39.865017
_cell_length_b     39.896839
_cell_length_c     49.515422
_cell_angle_alpha  89.995983
_cell_angle_beta   89.93065
_cell_angle_gamma 119.94345
loop_
_atom_site_label
_atom_site_type_symbol
_atom_site_fract_x
_atom_site_fract_y
_atom_site_fract_z
_atom_type_partial_charge
Zn0 Zn 0.09566 0.28534 0.11126 0.0
Zn1 Zn 0.09853 0.35332 0.10453 0.0
O2 O 0.03991 0.31504 0.1075 0.0
O3 O 0.0372 0.25866 0.11078 0.0
O4 O 0.10099 0.40398 0.0969 0.0
O5 O 0.12434 0.29164 0.07679 0.0
O6 O 0.12789 0.34821 0.07145 0.0
C7 C 0.02027 0.27833 0.10954 0.0
C8 C 0.13428 0.33972 0.15491 0.0
O9 O 0.12557 0.36137 0.14126 0.0
O10 O 0.12549 0.30642 0.14626 0.0
C11 C 0.08908 0.42003 0.11351 0.0
O12 O 0.07497 0.40336 0.13692 0.0
C13 C 0.13531 0.32228 0.06333 0.0
Zn14 Zn 0.7969 0.08593 0.27024 0.0
Zn15 Zn 0.73813 0.09813 0.2645 0.0
O16 O 0.71359 0.03905 0.2716 0.0
O17 O 0.76277 0.02911 0.27629 0.0
O18 O 0.69103 0.10392 0.2588 0.0
O19 O 0.81594 0.10518 0.23322 0.0
O20 O 0.77058 0.121 0.2292 0.0
C21 C 0.72664 0.01616 0.27602 0.0
C22 C 0.7948 0.13745 0.31063 0.0
O23 O 0.76352 0.13017 0.29876 0.0
O24 O 0.81467 0.12297 0.30184 0.0
C25 C 0.66107 0.08411 0.27325 0.0
O26 O 0.66198 0.06141 0.2921 0.0
C27 C 0.80001 0.12028 0.21969 0.0
Zn28 Zn 0.69627 0.81512 0.45187 0.0
Zn29 Zn 0.63355 0.74621 0.44343 0.0
O30 O 0.67738 0.73311 0.44439 0.0
O31 O 0.72975 0.79035 0.44793 0.0
O32 O 0.58542 0.69534 0.43545 0.0
O33 O 0.68398 0.83819 0.42041 0.0
O34 O 0.63422 0.78061 0.41149 0.0
C35 C 0.71407 0.75393 0.44588 0.0
C36 C 0.64248 0.79023 0.49618 0.0
O37 O 0.62301 0.76051 0.4814 0.0
O38 O 0.6747 0.81764 0.48811 0.0
C39 C 0.58149 0.6626 0.44149 0.0
O40 O 0.60978 0.66104 0.45392 0.0
C41 C 0.6553 0.81641 0.40579 0.0
Zn42 Zn 0.91165 0.72055 0.60632 0.0
Zn43 Zn 0.90651 0.65403 0.593 0.0
O44 O 0.96509 0.68921 0.6009 0.0
O45 O 0.96914 0.74496 0.61071 0.0
O46 O 0.90302 0.60386 0.58162 0.0
O47 O 0.89101 0.72498 0.57089 0.0
O48 O 0.88306 0.66797 0.55996 0.0
C49 C 0.9852 0.72475 0.60747 0.0
C50 C 0.86409 0.65908 0.64311 0.0
O51 O 0.87411 0.63971 0.628 0.0
O52 O 0.87537 0.69418 0.63777 0.0
C53 C 0.91119 0.58481 0.59833 0.0
O54 O 0.92156 0.59819 0.62298 0.0
C55 C 0.87987 0.69747 0.55422 0.0
Zn56 Zn 0.19494 0.89367 0.78671 0.0
Zn57 Zn 0.25887 0.89206 0.77503 0.0
O58 O 0.27905 0.95033 0.78142 0.0
O59 O 0.22586 0.95125 0.79196 0.0
O60 O 0.30731 0.89078 0.76524 0.0
O61 O 0.17271 0.87316 0.75049 0.0
O62 O 0.22339 0.86685 0.74143 0.0
C63 C 0.26213 0.96901 0.78828 0.0
C64 C 0.21064 0.8492 0.82484 0.0
O65 O 0.24124 0.86118 0.81068 0.0
O66 O 0.185 0.85749 0.8181 0.0
C67 C 0.33532 0.90281 0.7818 0.0
O68 O 0.33214 0.91585 0.80548 0.0
C69 C 0.19067 0.86275 0.73463 0.0
Zn70 Zn 0.30061 0.18776 0.95254 0.0
Zn71 Zn 0.36412 0.25591 0.94316 0.0
O72 O 0.32151 0.27065 0.94618 0.0
O73 O 0.2689 0.21455 0.95319 0.0
O74 O 0.41244 0.30619 0.93431 0.0
O75 O 0.30817 0.16529 0.91865 0.0
O76 O 0.36095 0.22118 0.91079 0.0
C77 C 0.28516 0.25092 0.95043 0.0
C78 C 0.35753 0.21033 0.99465 0.0
O79 O 0.37601 0.24077 0.98034 0.0
O80 O 0.32511 0.18301 0.98683 0.0
C81 C 0.41887 0.33884 0.94303 0.0
O82 O 0.39331 0.34048 0.95891 0.0
C83 C 0.33732 0.18631 0.90412 0.0
Zn84 Zn 0.72099 0.91326 0.72163 0.0
Zn85 Zn 0.65284 0.90501 0.73519 0.0
O86 O 0.68627 0.96337 0.72641 0.0
O87 O 0.74302 0.9703 0.71579 0.0
O88 O 0.60188 0.90009 0.74627 0.0
O89 O 0.72644 0.8943 0.75763 0.0
O90 O 0.66812 0.88312 0.76834 0.0
C91 C 0.72134 0.98475 0.71899 0.0
C92 C 0.65935 0.86269 0.68577 0.0
O93 O 0.63929 0.872 0.70075 0.0
O94 O 0.69482 0.87544 0.69089 0.0
C95 C 0.58408 0.91003 0.72971 0.0
O96 O 0.59928 0.9229 0.70574 0.0
C97 C 0.69864 0.88184 0.77422 0.0
Zn98 Zn 0.81637 0.69628 0.87718 0.0
Zn99 Zn 0.74673 0.63403 0.88517 0.0
O100 O 0.73419 0.67821 0.88348 0.0
O101 O 0.79187 0.7301 0.88013 0.0
O102 O 0.69548 0.58608 0.89301 0.0
O103 O 0.83822 0.68413 0.9094 0.0
O104 O 0.78008 0.6348 0.91781 0.0
C105 C 0.75543 0.71483 0.88186 0.0
C106 C 0.79227 0.64229 0.83312 0.0
O107 O 0.76202 0.62321 0.84756 0.0
O108 O 0.81974 0.67433 0.84133 0.0
C109 C 0.6626 0.58267 0.88813 0.0
O110 O 0.66085 0.61153 0.87681 0.0
C111 C 0.81571 0.65574 0.92402 0.0
Zn112 Zn 0.09391 0.80172 0.05063 0.0
Zn113 Zn 0.09906 0.74006 0.06409 0.0
O114 O 0.04062 0.71748 0.05695 0.0
O115 O 0.03631 0.76854 0.04567 0.0
O116 O 0.10183 0.69307 0.0754 0.0
O117 O 0.11452 0.82603 0.08644 0.0
O118 O 0.12347 0.77738 0.09678 0.0
C119 C 0.02033 0.73244 0.04962 0.0
C120 C 0.14079 0.78656 0.01371 0.0
O121 O 0.1304 0.75704 0.02872 0.0
O122 O 0.13039 0.81102 0.01933 0.0
C123 C 0.08946 0.66431 0.05951 0.0
O124 O 0.07563 0.66624 0.03585 0.0
C125 C 0.12638 0.80983 0.10275 0.0
Zn126 Zn 0.28576 0.09933 0.22376 0.0
Zn127 Zn 0.35143 0.10023 0.23494 0.0
O128 O 0.31258 0.04197 0.22856 0.0
O129 O 0.25829 0.04164 0.2196 0.0
O130 O 0.40199 0.1021 0.24334 0.0
O131 O 0.28547 0.12074 0.25987 0.0
O132 O 0.34162 0.12518 0.26903 0.0
C133 C 0.27665 0.02363 0.22271 0.0
C134 C 0.34551 0.14334 0.1853 0.0
O135 O 0.36418 0.13164 0.19963 0.0
O136 O 0.31138 0.13465 0.19182 0.0
C137 C 0.41029 0.07804 0.23283 0.0
O138 O 0.38539 0.05135 0.21643 0.0
C139 C 0.31348 0.13011 0.27584 0.0
Zn140 Zn 0.1873 0.29321 0.39246 0.0
Zn141 Zn 0.25441 0.35988 0.3973 0.0
O142 O 0.27165 0.3191 0.39545 0.0
O143 O 0.21662 0.2639 0.39395 0.0
O144 O 0.30423 0.41001 0.40302 0.0
O145 O 0.16645 0.30391 0.42606 0.0
O146 O 0.22175 0.35854 0.43054 0.0
C147 C 0.25329 0.28229 0.39438 0.0
C148 C 0.20413 0.34508 0.34713 0.0
O149 O 0.23502 0.3667 0.36027 0.0
O150 O 0.179 0.31265 0.35668 0.0
C151 C 0.33639 0.41654 0.39313 0.0
O152 O 0.3375 0.39007 0.378 0.0
C153 C 0.18774 0.33474 0.4389 0.0
Zn154 Zn 0.90183 0.19964 0.55025 0.0
Zn155 Zn 0.89401 0.26072 0.55389 0.0
O156 O 0.95323 0.28236 0.55361 0.0
O157 O 0.95936 0.23071 0.55636 0.0
O158 O 0.88995 0.30848 0.5601 0.0
O159 O 0.8645 0.17233 0.58021 0.0
O160 O 0.86201 0.22578 0.58616 0.0
C161 C 0.97471 0.26713 0.55514 0.0
C162 C 0.86974 0.21365 0.50204 0.0
O163 O 0.8706 0.24106 0.51587 0.0
O164 O 0.88207 0.19271 0.51223 0.0
C165 C 0.90637 0.33805 0.54489 0.0
O166 O 0.92586 0.3373 0.5237 0.0
C167 C 0.85211 0.19128 0.59311 0.0
H168 H 0.11271 0.64942 0.10786 0.0
H169 H 0.06745 0.59903 0.02967 0.0
H170 H 0.11341 0.59089 0.12122 0.0
H171 H 0.06769 0.54043 0.04318 0.0
H172 H 0.11346 0.45973 0.06593 0.0
H173 H 0.11433 0.51914 0.0533 0.0
H174 H 0.06773 0.5223 0.13145 0.0
H175 H 0.06731 0.46301 0.14431 0.0
C176 C 0.10287 0.62587 0.09353 0.0
C177 C 0.09009 0.62893 0.06767 0.0
C178 C 0.10306 0.59225 0.10126 0.0
C179 C 0.09064 0.56105 0.08326 0.0
C180 C 0.07791 0.56416 0.0574 0.0
C181 C 0.07759 0.59768 0.04971 0.0
C182 C 0.10347 0.4731 0.08048 0.0
C183 C 0.09024 0.45656 0.10613 0.0
C184 C 0.10377 0.50705 0.07316 0.0
C185 C 0.09095 0.52535 0.09133 0.0
C186 C 0.07813 0.50908 0.1171 0.0
C187 C 0.0777 0.475 0.1244 0.0
H188 H 0.65208 0.13827 0.24513 0.0
H189 H 0.5882 0.03124 0.2895 0.0
H190 H 0.59151 0.13784 0.23575 0.0
H191 H 0.5279 0.03065 0.27974 0.0
H192 H 0.42891 0.02164 0.22509 0.0
H193 H 0.49009 0.02428 0.23533 0.0
H194 H 0.53725 0.14132 0.2642 0.0
H195 H 0.47574 0.13863 0.25433 0.0
C196 C 0.62517 0.11473 0.25288 0.0
C197 C 0.62488 0.08479 0.26804 0.0
C198 C 0.59061 0.11459 0.24761 0.0
C199 C 0.55513 0.08415 0.25696 0.0
C200 C 0.55487 0.05431 0.27215 0.0
C201 C 0.58941 0.05479 0.27783 0.0
C202 C 0.45229 0.04795 0.23362 0.0
C203 C 0.44748 0.0799 0.23897 0.0
C204 C 0.48722 0.04937 0.23957 0.0
C205 C 0.51828 0.08298 0.25057 0.0
C206 C 0.51375 0.11514 0.2556 0.0
C207 C 0.47853 0.1135 0.2501 0.0
H208 H 0.51491 0.65563 0.4205 0.0
H209 H 0.56679 0.58813 0.44595 0.0
H210 H 0.45589 0.59638 0.40818 0.0
H211 H 0.50758 0.52887 0.43374 0.0
H212 H 0.41085 0.43594 0.38087 0.0
H213 H 0.47019 0.49558 0.39227 0.0
H214 H 0.40266 0.53911 0.43128 0.0
H215 H 0.34332 0.47969 0.41978 0.0
C216 C 0.51373 0.62817 0.4235 0.0
C217 C 0.54556 0.6266 0.43423 0.0
C218 C 0.47984 0.59423 0.41655 0.0
C219 C 0.47713 0.558 0.41999 0.0
C220 C 0.50899 0.55641 0.43061 0.0
C221 C 0.5428 0.59035 0.43775 0.0
C222 C 0.40864 0.45828 0.39179 0.0
C223 C 0.37235 0.45306 0.39942 0.0
C224 C 0.44264 0.49232 0.39846 0.0
C225 C 0.44106 0.52197 0.4127 0.0
C226 C 0.40477 0.51692 0.42007 0.0
C227 C 0.3708 0.48279 0.41359 0.0
H228 H 0.8952 0.55128 0.54822 0.0
H229 H 0.92323 0.53558 0.62984 0.0
H230 H 0.89262 0.49115 0.53482 0.0
H231 H 0.92107 0.4758 0.61633 0.0
H232 H 0.87362 0.35082 0.58938 0.0
H233 H 0.87365 0.40993 0.60177 0.0
H234 H 0.93684 0.46506 0.52889 0.0
H235 H 0.93648 0.40573 0.51627 0.0
C236 C 0.90084 0.53505 0.5633 0.0
C237 C 0.9094 0.54824 0.59011 0.0
C238 C 0.89956 0.5007 0.55557 0.0
C239 C 0.9066 0.47869 0.57451 0.0
C240 C 0.91502 0.49184 0.60133 0.0
C241 C 0.91648 0.52624 0.60903 0.0
C242 C 0.88738 0.37546 0.5759 0.0
C243 C 0.90513 0.37355 0.55184 0.0
C244 C 0.8876 0.40942 0.58311 0.0
C245 C 0.9054 0.44224 0.56638 0.0
C246 C 0.92258 0.44016 0.54209 0.0
C247 C 0.92253 0.40621 0.53493 0.0
H248 H 0.54539 0.88631 0.77791 0.0
H249 H 0.539 0.92876 0.69888 0.0
H250 H 0.48475 0.88329 0.79051 0.0
H251 H 0.47881 0.92635 0.71165 0.0
H252 H 0.35191 0.87937 0.73416 0.0
H253 H 0.41133 0.8798 0.72179 0.0
H254 H 0.45977 0.92693 0.80001 0.0
H255 H 0.40012 0.92591 0.81258 0.0
C256 C 0.5311 0.89504 0.76323 0.0
C257 C 0.54706 0.90778 0.73738 0.0
C258 C 0.49645 0.89352 0.77051 0.0
C259 C 0.47694 0.90461 0.75209 0.0
C260 C 0.49283 0.91713 0.7262 0.0
C261 C 0.52748 0.91873 0.71894 0.0
C262 C 0.37518 0.88975 0.74875 0.0
C263 C 0.37125 0.90264 0.77436 0.0
C264 C 0.40934 0.89019 0.7416 0.0
C265 C 0.44034 0.90347 0.75989 0.0
C266 C 0.43628 0.91609 0.78557 0.0
C267 C 0.40215 0.91572 0.79271 0.0
H268 H 0.43852 0.41371 0.95387 0.0
H269 H 0.48002 0.345 0.91393 0.0
H270 H 0.49732 0.47262 0.9404 0.0
H271 H 0.53854 0.40388 0.90032 0.0
H272 H 0.65593 0.51578 0.90821 0.0
H273 H 0.597 0.45712 0.92156 0.0
H274 H 0.52903 0.50947 0.8986 0.0
H275 H 0.58803 0.56839 0.88543 0.0
C276 C 0.46014 0.41115 0.94222 0.0
C277 C 0.45459 0.37464 0.93501 0.0
C278 C 0.49371 0.44491 0.93436 0.0
C279 C 0.52255 0.44288 0.9193 0.0
C280 C 0.51703 0.40638 0.91217 0.0
C281 C 0.4834 0.37265 0.91987 0.0
C282 C 0.62844 0.51481 0.90597 0.0
C283 C 0.6267 0.54679 0.89575 0.0
C284 C 0.59466 0.48111 0.9135 0.0
C285 C 0.55838 0.47868 0.91114 0.0
C286 C 0.55661 0.51063 0.90093 0.0
C287 C 0.59039 0.54429 0.89323 0.0
H288 H 0.2131 0.35815 0.05978 0.0
H289 H 0.10873 0.29588 0.01301 0.0
H290 H 0.25007 0.34961 0.02389 0.0
H291 H 0.14567 0.28829 0.97636 0.0
H292 H 0.20687 0.21764 0.95517 0.0
H293 H 0.17131 0.24575 0.97539 0.0
H294 H 0.27627 0.3569 0.97907 0.0
H295 H 0.31232 0.32824 0.95929 0.0
C296 C 0.19852 0.34422 0.04118 0.0
C297 C 0.15833 0.32781 0.03891 0.0
C298 C 0.21963 0.33933 0.02053 0.0
C299 C 0.20078 0.31776 0.99731 0.0
C300 C 0.16098 0.30447 0.99415 0.0
C301 C 0.13986 0.30911 0.01494 0.0
C302 C 0.22229 0.24829 0.95967 0.0
C303 C 0.26259 0.27046 0.95614 0.0
C304 C 0.20176 0.26461 0.9711 0.0
C305 C 0.22098 0.30358 0.97926 0.0
C306 C 0.26071 0.32664 0.97346 0.0
C307 C 0.28132 0.31025 0.96196 0.0
H308 H 0.80238 0.18379 0.19586 0.0
H309 H 0.84034 0.10039 0.18601 0.0
H310 H 0.84642 0.22316 0.15952 0.0
H311 H 0.88447 0.13938 0.15083 0.0
H312 H 0.96612 0.20766 0.09104 0.0
H313 H 0.9005 0.16801 0.10829 0.0
H314 H 0.91524 0.26357 0.15798 0.0
H315 H 0.97985 0.30376 0.13922 0.0
C316 C 0.81926 0.17336 0.1854 0.0
C317 C 0.81841 0.13937 0.19396 0.0
C318 C 0.84475 0.19603 0.16478 0.0
C319 C 0.86948 0.18483 0.15235 0.0
C320 C 0.86579 0.14902 0.15951 0.0
C321 C 0.84063 0.12666 0.17999 0.0
C322 C 0.95467 0.2205 0.10491 0.0
C323 C 0.97812 0.25847 0.11417 0.0
C324 C 0.91719 0.19775 0.11497 0.0
C325 C 0.90292 0.21208 0.13526 0.0
C326 C 0.92506 0.25142 0.1424 0.0
C327 C 0.96226 0.27452 0.13174 0.0
H328 H 0.64599 0.7932 0.35302 0.0
H329 H 0.64788 0.87973 0.40617 0.0
H330 H 0.64894 0.83237 0.31375 0.0
H331 H 0.65005 0.91827 0.36745 0.0
H332 H 0.65413 0.98548 0.29798 0.0
H333 H 0.62074 0.92586 0.32441 0.0
H334 H 0.70764 0.89686 0.30131 0.0
H335 H 0.74093 0.95618 0.27504 0.0
C336 C 0.64548 0.81981 0.3562 0.0
C337 C 0.64693 0.83374 0.38243 0.0
C338 C 0.6473 0.84223 0.33383 0.0
C339 C 0.64977 0.8784 0.33753 0.0
C340 C 0.64765 0.89037 0.36385 0.0
C341 C 0.64668 0.86846 0.38606 0.0
C342 C 0.66529 0.96568 0.29773 0.0
C343 C 0.70061 0.97589 0.28495 0.0
C344 C 0.64621 0.93159 0.31292 0.0
C345 C 0.66189 0.907 0.31524 0.0
C346 C 0.69471 0.91508 0.29985 0.0
C347 C 0.71399 0.94929 0.28496 0.0
H348 H 0.69353 0.6844 0.46927 0.0
H349 H 0.7896 0.78332 0.43156 0.0
H350 H 0.73769 0.66455 0.48743 0.0
H351 H 0.83365 0.76242 0.44838 0.0
H352 H 0.89349 0.76257 0.52835 0.0
H353 H 0.85521 0.76908 0.49327 0.0
H354 H 0.7857 0.64456 0.48732 0.0
H355 H 0.82426 0.63817 0.52349 0.0
C356 C 0.7239 0.70098 0.46389 0.0
C357 C 0.73833 0.73589 0.44956 0.0
C358 C 0.74929 0.6895 0.47422 0.0
C359 C 0.78947 0.71248 0.47002 0.0
C360 C 0.80305 0.74471 0.45275 0.0
C361 C 0.77782 0.75661 0.44296 0.0
C362 C 0.87056 0.73649 0.51921 0.0
C363 C 0.86149 0.69988 0.52895 0.0
C364 C 0.84874 0.74019 0.49876 0.0
C365 C 0.81707 0.70733 0.48741 0.0
C366 C 0.80962 0.67047 0.49582 0.0
C367 C 0.83183 0.66677 0.51636 0.0
H368 H 0.01959 0.6922 0.6367 0.0
H369 H 0.04288 0.79702 0.59564 0.0
H370 H 0.0808 0.72788 0.66113 0.0
H371 H 0.10475 0.83235 0.61895 0.0
H372 H 0.19257 0.80447 0.706 0.0
H373 H 0.15235 0.77019 0.66659 0.0
H374 H 0.10746 0.84895 0.666 0.0
H375 H 0.14706 0.8825 0.70462 0.0
C376 C 0.03872 0.72245 0.63195 0.0
C377 C 0.02638 0.74213 0.61473 0.0
C378 C 0.07384 0.74292 0.64589 0.0
C379 C 0.09715 0.78319 0.6425 0.0
C380 C 0.08694 0.80156 0.62254 0.0
C381 C 0.05164 0.78134 0.60908 0.0
C382 C 0.17477 0.81483 0.69685 0.0
C383 C 0.17259 0.84586 0.70841 0.0
C384 C 0.15166 0.79517 0.67446 0.0
C385 C 0.12675 0.80686 0.66307 0.0
C386 C 0.1267 0.83944 0.67382 0.0
C387 C 0.14915 0.85853 0.69621 0.0
H388 H 0.23574 0.01994 0.79048 0.0
H389 H 0.33893 0.01194 0.80179 0.0
H390 H 0.2672 0.08319 0.81165 0.0
H391 H 0.37084 0.07593 0.82293 0.0
H392 H 0.36262 0.13531 0.90434 0.0
H393 H 0.35583 0.09134 0.86793 0.0
H394 H 0.31783 0.15138 0.81441 0.0
H395 H 0.32459 0.19537 0.85134 0.0
C396 C 0.2656 0.03222 0.79682 0.0
C397 C 0.28461 0.01066 0.79496 0.0
C398 C 0.28383 0.06875 0.80875 0.0
C399 C 0.32143 0.08448 0.81926 0.0
C400 C 0.34169 0.06437 0.81526 0.0
C401 C 0.32349 0.02781 0.80308 0.0
C402 C 0.35438 0.14 0.88445 0.0
C403 C 0.34427 0.16858 0.88043 0.0
C404 C 0.3506 0.11493 0.86353 0.0
C405 C 0.33597 0.11764 0.83829 0.0
C406 C 0.3289 0.14842 0.83369 0.0
C407 C 0.333 0.17374 0.85468 0.0
H408 H 0.78591 0.79061 0.89555 0.0
H409 H 0.68595 0.69497 0.8586 0.0
H410 H 0.76545 0.83501 0.87879 0.0
H411 H 0.66648 0.73947 0.84053 0.0
H412 H 0.76434 0.89534 0.79935 0.0
H413 H 0.77137 0.85682 0.83402 0.0
H414 H 0.64684 0.78759 0.84119 0.0
H415 H 0.63991 0.82627 0.80542 0.0
C416 C 0.7591 0.77901 0.8843 0.0
C417 C 0.73791 0.73951 0.87792 0.0
C418 C 0.74745 0.80445 0.87455 0.0
C419 C 0.71496 0.79106 0.85757 0.0
C420 C 0.69163 0.75093 0.85353 0.0
C421 C 0.70288 0.72534 0.8638 0.0
C422 C 0.73838 0.87241 0.80866 0.0
C423 C 0.70159 0.86344 0.79935 0.0
C424 C 0.74238 0.85044 0.82888 0.0
C425 C 0.70966 0.81878 0.84043 0.0
C426 C 0.67266 0.81147 0.8325 0.0
C427 C 0.66865 0.83377 0.81218 0.0
H428 H 0.87365 0.63976 0.9251 0.0
H429 H 0.79606 0.65647 0.97671 0.0
H430 H 0.91325 0.64474 0.96393 0.0
H431 H 0.83625 0.66219 0.01598 0.0
H432 H 0.96481 0.75301 0.04719 0.0
H433 H 0.90358 0.71912 0.02317 0.0
H434 H 0.92194 0.62252 0.00974 0.0
H435 H 0.9835 0.65655 0.03397 0.0
C436 C 0.86436 0.64302 0.94503 0.0
C437 C 0.83199 0.64771 0.94809 0.0
C438 C 0.88689 0.6457 0.96731 0.0
C439 C 0.87797 0.65405 0.99302 0.0
C440 C 0.84378 0.65577 0.99639 0.0
C441 C 0.82072 0.65232 0.97403 0.0
C442 C 0.9552 0.72401 0.0399 0.0
C443 C 0.97926 0.70774 0.04199 0.0
C444 C 0.9199 0.70441 0.02632 0.0
C445 C 0.90818 0.66834 0.01429 0.0
C446 C 0.93044 0.65043 0.01866 0.0
C447 C 0.96562 0.66988 0.03259 0.0
H448 H 0.30482 0.98368 0.1951 0.0
H449 H 0.20274 0.97038 0.23519 0.0
H450 H 0.26567 0.92135 0.17268 0.0
H451 H 0.1639 0.90743 0.21393 0.0
H452 H 0.11044 0.85861 0.13015 0.0
H453 H 0.14641 0.90098 0.16705 0.0
H454 H 0.2203 0.85045 0.16996 0.0
H455 H 0.18375 0.80757 0.13226 0.0
C456 C 0.27434 0.96658 0.20005 0.0
C457 C 0.25654 0.982 0.21639 0.0
C458 C 0.25188 0.93081 0.18727 0.0
C459 C 0.21146 0.90991 0.19099 0.0
C460 C 0.19477 0.92333 0.21008 0.0
C461 C 0.21699 0.95926 0.22237 0.0
C462 C 0.13387 0.85593 0.13896 0.0
C463 C 0.14453 0.83008 0.12818 0.0
C464 C 0.15434 0.88001 0.16038 0.0
C465 C 0.18628 0.87912 0.17157 0.0
C466 C 0.1959 0.85188 0.16169 0.0
C467 C 0.17491 0.82724 0.14027 0.0
H468 H 0.37413 0.18681 0.30503 0.0
H469 H 0.25007 0.1123 0.30533 0.0
H470 H 0.36869 0.22284 0.3435 0.0
H471 H 0.2444 0.14782 0.3428 0.0
H472 H 0.23105 0.20801 0.40825 0.0
H473 H 0.2548 0.16784 0.38845 0.0
H474 H 0.34434 0.26775 0.3467 0.0
H475 H 0.32176 0.30813 0.36771 0.0
C476 C 0.34592 0.17754 0.31379 0.0
C477 C 0.31247 0.14715 0.30207 0.0
C478 C 0.34273 0.19824 0.33565 0.0
C479 C 0.3061 0.18842 0.34625 0.0
C480 C 0.27317 0.15606 0.33562 0.0
C481 C 0.27633 0.13583 0.31384 0.0
C482 C 0.25668 0.22157 0.39563 0.0
C483 C 0.27407 0.26097 0.38906 0.0
C484 C 0.2702 0.19857 0.38415 0.0
C485 C 0.30069 0.21429 0.36526 0.0
C486 C 0.32079 0.25458 0.36111 0.0
C487 C 0.30773 0.27778 0.37309 0.0
H488 H 0.19998 0.32715 0.49211 0.0
H489 H 0.13595 0.35898 0.43799 0.0
H490 H 0.15825 0.32398 0.52968 0.0
H491 H 0.09407 0.35548 0.47492 0.0
H492 H 0.01626 0.34303 0.53916 0.0
H493 H 0.08007 0.37424 0.51798 0.0
H494 H 0.09166 0.27492 0.5374 0.0
H495 H 0.02871 0.24435 0.55905 0.0
C496 C 0.1779 0.33492 0.48857 0.0
C497 C 0.17106 0.3435 0.46241 0.0
C498 C 0.15384 0.33283 0.50994 0.0
C499 C 0.12254 0.33915 0.50532 0.0
C500 C 0.11809 0.35095 0.47943 0.0
C501 C 0.14196 0.35284 0.45817 0.0
C502 C 0.03304 0.32849 0.5398 0.0
C503 C 0.01694 0.29074 0.55015 0.0
C504 C 0.06955 0.3463 0.5275 0.0
C505 C 0.0906 0.3267 0.52536 0.0
C506 C 0.0764 0.29097 0.53862 0.0
C507 C 0.04 0.27322 0.55091 0.0
H508 H 0.86325 0.21152 0.64634 0.0
H509 H 0.78244 0.12676 0.59058 0.0
H510 H 0.82627 0.16965 0.68441 0.0
H511 H 0.74513 0.08552 0.62821 0.0
H512 H 0.67982 0.01592 0.69763 0.0
H513 H 0.70627 0.07617 0.67174 0.0
H514 H 0.82198 0.10416 0.69426 0.0
H515 H 0.79572 0.044 0.7197 0.0
C516 C 0.83672 0.18469 0.64236 0.0
C517 C 0.82547 0.17212 0.61574 0.0
C518 C 0.81569 0.16074 0.66403 0.0
C519 C 0.78282 0.12436 0.65925 0.0
C520 C 0.76995 0.11357 0.63258 0.0
C521 C 0.79136 0.13703 0.61103 0.0
C522 C 0.71079 0.03567 0.69786 0.0
C523 C 0.73581 0.02509 0.7103 0.0
C524 C 0.7259 0.07005 0.68299 0.0
C525 C 0.76617 0.09464 0.68081 0.0
C526 C 0.79083 0.08596 0.6957 0.0
C527 C 0.77581 0.05136 0.71013 0.0
H528 H 0.13586 0.32809 0.32372 0.0
H529 H 0.25894 0.38553 0.30873 0.0
H530 H 0.12467 0.33724 0.27644 0.0
H531 H 0.24749 0.39353 0.26104 0.0
H532 H 0.18365 0.32066 0.17913 0.0
H533 H 0.20585 0.33257 0.226 0.0
H534 H 0.14555 0.39581 0.239 0.0
H535 H 0.12426 0.385 0.1917 0.0
C536 C 0.16053 0.34326 0.31039 0.0
C537 C 0.19824 0.35603 0.31981 0.0
C538 C 0.15414 0.34865 0.28342 0.0
C539 C 0.18525 0.36608 0.26523 0.0
C540 C 0.22311 0.38014 0.27479 0.0
C541 C 0.22962 0.37566 0.30201 0.0
C542 C 0.1759 0.33788 0.19182 0.0
C543 C 0.15217 0.35182 0.18186 0.0
C544 C 0.18877 0.34485 0.21855 0.0
C545 C 0.17738 0.36511 0.23598 0.0
C546 C 0.15478 0.38025 0.22583 0.0
C547 C 0.14273 0.37414 0.19884 0.0
H548 H 0.83544 0.2474 0.47242 0.0
H549 H 0.87477 0.16431 0.46689 0.0
H550 H 0.81739 0.23669 0.42429 0.0
H551 H 0.85728 0.15424 0.41968 0.0
H552 H 0.86674 0.17398 0.33248 0.0
H553 H 0.88453 0.19894 0.37817 0.0
H554 H 0.7682 0.17601 0.39272 0.0
H555 H 0.75016 0.1511 0.34648 0.0
C556 C 0.84013 0.22692 0.46107 0.0
C557 C 0.85669 0.20686 0.47352 0.0
C558 C 0.8298 0.2208 0.43362 0.0
C559 C 0.83656 0.19511 0.41826 0.0
C560 C 0.85243 0.17475 0.4309 0.0
C561 C 0.86221 0.18042 0.4581 0.0
C562 C 0.84507 0.17495 0.34515 0.0
C563 C 0.80685 0.15985 0.33607 0.0
C564 C 0.8553 0.18929 0.37131 0.0
C565 C 0.82754 0.1887 0.38906 0.0
C566 C 0.79012 0.17676 0.37938 0.0
C567 C 0.77983 0.16245 0.35298 0.0
H568 H 0.6024 0.86093 0.6542 0.0
H569 H 0.68007 0.8152 0.66047 0.0
H570 H 0.58536 0.83519 0.6082 0.0
H571 H 0.66224 0.7887 0.6149 0.0
H572 H 0.61053 0.73306 0.53416 0.0
H573 H 0.60255 0.74163 0.58247 0.0
H574 H 0.63751 0.86133 0.56786 0.0
H575 H 0.64667 0.85315 0.52006 0.0
C576 C 0.61481 0.84428 0.6461 0.0
C577 C 0.64283 0.84035 0.66074 0.0
C578 C 0.60509 0.82964 0.61983 0.0
C579 C 0.6225 0.81 0.60811 0.0
C580 C 0.64812 0.80339 0.62359 0.0
C581 C 0.65851 0.81878 0.64956 0.0
C582 C 0.61539 0.76083 0.54125 0.0
C583 C 0.62935 0.79253 0.52357 0.0
C584 C 0.61095 0.76573 0.5688 0.0
C585 C 0.61934 0.80209 0.57877 0.0
C586 C 0.63043 0.83291 0.56063 0.0
C587 C 0.63585 0.82829 0.53335 0.0
H588 H 0.86608 0.60453 0.67533 0.0
H589 H 0.81442 0.67693 0.66833 0.0
H590 H 0.84108 0.58747 0.72158 0.0
H591 H 0.78873 0.65912 0.71412 0.0
H592 H 0.73518 0.60839 0.79524 0.0
H593 H 0.74414 0.6002 0.74705 0.0
H594 H 0.86478 0.63895 0.76161 0.0
H595 H 0.85615 0.64818 0.80931 0.0
C596 C 0.84833 0.61574 0.68334 0.0
C597 C 0.84245 0.64231 0.6684 0.0
C598 C 0.83413 0.60605 0.70976 0.0
C599 C 0.81301 0.622 0.72133 0.0
C600 C 0.80458 0.64611 0.70558 0.0
C601 C 0.8195 0.6565 0.67946 0.0
C602 C 0.76328 0.61404 0.78819 0.0
C603 C 0.79506 0.6291 0.80583 0.0
C604 C 0.7684 0.60949 0.7607 0.0
C605 C 0.80512 0.61891 0.75071 0.0
C606 C 0.8361 0.63107 0.76883 0.0
C607 C 0.83122 0.63655 0.79607 0.0
H608 H 0.14429 0.79335 0.84789 0.0
H609 H 0.26748 0.86251 0.86102 0.0
H610 H 0.13524 0.77183 0.89487 0.0
H611 H 0.25819 0.84184 0.90844 0.0
H612 H 0.19368 0.85333 0.98941 0.0
H613 H 0.21776 0.86109 0.94313 0.0
H614 H 0.15638 0.73713 0.93306 0.0
H615 H 0.13317 0.72923 0.97984 0.0
C616 C 0.16951 0.80308 0.86067 0.0
C617 C 0.20653 0.82967 0.85093 0.0
C618 C 0.16436 0.79064 0.88749 0.0
C619 C 0.19603 0.80529 0.9052 0.0
C620 C 0.23339 0.83008 0.89509 0.0
C621 C 0.23867 0.84176 0.868 0.0
C622 C 0.18634 0.82773 0.97759 0.0
C623 C 0.16146 0.79072 0.98809 0.0
C624 C 0.20028 0.83215 0.95119 0.0
C625 C 0.18886 0.79968 0.93461 0.0
C626 C 0.16568 0.76255 0.94555 0.0
C627 C 0.15253 0.75807 0.97226 0.0
H628 H 0.39695 0.1373 0.15205 0.0
H629 H 0.32947 0.19424 0.16001 0.0
H630 H 0.41288 0.16057 0.10539 0.0
H631 H 0.34615 0.21814 0.11375 0.0
H632 H 0.39488 0.26801 0.03165 0.0
H633 H 0.40431 0.25974 0.07968 0.0
H634 H 0.36037 0.13793 0.06632 0.0
H635 H 0.35 0.14594 0.01874 0.0
C636 C 0.38658 0.15579 0.14413 0.0
C637 C 0.36168 0.1637 0.15951 0.0
C638 C 0.39564 0.169 0.11747 0.0
C639 C 0.38073 0.1911 0.10606 0.0
C640 C 0.35834 0.20148 0.12216 0.0
C641 C 0.34858 0.18759 0.14855 0.0
C642 C 0.38836 0.23976 0.03889 0.0
C643 C 0.37151 0.20754 0.02164 0.0
C644 C 0.39361 0.23503 0.06631 0.0
C645 C 0.38305 0.19822 0.07661 0.0
C646 C 0.36912 0.16667 0.05884 0.0
C647 C 0.363 0.17121 0.03167 0.0
loop_
_geom_bond_atom_site_label_1
_geom_bond_atom_site_label_2
_geom_bond_distance
_geom_bond_site_symmetry_2
_ccdc_geom_bond_type
Zn0 O3 2.031 . S
Zn0 O5 2.049 . S
Zn0 O10 2.067 . S
Zn1 O2 1.962 . S
Zn1 O4 1.986 . S
Zn1 O6 1.996 . S
Zn1 O9 1.943 . S
O2 Zn1 1.962 . S
O2 C7 1.254 . S
O3 Zn0 2.031 . S
O3 C7 1.269 . S
O4 Zn1 1.986 . S
O4 C11 1.262 . S
O5 Zn0 2.049 . S
O5 C13 1.260 . S
O6 Zn1 1.996 . S
O6 C13 1.257 . S
C7 O2 1.254 . S
C7 O3 1.269 . S
C8 O9 1.249 . S
C8 O10 1.270 . S
O9 Zn1 1.943 . S
O9 C8 1.249 . S
O10 Zn0 2.067 . S
O10 C8 1.270 . S
C11 O4 1.262 . S
C11 O12 1.232 . S
O12 C11 1.232 . S
C13 O5 1.260 . S
C13 O6 1.257 . S
Zn14 O17 2.031 . S
Zn14 O19 2.049 . S
Zn14 O24 2.067 . S
Zn15 O16 1.962 . S
Zn15 O18 1.986 . S
Zn15 O20 1.996 . S
Zn15 O23 1.943 . S
O16 Zn15 1.962 . S
O16 C21 1.254 . S
O17 Zn14 2.031 . S
O17 C21 1.269 . S
O18 Zn15 1.986 . S
O18 C25 1.262 . S
O19 Zn14 2.049 . S
O19 C27 1.260 . S
O20 Zn15 1.996 . S
O20 C27 1.257 . S
C21 O16 1.254 . S
C21 O17 1.269 . S
C22 O23 1.249 . S
C22 O24 1.270 . S
O23 Zn15 1.943 . S
O23 C22 1.249 . S
O24 Zn14 2.067 . S
O24 C22 1.270 . S
C25 O18 1.262 . S
C25 O26 1.232 . S
O26 C25 1.232 . S
C27 O19 1.260 . S
C27 O20 1.257 . S
Zn28 O31 2.031 . S
Zn28 O33 2.049 . S
Zn28 O38 2.067 . S
Zn29 O30 1.962 . S
Zn29 O32 1.986 . S
Zn29 O34 1.996 . S
Zn29 O37 1.943 . S
O30 Zn29 1.962 . S
O30 C35 1.254 . S
O31 Zn28 2.031 . S
O31 C35 1.269 . S
O32 Zn29 1.986 . S
O32 C39 1.262 . S
O33 Zn28 2.049 . S
O33 C41 1.260 . S
O34 Zn29 1.996 . S
O34 C41 1.257 . S
C35 O30 1.254 . S
C35 O31 1.269 . S
C36 O37 1.249 . S
C36 O38 1.270 . S
O37 Zn29 1.943 . S
O37 C36 1.249 . S
O38 Zn28 2.067 . S
O38 C36 1.270 . S
C39 O32 1.262 . S
C39 O40 1.232 . S
O40 C39 1.232 . S
C41 O33 1.260 . S
C41 O34 1.257 . S
Zn42 O45 2.031 . S
Zn42 O47 2.049 . S
Zn42 O52 2.067 . S
Zn43 O44 1.962 . S
Zn43 O46 1.986 . S
Zn43 O48 1.996 . S
Zn43 O51 1.943 . S
O44 Zn43 1.962 . S
O44 C49 1.254 . S
O45 Zn42 2.031 . S
O45 C49 1.269 . S
O46 Zn43 1.986 . S
O46 C53 1.262 . S
O47 Zn42 2.049 . S
O47 C55 1.260 . S
O48 Zn43 1.996 . S
O48 C55 1.257 . S
C49 O44 1.254 . S
C49 O45 1.269 . S
C50 O51 1.249 . S
C50 O52 1.270 . S
O51 Zn43 1.943 . S
O51 C50 1.249 . S
O52 Zn42 2.067 . S
O52 C50 1.270 . S
C53 O46 1.262 . S
C53 O54 1.232 . S
O54 C53 1.232 . S
C55 O47 1.260 . S
C55 O48 1.257 . S
Zn56 O59 2.031 . S
Zn56 O61 2.049 . S
Zn56 O66 2.067 . S
Zn57 O58 1.962 . S
Zn57 O60 1.986 . S
Zn57 O62 1.996 . S
Zn57 O65 1.943 . S
O58 Zn57 1.962 . S
O58 C63 1.254 . S
O59 Zn56 2.031 . S
O59 C63 1.269 . S
O60 Zn57 1.986 . S
O60 C67 1.262 . S
O61 Zn56 2.049 . S
O61 C69 1.260 . S
O62 Zn57 1.996 . S
O62 C69 1.257 . S
C63 O58 1.254 . S
C63 O59 1.269 . S
C64 O65 1.249 . S
C64 O66 1.270 . S
O65 Zn57 1.943 . S
O65 C64 1.249 . S
O66 Zn56 2.067 . S
O66 C64 1.270 . S
C67 O60 1.262 . S
C67 O68 1.232 . S
O68 C67 1.232 . S
C69 O61 1.260 . S
C69 O62 1.257 . S
Zn70 O73 2.031 . S
Zn70 O75 2.049 . S
Zn70 O80 2.067 . S
Zn71 O72 1.962 . S
Zn71 O74 1.986 . S
Zn71 O76 1.996 . S
Zn71 O79 1.943 . S
O72 Zn71 1.962 . S
O72 C77 1.254 . S
O73 Zn70 2.031 . S
O73 C77 1.269 . S
O74 Zn71 1.986 . S
O74 C81 1.262 . S
O75 Zn70 2.049 . S
O75 C83 1.260 . S
O76 Zn71 1.996 . S
O76 C83 1.257 . S
C77 O72 1.254 . S
C77 O73 1.269 . S
C78 O79 1.249 . S
C78 O80 1.270 . S
O79 Zn71 1.943 . S
O79 C78 1.249 . S
O80 Zn70 2.067 . S
O80 C78 1.270 . S
C81 O74 1.262 . S
C81 O82 1.232 . S
O82 C81 1.232 . S
C83 O75 1.260 . S
C83 O76 1.257 . S
Zn84 O87 2.031 . S
Zn84 O89 2.049 . S
Zn84 O94 2.067 . S
Zn85 O86 1.962 . S
Zn85 O88 1.986 . S
Zn85 O90 1.996 . S
Zn85 O93 1.943 . S
O86 Zn85 1.962 . S
O86 C91 1.254 . S
O87 Zn84 2.031 . S
O87 C91 1.269 . S
O88 Zn85 1.986 . S
O88 C95 1.262 . S
O89 Zn84 2.049 . S
O89 C97 1.260 . S
O90 Zn85 1.996 . S
O90 C97 1.257 . S
C91 O86 1.254 . S
C91 O87 1.269 . S
C92 O93 1.249 . S
C92 O94 1.270 . S
O93 Zn85 1.943 . S
O93 C92 1.249 . S
O94 Zn84 2.067 . S
O94 C92 1.270 . S
C95 O88 1.262 . S
C95 O96 1.232 . S
O96 C95 1.232 . S
C97 O89 1.260 . S
C97 O90 1.257 . S
Zn98 O101 2.031 . S
Zn98 O103 2.049 . S
Zn98 O108 2.067 . S
Zn99 O100 1.962 . S
Zn99 O102 1.986 . S
Zn99 O104 1.996 . S
Zn99 O107 1.943 . S
O100 Zn99 1.962 . S
O100 C105 1.254 . S
O101 Zn98 2.031 . S
O101 C105 1.269 . S
O102 Zn99 1.986 . S
O102 C109 1.262 . S
O103 Zn98 2.049 . S
O103 C111 1.260 . S
O104 Zn99 1.996 . S
O104 C111 1.257 . S
C105 O100 1.254 . S
C105 O101 1.269 . S
C106 O107 1.249 . S
C106 O108 1.270 . S
O107 Zn99 1.943 . S
O107 C106 1.249 . S
O108 Zn98 2.067 . S
O108 C106 1.270 . S
C109 O102 1.262 . S
C109 O110 1.232 . S
O110 C109 1.232 . S
C111 O103 1.260 . S
C111 O104 1.257 . S
Zn112 O115 2.031 . S
Zn112 O117 2.049 . S
Zn112 O122 2.067 . S
Zn113 O114 1.962 . S
Zn113 O116 1.986 . S
Zn113 O118 1.996 . S
Zn113 O121 1.943 . S
O114 Zn113 1.962 . S
O114 C119 1.254 . S
O115 Zn112 2.031 . S
O115 C119 1.269 . S
O116 Zn113 1.986 . S
O116 C123 1.262 . S
O117 Zn112 2.049 . S
O117 C125 1.260 . S
O118 Zn113 1.996 . S
O118 C125 1.257 . S
C119 O114 1.254 . S
C119 O115 1.269 . S
C120 O121 1.249 . S
C120 O122 1.270 . S
O121 Zn113 1.943 . S
O121 C120 1.249 . S
O122 Zn112 2.067 . S
O122 C120 1.270 . S
C123 O116 1.262 . S
C123 O124 1.232 . S
O124 C123 1.232 . S
C125 O117 1.260 . S
C125 O118 1.257 . S
Zn126 O129 2.031 . S
Zn126 O131 2.049 . S
Zn126 O136 2.067 . S
Zn127 O128 1.962 . S
Zn127 O130 1.986 . S
Zn127 O132 1.996 . S
Zn127 O135 1.943 . S
O128 Zn127 1.962 . S
O128 C133 1.254 . S
O129 Zn126 2.031 . S
O129 C133 1.269 . S
O130 Zn127 1.986 . S
O130 C137 1.262 . S
O131 Zn126 2.049 . S
O131 C139 1.260 . S
O132 Zn127 1.996 . S
O132 C139 1.257 . S
C133 O128 1.254 . S
C133 O129 1.269 . S
C134 O135 1.249 . S
C134 O136 1.270 . S
O135 Zn127 1.943 . S
O135 C134 1.249 . S
O136 Zn126 2.067 . S
O136 C134 1.270 . S
C137 O130 1.262 . S
C137 O138 1.232 . S
O138 C137 1.232 . S
C139 O131 1.260 . S
C139 O132 1.257 . S
Zn140 O143 2.031 . S
Zn140 O145 2.049 . S
Zn140 O150 2.067 . S
Zn141 O142 1.962 . S
Zn141 O144 1.986 . S
Zn141 O146 1.996 . S
Zn141 O149 1.943 . S
O142 Zn141 1.962 . S
O142 C147 1.254 . S
O143 Zn140 2.031 . S
O143 C147 1.269 . S
O144 Zn141 1.986 . S
O144 C151 1.262 . S
O145 Zn140 2.049 . S
O145 C153 1.260 . S
O146 Zn141 1.996 . S
O146 C153 1.257 . S
C147 O142 1.254 . S
C147 O143 1.269 . S
C148 O149 1.249 . S
C148 O150 1.270 . S
O149 Zn141 1.943 . S
O149 C148 1.249 . S
O150 Zn140 2.067 . S
O150 C148 1.270 . S
C151 O144 1.262 . S
C151 O152 1.232 . S
O152 C151 1.232 . S
C153 O145 1.260 . S
C153 O146 1.257 . S
Zn154 O157 2.031 . S
Zn154 O159 2.049 . S
Zn154 O164 2.067 . S
Zn155 O156 1.962 . S
Zn155 O158 1.986 . S
Zn155 O160 1.996 . S
Zn155 O163 1.943 . S
O156 Zn155 1.962 . S
O156 C161 1.254 . S
O157 Zn154 2.031 . S
O157 C161 1.269 . S
O158 Zn155 1.986 . S
O158 C165 1.262 . S
O159 Zn154 2.049 . S
O159 C167 1.260 . S
O160 Zn155 1.996 . S
O160 C167 1.257 . S
C161 O156 1.254 . S
C161 O157 1.269 . S
C162 O163 1.249 . S
C162 O164 1.270 . S
O163 Zn155 1.943 . S
O163 C162 1.249 . S
O164 Zn154 2.067 . S
O164 C162 1.270 . S
C165 O158 1.262 . S
C165 O166 1.232 . S
O166 C165 1.232 . S
C167 O159 1.260 . S
C167 O160 1.257 . S
H168 C176 0.950 . S
H169 C181 0.950 . S
H170 C178 0.950 . S
H171 C180 0.950 . S
H172 C182 0.950 . S
H173 C184 0.950 . S
H174 C186 0.950 . S
H175 C187 0.950 . S
C176 H168 0.950 . S
C176 C177 1.386 . S
C176 C178 1.391 . S
C177 C176 1.386 . S
C177 C181 1.393 . S
C178 H170 0.950 . S
C178 C176 1.391 . S
C178 C179 1.400 . S
C179 C178 1.400 . S
C179 C180 1.398 . S
C179 C185 1.491 . S
C180 H171 0.950 . S
C180 C179 1.398 . S
C180 C181 1.391 . S
C181 H169 0.950 . S
C181 C177 1.393 . S
C181 C180 1.391 . S
C182 H172 0.950 . S
C182 C183 1.386 . S
C182 C184 1.391 . S
C183 C182 1.386 . S
C183 C187 1.393 . S
C184 H173 0.950 . S
C184 C182 1.391 . S
C184 C185 1.400 . S
C185 C179 1.491 . S
C185 C184 1.400 . S
C185 C186 1.398 . S
C186 H174 0.950 . S
C186 C185 1.398 . S
C186 C187 1.391 . S
C187 H175 0.950 . S
C187 C183 1.393 . S
C187 C186 1.391 . S
H188 C196 0.950 . S
H189 C201 0.950 . S
H190 C198 0.950 . S
H191 C200 0.950 . S
H192 C202 0.950 . S
H193 C204 0.950 . S
H194 C206 0.950 . S
H195 C207 0.950 . S
C196 H188 0.950 . S
C196 C197 1.386 . S
C196 C198 1.391 . S
C197 C196 1.386 . S
C197 C201 1.393 . S
C198 H190 0.950 . S
C198 C196 1.391 . S
C198 C199 1.400 . S
C199 C198 1.400 . S
C199 C200 1.398 . S
C199 C205 1.491 . S
C200 H191 0.950 . S
C200 C199 1.398 . S
C200 C201 1.391 . S
C201 H189 0.950 . S
C201 C197 1.393 . S
C201 C200 1.391 . S
C202 H192 0.950 . S
C202 C203 1.386 . S
C202 C204 1.391 . S
C203 C202 1.386 . S
C203 C207 1.393 . S
C204 H193 0.950 . S
C204 C202 1.391 . S
C204 C205 1.400 . S
C205 C199 1.491 . S
C205 C204 1.400 . S
C205 C206 1.398 . S
C206 H194 0.950 . S
C206 C205 1.398 . S
C206 C207 1.391 . S
C207 H195 0.950 . S
C207 C203 1.393 . S
C207 C206 1.391 . S
H208 C216 0.950 . S
H209 C221 0.950 . S
H210 C218 0.950 . S
H211 C220 0.950 . S
H212 C222 0.950 . S
H213 C224 0.950 . S
H214 C226 0.950 . S
H215 C227 0.950 . S
C216 H208 0.950 . S
C216 C217 1.386 . S
C216 C218 1.391 . S
C217 C216 1.386 . S
C217 C221 1.393 . S
C218 H210 0.950 . S
C218 C216 1.391 . S
C218 C219 1.400 . S
C219 C218 1.400 . S
C219 C220 1.398 . S
C219 C225 1.491 . S
C220 H211 0.950 . S
C220 C219 1.398 . S
C220 C221 1.391 . S
C221 H209 0.950 . S
C221 C217 1.393 . S
C221 C220 1.391 . S
C222 H212 0.950 . S
C222 C223 1.386 . S
C222 C224 1.391 . S
C223 C222 1.386 . S
C223 C227 1.393 . S
C224 H213 0.950 . S
C224 C222 1.391 . S
C224 C225 1.400 . S
C225 C219 1.491 . S
C225 C224 1.400 . S
C225 C226 1.398 . S
C226 H214 0.950 . S
C226 C225 1.398 . S
C226 C227 1.391 . S
C227 H215 0.950 . S
C227 C223 1.393 . S
C227 C226 1.391 . S
H228 C236 0.950 . S
H229 C241 0.950 . S
H230 C238 0.950 . S
H231 C240 0.950 . S
H232 C242 0.950 . S
H233 C244 0.950 . S
H234 C246 0.950 . S
H235 C247 0.950 . S
C236 H228 0.950 . S
C236 C237 1.386 . S
C236 C238 1.391 . S
C237 C236 1.386 . S
C237 C241 1.393 . S
C238 H230 0.950 . S
C238 C236 1.391 . S
C238 C239 1.400 . S
C239 C238 1.400 . S
C239 C240 1.398 . S
C239 C245 1.491 . S
C240 H231 0.950 . S
C240 C239 1.398 . S
C240 C241 1.391 . S
C241 H229 0.950 . S
C241 C237 1.393 . S
C241 C240 1.391 . S
C242 H232 0.950 . S
C242 C243 1.386 . S
C242 C244 1.391 . S
C243 C242 1.386 . S
C243 C247 1.393 . S
C244 H233 0.950 . S
C244 C242 1.391 . S
C244 C245 1.400 . S
C245 C239 1.491 . S
C245 C244 1.400 . S
C245 C246 1.398 . S
C246 H234 0.950 . S
C246 C245 1.398 . S
C246 C247 1.391 . S
C247 H235 0.950 . S
C247 C243 1.393 . S
C247 C246 1.391 . S
H248 C256 0.950 . S
H249 C261 0.950 . S
H250 C258 0.950 . S
H251 C260 0.950 . S
H252 C262 0.950 . S
H253 C264 0.950 . S
H254 C266 0.950 . S
H255 C267 0.950 . S
C256 H248 0.950 . S
C256 C257 1.386 . S
C256 C258 1.391 . S
C257 C256 1.386 . S
C257 C261 1.393 . S
C258 H250 0.950 . S
C258 C256 1.391 . S
C258 C259 1.400 . S
C259 C258 1.400 . S
C259 C260 1.398 . S
C259 C265 1.491 . S
C260 H251 0.950 . S
C260 C259 1.398 . S
C260 C261 1.391 . S
C261 H249 0.950 . S
C261 C257 1.393 . S
C261 C260 1.391 . S
C262 H252 0.950 . S
C262 C263 1.386 . S
C262 C264 1.391 . S
C263 C262 1.386 . S
C263 C267 1.393 . S
C264 H253 0.950 . S
C264 C262 1.391 . S
C264 C265 1.400 . S
C265 C259 1.491 . S
C265 C264 1.400 . S
C265 C266 1.398 . S
C266 H254 0.950 . S
C266 C265 1.398 . S
C266 C267 1.391 . S
C267 H255 0.950 . S
C267 C263 1.393 . S
C267 C266 1.391 . S
H268 C276 0.950 . S
H269 C281 0.950 . S
H270 C278 0.950 . S
H271 C280 0.950 . S
H272 C282 0.950 . S
H273 C284 0.950 . S
H274 C286 0.950 . S
H275 C287 0.950 . S
C276 H268 0.950 . S
C276 C277 1.386 . S
C276 C278 1.391 . S
C277 C276 1.386 . S
C277 C281 1.393 . S
C278 H270 0.950 . S
C278 C276 1.391 . S
C278 C279 1.400 . S
C279 C278 1.400 . S
C279 C280 1.398 . S
C279 C285 1.491 . S
C280 H271 0.950 . S
C280 C279 1.398 . S
C280 C281 1.391 . S
C281 H269 0.950 . S
C281 C277 1.393 . S
C281 C280 1.391 . S
C282 H272 0.950 . S
C282 C283 1.386 . S
C282 C284 1.391 . S
C283 C282 1.386 . S
C283 C287 1.393 . S
C284 H273 0.950 . S
C284 C282 1.391 . S
C284 C285 1.400 . S
C285 C279 1.491 . S
C285 C284 1.400 . S
C285 C286 1.398 . S
C286 H274 0.950 . S
C286 C285 1.398 . S
C286 C287 1.391 . S
C287 H275 0.950 . S
C287 C283 1.393 . S
C287 C286 1.391 . S
H288 C296 0.950 . S
H289 C301 0.950 . S
H290 C298 0.950 . S
H291 C300 0.950 . S
H292 C302 0.950 . S
H293 C304 0.950 . S
H294 C306 0.950 . S
H295 C307 0.950 . S
C296 H288 0.950 . S
C296 C297 1.386 . S
C296 C298 1.391 . S
C297 C296 1.386 . S
C297 C301 1.393 . S
C298 H290 0.950 . S
C298 C296 1.391 . S
C298 C299 1.400 . S
C299 C298 1.400 . S
C299 C300 1.398 . S
C299 C305 1.491 . S
C300 H291 0.950 . S
C300 C299 1.398 . S
C300 C301 1.391 . S
C301 H289 0.950 . S
C301 C297 1.393 . S
C301 C300 1.391 . S
C302 H292 0.950 . S
C302 C303 1.386 . S
C302 C304 1.391 . S
C303 C302 1.386 . S
C303 C307 1.393 1_556 S
C304 H293 0.950 . S
C304 C302 1.391 . S
C304 C305 1.400 1_556 S
C305 C299 1.491 . S
C305 C304 1.400 1_554 S
C305 C306 1.398 . S
C306 H294 0.950 . S
C306 C305 1.398 . S
C306 C307 1.391 . S
C307 H295 0.950 . S
C307 C303 1.393 1_554 S
C307 C306 1.391 . S
H308 C316 0.950 . S
H309 C321 0.950 . S
H310 C318 0.950 . S
H311 C320 0.950 . S
H312 C322 0.950 1_455 S
H313 C324 0.950 . S
H314 C326 0.950 . S
H315 C327 0.950 . S
C316 H308 0.950 . S
C316 C317 1.386 . S
C316 C318 1.391 . S
C317 C316 1.386 . S
C317 C321 1.393 . S
C318 H310 0.950 . S
C318 C316 1.391 . S
C318 C319 1.400 . S
C319 C318 1.400 . S
C319 C320 1.398 . S
C319 C325 1.491 . S
C320 H311 0.950 . S
C320 C319 1.398 . S
C320 C321 1.391 . S
C321 H309 0.950 . S
C321 C317 1.393 . S
C321 C320 1.391 . S
C322 H312 0.950 1_655 S
C322 C323 1.386 . S
C322 C324 1.391 . S
C323 C322 1.386 . S
C323 C327 1.393 . S
C324 H313 0.950 . S
C324 C322 1.391 . S
C324 C325 1.400 . S
C325 C319 1.491 . S
C325 C324 1.400 . S
C325 C326 1.398 . S
C326 H314 0.950 . S
C326 C325 1.398 . S
C326 C327 1.391 . S
C327 H315 0.950 . S
C327 C323 1.393 . S
C327 C326 1.391 . S
H328 C336 0.950 . S
H329 C341 0.950 . S
H330 C338 0.950 . S
H331 C340 0.950 . S
H332 C342 0.950 . S
H333 C344 0.950 . S
H334 C346 0.950 . S
H335 C347 0.950 1_545 S
C336 H328 0.950 . S
C336 C337 1.386 . S
C336 C338 1.391 . S
C337 C336 1.386 . S
C337 C341 1.393 . S
C338 H330 0.950 . S
C338 C336 1.391 . S
C338 C339 1.400 . S
C339 C338 1.400 . S
C339 C340 1.398 . S
C339 C345 1.491 . S
C340 H331 0.950 . S
C340 C339 1.398 . S
C340 C341 1.391 . S
C341 H329 0.950 . S
C341 C337 1.393 . S
C341 C340 1.391 . S
C342 H332 0.950 . S
C342 C343 1.386 . S
C342 C344 1.391 . S
C343 C342 1.386 . S
C343 C347 1.393 . S
C344 H333 0.950 . S
C344 C342 1.391 . S
C344 C345 1.400 . S
C345 C339 1.491 . S
C345 C344 1.400 . S
C345 C346 1.398 . S
C346 H334 0.950 . S
C346 C345 1.398 . S
C346 C347 1.391 . S
C347 H335 0.950 1_565 S
C347 C343 1.393 . S
C347 C346 1.391 . S
H348 C356 0.950 . S
H349 C361 0.950 . S
H350 C358 0.950 . S
H351 C360 0.950 . S
H352 C362 0.950 . S
H353 C364 0.950 . S
H354 C366 0.950 . S
H355 C367 0.950 . S
C356 H348 0.950 . S
C356 C357 1.386 . S
C356 C358 1.391 . S
C357 C356 1.386 . S
C357 C361 1.393 . S
C358 H350 0.950 . S
C358 C356 1.391 . S
C358 C359 1.400 . S
C359 C358 1.400 . S
C359 C360 1.398 . S
C359 C365 1.491 . S
C360 H351 0.950 . S
C360 C359 1.398 . S
C360 C361 1.391 . S
C361 H349 0.950 . S
C361 C357 1.393 . S
C361 C360 1.391 . S
C362 H352 0.950 . S
C362 C363 1.386 . S
C362 C364 1.391 . S
C363 C362 1.386 . S
C363 C367 1.393 . S
C364 H353 0.950 . S
C364 C362 1.391 . S
C364 C365 1.400 . S
C365 C359 1.491 . S
C365 C364 1.400 . S
C365 C366 1.398 . S
C366 H354 0.950 . S
C366 C365 1.398 . S
C366 C367 1.391 . S
C367 H355 0.950 . S
C367 C363 1.393 . S
C367 C366 1.391 . S
H368 C376 0.950 1_655 S
H369 C381 0.950 . S
H370 C378 0.950 . S
H371 C380 0.950 . S
H372 C382 0.950 . S
H373 C384 0.950 . S
H374 C386 0.950 . S
H375 C387 0.950 . S
C376 H368 0.950 1_455 S
C376 C377 1.386 . S
C376 C378 1.391 . S
C377 C376 1.386 . S
C377 C381 1.393 . S
C378 H370 0.950 . S
C378 C376 1.391 . S
C378 C379 1.400 . S
C379 C378 1.400 . S
C379 C380 1.398 . S
C379 C385 1.491 . S
C380 H371 0.950 . S
C380 C379 1.398 . S
C380 C381 1.391 . S
C381 H369 0.950 . S
C381 C377 1.393 . S
C381 C380 1.391 . S
C382 H372 0.950 . S
C382 C383 1.386 . S
C382 C384 1.391 . S
C383 C382 1.386 . S
C383 C387 1.393 . S
C384 H373 0.950 . S
C384 C382 1.391 . S
C384 C385 1.400 . S
C385 C379 1.491 . S
C385 C384 1.400 . S
C385 C386 1.398 . S
C386 H374 0.950 . S
C386 C385 1.398 . S
C386 C387 1.391 . S
C387 H375 0.950 . S
C387 C383 1.393 . S
C387 C386 1.391 . S
H388 C396 0.950 . S
H389 C401 0.950 . S
H390 C398 0.950 . S
H391 C400 0.950 . S
H392 C402 0.950 . S
H393 C404 0.950 . S
H394 C406 0.950 . S
H395 C407 0.950 . S
C396 H388 0.950 . S
C396 C397 1.386 . S
C396 C398 1.391 . S
C397 C396 1.386 . S
C397 C401 1.393 . S
C398 H390 0.950 . S
C398 C396 1.391 . S
C398 C399 1.400 . S
C399 C398 1.400 . S
C399 C400 1.398 . S
C399 C405 1.491 . S
C400 H391 0.950 . S
C400 C399 1.398 . S
C400 C401 1.391 . S
C401 H389 0.950 . S
C401 C397 1.393 . S
C401 C400 1.391 . S
C402 H392 0.950 . S
C402 C403 1.386 . S
C402 C404 1.391 . S
C403 C402 1.386 . S
C403 C407 1.393 . S
C404 H393 0.950 . S
C404 C402 1.391 . S
C404 C405 1.400 . S
C405 C399 1.491 . S
C405 C404 1.400 . S
C405 C406 1.398 . S
C406 H394 0.950 . S
C406 C405 1.398 . S
C406 C407 1.391 . S
C407 H395 0.950 . S
C407 C403 1.393 . S
C407 C406 1.391 . S
H408 C416 0.950 . S
H409 C421 0.950 . S
H410 C418 0.950 . S
H411 C420 0.950 . S
H412 C422 0.950 . S
H413 C424 0.950 . S
H414 C426 0.950 . S
H415 C427 0.950 . S
C416 H408 0.950 . S
C416 C417 1.386 . S
C416 C418 1.391 . S
C417 C416 1.386 . S
C417 C421 1.393 . S
C418 H410 0.950 . S
C418 C416 1.391 . S
C418 C419 1.400 . S
C419 C418 1.400 . S
C419 C420 1.398 . S
C419 C425 1.491 . S
C420 H411 0.950 . S
C420 C419 1.398 . S
C420 C421 1.391 . S
C421 H409 0.950 . S
C421 C417 1.393 . S
C421 C420 1.391 . S
C422 H412 0.950 . S
C422 C423 1.386 . S
C422 C424 1.391 . S
C423 C422 1.386 . S
C423 C427 1.393 . S
C424 H413 0.950 . S
C424 C422 1.391 . S
C424 C425 1.400 . S
C425 C419 1.491 . S
C425 C424 1.400 . S
C425 C426 1.398 . S
C426 H414 0.950 . S
C426 C425 1.398 . S
C426 C427 1.391 . S
C427 H415 0.950 . S
C427 C423 1.393 . S
C427 C426 1.391 . S
H428 C436 0.950 . S
H429 C441 0.950 . S
H430 C438 0.950 . S
H431 C440 0.950 . S
H432 C442 0.950 . S
H433 C444 0.950 . S
H434 C446 0.950 . S
H435 C447 0.950 . S
C436 H428 0.950 . S
C436 C437 1.386 . S
C436 C438 1.391 . S
C437 C436 1.386 . S
C437 C441 1.393 . S
C438 H430 0.950 . S
C438 C436 1.391 . S
C438 C439 1.400 . S
C439 C438 1.400 . S
C439 C440 1.398 . S
C439 C445 1.491 . S
C440 H431 0.950 . S
C440 C439 1.398 . S
C440 C441 1.391 . S
C441 H429 0.950 . S
C441 C437 1.393 . S
C441 C440 1.391 . S
C442 H432 0.950 . S
C442 C443 1.386 . S
C442 C444 1.391 1_554 S
C443 C442 1.386 . S
C443 C447 1.393 . S
C444 H433 0.950 . S
C444 C442 1.391 1_556 S
C444 C445 1.400 . S
C445 C439 1.491 . S
C445 C444 1.400 . S
C445 C446 1.398 . S
C446 H434 0.950 . S
C446 C445 1.398 . S
C446 C447 1.391 1_556 S
C447 H435 0.950 . S
C447 C443 1.393 . S
C447 C446 1.391 1_554 S
H448 C456 0.950 . S
H449 C461 0.950 . S
H450 C458 0.950 . S
H451 C460 0.950 . S
H452 C462 0.950 . S
H453 C464 0.950 . S
H454 C466 0.950 . S
H455 C467 0.950 . S
C456 H448 0.950 . S
C456 C457 1.386 . S
C456 C458 1.391 . S
C457 C456 1.386 . S
C457 C461 1.393 . S
C458 H450 0.950 . S
C458 C456 1.391 . S
C458 C459 1.400 . S
C459 C458 1.400 . S
C459 C460 1.398 . S
C459 C465 1.491 . S
C460 H451 0.950 . S
C460 C459 1.398 . S
C460 C461 1.391 . S
C461 H449 0.950 . S
C461 C457 1.393 . S
C461 C460 1.391 . S
C462 H452 0.950 . S
C462 C463 1.386 . S
C462 C464 1.391 . S
C463 C462 1.386 . S
C463 C467 1.393 . S
C464 H453 0.950 . S
C464 C462 1.391 . S
C464 C465 1.400 . S
C465 C459 1.491 . S
C465 C464 1.400 . S
C465 C466 1.398 . S
C466 H454 0.950 . S
C466 C465 1.398 . S
C466 C467 1.391 . S
C467 H455 0.950 . S
C467 C463 1.393 . S
C467 C466 1.391 . S
H468 C476 0.950 . S
H469 C481 0.950 . S
H470 C478 0.950 . S
H471 C480 0.950 . S
H472 C482 0.950 . S
H473 C484 0.950 . S
H474 C486 0.950 . S
H475 C487 0.950 . S
C476 H468 0.950 . S
C476 C477 1.386 . S
C476 C478 1.391 . S
C477 C476 1.386 . S
C477 C481 1.393 . S
C478 H470 0.950 . S
C478 C476 1.391 . S
C478 C479 1.400 . S
C479 C478 1.400 . S
C479 C480 1.398 . S
C479 C485 1.491 . S
C480 H471 0.950 . S
C480 C479 1.398 . S
C480 C481 1.391 . S
C481 H469 0.950 . S
C481 C477 1.393 . S
C481 C480 1.391 . S
C482 H472 0.950 . S
C482 C483 1.386 . S
C482 C484 1.391 . S
C483 C482 1.386 . S
C483 C487 1.393 . S
C484 H473 0.950 . S
C484 C482 1.391 . S
C484 C485 1.400 . S
C485 C479 1.491 . S
C485 C484 1.400 . S
C485 C486 1.398 . S
C486 H474 0.950 . S
C486 C485 1.398 . S
C486 C487 1.391 . S
C487 H475 0.950 . S
C487 C483 1.393 . S
C487 C486 1.391 . S
H488 C496 0.950 . S
H489 C501 0.950 . S
H490 C498 0.950 . S
H491 C500 0.950 . S
H492 C502 0.950 . S
H493 C504 0.950 . S
H494 C506 0.950 . S
H495 C507 0.950 . S
C496 H488 0.950 . S
C496 C497 1.386 . S
C496 C498 1.391 . S
C497 C496 1.386 . S
C497 C501 1.393 . S
C498 H490 0.950 . S
C498 C496 1.391 . S
C498 C499 1.400 . S
C499 C498 1.400 . S
C499 C500 1.398 . S
C499 C505 1.491 . S
C500 H491 0.950 . S
C500 C499 1.398 . S
C500 C501 1.391 . S
C501 H489 0.950 . S
C501 C497 1.393 . S
C501 C500 1.391 . S
C502 H492 0.950 . S
C502 C503 1.386 . S
C502 C504 1.391 . S
C503 C502 1.386 . S
C503 C507 1.393 . S
C504 H493 0.950 . S
C504 C502 1.391 . S
C504 C505 1.400 . S
C505 C499 1.491 . S
C505 C504 1.400 . S
C505 C506 1.398 . S
C506 H494 0.950 . S
C506 C505 1.398 . S
C506 C507 1.391 . S
C507 H495 0.950 . S
C507 C503 1.393 . S
C507 C506 1.391 . S
H508 C516 0.950 . S
H509 C521 0.950 . S
H510 C518 0.950 . S
H511 C520 0.950 . S
H512 C522 0.950 . S
H513 C524 0.950 . S
H514 C526 0.950 . S
H515 C527 0.950 1_565 S
C516 H508 0.950 . S
C516 C517 1.386 . S
C516 C518 1.391 . S
C517 C516 1.386 . S
C517 C521 1.393 . S
C518 H510 0.950 . S
C518 C516 1.391 . S
C518 C519 1.400 . S
C519 C518 1.400 . S
C519 C520 1.398 . S
C519 C525 1.491 . S
C520 H511 0.950 . S
C520 C519 1.398 . S
C520 C521 1.391 . S
C521 H509 0.950 . S
C521 C517 1.393 . S
C521 C520 1.391 . S
C522 H512 0.950 . S
C522 C523 1.386 . S
C522 C524 1.391 . S
C523 C522 1.386 . S
C523 C527 1.393 . S
C524 H513 0.950 . S
C524 C522 1.391 . S
C524 C525 1.400 . S
C525 C519 1.491 . S
C525 C524 1.400 . S
C525 C526 1.398 . S
C526 H514 0.950 . S
C526 C525 1.398 . S
C526 C527 1.391 . S
C527 H515 0.950 1_545 S
C527 C523 1.393 . S
C527 C526 1.391 . S
H528 C536 0.950 . S
H529 C541 0.950 . S
H530 C538 0.950 . S
H531 C540 0.950 . S
H532 C542 0.950 . S
H533 C544 0.950 . S
H534 C546 0.950 . S
H535 C547 0.950 . S
C536 H528 0.950 . S
C536 C537 1.386 . S
C536 C538 1.391 . S
C537 C536 1.386 . S
C537 C541 1.393 . S
C538 H530 0.950 . S
C538 C536 1.391 . S
C538 C539 1.400 . S
C539 C538 1.400 . S
C539 C540 1.398 . S
C539 C545 1.491 . S
C540 H531 0.950 . S
C540 C539 1.398 . S
C540 C541 1.391 . S
C541 H529 0.950 . S
C541 C537 1.393 . S
C541 C540 1.391 . S
C542 H532 0.950 . S
C542 C543 1.386 . S
C542 C544 1.391 . S
C543 C542 1.386 . S
C543 C547 1.393 . S
C544 H533 0.950 . S
C544 C542 1.391 . S
C544 C545 1.400 . S
C545 C539 1.491 . S
C545 C544 1.400 . S
C545 C546 1.398 . S
C546 H534 0.950 . S
C546 C545 1.398 . S
C546 C547 1.391 . S
C547 H535 0.950 . S
C547 C543 1.393 . S
C547 C546 1.391 . S
H548 C556 0.950 . S
H549 C561 0.950 . S
H550 C558 0.950 . S
H551 C560 0.950 . S
H552 C562 0.950 . S
H553 C564 0.950 . S
H554 C566 0.950 . S
H555 C567 0.950 . S
C556 H548 0.950 . S
C556 C557 1.386 . S
C556 C558 1.391 . S
C557 C556 1.386 . S
C557 C561 1.393 . S
C558 H550 0.950 . S
C558 C556 1.391 . S
C558 C559 1.400 . S
C559 C558 1.400 . S
C559 C560 1.398 . S
C559 C565 1.491 . S
C560 H551 0.950 . S
C560 C559 1.398 . S
C560 C561 1.391 . S
C561 H549 0.950 . S
C561 C557 1.393 . S
C561 C560 1.391 . S
C562 H552 0.950 . S
C562 C563 1.386 . S
C562 C564 1.391 . S
C563 C562 1.386 . S
C563 C567 1.393 . S
C564 H553 0.950 . S
C564 C562 1.391 . S
C564 C565 1.400 . S
C565 C559 1.491 . S
C565 C564 1.400 . S
C565 C566 1.398 . S
C566 H554 0.950 . S
C566 C565 1.398 . S
C566 C567 1.391 . S
C567 H555 0.950 . S
C567 C563 1.393 . S
C567 C566 1.391 . S
H568 C576 0.950 . S
H569 C581 0.950 . S
H570 C578 0.950 . S
H571 C580 0.950 . S
H572 C582 0.950 . S
H573 C584 0.950 . S
H574 C586 0.950 . S
H575 C587 0.950 . S
C576 H568 0.950 . S
C576 C577 1.386 . S
C576 C578 1.391 . S
C577 C576 1.386 . S
C577 C581 1.393 . S
C578 H570 0.950 . S
C578 C576 1.391 . S
C578 C579 1.400 . S
C579 C578 1.400 . S
C579 C580 1.398 . S
C579 C585 1.491 . S
C580 H571 0.950 . S
C580 C579 1.398 . S
C580 C581 1.391 . S
C581 H569 0.950 . S
C581 C577 1.393 . S
C581 C580 1.391 . S
C582 H572 0.950 . S
C582 C583 1.386 . S
C582 C584 1.391 . S
C583 C582 1.386 . S
C583 C587 1.393 . S
C584 H573 0.950 . S
C584 C582 1.391 . S
C584 C585 1.400 . S
C585 C579 1.491 . S
C585 C584 1.400 . S
C585 C586 1.398 . S
C586 H574 0.950 . S
C586 C585 1.398 . S
C586 C587 1.391 . S
C587 H575 0.950 . S
C587 C583 1.393 . S
C587 C586 1.391 . S
H588 C596 0.950 . S
H589 C601 0.950 . S
H590 C598 0.950 . S
H591 C600 0.950 . S
H592 C602 0.950 . S
H593 C604 0.950 . S
H594 C606 0.950 . S
H595 C607 0.950 . S
C596 H588 0.950 . S
C596 C597 1.386 . S
C596 C598 1.391 . S
C597 C596 1.386 . S
C597 C601 1.393 . S
C598 H590 0.950 . S
C598 C596 1.391 . S
C598 C599 1.400 . S
C599 C598 1.400 . S
C599 C600 1.398 . S
C599 C605 1.491 . S
C600 H591 0.950 . S
C600 C599 1.398 . S
C600 C601 1.391 . S
C601 H589 0.950 . S
C601 C597 1.393 . S
C601 C600 1.391 . S
C602 H592 0.950 . S
C602 C603 1.386 . S
C602 C604 1.391 . S
C603 C602 1.386 . S
C603 C607 1.393 . S
C604 H593 0.950 . S
C604 C602 1.391 . S
C604 C605 1.400 . S
C605 C599 1.491 . S
C605 C604 1.400 . S
C605 C606 1.398 . S
C606 H594 0.950 . S
C606 C605 1.398 . S
C606 C607 1.391 . S
C607 H595 0.950 . S
C607 C603 1.393 . S
C607 C606 1.391 . S
H608 C616 0.950 . S
H609 C621 0.950 . S
H610 C618 0.950 . S
H611 C620 0.950 . S
H612 C622 0.950 . S
H613 C624 0.950 . S
H614 C626 0.950 . S
H615 C627 0.950 . S
C616 H608 0.950 . S
C616 C617 1.386 . S
C616 C618 1.391 . S
C617 C616 1.386 . S
C617 C621 1.393 . S
C618 H610 0.950 . S
C618 C616 1.391 . S
C618 C619 1.400 . S
C619 C618 1.400 . S
C619 C620 1.398 . S
C619 C625 1.491 . S
C620 H611 0.950 . S
C620 C619 1.398 . S
C620 C621 1.391 . S
C621 H609 0.950 . S
C621 C617 1.393 . S
C621 C620 1.391 . S
C622 H612 0.950 . S
C622 C623 1.386 . S
C622 C624 1.391 . S
C623 C622 1.386 . S
C623 C627 1.393 . S
C624 H613 0.950 . S
C624 C622 1.391 . S
C624 C625 1.400 . S
C625 C619 1.491 . S
C625 C624 1.400 . S
C625 C626 1.398 . S
C626 H614 0.950 . S
C626 C625 1.398 . S
C626 C627 1.391 . S
C627 H615 0.950 . S
C627 C623 1.393 . S
C627 C626 1.391 . S
H628 C636 0.950 . S
H629 C641 0.950 . S
H630 C638 0.950 . S
H631 C640 0.950 . S
H632 C642 0.950 . S
H633 C644 0.950 . S
H634 C646 0.950 . S
H635 C647 0.950 . S
C636 H628 0.950 . S
C636 C637 1.386 . S
C636 C638 1.391 . S
C637 C636 1.386 . S
C637 C641 1.393 . S
C638 H630 0.950 . S
C638 C636 1.391 . S
C638 C639 1.400 . S
C639 C638 1.400 . S
C639 C640 1.398 . S
C639 C645 1.491 . S
C640 H631 0.950 . S
C640 C639 1.398 . S
C640 C641 1.391 . S
C641 H629 0.950 . S
C641 C637 1.393 . S
C641 C640 1.391 . S
C642 H632 0.950 . S
C642 C643 1.386 . S
C642 C644 1.391 . S
C643 C642 1.386 . S
C643 C647 1.393 . S
C644 H633 0.950 . S
C644 C642 1.391 . S
C644 C645 1.400 . S
C645 C639 1.491 . S
C645 C644 1.400 . S
C645 C646 1.398 . S
C646 H634 0.950 . S
C646 C645 1.398 . S
C646 C647 1.391 . S
C647 H635 0.950 . S
C647 C643 1.393 . S
C647 C646 1.391 . S
C177 C123 1.417 . S
C183 C11 1.422 . S
C197 C25 1.419 . S
C203 C137 1.422 . S
C217 C39 1.420 . S
C223 C151 1.421 . S
C237 C53 1.411 . S
C243 C165 1.419 . S
C257 C95 1.416 . S
C263 C67 1.422 . S
C277 C81 1.414 . S
C283 C109 1.411 . S
C297 C13 1.283 . S
C303 C77 1.375 . S
C317 C27 1.289 . S
C323 C7 1.371 1_655 S
C337 C41 1.309 . S
C343 C21 1.362 1_565 S
C357 C35 1.376 . S
C363 C55 1.279 . S
C377 C49 1.373 1_455 S
C383 C69 1.286 . S
C397 C63 1.362 1_545 S
C403 C83 1.309 . S
C417 C105 1.359 . S
C423 C97 1.313 . S
C437 C111 1.283 . S
C443 C119 1.374 1_655 S
C457 C133 1.376 1_565 S
C463 C125 1.279 . S
C477 C139 1.280 . S
C483 C147 1.376 . S
C497 C153 1.313 . S
C503 C161 1.360 1_455 S
C517 C167 1.306 . S
C523 C91 1.364 1_545 S
C537 C148 1.260 . S
C543 C8 1.252 . S
C557 C162 1.261 . S
C563 C22 1.242 . S
C577 C92 1.246 . S
C583 C36 1.261 . S
C597 C50 1.233 . S
C603 C106 1.244 . S
C617 C64 1.261 . S
C623 C120 1.247 1_556 S
C637 C134 1.249 . S
C643 C78 1.261 1_554 S
