# Generated by pormake.
# Topology ilc, (8)-cn, num edge types: 1
# Building blocks:
#     Node 0, Type 0, BuildingBlock: OLANEW_clean_sbu_1, # of connection points: 8
#     Node 1, Type 0, BuildingBlock: OLANEW_clean_sbu_1, # of connection points: 8
#     Node 2, Type 0, BuildingBlock: OLANEW_clean_sbu_1, # of connection points: 8
#     Edge 3, Type (0, 0), BuildingBlock: MIFKUJ_clean_linker_0, # of connection points: 2
#     Edge 4, Type (0, 0), BuildingBlock: MIFKUJ_clean_linker_0, # of connection points: 2
#     Edge 5, Type (0, 0), BuildingBlock: MIFKUJ_clean_linker_0, # of connection points: 2
#     Edge 6, Type (0, 0), BuildingBlock: MIFKUJ_clean_linker_0, # of connection points: 2
#     Edge 7, Type (0, 0), BuildingBlock: MIFKUJ_clean_linker_0, # of connection points: 2
#     Edge 8, Type (0, 0), BuildingBlock: MIFKUJ_clean_linker_0, # of connection points: 2
#     Edge 9, Type (0, 0), BuildingBlock: MIFKUJ_clean_linker_0, # of connection points: 2
#     Edge 10, Type (0, 0), BuildingBlock: MIFKUJ_clean_linker_0, # of connection points: 2
#     Edge 11, Type (0, 0), BuildingBlock: MIFKUJ_clean_linker_0, # of connection points: 2
#     Edge 12, Type (0, 0), BuildingBlock: MIFKUJ_clean_linker_0, # of connection points: 2
#     Edge 13, Type (0, 0), BuildingBlock: MIFKUJ_clean_linker_0, # of connection points: 2
#     Edge 14, Type (0, 0), BuildingBlock: MIFKUJ_clean_linker_0, # of connection points: 2
# Relax obj value: 0.071
# Max RMSD: 0.109
# Mean RMSD: 0.109
data_MOF--net-ilc--node1-OLANEW_clean_sbu_1--edge1-MIFKUJ_clean_linker_0
_symmetry_space_group_name_H-M    P1
_symmetry_Int_Tables_number       1
_symmetry_cell_setting            triclinic
loop_
_symmetry_equiv_pos_as_xyz
'x, y, z'
_cell_length_a     23.403247
_cell_length_b     35.117967
_cell_length_c     28.387664
_cell_angle_alpha  110.96003
_cell_angle_beta   91.709949
_cell_angle_gamma 141.02926
loop_
_atom_site_label
_atom_site_type_symbol
_atom_site_fract_x
_atom_site_fract_y
_atom_site_fract_z
_atom_type_partial_charge
Cd0 Cd 0.83967 0.80365 0.08362 0.0
Cd1 Cd 0.87711 0.94437 0.02531 0.0
C2 C 0.10999 0.13724 0.07452 0.0
Cd3 Cd 0.14099 0.20253 0.91501 0.0
Cd4 Cd 0.15334 0.08889 0.9851 0.0
C5 C 0.97888 0.17229 0.88716 0.0
O6 O 0.06737 0.24317 0.93484 0.0
O7 O 0.84597 0.87754 0.08853 0.0
O8 O 0.84495 0.94261 0.10826 0.0
O9 O 0.13084 0.19057 0.82691 0.0
O10 O 0.18046 0.17425 0.06086 0.0
O11 O 0.03905 0.0671 0.04575 0.0
C12 C 0.18368 0.12134 0.88654 0.0
O13 O 0.96353 0.12646 0.87936 0.0
C14 C 0.94629 0.89864 0.21867 0.0
O15 O 0.02001 0.94513 0.20826 0.0
O16 O 0.16245 0.14386 0.91243 0.0
O17 O 0.18466 0.09252 0.90289 0.0
C18 C 0.91374 0.89088 0.93126 0.0
O19 O 0.85378 0.82977 0.17562 0.0
O20 O 0.84495 0.85702 0.94663 0.0
O21 O 0.98925 0.96191 0.95962 0.0
C22 C 0.83429 0.90581 0.11893 0.0
O23 O 0.01062 0.87029 0.11853 0.0
C24 C 0.042 0.12316 0.78064 0.0
O25 O 0.96671 0.06951 0.78576 0.0
C26 C 0.01086 0.83178 0.10443 0.0
O27 O 0.93594 0.76632 0.05157 0.0
Cd28 Cd 0.58146 0.1657 0.44087 0.0
Cd29 Cd 0.52621 0.25589 0.35392 0.0
C30 C 0.77469 0.46209 0.42227 0.0
Cd31 Cd 0.70206 0.44648 0.22024 0.0
Cd32 Cd 0.82211 0.41432 0.32846 0.0
C33 C 0.56568 0.42876 0.17042 0.0
O34 O 0.64552 0.49012 0.22523 0.0
O35 O 0.52441 0.19956 0.42798 0.0
O36 O 0.4739 0.23142 0.42646 0.0
O37 O 0.72694 0.45383 0.14398 0.0
O38 O 0.8456 0.49536 0.40825 0.0
O39 O 0.6951 0.39025 0.39279 0.0
C40 C 0.859 0.44616 0.22837 0.0
O41 O 0.53567 0.37403 0.15165 0.0
C42 C 0.64967 0.25109 0.5674 0.0
O43 O 0.6909 0.29606 0.55268 0.0
O44 O 0.79994 0.44081 0.23609 0.0
O45 O 0.88505 0.43748 0.25805 0.0
C46 C 0.56654 0.20836 0.25522 0.0
O47 O 0.59617 0.18681 0.53024 0.0
O48 O 0.49417 0.17372 0.26797 0.0
O49 O 0.64864 0.28062 0.28772 0.0
C50 C 0.48478 0.20906 0.44635 0.0
O51 O 0.76983 0.26428 0.46512 0.0
C52 C 0.67524 0.39082 0.10402 0.0
O53 O 0.62114 0.3387 0.11225 0.0
C54 C 0.8491 0.29613 0.50286 0.0
O55 O 0.7678 0.2634 0.46434 0.0
Cd56 Cd 0.21075 0.47788 0.77494 0.0
Cd57 Cd 0.20917 0.59739 0.69439 0.0
C58 C 0.43843 0.7933 0.7439 0.0
Cd59 Cd 0.43772 0.82984 0.52171 0.0
Cd60 Cd 0.46027 0.73926 0.63755 0.0
C61 C 0.32178 0.84979 0.56728 0.0
O62 O 0.30085 0.86047 0.608 0.0
O63 O 0.19623 0.53935 0.77062 0.0
O64 O 0.18008 0.59423 0.77842 0.0
O65 O 0.33643 0.75349 0.41679 0.0
O66 O 0.50246 0.8275 0.72595 0.0
O67 O 0.36498 0.72257 0.71529 0.0
C68 C 0.48571 0.76302 0.5313 0.0
O69 O 0.36953 0.84495 0.57374 0.0
C70 C 0.38384 0.61701 0.90882 0.0
O71 O 0.39742 0.64578 0.88264 0.0
O72 O 0.45159 0.77765 0.54809 0.0
O73 O 0.50126 0.74664 0.55727 0.0
C74 C 0.23505 0.5441 0.59011 0.0
O75 O 0.3145 0.54714 0.87759 0.0
O76 O 0.17418 0.51131 0.60993 0.0
O77 O 0.30694 0.61434 0.61734 0.0
C78 C 0.18024 0.56604 0.79666 0.0
O79 O 0.32815 0.50809 0.74133 0.0
C80 C 0.23887 0.70062 0.38148 0.0
O81 O 0.17443 0.67887 0.40088 0.0
C82 C 0.39367 0.52099 0.76383 0.0
O83 O 0.45392 0.53744 0.74255 0.0
H84 H 0.86153 0.98875 0.67111 0.0
H85 H 0.85436 0.95371 0.57729 0.0
H86 H 0.19595 0.17287 0.66982 0.0
H87 H 0.1981 0.21377 0.75943 0.0
H88 H 0.13625 0.1503 0.58539 0.0
H89 H 0.00631 0.96522 0.6039 0.0
H90 H 0.88789 0.85704 0.60778 0.0
H91 H 0.6295 0.71228 0.43891 0.0
H92 H 0.74809 0.81925 0.43367 0.0
H93 H 0.14068 0.03035 0.32275 0.0
H94 H 0.17162 0.07595 0.42301 0.0
H95 H 0.8308 0.8788 0.34865 0.0
H96 H 0.80052 0.82884 0.25033 0.0
H97 H 0.90583 0.89467 0.42664 0.0
H98 H 0.05032 0.08908 0.41201 0.0
H99 H 0.18288 0.19938 0.41058 0.0
H100 H 0.42687 0.33108 0.57949 0.0
H101 H 0.296 0.22173 0.5819 0.0
C102 C 0.93427 0.02979 0.6707 0.0
C103 C 0.0317 0.10311 0.72287 0.0
C104 C 0.93049 0.00886 0.61734 0.0
C105 C 0.02467 0.05877 0.61615 0.0
C106 C 0.12131 0.13246 0.66861 0.0
C107 C 0.12325 0.1556 0.72043 0.0
C108 C 0.0225 0.03815 0.55994 0.0
C109 C 0.08663 0.09438 0.55121 0.0
C110 C 0.95626 0.9647 0.51426 0.0
C111 C 0.88642 0.90073 0.51846 0.0
C112 C 0.92496 0.91036 0.56739 0.0
C113 C 0.85763 0.84909 0.56984 0.0
C114 C 0.75113 0.77775 0.52364 0.0
C115 C 0.71206 0.76736 0.47465 0.0
C116 C 0.77958 0.82817 0.47181 0.0
C117 C 0.0728 0.99691 0.32829 0.0
C118 C 0.96799 0.92679 0.27904 0.0
C119 C 0.09047 0.02361 0.38537 0.0
C120 C 0.00324 0.98218 0.3932 0.0
C121 C 0.89925 0.91225 0.34369 0.0
C122 C 0.88195 0.8837 0.28744 0.0
C123 C 0.01659 0.00607 0.45219 0.0
C124 C 0.95466 0.95032 0.46129 0.0
C125 C 0.0866 0.08038 0.49867 0.0
C126 C 0.16346 0.14592 0.49622 0.0
C127 C 0.13217 0.14111 0.4486 0.0
C128 C 0.20722 0.20367 0.44764 0.0
C129 C 0.31362 0.27177 0.49441 0.0
C130 C 0.34481 0.27803 0.54283 0.0
C131 C 0.27024 0.2157 0.54387 0.0
H132 H 0.37172 0.31994 0.49342 0.0
H133 H 0.69892 0.73057 0.52582 0.0
H134 H 0.68271 0.3502 0.63783 0.0
H135 H 0.67422 0.37243 0.7276 0.0
H136 H 0.6021 0.2082 0.70539 0.0
H137 H 0.61094 0.18668 0.61762 0.0
H138 H 0.50259 0.19564 0.74464 0.0
H139 H 0.8571 0.42733 0.77753 0.0
H140 H 0.97913 0.53908 0.7792 0.0
H141 H 0.95188 0.62667 0.90818 0.0
H142 H 0.82583 0.51342 0.90524 0.0
H143 H 0.63034 0.28653 0.02811 0.0
H144 H 0.64137 0.26659 0.94039 0.0
H145 H 0.76385 0.45697 0.98028 0.0
H146 H 0.75011 0.47485 0.06641 0.0
H147 H 0.83752 0.45619 0.93 0.0
H148 H 0.46608 0.22575 0.88778 0.0
H149 H 0.32389 0.10825 0.87937 0.0
H150 H 0.37342 0.0243 0.77209 0.0
H151 H 0.51893 0.14255 0.7816 0.0
C152 C 0.66653 0.31994 0.65307 0.0
C153 C 0.65056 0.26851 0.62231 0.0
C154 C 0.65998 0.33166 0.70358 0.0
C155 C 0.64167 0.29428 0.72464 0.0
C156 C 0.61999 0.23991 0.69151 0.0
C157 C 0.62548 0.22772 0.64128 0.0
C158 C 0.65295 0.31405 0.78294 0.0
C159 C 0.57546 0.25297 0.78554 0.0
C160 C 0.74662 0.38936 0.83615 0.0
C161 C 0.82792 0.45948 0.83937 0.0
C162 C 0.87623 0.46976 0.80607 0.0
C163 C 0.9457 0.53338 0.80681 0.0
C164 C 0.97303 0.58995 0.84357 0.0
C165 C 0.93008 0.58255 0.87925 0.0
C166 C 0.85824 0.51792 0.8773 0.0
C167 C 0.65847 0.32326 0.01743 0.0
C168 C 0.68502 0.37996 0.0523 0.0
C169 C 0.66658 0.31279 0.96759 0.0
C170 C 0.69889 0.35783 0.95135 0.0
C171 C 0.7353 0.41928 0.98998 0.0
C172 C 0.72643 0.42929 0.03926 0.0
C173 C 0.68521 0.33838 0.8924 0.0
C174 C 0.76309 0.39928 0.88954 0.0
C175 C 0.59015 0.26339 0.83911 0.0
C176 C 0.5044 0.19365 0.83576 0.0
C177 C 0.44716 0.18254 0.86246 0.0
C178 C 0.3662 0.11584 0.85777 0.0
C179 C 0.33912 0.05865 0.82488 0.0
C180 C 0.39437 0.06861 0.79753 0.0
C181 C 0.47673 0.13575 0.803 0.0
H182 H 0.27525 0.00657 0.82051 0.0
H183 H 0.02785 0.63963 0.84462 0.0
H184 H 0.43534 0.60643 0.98452 0.0
H185 H 0.43158 0.63187 0.07492 0.0
H186 H 0.39649 0.73204 0.06081 0.0
H187 H 0.40399 0.70878 0.97183 0.0
H188 H 0.47052 0.78733 0.16346 0.0
H189 H 0.18883 0.52701 0.99409 0.0
H190 H 0.10199 0.40977 0.91604 0.0
H191 H 0.19962 0.41457 0.0512 0.0
H192 H 0.28824 0.53227 0.12859 0.0
H193 H 0.20254 0.72006 0.30811 0.0
H194 H 0.21833 0.69921 0.22117 0.0
H195 H 0.23304 0.58868 0.23693 0.0
H196 H 0.20194 0.59998 0.31737 0.0
H197 H 0.18754 0.54719 0.14155 0.0
H198 H 0.49613 0.8225 0.31367 0.0
H199 H 0.5815 0.93969 0.3874 0.0
H200 H 0.42736 0.90338 0.24913 0.0
H201 H 0.34292 0.7869 0.17481 0.0
C202 C 0.43131 0.63675 0.00236 0.0
C203 C 0.41911 0.65525 0.97139 0.0
C204 C 0.42757 0.6504 0.05363 0.0
C205 C 0.40791 0.6803 0.07335 0.0
C206 C 0.40913 0.70729 0.04618 0.0
C207 C 0.41489 0.69495 0.99552 0.0
C208 C 0.37135 0.67407 0.11593 0.0
C209 C 0.40808 0.73447 0.15833 0.0
C210 C 0.29272 0.60637 0.11132 0.0
C211 C 0.24477 0.53795 0.06607 0.0
C212 C 0.19101 0.50226 0.00602 0.0
C213 C 0.14269 0.43655 0.96241 0.0
C214 C 0.14662 0.40531 0.97884 0.0
C215 C 0.19857 0.43977 0.03875 0.0
C216 C 0.24801 0.5061 0.0824 0.0
C217 C 0.20135 0.68651 0.28994 0.0
C218 C 0.20047 0.66109 0.31872 0.0
C219 C 0.21579 0.67788 0.24208 0.0
C220 C 0.23739 0.64897 0.22579 0.0
C221 C 0.22174 0.61447 0.24974 0.0
C222 C 0.20224 0.61982 0.29546 0.0
C223 C 0.28393 0.65931 0.18795 0.0
C224 C 0.25015 0.60009 0.14699 0.0
C225 C 0.36581 0.72816 0.19431 0.0
C226 C 0.4128 0.79607 0.23907 0.0
C227 C 0.48021 0.8395 0.29928 0.0
C228 C 0.52871 0.90587 0.34105 0.0
C229 C 0.50967 0.92887 0.32301 0.0
C230 C 0.44218 0.88562 0.26311 0.0
C231 C 0.39453 0.81974 0.22113 0.0
H232 H 0.54766 0.9804 0.35546 0.0
H233 H 0.10891 0.35422 0.9452 0.0
H234 H 0.18114 0.82483 0.53145 0.0
H235 H 0.13599 0.82529 0.45371 0.0
H236 H 0.34427 0.86329 0.40905 0.0
H237 H 0.39447 0.86681 0.48973 0.0
H238 H 0.36568 0.95264 0.40995 0.0
H239 H 0.07323 0.68524 0.31597 0.0
H240 H 0.94724 0.58088 0.32422 0.0
H241 H 0.79953 0.60934 0.34848 0.0
H242 H 0.92773 0.71593 0.34206 0.0
H243 H 0.1453 0.84745 0.12603 0.0
H244 H 0.19988 0.84901 0.20329 0.0
H245 H 0.01521 0.82743 0.26502 0.0
H246 H 0.95952 0.82405 0.18762 0.0
H247 H 0.9845 0.73085 0.25538 0.0
H248 H 0.27549 0.99277 0.32956 0.0
H249 H 0.4018 0.08756 0.31185 0.0
H250 H 0.5612 0.06843 0.32289 0.0
H251 H 0.43002 0.96872 0.33564 0.0
C252 C 0.21789 0.83354 0.50535 0.0
C253 C 0.29123 0.8455 0.51678 0.0
C254 C 0.19135 0.83332 0.46053 0.0
C255 C 0.23584 0.84362 0.42504 0.0
C256 C 0.30897 0.8553 0.43594 0.0
C257 C 0.33655 0.85628 0.48151 0.0
C258 C 0.20401 0.84098 0.37628 0.0
C259 C 0.28261 0.90382 0.37567 0.0
C260 C 0.09545 0.7779 0.3321 0.0
C261 C 0.01041 0.70866 0.32893 0.0
C262 C 0.01344 0.66883 0.32262 0.0
C263 C 0.94173 0.60937 0.32706 0.0
C264 C 0.86498 0.58817 0.33668 0.0
C265 C 0.85916 0.62592 0.34111 0.0
C266 C 0.93123 0.6858 0.33693 0.0
C267 C 0.11763 0.84384 0.15661 0.0
C268 C 0.05141 0.83842 0.15251 0.0
C269 C 0.14824 0.84439 0.20043 0.0
C270 C 0.11225 0.83899 0.24026 0.0
C271 C 0.0445 0.83215 0.23515 0.0
C272 C 0.01449 0.83186 0.19173 0.0
C273 C 0.14638 0.84197 0.28821 0.0
C274 C 0.06779 0.77961 0.28933 0.0
C275 C 0.25522 0.90523 0.33221 0.0
C276 C 0.34136 0.97186 0.33217 0.0
C277 C 0.33669 0.00808 0.32755 0.0
C278 C 0.40846 0.06213 0.3177 0.0
C279 C 0.48905 0.08363 0.31571 0.0
C280 C 0.49808 0.05118 0.32374 0.0
C281 C 0.42442 0.99538 0.33175 0.0
H282 H 0.54529 0.12615 0.30875 0.0
H283 H 0.80978 0.5423 0.34045 0.0
H284 H 0.12629 0.40662 0.53906 0.0
H285 H 0.1003 0.33568 0.45002 0.0
H286 H 0.28486 0.51311 0.43035 0.0
H287 H 0.31245 0.5849 0.51987 0.0
H288 H 0.093 0.3663 0.3234 0.0
H289 H 0.42046 0.49241 0.45126 0.0
H290 H 0.53777 0.5357 0.53526 0.0
H291 H 0.26428 0.32871 0.51403 0.0
H292 H 0.1459 0.28243 0.42736 0.0
H293 H 0.21174 0.27192 0.12312 0.0
H294 H 0.22017 0.33517 0.20575 0.0
H295 H 0.0241 0.15165 0.21902 0.0
H296 H 0.01349 0.08756 0.13587 0.0
H297 H 0.2142 0.29784 0.32682 0.0
H298 H 0.92447 0.16627 0.16378 0.0
H299 H 0.83611 0.13075 0.07109 0.0
H300 H 0.05127 0.36069 0.15904 0.0
H301 H 0.14396 0.39862 0.25185 0.0
C302 C 0.16207 0.43089 0.51609 0.0
C303 C 0.22194 0.50178 0.53698 0.0
C304 C 0.14755 0.39035 0.46522 0.0
C305 C 0.19133 0.41914 0.43349 0.0
C306 C 0.25057 0.48968 0.45403 0.0
C307 C 0.26662 0.53085 0.50544 0.0
C308 C 0.17297 0.3748 0.37821 0.0
C309 C 0.12015 0.35176 0.32409 0.0
C310 C 0.20675 0.3547 0.3785 0.0
C311 C 0.2747 0.38477 0.43392 0.0
C312 C 0.38557 0.45663 0.46505 0.0
C313 C 0.45229 0.48118 0.51254 0.0
C314 C 0.40865 0.43485 0.52994 0.0
C315 C 0.29807 0.36423 0.5002 0.0
C316 C 0.23114 0.33856 0.45164 0.0
C317 C 0.16946 0.24466 0.14323 0.0
C318 C 0.11151 0.17444 0.12265 0.0
C319 C 0.17402 0.28075 0.19032 0.0
C320 C 0.12213 0.24796 0.21842 0.0
C321 C 0.06417 0.17785 0.19786 0.0
C322 C 0.05793 0.14113 0.15016 0.0
C323 C 0.13384 0.28881 0.27166 0.0
C324 C 0.18569 0.3114 0.32555 0.0
C325 C 0.10005 0.30902 0.2707 0.0
C326 C 0.04301 0.2858 0.21482 0.0
C327 C 0.95435 0.20972 0.16334 0.0
C328 C 0.90306 0.18901 0.11076 0.0
C329 C 0.93799 0.24338 0.10923 0.0
C330 C 0.02452 0.31868 0.16027 0.0
C331 C 0.07675 0.33989 0.21284 0.0
H332 H 0.89785 0.22712 0.06854 0.0
H333 H 0.46034 0.45334 0.56618 0.0
H334 H 0.35704 0.68331 0.41472 0.0
H335 H 0.41067 0.70258 0.34234 0.0
H336 H 0.73547 0.88232 0.47468 0.0
H337 H 0.68092 0.86088 0.54629 0.0
H338 H 0.70403 0.91979 0.41361 0.0
H339 H 0.6358 0.7201 0.33792 0.0
H340 H 0.51322 0.59771 0.31936 0.0
H341 H 0.2446 0.50306 0.21775 0.0
H342 H 0.36735 0.62618 0.23732 0.0
H343 H 0.94537 0.01069 0.23942 0.0
H344 H 0.8887 0.98789 0.30907 0.0
H345 H 0.58534 0.74974 0.16449 0.0
H346 H 0.64896 0.77172 0.09665 0.0
H347 H 0.59862 0.73771 0.23357 0.0
H348 H 0.68021 0.93055 0.27786 0.0
H349 H 0.79252 0.05665 0.31264 0.0
H350 H 0.01924 0.1635 0.4737 0.0
H351 H 0.90851 0.03832 0.43976 0.0
C352 C 0.43969 0.72629 0.42796 0.0
C353 C 0.51558 0.77124 0.4862 0.0
C354 C 0.47005 0.73668 0.3864 0.0
C355 C 0.57705 0.79275 0.40239 0.0
C356 C 0.65204 0.83674 0.46044 0.0
C357 C 0.62145 0.82542 0.50158 0.0
C358 C 0.61286 0.80971 0.36054 0.0
C359 C 0.68148 0.88028 0.37418 0.0
C360 C 0.58182 0.75792 0.30827 0.0
C361 C 0.5098 0.68277 0.29161 0.0
C362 C 0.55074 0.67374 0.31305 0.0
C363 C 0.48145 0.6043 0.30217 0.0
C364 C 0.37115 0.54334 0.26898 0.0
C365 C 0.32997 0.55087 0.24484 0.0
C366 C 0.39926 0.62038 0.25588 0.0
C367 C 0.86666 0.95327 0.22275 0.0
C368 C 0.80179 0.89263 0.16245 0.0
C369 C 0.83218 0.9402 0.26264 0.0
C370 C 0.72892 0.86652 0.24288 0.0
C371 C 0.66452 0.80688 0.18201 0.0
C372 C 0.70082 0.81934 0.14284 0.0
C373 C 0.68931 0.84892 0.2845 0.0
C374 C 0.62063 0.77793 0.27165 0.0
C375 C 0.71903 0.90041 0.33723 0.0
C376 C 0.78704 0.97541 0.3559 0.0
C377 C 0.75457 0.98111 0.32035 0.0
C378 C 0.81775 0.05237 0.34004 0.0
C379 C 0.9131 0.11806 0.39522 0.0
C380 C 0.94548 0.1127 0.43096 0.0
C381 C 0.88247 0.04166 0.41159 0.0
H382 H 0.9616 0.17305 0.4104 0.0
H383 H 0.31783 0.48976 0.26076 0.0
H384 H 0.66895 0.16448 0.49134 0.0
H385 H 0.66591 0.13248 0.55641 0.0
H386 H 0.00963 0.33849 0.65749 0.0
H387 H 0.01264 0.37387 0.59625 0.0
H388 H 0.8636 0.17124 0.58636 0.0
H389 H 0.93958 0.3499 0.72149 0.0
H390 H 0.94419 0.42133 0.78408 0.0
H391 H 0.71718 0.25299 0.81067 0.0
H392 H 0.69434 0.17167 0.73801 0.0
H393 H 0.09638 0.25064 0.84601 0.0
H394 H 0.04115 0.24328 0.76477 0.0
H395 H 0.71953 0.06389 0.72899 0.0
H396 H 0.77438 0.06889 0.80957 0.0
H397 H 0.82942 0.20223 0.76234 0.0
H398 H 0.70054 0.00619 0.57041 0.0
H399 H 0.70845 0.94578 0.50328 0.0
H400 H 0.05085 0.15879 0.60186 0.0
H401 H 0.04359 0.22141 0.66812 0.0
C402 C 0.74343 0.20499 0.5296 0.0
C403 C 0.84098 0.27366 0.54067 0.0
C404 C 0.74171 0.18634 0.56642 0.0
C405 C 0.83754 0.23474 0.61347 0.0
C406 C 0.93474 0.30184 0.623 0.0
C407 C 0.93635 0.32164 0.58767 0.0
C408 C 0.83785 0.20906 0.64501 0.0
C409 C 0.85544 0.178 0.62479 0.0
C410 C 0.82467 0.21591 0.69442 0.0
C411 C 0.81479 0.25376 0.72319 0.0
C412 C 0.88436 0.32451 0.73652 0.0
C413 C 0.89075 0.36736 0.77454 0.0
C414 C 0.83455 0.34338 0.8033 0.0
C415 C 0.76255 0.27229 0.78926 0.0
C416 C 0.74989 0.22644 0.74784 0.0
C417 C 0.01311 0.20803 0.81969 0.0
C418 C 0.93957 0.16062 0.83409 0.0
C419 C 0.9814 0.20327 0.77278 0.0
C420 C 0.87593 0.1523 0.74016 0.0
C421 C 0.80099 0.10273 0.75302 0.0
C422 C 0.83232 0.10603 0.79922 0.0
C423 C 0.8518 0.16315 0.7025 0.0
C424 C 0.83216 0.19275 0.72224 0.0
C425 C 0.86288 0.15547 0.65301 0.0
C426 C 0.87168 0.11745 0.62518 0.0
C427 C 0.77767 0.03932 0.57908 0.0
C428 C 0.78211 0.00476 0.54067 0.0
C429 C 0.88036 0.0473 0.54883 0.0
C430 C 0.97473 0.12505 0.59595 0.0
C431 C 0.97059 0.16036 0.63395 0.0
H432 H 0.8831 0.02031 0.51814 0.0
H433 H 0.84789 0.38033 0.83689 0.0
H434 H 0.9408 0.61691 0.4973 0.0
H435 H 0.96443 0.68977 0.58242 0.0
H436 H 0.65932 0.48155 0.54689 0.0
H437 H 0.63491 0.40808 0.46142 0.0
H438 H 0.6891 0.58196 0.57804 0.0
H439 H 0.89287 0.59379 0.65661 0.0
H440 H 0.02749 0.62006 0.66821 0.0
H441 H 0.27023 0.85392 0.7439 0.0
H442 H 0.13679 0.82885 0.73209 0.0
H443 H 0.76324 0.73941 0.86374 0.0
H444 H 0.74336 0.66912 0.7791 0.0
H445 H 0.02152 0.8749 0.7995 0.0
H446 H 0.04341 0.94626 0.88514 0.0
H447 H 0.00709 0.77802 0.77672 0.0
H448 H 0.78634 0.73987 0.64594 0.0
H449 H 0.66016 0.72153 0.62872 0.0
H450 H 0.46582 0.55158 0.65712 0.0
H451 H 0.5917 0.5696 0.67518 0.0
C452 C 0.87833 0.58635 0.50731 0.0
C453 C 0.78625 0.50632 0.47243 0.0
C454 C 0.89219 0.6283 0.55633 0.0
C455 C 0.81454 0.59159 0.57206 0.0
C456 C 0.72086 0.51156 0.53615 0.0
C457 C 0.70712 0.46951 0.48722 0.0
C458 C 0.83226 0.63658 0.62665 0.0
C459 C 0.75785 0.62386 0.62143 0.0
C460 C 0.92362 0.6934 0.68361 0.0
C461 C 0.00459 0.7092 0.6928 0.0
C462 C 0.97488 0.65074 0.67551 0.0
C463 C 0.05096 0.66542 0.68214 0.0
C464 C 0.15715 0.73849 0.7064 0.0
C465 C 0.18783 0.79729 0.72488 0.0
C466 C 0.11204 0.7829 0.71831 0.0
C467 C 0.82051 0.76998 0.85046 0.0
C468 C 0.90449 0.84861 0.88125 0.0
C469 C 0.80851 0.72946 0.80163 0.0
C470 C 0.87939 0.76619 0.78187 0.0
C471 C 0.96518 0.84505 0.81347 0.0
C472 C 0.97749 0.88579 0.86249 0.0
C473 C 0.86279 0.72191 0.72788 0.0
C474 C 0.93784 0.73538 0.73325 0.0
C475 C 0.77281 0.66631 0.6711 0.0
C476 C 0.69818 0.65617 0.66197 0.0
C477 C 0.71696 0.69896 0.64887 0.0
C478 C 0.64569 0.68871 0.63909 0.0
C479 C 0.55543 0.63579 0.64232 0.0
C480 C 0.53656 0.59326 0.65554 0.0
C481 C 0.60778 0.60345 0.66553 0.0
H482 H 0.49986 0.62746 0.63429 0.0
H483 H 0.21564 0.74954 0.71078 0.0
H484 H 0.40921 0.10846 0.46624 0.0
H485 H 0.36498 0.09508 0.54218 0.0
H486 H 0.44514 0.27016 0.60222 0.0
H487 H 0.493 0.28545 0.5288 0.0
H488 H 0.50006 0.28848 0.68905 0.0
H489 H 0.18458 0.05476 0.4991 0.0
H490 H 0.05886 0.93289 0.40178 0.0
H491 H 0.04312 0.84784 0.48667 0.0
H492 H 0.17359 0.9704 0.58424 0.0
H493 H 0.2745 0.22752 0.87022 0.0
H494 H 0.32111 0.24052 0.79522 0.0
H495 H 0.21332 0.05174 0.72802 0.0
H496 H 0.15586 0.03373 0.79816 0.0
H497 H 0.16994 0.03817 0.64275 0.0
H498 H 0.46884 0.26131 0.83279 0.0
H499 H 0.58505 0.37631 0.93147 0.0
H500 H 0.68359 0.49433 0.85886 0.0
H501 H 0.54251 0.37404 0.75845 0.0
C502 C 0.41768 0.14422 0.49595 0.0
C503 C 0.45557 0.19845 0.49153 0.0
C504 C 0.39058 0.13572 0.53897 0.0
C505 C 0.39606 0.17888 0.57704 0.0
C506 C 0.43567 0.23375 0.57276 0.0
C507 C 0.46371 0.24279 0.53051 0.0
C508 C 0.36229 0.16856 0.62169 0.0
C509 C 0.42798 0.23399 0.67929 0.0
C510 C 0.26769 0.09651 0.60892 0.0
C511 C 0.19033 0.02283 0.54948 0.0
C512 C 0.15571 0.01066 0.49719 0.0
C513 C 0.08379 0.94144 0.44186 0.0
C514 C 0.04276 0.8827 0.4381 0.0
C515 C 0.07486 0.89341 0.48962 0.0
C516 C 0.1486 0.96307 0.54496 0.0
C517 C 0.25599 0.18658 0.8375 0.0
C518 C 0.20852 0.12834 0.83941 0.0
C519 C 0.28436 0.19468 0.79489 0.0
C520 C 0.27141 0.14734 0.75472 0.0
C521 C 0.22365 0.08899 0.75697 0.0
C522 C 0.19175 0.07918 0.79801 0.0
C523 C 0.30891 0.15877 0.7114 0.0
C524 C 0.24322 0.09338 0.65365 0.0
C525 C 0.40617 0.23138 0.72506 0.0
C526 C 0.48982 0.30543 0.78641 0.0
C527 C 0.50982 0.30996 0.83693 0.0
C528 C 0.57951 0.37652 0.89371 0.0
C529 C 0.64221 0.44305 0.9017 0.0
C530 C 0.63175 0.44196 0.8525 0.0
C531 C 0.55323 0.37334 0.7953 0.0
H532 H 0.69972 0.49556 0.94592 0.0
H533 H 0.98619 0.82893 0.39525 0.0
H534 H 0.63172 0.54449 0.19968 0.0
H535 H 0.61109 0.56711 0.13433 0.0
H536 H 0.41834 0.35207 0.98199 0.0
H537 H 0.44131 0.32947 0.04775 0.0
H538 H 0.58991 0.49098 0.98088 0.0
H539 H 0.27584 0.34451 0.00341 0.0
H540 H 0.21526 0.32806 0.07408 0.0
H541 H 0.43896 0.56215 0.183 0.0
H542 H 0.49908 0.57913 0.11257 0.0
H543 H 0.27129 0.39287 0.75088 0.0
H544 H 0.3009 0.38401 0.82743 0.0
H545 H 0.56483 0.62581 0.9592 0.0
H546 H 0.53506 0.63473 0.88238 0.0
H547 H 0.37144 0.48608 0.97729 0.0
H548 H 0.72589 0.64305 0.98472 0.0
H549 H 0.81089 0.68158 0.92654 0.0
H550 H 0.52957 0.44924 0.77 0.0
H551 H 0.44525 0.40958 0.82803 0.0
C552 C 0.58418 0.50142 0.1523 0.0
C553 C 0.53746 0.43478 0.12909 0.0
C554 C 0.57338 0.51495 0.11499 0.0
C555 C 0.51402 0.46168 0.05337 0.0
C556 C 0.46572 0.39438 0.02954 0.0
C557 C 0.47732 0.38095 0.06712 0.0
C558 C 0.49524 0.47403 0.0145 0.0
C559 C 0.54108 0.48886 0.97958 0.0
C560 C 0.436 0.47507 0.01463 0.0
C561 C 0.39051 0.46261 0.05259 0.0
C562 C 0.31026 0.39182 0.04198 0.0
C563 C 0.27663 0.38257 0.08216 0.0
C564 C 0.32329 0.44396 0.13317 0.0
C565 C 0.4026 0.51448 0.14365 0.0
C566 C 0.43579 0.52379 0.10329 0.0
C567 C 0.33329 0.44357 0.79652 0.0
C568 C 0.39989 0.5142 0.81124 0.0
C569 C 0.35019 0.43854 0.84009 0.0
C570 C 0.43431 0.50412 0.89889 0.0
C571 C 0.49888 0.57452 0.91413 0.0
C572 C 0.482 0.57957 0.87041 0.0
C573 C 0.46197 0.49947 0.94183 0.0
C574 C 0.41934 0.48738 0.97818 0.0
C575 C 0.52582 0.50246 0.94387 0.0
C576 C 0.58063 0.52349 0.91072 0.0
C577 C 0.68389 0.60024 0.93825 0.0
C578 C 0.73152 0.62225 0.9053 0.0
C579 C 0.67575 0.56788 0.84463 0.0
C580 C 0.57261 0.49134 0.81695 0.0
C581 C 0.5254 0.46896 0.84997 0.0
H582 H 0.71238 0.58505 0.81907 0.0
H583 H 0.29728 0.43635 0.1642 0.0
H584 H 0.62107 0.94344 0.84108 0.0
H585 H 0.63953 0.01031 0.92851 0.0
H586 H 0.29956 0.80487 0.85165 0.0
H587 H 0.28145 0.7364 0.76606 0.0
H588 H 0.43586 0.97031 0.90411 0.0
H589 H 0.37511 0.81976 0.93821 0.0
H590 H 0.40347 0.7688 0.95012 0.0
H591 H 0.71979 0.99369 0.10015 0.0
H592 H 0.69369 0.04617 0.08807 0.0
H593 H 0.3808 0.06485 0.15216 0.0
H594 H 0.3585 0.99451 0.06512 0.0
H595 H 0.6991 0.18192 0.15374 0.0
H596 H 0.72231 0.25405 0.24 0.0
H597 H 0.55963 0.02349 0.0949 0.0
H598 H 0.60822 0.17019 0.06369 0.0
H599 H 0.56452 0.21344 0.05703 0.0
H600 H 0.25831 0.98881 0.90061 0.0
H601 H 0.29659 0.94233 0.90938 0.0
C602 C 0.55032 0.91239 0.84296 0.0
C603 C 0.44974 0.83451 0.79652 0.0
C604 C 0.56103 0.95066 0.89301 0.0
C605 C 0.47107 0.9125 0.89694 0.0
C606 C 0.37024 0.83531 0.84994 0.0
C607 C 0.36001 0.79629 0.801 0.0
C608 C 0.48237 0.95372 0.94956 0.0
C609 C 0.46182 0.98125 0.94564 0.0
C610 C 0.5174 0.96875 0.00405 0.0
C611 C 0.53417 0.93747 0.01053 0.0
C612 C 0.45192 0.85877 0.97258 0.0
C613 C 0.46718 0.8294 0.97979 0.0
C614 C 0.56392 0.87805 0.02552 0.0
C615 C 0.64529 0.95611 0.06433 0.0
C616 C 0.6304 0.98572 0.05714 0.0
C617 C 0.45101 0.09115 0.15313 0.0
C618 C 0.5534 0.1652 0.20303 0.0
C619 C 0.43809 0.05086 0.10329 0.0
C620 C 0.52706 0.08286 0.10278 0.0
C621 C 0.62928 0.15607 0.15308 0.0
C622 C 0.64247 0.19734 0.20226 0.0
C623 C 0.51347 0.04026 0.04957 0.0
C624 C 0.53384 0.01265 0.05339 0.0
C625 C 0.4767 0.02419 0.9948 0.0
C626 C 0.45463 0.05238 0.988 0.0
C627 C 0.53075 0.12951 0.02842 0.0
C628 C 0.50711 0.15478 0.02405 0.0
C629 C 0.40934 0.10432 0.9778 0.0
C630 C 0.33432 0.02803 0.93626 0.0
C631 C 0.35656 1.00198 0.9413 0.0
H632 H 0.39156 0.12424 0.97435 0.0
H633 H 0.57562 0.85528 0.03122 0.0
H634 H 0.15091 0.62354 0.86291 0.0
H635 H 0.08497 0.59866 0.92832 0.0
H636 H 0.09819 0.47794 0.90775 0.0
H637 H 0.15168 0.49599 0.83853 0.0
H638 H 0.97636 0.4212 0.93004 0.0
H639 H 0.28039 0.7143 0.05426 0.0
H640 H 0.34486 0.81821 0.0683 0.0
H641 H 0.03848 0.68815 0.02847 0.0
H642 H 0.97302 0.58404 0.01398 0.0
H643 H 0.93107 0.41798 0.17893 0.0
H644 H 0.99915 0.4468 0.11519 0.0
H645 H 0.94136 0.53758 0.11751 0.0
H646 H 0.89777 0.52495 0.19291 0.0
H647 H 0.07822 0.60563 0.10334 0.0
H648 H 0.76797 0.30724 0.92405 0.0
H649 H 0.66407 0.18524 0.89506 0.0
H650 H 0.94501 0.30589 0.02137 0.0
H651 H 0.04704 0.4272 0.05152 0.0
C652 C 0.14132 0.59274 0.87354 0.0
C653 C 0.15836 0.56261 0.84545 0.0
C654 C 0.10655 0.58053 0.9135 0.0
C655 C 0.094 0.54188 0.93022 0.0
C656 C 0.11282 0.51285 0.90174 0.0
C657 C 0.14457 0.52324 0.86085 0.0
C658 C 0.05884 0.52859 0.97465 0.0
C659 C 1.00232 0.46359 0.96857 0.0
C660 C 0.08076 0.57794 0.02356 0.0
C661 C 0.12136 0.64072 0.03145 0.0
C662 C 0.22697 0.70783 0.04794 0.0
C663 C 0.26359 0.76679 0.05612 0.0
C664 C 0.19556 0.75956 0.04883 0.0
C665 C 0.09097 0.69357 0.03366 0.0
C666 C 0.05405 0.63452 0.02523 0.0
C667 C 0.93171 0.44341 0.16531 0.0
C668 C 0.8993 0.46309 0.1875 0.0
C669 C 0.96731 0.45727 0.12606 0.0
C670 C 0.96686 0.48767 0.10462 0.0
C671 C 0.93997 0.51124 0.12994 0.0
C672 C 0.91061 0.50154 0.172 0.0
C673 C 1.00057 0.50035 0.05989 0.0
C674 C 0.05525 0.56455 0.06552 0.0
C675 C 0.97433 0.44911 0.00967 0.0
C676 C 0.91212 0.37672 0.99463 0.0
C677 C 0.80513 0.3075 0.94802 0.0
C678 C 0.74711 0.23834 0.93046 0.0
C679 C 0.79693 0.23775 0.9577 0.0
C680 C 0.90539 0.30619 0.00131 0.0
C681 C 0.96311 0.37513 0.01863 0.0
H682 H 0.75217 0.18428 0.94412 0.0
H683 H 0.22404 0.80524 0.05527 0.0
loop_
_geom_bond_atom_site_label_1
_geom_bond_atom_site_label_2
_geom_bond_distance
_geom_bond_site_symmetry_2
_ccdc_geom_bond_type
Cd0 O7 2.298 . S
Cd0 O19 2.255 . S
Cd0 O23 2.218 1_655 S
Cd1 O8 2.269 . S
Cd1 O11 2.237 1_665 S
Cd1 O20 2.201 1_554 S
C2 O10 1.266 . S
C2 O11 1.194 . S
Cd3 O9 2.255 . S
Cd3 O13 2.218 1_455 S
Cd3 O16 2.298 . S
Cd4 O10 2.201 1_556 S
Cd4 O17 2.269 . S
Cd4 O21 2.237 1_445 S
C5 O6 1.201 . S
C5 O13 1.235 . S
O6 C5 1.201 . S
O7 Cd0 2.298 . S
O7 C22 1.265 . S
O8 Cd1 2.269 . S
O8 C22 1.233 . S
O9 Cd3 2.255 . S
O9 C24 1.210 1_455 S
O10 C2 1.266 . S
O10 Cd4 2.201 1_554 S
O11 Cd1 2.237 1_445 S
O11 C2 1.194 . S
C12 O16 1.265 . S
C12 O17 1.233 . S
O13 Cd3 2.218 1_655 S
O13 C5 1.235 . S
C14 O15 1.269 . S
C14 O19 1.210 1_455 S
O15 C14 1.269 . S
O16 Cd3 2.298 . S
O16 C12 1.265 . S
O17 Cd4 2.269 . S
O17 C12 1.233 . S
C18 O20 1.266 . S
C18 O21 1.194 . S
O19 Cd0 2.255 . S
O19 C14 1.210 1_655 S
O20 Cd1 2.201 1_556 S
O20 C18 1.266 . S
O21 Cd4 2.237 1_665 S
O21 C18 1.194 . S
C22 O7 1.265 . S
C22 O8 1.233 . S
O23 Cd0 2.218 1_455 S
O23 C26 1.235 . S
C24 O9 1.210 1_655 S
C24 O25 1.269 . S
O25 C24 1.269 . S
C26 O23 1.235 . S
C26 O27 1.201 . S
O27 C26 1.201 . S
Cd28 O35 2.298 . S
Cd28 O47 2.255 . S
Cd28 O51 2.218 . S
Cd29 O36 2.269 . S
Cd29 O39 2.237 . S
Cd29 O48 2.201 . S
C30 O38 1.266 . S
C30 O39 1.194 . S
Cd31 O37 2.255 . S
Cd31 O41 2.218 . S
Cd31 O44 2.298 . S
Cd32 O38 2.201 . S
Cd32 O45 2.269 . S
Cd32 O49 2.237 . S
C33 O34 1.201 . S
C33 O41 1.235 . S
O34 C33 1.201 . S
O35 Cd28 2.298 . S
O35 C50 1.265 . S
O36 Cd29 2.269 . S
O36 C50 1.233 . S
O37 Cd31 2.255 . S
O37 C52 1.210 . S
O38 C30 1.266 . S
O38 Cd32 2.201 . S
O39 Cd29 2.237 . S
O39 C30 1.194 . S
C40 O44 1.265 . S
C40 O45 1.233 . S
O41 Cd31 2.218 . S
O41 C33 1.235 . S
C42 O43 1.269 . S
C42 O47 1.210 . S
O43 C42 1.269 . S
O44 Cd31 2.298 . S
O44 C40 1.265 . S
O45 Cd32 2.269 . S
O45 C40 1.233 . S
C46 O48 1.266 . S
C46 O49 1.194 . S
O47 Cd28 2.255 . S
O47 C42 1.210 . S
O48 Cd29 2.201 . S
O48 C46 1.266 . S
O49 Cd32 2.237 . S
O49 C46 1.194 . S
C50 O35 1.265 . S
C50 O36 1.233 . S
O51 Cd28 2.218 . S
O51 C54 1.235 . S
C52 O37 1.210 . S
C52 O53 1.269 . S
O53 C52 1.269 . S
C54 O51 1.235 . S
C54 O55 1.201 . S
O55 C54 1.201 . S
Cd56 O63 2.298 . S
Cd56 O75 2.255 . S
Cd56 O79 2.218 . S
Cd57 O64 2.269 . S
Cd57 O67 2.237 . S
Cd57 O76 2.201 . S
C58 O66 1.266 . S
C58 O67 1.194 . S
Cd59 O65 2.255 . S
Cd59 O69 2.218 . S
Cd59 O72 2.298 . S
Cd60 O66 2.201 . S
Cd60 O73 2.269 . S
Cd60 O77 2.237 . S
C61 O62 1.201 . S
C61 O69 1.235 . S
O62 C61 1.201 . S
O63 Cd56 2.298 . S
O63 C78 1.265 . S
O64 Cd57 2.269 . S
O64 C78 1.233 . S
O65 Cd59 2.255 . S
O65 C80 1.210 . S
O66 C58 1.266 . S
O66 Cd60 2.201 . S
O67 Cd57 2.237 . S
O67 C58 1.194 . S
C68 O72 1.265 . S
C68 O73 1.233 . S
O69 Cd59 2.218 . S
O69 C61 1.235 . S
C70 O71 1.269 . S
C70 O75 1.210 . S
O71 C70 1.269 . S
O72 Cd59 2.298 . S
O72 C68 1.265 . S
O73 Cd60 2.269 . S
O73 C68 1.233 . S
C74 O76 1.266 . S
C74 O77 1.194 . S
O75 Cd56 2.255 . S
O75 C70 1.210 . S
O76 Cd57 2.201 . S
O76 C74 1.266 . S
O77 Cd60 2.237 . S
O77 C74 1.194 . S
C78 O63 1.265 . S
C78 O64 1.233 . S
O79 Cd56 2.218 . S
O79 C82 1.235 . S
C80 O65 1.210 . S
C80 O81 1.269 . S
O81 C80 1.269 . S
C82 O79 1.235 . S
C82 O83 1.201 . S
O83 C82 1.201 . S
H84 C102 0.951 . S
H85 C104 0.951 1_565 S
H86 C106 0.950 . S
H87 C107 0.950 . S
H88 C109 0.950 . S
H89 C112 0.950 . S
H90 C113 0.950 . S
H91 C115 0.950 . S
H92 C116 0.950 . S
H93 C117 0.951 . S
H94 C119 0.951 1_545 S
H95 C121 0.950 . S
H96 C122 0.950 . S
H97 C124 0.950 . S
H98 C127 0.950 . S
H99 C128 0.950 . S
H100 C130 0.950 . S
H101 C131 0.950 . S
C102 H84 0.951 . S
C102 C103 1.366 . S
C102 C104 1.388 . S
C103 C102 1.366 . S
C103 C107 1.385 1_655 S
C104 H85 0.951 1_545 S
C104 C102 1.388 . S
C104 C105 1.366 . S
C105 C104 1.366 . S
C105 C106 1.414 1_655 S
C105 C108 1.499 . S
C106 H86 0.950 . S
C106 C105 1.414 1_455 S
C106 C107 1.374 . S
C107 H87 0.950 . S
C107 C103 1.385 1_455 S
C107 C106 1.374 . S
C108 C105 1.499 . S
C108 C109 1.373 1_655 S
C108 C110 1.389 1_545 S
C109 H88 0.950 . S
C109 C108 1.373 1_455 S
C109 C125 1.377 . S
C110 C108 1.389 1_565 S
C110 C111 1.524 . S
C110 C124 1.377 . S
C111 C110 1.524 . S
C111 C112 1.397 . S
C111 C116 1.363 . S
C112 H89 0.950 . S
C112 C111 1.397 . S
C112 C113 1.334 . S
C113 H90 0.950 . S
C113 C112 1.334 . S
C113 C114 1.287 . S
C114 C113 1.287 . S
C114 C115 1.524 . S
C114 H133 0.913 . S
C115 H91 0.950 . S
C115 C114 1.524 . S
C115 C116 1.415 . S
C116 H92 0.950 . S
C116 C111 1.363 . S
C116 C115 1.415 . S
C117 H93 0.951 . S
C117 C118 1.366 . S
C117 C119 1.388 . S
C118 C117 1.366 . S
C118 C122 1.385 1_455 S
C119 H94 0.951 1_565 S
C119 C117 1.388 . S
C119 C120 1.366 . S
C120 C119 1.366 . S
C120 C121 1.414 1_455 S
C120 C123 1.499 . S
C121 H95 0.950 . S
C121 C120 1.414 1_655 S
C121 C122 1.374 . S
C122 H96 0.950 . S
C122 C118 1.385 1_655 S
C122 C121 1.374 . S
C123 C120 1.499 . S
C123 C124 1.373 1_455 S
C123 C125 1.389 1_565 S
C124 H97 0.950 . S
C124 C110 1.377 . S
C124 C123 1.373 1_655 S
C125 C109 1.377 . S
C125 C123 1.389 1_545 S
C125 C126 1.524 . S
C126 C125 1.524 . S
C126 C127 1.397 . S
C126 C131 1.363 . S
C127 H98 0.950 . S
C127 C126 1.397 . S
C127 C128 1.334 . S
C128 H99 0.950 . S
C128 C127 1.334 . S
C128 C129 1.287 . S
C129 C128 1.287 . S
C129 C130 1.524 . S
C129 H132 0.999 . S
C130 H100 0.950 . S
C130 C129 1.524 . S
C130 C131 1.415 . S
C131 H101 0.950 . S
C131 C126 1.363 . S
C131 C130 1.415 . S
H132 C129 0.999 . S
H133 C114 0.913 . S
H134 C152 0.951 . S
H135 C154 0.951 . S
H136 C156 0.950 . S
H137 C157 0.950 . S
H138 C159 0.950 . S
H139 C162 0.950 . S
H140 C163 0.950 . S
H141 C165 0.950 . S
H142 C166 0.950 . S
H143 C167 0.951 . S
H144 C169 0.951 . S
H145 C171 0.950 . S
H146 C172 0.950 . S
H147 C174 0.950 . S
H148 C177 0.950 . S
H149 C178 0.950 . S
H150 C180 0.950 . S
H151 C181 0.950 . S
C152 H134 0.951 . S
C152 C153 1.366 . S
C152 C154 1.388 . S
C153 C152 1.366 . S
C153 C157 1.385 . S
C154 H135 0.951 . S
C154 C152 1.388 . S
C154 C155 1.366 . S
C155 C154 1.366 . S
C155 C156 1.414 . S
C155 C158 1.499 . S
C156 H136 0.950 . S
C156 C155 1.414 . S
C156 C157 1.374 . S
C157 H137 0.950 . S
C157 C153 1.385 . S
C157 C156 1.374 . S
C158 C155 1.499 . S
C158 C159 1.373 . S
C158 C160 1.389 . S
C159 H138 0.950 . S
C159 C158 1.373 . S
C159 C175 1.377 . S
C160 C158 1.389 . S
C160 C161 1.524 . S
C160 C174 1.377 . S
C161 C160 1.524 . S
C161 C162 1.397 . S
C161 C166 1.363 . S
C162 H139 0.950 . S
C162 C161 1.397 . S
C162 C163 1.334 1_655 S
C163 H140 0.950 . S
C163 C162 1.334 1_455 S
C163 C164 1.287 . S
C164 C163 1.287 . S
C164 C165 1.524 . S
C164 H183 0.913 . S
C165 H141 0.950 . S
C165 C164 1.524 . S
C165 C166 1.415 1_455 S
C166 H142 0.950 . S
C166 C161 1.363 . S
C166 C165 1.415 1_655 S
C167 H143 0.951 . S
C167 C168 1.366 . S
C167 C169 1.388 1_554 S
C168 C167 1.366 . S
C168 C172 1.385 . S
C169 H144 0.951 . S
C169 C167 1.388 1_556 S
C169 C170 1.366 . S
C170 C169 1.366 . S
C170 C171 1.414 . S
C170 C173 1.499 . S
C171 H145 0.950 . S
C171 C170 1.414 . S
C171 C172 1.374 1_556 S
C172 H146 0.950 . S
C172 C168 1.385 . S
C172 C171 1.374 1_554 S
C173 C170 1.499 . S
C173 C174 1.373 . S
C173 C175 1.389 . S
C174 H147 0.950 . S
C174 C160 1.377 . S
C174 C173 1.373 . S
C175 C159 1.377 . S
C175 C173 1.389 . S
C175 C176 1.524 . S
C176 C175 1.524 . S
C176 C177 1.397 . S
C176 C181 1.363 . S
C177 H148 0.950 . S
C177 C176 1.397 . S
C177 C178 1.334 . S
C178 H149 0.950 . S
C178 C177 1.334 . S
C178 C179 1.287 . S
C179 C178 1.287 . S
C179 C180 1.524 . S
C179 H182 0.999 . S
C180 H150 0.950 . S
C180 C179 1.524 . S
C180 C181 1.415 . S
C181 H151 0.950 . S
C181 C176 1.363 . S
C181 C180 1.415 . S
H182 C179 0.999 . S
H183 C164 0.913 . S
H184 C202 0.951 1_556 S
H185 C204 0.951 . S
H186 C206 0.950 . S
H187 C207 0.950 . S
H188 C209 0.950 . S
H189 C212 0.950 . S
H190 C213 0.950 1_556 S
H191 C215 0.950 . S
H192 C216 0.950 . S
H193 C217 0.951 . S
H194 C219 0.951 . S
H195 C221 0.950 . S
H196 C222 0.950 . S
H197 C224 0.950 . S
H198 C227 0.950 . S
H199 C228 0.950 . S
H200 C230 0.950 . S
H201 C231 0.950 . S
C202 H184 0.951 1_554 S
C202 C203 1.366 1_554 S
C202 C204 1.388 . S
C203 C202 1.366 1_556 S
C203 C207 1.385 . S
C204 H185 0.951 . S
C204 C202 1.388 . S
C204 C205 1.366 . S
C205 C204 1.366 . S
C205 C206 1.414 . S
C205 C208 1.499 . S
C206 H186 0.950 . S
C206 C205 1.414 . S
C206 C207 1.374 1_554 S
C207 H187 0.950 . S
C207 C203 1.385 . S
C207 C206 1.374 1_556 S
C208 C205 1.499 . S
C208 C209 1.373 . S
C208 C210 1.389 . S
C209 H188 0.950 . S
C209 C208 1.373 . S
C209 C225 1.377 . S
C210 C208 1.389 . S
C210 C211 1.524 . S
C210 C224 1.377 . S
C211 C210 1.524 . S
C211 C212 1.397 . S
C211 C216 1.363 . S
C212 H189 0.950 . S
C212 C211 1.397 . S
C212 C213 1.334 . S
C213 H190 0.950 1_554 S
C213 C212 1.334 . S
C213 C214 1.287 . S
C214 C213 1.287 . S
C214 C215 1.524 . S
C214 H233 0.913 . S
C215 H191 0.950 . S
C215 C214 1.524 . S
C215 C216 1.415 . S
C216 H192 0.950 . S
C216 C211 1.363 . S
C216 C215 1.415 . S
C217 H193 0.951 . S
C217 C218 1.366 . S
C217 C219 1.388 . S
C218 C217 1.366 . S
C218 C222 1.385 . S
C219 H194 0.951 . S
C219 C217 1.388 . S
C219 C220 1.366 . S
C220 C219 1.366 . S
C220 C221 1.414 . S
C220 C223 1.499 . S
C221 H195 0.950 . S
C221 C220 1.414 . S
C221 C222 1.374 . S
C222 H196 0.950 . S
C222 C218 1.385 . S
C222 C221 1.374 . S
C223 C220 1.499 . S
C223 C224 1.373 . S
C223 C225 1.389 . S
C224 H197 0.950 . S
C224 C210 1.377 . S
C224 C223 1.373 . S
C225 C209 1.377 . S
C225 C223 1.389 . S
C225 C226 1.524 . S
C226 C225 1.524 . S
C226 C227 1.397 . S
C226 C231 1.363 . S
C227 H198 0.950 . S
C227 C226 1.397 . S
C227 C228 1.334 . S
C228 H199 0.950 . S
C228 C227 1.334 . S
C228 C229 1.287 . S
C229 C228 1.287 . S
C229 C230 1.524 . S
C229 H232 0.999 . S
C230 H200 0.950 . S
C230 C229 1.524 . S
C230 C231 1.415 . S
C231 H201 0.950 . S
C231 C226 1.363 . S
C231 C230 1.415 . S
H232 C229 0.999 . S
H233 C214 0.913 . S
H234 C252 0.951 . S
H235 C254 0.951 . S
H236 C256 0.950 . S
H237 C257 0.950 . S
H238 C259 0.950 . S
H239 C262 0.950 1_455 S
H240 C263 0.950 . S
H241 C265 0.950 . S
H242 C266 0.950 . S
H243 C267 0.951 . S
H244 C269 0.951 . S
H245 C271 0.950 . S
H246 C272 0.950 . S
H247 C274 0.950 1_655 S
H248 C277 0.950 . S
H249 C278 0.950 . S
H250 C280 0.950 . S
H251 C281 0.950 1_565 S
C252 H234 0.951 . S
C252 C253 1.366 . S
C252 C254 1.388 . S
C253 C252 1.366 . S
C253 C257 1.385 . S
C254 H235 0.951 . S
C254 C252 1.388 . S
C254 C255 1.366 . S
C255 C254 1.366 . S
C255 C256 1.414 . S
C255 C258 1.499 . S
C256 H236 0.950 . S
C256 C255 1.414 . S
C256 C257 1.374 . S
C257 H237 0.950 . S
C257 C253 1.385 . S
C257 C256 1.374 . S
C258 C255 1.499 . S
C258 C259 1.373 . S
C258 C260 1.389 . S
C259 H238 0.950 . S
C259 C258 1.373 . S
C259 C275 1.377 . S
C260 C258 1.389 . S
C260 C261 1.524 1_455 S
C260 C274 1.377 . S
C261 C260 1.524 1_655 S
C261 C262 1.397 . S
C261 C266 1.363 . S
C262 H239 0.950 1_655 S
C262 C261 1.397 . S
C262 C263 1.334 . S
C263 H240 0.950 . S
C263 C262 1.334 . S
C263 C264 1.287 . S
C264 C263 1.287 . S
C264 C265 1.524 . S
C264 H283 0.913 . S
C265 H241 0.950 . S
C265 C264 1.524 . S
C265 C266 1.415 . S
C266 H242 0.950 . S
C266 C261 1.363 . S
C266 C265 1.415 . S
C267 H243 0.951 . S
C267 C268 1.366 . S
C267 C269 1.388 . S
C268 C267 1.366 . S
C268 C272 1.385 . S
C269 H244 0.951 . S
C269 C267 1.388 . S
C269 C270 1.366 . S
C270 C269 1.366 . S
C270 C271 1.414 . S
C270 C273 1.499 . S
C271 H245 0.950 . S
C271 C270 1.414 . S
C271 C272 1.374 . S
C272 H246 0.950 . S
C272 C268 1.385 . S
C272 C271 1.374 . S
C273 C270 1.499 . S
C273 C274 1.373 . S
C273 C275 1.389 . S
C274 H247 0.950 1_455 S
C274 C260 1.377 . S
C274 C273 1.373 . S
C275 C259 1.377 . S
C275 C273 1.389 . S
C275 C276 1.524 . S
C276 C275 1.524 . S
C276 C277 1.397 1_565 S
C276 C281 1.363 1_565 S
C277 H248 0.950 . S
C277 C276 1.397 1_545 S
C277 C278 1.334 . S
C278 H249 0.950 . S
C278 C277 1.334 . S
C278 C279 1.287 . S
C279 C278 1.287 . S
C279 C280 1.524 . S
C279 H282 0.999 . S
C280 H250 0.950 . S
C280 C279 1.524 . S
C280 C281 1.415 . S
C281 H251 0.950 1_545 S
C281 C276 1.363 1_545 S
C281 C280 1.415 . S
H282 C279 0.999 . S
H283 C264 0.913 . S
H284 C302 0.951 . S
H285 C304 0.951 . S
H286 C306 0.950 . S
H287 C307 0.950 . S
H288 C309 0.950 . S
H289 C312 0.950 . S
H290 C313 0.950 . S
H291 C315 0.950 . S
H292 C316 0.950 . S
H293 C317 0.951 . S
H294 C319 0.951 . S
H295 C321 0.950 . S
H296 C322 0.950 . S
H297 C324 0.950 . S
H298 C327 0.950 . S
H299 C328 0.950 . S
H300 C330 0.950 1_455 S
H301 C331 0.950 . S
C302 H284 0.951 . S
C302 C303 1.366 . S
C302 C304 1.388 . S
C303 C302 1.366 . S
C303 C307 1.385 . S
C304 H285 0.951 . S
C304 C302 1.388 . S
C304 C305 1.366 . S
C305 C304 1.366 . S
C305 C306 1.414 . S
C305 C308 1.499 . S
C306 H286 0.950 . S
C306 C305 1.414 . S
C306 C307 1.374 . S
C307 H287 0.950 . S
C307 C303 1.385 . S
C307 C306 1.374 . S
C308 C305 1.499 . S
C308 C309 1.373 . S
C308 C310 1.389 . S
C309 H288 0.950 . S
C309 C308 1.373 . S
C309 C325 1.377 . S
C310 C308 1.389 . S
C310 C311 1.524 . S
C310 C324 1.377 . S
C311 C310 1.524 . S
C311 C312 1.397 . S
C311 C316 1.363 . S
C312 H289 0.950 . S
C312 C311 1.397 . S
C312 C313 1.334 . S
C313 H290 0.950 . S
C313 C312 1.334 . S
C313 C314 1.287 . S
C314 C313 1.287 . S
C314 C315 1.524 . S
C314 H333 0.913 . S
C315 H291 0.950 . S
C315 C314 1.524 . S
C315 C316 1.415 . S
C316 H292 0.950 . S
C316 C311 1.363 . S
C316 C315 1.415 . S
C317 H293 0.951 . S
C317 C318 1.366 . S
C317 C319 1.388 . S
C318 C317 1.366 . S
C318 C322 1.385 . S
C319 H294 0.951 . S
C319 C317 1.388 . S
C319 C320 1.366 . S
C320 C319 1.366 . S
C320 C321 1.414 . S
C320 C323 1.499 . S
C321 H295 0.950 . S
C321 C320 1.414 . S
C321 C322 1.374 . S
C322 H296 0.950 . S
C322 C318 1.385 . S
C322 C321 1.374 . S
C323 C320 1.499 . S
C323 C324 1.373 . S
C323 C325 1.389 . S
C324 H297 0.950 . S
C324 C310 1.377 . S
C324 C323 1.373 . S
C325 C309 1.377 . S
C325 C323 1.389 . S
C325 C326 1.524 . S
C326 C325 1.524 . S
C326 C327 1.397 1_455 S
C326 C331 1.363 . S
C327 H298 0.950 . S
C327 C326 1.397 1_655 S
C327 C328 1.334 . S
C328 H299 0.950 . S
C328 C327 1.334 . S
C328 C329 1.287 . S
C329 C328 1.287 . S
C329 C330 1.524 . S
C329 H332 0.999 . S
C330 H300 0.950 1_655 S
C330 C329 1.524 . S
C330 C331 1.415 1_655 S
C331 H301 0.950 . S
C331 C326 1.363 . S
C331 C330 1.415 1_455 S
H332 C329 0.999 . S
H333 C314 0.913 . S
H334 C352 0.951 . S
H335 C354 0.951 . S
H336 C356 0.950 . S
H337 C357 0.950 . S
H338 C359 0.950 . S
H339 C362 0.950 . S
H340 C363 0.950 . S
H341 C365 0.950 . S
H342 C366 0.950 . S
H343 C367 0.951 . S
H344 C369 0.951 . S
H345 C371 0.950 . S
H346 C372 0.950 . S
H347 C374 0.950 . S
H348 C377 0.952 1_565 S
H349 C378 0.950 . S
H350 C380 0.950 . S
H351 C381 0.950 . S
C352 H334 0.951 . S
C352 C353 1.366 . S
C352 C354 1.388 . S
C353 C352 1.366 . S
C353 C357 1.385 . S
C354 H335 0.951 . S
C354 C352 1.388 . S
C354 C355 1.366 . S
C355 C354 1.366 . S
C355 C356 1.414 . S
C355 C358 1.499 . S
C356 H336 0.950 . S
C356 C355 1.414 . S
C356 C357 1.374 . S
C357 H337 0.950 . S
C357 C353 1.385 . S
C357 C356 1.374 . S
C358 C355 1.499 . S
C358 C359 1.373 . S
C358 C360 1.389 . S
C359 H338 0.950 . S
C359 C358 1.373 . S
C359 C375 1.377 . S
C360 C358 1.389 . S
C360 C361 1.524 . S
C360 C374 1.377 . S
C361 C360 1.524 . S
C361 C362 1.397 . S
C361 C366 1.363 . S
C362 H339 0.950 . S
C362 C361 1.397 . S
C362 C363 1.334 . S
C363 H340 0.950 . S
C363 C362 1.334 . S
C363 C364 1.287 . S
C364 C363 1.287 . S
C364 C365 1.524 . S
C364 H383 0.913 . S
C365 H341 0.950 . S
C365 C364 1.524 . S
C365 C366 1.415 . S
C366 H342 0.950 . S
C366 C361 1.363 . S
C366 C365 1.415 . S
C367 H343 0.951 . S
C367 C368 1.366 . S
C367 C369 1.388 . S
C368 C367 1.366 . S
C368 C372 1.385 . S
C369 H344 0.951 . S
C369 C367 1.388 . S
C369 C370 1.366 . S
C370 C369 1.366 . S
C370 C371 1.414 . S
C370 C373 1.499 . S
C371 H345 0.950 . S
C371 C370 1.414 . S
C371 C372 1.374 . S
C372 H346 0.950 . S
C372 C368 1.385 . S
C372 C371 1.374 . S
C373 C370 1.499 . S
C373 C374 1.373 . S
C373 C375 1.389 . S
C374 H347 0.950 . S
C374 C360 1.377 . S
C374 C373 1.373 . S
C375 C359 1.377 . S
C375 C373 1.389 . S
C375 C376 1.524 . S
C376 C375 1.524 . S
C376 C377 1.381 1_565 S
C376 C381 1.363 1_565 S
C377 H348 0.952 1_545 S
C377 C376 1.381 1_545 S
C377 C378 1.348 . S
C378 H349 0.950 . S
C378 C377 1.348 . S
C378 C379 1.287 . S
C379 C378 1.287 . S
C379 C380 1.524 1_655 S
C379 H382 0.999 1_655 S
C380 H350 0.950 . S
C380 C379 1.524 1_455 S
C380 C381 1.415 1_455 S
C381 H351 0.950 . S
C381 C376 1.363 1_545 S
C381 C380 1.415 1_655 S
H382 C379 0.999 1_455 S
H383 C364 0.913 . S
H384 C402 0.951 . S
H385 C404 0.951 . S
H386 C406 0.950 . S
H387 C407 0.950 . S
H388 C409 0.950 . S
H389 C412 0.950 . S
H390 C413 0.950 . S
H391 C415 0.950 . S
H392 C416 0.950 . S
H393 C417 0.951 1_455 S
H394 C419 0.951 . S
H395 C421 0.950 . S
H396 C422 0.950 . S
H397 C424 0.950 . S
H398 C427 0.950 . S
H399 C428 0.950 . S
H400 C430 0.950 . S
H401 C431 0.950 . S
C402 H384 0.951 . S
C402 C403 1.366 . S
C402 C404 1.388 . S
C403 C402 1.366 . S
C403 C407 1.385 . S
C404 H385 0.951 . S
C404 C402 1.388 . S
C404 C405 1.366 . S
C405 C404 1.366 . S
C405 C406 1.414 . S
C405 C408 1.499 . S
C406 H386 0.950 . S
C406 C405 1.414 . S
C406 C407 1.374 . S
C407 H387 0.950 . S
C407 C403 1.385 . S
C407 C406 1.374 . S
C408 C405 1.499 . S
C408 C409 1.373 . S
C408 C410 1.389 . S
C409 H388 0.950 . S
C409 C408 1.373 . S
C409 C425 1.377 . S
C410 C408 1.389 . S
C410 C411 1.524 . S
C410 C424 1.377 . S
C411 C410 1.524 . S
C411 C412 1.397 . S
C411 C416 1.363 . S
C412 H389 0.950 . S
C412 C411 1.397 . S
C412 C413 1.334 . S
C413 H390 0.950 . S
C413 C412 1.334 . S
C413 C414 1.287 . S
C414 C413 1.287 . S
C414 C415 1.524 . S
C414 H433 0.913 . S
C415 H391 0.950 . S
C415 C414 1.524 . S
C415 C416 1.415 . S
C416 H392 0.950 . S
C416 C411 1.363 . S
C416 C415 1.415 . S
C417 H393 0.951 1_655 S
C417 C418 1.366 . S
C417 C419 1.388 . S
C418 C417 1.366 . S
C418 C422 1.385 . S
C419 H394 0.951 . S
C419 C417 1.388 . S
C419 C420 1.366 . S
C420 C419 1.366 . S
C420 C421 1.414 . S
C420 C423 1.499 . S
C421 H395 0.950 . S
C421 C420 1.414 . S
C421 C422 1.374 . S
C422 H396 0.950 . S
C422 C418 1.385 . S
C422 C421 1.374 . S
C423 C420 1.499 . S
C423 C424 1.373 . S
C423 C425 1.389 . S
C424 H397 0.950 . S
C424 C410 1.377 . S
C424 C423 1.373 . S
C425 C409 1.377 . S
C425 C423 1.389 . S
C425 C426 1.524 . S
C426 C425 1.524 . S
C426 C427 1.397 . S
C426 C431 1.363 . S
C427 H398 0.950 . S
C427 C426 1.397 . S
C427 C428 1.334 1_545 S
C428 H399 0.950 . S
C428 C427 1.334 1_565 S
C428 C429 1.287 1_565 S
C429 C428 1.287 1_545 S
C429 C430 1.524 . S
C429 H432 0.999 1_545 S
C430 H400 0.950 . S
C430 C429 1.524 . S
C430 C431 1.415 . S
C431 H401 0.950 . S
C431 C426 1.363 . S
C431 C430 1.415 . S
H432 C429 0.999 1_565 S
H433 C414 0.913 . S
H434 C452 0.951 . S
H435 C454 0.951 . S
H436 C456 0.950 . S
H437 C457 0.950 . S
H438 C459 0.950 . S
H439 C462 0.950 . S
H440 C463 0.951 . S
H441 C465 0.950 . S
H442 C466 0.950 . S
H443 C467 0.951 . S
H444 C469 0.951 . S
H445 C471 0.950 1_455 S
H446 C472 0.950 . S
H447 C474 0.957 . S
H448 C477 0.950 . S
H449 C478 0.950 . S
H450 C480 0.950 . S
H451 C481 0.950 . S
C452 H434 0.951 . S
C452 C453 1.366 . S
C452 C454 1.388 . S
C453 C452 1.366 . S
C453 C457 1.385 . S
C454 H435 0.951 . S
C454 C452 1.388 . S
C454 C455 1.366 . S
C455 C454 1.366 . S
C455 C456 1.414 . S
C455 C458 1.499 . S
C456 H436 0.950 . S
C456 C455 1.414 . S
C456 C457 1.374 . S
C457 H437 0.950 . S
C457 C453 1.385 . S
C457 C456 1.374 . S
C458 C455 1.499 . S
C458 C459 1.373 . S
C458 C460 1.389 . S
C459 H438 0.950 . S
C459 C458 1.373 . S
C459 C475 1.377 . S
C460 C458 1.389 . S
C460 C461 1.524 . S
C460 C474 1.377 . S
C461 C460 1.524 . S
C461 C462 1.397 . S
C461 C466 1.363 1_655 S
C462 H439 0.950 . S
C462 C461 1.397 . S
C462 C463 1.334 1_655 S
C463 H440 0.951 . S
C463 C462 1.334 1_455 S
C463 C464 1.287 . S
C464 C463 1.287 . S
C464 C465 1.524 . S
C464 H483 0.913 . S
C465 H441 0.950 . S
C465 C464 1.524 . S
C465 C466 1.415 . S
C466 H442 0.950 . S
C466 C461 1.363 1_455 S
C466 C465 1.415 . S
C467 H443 0.951 . S
C467 C468 1.366 . S
C467 C469 1.388 . S
C468 C467 1.366 . S
C468 C472 1.385 1_655 S
C469 H444 0.951 . S
C469 C467 1.388 . S
C469 C470 1.366 . S
C470 C469 1.366 . S
C470 C471 1.414 . S
C470 C473 1.499 . S
C471 H445 0.950 1_655 S
C471 C470 1.414 . S
C471 C472 1.374 1_655 S
C472 H446 0.950 . S
C472 C468 1.385 1_455 S
C472 C471 1.374 1_455 S
C473 C470 1.499 . S
C473 C474 1.373 . S
C473 C475 1.389 . S
C474 H447 0.957 . S
C474 C460 1.377 . S
C474 C473 1.373 . S
C475 C459 1.377 . S
C475 C473 1.389 . S
C475 C476 1.524 . S
C476 C475 1.524 . S
C476 C477 1.397 . S
C476 C481 1.363 . S
C477 H448 0.950 . S
C477 C476 1.397 . S
C477 C478 1.334 . S
C478 H449 0.950 . S
C478 C477 1.334 . S
C478 C479 1.287 . S
C479 C478 1.287 . S
C479 C480 1.524 . S
C479 H482 0.999 . S
C480 H450 0.950 . S
C480 C479 1.524 . S
C480 C481 1.415 . S
C481 H451 0.950 . S
C481 C476 1.363 . S
C481 C480 1.415 . S
H482 C479 0.999 . S
H483 C464 0.913 . S
H484 C502 0.951 . S
H485 C504 0.951 . S
H486 C506 0.950 . S
H487 C507 0.950 . S
H488 C509 0.950 . S
H489 C512 0.950 . S
H490 C513 0.950 . S
H491 C515 0.950 . S
H492 C516 0.950 . S
H493 C517 0.951 . S
H494 C519 0.951 . S
H495 C521 0.950 . S
H496 C522 0.950 1_565 S
H497 C524 0.950 . S
H498 C527 0.950 . S
H499 C528 0.950 . S
H500 C530 0.950 . S
H501 C531 0.950 . S
C502 H484 0.951 . S
C502 C503 1.366 . S
C502 C504 1.388 . S
C503 C502 1.366 . S
C503 C507 1.385 . S
C504 H485 0.951 . S
C504 C502 1.388 . S
C504 C505 1.366 . S
C505 C504 1.366 . S
C505 C506 1.414 . S
C505 C508 1.499 . S
C506 H486 0.950 . S
C506 C505 1.414 . S
C506 C507 1.374 . S
C507 H487 0.950 . S
C507 C503 1.385 . S
C507 C506 1.374 . S
C508 C505 1.499 . S
C508 C509 1.373 . S
C508 C510 1.389 . S
C509 H488 0.950 . S
C509 C508 1.373 . S
C509 C525 1.377 . S
C510 C508 1.389 . S
C510 C511 1.524 . S
C510 C524 1.377 . S
C511 C510 1.524 . S
C511 C512 1.397 . S
C511 C516 1.363 1_545 S
C512 H489 0.950 . S
C512 C511 1.397 . S
C512 C513 1.334 . S
C513 H490 0.950 . S
C513 C512 1.334 . S
C513 C514 1.287 1_445 S
C514 C513 1.287 1_665 S
C514 C515 1.524 . S
C514 H533 0.913 . S
C515 H491 0.950 . S
C515 C514 1.524 . S
C515 C516 1.415 1_655 S
C516 H492 0.950 . S
C516 C511 1.363 1_565 S
C516 C515 1.415 1_455 S
C517 H493 0.951 . S
C517 C518 1.366 . S
C517 C519 1.388 . S
C518 C517 1.366 . S
C518 C522 1.385 . S
C519 H494 0.951 . S
C519 C517 1.388 . S
C519 C520 1.366 . S
C520 C519 1.366 . S
C520 C521 1.414 . S
C520 C523 1.499 . S
C521 H495 0.950 . S
C521 C520 1.414 . S
C521 C522 1.374 . S
C522 H496 0.950 1_545 S
C522 C518 1.385 . S
C522 C521 1.374 . S
C523 C520 1.499 . S
C523 C524 1.373 . S
C523 C525 1.389 . S
C524 H497 0.950 . S
C524 C510 1.377 . S
C524 C523 1.373 . S
C525 C509 1.377 . S
C525 C523 1.389 . S
C525 C526 1.524 . S
C526 C525 1.524 . S
C526 C527 1.397 . S
C526 C531 1.363 . S
C527 H498 0.950 . S
C527 C526 1.397 . S
C527 C528 1.334 . S
C528 H499 0.950 . S
C528 C527 1.334 . S
C528 C529 1.287 . S
C529 C528 1.287 . S
C529 C530 1.524 . S
C529 H532 0.999 . S
C530 H500 0.950 . S
C530 C529 1.524 . S
C530 C531 1.415 . S
C531 H501 0.950 . S
C531 C526 1.363 . S
C531 C530 1.415 . S
H532 C529 0.999 . S
H533 C514 0.913 . S
H534 C552 0.951 . S
H535 C554 0.951 . S
H536 C556 0.950 . S
H537 C557 0.950 . S
H538 C559 0.950 . S
H539 C562 0.950 . S
H540 C563 0.950 . S
H541 C565 0.950 . S
H542 C566 0.950 . S
H543 C567 0.951 . S
H544 C569 0.951 . S
H545 C571 0.950 . S
H546 C572 0.950 . S
H547 C574 0.950 . S
H548 C577 0.950 . S
H549 C578 0.950 . S
H550 C580 0.950 . S
H551 C581 0.950 . S
C552 H534 0.951 . S
C552 C553 1.366 . S
C552 C554 1.388 . S
C553 C552 1.366 . S
C553 C557 1.385 . S
C554 H535 0.951 . S
C554 C552 1.388 . S
C554 C555 1.366 . S
C555 C554 1.366 . S
C555 C556 1.414 . S
C555 C558 1.499 . S
C556 H536 0.950 . S
C556 C555 1.414 . S
C556 C557 1.374 . S
C557 H537 0.950 . S
C557 C553 1.385 . S
C557 C556 1.374 . S
C558 C555 1.499 . S
C558 C559 1.373 1_554 S
C558 C560 1.389 . S
C559 H538 0.950 . S
C559 C558 1.373 1_556 S
C559 C575 1.377 . S
C560 C558 1.389 . S
C560 C561 1.524 . S
C560 C574 1.377 . S
C561 C560 1.524 . S
C561 C562 1.397 . S
C561 C566 1.363 . S
C562 H539 0.950 . S
C562 C561 1.397 . S
C562 C563 1.334 . S
C563 H540 0.950 . S
C563 C562 1.334 . S
C563 C564 1.287 . S
C564 C563 1.287 . S
C564 C565 1.524 . S
C564 H583 0.913 . S
C565 H541 0.950 . S
C565 C564 1.524 . S
C565 C566 1.415 . S
C566 H542 0.950 . S
C566 C561 1.363 . S
C566 C565 1.415 . S
C567 H543 0.951 . S
C567 C568 1.366 . S
C567 C569 1.388 . S
C568 C567 1.366 . S
C568 C572 1.385 . S
C569 H544 0.951 . S
C569 C567 1.388 . S
C569 C570 1.366 . S
C570 C569 1.366 . S
C570 C571 1.414 . S
C570 C573 1.499 . S
C571 H545 0.950 . S
C571 C570 1.414 . S
C571 C572 1.374 . S
C572 H546 0.950 . S
C572 C568 1.385 . S
C572 C571 1.374 . S
C573 C570 1.499 . S
C573 C574 1.373 1_556 S
C573 C575 1.389 . S
C574 H547 0.950 . S
C574 C560 1.377 . S
C574 C573 1.373 1_554 S
C575 C559 1.377 . S
C575 C573 1.389 . S
C575 C576 1.524 . S
C576 C575 1.524 . S
C576 C577 1.397 . S
C576 C581 1.363 . S
C577 H548 0.950 . S
C577 C576 1.397 . S
C577 C578 1.334 . S
C578 H549 0.950 . S
C578 C577 1.334 . S
C578 C579 1.287 . S
C579 C578 1.287 . S
C579 C580 1.524 . S
C579 H582 0.999 . S
C580 H550 0.950 . S
C580 C579 1.524 . S
C580 C581 1.415 . S
C581 H551 0.950 . S
C581 C576 1.363 . S
C581 C580 1.415 . S
H582 C579 0.999 . S
H583 C564 0.913 . S
H584 C602 0.951 . S
H585 C604 0.951 . S
H586 C606 0.950 . S
H587 C607 0.950 . S
H588 C609 0.950 . S
H589 C612 0.950 . S
H590 C613 0.950 . S
H591 C615 0.950 1_545 S
H592 C616 0.950 . S
H593 C617 0.951 . S
H594 C619 0.951 . S
H595 C621 0.950 . S
H596 C622 0.950 . S
H597 C624 0.950 . S
H598 C627 0.950 . S
H599 C628 0.950 . S
H600 C630 0.950 1_565 S
H601 C631 0.950 . S
C602 H584 0.951 . S
C602 C603 1.366 . S
C602 C604 1.388 . S
C603 C602 1.366 . S
C603 C607 1.385 . S
C604 H585 0.951 . S
C604 C602 1.388 . S
C604 C605 1.366 . S
C605 C604 1.366 . S
C605 C606 1.414 . S
C605 C608 1.499 . S
C606 H586 0.950 . S
C606 C605 1.414 . S
C606 C607 1.374 . S
C607 H587 0.950 . S
C607 C603 1.385 . S
C607 C606 1.374 . S
C608 C605 1.499 . S
C608 C609 1.373 . S
C608 C610 1.389 1_556 S
C609 H588 0.950 . S
C609 C608 1.373 . S
C609 C625 1.377 1_565 S
C610 C608 1.389 1_554 S
C610 C611 1.524 . S
C610 C624 1.377 1_565 S
C611 C610 1.524 . S
C611 C612 1.397 1_554 S
C611 C616 1.363 1_565 S
C612 H589 0.950 . S
C612 C611 1.397 1_556 S
C612 C613 1.334 . S
C613 H590 0.950 . S
C613 C612 1.334 . S
C613 C614 1.287 1_556 S
C614 C613 1.287 1_554 S
C614 C615 1.524 . S
C614 H633 0.913 . S
C615 H591 0.950 1_565 S
C615 C614 1.524 . S
C615 C616 1.415 1_565 S
C616 H592 0.950 . S
C616 C611 1.363 1_545 S
C616 C615 1.415 1_545 S
C617 H593 0.951 . S
C617 C618 1.366 . S
C617 C619 1.388 . S
C618 C617 1.366 . S
C618 C622 1.385 . S
C619 H594 0.951 . S
C619 C617 1.388 . S
C619 C620 1.366 . S
C620 C619 1.366 . S
C620 C621 1.414 . S
C620 C623 1.499 . S
C621 H595 0.950 . S
C621 C620 1.414 . S
C621 C622 1.374 . S
C622 H596 0.950 . S
C622 C618 1.385 . S
C622 C621 1.374 . S
C623 C620 1.499 . S
C623 C624 1.373 . S
C623 C625 1.389 1_554 S
C624 H597 0.950 . S
C624 C610 1.377 1_545 S
C624 C623 1.373 . S
C625 C609 1.377 1_545 S
C625 C623 1.389 1_556 S
C625 C626 1.524 . S
C626 C625 1.524 . S
C626 C627 1.397 1_556 S
C626 C631 1.363 1_545 S
C627 H598 0.950 . S
C627 C626 1.397 1_554 S
C627 C628 1.334 . S
C628 H599 0.950 . S
C628 C627 1.334 . S
C628 C629 1.287 1_554 S
C629 C628 1.287 1_556 S
C629 C630 1.524 . S
C629 H632 0.999 . S
C630 H600 0.950 1_545 S
C630 C629 1.524 . S
C630 C631 1.415 1_545 S
C631 H601 0.950 . S
C631 C626 1.363 1_565 S
C631 C630 1.415 1_565 S
H632 C629 0.999 . S
H633 C614 0.913 . S
H634 C652 0.951 1_655 S
H635 C654 0.933 1_655 S
H636 C656 0.950 . S
H637 C657 0.950 . S
H638 C659 0.950 . S
H639 C662 0.950 . S
H640 C663 0.950 . S
H641 C665 0.950 . S
H642 C666 0.950 . S
H643 C667 0.951 1_455 S
H644 C669 0.933 1_455 S
H645 C671 0.950 . S
H646 C672 0.950 . S
H647 C674 0.950 . S
H648 C677 0.950 . S
H649 C678 0.950 . S
H650 C680 0.950 . S
H651 C681 0.950 . S
C652 H634 0.951 1_455 S
C652 C653 1.366 . S
C652 C654 1.393 . S
C653 C652 1.366 . S
C653 C657 1.385 . S
C654 H635 0.933 1_455 S
C654 C652 1.393 . S
C654 C655 1.378 . S
C655 C654 1.378 . S
C655 C656 1.414 . S
C655 C658 1.499 . S
C656 H636 0.950 . S
C656 C655 1.414 . S
C656 C657 1.374 . S
C657 H637 0.950 . S
C657 C653 1.385 . S
C657 C656 1.374 . S
C658 C655 1.499 . S
C658 C659 1.373 . S
C658 C660 1.389 . S
C659 H638 0.950 . S
C659 C658 1.373 . S
C659 C675 1.377 1_456 S
C660 C658 1.389 . S
C660 C661 1.524 . S
C660 C674 1.377 1_456 S
C661 C660 1.524 . S
C661 C662 1.397 1_556 S
C661 C666 1.363 1_455 S
C662 H639 0.950 . S
C662 C661 1.397 1_554 S
C662 C663 1.334 . S
C663 H640 0.950 . S
C663 C662 1.334 . S
C663 C664 1.287 1_554 S
C664 C663 1.287 1_556 S
C664 C665 1.524 1_455 S
C664 H683 0.913 . S
C665 H641 0.950 . S
C665 C664 1.524 1_655 S
C665 C666 1.415 . S
C666 H642 0.950 . S
C666 C661 1.363 1_655 S
C666 C665 1.415 . S
C667 H643 0.951 1_655 S
C667 C668 1.366 . S
C667 C669 1.393 . S
C668 C667 1.366 . S
C668 C672 1.385 . S
C669 H644 0.933 1_655 S
C669 C667 1.393 . S
C669 C670 1.378 . S
C670 C669 1.378 . S
C670 C671 1.414 . S
C670 C673 1.499 . S
C671 H645 0.950 . S
C671 C670 1.414 . S
C671 C672 1.374 . S
C672 H646 0.950 . S
C672 C668 1.385 . S
C672 C671 1.374 . S
C673 C670 1.499 . S
C673 C674 1.373 . S
C673 C675 1.389 . S
C674 H647 0.950 . S
C674 C660 1.377 1_654 S
C674 C673 1.373 . S
C675 C659 1.377 1_654 S
C675 C673 1.389 . S
C675 C676 1.524 . S
C676 C675 1.524 . S
C676 C677 1.397 1_554 S
C676 C681 1.363 1_655 S
C677 H648 0.950 . S
C677 C676 1.397 1_556 S
C677 C678 1.334 . S
C678 H649 0.950 . S
C678 C677 1.334 . S
C678 C679 1.287 1_556 S
C679 C678 1.287 1_554 S
C679 C680 1.524 1_655 S
C679 H682 0.999 . S
C680 H650 0.950 . S
C680 C679 1.524 1_455 S
C680 C681 1.415 . S
C681 H651 0.950 . S
C681 C676 1.363 1_455 S
C681 C680 1.415 . S
H682 C679 0.999 . S
H683 C664 0.913 . S
C103 C24 0.476 . S
C118 C14 0.476 . S
C153 C42 0.476 . S
C168 C52 0.476 . S
C203 C70 0.476 . S
C218 C80 0.476 . S
C253 C61 1.965 . S
C268 C26 1.964 . S
C303 C74 1.596 . S
C318 C2 1.594 . S
C353 C68 2.139 . S
C368 C22 2.138 . S
C403 C54 1.965 . S
C418 C5 1.966 . S
C453 C30 1.597 . S
C468 C18 1.599 . S
C503 C50 2.140 . S
C518 C12 2.141 . S
C553 C33 1.964 . S
C568 C82 1.964 . S
C603 C58 1.596 . S
C618 C46 1.596 . S
C653 C78 2.139 . S
C668 C40 2.139 . S
