# Generated by pormake.
# Topology ilc, (8)-cn, num edge types: 1
# Building blocks:
#     Node 0, Type 0, BuildingBlock: LIZSOE_clean_sbu_0, # of connection points: 8
#     Node 1, Type 0, BuildingBlock: LIZSOE_clean_sbu_0, # of connection points: 8
#     Node 2, Type 0, BuildingBlock: LIZSOE_clean_sbu_0, # of connection points: 8
#     Edge 3, Type (0, 0), BuildingBlock: KIFKEQ_clean_linker_1, # of connection points: 2
#     Edge 4, Type (0, 0), BuildingBlock: KIFKEQ_clean_linker_1, # of connection points: 2
#     Edge 5, Type (0, 0), BuildingBlock: KIFKEQ_clean_linker_1, # of connection points: 2
#     Edge 6, Type (0, 0), BuildingBlock: KIFKEQ_clean_linker_1, # of connection points: 2
#     Edge 7, Type (0, 0), BuildingBlock: KIFKEQ_clean_linker_1, # of connection points: 2
#     Edge 8, Type (0, 0), BuildingBlock: KIFKEQ_clean_linker_1, # of connection points: 2
#     Edge 9, Type (0, 0), BuildingBlock: KIFKEQ_clean_linker_1, # of connection points: 2
#     Edge 10, Type (0, 0), BuildingBlock: KIFKEQ_clean_linker_1, # of connection points: 2
#     Edge 11, Type (0, 0), BuildingBlock: KIFKEQ_clean_linker_1, # of connection points: 2
#     Edge 12, Type (0, 0), BuildingBlock: KIFKEQ_clean_linker_1, # of connection points: 2
#     Edge 13, Type (0, 0), BuildingBlock: KIFKEQ_clean_linker_1, # of connection points: 2
#     Edge 14, Type (0, 0), BuildingBlock: KIFKEQ_clean_linker_1, # of connection points: 2
# Relax obj value: 0.396
# Max RMSD: 0.183
# Mean RMSD: 0.183
data_MOF--net-ilc--node1-LIZSOE_clean_sbu_0--edge1-KIFKEQ_clean_linker_1
_symmetry_space_group_name_H-M    P1
_symmetry_Int_Tables_number       1
_symmetry_cell_setting            triclinic
loop_
_symmetry_equiv_pos_as_xyz
'x, y, z'
_cell_length_a     20.492841
_cell_length_b     20.951617
_cell_length_c     16.296311
_cell_angle_alpha  89.932853
_cell_angle_beta   91.505761
_cell_angle_gamma 120.62849
loop_
_atom_site_label
_atom_site_type_symbol
_atom_site_fract_x
_atom_site_fract_y
_atom_site_fract_z
_atom_type_partial_charge
Co0 Co 0.07719 0.09316 0.92481 0.0
N1 N 1.00682 0.05244 0.83291 0.0
C2 C 0.95163 0.06898 0.82227 0.0
N3 N 1.01944 0.10743 0.71115 0.0
C4 C 1.03764 0.06553 0.75854 0.0
C5 C 0.96265 0.1076 0.75007 0.0
Co6 Co 0.97883 0.9985 0.25441 0.0
N7 N 0.98258 0.9633 0.36051 0.0
N8 N 0.05468 0.95945 0.46497 0.0
C9 C 1.01029 0.98486 0.49253 0.0
C10 C 0.96927 0.99053 0.42819 0.0
C11 C 1.02679 0.93651 0.38786 0.0
Co12 Co 0.05669 0.07993 0.08045 0.0
C13 C 0.92134 0.96845 0.20526 0.0
H14 H 0.94175 1.02284 0.42867 0.0
O15 O 0.1544 0.14031 1.00582 0.0
O16 O 0.11946 0.03436 0.12067 0.0
O17 O 0.99645 0.98695 1.00172 0.0
O18 O 0.99943 0.13269 1.03047 0.0
O19 O 0.06812 0.17671 0.92191 0.0
O20 O 0.06678 0.99442 0.2371 0.0
O21 O 0.96563 1.02623 0.15741 0.0
O22 O 1.04231 0.10041 0.28887 0.0
O23 O 0.08876 1.00917 0.92452 0.0
O24 O 0.15293 0.13764 0.86634 0.0
O25 O 0.10649 0.16173 0.17456 0.0
O26 O 0.92573 0.90845 0.20816 0.0
C27 C 1.02588 0.96184 0.9518 0.0
C28 C 1.02341 0.86957 0.35093 0.0
H29 H 0.97669 0.81958 0.37952 0.0
H30 H 1.01086 0.86453 0.28404 0.0
H31 H 0.07653 0.86988 0.36622 0.0
C32 C 0.1178 1.00528 0.1892 0.0
C33 C 1.01982 0.1764 0.96771 0.0
H34 H 0.91388 0.06366 0.86986 0.0
H35 H 0.14833 0.08366 0.73495 0.0
H36 H 0.07328 1.01686 0.66946 0.0
H37 H 0.08323 0.99307 0.77239 0.0
C38 C 0.08874 0.03819 0.73284 0.0
C39 C 0.19011 0.16099 0.93411 0.0
C40 C 0.09145 0.16002 0.25309 0.0
H41 H 0.93691 0.13979 0.73235 0.0
H42 H 1.019 1.0129 0.5505 0.0
Co43 Co 0.82414 0.4428 0.23994 0.0
N44 N 0.83261 0.41545 0.13263 0.0
C45 C 0.81684 0.44163 1.06427 0.0
N46 N 0.80363 0.33325 1.03021 0.0
C47 C 0.83076 0.35296 0.10796 0.0
C48 C 0.79956 0.39164 1.00136 0.0
Co49 Co 0.62864 0.33521 0.55183 0.0
N50 N 0.61324 0.27657 0.64459 0.0
N51 N 0.56319 0.17872 0.72701 0.0
C52 C 0.58809 0.24055 0.77326 0.0
C53 C 0.6185 0.30058 0.72239 0.0
C54 C 0.57989 0.20146 0.64949 0.0
Co55 Co 0.72979 0.42214 0.40782 0.0
C56 C 0.57473 0.3254 0.50697 0.0
H57 H 0.64055 0.35776 0.7405 0.0
O58 O 0.82704 0.47544 0.33923 0.0
O59 O 0.79151 0.3953 0.48803 0.0
O60 O 0.67618 0.3195 0.35033 0.0
O61 O 0.6828 0.46049 0.31992 0.0
O62 O 0.74796 0.46714 0.20578 0.0
O63 O 0.69276 0.29761 0.52234 0.0
O64 O 0.6321 0.38441 0.47111 0.0
O65 O 0.71393 0.43209 0.60218 0.0
O66 O 0.74613 0.34161 0.24529 0.0
O67 O 0.88719 0.41635 0.28728 0.0
O68 O 0.76705 0.50794 0.49052 0.0
O69 O 0.55779 0.25871 0.48813 0.0
C70 C 0.69078 0.29626 0.28555 0.0
C71 C 0.55625 0.14743 0.57808 0.0
H72 H 0.49998 0.13527 0.55356 0.0
H73 H 0.59736 0.16872 0.52829 0.0
H74 H 0.54908 0.09351 0.59704 0.0
C75 C 0.76304 0.33619 0.52812 0.0
C76 C 0.69632 0.47376 0.2417 0.0
H77 H 0.80858 0.48864 1.06262 0.0
H78 H 0.9187 0.3505 0.17907 0.0
H79 H 0.85694 0.26501 0.12643 0.0
H80 H 0.82587 0.29009 0.21586 0.0
C81 C 0.85875 0.3117 0.15982 0.0
C82 C 0.8788 0.47369 0.29119 0.0
C83 C 0.75754 0.49788 0.57032 0.0
H84 H 0.77233 0.39173 0.94349 0.0
H85 H 0.58589 0.24218 0.83946 0.0
Co86 Co 0.49673 0.7727 0.58862 0.0
N87 N 0.51055 0.74594 0.48295 0.0
C88 C 0.50257 0.77598 0.41324 0.0
N89 N 0.4976 0.67171 0.37681 0.0
C90 C 0.51329 0.68578 0.45781 0.0
C91 C 0.49537 0.73113 0.34827 0.0
Co92 Co 0.28066 0.66862 0.88741 0.0
N93 N 0.25232 0.60695 0.97908 0.0
N94 N 0.20854 0.50718 1.05873 0.0
C95 C 0.23344 0.56801 0.10695 0.0
C96 C 0.25958 0.62905 1.0579 0.0
C97 C 0.22009 0.53187 0.98151 0.0
Co98 Co 0.39411 0.75473 0.74652 0.0
C99 C 0.23197 0.66334 0.83505 0.0
H100 H 0.28485 0.68609 0.07839 0.0
O101 O 0.49512 0.80506 0.68567 0.0
O102 O 0.44546 0.71373 0.81997 0.0
O103 O 0.33554 0.65657 0.68053 0.0
O104 O 0.35868 0.80391 0.65835 0.0
O105 O 0.42444 0.80104 0.5484 0.0
O106 O 0.3448 0.62854 0.87457 0.0
O107 O 0.29524 0.72073 0.80525 0.0
O108 O 0.36491 0.75963 0.94457 0.0
O109 O 0.41759 0.67254 0.59047 0.0
O110 O 0.55401 0.74208 0.64176 0.0
O111 O 0.43424 0.83619 0.83851 0.0
O112 O 0.21231 0.5956 0.81752 0.0
C113 C 0.3558 0.63053 0.62281 0.0
C114 C 0.19861 0.48008 0.90833 0.0
H115 H 0.24375 0.50097 0.86276 0.0
H116 H 0.18642 0.42425 0.92644 0.0
H117 H 0.14565 0.47245 0.87882 0.0
C118 C 0.41437 0.6577 0.86478 0.0
C119 C 0.37492 0.8139 0.58011 0.0
H120 H 0.49395 0.82275 0.41047 0.0
H121 H 0.59251 0.67479 0.5355 0.0
H122 H 0.52861 0.5917 0.47853 0.0
H123 H 0.49671 0.61933 0.56599 0.0
C124 C 0.53306 0.63972 0.51231 0.0
C125 C 0.54879 0.80126 0.64356 0.0
C126 C 0.41766 0.8239 0.91733 0.0
H127 H 0.47563 0.73479 0.28709 0.0
H128 H 0.23825 0.56892 0.17334 0.0
H129 H 1.00476 0.12522 0.54846 0.0
H130 H 0.15863 0.22341 0.75523 0.0
H131 H 0.10946 0.15081 0.46305 0.0
H132 H 0.26371 0.24025 0.67292 0.0
H133 H 0.15154 0.06365 0.36076 0.0
H134 H 0.24858 0.18351 0.40941 0.0
H135 H 0.23585 0.09898 0.64935 0.0
H136 H 0.14389 0.97336 0.60014 0.0
C137 C 0.06184 0.1558 0.57471 0.0
C138 C 0.07341 0.16478 0.65943 0.0
C139 C 0.12285 0.17025 0.52603 0.0
C140 C 0.19425 0.19061 0.56336 0.0
C141 C 0.20894 0.22064 0.64309 0.0
C142 C 0.14832 0.21009 0.6904 0.0
C143 C 0.17392 0.06734 0.42218 0.0
C144 C 0.13532 1.00881 0.47792 0.0
C145 C 0.22913 0.1377 0.45093 0.0
C146 C 0.23329 0.15094 0.53533 0.0
C147 C 0.22058 0.09053 0.58478 0.0
C148 C 0.16783 1.01836 0.55691 0.0
H149 H 0.63555 0.10241 0.70647 0.0
H150 H 0.44294 0.09145 0.82016 0.0
H151 H 0.65947 0.05025 0.82729 0.0
H152 H 0.46865 0.04121 0.94105 0.0
H153 H 0.65466 0.28208 1.02737 0.0
H154 H 0.55522 0.16303 0.97964 0.0
H155 H 0.71832 0.09115 0.95455 0.0
H156 H 0.81892 0.21501 1.00099 0.0
C157 C 0.59524 0.08429 0.75518 0.0
C158 C 0.54196 0.10741 0.7584 0.0
C159 C 0.60902 0.05455 0.82542 0.0
C160 C 0.57554 0.05842 0.89802 0.0
C161 C 0.50221 0.04814 0.88821 0.0
C162 C 0.48739 0.07804 0.81882 0.0
C163 C 0.66915 0.2409 1.01056 0.0
C164 C 0.74492 0.25878 1.01059 0.0
C165 C 0.61178 0.17136 0.98452 0.0
C166 C 0.62882 0.11765 0.9574 0.0
C167 C 0.70351 0.13229 0.97025 0.0
C168 C 0.76124 0.20288 0.99581 0.0
H169 H 0.11171 0.41017 0.16647 0.0
H170 H 0.29803 0.45286 1.01513 0.0
H171 H 0.1704 0.38342 0.27827 0.0
H172 H 0.35679 0.42385 0.12711 0.0
H173 H 0.51883 0.56194 0.32124 0.0
H174 H 0.42058 0.44521 0.25437 0.0
H175 H 0.25223 0.50292 0.31726 0.0
H176 H 0.34918 0.61525 0.38084 0.0
C177 C 0.16198 0.40722 0.15516 0.0
C178 C 0.20453 0.44066 0.08635 0.0
C179 C 0.19629 0.39108 0.21984 0.0
C180 C 0.2732 0.41154 0.21475 0.0
C181 C 0.3007 0.41527 0.13582 0.0
C182 C 0.26655 0.43162 1.0707 0.0
C183 C 0.46043 0.54827 0.31902 0.0
C184 C 0.44132 0.59886 0.34915 0.0
C185 C 0.40408 0.48141 0.28265 0.0
C186 C 0.32814 0.46485 0.27739 0.0
C187 C 0.30923 0.51229 0.31823 0.0
C188 C 0.36506 0.5781 0.35364 0.0
H189 H 0.32688 0.91657 0.60208 0.0
H190 H 0.33751 0.77436 0.41865 0.0
H191 H 0.27694 0.96642 0.49644 0.0
H192 H 0.28703 0.82273 0.31455 0.0
H193 H 0.10581 0.86833 0.18023 0.0
H194 H 0.1697 0.82282 0.27173 0.0
H195 H 0.31643 0.0449 0.36615 0.0
H196 H 0.25534 0.09067 0.27049 0.0
C197 C 0.31763 0.89498 0.53985 0.0
C198 C 0.33615 0.84065 0.52001 0.0
C199 C 0.28974 0.92429 0.47862 0.0
C200 C 0.27783 0.89923 0.39575 0.0
C201 C 0.29473 0.84371 0.37692 0.0
C202 C 0.32393 0.81579 0.43728 0.0
C203 C 0.15405 0.90812 0.21763 0.0
C204 C 0.17434 0.98333 0.21819 0.0
C205 C 0.19031 0.88177 0.27146 0.0
C206 C 0.24681 0.92936 0.32965 0.0
C207 C 0.27169 1.00567 0.32472 0.0
C208 C 0.23721 1.03224 0.26869 0.0
H209 H 0.39006 0.51959 0.61301 0.0
H210 H 0.21298 0.56424 0.54598 0.0
H211 H 0.32698 0.40506 0.53123 0.0
H212 H 0.14869 0.44903 0.464 0.0
H213 H 1.02312 0.21663 0.34641 0.0
H214 H 0.07917 0.31858 0.44725 0.0
H215 H 0.30101 0.35373 0.39845 0.0
H216 H 0.24445 0.25418 0.2941 0.0
C217 C 0.33723 0.50492 0.58111 0.0
C218 C 0.30735 0.55241 0.58686 0.0
C219 C 0.30064 0.43853 0.53346 0.0
C220 C 0.23199 0.41606 0.48894 0.0
C221 C 0.20049 0.46232 0.49747 0.0
C222 C 0.23743 0.52903 0.54516 0.0
C223 C 0.08423 0.24751 0.35546 0.0
C224 C 0.12924 0.22867 0.30842 0.0
C225 C 0.11668 0.30612 0.41447 0.0
C226 C 0.19587 0.34774 0.43107 0.0
C227 C 0.24021 0.32515 0.38785 0.0
C228 C 0.20783 0.26814 0.32652 0.0
H229 H 0.55651 0.91704 0.54691 0.0
H230 H 0.69657 0.83383 0.64267 0.0
H231 H 0.64167 0.9708 0.43062 0.0
H232 H 0.78019 0.88682 0.5277 0.0
H233 H 0.79164 0.84225 0.25104 0.0
H234 H 0.7113 0.82741 0.36483 0.0
H235 H 0.81617 0.06444 0.38856 0.0
H236 H 0.89967 0.08021 0.27386 0.0
C237 C 0.60698 0.91295 0.54605 0.0
C238 C 0.61728 0.86842 0.60441 0.0
C239 C 0.65575 0.9434 0.47829 0.0
C240 C 0.71703 0.93147 0.46801 0.0
C241 C 0.73303 0.89616 0.53223 0.0
C242 C 0.68505 0.86641 0.59936 0.0
C243 C 0.79696 0.89191 0.27814 0.0
C244 C 0.85398 0.96273 0.25224 0.0
C245 C 0.75064 0.88307 0.34449 0.0
C246 C 0.75772 0.94444 0.38761 0.0
C247 C 0.80901 1.01564 0.35723 0.0
C248 C 0.85657 1.02469 0.29047 0.0
H249 H 0.72264 0.1999 0.59228 0.0
H250 H 0.89929 0.42909 0.61439 0.0
H251 H 0.78074 0.16818 0.70465 0.0
H252 H 0.95701 0.39833 0.72978 0.0
H253 H 0.08285 0.30824 0.88955 0.0
H254 H 1.02531 0.34906 0.78597 0.0
H255 H 0.80567 0.16265 0.84012 0.0
H256 H 0.86413 0.12416 0.94718 0.0
C257 C 0.77415 0.24399 0.62115 0.0
C258 C 0.80586 0.3173 0.59248 0.0
C259 C 0.80751 0.22577 0.68734 0.0
C260 C 0.87414 0.28012 0.72953 0.0
C261 C 0.90656 0.35367 0.69994 0.0
C262 C 0.87335 0.37175 0.63282 0.0
C263 C 1.02165 0.27811 0.88295 0.0
C264 C 0.97887 0.21349 0.92972 0.0
C265 C 0.98812 0.30107 0.82159 0.0
C266 C 0.90957 0.25969 0.80213 0.0
C267 C 0.86616 0.19665 0.85129 0.0
C268 C 0.89976 0.17491 0.91465 0.0
H269 H 0.88053 0.6394 0.54506 0.0
H270 H 0.72147 0.50936 0.7301 0.0
H271 H 0.9411 0.7458 0.64044 0.0
H272 H 0.78126 0.61608 0.82487 0.0
H273 H 0.86932 0.85772 0.94017 0.0
H274 H 0.80378 0.74591 0.85121 0.0
H275 H 1.01979 0.78611 0.76978 0.0
H276 H 0.08448 0.89504 0.85938 0.0
C277 C 0.85817 0.63314 0.60591 0.0
C278 C 0.79589 0.5645 0.62897 0.0
C279 C 0.89329 0.69453 0.66121 0.0
C280 C 0.86676 0.69058 0.74149 0.0
C281 C 0.80363 0.62232 0.76403 0.0
C282 C 0.76948 0.56049 0.70933 0.0
C283 C 0.90291 0.84198 0.90454 0.0
C284 C 0.98282 0.88689 0.90741 0.0
C285 C 0.86519 0.77773 0.85282 0.0
C286 C 0.90593 0.7567 0.80118 0.0
C287 C 0.98568 0.80045 0.80648 0.0
C288 C 1.02306 0.86329 0.85885 0.0
H289 H 0.42914 0.2138 0.53352 0.0
H290 H 0.58734 0.43649 0.6196 0.0
H291 H 0.36121 0.18874 0.65881 0.0
H292 H 0.51117 0.41244 0.74365 0.0
H293 H 0.26643 0.31 0.90187 0.0
H294 H 0.36429 0.36571 0.79808 0.0
H295 H 0.39208 0.17576 0.80911 0.0
H296 H 0.29579 0.12115 0.91331 0.0
C297 C 0.44822 0.25921 0.57721 0.0
C298 C 0.51612 0.32737 0.56451 0.0
C299 C 0.40834 0.24406 0.65032 0.0
C300 C 0.4299 0.29745 0.71316 0.0
C301 C 0.49252 0.36899 0.69752 0.0
C302 C 0.53568 0.38343 0.62497 0.0
C303 C 0.2974 0.28249 0.88708 0.0
C304 C 0.27359 0.21133 0.91972 0.0
C305 C 0.35291 0.31408 0.82557 0.0
C306 C 0.38621 0.27522 0.79313 0.0
C307 C 0.36793 0.2077 0.83135 0.0
C308 C 0.31357 0.17692 0.89346 0.0
H309 H 0.66771 0.45375 1.07527 0.0
H310 H 0.62859 0.55503 0.28353 0.0
H311 H 0.60516 0.5003 0.9843 0.0
H312 H 0.56779 0.60411 0.19104 0.0
H313 H 0.38344 0.60236 1.01958 0.0
H314 H 0.4512 0.56121 0.1088 0.0
H315 H 0.61557 0.61348 0.92182 0.0
H316 H 0.54742 0.65673 0.83213 0.0
C317 C 0.64563 0.48595 0.1021 0.0
C318 C 0.65257 0.49928 0.18792 0.0
C319 C 0.60998 0.51326 1.04927 0.0
C320 C 0.57991 0.55553 0.07979 0.0
C321 C 0.58756 0.56962 0.16542 0.0
C322 C 0.62267 0.54159 0.21863 0.0
C323 C 0.43364 0.60481 0.99664 0.0
C324 C 0.45872 0.63224 0.9174 0.0
C325 C 0.47326 0.58156 1.04869 0.0
C326 C 0.53924 0.58311 1.02341 0.0
C327 C 0.56469 0.61046 0.94386 0.0
C328 C 0.52572 0.63565 0.8922 0.0
H329 H 0.35217 0.88352 1.01221 0.0
H330 H 0.56829 0.90278 0.97483 0.0
H331 H 0.40998 0.9842 0.1137 0.0
H332 H 0.62705 1.0029 0.07786 0.0
H333 H 0.7275 0.18645 0.27401 0.0
H334 H 0.66174 0.06916 0.19758 0.0
H335 H 0.47925 0.10915 0.13747 0.0
H336 H 0.54582 0.22629 0.21479 0.0
C337 C 0.4125 0.90955 1.0252 0.0
C338 C 0.45572 0.88665 0.98112 0.0
C339 C 0.44632 0.96827 0.08421 0.0
C340 C 0.52519 1.00641 0.10359 0.0
C341 C 0.56685 0.97794 1.0651 0.0
C342 C 0.53318 0.92032 1.00437 0.0
C343 C 0.67296 0.17005 0.24512 0.0
C344 C 0.64254 0.21699 0.25189 0.0
C345 C 0.63469 0.10192 0.20022 0.0
C346 C 0.56377 0.077 0.15912 0.0
C347 C 0.53237 0.12337 0.16839 0.0
C348 C 0.57087 0.19161 0.21338 0.0
H349 H 0.25014 0.77321 0.95024 0.0
H350 H 0.07831 0.56344 0.84581 0.0
H351 H 0.17258 0.74918 1.07213 0.0
H352 H 1.00061 0.54133 0.96503 0.0
H353 H 1.02838 0.51309 0.2751 0.0
H354 H 0.10914 0.57839 0.16079 0.0
H355 H 0.95438 0.64886 0.08138 0.0
H356 H 0.87403 0.58575 0.19873 0.0
C357 C 0.19497 0.72355 0.95093 0.0
C358 C 0.17274 0.66998 0.88714 0.0
C359 C 0.15027 0.70941 1.02169 0.0
C360 C 0.08017 0.64253 1.02967 0.0
C361 C 0.05405 0.59326 0.96196 0.0
C362 C 0.09898 0.60671 0.89248 0.0
C363 C 1.01266 0.54537 0.23621 0.0
C364 C 0.94279 0.54234 0.24769 0.0
C365 C 0.05924 0.58246 0.16937 0.0
C366 C 1.03855 0.61848 0.11033 0.0
C367 C 0.97261 0.62175 0.12516 0.0
C368 C 0.92645 0.58568 0.19356 0.0
loop_
_geom_bond_atom_site_label_1
_geom_bond_atom_site_label_2
_geom_bond_distance
_geom_bond_site_symmetry_2
_ccdc_geom_bond_type
Co0 N1 2.034 1_455 S
Co0 O15 2.262 . S
Co0 O19 1.958 1_455 S
Co0 O23 1.950 1_445 S
Co0 O24 2.057 . S
N1 Co0 2.034 1_655 S
N1 C2 1.366 . S
N1 C4 1.332 1_645 S
C2 N1 1.366 . S
C2 C5 1.377 . S
C2 H34 0.931 . S
N3 C4 1.346 1_655 S
N3 C5 1.337 1_565 S
C4 N1 1.332 1_465 S
C4 N3 1.346 1_455 S
C4 C38 1.361 . S
C5 C2 1.377 . S
C5 N3 1.337 1_545 S
C5 H41 0.930 . S
Co6 N7 2.034 1_655 S
Co6 O20 1.950 1_645 S
Co6 O21 2.262 1_545 S
Co6 O22 1.958 1_655 S
Co6 O26 2.057 1_545 S
N7 Co6 2.034 1_455 S
N7 C10 1.366 . S
N7 C11 1.332 1_445 S
N8 C9 1.337 1_565 S
N8 C11 1.346 1_455 S
C9 N8 1.337 1_545 S
C9 C10 1.377 . S
C9 H42 0.930 . S
C10 N7 1.366 . S
C10 C9 1.377 . S
C10 H14 0.931 . S
C11 N7 1.332 1_665 S
C11 N8 1.346 1_655 S
C11 C28 1.361 . S
Co12 O15 2.097 1_554 S
Co12 O16 2.065 1_545 S
Co12 O17 2.065 1_444 S
Co12 O18 2.042 1_454 S
Co12 O21 2.097 1_445 S
Co12 O25 2.042 . S
C13 O21 1.253 . S
C13 O26 1.263 . S
H14 C10 0.931 . S
O15 Co0 2.262 . S
O15 Co12 2.097 1_556 S
O15 C39 1.253 . S
O16 Co12 2.065 1_565 S
O16 C32 1.221 . S
O17 Co12 2.065 1_666 S
O17 C27 1.221 . S
O18 Co12 2.042 1_656 S
O18 C33 1.237 . S
O19 Co0 1.958 1_655 S
O19 C33 1.278 . S
O20 Co6 1.950 1_465 S
O20 C32 1.277 . S
O21 Co6 2.262 1_565 S
O21 Co12 2.097 1_665 S
O21 C13 1.253 . S
O22 Co6 1.958 1_455 S
O22 C40 1.278 . S
O23 Co0 1.950 1_665 S
O23 C27 1.277 . S
O24 Co0 2.057 . S
O24 C39 1.263 . S
O25 Co12 2.042 . S
O25 C40 1.237 . S
O26 Co6 2.057 1_565 S
O26 C13 1.263 . S
C27 O17 1.221 . S
C27 O23 1.277 . S
C28 C11 1.361 . S
C28 H29 0.960 . S
C28 H30 0.961 . S
C28 H31 0.961 . S
H29 C28 0.960 . S
H30 C28 0.961 . S
H31 C28 0.961 . S
C32 O16 1.221 . S
C32 O20 1.277 . S
C33 O18 1.237 . S
C33 O19 1.278 . S
H34 C2 0.931 . S
H35 C38 0.961 . S
H36 C38 0.961 . S
H37 C38 0.960 . S
C38 C4 1.361 . S
C38 H35 0.961 . S
C38 H36 0.961 . S
C38 H37 0.960 . S
C39 O15 1.253 . S
C39 O24 1.263 . S
C40 O22 1.278 . S
C40 O25 1.237 . S
H41 C5 0.930 . S
H42 C9 0.930 . S
Co43 N44 2.034 . S
Co43 O58 2.262 . S
Co43 O62 1.958 . S
Co43 O66 1.950 . S
Co43 O67 2.057 . S
N44 Co43 2.034 . S
N44 C45 1.365 1_554 S
N44 C47 1.332 1_554 S
C45 N44 1.365 1_556 S
C45 C48 1.379 . S
C45 H77 0.930 1_556 S
N46 C47 1.346 . S
N46 C48 1.337 . S
C47 N44 1.332 1_556 S
C47 N46 1.346 . S
C47 C81 1.361 1_556 S
C48 C45 1.379 . S
C48 N46 1.337 . S
C48 H84 0.930 . S
Co49 N50 2.034 . S
Co49 O63 1.950 . S
Co49 O64 2.262 . S
Co49 O65 1.958 . S
Co49 O69 2.057 . S
N50 Co49 2.034 . S
N50 C53 1.366 . S
N50 C54 1.332 . S
N51 C52 1.337 . S
N51 C54 1.346 . S
C52 N51 1.337 . S
C52 C53 1.377 . S
C52 H85 0.930 . S
C53 N50 1.366 . S
C53 C52 1.377 . S
C53 H57 0.931 . S
C54 N50 1.332 . S
C54 N51 1.346 . S
C54 C71 1.361 . S
Co55 O58 2.097 . S
Co55 O59 2.065 . S
Co55 O60 2.065 . S
Co55 O61 2.042 . S
Co55 O64 2.097 . S
Co55 O68 2.042 . S
C56 O64 1.253 . S
C56 O69 1.263 . S
H57 C53 0.931 . S
O58 Co43 2.262 . S
O58 Co55 2.097 . S
O58 C82 1.253 . S
O59 Co55 2.065 . S
O59 C75 1.221 . S
O60 Co55 2.065 . S
O60 C70 1.221 . S
O61 Co55 2.042 . S
O61 C76 1.237 . S
O62 Co43 1.958 . S
O62 C76 1.278 . S
O63 Co49 1.950 . S
O63 C75 1.277 . S
O64 Co49 2.262 . S
O64 Co55 2.097 . S
O64 C56 1.253 . S
O65 Co49 1.958 . S
O65 C83 1.278 . S
O66 Co43 1.950 . S
O66 C70 1.277 . S
O67 Co43 2.057 . S
O67 C82 1.263 . S
O68 Co55 2.042 . S
O68 C83 1.237 . S
O69 Co49 2.057 . S
O69 C56 1.263 . S
C70 O60 1.221 . S
C70 O66 1.277 . S
C71 C54 1.361 . S
C71 H72 0.960 . S
C71 H73 0.961 . S
C71 H74 0.961 . S
H72 C71 0.960 . S
H73 C71 0.961 . S
H74 C71 0.961 . S
C75 O59 1.221 . S
C75 O63 1.277 . S
C76 O61 1.237 . S
C76 O62 1.278 . S
H77 C45 0.930 1_554 S
H78 C81 0.961 1_556 S
H79 C81 0.961 1_556 S
H80 C81 0.960 . S
C81 C47 1.361 1_554 S
C81 H78 0.961 1_554 S
C81 H79 0.961 1_554 S
C81 H80 0.960 . S
C82 O58 1.253 . S
C82 O67 1.263 . S
C83 O65 1.278 . S
C83 O68 1.237 . S
H84 C48 0.930 . S
H85 C52 0.930 . S
Co86 N87 2.034 . S
Co86 O101 2.262 . S
Co86 O105 1.958 . S
Co86 O109 1.950 . S
Co86 O110 2.057 . S
N87 Co86 2.034 . S
N87 C88 1.366 . S
N87 C90 1.332 . S
C88 N87 1.366 . S
C88 C91 1.377 . S
C88 H120 0.931 . S
N89 C90 1.346 . S
N89 C91 1.337 . S
C90 N87 1.332 . S
C90 N89 1.346 . S
C90 C124 1.361 . S
C91 C88 1.377 . S
C91 N89 1.337 . S
C91 H127 0.930 . S
Co92 N93 2.034 . S
Co92 O106 1.950 . S
Co92 O107 2.262 . S
Co92 O108 1.958 . S
Co92 O112 2.057 . S
N93 Co92 2.034 . S
N93 C96 1.365 1_556 S
N93 C97 1.332 1_556 S
N94 C95 1.337 . S
N94 C97 1.346 . S
C95 N94 1.337 . S
C95 C96 1.379 . S
C95 H128 0.930 . S
C96 N93 1.365 1_554 S
C96 C95 1.379 . S
C96 H100 0.930 1_554 S
C97 N93 1.332 1_554 S
C97 N94 1.346 . S
C97 C114 1.361 1_554 S
Co98 O101 2.097 . S
Co98 O102 2.065 . S
Co98 O103 2.065 . S
Co98 O104 2.042 . S
Co98 O107 2.097 . S
Co98 O111 2.042 . S
C99 O107 1.253 . S
C99 O112 1.263 . S
H100 C96 0.930 1_556 S
O101 Co86 2.262 . S
O101 Co98 2.097 . S
O101 C125 1.253 . S
O102 Co98 2.065 . S
O102 C118 1.221 . S
O103 Co98 2.065 . S
O103 C113 1.221 . S
O104 Co98 2.042 . S
O104 C119 1.237 . S
O105 Co86 1.958 . S
O105 C119 1.278 . S
O106 Co92 1.950 . S
O106 C118 1.277 . S
O107 Co92 2.262 . S
O107 Co98 2.097 . S
O107 C99 1.253 . S
O108 Co92 1.958 . S
O108 C126 1.278 . S
O109 Co86 1.950 . S
O109 C113 1.277 . S
O110 Co86 2.057 . S
O110 C125 1.263 . S
O111 Co98 2.042 . S
O111 C126 1.237 . S
O112 Co92 2.057 . S
O112 C99 1.263 . S
C113 O103 1.221 . S
C113 O109 1.277 . S
C114 C97 1.361 1_556 S
C114 H115 0.960 . S
C114 H116 0.961 1_556 S
C114 H117 0.961 1_556 S
H115 C114 0.960 . S
H116 C114 0.961 1_554 S
H117 C114 0.961 1_554 S
C118 O102 1.221 . S
C118 O106 1.277 . S
C119 O104 1.237 . S
C119 O105 1.278 . S
H120 C88 0.931 . S
H121 C124 0.961 . S
H122 C124 0.961 . S
H123 C124 0.960 . S
C124 C90 1.361 . S
C124 H121 0.961 . S
C124 H122 0.961 . S
C124 H123 0.960 . S
C125 O101 1.253 . S
C125 O110 1.263 . S
C126 O108 1.278 . S
C126 O111 1.237 . S
H127 C91 0.930 . S
H128 C95 0.930 . S
H129 C137 0.950 . S
H130 C142 0.950 . S
H131 C139 0.950 . S
H132 C141 0.950 . S
H133 C143 0.950 . S
H134 C145 0.950 . S
H135 C147 0.950 . S
H136 C148 0.950 . S
C137 H129 0.950 . S
C137 C138 1.386 . S
C137 C139 1.391 . S
C138 C137 1.386 . S
C138 C142 1.393 1_545 S
C139 H131 0.950 . S
C139 C137 1.391 . S
C139 C140 1.400 1_545 S
C140 C139 1.400 1_565 S
C140 C141 1.398 . S
C140 C146 1.491 1_455 S
C141 H132 0.950 . S
C141 C140 1.398 . S
C141 C142 1.391 . S
C142 H130 0.950 . S
C142 C138 1.393 1_565 S
C142 C141 1.391 . S
C143 H133 0.950 . S
C143 C144 1.386 . S
C143 C145 1.391 . S
C144 C143 1.386 . S
C144 C148 1.393 1_565 S
C145 H134 0.950 . S
C145 C143 1.391 . S
C145 C146 1.400 . S
C146 C140 1.491 1_655 S
C146 C145 1.400 . S
C146 C147 1.398 1_565 S
C147 H135 0.950 . S
C147 C146 1.398 1_545 S
C147 C148 1.391 . S
C148 H136 0.950 . S
C148 C144 1.393 1_545 S
C148 C147 1.391 . S
H149 C157 0.950 . S
H150 C162 0.950 . S
H151 C159 0.950 . S
H152 C161 0.950 . S
H153 C163 0.950 1_554 S
H154 C165 0.950 . S
H155 C167 0.950 . S
H156 C168 0.950 . S
C157 H149 0.950 . S
C157 C158 1.386 . S
C157 C159 1.391 . S
C158 C157 1.386 . S
C158 C162 1.393 . S
C159 H151 0.950 . S
C159 C157 1.391 . S
C159 C160 1.400 . S
C160 C159 1.400 . S
C160 C161 1.398 . S
C160 C166 1.491 . S
C161 H152 0.950 . S
C161 C160 1.398 . S
C161 C162 1.391 . S
C162 H150 0.950 . S
C162 C158 1.393 . S
C162 C161 1.391 . S
C163 H153 0.950 1_556 S
C163 C164 1.386 1_556 S
C163 C165 1.391 . S
C164 C163 1.386 1_554 S
C164 C168 1.393 1_554 S
C165 H154 0.950 . S
C165 C163 1.391 . S
C165 C166 1.400 . S
C166 C160 1.491 . S
C166 C165 1.400 . S
C166 C167 1.398 . S
C167 H155 0.950 . S
C167 C166 1.398 . S
C167 C168 1.391 . S
C168 H156 0.950 . S
C168 C164 1.393 1_556 S
C168 C167 1.391 . S
H169 C177 0.950 . S
H170 C182 0.950 1_556 S
H171 C179 0.950 . S
H172 C181 0.950 . S
H173 C183 0.950 . S
H174 C185 0.950 . S
H175 C187 0.950 . S
H176 C188 0.950 . S
C177 H169 0.950 . S
C177 C178 1.386 1_554 S
C177 C179 1.391 . S
C178 C177 1.386 1_556 S
C178 C182 1.393 1_556 S
C179 H171 0.950 . S
C179 C177 1.391 . S
C179 C180 1.400 . S
C180 C179 1.400 . S
C180 C181 1.398 . S
C180 C186 1.491 . S
C181 H172 0.950 . S
C181 C180 1.398 . S
C181 C182 1.391 . S
C182 H170 0.950 1_554 S
C182 C178 1.393 1_554 S
C182 C181 1.391 . S
C183 H173 0.950 . S
C183 C184 1.386 . S
C183 C185 1.391 . S
C184 C183 1.386 . S
C184 C188 1.393 . S
C185 H174 0.950 . S
C185 C183 1.391 . S
C185 C186 1.400 . S
C186 C180 1.491 . S
C186 C185 1.400 . S
C186 C187 1.398 . S
C187 H175 0.950 . S
C187 C186 1.398 . S
C187 C188 1.391 . S
C188 H176 0.950 . S
C188 C184 1.393 . S
C188 C187 1.391 . S
H189 C197 0.950 . S
H190 C202 0.950 . S
H191 C199 0.950 . S
H192 C201 0.950 . S
H193 C203 0.950 . S
H194 C205 0.950 . S
H195 C207 0.950 . S
H196 C208 0.950 . S
C197 H189 0.950 . S
C197 C198 1.386 . S
C197 C199 1.391 . S
C198 C197 1.386 . S
C198 C202 1.393 . S
C199 H191 0.950 . S
C199 C197 1.391 . S
C199 C200 1.400 . S
C200 C199 1.400 . S
C200 C201 1.398 . S
C200 C206 1.491 . S
C201 H192 0.950 . S
C201 C200 1.398 . S
C201 C202 1.391 . S
C202 H190 0.950 . S
C202 C198 1.393 . S
C202 C201 1.391 . S
C203 H193 0.950 . S
C203 C204 1.386 . S
C203 C205 1.391 . S
C204 C203 1.386 . S
C204 C208 1.393 . S
C205 H194 0.950 . S
C205 C203 1.391 . S
C205 C206 1.400 . S
C206 C200 1.491 . S
C206 C205 1.400 . S
C206 C207 1.398 . S
C207 H195 0.950 . S
C207 C206 1.398 . S
C207 C208 1.391 . S
C208 H196 0.950 . S
C208 C204 1.393 . S
C208 C207 1.391 . S
H209 C217 0.950 . S
H210 C222 0.950 . S
H211 C219 0.950 . S
H212 C221 0.950 . S
H213 C223 0.950 . S
H214 C225 0.950 . S
H215 C227 0.950 . S
H216 C228 0.950 . S
C217 H209 0.950 . S
C217 C218 1.386 . S
C217 C219 1.391 . S
C218 C217 1.386 . S
C218 C222 1.393 . S
C219 H211 0.950 . S
C219 C217 1.391 . S
C219 C220 1.400 . S
C220 C219 1.400 . S
C220 C221 1.398 . S
C220 C226 1.491 . S
C221 H212 0.950 . S
C221 C220 1.398 . S
C221 C222 1.391 . S
C222 H210 0.950 . S
C222 C218 1.393 . S
C222 C221 1.391 . S
C223 H213 0.950 . S
C223 C224 1.386 . S
C223 C225 1.391 . S
C224 C223 1.386 . S
C224 C228 1.393 . S
C225 H214 0.950 . S
C225 C223 1.391 . S
C225 C226 1.400 . S
C226 C220 1.491 . S
C226 C225 1.400 . S
C226 C227 1.398 . S
C227 H215 0.950 . S
C227 C226 1.398 . S
C227 C228 1.391 . S
C228 H216 0.950 . S
C228 C224 1.393 . S
C228 C227 1.391 . S
H229 C237 0.950 . S
H230 C242 0.950 . S
H231 C239 0.950 . S
H232 C241 0.950 . S
H233 C243 0.950 . S
H234 C245 0.950 . S
H235 C247 0.950 . S
H236 C248 0.950 . S
C237 H229 0.950 . S
C237 C238 1.386 . S
C237 C239 1.391 . S
C238 C237 1.386 . S
C238 C242 1.393 . S
C239 H231 0.950 . S
C239 C237 1.391 . S
C239 C240 1.400 . S
C240 C239 1.400 . S
C240 C241 1.398 . S
C240 C246 1.491 . S
C241 H232 0.950 . S
C241 C240 1.398 . S
C241 C242 1.391 . S
C242 H230 0.950 . S
C242 C238 1.393 . S
C242 C241 1.391 . S
C243 H233 0.950 . S
C243 C244 1.386 . S
C243 C245 1.391 . S
C244 C243 1.386 . S
C244 C248 1.393 . S
C245 H234 0.950 . S
C245 C243 1.391 . S
C245 C246 1.400 . S
C246 C240 1.491 . S
C246 C245 1.400 . S
C246 C247 1.398 . S
C247 H235 0.950 . S
C247 C246 1.398 . S
C247 C248 1.391 . S
C248 H236 0.950 . S
C248 C244 1.393 . S
C248 C247 1.391 . S
H249 C257 0.950 . S
H250 C262 0.950 . S
H251 C259 0.950 . S
H252 C261 0.950 . S
H253 C263 0.950 . S
H254 C265 0.950 . S
H255 C267 0.950 . S
H256 C268 0.950 . S
C257 H249 0.950 . S
C257 C258 1.386 . S
C257 C259 1.391 . S
C258 C257 1.386 . S
C258 C262 1.393 . S
C259 H251 0.950 . S
C259 C257 1.391 . S
C259 C260 1.400 . S
C260 C259 1.400 . S
C260 C261 1.398 . S
C260 C266 1.491 . S
C261 H252 0.950 . S
C261 C260 1.398 . S
C261 C262 1.391 . S
C262 H250 0.950 . S
C262 C258 1.393 . S
C262 C261 1.391 . S
C263 H253 0.950 . S
C263 C264 1.386 . S
C263 C265 1.391 . S
C264 C263 1.386 . S
C264 C268 1.393 . S
C265 H254 0.950 . S
C265 C263 1.391 . S
C265 C266 1.400 . S
C266 C260 1.491 . S
C266 C265 1.400 . S
C266 C267 1.398 . S
C267 H255 0.950 . S
C267 C266 1.398 . S
C267 C268 1.391 . S
C268 H256 0.950 . S
C268 C264 1.393 . S
C268 C267 1.391 . S
H269 C277 0.950 . S
H270 C282 0.950 . S
H271 C279 0.950 . S
H272 C281 0.950 . S
H273 C283 0.950 . S
H274 C285 0.950 . S
H275 C287 0.950 . S
H276 C288 0.950 . S
C277 H269 0.950 . S
C277 C278 1.386 . S
C277 C279 1.391 . S
C278 C277 1.386 . S
C278 C282 1.393 . S
C279 H271 0.950 . S
C279 C277 1.391 . S
C279 C280 1.400 . S
C280 C279 1.400 . S
C280 C281 1.398 . S
C280 C286 1.491 . S
C281 H272 0.950 . S
C281 C280 1.398 . S
C281 C282 1.391 . S
C282 H270 0.950 . S
C282 C278 1.393 . S
C282 C281 1.391 . S
C283 H273 0.950 . S
C283 C284 1.386 . S
C283 C285 1.391 . S
C284 C283 1.386 . S
C284 C288 1.393 . S
C285 H274 0.950 . S
C285 C283 1.391 . S
C285 C286 1.400 . S
C286 C280 1.491 . S
C286 C285 1.400 . S
C286 C287 1.398 . S
C287 H275 0.950 . S
C287 C286 1.398 . S
C287 C288 1.391 . S
C288 H276 0.950 . S
C288 C284 1.393 . S
C288 C287 1.391 . S
H289 C297 0.950 . S
H290 C302 0.950 . S
H291 C299 0.950 . S
H292 C301 0.950 . S
H293 C303 0.950 . S
H294 C305 0.950 . S
H295 C307 0.950 . S
H296 C308 0.950 . S
C297 H289 0.950 . S
C297 C298 1.386 . S
C297 C299 1.391 . S
C298 C297 1.386 . S
C298 C302 1.393 . S
C299 H291 0.950 . S
C299 C297 1.391 . S
C299 C300 1.400 . S
C300 C299 1.400 . S
C300 C301 1.398 . S
C300 C306 1.491 . S
C301 H292 0.950 . S
C301 C300 1.398 . S
C301 C302 1.391 . S
C302 H290 0.950 . S
C302 C298 1.393 . S
C302 C301 1.391 . S
C303 H293 0.950 . S
C303 C304 1.386 . S
C303 C305 1.391 . S
C304 C303 1.386 . S
C304 C308 1.393 . S
C305 H294 0.950 . S
C305 C303 1.391 . S
C305 C306 1.400 . S
C306 C300 1.491 . S
C306 C305 1.400 . S
C306 C307 1.398 . S
C307 H295 0.950 . S
C307 C306 1.398 . S
C307 C308 1.391 . S
C308 H296 0.950 . S
C308 C304 1.393 . S
C308 C307 1.391 . S
H309 C317 0.950 . S
H310 C322 0.950 . S
H311 C319 0.950 1_556 S
H312 C321 0.950 . S
H313 C323 0.950 . S
H314 C325 0.950 1_554 S
H315 C327 0.950 . S
H316 C328 0.950 . S
C317 H309 0.950 . S
C317 C318 1.386 . S
C317 C319 1.391 . S
C318 C317 1.386 . S
C318 C322 1.393 . S
C319 H311 0.950 1_554 S
C319 C317 1.391 . S
C319 C320 1.400 . S
C320 C319 1.400 . S
C320 C321 1.398 . S
C320 C326 1.491 1_554 S
C321 H312 0.950 . S
C321 C320 1.398 . S
C321 C322 1.391 . S
C322 H310 0.950 . S
C322 C318 1.393 . S
C322 C321 1.391 . S
C323 H313 0.950 . S
C323 C324 1.386 . S
C323 C325 1.391 . S
C324 C323 1.386 . S
C324 C328 1.393 . S
C325 H314 0.950 1_556 S
C325 C323 1.391 . S
C325 C326 1.400 . S
C326 C320 1.491 1_556 S
C326 C325 1.400 . S
C326 C327 1.398 . S
C327 H315 0.950 . S
C327 C326 1.398 . S
C327 C328 1.391 . S
C328 H316 0.950 . S
C328 C324 1.393 . S
C328 C327 1.391 . S
H329 C337 0.950 . S
H330 C342 0.950 . S
H331 C339 0.950 . S
H332 C341 0.950 . S
H333 C343 0.950 . S
H334 C345 0.950 . S
H335 C347 0.950 . S
H336 C348 0.950 . S
C337 H329 0.950 . S
C337 C338 1.386 . S
C337 C339 1.391 . S
C338 C337 1.386 . S
C338 C342 1.393 . S
C339 H331 0.950 . S
C339 C337 1.391 . S
C339 C340 1.400 . S
C340 C339 1.400 . S
C340 C341 1.398 . S
C340 C346 1.491 1_566 S
C341 H332 0.950 . S
C341 C340 1.398 . S
C341 C342 1.391 . S
C342 H330 0.950 . S
C342 C338 1.393 . S
C342 C341 1.391 . S
C343 H333 0.950 . S
C343 C344 1.386 . S
C343 C345 1.391 . S
C344 C343 1.386 . S
C344 C348 1.393 . S
C345 H334 0.950 . S
C345 C343 1.391 . S
C345 C346 1.400 . S
C346 C340 1.491 1_544 S
C346 C345 1.400 . S
C346 C347 1.398 . S
C347 H335 0.950 . S
C347 C346 1.398 . S
C347 C348 1.391 . S
C348 H336 0.950 . S
C348 C344 1.393 . S
C348 C347 1.391 . S
H349 C357 0.950 . S
H350 C362 0.950 . S
H351 C359 0.950 . S
H352 C361 0.950 . S
H353 C363 0.950 . S
H354 C365 0.950 . S
H355 C367 0.950 . S
H356 C368 0.950 . S
C357 H349 0.950 . S
C357 C358 1.386 . S
C357 C359 1.391 . S
C358 C357 1.386 . S
C358 C362 1.393 . S
C359 H351 0.950 . S
C359 C357 1.391 . S
C359 C360 1.400 . S
C360 C359 1.400 . S
C360 C361 1.398 . S
C360 C366 1.491 1_456 S
C361 H352 0.950 . S
C361 C360 1.398 . S
C361 C362 1.391 . S
C362 H350 0.950 . S
C362 C358 1.393 . S
C362 C361 1.391 . S
C363 H353 0.950 . S
C363 C364 1.386 . S
C363 C365 1.391 . S
C364 C363 1.386 . S
C364 C368 1.393 . S
C365 H354 0.950 . S
C365 C363 1.391 . S
C365 C366 1.400 . S
C366 C360 1.491 1_654 S
C366 C365 1.400 . S
C366 C367 1.398 . S
C367 H355 0.950 . S
C367 C366 1.398 . S
C367 C368 1.391 . S
C368 H356 0.950 . S
C368 C364 1.393 . S
C368 C367 1.391 . S
C138 N3 1.992 1_445 S
C144 N8 1.991 1_655 S
C158 N51 1.971 . S
C164 N46 1.978 1_554 S
C178 N94 1.988 1_556 S
C184 N89 1.980 . S
C198 C119 2.262 . S
C204 C32 2.265 . S
C218 C113 2.280 . S
C224 C40 2.275 . S
C238 C125 2.192 . S
C244 C13 2.192 . S
C258 C75 2.288 . S
C264 C33 2.284 . S
C278 C83 2.284 . S
C284 C27 2.292 . S
C298 C56 2.171 . S
C304 C39 2.169 . S
C318 C76 2.280 . S
C324 C118 2.282 . S
C338 C126 2.262 . S
C344 C70 2.266 . S
C358 C99 2.197 . S
C364 C82 2.197 . S
