# Generated by pormake.
# Topology ukr, (4)-cn, num edge types: 1
# Building blocks:
#     Node 0, Type 0, BuildingBlock: AZAVOO_clean_sbu_0, # of connection points: 4
#     Node 1, Type 0, BuildingBlock: AZAVOO_clean_sbu_0, # of connection points: 4
#     Node 2, Type 0, BuildingBlock: AZAVOO_clean_sbu_0, # of connection points: 4
#     Node 3, Type 0, BuildingBlock: AZAVOO_clean_sbu_0, # of connection points: 4
#     Node 4, Type 0, BuildingBlock: AZAVOO_clean_sbu_0, # of connection points: 4
#     Node 5, Type 0, BuildingBlock: AZAVOO_clean_sbu_0, # of connection points: 4
#     Node 6, Type 0, BuildingBlock: AZAVOO_clean_sbu_0, # of connection points: 4
#     Node 7, Type 0, BuildingBlock: AZAVOO_clean_sbu_0, # of connection points: 4
#     Node 8, Type 0, BuildingBlock: AZAVOO_clean_sbu_0, # of connection points: 4
#     Node 9, Type 0, BuildingBlock: AZAVOO_clean_sbu_0, # of connection points: 4
#     Node 10, Type 0, BuildingBlock: AZAVOO_clean_sbu_0, # of connection points: 4
#     Node 11, Type 0, BuildingBlock: AZAVOO_clean_sbu_0, # of connection points: 4
#     Node 12, Type 0, BuildingBlock: AZAVOO_clean_sbu_0, # of connection points: 4
#     Node 13, Type 0, BuildingBlock: AZAVOO_clean_sbu_0, # of connection points: 4
#     Node 14, Type 0, BuildingBlock: AZAVOO_clean_sbu_0, # of connection points: 4
#     Node 15, Type 0, BuildingBlock: AZAVOO_clean_sbu_0, # of connection points: 4
#     Node 16, Type 0, BuildingBlock: AZAVOO_clean_sbu_0, # of connection points: 4
#     Node 17, Type 0, BuildingBlock: AZAVOO_clean_sbu_0, # of connection points: 4
#     Node 18, Type 0, BuildingBlock: AZAVOO_clean_sbu_0, # of connection points: 4
#     Node 19, Type 0, BuildingBlock: AZAVOO_clean_sbu_0, # of connection points: 4
#     Node 20, Type 0, BuildingBlock: AZAVOO_clean_sbu_0, # of connection points: 4
#     Node 21, Type 0, BuildingBlock: AZAVOO_clean_sbu_0, # of connection points: 4
#     Node 22, Type 0, BuildingBlock: AZAVOO_clean_sbu_0, # of connection points: 4
#     Node 23, Type 0, BuildingBlock: AZAVOO_clean_sbu_0, # of connection points: 4
#     Node 24, Type 0, BuildingBlock: AZAVOO_clean_sbu_0, # of connection points: 4
#     Node 25, Type 0, BuildingBlock: AZAVOO_clean_sbu_0, # of connection points: 4
#     Node 26, Type 0, BuildingBlock: AZAVOO_clean_sbu_0, # of connection points: 4
#     Node 27, Type 0, BuildingBlock: AZAVOO_clean_sbu_0, # of connection points: 4
#     Node 28, Type 0, BuildingBlock: AZAVOO_clean_sbu_0, # of connection points: 4
#     Node 29, Type 0, BuildingBlock: AZAVOO_clean_sbu_0, # of connection points: 4
#     Node 30, Type 0, BuildingBlock: AZAVOO_clean_sbu_0, # of connection points: 4
#     Node 31, Type 0, BuildingBlock: AZAVOO_clean_sbu_0, # of connection points: 4
#     Node 32, Type 0, BuildingBlock: AZAVOO_clean_sbu_0, # of connection points: 4
#     Node 33, Type 0, BuildingBlock: AZAVOO_clean_sbu_0, # of connection points: 4
#     Node 34, Type 0, BuildingBlock: AZAVOO_clean_sbu_0, # of connection points: 4
#     Node 35, Type 0, BuildingBlock: AZAVOO_clean_sbu_0, # of connection points: 4
#     Node 36, Type 0, BuildingBlock: AZAVOO_clean_sbu_0, # of connection points: 4
#     Node 37, Type 0, BuildingBlock: AZAVOO_clean_sbu_0, # of connection points: 4
#     Node 38, Type 0, BuildingBlock: AZAVOO_clean_sbu_0, # of connection points: 4
#     Node 39, Type 0, BuildingBlock: AZAVOO_clean_sbu_0, # of connection points: 4
#     Node 40, Type 0, BuildingBlock: AZAVOO_clean_sbu_0, # of connection points: 4
#     Node 41, Type 0, BuildingBlock: AZAVOO_clean_sbu_0, # of connection points: 4
#     Node 42, Type 0, BuildingBlock: AZAVOO_clean_sbu_0, # of connection points: 4
#     Node 43, Type 0, BuildingBlock: AZAVOO_clean_sbu_0, # of connection points: 4
#     Node 44, Type 0, BuildingBlock: AZAVOO_clean_sbu_0, # of connection points: 4
#     Node 45, Type 0, BuildingBlock: AZAVOO_clean_sbu_0, # of connection points: 4
#     Node 46, Type 0, BuildingBlock: AZAVOO_clean_sbu_0, # of connection points: 4
#     Node 47, Type 0, BuildingBlock: AZAVOO_clean_sbu_0, # of connection points: 4
#     Edge 48, Type (0, 0), None
#     Edge 49, Type (0, 0), None
#     Edge 50, Type (0, 0), None
#     Edge 51, Type (0, 0), None
#     Edge 52, Type (0, 0), None
#     Edge 53, Type (0, 0), None
#     Edge 54, Type (0, 0), None
#     Edge 55, Type (0, 0), None
#     Edge 56, Type (0, 0), None
#     Edge 57, Type (0, 0), None
#     Edge 58, Type (0, 0), None
#     Edge 59, Type (0, 0), None
#     Edge 60, Type (0, 0), None
#     Edge 61, Type (0, 0), None
#     Edge 62, Type (0, 0), None
#     Edge 63, Type (0, 0), None
#     Edge 64, Type (0, 0), None
#     Edge 65, Type (0, 0), None
#     Edge 66, Type (0, 0), None
#     Edge 67, Type (0, 0), None
#     Edge 68, Type (0, 0), None
#     Edge 69, Type (0, 0), None
#     Edge 70, Type (0, 0), None
#     Edge 71, Type (0, 0), None
#     Edge 72, Type (0, 0), None
#     Edge 73, Type (0, 0), None
#     Edge 74, Type (0, 0), None
#     Edge 75, Type (0, 0), None
#     Edge 76, Type (0, 0), None
#     Edge 77, Type (0, 0), None
#     Edge 78, Type (0, 0), None
#     Edge 79, Type (0, 0), None
#     Edge 80, Type (0, 0), None
#     Edge 81, Type (0, 0), None
#     Edge 82, Type (0, 0), None
#     Edge 83, Type (0, 0), None
#     Edge 84, Type (0, 0), None
#     Edge 85, Type (0, 0), None
#     Edge 86, Type (0, 0), None
#     Edge 87, Type (0, 0), None
#     Edge 88, Type (0, 0), None
#     Edge 89, Type (0, 0), None
#     Edge 90, Type (0, 0), None
#     Edge 91, Type (0, 0), None
#     Edge 92, Type (0, 0), None
#     Edge 93, Type (0, 0), None
#     Edge 94, Type (0, 0), None
#     Edge 95, Type (0, 0), None
#     Edge 96, Type (0, 0), None
#     Edge 97, Type (0, 0), None
#     Edge 98, Type (0, 0), None
#     Edge 99, Type (0, 0), None
#     Edge 100, Type (0, 0), None
#     Edge 101, Type (0, 0), None
#     Edge 102, Type (0, 0), None
#     Edge 103, Type (0, 0), None
#     Edge 104, Type (0, 0), None
#     Edge 105, Type (0, 0), None
#     Edge 106, Type (0, 0), None
#     Edge 107, Type (0, 0), None
#     Edge 108, Type (0, 0), None
#     Edge 109, Type (0, 0), None
#     Edge 110, Type (0, 0), None
#     Edge 111, Type (0, 0), None
#     Edge 112, Type (0, 0), None
#     Edge 113, Type (0, 0), None
#     Edge 114, Type (0, 0), None
#     Edge 115, Type (0, 0), None
#     Edge 116, Type (0, 0), None
#     Edge 117, Type (0, 0), None
#     Edge 118, Type (0, 0), None
#     Edge 119, Type (0, 0), None
#     Edge 120, Type (0, 0), None
#     Edge 121, Type (0, 0), None
#     Edge 122, Type (0, 0), None
#     Edge 123, Type (0, 0), None
#     Edge 124, Type (0, 0), None
#     Edge 125, Type (0, 0), None
#     Edge 126, Type (0, 0), None
#     Edge 127, Type (0, 0), None
#     Edge 128, Type (0, 0), None
#     Edge 129, Type (0, 0), None
#     Edge 130, Type (0, 0), None
#     Edge 131, Type (0, 0), None
#     Edge 132, Type (0, 0), None
#     Edge 133, Type (0, 0), None
#     Edge 134, Type (0, 0), None
#     Edge 135, Type (0, 0), None
#     Edge 136, Type (0, 0), None
#     Edge 137, Type (0, 0), None
#     Edge 138, Type (0, 0), None
#     Edge 139, Type (0, 0), None
#     Edge 140, Type (0, 0), None
#     Edge 141, Type (0, 0), None
#     Edge 142, Type (0, 0), None
#     Edge 143, Type (0, 0), None
# Relax obj value: 0.330
# Max RMSD: 0.214
# Mean RMSD: 0.214
data_MOF--net-ukr--node1-AZAVOO_clean_sbu_0--edge1-none
_symmetry_space_group_name_H-M    P1
_symmetry_Int_Tables_number       1
_symmetry_cell_setting            triclinic
loop_
_symmetry_equiv_pos_as_xyz
'x, y, z'
_cell_length_a     30.316018
_cell_length_b     30.31606
_cell_length_c     29.467461
_cell_angle_alpha  89.999741
_cell_angle_beta   90.000135
_cell_angle_gamma 90.000677
loop_
_atom_site_label
_atom_site_type_symbol
_atom_site_fract_x
_atom_site_fract_y
_atom_site_fract_z
_atom_type_partial_charge
Mg0 Mg 0.09658 0.3062 0.23076 0.0
O1 O 0.10419 0.24575 0.27662 0.0
O2 O 0.17429 0.25758 0.29479 0.0
Mg3 Mg 0.21283 0.30919 0.25134 0.0
C4 C 0.13822 0.23617 0.29963 0.0
C5 C 0.98935 0.30903 0.22924 0.0
O6 O 0.95143 0.30744 0.25027 0.0
O7 O 0.11543 0.35047 0.29438 0.0
O8 O 0.17692 0.37358 0.26449 0.0
O9 O 0.11251 0.25577 0.1728 0.0
O10 O 0.1607 0.29962 0.20334 0.0
C11 C 0.15007 0.37463 0.2971 0.0
C12 C 0.15346 0.2659 0.17901 0.0
O13 O 0.02433 0.30463 0.25254 0.0
Mg14 Mg 0.22171 0.59657 0.73075 0.0
O15 O 0.28216 0.60418 0.77661 0.0
O16 O 0.27034 0.67428 0.79479 0.0
Mg17 Mg 0.21872 0.71283 0.75133 0.0
C18 C 0.29174 0.6382 0.79963 0.0
C19 C 0.21887 0.48935 0.72923 0.0
O20 O 0.22046 0.45142 0.75026 0.0
O21 O 0.17744 0.61543 0.79437 0.0
O22 O 0.15433 0.67691 0.76449 0.0
O23 O 0.27214 0.61251 0.6728 0.0
O24 O 0.22829 0.66069 0.70333 0.0
C25 C 0.15328 0.65007 0.79709 0.0
C26 C 0.26201 0.65345 0.67901 0.0
O27 O 0.22327 0.52432 0.75252 0.0
Mg28 Mg 0.93133 0.72171 0.23076 0.0
O29 O 0.92371 0.78216 0.27662 0.0
O30 O 0.85362 0.77033 0.29479 0.0
Mg31 Mg 0.81507 0.71871 0.25134 0.0
C32 C 0.88969 0.79174 0.29964 0.0
C33 C 0.03856 0.71888 0.22924 0.0
O34 O 0.07648 0.72047 0.25027 0.0
O35 O 0.91248 0.67744 0.29438 0.0
O36 O 0.85099 0.65433 0.2645 0.0
O37 O 0.91539 0.77213 0.1728 0.0
O38 O 0.86721 0.72828 0.20334 0.0
C39 C 0.87784 0.65328 0.2971 0.0
C40 C 0.87445 0.76201 0.17901 0.0
O41 O 1.00358 0.72327 0.25254 0.0
Mg42 Mg 0.80618 0.43133 0.73075 0.0
O43 O 0.74573 0.42371 0.77661 0.0
O44 O 0.75756 0.35362 0.79479 0.0
Mg45 Mg 0.80918 0.31507 0.75134 0.0
C46 C 0.73616 0.38969 0.79963 0.0
C47 C 0.80902 0.53855 0.72923 0.0
O48 O 0.80744 0.57648 0.75027 0.0
O49 O 0.85046 0.41247 0.79437 0.0
O50 O 0.87356 0.35099 0.76449 0.0
O51 O 0.75576 0.41539 0.6728 0.0
O52 O 0.79961 0.36721 0.70333 0.0
C53 C 0.87461 0.37783 0.79709 0.0
C54 C 0.76588 0.37445 0.67901 0.0
O55 O 0.80462 0.50358 0.75253 0.0
Mg56 Mg 0.12153 0.76439 0.89396 0.0
O57 O 0.12233 0.80497 0.82809 0.0
O58 O 0.18239 0.77384 0.79827 0.0
Mg59 Mg 0.22692 0.72731 0.84221 0.0
C60 C 0.14941 0.80014 0.79542 0.0
C61 C 0.02789 0.72179 0.87299 0.0
O62 O 0.9994 0.69339 0.85667 0.0
O63 O 0.1163 0.70063 0.84556 0.0
O64 O 0.1799 0.67429 0.8659 0.0
O65 O 0.16861 0.81995 0.92445 0.0
O66 O 0.19406 0.76084 0.89623 0.0
C67 C 0.1458 0.67032 0.84199 0.0
C68 C 0.20227 0.79904 0.91033 0.0
O69 O 0.06905 0.71631 0.86518 0.0
Mg70 Mg 0.76351 0.62152 0.39397 0.0
O71 O 0.72293 0.62232 0.3281 0.0
O72 O 0.75406 0.68239 0.29828 0.0
Mg73 Mg 0.80059 0.72691 0.34222 0.0
C74 C 0.72776 0.6494 0.29542 0.0
C75 C 0.80612 0.52789 0.373 0.0
O76 O 0.83451 0.4994 0.35668 0.0
O77 O 0.82727 0.6163 0.34557 0.0
O78 O 0.85361 0.6799 0.36591 0.0
O79 O 0.70795 0.6686 0.42446 0.0
O80 O 0.76706 0.69405 0.39623 0.0
C81 C 0.85758 0.64579 0.342 0.0
C82 C 0.72886 0.70226 0.41034 0.0
O83 O 0.8116 0.56905 0.36519 0.0
Mg84 Mg 0.90638 0.26351 0.89396 0.0
O85 O 0.90557 0.22293 0.82809 0.0
O86 O 0.84551 0.25406 0.79827 0.0
Mg87 Mg 0.80098 0.30059 0.84221 0.0
C88 C 0.87849 0.22776 0.79541 0.0
C89 C 1.00001 0.30611 0.87299 0.0
O90 O 0.0285 0.33451 0.85667 0.0
O91 O 0.9116 0.32727 0.84556 0.0
O92 O 0.848 0.35361 0.86591 0.0
O93 O 0.85929 0.20794 0.92445 0.0
O94 O 0.83384 0.26706 0.89623 0.0
C95 C 0.8821 0.35758 0.84199 0.0
C96 C 0.82563 0.22886 0.91033 0.0
O97 O 0.95885 0.3116 0.86518 0.0
Mg98 Mg 0.2644 0.40639 0.39396 0.0
O99 O 0.30498 0.40559 0.32809 0.0
O100 O 0.27385 0.34552 0.29827 0.0
Mg101 Mg 0.22732 0.301 0.34222 0.0
C102 C 0.30015 0.37851 0.29542 0.0
C103 C 0.22179 0.50002 0.373 0.0
O104 O 0.19339 0.5285 0.35668 0.0
O105 O 0.20064 0.41161 0.34557 0.0
O106 O 0.1743 0.34801 0.36591 0.0
O107 O 0.31997 0.3593 0.42446 0.0
O108 O 0.26085 0.33385 0.39623 0.0
C109 C 0.17033 0.38211 0.342 0.0
C110 C 0.29905 0.32564 0.41033 0.0
O111 O 0.21631 0.45886 0.36519 0.0
Mg112 Mg 0.16933 0.1212 0.36134 0.0
O113 O 0.19643 0.1096 0.28815 0.0
O114 O 0.24038 0.16835 0.28724 0.0
Mg115 Mg 0.23755 0.21886 0.34705 0.0
C116 C 0.22523 0.13356 0.26831 0.0
C117 C 0.14516 1.01262 0.35357 0.0
O118 O 0.1399 0.97547 0.37584 0.0
O119 O 0.24171 0.10732 0.38625 0.0
O120 O 0.24235 0.17472 0.40884 0.0
O121 O 0.11291 0.16351 0.32652 0.0
O122 O 0.17399 0.19034 0.35207 0.0
C123 C 0.26348 0.13951 0.40283 0.0
C124 C 0.13957 0.19664 0.32901 0.0
O125 O 0.15241 0.0479 0.37572 0.0
Mg126 Mg 0.40671 0.66931 0.86134 0.0
O127 O 0.41832 0.69641 0.78815 0.0
O128 O 0.35957 0.74036 0.78724 0.0
Mg129 Mg 0.30906 0.73754 0.84705 0.0
C130 C 0.39436 0.72522 0.76831 0.0
C131 C 0.51528 0.64514 0.85357 0.0
O132 O 0.55243 0.63988 0.87584 0.0
O133 O 0.4206 0.74169 0.88625 0.0
O134 O 0.35319 0.74233 0.90884 0.0
O135 O 0.3644 0.61289 0.82652 0.0
O136 O 0.33757 0.67398 0.85207 0.0
C137 C 0.3884 0.76346 0.90283 0.0
C138 C 0.33127 0.63955 0.82901 0.0
O139 O 0.48001 0.6524 0.87572 0.0
Mg140 Mg 0.85858 0.9067 0.36135 0.0
O141 O 0.83148 0.91831 0.28815 0.0
O142 O 0.78753 0.85956 0.28724 0.0
Mg143 Mg 0.79036 0.80905 0.34706 0.0
C144 C 0.80268 0.89435 0.26832 0.0
C145 C 0.88275 0.01528 0.35357 0.0
O146 O 0.88801 0.05243 0.37584 0.0
O147 O 0.7862 0.92059 0.38625 0.0
O148 O 0.78557 0.85318 0.40884 0.0
O149 O 0.915 0.8644 0.32652 0.0
O150 O 0.85392 0.83756 0.35207 0.0
C151 C 0.76443 0.8884 0.40283 0.0
C152 C 0.88834 0.83127 0.32902 0.0
O153 O 0.8755 0.98001 0.37572 0.0
Mg154 Mg 0.62119 0.35857 0.86134 0.0
O155 O 0.60958 0.33148 0.78815 0.0
O156 O 0.66833 0.28753 0.78724 0.0
Mg157 Mg 0.71884 0.29035 0.84705 0.0
C158 C 0.63354 0.30268 0.76831 0.0
C159 C 0.51261 0.38275 0.85358 0.0
O160 O 0.47546 0.388 0.87584 0.0
O161 O 0.60731 0.28619 0.88625 0.0
O162 O 0.67471 0.28556 0.90884 0.0
O163 O 0.6635 0.415 0.82652 0.0
O164 O 0.69033 0.35392 0.85207 0.0
C165 C 0.6395 0.26443 0.90283 0.0
C166 C 0.69662 0.38834 0.82901 0.0
O167 O 0.54789 0.37549 0.87572 0.0
Mg168 Mg 0.17768 0.88576 0.69415 0.0
O169 O 0.22636 0.90847 0.7503 0.0
O170 O 0.26143 0.84452 0.75722 0.0
Mg171 Mg 0.23319 0.7828 0.71976 0.0
C172 C 0.25687 0.88515 0.7678 0.0
C173 C 0.16587 0.99332 0.68764 0.0
O174 O 0.16461 0.03033 0.66454 0.0
O175 O 0.24017 0.87571 0.6476 0.0
O176 O 0.22441 0.80651 0.64762 0.0
O177 O 0.12864 0.86714 0.75368 0.0
O178 O 0.17445 0.82143 0.72302 0.0
C179 C 0.25077 0.83648 0.63613 0.0
C180 C 0.14786 0.82918 0.75506 0.0
O181 O 0.17041 0.95696 0.66661 0.0
Mg182 Mg 0.64214 0.67766 0.19416 0.0
O183 O 0.61943 0.72634 0.25031 0.0
O184 O 0.68338 0.76142 0.25722 0.0
Mg185 Mg 0.7451 0.73318 0.21977 0.0
C186 C 0.64275 0.75686 0.2678 0.0
C187 C 0.53459 0.66585 0.18765 0.0
O188 O 0.49757 0.66459 0.16455 0.0
O189 O 0.65219 0.74015 0.1476 0.0
O190 O 0.72139 0.7244 0.14762 0.0
O191 O 0.66076 0.62862 0.25369 0.0
O192 O 0.70647 0.67444 0.22302 0.0
C193 C 0.69142 0.75075 0.13613 0.0
C194 C 0.69872 0.64785 0.25506 0.0
O195 O 0.57094 0.67039 0.16661 0.0
Mg196 Mg 0.85023 0.14214 0.69415 0.0
O197 O 0.80155 0.11943 0.7503 0.0
O198 O 0.76647 0.18337 0.75722 0.0
Mg199 Mg 0.79471 0.24509 0.71976 0.0
C200 C 0.77103 0.14275 0.7678 0.0
C201 C 0.86204 0.03459 0.68764 0.0
O202 O 0.8633 0.99757 0.66454 0.0
O203 O 0.78774 0.15219 0.64759 0.0
O204 O 0.80349 0.22139 0.64762 0.0
O205 O 0.89927 0.16076 0.75368 0.0
O206 O 0.85345 0.20647 0.72301 0.0
C207 C 0.77714 0.19141 0.63613 0.0
C208 C 0.88004 0.19872 0.75506 0.0
O209 O 0.8575 0.07094 0.6666 0.0
Mg210 Mg 0.38577 0.35025 0.19415 0.0
O211 O 0.40848 0.30157 0.2503 0.0
O212 O 0.34453 0.26649 0.25722 0.0
Mg213 Mg 0.28281 0.29473 0.21976 0.0
C214 C 0.38516 0.27105 0.2678 0.0
C215 C 0.49332 0.36206 0.18764 0.0
O216 O 0.53034 0.36332 0.16454 0.0
O217 O 0.37571 0.28776 0.14759 0.0
O218 O 0.30652 0.30351 0.14762 0.0
O219 O 0.36715 0.39929 0.25368 0.0
O220 O 0.32143 0.35347 0.22302 0.0
C221 C 0.33649 0.27716 0.13613 0.0
C222 C 0.32918 0.38006 0.25506 0.0
O223 O 0.45696 0.35752 0.16661 0.0
Mg224 Mg 0.24364 0.15337 0.13092 0.0
O225 O 0.18703 0.2016 0.14597 0.0
O226 O 0.22388 0.23974 0.19825 0.0
Mg227 Mg 0.28816 0.21126 0.23071 0.0
C228 C 0.19045 0.23476 0.17222 0.0
C229 C 0.28868 0.18863 0.03388 0.0
O230 O 0.29719 0.22016 1.00467 0.0
O231 O 0.28728 0.2185 0.11981 0.0
O232 O 0.33678 0.21003 0.17284 0.0
O233 O 0.21267 0.10814 0.19078 0.0
O234 O 0.26617 0.15101 0.20225 0.0
C235 C 0.32383 0.23037 0.13814 0.0
C236 C 0.23736 0.12677 0.21981 0.0
O237 O 0.26704 0.19794 0.07 0.0
Mg238 Mg 0.31514 0.89914 0.89289 0.0
O239 O 0.25363 0.85891 0.91131 0.0
O240 O 0.26519 0.80302 0.86396 0.0
Mg241 Mg 0.31892 0.80949 0.8076 0.0
C242 C 0.24362 0.82089 0.89631 0.0
C243 C 0.34827 0.8685 0.99487 0.0
O244 O 0.3748 0.84842 1.02339 0.0
O245 O 0.35696 0.8343 0.91147 0.0
O246 O 0.38338 0.81464 0.84534 0.0
O247 O 0.27107 0.93142 0.83388 0.0
O248 O 0.31445 0.8779 0.82152 0.0
C249 C 0.38203 0.80913 0.88762 0.0
C250 C 0.28386 0.90167 0.80638 0.0
O251 O 0.3562 0.86663 0.95215 0.0
Mg252 Mg 0.62876 0.81512 0.39289 0.0
O253 O 0.66899 0.75362 0.41131 0.0
O254 O 0.72488 0.76518 0.36396 0.0
Mg255 Mg 0.71841 0.81891 0.30761 0.0
C256 C 0.707 0.74361 0.39632 0.0
C257 C 0.65939 0.84826 0.49487 0.0
O258 O 0.67947 0.87479 0.52339 0.0
O259 O 0.69359 0.85695 0.41147 0.0
O260 O 0.71325 0.88337 0.34534 0.0
O261 O 0.59647 0.77106 0.33389 0.0
O262 O 0.65 0.81444 0.32153 0.0
C263 C 0.71876 0.88202 0.38762 0.0
C264 C 0.62623 0.78385 0.30638 0.0
O265 O 0.66127 0.85619 0.45215 0.0
Mg266 Mg 0.71277 0.12876 0.89289 0.0
O267 O 0.77427 0.16899 0.91131 0.0
O268 O 0.76271 0.22488 0.86396 0.0
Mg269 Mg 0.70898 0.2184 0.8076 0.0
C270 C 0.78429 0.207 0.89631 0.0
C271 C 0.67964 0.15939 0.99487 0.0
O272 O 0.6531 0.17947 1.02339 0.0
O273 O 0.67094 0.19359 0.91147 0.0
O274 O 0.64452 0.21325 0.84534 0.0
O275 O 0.75684 0.09647 0.83388 0.0
O276 O 0.71345 0.14999 0.82152 0.0
C277 C 0.64587 0.21876 0.88762 0.0
C278 C 0.74405 0.12623 0.80638 0.0
O279 O 0.67171 0.16126 0.95215 0.0
Mg280 Mg 0.39915 0.21278 0.39288 0.0
O281 O 0.35892 0.27429 0.41131 0.0
O282 O 0.30303 0.26272 0.36396 0.0
Mg283 Mg 0.3095 0.209 0.3076 0.0
C284 C 0.32091 0.2843 0.39631 0.0
C285 C 0.36852 0.17965 0.49487 0.0
O286 O 0.34844 0.15311 0.52338 0.0
O287 O 0.33432 0.17095 0.41147 0.0
O288 O 0.31466 0.14454 0.34534 0.0
O289 O 0.43144 0.25685 0.33388 0.0
O290 O 0.37791 0.21347 0.32152 0.0
C291 C 0.30915 0.14588 0.38762 0.0
C292 C 0.40168 0.24406 0.30638 0.0
O293 O 0.36665 0.17172 0.45214 0.0
Mg294 Mg 0.78427 0.87454 0.13093 0.0
O295 O 0.84087 0.82631 0.14598 0.0
O296 O 0.80402 0.78817 0.19825 0.0
Mg297 Mg 0.73975 0.81665 0.23072 0.0
C298 C 0.83746 0.79314 0.17222 0.0
C299 C 0.73923 0.83928 0.03388 0.0
O300 O 0.73071 0.80775 1.00468 0.0
O301 O 0.74063 0.80941 0.11982 0.0
O302 O 0.69113 0.81788 0.17284 0.0
O303 O 0.81523 0.91977 0.19079 0.0
O304 O 0.76174 0.8769 0.20225 0.0
C305 C 0.70408 0.79754 0.13815 0.0
C306 C 0.79055 0.90114 0.21981 0.0
O307 O 0.76086 0.82997 0.07 0.0
Mg308 Mg 0.65335 0.28426 0.63092 0.0
O309 O 0.70158 0.34087 0.64597 0.0
O310 O 0.73973 0.30402 0.69825 0.0
Mg311 Mg 0.71124 0.23975 0.73071 0.0
C312 C 0.73475 0.33745 0.67222 0.0
C313 C 0.68861 0.23922 0.53388 0.0
O314 O 0.72014 0.23071 0.50468 0.0
O315 O 0.71848 0.24063 0.61981 0.0
O316 O 0.71001 0.19112 0.67284 0.0
O317 O 0.60812 0.31523 0.69078 0.0
O318 O 0.65099 0.26174 0.70225 0.0
C319 C 0.73035 0.20408 0.63815 0.0
C320 C 0.62675 0.29055 0.71981 0.0
O321 O 0.69792 0.26086 0.57 0.0
Mg322 Mg 0.37455 0.74363 0.63092 0.0
O323 O 0.32631 0.68703 0.64597 0.0
O324 O 0.28817 0.72388 0.69825 0.0
Mg325 Mg 0.31666 0.78815 0.73071 0.0
C326 C 0.29315 0.69044 0.67222 0.0
C327 C 0.33929 0.78868 0.53388 0.0
O328 O 0.30776 0.7972 0.50468 0.0
O329 O 0.30942 0.78727 0.61981 0.0
O330 O 0.31789 0.83677 0.67284 0.0
O331 O 0.41978 0.71266 0.69078 0.0
O332 O 0.37691 0.76616 0.70225 0.0
C333 C 0.29756 0.82382 0.63815 0.0
C334 C 0.40115 0.73734 0.71981 0.0
O335 O 0.32998 0.76704 0.57 0.0
Mg336 Mg 0.90082 0.74856 0.88726 0.0
O337 O 0.90188 0.80792 0.8394 0.0
O338 O 0.84708 0.78621 0.79465 0.0
Mg339 Mg 0.80329 0.72723 0.82006 0.0
C340 C 0.87864 0.8127 0.80388 0.0
C341 C 1.01284 0.75892 0.9011 0.0
O342 O 0.04224 0.78369 0.92156 0.0
O343 O 0.91695 0.70551 0.82112 0.0
O344 O 0.85403 0.67295 0.82862 0.0
O345 O 0.85453 0.79226 0.93266 0.0
O346 O 0.8308 0.74367 0.88452 0.0
C347 C 0.88844 0.67816 0.80536 0.0
C348 C 0.82184 0.7762 0.91 0.0
O349 O 0.97218 0.76827 0.90658 0.0
Mg350 Mg 0.77935 0.40081 0.38726 0.0
O351 O 0.71998 0.40188 0.33941 0.0
O352 O 0.74169 0.34708 0.29465 0.0
Mg353 Mg 0.80067 0.30328 0.32007 0.0
C354 C 0.7152 0.37864 0.30388 0.0
C355 C 0.76899 0.51284 0.40111 0.0
O356 O 0.74422 0.54224 0.42158 0.0
O357 O 0.82239 0.41695 0.32113 0.0
O358 O 0.85495 0.35403 0.32862 0.0
O359 O 0.73565 0.35453 0.43267 0.0
O360 O 0.78423 0.33079 0.38453 0.0
C361 C 0.84974 0.38844 0.30537 0.0
C362 C 0.7517 0.32184 0.41 0.0
O363 O 0.75963 0.47217 0.40659 0.0
Mg364 Mg 0.12709 0.27935 0.88725 0.0
O365 O 0.12602 0.21998 0.83939 0.0
O366 O 0.18083 0.24169 0.79464 0.0
Mg367 Mg 0.22462 0.30067 0.82006 0.0
C368 C 0.14927 0.2152 0.80387 0.0
C369 C 0.01506 0.26897 0.90109 0.0
O370 O 0.98566 0.24421 0.92155 0.0
O371 O 0.11095 0.32239 0.82111 0.0
O372 O 0.17386 0.35495 0.82861 0.0
O373 O 0.17337 0.23565 0.93265 0.0
O374 O 0.19711 0.28424 0.88451 0.0
C375 C 0.13946 0.34974 0.80535 0.0
C376 C 0.20606 0.25171 0.90999 0.0
O377 O 0.05573 0.25962 0.90657 0.0
Mg378 Mg 0.24856 0.62709 0.38727 0.0
O379 O 0.30792 0.62602 0.33941 0.0
O380 O 0.28621 0.68083 0.29465 0.0
Mg381 Mg 0.22724 0.72462 0.32007 0.0
C382 C 0.3127 0.64927 0.30388 0.0
C383 C 0.25892 0.51507 0.40111 0.0
O384 O 0.28368 0.48567 0.42158 0.0
O385 O 0.20551 0.61096 0.32113 0.0
O386 O 0.17296 0.67387 0.32862 0.0
O387 O 0.29226 0.67338 0.43267 0.0
O388 O 0.24367 0.69711 0.38453 0.0
C389 C 0.17816 0.63947 0.30537 0.0
C390 C 0.2762 0.70607 0.41 0.0
O391 O 0.26827 0.55573 0.4066 0.0
Mg392 Mg 0.88119 0.31522 0.17095 0.0
O393 O 0.89397 0.2523 0.21299 0.0
O394 O 0.83696 0.26037 0.25941 0.0
Mg395 Mg 0.78222 0.30832 0.23519 0.0
C396 C 0.87263 0.24089 0.24818 0.0
C397 C 0.99118 0.31634 0.18001 0.0
O398 O 0.02976 0.31994 0.1601 0.0
O399 O 0.88355 0.3593 0.23857 0.0
O400 O 0.81362 0.37644 0.23759 0.0
O401 O 0.84724 0.26592 0.12009 0.0
O402 O 0.81293 0.30479 0.17076 0.0
C403 C 0.851 0.38073 0.25577 0.0
C404 C 0.81144 0.27325 0.14264 0.0
O405 O 0.95632 0.31931 0.15584 0.0
Mg406 Mg 0.21269 0.38118 0.67094 0.0
O407 O 0.2756 0.39397 0.71298 0.0
O408 O 0.26754 0.33697 0.7594 0.0
Mg409 Mg 0.21959 0.28222 0.73518 0.0
C410 C 0.28701 0.37263 0.74817 0.0
C411 C 0.21156 0.49118 0.67999 0.0
O412 O 0.20796 0.52975 0.66008 0.0
O413 O 0.1686 0.38354 0.73855 0.0
O414 O 0.15147 0.31361 0.73758 0.0
O415 O 0.26199 0.34724 0.62008 0.0
O416 O 0.22312 0.31293 0.67075 0.0
C417 C 0.14717 0.35099 0.75575 0.0
C418 C 0.25466 0.31144 0.64263 0.0
O419 O 0.20859 0.45632 0.65583 0.0
Mg420 Mg 0.14672 0.71269 0.17095 0.0
O421 O 0.13394 0.77561 0.21299 0.0
O422 O 0.19094 0.76754 0.25941 0.0
Mg423 Mg 0.24569 0.71959 0.23519 0.0
C424 C 0.15528 0.78701 0.24818 0.0
C425 C 0.03673 0.71157 0.18001 0.0
O426 O 0.99815 0.70797 0.1601 0.0
O427 O 0.14436 0.6686 0.23857 0.0
O428 O 0.21428 0.65147 0.23759 0.0
O429 O 0.18067 0.76199 0.12009 0.0
O430 O 0.21497 0.72311 0.17076 0.0
C431 C 0.17691 0.64717 0.25577 0.0
C432 C 0.21646 0.75465 0.14264 0.0
O433 O 0.07158 0.7086 0.15584 0.0
Mg434 Mg 0.81522 0.64672 0.67095 0.0
O435 O 0.7523 0.63393 0.71299 0.0
O436 O 0.76037 0.69094 0.75941 0.0
Mg437 Mg 0.80831 0.74569 0.73519 0.0
C438 C 0.74089 0.65528 0.74818 0.0
C439 C 0.81633 0.53673 0.68 0.0
O440 O 0.81993 0.49815 0.66009 0.0
O441 O 0.8593 0.64435 0.73856 0.0
O442 O 0.87643 0.71428 0.73758 0.0
O443 O 0.76591 0.68066 0.62009 0.0
O444 O 0.80479 0.71497 0.67075 0.0
C445 C 0.88073 0.67691 0.75576 0.0
C446 C 0.77325 0.71646 0.64264 0.0
O447 O 0.81931 0.57158 0.65584 0.0
Mg448 Mg 0.85371 0.92502 0.73941 0.0
O449 O 0.80549 0.92558 0.79871 0.0
O450 O 0.77038 0.86496 0.77781 0.0
Mg451 Mg 0.80205 0.82068 0.72222 0.0
C452 C 0.77383 0.89876 0.80331 0.0
C453 C 0.86541 0.03367 0.73698 0.0
O454 O 0.87392 0.07009 0.75931 0.0
O455 O 0.78951 0.92929 0.69014 0.0
O456 O 0.80232 0.86493 0.66011 0.0
O457 O 0.90037 0.88883 0.78979 0.0
O458 O 0.86031 0.85539 0.73927 0.0
C459 C 0.77822 0.89872 0.66185 0.0
C460 C 0.88325 0.85254 0.77524 0.0
O461 O 0.86225 0.99781 0.75891 0.0
Mg462 Mg 0.60288 0.35372 0.23941 0.0
O463 O 0.60232 0.30549 0.29871 0.0
O464 O 0.66294 0.27038 0.27781 0.0
Mg465 Mg 0.70722 0.30206 0.22222 0.0
C466 C 0.62914 0.27383 0.30331 0.0
C467 C 0.49424 0.36543 0.23698 0.0
O468 O 0.45782 0.37394 0.25931 0.0
O469 O 0.59862 0.28951 0.19013 0.0
O470 O 0.66297 0.30233 0.16011 0.0
O471 O 0.63908 0.40038 0.28979 0.0
O472 O 0.67252 0.36032 0.23927 0.0
C473 C 0.62919 0.27823 0.16185 0.0
C474 C 0.67537 0.38325 0.27524 0.0
O475 O 0.5301 0.36226 0.25891 0.0
Mg476 Mg 0.1742 0.10288 0.7394 0.0
O477 O 0.22242 0.10232 0.79871 0.0
O478 O 0.25753 0.16294 0.7778 0.0
Mg479 Mg 0.22586 0.20722 0.72221 0.0
C480 C 0.25408 0.12915 0.80331 0.0
C481 C 0.1625 0.99423 0.73698 0.0
O482 O 0.15399 0.95782 0.75931 0.0
O483 O 0.23841 0.09862 0.69013 0.0
O484 O 0.22559 0.16297 0.6601 0.0
O485 O 0.12754 0.13907 0.78978 0.0
O486 O 0.1676 0.17251 0.73926 0.0
C487 C 0.24969 0.12918 0.66184 0.0
C488 C 0.14466 0.17536 0.77523 0.0
O489 O 0.16567 0.0301 0.75891 0.0
Mg490 Mg 0.42503 0.67419 0.23942 0.0
O491 O 0.42559 0.72241 0.29872 0.0
O492 O 0.36497 0.75752 0.27781 0.0
Mg493 Mg 0.32068 0.72585 0.22223 0.0
C494 C 0.39876 0.75407 0.30332 0.0
C495 C 0.53367 0.66248 0.23699 0.0
O496 O 0.57009 0.65397 0.25931 0.0
O497 O 0.42929 0.73839 0.19014 0.0
O498 O 0.36493 0.72557 0.16011 0.0
O499 O 0.38883 0.62753 0.2898 0.0
O500 O 0.35539 0.66759 0.23928 0.0
C501 C 0.39872 0.74967 0.16185 0.0
C502 C 0.35254 0.64465 0.27524 0.0
O503 O 0.49781 0.66565 0.25891 0.0
Mg504 Mg 0.86482 0.12217 0.30502 0.0
O505 O 0.81666 0.11908 0.2464 0.0
O506 O 0.773 0.17357 0.26854 0.0
Mg507 Mg 0.79901 0.21937 0.32717 0.0
C508 C 0.78162 0.14138 0.24206 0.0
C509 C 0.88521 0.01537 0.30424 0.0
O510 O 0.89542 0.97905 0.28246 0.0
O511 O 0.80196 0.10713 0.35315 0.0
O512 O 0.80805 0.17116 0.38527 0.0
O513 O 0.90549 0.16787 0.25677 0.0
O514 O 0.86186 0.19231 0.3095 0.0
C515 C 0.78682 0.13568 0.38162 0.0
C516 C 0.88402 0.2006 0.27396 0.0
O517 O 0.88032 0.05095 0.28205 0.0
Mg518 Mg 0.40573 0.36484 0.80501 0.0
O519 O 0.40883 0.31667 0.74639 0.0
O520 O 0.35434 0.27301 0.76854 0.0
Mg521 Mg 0.30853 0.29902 0.82716 0.0
C522 C 0.38652 0.28163 0.74205 0.0
C523 C 0.51253 0.38522 0.80425 0.0
O524 O 0.54885 0.39543 0.78246 0.0
O525 O 0.42077 0.30198 0.85315 0.0
O526 O 0.35674 0.30807 0.88526 0.0
O527 O 0.36003 0.40551 0.75676 0.0
O528 O 0.33559 0.36187 0.80949 0.0
C529 C 0.39223 0.28684 0.88162 0.0
C530 C 0.3273 0.38402 0.77395 0.0
O531 O 0.47695 0.38034 0.78205 0.0
Mg532 Mg 0.16309 0.90573 0.30502 0.0
O533 O 0.21125 0.90883 0.2464 0.0
O534 O 0.25491 0.85434 0.26854 0.0
Mg535 Mg 0.22889 0.80854 0.32717 0.0
C536 C 0.24629 0.88652 0.24206 0.0
C537 C 0.1427 1.01254 0.30424 0.0
O538 O 0.13249 0.04885 0.28245 0.0
O539 O 0.22595 0.92077 0.35315 0.0
O540 O 0.21985 0.85675 0.38527 0.0
O541 O 0.12241 0.86003 0.25677 0.0
O542 O 0.16605 0.83559 0.3095 0.0
C543 C 0.24109 0.89223 0.38162 0.0
C544 C 0.14389 0.82731 0.27396 0.0
O545 O 0.14759 0.97695 0.28205 0.0
Mg546 Mg 0.62218 0.66307 0.80502 0.0
O547 O 0.61907 0.71124 0.7464 0.0
O548 O 0.67357 0.7549 0.76854 0.0
Mg549 Mg 0.71937 0.72888 0.82716 0.0
C550 C 0.64138 0.74628 0.74206 0.0
C551 C 0.51537 0.64268 0.80424 0.0
O552 O 0.47905 0.63247 0.78246 0.0
O553 O 0.60713 0.72593 0.85315 0.0
O554 O 0.67116 0.71984 0.88527 0.0
O555 O 0.66788 0.6224 0.75677 0.0
O556 O 0.69232 0.66604 0.80949 0.0
C557 C 0.63568 0.74107 0.88162 0.0
C558 C 0.7006 0.64388 0.77395 0.0
O559 O 0.55095 0.64757 0.78205 0.0
Mg560 Mg 0.70454 0.87355 0.9147 0.0
O561 O 0.76847 0.83318 0.92536 0.0
O562 O 0.75965 0.79004 0.86507 0.0
Mg563 Mg 0.70826 0.812 0.81138 0.0
C564 C 0.78011 0.80018 0.90147 0.0
C565 C 0.71823 0.88234 1.02851 0.0
O566 O 0.71325 0.90772 0.06426 0.0
O567 O 0.66302 0.80571 0.92 0.0
O568 O 0.64275 0.81004 0.84909 0.0
O569 O 0.75055 0.92436 0.87835 0.0
O570 O 0.71268 0.87332 0.84437 0.0
C571 C 0.64103 0.78965 0.88631 0.0
C572 C 0.74314 0.90176 0.842 0.0
O573 O 0.70337 0.89552 0.99036 0.0
Mg574 Mg 0.71427 0.15751 0.12735 0.0
O575 O 0.77032 0.20851 0.12114 0.0
O576 O 0.75069 0.24556 0.1828 0.0
Mg577 Mg 0.69922 0.21554 0.23247 0.0
C578 C 0.77465 0.24147 0.14741 0.0
C579 C 0.71915 0.1372 1.01157 0.0
O580 O 0.74442 0.11582 0.98288 0.0
O581 O 0.6635 0.21911 0.1198 0.0
O582 O 0.63889 0.20689 0.18783 0.0
O583 O 0.76559 0.11479 0.16598 0.0
O584 O 0.71753 0.15688 0.1992 0.0
C585 C 0.63777 0.23052 0.15273 0.0
C586 C 0.75274 0.13451 0.2024 0.0
O587 O 0.72976 0.13738 0.05334 0.0
Mg588 Mg 0.37041 0.21427 0.62734 0.0
O589 O 0.3194 0.27033 0.62113 0.0
O590 O 0.28235 0.25069 0.68279 0.0
Mg591 Mg 0.31237 0.19923 0.73246 0.0
C592 C 0.28645 0.27465 0.6474 0.0
C593 C 0.39072 0.21915 0.51157 0.0
O594 O 0.4121 0.24443 0.48287 0.0
O595 O 0.30881 0.1635 0.61979 0.0
O596 O 0.32103 0.1389 0.68783 0.0
O597 O 0.41312 0.26561 0.66598 0.0
O598 O 0.37104 0.21754 0.6992 0.0
C599 C 0.2974 0.13778 0.65273 0.0
C600 C 0.3934 0.25276 0.70239 0.0
O601 O 0.39054 0.22977 0.55334 0.0
Mg602 Mg 0.31364 0.87039 0.12735 0.0
O603 O 0.25759 0.81939 0.12114 0.0
O604 O 0.27722 0.78234 0.1828 0.0
Mg605 Mg 0.32869 0.81236 0.23247 0.0
C606 C 0.25326 0.78644 0.14741 0.0
C607 C 0.30877 0.8907 1.01157 0.0
O608 O 0.28349 0.91208 0.98288 0.0
O609 O 0.36441 0.80879 0.1198 0.0
O610 O 0.38902 0.82101 0.18783 0.0
O611 O 0.26232 0.91311 0.16598 0.0
O612 O 0.31038 0.87103 0.1992 0.0
C613 C 0.39014 0.79738 0.15274 0.0
C614 C 0.27517 0.8934 0.2024 0.0
O615 O 0.29815 0.89052 0.05334 0.0
Mg616 Mg 0.6575 0.81363 0.62735 0.0
O617 O 0.70851 0.75758 0.62114 0.0
O618 O 0.74556 0.77721 0.6828 0.0
Mg619 Mg 0.71554 0.82868 0.73247 0.0
C620 C 0.74146 0.75325 0.64741 0.0
C621 C 0.63719 0.80875 0.51157 0.0
O622 O 0.61581 0.78348 0.48288 0.0
O623 O 0.71911 0.8644 0.6198 0.0
O624 O 0.70689 0.88901 0.68783 0.0
O625 O 0.61479 0.7623 0.66598 0.0
O626 O 0.65687 0.81037 0.69921 0.0
C627 C 0.73051 0.89013 0.65273 0.0
C628 C 0.6345 0.77515 0.7024 0.0
O629 O 0.63737 0.79814 0.55334 0.0
Mg630 Mg 0.32337 0.15436 0.91469 0.0
O631 O 0.25943 0.19472 0.92535 0.0
O632 O 0.26826 0.23787 0.86507 0.0
Mg633 Mg 0.31964 0.21591 0.81138 0.0
C634 C 0.2478 0.22773 0.90146 0.0
C635 C 0.30968 0.14557 1.02851 0.0
O636 O 0.31465 0.12019 0.06426 0.0
O637 O 0.36489 0.2222 0.92 0.0
O638 O 0.38516 0.21787 0.84909 0.0
O639 O 0.27736 0.10355 0.87835 0.0
O640 O 0.31523 0.15459 0.84436 0.0
C641 C 0.38687 0.23826 0.88631 0.0
C642 C 0.28477 0.12615 0.842 0.0
O643 O 0.32454 0.13239 0.99036 0.0
Mg644 Mg 0.37357 0.82337 0.4147 0.0
O645 O 0.33319 0.75944 0.42536 0.0
O646 O 0.29005 0.76826 0.36507 0.0
Mg647 Mg 0.31201 0.81964 0.31138 0.0
C648 C 0.30019 0.7478 0.40147 0.0
C649 C 0.38235 0.80968 0.52851 0.0
O650 O 0.40773 0.81465 0.56426 0.0
O651 O 0.30573 0.86489 0.42 0.0
O652 O 0.31006 0.88515 0.34909 0.0
O653 O 0.42437 0.77736 0.37835 0.0
O654 O 0.37333 0.81522 0.34437 0.0
C655 C 0.28966 0.88687 0.38631 0.0
C656 C 0.40177 0.78476 0.342 0.0
O657 O 0.39553 0.82454 0.49036 0.0
Mg658 Mg 0.65434 0.20453 0.41469 0.0
O659 O 0.69471 0.26847 0.42536 0.0
O660 O 0.73786 0.25964 0.36507 0.0
Mg661 Mg 0.7159 0.20826 0.31138 0.0
C662 C 0.72772 0.2801 0.40147 0.0
C663 C 0.64555 0.21823 0.52851 0.0
O664 O 0.62017 0.21325 0.56426 0.0
O665 O 0.72218 0.16301 0.42 0.0
O666 O 0.71785 0.14275 0.34909 0.0
O667 O 0.60354 0.25055 0.37835 0.0
O668 O 0.65458 0.21268 0.34436 0.0
C669 C 0.73824 0.14103 0.38631 0.0
C670 C 0.62614 0.24315 0.342 0.0
O671 O 0.63237 0.20337 0.49036 0.0
loop_
_geom_bond_atom_site_label_1
_geom_bond_atom_site_label_2
_geom_bond_distance
_geom_bond_site_symmetry_2
_ccdc_geom_bond_type
Mg0 O1 2.028 . S
Mg0 O7 1.986 . S
Mg0 O9 2.114 . S
Mg0 O10 2.251 . S
Mg0 O13 2.010 . S
O1 Mg0 2.028 . S
O1 C4 1.250 . S
O2 Mg3 2.028 . S
O2 C4 1.248 . S
Mg3 O2 2.028 . S
Mg3 O8 2.032 . S
Mg3 O10 2.079 . S
C4 O1 1.250 . S
C4 O2 1.248 . S
C5 O6 1.264 1_455 S
C5 O13 1.249 . S
O6 C5 1.264 1_655 S
O7 Mg0 1.986 . S
O7 C11 1.246 . S
O8 Mg3 2.032 . S
O8 C11 1.259 . S
O9 Mg0 2.114 . S
O9 C12 1.252 . S
O10 Mg0 2.251 . S
O10 Mg3 2.079 . S
O10 C12 1.273 . S
C11 O7 1.246 . S
C11 O8 1.259 . S
C12 O9 1.252 . S
C12 O10 1.273 . S
O13 Mg0 2.010 . S
O13 C5 1.249 . S
Mg14 O15 2.028 . S
Mg14 O21 1.986 . S
Mg14 O23 2.114 . S
Mg14 O24 2.251 . S
Mg14 O27 2.010 . S
O15 Mg14 2.028 . S
O15 C18 1.250 . S
O16 Mg17 2.028 . S
O16 C18 1.248 . S
Mg17 O16 2.028 . S
Mg17 O22 2.032 . S
Mg17 O24 2.079 . S
C18 O15 1.250 . S
C18 O16 1.248 . S
C19 O20 1.264 . S
C19 O27 1.249 . S
O20 C19 1.264 . S
O21 Mg14 1.986 . S
O21 C25 1.246 . S
O22 Mg17 2.032 . S
O22 C25 1.259 . S
O23 Mg14 2.114 . S
O23 C26 1.252 . S
O24 Mg14 2.251 . S
O24 Mg17 2.079 . S
O24 C26 1.273 . S
C25 O21 1.246 . S
C25 O22 1.259 . S
C26 O23 1.252 . S
C26 O24 1.273 . S
O27 Mg14 2.010 . S
O27 C19 1.249 . S
Mg28 O29 2.028 . S
Mg28 O35 1.986 . S
Mg28 O37 2.114 . S
Mg28 O38 2.251 . S
Mg28 O41 2.010 . S
O29 Mg28 2.028 . S
O29 C32 1.250 . S
O30 Mg31 2.028 . S
O30 C32 1.248 . S
Mg31 O30 2.028 . S
Mg31 O36 2.032 . S
Mg31 O38 2.079 . S
C32 O29 1.250 . S
C32 O30 1.248 . S
C33 O34 1.264 1_655 S
C33 O41 1.249 . S
O34 C33 1.264 1_455 S
O35 Mg28 1.986 . S
O35 C39 1.246 . S
O36 Mg31 2.032 . S
O36 C39 1.259 . S
O37 Mg28 2.114 . S
O37 C40 1.252 . S
O38 Mg28 2.251 . S
O38 Mg31 2.079 . S
O38 C40 1.273 . S
C39 O35 1.246 . S
C39 O36 1.259 . S
C40 O37 1.252 . S
C40 O38 1.273 . S
O41 Mg28 2.010 . S
O41 C33 1.249 . S
Mg42 O43 2.028 . S
Mg42 O49 1.986 . S
Mg42 O51 2.114 . S
Mg42 O52 2.251 . S
Mg42 O55 2.010 . S
O43 Mg42 2.028 . S
O43 C46 1.250 . S
O44 Mg45 2.028 . S
O44 C46 1.248 . S
Mg45 O44 2.028 . S
Mg45 O50 2.032 . S
Mg45 O52 2.079 . S
C46 O43 1.250 . S
C46 O44 1.248 . S
C47 O48 1.264 . S
C47 O55 1.249 . S
O48 C47 1.264 . S
O49 Mg42 1.986 . S
O49 C53 1.246 . S
O50 Mg45 2.032 . S
O50 C53 1.259 . S
O51 Mg42 2.114 . S
O51 C54 1.252 . S
O52 Mg42 2.251 . S
O52 Mg45 2.079 . S
O52 C54 1.273 . S
C53 O49 1.246 . S
C53 O50 1.259 . S
C54 O51 1.252 . S
C54 O52 1.273 . S
O55 Mg42 2.010 . S
O55 C47 1.249 . S
Mg56 O57 2.028 . S
Mg56 O63 1.986 . S
Mg56 O65 2.114 . S
Mg56 O66 2.251 . S
Mg56 O69 2.010 . S
O57 Mg56 2.028 . S
O57 C60 1.250 . S
O58 Mg59 2.028 . S
O58 C60 1.248 . S
Mg59 O58 2.028 . S
Mg59 O64 2.032 . S
Mg59 O66 2.079 . S
C60 O57 1.250 . S
C60 O58 1.248 . S
C61 O62 1.264 1_455 S
C61 O69 1.249 . S
O62 C61 1.264 1_655 S
O63 Mg56 1.986 . S
O63 C67 1.246 . S
O64 Mg59 2.032 . S
O64 C67 1.259 . S
O65 Mg56 2.114 . S
O65 C68 1.252 . S
O66 Mg56 2.251 . S
O66 Mg59 2.079 . S
O66 C68 1.273 . S
C67 O63 1.246 . S
C67 O64 1.259 . S
C68 O65 1.252 . S
C68 O66 1.273 . S
O69 Mg56 2.010 . S
O69 C61 1.249 . S
Mg70 O71 2.028 . S
Mg70 O77 1.986 . S
Mg70 O79 2.114 . S
Mg70 O80 2.251 . S
Mg70 O83 2.010 . S
O71 Mg70 2.028 . S
O71 C74 1.250 . S
O72 Mg73 2.028 . S
O72 C74 1.248 . S
Mg73 O72 2.028 . S
Mg73 O78 2.032 . S
Mg73 O80 2.079 . S
C74 O71 1.250 . S
C74 O72 1.248 . S
C75 O76 1.264 . S
C75 O83 1.249 . S
O76 C75 1.264 . S
O77 Mg70 1.986 . S
O77 C81 1.246 . S
O78 Mg73 2.032 . S
O78 C81 1.259 . S
O79 Mg70 2.114 . S
O79 C82 1.252 . S
O80 Mg70 2.251 . S
O80 Mg73 2.079 . S
O80 C82 1.273 . S
C81 O77 1.246 . S
C81 O78 1.259 . S
C82 O79 1.252 . S
C82 O80 1.273 . S
O83 Mg70 2.010 . S
O83 C75 1.249 . S
Mg84 O85 2.028 . S
Mg84 O91 1.986 . S
Mg84 O93 2.114 . S
Mg84 O94 2.251 . S
Mg84 O97 2.010 . S
O85 Mg84 2.028 . S
O85 C88 1.250 . S
O86 Mg87 2.028 . S
O86 C88 1.248 . S
Mg87 O86 2.028 . S
Mg87 O92 2.032 . S
Mg87 O94 2.079 . S
C88 O85 1.250 . S
C88 O86 1.248 . S
C89 O90 1.264 1_655 S
C89 O97 1.249 . S
O90 C89 1.264 1_455 S
O91 Mg84 1.986 . S
O91 C95 1.246 . S
O92 Mg87 2.032 . S
O92 C95 1.259 . S
O93 Mg84 2.114 . S
O93 C96 1.252 . S
O94 Mg84 2.251 . S
O94 Mg87 2.079 . S
O94 C96 1.273 . S
C95 O91 1.246 . S
C95 O92 1.259 . S
C96 O93 1.252 . S
C96 O94 1.273 . S
O97 Mg84 2.010 . S
O97 C89 1.249 . S
Mg98 O99 2.028 . S
Mg98 O105 1.986 . S
Mg98 O107 2.114 . S
Mg98 O108 2.251 . S
Mg98 O111 2.010 . S
O99 Mg98 2.028 . S
O99 C102 1.250 . S
O100 Mg101 2.028 . S
O100 C102 1.248 . S
Mg101 O100 2.028 . S
Mg101 O106 2.032 . S
Mg101 O108 2.079 . S
C102 O99 1.250 . S
C102 O100 1.248 . S
C103 O104 1.264 . S
C103 O111 1.249 . S
O104 C103 1.264 . S
O105 Mg98 1.986 . S
O105 C109 1.246 . S
O106 Mg101 2.032 . S
O106 C109 1.259 . S
O107 Mg98 2.114 . S
O107 C110 1.252 . S
O108 Mg98 2.251 . S
O108 Mg101 2.079 . S
O108 C110 1.273 . S
C109 O105 1.246 . S
C109 O106 1.259 . S
C110 O107 1.252 . S
C110 O108 1.273 . S
O111 Mg98 2.010 . S
O111 C103 1.249 . S
Mg112 O113 2.028 . S
Mg112 O119 1.986 . S
Mg112 O121 2.114 . S
Mg112 O122 2.251 . S
Mg112 O125 2.010 . S
O113 Mg112 2.028 . S
O113 C116 1.250 . S
O114 Mg115 2.028 . S
O114 C116 1.248 . S
Mg115 O114 2.028 . S
Mg115 O120 2.032 . S
Mg115 O122 2.079 . S
C116 O113 1.250 . S
C116 O114 1.248 . S
C117 O118 1.264 1_545 S
C117 O125 1.249 . S
O118 C117 1.264 1_565 S
O119 Mg112 1.986 . S
O119 C123 1.246 . S
O120 Mg115 2.032 . S
O120 C123 1.259 . S
O121 Mg112 2.114 . S
O121 C124 1.252 . S
O122 Mg112 2.251 . S
O122 Mg115 2.079 . S
O122 C124 1.273 . S
C123 O119 1.246 . S
C123 O120 1.259 . S
C124 O121 1.252 . S
C124 O122 1.273 . S
O125 Mg112 2.010 . S
O125 C117 1.249 . S
Mg126 O127 2.028 . S
Mg126 O133 1.986 . S
Mg126 O135 2.114 . S
Mg126 O136 2.251 . S
Mg126 O139 2.010 . S
O127 Mg126 2.028 . S
O127 C130 1.250 . S
O128 Mg129 2.028 . S
O128 C130 1.248 . S
Mg129 O128 2.028 . S
Mg129 O134 2.032 . S
Mg129 O136 2.079 . S
C130 O127 1.250 . S
C130 O128 1.248 . S
C131 O132 1.264 . S
C131 O139 1.249 . S
O132 C131 1.264 . S
O133 Mg126 1.986 . S
O133 C137 1.246 . S
O134 Mg129 2.032 . S
O134 C137 1.259 . S
O135 Mg126 2.114 . S
O135 C138 1.252 . S
O136 Mg126 2.251 . S
O136 Mg129 2.079 . S
O136 C138 1.273 . S
C137 O133 1.246 . S
C137 O134 1.259 . S
C138 O135 1.252 . S
C138 O136 1.273 . S
O139 Mg126 2.010 . S
O139 C131 1.249 . S
Mg140 O141 2.028 . S
Mg140 O147 1.986 . S
Mg140 O149 2.114 . S
Mg140 O150 2.251 . S
Mg140 O153 2.010 . S
O141 Mg140 2.028 . S
O141 C144 1.250 . S
O142 Mg143 2.028 . S
O142 C144 1.248 . S
Mg143 O142 2.028 . S
Mg143 O148 2.032 . S
Mg143 O150 2.079 . S
C144 O141 1.250 . S
C144 O142 1.248 . S
C145 O146 1.264 1_565 S
C145 O153 1.249 . S
O146 C145 1.264 1_545 S
O147 Mg140 1.986 . S
O147 C151 1.246 . S
O148 Mg143 2.032 . S
O148 C151 1.259 . S
O149 Mg140 2.114 . S
O149 C152 1.252 . S
O150 Mg140 2.251 . S
O150 Mg143 2.079 . S
O150 C152 1.273 . S
C151 O147 1.246 . S
C151 O148 1.259 . S
C152 O149 1.252 . S
C152 O150 1.273 . S
O153 Mg140 2.010 . S
O153 C145 1.249 . S
Mg154 O155 2.028 . S
Mg154 O161 1.986 . S
Mg154 O163 2.114 . S
Mg154 O164 2.251 . S
Mg154 O167 2.010 . S
O155 Mg154 2.028 . S
O155 C158 1.250 . S
O156 Mg157 2.028 . S
O156 C158 1.248 . S
Mg157 O156 2.028 . S
Mg157 O162 2.032 . S
Mg157 O164 2.079 . S
C158 O155 1.250 . S
C158 O156 1.248 . S
C159 O160 1.264 . S
C159 O167 1.249 . S
O160 C159 1.264 . S
O161 Mg154 1.986 . S
O161 C165 1.246 . S
O162 Mg157 2.032 . S
O162 C165 1.259 . S
O163 Mg154 2.114 . S
O163 C166 1.252 . S
O164 Mg154 2.251 . S
O164 Mg157 2.079 . S
O164 C166 1.273 . S
C165 O161 1.246 . S
C165 O162 1.259 . S
C166 O163 1.252 . S
C166 O164 1.273 . S
O167 Mg154 2.010 . S
O167 C159 1.249 . S
Mg168 O169 2.028 . S
Mg168 O175 1.986 . S
Mg168 O177 2.114 . S
Mg168 O178 2.251 . S
Mg168 O181 2.010 . S
O169 Mg168 2.028 . S
O169 C172 1.250 . S
O170 Mg171 2.028 . S
O170 C172 1.248 . S
Mg171 O170 2.028 . S
Mg171 O176 2.032 . S
Mg171 O178 2.079 . S
C172 O169 1.250 . S
C172 O170 1.248 . S
C173 O174 1.264 1_565 S
C173 O181 1.249 . S
O174 C173 1.264 1_545 S
O175 Mg168 1.986 . S
O175 C179 1.246 . S
O176 Mg171 2.032 . S
O176 C179 1.259 . S
O177 Mg168 2.114 . S
O177 C180 1.252 . S
O178 Mg168 2.251 . S
O178 Mg171 2.079 . S
O178 C180 1.273 . S
C179 O175 1.246 . S
C179 O176 1.259 . S
C180 O177 1.252 . S
C180 O178 1.273 . S
O181 Mg168 2.010 . S
O181 C173 1.249 . S
Mg182 O183 2.028 . S
Mg182 O189 1.986 . S
Mg182 O191 2.114 . S
Mg182 O192 2.251 . S
Mg182 O195 2.010 . S
O183 Mg182 2.028 . S
O183 C186 1.250 . S
O184 Mg185 2.028 . S
O184 C186 1.248 . S
Mg185 O184 2.028 . S
Mg185 O190 2.032 . S
Mg185 O192 2.079 . S
C186 O183 1.250 . S
C186 O184 1.248 . S
C187 O188 1.264 . S
C187 O195 1.249 . S
O188 C187 1.264 . S
O189 Mg182 1.986 . S
O189 C193 1.246 . S
O190 Mg185 2.032 . S
O190 C193 1.259 . S
O191 Mg182 2.114 . S
O191 C194 1.252 . S
O192 Mg182 2.251 . S
O192 Mg185 2.079 . S
O192 C194 1.273 . S
C193 O189 1.246 . S
C193 O190 1.259 . S
C194 O191 1.252 . S
C194 O192 1.273 . S
O195 Mg182 2.010 . S
O195 C187 1.249 . S
Mg196 O197 2.028 . S
Mg196 O203 1.986 . S
Mg196 O205 2.114 . S
Mg196 O206 2.251 . S
Mg196 O209 2.010 . S
O197 Mg196 2.028 . S
O197 C200 1.250 . S
O198 Mg199 2.028 . S
O198 C200 1.248 . S
Mg199 O198 2.028 . S
Mg199 O204 2.032 . S
Mg199 O206 2.079 . S
C200 O197 1.250 . S
C200 O198 1.248 . S
C201 O202 1.264 1_545 S
C201 O209 1.249 . S
O202 C201 1.264 1_565 S
O203 Mg196 1.986 . S
O203 C207 1.246 . S
O204 Mg199 2.032 . S
O204 C207 1.259 . S
O205 Mg196 2.114 . S
O205 C208 1.252 . S
O206 Mg196 2.251 . S
O206 Mg199 2.079 . S
O206 C208 1.273 . S
C207 O203 1.246 . S
C207 O204 1.259 . S
C208 O205 1.252 . S
C208 O206 1.273 . S
O209 Mg196 2.010 . S
O209 C201 1.249 . S
Mg210 O211 2.028 . S
Mg210 O217 1.986 . S
Mg210 O219 2.114 . S
Mg210 O220 2.251 . S
Mg210 O223 2.010 . S
O211 Mg210 2.028 . S
O211 C214 1.250 . S
O212 Mg213 2.028 . S
O212 C214 1.248 . S
Mg213 O212 2.028 . S
Mg213 O218 2.032 . S
Mg213 O220 2.079 . S
C214 O211 1.250 . S
C214 O212 1.248 . S
C215 O216 1.264 . S
C215 O223 1.249 . S
O216 C215 1.264 . S
O217 Mg210 1.986 . S
O217 C221 1.246 . S
O218 Mg213 2.032 . S
O218 C221 1.259 . S
O219 Mg210 2.114 . S
O219 C222 1.252 . S
O220 Mg210 2.251 . S
O220 Mg213 2.079 . S
O220 C222 1.273 . S
C221 O217 1.246 . S
C221 O218 1.259 . S
C222 O219 1.252 . S
C222 O220 1.273 . S
O223 Mg210 2.010 . S
O223 C215 1.249 . S
Mg224 O225 2.028 . S
Mg224 O231 1.986 . S
Mg224 O233 2.114 . S
Mg224 O234 2.251 . S
Mg224 O237 2.010 . S
O225 Mg224 2.028 . S
O225 C228 1.250 . S
O226 Mg227 2.028 . S
O226 C228 1.248 . S
Mg227 O226 2.028 . S
Mg227 O232 2.032 . S
Mg227 O234 2.079 . S
C228 O225 1.250 . S
C228 O226 1.248 . S
C229 O230 1.264 1_554 S
C229 O237 1.249 . S
O230 C229 1.264 1_556 S
O231 Mg224 1.986 . S
O231 C235 1.246 . S
O232 Mg227 2.032 . S
O232 C235 1.259 . S
O233 Mg224 2.114 . S
O233 C236 1.252 . S
O234 Mg224 2.251 . S
O234 Mg227 2.079 . S
O234 C236 1.273 . S
C235 O231 1.246 . S
C235 O232 1.259 . S
C236 O233 1.252 . S
C236 O234 1.273 . S
O237 Mg224 2.010 . S
O237 C229 1.249 . S
Mg238 O239 2.028 . S
Mg238 O245 1.986 . S
Mg238 O247 2.114 . S
Mg238 O248 2.251 . S
Mg238 O251 2.010 . S
O239 Mg238 2.028 . S
O239 C242 1.250 . S
O240 Mg241 2.028 . S
O240 C242 1.248 . S
Mg241 O240 2.028 . S
Mg241 O246 2.032 . S
Mg241 O248 2.079 . S
C242 O239 1.250 . S
C242 O240 1.248 . S
C243 O244 1.264 1_556 S
C243 O251 1.249 . S
O244 C243 1.264 1_554 S
O245 Mg238 1.986 . S
O245 C249 1.246 . S
O246 Mg241 2.032 . S
O246 C249 1.259 . S
O247 Mg238 2.114 . S
O247 C250 1.252 . S
O248 Mg238 2.251 . S
O248 Mg241 2.079 . S
O248 C250 1.273 . S
C249 O245 1.246 . S
C249 O246 1.259 . S
C250 O247 1.252 . S
C250 O248 1.273 . S
O251 Mg238 2.010 . S
O251 C243 1.249 . S
Mg252 O253 2.028 . S
Mg252 O259 1.986 . S
Mg252 O261 2.114 . S
Mg252 O262 2.251 . S
Mg252 O265 2.010 . S
O253 Mg252 2.028 . S
O253 C256 1.250 . S
O254 Mg255 2.028 . S
O254 C256 1.248 . S
Mg255 O254 2.028 . S
Mg255 O260 2.032 . S
Mg255 O262 2.079 . S
C256 O253 1.250 . S
C256 O254 1.248 . S
C257 O258 1.264 . S
C257 O265 1.249 . S
O258 C257 1.264 . S
O259 Mg252 1.986 . S
O259 C263 1.246 . S
O260 Mg255 2.032 . S
O260 C263 1.259 . S
O261 Mg252 2.114 . S
O261 C264 1.252 . S
O262 Mg252 2.251 . S
O262 Mg255 2.079 . S
O262 C264 1.273 . S
C263 O259 1.246 . S
C263 O260 1.259 . S
C264 O261 1.252 . S
C264 O262 1.273 . S
O265 Mg252 2.010 . S
O265 C257 1.249 . S
Mg266 O267 2.028 . S
Mg266 O273 1.986 . S
Mg266 O275 2.114 . S
Mg266 O276 2.251 . S
Mg266 O279 2.010 . S
O267 Mg266 2.028 . S
O267 C270 1.250 . S
O268 Mg269 2.028 . S
O268 C270 1.248 . S
Mg269 O268 2.028 . S
Mg269 O274 2.032 . S
Mg269 O276 2.079 . S
C270 O267 1.250 . S
C270 O268 1.248 . S
C271 O272 1.264 1_556 S
C271 O279 1.249 . S
O272 C271 1.264 1_554 S
O273 Mg266 1.986 . S
O273 C277 1.246 . S
O274 Mg269 2.032 . S
O274 C277 1.259 . S
O275 Mg266 2.114 . S
O275 C278 1.252 . S
O276 Mg266 2.251 . S
O276 Mg269 2.079 . S
O276 C278 1.273 . S
C277 O273 1.246 . S
C277 O274 1.259 . S
C278 O275 1.252 . S
C278 O276 1.273 . S
O279 Mg266 2.010 . S
O279 C271 1.249 . S
Mg280 O281 2.028 . S
Mg280 O287 1.986 . S
Mg280 O289 2.114 . S
Mg280 O290 2.251 . S
Mg280 O293 2.010 . S
O281 Mg280 2.028 . S
O281 C284 1.250 . S
O282 Mg283 2.028 . S
O282 C284 1.248 . S
Mg283 O282 2.028 . S
Mg283 O288 2.032 . S
Mg283 O290 2.079 . S
C284 O281 1.250 . S
C284 O282 1.248 . S
C285 O286 1.264 . S
C285 O293 1.249 . S
O286 C285 1.264 . S
O287 Mg280 1.986 . S
O287 C291 1.246 . S
O288 Mg283 2.032 . S
O288 C291 1.259 . S
O289 Mg280 2.114 . S
O289 C292 1.252 . S
O290 Mg280 2.251 . S
O290 Mg283 2.079 . S
O290 C292 1.273 . S
C291 O287 1.246 . S
C291 O288 1.259 . S
C292 O289 1.252 . S
C292 O290 1.273 . S
O293 Mg280 2.010 . S
O293 C285 1.249 . S
Mg294 O295 2.028 . S
Mg294 O301 1.986 . S
Mg294 O303 2.114 . S
Mg294 O304 2.251 . S
Mg294 O307 2.010 . S
O295 Mg294 2.028 . S
O295 C298 1.250 . S
O296 Mg297 2.028 . S
O296 C298 1.248 . S
Mg297 O296 2.028 . S
Mg297 O302 2.032 . S
Mg297 O304 2.079 . S
C298 O295 1.250 . S
C298 O296 1.248 . S
C299 O300 1.264 1_554 S
C299 O307 1.249 . S
O300 C299 1.264 1_556 S
O301 Mg294 1.986 . S
O301 C305 1.246 . S
O302 Mg297 2.032 . S
O302 C305 1.259 . S
O303 Mg294 2.114 . S
O303 C306 1.252 . S
O304 Mg294 2.251 . S
O304 Mg297 2.079 . S
O304 C306 1.273 . S
C305 O301 1.246 . S
C305 O302 1.259 . S
C306 O303 1.252 . S
C306 O304 1.273 . S
O307 Mg294 2.010 . S
O307 C299 1.249 . S
Mg308 O309 2.028 . S
Mg308 O315 1.986 . S
Mg308 O317 2.114 . S
Mg308 O318 2.251 . S
Mg308 O321 2.010 . S
O309 Mg308 2.028 . S
O309 C312 1.250 . S
O310 Mg311 2.028 . S
O310 C312 1.248 . S
Mg311 O310 2.028 . S
Mg311 O316 2.032 . S
Mg311 O318 2.079 . S
C312 O309 1.250 . S
C312 O310 1.248 . S
C313 O314 1.264 . S
C313 O321 1.249 . S
O314 C313 1.264 . S
O315 Mg308 1.986 . S
O315 C319 1.246 . S
O316 Mg311 2.032 . S
O316 C319 1.259 . S
O317 Mg308 2.114 . S
O317 C320 1.252 . S
O318 Mg308 2.251 . S
O318 Mg311 2.079 . S
O318 C320 1.273 . S
C319 O315 1.246 . S
C319 O316 1.259 . S
C320 O317 1.252 . S
C320 O318 1.273 . S
O321 Mg308 2.010 . S
O321 C313 1.249 . S
Mg322 O323 2.028 . S
Mg322 O329 1.986 . S
Mg322 O331 2.114 . S
Mg322 O332 2.251 . S
Mg322 O335 2.010 . S
O323 Mg322 2.028 . S
O323 C326 1.250 . S
O324 Mg325 2.028 . S
O324 C326 1.248 . S
Mg325 O324 2.028 . S
Mg325 O330 2.032 . S
Mg325 O332 2.079 . S
C326 O323 1.250 . S
C326 O324 1.248 . S
C327 O328 1.264 . S
C327 O335 1.249 . S
O328 C327 1.264 . S
O329 Mg322 1.986 . S
O329 C333 1.246 . S
O330 Mg325 2.032 . S
O330 C333 1.259 . S
O331 Mg322 2.114 . S
O331 C334 1.252 . S
O332 Mg322 2.251 . S
O332 Mg325 2.079 . S
O332 C334 1.273 . S
C333 O329 1.246 . S
C333 O330 1.259 . S
C334 O331 1.252 . S
C334 O332 1.273 . S
O335 Mg322 2.010 . S
O335 C327 1.249 . S
Mg336 O337 2.028 . S
Mg336 O343 1.986 . S
Mg336 O345 2.114 . S
Mg336 O346 2.251 . S
Mg336 O349 2.010 . S
O337 Mg336 2.028 . S
O337 C340 1.250 . S
O338 Mg339 2.028 . S
O338 C340 1.248 . S
Mg339 O338 2.028 . S
Mg339 O344 2.032 . S
Mg339 O346 2.079 . S
C340 O337 1.250 . S
C340 O338 1.248 . S
C341 O342 1.264 1_655 S
C341 O349 1.249 . S
O342 C341 1.264 1_455 S
O343 Mg336 1.986 . S
O343 C347 1.246 . S
O344 Mg339 2.032 . S
O344 C347 1.259 . S
O345 Mg336 2.114 . S
O345 C348 1.252 . S
O346 Mg336 2.251 . S
O346 Mg339 2.079 . S
O346 C348 1.273 . S
C347 O343 1.246 . S
C347 O344 1.259 . S
C348 O345 1.252 . S
C348 O346 1.273 . S
O349 Mg336 2.010 . S
O349 C341 1.249 . S
Mg350 O351 2.028 . S
Mg350 O357 1.986 . S
Mg350 O359 2.114 . S
Mg350 O360 2.251 . S
Mg350 O363 2.010 . S
O351 Mg350 2.028 . S
O351 C354 1.250 . S
O352 Mg353 2.028 . S
O352 C354 1.248 . S
Mg353 O352 2.028 . S
Mg353 O358 2.032 . S
Mg353 O360 2.079 . S
C354 O351 1.250 . S
C354 O352 1.248 . S
C355 O356 1.264 . S
C355 O363 1.249 . S
O356 C355 1.264 . S
O357 Mg350 1.986 . S
O357 C361 1.246 . S
O358 Mg353 2.032 . S
O358 C361 1.259 . S
O359 Mg350 2.114 . S
O359 C362 1.252 . S
O360 Mg350 2.251 . S
O360 Mg353 2.079 . S
O360 C362 1.273 . S
C361 O357 1.246 . S
C361 O358 1.259 . S
C362 O359 1.252 . S
C362 O360 1.273 . S
O363 Mg350 2.010 . S
O363 C355 1.249 . S
Mg364 O365 2.028 . S
Mg364 O371 1.986 . S
Mg364 O373 2.114 . S
Mg364 O374 2.251 . S
Mg364 O377 2.010 . S
O365 Mg364 2.028 . S
O365 C368 1.250 . S
O366 Mg367 2.028 . S
O366 C368 1.248 . S
Mg367 O366 2.028 . S
Mg367 O372 2.032 . S
Mg367 O374 2.079 . S
C368 O365 1.250 . S
C368 O366 1.248 . S
C369 O370 1.264 1_455 S
C369 O377 1.249 . S
O370 C369 1.264 1_655 S
O371 Mg364 1.986 . S
O371 C375 1.246 . S
O372 Mg367 2.032 . S
O372 C375 1.259 . S
O373 Mg364 2.114 . S
O373 C376 1.252 . S
O374 Mg364 2.251 . S
O374 Mg367 2.079 . S
O374 C376 1.273 . S
C375 O371 1.246 . S
C375 O372 1.259 . S
C376 O373 1.252 . S
C376 O374 1.273 . S
O377 Mg364 2.010 . S
O377 C369 1.249 . S
Mg378 O379 2.028 . S
Mg378 O385 1.986 . S
Mg378 O387 2.114 . S
Mg378 O388 2.251 . S
Mg378 O391 2.010 . S
O379 Mg378 2.028 . S
O379 C382 1.250 . S
O380 Mg381 2.028 . S
O380 C382 1.248 . S
Mg381 O380 2.028 . S
Mg381 O386 2.032 . S
Mg381 O388 2.079 . S
C382 O379 1.250 . S
C382 O380 1.248 . S
C383 O384 1.264 . S
C383 O391 1.249 . S
O384 C383 1.264 . S
O385 Mg378 1.986 . S
O385 C389 1.246 . S
O386 Mg381 2.032 . S
O386 C389 1.259 . S
O387 Mg378 2.114 . S
O387 C390 1.252 . S
O388 Mg378 2.251 . S
O388 Mg381 2.079 . S
O388 C390 1.273 . S
C389 O385 1.246 . S
C389 O386 1.259 . S
C390 O387 1.252 . S
C390 O388 1.273 . S
O391 Mg378 2.010 . S
O391 C383 1.249 . S
Mg392 O393 2.028 . S
Mg392 O399 1.986 . S
Mg392 O401 2.114 . S
Mg392 O402 2.251 . S
Mg392 O405 2.010 . S
O393 Mg392 2.028 . S
O393 C396 1.250 . S
O394 Mg395 2.028 . S
O394 C396 1.248 . S
Mg395 O394 2.028 . S
Mg395 O400 2.032 . S
Mg395 O402 2.079 . S
C396 O393 1.250 . S
C396 O394 1.248 . S
C397 O398 1.264 1_655 S
C397 O405 1.249 . S
O398 C397 1.264 1_455 S
O399 Mg392 1.986 . S
O399 C403 1.246 . S
O400 Mg395 2.032 . S
O400 C403 1.259 . S
O401 Mg392 2.114 . S
O401 C404 1.252 . S
O402 Mg392 2.251 . S
O402 Mg395 2.079 . S
O402 C404 1.273 . S
C403 O399 1.246 . S
C403 O400 1.259 . S
C404 O401 1.252 . S
C404 O402 1.273 . S
O405 Mg392 2.010 . S
O405 C397 1.249 . S
Mg406 O407 2.028 . S
Mg406 O413 1.986 . S
Mg406 O415 2.114 . S
Mg406 O416 2.251 . S
Mg406 O419 2.010 . S
O407 Mg406 2.028 . S
O407 C410 1.250 . S
O408 Mg409 2.028 . S
O408 C410 1.248 . S
Mg409 O408 2.028 . S
Mg409 O414 2.032 . S
Mg409 O416 2.079 . S
C410 O407 1.250 . S
C410 O408 1.248 . S
C411 O412 1.264 . S
C411 O419 1.249 . S
O412 C411 1.264 . S
O413 Mg406 1.986 . S
O413 C417 1.246 . S
O414 Mg409 2.032 . S
O414 C417 1.259 . S
O415 Mg406 2.114 . S
O415 C418 1.252 . S
O416 Mg406 2.251 . S
O416 Mg409 2.079 . S
O416 C418 1.273 . S
C417 O413 1.246 . S
C417 O414 1.259 . S
C418 O415 1.252 . S
C418 O416 1.273 . S
O419 Mg406 2.010 . S
O419 C411 1.249 . S
Mg420 O421 2.028 . S
Mg420 O427 1.986 . S
Mg420 O429 2.114 . S
Mg420 O430 2.251 . S
Mg420 O433 2.010 . S
O421 Mg420 2.028 . S
O421 C424 1.250 . S
O422 Mg423 2.028 . S
O422 C424 1.248 . S
Mg423 O422 2.028 . S
Mg423 O428 2.032 . S
Mg423 O430 2.079 . S
C424 O421 1.250 . S
C424 O422 1.248 . S
C425 O426 1.264 1_455 S
C425 O433 1.249 . S
O426 C425 1.264 1_655 S
O427 Mg420 1.986 . S
O427 C431 1.246 . S
O428 Mg423 2.032 . S
O428 C431 1.259 . S
O429 Mg420 2.114 . S
O429 C432 1.252 . S
O430 Mg420 2.251 . S
O430 Mg423 2.079 . S
O430 C432 1.273 . S
C431 O427 1.246 . S
C431 O428 1.259 . S
C432 O429 1.252 . S
C432 O430 1.273 . S
O433 Mg420 2.010 . S
O433 C425 1.249 . S
Mg434 O435 2.028 . S
Mg434 O441 1.986 . S
Mg434 O443 2.114 . S
Mg434 O444 2.251 . S
Mg434 O447 2.010 . S
O435 Mg434 2.028 . S
O435 C438 1.250 . S
O436 Mg437 2.028 . S
O436 C438 1.248 . S
Mg437 O436 2.028 . S
Mg437 O442 2.032 . S
Mg437 O444 2.079 . S
C438 O435 1.250 . S
C438 O436 1.248 . S
C439 O440 1.264 . S
C439 O447 1.249 . S
O440 C439 1.264 . S
O441 Mg434 1.986 . S
O441 C445 1.246 . S
O442 Mg437 2.032 . S
O442 C445 1.259 . S
O443 Mg434 2.114 . S
O443 C446 1.252 . S
O444 Mg434 2.251 . S
O444 Mg437 2.079 . S
O444 C446 1.273 . S
C445 O441 1.246 . S
C445 O442 1.259 . S
C446 O443 1.252 . S
C446 O444 1.273 . S
O447 Mg434 2.010 . S
O447 C439 1.249 . S
Mg448 O449 2.028 . S
Mg448 O455 1.986 . S
Mg448 O457 2.114 . S
Mg448 O458 2.251 . S
Mg448 O461 2.010 . S
O449 Mg448 2.028 . S
O449 C452 1.250 . S
O450 Mg451 2.028 . S
O450 C452 1.248 . S
Mg451 O450 2.028 . S
Mg451 O456 2.032 . S
Mg451 O458 2.079 . S
C452 O449 1.250 . S
C452 O450 1.248 . S
C453 O454 1.264 1_565 S
C453 O461 1.249 . S
O454 C453 1.264 1_545 S
O455 Mg448 1.986 . S
O455 C459 1.246 . S
O456 Mg451 2.032 . S
O456 C459 1.259 . S
O457 Mg448 2.114 . S
O457 C460 1.252 . S
O458 Mg448 2.251 . S
O458 Mg451 2.079 . S
O458 C460 1.273 . S
C459 O455 1.246 . S
C459 O456 1.259 . S
C460 O457 1.252 . S
C460 O458 1.273 . S
O461 Mg448 2.010 . S
O461 C453 1.249 . S
Mg462 O463 2.028 . S
Mg462 O469 1.986 . S
Mg462 O471 2.114 . S
Mg462 O472 2.251 . S
Mg462 O475 2.010 . S
O463 Mg462 2.028 . S
O463 C466 1.250 . S
O464 Mg465 2.028 . S
O464 C466 1.248 . S
Mg465 O464 2.028 . S
Mg465 O470 2.032 . S
Mg465 O472 2.079 . S
C466 O463 1.250 . S
C466 O464 1.248 . S
C467 O468 1.264 . S
C467 O475 1.249 . S
O468 C467 1.264 . S
O469 Mg462 1.986 . S
O469 C473 1.246 . S
O470 Mg465 2.032 . S
O470 C473 1.259 . S
O471 Mg462 2.114 . S
O471 C474 1.252 . S
O472 Mg462 2.251 . S
O472 Mg465 2.079 . S
O472 C474 1.273 . S
C473 O469 1.246 . S
C473 O470 1.259 . S
C474 O471 1.252 . S
C474 O472 1.273 . S
O475 Mg462 2.010 . S
O475 C467 1.249 . S
Mg476 O477 2.028 . S
Mg476 O483 1.986 . S
Mg476 O485 2.114 . S
Mg476 O486 2.251 . S
Mg476 O489 2.010 . S
O477 Mg476 2.028 . S
O477 C480 1.250 . S
O478 Mg479 2.028 . S
O478 C480 1.248 . S
Mg479 O478 2.028 . S
Mg479 O484 2.032 . S
Mg479 O486 2.079 . S
C480 O477 1.250 . S
C480 O478 1.248 . S
C481 O482 1.264 1_545 S
C481 O489 1.249 . S
O482 C481 1.264 1_565 S
O483 Mg476 1.986 . S
O483 C487 1.246 . S
O484 Mg479 2.032 . S
O484 C487 1.259 . S
O485 Mg476 2.114 . S
O485 C488 1.252 . S
O486 Mg476 2.251 . S
O486 Mg479 2.079 . S
O486 C488 1.273 . S
C487 O483 1.246 . S
C487 O484 1.259 . S
C488 O485 1.252 . S
C488 O486 1.273 . S
O489 Mg476 2.010 . S
O489 C481 1.249 . S
Mg490 O491 2.028 . S
Mg490 O497 1.986 . S
Mg490 O499 2.114 . S
Mg490 O500 2.251 . S
Mg490 O503 2.010 . S
O491 Mg490 2.028 . S
O491 C494 1.250 . S
O492 Mg493 2.028 . S
O492 C494 1.248 . S
Mg493 O492 2.028 . S
Mg493 O498 2.032 . S
Mg493 O500 2.079 . S
C494 O491 1.250 . S
C494 O492 1.248 . S
C495 O496 1.264 . S
C495 O503 1.249 . S
O496 C495 1.264 . S
O497 Mg490 1.986 . S
O497 C501 1.246 . S
O498 Mg493 2.032 . S
O498 C501 1.259 . S
O499 Mg490 2.114 . S
O499 C502 1.252 . S
O500 Mg490 2.251 . S
O500 Mg493 2.079 . S
O500 C502 1.273 . S
C501 O497 1.246 . S
C501 O498 1.259 . S
C502 O499 1.252 . S
C502 O500 1.273 . S
O503 Mg490 2.010 . S
O503 C495 1.249 . S
Mg504 O505 2.028 . S
Mg504 O511 1.986 . S
Mg504 O513 2.114 . S
Mg504 O514 2.251 . S
Mg504 O517 2.010 . S
O505 Mg504 2.028 . S
O505 C508 1.250 . S
O506 Mg507 2.028 . S
O506 C508 1.248 . S
Mg507 O506 2.028 . S
Mg507 O512 2.032 . S
Mg507 O514 2.079 . S
C508 O505 1.250 . S
C508 O506 1.248 . S
C509 O510 1.264 1_545 S
C509 O517 1.249 . S
O510 C509 1.264 1_565 S
O511 Mg504 1.986 . S
O511 C515 1.246 . S
O512 Mg507 2.032 . S
O512 C515 1.259 . S
O513 Mg504 2.114 . S
O513 C516 1.252 . S
O514 Mg504 2.251 . S
O514 Mg507 2.079 . S
O514 C516 1.273 . S
C515 O511 1.246 . S
C515 O512 1.259 . S
C516 O513 1.252 . S
C516 O514 1.273 . S
O517 Mg504 2.010 . S
O517 C509 1.249 . S
Mg518 O519 2.028 . S
Mg518 O525 1.986 . S
Mg518 O527 2.114 . S
Mg518 O528 2.251 . S
Mg518 O531 2.010 . S
O519 Mg518 2.028 . S
O519 C522 1.250 . S
O520 Mg521 2.028 . S
O520 C522 1.248 . S
Mg521 O520 2.028 . S
Mg521 O526 2.032 . S
Mg521 O528 2.079 . S
C522 O519 1.250 . S
C522 O520 1.248 . S
C523 O524 1.264 . S
C523 O531 1.249 . S
O524 C523 1.264 . S
O525 Mg518 1.986 . S
O525 C529 1.246 . S
O526 Mg521 2.032 . S
O526 C529 1.259 . S
O527 Mg518 2.114 . S
O527 C530 1.252 . S
O528 Mg518 2.251 . S
O528 Mg521 2.079 . S
O528 C530 1.273 . S
C529 O525 1.246 . S
C529 O526 1.259 . S
C530 O527 1.252 . S
C530 O528 1.273 . S
O531 Mg518 2.010 . S
O531 C523 1.249 . S
Mg532 O533 2.028 . S
Mg532 O539 1.986 . S
Mg532 O541 2.114 . S
Mg532 O542 2.251 . S
Mg532 O545 2.010 . S
O533 Mg532 2.028 . S
O533 C536 1.250 . S
O534 Mg535 2.028 . S
O534 C536 1.248 . S
Mg535 O534 2.028 . S
Mg535 O540 2.032 . S
Mg535 O542 2.079 . S
C536 O533 1.250 . S
C536 O534 1.248 . S
C537 O538 1.264 1_565 S
C537 O545 1.249 . S
O538 C537 1.264 1_545 S
O539 Mg532 1.986 . S
O539 C543 1.246 . S
O540 Mg535 2.032 . S
O540 C543 1.259 . S
O541 Mg532 2.114 . S
O541 C544 1.252 . S
O542 Mg532 2.251 . S
O542 Mg535 2.079 . S
O542 C544 1.273 . S
C543 O539 1.246 . S
C543 O540 1.259 . S
C544 O541 1.252 . S
C544 O542 1.273 . S
O545 Mg532 2.010 . S
O545 C537 1.249 . S
Mg546 O547 2.028 . S
Mg546 O553 1.986 . S
Mg546 O555 2.114 . S
Mg546 O556 2.251 . S
Mg546 O559 2.010 . S
O547 Mg546 2.028 . S
O547 C550 1.250 . S
O548 Mg549 2.028 . S
O548 C550 1.248 . S
Mg549 O548 2.028 . S
Mg549 O554 2.032 . S
Mg549 O556 2.079 . S
C550 O547 1.250 . S
C550 O548 1.248 . S
C551 O552 1.264 . S
C551 O559 1.249 . S
O552 C551 1.264 . S
O553 Mg546 1.986 . S
O553 C557 1.246 . S
O554 Mg549 2.032 . S
O554 C557 1.259 . S
O555 Mg546 2.114 . S
O555 C558 1.252 . S
O556 Mg546 2.251 . S
O556 Mg549 2.079 . S
O556 C558 1.273 . S
C557 O553 1.246 . S
C557 O554 1.259 . S
C558 O555 1.252 . S
C558 O556 1.273 . S
O559 Mg546 2.010 . S
O559 C551 1.249 . S
Mg560 O561 2.028 . S
Mg560 O567 1.986 . S
Mg560 O569 2.114 . S
Mg560 O570 2.251 . S
Mg560 O573 2.010 . S
O561 Mg560 2.028 . S
O561 C564 1.250 . S
O562 Mg563 2.028 . S
O562 C564 1.248 . S
Mg563 O562 2.028 . S
Mg563 O568 2.032 . S
Mg563 O570 2.079 . S
C564 O561 1.250 . S
C564 O562 1.248 . S
C565 O566 1.264 1_556 S
C565 O573 1.249 . S
O566 C565 1.264 1_554 S
O567 Mg560 1.986 . S
O567 C571 1.246 . S
O568 Mg563 2.032 . S
O568 C571 1.259 . S
O569 Mg560 2.114 . S
O569 C572 1.252 . S
O570 Mg560 2.251 . S
O570 Mg563 2.079 . S
O570 C572 1.273 . S
C571 O567 1.246 . S
C571 O568 1.259 . S
C572 O569 1.252 . S
C572 O570 1.273 . S
O573 Mg560 2.010 . S
O573 C565 1.249 . S
Mg574 O575 2.028 . S
Mg574 O581 1.986 . S
Mg574 O583 2.114 . S
Mg574 O584 2.251 . S
Mg574 O587 2.010 . S
O575 Mg574 2.028 . S
O575 C578 1.250 . S
O576 Mg577 2.028 . S
O576 C578 1.248 . S
Mg577 O576 2.028 . S
Mg577 O582 2.032 . S
Mg577 O584 2.079 . S
C578 O575 1.250 . S
C578 O576 1.248 . S
C579 O580 1.264 1_554 S
C579 O587 1.249 . S
O580 C579 1.264 1_556 S
O581 Mg574 1.986 . S
O581 C585 1.246 . S
O582 Mg577 2.032 . S
O582 C585 1.259 . S
O583 Mg574 2.114 . S
O583 C586 1.252 . S
O584 Mg574 2.251 . S
O584 Mg577 2.079 . S
O584 C586 1.273 . S
C585 O581 1.246 . S
C585 O582 1.259 . S
C586 O583 1.252 . S
C586 O584 1.273 . S
O587 Mg574 2.010 . S
O587 C579 1.249 . S
Mg588 O589 2.028 . S
Mg588 O595 1.986 . S
Mg588 O597 2.114 . S
Mg588 O598 2.251 . S
Mg588 O601 2.010 . S
O589 Mg588 2.028 . S
O589 C592 1.250 . S
O590 Mg591 2.028 . S
O590 C592 1.248 . S
Mg591 O590 2.028 . S
Mg591 O596 2.032 . S
Mg591 O598 2.079 . S
C592 O589 1.250 . S
C592 O590 1.248 . S
C593 O594 1.264 . S
C593 O601 1.249 . S
O594 C593 1.264 . S
O595 Mg588 1.986 . S
O595 C599 1.246 . S
O596 Mg591 2.032 . S
O596 C599 1.259 . S
O597 Mg588 2.114 . S
O597 C600 1.252 . S
O598 Mg588 2.251 . S
O598 Mg591 2.079 . S
O598 C600 1.273 . S
C599 O595 1.246 . S
C599 O596 1.259 . S
C600 O597 1.252 . S
C600 O598 1.273 . S
O601 Mg588 2.010 . S
O601 C593 1.249 . S
Mg602 O603 2.028 . S
Mg602 O609 1.986 . S
Mg602 O611 2.114 . S
Mg602 O612 2.251 . S
Mg602 O615 2.010 . S
O603 Mg602 2.028 . S
O603 C606 1.250 . S
O604 Mg605 2.028 . S
O604 C606 1.248 . S
Mg605 O604 2.028 . S
Mg605 O610 2.032 . S
Mg605 O612 2.079 . S
C606 O603 1.250 . S
C606 O604 1.248 . S
C607 O608 1.264 1_554 S
C607 O615 1.249 . S
O608 C607 1.264 1_556 S
O609 Mg602 1.986 . S
O609 C613 1.246 . S
O610 Mg605 2.032 . S
O610 C613 1.259 . S
O611 Mg602 2.114 . S
O611 C614 1.252 . S
O612 Mg602 2.251 . S
O612 Mg605 2.079 . S
O612 C614 1.273 . S
C613 O609 1.246 . S
C613 O610 1.259 . S
C614 O611 1.252 . S
C614 O612 1.273 . S
O615 Mg602 2.010 . S
O615 C607 1.249 . S
Mg616 O617 2.028 . S
Mg616 O623 1.986 . S
Mg616 O625 2.114 . S
Mg616 O626 2.251 . S
Mg616 O629 2.010 . S
O617 Mg616 2.028 . S
O617 C620 1.250 . S
O618 Mg619 2.028 . S
O618 C620 1.248 . S
Mg619 O618 2.028 . S
Mg619 O624 2.032 . S
Mg619 O626 2.079 . S
C620 O617 1.250 . S
C620 O618 1.248 . S
C621 O622 1.264 . S
C621 O629 1.249 . S
O622 C621 1.264 . S
O623 Mg616 1.986 . S
O623 C627 1.246 . S
O624 Mg619 2.032 . S
O624 C627 1.259 . S
O625 Mg616 2.114 . S
O625 C628 1.252 . S
O626 Mg616 2.251 . S
O626 Mg619 2.079 . S
O626 C628 1.273 . S
C627 O623 1.246 . S
C627 O624 1.259 . S
C628 O625 1.252 . S
C628 O626 1.273 . S
O629 Mg616 2.010 . S
O629 C621 1.249 . S
Mg630 O631 2.028 . S
Mg630 O637 1.986 . S
Mg630 O639 2.114 . S
Mg630 O640 2.251 . S
Mg630 O643 2.010 . S
O631 Mg630 2.028 . S
O631 C634 1.250 . S
O632 Mg633 2.028 . S
O632 C634 1.248 . S
Mg633 O632 2.028 . S
Mg633 O638 2.032 . S
Mg633 O640 2.079 . S
C634 O631 1.250 . S
C634 O632 1.248 . S
C635 O636 1.264 1_556 S
C635 O643 1.249 . S
O636 C635 1.264 1_554 S
O637 Mg630 1.986 . S
O637 C641 1.246 . S
O638 Mg633 2.032 . S
O638 C641 1.259 . S
O639 Mg630 2.114 . S
O639 C642 1.252 . S
O640 Mg630 2.251 . S
O640 Mg633 2.079 . S
O640 C642 1.273 . S
C641 O637 1.246 . S
C641 O638 1.259 . S
C642 O639 1.252 . S
C642 O640 1.273 . S
O643 Mg630 2.010 . S
O643 C635 1.249 . S
Mg644 O645 2.028 . S
Mg644 O651 1.986 . S
Mg644 O653 2.114 . S
Mg644 O654 2.251 . S
Mg644 O657 2.010 . S
O645 Mg644 2.028 . S
O645 C648 1.250 . S
O646 Mg647 2.028 . S
O646 C648 1.248 . S
Mg647 O646 2.028 . S
Mg647 O652 2.032 . S
Mg647 O654 2.079 . S
C648 O645 1.250 . S
C648 O646 1.248 . S
C649 O650 1.264 . S
C649 O657 1.249 . S
O650 C649 1.264 . S
O651 Mg644 1.986 . S
O651 C655 1.246 . S
O652 Mg647 2.032 . S
O652 C655 1.259 . S
O653 Mg644 2.114 . S
O653 C656 1.252 . S
O654 Mg644 2.251 . S
O654 Mg647 2.079 . S
O654 C656 1.273 . S
C655 O651 1.246 . S
C655 O652 1.259 . S
C656 O653 1.252 . S
C656 O654 1.273 . S
O657 Mg644 2.010 . S
O657 C649 1.249 . S
Mg658 O659 2.028 . S
Mg658 O665 1.986 . S
Mg658 O667 2.114 . S
Mg658 O668 2.251 . S
Mg658 O671 2.010 . S
O659 Mg658 2.028 . S
O659 C662 1.250 . S
O660 Mg661 2.028 . S
O660 C662 1.248 . S
Mg661 O660 2.028 . S
Mg661 O666 2.032 . S
Mg661 O668 2.079 . S
C662 O659 1.250 . S
C662 O660 1.248 . S
C663 O664 1.264 . S
C663 O671 1.249 . S
O664 C663 1.264 . S
O665 Mg658 1.986 . S
O665 C669 1.246 . S
O666 Mg661 2.032 . S
O666 C669 1.259 . S
O667 Mg658 2.114 . S
O667 C670 1.252 . S
O668 Mg658 2.251 . S
O668 Mg661 2.079 . S
O668 C670 1.273 . S
C669 O665 1.246 . S
C669 O666 1.259 . S
C670 O667 1.252 . S
C670 O668 1.273 . S
O671 Mg658 2.010 . S
O671 C663 1.249 . S
C397 C5 0.668 1_655 S
C19 C411 0.668 . S
C425 C33 0.668 1_455 S
C47 C439 0.668 . S
C341 C61 0.668 1_655 S
C75 C355 0.668 . S
C369 C89 0.668 1_455 S
C103 C383 0.668 . S
C537 C117 0.668 1_565 S
C551 C131 0.668 . S
C509 C145 0.668 1_545 S
C159 C523 0.668 . S
C481 C173 0.668 1_545 S
C495 C187 0.668 . S
C201 C453 0.668 1_545 S
C467 C215 0.668 . S
C229 C635 0.668 1_554 S
C607 C243 0.668 1_554 S
C621 C257 0.668 . S
C579 C271 0.668 1_554 S
C593 C285 0.668 . S
C299 C565 0.668 1_554 S
C313 C663 0.668 . S
C649 C327 0.668 . S
C109 C11 1.481 . S
C67 C25 1.481 . S
C81 C39 1.481 . S
C95 C53 1.481 . S
C291 C123 1.481 . S
C249 C137 1.481 . S
C263 C151 1.481 . S
C277 C165 1.481 . S
C333 C179 1.481 . S
C305 C193 1.481 . S
C207 C319 1.481 . S
C235 C221 1.481 . S
C445 C347 1.481 . S
C403 C361 1.481 . S
C375 C417 1.481 . S
C389 C431 1.481 . S
C459 C627 1.481 . S
C473 C585 1.481 . S
C599 C487 1.481 . S
C613 C501 1.481 . S
C669 C515 1.481 . S
C641 C529 1.481 . S
C655 C543 1.481 . S
C557 C571 1.481 . S
C4 C124 1.659 . S
C138 C18 1.659 . S
C152 C32 1.659 . S
C166 C46 1.659 . S
C60 C180 1.659 . S
C194 C74 1.659 . S
C88 C208 1.659 . S
C222 C102 1.659 . S
C236 C116 1.659 . S
C334 C130 1.659 . S
C144 C306 1.659 . S
C158 C320 1.659 . S
C172 C250 1.659 . S
C186 C264 1.659 . S
C200 C278 1.659 . S
C214 C292 1.659 . S
C228 C12 1.659 . S
C242 C68 1.659 . S
C256 C82 1.659 . S
C270 C96 1.659 . S
C284 C110 1.659 . S
C298 C40 1.659 . S
C54 C312 1.659 . S
C26 C326 1.659 . S
C460 C340 1.659 . S
C474 C354 1.659 . S
C488 C368 1.659 . S
C502 C382 1.659 . S
C516 C396 1.659 . S
C410 C530 1.659 . S
C544 C424 1.659 . S
C438 C558 1.659 . S
C572 C452 1.659 . S
C466 C670 1.659 . S
C480 C642 1.659 . S
C656 C494 1.659 . S
C586 C508 1.659 . S
C522 C600 1.659 . S
C536 C614 1.659 . S
C628 C550 1.659 . S
C348 C564 1.659 . S
C404 C578 1.659 . S
C418 C592 1.659 . S
C606 C432 1.659 . S
C446 C620 1.659 . S
C376 C634 1.659 . S
C648 C390 1.659 . S
C362 C662 1.659 . S
