# Generated by pormake.
# Topology unb, (4)-cn, num edge types: 1
# Building blocks:
#     Node 0, Type 0, BuildingBlock: TATPOV_clean_sbu_0, # of connection points: 4
#     Node 1, Type 0, BuildingBlock: TATPOV_clean_sbu_0, # of connection points: 4
#     Node 2, Type 0, BuildingBlock: TATPOV_clean_sbu_0, # of connection points: 4
#     Node 3, Type 0, BuildingBlock: TATPOV_clean_sbu_0, # of connection points: 4
#     Node 4, Type 0, BuildingBlock: TATPOV_clean_sbu_0, # of connection points: 4
#     Node 5, Type 0, BuildingBlock: TATPOV_clean_sbu_0, # of connection points: 4
#     Node 6, Type 0, BuildingBlock: TATPOV_clean_sbu_0, # of connection points: 4
#     Node 7, Type 0, BuildingBlock: TATPOV_clean_sbu_0, # of connection points: 4
#     Node 8, Type 0, BuildingBlock: TATPOV_clean_sbu_0, # of connection points: 4
#     Node 9, Type 0, BuildingBlock: TATPOV_clean_sbu_0, # of connection points: 4
#     Node 10, Type 0, BuildingBlock: TATPOV_clean_sbu_0, # of connection points: 4
#     Node 11, Type 0, BuildingBlock: TATPOV_clean_sbu_0, # of connection points: 4
#     Node 12, Type 0, BuildingBlock: TATPOV_clean_sbu_0, # of connection points: 4
#     Node 13, Type 0, BuildingBlock: TATPOV_clean_sbu_0, # of connection points: 4
#     Node 14, Type 0, BuildingBlock: TATPOV_clean_sbu_0, # of connection points: 4
#     Node 15, Type 0, BuildingBlock: TATPOV_clean_sbu_0, # of connection points: 4
#     Node 16, Type 0, BuildingBlock: TATPOV_clean_sbu_0, # of connection points: 4
#     Node 17, Type 0, BuildingBlock: TATPOV_clean_sbu_0, # of connection points: 4
#     Edge 18, Type (0, 0), BuildingBlock: CIFDUS_clean_linker_0, # of connection points: 2
#     Edge 19, Type (0, 0), BuildingBlock: CIFDUS_clean_linker_0, # of connection points: 2
#     Edge 20, Type (0, 0), BuildingBlock: CIFDUS_clean_linker_0, # of connection points: 2
#     Edge 21, Type (0, 0), BuildingBlock: CIFDUS_clean_linker_0, # of connection points: 2
#     Edge 22, Type (0, 0), BuildingBlock: CIFDUS_clean_linker_0, # of connection points: 2
#     Edge 23, Type (0, 0), BuildingBlock: CIFDUS_clean_linker_0, # of connection points: 2
#     Edge 24, Type (0, 0), BuildingBlock: CIFDUS_clean_linker_0, # of connection points: 2
#     Edge 25, Type (0, 0), BuildingBlock: CIFDUS_clean_linker_0, # of connection points: 2
#     Edge 26, Type (0, 0), BuildingBlock: CIFDUS_clean_linker_0, # of connection points: 2
#     Edge 27, Type (0, 0), BuildingBlock: CIFDUS_clean_linker_0, # of connection points: 2
#     Edge 28, Type (0, 0), BuildingBlock: CIFDUS_clean_linker_0, # of connection points: 2
#     Edge 29, Type (0, 0), BuildingBlock: CIFDUS_clean_linker_0, # of connection points: 2
#     Edge 30, Type (0, 0), BuildingBlock: CIFDUS_clean_linker_0, # of connection points: 2
#     Edge 31, Type (0, 0), BuildingBlock: CIFDUS_clean_linker_0, # of connection points: 2
#     Edge 32, Type (0, 0), BuildingBlock: CIFDUS_clean_linker_0, # of connection points: 2
#     Edge 33, Type (0, 0), BuildingBlock: CIFDUS_clean_linker_0, # of connection points: 2
#     Edge 34, Type (0, 0), BuildingBlock: CIFDUS_clean_linker_0, # of connection points: 2
#     Edge 35, Type (0, 0), BuildingBlock: CIFDUS_clean_linker_0, # of connection points: 2
#     Edge 36, Type (0, 0), BuildingBlock: CIFDUS_clean_linker_0, # of connection points: 2
#     Edge 37, Type (0, 0), BuildingBlock: CIFDUS_clean_linker_0, # of connection points: 2
#     Edge 38, Type (0, 0), BuildingBlock: CIFDUS_clean_linker_0, # of connection points: 2
#     Edge 39, Type (0, 0), BuildingBlock: CIFDUS_clean_linker_0, # of connection points: 2
#     Edge 40, Type (0, 0), BuildingBlock: CIFDUS_clean_linker_0, # of connection points: 2
#     Edge 41, Type (0, 0), BuildingBlock: CIFDUS_clean_linker_0, # of connection points: 2
#     Edge 42, Type (0, 0), BuildingBlock: CIFDUS_clean_linker_0, # of connection points: 2
#     Edge 43, Type (0, 0), BuildingBlock: CIFDUS_clean_linker_0, # of connection points: 2
#     Edge 44, Type (0, 0), BuildingBlock: CIFDUS_clean_linker_0, # of connection points: 2
#     Edge 45, Type (0, 0), BuildingBlock: CIFDUS_clean_linker_0, # of connection points: 2
#     Edge 46, Type (0, 0), BuildingBlock: CIFDUS_clean_linker_0, # of connection points: 2
#     Edge 47, Type (0, 0), BuildingBlock: CIFDUS_clean_linker_0, # of connection points: 2
#     Edge 48, Type (0, 0), BuildingBlock: CIFDUS_clean_linker_0, # of connection points: 2
#     Edge 49, Type (0, 0), BuildingBlock: CIFDUS_clean_linker_0, # of connection points: 2
#     Edge 50, Type (0, 0), BuildingBlock: CIFDUS_clean_linker_0, # of connection points: 2
#     Edge 51, Type (0, 0), BuildingBlock: CIFDUS_clean_linker_0, # of connection points: 2
#     Edge 52, Type (0, 0), BuildingBlock: CIFDUS_clean_linker_0, # of connection points: 2
#     Edge 53, Type (0, 0), BuildingBlock: CIFDUS_clean_linker_0, # of connection points: 2
# Relax obj value: 0.019
# Max RMSD: 0.033
# Mean RMSD: 0.033
data_MOF--net-unb--node1-TATPOV_clean_sbu_0--edge1-CIFDUS_clean_linker_0
_symmetry_space_group_name_H-M    P1
_symmetry_Int_Tables_number       1
_symmetry_cell_setting            triclinic
loop_
_symmetry_equiv_pos_as_xyz
'x, y, z'
_cell_length_a     59.329065
_cell_length_b     59.063334
_cell_length_c     21.309991
_cell_angle_alpha  90.152742
_cell_angle_beta   89.70656
_cell_angle_gamma 120.31068
loop_
_atom_site_label
_atom_site_type_symbol
_atom_site_fract_x
_atom_site_fract_y
_atom_site_fract_z
_atom_type_partial_charge
Zn0 Zn 0.08755 0.21461 0.04651 0.0
Zn1 Zn 0.10404 0.2363 0.14177 0.0
O2 O 0.06827 0.23542 0.12466 0.0
O3 O 0.06647 0.23024 0.02263 0.0
O4 O 0.11759 0.25408 0.22821 0.0
O5 O 0.06991 0.17803 0.07949 0.0
O6 O 0.10324 0.2003 0.14144 0.0
C7 C 0.05776 0.235 0.07187 0.0
C8 C 0.13873 0.25167 0.02902 0.0
O9 O 0.13333 0.25969 0.07949 0.0
O10 O 0.12259 0.22934 1.00746 0.0
C11 C 0.12495 0.27831 0.23563 0.0
O12 O 0.12303 0.29126 0.18788 0.0
C13 C 0.08686 0.17854 0.11582 0.0
Zn14 Zn 0.78379 0.88662 0.99533 0.0
Zn15 Zn 0.76187 0.88047 0.08854 0.0
O16 O 0.77898 0.85639 0.08427 0.0
O17 O 0.81269 0.88238 0.0262 0.0
O18 O 0.74132 0.874 0.17226 0.0
O19 O 0.79037 0.92213 0.97759 0.0
O20 O 0.78676 0.92144 0.08018 0.0
C21 C 0.80056 0.86162 0.058 0.0
C22 C 0.73377 0.85707 0.96872 0.0
O23 O 0.73407 0.86877 0.01937 0.0
O24 O 0.75392 0.85648 0.95224 0.0
C25 C 0.7189 0.85362 0.18053 0.0
O26 O 0.70949 0.83582 0.13595 0.0
C27 C 0.79352 0.93428 0.02848 0.0
Zn28 Zn 0.08405 0.81771 0.93569 0.0
Zn29 Zn 0.10022 0.81333 0.04161 0.0
O30 O 0.11276 0.85353 0.0318 0.0
O31 O 0.10085 0.85613 0.93565 0.0
O32 O 0.11546 0.81065 0.12697 0.0
O33 O 0.0473 0.79554 0.95488 0.0
O34 O 0.05914 0.78804 0.04681 0.0
C35 C 0.11222 0.86726 0.98595 0.0
C36 C 0.11544 0.7969 0.91786 0.0
O37 O 0.1185 0.8014 0.97674 0.0
O38 O 0.09992 0.80144 0.88775 0.0
C39 C 0.1254 0.79614 0.13669 0.0
O40 O 0.12519 0.78104 0.09108 0.0
C41 C 0.04134 0.78358 1.00666 0.0
Zn42 Zn 0.1535 0.05755 0.02018 0.0
Zn43 Zn 0.18004 0.0767 0.92304 0.0
O44 O 0.16537 0.03562 0.91648 0.0
O45 O 0.1461 0.02191 1.00841 0.0
O46 O 0.20084 0.09388 0.84106 0.0
O47 O 0.12646 0.06693 1.0084 0.0
O48 O 0.15552 0.09264 0.93873 0.0
C49 C 0.15365 0.01727 0.95711 0.0
C50 C 0.20573 0.09281 0.04992 0.0
O51 O 0.20817 0.09241 0.99055 0.0
O52 O 0.18341 0.08031 0.07514 0.0
C53 C 0.22305 0.09583 0.83187 0.0
O54 O 0.23153 0.0856 0.87371 0.0
C55 C 0.13538 0.08665 0.97279 0.0
Zn56 Zn 0.87159 0.12912 0.02123 0.0
Zn57 Zn 0.86019 0.13772 0.9222 0.0
O58 O 0.89998 0.16696 0.93587 0.0
O59 O 0.90214 0.16356 0.03783 0.0
O60 O 0.8486 0.14554 0.83764 0.0
O61 O 0.87617 0.0995 0.99867 0.0
O62 O 0.85155 0.09834 0.92078 0.0
C63 C 0.91247 0.17562 0.98754 0.0
C64 C 0.82751 0.13066 0.03877 0.0
O65 O 0.83498 0.14091 0.98448 0.0
O66 O 0.83902 0.12024 0.06502 0.0
C67 C 0.86358 0.1562 0.79054 0.0
O68 O 0.88797 0.16182 0.79416 0.0
C69 C 0.86061 0.08692 0.9548 0.0
Zn70 Zn 0.85441 0.73332 1.0051 0.0
Zn71 Zn 0.84007 0.71201 0.90566 0.0
O72 O 0.83533 0.74507 0.90454 0.0
O73 O 0.86421 0.76882 0.97613 0.0
O74 O 0.82997 0.69335 0.8193 0.0
O75 O 0.8823 0.72567 0.02366 0.0
O76 O 0.87807 0.71867 0.92208 0.0
C77 C 0.84834 0.76673 0.93428 0.0
C78 C 0.80618 0.68964 0.02035 0.0
O79 O 0.81286 0.68516 0.96683 0.0
O80 O 0.81989 0.71177 0.04587 0.0
C81 C 0.80653 0.67656 0.80414 0.0
O82 O 0.78756 0.67212 0.84333 0.0
C83 C 0.89089 0.72195 0.9728 0.0
Zn84 Zn 0.75011 0.53405 0.28745 0.0
Zn85 Zn 0.75758 0.55634 0.39189 0.0
O86 O 0.71859 0.52504 0.39289 0.0
O87 O 0.71689 0.50268 0.30829 0.0
O88 O 0.76575 0.5755 0.47744 0.0
O89 O 0.78257 0.53304 0.28171 0.0
O90 O 0.78755 0.5474 0.37889 0.0
C91 C 0.70582 0.50552 0.35591 0.0
C92 C 0.75382 0.58276 0.27343 0.0
O93 O 0.7601 0.58463 0.33114 0.0
O94 O 0.74757 0.56193 0.24359 0.0
C95 C 0.74945 0.58009 0.50555 0.0
O96 O 0.72619 0.571 0.48092 0.0
C97 C 0.79541 0.53951 0.33207 0.0
Zn98 Zn 0.36429 0.21104 0.32765 0.0
Zn99 Zn 0.34223 0.19594 0.43099 0.0
O100 O 0.37028 0.18387 0.42713 0.0
O101 O 0.39021 0.20033 0.33704 0.0
O102 O 0.3221 0.18096 0.51482 0.0
O103 O 0.37349 0.24736 0.33552 0.0
O104 O 0.35765 0.23732 0.43157 0.0
C105 C 0.38747 0.18714 0.38584 0.0
C106 C 0.31354 0.17486 0.30486 0.0
O107 O 0.3129 0.17578 0.36469 0.0
O108 O 0.33466 0.18883 0.27583 0.0
C109 C 0.29974 0.17874 0.5234 0.0
O110 O 0.29066 0.18765 0.47973 0.0
C111 C 0.36863 0.25425 0.38749 0.0
Zn112 Zn 0.75517 0.21731 0.32008 0.0
Zn113 Zn 0.76588 0.2028 0.42161 0.0
O114 O 0.79318 0.24326 0.41304 0.0
O115 O 0.78448 0.25344 0.32049 0.0
O116 O 0.77573 0.19177 0.5043 0.0
O117 O 0.71975 0.2083 0.34328 0.0
O118 O 0.72577 0.1905 0.42765 0.0
C119 C 0.79853 0.25994 0.36893 0.0
C120 C 0.7666 0.17795 0.29597 0.0
O121 O 0.77146 0.18067 0.35466 0.0
O122 O 0.75839 0.19142 0.26924 0.0
C123 C 0.79767 0.19273 0.50826 0.0
O124 O 0.81344 0.20114 0.45948 0.0
C125 C 0.71072 0.19437 0.39192 0.0
Zn126 Zn 0.90964 0.45923 0.38153 0.0
Zn127 Zn 0.93275 0.46849 0.27777 0.0
O128 O 0.91059 0.42709 0.28509 0.0
O129 O 0.89371 0.42116 0.38003 0.0
O130 O 0.95402 0.4756 0.19525 0.0
O131 O 0.88982 0.47621 0.36094 0.0
O132 O 0.9104 0.48718 0.26988 0.0
C133 C 0.89702 0.41176 0.32996 0.0
C134 C 0.9615 0.48915 0.40493 0.0
O135 O 0.96201 0.48625 0.34558 0.0
O136 O 0.93998 0.47913 0.43363 0.0
C137 C 0.97506 0.49742 0.18613 0.0
O138 O 0.98225 0.51589 0.22877 0.0
C139 C 0.89452 0.48817 0.30929 0.0
Zn140 Zn 0.51409 0.43852 0.37359 0.0
Zn141 Zn 0.50845 0.45306 0.27157 0.0
O142 O 0.54448 0.45384 0.26827 0.0
O143 O 0.54108 0.4302 0.35127 0.0
O144 O 0.50235 0.46547 0.18554 0.0
O145 O 0.47833 0.41027 0.38939 0.0
O146 O 0.47438 0.4162 0.28922 0.0
C147 C 0.55386 0.44315 0.30388 0.0
C148 C 0.52139 0.4879 0.38683 0.0
O149 O 0.51208 0.48234 0.33145 0.0
O150 O 0.52634 0.4723 0.41561 0.0
C151 C 0.51582 0.4894 0.16812 0.0
O152 O 0.53505 0.50599 0.20411 0.0
C153 C 0.46494 0.40299 0.33992 0.0
Zn154 Zn 0.51028 0.1129 0.41838 0.0
Zn155 Zn 0.49875 0.08746 0.31708 0.0
O156 O 0.4796 0.10945 0.31299 0.0
O157 O 0.49449 0.1339 0.39802 0.0
O158 O 0.49066 0.06572 0.23493 0.0
O159 O 0.54796 0.12745 0.41602 0.0
O160 O 0.54002 0.1085 0.32319 0.0
C161 C 0.48016 0.12687 0.35005 0.0
C162 C 0.4787 0.06014 0.44425 0.0
O163 O 0.48115 0.05859 0.38509 0.0
O164 O 0.4894 0.08222 0.47086 0.0
C165 C 0.46803 0.05453 0.21021 0.0
O166 O 0.44986 0.05794 0.23635 0.0
C167 C 0.55616 0.12243 0.36623 0.0
Zn168 Zn 0.44448 0.90947 0.71677 0.0
Zn169 Zn 0.45195 0.92874 0.81381 0.0
O170 O 0.41301 0.89738 0.80892 0.0
O171 O 0.41972 0.87295 0.74318 0.0
O172 O 0.45903 0.94697 0.90078 0.0
O173 O 0.48022 0.91919 0.69313 0.0
O174 O 0.48176 0.91948 0.79586 0.0
C175 C 0.40415 0.87595 0.77797 0.0
C176 C 0.44161 0.9529 0.7029 0.0
O177 O 0.45449 0.95719 0.75361 0.0
O178 O 0.43014 0.93015 0.67962 0.0
C179 C 0.44743 0.95938 0.91689 0.0
O180 O 0.42966 0.95871 0.87914 0.0
C181 C 0.4916 0.91883 0.74254 0.0
Zn182 Zn 0.11729 0.53432 0.68336 0.0
Zn183 Zn 0.09538 0.52725 0.78116 0.0
O184 O 0.10429 0.49661 0.77342 0.0
O185 O 0.11327 0.49971 0.67264 0.0
O186 O 0.07565 0.52173 0.86539 0.0
O187 O 0.15138 0.56452 0.70518 0.0
O188 O 0.12627 0.56682 0.77774 0.0
C189 C 0.10894 0.48739 0.72359 0.0
C190 C 0.07112 0.53156 0.6601 0.0
O191 O 0.06775 0.52291 0.71621 0.0
O192 O 0.09336 0.54133 0.63478 0.0
C193 C 0.05376 0.50063 0.87302 0.0
O194 O 0.04549 0.48291 0.82823 0.0
C195 C 0.14732 0.57792 0.74501 0.0
Zn196 Zn 0.45575 0.5786 0.66633 0.0
Zn197 Zn 0.46937 0.56726 0.76596 0.0
O198 O 0.4864 0.6086 0.76687 0.0
O199 O 0.46563 0.61445 0.68901 0.0
O200 O 0.47769 0.55498 0.84932 0.0
O201 O 0.4191 0.5508 0.66314 0.0
O202 O 0.42842 0.54311 0.75769 0.0
C203 C 0.48234 0.62391 0.73225 0.0
C204 C 0.49265 0.56377 0.64171 0.0
O205 O 0.48902 0.55812 0.7 0.0
O206 O 0.48121 0.57434 0.61564 0.0
C207 C 0.50043 0.56591 0.87334 0.0
O208 O 0.51931 0.58686 0.84588 0.0
C209 C 0.41189 0.53794 0.7136 0.0
Zn210 Zn 0.58772 0.82437 0.69391 0.0
Zn211 Zn 0.6057 0.82981 0.5964 0.0
O212 O 0.57991 0.78906 0.60702 0.0
O213 O 0.58006 0.78828 0.70993 0.0
O214 O 0.62424 0.83541 0.50995 0.0
O215 O 0.55889 0.83003 0.6744 0.0
O216 O 0.58808 0.85358 0.6028 0.0
C217 C 0.57413 0.77605 0.65848 0.0
C218 C 0.63803 0.85407 0.71171 0.0
O219 O 0.63599 0.84212 0.66025 0.0
O220 O 0.61836 0.85418 0.73379 0.0
C221 C 0.6463 0.85606 0.50015 0.0
O222 O 0.65583 0.87411 0.54413 0.0
C223 C 0.56828 0.84904 0.63658 0.0
Zn224 Zn 0.24165 0.78088 0.69582 0.0
Zn225 Zn 0.22058 0.76908 0.5441 0.0
O226 O 0.26064 0.79402 0.55267 0.0
O227 O 0.25241 0.81101 0.63279 0.0
O228 O 0.20751 0.76943 0.45426 0.0
O229 O 0.22378 0.74156 0.67148 0.0
O230 O 0.21307 0.73281 0.5704 0.0
C231 C 0.26921 0.81075 0.59686 0.0
C232 C 0.20231 0.79031 0.64801 0.0
O233 O 0.19623 0.77454 0.60226 0.0
O234 O 0.22599 0.80328 0.66529 0.0
C235 C 0.19858 0.78463 0.44216 0.0
O236 O 0.19936 0.80053 0.48643 0.0
C237 C 0.2144 0.72541 0.62601 0.0
Zn238 Zn 0.21965 0.40091 0.76685 0.0
Zn239 Zn 0.20675 0.38339 0.66443 0.0
O240 O 0.18111 0.39694 0.69137 0.0
O241 O 0.18844 0.40207 0.79272 0.0
O242 O 0.19371 0.3653 0.57811 0.0
O243 O 0.25095 0.43351 0.7449 0.0
O244 O 0.24654 0.41336 0.655 0.0
C245 C 0.17551 0.40203 0.7459 0.0
C246 C 0.21292 0.35257 0.77255 0.0
O247 O 0.20246 0.35239 0.72014 0.0
O248 O 0.2256 0.37386 0.80202 0.0
C249 C 0.18663 0.37464 0.53352 0.0
O250 O 0.18852 0.3976 0.54138 0.0
C251 C 0.26044 0.43218 0.69292 0.0
H252 H 0.17244 0.32342 0.50567 0.0
H253 H 0.17605 0.39235 0.42612 0.0
H254 H 0.15749 0.36884 0.32858 0.0
H255 H 0.13994 0.32888 0.26522 0.0
H256 H 0.13528 0.2593 0.34313 0.0
H257 H 0.15434 0.28278 0.44135 0.0
C258 C 0.16926 0.33333 0.46692 0.0
C259 C 0.17578 0.35978 0.4737 0.0
C260 C 0.15824 0.31952 0.41043 0.0
C261 C 0.17129 0.37211 0.42279 0.0
C262 C 0.16063 0.35864 0.36671 0.0
C263 C 0.14304 0.31874 0.30357 0.0
C264 C 0.13611 0.29224 0.29634 0.0
C265 C 0.15396 0.33235 0.35997 0.0
C266 C 0.14033 0.27961 0.34703 0.0
C267 C 0.1513 0.29309 0.40333 0.0
H268 H 0.63641 0.82105 0.40356 0.0
H269 H 0.69232 0.89918 0.46591 0.0
H270 H 0.71974 0.90528 0.37472 0.0
H271 H 0.72845 0.88858 0.27668 0.0
H272 H 0.67255 0.81055 0.21386 0.0
H273 H 0.64501 0.80443 0.30497 0.0
C274 C 0.65452 0.83946 0.39709 0.0
C275 C 0.6621 0.85957 0.44205 0.0
C276 C 0.67048 0.84291 0.34417 0.0
C277 C 0.6858 0.88325 0.43252 0.0
C278 C 0.70163 0.8868 0.38019 0.0
C279 C 0.71031 0.87019 0.28298 0.0
C280 C 0.70279 0.85009 0.23804 0.0
C281 C 0.69429 0.86676 0.33572 0.0
C282 C 0.67902 0.82646 0.24729 0.0
C283 C 0.66314 0.82289 0.29958 0.0
H284 H 0.17548 0.81259 0.40747 0.0
H285 H 0.19373 0.755 0.33769 0.0
H286 H 0.17267 0.7534 0.23792 0.0
H287 H 0.14885 0.7682 0.17046 0.0
H288 H 0.13051 0.82563 0.24111 0.0
H289 H 0.15174 0.82731 0.34039 0.0
C290 C 0.17497 0.79969 0.3705 0.0
C291 C 0.18632 0.78395 0.38046 0.0
C292 C 0.16268 0.79877 0.31327 0.0
C293 C 0.18526 0.76736 0.33167 0.0
C294 C 0.17316 0.76642 0.27451 0.0
C295 C 0.14941 0.78108 0.20753 0.0
C296 C 0.13795 0.79676 0.1979 0.0
C297 C 0.16174 0.78199 0.26478 0.0
C298 C 0.13903 0.81331 0.24683 0.0
C299 C 0.15124 0.81431 0.30376 0.0
H300 H 0.30836 0.15182 0.61681 0.0
H301 H 0.25333 0.17466 0.55671 0.0
H302 H 0.22478 0.15117 0.64496 0.0
H303 H 0.21481 0.12353 0.73962 0.0
H304 H 0.26982 0.10061 0.79942 0.0
H305 H 0.29851 0.12441 0.71172 0.0
C306 C 0.2902 0.15179 0.62314 0.0
C307 C 0.28319 0.16514 0.57971 0.0
C308 C 0.27358 0.13799 0.67422 0.0
C309 C 0.25941 0.16465 0.58898 0.0
C310 C 0.24294 0.15113 0.63962 0.0
C311 C 0.23302 0.12366 0.73341 0.0
C312 C 0.23992 0.1101 0.77649 0.0
C313 C 0.2497 0.13758 0.6825 0.0
C314 C 0.26378 0.11073 0.76738 0.0
C315 C 0.28035 0.12443 0.71704 0.0
H316 H 0.84334 0.19361 0.52924 0.0
H317 H 0.76995 0.17294 0.61826 0.0
H318 H 0.78336 0.15926 0.71265 0.0
H319 H 0.81636 0.1535 0.77062 0.0
H320 H 0.88972 0.1749 0.67998 0.0
H321 H 0.87581 0.18778 0.58602 0.0
C322 C 0.83018 0.18611 0.56917 0.0
C323 C 0.80561 0.18439 0.56629 0.0
C324 C 0.83804 0.17833 0.62333 0.0
C325 C 0.78896 0.17458 0.61887 0.0
C326 C 0.79664 0.16671 0.67298 0.0
C327 C 0.82927 0.16087 0.73024 0.0
C328 C 0.85414 0.16315 0.73283 0.0
C329 C 0.82118 0.16851 0.67585 0.0
C330 C 0.87054 0.1729 0.67983 0.0
C331 C 0.8626 0.18032 0.62583 0.0
H332 H 0.75867 0.64246 0.75563 0.0
H333 H 0.84092 0.67493 0.71954 0.0
H334 H 0.83081 0.6475 0.62567 0.0
H335 H 0.79833 0.61388 0.55337 0.0
H336 H 0.71625 0.58287 0.5895 0.0
H337 H 0.7266 0.60988 0.68345 0.0
C338 C 0.77446 0.64366 0.72728 0.0
C339 C 0.80057 0.66085 0.74505 0.0
C340 C 0.76851 0.62788 0.67318 0.0
C341 C 0.82066 0.66202 0.70721 0.0
C342 C 0.81487 0.64623 0.65348 0.0
C343 C 0.78272 0.61292 0.58203 0.0
C344 C 0.75649 0.59615 0.56418 0.0
C345 C 0.78884 0.62896 0.63602 0.0
C346 C 0.73658 0.59549 0.60173 0.0
C347 C 0.74249 0.611 0.65565 0.0
H348 H 0.96887 0.46305 0.09114 0.0
H349 H 0.02013 0.54228 0.15467 0.0
H350 H 0.04913 0.55024 0.0656 0.0
H351 H 0.06034 0.53493 0.96867 0.0
H352 H 0.0089 0.45577 0.90495 0.0
H353 H 0.98006 0.44775 0.99434 0.0
C354 C -0.01367 0.48209 0.08546 0.0
C355 C -0.00789 0.50198 0.12997 0.0
C356 C 0.00316 0.48663 0.0338 0.0
C357 C 0.01498 0.5265 0.12149 0.0
C358 C 0.03172 0.53113 0.0704 0.0
C359 C 0.04289 0.51589 0.97445 0.0
C360 C 0.03699 0.49603 0.92972 0.0
C361 C 0.02608 0.51134 0.02619 0.0
C362 C 0.01411 0.47152 0.93824 0.0
C363 C -0.00252 0.46686 0.98953 0.0
H364 H 0.54347 0.53787 0.11486 0.0
H365 H 0.47313 0.46304 0.09084 0.0
H366 H 0.46159 0.48004 0.99921 0.0
H367 H 0.47143 0.51658 0.92562 0.0
H368 H 0.54269 0.5907 0.94966 0.0
H369 H 0.55368 0.57362 0.04121 0.0
C370 C 0.52561 0.52517 0.08964 0.0
C371 C 0.50922 0.49913 0.11019 0.0
C372 C 0.51914 0.53505 0.03682 0.0
C373 C 0.48622 0.4831 0.07632 0.0
C374 C 0.47955 0.49287 0.02389 0.0
C375 C 0.48929 0.52903 0.95111 0.0
C376 C 0.50612 0.55503 0.93054 0.0
C377 C 0.4958 0.51889 1.00374 0.0
C378 C 0.52932 0.57069 0.96401 0.0
C379 C 0.53567 0.56091 0.01656 0.0
H380 H 0.49423 0.03084 0.16069 0.0
H381 H 0.42696 0.03941 0.13165 0.0
H382 H 0.41469 0.01081 0.04033 0.0
H383 H 0.42264 0.98327 0.9681 0.0
H384 H 0.48879 0.97292 0.99678 0.0
H385 H 0.50165 0.00192 0.08849 0.0
C386 C 0.47697 0.02655 0.13415 0.0
C387 C 0.46165 0.03751 0.15327 0.0
C388 C 0.46966 0.00955 0.08159 0.0
C389 C 0.43917 0.03138 0.11847 0.0
C390 C 0.43208 0.01494 0.06602 0.0
C391 C 0.43987 0.98724 0.99436 0.0
C392 C 0.4547 0.97583 0.97509 0.0
C393 C 0.4471 0.00386 0.04717 0.0
C394 C 0.47689 0.98126 1.01032 0.0
C395 C 0.48433 -0.00202 0.06278 0.0
H396 H 0.14473 0.24684 0.90521 0.0
H397 H 0.18303 0.2963 0.06522 0.0
H398 H 0.21545 0.33 0.99565 0.0
H399 H 0.22644 0.34834 0.89069 0.0
H400 H 0.18269 0.30183 0.73131 0.0
H401 H 0.15952 0.26342 0.79919 0.0
C402 C 0.16053 0.26474 0.92508 0.0
C403 C 0.1613 0.26942 0.99005 0.0
C404 C 0.17798 0.28451 0.88471 0.0
C405 C 0.18189 0.29256 1.01521 0.0
C406 C 0.20035 0.31176 0.97547 0.0
C407 C 0.21225 0.32968 0.87029 0.0
C408 C 0.20564 0.32808 0.80641 0.0
C409 C 0.19765 0.30845 0.91015 0.0
C410 C 0.18777 0.30364 0.78055 0.0
C411 C 0.17437 0.28178 0.81946 0.0
H412 H 0.66435 0.82856 0.72849 0.0
H413 H 0.65866 0.8948 0.7928 0.0
H414 H 0.68605 0.89987 0.88312 0.0
H415 H 0.70944 0.88395 0.94623 0.0
H416 H 0.71562 0.81797 0.88224 0.0
H417 H 0.68914 0.81349 0.79014 0.0
C418 C 0.66983 0.84457 0.76131 0.0
C419 C 0.65994 0.86152 0.75407 0.0
C420 C 0.68463 0.84667 0.81423 0.0
C421 C 0.66647 0.88179 0.79749 0.0
C422 C 0.68172 0.88443 0.84945 0.0
C423 C 0.70444 0.86823 0.91282 0.0
C424 C 0.7138 0.85092 0.92125 0.0
C425 C 0.69025 0.86651 0.85913 0.0
C426 C 0.70806 0.83116 0.87683 0.0
C427 C 0.69331 0.82885 0.82394 0.0
H428 H 0.10583 0.77575 0.80252 0.0
H429 H 0.16283 0.80347 0.95119 0.0
H430 H 0.19493 0.80313 0.87921 0.0
H431 H 0.2079 0.80015 0.77198 0.0
H432 H 0.15129 0.77366 0.62251 0.0
H433 H 0.11769 0.76894 0.6973 0.0
C434 C 0.12518 0.78133 0.81947 0.0
C435 C 0.13223 0.79009 0.88154 0.0
C436 C 0.14361 0.78202 0.77752 0.0
C437 C 0.15706 0.79672 0.90348 0.0
C438 C 0.17545 0.79686 0.86219 0.0
C439 C 0.18824 0.79351 0.75559 0.0
C440 C 0.18208 0.78788 0.69172 0.0
C441 C 0.16918 0.79058 0.79868 0.0
C442 C 0.15643 0.77849 0.6714 0.0
C443 C 0.13728 0.77565 0.71409 0.0
H444 H 0.31242 0.16632 0.18091 0.0
H445 H 0.26274 0.14413 0.34516 0.0
H446 H 0.22476 0.1159 0.2799 0.0
H447 H 0.20614 0.09868 0.17614 0.0
H448 H 0.25661 0.12176 1.01306 0.0
H449 H 0.29429 0.14879 0.07901 0.0
C450 C 0.29332 0.15539 0.20283 0.0
C451 C 0.29031 0.15741 0.26774 0.0
C452 C 0.2719 0.13947 0.16542 0.0
C453 C 0.26547 0.14291 0.29522 0.0
C454 C 0.24384 0.12684 0.25799 0.0
C455 C 0.22539 0.10955 0.15497 0.0
C456 C 0.22862 0.10832 0.08977 0.0
C457 C 0.24689 0.12512 0.19301 0.0
C458 C 0.25364 0.12244 0.06307 0.0
C459 C 0.27515 0.13789 0.10068 0.0
H460 H 0.81567 0.11918 0.16123 0.0
H461 H 0.79666 0.14995 0.99895 0.0
H462 H 0.77175 0.16331 0.06563 0.0
H463 H 0.76168 0.17224 0.17035 0.0
H464 H 0.78516 0.14604 0.33353 0.0
H465 H 0.80191 0.12442 0.26546 0.0
C466 C 0.80573 0.12842 0.14008 0.0
C467 C 0.80838 0.13406 0.07543 0.0
C468 C 0.79259 0.13706 0.17886 0.0
C469 C 0.79516 0.14574 0.04874 0.0
C470 C 0.78103 0.15343 0.08683 0.0
C471 C 0.77014 0.16152 0.1913 0.0
C472 C 0.7727 0.16117 0.25686 0.0
C473 C 0.78062 0.15018 0.15212 0.0
C474 C 0.78332 0.14686 0.28315 0.0
C475 C 0.79292 0.13458 0.2443 0.0
H476 H 0.79701 0.6907 0.14421 0.0
H477 H 0.77013 0.64027 0.98136 0.0
H478 H 0.74567 0.60213 0.04915 0.0
H479 H 0.74039 0.58303 0.15293 0.0
H480 H 0.77276 0.63314 0.31509 0.0
H481 H 0.78627 0.67173 0.24915 0.0
C482 C 0.7853 0.67145 0.12332 0.0
C483 C 0.78591 0.66812 0.05804 0.0
C484 C 0.77268 0.6496 0.16254 0.0
C485 C 0.77032 0.64318 0.03161 0.0
C486 C 0.75647 0.62141 0.07034 0.0
C487 C 0.75003 0.60236 0.17421 0.0
C488 C 0.75639 0.60536 0.23836 0.0
C489 C 0.75887 0.62432 0.13573 0.0
C490 C 0.76815 0.63041 0.26554 0.0
C491 C 0.77594 0.65244 0.22784 0.0
H492 H 0.96449 0.49659 0.52994 0.0
H493 H 0.01237 0.51207 0.36414 0.0
H494 H 0.05138 0.52991 0.42997 0.0
H495 H 0.07071 0.53657 0.53429 0.0
H496 H 0.0219 0.5175 0.69953 0.0
H497 H -0.016 0.50563 0.63336 0.0
C498 C -0.01655 0.50402 0.50782 0.0
C499 C -0.01445 0.50267 0.44226 0.0
C500 C 0.00543 0.51344 0.54575 0.0
C501 C 0.01027 0.5127 0.41453 0.0
C502 C 0.0325 0.52283 0.45212 0.0
C503 C 0.05186 0.53018 0.556 0.0
C504 C 0.04897 0.52767 0.62167 0.0
C505 C 0.03015 0.52262 0.51777 0.0
C506 C 0.02449 0.51937 0.64907 0.0
C507 C 0.00288 0.51257 0.61132 0.0
H508 H 0.49826 0.56834 0.51582 0.0
H509 H 0.52032 0.54044 0.67835 0.0
H510 H 0.53676 0.5187 0.60988 0.0
H511 H 0.53717 0.50137 0.50648 0.0
H512 H 0.50986 0.52477 0.3453 0.0
H513 H 0.50366 0.55521 0.41097 0.0
C514 C 0.50705 0.55787 0.53647 0.0
C515 C 0.50747 0.55538 0.60206 0.0
C516 C 0.51527 0.5445 0.49711 0.0
C517 C 0.51937 0.54222 0.62798 0.0
C518 C 0.5287 0.52976 0.58889 0.0
C519 C 0.53024 0.51341 0.48529 0.0
C520 C 0.52326 0.51033 0.42151 0.0
C521 C 0.52552 0.52975 0.52368 0.0
C522 C 0.51492 0.52649 0.39455 0.0
C523 C 0.51128 0.54378 0.43209 0.0
H524 H 0.43064 0.95173 0.58001 0.0
H525 H 0.4572 0.00273 0.7419 0.0
H526 H 0.46758 0.04032 0.67484 0.0
H527 H 0.47443 0.05891 0.57023 0.0
H528 H 0.4522 0.00861 0.40714 0.0
H529 H 0.43443 0.97008 0.47543 0.0
C530 C 0.43824 0.97099 0.60092 0.0
C531 C 0.44347 0.97463 0.66563 0.0
C532 C 0.4452 -0.00751 0.56193 0.0
C533 C 0.45329 -0.00039 0.69206 0.0
C534 C 0.45928 0.02103 0.65379 0.0
C535 C 0.46547 0.03953 0.54931 0.0
C536 C 0.46501 0.03658 0.4837 0.0
C537 C 0.4562 0.01776 0.58855 0.0
C538 C 0.45305 0.01135 0.45753 0.0
C539 C 0.44293 0.98938 0.4965 0.0
H540 H 0.12688 0.18524 0.04554 0.0
H541 H 0.06126 0.12714 0.15194 0.0
H542 H 0.06888 0.09266 0.11066 0.0
H543 H 0.0939 0.07941 0.04313 0.0
H544 H 0.15827 0.13757 0.9324 0.0
H545 H 0.15057 0.17168 0.9741 0.0
C546 C 0.11472 0.16507 0.06087 0.0
C547 C 0.09424 0.15869 0.10364 0.0
C548 C 0.11839 0.1454 0.03434 0.0
C549 C 0.07772 0.13247 0.12093 0.0
C550 C 0.08182 0.11281 0.09646 0.0
C551 C 0.10604 0.09947 0.02721 0.0
C552 C 0.12673 0.10587 0.98468 0.0
C553 C 0.10191 0.11905 0.05256 0.0
C554 C 0.14211 0.13199 0.96456 0.0
C555 C 0.13798 0.15158 0.98918 0.0
H556 H 0.85829 0.05706 0.05245 0.0
H557 H 0.83468 0.05196 0.85918 0.0
H558 H 0.81134 0.00388 0.86599 0.0
H559 H 0.79717 0.96379 0.92789 0.0
H560 H 0.81867 0.96952 0.12305 0.0
H561 H 0.84308 0.01742 0.11481 0.0
C562 C 0.8484 0.04553 1.01128 0.0
C563 C 0.84863 0.05807 0.95482 0.0
C564 C 0.83434 0.01819 0.01639 0.0
C565 C 0.83507 0.04276 0.90274 0.0
C566 C 0.82162 0.01534 0.90686 0.0
C567 C 0.80716 0.97551 0.96875 0.0
C568 C 0.80626 0.96315 0.02607 0.0
C569 C 0.82098 0.00292 0.96364 0.0
C570 C 0.81899 0.97857 0.07866 0.0
C571 C 0.83308 0.0059 0.07376 0.0
H572 H 0.92325 0.73265 0.07233 0.0
H573 H 0.91789 0.71826 0.8725 0.0
H574 H 0.9641 0.73153 0.86928 0.0
H575 H 0.00676 0.75376 0.91957 0.0
H576 H 0.01331 0.77197 0.11707 0.0
H577 H 0.9655 0.7499 0.12545 0.0
C578 C 0.93202 0.73197 0.02812 0.0
C579 C 0.91722 0.72496 0.97235 0.0
C580 C 0.95876 0.74041 0.02634 0.0
C581 C 0.92886 0.72385 0.91584 0.0
C582 C 0.95529 0.7315 0.91399 0.0
C583 C -0.00231 0.75246 0.9648 0.0
C584 C 0.0134 0.76484 0.01751 0.0
C585 C 0.97055 0.74082 0.96841 0.0
C586 C 0.00155 0.76262 0.07599 0.0
C587 C 0.97429 0.75026 0.08047 0.0
H588 H 0.80575 0.76 0.99366 0.0
H589 H 0.87353 0.81671 0.89089 0.0
H590 H 0.86594 0.85184 0.92631 0.0
H591 H 0.84162 0.8664 0.99095 0.0
H592 H 0.77406 0.81006 0.09625 0.0
H593 H 0.78076 0.77473 0.05794 0.0
C594 C 0.8182 0.77996 0.97725 0.0
C595 C 0.83954 0.78581 0.93773 0.0
C596 C 0.81445 0.80009 1.00053 0.0
C597 C 0.85644 0.81178 0.91924 0.0
C598 C 0.85239 0.83184 0.94059 0.0
C599 C 0.82842 0.84645 1.00629 0.0
C600 C 0.80737 0.84097 0.04681 0.0
C601 C 0.83184 0.82626 0.98239 0.0
C602 C 0.79058 0.81494 0.06583 0.0
C603 C 0.79416 0.79468 0.04311 0.0
H604 H 0.12296 0.90137 0.88996 0.0
H605 H 0.12825 0.89789 0.09147 0.0
H606 H 0.14363 0.94481 0.0985 0.0
H607 H 0.15208 0.98549 0.04854 0.0
H608 H 0.14678 0.9896 0.84746 0.0
H609 H 0.13509 0.9434 0.83883 0.0
C610 C 0.12759 0.91087 0.93549 0.0
C611 C 0.12407 0.89605 0.99038 0.0
C612 C 0.13629 0.93777 0.9391 0.0
C613 C 0.13064 0.90878 0.04872 0.0
C614 C 0.13935 0.93556 0.0527 0.0
C615 C 0.14845 0.97634 1.00263 0.0
C616 C 0.14977 0.99071 0.94866 0.0
C617 C 0.14168 0.95002 0.99837 0.0
C618 C 0.14573 0.97885 0.88954 0.0
C619 C 0.13894 0.95247 0.88479 0.0
H620 H 0.94024 0.20019 0.09125 0.0
H621 H 0.94742 0.19774 0.88995 0.0
H622 H -0.00496 0.22232 0.89923 0.0
H623 H 0.03335 0.23579 0.96548 0.0
H624 H 0.02539 0.23288 0.16732 0.0
H625 H 0.97929 0.21959 0.15688 0.0
C626 C 0.95218 0.20546 0.04912 0.0
C627 C 0.94029 0.19654 0.98998 0.0
C628 C 0.97938 0.21833 0.05517 0.0
C629 C 0.95604 0.20411 0.93596 0.0
C630 C 0.98327 0.21797 0.94139 0.0
C631 C 0.02171 0.23279 1.00739 0.0
C632 C 0.03267 0.23467 0.06724 0.0
C633 C -0.00499 0.22385 1.00094 0.0
C634 C 0.01743 0.2313 0.12082 0.0
C635 C -0.00899 0.22349 0.11478 0.0
H636 H 0.81939 0.52926 0.23645 0.0
H637 H 0.82346 0.54258 0.43662 0.0
H638 H 0.85771 0.5313 0.44447 0.0
H639 H 0.88227 0.51272 0.39677 0.0
H640 H 0.87721 0.4974 0.19781 0.0
H641 H 0.84774 0.51505 0.18673 0.0
C642 C 0.82791 0.52994 0.28182 0.0
C643 C 0.81852 0.53628 0.33621 0.0
C644 C 0.84728 0.52306 0.28604 0.0
C645 C 0.83014 0.53756 0.39427 0.0
C646 C 0.84967 0.53105 0.39875 0.0
C647 C 0.87496 0.51354 0.35073 0.0
C648 C 0.88143 0.50337 0.29822 0.0
C649 C 0.85774 0.52302 0.34528 0.0
C650 C 0.8724 0.50506 0.23877 0.0
C651 C 0.85542 0.51492 0.23268 0.0
H652 H 0.44086 0.37284 0.442 0.0
H653 H 0.43302 0.37585 0.24118 0.0
H654 H 0.3973 0.33026 0.24215 0.0
H655 H 0.37435 0.28816 0.29671 0.0
H656 H 0.38546 0.28389 0.49529 0.0
H657 H 0.41341 0.33178 0.49906 0.0
C658 C 0.43111 0.36372 0.39841 0.0
C659 C 0.44004 0.37759 0.34121 0.0
C660 C 0.41129 0.33731 0.39909 0.0
C661 C 0.42679 0.36558 0.28559 0.0
C662 C 0.40643 0.33949 0.28617 0.0
C663 C 0.38243 0.29777 0.3412 0.0
C664 C 0.37832 0.28254 0.39553 0.0
C665 C 0.3994 0.32493 0.34216 0.0
C666 C 0.3884 0.29518 0.45296 0.0
C667 C 0.40462 0.3225 0.45482 0.0
H668 H 0.5909 0.13559 0.46029 0.0
H669 H 0.58499 0.13315 0.25825 0.0
H670 H 0.63265 0.15517 0.24958 0.0
H671 H 0.67552 0.17688 0.29941 0.0
H672 H 0.68186 0.17798 0.50115 0.0
H673 H 0.63399 0.15451 0.51026 0.0
C674 C 0.60004 0.1398 0.41427 0.0
C675 C 0.58453 0.13311 0.35981 0.0
C676 C 0.6273 0.15231 0.40984 0.0
C677 C 0.59653 0.13816 0.30065 0.0
C678 C 0.62372 0.15085 0.29579 0.0
C679 C 0.66646 0.17213 0.34553 0.0
C680 C 0.6821 0.17964 0.39976 0.0
C681 C 0.63922 0.15837 0.35007 0.0
C682 C 0.67015 0.17263 0.45897 0.0
C683 C 0.64288 0.15925 0.46402 0.0
H684 H 0.45858 0.13921 0.44498 0.0
H685 H 0.45987 0.1355 0.24281 0.0
H686 H 0.43066 0.15364 0.23702 0.0
H687 H 0.40633 0.17178 0.28991 0.0
H688 H 0.40351 0.17338 0.49225 0.0
H689 H 0.43199 0.15448 0.49777 0.0
C690 C 0.45258 0.14248 0.39949 0.0
C691 C 0.46174 0.13658 0.34417 0.0
C692 C 0.43564 0.15241 0.39684 0.0
C693 C 0.45321 0.14012 0.28579 0.0
C694 C 0.4366 0.1505 0.28263 0.0
C695 C 0.41198 0.16803 0.33532 0.0
C696 C 0.40323 0.17433 0.3908 0.0
C697 C 0.42796 0.15694 0.33789 0.0
C698 C 0.41013 0.16879 0.44914 0.0
C699 C 0.42642 0.15809 0.45217 0.0
H700 H 0.82339 0.29239 0.27164 0.0
H701 H 0.82401 0.28814 0.47378 0.0
H702 H 0.85739 0.33475 0.47826 0.0
H703 H 0.88251 0.3772 0.42525 0.0
H704 H 0.88136 0.38163 0.22326 0.0
H705 H 0.85221 0.33398 0.21798 0.0
C706 C 0.83094 0.3016 0.31677 0.0
C707 C 0.8209 0.28701 0.37252 0.0
C708 C 0.84991 0.32828 0.31883 0.0
C709 C 0.8313 0.29902 0.43039 0.0
C710 C 0.85029 0.32564 0.43288 0.0
C711 C 0.87613 0.36771 0.37992 0.0
C712 C 0.88369 0.38291 0.32465 0.0
C713 C 0.85916 0.34054 0.37749 0.0
C714 C 0.87575 0.37034 0.26632 0.0
C715 C 0.85895 0.34317 0.26342 0.0
H716 H 0.58483 0.45042 0.40212 0.0
H717 H 0.58548 0.45472 0.19991 0.0
H718 H 0.63277 0.47165 0.19939 0.0
H719 H 0.67372 0.48806 0.25697 0.0
H720 H 0.67366 0.48939 0.45946 0.0
H721 H 0.62575 0.46703 0.45965 0.0
C722 C 0.5952 0.45458 0.35772 0.0
C723 C 0.58169 0.45093 0.30085 0.0
C724 C 0.6223 0.46539 0.35819 0.0
C725 C 0.59548 0.45716 0.24399 0.0
C726 C 0.62243 0.46688 0.24386 0.0
C727 C 0.66322 0.48302 0.30129 0.0
C728 C 0.67708 0.4899 0.35836 0.0
C729 C 0.63602 0.47143 0.30074 0.0
C730 C 0.66333 0.48402 0.41522 0.0
C731 C 0.63604 0.47136 0.41516 0.0
H732 H 0.55784 0.8639 0.74586 0.0
H733 H 0.56019 0.87784 0.54677 0.0
H734 H 0.54018 0.9051 0.56453 0.0
H735 H 0.5171 0.91965 0.63564 0.0
H736 H 0.51327 0.90346 0.83425 0.0
H737 H 0.5397 0.88286 0.81788 0.0
C738 C 0.55411 0.87304 0.70624 0.0
C739 C 0.55976 0.86839 0.64483 0.0
C740 C 0.54251 0.88825 0.71694 0.0
C741 C 0.55568 0.88095 0.5942 0.0
C742 C 0.54422 0.89642 0.6045 0.0
C743 C 0.52241 0.91204 0.67566 0.0
C744 C 0.51279 0.91265 0.73612 0.0
C745 C 0.53683 0.89946 0.66551 0.0
C746 C 0.52027 0.90313 0.78739 0.0
C747 C 0.53517 0.89115 0.7779 0.0
H748 H 0.1943 0.70036 0.73625 0.0
H749 H 0.21204 0.68776 0.54714 0.0
H750 H 0.19603 0.64162 0.5715 0.0
H751 H 0.17538 0.60495 0.64415 0.0
H752 H 0.15279 0.61574 0.82974 0.0
H753 H 0.17303 0.663 0.80964 0.0
C754 C 0.19479 0.68752 0.70047 0.0
C755 C 0.20442 0.69742 0.63992 0.0
C756 C 0.18496 0.66092 0.71442 0.0
C757 C 0.20461 0.68055 0.59382 0.0
C758 C 0.19559 0.65425 0.60789 0.0
C759 C 0.17526 0.61761 0.68097 0.0
C760 C 0.16289 0.60684 0.73891 0.0
C761 C 0.1856 0.64426 0.66783 0.0
C762 C 0.16243 0.62356 0.78516 0.0
C763 C 0.1738 0.6505 0.7734 0.0
H764 H 0.37705 0.51393 0.6196 0.0
H765 H 0.38501 0.51444 0.82109 0.0
H766 H 0.33881 0.48119 0.83084 0.0
H767 H 0.29641 0.45355 0.78293 0.0
H768 H 0.28774 0.45137 0.58172 0.0
H769 H 0.33452 0.48391 0.57074 0.0
C770 C 0.36868 0.50678 0.66572 0.0
C771 C 0.38435 0.51687 0.71979 0.0
C772 C 0.3422 0.48754 0.67083 0.0
C773 C 0.37336 0.50707 0.77896 0.0
C774 C 0.34698 0.48813 0.78449 0.0
C775 C 0.30466 0.46023 0.73647 0.0
C776 C 0.2886 0.45051 0.6831 0.0
C777 C 0.33125 0.47852 0.73085 0.0
C778 C 0.29971 0.45875 0.62334 0.0
C779 C 0.32636 0.47734 0.61725 0.0
H780 H 0.14577 0.40828 0.65766 0.0
H781 H 0.16321 0.41711 0.85571 0.0
H782 H 0.14027 0.44118 0.86918 0.0
H783 H 0.1215 0.46598 0.82167 0.0
H784 H 0.10382 0.45673 0.6239 0.0
H785 H 0.11994 0.42634 0.61406 0.0
C786 C 0.14408 0.41498 0.70395 0.0
C787 C 0.1568 0.41144 0.75502 0.0
C788 C 0.13094 0.42905 0.71161 0.0
C789 C 0.15403 0.41993 0.81502 0.0
C790 C 0.14091 0.43379 0.82299 0.0
C791 C 0.12049 0.45671 0.77694 0.0
C792 C 0.1121 0.46411 0.72346 0.0
C793 C 0.13021 0.43942 0.77116 0.0
C794 C 0.11074 0.45179 0.66572 0.0
C795 C 0.12002 0.43442 0.65985 0.0
H796 H 0.49238 0.656 0.63391 0.0
H797 H 0.51407 0.65605 0.82701 0.0
H798 H 0.54567 0.70331 0.81962 0.0
H799 H 0.56639 0.74427 0.758 0.0
H800 H 0.54544 0.74286 0.56359 0.0
H801 H 0.51441 0.69582 0.57148 0.0
C802 C 0.50373 0.66629 0.67492 0.0
C803 C 0.50044 0.65262 0.73158 0.0
C804 C 0.52219 0.69298 0.6696 0.0
C805 C 0.51596 0.6662 0.78332 0.0
C806 C 0.53408 0.69312 0.77887 0.0
C807 C 0.55518 0.73364 0.71713 0.0
C808 C 0.5581 0.7471 0.66022 0.0
C809 C 0.53732 0.70666 0.72216 0.0
C810 C 0.54364 0.733 0.60769 0.0
C811 C 0.52576 0.70617 0.61239 0.0
H812 H 0.28911 0.8396 0.70231 0.0
H813 H 0.30829 0.80256 0.55284 0.0
H814 H 0.35016 0.81572 0.60313 0.0
H815 H 0.38168 0.83918 0.68648 0.0
H816 H 0.36332 0.87815 0.83287 0.0
H817 H 0.31982 0.86132 0.78829 0.0
C818 C 0.3024 0.83436 0.68044 0.0
C819 C 0.29556 0.8202 0.62346 0.0
C820 C 0.32621 0.84175 0.70985 0.0
C821 C 0.31309 0.81362 0.59619 0.0
C822 C 0.33691 0.82093 0.62528 0.0
C823 C 0.36806 0.84364 0.70968 0.0
C824 C 0.37592 0.8601 0.76307 0.0
C825 C 0.34366 0.83505 0.68199 0.0
C826 C 0.35785 0.86552 0.79206 0.0
C827 C 0.33311 0.8562 0.76602 0.0
loop_
_geom_bond_atom_site_label_1
_geom_bond_atom_site_label_2
_geom_bond_distance
_geom_bond_site_symmetry_2
_ccdc_geom_bond_type
Zn0 O3 2.031 . S
Zn0 O5 2.049 . S
Zn0 O10 2.067 . S
Zn1 O2 1.962 . S
Zn1 O4 1.986 . S
Zn1 O6 1.996 . S
Zn1 O9 1.943 . S
O2 Zn1 1.962 . S
O2 C7 1.254 . S
O3 Zn0 2.031 . S
O3 C7 1.269 1_556 S
O4 Zn1 1.986 . S
O4 C11 1.262 . S
O5 Zn0 2.049 . S
O5 C13 1.260 1_556 S
O6 Zn1 1.996 . S
O6 C13 1.257 . S
C7 O2 1.254 . S
C7 O3 1.269 1_554 S
C8 O9 1.249 1_556 S
C8 O10 1.270 . S
O9 Zn1 1.943 . S
O9 C8 1.249 1_554 S
O10 Zn0 2.067 . S
O10 C8 1.270 . S
C11 O4 1.262 . S
C11 O12 1.232 . S
O12 C11 1.232 . S
C13 O5 1.260 1_554 S
C13 O6 1.257 . S
Zn14 O17 2.031 . S
Zn14 O19 2.049 . S
Zn14 O24 2.067 . S
Zn15 O16 1.962 . S
Zn15 O18 1.986 . S
Zn15 O20 1.996 . S
Zn15 O23 1.943 . S
O16 Zn15 1.962 . S
O16 C21 1.254 . S
O17 Zn14 2.031 . S
O17 C21 1.269 1_556 S
O18 Zn15 1.986 . S
O18 C25 1.262 . S
O19 Zn14 2.049 . S
O19 C27 1.260 1_556 S
O20 Zn15 1.996 . S
O20 C27 1.257 . S
C21 O16 1.254 . S
C21 O17 1.269 1_554 S
C22 O23 1.249 1_556 S
C22 O24 1.270 . S
O23 Zn15 1.943 . S
O23 C22 1.249 1_554 S
O24 Zn14 2.067 . S
O24 C22 1.270 . S
C25 O18 1.262 . S
C25 O26 1.232 . S
O26 C25 1.232 . S
C27 O19 1.260 1_554 S
C27 O20 1.257 . S
Zn28 O31 2.031 . S
Zn28 O33 2.049 . S
Zn28 O38 2.067 . S
Zn29 O30 1.962 . S
Zn29 O32 1.986 . S
Zn29 O34 1.996 . S
Zn29 O37 1.943 . S
O30 Zn29 1.962 . S
O30 C35 1.254 . S
O31 Zn28 2.031 . S
O31 C35 1.269 1_556 S
O32 Zn29 1.986 . S
O32 C39 1.262 . S
O33 Zn28 2.049 . S
O33 C41 1.260 1_556 S
O34 Zn29 1.996 . S
O34 C41 1.257 . S
C35 O30 1.254 . S
C35 O31 1.269 1_554 S
C36 O37 1.249 1_556 S
C36 O38 1.270 . S
O37 Zn29 1.943 . S
O37 C36 1.249 1_554 S
O38 Zn28 2.067 . S
O38 C36 1.270 . S
C39 O32 1.262 . S
C39 O40 1.232 . S
O40 C39 1.232 . S
C41 O33 1.260 1_554 S
C41 O34 1.257 . S
Zn42 O45 2.031 . S
Zn42 O47 2.049 . S
Zn42 O52 2.067 . S
Zn43 O44 1.962 . S
Zn43 O46 1.986 . S
Zn43 O48 1.996 . S
Zn43 O51 1.943 . S
O44 Zn43 1.962 . S
O44 C49 1.254 . S
O45 Zn42 2.031 . S
O45 C49 1.269 1_554 S
O46 Zn43 1.986 . S
O46 C53 1.262 . S
O47 Zn42 2.049 . S
O47 C55 1.260 1_554 S
O48 Zn43 1.996 . S
O48 C55 1.257 . S
C49 O44 1.254 . S
C49 O45 1.269 1_556 S
C50 O51 1.249 1_554 S
C50 O52 1.270 . S
O51 Zn43 1.943 . S
O51 C50 1.249 1_556 S
O52 Zn42 2.067 . S
O52 C50 1.270 . S
C53 O46 1.262 . S
C53 O54 1.232 . S
O54 C53 1.232 . S
C55 O47 1.260 1_556 S
C55 O48 1.257 . S
Zn56 O59 2.031 . S
Zn56 O61 2.049 . S
Zn56 O66 2.067 . S
Zn57 O58 1.962 . S
Zn57 O60 1.986 . S
Zn57 O62 1.996 . S
Zn57 O65 1.943 . S
O58 Zn57 1.962 . S
O58 C63 1.254 . S
O59 Zn56 2.031 . S
O59 C63 1.269 1_554 S
O60 Zn57 1.986 . S
O60 C67 1.262 . S
O61 Zn56 2.049 . S
O61 C69 1.260 1_554 S
O62 Zn57 1.996 . S
O62 C69 1.257 . S
C63 O58 1.254 . S
C63 O59 1.269 1_556 S
C64 O65 1.249 1_554 S
C64 O66 1.270 . S
O65 Zn57 1.943 . S
O65 C64 1.249 1_556 S
O66 Zn56 2.067 . S
O66 C64 1.270 . S
C67 O60 1.262 . S
C67 O68 1.232 . S
O68 C67 1.232 . S
C69 O61 1.260 1_556 S
C69 O62 1.257 . S
Zn70 O73 2.031 . S
Zn70 O75 2.049 . S
Zn70 O80 2.067 . S
Zn71 O72 1.962 . S
Zn71 O74 1.986 . S
Zn71 O76 1.996 . S
Zn71 O79 1.943 . S
O72 Zn71 1.962 . S
O72 C77 1.254 . S
O73 Zn70 2.031 . S
O73 C77 1.269 1_554 S
O74 Zn71 1.986 . S
O74 C81 1.262 . S
O75 Zn70 2.049 . S
O75 C83 1.260 1_554 S
O76 Zn71 1.996 . S
O76 C83 1.257 . S
C77 O72 1.254 . S
C77 O73 1.269 1_556 S
C78 O79 1.249 1_554 S
C78 O80 1.270 . S
O79 Zn71 1.943 . S
O79 C78 1.249 1_556 S
O80 Zn70 2.067 . S
O80 C78 1.270 . S
C81 O74 1.262 . S
C81 O82 1.232 . S
O82 C81 1.232 . S
C83 O75 1.260 1_556 S
C83 O76 1.257 . S
Zn84 O87 2.031 . S
Zn84 O89 2.049 . S
Zn84 O94 2.067 . S
Zn85 O86 1.962 . S
Zn85 O88 1.986 . S
Zn85 O90 1.996 . S
Zn85 O93 1.943 . S
O86 Zn85 1.962 . S
O86 C91 1.254 . S
O87 Zn84 2.031 . S
O87 C91 1.269 . S
O88 Zn85 1.986 . S
O88 C95 1.262 . S
O89 Zn84 2.049 . S
O89 C97 1.260 . S
O90 Zn85 1.996 . S
O90 C97 1.257 . S
C91 O86 1.254 . S
C91 O87 1.269 . S
C92 O93 1.249 . S
C92 O94 1.270 . S
O93 Zn85 1.943 . S
O93 C92 1.249 . S
O94 Zn84 2.067 . S
O94 C92 1.270 . S
C95 O88 1.262 . S
C95 O96 1.232 . S
O96 C95 1.232 . S
C97 O89 1.260 . S
C97 O90 1.257 . S
Zn98 O101 2.031 . S
Zn98 O103 2.049 . S
Zn98 O108 2.067 . S
Zn99 O100 1.962 . S
Zn99 O102 1.986 . S
Zn99 O104 1.996 . S
Zn99 O107 1.943 . S
O100 Zn99 1.962 . S
O100 C105 1.254 . S
O101 Zn98 2.031 . S
O101 C105 1.269 . S
O102 Zn99 1.986 . S
O102 C109 1.262 . S
O103 Zn98 2.049 . S
O103 C111 1.260 . S
O104 Zn99 1.996 . S
O104 C111 1.257 . S
C105 O100 1.254 . S
C105 O101 1.269 . S
C106 O107 1.249 . S
C106 O108 1.270 . S
O107 Zn99 1.943 . S
O107 C106 1.249 . S
O108 Zn98 2.067 . S
O108 C106 1.270 . S
C109 O102 1.262 . S
C109 O110 1.232 . S
O110 C109 1.232 . S
C111 O103 1.260 . S
C111 O104 1.257 . S
Zn112 O115 2.031 . S
Zn112 O117 2.049 . S
Zn112 O122 2.067 . S
Zn113 O114 1.962 . S
Zn113 O116 1.986 . S
Zn113 O118 1.996 . S
Zn113 O121 1.943 . S
O114 Zn113 1.962 . S
O114 C119 1.254 . S
O115 Zn112 2.031 . S
O115 C119 1.269 . S
O116 Zn113 1.986 . S
O116 C123 1.262 . S
O117 Zn112 2.049 . S
O117 C125 1.260 . S
O118 Zn113 1.996 . S
O118 C125 1.257 . S
C119 O114 1.254 . S
C119 O115 1.269 . S
C120 O121 1.249 . S
C120 O122 1.270 . S
O121 Zn113 1.943 . S
O121 C120 1.249 . S
O122 Zn112 2.067 . S
O122 C120 1.270 . S
C123 O116 1.262 . S
C123 O124 1.232 . S
O124 C123 1.232 . S
C125 O117 1.260 . S
C125 O118 1.257 . S
Zn126 O129 2.031 . S
Zn126 O131 2.049 . S
Zn126 O136 2.067 . S
Zn127 O128 1.962 . S
Zn127 O130 1.986 . S
Zn127 O132 1.996 . S
Zn127 O135 1.943 . S
O128 Zn127 1.962 . S
O128 C133 1.254 . S
O129 Zn126 2.031 . S
O129 C133 1.269 . S
O130 Zn127 1.986 . S
O130 C137 1.262 . S
O131 Zn126 2.049 . S
O131 C139 1.260 . S
O132 Zn127 1.996 . S
O132 C139 1.257 . S
C133 O128 1.254 . S
C133 O129 1.269 . S
C134 O135 1.249 . S
C134 O136 1.270 . S
O135 Zn127 1.943 . S
O135 C134 1.249 . S
O136 Zn126 2.067 . S
O136 C134 1.270 . S
C137 O130 1.262 . S
C137 O138 1.232 . S
O138 C137 1.232 . S
C139 O131 1.260 . S
C139 O132 1.257 . S
Zn140 O143 2.031 . S
Zn140 O145 2.049 . S
Zn140 O150 2.067 . S
Zn141 O142 1.962 . S
Zn141 O144 1.986 . S
Zn141 O146 1.996 . S
Zn141 O149 1.943 . S
O142 Zn141 1.962 . S
O142 C147 1.254 . S
O143 Zn140 2.031 . S
O143 C147 1.269 . S
O144 Zn141 1.986 . S
O144 C151 1.262 . S
O145 Zn140 2.049 . S
O145 C153 1.260 . S
O146 Zn141 1.996 . S
O146 C153 1.257 . S
C147 O142 1.254 . S
C147 O143 1.269 . S
C148 O149 1.249 . S
C148 O150 1.270 . S
O149 Zn141 1.943 . S
O149 C148 1.249 . S
O150 Zn140 2.067 . S
O150 C148 1.270 . S
C151 O144 1.262 . S
C151 O152 1.232 . S
O152 C151 1.232 . S
C153 O145 1.260 . S
C153 O146 1.257 . S
Zn154 O157 2.031 . S
Zn154 O159 2.049 . S
Zn154 O164 2.067 . S
Zn155 O156 1.962 . S
Zn155 O158 1.986 . S
Zn155 O160 1.996 . S
Zn155 O163 1.943 . S
O156 Zn155 1.962 . S
O156 C161 1.254 . S
O157 Zn154 2.031 . S
O157 C161 1.269 . S
O158 Zn155 1.986 . S
O158 C165 1.262 . S
O159 Zn154 2.049 . S
O159 C167 1.260 . S
O160 Zn155 1.996 . S
O160 C167 1.257 . S
C161 O156 1.254 . S
C161 O157 1.269 . S
C162 O163 1.249 . S
C162 O164 1.270 . S
O163 Zn155 1.943 . S
O163 C162 1.249 . S
O164 Zn154 2.067 . S
O164 C162 1.270 . S
C165 O158 1.262 . S
C165 O166 1.232 . S
O166 C165 1.232 . S
C167 O159 1.260 . S
C167 O160 1.257 . S
Zn168 O171 2.031 . S
Zn168 O173 2.049 . S
Zn168 O178 2.067 . S
Zn169 O170 1.962 . S
Zn169 O172 1.986 . S
Zn169 O174 1.996 . S
Zn169 O177 1.943 . S
O170 Zn169 1.962 . S
O170 C175 1.254 . S
O171 Zn168 2.031 . S
O171 C175 1.269 . S
O172 Zn169 1.986 . S
O172 C179 1.262 . S
O173 Zn168 2.049 . S
O173 C181 1.260 . S
O174 Zn169 1.996 . S
O174 C181 1.257 . S
C175 O170 1.254 . S
C175 O171 1.269 . S
C176 O177 1.249 . S
C176 O178 1.270 . S
O177 Zn169 1.943 . S
O177 C176 1.249 . S
O178 Zn168 2.067 . S
O178 C176 1.270 . S
C179 O172 1.262 . S
C179 O180 1.232 . S
O180 C179 1.232 . S
C181 O173 1.260 . S
C181 O174 1.257 . S
Zn182 O185 2.031 . S
Zn182 O187 2.049 . S
Zn182 O192 2.067 . S
Zn183 O184 1.962 . S
Zn183 O186 1.986 . S
Zn183 O188 1.996 . S
Zn183 O191 1.943 . S
O184 Zn183 1.962 . S
O184 C189 1.254 . S
O185 Zn182 2.031 . S
O185 C189 1.269 . S
O186 Zn183 1.986 . S
O186 C193 1.262 . S
O187 Zn182 2.049 . S
O187 C195 1.260 . S
O188 Zn183 1.996 . S
O188 C195 1.257 . S
C189 O184 1.254 . S
C189 O185 1.269 . S
C190 O191 1.249 . S
C190 O192 1.270 . S
O191 Zn183 1.943 . S
O191 C190 1.249 . S
O192 Zn182 2.067 . S
O192 C190 1.270 . S
C193 O186 1.262 . S
C193 O194 1.232 . S
O194 C193 1.232 . S
C195 O187 1.260 . S
C195 O188 1.257 . S
Zn196 O199 2.031 . S
Zn196 O201 2.049 . S
Zn196 O206 2.067 . S
Zn197 O198 1.962 . S
Zn197 O200 1.986 . S
Zn197 O202 1.996 . S
Zn197 O205 1.943 . S
O198 Zn197 1.962 . S
O198 C203 1.254 . S
O199 Zn196 2.031 . S
O199 C203 1.269 . S
O200 Zn197 1.986 . S
O200 C207 1.262 . S
O201 Zn196 2.049 . S
O201 C209 1.260 . S
O202 Zn197 1.996 . S
O202 C209 1.257 . S
C203 O198 1.254 . S
C203 O199 1.269 . S
C204 O205 1.249 . S
C204 O206 1.270 . S
O205 Zn197 1.943 . S
O205 C204 1.249 . S
O206 Zn196 2.067 . S
O206 C204 1.270 . S
C207 O200 1.262 . S
C207 O208 1.232 . S
O208 C207 1.232 . S
C209 O201 1.260 . S
C209 O202 1.257 . S
Zn210 O213 2.031 . S
Zn210 O215 2.049 . S
Zn210 O220 2.067 . S
Zn211 O212 1.962 . S
Zn211 O214 1.986 . S
Zn211 O216 1.996 . S
Zn211 O219 1.943 . S
O212 Zn211 1.962 . S
O212 C217 1.254 . S
O213 Zn210 2.031 . S
O213 C217 1.269 . S
O214 Zn211 1.986 . S
O214 C221 1.262 . S
O215 Zn210 2.049 . S
O215 C223 1.260 . S
O216 Zn211 1.996 . S
O216 C223 1.257 . S
C217 O212 1.254 . S
C217 O213 1.269 . S
C218 O219 1.249 . S
C218 O220 1.270 . S
O219 Zn211 1.943 . S
O219 C218 1.249 . S
O220 Zn210 2.067 . S
O220 C218 1.270 . S
C221 O214 1.262 . S
C221 O222 1.232 . S
O222 C221 1.232 . S
C223 O215 1.260 . S
C223 O216 1.257 . S
Zn224 O227 2.031 . S
Zn224 O229 2.049 . S
Zn224 O234 2.067 . S
Zn225 O226 1.962 . S
Zn225 O228 1.986 . S
Zn225 O230 1.996 . S
Zn225 O233 1.943 . S
O226 Zn225 1.962 . S
O226 C231 1.254 . S
O227 Zn224 2.031 . S
O227 C231 1.269 . S
O228 Zn225 1.986 . S
O228 C235 1.262 . S
O229 Zn224 2.049 . S
O229 C237 1.260 . S
O230 Zn225 1.996 . S
O230 C237 1.257 . S
C231 O226 1.254 . S
C231 O227 1.269 . S
C232 O233 1.249 . S
C232 O234 1.270 . S
O233 Zn225 1.943 . S
O233 C232 1.249 . S
O234 Zn224 2.067 . S
O234 C232 1.270 . S
C235 O228 1.262 . S
C235 O236 1.232 . S
O236 C235 1.232 . S
C237 O229 1.260 . S
C237 O230 1.257 . S
Zn238 O241 2.031 . S
Zn238 O243 2.049 . S
Zn238 O248 2.067 . S
Zn239 O240 1.962 . S
Zn239 O242 1.986 . S
Zn239 O244 1.996 . S
Zn239 O247 1.943 . S
O240 Zn239 1.962 . S
O240 C245 1.254 . S
O241 Zn238 2.031 . S
O241 C245 1.269 . S
O242 Zn239 1.986 . S
O242 C249 1.262 . S
O243 Zn238 2.049 . S
O243 C251 1.260 . S
O244 Zn239 1.996 . S
O244 C251 1.257 . S
C245 O240 1.254 . S
C245 O241 1.269 . S
C246 O247 1.249 . S
C246 O248 1.270 . S
O247 Zn239 1.943 . S
O247 C246 1.249 . S
O248 Zn238 2.067 . S
O248 C246 1.270 . S
C249 O242 1.262 . S
C249 O250 1.232 . S
O250 C249 1.232 . S
C251 O243 1.260 . S
C251 O244 1.257 . S
H252 C258 0.930 . S
H253 C261 0.930 . S
H254 C262 0.930 . S
H255 C263 0.930 . S
H256 C266 0.930 . S
H257 C267 0.930 . S
C258 H252 0.930 . S
C258 C259 1.355 . S
C258 C260 1.415 . S
C259 C258 1.355 . S
C259 C261 1.419 . S
C260 C258 1.415 . S
C260 C265 1.425 . S
C260 C267 1.409 . S
C261 H253 0.930 . S
C261 C259 1.419 . S
C261 C262 1.362 . S
C262 H254 0.930 . S
C262 C261 1.362 . S
C262 C265 1.409 . S
C263 H255 0.930 . S
C263 C264 1.355 . S
C263 C265 1.415 . S
C264 C263 1.355 . S
C264 C266 1.419 . S
C265 C260 1.425 . S
C265 C262 1.409 . S
C265 C263 1.415 . S
C266 H256 0.930 . S
C266 C264 1.419 . S
C266 C267 1.362 . S
C267 H257 0.930 . S
C267 C260 1.409 . S
C267 C266 1.362 . S
H268 C274 0.930 . S
H269 C277 0.930 . S
H270 C278 0.930 . S
H271 C279 0.930 . S
H272 C282 0.930 . S
H273 C283 0.930 . S
C274 H268 0.930 . S
C274 C275 1.355 . S
C274 C276 1.415 . S
C275 C274 1.355 . S
C275 C277 1.419 . S
C276 C274 1.415 . S
C276 C281 1.425 . S
C276 C283 1.409 . S
C277 H269 0.930 . S
C277 C275 1.419 . S
C277 C278 1.362 . S
C278 H270 0.930 . S
C278 C277 1.362 . S
C278 C281 1.409 . S
C279 H271 0.930 . S
C279 C280 1.355 . S
C279 C281 1.415 . S
C280 C279 1.355 . S
C280 C282 1.419 . S
C281 C276 1.425 . S
C281 C278 1.409 . S
C281 C279 1.415 . S
C282 H272 0.930 . S
C282 C280 1.419 . S
C282 C283 1.362 . S
C283 H273 0.930 . S
C283 C276 1.409 . S
C283 C282 1.362 . S
H284 C290 0.930 . S
H285 C293 0.930 . S
H286 C294 0.930 . S
H287 C295 0.930 . S
H288 C298 0.930 . S
H289 C299 0.930 . S
C290 H284 0.930 . S
C290 C291 1.355 . S
C290 C292 1.415 . S
C291 C290 1.355 . S
C291 C293 1.419 . S
C292 C290 1.415 . S
C292 C297 1.425 . S
C292 C299 1.409 . S
C293 H285 0.930 . S
C293 C291 1.419 . S
C293 C294 1.362 . S
C294 H286 0.930 . S
C294 C293 1.362 . S
C294 C297 1.409 . S
C295 H287 0.930 . S
C295 C296 1.355 . S
C295 C297 1.415 . S
C296 C295 1.355 . S
C296 C298 1.419 . S
C297 C292 1.425 . S
C297 C294 1.409 . S
C297 C295 1.415 . S
C298 H288 0.930 . S
C298 C296 1.419 . S
C298 C299 1.362 . S
C299 H289 0.930 . S
C299 C292 1.409 . S
C299 C298 1.362 . S
H300 C306 0.930 . S
H301 C309 0.930 . S
H302 C310 0.930 . S
H303 C311 0.930 . S
H304 C314 0.930 . S
H305 C315 0.930 . S
C306 H300 0.930 . S
C306 C307 1.355 . S
C306 C308 1.415 . S
C307 C306 1.355 . S
C307 C309 1.419 . S
C308 C306 1.415 . S
C308 C313 1.425 . S
C308 C315 1.409 . S
C309 H301 0.930 . S
C309 C307 1.419 . S
C309 C310 1.362 . S
C310 H302 0.930 . S
C310 C309 1.362 . S
C310 C313 1.409 . S
C311 H303 0.930 . S
C311 C312 1.355 . S
C311 C313 1.415 . S
C312 C311 1.355 . S
C312 C314 1.419 . S
C313 C308 1.425 . S
C313 C310 1.409 . S
C313 C311 1.415 . S
C314 H304 0.930 . S
C314 C312 1.419 . S
C314 C315 1.362 . S
C315 H305 0.930 . S
C315 C308 1.409 . S
C315 C314 1.362 . S
H316 C322 0.930 . S
H317 C325 0.930 . S
H318 C326 0.930 . S
H319 C327 0.930 . S
H320 C330 0.930 . S
H321 C331 0.930 . S
C322 H316 0.930 . S
C322 C323 1.355 . S
C322 C324 1.415 . S
C323 C322 1.355 . S
C323 C325 1.419 . S
C324 C322 1.415 . S
C324 C329 1.425 . S
C324 C331 1.409 . S
C325 H317 0.930 . S
C325 C323 1.419 . S
C325 C326 1.362 . S
C326 H318 0.930 . S
C326 C325 1.362 . S
C326 C329 1.409 . S
C327 H319 0.930 . S
C327 C328 1.355 . S
C327 C329 1.415 . S
C328 C327 1.355 . S
C328 C330 1.419 . S
C329 C324 1.425 . S
C329 C326 1.409 . S
C329 C327 1.415 . S
C330 H320 0.930 . S
C330 C328 1.419 . S
C330 C331 1.362 . S
C331 H321 0.930 . S
C331 C324 1.409 . S
C331 C330 1.362 . S
H332 C338 0.930 . S
H333 C341 0.930 . S
H334 C342 0.930 . S
H335 C343 0.930 . S
H336 C346 0.930 . S
H337 C347 0.930 . S
C338 H332 0.930 . S
C338 C339 1.355 . S
C338 C340 1.415 . S
C339 C338 1.355 . S
C339 C341 1.419 . S
C340 C338 1.415 . S
C340 C345 1.425 . S
C340 C347 1.409 . S
C341 H333 0.930 . S
C341 C339 1.419 . S
C341 C342 1.362 . S
C342 H334 0.930 . S
C342 C341 1.362 . S
C342 C345 1.409 . S
C343 H335 0.930 . S
C343 C344 1.355 . S
C343 C345 1.415 . S
C344 C343 1.355 . S
C344 C346 1.419 . S
C345 C340 1.425 . S
C345 C342 1.409 . S
C345 C343 1.415 . S
C346 H336 0.930 . S
C346 C344 1.419 . S
C346 C347 1.362 . S
C347 H337 0.930 . S
C347 C340 1.409 . S
C347 C346 1.362 . S
H348 C354 0.930 . S
H349 C357 0.930 1_455 S
H350 C358 0.930 . S
H351 C359 0.930 . S
H352 C362 0.930 1_655 S
H353 C363 0.930 . S
C354 H348 0.930 . S
C354 C355 1.355 . S
C354 C356 1.415 1_554 S
C355 C354 1.355 . S
C355 C357 1.419 . S
C356 C354 1.415 1_556 S
C356 C361 1.425 1_656 S
C356 C363 1.409 . S
C357 H349 0.930 1_655 S
C357 C355 1.419 . S
C357 C358 1.362 1_655 S
C358 H350 0.930 . S
C358 C357 1.362 1_455 S
C358 C361 1.409 . S
C359 H351 0.930 . S
C359 C360 1.355 . S
C359 C361 1.415 1_556 S
C360 C359 1.355 . S
C360 C362 1.419 . S
C361 C356 1.425 1_454 S
C361 C358 1.409 . S
C361 C359 1.415 1_554 S
C362 H352 0.930 1_455 S
C362 C360 1.419 . S
C362 C363 1.362 1_455 S
C363 H353 0.930 . S
C363 C356 1.409 . S
C363 C362 1.362 1_655 S
H364 C370 0.930 . S
H365 C373 0.930 . S
H366 C374 0.930 . S
H367 C375 0.930 . S
H368 C378 0.930 . S
H369 C379 0.930 . S
C370 H364 0.930 . S
C370 C371 1.355 . S
C370 C372 1.415 . S
C371 C370 1.355 . S
C371 C373 1.419 . S
C372 C370 1.415 . S
C372 C377 1.425 1_554 S
C372 C379 1.409 1_554 S
C373 H365 0.930 . S
C373 C371 1.419 . S
C373 C374 1.362 . S
C374 H366 0.930 . S
C374 C373 1.362 . S
C374 C377 1.409 1_554 S
C375 H367 0.930 . S
C375 C376 1.355 . S
C375 C377 1.415 . S
C376 C375 1.355 . S
C376 C378 1.419 . S
C377 C372 1.425 1_556 S
C377 C374 1.409 1_556 S
C377 C375 1.415 . S
C378 H368 0.930 . S
C378 C376 1.419 . S
C378 C379 1.362 . S
C379 H369 0.930 . S
C379 C372 1.409 1_556 S
C379 C378 1.362 . S
H380 C386 0.930 . S
H381 C389 0.930 . S
H382 C390 0.932 1_565 S
H383 C391 0.930 . S
H384 C394 0.930 . S
H385 C395 0.932 1_545 S
C386 H380 0.930 . S
C386 C387 1.355 . S
C386 C388 1.415 . S
C387 C386 1.355 . S
C387 C389 1.419 . S
C388 C386 1.415 . S
C388 C393 1.425 1_544 S
C388 C395 1.401 1_544 S
C389 H381 0.930 . S
C389 C387 1.419 . S
C389 C390 1.368 . S
C390 H382 0.932 1_545 S
C390 C389 1.368 . S
C390 C393 1.401 1_544 S
C391 H383 0.930 . S
C391 C392 1.355 . S
C391 C393 1.415 . S
C392 C391 1.355 . S
C392 C394 1.419 . S
C393 C388 1.425 1_566 S
C393 C390 1.401 1_566 S
C393 C391 1.415 . S
C394 H384 0.930 . S
C394 C392 1.419 . S
C394 C395 1.368 . S
C395 H385 0.932 1_565 S
C395 C388 1.401 1_566 S
C395 C394 1.368 . S
H396 C402 0.930 . S
H397 C405 0.930 . S
H398 C406 0.930 . S
H399 C407 0.930 . S
H400 C410 0.930 . S
H401 C411 0.930 . S
C402 H396 0.930 . S
C402 C403 1.355 . S
C402 C404 1.415 . S
C403 C402 1.355 . S
C403 C405 1.419 . S
C404 C402 1.415 . S
C404 C409 1.425 . S
C404 C411 1.409 . S
C405 H397 0.930 . S
C405 C403 1.419 . S
C405 C406 1.362 . S
C406 H398 0.930 . S
C406 C405 1.362 . S
C406 C409 1.409 . S
C407 H399 0.930 . S
C407 C408 1.355 . S
C407 C409 1.415 . S
C408 C407 1.355 . S
C408 C410 1.419 . S
C409 C404 1.425 . S
C409 C406 1.409 . S
C409 C407 1.415 . S
C410 H400 0.930 . S
C410 C408 1.419 . S
C410 C411 1.362 . S
C411 H401 0.930 . S
C411 C404 1.409 . S
C411 C410 1.362 . S
H412 C418 0.930 . S
H413 C421 0.930 . S
H414 C422 0.930 . S
H415 C423 0.930 . S
H416 C426 0.930 . S
H417 C427 0.930 . S
C418 H412 0.930 . S
C418 C419 1.355 . S
C418 C420 1.415 . S
C419 C418 1.355 . S
C419 C421 1.419 . S
C420 C418 1.415 . S
C420 C425 1.425 . S
C420 C427 1.409 . S
C421 H413 0.930 . S
C421 C419 1.419 . S
C421 C422 1.362 . S
C422 H414 0.930 . S
C422 C421 1.362 . S
C422 C425 1.409 . S
C423 H415 0.930 . S
C423 C424 1.355 . S
C423 C425 1.415 . S
C424 C423 1.355 . S
C424 C426 1.419 . S
C425 C420 1.425 . S
C425 C422 1.409 . S
C425 C423 1.415 . S
C426 H416 0.930 . S
C426 C424 1.419 . S
C426 C427 1.362 . S
C427 H417 0.930 . S
C427 C420 1.409 . S
C427 C426 1.362 . S
H428 C434 0.930 . S
H429 C437 0.930 . S
H430 C438 0.930 . S
H431 C439 0.930 . S
H432 C442 0.930 . S
H433 C443 0.930 . S
C434 H428 0.930 . S
C434 C435 1.355 . S
C434 C436 1.415 . S
C435 C434 1.355 . S
C435 C437 1.419 . S
C436 C434 1.415 . S
C436 C441 1.425 . S
C436 C443 1.409 . S
C437 H429 0.930 . S
C437 C435 1.419 . S
C437 C438 1.362 . S
C438 H430 0.930 . S
C438 C437 1.362 . S
C438 C441 1.409 . S
C439 H431 0.930 . S
C439 C440 1.355 . S
C439 C441 1.415 . S
C440 C439 1.355 . S
C440 C442 1.419 . S
C441 C436 1.425 . S
C441 C438 1.409 . S
C441 C439 1.415 . S
C442 H432 0.930 . S
C442 C440 1.419 . S
C442 C443 1.362 . S
C443 H433 0.930 . S
C443 C436 1.409 . S
C443 C442 1.362 . S
H444 C450 0.930 . S
H445 C453 0.930 . S
H446 C454 0.930 . S
H447 C455 0.930 . S
H448 C458 0.930 . S
H449 C459 0.930 . S
C450 H444 0.930 . S
C450 C451 1.355 . S
C450 C452 1.415 . S
C451 C450 1.355 . S
C451 C453 1.419 . S
C452 C450 1.415 . S
C452 C457 1.425 . S
C452 C459 1.409 . S
C453 H445 0.930 . S
C453 C451 1.419 . S
C453 C454 1.362 . S
C454 H446 0.930 . S
C454 C453 1.362 . S
C454 C457 1.409 . S
C455 H447 0.930 . S
C455 C456 1.355 . S
C455 C457 1.415 . S
C456 C455 1.355 . S
C456 C458 1.419 . S
C457 C452 1.425 . S
C457 C454 1.409 . S
C457 C455 1.415 . S
C458 H448 0.930 . S
C458 C456 1.419 . S
C458 C459 1.362 . S
C459 H449 0.930 . S
C459 C452 1.409 . S
C459 C458 1.362 . S
H460 C466 0.930 . S
H461 C469 0.930 . S
H462 C470 0.930 . S
H463 C471 0.930 . S
H464 C474 0.930 . S
H465 C475 0.930 . S
C466 H460 0.930 . S
C466 C467 1.355 . S
C466 C468 1.415 . S
C467 C466 1.355 . S
C467 C469 1.419 . S
C468 C466 1.415 . S
C468 C473 1.425 . S
C468 C475 1.409 . S
C469 H461 0.930 . S
C469 C467 1.419 . S
C469 C470 1.362 . S
C470 H462 0.930 . S
C470 C469 1.362 . S
C470 C473 1.409 . S
C471 H463 0.930 . S
C471 C472 1.355 . S
C471 C473 1.415 . S
C472 C471 1.355 . S
C472 C474 1.419 . S
C473 C468 1.425 . S
C473 C470 1.409 . S
C473 C471 1.415 . S
C474 H464 0.930 . S
C474 C472 1.419 . S
C474 C475 1.362 . S
C475 H465 0.930 . S
C475 C468 1.409 . S
C475 C474 1.362 . S
H476 C482 0.930 . S
H477 C485 0.930 . S
H478 C486 0.930 . S
H479 C487 0.930 . S
H480 C490 0.930 . S
H481 C491 0.930 . S
C482 H476 0.930 . S
C482 C483 1.355 . S
C482 C484 1.415 . S
C483 C482 1.355 . S
C483 C485 1.419 . S
C484 C482 1.415 . S
C484 C489 1.425 . S
C484 C491 1.409 . S
C485 H477 0.930 . S
C485 C483 1.419 . S
C485 C486 1.362 . S
C486 H478 0.930 . S
C486 C485 1.362 . S
C486 C489 1.409 . S
C487 H479 0.930 . S
C487 C488 1.355 . S
C487 C489 1.415 . S
C488 C487 1.355 . S
C488 C490 1.419 . S
C489 C484 1.425 . S
C489 C486 1.409 . S
C489 C487 1.415 . S
C490 H480 0.930 . S
C490 C488 1.419 . S
C490 C491 1.362 . S
C491 H481 0.930 . S
C491 C484 1.409 . S
C491 C490 1.362 . S
H492 C498 0.930 . S
H493 C501 0.930 . S
H494 C502 0.930 . S
H495 C503 0.930 . S
H496 C506 0.930 . S
H497 C507 0.930 . S
C498 H492 0.930 . S
C498 C499 1.355 . S
C498 C500 1.415 1_655 S
C499 C498 1.355 . S
C499 C501 1.419 . S
C500 C498 1.415 1_455 S
C500 C505 1.425 1_455 S
C500 C507 1.409 . S
C501 H493 0.930 . S
C501 C499 1.419 . S
C501 C502 1.362 . S
C502 H494 0.930 . S
C502 C501 1.362 . S
C502 C505 1.409 . S
C503 H495 0.930 . S
C503 C504 1.355 . S
C503 C505 1.415 1_455 S
C504 C503 1.355 . S
C504 C506 1.419 . S
C505 C500 1.425 1_655 S
C505 C502 1.409 . S
C505 C503 1.415 1_655 S
C506 H496 0.930 . S
C506 C504 1.419 . S
C506 C507 1.362 . S
C507 H497 0.930 . S
C507 C500 1.409 . S
C507 C506 1.362 . S
H508 C514 0.930 . S
H509 C517 0.930 . S
H510 C518 0.930 . S
H511 C519 0.930 . S
H512 C522 0.930 . S
H513 C523 0.930 . S
C514 H508 0.930 . S
C514 C515 1.355 . S
C514 C516 1.415 . S
C515 C514 1.355 . S
C515 C517 1.419 . S
C516 C514 1.415 . S
C516 C521 1.425 . S
C516 C523 1.409 . S
C517 H509 0.930 . S
C517 C515 1.419 . S
C517 C518 1.362 . S
C518 H510 0.930 . S
C518 C517 1.362 . S
C518 C521 1.409 . S
C519 H511 0.930 . S
C519 C520 1.355 . S
C519 C521 1.415 . S
C520 C519 1.355 . S
C520 C522 1.419 . S
C521 C516 1.425 . S
C521 C518 1.409 . S
C521 C519 1.415 . S
C522 H512 0.930 . S
C522 C520 1.419 . S
C522 C523 1.362 . S
C523 H513 0.930 . S
C523 C516 1.409 . S
C523 C522 1.362 . S
H524 C530 0.930 . S
H525 C533 0.930 . S
H526 C534 0.930 . S
H527 C535 0.930 . S
H528 C538 0.930 . S
H529 C539 0.930 . S
C530 H524 0.930 . S
C530 C531 1.355 . S
C530 C532 1.415 . S
C531 C530 1.355 . S
C531 C533 1.419 . S
C532 C530 1.415 . S
C532 C537 1.425 1_565 S
C532 C539 1.409 . S
C533 H525 0.930 . S
C533 C531 1.419 . S
C533 C534 1.362 1_565 S
C534 H526 0.930 . S
C534 C533 1.362 1_545 S
C534 C537 1.409 . S
C535 H527 0.930 . S
C535 C536 1.355 . S
C535 C537 1.415 . S
C536 C535 1.355 . S
C536 C538 1.419 . S
C537 C532 1.425 1_545 S
C537 C534 1.409 . S
C537 C535 1.415 . S
C538 H528 0.930 . S
C538 C536 1.419 . S
C538 C539 1.362 1_545 S
C539 H529 0.930 . S
C539 C532 1.409 . S
C539 C538 1.362 1_565 S
H540 C546 0.930 . S
H541 C549 0.930 . S
H542 C550 0.930 . S
H543 C551 0.930 . S
H544 C554 0.930 . S
H545 C555 0.930 . S
C546 H540 0.930 . S
C546 C547 1.355 1_556 S
C546 C548 1.415 . S
C547 C546 1.355 1_554 S
C547 C549 1.419 . S
C548 C546 1.415 . S
C548 C553 1.425 1_556 S
C548 C555 1.409 . S
C549 H541 0.930 . S
C549 C547 1.419 . S
C549 C550 1.362 . S
C550 H542 0.930 . S
C550 C549 1.362 . S
C550 C553 1.409 . S
C551 H543 0.930 . S
C551 C552 1.355 1_554 S
C551 C553 1.415 . S
C552 C551 1.355 1_556 S
C552 C554 1.419 . S
C553 C548 1.425 1_554 S
C553 C550 1.409 . S
C553 C551 1.415 . S
C554 H544 0.930 . S
C554 C552 1.419 . S
C554 C555 1.362 . S
C555 H545 0.930 . S
C555 C548 1.409 . S
C555 C554 1.362 . S
H556 C562 0.930 . S
H557 C565 0.930 . S
H558 C566 0.930 . S
H559 C567 0.930 . S
H560 C570 0.930 . S
H561 C571 0.930 . S
C562 H556 0.930 . S
C562 C563 1.355 . S
C562 C564 1.415 . S
C563 C562 1.355 . S
C563 C565 1.419 . S
C564 C562 1.415 . S
C564 C569 1.425 1_546 S
C564 C571 1.409 1_546 S
C565 H557 0.930 . S
C565 C563 1.419 . S
C565 C566 1.362 . S
C566 H558 0.930 . S
C566 C565 1.362 . S
C566 C569 1.409 1_546 S
C567 H559 0.930 . S
C567 C568 1.355 . S
C567 C569 1.415 . S
C568 C567 1.355 . S
C568 C570 1.419 . S
C569 C564 1.425 1_564 S
C569 C566 1.409 1_564 S
C569 C567 1.415 . S
C570 H560 0.930 . S
C570 C568 1.419 . S
C570 C571 1.362 . S
C571 H561 0.930 . S
C571 C564 1.409 1_564 S
C571 C570 1.362 . S
H572 C578 0.930 . S
H573 C581 0.930 . S
H574 C582 0.930 . S
H575 C583 0.930 . S
H576 C586 0.930 . S
H577 C587 0.930 . S
C578 H572 0.930 . S
C578 C579 1.355 . S
C578 C580 1.415 . S
C579 C578 1.355 . S
C579 C581 1.419 . S
C580 C578 1.415 . S
C580 C585 1.425 1_656 S
C580 C587 1.409 1_656 S
C581 H573 0.930 . S
C581 C579 1.419 . S
C581 C582 1.362 . S
C582 H574 0.930 . S
C582 C581 1.362 . S
C582 C585 1.409 1_656 S
C583 H575 0.930 . S
C583 C584 1.355 . S
C583 C585 1.415 . S
C584 C583 1.355 . S
C584 C586 1.419 . S
C585 C580 1.425 1_454 S
C585 C582 1.409 1_454 S
C585 C583 1.415 . S
C586 H576 0.930 . S
C586 C584 1.419 . S
C586 C587 1.362 . S
C587 H577 0.930 . S
C587 C580 1.409 1_454 S
C587 C586 1.362 . S
H588 C594 0.930 . S
H589 C597 0.930 1_554 S
H590 C598 0.930 . S
H591 C599 0.930 . S
H592 C602 0.930 1_556 S
H593 C603 0.930 . S
C594 H588 0.930 . S
C594 C595 1.355 . S
C594 C596 1.415 . S
C595 C594 1.355 . S
C595 C597 1.419 . S
C596 C594 1.415 . S
C596 C601 1.425 1_556 S
C596 C603 1.409 . S
C597 H589 0.930 1_556 S
C597 C595 1.419 . S
C597 C598 1.362 1_556 S
C598 H590 0.930 . S
C598 C597 1.362 1_554 S
C598 C601 1.409 . S
C599 H591 0.930 . S
C599 C600 1.355 . S
C599 C601 1.415 . S
C600 C599 1.355 . S
C600 C602 1.419 . S
C601 C596 1.425 1_554 S
C601 C598 1.409 . S
C601 C599 1.415 . S
C602 H592 0.930 1_554 S
C602 C600 1.419 . S
C602 C603 1.362 1_554 S
C603 H593 0.930 . S
C603 C596 1.409 . S
C603 C602 1.362 1_556 S
H604 C610 0.930 . S
H605 C613 0.930 . S
H606 C614 0.930 . S
H607 C615 0.930 . S
H608 C618 0.930 . S
H609 C619 0.930 . S
C610 H604 0.930 . S
C610 C611 1.355 . S
C610 C612 1.415 . S
C611 C610 1.355 . S
C611 C613 1.419 1_554 S
C612 C610 1.415 . S
C612 C617 1.425 1_564 S
C612 C619 1.409 1_565 S
C613 H605 0.930 . S
C613 C611 1.419 1_556 S
C613 C614 1.362 . S
C614 H606 0.930 . S
C614 C613 1.362 . S
C614 C617 1.409 1_565 S
C615 H607 0.930 . S
C615 C616 1.355 . S
C615 C617 1.415 . S
C616 C615 1.355 . S
C616 C618 1.419 1_556 S
C617 C612 1.425 1_546 S
C617 C614 1.409 1_545 S
C617 C615 1.415 . S
C618 H608 0.930 . S
C618 C616 1.419 1_554 S
C618 C619 1.362 . S
C619 H609 0.930 . S
C619 C612 1.409 1_545 S
C619 C618 1.362 . S
H620 C626 0.930 . S
H621 C629 0.930 . S
H622 C630 0.930 . S
H623 C631 0.930 . S
H624 C634 0.930 . S
H625 C635 0.930 . S
C626 H620 0.930 . S
C626 C627 1.355 1_554 S
C626 C628 1.415 . S
C627 C626 1.355 1_556 S
C627 C629 1.419 . S
C628 C626 1.415 . S
C628 C633 1.425 1_654 S
C628 C635 1.409 1_655 S
C629 H621 0.930 . S
C629 C627 1.419 . S
C629 C630 1.362 . S
C630 H622 0.930 . S
C630 C629 1.362 . S
C630 C633 1.409 1_655 S
C631 H623 0.930 . S
C631 C632 1.355 1_556 S
C631 C633 1.415 . S
C632 C631 1.355 1_554 S
C632 C634 1.419 . S
C633 C628 1.425 1_456 S
C633 C630 1.409 1_455 S
C633 C631 1.415 . S
C634 H624 0.930 . S
C634 C632 1.419 . S
C634 C635 1.362 . S
C635 H625 0.930 . S
C635 C628 1.409 1_455 S
C635 C634 1.362 . S
H636 C642 0.930 . S
H637 C645 0.930 . S
H638 C646 0.930 . S
H639 C647 0.930 . S
H640 C650 0.930 . S
H641 C651 0.930 . S
C642 H636 0.930 . S
C642 C643 1.355 . S
C642 C644 1.415 . S
C643 C642 1.355 . S
C643 C645 1.419 . S
C644 C642 1.415 . S
C644 C649 1.425 . S
C644 C651 1.409 . S
C645 H637 0.930 . S
C645 C643 1.419 . S
C645 C646 1.362 . S
C646 H638 0.930 . S
C646 C645 1.362 . S
C646 C649 1.409 . S
C647 H639 0.930 . S
C647 C648 1.355 . S
C647 C649 1.415 . S
C648 C647 1.355 . S
C648 C650 1.419 . S
C649 C644 1.425 . S
C649 C646 1.409 . S
C649 C647 1.415 . S
C650 H640 0.930 . S
C650 C648 1.419 . S
C650 C651 1.362 . S
C651 H641 0.930 . S
C651 C644 1.409 . S
C651 C650 1.362 . S
H652 C658 0.930 . S
H653 C661 0.930 . S
H654 C662 0.930 . S
H655 C663 0.930 . S
H656 C666 0.930 . S
H657 C667 0.930 . S
C658 H652 0.930 . S
C658 C659 1.355 . S
C658 C660 1.415 . S
C659 C658 1.355 . S
C659 C661 1.419 . S
C660 C658 1.415 . S
C660 C665 1.425 . S
C660 C667 1.409 . S
C661 H653 0.930 . S
C661 C659 1.419 . S
C661 C662 1.362 . S
C662 H654 0.930 . S
C662 C661 1.362 . S
C662 C665 1.409 . S
C663 H655 0.930 . S
C663 C664 1.355 . S
C663 C665 1.415 . S
C664 C663 1.355 . S
C664 C666 1.419 . S
C665 C660 1.425 . S
C665 C662 1.409 . S
C665 C663 1.415 . S
C666 H656 0.930 . S
C666 C664 1.419 . S
C666 C667 1.362 . S
C667 H657 0.930 . S
C667 C660 1.409 . S
C667 C666 1.362 . S
H668 C674 0.930 . S
H669 C677 0.930 . S
H670 C678 0.930 . S
H671 C679 0.930 . S
H672 C682 0.930 . S
H673 C683 0.930 . S
C674 H668 0.930 . S
C674 C675 1.355 . S
C674 C676 1.415 . S
C675 C674 1.355 . S
C675 C677 1.419 . S
C676 C674 1.415 . S
C676 C681 1.425 . S
C676 C683 1.409 . S
C677 H669 0.930 . S
C677 C675 1.419 . S
C677 C678 1.362 . S
C678 H670 0.930 . S
C678 C677 1.362 . S
C678 C681 1.409 . S
C679 H671 0.930 . S
C679 C680 1.355 . S
C679 C681 1.415 . S
C680 C679 1.355 . S
C680 C682 1.419 . S
C681 C676 1.425 . S
C681 C678 1.409 . S
C681 C679 1.415 . S
C682 H672 0.930 . S
C682 C680 1.419 . S
C682 C683 1.362 . S
C683 H673 0.930 . S
C683 C676 1.409 . S
C683 C682 1.362 . S
H684 C690 0.930 . S
H685 C693 0.930 . S
H686 C694 0.930 . S
H687 C695 0.930 . S
H688 C698 0.930 . S
H689 C699 0.930 . S
C690 H684 0.930 . S
C690 C691 1.355 . S
C690 C692 1.415 . S
C691 C690 1.355 . S
C691 C693 1.419 . S
C692 C690 1.415 . S
C692 C697 1.425 . S
C692 C699 1.409 . S
C693 H685 0.930 . S
C693 C691 1.419 . S
C693 C694 1.362 . S
C694 H686 0.930 . S
C694 C693 1.362 . S
C694 C697 1.409 . S
C695 H687 0.930 . S
C695 C696 1.355 . S
C695 C697 1.415 . S
C696 C695 1.355 . S
C696 C698 1.419 . S
C697 C692 1.425 . S
C697 C694 1.409 . S
C697 C695 1.415 . S
C698 H688 0.930 . S
C698 C696 1.419 . S
C698 C699 1.362 . S
C699 H689 0.930 . S
C699 C692 1.409 . S
C699 C698 1.362 . S
H700 C706 0.930 . S
H701 C709 0.930 . S
H702 C710 0.930 . S
H703 C711 0.930 . S
H704 C714 0.930 . S
H705 C715 0.930 . S
C706 H700 0.930 . S
C706 C707 1.355 . S
C706 C708 1.415 . S
C707 C706 1.355 . S
C707 C709 1.419 . S
C708 C706 1.415 . S
C708 C713 1.425 . S
C708 C715 1.409 . S
C709 H701 0.930 . S
C709 C707 1.419 . S
C709 C710 1.362 . S
C710 H702 0.930 . S
C710 C709 1.362 . S
C710 C713 1.409 . S
C711 H703 0.930 . S
C711 C712 1.355 . S
C711 C713 1.415 . S
C712 C711 1.355 . S
C712 C714 1.419 . S
C713 C708 1.425 . S
C713 C710 1.409 . S
C713 C711 1.415 . S
C714 H704 0.930 . S
C714 C712 1.419 . S
C714 C715 1.362 . S
C715 H705 0.930 . S
C715 C708 1.409 . S
C715 C714 1.362 . S
H716 C722 0.930 . S
H717 C725 0.930 . S
H718 C726 0.930 . S
H719 C727 0.930 . S
H720 C730 0.930 . S
H721 C731 0.930 . S
C722 H716 0.930 . S
C722 C723 1.355 . S
C722 C724 1.415 . S
C723 C722 1.355 . S
C723 C725 1.419 . S
C724 C722 1.415 . S
C724 C729 1.425 . S
C724 C731 1.409 . S
C725 H717 0.930 . S
C725 C723 1.419 . S
C725 C726 1.362 . S
C726 H718 0.930 . S
C726 C725 1.362 . S
C726 C729 1.409 . S
C727 H719 0.930 . S
C727 C728 1.355 . S
C727 C729 1.415 . S
C728 C727 1.355 . S
C728 C730 1.419 . S
C729 C724 1.425 . S
C729 C726 1.409 . S
C729 C727 1.415 . S
C730 H720 0.930 . S
C730 C728 1.419 . S
C730 C731 1.362 . S
C731 H721 0.930 . S
C731 C724 1.409 . S
C731 C730 1.362 . S
H732 C738 0.930 . S
H733 C741 0.930 . S
H734 C742 0.930 . S
H735 C743 0.930 . S
H736 C746 0.930 . S
H737 C747 0.930 . S
C738 H732 0.930 . S
C738 C739 1.355 . S
C738 C740 1.415 . S
C739 C738 1.355 . S
C739 C741 1.419 . S
C740 C738 1.415 . S
C740 C745 1.425 . S
C740 C747 1.409 . S
C741 H733 0.930 . S
C741 C739 1.419 . S
C741 C742 1.362 . S
C742 H734 0.930 . S
C742 C741 1.362 . S
C742 C745 1.409 . S
C743 H735 0.930 . S
C743 C744 1.355 . S
C743 C745 1.415 . S
C744 C743 1.355 . S
C744 C746 1.419 . S
C745 C740 1.425 . S
C745 C742 1.409 . S
C745 C743 1.415 . S
C746 H736 0.930 . S
C746 C744 1.419 . S
C746 C747 1.362 . S
C747 H737 0.930 . S
C747 C740 1.409 . S
C747 C746 1.362 . S
H748 C754 0.930 . S
H749 C757 0.930 . S
H750 C758 0.930 . S
H751 C759 0.930 . S
H752 C762 0.930 . S
H753 C763 0.930 . S
C754 H748 0.930 . S
C754 C755 1.355 . S
C754 C756 1.415 . S
C755 C754 1.355 . S
C755 C757 1.419 . S
C756 C754 1.415 . S
C756 C761 1.425 . S
C756 C763 1.409 . S
C757 H749 0.930 . S
C757 C755 1.419 . S
C757 C758 1.362 . S
C758 H750 0.930 . S
C758 C757 1.362 . S
C758 C761 1.409 . S
C759 H751 0.930 . S
C759 C760 1.355 . S
C759 C761 1.415 . S
C760 C759 1.355 . S
C760 C762 1.419 . S
C761 C756 1.425 . S
C761 C758 1.409 . S
C761 C759 1.415 . S
C762 H752 0.930 . S
C762 C760 1.419 . S
C762 C763 1.362 . S
C763 H753 0.930 . S
C763 C756 1.409 . S
C763 C762 1.362 . S
H764 C770 0.930 . S
H765 C773 0.930 . S
H766 C774 0.930 . S
H767 C775 0.930 . S
H768 C778 0.930 . S
H769 C779 0.930 . S
C770 H764 0.930 . S
C770 C771 1.355 . S
C770 C772 1.415 . S
C771 C770 1.355 . S
C771 C773 1.419 . S
C772 C770 1.415 . S
C772 C777 1.425 . S
C772 C779 1.409 . S
C773 H765 0.930 . S
C773 C771 1.419 . S
C773 C774 1.362 . S
C774 H766 0.930 . S
C774 C773 1.362 . S
C774 C777 1.409 . S
C775 H767 0.930 . S
C775 C776 1.355 . S
C775 C777 1.415 . S
C776 C775 1.355 . S
C776 C778 1.419 . S
C777 C772 1.425 . S
C777 C774 1.409 . S
C777 C775 1.415 . S
C778 H768 0.930 . S
C778 C776 1.419 . S
C778 C779 1.362 . S
C779 H769 0.930 . S
C779 C772 1.409 . S
C779 C778 1.362 . S
H780 C786 0.930 . S
H781 C789 0.930 . S
H782 C790 0.930 . S
H783 C791 0.930 . S
H784 C794 0.930 . S
H785 C795 0.930 . S
C786 H780 0.930 . S
C786 C787 1.355 . S
C786 C788 1.415 . S
C787 C786 1.355 . S
C787 C789 1.419 . S
C788 C786 1.415 . S
C788 C793 1.425 . S
C788 C795 1.409 . S
C789 H781 0.930 . S
C789 C787 1.419 . S
C789 C790 1.362 . S
C790 H782 0.930 . S
C790 C789 1.362 . S
C790 C793 1.409 . S
C791 H783 0.930 . S
C791 C792 1.355 . S
C791 C793 1.415 . S
C792 C791 1.355 . S
C792 C794 1.419 . S
C793 C788 1.425 . S
C793 C790 1.409 . S
C793 C791 1.415 . S
C794 H784 0.930 . S
C794 C792 1.419 . S
C794 C795 1.362 . S
C795 H785 0.930 . S
C795 C788 1.409 . S
C795 C794 1.362 . S
H796 C802 0.930 . S
H797 C805 0.930 . S
H798 C806 0.930 . S
H799 C807 0.930 . S
H800 C810 0.930 . S
H801 C811 0.930 . S
C802 H796 0.930 . S
C802 C803 1.355 . S
C802 C804 1.415 . S
C803 C802 1.355 . S
C803 C805 1.419 . S
C804 C802 1.415 . S
C804 C809 1.425 . S
C804 C811 1.409 . S
C805 H797 0.930 . S
C805 C803 1.419 . S
C805 C806 1.362 . S
C806 H798 0.930 . S
C806 C805 1.362 . S
C806 C809 1.409 . S
C807 H799 0.930 . S
C807 C808 1.355 . S
C807 C809 1.415 . S
C808 C807 1.355 . S
C808 C810 1.419 . S
C809 C804 1.425 . S
C809 C806 1.409 . S
C809 C807 1.415 . S
C810 H800 0.930 . S
C810 C808 1.419 . S
C810 C811 1.362 . S
C811 H801 0.930 . S
C811 C804 1.409 . S
C811 C810 1.362 . S
H812 C818 0.930 . S
H813 C821 0.930 . S
H814 C822 0.930 . S
H815 C823 0.930 . S
H816 C826 0.930 . S
H817 C827 0.930 . S
C818 H812 0.930 . S
C818 C819 1.355 . S
C818 C820 1.415 . S
C819 C818 1.355 . S
C819 C821 1.419 . S
C820 C818 1.415 . S
C820 C825 1.425 . S
C820 C827 1.409 . S
C821 H813 0.930 . S
C821 C819 1.419 . S
C821 C822 1.362 . S
C822 H814 0.930 . S
C822 C821 1.362 . S
C822 C825 1.409 . S
C823 H815 0.930 . S
C823 C824 1.355 . S
C823 C825 1.415 . S
C824 C823 1.355 . S
C824 C826 1.419 . S
C825 C820 1.425 . S
C825 C822 1.409 . S
C825 C823 1.415 . S
C826 H816 0.930 . S
C826 C824 1.419 . S
C826 C827 1.362 . S
C827 H817 0.930 . S
C827 C820 1.409 . S
C827 C826 1.362 . S
C259 C249 1.622 . S
C264 C11 1.639 . S
C275 C221 1.634 . S
C280 C25 1.620 . S
C291 C235 1.635 . S
C296 C39 1.627 . S
C307 C109 1.626 . S
C312 C53 1.628 . S
C323 C123 1.637 . S
C328 C67 1.618 . S
C339 C81 1.640 . S
C344 C95 1.619 . S
C355 C137 1.629 . S
C360 C193 1.624 . S
C371 C151 1.636 . S
C376 C207 1.619 . S
C387 C165 1.618 . S
C392 C179 1.640 . S
C403 C8 1.171 . S
C408 C246 1.126 . S
C419 C218 1.138 . S
C424 C22 1.192 . S
C435 C36 1.192 . S
C440 C232 1.139 . S
C451 C106 1.126 . S
C456 C50 1.172 . S
C467 C64 1.191 . S
C472 C120 1.137 . S
C483 C78 1.204 . S
C488 C92 1.185 . S
C499 C134 1.126 . S
C504 C190 1.153 . S
C515 C204 1.203 . S
C520 C148 1.153 . S
C531 C176 1.207 . S
C536 C162 1.173 . S
C547 C13 1.369 . S
C552 C55 1.422 . S
C563 C69 1.428 . S
C568 C27 1.378 . S
C579 C83 1.349 . S
C584 C41 1.401 . S
C595 C77 1.454 . S
C600 C21 1.475 . S
C611 C35 1.451 . S
C616 C49 1.472 . S
C627 C63 1.477 . S
C632 C7 1.456 . S
C643 C97 1.332 . S
C648 C139 1.363 . S
C659 C153 1.441 . S
C664 C111 1.427 . S
C675 C167 1.333 . S
C680 C125 1.351 . S
C691 C161 1.469 . S
C696 C105 1.450 . S
C707 C119 1.471 . S
C712 C133 1.451 . S
C723 C147 1.480 . S
C728 C91 1.464 . S
C739 C223 1.421 . S
C744 C181 1.367 . S
C755 C237 1.342 . S
C760 C195 1.392 . S
C771 C209 1.336 . S
C776 C251 1.378 . S
C787 C245 1.450 . S
C792 C189 1.470 . S
C803 C203 1.448 . S
C808 C217 1.452 . S
C819 C231 1.467 . S
C824 C175 1.481 . S
