# Generated by pormake.
# Topology wgi, (5)-cn, num edge types: 1
# Building blocks:
#     Node 0, Type 0, BuildingBlock: XOMCOT_clean_sbu_1, # of connection points: 5
#     Node 1, Type 0, BuildingBlock: XOMCOT_clean_sbu_1, # of connection points: 5
#     Node 2, Type 0, BuildingBlock: XOMCOT_clean_sbu_1, # of connection points: 5
#     Node 3, Type 0, BuildingBlock: XOMCOT_clean_sbu_1, # of connection points: 5
#     Node 4, Type 0, BuildingBlock: XOMCOT_clean_sbu_1, # of connection points: 5
#     Node 5, Type 0, BuildingBlock: XOMCOT_clean_sbu_1, # of connection points: 5
#     Node 6, Type 0, BuildingBlock: XOMCOT_clean_sbu_1, # of connection points: 5
#     Node 7, Type 0, BuildingBlock: XOMCOT_clean_sbu_1, # of connection points: 5
#     Node 8, Type 0, BuildingBlock: XOMCOT_clean_sbu_1, # of connection points: 5
#     Node 9, Type 0, BuildingBlock: XOMCOT_clean_sbu_1, # of connection points: 5
#     Node 10, Type 0, BuildingBlock: XOMCOT_clean_sbu_1, # of connection points: 5
#     Node 11, Type 0, BuildingBlock: XOMCOT_clean_sbu_1, # of connection points: 5
#     Node 12, Type 0, BuildingBlock: XOMCOT_clean_sbu_1, # of connection points: 5
#     Node 13, Type 0, BuildingBlock: XOMCOT_clean_sbu_1, # of connection points: 5
#     Node 14, Type 0, BuildingBlock: XOMCOT_clean_sbu_1, # of connection points: 5
#     Node 15, Type 0, BuildingBlock: XOMCOT_clean_sbu_1, # of connection points: 5
#     Node 16, Type 0, BuildingBlock: XOMCOT_clean_sbu_1, # of connection points: 5
#     Node 17, Type 0, BuildingBlock: XOMCOT_clean_sbu_1, # of connection points: 5
#     Node 18, Type 0, BuildingBlock: XOMCOT_clean_sbu_1, # of connection points: 5
#     Node 19, Type 0, BuildingBlock: XOMCOT_clean_sbu_1, # of connection points: 5
#     Node 20, Type 0, BuildingBlock: XOMCOT_clean_sbu_1, # of connection points: 5
#     Node 21, Type 0, BuildingBlock: XOMCOT_clean_sbu_1, # of connection points: 5
#     Node 22, Type 0, BuildingBlock: XOMCOT_clean_sbu_1, # of connection points: 5
#     Node 23, Type 0, BuildingBlock: XOMCOT_clean_sbu_1, # of connection points: 5
#     Node 24, Type 0, BuildingBlock: XOMCOT_clean_sbu_1, # of connection points: 5
#     Node 25, Type 0, BuildingBlock: XOMCOT_clean_sbu_1, # of connection points: 5
#     Node 26, Type 0, BuildingBlock: XOMCOT_clean_sbu_1, # of connection points: 5
#     Node 27, Type 0, BuildingBlock: XOMCOT_clean_sbu_1, # of connection points: 5
#     Node 28, Type 0, BuildingBlock: XOMCOT_clean_sbu_1, # of connection points: 5
#     Node 29, Type 0, BuildingBlock: XOMCOT_clean_sbu_1, # of connection points: 5
#     Node 30, Type 0, BuildingBlock: XOMCOT_clean_sbu_1, # of connection points: 5
#     Node 31, Type 0, BuildingBlock: XOMCOT_clean_sbu_1, # of connection points: 5
#     Edge 32, Type (0, 0), BuildingBlock: ZUJKAS_clean_linker_0, # of connection points: 2
#     Edge 33, Type (0, 0), BuildingBlock: ZUJKAS_clean_linker_0, # of connection points: 2
#     Edge 34, Type (0, 0), BuildingBlock: ZUJKAS_clean_linker_0, # of connection points: 2
#     Edge 35, Type (0, 0), BuildingBlock: ZUJKAS_clean_linker_0, # of connection points: 2
#     Edge 36, Type (0, 0), BuildingBlock: ZUJKAS_clean_linker_0, # of connection points: 2
#     Edge 37, Type (0, 0), BuildingBlock: ZUJKAS_clean_linker_0, # of connection points: 2
#     Edge 38, Type (0, 0), BuildingBlock: ZUJKAS_clean_linker_0, # of connection points: 2
#     Edge 39, Type (0, 0), BuildingBlock: ZUJKAS_clean_linker_0, # of connection points: 2
#     Edge 40, Type (0, 0), BuildingBlock: ZUJKAS_clean_linker_0, # of connection points: 2
#     Edge 41, Type (0, 0), BuildingBlock: ZUJKAS_clean_linker_0, # of connection points: 2
#     Edge 42, Type (0, 0), BuildingBlock: ZUJKAS_clean_linker_0, # of connection points: 2
#     Edge 43, Type (0, 0), BuildingBlock: ZUJKAS_clean_linker_0, # of connection points: 2
#     Edge 44, Type (0, 0), BuildingBlock: ZUJKAS_clean_linker_0, # of connection points: 2
#     Edge 45, Type (0, 0), BuildingBlock: ZUJKAS_clean_linker_0, # of connection points: 2
#     Edge 46, Type (0, 0), BuildingBlock: ZUJKAS_clean_linker_0, # of connection points: 2
#     Edge 47, Type (0, 0), BuildingBlock: ZUJKAS_clean_linker_0, # of connection points: 2
#     Edge 48, Type (0, 0), BuildingBlock: ZUJKAS_clean_linker_0, # of connection points: 2
#     Edge 49, Type (0, 0), BuildingBlock: ZUJKAS_clean_linker_0, # of connection points: 2
#     Edge 50, Type (0, 0), BuildingBlock: ZUJKAS_clean_linker_0, # of connection points: 2
#     Edge 51, Type (0, 0), BuildingBlock: ZUJKAS_clean_linker_0, # of connection points: 2
#     Edge 52, Type (0, 0), BuildingBlock: ZUJKAS_clean_linker_0, # of connection points: 2
#     Edge 53, Type (0, 0), BuildingBlock: ZUJKAS_clean_linker_0, # of connection points: 2
#     Edge 54, Type (0, 0), BuildingBlock: ZUJKAS_clean_linker_0, # of connection points: 2
#     Edge 55, Type (0, 0), BuildingBlock: ZUJKAS_clean_linker_0, # of connection points: 2
#     Edge 56, Type (0, 0), BuildingBlock: ZUJKAS_clean_linker_0, # of connection points: 2
#     Edge 57, Type (0, 0), BuildingBlock: ZUJKAS_clean_linker_0, # of connection points: 2
#     Edge 58, Type (0, 0), BuildingBlock: ZUJKAS_clean_linker_0, # of connection points: 2
#     Edge 59, Type (0, 0), BuildingBlock: ZUJKAS_clean_linker_0, # of connection points: 2
#     Edge 60, Type (0, 0), BuildingBlock: ZUJKAS_clean_linker_0, # of connection points: 2
#     Edge 61, Type (0, 0), BuildingBlock: ZUJKAS_clean_linker_0, # of connection points: 2
#     Edge 62, Type (0, 0), BuildingBlock: ZUJKAS_clean_linker_0, # of connection points: 2
#     Edge 63, Type (0, 0), BuildingBlock: ZUJKAS_clean_linker_0, # of connection points: 2
#     Edge 64, Type (0, 0), BuildingBlock: ZUJKAS_clean_linker_0, # of connection points: 2
#     Edge 65, Type (0, 0), BuildingBlock: ZUJKAS_clean_linker_0, # of connection points: 2
#     Edge 66, Type (0, 0), BuildingBlock: ZUJKAS_clean_linker_0, # of connection points: 2
#     Edge 67, Type (0, 0), BuildingBlock: ZUJKAS_clean_linker_0, # of connection points: 2
#     Edge 68, Type (0, 0), BuildingBlock: ZUJKAS_clean_linker_0, # of connection points: 2
#     Edge 69, Type (0, 0), BuildingBlock: ZUJKAS_clean_linker_0, # of connection points: 2
#     Edge 70, Type (0, 0), BuildingBlock: ZUJKAS_clean_linker_0, # of connection points: 2
#     Edge 71, Type (0, 0), BuildingBlock: ZUJKAS_clean_linker_0, # of connection points: 2
#     Edge 72, Type (0, 0), BuildingBlock: ZUJKAS_clean_linker_0, # of connection points: 2
#     Edge 73, Type (0, 0), BuildingBlock: ZUJKAS_clean_linker_0, # of connection points: 2
#     Edge 74, Type (0, 0), BuildingBlock: ZUJKAS_clean_linker_0, # of connection points: 2
#     Edge 75, Type (0, 0), BuildingBlock: ZUJKAS_clean_linker_0, # of connection points: 2
#     Edge 76, Type (0, 0), BuildingBlock: ZUJKAS_clean_linker_0, # of connection points: 2
#     Edge 77, Type (0, 0), BuildingBlock: ZUJKAS_clean_linker_0, # of connection points: 2
#     Edge 78, Type (0, 0), BuildingBlock: ZUJKAS_clean_linker_0, # of connection points: 2
#     Edge 79, Type (0, 0), BuildingBlock: ZUJKAS_clean_linker_0, # of connection points: 2
#     Edge 80, Type (0, 0), BuildingBlock: ZUJKAS_clean_linker_0, # of connection points: 2
#     Edge 81, Type (0, 0), BuildingBlock: ZUJKAS_clean_linker_0, # of connection points: 2
#     Edge 82, Type (0, 0), BuildingBlock: ZUJKAS_clean_linker_0, # of connection points: 2
#     Edge 83, Type (0, 0), BuildingBlock: ZUJKAS_clean_linker_0, # of connection points: 2
#     Edge 84, Type (0, 0), BuildingBlock: ZUJKAS_clean_linker_0, # of connection points: 2
#     Edge 85, Type (0, 0), BuildingBlock: ZUJKAS_clean_linker_0, # of connection points: 2
#     Edge 86, Type (0, 0), BuildingBlock: ZUJKAS_clean_linker_0, # of connection points: 2
#     Edge 87, Type (0, 0), BuildingBlock: ZUJKAS_clean_linker_0, # of connection points: 2
#     Edge 88, Type (0, 0), BuildingBlock: ZUJKAS_clean_linker_0, # of connection points: 2
#     Edge 89, Type (0, 0), BuildingBlock: ZUJKAS_clean_linker_0, # of connection points: 2
#     Edge 90, Type (0, 0), BuildingBlock: ZUJKAS_clean_linker_0, # of connection points: 2
#     Edge 91, Type (0, 0), BuildingBlock: ZUJKAS_clean_linker_0, # of connection points: 2
#     Edge 92, Type (0, 0), BuildingBlock: ZUJKAS_clean_linker_0, # of connection points: 2
#     Edge 93, Type (0, 0), BuildingBlock: ZUJKAS_clean_linker_0, # of connection points: 2
#     Edge 94, Type (0, 0), BuildingBlock: ZUJKAS_clean_linker_0, # of connection points: 2
#     Edge 95, Type (0, 0), BuildingBlock: ZUJKAS_clean_linker_0, # of connection points: 2
#     Edge 96, Type (0, 0), BuildingBlock: ZUJKAS_clean_linker_0, # of connection points: 2
#     Edge 97, Type (0, 0), BuildingBlock: ZUJKAS_clean_linker_0, # of connection points: 2
#     Edge 98, Type (0, 0), BuildingBlock: ZUJKAS_clean_linker_0, # of connection points: 2
#     Edge 99, Type (0, 0), BuildingBlock: ZUJKAS_clean_linker_0, # of connection points: 2
#     Edge 100, Type (0, 0), BuildingBlock: ZUJKAS_clean_linker_0, # of connection points: 2
#     Edge 101, Type (0, 0), BuildingBlock: ZUJKAS_clean_linker_0, # of connection points: 2
#     Edge 102, Type (0, 0), BuildingBlock: ZUJKAS_clean_linker_0, # of connection points: 2
#     Edge 103, Type (0, 0), BuildingBlock: ZUJKAS_clean_linker_0, # of connection points: 2
#     Edge 104, Type (0, 0), BuildingBlock: ZUJKAS_clean_linker_0, # of connection points: 2
#     Edge 105, Type (0, 0), BuildingBlock: ZUJKAS_clean_linker_0, # of connection points: 2
#     Edge 106, Type (0, 0), BuildingBlock: ZUJKAS_clean_linker_0, # of connection points: 2
#     Edge 107, Type (0, 0), BuildingBlock: ZUJKAS_clean_linker_0, # of connection points: 2
#     Edge 108, Type (0, 0), BuildingBlock: ZUJKAS_clean_linker_0, # of connection points: 2
#     Edge 109, Type (0, 0), BuildingBlock: ZUJKAS_clean_linker_0, # of connection points: 2
#     Edge 110, Type (0, 0), BuildingBlock: ZUJKAS_clean_linker_0, # of connection points: 2
#     Edge 111, Type (0, 0), BuildingBlock: ZUJKAS_clean_linker_0, # of connection points: 2
# Relax obj value: 0.194
# Max RMSD: 0.150
# Mean RMSD: 0.150
data_MOF--net-wgi--node1-XOMCOT_clean_sbu_1--edge1-ZUJKAS_clean_linker_0
_symmetry_space_group_name_H-M    P1
_symmetry_Int_Tables_number       1
_symmetry_cell_setting            triclinic
loop_
_symmetry_equiv_pos_as_xyz
'x, y, z'
_cell_length_a     94.302111
_cell_length_b     94.302815
_cell_length_c     35.293597
_cell_angle_alpha  89.990464
_cell_angle_beta   89.985537
_cell_angle_gamma 90.022873
loop_
_atom_site_label
_atom_site_type_symbol
_atom_site_fract_x
_atom_site_fract_y
_atom_site_fract_z
_atom_type_partial_charge
C0 C 0.11882 0.1787 0.43175 0.0
C1 C 0.10459 0.17626 0.43709 0.0
N2 N 0.10124 0.16379 0.42069 0.0
N3 N 0.12438 0.16791 0.4116 0.0
C4 C 0.11346 0.15895 0.40547 0.0
H5 H 0.12485 0.18754 0.44278 0.0
Co6 Co 0.14344 0.16523 0.40125 0.0
C7 C 0.144 0.15921 0.31923 0.0
O8 O 0.15425 0.16864 0.3173 0.0
N9 N 0.16305 0.16198 0.39307 0.0
C10 C 0.18333 0.15069 0.38057 0.0
C11 C 0.16913 0.15158 0.37218 0.0
C12 C 0.17376 0.16662 0.41545 0.0
N13 N 0.18619 0.1601 0.40807 0.0
O14 O 0.14257 0.14758 0.42828 0.0
H15 H 0.1635 0.14416 0.35441 0.0
H16 H 0.1723 0.17378 0.43898 0.0
O17 O 0.1386 0.15615 0.35169 0.0
C18 C 0.14598 0.15024 0.46257 0.0
O19 O 0.14956 0.16328 0.47152 0.0
N20 N 0.14398 0.18356 0.37845 0.0
C21 C 0.14058 0.21229 0.3602 0.0
C22 C 0.13215 0.20189 0.34291 0.0
C23 C 0.13389 0.18764 0.35274 0.0
C24 C 0.15236 0.19358 0.39505 0.0
C25 C 0.15106 0.2079 0.38579 0.0
H26 H 0.12639 0.18004 0.34165 0.0
H27 H 0.15934 0.19081 0.41783 0.0
H28 H 0.11457 0.14891 0.39092 0.0
H29 H 0.09741 0.18286 0.45326 0.0
H30 H 0.19068 0.14286 0.3697 0.0
H31 H 0.12361 0.20477 0.32392 0.0
H32 H 0.15777 0.21553 0.40008 0.0
C33 C 0.06915 0.86912 0.67184 0.0
C34 C 0.0712 0.85475 0.67535 0.0
N35 N 0.08361 0.85138 0.65864 0.0
N36 N 0.08013 0.87476 0.65262 0.0
C37 C 0.08881 0.86374 0.64513 0.0
H38 H 0.06042 0.87516 0.68345 0.0
Co39 Co 0.0831 0.8939 0.64436 0.0
C40 C 0.09116 0.89609 0.56395 0.0
O41 O 0.08223 0.90678 0.56229 0.0
N42 N 0.08661 0.91355 0.63806 0.0
C43 C 0.09949 0.93325 0.63171 0.0
C44 C 0.09857 0.91911 0.62291 0.0
C45 C 0.0808 0.92453 0.65729 0.0
N46 N 0.08836 0.93663 0.65373 0.0
O47 O 0.10023 0.89269 0.67351 0.0
H48 H 0.10686 0.91306 0.60931 0.0
H49 H 0.07203 0.92345 0.67658 0.0
O50 O 0.09307 0.8897 0.59573 0.0
C51 C 0.09709 0.89653 0.70717 0.0
O52 O 0.084 0.90049 0.71427 0.0
N53 N 0.06527 0.89475 0.61956 0.0
C54 C 0.03688 0.89136 0.59805 0.0
C55 C 0.04775 0.88432 0.57852 0.0
C56 C 0.0618 0.88589 0.59025 0.0
C57 C 0.05479 0.90163 0.63879 0.0
C58 C 0.0406 0.90032 0.6281 0.0
H59 H 0.06968 0.87912 0.57744 0.0
H60 H 0.05712 0.90699 0.66489 0.0
H61 H 0.09887 0.86485 0.63067 0.0
H62 H 0.06434 0.84747 0.69038 0.0
H63 H 0.10839 0.94011 0.62548 0.0
H64 H 0.04536 0.87707 0.55561 0.0
H65 H 0.03254 0.90541 0.64522 0.0
C66 C 0.37901 0.81762 0.90878 0.0
C67 C 0.39284 0.82128 0.91583 0.0
N68 N 0.3954 0.8339 0.89932 0.0
N69 N 0.37288 0.82783 0.88765 0.0
C70 C 0.38314 0.83762 0.88219 0.0
H71 H 0.37356 0.80841 0.91978 0.0
Co72 Co 0.35351 0.82882 0.87808 0.0
C73 C 0.35319 0.83513 0.79458 0.0
O74 O 0.34523 0.82394 0.78937 0.0
N75 N 0.3334 0.82977 0.87029 0.0
C76 C 0.31096 0.82416 0.85657 0.0
C77 C 0.3249 0.82179 0.84779 0.0
C78 C 0.32408 0.83678 0.8928 0.0
N79 N 0.31043 0.83347 0.8853 0.0
O80 O 0.35322 0.84683 0.90392 0.0
H81 H 0.32835 0.8135 0.82889 0.0
H82 H 0.32714 0.8433 0.91652 0.0
O83 O 0.35733 0.8383 0.8282 0.0
C84 C 0.35363 0.84426 0.93946 0.0
O85 O 0.35308 0.83101 0.95092 0.0
N86 N 0.35433 0.81044 0.85767 0.0
C87 C 0.35911 0.78148 0.84716 0.0
C88 C 0.36661 0.79159 0.82581 0.0
C89 C 0.36418 0.80605 0.8318 0.0
C90 C 0.34689 0.80075 0.87835 0.0
C91 C 0.34882 0.78628 0.87283 0.0
H92 H 0.37092 0.81368 0.81772 0.0
H93 H 0.33984 0.8043 0.90058 0.0
H94 H 0.38139 0.84767 0.86813 0.0
H95 H 0.40033 0.81528 0.93264 0.0
H96 H 0.30197 0.81868 0.84438 0.0
H97 H 0.37496 0.78841 0.80652 0.0
H98 H 0.34272 0.77892 0.88984 0.0
C99 C 0.43049 0.13061 0.17078 0.0
C100 C 0.42835 0.14476 0.17826 0.0
N101 N 0.4154 0.14837 0.16536 0.0
N102 N 0.41895 0.12535 0.15317 0.0
C103 C 0.40993 0.13641 0.15021 0.0
H104 H 0.43972 0.12443 0.17845 0.0
Co105 Co 0.41592 0.10642 0.14138 0.0
C106 C 0.39297 0.10794 0.08359 0.0
O107 O 0.38533 0.09855 0.10204 0.0
N108 N 0.41299 0.08723 0.13032 0.0
C109 C 0.41131 0.06619 0.1022 0.0
C110 C 0.41305 0.08055 0.09649 0.0
C111 C 0.41139 0.07674 0.15599 0.0
N112 N 0.41024 0.06384 0.13977 0.0
O113 O 0.3997 0.10647 0.17479 0.0
H114 H 0.41451 0.08576 0.06945 0.0
H115 H 0.41162 0.07845 0.18622 0.0
O116 O 0.40483 0.11198 0.09721 0.0
C117 C 0.40453 0.10499 0.20842 0.0
O118 O 0.41829 0.10335 0.21258 0.0
N119 N 0.43248 0.10639 0.11236 0.0
C120 C 0.46019 0.10991 0.08664 0.0
C121 C 0.44904 0.11778 0.07069 0.0
C122 C 0.43521 0.11588 0.08405 0.0
C123 C 0.443 0.09803 0.12644 0.0
C124 C 0.4569 0.09949 0.11366 0.0
H125 H 0.42697 0.12287 0.07388 0.0
H126 H 0.44075 0.09082 0.14951 0.0
H127 H 0.39934 0.13554 0.13865 0.0
H128 H 0.43572 0.15181 0.19234 0.0
H129 H 0.4109 0.05814 0.08038 0.0
H130 H 0.4511 0.12607 0.0502 0.0
H131 H 0.46513 0.09305 0.12638 0.0
C132 C 0.123 0.82579 0.09001 0.0
C133 C 0.10883 0.82746 0.08216 0.0
N134 N 0.10434 0.83951 0.09883 0.0
N135 N 0.1274 0.83666 0.11182 0.0
C136 C 0.11582 0.84486 0.11675 0.0
H137 H 0.12981 0.81747 0.07934 0.0
Co138 Co 0.14611 0.84053 0.1238 0.0
C139 C 0.1459 0.84669 0.2055 0.0
O140 O 0.15683 0.83808 0.20755 0.0
N141 N 0.16536 0.84498 0.13367 0.0
C142 C 0.18442 0.85825 0.14582 0.0
C143 C 0.17023 0.8564 0.15293 0.0
C144 C 0.1768 0.84054 0.11375 0.0
N145 N 0.18854 0.84832 0.12079 0.0
O146 O 0.1444 0.85813 0.097 0.0
H147 H 0.16371 0.86377 0.16859 0.0
H148 H 0.17619 0.83293 0.091 0.0
O149 O 0.14026 0.84923 0.17302 0.0
C150 C 0.14868 0.856 0.06316 0.0
O151 O 0.15382 0.84347 0.05447 0.0
N152 N 0.14745 0.82224 0.14629 0.0
C153 C 0.14437 0.79327 0.16195 0.0
C154 C 0.13624 0.8034 0.18126 0.0
C155 C 0.13769 0.81774 0.17241 0.0
C156 C 0.15569 0.81252 0.12802 0.0
C157 C 0.15449 0.79804 0.1358 0.0
H158 H 0.13011 0.82504 0.18444 0.0
H159 H 0.1622 0.81567 0.10451 0.0
H160 H 0.11603 0.85498 0.13122 0.0
H161 H 0.10241 0.82051 0.06482 0.0
H162 H 0.19092 0.86684 0.15641 0.0
H163 H 0.12818 0.80022 0.20142 0.0
H164 H 0.16061 0.79061 0.11908 0.0
C165 C 0.42214 0.86778 0.32497 0.0
C166 C 0.42103 0.85333 0.32107 0.0
N167 N 0.40932 0.84898 0.33967 0.0
N168 N 0.4113 0.87251 0.34636 0.0
C169 C 0.40359 0.86086 0.35467 0.0
H170 H 0.43015 0.8745 0.3123 0.0
Co171 Co 0.4075 0.89144 0.35593 0.0
C172 C 0.40165 0.89256 0.43804 0.0
O173 O 0.41034 0.90346 0.43875 0.0
N174 N 0.40314 0.9109 0.36322 0.0
C175 C 0.39029 0.93039 0.37379 0.0
C176 C 0.39198 0.91629 0.38257 0.0
C177 C 0.40755 0.9219 0.34152 0.0
N178 N 0.40011 0.93389 0.34778 0.0
O179 O 0.38974 0.88929 0.32988 0.0
H180 H 0.38471 0.91018 0.39972 0.0
H181 H 0.41493 0.92083 0.31832 0.0
O182 O 0.39897 0.88649 0.40619 0.0
C183 C 0.39157 0.89301 0.29544 0.0
O184 O 0.40408 0.89773 0.28506 0.0
N185 N 0.4259 0.89318 0.3779 0.0
C186 C 0.45496 0.8908 0.39377 0.0
C187 C 0.445 0.88239 0.41294 0.0
C188 C 0.43059 0.88363 0.40434 0.0
C189 C 0.43547 0.90159 0.3596 0.0
C190 C 0.44993 0.90084 0.36774 0.0
H191 H 0.42338 0.87603 0.41673 0.0
H192 H 0.43227 0.90803 0.33611 0.0
H193 H 0.39384 0.86114 0.37086 0.0
H194 H 0.42801 0.84663 0.30458 0.0
H195 H 0.382 0.93728 0.38426 0.0
H196 H 0.44834 0.87415 0.43236 0.0
H197 H 0.45717 0.90754 0.35204 0.0
C198 C 0.38203 0.17519 0.59126 0.0
C199 C 0.3962 0.17286 0.58469 0.0
N200 N 0.40002 0.16089 0.60287 0.0
N201 N 0.37697 0.16482 0.61377 0.0
C202 C 0.38815 0.15623 0.62038 0.0
H203 H 0.37569 0.18367 0.57951 0.0
Co204 Co 0.35797 0.16235 0.62509 0.0
C205 C 0.35754 0.15655 0.70715 0.0
O206 O 0.34749 0.1662 0.70871 0.0
N207 N 0.33836 0.15943 0.63412 0.0
C208 C 0.31799 0.14832 0.64687 0.0
C209 C 0.33225 0.14897 0.65474 0.0
C210 C 0.3276 0.16441 0.61252 0.0
N211 N 0.31512 0.15799 0.61998 0.0
O212 O 0.35842 0.14464 0.59814 0.0
H213 H 0.33789 0.14135 0.67192 0.0
H214 H 0.32903 0.1717 0.58929 0.0
O215 O 0.36289 0.15323 0.6748 0.0
C216 C 0.3548 0.14751 0.56411 0.0
O217 O 0.35143 0.16067 0.5558 0.0
N218 N 0.35787 0.18075 0.64739 0.0
C219 C 0.36201 0.20951 0.66419 0.0
C220 C 0.36996 0.19901 0.68259 0.0
C221 C 0.36793 0.18475 0.67329 0.0
C222 C 0.35002 0.19089 0.62953 0.0
C223 C 0.35172 0.20525 0.63795 0.0
H224 H 0.37515 0.17704 0.68511 0.0
H225 H 0.34334 0.18815 0.60609 0.0
H226 H 0.38741 0.1464 0.63609 0.0
H227 H 0.40309 0.17939 0.56744 0.0
H228 H 0.31059 0.1405 0.65754 0.0
H229 H 0.37818 0.2018 0.70269 0.0
H230 H 0.34577 0.21298 0.62179 0.0
C231 C 0.07138 0.13062 0.84985 0.0
C232 C 0.07353 0.14488 0.84417 0.0
N233 N 0.08599 0.14851 0.86022 0.0
N234 N 0.08233 0.12533 0.86986 0.0
C235 C 0.09111 0.13643 0.87557 0.0
H236 H 0.06263 0.1244 0.83912 0.0
Co237 Co 0.08535 0.10634 0.88027 0.0
C238 C 0.09193 0.10578 0.96183 0.0
O239 O 0.08266 0.09539 0.96398 0.0
N240 N 0.08894 0.0868 0.88839 0.0
C241 C 0.10073 0.0667 0.89953 0.0
C242 C 0.09972 0.08088 0.90816 0.0
C243 C 0.08415 0.07604 0.86647 0.0
N244 N 0.09096 0.06369 0.87301 0.0
O245 O 0.10281 0.10743 0.85239 0.0
H246 H 0.10728 0.08663 0.92526 0.0
H247 H 0.07669 0.07745 0.84366 0.0
O248 O 0.09468 0.11133 0.92936 0.0
C249 C 0.09998 0.10392 0.81828 0.0
O250 O 0.08693 0.10014 0.81 0.0
N251 N 0.06718 0.1056 0.90398 0.0
C252 C 0.03843 0.10924 0.92173 0.0
C253 C 0.04885 0.11768 0.93893 0.0
C254 C 0.06312 0.11577 0.92949 0.0
C255 C 0.05715 0.09709 0.8879 0.0
C256 C 0.04285 0.09846 0.89709 0.0
H257 H 0.07074 0.1233 0.94035 0.0
H258 H 0.05984 0.09002 0.86532 0.0
H259 H 0.10122 0.13554 0.88989 0.0
H260 H 0.06675 0.15188 0.828 0.0
H261 H 0.10883 0.05949 0.90961 0.0
H262 H 0.04599 0.12641 0.95732 0.0
H263 H 0.03524 0.09165 0.88309 0.0
C264 C 0.8776 0.82369 0.58933 0.0
C265 C 0.89179 0.82597 0.58295 0.0
N266 N 0.8955 0.83828 0.59969 0.0
N267 N 0.87242 0.83441 0.61041 0.0
C268 C 0.88352 0.84317 0.61612 0.0
H269 H 0.87131 0.81501 0.57835 0.0
Co270 Co 0.85349 0.83722 0.62196 0.0
C271 C 0.85374 0.84348 0.70394 0.0
O272 O 0.84353 0.83403 0.70658 0.0
N273 N 0.83396 0.84055 0.63122 0.0
C274 C 0.81374 0.85169 0.64483 0.0
C275 C 0.82798 0.85084 0.65258 0.0
C276 C 0.82314 0.83592 0.60926 0.0
N277 N 0.81068 0.84233 0.61723 0.0
O278 O 0.8542 0.85473 0.59396 0.0
H279 H 0.83367 0.85817 0.67051 0.0
H280 H 0.82465 0.82904 0.58516 0.0
O281 O 0.85881 0.84652 0.67107 0.0
C282 C 0.85087 0.85159 0.55988 0.0
O283 O 0.84744 0.8384 0.55222 0.0
N284 N 0.85311 0.819 0.64545 0.0
C285 C 0.857 0.7903 0.6635 0.0
C286 C 0.86564 0.80078 0.67967 0.0
C287 C 0.86363 0.815 0.67002 0.0
C288 C 0.84443 0.80892 0.63026 0.0
C289 C 0.84598 0.79461 0.63946 0.0
H290 H 0.87126 0.82266 0.68014 0.0
H291 H 0.83694 0.81163 0.60857 0.0
H292 H 0.8827 0.85312 0.63124 0.0
H293 H 0.89867 0.81938 0.56587 0.0
H294 H 0.80645 0.85924 0.6572 0.0
H295 H 0.87455 0.79799 0.6975 0.0
H296 H 0.83905 0.78693 0.62618 0.0
C297 C 0.92738 0.12871 0.36136 0.0
C298 C 0.92516 0.14295 0.35575 0.0
N299 N 0.91268 0.14648 0.37182 0.0
N300 N 0.91647 0.12333 0.38135 0.0
C301 C 0.90762 0.13436 0.3871 0.0
H302 H 0.93619 0.12256 0.35062 0.0
Co303 Co 0.91375 0.10429 0.3918 0.0
C304 C 0.90712 0.10358 0.47353 0.0
O305 O 0.9165 0.0933 0.4757 0.0
N306 N 0.91057 0.08469 0.40001 0.0
C307 C 0.89911 0.06446 0.4115 0.0
C308 C 0.89988 0.07865 0.41981 0.0
C309 C 0.9156 0.07395 0.37841 0.0
N310 N 0.90894 0.06149 0.385 0.0
O311 O 0.89622 0.1051 0.36419 0.0
H312 H 0.89222 0.08431 0.43683 0.0
H313 H 0.92286 0.07555 0.35519 0.0
O314 O 0.90434 0.10911 0.44103 0.0
C315 C 0.8989 0.10161 0.32998 0.0
O316 O 0.91191 0.09783 0.32126 0.0
N317 N 0.93194 0.10389 0.41518 0.0
C318 C 0.96055 0.1083 0.43335 0.0
C319 C 0.94981 0.11588 0.45191 0.0
C320 C 0.93567 0.11377 0.44184 0.0
C321 C 0.94227 0.0962 0.39755 0.0
C322 C 0.95657 0.09808 0.40653 0.0
H323 H 0.92785 0.12089 0.45356 0.0
H324 H 0.9397 0.08953 0.37388 0.0
H325 H 0.89752 0.13341 0.40147 0.0
H326 H 0.93192 0.15002 0.33968 0.0
H327 H 0.89126 0.0572 0.42251 0.0
H328 H 0.95234 0.12395 0.47265 0.0
H329 H 0.96448 0.09234 0.3904 0.0
C330 C 0.6141 0.18424 0.10728 0.0
C331 C 0.60068 0.1821 0.09323 0.0
N332 N 0.59881 0.16809 0.08799 0.0
N333 N 0.62065 0.17161 0.11184 0.0
C334 C 0.61116 0.16204 0.09856 0.0
H335 H 0.61876 0.19446 0.11334 0.0
Co336 Co 0.63967 0.16848 0.1264 0.0
C337 C 0.62301 0.1523 0.18713 0.0
O338 O 0.6106 0.15575 0.17318 0.0
N339 N 0.65866 0.16569 0.13883 0.0
C340 C 0.67938 0.16358 0.16834 0.0
C341 C 0.66489 0.1645 0.17309 0.0
C342 C 0.6695 0.16567 0.11391 0.0
N343 N 0.68222 0.16439 0.13099 0.0
O344 O 0.6404 0.15243 0.09278 0.0
H345 H 0.65934 0.16486 0.19984 0.0
H346 H 0.66812 0.16677 0.0837 0.0
O347 O 0.63437 0.15652 0.17065 0.0
C348 C 0.64223 0.15716 0.05922 0.0
O349 O 0.64336 0.17096 0.05464 0.0
N350 N 0.63947 0.18493 0.15618 0.0
C351 C 0.63678 0.21254 0.18331 0.0
C352 C 0.62943 0.20134 0.20063 0.0
C353 C 0.63091 0.18755 0.1866 0.0
C354 C 0.64746 0.19551 0.14082 0.0
C355 C 0.64638 0.20936 0.15416 0.0
H356 H 0.62431 0.17938 0.19841 0.0
H357 H 0.65405 0.19334 0.11643 0.0
H358 H 0.61322 0.15076 0.09729 0.0
H359 H 0.59282 0.19024 0.08812 0.0
H360 H 0.68721 0.16291 0.19069 0.0
H361 H 0.62178 0.20332 0.22291 0.0
H362 H 0.65245 0.21764 0.14035 0.0
C363 C 0.56936 0.86918 0.83954 0.0
C364 C 0.57161 0.85494 0.83378 0.0
N365 N 0.58335 0.85111 0.85306 0.0
N366 N 0.57955 0.87426 0.8626 0.0
C367 C 0.58793 0.86304 0.87034 0.0
H368 H 0.5611 0.87555 0.82679 0.0
Co369 Co 0.58262 0.89322 0.87342 0.0
C370 C 0.58709 0.89329 0.95624 0.0
O371 O 0.57764 0.90353 0.95776 0.0
N372 N 0.58628 0.91266 0.88192 0.0
C373 C 0.59732 0.9329 0.89624 0.0
C374 C 0.59581 0.91882 0.90544 0.0
C375 C 0.58286 0.92313 0.85738 0.0
N376 N 0.58922 0.93554 0.86576 0.0
O377 O 0.60074 0.89177 0.84931 0.0
H378 H 0.60234 0.91332 0.9258 0.0
H379 H 0.57663 0.92147 0.83207 0.0
O380 O 0.59061 0.88813 0.92389 0.0
C381 C 0.59898 0.89434 0.81415 0.0
O382 O 0.58625 0.89765 0.80202 0.0
N383 N 0.56391 0.89436 0.89357 0.0
C384 C 0.53478 0.89191 0.90783 0.0
C385 C 0.54452 0.88293 0.92585 0.0
C386 C 0.55898 0.88421 0.91803 0.0
C387 C 0.55455 0.90334 0.87646 0.0
C388 C 0.54003 0.90248 0.8837 0.0
H389 H 0.5661 0.87637 0.92971 0.0
H390 H 0.55803 0.91056 0.85489 0.0
H391 H 0.59764 0.8638 0.88655 0.0
H392 H 0.56524 0.84801 0.81623 0.0
H393 H 0.60472 0.94029 0.9089 0.0
H394 H 0.54097 0.87432 0.94381 0.0
H395 H 0.53292 0.90962 0.86898 0.0
C396 C 0.87842 0.17701 0.9412 0.0
C397 C 0.8927 0.17503 0.94673 0.0
N398 N 0.89649 0.16281 0.92971 0.0
N399 N 0.87326 0.16615 0.92057 0.0
C400 C 0.8845 0.15765 0.91398 0.0
H401 H 0.87207 0.18557 0.95253 0.0
Co402 Co 0.85424 0.163 0.9115 0.0
C403 C 0.85264 0.15462 0.8311 0.0
O404 O 0.84192 0.16349 0.82875 0.0
N405 N 0.83465 0.1594 0.9048 0.0
C406 C 0.81478 0.14677 0.89842 0.0
C407 C 0.82888 0.14767 0.88898 0.0
C408 C 0.82386 0.16505 0.92511 0.0
N409 N 0.81167 0.15765 0.92156 0.0
O410 O 0.85545 0.14597 0.94122 0.0
H411 H 0.83477 0.13947 0.8745 0.0
H412 H 0.82517 0.17356 0.94517 0.0
O413 O 0.8588 0.15281 0.86327 0.0
C414 C 0.85175 0.149 0.97507 0.0
O415 O 0.84758 0.162 0.98244 0.0
N416 N 0.85347 0.18073 0.88592 0.0
C417 C 0.85763 0.20901 0.86412 0.0
C418 C 0.86471 0.19796 0.84547 0.0
C419 C 0.86276 0.18399 0.85736 0.0
C420 C 0.84634 0.19137 0.90386 0.0
C421 C 0.84806 0.20551 0.89304 0.0
H422 H 0.86963 0.17599 0.8455 0.0
H423 H 0.84042 0.18922 0.9292 0.0
H424 H 0.88374 0.14751 0.89973 0.0
H425 H 0.8997 0.18192 0.96258 0.0
H426 H 0.80776 0.13803 0.89181 0.0
H427 H 0.87235 0.20015 0.82331 0.0
H428 H 0.84283 0.2137 0.9094 0.0
C429 C 0.57505 0.12994 0.67562 0.0
C430 C 0.57674 0.14428 0.68098 0.0
N431 N 0.58893 0.14832 0.66411 0.0
N432 N 0.58601 0.12499 0.65503 0.0
C433 C 0.59435 0.13638 0.64864 0.0
H434 H 0.56658 0.12344 0.68681 0.0
Co435 Co 0.5894 0.10607 0.64418 0.0
C436 C 0.59615 0.10599 0.56278 0.0
O437 O 0.58689 0.09562 0.55982 0.0
N438 N 0.59334 0.08661 0.63557 0.0
C439 C 0.60512 0.06661 0.62292 0.0
C440 C 0.60394 0.08081 0.61479 0.0
C441 C 0.58891 0.07575 0.65771 0.0
N442 N 0.5957 0.0635 0.6502 0.0
O443 O 0.60682 0.10737 0.67192 0.0
H444 H 0.6113 0.08665 0.59727 0.0
H445 H 0.58168 0.07699 0.68119 0.0
O446 O 0.59867 0.1114 0.59549 0.0
C447 C 0.60391 0.10376 0.7059 0.0
O448 O 0.59083 0.10002 0.71394 0.0
N449 N 0.57125 0.10505 0.62057 0.0
C450 C 0.54235 0.10818 0.60382 0.0
C451 C 0.55253 0.11689 0.58646 0.0
C452 C 0.56688 0.11522 0.5954 0.0
C453 C 0.56146 0.09627 0.63665 0.0
C454 C 0.54709 0.0974 0.62798 0.0
H455 H 0.57433 0.12292 0.58447 0.0
H456 H 0.56441 0.08913 0.65888 0.0
H457 H 0.60433 0.13583 0.63358 0.0
H458 H 0.56982 0.15108 0.69736 0.0
H459 H 0.61311 0.05943 0.61206 0.0
H460 H 0.54941 0.12561 0.56836 0.0
H461 H 0.53968 0.09038 0.64204 0.0
C462 C 0.61498 0.82363 0.42958 0.0
C463 C 0.60064 0.8258 0.43338 0.0
N464 N 0.59699 0.83723 0.41256 0.0
N465 N 0.62035 0.83355 0.40619 0.0
C466 C 0.6092 0.84174 0.39643 0.0
H467 H 0.62119 0.81556 0.44365 0.0
Co468 Co 0.63945 0.8358 0.39585 0.0
C469 C 0.64052 0.84174 0.31377 0.0
O470 O 0.65072 0.83225 0.31206 0.0
N471 N 0.65914 0.83853 0.38762 0.0
C472 C 0.67966 0.84938 0.37512 0.0
C473 C 0.66538 0.84905 0.36751 0.0
C474 C 0.66986 0.8332 0.40879 0.0
N475 N 0.68242 0.83946 0.40139 0.0
O476 O 0.63889 0.85366 0.42163 0.0
H477 H 0.65982 0.85687 0.35079 0.0
H478 H 0.66839 0.82577 0.43171 0.0
O479 O 0.63493 0.84471 0.34602 0.0
C480 C 0.64289 0.85181 0.45579 0.0
O481 O 0.64696 0.83911 0.46642 0.0
N482 N 0.63956 0.81738 0.37402 0.0
C483 C 0.63567 0.78874 0.3556 0.0
C484 C 0.62806 0.79936 0.33668 0.0
C485 C 0.62992 0.81354 0.34687 0.0
C486 C 0.64696 0.80712 0.39277 0.0
C487 C 0.64539 0.79281 0.38357 0.0
H488 H 0.62291 0.82131 0.33445 0.0
H489 H 0.65318 0.80977 0.41722 0.0
H490 H 0.6101 0.85094 0.37828 0.0
H491 H 0.59356 0.8197 0.4512 0.0
H492 H 0.68718 0.85715 0.36476 0.0
H493 H 0.62026 0.79671 0.3153 0.0
H494 H 0.65101 0.78496 0.40018 0.0
C495 C 0.92993 0.86982 0.16975 0.0
C496 C 0.92782 0.8555 0.17431 0.0
N497 N 0.91523 0.85206 0.15869 0.0
N498 N 0.91881 0.87535 0.15091 0.0
C499 C 0.90998 0.86433 0.14474 0.0
H500 H 0.93879 0.87591 0.18041 0.0
Co501 Co 0.91584 0.8945 0.14218 0.0
C502 C 0.90854 0.89543 0.06079 0.0
O503 O 0.91801 0.90562 0.05815 0.0
N504 N 0.9124 0.91414 0.1359 0.0
C505 C 0.90161 0.93484 0.12534 0.0
C506 C 0.90232 0.92079 0.11512 0.0
C507 C 0.91696 0.9243 0.16009 0.0
N508 N 0.91079 0.93698 0.15386 0.0
O509 O 0.89873 0.89339 0.17194 0.0
H510 H 0.89499 0.91567 0.09604 0.0
H511 H 0.92396 0.92226 0.1837 0.0
O512 O 0.90587 0.89 0.09348 0.0
C513 C 0.90274 0.89553 0.20609 0.0
O514 O 0.9163 0.89781 0.21224 0.0
N515 N 0.93372 0.89536 0.11699 0.0
C516 C 0.96229 0.89205 0.09688 0.0
C517 C 0.95178 0.88347 0.08057 0.0
C518 C 0.9376 0.88522 0.09119 0.0
C519 C 0.94381 0.90407 0.132 0.0
C520 C 0.95803 0.90281 0.12177 0.0
H521 H 0.92992 0.87765 0.08085 0.0
H522 H 0.94123 0.91133 0.15433 0.0
H523 H 0.89977 0.8654 0.13107 0.0
H524 H 0.93475 0.84832 0.18945 0.0
H525 H 0.8941 0.94258 0.11482 0.0
H526 H 0.95454 0.87479 0.06192 0.0
H527 H 0.96574 0.90974 0.13501 0.0
C528 C 0.62166 0.67605 0.9311 0.0
C529 C 0.60747 0.67376 0.93758 0.0
N530 N 0.60345 0.6622 0.91782 0.0
N531 N 0.62653 0.66607 0.90713 0.0
C532 C 0.61523 0.65775 0.89957 0.0
H533 H 0.62813 0.68426 0.94372 0.0
Co534 Co 0.64542 0.66357 0.89449 0.0
C535 C 0.6447 0.65847 0.81205 0.0
O536 O 0.65461 0.66824 0.80964 0.0
N537 N 0.66492 0.66054 0.88411 0.0
C538 C 0.68519 0.64984 0.8686 0.0
C539 C 0.67091 0.65071 0.86128 0.0
C540 C 0.67578 0.66489 0.90633 0.0
N541 N 0.68826 0.65872 0.89728 0.0
O542 O 0.64495 0.64566 0.92033 0.0
H543 H 0.66523 0.64364 0.84259 0.0
H544 H 0.67431 0.67134 0.93127 0.0
O545 O 0.63997 0.65488 0.84486 0.0
C546 C 0.64861 0.64794 0.95462 0.0
O547 O 0.6523 0.66086 0.9644 0.0
N548 N 0.64552 0.6821 0.8729 0.0
C549 C 0.6415 0.71097 0.85721 0.0
C550 C 0.63268 0.70066 0.84091 0.0
C551 C 0.63477 0.68635 0.84939 0.0
C552 C 0.65435 0.69201 0.88828 0.0
C553 C 0.65272 0.70641 0.88022 0.0
H554 H 0.62707 0.67879 0.83908 0.0
H555 H 0.66205 0.68909 0.9092 0.0
H556 H 0.61581 0.64823 0.88248 0.0
H557 H 0.60068 0.68003 0.95576 0.0
H558 H 0.6925 0.64258 0.85515 0.0
H559 H 0.62362 0.70364 0.82386 0.0
H560 H 0.65979 0.71395 0.89356 0.0
C561 C 0.56537 0.36801 0.16719 0.0
C562 C 0.56705 0.3545 0.18119 0.0
N563 N 0.58097 0.35138 0.18103 0.0
N564 N 0.57816 0.37333 0.15739 0.0
C565 C 0.58745 0.36304 0.16719 0.0
H566 H 0.55543 0.37367 0.16532 0.0
Co567 Co 0.58236 0.39212 0.1428 0.0
C568 C 0.59447 0.37461 0.07729 0.0
O569 O 0.58958 0.36257 0.09054 0.0
N570 N 0.58636 0.41083 0.13049 0.0
C571 C 0.58885 0.43173 0.10223 0.0
C572 C 0.58654 0.41744 0.0966 0.0
C573 C 0.58849 0.4212 0.15609 0.0
N574 N 0.5901 0.43403 0.13978 0.0
O575 O 0.5996 0.39118 0.17197 0.0
H576 H 0.58459 0.41231 0.06972 0.0
H577 H 0.58818 0.41948 0.18635 0.0
O578 O 0.59222 0.38618 0.09545 0.0
C579 C 0.59636 0.39208 0.20702 0.0
O580 O 0.58298 0.39388 0.21629 0.0
N581 N 0.56486 0.39354 0.11775 0.0
C582 C 0.53598 0.39271 0.10087 0.0
C583 C 0.54566 0.38425 0.08073 0.0
C584 C 0.56011 0.38487 0.08949 0.0
C585 C 0.55578 0.40259 0.1355 0.0
C586 C 0.54135 0.40251 0.1271 0.0
H587 H 0.56709 0.37746 0.07584 0.0
H588 H 0.5596 0.40925 0.15826 0.0
H589 H 0.59883 0.36413 0.1644 0.0
H590 H 0.55864 0.34751 0.19055 0.0
H591 H 0.58934 0.43981 0.08047 0.0
H592 H 0.54207 0.37641 0.06051 0.0
H593 H 0.53438 0.40952 0.14271 0.0
C594 C 0.87944 0.32177 0.4167 0.0
C595 C 0.89377 0.32417 0.41993 0.0
N596 N 0.89686 0.33644 0.40214 0.0
N597 N 0.87357 0.33237 0.39651 0.0
C598 C 0.88439 0.34121 0.38827 0.0
H599 H 0.8736 0.31302 0.42892 0.0
Co600 Co 0.85437 0.33466 0.38749 0.0
C601 C 0.85298 0.3408 0.30554 0.0
O602 O 0.8429 0.33118 0.30394 0.0
N603 N 0.83464 0.33744 0.38063 0.0
C604 C 0.81404 0.34829 0.36987 0.0
C605 C 0.8281 0.34762 0.36007 0.0
C606 C 0.82434 0.33266 0.4041 0.0
N607 N 0.81165 0.33895 0.39802 0.0
O608 O 0.85507 0.35233 0.41442 0.0
H609 H 0.83332 0.35507 0.3415 0.0
H610 H 0.82646 0.32587 0.42802 0.0
O611 O 0.85856 0.34386 0.33775 0.0
C612 C 0.85216 0.34949 0.44893 0.0
O613 O 0.84934 0.33628 0.45807 0.0
N614 N 0.85402 0.31636 0.36487 0.0
C615 C 0.8585 0.28766 0.34825 0.0
C616 C 0.86598 0.29827 0.32886 0.0
C617 C 0.8638 0.31249 0.33807 0.0
C618 C 0.8464 0.30614 0.38316 0.0
C619 C 0.8483 0.29179 0.37493 0.0
H620 H 0.87078 0.32029 0.32562 0.0
H621 H 0.83976 0.30884 0.40679 0.0
H622 H 0.88309 0.35105 0.37285 0.0
H623 H 0.90124 0.31764 0.43534 0.0
H624 H 0.80648 0.3558 0.35861 0.0
H625 H 0.87406 0.29558 0.30825 0.0
H626 H 0.84265 0.28399 0.39164 0.0
C627 C 0.92882 0.63191 0.68196 0.0
C628 C 0.92652 0.64607 0.68888 0.0
N629 N 0.91485 0.65012 0.66967 0.0
N630 N 0.91872 0.6271 0.65823 0.0
C631 C 0.91034 0.6384 0.65124 0.0
H632 H 0.93704 0.6254 0.69436 0.0
Co633 Co 0.91591 0.60821 0.64606 0.0
C634 C 0.91142 0.60851 0.56347 0.0
O635 O 0.9209 0.5983 0.56188 0.0
N636 N 0.91253 0.58879 0.63619 0.0
C637 C 0.90147 0.56865 0.62092 0.0
C638 C 0.90265 0.58288 0.61322 0.0
C639 C 0.91651 0.57797 0.659 0.0
N640 N 0.91014 0.56563 0.64999 0.0
O641 O 0.89777 0.60918 0.67018 0.0
H642 H 0.89573 0.58864 0.59433 0.0
H643 H 0.92308 0.5793 0.6838 0.0
O644 O 0.90783 0.6136 0.59587 0.0
C645 C 0.8992 0.60557 0.70478 0.0
O646 O 0.91176 0.60166 0.71689 0.0
N647 N 0.93461 0.60759 0.6257 0.0
C648 C 0.96351 0.61008 0.60847 0.0
C649 C 0.95354 0.61919 0.59195 0.0
C650 C 0.93922 0.61791 0.60133 0.0
C651 C 0.94423 0.59866 0.64199 0.0
C652 C 0.95864 0.59954 0.63325 0.0
H653 H 0.93194 0.62578 0.59054 0.0
H654 H 0.94106 0.59143 0.66384 0.0
H655 H 0.90069 0.63783 0.6347 0.0
H656 H 0.93282 0.65279 0.70719 0.0
H657 H 0.89392 0.56138 0.60839 0.0
H658 H 0.95683 0.62783 0.57372 0.0
H659 H 0.96596 0.59236 0.64706 0.0
C660 C 0.61906 0.32487 0.58686 0.0
C661 C 0.60486 0.32691 0.58017 0.0
N662 N 0.60068 0.33857 0.5992 0.0
N663 N 0.62379 0.33513 0.61021 0.0
C664 C 0.61237 0.34335 0.61727 0.0
H665 H 0.62565 0.31669 0.57459 0.0
Co666 Co 0.64265 0.33781 0.62207 0.0
C667 C 0.64321 0.34592 0.70277 0.0
O668 O 0.65368 0.3368 0.70627 0.0
N669 N 0.66217 0.34085 0.63184 0.0
C670 C 0.68239 0.35251 0.64244 0.0
C671 C 0.66797 0.35247 0.64818 0.0
C672 C 0.67331 0.33439 0.61492 0.0
N673 N 0.68568 0.34118 0.62114 0.0
O674 O 0.64231 0.35517 0.5937 0.0
H675 H 0.66202 0.36105 0.6608 0.0
H676 H 0.67235 0.32569 0.59535 0.0
O677 O 0.63744 0.34771 0.67013 0.0
C678 C 0.64732 0.35287 0.56069 0.0
O679 O 0.65223 0.34017 0.55284 0.0
N680 N 0.6426 0.31983 0.64617 0.0
C681 C 0.63845 0.29139 0.66636 0.0
C682 C 0.63148 0.3023 0.68591 0.0
C683 C 0.63342 0.31639 0.67479 0.0
C684 C 0.64926 0.3093 0.6266 0.0
C685 C 0.6476 0.29509 0.63667 0.0
H686 H 0.62673 0.32434 0.68758 0.0
H687 H 0.65475 0.31168 0.60067 0.0
H688 H 0.61279 0.35302 0.63374 0.0
H689 H 0.59817 0.3204 0.56229 0.0
H690 H 0.68967 0.36091 0.6502 0.0
H691 H 0.62405 0.29994 0.70846 0.0
H692 H 0.6526 0.28702 0.61939 0.0
C693 C 0.9244 0.36915 0.83458 0.0
C694 C 0.92236 0.35479 0.83038 0.0
N695 N 0.91029 0.35119 0.8485 0.0
N696 N 0.91378 0.37452 0.85567 0.0
C697 C 0.90529 0.36338 0.86351 0.0
H698 H 0.9329 0.37536 0.82241 0.0
Co699 Co 0.91089 0.39354 0.86603 0.0
C700 C 0.90487 0.39399 0.94798 0.0
O701 O 0.91428 0.40426 0.95002 0.0
N702 N 0.90741 0.41309 0.87426 0.0
C703 C 0.89611 0.43335 0.88702 0.0
C704 C 0.89707 0.41915 0.89541 0.0
C705 C 0.91193 0.42379 0.85173 0.0
N706 N 0.90543 0.4362 0.85927 0.0
O707 O 0.89326 0.39248 0.83899 0.0
H708 H 0.88973 0.4135 0.91343 0.0
H709 H 0.91902 0.42235 0.82803 0.0
O710 O 0.90185 0.38861 0.9155 0.0
C711 C 0.89598 0.39593 0.80476 0.0
O712 O 0.90903 0.39953 0.79597 0.0
N713 N 0.92919 0.39426 0.88885 0.0
C714 C 0.95798 0.39121 0.90695 0.0
C715 C 0.9477 0.38251 0.92388 0.0
C716 C 0.93343 0.38411 0.9142 0.0
C717 C 0.93908 0.40291 0.87267 0.0
C718 C 0.95341 0.40181 0.88196 0.0
H719 H 0.92592 0.37647 0.92511 0.0
H720 H 0.93624 0.40999 0.8502 0.0
H721 H 0.89553 0.36426 0.87946 0.0
H722 H 0.92899 0.34767 0.81414 0.0
H723 H 0.88834 0.4407 0.89812 0.0
H724 H 0.95071 0.37388 0.94245 0.0
H725 H 0.96091 0.40877 0.86805 0.0
C726 C 0.88379 0.67656 0.09153 0.0
C727 C 0.8981 0.67441 0.0872 0.0
N728 N 0.9016 0.6622 0.10474 0.0
N729 N 0.87829 0.66587 0.11215 0.0
C730 C 0.88935 0.65721 0.11957 0.0
H731 H 0.87768 0.68518 0.07958 0.0
Co732 Co 0.85914 0.66337 0.12176 0.0
C733 C 0.85766 0.65708 0.20349 0.0
O734 O 0.84729 0.66639 0.20495 0.0
N735 N 0.83945 0.66039 0.12918 0.0
C736 C 0.819 0.64921 0.14046 0.0
C737 C 0.83324 0.64966 0.14858 0.0
C738 C 0.82878 0.66572 0.10784 0.0
N739 N 0.81626 0.65927 0.11455 0.0
O740 O 0.85999 0.64561 0.09562 0.0
H741 H 0.83881 0.64181 0.16516 0.0
H742 H 0.83028 0.67329 0.08529 0.0
O743 O 0.86353 0.65434 0.17146 0.0
C744 C 0.8562 0.64753 0.06133 0.0
O745 O 0.85221 0.66025 0.05063 0.0
N746 N 0.85871 0.68171 0.14414 0.0
C747 C 0.86257 0.71033 0.16277 0.0
C748 C 0.87002 0.69968 0.18203 0.0
C749 C 0.86818 0.68551 0.17176 0.0
C750 C 0.85136 0.69198 0.1253 0.0
C751 C 0.85292 0.70628 0.13459 0.0
H752 H 0.87515 0.67775 0.18432 0.0
H753 H 0.84526 0.68936 0.10061 0.0
H754 H 0.88836 0.64732 0.1349 0.0
H755 H 0.90526 0.68104 0.07102 0.0
H756 H 0.81152 0.64131 0.15025 0.0
H757 H 0.87775 0.70231 0.2036 0.0
H758 H 0.84741 0.71416 0.11779 0.0
C759 C 0.5733 0.62718 0.3505 0.0
C760 C 0.57483 0.64161 0.34671 0.0
N761 N 0.58752 0.64536 0.36118 0.0
N762 N 0.58489 0.62189 0.36772 0.0
C763 C 0.59341 0.63317 0.37371 0.0
H764 H 0.56452 0.62088 0.34029 0.0
Co765 Co 0.58876 0.60285 0.37489 0.0
C766 C 0.59793 0.60077 0.45463 0.0
O767 O 0.58959 0.58962 0.45687 0.0
N768 N 0.59311 0.58334 0.37982 0.0
C769 C 0.60649 0.5639 0.38421 0.0
C770 C 0.60518 0.57787 0.39454 0.0
C771 C 0.58767 0.57253 0.35918 0.0
N772 N 0.59552 0.56058 0.36159 0.0
O773 O 0.60546 0.60496 0.34423 0.0
H774 H 0.61328 0.58393 0.40891 0.0
H775 H 0.57895 0.57368 0.33974 0.0
O776 O 0.59915 0.60729 0.42278 0.0
C777 C 0.60206 0.6015 0.31046 0.0
O778 O 0.58902 0.59724 0.30398 0.0
N779 N 0.5713 0.60111 0.40143 0.0
C780 C 0.54306 0.60367 0.42509 0.0
C781 C 0.55391 0.61105 0.44375 0.0
C782 C 0.56787 0.60987 0.43101 0.0
C783 C 0.56084 0.59375 0.38338 0.0
C784 C 0.54674 0.59465 0.39514 0.0
H785 H 0.57566 0.61693 0.44308 0.0
H786 H 0.56304 0.58831 0.35732 0.0
H787 H 0.60385 0.63236 0.38619 0.0
H788 H 0.56743 0.64867 0.33282 0.0
H789 H 0.61551 0.55713 0.38995 0.0
H790 H 0.55153 0.61833 0.46661 0.0
H791 H 0.53866 0.58925 0.37877 0.0
C792 C 0.37732 0.32272 0.09348 0.0
C793 C 0.39139 0.32543 0.08631 0.0
N794 N 0.39499 0.3375 0.10435 0.0
N795 N 0.37214 0.33298 0.11615 0.0
C796 C 0.38312 0.34185 0.12232 0.0
H797 H 0.37111 0.31411 0.08188 0.0
Co798 Co 0.35315 0.33534 0.12761 0.0
C799 C 0.35301 0.34115 0.20968 0.0
O800 O 0.34304 0.33143 0.21157 0.0
N801 N 0.33357 0.33823 0.13651 0.0
C802 C 0.31313 0.3493 0.14835 0.0
C803 C 0.32725 0.34838 0.15773 0.0
C804 C 0.32311 0.33371 0.11322 0.0
N805 N 0.31058 0.34013 0.12001 0.0
O806 O 0.35351 0.35298 0.10007 0.0
H807 H 0.33268 0.35571 0.17622 0.0
H808 H 0.32488 0.32672 0.08947 0.0
O809 O 0.35811 0.34458 0.17709 0.0
C810 C 0.35041 0.34991 0.06579 0.0
O811 O 0.34751 0.33664 0.05752 0.0
N812 N 0.35313 0.31703 0.15072 0.0
C813 C 0.35743 0.28838 0.16889 0.0
C814 C 0.36612 0.29897 0.18436 0.0
C815 C 0.36387 0.31317 0.17476 0.0
C816 C 0.34438 0.30685 0.13629 0.0
C817 C 0.34614 0.29258 0.14561 0.0
H818 H 0.37144 0.32094 0.18459 0.0
H819 H 0.33661 0.30943 0.11526 0.0
H820 H 0.38221 0.35171 0.13782 0.0
H821 H 0.39835 0.31915 0.06863 0.0
H822 H 0.30567 0.35704 0.15908 0.0
H823 H 0.37522 0.29631 0.20166 0.0
H824 H 0.33909 0.28483 0.13303 0.0
C825 C 0.42721 0.62176 0.842 0.0
C826 C 0.42448 0.63575 0.83418 0.0
N827 N 0.41272 0.6396 0.85326 0.0
N828 N 0.41729 0.61683 0.86612 0.0
C829 C 0.40857 0.62792 0.87251 0.0
H830 H 0.43566 0.61543 0.83007 0.0
Co831 Co 0.41567 0.59796 0.8798 0.0
C832 C 0.40858 0.59911 0.96191 0.0
O833 O 0.41892 0.59005 0.96696 0.0
N834 N 0.414 0.57806 0.89207 0.0
C835 C 0.41877 0.55572 0.90912 0.0
C836 C 0.42281 0.56963 0.91239 0.0
C837 C 0.40462 0.56871 0.87688 0.0
N838 N 0.40741 0.55509 0.88618 0.0
O839 O 0.39821 0.59741 0.85138 0.0
H840 H 0.4321 0.57307 0.92769 0.0
H841 H 0.39635 0.57161 0.85732 0.0
O842 O 0.40565 0.60333 0.92817 0.0
C843 C 0.40186 0.59432 0.81744 0.0
O844 O 0.41514 0.59077 0.81117 0.0
N845 N 0.43378 0.5992 0.90195 0.0
C846 C 0.46251 0.60508 0.9138 0.0
C847 C 0.45197 0.61252 0.93373 0.0
C848 C 0.43766 0.60956 0.92699 0.0
C849 C 0.44389 0.59188 0.88246 0.0
C850 C 0.45827 0.59437 0.88867 0.0
H851 H 0.42975 0.61636 0.93965 0.0
H852 H 0.44074 0.58446 0.86065 0.0
H853 H 0.39902 0.62726 0.88944 0.0
H854 H 0.4306 0.64252 0.81558 0.0
H855 H 0.42422 0.54676 0.92147 0.0
H856 H 0.45469 0.62122 0.95238 0.0
H857 H 0.46597 0.58833 0.87263 0.0
C858 C 0.12244 0.67759 0.57989 0.0
C859 C 0.10838 0.67466 0.57347 0.0
N860 N 0.10524 0.66224 0.59042 0.0
N861 N 0.12812 0.6671 0.60088 0.0
C862 C 0.1174 0.65789 0.60692 0.0
H863 H 0.12828 0.68662 0.56916 0.0
Co864 Co 0.14717 0.66548 0.61256 0.0
C865 C 0.14778 0.64455 0.67518 0.0
O866 O 0.15806 0.63756 0.65836 0.0
N867 N 0.16652 0.66403 0.62337 0.0
C868 C 0.18786 0.66602 0.64981 0.0
C869 C 0.17346 0.66743 0.65562 0.0
C870 C 0.17686 0.66056 0.59861 0.0
N871 N 0.18989 0.66162 0.61395 0.0
O872 O 0.14775 0.64817 0.58373 0.0
H873 H 0.16839 0.67103 0.68138 0.0
H874 H 0.175 0.65786 0.56929 0.0
O875 O 0.14247 0.65546 0.65924 0.0
C876 C 0.1485 0.65112 0.5485 0.0
O877 O 0.14955 0.66446 0.53816 0.0
N878 N 0.14634 0.68293 0.63746 0.0
C879 C 0.14117 0.71096 0.65823 0.0
C880 C 0.13488 0.69972 0.67822 0.0
C881 C 0.13753 0.68574 0.66723 0.0
C882 C 0.15318 0.69364 0.61911 0.0
C883 C 0.1508 0.70775 0.62915 0.0
H884 H 0.13173 0.67732 0.68099 0.0
H885 H 0.15979 0.69125 0.5949 0.0
H886 H 0.11865 0.64791 0.6217 0.0
H887 H 0.10105 0.68111 0.55736 0.0
H888 H 0.19617 0.66817 0.67016 0.0
H889 H 0.12745 0.70171 0.70101 0.0
H890 H 0.15572 0.71606 0.61251 0.0
C891 C 0.07283 0.37192 0.3331 0.0
C892 C 0.07532 0.35777 0.32671 0.0
N893 N 0.08713 0.35402 0.34576 0.0
N894 N 0.08294 0.37704 0.35634 0.0
C895 C 0.09152 0.36592 0.36359 0.0
H896 H 0.06446 0.37822 0.32066 0.0
Co897 Co 0.08531 0.39605 0.36755 0.0
C898 C 0.09085 0.39654 0.44989 0.0
O899 O 0.08132 0.40668 0.45167 0.0
N900 N 0.08814 0.41566 0.37639 0.0
C901 C 0.09902 0.43612 0.38936 0.0
C902 C 0.09837 0.42189 0.39754 0.0
C903 C 0.08331 0.42632 0.35417 0.0
N904 N 0.08961 0.43885 0.36176 0.0
O905 O 0.10325 0.39544 0.34214 0.0
H906 H 0.10587 0.41634 0.41528 0.0
H907 H 0.07626 0.42477 0.33045 0.0
O908 O 0.09404 0.39118 0.41749 0.0
C909 C 0.10161 0.39912 0.30764 0.0
O910 O 0.089 0.40319 0.29628 0.0
N911 N 0.06679 0.39618 0.38902 0.0
C912 C 0.03804 0.39148 0.40476 0.0
C913 C 0.04861 0.38387 0.42387 0.0
C914 C 0.06284 0.38614 0.41503 0.0
C915 C 0.05662 0.40386 0.37078 0.0
C916 C 0.04223 0.40185 0.3786 0.0
H917 H 0.07059 0.37904 0.42719 0.0
H918 H 0.05939 0.41065 0.34753 0.0
H919 H 0.10121 0.36672 0.3799 0.0
H920 H 0.06906 0.35084 0.3089 0.0
H921 H 0.10674 0.44358 0.40026 0.0
H922 H 0.04589 0.37565 0.44406 0.0
H923 H 0.03446 0.40761 0.36207 0.0
C924 C 0.38497 0.67267 0.42481 0.0
C925 C 0.3991 0.67012 0.43129 0.0
N926 N 0.40224 0.65704 0.41829 0.0
N927 N 0.37922 0.66131 0.40752 0.0
C928 C 0.38995 0.65194 0.40402 0.0
H929 H 0.37914 0.68203 0.43315 0.0
Co930 Co 0.36014 0.65896 0.39665 0.0
C931 C 0.36011 0.63717 0.33574 0.0
O932 O 0.35055 0.62974 0.35418 0.0
N933 N 0.34077 0.65676 0.38639 0.0
C934 C 0.31948 0.65796 0.35939 0.0
C935 C 0.33388 0.65905 0.35339 0.0
C936 C 0.33038 0.65423 0.41183 0.0
N937 N 0.31737 0.65487 0.39619 0.0
O938 O 0.3601 0.64213 0.42801 0.0
H939 H 0.33898 0.66185 0.32696 0.0
H940 H 0.33218 0.65268 0.44177 0.0
O941 O 0.36497 0.64853 0.35048 0.0
C942 C 0.35886 0.64649 0.46217 0.0
O943 O 0.35732 0.66019 0.46777 0.0
N944 N 0.36026 0.6761 0.37009 0.0
C945 C 0.36372 0.70415 0.34696 0.0
C946 C 0.37079 0.6931 0.32811 0.0
C947 C 0.36897 0.67909 0.34026 0.0
C948 C 0.35277 0.68658 0.38748 0.0
C949 C 0.35426 0.70067 0.37623 0.0
H950 H 0.3753 0.67086 0.32736 0.0
H951 H 0.34626 0.68408 0.41182 0.0
H952 H 0.38867 0.64149 0.39185 0.0
H953 H 0.40635 0.67717 0.44582 0.0
H954 H 0.3112 0.65957 0.33858 0.0
H955 H 0.37814 0.6953 0.30528 0.0
H956 H 0.34879 0.70882 0.39212 0.0
C957 C 0.07891 0.6333 0.16188 0.0
C958 C 0.08116 0.64762 0.16579 0.0
N959 N 0.09327 0.65099 0.14761 0.0
N960 N 0.08944 0.6277 0.14086 0.0
C961 C 0.0981 0.63869 0.13282 0.0
H962 H 0.07034 0.62726 0.17432 0.0
Co963 Co 0.09187 0.60857 0.13132 0.0
C964 C 0.09718 0.60738 0.04876 0.0
O965 O 0.08753 0.59732 0.04767 0.0
N966 N 0.09477 0.58889 0.12399 0.0
C967 C 0.10537 0.5683 0.11131 0.0
C968 C 0.1048 0.58248 0.10263 0.0
C969 C 0.09 0.57839 0.14686 0.0
N970 N 0.0961 0.56571 0.13948 0.0
O971 O 0.1099 0.60953 0.1563 0.0
H972 H 0.11211 0.58783 0.08392 0.0
H973 H 0.0833 0.58026 0.17112 0.0
O974 O 0.1005 0.61293 0.08083 0.0
C975 C 0.1082 0.60641 0.19117 0.0
O976 O 0.09551 0.60279 0.20304 0.0
N977 N 0.07325 0.60805 0.11032 0.0
C978 C 0.04435 0.61184 0.09454 0.0
C979 C 0.05472 0.61949 0.07469 0.0
C980 C 0.06903 0.61767 0.08353 0.0
C981 C 0.06327 0.60043 0.12954 0.0
C982 C 0.04883 0.60199 0.12174 0.0
H983 H 0.07662 0.62474 0.07053 0.0
H984 H 0.06623 0.59403 0.15341 0.0
H985 H 0.10788 0.63762 0.11701 0.0
H986 H 0.07467 0.65488 0.182 0.0
H987 H 0.11263 0.56072 0.099 0.0
H988 H 0.05179 0.62733 0.05368 0.0
H989 H 0.04123 0.59625 0.1389 0.0
C990 C 0.11775 0.32357 0.92279 0.0
C991 C 0.10358 0.32571 0.92963 0.0
N992 N 0.09961 0.33773 0.91194 0.0
N993 N 0.12266 0.33411 0.90063 0.0
C994 C 0.11138 0.34261 0.89443 0.0
H995 H 0.12422 0.31515 0.93438 0.0
Co996 Co 0.14162 0.33701 0.8901 0.0
C997 C 0.14264 0.34382 0.80855 0.0
O998 O 0.15315 0.33468 0.80658 0.0
N999 N 0.16118 0.34033 0.88201 0.0
C1000 C 0.18134 0.35216 0.87204 0.0
C1001 C 0.16714 0.35141 0.86353 0.0
C1002 C 0.17194 0.33501 0.90296 0.0
N1003 N 0.1843 0.34189 0.8972 0.0
O1004 O 0.14062 0.35464 0.91701 0.0
H1005 H 0.16138 0.35931 0.84758 0.0
H1006 H 0.17056 0.32715 0.92481 0.0
O1007 O 0.1368 0.34628 0.84082 0.0
C1008 C 0.14459 0.35283 0.95122 0.0
O1009 O 0.14906 0.34025 0.96175 0.0
N1010 N 0.14218 0.31878 0.86705 0.0
C1011 C 0.13834 0.29018 0.84795 0.0
C1012 C 0.13087 0.30087 0.82891 0.0
C1013 C 0.13268 0.31502 0.83947 0.0
C1014 C 0.14956 0.30847 0.88565 0.0
C1015 C 0.14801 0.29418 0.87615 0.0
H1016 H 0.12564 0.32278 0.8272 0.0
H1017 H 0.15565 0.31102 0.91041 0.0
H1018 H 0.112 0.35257 0.8793 0.0
H1019 H 0.09679 0.31909 0.94693 0.0
H1020 H 0.18859 0.36043 0.86316 0.0
H1021 H 0.12314 0.2983 0.80731 0.0
H1022 H 0.15353 0.28629 0.89285 0.0
C1023 C 0.42479 0.37086 0.6764 0.0
C1024 C 0.42274 0.35649 0.6795 0.0
N1025 N 0.41047 0.35316 0.66204 0.0
N1026 N 0.41398 0.37657 0.65669 0.0
C1027 C 0.40533 0.36556 0.64858 0.0
H1028 H 0.43351 0.37683 0.6883 0.0
Co1029 Co 0.41187 0.39586 0.64776 0.0
C1030 C 0.40267 0.39707 0.56679 0.0
O1031 O 0.41236 0.40678 0.56124 0.0
N1032 N 0.4098 0.41605 0.64032 0.0
C1033 C 0.41411 0.43879 0.62665 0.0
C1034 C 0.4179 0.42504 0.61957 0.0
C1035 C 0.40117 0.42494 0.65999 0.0
N1036 N 0.4037 0.4388 0.65267 0.0
O1037 O 0.3949 0.39534 0.67818 0.0
H1038 H 0.42663 0.42205 0.60148 0.0
H1039 H 0.39372 0.42148 0.6812 0.0
O1040 O 0.40115 0.39169 0.59998 0.0
C1041 C 0.39919 0.39697 0.7123 0.0
O1042 O 0.41276 0.39948 0.71784 0.0
N1043 N 0.42952 0.39573 0.62317 0.0
C1044 C 0.45817 0.39098 0.60768 0.0
C1045 C 0.44757 0.38408 0.5866 0.0
C1046 C 0.43327 0.38649 0.59505 0.0
C1047 C 0.43969 0.40266 0.6434 0.0
C1048 C 0.45401 0.40077 0.63542 0.0
H1049 H 0.42532 0.38005 0.58126 0.0
H1050 H 0.43666 0.40922 0.6672 0.0
H1051 H 0.39542 0.36664 0.6334 0.0
H1052 H 0.42953 0.34915 0.69451 0.0
H1053 H 0.41914 0.44806 0.61459 0.0
H1054 H 0.45026 0.37612 0.56568 0.0
H1055 H 0.46175 0.40645 0.65224 0.0
H1056 H 0.11069 0.12805 0.97224 0.0
H1057 H 0.12039 0.13669 0.03278 0.0
H1058 H 0.09695 0.10441 0.09251 0.0
H1059 H 0.08759 0.09561 0.03296 0.0
H1060 H 0.10628 0.14719 0.0952 0.0
H1061 H 0.13595 0.09902 0.13679 0.0
H1062 H 0.12931 0.10167 0.08938 0.0
H1063 H 0.11773 0.0953 0.12623 0.0
C1064 C 0.10777 0.12271 0.99827 0.0
C1065 C 0.09844 0.11106 0.99757 0.0
C1066 C 0.11328 0.12767 0.03285 0.0
C1067 C 0.10963 0.12102 0.06724 0.0
C1068 C 0.10026 0.10949 0.06644 0.0
H1069 H 0.12326 0.13876 0.30887 0.0
H1070 H 0.11448 0.12934 0.24808 0.0
C1071 C 0.09482 0.10453 0.03215 0.0
C1072 C 0.11501 0.12638 0.1043 0.0
H1073 H 0.13188 0.1161 0.18569 0.0
C1074 C 0.11199 0.14042 0.11481 0.0
C1075 C 0.1224 0.11754 0.13013 0.0
C1076 C 0.12667 0.10259 0.11994 0.0
C1077 C 0.11589 0.14575 0.15055 0.0
C1078 C 0.12311 0.13685 0.17646 0.0
C1079 C 0.12618 0.12284 0.166 0.0
C1080 C 0.12837 0.14224 0.21348 0.0
C1081 C 0.11211 0.16083 0.16062 0.0
C1082 C 0.13921 0.15238 0.21415 0.0
C1083 C 0.14427 0.15765 0.24853 0.0
C1084 C 0.13862 0.15294 0.28329 0.0
C1085 C 0.12783 0.14262 0.28269 0.0
C1086 C 0.12281 0.13725 0.248 0.0
H1087 H 0.10383 0.1652 0.14152 0.0
H1088 H 0.10829 0.16152 0.19033 0.0
H1089 H 0.12171 0.16758 0.15807 0.0
H1090 H 0.1438 0.15623 0.18794 0.0
H1091 H 0.1526 0.16556 0.24767 0.0
H1092 H 0.1097 0.87374 0.55295 0.0
H1093 H 0.11938 0.86531 0.49217 0.0
H1094 H 0.09686 0.89845 0.43349 0.0
H1095 H 0.08731 0.90695 0.49333 0.0
H1096 H 0.09351 0.86963 0.40297 0.0
H1097 H 0.14964 0.88625 0.42334 0.0
H1098 H 0.14141 0.87641 0.46117 0.0
H1099 H 0.13523 0.89392 0.45016 0.0
C1100 C 0.10693 0.87929 0.52713 0.0
C1101 C 0.09775 0.89104 0.52815 0.0
C1102 C 0.11246 0.87447 0.49245 0.0
C1103 C 0.10886 0.88131 0.45835 0.0
C1104 C 0.09977 0.89303 0.45942 0.0
H1105 H 0.12446 0.86638 0.21557 0.0
H1106 H 0.11513 0.87533 0.27612 0.0
C1107 C 0.09434 0.89788 0.49383 0.0
C1108 C 0.11426 0.87623 0.4212 0.0
H1109 H 0.1441 0.87425 0.36673 0.0
C1110 C 0.10458 0.8706 0.39498 0.0
C1111 C 0.12866 0.8776 0.41086 0.0
C1112 C 0.13939 0.88395 0.43763 0.0
C1113 C 0.10897 0.86601 0.3589 0.0
C1114 C 0.12339 0.86748 0.34834 0.0
C1115 C 0.13304 0.87318 0.37465 0.0
C1116 C 0.12891 0.86242 0.31112 0.0
C1117 C 0.09819 0.85927 0.33294 0.0
C1118 C 0.13999 0.85253 0.31049 0.0
C1119 C 0.14544 0.84763 0.27618 0.0
C1120 C 0.13995 0.85244 0.24137 0.0
C1121 C 0.12888 0.86242 0.24183 0.0
C1122 C 0.12347 0.86745 0.27645 0.0
H1123 H 0.08869 0.85557 0.34874 0.0
H1124 H 0.09464 0.8672 0.31175 0.0
H1125 H 0.10283 0.85011 0.31754 0.0
H1126 H 0.14439 0.84848 0.3367 0.0
H1127 H 0.15394 0.83992 0.27712 0.0
H1128 H 0.34365 0.83167 0.72267 0.0
H1129 H 0.35236 0.84245 0.66471 0.0
H1130 H 0.38235 0.86718 0.72884 0.0
H1131 H 0.3737 0.8562 0.78805 0.0
H1132 H 0.36396 0.88165 0.66513 0.0
H1133 H 0.3937 0.83355 0.62077 0.0
H1134 H 0.376 0.83072 0.63828 0.0
H1135 H 0.38946 0.83723 0.66974 0.0
C1136 C 0.3521 0.83942 0.72485 0.0
C1137 C 0.35805 0.84296 0.76025 0.0
C1138 C 0.35706 0.84556 0.69146 0.0
C1139 C 0.36811 0.85546 0.69234 0.0
C1140 C 0.37384 0.85948 0.72757 0.0
H1141 H 0.40624 0.90352 0.50828 0.0
H1142 H 0.39796 0.89477 0.56908 0.0
C1143 C 0.36888 0.85323 0.76135 0.0
C1144 C 0.37358 0.86128 0.65597 0.0
H1145 H 0.3907 0.85152 0.57462 0.0
C1146 C 0.36996 0.87516 0.64548 0.0
C1147 C 0.38116 0.85268 0.63011 0.0
C1148 C 0.38542 0.83773 0.6402 0.0
C1149 C 0.37349 0.88057 0.60949 0.0
C1150 C 0.38113 0.87197 0.58355 0.0
C1151 C 0.3848 0.85811 0.59427 0.0
C1152 C 0.38588 0.87733 0.54581 0.0
C1153 C 0.36859 0.89531 0.59919 0.0
C1154 C 0.38222 0.87024 0.51207 0.0
C1155 C 0.3871 0.87517 0.47678 0.0
C1156 C 0.39581 0.88726 0.47464 0.0
C1157 C 0.39946 0.89425 0.50856 0.0
C1158 C 0.39464 0.88931 0.54358 0.0
H1159 H 0.35933 0.89862 0.61655 0.0
H1160 H 0.37731 0.90294 0.60464 0.0
H1161 H 0.36564 0.896 0.56879 0.0
H1162 H 0.37556 0.86088 0.51304 0.0
H1163 H 0.38417 0.86948 0.45131 0.0
H1164 H 0.35405 0.16759 0.77726 0.0
H1165 H 0.36086 0.15767 0.83798 0.0
H1166 H 0.379 0.12138 0.78156 0.0
H1167 H 0.37247 0.13162 0.7197 0.0
H1168 H 0.35193 0.13405 0.87028 0.0
H1169 H 0.41047 0.13152 0.85436 0.0
H1170 H 0.39934 0.1411 0.8216 0.0
H1171 H 0.40066 0.12211 0.81871 0.0
C1172 C 0.35957 0.15752 0.77749 0.0
C1173 C 0.36265 0.15037 0.74347 0.0
C1174 C 0.36346 0.15184 0.81244 0.0
C1175 C 0.37051 0.13877 0.81466 0.0
C1176 C 0.37379 0.1316 0.78072 0.0
H1177 H 0.37338 0.09573 0.03637 0.0
H1178 H 0.36799 0.10207 0.97072 0.0
C1179 C 0.37 0.13741 0.74535 0.0
C1180 C 0.37378 0.13274 0.85286 0.0
H1181 H 0.40085 0.12254 0.91133 0.0
C1182 C 0.36264 0.13147 0.87915 0.0
C1183 C 0.38775 0.12951 0.86474 0.0
C1184 C 0.40028 0.13123 0.83857 0.0
C1185 C 0.36507 0.12741 0.91694 0.0
C1186 C 0.37901 0.12403 0.92878 0.0
C1187 C 0.39014 0.12505 0.90234 0.0
C1188 C 0.38235 0.11998 0.96876 0.0
C1189 C 0.3527 0.12737 0.94412 0.0
C1190 C 0.39248 0.12767 0.98954 0.0
C1191 C 0.39572 0.12394 0.027 0.0
C1192 C 0.38887 0.11244 0.04467 0.0
C1193 C 0.3787 0.10477 0.0239 0.0
C1194 C 0.37558 0.10842 0.98628 0.0
H1195 H 0.3438 0.13402 0.93361 0.0
H1196 H 0.34869 0.11637 0.9473 0.0
H1197 H 0.3559 0.13133 0.97249 0.0
H1198 H 0.39787 0.13662 0.9768 0.0
H1199 H 0.40361 0.13008 0.0421 0.0
H1200 H 0.87453 0.864 0.71328 0.0
H1201 H 0.88362 0.87353 0.77348 0.0
H1202 H 0.85504 0.84628 0.83517 0.0
H1203 H 0.84574 0.83711 0.77596 0.0
H1204 H 0.85492 0.87215 0.86497 0.0
H1205 H 0.91064 0.85458 0.84612 0.0
H1206 H 0.90433 0.86597 0.80902 0.0
H1207 H 0.89653 0.84872 0.81538 0.0
C1208 C 0.87019 0.86009 0.7397 0.0
C1209 C 0.85941 0.84977 0.7396 0.0
C1210 C 0.87546 0.86545 0.77415 0.0
C1211 C 0.87018 0.86047 0.80908 0.0
C1212 C 0.85934 0.85031 0.8088 0.0
H1213 H 0.88914 0.87361 0.05115 0.0
H1214 H 0.87927 0.86488 0.99086 0.0
C1215 C 0.85403 0.84505 0.77466 0.0
C1216 C 0.8757 0.86576 0.84619 0.0
H1217 H 0.90568 0.86861 0.90023 0.0
C1218 C 0.86603 0.87133 0.87267 0.0
C1219 C 0.89017 0.86461 0.85653 0.0
C1220 C 0.90101 0.85803 0.83047 0.0
C1221 C 0.87043 0.87594 0.90874 0.0
C1222 C 0.88489 0.87489 0.91889 0.0
C1223 C 0.89458 0.86936 0.89248 0.0
C1224 C 0.89035 0.88018 0.95591 0.0
C1225 C 0.85963 0.8822 0.93547 0.0
C1226 C 0.89986 0.89158 0.95635 0.0
C1227 C 0.90543 0.89657 0.99048 0.0
C1228 C 0.90175 0.89022 0.02529 0.0
C1229 C 0.89214 0.8788 0.02497 0.0
C1230 C 0.88648 0.87383 0.99053 0.0
H1231 H 0.84947 0.88464 0.92097 0.0
H1232 H 0.85744 0.87453 0.95857 0.0
H1233 H 0.86378 0.89208 0.94858 0.0
H1234 H 0.90301 0.89665 0.93011 0.0
H1235 H 0.9128 0.90537 0.98937 0.0
H1236 H 0.84168 0.15753 0.76027 0.0
H1237 H 0.85091 0.14843 0.7007 0.0
H1238 H 0.88511 0.12793 0.76028 0.0
H1239 H 0.87594 0.13716 0.82081 0.0
H1240 H 0.87945 0.15367 0.67098 0.0
H1241 H 0.86674 0.09649 0.69036 0.0
H1242 H 0.85801 0.11027 0.71717 0.0
H1243 H 0.87586 0.10528 0.72852 0.0
C1244 C 0.85114 0.15102 0.76104 0.0
C1245 C 0.85806 0.14808 0.79555 0.0
C1246 C 0.8564 0.14584 0.72676 0.0
C1247 C 0.86865 0.13747 0.72598 0.0
C1248 C 0.87555 0.13428 0.7603 0.0
H1249 H 0.91393 0.0957 0.5453 0.0
H1250 H 0.90438 0.10442 0.60473 0.0
C1251 C 0.87031 0.13956 0.79485 0.0
C1252 C 0.87425 0.13248 0.68888 0.0
H1253 H 0.87861 0.10294 0.6342 0.0
C1254 C 0.8793 0.14257 0.66288 0.0
C1255 C 0.87397 0.11804 0.67836 0.0
C1256 C 0.86828 0.10684 0.70483 0.0
C1257 C 0.88435 0.13857 0.6269 0.0
C1258 C 0.88397 0.1241 0.61614 0.0
C1259 C 0.87885 0.11403 0.64223 0.0
C1260 C 0.88957 0.11902 0.57896 0.0
C1261 C 0.89043 0.14985 0.60127 0.0
C1262 C 0.88439 0.12422 0.54417 0.0
C1263 C 0.88998 0.1193 0.50963 0.0
C1264 C 0.90071 0.10895 0.50931 0.0
C1265 C 0.90566 0.10366 0.54422 0.0
C1266 C 0.90019 0.10863 0.57846 0.0
H1267 H 0.89341 0.15954 0.6173 0.0
H1268 H 0.89995 0.1459 0.58605 0.0
H1269 H 0.88235 0.1529 0.57992 0.0
H1270 H 0.87596 0.132 0.54368 0.0
H1271 H 0.88589 0.12355 0.48331 0.0
H1272 H 0.6007 0.14329 0.23002 0.0
H1273 H 0.60073 0.13651 0.29655 0.0
H1274 H 0.6462 0.14095 0.30023 0.0
H1275 H 0.64633 0.14755 0.23296 0.0
H1276 H 0.63624 0.11704 0.33941 0.0
H1277 H 0.60658 0.16493 0.38282 0.0
H1278 H 0.59775 0.15542 0.34563 0.0
H1279 H 0.61484 0.16328 0.33687 0.0
C1280 C 0.61077 0.14276 0.2447 0.0
C1281 C 0.62351 0.14626 0.2261 0.0
C1282 C 0.61074 0.13898 0.28296 0.0
C1283 C 0.62341 0.13866 0.30373 0.0
C1284 C 0.63626 0.14136 0.2849 0.0
H1285 H 0.6116 0.13057 0.55168 0.0
H1286 H 0.62142 0.13931 0.49134 0.0
C1287 C 0.63631 0.14514 0.24641 0.0
C1288 C 0.62301 0.13552 0.34505 0.0
H1289 H 0.60646 0.14547 0.42698 0.0
C1290 C 0.62993 0.12338 0.35871 0.0
C1291 C 0.61508 0.14398 0.37056 0.0
C1292 C 0.60827 0.15771 0.35834 0.0
C1293 C 0.62828 0.11894 0.39653 0.0
C1294 C 0.6193 0.12672 0.42112 0.0
C1295 C 0.61322 0.1394 0.40813 0.0
C1296 C 0.61474 0.12107 0.45861 0.0
C1297 C 0.63597 0.10579 0.40954 0.0
C1298 C 0.60771 0.108 0.46029 0.0
C1299 C 0.6021 0.10305 0.49439 0.0
C1300 C 0.60329 0.11109 0.52783 0.0
C1301 C 0.61058 0.1241 0.52648 0.0
C1302 C 0.61617 0.1291 0.49204 0.0
H1303 H 0.64593 0.10421 0.39328 0.0
H1304 H 0.63857 0.10632 0.44019 0.0
H1305 H 0.62912 0.0964 0.40458 0.0
H1306 H 0.60611 0.10177 0.43486 0.0
H1307 H 0.59657 0.09299 0.49426 0.0
H1308 H 0.61878 0.861 0.30311 0.0
H1309 H 0.60978 0.87009 0.24227 0.0
H1310 H 0.64119 0.84552 0.18266 0.0
H1311 H 0.65022 0.83651 0.24254 0.0
H1312 H 0.62609 0.88477 0.18111 0.0
H1313 H 0.60238 0.83369 0.13476 0.0
H1314 H 0.60649 0.83745 0.18373 0.0
H1315 H 0.62038 0.83271 0.15129 0.0
C1316 C 0.62379 0.8576 0.27704 0.0
C1317 C 0.63519 0.84798 0.27781 0.0
C1318 C 0.61863 0.86278 0.24233 0.0
C1319 C 0.62469 0.8583 0.20794 0.0
C1320 C 0.6362 0.84893 0.20878 0.0
H1321 H 0.60733 0.87247 0.9669 0.0
H1322 H 0.61716 0.8642 0.0276 0.0
C1323 C 0.64139 0.84384 0.24321 0.0
C1324 C 0.61917 0.86338 0.17092 0.0
H1325 H 0.60348 0.85205 0.08902 0.0
C1326 C 0.62105 0.87766 0.16106 0.0
C1327 C 0.6128 0.85402 0.1446 0.0
C1328 C 0.61026 0.83863 0.15408 0.0
C1329 C 0.61689 0.88281 0.12534 0.0
C1330 C 0.61036 0.87348 0.0991 0.0
C1331 C 0.60853 0.85918 0.109 0.0
C1332 C 0.6047 0.87853 0.06208 0.0
C1333 C 0.61984 0.89813 0.11577 0.0
C1334 C 0.59431 0.88914 0.06128 0.0
C1335 C 0.58876 0.89389 0.02689 0.0
C1336 C 0.59335 0.88805 0.99226 0.0
C1337 C 0.60364 0.87725 0.993 0.0
C1338 C 0.60924 0.87251 0.02766 0.0
H1339 H 0.62864 0.90248 0.13318 0.0
H1340 H 0.62259 0.89941 0.08537 0.0
H1341 H 0.61022 0.90453 0.12173 0.0
H1342 H 0.59034 0.89368 0.08739 0.0
H1343 H 0.58076 0.90212 0.02762 0.0
H1344 H 0.61225 0.62599 0.46634 0.0
H1345 H 0.62094 0.63539 0.52709 0.0
H1346 H 0.60609 0.59773 0.58391 0.0
H1347 H 0.5978 0.5882 0.52395 0.0
H1348 H 0.60561 0.64157 0.59092 0.0
H1349 H 0.64556 0.60066 0.62613 0.0
H1350 H 0.63798 0.60231 0.5794 0.0
H1351 H 0.62849 0.59314 0.61631 0.0
C1352 C 0.61109 0.61962 0.4917 0.0
C1353 C 0.60439 0.6063 0.49012 0.0
C1354 C 0.61599 0.62503 0.52644 0.0
C1355 C 0.61438 0.61717 0.56011 0.0
C1356 C 0.60781 0.60386 0.55837 0.0
H1357 H 0.62742 0.63498 0.80245 0.0
H1358 H 0.61931 0.62473 0.74192 0.0
C1359 C 0.60297 0.59846 0.52388 0.0
C1360 C 0.61879 0.6231 0.59749 0.0
H1361 H 0.63842 0.6159 0.67679 0.0
C1362 C 0.61287 0.636 0.60952 0.0
C1363 C 0.62821 0.6158 0.62202 0.0
C1364 C 0.63553 0.60228 0.61018 0.0
C1365 C 0.61593 0.64167 0.64547 0.0
C1366 C 0.62521 0.63431 0.67004 0.0
C1367 C 0.63114 0.62142 0.65812 0.0
C1368 C 0.62976 0.64042 0.70693 0.0
C1369 C 0.6091 0.65546 0.65715 0.0
C1370 C 0.63838 0.6525 0.70725 0.0
C1371 C 0.64307 0.65826 0.74143 0.0
C1372 C 0.63925 0.6521 0.77635 0.0
C1373 C 0.63053 0.63999 0.77611 0.0
C1374 C 0.62592 0.63412 0.74159 0.0
H1375 H 0.59985 0.65813 0.639 0.0
H1376 H 0.60557 0.65499 0.68715 0.0
H1377 H 0.61698 0.66415 0.65459 0.0
H1378 H 0.64161 0.65744 0.68089 0.0
H1379 H 0.64974 0.66761 0.74035 0.0
H1380 H 0.65565 0.34631 0.77208 0.0
H1381 H 0.64621 0.35544 0.83124 0.0
H1382 H 0.60923 0.37097 0.77259 0.0
H1383 H 0.61856 0.36144 0.71261 0.0
H1384 H 0.63867 0.38173 0.85616 0.0
H1385 H 0.59193 0.34569 0.8539 0.0
H1386 H 0.60653 0.34372 0.82134 0.0
H1387 H 0.59366 0.35751 0.81423 0.0
C1388 C 0.64551 0.3517 0.77148 0.0
C1389 C 0.63778 0.35298 0.73753 0.0
C1390 C 0.64016 0.357 0.80548 0.0
C1391 C 0.62691 0.36372 0.80665 0.0
C1392 C 0.61937 0.36559 0.77257 0.0
H1393 H 0.59928 0.39749 0.02999 0.0
H1394 H 0.60653 0.3968 0.96324 0.0
C1395 C 0.62475 0.36023 0.73825 0.0
C1396 C 0.62099 0.368 0.84413 0.0
H1397 H 0.59515 0.35959 0.90822 0.0
C1398 C 0.62904 0.37705 0.86741 0.0
C1399 C 0.60851 0.36178 0.85897 0.0
C1400 C 0.59967 0.35155 0.83606 0.0
C1401 C 0.62526 0.37961 0.90539 0.0
C1402 C 0.61294 0.37314 0.92042 0.0
C1403 C 0.60459 0.36456 0.89669 0.0
C1404 C 0.60915 0.374 0.96138 0.0
C1405 C 0.63489 0.3886 0.92964 0.0
C1406 C 0.60818 0.36147 0.98267 0.0
C1407 C 0.60393 0.36183 0.02057 0.0
C1408 C 0.60051 0.37475 0.03832 0.0
C1409 C 0.60187 0.38737 0.01734 0.0
C1410 C 0.60606 0.387 0.97914 0.0
H1411 H 0.64539 0.39033 0.91611 0.0
H1412 H 0.62991 0.39912 0.93419 0.0
H1413 H 0.63656 0.38361 0.95779 0.0
H1414 H 0.61058 0.35133 0.96978 0.0
H1415 H 0.60309 0.35189 0.03578 0.0
H1416 H 0.8855 0.37226 0.95825 0.0
H1417 H 0.87569 0.36372 0.01875 0.0
H1418 H 0.90031 0.39502 0.07879 0.0
H1419 H 0.90981 0.40372 0.01925 0.0
H1420 H 0.88967 0.35259 0.0807 0.0
H1421 H 0.86151 0.40151 0.12364 0.0
H1422 H 0.86796 0.39877 0.07605 0.0
H1423 H 0.87981 0.4047 0.11277 0.0
C1424 C 0.88868 0.37741 0.98434 0.0
C1425 C 0.89836 0.38875 0.98374 0.0
C1426 C 0.8831 0.37251 0.0189 0.0
C1427 C 0.88704 0.37892 0.05335 0.0
C1428 C 0.89678 0.39015 0.05265 0.0
H1429 H 0.874 0.36087 0.29463 0.0
H1430 H 0.88257 0.3703 0.23365 0.0
C1431 C 0.90229 0.39505 0.01839 0.0
C1432 C 0.88156 0.37362 0.09034 0.0
H1433 H 0.86517 0.38418 0.17216 0.0
C1434 C 0.8842 0.35947 0.10052 0.0
C1435 C 0.87448 0.38261 0.11641 0.0
C1436 C 0.87064 0.3977 0.10655 0.0
C1437 C 0.88022 0.35417 0.13623 0.0
C1438 C 0.87333 0.36321 0.16239 0.0
C1439 C 0.87062 0.37733 0.15224 0.0
C1440 C 0.86809 0.3579 0.1995 0.0
C1441 C 0.8836 0.33896 0.14599 0.0
C1442 C 0.85698 0.34807 0.20047 0.0
C1443 C 0.85203 0.34279 0.23496 0.0
C1444 C 0.85809 0.34719 0.26951 0.0
C1445 C 0.86911 0.35725 0.2686 0.0
C1446 C 0.87402 0.36263 0.23382 0.0
H1447 H 0.89164 0.33438 0.12654 0.0
H1448 H 0.88755 0.33811 0.17555 0.0
H1449 H 0.87379 0.33251 0.14374 0.0
H1450 H 0.85211 0.34444 0.1744 0.0
H1451 H 0.8435 0.3351 0.23437 0.0
H1452 H 0.88057 0.63934 0.21516 0.0
H1453 H 0.88954 0.63061 0.27631 0.0
H1454 H 0.85564 0.65228 0.33422 0.0
H1455 H 0.84666 0.66098 0.27394 0.0
H1456 H 0.8832 0.65747 0.36463 0.0
H1457 H 0.87182 0.59998 0.34716 0.0
H1458 H 0.8815 0.60831 0.30929 0.0
H1459 H 0.86348 0.6134 0.31826 0.0
C1460 C 0.87495 0.64211 0.2409 0.0
C1461 C 0.86289 0.65086 0.23955 0.0
C1462 C 0.88007 0.6371 0.2758 0.0
C1463 C 0.8732 0.64075 0.30981 0.0
C1464 C 0.86111 0.64934 0.30838 0.0
H1465 H 0.8895 0.62756 0.5528 0.0
H1466 H 0.87969 0.63569 0.49201 0.0
C1467 C 0.85598 0.65429 0.27374 0.0
C1468 C 0.87872 0.63606 0.34721 0.0
H1469 H 0.88399 0.60686 0.40263 0.0
C1470 C 0.88338 0.64641 0.37301 0.0
C1471 C 0.87888 0.62164 0.35808 0.0
C1472 C 0.87356 0.61015 0.33197 0.0
C1473 C 0.88846 0.6427 0.40914 0.0
C1474 C 0.88857 0.62827 0.42014 0.0
C1475 C 0.88385 0.61793 0.39431 0.0
C1476 C 0.89425 0.62352 0.45742 0.0
C1477 C 0.89405 0.65425 0.4347 0.0
C1478 C 0.90545 0.61376 0.45831 0.0
C1479 C 0.91091 0.60901 0.49276 0.0
C1480 C 0.90533 0.61388 0.52741 0.0
C1481 C 0.89408 0.62366 0.52666 0.0
C1482 C 0.88853 0.62837 0.49192 0.0
H1483 H 0.89657 0.66407 0.41865 0.0
H1484 H 0.88586 0.65692 0.45612 0.0
H1485 H 0.90374 0.65072 0.44986 0.0
H1486 H 0.91006 0.60986 0.4322 0.0
H1487 H 0.9196 0.60151 0.49209 0.0
H1488 H 0.40109 0.40951 0.49771 0.0
H1489 H 0.39189 0.39972 0.43895 0.0
H1490 H 0.37815 0.36222 0.49834 0.0
H1491 H 0.38757 0.37199 0.5581 0.0
H1492 H 0.40137 0.37254 0.40725 0.0
H1493 H 0.34314 0.37566 0.43192 0.0
H1494 H 0.35562 0.38651 0.45782 0.0
H1495 H 0.35392 0.36802 0.46878 0.0
C1496 C 0.39601 0.39922 0.49864 0.0
C1497 C 0.39515 0.39151 0.53279 0.0
C1498 C 0.39076 0.39363 0.46483 0.0
C1499 C 0.38436 0.38024 0.46412 0.0
C1500 C 0.38297 0.37264 0.49829 0.0
H1501 H 0.34742 0.33185 0.28091 0.0
H1502 H 0.35551 0.34142 0.34093 0.0
C1503 C 0.38832 0.37824 0.53244 0.0
C1504 C 0.37985 0.37418 0.42706 0.0
H1505 H 0.35073 0.36601 0.37385 0.0
C1506 C 0.39029 0.37105 0.39992 0.0
C1507 C 0.36543 0.37232 0.41753 0.0
C1508 C 0.3538 0.37586 0.44531 0.0
C1509 C 0.38672 0.36591 0.3637 0.0
C1510 C 0.37225 0.36423 0.35384 0.0
C1511 C 0.36182 0.36736 0.38115 0.0
C1512 C 0.36767 0.35853 0.31624 0.0
C1513 C 0.39852 0.36197 0.3368 0.0
C1514 C 0.37175 0.36493 0.28179 0.0
C1515 C 0.36721 0.35932 0.24686 0.0
C1516 C 0.3583 0.34737 0.24581 0.0
C1517 C 0.3542 0.34112 0.28039 0.0
C1518 C 0.35882 0.3466 0.31498 0.0
H1519 H 0.40868 0.36016 0.35201 0.0
H1520 H 0.39585 0.35225 0.32055 0.0
H1521 H 0.4002 0.37077 0.31641 0.0
H1522 H 0.37832 0.37435 0.28188 0.0
H1523 H 0.37051 0.36444 0.22082 0.0
H1524 H 0.382 0.61161 0.97121 0.0
H1525 H 0.37108 0.61901 0.03175 0.0
H1526 H 0.40948 0.60776 0.09082 0.0
H1527 H 0.42017 0.60028 0.03172 0.0
H1528 H 0.38622 0.5959 0.12354 0.0
H1529 H 0.37791 0.65365 0.10034 0.0
H1530 H 0.37043 0.64191 0.0655 0.0
H1531 H 0.38933 0.64316 0.07033 0.0
C1532 C 0.38811 0.61091 0.99711 0.0
C1533 C 0.40189 0.60519 0.99657 0.0
C1534 C 0.38189 0.61516 0.0317 0.0
C1535 C 0.38945 0.61392 0.06605 0.0
C1536 C 0.40335 0.60871 0.06497 0.0
H1537 H 0.38111 0.64862 0.29127 0.0
H1538 H 0.38688 0.64286 0.22542 0.0
C1539 C 0.40945 0.60442 0.03091 0.0
C1540 C 0.38304 0.61726 0.10377 0.0
H1541 H 0.37125 0.64441 0.15984 0.0
C1542 C 0.38281 0.60649 0.13134 0.0
C1543 C 0.37874 0.6311 0.11419 0.0
C1544 C 0.37917 0.64319 0.08625 0.0
C1545 C 0.37882 0.60922 0.16905 0.0
C1546 C 0.37455 0.62306 0.1796 0.0
C1547 C 0.37447 0.63379 0.15184 0.0
C1548 C 0.37073 0.62671 0.21958 0.0
C1549 C 0.37985 0.59733 0.19759 0.0
C1550 C 0.35967 0.61962 0.23846 0.0
C1551 C 0.35644 0.6228 0.27632 0.0
C1552 C 0.36405 0.63328 0.29613 0.0
C1553 C 0.37502 0.64048 0.27702 0.0
C1554 C 0.3783 0.63723 0.23923 0.0
H1555 H 0.38677 0.5886 0.18737 0.0
H1556 H 0.38408 0.60122 0.22505 0.0
H1557 H 0.36913 0.59286 0.2026 0.0
H1558 H 0.35345 0.61167 0.22384 0.0
H1559 H 0.3478 0.61716 0.28986 0.0
H1560 H 0.12053 0.62469 0.03702 0.0
H1561 H 0.13091 0.63162 0.97573 0.0
H1562 H 0.0982 0.60824 0.91746 0.0
H1563 H 0.08816 0.60103 0.97777 0.0
H1564 H 0.12323 0.60243 0.88781 0.0
H1565 H 0.11756 0.66085 0.90016 0.0
H1566 H 0.1277 0.65276 0.93741 0.0
H1567 H 0.10914 0.64873 0.93273 0.0
C1568 C 0.11556 0.6211 0.01108 0.0
C1569 C 0.10354 0.61226 0.01242 0.0
C1570 C 0.12144 0.62513 0.97603 0.0
C1571 C 0.11527 0.62058 0.94176 0.0
C1572 C 0.10322 0.61188 0.94331 0.0
H1573 H 0.12396 0.65312 0.71329 0.0
H1574 H 0.1169 0.64716 0.77812 0.0
C1575 C 0.09747 0.60776 0.97803 0.0
C1576 C 0.12135 0.62436 0.90398 0.0
H1577 H 0.12896 0.65219 0.84518 0.0
C1578 C 0.12453 0.61333 0.87857 0.0
C1579 C 0.1229 0.63857 0.89162 0.0
C1580 C 0.11904 0.65093 0.91671 0.0
C1581 C 0.12892 0.61604 0.8412 0.0
C1582 C 0.13068 0.63024 0.82895 0.0
C1583 C 0.1277 0.6413 0.8545 0.0
C1584 C 0.13511 0.63385 0.78944 0.0
C1585 C 0.13106 0.60362 0.81483 0.0
C1586 C 0.14775 0.62844 0.77401 0.0
C1587 C 0.15169 0.63165 0.73668 0.0
C1588 C 0.14324 0.64059 0.71414 0.0
C1589 C 0.13071 0.64618 0.72981 0.0
C1590 C 0.12668 0.64282 0.76698 0.0
H1591 H 0.12535 0.59403 0.82492 0.0
H1592 H 0.12736 0.60612 0.78573 0.0
H1593 H 0.14252 0.60099 0.81353 0.0
H1594 H 0.15466 0.62182 0.79093 0.0
H1595 H 0.16152 0.62734 0.72577 0.0
H1596 H 0.15263 0.3392 0.73732 0.0
H1597 H 0.14381 0.3486 0.67767 0.0
H1598 H 0.11175 0.37224 0.73754 0.0
H1599 H 0.12055 0.36275 0.79815 0.0
H1600 H 0.11546 0.34562 0.64816 0.0
H1601 H 0.13178 0.40188 0.6669 0.0
H1602 H 0.13931 0.38765 0.69459 0.0
H1603 H 0.12181 0.39401 0.70495 0.0
C1604 C 0.14373 0.34645 0.73812 0.0
C1605 C 0.13732 0.35023 0.77275 0.0
C1606 C 0.13869 0.3518 0.7038 0.0
C1607 C 0.12719 0.36118 0.70307 0.0
C1608 C 0.12076 0.36512 0.73749 0.0
H1609 H 0.0843 0.40501 0.52142 0.0
H1610 H 0.09333 0.39601 0.5812 0.0
C1611 C 0.12578 0.35968 0.77209 0.0
C1612 C 0.1219 0.36647 0.66596 0.0
H1613 H 0.11928 0.3962 0.61109 0.0
C1614 C 0.11627 0.35668 0.64001 0.0
C1615 C 0.12303 0.38088 0.65535 0.0
C1616 C 0.12939 0.39176 0.68168 0.0
C1617 C 0.11149 0.36095 0.60399 0.0
C1618 C 0.11273 0.37536 0.59316 0.0
C1619 C 0.11839 0.38514 0.6192 0.0
C1620 C 0.10752 0.3807 0.55587 0.0
C1621 C 0.10481 0.35003 0.57835 0.0
C1622 C 0.11258 0.37523 0.52127 0.0
C1623 C 0.10731 0.38032 0.48658 0.0
C1624 C 0.09701 0.39111 0.48591 0.0
C1625 C 0.09222 0.3967 0.52063 0.0
C1626 C 0.09739 0.39157 0.55505 0.0
H1627 H 0.10128 0.34051 0.59438 0.0
H1628 H 0.09553 0.35451 0.56311 0.0
H1629 H 0.11271 0.34653 0.55702 0.0
H1630 H 0.12064 0.36706 0.52106 0.0
H1631 H 0.11127 0.37583 0.4604 0.0
H1632 H 0.16399 0.14667 0.52097 0.0
H1633 H 0.15906 0.13471 0.58094 0.0
H1634 H 0.11937 0.11945 0.53604 0.0
H1635 H 0.12438 0.1314 0.47545 0.0
H1636 H 0.11761 0.13652 0.60376 0.0
H1637 H 0.15695 0.09314 0.61971 0.0
H1638 H 0.16412 0.10982 0.60412 0.0
H1639 H 0.152 0.10035 0.57413 0.0
C1640 C 0.15446 0.14031 0.52342 0.0
C1641 C 0.14461 0.13984 0.49357 0.0
C1642 C 0.15166 0.13347 0.5577 0.0
C1643 C 0.13889 0.12612 0.56295 0.0
C1644 C 0.12935 0.12497 0.53243 0.0
H1645 H 0.10329 0.08587 0.75982 0.0
H1646 H 0.11481 0.09086 0.69918 0.0
C1647 C 0.13226 0.13167 0.49776 0.0
C1648 C 0.13476 0.12149 0.60165 0.0
H1649 H 0.14442 0.10004 0.67543 0.0
C1650 C 0.12341 0.12848 0.61934 0.0
C1651 C 0.14242 0.11108 0.62201 0.0
C1652 C 0.15449 0.10305 0.60402 0.0
C1653 C 0.11962 0.12547 0.65696 0.0
C1654 C 0.12743 0.11525 0.67759 0.0
C1655 C 0.13863 0.10806 0.65976 0.0
C1656 C 0.12319 0.11117 0.7166 0.0
C1657 C 0.10716 0.13311 0.67435 0.0
C1658 C 0.12468 0.12065 0.74712 0.0
C1659 C 0.11825 0.11772 0.78216 0.0
C1660 C 0.11015 0.10534 0.78676 0.0
C1661 C 0.10954 0.09546 0.75698 0.0
C1662 C 0.11609 0.0983 0.72232 0.0
H1663 H 0.10101 0.1392 0.65298 0.0
H1664 H 0.09994 0.12545 0.68847 0.0
H1665 H 0.11104 0.14062 0.69623 0.0
H1666 H 0.13015 0.13065 0.74321 0.0
H1667 H 0.11868 0.12559 0.80447 0.0
H1668 H 0.11725 0.87622 0.72161 0.0
H1669 H 0.12927 0.87231 0.78273 0.0
H1670 H 0.11085 0.91083 0.82634 0.0
H1671 H 0.09881 0.91469 0.7659 0.0
H1672 H 0.14103 0.90465 0.84881 0.0
H1673 H 0.10196 0.8614 0.87469 0.0
H1674 H 0.11184 0.86071 0.83108 0.0
H1675 H 0.09932 0.87474 0.83868 0.0
C1676 C 0.11618 0.88406 0.74387 0.0
C1677 C 0.1071 0.89573 0.7392 0.0
C1678 C 0.12294 0.88177 0.77879 0.0
C1679 C 0.1208 0.89122 0.80912 0.0
C1680 C 0.11262 0.90342 0.80336 0.0
H1681 H 0.12524 0.87246 0.05048 0.0
H1682 H 0.1188 0.88353 0.98973 0.0
C1683 C 0.10576 0.9056 0.76883 0.0
C1684 C 0.12568 0.88776 0.84798 0.0
H1685 H 0.11851 0.86601 0.92297 0.0
C1686 C 0.13619 0.89616 0.86502 0.0
C1687 C 0.11908 0.8769 0.8693 0.0
C1688 C 0.10735 0.86794 0.85279 0.0
C1689 C 0.14048 0.89377 0.90269 0.0
C1690 C 0.13404 0.88274 0.92375 0.0
C1691 C 0.12338 0.87451 0.90683 0.0
C1692 C 0.13881 0.87882 0.96243 0.0
C1693 C 0.15175 0.90311 0.91984 0.0
C1694 C 0.1523 0.8729 0.96749 0.0
C1695 C 0.15593 0.86656 1.00189 0.0
C1696 C 0.14619 0.86611 0.03199 0.0
C1697 C 0.13304 0.87292 0.02795 0.0
C1698 C 0.12932 0.87912 0.9932 0.0
H1699 H 0.15308 0.91314 0.9037 0.0
H1700 H 0.14916 0.9057 0.94975 0.0
H1701 H 0.16203 0.89739 0.91953 0.0
H1702 H 0.1597 0.87233 0.94404 0.0
H1703 H 0.16608 0.86124 1.00422 0.0
H1704 H 0.33444 0.86283 0.96922 0.0
H1705 H 0.33712 0.87582 0.02934 0.0
H1706 H 0.38049 0.86153 0.03707 0.0
H1707 H 0.37785 0.84888 0.97712 0.0
H1708 H 0.34239 0.86353 0.09693 0.0
H1709 H 0.38495 0.90219 0.06818 0.0
H1710 H 0.37553 0.89325 0.03062 0.0
H1711 H 0.39025 0.88474 0.05392 0.0
C1712 C 0.3447 0.86308 0.98301 0.0
C1713 C 0.35609 0.85526 0.96819 0.0
C1714 C 0.34618 0.87032 0.01755 0.0
C1715 C 0.35907 0.86983 0.03763 0.0
C1716 C 0.37057 0.86244 0.0218 0.0
H1717 H 0.37947 0.86813 0.27348 0.0
H1718 H 0.3686 0.86363 0.21157 0.0
C1719 C 0.36909 0.85524 0.98746 0.0
C1720 C 0.36023 0.87567 0.07675 0.0
H1721 H 0.3821 0.89512 0.13354 0.0
C1722 C 0.35091 0.87066 0.10486 0.0
C1723 C 0.3712 0.88513 0.08721 0.0
C1724 C 0.38094 0.89175 0.05826 0.0
C1725 C 0.35272 0.87427 0.14328 0.0
C1726 C 0.36437 0.88284 0.15407 0.0
C1727 C 0.37323 0.88842 0.12564 0.0
C1728 C 0.36813 0.88571 0.19447 0.0
C1729 C 0.34214 0.86879 0.17179 0.0
C1730 C 0.37129 0.89961 0.2061 0.0
C1731 C 0.37773 0.90212 0.24115 0.0
C1732 C 0.38086 0.89083 0.26566 0.0
C1733 C 0.37674 0.87705 0.25552 0.0
C1734 C 0.37054 0.87448 0.22003 0.0
H1735 H 0.33159 0.8671 0.15853 0.0
H1736 H 0.34583 0.85841 0.1828 0.0
H1737 H 0.3409 0.8762 0.19601 0.0
H1738 H 0.36957 0.90846 0.18709 0.0
H1739 H 0.38107 0.9128 0.24811 0.0
H1740 H 0.37677 0.11419 0.21602 0.0
H1741 H 0.36367 0.11748 0.27579 0.0
H1742 H 0.39924 0.10068 0.33808 0.0
H1743 H 0.41206 0.09706 0.27926 0.0
H1744 H 0.3743 0.09151 0.36786 0.0
H1745 H 0.37334 0.14998 0.34663 0.0
H1746 H 0.36481 0.13974 0.3103 0.0
H1747 H 0.38365 0.13835 0.31689 0.0
C1748 C 0.38166 0.11101 0.24245 0.0
C1749 C 0.39553 0.10555 0.24288 0.0
C1750 C 0.37422 0.11299 0.27661 0.0
C1751 C 0.38059 0.10959 0.31158 0.0
C1752 C 0.3941 0.10345 0.31162 0.0
H1753 H 0.37526 0.12744 0.55029 0.0
H1754 H 0.37972 0.11591 0.48894 0.0
C1755 C 0.40147 0.10146 0.2778 0.0
C1756 C 0.37385 0.11318 0.34853 0.0
H1757 H 0.36415 0.1413 0.40373 0.0
C1758 C 0.37192 0.10238 0.37559 0.0
C1759 C 0.37088 0.12739 0.35881 0.0
C1760 C 0.37337 0.13958 0.33185 0.0
C1761 C 0.36729 0.10542 0.41264 0.0
C1762 C 0.36463 0.11965 0.42305 0.0
C1763 C 0.36617 0.13038 0.39571 0.0
C1764 C 0.36064 0.12391 0.46225 0.0
C1765 C 0.36531 0.09341 0.44032 0.0
C1766 C 0.34829 0.1319 0.46804 0.0
C1767 C 0.34582 0.13851 0.50279 0.0
C1768 C 0.3556 0.13723 0.53263 0.0
C1769 C 0.36743 0.12836 0.52799 0.0
C1770 C 0.36998 0.12181 0.49288 0.0
H1771 H 0.36395 0.08309 0.42554 0.0
H1772 H 0.37484 0.09262 0.45863 0.0
H1773 H 0.35597 0.09527 0.4588 0.0
H1774 H 0.34093 0.13368 0.44494 0.0
H1775 H 0.33663 0.14533 0.50562 0.0
H1776 H 0.87692 0.8818 0.21343 0.0
H1777 H 0.86365 0.87803 0.27277 0.0
H1778 H 0.89433 0.90336 0.33307 0.0
H1779 H 0.90723 0.9074 0.27458 0.0
H1780 H 0.874 0.8644 0.334 0.0
H1781 H 0.85861 0.91826 0.37922 0.0
H1782 H 0.86448 0.91445 0.3316 0.0
H1783 H 0.87719 0.91739 0.36891 0.0
C1784 C 0.88054 0.88689 0.23919 0.0
C1785 C 0.89313 0.89487 0.23931 0.0
C1786 C 0.87301 0.88468 0.27311 0.0
C1787 C 0.87786 0.89058 0.30746 0.0
C1788 C 0.89011 0.89899 0.30703 0.0
H1789 H 0.87155 0.87158 0.54668 0.0
H1790 H 0.87676 0.88269 0.48498 0.0
C1791 C 0.89758 0.90116 0.27345 0.0
C1792 C 0.87129 0.88672 0.34451 0.0
H1793 H 0.85989 0.90059 0.42889 0.0
C1794 C 0.87067 0.87231 0.35443 0.0
C1795 C 0.86706 0.89703 0.37149 0.0
C1796 C 0.86673 0.91263 0.36209 0.0
C1797 C 0.86649 0.86798 0.39085 0.0
C1798 C 0.86265 0.87831 0.41812 0.0
C1799 C 0.86296 0.8927 0.40808 0.0
C1800 C 0.85822 0.87413 0.45698 0.0
C1801 C 0.86665 0.85237 0.40031 0.0
C1802 C 0.84574 0.8663 0.4621 0.0
C1803 C 0.84279 0.86 0.49702 0.0
C1804 C 0.85216 0.86155 0.52772 0.0
C1805 C 0.86406 0.8704 0.52364 0.0
C1806 C 0.86708 0.87665 0.48837 0.0
H1807 H 0.87264 0.84609 0.37903 0.0
H1808 H 0.87142 0.85055 0.42866 0.0
H1809 H 0.8556 0.84833 0.40101 0.0
H1810 H 0.83867 0.86438 0.43846 0.0
H1811 H 0.83354 0.85323 0.49943 0.0
H1812 H 0.89532 0.08396 0.27072 0.0
H1813 H 0.88361 0.08938 0.21062 0.0
H1814 H 0.86866 0.12896 0.25683 0.0
H1815 H 0.88029 0.12345 0.31757 0.0
H1816 H 0.85363 0.0992 0.18871 0.0
H1817 H 0.89779 0.13751 0.16559 0.0
H1818 H 0.89888 0.12343 0.20015 0.0
H1819 H 0.88814 0.13872 0.20951 0.0
C1820 C 0.88911 0.09359 0.26849 0.0
C1821 C 0.88864 0.10327 0.29874 0.0
C1822 C 0.88246 0.09668 0.23413 0.0
C1823 C 0.87539 0.10961 0.22919 0.0
C1824 C 0.87408 0.11891 0.26016 0.0
H1825 H 0.83446 0.14675 0.03566 0.0
H1826 H 0.83956 0.13494 0.09575 0.0
C1827 C 0.8806 0.11572 0.29489 0.0
C1828 C 0.87103 0.11396 0.1905 0.0
H1829 H 0.88096 0.13526 0.11682 0.0
C1830 C 0.85953 0.10713 0.17301 0.0
C1831 C 0.87896 0.12407 0.16984 0.0
C1832 C 0.8917 0.13134 0.18693 0.0
C1833 C 0.85559 0.1104 0.13552 0.0
C1834 C 0.86341 0.12069 0.1151 0.0
C1835 C 0.87503 0.12732 0.13246 0.0
C1836 C 0.85919 0.12551 0.07665 0.0
C1837 C 0.84319 0.10279 0.11785 0.0
C1838 C 0.86839 0.12387 0.04556 0.0
C1839 C 0.8654 0.13049 0.01084 0.0
C1840 C 0.85331 0.13907 1.00714 0.0
C1841 C 0.84381 0.14011 0.03772 0.0
C1842 C 0.84669 0.13335 0.07207 0.0
H1843 H 0.8404 0.09299 0.13368 0.0
H1844 H 0.83381 0.1099 0.11799 0.0
H1845 H 0.84552 0.09995 0.08795 0.0
H1846 H 0.87817 0.11795 0.04865 0.0
H1847 H 0.873 0.12973 0.98791 0.0
H1848 H 0.62344 0.12474 0.71925 0.0
H1849 H 0.63471 0.12975 0.78062 0.0
H1850 H 0.61779 0.09071 0.82558 0.0
H1851 H 0.60638 0.08586 0.76487 0.0
H1852 H 0.60917 0.11409 0.86489 0.0
H1853 H 0.66753 0.11526 0.84638 0.0
H1854 H 0.65798 0.12557 0.81202 0.0
H1855 H 0.65583 0.10663 0.81304 0.0
C1856 C 0.62267 0.11698 0.7418 0.0
C1857 C 0.61407 0.10493 0.73748 0.0
C1858 C 0.62908 0.11984 0.77688 0.0
C1859 C 0.62711 0.11058 0.80774 0.0
C1860 C 0.61946 0.09799 0.80225 0.0
H1861 H 0.63432 0.12904 0.05282 0.0
H1862 H 0.63215 0.1153 0.99379 0.0
C1863 C 0.61298 0.09522 0.76753 0.0
C1864 C 0.63096 0.11496 0.84686 0.0
H1865 H 0.65837 0.12595 0.90286 0.0
C1866 C 0.61996 0.11647 0.8734 0.0
C1867 C 0.64502 0.1181 0.85783 0.0
C1868 C 0.6573 0.1162 0.83096 0.0
C1869 C 0.62252 0.12162 0.91007 0.0
C1870 C 0.63655 0.12507 0.92089 0.0
C1871 C 0.64763 0.12318 0.89467 0.0
C1872 C 0.63961 0.13226 0.95746 0.0
C1873 C 0.61005 0.12404 0.93614 0.0
C1874 C 0.64514 0.14604 0.95683 0.0
C1875 C 0.64648 0.15378 0.99025 0.0
C1876 C 0.64234 0.14794 0.02524 0.0
C1877 C 0.63752 0.13384 0.02628 0.0
C1878 C 0.63619 0.12604 0.99258 0.0
H1879 H 0.59977 0.12353 0.92081 0.0
H1880 H 0.60996 0.11574 0.95841 0.0
H1881 H 0.61085 0.13453 0.95026 0.0
H1882 H 0.64789 0.15106 0.9302 0.0
H1883 H 0.6504 0.16456 0.98841 0.0
H1884 H 0.61655 0.913 0.77914 0.0
H1885 H 0.6286 0.90906 0.71833 0.0
H1886 H 0.61568 0.86515 0.72092 0.0
H1887 H 0.60433 0.86899 0.78242 0.0
H1888 H 0.64058 0.86724 0.68862 0.0
H1889 H 0.60499 0.90753 0.62469 0.0
H1890 H 0.61652 0.91452 0.66049 0.0
H1891 H 0.60315 0.90173 0.67306 0.0
C1892 C 0.61689 0.9024 0.76738 0.0
C1893 C 0.60982 0.89121 0.78558 0.0
C1894 C 0.6235 0.9002 0.7323 0.0
C1895 C 0.62266 0.88691 0.71435 0.0
C1896 C 0.61643 0.87552 0.73397 0.0
H1897 H 0.61812 0.86292 0.48095 0.0
H1898 H 0.61442 0.87363 0.54348 0.0
C1899 C 0.61006 0.87766 0.76928 0.0
C1900 C 0.62726 0.88495 0.67427 0.0
H1901 H 0.62111 0.89628 0.58363 0.0
C1902 C 0.63641 0.87366 0.66569 0.0
C1903 C 0.6216 0.89317 0.64417 0.0
C1904 C 0.61092 0.90482 0.65091 0.0
C1905 C 0.63978 0.87012 0.62808 0.0
C1906 C 0.63433 0.8785 0.598 0.0
C1907 C 0.62544 0.88999 0.60661 0.0
C1908 C 0.63677 0.87473 0.5575 0.0
C1909 C 0.6485 0.85695 0.62108 0.0
C1910 C 0.65055 0.87263 0.54347 0.0
C1911 C 0.65263 0.86632 0.50805 0.0
C1912 C 0.64099 0.86257 0.48542 0.0
C1913 C 0.62726 0.86602 0.49762 0.0
C1914 C 0.62516 0.87202 0.53349 0.0
H1915 H 0.64849 0.84976 0.64605 0.0
H1916 H 0.64444 0.85094 0.5963 0.0
H1917 H 0.65965 0.86003 0.61539 0.0
H1918 H 0.6597 0.87507 0.56084 0.0
H1919 H 0.6633 0.86357 0.49932 0.0
H1920 H 0.66666 0.64339 0.01247 0.0
H1921 H 0.66138 0.63135 0.07214 0.0
H1922 H 0.62113 0.61769 0.02715 0.0
H1923 H 0.62649 0.62969 0.96687 0.0
H1924 H 0.62015 0.6348 0.09522 0.0
H1925 H 0.6576 0.58971 0.11014 0.0
H1926 H 0.66539 0.60611 0.09452 0.0
H1927 H 0.65283 0.59716 0.06469 0.0
C1928 C 0.65693 0.63733 0.01479 0.0
C1929 C 0.64704 0.63733 0.98503 0.0
C1930 C 0.65393 0.63045 0.04891 0.0
C1931 C 0.6409 0.62357 0.05407 0.0
C1932 C 0.63131 0.62285 0.02359 0.0
H1933 H 0.60379 0.58411 0.25005 0.0
H1934 H 0.61512 0.58907 0.18917 0.0
C1935 C 0.63442 0.62958 0.98909 0.0
C1936 C 0.6366 0.61902 0.0927 0.0
H1937 H 0.6453 0.59691 0.16591 0.0
C1938 C 0.62559 0.62646 0.11059 0.0
C1939 C 0.64379 0.60822 0.11278 0.0
C1940 C 0.6555 0.59973 0.09456 0.0
C1941 C 0.62168 0.6235 0.14815 0.0
C1942 C 0.62901 0.61286 0.16847 0.0
C1943 C 0.63988 0.60524 0.15045 0.0
C1944 C 0.62458 0.6088 0.20734 0.0
C1945 C 0.60959 0.63164 0.1658 0.0
C1946 C 0.62667 0.61798 0.23827 0.0
C1947 C 0.62033 0.61507 0.27344 0.0
C1948 C 0.6117 0.60303 0.27777 0.0
C1949 C 0.61039 0.59347 0.24741 0.0
C1950 C 0.61686 0.59627 0.21263 0.0
H1951 H 0.6038 0.63819 0.1447 0.0
H1952 H 0.60197 0.62425 0.17944 0.0
H1953 H 0.6138 0.63878 0.18813 0.0
H1954 H 0.63263 0.62771 0.23468 0.0
H1955 H 0.62135 0.62268 0.29625 0.0
H1956 H 0.66706 0.3585 0.50752 0.0
H1957 H 0.6631 0.36974 0.44607 0.0
H1958 H 0.62031 0.38007 0.47954 0.0
H1959 H 0.6245 0.36926 0.54175 0.0
H1960 H 0.64499 0.35875 0.39855 0.0
H1961 H 0.63014 0.41488 0.41941 0.0
H1962 H 0.6386 0.40454 0.45607 0.0
H1963 H 0.61974 0.40332 0.44867 0.0
C1964 C 0.65701 0.36372 0.50228 0.0
C1965 C 0.64611 0.36313 0.52934 0.0
C1966 C 0.65473 0.37008 0.46709 0.0
C1967 C 0.64141 0.3758 0.45799 0.0
C1968 C 0.63078 0.37605 0.48603 0.0
H1969 H 0.59374 0.37112 0.2577 0.0
H1970 H 0.60736 0.36772 0.31583 0.0
C1971 C 0.63316 0.36987 0.52164 0.0
C1972 C 0.63804 0.37932 0.41783 0.0
H1973 H 0.62238 0.40404 0.3607 0.0
C1974 C 0.64031 0.36879 0.39027 0.0
C1975 C 0.63205 0.39243 0.40666 0.0
C1976 C 0.63013 0.40449 0.43423 0.0
C1977 C 0.63609 0.37071 0.35251 0.0
C1978 C 0.6292 0.3834 0.34197 0.0
C1979 C 0.62761 0.39426 0.36888 0.0
C1980 C 0.62208 0.38484 0.30467 0.0
C1981 C 0.63873 0.35895 0.32437 0.0
C1982 C 0.62592 0.39552 0.27879 0.0
C1983 C 0.6182 0.39736 0.24509 0.0
C1984 C 0.60645 0.38867 0.23742 0.0
C1985 C 0.60289 0.37782 0.26289 0.0
C1986 C 0.61065 0.37588 0.29608 0.0
H1987 H 0.64772 0.35212 0.3333 0.0
H1988 H 0.62913 0.35218 0.32246 0.0
H1989 H 0.64101 0.36327 0.29573 0.0
H1990 H 0.63465 0.4026 0.28507 0.0
H1991 H 0.62091 0.40598 0.22614 0.0
H1992 H 0.87758 0.37409 0.79049 0.0
H1993 H 0.86619 0.36917 0.72906 0.0
H1994 H 0.88064 0.40955 0.68673 0.0
H1995 H 0.8921 0.4144 0.74754 0.0
H1996 H 0.85107 0.39934 0.66223 0.0
H1997 H 0.89626 0.3623 0.63912 0.0
H1998 H 0.88626 0.36032 0.68227 0.0
H1999 H 0.8967 0.37598 0.67488 0.0
C2000 C 0.87779 0.38212 0.76855 0.0
C2001 C 0.88564 0.39463 0.77363 0.0
C2002 C 0.87141 0.37927 0.73343 0.0
C2003 C 0.8727 0.38897 0.70331 0.0
C2004 C 0.87951 0.40196 0.70958 0.0
H2005 H 0.87285 0.36932 0.46181 0.0
H2006 H 0.87721 0.38151 0.52241 0.0
C2007 C 0.88601 0.40472 0.74433 0.0
C2008 C 0.86875 0.38493 0.66409 0.0
H2009 H 0.87968 0.3645 0.58974 0.0
C2010 C 0.85726 0.39168 0.64637 0.0
C2011 C 0.87707 0.3752 0.64323 0.0
C2012 C 0.88984 0.36805 0.66056 0.0
C2013 C 0.85368 0.38866 0.60848 0.0
C2014 C 0.86185 0.37871 0.58789 0.0
C2015 C 0.87349 0.37219 0.60548 0.0
C2016 C 0.85795 0.37399 0.54912 0.0
C2017 C 0.84126 0.39619 0.59061 0.0
C2018 C 0.84553 0.36608 0.54376 0.0
C2019 C 0.84311 0.3591 0.50949 0.0
C2020 C 0.85299 0.35999 0.47978 0.0
C2021 C 0.86495 0.36871 0.48404 0.0
C2022 C 0.86749 0.37556 0.5187 0.0
H2023 H 0.83838 0.40596 0.60643 0.0
H2024 H 0.84362 0.39905 0.56074 0.0
H2025 H 0.83193 0.38901 0.59068 0.0
H2026 H 0.83816 0.36451 0.56693 0.0
H2027 H 0.83388 0.35231 0.50698 0.0
H2028 H 0.88483 0.58544 0.74341 0.0
H2029 H 0.87218 0.58884 0.8034 0.0
H2030 H 0.87842 0.63406 0.79372 0.0
H2031 H 0.89023 0.63062 0.73278 0.0
H2032 H 0.88363 0.59748 0.86386 0.0
H2033 H 0.83989 0.63467 0.83612 0.0
H2034 H 0.84921 0.6259 0.79816 0.0
H2035 H 0.85607 0.64208 0.81844 0.0
C2036 C 0.88277 0.59612 0.75327 0.0
C2037 C 0.88807 0.60781 0.73316 0.0
C2038 C 0.87572 0.59807 0.78777 0.0
C2039 C 0.87417 0.61173 0.80322 0.0
C2040 C 0.87899 0.62346 0.78211 0.0
H2041 H 0.88081 0.63653 0.03516 0.0
H2042 H 0.88413 0.62517 0.9735 0.0
C2043 C 0.88574 0.62151 0.74718 0.0
C2044 C 0.86933 0.61358 0.84317 0.0
H2045 H 0.84929 0.63481 0.9002 0.0
C2046 C 0.87588 0.60546 0.87167 0.0
C2047 C 0.85906 0.62378 0.85375 0.0
C2048 C 0.85056 0.63196 0.82488 0.0
C2049 C 0.87297 0.6077 0.91026 0.0
C2050 C 0.86367 0.61878 0.92092 0.0
C2051 C 0.85659 0.62643 0.89237 0.0
C2052 C 0.86167 0.62326 0.96113 0.0
C2053 C 0.87991 0.59812 0.93902 0.0
C2054 C 0.84798 0.62594 0.97523 0.0
C2055 C 0.84614 0.63275 0.01007 0.0
C2056 C 0.85793 0.63666 0.03193 0.0
C2057 C 0.87157 0.63314 0.01931 0.0
C2058 C 0.87344 0.62664 0.98398 0.0
H2059 H 0.88178 0.58739 0.927 0.0
H2060 H 0.8904 0.60257 0.94691 0.0
H2061 H 0.87337 0.59701 0.96501 0.0
H2062 H 0.83872 0.62348 0.95831 0.0
H2063 H 0.83554 0.63569 0.01895 0.0
H2064 H 0.33289 0.35126 1.00573 0.0
H2065 H 0.33743 0.363 0.94522 0.0
H2066 H 0.37486 0.38253 0.99206 0.0
H2067 H 0.37024 0.37081 0.0533 0.0
H2068 H 0.35694 0.40004 0.93645 0.0
H2069 H 0.37236 0.34639 0.88537 0.0
H2070 H 0.35529 0.3477 0.9078 0.0
H2071 H 0.37108 0.35067 0.93511 0.0
C2072 C 0.34185 0.35842 1.00352 0.0
C2073 C 0.35123 0.36013 0.03413 0.0
C2074 C 0.34446 0.36506 0.96887 0.0
C2075 C 0.3566 0.37343 0.96395 0.0
C2076 C 0.36543 0.37608 0.99531 0.0
H2077 H 0.4037 0.40895 0.78074 0.0
H2078 H 0.39118 0.40447 0.83967 0.0
C2079 C 0.36274 0.36948 0.03032 0.0
C2080 C 0.3608 0.37796 0.9252 0.0
H2081 H 0.37264 0.36485 0.84064 0.0
C2082 C 0.36036 0.39237 0.91545 0.0
C2083 C 0.36512 0.36791 0.89771 0.0
C2084 C 0.36612 0.35231 0.9069 0.0
C2085 C 0.36418 0.397 0.87888 0.0
C2086 C 0.36882 0.38697 0.85162 0.0
C2087 C 0.36897 0.37254 0.8613 0.0
C2088 C 0.37499 0.39123 0.81444 0.0
C2089 C 0.3631 0.41259 0.86975 0.0
C2090 C 0.37013 0.38529 0.78018 0.0
C2091 C 0.3774 0.3878 0.74602 0.0
C2092 C 0.38976 0.39611 0.74584 0.0
C2093 C 0.39422 0.40247 0.77988 0.0
C2094 C 0.38697 0.40003 0.8137 0.0
H2095 H 0.3549 0.41785 0.88747 0.0
H2096 H 0.37341 0.41777 0.8759 0.0
H2097 H 0.36049 0.41435 0.83943 0.0
H2098 H 0.36097 0.37835 0.78009 0.0
H2099 H 0.3738 0.38266 0.72032 0.0
H2100 H 0.38071 0.6138 0.80428 0.0
H2101 H 0.36969 0.6189 0.74257 0.0
H2102 H 0.39102 0.58276 0.69403 0.0
H2103 H 0.4021 0.5778 0.75507 0.0
H2104 H 0.3969 0.6075 0.65662 0.0
H2105 H 0.33879 0.60158 0.67489 0.0
H2106 H 0.34718 0.61253 0.71 0.0
H2107 H 0.35143 0.59397 0.70754 0.0
C2108 C 0.38258 0.60666 0.78077 0.0
C2109 C 0.39224 0.5954 0.78445 0.0
C2110 C 0.37632 0.60958 0.74545 0.0
C2111 C 0.37951 0.60119 0.71355 0.0
C2112 C 0.3884 0.5894 0.71809 0.0
H2113 H 0.37025 0.61951 0.46836 0.0
H2114 H 0.37421 0.60617 0.52748 0.0
C2115 C 0.39469 0.58655 0.75307 0.0
C2116 C 0.37517 0.60559 0.67466 0.0
H2117 H 0.34663 0.61329 0.61868 0.0
C2118 C 0.38589 0.60859 0.64816 0.0
C2119 C 0.36084 0.60705 0.66364 0.0
C2120 C 0.34887 0.6035 0.69035 0.0
C2121 C 0.38272 0.61351 0.61153 0.0
C2122 C 0.36837 0.61518 0.6006 0.0
C2123 C 0.35762 0.61189 0.62686 0.0
C2124 C 0.3644 0.62188 0.56381 0.0
C2125 C 0.3948 0.61753 0.58557 0.0
C2126 C 0.35695 0.63473 0.56426 0.0
C2127 C 0.35459 0.64221 0.53077 0.0
C2128 C 0.35958 0.63706 0.4958 0.0
C2129 C 0.36631 0.62376 0.49484 0.0
C2130 C 0.36869 0.61622 0.52866 0.0
H2131 H 0.40502 0.61841 0.60103 0.0
H2132 H 0.39603 0.60928 0.56342 0.0
H2133 H 0.39264 0.6278 0.57129 0.0
H2134 H 0.35346 0.63931 0.59083 0.0
H2135 H 0.34922 0.65234 0.53255 0.0
H2136 H 0.12397 0.64287 0.51663 0.0
H2137 H 0.12127 0.63115 0.45529 0.0
H2138 H 0.16654 0.62475 0.44971 0.0
H2139 H 0.16921 0.637 0.51075 0.0
H2140 H 0.15777 0.63652 0.3872 0.0
H2141 H 0.12183 0.59173 0.41591 0.0
H2142 H 0.1142 0.60783 0.43347 0.0
H2143 H 0.13055 0.60132 0.45351 0.0
C2144 C 0.13324 0.63839 0.503 0.0
C2145 C 0.14674 0.64041 0.51872 0.0
C2146 C 0.13172 0.6317 0.46787 0.0
C2147 C 0.14367 0.62681 0.44791 0.0
C2148 C 0.15714 0.6283 0.46459 0.0
H2149 H 0.12139 0.58645 0.23322 0.0
H2150 H 0.13366 0.59038 0.29347 0.0
C2151 C 0.15867 0.63512 0.49964 0.0
C2152 C 0.14217 0.62173 0.40808 0.0
H2153 H 0.12172 0.60069 0.35154 0.0
C2154 C 0.15007 0.62848 0.37947 0.0
C2155 C 0.13235 0.61106 0.39774 0.0
C2156 C 0.12439 0.60248 0.42689 0.0
C2157 C 0.14789 0.6254 0.34091 0.0
C2158 C 0.13718 0.61562 0.33045 0.0
C2159 C 0.12982 0.60834 0.35919 0.0
C2160 C 0.13275 0.61331 0.29028 0.0
C2161 C 0.1571 0.63271 0.31192 0.0
C2162 C 0.1287 0.62483 0.26733 0.0
C2163 C 0.12213 0.62255 0.23225 0.0
C2164 C 0.11924 0.60872 0.21988 0.0
C2165 C 0.12386 0.5972 0.2418 0.0
C2166 C 0.1307 0.59947 0.27644 0.0
H2167 H 0.16774 0.63515 0.32381 0.0
H2168 H 0.1585 0.62614 0.28609 0.0
H2169 H 0.15213 0.64292 0.30377 0.0
H2170 H 0.12968 0.6356 0.2776 0.0
H2171 H 0.11819 0.63158 0.21642 0.0
H2172 H 0.11113 0.3737 0.28318 0.0
H2173 H 0.12233 0.36911 0.22193 0.0
H2174 H 0.12678 0.41417 0.20361 0.0
H2175 H 0.11469 0.41866 0.26386 0.0
H2176 H 0.11528 0.40378 0.14567 0.0
H2177 H 0.16036 0.3686 0.17691 0.0
H2178 H 0.14451 0.36114 0.19647 0.0
H2179 H 0.15103 0.37792 0.21389 0.0
C2180 C 0.11509 0.38257 0.26675 0.0
C2181 C 0.11241 0.39652 0.27847 0.0
C2182 C 0.12149 0.37997 0.23162 0.0
C2183 C 0.12564 0.39128 0.20802 0.0
C2184 C 0.12374 0.40524 0.22112 0.0
H2185 H 0.16472 0.36541 0.99405 0.0
H2186 H 0.16099 0.37783 0.05418 0.0
C2187 C 0.11701 0.40783 0.25577 0.0
C2188 C 0.13022 0.38861 0.16811 0.0
H2189 H 0.15078 0.36702 0.11333 0.0
C2190 C 0.12326 0.39592 0.13872 0.0
C2191 C 0.14078 0.37856 0.15857 0.0
C2192 C 0.14969 0.37125 0.18822 0.0
C2193 C 0.12614 0.39307 0.10038 0.0
C2194 C 0.13582 0.38216 0.0909 0.0
C2195 C 0.1432 0.37527 0.12026 0.0
C2196 C 0.13804 0.37721 0.05112 0.0
C2197 C 0.1188 0.40192 0.07063 0.0
C2198 C 0.12645 0.3732 0.02834 0.0
C2199 C 0.12862 0.3666 0.99326 0.0
C2200 C 0.14241 0.36356 0.98081 0.0
C2201 C 0.154 0.36798 1.00275 0.0
C2202 C 0.15185 0.3749 0.03732 0.0
H2203 H 0.11649 0.41274 0.08145 0.0
H2204 H 0.1253 0.40289 0.04452 0.0
H2205 H 0.10851 0.39692 0.06327 0.0
H2206 H 0.1157 0.37435 0.03862 0.0
H2207 H 0.11953 0.36281 0.97741 0.0
H2208 H 0.28853 0.15447 0.64694 0.0
H2209 H 0.26633 0.15577 0.61066 0.0
H2210 H 0.29 0.16567 0.50958 0.0
H2211 H 0.31216 0.16428 0.54538 0.0
H2212 H 0.25842 0.18238 0.55282 0.0
H2213 H 0.26252 0.12735 0.4961 0.0
H2214 H 0.26992 0.13215 0.54157 0.0
H2215 H 0.27824 0.13821 0.4989 0.0
C2216 C 0.28897 0.15694 0.61701 0.0
C2217 C 0.30207 0.15935 0.59909 0.0
C2218 C 0.27632 0.15773 0.59643 0.0
C2219 C 0.27662 0.16081 0.55759 0.0
C2220 C 0.28962 0.16333 0.53962 0.0
H2221 H 0.21277 0.15675 0.38115 0.0
H2222 H 0.2349 0.15775 0.41744 0.0
C2223 C 0.30225 0.16264 0.5602 0.0
C2224 C 0.26335 0.16109 0.53547 0.0
H2225 H 0.24311 0.14106 0.47591 0.0
C2226 C 0.255 0.17337 0.53602 0.0
C2227 C 0.2591 0.14934 0.51346 0.0
C2228 C 0.26783 0.13594 0.5123 0.0
C2229 C 0.24246 0.17426 0.5147 0.0
C2230 C 0.23805 0.1624 0.49306 0.0
C2231 C 0.24649 0.15013 0.49251 0.0
C2232 C 0.22468 0.16241 0.47093 0.0
C2233 C 0.23424 0.18799 0.51488 0.0
C2234 C 0.2116 0.16462 0.48898 0.0
C2235 C 0.19899 0.16413 0.46826 0.0
C2236 C 0.1992 0.16124 0.42918 0.0
C2237 C 0.2123 0.15896 0.41123 0.0
C2238 C 0.22493 0.15955 0.4319 0.0
H2239 H 0.24103 0.19708 0.52337 0.0
H2240 H 0.22963 0.19024 0.48657 0.0
H2241 H 0.22544 0.18718 0.53563 0.0
H2242 H 0.21112 0.16643 0.51925 0.0
H2243 H 0.18905 0.16559 0.4831 0.0
H2244 H 0.09737 0.9628 0.63354 0.0
H2245 H 0.09676 0.98431 0.67228 0.0
H2246 H 0.07506 0.96149 0.76082 0.0
H2247 H 0.07587 0.93989 0.72279 0.0
H2248 H 0.06378 0.98971 0.7422 0.0
H2249 H 0.12183 0.98885 0.76989 0.0
H2250 H 0.1167 0.98752 0.72095 0.0
H2251 H 0.11222 0.97349 0.75323 0.0
C2252 C 0.09247 0.96235 0.66124 0.0
C2253 C 0.08674 0.94958 0.67504 0.0
C2254 C 0.09211 0.97464 0.68328 0.0
C2255 C 0.08602 0.97439 0.71951 0.0
C2256 C 0.07982 0.96185 0.73289 0.0
H2257 H 0.09733 0.03724 0.89762 0.0
H2258 H 0.09554 0.01512 0.86157 0.0
C2259 C 0.08021 0.94953 0.71093 0.0
C2260 C 0.08645 0.98713 0.74384 0.0
H2261 H 0.10919 0.00906 0.791 0.0
C2262 C 0.07368 0.99394 0.75299 0.0
C2263 C 0.09939 0.99246 0.75822 0.0
C2264 C 0.11333 0.98517 0.75042 0.0
C2265 C 0.07356 0.00621 0.77551 0.0
C2266 C 0.08654 0.01179 0.7889 0.0
C2267 C 0.09927 0.00478 0.78048 0.0
C2268 C 0.0872 0.02508 0.81106 0.0
C2269 C 0.05955 0.01306 0.78502 0.0
C2270 C 0.08326 0.03797 0.79439 0.0
C2271 C 0.08438 0.05061 0.81474 0.0
C2272 C 0.0895 0.05061 0.85221 0.0
C2273 C 0.09345 0.03763 0.86878 0.0
C2274 C 0.09237 0.02498 0.84832 0.0
H2275 H 0.05052 0.00568 0.78049 0.0
H2276 H 0.0594 0.01674 0.81491 0.0
H2277 H 0.05796 0.02243 0.76649 0.0
H2278 H 0.07955 0.03828 0.76535 0.0
H2279 H 0.08156 0.06039 0.80063 0.0
H2280 H 0.2075 0.86978 0.10976 0.0
H2281 H 0.22892 0.86906 0.07097 0.0
H2282 H 0.22103 0.8251 0.04516 0.0
H2283 H 0.19975 0.82555 0.08475 0.0
H2284 H 0.25362 0.84842 0.07538 0.0
H2285 H 0.22315 0.8476 0.94052 0.0
H2286 H 0.21564 0.8538 0.98461 0.0
H2287 H 0.21762 0.83514 0.9762 0.0
C2288 C 0.21039 0.85986 0.0965 0.0
C2289 C 0.20177 0.84773 0.10024 0.0
C2290 C 0.22262 0.85952 0.07414 0.0
C2291 C 0.2264 0.84709 0.05492 0.0
C2292 C 0.21813 0.83485 0.05943 0.0
H2293 H 0.28723 0.81705 0.89654 0.0
H2294 H 0.26718 0.82198 0.93781 0.0
C2295 C 0.20595 0.83515 0.08194 0.0
C2296 C 0.23878 0.84695 0.0293 0.0
H2297 H 0.24789 0.84364 0.93621 0.0
C2298 C 0.25244 0.84751 0.04491 0.0
C2299 C 0.23709 0.84583 0.98966 0.0
C2300 C 0.2226 0.84566 0.97154 0.0
C2301 C 0.26454 0.84632 0.02188 0.0
C2302 C 0.26285 0.84487 0.98221 0.0
C2303 C 0.24915 0.84475 0.96662 0.0
C2304 C 0.27504 0.84237 0.95655 0.0
C2305 C 0.27897 0.84602 0.04035 0.0
C2306 C 0.28604 0.85231 0.95288 0.0
C2307 C 0.2976 0.84951 0.92909 0.0
C2308 C 0.29823 0.8368 0.90827 0.0
C2309 C 0.28701 0.82704 0.91153 0.0
C2310 C 0.27556 0.82981 0.93537 0.0
H2311 H 0.27825 0.84411 0.07136 0.0
H2312 H 0.28572 0.83765 0.02757 0.0
H2313 H 0.28428 0.85638 0.03592 0.0
H2314 H 0.2857 0.86221 0.96836 0.0
H2315 H 0.306 0.85729 0.92687 0.0
H2316 H 0.37904 0.95275 0.33273 0.0
H2317 H 0.38096 0.97463 0.29595 0.0
H2318 H 0.42544 0.96658 0.27767 0.0
H2319 H 0.42369 0.94481 0.31522 0.0
H2320 H 0.41911 0.9947 0.30007 0.0
H2321 H 0.38551 0.97712 0.17969 0.0
H2322 H 0.37745 0.97522 0.22556 0.0
H2323 H 0.39286 0.9649 0.21385 0.0
C2324 C 0.38927 0.95567 0.32123 0.0
C2325 C 0.40122 0.94699 0.32686 0.0
C2326 C 0.3903 0.96811 0.29982 0.0
C2327 C 0.40329 0.97209 0.28359 0.0
C2328 C 0.41529 0.96362 0.2897 0.0
H2329 H 0.41808 0.03778 0.11417 0.0
H2330 H 0.41648 0.01528 0.14856 0.0
C2331 C 0.41426 0.95115 0.31099 0.0
C2332 C 0.40442 0.98525 0.26083 0.0
H2333 H 0.39216 0.00144 0.18067 0.0
C2334 C 0.41327 0.99617 0.2739 0.0
C2335 C 0.3969 0.98705 0.22647 0.0
C2336 C 0.38774 0.97542 0.21027 0.0
C2337 C 0.41456 0.00898 0.25394 0.0
C2338 C 0.40668 0.01096 0.22024 0.0
C2339 C 0.39808 -8e-05 0.20669 0.0
C2340 C 0.40717 0.02448 0.19889 0.0
C2341 C 0.42444 0.02026 0.26888 0.0
C2342 C 0.40216 0.03702 0.21547 0.0
C2343 C 0.40297 0.04985 0.19585 0.0
C2344 C 0.4088 0.05043 0.15915 0.0
C2345 C 0.41347 0.03774 0.14223 0.0
C2346 C 0.41262 0.02488 0.16191 0.0
H2347 H 0.4322 0.01585 0.28942 0.0
H2348 H 0.43033 0.02543 0.24539 0.0
H2349 H 0.41814 0.02852 0.28364 0.0
H2350 H 0.39762 0.03687 0.24367 0.0
H2351 H 0.39895 0.05931 0.20945 0.0
H2352 H 0.70893 0.84121 0.37321 0.0
H2353 H 0.7312 0.83972 0.40884 0.0
H2354 H 0.70755 0.83344 0.51218 0.0
H2355 H 0.68538 0.83455 0.47651 0.0
H2356 H 0.74065 0.85661 0.46243 0.0
H2357 H 0.73636 0.80254 0.5221 0.0
H2358 H 0.72478 0.80883 0.48506 0.0
H2359 H 0.72126 0.81321 0.53385 0.0
C2360 C 0.70855 0.83934 0.40346 0.0
C2361 C 0.69547 0.83783 0.42203 0.0
C2362 C 0.72124 0.83849 0.42379 0.0
C2363 C 0.72108 0.8362 0.46313 0.0
C2364 C 0.70799 0.83474 0.48172 0.0
H2365 H 0.78839 0.86082 0.61595 0.0
H2366 H 0.76675 0.85878 0.57903 0.0
C2367 C 0.69531 0.83541 0.46132 0.0
C2368 C 0.73453 0.83628 0.48499 0.0
H2369 H 0.75369 0.81777 0.55054 0.0
C2370 C 0.74355 0.84805 0.48144 0.0
C2371 C 0.73845 0.82503 0.50941 0.0
C2372 C 0.72977 0.81163 0.51255 0.0
C2373 C 0.7562 0.84904 0.50219 0.0
C2374 C 0.75971 0.83816 0.52817 0.0
C2375 C 0.75088 0.82622 0.53106 0.0
C2376 C 0.77255 0.83895 0.5524 0.0
C2377 C 0.76576 0.86165 0.49555 0.0
C2378 C 0.78273 0.82811 0.55126 0.0
C2379 C 0.79505 0.82906 0.57315 0.0
C2380 C 0.79751 0.84091 0.59654 0.0
C2381 C 0.78702 0.85153 0.59843 0.0
C2382 C 0.77465 0.85048 0.57684 0.0
H2383 H 0.76387 0.86649 0.46729 0.0
H2384 H 0.76354 0.86985 0.51728 0.0
H2385 H 0.77711 0.85863 0.49757 0.0
H2386 H 0.78125 0.81901 0.53297 0.0
H2387 H 0.80265 0.82049 0.57152 0.0
H2388 H 0.90951 0.96402 0.12927 0.0
H2389 H 0.91111 0.98556 0.16791 0.0
H2390 H 0.91595 0.95991 0.26835 0.0
H2391 H 0.91472 0.93845 0.22971 0.0
H2392 H 0.89411 0.99451 0.22196 0.0
H2393 H 0.94766 0.98758 0.28317 0.0
H2394 H 0.94127 0.97689 0.24438 0.0
H2395 H 0.93647 0.97261 0.29245 0.0
C2396 C 0.91104 0.96304 0.15956 0.0
C2397 C 0.91214 0.9496 0.17645 0.0
C2398 C 0.91197 0.97531 0.1816 0.0
C2399 C 0.91393 0.97437 0.22098 0.0
C2400 C 0.91491 0.96094 0.23792 0.0
H2401 H 0.89015 0.03946 0.38085 0.0
H2402 H 0.89202 0.01841 0.34168 0.0
C2403 C 0.91416 0.94867 0.21583 0.0
C2404 C 0.91411 0.98741 0.24453 0.0
H2405 H 0.93279 0.00487 0.31309 0.0
C2406 C 0.90264 0.99683 0.24165 0.0
C2407 C 0.92533 0.99057 0.26983 0.0
C2408 C 0.93845 0.98145 0.27238 0.0
C2409 C 0.9019 0.00912 0.26392 0.0
C2410 C 0.91273 0.01185 0.29073 0.0
C2411 C 0.92439 0.00264 0.29296 0.0
C2412 C 0.91213 0.02424 0.31659 0.0
C2413 C 0.88962 0.01915 0.258 0.0
C2414 C 0.92319 0.03419 0.31715 0.0
C2415 C 0.92234 0.04617 0.34036 0.0
C2416 C 0.91036 0.04852 0.36338 0.0
C2417 C 0.89955 0.0382 0.36368 0.0
C2418 C 0.90049 0.02616 0.34079 0.0
H2419 H 0.88491 0.01791 0.22934 0.0
H2420 H 0.88122 0.01679 0.27909 0.0
H2421 H 0.89296 0.03037 0.2616 0.0
H2422 H 0.93238 0.03282 0.29909 0.0
H2423 H 0.93106 0.05363 0.33993 0.0
H2424 H 0.80922 0.16863 0.99251 0.0
H2425 H 0.7877 0.17011 0.03076 0.0
H2426 H 0.7636 0.15151 0.93962 0.0
H2427 H 0.78512 0.15008 0.90094 0.0
H2428 H 0.7621 0.18401 0.01658 0.0
H2429 H 0.75438 0.12591 0.03054 0.0
H2430 H 0.77077 0.13363 0.01403 0.0
H2431 H 0.75592 0.13194 0.98244 0.0
C2432 C 0.79933 0.16505 0.98029 0.0
C2433 C 0.79888 0.15925 0.94356 0.0
C2434 C 0.78705 0.1658 1.00235 0.0
C2435 C 0.77412 0.16071 0.98825 0.0
C2436 C 0.77355 0.15521 0.95134 0.0
H2437 H 0.68916 0.17704 0.06454 0.0
H2438 H 0.71199 0.17627 0.03223 0.0
C2439 C 0.78583 0.15444 0.92925 0.0
C2440 C 0.76121 0.16126 0.01209 0.0
H2441 H 0.73541 0.14058 0.05159 0.0
C2442 C 0.7563 0.17452 0.02442 0.0
C2443 C 0.75381 0.14883 0.02281 0.0
C2444 C 0.75904 0.13425 0.01211 0.0
C2445 C 0.74392 0.17573 0.04627 0.0
C2446 C 0.73618 0.16335 0.05554 0.0
C2447 C 0.74132 0.15006 0.04418 0.0
C2448 C 0.72245 0.16401 0.07584 0.0
C2449 C 0.73928 0.19023 0.05939 0.0
C2450 C 0.72067 0.15713 0.11079 0.0
C2451 C 0.70753 0.15741 0.12923 0.0
C2452 C 0.69592 0.16445 0.11279 0.0
C2453 C 0.6978 0.17136 0.0778 0.0
C2454 C 0.71091 0.17109 0.05948 0.0
H2455 H 0.74824 0.19788 0.05938 0.0
H2456 H 0.73103 0.19433 0.03983 0.0
H2457 H 0.73469 0.18977 0.08834 0.0
H2458 H 0.72944 0.15151 0.12372 0.0
H2459 H 0.70639 0.15187 0.15591 0.0
H2460 H 0.59043 0.06043 0.72518 0.0
H2461 H 0.58915 0.03823 0.76067 0.0
H2462 H 0.5973 0.01473 0.65807 0.0
H2463 H 0.5988 0.03702 0.62248 0.0
H2464 H 0.57137 0.01588 0.75328 0.0
H2465 H 0.62685 0.99857 0.72867 0.0
H2466 H 0.62082 0.01625 0.71773 0.0
H2467 H 0.61717 0.00183 0.6858 0.0
C2468 C 0.59185 0.05054 0.71013 0.0
C2469 C 0.59469 0.05042 0.67103 0.0
C2470 C 0.59118 0.03786 0.73047 0.0
C2471 C 0.59334 0.02484 0.71214 0.0
C2472 C 0.59595 0.02468 0.67297 0.0
H2473 H 0.58715 0.93766 0.78939 0.0
H2474 H 0.58761 0.95948 0.75177 0.0
C2475 C 0.59675 0.03738 0.65265 0.0
C2476 C 0.59261 0.01146 0.73407 0.0
H2477 H 0.6115 0.98191 0.75821 0.0
C2478 C 0.58016 0.00848 0.75446 0.0
C2479 C 0.60412 0.00185 0.73566 0.0
C2480 C 0.61805 0.00482 0.71611 0.0
C2481 C 0.57888 0.99607 0.7761 0.0
C2482 C 0.59032 0.98645 0.77734 0.0
C2483 C 0.60274 0.98934 0.75691 0.0
C2484 C 0.58967 0.97337 0.8002 0.0
C2485 C 0.56528 0.99321 0.79728 0.0
C2486 C 0.59073 0.97404 0.83977 0.0
C2487 C 0.5905 0.96161 0.86131 0.0
C2488 C 0.5891 0.94834 0.84359 0.0
C2489 C 0.58797 0.94774 0.80388 0.0
C2490 C 0.58834 0.96016 0.78235 0.0
H2491 H 0.55671 0.0007 0.78917 0.0
H2492 H 0.56162 0.9822 0.79191 0.0
H2493 H 0.56723 0.99427 0.82817 0.0
H2494 H 0.59186 0.98417 0.85392 0.0
H2495 H 0.59134 0.96235 0.89184 0.0
H2496 H 0.71054 0.64024 0.89645 0.0
H2497 H 0.73221 0.64173 0.93349 0.0
H2498 H 0.71775 0.68082 0.98365 0.0
H2499 H 0.69634 0.67989 0.94504 0.0
H2500 H 0.74528 0.6823 0.96608 0.0
H2501 H 0.73513 0.63243 0.04439 0.0
H2502 H 0.73547 0.62981 0.99408 0.0
H2503 H 0.72188 0.64072 0.01495 0.0
C2504 C 0.71194 0.64927 0.9149 0.0
C2505 C 0.70146 0.65985 0.91794 0.0
C2506 C 0.72432 0.64999 0.93654 0.0
C2507 C 0.72643 0.66117 0.96215 0.0
C2508 C 0.71626 0.67199 0.96443 0.0
H2509 H 0.78967 0.65698 0.14193 0.0
H2510 H 0.7675 0.65867 0.1059 0.0
C2511 C 0.70394 0.67136 0.94251 0.0
C2512 C 0.73928 0.66162 0.98642 0.0
H2513 H 0.75829 0.64233 0.05055 0.0
C2514 C 0.74809 0.6736 0.98474 0.0
C2515 C 0.74278 0.65039 0.01134 0.0
C2516 C 0.73324 0.63768 0.01666 0.0
C2517 C 0.76049 0.67452 1.00662 0.0
C2518 C 0.76439 0.66296 0.03001 0.0
C2519 C 0.75539 0.65113 0.03232 0.0
C2520 C 0.77777 0.66281 0.05214 0.0
C2521 C 0.76914 0.68797 1.00487 0.0
C2522 C 0.79091 0.66454 0.03394 0.0
C2523 C 0.80353 0.66375 0.05457 0.0
C2524 C 0.80326 0.66094 0.09368 0.0
C2525 C 0.79013 0.65914 0.11182 0.0
C2526 C 0.7775 0.66011 0.09128 0.0
H2527 H 0.76257 0.69716 0.99596 0.0
H2528 H 0.77403 0.69044 0.03271 0.0
H2529 H 0.77773 0.68667 0.98367 0.0
H2530 H 0.79143 0.66617 1.00361 0.0
H2531 H 0.8135 0.66484 0.03968 0.0
H2532 H 0.584 0.55818 0.29126 0.0
H2533 H 0.58253 0.53675 0.25262 0.0
H2534 H 0.60304 0.51287 0.3412 0.0
H2535 H 0.60416 0.5342 0.38059 0.0
H2536 H 0.60517 0.52007 0.22715 0.0
H2537 H 0.56812 0.48876 0.31628 0.0
H2538 H 0.57048 0.50764 0.32203 0.0
H2539 H 0.58325 0.49549 0.3414 0.0
C2540 C 0.58792 0.54833 0.30294 0.0
C2541 C 0.59407 0.54787 0.33925 0.0
C2542 C 0.58719 0.53612 0.28062 0.0
C2543 C 0.59251 0.5232 0.29423 0.0
C2544 C 0.59864 0.52268 0.33043 0.0
H2545 H 0.60242 0.43835 0.20799 0.0
H2546 H 0.6033 0.46051 0.24369 0.0
C2547 C 0.59939 0.53489 0.35276 0.0
C2548 C 0.59212 0.51038 0.27004 0.0
H2549 H 0.57962 0.47646 0.2662 0.0
C2550 C 0.59951 0.51055 0.2355 0.0
C2551 C 0.58471 0.49802 0.28107 0.0
C2552 C 0.57607 0.49745 0.31704 0.0
C2553 C 0.6 0.49852 0.21211 0.0
C2554 C 0.59273 0.4861 0.22339 0.0
C2555 C 0.58522 0.48599 0.25773 0.0
C2556 C 0.59292 0.47298 0.20038 0.0
C2557 C 0.6086 0.49905 0.17608 0.0
C2558 C 0.58687 0.47267 0.16406 0.0
C2559 C 0.5863 0.45998 0.14358 0.0
C2560 C 0.59167 0.44736 0.15927 0.0
C2561 C 0.59799 0.44782 0.19535 0.0
C2562 C 0.59856 0.46048 0.21573 0.0
H2563 H 0.61614 0.50811 0.17596 0.0
H2564 H 0.61466 0.48907 0.17205 0.0
H2565 H 0.60134 0.50032 0.15158 0.0
H2566 H 0.58223 0.48215 0.15198 0.0
H2567 H 0.58122 0.45994 0.1161 0.0
H2568 H 0.68935 0.33275 0.54867 0.0
H2569 H 0.71178 0.33031 0.5149 0.0
H2570 H 0.73452 0.34182 0.61646 0.0
H2571 H 0.71191 0.34467 0.65011 0.0
H2572 H 0.74419 0.35617 0.55865 0.0
H2573 H 0.74118 0.29996 0.51563 0.0
H2574 H 0.72583 0.30949 0.49998 0.0
H2575 H 0.72921 0.30753 0.54998 0.0
C2576 C 0.69914 0.33445 0.56401 0.0
C2577 C 0.69894 0.33873 0.60214 0.0
C2578 C 0.71198 0.33302 0.54471 0.0
C2579 C 0.72488 0.33555 0.56333 0.0
C2580 C 0.7247 0.3397 0.60158 0.0
H2581 H 0.80543 0.31819 0.44938 0.0
H2582 H 0.78516 0.31727 0.49202 0.0
C2583 C 0.71183 0.34133 0.62076 0.0
C2584 C 0.73844 0.33494 0.54201 0.0
H2585 H 0.75751 0.31457 0.48039 0.0
C2586 C 0.74719 0.34699 0.54195 0.0
C2587 C 0.74252 0.32289 0.5207 0.0
C2588 C 0.73425 0.3092 0.5219 0.0
C2589 C 0.75959 0.34753 0.52008 0.0
C2590 C 0.7631 0.33587 0.4966 0.0
C2591 C 0.75468 0.32361 0.49783 0.0
C2592 C 0.77533 0.33631 0.47018 0.0
C2593 C 0.76885 0.36056 0.52264 0.0
C2594 C 0.77638 0.3471 0.443 0.0
C2595 C 0.78813 0.34786 0.41901 0.0
C2596 C 0.79903 0.33767 0.42116 0.0
C2597 C 0.79756 0.32647 0.44734 0.0
C2598 C 0.78587 0.32584 0.47166 0.0
H2599 H 0.76736 0.36613 0.5501 0.0
H2600 H 0.78024 0.35785 0.51947 0.0
H2601 H 0.76588 0.36806 0.49974 0.0
H2602 H 0.76815 0.35505 0.44047 0.0
H2603 H 0.78866 0.35662 0.39936 0.0
H2604 H 0.9026 0.46279 0.88652 0.0
H2605 H 0.90401 0.48499 0.85025 0.0
H2606 H 0.91212 0.46118 0.74826 0.0
H2607 H 0.91063 0.43903 0.78414 0.0
H2608 H 0.92932 0.4933 0.79671 0.0
H2609 H 0.87591 0.48859 0.73038 0.0
H2610 H 0.88022 0.48011 0.77484 0.0
H2611 H 0.88706 0.47308 0.73133 0.0
C2612 C 0.90466 0.46233 0.85637 0.0
C2613 C 0.90657 0.44921 0.83821 0.0
C2614 C 0.90552 0.47496 0.83579 0.0
C2615 C 0.90812 0.47463 0.7967 0.0
C2616 C 0.91008 0.46159 0.77846 0.0
H2617 H 0.90781 0.53919 0.62145 0.0
H2618 H 0.90811 0.51686 0.65702 0.0
C2619 C 0.90934 0.44897 0.79904 0.0
C2620 C 0.90873 0.48794 0.7748 0.0
H2621 H 0.89009 0.50791 0.71153 0.0
C2622 C 0.92076 0.49656 0.77811 0.0
C2623 C 0.89757 0.49199 0.75045 0.0
C2624 C 0.88438 0.48305 0.74646 0.0
C2625 C 0.92201 0.50917 0.75723 0.0
C2626 C 0.91074 0.51338 0.73324 0.0
C2627 C 0.89872 0.50467 0.72992 0.0
C2628 C 0.91108 0.52685 0.71167 0.0
C2629 C 0.93553 0.51766 0.76041 0.0
C2630 C 0.91252 0.53985 0.73062 0.0
C2631 C 0.91245 0.55256 0.71034 0.0
C2632 C 0.91072 0.55252 0.67077 0.0
C2633 C 0.90913 0.5395 0.6519 0.0
C2634 C 0.90933 0.52677 0.67217 0.0
H2635 H 0.94451 0.511 0.77037 0.0
H2636 H 0.93846 0.52249 0.7328 0.0
H2637 H 0.93398 0.52631 0.78131 0.0
H2638 H 0.91344 0.54019 0.76119 0.0
H2639 H 0.91334 0.56244 0.72577 0.0
H2640 H 0.21096 0.34707 0.8727 0.0
H2641 H 0.23287 0.34548 0.90985 0.0
H2642 H 0.20874 0.33219 1.00742 0.0
H2643 H 0.18691 0.33373 0.97059 0.0
H2644 H 0.23978 0.36027 0.97441 0.0
H2645 H 0.23989 0.30245 1.00347 0.0
H2646 H 0.22869 0.31038 0.9678 0.0
H2647 H 0.2237 0.31108 0.01696 0.0
C2648 C 0.21037 0.34374 0.90201 0.0
C2649 C 0.19723 0.34037 0.91855 0.0
C2650 C 0.22287 0.3428 0.92315 0.0
C2651 C 0.22245 0.33848 0.96119 0.0
C2652 C 0.20935 0.33517 0.97782 0.0
H2653 H 0.28365 0.34456 0.14361 0.0
H2654 H 0.26211 0.34404 0.10459 0.0
C2655 C 0.19687 0.33603 0.95668 0.0
C2656 C 0.23562 0.33809 0.98405 0.0
H2657 H 0.25626 0.31649 0.03885 0.0
C2658 C 0.24342 0.35068 0.98829 0.0
C2659 C 0.24037 0.32554 1.00206 0.0
C2660 C 0.23281 0.31156 0.99711 0.0
C2661 C 0.25571 0.3511 0.01066 0.0
C2662 C 0.26025 0.33865 0.02921 0.0
C2663 C 0.2526 0.32603 0.02473 0.0
C2664 C 0.27312 0.33857 0.0529 0.0
C2665 C 0.2638 0.36481 0.01463 0.0
C2666 C 0.28631 0.3356 0.03656 0.0
C2667 C 0.29859 0.33593 0.05864 0.0
C2668 C 0.29786 0.33923 0.0975 0.0
C2669 C 0.28455 0.34208 0.11377 0.0
C2670 C 0.27226 0.34173 0.09163 0.0
H2671 H 0.25884 0.37362 0.99845 0.0
H2672 H 0.26438 0.36786 0.04498 0.0
H2673 H 0.27484 0.36333 1.0044 0.0
H2674 H 0.28712 0.33322 1.0066 0.0
H2675 H 0.30867 0.33396 0.04497 0.0
H2676 H 0.38145 0.55222 0.85298 0.0
H2677 H 0.37296 0.53184 0.81644 0.0
H2678 H 0.41137 0.50917 0.84304 0.0
H2679 H 0.41997 0.5293 0.87888 0.0
H2680 H 0.38568 0.52138 0.75366 0.0
H2681 H 0.38204 0.47865 0.85964 0.0
H2682 H 0.38285 0.49714 0.87285 0.0
H2683 H 0.39888 0.48736 0.86317 0.0
C2684 C 0.38803 0.54285 0.85142 0.0
C2685 C 0.40145 0.54251 0.86894 0.0
C2686 C 0.3831 0.53117 0.8307 0.0
C2687 C 0.39142 0.51888 0.82752 0.0
C2688 C 0.40457 0.51836 0.846 0.0
H2689 H 0.41612 0.46473 0.65905 0.0
H2690 H 0.40871 0.48423 0.69883 0.0
C2691 C 0.4095 0.52998 0.86655 0.0
C2692 C 0.38739 0.50723 0.80142 0.0
H2693 H 0.38762 0.47113 0.79491 0.0
C2694 C 0.38571 0.5104 0.76281 0.0
C2695 C 0.3871 0.4929 0.8133 0.0
C2696 C 0.38765 0.48884 0.8546 0.0
C2697 C 0.38513 0.4996 0.73551 0.0
C2698 C 0.38653 0.48531 0.7471 0.0
C2699 C 0.3868 0.4821 0.78593 0.0
C2700 C 0.38979 0.47385 0.71969 0.0
C2701 C 0.38363 0.50364 0.69435 0.0
C2702 C 0.38169 0.46138 0.71829 0.0
C2703 C 0.38591 0.45005 0.69519 0.0
C2704 C 0.39843 0.45092 0.67347 0.0
C2705 C 0.40629 0.46362 0.67453 0.0
C2706 C 0.40205 0.47488 0.69739 0.0
H2707 H 0.37755 0.51367 0.69125 0.0
H2708 H 0.39432 0.50541 0.68206 0.0
H2709 H 0.37824 0.49519 0.67787 0.0
H2710 H 0.37224 0.46032 0.73553 0.0
H2711 H 0.37947 0.44056 0.69487 0.0
H2712 H 0.31087 0.6367 0.45249 0.0
H2713 H 0.28876 0.63577 0.48886 0.0
H2714 H 0.27223 0.67057 0.42282 0.0
H2715 H 0.29408 0.67101 0.38539 0.0
H2716 H 0.27768 0.65403 0.53389 0.0
H2717 H 0.239 0.645 0.41893 0.0
H2718 H 0.25785 0.6436 0.41137 0.0
H2719 H 0.24923 0.66066 0.41009 0.0
C2720 C 0.3024 0.644 0.44552 0.0
C2721 C 0.30408 0.65384 0.416 0.0
C2722 C 0.28979 0.64349 0.46628 0.0
C2723 C 0.27868 0.65294 0.45825 0.0
C2724 C 0.28041 0.66284 0.42881 0.0
H2725 H 0.2136 0.67752 0.61963 0.0
H2726 H 0.23543 0.67482 0.58274 0.0
C2727 C 0.29291 0.66315 0.40753 0.0
C2728 C 0.26564 0.65296 0.48204 0.0
H2729 H 0.22949 0.65336 0.47786 0.0
C2730 C 0.26714 0.65372 0.52161 0.0
C2731 C 0.25186 0.65229 0.46624 0.0
C2732 C 0.24939 0.65018 0.42437 0.0
C2733 C 0.25529 0.65416 0.54568 0.0
C2734 C 0.24152 0.65444 0.52972 0.0
C2735 C 0.24002 0.65335 0.4902 0.0
C2736 C 0.2285 0.65588 0.55325 0.0
C2737 C 0.25773 0.65401 0.58795 0.0
C2738 C 0.21712 0.64644 0.54826 0.0
C2739 C 0.20453 0.64823 0.56856 0.0
C2740 C 0.20313 0.65938 0.59467 0.0
C2741 C 0.21455 0.6687 0.60018 0.0
C2742 C 0.22704 0.66709 0.57923 0.0
H2743 H 0.26798 0.64885 0.59516 0.0
H2744 H 0.25819 0.66508 0.59851 0.0
H2745 H 0.2491 0.64834 0.60306 0.0
H2746 H 0.21793 0.63772 0.52838 0.0
H2747 H 0.19585 0.64091 0.56393 0.0
H2748 H 0.11398 0.54296 0.1411 0.0
H2749 H 0.11132 0.52137 0.17794 0.0
H2750 H 0.07228 0.53725 0.22525 0.0
H2751 H 0.07437 0.5586 0.18678 0.0
H2752 H 0.11101 0.51821 0.25262 0.0
H2753 H 0.06034 0.49809 0.19399 0.0
H2754 H 0.07011 0.51237 0.17216 0.0
H2755 H 0.05894 0.51575 0.21253 0.0
C2756 C 0.10466 0.54185 0.15863 0.0
C2757 C 0.09439 0.55267 0.16069 0.0
C2758 C 0.10322 0.52947 0.18002 0.0
C2759 C 0.09152 0.52758 0.20406 0.0
C2760 C 0.08126 0.53832 0.20632 0.0
H2761 H 0.09185 0.46559 0.38828 0.0
H2762 H 0.09164 0.48753 0.35098 0.0
C2763 C 0.0826 0.55066 0.18462 0.0
C2764 C 0.09046 0.51463 0.22782 0.0
H2765 H 0.06907 0.48648 0.24912 0.0
C2766 C 0.10185 0.51125 0.25177 0.0
C2767 C 0.07858 0.50546 0.22638 0.0
C2768 C 0.06636 0.508 0.19961 0.0
C2769 C 0.10171 0.49901 0.27436 0.0
C2770 C 0.08963 0.49009 0.27389 0.0
C2771 C 0.07825 0.49342 0.24982 0.0
C2772 C 0.08884 0.47697 0.29703 0.0
C2773 C 0.11469 0.49555 0.29763 0.0
C2774 C 0.08671 0.4638 0.27935 0.0
C2775 C 0.0866 0.45132 0.30067 0.0
C2776 C 0.08864 0.45176 0.34011 0.0
C2777 C 0.09042 0.46497 0.35789 0.0
C2778 C 0.09037 0.47747 0.33659 0.0
H2779 H 0.12426 0.50109 0.28676 0.0
H2780 H 0.11295 0.49906 0.32728 0.0
H2781 H 0.11681 0.48397 0.2978 0.0
H2782 H 0.08549 0.46315 0.24887 0.0
H2783 H 0.0854 0.44129 0.2861 0.0
H2784 H 0.14077 0.23318 0.41405 0.0
H2785 H 0.1336 0.25787 0.40703 0.0
H2786 H 0.12527 0.25091 0.28841 0.0
H2787 H 0.13277 0.22614 0.29485 0.0
H2788 H 0.14367 0.28007 0.35508 0.0
H2789 H 0.08701 0.26523 0.33533 0.0
H2790 H 0.09993 0.2531 0.3547 0.0
H2791 H 0.09962 0.25665 0.30475 0.0
C2792 C 0.13776 0.23692 0.38619 0.0
C2793 C 0.13737 0.22762 0.35496 0.0
C2794 C 0.13356 0.25104 0.38234 0.0
C2795 C 0.12878 0.25614 0.34734 0.0
C2796 C 0.12877 0.24708 0.31579 0.0
H2797 H 0.08711 0.33514 0.28804 0.0
H2798 H 0.09821 0.31176 0.28713 0.0
C2799 C 0.13302 0.23294 0.31956 0.0
C2800 C 0.12321 0.27077 0.34451 0.0
H2801 H 0.09259 0.28952 0.33301 0.0
C2802 C 0.13252 0.28218 0.35011 0.0
C2803 C 0.10866 0.27342 0.33813 0.0
C2804 C 0.09815 0.26149 0.33313 0.0
C2805 C 0.12766 0.29626 0.34916 0.0
C2806 C 0.11305 0.29892 0.34337 0.0
C2807 C 0.10378 0.28747 0.33745 0.0
C2808 C 0.10704 0.31345 0.34353 0.0
C2809 C 0.13825 0.30814 0.35376 0.0
C2810 C 0.10827 0.32219 0.37561 0.0
C2811 C 0.10194 0.3356 0.37617 0.0
C2812 C 0.09407 0.34042 0.34489 0.0
C2813 C 0.09291 0.33166 0.3128 0.0
C2814 C 0.09932 0.31832 0.31215 0.0
H2815 H 0.14918 0.3046 0.34684 0.0
H2816 H 0.13552 0.3173 0.3354 0.0
H2817 H 0.13819 0.31177 0.38366 0.0
H2818 H 0.11387 0.31852 0.40053 0.0
H2819 H 0.10286 0.34205 0.40143 0.0
H2820 H 0.90105 0.86653 0.60493 0.0
H2821 H 0.92424 0.87804 0.59977 0.0
H2822 H 0.94407 0.83726 0.58455 0.0
H2823 H 0.92103 0.82565 0.59019 0.0
H2824 H 0.94884 0.87361 0.64455 0.0
H2825 H 0.95851 0.86057 0.49361 0.0
H2826 H 0.94116 0.85947 0.51508 0.0
H2827 H 0.95384 0.84547 0.52198 0.0
C2828 C 0.91034 0.85999 0.60083 0.0
C2829 C 0.90915 0.84515 0.59778 0.0
C2830 C 0.92357 0.8666 0.59761 0.0
C2831 C 0.9358 0.85852 0.59102 0.0
C2832 C 0.9347 0.84372 0.58867 0.0
H2833 H 0.02536 0.86534 0.5836 0.0
H2834 H 0.00033 0.85916 0.57879 0.0
C2835 C 0.92152 0.8371 0.59193 0.0
C2836 C 0.94985 0.86542 0.58772 0.0
H2837 H 0.97858 0.86837 0.5294 0.0
C2838 C 0.95529 0.87268 0.61922 0.0
C2839 C 0.95818 0.8642 0.55455 0.0
C2840 C 0.95259 0.85712 0.51923 0.0
C2841 C 0.96915 0.8781 0.61915 0.0
C2842 C 0.97766 0.87643 0.58642 0.0
C2843 C 0.97203 0.86962 0.55445 0.0
C2844 C 0.99279 0.88065 0.58592 0.0
C2845 C 0.97481 0.88497 0.6547 0.0
C2846 C 0.99686 0.89487 0.5904 0.0
C2847 C 0.01122 0.89848 0.59294 0.0
C2848 C 0.02174 0.88793 0.59078 0.0
C2849 C 0.01759 0.87378 0.58475 0.0
C2850 C 0.00326 0.87019 0.58225 0.0
H2851 H 0.96788 0.88296 0.67959 0.0
H2852 H 0.98563 0.88101 0.66122 0.0
H2853 H 0.97549 0.8966 0.65038 0.0
H2854 H 0.98892 0.90313 0.59257 0.0
H2855 H 0.01409 0.90949 0.59716 0.0
H2856 H 0.41213 0.65773 0.79391 0.0
H2857 H 0.40147 0.68135 0.79231 0.0
H2858 H 0.38666 0.67584 0.90695 0.0
H2859 H 0.39748 0.65218 0.90893 0.0
H2860 H 0.37149 0.68963 0.80868 0.0
H2861 H 0.41178 0.71304 0.90556 0.0
H2862 H 0.41476 0.69665 0.88033 0.0
H2863 H 0.40334 0.69692 0.92099 0.0
C2864 C 0.40666 0.66156 0.81884 0.0
C2865 C 0.40578 0.65317 0.85173 0.0
C2866 C 0.40049 0.675 0.81775 0.0
C2867 C 0.39342 0.68033 0.8496 0.0
C2868 C 0.39219 0.6719 0.88219 0.0
H2869 H 0.36065 0.76289 0.9064 0.0
H2870 H 0.36773 0.73811 0.90518 0.0
C2871 C 0.39829 0.65839 0.88322 0.0
C2872 C 0.38776 0.69494 0.849 0.0
H2873 H 0.39328 0.72797 0.8853 0.0
C2874 C 0.37621 0.69805 0.82542 0.0
C2875 C 0.39402 0.70582 0.8708 0.0
C2876 C 0.40673 0.70305 0.89571 0.0
C2877 C 0.37054 0.7118 0.82359 0.0
C2878 C 0.37685 0.72274 0.84526 0.0
C2879 C 0.38845 0.71957 0.86873 0.0
C2880 C 0.37152 0.73751 0.84476 0.0
C2881 C 0.35766 0.71441 0.79922 0.0
C2882 C 0.37124 0.74545 0.81108 0.0
C2883 C 0.36692 0.75965 0.81152 0.0
C2884 C 0.36295 0.76619 0.84573 0.0
C2885 C 0.36327 0.75815 0.87934 0.0
C2886 C 0.36746 0.74399 0.87881 0.0
H2887 H 0.35189 0.70441 0.79293 0.0
H2888 H 0.35023 0.72192 0.81313 0.0
H2889 H 0.36106 0.71912 0.77187 0.0
H2890 H 0.37463 0.74075 0.78458 0.0
H2891 H 0.36677 0.76551 0.78513 0.0
H2892 H 0.47261 0.11748 0.01882 0.0
H2893 H 0.49681 0.12645 0.00917 0.0
H2894 H 0.50573 0.12032 0.12783 0.0
H2895 H 0.48168 0.11176 0.13795 0.0
H2896 H 0.51111 0.14835 0.09801 0.0
H2897 H 0.5363 0.10534 0.01333 0.0
H2898 H 0.51915 0.11167 0.99845 0.0
H2899 H 0.52081 0.1023 0.04241 0.0
C2900 C 0.47979 0.11793 0.04275 0.0
C2901 C 0.47521 0.11381 0.07911 0.0
C2902 C 0.49362 0.12295 0.03713 0.0
C2903 C 0.50305 0.12393 0.06777 0.0
C2904 C 0.49862 0.11954 0.10379 0.0
H2905 H 0.59046 0.14153 0.10753 0.0
H2906 H 0.56726 0.13082 0.09624 0.0
C2907 C 0.48488 0.11452 0.10942 0.0
C2908 C 0.51718 0.13056 0.06349 0.0
H2909 H 0.55052 0.12514 0.02855 0.0
C2910 C 0.5197 0.14337 0.08251 0.0
C2911 C 0.52833 0.12394 0.04346 0.0
C2912 C 0.52615 0.11001 0.02334 0.0
C2913 C 0.53318 0.14962 0.08275 0.0
C2914 C 0.5444 0.14297 0.06295 0.0
C2915 C 0.54185 0.13025 0.0434 0.0
C2916 C 0.55902 0.14866 0.06466 0.0
C2917 C 0.53545 0.16301 0.10544 0.0
C2918 C 0.56221 0.16204 0.04955 0.0
C2919 C 0.57548 0.1682 0.05593 0.0
C2920 C 0.58581 0.16106 0.0774 0.0
C2921 C 0.58282 0.1473 0.09066 0.0
C2922 C 0.56954 0.14116 0.08431 0.0
H2923 H 0.52644 0.16522 0.12486 0.0
H2924 H 0.54532 0.16228 0.12246 0.0
H2925 H 0.53654 0.17213 0.0858 0.0
H2926 H 0.55428 0.1679 0.03381 0.0
H2927 H 0.57754 0.17868 0.04469 0.0
H2928 H 0.11811 0.7812 0.16607 0.0
H2929 H 0.11209 0.75611 0.16431 0.0
H2930 H 0.15648 0.74531 0.15958 0.0
H2931 H 0.16269 0.77055 0.16258 0.0
H2932 H 0.11971 0.73797 0.10374 0.0
H2933 H 0.14034 0.7185 0.24212 0.0
H2934 H 0.13708 0.73707 0.23302 0.0
H2935 H 0.15241 0.72857 0.21321 0.0
C2936 C 0.12666 0.77353 0.16579 0.0
C2937 C 0.14092 0.77792 0.16482 0.0
C2938 C 0.12317 0.75917 0.16439 0.0
C2939 C 0.13383 0.74886 0.16204 0.0
C2940 C 0.1481 0.75311 0.16188 0.0
H2941 H 0.12146 0.65669 0.14379 0.0
H2942 H 0.13266 0.68019 0.14427 0.0
C2943 C 0.15162 0.76753 0.16331 0.0
C2944 C 0.1298 0.73379 0.15733 0.0
H2945 H 0.12976 0.70162 0.20173 0.0
C2946 C 0.12198 0.73 0.12506 0.0
C2947 C 0.13291 0.72341 0.18501 0.0
C2948 C 0.14106 0.72703 0.22048 0.0
C2949 C 0.11688 0.71616 0.12012 0.0
C2950 C 0.11949 0.70591 0.14849 0.0
C2951 C 0.12777 0.70954 0.1801 0.0
C2952 C 0.11285 0.6917 0.14707 0.0
C2953 C 0.10864 0.71265 0.0847 0.0
C2954 C 0.09805 0.69043 0.14868 0.0
C2955 C 0.09165 0.67709 0.14831 0.0
C2956 C 0.09994 0.66473 0.14644 0.0
C2957 C 0.11479 0.66602 0.14469 0.0
C2958 C 0.1212 0.67941 0.14524 0.0
H2959 H 0.11101 0.72022 0.06142 0.0
H2960 H 0.11103 0.70173 0.07479 0.0
H2961 H 0.09712 0.71329 0.09091 0.0
H2962 H 0.09142 0.69979 0.15065 0.0
H2963 H 0.0802 0.67645 0.14942 0.0
H2964 H 0.47006 0.88324 0.45749 0.0
H2965 H 0.49487 0.87576 0.46076 0.0
H2966 H 0.4998 0.88446 0.34153 0.0
H2967 H 0.47495 0.89117 0.33748 0.0
H2968 H 0.50943 0.85872 0.3591 0.0
H2969 H 0.53165 0.89783 0.46016 0.0
H2970 H 0.51647 0.8886 0.47841 0.0
H2971 H 0.51454 0.9001 0.43806 0.0
C2972 C 0.47644 0.88363 0.43199 0.0
C2973 C 0.47045 0.88788 0.39727 0.0
C2974 C 0.49068 0.87952 0.43402 0.0
C2975 C 0.49926 0.87974 0.40149 0.0
C2976 C 0.49341 0.8843 0.36706 0.0
H2977 H 0.5906 0.86463 0.39523 0.0
H2978 H 0.56697 0.87518 0.39099 0.0
C2979 C 0.47919 0.8883 0.36493 0.0
C2980 C 0.51398 0.87417 0.40241 0.0
H2981 H 0.54614 0.87774 0.44595 0.0
C2982 C 0.51747 0.86296 0.37794 0.0
C2983 C 0.52453 0.87979 0.42664 0.0
C2984 C 0.52168 0.89234 0.45204 0.0
C2985 C 0.53111 0.85705 0.37748 0.0
C2986 C 0.54149 0.86226 0.40286 0.0
C2987 C 0.53812 0.87367 0.42679 0.0
C2988 C 0.55582 0.85585 0.40525 0.0
C2989 C 0.53432 0.84539 0.34946 0.0
C2990 C 0.5574 0.84152 0.41495 0.0
C2991 C 0.57087 0.83541 0.41696 0.0
C2992 C 0.58309 0.84355 0.40972 0.0
C2993 C 0.58146 0.85797 0.40037 0.0
C2994 C 0.56796 0.86407 0.39827 0.0
H2995 H 0.52681 0.84553 0.3252 0.0
H2996 H 0.54529 0.84632 0.33829 0.0
H2997 H 0.53328 0.83497 0.36379 0.0
H2998 H 0.5482 0.83504 0.42112 0.0
H2999 H 0.57166 0.82427 0.42392 0.0
H3000 H 0.34386 0.23226 0.6679 0.0
H3001 H 0.35014 0.25751 0.66658 0.0
H3002 H 0.39451 0.24653 0.66868 0.0
H3003 H 0.3884 0.2214 0.66887 0.0
H3004 H 0.36716 0.27443 0.71675 0.0
H3005 H 0.39015 0.271 0.57238 0.0
H3006 H 0.37889 0.25734 0.59194 0.0
H3007 H 0.39729 0.25825 0.60499 0.0
C3008 C 0.35495 0.23524 0.6682 0.0
C3009 C 0.36562 0.22479 0.66835 0.0
C3010 C 0.35851 0.24965 0.66758 0.0
C3011 C 0.37278 0.25384 0.66683 0.0
C3012 C 0.38343 0.24349 0.66861 0.0
H3013 H 0.42415 0.32799 0.66127 0.0
H3014 H 0.41352 0.30439 0.6616 0.0
C3015 C 0.3799 0.22911 0.66924 0.0
C3016 C 0.37666 0.26901 0.66324 0.0
H3017 H 0.39503 0.2921 0.60719 0.0
C3018 C 0.3731 0.27837 0.69264 0.0
C3019 C 0.38432 0.2741 0.63157 0.0
C3020 C 0.38778 0.2647 0.59823 0.0
C3021 C 0.37762 0.29258 0.69203 0.0
C3022 C 0.38572 0.29752 0.66095 0.0
C3023 C 0.38887 0.28826 0.63102 0.0
C3024 C 0.39188 0.31197 0.66008 0.0
C3025 C 0.37423 0.30203 0.72531 0.0
C3026 C 0.38323 0.32406 0.65846 0.0
C3027 C 0.3893 0.33762 0.65837 0.0
C3028 C 0.40412 0.33927 0.65995 0.0
C3029 C 0.41271 0.32709 0.66071 0.0
C3030 C 0.40665 0.3136 0.66067 0.0
H3031 H 0.37015 0.29592 0.74992 0.0
H3032 H 0.38379 0.30802 0.73431 0.0
H3033 H 0.36602 0.30982 0.71684 0.0
H3034 H 0.3718 0.32301 0.65739 0.0
H3035 H 0.38239 0.34678 0.65796 0.0
H3036 H 0.90818 0.1461 0.87576 0.0
H3037 H 0.93189 0.13538 0.87687 0.0
H3038 H 0.93961 0.1539 0.98661 0.0
H3039 H 0.91596 0.16453 0.98584 0.0
H3040 H 0.95849 0.15236 0.88777 0.0
H3041 H 0.9501 0.11038 0.99637 0.0
H3042 H 0.93568 0.11798 0.96947 0.0
H3043 H 0.94362 0.12785 1.00737 0.0
C3044 C 0.91488 0.14774 0.90027 0.0
C3045 C 0.91024 0.1562 0.93062 0.0
C3046 C 0.9284 0.14166 0.90082 0.0
C3047 C 0.93739 0.14377 0.93199 0.0
C3048 C 0.93274 0.15205 0.96251 0.0
H3049 H 0.02404 0.11874 0.98481 0.0
H3050 H 0.99943 0.12703 0.98794 0.0
C3051 C 0.9193 0.15823 0.96183 0.0
C3052 C 0.95195 0.13799 0.93175 0.0
H3053 H 0.97358 0.11378 0.97451 0.0
C3054 C 0.9618 0.14387 0.90655 0.0
C3055 C 0.9562 0.12707 0.95671 0.0
C3056 C 0.94587 0.12034 0.98394 0.0
C3057 C 0.97592 0.13922 0.90586 0.0
C3058 C 0.98015 0.12809 0.93031 0.0
C3059 C 0.97029 0.12226 0.95573 0.0
C3060 C 0.99473 0.12225 0.9293 0.0
C3061 C 0.98623 0.14652 0.87954 0.0
C3062 C 9e-05 0.11647 0.89566 0.0
C3063 C 0.01414 0.11194 0.89361 0.0
C3064 C 0.02311 0.11283 0.92543 0.0
C3065 C 0.01751 0.11807 0.95965 0.0
C3066 C 0.00343 0.12272 0.96156 0.0
H3067 H 0.98248 0.15727 0.87148 0.0
H3068 H 0.99687 0.1475 0.89272 0.0
H3069 H 0.98729 0.14019 0.85318 0.0
H3070 H 0.99348 0.11573 0.87065 0.0
H3071 H 0.01806 0.10821 0.86656 0.0
H3072 H 0.89913 0.66248 0.61456 0.0
H3073 H 0.888 0.68597 0.61669 0.0
H3074 H 0.90374 0.692 0.73028 0.0
H3075 H 0.91493 0.66867 0.72821 0.0
H3076 H 0.8678 0.69708 0.6652 0.0
H3077 H 0.91818 0.72723 0.67661 0.0
H3078 H 0.91767 0.7087 0.66395 0.0
H3079 H 0.91601 0.714 0.71271 0.0
C3080 C 0.90017 0.66881 0.63999 0.0
C3081 C 0.90806 0.6638 0.67102 0.0
C3082 C 0.89384 0.68222 0.64116 0.0
C3083 C 0.89528 0.69084 0.67337 0.0
C3084 C 0.90282 0.6857 0.70475 0.0
H3085 H 0.86665 0.77649 0.72718 0.0
H3086 H 0.8749 0.75191 0.73183 0.0
C3087 C 0.90922 0.67235 0.70351 0.0
C3088 C 0.88889 0.7052 0.67423 0.0
H3089 H 0.89694 0.7403 0.68455 0.0
C3090 C 0.87417 0.70654 0.66935 0.0
C3091 C 0.89722 0.71752 0.67969 0.0
C3092 C 0.91316 0.71685 0.68318 0.0
C3093 C 0.86755 0.71988 0.67009 0.0
C3094 C 0.87589 0.73216 0.67554 0.0
C3095 C 0.89057 0.73083 0.68073 0.0
C3096 C 0.86976 0.7466 0.67383 0.0
C3097 C 0.85167 0.72073 0.66535 0.0
C3098 C 0.86413 0.75171 0.63971 0.0
C3099 C 0.85957 0.76574 0.63682 0.0
C3100 C 0.86052 0.775 0.66805 0.0
C3101 C 0.86587 0.76972 0.70251 0.0
C3102 C 0.87052 0.75566 0.70529 0.0
H3103 H 0.84647 0.71037 0.67097 0.0
H3104 H 0.84708 0.72883 0.68461 0.0
H3105 H 0.84919 0.72388 0.63579 0.0
H3106 H 0.86375 0.74497 0.61487 0.0
H3107 H 0.85586 0.76948 0.60956 0.0
H3108 H 0.98391 0.0908 0.43513 0.0
H3109 H 0.00893 0.09789 0.43726 0.0
H3110 H 0.99647 0.14179 0.44383 0.0
H3111 H 0.97162 0.13492 0.44103 0.0
H3112 H 0.02274 0.11591 0.38466 0.0
H3113 H 0.02544 0.13793 0.52997 0.0
H3114 H 0.01132 0.12632 0.51464 0.0
H3115 H 0.01093 0.14487 0.50279 0.0
C3116 C 0.9865 0.10196 0.43729 0.0
C3117 C 0.97572 0.11227 0.43828 0.0
C3118 C 0.00079 0.10597 0.43862 0.0
C3119 C 0.00453 0.12034 0.44131 0.0
C3120 C 0.99381 0.13062 0.44273 0.0
H3121 H 0.07541 0.1761 0.42591 0.0
H3122 H 0.05249 0.16418 0.43114 0.0
C3123 C 0.97958 0.12665 0.44127 0.0
C3124 C 0.01958 0.12482 0.44018 0.0
H3125 H 0.04407 0.14471 0.48754 0.0
C3126 C 0.02752 0.12201 0.40736 0.0
C3127 C 0.02575 0.13279 0.46985 0.0
C3128 C 0.01797 0.13555 0.50647 0.0
C3129 C 0.04123 0.12758 0.40264 0.0
C3130 C 0.04719 0.13597 0.43179 0.0
C3131 C 0.03943 0.13835 0.46514 0.0
C3132 C 0.06116 0.14299 0.42762 0.0
C3133 C 0.04897 0.12497 0.36587 0.0
C3134 C 0.07365 0.13502 0.42393 0.0
C3135 C 0.08679 0.14182 0.42099 0.0
C3136 C 0.08768 0.15672 0.42197 0.0
C3137 C 0.07512 0.16463 0.4255 0.0
C3138 C 0.06201 0.15784 0.42837 0.0
H3139 H 0.0418 0.12082 0.34348 0.0
H3140 H 0.054 0.13488 0.35546 0.0
H3141 H 0.05747 0.11704 0.37062 0.0
H3142 H 0.07325 0.12354 0.424 0.0
H3143 H 0.09627 0.1354 0.41898 0.0
H3144 H 0.63319 0.234 0.13272 0.0
H3145 H 0.62474 0.25795 0.14483 0.0
H3146 H 0.62249 0.24897 0.26442 0.0
H3147 H 0.63132 0.22482 0.25269 0.0
H3148 H 0.59704 0.26249 0.18525 0.0
H3149 H 0.64392 0.28907 0.25021 0.0
H3150 H 0.64586 0.27399 0.21906 0.0
H3151 H 0.63892 0.27155 0.26585 0.0
C3152 C 0.6313 0.23716 0.16178 0.0
C3153 C 0.63305 0.2275 0.1918 0.0
C3154 C 0.62635 0.25084 0.16857 0.0
C3155 C 0.62306 0.25518 0.20546 0.0
C3156 C 0.6251 0.24578 0.23577 0.0
H3157 H 0.57117 0.33199 0.23151 0.0
H3158 H 0.58131 0.3086 0.24474 0.0
C3159 C 0.63005 0.23201 0.22899 0.0
C3160 C 0.61654 0.26925 0.21114 0.0
H3161 H 0.62402 0.30332 0.23685 0.0
C3162 C 0.6028 0.2714 0.19711 0.0
C3163 C 0.62421 0.28076 0.22638 0.0
C3164 C 0.63908 0.27887 0.24122 0.0
C3165 C 0.59668 0.28493 0.19658 0.0
C3166 C 0.60447 0.29656 0.21097 0.0
C3167 C 0.61806 0.29433 0.22613 0.0
C3168 C 0.59918 0.31125 0.20694 0.0
C3169 C 0.58224 0.28679 0.17881 0.0
C3170 C 0.60613 0.32061 0.18231 0.0
C3171 C 0.60036 0.33393 0.17463 0.0
C3172 C 0.58752 0.33815 0.19151 0.0
C3173 C 0.58091 0.32895 0.21747 0.0
C3174 C 0.58671 0.31562 0.2252 0.0
H3175 H 0.57878 0.27718 0.16309 0.0
H3176 H 0.57432 0.28895 0.20134 0.0
H3177 H 0.58223 0.29593 0.15899 0.0
H3178 H 0.61574 0.3174 0.16785 0.0
H3179 H 0.60567 0.34067 0.15426 0.0
H3180 H 0.41305 0.83491 0.95942 0.0
H3181 H 0.43555 0.84761 0.96384 0.0
H3182 H 0.42939 0.86414 0.85105 0.0
H3183 H 0.40666 0.85154 0.84677 0.0
H3184 H 0.45832 0.8432 0.91936 0.0
H3185 H 0.44154 0.89942 0.90813 0.0
H3186 H 0.42917 0.88523 0.91753 0.0
H3187 H 0.43528 0.88848 0.87003 0.0
C3188 C 0.41647 0.84129 0.93561 0.0
C3189 C 0.40819 0.84214 0.90258 0.0
C3190 C 0.42928 0.84861 0.93825 0.0
C3191 C 0.4341 0.85693 0.90794 0.0
C3192 C 0.42573 0.85804 0.87513 0.0
H3193 H 0.51505 0.89318 0.85106 0.0
H3194 H 0.49022 0.886 0.85369 0.0
C3195 C 0.4128 0.85079 0.87261 0.0
C3196 C 0.4484 0.86346 0.9098 0.0
H3197 H 0.46637 0.89484 0.90313 0.0
C3198 C 0.46005 0.85451 0.91617 0.0
C3199 C 0.45064 0.87822 0.90551 0.0
C3200 C 0.43849 0.88843 0.90027 0.0
C3201 C 0.47391 0.85986 0.9177 0.0
C3202 C 0.47616 0.87457 0.91312 0.0
C3203 C 0.46455 0.88357 0.9068 0.0
C3204 C 0.49063 0.88061 0.9132 0.0
C3205 C 0.48608 0.84968 0.92323 0.0
C3206 C 0.49895 0.88035 0.94615 0.0
C3207 C 0.51316 0.88457 0.9449 0.0
C3208 C 0.51928 0.88914 0.91064 0.0
C3209 C 0.51068 0.88995 0.87809 0.0
C3210 C 0.49648 0.88578 0.87942 0.0
H3211 H 0.48278 0.83846 0.91925 0.0
H3212 H 0.49482 0.85208 0.90313 0.0
H3213 H 0.4903 0.85084 0.95242 0.0
H3214 H 0.49454 0.87653 0.9726 0.0
H3215 H 0.51942 0.88401 0.97057 0.0
H3216 H 0.9237 0.32587 0.84488 0.0
H3217 H 0.91281 0.30235 0.84578 0.0
H3218 H 0.87147 0.3214 0.8572 0.0
H3219 H 0.88226 0.34502 0.85537 0.0
H3220 H 0.89565 0.29069 0.90431 0.0
H3221 H 0.86695 0.29374 0.76678 0.0
H3222 H 0.88115 0.30575 0.779 0.0
H3223 H 0.86388 0.30804 0.79947 0.0
C3224 C 0.91228 0.32508 0.84716 0.0
C3225 C 0.90385 0.33733 0.8499 0.0
C3226 C 0.90608 0.31163 0.84788 0.0
C3227 C 0.89134 0.31016 0.85106 0.0
C3228 C 0.88286 0.32233 0.85414 0.0
H3229 H 0.84034 0.2325 0.86213 0.0
H3230 H 0.8477 0.25744 0.85892 0.0
C3231 C 0.88907 0.33581 0.85354 0.0
C3232 C 0.88497 0.29581 0.8522 0.0
H3233 H 0.86386 0.27286 0.80288 0.0
C3234 C 0.88867 0.2868 0.8822 0.0
C3235 C 0.87579 0.29083 0.82343 0.0
C3236 C 0.87174 0.30002 0.79014 0.0
C3237 C 0.88355 0.27286 0.88406 0.0
C3238 C 0.87471 0.26773 0.85472 0.0
C3239 C 0.87069 0.27684 0.82521 0.0
C3240 C 0.87006 0.25274 0.85367 0.0
C3241 C 0.88762 0.26375 0.9175 0.0
C3242 C 0.88016 0.2419 0.85062 0.0
C3243 C 0.87603 0.22771 0.85261 0.0
C3244 C 0.86167 0.22405 0.85739 0.0
C3245 C 0.85149 0.23496 0.85883 0.0
C3246 C 0.85566 0.24919 0.85685 0.0
H3247 H 0.89108 0.27026 0.94204 0.0
H3248 H 0.87862 0.25693 0.92652 0.0
H3249 H 0.89657 0.25676 0.90932 0.0
H3250 H 0.89131 0.24443 0.84758 0.0
H3251 H 0.8842 0.21965 0.85197 0.0
H3252 H 0.52237 0.10679 0.65984 0.0
H3253 H 0.49755 0.11361 0.65674 0.0
H3254 H 0.5026 0.12509 0.53924 0.0
H3255 H 0.52743 0.11755 0.54145 0.0
H3256 H 0.48789 0.13992 0.64253 0.0
H3257 H 0.46602 0.10248 0.53621 0.0
H3258 H 0.48309 0.09988 0.5583 0.0
H3259 H 0.48117 0.11227 0.51989 0.0
C3260 C 0.51817 0.11032 0.6329 0.0
C3261 C 0.52694 0.11144 0.60072 0.0
C3262 C 0.50396 0.11438 0.63134 0.0
C3263 C 0.49815 0.11971 0.59769 0.0
C3264 C 0.50677 0.12073 0.56533 0.0
H3265 H 0.41916 0.1619 0.54572 0.0
H3266 H 0.44283 0.15135 0.54487 0.0
C3267 C 0.52102 0.11657 0.56677 0.0
C3268 C 0.48338 0.12512 0.5976 0.0
H3269 H 0.45102 0.12152 0.55516 0.0
C3270 C 0.47981 0.13582 0.62359 0.0
C3271 C 0.47287 0.11978 0.57282 0.0
C3272 C 0.47591 0.10788 0.54545 0.0
C3273 C 0.46606 0.14145 0.62517 0.0
C3274 C 0.45558 0.13616 0.60033 0.0
C3275 C 0.45912 0.1255 0.57423 0.0
C3276 C 0.44098 0.14189 0.60045 0.0
C3277 C 0.46291 0.15323 0.65287 0.0
C3278 C 0.43204 0.13986 0.6318 0.0
C3279 C 0.4185 0.14592 0.63243 0.0
C3280 C 0.41372 0.15414 0.60177 0.0
C3281 C 0.42262 0.15586 0.57008 0.0
C3282 C 0.4361 0.14974 0.56939 0.0
H3283 H 0.47274 0.15795 0.66475 0.0
H3284 H 0.45663 0.16174 0.63904 0.0
H3285 H 0.45653 0.14894 0.67669 0.0
H3286 H 0.4356 0.1337 0.6559 0.0
H3287 H 0.41192 0.14444 0.65723 0.0
H3288 H 0.65409 0.7662 0.35287 0.0
H3289 H 0.64808 0.74094 0.34892 0.0
H3290 H 0.6037 0.75163 0.34191 0.0
H3291 H 0.60955 0.77674 0.34615 0.0
H3292 H 0.63121 0.726 0.39972 0.0
H3293 H 0.60834 0.72338 0.25543 0.0
H3294 H 0.61909 0.73809 0.27126 0.0
H3295 H 0.6006 0.73717 0.28371 0.0
C3296 C 0.64307 0.76316 0.35015 0.0
C3297 C 0.63232 0.7735 0.34952 0.0
C3298 C 0.63966 0.74874 0.34779 0.0
C3299 C 0.62547 0.74443 0.34451 0.0
C3300 C 0.61475 0.75473 0.3434 0.0
H3301 H 0.57373 0.67052 0.36057 0.0
H3302 H 0.58427 0.69412 0.35603 0.0
C3303 C 0.61813 0.76911 0.34576 0.0
C3304 C 0.62166 0.72919 0.34496 0.0
H3305 H 0.60267 0.70411 0.29715 0.0
C3306 C 0.62516 0.72112 0.37706 0.0
C3307 C 0.61378 0.72288 0.31534 0.0
C3308 C 0.61035 0.73079 0.27932 0.0
C3309 C 0.62041 0.70709 0.38112 0.0
C3310 C 0.61209 0.70097 0.35209 0.0
C3311 C 0.60898 0.70888 0.31947 0.0
C3312 C 0.60593 0.6866 0.35571 0.0
C3313 C 0.62379 0.69912 0.41708 0.0
C3314 C 0.61464 0.67455 0.35701 0.0
C3315 C 0.60863 0.66101 0.35946 0.0
C3316 C 0.59381 0.6593 0.36045 0.0
C3317 C 0.58516 0.67144 0.35939 0.0
C3318 C 0.59116 0.68494 0.35693 0.0
H3319 H 0.62796 0.70623 0.43957 0.0
H3320 H 0.61421 0.69362 0.42801 0.0
H3321 H 0.63195 0.69096 0.41099 0.0
H3322 H 0.62606 0.67561 0.35547 0.0
H3323 H 0.6156 0.6519 0.35957 0.0
H3324 H 0.08622 0.83723 0.03961 0.0
H3325 H 0.06271 0.84788 0.03389 0.0
H3326 H 0.06753 0.86693 0.14424 0.0
H3327 H 0.09116 0.85638 0.14996 0.0
H3328 H 0.03968 0.84363 0.07778 0.0
H3329 H 0.05455 0.90044 0.08173 0.0
H3330 H 0.06742 0.88653 0.07473 0.0
H3331 H 0.06117 0.89069 0.12162 0.0
C3332 C 0.08227 0.84366 0.06271 0.0
C3333 C 0.09054 0.84594 0.09531 0.0
C3334 C 0.06887 0.84981 0.05929 0.0
C3335 C 0.06345 0.85839 0.08834 0.0
C3336 C 0.07165 0.86066 0.12101 0.0
H3337 H 0.98324 0.89298 0.15038 0.0
H3338 H 0.00789 0.8857 0.14397 0.0
C3339 C 0.08512 0.85458 0.12434 0.0
C3340 C 0.04893 0.86433 0.08524 0.0
H3341 H 0.02993 0.89511 0.09021 0.0
C3342 C 0.03756 0.8549 0.08001 0.0
C3343 C 0.04619 0.87905 0.08802 0.0
C3344 C 0.05799 0.88978 0.09145 0.0
C3345 C 0.0235 0.85974 0.07889 0.0
C3346 C 0.02075 0.8744 0.08275 0.0
C3347 C 0.0321 0.88387 0.08723 0.0
C3348 C 0.0061 0.87993 0.0849 0.0
C3349 C 0.01162 0.8491 0.07497 0.0
C3350 C 0.99701 0.8794 0.05346 0.0
C3351 C 0.98286 0.88374 0.05684 0.0
C3352 C 0.9776 0.88869 0.09175 0.0
C3353 C 0.98693 0.88953 0.12283 0.0
C3354 C 0.00103 0.88527 0.11935 0.0
H3355 H 0.01541 0.83801 0.07829 0.0
H3356 H 0.00324 0.85115 0.09639 0.0
H3357 H 0.00675 0.85016 0.0465 0.0
H3358 H 0.0008 0.87544 0.02649 0.0
H3359 H 0.97603 0.88309 0.03225 0.0
H3360 H 0.58268 0.83151 0.79691 0.0
H3361 H 0.59397 0.80817 0.79697 0.0
H3362 H 0.61117 0.81645 0.90796 0.0
H3363 H 0.59966 0.83974 0.90846 0.0
H3364 H 0.62387 0.80144 0.80672 0.0
H3365 H 0.58933 0.77822 0.91845 0.0
H3366 H 0.58463 0.79412 0.89286 0.0
H3367 H 0.59759 0.79485 0.93008 0.0
C3368 C 0.58873 0.82832 0.82151 0.0
C3369 C 0.59016 0.83743 0.85286 0.0
C3370 C 0.59528 0.81504 0.82134 0.0
C3371 C 0.60327 0.81057 0.8526 0.0
C3372 C 0.6049 0.81967 0.88373 0.0
H3373 H 0.64314 0.73122 0.91252 0.0
H3374 H 0.63534 0.7558 0.90942 0.0
C3375 C 0.5984 0.833 0.88386 0.0
C3376 C 0.60978 0.79629 0.85272 0.0
H3377 H 0.60829 0.76411 0.89664 0.0
C3378 C 0.62049 0.79325 0.82632 0.0
C3379 C 0.6053 0.78568 0.87833 0.0
C3380 C 0.59351 0.78827 0.90639 0.0
C3381 C 0.62703 0.77987 0.82529 0.0
C3382 C 0.62251 0.76922 0.85082 0.0
C3383 C 0.61178 0.77231 0.87717 0.0
C3384 C 0.62865 0.75475 0.85087 0.0
C3385 C 0.63892 0.77737 0.79746 0.0
C3386 C 0.62766 0.74601 0.81877 0.0
C3387 C 0.63234 0.73194 0.82024 0.0
C3388 C 0.63797 0.72631 0.85397 0.0
C3389 C 0.63917 0.73522 0.8858 0.0
C3390 C 0.63457 0.74927 0.88423 0.0
H3391 H 0.64372 0.7875 0.78775 0.0
H3392 H 0.64736 0.77067 0.81009 0.0
H3393 H 0.63466 0.7718 0.77221 0.0
H3394 H 0.62287 0.74992 0.79293 0.0
H3395 H 0.63131 0.7254 0.79516 0.0
H3396 H 0.40704 0.35366 0.15888 0.0
H3397 H 0.43027 0.36537 0.15609 0.0
H3398 H 0.4365 0.3494 0.04286 0.0
H3399 H 0.41331 0.33777 0.04535 0.0
H3400 H 0.45703 0.34947 0.13927 0.0
H3401 H 0.44568 0.39338 0.03836 0.0
H3402 H 0.43195 0.38483 0.06591 0.0
H3403 H 0.43941 0.37599 0.02559 0.0
C3404 C 0.4133 0.3528 0.13327 0.0
C3405 C 0.40841 0.34475 0.10242 0.0
C3406 C 0.42654 0.35945 0.13174 0.0
C3407 C 0.43498 0.35834 0.09913 0.0
C3408 C 0.43004 0.3505 0.06809 0.0
H3409 H 0.52013 0.38526 0.03819 0.0
H3410 H 0.49536 0.3774 0.03731 0.0
C3411 C 0.41688 0.34374 0.06973 0.0
C3412 C 0.44936 0.36455 0.09842 0.0
H3413 H 0.46964 0.3901 0.05641 0.0
C3414 C 0.4598 0.35841 0.12137 0.0
C3415 C 0.45289 0.37606 0.0746 0.0
C3416 C 0.44191 0.38306 0.0498 0.0
C3417 C 0.47381 0.36338 0.12083 0.0
C3418 C 0.47734 0.37508 0.0975 0.0
C3419 C 0.46688 0.38119 0.07437 0.0
C3420 C 0.49185 0.3811 0.09708 0.0
C3421 C 0.48476 0.35579 0.14454 0.0
C3422 C 0.49789 0.38624 0.13063 0.0
C3423 C 0.51205 0.39048 0.13141 0.0
C3424 C 0.52044 0.38996 0.09841 0.0
C3425 C 0.51408 0.38558 0.06426 0.0
C3426 C 0.4999 0.38119 0.06363 0.0
H3427 H 0.48134 0.34484 0.15178 0.0
H3428 H 0.49511 0.35521 0.12961 0.0
H3429 H 0.48632 0.36165 0.17147 0.0
H3430 H 0.49177 0.38654 0.15659 0.0
H3431 H 0.51653 0.39357 0.15841 0.0
H3432 H 0.84126 0.26413 0.3474 0.0
H3433 H 0.84864 0.23921 0.35095 0.0
H3434 H 0.89246 0.25206 0.34512 0.0
H3435 H 0.88528 0.27686 0.34271 0.0
H3436 H 0.86662 0.22212 0.3017 0.0
H3437 H 0.88913 0.22948 0.44563 0.0
H3438 H 0.87709 0.24205 0.42435 0.0
H3439 H 0.89551 0.24199 0.41125 0.0
C3440 C 0.85246 0.26163 0.34666 0.0
C3441 C 0.86267 0.27251 0.34489 0.0
C3442 C 0.85665 0.2474 0.34854 0.0
C3443 C 0.87109 0.24386 0.34894 0.0
C3444 C 0.88126 0.25462 0.34539 0.0
H3445 H 0.92555 0.17205 0.36791 0.0
H3446 H 0.91414 0.19521 0.36244 0.0
C3447 C 0.87711 0.26879 0.34351 0.0
C3448 C 0.87567 0.229 0.35456 0.0
H3449 H 0.89495 0.20796 0.41401 0.0
C3450 C 0.87268 0.21894 0.3264 0.0
C3451 C 0.88349 0.22492 0.38697 0.0
C3452 C 0.8864 0.23513 0.41898 0.0
C3453 C 0.87789 0.20501 0.32903 0.0
C3454 C 0.88609 0.20108 0.3609 0.0
C3455 C 0.88871 0.21104 0.38954 0.0
C3456 C 0.89276 0.18692 0.36421 0.0
C3457 C 0.87506 0.19477 0.29706 0.0
C3458 C 0.8845 0.17461 0.36756 0.0
C3459 C 0.89101 0.16132 0.3706 0.0
C3460 C 0.90588 0.16016 0.37037 0.0
C3461 C 0.91408 0.17257 0.36761 0.0
C3462 C 0.90759 0.18581 0.36468 0.0
H3463 H 0.87094 0.20022 0.27142 0.0
H3464 H 0.88488 0.18894 0.28936 0.0
H3465 H 0.86705 0.18688 0.30631 0.0
H3466 H 0.87303 0.17528 0.36785 0.0
H3467 H 0.88439 0.15197 0.37236 0.0
H3468 H 0.98455 0.60854 0.66175 0.0
H3469 H 0.00946 0.61503 0.65445 0.0
H3470 H 0.00238 0.62432 0.53639 0.0
H3471 H 0.97742 0.61755 0.54311 0.0
H3472 H 0.03153 0.6051 0.60029 0.0
H3473 H 0.01697 0.66208 0.5867 0.0
H3474 H 0.00492 0.64899 0.60564 0.0
H3475 H 0.00801 0.64994 0.55553 0.0
C3476 C 0.98832 0.61161 0.63395 0.0
C3477 C 0.97895 0.61256 0.603 0.0
C3478 C 0.00256 0.61539 0.62993 0.0
C3479 C 0.00767 0.62028 0.59503 0.0
C3480 C 0.99854 0.62072 0.56368 0.0
H3481 H 0.08593 0.66262 0.5339 0.0
H3482 H 0.06267 0.6512 0.5336 0.0
C3483 C 0.98429 0.61689 0.56761 0.0
C3484 C 0.02231 0.62575 0.59216 0.0
H3485 H 0.04117 0.65636 0.5819 0.0
C3486 C 0.03369 0.61629 0.59615 0.0
C3487 C 0.02501 0.64035 0.5869 0.0
C3488 C 0.01313 0.651 0.5837 0.0
C3489 C 0.04779 0.62106 0.59451 0.0
C3490 C 0.0505 0.63572 0.58965 0.0
C3491 C 0.03908 0.64513 0.58553 0.0
C3492 C 0.06506 0.64165 0.589 0.0
C3493 C 0.05963 0.61036 0.59734 0.0
C3494 C 0.07415 0.64006 0.62023 0.0
C3495 C 0.08748 0.64655 0.62039 0.0
C3496 C 0.09184 0.65494 0.5896 0.0
C3497 C 0.08277 0.65639 0.55826 0.0
C3498 C 0.06952 0.64981 0.55796 0.0
H3499 H 0.05594 0.59953 0.58985 0.0
H3500 H 0.06861 0.61324 0.5785 0.0
H3501 H 0.06359 0.61006 0.62694 0.0
H3502 H 0.07079 0.63411 0.6449 0.0
H3503 H 0.0942 0.6454 0.64508 0.0
H3504 H 0.57514 0.17338 0.67027 0.0
H3505 H 0.58571 0.19698 0.67421 0.0
H3506 H 0.62742 0.17869 0.66384 0.0
H3507 H 0.61693 0.15499 0.66016 0.0
H3508 H 0.60544 0.20689 0.72849 0.0
H3509 H 0.627 0.2098 0.58193 0.0
H3510 H 0.61388 0.19686 0.59584 0.0
H3511 H 0.63212 0.19449 0.60901 0.0
C3512 C 0.58656 0.17435 0.66893 0.0
C3513 C 0.59518 0.16227 0.66485 0.0
C3514 C 0.59258 0.18785 0.67106 0.0
C3515 C 0.60733 0.18959 0.66897 0.0
C3516 C 0.616 0.1776 0.66481 0.0
H3517 H 0.65643 0.26849 0.66669 0.0
H3518 H 0.64999 0.24336 0.67119 0.0
C3519 C 0.60998 0.16406 0.66263 0.0
C3520 C 0.61354 0.20398 0.67197 0.0
H3521 H 0.6317 0.22917 0.62221 0.0
C3522 C 0.61123 0.21175 0.70532 0.0
C3523 C 0.62118 0.21024 0.6418 0.0
C3524 C 0.62364 0.2025 0.60496 0.0
C3525 C 0.61621 0.22571 0.70916 0.0
C3526 C 0.62347 0.23212 0.67858 0.0
C3527 C 0.62614 0.22421 0.64563 0.0
C3528 C 0.62759 0.24729 0.67912 0.0
C3529 C 0.61365 0.23345 0.74594 0.0
C3530 C 0.61713 0.25781 0.6822 0.0
C3531 C 0.62076 0.27213 0.67951 0.0
C3532 C 0.63492 0.27624 0.67346 0.0
C3533 C 0.64542 0.26567 0.67114 0.0
C3534 C 0.64177 0.25133 0.67381 0.0
H3535 H 0.61197 0.22594 0.7698 0.0
H3536 H 0.62269 0.24053 0.753 0.0
H3537 H 0.60397 0.24005 0.7432 0.0
H3538 H 0.60608 0.25492 0.68535 0.0
H3539 H 0.61234 0.27993 0.68052 0.0
H3540 H 0.97202 0.38251 0.97128 0.0
H3541 H 0.9969 0.37522 0.97656 0.0
H3542 H 0.00357 0.38566 0.85901 0.0
H3543 H 0.97879 0.3925 0.85299 0.0
H3544 H 0.00933 0.35318 0.92877 0.0
H3545 H 0.03738 0.40478 0.91596 0.0
H3546 H 0.01903 0.40343 0.93025 0.0
H3547 H 0.0238 0.40161 0.88123 0.0
C3548 C 0.9788 0.38332 0.94659 0.0
C3549 C 0.97337 0.38817 0.91177 0.0
C3550 C 0.99301 0.37924 0.94974 0.0
C3551 C 0.00208 0.3801 0.9183 0.0
C3552 C 0.99681 0.38522 0.88381 0.0
H3553 H 0.08702 0.35387 0.85814 0.0
H3554 H 0.06329 0.3645 0.86116 0.0
C3555 C 0.98262 0.38919 0.88053 0.0
C3556 C 0.01671 0.37454 0.92035 0.0
H3557 H 0.05146 0.38397 0.91028 0.0
C3558 C 0.01858 0.35991 0.92518 0.0
C3559 C 0.02867 0.38336 0.91514 0.0
C3560 C 0.0272 0.39919 0.91063 0.0
C3561 C 0.03211 0.35376 0.92392 0.0
C3562 C 0.04412 0.36256 0.91871 0.0
C3563 C 0.04225 0.37724 0.91428 0.0
C3564 C 0.05868 0.35669 0.91751 0.0
C3565 C 0.03335 0.33783 0.92683 0.0
C3566 C 0.06406 0.34907 0.94847 0.0
C3567 C 0.0775 0.34294 0.94666 0.0
C3568 C 0.08593 0.34447 0.91406 0.0
C3569 C 0.08075 0.35254 0.88359 0.0
C3570 C 0.06722 0.35858 0.88529 0.0
H3571 H 0.02316 0.33248 0.92003 0.0
H3572 H 0.04166 0.33372 0.90747 0.0
H3573 H 0.03628 0.33492 0.95627 0.0
H3574 H 0.05782 0.34782 0.97403 0.0
H3575 H 0.08134 0.33708 0.97095 0.0
H3576 H 0.88693 0.84646 0.15678 0.0
H3577 H 0.8756 0.82315 0.16131 0.0
H3578 H 0.9167 0.8033 0.1677 0.0
H3579 H 0.92811 0.82646 0.16266 0.0
H3580 H 0.87913 0.79881 0.11384 0.0
H3581 H 0.89555 0.78821 0.26201 0.0
H3582 H 0.896 0.80573 0.24132 0.0
H3583 H 0.90992 0.79324 0.23142 0.0
C3584 C 0.89357 0.83714 0.15874 0.0
C3585 C 0.90845 0.83835 0.15964 0.0
C3586 C 0.88707 0.82384 0.16158 0.0
C3587 C 0.89532 0.81157 0.16561 0.0
C3588 C 0.91014 0.8127 0.16555 0.0
H3589 H 0.88884 0.72195 0.17213 0.0
H3590 H 0.89508 0.747 0.17555 0.0
C3591 C 0.91664 0.82595 0.16267 0.0
C3592 C 0.88854 0.79748 0.16925 0.0
H3593 H 0.88691 0.76841 0.2267 0.0
C3594 C 0.88063 0.79221 0.13868 0.0
C3595 C 0.89051 0.78896 0.2018 0.0
C3596 C 0.89834 0.79435 0.23618 0.0
C3597 C 0.87524 0.77833 0.139 0.0
C3598 C 0.87763 0.76963 0.17106 0.0
C3599 C 0.88511 0.7751 0.20216 0.0
C3600 C 0.87346 0.7545 0.17168 0.0
C3601 C 0.86762 0.77285 0.10436 0.0
C3602 C 0.85917 0.7504 0.16932 0.0
C3603 C 0.85554 0.73603 0.16757 0.0
C3604 C 0.86613 0.72553 0.16844 0.0
C3605 C 0.88039 0.72972 0.17206 0.0
C3606 C 0.88399 0.74405 0.17375 0.0
H3607 H 0.86909 0.77992 0.07948 0.0
H3608 H 0.87142 0.76207 0.09683 0.0
H3609 H 0.8561 0.77215 0.11044 0.0
H3610 H 0.85086 0.75832 0.16841 0.0
H3611 H 0.84446 0.73313 0.1652 0.0
H3612 H 0.40699 0.62855 0.41933 0.0
H3613 H 0.4299 0.61661 0.42619 0.0
H3614 H 0.4509 0.65717 0.43153 0.0
H3615 H 0.4282 0.66918 0.42392 0.0
H3616 H 0.45479 0.61965 0.37885 0.0
H3617 H 0.46475 0.63577 0.52758 0.0
H3618 H 0.44734 0.63632 0.50627 0.0
H3619 H 0.45996 0.65017 0.49682 0.0
C3620 C 0.41648 0.63495 0.4216 0.0
C3621 C 0.41571 0.64986 0.4213 0.0
C3622 C 0.42955 0.62809 0.4258 0.0
C3623 C 0.44202 0.63602 0.4301 0.0
C3624 C 0.44133 0.65086 0.42915 0.0
H3625 H 0.53123 0.6296 0.4383 0.0
H3626 H 0.50614 0.63548 0.44314 0.0
C3627 C 0.42832 0.65772 0.42482 0.0
C3628 C 0.45591 0.62891 0.43446 0.0
H3629 H 0.48467 0.62698 0.4929 0.0
C3630 C 0.46127 0.62102 0.40398 0.0
C3631 C 0.46426 0.63073 0.46735 0.0
C3632 C 0.45876 0.6386 0.50155 0.0
C3633 C 0.47512 0.61557 0.40465 0.0
C3634 C 0.48368 0.61785 0.43704 0.0
C3635 C 0.47809 0.62525 0.46812 0.0
C3636 C 0.49886 0.61381 0.43778 0.0
C3637 C 0.48073 0.60809 0.36994 0.0
C3638 C 0.50312 0.59961 0.43433 0.0
C3639 C 0.51753 0.59618 0.43171 0.0
C3640 C 0.52791 0.60691 0.43283 0.0
C3641 C 0.52357 0.62105 0.43797 0.0
C3642 C 0.50921 0.62445 0.44048 0.0
H3643 H 0.47376 0.60967 0.3449 0.0
H3644 H 0.49154 0.61191 0.3628 0.0
H3645 H 0.48138 0.59654 0.37569 0.0
H3646 H 0.4953 0.59121 0.43297 0.0
H3647 H 0.52054 0.58518 0.42816 0.0
H3648 H 0.39646 0.16003 0.11687 0.0
H3649 H 0.38547 0.1835 0.12184 0.0
H3650 H 0.4076 0.19077 0.22701 0.0
H3651 H 0.41877 0.16746 0.22181 0.0
H3652 H 0.36827 0.19521 0.17542 0.0
H3653 H 0.41868 0.22542 0.16689 0.0
H3654 H 0.41765 0.20674 0.15637 0.0
H3655 H 0.41838 0.21273 0.20474 0.0
C3656 C 0.39894 0.16663 0.14107 0.0
C3657 C 0.40861 0.16199 0.1687 0.0
C3658 C 0.39268 0.18003 0.14387 0.0
C3659 C 0.39594 0.18901 0.17441 0.0
C3660 C 0.40525 0.1842 0.20263 0.0
H3661 H 0.36831 0.27484 0.23167 0.0
H3662 H 0.37677 0.25032 0.23587 0.0
C3663 C 0.41161 0.17088 0.19965 0.0
C3664 C 0.38961 0.20339 0.17669 0.0
H3665 H 0.39798 0.2386 0.18138 0.0
C3666 C 0.37477 0.2047 0.17669 0.0
C3667 C 0.3981 0.21576 0.17828 0.0
C3668 C 0.41408 0.21515 0.17621 0.0
C3669 C 0.36821 0.21805 0.17839 0.0
C3670 C 0.37671 0.23036 0.18006 0.0
C3671 C 0.39152 0.22908 0.18051 0.0
C3672 C 0.37051 0.24476 0.17885 0.0
C3673 C 0.35224 0.21894 0.17846 0.0
C3674 C 0.3642 0.24968 0.14542 0.0
C3675 C 0.35957 0.2637 0.14268 0.0
C3676 C 0.36109 0.2731 0.17344 0.0
C3677 C 0.3671 0.26797 0.20731 0.0
C3678 C 0.37186 0.25395 0.20987 0.0
H3679 H 0.34725 0.20855 0.18508 0.0
H3680 H 0.34854 0.22691 0.1994 0.0
H3681 H 0.34854 0.22236 0.15004 0.0
H3682 H 0.36332 0.2428 0.12094 0.0
H3683 H 0.35535 0.26728 0.11582 0.0
H3684 H 0.48185 0.6065 0.8561 0.0
H3685 H 0.50632 0.61462 0.85883 0.0
H3686 H 0.50184 0.62289 0.97841 0.0
H3687 H 0.47745 0.61404 0.9764 0.0
H3688 H 0.51539 0.64077 0.87716 0.0
H3689 H 0.53902 0.60154 0.9758 0.0
H3690 H 0.52187 0.59898 0.95416 0.0
H3691 H 0.52374 0.61041 0.99466 0.0
C3692 C 0.48613 0.60965 0.88328 0.0
C3693 C 0.47767 0.60944 0.91616 0.0
C3694 C 0.50012 0.61444 0.88468 0.0
C3695 C 0.506 0.61919 0.91889 0.0
C3696 C 0.49764 0.61899 0.95183 0.0
H3697 H 0.58431 0.66226 0.97504 0.0
H3698 H 0.56068 0.65156 0.97477 0.0
C3699 C 0.48363 0.61409 0.95054 0.0
C3700 C 0.52059 0.62509 0.91933 0.0
H3701 H 0.55326 0.62156 0.96008 0.0
C3702 C 0.52369 0.6365 0.89512 0.0
C3703 C 0.5314 0.61952 0.94281 0.0
C3704 C 0.52891 0.60685 0.96808 0.0
C3705 C 0.53725 0.64261 0.8941 0.0
C3706 C 0.54801 0.6371 0.91771 0.0
C3707 C 0.54494 0.62573 0.94201 0.0
C3708 C 0.56246 0.6432 0.91793 0.0
C3709 C 0.53992 0.65509 0.86829 0.0
C3710 C 0.57132 0.64188 0.88618 0.0
C3711 C 0.58483 0.648 0.88622 0.0
C3712 C 0.58967 0.65559 0.91797 0.0
C3713 C 0.58081 0.6567 0.94991 0.0
C3714 C 0.56735 0.6505 0.94993 0.0
H3715 H 0.5299 0.65973 0.85733 0.0
H3716 H 0.54596 0.66348 0.88337 0.0
H3717 H 0.54638 0.65157 0.84374 0.0
H3718 H 0.56775 0.63616 0.86133 0.0
H3719 H 0.59139 0.64702 0.86117 0.0
H3720 H 0.11179 0.84551 0.65419 0.0
H3721 H 0.12287 0.82204 0.65403 0.0
H3722 H 0.08163 0.80252 0.66259 0.0
H3723 H 0.07047 0.82586 0.6615 0.0
H3724 H 0.12125 0.80087 0.70981 0.0
H3725 H 0.09957 0.78182 0.57297 0.0
H3726 H 0.09929 0.80027 0.5865 0.0
H3727 H 0.0862 0.78822 0.60486 0.0
C3728 C 0.10506 0.83623 0.65539 0.0
C3729 C 0.09022 0.83759 0.65767 0.0
C3730 C 0.11142 0.82283 0.65562 0.0
C3731 C 0.10306 0.81055 0.65781 0.0
C3732 C 0.08827 0.81186 0.66022 0.0
H3733 H 0.11419 0.72041 0.67035 0.0
H3734 H 0.10592 0.74489 0.67306 0.0
C3735 C 0.08191 0.82522 0.66 0.0
C3736 C 0.10974 0.79633 0.65852 0.0
H3737 H 0.11002 0.76439 0.6131 0.0
C3738 C 0.11892 0.79292 0.6885 0.0
C3739 C 0.1067 0.78601 0.63061 0.0
C3740 C 0.09751 0.78928 0.59671 0.0
C3741 C 0.12474 0.77926 0.69203 0.0
C3742 C 0.1214 0.76886 0.66461 0.0
C3743 C 0.11246 0.77237 0.63424 0.0
C3744 C 0.12679 0.75414 0.66704 0.0
C3745 C 0.13405 0.77593 0.72562 0.0
C3746 C 0.14132 0.75122 0.66331 0.0
C3747 C 0.14612 0.73719 0.66205 0.0
C3748 C 0.13647 0.72584 0.66438 0.0
C3749 C 0.12196 0.72886 0.66919 0.0
C3750 C 0.11719 0.74286 0.6704 0.0
H3751 H 0.13316 0.7841 0.74816 0.0
H3752 H 0.13127 0.76543 0.73784 0.0
H3753 H 0.14528 0.77549 0.71625 0.0
H3754 H 0.14889 0.75979 0.66014 0.0
H3755 H 0.15736 0.73523 0.65847 0.0
H3756 H 0.90221 0.36469 0.39782 0.0
H3757 H 0.92555 0.37615 0.39641 0.0
H3758 H 0.94572 0.33518 0.40208 0.0
H3759 H 0.92252 0.32367 0.40266 0.0
H3760 H 0.94754 0.37382 0.45203 0.0
H3761 H 0.965 0.35466 0.31102 0.0
H3762 H 0.94666 0.3544 0.3258 0.0
H3763 H 0.95867 0.34082 0.34162 0.0
C3764 C 0.91162 0.35812 0.39817 0.0
C3765 C 0.91052 0.34326 0.40021 0.0
C3766 C 0.92493 0.36469 0.39765 0.0
C3767 C 0.93733 0.3565 0.3987 0.0
C3768 C 0.93627 0.34168 0.40068 0.0
H3769 H 0.02711 0.36473 0.40939 0.0
H3770 H 0.00226 0.35768 0.40965 0.0
C3771 C 0.923 0.33513 0.40137 0.0
C3772 C 0.95146 0.36334 0.39886 0.0
H3773 H 0.98295 0.36416 0.35134 0.0
C3774 C 0.95525 0.37188 0.42983 0.0
C3775 C 0.96144 0.36081 0.36976 0.0
C3776 C 0.95773 0.35228 0.33497 0.0
C3777 C 0.96903 0.37742 0.43332 0.0
C3778 C 0.97914 0.37447 0.40482 0.0
C3779 C 0.97519 0.36632 0.37328 0.0
C3780 C 0.99411 0.3791 0.40784 0.0
C3781 C 0.97283 0.38588 0.46814 0.0
C3782 C 0.99777 0.39352 0.40715 0.0
C3783 C 0.01204 0.39763 0.40742 0.0
C3784 C 0.02287 0.38737 0.40826 0.0
C3785 C 0.01909 0.37294 0.40958 0.0
C3786 C 0.00487 0.36887 0.40934 0.0
H3787 H 0.9647 0.38484 0.49077 0.0
H3788 H 0.98324 0.38243 0.47962 0.0
H3789 H 0.9737 0.39726 0.46045 0.0
H3790 H 0.98961 0.40158 0.40545 0.0
H3791 H 0.01459 0.40882 0.40645 0.0
H3792 H 0.42435 0.82461 0.33541 0.0
H3793 H 0.41503 0.80045 0.33452 0.0
H3794 H 0.37254 0.81663 0.34708 0.0
H3795 H 0.38176 0.84093 0.34698 0.0
H3796 H 0.39887 0.78663 0.39065 0.0
H3797 H 0.3697 0.79026 0.25401 0.0
H3798 H 0.38295 0.80306 0.26792 0.0
H3799 H 0.36555 0.80365 0.2885 0.0
C3800 C 0.41301 0.82306 0.33763 0.0
C3801 C 0.4038 0.83472 0.34099 0.0
C3802 C 0.40771 0.80924 0.33732 0.0
C3803 C 0.39309 0.80677 0.34014 0.0
C3804 C 0.38384 0.81833 0.3442 0.0
H3805 H 0.3458 0.72712 0.34463 0.0
H3806 H 0.35246 0.75223 0.34218 0.0
C3807 C 0.38915 0.8322 0.3446 0.0
C3808 C 0.38766 0.79202 0.33952 0.0
H3809 H 0.36775 0.76871 0.28787 0.0
C3810 C 0.39205 0.78271 0.3682 0.0
C3811 C 0.37872 0.78697 0.31028 0.0
C3812 C 0.37401 0.79644 0.27821 0.0
C3813 C 0.38778 0.76846 0.36844 0.0
C3814 C 0.3791 0.76332 0.33875 0.0
C3815 C 0.37446 0.77268 0.31044 0.0
C3816 C 0.37493 0.74819 0.33659 0.0
C3817 C 0.39247 0.75907 0.40072 0.0
C3818 C 0.38532 0.73764 0.33288 0.0
C3819 C 0.38157 0.72332 0.33446 0.0
C3820 C 0.36734 0.71926 0.33954 0.0
C3821 C 0.35687 0.72989 0.34122 0.0
C3822 C 0.36064 0.74423 0.33966 0.0
H3823 H 0.39581 0.76536 0.42578 0.0
H3824 H 0.38384 0.75174 0.40941 0.0
H3825 H 0.40166 0.7526 0.39142 0.0
H3826 H 0.39639 0.74049 0.32982 0.0
H3827 H 0.38994 0.71546 0.33346 0.0
H3828 H 0.02159 0.59356 0.09517 0.0
H3829 H 0.99633 0.59973 0.09361 0.0
H3830 H 0.0072 0.64398 0.08353 0.0
H3831 H 0.03231 0.63801 0.08565 0.0
H3832 H 0.98193 0.61758 0.14501 0.0
H3833 H 0.97817 0.6383 0.9985 0.0
H3834 H 0.99278 0.62744 0.01436 0.0
H3835 H 0.9924 0.64609 0.02507 0.0
C3836 C 0.01859 0.6046 0.0924 0.0
C3837 C 0.02902 0.61527 0.0902 0.0
C3838 C 0.00417 0.60809 0.0914 0.0
C3839 C -0.0001 0.62229 0.08787 0.0
C3840 C 0.01026 0.63292 0.08532 0.0
H3841 H 0.92705 0.67533 0.10045 0.0
H3842 H 0.95036 0.66418 0.09656 0.0
C3843 C 0.02464 0.62947 0.0864 0.0
C3844 C 0.98468 0.62621 0.089 0.0
H3845 H 0.95933 0.64464 0.04073 0.0
C3846 C 0.97689 0.6233 0.12202 0.0
C3847 C 0.97815 0.63365 0.05893 0.0
C3848 C 0.98576 0.63644 0.02206 0.0
C3849 C 0.96294 0.62829 0.12651 0.0
C3850 C 0.95661 0.6362 0.09696 0.0
C3851 C 0.96424 0.63865 0.06344 0.0
C3852 C 0.94239 0.64273 0.1009 0.0
C3853 C 0.95532 0.62561 0.16342 0.0
C3854 C 0.93016 0.63436 0.10478 0.0
C3855 C 0.91677 0.64073 0.10693 0.0
C3856 C 0.91539 0.65557 0.10494 0.0
C3857 C 0.92771 0.66388 0.10153 0.0
C3858 C 0.94105 0.65753 0.09944 0.0
H3859 H 0.96263 0.6218 0.1859 0.0
H3860 H 0.95 0.63541 0.1735 0.0
H3861 H 0.94705 0.61741 0.15899 0.0
H3862 H 0.93094 0.62291 0.10532 0.0
H3863 H 0.90749 0.63402 0.10898 0.0
H3864 H 0.15638 0.26728 0.84677 0.0
H3865 H 0.1499 0.24211 0.84373 0.0
H3866 H 0.1058 0.25359 0.83394 0.0
H3867 H 0.11208 0.27859 0.83747 0.0
H3868 H 0.13208 0.22801 0.89494 0.0
H3869 H 0.11071 0.22449 0.74913 0.0
H3870 H 0.12176 0.23901 0.76469 0.0
H3871 H 0.10313 0.2388 0.77583 0.0
C3872 C 0.14531 0.26443 0.84363 0.0
C3873 C 0.13477 0.27498 0.84206 0.0
C3874 C 0.14164 0.25006 0.84178 0.0
C3875 C 0.12739 0.246 0.83802 0.0
C3876 C 0.11689 0.25649 0.83584 0.0
H3877 H 0.07317 0.17408 0.85463 0.0
H3878 H 0.08464 0.1972 0.84874 0.0
C3879 C 0.12053 0.27081 0.83776 0.0
C3880 C 0.12325 0.23086 0.8392 0.0
H3881 H 0.10406 0.20582 0.79181 0.0
C3882 C 0.12616 0.22305 0.87217 0.0
C3883 C 0.11553 0.22445 0.80944 0.0
C3884 C 0.11271 0.23207 0.77262 0.0
C3885 C 0.12091 0.20923 0.87697 0.0
C3886 C 0.11273 0.20303 0.84776 0.0
C3887 C 0.11026 0.21065 0.81425 0.0
C3888 C 0.10599 0.18893 0.85209 0.0
C3889 C 0.1236 0.20161 0.91388 0.0
C3890 C 0.11422 0.17662 0.85588 0.0
C3891 C 0.10767 0.16336 0.85919 0.0
C3892 C 0.0928 0.16219 0.85849 0.0
C3893 C 0.08463 0.17458 0.85483 0.0
C3894 C 0.09117 0.18781 0.85158 0.0
H3895 H 0.12762 0.20889 0.93618 0.0
H3896 H 0.11375 0.19646 0.92431 0.0
H3897 H 0.13165 0.19321 0.9093 0.0
H3898 H 0.12568 0.17724 0.85566 0.0
H3899 H 0.11428 0.15401 0.86129 0.0
H3900 H 0.47766 0.38803 0.66442 0.0
H3901 H 0.50227 0.38067 0.65951 0.0
H3902 H 0.49765 0.37592 0.53861 0.0
H3903 H 0.47305 0.38411 0.54293 0.0
H3904 H 0.51189 0.35548 0.63568 0.0
H3905 H 0.5343 0.3982 0.54536 0.0
H3906 H 0.51712 0.39962 0.56758 0.0
H3907 H 0.51926 0.38932 0.52508 0.0
C3908 C 0.48192 0.38584 0.63654 0.0
C3909 C 0.47336 0.3869 0.60396 0.0
C3910 C 0.49599 0.38146 0.63388 0.0
C3911 C 0.50188 0.37792 0.59867 0.0
C3912 C 0.49343 0.3789 0.566 0.0
H3913 H 0.58193 0.33815 0.54119 0.0
H3914 H 0.55797 0.3481 0.54078 0.0
C3915 C 0.47931 0.38341 0.56858 0.0
C3916 C 0.51662 0.3725 0.59693 0.0
H3917 H 0.54936 0.37862 0.55873 0.0
C3918 C 0.52008 0.36058 0.61896 0.0
C3919 C 0.5273 0.37917 0.57508 0.0
C3920 C 0.52438 0.39236 0.55219 0.0
C3921 C 0.53391 0.35513 0.61964 0.0
C3922 C 0.54455 0.36179 0.59785 0.0
C3923 C 0.54112 0.3736 0.57547 0.0
C3924 C 0.55927 0.35645 0.5977 0.0
C3925 C 0.53705 0.34219 0.64333 0.0
C3926 C 0.56794 0.35806 0.62972 0.0
C3927 C 0.58164 0.35239 0.63005 0.0
C3928 C 0.58681 0.34494 0.59845 0.0
C3929 C 0.57815 0.34361 0.56619 0.0
C3930 C 0.56452 0.34938 0.56577 0.0
H3931 H 0.52722 0.33698 0.65376 0.0
H3932 H 0.54328 0.33437 0.62672 0.0
H3933 H 0.54352 0.34534 0.66822 0.0
H3934 H 0.56404 0.36356 0.65456 0.0
H3935 H 0.58805 0.35352 0.65531 0.0
loop_
_geom_bond_atom_site_label_1
_geom_bond_atom_site_label_2
_geom_bond_distance
_geom_bond_site_symmetry_2
_ccdc_geom_bond_type
C0 C1 1.351 . S
C0 N3 1.368 . S
C0 H5 0.931 . S
C1 C0 1.351 . S
C1 N2 1.373 . S
C1 H29 0.930 . S
N2 C1 1.373 . S
N2 C4 1.340 . S
N3 C0 1.368 . S
N3 C4 1.321 . S
N3 Co6 2.135 . S
C4 N2 1.340 . S
C4 N3 1.321 . S
C4 H28 0.930 . S
H5 C0 0.931 . S
Co6 N3 2.135 . S
Co6 N9 2.121 . S
Co6 O14 2.055 . S
Co6 O17 2.039 . S
Co6 N20 2.140 . S
C7 O8 1.227 . S
C7 O17 1.265 . S
O8 C7 1.227 . S
N9 Co6 2.121 . S
N9 C11 1.375 . S
N9 C12 1.313 . S
C10 C11 1.338 . S
C10 N13 1.377 . S
C10 H30 0.930 . S
C11 N9 1.375 . S
C11 C10 1.338 . S
C11 H15 0.931 . S
C12 N9 1.313 . S
C12 N13 1.344 . S
C12 H16 0.930 . S
N13 C10 1.377 . S
N13 C12 1.344 . S
O14 Co6 2.055 . S
O14 C18 1.253 . S
H15 C11 0.931 . S
H16 C12 0.930 . S
O17 Co6 2.039 . S
O17 C7 1.265 . S
C18 O14 1.253 . S
C18 O19 1.227 . S
O19 C18 1.227 . S
N20 Co6 2.140 . S
N20 C23 1.346 . S
N20 C24 1.345 . S
C21 C22 1.387 . S
C21 C25 1.391 . S
C22 C21 1.387 . S
C22 C23 1.369 . S
C22 H31 0.929 . S
C23 N20 1.346 . S
C23 C22 1.369 . S
C23 H26 0.928 . S
C24 N20 1.345 . S
C24 C25 1.371 . S
C24 H27 0.931 . S
C25 C21 1.391 . S
C25 C24 1.371 . S
C25 H32 0.930 . S
H26 C23 0.928 . S
H27 C24 0.931 . S
H28 C4 0.930 . S
H29 C1 0.930 . S
H30 C10 0.930 . S
H31 C22 0.929 . S
H32 C25 0.930 . S
C33 C34 1.351 . S
C33 N36 1.368 . S
C33 H38 0.931 . S
C34 C33 1.351 . S
C34 N35 1.373 . S
C34 H62 0.930 . S
N35 C34 1.373 . S
N35 C37 1.340 . S
N36 C33 1.368 . S
N36 C37 1.321 . S
N36 Co39 2.135 . S
C37 N35 1.340 . S
C37 N36 1.321 . S
C37 H61 0.930 . S
H38 C33 0.931 . S
Co39 N36 2.135 . S
Co39 N42 2.121 . S
Co39 O47 2.055 . S
Co39 O50 2.039 . S
Co39 N53 2.140 . S
C40 O41 1.227 . S
C40 O50 1.265 . S
O41 C40 1.227 . S
N42 Co39 2.121 . S
N42 C44 1.375 . S
N42 C45 1.313 . S
C43 C44 1.338 . S
C43 N46 1.377 . S
C43 H63 0.930 . S
C44 N42 1.375 . S
C44 C43 1.338 . S
C44 H48 0.931 . S
C45 N42 1.313 . S
C45 N46 1.344 . S
C45 H49 0.930 . S
N46 C43 1.377 . S
N46 C45 1.344 . S
O47 Co39 2.055 . S
O47 C51 1.253 . S
H48 C44 0.931 . S
H49 C45 0.930 . S
O50 Co39 2.039 . S
O50 C40 1.265 . S
C51 O47 1.253 . S
C51 O52 1.227 . S
O52 C51 1.227 . S
N53 Co39 2.140 . S
N53 C56 1.346 . S
N53 C57 1.345 . S
C54 C55 1.387 . S
C54 C58 1.391 . S
C55 C54 1.387 . S
C55 C56 1.369 . S
C55 H64 0.929 . S
C56 N53 1.346 . S
C56 C55 1.369 . S
C56 H59 0.928 . S
C57 N53 1.345 . S
C57 C58 1.371 . S
C57 H60 0.931 . S
C58 C54 1.391 . S
C58 C57 1.371 . S
C58 H65 0.930 . S
H59 C56 0.928 . S
H60 C57 0.931 . S
H61 C37 0.930 . S
H62 C34 0.930 . S
H63 C43 0.930 . S
H64 C55 0.929 . S
H65 C58 0.930 . S
C66 C67 1.351 . S
C66 N69 1.368 . S
C66 H71 0.931 . S
C67 C66 1.351 . S
C67 N68 1.373 . S
C67 H95 0.930 . S
N68 C67 1.373 . S
N68 C70 1.340 . S
N69 C66 1.368 . S
N69 C70 1.321 . S
N69 Co72 2.135 . S
C70 N68 1.340 . S
C70 N69 1.321 . S
C70 H94 0.930 . S
H71 C66 0.931 . S
Co72 N69 2.135 . S
Co72 N75 2.121 . S
Co72 O80 2.055 . S
Co72 O83 2.039 . S
Co72 N86 2.140 . S
C73 O74 1.227 . S
C73 O83 1.265 . S
O74 C73 1.227 . S
N75 Co72 2.121 . S
N75 C77 1.375 . S
N75 C78 1.313 . S
C76 C77 1.338 . S
C76 N79 1.377 . S
C76 H96 0.930 . S
C77 N75 1.375 . S
C77 C76 1.338 . S
C77 H81 0.931 . S
C78 N75 1.313 . S
C78 N79 1.344 . S
C78 H82 0.930 . S
N79 C76 1.377 . S
N79 C78 1.344 . S
O80 Co72 2.055 . S
O80 C84 1.253 . S
H81 C77 0.931 . S
H82 C78 0.930 . S
O83 Co72 2.039 . S
O83 C73 1.265 . S
C84 O80 1.253 . S
C84 O85 1.227 . S
O85 C84 1.227 . S
N86 Co72 2.140 . S
N86 C89 1.346 . S
N86 C90 1.345 . S
C87 C88 1.387 . S
C87 C91 1.391 . S
C88 C87 1.387 . S
C88 C89 1.369 . S
C88 H97 0.929 . S
C89 N86 1.346 . S
C89 C88 1.369 . S
C89 H92 0.928 . S
C90 N86 1.345 . S
C90 C91 1.371 . S
C90 H93 0.931 . S
C91 C87 1.391 . S
C91 C90 1.371 . S
C91 H98 0.930 . S
H92 C89 0.928 . S
H93 C90 0.931 . S
H94 C70 0.930 . S
H95 C67 0.930 . S
H96 C76 0.930 . S
H97 C88 0.929 . S
H98 C91 0.930 . S
C99 C100 1.351 . S
C99 N102 1.368 . S
C99 H104 0.931 . S
C100 C99 1.351 . S
C100 N101 1.373 . S
C100 H128 0.930 . S
N101 C100 1.373 . S
N101 C103 1.340 . S
N102 C99 1.368 . S
N102 C103 1.321 . S
N102 Co105 2.135 . S
C103 N101 1.340 . S
C103 N102 1.321 . S
C103 H127 0.930 . S
H104 C99 0.931 . S
Co105 N102 2.135 . S
Co105 N108 2.121 . S
Co105 O113 2.055 . S
Co105 O116 2.039 . S
Co105 N119 2.140 . S
C106 O107 1.227 . S
C106 O116 1.265 . S
O107 C106 1.227 . S
N108 Co105 2.121 . S
N108 C110 1.375 . S
N108 C111 1.313 . S
C109 C110 1.338 . S
C109 N112 1.377 . S
C109 H129 0.930 . S
C110 N108 1.375 . S
C110 C109 1.338 . S
C110 H114 0.931 . S
C111 N108 1.313 . S
C111 N112 1.344 . S
C111 H115 0.930 . S
N112 C109 1.377 . S
N112 C111 1.344 . S
O113 Co105 2.055 . S
O113 C117 1.253 . S
H114 C110 0.931 . S
H115 C111 0.930 . S
O116 Co105 2.039 . S
O116 C106 1.265 . S
C117 O113 1.253 . S
C117 O118 1.227 . S
O118 C117 1.227 . S
N119 Co105 2.140 . S
N119 C122 1.346 . S
N119 C123 1.345 . S
C120 C121 1.387 . S
C120 C124 1.391 . S
C121 C120 1.387 . S
C121 C122 1.369 . S
C121 H130 0.929 . S
C122 N119 1.346 . S
C122 C121 1.369 . S
C122 H125 0.928 . S
C123 N119 1.345 . S
C123 C124 1.371 . S
C123 H126 0.931 . S
C124 C120 1.391 . S
C124 C123 1.371 . S
C124 H131 0.930 . S
H125 C122 0.928 . S
H126 C123 0.931 . S
H127 C103 0.930 . S
H128 C100 0.930 . S
H129 C109 0.930 . S
H130 C121 0.929 . S
H131 C124 0.930 . S
C132 C133 1.351 . S
C132 N135 1.368 . S
C132 H137 0.931 . S
C133 C132 1.351 . S
C133 N134 1.373 . S
C133 H161 0.930 . S
N134 C133 1.373 . S
N134 C136 1.340 . S
N135 C132 1.368 . S
N135 C136 1.321 . S
N135 Co138 2.135 . S
C136 N134 1.340 . S
C136 N135 1.321 . S
C136 H160 0.930 . S
H137 C132 0.931 . S
Co138 N135 2.135 . S
Co138 N141 2.121 . S
Co138 O146 2.055 . S
Co138 O149 2.039 . S
Co138 N152 2.140 . S
C139 O140 1.227 . S
C139 O149 1.265 . S
O140 C139 1.227 . S
N141 Co138 2.121 . S
N141 C143 1.375 . S
N141 C144 1.313 . S
C142 C143 1.338 . S
C142 N145 1.377 . S
C142 H162 0.930 . S
C143 N141 1.375 . S
C143 C142 1.338 . S
C143 H147 0.931 . S
C144 N141 1.313 . S
C144 N145 1.344 . S
C144 H148 0.930 . S
N145 C142 1.377 . S
N145 C144 1.344 . S
O146 Co138 2.055 . S
O146 C150 1.253 . S
H147 C143 0.931 . S
H148 C144 0.930 . S
O149 Co138 2.039 . S
O149 C139 1.265 . S
C150 O146 1.253 . S
C150 O151 1.227 . S
O151 C150 1.227 . S
N152 Co138 2.140 . S
N152 C155 1.346 . S
N152 C156 1.345 . S
C153 C154 1.387 . S
C153 C157 1.391 . S
C154 C153 1.387 . S
C154 C155 1.369 . S
C154 H163 0.929 . S
C155 N152 1.346 . S
C155 C154 1.369 . S
C155 H158 0.928 . S
C156 N152 1.345 . S
C156 C157 1.371 . S
C156 H159 0.931 . S
C157 C153 1.391 . S
C157 C156 1.371 . S
C157 H164 0.930 . S
H158 C155 0.928 . S
H159 C156 0.931 . S
H160 C136 0.930 . S
H161 C133 0.930 . S
H162 C142 0.930 . S
H163 C154 0.929 . S
H164 C157 0.930 . S
C165 C166 1.351 . S
C165 N168 1.368 . S
C165 H170 0.931 . S
C166 C165 1.351 . S
C166 N167 1.373 . S
C166 H194 0.930 . S
N167 C166 1.373 . S
N167 C169 1.340 . S
N168 C165 1.368 . S
N168 C169 1.321 . S
N168 Co171 2.135 . S
C169 N167 1.340 . S
C169 N168 1.321 . S
C169 H193 0.930 . S
H170 C165 0.931 . S
Co171 N168 2.135 . S
Co171 N174 2.121 . S
Co171 O179 2.055 . S
Co171 O182 2.039 . S
Co171 N185 2.140 . S
C172 O173 1.227 . S
C172 O182 1.265 . S
O173 C172 1.227 . S
N174 Co171 2.121 . S
N174 C176 1.375 . S
N174 C177 1.313 . S
C175 C176 1.338 . S
C175 N178 1.377 . S
C175 H195 0.930 . S
C176 N174 1.375 . S
C176 C175 1.338 . S
C176 H180 0.931 . S
C177 N174 1.313 . S
C177 N178 1.344 . S
C177 H181 0.930 . S
N178 C175 1.377 . S
N178 C177 1.344 . S
O179 Co171 2.055 . S
O179 C183 1.253 . S
H180 C176 0.931 . S
H181 C177 0.930 . S
O182 Co171 2.039 . S
O182 C172 1.265 . S
C183 O179 1.253 . S
C183 O184 1.227 . S
O184 C183 1.227 . S
N185 Co171 2.140 . S
N185 C188 1.346 . S
N185 C189 1.345 . S
C186 C187 1.387 . S
C186 C190 1.391 . S
C187 C186 1.387 . S
C187 C188 1.369 . S
C187 H196 0.929 . S
C188 N185 1.346 . S
C188 C187 1.369 . S
C188 H191 0.928 . S
C189 N185 1.345 . S
C189 C190 1.371 . S
C189 H192 0.931 . S
C190 C186 1.391 . S
C190 C189 1.371 . S
C190 H197 0.930 . S
H191 C188 0.928 . S
H192 C189 0.931 . S
H193 C169 0.930 . S
H194 C166 0.930 . S
H195 C175 0.930 . S
H196 C187 0.929 . S
H197 C190 0.930 . S
C198 C199 1.351 . S
C198 N201 1.368 . S
C198 H203 0.931 . S
C199 C198 1.351 . S
C199 N200 1.373 . S
C199 H227 0.930 . S
N200 C199 1.373 . S
N200 C202 1.340 . S
N201 C198 1.368 . S
N201 C202 1.321 . S
N201 Co204 2.135 . S
C202 N200 1.340 . S
C202 N201 1.321 . S
C202 H226 0.930 . S
H203 C198 0.931 . S
Co204 N201 2.135 . S
Co204 N207 2.121 . S
Co204 O212 2.055 . S
Co204 O215 2.039 . S
Co204 N218 2.140 . S
C205 O206 1.227 . S
C205 O215 1.265 . S
O206 C205 1.227 . S
N207 Co204 2.121 . S
N207 C209 1.375 . S
N207 C210 1.313 . S
C208 C209 1.338 . S
C208 N211 1.377 . S
C208 H228 0.930 . S
C209 N207 1.375 . S
C209 C208 1.338 . S
C209 H213 0.931 . S
C210 N207 1.313 . S
C210 N211 1.344 . S
C210 H214 0.930 . S
N211 C208 1.377 . S
N211 C210 1.344 . S
O212 Co204 2.055 . S
O212 C216 1.253 . S
H213 C209 0.931 . S
H214 C210 0.930 . S
O215 Co204 2.039 . S
O215 C205 1.265 . S
C216 O212 1.253 . S
C216 O217 1.227 . S
O217 C216 1.227 . S
N218 Co204 2.140 . S
N218 C221 1.346 . S
N218 C222 1.345 . S
C219 C220 1.387 . S
C219 C223 1.391 . S
C220 C219 1.387 . S
C220 C221 1.369 . S
C220 H229 0.929 . S
C221 N218 1.346 . S
C221 C220 1.369 . S
C221 H224 0.928 . S
C222 N218 1.345 . S
C222 C223 1.371 . S
C222 H225 0.931 . S
C223 C219 1.391 . S
C223 C222 1.371 . S
C223 H230 0.930 . S
H224 C221 0.928 . S
H225 C222 0.931 . S
H226 C202 0.930 . S
H227 C199 0.930 . S
H228 C208 0.930 . S
H229 C220 0.929 . S
H230 C223 0.930 . S
C231 C232 1.351 . S
C231 N234 1.368 . S
C231 H236 0.931 . S
C232 C231 1.351 . S
C232 N233 1.373 . S
C232 H260 0.930 . S
N233 C232 1.373 . S
N233 C235 1.340 . S
N234 C231 1.368 . S
N234 C235 1.321 . S
N234 Co237 2.135 . S
C235 N233 1.340 . S
C235 N234 1.321 . S
C235 H259 0.930 . S
H236 C231 0.931 . S
Co237 N234 2.135 . S
Co237 N240 2.121 . S
Co237 O245 2.055 . S
Co237 O248 2.039 . S
Co237 N251 2.140 . S
C238 O239 1.227 . S
C238 O248 1.265 . S
O239 C238 1.227 . S
N240 Co237 2.121 . S
N240 C242 1.375 . S
N240 C243 1.313 . S
C241 C242 1.338 . S
C241 N244 1.377 . S
C241 H261 0.930 . S
C242 N240 1.375 . S
C242 C241 1.338 . S
C242 H246 0.931 . S
C243 N240 1.313 . S
C243 N244 1.344 . S
C243 H247 0.930 . S
N244 C241 1.377 . S
N244 C243 1.344 . S
O245 Co237 2.055 . S
O245 C249 1.253 . S
H246 C242 0.931 . S
H247 C243 0.930 . S
O248 Co237 2.039 . S
O248 C238 1.265 . S
C249 O245 1.253 . S
C249 O250 1.227 . S
O250 C249 1.227 . S
N251 Co237 2.140 . S
N251 C254 1.346 . S
N251 C255 1.345 . S
C252 C253 1.387 . S
C252 C256 1.391 . S
C253 C252 1.387 . S
C253 C254 1.369 . S
C253 H262 0.929 . S
C254 N251 1.346 . S
C254 C253 1.369 . S
C254 H257 0.928 . S
C255 N251 1.345 . S
C255 C256 1.371 . S
C255 H258 0.931 . S
C256 C252 1.391 . S
C256 C255 1.371 . S
C256 H263 0.930 . S
H257 C254 0.928 . S
H258 C255 0.931 . S
H259 C235 0.930 . S
H260 C232 0.930 . S
H261 C241 0.930 . S
H262 C253 0.929 . S
H263 C256 0.930 . S
C264 C265 1.351 . S
C264 N267 1.368 . S
C264 H269 0.931 . S
C265 C264 1.351 . S
C265 N266 1.373 . S
C265 H293 0.930 . S
N266 C265 1.373 . S
N266 C268 1.340 . S
N267 C264 1.368 . S
N267 C268 1.321 . S
N267 Co270 2.135 . S
C268 N266 1.340 . S
C268 N267 1.321 . S
C268 H292 0.930 . S
H269 C264 0.931 . S
Co270 N267 2.135 . S
Co270 N273 2.121 . S
Co270 O278 2.055 . S
Co270 O281 2.039 . S
Co270 N284 2.140 . S
C271 O272 1.227 . S
C271 O281 1.265 . S
O272 C271 1.227 . S
N273 Co270 2.121 . S
N273 C275 1.375 . S
N273 C276 1.313 . S
C274 C275 1.338 . S
C274 N277 1.377 . S
C274 H294 0.930 . S
C275 N273 1.375 . S
C275 C274 1.338 . S
C275 H279 0.931 . S
C276 N273 1.313 . S
C276 N277 1.344 . S
C276 H280 0.930 . S
N277 C274 1.377 . S
N277 C276 1.344 . S
O278 Co270 2.055 . S
O278 C282 1.253 . S
H279 C275 0.931 . S
H280 C276 0.930 . S
O281 Co270 2.039 . S
O281 C271 1.265 . S
C282 O278 1.253 . S
C282 O283 1.227 . S
O283 C282 1.227 . S
N284 Co270 2.140 . S
N284 C287 1.346 . S
N284 C288 1.345 . S
C285 C286 1.387 . S
C285 C289 1.391 . S
C286 C285 1.387 . S
C286 C287 1.369 . S
C286 H295 0.929 . S
C287 N284 1.346 . S
C287 C286 1.369 . S
C287 H290 0.928 . S
C288 N284 1.345 . S
C288 C289 1.371 . S
C288 H291 0.931 . S
C289 C285 1.391 . S
C289 C288 1.371 . S
C289 H296 0.930 . S
H290 C287 0.928 . S
H291 C288 0.931 . S
H292 C268 0.930 . S
H293 C265 0.930 . S
H294 C274 0.930 . S
H295 C286 0.929 . S
H296 C289 0.930 . S
C297 C298 1.351 . S
C297 N300 1.368 . S
C297 H302 0.931 . S
C298 C297 1.351 . S
C298 N299 1.373 . S
C298 H326 0.930 . S
N299 C298 1.373 . S
N299 C301 1.340 . S
N300 C297 1.368 . S
N300 C301 1.321 . S
N300 Co303 2.135 . S
C301 N299 1.340 . S
C301 N300 1.321 . S
C301 H325 0.930 . S
H302 C297 0.931 . S
Co303 N300 2.135 . S
Co303 N306 2.121 . S
Co303 O311 2.055 . S
Co303 O314 2.039 . S
Co303 N317 2.140 . S
C304 O305 1.227 . S
C304 O314 1.265 . S
O305 C304 1.227 . S
N306 Co303 2.121 . S
N306 C308 1.375 . S
N306 C309 1.313 . S
C307 C308 1.338 . S
C307 N310 1.377 . S
C307 H327 0.930 . S
C308 N306 1.375 . S
C308 C307 1.338 . S
C308 H312 0.931 . S
C309 N306 1.313 . S
C309 N310 1.344 . S
C309 H313 0.930 . S
N310 C307 1.377 . S
N310 C309 1.344 . S
O311 Co303 2.055 . S
O311 C315 1.253 . S
H312 C308 0.931 . S
H313 C309 0.930 . S
O314 Co303 2.039 . S
O314 C304 1.265 . S
C315 O311 1.253 . S
C315 O316 1.227 . S
O316 C315 1.227 . S
N317 Co303 2.140 . S
N317 C320 1.346 . S
N317 C321 1.345 . S
C318 C319 1.387 . S
C318 C322 1.391 . S
C319 C318 1.387 . S
C319 C320 1.369 . S
C319 H328 0.929 . S
C320 N317 1.346 . S
C320 C319 1.369 . S
C320 H323 0.928 . S
C321 N317 1.345 . S
C321 C322 1.371 . S
C321 H324 0.931 . S
C322 C318 1.391 . S
C322 C321 1.371 . S
C322 H329 0.930 . S
H323 C320 0.928 . S
H324 C321 0.931 . S
H325 C301 0.930 . S
H326 C298 0.930 . S
H327 C307 0.930 . S
H328 C319 0.929 . S
H329 C322 0.930 . S
C330 C331 1.351 . S
C330 N333 1.368 . S
C330 H335 0.931 . S
C331 C330 1.351 . S
C331 N332 1.373 . S
C331 H359 0.930 . S
N332 C331 1.373 . S
N332 C334 1.340 . S
N333 C330 1.368 . S
N333 C334 1.321 . S
N333 Co336 2.135 . S
C334 N332 1.340 . S
C334 N333 1.321 . S
C334 H358 0.930 . S
H335 C330 0.931 . S
Co336 N333 2.135 . S
Co336 N339 2.121 . S
Co336 O344 2.055 . S
Co336 O347 2.039 . S
Co336 N350 2.140 . S
C337 O338 1.227 . S
C337 O347 1.265 . S
O338 C337 1.227 . S
N339 Co336 2.121 . S
N339 C341 1.375 . S
N339 C342 1.313 . S
C340 C341 1.338 . S
C340 N343 1.377 . S
C340 H360 0.930 . S
C341 N339 1.375 . S
C341 C340 1.338 . S
C341 H345 0.931 . S
C342 N339 1.313 . S
C342 N343 1.344 . S
C342 H346 0.930 . S
N343 C340 1.377 . S
N343 C342 1.344 . S
O344 Co336 2.055 . S
O344 C348 1.253 . S
H345 C341 0.931 . S
H346 C342 0.930 . S
O347 Co336 2.039 . S
O347 C337 1.265 . S
C348 O344 1.253 . S
C348 O349 1.227 . S
O349 C348 1.227 . S
N350 Co336 2.140 . S
N350 C353 1.346 . S
N350 C354 1.345 . S
C351 C352 1.387 . S
C351 C355 1.391 . S
C352 C351 1.387 . S
C352 C353 1.369 . S
C352 H361 0.929 . S
C353 N350 1.346 . S
C353 C352 1.369 . S
C353 H356 0.928 . S
C354 N350 1.345 . S
C354 C355 1.371 . S
C354 H357 0.931 . S
C355 C351 1.391 . S
C355 C354 1.371 . S
C355 H362 0.930 . S
H356 C353 0.928 . S
H357 C354 0.931 . S
H358 C334 0.930 . S
H359 C331 0.930 . S
H360 C340 0.930 . S
H361 C352 0.929 . S
H362 C355 0.930 . S
C363 C364 1.351 . S
C363 N366 1.368 . S
C363 H368 0.931 . S
C364 C363 1.351 . S
C364 N365 1.373 . S
C364 H392 0.930 . S
N365 C364 1.373 . S
N365 C367 1.340 . S
N366 C363 1.368 . S
N366 C367 1.321 . S
N366 Co369 2.135 . S
C367 N365 1.340 . S
C367 N366 1.321 . S
C367 H391 0.930 . S
H368 C363 0.931 . S
Co369 N366 2.135 . S
Co369 N372 2.121 . S
Co369 O377 2.055 . S
Co369 O380 2.039 . S
Co369 N383 2.140 . S
C370 O371 1.227 . S
C370 O380 1.265 . S
O371 C370 1.227 . S
N372 Co369 2.121 . S
N372 C374 1.375 . S
N372 C375 1.313 . S
C373 C374 1.338 . S
C373 N376 1.377 . S
C373 H393 0.930 . S
C374 N372 1.375 . S
C374 C373 1.338 . S
C374 H378 0.931 . S
C375 N372 1.313 . S
C375 N376 1.344 . S
C375 H379 0.930 . S
N376 C373 1.377 . S
N376 C375 1.344 . S
O377 Co369 2.055 . S
O377 C381 1.253 . S
H378 C374 0.931 . S
H379 C375 0.930 . S
O380 Co369 2.039 . S
O380 C370 1.265 . S
C381 O377 1.253 . S
C381 O382 1.227 . S
O382 C381 1.227 . S
N383 Co369 2.140 . S
N383 C386 1.346 . S
N383 C387 1.345 . S
C384 C385 1.387 . S
C384 C388 1.391 . S
C385 C384 1.387 . S
C385 C386 1.369 . S
C385 H394 0.929 . S
C386 N383 1.346 . S
C386 C385 1.369 . S
C386 H389 0.928 . S
C387 N383 1.345 . S
C387 C388 1.371 . S
C387 H390 0.931 . S
C388 C384 1.391 . S
C388 C387 1.371 . S
C388 H395 0.930 . S
H389 C386 0.928 . S
H390 C387 0.931 . S
H391 C367 0.930 . S
H392 C364 0.930 . S
H393 C373 0.930 . S
H394 C385 0.929 . S
H395 C388 0.930 . S
C396 C397 1.351 . S
C396 N399 1.368 . S
C396 H401 0.931 . S
C397 C396 1.351 . S
C397 N398 1.373 . S
C397 H425 0.930 . S
N398 C397 1.373 . S
N398 C400 1.340 . S
N399 C396 1.368 . S
N399 C400 1.321 . S
N399 Co402 2.135 . S
C400 N398 1.340 . S
C400 N399 1.321 . S
C400 H424 0.930 . S
H401 C396 0.931 . S
Co402 N399 2.135 . S
Co402 N405 2.121 . S
Co402 O410 2.055 . S
Co402 O413 2.039 . S
Co402 N416 2.140 . S
C403 O404 1.227 . S
C403 O413 1.265 . S
O404 C403 1.227 . S
N405 Co402 2.121 . S
N405 C407 1.375 . S
N405 C408 1.313 . S
C406 C407 1.338 . S
C406 N409 1.377 . S
C406 H426 0.930 . S
C407 N405 1.375 . S
C407 C406 1.338 . S
C407 H411 0.931 . S
C408 N405 1.313 . S
C408 N409 1.344 . S
C408 H412 0.930 . S
N409 C406 1.377 . S
N409 C408 1.344 . S
O410 Co402 2.055 . S
O410 C414 1.253 . S
H411 C407 0.931 . S
H412 C408 0.930 . S
O413 Co402 2.039 . S
O413 C403 1.265 . S
C414 O410 1.253 . S
C414 O415 1.227 . S
O415 C414 1.227 . S
N416 Co402 2.140 . S
N416 C419 1.346 . S
N416 C420 1.345 . S
C417 C418 1.387 . S
C417 C421 1.391 . S
C418 C417 1.387 . S
C418 C419 1.369 . S
C418 H427 0.929 . S
C419 N416 1.346 . S
C419 C418 1.369 . S
C419 H422 0.928 . S
C420 N416 1.345 . S
C420 C421 1.371 . S
C420 H423 0.931 . S
C421 C417 1.391 . S
C421 C420 1.371 . S
C421 H428 0.930 . S
H422 C419 0.928 . S
H423 C420 0.931 . S
H424 C400 0.930 . S
H425 C397 0.930 . S
H426 C406 0.930 . S
H427 C418 0.929 . S
H428 C421 0.930 . S
C429 C430 1.351 . S
C429 N432 1.368 . S
C429 H434 0.931 . S
C430 C429 1.351 . S
C430 N431 1.373 . S
C430 H458 0.930 . S
N431 C430 1.373 . S
N431 C433 1.340 . S
N432 C429 1.368 . S
N432 C433 1.321 . S
N432 Co435 2.135 . S
C433 N431 1.340 . S
C433 N432 1.321 . S
C433 H457 0.930 . S
H434 C429 0.931 . S
Co435 N432 2.135 . S
Co435 N438 2.121 . S
Co435 O443 2.055 . S
Co435 O446 2.039 . S
Co435 N449 2.140 . S
C436 O437 1.227 . S
C436 O446 1.265 . S
O437 C436 1.227 . S
N438 Co435 2.121 . S
N438 C440 1.375 . S
N438 C441 1.313 . S
C439 C440 1.338 . S
C439 N442 1.377 . S
C439 H459 0.930 . S
C440 N438 1.375 . S
C440 C439 1.338 . S
C440 H444 0.931 . S
C441 N438 1.313 . S
C441 N442 1.344 . S
C441 H445 0.930 . S
N442 C439 1.377 . S
N442 C441 1.344 . S
O443 Co435 2.055 . S
O443 C447 1.253 . S
H444 C440 0.931 . S
H445 C441 0.930 . S
O446 Co435 2.039 . S
O446 C436 1.265 . S
C447 O443 1.253 . S
C447 O448 1.227 . S
O448 C447 1.227 . S
N449 Co435 2.140 . S
N449 C452 1.346 . S
N449 C453 1.345 . S
C450 C451 1.387 . S
C450 C454 1.391 . S
C451 C450 1.387 . S
C451 C452 1.369 . S
C451 H460 0.929 . S
C452 N449 1.346 . S
C452 C451 1.369 . S
C452 H455 0.928 . S
C453 N449 1.345 . S
C453 C454 1.371 . S
C453 H456 0.931 . S
C454 C450 1.391 . S
C454 C453 1.371 . S
C454 H461 0.930 . S
H455 C452 0.928 . S
H456 C453 0.931 . S
H457 C433 0.930 . S
H458 C430 0.930 . S
H459 C439 0.930 . S
H460 C451 0.929 . S
H461 C454 0.930 . S
C462 C463 1.351 . S
C462 N465 1.368 . S
C462 H467 0.931 . S
C463 C462 1.351 . S
C463 N464 1.373 . S
C463 H491 0.930 . S
N464 C463 1.373 . S
N464 C466 1.340 . S
N465 C462 1.368 . S
N465 C466 1.321 . S
N465 Co468 2.135 . S
C466 N464 1.340 . S
C466 N465 1.321 . S
C466 H490 0.930 . S
H467 C462 0.931 . S
Co468 N465 2.135 . S
Co468 N471 2.121 . S
Co468 O476 2.055 . S
Co468 O479 2.039 . S
Co468 N482 2.140 . S
C469 O470 1.227 . S
C469 O479 1.265 . S
O470 C469 1.227 . S
N471 Co468 2.121 . S
N471 C473 1.375 . S
N471 C474 1.313 . S
C472 C473 1.338 . S
C472 N475 1.377 . S
C472 H492 0.930 . S
C473 N471 1.375 . S
C473 C472 1.338 . S
C473 H477 0.931 . S
C474 N471 1.313 . S
C474 N475 1.344 . S
C474 H478 0.930 . S
N475 C472 1.377 . S
N475 C474 1.344 . S
O476 Co468 2.055 . S
O476 C480 1.253 . S
H477 C473 0.931 . S
H478 C474 0.930 . S
O479 Co468 2.039 . S
O479 C469 1.265 . S
C480 O476 1.253 . S
C480 O481 1.227 . S
O481 C480 1.227 . S
N482 Co468 2.140 . S
N482 C485 1.346 . S
N482 C486 1.345 . S
C483 C484 1.387 . S
C483 C487 1.391 . S
C484 C483 1.387 . S
C484 C485 1.369 . S
C484 H493 0.929 . S
C485 N482 1.346 . S
C485 C484 1.369 . S
C485 H488 0.928 . S
C486 N482 1.345 . S
C486 C487 1.371 . S
C486 H489 0.931 . S
C487 C483 1.391 . S
C487 C486 1.371 . S
C487 H494 0.930 . S
H488 C485 0.928 . S
H489 C486 0.931 . S
H490 C466 0.930 . S
H491 C463 0.930 . S
H492 C472 0.930 . S
H493 C484 0.929 . S
H494 C487 0.930 . S
C495 C496 1.351 . S
C495 N498 1.368 . S
C495 H500 0.931 . S
C496 C495 1.351 . S
C496 N497 1.373 . S
C496 H524 0.930 . S
N497 C496 1.373 . S
N497 C499 1.340 . S
N498 C495 1.368 . S
N498 C499 1.321 . S
N498 Co501 2.135 . S
C499 N497 1.340 . S
C499 N498 1.321 . S
C499 H523 0.930 . S
H500 C495 0.931 . S
Co501 N498 2.135 . S
Co501 N504 2.121 . S
Co501 O509 2.055 . S
Co501 O512 2.039 . S
Co501 N515 2.140 . S
C502 O503 1.227 . S
C502 O512 1.265 . S
O503 C502 1.227 . S
N504 Co501 2.121 . S
N504 C506 1.375 . S
N504 C507 1.313 . S
C505 C506 1.338 . S
C505 N508 1.377 . S
C505 H525 0.930 . S
C506 N504 1.375 . S
C506 C505 1.338 . S
C506 H510 0.931 . S
C507 N504 1.313 . S
C507 N508 1.344 . S
C507 H511 0.930 . S
N508 C505 1.377 . S
N508 C507 1.344 . S
O509 Co501 2.055 . S
O509 C513 1.253 . S
H510 C506 0.931 . S
H511 C507 0.930 . S
O512 Co501 2.039 . S
O512 C502 1.265 . S
C513 O509 1.253 . S
C513 O514 1.227 . S
O514 C513 1.227 . S
N515 Co501 2.140 . S
N515 C518 1.346 . S
N515 C519 1.345 . S
C516 C517 1.387 . S
C516 C520 1.391 . S
C517 C516 1.387 . S
C517 C518 1.369 . S
C517 H526 0.929 . S
C518 N515 1.346 . S
C518 C517 1.369 . S
C518 H521 0.928 . S
C519 N515 1.345 . S
C519 C520 1.371 . S
C519 H522 0.931 . S
C520 C516 1.391 . S
C520 C519 1.371 . S
C520 H527 0.930 . S
H521 C518 0.928 . S
H522 C519 0.931 . S
H523 C499 0.930 . S
H524 C496 0.930 . S
H525 C505 0.930 . S
H526 C517 0.929 . S
H527 C520 0.930 . S
C528 C529 1.351 . S
C528 N531 1.368 . S
C528 H533 0.931 . S
C529 C528 1.351 . S
C529 N530 1.373 . S
C529 H557 0.930 . S
N530 C529 1.373 . S
N530 C532 1.340 . S
N531 C528 1.368 . S
N531 C532 1.321 . S
N531 Co534 2.135 . S
C532 N530 1.340 . S
C532 N531 1.321 . S
C532 H556 0.930 . S
H533 C528 0.931 . S
Co534 N531 2.135 . S
Co534 N537 2.121 . S
Co534 O542 2.055 . S
Co534 O545 2.039 . S
Co534 N548 2.140 . S
C535 O536 1.227 . S
C535 O545 1.265 . S
O536 C535 1.227 . S
N537 Co534 2.121 . S
N537 C539 1.375 . S
N537 C540 1.313 . S
C538 C539 1.338 . S
C538 N541 1.377 . S
C538 H558 0.930 . S
C539 N537 1.375 . S
C539 C538 1.338 . S
C539 H543 0.931 . S
C540 N537 1.313 . S
C540 N541 1.344 . S
C540 H544 0.930 . S
N541 C538 1.377 . S
N541 C540 1.344 . S
O542 Co534 2.055 . S
O542 C546 1.253 . S
H543 C539 0.931 . S
H544 C540 0.930 . S
O545 Co534 2.039 . S
O545 C535 1.265 . S
C546 O542 1.253 . S
C546 O547 1.227 . S
O547 C546 1.227 . S
N548 Co534 2.140 . S
N548 C551 1.346 . S
N548 C552 1.345 . S
C549 C550 1.387 . S
C549 C553 1.391 . S
C550 C549 1.387 . S
C550 C551 1.369 . S
C550 H559 0.929 . S
C551 N548 1.346 . S
C551 C550 1.369 . S
C551 H554 0.928 . S
C552 N548 1.345 . S
C552 C553 1.371 . S
C552 H555 0.931 . S
C553 C549 1.391 . S
C553 C552 1.371 . S
C553 H560 0.930 . S
H554 C551 0.928 . S
H555 C552 0.931 . S
H556 C532 0.930 . S
H557 C529 0.930 . S
H558 C538 0.930 . S
H559 C550 0.929 . S
H560 C553 0.930 . S
C561 C562 1.351 . S
C561 N564 1.368 . S
C561 H566 0.931 . S
C562 C561 1.351 . S
C562 N563 1.373 . S
C562 H590 0.930 . S
N563 C562 1.373 . S
N563 C565 1.340 . S
N564 C561 1.368 . S
N564 C565 1.321 . S
N564 Co567 2.135 . S
C565 N563 1.340 . S
C565 N564 1.321 . S
C565 H589 0.930 . S
H566 C561 0.931 . S
Co567 N564 2.135 . S
Co567 N570 2.121 . S
Co567 O575 2.055 . S
Co567 O578 2.039 . S
Co567 N581 2.140 . S
C568 O569 1.227 . S
C568 O578 1.265 . S
O569 C568 1.227 . S
N570 Co567 2.121 . S
N570 C572 1.375 . S
N570 C573 1.313 . S
C571 C572 1.338 . S
C571 N574 1.377 . S
C571 H591 0.930 . S
C572 N570 1.375 . S
C572 C571 1.338 . S
C572 H576 0.931 . S
C573 N570 1.313 . S
C573 N574 1.344 . S
C573 H577 0.930 . S
N574 C571 1.377 . S
N574 C573 1.344 . S
O575 Co567 2.055 . S
O575 C579 1.253 . S
H576 C572 0.931 . S
H577 C573 0.930 . S
O578 Co567 2.039 . S
O578 C568 1.265 . S
C579 O575 1.253 . S
C579 O580 1.227 . S
O580 C579 1.227 . S
N581 Co567 2.140 . S
N581 C584 1.346 . S
N581 C585 1.345 . S
C582 C583 1.387 . S
C582 C586 1.391 . S
C583 C582 1.387 . S
C583 C584 1.369 . S
C583 H592 0.929 . S
C584 N581 1.346 . S
C584 C583 1.369 . S
C584 H587 0.928 . S
C585 N581 1.345 . S
C585 C586 1.371 . S
C585 H588 0.931 . S
C586 C582 1.391 . S
C586 C585 1.371 . S
C586 H593 0.930 . S
H587 C584 0.928 . S
H588 C585 0.931 . S
H589 C565 0.930 . S
H590 C562 0.930 . S
H591 C571 0.930 . S
H592 C583 0.929 . S
H593 C586 0.930 . S
C594 C595 1.351 . S
C594 N597 1.368 . S
C594 H599 0.931 . S
C595 C594 1.351 . S
C595 N596 1.373 . S
C595 H623 0.930 . S
N596 C595 1.373 . S
N596 C598 1.340 . S
N597 C594 1.368 . S
N597 C598 1.321 . S
N597 Co600 2.135 . S
C598 N596 1.340 . S
C598 N597 1.321 . S
C598 H622 0.930 . S
H599 C594 0.931 . S
Co600 N597 2.135 . S
Co600 N603 2.121 . S
Co600 O608 2.055 . S
Co600 O611 2.039 . S
Co600 N614 2.140 . S
C601 O602 1.227 . S
C601 O611 1.265 . S
O602 C601 1.227 . S
N603 Co600 2.121 . S
N603 C605 1.375 . S
N603 C606 1.313 . S
C604 C605 1.338 . S
C604 N607 1.377 . S
C604 H624 0.930 . S
C605 N603 1.375 . S
C605 C604 1.338 . S
C605 H609 0.931 . S
C606 N603 1.313 . S
C606 N607 1.344 . S
C606 H610 0.930 . S
N607 C604 1.377 . S
N607 C606 1.344 . S
O608 Co600 2.055 . S
O608 C612 1.253 . S
H609 C605 0.931 . S
H610 C606 0.930 . S
O611 Co600 2.039 . S
O611 C601 1.265 . S
C612 O608 1.253 . S
C612 O613 1.227 . S
O613 C612 1.227 . S
N614 Co600 2.140 . S
N614 C617 1.346 . S
N614 C618 1.345 . S
C615 C616 1.387 . S
C615 C619 1.391 . S
C616 C615 1.387 . S
C616 C617 1.369 . S
C616 H625 0.929 . S
C617 N614 1.346 . S
C617 C616 1.369 . S
C617 H620 0.928 . S
C618 N614 1.345 . S
C618 C619 1.371 . S
C618 H621 0.931 . S
C619 C615 1.391 . S
C619 C618 1.371 . S
C619 H626 0.930 . S
H620 C617 0.928 . S
H621 C618 0.931 . S
H622 C598 0.930 . S
H623 C595 0.930 . S
H624 C604 0.930 . S
H625 C616 0.929 . S
H626 C619 0.930 . S
C627 C628 1.351 . S
C627 N630 1.368 . S
C627 H632 0.931 . S
C628 C627 1.351 . S
C628 N629 1.373 . S
C628 H656 0.930 . S
N629 C628 1.373 . S
N629 C631 1.340 . S
N630 C627 1.368 . S
N630 C631 1.321 . S
N630 Co633 2.135 . S
C631 N629 1.340 . S
C631 N630 1.321 . S
C631 H655 0.930 . S
H632 C627 0.931 . S
Co633 N630 2.135 . S
Co633 N636 2.121 . S
Co633 O641 2.055 . S
Co633 O644 2.039 . S
Co633 N647 2.140 . S
C634 O635 1.227 . S
C634 O644 1.265 . S
O635 C634 1.227 . S
N636 Co633 2.121 . S
N636 C638 1.375 . S
N636 C639 1.313 . S
C637 C638 1.338 . S
C637 N640 1.377 . S
C637 H657 0.930 . S
C638 N636 1.375 . S
C638 C637 1.338 . S
C638 H642 0.931 . S
C639 N636 1.313 . S
C639 N640 1.344 . S
C639 H643 0.930 . S
N640 C637 1.377 . S
N640 C639 1.344 . S
O641 Co633 2.055 . S
O641 C645 1.253 . S
H642 C638 0.931 . S
H643 C639 0.930 . S
O644 Co633 2.039 . S
O644 C634 1.265 . S
C645 O641 1.253 . S
C645 O646 1.227 . S
O646 C645 1.227 . S
N647 Co633 2.140 . S
N647 C650 1.346 . S
N647 C651 1.345 . S
C648 C649 1.387 . S
C648 C652 1.391 . S
C649 C648 1.387 . S
C649 C650 1.369 . S
C649 H658 0.929 . S
C650 N647 1.346 . S
C650 C649 1.369 . S
C650 H653 0.928 . S
C651 N647 1.345 . S
C651 C652 1.371 . S
C651 H654 0.931 . S
C652 C648 1.391 . S
C652 C651 1.371 . S
C652 H659 0.930 . S
H653 C650 0.928 . S
H654 C651 0.931 . S
H655 C631 0.930 . S
H656 C628 0.930 . S
H657 C637 0.930 . S
H658 C649 0.929 . S
H659 C652 0.930 . S
C660 C661 1.351 . S
C660 N663 1.368 . S
C660 H665 0.931 . S
C661 C660 1.351 . S
C661 N662 1.373 . S
C661 H689 0.930 . S
N662 C661 1.373 . S
N662 C664 1.340 . S
N663 C660 1.368 . S
N663 C664 1.321 . S
N663 Co666 2.135 . S
C664 N662 1.340 . S
C664 N663 1.321 . S
C664 H688 0.930 . S
H665 C660 0.931 . S
Co666 N663 2.135 . S
Co666 N669 2.121 . S
Co666 O674 2.055 . S
Co666 O677 2.039 . S
Co666 N680 2.140 . S
C667 O668 1.227 . S
C667 O677 1.265 . S
O668 C667 1.227 . S
N669 Co666 2.121 . S
N669 C671 1.375 . S
N669 C672 1.313 . S
C670 C671 1.338 . S
C670 N673 1.377 . S
C670 H690 0.930 . S
C671 N669 1.375 . S
C671 C670 1.338 . S
C671 H675 0.931 . S
C672 N669 1.313 . S
C672 N673 1.344 . S
C672 H676 0.930 . S
N673 C670 1.377 . S
N673 C672 1.344 . S
O674 Co666 2.055 . S
O674 C678 1.253 . S
H675 C671 0.931 . S
H676 C672 0.930 . S
O677 Co666 2.039 . S
O677 C667 1.265 . S
C678 O674 1.253 . S
C678 O679 1.227 . S
O679 C678 1.227 . S
N680 Co666 2.140 . S
N680 C683 1.346 . S
N680 C684 1.345 . S
C681 C682 1.387 . S
C681 C685 1.391 . S
C682 C681 1.387 . S
C682 C683 1.369 . S
C682 H691 0.929 . S
C683 N680 1.346 . S
C683 C682 1.369 . S
C683 H686 0.928 . S
C684 N680 1.345 . S
C684 C685 1.371 . S
C684 H687 0.931 . S
C685 C681 1.391 . S
C685 C684 1.371 . S
C685 H692 0.930 . S
H686 C683 0.928 . S
H687 C684 0.931 . S
H688 C664 0.930 . S
H689 C661 0.930 . S
H690 C670 0.930 . S
H691 C682 0.929 . S
H692 C685 0.930 . S
C693 C694 1.351 . S
C693 N696 1.368 . S
C693 H698 0.931 . S
C694 C693 1.351 . S
C694 N695 1.373 . S
C694 H722 0.930 . S
N695 C694 1.373 . S
N695 C697 1.340 . S
N696 C693 1.368 . S
N696 C697 1.321 . S
N696 Co699 2.135 . S
C697 N695 1.340 . S
C697 N696 1.321 . S
C697 H721 0.930 . S
H698 C693 0.931 . S
Co699 N696 2.135 . S
Co699 N702 2.121 . S
Co699 O707 2.055 . S
Co699 O710 2.039 . S
Co699 N713 2.140 . S
C700 O701 1.227 . S
C700 O710 1.265 . S
O701 C700 1.227 . S
N702 Co699 2.121 . S
N702 C704 1.375 . S
N702 C705 1.313 . S
C703 C704 1.338 . S
C703 N706 1.377 . S
C703 H723 0.930 . S
C704 N702 1.375 . S
C704 C703 1.338 . S
C704 H708 0.931 . S
C705 N702 1.313 . S
C705 N706 1.344 . S
C705 H709 0.930 . S
N706 C703 1.377 . S
N706 C705 1.344 . S
O707 Co699 2.055 . S
O707 C711 1.253 . S
H708 C704 0.931 . S
H709 C705 0.930 . S
O710 Co699 2.039 . S
O710 C700 1.265 . S
C711 O707 1.253 . S
C711 O712 1.227 . S
O712 C711 1.227 . S
N713 Co699 2.140 . S
N713 C716 1.346 . S
N713 C717 1.345 . S
C714 C715 1.387 . S
C714 C718 1.391 . S
C715 C714 1.387 . S
C715 C716 1.369 . S
C715 H724 0.929 . S
C716 N713 1.346 . S
C716 C715 1.369 . S
C716 H719 0.928 . S
C717 N713 1.345 . S
C717 C718 1.371 . S
C717 H720 0.931 . S
C718 C714 1.391 . S
C718 C717 1.371 . S
C718 H725 0.930 . S
H719 C716 0.928 . S
H720 C717 0.931 . S
H721 C697 0.930 . S
H722 C694 0.930 . S
H723 C703 0.930 . S
H724 C715 0.929 . S
H725 C718 0.930 . S
C726 C727 1.351 . S
C726 N729 1.368 . S
C726 H731 0.931 . S
C727 C726 1.351 . S
C727 N728 1.373 . S
C727 H755 0.930 . S
N728 C727 1.373 . S
N728 C730 1.340 . S
N729 C726 1.368 . S
N729 C730 1.321 . S
N729 Co732 2.135 . S
C730 N728 1.340 . S
C730 N729 1.321 . S
C730 H754 0.930 . S
H731 C726 0.931 . S
Co732 N729 2.135 . S
Co732 N735 2.121 . S
Co732 O740 2.055 . S
Co732 O743 2.039 . S
Co732 N746 2.140 . S
C733 O734 1.227 . S
C733 O743 1.265 . S
O734 C733 1.227 . S
N735 Co732 2.121 . S
N735 C737 1.375 . S
N735 C738 1.313 . S
C736 C737 1.338 . S
C736 N739 1.377 . S
C736 H756 0.930 . S
C737 N735 1.375 . S
C737 C736 1.338 . S
C737 H741 0.931 . S
C738 N735 1.313 . S
C738 N739 1.344 . S
C738 H742 0.930 . S
N739 C736 1.377 . S
N739 C738 1.344 . S
O740 Co732 2.055 . S
O740 C744 1.253 . S
H741 C737 0.931 . S
H742 C738 0.930 . S
O743 Co732 2.039 . S
O743 C733 1.265 . S
C744 O740 1.253 . S
C744 O745 1.227 . S
O745 C744 1.227 . S
N746 Co732 2.140 . S
N746 C749 1.346 . S
N746 C750 1.345 . S
C747 C748 1.387 . S
C747 C751 1.391 . S
C748 C747 1.387 . S
C748 C749 1.369 . S
C748 H757 0.929 . S
C749 N746 1.346 . S
C749 C748 1.369 . S
C749 H752 0.928 . S
C750 N746 1.345 . S
C750 C751 1.371 . S
C750 H753 0.931 . S
C751 C747 1.391 . S
C751 C750 1.371 . S
C751 H758 0.930 . S
H752 C749 0.928 . S
H753 C750 0.931 . S
H754 C730 0.930 . S
H755 C727 0.930 . S
H756 C736 0.930 . S
H757 C748 0.929 . S
H758 C751 0.930 . S
C759 C760 1.351 . S
C759 N762 1.368 . S
C759 H764 0.931 . S
C760 C759 1.351 . S
C760 N761 1.373 . S
C760 H788 0.930 . S
N761 C760 1.373 . S
N761 C763 1.340 . S
N762 C759 1.368 . S
N762 C763 1.321 . S
N762 Co765 2.135 . S
C763 N761 1.340 . S
C763 N762 1.321 . S
C763 H787 0.930 . S
H764 C759 0.931 . S
Co765 N762 2.135 . S
Co765 N768 2.121 . S
Co765 O773 2.055 . S
Co765 O776 2.039 . S
Co765 N779 2.140 . S
C766 O767 1.227 . S
C766 O776 1.265 . S
O767 C766 1.227 . S
N768 Co765 2.121 . S
N768 C770 1.375 . S
N768 C771 1.313 . S
C769 C770 1.338 . S
C769 N772 1.377 . S
C769 H789 0.930 . S
C770 N768 1.375 . S
C770 C769 1.338 . S
C770 H774 0.931 . S
C771 N768 1.313 . S
C771 N772 1.344 . S
C771 H775 0.930 . S
N772 C769 1.377 . S
N772 C771 1.344 . S
O773 Co765 2.055 . S
O773 C777 1.253 . S
H774 C770 0.931 . S
H775 C771 0.930 . S
O776 Co765 2.039 . S
O776 C766 1.265 . S
C777 O773 1.253 . S
C777 O778 1.227 . S
O778 C777 1.227 . S
N779 Co765 2.140 . S
N779 C782 1.346 . S
N779 C783 1.345 . S
C780 C781 1.387 . S
C780 C784 1.391 . S
C781 C780 1.387 . S
C781 C782 1.369 . S
C781 H790 0.929 . S
C782 N779 1.346 . S
C782 C781 1.369 . S
C782 H785 0.928 . S
C783 N779 1.345 . S
C783 C784 1.371 . S
C783 H786 0.931 . S
C784 C780 1.391 . S
C784 C783 1.371 . S
C784 H791 0.930 . S
H785 C782 0.928 . S
H786 C783 0.931 . S
H787 C763 0.930 . S
H788 C760 0.930 . S
H789 C769 0.930 . S
H790 C781 0.929 . S
H791 C784 0.930 . S
C792 C793 1.351 . S
C792 N795 1.368 . S
C792 H797 0.931 . S
C793 C792 1.351 . S
C793 N794 1.373 . S
C793 H821 0.930 . S
N794 C793 1.373 . S
N794 C796 1.340 . S
N795 C792 1.368 . S
N795 C796 1.321 . S
N795 Co798 2.135 . S
C796 N794 1.340 . S
C796 N795 1.321 . S
C796 H820 0.930 . S
H797 C792 0.931 . S
Co798 N795 2.135 . S
Co798 N801 2.121 . S
Co798 O806 2.055 . S
Co798 O809 2.039 . S
Co798 N812 2.140 . S
C799 O800 1.227 . S
C799 O809 1.265 . S
O800 C799 1.227 . S
N801 Co798 2.121 . S
N801 C803 1.375 . S
N801 C804 1.313 . S
C802 C803 1.338 . S
C802 N805 1.377 . S
C802 H822 0.930 . S
C803 N801 1.375 . S
C803 C802 1.338 . S
C803 H807 0.931 . S
C804 N801 1.313 . S
C804 N805 1.344 . S
C804 H808 0.930 . S
N805 C802 1.377 . S
N805 C804 1.344 . S
O806 Co798 2.055 . S
O806 C810 1.253 . S
H807 C803 0.931 . S
H808 C804 0.930 . S
O809 Co798 2.039 . S
O809 C799 1.265 . S
C810 O806 1.253 . S
C810 O811 1.227 . S
O811 C810 1.227 . S
N812 Co798 2.140 . S
N812 C815 1.346 . S
N812 C816 1.345 . S
C813 C814 1.387 . S
C813 C817 1.391 . S
C814 C813 1.387 . S
C814 C815 1.369 . S
C814 H823 0.929 . S
C815 N812 1.346 . S
C815 C814 1.369 . S
C815 H818 0.928 . S
C816 N812 1.345 . S
C816 C817 1.371 . S
C816 H819 0.931 . S
C817 C813 1.391 . S
C817 C816 1.371 . S
C817 H824 0.930 . S
H818 C815 0.928 . S
H819 C816 0.931 . S
H820 C796 0.930 . S
H821 C793 0.930 . S
H822 C802 0.930 . S
H823 C814 0.929 . S
H824 C817 0.930 . S
C825 C826 1.351 . S
C825 N828 1.368 . S
C825 H830 0.931 . S
C826 C825 1.351 . S
C826 N827 1.373 . S
C826 H854 0.930 . S
N827 C826 1.373 . S
N827 C829 1.340 . S
N828 C825 1.368 . S
N828 C829 1.321 . S
N828 Co831 2.135 . S
C829 N827 1.340 . S
C829 N828 1.321 . S
C829 H853 0.930 . S
H830 C825 0.931 . S
Co831 N828 2.135 . S
Co831 N834 2.121 . S
Co831 O839 2.055 . S
Co831 O842 2.039 . S
Co831 N845 2.140 . S
C832 O833 1.227 . S
C832 O842 1.265 . S
O833 C832 1.227 . S
N834 Co831 2.121 . S
N834 C836 1.375 . S
N834 C837 1.313 . S
C835 C836 1.338 . S
C835 N838 1.377 . S
C835 H855 0.930 . S
C836 N834 1.375 . S
C836 C835 1.338 . S
C836 H840 0.931 . S
C837 N834 1.313 . S
C837 N838 1.344 . S
C837 H841 0.930 . S
N838 C835 1.377 . S
N838 C837 1.344 . S
O839 Co831 2.055 . S
O839 C843 1.253 . S
H840 C836 0.931 . S
H841 C837 0.930 . S
O842 Co831 2.039 . S
O842 C832 1.265 . S
C843 O839 1.253 . S
C843 O844 1.227 . S
O844 C843 1.227 . S
N845 Co831 2.140 . S
N845 C848 1.346 . S
N845 C849 1.345 . S
C846 C847 1.387 . S
C846 C850 1.391 . S
C847 C846 1.387 . S
C847 C848 1.369 . S
C847 H856 0.929 . S
C848 N845 1.346 . S
C848 C847 1.369 . S
C848 H851 0.928 . S
C849 N845 1.345 . S
C849 C850 1.371 . S
C849 H852 0.931 . S
C850 C846 1.391 . S
C850 C849 1.371 . S
C850 H857 0.930 . S
H851 C848 0.928 . S
H852 C849 0.931 . S
H853 C829 0.930 . S
H854 C826 0.930 . S
H855 C835 0.930 . S
H856 C847 0.929 . S
H857 C850 0.930 . S
C858 C859 1.351 . S
C858 N861 1.368 . S
C858 H863 0.931 . S
C859 C858 1.351 . S
C859 N860 1.373 . S
C859 H887 0.930 . S
N860 C859 1.373 . S
N860 C862 1.340 . S
N861 C858 1.368 . S
N861 C862 1.321 . S
N861 Co864 2.135 . S
C862 N860 1.340 . S
C862 N861 1.321 . S
C862 H886 0.930 . S
H863 C858 0.931 . S
Co864 N861 2.135 . S
Co864 N867 2.121 . S
Co864 O872 2.055 . S
Co864 O875 2.039 . S
Co864 N878 2.140 . S
C865 O866 1.227 . S
C865 O875 1.265 . S
O866 C865 1.227 . S
N867 Co864 2.121 . S
N867 C869 1.375 . S
N867 C870 1.313 . S
C868 C869 1.338 . S
C868 N871 1.377 . S
C868 H888 0.930 . S
C869 N867 1.375 . S
C869 C868 1.338 . S
C869 H873 0.931 . S
C870 N867 1.313 . S
C870 N871 1.344 . S
C870 H874 0.930 . S
N871 C868 1.377 . S
N871 C870 1.344 . S
O872 Co864 2.055 . S
O872 C876 1.253 . S
H873 C869 0.931 . S
H874 C870 0.930 . S
O875 Co864 2.039 . S
O875 C865 1.265 . S
C876 O872 1.253 . S
C876 O877 1.227 . S
O877 C876 1.227 . S
N878 Co864 2.140 . S
N878 C881 1.346 . S
N878 C882 1.345 . S
C879 C880 1.387 . S
C879 C883 1.391 . S
C880 C879 1.387 . S
C880 C881 1.369 . S
C880 H889 0.929 . S
C881 N878 1.346 . S
C881 C880 1.369 . S
C881 H884 0.928 . S
C882 N878 1.345 . S
C882 C883 1.371 . S
C882 H885 0.931 . S
C883 C879 1.391 . S
C883 C882 1.371 . S
C883 H890 0.930 . S
H884 C881 0.928 . S
H885 C882 0.931 . S
H886 C862 0.930 . S
H887 C859 0.930 . S
H888 C868 0.930 . S
H889 C880 0.929 . S
H890 C883 0.930 . S
C891 C892 1.351 . S
C891 N894 1.368 . S
C891 H896 0.931 . S
C892 C891 1.351 . S
C892 N893 1.373 . S
C892 H920 0.930 . S
N893 C892 1.373 . S
N893 C895 1.340 . S
N894 C891 1.368 . S
N894 C895 1.321 . S
N894 Co897 2.135 . S
C895 N893 1.340 . S
C895 N894 1.321 . S
C895 H919 0.930 . S
H896 C891 0.931 . S
Co897 N894 2.135 . S
Co897 N900 2.121 . S
Co897 O905 2.055 . S
Co897 O908 2.039 . S
Co897 N911 2.140 . S
C898 O899 1.227 . S
C898 O908 1.265 . S
O899 C898 1.227 . S
N900 Co897 2.121 . S
N900 C902 1.375 . S
N900 C903 1.313 . S
C901 C902 1.338 . S
C901 N904 1.377 . S
C901 H921 0.930 . S
C902 N900 1.375 . S
C902 C901 1.338 . S
C902 H906 0.931 . S
C903 N900 1.313 . S
C903 N904 1.344 . S
C903 H907 0.930 . S
N904 C901 1.377 . S
N904 C903 1.344 . S
O905 Co897 2.055 . S
O905 C909 1.253 . S
H906 C902 0.931 . S
H907 C903 0.930 . S
O908 Co897 2.039 . S
O908 C898 1.265 . S
C909 O905 1.253 . S
C909 O910 1.227 . S
O910 C909 1.227 . S
N911 Co897 2.140 . S
N911 C914 1.346 . S
N911 C915 1.345 . S
C912 C913 1.387 . S
C912 C916 1.391 . S
C913 C912 1.387 . S
C913 C914 1.369 . S
C913 H922 0.929 . S
C914 N911 1.346 . S
C914 C913 1.369 . S
C914 H917 0.928 . S
C915 N911 1.345 . S
C915 C916 1.371 . S
C915 H918 0.931 . S
C916 C912 1.391 . S
C916 C915 1.371 . S
C916 H923 0.930 . S
H917 C914 0.928 . S
H918 C915 0.931 . S
H919 C895 0.930 . S
H920 C892 0.930 . S
H921 C901 0.930 . S
H922 C913 0.929 . S
H923 C916 0.930 . S
C924 C925 1.351 . S
C924 N927 1.368 . S
C924 H929 0.931 . S
C925 C924 1.351 . S
C925 N926 1.373 . S
C925 H953 0.930 . S
N926 C925 1.373 . S
N926 C928 1.340 . S
N927 C924 1.368 . S
N927 C928 1.321 . S
N927 Co930 2.135 . S
C928 N926 1.340 . S
C928 N927 1.321 . S
C928 H952 0.930 . S
H929 C924 0.931 . S
Co930 N927 2.135 . S
Co930 N933 2.121 . S
Co930 O938 2.055 . S
Co930 O941 2.039 . S
Co930 N944 2.140 . S
C931 O932 1.227 . S
C931 O941 1.265 . S
O932 C931 1.227 . S
N933 Co930 2.121 . S
N933 C935 1.375 . S
N933 C936 1.313 . S
C934 C935 1.338 . S
C934 N937 1.377 . S
C934 H954 0.930 . S
C935 N933 1.375 . S
C935 C934 1.338 . S
C935 H939 0.931 . S
C936 N933 1.313 . S
C936 N937 1.344 . S
C936 H940 0.930 . S
N937 C934 1.377 . S
N937 C936 1.344 . S
O938 Co930 2.055 . S
O938 C942 1.253 . S
H939 C935 0.931 . S
H940 C936 0.930 . S
O941 Co930 2.039 . S
O941 C931 1.265 . S
C942 O938 1.253 . S
C942 O943 1.227 . S
O943 C942 1.227 . S
N944 Co930 2.140 . S
N944 C947 1.346 . S
N944 C948 1.345 . S
C945 C946 1.387 . S
C945 C949 1.391 . S
C946 C945 1.387 . S
C946 C947 1.369 . S
C946 H955 0.929 . S
C947 N944 1.346 . S
C947 C946 1.369 . S
C947 H950 0.928 . S
C948 N944 1.345 . S
C948 C949 1.371 . S
C948 H951 0.931 . S
C949 C945 1.391 . S
C949 C948 1.371 . S
C949 H956 0.930 . S
H950 C947 0.928 . S
H951 C948 0.931 . S
H952 C928 0.930 . S
H953 C925 0.930 . S
H954 C934 0.930 . S
H955 C946 0.929 . S
H956 C949 0.930 . S
C957 C958 1.351 . S
C957 N960 1.368 . S
C957 H962 0.931 . S
C958 C957 1.351 . S
C958 N959 1.373 . S
C958 H986 0.930 . S
N959 C958 1.373 . S
N959 C961 1.340 . S
N960 C957 1.368 . S
N960 C961 1.321 . S
N960 Co963 2.135 . S
C961 N959 1.340 . S
C961 N960 1.321 . S
C961 H985 0.930 . S
H962 C957 0.931 . S
Co963 N960 2.135 . S
Co963 N966 2.121 . S
Co963 O971 2.055 . S
Co963 O974 2.039 . S
Co963 N977 2.140 . S
C964 O965 1.227 . S
C964 O974 1.265 . S
O965 C964 1.227 . S
N966 Co963 2.121 . S
N966 C968 1.375 . S
N966 C969 1.313 . S
C967 C968 1.338 . S
C967 N970 1.377 . S
C967 H987 0.930 . S
C968 N966 1.375 . S
C968 C967 1.338 . S
C968 H972 0.931 . S
C969 N966 1.313 . S
C969 N970 1.344 . S
C969 H973 0.930 . S
N970 C967 1.377 . S
N970 C969 1.344 . S
O971 Co963 2.055 . S
O971 C975 1.253 . S
H972 C968 0.931 . S
H973 C969 0.930 . S
O974 Co963 2.039 . S
O974 C964 1.265 . S
C975 O971 1.253 . S
C975 O976 1.227 . S
O976 C975 1.227 . S
N977 Co963 2.140 . S
N977 C980 1.346 . S
N977 C981 1.345 . S
C978 C979 1.387 . S
C978 C982 1.391 . S
C979 C978 1.387 . S
C979 C980 1.369 . S
C979 H988 0.929 . S
C980 N977 1.346 . S
C980 C979 1.369 . S
C980 H983 0.928 . S
C981 N977 1.345 . S
C981 C982 1.371 . S
C981 H984 0.931 . S
C982 C978 1.391 . S
C982 C981 1.371 . S
C982 H989 0.930 . S
H983 C980 0.928 . S
H984 C981 0.931 . S
H985 C961 0.930 . S
H986 C958 0.930 . S
H987 C967 0.930 . S
H988 C979 0.929 . S
H989 C982 0.930 . S
C990 C991 1.351 . S
C990 N993 1.368 . S
C990 H995 0.931 . S
C991 C990 1.351 . S
C991 N992 1.373 . S
C991 H1019 0.930 . S
N992 C991 1.373 . S
N992 C994 1.340 . S
N993 C990 1.368 . S
N993 C994 1.321 . S
N993 Co996 2.135 . S
C994 N992 1.340 . S
C994 N993 1.321 . S
C994 H1018 0.930 . S
H995 C990 0.931 . S
Co996 N993 2.135 . S
Co996 N999 2.121 . S
Co996 O1004 2.055 . S
Co996 O1007 2.039 . S
Co996 N1010 2.140 . S
C997 O998 1.227 . S
C997 O1007 1.265 . S
O998 C997 1.227 . S
N999 Co996 2.121 . S
N999 C1001 1.375 . S
N999 C1002 1.313 . S
C1000 C1001 1.338 . S
C1000 N1003 1.377 . S
C1000 H1020 0.930 . S
C1001 N999 1.375 . S
C1001 C1000 1.338 . S
C1001 H1005 0.931 . S
C1002 N999 1.313 . S
C1002 N1003 1.344 . S
C1002 H1006 0.930 . S
N1003 C1000 1.377 . S
N1003 C1002 1.344 . S
O1004 Co996 2.055 . S
O1004 C1008 1.253 . S
H1005 C1001 0.931 . S
H1006 C1002 0.930 . S
O1007 Co996 2.039 . S
O1007 C997 1.265 . S
C1008 O1004 1.253 . S
C1008 O1009 1.227 . S
O1009 C1008 1.227 . S
N1010 Co996 2.140 . S
N1010 C1013 1.346 . S
N1010 C1014 1.345 . S
C1011 C1012 1.387 . S
C1011 C1015 1.391 . S
C1012 C1011 1.387 . S
C1012 C1013 1.369 . S
C1012 H1021 0.929 . S
C1013 N1010 1.346 . S
C1013 C1012 1.369 . S
C1013 H1016 0.928 . S
C1014 N1010 1.345 . S
C1014 C1015 1.371 . S
C1014 H1017 0.931 . S
C1015 C1011 1.391 . S
C1015 C1014 1.371 . S
C1015 H1022 0.930 . S
H1016 C1013 0.928 . S
H1017 C1014 0.931 . S
H1018 C994 0.930 . S
H1019 C991 0.930 . S
H1020 C1000 0.930 . S
H1021 C1012 0.929 . S
H1022 C1015 0.930 . S
C1023 C1024 1.351 . S
C1023 N1026 1.368 . S
C1023 H1028 0.931 . S
C1024 C1023 1.351 . S
C1024 N1025 1.373 . S
C1024 H1052 0.930 . S
N1025 C1024 1.373 . S
N1025 C1027 1.340 . S
N1026 C1023 1.368 . S
N1026 C1027 1.321 . S
N1026 Co1029 2.135 . S
C1027 N1025 1.340 . S
C1027 N1026 1.321 . S
C1027 H1051 0.930 . S
H1028 C1023 0.931 . S
Co1029 N1026 2.135 . S
Co1029 N1032 2.121 . S
Co1029 O1037 2.055 . S
Co1029 O1040 2.039 . S
Co1029 N1043 2.140 . S
C1030 O1031 1.227 . S
C1030 O1040 1.265 . S
O1031 C1030 1.227 . S
N1032 Co1029 2.121 . S
N1032 C1034 1.375 . S
N1032 C1035 1.313 . S
C1033 C1034 1.338 . S
C1033 N1036 1.377 . S
C1033 H1053 0.930 . S
C1034 N1032 1.375 . S
C1034 C1033 1.338 . S
C1034 H1038 0.931 . S
C1035 N1032 1.313 . S
C1035 N1036 1.344 . S
C1035 H1039 0.930 . S
N1036 C1033 1.377 . S
N1036 C1035 1.344 . S
O1037 Co1029 2.055 . S
O1037 C1041 1.253 . S
H1038 C1034 0.931 . S
H1039 C1035 0.930 . S
O1040 Co1029 2.039 . S
O1040 C1030 1.265 . S
C1041 O1037 1.253 . S
C1041 O1042 1.227 . S
O1042 C1041 1.227 . S
N1043 Co1029 2.140 . S
N1043 C1046 1.346 . S
N1043 C1047 1.345 . S
C1044 C1045 1.387 . S
C1044 C1048 1.391 . S
C1045 C1044 1.387 . S
C1045 C1046 1.369 . S
C1045 H1054 0.929 . S
C1046 N1043 1.346 . S
C1046 C1045 1.369 . S
C1046 H1049 0.928 . S
C1047 N1043 1.345 . S
C1047 C1048 1.371 . S
C1047 H1050 0.931 . S
C1048 C1044 1.391 . S
C1048 C1047 1.371 . S
C1048 H1055 0.930 . S
H1049 C1046 0.928 . S
H1050 C1047 0.931 . S
H1051 C1027 0.930 . S
H1052 C1024 0.930 . S
H1053 C1033 0.930 . S
H1054 C1045 0.929 . S
H1055 C1048 0.930 . S
H1056 C1064 0.929 . S
H1057 C1066 0.930 . S
H1058 C1068 0.930 . S
H1059 C1071 0.929 . S
H1060 C1074 0.930 . S
H1061 C1076 0.960 . S
H1062 C1076 0.960 . S
H1063 C1076 0.960 . S
C1064 H1056 0.929 . S
C1064 C1065 1.377 . S
C1064 C1066 1.384 1_556 S
C1065 C1064 1.377 . S
C1065 C1071 1.390 . S
C1066 H1057 0.930 . S
C1066 C1064 1.384 1_554 S
C1066 C1067 1.372 . S
C1067 C1066 1.372 . S
C1067 C1068 1.400 . S
C1067 C1072 1.490 . S
C1068 H1058 0.930 . S
C1068 C1067 1.400 . S
C1068 C1071 1.386 1_554 S
H1069 C1085 0.930 . S
H1070 C1086 0.931 . S
C1071 H1059 0.929 . S
C1071 C1065 1.390 . S
C1071 C1068 1.386 1_556 S
C1072 C1067 1.490 . S
C1072 C1074 1.395 . S
C1072 C1075 1.403 . S
H1073 C1079 0.930 . S
C1074 H1060 0.930 . S
C1074 C1072 1.395 . S
C1074 C1077 1.403 . S
C1075 C1072 1.403 . S
C1075 C1076 1.524 . S
C1075 C1079 1.400 . S
C1076 H1061 0.960 . S
C1076 H1062 0.960 . S
C1076 H1063 0.960 . S
C1076 C1075 1.524 . S
C1077 C1074 1.403 . S
C1077 C1078 1.392 . S
C1077 C1081 1.495 . S
C1078 C1077 1.392 . S
C1078 C1079 1.385 . S
C1078 C1080 1.478 . S
C1079 H1073 0.930 . S
C1079 C1075 1.400 . S
C1079 C1078 1.385 . S
C1080 C1078 1.478 . S
C1080 C1082 1.381 . S
C1080 C1086 1.383 . S
C1081 C1077 1.495 . S
C1081 H1087 0.959 . S
C1081 H1088 0.961 . S
C1081 H1089 0.960 . S
C1082 C1080 1.381 . S
C1082 C1083 1.394 . S
C1082 H1090 0.930 . S
C1083 C1082 1.394 . S
C1083 C1084 1.383 . S
C1083 H1091 0.929 . S
C1084 C1083 1.383 . S
C1084 C1085 1.377 . S
C1085 H1069 0.930 . S
C1085 C1084 1.377 . S
C1085 C1086 1.379 . S
C1086 H1070 0.931 . S
C1086 C1080 1.383 . S
C1086 C1085 1.379 . S
H1087 C1081 0.959 . S
H1088 C1081 0.961 . S
H1089 C1081 0.960 . S
H1090 C1082 0.930 . S
H1091 C1083 0.929 . S
H1092 C1100 0.929 . S
H1093 C1102 0.930 . S
H1094 C1104 0.930 . S
H1095 C1107 0.929 . S
H1096 C1110 0.930 . S
H1097 C1112 0.960 . S
H1098 C1112 0.960 . S
H1099 C1112 0.960 . S
C1100 H1092 0.929 . S
C1100 C1101 1.377 . S
C1100 C1102 1.384 . S
C1101 C1100 1.377 . S
C1101 C1107 1.390 . S
C1102 H1093 0.930 . S
C1102 C1100 1.384 . S
C1102 C1103 1.372 . S
C1103 C1102 1.372 . S
C1103 C1104 1.400 . S
C1103 C1108 1.490 . S
C1104 H1094 0.930 . S
C1104 C1103 1.400 . S
C1104 C1107 1.386 . S
H1105 C1121 0.930 . S
H1106 C1122 0.931 . S
C1107 H1095 0.929 . S
C1107 C1101 1.390 . S
C1107 C1104 1.386 . S
C1108 C1103 1.490 . S
C1108 C1110 1.395 . S
C1108 C1111 1.403 . S
H1109 C1115 0.930 . S
C1110 H1096 0.930 . S
C1110 C1108 1.395 . S
C1110 C1113 1.403 . S
C1111 C1108 1.403 . S
C1111 C1112 1.524 . S
C1111 C1115 1.400 . S
C1112 H1097 0.960 . S
C1112 H1098 0.960 . S
C1112 H1099 0.960 . S
C1112 C1111 1.524 . S
C1113 C1110 1.403 . S
C1113 C1114 1.392 . S
C1113 C1117 1.495 . S
C1114 C1113 1.392 . S
C1114 C1115 1.385 . S
C1114 C1116 1.478 . S
C1115 H1109 0.930 . S
C1115 C1111 1.400 . S
C1115 C1114 1.385 . S
C1116 C1114 1.478 . S
C1116 C1118 1.381 . S
C1116 C1122 1.383 . S
C1117 C1113 1.495 . S
C1117 H1123 0.959 . S
C1117 H1124 0.961 . S
C1117 H1125 0.960 . S
C1118 C1116 1.381 . S
C1118 C1119 1.394 . S
C1118 H1126 0.930 . S
C1119 C1118 1.394 . S
C1119 C1120 1.383 . S
C1119 H1127 0.929 . S
C1120 C1119 1.383 . S
C1120 C1121 1.377 . S
C1121 H1105 0.930 . S
C1121 C1120 1.377 . S
C1121 C1122 1.379 . S
C1122 H1106 0.931 . S
C1122 C1116 1.383 . S
C1122 C1121 1.379 . S
H1123 C1117 0.959 . S
H1124 C1117 0.961 . S
H1125 C1117 0.960 . S
H1126 C1118 0.930 . S
H1127 C1119 0.929 . S
H1128 C1136 0.929 . S
H1129 C1138 0.930 . S
H1130 C1140 0.930 . S
H1131 C1143 0.929 . S
H1132 C1146 0.930 . S
H1133 C1148 0.960 . S
H1134 C1148 0.960 . S
H1135 C1148 0.960 . S
C1136 H1128 0.929 . S
C1136 C1137 1.377 . S
C1136 C1138 1.384 . S
C1137 C1136 1.377 . S
C1137 C1143 1.390 . S
C1138 H1129 0.930 . S
C1138 C1136 1.384 . S
C1138 C1139 1.372 . S
C1139 C1138 1.372 . S
C1139 C1140 1.400 . S
C1139 C1144 1.490 . S
C1140 H1130 0.930 . S
C1140 C1139 1.400 . S
C1140 C1143 1.386 . S
H1141 C1157 0.930 . S
H1142 C1158 0.931 . S
C1143 H1131 0.929 . S
C1143 C1137 1.390 . S
C1143 C1140 1.386 . S
C1144 C1139 1.490 . S
C1144 C1146 1.395 . S
C1144 C1147 1.403 . S
H1145 C1151 0.930 . S
C1146 H1132 0.930 . S
C1146 C1144 1.395 . S
C1146 C1149 1.403 . S
C1147 C1144 1.403 . S
C1147 C1148 1.524 . S
C1147 C1151 1.400 . S
C1148 H1133 0.960 . S
C1148 H1134 0.960 . S
C1148 H1135 0.960 . S
C1148 C1147 1.524 . S
C1149 C1146 1.403 . S
C1149 C1150 1.392 . S
C1149 C1153 1.495 . S
C1150 C1149 1.392 . S
C1150 C1151 1.385 . S
C1150 C1152 1.478 . S
C1151 H1145 0.930 . S
C1151 C1147 1.400 . S
C1151 C1150 1.385 . S
C1152 C1150 1.478 . S
C1152 C1154 1.381 . S
C1152 C1158 1.383 . S
C1153 C1149 1.495 . S
C1153 H1159 0.959 . S
C1153 H1160 0.961 . S
C1153 H1161 0.960 . S
C1154 C1152 1.381 . S
C1154 C1155 1.394 . S
C1154 H1162 0.930 . S
C1155 C1154 1.394 . S
C1155 C1156 1.383 . S
C1155 H1163 0.929 . S
C1156 C1155 1.383 . S
C1156 C1157 1.377 . S
C1157 H1141 0.930 . S
C1157 C1156 1.377 . S
C1157 C1158 1.379 . S
C1158 H1142 0.931 . S
C1158 C1152 1.383 . S
C1158 C1157 1.379 . S
H1159 C1153 0.959 . S
H1160 C1153 0.961 . S
H1161 C1153 0.960 . S
H1162 C1154 0.930 . S
H1163 C1155 0.929 . S
H1164 C1172 0.929 . S
H1165 C1174 0.930 . S
H1166 C1176 0.930 . S
H1167 C1179 0.929 . S
H1168 C1182 0.930 . S
H1169 C1184 0.960 . S
H1170 C1184 0.960 . S
H1171 C1184 0.960 . S
C1172 H1164 0.929 . S
C1172 C1173 1.377 . S
C1172 C1174 1.384 . S
C1173 C1172 1.377 . S
C1173 C1179 1.390 . S
C1174 H1165 0.930 . S
C1174 C1172 1.384 . S
C1174 C1175 1.372 . S
C1175 C1174 1.372 . S
C1175 C1176 1.400 . S
C1175 C1180 1.490 . S
C1176 H1166 0.930 . S
C1176 C1175 1.400 . S
C1176 C1179 1.386 . S
H1177 C1193 0.930 . S
H1178 C1194 0.931 . S
C1179 H1167 0.929 . S
C1179 C1173 1.390 . S
C1179 C1176 1.386 . S
C1180 C1175 1.490 . S
C1180 C1182 1.395 . S
C1180 C1183 1.403 . S
H1181 C1187 0.930 . S
C1182 H1168 0.930 . S
C1182 C1180 1.395 . S
C1182 C1185 1.403 . S
C1183 C1180 1.403 . S
C1183 C1184 1.524 . S
C1183 C1187 1.400 . S
C1184 H1169 0.960 . S
C1184 H1170 0.960 . S
C1184 H1171 0.960 . S
C1184 C1183 1.524 . S
C1185 C1182 1.403 . S
C1185 C1186 1.392 . S
C1185 C1189 1.495 . S
C1186 C1185 1.392 . S
C1186 C1187 1.385 . S
C1186 C1188 1.478 . S
C1187 H1181 0.930 . S
C1187 C1183 1.400 . S
C1187 C1186 1.385 . S
C1188 C1186 1.478 . S
C1188 C1190 1.381 . S
C1188 C1194 1.383 . S
C1189 C1185 1.495 . S
C1189 H1195 0.959 . S
C1189 H1196 0.961 . S
C1189 H1197 0.960 . S
C1190 C1188 1.381 . S
C1190 C1191 1.394 1_556 S
C1190 H1198 0.930 . S
C1191 C1190 1.394 1_554 S
C1191 C1192 1.383 . S
C1191 H1199 0.929 . S
C1192 C1191 1.383 . S
C1192 C1193 1.377 . S
C1193 H1177 0.930 . S
C1193 C1192 1.377 . S
C1193 C1194 1.379 1_554 S
C1194 H1178 0.931 . S
C1194 C1188 1.383 . S
C1194 C1193 1.379 1_556 S
H1195 C1189 0.959 . S
H1196 C1189 0.961 . S
H1197 C1189 0.960 . S
H1198 C1190 0.930 . S
H1199 C1191 0.929 . S
H1200 C1208 0.929 . S
H1201 C1210 0.930 . S
H1202 C1212 0.930 . S
H1203 C1215 0.929 . S
H1204 C1218 0.930 . S
H1205 C1220 0.960 . S
H1206 C1220 0.960 . S
H1207 C1220 0.960 . S
C1208 H1200 0.929 . S
C1208 C1209 1.377 . S
C1208 C1210 1.384 . S
C1209 C1208 1.377 . S
C1209 C1215 1.390 . S
C1210 H1201 0.930 . S
C1210 C1208 1.384 . S
C1210 C1211 1.372 . S
C1211 C1210 1.372 . S
C1211 C1212 1.400 . S
C1211 C1216 1.490 . S
C1212 H1202 0.930 . S
C1212 C1211 1.400 . S
C1212 C1215 1.386 . S
H1213 C1229 0.930 . S
H1214 C1230 0.931 . S
C1215 H1203 0.929 . S
C1215 C1209 1.390 . S
C1215 C1212 1.386 . S
C1216 C1211 1.490 . S
C1216 C1218 1.395 . S
C1216 C1219 1.403 . S
H1217 C1223 0.930 . S
C1218 H1204 0.930 . S
C1218 C1216 1.395 . S
C1218 C1221 1.403 . S
C1219 C1216 1.403 . S
C1219 C1220 1.524 . S
C1219 C1223 1.400 . S
C1220 H1205 0.960 . S
C1220 H1206 0.960 . S
C1220 H1207 0.960 . S
C1220 C1219 1.524 . S
C1221 C1218 1.403 . S
C1221 C1222 1.392 . S
C1221 C1225 1.495 . S
C1222 C1221 1.392 . S
C1222 C1223 1.385 . S
C1222 C1224 1.478 . S
C1223 H1217 0.930 . S
C1223 C1219 1.400 . S
C1223 C1222 1.385 . S
C1224 C1222 1.478 . S
C1224 C1226 1.381 . S
C1224 C1230 1.383 . S
C1225 C1221 1.495 . S
C1225 H1231 0.959 . S
C1225 H1232 0.961 . S
C1225 H1233 0.960 . S
C1226 C1224 1.381 . S
C1226 C1227 1.394 1_556 S
C1226 H1234 0.930 . S
C1227 C1226 1.394 1_554 S
C1227 C1228 1.383 . S
C1227 H1235 0.929 . S
C1228 C1227 1.383 . S
C1228 C1229 1.377 . S
C1229 H1213 0.930 . S
C1229 C1228 1.377 . S
C1229 C1230 1.379 1_554 S
C1230 H1214 0.931 . S
C1230 C1224 1.383 . S
C1230 C1229 1.379 1_556 S
H1231 C1225 0.959 . S
H1232 C1225 0.961 . S
H1233 C1225 0.960 . S
H1234 C1226 0.930 . S
H1235 C1227 0.929 . S
H1236 C1244 0.929 . S
H1237 C1246 0.930 . S
H1238 C1248 0.930 . S
H1239 C1251 0.929 . S
H1240 C1254 0.930 . S
H1241 C1256 0.960 . S
H1242 C1256 0.960 . S
H1243 C1256 0.960 . S
C1244 H1236 0.929 . S
C1244 C1245 1.377 . S
C1244 C1246 1.384 . S
C1245 C1244 1.377 . S
C1245 C1251 1.390 . S
C1246 H1237 0.930 . S
C1246 C1244 1.384 . S
C1246 C1247 1.372 . S
C1247 C1246 1.372 . S
C1247 C1248 1.400 . S
C1247 C1252 1.490 . S
C1248 H1238 0.930 . S
C1248 C1247 1.400 . S
C1248 C1251 1.386 . S
H1249 C1265 0.930 . S
H1250 C1266 0.931 . S
C1251 H1239 0.929 . S
C1251 C1245 1.390 . S
C1251 C1248 1.386 . S
C1252 C1247 1.490 . S
C1252 C1254 1.395 . S
C1252 C1255 1.403 . S
H1253 C1259 0.930 . S
C1254 H1240 0.930 . S
C1254 C1252 1.395 . S
C1254 C1257 1.403 . S
C1255 C1252 1.403 . S
C1255 C1256 1.524 . S
C1255 C1259 1.400 . S
C1256 H1241 0.960 . S
C1256 H1242 0.960 . S
C1256 H1243 0.960 . S
C1256 C1255 1.524 . S
C1257 C1254 1.403 . S
C1257 C1258 1.392 . S
C1257 C1261 1.495 . S
C1258 C1257 1.392 . S
C1258 C1259 1.385 . S
C1258 C1260 1.478 . S
C1259 H1253 0.930 . S
C1259 C1255 1.400 . S
C1259 C1258 1.385 . S
C1260 C1258 1.478 . S
C1260 C1262 1.381 . S
C1260 C1266 1.383 . S
C1261 C1257 1.495 . S
C1261 H1267 0.959 . S
C1261 H1268 0.961 . S
C1261 H1269 0.960 . S
C1262 C1260 1.381 . S
C1262 C1263 1.394 . S
C1262 H1270 0.930 . S
C1263 C1262 1.394 . S
C1263 C1264 1.383 . S
C1263 H1271 0.929 . S
C1264 C1263 1.383 . S
C1264 C1265 1.377 . S
C1265 H1249 0.930 . S
C1265 C1264 1.377 . S
C1265 C1266 1.379 . S
C1266 H1250 0.931 . S
C1266 C1260 1.383 . S
C1266 C1265 1.379 . S
H1267 C1261 0.959 . S
H1268 C1261 0.961 . S
H1269 C1261 0.960 . S
H1270 C1262 0.930 . S
H1271 C1263 0.929 . S
H1272 C1280 0.929 . S
H1273 C1282 0.930 . S
H1274 C1284 0.930 . S
H1275 C1287 0.929 . S
H1276 C1290 0.930 . S
H1277 C1292 0.960 . S
H1278 C1292 0.960 . S
H1279 C1292 0.960 . S
C1280 H1272 0.929 . S
C1280 C1281 1.377 . S
C1280 C1282 1.384 . S
C1281 C1280 1.377 . S
C1281 C1287 1.390 . S
C1282 H1273 0.930 . S
C1282 C1280 1.384 . S
C1282 C1283 1.372 . S
C1283 C1282 1.372 . S
C1283 C1284 1.400 . S
C1283 C1288 1.490 . S
C1284 H1274 0.930 . S
C1284 C1283 1.400 . S
C1284 C1287 1.386 . S
H1285 C1301 0.930 . S
H1286 C1302 0.931 . S
C1287 H1275 0.929 . S
C1287 C1281 1.390 . S
C1287 C1284 1.386 . S
C1288 C1283 1.490 . S
C1288 C1290 1.395 . S
C1288 C1291 1.403 . S
H1289 C1295 0.930 . S
C1290 H1276 0.930 . S
C1290 C1288 1.395 . S
C1290 C1293 1.403 . S
C1291 C1288 1.403 . S
C1291 C1292 1.524 . S
C1291 C1295 1.400 . S
C1292 H1277 0.960 . S
C1292 H1278 0.960 . S
C1292 H1279 0.960 . S
C1292 C1291 1.524 . S
C1293 C1290 1.403 . S
C1293 C1294 1.392 . S
C1293 C1297 1.495 . S
C1294 C1293 1.392 . S
C1294 C1295 1.385 . S
C1294 C1296 1.478 . S
C1295 H1289 0.930 . S
C1295 C1291 1.400 . S
C1295 C1294 1.385 . S
C1296 C1294 1.478 . S
C1296 C1298 1.381 . S
C1296 C1302 1.383 . S
C1297 C1293 1.495 . S
C1297 H1303 0.959 . S
C1297 H1304 0.961 . S
C1297 H1305 0.960 . S
C1298 C1296 1.381 . S
C1298 C1299 1.394 . S
C1298 H1306 0.930 . S
C1299 C1298 1.394 . S
C1299 C1300 1.383 . S
C1299 H1307 0.929 . S
C1300 C1299 1.383 . S
C1300 C1301 1.377 . S
C1301 H1285 0.930 . S
C1301 C1300 1.377 . S
C1301 C1302 1.379 . S
C1302 H1286 0.931 . S
C1302 C1296 1.383 . S
C1302 C1301 1.379 . S
H1303 C1297 0.959 . S
H1304 C1297 0.961 . S
H1305 C1297 0.960 . S
H1306 C1298 0.930 . S
H1307 C1299 0.929 . S
H1308 C1316 0.929 . S
H1309 C1318 0.930 . S
H1310 C1320 0.930 . S
H1311 C1323 0.929 . S
H1312 C1326 0.930 . S
H1313 C1328 0.960 . S
H1314 C1328 0.960 . S
H1315 C1328 0.960 . S
C1316 H1308 0.929 . S
C1316 C1317 1.377 . S
C1316 C1318 1.384 . S
C1317 C1316 1.377 . S
C1317 C1323 1.390 . S
C1318 H1309 0.930 . S
C1318 C1316 1.384 . S
C1318 C1319 1.372 . S
C1319 C1318 1.372 . S
C1319 C1320 1.400 . S
C1319 C1324 1.490 . S
C1320 H1310 0.930 . S
C1320 C1319 1.400 . S
C1320 C1323 1.386 . S
H1321 C1337 0.930 . S
H1322 C1338 0.931 . S
C1323 H1311 0.929 . S
C1323 C1317 1.390 . S
C1323 C1320 1.386 . S
C1324 C1319 1.490 . S
C1324 C1326 1.395 . S
C1324 C1327 1.403 . S
H1325 C1331 0.930 . S
C1326 H1312 0.930 . S
C1326 C1324 1.395 . S
C1326 C1329 1.403 . S
C1327 C1324 1.403 . S
C1327 C1328 1.524 . S
C1327 C1331 1.400 . S
C1328 H1313 0.960 . S
C1328 H1314 0.960 . S
C1328 H1315 0.960 . S
C1328 C1327 1.524 . S
C1329 C1326 1.403 . S
C1329 C1330 1.392 . S
C1329 C1333 1.495 . S
C1330 C1329 1.392 . S
C1330 C1331 1.385 . S
C1330 C1332 1.478 . S
C1331 H1325 0.930 . S
C1331 C1327 1.400 . S
C1331 C1330 1.385 . S
C1332 C1330 1.478 . S
C1332 C1334 1.381 . S
C1332 C1338 1.383 . S
C1333 C1329 1.495 . S
C1333 H1339 0.959 . S
C1333 H1340 0.961 . S
C1333 H1341 0.960 . S
C1334 C1332 1.381 . S
C1334 C1335 1.394 1_554 S
C1334 H1342 0.930 . S
C1335 C1334 1.394 1_556 S
C1335 C1336 1.383 . S
C1335 H1343 0.929 . S
C1336 C1335 1.383 . S
C1336 C1337 1.377 . S
C1337 H1321 0.930 . S
C1337 C1336 1.377 . S
C1337 C1338 1.379 1_556 S
C1338 H1322 0.931 . S
C1338 C1332 1.383 . S
C1338 C1337 1.379 1_554 S
H1339 C1333 0.959 . S
H1340 C1333 0.961 . S
H1341 C1333 0.960 . S
H1342 C1334 0.930 . S
H1343 C1335 0.929 . S
H1344 C1352 0.929 . S
H1345 C1354 0.930 . S
H1346 C1356 0.930 . S
H1347 C1359 0.929 . S
H1348 C1362 0.930 . S
H1349 C1364 0.960 . S
H1350 C1364 0.960 . S
H1351 C1364 0.960 . S
C1352 H1344 0.929 . S
C1352 C1353 1.377 . S
C1352 C1354 1.384 . S
C1353 C1352 1.377 . S
C1353 C1359 1.390 . S
C1354 H1345 0.930 . S
C1354 C1352 1.384 . S
C1354 C1355 1.372 . S
C1355 C1354 1.372 . S
C1355 C1356 1.400 . S
C1355 C1360 1.490 . S
C1356 H1346 0.930 . S
C1356 C1355 1.400 . S
C1356 C1359 1.386 . S
H1357 C1373 0.930 . S
H1358 C1374 0.931 . S
C1359 H1347 0.929 . S
C1359 C1353 1.390 . S
C1359 C1356 1.386 . S
C1360 C1355 1.490 . S
C1360 C1362 1.395 . S
C1360 C1363 1.403 . S
H1361 C1367 0.930 . S
C1362 H1348 0.930 . S
C1362 C1360 1.395 . S
C1362 C1365 1.403 . S
C1363 C1360 1.403 . S
C1363 C1364 1.524 . S
C1363 C1367 1.400 . S
C1364 H1349 0.960 . S
C1364 H1350 0.960 . S
C1364 H1351 0.960 . S
C1364 C1363 1.524 . S
C1365 C1362 1.403 . S
C1365 C1366 1.392 . S
C1365 C1369 1.495 . S
C1366 C1365 1.392 . S
C1366 C1367 1.385 . S
C1366 C1368 1.478 . S
C1367 H1361 0.930 . S
C1367 C1363 1.400 . S
C1367 C1366 1.385 . S
C1368 C1366 1.478 . S
C1368 C1370 1.381 . S
C1368 C1374 1.383 . S
C1369 C1365 1.495 . S
C1369 H1375 0.959 . S
C1369 H1376 0.961 . S
C1369 H1377 0.960 . S
C1370 C1368 1.381 . S
C1370 C1371 1.394 . S
C1370 H1378 0.930 . S
C1371 C1370 1.394 . S
C1371 C1372 1.383 . S
C1371 H1379 0.929 . S
C1372 C1371 1.383 . S
C1372 C1373 1.377 . S
C1373 H1357 0.930 . S
C1373 C1372 1.377 . S
C1373 C1374 1.379 . S
C1374 H1358 0.931 . S
C1374 C1368 1.383 . S
C1374 C1373 1.379 . S
H1375 C1369 0.959 . S
H1376 C1369 0.961 . S
H1377 C1369 0.960 . S
H1378 C1370 0.930 . S
H1379 C1371 0.929 . S
H1380 C1388 0.929 . S
H1381 C1390 0.930 . S
H1382 C1392 0.930 . S
H1383 C1395 0.929 . S
H1384 C1398 0.930 . S
H1385 C1400 0.960 . S
H1386 C1400 0.960 . S
H1387 C1400 0.960 . S
C1388 H1380 0.929 . S
C1388 C1389 1.377 . S
C1388 C1390 1.384 . S
C1389 C1388 1.377 . S
C1389 C1395 1.390 . S
C1390 H1381 0.930 . S
C1390 C1388 1.384 . S
C1390 C1391 1.372 . S
C1391 C1390 1.372 . S
C1391 C1392 1.400 . S
C1391 C1396 1.490 . S
C1392 H1382 0.930 . S
C1392 C1391 1.400 . S
C1392 C1395 1.386 . S
H1393 C1409 0.930 . S
H1394 C1410 0.931 . S
C1395 H1383 0.929 . S
C1395 C1389 1.390 . S
C1395 C1392 1.386 . S
C1396 C1391 1.490 . S
C1396 C1398 1.395 . S
C1396 C1399 1.403 . S
H1397 C1403 0.930 . S
C1398 H1384 0.930 . S
C1398 C1396 1.395 . S
C1398 C1401 1.403 . S
C1399 C1396 1.403 . S
C1399 C1400 1.524 . S
C1399 C1403 1.400 . S
C1400 H1385 0.960 . S
C1400 H1386 0.960 . S
C1400 H1387 0.960 . S
C1400 C1399 1.524 . S
C1401 C1398 1.403 . S
C1401 C1402 1.392 . S
C1401 C1405 1.495 . S
C1402 C1401 1.392 . S
C1402 C1403 1.385 . S
C1402 C1404 1.478 . S
C1403 H1397 0.930 . S
C1403 C1399 1.400 . S
C1403 C1402 1.385 . S
C1404 C1402 1.478 . S
C1404 C1406 1.381 . S
C1404 C1410 1.383 . S
C1405 C1401 1.495 . S
C1405 H1411 0.959 . S
C1405 H1412 0.961 . S
C1405 H1413 0.960 . S
C1406 C1404 1.381 . S
C1406 C1407 1.394 1_556 S
C1406 H1414 0.930 . S
C1407 C1406 1.394 1_554 S
C1407 C1408 1.383 . S
C1407 H1415 0.929 . S
C1408 C1407 1.383 . S
C1408 C1409 1.377 . S
C1409 H1393 0.930 . S
C1409 C1408 1.377 . S
C1409 C1410 1.379 1_554 S
C1410 H1394 0.931 . S
C1410 C1404 1.383 . S
C1410 C1409 1.379 1_556 S
H1411 C1405 0.959 . S
H1412 C1405 0.961 . S
H1413 C1405 0.960 . S
H1414 C1406 0.930 . S
H1415 C1407 0.929 . S
H1416 C1424 0.929 . S
H1417 C1426 0.930 . S
H1418 C1428 0.930 . S
H1419 C1431 0.929 . S
H1420 C1434 0.930 . S
H1421 C1436 0.960 . S
H1422 C1436 0.960 . S
H1423 C1436 0.960 . S
C1424 H1416 0.929 . S
C1424 C1425 1.377 . S
C1424 C1426 1.384 1_556 S
C1425 C1424 1.377 . S
C1425 C1431 1.390 . S
C1426 H1417 0.930 . S
C1426 C1424 1.384 1_554 S
C1426 C1427 1.372 . S
C1427 C1426 1.372 . S
C1427 C1428 1.400 . S
C1427 C1432 1.490 . S
C1428 H1418 0.930 . S
C1428 C1427 1.400 . S
C1428 C1431 1.386 1_554 S
H1429 C1445 0.930 . S
H1430 C1446 0.931 . S
C1431 H1419 0.929 . S
C1431 C1425 1.390 . S
C1431 C1428 1.386 1_556 S
C1432 C1427 1.490 . S
C1432 C1434 1.395 . S
C1432 C1435 1.403 . S
H1433 C1439 0.930 . S
C1434 H1420 0.930 . S
C1434 C1432 1.395 . S
C1434 C1437 1.403 . S
C1435 C1432 1.403 . S
C1435 C1436 1.524 . S
C1435 C1439 1.400 . S
C1436 H1421 0.960 . S
C1436 H1422 0.960 . S
C1436 H1423 0.960 . S
C1436 C1435 1.524 . S
C1437 C1434 1.403 . S
C1437 C1438 1.392 . S
C1437 C1441 1.495 . S
C1438 C1437 1.392 . S
C1438 C1439 1.385 . S
C1438 C1440 1.478 . S
C1439 H1433 0.930 . S
C1439 C1435 1.400 . S
C1439 C1438 1.385 . S
C1440 C1438 1.478 . S
C1440 C1442 1.381 . S
C1440 C1446 1.383 . S
C1441 C1437 1.495 . S
C1441 H1447 0.959 . S
C1441 H1448 0.961 . S
C1441 H1449 0.960 . S
C1442 C1440 1.381 . S
C1442 C1443 1.394 . S
C1442 H1450 0.930 . S
C1443 C1442 1.394 . S
C1443 C1444 1.383 . S
C1443 H1451 0.929 . S
C1444 C1443 1.383 . S
C1444 C1445 1.377 . S
C1445 H1429 0.930 . S
C1445 C1444 1.377 . S
C1445 C1446 1.379 . S
C1446 H1430 0.931 . S
C1446 C1440 1.383 . S
C1446 C1445 1.379 . S
H1447 C1441 0.959 . S
H1448 C1441 0.961 . S
H1449 C1441 0.960 . S
H1450 C1442 0.930 . S
H1451 C1443 0.929 . S
H1452 C1460 0.929 . S
H1453 C1462 0.930 . S
H1454 C1464 0.930 . S
H1455 C1467 0.929 . S
H1456 C1470 0.930 . S
H1457 C1472 0.960 . S
H1458 C1472 0.960 . S
H1459 C1472 0.960 . S
C1460 H1452 0.929 . S
C1460 C1461 1.377 . S
C1460 C1462 1.384 . S
C1461 C1460 1.377 . S
C1461 C1467 1.390 . S
C1462 H1453 0.930 . S
C1462 C1460 1.384 . S
C1462 C1463 1.372 . S
C1463 C1462 1.372 . S
C1463 C1464 1.400 . S
C1463 C1468 1.490 . S
C1464 H1454 0.930 . S
C1464 C1463 1.400 . S
C1464 C1467 1.386 . S
H1465 C1481 0.930 . S
H1466 C1482 0.931 . S
C1467 H1455 0.929 . S
C1467 C1461 1.390 . S
C1467 C1464 1.386 . S
C1468 C1463 1.490 . S
C1468 C1470 1.395 . S
C1468 C1471 1.403 . S
H1469 C1475 0.930 . S
C1470 H1456 0.930 . S
C1470 C1468 1.395 . S
C1470 C1473 1.403 . S
C1471 C1468 1.403 . S
C1471 C1472 1.524 . S
C1471 C1475 1.400 . S
C1472 H1457 0.960 . S
C1472 H1458 0.960 . S
C1472 H1459 0.960 . S
C1472 C1471 1.524 . S
C1473 C1470 1.403 . S
C1473 C1474 1.392 . S
C1473 C1477 1.495 . S
C1474 C1473 1.392 . S
C1474 C1475 1.385 . S
C1474 C1476 1.478 . S
C1475 H1469 0.930 . S
C1475 C1471 1.400 . S
C1475 C1474 1.385 . S
C1476 C1474 1.478 . S
C1476 C1478 1.381 . S
C1476 C1482 1.383 . S
C1477 C1473 1.495 . S
C1477 H1483 0.959 . S
C1477 H1484 0.961 . S
C1477 H1485 0.960 . S
C1478 C1476 1.381 . S
C1478 C1479 1.394 . S
C1478 H1486 0.930 . S
C1479 C1478 1.394 . S
C1479 C1480 1.383 . S
C1479 H1487 0.929 . S
C1480 C1479 1.383 . S
C1480 C1481 1.377 . S
C1481 H1465 0.930 . S
C1481 C1480 1.377 . S
C1481 C1482 1.379 . S
C1482 H1466 0.931 . S
C1482 C1476 1.383 . S
C1482 C1481 1.379 . S
H1483 C1477 0.959 . S
H1484 C1477 0.961 . S
H1485 C1477 0.960 . S
H1486 C1478 0.930 . S
H1487 C1479 0.929 . S
H1488 C1496 0.929 . S
H1489 C1498 0.930 . S
H1490 C1500 0.930 . S
H1491 C1503 0.929 . S
H1492 C1506 0.930 . S
H1493 C1508 0.960 . S
H1494 C1508 0.960 . S
H1495 C1508 0.960 . S
C1496 H1488 0.929 . S
C1496 C1497 1.377 . S
C1496 C1498 1.384 . S
C1497 C1496 1.377 . S
C1497 C1503 1.390 . S
C1498 H1489 0.930 . S
C1498 C1496 1.384 . S
C1498 C1499 1.372 . S
C1499 C1498 1.372 . S
C1499 C1500 1.400 . S
C1499 C1504 1.490 . S
C1500 H1490 0.930 . S
C1500 C1499 1.400 . S
C1500 C1503 1.386 . S
H1501 C1517 0.930 . S
H1502 C1518 0.931 . S
C1503 H1491 0.929 . S
C1503 C1497 1.390 . S
C1503 C1500 1.386 . S
C1504 C1499 1.490 . S
C1504 C1506 1.395 . S
C1504 C1507 1.403 . S
H1505 C1511 0.930 . S
C1506 H1492 0.930 . S
C1506 C1504 1.395 . S
C1506 C1509 1.403 . S
C1507 C1504 1.403 . S
C1507 C1508 1.524 . S
C1507 C1511 1.400 . S
C1508 H1493 0.960 . S
C1508 H1494 0.960 . S
C1508 H1495 0.960 . S
C1508 C1507 1.524 . S
C1509 C1506 1.403 . S
C1509 C1510 1.392 . S
C1509 C1513 1.495 . S
C1510 C1509 1.392 . S
C1510 C1511 1.385 . S
C1510 C1512 1.478 . S
C1511 H1505 0.930 . S
C1511 C1507 1.400 . S
C1511 C1510 1.385 . S
C1512 C1510 1.478 . S
C1512 C1514 1.381 . S
C1512 C1518 1.383 . S
C1513 C1509 1.495 . S
C1513 H1519 0.959 . S
C1513 H1520 0.961 . S
C1513 H1521 0.960 . S
C1514 C1512 1.381 . S
C1514 C1515 1.394 . S
C1514 H1522 0.930 . S
C1515 C1514 1.394 . S
C1515 C1516 1.383 . S
C1515 H1523 0.929 . S
C1516 C1515 1.383 . S
C1516 C1517 1.377 . S
C1517 H1501 0.930 . S
C1517 C1516 1.377 . S
C1517 C1518 1.379 . S
C1518 H1502 0.931 . S
C1518 C1512 1.383 . S
C1518 C1517 1.379 . S
H1519 C1513 0.959 . S
H1520 C1513 0.961 . S
H1521 C1513 0.960 . S
H1522 C1514 0.930 . S
H1523 C1515 0.929 . S
H1524 C1532 0.929 . S
H1525 C1534 0.930 . S
H1526 C1536 0.930 . S
H1527 C1539 0.929 . S
H1528 C1542 0.930 . S
H1529 C1544 0.960 . S
H1530 C1544 0.960 . S
H1531 C1544 0.960 . S
C1532 H1524 0.929 . S
C1532 C1533 1.377 . S
C1532 C1534 1.384 1_556 S
C1533 C1532 1.377 . S
C1533 C1539 1.390 . S
C1534 H1525 0.930 . S
C1534 C1532 1.384 1_554 S
C1534 C1535 1.372 . S
C1535 C1534 1.372 . S
C1535 C1536 1.400 . S
C1535 C1540 1.490 . S
C1536 H1526 0.930 . S
C1536 C1535 1.400 . S
C1536 C1539 1.386 1_554 S
H1537 C1553 0.930 . S
H1538 C1554 0.931 . S
C1539 H1527 0.929 . S
C1539 C1533 1.390 . S
C1539 C1536 1.386 1_556 S
C1540 C1535 1.490 . S
C1540 C1542 1.395 . S
C1540 C1543 1.403 . S
H1541 C1547 0.930 . S
C1542 H1528 0.930 . S
C1542 C1540 1.395 . S
C1542 C1545 1.403 . S
C1543 C1540 1.403 . S
C1543 C1544 1.524 . S
C1543 C1547 1.400 . S
C1544 H1529 0.960 . S
C1544 H1530 0.960 . S
C1544 H1531 0.960 . S
C1544 C1543 1.524 . S
C1545 C1542 1.403 . S
C1545 C1546 1.392 . S
C1545 C1549 1.495 . S
C1546 C1545 1.392 . S
C1546 C1547 1.385 . S
C1546 C1548 1.478 . S
C1547 H1541 0.930 . S
C1547 C1543 1.400 . S
C1547 C1546 1.385 . S
C1548 C1546 1.478 . S
C1548 C1550 1.381 . S
C1548 C1554 1.383 . S
C1549 C1545 1.495 . S
C1549 H1555 0.959 . S
C1549 H1556 0.961 . S
C1549 H1557 0.960 . S
C1550 C1548 1.381 . S
C1550 C1551 1.394 . S
C1550 H1558 0.930 . S
C1551 C1550 1.394 . S
C1551 C1552 1.383 . S
C1551 H1559 0.929 . S
C1552 C1551 1.383 . S
C1552 C1553 1.377 . S
C1553 H1537 0.930 . S
C1553 C1552 1.377 . S
C1553 C1554 1.379 . S
C1554 H1538 0.931 . S
C1554 C1548 1.383 . S
C1554 C1553 1.379 . S
H1555 C1549 0.959 . S
H1556 C1549 0.961 . S
H1557 C1549 0.960 . S
H1558 C1550 0.930 . S
H1559 C1551 0.929 . S
H1560 C1568 0.929 . S
H1561 C1570 0.930 . S
H1562 C1572 0.930 . S
H1563 C1575 0.929 . S
H1564 C1578 0.930 . S
H1565 C1580 0.960 . S
H1566 C1580 0.960 . S
H1567 C1580 0.960 . S
C1568 H1560 0.929 . S
C1568 C1569 1.377 . S
C1568 C1570 1.384 1_554 S
C1569 C1568 1.377 . S
C1569 C1575 1.390 . S
C1570 H1561 0.930 . S
C1570 C1568 1.384 1_556 S
C1570 C1571 1.372 . S
C1571 C1570 1.372 . S
C1571 C1572 1.400 . S
C1571 C1576 1.490 . S
C1572 H1562 0.930 . S
C1572 C1571 1.400 . S
C1572 C1575 1.386 1_556 S
H1573 C1589 0.930 . S
H1574 C1590 0.931 . S
C1575 H1563 0.929 . S
C1575 C1569 1.390 . S
C1575 C1572 1.386 1_554 S
C1576 C1571 1.490 . S
C1576 C1578 1.395 . S
C1576 C1579 1.403 . S
H1577 C1583 0.930 . S
C1578 H1564 0.930 . S
C1578 C1576 1.395 . S
C1578 C1581 1.403 . S
C1579 C1576 1.403 . S
C1579 C1580 1.524 . S
C1579 C1583 1.400 . S
C1580 H1565 0.960 . S
C1580 H1566 0.960 . S
C1580 H1567 0.960 . S
C1580 C1579 1.524 . S
C1581 C1578 1.403 . S
C1581 C1582 1.392 . S
C1581 C1585 1.495 . S
C1582 C1581 1.392 . S
C1582 C1583 1.385 . S
C1582 C1584 1.478 . S
C1583 H1577 0.930 . S
C1583 C1579 1.400 . S
C1583 C1582 1.385 . S
C1584 C1582 1.478 . S
C1584 C1586 1.381 . S
C1584 C1590 1.383 . S
C1585 C1581 1.495 . S
C1585 H1591 0.959 . S
C1585 H1592 0.961 . S
C1585 H1593 0.960 . S
C1586 C1584 1.381 . S
C1586 C1587 1.394 . S
C1586 H1594 0.930 . S
C1587 C1586 1.394 . S
C1587 C1588 1.383 . S
C1587 H1595 0.929 . S
C1588 C1587 1.383 . S
C1588 C1589 1.377 . S
C1589 H1573 0.930 . S
C1589 C1588 1.377 . S
C1589 C1590 1.379 . S
C1590 H1574 0.931 . S
C1590 C1584 1.383 . S
C1590 C1589 1.379 . S
H1591 C1585 0.959 . S
H1592 C1585 0.961 . S
H1593 C1585 0.960 . S
H1594 C1586 0.930 . S
H1595 C1587 0.929 . S
H1596 C1604 0.929 . S
H1597 C1606 0.930 . S
H1598 C1608 0.930 . S
H1599 C1611 0.929 . S
H1600 C1614 0.930 . S
H1601 C1616 0.960 . S
H1602 C1616 0.960 . S
H1603 C1616 0.960 . S
C1604 H1596 0.929 . S
C1604 C1605 1.377 . S
C1604 C1606 1.384 . S
C1605 C1604 1.377 . S
C1605 C1611 1.390 . S
C1606 H1597 0.930 . S
C1606 C1604 1.384 . S
C1606 C1607 1.372 . S
C1607 C1606 1.372 . S
C1607 C1608 1.400 . S
C1607 C1612 1.490 . S
C1608 H1598 0.930 . S
C1608 C1607 1.400 . S
C1608 C1611 1.386 . S
H1609 C1625 0.930 . S
H1610 C1626 0.931 . S
C1611 H1599 0.929 . S
C1611 C1605 1.390 . S
C1611 C1608 1.386 . S
C1612 C1607 1.490 . S
C1612 C1614 1.395 . S
C1612 C1615 1.403 . S
H1613 C1619 0.930 . S
C1614 H1600 0.930 . S
C1614 C1612 1.395 . S
C1614 C1617 1.403 . S
C1615 C1612 1.403 . S
C1615 C1616 1.524 . S
C1615 C1619 1.400 . S
C1616 H1601 0.960 . S
C1616 H1602 0.960 . S
C1616 H1603 0.960 . S
C1616 C1615 1.524 . S
C1617 C1614 1.403 . S
C1617 C1618 1.392 . S
C1617 C1621 1.495 . S
C1618 C1617 1.392 . S
C1618 C1619 1.385 . S
C1618 C1620 1.478 . S
C1619 H1613 0.930 . S
C1619 C1615 1.400 . S
C1619 C1618 1.385 . S
C1620 C1618 1.478 . S
C1620 C1622 1.381 . S
C1620 C1626 1.383 . S
C1621 C1617 1.495 . S
C1621 H1627 0.959 . S
C1621 H1628 0.961 . S
C1621 H1629 0.960 . S
C1622 C1620 1.381 . S
C1622 C1623 1.394 . S
C1622 H1630 0.930 . S
C1623 C1622 1.394 . S
C1623 C1624 1.383 . S
C1623 H1631 0.929 . S
C1624 C1623 1.383 . S
C1624 C1625 1.377 . S
C1625 H1609 0.930 . S
C1625 C1624 1.377 . S
C1625 C1626 1.379 . S
C1626 H1610 0.931 . S
C1626 C1620 1.383 . S
C1626 C1625 1.379 . S
H1627 C1621 0.959 . S
H1628 C1621 0.961 . S
H1629 C1621 0.960 . S
H1630 C1622 0.930 . S
H1631 C1623 0.929 . S
H1632 C1640 0.929 . S
H1633 C1642 0.930 . S
H1634 C1644 0.930 . S
H1635 C1647 0.929 . S
H1636 C1650 0.930 . S
H1637 C1652 0.960 . S
H1638 C1652 0.960 . S
H1639 C1652 0.960 . S
C1640 H1632 0.929 . S
C1640 C1641 1.377 . S
C1640 C1642 1.384 . S
C1641 C1640 1.377 . S
C1641 C1647 1.390 . S
C1642 H1633 0.930 . S
C1642 C1640 1.384 . S
C1642 C1643 1.372 . S
C1643 C1642 1.372 . S
C1643 C1644 1.400 . S
C1643 C1648 1.490 . S
C1644 H1634 0.930 . S
C1644 C1643 1.400 . S
C1644 C1647 1.386 . S
H1645 C1661 0.930 . S
H1646 C1662 0.931 . S
C1647 H1635 0.929 . S
C1647 C1641 1.390 . S
C1647 C1644 1.386 . S
C1648 C1643 1.490 . S
C1648 C1650 1.395 . S
C1648 C1651 1.403 . S
H1649 C1655 0.930 . S
C1650 H1636 0.930 . S
C1650 C1648 1.395 . S
C1650 C1653 1.403 . S
C1651 C1648 1.403 . S
C1651 C1652 1.524 . S
C1651 C1655 1.400 . S
C1652 H1637 0.960 . S
C1652 H1638 0.960 . S
C1652 H1639 0.960 . S
C1652 C1651 1.524 . S
C1653 C1650 1.403 . S
C1653 C1654 1.392 . S
C1653 C1657 1.495 . S
C1654 C1653 1.392 . S
C1654 C1655 1.385 . S
C1654 C1656 1.478 . S
C1655 H1649 0.930 . S
C1655 C1651 1.400 . S
C1655 C1654 1.385 . S
C1656 C1654 1.478 . S
C1656 C1658 1.381 . S
C1656 C1662 1.383 . S
C1657 C1653 1.495 . S
C1657 H1663 0.959 . S
C1657 H1664 0.961 . S
C1657 H1665 0.960 . S
C1658 C1656 1.381 . S
C1658 C1659 1.394 . S
C1658 H1666 0.930 . S
C1659 C1658 1.394 . S
C1659 C1660 1.383 . S
C1659 H1667 0.929 . S
C1660 C1659 1.383 . S
C1660 C1661 1.377 . S
C1661 H1645 0.930 . S
C1661 C1660 1.377 . S
C1661 C1662 1.379 . S
C1662 H1646 0.931 . S
C1662 C1656 1.383 . S
C1662 C1661 1.379 . S
H1663 C1657 0.959 . S
H1664 C1657 0.961 . S
H1665 C1657 0.960 . S
H1666 C1658 0.930 . S
H1667 C1659 0.929 . S
H1668 C1676 0.929 . S
H1669 C1678 0.930 . S
H1670 C1680 0.930 . S
H1671 C1683 0.929 . S
H1672 C1686 0.930 . S
H1673 C1688 0.960 . S
H1674 C1688 0.960 . S
H1675 C1688 0.960 . S
C1676 H1668 0.929 . S
C1676 C1677 1.377 . S
C1676 C1678 1.384 . S
C1677 C1676 1.377 . S
C1677 C1683 1.390 . S
C1678 H1669 0.930 . S
C1678 C1676 1.384 . S
C1678 C1679 1.372 . S
C1679 C1678 1.372 . S
C1679 C1680 1.400 . S
C1679 C1684 1.490 . S
C1680 H1670 0.930 . S
C1680 C1679 1.400 . S
C1680 C1683 1.386 . S
H1681 C1697 0.930 . S
H1682 C1698 0.931 . S
C1683 H1671 0.929 . S
C1683 C1677 1.390 . S
C1683 C1680 1.386 . S
C1684 C1679 1.490 . S
C1684 C1686 1.395 . S
C1684 C1687 1.403 . S
H1685 C1691 0.930 . S
C1686 H1672 0.930 . S
C1686 C1684 1.395 . S
C1686 C1689 1.403 . S
C1687 C1684 1.403 . S
C1687 C1688 1.524 . S
C1687 C1691 1.400 . S
C1688 H1673 0.960 . S
C1688 H1674 0.960 . S
C1688 H1675 0.960 . S
C1688 C1687 1.524 . S
C1689 C1686 1.403 . S
C1689 C1690 1.392 . S
C1689 C1693 1.495 . S
C1690 C1689 1.392 . S
C1690 C1691 1.385 . S
C1690 C1692 1.478 . S
C1691 H1685 0.930 . S
C1691 C1687 1.400 . S
C1691 C1690 1.385 . S
C1692 C1690 1.478 . S
C1692 C1694 1.381 . S
C1692 C1698 1.383 . S
C1693 C1689 1.495 . S
C1693 H1699 0.959 . S
C1693 H1700 0.961 . S
C1693 H1701 0.960 . S
C1694 C1692 1.381 . S
C1694 C1695 1.394 1_556 S
C1694 H1702 0.930 . S
C1695 C1694 1.394 1_554 S
C1695 C1696 1.383 . S
C1695 H1703 0.929 . S
C1696 C1695 1.383 . S
C1696 C1697 1.377 . S
C1697 H1681 0.930 . S
C1697 C1696 1.377 . S
C1697 C1698 1.379 1_554 S
C1698 H1682 0.931 . S
C1698 C1692 1.383 . S
C1698 C1697 1.379 1_556 S
H1699 C1693 0.959 . S
H1700 C1693 0.961 . S
H1701 C1693 0.960 . S
H1702 C1694 0.930 . S
H1703 C1695 0.929 . S
H1704 C1712 0.929 . S
H1705 C1714 0.930 . S
H1706 C1716 0.930 . S
H1707 C1719 0.929 . S
H1708 C1722 0.930 . S
H1709 C1724 0.960 . S
H1710 C1724 0.960 . S
H1711 C1724 0.960 . S
C1712 H1704 0.929 . S
C1712 C1713 1.377 . S
C1712 C1714 1.384 1_556 S
C1713 C1712 1.377 . S
C1713 C1719 1.390 . S
C1714 H1705 0.930 . S
C1714 C1712 1.384 1_554 S
C1714 C1715 1.372 . S
C1715 C1714 1.372 . S
C1715 C1716 1.400 . S
C1715 C1720 1.490 . S
C1716 H1706 0.930 . S
C1716 C1715 1.400 . S
C1716 C1719 1.386 1_554 S
H1717 C1733 0.930 . S
H1718 C1734 0.931 . S
C1719 H1707 0.929 . S
C1719 C1713 1.390 . S
C1719 C1716 1.386 1_556 S
C1720 C1715 1.490 . S
C1720 C1722 1.395 . S
C1720 C1723 1.403 . S
H1721 C1727 0.930 . S
C1722 H1708 0.930 . S
C1722 C1720 1.395 . S
C1722 C1725 1.403 . S
C1723 C1720 1.403 . S
C1723 C1724 1.524 . S
C1723 C1727 1.400 . S
C1724 H1709 0.960 . S
C1724 H1710 0.960 . S
C1724 H1711 0.960 . S
C1724 C1723 1.524 . S
C1725 C1722 1.403 . S
C1725 C1726 1.392 . S
C1725 C1729 1.495 . S
C1726 C1725 1.392 . S
C1726 C1727 1.385 . S
C1726 C1728 1.478 . S
C1727 H1721 0.930 . S
C1727 C1723 1.400 . S
C1727 C1726 1.385 . S
C1728 C1726 1.478 . S
C1728 C1730 1.381 . S
C1728 C1734 1.383 . S
C1729 C1725 1.495 . S
C1729 H1735 0.959 . S
C1729 H1736 0.961 . S
C1729 H1737 0.960 . S
C1730 C1728 1.381 . S
C1730 C1731 1.394 . S
C1730 H1738 0.930 . S
C1731 C1730 1.394 . S
C1731 C1732 1.383 . S
C1731 H1739 0.929 . S
C1732 C1731 1.383 . S
C1732 C1733 1.377 . S
C1733 H1717 0.930 . S
C1733 C1732 1.377 . S
C1733 C1734 1.379 . S
C1734 H1718 0.931 . S
C1734 C1728 1.383 . S
C1734 C1733 1.379 . S
H1735 C1729 0.959 . S
H1736 C1729 0.961 . S
H1737 C1729 0.960 . S
H1738 C1730 0.930 . S
H1739 C1731 0.929 . S
H1740 C1748 0.929 . S
H1741 C1750 0.930 . S
H1742 C1752 0.930 . S
H1743 C1755 0.929 . S
H1744 C1758 0.930 . S
H1745 C1760 0.960 . S
H1746 C1760 0.960 . S
H1747 C1760 0.960 . S
C1748 H1740 0.929 . S
C1748 C1749 1.377 . S
C1748 C1750 1.384 . S
C1749 C1748 1.377 . S
C1749 C1755 1.390 . S
C1750 H1741 0.930 . S
C1750 C1748 1.384 . S
C1750 C1751 1.372 . S
C1751 C1750 1.372 . S
C1751 C1752 1.400 . S
C1751 C1756 1.490 . S
C1752 H1742 0.930 . S
C1752 C1751 1.400 . S
C1752 C1755 1.386 . S
H1753 C1769 0.930 . S
H1754 C1770 0.931 . S
C1755 H1743 0.929 . S
C1755 C1749 1.390 . S
C1755 C1752 1.386 . S
C1756 C1751 1.490 . S
C1756 C1758 1.395 . S
C1756 C1759 1.403 . S
H1757 C1763 0.930 . S
C1758 H1744 0.930 . S
C1758 C1756 1.395 . S
C1758 C1761 1.403 . S
C1759 C1756 1.403 . S
C1759 C1760 1.524 . S
C1759 C1763 1.400 . S
C1760 H1745 0.960 . S
C1760 H1746 0.960 . S
C1760 H1747 0.960 . S
C1760 C1759 1.524 . S
C1761 C1758 1.403 . S
C1761 C1762 1.392 . S
C1761 C1765 1.495 . S
C1762 C1761 1.392 . S
C1762 C1763 1.385 . S
C1762 C1764 1.478 . S
C1763 H1757 0.930 . S
C1763 C1759 1.400 . S
C1763 C1762 1.385 . S
C1764 C1762 1.478 . S
C1764 C1766 1.381 . S
C1764 C1770 1.383 . S
C1765 C1761 1.495 . S
C1765 H1771 0.959 . S
C1765 H1772 0.961 . S
C1765 H1773 0.960 . S
C1766 C1764 1.381 . S
C1766 C1767 1.394 . S
C1766 H1774 0.930 . S
C1767 C1766 1.394 . S
C1767 C1768 1.383 . S
C1767 H1775 0.929 . S
C1768 C1767 1.383 . S
C1768 C1769 1.377 . S
C1769 H1753 0.930 . S
C1769 C1768 1.377 . S
C1769 C1770 1.379 . S
C1770 H1754 0.931 . S
C1770 C1764 1.383 . S
C1770 C1769 1.379 . S
H1771 C1765 0.959 . S
H1772 C1765 0.961 . S
H1773 C1765 0.960 . S
H1774 C1766 0.930 . S
H1775 C1767 0.929 . S
H1776 C1784 0.929 . S
H1777 C1786 0.930 . S
H1778 C1788 0.930 . S
H1779 C1791 0.929 . S
H1780 C1794 0.930 . S
H1781 C1796 0.960 . S
H1782 C1796 0.960 . S
H1783 C1796 0.960 . S
C1784 H1776 0.929 . S
C1784 C1785 1.377 . S
C1784 C1786 1.384 . S
C1785 C1784 1.377 . S
C1785 C1791 1.390 . S
C1786 H1777 0.930 . S
C1786 C1784 1.384 . S
C1786 C1787 1.372 . S
C1787 C1786 1.372 . S
C1787 C1788 1.400 . S
C1787 C1792 1.490 . S
C1788 H1778 0.930 . S
C1788 C1787 1.400 . S
C1788 C1791 1.386 . S
H1789 C1805 0.930 . S
H1790 C1806 0.931 . S
C1791 H1779 0.929 . S
C1791 C1785 1.390 . S
C1791 C1788 1.386 . S
C1792 C1787 1.490 . S
C1792 C1794 1.395 . S
C1792 C1795 1.403 . S
H1793 C1799 0.930 . S
C1794 H1780 0.930 . S
C1794 C1792 1.395 . S
C1794 C1797 1.403 . S
C1795 C1792 1.403 . S
C1795 C1796 1.524 . S
C1795 C1799 1.400 . S
C1796 H1781 0.960 . S
C1796 H1782 0.960 . S
C1796 H1783 0.960 . S
C1796 C1795 1.524 . S
C1797 C1794 1.403 . S
C1797 C1798 1.392 . S
C1797 C1801 1.495 . S
C1798 C1797 1.392 . S
C1798 C1799 1.385 . S
C1798 C1800 1.478 . S
C1799 H1793 0.930 . S
C1799 C1795 1.400 . S
C1799 C1798 1.385 . S
C1800 C1798 1.478 . S
C1800 C1802 1.381 . S
C1800 C1806 1.383 . S
C1801 C1797 1.495 . S
C1801 H1807 0.959 . S
C1801 H1808 0.961 . S
C1801 H1809 0.960 . S
C1802 C1800 1.381 . S
C1802 C1803 1.394 . S
C1802 H1810 0.930 . S
C1803 C1802 1.394 . S
C1803 C1804 1.383 . S
C1803 H1811 0.929 . S
C1804 C1803 1.383 . S
C1804 C1805 1.377 . S
C1805 H1789 0.930 . S
C1805 C1804 1.377 . S
C1805 C1806 1.379 . S
C1806 H1790 0.931 . S
C1806 C1800 1.383 . S
C1806 C1805 1.379 . S
H1807 C1801 0.959 . S
H1808 C1801 0.961 . S
H1809 C1801 0.960 . S
H1810 C1802 0.930 . S
H1811 C1803 0.929 . S
H1812 C1820 0.929 . S
H1813 C1822 0.930 . S
H1814 C1824 0.930 . S
H1815 C1827 0.929 . S
H1816 C1830 0.930 . S
H1817 C1832 0.960 . S
H1818 C1832 0.960 . S
H1819 C1832 0.960 . S
C1820 H1812 0.929 . S
C1820 C1821 1.377 . S
C1820 C1822 1.384 . S
C1821 C1820 1.377 . S
C1821 C1827 1.390 . S
C1822 H1813 0.930 . S
C1822 C1820 1.384 . S
C1822 C1823 1.372 . S
C1823 C1822 1.372 . S
C1823 C1824 1.400 . S
C1823 C1828 1.490 . S
C1824 H1814 0.930 . S
C1824 C1823 1.400 . S
C1824 C1827 1.386 . S
H1825 C1841 0.930 . S
H1826 C1842 0.931 . S
C1827 H1815 0.929 . S
C1827 C1821 1.390 . S
C1827 C1824 1.386 . S
C1828 C1823 1.490 . S
C1828 C1830 1.395 . S
C1828 C1831 1.403 . S
H1829 C1835 0.930 . S
C1830 H1816 0.930 . S
C1830 C1828 1.395 . S
C1830 C1833 1.403 . S
C1831 C1828 1.403 . S
C1831 C1832 1.524 . S
C1831 C1835 1.400 . S
C1832 H1817 0.960 . S
C1832 H1818 0.960 . S
C1832 H1819 0.960 . S
C1832 C1831 1.524 . S
C1833 C1830 1.403 . S
C1833 C1834 1.392 . S
C1833 C1837 1.495 . S
C1834 C1833 1.392 . S
C1834 C1835 1.385 . S
C1834 C1836 1.478 . S
C1835 H1829 0.930 . S
C1835 C1831 1.400 . S
C1835 C1834 1.385 . S
C1836 C1834 1.478 . S
C1836 C1838 1.381 . S
C1836 C1842 1.383 . S
C1837 C1833 1.495 . S
C1837 H1843 0.959 . S
C1837 H1844 0.961 . S
C1837 H1845 0.960 . S
C1838 C1836 1.381 . S
C1838 C1839 1.394 1_554 S
C1838 H1846 0.930 . S
C1839 C1838 1.394 1_556 S
C1839 C1840 1.383 . S
C1839 H1847 0.929 . S
C1840 C1839 1.383 . S
C1840 C1841 1.377 . S
C1841 H1825 0.930 . S
C1841 C1840 1.377 . S
C1841 C1842 1.379 1_556 S
C1842 H1826 0.931 . S
C1842 C1836 1.383 . S
C1842 C1841 1.379 1_554 S
H1843 C1837 0.959 . S
H1844 C1837 0.961 . S
H1845 C1837 0.960 . S
H1846 C1838 0.930 . S
H1847 C1839 0.929 . S
H1848 C1856 0.929 . S
H1849 C1858 0.930 . S
H1850 C1860 0.930 . S
H1851 C1863 0.929 . S
H1852 C1866 0.930 . S
H1853 C1868 0.960 . S
H1854 C1868 0.960 . S
H1855 C1868 0.960 . S
C1856 H1848 0.929 . S
C1856 C1857 1.377 . S
C1856 C1858 1.384 . S
C1857 C1856 1.377 . S
C1857 C1863 1.390 . S
C1858 H1849 0.930 . S
C1858 C1856 1.384 . S
C1858 C1859 1.372 . S
C1859 C1858 1.372 . S
C1859 C1860 1.400 . S
C1859 C1864 1.490 . S
C1860 H1850 0.930 . S
C1860 C1859 1.400 . S
C1860 C1863 1.386 . S
H1861 C1877 0.930 . S
H1862 C1878 0.931 . S
C1863 H1851 0.929 . S
C1863 C1857 1.390 . S
C1863 C1860 1.386 . S
C1864 C1859 1.490 . S
C1864 C1866 1.395 . S
C1864 C1867 1.403 . S
H1865 C1871 0.930 . S
C1866 H1852 0.930 . S
C1866 C1864 1.395 . S
C1866 C1869 1.403 . S
C1867 C1864 1.403 . S
C1867 C1868 1.524 . S
C1867 C1871 1.400 . S
C1868 H1853 0.960 . S
C1868 H1854 0.960 . S
C1868 H1855 0.960 . S
C1868 C1867 1.524 . S
C1869 C1866 1.403 . S
C1869 C1870 1.392 . S
C1869 C1873 1.495 . S
C1870 C1869 1.392 . S
C1870 C1871 1.385 . S
C1870 C1872 1.478 . S
C1871 H1865 0.930 . S
C1871 C1867 1.400 . S
C1871 C1870 1.385 . S
C1872 C1870 1.478 . S
C1872 C1874 1.381 . S
C1872 C1878 1.383 . S
C1873 C1869 1.495 . S
C1873 H1879 0.959 . S
C1873 H1880 0.961 . S
C1873 H1881 0.960 . S
C1874 C1872 1.381 . S
C1874 C1875 1.394 1_556 S
C1874 H1882 0.930 . S
C1875 C1874 1.394 1_554 S
C1875 C1876 1.383 . S
C1875 H1883 0.929 . S
C1876 C1875 1.383 . S
C1876 C1877 1.377 . S
C1877 H1861 0.930 . S
C1877 C1876 1.377 . S
C1877 C1878 1.379 1_554 S
C1878 H1862 0.931 . S
C1878 C1872 1.383 . S
C1878 C1877 1.379 1_556 S
H1879 C1873 0.959 . S
H1880 C1873 0.961 . S
H1881 C1873 0.960 . S
H1882 C1874 0.930 . S
H1883 C1875 0.929 . S
H1884 C1892 0.929 . S
H1885 C1894 0.930 . S
H1886 C1896 0.930 . S
H1887 C1899 0.929 . S
H1888 C1902 0.930 . S
H1889 C1904 0.960 . S
H1890 C1904 0.960 . S
H1891 C1904 0.960 . S
C1892 H1884 0.929 . S
C1892 C1893 1.377 . S
C1892 C1894 1.384 . S
C1893 C1892 1.377 . S
C1893 C1899 1.390 . S
C1894 H1885 0.930 . S
C1894 C1892 1.384 . S
C1894 C1895 1.372 . S
C1895 C1894 1.372 . S
C1895 C1896 1.400 . S
C1895 C1900 1.490 . S
C1896 H1886 0.930 . S
C1896 C1895 1.400 . S
C1896 C1899 1.386 . S
H1897 C1913 0.930 . S
H1898 C1914 0.931 . S
C1899 H1887 0.929 . S
C1899 C1893 1.390 . S
C1899 C1896 1.386 . S
C1900 C1895 1.490 . S
C1900 C1902 1.395 . S
C1900 C1903 1.403 . S
H1901 C1907 0.930 . S
C1902 H1888 0.930 . S
C1902 C1900 1.395 . S
C1902 C1905 1.403 . S
C1903 C1900 1.403 . S
C1903 C1904 1.524 . S
C1903 C1907 1.400 . S
C1904 H1889 0.960 . S
C1904 H1890 0.960 . S
C1904 H1891 0.960 . S
C1904 C1903 1.524 . S
C1905 C1902 1.403 . S
C1905 C1906 1.392 . S
C1905 C1909 1.495 . S
C1906 C1905 1.392 . S
C1906 C1907 1.385 . S
C1906 C1908 1.478 . S
C1907 H1901 0.930 . S
C1907 C1903 1.400 . S
C1907 C1906 1.385 . S
C1908 C1906 1.478 . S
C1908 C1910 1.381 . S
C1908 C1914 1.383 . S
C1909 C1905 1.495 . S
C1909 H1915 0.959 . S
C1909 H1916 0.961 . S
C1909 H1917 0.960 . S
C1910 C1908 1.381 . S
C1910 C1911 1.394 . S
C1910 H1918 0.930 . S
C1911 C1910 1.394 . S
C1911 C1912 1.383 . S
C1911 H1919 0.929 . S
C1912 C1911 1.383 . S
C1912 C1913 1.377 . S
C1913 H1897 0.930 . S
C1913 C1912 1.377 . S
C1913 C1914 1.379 . S
C1914 H1898 0.931 . S
C1914 C1908 1.383 . S
C1914 C1913 1.379 . S
H1915 C1909 0.959 . S
H1916 C1909 0.961 . S
H1917 C1909 0.960 . S
H1918 C1910 0.930 . S
H1919 C1911 0.929 . S
H1920 C1928 0.929 . S
H1921 C1930 0.930 . S
H1922 C1932 0.930 . S
H1923 C1935 0.929 . S
H1924 C1938 0.930 . S
H1925 C1940 0.960 . S
H1926 C1940 0.960 . S
H1927 C1940 0.960 . S
C1928 H1920 0.929 . S
C1928 C1929 1.377 . S
C1928 C1930 1.384 1_556 S
C1929 C1928 1.377 . S
C1929 C1935 1.390 . S
C1930 H1921 0.930 . S
C1930 C1928 1.384 1_554 S
C1930 C1931 1.372 . S
C1931 C1930 1.372 . S
C1931 C1932 1.400 . S
C1931 C1936 1.490 . S
C1932 H1922 0.930 . S
C1932 C1931 1.400 . S
C1932 C1935 1.386 1_554 S
H1933 C1949 0.930 . S
H1934 C1950 0.931 . S
C1935 H1923 0.929 . S
C1935 C1929 1.390 . S
C1935 C1932 1.386 1_556 S
C1936 C1931 1.490 . S
C1936 C1938 1.395 . S
C1936 C1939 1.403 . S
H1937 C1943 0.930 . S
C1938 H1924 0.930 . S
C1938 C1936 1.395 . S
C1938 C1941 1.403 . S
C1939 C1936 1.403 . S
C1939 C1940 1.524 . S
C1939 C1943 1.400 . S
C1940 H1925 0.960 . S
C1940 H1926 0.960 . S
C1940 H1927 0.960 . S
C1940 C1939 1.524 . S
C1941 C1938 1.403 . S
C1941 C1942 1.392 . S
C1941 C1945 1.495 . S
C1942 C1941 1.392 . S
C1942 C1943 1.385 . S
C1942 C1944 1.478 . S
C1943 H1937 0.930 . S
C1943 C1939 1.400 . S
C1943 C1942 1.385 . S
C1944 C1942 1.478 . S
C1944 C1946 1.381 . S
C1944 C1950 1.383 . S
C1945 C1941 1.495 . S
C1945 H1951 0.959 . S
C1945 H1952 0.961 . S
C1945 H1953 0.960 . S
C1946 C1944 1.381 . S
C1946 C1947 1.394 . S
C1946 H1954 0.930 . S
C1947 C1946 1.394 . S
C1947 C1948 1.383 . S
C1947 H1955 0.929 . S
C1948 C1947 1.383 . S
C1948 C1949 1.377 . S
C1949 H1933 0.930 . S
C1949 C1948 1.377 . S
C1949 C1950 1.379 . S
C1950 H1934 0.931 . S
C1950 C1944 1.383 . S
C1950 C1949 1.379 . S
H1951 C1945 0.959 . S
H1952 C1945 0.961 . S
H1953 C1945 0.960 . S
H1954 C1946 0.930 . S
H1955 C1947 0.929 . S
H1956 C1964 0.929 . S
H1957 C1966 0.930 . S
H1958 C1968 0.930 . S
H1959 C1971 0.929 . S
H1960 C1974 0.930 . S
H1961 C1976 0.960 . S
H1962 C1976 0.960 . S
H1963 C1976 0.960 . S
C1964 H1956 0.929 . S
C1964 C1965 1.377 . S
C1964 C1966 1.384 . S
C1965 C1964 1.377 . S
C1965 C1971 1.390 . S
C1966 H1957 0.930 . S
C1966 C1964 1.384 . S
C1966 C1967 1.372 . S
C1967 C1966 1.372 . S
C1967 C1968 1.400 . S
C1967 C1972 1.490 . S
C1968 H1958 0.930 . S
C1968 C1967 1.400 . S
C1968 C1971 1.386 . S
H1969 C1985 0.930 . S
H1970 C1986 0.931 . S
C1971 H1959 0.929 . S
C1971 C1965 1.390 . S
C1971 C1968 1.386 . S
C1972 C1967 1.490 . S
C1972 C1974 1.395 . S
C1972 C1975 1.403 . S
H1973 C1979 0.930 . S
C1974 H1960 0.930 . S
C1974 C1972 1.395 . S
C1974 C1977 1.403 . S
C1975 C1972 1.403 . S
C1975 C1976 1.524 . S
C1975 C1979 1.400 . S
C1976 H1961 0.960 . S
C1976 H1962 0.960 . S
C1976 H1963 0.960 . S
C1976 C1975 1.524 . S
C1977 C1974 1.403 . S
C1977 C1978 1.392 . S
C1977 C1981 1.495 . S
C1978 C1977 1.392 . S
C1978 C1979 1.385 . S
C1978 C1980 1.478 . S
C1979 H1973 0.930 . S
C1979 C1975 1.400 . S
C1979 C1978 1.385 . S
C1980 C1978 1.478 . S
C1980 C1982 1.381 . S
C1980 C1986 1.383 . S
C1981 C1977 1.495 . S
C1981 H1987 0.959 . S
C1981 H1988 0.961 . S
C1981 H1989 0.960 . S
C1982 C1980 1.381 . S
C1982 C1983 1.394 . S
C1982 H1990 0.930 . S
C1983 C1982 1.394 . S
C1983 C1984 1.383 . S
C1983 H1991 0.929 . S
C1984 C1983 1.383 . S
C1984 C1985 1.377 . S
C1985 H1969 0.930 . S
C1985 C1984 1.377 . S
C1985 C1986 1.379 . S
C1986 H1970 0.931 . S
C1986 C1980 1.383 . S
C1986 C1985 1.379 . S
H1987 C1981 0.959 . S
H1988 C1981 0.961 . S
H1989 C1981 0.960 . S
H1990 C1982 0.930 . S
H1991 C1983 0.929 . S
H1992 C2000 0.929 . S
H1993 C2002 0.930 . S
H1994 C2004 0.930 . S
H1995 C2007 0.929 . S
H1996 C2010 0.930 . S
H1997 C2012 0.960 . S
H1998 C2012 0.960 . S
H1999 C2012 0.960 . S
C2000 H1992 0.929 . S
C2000 C2001 1.377 . S
C2000 C2002 1.384 . S
C2001 C2000 1.377 . S
C2001 C2007 1.390 . S
C2002 H1993 0.930 . S
C2002 C2000 1.384 . S
C2002 C2003 1.372 . S
C2003 C2002 1.372 . S
C2003 C2004 1.400 . S
C2003 C2008 1.490 . S
C2004 H1994 0.930 . S
C2004 C2003 1.400 . S
C2004 C2007 1.386 . S
H2005 C2021 0.930 . S
H2006 C2022 0.931 . S
C2007 H1995 0.929 . S
C2007 C2001 1.390 . S
C2007 C2004 1.386 . S
C2008 C2003 1.490 . S
C2008 C2010 1.395 . S
C2008 C2011 1.403 . S
H2009 C2015 0.930 . S
C2010 H1996 0.930 . S
C2010 C2008 1.395 . S
C2010 C2013 1.403 . S
C2011 C2008 1.403 . S
C2011 C2012 1.524 . S
C2011 C2015 1.400 . S
C2012 H1997 0.960 . S
C2012 H1998 0.960 . S
C2012 H1999 0.960 . S
C2012 C2011 1.524 . S
C2013 C2010 1.403 . S
C2013 C2014 1.392 . S
C2013 C2017 1.495 . S
C2014 C2013 1.392 . S
C2014 C2015 1.385 . S
C2014 C2016 1.478 . S
C2015 H2009 0.930 . S
C2015 C2011 1.400 . S
C2015 C2014 1.385 . S
C2016 C2014 1.478 . S
C2016 C2018 1.381 . S
C2016 C2022 1.383 . S
C2017 C2013 1.495 . S
C2017 H2023 0.959 . S
C2017 H2024 0.961 . S
C2017 H2025 0.960 . S
C2018 C2016 1.381 . S
C2018 C2019 1.394 . S
C2018 H2026 0.930 . S
C2019 C2018 1.394 . S
C2019 C2020 1.383 . S
C2019 H2027 0.929 . S
C2020 C2019 1.383 . S
C2020 C2021 1.377 . S
C2021 H2005 0.930 . S
C2021 C2020 1.377 . S
C2021 C2022 1.379 . S
C2022 H2006 0.931 . S
C2022 C2016 1.383 . S
C2022 C2021 1.379 . S
H2023 C2017 0.959 . S
H2024 C2017 0.961 . S
H2025 C2017 0.960 . S
H2026 C2018 0.930 . S
H2027 C2019 0.929 . S
H2028 C2036 0.929 . S
H2029 C2038 0.930 . S
H2030 C2040 0.930 . S
H2031 C2043 0.929 . S
H2032 C2046 0.930 . S
H2033 C2048 0.960 . S
H2034 C2048 0.960 . S
H2035 C2048 0.960 . S
C2036 H2028 0.929 . S
C2036 C2037 1.377 . S
C2036 C2038 1.384 . S
C2037 C2036 1.377 . S
C2037 C2043 1.390 . S
C2038 H2029 0.930 . S
C2038 C2036 1.384 . S
C2038 C2039 1.372 . S
C2039 C2038 1.372 . S
C2039 C2040 1.400 . S
C2039 C2044 1.490 . S
C2040 H2030 0.930 . S
C2040 C2039 1.400 . S
C2040 C2043 1.386 . S
H2041 C2057 0.930 . S
H2042 C2058 0.931 . S
C2043 H2031 0.929 . S
C2043 C2037 1.390 . S
C2043 C2040 1.386 . S
C2044 C2039 1.490 . S
C2044 C2046 1.395 . S
C2044 C2047 1.403 . S
H2045 C2051 0.930 . S
C2046 H2032 0.930 . S
C2046 C2044 1.395 . S
C2046 C2049 1.403 . S
C2047 C2044 1.403 . S
C2047 C2048 1.524 . S
C2047 C2051 1.400 . S
C2048 H2033 0.960 . S
C2048 H2034 0.960 . S
C2048 H2035 0.960 . S
C2048 C2047 1.524 . S
C2049 C2046 1.403 . S
C2049 C2050 1.392 . S
C2049 C2053 1.495 . S
C2050 C2049 1.392 . S
C2050 C2051 1.385 . S
C2050 C2052 1.478 . S
C2051 H2045 0.930 . S
C2051 C2047 1.400 . S
C2051 C2050 1.385 . S
C2052 C2050 1.478 . S
C2052 C2054 1.381 . S
C2052 C2058 1.383 . S
C2053 C2049 1.495 . S
C2053 H2059 0.959 . S
C2053 H2060 0.961 . S
C2053 H2061 0.960 . S
C2054 C2052 1.381 . S
C2054 C2055 1.394 1_556 S
C2054 H2062 0.930 . S
C2055 C2054 1.394 1_554 S
C2055 C2056 1.383 . S
C2055 H2063 0.929 . S
C2056 C2055 1.383 . S
C2056 C2057 1.377 . S
C2057 H2041 0.930 . S
C2057 C2056 1.377 . S
C2057 C2058 1.379 1_554 S
C2058 H2042 0.931 . S
C2058 C2052 1.383 . S
C2058 C2057 1.379 1_556 S
H2059 C2053 0.959 . S
H2060 C2053 0.961 . S
H2061 C2053 0.960 . S
H2062 C2054 0.930 . S
H2063 C2055 0.929 . S
H2064 C2072 0.929 . S
H2065 C2074 0.930 . S
H2066 C2076 0.930 . S
H2067 C2079 0.929 . S
H2068 C2082 0.930 . S
H2069 C2084 0.960 . S
H2070 C2084 0.960 . S
H2071 C2084 0.960 . S
C2072 H2064 0.929 . S
C2072 C2073 1.377 . S
C2072 C2074 1.384 1_554 S
C2073 C2072 1.377 . S
C2073 C2079 1.390 . S
C2074 H2065 0.930 . S
C2074 C2072 1.384 1_556 S
C2074 C2075 1.372 . S
C2075 C2074 1.372 . S
C2075 C2076 1.400 . S
C2075 C2080 1.490 . S
C2076 H2066 0.930 . S
C2076 C2075 1.400 . S
C2076 C2079 1.386 1_556 S
H2077 C2093 0.930 . S
H2078 C2094 0.931 . S
C2079 H2067 0.929 . S
C2079 C2073 1.390 . S
C2079 C2076 1.386 1_554 S
C2080 C2075 1.490 . S
C2080 C2082 1.395 . S
C2080 C2083 1.403 . S
H2081 C2087 0.930 . S
C2082 H2068 0.930 . S
C2082 C2080 1.395 . S
C2082 C2085 1.403 . S
C2083 C2080 1.403 . S
C2083 C2084 1.524 . S
C2083 C2087 1.400 . S
C2084 H2069 0.960 . S
C2084 H2070 0.960 . S
C2084 H2071 0.960 . S
C2084 C2083 1.524 . S
C2085 C2082 1.403 . S
C2085 C2086 1.392 . S
C2085 C2089 1.495 . S
C2086 C2085 1.392 . S
C2086 C2087 1.385 . S
C2086 C2088 1.478 . S
C2087 H2081 0.930 . S
C2087 C2083 1.400 . S
C2087 C2086 1.385 . S
C2088 C2086 1.478 . S
C2088 C2090 1.381 . S
C2088 C2094 1.383 . S
C2089 C2085 1.495 . S
C2089 H2095 0.959 . S
C2089 H2096 0.961 . S
C2089 H2097 0.960 . S
C2090 C2088 1.381 . S
C2090 C2091 1.394 . S
C2090 H2098 0.930 . S
C2091 C2090 1.394 . S
C2091 C2092 1.383 . S
C2091 H2099 0.929 . S
C2092 C2091 1.383 . S
C2092 C2093 1.377 . S
C2093 H2077 0.930 . S
C2093 C2092 1.377 . S
C2093 C2094 1.379 . S
C2094 H2078 0.931 . S
C2094 C2088 1.383 . S
C2094 C2093 1.379 . S
H2095 C2089 0.959 . S
H2096 C2089 0.961 . S
H2097 C2089 0.960 . S
H2098 C2090 0.930 . S
H2099 C2091 0.929 . S
H2100 C2108 0.929 . S
H2101 C2110 0.930 . S
H2102 C2112 0.930 . S
H2103 C2115 0.929 . S
H2104 C2118 0.930 . S
H2105 C2120 0.960 . S
H2106 C2120 0.960 . S
H2107 C2120 0.960 . S
C2108 H2100 0.929 . S
C2108 C2109 1.377 . S
C2108 C2110 1.384 . S
C2109 C2108 1.377 . S
C2109 C2115 1.390 . S
C2110 H2101 0.930 . S
C2110 C2108 1.384 . S
C2110 C2111 1.372 . S
C2111 C2110 1.372 . S
C2111 C2112 1.400 . S
C2111 C2116 1.490 . S
C2112 H2102 0.930 . S
C2112 C2111 1.400 . S
C2112 C2115 1.386 . S
H2113 C2129 0.930 . S
H2114 C2130 0.931 . S
C2115 H2103 0.929 . S
C2115 C2109 1.390 . S
C2115 C2112 1.386 . S
C2116 C2111 1.490 . S
C2116 C2118 1.395 . S
C2116 C2119 1.403 . S
H2117 C2123 0.930 . S
C2118 H2104 0.930 . S
C2118 C2116 1.395 . S
C2118 C2121 1.403 . S
C2119 C2116 1.403 . S
C2119 C2120 1.524 . S
C2119 C2123 1.400 . S
C2120 H2105 0.960 . S
C2120 H2106 0.960 . S
C2120 H2107 0.960 . S
C2120 C2119 1.524 . S
C2121 C2118 1.403 . S
C2121 C2122 1.392 . S
C2121 C2125 1.495 . S
C2122 C2121 1.392 . S
C2122 C2123 1.385 . S
C2122 C2124 1.478 . S
C2123 H2117 0.930 . S
C2123 C2119 1.400 . S
C2123 C2122 1.385 . S
C2124 C2122 1.478 . S
C2124 C2126 1.381 . S
C2124 C2130 1.383 . S
C2125 C2121 1.495 . S
C2125 H2131 0.959 . S
C2125 H2132 0.961 . S
C2125 H2133 0.960 . S
C2126 C2124 1.381 . S
C2126 C2127 1.394 . S
C2126 H2134 0.930 . S
C2127 C2126 1.394 . S
C2127 C2128 1.383 . S
C2127 H2135 0.929 . S
C2128 C2127 1.383 . S
C2128 C2129 1.377 . S
C2129 H2113 0.930 . S
C2129 C2128 1.377 . S
C2129 C2130 1.379 . S
C2130 H2114 0.931 . S
C2130 C2124 1.383 . S
C2130 C2129 1.379 . S
H2131 C2125 0.959 . S
H2132 C2125 0.961 . S
H2133 C2125 0.960 . S
H2134 C2126 0.930 . S
H2135 C2127 0.929 . S
H2136 C2144 0.929 . S
H2137 C2146 0.930 . S
H2138 C2148 0.930 . S
H2139 C2151 0.929 . S
H2140 C2154 0.930 . S
H2141 C2156 0.960 . S
H2142 C2156 0.960 . S
H2143 C2156 0.960 . S
C2144 H2136 0.929 . S
C2144 C2145 1.377 . S
C2144 C2146 1.384 . S
C2145 C2144 1.377 . S
C2145 C2151 1.390 . S
C2146 H2137 0.930 . S
C2146 C2144 1.384 . S
C2146 C2147 1.372 . S
C2147 C2146 1.372 . S
C2147 C2148 1.400 . S
C2147 C2152 1.490 . S
C2148 H2138 0.930 . S
C2148 C2147 1.400 . S
C2148 C2151 1.386 . S
H2149 C2165 0.930 . S
H2150 C2166 0.931 . S
C2151 H2139 0.929 . S
C2151 C2145 1.390 . S
C2151 C2148 1.386 . S
C2152 C2147 1.490 . S
C2152 C2154 1.395 . S
C2152 C2155 1.403 . S
H2153 C2159 0.930 . S
C2154 H2140 0.930 . S
C2154 C2152 1.395 . S
C2154 C2157 1.403 . S
C2155 C2152 1.403 . S
C2155 C2156 1.524 . S
C2155 C2159 1.400 . S
C2156 H2141 0.960 . S
C2156 H2142 0.960 . S
C2156 H2143 0.960 . S
C2156 C2155 1.524 . S
C2157 C2154 1.403 . S
C2157 C2158 1.392 . S
C2157 C2161 1.495 . S
C2158 C2157 1.392 . S
C2158 C2159 1.385 . S
C2158 C2160 1.478 . S
C2159 H2153 0.930 . S
C2159 C2155 1.400 . S
C2159 C2158 1.385 . S
C2160 C2158 1.478 . S
C2160 C2162 1.381 . S
C2160 C2166 1.383 . S
C2161 C2157 1.495 . S
C2161 H2167 0.959 . S
C2161 H2168 0.961 . S
C2161 H2169 0.960 . S
C2162 C2160 1.381 . S
C2162 C2163 1.394 . S
C2162 H2170 0.930 . S
C2163 C2162 1.394 . S
C2163 C2164 1.383 . S
C2163 H2171 0.929 . S
C2164 C2163 1.383 . S
C2164 C2165 1.377 . S
C2165 H2149 0.930 . S
C2165 C2164 1.377 . S
C2165 C2166 1.379 . S
C2166 H2150 0.931 . S
C2166 C2160 1.383 . S
C2166 C2165 1.379 . S
H2167 C2161 0.959 . S
H2168 C2161 0.961 . S
H2169 C2161 0.960 . S
H2170 C2162 0.930 . S
H2171 C2163 0.929 . S
H2172 C2180 0.929 . S
H2173 C2182 0.930 . S
H2174 C2184 0.930 . S
H2175 C2187 0.929 . S
H2176 C2190 0.930 . S
H2177 C2192 0.960 . S
H2178 C2192 0.960 . S
H2179 C2192 0.960 . S
C2180 H2172 0.929 . S
C2180 C2181 1.377 . S
C2180 C2182 1.384 . S
C2181 C2180 1.377 . S
C2181 C2187 1.390 . S
C2182 H2173 0.930 . S
C2182 C2180 1.384 . S
C2182 C2183 1.372 . S
C2183 C2182 1.372 . S
C2183 C2184 1.400 . S
C2183 C2188 1.490 . S
C2184 H2174 0.930 . S
C2184 C2183 1.400 . S
C2184 C2187 1.386 . S
H2185 C2201 0.930 . S
H2186 C2202 0.931 . S
C2187 H2175 0.929 . S
C2187 C2181 1.390 . S
C2187 C2184 1.386 . S
C2188 C2183 1.490 . S
C2188 C2190 1.395 . S
C2188 C2191 1.403 . S
H2189 C2195 0.930 . S
C2190 H2176 0.930 . S
C2190 C2188 1.395 . S
C2190 C2193 1.403 . S
C2191 C2188 1.403 . S
C2191 C2192 1.524 . S
C2191 C2195 1.400 . S
C2192 H2177 0.960 . S
C2192 H2178 0.960 . S
C2192 H2179 0.960 . S
C2192 C2191 1.524 . S
C2193 C2190 1.403 . S
C2193 C2194 1.392 . S
C2193 C2197 1.495 . S
C2194 C2193 1.392 . S
C2194 C2195 1.385 . S
C2194 C2196 1.478 . S
C2195 H2189 0.930 . S
C2195 C2191 1.400 . S
C2195 C2194 1.385 . S
C2196 C2194 1.478 . S
C2196 C2198 1.381 . S
C2196 C2202 1.383 . S
C2197 C2193 1.495 . S
C2197 H2203 0.959 . S
C2197 H2204 0.961 . S
C2197 H2205 0.960 . S
C2198 C2196 1.381 . S
C2198 C2199 1.394 1_554 S
C2198 H2206 0.930 . S
C2199 C2198 1.394 1_556 S
C2199 C2200 1.383 . S
C2199 H2207 0.929 . S
C2200 C2199 1.383 . S
C2200 C2201 1.377 . S
C2201 H2185 0.930 . S
C2201 C2200 1.377 . S
C2201 C2202 1.379 1_556 S
C2202 H2186 0.931 . S
C2202 C2196 1.383 . S
C2202 C2201 1.379 1_554 S
H2203 C2197 0.959 . S
H2204 C2197 0.961 . S
H2205 C2197 0.960 . S
H2206 C2198 0.930 . S
H2207 C2199 0.929 . S
H2208 C2216 0.929 . S
H2209 C2218 0.930 . S
H2210 C2220 0.930 . S
H2211 C2223 0.929 . S
H2212 C2226 0.930 . S
H2213 C2228 0.960 . S
H2214 C2228 0.960 . S
H2215 C2228 0.960 . S
C2216 H2208 0.929 . S
C2216 C2217 1.377 . S
C2216 C2218 1.384 . S
C2217 C2216 1.377 . S
C2217 C2223 1.390 . S
C2218 H2209 0.930 . S
C2218 C2216 1.384 . S
C2218 C2219 1.372 . S
C2219 C2218 1.372 . S
C2219 C2220 1.400 . S
C2219 C2224 1.490 . S
C2220 H2210 0.930 . S
C2220 C2219 1.400 . S
C2220 C2223 1.386 . S
H2221 C2237 0.930 . S
H2222 C2238 0.931 . S
C2223 H2211 0.929 . S
C2223 C2217 1.390 . S
C2223 C2220 1.386 . S
C2224 C2219 1.490 . S
C2224 C2226 1.395 . S
C2224 C2227 1.403 . S
H2225 C2231 0.930 . S
C2226 H2212 0.930 . S
C2226 C2224 1.395 . S
C2226 C2229 1.403 . S
C2227 C2224 1.403 . S
C2227 C2228 1.524 . S
C2227 C2231 1.400 . S
C2228 H2213 0.960 . S
C2228 H2214 0.960 . S
C2228 H2215 0.960 . S
C2228 C2227 1.524 . S
C2229 C2226 1.403 . S
C2229 C2230 1.392 . S
C2229 C2233 1.495 . S
C2230 C2229 1.392 . S
C2230 C2231 1.385 . S
C2230 C2232 1.478 . S
C2231 H2225 0.930 . S
C2231 C2227 1.400 . S
C2231 C2230 1.385 . S
C2232 C2230 1.478 . S
C2232 C2234 1.381 . S
C2232 C2238 1.383 . S
C2233 C2229 1.495 . S
C2233 H2239 0.959 . S
C2233 H2240 0.961 . S
C2233 H2241 0.960 . S
C2234 C2232 1.381 . S
C2234 C2235 1.394 . S
C2234 H2242 0.930 . S
C2235 C2234 1.394 . S
C2235 C2236 1.383 . S
C2235 H2243 0.929 . S
C2236 C2235 1.383 . S
C2236 C2237 1.377 . S
C2237 H2221 0.930 . S
C2237 C2236 1.377 . S
C2237 C2238 1.379 . S
C2238 H2222 0.931 . S
C2238 C2232 1.383 . S
C2238 C2237 1.379 . S
H2239 C2233 0.959 . S
H2240 C2233 0.961 . S
H2241 C2233 0.960 . S
H2242 C2234 0.930 . S
H2243 C2235 0.929 . S
H2244 C2252 0.929 . S
H2245 C2254 0.930 . S
H2246 C2256 0.930 . S
H2247 C2259 0.929 . S
H2248 C2262 0.930 . S
H2249 C2264 0.960 . S
H2250 C2264 0.960 . S
H2251 C2264 0.960 . S
C2252 H2244 0.929 . S
C2252 C2253 1.377 . S
C2252 C2254 1.384 . S
C2253 C2252 1.377 . S
C2253 C2259 1.390 . S
C2254 H2245 0.930 . S
C2254 C2252 1.384 . S
C2254 C2255 1.372 . S
C2255 C2254 1.372 . S
C2255 C2256 1.400 . S
C2255 C2260 1.490 . S
C2256 H2246 0.930 . S
C2256 C2255 1.400 . S
C2256 C2259 1.386 . S
H2257 C2273 0.930 . S
H2258 C2274 0.931 . S
C2259 H2247 0.929 . S
C2259 C2253 1.390 . S
C2259 C2256 1.386 . S
C2260 C2255 1.490 . S
C2260 C2262 1.395 . S
C2260 C2263 1.403 . S
H2261 C2267 0.930 . S
C2262 H2248 0.930 . S
C2262 C2260 1.395 . S
C2262 C2265 1.403 1_565 S
C2263 C2260 1.403 . S
C2263 C2264 1.524 . S
C2263 C2267 1.400 1_565 S
C2264 H2249 0.960 . S
C2264 H2250 0.960 . S
C2264 H2251 0.960 . S
C2264 C2263 1.524 . S
C2265 C2262 1.403 1_545 S
C2265 C2266 1.392 . S
C2265 C2269 1.495 . S
C2266 C2265 1.392 . S
C2266 C2267 1.385 . S
C2266 C2268 1.478 . S
C2267 H2261 0.930 . S
C2267 C2263 1.400 1_545 S
C2267 C2266 1.385 . S
C2268 C2266 1.478 . S
C2268 C2270 1.381 . S
C2268 C2274 1.383 . S
C2269 C2265 1.495 . S
C2269 H2275 0.959 . S
C2269 H2276 0.961 . S
C2269 H2277 0.960 . S
C2270 C2268 1.381 . S
C2270 C2271 1.394 . S
C2270 H2278 0.930 . S
C2271 C2270 1.394 . S
C2271 C2272 1.383 . S
C2271 H2279 0.929 . S
C2272 C2271 1.383 . S
C2272 C2273 1.377 . S
C2273 H2257 0.930 . S
C2273 C2272 1.377 . S
C2273 C2274 1.379 . S
C2274 H2258 0.931 . S
C2274 C2268 1.383 . S
C2274 C2273 1.379 . S
H2275 C2269 0.959 . S
H2276 C2269 0.961 . S
H2277 C2269 0.960 . S
H2278 C2270 0.930 . S
H2279 C2271 0.929 . S
H2280 C2288 0.929 . S
H2281 C2290 0.930 . S
H2282 C2292 0.930 . S
H2283 C2295 0.929 . S
H2284 C2298 0.930 . S
H2285 C2300 0.960 . S
H2286 C2300 0.960 . S
H2287 C2300 0.960 . S
C2288 H2280 0.929 . S
C2288 C2289 1.377 . S
C2288 C2290 1.384 . S
C2289 C2288 1.377 . S
C2289 C2295 1.390 . S
C2290 H2281 0.930 . S
C2290 C2288 1.384 . S
C2290 C2291 1.372 . S
C2291 C2290 1.372 . S
C2291 C2292 1.400 . S
C2291 C2296 1.490 . S
C2292 H2282 0.930 . S
C2292 C2291 1.400 . S
C2292 C2295 1.386 . S
H2293 C2309 0.930 . S
H2294 C2310 0.931 . S
C2295 H2283 0.929 . S
C2295 C2289 1.390 . S
C2295 C2292 1.386 . S
C2296 C2291 1.490 . S
C2296 C2298 1.395 . S
C2296 C2299 1.403 1_554 S
H2297 C2303 0.930 . S
C2298 H2284 0.930 . S
C2298 C2296 1.395 . S
C2298 C2301 1.403 . S
C2299 C2296 1.403 1_556 S
C2299 C2300 1.524 . S
C2299 C2303 1.400 . S
C2300 H2285 0.960 . S
C2300 H2286 0.960 . S
C2300 H2287 0.960 . S
C2300 C2299 1.524 . S
C2301 C2298 1.403 . S
C2301 C2302 1.392 1_554 S
C2301 C2305 1.495 . S
C2302 C2301 1.392 1_556 S
C2302 C2303 1.385 . S
C2302 C2304 1.478 . S
C2303 H2297 0.930 . S
C2303 C2299 1.400 . S
C2303 C2302 1.385 . S
C2304 C2302 1.478 . S
C2304 C2306 1.381 . S
C2304 C2310 1.383 . S
C2305 C2301 1.495 . S
C2305 H2311 0.959 . S
C2305 H2312 0.961 . S
C2305 H2313 0.960 . S
C2306 C2304 1.381 . S
C2306 C2307 1.394 . S
C2306 H2314 0.930 . S
C2307 C2306 1.394 . S
C2307 C2308 1.383 . S
C2307 H2315 0.929 . S
C2308 C2307 1.383 . S
C2308 C2309 1.377 . S
C2309 H2293 0.930 . S
C2309 C2308 1.377 . S
C2309 C2310 1.379 . S
C2310 H2294 0.931 . S
C2310 C2304 1.383 . S
C2310 C2309 1.379 . S
H2311 C2305 0.959 . S
H2312 C2305 0.961 . S
H2313 C2305 0.960 . S
H2314 C2306 0.930 . S
H2315 C2307 0.929 . S
H2316 C2324 0.929 . S
H2317 C2326 0.930 . S
H2318 C2328 0.930 . S
H2319 C2331 0.929 . S
H2320 C2334 0.930 . S
H2321 C2336 0.960 . S
H2322 C2336 0.960 . S
H2323 C2336 0.960 . S
C2324 H2316 0.929 . S
C2324 C2325 1.377 . S
C2324 C2326 1.384 . S
C2325 C2324 1.377 . S
C2325 C2331 1.390 . S
C2326 H2317 0.930 . S
C2326 C2324 1.384 . S
C2326 C2327 1.372 . S
C2327 C2326 1.372 . S
C2327 C2328 1.400 . S
C2327 C2332 1.490 . S
C2328 H2318 0.930 . S
C2328 C2327 1.400 . S
C2328 C2331 1.386 . S
H2329 C2345 0.930 . S
H2330 C2346 0.931 . S
C2331 H2319 0.929 . S
C2331 C2325 1.390 . S
C2331 C2328 1.386 . S
C2332 C2327 1.490 . S
C2332 C2334 1.395 . S
C2332 C2335 1.403 . S
H2333 C2339 0.930 . S
C2334 H2320 0.930 . S
C2334 C2332 1.395 . S
C2334 C2337 1.403 1_565 S
C2335 C2332 1.403 . S
C2335 C2336 1.524 . S
C2335 C2339 1.400 1_565 S
C2336 H2321 0.960 . S
C2336 H2322 0.960 . S
C2336 H2323 0.960 . S
C2336 C2335 1.524 . S
C2337 C2334 1.403 1_545 S
C2337 C2338 1.392 . S
C2337 C2341 1.495 . S
C2338 C2337 1.392 . S
C2338 C2339 1.385 . S
C2338 C2340 1.478 . S
C2339 H2333 0.930 . S
C2339 C2335 1.400 1_545 S
C2339 C2338 1.385 . S
C2340 C2338 1.478 . S
C2340 C2342 1.381 . S
C2340 C2346 1.383 . S
C2341 C2337 1.495 . S
C2341 H2347 0.959 . S
C2341 H2348 0.961 . S
C2341 H2349 0.960 . S
C2342 C2340 1.381 . S
C2342 C2343 1.394 . S
C2342 H2350 0.930 . S
C2343 C2342 1.394 . S
C2343 C2344 1.383 . S
C2343 H2351 0.929 . S
C2344 C2343 1.383 . S
C2344 C2345 1.377 . S
C2345 H2329 0.930 . S
C2345 C2344 1.377 . S
C2345 C2346 1.379 . S
C2346 H2330 0.931 . S
C2346 C2340 1.383 . S
C2346 C2345 1.379 . S
H2347 C2341 0.959 . S
H2348 C2341 0.961 . S
H2349 C2341 0.960 . S
H2350 C2342 0.930 . S
H2351 C2343 0.929 . S
H2352 C2360 0.929 . S
H2353 C2362 0.930 . S
H2354 C2364 0.930 . S
H2355 C2367 0.929 . S
H2356 C2370 0.930 . S
H2357 C2372 0.960 . S
H2358 C2372 0.960 . S
H2359 C2372 0.960 . S
C2360 H2352 0.929 . S
C2360 C2361 1.377 . S
C2360 C2362 1.384 . S
C2361 C2360 1.377 . S
C2361 C2367 1.390 . S
C2362 H2353 0.930 . S
C2362 C2360 1.384 . S
C2362 C2363 1.372 . S
C2363 C2362 1.372 . S
C2363 C2364 1.400 . S
C2363 C2368 1.490 . S
C2364 H2354 0.930 . S
C2364 C2363 1.400 . S
C2364 C2367 1.386 . S
H2365 C2381 0.930 . S
H2366 C2382 0.931 . S
C2367 H2355 0.929 . S
C2367 C2361 1.390 . S
C2367 C2364 1.386 . S
C2368 C2363 1.490 . S
C2368 C2370 1.395 . S
C2368 C2371 1.403 . S
H2369 C2375 0.930 . S
C2370 H2356 0.930 . S
C2370 C2368 1.395 . S
C2370 C2373 1.403 . S
C2371 C2368 1.403 . S
C2371 C2372 1.524 . S
C2371 C2375 1.400 . S
C2372 H2357 0.960 . S
C2372 H2358 0.960 . S
C2372 H2359 0.960 . S
C2372 C2371 1.524 . S
C2373 C2370 1.403 . S
C2373 C2374 1.392 . S
C2373 C2377 1.495 . S
C2374 C2373 1.392 . S
C2374 C2375 1.385 . S
C2374 C2376 1.478 . S
C2375 H2369 0.930 . S
C2375 C2371 1.400 . S
C2375 C2374 1.385 . S
C2376 C2374 1.478 . S
C2376 C2378 1.381 . S
C2376 C2382 1.383 . S
C2377 C2373 1.495 . S
C2377 H2383 0.959 . S
C2377 H2384 0.961 . S
C2377 H2385 0.960 . S
C2378 C2376 1.381 . S
C2378 C2379 1.394 . S
C2378 H2386 0.930 . S
C2379 C2378 1.394 . S
C2379 C2380 1.383 . S
C2379 H2387 0.929 . S
C2380 C2379 1.383 . S
C2380 C2381 1.377 . S
C2381 H2365 0.930 . S
C2381 C2380 1.377 . S
C2381 C2382 1.379 . S
C2382 H2366 0.931 . S
C2382 C2376 1.383 . S
C2382 C2381 1.379 . S
H2383 C2377 0.959 . S
H2384 C2377 0.961 . S
H2385 C2377 0.960 . S
H2386 C2378 0.930 . S
H2387 C2379 0.929 . S
H2388 C2396 0.929 . S
H2389 C2398 0.930 . S
H2390 C2400 0.930 . S
H2391 C2403 0.929 . S
H2392 C2406 0.933 . S
H2393 C2408 0.960 . S
H2394 C2408 0.960 . S
H2395 C2408 0.960 . S
C2396 H2388 0.929 . S
C2396 C2397 1.377 . S
C2396 C2398 1.384 . S
C2397 C2396 1.377 . S
C2397 C2403 1.390 . S
C2398 H2389 0.930 . S
C2398 C2396 1.384 . S
C2398 C2399 1.372 . S
C2399 C2398 1.372 . S
C2399 C2400 1.400 . S
C2399 C2404 1.490 . S
C2400 H2390 0.930 . S
C2400 C2399 1.400 . S
C2400 C2403 1.386 . S
H2401 C2417 0.930 . S
H2402 C2418 0.931 . S
C2403 H2391 0.929 . S
C2403 C2397 1.390 . S
C2403 C2400 1.386 . S
C2404 C2399 1.490 . S
C2404 C2406 1.418 . S
C2404 C2407 1.403 . S
H2405 C2411 0.930 . S
C2406 H2392 0.933 . S
C2406 C2404 1.418 . S
C2406 C2409 1.378 1_565 S
C2407 C2404 1.403 . S
C2407 C2408 1.524 . S
C2407 C2411 1.400 1_565 S
C2408 H2393 0.960 . S
C2408 H2394 0.960 . S
C2408 H2395 0.960 . S
C2408 C2407 1.524 . S
C2409 C2406 1.378 1_545 S
C2409 C2410 1.392 . S
C2409 C2413 1.495 . S
C2410 C2409 1.392 . S
C2410 C2411 1.385 . S
C2410 C2412 1.478 . S
C2411 H2405 0.930 . S
C2411 C2407 1.400 1_545 S
C2411 C2410 1.385 . S
C2412 C2410 1.478 . S
C2412 C2414 1.381 . S
C2412 C2418 1.383 . S
C2413 C2409 1.495 . S
C2413 H2419 0.959 . S
C2413 H2420 0.961 . S
C2413 H2421 0.960 . S
C2414 C2412 1.381 . S
C2414 C2415 1.394 . S
C2414 H2422 0.930 . S
C2415 C2414 1.394 . S
C2415 C2416 1.383 . S
C2415 H2423 0.929 . S
C2416 C2415 1.383 . S
C2416 C2417 1.377 . S
C2417 H2401 0.930 . S
C2417 C2416 1.377 . S
C2417 C2418 1.379 . S
C2418 H2402 0.931 . S
C2418 C2412 1.383 . S
C2418 C2417 1.379 . S
H2419 C2413 0.959 . S
H2420 C2413 0.961 . S
H2421 C2413 0.960 . S
H2422 C2414 0.930 . S
H2423 C2415 0.929 . S
H2424 C2432 0.929 . S
H2425 C2434 0.930 1_554 S
H2426 C2436 0.930 . S
H2427 C2439 0.929 . S
H2428 C2442 0.930 . S
H2429 C2444 0.960 . S
H2430 C2444 0.960 . S
H2431 C2444 0.960 . S
C2432 H2424 0.929 . S
C2432 C2433 1.377 . S
C2432 C2434 1.384 . S
C2433 C2432 1.377 . S
C2433 C2439 1.390 . S
C2434 H2425 0.930 1_556 S
C2434 C2432 1.384 . S
C2434 C2435 1.372 . S
C2435 C2434 1.372 . S
C2435 C2436 1.400 . S
C2435 C2440 1.490 . S
C2436 H2426 0.930 . S
C2436 C2435 1.400 . S
C2436 C2439 1.386 . S
H2437 C2453 0.930 . S
H2438 C2454 0.931 . S
C2439 H2427 0.929 . S
C2439 C2433 1.390 . S
C2439 C2436 1.386 . S
C2440 C2435 1.490 . S
C2440 C2442 1.395 1_556 S
C2440 C2443 1.403 . S
H2441 C2447 0.930 . S
C2442 H2428 0.930 . S
C2442 C2440 1.395 1_554 S
C2442 C2445 1.403 . S
C2443 C2440 1.403 . S
C2443 C2444 1.524 . S
C2443 C2447 1.400 . S
C2444 H2429 0.960 . S
C2444 H2430 0.960 . S
C2444 H2431 0.960 . S
C2444 C2443 1.524 . S
C2445 C2442 1.403 . S
C2445 C2446 1.392 . S
C2445 C2449 1.495 . S
C2446 C2445 1.392 . S
C2446 C2447 1.385 1_554 S
C2446 C2448 1.478 . S
C2447 H2441 0.930 . S
C2447 C2443 1.400 . S
C2447 C2446 1.385 1_556 S
C2448 C2446 1.478 . S
C2448 C2450 1.381 . S
C2448 C2454 1.383 . S
C2449 C2445 1.495 . S
C2449 H2455 0.959 . S
C2449 H2456 0.961 . S
C2449 H2457 0.960 . S
C2450 C2448 1.381 . S
C2450 C2451 1.394 . S
C2450 H2458 0.930 . S
C2451 C2450 1.394 . S
C2451 C2452 1.383 . S
C2451 H2459 0.929 . S
C2452 C2451 1.383 . S
C2452 C2453 1.377 . S
C2453 H2437 0.930 . S
C2453 C2452 1.377 . S
C2453 C2454 1.379 . S
C2454 H2438 0.931 . S
C2454 C2448 1.383 . S
C2454 C2453 1.379 . S
H2455 C2449 0.959 . S
H2456 C2449 0.961 . S
H2457 C2449 0.960 . S
H2458 C2450 0.930 . S
H2459 C2451 0.929 . S
H2460 C2468 0.929 . S
H2461 C2470 0.930 . S
H2462 C2472 0.930 . S
H2463 C2475 0.929 . S
H2464 C2478 0.930 . S
H2465 C2480 0.960 1_565 S
H2466 C2480 0.960 . S
H2467 C2480 0.960 . S
C2468 H2460 0.929 . S
C2468 C2469 1.377 . S
C2468 C2470 1.384 . S
C2469 C2468 1.377 . S
C2469 C2475 1.390 . S
C2470 H2461 0.930 . S
C2470 C2468 1.384 . S
C2470 C2471 1.372 . S
C2471 C2470 1.372 . S
C2471 C2472 1.400 . S
C2471 C2476 1.490 . S
C2472 H2462 0.930 . S
C2472 C2471 1.400 . S
C2472 C2475 1.386 . S
H2473 C2489 0.930 . S
H2474 C2490 0.931 . S
C2475 H2463 0.929 . S
C2475 C2469 1.390 . S
C2475 C2472 1.386 . S
C2476 C2471 1.490 . S
C2476 C2478 1.395 . S
C2476 C2479 1.403 . S
H2477 C2483 0.930 . S
C2478 H2464 0.930 . S
C2478 C2476 1.395 . S
C2478 C2481 1.342 1_545 S
C2479 C2476 1.403 . S
C2479 C2480 1.524 . S
C2479 C2483 1.400 1_545 S
C2480 H2465 0.960 1_545 S
C2480 H2466 0.960 . S
C2480 H2467 0.960 . S
C2480 C2479 1.524 . S
C2481 C2478 1.342 1_565 S
C2481 C2482 1.448 . S
C2481 C2485 1.502 . S
C2482 C2481 1.448 . S
C2482 C2483 1.385 . S
C2482 C2484 1.478 . S
C2483 H2477 0.930 . S
C2483 C2479 1.400 1_565 S
C2483 C2482 1.385 . S
C2484 C2482 1.478 . S
C2484 C2486 1.381 . S
C2484 C2490 1.383 . S
C2485 C2481 1.502 . S
C2485 H2491 0.959 1_565 S
C2485 H2492 0.961 . S
C2485 H2493 0.960 . S
C2486 C2484 1.381 . S
C2486 C2487 1.394 . S
C2486 H2494 0.930 . S
C2487 C2486 1.394 . S
C2487 C2488 1.383 . S
C2487 H2495 0.929 . S
C2488 C2487 1.383 . S
C2488 C2489 1.377 . S
C2489 H2473 0.930 . S
C2489 C2488 1.377 . S
C2489 C2490 1.379 . S
C2490 H2474 0.931 . S
C2490 C2484 1.383 . S
C2490 C2489 1.379 . S
H2491 C2485 0.959 1_545 S
H2492 C2485 0.961 . S
H2493 C2485 0.960 . S
H2494 C2486 0.930 . S
H2495 C2487 0.929 . S
H2496 C2504 0.929 . S
H2497 C2506 0.930 . S
H2498 C2508 0.930 . S
H2499 C2511 0.929 . S
H2500 C2514 0.930 . S
H2501 C2516 0.960 . S
H2502 C2516 0.960 . S
H2503 C2516 0.960 . S
C2504 H2496 0.929 . S
C2504 C2505 1.377 . S
C2504 C2506 1.384 . S
C2505 C2504 1.377 . S
C2505 C2511 1.390 . S
C2506 H2497 0.930 . S
C2506 C2504 1.384 . S
C2506 C2507 1.372 . S
C2507 C2506 1.372 . S
C2507 C2508 1.400 . S
C2507 C2512 1.490 . S
C2508 H2498 0.930 . S
C2508 C2507 1.400 . S
C2508 C2511 1.386 . S
H2509 C2525 0.930 . S
H2510 C2526 0.931 . S
C2511 H2499 0.929 . S
C2511 C2505 1.390 . S
C2511 C2508 1.386 . S
C2512 C2507 1.490 . S
C2512 C2514 1.395 . S
C2512 C2515 1.403 1_556 S
H2513 C2519 0.930 . S
C2514 H2500 0.930 . S
C2514 C2512 1.395 . S
C2514 C2517 1.403 . S
C2515 C2512 1.403 1_554 S
C2515 C2516 1.524 . S
C2515 C2519 1.400 . S
C2516 H2501 0.960 . S
C2516 H2502 0.960 . S
C2516 H2503 0.960 . S
C2516 C2515 1.524 . S
C2517 C2514 1.403 . S
C2517 C2518 1.392 1_556 S
C2517 C2521 1.495 . S
C2518 C2517 1.392 1_554 S
C2518 C2519 1.385 . S
C2518 C2520 1.478 . S
C2519 H2513 0.930 . S
C2519 C2515 1.400 . S
C2519 C2518 1.385 . S
C2520 C2518 1.478 . S
C2520 C2522 1.381 . S
C2520 C2526 1.383 . S
C2521 C2517 1.495 . S
C2521 H2527 0.959 . S
C2521 H2528 0.961 . S
C2521 H2529 0.960 . S
C2522 C2520 1.381 . S
C2522 C2523 1.394 . S
C2522 H2530 0.930 . S
C2523 C2522 1.394 . S
C2523 C2524 1.383 . S
C2523 H2531 0.929 . S
C2524 C2523 1.383 . S
C2524 C2525 1.377 . S
C2525 H2509 0.930 . S
C2525 C2524 1.377 . S
C2525 C2526 1.379 . S
C2526 H2510 0.931 . S
C2526 C2520 1.383 . S
C2526 C2525 1.379 . S
H2527 C2521 0.959 . S
H2528 C2521 0.961 . S
H2529 C2521 0.960 . S
H2530 C2522 0.930 . S
H2531 C2523 0.929 . S
H2532 C2540 0.929 . S
H2533 C2542 0.930 . S
H2534 C2544 0.930 . S
H2535 C2547 0.929 . S
H2536 C2550 0.930 . S
H2537 C2552 0.960 . S
H2538 C2552 0.960 . S
H2539 C2552 0.960 . S
C2540 H2532 0.929 . S
C2540 C2541 1.377 . S
C2540 C2542 1.384 . S
C2541 C2540 1.377 . S
C2541 C2547 1.390 . S
C2542 H2533 0.930 . S
C2542 C2540 1.384 . S
C2542 C2543 1.372 . S
C2543 C2542 1.372 . S
C2543 C2544 1.400 . S
C2543 C2548 1.490 . S
C2544 H2534 0.930 . S
C2544 C2543 1.400 . S
C2544 C2547 1.386 . S
H2545 C2561 0.930 . S
H2546 C2562 0.931 . S
C2547 H2535 0.929 . S
C2547 C2541 1.390 . S
C2547 C2544 1.386 . S
C2548 C2543 1.490 . S
C2548 C2550 1.395 . S
C2548 C2551 1.403 . S
H2549 C2555 0.930 . S
C2550 H2536 0.930 . S
C2550 C2548 1.395 . S
C2550 C2553 1.403 . S
C2551 C2548 1.403 . S
C2551 C2552 1.524 . S
C2551 C2555 1.400 . S
C2552 H2537 0.960 . S
C2552 H2538 0.960 . S
C2552 H2539 0.960 . S
C2552 C2551 1.524 . S
C2553 C2550 1.403 . S
C2553 C2554 1.392 . S
C2553 C2557 1.495 . S
C2554 C2553 1.392 . S
C2554 C2555 1.385 . S
C2554 C2556 1.478 . S
C2555 H2549 0.930 . S
C2555 C2551 1.400 . S
C2555 C2554 1.385 . S
C2556 C2554 1.478 . S
C2556 C2558 1.381 . S
C2556 C2562 1.383 . S
C2557 C2553 1.495 . S
C2557 H2563 0.959 . S
C2557 H2564 0.961 . S
C2557 H2565 0.960 . S
C2558 C2556 1.381 . S
C2558 C2559 1.394 . S
C2558 H2566 0.930 . S
C2559 C2558 1.394 . S
C2559 C2560 1.383 . S
C2559 H2567 0.929 . S
C2560 C2559 1.383 . S
C2560 C2561 1.377 . S
C2561 H2545 0.930 . S
C2561 C2560 1.377 . S
C2561 C2562 1.379 . S
C2562 H2546 0.931 . S
C2562 C2556 1.383 . S
C2562 C2561 1.379 . S
H2563 C2557 0.959 . S
H2564 C2557 0.961 . S
H2565 C2557 0.960 . S
H2566 C2558 0.930 . S
H2567 C2559 0.929 . S
H2568 C2576 0.929 . S
H2569 C2578 0.930 . S
H2570 C2580 0.930 . S
H2571 C2583 0.929 . S
H2572 C2586 0.930 . S
H2573 C2588 0.960 . S
H2574 C2588 0.960 . S
H2575 C2588 0.960 . S
C2576 H2568 0.929 . S
C2576 C2577 1.377 . S
C2576 C2578 1.384 . S
C2577 C2576 1.377 . S
C2577 C2583 1.390 . S
C2578 H2569 0.930 . S
C2578 C2576 1.384 . S
C2578 C2579 1.372 . S
C2579 C2578 1.372 . S
C2579 C2580 1.400 . S
C2579 C2584 1.490 . S
C2580 H2570 0.930 . S
C2580 C2579 1.400 . S
C2580 C2583 1.386 . S
H2581 C2597 0.930 . S
H2582 C2598 0.931 . S
C2583 H2571 0.929 . S
C2583 C2577 1.390 . S
C2583 C2580 1.386 . S
C2584 C2579 1.490 . S
C2584 C2586 1.395 . S
C2584 C2587 1.403 . S
H2585 C2591 0.930 . S
C2586 H2572 0.930 . S
C2586 C2584 1.395 . S
C2586 C2589 1.403 . S
C2587 C2584 1.403 . S
C2587 C2588 1.524 . S
C2587 C2591 1.400 . S
C2588 H2573 0.960 . S
C2588 H2574 0.960 . S
C2588 H2575 0.960 . S
C2588 C2587 1.524 . S
C2589 C2586 1.403 . S
C2589 C2590 1.392 . S
C2589 C2593 1.495 . S
C2590 C2589 1.392 . S
C2590 C2591 1.385 . S
C2590 C2592 1.478 . S
C2591 H2585 0.930 . S
C2591 C2587 1.400 . S
C2591 C2590 1.385 . S
C2592 C2590 1.478 . S
C2592 C2594 1.381 . S
C2592 C2598 1.383 . S
C2593 C2589 1.495 . S
C2593 H2599 0.959 . S
C2593 H2600 0.961 . S
C2593 H2601 0.960 . S
C2594 C2592 1.381 . S
C2594 C2595 1.394 . S
C2594 H2602 0.930 . S
C2595 C2594 1.394 . S
C2595 C2596 1.383 . S
C2595 H2603 0.929 . S
C2596 C2595 1.383 . S
C2596 C2597 1.377 . S
C2597 H2581 0.930 . S
C2597 C2596 1.377 . S
C2597 C2598 1.379 . S
C2598 H2582 0.931 . S
C2598 C2592 1.383 . S
C2598 C2597 1.379 . S
H2599 C2593 0.959 . S
H2600 C2593 0.961 . S
H2601 C2593 0.960 . S
H2602 C2594 0.930 . S
H2603 C2595 0.929 . S
H2604 C2612 0.929 . S
H2605 C2614 0.930 . S
H2606 C2616 0.930 . S
H2607 C2619 0.929 . S
H2608 C2622 0.930 . S
H2609 C2624 0.960 . S
H2610 C2624 0.960 . S
H2611 C2624 0.960 . S
C2612 H2604 0.929 . S
C2612 C2613 1.377 . S
C2612 C2614 1.384 . S
C2613 C2612 1.377 . S
C2613 C2619 1.390 . S
C2614 H2605 0.930 . S
C2614 C2612 1.384 . S
C2614 C2615 1.372 . S
C2615 C2614 1.372 . S
C2615 C2616 1.400 . S
C2615 C2620 1.490 . S
C2616 H2606 0.930 . S
C2616 C2615 1.400 . S
C2616 C2619 1.386 . S
H2617 C2633 0.930 . S
H2618 C2634 0.931 . S
C2619 H2607 0.929 . S
C2619 C2613 1.390 . S
C2619 C2616 1.386 . S
C2620 C2615 1.490 . S
C2620 C2622 1.395 . S
C2620 C2623 1.403 . S
H2621 C2627 0.930 . S
C2622 H2608 0.930 . S
C2622 C2620 1.395 . S
C2622 C2625 1.403 . S
C2623 C2620 1.403 . S
C2623 C2624 1.524 . S
C2623 C2627 1.400 . S
C2624 H2609 0.960 . S
C2624 H2610 0.960 . S
C2624 H2611 0.960 . S
C2624 C2623 1.524 . S
C2625 C2622 1.403 . S
C2625 C2626 1.392 . S
C2625 C2629 1.495 . S
C2626 C2625 1.392 . S
C2626 C2627 1.385 . S
C2626 C2628 1.478 . S
C2627 H2621 0.930 . S
C2627 C2623 1.400 . S
C2627 C2626 1.385 . S
C2628 C2626 1.478 . S
C2628 C2630 1.381 . S
C2628 C2634 1.383 . S
C2629 C2625 1.495 . S
C2629 H2635 0.959 . S
C2629 H2636 0.961 . S
C2629 H2637 0.960 . S
C2630 C2628 1.381 . S
C2630 C2631 1.394 . S
C2630 H2638 0.930 . S
C2631 C2630 1.394 . S
C2631 C2632 1.383 . S
C2631 H2639 0.929 . S
C2632 C2631 1.383 . S
C2632 C2633 1.377 . S
C2633 H2617 0.930 . S
C2633 C2632 1.377 . S
C2633 C2634 1.379 . S
C2634 H2618 0.931 . S
C2634 C2628 1.383 . S
C2634 C2633 1.379 . S
H2635 C2629 0.959 . S
H2636 C2629 0.961 . S
H2637 C2629 0.960 . S
H2638 C2630 0.930 . S
H2639 C2631 0.929 . S
H2640 C2648 0.929 . S
H2641 C2650 0.930 . S
H2642 C2652 0.930 1_554 S
H2643 C2655 0.929 . S
H2644 C2658 0.930 . S
H2645 C2660 0.960 . S
H2646 C2660 0.960 . S
H2647 C2660 0.960 . S
C2648 H2640 0.929 . S
C2648 C2649 1.377 . S
C2648 C2650 1.384 . S
C2649 C2648 1.377 . S
C2649 C2655 1.390 . S
C2650 H2641 0.930 . S
C2650 C2648 1.384 . S
C2650 C2651 1.372 . S
C2651 C2650 1.372 . S
C2651 C2652 1.400 . S
C2651 C2656 1.490 . S
C2652 H2642 0.930 1_556 S
C2652 C2651 1.400 . S
C2652 C2655 1.386 . S
H2653 C2669 0.930 . S
H2654 C2670 0.931 . S
C2655 H2643 0.929 . S
C2655 C2649 1.390 . S
C2655 C2652 1.386 . S
C2656 C2651 1.490 . S
C2656 C2658 1.395 . S
C2656 C2659 1.403 1_556 S
H2657 C2663 0.930 . S
C2658 H2644 0.930 . S
C2658 C2656 1.395 . S
C2658 C2661 1.403 . S
C2659 C2656 1.403 1_554 S
C2659 C2660 1.524 . S
C2659 C2663 1.400 . S
C2660 H2645 0.960 . S
C2660 H2646 0.960 . S
C2660 H2647 0.960 . S
C2660 C2659 1.524 . S
C2661 C2658 1.403 . S
C2661 C2662 1.392 1_556 S
C2661 C2665 1.495 . S
C2662 C2661 1.392 1_554 S
C2662 C2663 1.385 . S
C2662 C2664 1.478 . S
C2663 H2657 0.930 . S
C2663 C2659 1.400 . S
C2663 C2662 1.385 . S
C2664 C2662 1.478 . S
C2664 C2666 1.381 . S
C2664 C2670 1.383 . S
C2665 C2661 1.495 . S
C2665 H2671 0.959 . S
C2665 H2672 0.961 . S
C2665 H2673 0.960 . S
C2666 C2664 1.381 . S
C2666 C2667 1.394 . S
C2666 H2674 0.930 1_554 S
C2667 C2666 1.394 . S
C2667 C2668 1.383 . S
C2667 H2675 0.929 . S
C2668 C2667 1.383 . S
C2668 C2669 1.377 . S
C2669 H2653 0.930 . S
C2669 C2668 1.377 . S
C2669 C2670 1.379 . S
C2670 H2654 0.931 . S
C2670 C2664 1.383 . S
C2670 C2669 1.379 . S
H2671 C2665 0.959 . S
H2672 C2665 0.961 . S
H2673 C2665 0.960 . S
H2674 C2666 0.930 1_556 S
H2675 C2667 0.929 . S
H2676 C2684 0.929 . S
H2677 C2686 0.930 . S
H2678 C2688 0.930 . S
H2679 C2691 0.929 . S
H2680 C2694 0.930 . S
H2681 C2696 0.960 . S
H2682 C2696 0.960 . S
H2683 C2696 0.960 . S
C2684 H2676 0.929 . S
C2684 C2685 1.377 . S
C2684 C2686 1.384 . S
C2685 C2684 1.377 . S
C2685 C2691 1.390 . S
C2686 H2677 0.930 . S
C2686 C2684 1.384 . S
C2686 C2687 1.372 . S
C2687 C2686 1.372 . S
C2687 C2688 1.400 . S
C2687 C2692 1.490 . S
C2688 H2678 0.930 . S
C2688 C2687 1.400 . S
C2688 C2691 1.386 . S
H2689 C2705 0.930 . S
H2690 C2706 0.931 . S
C2691 H2679 0.929 . S
C2691 C2685 1.390 . S
C2691 C2688 1.386 . S
C2692 C2687 1.490 . S
C2692 C2694 1.395 . S
C2692 C2695 1.403 . S
H2693 C2699 0.930 . S
C2694 H2680 0.930 . S
C2694 C2692 1.395 . S
C2694 C2697 1.403 . S
C2695 C2692 1.403 . S
C2695 C2696 1.524 . S
C2695 C2699 1.400 . S
C2696 H2681 0.960 . S
C2696 H2682 0.960 . S
C2696 H2683 0.960 . S
C2696 C2695 1.524 . S
C2697 C2694 1.403 . S
C2697 C2698 1.392 . S
C2697 C2701 1.495 . S
C2698 C2697 1.392 . S
C2698 C2699 1.385 . S
C2698 C2700 1.478 . S
C2699 H2693 0.930 . S
C2699 C2695 1.400 . S
C2699 C2698 1.385 . S
C2700 C2698 1.478 . S
C2700 C2702 1.381 . S
C2700 C2706 1.383 . S
C2701 C2697 1.495 . S
C2701 H2707 0.959 . S
C2701 H2708 0.961 . S
C2701 H2709 0.960 . S
C2702 C2700 1.381 . S
C2702 C2703 1.394 . S
C2702 H2710 0.930 . S
C2703 C2702 1.394 . S
C2703 C2704 1.383 . S
C2703 H2711 0.929 . S
C2704 C2703 1.383 . S
C2704 C2705 1.377 . S
C2705 H2689 0.930 . S
C2705 C2704 1.377 . S
C2705 C2706 1.379 . S
C2706 H2690 0.931 . S
C2706 C2700 1.383 . S
C2706 C2705 1.379 . S
H2707 C2701 0.959 . S
H2708 C2701 0.961 . S
H2709 C2701 0.960 . S
H2710 C2702 0.930 . S
H2711 C2703 0.929 . S
H2712 C2720 0.929 . S
H2713 C2722 0.930 . S
H2714 C2724 0.930 . S
H2715 C2727 0.929 . S
H2716 C2730 0.930 . S
H2717 C2732 0.960 . S
H2718 C2732 0.960 . S
H2719 C2732 0.960 . S
C2720 H2712 0.929 . S
C2720 C2721 1.377 . S
C2720 C2722 1.384 . S
C2721 C2720 1.377 . S
C2721 C2727 1.390 . S
C2722 H2713 0.930 . S
C2722 C2720 1.384 . S
C2722 C2723 1.372 . S
C2723 C2722 1.372 . S
C2723 C2724 1.400 . S
C2723 C2728 1.490 . S
C2724 H2714 0.930 . S
C2724 C2723 1.400 . S
C2724 C2727 1.386 . S
H2725 C2741 0.930 . S
H2726 C2742 0.931 . S
C2727 H2715 0.929 . S
C2727 C2721 1.390 . S
C2727 C2724 1.386 . S
C2728 C2723 1.490 . S
C2728 C2730 1.395 . S
C2728 C2731 1.403 . S
H2729 C2735 0.930 . S
C2730 H2716 0.930 . S
C2730 C2728 1.395 . S
C2730 C2733 1.403 . S
C2731 C2728 1.403 . S
C2731 C2732 1.524 . S
C2731 C2735 1.400 . S
C2732 H2717 0.960 . S
C2732 H2718 0.960 . S
C2732 H2719 0.960 . S
C2732 C2731 1.524 . S
C2733 C2730 1.403 . S
C2733 C2734 1.392 . S
C2733 C2737 1.495 . S
C2734 C2733 1.392 . S
C2734 C2735 1.385 . S
C2734 C2736 1.478 . S
C2735 H2729 0.930 . S
C2735 C2731 1.400 . S
C2735 C2734 1.385 . S
C2736 C2734 1.478 . S
C2736 C2738 1.381 . S
C2736 C2742 1.383 . S
C2737 C2733 1.495 . S
C2737 H2743 0.959 . S
C2737 H2744 0.961 . S
C2737 H2745 0.960 . S
C2738 C2736 1.381 . S
C2738 C2739 1.394 . S
C2738 H2746 0.930 . S
C2739 C2738 1.394 . S
C2739 C2740 1.383 . S
C2739 H2747 0.929 . S
C2740 C2739 1.383 . S
C2740 C2741 1.377 . S
C2741 H2725 0.930 . S
C2741 C2740 1.377 . S
C2741 C2742 1.379 . S
C2742 H2726 0.931 . S
C2742 C2736 1.383 . S
C2742 C2741 1.379 . S
H2743 C2737 0.959 . S
H2744 C2737 0.961 . S
H2745 C2737 0.960 . S
H2746 C2738 0.930 . S
H2747 C2739 0.929 . S
H2748 C2756 0.929 . S
H2749 C2758 0.930 . S
H2750 C2760 0.930 . S
H2751 C2763 0.929 . S
H2752 C2766 0.930 . S
H2753 C2768 0.960 . S
H2754 C2768 0.960 . S
H2755 C2768 0.960 . S
C2756 H2748 0.929 . S
C2756 C2757 1.377 . S
C2756 C2758 1.384 . S
C2757 C2756 1.377 . S
C2757 C2763 1.390 . S
C2758 H2749 0.930 . S
C2758 C2756 1.384 . S
C2758 C2759 1.372 . S
C2759 C2758 1.372 . S
C2759 C2760 1.400 . S
C2759 C2764 1.490 . S
C2760 H2750 0.930 . S
C2760 C2759 1.400 . S
C2760 C2763 1.386 . S
H2761 C2777 0.930 . S
H2762 C2778 0.931 . S
C2763 H2751 0.929 . S
C2763 C2757 1.390 . S
C2763 C2760 1.386 . S
C2764 C2759 1.490 . S
C2764 C2766 1.395 . S
C2764 C2767 1.403 . S
H2765 C2771 0.930 . S
C2766 H2752 0.930 . S
C2766 C2764 1.395 . S
C2766 C2769 1.403 . S
C2767 C2764 1.403 . S
C2767 C2768 1.524 . S
C2767 C2771 1.400 . S
C2768 H2753 0.960 . S
C2768 H2754 0.960 . S
C2768 H2755 0.960 . S
C2768 C2767 1.524 . S
C2769 C2766 1.403 . S
C2769 C2770 1.392 . S
C2769 C2773 1.495 . S
C2770 C2769 1.392 . S
C2770 C2771 1.385 . S
C2770 C2772 1.478 . S
C2771 H2765 0.930 . S
C2771 C2767 1.400 . S
C2771 C2770 1.385 . S
C2772 C2770 1.478 . S
C2772 C2774 1.381 . S
C2772 C2778 1.383 . S
C2773 C2769 1.495 . S
C2773 H2779 0.959 . S
C2773 H2780 0.961 . S
C2773 H2781 0.960 . S
C2774 C2772 1.381 . S
C2774 C2775 1.394 . S
C2774 H2782 0.930 . S
C2775 C2774 1.394 . S
C2775 C2776 1.383 . S
C2775 H2783 0.929 . S
C2776 C2775 1.383 . S
C2776 C2777 1.377 . S
C2777 H2761 0.930 . S
C2777 C2776 1.377 . S
C2777 C2778 1.379 . S
C2778 H2762 0.931 . S
C2778 C2772 1.383 . S
C2778 C2777 1.379 . S
H2779 C2773 0.959 . S
H2780 C2773 0.961 . S
H2781 C2773 0.960 . S
H2782 C2774 0.930 . S
H2783 C2775 0.929 . S
H2784 C2792 0.929 . S
H2785 C2794 0.930 . S
H2786 C2796 0.930 . S
H2787 C2799 0.929 . S
H2788 C2802 0.930 . S
H2789 C2804 0.960 . S
H2790 C2804 0.960 . S
H2791 C2804 0.960 . S
C2792 H2784 0.929 . S
C2792 C2793 1.377 . S
C2792 C2794 1.384 . S
C2793 C2792 1.377 . S
C2793 C2799 1.390 . S
C2794 H2785 0.930 . S
C2794 C2792 1.384 . S
C2794 C2795 1.372 . S
C2795 C2794 1.372 . S
C2795 C2796 1.400 . S
C2795 C2800 1.490 . S
C2796 H2786 0.930 . S
C2796 C2795 1.400 . S
C2796 C2799 1.386 . S
H2797 C2813 0.930 . S
H2798 C2814 0.931 . S
C2799 H2787 0.929 . S
C2799 C2793 1.390 . S
C2799 C2796 1.386 . S
C2800 C2795 1.490 . S
C2800 C2802 1.395 . S
C2800 C2803 1.403 . S
H2801 C2807 0.930 . S
C2802 H2788 0.930 . S
C2802 C2800 1.395 . S
C2802 C2805 1.403 . S
C2803 C2800 1.403 . S
C2803 C2804 1.524 . S
C2803 C2807 1.400 . S
C2804 H2789 0.960 . S
C2804 H2790 0.960 . S
C2804 H2791 0.960 . S
C2804 C2803 1.524 . S
C2805 C2802 1.403 . S
C2805 C2806 1.392 . S
C2805 C2809 1.495 . S
C2806 C2805 1.392 . S
C2806 C2807 1.385 . S
C2806 C2808 1.478 . S
C2807 H2801 0.930 . S
C2807 C2803 1.400 . S
C2807 C2806 1.385 . S
C2808 C2806 1.478 . S
C2808 C2810 1.381 . S
C2808 C2814 1.383 . S
C2809 C2805 1.495 . S
C2809 H2815 0.959 . S
C2809 H2816 0.961 . S
C2809 H2817 0.960 . S
C2810 C2808 1.381 . S
C2810 C2811 1.394 . S
C2810 H2818 0.930 . S
C2811 C2810 1.394 . S
C2811 C2812 1.383 . S
C2811 H2819 0.929 . S
C2812 C2811 1.383 . S
C2812 C2813 1.377 . S
C2813 H2797 0.930 . S
C2813 C2812 1.377 . S
C2813 C2814 1.379 . S
C2814 H2798 0.931 . S
C2814 C2808 1.383 . S
C2814 C2813 1.379 . S
H2815 C2809 0.959 . S
H2816 C2809 0.961 . S
H2817 C2809 0.960 . S
H2818 C2810 0.930 . S
H2819 C2811 0.929 . S
H2820 C2828 0.929 . S
H2821 C2830 0.930 . S
H2822 C2832 0.930 . S
H2823 C2835 0.929 . S
H2824 C2838 0.930 . S
H2825 C2840 0.960 . S
H2826 C2840 0.960 . S
H2827 C2840 0.960 . S
C2828 H2820 0.929 . S
C2828 C2829 1.377 . S
C2828 C2830 1.384 . S
C2829 C2828 1.377 . S
C2829 C2835 1.390 . S
C2830 H2821 0.930 . S
C2830 C2828 1.384 . S
C2830 C2831 1.372 . S
C2831 C2830 1.372 . S
C2831 C2832 1.400 . S
C2831 C2836 1.490 . S
C2832 H2822 0.930 . S
C2832 C2831 1.400 . S
C2832 C2835 1.386 . S
H2833 C2849 0.930 . S
H2834 C2850 0.931 . S
C2835 H2823 0.929 . S
C2835 C2829 1.390 . S
C2835 C2832 1.386 . S
C2836 C2831 1.490 . S
C2836 C2838 1.395 . S
C2836 C2839 1.403 . S
H2837 C2843 0.986 . S
C2838 H2824 0.930 . S
C2838 C2836 1.395 . S
C2838 C2841 1.403 . S
C2839 C2836 1.403 . S
C2839 C2840 1.524 . S
C2839 C2843 1.400 . S
C2840 H2825 0.960 . S
C2840 H2826 0.960 . S
C2840 H2827 0.960 . S
C2840 C2839 1.524 . S
C2841 C2838 1.403 . S
C2841 C2842 1.392 . S
C2841 C2845 1.495 . S
C2842 C2841 1.392 . S
C2842 C2843 1.385 . S
C2842 C2844 1.478 1_655 S
C2843 H2837 0.986 . S
C2843 C2839 1.400 . S
C2843 C2842 1.385 . S
C2844 C2842 1.478 1_455 S
C2844 C2846 1.381 . S
C2844 C2850 1.383 . S
C2845 C2841 1.495 . S
C2845 H2851 0.959 . S
C2845 H2852 0.961 . S
C2845 H2853 0.960 . S
C2846 C2844 1.381 . S
C2846 C2847 1.394 . S
C2846 H2854 0.930 . S
C2847 C2846 1.394 . S
C2847 C2848 1.383 . S
C2847 H2855 0.929 . S
C2848 C2847 1.383 . S
C2848 C2849 1.377 . S
C2849 H2833 0.930 . S
C2849 C2848 1.377 . S
C2849 C2850 1.379 . S
C2850 H2834 0.931 . S
C2850 C2844 1.383 . S
C2850 C2849 1.379 . S
H2851 C2845 0.959 . S
H2852 C2845 0.961 . S
H2853 C2845 0.960 . S
H2854 C2846 0.930 . S
H2855 C2847 0.929 . S
H2856 C2864 0.929 . S
H2857 C2866 0.930 . S
H2858 C2868 0.930 . S
H2859 C2871 0.929 . S
H2860 C2874 0.930 . S
H2861 C2876 0.960 . S
H2862 C2876 0.960 . S
H2863 C2876 0.960 . S
C2864 H2856 0.929 . S
C2864 C2865 1.377 . S
C2864 C2866 1.384 . S
C2865 C2864 1.377 . S
C2865 C2871 1.390 . S
C2866 H2857 0.930 . S
C2866 C2864 1.384 . S
C2866 C2867 1.372 . S
C2867 C2866 1.372 . S
C2867 C2868 1.400 . S
C2867 C2872 1.490 . S
C2868 H2858 0.930 . S
C2868 C2867 1.400 . S
C2868 C2871 1.386 . S
H2869 C2885 0.930 . S
H2870 C2886 0.931 . S
C2871 H2859 0.929 . S
C2871 C2865 1.390 . S
C2871 C2868 1.386 . S
C2872 C2867 1.490 . S
C2872 C2874 1.395 . S
C2872 C2875 1.403 . S
H2873 C2879 0.930 . S
C2874 H2860 0.930 . S
C2874 C2872 1.395 . S
C2874 C2877 1.403 . S
C2875 C2872 1.403 . S
C2875 C2876 1.524 . S
C2875 C2879 1.400 . S
C2876 H2861 0.960 . S
C2876 H2862 0.960 . S
C2876 H2863 0.960 . S
C2876 C2875 1.524 . S
C2877 C2874 1.403 . S
C2877 C2878 1.392 . S
C2877 C2881 1.495 . S
C2878 C2877 1.392 . S
C2878 C2879 1.385 . S
C2878 C2880 1.478 . S
C2879 H2873 0.930 . S
C2879 C2875 1.400 . S
C2879 C2878 1.385 . S
C2880 C2878 1.478 . S
C2880 C2882 1.381 . S
C2880 C2886 1.383 . S
C2881 C2877 1.495 . S
C2881 H2887 0.959 . S
C2881 H2888 0.961 . S
C2881 H2889 0.960 . S
C2882 C2880 1.381 . S
C2882 C2883 1.394 . S
C2882 H2890 0.930 . S
C2883 C2882 1.394 . S
C2883 C2884 1.383 . S
C2883 H2891 0.929 . S
C2884 C2883 1.383 . S
C2884 C2885 1.377 . S
C2885 H2869 0.930 . S
C2885 C2884 1.377 . S
C2885 C2886 1.379 . S
C2886 H2870 0.931 . S
C2886 C2880 1.383 . S
C2886 C2885 1.379 . S
H2887 C2881 0.959 . S
H2888 C2881 0.961 . S
H2889 C2881 0.960 . S
H2890 C2882 0.930 . S
H2891 C2883 0.929 . S
H2892 C2900 0.929 . S
H2893 C2902 0.930 . S
H2894 C2904 0.930 . S
H2895 C2907 0.929 . S
H2896 C2910 0.930 . S
H2897 C2912 0.960 . S
H2898 C2912 0.960 . S
H2899 C2912 0.960 . S
C2900 H2892 0.929 . S
C2900 C2901 1.377 . S
C2900 C2902 1.384 . S
C2901 C2900 1.377 . S
C2901 C2907 1.390 . S
C2902 H2893 0.930 . S
C2902 C2900 1.384 . S
C2902 C2903 1.372 . S
C2903 C2902 1.372 . S
C2903 C2904 1.400 . S
C2903 C2908 1.490 . S
C2904 H2894 0.930 . S
C2904 C2903 1.400 . S
C2904 C2907 1.386 . S
H2905 C2921 0.930 . S
H2906 C2922 0.931 . S
C2907 H2895 0.929 . S
C2907 C2901 1.390 . S
C2907 C2904 1.386 . S
C2908 C2903 1.490 . S
C2908 C2910 1.395 . S
C2908 C2911 1.403 . S
H2909 C2915 0.930 . S
C2910 H2896 0.930 . S
C2910 C2908 1.395 . S
C2910 C2913 1.403 . S
C2911 C2908 1.403 . S
C2911 C2912 1.524 . S
C2911 C2915 1.400 . S
C2912 H2897 0.960 . S
C2912 H2898 0.960 . S
C2912 H2899 0.960 . S
C2912 C2911 1.524 . S
C2913 C2910 1.403 . S
C2913 C2914 1.392 . S
C2913 C2917 1.495 . S
C2914 C2913 1.392 . S
C2914 C2915 1.385 . S
C2914 C2916 1.478 . S
C2915 H2909 0.930 . S
C2915 C2911 1.400 . S
C2915 C2914 1.385 . S
C2916 C2914 1.478 . S
C2916 C2918 1.381 . S
C2916 C2922 1.383 . S
C2917 C2913 1.495 . S
C2917 H2923 0.959 . S
C2917 H2924 0.961 . S
C2917 H2925 0.960 . S
C2918 C2916 1.381 . S
C2918 C2919 1.394 . S
C2918 H2926 0.930 . S
C2919 C2918 1.394 . S
C2919 C2920 1.383 . S
C2919 H2927 0.929 . S
C2920 C2919 1.383 . S
C2920 C2921 1.377 . S
C2921 H2905 0.930 . S
C2921 C2920 1.377 . S
C2921 C2922 1.379 . S
C2922 H2906 0.931 . S
C2922 C2916 1.383 . S
C2922 C2921 1.379 . S
H2923 C2917 0.959 . S
H2924 C2917 0.961 . S
H2925 C2917 0.960 . S
H2926 C2918 0.930 . S
H2927 C2919 0.929 . S
H2928 C2936 0.929 . S
H2929 C2938 0.930 . S
H2930 C2940 0.930 . S
H2931 C2943 0.929 . S
H2932 C2946 0.930 . S
H2933 C2948 0.960 . S
H2934 C2948 0.960 . S
H2935 C2948 0.960 . S
C2936 H2928 0.929 . S
C2936 C2937 1.377 . S
C2936 C2938 1.384 . S
C2937 C2936 1.377 . S
C2937 C2943 1.390 . S
C2938 H2929 0.930 . S
C2938 C2936 1.384 . S
C2938 C2939 1.372 . S
C2939 C2938 1.372 . S
C2939 C2940 1.400 . S
C2939 C2944 1.490 . S
C2940 H2930 0.930 . S
C2940 C2939 1.400 . S
C2940 C2943 1.386 . S
H2941 C2957 0.930 . S
H2942 C2958 0.931 . S
C2943 H2931 0.929 . S
C2943 C2937 1.390 . S
C2943 C2940 1.386 . S
C2944 C2939 1.490 . S
C2944 C2946 1.395 . S
C2944 C2947 1.403 . S
H2945 C2951 0.930 . S
C2946 H2932 0.930 . S
C2946 C2944 1.395 . S
C2946 C2949 1.403 . S
C2947 C2944 1.403 . S
C2947 C2948 1.524 . S
C2947 C2951 1.400 . S
C2948 H2933 0.960 . S
C2948 H2934 0.960 . S
C2948 H2935 0.960 . S
C2948 C2947 1.524 . S
C2949 C2946 1.403 . S
C2949 C2950 1.392 . S
C2949 C2953 1.495 . S
C2950 C2949 1.392 . S
C2950 C2951 1.385 . S
C2950 C2952 1.478 . S
C2951 H2945 0.930 . S
C2951 C2947 1.400 . S
C2951 C2950 1.385 . S
C2952 C2950 1.478 . S
C2952 C2954 1.381 . S
C2952 C2958 1.383 . S
C2953 C2949 1.495 . S
C2953 H2959 0.959 . S
C2953 H2960 0.961 . S
C2953 H2961 0.960 . S
C2954 C2952 1.381 . S
C2954 C2955 1.394 . S
C2954 H2962 0.930 . S
C2955 C2954 1.394 . S
C2955 C2956 1.383 . S
C2955 H2963 0.929 . S
C2956 C2955 1.383 . S
C2956 C2957 1.377 . S
C2957 H2941 0.930 . S
C2957 C2956 1.377 . S
C2957 C2958 1.379 . S
C2958 H2942 0.931 . S
C2958 C2952 1.383 . S
C2958 C2957 1.379 . S
H2959 C2953 0.959 . S
H2960 C2953 0.961 . S
H2961 C2953 0.960 . S
H2962 C2954 0.930 . S
H2963 C2955 0.929 . S
H2964 C2972 0.929 . S
H2965 C2974 0.930 . S
H2966 C2976 0.930 . S
H2967 C2979 0.929 . S
H2968 C2982 0.930 . S
H2969 C2984 0.960 . S
H2970 C2984 0.960 . S
H2971 C2984 0.960 . S
C2972 H2964 0.929 . S
C2972 C2973 1.377 . S
C2972 C2974 1.384 . S
C2973 C2972 1.377 . S
C2973 C2979 1.390 . S
C2974 H2965 0.930 . S
C2974 C2972 1.384 . S
C2974 C2975 1.372 . S
C2975 C2974 1.372 . S
C2975 C2976 1.400 . S
C2975 C2980 1.490 . S
C2976 H2966 0.930 . S
C2976 C2975 1.400 . S
C2976 C2979 1.386 . S
H2977 C2993 0.930 . S
H2978 C2994 0.931 . S
C2979 H2967 0.929 . S
C2979 C2973 1.390 . S
C2979 C2976 1.386 . S
C2980 C2975 1.490 . S
C2980 C2982 1.395 . S
C2980 C2983 1.403 . S
H2981 C2987 0.930 . S
C2982 H2968 0.930 . S
C2982 C2980 1.395 . S
C2982 C2985 1.403 . S
C2983 C2980 1.403 . S
C2983 C2984 1.524 . S
C2983 C2987 1.400 . S
C2984 H2969 0.960 . S
C2984 H2970 0.960 . S
C2984 H2971 0.960 . S
C2984 C2983 1.524 . S
C2985 C2982 1.403 . S
C2985 C2986 1.392 . S
C2985 C2989 1.495 . S
C2986 C2985 1.392 . S
C2986 C2987 1.385 . S
C2986 C2988 1.478 . S
C2987 H2981 0.930 . S
C2987 C2983 1.400 . S
C2987 C2986 1.385 . S
C2988 C2986 1.478 . S
C2988 C2990 1.381 . S
C2988 C2994 1.383 . S
C2989 C2985 1.495 . S
C2989 H2995 0.959 . S
C2989 H2996 0.961 . S
C2989 H2997 0.960 . S
C2990 C2988 1.381 . S
C2990 C2991 1.394 . S
C2990 H2998 0.930 . S
C2991 C2990 1.394 . S
C2991 C2992 1.383 . S
C2991 H2999 0.929 . S
C2992 C2991 1.383 . S
C2992 C2993 1.377 . S
C2993 H2977 0.930 . S
C2993 C2992 1.377 . S
C2993 C2994 1.379 . S
C2994 H2978 0.931 . S
C2994 C2988 1.383 . S
C2994 C2993 1.379 . S
H2995 C2989 0.959 . S
H2996 C2989 0.961 . S
H2997 C2989 0.960 . S
H2998 C2990 0.930 . S
H2999 C2991 0.929 . S
H3000 C3008 0.929 . S
H3001 C3010 0.930 . S
H3002 C3012 0.930 . S
H3003 C3015 0.929 . S
H3004 C3018 0.930 . S
H3005 C3020 0.960 . S
H3006 C3020 0.960 . S
H3007 C3020 0.960 . S
C3008 H3000 0.929 . S
C3008 C3009 1.377 . S
C3008 C3010 1.384 . S
C3009 C3008 1.377 . S
C3009 C3015 1.390 . S
C3010 H3001 0.930 . S
C3010 C3008 1.384 . S
C3010 C3011 1.372 . S
C3011 C3010 1.372 . S
C3011 C3012 1.400 . S
C3011 C3016 1.490 . S
C3012 H3002 0.930 . S
C3012 C3011 1.400 . S
C3012 C3015 1.386 . S
H3013 C3029 0.930 . S
H3014 C3030 0.931 . S
C3015 H3003 0.929 . S
C3015 C3009 1.390 . S
C3015 C3012 1.386 . S
C3016 C3011 1.490 . S
C3016 C3018 1.395 . S
C3016 C3019 1.403 . S
H3017 C3023 0.930 . S
C3018 H3004 0.930 . S
C3018 C3016 1.395 . S
C3018 C3021 1.403 . S
C3019 C3016 1.403 . S
C3019 C3020 1.524 . S
C3019 C3023 1.400 . S
C3020 H3005 0.960 . S
C3020 H3006 0.960 . S
C3020 H3007 0.960 . S
C3020 C3019 1.524 . S
C3021 C3018 1.403 . S
C3021 C3022 1.392 . S
C3021 C3025 1.495 . S
C3022 C3021 1.392 . S
C3022 C3023 1.385 . S
C3022 C3024 1.478 . S
C3023 H3017 0.930 . S
C3023 C3019 1.400 . S
C3023 C3022 1.385 . S
C3024 C3022 1.478 . S
C3024 C3026 1.381 . S
C3024 C3030 1.383 . S
C3025 C3021 1.495 . S
C3025 H3031 0.959 . S
C3025 H3032 0.961 . S
C3025 H3033 0.960 . S
C3026 C3024 1.381 . S
C3026 C3027 1.394 . S
C3026 H3034 0.930 . S
C3027 C3026 1.394 . S
C3027 C3028 1.383 . S
C3027 H3035 0.929 . S
C3028 C3027 1.383 . S
C3028 C3029 1.377 . S
C3029 H3013 0.930 . S
C3029 C3028 1.377 . S
C3029 C3030 1.379 . S
C3030 H3014 0.931 . S
C3030 C3024 1.383 . S
C3030 C3029 1.379 . S
H3031 C3025 0.959 . S
H3032 C3025 0.961 . S
H3033 C3025 0.960 . S
H3034 C3026 0.930 . S
H3035 C3027 0.929 . S
H3036 C3044 0.929 . S
H3037 C3046 0.930 . S
H3038 C3048 0.930 . S
H3039 C3051 0.929 . S
H3040 C3054 0.930 . S
H3041 C3056 0.960 . S
H3042 C3056 0.960 . S
H3043 C3056 0.960 . S
C3044 H3036 0.929 . S
C3044 C3045 1.377 . S
C3044 C3046 1.384 . S
C3045 C3044 1.377 . S
C3045 C3051 1.390 . S
C3046 H3037 0.930 . S
C3046 C3044 1.384 . S
C3046 C3047 1.372 . S
C3047 C3046 1.372 . S
C3047 C3048 1.400 . S
C3047 C3052 1.490 . S
C3048 H3038 0.930 . S
C3048 C3047 1.400 . S
C3048 C3051 1.386 . S
H3049 C3065 0.930 . S
H3050 C3066 0.931 . S
C3051 H3039 0.929 . S
C3051 C3045 1.390 . S
C3051 C3048 1.386 . S
C3052 C3047 1.490 . S
C3052 C3054 1.395 . S
C3052 C3055 1.403 . S
H3053 C3059 0.930 . S
C3054 H3040 0.930 . S
C3054 C3052 1.395 . S
C3054 C3057 1.403 . S
C3055 C3052 1.403 . S
C3055 C3056 1.524 . S
C3055 C3059 1.400 . S
C3056 H3041 0.960 . S
C3056 H3042 0.960 . S
C3056 H3043 0.960 . S
C3056 C3055 1.524 . S
C3057 C3054 1.403 . S
C3057 C3058 1.392 . S
C3057 C3061 1.458 1_655 S
C3058 C3057 1.392 . S
C3058 C3059 1.385 . S
C3058 C3060 1.478 1_655 S
C3059 H3053 0.930 . S
C3059 C3055 1.400 . S
C3059 C3058 1.385 . S
C3060 C3058 1.478 1_455 S
C3060 C3062 1.381 . S
C3060 C3066 1.383 . S
C3061 C3057 1.458 1_455 S
C3061 H3067 0.919 1_455 S
C3061 H3068 1.001 . S
C3061 H3069 1.002 . S
C3062 C3060 1.381 . S
C3062 C3063 1.394 . S
C3062 H3070 0.930 . S
C3063 C3062 1.394 . S
C3063 C3064 1.383 . S
C3063 H3071 0.929 . S
C3064 C3063 1.383 . S
C3064 C3065 1.377 . S
C3065 H3049 0.930 . S
C3065 C3064 1.377 . S
C3065 C3066 1.379 . S
C3066 H3050 0.931 . S
C3066 C3060 1.383 . S
C3066 C3065 1.379 . S
H3067 C3061 0.919 1_655 S
H3068 C3061 1.001 . S
H3069 C3061 1.002 . S
H3070 C3062 0.930 . S
H3071 C3063 0.929 . S
H3072 C3080 0.929 . S
H3073 C3082 0.930 . S
H3074 C3084 0.930 . S
H3075 C3087 0.929 . S
H3076 C3090 0.930 . S
H3077 C3092 0.960 . S
H3078 C3092 0.960 . S
H3079 C3092 0.960 . S
C3080 H3072 0.929 . S
C3080 C3081 1.377 . S
C3080 C3082 1.384 . S
C3081 C3080 1.377 . S
C3081 C3087 1.390 . S
C3082 H3073 0.930 . S
C3082 C3080 1.384 . S
C3082 C3083 1.372 . S
C3083 C3082 1.372 . S
C3083 C3084 1.400 . S
C3083 C3088 1.490 . S
C3084 H3074 0.930 . S
C3084 C3083 1.400 . S
C3084 C3087 1.386 . S
H3085 C3101 0.930 . S
H3086 C3102 0.931 . S
C3087 H3075 0.929 . S
C3087 C3081 1.390 . S
C3087 C3084 1.386 . S
C3088 C3083 1.490 . S
C3088 C3090 1.395 . S
C3088 C3091 1.403 . S
H3089 C3095 0.930 . S
C3090 H3076 0.930 . S
C3090 C3088 1.395 . S
C3090 C3093 1.403 . S
C3091 C3088 1.403 . S
C3091 C3092 1.524 . S
C3091 C3095 1.400 . S
C3092 H3077 0.960 . S
C3092 H3078 0.960 . S
C3092 H3079 0.960 . S
C3092 C3091 1.524 . S
C3093 C3090 1.403 . S
C3093 C3094 1.392 . S
C3093 C3097 1.495 . S
C3094 C3093 1.392 . S
C3094 C3095 1.385 . S
C3094 C3096 1.478 . S
C3095 H3089 0.930 . S
C3095 C3091 1.400 . S
C3095 C3094 1.385 . S
C3096 C3094 1.478 . S
C3096 C3098 1.381 . S
C3096 C3102 1.383 . S
C3097 C3093 1.495 . S
C3097 H3103 0.959 . S
C3097 H3104 0.961 . S
C3097 H3105 0.960 . S
C3098 C3096 1.381 . S
C3098 C3099 1.394 . S
C3098 H3106 0.930 . S
C3099 C3098 1.394 . S
C3099 C3100 1.383 . S
C3099 H3107 0.929 . S
C3100 C3099 1.383 . S
C3100 C3101 1.377 . S
C3101 H3085 0.930 . S
C3101 C3100 1.377 . S
C3101 C3102 1.379 . S
C3102 H3086 0.931 . S
C3102 C3096 1.383 . S
C3102 C3101 1.379 . S
H3103 C3097 0.959 . S
H3104 C3097 0.961 . S
H3105 C3097 0.960 . S
H3106 C3098 0.930 . S
H3107 C3099 0.929 . S
H3108 C3116 0.929 . S
H3109 C3118 0.930 . S
H3110 C3120 0.930 . S
H3111 C3123 0.929 . S
H3112 C3126 0.930 . S
H3113 C3128 0.997 . S
H3114 C3128 0.934 1_655 S
H3115 C3128 0.923 1_655 S
C3116 H3108 0.929 . S
C3116 C3117 1.377 . S
C3116 C3118 1.384 . S
C3117 C3116 1.377 . S
C3117 C3123 1.390 . S
C3118 H3109 0.930 . S
C3118 C3116 1.384 . S
C3118 C3119 1.372 . S
C3119 C3118 1.372 . S
C3119 C3120 1.400 . S
C3119 C3124 1.490 1_655 S
C3120 H3110 0.930 . S
C3120 C3119 1.400 . S
C3120 C3123 1.386 . S
H3121 C3137 0.930 . S
H3122 C3138 0.931 . S
C3123 H3111 0.929 . S
C3123 C3117 1.390 . S
C3123 C3120 1.386 . S
C3124 C3119 1.490 1_455 S
C3124 C3126 1.395 . S
C3124 C3127 1.403 . S
H3125 C3131 0.930 . S
C3126 H3112 0.930 . S
C3126 C3124 1.395 . S
C3126 C3129 1.403 . S
C3127 C3124 1.403 . S
C3127 C3128 1.554 . S
C3127 C3131 1.400 . S
C3128 H3113 0.997 . S
C3128 H3114 0.934 1_455 S
C3128 H3115 0.923 1_455 S
C3128 C3127 1.554 . S
C3129 C3126 1.403 . S
C3129 C3130 1.392 . S
C3129 C3133 1.495 . S
C3130 C3129 1.392 . S
C3130 C3131 1.385 . S
C3130 C3132 1.478 . S
C3131 H3125 0.930 . S
C3131 C3127 1.400 . S
C3131 C3130 1.385 . S
C3132 C3130 1.478 . S
C3132 C3134 1.381 . S
C3132 C3138 1.383 . S
C3133 C3129 1.495 . S
C3133 H3139 0.959 . S
C3133 H3140 0.961 . S
C3133 H3141 0.960 . S
C3134 C3132 1.381 . S
C3134 C3135 1.394 . S
C3134 H3142 0.930 . S
C3135 C3134 1.394 . S
C3135 C3136 1.383 . S
C3135 H3143 0.929 . S
C3136 C3135 1.383 . S
C3136 C3137 1.377 . S
C3137 H3121 0.930 . S
C3137 C3136 1.377 . S
C3137 C3138 1.379 . S
C3138 H3122 0.931 . S
C3138 C3132 1.383 . S
C3138 C3137 1.379 . S
H3139 C3133 0.959 . S
H3140 C3133 0.961 . S
H3141 C3133 0.960 . S
H3142 C3134 0.930 . S
H3143 C3135 0.929 . S
H3144 C3152 0.929 . S
H3145 C3154 0.930 . S
H3146 C3156 0.930 . S
H3147 C3159 0.929 . S
H3148 C3162 0.930 . S
H3149 C3164 0.960 . S
H3150 C3164 0.960 . S
H3151 C3164 0.960 . S
C3152 H3144 0.929 . S
C3152 C3153 1.377 . S
C3152 C3154 1.384 . S
C3153 C3152 1.377 . S
C3153 C3159 1.390 . S
C3154 H3145 0.930 . S
C3154 C3152 1.384 . S
C3154 C3155 1.372 . S
C3155 C3154 1.372 . S
C3155 C3156 1.400 . S
C3155 C3160 1.490 . S
C3156 H3146 0.930 . S
C3156 C3155 1.400 . S
C3156 C3159 1.386 . S
H3157 C3173 0.930 . S
H3158 C3174 0.931 . S
C3159 H3147 0.929 . S
C3159 C3153 1.390 . S
C3159 C3156 1.386 . S
C3160 C3155 1.490 . S
C3160 C3162 1.395 . S
C3160 C3163 1.403 . S
H3161 C3167 0.930 . S
C3162 H3148 0.930 . S
C3162 C3160 1.395 . S
C3162 C3165 1.403 . S
C3163 C3160 1.403 . S
C3163 C3164 1.524 . S
C3163 C3167 1.400 . S
C3164 H3149 0.960 . S
C3164 H3150 0.960 . S
C3164 H3151 0.960 . S
C3164 C3163 1.524 . S
C3165 C3162 1.403 . S
C3165 C3166 1.392 . S
C3165 C3169 1.495 . S
C3166 C3165 1.392 . S
C3166 C3167 1.385 . S
C3166 C3168 1.478 . S
C3167 H3161 0.930 . S
C3167 C3163 1.400 . S
C3167 C3166 1.385 . S
C3168 C3166 1.478 . S
C3168 C3170 1.381 . S
C3168 C3174 1.383 . S
C3169 C3165 1.495 . S
C3169 H3175 0.959 . S
C3169 H3176 0.961 . S
C3169 H3177 0.960 . S
C3170 C3168 1.381 . S
C3170 C3171 1.394 . S
C3170 H3178 0.930 . S
C3171 C3170 1.394 . S
C3171 C3172 1.383 . S
C3171 H3179 0.929 . S
C3172 C3171 1.383 . S
C3172 C3173 1.377 . S
C3173 H3157 0.930 . S
C3173 C3172 1.377 . S
C3173 C3174 1.379 . S
C3174 H3158 0.931 . S
C3174 C3168 1.383 . S
C3174 C3173 1.379 . S
H3175 C3169 0.959 . S
H3176 C3169 0.961 . S
H3177 C3169 0.960 . S
H3178 C3170 0.930 . S
H3179 C3171 0.929 . S
H3180 C3188 0.929 . S
H3181 C3190 0.930 . S
H3182 C3192 0.930 . S
H3183 C3195 0.929 . S
H3184 C3198 0.930 . S
H3185 C3200 0.960 . S
H3186 C3200 0.960 . S
H3187 C3200 0.960 . S
C3188 H3180 0.929 . S
C3188 C3189 1.377 . S
C3188 C3190 1.384 . S
C3189 C3188 1.377 . S
C3189 C3195 1.390 . S
C3190 H3181 0.930 . S
C3190 C3188 1.384 . S
C3190 C3191 1.372 . S
C3191 C3190 1.372 . S
C3191 C3192 1.400 . S
C3191 C3196 1.490 . S
C3192 H3182 0.930 . S
C3192 C3191 1.400 . S
C3192 C3195 1.386 . S
H3193 C3209 0.930 . S
H3194 C3210 0.931 . S
C3195 H3183 0.929 . S
C3195 C3189 1.390 . S
C3195 C3192 1.386 . S
C3196 C3191 1.490 . S
C3196 C3198 1.395 . S
C3196 C3199 1.403 . S
H3197 C3203 0.930 . S
C3198 H3184 0.930 . S
C3198 C3196 1.395 . S
C3198 C3201 1.403 . S
C3199 C3196 1.403 . S
C3199 C3200 1.524 . S
C3199 C3203 1.400 . S
C3200 H3185 0.960 . S
C3200 H3186 0.960 . S
C3200 H3187 0.960 . S
C3200 C3199 1.524 . S
C3201 C3198 1.403 . S
C3201 C3202 1.392 . S
C3201 C3205 1.495 . S
C3202 C3201 1.392 . S
C3202 C3203 1.385 . S
C3202 C3204 1.478 . S
C3203 H3197 0.930 . S
C3203 C3199 1.400 . S
C3203 C3202 1.385 . S
C3204 C3202 1.478 . S
C3204 C3206 1.381 . S
C3204 C3210 1.383 . S
C3205 C3201 1.495 . S
C3205 H3211 0.959 . S
C3205 H3212 0.961 . S
C3205 H3213 0.960 . S
C3206 C3204 1.381 . S
C3206 C3207 1.394 . S
C3206 H3214 0.930 . S
C3207 C3206 1.394 . S
C3207 C3208 1.383 . S
C3207 H3215 0.929 . S
C3208 C3207 1.383 . S
C3208 C3209 1.377 . S
C3209 H3193 0.930 . S
C3209 C3208 1.377 . S
C3209 C3210 1.379 . S
C3210 H3194 0.931 . S
C3210 C3204 1.383 . S
C3210 C3209 1.379 . S
H3211 C3205 0.959 . S
H3212 C3205 0.961 . S
H3213 C3205 0.960 . S
H3214 C3206 0.930 . S
H3215 C3207 0.929 . S
H3216 C3224 0.929 . S
H3217 C3226 0.930 . S
H3218 C3228 0.930 . S
H3219 C3231 0.929 . S
H3220 C3234 0.930 . S
H3221 C3236 0.960 . S
H3222 C3236 0.960 . S
H3223 C3236 0.960 . S
C3224 H3216 0.929 . S
C3224 C3225 1.377 . S
C3224 C3226 1.384 . S
C3225 C3224 1.377 . S
C3225 C3231 1.390 . S
C3226 H3217 0.930 . S
C3226 C3224 1.384 . S
C3226 C3227 1.372 . S
C3227 C3226 1.372 . S
C3227 C3228 1.400 . S
C3227 C3232 1.490 . S
C3228 H3218 0.930 . S
C3228 C3227 1.400 . S
C3228 C3231 1.386 . S
H3229 C3245 0.930 . S
H3230 C3246 0.931 . S
C3231 H3219 0.929 . S
C3231 C3225 1.390 . S
C3231 C3228 1.386 . S
C3232 C3227 1.490 . S
C3232 C3234 1.395 . S
C3232 C3235 1.403 . S
H3233 C3239 0.930 . S
C3234 H3220 0.930 . S
C3234 C3232 1.395 . S
C3234 C3237 1.403 . S
C3235 C3232 1.403 . S
C3235 C3236 1.524 . S
C3235 C3239 1.400 . S
C3236 H3221 0.960 . S
C3236 H3222 0.960 . S
C3236 H3223 0.960 . S
C3236 C3235 1.524 . S
C3237 C3234 1.403 . S
C3237 C3238 1.392 . S
C3237 C3241 1.495 . S
C3238 C3237 1.392 . S
C3238 C3239 1.385 . S
C3238 C3240 1.478 . S
C3239 H3233 0.930 . S
C3239 C3235 1.400 . S
C3239 C3238 1.385 . S
C3240 C3238 1.478 . S
C3240 C3242 1.381 . S
C3240 C3246 1.383 . S
C3241 C3237 1.495 . S
C3241 H3247 0.959 . S
C3241 H3248 0.961 . S
C3241 H3249 0.960 . S
C3242 C3240 1.381 . S
C3242 C3243 1.394 . S
C3242 H3250 0.930 . S
C3243 C3242 1.394 . S
C3243 C3244 1.383 . S
C3243 H3251 0.929 . S
C3244 C3243 1.383 . S
C3244 C3245 1.377 . S
C3245 H3229 0.930 . S
C3245 C3244 1.377 . S
C3245 C3246 1.379 . S
C3246 H3230 0.931 . S
C3246 C3240 1.383 . S
C3246 C3245 1.379 . S
H3247 C3241 0.959 . S
H3248 C3241 0.961 . S
H3249 C3241 0.960 . S
H3250 C3242 0.930 . S
H3251 C3243 0.929 . S
H3252 C3260 0.929 . S
H3253 C3262 0.930 . S
H3254 C3264 0.930 . S
H3255 C3267 0.929 . S
H3256 C3270 0.930 . S
H3257 C3272 0.960 . S
H3258 C3272 0.960 . S
H3259 C3272 0.960 . S
C3260 H3252 0.929 . S
C3260 C3261 1.377 . S
C3260 C3262 1.384 . S
C3261 C3260 1.377 . S
C3261 C3267 1.390 . S
C3262 H3253 0.930 . S
C3262 C3260 1.384 . S
C3262 C3263 1.372 . S
C3263 C3262 1.372 . S
C3263 C3264 1.400 . S
C3263 C3268 1.490 . S
C3264 H3254 0.930 . S
C3264 C3263 1.400 . S
C3264 C3267 1.386 . S
H3265 C3281 0.930 . S
H3266 C3282 0.931 . S
C3267 H3255 0.929 . S
C3267 C3261 1.390 . S
C3267 C3264 1.386 . S
C3268 C3263 1.490 . S
C3268 C3270 1.395 . S
C3268 C3271 1.403 . S
H3269 C3275 0.930 . S
C3270 H3256 0.930 . S
C3270 C3268 1.395 . S
C3270 C3273 1.403 . S
C3271 C3268 1.403 . S
C3271 C3272 1.524 . S
C3271 C3275 1.400 . S
C3272 H3257 0.960 . S
C3272 H3258 0.960 . S
C3272 H3259 0.960 . S
C3272 C3271 1.524 . S
C3273 C3270 1.403 . S
C3273 C3274 1.392 . S
C3273 C3277 1.495 . S
C3274 C3273 1.392 . S
C3274 C3275 1.385 . S
C3274 C3276 1.478 . S
C3275 H3269 0.930 . S
C3275 C3271 1.400 . S
C3275 C3274 1.385 . S
C3276 C3274 1.478 . S
C3276 C3278 1.381 . S
C3276 C3282 1.383 . S
C3277 C3273 1.495 . S
C3277 H3283 0.959 . S
C3277 H3284 0.961 . S
C3277 H3285 0.960 . S
C3278 C3276 1.381 . S
C3278 C3279 1.394 . S
C3278 H3286 0.930 . S
C3279 C3278 1.394 . S
C3279 C3280 1.383 . S
C3279 H3287 0.929 . S
C3280 C3279 1.383 . S
C3280 C3281 1.377 . S
C3281 H3265 0.930 . S
C3281 C3280 1.377 . S
C3281 C3282 1.379 . S
C3282 H3266 0.931 . S
C3282 C3276 1.383 . S
C3282 C3281 1.379 . S
H3283 C3277 0.959 . S
H3284 C3277 0.961 . S
H3285 C3277 0.960 . S
H3286 C3278 0.930 . S
H3287 C3279 0.929 . S
H3288 C3296 0.929 . S
H3289 C3298 0.930 . S
H3290 C3300 0.930 . S
H3291 C3303 0.929 . S
H3292 C3306 0.930 . S
H3293 C3308 0.960 . S
H3294 C3308 0.960 . S
H3295 C3308 0.960 . S
C3296 H3288 0.929 . S
C3296 C3297 1.377 . S
C3296 C3298 1.384 . S
C3297 C3296 1.377 . S
C3297 C3303 1.390 . S
C3298 H3289 0.930 . S
C3298 C3296 1.384 . S
C3298 C3299 1.372 . S
C3299 C3298 1.372 . S
C3299 C3300 1.400 . S
C3299 C3304 1.490 . S
C3300 H3290 0.930 . S
C3300 C3299 1.400 . S
C3300 C3303 1.386 . S
H3301 C3317 0.930 . S
H3302 C3318 0.931 . S
C3303 H3291 0.929 . S
C3303 C3297 1.390 . S
C3303 C3300 1.386 . S
C3304 C3299 1.490 . S
C3304 C3306 1.395 . S
C3304 C3307 1.403 . S
H3305 C3311 0.930 . S
C3306 H3292 0.930 . S
C3306 C3304 1.395 . S
C3306 C3309 1.403 . S
C3307 C3304 1.403 . S
C3307 C3308 1.524 . S
C3307 C3311 1.400 . S
C3308 H3293 0.960 . S
C3308 H3294 0.960 . S
C3308 H3295 0.960 . S
C3308 C3307 1.524 . S
C3309 C3306 1.403 . S
C3309 C3310 1.392 . S
C3309 C3313 1.495 . S
C3310 C3309 1.392 . S
C3310 C3311 1.385 . S
C3310 C3312 1.478 . S
C3311 H3305 0.930 . S
C3311 C3307 1.400 . S
C3311 C3310 1.385 . S
C3312 C3310 1.478 . S
C3312 C3314 1.381 . S
C3312 C3318 1.383 . S
C3313 C3309 1.495 . S
C3313 H3319 0.959 . S
C3313 H3320 0.961 . S
C3313 H3321 0.960 . S
C3314 C3312 1.381 . S
C3314 C3315 1.394 . S
C3314 H3322 0.930 . S
C3315 C3314 1.394 . S
C3315 C3316 1.383 . S
C3315 H3323 0.929 . S
C3316 C3315 1.383 . S
C3316 C3317 1.377 . S
C3317 H3301 0.930 . S
C3317 C3316 1.377 . S
C3317 C3318 1.379 . S
C3318 H3302 0.931 . S
C3318 C3312 1.383 . S
C3318 C3317 1.379 . S
H3319 C3313 0.959 . S
H3320 C3313 0.961 . S
H3321 C3313 0.960 . S
H3322 C3314 0.930 . S
H3323 C3315 0.929 . S
H3324 C3332 0.929 . S
H3325 C3334 0.930 . S
H3326 C3336 0.930 . S
H3327 C3339 0.929 . S
H3328 C3342 0.930 . S
H3329 C3344 0.960 . S
H3330 C3344 0.960 . S
H3331 C3344 0.960 . S
C3332 H3324 0.929 . S
C3332 C3333 1.377 . S
C3332 C3334 1.384 . S
C3333 C3332 1.377 . S
C3333 C3339 1.390 . S
C3334 H3325 0.930 . S
C3334 C3332 1.384 . S
C3334 C3335 1.372 . S
C3335 C3334 1.372 . S
C3335 C3336 1.400 . S
C3335 C3340 1.490 . S
C3336 H3326 0.930 . S
C3336 C3335 1.400 . S
C3336 C3339 1.386 . S
H3337 C3353 0.930 . S
H3338 C3354 0.931 . S
C3339 H3327 0.929 . S
C3339 C3333 1.390 . S
C3339 C3336 1.386 . S
C3340 C3335 1.490 . S
C3340 C3342 1.395 . S
C3340 C3343 1.403 . S
H3341 C3347 0.930 . S
C3342 H3328 0.930 . S
C3342 C3340 1.395 . S
C3342 C3345 1.403 . S
C3343 C3340 1.403 . S
C3343 C3344 1.524 . S
C3343 C3347 1.400 . S
C3344 H3329 0.960 . S
C3344 H3330 0.960 . S
C3344 H3331 0.960 . S
C3344 C3343 1.524 . S
C3345 C3342 1.403 . S
C3345 C3346 1.392 . S
C3345 C3349 1.494 . S
C3346 C3345 1.392 . S
C3346 C3347 1.385 . S
C3346 C3348 1.478 1_455 S
C3347 H3341 0.930 . S
C3347 C3343 1.400 . S
C3347 C3346 1.385 . S
C3348 C3346 1.478 1_655 S
C3348 C3350 1.381 . S
C3348 C3354 1.383 . S
C3349 C3345 1.494 . S
C3349 H3355 0.958 . S
C3349 H3356 0.962 1_455 S
C3349 H3357 0.961 1_455 S
C3350 C3348 1.381 . S
C3350 C3351 1.394 . S
C3350 H3358 0.930 . S
C3351 C3350 1.394 . S
C3351 C3352 1.383 . S
C3351 H3359 0.929 . S
C3352 C3351 1.383 . S
C3352 C3353 1.377 . S
C3353 H3337 0.930 . S
C3353 C3352 1.377 . S
C3353 C3354 1.379 . S
C3354 H3338 0.931 . S
C3354 C3348 1.383 . S
C3354 C3353 1.379 . S
H3355 C3349 0.958 . S
H3356 C3349 0.962 1_655 S
H3357 C3349 0.961 1_655 S
H3358 C3350 0.930 . S
H3359 C3351 0.929 . S
H3360 C3368 0.929 . S
H3361 C3370 0.930 . S
H3362 C3372 0.930 . S
H3363 C3375 0.929 . S
H3364 C3378 0.930 . S
H3365 C3380 0.960 . S
H3366 C3380 0.960 . S
H3367 C3380 0.960 . S
C3368 H3360 0.929 . S
C3368 C3369 1.377 . S
C3368 C3370 1.384 . S
C3369 C3368 1.377 . S
C3369 C3375 1.390 . S
C3370 H3361 0.930 . S
C3370 C3368 1.384 . S
C3370 C3371 1.372 . S
C3371 C3370 1.372 . S
C3371 C3372 1.400 . S
C3371 C3376 1.490 . S
C3372 H3362 0.930 . S
C3372 C3371 1.400 . S
C3372 C3375 1.386 . S
H3373 C3389 0.930 . S
H3374 C3390 0.931 . S
C3375 H3363 0.929 . S
C3375 C3369 1.390 . S
C3375 C3372 1.386 . S
C3376 C3371 1.490 . S
C3376 C3378 1.395 . S
C3376 C3379 1.403 . S
H3377 C3383 0.930 . S
C3378 H3364 0.930 . S
C3378 C3376 1.395 . S
C3378 C3381 1.403 . S
C3379 C3376 1.403 . S
C3379 C3380 1.524 . S
C3379 C3383 1.400 . S
C3380 H3365 0.960 . S
C3380 H3366 0.960 . S
C3380 H3367 0.960 . S
C3380 C3379 1.524 . S
C3381 C3378 1.403 . S
C3381 C3382 1.392 . S
C3381 C3385 1.495 . S
C3382 C3381 1.392 . S
C3382 C3383 1.385 . S
C3382 C3384 1.478 . S
C3383 H3377 0.930 . S
C3383 C3379 1.400 . S
C3383 C3382 1.385 . S
C3384 C3382 1.478 . S
C3384 C3386 1.381 . S
C3384 C3390 1.383 . S
C3385 C3381 1.495 . S
C3385 H3391 0.959 . S
C3385 H3392 0.961 . S
C3385 H3393 0.960 . S
C3386 C3384 1.381 . S
C3386 C3387 1.394 . S
C3386 H3394 0.930 . S
C3387 C3386 1.394 . S
C3387 C3388 1.383 . S
C3387 H3395 0.929 . S
C3388 C3387 1.383 . S
C3388 C3389 1.377 . S
C3389 H3373 0.930 . S
C3389 C3388 1.377 . S
C3389 C3390 1.379 . S
C3390 H3374 0.931 . S
C3390 C3384 1.383 . S
C3390 C3389 1.379 . S
H3391 C3385 0.959 . S
H3392 C3385 0.961 . S
H3393 C3385 0.960 . S
H3394 C3386 0.930 . S
H3395 C3387 0.929 . S
H3396 C3404 0.929 . S
H3397 C3406 0.930 . S
H3398 C3408 0.930 . S
H3399 C3411 0.929 . S
H3400 C3414 0.930 . S
H3401 C3416 0.960 . S
H3402 C3416 0.960 . S
H3403 C3416 0.960 . S
C3404 H3396 0.929 . S
C3404 C3405 1.377 . S
C3404 C3406 1.384 . S
C3405 C3404 1.377 . S
C3405 C3411 1.390 . S
C3406 H3397 0.930 . S
C3406 C3404 1.384 . S
C3406 C3407 1.372 . S
C3407 C3406 1.372 . S
C3407 C3408 1.400 . S
C3407 C3412 1.490 . S
C3408 H3398 0.930 . S
C3408 C3407 1.400 . S
C3408 C3411 1.386 . S
H3409 C3425 0.930 . S
H3410 C3426 0.931 . S
C3411 H3399 0.929 . S
C3411 C3405 1.390 . S
C3411 C3408 1.386 . S
C3412 C3407 1.490 . S
C3412 C3414 1.395 . S
C3412 C3415 1.403 . S
H3413 C3419 0.930 . S
C3414 H3400 0.930 . S
C3414 C3412 1.395 . S
C3414 C3417 1.403 . S
C3415 C3412 1.403 . S
C3415 C3416 1.524 . S
C3415 C3419 1.400 . S
C3416 H3401 0.960 . S
C3416 H3402 0.960 . S
C3416 H3403 0.960 . S
C3416 C3415 1.524 . S
C3417 C3414 1.403 . S
C3417 C3418 1.392 . S
C3417 C3421 1.495 . S
C3418 C3417 1.392 . S
C3418 C3419 1.385 . S
C3418 C3420 1.478 . S
C3419 H3413 0.930 . S
C3419 C3415 1.400 . S
C3419 C3418 1.385 . S
C3420 C3418 1.478 . S
C3420 C3422 1.381 . S
C3420 C3426 1.383 . S
C3421 C3417 1.495 . S
C3421 H3427 0.959 . S
C3421 H3428 0.961 . S
C3421 H3429 0.960 . S
C3422 C3420 1.381 . S
C3422 C3423 1.394 . S
C3422 H3430 0.930 . S
C3423 C3422 1.394 . S
C3423 C3424 1.383 . S
C3423 H3431 0.929 . S
C3424 C3423 1.383 . S
C3424 C3425 1.377 . S
C3425 H3409 0.930 . S
C3425 C3424 1.377 . S
C3425 C3426 1.379 . S
C3426 H3410 0.931 . S
C3426 C3420 1.383 . S
C3426 C3425 1.379 . S
H3427 C3421 0.959 . S
H3428 C3421 0.961 . S
H3429 C3421 0.960 . S
H3430 C3422 0.930 . S
H3431 C3423 0.929 . S
H3432 C3440 0.929 . S
H3433 C3442 0.930 . S
H3434 C3444 0.930 . S
H3435 C3447 0.929 . S
H3436 C3450 0.930 . S
H3437 C3452 0.960 . S
H3438 C3452 0.960 . S
H3439 C3452 0.960 . S
C3440 H3432 0.929 . S
C3440 C3441 1.377 . S
C3440 C3442 1.384 . S
C3441 C3440 1.377 . S
C3441 C3447 1.390 . S
C3442 H3433 0.930 . S
C3442 C3440 1.384 . S
C3442 C3443 1.372 . S
C3443 C3442 1.372 . S
C3443 C3444 1.400 . S
C3443 C3448 1.490 . S
C3444 H3434 0.930 . S
C3444 C3443 1.400 . S
C3444 C3447 1.386 . S
H3445 C3461 0.930 . S
H3446 C3462 0.931 . S
C3447 H3435 0.929 . S
C3447 C3441 1.390 . S
C3447 C3444 1.386 . S
C3448 C3443 1.490 . S
C3448 C3450 1.395 . S
C3448 C3451 1.403 . S
H3449 C3455 0.930 . S
C3450 H3436 0.930 . S
C3450 C3448 1.395 . S
C3450 C3453 1.403 . S
C3451 C3448 1.403 . S
C3451 C3452 1.524 . S
C3451 C3455 1.400 . S
C3452 H3437 0.960 . S
C3452 H3438 0.960 . S
C3452 H3439 0.960 . S
C3452 C3451 1.524 . S
C3453 C3450 1.403 . S
C3453 C3454 1.392 . S
C3453 C3457 1.495 . S
C3454 C3453 1.392 . S
C3454 C3455 1.385 . S
C3454 C3456 1.478 . S
C3455 H3449 0.930 . S
C3455 C3451 1.400 . S
C3455 C3454 1.385 . S
C3456 C3454 1.478 . S
C3456 C3458 1.381 . S
C3456 C3462 1.383 . S
C3457 C3453 1.495 . S
C3457 H3463 0.959 . S
C3457 H3464 0.961 . S
C3457 H3465 0.960 . S
C3458 C3456 1.381 . S
C3458 C3459 1.394 . S
C3458 H3466 0.930 . S
C3459 C3458 1.394 . S
C3459 C3460 1.383 . S
C3459 H3467 0.929 . S
C3460 C3459 1.383 . S
C3460 C3461 1.377 . S
C3461 H3445 0.930 . S
C3461 C3460 1.377 . S
C3461 C3462 1.379 . S
C3462 H3446 0.931 . S
C3462 C3456 1.383 . S
C3462 C3461 1.379 . S
H3463 C3457 0.959 . S
H3464 C3457 0.961 . S
H3465 C3457 0.960 . S
H3466 C3458 0.930 . S
H3467 C3459 0.929 . S
H3468 C3476 0.929 . S
H3469 C3478 0.930 . S
H3470 C3480 0.930 . S
H3471 C3483 0.929 . S
H3472 C3486 0.930 . S
H3473 C3488 0.965 . S
H3474 C3488 0.956 1_655 S
H3475 C3488 0.956 1_655 S
C3476 H3468 0.929 . S
C3476 C3477 1.377 . S
C3476 C3478 1.384 . S
C3477 C3476 1.377 . S
C3477 C3483 1.390 . S
C3478 H3469 0.930 . S
C3478 C3476 1.384 . S
C3478 C3479 1.372 . S
C3479 C3478 1.372 . S
C3479 C3480 1.400 . S
C3479 C3484 1.490 1_655 S
C3480 H3470 0.930 . S
C3480 C3479 1.400 . S
C3480 C3483 1.386 . S
H3481 C3497 0.930 . S
H3482 C3498 0.931 . S
C3483 H3471 0.929 . S
C3483 C3477 1.390 . S
C3483 C3480 1.386 . S
C3484 C3479 1.490 1_455 S
C3484 C3486 1.395 . S
C3484 C3487 1.403 . S
H3485 C3491 0.930 . S
C3486 H3472 0.930 . S
C3486 C3484 1.395 . S
C3486 C3489 1.403 . S
C3487 C3484 1.403 . S
C3487 C3488 1.528 . S
C3487 C3491 1.400 . S
C3488 H3473 0.965 . S
C3488 H3474 0.956 1_455 S
C3488 H3475 0.956 1_455 S
C3488 C3487 1.528 . S
C3489 C3486 1.403 . S
C3489 C3490 1.392 . S
C3489 C3493 1.495 . S
C3490 C3489 1.392 . S
C3490 C3491 1.385 . S
C3490 C3492 1.478 . S
C3491 H3485 0.930 . S
C3491 C3487 1.400 . S
C3491 C3490 1.385 . S
C3492 C3490 1.478 . S
C3492 C3494 1.381 . S
C3492 C3498 1.383 . S
C3493 C3489 1.495 . S
C3493 H3499 0.959 . S
C3493 H3500 0.961 . S
C3493 H3501 0.960 . S
C3494 C3492 1.381 . S
C3494 C3495 1.394 . S
C3494 H3502 0.930 . S
C3495 C3494 1.394 . S
C3495 C3496 1.383 . S
C3495 H3503 0.929 . S
C3496 C3495 1.383 . S
C3496 C3497 1.377 . S
C3497 H3481 0.930 . S
C3497 C3496 1.377 . S
C3497 C3498 1.379 . S
C3498 H3482 0.931 . S
C3498 C3492 1.383 . S
C3498 C3497 1.379 . S
H3499 C3493 0.959 . S
H3500 C3493 0.961 . S
H3501 C3493 0.960 . S
H3502 C3494 0.930 . S
H3503 C3495 0.929 . S
H3504 C3512 0.929 . S
H3505 C3514 0.930 . S
H3506 C3516 0.930 . S
H3507 C3519 0.929 . S
H3508 C3522 0.930 . S
H3509 C3524 0.960 . S
H3510 C3524 0.960 . S
H3511 C3524 0.960 . S
C3512 H3504 0.929 . S
C3512 C3513 1.377 . S
C3512 C3514 1.384 . S
C3513 C3512 1.377 . S
C3513 C3519 1.390 . S
C3514 H3505 0.930 . S
C3514 C3512 1.384 . S
C3514 C3515 1.372 . S
C3515 C3514 1.372 . S
C3515 C3516 1.400 . S
C3515 C3520 1.490 . S
C3516 H3506 0.930 . S
C3516 C3515 1.400 . S
C3516 C3519 1.386 . S
H3517 C3533 0.930 . S
H3518 C3534 0.931 . S
C3519 H3507 0.929 . S
C3519 C3513 1.390 . S
C3519 C3516 1.386 . S
C3520 C3515 1.490 . S
C3520 C3522 1.395 . S
C3520 C3523 1.403 . S
H3521 C3527 0.930 . S
C3522 H3508 0.930 . S
C3522 C3520 1.395 . S
C3522 C3525 1.403 . S
C3523 C3520 1.403 . S
C3523 C3524 1.524 . S
C3523 C3527 1.400 . S
C3524 H3509 0.960 . S
C3524 H3510 0.960 . S
C3524 H3511 0.960 . S
C3524 C3523 1.524 . S
C3525 C3522 1.403 . S
C3525 C3526 1.392 . S
C3525 C3529 1.495 . S
C3526 C3525 1.392 . S
C3526 C3527 1.385 . S
C3526 C3528 1.478 . S
C3527 H3521 0.930 . S
C3527 C3523 1.400 . S
C3527 C3526 1.385 . S
C3528 C3526 1.478 . S
C3528 C3530 1.381 . S
C3528 C3534 1.383 . S
C3529 C3525 1.495 . S
C3529 H3535 0.959 . S
C3529 H3536 0.961 . S
C3529 H3537 0.960 . S
C3530 C3528 1.381 . S
C3530 C3531 1.394 . S
C3530 H3538 0.930 . S
C3531 C3530 1.394 . S
C3531 C3532 1.383 . S
C3531 H3539 0.929 . S
C3532 C3531 1.383 . S
C3532 C3533 1.377 . S
C3533 H3517 0.930 . S
C3533 C3532 1.377 . S
C3533 C3534 1.379 . S
C3534 H3518 0.931 . S
C3534 C3528 1.383 . S
C3534 C3533 1.379 . S
H3535 C3529 0.959 . S
H3536 C3529 0.961 . S
H3537 C3529 0.960 . S
H3538 C3530 0.930 . S
H3539 C3531 0.929 . S
H3540 C3548 0.929 . S
H3541 C3550 0.930 . S
H3542 C3552 0.930 . S
H3543 C3555 0.929 . S
H3544 C3558 0.960 . S
H3545 C3560 0.960 . S
H3546 C3560 0.960 . S
H3547 C3560 0.960 . S
C3548 H3540 0.929 . S
C3548 C3549 1.377 . S
C3548 C3550 1.384 . S
C3549 C3548 1.377 . S
C3549 C3555 1.390 . S
C3550 H3541 0.930 . S
C3550 C3548 1.384 . S
C3550 C3551 1.372 . S
C3551 C3550 1.372 . S
C3551 C3552 1.400 . S
C3551 C3556 1.490 1_655 S
C3552 H3542 0.930 . S
C3552 C3551 1.400 . S
C3552 C3555 1.386 . S
H3553 C3569 0.930 . S
H3554 C3570 0.931 . S
C3555 H3543 0.929 . S
C3555 C3549 1.390 . S
C3555 C3552 1.386 . S
C3556 C3551 1.490 1_455 S
C3556 C3558 1.395 . S
C3556 C3559 1.403 . S
H3557 C3563 0.930 . S
C3558 H3544 0.960 . S
C3558 C3556 1.395 . S
C3558 C3561 1.403 . S
C3559 C3556 1.403 . S
C3559 C3560 1.524 . S
C3559 C3563 1.400 . S
C3560 H3545 0.960 . S
C3560 H3546 0.960 . S
C3560 H3547 0.960 . S
C3560 C3559 1.524 . S
C3561 C3558 1.403 . S
C3561 C3562 1.392 . S
C3561 C3565 1.495 . S
C3562 C3561 1.392 . S
C3562 C3563 1.385 . S
C3562 C3564 1.478 . S
C3563 H3557 0.930 . S
C3563 C3559 1.400 . S
C3563 C3562 1.385 . S
C3564 C3562 1.478 . S
C3564 C3566 1.381 . S
C3564 C3570 1.383 . S
C3565 C3561 1.495 . S
C3565 H3571 0.959 . S
C3565 H3572 0.961 . S
C3565 H3573 0.960 . S
C3566 C3564 1.381 . S
C3566 C3567 1.394 . S
C3566 H3574 0.930 . S
C3567 C3566 1.394 . S
C3567 C3568 1.383 . S
C3567 H3575 0.929 . S
C3568 C3567 1.383 . S
C3568 C3569 1.377 . S
C3569 H3553 0.930 . S
C3569 C3568 1.377 . S
C3569 C3570 1.379 . S
C3570 H3554 0.931 . S
C3570 C3564 1.383 . S
C3570 C3569 1.379 . S
H3571 C3565 0.959 . S
H3572 C3565 0.961 . S
H3573 C3565 0.960 . S
H3574 C3566 0.930 . S
H3575 C3567 0.929 . S
H3576 C3584 0.929 . S
H3577 C3586 0.930 . S
H3578 C3588 0.930 . S
H3579 C3591 0.929 . S
H3580 C3594 0.930 . S
H3581 C3596 0.960 . S
H3582 C3596 0.960 . S
H3583 C3596 0.960 . S
C3584 H3576 0.929 . S
C3584 C3585 1.377 . S
C3584 C3586 1.384 . S
C3585 C3584 1.377 . S
C3585 C3591 1.390 . S
C3586 H3577 0.930 . S
C3586 C3584 1.384 . S
C3586 C3587 1.372 . S
C3587 C3586 1.372 . S
C3587 C3588 1.400 . S
C3587 C3592 1.490 . S
C3588 H3578 0.930 . S
C3588 C3587 1.400 . S
C3588 C3591 1.386 . S
H3589 C3605 0.930 . S
H3590 C3606 0.931 . S
C3591 H3579 0.929 . S
C3591 C3585 1.390 . S
C3591 C3588 1.386 . S
C3592 C3587 1.490 . S
C3592 C3594 1.395 . S
C3592 C3595 1.403 . S
H3593 C3599 0.930 . S
C3594 H3580 0.930 . S
C3594 C3592 1.395 . S
C3594 C3597 1.403 . S
C3595 C3592 1.403 . S
C3595 C3596 1.524 . S
C3595 C3599 1.400 . S
C3596 H3581 0.960 . S
C3596 H3582 0.960 . S
C3596 H3583 0.960 . S
C3596 C3595 1.524 . S
C3597 C3594 1.403 . S
C3597 C3598 1.392 . S
C3597 C3601 1.495 . S
C3598 C3597 1.392 . S
C3598 C3599 1.385 . S
C3598 C3600 1.478 . S
C3599 H3593 0.930 . S
C3599 C3595 1.400 . S
C3599 C3598 1.385 . S
C3600 C3598 1.478 . S
C3600 C3602 1.381 . S
C3600 C3606 1.383 . S
C3601 C3597 1.495 . S
C3601 H3607 0.959 . S
C3601 H3608 0.961 . S
C3601 H3609 0.960 . S
C3602 C3600 1.381 . S
C3602 C3603 1.394 . S
C3602 H3610 0.930 . S
C3603 C3602 1.394 . S
C3603 C3604 1.383 . S
C3603 H3611 0.929 . S
C3604 C3603 1.383 . S
C3604 C3605 1.377 . S
C3605 H3589 0.930 . S
C3605 C3604 1.377 . S
C3605 C3606 1.379 . S
C3606 H3590 0.931 . S
C3606 C3600 1.383 . S
C3606 C3605 1.379 . S
H3607 C3601 0.959 . S
H3608 C3601 0.961 . S
H3609 C3601 0.960 . S
H3610 C3602 0.930 . S
H3611 C3603 0.929 . S
H3612 C3620 0.929 . S
H3613 C3622 0.930 . S
H3614 C3624 0.930 . S
H3615 C3627 0.929 . S
H3616 C3630 0.930 . S
H3617 C3632 0.960 . S
H3618 C3632 0.960 . S
H3619 C3632 0.960 . S
C3620 H3612 0.929 . S
C3620 C3621 1.377 . S
C3620 C3622 1.384 . S
C3621 C3620 1.377 . S
C3621 C3627 1.390 . S
C3622 H3613 0.930 . S
C3622 C3620 1.384 . S
C3622 C3623 1.372 . S
C3623 C3622 1.372 . S
C3623 C3624 1.400 . S
C3623 C3628 1.490 . S
C3624 H3614 0.930 . S
C3624 C3623 1.400 . S
C3624 C3627 1.386 . S
H3625 C3641 0.930 . S
H3626 C3642 0.931 . S
C3627 H3615 0.929 . S
C3627 C3621 1.390 . S
C3627 C3624 1.386 . S
C3628 C3623 1.490 . S
C3628 C3630 1.395 . S
C3628 C3631 1.403 . S
H3629 C3635 0.930 . S
C3630 H3616 0.930 . S
C3630 C3628 1.395 . S
C3630 C3633 1.403 . S
C3631 C3628 1.403 . S
C3631 C3632 1.524 . S
C3631 C3635 1.400 . S
C3632 H3617 0.960 . S
C3632 H3618 0.960 . S
C3632 H3619 0.960 . S
C3632 C3631 1.524 . S
C3633 C3630 1.403 . S
C3633 C3634 1.392 . S
C3633 C3637 1.495 . S
C3634 C3633 1.392 . S
C3634 C3635 1.385 . S
C3634 C3636 1.478 . S
C3635 H3629 0.930 . S
C3635 C3631 1.400 . S
C3635 C3634 1.385 . S
C3636 C3634 1.478 . S
C3636 C3638 1.381 . S
C3636 C3642 1.383 . S
C3637 C3633 1.495 . S
C3637 H3643 0.959 . S
C3637 H3644 0.961 . S
C3637 H3645 0.960 . S
C3638 C3636 1.381 . S
C3638 C3639 1.394 . S
C3638 H3646 0.930 . S
C3639 C3638 1.394 . S
C3639 C3640 1.383 . S
C3639 H3647 0.929 . S
C3640 C3639 1.383 . S
C3640 C3641 1.377 . S
C3641 H3625 0.930 . S
C3641 C3640 1.377 . S
C3641 C3642 1.379 . S
C3642 H3626 0.931 . S
C3642 C3636 1.383 . S
C3642 C3641 1.379 . S
H3643 C3637 0.959 . S
H3644 C3637 0.961 . S
H3645 C3637 0.960 . S
H3646 C3638 0.930 . S
H3647 C3639 0.929 . S
H3648 C3656 0.929 . S
H3649 C3658 0.930 . S
H3650 C3660 0.930 . S
H3651 C3663 0.929 . S
H3652 C3666 0.930 . S
H3653 C3668 0.960 . S
H3654 C3668 0.960 . S
H3655 C3668 0.960 . S
C3656 H3648 0.929 . S
C3656 C3657 1.377 . S
C3656 C3658 1.384 . S
C3657 C3656 1.377 . S
C3657 C3663 1.390 . S
C3658 H3649 0.930 . S
C3658 C3656 1.384 . S
C3658 C3659 1.372 . S
C3659 C3658 1.372 . S
C3659 C3660 1.400 . S
C3659 C3664 1.490 . S
C3660 H3650 0.930 . S
C3660 C3659 1.400 . S
C3660 C3663 1.386 . S
H3661 C3677 0.930 . S
H3662 C3678 0.931 . S
C3663 H3651 0.929 . S
C3663 C3657 1.390 . S
C3663 C3660 1.386 . S
C3664 C3659 1.490 . S
C3664 C3666 1.395 . S
C3664 C3667 1.403 . S
H3665 C3671 0.930 . S
C3666 H3652 0.930 . S
C3666 C3664 1.395 . S
C3666 C3669 1.403 . S
C3667 C3664 1.403 . S
C3667 C3668 1.524 . S
C3667 C3671 1.400 . S
C3668 H3653 0.960 . S
C3668 H3654 0.960 . S
C3668 H3655 0.960 . S
C3668 C3667 1.524 . S
C3669 C3666 1.403 . S
C3669 C3670 1.392 . S
C3669 C3673 1.495 . S
C3670 C3669 1.392 . S
C3670 C3671 1.385 . S
C3670 C3672 1.478 . S
C3671 H3665 0.930 . S
C3671 C3667 1.400 . S
C3671 C3670 1.385 . S
C3672 C3670 1.478 . S
C3672 C3674 1.381 . S
C3672 C3678 1.383 . S
C3673 C3669 1.495 . S
C3673 H3679 0.959 . S
C3673 H3680 0.961 . S
C3673 H3681 0.960 . S
C3674 C3672 1.381 . S
C3674 C3675 1.394 . S
C3674 H3682 0.930 . S
C3675 C3674 1.394 . S
C3675 C3676 1.383 . S
C3675 H3683 0.929 . S
C3676 C3675 1.383 . S
C3676 C3677 1.377 . S
C3677 H3661 0.930 . S
C3677 C3676 1.377 . S
C3677 C3678 1.379 . S
C3678 H3662 0.931 . S
C3678 C3672 1.383 . S
C3678 C3677 1.379 . S
H3679 C3673 0.959 . S
H3680 C3673 0.961 . S
H3681 C3673 0.960 . S
H3682 C3674 0.930 . S
H3683 C3675 0.929 . S
H3684 C3692 0.929 . S
H3685 C3694 0.930 . S
H3686 C3696 0.930 . S
H3687 C3699 0.929 . S
H3688 C3702 0.930 . S
H3689 C3704 0.960 . S
H3690 C3704 0.960 . S
H3691 C3704 0.960 . S
C3692 H3684 0.929 . S
C3692 C3693 1.377 . S
C3692 C3694 1.384 . S
C3693 C3692 1.377 . S
C3693 C3699 1.390 . S
C3694 H3685 0.930 . S
C3694 C3692 1.384 . S
C3694 C3695 1.372 . S
C3695 C3694 1.372 . S
C3695 C3696 1.400 . S
C3695 C3700 1.490 . S
C3696 H3686 0.930 . S
C3696 C3695 1.400 . S
C3696 C3699 1.386 . S
H3697 C3713 0.930 . S
H3698 C3714 0.931 . S
C3699 H3687 0.929 . S
C3699 C3693 1.390 . S
C3699 C3696 1.386 . S
C3700 C3695 1.490 . S
C3700 C3702 1.395 . S
C3700 C3703 1.403 . S
H3701 C3707 0.930 . S
C3702 H3688 0.930 . S
C3702 C3700 1.395 . S
C3702 C3705 1.403 . S
C3703 C3700 1.403 . S
C3703 C3704 1.524 . S
C3703 C3707 1.400 . S
C3704 H3689 0.960 . S
C3704 H3690 0.960 . S
C3704 H3691 0.960 . S
C3704 C3703 1.524 . S
C3705 C3702 1.403 . S
C3705 C3706 1.392 . S
C3705 C3709 1.495 . S
C3706 C3705 1.392 . S
C3706 C3707 1.385 . S
C3706 C3708 1.478 . S
C3707 H3701 0.930 . S
C3707 C3703 1.400 . S
C3707 C3706 1.385 . S
C3708 C3706 1.478 . S
C3708 C3710 1.381 . S
C3708 C3714 1.383 . S
C3709 C3705 1.495 . S
C3709 H3715 0.959 . S
C3709 H3716 0.961 . S
C3709 H3717 0.960 . S
C3710 C3708 1.381 . S
C3710 C3711 1.394 . S
C3710 H3718 0.930 . S
C3711 C3710 1.394 . S
C3711 C3712 1.383 . S
C3711 H3719 0.929 . S
C3712 C3711 1.383 . S
C3712 C3713 1.377 . S
C3713 H3697 0.930 . S
C3713 C3712 1.377 . S
C3713 C3714 1.379 . S
C3714 H3698 0.931 . S
C3714 C3708 1.383 . S
C3714 C3713 1.379 . S
H3715 C3709 0.959 . S
H3716 C3709 0.961 . S
H3717 C3709 0.960 . S
H3718 C3710 0.930 . S
H3719 C3711 0.929 . S
H3720 C3728 0.929 . S
H3721 C3730 0.930 . S
H3722 C3732 0.930 . S
H3723 C3735 0.929 . S
H3724 C3738 0.930 . S
H3725 C3740 0.960 . S
H3726 C3740 0.960 . S
H3727 C3740 0.960 . S
C3728 H3720 0.929 . S
C3728 C3729 1.377 . S
C3728 C3730 1.384 . S
C3729 C3728 1.377 . S
C3729 C3735 1.390 . S
C3730 H3721 0.930 . S
C3730 C3728 1.384 . S
C3730 C3731 1.372 . S
C3731 C3730 1.372 . S
C3731 C3732 1.400 . S
C3731 C3736 1.490 . S
C3732 H3722 0.930 . S
C3732 C3731 1.400 . S
C3732 C3735 1.386 . S
H3733 C3749 0.930 . S
H3734 C3750 0.931 . S
C3735 H3723 0.929 . S
C3735 C3729 1.390 . S
C3735 C3732 1.386 . S
C3736 C3731 1.490 . S
C3736 C3738 1.395 . S
C3736 C3739 1.403 . S
H3737 C3743 0.930 . S
C3738 H3724 0.930 . S
C3738 C3736 1.395 . S
C3738 C3741 1.403 . S
C3739 C3736 1.403 . S
C3739 C3740 1.524 . S
C3739 C3743 1.400 . S
C3740 H3725 0.960 . S
C3740 H3726 0.960 . S
C3740 H3727 0.960 . S
C3740 C3739 1.524 . S
C3741 C3738 1.403 . S
C3741 C3742 1.392 . S
C3741 C3745 1.495 . S
C3742 C3741 1.392 . S
C3742 C3743 1.385 . S
C3742 C3744 1.478 . S
C3743 H3737 0.930 . S
C3743 C3739 1.400 . S
C3743 C3742 1.385 . S
C3744 C3742 1.478 . S
C3744 C3746 1.381 . S
C3744 C3750 1.383 . S
C3745 C3741 1.495 . S
C3745 H3751 0.959 . S
C3745 H3752 0.961 . S
C3745 H3753 0.960 . S
C3746 C3744 1.381 . S
C3746 C3747 1.394 . S
C3746 H3754 0.930 . S
C3747 C3746 1.394 . S
C3747 C3748 1.383 . S
C3747 H3755 0.929 . S
C3748 C3747 1.383 . S
C3748 C3749 1.377 . S
C3749 H3733 0.930 . S
C3749 C3748 1.377 . S
C3749 C3750 1.379 . S
C3750 H3734 0.931 . S
C3750 C3744 1.383 . S
C3750 C3749 1.379 . S
H3751 C3745 0.959 . S
H3752 C3745 0.961 . S
H3753 C3745 0.960 . S
H3754 C3746 0.930 . S
H3755 C3747 0.929 . S
H3756 C3764 0.929 . S
H3757 C3766 0.930 . S
H3758 C3768 0.930 . S
H3759 C3771 0.929 . S
H3760 C3774 0.930 . S
H3761 C3776 0.960 . S
H3762 C3776 0.960 . S
H3763 C3776 0.960 . S
C3764 H3756 0.929 . S
C3764 C3765 1.377 . S
C3764 C3766 1.384 . S
C3765 C3764 1.377 . S
C3765 C3771 1.390 . S
C3766 H3757 0.930 . S
C3766 C3764 1.384 . S
C3766 C3767 1.372 . S
C3767 C3766 1.372 . S
C3767 C3768 1.400 . S
C3767 C3772 1.490 . S
C3768 H3758 0.930 . S
C3768 C3767 1.400 . S
C3768 C3771 1.386 . S
H3769 C3785 0.930 . S
H3770 C3786 0.931 . S
C3771 H3759 0.929 . S
C3771 C3765 1.390 . S
C3771 C3768 1.386 . S
C3772 C3767 1.490 . S
C3772 C3774 1.395 . S
C3772 C3775 1.403 . S
H3773 C3779 0.930 . S
C3774 H3760 0.930 . S
C3774 C3772 1.395 . S
C3774 C3777 1.403 . S
C3775 C3772 1.403 . S
C3775 C3776 1.524 . S
C3775 C3779 1.400 . S
C3776 H3761 0.960 . S
C3776 H3762 0.960 . S
C3776 H3763 0.960 . S
C3776 C3775 1.524 . S
C3777 C3774 1.403 . S
C3777 C3778 1.392 . S
C3777 C3781 1.495 . S
C3778 C3777 1.392 . S
C3778 C3779 1.385 . S
C3778 C3780 1.478 1_655 S
C3779 H3773 0.930 . S
C3779 C3775 1.400 . S
C3779 C3778 1.385 . S
C3780 C3778 1.478 1_455 S
C3780 C3782 1.381 . S
C3780 C3786 1.383 . S
C3781 C3777 1.495 . S
C3781 H3787 0.959 . S
C3781 H3788 0.962 . S
C3781 H3789 0.960 . S
C3782 C3780 1.381 . S
C3782 C3783 1.394 . S
C3782 H3790 0.930 . S
C3783 C3782 1.394 . S
C3783 C3784 1.383 . S
C3783 H3791 0.929 . S
C3784 C3783 1.383 . S
C3784 C3785 1.377 . S
C3785 H3769 0.930 . S
C3785 C3784 1.377 . S
C3785 C3786 1.379 . S
C3786 H3770 0.931 . S
C3786 C3780 1.383 . S
C3786 C3785 1.379 . S
H3787 C3781 0.959 . S
H3788 C3781 0.962 . S
H3789 C3781 0.960 . S
H3790 C3782 0.930 . S
H3791 C3783 0.929 . S
H3792 C3800 0.929 . S
H3793 C3802 0.930 . S
H3794 C3804 0.930 . S
H3795 C3807 0.929 . S
H3796 C3810 0.930 . S
H3797 C3812 0.960 . S
H3798 C3812 0.960 . S
H3799 C3812 0.960 . S
C3800 H3792 0.929 . S
C3800 C3801 1.377 . S
C3800 C3802 1.384 . S
C3801 C3800 1.377 . S
C3801 C3807 1.390 . S
C3802 H3793 0.930 . S
C3802 C3800 1.384 . S
C3802 C3803 1.372 . S
C3803 C3802 1.372 . S
C3803 C3804 1.400 . S
C3803 C3808 1.490 . S
C3804 H3794 0.930 . S
C3804 C3803 1.400 . S
C3804 C3807 1.386 . S
H3805 C3821 0.930 . S
H3806 C3822 0.931 . S
C3807 H3795 0.929 . S
C3807 C3801 1.390 . S
C3807 C3804 1.386 . S
C3808 C3803 1.490 . S
C3808 C3810 1.395 . S
C3808 C3811 1.403 . S
H3809 C3815 0.930 . S
C3810 H3796 0.930 . S
C3810 C3808 1.395 . S
C3810 C3813 1.403 . S
C3811 C3808 1.403 . S
C3811 C3812 1.524 . S
C3811 C3815 1.400 . S
C3812 H3797 0.960 . S
C3812 H3798 0.960 . S
C3812 H3799 0.960 . S
C3812 C3811 1.524 . S
C3813 C3810 1.403 . S
C3813 C3814 1.392 . S
C3813 C3817 1.495 . S
C3814 C3813 1.392 . S
C3814 C3815 1.385 . S
C3814 C3816 1.478 . S
C3815 H3809 0.930 . S
C3815 C3811 1.400 . S
C3815 C3814 1.385 . S
C3816 C3814 1.478 . S
C3816 C3818 1.381 . S
C3816 C3822 1.383 . S
C3817 C3813 1.495 . S
C3817 H3823 0.959 . S
C3817 H3824 0.961 . S
C3817 H3825 0.960 . S
C3818 C3816 1.381 . S
C3818 C3819 1.394 . S
C3818 H3826 0.930 . S
C3819 C3818 1.394 . S
C3819 C3820 1.383 . S
C3819 H3827 0.929 . S
C3820 C3819 1.383 . S
C3820 C3821 1.377 . S
C3821 H3805 0.930 . S
C3821 C3820 1.377 . S
C3821 C3822 1.379 . S
C3822 H3806 0.931 . S
C3822 C3816 1.383 . S
C3822 C3821 1.379 . S
H3823 C3817 0.959 . S
H3824 C3817 0.961 . S
H3825 C3817 0.960 . S
H3826 C3818 0.930 . S
H3827 C3819 0.929 . S
H3828 C3836 0.929 . S
H3829 C3838 0.930 . S
H3830 C3840 0.930 . S
H3831 C3843 0.929 . S
H3832 C3846 0.930 . S
H3833 C3848 0.960 . S
H3834 C3848 0.962 . S
H3835 C3848 0.960 1_455 S
C3836 H3828 0.929 . S
C3836 C3837 1.377 . S
C3836 C3838 1.384 . S
C3837 C3836 1.377 . S
C3837 C3843 1.390 . S
C3838 H3829 0.930 . S
C3838 C3836 1.384 . S
C3838 C3839 1.372 . S
C3839 C3838 1.372 . S
C3839 C3840 1.400 . S
C3839 C3844 1.490 1_455 S
C3840 H3830 0.930 . S
C3840 C3839 1.400 . S
C3840 C3843 1.386 . S
H3841 C3857 0.930 . S
H3842 C3858 0.931 . S
C3843 H3831 0.929 . S
C3843 C3837 1.390 . S
C3843 C3840 1.386 . S
C3844 C3839 1.490 1_655 S
C3844 C3846 1.395 . S
C3844 C3847 1.403 . S
H3845 C3851 0.930 . S
C3846 H3832 0.930 . S
C3846 C3844 1.395 . S
C3846 C3849 1.403 . S
C3847 C3844 1.403 . S
C3847 C3848 1.524 . S
C3847 C3851 1.400 . S
C3848 H3833 0.960 . S
C3848 H3834 0.962 . S
C3848 H3835 0.960 1_655 S
C3848 C3847 1.524 . S
C3849 C3846 1.403 . S
C3849 C3850 1.392 . S
C3849 C3853 1.495 . S
C3850 C3849 1.392 . S
C3850 C3851 1.385 . S
C3850 C3852 1.478 . S
C3851 H3845 0.930 . S
C3851 C3847 1.400 . S
C3851 C3850 1.385 . S
C3852 C3850 1.478 . S
C3852 C3854 1.381 . S
C3852 C3858 1.383 . S
C3853 C3849 1.495 . S
C3853 H3859 0.959 . S
C3853 H3860 0.961 . S
C3853 H3861 0.960 . S
C3854 C3852 1.381 . S
C3854 C3855 1.394 . S
C3854 H3862 0.930 . S
C3855 C3854 1.394 . S
C3855 C3856 1.383 . S
C3855 H3863 0.929 . S
C3856 C3855 1.383 . S
C3856 C3857 1.377 . S
C3857 H3841 0.930 . S
C3857 C3856 1.377 . S
C3857 C3858 1.379 . S
C3858 H3842 0.931 . S
C3858 C3852 1.383 . S
C3858 C3857 1.379 . S
H3859 C3853 0.959 . S
H3860 C3853 0.961 . S
H3861 C3853 0.960 . S
H3862 C3854 0.930 . S
H3863 C3855 0.929 . S
H3864 C3872 0.929 . S
H3865 C3874 0.930 . S
H3866 C3876 0.930 . S
H3867 C3879 0.929 . S
H3868 C3882 0.930 . S
H3869 C3884 0.960 . S
H3870 C3884 0.960 . S
H3871 C3884 0.960 . S
C3872 H3864 0.929 . S
C3872 C3873 1.377 . S
C3872 C3874 1.384 . S
C3873 C3872 1.377 . S
C3873 C3879 1.390 . S
C3874 H3865 0.930 . S
C3874 C3872 1.384 . S
C3874 C3875 1.372 . S
C3875 C3874 1.372 . S
C3875 C3876 1.400 . S
C3875 C3880 1.490 . S
C3876 H3866 0.930 . S
C3876 C3875 1.400 . S
C3876 C3879 1.386 . S
H3877 C3893 0.930 . S
H3878 C3894 0.931 . S
C3879 H3867 0.929 . S
C3879 C3873 1.390 . S
C3879 C3876 1.386 . S
C3880 C3875 1.490 . S
C3880 C3882 1.395 . S
C3880 C3883 1.403 . S
H3881 C3887 0.930 . S
C3882 H3868 0.930 . S
C3882 C3880 1.395 . S
C3882 C3885 1.403 . S
C3883 C3880 1.403 . S
C3883 C3884 1.524 . S
C3883 C3887 1.400 . S
C3884 H3869 0.960 . S
C3884 H3870 0.960 . S
C3884 H3871 0.960 . S
C3884 C3883 1.524 . S
C3885 C3882 1.403 . S
C3885 C3886 1.392 . S
C3885 C3889 1.495 . S
C3886 C3885 1.392 . S
C3886 C3887 1.385 . S
C3886 C3888 1.478 . S
C3887 H3881 0.930 . S
C3887 C3883 1.400 . S
C3887 C3886 1.385 . S
C3888 C3886 1.478 . S
C3888 C3890 1.381 . S
C3888 C3894 1.383 . S
C3889 C3885 1.495 . S
C3889 H3895 0.959 . S
C3889 H3896 0.961 . S
C3889 H3897 0.960 . S
C3890 C3888 1.381 . S
C3890 C3891 1.394 . S
C3890 H3898 0.930 . S
C3891 C3890 1.394 . S
C3891 C3892 1.383 . S
C3891 H3899 0.929 . S
C3892 C3891 1.383 . S
C3892 C3893 1.377 . S
C3893 H3877 0.930 . S
C3893 C3892 1.377 . S
C3893 C3894 1.379 . S
C3894 H3878 0.931 . S
C3894 C3888 1.383 . S
C3894 C3893 1.379 . S
H3895 C3889 0.959 . S
H3896 C3889 0.961 . S
H3897 C3889 0.960 . S
H3898 C3890 0.930 . S
H3899 C3891 0.929 . S
H3900 C3908 0.929 . S
H3901 C3910 0.930 . S
H3902 C3912 0.930 . S
H3903 C3915 0.929 . S
H3904 C3918 0.930 . S
H3905 C3920 0.960 . S
H3906 C3920 0.960 . S
H3907 C3920 0.960 . S
C3908 H3900 0.929 . S
C3908 C3909 1.377 . S
C3908 C3910 1.384 . S
C3909 C3908 1.377 . S
C3909 C3915 1.390 . S
C3910 H3901 0.930 . S
C3910 C3908 1.384 . S
C3910 C3911 1.372 . S
C3911 C3910 1.372 . S
C3911 C3912 1.400 . S
C3911 C3916 1.490 . S
C3912 H3902 0.930 . S
C3912 C3911 1.400 . S
C3912 C3915 1.386 . S
H3913 C3929 0.930 . S
H3914 C3930 0.931 . S
C3915 H3903 0.929 . S
C3915 C3909 1.390 . S
C3915 C3912 1.386 . S
C3916 C3911 1.490 . S
C3916 C3918 1.395 . S
C3916 C3919 1.403 . S
H3917 C3923 0.930 . S
C3918 H3904 0.930 . S
C3918 C3916 1.395 . S
C3918 C3921 1.403 . S
C3919 C3916 1.403 . S
C3919 C3920 1.524 . S
C3919 C3923 1.400 . S
C3920 H3905 0.960 . S
C3920 H3906 0.960 . S
C3920 H3907 0.960 . S
C3920 C3919 1.524 . S
C3921 C3918 1.403 . S
C3921 C3922 1.392 . S
C3921 C3925 1.495 . S
C3922 C3921 1.392 . S
C3922 C3923 1.385 . S
C3922 C3924 1.478 . S
C3923 H3917 0.930 . S
C3923 C3919 1.400 . S
C3923 C3922 1.385 . S
C3924 C3922 1.478 . S
C3924 C3926 1.381 . S
C3924 C3930 1.383 . S
C3925 C3921 1.495 . S
C3925 H3931 0.959 . S
C3925 H3932 0.961 . S
C3925 H3933 0.960 . S
C3926 C3924 1.381 . S
C3926 C3927 1.394 . S
C3926 H3934 0.930 . S
C3927 C3926 1.394 . S
C3927 C3928 1.383 . S
C3927 H3935 0.929 . S
C3928 C3927 1.383 . S
C3928 C3929 1.377 . S
C3929 H3913 0.930 . S
C3929 C3928 1.377 . S
C3929 C3930 1.379 . S
C3930 H3914 0.931 . S
C3930 C3924 1.383 . S
C3930 C3929 1.379 . S
H3931 C3925 0.959 . S
H3932 C3925 0.961 . S
H3933 C3925 0.960 . S
H3934 C3926 0.930 . S
H3935 C3927 0.929 . S
C1065 C238 1.268 . S
C1084 C7 1.243 . S
C1101 C40 1.263 . S
C1120 C139 1.234 . S
C1137 C73 1.260 . S
C1156 C172 1.284 . S
C1173 C205 1.255 . S
C1192 C106 1.290 . S
C1209 C271 1.265 . S
C1228 C502 1.284 . S
C1245 C403 1.268 . S
C1264 C304 1.246 . S
C1281 C337 1.260 . S
C1300 C436 1.291 . S
C1317 C469 1.255 . S
C1336 C370 1.255 . S
C1353 C766 1.268 . S
C1372 C535 1.239 . S
C1389 C667 1.261 . S
C1408 C568 1.282 . S
C1425 C700 1.268 . S
C1444 C601 1.237 . S
C1461 C733 1.260 . S
C1480 C634 1.246 . S
C1497 C1030 1.268 . S
C1516 C799 1.256 . S
C1533 C832 1.264 . S
C1552 C931 1.286 . S
C1569 C964 1.264 . S
C1588 C865 1.287 . S
C1605 C997 1.268 . S
C1624 C898 1.249 . S
C1641 C18 0.443 . S
C1660 C249 0.404 . S
C1677 C51 0.439 . S
C1696 C150 0.499 . S
C1713 C84 0.450 . S
C1732 C183 0.472 . S
C1749 C117 0.444 . S
C1768 C216 0.503 . S
C1785 C513 0.446 . S
C1804 C282 0.402 . S
C1821 C315 0.424 . S
C1840 C414 0.501 . S
C1857 C447 0.437 . S
C1876 C348 0.443 . S
C1893 C381 0.446 . S
C1912 C480 0.399 . S
C1929 C546 0.445 . S
C1948 C777 0.416 . S
C1965 C678 0.448 . S
C1984 C579 0.439 . S
C2001 C711 0.433 . S
C2020 C612 0.484 . S
C2037 C645 0.450 . S
C2056 C744 0.485 . S
C2073 C810 0.442 . S
C2092 C1041 0.423 . S
C2109 C843 0.434 . S
C2128 C942 0.454 . S
C2145 C876 0.426 . S
C2164 C975 0.489 . S
C2181 C909 0.430 . S
C2200 C1008 0.474 . S
C2217 N211 1.542 . S
C2236 N13 1.539 . S
C2253 N46 1.543 . S
C2272 N244 1.543 . S
C2289 N145 1.544 . S
C2308 N79 1.545 . S
C2325 N178 1.544 . S
C2344 N112 1.545 . S
C2361 N475 1.543 . S
C2380 N277 1.545 . S
C2397 N508 1.543 . S
C2416 N310 1.545 . S
C2433 N409 1.543 . S
C2452 N343 1.535 . S
C2469 N442 1.543 . S
C2488 N376 1.535 . S
C2505 N541 1.544 . S
C2524 N739 1.545 . S
C2541 N772 1.543 . S
C2560 N574 1.536 . S
C2577 N673 1.544 . S
C2596 N607 1.543 . S
C2613 N706 1.542 . S
C2632 N640 1.539 . S
C2649 N1003 1.542 . S
C2668 N805 1.544 . S
C2685 N838 1.542 . S
C2704 N1036 1.534 . S
C2721 N937 1.542 . S
C2740 N871 1.534 . S
C2757 N970 1.542 . S
C2776 N904 1.537 . S
C2793 C21 1.649 . S
C2812 N893 1.558 . S
C2829 N266 1.558 . S
C2848 C54 1.649 . S
C2865 N827 1.561 . S
C2884 C87 1.651 . S
C2901 C120 1.651 . S
C2920 N332 1.567 . S
C2937 C153 1.651 . S
C2956 N959 1.584 . S
C2973 C186 1.651 . S
C2992 N464 1.576 . S
C3009 C219 1.650 . S
C3028 N1025 1.533 . S
C3045 N398 1.568 . S
C3064 C252 1.642 . S
C3081 N629 1.569 . S
C3100 C285 1.649 . S
C3117 C318 1.651 . S
C3136 N2 1.566 . S
C3153 C351 1.650 . S
C3172 N563 1.569 . S
C3189 N68 1.558 . S
C3208 C384 1.641 . S
C3225 N695 1.561 . S
C3244 C417 1.642 . S
C3261 C450 1.650 . S
C3280 N200 1.563 . S
C3297 C483 1.651 . S
C3316 N761 1.568 . S
C3333 N134 1.559 . S
C3352 C516 1.644 . S
C3369 N365 1.561 . S
C3388 C549 1.652 . S
C3405 N794 1.568 . S
C3424 C582 1.642 . S
C3441 C615 1.650 . S
C3460 N299 1.531 . S
C3477 C648 1.649 . S
C3496 N860 1.546 . S
C3513 N431 1.569 . S
C3532 C681 1.649 . S
C3549 C714 1.651 . S
C3568 N992 1.567 . S
C3585 N497 1.558 . S
C3604 C747 1.647 . S
C3621 N926 1.558 . S
C3640 C780 1.646 . S
C3657 N101 1.566 . S
C3676 C813 1.646 . S
C3693 C846 1.650 . S
C3712 N530 1.568 . S
C3729 N35 1.569 . S
C3748 C879 1.652 . S
C3765 N596 1.568 . S
C3784 C912 1.651 . S
C3801 N167 1.559 . S
C3820 C945 1.641 . S
C3837 C978 1.651 . S
C3856 N728 1.588 . S
C3873 C1011 1.651 . S
C3892 N233 1.582 . S
C3909 C1044 1.650 . S
C3928 N662 1.577 . S
