# Generated by pormake.
# Topology wln, (5)-cn, num edge types: 1
# Building blocks:
#     Node 0, Type 0, BuildingBlock: BEQFEK_clean_sbu_0, # of connection points: 5
#     Node 1, Type 0, BuildingBlock: BEQFEK_clean_sbu_0, # of connection points: 5
#     Node 2, Type 0, BuildingBlock: BEQFEK_clean_sbu_0, # of connection points: 5
#     Node 3, Type 0, BuildingBlock: BEQFEK_clean_sbu_0, # of connection points: 5
#     Node 4, Type 0, BuildingBlock: BEQFEK_clean_sbu_0, # of connection points: 5
#     Node 5, Type 0, BuildingBlock: BEQFEK_clean_sbu_0, # of connection points: 5
#     Node 6, Type 0, BuildingBlock: BEQFEK_clean_sbu_0, # of connection points: 5
#     Node 7, Type 0, BuildingBlock: BEQFEK_clean_sbu_0, # of connection points: 5
#     Node 8, Type 0, BuildingBlock: BEQFEK_clean_sbu_0, # of connection points: 5
#     Node 9, Type 0, BuildingBlock: BEQFEK_clean_sbu_0, # of connection points: 5
#     Node 10, Type 0, BuildingBlock: BEQFEK_clean_sbu_0, # of connection points: 5
#     Node 11, Type 0, BuildingBlock: BEQFEK_clean_sbu_0, # of connection points: 5
#     Node 12, Type 0, BuildingBlock: BEQFEK_clean_sbu_0, # of connection points: 5
#     Node 13, Type 0, BuildingBlock: BEQFEK_clean_sbu_0, # of connection points: 5
#     Node 14, Type 0, BuildingBlock: BEQFEK_clean_sbu_0, # of connection points: 5
#     Node 15, Type 0, BuildingBlock: BEQFEK_clean_sbu_0, # of connection points: 5
#     Node 16, Type 0, BuildingBlock: BEQFEK_clean_sbu_0, # of connection points: 5
#     Node 17, Type 0, BuildingBlock: BEQFEK_clean_sbu_0, # of connection points: 5
#     Node 18, Type 0, BuildingBlock: BEQFEK_clean_sbu_0, # of connection points: 5
#     Node 19, Type 0, BuildingBlock: BEQFEK_clean_sbu_0, # of connection points: 5
#     Node 20, Type 0, BuildingBlock: BEQFEK_clean_sbu_0, # of connection points: 5
#     Node 21, Type 0, BuildingBlock: BEQFEK_clean_sbu_0, # of connection points: 5
#     Node 22, Type 0, BuildingBlock: BEQFEK_clean_sbu_0, # of connection points: 5
#     Node 23, Type 0, BuildingBlock: BEQFEK_clean_sbu_0, # of connection points: 5
#     Node 24, Type 0, BuildingBlock: BEQFEK_clean_sbu_0, # of connection points: 5
#     Node 25, Type 0, BuildingBlock: BEQFEK_clean_sbu_0, # of connection points: 5
#     Node 26, Type 0, BuildingBlock: BEQFEK_clean_sbu_0, # of connection points: 5
#     Node 27, Type 0, BuildingBlock: BEQFEK_clean_sbu_0, # of connection points: 5
#     Node 28, Type 0, BuildingBlock: BEQFEK_clean_sbu_0, # of connection points: 5
#     Node 29, Type 0, BuildingBlock: BEQFEK_clean_sbu_0, # of connection points: 5
#     Node 30, Type 0, BuildingBlock: BEQFEK_clean_sbu_0, # of connection points: 5
#     Node 31, Type 0, BuildingBlock: BEQFEK_clean_sbu_0, # of connection points: 5
#     Node 32, Type 0, BuildingBlock: BEQFEK_clean_sbu_0, # of connection points: 5
#     Node 33, Type 0, BuildingBlock: BEQFEK_clean_sbu_0, # of connection points: 5
#     Node 34, Type 0, BuildingBlock: BEQFEK_clean_sbu_0, # of connection points: 5
#     Node 35, Type 0, BuildingBlock: BEQFEK_clean_sbu_0, # of connection points: 5
#     Edge 36, Type (0, 0), BuildingBlock: CIFDUS_clean_linker_0, # of connection points: 2
#     Edge 37, Type (0, 0), BuildingBlock: CIFDUS_clean_linker_0, # of connection points: 2
#     Edge 38, Type (0, 0), BuildingBlock: CIFDUS_clean_linker_0, # of connection points: 2
#     Edge 39, Type (0, 0), BuildingBlock: CIFDUS_clean_linker_0, # of connection points: 2
#     Edge 40, Type (0, 0), BuildingBlock: CIFDUS_clean_linker_0, # of connection points: 2
#     Edge 41, Type (0, 0), BuildingBlock: CIFDUS_clean_linker_0, # of connection points: 2
#     Edge 42, Type (0, 0), BuildingBlock: CIFDUS_clean_linker_0, # of connection points: 2
#     Edge 43, Type (0, 0), BuildingBlock: CIFDUS_clean_linker_0, # of connection points: 2
#     Edge 44, Type (0, 0), BuildingBlock: CIFDUS_clean_linker_0, # of connection points: 2
#     Edge 45, Type (0, 0), BuildingBlock: CIFDUS_clean_linker_0, # of connection points: 2
#     Edge 46, Type (0, 0), BuildingBlock: CIFDUS_clean_linker_0, # of connection points: 2
#     Edge 47, Type (0, 0), BuildingBlock: CIFDUS_clean_linker_0, # of connection points: 2
#     Edge 48, Type (0, 0), BuildingBlock: CIFDUS_clean_linker_0, # of connection points: 2
#     Edge 49, Type (0, 0), BuildingBlock: CIFDUS_clean_linker_0, # of connection points: 2
#     Edge 50, Type (0, 0), BuildingBlock: CIFDUS_clean_linker_0, # of connection points: 2
#     Edge 51, Type (0, 0), BuildingBlock: CIFDUS_clean_linker_0, # of connection points: 2
#     Edge 52, Type (0, 0), BuildingBlock: CIFDUS_clean_linker_0, # of connection points: 2
#     Edge 53, Type (0, 0), BuildingBlock: CIFDUS_clean_linker_0, # of connection points: 2
#     Edge 54, Type (0, 0), BuildingBlock: CIFDUS_clean_linker_0, # of connection points: 2
#     Edge 55, Type (0, 0), BuildingBlock: CIFDUS_clean_linker_0, # of connection points: 2
#     Edge 56, Type (0, 0), BuildingBlock: CIFDUS_clean_linker_0, # of connection points: 2
#     Edge 57, Type (0, 0), BuildingBlock: CIFDUS_clean_linker_0, # of connection points: 2
#     Edge 58, Type (0, 0), BuildingBlock: CIFDUS_clean_linker_0, # of connection points: 2
#     Edge 59, Type (0, 0), BuildingBlock: CIFDUS_clean_linker_0, # of connection points: 2
#     Edge 60, Type (0, 0), BuildingBlock: CIFDUS_clean_linker_0, # of connection points: 2
#     Edge 61, Type (0, 0), BuildingBlock: CIFDUS_clean_linker_0, # of connection points: 2
#     Edge 62, Type (0, 0), BuildingBlock: CIFDUS_clean_linker_0, # of connection points: 2
#     Edge 63, Type (0, 0), BuildingBlock: CIFDUS_clean_linker_0, # of connection points: 2
#     Edge 64, Type (0, 0), BuildingBlock: CIFDUS_clean_linker_0, # of connection points: 2
#     Edge 65, Type (0, 0), BuildingBlock: CIFDUS_clean_linker_0, # of connection points: 2
#     Edge 66, Type (0, 0), BuildingBlock: CIFDUS_clean_linker_0, # of connection points: 2
#     Edge 67, Type (0, 0), BuildingBlock: CIFDUS_clean_linker_0, # of connection points: 2
#     Edge 68, Type (0, 0), BuildingBlock: CIFDUS_clean_linker_0, # of connection points: 2
#     Edge 69, Type (0, 0), BuildingBlock: CIFDUS_clean_linker_0, # of connection points: 2
#     Edge 70, Type (0, 0), BuildingBlock: CIFDUS_clean_linker_0, # of connection points: 2
#     Edge 71, Type (0, 0), BuildingBlock: CIFDUS_clean_linker_0, # of connection points: 2
#     Edge 72, Type (0, 0), BuildingBlock: CIFDUS_clean_linker_0, # of connection points: 2
#     Edge 73, Type (0, 0), BuildingBlock: CIFDUS_clean_linker_0, # of connection points: 2
#     Edge 74, Type (0, 0), BuildingBlock: CIFDUS_clean_linker_0, # of connection points: 2
#     Edge 75, Type (0, 0), BuildingBlock: CIFDUS_clean_linker_0, # of connection points: 2
#     Edge 76, Type (0, 0), BuildingBlock: CIFDUS_clean_linker_0, # of connection points: 2
#     Edge 77, Type (0, 0), BuildingBlock: CIFDUS_clean_linker_0, # of connection points: 2
#     Edge 78, Type (0, 0), BuildingBlock: CIFDUS_clean_linker_0, # of connection points: 2
#     Edge 79, Type (0, 0), BuildingBlock: CIFDUS_clean_linker_0, # of connection points: 2
#     Edge 80, Type (0, 0), BuildingBlock: CIFDUS_clean_linker_0, # of connection points: 2
#     Edge 81, Type (0, 0), BuildingBlock: CIFDUS_clean_linker_0, # of connection points: 2
#     Edge 82, Type (0, 0), BuildingBlock: CIFDUS_clean_linker_0, # of connection points: 2
#     Edge 83, Type (0, 0), BuildingBlock: CIFDUS_clean_linker_0, # of connection points: 2
#     Edge 84, Type (0, 0), BuildingBlock: CIFDUS_clean_linker_0, # of connection points: 2
#     Edge 85, Type (0, 0), BuildingBlock: CIFDUS_clean_linker_0, # of connection points: 2
#     Edge 86, Type (0, 0), BuildingBlock: CIFDUS_clean_linker_0, # of connection points: 2
#     Edge 87, Type (0, 0), BuildingBlock: CIFDUS_clean_linker_0, # of connection points: 2
#     Edge 88, Type (0, 0), BuildingBlock: CIFDUS_clean_linker_0, # of connection points: 2
#     Edge 89, Type (0, 0), BuildingBlock: CIFDUS_clean_linker_0, # of connection points: 2
#     Edge 90, Type (0, 0), BuildingBlock: CIFDUS_clean_linker_0, # of connection points: 2
#     Edge 91, Type (0, 0), BuildingBlock: CIFDUS_clean_linker_0, # of connection points: 2
#     Edge 92, Type (0, 0), BuildingBlock: CIFDUS_clean_linker_0, # of connection points: 2
#     Edge 93, Type (0, 0), BuildingBlock: CIFDUS_clean_linker_0, # of connection points: 2
#     Edge 94, Type (0, 0), BuildingBlock: CIFDUS_clean_linker_0, # of connection points: 2
#     Edge 95, Type (0, 0), BuildingBlock: CIFDUS_clean_linker_0, # of connection points: 2
#     Edge 96, Type (0, 0), BuildingBlock: CIFDUS_clean_linker_0, # of connection points: 2
#     Edge 97, Type (0, 0), BuildingBlock: CIFDUS_clean_linker_0, # of connection points: 2
#     Edge 98, Type (0, 0), BuildingBlock: CIFDUS_clean_linker_0, # of connection points: 2
#     Edge 99, Type (0, 0), BuildingBlock: CIFDUS_clean_linker_0, # of connection points: 2
#     Edge 100, Type (0, 0), BuildingBlock: CIFDUS_clean_linker_0, # of connection points: 2
#     Edge 101, Type (0, 0), BuildingBlock: CIFDUS_clean_linker_0, # of connection points: 2
#     Edge 102, Type (0, 0), BuildingBlock: CIFDUS_clean_linker_0, # of connection points: 2
#     Edge 103, Type (0, 0), BuildingBlock: CIFDUS_clean_linker_0, # of connection points: 2
#     Edge 104, Type (0, 0), BuildingBlock: CIFDUS_clean_linker_0, # of connection points: 2
#     Edge 105, Type (0, 0), BuildingBlock: CIFDUS_clean_linker_0, # of connection points: 2
#     Edge 106, Type (0, 0), BuildingBlock: CIFDUS_clean_linker_0, # of connection points: 2
#     Edge 107, Type (0, 0), BuildingBlock: CIFDUS_clean_linker_0, # of connection points: 2
#     Edge 108, Type (0, 0), BuildingBlock: CIFDUS_clean_linker_0, # of connection points: 2
#     Edge 109, Type (0, 0), BuildingBlock: CIFDUS_clean_linker_0, # of connection points: 2
#     Edge 110, Type (0, 0), BuildingBlock: CIFDUS_clean_linker_0, # of connection points: 2
#     Edge 111, Type (0, 0), BuildingBlock: CIFDUS_clean_linker_0, # of connection points: 2
#     Edge 112, Type (0, 0), BuildingBlock: CIFDUS_clean_linker_0, # of connection points: 2
#     Edge 113, Type (0, 0), BuildingBlock: CIFDUS_clean_linker_0, # of connection points: 2
#     Edge 114, Type (0, 0), BuildingBlock: CIFDUS_clean_linker_0, # of connection points: 2
#     Edge 115, Type (0, 0), BuildingBlock: CIFDUS_clean_linker_0, # of connection points: 2
#     Edge 116, Type (0, 0), BuildingBlock: CIFDUS_clean_linker_0, # of connection points: 2
#     Edge 117, Type (0, 0), BuildingBlock: CIFDUS_clean_linker_0, # of connection points: 2
#     Edge 118, Type (0, 0), BuildingBlock: CIFDUS_clean_linker_0, # of connection points: 2
#     Edge 119, Type (0, 0), BuildingBlock: CIFDUS_clean_linker_0, # of connection points: 2
#     Edge 120, Type (0, 0), BuildingBlock: CIFDUS_clean_linker_0, # of connection points: 2
#     Edge 121, Type (0, 0), BuildingBlock: CIFDUS_clean_linker_0, # of connection points: 2
#     Edge 122, Type (0, 0), BuildingBlock: CIFDUS_clean_linker_0, # of connection points: 2
#     Edge 123, Type (0, 0), BuildingBlock: CIFDUS_clean_linker_0, # of connection points: 2
#     Edge 124, Type (0, 0), BuildingBlock: CIFDUS_clean_linker_0, # of connection points: 2
#     Edge 125, Type (0, 0), BuildingBlock: CIFDUS_clean_linker_0, # of connection points: 2
# Relax obj value: 0.219
# Max RMSD: 0.187
# Mean RMSD: 0.187
data_MOF--net-wln--node1-BEQFEK_clean_sbu_0--edge1-CIFDUS_clean_linker_0
_symmetry_space_group_name_H-M    P1
_symmetry_Int_Tables_number       1
_symmetry_cell_setting            triclinic
loop_
_symmetry_equiv_pos_as_xyz
'x, y, z'
_cell_length_a     109.31707
_cell_length_b     109.32031
_cell_length_c     16.770934
_cell_angle_alpha  90.01968
_cell_angle_beta   90.032322
_cell_angle_gamma 120.00588
loop_
_atom_site_label
_atom_site_type_symbol
_atom_site_fract_x
_atom_site_fract_y
_atom_site_fract_z
_atom_type_partial_charge
Co0 Co 0.14345 0.39943 0.96964 0.0
Co1 Co 0.13553 0.38506 0.13667 0.0
C2 C 0.16557 0.39974 0.07303 0.0
O3 O 0.16225 0.40372 0.00936 0.0
O4 O 0.15626 0.39249 0.1252 0.0
C5 C 0.15526 0.40966 0.81687 0.0
O6 O 0.16647 0.41013 0.84874 0.0
C7 C 0.13784 0.38799 0.30798 0.0
C8 C 0.11931 0.36838 0.35108 0.0
C9 C 0.13058 0.38114 0.37667 0.0
N10 N 0.13112 0.37974 0.24512 0.0
N11 N 0.12016 0.36793 0.27112 0.0
C12 C 0.14996 0.40278 0.30026 0.0
H13 H 0.15999 0.40278 0.31063 0.0
H14 H 0.1503 0.40691 0.2394 0.0
H15 H 0.14912 0.40982 0.34486 0.0
C16 C 0.12926 0.41446 0.03531 0.0
N17 N 0.13421 0.40541 0.04199 0.0
N18 N 0.13029 0.39889 0.11113 0.0
C19 C 0.1224 0.40335 0.14979 0.0
C20 C 0.12162 0.41345 0.10353 0.0
C21 C 0.13079 0.42289 0.96205 0.0
H22 H 0.14191 0.42813 0.94116 0.0
H23 H 0.12759 0.43091 0.97323 0.0
H24 H 0.12406 0.41565 0.91408 0.0
O25 O 0.13175 0.37881 0.9506 0.0
O26 O 0.12521 0.36809 0.06771 0.0
H27 H 0.10697 0.40048 0.24013 0.0
H28 H 0.12311 0.40211 0.27661 0.0
C29 C 0.1152 0.39762 0.22805 0.0
H30 H 0.11031 0.38597 0.22871 0.0
H31 H 0.11299 0.35982 0.23415 0.0
O32 O 0.14483 0.40709 0.86129 0.0
C33 C 0.12509 0.36759 0.99178 0.0
Co34 Co 0.604 0.74433 0.96932 0.0
Co35 Co 0.61851 0.75119 0.13378 0.0
C36 C 0.6058 0.76797 0.06479 0.0
O37 O 0.60081 0.75992 0.00438 0.0
O38 O 0.61298 0.76582 0.11701 0.0
C39 C 0.59907 0.7479 0.81597 0.0
O40 O 0.60503 0.76079 0.8449 0.0
C41 C 0.61894 0.75609 0.30223 0.0
C42 C 0.63471 0.75081 0.34791 0.0
C43 C 0.62517 0.75495 0.37102 0.0
N44 N 0.62455 0.75285 0.24045 0.0
N45 N 0.63413 0.74989 0.26769 0.0
C46 C 0.60652 0.75831 0.29616 0.0
H47 H 0.59986 0.7525 0.24416 0.0
H48 H 0.60001 0.75474 0.35115 0.0
H49 H 0.61039 0.76974 0.28827 0.0
C50 C 0.58725 0.71571 0.04206 0.0
N51 N 0.59724 0.72949 0.04482 0.0
N52 N 0.60324 0.73244 0.11552 0.0
C53 C 0.59715 0.72063 0.16055 0.0
C54 C 0.58684 0.70957 0.11548 0.0
C55 C 0.57898 0.70851 0.96867 0.0
H56 H 0.58613 0.71188 0.91632 0.0
H57 H 0.57099 0.71176 0.95821 0.0
H58 H 0.5736 0.69684 0.97405 0.0
O59 O 0.62444 0.752 0.94706 0.0
O60 O 0.63489 0.75569 0.06456 0.0
H61 H 0.61177 0.72233 0.25078 0.0
H62 H 0.59355 0.70974 0.27414 0.0
C63 C 0.60072 0.7201 0.24626 0.0
H64 H 0.59979 0.72828 0.28016 0.0
H65 H 0.63987 0.74674 0.23186 0.0
O66 O 0.59556 0.73771 0.86397 0.0
C67 C 0.63549 0.75586 0.98878 0.0
Co68 Co 0.26593 0.85975 0.90352 0.0
Co69 Co 0.25638 0.8641 0.07253 0.0
C70 C 0.24183 0.8358 0.98978 0.0
O71 O 0.25027 0.8405 0.93064 0.0
O72 O 0.243 0.8438 0.04819 0.0
C73 C 0.26826 0.84935 0.74936 0.0
O74 O 0.26026 0.83665 0.7788 0.0
C75 C 0.25138 0.8603 0.24677 0.0
C76 C 0.2584 0.88225 0.28321 0.0
C77 C 0.25434 0.86895 0.3134 0.0
N78 N 0.25425 0.86832 0.18085 0.0
N79 N 0.25804 0.88133 0.20321 0.0
C80 C 0.24599 0.84473 0.24498 0.0
H81 H 0.23814 0.83979 0.19651 0.0
H82 H 0.25485 0.84279 0.23268 0.0
H83 H 0.2409 0.83968 0.30224 0.0
C84 C 0.29385 0.87204 0.98641 0.0
N85 N 0.27986 0.86741 0.98492 0.0
N86 N 0.27572 0.8687 0.0566 0.0
C87 C 0.28691 0.87377 0.10652 0.0
C88 C 0.29886 0.8763 0.06373 0.0
C89 C 0.30228 0.87293 0.91418 0.0
H90 H 0.29799 0.87552 0.86097 0.0
H91 H 0.30146 0.86251 0.90405 0.0
H92 H 0.31357 0.88104 0.92185 0.0
O93 O 0.25788 0.87198 0.88618 0.0
O94 O 0.2513 0.87597 0.00331 0.0
H95 H 0.28425 0.88377 0.2095 0.0
H96 H 0.29556 0.87637 0.22621 0.0
C97 C 0.28596 0.87484 0.19506 0.0
H98 H 0.27701 0.86493 0.21781 0.0
H99 H 0.26119 0.88977 0.16384 0.0
O100 O 0.2733 0.85998 0.79557 0.0
C101 C 0.25253 0.87777 0.92802 0.0
Co102 Co 0.40241 0.14192 0.0559 0.0
Co103 Co 0.38765 0.13525 0.88908 0.0
C104 C 0.40264 0.16482 0.95955 0.0
O105 O 0.40662 0.16097 0.02131 0.0
O106 O 0.39532 0.15593 0.90558 0.0
C107 C 0.41387 0.15337 0.2085 0.0
O108 O 0.41599 0.16522 0.17632 0.0
C109 C 0.39045 0.13812 0.7172 0.0
C110 C 0.37035 0.12027 0.67377 0.0
C111 C 0.38336 0.13112 0.64817 0.0
N112 N 0.3821 0.13158 0.78007 0.0
N113 N 0.36999 0.12108 0.75379 0.0
C114 C 0.40548 0.14975 0.72521 0.0
H115 H 0.40939 0.15011 0.78671 0.0
H116 H 0.41234 0.14828 0.68208 0.0
H117 H 0.4061 0.16001 0.71275 0.0
C118 C 0.41717 0.12806 0.98103 0.0
N119 N 0.40815 0.13309 0.97875 0.0
N120 N 0.40139 0.12965 0.91008 0.0
C121 C 0.40561 0.12193 0.8676 0.0
C122 C 0.41587 0.12083 0.91048 0.0
C123 C 0.42589 0.12912 0.05215 0.0
H124 H 0.41891 0.12165 0.0985 0.0
H125 H 0.4308 0.13994 0.07745 0.0
H126 H 0.43419 0.1265 0.03654 0.0
O127 O 0.38183 0.13019 0.07532 0.0
O128 O 0.3708 0.12457 0.9588 0.0
H129 H 0.38788 0.1108 0.78903 0.0
H130 H 0.40155 0.10633 0.77576 0.0
C131 C 0.39944 0.11504 0.78911 0.0
H132 H 0.40431 0.12296 0.74092 0.0
H133 H 0.36175 0.11409 0.79061 0.0
O134 O 0.41005 0.14262 0.16412 0.0
C135 C 0.3705 0.1239 0.03473 0.0
Co136 Co 0.86292 0.26251 0.06347 0.0
Co137 Co 0.86903 0.25416 0.89878 0.0
C138 C 0.83986 0.23905 0.97269 0.0
O139 O 0.84377 0.24744 0.03185 0.0
O140 O 0.84864 0.24036 0.91887 0.0
C141 C 0.85356 0.26111 0.21734 0.0
O142 O 0.84399 0.24866 0.1906 0.0
C143 C 0.8634 0.2496 0.73158 0.0
C144 C 0.88344 0.25272 0.68115 0.0
C145 C 0.87006 0.25012 0.66092 0.0
N146 N 0.87237 0.25178 0.79141 0.0
N147 N 0.88427 0.2534 0.76137 0.0
C148 C 0.84953 0.24909 0.74174 0.0
H149 H 0.8498 0.25521 0.79516 0.0
H150 H 0.84691 0.25337 0.68852 0.0
H151 H 0.84109 0.23794 0.74993 0.0
C152 C 0.87505 0.29064 0.986 0.0
N153 N 0.87098 0.2768 0.9854 0.0
N154 N 0.8737 0.27336 0.91518 0.0
C155 C 0.87972 0.28502 0.86873 0.0
C156 C 0.88076 0.29636 0.91199 0.0
C157 C 0.87407 0.29825 0.05772 0.0
H158 H 0.87923 0.29626 0.10912 0.0
H159 H 0.86279 0.29397 0.07327 0.0
H160 H 0.87916 0.3098 0.04752 0.0
O161 O 0.87508 0.25408 0.08445 0.0
O162 O 0.88067 0.24912 0.96671 0.0
H163 H 0.89141 0.28114 0.77985 0.0
H164 H 0.88887 0.29588 0.75708 0.0
C165 C 0.88393 0.28518 0.78362 0.0
H166 H 0.87444 0.27817 0.74799 0.0
H167 H 0.89315 0.25559 0.79529 0.0
O168 O 0.86219 0.27011 0.16817 0.0
C169 C 0.88156 0.24941 0.04242 0.0
Co170 Co 0.7404 0.5971 0.10669 0.0
Co171 Co 0.74999 0.61152 0.94217 0.0
C172 C 0.76422 0.597 0.01938 0.0
O173 O 0.7557 0.59296 0.07815 0.0
O174 O 0.76323 0.60433 0.96333 0.0
C175 C 0.7401 0.58806 0.26121 0.0
O176 O 0.75175 0.58843 0.23806 0.0
C177 C 0.75863 0.61575 0.77617 0.0
C178 C 0.74422 0.62241 0.7264 0.0
C179 C 0.75324 0.61747 0.70447 0.0
N180 N 0.75221 0.61841 0.8363 0.0
N181 N 0.74414 0.62306 0.80633 0.0
C182 C 0.77038 0.61272 0.78905 0.0
H183 H 0.77649 0.61847 0.84267 0.0
H184 H 0.76595 0.60122 0.79869 0.0
H185 H 0.77775 0.61634 0.73764 0.0
C186 C 0.71252 0.58215 0.02555 0.0
N187 N 0.72651 0.59144 0.02645 0.0
N188 N 0.73071 0.59654 0.95444 0.0
C189 C 0.71959 0.58991 0.90415 0.0
C190 C 0.70759 0.5808 0.94761 0.0
C191 C 0.70403 0.57541 0.09905 0.0
H192 H 0.70827 0.5829 0.1498 0.0
H193 H 0.70484 0.56596 0.11414 0.0
H194 H 0.69276 0.57221 0.0904 0.0
O195 O 0.74884 0.61734 0.13054 0.0
O196 O 0.75487 0.62801 0.01359 0.0
H197 H 0.71899 0.59933 0.79367 0.0
H198 H 0.71255 0.5807 0.78748 0.0
C199 C 0.7207 0.59072 0.81516 0.0
H200 H 0.73123 0.59272 0.79605 0.0
H201 H 0.73754 0.62537 0.84029 0.0
O202 O 0.73202 0.58866 0.20909 0.0
C203 C 0.75403 0.62853 0.0891 0.0
Co204 Co 0.86059 0.59913 0.07512 0.0
Co205 Co 0.86864 0.61572 0.91553 0.0
C206 C 0.83852 0.60034 0.98138 0.0
O207 O 0.84144 0.59492 0.04033 0.0
O208 O 0.84811 0.60847 0.93284 0.0
C209 C 0.85274 0.59355 0.23021 0.0
O210 O 0.84454 0.5982 0.20292 0.0
C211 C 0.86352 0.61398 0.74721 0.0
C212 C 0.88248 0.63235 0.69706 0.0
C213 C 0.86981 0.6205 0.67653 0.0
N214 N 0.872 0.62156 0.80747 0.0
N215 N 0.88327 0.63265 0.77744 0.0
C216 C 0.85052 0.59982 0.75684 0.0
H217 H 0.85099 0.59475 0.81314 0.0
H218 H 0.84926 0.59283 0.70573 0.0
H219 H 0.84115 0.60121 0.75852 0.0
C220 C 0.87492 0.58505 0.99684 0.0
N221 N 0.86986 0.59407 0.99724 0.0
N222 N 0.87362 0.60145 0.93082 0.0
C223 C 0.88134 0.59748 0.88648 0.0
C224 C 0.88238 0.58693 0.92645 0.0
C225 C 0.87376 0.57589 0.06583 0.0
H226 H 0.88106 0.58259 0.1137 0.0
H227 H 0.86287 0.5707 0.09012 0.0
H228 H 0.87655 0.56779 0.04824 0.0
O229 O 0.87209 0.61958 0.10004 0.0
O230 O 0.87947 0.63201 0.98858 0.0
H231 H 0.89415 0.61569 0.8148 0.0
H232 H 0.89519 0.60026 0.78675 0.0
C233 C 0.88808 0.60404 0.80844 0.0
H234 H 0.87973 0.60126 0.76307 0.0
H235 H 0.8917 0.64012 0.81151 0.0
O236 O 0.85989 0.5909 0.18059 0.0
C237 C 0.87908 0.63138 0.0645 0.0
Co238 Co 0.39905 0.25781 -0.00061 0.0
Co239 Co 0.38427 0.25055 0.83354 0.0
C240 C 0.39843 0.23496 0.90359 0.0
O241 O 0.40301 0.24281 0.96509 0.0
O242 O 0.39109 0.23688 0.85141 0.0
C243 C 0.41568 0.26933 0.16041 0.0
O244 O 0.42896 0.27573 0.13787 0.0
C245 C 0.38743 0.25075 0.66089 0.0
C246 C 0.367 0.24766 0.61733 0.0
C247 C 0.38013 0.25015 0.59193 0.0
N248 N 0.37914 0.24906 0.72395 0.0
N249 N 0.36689 0.24708 0.69755 0.0
C250 C 0.40194 0.25259 0.66727 0.0
H251 H 0.40991 0.26401 0.66778 0.0
H252 H 0.40412 0.2476 0.61575 0.0
H253 H 0.40312 0.24797 0.72337 0.0
C254 C 0.41454 0.28681 0.92642 0.0
N255 N 0.40527 0.27278 0.92397 0.0
N256 N 0.39838 0.2697 0.85571 0.0
C257 C 0.40273 0.28173 0.8139 0.0
C258 C 0.41327 0.2929 0.8565 0.0
C259 C 0.42362 0.29432 0.99668 0.0
H260 H 0.41698 0.29149 0.05107 0.0
H261 H 0.43142 0.29077 0.00513 0.0
H262 H 0.4293 0.30595 0.98842 0.0
O263 O 0.37844 0.24928 0.01716 0.0
O264 O 0.3673 0.24475 0.90132 0.0
H265 H 0.38475 0.2754 0.73765 0.0
H266 H 0.39839 0.29357 0.72557 0.0
C267 C 0.39632 0.28271 0.73689 0.0
H268 H 0.401 0.27983 0.68693 0.0
H269 H 0.35856 0.24561 0.73431 0.0
O270 O 0.40584 0.26343 0.10937 0.0
C271 C 0.36709 0.24476 0.97728 0.0
Co272 Co 0.74706 0.14299 0.03566 0.0
Co273 Co 0.75288 0.1343 0.8689 0.0
C274 C 0.76948 0.16435 0.93171 0.0
O275 O 0.76218 0.16146 0.99522 0.0
O276 O 0.76697 0.15482 0.88015 0.0
C277 C 0.74995 0.15504 0.18852 0.0
O278 O 0.76124 0.16557 0.15607 0.0
C279 C 0.75327 0.13693 0.69713 0.0
C280 C 0.75205 0.1172 0.65513 0.0
C281 C 0.75212 0.12927 0.62873 0.0
N282 N 0.75367 0.12964 0.76055 0.0
N283 N 0.75319 0.11797 0.73518 0.0
C284 C 0.75225 0.15006 0.70395 0.0
H285 H 0.74848 0.15083 0.76412 0.0
H286 H 0.74498 0.15018 0.65821 0.0
H287 H 0.76288 0.15942 0.69486 0.0
C288 C 0.718 0.13055 0.96825 0.0
N289 N 0.73173 0.13423 0.96316 0.0
N290 N 0.73404 0.13015 0.89372 0.0
C291 C 0.72175 0.12348 0.8529 0.0
C292 C 0.71117 0.12358 0.8985 0.0
C293 C 0.71155 0.13311 0.04037 0.0
H294 H 0.714 0.12871 0.09362 0.0
H295 H 0.71636 0.14467 0.04978 0.0
H296 H 0.69992 0.12824 0.03445 0.0
O297 O 0.7551 0.13057 0.05538 0.0
O298 O 0.75872 0.12338 0.93888 0.0
H299 H 0.72583 0.11147 0.76676 0.0
H300 H 0.70913 0.1107 0.75264 0.0
C301 C 0.72027 0.11758 0.77054 0.0
H302 H 0.72505 0.12638 0.72731 0.0
H303 H 0.75304 0.11028 0.77261 0.0
O304 O 0.74125 0.14497 0.14434 0.0
C305 C 0.75913 0.1234 0.01483 0.0
Co306 Co 0.60245 0.86195 0.91585 0.0
Co307 Co 0.6155 0.86761 0.08627 0.0
C308 C 0.60227 0.8387 0.01099 0.0
O309 O 0.59867 0.84284 0.94874 0.0
O310 O 0.60886 0.84721 0.06801 0.0
C311 C 0.58996 0.8509 0.76194 0.0
O312 O 0.58598 0.83828 0.79062 0.0
C313 C 0.617 0.86497 0.2603 0.0
C314 C 0.63012 0.88741 0.29452 0.0
C315 C 0.62194 0.87397 0.32581 0.0
N316 N 0.62154 0.87285 0.19373 0.0
N317 N 0.62968 0.8862 0.21465 0.0
C318 C 0.60824 0.8492 0.25996 0.0
H319 H 0.61236 0.84489 0.21438 0.0
H320 H 0.59718 0.84599 0.24413 0.0
H321 H 0.60854 0.84465 0.31851 0.0
C322 C 0.58643 0.87471 0.98739 0.0
N323 N 0.59581 0.87014 0.99148 0.0
N324 N 0.60069 0.87175 0.0647 0.0
C325 C 0.59406 0.87683 0.11047 0.0
C326 C 0.58496 0.87914 0.06295 0.0
C327 C 0.57971 0.87555 0.91138 0.0
H328 H 0.58729 0.87845 0.86141 0.0
H329 H 0.57043 0.86504 0.89825 0.0
H330 H 0.57622 0.88347 0.91554 0.0
O331 O 0.62283 0.87407 0.89862 0.0
O332 O 0.63258 0.87909 0.01833 0.0
H333 H 0.60532 0.8877 0.21571 0.0
H334 H 0.58636 0.87864 0.22653 0.0
C335 C 0.5953 0.87807 0.19938 0.0
H336 H 0.59529 0.86871 0.22433 0.0
H337 H 0.63429 0.89457 0.17431 0.0
O338 O 0.59522 0.8615 0.80824 0.0
C339 C 0.63368 0.88029 0.94277 0.0
Co340 Co 0.1463 0.74226 0.9022 0.0
Co341 Co 0.1364 0.74873 0.06301 0.0
C342 C 0.16698 0.76498 0.00589 0.0
O343 O 0.16472 0.75736 0.94415 0.0
O344 O 0.15695 0.76271 0.05312 0.0
C345 C 0.15384 0.74756 0.74978 0.0
O346 O 0.15888 0.75996 0.78434 0.0
C347 C 0.13883 0.7501 0.23502 0.0
C348 C 0.12161 0.75378 0.27331 0.0
C349 C 0.1326 0.75212 0.30161 0.0
N350 N 0.13173 0.75031 0.17019 0.0
N351 N 0.12141 0.75248 0.1933 0.0
C352 C 0.15199 0.74909 0.23202 0.0
H353 H 0.15322 0.7454 0.17254 0.0
H354 H 0.15176 0.74176 0.27834 0.0
H355 H 0.16125 0.75967 0.24407 0.0
C356 C 0.13312 0.71333 0.97435 0.0
N357 N 0.13693 0.72713 0.97581 0.0
N358 N 0.13235 0.72984 0.04242 0.0
C359 C 0.12527 0.71779 0.08481 0.0
C360 C 0.12556 0.70692 0.04342 0.0
C361 C 0.13618 0.70642 0.90638 0.0
H362 H 0.14769 0.71027 0.90474 0.0
H363 H 0.13032 0.69474 0.91208 0.0
H364 H 0.13332 0.7095 0.84938 0.0
O365 O 0.13406 0.75039 0.87791 0.0
O366 O 0.12566 0.75422 0.98914 0.0
H367 H 0.11136 0.70587 0.18307 0.0
H368 H 0.1273 0.72145 0.21035 0.0
C369 C 0.1188 0.71687 0.16498 0.0
H370 H 0.11319 0.72296 0.16475 0.0
H371 H 0.11439 0.75329 0.15446 0.0
O372 O 0.14876 0.73662 0.79378 0.0
C373 C 0.12647 0.75447 0.91333 0.0
Co374 Co 0.26371 0.40682 0.92174 0.0
Co375 Co 0.25583 0.39128 0.08679 0.0
C376 C 0.24091 0.40625 0.01976 0.0
O377 O 0.24885 0.41076 0.95868 0.0
O378 O 0.24249 0.39863 0.07161 0.0
C379 C 0.26232 0.41698 0.76825 0.0
O380 O 0.25182 0.41779 0.80074 0.0
C381 C 0.25507 0.39364 0.25905 0.0
C382 C 0.25442 0.37423 0.30189 0.0
C383 C 0.25555 0.38682 0.32796 0.0
N384 N 0.25399 0.38559 0.19583 0.0
N385 N 0.25331 0.37386 0.22182 0.0
C386 C 0.25737 0.4083 0.25156 0.0
H387 H 0.26104 0.41249 0.19066 0.0
H388 H 0.26523 0.41547 0.29592 0.0
H389 H 0.24723 0.40804 0.26247 0.0
C390 C 0.2922 0.42225 -0.00201 0.0
N391 N 0.27834 0.41246 -0.0016 0.0
N392 N 0.27518 0.40549 0.06634 0.0
C393 C 0.28709 0.41042 0.11043 0.0
C394 C 0.29825 0.4213 0.06905 0.0
C395 C 0.29948 0.43193 0.92941 0.0
H396 H 0.2968 0.42571 0.87341 0.0
H397 H 0.29555 0.43949 0.92365 0.0
H398 H 0.31112 0.43785 0.9374 0.0
O399 O 0.25502 0.38639 0.90138 0.0
O400 O 0.24982 0.37454 0.01502 0.0
H401 H 0.28097 0.39349 0.1941 0.0
H402 H 0.2985 0.40801 0.21017 0.0
C403 C 0.28767 0.40513 0.192 0.0
H404 H 0.28379 0.40991 0.23613 0.0
H405 H 0.25278 0.36594 0.18478 0.0
O406 O 0.27024 0.41446 0.81269 0.0
C407 C 0.25014 0.37479 0.93898 0.0
Co408 Co 0.81018 0.73955 0.23329 0.0
Co409 Co 0.80588 0.72525 0.39797 0.0
C410 C 0.83449 0.74025 0.32009 0.0
O411 O 0.82974 0.74403 0.26141 0.0
O412 O 0.82637 0.73286 0.37661 0.0
C413 C 0.81883 0.74889 0.07887 0.0
O414 O 0.83034 0.74897 0.10207 0.0
C415 C 0.81051 0.72122 0.56407 0.0
C416 C 0.78934 0.7141 0.61364 0.0
C417 C 0.80335 0.71934 0.63574 0.0
N418 N 0.80138 0.71834 0.50387 0.0
N419 N 0.78861 0.71343 0.53372 0.0
C420 C 0.82543 0.72465 0.55126 0.0
H421 H 0.826 0.71911 0.49725 0.0
H422 H 0.83228 0.7362 0.54242 0.0
H423 H 0.82929 0.72107 0.60235 0.0
C424 C 0.79702 0.75416 0.31531 0.0
N425 N 0.80186 0.74499 0.31393 0.0
N426 N 0.80119 0.73996 0.38591 0.0
C427 C 0.79669 0.74651 0.43662 0.0
C428 C 0.79357 0.7555 0.39351 0.0
C429 C 0.79509 0.76085 0.24211 0.0
H430 H 0.79184 0.75338 0.19129 0.0
H431 H 0.80528 0.77037 0.22679 0.0
H432 H 0.78695 0.76394 0.2513 0.0
O433 O 0.79867 0.71928 0.20967 0.0
O434 O 0.7945 0.70867 0.32665 0.0
H435 H 0.78703 0.7371 0.54781 0.0
H436 H 0.79904 0.75579 0.55325 0.0
C437 C 0.79724 0.7458 0.52557 0.0
H438 H 0.80592 0.74398 0.54391 0.0
H439 H 0.77966 0.71093 0.49969 0.0
O440 O 0.80999 0.7479 0.13093 0.0
C441 C 0.79298 0.70809 0.25122 0.0
Co442 Co 0.27229 0.0789 0.30462 0.0
Co443 Co 0.28638 0.08466 0.47185 0.0
C444 C 0.27351 0.10159 0.40552 0.0
O445 O 0.269 0.09418 0.34235 0.0
O446 O 0.28039 0.09902 0.45769 0.0
C447 C 0.25565 0.06917 0.14367 0.0
O448 O 0.24253 0.06415 0.16693 0.0
C449 C 0.2845 0.08609 0.64406 0.0
C450 C 0.30232 0.08366 0.68635 0.0
C451 C 0.29087 0.08474 0.71239 0.0
N452 N 0.29162 0.08541 0.58057 0.0
N453 N 0.30238 0.08416 0.60611 0.0
C454 C 0.27214 0.08843 0.63791 0.0
H455 H 0.2639 0.08019 0.59922 0.0
H456 H 0.26764 0.08855 0.69683 0.0
H457 H 0.27563 0.09877 0.60905 0.0
C458 C 0.25504 0.04975 0.37276 0.0
N459 N 0.26524 0.06346 0.37699 0.0
N460 N 0.27143 0.0659 0.44724 0.0
C461 C 0.26541 0.05377 0.48962 0.0
C462 C 0.2548 0.04314 0.44402 0.0
C463 C 0.24611 0.04305 0.30067 0.0
H464 H 0.25285 0.04648 0.2466 0.0
H465 H 0.23827 0.04662 0.2951 0.0
H466 H 0.24045 0.03135 0.30461 0.0
O467 O 0.29277 0.08676 0.28751 0.0
O468 O 0.30337 0.09016 0.4043 0.0
H469 H 0.28088 0.05705 0.57831 0.0
H470 H 0.26394 0.0415 0.59527 0.0
C471 C 0.2693 0.05254 0.57373 0.0
H472 H 0.26612 0.05854 0.6135 0.0
H473 H 0.30951 0.08324 0.56875 0.0
O474 O 0.26564 0.07405 0.19416 0.0
C475 C 0.30389 0.09062 0.32844 0.0
Co476 Co 0.9304 0.19775 0.29535 0.0
Co477 Co 0.92038 0.20169 0.46104 0.0
C478 C 0.90691 0.1733 0.37741 0.0
O479 O 0.91552 0.17811 0.31934 0.0
O480 O 0.90762 0.18134 0.43433 0.0
C481 C 0.93286 0.18858 0.14196 0.0
O482 O 0.92255 0.17642 0.1675 0.0
C483 C 0.91674 0.19486 0.62707 0.0
C484 C 0.91683 0.21321 0.68295 0.0
C485 C 0.91652 0.20065 0.69979 0.0
N486 N 0.91721 0.20359 0.5696 0.0
N487 N 0.91697 0.21442 0.60294 0.0
C488 C 0.91855 0.18234 0.61232 0.0
H489 H 0.9242 0.18359 0.55533 0.0
H490 H 0.92447 0.1809 0.66174 0.0
H491 H 0.90797 0.17272 0.60827 0.0
C492 C 0.95811 0.21065 0.37845 0.0
N493 N 0.94404 0.20545 0.37727 0.0
N494 N 0.93994 0.20761 0.44696 0.0
C495 C 0.9514 0.21454 0.49437 0.0
C496 C 0.96325 0.21658 0.45283 0.0
C497 C 0.96653 0.21099 0.30737 0.0
H498 H 0.96158 0.20033 0.27991 0.0
H499 H 0.97765 0.21451 0.32354 0.0
H500 H 0.96633 0.21833 0.26239 0.0
O501 O 0.92137 0.20946 0.27788 0.0
O502 O 0.91486 0.21329 0.396 0.0
H503 H 0.96194 0.22674 0.60015 0.0
H504 H 0.94586 0.21045 0.61744 0.0
C505 C 0.95115 0.21964 0.5769 0.0
H506 H 0.94512 0.22531 0.57703 0.0
H507 H 0.91766 0.22297 0.57135 0.0
O508 O 0.93909 0.19867 0.19121 0.0
C509 C 0.91581 0.21501 0.32071 0.0
Co510 Co 0.06791 0.47784 0.35219 0.0
Co511 Co 0.05391 0.46867 0.18485 0.0
C512 C 0.06667 0.49878 0.24572 0.0
O513 O 0.07104 0.49613 0.31016 0.0
O514 O 0.0599 0.48911 0.19436 0.0
C515 C 0.07658 0.49002 0.505 0.0
O516 O 0.07516 0.50018 0.47271 0.0
C517 C 0.05637 0.47107 0.01348 0.0
C518 C 0.03826 0.45102 0.9713 0.0
C519 C 0.05006 0.46329 0.94516 0.0
N520 N 0.04874 0.46369 0.07672 0.0
N521 N 0.0378 0.45181 0.05129 0.0
C522 C 0.07031 0.48445 0.02045 0.0
H523 H 0.07494 0.4853 0.08049 0.0
H524 H 0.0778 0.48488 0.9744 0.0
H525 H 0.06869 0.49361 0.01198 0.0
C526 C 0.08491 0.46551 0.2902 0.0
N527 N 0.07491 0.46919 0.28215 0.0
N528 N 0.06875 0.46493 0.2122 0.0
C529 C 0.07455 0.45819 0.17381 0.0
C530 C 0.08503 0.45838 0.22176 0.0
C531 C 0.09345 0.468 0.3644 0.0
H532 H 0.08621 0.46302 0.41566 0.0
H533 H 0.09967 0.47952 0.37636 0.0
H534 H 0.10064 0.46363 0.35969 0.0
O535 O 0.04745 0.46515 0.37073 0.0
O536 O 0.03703 0.4576 0.25345 0.0
H537 H 0.05867 0.4454 0.08826 0.0
H538 H 0.0751 0.44546 0.07547 0.0
C539 C 0.07033 0.45196 0.09198 0.0
H540 H 0.07396 0.4606 0.04785 0.0
H541 H 0.03034 0.44402 0.08866 0.0
O542 O 0.07568 0.48015 0.46086 0.0
C543 C 0.0364 0.45774 0.32928 0.0
Co544 Co 0.52933 0.59321 0.39313 0.0
Co545 Co 0.53747 0.58749 0.22528 0.0
C546 C 0.50743 0.57144 0.28828 0.0
O547 O 0.5106 0.57848 0.35293 0.0
O548 O 0.51682 0.57391 0.23587 0.0
C549 C 0.51726 0.59141 0.54562 0.0
O550 O 0.50614 0.58058 0.51383 0.0
C551 C 0.53523 0.58835 0.05435 0.0
C552 C 0.55404 0.58784 0.01089 0.0
C553 C 0.54259 0.58903 0.98565 0.0
N554 N 0.54206 0.58694 0.11697 0.0
N555 N 0.55319 0.58644 0.09079 0.0
C556 C 0.52285 0.59062 0.06232 0.0
H557 H 0.52244 0.59438 0.12318 0.0
H558 H 0.52344 0.59838 0.01766 0.0
H559 H 0.51297 0.58044 0.05223 0.0
C560 C 0.54303 0.62261 0.32989 0.0
N561 N 0.53835 0.60868 0.322 0.0
N562 N 0.54228 0.60636 0.25213 0.0
C563 C 0.54983 0.61882 0.21401 0.0
C564 C 0.55039 0.62947 0.26143 0.0
C565 C 0.54136 0.62926 0.40386 0.0
H566 H 0.53025 0.62321 0.42466 0.0
H567 H 0.5444 0.64046 0.39348 0.0
H568 H 0.54815 0.62877 0.45149 0.0
O569 O 0.54137 0.5846 0.41142 0.0
O570 O 0.54801 0.581 0.29311 0.0
H571 H 0.5654 0.63192 0.1259 0.0
H572 H 0.54942 0.61743 0.08692 0.0
C573 C 0.55723 0.62072 0.13601 0.0
H574 H 0.56227 0.6141 0.13437 0.0
H575 H 0.56047 0.58565 0.12762 0.0
O576 O 0.52771 0.59928 0.50134 0.0
C577 C 0.54818 0.58038 0.36892 0.0
Co578 Co 0.40802 0.92959 0.42852 0.0
Co579 Co 0.41656 0.94633 0.26833 0.0
C580 C 0.43104 0.93064 0.33123 0.0
O581 O 0.42273 0.92546 0.39044 0.0
O582 O 0.42981 0.93888 0.28232 0.0
C583 C 0.41259 0.92691 0.58084 0.0
O584 O 0.42502 0.93351 0.54614 0.0
C585 C 0.41762 0.94504 0.09601 0.0
C586 C 0.42393 0.96676 0.05844 0.0
C587 C 0.42054 0.95355 0.02963 0.0
N588 N 0.41898 0.95276 0.16117 0.0
N589 N 0.42272 0.96575 0.13847 0.0
C590 C 0.41461 0.93009 0.09819 0.0
H591 H 0.41298 0.92609 0.16027 0.0
H592 H 0.40502 0.92322 0.06276 0.0
H593 H 0.42356 0.92952 0.07088 0.0
C594 C 0.37964 0.91521 0.34921 0.0
N595 N 0.39362 0.92459 0.35102 0.0
N596 N 0.39722 0.93205 0.28471 0.0
C597 C 0.38556 0.92782 0.23956 0.0
C598 C 0.37413 0.91688 0.27808 0.0
C599 C 0.37166 0.90538 0.41591 0.0
H600 H 0.37834 0.90173 0.44562 0.0
H601 H 0.36172 0.8962 0.39384 0.0
H602 H 0.36896 0.91114 0.46062 0.0
O603 O 0.41685 0.94999 0.45314 0.0
O604 O 0.42232 0.96262 0.34257 0.0
H605 H 0.37422 0.93309 0.15331 0.0
H606 H 0.38774 0.9302 0.11305 0.0
C607 C 0.38499 0.93482 0.16401 0.0
H608 H 0.39255 0.94632 0.1667 0.0
H609 H 0.42462 0.97394 0.17758 0.0
O610 O 0.40162 0.9216 0.53685 0.0
C611 C 0.42187 0.96185 0.41841 0.0
Co612 Co 0.52846 0.93695 0.37129 0.0
Co613 Co 0.53581 0.95073 0.20299 0.0
C614 C 0.50611 0.93682 0.26992 0.0
O615 O 0.50963 0.93296 0.33335 0.0
O616 O 0.51521 0.94377 0.21623 0.0
C617 C 0.51641 0.92591 0.52317 0.0
O618 O 0.50492 0.92474 0.49096 0.0
C619 C 0.53331 0.94774 0.03188 0.0
C620 C 0.55203 0.96718 0.98865 0.0
C621 C 0.54065 0.95449 0.96322 0.0
N622 N 0.5401 0.95599 0.0946 0.0
N623 N 0.55116 0.9677 0.06854 0.0
C624 C 0.52101 0.93306 0.03976 0.0
H625 H 0.5205 0.92897 0.10094 0.0
H626 H 0.52178 0.92587 0.99584 0.0
H627 H 0.5111 0.93323 0.02844 0.0
C628 C 0.54193 0.92131 0.30489 0.0
N629 N 0.53722 0.93055 0.29832 0.0
N630 N 0.5406 0.93654 0.22756 0.0
C631 C 0.54769 0.93133 0.18713 0.0
C632 C 0.54858 0.9214 0.23425 0.0
C633 C 0.54065 0.9131 0.37876 0.0
H634 H 0.52964 0.90802 0.40117 0.0
H635 H 0.54368 0.90496 0.36755 0.0
H636 H 0.54763 0.92048 0.42557 0.0
O637 O 0.5405 0.95755 0.3894 0.0
O638 O 0.54668 0.96777 0.2709 0.0
H639 H 0.56306 0.93386 0.09772 0.0
H640 H 0.54676 0.93178 0.05999 0.0
C641 C 0.55472 0.93665 0.10808 0.0
H642 H 0.55953 0.94828 0.10508 0.0
H643 H 0.55842 0.97576 0.10546 0.0
O644 O 0.5271 0.92925 0.47929 0.0
C645 C 0.54714 0.96858 0.34673 0.0
Co646 Co 0.06788 0.59549 0.36905 0.0
Co647 Co 0.05242 0.58552 0.20664 0.0
C648 C 0.06829 0.57221 0.28149 0.0
O649 O 0.07281 0.58094 0.33915 0.0
O650 O 0.06021 0.57276 0.22866 0.0
C651 C 0.07591 0.59497 0.5239 0.0
O652 O 0.07387 0.58277 0.49766 0.0
C653 C 0.05437 0.58147 0.03956 0.0
C654 C 0.03609 0.58202 0.98742 0.0
C655 C 0.04801 0.58125 0.96811 0.0
N656 N 0.04663 0.58236 0.09879 0.0
N657 N 0.03556 0.58243 0.06767 0.0
C658 C 0.0686 0.58286 0.05123 0.0
H659 H 0.07365 0.58895 0.10625 0.0
H660 H 0.0756 0.58816 -0.00053 0.0
H661 H 0.06729 0.57217 0.05742 0.0
C662 C 0.08212 0.62328 0.28534 0.0
N663 N 0.07306 0.60923 0.28806 0.0
N664 N 0.06623 0.60508 0.21987 0.0
C665 C 0.07057 0.61644 0.17206 0.0
C666 C 0.08083 0.62831 0.21159 0.0
C667 C 0.09101 0.63174 0.35423 0.0
H668 H 0.08405 0.63203 0.40141 0.0
H669 H 0.09659 0.62651 0.37977 0.0
H670 H 0.09877 0.64271 0.3362 0.0
O671 O 0.04728 0.58619 0.39152 0.0
O672 O 0.0358 0.57994 0.27654 0.0
H673 H 0.05311 0.61033 0.09262 0.0
H674 H 0.06863 0.6268 0.06623 0.0
C675 C 0.06481 0.61606 0.09051 0.0
H676 H 0.06823 0.61042 0.04943 0.0
H677 H 0.02804 0.58345 0.10087 0.0
O678 O 0.07596 0.60373 0.4739 0.0
C679 C 0.03577 0.58073 0.35232 0.0
Co680 Co 0.40906 0.47747 0.40907 0.0
Co681 Co 0.4189 0.47228 0.24309 0.0
C682 C 0.43265 0.50118 0.32417 0.0
O683 O 0.42409 0.49693 0.38278 0.0
O684 O 0.43169 0.4927 0.2691 0.0
C685 C 0.40527 0.48693 0.5633 0.0
O686 O 0.41302 0.4998 0.53551 0.0
C687 C 0.42108 0.47653 0.06935 0.0
C688 C 0.42222 0.45796 0.02791 0.0
C689 C 0.4211 0.46935 0.00062 0.0
N690 N 0.42165 0.46939 0.13338 0.0
N691 N 0.42259 0.45845 0.10808 0.0
C692 C 0.42051 0.4899 0.07516 0.0
H693 H 0.42537 0.49552 0.13142 0.0
H694 H 0.40934 0.48736 0.07493 0.0
H695 H 0.42613 0.49699 0.02425 0.0
C696 C 0.38124 0.46411 0.32522 0.0
N697 N 0.39533 0.46929 0.32703 0.0
N698 N 0.39938 0.46655 0.2586 0.0
C699 C 0.38789 0.45922 0.21195 0.0
C700 C 0.37607 0.45757 0.25206 0.0
C701 C 0.37282 0.46433 0.39478 0.0
H702 H 0.37168 0.45619 0.43838 0.0
H703 H 0.37851 0.47476 0.42483 0.0
H704 H 0.36215 0.46207 0.37594 0.0
O705 O 0.4181 0.46597 0.42717 0.0
O706 O 0.42449 0.46094 0.31216 0.0
H707 H 0.39466 0.44815 0.13446 0.0
H708 H 0.37723 0.44516 0.11226 0.0
C709 C 0.38799 0.45313 0.1321 0.0
H710 H 0.39238 0.46169 0.0872 0.0
H711 H 0.4229 0.45099 0.14558 0.0
O712 O 0.40104 0.47648 0.51619 0.0
C713 C 0.42357 0.45996 0.38794 0.0
Co714 Co 0.2695 0.19449 0.25785 0.0
Co715 Co 0.28443 0.20174 0.42437 0.0
C716 C 0.26956 0.17201 0.35751 0.0
O717 O 0.26533 0.17567 0.29612 0.0
O718 O 0.27712 0.18105 0.41021 0.0
C719 C 0.26026 0.18276 0.10507 0.0
O720 O 0.26039 0.17199 0.13878 0.0
C721 C 0.28296 0.19883 0.59684 0.0
C722 C 0.3017 0.21855 0.63697 0.0
C723 C 0.28974 0.20659 0.66467 0.0
N724 N 0.29043 0.20602 0.53258 0.0
N725 N 0.30179 0.21765 0.55691 0.0
C726 C 0.26871 0.18578 0.59143 0.0
H727 H 0.26988 0.17637 0.60093 0.0
H728 H 0.26401 0.18493 0.5316 0.0
H729 H 0.26147 0.18586 0.63755 0.0
C730 C 0.25403 0.20773 0.33201 0.0
N731 N 0.26373 0.20353 0.33352 0.0
N732 N 0.27021 0.20684 0.40309 0.0
C733 C 0.26496 0.21348 0.44755 0.0
C734 C 0.25448 0.21421 0.40426 0.0
C735 C 0.24481 0.20583 0.26175 0.0
H736 H 0.25113 0.20847 0.20617 0.0
H737 H 0.23639 0.19459 0.25804 0.0
H738 H 0.23989 0.21255 0.26668 0.0
O739 O 0.28997 0.20613 0.23749 0.0
O740 O 0.30116 0.21239 0.3533 0.0
H741 H 0.28103 0.22428 0.53591 0.0
H742 H 0.26522 0.22504 0.55438 0.0
C743 C 0.26936 0.21833 0.53168 0.0
H744 H 0.26515 0.209 0.57115 0.0
H745 H 0.3092 0.2253 0.51875 0.0
O746 O 0.26187 0.19301 0.14855 0.0
C747 C 0.30135 0.21269 0.27731 0.0
Co748 Co 0.81272 0.07905 0.28938 0.0
Co749 Co 0.8031 0.08379 0.45583 0.0
C750 C 0.83337 0.10121 0.3972 0.0
O751 O 0.83095 0.09426 0.33256 0.0
O752 O 0.82353 0.09823 0.44742 0.0
C753 C 0.8247 0.08299 0.13633 0.0
O754 O 0.83449 0.09479 0.16874 0.0
C755 C 0.80545 0.08384 0.6275 0.0
C756 C 0.78538 0.08185 0.66926 0.0
C757 C 0.79767 0.0824 0.69573 0.0
N758 N 0.79805 0.084 0.56401 0.0
N759 N 0.78615 0.08303 0.58921 0.0
C760 C 0.81886 0.08333 0.62095 0.0
H761 H 0.81971 0.07948 0.56114 0.0
H762 H 0.81932 0.07634 0.66737 0.0
H763 H 0.82799 0.09414 0.62914 0.0
C764 C 0.80046 0.04973 0.35215 0.0
N765 N 0.80396 0.06338 0.35943 0.0
N766 N 0.7995 0.06525 0.42876 0.0
C767 C 0.79281 0.05275 0.46742 0.0
C768 C 0.79324 0.04249 0.4204 0.0
C769 C 0.8033 0.04371 0.27903 0.0
H770 H 0.79852 0.04592 0.22662 0.0
H771 H 0.81487 0.04906 0.26878 0.0
H772 H 0.79896 0.03215 0.28407 0.0
O773 O 0.80004 0.08678 0.26964 0.0
O774 O 0.79213 0.08958 0.38581 0.0
H775 H 0.77991 0.05586 0.55196 0.0
H776 H 0.77995 0.0395 0.56551 0.0
C777 C 0.78648 0.05076 0.54891 0.0
H778 H 0.79507 0.05579 0.59342 0.0
H779 H 0.77835 0.08265 0.55168 0.0
O780 O 0.81514 0.07368 0.18056 0.0
C781 C 0.79247 0.09035 0.30994 0.0
Co782 Co 0.92914 0.73997 0.25205 0.0
Co783 Co 0.92218 0.72427 0.41656 0.0
C784 C 0.90636 0.73864 0.35306 0.0
O785 O 0.91394 0.7434 0.29068 0.0
O786 O 0.90855 0.73122 0.40344 0.0
C787 C 0.92716 0.74949 0.09803 0.0
O788 O 0.9161 0.74934 0.12962 0.0
C789 C 0.92234 0.72709 0.58851 0.0
C790 C 0.92136 0.70758 0.63232 0.0
C791 C 0.92277 0.72032 0.65767 0.0
N792 N 0.9209 0.71883 0.52574 0.0
N793 N 0.92009 0.70707 0.55228 0.0
C794 C 0.92491 0.74184 0.58044 0.0
H795 H 0.9149 0.74181 0.5918 0.0
H796 H 0.92849 0.74589 0.51924 0.0
H797 H 0.93292 0.74897 0.6243 0.0
C798 C 0.95797 0.75546 0.32512 0.0
N799 N 0.94403 0.74589 0.32743 0.0
N800 N 0.94116 0.73879 0.39483 0.0
C801 C 0.95325 0.74345 0.4366 0.0
C802 C 0.96422 0.75429 0.39468 0.0
C803 C 0.96525 0.76474 0.25523 0.0
H804 H 0.96663 0.75838 0.20826 0.0
H805 H 0.95861 0.76886 0.23015 0.0
H806 H 0.97578 0.77363 0.27231 0.0
O807 O 0.92087 0.71957 0.23126 0.0
O808 O 0.91639 0.70765 0.34443 0.0
H809 H 0.94767 0.72537 0.51048 0.0
H810 H 0.96565 0.73951 0.52281 0.0
C811 C 0.9546 0.73699 0.51244 0.0
H812 H 0.95146 0.74129 0.5633 0.0
H813 H 0.91927 0.69897 0.51563 0.0
O814 O 0.93551 0.74772 0.14315 0.0
C815 C 0.91645 0.70797 0.26838 0.0
Co816 Co 0.48002 0.06978 0.61496 0.0
Co817 Co 0.47033 0.05401 0.77886 0.0
C818 C 0.50081 0.06816 0.72044 0.0
O819 O 0.49841 0.07316 0.65761 0.0
O820 O 0.49089 0.06063 0.76888 0.0
C821 C 0.49151 0.07759 0.46094 0.0
O822 O 0.50137 0.0757 0.49352 0.0
C823 C 0.47303 0.05616 0.95119 0.0
C824 C 0.45337 0.03763 0.99348 0.0
C825 C 0.46543 0.04966 0.01983 0.0
N826 N 0.46571 0.04844 0.88772 0.0
N827 N 0.45409 0.03723 0.91336 0.0
C828 C 0.48607 0.07037 0.94435 0.0
H829 H 0.48674 0.07494 0.88437 0.0
H830 H 0.48618 0.07771 0.99043 0.0
H831 H 0.4955 0.06919 0.95295 0.0
C832 C 0.4669 0.08573 0.68399 0.0
N833 N 0.4707 0.07575 0.68755 0.0
N834 N 0.46622 0.06881 0.75526 0.0
C835 C 0.45924 0.07404 0.79644 0.0
C836 C 0.45948 0.08499 0.75294 0.0
C837 C 0.46982 0.09528 0.61403 0.0
H838 H 0.48135 0.10277 0.61029 0.0
H839 H 0.46413 0.10129 0.61872 0.0
H840 H 0.46659 0.08894 0.55839 0.0
O841 O 0.46789 0.04946 0.59347 0.0
O842 O 0.45964 0.03744 0.70569 0.0
H843 H 0.44598 0.07309 0.89618 0.0
H844 H 0.4616 0.07283 0.92199 0.0
C845 C 0.45298 0.06902 0.87758 0.0
H846 H 0.44693 0.05733 0.87875 0.0
H847 H 0.44637 0.02965 0.87608 0.0
O848 O 0.48203 0.07749 0.50543 0.0
C849 C 0.46037 0.03785 0.62971 0.0
Co850 Co 0.93724 0.40919 0.59966 0.0
Co851 Co 0.95225 0.41819 0.76297 0.0
C852 C 0.93695 0.43225 0.69027 0.0
O853 O 0.93248 0.4238 0.63132 0.0
O854 O 0.9448 0.43129 0.7431 0.0
C855 C 0.92936 0.41015 0.44536 0.0
O856 O 0.93202 0.42257 0.47159 0.0
C857 C 0.9503 0.42185 0.93002 0.0
C858 C 0.96848 0.42102 0.98164 0.0
C859 C 0.95671 0.42204 0.00112 0.0
N860 N 0.95791 0.42081 0.87064 0.0
N861 N 0.9689 0.42053 0.90139 0.0
C862 C 0.93623 0.42084 0.91882 0.0
H863 H 0.931 0.41472 0.86419 0.0
H864 H 0.92928 0.41577 0.97105 0.0
H865 H 0.93783 0.43164 0.91216 0.0
C866 C 0.9228 0.38099 0.67773 0.0
N867 N 0.93175 0.39506 0.67817 0.0
N868 N 0.93836 0.39879 0.74712 0.0
C869 C 0.93395 0.38712 0.79242 0.0
C870 C 0.92389 0.37551 0.75027 0.0
C871 C 0.91424 0.37293 0.60699 0.0
H872 H 0.92143 0.37308 0.55986 0.0
H873 H 0.90859 0.37817 0.58256 0.0
H874 H 0.90654 0.36181 0.62268 0.0
O875 O 0.95787 0.41831 0.57776 0.0
O876 O 0.96893 0.42383 0.69414 0.0
H877 H 0.9514 0.39255 0.87067 0.0
H878 H 0.93575 0.376 0.89477 0.0
C879 C 0.93971 0.38693 0.8731 0.0
H880 H 0.93647 0.39247 0.91614 0.0
H881 H 0.97633 0.41942 0.86791 0.0
O882 O 0.92902 0.40125 0.49512 0.0
C883 C 0.96922 0.42342 0.61833 0.0
Co884 Co 0.59453 0.52647 0.62174 0.0
Co885 Co 0.58821 0.53376 0.79039 0.0
C886 C 0.57217 0.50414 0.7227 0.0
O887 O 0.57954 0.50769 0.65925 0.0
O888 O 0.57442 0.5132 0.77691 0.0
C889 C 0.59348 0.51432 0.46997 0.0
O890 O 0.58317 0.50284 0.50221 0.0
C891 C 0.58864 0.53123 0.96146 0.0
C892 C 0.58824 0.55013 0.00469 0.0
C893 C 0.58936 0.53865 0.03011 0.0
N894 N 0.58731 0.53809 0.89875 0.0
N895 N 0.58685 0.54926 0.9248 0.0
C896 C 0.5908 0.5188 0.95357 0.0
H897 H 0.59435 0.51821 0.89242 0.0
H898 H 0.5987 0.51944 0.99756 0.0
H899 H 0.58064 0.50897 0.96479 0.0
C900 C 0.62362 0.53951 0.68826 0.0
N901 N 0.60972 0.53503 0.69475 0.0
N902 N 0.60716 0.53837 0.76578 0.0
C903 C 0.61946 0.54519 0.80655 0.0
C904 C 0.63021 0.54595 0.75928 0.0
C905 C 0.63044 0.53805 0.61447 0.0
H906 H 0.63023 0.54511 0.56767 0.0
H907 H 0.62432 0.52704 0.59196 0.0
H908 H 0.64155 0.54084 0.6258 0.0
O909 O 0.5862 0.53872 0.604 0.0
O910 O 0.58216 0.54477 0.72291 0.0
H911 H 0.61456 0.557 0.89005 0.0
H912 H 0.63243 0.56031 0.89676 0.0
C913 C 0.62126 0.55208 0.8862 0.0
H914 H 0.61812 0.54402 0.93367 0.0
H915 H 0.58617 0.55658 0.88788 0.0
O916 O 0.60081 0.52504 0.51379 0.0
C917 C 0.58187 0.54536 0.64712 0.0
Co918 Co 0.73587 0.80841 0.74307 0.0
Co919 Co 0.7228 0.80371 0.57351 0.0
C920 C 0.73644 0.83226 0.6563 0.0
O921 O 0.74007 0.82783 0.71707 0.0
O922 O 0.72972 0.82399 0.59871 0.0
C923 C 0.75005 0.81829 0.89471 0.0
O924 O 0.7563 0.83109 0.8647 0.0
C925 C 0.72477 0.80782 0.40025 0.0
C926 C 0.70563 0.78847 0.35969 0.0
C927 C 0.71766 0.80037 0.3322 0.0
N928 N 0.71744 0.80041 0.46442 0.0
N929 N 0.70592 0.78898 0.43978 0.0
C930 C 0.73812 0.82182 0.40508 0.0
H931 H 0.73837 0.82747 0.46024 0.0
H932 H 0.74732 0.82015 0.40643 0.0
H933 H 0.73911 0.8285 0.35296 0.0
C934 C 0.75174 0.79599 0.66729 0.0
N935 N 0.74256 0.80081 0.66451 0.0
N936 N 0.73697 0.79865 0.59276 0.0
C937 C 0.74247 0.79234 0.54754 0.0
C938 C 0.75208 0.79057 0.593 0.0
C939 C 0.7596 0.79614 0.74058 0.0
H940 H 0.76441 0.80671 0.76902 0.0
H941 H 0.76794 0.79349 0.72658 0.0
H942 H 0.75205 0.78833 0.78377 0.0
O943 O 0.71526 0.7963 0.7576 0.0
O944 O 0.70549 0.79192 0.63789 0.0
H945 H 0.74121 0.77928 0.44704 0.0
H946 H 0.74201 0.79566 0.42229 0.0
C947 C 0.73763 0.78675 0.46506 0.0
H948 H 0.72595 0.78125 0.46203 0.0
H949 H 0.69849 0.78128 0.47768 0.0
O950 O 0.74275 0.80775 0.84992 0.0
C951 C 0.70439 0.79037 0.71325 0.0
Co952 Co 0.19555 0.9316 0.76685 0.0
Co953 Co 0.20075 0.92107 0.6062 0.0
C954 C 0.17182 0.90766 0.68957 0.0
O955 O 0.17574 0.91681 0.74508 0.0
O956 O 0.18056 0.90837 0.63696 0.0
C957 C 0.18835 0.93541 0.9219 0.0
O958 O 0.17543 0.92582 0.90211 0.0
C959 C 0.19385 0.91663 0.4393 0.0
C960 C 0.2142 0.9216 0.38498 0.0
C961 C 0.20096 0.91971 0.367 0.0
N962 N 0.20277 0.91762 0.49728 0.0
N963 N 0.21474 0.92003 0.4643 0.0
C964 C 0.17881 0.91262 0.4542 0.0
H965 H 0.17408 0.90379 0.49689 0.0
H966 H 0.17838 0.92172 0.48046 0.0
H967 H 0.17235 0.90893 0.39911 0.0
C968 C 0.20871 0.95897 0.68095 0.0
N969 N 0.20359 0.9449 0.68373 0.0
N970 N 0.20637 0.94068 0.61624 0.0
C971 C 0.21356 0.95208 0.56866 0.0
C972 C 0.21518 0.96397 0.60775 0.0
C973 C 0.20855 0.96756 0.74982 0.0
H974 H 0.21616 0.96816 0.79559 0.0
H975 H 0.19788 0.96232 0.77725 0.0
H976 H 0.2115 0.97843 0.73097 0.0
O977 O 0.20671 0.92207 0.78859 0.0
O978 O 0.21249 0.91614 0.67437 0.0
H979 H 0.22625 0.94702 0.49411 0.0
H980 H 0.22594 0.96268 0.46371 0.0
C981 C 0.21953 0.9519 0.48876 0.0
H982 H 0.21075 0.94565 0.44692 0.0
H983 H 0.22368 0.92187 0.49641 0.0
O984 O 0.19752 0.9413 0.8677 0.0
C985 C 0.21298 0.91676 0.75024 0.0
Co986 Co 0.08015 0.26878 0.72328 0.0
Co987 Co 0.08532 0.28306 0.55655 0.0
C988 C 0.10207 0.26955 0.61664 0.0
O989 O 0.09503 0.26523 0.68104 0.0
O990 O 0.0994 0.27656 0.56582 0.0
C991 C 0.08333 0.25996 0.8763 0.0
O992 O 0.09485 0.26116 0.84429 0.0
C993 C 0.08501 0.28043 0.38516 0.0
C994 C 0.08404 0.29905 0.3427 0.0
C995 C 0.08389 0.28692 0.31671 0.0
N996 N 0.08567 0.28828 0.44832 0.0
N997 N 0.0853 0.29951 0.42271 0.0
C998 C 0.0838 0.26621 0.3923 0.0
H999 H 0.07994 0.2617 0.45244 0.0
H1000 H 0.07653 0.25885 0.34638 0.0
H1001 H 0.09439 0.26735 0.3837 0.0
C1002 C 0.05085 0.25218 0.65984 0.0
N1003 N 0.06457 0.26214 0.65283 0.0
N1004 N 0.0666 0.26853 0.58362 0.0
C1005 C 0.0541 0.26305 0.54506 0.0
C1006 C 0.04372 0.25245 0.59178 0.0
C1007 C 0.04468 0.24324 0.73245 0.0
H1008 H 0.0461 0.25016 0.78418 0.0
H1009 H 0.05051 0.23759 0.74575 0.0
H1010 H 0.03327 0.23552 0.72482 0.0
O1011 O 0.08834 0.28931 0.74253 0.0
O1012 O 0.09146 0.29992 0.62574 0.0
H1013 H 0.05792 0.27939 0.46129 0.0
H1014 H 0.0409 0.26366 0.44983 0.0
C1015 C 0.05216 0.2677 0.46436 0.0
H1016 H 0.0565 0.26361 0.41858 0.0
H1017 H 0.08539 0.30721 0.45996 0.0
O1018 O 0.07449 0.26103 0.83188 0.0
C1019 C 0.0922 0.30045 0.7016 0.0
Co1020 Co 0.19541 0.26565 0.74777 0.0
Co1021 Co 0.20236 0.28222 0.58758 0.0
C1022 C 0.17247 0.26543 0.65344 0.0
O1023 O 0.17621 0.26056 0.71154 0.0
O1024 O 0.18154 0.27394 0.60368 0.0
C1025 C 0.18823 0.26269 0.89983 0.0
O1026 O 0.18188 0.26876 0.86479 0.0
C1027 C 0.19968 0.28082 0.41546 0.0
C1028 C 0.21437 0.30276 0.37771 0.0
C1029 C 0.20495 0.28939 0.34907 0.0
N1030 N 0.20587 0.28868 0.4805 0.0
N1031 N 0.21466 0.30179 0.45772 0.0
C1032 C 0.18826 0.26565 0.41774 0.0
H1033 H 0.18608 0.26165 0.47987 0.0
H1034 H 0.19143 0.25912 0.38233 0.0
H1035 H 0.17851 0.26455 0.39042 0.0
C1036 C 0.21039 0.25242 0.66635 0.0
N1037 N 0.20507 0.26121 0.66909 0.0
N1038 N 0.20854 0.26876 0.60314 0.0
C1039 C 0.21658 0.26534 0.55777 0.0
C1040 C 0.21782 0.25473 0.59552 0.0
C1041 C 0.20924 0.24279 0.73273 0.0
H1042 H 0.21805 0.24873 0.77527 0.0
H1043 H 0.19914 0.23903 0.76517 0.0
H1044 H 0.21001 0.23368 0.70963 0.0
O1045 O 0.20628 0.28618 0.77201 0.0
O1046 O 0.21251 0.29865 0.66069 0.0
H1047 H 0.22705 0.28396 0.48493 0.0
H1048 H 0.23292 0.27141 0.46831 0.0
C1049 C 0.22362 0.27257 0.48156 0.0
H1050 H 0.21606 0.26772 0.43161 0.0
H1051 H 0.22075 0.31008 0.49675 0.0
O1052 O 0.19438 0.25787 0.85616 0.0
C1053 C 0.21253 0.29802 0.7365 0.0
Co1054 Co 0.73432 0.92667 0.6946 0.0
Co1055 Co 0.72052 0.91924 0.52621 0.0
C1056 C 0.73381 0.90338 0.6033 0.0
O1057 O 0.73804 0.91121 0.6651 0.0
O1058 O 0.72699 0.90547 0.54851 0.0
C1059 C 0.74804 0.92985 0.84704 0.0
O1060 O 0.75318 0.92222 0.81764 0.0
C1061 C 0.7229 0.91776 0.35305 0.0
C1062 C 0.70348 0.91724 0.31119 0.0
C1063 C 0.71576 0.9178 0.28444 0.0
N1064 N 0.71533 0.91756 0.41677 0.0
N1065 N 0.70367 0.91709 0.39136 0.0
C1066 C 0.73658 0.91778 0.35885 0.0
H1067 H 0.73736 0.91317 0.41593 0.0
H1068 H 0.74549 0.92881 0.35651 0.0
H1069 H 0.73765 0.91171 0.3089 0.0
C1070 C 0.75026 0.95529 0.62128 0.0
N1071 N 0.74107 0.94129 0.61736 0.0
N1072 N 0.73484 0.93824 0.54722 0.0
C1073 C 0.73967 0.95028 0.5049 0.0
C1074 C 0.74969 0.96146 0.54998 0.0
C1075 C 0.75828 0.96273 0.69477 0.0
H1076 H 0.7632 0.95691 0.72104 0.0
H1077 H 0.76652 0.97379 0.68168 0.0
H1078 H 0.75081 0.96279 0.73937 0.0
O1079 O 0.71369 0.91845 0.71091 0.0
O1080 O 0.70352 0.91396 0.59212 0.0
H1081 H 0.73781 0.96235 0.40755 0.0
H1082 H 0.7379 0.9466 0.37928 0.0
C1083 C 0.73413 0.95126 0.42488 0.0
H1084 H 0.72242 0.94526 0.42541 0.0
H1085 H 0.696 0.91701 0.42877 0.0
O1086 O 0.74146 0.93391 0.80186 0.0
C1087 C 0.70269 0.91403 0.66784 0.0
Co1088 Co 0.07581 0.81203 0.73413 0.0
Co1089 Co 0.08322 0.80449 0.56682 0.0
C1090 C 0.10024 0.83364 0.64205 0.0
O1091 O 0.09218 0.83069 0.70255 0.0
O1092 O 0.09778 0.82442 0.58839 0.0
C1093 C 0.07528 0.82306 0.88973 0.0
O1094 O 0.08494 0.83537 0.86197 0.0
C1095 C 0.08758 0.80793 0.39234 0.0
C1096 C 0.07989 0.78589 0.35504 0.0
C1097 C 0.08425 0.79929 0.32538 0.0
N1098 N 0.08466 0.79984 0.45803 0.0
N1099 N 0.08043 0.78675 0.43514 0.0
C1100 C 0.09331 0.82355 0.39458 0.0
H1101 H 0.10121 0.82834 0.44277 0.0
H1102 H 0.08462 0.82573 0.40719 0.0
H1103 H 0.0985 0.82861 0.33751 0.0
C1104 C 0.04756 0.80075 0.65599 0.0
N1105 N 0.06132 0.80438 0.65541 0.0
N1106 N 0.06454 0.80155 0.58473 0.0
C1107 C 0.053 0.79639 0.5375 0.0
C1108 C 0.04176 0.7955 0.58113 0.0
C1109 C 0.04002 0.80159 0.72837 0.0
H1110 H 0.04369 0.79839 0.78187 0.0
H1111 H 0.04258 0.81269 0.73689 0.0
H1112 H 0.02841 0.79473 0.72253 0.0
O1113 O 0.08288 0.79895 0.75321 0.0
O1114 O 0.0874 0.79223 0.63786 0.0
H1115 H 0.05443 0.78423 0.44176 0.0
H1116 H 0.04313 0.79147 0.42019 0.0
C1117 C 0.05299 0.79348 0.45024 0.0
H1118 H 0.06176 0.80279 0.42115 0.0
H1119 H 0.07717 0.77826 0.47423 0.0
O1120 O 0.06899 0.81266 0.84233 0.0
C1121 C 0.08693 0.79171 0.71381 0.0
Co1122 Co 0.93825 0.52737 0.6316 0.0
Co1123 Co 0.95295 0.53618 0.79798 0.0
C1124 C 0.93967 0.50613 0.73467 0.0
O1125 O 0.9351 0.50894 0.67152 0.0
O1126 O 0.9467 0.51569 0.78613 0.0
C1127 C 0.92915 0.51537 0.4785 0.0
O1128 O 0.92991 0.50485 0.51096 0.0
C1129 C 0.95074 0.53347 0.96986 0.0
C1130 C 0.96925 0.5532 0.01201 0.0
C1131 C 0.95725 0.54112 0.03835 0.0
N1132 N 0.95842 0.54077 0.90648 0.0
N1133 N 0.96961 0.55244 0.93196 0.0
C1134 C 0.9366 0.52033 0.96292 0.0
H1135 H 0.93788 0.51098 0.97235 0.0
H1136 H 0.93208 0.51952 0.9026 0.0
H1137 H 0.92918 0.52021 0.00841 0.0
C1138 C 0.92132 0.53937 0.70055 0.0
N1139 N 0.93157 0.53595 0.70472 0.0
N1140 N 0.93809 0.54014 0.77382 0.0
C1141 C 0.93236 0.54665 0.8152 0.0
C1142 C 0.92146 0.5463 0.7705 0.0
C1143 C 0.91206 0.53656 0.62923 0.0
H1144 H 0.91875 0.54104 0.57544 0.0
H1145 H 0.90551 0.52498 0.62017 0.0
H1146 H 0.90512 0.5412 0.63592 0.0
O1147 O 0.95869 0.53991 0.61184 0.0
O1148 O 0.96967 0.54727 0.72779 0.0
H1149 H 0.94859 0.5587 0.90077 0.0
H1150 H 0.93275 0.55963 0.91489 0.0
C1151 C 0.93691 0.55265 0.8973 0.0
H1152 H 0.93285 0.5439 0.94092 0.0
H1153 H 0.97716 0.56015 0.89459 0.0
O1154 O 0.93045 0.52541 0.52275 0.0
C1155 C 0.96995 0.54718 0.65182 0.0
Co1156 Co 0.48072 0.40719 0.55654 0.0
Co1157 Co 0.47289 0.41453 0.72228 0.0
C1158 C 0.50292 0.42944 0.65789 0.0
O1159 O 0.49955 0.42172 0.5958 0.0
O1160 O 0.49363 0.42777 0.70932 0.0
C1161 C 0.49239 0.40905 0.4034 0.0
O1162 O 0.50344 0.41984 0.43604 0.0
C1163 C 0.47575 0.41506 0.89435 0.0
C1164 C 0.45678 0.41535 0.93676 0.0
C1165 C 0.46835 0.41445 0.963 0.0
N1166 N 0.46875 0.41604 0.83102 0.0
N1167 N 0.45756 0.41649 0.85672 0.0
C1168 C 0.48823 0.41295 0.88719 0.0
H1169 H 0.49804 0.42319 0.89727 0.0
H1170 H 0.48873 0.40914 0.82663 0.0
H1171 H 0.48771 0.40526 0.93219 0.0
C1172 C 0.46674 0.3783 0.62759 0.0
N1173 N 0.47131 0.39226 0.63088 0.0
N1174 N 0.4676 0.39524 0.69968 0.0
C1175 C 0.4603 0.38316 0.7418 0.0
C1176 C 0.45957 0.37202 0.69783 0.0
C1177 C 0.46866 0.37114 0.55661 0.0
H1178 H 0.46494 0.37412 0.50234 0.0
H1179 H 0.48008 0.37493 0.54865 0.0
H1180 H 0.4628 0.35948 0.56306 0.0
O1181 O 0.46931 0.41626 0.53614 0.0
O1182 O 0.46248 0.42093 0.6509 0.0
H1183 H 0.44918 0.38872 0.82639 0.0
H1184 H 0.44696 0.37145 0.84253 0.0
C1185 C 0.45451 0.38238 0.82381 0.0
H1186 H 0.4633 0.38666 0.86725 0.0
H1187 H 0.45013 0.41691 0.81948 0.0
O1188 O 0.48204 0.40085 0.44759 0.0
C1189 C 0.4626 0.42104 0.57484 0.0
Co1190 Co 0.59699 0.069 0.60069 0.0
Co1191 Co 0.58825 0.05516 0.76897 0.0
C1192 C 0.57469 0.07066 0.69328 0.0
O1193 O 0.58257 0.07397 0.63201 0.0
O1194 O 0.57584 0.06348 0.74965 0.0
C1195 C 0.59882 0.0819 0.44952 0.0
O1196 O 0.59037 0.08576 0.4823 0.0
C1197 C 0.58848 0.05835 0.9406 0.0
C1198 C 0.58511 0.03784 0.98434 0.0
C1199 C 0.58809 0.05114 0.00963 0.0
N1200 N 0.58609 0.04978 0.87798 0.0
N1201 N 0.58381 0.03744 0.90444 0.0
C1202 C 0.59269 0.0736 0.93227 0.0
H1203 H 0.59611 0.07729 0.87035 0.0
H1204 H 0.60133 0.08022 0.97446 0.0
H1205 H 0.58346 0.07487 0.94598 0.0
C1206 C 0.62551 0.08314 0.67586 0.0
N1207 N 0.61137 0.07462 0.67854 0.0
N1208 N 0.60781 0.06819 0.74811 0.0
C1209 C 0.61969 0.07211 0.79085 0.0
C1210 C 0.63124 0.08186 0.74712 0.0
C1211 C 0.63338 0.09133 0.60379 0.0
H1212 H 0.62804 0.09679 0.57813 0.0
H1213 H 0.64452 0.09913 0.6184 0.0
H1214 H 0.63318 0.08388 0.55808 0.0
O1215 O 0.58751 0.04828 0.5834 0.0
O1216 O 0.58151 0.03798 0.7018 0.0
H1217 H 0.63079 0.06748 0.88253 0.0
H1218 H 0.61771 0.07142 0.91771 0.0
C1219 C 0.62017 0.066 0.86992 0.0
H1220 H 0.61232 0.05456 0.87143 0.0
H1221 H 0.58203 0.02899 0.86776 0.0
O1222 O 0.60431 0.07639 0.49302 0.0
C1223 C 0.58195 0.03718 0.62616 0.0
H1224 H 0.13075 0.44089 0.13968 0.0
H1225 H 0.09312 0.40059 0.10479 0.0
H1226 H 0.0784 0.41081 0.14102 0.0
H1227 H 0.07629 0.43113 0.18516 0.0
H1228 H 0.11376 0.4716 0.2188 0.0
H1229 H 0.12858 0.46144 0.18255 0.0
C1230 C 0.11933 0.43445 0.13945 0.0
C1231 C 0.11294 0.42007 0.11954 0.0
C1232 C 0.11097 0.4404 0.16115 0.0
C1233 C 0.09817 0.41171 0.11983 0.0
C1234 C 0.08979 0.41753 0.14082 0.0
C1235 C 0.08771 0.4377 0.18408 0.0
C1236 C 0.09397 0.45207 0.20395 0.0
C1237 C 0.09607 0.43183 0.16207 0.0
C1238 C 0.10875 0.46048 0.20381 0.0
C1239 C 0.11719 0.4547 0.18264 0.0
H1240 H 0.54121 0.64639 0.20046 0.0
H1241 H 0.57841 0.64642 0.28494 0.0
H1242 H 0.5931 0.67126 0.24635 0.0
H1243 H 0.59542 0.69264 0.18361 0.0
H1244 H 0.55825 0.69296 0.1011 0.0
H1245 H 0.54346 0.66826 0.14205 0.0
C1246 C 0.55251 0.65198 0.21126 0.0
C1247 C 0.5588 0.64479 0.24604 0.0
C1248 C 0.56086 0.6662 0.18814 0.0
C1249 C 0.57343 0.65191 0.25897 0.0
C1250 C 0.5818 0.66604 0.23648 0.0
C1251 C 0.58405 0.68733 0.17547 0.0
C1252 C 0.5779 0.69458 0.13966 0.0
C1253 C 0.57565 0.67324 0.20031 0.0
C1254 C 0.56321 0.68753 0.12804 0.0
C1255 C 0.55476 0.67346 0.1519 0.0
H1256 H 0.31266 0.89883 0.16237 0.0
H1257 H 0.318 0.86757 0.03494 0.0
H1258 H 0.34175 0.87717 0.09127 0.0
H1259 H 0.36097 0.89444 0.17885 0.0
H1260 H 0.35464 0.92433 0.31371 0.0
H1261 H 0.33106 0.91497 0.2552 0.0
C1262 C 0.31895 0.89399 0.14774 0.0
C1263 C 0.31354 0.88246 0.09479 0.0
C1264 C 0.33231 0.89919 0.18293 0.0
C1265 C 0.32197 0.87655 0.07482 0.0
C1266 C 0.33548 0.88194 0.10772 0.0
C1267 C 0.35426 0.89867 0.19618 0.0
C1268 C 0.3593 0.90986 0.25111 0.0
C1269 C 0.34072 0.89319 0.16233 0.0
C1270 C 0.35076 0.91553 0.27248 0.0
C1271 C 0.33738 0.91027 0.23852 0.0
H1272 H 0.43243 0.07618 0.79546 0.0
H1273 H 0.47284 0.11374 0.76263 0.0
H1274 H 0.46314 0.12832 0.81131 0.0
H1275 H 0.44303 0.13023 0.86596 0.0
H1276 H 0.40306 0.09237 0.90395 0.0
H1277 H 0.41276 0.07795 0.85356 0.0
C1278 C 0.43912 0.08755 0.79969 0.0
C1279 C 0.45335 0.09389 0.77647 0.0
C1280 C 0.43358 0.09575 0.82994 0.0
C1281 C 0.46184 0.10865 0.78014 0.0
C1282 C 0.45633 0.11696 0.80859 0.0
C1283 C 0.43658 0.11881 0.86401 0.0
C1284 C 0.42241 0.11229 0.88869 0.0
C1285 C 0.44223 0.11061 0.83447 0.0
C1286 C 0.41402 0.09753 0.88547 0.0
C1287 C 0.41953 0.08932 0.85622 0.0
H1288 H 0.89733 0.35827 0.80444 0.0
H1289 H 0.93646 0.35962 0.74999 0.0
H1290 H 0.92664 0.33519 0.79585 0.0
H1291 H 0.907 0.31359 0.85399 0.0
H1292 H 0.86789 0.31218 0.91037 0.0
H1293 H 0.87756 0.33651 0.86264 0.0
C1294 C 0.90358 0.35309 0.80221 0.0
C1295 C 0.9175 0.36053 0.77355 0.0
C1296 C 0.89791 0.33913 0.82976 0.0
C1297 C 0.92567 0.35393 0.77147 0.0
C1298 C 0.92008 0.34003 0.79792 0.0
C1299 C 0.90062 0.31864 0.85537 0.0
C1300 C 0.88677 0.31118 0.88516 0.0
C1301 C 0.90624 0.33255 0.82757 0.0
C1302 C 0.87861 0.31781 0.88783 0.0
C1303 C 0.88411 0.33166 0.86024 0.0
H1304 H 0.69415 0.58808 0.83681 0.0
H1305 H 0.68795 0.55367 0.98929 0.0
H1306 H 0.66346 0.53977 0.94406 0.0
H1307 H 0.64356 0.53764 0.86289 0.0
H1308 H 0.65054 0.5711 0.70126 0.0
H1309 H 0.67517 0.585 0.74596 0.0
C1310 C 0.68757 0.57743 0.85898 0.0
C1311 C 0.69288 0.57202 0.91721 0.0
C1312 C 0.67367 0.5693 0.83043 0.0
C1313 C 0.68405 0.55827 0.94615 0.0
C1314 C 0.67008 0.55025 0.91966 0.0
C1315 C 0.6506 0.54789 0.83682 0.0
C1316 C 0.64542 0.5534 0.77885 0.0
C1317 C 0.66474 0.55569 0.86222 0.0
C1318 C 0.65446 0.56668 0.74547 0.0
C1319 C 0.66847 0.57463 0.77138 0.0
H1320 H 0.87418 0.55995 0.88213 0.0
H1321 H 0.91085 0.60093 0.9185 0.0
H1322 H 0.92617 0.5922 0.86945 0.0
H1323 H 0.9291 0.57305 0.81353 0.0
H1324 H 0.89272 0.5318 0.77977 0.0
H1325 H 0.87723 0.54048 0.82793 0.0
C1326 C 0.88554 0.56685 0.88002 0.0
C1327 C 0.89146 0.58101 0.90407 0.0
C1328 C 0.89427 0.56176 0.85095 0.0
C1329 C 0.90615 0.58997 0.90051 0.0
C1330 C 0.91487 0.58501 0.87209 0.0
C1331 C 0.91778 0.56597 0.81726 0.0
C1332 C 0.91203 0.5518 0.79397 0.0
C1333 C 0.90905 0.57097 0.84662 0.0
C1334 C 0.89734 0.54277 0.79732 0.0
C1335 C 0.88852 0.5477 0.8254 0.0
H1336 H 0.43243 0.35488 0.74337 0.0
H1337 H 0.47171 0.35552 0.7058 0.0
H1338 H 0.46107 0.33114 0.75448 0.0
H1339 H 0.44048 0.30966 0.81003 0.0
H1340 H 0.40161 0.30964 0.85184 0.0
H1341 H 0.41225 0.3339 0.80209 0.0
C1342 C 0.43867 0.34969 0.74655 0.0
C1343 C 0.45285 0.35697 0.72194 0.0
C1344 C 0.43259 0.33587 0.77652 0.0
C1345 C 0.46075 0.35006 0.72438 0.0
C1346 C 0.45471 0.33619 0.75278 0.0
C1347 C 0.43447 0.3151 0.80897 0.0
C1348 C 0.42034 0.30801 0.83449 0.0
C1349 C 0.44066 0.32902 0.77971 0.0
C1350 C 0.41253 0.315 0.83255 0.0
C1351 C 0.41858 0.3288 0.80372 0.0
H1352 H 0.69241 0.09674 0.85454 0.0
H1353 H 0.69637 0.13753 0.89257 0.0
H1354 H 0.67201 0.12841 0.84656 0.0
H1355 H 0.64961 0.10874 0.7929 0.0
H1356 H 0.64615 0.06825 0.7517 0.0
H1357 H 0.6704 0.07736 0.79899 0.0
C1358 C 0.68793 0.10363 0.8522 0.0
C1359 C 0.69614 0.11779 0.87609 0.0
C1360 C 0.67409 0.09839 0.82399 0.0
C1361 C 0.69018 0.12657 0.87454 0.0
C1362 C 0.67632 0.12139 0.8477 0.0
C1363 C 0.6543 0.10203 0.79364 0.0
C1364 C 0.64627 0.08791 0.76869 0.0
C1365 C 0.66821 0.10734 0.82155 0.0
C1366 C 0.65227 0.07918 0.77036 0.0
C1367 C 0.66606 0.08436 0.79777 0.0
H1368 H 0.54058 0.89891 0.13709 0.0
H1369 H 0.57456 0.92819 0.28786 0.0
H1370 H 0.58911 0.91805 0.24562 0.0
H1371 H 0.59239 0.90151 0.1616 0.0
H1372 H 0.55764 0.87062 0.0204 0.0
H1373 H 0.54324 0.88094 0.06095 0.0
C1374 C 0.5511 0.90287 0.1613 0.0
C1375 C 0.55655 0.91414 0.21573 0.0
C1376 C 0.55929 0.89687 0.13733 0.0
C1377 C 0.57019 0.91938 0.24654 0.0
C1378 C 0.5785 0.91366 0.22199 0.0
C1379 C 0.58158 0.89686 0.14075 0.0
C1380 C 0.57613 0.88533 0.08776 0.0
C1381 C 0.5732 0.90248 0.16692 0.0
C1382 C 0.5622 0.87966 0.06 0.0
C1383 C 0.55391 0.88547 0.08384 0.0
H1384 H 0.09819 0.68881 0.07913 0.0
H1385 H 0.13886 0.69169 0.06396 0.0
H1386 H 0.12878 0.66762 0.11712 0.0
H1387 H 0.1083 0.64589 0.17153 0.0
H1388 H 0.06784 0.6435 0.18806 0.0
H1389 H 0.07792 0.66736 0.13302 0.0
C1390 C 0.10482 0.68414 0.08778 0.0
C1391 C 0.11924 0.69198 0.06863 0.0
C1392 C 0.09901 0.67048 0.11972 0.0
C1393 C 0.12772 0.68579 0.07838 0.0
C1394 C 0.12198 0.6721 0.10929 0.0
C1395 C 0.1018 0.65072 0.16358 0.0
C1396 C 0.08741 0.64311 0.18401 0.0
C1397 C 0.10766 0.6644 0.13107 0.0
C1398 C 0.07897 0.64929 0.17293 0.0
C1399 C 0.0847 0.66286 0.14116 0.0
H1400 H 0.35836 0.46671 0.20219 0.0
H1401 H 0.36099 0.42915 0.24044 0.0
H1402 H 0.33746 0.41462 0.18232 0.0
H1403 H 0.31642 0.41271 0.11723 0.0
H1404 H 0.31307 0.44997 0.08341 0.0
H1405 H 0.33676 0.46464 0.14019 0.0
C1406 C 0.35362 0.45533 0.19864 0.0
C1407 C 0.36123 0.44891 0.22582 0.0
C1408 C 0.34012 0.44708 0.1645 0.0
C1409 C 0.35518 0.43421 0.22031 0.0
C1410 C 0.34181 0.42595 0.1866 0.0
C1411 C 0.32085 0.42403 0.12311 0.0
C1412 C 0.313 0.43026 0.09725 0.0
C1413 C 0.33424 0.43227 0.1579 0.0
C1414 C 0.31897 0.44497 0.10293 0.0
C1415 C 0.33244 0.45332 0.13599 0.0
H1416 H 0.77313 0.74815 0.50591 0.0
H1417 H 0.80077 0.78256 0.35186 0.0
H1418 H 0.79033 0.79644 0.39949 0.0
H1419 H 0.77301 0.79867 0.48438 0.0
H1420 H 0.74722 0.76522 0.64782 0.0
H1421 H 0.75758 0.75123 0.59938 0.0
C1422 C 0.77709 0.75879 0.48382 0.0
C1423 C 0.78763 0.76422 0.42463 0.0
C1424 C 0.77143 0.76691 0.5138 0.0
C1425 C 0.79242 0.77795 0.3958 0.0
C1426 C 0.78656 0.78596 0.42366 0.0
C1427 C 0.76984 0.78838 0.50978 0.0
C1428 C 0.75944 0.78291 0.56943 0.0
C1429 C 0.776 0.78053 0.48239 0.0
C1430 C 0.7553 0.7696 0.6022 0.0
C1431 C 0.76117 0.76161 0.57422 0.0
H1432 H 0.26235 0.02435 0.49463 0.0
H1433 H 0.22601 0.02864 0.44589 0.0
H1434 H 0.21034 0.00455 0.49446 0.0
H1435 H 0.20711 0.98233 0.55408 0.0
H1436 H 0.24366 0.97841 0.60337 0.0
H1437 H 0.2592 0.00237 0.55345 0.0
C1438 C 0.25099 0.01998 0.49497 0.0
C1439 C 0.2453 0.02823 0.46759 0.0
C1440 C 0.24214 0.00627 0.52415 0.0
C1441 C 0.23058 0.02243 0.46672 0.0
C1442 C 0.22166 0.00872 0.49498 0.0
C1443 C 0.21849 0.98685 0.55437 0.0
C1444 C 0.22434 0.9788 0.58281 0.0
C1445 C 0.22733 1.00058 0.52464 0.0
C1446 C 0.23904 0.98456 0.58222 0.0
C1447 C 0.24788 0.99819 0.55335 0.0
H1448 H 0.02491 0.26116 0.5644 0.0
H1449 H 0.02874 0.22388 0.57511 0.0
H1450 H 0.00411 0.20931 0.53168 0.0
H1451 H 0.98159 0.20739 0.48657 0.0
H1452 H 0.97796 0.24481 0.47674 0.0
H1453 H 1.00242 0.25922 0.5225 0.0
C1454 C 0.02028 0.24983 0.55732 0.0
C1455 C 0.02854 0.24355 0.5723 0.0
C1456 C 0.00622 0.24162 0.53164 0.0
C1457 C 0.02249 0.22888 0.56395 0.0
C1458 C 0.00847 0.22059 0.53869 0.0
C1459 C 0.98625 0.21871 0.49434 0.0
C1460 C 0.97815 0.22512 0.47822 0.0
C1461 C 1.00027 0.22687 0.52151 0.0
C1462 C 0.98412 0.23974 0.4888 0.0
C1463 C 0.99805 0.24794 0.51509 0.0
H1464 H 0.20864 0.2287 0.53223 0.0
H1465 H 0.24629 0.26741 0.59537 0.0
H1466 H 0.26098 0.25873 0.53604 0.0
H1467 H 0.26308 0.24035 0.46342 0.0
H1468 H 0.22568 0.20102 0.40594 0.0
H1469 H 0.21084 0.20983 0.46252 0.0
C1470 C 0.22007 0.23508 0.53382 0.0
C1471 C 0.22646 0.24859 0.56846 0.0
C1472 C 0.22842 0.23002 0.49906 0.0
C1473 C 0.24123 0.25692 0.56951 0.0
C1474 C 0.2496 0.25201 0.53509 0.0
C1475 C 0.25168 0.23368 0.46402 0.0
C1476 C 0.24547 0.22 0.43167 0.0
C1477 C 0.24331 0.23863 0.49917 0.0
C1478 C 0.23068 0.2116 0.43055 0.0
C1479 C 0.22222 0.21658 0.46358 0.0
H1480 H 0.77703 0.97998 0.51252 0.0
H1481 H 0.73635 0.97658 0.54382 0.0
H1482 H 0.74607 1.00124 0.50305 0.0
H1483 H 0.76607 0.02365 0.45644 0.0
H1484 H 0.80696 0.02746 0.42673 0.0
H1485 H 0.79727 0.00271 0.4667 0.0
C1486 C 0.7704 0.98476 0.51097 0.0
C1487 C 0.75606 0.97664 0.53132 0.0
C1488 C 0.77606 0.99891 0.48666 0.0
C1489 C 0.74745 0.98276 0.52863 0.0
C1490 C 0.75298 0.99679 0.50499 0.0
C1491 C 0.77284 0.01903 0.45911 0.0
C1492 C 0.7872 0.02731 0.43937 0.0
C1493 C 0.76724 0.00494 0.48345 0.0
C1494 C 0.79585 0.02122 0.44157 0.0
C1495 C 0.79034 0.00713 0.46492 0.0
H1496 H 0.9797 0.77904 0.4737 0.0
H1497 H 0.98204 0.74444 0.36712 0.0
H1498 H 0.00602 0.75374 0.41936 0.0
H1499 H 0.02585 0.77115 0.49986 0.0
H1500 H 0.02442 0.8067 0.60032 0.0
H1501 H 1.00037 0.79742 0.5487 0.0
C1502 C 0.98564 0.77376 0.46086 0.0
C1503 C 0.97934 0.76124 0.41586 0.0
C1504 C 0.99939 0.77917 0.49153 0.0
C1505 C 0.98689 0.75424 0.40057 0.0
C1506 C 1.0005 0.75948 0.43106 0.0
C1507 C 0.02034 0.77696 0.50963 0.0
C1508 C 0.02693 0.78963 0.55349 0.0
C1509 C 0.00679 0.77184 0.47731 0.0
C1510 C 0.01953 0.79686 0.56735 0.0
C1511 C 0.00584 0.79163 0.53713 0.0
H1512 H 0.18795 0.41388 0.97241 0.0
H1513 H 0.17611 0.39125 0.19587 0.0
H1514 H 0.19897 0.39245 0.20285 0.0
H1515 H 0.22135 0.39782 0.13913 0.0
H1516 H 0.23297 0.42014 0.91461 0.0
H1517 H 0.21126 0.42126 0.91522 0.0
C1518 C 0.19041 0.40936 0.02323 0.0
C1519 C 0.18019 0.40231 0.08291 0.0
C1520 C 0.20353 0.40993 0.02652 0.0
C1521 C 0.18368 0.39664 0.14862 0.0
C1522 C 0.19676 0.39728 0.15264 0.0
C1523 C 0.21924 0.40309 0.09075 0.0
C1524 C 0.22875 0.40871 0.02639 0.0
C1525 C 0.20662 0.40357 0.09089 0.0
C1526 C 0.22584 0.41561 0.96469 0.0
C1527 C 0.21339 0.41624 0.96481 0.0
H1528 H 0.59319 0.7774 0.95955 0.0
H1529 H 0.61526 0.78743 0.18503 0.0
H1530 H 0.61504 0.80956 0.191 0.0
H1531 H 0.61037 0.82692 0.12781 0.0
H1532 H 0.58882 0.81745 0.90103 0.0
H1533 H 0.58707 0.79428 0.90031 0.0
C1534 C 0.59781 0.78433 0.0105 0.0
C1535 C 0.60426 0.78069 0.07164 0.0
C1536 C 0.59786 0.79723 0.01313 0.0
C1537 C 0.61019 0.78987 0.13709 0.0
C1538 C 0.61013 0.8026 0.14049 0.0
C1539 C 0.60509 0.81976 0.07867 0.0
C1540 C 0.5998 0.82403 0.0145 0.0
C1541 C 0.60425 0.80651 0.07818 0.0
C1542 C 0.59305 0.81452 0.95124 0.0
C1543 C 0.59206 0.80125 0.95066 0.0
H1544 H 0.2209 0.82254 0.10006 0.0
H1545 H 0.23522 0.81597 0.87264 0.0
H1546 H 0.21384 0.79296 0.86042 0.0
H1547 H 0.19017 0.77556 0.90894 0.0
H1548 H 0.17583 0.78244 0.13562 0.0
H1549 H 0.19815 0.80435 0.15345 0.0
C1550 C 0.21947 0.81603 0.04824 0.0
C1551 C 0.22968 0.82111 0.98717 0.0
C1552 C 0.20706 0.80285 0.04107 0.0
C1553 C 0.22757 0.81243 0.92055 0.0
C1554 C 0.2153 0.79925 0.91334 0.0
C1555 C 0.19198 0.78175 0.96275 0.0
C1556 C 0.18122 0.77737 0.02038 0.0
C1557 C 0.20483 0.79448 0.97242 0.0
C1558 C 0.18383 0.78556 0.08982 0.0
C1559 C 0.19661 0.79813 0.10013 0.0
H1560 H 0.41117 0.22579 0.00911 0.0
H1561 H 0.39034 0.21617 0.77994 0.0
H1562 H 0.39097 0.19422 0.77383 0.0
H1563 H 0.39544 0.17672 0.83867 0.0
H1564 H 0.41591 0.18612 0.06885 0.0
H1565 H 0.41753 0.20919 0.06862 0.0
C1566 C 0.40692 0.219 0.95729 0.0
C1567 C 0.40056 0.22261 0.89559 0.0
C1568 C 0.40716 0.20626 0.95442 0.0
C1569 C 0.39519 0.21366 0.82876 0.0
C1570 C 0.39552 0.20106 0.82518 0.0
C1571 C 0.40041 0.18386 0.88846 0.0
C1572 C 0.40538 0.17955 0.9541 0.0
C1573 C 0.40117 0.19708 0.88852 0.0
C1574 C 0.4119 0.18905 0.01767 0.0
C1575 C 0.4128 0.20227 0.01776 0.0
H1576 H 0.77904 0.18697 0.0322 0.0
H1577 H 0.78803 0.17404 0.80668 0.0
H1578 H 0.81008 0.19649 0.79652 0.0
H1579 H 0.8278 0.21888 0.857 0.0
H1580 H 0.8189 0.2317 0.0831 0.0
H1581 H 0.79584 0.21026 0.08708 0.0
C1582 C 0.78572 0.18909 0.98031 0.0
C1583 C 0.7819 0.1787 0.92084 0.0
C1584 C 0.7985 0.20199 0.97508 0.0
C1585 C 0.7907 0.18176 0.85379 0.0
C1586 C 0.80336 0.1946 0.84792 0.0
C1587 C 0.82077 0.2171 0.90674 0.0
C1588 C 0.8252 0.22688 0.96999 0.0
C1589 C 0.80752 0.20466 0.90909 0.0
C1590 C 0.81586 0.22436 0.0337 0.0
C1591 C 0.80265 0.21206 0.03619 0.0
H1592 H 0.78367 0.60304 0.90234 0.0
H1593 H 0.77197 0.58476 0.13729 0.0
H1594 H 0.79335 0.58296 0.14373 0.0
H1595 H 0.81646 0.58857 0.08719 0.0
H1596 H 0.82813 0.60766 0.85374 0.0
H1597 H 0.80565 0.60703 0.84223 0.0
C1598 C 0.78567 0.59854 0.95476 0.0
C1599 C 0.77623 0.59421 0.01946 0.0
C1600 C 0.79807 0.59773 0.95857 0.0
C1601 C 0.77903 0.58826 0.08655 0.0
C1602 C 0.79131 0.58726 0.09044 0.0
C1603 C 0.814 0.5924 0.03331 0.0
C1604 C 0.82407 0.59821 0.97162 0.0
C1605 C 0.80107 0.59226 0.02748 0.0
C1606 C 0.82067 0.60316 0.90235 0.0
C1607 C 0.8078 0.60284 0.89569 0.0
H1608 H 0.8487 0.73531 0.43775 0.0
H1609 H 0.85392 0.75217 0.19969 0.0
H1610 H 0.87725 0.75441 0.19152 0.0
H1611 H 0.8952 0.74948 0.24723 0.0
H1612 H 0.8895 0.73208 0.48446 0.0
H1613 H 0.86739 0.73224 0.49758 0.0
C1614 C 0.85494 0.73958 0.38427 0.0
C1615 C 0.84939 0.74337 0.31916 0.0
C1616 C 0.86828 0.74067 0.37954 0.0
C1617 C 0.85782 0.74908 0.25075 0.0
C1618 C 0.87118 0.75033 0.24585 0.0
C1619 C 0.88924 0.74591 0.30226 0.0
C1620 C 0.89398 0.74062 0.36435 0.0
C1621 C 0.87637 0.74584 0.30919 0.0
C1622 C 0.88608 0.73608 0.4353 0.0
C1623 C 0.8734 0.73615 0.44292 0.0
H1624 H 0.27851 0.16068 0.47312 0.0
H1625 H 0.25435 0.15008 0.25475 0.0
H1626 H 0.25244 0.12691 0.25396 0.0
H1627 H 0.25945 0.11047 0.30823 0.0
H1628 H 0.28397 0.12123 0.52531 0.0
H1629 H 0.28375 0.14337 0.53369 0.0
C1630 C 0.27267 0.15326 0.42582 0.0
C1631 C 0.26675 0.15726 0.36355 0.0
C1632 C 0.27174 0.13995 0.42507 0.0
C1633 C 0.25914 0.1474 0.30315 0.0
C1634 C 0.25806 0.13412 0.30248 0.0
C1635 C 0.26462 0.11757 0.35792 0.0
C1636 C 0.27182 0.11418 0.41555 0.0
C1637 C 0.26461 0.13041 0.36202 0.0
C1638 C 0.27837 0.12351 0.4798 0.0
C1639 C 0.2783 0.13624 0.4846 0.0
H1640 H 0.88669 0.15935 0.49049 0.0
H1641 H 0.90046 0.15375 0.2589 0.0
H1642 H 0.87949 0.13043 0.24759 0.0
H1643 H 0.85625 0.1125 0.29797 0.0
H1644 H 0.84234 0.1183 0.52872 0.0
H1645 H 0.86439 0.14054 0.54575 0.0
C1646 C 0.88521 0.15299 0.43784 0.0
C1647 C 0.89511 0.15843 0.3753 0.0
C1648 C 0.87303 0.13961 0.43121 0.0
C1649 C 0.89301 0.14993 0.30788 0.0
C1650 C 0.88098 0.13657 0.30119 0.0
C1651 C 0.85809 0.11852 0.35246 0.0
C1652 C 0.84752 0.11375 0.41147 0.0
C1653 C 0.87076 0.13143 0.36166 0.0
C1654 C 0.85019 0.12172 0.48186 0.0
C1655 C 0.86281 0.13448 0.49171 0.0
H1656 H 0.07912 0.52158 0.34535 0.0
H1657 H 0.05766 0.50793 0.11876 0.0
H1658 H 0.05733 0.52999 0.10679 0.0
H1659 H 0.06115 0.55216 0.16612 0.0
H1660 H 0.08238 0.5657 0.39337 0.0
H1661 H 0.08486 0.54475 0.39892 0.0
C1662 C 0.07452 0.52347 0.29281 0.0
C1663 C 0.06826 0.51297 0.2336 0.0
C1664 C 0.07422 0.53615 0.28656 0.0
C1665 C 0.06246 0.51573 0.16569 0.0
C1666 C 0.06223 0.52835 0.1588 0.0
C1667 C 0.06647 0.55064 0.21649 0.0
C1668 C 0.07142 0.56046 0.27962 0.0
C1669 C 0.06776 0.53848 0.21977 0.0
C1670 C 0.07839 0.55832 0.34404 0.0
C1671 C 0.07979 0.5463 0.34744 0.0
H1672 H 0.48521 0.56136 0.39204 0.0
H1673 H 0.49697 0.55404 0.15854 0.0
H1674 H 0.47432 0.53228 0.1463 0.0
H1675 H 0.45214 0.51423 0.20654 0.0
H1676 H 0.44048 0.52129 0.44087 0.0
H1677 H 0.46203 0.54427 0.44738 0.0
C1678 C 0.48277 0.55512 0.33799 0.0
C1679 C 0.49292 0.5593 0.2768 0.0
C1680 C 0.46975 0.54248 0.33156 0.0
C1681 C 0.48947 0.55107 0.20701 0.0
C1682 C 0.4765 0.53858 0.19993 0.0
C1683 C 0.4542 0.52084 0.25877 0.0
C1684 C 0.44473 0.51591 0.32348 0.0
C1685 C 0.46671 0.534 0.26262 0.0
C1686 C 0.44757 0.52473 0.39024 0.0
C1687 C 0.45994 0.53789 0.39419 0.0
H1688 H 0.45032 0.93906 0.21058 0.0
H1689 H 0.43923 0.91681 0.43531 0.0
H1690 H 0.46091 0.91563 0.43238 0.0
H1691 H 0.48404 0.92287 0.3728 0.0
H1692 H 0.49532 0.94543 0.14904 0.0
H1693 H 0.47251 0.94437 0.14474 0.0
C1694 C 0.45255 0.9338 0.25853 0.0
C1695 C 0.44319 0.92819 0.32352 0.0
C1696 C 0.46514 0.93328 0.25703 0.0
C1697 C 0.44622 0.92129 0.38465 0.0
C1698 C 0.45867 0.92065 0.38323 0.0
C1699 C 0.48147 0.92742 0.32254 0.0
C1700 C 0.49152 0.93439 0.26193 0.0
C1701 C 0.46837 0.92692 0.32075 0.0
C1702 C 0.48789 0.94009 0.19694 0.0
C1703 C 0.47483 0.93952 0.19447 0.0
H1704 H 0.52396 0.08106 0.62361 0.0
H1705 H 0.50975 0.05929 0.8488 0.0
H1706 H 0.53198 0.05939 0.86407 0.0
H1707 H 0.55446 0.06357 0.80763 0.0
H1708 H 0.56847 0.08495 0.58127 0.0
H1709 H 0.54744 0.08721 0.57322 0.0
C1710 C 0.52578 0.0765 0.67659 0.0
C1711 C 0.51507 0.07001 0.73436 0.0
C1712 C 0.53855 0.07643 0.68472 0.0
C1713 C 0.51771 0.06424 0.80284 0.0
C1714 C 0.53043 0.06427 0.81168 0.0
C1715 C 0.55304 0.0689 0.757 0.0
C1716 C 0.56301 0.07391 0.69473 0.0
C1717 C 0.54078 0.07001 0.75205 0.0
C1718 C 0.56097 0.08087 0.62991 0.0
C1719 C 0.54889 0.08215 0.62505 0.0
H1720 H 0.9269 0.48358 0.63344 0.0
H1721 H 0.94871 0.49653 0.8594 0.0
H1722 H 0.94873 0.47428 0.86866 0.0
H1723 H 0.94451 0.45212 0.80719 0.0
H1724 H 0.92298 0.4393 0.58043 0.0
H1725 H 0.92083 0.46045 0.57759 0.0
C1726 C 0.93152 0.48149 0.68525 0.0
C1727 C 0.93795 0.49184 0.7451 0.0
C1728 C 0.93165 0.46871 0.68993 0.0
C1729 C 0.94378 0.48885 0.81201 0.0
C1730 C 0.94383 0.47611 0.81736 0.0
C1731 C 0.93919 0.45384 0.75753 0.0
C1732 C 0.93405 0.44415 0.69375 0.0
C1733 C 0.9381 0.46612 0.75578 0.0
C1734 C 0.92711 0.44657 0.63023 0.0
C1735 C 0.9259 0.45871 0.62838 0.0
H1736 H 0.5139 0.4485 0.77989 0.0
H1737 H 0.52498 0.43761 0.55421 0.0
H1738 H 0.54793 0.45917 0.55812 0.0
H1739 H 0.56391 0.48217 0.61878 0.0
H1740 H 0.55274 0.49331 0.84338 0.0
H1741 H 0.53089 0.47056 0.84679 0.0
C1742 C 0.52138 0.45074 0.73195 0.0
C1743 C 0.51758 0.44148 0.66634 0.0
C1744 C 0.53455 0.46328 0.73399 0.0
C1745 C 0.52752 0.44454 0.60524 0.0
C1746 C 0.54067 0.45692 0.60725 0.0
C1747 C 0.5568 0.47959 0.66903 0.0
C1748 C 0.55993 0.48958 0.73014 0.0
C1749 C 0.54415 0.46654 0.67028 0.0
C1750 C 0.5506 0.48592 0.7951 0.0
C1751 C 0.53805 0.4729 0.79707 0.0
H1752 H 0.74395 0.89269 0.71663 0.0
H1753 H 0.72806 0.88594 0.47522 0.0
H1754 H 0.72853 0.86394 0.46847 0.0
H1755 H 0.73157 0.84566 0.53408 0.0
H1756 H 0.74711 0.85199 0.77603 0.0
H1757 H 0.74879 0.87512 0.77894 0.0
C1758 C 0.74076 0.88651 0.66217 0.0
C1759 C 0.73583 0.89095 0.5969 0.0
C1760 C 0.7409 0.87371 0.65879 0.0
C1761 C 0.73178 0.88277 0.52676 0.0
C1762 C 0.73203 0.87015 0.52275 0.0
C1763 C 0.73546 0.85213 0.58731 0.0
C1764 C 0.73906 0.84697 0.65497 0.0
C1765 C 0.73627 0.86536 0.58895 0.0
C1766 C 0.7442 0.85562 0.72307 0.0
C1767 C 0.74513 0.86886 0.72493 0.0
H1768 H 0.16074 0.88586 0.58454 0.0
H1769 H 0.14991 0.90161 0.79291 0.0
H1770 H 0.12645 0.88041 0.79495 0.0
H1771 H 0.10944 0.85676 0.74059 0.0
H1772 H 0.121 0.84187 0.53072 0.0
H1773 H 0.14357 0.86357 0.52541 0.0
C1774 C 0.15322 0.8849 0.62957 0.0
C1775 C 0.15714 0.89544 0.68808 0.0
C1776 C 0.1398 0.87278 0.63019 0.0
C1777 C 0.14722 0.89372 0.74688 0.0
C1778 C 0.13379 0.88157 0.74816 0.0
C1779 C 0.11684 0.85832 0.69324 0.0
C1780 C 0.11341 0.84759 0.63617 0.0
C1781 C 0.13002 0.87093 0.69057 0.0
C1782 C 0.12318 0.84988 0.57527 0.0
C1783 C 0.1362 0.8623 0.57229 0.0
H1784 H 0.1113 0.25559 0.71217 0.0
H1785 H 0.12077 0.27915 0.49227 0.0
H1786 H 0.1428 0.27877 0.4802 0.0
H1787 H 0.16048 0.27379 0.53862 0.0
H1788 H 0.15108 0.25046 0.75937 0.0
H1789 H 0.12792 0.24858 0.76364 0.0
C1790 C 0.11808 0.2605 0.66103 0.0
C1791 C 0.11442 0.26756 0.60388 0.0
C1792 C 0.13084 0.26036 0.65469 0.0
C1793 C 0.12332 0.27374 0.53765 0.0
C1794 C 0.13597 0.27355 0.5307 0.0
C1795 C 0.1533 0.26813 0.58717 0.0
C1796 C 0.15765 0.26243 0.64903 0.0
C1797 C 0.14001 0.26721 0.5899 0.0
C1798 C 0.14811 0.25502 0.71104 0.0
C1799 C 0.13485 0.25398 0.71378 0.0
H1800 H 0.09371 0.30492 0.86197 0.0
H1801 H 0.10379 0.32696 0.63657 0.0
H1802 H 0.1144 0.34957 0.70676 0.0
H1803 H 0.12155 0.36307 0.8316 0.0
H1804 H 0.11151 0.34103 0.05699 0.0
H1805 H 0.10008 0.3184 0.98687 0.0
C1806 C 0.09817 0.31465 0.82794 0.0
C1807 C 0.098 0.31419 0.74386 0.0
C1808 C 0.10429 0.32762 0.86865 0.0
C1809 C 0.10378 0.32695 0.70116 0.0
C1810 C 0.10988 0.3399 0.74129 0.0
C1811 C 0.11683 0.35333 0.86565 0.0
C1812 C 0.11748 0.3538 0.94968 0.0
C1813 C 0.11031 0.34036 0.82497 0.0
C1814 C 0.11121 0.34103 0.99243 0.0
C1815 C 0.10468 0.32807 0.95233 0.0
H1816 H 0.64082 0.75873 0.82875 0.0
H1817 H 0.66141 0.76539 0.05755 0.0
H1818 H 0.68436 0.77592 0.99185 0.0
H1819 H 0.69867 0.78436 0.87081 0.0
H1820 H 0.67829 0.77804 0.64167 0.0
H1821 H 0.65517 0.76619 0.70649 0.0
C1822 C 0.65031 0.76239 0.86438 0.0
C1823 C 0.64934 0.76132 0.94822 0.0
C1824 C 0.66353 0.76856 0.82624 0.0
C1825 C 0.66179 0.76611 0.99309 0.0
C1826 C 0.67494 0.77217 0.95555 0.0
C1827 C 0.68919 0.78033 0.8347 0.0
C1828 C 0.69027 0.78219 0.75131 0.0
C1829 C 0.67595 0.77362 0.87234 0.0
C1830 C 0.67782 0.7768 0.70586 0.0
C1831 C 0.66458 0.77004 0.74294 0.0
H1832 H 0.23714 0.88917 0.9893 0.0
H1833 H 0.25575 0.8851 0.77092 0.0
H1834 H 0.24562 0.89706 0.69749 0.0
H1835 H 0.23064 0.90787 0.69307 0.0
H1836 H 0.21165 0.91164 0.91036 0.0
H1837 H 0.22282 0.90083 0.9856 0.0
C1838 C 0.23908 0.89101 0.92584 0.0
C1839 C 0.24716 0.88613 0.88607 0.0
C1840 C 0.23312 0.89787 0.88324 0.0
C1841 C 0.24953 0.88863 0.80351 0.0
C1842 C 0.24372 0.89549 0.7611 0.0
C1843 C 0.22899 0.90639 0.75692 0.0
C1844 C 0.22036 0.91067 0.79574 0.0
C1845 C 0.23535 0.9 0.80006 0.0
C1846 C 0.21838 0.90865 0.87872 0.0
C1847 C 0.2247 0.90236 0.92198 0.0
H1848 H 0.30813 0.09153 0.16813 0.0
H1849 H 0.33056 0.10257 0.39253 0.0
H1850 H 0.35308 0.11335 0.32117 0.0
H1851 H 0.36634 0.12054 0.19541 0.0
H1852 H 0.34381 0.10961 0.97124 0.0
H1853 H 0.32137 0.09776 0.04271 0.0
C1854 C 0.31792 0.09622 0.20175 0.0
C1855 C 0.3176 0.09629 0.28587 0.0
C1856 C 0.33082 0.10247 0.16039 0.0
C1857 C 0.33045 0.10236 0.32796 0.0
C1858 C 0.34334 0.10857 0.28713 0.0
C1859 C 0.35654 0.11555 0.1619 0.0
C1860 C 0.35682 0.11609 0.07776 0.0
C1861 C 0.34364 0.10883 0.20337 0.0
C1862 C 0.34397 0.10945 0.0358 0.0
C1863 C 0.3311 0.10269 0.07668 0.0
H1864 H 0.88457 0.24716 0.20234 0.0
H1865 H 0.89684 0.23859 0.97351 0.0
H1866 H 0.909 0.22781 0.03969 0.0
H1867 H 0.91529 0.2199 0.16179 0.0
H1868 H 0.90273 0.22811 0.39067 0.0
H1869 H 0.89162 0.24 0.32486 0.0
C1870 C 0.88997 0.24302 0.16676 0.0
C1871 C 0.88971 0.24366 0.08285 0.0
C1872 C 0.89687 0.23672 0.20517 0.0
C1873 C 0.89681 0.23824 0.03806 0.0
C1874 C 0.90377 0.23204 0.07588 0.0
C1875 C 0.9102 0.22435 0.19754 0.0
C1876 C 0.90982 0.22303 0.28124 0.0
C1877 C 0.90373 0.23109 0.15932 0.0
C1878 C 0.90318 0.22892 0.32625 0.0
C1879 C 0.8968 0.23572 0.28863 0.0
H1880 H 0.76562 0.65489 0.02314 0.0
H1881 H 0.75528 0.63322 0.24969 0.0
H1882 H 0.76587 0.65574 0.31968 0.0
H1883 H 0.77902 0.68169 0.31735 0.0
H1884 H 0.78923 0.70336 0.09078 0.0
H1885 H 0.77772 0.68082 0.02086 0.0
C1886 C 0.76561 0.65508 0.0878 0.0
C1887 C 0.75972 0.64233 0.13073 0.0
C1888 C 0.77175 0.66811 0.1281 0.0
C1889 C 0.75976 0.64283 0.2147 0.0
C1890 C 0.76584 0.65573 0.25505 0.0
C1891 C 0.77866 0.6815 0.25272 0.0
C1892 C 0.78509 0.69426 0.20975 0.0
C1893 C 0.77202 0.66845 0.21244 0.0
C1894 C 0.78444 0.69374 0.12581 0.0
C1895 C 0.77786 0.68083 0.08549 0.0
H1896 H 0.90367 0.68053 0.32088 0.0
H1897 H 0.91704 0.70583 0.10663 0.0
H1898 H 0.90723 0.68461 0.02527 0.0
H1899 H 0.89403 0.65878 0.01346 0.0
H1900 H 0.88045 0.63335 0.2271 0.0
H1901 H 0.89116 0.65459 0.30908 0.0
C1902 C 0.90451 0.6814 0.25647 0.0
C1903 C 0.91104 0.69482 0.22042 0.0
C1904 C 0.89875 0.66908 0.20933 0.0
C1905 C 0.91203 0.69569 0.13655 0.0
C1906 C 0.90641 0.68353 0.08959 0.0
C1907 C 0.89348 0.65786 0.07792 0.0
C1908 C 0.88637 0.64444 0.1136 0.0
C1909 C 0.89962 0.67016 0.12518 0.0
C1910 C 0.8858 0.64352 0.19751 0.0
C1911 C 0.89193 0.65568 0.24476 0.0
H1912 H 0.36336 0.24458 0.13797 0.0
H1913 H 0.3402 0.23203 0.91595 0.0
H1914 H 0.31793 0.2215 0.98947 0.0
H1915 H 0.30508 0.21508 0.11635 0.0
H1916 H 0.32823 0.22748 0.33843 0.0
H1917 H 0.35048 0.23899 0.26474 0.0
C1918 C 0.35346 0.2396 0.10535 0.0
C1919 C 0.35351 0.23905 0.02126 0.0
C1920 C 0.34069 0.23351 0.14798 0.0
C1921 C 0.34053 0.2326 0.98046 0.0
C1922 C 0.32777 0.22655 0.02252 0.0
C1923 C 0.31498 0.22032 0.14896 0.0
C1924 C 0.31493 0.22032 0.23314 0.0
C1925 C 0.32774 0.22682 0.10626 0.0
C1926 C 0.3279 0.22725 0.27387 0.0
C1927 C 0.34065 0.23381 0.23172 0.0
H1928 H 0.78938 0.09133 0.14939 0.0
H1929 H 0.77751 0.10206 0.3731 0.0
H1930 H 0.76566 0.11266 0.30114 0.0
H1931 H 0.75964 0.11981 0.17524 0.0
H1932 H 0.77159 0.10915 0.95155 0.0
H1933 H 0.7824 0.09751 0.02344 0.0
C1934 C 0.78416 0.09592 0.18268 0.0
C1935 C 0.78444 0.09596 0.2668 0.0
C1936 C 0.77741 0.10204 0.14095 0.0
C1937 C 0.7775 0.10189 0.30853 0.0
C1938 C 0.77074 0.10798 0.26736 0.0
C1939 C 0.76454 0.11489 0.14193 0.0
C1940 C 0.76487 0.11546 0.05785 0.0
C1941 C 0.77079 0.10827 0.18363 0.0
C1942 C 0.7712 0.10892 0.01609 0.0
C1943 C 0.77741 0.10228 0.05722 0.0
H1944 H 0.69724 0.91287 0.82735 0.0
H1945 H 0.67663 0.90227 0.59737 0.0
H1946 H 0.65362 0.89154 0.66252 0.0
H1947 H 0.63933 0.88427 0.78395 0.0
H1948 H 0.65977 0.8945 0.01435 0.0
H1949 H 0.68287 0.90643 0.94934 0.0
C1950 C 0.68774 0.9083 0.79125 0.0
C1951 C 0.68872 0.90834 0.70733 0.0
C1952 C 0.67449 0.90206 0.82909 0.0
C1953 C 0.67624 0.90239 0.66189 0.0
C1954 C 0.66305 0.89623 0.69913 0.0
C1955 C 0.64881 0.88916 0.8203 0.0
C1956 C 0.64776 0.88839 0.90418 0.0
C1957 C 0.66205 0.89586 0.78261 0.0
C1958 C 0.66022 0.89487 0.94982 0.0
C1959 C 0.67345 0.90166 0.91264 0.0
H1960 H 0.10205 0.77956 0.65944 0.0
H1961 H 0.08305 0.78515 0.87179 0.0
H1962 H 0.09314 0.77382 0.9517 0.0
H1963 H 0.10843 0.76344 0.96351 0.0
H1964 H 0.12758 0.75789 0.75162 0.0
H1965 H 0.11638 0.76797 0.67031 0.0
C1966 C 0.09997 0.77813 0.72298 0.0
C1967 C 0.09188 0.78332 0.75927 0.0
C1968 C 0.10594 0.77168 0.76928 0.0
C1969 C 0.08934 0.7814 0.84197 0.0
C1970 C 0.09512 0.77491 0.88805 0.0
C1971 C 0.1101 0.76436 0.89953 0.0
C1972 C 0.11893 0.75997 0.86425 0.0
C1973 C 0.10363 0.77022 0.85266 0.0
C1974 C 0.12089 0.7612 0.78092 0.0
C1975 C 0.11447 0.76698 0.73404 0.0
H1976 H 0.22767 0.32539 0.68531 0.0
H1977 H 0.21299 0.30009 0.89907 0.0
H1978 H 0.22358 0.32137 0.98074 0.0
H1979 H 0.23654 0.34734 0.99212 0.0
H1980 H 0.25109 0.37248 0.77759 0.0
H1981 H 0.24113 0.3512 0.69675 0.0
C1982 C 0.22682 0.32451 0.74974 0.0
C1983 C 0.2195 0.31111 0.78553 0.0
C1984 C 0.23293 0.33683 0.79679 0.0
C1985 C 0.21855 0.31024 0.86941 0.0
C1986 C 0.22461 0.32243 0.91648 0.0
C1987 C 0.2376 0.34816 0.92777 0.0
C1988 C 0.24454 0.36156 0.89149 0.0
C1989 C 0.23176 0.3358 0.88089 0.0
C1990 C 0.24578 0.36236 0.8077 0.0
C1991 C 0.24007 0.35017 0.76102 0.0
H1992 H 0.03184 0.45455 0.48925 0.0
H1993 H 0.00993 0.44266 0.26334 0.0
H1994 H 0.98727 0.43055 0.33303 0.0
H1995 H 0.97369 0.4242 0.45787 0.0
H1996 H 0.99576 0.43629 0.68339 0.0
H1997 H 0.01836 0.44742 0.61364 0.0
C1998 C 0.02214 0.44927 0.45497 0.0
C1999 C 0.02263 0.44961 0.37095 0.0
C2000 C 0.00916 0.44239 0.49535 0.0
C2001 C 0.0099 0.44261 0.32792 0.0
C2002 C 0.99692 0.4357 0.36777 0.0
C2003 C 0.98343 0.4292 0.49196 0.0
C2004 C 0.98297 0.42945 0.57598 0.0
C2005 C 0.99643 0.43565 0.45146 0.0
C2006 C 0.99574 0.43595 0.61884 0.0
C2007 C 0.0087 0.44234 0.57897 0.0
H2008 H 0.58066 0.54954 0.48788 0.0
H2009 H 0.56966 0.55933 0.71711 0.0
H2010 H 0.55874 0.57141 0.65116 0.0
H2011 H 0.55153 0.57839 0.52865 0.0
H2012 H 0.56246 0.56848 0.29952 0.0
H2013 H 0.57424 0.55729 0.36562 0.0
C2014 C 0.57594 0.55435 0.52368 0.0
C2015 C 0.57594 0.55343 0.60755 0.0
C2016 C 0.56962 0.56123 0.4854 0.0
C2017 C 0.56981 0.55983 0.65259 0.0
C2018 C 0.56353 0.56673 0.61488 0.0
C2019 C 0.55652 0.57384 0.49295 0.0
C2020 C 0.55601 0.57424 0.409 0.0
C2021 C 0.56325 0.56737 0.53133 0.0
C2022 C 0.56264 0.56833 0.36408 0.0
C2023 C 0.56937 0.5619 0.40187 0.0
H2024 H 0.43418 0.98941 0.36999 0.0
H2025 H 0.42256 0.96336 0.5811 0.0
H2026 H 0.43285 0.98431 0.66516 0.0
H2027 H 0.44595 0.01023 0.67963 0.0
H2028 H 0.4577 0.03617 0.46796 0.0
H2029 H 0.44656 0.0152 0.3845 0.0
C2030 C 0.43382 0.98831 0.43434 0.0
C2031 C 0.42761 0.97478 0.46866 0.0
C2032 C 0.43984 1.00045 0.48288 0.0
C2033 C 0.42727 0.97361 0.55249 0.0
C2034 C 0.43317 0.98561 0.60098 0.0
C2035 C 0.44598 0.01129 0.61533 0.0
C2036 C 0.45274 0.02481 0.58063 0.0
C2037 C 0.4396 0.99912 0.56692 0.0
C2038 C 0.45267 0.02594 0.49687 0.0
C2039 C 0.44629 0.01392 0.44868 0.0
H2040 H 0.5501 0.97388 0.5064 0.0
H2041 H 0.56213 0.99474 0.27765 0.0
H2042 H 0.5743 0.0177 0.3442 0.0
H2043 H 0.58085 0.03184 0.46678 0.0
H2044 H 0.56861 0.01096 0.69543 0.0
H2045 H 0.55722 0.98799 0.62903 0.0
C2046 C 0.55541 0.98342 0.47084 0.0
C2047 C 0.55512 0.98253 0.38689 0.0
C2048 C 0.56233 0.99659 0.50945 0.0
C2049 C 0.56213 0.99507 0.3422 0.0
C2050 C 0.56909 0.00821 0.38025 0.0
C2051 C 0.57575 0.02228 0.50235 0.0
C2052 C 0.57557 0.02318 0.58621 0.0
C2053 C 0.56915 0.0091 0.46379 0.0
C2054 C 0.56891 0.01063 0.63095 0.0
C2055 C 0.56237 0.99747 0.59298 0.0
H2056 H 0.03203 0.58038 0.51333 0.0
H2057 H 0.0089 0.56752 0.29126 0.0
H2058 H 0.98663 0.55658 0.36455 0.0
H2059 H 0.97375 0.54987 0.49108 0.0
H2060 H 0.99676 0.56246 0.71351 0.0
H2061 H 0.01907 0.57437 0.64022 0.0
C2062 C 0.02213 0.57525 0.48071 0.0
C2063 C 0.0222 0.57475 0.39662 0.0
C2064 C 0.00934 0.5689 0.52326 0.0
C2065 C 0.00922 0.56807 0.35578 0.0
C2066 C 0.99646 0.56178 0.39769 0.0
C2067 C 0.98362 0.55526 0.52385 0.0
C2068 C 0.98353 0.55518 0.60798 0.0
C2069 C 0.9964 0.56201 0.48139 0.0
C2070 C 0.99647 0.56231 0.64895 0.0
C2071 C 0.00925 0.5691 0.60702 0.0
H2072 H 0.43719 0.44652 0.32994 0.0
H2073 H 0.42293 0.45608 0.54898 0.0
H2074 H 0.43333 0.44472 0.62581 0.0
H2075 H 0.44719 0.43266 0.63216 0.0
H2076 H 0.46141 0.42303 0.41309 0.0
H2077 H 0.45033 0.43371 0.33604 0.0
C2078 C 0.43628 0.44605 0.3944 0.0
C2079 C 0.42932 0.45224 0.43317 0.0
C2080 C 0.44235 0.43949 0.43882 0.0
C2081 C 0.42826 0.45148 0.51703 0.0
C2082 C 0.43423 0.44497 0.56138 0.0
C2083 C 0.44782 0.43284 0.5676 0.0
C2084 C 0.45521 0.42708 0.52898 0.0
C2085 C 0.44141 0.43904 0.52306 0.0
C2086 C 0.45585 0.4274 0.44497 0.0
C2087 C 0.44951 0.43353 0.40049 0.0
H2088 H 0.15583 0.3972 0.45206 0.0
H2089 H 0.11078 0.37686 0.48755 0.0
H2090 H 0.11448 0.38544 0.62488 0.0
H2091 H 0.13045 0.39769 0.73611 0.0
H2092 H 0.17553 0.41739 0.70231 0.0
H2093 H 0.1719 0.41065 0.56154 0.0
C2094 C 0.14684 0.39493 0.48913 0.0
C2095 C 0.13306 0.38659 0.4593 0.0
C2096 C 0.14905 0.3999 0.56798 0.0
C2097 C 0.1215 0.38326 0.50925 0.0
C2098 C 0.1236 0.38823 0.58756 0.0
C2099 C 0.13951 0.40079 0.69766 0.0
C2100 C 0.15325 0.40806 0.72959 0.0
C2101 C 0.13733 0.39647 0.61768 0.0
C2102 C 0.16485 0.41181 0.67909 0.0
C2103 C 0.16277 0.40787 0.59879 0.0
H2104 H 0.61394 0.73404 0.4791 0.0
H2105 H 0.62608 0.77763 0.44072 0.0
H2106 H 0.61736 0.77881 0.57335 0.0
H2107 H 0.60713 0.76765 0.7008 0.0
H2108 H 0.59462 0.72387 0.73955 0.0
H2109 H 0.60214 0.72235 0.60456 0.0
C2110 C 0.61477 0.74379 0.50067 0.0
C2111 C 0.62086 0.75584 0.45224 0.0
C2112 C 0.60942 0.74425 0.57577 0.0
C2113 C 0.6216 0.76835 0.47853 0.0
C2114 C 0.61653 0.76898 0.55369 0.0
C2115 C 0.60585 0.75771 0.67942 0.0
C2116 C 0.60048 0.74595 0.7303 0.0
C2117 C 0.61047 0.757 0.6028 0.0
C2118 C 0.59874 0.7331 0.70147 0.0
C2119 C 0.60317 0.73225 0.62467 0.0
H2120 H 0.26236 0.85074 0.37605 0.0
H2121 H 0.25055 0.88162 0.44217 0.0
H2122 H 0.25502 0.8791 0.58206 0.0
H2123 H 0.26204 0.86804 0.68538 0.0
H2124 H 0.27134 0.83533 0.62268 0.0
H2125 H 0.26783 0.83843 0.48091 0.0
C2126 C 0.26021 0.85653 0.42094 0.0
C2127 C 0.25569 0.86607 0.39846 0.0
C2128 C 0.26255 0.85483 0.5016 0.0
C2129 C 0.25385 0.87409 0.45779 0.0
C2130 C 0.25644 0.87269 0.53778 0.0
C2131 C 0.26348 0.86172 0.64047 0.0
C2132 C 0.26727 0.8517 0.6637 0.0
C2133 C 0.26086 0.86315 0.56022 0.0
C2134 C 0.26864 0.84324 0.60561 0.0
C2135 C 0.26656 0.84498 0.52489 0.0
H2136 H 0.39936 0.12869 0.28971 0.0
H2137 H 0.42333 0.17388 0.32286 0.0
H2138 H 0.41623 0.17102 0.46291 0.0
H2139 H 0.40145 0.15585 0.57195 0.0
H2140 H 0.37715 0.11072 0.5375 0.0
H2141 H 0.38576 0.11346 0.40081 0.0
C2142 C 0.4033 0.13791 0.32788 0.0
C2143 C 0.4119 0.15149 0.29583 0.0
C2144 C 0.39884 0.13623 0.40757 0.0
C2145 C 0.41673 0.16331 0.34607 0.0
C2146 C 0.41259 0.1617 0.426 0.0
C2147 C 0.39832 0.14658 0.53542 0.0
C2148 C 0.38884 0.13308 0.56552 0.0
C2149 C 0.40337 0.14823 0.45688 0.0
C2150 C 0.38443 0.12124 0.51583 0.0
C2151 C 0.38942 0.12278 0.43779 0.0
H2152 H 0.88257 0.27071 0.5516 0.0
H2153 H 0.84559 0.23021 0.59452 0.0
H2154 H 0.83614 0.23098 0.46337 0.0
H2155 H 0.83906 0.24265 0.33511 0.0
H2156 H 0.87609 0.28325 0.29139 0.0
H2157 H 0.88464 0.28325 0.42589 0.0
C2158 C 0.87251 0.26204 0.53147 0.0
C2159 C 0.86483 0.2503 0.58088 0.0
C2160 C 0.86707 0.26271 0.45703 0.0
C2161 C 0.85166 0.23924 0.55619 0.0
C2162 C 0.84625 0.23974 0.4818 0.0
C2163 C 0.84889 0.25162 0.35531 0.0
C2164 C 0.85701 0.26282 0.30301 0.0
C2165 C 0.85392 0.25138 0.43163 0.0
C2166 C 0.86965 0.27444 0.33044 0.0
C2167 C 0.87463 0.2744 0.407 0.0
H2168 H 0.75159 0.58389 0.39365 0.0
H2169 H 0.72769 0.60303 0.31011 0.0
H2170 H 0.731 0.6149 0.43776 0.0
H2171 H 0.74163 0.62075 0.56997 0.0
H2172 H 0.76256 0.59879 0.65915 0.0
H2173 H 0.7601 0.58785 0.53172 0.0
C2174 C 0.74691 0.59046 0.40408 0.0
C2175 C 0.73944 0.59257 0.34281 0.0
C2176 C 0.74878 0.59723 0.47764 0.0
C2177 C 0.73336 0.60108 0.35678 0.0
C2178 C 0.73541 0.60804 0.42936 0.0
C2179 C 0.74577 0.61365 0.56192 0.0
C2180 C 0.75295 0.61136 0.62467 0.0
C2181 C 0.74333 0.60639 0.48963 0.0
C2182 C 0.75784 0.60177 0.61248 0.0
C2183 C 0.75608 0.59506 0.53926 0.0
H2184 H 0.88262 0.61325 0.56357 0.0
H2185 H 0.84499 0.61526 0.61262 0.0
H2186 H 0.83555 0.60548 0.48071 0.0
H2187 H 0.83853 0.59738 0.3501 0.0
H2188 H 0.87591 0.59475 0.30102 0.0
H2189 H 0.88474 0.60328 0.43537 0.0
C2190 C 0.87241 0.61161 0.54465 0.0
C2191 C 0.86457 0.61517 0.5961 0.0
C2192 C 0.86694 0.60566 0.46969 0.0
C2193 C 0.85121 0.61271 0.57284 0.0
C2194 C 0.84581 0.60706 0.49792 0.0
C2195 C 0.84851 0.59846 0.36918 0.0
C2196 C 0.85659 0.59555 0.31551 0.0
C2197 C 0.85362 0.60358 0.44576 0.0
C2198 C 0.86944 0.59687 0.34129 0.0
C2199 C 0.87459 0.60191 0.41779 0.0
H2200 H 0.38991 0.25177 0.22207 0.0
H2201 H 0.43235 0.28301 0.29052 0.0
H2202 H 0.4251 0.27988 0.43093 0.0
H2203 H 0.40647 0.26853 0.53289 0.0
H2204 H 0.36441 0.23674 0.46214 0.0
H2205 H 0.37179 0.24002 0.32278 0.0
C2206 C 0.39764 0.25796 0.26741 0.0
C2207 C 0.41167 0.26768 0.24571 0.0
C2208 C 0.39345 0.25601 0.34734 0.0
C2209 C 0.4215 0.27547 0.30561 0.0
C2210 C 0.41735 0.27369 0.38578 0.0
C2211 C 0.399 0.26205 0.48737 0.0
C2212 C 0.38498 0.25213 0.50813 0.0
C2213 C 0.40334 0.26396 0.40727 0.0
C2214 C 0.37527 0.24437 0.44773 0.0
C2215 C 0.37948 0.24624 0.36811 0.0
H2216 H 0.73564 0.13038 0.26984 0.0
H2217 H 0.76412 0.17505 0.30233 0.0
H2218 H 0.76715 0.17108 0.4426 0.0
H2219 H 0.76339 0.15467 0.55211 0.0
H2220 H 0.73536 0.10997 0.51837 0.0
H2221 H 0.73086 0.11416 0.38129 0.0
C2222 C 0.74226 0.1393 0.30796 0.0
C2223 C 0.74961 0.15301 0.27577 0.0
C2224 C 0.74431 0.13689 0.38771 0.0
C2225 C 0.75832 0.16441 0.32577 0.0
C2226 C 0.76015 0.16213 0.40579 0.0
C2227 C 0.75604 0.14588 0.5155 0.0
C2228 C 0.74955 0.13205 0.54583 0.0
C2229 C 0.75346 0.14838 0.43686 0.0
C2230 C 0.74051 0.12072 0.49635 0.0
C2231 C 0.73785 0.12311 0.41817 0.0
H2232 H 0.59652 0.85397 0.38857 0.0
H2233 H 0.63787 0.88802 0.45384 0.0
H2234 H 0.631 0.8846 0.594 0.0
H2235 H 0.61369 0.87159 0.69759 0.0
H2236 H 0.57334 0.83577 0.63575 0.0
H2237 H 0.57956 0.8399 0.49357 0.0
C2238 C 0.60427 0.86026 0.43334 0.0
C2239 C 0.6179 0.87091 0.41073 0.0
C2240 C 0.6004 0.85796 0.51404 0.0
C2241 C 0.62741 0.8796 0.46973 0.0
C2242 C 0.6235 0.87766 0.54981 0.0
C2243 C 0.60618 0.86479 0.65287 0.0
C2244 C 0.59296 0.85357 0.67634 0.0
C2245 C 0.61006 0.86688 0.57249 0.0
C2246 C 0.58349 0.84456 0.61843 0.0
C2247 C 0.58708 0.8469 0.53753 0.0
H2248 H 0.13587 0.73298 0.38852 0.0
H2249 H 0.13912 0.77389 0.40152 0.0
H2250 H 0.14704 0.77645 0.54013 0.0
H2251 H 0.15261 0.76696 0.6569 0.0
H2252 H 0.14801 0.7254 0.64936 0.0
H2253 H 0.14133 0.72326 0.50804 0.0
C2254 C 0.13853 0.74252 0.42167 0.0
C2255 C 0.1372 0.75337 0.38514 0.0
C2256 C 0.14288 0.7438 0.50157 0.0
C2257 C 0.14016 0.76547 0.42885 0.0
C2258 C 0.14472 0.76694 0.50773 0.0
C2259 C 0.15036 0.75749 0.62427 0.0
C2260 C 0.15098 0.74642 0.66319 0.0
C2261 C 0.14612 0.75618 0.54453 0.0
C2262 C 0.1477 0.7341 0.62041 0.0
C2263 C 0.14383 0.73287 0.53987 0.0
H2264 H 0.2739 0.40379 0.68638 0.0
H2265 H 0.24991 0.425 0.65457 0.0
H2266 H 0.24583 0.41775 0.51472 0.0
H2267 H 0.24725 0.40358 0.40525 0.0
H2268 H 0.27094 0.38208 0.43791 0.0
H2269 H 0.27654 0.39085 0.57453 0.0
C2270 C 0.26806 0.40712 0.64846 0.0
C2271 C 0.26226 0.41498 0.68088 0.0
C2272 C 0.26539 0.40255 0.56875 0.0
C2273 C 0.25452 0.41898 0.63107 0.0
C2274 C 0.25208 0.41475 0.55123 0.0
C2275 C 0.25393 0.40109 0.44141 0.0
C2276 C 0.25883 0.39234 0.41076 0.0
C2277 C 0.25719 0.40625 0.51992 0.0
C2278 C 0.26699 0.38876 0.45997 0.0
C2279 C 0.27029 0.39386 0.53799 0.0
H2280 H 0.83472 0.75324 0.94715 0.0
H2281 H 0.79153 0.73378 0.02851 0.0
H2282 H 0.78322 0.72187 0.90077 0.0
H2283 H 0.78826 0.71603 0.76935 0.0
H2284 H 0.83128 0.73821 0.68228 0.0
H2285 H 0.83951 0.74927 0.80966 0.0
C2286 C 0.82348 0.74659 0.93624 0.0
C2287 C 0.81379 0.74439 0.997 0.0
C2288 C 0.81873 0.73978 0.86264 0.0
C2289 C 0.79924 0.73579 0.98232 0.0
C2290 C 0.79446 0.7288 0.90968 0.0
C2291 C 0.79948 0.7232 0.77781 0.0
C2292 C 0.80905 0.72553 0.71562 0.0
C2293 C 0.80415 0.73052 0.85004 0.0
C2294 C 0.8235 0.73522 0.72842 0.0
C2295 C 0.82831 0.74199 0.80163 0.0
H2296 H 0.2817 0.08483 0.08138 0.0
H2297 H 0.23832 0.05654 0.01407 0.0
H2298 H 0.24542 0.05888 0.87349 0.0
H2299 H 0.2642 0.06864 0.77089 0.0
H2300 H 0.30725 0.0974 0.84101 0.0
H2301 H 0.29999 0.09504 0.98057 0.0
C2302 C 0.27373 0.07911 0.03626 0.0
C2303 C 0.25949 0.07044 0.05826 0.0
C2304 C 0.27785 0.08059 0.95637 0.0
C2305 C 0.24934 0.06327 -0.00133 0.0
C2306 C 0.25341 0.06459 0.91845 0.0
C2307 C 0.27191 0.07463 0.81667 0.0
C2308 C 0.28618 0.08349 0.79588 0.0
C2309 C 0.26764 0.07323 0.89672 0.0
C2310 C 0.2962 0.09066 0.85583 0.0
C2311 C 0.29206 0.08929 0.93541 0.0
H2312 H 0.93635 0.216 0.80906 0.0
H2313 H 0.90098 0.17449 0.76366 0.0
H2314 H 0.90429 0.16636 0.89369 0.0
H2315 H 0.91626 0.1716 0.02286 0.0
H2316 H 0.95165 0.21325 0.06864 0.0
H2317 H 0.94964 0.22067 0.93443 0.0
C2318 C 0.92936 0.20521 0.82819 0.0
C2319 C 0.91832 0.19587 0.77834 0.0
C2320 C 0.93147 0.2006 0.90215 0.0
C2321 C 0.90948 0.18183 0.80203 0.0
C2322 C 0.91141 0.17718 0.87593 0.0
C2323 C 0.92373 0.18222 0.00309 0.0
C2324 C 0.93396 0.19191 0.05609 0.0
C2325 C 0.92229 0.18653 0.92675 0.0
C2326 C 0.94361 0.2056 0.02919 0.0
C2327 C 0.94239 0.2099 0.95273 0.0
H2328 H 0.06782 0.4656 0.58615 0.0
H2329 H 0.08143 0.50975 0.61897 0.0
H2330 H 0.07472 0.50545 0.75958 0.0
H2331 H 0.06295 0.48874 0.86921 0.0
H2332 H 0.04868 0.4445 0.83481 0.0
H2333 H 0.05727 0.44917 0.69752 0.0
C2334 C 0.06961 0.47435 0.62437 0.0
C2335 C 0.07514 0.48799 0.59223 0.0
C2336 C 0.0653 0.47172 0.70423 0.0
C2337 C 0.07721 0.49916 0.64239 0.0
C2338 C 0.07328 0.49669 0.72258 0.0
C2339 C 0.06202 0.48018 0.83232 0.0
C2340 C 0.05538 0.46633 0.86241 0.0
C2341 C 0.067 0.48295 0.75359 0.0
C2342 C 0.05374 0.45526 0.81283 0.0
C2343 C 0.05873 0.45793 0.73458 0.0
H2344 H 0.54198 0.60529 0.62661 0.0
H2345 H 0.49707 0.57831 0.66011 0.0
H2346 H 0.50091 0.57557 0.80106 0.0
H2347 H 0.51721 0.57893 0.91061 0.0
H2348 H 0.56212 0.60518 0.87516 0.0
H2349 H 0.55811 0.60976 0.73784 0.0
C2350 C 0.53298 0.59904 0.66499 0.0
C2351 C 0.51925 0.592 0.63292 0.0
C2352 C 0.5353 0.59712 0.74501 0.0
C2353 C 0.50774 0.58384 0.68341 0.0
C2354 C 0.50994 0.58219 0.76381 0.0
C2355 C 0.52609 0.58592 0.87351 0.0
C2356 C 0.53993 0.59187 0.90324 0.0
C2357 C 0.5237 0.58848 0.79468 0.0
C2358 C 0.55137 0.60046 0.85342 0.0
C2359 C 0.54908 0.60315 0.77515 0.0
H2360 H 0.40005 0.93173 0.94417 0.0
H2361 H 0.44218 0.96755 0.92735 0.0
H2362 H 0.44365 0.96177 0.78815 0.0
H2363 H 0.43296 0.9469 0.67215 0.0
H2364 H 0.39026 0.91184 0.68298 0.0
H2365 H 0.38905 0.91675 0.82489 0.0
C2366 C 0.4096 0.93809 0.91013 0.0
C2367 C 0.42111 0.94989 0.94578 0.0
C2368 C 0.41026 0.93481 0.82975 0.0
C2369 C 0.43325 0.9584 0.90077 0.0
C2370 C 0.4341 0.95507 0.82151 0.0
C2371 C 0.42341 0.94017 0.70555 0.0
C2372 C 0.41176 0.92888 0.66744 0.0
C2373 C 0.42268 0.94332 0.78558 0.0
C2374 C 0.39939 0.92052 0.71127 0.0
C2375 C 0.3987 0.92336 0.79216 0.0
H2376 H 0.54108 0.93754 0.60526 0.0
H2377 H 0.49598 0.91823 0.63688 0.0
H2378 H 0.49947 0.92502 0.77753 0.0
H2379 H 0.51545 0.93853 0.88718 0.0
H2380 H 0.56053 0.9584 0.85378 0.0
H2381 H 0.55692 0.94969 0.71682 0.0
C2382 C 0.53197 0.93454 0.64315 0.0
C2383 C 0.51828 0.92741 0.61056 0.0
C2384 C 0.53408 0.93888 0.72303 0.0
C2385 C 0.50663 0.92373 0.66051 0.0
C2386 C 0.50862 0.9277 0.74076 0.0
C2387 C 0.52447 0.94066 0.85067 0.0
C2388 C 0.53823 0.94894 0.8809 0.0
C2389 C 0.52232 0.9356 0.77206 0.0
C2390 C 0.54983 0.95208 0.8317 0.0
C2391 C 0.54778 0.94703 0.75362 0.0
H2392 H 0.05321 0.60103 0.85659 0.0
H2393 H 0.05647 0.56402 0.9037 0.0
H2394 H 0.06726 0.56614 0.77284 0.0
H2395 H 0.07463 0.57783 0.64351 0.0
H2396 H 0.07149 0.61497 0.59551 0.0
H2397 H 0.06226 0.61382 0.7296 0.0
C2398 C 0.05622 0.59341 0.83754 0.0
C2399 C 0.05392 0.58227 0.88827 0.0
C2400 C 0.06264 0.59487 0.76307 0.0
C2401 C 0.05809 0.5726 0.86465 0.0
C2402 C 0.06431 0.57386 0.79031 0.0
C2403 C 0.07215 0.58582 0.66271 0.0
C2404 C 0.0736 0.59637 0.60932 0.0
C2405 C 0.06655 0.5849 0.73893 0.0
C2406 C 0.07047 0.60673 0.63543 0.0
C2407 C 0.06504 0.60599 0.71179 0.0
H2408 H 0.40727 0.48256 0.93692 0.0
H2409 H 0.4297 0.46088 0.87094 0.0
H2410 H 0.42574 0.46346 0.73057 0.0
H2411 H 0.41647 0.47232 0.62647 0.0
H2412 H 0.39665 0.49648 0.69033 0.0
H2413 H 0.39941 0.49288 0.83257 0.0
C2414 C 0.41182 0.47887 0.89257 0.0
C2415 C 0.41919 0.47189 0.91544 0.0
C2416 C 0.40987 0.48076 0.81153 0.0
C2417 C 0.42411 0.46641 0.85559 0.0
C2418 C 0.42186 0.46788 0.77513 0.0
C2419 C 0.41263 0.47667 0.67175 0.0
C2420 C 0.40611 0.48439 0.64874 0.0
C2421 C 0.41477 0.47503 0.75252 0.0
C2422 C 0.40153 0.49035 0.70726 0.0
C2423 C 0.40316 0.48832 0.78824 0.0
H2424 H 0.27179 0.20733 0.02136 0.0
H2425 H 0.25412 0.16235 0.99379 0.0
H2426 H 0.26171 0.1657 0.85467 0.0
H2427 H 0.27504 0.18154 0.74451 0.0
H2428 H 0.2929 0.22653 0.77233 0.0
H2429 H 0.28399 0.22307 0.90875 0.0
C2430 C 0.2693 0.19823 0.98446 0.0
C2431 C 0.26233 0.1846 0.01784 0.0
C2432 C 0.27404 0.20026 0.90516 0.0
C2433 C 0.25942 0.17295 0.96944 0.0
C2434 C 0.26385 0.17486 0.89006 0.0
C2435 C 0.27671 0.19056 0.77966 0.0
C2436 C 0.28443 0.20425 0.74775 0.0
C2437 C 0.27143 0.18849 0.85781 0.0
C2438 C 0.287 0.21587 0.79551 0.0
C2439 C 0.28182 0.2139 0.87333 0.0
H2440 H 0.8002 0.06729 0.05555 0.0
H2441 H 0.8443 0.09794 0.02225 0.0
H2442 H 0.8399 0.10026 0.88161 0.0
H2443 H 0.82315 0.09515 0.77184 0.0
H2444 H 0.77895 0.06509 0.80662 0.0
H2445 H 0.7837 0.06131 0.94412 0.0
C2446 C 0.80892 0.07424 0.01717 0.0
C2447 C 0.82258 0.08238 0.04914 0.0
C2448 C 0.80623 0.07588 0.93725 0.0
C2449 C 0.8337 0.09153 -0.00111 0.0
C2450 C 0.83117 0.09294 0.91869 0.0
C2451 C 0.81461 0.08753 0.80886 0.0
C2452 C 0.80076 0.08024 0.77874 0.0
C2453 C 0.81742 0.08541 0.88774 0.0
C2454 C 0.78971 0.07083 0.82855 0.0
C2455 C 0.79243 0.0686 0.90695 0.0
H2456 H 0.93964 0.73703 0.01786 0.0
H2457 H 0.91477 0.75722 0.9829 0.0
H2458 H 0.9115 0.75034 0.84236 0.0
H2459 H 0.91389 0.73671 0.73307 0.0
H2460 H 0.93816 0.71592 0.76926 0.0
H2461 H 0.94313 0.72455 0.90647 0.0
C2462 C 0.93379 0.74022 0.97911 0.0
C2463 C 0.92752 0.74771 0.01072 0.0
C2464 C 0.93157 0.73583 0.89906 0.0
C2465 C 0.91974 0.75151 0.95993 0.0
C2466 C 0.91779 0.74749 0.87972 0.0
C2467 C 0.92055 0.73436 0.7702 0.0
C2468 C 0.92581 0.72585 0.74044 0.0
C2469 C 0.92337 0.73936 0.84911 0.0
C2470 C 0.93396 0.72243 0.79071 0.0
C2471 C 0.93688 0.72743 0.86905 0.0
H2472 H 0.46677 0.06726 0.37982 0.0
H2473 H 0.51136 0.08322 0.34703 0.0
H2474 H 0.50733 0.07627 0.20661 0.0
H2475 H 0.49088 0.06381 0.09662 0.0
H2476 H 0.44621 0.0472 0.13059 0.0
H2477 H 0.45047 0.05586 0.26784 0.0
C2478 C 0.47565 0.06953 0.3415 0.0
C2479 C 0.48937 0.07585 0.37364 0.0
C2480 C 0.47319 0.06508 0.26154 0.0
C2481 C 0.50071 0.07843 0.32356 0.0
C2482 C 0.4984 0.07437 0.24344 0.0
C2483 C 0.48211 0.06237 0.13336 0.0
C2484 C 0.46827 0.05505 0.10292 0.0
C2485 C 0.48464 0.0674 0.21225 0.0
C2486 C 0.45697 0.05278 0.15259 0.0
C2487 C 0.4594 0.05781 0.23093 0.0
H2488 H 0.93165 0.42772 0.32581 0.0
H2489 H 0.93189 0.38903 0.37361 0.0
H2490 H 0.94072 0.38947 0.23935 0.0
H2491 H 0.95035 0.40202 0.11247 0.0
H2492 H 0.94989 0.44053 0.06512 0.0
H2493 H 0.93944 0.4392 0.19621 0.0
C2494 C 0.93341 0.41925 0.30651 0.0
C2495 C 0.9313 0.40847 0.3599 0.0
C2496 C 0.93878 0.41975 0.23019 0.0
C2497 C 0.93347 0.39748 0.33369 0.0
C2498 C 0.93866 0.3978 0.25725 0.0
C2499 C 0.94803 0.41013 0.13158 0.0
C2500 C 0.95104 0.42149 0.08093 0.0
C2501 C 0.94177 0.40912 0.20601 0.0
C2502 C 0.94774 0.4318 0.10436 0.0
C2503 C 0.94171 0.43099 0.17875 0.0
H2504 H 0.57981 0.51342 0.10616 0.0
H2505 H 0.60555 0.55846 0.13941 0.0
H2506 H 0.61063 0.5548 0.27629 0.0
H2507 H 0.60677 0.53894 0.38779 0.0
H2508 H 0.58047 0.49388 0.35633 0.0
H2509 H 0.57718 0.4974 0.21574 0.0
C2510 C 0.58681 0.52242 0.14262 0.0
C2511 C 0.59245 0.53618 0.11239 0.0
C2512 C 0.5897 0.52023 0.22117 0.0
C2513 C 0.60105 0.54776 0.16151 0.0
C2514 C 0.60404 0.54568 0.23953 0.0
C2515 C 0.60055 0.52984 0.34996 0.0
C2516 C 0.59384 0.51616 0.38258 0.0
C2517 C 0.59832 0.53197 0.27013 0.0
C2518 C 0.58574 0.50452 0.33268 0.0
C2519 C 0.58377 0.50653 0.25247 0.0
H2520 H 0.74448 0.81407 0.26819 0.0
H2521 H 0.70025 0.79227 0.20438 0.0
H2522 H 0.70655 0.7954 0.06361 0.0
H2523 H 0.72442 0.80434 0.95924 0.0
H2524 H 0.76859 0.82833 0.02042 0.0
H2525 H 0.7625 0.82474 0.16308 0.0
C2526 C 0.73618 0.81047 0.22408 0.0
C2527 C 0.72187 0.80328 0.24734 0.0
C2528 C 0.73987 0.81262 0.14307 0.0
C2529 C 0.71133 0.79793 0.18831 0.0
C2530 C 0.71491 0.79971 0.10779 0.0
C2531 C 0.73272 0.80871 0.00397 0.0
C2532 C 0.74692 0.81634 0.98029 0.0
C2533 C 0.72912 0.80699 0.08468 0.0
C2534 C 0.7576 0.8223 0.03803 0.0
C2535 C 0.7541 0.82025 0.11916 0.0
H2536 H 0.21196 0.92026 0.22221 0.0
H2537 H 0.18289 0.93023 0.33961 0.0
H2538 H 0.17581 0.93517 0.21269 0.0
H2539 H 0.17762 0.9364 0.06589 0.0
H2540 H 0.21057 0.93192 0.95305 0.0
H2541 H 0.21677 0.92564 0.08019 0.0
C2542 C 0.20402 0.92345 0.22012 0.0
C2543 C 0.19704 0.92353 0.29013 0.0
C2544 C 0.20091 0.92759 0.14743 0.0
C2545 C 0.18738 0.92849 0.28655 0.0
C2546 C 0.18362 0.93182 0.21377 0.0
C2547 C 0.18629 0.93427 0.06984 0.0
C2548 C 0.1935 0.9344 0.00079 0.0
C2549 C 0.19019 0.93123 0.14364 0.0
C2550 C 0.20484 0.9318 0.00594 0.0
C2551 C 0.20835 0.92815 0.0784 0.0
H2552 H 0.09559 0.27315 0.24119 0.0
H2553 H 0.06706 0.28915 0.20569 0.0
H2554 H 0.06298 0.28061 0.06819 0.0
H2555 H 0.06837 0.26962 0.95689 0.0
H2556 H 0.09755 0.25432 0.99077 0.0
H2557 H 0.10003 0.26099 0.13157 0.0
C2558 C 0.08823 0.27447 0.20402 0.0
C2559 C 0.08147 0.28158 0.23389 0.0
C2560 C 0.08595 0.26954 0.12511 0.0
C2561 C 0.0724 0.28372 0.18392 0.0
C2562 C 0.06999 0.27877 0.10553 0.0
C2563 C 0.07503 0.26745 0.9954 0.0
C2564 C 0.08274 0.26144 0.96353 0.0
C2565 C 0.07678 0.27174 0.07539 0.0
C2566 C 0.09149 0.25891 0.01401 0.0
C2567 C 0.09299 0.26281 0.09431 0.0
H2568 H 0.20514 0.26826 0.26431 0.0
H2569 H 0.1962 0.30236 0.24624 0.0
H2570 H 0.18933 0.29636 0.10669 0.0
H2571 H 0.18629 0.28184 0.99079 0.0
H2572 H 0.19659 0.24859 0.00267 0.0
H2573 H 0.20229 0.25363 0.145 0.0
C2574 C 0.20146 0.27418 0.22987 0.0
C2575 C 0.20089 0.28556 0.26522 0.0
C2576 C 0.19776 0.2708 0.1493 0.0
C2577 C 0.19663 0.29354 0.21984 0.0
C2578 C 0.19268 0.29008 0.1404 0.0
C2579 C 0.1896 0.27552 0.02446 0.0
C2580 C 0.19084 0.26471 0.98656 0.0
C2581 C 0.19322 0.27876 0.10469 0.0
C2582 C 0.19547 0.25689 0.0308 0.0
C2583 C 0.19875 0.2598 0.11192 0.0
H2584 H 0.74257 0.93102 0.21971 0.0
H2585 H 0.69833 0.90754 0.15693 0.0
H2586 H 0.70457 0.90969 0.01622 0.0
H2587 H 0.72242 0.91807 0.91142 0.0
H2588 H 0.76662 0.93936 0.97254 0.0
H2589 H 0.76057 0.93782 0.11499 0.0
C2590 C 0.73426 0.92588 0.17605 0.0
C2591 C 0.71996 0.91876 0.19961 0.0
C2592 C 0.73792 0.92684 0.09514 0.0
C2593 C 0.7094 0.913 0.14075 0.0
C2594 C 0.71295 0.9142 0.06023 0.0
C2595 C 0.73072 0.92241 0.95617 0.0
C2596 C 0.74492 0.92901 0.9325 0.0
C2597 C 0.72714 0.92111 0.03691 0.0
C2598 C 0.75563 0.93434 0.99017 0.0
C2599 C 0.75215 0.93344 0.07118 0.0
H2600 H 0.07944 0.80292 0.95213 0.0
H2601 H 0.07225 0.83692 0.01736 0.0
H2602 H 0.07405 0.83237 0.15927 0.0
H2603 H 0.07749 0.8185 0.26329 0.0
H2604 H 0.08756 0.78643 0.19574 0.0
H2605 H 0.08445 0.79019 0.05546 0.0
C2606 C 0.0781 0.80921 0.99764 0.0
C2607 C 0.07541 0.82002 0.9751 0.0
C2608 C 0.07976 0.80692 0.07814 0.0
C2609 C 0.07413 0.82842 0.03391 0.0
C2610 C 0.07522 0.82585 0.11471 0.0
C2611 C 0.07959 0.81271 0.2182 0.0
C2612 C 0.08326 0.80251 0.24035 0.0
C2613 C 0.07815 0.81519 0.13744 0.0
C2614 C 0.08492 0.79446 0.18047 0.0
C2615 C 0.08313 0.79659 0.10024 0.0
H2616 H 0.94299 0.51571 0.115 0.0
H2617 H 0.9599 0.56044 0.14882 0.0
H2618 H 0.95122 0.55628 0.28586 0.0
H2619 H 0.93968 0.54007 0.39728 0.0
H2620 H 0.92322 0.49536 0.36462 0.0
H2621 H 0.93027 0.49932 0.22444 0.0
C2622 C 0.94448 0.52451 0.15159 0.0
C2623 C 0.95189 0.53834 0.12127 0.0
C2624 C 0.93939 0.52204 0.23022 0.0
C2625 C 0.95424 0.54969 0.17079 0.0
C2626 C 0.9492 0.54732 0.24897 0.0
C2627 C 0.93733 0.53114 0.35913 0.0
C2628 C 0.93088 0.51743 0.39126 0.0
C2629 C 0.94181 0.53354 0.2794 0.0
C2630 C 0.92814 0.50602 0.34123 0.0
C2631 C 0.93226 0.50828 0.26126 0.0
H2632 H 0.49352 0.42361 0.04031 0.0
H2633 H 0.4484 0.39859 0.07261 0.0
H2634 H 0.45186 0.39327 0.20935 0.0
H2635 H 0.46763 0.39657 0.32132 0.0
H2636 H 0.51275 0.422 0.29005 0.0
H2637 H 0.50937 0.42576 0.15001 0.0
C2638 C 0.48445 0.41672 0.07649 0.0
C2639 C 0.47073 0.41134 0.04578 0.0
C2640 C 0.48651 0.41365 0.15502 0.0
C2641 C 0.45908 0.4029 0.09483 0.0
C2642 C 0.46104 0.39977 0.17287 0.0
C2643 C 0.47675 0.40266 0.28348 0.0
C2644 C 0.49043 0.40896 0.31605 0.0
C2645 C 0.47471 0.40515 0.20374 0.0
C2646 C 0.50211 0.41701 0.26638 0.0
C2647 C 0.50018 0.41926 0.18646 0.0
H2648 H 0.60788 0.06665 0.36617 0.0
H2649 H 0.58864 0.09255 0.33656 0.0
H2650 H 0.5839 0.0856 0.19641 0.0
H2651 H 0.58306 0.07029 0.08671 0.0
H2652 H 0.60189 0.04408 0.1181 0.0
H2653 H 0.60848 0.05267 0.25439 0.0
C2654 C 0.6029 0.07102 0.32884 0.0
C2655 C 0.59858 0.08008 0.36199 0.0
C2656 C 0.59981 0.06665 0.24918 0.0
C2657 C 0.59207 0.08555 0.31261 0.0
C2658 C 0.58925 0.0815 0.23261 0.0
C2659 C 0.58892 0.06673 0.12251 0.0
C2660 C 0.59213 0.05669 0.09178 0.0
C2661 C 0.59274 0.07176 0.20086 0.0
C2662 C 0.59924 0.05177 0.14038 0.0
C2663 C 0.6031 0.05674 0.21816 0.0
loop_
_geom_bond_atom_site_label_1
_geom_bond_atom_site_label_2
_geom_bond_distance
_geom_bond_site_symmetry_2
_ccdc_geom_bond_type
Co0 O3 1.970 . S
Co0 N17 1.989 . S
Co0 O25 1.967 . S
Co0 O32 1.920 . S
Co1 O4 1.966 . S
Co1 N10 2.022 . S
Co1 N18 1.993 . S
Co1 O26 1.941 . S
C2 O3 1.258 1_554 S
C2 O4 1.263 . S
O3 Co0 1.970 . S
O3 C2 1.258 1_556 S
O4 Co1 1.966 . S
O4 C2 1.263 . S
C5 O6 1.235 . S
C5 O32 1.289 . S
O6 C5 1.235 . S
C7 C9 1.400 . S
C7 N10 1.351 . S
C7 C12 1.501 . S
C8 C9 1.387 . S
C8 N11 1.341 . S
C9 C7 1.400 . S
C9 C8 1.387 . S
N10 Co1 2.022 . S
N10 C7 1.351 . S
N10 N11 1.365 . S
N11 C8 1.341 . S
N11 N10 1.365 . S
N11 H31 0.862 . S
C12 C7 1.501 . S
C12 H13 0.961 . S
C12 H14 0.961 . S
C12 H15 0.960 . S
H13 C12 0.961 . S
H14 C12 0.961 . S
H15 C12 0.960 . S
C16 N17 1.342 . S
C16 C20 1.401 1_556 S
C16 C21 1.499 . S
N17 Co0 1.989 . S
N17 C16 1.342 . S
N17 N18 1.388 1_556 S
N18 Co1 1.993 . S
N18 N17 1.388 1_554 S
N18 C19 1.346 . S
C19 N18 1.346 . S
C19 C20 1.396 . S
C19 C29 1.510 . S
C20 C16 1.401 1_554 S
C20 C19 1.396 . S
C21 C16 1.499 . S
C21 H22 0.959 . S
C21 H23 0.960 . S
C21 H24 0.961 . S
H22 C21 0.959 . S
H23 C21 0.960 . S
H24 C21 0.961 . S
O25 Co0 1.967 . S
O25 C33 1.258 . S
O26 Co1 1.941 . S
O26 C33 1.266 1_554 S
H27 C29 0.959 . S
H28 C29 0.961 . S
C29 C19 1.510 . S
C29 H27 0.959 . S
C29 H28 0.961 . S
C29 H30 0.960 . S
H30 C29 0.960 . S
H31 N11 0.862 . S
O32 Co0 1.920 . S
O32 C5 1.289 . S
C33 O25 1.258 . S
C33 O26 1.266 1_556 S
Co34 O37 1.970 . S
Co34 N51 1.989 . S
Co34 O59 1.967 . S
Co34 O66 1.920 . S
Co35 O38 1.966 . S
Co35 N44 2.022 . S
Co35 N52 1.993 . S
Co35 O60 1.941 . S
C36 O37 1.258 1_554 S
C36 O38 1.263 . S
O37 Co34 1.970 . S
O37 C36 1.258 1_556 S
O38 Co35 1.966 . S
O38 C36 1.263 . S
C39 O40 1.235 . S
C39 O66 1.289 . S
O40 C39 1.235 . S
C41 C43 1.400 . S
C41 N44 1.351 . S
C41 C46 1.501 . S
C42 C43 1.387 . S
C42 N45 1.341 . S
C43 C41 1.400 . S
C43 C42 1.387 . S
N44 Co35 2.022 . S
N44 C41 1.351 . S
N44 N45 1.365 . S
N45 C42 1.341 . S
N45 N44 1.365 . S
N45 H65 0.862 . S
C46 C41 1.501 . S
C46 H47 0.961 . S
C46 H48 0.961 . S
C46 H49 0.960 . S
H47 C46 0.961 . S
H48 C46 0.961 . S
H49 C46 0.960 . S
C50 N51 1.342 . S
C50 C54 1.401 1_556 S
C50 C55 1.499 . S
N51 Co34 1.989 . S
N51 C50 1.342 . S
N51 N52 1.388 1_556 S
N52 Co35 1.993 . S
N52 N51 1.388 1_554 S
N52 C53 1.346 . S
C53 N52 1.346 . S
C53 C54 1.396 . S
C53 C63 1.510 . S
C54 C50 1.401 1_554 S
C54 C53 1.396 . S
C55 C50 1.499 . S
C55 H56 0.959 . S
C55 H57 0.960 . S
C55 H58 0.961 . S
H56 C55 0.959 . S
H57 C55 0.960 . S
H58 C55 0.961 . S
O59 Co34 1.967 . S
O59 C67 1.258 . S
O60 Co35 1.941 . S
O60 C67 1.266 1_554 S
H61 C63 0.959 . S
H62 C63 0.961 . S
C63 C53 1.510 . S
C63 H61 0.959 . S
C63 H62 0.961 . S
C63 H64 0.960 . S
H64 C63 0.960 . S
H65 N45 0.862 . S
O66 Co34 1.920 . S
O66 C39 1.289 . S
C67 O59 1.258 . S
C67 O60 1.266 1_556 S
Co68 O71 1.970 . S
Co68 N85 1.989 . S
Co68 O93 1.967 . S
Co68 O100 1.920 . S
Co69 O72 1.966 . S
Co69 N78 2.022 . S
Co69 N86 1.993 . S
Co69 O94 1.941 . S
C70 O71 1.258 1_554 S
C70 O72 1.263 . S
O71 Co68 1.970 . S
O71 C70 1.258 1_556 S
O72 Co69 1.966 . S
O72 C70 1.263 . S
C73 O74 1.235 . S
C73 O100 1.289 . S
O74 C73 1.235 . S
C75 C77 1.400 . S
C75 N78 1.351 . S
C75 C80 1.501 . S
C76 C77 1.387 . S
C76 N79 1.341 . S
C77 C75 1.400 . S
C77 C76 1.387 . S
N78 Co69 2.022 . S
N78 C75 1.351 . S
N78 N79 1.365 . S
N79 C76 1.341 . S
N79 N78 1.365 . S
N79 H99 0.862 . S
C80 C75 1.501 . S
C80 H81 0.961 . S
C80 H82 0.961 . S
C80 H83 0.960 . S
H81 C80 0.961 . S
H82 C80 0.961 . S
H83 C80 0.960 . S
C84 N85 1.342 . S
C84 C88 1.401 1_556 S
C84 C89 1.499 . S
N85 Co68 1.989 . S
N85 C84 1.342 . S
N85 N86 1.388 1_556 S
N86 Co69 1.993 . S
N86 N85 1.388 1_554 S
N86 C87 1.346 . S
C87 N86 1.346 . S
C87 C88 1.396 . S
C87 C97 1.510 . S
C88 C84 1.401 1_554 S
C88 C87 1.396 . S
C89 C84 1.499 . S
C89 H90 0.959 . S
C89 H91 0.960 . S
C89 H92 0.961 . S
H90 C89 0.959 . S
H91 C89 0.960 . S
H92 C89 0.961 . S
O93 Co68 1.967 . S
O93 C101 1.258 . S
O94 Co69 1.941 . S
O94 C101 1.266 1_554 S
H95 C97 0.959 . S
H96 C97 0.961 . S
C97 C87 1.510 . S
C97 H95 0.959 . S
C97 H96 0.961 . S
C97 H98 0.960 . S
H98 C97 0.960 . S
H99 N79 0.862 . S
O100 Co68 1.920 . S
O100 C73 1.289 . S
C101 O93 1.258 . S
C101 O94 1.266 1_556 S
Co102 O105 1.970 . S
Co102 N119 1.989 . S
Co102 O127 1.967 . S
Co102 O134 1.920 . S
Co103 O106 1.966 . S
Co103 N112 2.022 . S
Co103 N120 1.993 . S
Co103 O128 1.941 . S
C104 O105 1.258 1_556 S
C104 O106 1.263 . S
O105 Co102 1.970 . S
O105 C104 1.258 1_554 S
O106 Co103 1.966 . S
O106 C104 1.263 . S
C107 O108 1.235 . S
C107 O134 1.289 . S
O108 C107 1.235 . S
C109 C111 1.400 . S
C109 N112 1.351 . S
C109 C114 1.501 . S
C110 C111 1.387 . S
C110 N113 1.341 . S
C111 C109 1.400 . S
C111 C110 1.387 . S
N112 Co103 2.022 . S
N112 C109 1.351 . S
N112 N113 1.365 . S
N113 C110 1.341 . S
N113 N112 1.365 . S
N113 H133 0.862 . S
C114 C109 1.501 . S
C114 H115 0.961 . S
C114 H116 0.961 . S
C114 H117 0.960 . S
H115 C114 0.961 . S
H116 C114 0.961 . S
H117 C114 0.960 . S
C118 N119 1.342 . S
C118 C122 1.401 1_554 S
C118 C123 1.499 . S
N119 Co102 1.989 . S
N119 C118 1.342 . S
N119 N120 1.388 1_554 S
N120 Co103 1.993 . S
N120 N119 1.388 1_556 S
N120 C121 1.346 . S
C121 N120 1.346 . S
C121 C122 1.396 . S
C121 C131 1.510 . S
C122 C118 1.401 1_556 S
C122 C121 1.396 . S
C123 C118 1.499 . S
C123 H124 0.959 . S
C123 H125 0.960 . S
C123 H126 0.961 . S
H124 C123 0.959 . S
H125 C123 0.960 . S
H126 C123 0.961 . S
O127 Co102 1.967 . S
O127 C135 1.258 . S
O128 Co103 1.941 . S
O128 C135 1.266 1_556 S
H129 C131 0.959 . S
H130 C131 0.961 . S
C131 C121 1.510 . S
C131 H129 0.959 . S
C131 H130 0.961 . S
C131 H132 0.960 . S
H132 C131 0.960 . S
H133 N113 0.862 . S
O134 Co102 1.920 . S
O134 C107 1.289 . S
C135 O127 1.258 . S
C135 O128 1.266 1_554 S
Co136 O139 1.970 . S
Co136 N153 1.989 . S
Co136 O161 1.967 . S
Co136 O168 1.920 . S
Co137 O140 1.966 . S
Co137 N146 2.022 . S
Co137 N154 1.993 . S
Co137 O162 1.941 . S
C138 O139 1.258 1_556 S
C138 O140 1.263 . S
O139 Co136 1.970 . S
O139 C138 1.258 1_554 S
O140 Co137 1.966 . S
O140 C138 1.263 . S
C141 O142 1.235 . S
C141 O168 1.289 . S
O142 C141 1.235 . S
C143 C145 1.400 . S
C143 N146 1.351 . S
C143 C148 1.501 . S
C144 C145 1.387 . S
C144 N147 1.341 . S
C145 C143 1.400 . S
C145 C144 1.387 . S
N146 Co137 2.022 . S
N146 C143 1.351 . S
N146 N147 1.365 . S
N147 C144 1.341 . S
N147 N146 1.365 . S
N147 H167 0.862 . S
C148 C143 1.501 . S
C148 H149 0.961 . S
C148 H150 0.961 . S
C148 H151 0.960 . S
H149 C148 0.961 . S
H150 C148 0.961 . S
H151 C148 0.960 . S
C152 N153 1.342 . S
C152 C156 1.401 1_554 S
C152 C157 1.499 . S
N153 Co136 1.989 . S
N153 C152 1.342 . S
N153 N154 1.388 1_554 S
N154 Co137 1.993 . S
N154 N153 1.388 1_556 S
N154 C155 1.346 . S
C155 N154 1.346 . S
C155 C156 1.396 . S
C155 C165 1.510 . S
C156 C152 1.401 1_556 S
C156 C155 1.396 . S
C157 C152 1.499 . S
C157 H158 0.959 . S
C157 H159 0.960 . S
C157 H160 0.961 . S
H158 C157 0.959 . S
H159 C157 0.960 . S
H160 C157 0.961 . S
O161 Co136 1.967 . S
O161 C169 1.258 . S
O162 Co137 1.941 . S
O162 C169 1.266 1_556 S
H163 C165 0.959 . S
H164 C165 0.961 . S
C165 C155 1.510 . S
C165 H163 0.959 . S
C165 H164 0.961 . S
C165 H166 0.960 . S
H166 C165 0.960 . S
H167 N147 0.862 . S
O168 Co136 1.920 . S
O168 C141 1.289 . S
C169 O161 1.258 . S
C169 O162 1.266 1_554 S
Co170 O173 1.970 . S
Co170 N187 1.989 . S
Co170 O195 1.967 . S
Co170 O202 1.920 . S
Co171 O174 1.966 . S
Co171 N180 2.022 . S
Co171 N188 1.993 . S
Co171 O196 1.941 . S
C172 O173 1.258 1_556 S
C172 O174 1.263 . S
O173 Co170 1.970 . S
O173 C172 1.258 1_554 S
O174 Co171 1.966 . S
O174 C172 1.263 . S
C175 O176 1.235 . S
C175 O202 1.289 . S
O176 C175 1.235 . S
C177 C179 1.400 . S
C177 N180 1.351 . S
C177 C182 1.501 . S
C178 C179 1.387 . S
C178 N181 1.341 . S
C179 C177 1.400 . S
C179 C178 1.387 . S
N180 Co171 2.022 . S
N180 C177 1.351 . S
N180 N181 1.365 . S
N181 C178 1.341 . S
N181 N180 1.365 . S
N181 H201 0.862 . S
C182 C177 1.501 . S
C182 H183 0.961 . S
C182 H184 0.961 . S
C182 H185 0.960 . S
H183 C182 0.961 . S
H184 C182 0.961 . S
H185 C182 0.960 . S
C186 N187 1.342 . S
C186 C190 1.401 1_554 S
C186 C191 1.499 . S
N187 Co170 1.989 . S
N187 C186 1.342 . S
N187 N188 1.388 1_554 S
N188 Co171 1.993 . S
N188 N187 1.388 1_556 S
N188 C189 1.346 . S
C189 N188 1.346 . S
C189 C190 1.396 . S
C189 C199 1.510 . S
C190 C186 1.401 1_556 S
C190 C189 1.396 . S
C191 C186 1.499 . S
C191 H192 0.959 . S
C191 H193 0.960 . S
C191 H194 0.961 . S
H192 C191 0.959 . S
H193 C191 0.960 . S
H194 C191 0.961 . S
O195 Co170 1.967 . S
O195 C203 1.258 . S
O196 Co171 1.941 . S
O196 C203 1.266 1_556 S
H197 C199 0.959 . S
H198 C199 0.961 . S
C199 C189 1.510 . S
C199 H197 0.959 . S
C199 H198 0.961 . S
C199 H200 0.960 . S
H200 C199 0.960 . S
H201 N181 0.862 . S
O202 Co170 1.920 . S
O202 C175 1.289 . S
C203 O195 1.258 . S
C203 O196 1.266 1_554 S
Co204 O207 1.970 . S
Co204 N221 1.989 . S
Co204 O229 1.967 . S
Co204 O236 1.920 . S
Co205 O208 1.966 . S
Co205 N214 2.022 . S
Co205 N222 1.993 . S
Co205 O230 1.941 . S
C206 O207 1.258 1_556 S
C206 O208 1.263 . S
O207 Co204 1.970 . S
O207 C206 1.258 1_554 S
O208 Co205 1.966 . S
O208 C206 1.263 . S
C209 O210 1.235 . S
C209 O236 1.289 . S
O210 C209 1.235 . S
C211 C213 1.400 . S
C211 N214 1.351 . S
C211 C216 1.501 . S
C212 C213 1.387 . S
C212 N215 1.341 . S
C213 C211 1.400 . S
C213 C212 1.387 . S
N214 Co205 2.022 . S
N214 C211 1.351 . S
N214 N215 1.365 . S
N215 C212 1.341 . S
N215 N214 1.365 . S
N215 H235 0.862 . S
C216 C211 1.501 . S
C216 H217 0.961 . S
C216 H218 0.961 . S
C216 H219 0.960 . S
H217 C216 0.961 . S
H218 C216 0.961 . S
H219 C216 0.960 . S
C220 N221 1.342 . S
C220 C224 1.401 1_554 S
C220 C225 1.499 . S
N221 Co204 1.989 . S
N221 C220 1.342 . S
N221 N222 1.388 1_554 S
N222 Co205 1.993 . S
N222 N221 1.388 1_556 S
N222 C223 1.346 . S
C223 N222 1.346 . S
C223 C224 1.396 . S
C223 C233 1.510 . S
C224 C220 1.401 1_556 S
C224 C223 1.396 . S
C225 C220 1.499 . S
C225 H226 0.959 . S
C225 H227 0.960 . S
C225 H228 0.961 . S
H226 C225 0.959 . S
H227 C225 0.960 . S
H228 C225 0.961 . S
O229 Co204 1.967 . S
O229 C237 1.258 . S
O230 Co205 1.941 . S
O230 C237 1.266 1_556 S
H231 C233 0.959 . S
H232 C233 0.961 . S
C233 C223 1.510 . S
C233 H231 0.959 . S
C233 H232 0.961 . S
C233 H234 0.960 . S
H234 C233 0.960 . S
H235 N215 0.862 . S
O236 Co204 1.920 . S
O236 C209 1.289 . S
C237 O229 1.258 . S
C237 O230 1.266 1_554 S
Co238 O241 1.970 . S
Co238 N255 1.989 . S
Co238 O263 1.967 . S
Co238 O270 1.920 . S
Co239 O242 1.966 . S
Co239 N248 2.022 . S
Co239 N256 1.993 . S
Co239 O264 1.941 . S
C240 O241 1.258 1_556 S
C240 O242 1.263 . S
O241 Co238 1.970 . S
O241 C240 1.258 1_554 S
O242 Co239 1.966 . S
O242 C240 1.263 . S
C243 O244 1.235 . S
C243 O270 1.289 . S
O244 C243 1.235 . S
C245 C247 1.400 . S
C245 N248 1.351 . S
C245 C250 1.501 . S
C246 C247 1.387 . S
C246 N249 1.341 . S
C247 C245 1.400 . S
C247 C246 1.387 . S
N248 Co239 2.022 . S
N248 C245 1.351 . S
N248 N249 1.365 . S
N249 C246 1.341 . S
N249 N248 1.365 . S
N249 H269 0.862 . S
C250 C245 1.501 . S
C250 H251 0.961 . S
C250 H252 0.961 . S
C250 H253 0.960 . S
H251 C250 0.961 . S
H252 C250 0.961 . S
H253 C250 0.960 . S
C254 N255 1.342 . S
C254 C258 1.401 1_554 S
C254 C259 1.499 . S
N255 Co238 1.989 . S
N255 C254 1.342 . S
N255 N256 1.388 1_554 S
N256 Co239 1.993 . S
N256 N255 1.388 1_556 S
N256 C257 1.346 . S
C257 N256 1.346 . S
C257 C258 1.396 . S
C257 C267 1.510 . S
C258 C254 1.401 1_556 S
C258 C257 1.396 . S
C259 C254 1.499 . S
C259 H260 0.959 . S
C259 H261 0.960 . S
C259 H262 0.961 . S
H260 C259 0.959 . S
H261 C259 0.960 . S
H262 C259 0.961 . S
O263 Co238 1.967 . S
O263 C271 1.258 . S
O264 Co239 1.941 . S
O264 C271 1.266 1_556 S
H265 C267 0.959 . S
H266 C267 0.961 . S
C267 C257 1.510 . S
C267 H265 0.959 . S
C267 H266 0.961 . S
C267 H268 0.960 . S
H268 C267 0.960 . S
H269 N249 0.862 . S
O270 Co238 1.920 . S
O270 C243 1.289 . S
C271 O263 1.258 . S
C271 O264 1.266 1_554 S
Co272 O275 1.970 . S
Co272 N289 1.989 . S
Co272 O297 1.967 . S
Co272 O304 1.920 . S
Co273 O276 1.966 . S
Co273 N282 2.022 . S
Co273 N290 1.993 . S
Co273 O298 1.941 . S
C274 O275 1.258 1_556 S
C274 O276 1.263 . S
O275 Co272 1.970 . S
O275 C274 1.258 1_554 S
O276 Co273 1.966 . S
O276 C274 1.263 . S
C277 O278 1.235 . S
C277 O304 1.289 . S
O278 C277 1.235 . S
C279 C281 1.400 . S
C279 N282 1.351 . S
C279 C284 1.501 . S
C280 C281 1.387 . S
C280 N283 1.341 . S
C281 C279 1.400 . S
C281 C280 1.387 . S
N282 Co273 2.022 . S
N282 C279 1.351 . S
N282 N283 1.365 . S
N283 C280 1.341 . S
N283 N282 1.365 . S
N283 H303 0.862 . S
C284 C279 1.501 . S
C284 H285 0.961 . S
C284 H286 0.961 . S
C284 H287 0.960 . S
H285 C284 0.961 . S
H286 C284 0.961 . S
H287 C284 0.960 . S
C288 N289 1.342 . S
C288 C292 1.401 1_554 S
C288 C293 1.499 . S
N289 Co272 1.989 . S
N289 C288 1.342 . S
N289 N290 1.388 1_554 S
N290 Co273 1.993 . S
N290 N289 1.388 1_556 S
N290 C291 1.346 . S
C291 N290 1.346 . S
C291 C292 1.396 . S
C291 C301 1.510 . S
C292 C288 1.401 1_556 S
C292 C291 1.396 . S
C293 C288 1.499 . S
C293 H294 0.959 . S
C293 H295 0.960 . S
C293 H296 0.961 . S
H294 C293 0.959 . S
H295 C293 0.960 . S
H296 C293 0.961 . S
O297 Co272 1.967 . S
O297 C305 1.258 . S
O298 Co273 1.941 . S
O298 C305 1.266 1_556 S
H299 C301 0.959 . S
H300 C301 0.961 . S
C301 C291 1.510 . S
C301 H299 0.959 . S
C301 H300 0.961 . S
C301 H302 0.960 . S
H302 C301 0.960 . S
H303 N283 0.862 . S
O304 Co272 1.920 . S
O304 C277 1.289 . S
C305 O297 1.258 . S
C305 O298 1.266 1_554 S
Co306 O309 1.970 . S
Co306 N323 1.989 . S
Co306 O331 1.967 . S
Co306 O338 1.920 . S
Co307 O310 1.966 . S
Co307 N316 2.022 . S
Co307 N324 1.993 . S
Co307 O332 1.941 . S
C308 O309 1.258 1_554 S
C308 O310 1.263 . S
O309 Co306 1.970 . S
O309 C308 1.258 1_556 S
O310 Co307 1.966 . S
O310 C308 1.263 . S
C311 O312 1.235 . S
C311 O338 1.289 . S
O312 C311 1.235 . S
C313 C315 1.400 . S
C313 N316 1.351 . S
C313 C318 1.501 . S
C314 C315 1.387 . S
C314 N317 1.341 . S
C315 C313 1.400 . S
C315 C314 1.387 . S
N316 Co307 2.022 . S
N316 C313 1.351 . S
N316 N317 1.365 . S
N317 C314 1.341 . S
N317 N316 1.365 . S
N317 H337 0.862 . S
C318 C313 1.501 . S
C318 H319 0.961 . S
C318 H320 0.961 . S
C318 H321 0.960 . S
H319 C318 0.961 . S
H320 C318 0.961 . S
H321 C318 0.960 . S
C322 N323 1.342 . S
C322 C326 1.401 1_556 S
C322 C327 1.499 . S
N323 Co306 1.989 . S
N323 C322 1.342 . S
N323 N324 1.388 1_556 S
N324 Co307 1.993 . S
N324 N323 1.388 1_554 S
N324 C325 1.346 . S
C325 N324 1.346 . S
C325 C326 1.396 . S
C325 C335 1.510 . S
C326 C322 1.401 1_554 S
C326 C325 1.396 . S
C327 C322 1.499 . S
C327 H328 0.959 . S
C327 H329 0.960 . S
C327 H330 0.961 . S
H328 C327 0.959 . S
H329 C327 0.960 . S
H330 C327 0.961 . S
O331 Co306 1.967 . S
O331 C339 1.258 . S
O332 Co307 1.941 . S
O332 C339 1.266 1_554 S
H333 C335 0.959 . S
H334 C335 0.961 . S
C335 C325 1.510 . S
C335 H333 0.959 . S
C335 H334 0.961 . S
C335 H336 0.960 . S
H336 C335 0.960 . S
H337 N317 0.862 . S
O338 Co306 1.920 . S
O338 C311 1.289 . S
C339 O331 1.258 . S
C339 O332 1.266 1_556 S
Co340 O343 1.970 . S
Co340 N357 1.989 . S
Co340 O365 1.967 . S
Co340 O372 1.920 . S
Co341 O344 1.966 . S
Co341 N350 2.022 . S
Co341 N358 1.993 . S
Co341 O366 1.941 . S
C342 O343 1.258 1_554 S
C342 O344 1.263 . S
O343 Co340 1.970 . S
O343 C342 1.258 1_556 S
O344 Co341 1.966 . S
O344 C342 1.263 . S
C345 O346 1.235 . S
C345 O372 1.289 . S
O346 C345 1.235 . S
C347 C349 1.400 . S
C347 N350 1.351 . S
C347 C352 1.501 . S
C348 C349 1.387 . S
C348 N351 1.341 . S
C349 C347 1.400 . S
C349 C348 1.387 . S
N350 Co341 2.022 . S
N350 C347 1.351 . S
N350 N351 1.365 . S
N351 C348 1.341 . S
N351 N350 1.365 . S
N351 H371 0.862 . S
C352 C347 1.501 . S
C352 H353 0.961 . S
C352 H354 0.961 . S
C352 H355 0.960 . S
H353 C352 0.961 . S
H354 C352 0.961 . S
H355 C352 0.960 . S
C356 N357 1.342 . S
C356 C360 1.401 1_556 S
C356 C361 1.499 . S
N357 Co340 1.989 . S
N357 C356 1.342 . S
N357 N358 1.388 1_556 S
N358 Co341 1.993 . S
N358 N357 1.388 1_554 S
N358 C359 1.346 . S
C359 N358 1.346 . S
C359 C360 1.396 . S
C359 C369 1.510 . S
C360 C356 1.401 1_554 S
C360 C359 1.396 . S
C361 C356 1.499 . S
C361 H362 0.959 . S
C361 H363 0.960 . S
C361 H364 0.961 . S
H362 C361 0.959 . S
H363 C361 0.960 . S
H364 C361 0.961 . S
O365 Co340 1.967 . S
O365 C373 1.258 . S
O366 Co341 1.941 . S
O366 C373 1.266 1_554 S
H367 C369 0.959 . S
H368 C369 0.961 . S
C369 C359 1.510 . S
C369 H367 0.959 . S
C369 H368 0.961 . S
C369 H370 0.960 . S
H370 C369 0.960 . S
H371 N351 0.862 . S
O372 Co340 1.920 . S
O372 C345 1.289 . S
C373 O365 1.258 . S
C373 O366 1.266 1_556 S
Co374 O377 1.970 . S
Co374 N391 1.989 . S
Co374 O399 1.967 . S
Co374 O406 1.920 . S
Co375 O378 1.966 . S
Co375 N384 2.022 . S
Co375 N392 1.993 . S
Co375 O400 1.941 . S
C376 O377 1.258 1_554 S
C376 O378 1.263 . S
O377 Co374 1.970 . S
O377 C376 1.258 1_556 S
O378 Co375 1.966 . S
O378 C376 1.263 . S
C379 O380 1.235 . S
C379 O406 1.289 . S
O380 C379 1.235 . S
C381 C383 1.400 . S
C381 N384 1.351 . S
C381 C386 1.501 . S
C382 C383 1.387 . S
C382 N385 1.341 . S
C383 C381 1.400 . S
C383 C382 1.387 . S
N384 Co375 2.022 . S
N384 C381 1.351 . S
N384 N385 1.365 . S
N385 C382 1.341 . S
N385 N384 1.365 . S
N385 H405 0.862 . S
C386 C381 1.501 . S
C386 H387 0.961 . S
C386 H388 0.961 . S
C386 H389 0.960 . S
H387 C386 0.961 . S
H388 C386 0.961 . S
H389 C386 0.960 . S
C390 N391 1.342 . S
C390 C394 1.401 1_556 S
C390 C395 1.499 . S
N391 Co374 1.989 . S
N391 C390 1.342 . S
N391 N392 1.388 1_556 S
N392 Co375 1.993 . S
N392 N391 1.388 1_554 S
N392 C393 1.346 . S
C393 N392 1.346 . S
C393 C394 1.396 . S
C393 C403 1.510 . S
C394 C390 1.401 1_554 S
C394 C393 1.396 . S
C395 C390 1.499 . S
C395 H396 0.959 . S
C395 H397 0.960 . S
C395 H398 0.961 . S
H396 C395 0.959 . S
H397 C395 0.960 . S
H398 C395 0.961 . S
O399 Co374 1.967 . S
O399 C407 1.258 . S
O400 Co375 1.941 . S
O400 C407 1.266 1_554 S
H401 C403 0.959 . S
H402 C403 0.961 . S
C403 C393 1.510 . S
C403 H401 0.959 . S
C403 H402 0.961 . S
C403 H404 0.960 . S
H404 C403 0.960 . S
H405 N385 0.862 . S
O406 Co374 1.920 . S
O406 C379 1.289 . S
C407 O399 1.258 . S
C407 O400 1.266 1_556 S
Co408 O411 1.970 . S
Co408 N425 1.989 . S
Co408 O433 1.967 . S
Co408 O440 1.920 . S
Co409 O412 1.966 . S
Co409 N418 2.022 . S
Co409 N426 1.993 . S
Co409 O434 1.941 . S
C410 O411 1.258 . S
C410 O412 1.263 . S
O411 Co408 1.970 . S
O411 C410 1.258 . S
O412 Co409 1.966 . S
O412 C410 1.263 . S
C413 O414 1.235 . S
C413 O440 1.289 . S
O414 C413 1.235 . S
C415 C417 1.400 . S
C415 N418 1.351 . S
C415 C420 1.501 . S
C416 C417 1.387 . S
C416 N419 1.341 . S
C417 C415 1.400 . S
C417 C416 1.387 . S
N418 Co409 2.022 . S
N418 C415 1.351 . S
N418 N419 1.365 . S
N419 C416 1.341 . S
N419 N418 1.365 . S
N419 H439 0.862 . S
C420 C415 1.501 . S
C420 H421 0.961 . S
C420 H422 0.961 . S
C420 H423 0.960 . S
H421 C420 0.961 . S
H422 C420 0.961 . S
H423 C420 0.960 . S
C424 N425 1.342 . S
C424 C428 1.401 . S
C424 C429 1.499 . S
N425 Co408 1.989 . S
N425 C424 1.342 . S
N425 N426 1.388 . S
N426 Co409 1.993 . S
N426 N425 1.388 . S
N426 C427 1.346 . S
C427 N426 1.346 . S
C427 C428 1.396 . S
C427 C437 1.510 . S
C428 C424 1.401 . S
C428 C427 1.396 . S
C429 C424 1.499 . S
C429 H430 0.959 . S
C429 H431 0.960 . S
C429 H432 0.961 . S
H430 C429 0.959 . S
H431 C429 0.960 . S
H432 C429 0.961 . S
O433 Co408 1.967 . S
O433 C441 1.258 . S
O434 Co409 1.941 . S
O434 C441 1.266 . S
H435 C437 0.959 . S
H436 C437 0.961 . S
C437 C427 1.510 . S
C437 H435 0.959 . S
C437 H436 0.961 . S
C437 H438 0.960 . S
H438 C437 0.960 . S
H439 N419 0.862 . S
O440 Co408 1.920 . S
O440 C413 1.289 . S
C441 O433 1.258 . S
C441 O434 1.266 . S
Co442 O445 1.970 . S
Co442 N459 1.989 . S
Co442 O467 1.967 . S
Co442 O474 1.920 . S
Co443 O446 1.966 . S
Co443 N452 2.022 . S
Co443 N460 1.993 . S
Co443 O468 1.941 . S
C444 O445 1.258 . S
C444 O446 1.263 . S
O445 Co442 1.970 . S
O445 C444 1.258 . S
O446 Co443 1.966 . S
O446 C444 1.263 . S
C447 O448 1.235 . S
C447 O474 1.289 . S
O448 C447 1.235 . S
C449 C451 1.400 . S
C449 N452 1.351 . S
C449 C454 1.501 . S
C450 C451 1.387 . S
C450 N453 1.341 . S
C451 C449 1.400 . S
C451 C450 1.387 . S
N452 Co443 2.022 . S
N452 C449 1.351 . S
N452 N453 1.365 . S
N453 C450 1.341 . S
N453 N452 1.365 . S
N453 H473 0.862 . S
C454 C449 1.501 . S
C454 H455 0.961 . S
C454 H456 0.961 . S
C454 H457 0.960 . S
H455 C454 0.961 . S
H456 C454 0.961 . S
H457 C454 0.960 . S
C458 N459 1.342 . S
C458 C462 1.401 . S
C458 C463 1.499 . S
N459 Co442 1.989 . S
N459 C458 1.342 . S
N459 N460 1.388 . S
N460 Co443 1.993 . S
N460 N459 1.388 . S
N460 C461 1.346 . S
C461 N460 1.346 . S
C461 C462 1.396 . S
C461 C471 1.510 . S
C462 C458 1.401 . S
C462 C461 1.396 . S
C463 C458 1.499 . S
C463 H464 0.959 . S
C463 H465 0.960 . S
C463 H466 0.961 . S
H464 C463 0.959 . S
H465 C463 0.960 . S
H466 C463 0.961 . S
O467 Co442 1.967 . S
O467 C475 1.258 . S
O468 Co443 1.941 . S
O468 C475 1.266 . S
H469 C471 0.959 . S
H470 C471 0.961 . S
C471 C461 1.510 . S
C471 H469 0.959 . S
C471 H470 0.961 . S
C471 H472 0.960 . S
H472 C471 0.960 . S
H473 N453 0.862 . S
O474 Co442 1.920 . S
O474 C447 1.289 . S
C475 O467 1.258 . S
C475 O468 1.266 . S
Co476 O479 1.970 . S
Co476 N493 1.989 . S
Co476 O501 1.967 . S
Co476 O508 1.920 . S
Co477 O480 1.966 . S
Co477 N486 2.022 . S
Co477 N494 1.993 . S
Co477 O502 1.941 . S
C478 O479 1.258 . S
C478 O480 1.263 . S
O479 Co476 1.970 . S
O479 C478 1.258 . S
O480 Co477 1.966 . S
O480 C478 1.263 . S
C481 O482 1.235 . S
C481 O508 1.289 . S
O482 C481 1.235 . S
C483 C485 1.400 . S
C483 N486 1.351 . S
C483 C488 1.501 . S
C484 C485 1.387 . S
C484 N487 1.341 . S
C485 C483 1.400 . S
C485 C484 1.387 . S
N486 Co477 2.022 . S
N486 C483 1.351 . S
N486 N487 1.365 . S
N487 C484 1.341 . S
N487 N486 1.365 . S
N487 H507 0.862 . S
C488 C483 1.501 . S
C488 H489 0.961 . S
C488 H490 0.961 . S
C488 H491 0.960 . S
H489 C488 0.961 . S
H490 C488 0.961 . S
H491 C488 0.960 . S
C492 N493 1.342 . S
C492 C496 1.401 . S
C492 C497 1.499 . S
N493 Co476 1.989 . S
N493 C492 1.342 . S
N493 N494 1.388 . S
N494 Co477 1.993 . S
N494 N493 1.388 . S
N494 C495 1.346 . S
C495 N494 1.346 . S
C495 C496 1.396 . S
C495 C505 1.510 . S
C496 C492 1.401 . S
C496 C495 1.396 . S
C497 C492 1.499 . S
C497 H498 0.959 . S
C497 H499 0.960 . S
C497 H500 0.961 . S
H498 C497 0.959 . S
H499 C497 0.960 . S
H500 C497 0.961 . S
O501 Co476 1.967 . S
O501 C509 1.258 . S
O502 Co477 1.941 . S
O502 C509 1.266 . S
H503 C505 0.959 . S
H504 C505 0.961 . S
C505 C495 1.510 . S
C505 H503 0.959 . S
C505 H504 0.961 . S
C505 H506 0.960 . S
H506 C505 0.960 . S
H507 N487 0.862 . S
O508 Co476 1.920 . S
O508 C481 1.289 . S
C509 O501 1.258 . S
C509 O502 1.266 . S
Co510 O513 1.970 . S
Co510 N527 1.989 . S
Co510 O535 1.967 . S
Co510 O542 1.920 . S
Co511 O514 1.966 . S
Co511 N520 2.022 . S
Co511 N528 1.993 . S
Co511 O536 1.941 . S
C512 O513 1.258 . S
C512 O514 1.263 . S
O513 Co510 1.970 . S
O513 C512 1.258 . S
O514 Co511 1.966 . S
O514 C512 1.263 . S
C515 O516 1.235 . S
C515 O542 1.289 . S
O516 C515 1.235 . S
C517 C519 1.400 1_554 S
C517 N520 1.351 . S
C517 C522 1.501 . S
C518 C519 1.387 . S
C518 N521 1.341 1_556 S
C519 C517 1.400 1_556 S
C519 C518 1.387 . S
N520 Co511 2.022 . S
N520 C517 1.351 . S
N520 N521 1.365 . S
N521 C518 1.341 1_554 S
N521 N520 1.365 . S
N521 H541 0.862 . S
C522 C517 1.501 . S
C522 H523 0.961 . S
C522 H524 0.961 . S
C522 H525 0.960 . S
H523 C522 0.961 . S
H524 C522 0.961 . S
H525 C522 0.960 . S
C526 N527 1.342 . S
C526 C530 1.401 . S
C526 C531 1.499 . S
N527 Co510 1.989 . S
N527 C526 1.342 . S
N527 N528 1.388 . S
N528 Co511 1.993 . S
N528 N527 1.388 . S
N528 C529 1.346 . S
C529 N528 1.346 . S
C529 C530 1.396 . S
C529 C539 1.510 . S
C530 C526 1.401 . S
C530 C529 1.396 . S
C531 C526 1.499 . S
C531 H532 0.959 . S
C531 H533 0.960 . S
C531 H534 0.961 . S
H532 C531 0.959 . S
H533 C531 0.960 . S
H534 C531 0.961 . S
O535 Co510 1.967 . S
O535 C543 1.258 . S
O536 Co511 1.941 . S
O536 C543 1.266 . S
H537 C539 0.959 . S
H538 C539 0.961 . S
C539 C529 1.510 . S
C539 H537 0.959 . S
C539 H538 0.961 . S
C539 H540 0.960 . S
H540 C539 0.960 . S
H541 N521 0.862 . S
O542 Co510 1.920 . S
O542 C515 1.289 . S
C543 O535 1.258 . S
C543 O536 1.266 . S
Co544 O547 1.970 . S
Co544 N561 1.989 . S
Co544 O569 1.967 . S
Co544 O576 1.920 . S
Co545 O548 1.966 . S
Co545 N554 2.022 . S
Co545 N562 1.993 . S
Co545 O570 1.941 . S
C546 O547 1.258 . S
C546 O548 1.263 . S
O547 Co544 1.970 . S
O547 C546 1.258 . S
O548 Co545 1.966 . S
O548 C546 1.263 . S
C549 O550 1.235 . S
C549 O576 1.289 . S
O550 C549 1.235 . S
C551 C553 1.400 1_554 S
C551 N554 1.351 . S
C551 C556 1.501 . S
C552 C553 1.387 . S
C552 N555 1.341 1_556 S
C553 C551 1.400 1_556 S
C553 C552 1.387 . S
N554 Co545 2.022 . S
N554 C551 1.351 . S
N554 N555 1.365 . S
N555 C552 1.341 1_554 S
N555 N554 1.365 . S
N555 H575 0.862 . S
C556 C551 1.501 . S
C556 H557 0.961 . S
C556 H558 0.961 . S
C556 H559 0.960 . S
H557 C556 0.961 . S
H558 C556 0.961 . S
H559 C556 0.960 . S
C560 N561 1.342 . S
C560 C564 1.401 . S
C560 C565 1.499 . S
N561 Co544 1.989 . S
N561 C560 1.342 . S
N561 N562 1.388 . S
N562 Co545 1.993 . S
N562 N561 1.388 . S
N562 C563 1.346 . S
C563 N562 1.346 . S
C563 C564 1.396 . S
C563 C573 1.510 . S
C564 C560 1.401 . S
C564 C563 1.396 . S
C565 C560 1.499 . S
C565 H566 0.959 . S
C565 H567 0.960 . S
C565 H568 0.961 . S
H566 C565 0.959 . S
H567 C565 0.960 . S
H568 C565 0.961 . S
O569 Co544 1.967 . S
O569 C577 1.258 . S
O570 Co545 1.941 . S
O570 C577 1.266 . S
H571 C573 0.959 . S
H572 C573 0.961 . S
C573 C563 1.510 . S
C573 H571 0.959 . S
C573 H572 0.961 . S
C573 H574 0.960 . S
H574 C573 0.960 . S
H575 N555 0.862 . S
O576 Co544 1.920 . S
O576 C549 1.289 . S
C577 O569 1.258 . S
C577 O570 1.266 . S
Co578 O581 1.970 . S
Co578 N595 1.989 . S
Co578 O603 1.967 . S
Co578 O610 1.920 . S
Co579 O582 1.966 . S
Co579 N588 2.022 . S
Co579 N596 1.993 . S
Co579 O604 1.941 . S
C580 O581 1.258 . S
C580 O582 1.263 . S
O581 Co578 1.970 . S
O581 C580 1.258 . S
O582 Co579 1.966 . S
O582 C580 1.263 . S
C583 O584 1.235 . S
C583 O610 1.289 . S
O584 C583 1.235 . S
C585 C587 1.400 1_554 S
C585 N588 1.351 . S
C585 C590 1.501 . S
C586 C587 1.387 . S
C586 N589 1.341 1_556 S
C587 C585 1.400 1_556 S
C587 C586 1.387 . S
N588 Co579 2.022 . S
N588 C585 1.351 . S
N588 N589 1.365 . S
N589 C586 1.341 1_554 S
N589 N588 1.365 . S
N589 H609 0.862 . S
C590 C585 1.501 . S
C590 H591 0.961 . S
C590 H592 0.961 . S
C590 H593 0.960 . S
H591 C590 0.961 . S
H592 C590 0.961 . S
H593 C590 0.960 . S
C594 N595 1.342 . S
C594 C598 1.401 . S
C594 C599 1.499 . S
N595 Co578 1.989 . S
N595 C594 1.342 . S
N595 N596 1.388 . S
N596 Co579 1.993 . S
N596 N595 1.388 . S
N596 C597 1.346 . S
C597 N596 1.346 . S
C597 C598 1.396 . S
C597 C607 1.510 . S
C598 C594 1.401 . S
C598 C597 1.396 . S
C599 C594 1.499 . S
C599 H600 0.959 . S
C599 H601 0.960 . S
C599 H602 0.961 . S
H600 C599 0.959 . S
H601 C599 0.960 . S
H602 C599 0.961 . S
O603 Co578 1.967 . S
O603 C611 1.258 . S
O604 Co579 1.941 . S
O604 C611 1.266 . S
H605 C607 0.959 . S
H606 C607 0.961 . S
C607 C597 1.510 . S
C607 H605 0.959 . S
C607 H606 0.961 . S
C607 H608 0.960 . S
H608 C607 0.960 . S
H609 N589 0.862 . S
O610 Co578 1.920 . S
O610 C583 1.289 . S
C611 O603 1.258 . S
C611 O604 1.266 . S
Co612 O615 1.970 . S
Co612 N629 1.989 . S
Co612 O637 1.967 . S
Co612 O644 1.920 . S
Co613 O616 1.966 . S
Co613 N622 2.022 . S
Co613 N630 1.993 . S
Co613 O638 1.941 . S
C614 O615 1.258 . S
C614 O616 1.263 . S
O615 Co612 1.970 . S
O615 C614 1.258 . S
O616 Co613 1.966 . S
O616 C614 1.263 . S
C617 O618 1.235 . S
C617 O644 1.289 . S
O618 C617 1.235 . S
C619 C621 1.400 1_554 S
C619 N622 1.351 . S
C619 C624 1.501 . S
C620 C621 1.387 . S
C620 N623 1.341 1_556 S
C621 C619 1.400 1_556 S
C621 C620 1.387 . S
N622 Co613 2.022 . S
N622 C619 1.351 . S
N622 N623 1.365 . S
N623 C620 1.341 1_554 S
N623 N622 1.365 . S
N623 H643 0.862 . S
C624 C619 1.501 . S
C624 H625 0.961 . S
C624 H626 0.961 . S
C624 H627 0.960 . S
H625 C624 0.961 . S
H626 C624 0.961 . S
H627 C624 0.960 . S
C628 N629 1.342 . S
C628 C632 1.401 . S
C628 C633 1.499 . S
N629 Co612 1.989 . S
N629 C628 1.342 . S
N629 N630 1.388 . S
N630 Co613 1.993 . S
N630 N629 1.388 . S
N630 C631 1.346 . S
C631 N630 1.346 . S
C631 C632 1.396 . S
C631 C641 1.510 . S
C632 C628 1.401 . S
C632 C631 1.396 . S
C633 C628 1.499 . S
C633 H634 0.959 . S
C633 H635 0.960 . S
C633 H636 0.961 . S
H634 C633 0.959 . S
H635 C633 0.960 . S
H636 C633 0.961 . S
O637 Co612 1.967 . S
O637 C645 1.258 . S
O638 Co613 1.941 . S
O638 C645 1.266 . S
H639 C641 0.959 . S
H640 C641 0.961 . S
C641 C631 1.510 . S
C641 H639 0.959 . S
C641 H640 0.961 . S
C641 H642 0.960 . S
H642 C641 0.960 . S
H643 N623 0.862 . S
O644 Co612 1.920 . S
O644 C617 1.289 . S
C645 O637 1.258 . S
C645 O638 1.266 . S
Co646 O649 1.970 . S
Co646 N663 1.989 . S
Co646 O671 1.967 . S
Co646 O678 1.920 . S
Co647 O650 1.966 . S
Co647 N656 2.022 . S
Co647 N664 1.993 . S
Co647 O672 1.941 . S
C648 O649 1.258 . S
C648 O650 1.263 . S
O649 Co646 1.970 . S
O649 C648 1.258 . S
O650 Co647 1.966 . S
O650 C648 1.263 . S
C651 O652 1.235 . S
C651 O678 1.289 . S
O652 C651 1.235 . S
C653 C655 1.400 1_554 S
C653 N656 1.351 . S
C653 C658 1.501 . S
C654 C655 1.387 . S
C654 N657 1.341 1_556 S
C655 C653 1.400 1_556 S
C655 C654 1.387 . S
N656 Co647 2.022 . S
N656 C653 1.351 . S
N656 N657 1.365 . S
N657 C654 1.341 1_554 S
N657 N656 1.365 . S
N657 H677 0.862 . S
C658 C653 1.501 . S
C658 H659 0.961 . S
C658 H660 0.961 . S
C658 H661 0.960 . S
H659 C658 0.961 . S
H660 C658 0.961 . S
H661 C658 0.960 . S
C662 N663 1.342 . S
C662 C666 1.401 . S
C662 C667 1.499 . S
N663 Co646 1.989 . S
N663 C662 1.342 . S
N663 N664 1.388 . S
N664 Co647 1.993 . S
N664 N663 1.388 . S
N664 C665 1.346 . S
C665 N664 1.346 . S
C665 C666 1.396 . S
C665 C675 1.510 . S
C666 C662 1.401 . S
C666 C665 1.396 . S
C667 C662 1.499 . S
C667 H668 0.959 . S
C667 H669 0.960 . S
C667 H670 0.961 . S
H668 C667 0.959 . S
H669 C667 0.960 . S
H670 C667 0.961 . S
O671 Co646 1.967 . S
O671 C679 1.258 . S
O672 Co647 1.941 . S
O672 C679 1.266 . S
H673 C675 0.959 . S
H674 C675 0.961 . S
C675 C665 1.510 . S
C675 H673 0.959 . S
C675 H674 0.961 . S
C675 H676 0.960 . S
H676 C675 0.960 . S
H677 N657 0.862 . S
O678 Co646 1.920 . S
O678 C651 1.289 . S
C679 O671 1.258 . S
C679 O672 1.266 . S
Co680 O683 1.970 . S
Co680 N697 1.989 . S
Co680 O705 1.967 . S
Co680 O712 1.920 . S
Co681 O684 1.966 . S
Co681 N690 2.022 . S
Co681 N698 1.993 . S
Co681 O706 1.941 . S
C682 O683 1.258 . S
C682 O684 1.263 . S
O683 Co680 1.970 . S
O683 C682 1.258 . S
O684 Co681 1.966 . S
O684 C682 1.263 . S
C685 O686 1.235 . S
C685 O712 1.289 . S
O686 C685 1.235 . S
C687 C689 1.400 1_554 S
C687 N690 1.351 . S
C687 C692 1.501 . S
C688 C689 1.387 . S
C688 N691 1.341 1_556 S
C689 C687 1.400 1_556 S
C689 C688 1.387 . S
N690 Co681 2.022 . S
N690 C687 1.351 . S
N690 N691 1.365 . S
N691 C688 1.341 1_554 S
N691 N690 1.365 . S
N691 H711 0.862 . S
C692 C687 1.501 . S
C692 H693 0.961 . S
C692 H694 0.961 . S
C692 H695 0.960 . S
H693 C692 0.961 . S
H694 C692 0.961 . S
H695 C692 0.960 . S
C696 N697 1.342 . S
C696 C700 1.401 . S
C696 C701 1.499 . S
N697 Co680 1.989 . S
N697 C696 1.342 . S
N697 N698 1.388 . S
N698 Co681 1.993 . S
N698 N697 1.388 . S
N698 C699 1.346 . S
C699 N698 1.346 . S
C699 C700 1.396 . S
C699 C709 1.510 . S
C700 C696 1.401 . S
C700 C699 1.396 . S
C701 C696 1.499 . S
C701 H702 0.959 . S
C701 H703 0.960 . S
C701 H704 0.961 . S
H702 C701 0.959 . S
H703 C701 0.960 . S
H704 C701 0.961 . S
O705 Co680 1.967 . S
O705 C713 1.258 . S
O706 Co681 1.941 . S
O706 C713 1.266 . S
H707 C709 0.959 . S
H708 C709 0.961 . S
C709 C699 1.510 . S
C709 H707 0.959 . S
C709 H708 0.961 . S
C709 H710 0.960 . S
H710 C709 0.960 . S
H711 N691 0.862 . S
O712 Co680 1.920 . S
O712 C685 1.289 . S
C713 O705 1.258 . S
C713 O706 1.266 . S
Co714 O717 1.970 . S
Co714 N731 1.989 . S
Co714 O739 1.967 . S
Co714 O746 1.920 . S
Co715 O718 1.966 . S
Co715 N724 2.022 . S
Co715 N732 1.993 . S
Co715 O740 1.941 . S
C716 O717 1.258 . S
C716 O718 1.263 . S
O717 Co714 1.970 . S
O717 C716 1.258 . S
O718 Co715 1.966 . S
O718 C716 1.263 . S
C719 O720 1.235 . S
C719 O746 1.289 . S
O720 C719 1.235 . S
C721 C723 1.400 . S
C721 N724 1.351 . S
C721 C726 1.501 . S
C722 C723 1.387 . S
C722 N725 1.341 . S
C723 C721 1.400 . S
C723 C722 1.387 . S
N724 Co715 2.022 . S
N724 C721 1.351 . S
N724 N725 1.365 . S
N725 C722 1.341 . S
N725 N724 1.365 . S
N725 H745 0.862 . S
C726 C721 1.501 . S
C726 H727 0.961 . S
C726 H728 0.961 . S
C726 H729 0.960 . S
H727 C726 0.961 . S
H728 C726 0.961 . S
H729 C726 0.960 . S
C730 N731 1.342 . S
C730 C734 1.401 . S
C730 C735 1.499 . S
N731 Co714 1.989 . S
N731 C730 1.342 . S
N731 N732 1.388 . S
N732 Co715 1.993 . S
N732 N731 1.388 . S
N732 C733 1.346 . S
C733 N732 1.346 . S
C733 C734 1.396 . S
C733 C743 1.510 . S
C734 C730 1.401 . S
C734 C733 1.396 . S
C735 C730 1.499 . S
C735 H736 0.959 . S
C735 H737 0.960 . S
C735 H738 0.961 . S
H736 C735 0.959 . S
H737 C735 0.960 . S
H738 C735 0.961 . S
O739 Co714 1.967 . S
O739 C747 1.258 . S
O740 Co715 1.941 . S
O740 C747 1.266 . S
H741 C743 0.959 . S
H742 C743 0.961 . S
C743 C733 1.510 . S
C743 H741 0.959 . S
C743 H742 0.961 . S
C743 H744 0.960 . S
H744 C743 0.960 . S
H745 N725 0.862 . S
O746 Co714 1.920 . S
O746 C719 1.289 . S
C747 O739 1.258 . S
C747 O740 1.266 . S
Co748 O751 1.970 . S
Co748 N765 1.989 . S
Co748 O773 1.967 . S
Co748 O780 1.920 . S
Co749 O752 1.966 . S
Co749 N758 2.022 . S
Co749 N766 1.993 . S
Co749 O774 1.941 . S
C750 O751 1.258 . S
C750 O752 1.263 . S
O751 Co748 1.970 . S
O751 C750 1.258 . S
O752 Co749 1.966 . S
O752 C750 1.263 . S
C753 O754 1.235 . S
C753 O780 1.289 . S
O754 C753 1.235 . S
C755 C757 1.400 . S
C755 N758 1.351 . S
C755 C760 1.501 . S
C756 C757 1.387 . S
C756 N759 1.341 . S
C757 C755 1.400 . S
C757 C756 1.387 . S
N758 Co749 2.022 . S
N758 C755 1.351 . S
N758 N759 1.365 . S
N759 C756 1.341 . S
N759 N758 1.365 . S
N759 H779 0.862 . S
C760 C755 1.501 . S
C760 H761 0.961 . S
C760 H762 0.961 . S
C760 H763 0.960 . S
H761 C760 0.961 . S
H762 C760 0.961 . S
H763 C760 0.960 . S
C764 N765 1.342 . S
C764 C768 1.401 . S
C764 C769 1.499 . S
N765 Co748 1.989 . S
N765 C764 1.342 . S
N765 N766 1.388 . S
N766 Co749 1.993 . S
N766 N765 1.388 . S
N766 C767 1.346 . S
C767 N766 1.346 . S
C767 C768 1.396 . S
C767 C777 1.510 . S
C768 C764 1.401 . S
C768 C767 1.396 . S
C769 C764 1.499 . S
C769 H770 0.959 . S
C769 H771 0.960 . S
C769 H772 0.961 . S
H770 C769 0.959 . S
H771 C769 0.960 . S
H772 C769 0.961 . S
O773 Co748 1.967 . S
O773 C781 1.258 . S
O774 Co749 1.941 . S
O774 C781 1.266 . S
H775 C777 0.959 . S
H776 C777 0.961 . S
C777 C767 1.510 . S
C777 H775 0.959 . S
C777 H776 0.961 . S
C777 H778 0.960 . S
H778 C777 0.960 . S
H779 N759 0.862 . S
O780 Co748 1.920 . S
O780 C753 1.289 . S
C781 O773 1.258 . S
C781 O774 1.266 . S
Co782 O785 1.970 . S
Co782 N799 1.989 . S
Co782 O807 1.967 . S
Co782 O814 1.920 . S
Co783 O786 1.966 . S
Co783 N792 2.022 . S
Co783 N800 1.993 . S
Co783 O808 1.941 . S
C784 O785 1.258 . S
C784 O786 1.263 . S
O785 Co782 1.970 . S
O785 C784 1.258 . S
O786 Co783 1.966 . S
O786 C784 1.263 . S
C787 O788 1.235 . S
C787 O814 1.289 . S
O788 C787 1.235 . S
C789 C791 1.400 . S
C789 N792 1.351 . S
C789 C794 1.501 . S
C790 C791 1.387 . S
C790 N793 1.341 . S
C791 C789 1.400 . S
C791 C790 1.387 . S
N792 Co783 2.022 . S
N792 C789 1.351 . S
N792 N793 1.365 . S
N793 C790 1.341 . S
N793 N792 1.365 . S
N793 H813 0.862 . S
C794 C789 1.501 . S
C794 H795 0.961 . S
C794 H796 0.961 . S
C794 H797 0.960 . S
H795 C794 0.961 . S
H796 C794 0.961 . S
H797 C794 0.960 . S
C798 N799 1.342 . S
C798 C802 1.401 . S
C798 C803 1.499 . S
N799 Co782 1.989 . S
N799 C798 1.342 . S
N799 N800 1.388 . S
N800 Co783 1.993 . S
N800 N799 1.388 . S
N800 C801 1.346 . S
C801 N800 1.346 . S
C801 C802 1.396 . S
C801 C811 1.510 . S
C802 C798 1.401 . S
C802 C801 1.396 . S
C803 C798 1.499 . S
C803 H804 0.959 . S
C803 H805 0.960 . S
C803 H806 0.961 . S
H804 C803 0.959 . S
H805 C803 0.960 . S
H806 C803 0.961 . S
O807 Co782 1.967 . S
O807 C815 1.258 . S
O808 Co783 1.941 . S
O808 C815 1.266 . S
H809 C811 0.959 . S
H810 C811 0.961 . S
C811 C801 1.510 . S
C811 H809 0.959 . S
C811 H810 0.961 . S
C811 H812 0.960 . S
H812 C811 0.960 . S
H813 N793 0.862 . S
O814 Co782 1.920 . S
O814 C787 1.289 . S
C815 O807 1.258 . S
C815 O808 1.266 . S
Co816 O819 1.970 . S
Co816 N833 1.989 . S
Co816 O841 1.967 . S
Co816 O848 1.920 . S
Co817 O820 1.966 . S
Co817 N826 2.022 . S
Co817 N834 1.993 . S
Co817 O842 1.941 . S
C818 O819 1.258 . S
C818 O820 1.263 . S
O819 Co816 1.970 . S
O819 C818 1.258 . S
O820 Co817 1.966 . S
O820 C818 1.263 . S
C821 O822 1.235 . S
C821 O848 1.289 . S
O822 C821 1.235 . S
C823 C825 1.400 1_556 S
C823 N826 1.351 . S
C823 C828 1.501 . S
C824 C825 1.387 . S
C824 N827 1.341 1_554 S
C825 C823 1.400 1_554 S
C825 C824 1.387 . S
N826 Co817 2.022 . S
N826 C823 1.351 . S
N826 N827 1.365 . S
N827 C824 1.341 1_556 S
N827 N826 1.365 . S
N827 H847 0.862 . S
C828 C823 1.501 . S
C828 H829 0.961 . S
C828 H830 0.961 . S
C828 H831 0.960 . S
H829 C828 0.961 . S
H830 C828 0.961 . S
H831 C828 0.960 . S
C832 N833 1.342 . S
C832 C836 1.401 . S
C832 C837 1.499 . S
N833 Co816 1.989 . S
N833 C832 1.342 . S
N833 N834 1.388 . S
N834 Co817 1.993 . S
N834 N833 1.388 . S
N834 C835 1.346 . S
C835 N834 1.346 . S
C835 C836 1.396 . S
C835 C845 1.510 . S
C836 C832 1.401 . S
C836 C835 1.396 . S
C837 C832 1.499 . S
C837 H838 0.959 . S
C837 H839 0.960 . S
C837 H840 0.961 . S
H838 C837 0.959 . S
H839 C837 0.960 . S
H840 C837 0.961 . S
O841 Co816 1.967 . S
O841 C849 1.258 . S
O842 Co817 1.941 . S
O842 C849 1.266 . S
H843 C845 0.959 . S
H844 C845 0.961 . S
C845 C835 1.510 . S
C845 H843 0.959 . S
C845 H844 0.961 . S
C845 H846 0.960 . S
H846 C845 0.960 . S
H847 N827 0.862 . S
O848 Co816 1.920 . S
O848 C821 1.289 . S
C849 O841 1.258 . S
C849 O842 1.266 . S
Co850 O853 1.970 . S
Co850 N867 1.989 . S
Co850 O875 1.967 . S
Co850 O882 1.920 . S
Co851 O854 1.966 . S
Co851 N860 2.022 . S
Co851 N868 1.993 . S
Co851 O876 1.941 . S
C852 O853 1.258 . S
C852 O854 1.263 . S
O853 Co850 1.970 . S
O853 C852 1.258 . S
O854 Co851 1.966 . S
O854 C852 1.263 . S
C855 O856 1.235 . S
C855 O882 1.289 . S
O856 C855 1.235 . S
C857 C859 1.400 1_556 S
C857 N860 1.351 . S
C857 C862 1.501 . S
C858 C859 1.387 . S
C858 N861 1.341 1_554 S
C859 C857 1.400 1_554 S
C859 C858 1.387 . S
N860 Co851 2.022 . S
N860 C857 1.351 . S
N860 N861 1.365 . S
N861 C858 1.341 1_556 S
N861 N860 1.365 . S
N861 H881 0.862 . S
C862 C857 1.501 . S
C862 H863 0.961 . S
C862 H864 0.961 . S
C862 H865 0.960 . S
H863 C862 0.961 . S
H864 C862 0.961 . S
H865 C862 0.960 . S
C866 N867 1.342 . S
C866 C870 1.401 . S
C866 C871 1.499 . S
N867 Co850 1.989 . S
N867 C866 1.342 . S
N867 N868 1.388 . S
N868 Co851 1.993 . S
N868 N867 1.388 . S
N868 C869 1.346 . S
C869 N868 1.346 . S
C869 C870 1.396 . S
C869 C879 1.510 . S
C870 C866 1.401 . S
C870 C869 1.396 . S
C871 C866 1.499 . S
C871 H872 0.959 . S
C871 H873 0.960 . S
C871 H874 0.961 . S
H872 C871 0.959 . S
H873 C871 0.960 . S
H874 C871 0.961 . S
O875 Co850 1.967 . S
O875 C883 1.258 . S
O876 Co851 1.941 . S
O876 C883 1.266 . S
H877 C879 0.959 . S
H878 C879 0.961 . S
C879 C869 1.510 . S
C879 H877 0.959 . S
C879 H878 0.961 . S
C879 H880 0.960 . S
H880 C879 0.960 . S
H881 N861 0.862 . S
O882 Co850 1.920 . S
O882 C855 1.289 . S
C883 O875 1.258 . S
C883 O876 1.266 . S
Co884 O887 1.970 . S
Co884 N901 1.989 . S
Co884 O909 1.967 . S
Co884 O916 1.920 . S
Co885 O888 1.966 . S
Co885 N894 2.022 . S
Co885 N902 1.993 . S
Co885 O910 1.941 . S
C886 O887 1.258 . S
C886 O888 1.263 . S
O887 Co884 1.970 . S
O887 C886 1.258 . S
O888 Co885 1.966 . S
O888 C886 1.263 . S
C889 O890 1.235 . S
C889 O916 1.289 . S
O890 C889 1.235 . S
C891 C893 1.400 1_556 S
C891 N894 1.351 . S
C891 C896 1.501 . S
C892 C893 1.387 . S
C892 N895 1.341 1_554 S
C893 C891 1.400 1_554 S
C893 C892 1.387 . S
N894 Co885 2.022 . S
N894 C891 1.351 . S
N894 N895 1.365 . S
N895 C892 1.341 1_556 S
N895 N894 1.365 . S
N895 H915 0.862 . S
C896 C891 1.501 . S
C896 H897 0.961 . S
C896 H898 0.961 . S
C896 H899 0.960 . S
H897 C896 0.961 . S
H898 C896 0.961 . S
H899 C896 0.960 . S
C900 N901 1.342 . S
C900 C904 1.401 . S
C900 C905 1.499 . S
N901 Co884 1.989 . S
N901 C900 1.342 . S
N901 N902 1.388 . S
N902 Co885 1.993 . S
N902 N901 1.388 . S
N902 C903 1.346 . S
C903 N902 1.346 . S
C903 C904 1.396 . S
C903 C913 1.510 . S
C904 C900 1.401 . S
C904 C903 1.396 . S
C905 C900 1.499 . S
C905 H906 0.959 . S
C905 H907 0.960 . S
C905 H908 0.961 . S
H906 C905 0.959 . S
H907 C905 0.960 . S
H908 C905 0.961 . S
O909 Co884 1.967 . S
O909 C917 1.258 . S
O910 Co885 1.941 . S
O910 C917 1.266 . S
H911 C913 0.959 . S
H912 C913 0.961 . S
C913 C903 1.510 . S
C913 H911 0.959 . S
C913 H912 0.961 . S
C913 H914 0.960 . S
H914 C913 0.960 . S
H915 N895 0.862 . S
O916 Co884 1.920 . S
O916 C889 1.289 . S
C917 O909 1.258 . S
C917 O910 1.266 . S
Co918 O921 1.970 . S
Co918 N935 1.989 . S
Co918 O943 1.967 . S
Co918 O950 1.920 . S
Co919 O922 1.966 . S
Co919 N928 2.022 . S
Co919 N936 1.993 . S
Co919 O944 1.941 . S
C920 O921 1.258 . S
C920 O922 1.263 . S
O921 Co918 1.970 . S
O921 C920 1.258 . S
O922 Co919 1.966 . S
O922 C920 1.263 . S
C923 O924 1.235 . S
C923 O950 1.289 . S
O924 C923 1.235 . S
C925 C927 1.400 . S
C925 N928 1.351 . S
C925 C930 1.501 . S
C926 C927 1.387 . S
C926 N929 1.341 . S
C927 C925 1.400 . S
C927 C926 1.387 . S
N928 Co919 2.022 . S
N928 C925 1.351 . S
N928 N929 1.365 . S
N929 C926 1.341 . S
N929 N928 1.365 . S
N929 H949 0.862 . S
C930 C925 1.501 . S
C930 H931 0.961 . S
C930 H932 0.961 . S
C930 H933 0.960 . S
H931 C930 0.961 . S
H932 C930 0.961 . S
H933 C930 0.960 . S
C934 N935 1.342 . S
C934 C938 1.401 . S
C934 C939 1.499 . S
N935 Co918 1.989 . S
N935 C934 1.342 . S
N935 N936 1.388 . S
N936 Co919 1.993 . S
N936 N935 1.388 . S
N936 C937 1.346 . S
C937 N936 1.346 . S
C937 C938 1.396 . S
C937 C947 1.510 . S
C938 C934 1.401 . S
C938 C937 1.396 . S
C939 C934 1.499 . S
C939 H940 0.959 . S
C939 H941 0.960 . S
C939 H942 0.961 . S
H940 C939 0.959 . S
H941 C939 0.960 . S
H942 C939 0.961 . S
O943 Co918 1.967 . S
O943 C951 1.258 . S
O944 Co919 1.941 . S
O944 C951 1.266 . S
H945 C947 0.959 . S
H946 C947 0.961 . S
C947 C937 1.510 . S
C947 H945 0.959 . S
C947 H946 0.961 . S
C947 H948 0.960 . S
H948 C947 0.960 . S
H949 N929 0.862 . S
O950 Co918 1.920 . S
O950 C923 1.289 . S
C951 O943 1.258 . S
C951 O944 1.266 . S
Co952 O955 1.970 . S
Co952 N969 1.989 . S
Co952 O977 1.967 . S
Co952 O984 1.920 . S
Co953 O956 1.966 . S
Co953 N962 2.022 . S
Co953 N970 1.993 . S
Co953 O978 1.941 . S
C954 O955 1.258 . S
C954 O956 1.263 . S
O955 Co952 1.970 . S
O955 C954 1.258 . S
O956 Co953 1.966 . S
O956 C954 1.263 . S
C957 O958 1.235 . S
C957 O984 1.289 . S
O958 C957 1.235 . S
C959 C961 1.400 . S
C959 N962 1.351 . S
C959 C964 1.501 . S
C960 C961 1.387 . S
C960 N963 1.341 . S
C961 C959 1.400 . S
C961 C960 1.387 . S
N962 Co953 2.022 . S
N962 C959 1.351 . S
N962 N963 1.365 . S
N963 C960 1.341 . S
N963 N962 1.365 . S
N963 H983 0.862 . S
C964 C959 1.501 . S
C964 H965 0.961 . S
C964 H966 0.961 . S
C964 H967 0.960 . S
H965 C964 0.961 . S
H966 C964 0.961 . S
H967 C964 0.960 . S
C968 N969 1.342 . S
C968 C972 1.401 . S
C968 C973 1.499 . S
N969 Co952 1.989 . S
N969 C968 1.342 . S
N969 N970 1.388 . S
N970 Co953 1.993 . S
N970 N969 1.388 . S
N970 C971 1.346 . S
C971 N970 1.346 . S
C971 C972 1.396 . S
C971 C981 1.510 . S
C972 C968 1.401 . S
C972 C971 1.396 . S
C973 C968 1.499 . S
C973 H974 0.959 . S
C973 H975 0.960 . S
C973 H976 0.961 . S
H974 C973 0.959 . S
H975 C973 0.960 . S
H976 C973 0.961 . S
O977 Co952 1.967 . S
O977 C985 1.258 . S
O978 Co953 1.941 . S
O978 C985 1.266 . S
H979 C981 0.959 . S
H980 C981 0.961 . S
C981 C971 1.510 . S
C981 H979 0.959 . S
C981 H980 0.961 . S
C981 H982 0.960 . S
H982 C981 0.960 . S
H983 N963 0.862 . S
O984 Co952 1.920 . S
O984 C957 1.289 . S
C985 O977 1.258 . S
C985 O978 1.266 . S
Co986 O989 1.970 . S
Co986 N1003 1.989 . S
Co986 O1011 1.967 . S
Co986 O1018 1.920 . S
Co987 O990 1.966 . S
Co987 N996 2.022 . S
Co987 N1004 1.993 . S
Co987 O1012 1.941 . S
C988 O989 1.258 . S
C988 O990 1.263 . S
O989 Co986 1.970 . S
O989 C988 1.258 . S
O990 Co987 1.966 . S
O990 C988 1.263 . S
C991 O992 1.235 . S
C991 O1018 1.289 . S
O992 C991 1.235 . S
C993 C995 1.400 . S
C993 N996 1.351 . S
C993 C998 1.501 . S
C994 C995 1.387 . S
C994 N997 1.341 . S
C995 C993 1.400 . S
C995 C994 1.387 . S
N996 Co987 2.022 . S
N996 C993 1.351 . S
N996 N997 1.365 . S
N997 C994 1.341 . S
N997 N996 1.365 . S
N997 H1017 0.862 . S
C998 C993 1.501 . S
C998 H999 0.961 . S
C998 H1000 0.961 . S
C998 H1001 0.960 . S
H999 C998 0.961 . S
H1000 C998 0.961 . S
H1001 C998 0.960 . S
C1002 N1003 1.342 . S
C1002 C1006 1.401 . S
C1002 C1007 1.499 . S
N1003 Co986 1.989 . S
N1003 C1002 1.342 . S
N1003 N1004 1.388 . S
N1004 Co987 1.993 . S
N1004 N1003 1.388 . S
N1004 C1005 1.346 . S
C1005 N1004 1.346 . S
C1005 C1006 1.396 . S
C1005 C1015 1.510 . S
C1006 C1002 1.401 . S
C1006 C1005 1.396 . S
C1007 C1002 1.499 . S
C1007 H1008 0.959 . S
C1007 H1009 0.960 . S
C1007 H1010 0.961 . S
H1008 C1007 0.959 . S
H1009 C1007 0.960 . S
H1010 C1007 0.961 . S
O1011 Co986 1.967 . S
O1011 C1019 1.258 . S
O1012 Co987 1.941 . S
O1012 C1019 1.266 . S
H1013 C1015 0.959 . S
H1014 C1015 0.961 . S
C1015 C1005 1.510 . S
C1015 H1013 0.959 . S
C1015 H1014 0.961 . S
C1015 H1016 0.960 . S
H1016 C1015 0.960 . S
H1017 N997 0.862 . S
O1018 Co986 1.920 . S
O1018 C991 1.289 . S
C1019 O1011 1.258 . S
C1019 O1012 1.266 . S
Co1020 O1023 1.970 . S
Co1020 N1037 1.989 . S
Co1020 O1045 1.967 . S
Co1020 O1052 1.920 . S
Co1021 O1024 1.966 . S
Co1021 N1030 2.022 . S
Co1021 N1038 1.993 . S
Co1021 O1046 1.941 . S
C1022 O1023 1.258 . S
C1022 O1024 1.263 . S
O1023 Co1020 1.970 . S
O1023 C1022 1.258 . S
O1024 Co1021 1.966 . S
O1024 C1022 1.263 . S
C1025 O1026 1.235 . S
C1025 O1052 1.289 . S
O1026 C1025 1.235 . S
C1027 C1029 1.400 . S
C1027 N1030 1.351 . S
C1027 C1032 1.501 . S
C1028 C1029 1.387 . S
C1028 N1031 1.341 . S
C1029 C1027 1.400 . S
C1029 C1028 1.387 . S
N1030 Co1021 2.022 . S
N1030 C1027 1.351 . S
N1030 N1031 1.365 . S
N1031 C1028 1.341 . S
N1031 N1030 1.365 . S
N1031 H1051 0.862 . S
C1032 C1027 1.501 . S
C1032 H1033 0.961 . S
C1032 H1034 0.961 . S
C1032 H1035 0.960 . S
H1033 C1032 0.961 . S
H1034 C1032 0.961 . S
H1035 C1032 0.960 . S
C1036 N1037 1.342 . S
C1036 C1040 1.401 . S
C1036 C1041 1.499 . S
N1037 Co1020 1.989 . S
N1037 C1036 1.342 . S
N1037 N1038 1.388 . S
N1038 Co1021 1.993 . S
N1038 N1037 1.388 . S
N1038 C1039 1.346 . S
C1039 N1038 1.346 . S
C1039 C1040 1.396 . S
C1039 C1049 1.510 . S
C1040 C1036 1.401 . S
C1040 C1039 1.396 . S
C1041 C1036 1.499 . S
C1041 H1042 0.959 . S
C1041 H1043 0.960 . S
C1041 H1044 0.961 . S
H1042 C1041 0.959 . S
H1043 C1041 0.960 . S
H1044 C1041 0.961 . S
O1045 Co1020 1.967 . S
O1045 C1053 1.258 . S
O1046 Co1021 1.941 . S
O1046 C1053 1.266 . S
H1047 C1049 0.959 . S
H1048 C1049 0.961 . S
C1049 C1039 1.510 . S
C1049 H1047 0.959 . S
C1049 H1048 0.961 . S
C1049 H1050 0.960 . S
H1050 C1049 0.960 . S
H1051 N1031 0.862 . S
O1052 Co1020 1.920 . S
O1052 C1025 1.289 . S
C1053 O1045 1.258 . S
C1053 O1046 1.266 . S
Co1054 O1057 1.970 . S
Co1054 N1071 1.989 . S
Co1054 O1079 1.967 . S
Co1054 O1086 1.920 . S
Co1055 O1058 1.966 . S
Co1055 N1064 2.022 . S
Co1055 N1072 1.993 . S
Co1055 O1080 1.941 . S
C1056 O1057 1.258 . S
C1056 O1058 1.263 . S
O1057 Co1054 1.970 . S
O1057 C1056 1.258 . S
O1058 Co1055 1.966 . S
O1058 C1056 1.263 . S
C1059 O1060 1.235 . S
C1059 O1086 1.289 . S
O1060 C1059 1.235 . S
C1061 C1063 1.400 . S
C1061 N1064 1.351 . S
C1061 C1066 1.501 . S
C1062 C1063 1.387 . S
C1062 N1065 1.341 . S
C1063 C1061 1.400 . S
C1063 C1062 1.387 . S
N1064 Co1055 2.022 . S
N1064 C1061 1.351 . S
N1064 N1065 1.365 . S
N1065 C1062 1.341 . S
N1065 N1064 1.365 . S
N1065 H1085 0.862 . S
C1066 C1061 1.501 . S
C1066 H1067 0.961 . S
C1066 H1068 0.961 . S
C1066 H1069 0.960 . S
H1067 C1066 0.961 . S
H1068 C1066 0.961 . S
H1069 C1066 0.960 . S
C1070 N1071 1.342 . S
C1070 C1074 1.401 . S
C1070 C1075 1.499 . S
N1071 Co1054 1.989 . S
N1071 C1070 1.342 . S
N1071 N1072 1.388 . S
N1072 Co1055 1.993 . S
N1072 N1071 1.388 . S
N1072 C1073 1.346 . S
C1073 N1072 1.346 . S
C1073 C1074 1.396 . S
C1073 C1083 1.510 . S
C1074 C1070 1.401 . S
C1074 C1073 1.396 . S
C1075 C1070 1.499 . S
C1075 H1076 0.959 . S
C1075 H1077 0.960 . S
C1075 H1078 0.961 . S
H1076 C1075 0.959 . S
H1077 C1075 0.960 . S
H1078 C1075 0.961 . S
O1079 Co1054 1.967 . S
O1079 C1087 1.258 . S
O1080 Co1055 1.941 . S
O1080 C1087 1.266 . S
H1081 C1083 0.959 . S
H1082 C1083 0.961 . S
C1083 C1073 1.510 . S
C1083 H1081 0.959 . S
C1083 H1082 0.961 . S
C1083 H1084 0.960 . S
H1084 C1083 0.960 . S
H1085 N1065 0.862 . S
O1086 Co1054 1.920 . S
O1086 C1059 1.289 . S
C1087 O1079 1.258 . S
C1087 O1080 1.266 . S
Co1088 O1091 1.970 . S
Co1088 N1105 1.989 . S
Co1088 O1113 1.967 . S
Co1088 O1120 1.920 . S
Co1089 O1092 1.966 . S
Co1089 N1098 2.022 . S
Co1089 N1106 1.993 . S
Co1089 O1114 1.941 . S
C1090 O1091 1.258 . S
C1090 O1092 1.263 . S
O1091 Co1088 1.970 . S
O1091 C1090 1.258 . S
O1092 Co1089 1.966 . S
O1092 C1090 1.263 . S
C1093 O1094 1.235 . S
C1093 O1120 1.289 . S
O1094 C1093 1.235 . S
C1095 C1097 1.400 . S
C1095 N1098 1.351 . S
C1095 C1100 1.501 . S
C1096 C1097 1.387 . S
C1096 N1099 1.341 . S
C1097 C1095 1.400 . S
C1097 C1096 1.387 . S
N1098 Co1089 2.022 . S
N1098 C1095 1.351 . S
N1098 N1099 1.365 . S
N1099 C1096 1.341 . S
N1099 N1098 1.365 . S
N1099 H1119 0.862 . S
C1100 C1095 1.501 . S
C1100 H1101 0.961 . S
C1100 H1102 0.961 . S
C1100 H1103 0.960 . S
H1101 C1100 0.961 . S
H1102 C1100 0.961 . S
H1103 C1100 0.960 . S
C1104 N1105 1.342 . S
C1104 C1108 1.401 . S
C1104 C1109 1.499 . S
N1105 Co1088 1.989 . S
N1105 C1104 1.342 . S
N1105 N1106 1.388 . S
N1106 Co1089 1.993 . S
N1106 N1105 1.388 . S
N1106 C1107 1.346 . S
C1107 N1106 1.346 . S
C1107 C1108 1.396 . S
C1107 C1117 1.510 . S
C1108 C1104 1.401 . S
C1108 C1107 1.396 . S
C1109 C1104 1.499 . S
C1109 H1110 0.959 . S
C1109 H1111 0.960 . S
C1109 H1112 0.961 . S
H1110 C1109 0.959 . S
H1111 C1109 0.960 . S
H1112 C1109 0.961 . S
O1113 Co1088 1.967 . S
O1113 C1121 1.258 . S
O1114 Co1089 1.941 . S
O1114 C1121 1.266 . S
H1115 C1117 0.959 . S
H1116 C1117 0.961 . S
C1117 C1107 1.510 . S
C1117 H1115 0.959 . S
C1117 H1116 0.961 . S
C1117 H1118 0.960 . S
H1118 C1117 0.960 . S
H1119 N1099 0.862 . S
O1120 Co1088 1.920 . S
O1120 C1093 1.289 . S
C1121 O1113 1.258 . S
C1121 O1114 1.266 . S
Co1122 O1125 1.970 . S
Co1122 N1139 1.989 . S
Co1122 O1147 1.967 . S
Co1122 O1154 1.920 . S
Co1123 O1126 1.966 . S
Co1123 N1132 2.022 . S
Co1123 N1140 1.993 . S
Co1123 O1148 1.941 . S
C1124 O1125 1.258 . S
C1124 O1126 1.263 . S
O1125 Co1122 1.970 . S
O1125 C1124 1.258 . S
O1126 Co1123 1.966 . S
O1126 C1124 1.263 . S
C1127 O1128 1.235 . S
C1127 O1154 1.289 . S
O1128 C1127 1.235 . S
C1129 C1131 1.400 1_556 S
C1129 N1132 1.351 . S
C1129 C1134 1.501 . S
C1130 C1131 1.387 . S
C1130 N1133 1.341 1_554 S
C1131 C1129 1.400 1_554 S
C1131 C1130 1.387 . S
N1132 Co1123 2.022 . S
N1132 C1129 1.351 . S
N1132 N1133 1.365 . S
N1133 C1130 1.341 1_556 S
N1133 N1132 1.365 . S
N1133 H1153 0.862 . S
C1134 C1129 1.501 . S
C1134 H1135 0.961 . S
C1134 H1136 0.961 . S
C1134 H1137 0.960 . S
H1135 C1134 0.961 . S
H1136 C1134 0.961 . S
H1137 C1134 0.960 . S
C1138 N1139 1.342 . S
C1138 C1142 1.401 . S
C1138 C1143 1.499 . S
N1139 Co1122 1.989 . S
N1139 C1138 1.342 . S
N1139 N1140 1.388 . S
N1140 Co1123 1.993 . S
N1140 N1139 1.388 . S
N1140 C1141 1.346 . S
C1141 N1140 1.346 . S
C1141 C1142 1.396 . S
C1141 C1151 1.510 . S
C1142 C1138 1.401 . S
C1142 C1141 1.396 . S
C1143 C1138 1.499 . S
C1143 H1144 0.959 . S
C1143 H1145 0.960 . S
C1143 H1146 0.961 . S
H1144 C1143 0.959 . S
H1145 C1143 0.960 . S
H1146 C1143 0.961 . S
O1147 Co1122 1.967 . S
O1147 C1155 1.258 . S
O1148 Co1123 1.941 . S
O1148 C1155 1.266 . S
H1149 C1151 0.959 . S
H1150 C1151 0.961 . S
C1151 C1141 1.510 . S
C1151 H1149 0.959 . S
C1151 H1150 0.961 . S
C1151 H1152 0.960 . S
H1152 C1151 0.960 . S
H1153 N1133 0.862 . S
O1154 Co1122 1.920 . S
O1154 C1127 1.289 . S
C1155 O1147 1.258 . S
C1155 O1148 1.266 . S
Co1156 O1159 1.970 . S
Co1156 N1173 1.989 . S
Co1156 O1181 1.967 . S
Co1156 O1188 1.920 . S
Co1157 O1160 1.966 . S
Co1157 N1166 2.022 . S
Co1157 N1174 1.993 . S
Co1157 O1182 1.941 . S
C1158 O1159 1.258 . S
C1158 O1160 1.263 . S
O1159 Co1156 1.970 . S
O1159 C1158 1.258 . S
O1160 Co1157 1.966 . S
O1160 C1158 1.263 . S
C1161 O1162 1.235 . S
C1161 O1188 1.289 . S
O1162 C1161 1.235 . S
C1163 C1165 1.400 1_556 S
C1163 N1166 1.351 . S
C1163 C1168 1.501 . S
C1164 C1165 1.387 . S
C1164 N1167 1.341 1_554 S
C1165 C1163 1.400 1_554 S
C1165 C1164 1.387 . S
N1166 Co1157 2.022 . S
N1166 C1163 1.351 . S
N1166 N1167 1.365 . S
N1167 C1164 1.341 1_556 S
N1167 N1166 1.365 . S
N1167 H1187 0.862 . S
C1168 C1163 1.501 . S
C1168 H1169 0.961 . S
C1168 H1170 0.961 . S
C1168 H1171 0.960 . S
H1169 C1168 0.961 . S
H1170 C1168 0.961 . S
H1171 C1168 0.960 . S
C1172 N1173 1.342 . S
C1172 C1176 1.401 . S
C1172 C1177 1.499 . S
N1173 Co1156 1.989 . S
N1173 C1172 1.342 . S
N1173 N1174 1.388 . S
N1174 Co1157 1.993 . S
N1174 N1173 1.388 . S
N1174 C1175 1.346 . S
C1175 N1174 1.346 . S
C1175 C1176 1.396 . S
C1175 C1185 1.510 . S
C1176 C1172 1.401 . S
C1176 C1175 1.396 . S
C1177 C1172 1.499 . S
C1177 H1178 0.959 . S
C1177 H1179 0.960 . S
C1177 H1180 0.961 . S
H1178 C1177 0.959 . S
H1179 C1177 0.960 . S
H1180 C1177 0.961 . S
O1181 Co1156 1.967 . S
O1181 C1189 1.258 . S
O1182 Co1157 1.941 . S
O1182 C1189 1.266 . S
H1183 C1185 0.959 . S
H1184 C1185 0.961 . S
C1185 C1175 1.510 . S
C1185 H1183 0.959 . S
C1185 H1184 0.961 . S
C1185 H1186 0.960 . S
H1186 C1185 0.960 . S
H1187 N1167 0.862 . S
O1188 Co1156 1.920 . S
O1188 C1161 1.289 . S
C1189 O1181 1.258 . S
C1189 O1182 1.266 . S
Co1190 O1193 1.970 . S
Co1190 N1207 1.989 . S
Co1190 O1215 1.967 . S
Co1190 O1222 1.920 . S
Co1191 O1194 1.966 . S
Co1191 N1200 2.022 . S
Co1191 N1208 1.993 . S
Co1191 O1216 1.941 . S
C1192 O1193 1.258 . S
C1192 O1194 1.263 . S
O1193 Co1190 1.970 . S
O1193 C1192 1.258 . S
O1194 Co1191 1.966 . S
O1194 C1192 1.263 . S
C1195 O1196 1.235 . S
C1195 O1222 1.289 . S
O1196 C1195 1.235 . S
C1197 C1199 1.400 1_556 S
C1197 N1200 1.351 . S
C1197 C1202 1.501 . S
C1198 C1199 1.387 . S
C1198 N1201 1.341 1_554 S
C1199 C1197 1.400 1_554 S
C1199 C1198 1.387 . S
N1200 Co1191 2.022 . S
N1200 C1197 1.351 . S
N1200 N1201 1.365 . S
N1201 C1198 1.341 1_556 S
N1201 N1200 1.365 . S
N1201 H1221 0.862 . S
C1202 C1197 1.501 . S
C1202 H1203 0.961 . S
C1202 H1204 0.961 . S
C1202 H1205 0.960 . S
H1203 C1202 0.961 . S
H1204 C1202 0.961 . S
H1205 C1202 0.960 . S
C1206 N1207 1.342 . S
C1206 C1210 1.401 . S
C1206 C1211 1.499 . S
N1207 Co1190 1.989 . S
N1207 C1206 1.342 . S
N1207 N1208 1.388 . S
N1208 Co1191 1.993 . S
N1208 N1207 1.388 . S
N1208 C1209 1.346 . S
C1209 N1208 1.346 . S
C1209 C1210 1.396 . S
C1209 C1219 1.510 . S
C1210 C1206 1.401 . S
C1210 C1209 1.396 . S
C1211 C1206 1.499 . S
C1211 H1212 0.959 . S
C1211 H1213 0.960 . S
C1211 H1214 0.961 . S
H1212 C1211 0.959 . S
H1213 C1211 0.960 . S
H1214 C1211 0.961 . S
O1215 Co1190 1.967 . S
O1215 C1223 1.258 . S
O1216 Co1191 1.941 . S
O1216 C1223 1.266 . S
H1217 C1219 0.959 . S
H1218 C1219 0.961 . S
C1219 C1209 1.510 . S
C1219 H1217 0.959 . S
C1219 H1218 0.961 . S
C1219 H1220 0.960 . S
H1220 C1219 0.960 . S
H1221 N1201 0.862 . S
O1222 Co1190 1.920 . S
O1222 C1195 1.289 . S
C1223 O1215 1.258 . S
C1223 O1216 1.266 . S
H1224 C1230 0.930 . S
H1225 C1233 0.930 1_556 S
H1226 C1234 0.930 . S
H1227 C1235 0.930 . S
H1228 C1238 0.930 . S
H1229 C1239 0.930 . S
C1230 H1224 0.930 . S
C1230 C1231 1.355 . S
C1230 C1232 1.415 . S
C1231 C1230 1.355 . S
C1231 C1233 1.419 . S
C1232 C1230 1.415 . S
C1232 C1237 1.425 . S
C1232 C1239 1.409 . S
C1233 H1225 0.930 1_554 S
C1233 C1231 1.419 . S
C1233 C1234 1.362 . S
C1234 H1226 0.930 . S
C1234 C1233 1.362 . S
C1234 C1237 1.409 . S
C1235 H1227 0.930 . S
C1235 C1236 1.355 . S
C1235 C1237 1.415 . S
C1236 C1235 1.355 . S
C1236 C1238 1.419 . S
C1237 C1232 1.425 . S
C1237 C1234 1.409 . S
C1237 C1235 1.415 . S
C1238 H1228 0.930 . S
C1238 C1236 1.419 . S
C1238 C1239 1.362 . S
C1239 H1229 0.930 . S
C1239 C1232 1.409 . S
C1239 C1238 1.362 . S
H1240 C1246 0.930 . S
H1241 C1249 0.930 . S
H1242 C1250 0.930 . S
H1243 C1251 0.930 . S
H1244 C1254 0.930 1_556 S
H1245 C1255 0.930 . S
C1246 H1240 0.930 . S
C1246 C1247 1.355 . S
C1246 C1248 1.415 . S
C1247 C1246 1.355 . S
C1247 C1249 1.419 . S
C1248 C1246 1.415 . S
C1248 C1253 1.425 . S
C1248 C1255 1.409 . S
C1249 H1241 0.930 . S
C1249 C1247 1.419 . S
C1249 C1250 1.362 . S
C1250 H1242 0.930 . S
C1250 C1249 1.362 . S
C1250 C1253 1.409 . S
C1251 H1243 0.930 . S
C1251 C1252 1.355 . S
C1251 C1253 1.415 . S
C1252 C1251 1.355 . S
C1252 C1254 1.419 . S
C1253 C1248 1.425 . S
C1253 C1250 1.409 . S
C1253 C1251 1.415 . S
C1254 H1244 0.930 1_554 S
C1254 C1252 1.419 . S
C1254 C1255 1.362 . S
C1255 H1245 0.930 . S
C1255 C1248 1.409 . S
C1255 C1254 1.362 . S
H1256 C1262 0.930 . S
H1257 C1265 0.930 1_556 S
H1258 C1266 0.930 . S
H1259 C1267 0.930 . S
H1260 C1270 0.930 . S
H1261 C1271 0.930 . S
C1262 H1256 0.930 . S
C1262 C1263 1.355 . S
C1262 C1264 1.415 . S
C1263 C1262 1.355 . S
C1263 C1265 1.419 . S
C1264 C1262 1.415 . S
C1264 C1269 1.425 . S
C1264 C1271 1.409 . S
C1265 H1257 0.930 1_554 S
C1265 C1263 1.419 . S
C1265 C1266 1.362 . S
C1266 H1258 0.930 . S
C1266 C1265 1.362 . S
C1266 C1269 1.409 . S
C1267 H1259 0.930 . S
C1267 C1268 1.355 . S
C1267 C1269 1.415 . S
C1268 C1267 1.355 . S
C1268 C1270 1.419 . S
C1269 C1264 1.425 . S
C1269 C1266 1.409 . S
C1269 C1267 1.415 . S
C1270 H1260 0.930 . S
C1270 C1268 1.419 . S
C1270 C1271 1.362 . S
C1271 H1261 0.930 . S
C1271 C1264 1.409 . S
C1271 C1270 1.362 . S
H1272 C1278 0.930 . S
H1273 C1281 0.930 . S
H1274 C1282 0.930 . S
H1275 C1283 0.930 . S
H1276 C1286 0.930 . S
H1277 C1287 0.930 . S
C1278 H1272 0.930 . S
C1278 C1279 1.355 . S
C1278 C1280 1.415 . S
C1279 C1278 1.355 . S
C1279 C1281 1.419 . S
C1280 C1278 1.415 . S
C1280 C1285 1.425 . S
C1280 C1287 1.409 . S
C1281 H1273 0.930 . S
C1281 C1279 1.419 . S
C1281 C1282 1.362 . S
C1282 H1274 0.930 . S
C1282 C1281 1.362 . S
C1282 C1285 1.409 . S
C1283 H1275 0.930 . S
C1283 C1284 1.355 . S
C1283 C1285 1.415 . S
C1284 C1283 1.355 . S
C1284 C1286 1.419 . S
C1285 C1280 1.425 . S
C1285 C1282 1.409 . S
C1285 C1283 1.415 . S
C1286 H1276 0.930 . S
C1286 C1284 1.419 . S
C1286 C1287 1.362 . S
C1287 H1277 0.930 . S
C1287 C1280 1.409 . S
C1287 C1286 1.362 . S
H1288 C1294 0.930 . S
H1289 C1297 0.930 . S
H1290 C1298 0.930 . S
H1291 C1299 0.930 . S
H1292 C1302 0.930 . S
H1293 C1303 0.930 . S
C1294 H1288 0.930 . S
C1294 C1295 1.355 . S
C1294 C1296 1.415 . S
C1295 C1294 1.355 . S
C1295 C1297 1.419 . S
C1296 C1294 1.415 . S
C1296 C1301 1.425 . S
C1296 C1303 1.409 . S
C1297 H1289 0.930 . S
C1297 C1295 1.419 . S
C1297 C1298 1.362 . S
C1298 H1290 0.930 . S
C1298 C1297 1.362 . S
C1298 C1301 1.409 . S
C1299 H1291 0.930 . S
C1299 C1300 1.355 . S
C1299 C1301 1.415 . S
C1300 C1299 1.355 . S
C1300 C1302 1.419 . S
C1301 C1296 1.425 . S
C1301 C1298 1.409 . S
C1301 C1299 1.415 . S
C1302 H1292 0.930 . S
C1302 C1300 1.419 . S
C1302 C1303 1.362 . S
C1303 H1293 0.930 . S
C1303 C1296 1.409 . S
C1303 C1302 1.362 . S
H1304 C1310 0.930 . S
H1305 C1313 0.930 . S
H1306 C1314 0.930 . S
H1307 C1315 0.930 . S
H1308 C1318 0.930 . S
H1309 C1319 0.930 . S
C1310 H1304 0.930 . S
C1310 C1311 1.355 . S
C1310 C1312 1.415 . S
C1311 C1310 1.355 . S
C1311 C1313 1.419 . S
C1312 C1310 1.415 . S
C1312 C1317 1.425 . S
C1312 C1319 1.409 . S
C1313 H1305 0.930 . S
C1313 C1311 1.419 . S
C1313 C1314 1.362 . S
C1314 H1306 0.930 . S
C1314 C1313 1.362 . S
C1314 C1317 1.409 . S
C1315 H1307 0.930 . S
C1315 C1316 1.355 . S
C1315 C1317 1.415 . S
C1316 C1315 1.355 . S
C1316 C1318 1.419 . S
C1317 C1312 1.425 . S
C1317 C1314 1.409 . S
C1317 C1315 1.415 . S
C1318 H1308 0.930 . S
C1318 C1316 1.419 . S
C1318 C1319 1.362 . S
C1319 H1309 0.930 . S
C1319 C1312 1.409 . S
C1319 C1318 1.362 . S
H1320 C1326 0.930 . S
H1321 C1329 0.930 . S
H1322 C1330 0.930 . S
H1323 C1331 0.930 . S
H1324 C1334 0.930 . S
H1325 C1335 0.930 . S
C1326 H1320 0.930 . S
C1326 C1327 1.355 . S
C1326 C1328 1.415 . S
C1327 C1326 1.355 . S
C1327 C1329 1.419 . S
C1328 C1326 1.415 . S
C1328 C1333 1.425 . S
C1328 C1335 1.409 . S
C1329 H1321 0.930 . S
C1329 C1327 1.419 . S
C1329 C1330 1.362 . S
C1330 H1322 0.930 . S
C1330 C1329 1.362 . S
C1330 C1333 1.409 . S
C1331 H1323 0.930 . S
C1331 C1332 1.355 . S
C1331 C1333 1.415 . S
C1332 C1331 1.355 . S
C1332 C1334 1.419 . S
C1333 C1328 1.425 . S
C1333 C1330 1.409 . S
C1333 C1331 1.415 . S
C1334 H1324 0.930 . S
C1334 C1332 1.419 . S
C1334 C1335 1.362 . S
C1335 H1325 0.930 . S
C1335 C1328 1.409 . S
C1335 C1334 1.362 . S
H1336 C1342 0.930 . S
H1337 C1345 0.930 . S
H1338 C1346 0.930 . S
H1339 C1347 0.930 . S
H1340 C1350 0.930 . S
H1341 C1351 0.930 . S
C1342 H1336 0.930 . S
C1342 C1343 1.355 . S
C1342 C1344 1.415 . S
C1343 C1342 1.355 . S
C1343 C1345 1.419 . S
C1344 C1342 1.415 . S
C1344 C1349 1.425 . S
C1344 C1351 1.409 . S
C1345 H1337 0.930 . S
C1345 C1343 1.419 . S
C1345 C1346 1.362 . S
C1346 H1338 0.930 . S
C1346 C1345 1.362 . S
C1346 C1349 1.409 . S
C1347 H1339 0.930 . S
C1347 C1348 1.355 . S
C1347 C1349 1.415 . S
C1348 C1347 1.355 . S
C1348 C1350 1.419 . S
C1349 C1344 1.425 . S
C1349 C1346 1.409 . S
C1349 C1347 1.415 . S
C1350 H1340 0.930 . S
C1350 C1348 1.419 . S
C1350 C1351 1.362 . S
C1351 H1341 0.930 . S
C1351 C1344 1.409 . S
C1351 C1350 1.362 . S
H1352 C1358 0.930 . S
H1353 C1361 0.930 1_554 S
H1354 C1362 0.930 . S
H1355 C1363 0.930 . S
H1356 C1366 0.930 . S
H1357 C1367 0.930 . S
C1358 H1352 0.930 . S
C1358 C1359 1.355 . S
C1358 C1360 1.415 . S
C1359 C1358 1.355 . S
C1359 C1361 1.419 . S
C1360 C1358 1.415 . S
C1360 C1365 1.425 . S
C1360 C1367 1.409 . S
C1361 H1353 0.930 1_556 S
C1361 C1359 1.419 . S
C1361 C1362 1.362 . S
C1362 H1354 0.930 . S
C1362 C1361 1.362 . S
C1362 C1365 1.409 . S
C1363 H1355 0.930 . S
C1363 C1364 1.355 . S
C1363 C1365 1.415 . S
C1364 C1363 1.355 . S
C1364 C1366 1.419 . S
C1365 C1360 1.425 . S
C1365 C1362 1.409 . S
C1365 C1363 1.415 . S
C1366 H1356 0.930 . S
C1366 C1364 1.419 . S
C1366 C1367 1.362 . S
C1367 H1357 0.930 . S
C1367 C1360 1.409 . S
C1367 C1366 1.362 . S
H1368 C1374 0.930 . S
H1369 C1377 0.930 . S
H1370 C1378 0.930 . S
H1371 C1379 0.930 . S
H1372 C1382 0.930 1_556 S
H1373 C1383 0.930 . S
C1374 H1368 0.930 . S
C1374 C1375 1.355 . S
C1374 C1376 1.415 . S
C1375 C1374 1.355 . S
C1375 C1377 1.419 . S
C1376 C1374 1.415 . S
C1376 C1381 1.425 . S
C1376 C1383 1.409 . S
C1377 H1369 0.930 . S
C1377 C1375 1.419 . S
C1377 C1378 1.362 . S
C1378 H1370 0.930 . S
C1378 C1377 1.362 . S
C1378 C1381 1.409 . S
C1379 H1371 0.930 . S
C1379 C1380 1.355 . S
C1379 C1381 1.415 . S
C1380 C1379 1.355 . S
C1380 C1382 1.419 . S
C1381 C1376 1.425 . S
C1381 C1378 1.409 . S
C1381 C1379 1.415 . S
C1382 H1372 0.930 1_554 S
C1382 C1380 1.419 . S
C1382 C1383 1.362 . S
C1383 H1373 0.930 . S
C1383 C1376 1.409 . S
C1383 C1382 1.362 . S
H1384 C1390 0.930 . S
H1385 C1393 0.930 . S
H1386 C1394 0.930 . S
H1387 C1395 0.930 . S
H1388 C1398 0.930 . S
H1389 C1399 0.930 . S
C1390 H1384 0.930 . S
C1390 C1391 1.355 . S
C1390 C1392 1.415 . S
C1391 C1390 1.355 . S
C1391 C1393 1.419 . S
C1392 C1390 1.415 . S
C1392 C1397 1.425 . S
C1392 C1399 1.409 . S
C1393 H1385 0.930 . S
C1393 C1391 1.419 . S
C1393 C1394 1.362 . S
C1394 H1386 0.930 . S
C1394 C1393 1.362 . S
C1394 C1397 1.409 . S
C1395 H1387 0.930 . S
C1395 C1396 1.355 . S
C1395 C1397 1.415 . S
C1396 C1395 1.355 . S
C1396 C1398 1.419 . S
C1397 C1392 1.425 . S
C1397 C1394 1.409 . S
C1397 C1395 1.415 . S
C1398 H1388 0.930 . S
C1398 C1396 1.419 . S
C1398 C1399 1.362 . S
C1399 H1389 0.930 . S
C1399 C1392 1.409 . S
C1399 C1398 1.362 . S
H1400 C1406 0.930 . S
H1401 C1409 0.930 . S
H1402 C1410 0.930 . S
H1403 C1411 0.930 . S
H1404 C1414 0.930 . S
H1405 C1415 0.930 . S
C1406 H1400 0.930 . S
C1406 C1407 1.355 . S
C1406 C1408 1.415 . S
C1407 C1406 1.355 . S
C1407 C1409 1.419 . S
C1408 C1406 1.415 . S
C1408 C1413 1.425 . S
C1408 C1415 1.409 . S
C1409 H1401 0.930 . S
C1409 C1407 1.419 . S
C1409 C1410 1.362 . S
C1410 H1402 0.930 . S
C1410 C1409 1.362 . S
C1410 C1413 1.409 . S
C1411 H1403 0.930 . S
C1411 C1412 1.355 . S
C1411 C1413 1.415 . S
C1412 C1411 1.355 . S
C1412 C1414 1.419 . S
C1413 C1408 1.425 . S
C1413 C1410 1.409 . S
C1413 C1411 1.415 . S
C1414 H1404 0.930 . S
C1414 C1412 1.419 . S
C1414 C1415 1.362 . S
C1415 H1405 0.930 . S
C1415 C1408 1.409 . S
C1415 C1414 1.362 . S
H1416 C1422 0.930 . S
H1417 C1425 0.930 . S
H1418 C1426 0.930 . S
H1419 C1427 0.930 . S
H1420 C1430 0.930 . S
H1421 C1431 0.930 . S
C1422 H1416 0.930 . S
C1422 C1423 1.355 . S
C1422 C1424 1.415 . S
C1423 C1422 1.355 . S
C1423 C1425 1.419 . S
C1424 C1422 1.415 . S
C1424 C1429 1.425 . S
C1424 C1431 1.409 . S
C1425 H1417 0.930 . S
C1425 C1423 1.419 . S
C1425 C1426 1.362 . S
C1426 H1418 0.930 . S
C1426 C1425 1.362 . S
C1426 C1429 1.409 . S
C1427 H1419 0.930 . S
C1427 C1428 1.355 . S
C1427 C1429 1.415 . S
C1428 C1427 1.355 . S
C1428 C1430 1.419 . S
C1429 C1424 1.425 . S
C1429 C1426 1.409 . S
C1429 C1427 1.415 . S
C1430 H1420 0.930 . S
C1430 C1428 1.419 . S
C1430 C1431 1.362 . S
C1431 H1421 0.930 . S
C1431 C1424 1.409 . S
C1431 C1430 1.362 . S
H1432 C1438 0.930 . S
H1433 C1441 0.930 . S
H1434 C1442 0.930 1_565 S
H1435 C1443 0.930 . S
H1436 C1446 0.930 . S
H1437 C1447 0.930 1_545 S
C1438 H1432 0.930 . S
C1438 C1439 1.355 . S
C1438 C1440 1.415 . S
C1439 C1438 1.355 . S
C1439 C1441 1.419 . S
C1440 C1438 1.415 . S
C1440 C1445 1.425 1_545 S
C1440 C1447 1.407 1_545 S
C1441 H1433 0.930 . S
C1441 C1439 1.419 . S
C1441 C1442 1.364 . S
C1442 H1434 0.930 1_545 S
C1442 C1441 1.364 . S
C1442 C1445 1.408 1_545 S
C1443 H1435 0.930 . S
C1443 C1444 1.355 . S
C1443 C1445 1.415 . S
C1444 C1443 1.355 . S
C1444 C1446 1.419 . S
C1445 C1440 1.425 1_565 S
C1445 C1442 1.408 1_565 S
C1445 C1443 1.415 . S
C1446 H1436 0.930 . S
C1446 C1444 1.419 . S
C1446 C1447 1.364 . S
C1447 H1437 0.930 1_565 S
C1447 C1440 1.407 1_565 S
C1447 C1446 1.364 . S
H1448 C1454 0.930 . S
H1449 C1457 0.930 . S
H1450 C1458 0.930 . S
H1451 C1459 0.930 . S
H1452 C1462 0.930 . S
H1453 C1463 0.930 . S
C1454 H1448 0.930 . S
C1454 C1455 1.355 . S
C1454 C1456 1.415 . S
C1455 C1454 1.355 . S
C1455 C1457 1.419 . S
C1456 C1454 1.415 . S
C1456 C1461 1.425 1_455 S
C1456 C1463 1.409 . S
C1457 H1449 0.930 . S
C1457 C1455 1.419 . S
C1457 C1458 1.362 1_455 S
C1458 H1450 0.930 . S
C1458 C1457 1.362 1_655 S
C1458 C1461 1.409 . S
C1459 H1451 0.930 . S
C1459 C1460 1.355 . S
C1459 C1461 1.415 . S
C1460 C1459 1.355 . S
C1460 C1462 1.419 . S
C1461 C1456 1.425 1_655 S
C1461 C1458 1.409 . S
C1461 C1459 1.415 . S
C1462 H1452 0.930 . S
C1462 C1460 1.419 . S
C1462 C1463 1.362 1_655 S
C1463 H1453 0.930 . S
C1463 C1456 1.409 . S
C1463 C1462 1.362 1_455 S
H1464 C1470 0.930 . S
H1465 C1473 0.930 . S
H1466 C1474 0.930 . S
H1467 C1475 0.930 . S
H1468 C1478 0.930 . S
H1469 C1479 0.930 . S
C1470 H1464 0.930 . S
C1470 C1471 1.355 . S
C1470 C1472 1.415 . S
C1471 C1470 1.355 . S
C1471 C1473 1.419 . S
C1472 C1470 1.415 . S
C1472 C1477 1.425 . S
C1472 C1479 1.409 . S
C1473 H1465 0.930 . S
C1473 C1471 1.419 . S
C1473 C1474 1.362 . S
C1474 H1466 0.930 . S
C1474 C1473 1.362 . S
C1474 C1477 1.409 . S
C1475 H1467 0.930 . S
C1475 C1476 1.355 . S
C1475 C1477 1.415 . S
C1476 C1475 1.355 . S
C1476 C1478 1.419 . S
C1477 C1472 1.425 . S
C1477 C1474 1.409 . S
C1477 C1475 1.415 . S
C1478 H1468 0.930 . S
C1478 C1476 1.419 . S
C1478 C1479 1.362 . S
C1479 H1469 0.930 . S
C1479 C1472 1.409 . S
C1479 C1478 1.362 . S
H1480 C1486 0.930 . S
H1481 C1489 0.930 . S
H1482 C1490 0.930 . S
H1483 C1491 0.930 . S
H1484 C1494 0.930 . S
H1485 C1495 0.930 . S
C1486 H1480 0.930 . S
C1486 C1487 1.355 . S
C1486 C1488 1.415 . S
C1487 C1486 1.355 . S
C1487 C1489 1.419 . S
C1488 C1486 1.415 . S
C1488 C1493 1.425 1_565 S
C1488 C1495 1.409 . S
C1489 H1481 0.930 . S
C1489 C1487 1.419 . S
C1489 C1490 1.362 1_565 S
C1490 H1482 0.930 . S
C1490 C1489 1.362 1_545 S
C1490 C1493 1.409 . S
C1491 H1483 0.930 . S
C1491 C1492 1.355 . S
C1491 C1493 1.415 . S
C1492 C1491 1.355 . S
C1492 C1494 1.419 . S
C1493 C1488 1.425 1_545 S
C1493 C1490 1.409 . S
C1493 C1491 1.415 . S
C1494 H1484 0.930 . S
C1494 C1492 1.419 . S
C1494 C1495 1.362 1_545 S
C1495 H1485 0.930 . S
C1495 C1488 1.409 . S
C1495 C1494 1.362 1_565 S
H1496 C1502 0.930 . S
H1497 C1505 0.930 . S
H1498 C1506 0.875 1_455 S
H1499 C1507 0.930 . S
H1500 C1510 0.930 . S
H1501 C1511 0.876 1_655 S
C1502 H1496 0.930 . S
C1502 C1503 1.355 . S
C1502 C1504 1.415 . S
C1503 C1502 1.355 . S
C1503 C1505 1.419 . S
C1504 C1502 1.415 . S
C1504 C1509 1.425 1_655 S
C1504 C1511 1.411 1_655 S
C1505 H1497 0.930 . S
C1505 C1503 1.419 . S
C1505 C1506 1.418 . S
C1506 H1498 0.875 1_655 S
C1506 C1505 1.418 . S
C1506 C1509 1.411 1_655 S
C1507 H1499 0.930 . S
C1507 C1508 1.355 . S
C1507 C1509 1.415 . S
C1508 C1507 1.355 . S
C1508 C1510 1.419 . S
C1509 C1504 1.425 1_455 S
C1509 C1506 1.411 1_455 S
C1509 C1507 1.415 . S
C1510 H1500 0.930 . S
C1510 C1508 1.419 . S
C1510 C1511 1.417 . S
C1511 H1501 0.876 1_455 S
C1511 C1504 1.411 1_455 S
C1511 C1510 1.417 . S
H1512 C1518 0.930 . S
H1513 C1521 0.930 . S
H1514 C1522 0.930 . S
H1515 C1523 0.930 . S
H1516 C1526 0.930 . S
H1517 C1527 0.930 . S
C1518 H1512 0.930 . S
C1518 C1519 1.355 1_556 S
C1518 C1520 1.415 . S
C1519 C1518 1.355 1_554 S
C1519 C1521 1.419 . S
C1520 C1518 1.415 . S
C1520 C1525 1.425 1_556 S
C1520 C1527 1.409 . S
C1521 H1513 0.930 . S
C1521 C1519 1.419 . S
C1521 C1522 1.362 . S
C1522 H1514 0.930 . S
C1522 C1521 1.362 . S
C1522 C1525 1.409 . S
C1523 H1515 0.930 . S
C1523 C1524 1.355 . S
C1523 C1525 1.415 . S
C1524 C1523 1.355 . S
C1524 C1526 1.419 1_554 S
C1525 C1520 1.425 1_554 S
C1525 C1522 1.409 . S
C1525 C1523 1.415 . S
C1526 H1516 0.930 . S
C1526 C1524 1.419 1_556 S
C1526 C1527 1.362 . S
C1527 H1517 0.930 . S
C1527 C1520 1.409 . S
C1527 C1526 1.362 . S
H1528 C1534 0.933 . S
H1529 C1537 0.930 . S
H1530 C1538 0.930 . S
H1531 C1539 0.930 . S
H1532 C1542 0.930 . S
H1533 C1543 0.930 . S
C1534 H1528 0.933 . S
C1534 C1535 1.351 1_556 S
C1534 C1536 1.414 1_556 S
C1535 C1534 1.351 1_554 S
C1535 C1537 1.419 . S
C1536 C1534 1.414 1_554 S
C1536 C1541 1.425 . S
C1536 C1543 1.409 1_554 S
C1537 H1529 0.930 . S
C1537 C1535 1.419 . S
C1537 C1538 1.362 . S
C1538 H1530 0.930 . S
C1538 C1537 1.362 . S
C1538 C1541 1.409 . S
C1539 H1531 0.930 . S
C1539 C1540 1.355 . S
C1539 C1541 1.415 . S
C1540 C1539 1.355 . S
C1540 C1542 1.419 1_554 S
C1541 C1536 1.425 . S
C1541 C1538 1.409 . S
C1541 C1539 1.415 . S
C1542 H1532 0.930 . S
C1542 C1540 1.419 1_556 S
C1542 C1543 1.362 . S
C1543 H1533 0.930 . S
C1543 C1536 1.409 1_556 S
C1543 C1542 1.362 . S
H1544 C1550 0.930 1_556 S
H1545 C1553 0.930 . S
H1546 C1554 0.930 . S
H1547 C1555 0.930 . S
H1548 C1558 0.930 . S
H1549 C1559 0.930 . S
C1550 H1544 0.930 1_554 S
C1550 C1551 1.355 . S
C1550 C1552 1.415 . S
C1551 C1550 1.355 . S
C1551 C1553 1.419 . S
C1552 C1550 1.415 . S
C1552 C1557 1.425 . S
C1552 C1559 1.409 1_554 S
C1553 H1545 0.930 . S
C1553 C1551 1.419 . S
C1553 C1554 1.362 . S
C1554 H1546 0.930 . S
C1554 C1553 1.362 . S
C1554 C1557 1.409 . S
C1555 H1547 0.930 . S
C1555 C1556 1.355 . S
C1555 C1557 1.415 . S
C1556 C1555 1.355 . S
C1556 C1558 1.419 1_554 S
C1557 C1552 1.425 . S
C1557 C1554 1.409 . S
C1557 C1555 1.415 . S
C1558 H1548 0.930 . S
C1558 C1556 1.419 1_556 S
C1558 C1559 1.362 . S
C1559 H1549 0.930 . S
C1559 C1552 1.409 1_556 S
C1559 C1558 1.362 . S
H1560 C1566 0.930 . S
H1561 C1569 0.930 . S
H1562 C1570 0.930 . S
H1563 C1571 0.930 . S
H1564 C1574 0.930 . S
H1565 C1575 0.930 . S
C1566 H1560 0.930 . S
C1566 C1567 1.355 1_554 S
C1566 C1568 1.415 . S
C1567 C1566 1.355 1_556 S
C1567 C1569 1.419 . S
C1568 C1566 1.415 . S
C1568 C1573 1.425 1_554 S
C1568 C1575 1.409 . S
C1569 H1561 0.930 . S
C1569 C1567 1.419 . S
C1569 C1570 1.362 . S
C1570 H1562 0.930 . S
C1570 C1569 1.362 . S
C1570 C1573 1.409 . S
C1571 H1563 0.930 . S
C1571 C1572 1.355 . S
C1571 C1573 1.415 . S
C1572 C1571 1.355 . S
C1572 C1574 1.419 1_556 S
C1573 C1568 1.425 1_556 S
C1573 C1570 1.409 . S
C1573 C1571 1.415 . S
C1574 H1564 0.930 . S
C1574 C1572 1.419 1_554 S
C1574 C1575 1.362 . S
C1575 H1565 0.930 . S
C1575 C1568 1.409 . S
C1575 C1574 1.362 . S
H1576 C1582 0.930 1_554 S
H1577 C1585 0.930 . S
H1578 C1586 0.930 . S
H1579 C1587 0.930 . S
H1580 C1590 0.930 . S
H1581 C1591 0.930 . S
C1582 H1576 0.930 1_556 S
C1582 C1583 1.355 . S
C1582 C1584 1.415 . S
C1583 C1582 1.355 . S
C1583 C1585 1.419 . S
C1584 C1582 1.415 . S
C1584 C1589 1.425 . S
C1584 C1591 1.409 1_556 S
C1585 H1577 0.930 . S
C1585 C1583 1.419 . S
C1585 C1586 1.362 . S
C1586 H1578 0.930 . S
C1586 C1585 1.362 . S
C1586 C1589 1.409 . S
C1587 H1579 0.930 . S
C1587 C1588 1.355 . S
C1587 C1589 1.415 . S
C1588 C1587 1.355 . S
C1588 C1590 1.419 1_556 S
C1589 C1584 1.425 . S
C1589 C1586 1.409 . S
C1589 C1587 1.415 . S
C1590 H1580 0.930 . S
C1590 C1588 1.419 1_554 S
C1590 C1591 1.362 . S
C1591 H1581 0.930 . S
C1591 C1584 1.409 1_554 S
C1591 C1590 1.362 . S
H1592 C1598 0.930 1_554 S
H1593 C1601 0.930 . S
H1594 C1602 0.930 . S
H1595 C1603 0.930 . S
H1596 C1606 0.930 . S
H1597 C1607 0.930 . S
C1598 H1592 0.930 1_556 S
C1598 C1599 1.355 . S
C1598 C1600 1.415 . S
C1599 C1598 1.355 . S
C1599 C1601 1.419 . S
C1600 C1598 1.415 . S
C1600 C1605 1.425 . S
C1600 C1607 1.409 1_556 S
C1601 H1593 0.930 . S
C1601 C1599 1.419 . S
C1601 C1602 1.362 . S
C1602 H1594 0.930 . S
C1602 C1601 1.362 . S
C1602 C1605 1.409 . S
C1603 H1595 0.930 . S
C1603 C1604 1.355 . S
C1603 C1605 1.415 . S
C1604 C1603 1.355 . S
C1604 C1606 1.419 1_556 S
C1605 C1600 1.425 . S
C1605 C1602 1.409 . S
C1605 C1603 1.415 . S
C1606 H1596 0.930 . S
C1606 C1604 1.419 1_554 S
C1606 C1607 1.362 . S
C1607 H1597 0.930 . S
C1607 C1600 1.409 1_554 S
C1607 C1606 1.362 . S
H1608 C1614 0.930 . S
H1609 C1617 0.930 . S
H1610 C1618 0.930 . S
H1611 C1619 0.930 . S
H1612 C1622 0.930 . S
H1613 C1623 0.930 . S
C1614 H1608 0.930 . S
C1614 C1615 1.355 . S
C1614 C1616 1.415 . S
C1615 C1614 1.355 . S
C1615 C1617 1.419 . S
C1616 C1614 1.415 . S
C1616 C1621 1.425 . S
C1616 C1623 1.409 . S
C1617 H1609 0.930 . S
C1617 C1615 1.419 . S
C1617 C1618 1.362 . S
C1618 H1610 0.930 . S
C1618 C1617 1.362 . S
C1618 C1621 1.409 . S
C1619 H1611 0.930 . S
C1619 C1620 1.355 . S
C1619 C1621 1.415 . S
C1620 C1619 1.355 . S
C1620 C1622 1.419 . S
C1621 C1616 1.425 . S
C1621 C1618 1.409 . S
C1621 C1619 1.415 . S
C1622 H1612 0.930 . S
C1622 C1620 1.419 . S
C1622 C1623 1.362 . S
C1623 H1613 0.930 . S
C1623 C1616 1.409 . S
C1623 C1622 1.362 . S
H1624 C1630 0.930 . S
H1625 C1633 0.930 . S
H1626 C1634 0.930 . S
H1627 C1635 0.930 . S
H1628 C1638 0.930 . S
H1629 C1639 0.930 . S
C1630 H1624 0.930 . S
C1630 C1631 1.355 . S
C1630 C1632 1.415 . S
C1631 C1630 1.355 . S
C1631 C1633 1.419 . S
C1632 C1630 1.415 . S
C1632 C1637 1.425 . S
C1632 C1639 1.409 . S
C1633 H1625 0.930 . S
C1633 C1631 1.419 . S
C1633 C1634 1.362 . S
C1634 H1626 0.930 . S
C1634 C1633 1.362 . S
C1634 C1637 1.409 . S
C1635 H1627 0.930 . S
C1635 C1636 1.355 . S
C1635 C1637 1.415 . S
C1636 C1635 1.355 . S
C1636 C1638 1.419 . S
C1637 C1632 1.425 . S
C1637 C1634 1.409 . S
C1637 C1635 1.415 . S
C1638 H1628 0.930 . S
C1638 C1636 1.419 . S
C1638 C1639 1.362 . S
C1639 H1629 0.930 . S
C1639 C1632 1.409 . S
C1639 C1638 1.362 . S
H1640 C1646 0.930 . S
H1641 C1649 0.930 . S
H1642 C1650 0.930 . S
H1643 C1651 0.930 . S
H1644 C1654 0.930 . S
H1645 C1655 0.930 . S
C1646 H1640 0.930 . S
C1646 C1647 1.355 . S
C1646 C1648 1.415 . S
C1647 C1646 1.355 . S
C1647 C1649 1.419 . S
C1648 C1646 1.415 . S
C1648 C1653 1.425 . S
C1648 C1655 1.409 . S
C1649 H1641 0.930 . S
C1649 C1647 1.419 . S
C1649 C1650 1.362 . S
C1650 H1642 0.930 . S
C1650 C1649 1.362 . S
C1650 C1653 1.409 . S
C1651 H1643 0.930 . S
C1651 C1652 1.355 . S
C1651 C1653 1.415 . S
C1652 C1651 1.355 . S
C1652 C1654 1.419 . S
C1653 C1648 1.425 . S
C1653 C1650 1.409 . S
C1653 C1651 1.415 . S
C1654 H1644 0.930 . S
C1654 C1652 1.419 . S
C1654 C1655 1.362 . S
C1655 H1645 0.930 . S
C1655 C1648 1.409 . S
C1655 C1654 1.362 . S
H1656 C1662 0.930 . S
H1657 C1665 0.930 . S
H1658 C1666 0.930 . S
H1659 C1667 0.930 . S
H1660 C1670 0.930 . S
H1661 C1671 0.930 . S
C1662 H1656 0.930 . S
C1662 C1663 1.355 . S
C1662 C1664 1.415 . S
C1663 C1662 1.355 . S
C1663 C1665 1.419 . S
C1664 C1662 1.415 . S
C1664 C1669 1.425 . S
C1664 C1671 1.409 . S
C1665 H1657 0.930 . S
C1665 C1663 1.419 . S
C1665 C1666 1.362 . S
C1666 H1658 0.930 . S
C1666 C1665 1.362 . S
C1666 C1669 1.409 . S
C1667 H1659 0.930 . S
C1667 C1668 1.355 . S
C1667 C1669 1.415 . S
C1668 C1667 1.355 . S
C1668 C1670 1.419 . S
C1669 C1664 1.425 . S
C1669 C1666 1.409 . S
C1669 C1667 1.415 . S
C1670 H1660 0.930 . S
C1670 C1668 1.419 . S
C1670 C1671 1.362 . S
C1671 H1661 0.930 . S
C1671 C1664 1.409 . S
C1671 C1670 1.362 . S
H1672 C1678 0.930 . S
H1673 C1681 0.930 . S
H1674 C1682 0.930 . S
H1675 C1683 0.930 . S
H1676 C1686 0.930 . S
H1677 C1687 0.930 . S
C1678 H1672 0.930 . S
C1678 C1679 1.355 . S
C1678 C1680 1.415 . S
C1679 C1678 1.355 . S
C1679 C1681 1.419 . S
C1680 C1678 1.415 . S
C1680 C1685 1.425 . S
C1680 C1687 1.409 . S
C1681 H1673 0.930 . S
C1681 C1679 1.419 . S
C1681 C1682 1.362 . S
C1682 H1674 0.930 . S
C1682 C1681 1.362 . S
C1682 C1685 1.409 . S
C1683 H1675 0.930 . S
C1683 C1684 1.355 . S
C1683 C1685 1.415 . S
C1684 C1683 1.355 . S
C1684 C1686 1.419 . S
C1685 C1680 1.425 . S
C1685 C1682 1.409 . S
C1685 C1683 1.415 . S
C1686 H1676 0.930 . S
C1686 C1684 1.419 . S
C1686 C1687 1.362 . S
C1687 H1677 0.930 . S
C1687 C1680 1.409 . S
C1687 C1686 1.362 . S
H1688 C1694 0.930 . S
H1689 C1697 0.930 . S
H1690 C1698 0.930 . S
H1691 C1699 0.930 . S
H1692 C1702 0.930 . S
H1693 C1703 0.930 . S
C1694 H1688 0.930 . S
C1694 C1695 1.355 . S
C1694 C1696 1.415 . S
C1695 C1694 1.355 . S
C1695 C1697 1.419 . S
C1696 C1694 1.415 . S
C1696 C1701 1.425 . S
C1696 C1703 1.409 . S
C1697 H1689 0.930 . S
C1697 C1695 1.419 . S
C1697 C1698 1.362 . S
C1698 H1690 0.930 . S
C1698 C1697 1.362 . S
C1698 C1701 1.409 . S
C1699 H1691 0.930 . S
C1699 C1700 1.355 . S
C1699 C1701 1.415 . S
C1700 C1699 1.355 . S
C1700 C1702 1.419 . S
C1701 C1696 1.425 . S
C1701 C1698 1.409 . S
C1701 C1699 1.415 . S
C1702 H1692 0.930 . S
C1702 C1700 1.419 . S
C1702 C1703 1.362 . S
C1703 H1693 0.930 . S
C1703 C1696 1.409 . S
C1703 C1702 1.362 . S
H1704 C1710 0.930 . S
H1705 C1713 0.930 . S
H1706 C1714 0.930 . S
H1707 C1715 0.930 . S
H1708 C1718 0.930 . S
H1709 C1719 0.930 . S
C1710 H1704 0.930 . S
C1710 C1711 1.355 . S
C1710 C1712 1.415 . S
C1711 C1710 1.355 . S
C1711 C1713 1.419 . S
C1712 C1710 1.415 . S
C1712 C1717 1.425 . S
C1712 C1719 1.409 . S
C1713 H1705 0.930 . S
C1713 C1711 1.419 . S
C1713 C1714 1.362 . S
C1714 H1706 0.930 . S
C1714 C1713 1.362 . S
C1714 C1717 1.409 . S
C1715 H1707 0.930 . S
C1715 C1716 1.355 . S
C1715 C1717 1.415 . S
C1716 C1715 1.355 . S
C1716 C1718 1.419 . S
C1717 C1712 1.425 . S
C1717 C1714 1.409 . S
C1717 C1715 1.415 . S
C1718 H1708 0.930 . S
C1718 C1716 1.419 . S
C1718 C1719 1.362 . S
C1719 H1709 0.930 . S
C1719 C1712 1.409 . S
C1719 C1718 1.362 . S
H1720 C1726 0.930 . S
H1721 C1729 0.930 . S
H1722 C1730 0.930 . S
H1723 C1731 0.930 . S
H1724 C1734 0.930 . S
H1725 C1735 0.930 . S
C1726 H1720 0.930 . S
C1726 C1727 1.355 . S
C1726 C1728 1.415 . S
C1727 C1726 1.355 . S
C1727 C1729 1.419 . S
C1728 C1726 1.415 . S
C1728 C1733 1.425 . S
C1728 C1735 1.409 . S
C1729 H1721 0.930 . S
C1729 C1727 1.419 . S
C1729 C1730 1.362 . S
C1730 H1722 0.930 . S
C1730 C1729 1.362 . S
C1730 C1733 1.409 . S
C1731 H1723 0.930 . S
C1731 C1732 1.355 . S
C1731 C1733 1.415 . S
C1732 C1731 1.355 . S
C1732 C1734 1.419 . S
C1733 C1728 1.425 . S
C1733 C1730 1.409 . S
C1733 C1731 1.415 . S
C1734 H1724 0.930 . S
C1734 C1732 1.419 . S
C1734 C1735 1.362 . S
C1735 H1725 0.930 . S
C1735 C1728 1.409 . S
C1735 C1734 1.362 . S
H1736 C1742 0.930 . S
H1737 C1745 0.930 . S
H1738 C1746 0.930 . S
H1739 C1747 0.930 . S
H1740 C1750 0.930 . S
H1741 C1751 0.930 . S
C1742 H1736 0.930 . S
C1742 C1743 1.355 . S
C1742 C1744 1.415 . S
C1743 C1742 1.355 . S
C1743 C1745 1.419 . S
C1744 C1742 1.415 . S
C1744 C1749 1.425 . S
C1744 C1751 1.409 . S
C1745 H1737 0.930 . S
C1745 C1743 1.419 . S
C1745 C1746 1.362 . S
C1746 H1738 0.930 . S
C1746 C1745 1.362 . S
C1746 C1749 1.409 . S
C1747 H1739 0.930 . S
C1747 C1748 1.355 . S
C1747 C1749 1.415 . S
C1748 C1747 1.355 . S
C1748 C1750 1.419 . S
C1749 C1744 1.425 . S
C1749 C1746 1.409 . S
C1749 C1747 1.415 . S
C1750 H1740 0.930 . S
C1750 C1748 1.419 . S
C1750 C1751 1.362 . S
C1751 H1741 0.930 . S
C1751 C1744 1.409 . S
C1751 C1750 1.362 . S
H1752 C1758 0.930 . S
H1753 C1761 0.930 . S
H1754 C1762 0.930 . S
H1755 C1763 0.930 . S
H1756 C1766 0.930 . S
H1757 C1767 0.930 . S
C1758 H1752 0.930 . S
C1758 C1759 1.355 . S
C1758 C1760 1.415 . S
C1759 C1758 1.355 . S
C1759 C1761 1.419 . S
C1760 C1758 1.415 . S
C1760 C1765 1.425 . S
C1760 C1767 1.409 . S
C1761 H1753 0.930 . S
C1761 C1759 1.419 . S
C1761 C1762 1.362 . S
C1762 H1754 0.930 . S
C1762 C1761 1.362 . S
C1762 C1765 1.409 . S
C1763 H1755 0.930 . S
C1763 C1764 1.355 . S
C1763 C1765 1.415 . S
C1764 C1763 1.355 . S
C1764 C1766 1.419 . S
C1765 C1760 1.425 . S
C1765 C1762 1.409 . S
C1765 C1763 1.415 . S
C1766 H1756 0.930 . S
C1766 C1764 1.419 . S
C1766 C1767 1.362 . S
C1767 H1757 0.930 . S
C1767 C1760 1.409 . S
C1767 C1766 1.362 . S
H1768 C1774 0.930 . S
H1769 C1777 0.930 . S
H1770 C1778 0.930 . S
H1771 C1779 0.930 . S
H1772 C1782 0.930 . S
H1773 C1783 0.930 . S
C1774 H1768 0.930 . S
C1774 C1775 1.355 . S
C1774 C1776 1.415 . S
C1775 C1774 1.355 . S
C1775 C1777 1.419 . S
C1776 C1774 1.415 . S
C1776 C1781 1.425 . S
C1776 C1783 1.409 . S
C1777 H1769 0.930 . S
C1777 C1775 1.419 . S
C1777 C1778 1.362 . S
C1778 H1770 0.930 . S
C1778 C1777 1.362 . S
C1778 C1781 1.409 . S
C1779 H1771 0.930 . S
C1779 C1780 1.355 . S
C1779 C1781 1.415 . S
C1780 C1779 1.355 . S
C1780 C1782 1.419 . S
C1781 C1776 1.425 . S
C1781 C1778 1.409 . S
C1781 C1779 1.415 . S
C1782 H1772 0.930 . S
C1782 C1780 1.419 . S
C1782 C1783 1.362 . S
C1783 H1773 0.930 . S
C1783 C1776 1.409 . S
C1783 C1782 1.362 . S
H1784 C1790 0.930 . S
H1785 C1793 0.930 . S
H1786 C1794 0.930 . S
H1787 C1795 0.930 . S
H1788 C1798 0.930 . S
H1789 C1799 0.930 . S
C1790 H1784 0.930 . S
C1790 C1791 1.355 . S
C1790 C1792 1.415 . S
C1791 C1790 1.355 . S
C1791 C1793 1.419 . S
C1792 C1790 1.415 . S
C1792 C1797 1.425 . S
C1792 C1799 1.409 . S
C1793 H1785 0.930 . S
C1793 C1791 1.419 . S
C1793 C1794 1.362 . S
C1794 H1786 0.930 . S
C1794 C1793 1.362 . S
C1794 C1797 1.409 . S
C1795 H1787 0.930 . S
C1795 C1796 1.355 . S
C1795 C1797 1.415 . S
C1796 C1795 1.355 . S
C1796 C1798 1.419 . S
C1797 C1792 1.425 . S
C1797 C1794 1.409 . S
C1797 C1795 1.415 . S
C1798 H1788 0.930 . S
C1798 C1796 1.419 . S
C1798 C1799 1.362 . S
C1799 H1789 0.930 . S
C1799 C1792 1.409 . S
C1799 C1798 1.362 . S
H1800 C1806 0.930 . S
H1801 C1809 0.930 . S
H1802 C1810 0.930 . S
H1803 C1811 0.930 . S
H1804 C1814 0.930 . S
H1805 C1815 0.930 . S
C1806 H1800 0.930 . S
C1806 C1807 1.355 . S
C1806 C1808 1.415 . S
C1807 C1806 1.355 . S
C1807 C1809 1.419 . S
C1808 C1806 1.415 . S
C1808 C1813 1.425 . S
C1808 C1815 1.409 . S
C1809 H1801 0.930 . S
C1809 C1807 1.419 . S
C1809 C1810 1.362 . S
C1810 H1802 0.930 . S
C1810 C1809 1.362 . S
C1810 C1813 1.409 . S
C1811 H1803 0.930 . S
C1811 C1812 1.355 . S
C1811 C1813 1.415 . S
C1812 C1811 1.355 . S
C1812 C1814 1.419 . S
C1813 C1808 1.425 . S
C1813 C1810 1.409 . S
C1813 C1811 1.415 . S
C1814 H1804 0.930 . S
C1814 C1812 1.419 . S
C1814 C1815 1.362 . S
C1815 H1805 0.930 . S
C1815 C1808 1.409 . S
C1815 C1814 1.362 . S
H1816 C1822 0.930 . S
H1817 C1825 0.930 . S
H1818 C1826 0.930 . S
H1819 C1827 0.930 . S
H1820 C1830 0.930 . S
H1821 C1831 0.930 . S
C1822 H1816 0.930 . S
C1822 C1823 1.355 . S
C1822 C1824 1.415 . S
C1823 C1822 1.355 . S
C1823 C1825 1.419 . S
C1824 C1822 1.415 . S
C1824 C1829 1.425 . S
C1824 C1831 1.409 . S
C1825 H1817 0.930 . S
C1825 C1823 1.419 . S
C1825 C1826 1.362 . S
C1826 H1818 0.930 . S
C1826 C1825 1.362 . S
C1826 C1829 1.409 . S
C1827 H1819 0.930 . S
C1827 C1828 1.355 . S
C1827 C1829 1.415 . S
C1828 C1827 1.355 . S
C1828 C1830 1.419 . S
C1829 C1824 1.425 . S
C1829 C1826 1.409 . S
C1829 C1827 1.415 . S
C1830 H1820 0.930 . S
C1830 C1828 1.419 . S
C1830 C1831 1.362 . S
C1831 H1821 0.930 . S
C1831 C1824 1.409 . S
C1831 C1830 1.362 . S
H1832 C1838 0.930 . S
H1833 C1841 0.930 . S
H1834 C1842 0.930 . S
H1835 C1843 0.930 . S
H1836 C1846 0.930 . S
H1837 C1847 0.930 . S
C1838 H1832 0.930 . S
C1838 C1839 1.355 . S
C1838 C1840 1.415 . S
C1839 C1838 1.355 . S
C1839 C1841 1.419 . S
C1840 C1838 1.415 . S
C1840 C1845 1.425 . S
C1840 C1847 1.409 . S
C1841 H1833 0.930 . S
C1841 C1839 1.419 . S
C1841 C1842 1.362 . S
C1842 H1834 0.930 . S
C1842 C1841 1.362 . S
C1842 C1845 1.409 . S
C1843 H1835 0.930 . S
C1843 C1844 1.355 . S
C1843 C1845 1.415 . S
C1844 C1843 1.355 . S
C1844 C1846 1.419 . S
C1845 C1840 1.425 . S
C1845 C1842 1.409 . S
C1845 C1843 1.415 . S
C1846 H1836 0.930 . S
C1846 C1844 1.419 . S
C1846 C1847 1.362 . S
C1847 H1837 0.930 . S
C1847 C1840 1.409 . S
C1847 C1846 1.362 . S
H1848 C1854 0.930 . S
H1849 C1857 0.930 . S
H1850 C1858 0.930 . S
H1851 C1859 0.930 . S
H1852 C1862 0.930 . S
H1853 C1863 0.930 . S
C1854 H1848 0.930 . S
C1854 C1855 1.355 . S
C1854 C1856 1.415 . S
C1855 C1854 1.355 . S
C1855 C1857 1.419 . S
C1856 C1854 1.415 . S
C1856 C1861 1.425 . S
C1856 C1863 1.409 . S
C1857 H1849 0.930 . S
C1857 C1855 1.419 . S
C1857 C1858 1.362 . S
C1858 H1850 0.930 . S
C1858 C1857 1.362 . S
C1858 C1861 1.409 . S
C1859 H1851 0.930 . S
C1859 C1860 1.355 . S
C1859 C1861 1.415 . S
C1860 C1859 1.355 . S
C1860 C1862 1.419 . S
C1861 C1856 1.425 . S
C1861 C1858 1.409 . S
C1861 C1859 1.415 . S
C1862 H1852 0.930 . S
C1862 C1860 1.419 . S
C1862 C1863 1.362 . S
C1863 H1853 0.930 . S
C1863 C1856 1.409 . S
C1863 C1862 1.362 . S
H1864 C1870 0.930 . S
H1865 C1873 0.930 1_556 S
H1866 C1874 0.930 . S
H1867 C1875 0.930 . S
H1868 C1878 0.930 . S
H1869 C1879 0.930 . S
C1870 H1864 0.930 . S
C1870 C1871 1.355 . S
C1870 C1872 1.415 . S
C1871 C1870 1.355 . S
C1871 C1873 1.419 . S
C1872 C1870 1.415 . S
C1872 C1877 1.425 . S
C1872 C1879 1.409 . S
C1873 H1865 0.930 1_554 S
C1873 C1871 1.419 . S
C1873 C1874 1.362 . S
C1874 H1866 0.930 . S
C1874 C1873 1.362 . S
C1874 C1877 1.409 . S
C1875 H1867 0.930 . S
C1875 C1876 1.355 . S
C1875 C1877 1.415 . S
C1876 C1875 1.355 . S
C1876 C1878 1.419 . S
C1877 C1872 1.425 . S
C1877 C1874 1.409 . S
C1877 C1875 1.415 . S
C1878 H1868 0.930 . S
C1878 C1876 1.419 . S
C1878 C1879 1.362 . S
C1879 H1869 0.930 . S
C1879 C1872 1.409 . S
C1879 C1878 1.362 . S
H1880 C1886 0.930 . S
H1881 C1889 0.930 . S
H1882 C1890 0.930 . S
H1883 C1891 0.930 . S
H1884 C1894 0.930 . S
H1885 C1895 0.930 . S
C1886 H1880 0.930 . S
C1886 C1887 1.355 . S
C1886 C1888 1.415 . S
C1887 C1886 1.355 . S
C1887 C1889 1.419 . S
C1888 C1886 1.415 . S
C1888 C1893 1.425 . S
C1888 C1895 1.409 . S
C1889 H1881 0.930 . S
C1889 C1887 1.419 . S
C1889 C1890 1.362 . S
C1890 H1882 0.930 . S
C1890 C1889 1.362 . S
C1890 C1893 1.409 . S
C1891 H1883 0.930 . S
C1891 C1892 1.355 . S
C1891 C1893 1.415 . S
C1892 C1891 1.355 . S
C1892 C1894 1.419 . S
C1893 C1888 1.425 . S
C1893 C1890 1.409 . S
C1893 C1891 1.415 . S
C1894 H1884 0.930 . S
C1894 C1892 1.419 . S
C1894 C1895 1.362 . S
C1895 H1885 0.930 . S
C1895 C1888 1.409 . S
C1895 C1894 1.362 . S
H1896 C1902 0.930 . S
H1897 C1905 0.930 . S
H1898 C1906 0.930 . S
H1899 C1907 0.930 . S
H1900 C1910 0.930 . S
H1901 C1911 0.930 . S
C1902 H1896 0.930 . S
C1902 C1903 1.355 . S
C1902 C1904 1.415 . S
C1903 C1902 1.355 . S
C1903 C1905 1.419 . S
C1904 C1902 1.415 . S
C1904 C1909 1.425 . S
C1904 C1911 1.409 . S
C1905 H1897 0.930 . S
C1905 C1903 1.419 . S
C1905 C1906 1.362 . S
C1906 H1898 0.930 . S
C1906 C1905 1.362 . S
C1906 C1909 1.409 . S
C1907 H1899 0.930 . S
C1907 C1908 1.355 . S
C1907 C1909 1.415 . S
C1908 C1907 1.355 . S
C1908 C1910 1.419 . S
C1909 C1904 1.425 . S
C1909 C1906 1.409 . S
C1909 C1907 1.415 . S
C1910 H1900 0.930 . S
C1910 C1908 1.419 . S
C1910 C1911 1.362 . S
C1911 H1901 0.930 . S
C1911 C1904 1.409 . S
C1911 C1910 1.362 . S
H1912 C1918 0.930 . S
H1913 C1921 0.930 1_556 S
H1914 C1922 0.930 . S
H1915 C1923 0.930 . S
H1916 C1926 0.930 . S
H1917 C1927 0.930 . S
C1918 H1912 0.930 . S
C1918 C1919 1.355 . S
C1918 C1920 1.415 . S
C1919 C1918 1.355 . S
C1919 C1921 1.419 . S
C1920 C1918 1.415 . S
C1920 C1925 1.425 . S
C1920 C1927 1.409 . S
C1921 H1913 0.930 1_554 S
C1921 C1919 1.419 . S
C1921 C1922 1.362 . S
C1922 H1914 0.930 . S
C1922 C1921 1.362 . S
C1922 C1925 1.409 . S
C1923 H1915 0.930 . S
C1923 C1924 1.355 . S
C1923 C1925 1.415 . S
C1924 C1923 1.355 . S
C1924 C1926 1.419 . S
C1925 C1920 1.425 . S
C1925 C1922 1.409 . S
C1925 C1923 1.415 . S
C1926 H1916 0.930 . S
C1926 C1924 1.419 . S
C1926 C1927 1.362 . S
C1927 H1917 0.930 . S
C1927 C1920 1.409 . S
C1927 C1926 1.362 . S
H1928 C1934 0.930 . S
H1929 C1937 0.930 . S
H1930 C1938 0.930 . S
H1931 C1939 0.930 . S
H1932 C1942 0.930 . S
H1933 C1943 0.930 . S
C1934 H1928 0.930 . S
C1934 C1935 1.355 . S
C1934 C1936 1.415 . S
C1935 C1934 1.355 . S
C1935 C1937 1.419 . S
C1936 C1934 1.415 . S
C1936 C1941 1.425 . S
C1936 C1943 1.409 . S
C1937 H1929 0.930 . S
C1937 C1935 1.419 . S
C1937 C1938 1.362 . S
C1938 H1930 0.930 . S
C1938 C1937 1.362 . S
C1938 C1941 1.409 . S
C1939 H1931 0.930 . S
C1939 C1940 1.355 . S
C1939 C1941 1.415 . S
C1940 C1939 1.355 . S
C1940 C1942 1.419 . S
C1941 C1936 1.425 . S
C1941 C1938 1.409 . S
C1941 C1939 1.415 . S
C1942 H1932 0.930 . S
C1942 C1940 1.419 . S
C1942 C1943 1.362 . S
C1943 H1933 0.930 . S
C1943 C1936 1.409 . S
C1943 C1942 1.362 . S
H1944 C1950 0.930 . S
H1945 C1953 0.930 . S
H1946 C1954 0.930 . S
H1947 C1955 0.930 . S
H1948 C1958 0.930 1_554 S
H1949 C1959 0.930 . S
C1950 H1944 0.930 . S
C1950 C1951 1.355 . S
C1950 C1952 1.415 . S
C1951 C1950 1.355 . S
C1951 C1953 1.419 . S
C1952 C1950 1.415 . S
C1952 C1957 1.425 . S
C1952 C1959 1.409 . S
C1953 H1945 0.930 . S
C1953 C1951 1.419 . S
C1953 C1954 1.362 . S
C1954 H1946 0.930 . S
C1954 C1953 1.362 . S
C1954 C1957 1.409 . S
C1955 H1947 0.930 . S
C1955 C1956 1.355 . S
C1955 C1957 1.415 . S
C1956 C1955 1.355 . S
C1956 C1958 1.419 . S
C1957 C1952 1.425 . S
C1957 C1954 1.409 . S
C1957 C1955 1.415 . S
C1958 H1948 0.930 1_556 S
C1958 C1956 1.419 . S
C1958 C1959 1.362 . S
C1959 H1949 0.930 . S
C1959 C1952 1.409 . S
C1959 C1958 1.362 . S
H1960 C1966 0.930 . S
H1961 C1969 0.930 . S
H1962 C1970 0.930 . S
H1963 C1971 0.930 . S
H1964 C1974 0.930 . S
H1965 C1975 0.930 . S
C1966 H1960 0.930 . S
C1966 C1967 1.355 . S
C1966 C1968 1.415 . S
C1967 C1966 1.355 . S
C1967 C1969 1.419 . S
C1968 C1966 1.415 . S
C1968 C1973 1.425 . S
C1968 C1975 1.409 . S
C1969 H1961 0.930 . S
C1969 C1967 1.419 . S
C1969 C1970 1.362 . S
C1970 H1962 0.930 . S
C1970 C1969 1.362 . S
C1970 C1973 1.409 . S
C1971 H1963 0.930 . S
C1971 C1972 1.355 . S
C1971 C1973 1.415 . S
C1972 C1971 1.355 . S
C1972 C1974 1.419 . S
C1973 C1968 1.425 . S
C1973 C1970 1.409 . S
C1973 C1971 1.415 . S
C1974 H1964 0.930 . S
C1974 C1972 1.419 . S
C1974 C1975 1.362 . S
C1975 H1965 0.930 . S
C1975 C1968 1.409 . S
C1975 C1974 1.362 . S
H1976 C1982 0.930 . S
H1977 C1985 0.930 . S
H1978 C1986 0.930 . S
H1979 C1987 0.930 . S
H1980 C1990 0.930 . S
H1981 C1991 0.930 . S
C1982 H1976 0.930 . S
C1982 C1983 1.355 . S
C1982 C1984 1.415 . S
C1983 C1982 1.355 . S
C1983 C1985 1.419 . S
C1984 C1982 1.415 . S
C1984 C1989 1.425 . S
C1984 C1991 1.409 . S
C1985 H1977 0.930 . S
C1985 C1983 1.419 . S
C1985 C1986 1.362 . S
C1986 H1978 0.930 . S
C1986 C1985 1.362 . S
C1986 C1989 1.409 . S
C1987 H1979 0.930 . S
C1987 C1988 1.355 . S
C1987 C1989 1.415 . S
C1988 C1987 1.355 . S
C1988 C1990 1.419 . S
C1989 C1984 1.425 . S
C1989 C1986 1.409 . S
C1989 C1987 1.415 . S
C1990 H1980 0.930 . S
C1990 C1988 1.419 . S
C1990 C1991 1.362 . S
C1991 H1981 0.930 . S
C1991 C1984 1.409 . S
C1991 C1990 1.362 . S
H1992 C1998 0.930 . S
H1993 C2001 0.930 . S
H1994 C2002 0.930 . S
H1995 C2003 0.930 . S
H1996 C2006 0.930 . S
H1997 C2007 0.930 . S
C1998 H1992 0.930 . S
C1998 C1999 1.355 . S
C1998 C2000 1.415 . S
C1999 C1998 1.355 . S
C1999 C2001 1.419 . S
C2000 C1998 1.415 . S
C2000 C2005 1.425 1_455 S
C2000 C2007 1.409 . S
C2001 H1993 0.930 . S
C2001 C1999 1.419 . S
C2001 C2002 1.362 1_455 S
C2002 H1994 0.930 . S
C2002 C2001 1.362 1_655 S
C2002 C2005 1.409 . S
C2003 H1995 0.930 . S
C2003 C2004 1.355 . S
C2003 C2005 1.415 . S
C2004 C2003 1.355 . S
C2004 C2006 1.419 . S
C2005 C2000 1.425 1_655 S
C2005 C2002 1.409 . S
C2005 C2003 1.415 . S
C2006 H1996 0.930 . S
C2006 C2004 1.419 . S
C2006 C2007 1.362 1_655 S
C2007 H1997 0.930 . S
C2007 C2000 1.409 . S
C2007 C2006 1.362 1_455 S
H2008 C2014 0.930 . S
H2009 C2017 0.930 . S
H2010 C2018 0.930 . S
H2011 C2019 0.930 . S
H2012 C2022 0.930 . S
H2013 C2023 0.930 . S
C2014 H2008 0.930 . S
C2014 C2015 1.355 . S
C2014 C2016 1.415 . S
C2015 C2014 1.355 . S
C2015 C2017 1.419 . S
C2016 C2014 1.415 . S
C2016 C2021 1.425 . S
C2016 C2023 1.409 . S
C2017 H2009 0.930 . S
C2017 C2015 1.419 . S
C2017 C2018 1.362 . S
C2018 H2010 0.930 . S
C2018 C2017 1.362 . S
C2018 C2021 1.409 . S
C2019 H2011 0.930 . S
C2019 C2020 1.355 . S
C2019 C2021 1.415 . S
C2020 C2019 1.355 . S
C2020 C2022 1.419 . S
C2021 C2016 1.425 . S
C2021 C2018 1.409 . S
C2021 C2019 1.415 . S
C2022 H2012 0.930 . S
C2022 C2020 1.419 . S
C2022 C2023 1.362 . S
C2023 H2013 0.930 . S
C2023 C2016 1.409 . S
C2023 C2022 1.362 . S
H2024 C2030 0.930 . S
H2025 C2033 0.930 . S
H2026 C2034 0.930 . S
H2027 C2035 0.930 . S
H2028 C2038 0.930 . S
H2029 C2039 0.930 . S
C2030 H2024 0.930 . S
C2030 C2031 1.355 . S
C2030 C2032 1.415 1_565 S
C2031 C2030 1.355 . S
C2031 C2033 1.419 . S
C2032 C2030 1.415 1_545 S
C2032 C2037 1.425 1_545 S
C2032 C2039 1.409 . S
C2033 H2025 0.930 . S
C2033 C2031 1.419 . S
C2033 C2034 1.362 . S
C2034 H2026 0.930 . S
C2034 C2033 1.362 . S
C2034 C2037 1.409 . S
C2035 H2027 0.930 . S
C2035 C2036 1.355 . S
C2035 C2037 1.415 1_545 S
C2036 C2035 1.355 . S
C2036 C2038 1.419 . S
C2037 C2032 1.425 1_565 S
C2037 C2034 1.409 . S
C2037 C2035 1.415 1_565 S
C2038 H2028 0.930 . S
C2038 C2036 1.419 . S
C2038 C2039 1.362 . S
C2039 H2029 0.930 . S
C2039 C2032 1.409 . S
C2039 C2038 1.362 . S
H2040 C2046 0.930 . S
H2041 C2049 0.930 . S
H2042 C2050 0.930 . S
H2043 C2051 0.930 . S
H2044 C2054 0.930 . S
H2045 C2055 0.930 . S
C2046 H2040 0.930 . S
C2046 C2047 1.355 . S
C2046 C2048 1.415 . S
C2047 C2046 1.355 . S
C2047 C2049 1.419 . S
C2048 C2046 1.415 . S
C2048 C2053 1.425 1_565 S
C2048 C2055 1.409 1_565 S
C2049 H2041 0.930 . S
C2049 C2047 1.419 . S
C2049 C2050 1.362 . S
C2050 H2042 0.930 . S
C2050 C2049 1.362 . S
C2050 C2053 1.409 1_565 S
C2051 H2043 0.930 . S
C2051 C2052 1.355 . S
C2051 C2053 1.415 . S
C2052 C2051 1.355 . S
C2052 C2054 1.419 . S
C2053 C2048 1.425 1_545 S
C2053 C2050 1.409 1_545 S
C2053 C2051 1.415 . S
C2054 H2044 0.930 . S
C2054 C2052 1.419 . S
C2054 C2055 1.362 . S
C2055 H2045 0.930 . S
C2055 C2048 1.409 1_545 S
C2055 C2054 1.362 . S
H2056 C2062 0.930 . S
H2057 C2065 0.930 . S
H2058 C2066 0.930 . S
H2059 C2067 0.930 . S
H2060 C2070 0.930 . S
H2061 C2071 0.930 . S
C2062 H2056 0.930 . S
C2062 C2063 1.355 . S
C2062 C2064 1.415 . S
C2063 C2062 1.355 . S
C2063 C2065 1.419 . S
C2064 C2062 1.415 . S
C2064 C2069 1.425 1_455 S
C2064 C2071 1.409 . S
C2065 H2057 0.930 . S
C2065 C2063 1.419 . S
C2065 C2066 1.362 1_455 S
C2066 H2058 0.930 . S
C2066 C2065 1.362 1_655 S
C2066 C2069 1.409 . S
C2067 H2059 0.930 . S
C2067 C2068 1.355 . S
C2067 C2069 1.415 . S
C2068 C2067 1.355 . S
C2068 C2070 1.419 . S
C2069 C2064 1.425 1_655 S
C2069 C2066 1.409 . S
C2069 C2067 1.415 . S
C2070 H2060 0.930 . S
C2070 C2068 1.419 . S
C2070 C2071 1.362 1_655 S
C2071 H2061 0.930 . S
C2071 C2064 1.409 . S
C2071 C2070 1.362 1_455 S
H2072 C2078 0.930 . S
H2073 C2081 0.930 . S
H2074 C2082 0.930 . S
H2075 C2083 0.930 . S
H2076 C2086 0.930 . S
H2077 C2087 0.930 . S
C2078 H2072 0.930 . S
C2078 C2079 1.355 . S
C2078 C2080 1.415 . S
C2079 C2078 1.355 . S
C2079 C2081 1.419 . S
C2080 C2078 1.415 . S
C2080 C2085 1.425 . S
C2080 C2087 1.409 . S
C2081 H2073 0.930 . S
C2081 C2079 1.419 . S
C2081 C2082 1.362 . S
C2082 H2074 0.930 . S
C2082 C2081 1.362 . S
C2082 C2085 1.409 . S
C2083 H2075 0.930 . S
C2083 C2084 1.355 . S
C2083 C2085 1.415 . S
C2084 C2083 1.355 . S
C2084 C2086 1.419 . S
C2085 C2080 1.425 . S
C2085 C2082 1.409 . S
C2085 C2083 1.415 . S
C2086 H2076 0.930 . S
C2086 C2084 1.419 . S
C2086 C2087 1.362 . S
C2087 H2077 0.930 . S
C2087 C2080 1.409 . S
C2087 C2086 1.362 . S
H2088 C2094 0.930 . S
H2089 C2097 0.930 . S
H2090 C2098 0.930 . S
H2091 C2099 0.930 . S
H2092 C2102 0.930 . S
H2093 C2103 0.930 . S
C2094 H2088 0.930 . S
C2094 C2095 1.355 . S
C2094 C2096 1.415 . S
C2095 C2094 1.355 . S
C2095 C2097 1.419 . S
C2096 C2094 1.415 . S
C2096 C2101 1.425 . S
C2096 C2103 1.409 . S
C2097 H2089 0.930 . S
C2097 C2095 1.419 . S
C2097 C2098 1.362 . S
C2098 H2090 0.930 . S
C2098 C2097 1.362 . S
C2098 C2101 1.409 . S
C2099 H2091 0.930 . S
C2099 C2100 1.355 . S
C2099 C2101 1.415 . S
C2100 C2099 1.355 . S
C2100 C2102 1.419 . S
C2101 C2096 1.425 . S
C2101 C2098 1.409 . S
C2101 C2099 1.415 . S
C2102 H2092 0.930 . S
C2102 C2100 1.419 . S
C2102 C2103 1.362 . S
C2103 H2093 0.930 . S
C2103 C2096 1.409 . S
C2103 C2102 1.362 . S
H2104 C2110 0.930 . S
H2105 C2113 0.930 . S
H2106 C2114 0.930 . S
H2107 C2115 0.930 . S
H2108 C2118 0.930 . S
H2109 C2119 0.930 . S
C2110 H2104 0.930 . S
C2110 C2111 1.355 . S
C2110 C2112 1.415 . S
C2111 C2110 1.355 . S
C2111 C2113 1.419 . S
C2112 C2110 1.415 . S
C2112 C2117 1.425 . S
C2112 C2119 1.409 . S
C2113 H2105 0.930 . S
C2113 C2111 1.419 . S
C2113 C2114 1.362 . S
C2114 H2106 0.930 . S
C2114 C2113 1.362 . S
C2114 C2117 1.409 . S
C2115 H2107 0.930 . S
C2115 C2116 1.355 . S
C2115 C2117 1.415 . S
C2116 C2115 1.355 . S
C2116 C2118 1.419 . S
C2117 C2112 1.425 . S
C2117 C2114 1.409 . S
C2117 C2115 1.415 . S
C2118 H2108 0.930 . S
C2118 C2116 1.419 . S
C2118 C2119 1.362 . S
C2119 H2109 0.930 . S
C2119 C2112 1.409 . S
C2119 C2118 1.362 . S
H2120 C2126 0.930 . S
H2121 C2129 0.930 . S
H2122 C2130 0.930 . S
H2123 C2131 0.930 . S
H2124 C2134 0.930 . S
H2125 C2135 0.930 . S
C2126 H2120 0.930 . S
C2126 C2127 1.355 . S
C2126 C2128 1.415 . S
C2127 C2126 1.355 . S
C2127 C2129 1.419 . S
C2128 C2126 1.415 . S
C2128 C2133 1.425 . S
C2128 C2135 1.409 . S
C2129 H2121 0.930 . S
C2129 C2127 1.419 . S
C2129 C2130 1.362 . S
C2130 H2122 0.930 . S
C2130 C2129 1.362 . S
C2130 C2133 1.409 . S
C2131 H2123 0.930 . S
C2131 C2132 1.355 . S
C2131 C2133 1.415 . S
C2132 C2131 1.355 . S
C2132 C2134 1.419 . S
C2133 C2128 1.425 . S
C2133 C2130 1.409 . S
C2133 C2131 1.415 . S
C2134 H2124 0.930 . S
C2134 C2132 1.419 . S
C2134 C2135 1.362 . S
C2135 H2125 0.930 . S
C2135 C2128 1.409 . S
C2135 C2134 1.362 . S
H2136 C2142 0.930 . S
H2137 C2145 0.930 . S
H2138 C2146 0.930 . S
H2139 C2147 0.930 . S
H2140 C2150 0.930 . S
H2141 C2151 0.930 . S
C2142 H2136 0.930 . S
C2142 C2143 1.355 . S
C2142 C2144 1.415 . S
C2143 C2142 1.355 . S
C2143 C2145 1.419 . S
C2144 C2142 1.415 . S
C2144 C2149 1.425 . S
C2144 C2151 1.409 . S
C2145 H2137 0.930 . S
C2145 C2143 1.419 . S
C2145 C2146 1.362 . S
C2146 H2138 0.930 . S
C2146 C2145 1.362 . S
C2146 C2149 1.409 . S
C2147 H2139 0.930 . S
C2147 C2148 1.355 . S
C2147 C2149 1.415 . S
C2148 C2147 1.355 . S
C2148 C2150 1.419 . S
C2149 C2144 1.425 . S
C2149 C2146 1.409 . S
C2149 C2147 1.415 . S
C2150 H2140 0.930 . S
C2150 C2148 1.419 . S
C2150 C2151 1.362 . S
C2151 H2141 0.930 . S
C2151 C2144 1.409 . S
C2151 C2150 1.362 . S
H2152 C2158 0.930 . S
H2153 C2161 0.930 . S
H2154 C2162 0.930 . S
H2155 C2163 0.930 . S
H2156 C2166 0.930 . S
H2157 C2167 0.930 . S
C2158 H2152 0.930 . S
C2158 C2159 1.355 . S
C2158 C2160 1.415 . S
C2159 C2158 1.355 . S
C2159 C2161 1.419 . S
C2160 C2158 1.415 . S
C2160 C2165 1.425 . S
C2160 C2167 1.409 . S
C2161 H2153 0.930 . S
C2161 C2159 1.419 . S
C2161 C2162 1.362 . S
C2162 H2154 0.930 . S
C2162 C2161 1.362 . S
C2162 C2165 1.409 . S
C2163 H2155 0.930 . S
C2163 C2164 1.355 . S
C2163 C2165 1.415 . S
C2164 C2163 1.355 . S
C2164 C2166 1.419 . S
C2165 C2160 1.425 . S
C2165 C2162 1.409 . S
C2165 C2163 1.415 . S
C2166 H2156 0.930 . S
C2166 C2164 1.419 . S
C2166 C2167 1.362 . S
C2167 H2157 0.930 . S
C2167 C2160 1.409 . S
C2167 C2166 1.362 . S
H2168 C2174 0.930 . S
H2169 C2177 0.930 . S
H2170 C2178 0.930 . S
H2171 C2179 0.930 . S
H2172 C2182 0.930 . S
H2173 C2183 0.930 . S
C2174 H2168 0.930 . S
C2174 C2175 1.355 . S
C2174 C2176 1.415 . S
C2175 C2174 1.355 . S
C2175 C2177 1.419 . S
C2176 C2174 1.415 . S
C2176 C2181 1.425 . S
C2176 C2183 1.409 . S
C2177 H2169 0.930 . S
C2177 C2175 1.419 . S
C2177 C2178 1.362 . S
C2178 H2170 0.930 . S
C2178 C2177 1.362 . S
C2178 C2181 1.409 . S
C2179 H2171 0.930 . S
C2179 C2180 1.355 . S
C2179 C2181 1.415 . S
C2180 C2179 1.355 . S
C2180 C2182 1.419 . S
C2181 C2176 1.425 . S
C2181 C2178 1.409 . S
C2181 C2179 1.415 . S
C2182 H2172 0.930 . S
C2182 C2180 1.419 . S
C2182 C2183 1.362 . S
C2183 H2173 0.930 . S
C2183 C2176 1.409 . S
C2183 C2182 1.362 . S
H2184 C2190 0.930 . S
H2185 C2193 0.930 . S
H2186 C2194 0.930 . S
H2187 C2195 0.930 . S
H2188 C2198 0.930 . S
H2189 C2199 0.930 . S
C2190 H2184 0.930 . S
C2190 C2191 1.355 . S
C2190 C2192 1.415 . S
C2191 C2190 1.355 . S
C2191 C2193 1.419 . S
C2192 C2190 1.415 . S
C2192 C2197 1.425 . S
C2192 C2199 1.409 . S
C2193 H2185 0.930 . S
C2193 C2191 1.419 . S
C2193 C2194 1.362 . S
C2194 H2186 0.930 . S
C2194 C2193 1.362 . S
C2194 C2197 1.409 . S
C2195 H2187 0.930 . S
C2195 C2196 1.355 . S
C2195 C2197 1.415 . S
C2196 C2195 1.355 . S
C2196 C2198 1.419 . S
C2197 C2192 1.425 . S
C2197 C2194 1.409 . S
C2197 C2195 1.415 . S
C2198 H2188 0.930 . S
C2198 C2196 1.419 . S
C2198 C2199 1.362 . S
C2199 H2189 0.930 . S
C2199 C2192 1.409 . S
C2199 C2198 1.362 . S
H2200 C2206 0.930 . S
H2201 C2209 0.930 . S
H2202 C2210 0.930 . S
H2203 C2211 0.930 . S
H2204 C2214 0.930 . S
H2205 C2215 0.930 . S
C2206 H2200 0.930 . S
C2206 C2207 1.355 . S
C2206 C2208 1.415 . S
C2207 C2206 1.355 . S
C2207 C2209 1.419 . S
C2208 C2206 1.415 . S
C2208 C2213 1.425 . S
C2208 C2215 1.409 . S
C2209 H2201 0.930 . S
C2209 C2207 1.419 . S
C2209 C2210 1.362 . S
C2210 H2202 0.930 . S
C2210 C2209 1.362 . S
C2210 C2213 1.409 . S
C2211 H2203 0.930 . S
C2211 C2212 1.355 . S
C2211 C2213 1.415 . S
C2212 C2211 1.355 . S
C2212 C2214 1.419 . S
C2213 C2208 1.425 . S
C2213 C2210 1.409 . S
C2213 C2211 1.415 . S
C2214 H2204 0.930 . S
C2214 C2212 1.419 . S
C2214 C2215 1.362 . S
C2215 H2205 0.930 . S
C2215 C2208 1.409 . S
C2215 C2214 1.362 . S
H2216 C2222 0.930 . S
H2217 C2225 0.930 . S
H2218 C2226 0.930 . S
H2219 C2227 0.930 . S
H2220 C2230 0.930 . S
H2221 C2231 0.930 . S
C2222 H2216 0.930 . S
C2222 C2223 1.355 . S
C2222 C2224 1.415 . S
C2223 C2222 1.355 . S
C2223 C2225 1.419 . S
C2224 C2222 1.415 . S
C2224 C2229 1.425 . S
C2224 C2231 1.409 . S
C2225 H2217 0.930 . S
C2225 C2223 1.419 . S
C2225 C2226 1.362 . S
C2226 H2218 0.930 . S
C2226 C2225 1.362 . S
C2226 C2229 1.409 . S
C2227 H2219 0.930 . S
C2227 C2228 1.355 . S
C2227 C2229 1.415 . S
C2228 C2227 1.355 . S
C2228 C2230 1.419 . S
C2229 C2224 1.425 . S
C2229 C2226 1.409 . S
C2229 C2227 1.415 . S
C2230 H2220 0.930 . S
C2230 C2228 1.419 . S
C2230 C2231 1.362 . S
C2231 H2221 0.930 . S
C2231 C2224 1.409 . S
C2231 C2230 1.362 . S
H2232 C2238 0.930 . S
H2233 C2241 0.930 . S
H2234 C2242 0.930 . S
H2235 C2243 0.930 . S
H2236 C2246 0.930 . S
H2237 C2247 0.930 . S
C2238 H2232 0.930 . S
C2238 C2239 1.355 . S
C2238 C2240 1.415 . S
C2239 C2238 1.355 . S
C2239 C2241 1.419 . S
C2240 C2238 1.415 . S
C2240 C2245 1.425 . S
C2240 C2247 1.409 . S
C2241 H2233 0.930 . S
C2241 C2239 1.419 . S
C2241 C2242 1.362 . S
C2242 H2234 0.930 . S
C2242 C2241 1.362 . S
C2242 C2245 1.409 . S
C2243 H2235 0.930 . S
C2243 C2244 1.355 . S
C2243 C2245 1.415 . S
C2244 C2243 1.355 . S
C2244 C2246 1.419 . S
C2245 C2240 1.425 . S
C2245 C2242 1.409 . S
C2245 C2243 1.415 . S
C2246 H2236 0.930 . S
C2246 C2244 1.419 . S
C2246 C2247 1.362 . S
C2247 H2237 0.930 . S
C2247 C2240 1.409 . S
C2247 C2246 1.362 . S
H2248 C2254 0.930 . S
H2249 C2257 0.930 . S
H2250 C2258 0.930 . S
H2251 C2259 0.930 . S
H2252 C2262 0.930 . S
H2253 C2263 0.930 . S
C2254 H2248 0.930 . S
C2254 C2255 1.355 . S
C2254 C2256 1.415 . S
C2255 C2254 1.355 . S
C2255 C2257 1.419 . S
C2256 C2254 1.415 . S
C2256 C2261 1.425 . S
C2256 C2263 1.409 . S
C2257 H2249 0.930 . S
C2257 C2255 1.419 . S
C2257 C2258 1.362 . S
C2258 H2250 0.930 . S
C2258 C2257 1.362 . S
C2258 C2261 1.409 . S
C2259 H2251 0.930 . S
C2259 C2260 1.355 . S
C2259 C2261 1.415 . S
C2260 C2259 1.355 . S
C2260 C2262 1.419 . S
C2261 C2256 1.425 . S
C2261 C2258 1.409 . S
C2261 C2259 1.415 . S
C2262 H2252 0.930 . S
C2262 C2260 1.419 . S
C2262 C2263 1.362 . S
C2263 H2253 0.930 . S
C2263 C2256 1.409 . S
C2263 C2262 1.362 . S
H2264 C2270 0.930 . S
H2265 C2273 0.930 . S
H2266 C2274 0.930 . S
H2267 C2275 0.930 . S
H2268 C2278 0.930 . S
H2269 C2279 0.930 . S
C2270 H2264 0.930 . S
C2270 C2271 1.355 . S
C2270 C2272 1.415 . S
C2271 C2270 1.355 . S
C2271 C2273 1.419 . S
C2272 C2270 1.415 . S
C2272 C2277 1.425 . S
C2272 C2279 1.409 . S
C2273 H2265 0.930 . S
C2273 C2271 1.419 . S
C2273 C2274 1.362 . S
C2274 H2266 0.930 . S
C2274 C2273 1.362 . S
C2274 C2277 1.409 . S
C2275 H2267 0.930 . S
C2275 C2276 1.355 . S
C2275 C2277 1.415 . S
C2276 C2275 1.355 . S
C2276 C2278 1.419 . S
C2277 C2272 1.425 . S
C2277 C2274 1.409 . S
C2277 C2275 1.415 . S
C2278 H2268 0.930 . S
C2278 C2276 1.419 . S
C2278 C2279 1.362 . S
C2279 H2269 0.930 . S
C2279 C2272 1.409 . S
C2279 C2278 1.362 . S
H2280 C2286 0.930 . S
H2281 C2289 0.930 . S
H2282 C2290 0.930 . S
H2283 C2291 0.930 . S
H2284 C2294 0.930 . S
H2285 C2295 0.930 . S
C2286 H2280 0.930 . S
C2286 C2287 1.355 1_556 S
C2286 C2288 1.415 . S
C2287 C2286 1.355 1_554 S
C2287 C2289 1.419 . S
C2288 C2286 1.415 . S
C2288 C2293 1.425 . S
C2288 C2295 1.409 . S
C2289 H2281 0.930 . S
C2289 C2287 1.419 . S
C2289 C2290 1.362 1_554 S
C2290 H2282 0.930 . S
C2290 C2289 1.362 1_556 S
C2290 C2293 1.409 . S
C2291 H2283 0.930 . S
C2291 C2292 1.355 . S
C2291 C2293 1.415 . S
C2292 C2291 1.355 . S
C2292 C2294 1.419 . S
C2293 C2288 1.425 . S
C2293 C2290 1.409 . S
C2293 C2291 1.415 . S
C2294 H2284 0.930 . S
C2294 C2292 1.419 . S
C2294 C2295 1.362 . S
C2295 H2285 0.930 . S
C2295 C2288 1.409 . S
C2295 C2294 1.362 . S
H2296 C2302 0.930 . S
H2297 C2305 0.930 1_554 S
H2298 C2306 0.930 . S
H2299 C2307 0.930 . S
H2300 C2310 0.930 . S
H2301 C2311 0.930 . S
C2302 H2296 0.930 . S
C2302 C2303 1.355 . S
C2302 C2304 1.415 1_554 S
C2303 C2302 1.355 . S
C2303 C2305 1.419 1_554 S
C2304 C2302 1.415 1_556 S
C2304 C2309 1.425 . S
C2304 C2311 1.409 . S
C2305 H2297 0.930 1_556 S
C2305 C2303 1.419 1_556 S
C2305 C2306 1.362 . S
C2306 H2298 0.930 . S
C2306 C2305 1.362 . S
C2306 C2309 1.409 . S
C2307 H2299 0.930 . S
C2307 C2308 1.355 . S
C2307 C2309 1.415 . S
C2308 C2307 1.355 . S
C2308 C2310 1.419 . S
C2309 C2304 1.425 . S
C2309 C2306 1.409 . S
C2309 C2307 1.415 . S
C2310 H2300 0.930 . S
C2310 C2308 1.419 . S
C2310 C2311 1.362 . S
C2311 H2301 0.930 . S
C2311 C2304 1.409 . S
C2311 C2310 1.362 . S
H2312 C2318 0.930 . S
H2313 C2321 0.930 . S
H2314 C2322 0.930 . S
H2315 C2323 0.930 1_554 S
H2316 C2326 0.930 . S
H2317 C2327 0.930 . S
C2318 H2312 0.930 . S
C2318 C2319 1.355 . S
C2318 C2320 1.415 . S
C2319 C2318 1.355 . S
C2319 C2321 1.419 . S
C2320 C2318 1.415 . S
C2320 C2325 1.425 . S
C2320 C2327 1.409 . S
C2321 H2313 0.930 . S
C2321 C2319 1.419 . S
C2321 C2322 1.362 . S
C2322 H2314 0.930 . S
C2322 C2321 1.362 . S
C2322 C2325 1.409 . S
C2323 H2315 0.930 1_556 S
C2323 C2324 1.355 1_556 S
C2323 C2325 1.415 . S
C2324 C2323 1.355 1_554 S
C2324 C2326 1.419 . S
C2325 C2320 1.425 . S
C2325 C2322 1.409 . S
C2325 C2323 1.415 . S
C2326 H2316 0.930 . S
C2326 C2324 1.419 . S
C2326 C2327 1.362 1_554 S
C2327 H2317 0.930 . S
C2327 C2320 1.409 . S
C2327 C2326 1.362 1_556 S
H2328 C2334 0.930 . S
H2329 C2337 0.930 . S
H2330 C2338 0.930 . S
H2331 C2339 0.930 . S
H2332 C2342 0.930 . S
H2333 C2343 0.930 . S
C2334 H2328 0.930 . S
C2334 C2335 1.355 . S
C2334 C2336 1.415 . S
C2335 C2334 1.355 . S
C2335 C2337 1.419 . S
C2336 C2334 1.415 . S
C2336 C2341 1.425 . S
C2336 C2343 1.409 . S
C2337 H2329 0.930 . S
C2337 C2335 1.419 . S
C2337 C2338 1.362 . S
C2338 H2330 0.930 . S
C2338 C2337 1.362 . S
C2338 C2341 1.409 . S
C2339 H2331 0.930 . S
C2339 C2340 1.355 . S
C2339 C2341 1.415 . S
C2340 C2339 1.355 . S
C2340 C2342 1.419 . S
C2341 C2336 1.425 . S
C2341 C2338 1.409 . S
C2341 C2339 1.415 . S
C2342 H2332 0.930 . S
C2342 C2340 1.419 . S
C2342 C2343 1.362 . S
C2343 H2333 0.930 . S
C2343 C2336 1.409 . S
C2343 C2342 1.362 . S
H2344 C2350 0.930 . S
H2345 C2353 0.930 . S
H2346 C2354 0.930 . S
H2347 C2355 0.930 . S
H2348 C2358 0.930 . S
H2349 C2359 0.930 . S
C2350 H2344 0.930 . S
C2350 C2351 1.355 . S
C2350 C2352 1.415 . S
C2351 C2350 1.355 . S
C2351 C2353 1.419 . S
C2352 C2350 1.415 . S
C2352 C2357 1.425 . S
C2352 C2359 1.409 . S
C2353 H2345 0.930 . S
C2353 C2351 1.419 . S
C2353 C2354 1.362 . S
C2354 H2346 0.930 . S
C2354 C2353 1.362 . S
C2354 C2357 1.409 . S
C2355 H2347 0.930 . S
C2355 C2356 1.355 . S
C2355 C2357 1.415 . S
C2356 C2355 1.355 . S
C2356 C2358 1.419 . S
C2357 C2352 1.425 . S
C2357 C2354 1.409 . S
C2357 C2355 1.415 . S
C2358 H2348 0.930 . S
C2358 C2356 1.419 . S
C2358 C2359 1.362 . S
C2359 H2349 0.930 . S
C2359 C2352 1.409 . S
C2359 C2358 1.362 . S
H2360 C2366 0.930 . S
H2361 C2369 0.930 . S
H2362 C2370 0.930 . S
H2363 C2371 0.930 . S
H2364 C2374 0.930 . S
H2365 C2375 0.930 . S
C2366 H2360 0.930 . S
C2366 C2367 1.355 . S
C2366 C2368 1.415 . S
C2367 C2366 1.355 . S
C2367 C2369 1.419 . S
C2368 C2366 1.415 . S
C2368 C2373 1.425 . S
C2368 C2375 1.409 . S
C2369 H2361 0.930 . S
C2369 C2367 1.419 . S
C2369 C2370 1.362 . S
C2370 H2362 0.930 . S
C2370 C2369 1.362 . S
C2370 C2373 1.409 . S
C2371 H2363 0.930 . S
C2371 C2372 1.355 . S
C2371 C2373 1.415 . S
C2372 C2371 1.355 . S
C2372 C2374 1.419 . S
C2373 C2368 1.425 . S
C2373 C2370 1.409 . S
C2373 C2371 1.415 . S
C2374 H2364 0.930 . S
C2374 C2372 1.419 . S
C2374 C2375 1.362 . S
C2375 H2365 0.930 . S
C2375 C2368 1.409 . S
C2375 C2374 1.362 . S
H2376 C2382 0.930 . S
H2377 C2385 0.930 . S
H2378 C2386 0.930 . S
H2379 C2387 0.930 . S
H2380 C2390 0.930 . S
H2381 C2391 0.930 . S
C2382 H2376 0.930 . S
C2382 C2383 1.355 . S
C2382 C2384 1.415 . S
C2383 C2382 1.355 . S
C2383 C2385 1.419 . S
C2384 C2382 1.415 . S
C2384 C2389 1.425 . S
C2384 C2391 1.409 . S
C2385 H2377 0.930 . S
C2385 C2383 1.419 . S
C2385 C2386 1.362 . S
C2386 H2378 0.930 . S
C2386 C2385 1.362 . S
C2386 C2389 1.409 . S
C2387 H2379 0.930 . S
C2387 C2388 1.355 . S
C2387 C2389 1.415 . S
C2388 C2387 1.355 . S
C2388 C2390 1.419 . S
C2389 C2384 1.425 . S
C2389 C2386 1.409 . S
C2389 C2387 1.415 . S
C2390 H2380 0.930 . S
C2390 C2388 1.419 . S
C2390 C2391 1.362 . S
C2391 H2381 0.930 . S
C2391 C2384 1.409 . S
C2391 C2390 1.362 . S
H2392 C2398 0.930 . S
H2393 C2401 0.930 . S
H2394 C2402 0.930 . S
H2395 C2403 0.930 . S
H2396 C2406 0.930 . S
H2397 C2407 0.930 . S
C2398 H2392 0.930 . S
C2398 C2399 1.355 . S
C2398 C2400 1.415 . S
C2399 C2398 1.355 . S
C2399 C2401 1.419 . S
C2400 C2398 1.415 . S
C2400 C2405 1.425 . S
C2400 C2407 1.409 . S
C2401 H2393 0.930 . S
C2401 C2399 1.419 . S
C2401 C2402 1.362 . S
C2402 H2394 0.930 . S
C2402 C2401 1.362 . S
C2402 C2405 1.409 . S
C2403 H2395 0.930 . S
C2403 C2404 1.355 . S
C2403 C2405 1.415 . S
C2404 C2403 1.355 . S
C2404 C2406 1.419 . S
C2405 C2400 1.425 . S
C2405 C2402 1.409 . S
C2405 C2403 1.415 . S
C2406 H2396 0.930 . S
C2406 C2404 1.419 . S
C2406 C2407 1.362 . S
C2407 H2397 0.930 . S
C2407 C2400 1.409 . S
C2407 C2406 1.362 . S
H2408 C2414 0.930 . S
H2409 C2417 0.930 . S
H2410 C2418 0.930 . S
H2411 C2419 0.930 . S
H2412 C2422 0.930 . S
H2413 C2423 0.930 . S
C2414 H2408 0.930 . S
C2414 C2415 1.355 . S
C2414 C2416 1.415 . S
C2415 C2414 1.355 . S
C2415 C2417 1.419 . S
C2416 C2414 1.415 . S
C2416 C2421 1.425 . S
C2416 C2423 1.409 . S
C2417 H2409 0.930 . S
C2417 C2415 1.419 . S
C2417 C2418 1.362 . S
C2418 H2410 0.930 . S
C2418 C2417 1.362 . S
C2418 C2421 1.409 . S
C2419 H2411 0.930 . S
C2419 C2420 1.355 . S
C2419 C2421 1.415 . S
C2420 C2419 1.355 . S
C2420 C2422 1.419 . S
C2421 C2416 1.425 . S
C2421 C2418 1.409 . S
C2421 C2419 1.415 . S
C2422 H2412 0.930 . S
C2422 C2420 1.419 . S
C2422 C2423 1.362 . S
C2423 H2413 0.930 . S
C2423 C2416 1.409 . S
C2423 C2422 1.362 . S
H2424 C2430 0.930 . S
H2425 C2433 0.930 . S
H2426 C2434 0.930 . S
H2427 C2435 0.930 . S
H2428 C2438 0.930 . S
H2429 C2439 0.930 . S
C2430 H2424 0.930 . S
C2430 C2431 1.355 1_556 S
C2430 C2432 1.415 . S
C2431 C2430 1.355 1_554 S
C2431 C2433 1.419 . S
C2432 C2430 1.415 . S
C2432 C2437 1.425 . S
C2432 C2439 1.409 . S
C2433 H2425 0.930 . S
C2433 C2431 1.419 . S
C2433 C2434 1.362 1_554 S
C2434 H2426 0.930 . S
C2434 C2433 1.362 1_556 S
C2434 C2437 1.409 . S
C2435 H2427 0.930 . S
C2435 C2436 1.355 . S
C2435 C2437 1.415 . S
C2436 C2435 1.355 . S
C2436 C2438 1.419 . S
C2437 C2432 1.425 . S
C2437 C2434 1.409 . S
C2437 C2435 1.415 . S
C2438 H2428 0.930 . S
C2438 C2436 1.419 . S
C2438 C2439 1.362 . S
C2439 H2429 0.930 . S
C2439 C2432 1.409 . S
C2439 C2438 1.362 . S
H2440 C2446 0.930 . S
H2441 C2449 0.930 . S
H2442 C2450 0.930 . S
H2443 C2451 0.930 . S
H2444 C2454 0.930 . S
H2445 C2455 0.930 . S
C2446 H2440 0.930 . S
C2446 C2447 1.355 1_556 S
C2446 C2448 1.415 . S
C2447 C2446 1.355 1_554 S
C2447 C2449 1.419 . S
C2448 C2446 1.415 . S
C2448 C2453 1.425 . S
C2448 C2455 1.409 . S
C2449 H2441 0.930 . S
C2449 C2447 1.419 . S
C2449 C2450 1.362 1_554 S
C2450 H2442 0.930 . S
C2450 C2449 1.362 1_556 S
C2450 C2453 1.409 . S
C2451 H2443 0.930 . S
C2451 C2452 1.355 . S
C2451 C2453 1.415 . S
C2452 C2451 1.355 . S
C2452 C2454 1.419 . S
C2453 C2448 1.425 . S
C2453 C2450 1.409 . S
C2453 C2451 1.415 . S
C2454 H2444 0.930 . S
C2454 C2452 1.419 . S
C2454 C2455 1.362 . S
C2455 H2445 0.930 . S
C2455 C2448 1.409 . S
C2455 C2454 1.362 . S
H2456 C2462 0.930 . S
H2457 C2465 0.930 . S
H2458 C2466 0.930 . S
H2459 C2467 0.930 . S
H2460 C2470 0.930 . S
H2461 C2471 0.930 . S
C2462 H2456 0.930 . S
C2462 C2463 1.355 1_556 S
C2462 C2464 1.415 . S
C2463 C2462 1.355 1_554 S
C2463 C2465 1.419 . S
C2464 C2462 1.415 . S
C2464 C2469 1.425 . S
C2464 C2471 1.409 . S
C2465 H2457 0.930 . S
C2465 C2463 1.419 . S
C2465 C2466 1.362 1_554 S
C2466 H2458 0.930 . S
C2466 C2465 1.362 1_556 S
C2466 C2469 1.409 . S
C2467 H2459 0.930 . S
C2467 C2468 1.355 . S
C2467 C2469 1.415 . S
C2468 C2467 1.355 . S
C2468 C2470 1.419 . S
C2469 C2464 1.425 . S
C2469 C2466 1.409 . S
C2469 C2467 1.415 . S
C2470 H2460 0.930 . S
C2470 C2468 1.419 . S
C2470 C2471 1.362 . S
C2471 H2461 0.930 . S
C2471 C2464 1.409 . S
C2471 C2470 1.362 . S
H2472 C2478 0.930 . S
H2473 C2481 0.930 . S
H2474 C2482 0.930 . S
H2475 C2483 0.930 . S
H2476 C2486 0.930 . S
H2477 C2487 0.930 . S
C2478 H2472 0.930 . S
C2478 C2479 1.355 . S
C2478 C2480 1.415 . S
C2479 C2478 1.355 . S
C2479 C2481 1.419 . S
C2480 C2478 1.415 . S
C2480 C2485 1.425 . S
C2480 C2487 1.409 . S
C2481 H2473 0.930 . S
C2481 C2479 1.419 . S
C2481 C2482 1.362 . S
C2482 H2474 0.930 . S
C2482 C2481 1.362 . S
C2482 C2485 1.409 . S
C2483 H2475 0.930 . S
C2483 C2484 1.355 . S
C2483 C2485 1.415 . S
C2484 C2483 1.355 . S
C2484 C2486 1.419 . S
C2485 C2480 1.425 . S
C2485 C2482 1.409 . S
C2485 C2483 1.415 . S
C2486 H2476 0.930 . S
C2486 C2484 1.419 . S
C2486 C2487 1.362 . S
C2487 H2477 0.930 . S
C2487 C2480 1.409 . S
C2487 C2486 1.362 . S
H2488 C2494 0.930 . S
H2489 C2497 0.930 . S
H2490 C2498 0.930 . S
H2491 C2499 0.930 . S
H2492 C2502 0.930 . S
H2493 C2503 0.930 . S
C2494 H2488 0.930 . S
C2494 C2495 1.355 . S
C2494 C2496 1.415 . S
C2495 C2494 1.355 . S
C2495 C2497 1.419 . S
C2496 C2494 1.415 . S
C2496 C2501 1.425 . S
C2496 C2503 1.409 . S
C2497 H2489 0.930 . S
C2497 C2495 1.419 . S
C2497 C2498 1.362 . S
C2498 H2490 0.930 . S
C2498 C2497 1.362 . S
C2498 C2501 1.409 . S
C2499 H2491 0.930 . S
C2499 C2500 1.355 . S
C2499 C2501 1.415 . S
C2500 C2499 1.355 . S
C2500 C2502 1.419 . S
C2501 C2496 1.425 . S
C2501 C2498 1.409 . S
C2501 C2499 1.415 . S
C2502 H2492 0.930 . S
C2502 C2500 1.419 . S
C2502 C2503 1.362 . S
C2503 H2493 0.930 . S
C2503 C2496 1.409 . S
C2503 C2502 1.362 . S
H2504 C2510 0.930 . S
H2505 C2513 0.930 . S
H2506 C2514 0.930 . S
H2507 C2515 0.930 . S
H2508 C2518 0.930 . S
H2509 C2519 0.930 . S
C2510 H2504 0.930 . S
C2510 C2511 1.355 . S
C2510 C2512 1.415 . S
C2511 C2510 1.355 . S
C2511 C2513 1.419 . S
C2512 C2510 1.415 . S
C2512 C2517 1.425 . S
C2512 C2519 1.409 . S
C2513 H2505 0.930 . S
C2513 C2511 1.419 . S
C2513 C2514 1.362 . S
C2514 H2506 0.930 . S
C2514 C2513 1.362 . S
C2514 C2517 1.409 . S
C2515 H2507 0.930 . S
C2515 C2516 1.355 . S
C2515 C2517 1.415 . S
C2516 C2515 1.355 . S
C2516 C2518 1.419 . S
C2517 C2512 1.425 . S
C2517 C2514 1.409 . S
C2517 C2515 1.415 . S
C2518 H2508 0.930 . S
C2518 C2516 1.419 . S
C2518 C2519 1.362 . S
C2519 H2509 0.930 . S
C2519 C2512 1.409 . S
C2519 C2518 1.362 . S
H2520 C2526 0.930 . S
H2521 C2529 0.930 . S
H2522 C2530 0.930 . S
H2523 C2531 0.930 . S
H2524 C2534 0.930 1_556 S
H2525 C2535 0.930 . S
C2526 H2520 0.930 . S
C2526 C2527 1.355 . S
C2526 C2528 1.415 . S
C2527 C2526 1.355 . S
C2527 C2529 1.419 . S
C2528 C2526 1.415 . S
C2528 C2533 1.425 . S
C2528 C2535 1.409 . S
C2529 H2521 0.930 . S
C2529 C2527 1.419 . S
C2529 C2530 1.362 . S
C2530 H2522 0.930 . S
C2530 C2529 1.362 . S
C2530 C2533 1.409 . S
C2531 H2523 0.930 . S
C2531 C2532 1.355 . S
C2531 C2533 1.415 1_556 S
C2532 C2531 1.355 . S
C2532 C2534 1.419 1_556 S
C2533 C2528 1.425 . S
C2533 C2530 1.409 . S
C2533 C2531 1.415 1_554 S
C2534 H2524 0.930 1_554 S
C2534 C2532 1.419 1_554 S
C2534 C2535 1.362 . S
C2535 H2525 0.930 . S
C2535 C2528 1.409 . S
C2535 C2534 1.362 . S
H2536 C2542 0.930 . S
H2537 C2545 0.930 . S
H2538 C2546 0.930 . S
H2539 C2547 0.930 . S
H2540 C2550 0.930 . S
H2541 C2551 0.930 . S
C2542 H2536 0.930 . S
C2542 C2543 1.355 . S
C2542 C2544 1.415 . S
C2543 C2542 1.355 . S
C2543 C2545 1.419 . S
C2544 C2542 1.415 . S
C2544 C2549 1.425 . S
C2544 C2551 1.409 . S
C2545 H2537 0.930 . S
C2545 C2543 1.419 . S
C2545 C2546 1.362 . S
C2546 H2538 0.930 . S
C2546 C2545 1.362 . S
C2546 C2549 1.409 . S
C2547 H2539 0.930 . S
C2547 C2548 1.355 1_554 S
C2547 C2549 1.415 . S
C2548 C2547 1.355 1_556 S
C2548 C2550 1.419 . S
C2549 C2544 1.425 . S
C2549 C2546 1.409 . S
C2549 C2547 1.415 . S
C2550 H2540 0.930 . S
C2550 C2548 1.419 . S
C2550 C2551 1.362 1_556 S
C2551 H2541 0.930 . S
C2551 C2544 1.409 . S
C2551 C2550 1.362 1_554 S
H2552 C2558 0.930 . S
H2553 C2561 0.930 . S
H2554 C2562 0.930 . S
H2555 C2563 0.930 . S
H2556 C2566 0.930 . S
H2557 C2567 0.930 . S
C2558 H2552 0.930 . S
C2558 C2559 1.355 . S
C2558 C2560 1.415 . S
C2559 C2558 1.355 . S
C2559 C2561 1.419 . S
C2560 C2558 1.415 . S
C2560 C2565 1.425 . S
C2560 C2567 1.409 . S
C2561 H2553 0.930 . S
C2561 C2559 1.419 . S
C2561 C2562 1.362 . S
C2562 H2554 0.930 . S
C2562 C2561 1.362 . S
C2562 C2565 1.409 . S
C2563 H2555 0.930 . S
C2563 C2564 1.355 1_554 S
C2563 C2565 1.415 . S
C2564 C2563 1.355 1_556 S
C2564 C2566 1.419 . S
C2565 C2560 1.425 . S
C2565 C2562 1.409 . S
C2565 C2563 1.415 . S
C2566 H2556 0.930 . S
C2566 C2564 1.419 . S
C2566 C2567 1.362 1_556 S
C2567 H2557 0.930 . S
C2567 C2560 1.409 . S
C2567 C2566 1.362 1_554 S
H2568 C2574 0.930 . S
H2569 C2577 0.930 . S
H2570 C2578 0.930 . S
H2571 C2579 0.930 . S
H2572 C2582 0.930 1_556 S
H2573 C2583 0.930 . S
C2574 H2568 0.930 . S
C2574 C2575 1.355 . S
C2574 C2576 1.415 . S
C2575 C2574 1.355 . S
C2575 C2577 1.419 . S
C2576 C2574 1.415 . S
C2576 C2581 1.425 . S
C2576 C2583 1.409 . S
C2577 H2569 0.930 . S
C2577 C2575 1.419 . S
C2577 C2578 1.362 . S
C2578 H2570 0.930 . S
C2578 C2577 1.362 . S
C2578 C2581 1.409 . S
C2579 H2571 0.930 . S
C2579 C2580 1.355 . S
C2579 C2581 1.415 1_556 S
C2580 C2579 1.355 . S
C2580 C2582 1.419 1_556 S
C2581 C2576 1.425 . S
C2581 C2578 1.409 . S
C2581 C2579 1.415 1_554 S
C2582 H2572 0.930 1_554 S
C2582 C2580 1.419 1_554 S
C2582 C2583 1.362 . S
C2583 H2573 0.930 . S
C2583 C2576 1.409 . S
C2583 C2582 1.362 . S
H2584 C2590 0.930 . S
H2585 C2593 0.930 . S
H2586 C2594 0.930 . S
H2587 C2595 0.930 . S
H2588 C2598 0.930 1_556 S
H2589 C2599 0.930 . S
C2590 H2584 0.930 . S
C2590 C2591 1.355 . S
C2590 C2592 1.415 . S
C2591 C2590 1.355 . S
C2591 C2593 1.419 . S
C2592 C2590 1.415 . S
C2592 C2597 1.425 . S
C2592 C2599 1.409 . S
C2593 H2585 0.930 . S
C2593 C2591 1.419 . S
C2593 C2594 1.362 . S
C2594 H2586 0.930 . S
C2594 C2593 1.362 . S
C2594 C2597 1.409 . S
C2595 H2587 0.930 . S
C2595 C2596 1.355 . S
C2595 C2597 1.415 1_556 S
C2596 C2595 1.355 . S
C2596 C2598 1.419 1_556 S
C2597 C2592 1.425 . S
C2597 C2594 1.409 . S
C2597 C2595 1.415 1_554 S
C2598 H2588 0.930 1_554 S
C2598 C2596 1.419 1_554 S
C2598 C2599 1.362 . S
C2599 H2589 0.930 . S
C2599 C2592 1.409 . S
C2599 C2598 1.362 . S
H2600 C2606 0.930 . S
H2601 C2609 0.930 1_556 S
H2602 C2610 0.930 . S
H2603 C2611 0.930 . S
H2604 C2614 0.930 . S
H2605 C2615 0.930 . S
C2606 H2600 0.930 . S
C2606 C2607 1.355 . S
C2606 C2608 1.415 1_556 S
C2607 C2606 1.355 . S
C2607 C2609 1.419 1_556 S
C2608 C2606 1.415 1_554 S
C2608 C2613 1.425 . S
C2608 C2615 1.409 . S
C2609 H2601 0.930 1_554 S
C2609 C2607 1.419 1_554 S
C2609 C2610 1.362 . S
C2610 H2602 0.930 . S
C2610 C2609 1.362 . S
C2610 C2613 1.409 . S
C2611 H2603 0.930 . S
C2611 C2612 1.355 . S
C2611 C2613 1.415 . S
C2612 C2611 1.355 . S
C2612 C2614 1.419 . S
C2613 C2608 1.425 . S
C2613 C2610 1.409 . S
C2613 C2611 1.415 . S
C2614 H2604 0.930 . S
C2614 C2612 1.419 . S
C2614 C2615 1.362 . S
C2615 H2605 0.930 . S
C2615 C2608 1.409 . S
C2615 C2614 1.362 . S
H2616 C2622 0.930 . S
H2617 C2625 0.930 . S
H2618 C2626 0.930 . S
H2619 C2627 0.930 . S
H2620 C2630 0.930 . S
H2621 C2631 0.930 . S
C2622 H2616 0.930 . S
C2622 C2623 1.355 . S
C2622 C2624 1.415 . S
C2623 C2622 1.355 . S
C2623 C2625 1.419 . S
C2624 C2622 1.415 . S
C2624 C2629 1.425 . S
C2624 C2631 1.409 . S
C2625 H2617 0.930 . S
C2625 C2623 1.419 . S
C2625 C2626 1.362 . S
C2626 H2618 0.930 . S
C2626 C2625 1.362 . S
C2626 C2629 1.409 . S
C2627 H2619 0.930 . S
C2627 C2628 1.355 . S
C2627 C2629 1.415 . S
C2628 C2627 1.355 . S
C2628 C2630 1.419 . S
C2629 C2624 1.425 . S
C2629 C2626 1.409 . S
C2629 C2627 1.415 . S
C2630 H2620 0.930 . S
C2630 C2628 1.419 . S
C2630 C2631 1.362 . S
C2631 H2621 0.930 . S
C2631 C2624 1.409 . S
C2631 C2630 1.362 . S
H2632 C2638 0.930 . S
H2633 C2641 0.930 . S
H2634 C2642 0.930 . S
H2635 C2643 0.930 . S
H2636 C2646 0.930 . S
H2637 C2647 0.930 . S
C2638 H2632 0.930 . S
C2638 C2639 1.355 . S
C2638 C2640 1.415 . S
C2639 C2638 1.355 . S
C2639 C2641 1.419 . S
C2640 C2638 1.415 . S
C2640 C2645 1.425 . S
C2640 C2647 1.409 . S
C2641 H2633 0.930 . S
C2641 C2639 1.419 . S
C2641 C2642 1.362 . S
C2642 H2634 0.930 . S
C2642 C2641 1.362 . S
C2642 C2645 1.409 . S
C2643 H2635 0.930 . S
C2643 C2644 1.355 . S
C2643 C2645 1.415 . S
C2644 C2643 1.355 . S
C2644 C2646 1.419 . S
C2645 C2640 1.425 . S
C2645 C2642 1.409 . S
C2645 C2643 1.415 . S
C2646 H2636 0.930 . S
C2646 C2644 1.419 . S
C2646 C2647 1.362 . S
C2647 H2637 0.930 . S
C2647 C2640 1.409 . S
C2647 C2646 1.362 . S
H2648 C2654 0.930 . S
H2649 C2657 0.930 . S
H2650 C2658 0.930 . S
H2651 C2659 0.930 . S
H2652 C2662 0.930 . S
H2653 C2663 0.930 . S
C2654 H2648 0.930 . S
C2654 C2655 1.355 . S
C2654 C2656 1.415 . S
C2655 C2654 1.355 . S
C2655 C2657 1.419 . S
C2656 C2654 1.415 . S
C2656 C2661 1.425 . S
C2656 C2663 1.409 . S
C2657 H2649 0.930 . S
C2657 C2655 1.419 . S
C2657 C2658 1.362 . S
C2658 H2650 0.930 . S
C2658 C2657 1.362 . S
C2658 C2661 1.409 . S
C2659 H2651 0.930 . S
C2659 C2660 1.355 . S
C2659 C2661 1.415 . S
C2660 C2659 1.355 . S
C2660 C2662 1.419 . S
C2661 C2656 1.425 . S
C2661 C2658 1.409 . S
C2661 C2659 1.415 . S
C2662 H2652 0.930 . S
C2662 C2660 1.419 . S
C2662 C2663 1.362 . S
C2663 H2653 0.930 . S
C2663 C2656 1.409 . S
C2663 C2662 1.362 . S
C1231 C20 1.642 . S
C1236 C530 1.637 . S
C1247 C564 1.640 . S
C1252 C54 1.635 . S
C1263 C88 1.644 . S
C1268 C598 1.643 . S
C1279 C836 1.598 . S
C1284 C122 1.602 . S
C1295 C870 1.628 . S
C1300 C156 1.621 . S
C1311 C190 1.611 . S
C1316 C904 1.618 . S
C1327 C224 1.631 . S
C1332 C1142 1.624 . S
C1343 C1176 1.615 . S
C1348 C258 1.623 . S
C1359 C292 1.634 . S
C1364 C1210 1.640 . S
C1375 C632 1.644 . S
C1380 C326 1.641 . S
C1391 C360 1.598 . S
C1396 C666 1.597 . S
C1407 C700 1.634 . S
C1412 C394 1.627 . S
C1423 C428 1.645 . S
C1428 C938 1.644 . S
C1439 C462 1.639 . S
C1444 C972 1.643 . S
C1455 C1006 1.644 . S
C1460 C496 1.644 . S
C1471 C1040 1.643 . S
C1476 C734 1.639 . S
C1487 C1074 1.642 . S
C1492 C768 1.644 . S
C1503 C802 1.642 . S
C1508 C1108 1.638 . S
C1519 C2 1.531 . S
C1524 C376 1.535 . S
C1535 C36 1.538 . S
C1540 C308 1.527 . S
C1551 C70 1.539 . S
C1556 C342 1.528 . S
C1567 C240 1.539 . S
C1572 C104 1.528 . S
C1583 C274 1.531 . S
C1588 C138 1.536 . S
C1599 C172 1.539 . S
C1604 C206 1.528 . S
C1615 C410 1.528 . S
C1620 C784 1.537 . S
C1631 C716 1.533 . S
C1636 C444 1.534 . S
C1647 C478 1.535 . S
C1652 C750 1.532 . S
C1663 C512 1.538 . S
C1668 C648 1.527 . S
C1679 C546 1.530 . S
C1684 C682 1.536 . S
C1695 C580 1.538 . S
C1700 C614 1.529 . S
C1711 C818 1.528 . S
C1716 C1192 1.538 . S
C1727 C1124 1.529 . S
C1732 C852 1.538 . S
C1743 C1158 1.536 . S
C1748 C886 1.530 . S
C1759 C1056 1.534 . S
C1764 C920 1.533 . S
C1775 C954 1.538 . S
C1780 C1090 1.529 . S
C1791 C988 1.533 . S
C1796 C1022 1.534 . S
C1807 C1019 1.544 . S
C1812 C33 1.533 . S
C1823 C67 1.550 . S
C1828 C951 1.538 . S
C1839 C101 1.524 . S
C1844 C985 1.525 . S
C1855 C475 1.536 . S
C1860 C135 1.528 . S
C1871 C169 1.574 . S
C1876 C509 1.577 . S
C1887 C203 1.528 . S
C1892 C441 1.524 . S
C1903 C815 1.526 . S
C1908 C237 1.532 . S
C1919 C271 1.576 . S
C1924 C747 1.570 . S
C1935 C781 1.536 . S
C1940 C305 1.548 . S
C1951 C1087 1.577 . S
C1956 C339 1.573 . S
C1967 C1121 1.557 . S
C1972 C373 1.545 . S
C1983 C1053 1.557 . S
C1988 C407 1.545 . S
C1999 C543 1.576 . S
C2004 C883 1.569 . S
C2015 C917 1.560 . S
C2020 C577 1.570 . S
C2031 C611 1.524 . S
C2036 C849 1.526 . S
C2047 C645 1.537 . S
C2052 C1223 1.549 . S
C2063 C679 1.577 . S
C2068 C1155 1.572 . S
C2079 C713 1.541 . S
C2084 C1189 1.530 . S
C2095 C9 1.176 . S
C2100 C5 1.145 . S
C2111 C43 1.207 . S
C2116 C39 1.170 . S
C2127 C77 1.172 . S
C2132 C73 1.210 . S
C2143 C107 1.169 . S
C2148 C111 1.139 . S
C2159 C145 1.206 . S
C2164 C141 1.194 . S
C2175 C175 1.166 . S
C2180 C179 1.205 . S
C2191 C213 1.204 . S
C2196 C209 1.197 . S
C2207 C243 1.205 . S
C2212 C247 1.195 . S
C2223 C277 1.193 . S
C2228 C281 1.145 . S
C2239 C315 1.143 . S
C2244 C311 1.190 . S
C2255 C349 1.146 . S
C2260 C345 1.195 . S
C2271 C379 1.162 . S
C2276 C383 1.142 . S
C2287 C413 1.156 . S
C2292 C417 1.198 . S
C2303 C447 1.206 . S
C2308 C451 1.160 . S
C2319 C485 1.209 . S
C2324 C481 1.184 . S
C2335 C515 1.146 . S
C2340 C519 1.179 . S
C2351 C549 1.172 . S
C2356 C553 1.139 . S
C2367 C587 1.197 . S
C2372 C583 1.204 . S
C2383 C617 1.187 . S
C2388 C621 1.142 . S
C2399 C655 1.192 . S
C2404 C651 1.207 . S
C2415 C689 1.140 . S
C2420 C685 1.182 . S
C2431 C719 1.146 . S
C2436 C723 1.178 . S
C2447 C753 1.169 . S
C2452 C757 1.139 . S
C2463 C787 1.146 . S
C2468 C791 1.165 . S
C2479 C821 1.146 . S
C2484 C825 1.165 . S
C2495 C855 1.193 . S
C2500 C859 1.207 . S
C2511 C893 1.146 . S
C2516 C889 1.195 . S
C2527 C927 1.181 . S
C2532 C923 1.210 . S
C2543 C961 1.189 . S
C2548 C957 1.150 . S
C2559 C995 1.139 . S
C2564 C991 1.170 . S
C2575 C1029 1.145 . S
C2580 C1025 1.193 . S
C2591 C1063 1.158 . S
C2596 C1059 1.205 . S
C2607 C1093 1.209 . S
C2612 C1097 1.171 . S
C2623 C1131 1.197 . S
C2628 C1127 1.156 . S
C2639 C1165 1.184 . S
C2644 C1161 1.147 . S
C2655 C1195 1.151 . S
C2660 C1199 1.151 . S
