# Generated by pormake.
# Topology uka, (4)-cn, num edge types: 1
# Building blocks:
#     Node 0, Type 0, BuildingBlock: QUQFOY_clean_sbu_1, # of connection points: 4
#     Node 1, Type 0, BuildingBlock: QUQFOY_clean_sbu_1, # of connection points: 4
#     Node 2, Type 0, BuildingBlock: QUQFOY_clean_sbu_1, # of connection points: 4
#     Node 3, Type 0, BuildingBlock: QUQFOY_clean_sbu_1, # of connection points: 4
#     Node 4, Type 0, BuildingBlock: QUQFOY_clean_sbu_1, # of connection points: 4
#     Node 5, Type 0, BuildingBlock: QUQFOY_clean_sbu_1, # of connection points: 4
#     Node 6, Type 0, BuildingBlock: QUQFOY_clean_sbu_1, # of connection points: 4
#     Node 7, Type 0, BuildingBlock: QUQFOY_clean_sbu_1, # of connection points: 4
#     Node 8, Type 0, BuildingBlock: QUQFOY_clean_sbu_1, # of connection points: 4
#     Node 9, Type 0, BuildingBlock: QUQFOY_clean_sbu_1, # of connection points: 4
#     Node 10, Type 0, BuildingBlock: QUQFOY_clean_sbu_1, # of connection points: 4
#     Node 11, Type 0, BuildingBlock: QUQFOY_clean_sbu_1, # of connection points: 4
#     Node 12, Type 0, BuildingBlock: QUQFOY_clean_sbu_1, # of connection points: 4
#     Node 13, Type 0, BuildingBlock: QUQFOY_clean_sbu_1, # of connection points: 4
#     Node 14, Type 0, BuildingBlock: QUQFOY_clean_sbu_1, # of connection points: 4
#     Node 15, Type 0, BuildingBlock: QUQFOY_clean_sbu_1, # of connection points: 4
#     Node 16, Type 0, BuildingBlock: QUQFOY_clean_sbu_1, # of connection points: 4
#     Node 17, Type 0, BuildingBlock: QUQFOY_clean_sbu_1, # of connection points: 4
#     Node 18, Type 0, BuildingBlock: QUQFOY_clean_sbu_1, # of connection points: 4
#     Node 19, Type 0, BuildingBlock: QUQFOY_clean_sbu_1, # of connection points: 4
#     Node 20, Type 0, BuildingBlock: QUQFOY_clean_sbu_1, # of connection points: 4
#     Node 21, Type 0, BuildingBlock: QUQFOY_clean_sbu_1, # of connection points: 4
#     Node 22, Type 0, BuildingBlock: QUQFOY_clean_sbu_1, # of connection points: 4
#     Node 23, Type 0, BuildingBlock: QUQFOY_clean_sbu_1, # of connection points: 4
#     Node 24, Type 0, BuildingBlock: QUQFOY_clean_sbu_1, # of connection points: 4
#     Node 25, Type 0, BuildingBlock: QUQFOY_clean_sbu_1, # of connection points: 4
#     Node 26, Type 0, BuildingBlock: QUQFOY_clean_sbu_1, # of connection points: 4
#     Node 27, Type 0, BuildingBlock: QUQFOY_clean_sbu_1, # of connection points: 4
#     Node 28, Type 0, BuildingBlock: QUQFOY_clean_sbu_1, # of connection points: 4
#     Node 29, Type 0, BuildingBlock: QUQFOY_clean_sbu_1, # of connection points: 4
#     Node 30, Type 0, BuildingBlock: QUQFOY_clean_sbu_1, # of connection points: 4
#     Node 31, Type 0, BuildingBlock: QUQFOY_clean_sbu_1, # of connection points: 4
#     Edge 32, Type (0, 0), BuildingBlock: EZIPEK_clean_linker_0, # of connection points: 2
#     Edge 33, Type (0, 0), BuildingBlock: EZIPEK_clean_linker_0, # of connection points: 2
#     Edge 34, Type (0, 0), BuildingBlock: EZIPEK_clean_linker_0, # of connection points: 2
#     Edge 35, Type (0, 0), BuildingBlock: EZIPEK_clean_linker_0, # of connection points: 2
#     Edge 36, Type (0, 0), BuildingBlock: EZIPEK_clean_linker_0, # of connection points: 2
#     Edge 37, Type (0, 0), BuildingBlock: EZIPEK_clean_linker_0, # of connection points: 2
#     Edge 38, Type (0, 0), BuildingBlock: EZIPEK_clean_linker_0, # of connection points: 2
#     Edge 39, Type (0, 0), BuildingBlock: EZIPEK_clean_linker_0, # of connection points: 2
#     Edge 40, Type (0, 0), BuildingBlock: EZIPEK_clean_linker_0, # of connection points: 2
#     Edge 41, Type (0, 0), BuildingBlock: EZIPEK_clean_linker_0, # of connection points: 2
#     Edge 42, Type (0, 0), BuildingBlock: EZIPEK_clean_linker_0, # of connection points: 2
#     Edge 43, Type (0, 0), BuildingBlock: EZIPEK_clean_linker_0, # of connection points: 2
#     Edge 44, Type (0, 0), BuildingBlock: EZIPEK_clean_linker_0, # of connection points: 2
#     Edge 45, Type (0, 0), BuildingBlock: EZIPEK_clean_linker_0, # of connection points: 2
#     Edge 46, Type (0, 0), BuildingBlock: EZIPEK_clean_linker_0, # of connection points: 2
#     Edge 47, Type (0, 0), BuildingBlock: EZIPEK_clean_linker_0, # of connection points: 2
#     Edge 48, Type (0, 0), BuildingBlock: EZIPEK_clean_linker_0, # of connection points: 2
#     Edge 49, Type (0, 0), BuildingBlock: EZIPEK_clean_linker_0, # of connection points: 2
#     Edge 50, Type (0, 0), BuildingBlock: EZIPEK_clean_linker_0, # of connection points: 2
#     Edge 51, Type (0, 0), BuildingBlock: EZIPEK_clean_linker_0, # of connection points: 2
#     Edge 52, Type (0, 0), BuildingBlock: EZIPEK_clean_linker_0, # of connection points: 2
#     Edge 53, Type (0, 0), BuildingBlock: EZIPEK_clean_linker_0, # of connection points: 2
#     Edge 54, Type (0, 0), BuildingBlock: EZIPEK_clean_linker_0, # of connection points: 2
#     Edge 55, Type (0, 0), BuildingBlock: EZIPEK_clean_linker_0, # of connection points: 2
#     Edge 56, Type (0, 0), BuildingBlock: EZIPEK_clean_linker_0, # of connection points: 2
#     Edge 57, Type (0, 0), BuildingBlock: EZIPEK_clean_linker_0, # of connection points: 2
#     Edge 58, Type (0, 0), BuildingBlock: EZIPEK_clean_linker_0, # of connection points: 2
#     Edge 59, Type (0, 0), BuildingBlock: EZIPEK_clean_linker_0, # of connection points: 2
#     Edge 60, Type (0, 0), BuildingBlock: EZIPEK_clean_linker_0, # of connection points: 2
#     Edge 61, Type (0, 0), BuildingBlock: EZIPEK_clean_linker_0, # of connection points: 2
#     Edge 62, Type (0, 0), BuildingBlock: EZIPEK_clean_linker_0, # of connection points: 2
#     Edge 63, Type (0, 0), BuildingBlock: EZIPEK_clean_linker_0, # of connection points: 2
#     Edge 64, Type (0, 0), BuildingBlock: EZIPEK_clean_linker_0, # of connection points: 2
#     Edge 65, Type (0, 0), BuildingBlock: EZIPEK_clean_linker_0, # of connection points: 2
#     Edge 66, Type (0, 0), BuildingBlock: EZIPEK_clean_linker_0, # of connection points: 2
#     Edge 67, Type (0, 0), BuildingBlock: EZIPEK_clean_linker_0, # of connection points: 2
#     Edge 68, Type (0, 0), BuildingBlock: EZIPEK_clean_linker_0, # of connection points: 2
#     Edge 69, Type (0, 0), BuildingBlock: EZIPEK_clean_linker_0, # of connection points: 2
#     Edge 70, Type (0, 0), BuildingBlock: EZIPEK_clean_linker_0, # of connection points: 2
#     Edge 71, Type (0, 0), BuildingBlock: EZIPEK_clean_linker_0, # of connection points: 2
#     Edge 72, Type (0, 0), BuildingBlock: EZIPEK_clean_linker_0, # of connection points: 2
#     Edge 73, Type (0, 0), BuildingBlock: EZIPEK_clean_linker_0, # of connection points: 2
#     Edge 74, Type (0, 0), BuildingBlock: EZIPEK_clean_linker_0, # of connection points: 2
#     Edge 75, Type (0, 0), BuildingBlock: EZIPEK_clean_linker_0, # of connection points: 2
#     Edge 76, Type (0, 0), BuildingBlock: EZIPEK_clean_linker_0, # of connection points: 2
#     Edge 77, Type (0, 0), BuildingBlock: EZIPEK_clean_linker_0, # of connection points: 2
#     Edge 78, Type (0, 0), BuildingBlock: EZIPEK_clean_linker_0, # of connection points: 2
#     Edge 79, Type (0, 0), BuildingBlock: EZIPEK_clean_linker_0, # of connection points: 2
#     Edge 80, Type (0, 0), BuildingBlock: EZIPEK_clean_linker_0, # of connection points: 2
#     Edge 81, Type (0, 0), BuildingBlock: EZIPEK_clean_linker_0, # of connection points: 2
#     Edge 82, Type (0, 0), BuildingBlock: EZIPEK_clean_linker_0, # of connection points: 2
#     Edge 83, Type (0, 0), BuildingBlock: EZIPEK_clean_linker_0, # of connection points: 2
#     Edge 84, Type (0, 0), BuildingBlock: EZIPEK_clean_linker_0, # of connection points: 2
#     Edge 85, Type (0, 0), BuildingBlock: EZIPEK_clean_linker_0, # of connection points: 2
#     Edge 86, Type (0, 0), BuildingBlock: EZIPEK_clean_linker_0, # of connection points: 2
#     Edge 87, Type (0, 0), BuildingBlock: EZIPEK_clean_linker_0, # of connection points: 2
#     Edge 88, Type (0, 0), BuildingBlock: EZIPEK_clean_linker_0, # of connection points: 2
#     Edge 89, Type (0, 0), BuildingBlock: EZIPEK_clean_linker_0, # of connection points: 2
#     Edge 90, Type (0, 0), BuildingBlock: EZIPEK_clean_linker_0, # of connection points: 2
#     Edge 91, Type (0, 0), BuildingBlock: EZIPEK_clean_linker_0, # of connection points: 2
#     Edge 92, Type (0, 0), BuildingBlock: EZIPEK_clean_linker_0, # of connection points: 2
#     Edge 93, Type (0, 0), BuildingBlock: EZIPEK_clean_linker_0, # of connection points: 2
#     Edge 94, Type (0, 0), BuildingBlock: EZIPEK_clean_linker_0, # of connection points: 2
#     Edge 95, Type (0, 0), BuildingBlock: EZIPEK_clean_linker_0, # of connection points: 2
# Relax obj value: 0.072
# Max RMSD: 0.095
# Mean RMSD: 0.095
data_MOF--net-uka--node1-QUQFOY_clean_sbu_1--edge1-EZIPEK_clean_linker_0
_symmetry_space_group_name_H-M    P1
_symmetry_Int_Tables_number       1
_symmetry_cell_setting            triclinic
loop_
_symmetry_equiv_pos_as_xyz
'x, y, z'
_cell_length_a     47.546232
_cell_length_b     47.5347
_cell_length_c     32.888508
_cell_angle_alpha  90.064544
_cell_angle_beta   90.037188
_cell_angle_gamma 89.980904
loop_
_atom_site_label
_atom_site_type_symbol
_atom_site_fract_x
_atom_site_fract_y
_atom_site_fract_z
_atom_type_partial_charge
O0 O 0.13486 0.22711 0.32931 0.0
Cd1 Cd 0.15023 0.26473 0.3086 0.0
Cd2 Cd 0.09662 0.26768 0.27723 0.0
O3 O 0.09309 0.22743 0.29982 0.0
O4 O 0.19136 0.26026 0.31585 0.0
O5 O 0.17091 0.26505 0.2555 0.0
C6 C 0.19336 0.26079 0.27681 0.0
C7 C 0.0775 0.28226 0.2151 0.0
C8 C 0.11107 0.21584 0.32311 0.0
C9 C 0.11366 0.30812 0.34443 0.0
O10 O 0.09484 0.29766 0.32161 0.0
O11 O 0.13901 0.29983 0.34216 0.0
O12 O 0.0616 0.27544 0.24519 0.0
O13 O 0.10437 0.27928 0.21934 0.0
O14 O 0.03009 0.87799 0.57122 0.0
Cd15 Cd 0.99341 0.89713 0.55437 0.0
Cd16 Cd 0.98826 0.84657 0.51154 0.0
O17 O 0.03007 0.84206 0.52849 0.0
O18 O 0.99899 0.93703 0.57037 0.0
O19 O 0.99071 0.92336 0.50689 0.0
C20 C 0.99572 0.94333 0.53259 0.0
C21 C 0.97184 0.82925 0.44857 0.0
C22 C 0.04171 0.85612 0.55687 0.0
C23 C 0.95127 0.85827 0.58602 0.0
O24 O 0.96033 0.84137 0.55904 0.0
O25 O 0.95955 0.88361 0.58738 0.0
O26 O 0.98026 0.81259 0.47689 0.0
O27 O 0.97371 0.85598 0.45515 0.0
O28 O 0.37785 0.77491 0.81878 0.0
Cd29 Cd 0.35622 0.7393 0.80253 0.0
Cd30 Cd 0.40241 0.73217 0.75608 0.0
O31 O 0.40868 0.77441 0.76868 0.0
O32 O 0.31591 0.74639 0.81465 0.0
O33 O 0.33213 0.73725 0.75264 0.0
C34 C 0.3112 0.74302 0.77632 0.0
C35 C 0.41559 0.7141 0.69207 0.0
C36 C 0.39859 0.78588 0.80046 0.0
C37 C 0.39443 0.69728 0.83352 0.0
O38 O 0.41046 0.70651 0.80558 0.0
O39 O 0.36895 0.70507 0.83559 0.0
O40 O 0.43399 0.72277 0.71789 0.0
O41 O 0.3894 0.71607 0.70208 0.0
O42 O 0.48004 0.12313 0.07057 0.0
Cd43 Cd 0.51655 0.10258 0.05657 0.0
Cd44 Cd 0.52266 0.15011 0.00933 0.0
O45 O 0.4798 0.15325 0.01949 0.0
O46 O 0.50984 0.06265 0.07174 0.0
O47 O 0.51801 0.07674 0.00843 0.0
C48 C 0.51208 0.05673 0.03361 0.0
C49 C 0.54111 0.16705 0.94743 0.0
C50 C 0.46813 0.14265 0.05074 0.0
C51 C 0.55632 0.14288 0.08856 0.0
O52 O 0.54662 0.15851 0.06047 0.0
O53 O 0.55 0.11696 0.09017 0.0
O54 O 0.53093 0.1838 0.9744 0.0
O55 O 0.54052 0.14041 0.95501 0.0
O56 O 0.12269 0.76819 0.18898 0.0
Cd57 Cd 0.14567 0.73329 0.20428 0.0
Cd58 Cd 0.09771 0.72501 0.25166 0.0
O59 O 0.09193 0.76725 0.23925 0.0
O60 O 0.18499 0.74268 0.18899 0.0
O61 O 0.17152 0.73362 0.25232 0.0
C62 C 0.19114 0.74057 0.22704 0.0
C63 C 0.07985 0.70743 0.31377 0.0
C64 C 0.10231 0.77922 0.20813 0.0
C65 C 0.10908 0.6893 0.1748 0.0
O66 O 0.09253 0.6985 0.20217 0.0
O67 O 0.13441 0.69759 0.17326 0.0
O68 O 0.06355 0.71473 0.28441 0.0
O69 O 0.10657 0.71045 0.3084 0.0
O70 O 0.47404 0.87894 0.45486 0.0
Cd71 Cd 0.5135 0.89413 0.46734 0.0
Cd72 Cd 0.52177 0.84128 0.49645 0.0
O73 O 0.48196 0.83488 0.47229 0.0
O74 O 0.50816 0.93498 0.45691 0.0
O75 O 0.51987 0.91787 0.51725 0.0
C76 C 0.51323 0.93917 0.49485 0.0
C77 C 0.53564 0.8265 0.56174 0.0
C78 C 0.46656 0.85336 0.45526 0.0
C79 C 0.55623 0.8583 0.4245 0.0
O80 O 0.5515 0.8398 0.45147 0.0
O81 O 0.54382 0.88199 0.42551 0.0
O82 O 0.53026 0.80865 0.53324 0.0
O83 O 0.53215 0.85289 0.55373 0.0
O84 O 0.36947 0.23016 0.67524 0.0
Cd85 Cd 0.34864 0.26649 0.69086 0.0
Cd86 Cd 0.39224 0.26897 0.74324 0.0
O87 O 0.39433 0.22623 0.73162 0.0
O88 O 0.30869 0.26205 0.67467 0.0
O89 O 0.32293 0.26684 0.73879 0.0
C90 C 0.30275 0.26319 0.71292 0.0
C91 C 0.40532 0.28745 0.80686 0.0
C92 C 0.38643 0.21641 0.69746 0.0
C93 C 0.39051 0.30681 0.66826 0.0
O94 O 0.40467 0.29427 0.69557 0.0
O95 O 0.36438 0.30219 0.66444 0.0
O96 O 0.42347 0.27613 0.7829 0.0
O97 O 0.37926 0.28719 0.79582 0.0
O98 O 0.03266 0.1196 0.94676 0.0
Cd99 Cd 0.99378 0.10324 0.95957 0.0
Cd100 Cd 0.98148 0.15875 0.97872 0.0
O101 O 0.02144 0.16432 0.95504 0.0
O102 O 0.00109 0.06227 0.95319 0.0
O103 O 0.98679 0.08133 0.01108 0.0
C104 C 0.99451 0.05936 0.99085 0.0
C105 C 0.96681 0.17893 0.04063 0.0
C106 C 0.03849 0.14547 0.94279 0.0
C107 C 0.94943 0.13293 0.90999 0.0
O108 O 0.9521 0.15403 0.93343 0.0
O109 O 0.96366 0.11063 0.91546 0.0
O110 O 0.97142 0.19419 0.00893 0.0
O111 O 0.97131 0.15218 0.03761 0.0
O112 O 0.87034 0.77815 0.69651 0.0
Cd113 Cd 0.85334 0.73968 0.70949 0.0
Cd114 Cd 0.90824 0.729 0.73607 0.0
O115 O 0.91457 0.7687 0.71174 0.0
O116 O 0.8131 0.74697 0.69626 0.0
O117 O 0.82776 0.73584 0.75808 0.0
C118 C 0.80751 0.74298 0.73403 0.0
C119 C 0.92549 0.71459 0.79989 0.0
C120 C 0.89614 0.78476 0.6959 0.0
C121 C 0.88693 0.69474 0.66615 0.0
O122 O 0.90673 0.69902 0.69132 0.0
O123 O 0.8638 0.70808 0.66861 0.0
O124 O 0.94221 0.71957 0.76989 0.0
O125 O 0.89892 0.71888 0.79425 0.0
O126 O 0.97118 0.11911 0.43159 0.0
Cd127 Cd 0.00828 0.10388 0.45495 0.0
Cd128 Cd 0.00917 0.15802 0.48731 0.0
O129 O 0.97039 0.16151 0.45943 0.0
O130 O 0.00605 0.06306 0.44267 0.0
O131 O 0.00846 0.0801 0.50541 0.0
C132 C 0.0065 0.05873 0.48127 0.0
C133 C 0.0209 0.17606 0.55154 0.0
C134 C 0.95987 0.14316 0.43561 0.0
C135 C 0.05291 0.14159 0.42449 0.0
O136 O 0.04154 0.16021 0.44673 0.0
O137 O 0.04435 0.11632 0.42511 0.0
O138 O 0.01567 0.1925 0.52133 0.0
O139 O 0.01744 0.14934 0.54618 0.0
O140 O 0.62463 0.23216 0.17896 0.0
Cd141 Cd 0.64542 0.26875 0.19195 0.0
Cd142 Cd 0.59948 0.27388 0.24293 0.0
O143 O 0.59613 0.23105 0.23191 0.0
O144 O 0.68472 0.26202 0.17365 0.0
O145 O 0.67306 0.27092 0.2378 0.0
C146 C 0.69211 0.26482 0.21116 0.0
C147 C 0.58467 0.29213 0.30625 0.0
C148 C 0.60578 0.21987 0.19961 0.0
C149 C 0.60372 0.30829 0.16382 0.0
O150 O 0.58925 0.29827 0.19295 0.0
O151 O 0.62958 0.30217 0.16 0.0
O152 O 0.56709 0.2817 0.28062 0.0
O153 O 0.61099 0.29175 0.2966 0.0
O154 O 0.53025 0.88013 0.94844 0.0
Cd155 Cd 0.4909 0.89691 0.95593 0.0
Cd156 Cd 0.48401 0.84641 0.9976 0.0
O157 O 0.52722 0.8437 0.98919 0.0
O158 O 0.49699 0.93721 0.94221 0.0
O159 O 0.48365 0.92261 1.00328 0.0
C160 C 0.49127 0.9429 0.97959 0.0
C161 C 0.46365 0.83084 0.05898 0.0
C162 C 0.54178 0.85925 0.96576 0.0
C163 C 0.45315 0.85612 0.91687 0.0
O164 O 0.46072 0.83969 0.94537 0.0
O165 O 0.46098 0.88166 0.91632 0.0
O166 O 0.47391 0.81342 0.03292 0.0
O167 O 0.46533 0.85736 0.05081 0.0
O168 O 0.87217 0.20114 0.81022 0.0
Cd169 Cd 0.85509 0.24032 0.80547 0.0
Cd170 Cd 0.90569 0.24919 0.76155 0.0
O171 O 0.9093 0.20617 0.77109 0.0
O172 O 0.81526 0.23379 0.82094 0.0
O173 O 0.82842 0.24905 0.76005 0.0
C174 C 0.8087 0.24092 0.78438 0.0
C175 C 0.92364 0.26877 0.70087 0.0
C176 C 0.89383 0.19075 0.79346 0.0
C177 C 0.89552 0.27919 0.84341 0.0
O178 O 0.91115 0.27359 0.81302 0.0
O179 O 0.87085 0.26916 0.84606 0.0
O180 O 0.94 0.25863 0.72838 0.0
O181 O 0.89687 0.26728 0.7071 0.0
O182 O 0.51911 0.12232 0.5798 0.0
Cd183 Cd 0.48398 0.09874 0.56805 0.0
Cd184 Cd 0.4744 0.14351 0.5159 0.0
O185 O 0.51693 0.15013 0.5262 0.0
O186 O 0.49349 0.05994 0.58579 0.0
O187 O 0.48345 0.07136 0.52186 0.0
C188 C 0.49074 0.05257 0.54825 0.0
C189 C 0.45602 0.15876 0.45283 0.0
C190 C 0.52958 0.14168 0.55803 0.0
C191 C 0.44018 0.13649 0.59497 0.0
O192 O 0.4488 0.15156 0.56559 0.0
O193 O 0.44923 0.11162 0.59983 0.0
O194 O 0.46365 0.1762 0.48062 0.0
O195 O 0.4591 0.1323 0.46036 0.0
O196 O 0.62666 0.77762 0.32765 0.0
Cd197 Cd 0.64923 0.74261 0.31209 0.0
Cd198 Cd 0.60392 0.73793 0.26043 0.0
O199 O 0.60075 0.78071 0.27221 0.0
O200 O 0.68868 0.75023 0.32839 0.0
O201 O 0.67518 0.74262 0.26447 0.0
C202 C 0.69487 0.74843 0.29029 0.0
C203 C 0.58766 0.71883 0.19848 0.0
C204 C 0.60865 0.79063 0.3063 0.0
C205 C 0.6096 0.70076 0.33658 0.0
O206 O 0.59461 0.71213 0.30911 0.0
O207 O 0.63548 0.70676 0.3401 0.0
O208 O 0.57071 0.72981 0.2245 0.0
O209 O 0.61424 0.71987 0.20639 0.0
O210 O 0.97779 0.87852 0.08254 0.0
Cd211 Cd 0.01408 0.90053 0.07225 0.0
Cd212 Cd 0.02159 0.85541 0.0206 0.0
O213 O 0.97825 0.85305 0.02654 0.0
O214 O 0.00629 0.94005 0.0883 0.0
O215 O 0.01725 0.92692 0.02531 0.0
C216 C 0.01038 0.94655 0.05069 0.0
C217 C 0.04193 0.83747 0.96042 0.0
C218 C 0.96615 0.86075 0.05916 0.0
C219 C 0.05327 0.86 0.10238 0.0
O220 O 0.04382 0.84551 0.07285 0.0
O221 O 0.04712 0.88585 0.10588 0.0
O222 O 0.03059 0.82127 0.98702 0.0
O223 O 0.04132 0.86421 0.96728 0.0
O224 O 0.63309 0.72498 0.82099 0.0
Cd225 Cd 0.64772 0.76485 0.81113 0.0
Cd226 Cd 0.59285 0.77216 0.78296 0.0
O227 O 0.58865 0.73131 0.80399 0.0
O228 O 0.6881 0.75878 0.82463 0.0
O229 O 0.67351 0.77196 0.76363 0.0
C230 C 0.69381 0.76434 0.7873 0.0
C231 C 0.57725 0.78658 0.71837 0.0
C232 C 0.60798 0.71621 0.81952 0.0
C233 C 0.61052 0.80625 0.85543 0.0
O234 O 0.59146 0.80103 0.82941 0.0
O235 O 0.63464 0.79474 0.85316 0.0
O236 O 0.55972 0.78033 0.74688 0.0
O237 O 0.60378 0.78392 0.7261 0.0
O238 O 0.5131 0.37884 0.0768 0.0
Cd239 Cd 0.47663 0.3998 0.06367 0.0
Cd240 Cd 0.46984 0.3535 0.01578 0.0
O241 O 0.51267 0.34911 0.02522 0.0
O242 O 0.48438 0.43982 0.07669 0.0
O243 O 0.47366 0.42448 0.01465 0.0
C244 C 0.48079 0.44491 0.03852 0.0
C245 C 0.45022 0.33767 0.95405 0.0
C246 C 0.52462 0.35924 0.05661 0.0
C247 C 0.43709 0.3601 0.0959 0.0
O248 O 0.44631 0.34484 0.06704 0.0
O249 O 0.44366 0.38592 0.09831 0.0
O250 O 0.46032 0.32041 0.98036 0.0
O251 O 0.45162 0.36422 0.96213 0.0
O252 O 0.86753 0.27823 0.31088 0.0
Cd253 Cd 0.85217 0.24128 0.2872 0.0
Cd254 Cd 0.90618 0.23992 0.25601 0.0
O255 O 0.90962 0.27926 0.28238 0.0
O256 O 0.81126 0.24426 0.29935 0.0
O257 O 0.82819 0.24194 0.23669 0.0
C258 C 0.80689 0.24457 0.26075 0.0
C259 C 0.9236 0.22705 0.19162 0.0
C260 C 0.89151 0.28962 0.30669 0.0
C261 C 0.89028 0.19774 0.3209 0.0
O262 O 0.90913 0.20899 0.29894 0.0
O263 O 0.86475 0.20542 0.31807 0.0
O264 O 0.94025 0.23415 0.22082 0.0
O265 O 0.89685 0.22899 0.19806 0.0
O266 O 0.96284 0.61694 0.57783 0.0
Cd267 Cd 0.00199 0.59933 0.57472 0.0
Cd268 Cd 0.01099 0.64665 0.52452 0.0
O269 O 0.96811 0.65159 0.53427 0.0
O270 O 0.99564 0.55977 0.59173 0.0
O271 O 0.01032 0.57197 0.53007 0.0
C272 C 0.00226 0.55265 0.55514 0.0
C273 C 0.02996 0.66214 0.46189 0.0
C274 C 0.95255 0.63754 0.55833 0.0
C275 C 0.04171 0.64098 0.60691 0.0
O276 O 0.03594 0.65458 0.57465 0.0
O277 O 0.03139 0.61675 0.61318 0.0
O278 O 0.0214 0.67952 0.4892 0.0
O279 O 0.0273 0.63564 0.46955 0.0
O280 O 0.63866 0.27432 0.68749 0.0
Cd281 Cd 0.64978 0.2336 0.6998 0.0
Cd282 Cd 0.59816 0.23284 0.73428 0.0
O283 O 0.59616 0.27414 0.71422 0.0
O284 O 0.69075 0.23433 0.68845 0.0
O285 O 0.67297 0.22626 0.74971 0.0
C286 C 0.69463 0.23026 0.72673 0.0
C287 C 0.58411 0.21684 0.79852 0.0
C288 C 0.61521 0.2863 0.69344 0.0
C289 C 0.60744 0.1964 0.66055 0.0
O290 O 0.59079 0.20531 0.6878 0.0
O291 O 0.63308 0.20396 0.66008 0.0
O292 O 0.56607 0.22606 0.77247 0.0
O293 O 0.61047 0.21815 0.78914 0.0
O294 O 0.96121 0.36941 0.94609 0.0
Cd295 Cd 0.9969 0.39232 0.95155 0.0
Cd296 Cd 0.0158 0.35089 0.00606 0.0
O297 O 0.97927 0.33374 0.98043 0.0
O298 O 0.98848 0.4313 0.93347 0.0
O299 O 0.00273 0.42034 0.99598 0.0
C300 C 0.9946 0.43911 0.97003 0.0
C301 C 0.02955 0.33253 0.06987 0.0
C302 C 0.96035 0.34389 0.95714 0.0
C303 C 0.04805 0.36036 0.92971 0.0
O304 O 0.05013 0.35551 0.96754 0.0
O305 O 0.02779 0.37495 0.91618 0.0
O306 O 0.0297 0.31741 0.03755 0.0
O307 O 0.02064 0.35807 0.06677 0.0
O308 O 0.86559 0.72605 0.1907 0.0
Cd309 Cd 0.85304 0.76596 0.20588 0.0
Cd310 Cd 0.90692 0.76847 0.23586 0.0
O311 O 0.90933 0.72789 0.21284 0.0
O312 O 0.81201 0.76354 0.19501 0.0
O313 O 0.82971 0.7711 0.2564 0.0
C314 C 0.80812 0.76663 0.23345 0.0
C315 C 0.9247 0.78271 0.29935 0.0
C316 C 0.88987 0.71523 0.19346 0.0
C317 C 0.89218 0.806 0.16512 0.0
O318 O 0.91048 0.79757 0.19044 0.0
O319 O 0.86703 0.79702 0.16651 0.0
O320 O 0.94119 0.77492 0.27036 0.0
O321 O 0.8979 0.78102 0.29319 0.0
O322 O 0.51917 0.62032 0.42785 0.0
Cd323 Cd 0.48154 0.6023 0.44308 0.0
Cd324 Cd 0.47209 0.65568 0.47338 0.0
O325 O 0.51255 0.66294 0.45284 0.0
O326 O 0.48986 0.56205 0.43214 0.0
O327 O 0.47911 0.57844 0.49336 0.0
C328 C 0.48667 0.55769 0.47046 0.0
C329 C 0.45662 0.67054 0.53767 0.0
C330 C 0.52747 0.6454 0.43309 0.0
C331 C 0.43648 0.63597 0.40286 0.0
O332 O 0.44282 0.65561 0.42744 0.0
O333 O 0.44815 0.61196 0.40519 0.0
O334 O 0.46174 0.6883 0.50902 0.0
O335 O 0.46106 0.64419 0.5303 0.0
O336 O 0.37023 0.26772 0.17865 0.0
Cd337 Cd 0.34882 0.23129 0.18952 0.0
Cd338 Cd 0.39399 0.22332 0.24012 0.0
O339 O 0.39908 0.26617 0.2312 0.0
O340 O 0.30932 0.23976 0.17465 0.0
O341 O 0.3231 0.22838 0.23721 0.0
C342 C 0.30337 0.23612 0.21254 0.0
C343 C 0.40975 0.2045 0.30264 0.0
C344 C 0.38942 0.2788 0.2001 0.0
C345 C 0.38835 0.19081 0.15911 0.0
O346 O 0.40296 0.19933 0.18912 0.0
O347 O 0.36292 0.19837 0.15505 0.0
O348 O 0.42697 0.21309 0.27521 0.0
O349 O 0.38321 0.20674 0.29498 0.0
O350 O 0.47797 0.62293 0.93004 0.0
Cd351 Cd 0.51201 0.60005 0.94896 0.0
Cd352 Cd 0.5191 0.64785 0.995 0.0
O353 O 0.47697 0.65331 0.98087 0.0
O354 O 0.5035 0.55992 0.93771 0.0
O355 O 0.51025 0.57718 0.99986 0.0
C356 C 0.50439 0.55606 0.97652 0.0
C357 C 0.53768 0.66581 0.05634 0.0
C358 C 0.46635 0.64336 0.94835 0.0
C359 C 0.55602 0.63614 0.92018 0.0
O360 O 0.54598 0.65308 0.94635 0.0
O361 O 0.54824 0.61063 0.91909 0.0
O362 O 0.52856 0.68213 0.02811 0.0
O363 O 0.53526 0.63902 0.0508 0.0
O364 O 0.13002 0.71862 0.69385 0.0
Cd365 Cd 0.15107 0.75562 0.69694 0.0
Cd366 Cd 0.11048 0.77378 0.75205 0.0
O367 O 0.09466 0.73532 0.73025 0.0
O368 O 0.19097 0.74924 0.68193 0.0
O369 O 0.17697 0.76372 0.74315 0.0
C370 C 0.19704 0.75613 0.71892 0.0
C371 C 0.09308 0.78889 0.81587 0.0
C372 C 0.10519 0.7163 0.70741 0.0
C373 C 0.11661 0.80462 0.67345 0.0
O374 O 0.11202 0.80711 0.7113 0.0
O375 O 0.13211 0.78492 0.66031 0.0
O376 O 0.07731 0.7874 0.78428 0.0
O377 O 0.11886 0.78083 0.81209 0.0
O378 O 0.02532 0.38219 0.44645 0.0
Cd379 Cd 0.98643 0.39532 0.46564 0.0
Cd380 Cd 0.98541 0.3404 0.49382 0.0
O381 O 0.02608 0.33919 0.47183 0.0
O382 O 0.98903 0.4366 0.45711 0.0
O383 O 0.98372 0.41717 0.5179 0.0
C384 C 0.98731 0.43939 0.49594 0.0
C385 C 0.97112 0.32052 0.55583 0.0
C386 C 0.03738 0.35857 0.45073 0.0
C387 C 0.94553 0.35697 0.42589 0.0
O388 O 0.95619 0.33798 0.44826 0.0
O389 O 0.95272 0.38257 0.43003 0.0
O390 O 0.97908 0.30501 0.52579 0.0
O391 O 0.9727 0.3475 0.55161 0.0
O392 O 0.36313 0.72131 0.32043 0.0
Cd393 Cd 0.34882 0.76125 0.31039 0.0
Cd394 Cd 0.3989 0.76422 0.26764 0.0
O395 O 0.39806 0.72094 0.2768 0.0
O396 O 0.30799 0.75875 0.32232 0.0
O397 O 0.32523 0.76739 0.26077 0.0
C398 C 0.30385 0.7625 0.28398 0.0
C399 C 0.41478 0.7831 0.20556 0.0
C400 C 0.38217 0.70789 0.30161 0.0
C401 C 0.39143 0.79834 0.34598 0.0
O402 O 0.4074 0.78879 0.31817 0.0
O403 O 0.36546 0.79219 0.34687 0.0
O404 O 0.4319 0.77179 0.23113 0.0
O405 O 0.38831 0.78302 0.21443 0.0
O406 O 0.02225 0.61318 0.06866 0.0
Cd407 Cd 0.98334 0.59944 0.05035 0.0
Cd408 Cd 0.98139 0.65313 0.01781 0.0
O409 O 0.02133 0.65598 0.04253 0.0
O410 O 0.98525 0.55831 0.06115 0.0
O411 O 0.9795 0.57616 0.99946 0.0
C412 C 0.98275 0.55444 0.02258 0.0
C413 C 0.96865 0.67025 0.95318 0.0
C414 C 0.03321 0.63733 0.06439 0.0
C415 C 0.9416 0.63893 0.08649 0.0
O416 O 0.95102 0.65697 0.06151 0.0
O417 O 0.95015 0.6136 0.08575 0.0
O418 O 0.97585 0.68703 0.98218 0.0
O419 O 0.97009 0.64352 0.96008 0.0
O420 O 0.12449 0.2808 0.81706 0.0
Cd421 Cd 0.14384 0.24516 0.79611 0.0
Cd422 Cd 0.09112 0.23874 0.75973 0.0
O423 O 0.08546 0.27949 0.78051 0.0
O424 O 0.18434 0.25209 0.80709 0.0
O425 O 0.16728 0.24398 0.74535 0.0
C426 C 0.18851 0.2494 0.76861 0.0
C427 C 0.07103 0.22373 0.69784 0.0
C428 C 0.10099 0.29135 0.80703 0.0
C429 C 0.10876 0.20061 0.83051 0.0
O430 O 0.09018 0.20911 0.80558 0.0
O431 O 0.1336 0.21036 0.82979 0.0
O432 O 0.05571 0.22934 0.72905 0.0
O433 O 0.09782 0.22763 0.70107 0.0
O434 O 0.48313 0.38551 0.57877 0.0
Cd435 Cd 0.52008 0.40336 0.5603 0.0
Cd436 Cd 0.52496 0.35185 0.52244 0.0
O437 O 0.48469 0.34561 0.54425 0.0
O438 O 0.51408 0.4439 0.57188 0.0
O439 O 0.51982 0.4267 0.50962 0.0
C440 C 0.5146 0.44785 0.53315 0.0
C441 C 0.53996 0.33668 0.45792 0.0
C442 C 0.47254 0.36185 0.56955 0.0
C443 C 0.56416 0.36619 0.59268 0.0
O444 O 0.55468 0.34846 0.56722 0.0
O445 O 0.55516 0.39135 0.59317 0.0
O446 O 0.53365 0.31902 0.48615 0.0
O447 O 0.53651 0.36313 0.46548 0.0
C448 C 0.09636 0.16832 0.4137 0.0
C449 C 0.07541 0.15096 0.39666 0.0
C450 C 0.08761 0.16877 0.32912 0.0
C451 C 0.1026 0.19115 0.34775 0.0
N452 N 0.11753 0.21409 0.4105 0.0
N453 N 0.05094 0.13392 0.33703 0.0
C454 C 0.10671 0.19118 0.39072 0.0
C455 C 0.07141 0.15038 0.35387 0.0
N456 N 0.10502 0.1638 0.45273 0.0
N457 N 0.08885 0.16518 0.28796 0.0
H458 H 0.03922 0.11947 0.35365 0.0
H459 H 0.0447 0.13562 0.30676 0.0
H460 H 0.10111 0.17803 0.26932 0.0
H461 H 0.0802 0.14786 0.27308 0.0
H462 H 0.12184 0.17456 0.46588 0.0
H463 H 0.09721 0.14714 0.47007 0.0
H464 H 0.11815 0.21569 0.44209 0.0
H465 H 0.12278 0.23292 0.39635 0.0
C466 C 0.05088 0.82398 0.61426 0.0
C467 C 0.06203 0.84182 0.58377 0.0
C468 C 0.10947 0.83569 0.61194 0.0
C469 C 0.09795 0.81948 0.64424 0.0
N470 N 0.05643 0.80196 0.67945 0.0
N471 N 0.10077 0.86748 0.55522 0.0
C472 C 0.06834 0.81483 0.64646 0.0
C473 C 0.09105 0.84849 0.58301 0.0
N474 N 0.02349 0.81509 0.61206 0.0
N475 N 0.13797 0.83886 0.60905 0.0
H476 H 0.08785 0.87626 0.53292 0.0
H477 H 0.12107 0.87566 0.55547 0.0
H478 H 0.15185 0.83147 0.63118 0.0
H479 H 0.14799 0.8477 0.58401 0.0
H480 H 0.01536 0.79889 0.6298 0.0
H481 H 0.00922 0.82205 0.59026 0.0
H482 H 0.03497 0.80278 0.68572 0.0
H483 H 0.0675 0.79155 0.70208 0.0
C484 C 0.45668 0.82309 0.85892 0.0
C485 C 0.44053 0.84333 0.88013 0.0
C486 C 0.39997 0.83219 0.83708 0.0
C487 C 0.41451 0.80822 0.82201 0.0
N488 N 0.45602 0.77831 0.82497 0.0
N489 N 0.39677 0.86778 0.89007 0.0
C490 C 0.44288 0.80318 0.83393 0.0
C491 C 0.41222 0.84843 0.869 0.0
N492 N 0.48531 0.82274 0.863 0.0
N493 N 0.37453 0.83932 0.82074 0.0
H494 H 0.40545 0.88033 0.9129 0.0
H495 H 0.37516 0.87031 0.88651 0.0
H496 H 0.3654 0.82793 0.797 0.0
H497 H 0.36382 0.85776 0.82799 0.0
H498 H 0.49833 0.81012 0.84517 0.0
H499 H 0.49617 0.83722 0.881 0.0
H500 H 0.47537 0.77263 0.8374 0.0
H501 H 0.44675 0.76191 0.80888 0.0
C502 C 0.40139 0.15091 0.11198 0.0
C503 C 0.40375 0.17943 0.12377 0.0
C504 C 0.44581 0.1852 0.08214 0.0
C505 C 0.4436 0.15661 0.0697 0.0
N506 N 0.41606 0.11421 0.06498 0.0
N507 N 0.42174 0.22581 0.10945 0.0
C508 C 0.42018 0.14011 0.08202 0.0
C509 C 0.42372 0.19726 0.10499 0.0
N510 N 0.38211 0.13399 0.13062 0.0
N511 N 0.46994 0.20025 0.07573 0.0
H512 H 0.40561 0.23543 0.12588 0.0
H513 H 0.43426 0.23992 0.09332 0.0
H514 H 0.48763 0.19237 0.06102 0.0
H515 H 0.47356 0.2199 0.08882 0.0
H516 H 0.38134 0.11227 0.12668 0.0
H517 H 0.36771 0.14168 0.15183 0.0
H518 H 0.39827 0.10199 0.07018 0.0
H519 H 0.4294 0.1061 0.04264 0.0
C520 C 0.05932 0.80248 0.17901 0.0
C521 C 0.08827 0.80396 0.18979 0.0
C522 C 0.09378 0.84629 0.14775 0.0
C523 C 0.06497 0.84455 0.1374 0.0
N524 N 0.01862 0.82765 0.15411 0.0
N525 N 0.13103 0.83109 0.19331 0.0
C526 C 0.04718 0.82495 0.15702 0.0
C527 C 0.10485 0.82724 0.17709 0.0
N528 N 0.04388 0.7787 0.18615 0.0
N529 N 0.11071 0.86517 0.1283 0.0
H530 H 0.13933 0.81772 0.21545 0.0
H531 H 0.14331 0.84881 0.18779 0.0
H532 H 0.1029 0.87978 0.10749 0.0
H533 H 0.13252 0.86534 0.13111 0.0
H534 H 0.02374 0.77568 0.17442 0.0
H535 H 0.05177 0.7607 0.20003 0.0
H536 H 0.00462 0.81546 0.17095 0.0
H537 H 0.00902 0.84408 0.13829 0.0
C538 C 0.41767 0.84151 0.36445 0.0
C539 C 0.40401 0.81676 0.37739 0.0
C540 C 0.42361 0.82334 0.4457 0.0
C541 C 0.44208 0.84418 0.4302 0.0
N542 N 0.45842 0.87092 0.37135 0.0
N543 N 0.39437 0.78296 0.43032 0.0
C544 C 0.43927 0.8532 0.38888 0.0
C545 C 0.40664 0.80756 0.41826 0.0
N546 N 0.41015 0.85365 0.32839 0.0
N547 N 0.42216 0.81883 0.48666 0.0
H548 H 0.38156 0.77094 0.41133 0.0
H549 H 0.39841 0.77353 0.45829 0.0
H550 H 0.43379 0.83066 0.50749 0.0
H551 H 0.40739 0.8056 0.50009 0.0
H552 H 0.4174 0.87332 0.31917 0.0
H553 H 0.39428 0.84542 0.3099 0.0
H554 H 0.45901 0.87476 0.34018 0.0
H555 H 0.47545 0.87989 0.38623 0.0
C556 C 0.43027 0.19119 0.67511 0.0
C557 C 0.40049 0.19142 0.67968 0.0
C558 C 0.39663 0.15114 0.63309 0.0
C559 C 0.42623 0.15107 0.62907 0.0
N560 N 0.47149 0.16449 0.65576 0.0
N561 N 0.3561 0.16765 0.6713 0.0
C562 C 0.44307 0.16876 0.65367 0.0
C563 C 0.3839 0.16997 0.66138 0.0
N564 N 0.44627 0.21354 0.68752 0.0
N565 N 0.38076 0.13402 0.60886 0.0
H566 H 0.34649 0.18088 0.6925 0.0
H567 H 0.34332 0.15119 0.66153 0.0
H568 H 0.38976 0.11938 0.58907 0.0
H569 H 0.35894 0.13525 0.60695 0.0
H570 H 0.4675 0.21563 0.68031 0.0
H571 H 0.43819 0.23152 0.7013 0.0
H572 H 0.48445 0.17503 0.67628 0.0
H573 H 0.48162 0.14835 0.63998 0.0
C574 C 0.09612 0.19239 0.90361 0.0
C575 C 0.09958 0.18173 0.86356 0.0
C576 C 0.06725 0.1432 0.87801 0.0
C577 C 0.06323 0.15408 0.91815 0.0
N578 N 0.08065 0.18314 0.97258 0.0
N579 N 0.0965 0.14271 0.81756 0.0
C580 C 0.0801 0.17668 0.93211 0.0
C581 C 0.08803 0.15548 0.85271 0.0
N582 N 0.10629 0.21838 0.91366 0.0
N583 N 0.04977 0.12309 0.86227 0.0
H584 H 0.11166 0.15162 0.79855 0.0
H585 H 0.09083 0.12224 0.8097 0.0
H586 H 0.03356 0.11349 0.87817 0.0
H587 H 0.04977 0.11747 0.83165 0.0
H588 H 0.10111 0.2287 0.9406 0.0
H589 H 0.11847 0.2305 0.89405 0.0
H590 H 0.09434 0.19789 0.98512 0.0
H591 H 0.06942 0.17156 0.99411 0.0
C592 C 0.90735 0.83405 0.60572 0.0
C593 C 0.93269 0.84688 0.61794 0.0
C594 C 0.92695 0.82695 0.68608 0.0
C595 C 0.90541 0.80915 0.671 0.0
N596 N 0.87737 0.79374 0.61285 0.0
N597 N 0.96816 0.85446 0.66954 0.0
C598 C 0.89568 0.81248 0.63011 0.0
C599 C 0.94272 0.84353 0.65833 0.0
N600 N 0.8948 0.84214 0.57021 0.0
N601 N 0.93224 0.82804 0.72688 0.0
H602 H 0.98045 0.86681 0.65037 0.0
H603 H 0.97798 0.84959 0.69697 0.0
H604 H 0.92049 0.8166 0.74795 0.0
H605 H 0.9461 0.84241 0.73997 0.0
H606 H 0.87482 0.8354 0.56151 0.0
H607 H 0.90316 0.85793 0.55179 0.0
H608 H 0.87275 0.79361 0.58188 0.0
H609 H 0.86873 0.77653 0.62769 0.0
C610 C 0.91337 0.16654 0.42178 0.0
C611 C 0.93709 0.15153 0.40715 0.0
C612 C 0.91888 0.15618 0.33785 0.0
C613 C 0.89964 0.17675 0.35138 0.0
N614 N 0.87858 0.2023 0.4074 0.0
N615 N 0.96481 0.13654 0.34875 0.0
C616 C 0.89635 0.18178 0.39378 0.0
C617 C 0.94029 0.14693 0.36454 0.0
N618 N 0.90713 0.16617 0.4623 0.0
N619 N 0.91738 0.14652 0.2988 0.0
H620 H 0.98263 0.13213 0.36596 0.0
H621 H 0.96872 0.13556 0.3176 0.0
H622 H 0.90172 0.15324 0.27874 0.0
H623 H 0.92959 0.12986 0.2881 0.0
H624 H 0.88872 0.17472 0.47426 0.0
H625 H 0.91897 0.15475 0.48331 0.0
H626 H 0.87836 0.2093 0.43743 0.0
H627 H 0.86505 0.21346 0.38849 0.0
C628 C 0.59698 0.15478 0.13503 0.0
C629 C 0.56817 0.15701 0.12478 0.0
C630 C 0.56257 0.19731 0.17015 0.0
C631 C 0.59154 0.19541 0.18071 0.0
N632 N 0.63444 0.16847 0.18138 0.0
N633 N 0.52184 0.17327 0.14308 0.0
C634 C 0.60811 0.1727 0.16589 0.0
C635 C 0.55042 0.17581 0.14615 0.0
N636 N 0.61382 0.13658 0.11408 0.0
N637 N 0.5471 0.22074 0.17945 0.0
H638 H 0.51221 0.15752 0.12589 0.0
H639 H 0.50787 0.18481 0.16095 0.0
H640 H 0.55485 0.23797 0.19542 0.0
H641 H 0.52706 0.22436 0.16771 0.0
H642 H 0.63563 0.13612 0.11693 0.0
H643 H 0.60595 0.12282 0.09211 0.0
H644 H 0.64684 0.15109 0.17428 0.0
H645 H 0.64278 0.18115 0.20435 0.0
C646 C 0.58427 0.86605 0.92121 0.0
C647 C 0.57017 0.84992 0.95116 0.0
C648 C 0.59416 0.80755 0.92768 0.0
C649 C 0.60258 0.82237 0.89215 0.0
N650 N 0.6091 0.8661 0.85664 0.0
N651 N 0.57541 0.8106 0.99628 0.0
C652 C 0.59924 0.85193 0.8898 0.0
C653 C 0.57955 0.82223 0.95884 0.0
N654 N 0.58398 0.89469 0.92398 0.0
N655 N 0.59832 0.77917 0.93032 0.0
H656 H 0.56718 0.8223 0.02037 0.0
H657 H 0.58339 0.79109 0.00487 0.0
H658 H 0.60947 0.76782 0.90853 0.0
H659 H 0.58953 0.76665 0.95296 0.0
H660 H 0.59519 0.9079 0.90467 0.0
H661 H 0.57496 0.90496 0.94886 0.0
H662 H 0.60456 0.88711 0.85066 0.0
H663 H 0.62115 0.8563 0.83419 0.0
C664 C 0.889 0.14887 0.8392 0.0
C665 C 0.90445 0.16307 0.80868 0.0
C666 C 0.94827 0.14449 0.83595 0.0
C667 C 0.93351 0.1367 0.87184 0.0
N668 N 0.88986 0.12707 0.90603 0.0
N669 N 0.94489 0.1597 0.76552 0.0
C670 C 0.90373 0.13689 0.87259 0.0
C671 C 0.93295 0.15594 0.80281 0.0
N672 N 0.8605 0.14677 0.83549 0.0
N673 N 0.97696 0.14304 0.83477 0.0
H674 H 0.93297 0.1662 0.74055 0.0
H675 H 0.96521 0.15326 0.75826 0.0
H676 H 0.98888 0.13439 0.85821 0.0
H677 H 0.98904 0.15164 0.81149 0.0
H678 H 0.84781 0.13545 0.85539 0.0
H679 H 0.85008 0.15415 0.80964 0.0
H680 H 0.86831 0.12932 0.91053 0.0
H681 H 0.90035 0.11724 0.93004 0.0
C682 C 0.57563 0.19971 0.60161 0.0
C683 C 0.59452 0.18309 0.62452 0.0
C684 C 0.57765 0.14108 0.58924 0.0
C685 C 0.55454 0.15688 0.5739 0.0
N686 N 0.52986 0.20169 0.57066 0.0
N687 N 0.61478 0.13806 0.63995 0.0
C688 C 0.55333 0.18647 0.58051 0.0
C689 C 0.5963 0.15379 0.61778 0.0
N690 N 0.57856 0.22831 0.60118 0.0
N691 N 0.5816 0.11402 0.57646 0.0
H692 H 0.62919 0.14715 0.66 0.0
H693 H 0.61493 0.11616 0.63987 0.0
H694 H 0.56853 0.10454 0.55491 0.0
H695 H 0.59916 0.10205 0.58411 0.0
H696 H 0.56697 0.24137 0.582 0.0
H697 H 0.59466 0.23858 0.61686 0.0
H698 H 0.52701 0.22255 0.57952 0.0
H699 H 0.5119 0.19323 0.5574 0.0
C700 C 0.60994 0.83556 0.34554 0.0
C701 C 0.5937 0.81454 0.32564 0.0
C702 C 0.55154 0.83211 0.35996 0.0
C703 C 0.56879 0.84842 0.38599 0.0
N704 N 0.61407 0.86721 0.40345 0.0
N705 N 0.54852 0.79125 0.31697 0.0
C706 C 0.5979 0.851 0.37836 0.0
C707 C 0.56419 0.81284 0.33268 0.0
N708 N 0.6369 0.84042 0.33305 0.0
N709 N 0.52293 0.83441 0.3623 0.0
H710 H 0.55619 0.77596 0.29732 0.0
H711 H 0.52798 0.78704 0.32609 0.0
H712 H 0.51294 0.84754 0.38318 0.0
H713 H 0.50929 0.82543 0.34114 0.0
H714 H 0.64934 0.85671 0.3442 0.0
H715 H 0.64584 0.82958 0.30863 0.0
H716 H 0.63595 0.86763 0.40242 0.0
H717 H 0.60538 0.87943 0.42667 0.0
C718 C 0.90181 0.84924 0.12322 0.0
C719 C 0.90284 0.81976 0.12801 0.0
C720 C 0.94089 0.81604 0.07858 0.0
C721 C 0.94083 0.8459 0.07448 0.0
N722 N 0.91585 0.88963 0.08281 0.0
N723 N 0.91514 0.7747 0.09989 0.0
C724 C 0.91928 0.86206 0.09334 0.0
C725 C 0.91937 0.80311 0.10162 0.0
N726 N 0.88524 0.86494 0.1484 0.0
N727 N 0.96278 0.80005 0.06456 0.0
H728 H 0.89977 0.76467 0.11721 0.0
H729 H 0.92475 0.76175 0.07839 0.0
H730 H 0.98 0.80784 0.0488 0.0
H731 H 0.96519 0.77885 0.07183 0.0
H732 H 0.88588 0.88682 0.1496 0.0
H733 H 0.87164 0.85573 0.16944 0.0
H734 H 0.89934 0.90208 0.09326 0.0
H735 H 0.92813 0.89917 0.06041 0.0
C736 C 0.56674 0.65133 0.84868 0.0
C737 C 0.57553 0.64777 0.88962 0.0
C738 C 0.60929 0.68594 0.88272 0.0
C739 C 0.60036 0.69006 0.84164 0.0
N740 N 0.57747 0.67093 0.78238 0.0
N741 N 0.61139 0.654 0.94005 0.0
C742 C 0.5814 0.67072 0.82352 0.0
C743 C 0.59924 0.66229 0.90437 0.0
N744 N 0.54334 0.63779 0.83461 0.0
N745 N 0.62493 0.70573 0.90279 0.0
H746 H 0.60399 0.6367 0.95643 0.0
H747 H 0.63031 0.66225 0.95077 0.0
H748 H 0.63173 0.72453 0.89012 0.0
H749 H 0.62884 0.70486 0.93394 0.0
H750 H 0.53392 0.64243 0.80681 0.0
H751 H 0.53239 0.62293 0.85163 0.0
H752 H 0.56568 0.65579 0.76704 0.0
H753 H 0.58843 0.68455 0.76323 0.0
C754 C 0.56804 0.30324 0.10959 0.0
C755 C 0.58822 0.3205 0.12912 0.0
C756 C 0.57249 0.36061 0.08841 0.0
C757 C 0.54886 0.34464 0.0754 0.0
N758 N 0.52179 0.30138 0.0802 0.0
N759 N 0.61031 0.36562 0.13773 0.0
C760 C 0.54616 0.31595 0.08706 0.0
C761 C 0.59099 0.34916 0.11827 0.0
N762 N 0.5697 0.2746 0.11283 0.0
N763 N 0.57712 0.38662 0.07212 0.0
H764 H 0.62443 0.35756 0.15905 0.0
H765 H 0.61132 0.38738 0.13447 0.0
H766 H 0.56403 0.3952 0.04985 0.0
H767 H 0.59511 0.39847 0.07781 0.0
H768 H 0.55698 0.26096 0.09614 0.0
H769 H 0.58577 0.26449 0.12876 0.0
H770 H 0.51788 0.28163 0.09272 0.0
H771 H 0.5042 0.30975 0.06579 0.0
C772 C 0.89534 0.30773 0.37859 0.0
C773 C 0.9003 0.31168 0.3362 0.0
C774 C 0.93117 0.35156 0.35208 0.0
C775 C 0.92533 0.34781 0.39415 0.0
N776 N 0.89397 0.32964 0.44497 0.0
N777 N 0.91633 0.34232 0.28268 0.0
C778 C 0.90432 0.32863 0.40627 0.0
C779 C 0.91599 0.33534 0.32294 0.0
N780 N 0.88492 0.28291 0.3933 0.0
N781 N 0.95237 0.36899 0.33988 0.0
H782 H 0.90495 0.33111 0.26088 0.0
H783 H 0.92545 0.36074 0.27173 0.0
H784 H 0.9638 0.38159 0.35981 0.0
H785 H 0.95975 0.36965 0.31007 0.0
H786 H 0.88357 0.27855 0.42429 0.0
H787 H 0.88111 0.26524 0.37545 0.0
H788 H 0.87703 0.3174 0.45454 0.0
H789 H 0.90042 0.34493 0.46582 0.0
C790 C 0.9035 0.69246 0.59422 0.0
C791 C 0.89343 0.67818 0.62931 0.0
C792 C 0.90865 0.63334 0.60037 0.0
C793 C 0.92436 0.64849 0.57106 0.0
N794 N 0.92267 0.68818 0.52604 0.0
N795 N 0.8824 0.635 0.66378 0.0
C796 C 0.91717 0.67679 0.56325 0.0
C797 C 0.89416 0.64844 0.6313 0.0
N798 N 0.90188 0.72111 0.59193 0.0
N799 N 0.90736 0.60473 0.59766 0.0
H800 H 0.87078 0.64573 0.68582 0.0
H801 H 0.88476 0.61361 0.66951 0.0
H802 H 0.91646 0.59394 0.57331 0.0
H803 H 0.89511 0.59217 0.61656 0.0
H804 H 0.91199 0.73294 0.56966 0.0
H805 H 0.89158 0.73325 0.6137 0.0
H806 H 0.91633 0.70828 0.51745 0.0
H807 H 0.93031 0.67596 0.50207 0.0
C808 C 0.57739 0.35353 0.66462 0.0
C809 C 0.58472 0.35571 0.62289 0.0
C810 C 0.61588 0.31537 0.62877 0.0
C811 C 0.60847 0.31257 0.67073 0.0
N812 N 0.59002 0.33499 0.73088 0.0
N813 N 0.61889 0.3468 0.57099 0.0
C814 C 0.59187 0.33376 0.68949 0.0
C815 C 0.60719 0.33968 0.60744 0.0
N816 N 0.55549 0.3688 0.67995 0.0
N817 N 0.62826 0.29389 0.60759 0.0
H818 H 0.61223 0.36449 0.55478 0.0
H819 H 0.63687 0.33707 0.55949 0.0
H820 H 0.63253 0.2741 0.61939 0.0
H821 H 0.63119 0.29452 0.5762 0.0
H822 H 0.54693 0.36519 0.70864 0.0
H823 H 0.545 0.38419 0.66333 0.0
H824 H 0.57999 0.35133 0.74627 0.0
H825 H 0.60115 0.3213 0.74977 0.0
C826 C 0.95278 0.30057 0.91466 0.0
C827 C 0.94135 0.32462 0.93448 0.0
C828 C 0.89736 0.31816 0.89632 0.0
C829 C 0.90863 0.29329 0.87885 0.0
N830 N 0.94241 0.25554 0.88451 0.0
N831 N 0.90045 0.35229 0.95122 0.0
C832 C 0.93469 0.28266 0.89272 0.0
C833 C 0.91278 0.33209 0.92767 0.0
N834 N 0.98115 0.29617 0.91274 0.0
N835 N 0.87287 0.32926 0.88175 0.0
H836 H 0.91113 0.36233 0.97486 0.0
H837 H 0.87906 0.35699 0.94992 0.0
H838 H 0.86115 0.31969 0.85878 0.0
H839 H 0.86528 0.34894 0.89039 0.0
H840 H 0.99012 0.28004 0.89557 0.0
H841 H 0.99587 0.31069 0.92299 0.0
H842 H 0.96042 0.24638 0.89687 0.0
H843 H 0.92921 0.24141 0.86943 0.0
C844 C 0.92968 0.65051 0.15932 0.0
C845 C 0.92163 0.64905 0.11779 0.0
C846 C 0.88832 0.68741 0.1274 0.0
C847 C 0.89675 0.68967 0.16908 0.0
N848 N 0.91781 0.66693 0.22706 0.0
N849 N 0.88624 0.65771 0.06749 0.0
C850 C 0.91487 0.66896 0.18586 0.0
C851 C 0.89821 0.66444 0.10398 0.0
N852 N 0.9525 0.63582 0.17294 0.0
N853 N 0.87339 0.70826 0.10851 0.0
H854 H 0.89356 0.64094 0.04986 0.0
H855 H 0.8675 0.66661 0.05723 0.0
H856 H 0.8667 0.72673 0.12227 0.0
H857 H 0.87 0.70861 0.0772 0.0
H858 H 0.96151 0.63906 0.20144 0.0
H859 H 0.9633 0.62132 0.15505 0.0
H860 H 0.92896 0.65079 0.24117 0.0
H861 H 0.90652 0.67966 0.24714 0.0
C862 C 0.5791 0.65954 0.34714 0.0
C863 C 0.59555 0.68105 0.36471 0.0
C864 C 0.57312 0.67209 0.43054 0.0
C865 C 0.55264 0.65531 0.41064 0.0
N866 N 0.53371 0.63742 0.34691 0.0
N867 N 0.60748 0.70932 0.42345 0.0
C868 C 0.55517 0.64969 0.36821 0.0
C869 C 0.59281 0.68746 0.40675 0.0
N870 N 0.58594 0.6492 0.30966 0.0
N871 N 0.57388 0.67317 0.47203 0.0
H872 H 0.62231 0.721 0.40742 0.0
H873 H 0.60358 0.71704 0.45257 0.0
H874 H 0.56006 0.66168 0.49021 0.0
H875 H 0.5899 0.68309 0.48823 0.0
H876 H 0.57597 0.63182 0.29673 0.0
H877 H 0.60357 0.65618 0.29366 0.0
H878 H 0.5337 0.6357 0.31532 0.0
H879 H 0.51447 0.63199 0.35967 0.0
C880 C 0.39694 0.34658 0.14198 0.0
C881 C 0.42579 0.34539 0.13182 0.0
C882 C 0.43236 0.3037 0.17398 0.0
C883 C 0.40326 0.30437 0.18406 0.0
N884 N 0.35981 0.33037 0.18697 0.0
N885 N 0.47248 0.32988 0.14938 0.0
C886 C 0.38621 0.32729 0.17123 0.0
C887 C 0.44399 0.32643 0.15201 0.0
N888 N 0.37971 0.36511 0.12237 0.0
N889 N 0.44844 0.28041 0.18158 0.0
H890 H 0.48164 0.34651 0.1335 0.0
H891 H 0.48674 0.31812 0.16643 0.0
H892 H 0.4411 0.26238 0.19595 0.0
H893 H 0.46868 0.27785 0.17 0.0
H894 H 0.3579 0.36492 0.12504 0.0
H895 H 0.38735 0.37991 0.10172 0.0
H896 H 0.34703 0.34771 0.18122 0.0
H897 H 0.35181 0.31673 0.20896 0.0
C898 C 0.44754 0.68745 0.91627 0.0
C899 C 0.44367 0.65867 0.92677 0.0
C900 C 0.40399 0.65555 0.879 0.0
C901 C 0.40788 0.68428 0.86936 0.0
N902 N 0.42627 0.72958 0.88903 0.0
N903 N 0.41437 0.61732 0.9257 0.0
C904 C 0.42721 0.70088 0.89165 0.0
C905 C 0.42051 0.64337 0.91061 0.0
N906 N 0.47172 0.70146 0.92629 0.0
N907 N 0.38546 0.63976 0.85694 0.0
H908 H 0.42589 0.60823 0.94931 0.0
H909 H 0.39651 0.60596 0.91758 0.0
H910 H 0.37269 0.64842 0.83437 0.0
H911 H 0.38386 0.61799 0.85943 0.0
H912 H 0.47659 0.72134 0.91498 0.0
H913 H 0.48841 0.69252 0.94215 0.0
H914 H 0.4382 0.74276 0.90761 0.0
H915 H 0.41139 0.74021 0.87147 0.0
C916 C 0.06115 0.70328 0.66963 0.0
C917 C 0.08661 0.69472 0.68868 0.0
C918 C 0.08165 0.648 0.65723 0.0
C919 C 0.05562 0.65663 0.64027 0.0
N920 N 0.0161 0.6884 0.64376 0.0
N921 N 0.11772 0.65696 0.70806 0.0
C922 C 0.04381 0.68282 0.65139 0.0
C923 C 0.09576 0.66633 0.68497 0.0
N924 N 0.05477 0.7311 0.66478 0.0
N925 N 0.09347 0.62312 0.64548 0.0
H926 H 0.128 0.66983 0.72907 0.0
H927 H 0.12389 0.63595 0.70918 0.0
H928 H 0.08349 0.60922 0.62561 0.0
H929 H 0.11382 0.61714 0.6534 0.0
H930 H 0.03755 0.73805 0.64791 0.0
H931 H 0.06861 0.7472 0.67226 0.0
H932 H 0.0061 0.70652 0.65431 0.0
H933 H 0.00252 0.67353 0.63105 0.0
C934 C 0.06317 0.35885 0.38356 0.0
C935 C 0.06266 0.3521 0.42585 0.0
C936 C 0.10443 0.32251 0.41688 0.0
C937 C 0.1043 0.32909 0.37479 0.0
N938 N 0.09154 0.36178 0.32255 0.0
N939 N 0.08818 0.33532 0.48437 0.0
C940 C 0.08671 0.35065 0.36014 0.0
C941 C 0.08521 0.33658 0.44311 0.0
N942 N 0.0402 0.37004 0.36439 0.0
N943 N 0.12137 0.30161 0.4314 0.0
H944 H 0.07476 0.34603 0.50415 0.0
H945 H 0.10551 0.32618 0.49859 0.0
H946 H 0.13647 0.29156 0.41363 0.0
H947 H 0.11955 0.29343 0.46066 0.0
H948 H 0.03916 0.37264 0.33296 0.0
H949 H 0.02088 0.3735 0.37831 0.0
H950 H 0.08053 0.37908 0.31131 0.0
H951 H 0.10862 0.3554 0.30481 0.0
C952 C 0.42945 0.64846 0.32968 0.0
C953 C 0.41762 0.64291 0.36857 0.0
C954 C 0.37428 0.66653 0.348 0.0
C955 C 0.38915 0.67858 0.31502 0.0
N956 N 0.42248 0.66838 0.26227 0.0
N957 N 0.37746 0.64257 0.41298 0.0
C958 C 0.41418 0.66544 0.30175 0.0
C959 C 0.3893 0.65013 0.3768 0.0
N960 N 0.45594 0.63925 0.32069 0.0
N961 N 0.34586 0.67006 0.35066 0.0
H962 H 0.38774 0.62939 0.43358 0.0
H963 H 0.35807 0.65003 0.42302 0.0
H964 H 0.33445 0.67989 0.32754 0.0
H965 H 0.33342 0.66045 0.37266 0.0
H966 H 0.46726 0.64577 0.29532 0.0
H967 H 0.46695 0.62544 0.33941 0.0
H968 H 0.43967 0.65799 0.24968 0.0
H969 H 0.40987 0.6786 0.24089 0.0
C970 C 0.07954 0.66194 0.07451 0.0
C971 C 0.05738 0.64542 0.09065 0.0
C972 C 0.07968 0.64815 0.15767 0.0
C973 C 0.09723 0.67002 0.14368 0.0
N974 N 0.11288 0.69922 0.08765 0.0
N975 N 0.03383 0.62758 0.15117 0.0
C976 C 0.09741 0.67703 0.10159 0.0
C977 C 0.05696 0.63923 0.13309 0.0
N978 N 0.08351 0.6632 0.03343 0.0
N979 N 0.08412 0.63671 0.1952 0.0
H980 H 0.01505 0.6234 0.13612 0.0
H981 H 0.03199 0.62536 0.18259 0.0
H982 H 0.10086 0.64297 0.2137 0.0
H983 H 0.07319 0.61914 0.20565 0.0
H984 H 0.10082 0.67299 0.02015 0.0
H985 H 0.07111 0.65185 0.01299 0.0
H986 H 0.11084 0.70718 0.05828 0.0
H987 H 0.12634 0.71101 0.10585 0.0
C988 C 0.09238 0.33935 0.83746 0.0
C989 C 0.08757 0.30996 0.83729 0.0
C990 C 0.06226 0.31324 0.90197 0.0
C991 C 0.06452 0.34316 0.90041 0.0
N992 N 0.08079 0.38501 0.8664 0.0
N993 N 0.06544 0.2689 0.8665 0.0
C994 C 0.07933 0.35632 0.86798 0.0
C995 C 0.07194 0.29695 0.8688 0.0
N996 N 0.10977 0.35083 0.80889 0.0
N997 N 0.05098 0.29994 0.93506 0.0
H998 H 0.07329 0.25538 0.84433 0.0
H999 H 0.05048 0.25919 0.88486 0.0
H1000 H 0.03973 0.30976 0.95803 0.0
H1001 H 0.05385 0.2786 0.9409 0.0
H1002 H 0.11658 0.37163 0.80941 0.0
H1003 H 0.11876 0.33893 0.78558 0.0
H1004 H 0.08835 0.39615 0.84147 0.0
H1005 H 0.07343 0.39791 0.88977 0.0
C1006 C 0.42549 0.33763 0.57401 0.0
C1007 C 0.44826 0.35145 0.59348 0.0
C1008 C 0.42481 0.34523 0.65895 0.0
C1009 C 0.40568 0.32625 0.64084 0.0
N1010 N 0.38935 0.30213 0.58031 0.0
N1011 N 0.47228 0.36233 0.65692 0.0
C1012 C 0.40604 0.32208 0.59799 0.0
C1013 C 0.44856 0.35403 0.63663 0.0
N1014 N 0.42227 0.33955 0.53284 0.0
N1015 N 0.42059 0.35428 0.6979 0.0
H1016 H 0.49151 0.36605 0.64279 0.0
H1017 H 0.47386 0.36196 0.68854 0.0
H1018 H 0.40291 0.34843 0.71473 0.0
H1019 H 0.43288 0.36985 0.71146 0.0
H1020 H 0.40463 0.33194 0.51757 0.0
H1021 H 0.4358 0.35133 0.51459 0.0
H1022 H 0.39139 0.29612 0.54997 0.0
H1023 H 0.37492 0.29001 0.59637 0.0
C1024 C 0.25794 0.21998 0.24291 0.0
C1025 C 0.27476 0.24215 0.22759 0.0
C1026 C 0.23627 0.27575 0.23842 0.0
C1027 C 0.22052 0.25414 0.25734 0.0
N1028 N 0.21619 0.20603 0.28003 0.0
N1029 N 0.28197 0.29168 0.21529 0.0
C1030 C 0.23133 0.22633 0.26031 0.0
C1031 C 0.2644 0.27018 0.22621 0.0
N1032 N 0.26697 0.19275 0.23927 0.0
N1033 N 0.22434 0.30157 0.23223 0.0
H1034 H 0.30283 0.28856 0.2066 0.0
H1035 H 0.27674 0.31287 0.21795 0.0
H1036 H 0.2042 0.30674 0.24232 0.0
H1037 H 0.2335 0.31725 0.21457 0.0
H1038 H 0.2545 0.17534 0.24574 0.0
H1039 H 0.28635 0.18735 0.22664 0.0
H1040 H 0.22432 0.18645 0.28793 0.0
H1041 H 0.1957 0.20916 0.29042 0.0
C1042 C 0.97755 0.99274 0.53126 0.0
C1043 C 0.99828 0.97287 0.51932 0.0
C1044 C 0.02623 0.01033 0.48799 0.0
C1045 C 0.00443 0.02973 0.49693 0.0
N1046 N 0.95778 0.03936 0.52215 0.0
N1047 N 0.04118 0.96164 0.48361 0.0
C1048 C 0.97973 0.02101 0.51756 0.0
C1049 C 0.02224 0.98133 0.49673 0.0
N1050 N 0.95577 0.98456 0.55568 0.0
N1051 N 0.05121 0.01991 0.47269 0.0
H1052 H 0.03997 0.94041 0.4914 0.0
H1053 H 0.05719 0.9659 0.46296 0.0
H1054 H 0.05496 0.0411 0.46646 0.0
H1055 H 0.06906 0.00745 0.46938 0.0
H1056 H 0.94202 0.9986 0.56965 0.0
H1057 H 0.95226 0.96368 0.564 0.0
H1058 H 0.93797 0.03346 0.53255 0.0
H1059 H 0.9586 0.06028 0.51275 0.0
C1060 C 0.27532 0.76907 0.73504 0.0
C1061 C 0.28225 0.74579 0.76019 0.0
C1062 C 0.23307 0.72989 0.75923 0.0
C1063 C 0.2262 0.75315 0.73399 0.0
N1064 N 0.24035 0.79293 0.6936 0.0
N1065 N 0.26858 0.70461 0.79799 0.0
C1066 C 0.24724 0.77217 0.72062 0.0
C1067 C 0.26132 0.72635 0.77278 0.0
N1068 N 0.29525 0.78908 0.72699 0.0
N1069 N 0.21277 0.71045 0.76836 0.0
H1070 H 0.28934 0.70004 0.80586 0.0
H1071 H 0.2543 0.69137 0.81229 0.0
H1072 H 0.1919 0.71233 0.75899 0.0
H1073 H 0.21645 0.69162 0.78345 0.0
H1074 H 0.29105 0.80816 0.71279 0.0
H1075 H 0.31602 0.78758 0.73697 0.0
H1076 H 0.25501 0.80542 0.67865 0.0
H1077 H 0.21975 0.79684 0.68424 0.0
C1078 C 0.4824 0.02175 0.99602 0.0
C1079 C 0.50686 0.0277 0.01927 0.0
C1080 C 0.51881 0.9775 0.02101 0.0
C1081 C 0.4955 0.97181 0.9952 0.0
N1082 N 0.45662 0.98826 0.95457 0.0
N1083 N 0.55041 0.01249 0.04953 0.0
C1084 C 0.47778 0.9939 0.98155 0.0
C1085 C 0.52555 0.00588 0.03083 0.0
N1086 N 0.46294 0.04245 0.98938 0.0
N1087 N 0.53461 0.95579 0.03597 0.0
H1088 H 0.55611 0.03306 0.0569 0.0
H1089 H 0.56645 0.99806 0.05486 0.0
H1090 H 0.53163 0.93486 0.02753 0.0
H1091 H 0.54964 0.95817 0.05874 0.0
H1092 H 0.4432 0.03883 0.97671 0.0
H1093 H 0.46554 0.06311 0.99944 0.0
H1094 H 0.44523 0.00377 0.93948 0.0
H1095 H 0.45137 0.9679 0.94543 0.0
C1096 C 0.24221 0.72793 0.22999 0.0
C1097 C 0.22009 0.74643 0.24117 0.0
C1098 C 0.25381 0.77768 0.27527 0.0
C1099 C 0.27549 0.75807 0.26681 0.0
N1100 N 0.2903 0.71282 0.24123 0.0
N1101 N 0.20379 0.78799 0.27618 0.0
C1102 C 0.26976 0.73283 0.24522 0.0
C1103 C 0.22558 0.77103 0.26444 0.0
N1104 N 0.23688 0.70561 0.20484 0.0
N1105 N 0.2605 0.80304 0.29243 0.0
H1106 H 0.18308 0.78486 0.26673 0.0
H1107 H 0.2058 0.80437 0.297 0.0
H1108 H 0.28101 0.80848 0.30053 0.0
H1109 H 0.24633 0.81956 0.29588 0.0
H1110 H 0.25257 0.69354 0.1913 0.0
H1111 H 0.2167 0.69999 0.19544 0.0
H1112 H 0.28664 0.69259 0.23032 0.0
H1113 H 0.31084 0.71559 0.25161 0.0
C1114 C 0.52745 0.98969 0.50001 0.0
C1115 C 0.5093 0.96758 0.51229 0.0
C1116 C 0.4793 0.00114 0.54904 0.0
C1117 C 0.49697 0.02335 0.53569 0.0
N1118 N 0.54018 0.0391 0.5049 0.0
N1119 N 0.46666 0.95173 0.54473 0.0
C1120 C 0.52164 0.01775 0.5127 0.0
C1121 C 0.48509 0.97309 0.53637 0.0
N1122 N 0.5499 0.98379 0.47542 0.0
N1123 N 0.45707 0.00696 0.57412 0.0
H1124 H 0.47021 0.93086 0.53644 0.0
H1125 H 0.44698 0.9546 0.55784 0.0
H1126 H 0.45092 0.02738 0.58163 0.0
H1127 H 0.44539 0.99174 0.58924 0.0
H1128 H 0.56208 0.99896 0.46101 0.0
H1129 H 0.55589 0.96331 0.46795 0.0
H1130 H 0.55993 0.03627 0.49199 0.0
H1131 H 0.53671 0.05987 0.51383 0.0
C1132 C 0.22986 0.28004 0.75383 0.0
C1133 C 0.21709 0.2531 0.75191 0.0
C1134 C 0.25988 0.23322 0.72183 0.0
C1135 C 0.27337 0.2597 0.72668 0.0
N1136 N 0.27262 0.30776 0.75029 0.0
N1137 N 0.22022 0.20331 0.73885 0.0
C1138 C 0.25878 0.28294 0.74369 0.0
C1139 C 0.23208 0.2295 0.73685 0.0
N1140 N 0.21394 0.30303 0.76377 0.0
N1141 N 0.27374 0.21159 0.70302 0.0
H1142 H 0.1998 0.19981 0.74927 0.0
H1143 H 0.23108 0.18476 0.73289 0.0
H1144 H 0.29482 0.21266 0.69443 0.0
H1145 H 0.26404 0.19299 0.69392 0.0
H1146 H 0.22106 0.32367 0.76165 0.0
H1147 H 0.19261 0.30171 0.77098 0.0
H1148 H 0.2643 0.32436 0.76708 0.0
H1149 H 0.29328 0.31132 0.74099 0.0
C1150 C 0.97799 0.00973 0.99754 0.0
C1151 C 0.99668 0.03135 0.01005 0.0
C1152 C 0.02408 0.99747 0.05021 0.0
C1153 C 0.0058 0.97574 0.03673 0.0
N1154 N 0.96264 0.96125 1.0044 0.0
N1155 N 0.03833 0.04651 0.04567 0.0
C1156 C 0.98205 0.98186 0.01208 0.0
C1157 C 0.01972 0.02551 0.03625 0.0
N1158 N 0.95671 0.01588 0.97094 0.0
N1159 N 0.0455 0.99117 0.0765 0.0
H1160 H 0.03561 0.06732 0.03651 0.0
H1161 H 0.05721 0.04349 0.061 0.0
H1162 H 0.05047 0.97066 0.08514 0.0
H1163 H 0.05784 0.00607 0.09124 0.0
H1164 H 0.94452 0.0008 0.95626 0.0
H1165 H 0.95184 0.03637 0.96199 0.0
H1166 H 0.94334 0.96476 0.9904 0.0
H1167 H 0.96479 0.9406 0.01465 0.0
C1168 C 0.75667 0.72984 0.73629 0.0
C1169 C 0.77867 0.74789 0.74916 0.0
C1170 C 0.74497 0.77699 0.78695 0.0
C1171 C 0.72273 0.75997 0.77195 0.0
N1172 N 0.70653 0.72173 0.72952 0.0
N1173 N 0.79395 0.79079 0.78156 0.0
C1174 C 0.72832 0.73694 0.74556 0.0
C1175 C 0.77292 0.77198 0.77331 0.0
N1176 N 0.7631 0.70524 0.71672 0.0
N1177 N 0.73935 0.79789 0.8144 0.0
H1178 H 0.81474 0.78778 0.77244 0.0
H1179 H 0.79059 0.81038 0.79486 0.0
H1180 H 0.71898 0.80362 0.82276 0.0
H1181 H 0.75484 0.80864 0.83051 0.0
H1182 H 0.7485 0.68957 0.71023 0.0
H1183 H 0.78368 0.6993 0.70978 0.0
H1184 H 0.70892 0.707 0.70635 0.0
H1185 H 0.68557 0.72492 0.73752 0.0
C1186 C 0.7284 0.2348 0.24525 0.0
C1187 C 0.72161 0.25964 0.22336 0.0
C1188 C 0.77107 0.27434 0.22491 0.0
C1189 C 0.77804 0.24886 0.24505 0.0
N1190 N 0.76481 0.20274 0.26838 0.0
N1191 N 0.73637 0.30126 0.18732 0.0
C1192 C 0.75707 0.22852 0.25366 0.0
C1193 C 0.74297 0.27879 0.21146 0.0
N1194 N 0.70741 0.21723 0.25803 0.0
N1195 N 0.79094 0.29494 0.22066 0.0
H1196 H 0.7158 0.3063 0.17903 0.0
H1197 H 0.75137 0.31397 0.17343 0.0
H1198 H 0.81176 0.29254 0.22997 0.0
H1199 H 0.78645 0.31522 0.21069 0.0
H1200 H 0.71055 0.20071 0.27827 0.0
H1201 H 0.68632 0.22004 0.25031 0.0
H1202 H 0.75106 0.18585 0.27145 0.0
H1203 H 0.78568 0.19734 0.27432 0.0
C1204 C 0.73614 0.26002 0.74452 0.0
C1205 C 0.72315 0.23308 0.74401 0.0
C1206 C 0.76676 0.21128 0.76797 0.0
C1207 C 0.77932 0.23836 0.77032 0.0
N1208 N 0.77523 0.28882 0.76745 0.0
N1209 N 0.72406 0.18374 0.76059 0.0
C1210 C 0.76385 0.26285 0.76026 0.0
C1211 C 0.73781 0.20892 0.75761 0.0
N1212 N 0.72198 0.28291 0.72975 0.0
N1213 N 0.78289 0.18776 0.77363 0.0
H1214 H 0.70319 0.18101 0.75165 0.0
H1215 H 0.73258 0.16605 0.77459 0.0
H1216 H 0.80426 0.18856 0.78073 0.0
H1217 H 0.77583 0.1674 0.76805 0.0
H1218 H 0.73141 0.3023 0.72428 0.0
H1219 H 0.70091 0.28227 0.72096 0.0
H1220 H 0.764 0.30755 0.76511 0.0
H1221 H 0.79548 0.29167 0.77893 0.0
C1222 C 0.76803 0.73443 0.24876 0.0
C1223 C 0.77984 0.76189 0.25077 0.0
C1224 C 0.73553 0.78063 0.27749 0.0
C1225 C 0.72407 0.75305 0.27667 0.0
N1226 N 0.73003 0.70308 0.26808 0.0
N1227 N 0.77692 0.81035 0.27184 0.0
C1228 C 0.74047 0.72976 0.26398 0.0
C1229 C 0.76425 0.78475 0.26682 0.0
N1230 N 0.7832 0.71283 0.23209 0.0
N1231 N 0.71855 0.80298 0.28677 0.0
H1232 H 0.79753 0.81438 0.26274 0.0
H1233 H 0.76779 0.82709 0.28739 0.0
H1234 H 0.69745 0.80074 0.2948 0.0
H1235 H 0.72461 0.82391 0.28377 0.0
H1236 H 0.77464 0.69335 0.22464 0.0
H1237 H 0.8043 0.71465 0.22388 0.0
H1238 H 0.74191 0.68493 0.26378 0.0
H1239 H 0.70982 0.69889 0.27879 0.0
C1240 C 0.51462 0.48365 0.02314 0.0
C1241 C 0.48661 0.4733 0.02232 0.0
C1242 C 0.47038 0.51699 0.99044 0.0
C1243 C 0.4981 0.528 0.99362 0.0
N1244 N 0.546 0.52363 0.017 0.0
N1245 N 0.43718 0.48075 0.01052 0.0
C1246 C 0.52001 0.51191 0.01139 0.0
C1247 C 0.4643 0.49008 0.0072 0.0
N1248 N 0.53624 0.46596 0.03324 0.0
N1249 N 0.4499 0.53229 0.97134 0.0
H1250 H 0.432 0.46109 0.02242 0.0
H1251 H 0.41962 0.49309 1.0043 0.0
H1252 H 0.45287 0.55291 0.96142 0.0
H1253 H 0.43031 0.52419 0.96342 0.0
H1254 H 0.55739 0.47116 0.03013 0.0
H1255 H 0.53321 0.44501 0.04158 0.0
H1256 H 0.56184 0.51431 0.0342 0.0
H1257 H 0.55131 0.54366 0.00666 0.0
C1258 C 0.96822 0.48226 0.53055 0.0
C1259 C 0.99152 0.46738 0.51452 0.0
C1260 C 0.02257 0.50736 0.52943 0.0
C1261 C 0.99877 0.5232 0.54163 0.0
N1262 N 0.94839 0.52757 0.54855 0.0
N1263 N 0.04062 0.46559 0.49603 0.0
C1264 C 0.97144 0.51109 0.54114 0.0
C1265 C 0.01865 0.4799 0.51318 0.0
N1266 N 0.943 0.46887 0.53548 0.0
N1267 N 0.04896 0.51817 0.53491 0.0
H1268 H 0.03917 0.4447 0.48649 0.0
H1269 H 0.05994 0.47476 0.48932 0.0
H1270 H 0.05258 0.53819 0.54684 0.0
H1271 H 0.06735 0.50664 0.53077 0.0
H1272 H 0.9261 0.47757 0.5512 0.0
H1273 H 0.93958 0.4481 0.52652 0.0
H1274 H 0.92778 0.52083 0.54427 0.0
H1275 H 0.94974 0.54891 0.55566 0.0
C1276 C 0.96865 0.47653 0.00834 0.0
C1277 C 0.99117 0.46888 0.98223 0.0
C1278 C 0.00771 0.51776 0.98114 0.0
C1279 C 0.98446 0.52561 0.00575 0.0
N1280 N 0.94005 0.51406 0.03664 0.0
N1281 N 0.02979 0.48222 0.93882 0.0
C1282 C 0.96416 0.5054 0.0177 0.0
C1283 C 0.00988 0.48956 0.96689 0.0
N1284 N 0.95161 0.45617 0.02433 0.0
N1285 N 0.02858 0.53682 0.97335 0.0
H1286 H 0.03324 0.46152 0.92954 0.0
H1287 H 0.04175 0.4968 0.92277 0.0
H1288 H 0.02785 0.55766 0.98318 0.0
H1289 H 0.04765 0.53157 0.95979 0.0
H1290 H 0.93709 0.45992 0.04739 0.0
H1291 H 0.95303 0.43499 0.0163 0.0
H1292 H 0.92303 0.50092 0.04252 0.0
H1293 H 0.93591 0.53512 0.04333 0.0
C1294 C 0.5285 0.49245 0.49806 0.0
C1295 C 0.50735 0.47573 0.51635 0.0
C1296 C 0.47213 0.51251 0.50352 0.0
C1297 C 0.49369 0.5299 0.48773 0.0
N1298 N 0.54293 0.53885 0.47573 0.0
N1299 N 0.45957 0.46998 0.53988 0.0
C1300 C 0.52203 0.52049 0.4864 0.0
C1301 C 0.47932 0.48587 0.52023 0.0
N1302 N 0.55474 0.48149 0.49177 0.0
N1303 N 0.44468 0.52095 0.50081 0.0
H1304 H 0.46327 0.44946 0.54971 0.0
H1305 H 0.43987 0.47752 0.54833 0.0
H1306 H 0.43871 0.54044 0.48908 0.0
H1307 H 0.42762 0.50804 0.50743 0.0
H1308 H 0.57011 0.49131 0.47429 0.0
H1309 H 0.5607 0.46155 0.50178 0.0
H1310 H 0.56427 0.53432 0.4783 0.0
H1311 H 0.53909 0.5597 0.46753 0.0
C1312 C 0.02956 0.29506 0.1238 0.0
C1313 C 0.04056 0.3208 0.10868 0.0
C1314 C 0.07375 0.32254 0.16584 0.0
C1315 C 0.06517 0.29517 0.17795 0.0
N1316 N 0.0377 0.25347 0.1648 0.0
N1317 N 0.0769 0.35632 0.11109 0.0
C1318 C 0.04376 0.28091 0.15598 0.0
C1319 C 0.06364 0.33388 0.1286 0.0
N1320 N 0.00501 0.28459 0.10828 0.0
N1321 N 0.09059 0.33832 0.19069 0.0
H1322 H 0.07067 0.36508 0.08348 0.0
H1323 H 0.09574 0.36457 0.12205 0.0
H1324 H 0.09793 0.33125 0.21876 0.0
H1325 H 0.09493 0.35948 0.18538 0.0
H1326 H 0.99444 0.26746 0.12073 0.0
H1327 H 0.99368 0.29473 0.08541 0.0
H1328 H 0.02436 0.24108 0.14716 0.0
H1329 H 0.04802 0.24223 0.18758 0.0
C1330 C 0.92812 0.78399 0.37607 0.0
C1331 C 0.93641 0.79479 0.3377 0.0
C1332 C 0.9699 0.82643 0.37188 0.0
C1333 C 0.95946 0.81777 0.41028 0.0
N1334 N 0.92396 0.7927 0.44836 0.0
N1335 N 0.96058 0.83105 0.29987 0.0
C1336 C 0.93726 0.79774 0.41225 0.0
C1337 C 0.95604 0.81735 0.33579 0.0
N1338 N 0.91245 0.75995 0.37818 0.0
N1339 N 0.99375 0.84239 0.3696 0.0
H1340 H 0.95008 0.82597 0.273 0.0
H1341 H 0.97247 0.8494 0.29769 0.0
H1342 H 0.00497 0.84891 0.39517 0.0
H1343 H 0.00395 0.84674 0.34229 0.0
H1344 H 0.90837 0.74949 0.40537 0.0
H1345 H 0.90587 0.74887 0.35249 0.0
H1346 H 0.90586 0.78046 0.45072 0.0
H1347 H 0.92912 0.80309 0.47529 0.0
C1348 C 0.4135 0.71183 0.61527 0.0
C1349 C 0.42466 0.70169 0.65252 0.0
C1350 C 0.45805 0.67218 0.61452 0.0
C1351 C 0.44513 0.68034 0.57743 0.0
N1352 N 0.40574 0.70251 0.54378 0.0
N1353 N 0.45275 0.66683 0.68728 0.0
C1354 C 0.42142 0.69859 0.57816 0.0
C1355 C 0.44554 0.68026 0.65206 0.0
N1356 N 0.39639 0.73494 0.61489 0.0
N1357 N 0.48299 0.65788 0.61413 0.0
H1358 H 0.44331 0.67126 0.71518 0.0
H1359 H 0.46581 0.64923 0.68803 0.0
H1360 H 0.49341 0.65231 0.58744 0.0
H1361 H 0.49475 0.65407 0.6403 0.0
H1362 H 0.39018 0.74495 0.58818 0.0
H1363 H 0.39068 0.74584 0.64112 0.0
H1364 H 0.38672 0.71341 0.54364 0.0
H1365 H 0.41003 0.69232 0.51638 0.0
C1366 C 0.55547 0.18011 0.83465 0.0
C1367 C 0.57442 0.20321 0.83681 0.0
C1368 C 0.5751 0.19899 0.91122 0.0
C1369 C 0.55339 0.17846 0.90917 0.0
N1370 N 0.51954 0.15288 0.86879 0.0
N1371 N 0.59926 0.23736 0.87751 0.0
C1372 C 0.54272 0.16984 0.87083 0.0
C1373 C 0.58354 0.21334 0.87521 0.0
N1374 N 0.55044 0.16722 0.79817 0.0
N1375 N 0.58841 0.20408 0.94735 0.0
H1376 H 0.6056 0.24863 0.85193 0.0
H1377 H 0.60387 0.24748 0.90481 0.0
H1378 H 0.58338 0.19351 0.97415 0.0
H1379 H 0.60625 0.21667 0.94992 0.0
H1380 H 0.53915 0.14854 0.79545 0.0
H1381 H 0.55996 0.17348 0.77109 0.0
H1382 H 0.50897 0.14855 0.84175 0.0
H1383 H 0.50922 0.14523 0.89446 0.0
C1384 C 0.06826 0.66154 0.4081 0.0
C1385 C 0.04253 0.67273 0.42316 0.0
C1386 C 0.04427 0.70928 0.37051 0.0
C1387 C 0.06782 0.69589 0.35227 0.0
N1388 N 0.09795 0.65493 0.34915 0.0
N1389 N 0.00257 0.70316 0.41152 0.0
C1390 C 0.07867 0.67078 0.36976 0.0
C1391 C 0.02952 0.69544 0.40229 0.0
N1392 N 0.08359 0.64312 0.43103 0.0
N1393 N 0.03657 0.73577 0.35882 0.0
H1394 H 0.99034 0.69258 0.43291 0.0
H1395 H 0.99131 0.71789 0.3946 0.0
H1396 H 0.0477 0.74739 0.3373 0.0
H1397 H 0.02117 0.74741 0.37386 0.0
H1398 H 0.10378 0.63662 0.42303 0.0
H1399 H 0.0776 0.63671 0.46004 0.0
H1400 H 0.10432 0.63506 0.35889 0.0
H1401 H 0.10529 0.66009 0.32026 0.0
C1402 C 0.54685 0.81927 0.67661 0.0
C1403 C 0.567 0.79716 0.67821 0.0
C1404 C 0.56946 0.79754 0.60363 0.0
C1405 C 0.54659 0.81681 0.60198 0.0
N1406 N 0.50977 0.84157 0.63777 0.0
N1407 N 0.59297 0.7612 0.64233 0.0
C1408 C 0.53423 0.82649 0.63873 0.0
C1409 C 0.57709 0.78516 0.64146 0.0
N1410 N 0.54058 0.83432 0.71086 0.0
N1411 N 0.58483 0.79193 0.56946 0.0
H1412 H 0.5982 0.75078 0.66917 0.0
H1413 H 0.5984 0.75004 0.61619 0.0
H1414 H 0.58097 0.80152 0.54152 0.0
H1415 H 0.60335 0.7802 0.56993 0.0
H1416 H 0.52815 0.85238 0.71046 0.0
H1417 H 0.55024 0.83073 0.73885 0.0
H1418 H 0.49839 0.84661 0.66385 0.0
H1419 H 0.49927 0.84651 0.61088 0.0
C1420 C 0.43482 0.32406 0.84167 0.0
C1421 C 0.4148 0.30195 0.84459 0.0
C1422 C 0.41422 0.30755 0.9188 0.0
C1423 C 0.43697 0.32687 0.91611 0.0
N1424 N 0.47167 0.35062 0.87509 0.0
N1425 N 0.38787 0.27009 0.88624 0.0
C1426 C 0.44791 0.33452 0.87756 0.0
C1427 C 0.40498 0.2931 0.88324 0.0
N1428 N 0.4407 0.33572 0.80465 0.0
N1429 N 0.40086 0.30366 0.95515 0.0
H1430 H 0.38075 0.25887 0.861 0.0
H1431 H 0.38266 0.2607 0.91382 0.0
H1432 H 0.40662 0.31429 0.98164 0.0
H1433 H 0.38239 0.29207 0.95821 0.0
H1434 H 0.45283 0.35379 0.80109 0.0
H1435 H 0.43117 0.32904 0.77775 0.0
H1436 H 0.48245 0.35411 0.848 0.0
H1437 H 0.48211 0.35851 0.90054 0.0
C1438 C 0.95573 0.1937 0.15378 0.0
C1439 C 0.93499 0.21529 0.15277 0.0
C1440 C 0.93293 0.21077 0.0784 0.0
C1441 C 0.95611 0.19179 0.07918 0.0
N1442 N 0.99389 0.17094 0.11795 0.0
N1443 N 0.9086 0.2487 0.1128 0.0
C1444 C 0.96879 0.18492 0.11697 0.0
C1445 C 0.92495 0.2251 0.11468 0.0
N1446 N 0.96201 0.18037 0.18946 0.0
N1447 N 0.91752 0.21413 0.04366 0.0
H1448 H 0.90308 0.26037 0.13845 0.0
H1449 H 0.90307 0.25832 0.08548 0.0
H1450 H 0.92152 0.20301 0.01696 0.0
H1451 H 0.89884 0.22559 0.0427 0.0
H1452 H 0.97498 0.16271 0.1909 0.0
H1453 H 0.95184 0.18472 0.21681 0.0
H1454 H 0.00532 0.16794 0.14466 0.0
H1455 H 0.00482 0.16513 0.09178 0.0
C1456 C 0.9684 0.67151 0.87623 0.0
C1457 C 0.95769 0.68154 0.91383 0.0
C1458 C 0.92842 0.71565 0.87672 0.0
C1459 C 0.93655 0.70329 0.8392 0.0
N1460 N 0.95947 0.66469 0.80449 0.0
N1461 N 0.92216 0.70869 0.94897 0.0
C1462 C 0.95525 0.67989 0.83926 0.0
C1463 C 0.93621 0.7024 0.91387 0.0
N1464 N 0.99181 0.65483 0.87552 0.0
N1465 N 0.91423 0.74065 0.87715 0.0
H1466 H 0.92602 0.69855 0.9765 0.0
H1467 H 0.90452 0.7217 0.94974 0.0
H1468 H 0.909 0.75162 0.85077 0.0
H1469 H 0.91034 0.75193 0.90375 0.0
H1470 H 0.00214 0.64934 0.84872 0.0
H1471 H 0.00265 0.64894 0.90173 0.0
H1472 H 0.9707 0.64587 0.80392 0.0
H1473 H 0.94923 0.66905 0.77718 0.0
C1474 C 0.03432 0.22466 0.64214 0.0
C1475 C 0.05818 0.21166 0.66026 0.0
C1476 C 0.0587 0.17664 0.60537 0.0
C1477 C 0.03299 0.18759 0.58997 0.0
N1478 N 0.99351 0.21897 0.59864 0.0
N1479 N 0.08849 0.17089 0.66432 0.0
C1480 C 0.01997 0.21076 0.60978 0.0
C1481 C 0.06909 0.1864 0.64337 0.0
N1482 N 0.02601 0.25082 0.6546 0.0
N1483 N 0.07413 0.15799 0.5829 0.0
H1484 H 0.0959 0.17647 0.69305 0.0
H1485 H 0.09487 0.15089 0.65512 0.0
H1486 H 0.06821 0.15113 0.55403 0.0
H1487 H 0.09438 0.15173 0.59103 0.0
H1488 H 0.01054 0.26246 0.63976 0.0
H1489 H 0.0365 0.26215 0.67715 0.0
H1490 H 0.98188 0.2339 0.61463 0.0
H1491 H 0.98204 0.20884 0.57589 0.0
C1492 C 0.57638 0.30892 0.41947 0.0
C1493 C 0.55228 0.32663 0.41882 0.0
C1494 C 0.55296 0.32555 0.34418 0.0
C1495 C 0.57451 0.30479 0.34509 0.0
N1496 N 0.60339 0.27313 0.38449 0.0
N1497 N 0.51479 0.34821 0.38041 0.0
C1498 C 0.58541 0.29555 0.38298 0.0
C1499 C 0.53982 0.33408 0.38111 0.0
N1500 N 0.59138 0.30567 0.45465 0.0
N1501 N 0.54573 0.33798 0.30819 0.0
H1502 H 0.50421 0.3544 0.4067 0.0
H1503 H 0.50323 0.35145 0.35391 0.0
H1504 H 0.55548 0.3331 0.28067 0.0
H1505 H 0.53221 0.35518 0.30628 0.0
H1506 H 0.61068 0.29533 0.4559 0.0
H1507 H 0.58613 0.31582 0.48173 0.0
H1508 H 0.60951 0.26359 0.4116 0.0
H1509 H 0.61007 0.26227 0.35869 0.0
C1510 C 0.45987 0.82844 0.13557 0.0
C1511 C 0.44975 0.82031 0.09667 0.0
C1512 C 0.41683 0.78723 0.12901 0.0
C1513 C 0.42565 0.79673 0.16791 0.0
N1514 N 0.45092 0.83094 0.20805 0.0
N1515 N 0.41431 0.79672 0.05667 0.0
C1516 C 0.44583 0.81869 0.17113 0.0
C1517 C 0.42696 0.80107 0.09349 0.0
N1518 N 0.48371 0.84437 0.13874 0.0
N1519 N 0.3998 0.76418 0.12579 0.0
H1520 H 0.42065 0.80691 0.03015 0.0
H1521 H 0.39582 0.78522 0.05314 0.0
H1522 H 0.39211 0.7533 0.15095 0.0
H1523 H 0.39529 0.75435 0.09823 0.0
H1524 H 0.49387 0.84823 0.16625 0.0
H1525 H 0.49484 0.85167 0.11358 0.0
H1526 H 0.46318 0.84892 0.21165 0.0
H1527 H 0.44063 0.82487 0.23464 0.0
C1528 C 0.93605 0.2884 0.58958 0.0
C1529 C 0.95892 0.30752 0.59312 0.0
C1530 C 0.9561 0.30384 0.66748 0.0
C1531 C 0.93552 0.28227 0.6637 0.0
N1532 N 0.91035 0.24994 0.62028 0.0
N1533 N 0.9943 0.3292 0.63537 0.0
C1534 C 0.92669 0.27341 0.62449 0.0
C1535 C 0.96995 0.3141 0.63207 0.0
N1536 N 0.92232 0.28541 0.55329 0.0
N1537 N 0.9616 0.31551 0.70465 0.0
H1538 H 0.00537 0.33662 0.61021 0.0
H1539 H 0.00494 0.33196 0.66278 0.0
H1540 H 0.95123 0.30945 0.73116 0.0
H1541 H 0.97427 0.33318 0.70852 0.0
H1542 H 0.90376 0.27396 0.55012 0.0
H1543 H 0.92767 0.29672 0.52727 0.0
H1544 H 0.90587 0.24083 0.59218 0.0
H1545 H 0.90364 0.23789 0.6449 0.0
C1546 C 0.40981 0.16723 0.35793 0.0
C1547 C 0.4206 0.19277 0.34174 0.0
C1548 C 0.45743 0.1925 0.39399 0.0
C1549 C 0.44433 0.16933 0.41354 0.0
N1550 N 0.40378 0.13876 0.41823 0.0
N1551 N 0.45044 0.2334 0.35173 0.0
C1552 C 0.41931 0.15777 0.39669 0.0
C1553 C 0.4432 0.20649 0.36189 0.0
N1554 N 0.39148 0.15123 0.33579 0.0
N1555 N 0.484 0.20056 0.40478 0.0
H1556 H 0.43947 0.24519 0.33021 0.0
H1557 H 0.46512 0.24511 0.36814 0.0
H1558 H 0.49597 0.18986 0.42638 0.0
H1559 H 0.49533 0.21573 0.38884 0.0
H1560 H 0.38526 0.13114 0.34469 0.0
H1561 H 0.38488 0.15658 0.30659 0.0
H1562 H 0.38397 0.13193 0.40885 0.0
H1563 H 0.40912 0.13213 0.44741 0.0
C1564 C 0.54194 0.67116 0.1326 0.0
C1565 C 0.55173 0.6778 0.09301 0.0
C1566 C 0.58483 0.7121 0.12231 0.0
C1567 C 0.57644 0.70397 0.16198 0.0
N1568 N 0.55197 0.6708 0.20483 0.0
N1569 N 0.58723 0.69955 0.05097 0.0
C1570 C 0.55643 0.68203 0.16712 0.0
C1571 C 0.57457 0.69683 0.08809 0.0
N1572 N 0.51803 0.65556 0.1374 0.0
N1573 N 0.60159 0.73516 0.11705 0.0
H1574 H 0.58104 0.68806 0.02545 0.0
H1575 H 0.60568 0.71094 0.04648 0.0
H1576 H 0.60929 0.74712 0.14121 0.0
H1577 H 0.60576 0.74393 0.08867 0.0
H1578 H 0.50819 0.65273 0.1654 0.0
H1579 H 0.50649 0.64758 0.11301 0.0
H1580 H 0.53979 0.65291 0.20976 0.0
H1581 H 0.56274 0.67752 0.23071 0.0
C1582 C 0.09486 0.82279 0.8753 0.0
C1583 C 0.08149 0.80012 0.85474 0.0
C1584 C 0.04079 0.80479 0.90013 0.0
C1585 C 0.0554 0.82532 0.92341 0.0
N1586 N 0.09932 0.8488 0.93828 0.0
N1587 N 0.04464 0.7652 0.85417 0.0
C1588 C 0.0833 0.83292 0.91249 0.0
C1589 C 0.0553 0.78982 0.86914 0.0
N1590 N 0.11776 0.8357 0.85855 0.0
N1591 N 0.01269 0.80041 0.90621 0.0
H1592 H 0.05517 0.753 0.83261 0.0
H1593 H 0.02699 0.75535 0.86638 0.0
H1594 H 0.00087 0.81186 0.92717 0.0
H1595 H 0.00051 0.78766 0.88737 0.0
H1596 H 0.12633 0.8542 0.87019 0.0
H1597 H 0.12654 0.82965 0.83087 0.0
H1598 H 0.12068 0.85244 0.93359 0.0
H1599 H 0.09215 0.85587 0.96644 0.0
loop_
_geom_bond_atom_site_label_1
_geom_bond_atom_site_label_2
_geom_bond_distance
_geom_bond_site_symmetry_2
_ccdc_geom_bond_type
O0 Cd1 2.223 . S
O0 C8 1.315 . S
Cd1 O0 2.223 . S
Cd1 O4 2.297 . S
Cd1 O5 2.439 . S
Cd1 O11 2.240 . S
Cd2 O3 2.240 . S
Cd2 O10 2.223 . S
Cd2 O12 2.297 . S
Cd2 O13 2.439 . S
O3 Cd2 2.240 . S
O3 C8 1.279 . S
O4 Cd1 2.297 . S
O4 C6 1.247 . S
O5 Cd1 2.439 . S
O5 C6 1.208 . S
C6 O4 1.247 . S
C6 O5 1.208 . S
C7 O12 1.247 . S
C7 O13 1.208 . S
C8 O0 1.315 . S
C8 O3 1.279 . S
C9 O10 1.315 . S
C9 O11 1.279 . S
O10 Cd2 2.223 . S
O10 C9 1.315 . S
O11 Cd1 2.240 . S
O11 C9 1.279 . S
O12 Cd2 2.297 . S
O12 C7 1.247 . S
O13 Cd2 2.439 . S
O13 C7 1.208 . S
O14 Cd15 2.223 . S
O14 C22 1.315 . S
Cd15 O14 2.223 . S
Cd15 O18 2.297 . S
Cd15 O19 2.439 . S
Cd15 O25 2.240 . S
Cd16 O17 2.240 . S
Cd16 O24 2.223 . S
Cd16 O26 2.297 . S
Cd16 O27 2.439 . S
O17 Cd16 2.240 . S
O17 C22 1.279 . S
O18 Cd15 2.297 . S
O18 C20 1.247 . S
O19 Cd15 2.439 . S
O19 C20 1.208 . S
C20 O18 1.247 . S
C20 O19 1.208 . S
C21 O26 1.247 . S
C21 O27 1.208 . S
C22 O14 1.315 . S
C22 O17 1.279 . S
C23 O24 1.315 . S
C23 O25 1.279 . S
O24 Cd16 2.223 . S
O24 C23 1.315 . S
O25 Cd15 2.240 . S
O25 C23 1.279 . S
O26 Cd16 2.297 . S
O26 C21 1.247 . S
O27 Cd16 2.439 . S
O27 C21 1.208 . S
O28 Cd29 2.223 . S
O28 C36 1.315 . S
Cd29 O28 2.223 . S
Cd29 O32 2.297 . S
Cd29 O33 2.439 . S
Cd29 O39 2.240 . S
Cd30 O31 2.240 . S
Cd30 O38 2.223 . S
Cd30 O40 2.297 . S
Cd30 O41 2.439 . S
O31 Cd30 2.240 . S
O31 C36 1.279 . S
O32 Cd29 2.297 . S
O32 C34 1.247 . S
O33 Cd29 2.439 . S
O33 C34 1.208 . S
C34 O32 1.247 . S
C34 O33 1.208 . S
C35 O40 1.247 . S
C35 O41 1.208 . S
C36 O28 1.315 . S
C36 O31 1.279 . S
C37 O38 1.315 . S
C37 O39 1.279 . S
O38 Cd30 2.223 . S
O38 C37 1.315 . S
O39 Cd29 2.240 . S
O39 C37 1.279 . S
O40 Cd30 2.297 . S
O40 C35 1.247 . S
O41 Cd30 2.439 . S
O41 C35 1.208 . S
O42 Cd43 2.223 . S
O42 C50 1.315 . S
Cd43 O42 2.223 . S
Cd43 O46 2.297 . S
Cd43 O47 2.439 . S
Cd43 O53 2.240 . S
Cd44 O45 2.240 . S
Cd44 O52 2.223 . S
Cd44 O54 2.297 1_554 S
Cd44 O55 2.439 1_554 S
O45 Cd44 2.240 . S
O45 C50 1.279 . S
O46 Cd43 2.297 . S
O46 C48 1.247 . S
O47 Cd43 2.439 . S
O47 C48 1.208 . S
C48 O46 1.247 . S
C48 O47 1.208 . S
C49 O54 1.247 . S
C49 O55 1.208 . S
C50 O42 1.315 . S
C50 O45 1.279 . S
C51 O52 1.315 . S
C51 O53 1.279 . S
O52 Cd44 2.223 . S
O52 C51 1.315 . S
O53 Cd43 2.240 . S
O53 C51 1.279 . S
O54 Cd44 2.297 1_556 S
O54 C49 1.247 . S
O55 Cd44 2.439 1_556 S
O55 C49 1.208 . S
O56 Cd57 2.223 . S
O56 C64 1.315 . S
Cd57 O56 2.223 . S
Cd57 O60 2.297 . S
Cd57 O61 2.439 . S
Cd57 O67 2.240 . S
Cd58 O59 2.240 . S
Cd58 O66 2.223 . S
Cd58 O68 2.297 . S
Cd58 O69 2.439 . S
O59 Cd58 2.240 . S
O59 C64 1.279 . S
O60 Cd57 2.297 . S
O60 C62 1.247 . S
O61 Cd57 2.439 . S
O61 C62 1.208 . S
C62 O60 1.247 . S
C62 O61 1.208 . S
C63 O68 1.247 . S
C63 O69 1.208 . S
C64 O56 1.315 . S
C64 O59 1.279 . S
C65 O66 1.315 . S
C65 O67 1.279 . S
O66 Cd58 2.223 . S
O66 C65 1.315 . S
O67 Cd57 2.240 . S
O67 C65 1.279 . S
O68 Cd58 2.297 . S
O68 C63 1.247 . S
O69 Cd58 2.439 . S
O69 C63 1.208 . S
O70 Cd71 2.223 . S
O70 C78 1.315 . S
Cd71 O70 2.223 . S
Cd71 O74 2.297 . S
Cd71 O75 2.439 . S
Cd71 O81 2.240 . S
Cd72 O73 2.240 . S
Cd72 O80 2.223 . S
Cd72 O82 2.297 . S
Cd72 O83 2.439 . S
O73 Cd72 2.240 . S
O73 C78 1.279 . S
O74 Cd71 2.297 . S
O74 C76 1.247 . S
O75 Cd71 2.439 . S
O75 C76 1.208 . S
C76 O74 1.247 . S
C76 O75 1.208 . S
C77 O82 1.247 . S
C77 O83 1.208 . S
C78 O70 1.315 . S
C78 O73 1.279 . S
C79 O80 1.315 . S
C79 O81 1.279 . S
O80 Cd72 2.223 . S
O80 C79 1.315 . S
O81 Cd71 2.240 . S
O81 C79 1.279 . S
O82 Cd72 2.297 . S
O82 C77 1.247 . S
O83 Cd72 2.439 . S
O83 C77 1.208 . S
O84 Cd85 2.223 . S
O84 C92 1.315 . S
Cd85 O84 2.223 . S
Cd85 O88 2.297 . S
Cd85 O89 2.439 . S
Cd85 O95 2.240 . S
Cd86 O87 2.240 . S
Cd86 O94 2.223 . S
Cd86 O96 2.297 . S
Cd86 O97 2.439 . S
O87 Cd86 2.240 . S
O87 C92 1.279 . S
O88 Cd85 2.297 . S
O88 C90 1.247 . S
O89 Cd85 2.439 . S
O89 C90 1.208 . S
C90 O88 1.247 . S
C90 O89 1.208 . S
C91 O96 1.247 . S
C91 O97 1.208 . S
C92 O84 1.315 . S
C92 O87 1.279 . S
C93 O94 1.315 . S
C93 O95 1.279 . S
O94 Cd86 2.223 . S
O94 C93 1.315 . S
O95 Cd85 2.240 . S
O95 C93 1.279 . S
O96 Cd86 2.297 . S
O96 C91 1.247 . S
O97 Cd86 2.439 . S
O97 C91 1.208 . S
O98 Cd99 2.223 . S
O98 C106 1.315 . S
Cd99 O98 2.223 . S
Cd99 O102 2.297 . S
Cd99 O103 2.439 . S
Cd99 O109 2.240 . S
Cd100 O101 2.240 . S
Cd100 O108 2.223 . S
Cd100 O110 2.297 1_556 S
Cd100 O111 2.439 1_556 S
O101 Cd100 2.240 . S
O101 C106 1.279 . S
O102 Cd99 2.297 . S
O102 C104 1.247 . S
O103 Cd99 2.439 . S
O103 C104 1.208 . S
C104 O102 1.247 . S
C104 O103 1.208 . S
C105 O110 1.247 . S
C105 O111 1.208 . S
C106 O98 1.315 . S
C106 O101 1.279 . S
C107 O108 1.315 . S
C107 O109 1.279 . S
O108 Cd100 2.223 . S
O108 C107 1.315 . S
O109 Cd99 2.240 . S
O109 C107 1.279 . S
O110 Cd100 2.297 1_554 S
O110 C105 1.247 . S
O111 Cd100 2.439 1_554 S
O111 C105 1.208 . S
O112 Cd113 2.223 . S
O112 C120 1.315 . S
Cd113 O112 2.223 . S
Cd113 O116 2.297 . S
Cd113 O117 2.439 . S
Cd113 O123 2.240 . S
Cd114 O115 2.240 . S
Cd114 O122 2.223 . S
Cd114 O124 2.297 . S
Cd114 O125 2.439 . S
O115 Cd114 2.240 . S
O115 C120 1.279 . S
O116 Cd113 2.297 . S
O116 C118 1.247 . S
O117 Cd113 2.439 . S
O117 C118 1.208 . S
C118 O116 1.247 . S
C118 O117 1.208 . S
C119 O124 1.247 . S
C119 O125 1.208 . S
C120 O112 1.315 . S
C120 O115 1.279 . S
C121 O122 1.315 . S
C121 O123 1.279 . S
O122 Cd114 2.223 . S
O122 C121 1.315 . S
O123 Cd113 2.240 . S
O123 C121 1.279 . S
O124 Cd114 2.297 . S
O124 C119 1.247 . S
O125 Cd114 2.439 . S
O125 C119 1.208 . S
O126 Cd127 2.223 . S
O126 C134 1.315 . S
Cd127 O126 2.223 . S
Cd127 O130 2.297 . S
Cd127 O131 2.439 . S
Cd127 O137 2.240 . S
Cd128 O129 2.240 . S
Cd128 O136 2.223 . S
Cd128 O138 2.297 . S
Cd128 O139 2.439 . S
O129 Cd128 2.240 . S
O129 C134 1.279 . S
O130 Cd127 2.297 . S
O130 C132 1.247 . S
O131 Cd127 2.439 . S
O131 C132 1.208 . S
C132 O130 1.247 . S
C132 O131 1.208 . S
C133 O138 1.247 . S
C133 O139 1.208 . S
C134 O126 1.315 . S
C134 O129 1.279 . S
C135 O136 1.315 . S
C135 O137 1.279 . S
O136 Cd128 2.223 . S
O136 C135 1.315 . S
O137 Cd127 2.240 . S
O137 C135 1.279 . S
O138 Cd128 2.297 . S
O138 C133 1.247 . S
O139 Cd128 2.439 . S
O139 C133 1.208 . S
O140 Cd141 2.223 . S
O140 C148 1.315 . S
Cd141 O140 2.223 . S
Cd141 O144 2.297 . S
Cd141 O145 2.439 . S
Cd141 O151 2.240 . S
Cd142 O143 2.240 . S
Cd142 O150 2.223 . S
Cd142 O152 2.297 . S
Cd142 O153 2.439 . S
O143 Cd142 2.240 . S
O143 C148 1.279 . S
O144 Cd141 2.297 . S
O144 C146 1.247 . S
O145 Cd141 2.439 . S
O145 C146 1.208 . S
C146 O144 1.247 . S
C146 O145 1.208 . S
C147 O152 1.247 . S
C147 O153 1.208 . S
C148 O140 1.315 . S
C148 O143 1.279 . S
C149 O150 1.315 . S
C149 O151 1.279 . S
O150 Cd142 2.223 . S
O150 C149 1.315 . S
O151 Cd141 2.240 . S
O151 C149 1.279 . S
O152 Cd142 2.297 . S
O152 C147 1.247 . S
O153 Cd142 2.439 . S
O153 C147 1.208 . S
O154 Cd155 2.223 . S
O154 C162 1.315 . S
Cd155 O154 2.223 . S
Cd155 O158 2.297 . S
Cd155 O159 2.439 . S
Cd155 O165 2.240 . S
Cd156 O157 2.240 . S
Cd156 O164 2.223 . S
Cd156 O166 2.297 1_556 S
Cd156 O167 2.439 1_556 S
O157 Cd156 2.240 . S
O157 C162 1.279 . S
O158 Cd155 2.297 . S
O158 C160 1.247 . S
O159 Cd155 2.439 . S
O159 C160 1.208 . S
C160 O158 1.247 . S
C160 O159 1.208 . S
C161 O166 1.247 . S
C161 O167 1.208 . S
C162 O154 1.315 . S
C162 O157 1.279 . S
C163 O164 1.315 . S
C163 O165 1.279 . S
O164 Cd156 2.223 . S
O164 C163 1.315 . S
O165 Cd155 2.240 . S
O165 C163 1.279 . S
O166 Cd156 2.297 1_554 S
O166 C161 1.247 . S
O167 Cd156 2.439 1_554 S
O167 C161 1.208 . S
O168 Cd169 2.223 . S
O168 C176 1.315 . S
Cd169 O168 2.223 . S
Cd169 O172 2.297 . S
Cd169 O173 2.439 . S
Cd169 O179 2.240 . S
Cd170 O171 2.240 . S
Cd170 O178 2.223 . S
Cd170 O180 2.297 . S
Cd170 O181 2.439 . S
O171 Cd170 2.240 . S
O171 C176 1.279 . S
O172 Cd169 2.297 . S
O172 C174 1.247 . S
O173 Cd169 2.439 . S
O173 C174 1.208 . S
C174 O172 1.247 . S
C174 O173 1.208 . S
C175 O180 1.247 . S
C175 O181 1.208 . S
C176 O168 1.315 . S
C176 O171 1.279 . S
C177 O178 1.315 . S
C177 O179 1.279 . S
O178 Cd170 2.223 . S
O178 C177 1.315 . S
O179 Cd169 2.240 . S
O179 C177 1.279 . S
O180 Cd170 2.297 . S
O180 C175 1.247 . S
O181 Cd170 2.439 . S
O181 C175 1.208 . S
O182 Cd183 2.223 . S
O182 C190 1.315 . S
Cd183 O182 2.223 . S
Cd183 O186 2.297 . S
Cd183 O187 2.439 . S
Cd183 O193 2.240 . S
Cd184 O185 2.240 . S
Cd184 O192 2.223 . S
Cd184 O194 2.297 . S
Cd184 O195 2.439 . S
O185 Cd184 2.240 . S
O185 C190 1.279 . S
O186 Cd183 2.297 . S
O186 C188 1.247 . S
O187 Cd183 2.439 . S
O187 C188 1.208 . S
C188 O186 1.247 . S
C188 O187 1.208 . S
C189 O194 1.247 . S
C189 O195 1.208 . S
C190 O182 1.315 . S
C190 O185 1.279 . S
C191 O192 1.315 . S
C191 O193 1.279 . S
O192 Cd184 2.223 . S
O192 C191 1.315 . S
O193 Cd183 2.240 . S
O193 C191 1.279 . S
O194 Cd184 2.297 . S
O194 C189 1.247 . S
O195 Cd184 2.439 . S
O195 C189 1.208 . S
O196 Cd197 2.223 . S
O196 C204 1.315 . S
Cd197 O196 2.223 . S
Cd197 O200 2.297 . S
Cd197 O201 2.439 . S
Cd197 O207 2.240 . S
Cd198 O199 2.240 . S
Cd198 O206 2.223 . S
Cd198 O208 2.297 . S
Cd198 O209 2.439 . S
O199 Cd198 2.240 . S
O199 C204 1.279 . S
O200 Cd197 2.297 . S
O200 C202 1.247 . S
O201 Cd197 2.439 . S
O201 C202 1.208 . S
C202 O200 1.247 . S
C202 O201 1.208 . S
C203 O208 1.247 . S
C203 O209 1.208 . S
C204 O196 1.315 . S
C204 O199 1.279 . S
C205 O206 1.315 . S
C205 O207 1.279 . S
O206 Cd198 2.223 . S
O206 C205 1.315 . S
O207 Cd197 2.240 . S
O207 C205 1.279 . S
O208 Cd198 2.297 . S
O208 C203 1.247 . S
O209 Cd198 2.439 . S
O209 C203 1.208 . S
O210 Cd211 2.223 . S
O210 C218 1.315 . S
Cd211 O210 2.223 . S
Cd211 O214 2.297 . S
Cd211 O215 2.439 . S
Cd211 O221 2.240 . S
Cd212 O213 2.240 . S
Cd212 O220 2.223 . S
Cd212 O222 2.297 1_554 S
Cd212 O223 2.439 1_554 S
O213 Cd212 2.240 . S
O213 C218 1.279 . S
O214 Cd211 2.297 . S
O214 C216 1.247 . S
O215 Cd211 2.439 . S
O215 C216 1.208 . S
C216 O214 1.247 . S
C216 O215 1.208 . S
C217 O222 1.247 . S
C217 O223 1.208 . S
C218 O210 1.315 . S
C218 O213 1.279 . S
C219 O220 1.315 . S
C219 O221 1.279 . S
O220 Cd212 2.223 . S
O220 C219 1.315 . S
O221 Cd211 2.240 . S
O221 C219 1.279 . S
O222 Cd212 2.297 1_556 S
O222 C217 1.247 . S
O223 Cd212 2.439 1_556 S
O223 C217 1.208 . S
O224 Cd225 2.223 . S
O224 C232 1.315 . S
Cd225 O224 2.223 . S
Cd225 O228 2.297 . S
Cd225 O229 2.439 . S
Cd225 O235 2.240 . S
Cd226 O227 2.240 . S
Cd226 O234 2.223 . S
Cd226 O236 2.297 . S
Cd226 O237 2.439 . S
O227 Cd226 2.240 . S
O227 C232 1.279 . S
O228 Cd225 2.297 . S
O228 C230 1.247 . S
O229 Cd225 2.439 . S
O229 C230 1.208 . S
C230 O228 1.247 . S
C230 O229 1.208 . S
C231 O236 1.247 . S
C231 O237 1.208 . S
C232 O224 1.315 . S
C232 O227 1.279 . S
C233 O234 1.315 . S
C233 O235 1.279 . S
O234 Cd226 2.223 . S
O234 C233 1.315 . S
O235 Cd225 2.240 . S
O235 C233 1.279 . S
O236 Cd226 2.297 . S
O236 C231 1.247 . S
O237 Cd226 2.439 . S
O237 C231 1.208 . S
O238 Cd239 2.223 . S
O238 C246 1.315 . S
Cd239 O238 2.223 . S
Cd239 O242 2.297 . S
Cd239 O243 2.439 . S
Cd239 O249 2.240 . S
Cd240 O241 2.240 . S
Cd240 O248 2.223 . S
Cd240 O250 2.297 1_554 S
Cd240 O251 2.439 1_554 S
O241 Cd240 2.240 . S
O241 C246 1.279 . S
O242 Cd239 2.297 . S
O242 C244 1.247 . S
O243 Cd239 2.439 . S
O243 C244 1.208 . S
C244 O242 1.247 . S
C244 O243 1.208 . S
C245 O250 1.247 . S
C245 O251 1.208 . S
C246 O238 1.315 . S
C246 O241 1.279 . S
C247 O248 1.315 . S
C247 O249 1.279 . S
O248 Cd240 2.223 . S
O248 C247 1.315 . S
O249 Cd239 2.240 . S
O249 C247 1.279 . S
O250 Cd240 2.297 1_556 S
O250 C245 1.247 . S
O251 Cd240 2.439 1_556 S
O251 C245 1.208 . S
O252 Cd253 2.223 . S
O252 C260 1.315 . S
Cd253 O252 2.223 . S
Cd253 O256 2.297 . S
Cd253 O257 2.439 . S
Cd253 O263 2.240 . S
Cd254 O255 2.240 . S
Cd254 O262 2.223 . S
Cd254 O264 2.297 . S
Cd254 O265 2.439 . S
O255 Cd254 2.240 . S
O255 C260 1.279 . S
O256 Cd253 2.297 . S
O256 C258 1.247 . S
O257 Cd253 2.439 . S
O257 C258 1.208 . S
C258 O256 1.247 . S
C258 O257 1.208 . S
C259 O264 1.247 . S
C259 O265 1.208 . S
C260 O252 1.315 . S
C260 O255 1.279 . S
C261 O262 1.315 . S
C261 O263 1.279 . S
O262 Cd254 2.223 . S
O262 C261 1.315 . S
O263 Cd253 2.240 . S
O263 C261 1.279 . S
O264 Cd254 2.297 . S
O264 C259 1.247 . S
O265 Cd254 2.439 . S
O265 C259 1.208 . S
O266 Cd267 2.223 . S
O266 C274 1.315 . S
Cd267 O266 2.223 . S
Cd267 O270 2.297 . S
Cd267 O271 2.439 . S
Cd267 O277 2.240 . S
Cd268 O269 2.240 . S
Cd268 O276 2.223 . S
Cd268 O278 2.297 . S
Cd268 O279 2.439 . S
O269 Cd268 2.240 . S
O269 C274 1.279 . S
O270 Cd267 2.297 . S
O270 C272 1.247 . S
O271 Cd267 2.439 . S
O271 C272 1.208 . S
C272 O270 1.247 . S
C272 O271 1.208 . S
C273 O278 1.247 . S
C273 O279 1.208 . S
C274 O266 1.315 . S
C274 O269 1.279 . S
C275 O276 1.315 . S
C275 O277 1.279 . S
O276 Cd268 2.223 . S
O276 C275 1.315 . S
O277 Cd267 2.240 . S
O277 C275 1.279 . S
O278 Cd268 2.297 . S
O278 C273 1.247 . S
O279 Cd268 2.439 . S
O279 C273 1.208 . S
O280 Cd281 2.223 . S
O280 C288 1.315 . S
Cd281 O280 2.223 . S
Cd281 O284 2.297 . S
Cd281 O285 2.439 . S
Cd281 O291 2.240 . S
Cd282 O283 2.240 . S
Cd282 O290 2.223 . S
Cd282 O292 2.297 . S
Cd282 O293 2.439 . S
O283 Cd282 2.240 . S
O283 C288 1.279 . S
O284 Cd281 2.297 . S
O284 C286 1.247 . S
O285 Cd281 2.439 . S
O285 C286 1.208 . S
C286 O284 1.247 . S
C286 O285 1.208 . S
C287 O292 1.247 . S
C287 O293 1.208 . S
C288 O280 1.315 . S
C288 O283 1.279 . S
C289 O290 1.315 . S
C289 O291 1.279 . S
O290 Cd282 2.223 . S
O290 C289 1.315 . S
O291 Cd281 2.240 . S
O291 C289 1.279 . S
O292 Cd282 2.297 . S
O292 C287 1.247 . S
O293 Cd282 2.439 . S
O293 C287 1.208 . S
O294 Cd295 2.223 . S
O294 C302 1.315 . S
Cd295 O294 2.223 . S
Cd295 O298 2.297 . S
Cd295 O299 2.439 . S
Cd295 O305 2.240 . S
Cd296 O297 2.240 . S
Cd296 O304 2.223 . S
Cd296 O306 2.297 1_556 S
Cd296 O307 2.439 1_556 S
O297 Cd296 2.240 . S
O297 C302 1.279 . S
O298 Cd295 2.297 . S
O298 C300 1.247 . S
O299 Cd295 2.439 . S
O299 C300 1.208 . S
C300 O298 1.247 . S
C300 O299 1.208 . S
C301 O306 1.247 . S
C301 O307 1.208 . S
C302 O294 1.315 . S
C302 O297 1.279 . S
C303 O304 1.315 . S
C303 O305 1.279 . S
O304 Cd296 2.223 . S
O304 C303 1.315 . S
O305 Cd295 2.240 . S
O305 C303 1.279 . S
O306 Cd296 2.297 1_554 S
O306 C301 1.247 . S
O307 Cd296 2.439 1_554 S
O307 C301 1.208 . S
O308 Cd309 2.223 . S
O308 C316 1.315 . S
Cd309 O308 2.223 . S
Cd309 O312 2.297 . S
Cd309 O313 2.439 . S
Cd309 O319 2.240 . S
Cd310 O311 2.240 . S
Cd310 O318 2.223 . S
Cd310 O320 2.297 . S
Cd310 O321 2.439 . S
O311 Cd310 2.240 . S
O311 C316 1.279 . S
O312 Cd309 2.297 . S
O312 C314 1.247 . S
O313 Cd309 2.439 . S
O313 C314 1.208 . S
C314 O312 1.247 . S
C314 O313 1.208 . S
C315 O320 1.247 . S
C315 O321 1.208 . S
C316 O308 1.315 . S
C316 O311 1.279 . S
C317 O318 1.315 . S
C317 O319 1.279 . S
O318 Cd310 2.223 . S
O318 C317 1.315 . S
O319 Cd309 2.240 . S
O319 C317 1.279 . S
O320 Cd310 2.297 . S
O320 C315 1.247 . S
O321 Cd310 2.439 . S
O321 C315 1.208 . S
O322 Cd323 2.223 . S
O322 C330 1.315 . S
Cd323 O322 2.223 . S
Cd323 O326 2.297 . S
Cd323 O327 2.439 . S
Cd323 O333 2.240 . S
Cd324 O325 2.240 . S
Cd324 O332 2.223 . S
Cd324 O334 2.297 . S
Cd324 O335 2.439 . S
O325 Cd324 2.240 . S
O325 C330 1.279 . S
O326 Cd323 2.297 . S
O326 C328 1.247 . S
O327 Cd323 2.439 . S
O327 C328 1.208 . S
C328 O326 1.247 . S
C328 O327 1.208 . S
C329 O334 1.247 . S
C329 O335 1.208 . S
C330 O322 1.315 . S
C330 O325 1.279 . S
C331 O332 1.315 . S
C331 O333 1.279 . S
O332 Cd324 2.223 . S
O332 C331 1.315 . S
O333 Cd323 2.240 . S
O333 C331 1.279 . S
O334 Cd324 2.297 . S
O334 C329 1.247 . S
O335 Cd324 2.439 . S
O335 C329 1.208 . S
O336 Cd337 2.223 . S
O336 C344 1.315 . S
Cd337 O336 2.223 . S
Cd337 O340 2.297 . S
Cd337 O341 2.439 . S
Cd337 O347 2.240 . S
Cd338 O339 2.240 . S
Cd338 O346 2.223 . S
Cd338 O348 2.297 . S
Cd338 O349 2.439 . S
O339 Cd338 2.240 . S
O339 C344 1.279 . S
O340 Cd337 2.297 . S
O340 C342 1.247 . S
O341 Cd337 2.439 . S
O341 C342 1.208 . S
C342 O340 1.247 . S
C342 O341 1.208 . S
C343 O348 1.247 . S
C343 O349 1.208 . S
C344 O336 1.315 . S
C344 O339 1.279 . S
C345 O346 1.315 . S
C345 O347 1.279 . S
O346 Cd338 2.223 . S
O346 C345 1.315 . S
O347 Cd337 2.240 . S
O347 C345 1.279 . S
O348 Cd338 2.297 . S
O348 C343 1.247 . S
O349 Cd338 2.439 . S
O349 C343 1.208 . S
O350 Cd351 2.223 . S
O350 C358 1.315 . S
Cd351 O350 2.223 . S
Cd351 O354 2.297 . S
Cd351 O355 2.439 . S
Cd351 O361 2.240 . S
Cd352 O353 2.240 . S
Cd352 O360 2.223 . S
Cd352 O362 2.297 1_556 S
Cd352 O363 2.439 1_556 S
O353 Cd352 2.240 . S
O353 C358 1.279 . S
O354 Cd351 2.297 . S
O354 C356 1.247 . S
O355 Cd351 2.439 . S
O355 C356 1.208 . S
C356 O354 1.247 . S
C356 O355 1.208 . S
C357 O362 1.247 . S
C357 O363 1.208 . S
C358 O350 1.315 . S
C358 O353 1.279 . S
C359 O360 1.315 . S
C359 O361 1.279 . S
O360 Cd352 2.223 . S
O360 C359 1.315 . S
O361 Cd351 2.240 . S
O361 C359 1.279 . S
O362 Cd352 2.297 1_554 S
O362 C357 1.247 . S
O363 Cd352 2.439 1_554 S
O363 C357 1.208 . S
O364 Cd365 2.223 . S
O364 C372 1.315 . S
Cd365 O364 2.223 . S
Cd365 O368 2.297 . S
Cd365 O369 2.439 . S
Cd365 O375 2.240 . S
Cd366 O367 2.240 . S
Cd366 O374 2.223 . S
Cd366 O376 2.297 . S
Cd366 O377 2.439 . S
O367 Cd366 2.240 . S
O367 C372 1.279 . S
O368 Cd365 2.297 . S
O368 C370 1.247 . S
O369 Cd365 2.439 . S
O369 C370 1.208 . S
C370 O368 1.247 . S
C370 O369 1.208 . S
C371 O376 1.247 . S
C371 O377 1.208 . S
C372 O364 1.315 . S
C372 O367 1.279 . S
C373 O374 1.315 . S
C373 O375 1.279 . S
O374 Cd366 2.223 . S
O374 C373 1.315 . S
O375 Cd365 2.240 . S
O375 C373 1.279 . S
O376 Cd366 2.297 . S
O376 C371 1.247 . S
O377 Cd366 2.439 . S
O377 C371 1.208 . S
O378 Cd379 2.223 . S
O378 C386 1.315 . S
Cd379 O378 2.223 . S
Cd379 O382 2.297 . S
Cd379 O383 2.439 . S
Cd379 O389 2.240 . S
Cd380 O381 2.240 . S
Cd380 O388 2.223 . S
Cd380 O390 2.297 . S
Cd380 O391 2.439 . S
O381 Cd380 2.240 . S
O381 C386 1.279 . S
O382 Cd379 2.297 . S
O382 C384 1.247 . S
O383 Cd379 2.439 . S
O383 C384 1.208 . S
C384 O382 1.247 . S
C384 O383 1.208 . S
C385 O390 1.247 . S
C385 O391 1.208 . S
C386 O378 1.315 . S
C386 O381 1.279 . S
C387 O388 1.315 . S
C387 O389 1.279 . S
O388 Cd380 2.223 . S
O388 C387 1.315 . S
O389 Cd379 2.240 . S
O389 C387 1.279 . S
O390 Cd380 2.297 . S
O390 C385 1.247 . S
O391 Cd380 2.439 . S
O391 C385 1.208 . S
O392 Cd393 2.223 . S
O392 C400 1.315 . S
Cd393 O392 2.223 . S
Cd393 O396 2.297 . S
Cd393 O397 2.439 . S
Cd393 O403 2.240 . S
Cd394 O395 2.240 . S
Cd394 O402 2.223 . S
Cd394 O404 2.297 . S
Cd394 O405 2.439 . S
O395 Cd394 2.240 . S
O395 C400 1.279 . S
O396 Cd393 2.297 . S
O396 C398 1.247 . S
O397 Cd393 2.439 . S
O397 C398 1.208 . S
C398 O396 1.247 . S
C398 O397 1.208 . S
C399 O404 1.247 . S
C399 O405 1.208 . S
C400 O392 1.315 . S
C400 O395 1.279 . S
C401 O402 1.315 . S
C401 O403 1.279 . S
O402 Cd394 2.223 . S
O402 C401 1.315 . S
O403 Cd393 2.240 . S
O403 C401 1.279 . S
O404 Cd394 2.297 . S
O404 C399 1.247 . S
O405 Cd394 2.439 . S
O405 C399 1.208 . S
O406 Cd407 2.223 . S
O406 C414 1.315 . S
Cd407 O406 2.223 . S
Cd407 O410 2.297 . S
Cd407 O411 2.439 . S
Cd407 O417 2.240 . S
Cd408 O409 2.240 . S
Cd408 O416 2.223 . S
Cd408 O418 2.297 1_554 S
Cd408 O419 2.439 1_554 S
O409 Cd408 2.240 . S
O409 C414 1.279 . S
O410 Cd407 2.297 . S
O410 C412 1.247 . S
O411 Cd407 2.439 . S
O411 C412 1.208 . S
C412 O410 1.247 . S
C412 O411 1.208 . S
C413 O418 1.247 . S
C413 O419 1.208 . S
C414 O406 1.315 . S
C414 O409 1.279 . S
C415 O416 1.315 . S
C415 O417 1.279 . S
O416 Cd408 2.223 . S
O416 C415 1.315 . S
O417 Cd407 2.240 . S
O417 C415 1.279 . S
O418 Cd408 2.297 1_556 S
O418 C413 1.247 . S
O419 Cd408 2.439 1_556 S
O419 C413 1.208 . S
O420 Cd421 2.223 . S
O420 C428 1.315 . S
Cd421 O420 2.223 . S
Cd421 O424 2.297 . S
Cd421 O425 2.439 . S
Cd421 O431 2.240 . S
Cd422 O423 2.240 . S
Cd422 O430 2.223 . S
Cd422 O432 2.297 . S
Cd422 O433 2.439 . S
O423 Cd422 2.240 . S
O423 C428 1.279 . S
O424 Cd421 2.297 . S
O424 C426 1.247 . S
O425 Cd421 2.439 . S
O425 C426 1.208 . S
C426 O424 1.247 . S
C426 O425 1.208 . S
C427 O432 1.247 . S
C427 O433 1.208 . S
C428 O420 1.315 . S
C428 O423 1.279 . S
C429 O430 1.315 . S
C429 O431 1.279 . S
O430 Cd422 2.223 . S
O430 C429 1.315 . S
O431 Cd421 2.240 . S
O431 C429 1.279 . S
O432 Cd422 2.297 . S
O432 C427 1.247 . S
O433 Cd422 2.439 . S
O433 C427 1.208 . S
O434 Cd435 2.223 . S
O434 C442 1.315 . S
Cd435 O434 2.223 . S
Cd435 O438 2.297 . S
Cd435 O439 2.439 . S
Cd435 O445 2.240 . S
Cd436 O437 2.240 . S
Cd436 O444 2.223 . S
Cd436 O446 2.297 . S
Cd436 O447 2.439 . S
O437 Cd436 2.240 . S
O437 C442 1.279 . S
O438 Cd435 2.297 . S
O438 C440 1.247 . S
O439 Cd435 2.439 . S
O439 C440 1.208 . S
C440 O438 1.247 . S
C440 O439 1.208 . S
C441 O446 1.247 . S
C441 O447 1.208 . S
C442 O434 1.315 . S
C442 O437 1.279 . S
C443 O444 1.315 . S
C443 O445 1.279 . S
O444 Cd436 2.223 . S
O444 C443 1.315 . S
O445 Cd435 2.240 . S
O445 C443 1.279 . S
O446 Cd436 2.297 . S
O446 C441 1.247 . S
O447 Cd436 2.439 . S
O447 C441 1.208 . S
C448 C449 1.363 . S
C448 C454 1.379 . S
C448 N456 1.356 . S
C449 C448 1.363 . S
C449 C455 1.363 . S
C450 C451 1.363 . S
C450 C455 1.379 . S
C450 N457 1.356 . S
C451 C450 1.363 . S
C451 C454 1.363 . S
N452 C454 1.356 . S
N452 H464 0.984 . S
N452 H465 0.985 . S
N453 C455 1.356 . S
N453 H458 0.984 . S
N453 H459 0.985 . S
C454 C448 1.379 . S
C454 C451 1.363 . S
C454 N452 1.356 . S
C455 C449 1.363 . S
C455 C450 1.379 . S
C455 N453 1.356 . S
N456 C448 1.356 . S
N456 H462 0.984 . S
N456 H463 0.984 . S
N457 C450 1.356 . S
N457 H460 0.984 . S
N457 H461 0.985 . S
H458 N453 0.984 . S
H459 N453 0.985 . S
H460 N457 0.984 . S
H461 N457 0.985 . S
H462 N456 0.984 . S
H463 N456 0.984 . S
H464 N452 0.984 . S
H465 N452 0.985 . S
C466 C467 1.363 . S
C466 C472 1.379 . S
C466 N474 1.356 . S
C467 C466 1.363 . S
C467 C473 1.363 . S
C468 C469 1.363 . S
C468 C473 1.379 . S
C468 N475 1.356 . S
C469 C468 1.363 . S
C469 C472 1.363 . S
N470 C472 1.356 . S
N470 H482 0.984 . S
N470 H483 0.985 . S
N471 C473 1.356 . S
N471 H476 0.984 . S
N471 H477 0.985 . S
C472 C466 1.379 . S
C472 C469 1.363 . S
C472 N470 1.356 . S
C473 C467 1.363 . S
C473 C468 1.379 . S
C473 N471 1.356 . S
N474 C466 1.356 . S
N474 H480 0.984 . S
N474 H481 0.984 1_455 S
N475 C468 1.356 . S
N475 H478 0.984 . S
N475 H479 0.985 . S
H476 N471 0.984 . S
H477 N471 0.985 . S
H478 N475 0.984 . S
H479 N475 0.985 . S
H480 N474 0.984 . S
H481 N474 0.984 1_655 S
H482 N470 0.984 . S
H483 N470 0.985 . S
C484 C485 1.363 . S
C484 C490 1.379 . S
C484 N492 1.356 . S
C485 C484 1.363 . S
C485 C491 1.363 . S
C486 C487 1.363 . S
C486 C491 1.379 . S
C486 N493 1.356 . S
C487 C486 1.363 . S
C487 C490 1.363 . S
N488 C490 1.356 . S
N488 H500 0.984 . S
N488 H501 0.985 . S
N489 C491 1.356 . S
N489 H494 0.984 . S
N489 H495 0.985 . S
C490 C484 1.379 . S
C490 C487 1.363 . S
C490 N488 1.356 . S
C491 C485 1.363 . S
C491 C486 1.379 . S
C491 N489 1.356 . S
N492 C484 1.356 . S
N492 H498 0.984 . S
N492 H499 0.984 . S
N493 C486 1.356 . S
N493 H496 0.984 . S
N493 H497 0.985 . S
H494 N489 0.984 . S
H495 N489 0.985 . S
H496 N493 0.984 . S
H497 N493 0.985 . S
H498 N492 0.984 . S
H499 N492 0.984 . S
H500 N488 0.984 . S
H501 N488 0.985 . S
C502 C503 1.363 . S
C502 C508 1.379 . S
C502 N510 1.356 . S
C503 C502 1.363 . S
C503 C509 1.363 . S
C504 C505 1.363 . S
C504 C509 1.379 . S
C504 N511 1.356 . S
C505 C504 1.363 . S
C505 C508 1.363 . S
N506 C508 1.356 . S
N506 H518 0.984 . S
N506 H519 0.985 . S
N507 C509 1.356 . S
N507 H512 0.984 . S
N507 H513 0.985 . S
C508 C502 1.379 . S
C508 C505 1.363 . S
C508 N506 1.356 . S
C509 C503 1.363 . S
C509 C504 1.379 . S
C509 N507 1.356 . S
N510 C502 1.356 . S
N510 H516 0.984 . S
N510 H517 0.984 . S
N511 C504 1.356 . S
N511 H514 0.984 . S
N511 H515 0.985 . S
H512 N507 0.984 . S
H513 N507 0.985 . S
H514 N511 0.984 . S
H515 N511 0.985 . S
H516 N510 0.984 . S
H517 N510 0.984 . S
H518 N506 0.984 . S
H519 N506 0.985 . S
C520 C521 1.363 . S
C520 C526 1.379 . S
C520 N528 1.356 . S
C521 C520 1.363 . S
C521 C527 1.363 . S
C522 C523 1.363 . S
C522 C527 1.379 . S
C522 N529 1.356 . S
C523 C522 1.363 . S
C523 C526 1.363 . S
N524 C526 1.356 . S
N524 H536 0.984 . S
N524 H537 0.985 . S
N525 C527 1.356 . S
N525 H530 0.984 . S
N525 H531 0.985 . S
C526 C520 1.379 . S
C526 C523 1.363 . S
C526 N524 1.356 . S
C527 C521 1.363 . S
C527 C522 1.379 . S
C527 N525 1.356 . S
N528 C520 1.356 . S
N528 H534 0.984 . S
N528 H535 0.984 . S
N529 C522 1.356 . S
N529 H532 0.984 . S
N529 H533 0.985 . S
H530 N525 0.984 . S
H531 N525 0.985 . S
H532 N529 0.984 . S
H533 N529 0.985 . S
H534 N528 0.984 . S
H535 N528 0.984 . S
H536 N524 0.984 . S
H537 N524 0.985 . S
C538 C539 1.363 . S
C538 C544 1.379 . S
C538 N546 1.356 . S
C539 C538 1.363 . S
C539 C545 1.363 . S
C540 C541 1.363 . S
C540 C545 1.379 . S
C540 N547 1.356 . S
C541 C540 1.363 . S
C541 C544 1.363 . S
N542 C544 1.356 . S
N542 H554 0.984 . S
N542 H555 0.985 . S
N543 C545 1.356 . S
N543 H548 0.984 . S
N543 H549 0.985 . S
C544 C538 1.379 . S
C544 C541 1.363 . S
C544 N542 1.356 . S
C545 C539 1.363 . S
C545 C540 1.379 . S
C545 N543 1.356 . S
N546 C538 1.356 . S
N546 H552 0.984 . S
N546 H553 0.984 . S
N547 C540 1.356 . S
N547 H550 0.984 . S
N547 H551 0.985 . S
H548 N543 0.984 . S
H549 N543 0.985 . S
H550 N547 0.984 . S
H551 N547 0.985 . S
H552 N546 0.984 . S
H553 N546 0.984 . S
H554 N542 0.984 . S
H555 N542 0.985 . S
C556 C557 1.363 . S
C556 C562 1.379 . S
C556 N564 1.356 . S
C557 C556 1.363 . S
C557 C563 1.363 . S
C558 C559 1.363 . S
C558 C563 1.379 . S
C558 N565 1.356 . S
C559 C558 1.363 . S
C559 C562 1.363 . S
N560 C562 1.356 . S
N560 H572 0.984 . S
N560 H573 0.985 . S
N561 C563 1.356 . S
N561 H566 0.984 . S
N561 H567 0.985 . S
C562 C556 1.379 . S
C562 C559 1.363 . S
C562 N560 1.356 . S
C563 C557 1.363 . S
C563 C558 1.379 . S
C563 N561 1.356 . S
N564 C556 1.356 . S
N564 H570 0.984 . S
N564 H571 0.984 . S
N565 C558 1.356 . S
N565 H568 0.984 . S
N565 H569 0.985 . S
H566 N561 0.984 . S
H567 N561 0.985 . S
H568 N565 0.984 . S
H569 N565 0.985 . S
H570 N564 0.984 . S
H571 N564 0.984 . S
H572 N560 0.984 . S
H573 N560 0.985 . S
C574 C575 1.363 . S
C574 C580 1.379 . S
C574 N582 1.356 . S
C575 C574 1.363 . S
C575 C581 1.363 . S
C576 C577 1.363 . S
C576 C581 1.379 . S
C576 N583 1.356 . S
C577 C576 1.363 . S
C577 C580 1.363 . S
N578 C580 1.356 . S
N578 H590 0.984 . S
N578 H591 0.985 . S
N579 C581 1.356 . S
N579 H584 0.984 . S
N579 H585 0.985 . S
C580 C574 1.379 . S
C580 C577 1.363 . S
C580 N578 1.356 . S
C581 C575 1.363 . S
C581 C576 1.379 . S
C581 N579 1.356 . S
N582 C574 1.356 . S
N582 H588 0.984 . S
N582 H589 0.984 . S
N583 C576 1.356 . S
N583 H586 0.984 1_455 S
N583 H587 0.985 . S
H584 N579 0.984 . S
H585 N579 0.985 . S
H586 N583 0.984 1_655 S
H587 N583 0.985 . S
H588 N582 0.984 . S
H589 N582 0.984 . S
H590 N578 0.984 . S
H591 N578 0.985 . S
C592 C593 1.363 . S
C592 C598 1.379 . S
C592 N600 1.356 . S
C593 C592 1.363 . S
C593 C599 1.363 . S
C594 C595 1.363 . S
C594 C599 1.379 . S
C594 N601 1.356 . S
C595 C594 1.363 . S
C595 C598 1.363 . S
N596 C598 1.356 . S
N596 H608 0.984 . S
N596 H609 0.985 . S
N597 C599 1.356 . S
N597 H602 0.984 . S
N597 H603 0.985 . S
C598 C592 1.379 . S
C598 C595 1.363 . S
C598 N596 1.356 . S
C599 C593 1.363 . S
C599 C594 1.379 . S
C599 N597 1.356 . S
N600 C592 1.356 . S
N600 H606 0.984 . S
N600 H607 0.984 . S
N601 C594 1.356 . S
N601 H604 0.984 . S
N601 H605 0.985 . S
H602 N597 0.984 . S
H603 N597 0.985 . S
H604 N601 0.984 . S
H605 N601 0.985 . S
H606 N600 0.984 . S
H607 N600 0.984 . S
H608 N596 0.984 . S
H609 N596 0.985 . S
C610 C611 1.363 . S
C610 C616 1.379 . S
C610 N618 1.356 . S
C611 C610 1.363 . S
C611 C617 1.363 . S
C612 C613 1.363 . S
C612 C617 1.379 . S
C612 N619 1.356 . S
C613 C612 1.363 . S
C613 C616 1.363 . S
N614 C616 1.356 . S
N614 H626 0.984 . S
N614 H627 0.985 . S
N615 C617 1.356 . S
N615 H620 0.984 1_655 S
N615 H621 0.985 1_655 S
C616 C610 1.379 . S
C616 C613 1.363 . S
C616 N614 1.356 . S
C617 C611 1.363 . S
C617 C612 1.379 . S
C617 N615 1.356 . S
N618 C610 1.356 . S
N618 H624 0.984 . S
N618 H625 0.984 . S
N619 C612 1.356 . S
N619 H622 0.984 . S
N619 H623 0.985 . S
H620 N615 0.984 1_455 S
H621 N615 0.985 1_455 S
H622 N619 0.984 . S
H623 N619 0.985 . S
H624 N618 0.984 . S
H625 N618 0.984 . S
H626 N614 0.984 . S
H627 N614 0.985 . S
C628 C629 1.363 . S
C628 C634 1.379 . S
C628 N636 1.356 . S
C629 C628 1.363 . S
C629 C635 1.363 . S
C630 C631 1.363 . S
C630 C635 1.379 . S
C630 N637 1.356 . S
C631 C630 1.363 . S
C631 C634 1.363 . S
N632 C634 1.356 . S
N632 H644 0.984 . S
N632 H645 0.985 . S
N633 C635 1.356 . S
N633 H638 0.984 . S
N633 H639 0.985 . S
C634 C628 1.379 . S
C634 C631 1.363 . S
C634 N632 1.356 . S
C635 C629 1.363 . S
C635 C630 1.379 . S
C635 N633 1.356 . S
N636 C628 1.356 . S
N636 H642 0.984 . S
N636 H643 0.984 . S
N637 C630 1.356 . S
N637 H640 0.984 . S
N637 H641 0.985 . S
H638 N633 0.984 . S
H639 N633 0.985 . S
H640 N637 0.984 . S
H641 N637 0.985 . S
H642 N636 0.984 . S
H643 N636 0.984 . S
H644 N632 0.984 . S
H645 N632 0.985 . S
C646 C647 1.363 . S
C646 C652 1.379 . S
C646 N654 1.356 . S
C647 C646 1.363 . S
C647 C653 1.363 . S
C648 C649 1.363 . S
C648 C653 1.379 . S
C648 N655 1.356 . S
C649 C648 1.363 . S
C649 C652 1.363 . S
N650 C652 1.356 . S
N650 H662 0.984 . S
N650 H663 0.985 . S
N651 C653 1.356 . S
N651 H656 0.984 . S
N651 H657 0.985 . S
C652 C646 1.379 . S
C652 C649 1.363 . S
C652 N650 1.356 . S
C653 C647 1.363 . S
C653 C648 1.379 . S
C653 N651 1.356 . S
N654 C646 1.356 . S
N654 H660 0.984 . S
N654 H661 0.984 . S
N655 C648 1.356 . S
N655 H658 0.984 . S
N655 H659 0.985 . S
H656 N651 0.984 . S
H657 N651 0.985 . S
H658 N655 0.984 . S
H659 N655 0.985 . S
H660 N654 0.984 . S
H661 N654 0.984 . S
H662 N650 0.984 . S
H663 N650 0.985 . S
C664 C665 1.363 . S
C664 C670 1.379 . S
C664 N672 1.356 . S
C665 C664 1.363 . S
C665 C671 1.363 . S
C666 C667 1.363 . S
C666 C671 1.379 . S
C666 N673 1.356 . S
C667 C666 1.363 . S
C667 C670 1.363 . S
N668 C670 1.356 . S
N668 H680 0.984 . S
N668 H681 0.985 . S
N669 C671 1.356 . S
N669 H674 0.984 . S
N669 H675 0.985 . S
C670 C664 1.379 . S
C670 C667 1.363 . S
C670 N668 1.356 . S
C671 C665 1.363 . S
C671 C666 1.379 . S
C671 N669 1.356 . S
N672 C664 1.356 . S
N672 H678 0.984 . S
N672 H679 0.984 . S
N673 C666 1.356 . S
N673 H676 0.984 . S
N673 H677 0.985 . S
H674 N669 0.984 . S
H675 N669 0.985 . S
H676 N673 0.984 . S
H677 N673 0.985 . S
H678 N672 0.984 . S
H679 N672 0.984 . S
H680 N668 0.984 . S
H681 N668 0.985 . S
C682 C683 1.363 . S
C682 C688 1.379 . S
C682 N690 1.356 . S
C683 C682 1.363 . S
C683 C689 1.363 . S
C684 C685 1.363 . S
C684 C689 1.379 . S
C684 N691 1.356 . S
C685 C684 1.363 . S
C685 C688 1.363 . S
N686 C688 1.356 . S
N686 H698 0.984 . S
N686 H699 0.985 . S
N687 C689 1.356 . S
N687 H692 0.984 . S
N687 H693 0.985 . S
C688 C682 1.379 . S
C688 C685 1.363 . S
C688 N686 1.356 . S
C689 C683 1.363 . S
C689 C684 1.379 . S
C689 N687 1.356 . S
N690 C682 1.356 . S
N690 H696 0.984 . S
N690 H697 0.984 . S
N691 C684 1.356 . S
N691 H694 0.984 . S
N691 H695 0.985 . S
H692 N687 0.984 . S
H693 N687 0.985 . S
H694 N691 0.984 . S
H695 N691 0.985 . S
H696 N690 0.984 . S
H697 N690 0.984 . S
H698 N686 0.984 . S
H699 N686 0.985 . S
C700 C701 1.363 . S
C700 C706 1.379 . S
C700 N708 1.356 . S
C701 C700 1.363 . S
C701 C707 1.363 . S
C702 C703 1.363 . S
C702 C707 1.379 . S
C702 N709 1.356 . S
C703 C702 1.363 . S
C703 C706 1.363 . S
N704 C706 1.356 . S
N704 H716 0.984 . S
N704 H717 0.985 . S
N705 C707 1.356 . S
N705 H710 0.984 . S
N705 H711 0.985 . S
C706 C700 1.379 . S
C706 C703 1.363 . S
C706 N704 1.356 . S
C707 C701 1.363 . S
C707 C702 1.379 . S
C707 N705 1.356 . S
N708 C700 1.356 . S
N708 H714 0.984 . S
N708 H715 0.984 . S
N709 C702 1.356 . S
N709 H712 0.984 . S
N709 H713 0.985 . S
H710 N705 0.984 . S
H711 N705 0.985 . S
H712 N709 0.984 . S
H713 N709 0.985 . S
H714 N708 0.984 . S
H715 N708 0.984 . S
H716 N704 0.984 . S
H717 N704 0.985 . S
C718 C719 1.363 . S
C718 C724 1.379 . S
C718 N726 1.356 . S
C719 C718 1.363 . S
C719 C725 1.363 . S
C720 C721 1.363 . S
C720 C725 1.379 . S
C720 N727 1.356 . S
C721 C720 1.363 . S
C721 C724 1.363 . S
N722 C724 1.356 . S
N722 H734 0.984 . S
N722 H735 0.985 . S
N723 C725 1.356 . S
N723 H728 0.984 . S
N723 H729 0.985 . S
C724 C718 1.379 . S
C724 C721 1.363 . S
C724 N722 1.356 . S
C725 C719 1.363 . S
C725 C720 1.379 . S
C725 N723 1.356 . S
N726 C718 1.356 . S
N726 H732 0.984 . S
N726 H733 0.984 . S
N727 C720 1.356 . S
N727 H730 0.984 1_655 S
N727 H731 0.985 1_655 S
H728 N723 0.984 . S
H729 N723 0.985 . S
H730 N727 0.984 1_455 S
H731 N727 0.985 1_455 S
H732 N726 0.984 . S
H733 N726 0.984 . S
H734 N722 0.984 . S
H735 N722 0.985 . S
C736 C737 1.363 . S
C736 C742 1.379 . S
C736 N744 1.356 . S
C737 C736 1.363 . S
C737 C743 1.363 . S
C738 C739 1.363 . S
C738 C743 1.379 . S
C738 N745 1.356 . S
C739 C738 1.363 . S
C739 C742 1.363 . S
N740 C742 1.356 . S
N740 H752 0.984 . S
N740 H753 0.985 . S
N741 C743 1.356 . S
N741 H746 0.984 . S
N741 H747 0.985 . S
C742 C736 1.379 . S
C742 C739 1.363 . S
C742 N740 1.356 . S
C743 C737 1.363 . S
C743 C738 1.379 . S
C743 N741 1.356 . S
N744 C736 1.356 . S
N744 H750 0.984 . S
N744 H751 0.984 . S
N745 C738 1.356 . S
N745 H748 0.984 . S
N745 H749 0.985 . S
H746 N741 0.984 . S
H747 N741 0.985 . S
H748 N745 0.984 . S
H749 N745 0.985 . S
H750 N744 0.984 . S
H751 N744 0.984 . S
H752 N740 0.984 . S
H753 N740 0.985 . S
C754 C755 1.363 . S
C754 C760 1.379 . S
C754 N762 1.356 . S
C755 C754 1.363 . S
C755 C761 1.363 . S
C756 C757 1.363 . S
C756 C761 1.379 . S
C756 N763 1.356 . S
C757 C756 1.363 . S
C757 C760 1.363 . S
N758 C760 1.356 . S
N758 H770 0.984 . S
N758 H771 0.985 . S
N759 C761 1.356 . S
N759 H764 0.984 . S
N759 H765 0.985 . S
C760 C754 1.379 . S
C760 C757 1.363 . S
C760 N758 1.356 . S
C761 C755 1.363 . S
C761 C756 1.379 . S
C761 N759 1.356 . S
N762 C754 1.356 . S
N762 H768 0.984 . S
N762 H769 0.984 . S
N763 C756 1.356 . S
N763 H766 0.984 . S
N763 H767 0.985 . S
H764 N759 0.984 . S
H765 N759 0.985 . S
H766 N763 0.984 . S
H767 N763 0.985 . S
H768 N762 0.984 . S
H769 N762 0.984 . S
H770 N758 0.984 . S
H771 N758 0.985 . S
C772 C773 1.363 . S
C772 C778 1.379 . S
C772 N780 1.356 . S
C773 C772 1.363 . S
C773 C779 1.363 . S
C774 C775 1.363 . S
C774 C779 1.379 . S
C774 N781 1.356 . S
C775 C774 1.363 . S
C775 C778 1.363 . S
N776 C778 1.356 . S
N776 H788 0.984 . S
N776 H789 0.985 . S
N777 C779 1.356 . S
N777 H782 0.984 . S
N777 H783 0.985 . S
C778 C772 1.379 . S
C778 C775 1.363 . S
C778 N776 1.356 . S
C779 C773 1.363 . S
C779 C774 1.379 . S
C779 N777 1.356 . S
N780 C772 1.356 . S
N780 H786 0.984 . S
N780 H787 0.984 . S
N781 C774 1.356 . S
N781 H784 0.984 . S
N781 H785 0.985 . S
H782 N777 0.984 . S
H783 N777 0.985 . S
H784 N781 0.984 . S
H785 N781 0.985 . S
H786 N780 0.984 . S
H787 N780 0.984 . S
H788 N776 0.984 . S
H789 N776 0.985 . S
C790 C791 1.363 . S
C790 C796 1.379 . S
C790 N798 1.356 . S
C791 C790 1.363 . S
C791 C797 1.363 . S
C792 C793 1.363 . S
C792 C797 1.379 . S
C792 N799 1.356 . S
C793 C792 1.363 . S
C793 C796 1.363 . S
N794 C796 1.356 1_455 S
N794 H806 0.984 . S
N794 H807 0.985 . S
N795 C797 1.356 . S
N795 H800 0.984 . S
N795 H801 0.985 . S
C796 C790 1.379 . S
C796 C793 1.363 . S
C796 N794 1.356 1_655 S
C797 C791 1.363 . S
C797 C792 1.379 . S
C797 N795 1.356 . S
N798 C790 1.356 . S
N798 H804 0.984 . S
N798 H805 0.984 . S
N799 C792 1.356 . S
N799 H802 0.984 . S
N799 H803 0.985 . S
H800 N795 0.984 . S
H801 N795 0.985 . S
H802 N799 0.984 . S
H803 N799 0.985 . S
H804 N798 0.984 . S
H805 N798 0.984 . S
H806 N794 0.984 . S
H807 N794 0.985 . S
C808 C809 1.363 . S
C808 C814 1.379 . S
C808 N816 1.356 . S
C809 C808 1.363 . S
C809 C815 1.363 . S
C810 C811 1.363 . S
C810 C815 1.379 . S
C810 N817 1.356 . S
C811 C810 1.363 . S
C811 C814 1.363 . S
N812 C814 1.356 . S
N812 H824 0.984 . S
N812 H825 0.985 . S
N813 C815 1.356 . S
N813 H818 0.984 . S
N813 H819 0.985 . S
C814 C808 1.379 . S
C814 C811 1.363 . S
C814 N812 1.356 . S
C815 C809 1.363 . S
C815 C810 1.379 . S
C815 N813 1.356 . S
N816 C808 1.356 . S
N816 H822 0.984 . S
N816 H823 0.984 . S
N817 C810 1.356 . S
N817 H820 0.984 . S
N817 H821 0.985 . S
H818 N813 0.984 . S
H819 N813 0.985 . S
H820 N817 0.984 . S
H821 N817 0.985 . S
H822 N816 0.984 . S
H823 N816 0.984 . S
H824 N812 0.984 . S
H825 N812 0.985 . S
C826 C827 1.363 . S
C826 C832 1.379 . S
C826 N834 1.356 1_655 S
C827 C826 1.363 . S
C827 C833 1.363 . S
C828 C829 1.363 . S
C828 C833 1.379 . S
C828 N835 1.356 . S
C829 C828 1.363 . S
C829 C832 1.363 . S
N830 C832 1.356 . S
N830 H842 0.984 . S
N830 H843 0.985 . S
N831 C833 1.356 . S
N831 H836 0.984 . S
N831 H837 0.985 . S
C832 C826 1.379 . S
C832 C829 1.363 . S
C832 N830 1.356 . S
C833 C827 1.363 . S
C833 C828 1.379 . S
C833 N831 1.356 . S
N834 C826 1.356 1_455 S
N834 H840 0.984 . S
N834 H841 0.984 . S
N835 C828 1.356 . S
N835 H838 0.984 . S
N835 H839 0.985 . S
H836 N831 0.984 . S
H837 N831 0.985 . S
H838 N835 0.984 . S
H839 N835 0.985 . S
H840 N834 0.984 . S
H841 N834 0.984 . S
H842 N830 0.984 . S
H843 N830 0.985 . S
C844 C845 1.363 . S
C844 C850 1.379 . S
C844 N852 1.356 . S
C845 C844 1.363 . S
C845 C851 1.363 . S
C846 C847 1.363 . S
C846 C851 1.379 . S
C846 N853 1.356 . S
C847 C846 1.363 . S
C847 C850 1.363 . S
N848 C850 1.356 . S
N848 H860 0.984 . S
N848 H861 0.985 . S
N849 C851 1.356 . S
N849 H854 0.984 . S
N849 H855 0.985 . S
C850 C844 1.379 . S
C850 C847 1.363 . S
C850 N848 1.356 . S
C851 C845 1.363 . S
C851 C846 1.379 . S
C851 N849 1.356 . S
N852 C844 1.356 . S
N852 H858 0.984 . S
N852 H859 0.984 . S
N853 C846 1.356 . S
N853 H856 0.984 . S
N853 H857 0.985 . S
H854 N849 0.984 . S
H855 N849 0.985 . S
H856 N853 0.984 . S
H857 N853 0.985 . S
H858 N852 0.984 . S
H859 N852 0.984 . S
H860 N848 0.984 . S
H861 N848 0.985 . S
C862 C863 1.363 . S
C862 C868 1.379 . S
C862 N870 1.356 . S
C863 C862 1.363 . S
C863 C869 1.363 . S
C864 C865 1.363 . S
C864 C869 1.379 . S
C864 N871 1.356 . S
C865 C864 1.363 . S
C865 C868 1.363 . S
N866 C868 1.356 . S
N866 H878 0.984 . S
N866 H879 0.985 . S
N867 C869 1.356 . S
N867 H872 0.984 . S
N867 H873 0.985 . S
C868 C862 1.379 . S
C868 C865 1.363 . S
C868 N866 1.356 . S
C869 C863 1.363 . S
C869 C864 1.379 . S
C869 N867 1.356 . S
N870 C862 1.356 . S
N870 H876 0.984 . S
N870 H877 0.984 . S
N871 C864 1.356 . S
N871 H874 0.984 . S
N871 H875 0.985 . S
H872 N867 0.984 . S
H873 N867 0.985 . S
H874 N871 0.984 . S
H875 N871 0.985 . S
H876 N870 0.984 . S
H877 N870 0.984 . S
H878 N866 0.984 . S
H879 N866 0.985 . S
C880 C881 1.363 . S
C880 C886 1.379 . S
C880 N888 1.356 . S
C881 C880 1.363 . S
C881 C887 1.363 . S
C882 C883 1.363 . S
C882 C887 1.379 . S
C882 N889 1.356 . S
C883 C882 1.363 . S
C883 C886 1.363 . S
N884 C886 1.356 . S
N884 H896 0.984 . S
N884 H897 0.985 . S
N885 C887 1.356 . S
N885 H890 0.984 . S
N885 H891 0.985 . S
C886 C880 1.379 . S
C886 C883 1.363 . S
C886 N884 1.356 . S
C887 C881 1.363 . S
C887 C882 1.379 . S
C887 N885 1.356 . S
N888 C880 1.356 . S
N888 H894 0.984 . S
N888 H895 0.984 . S
N889 C882 1.356 . S
N889 H892 0.984 . S
N889 H893 0.985 . S
H890 N885 0.984 . S
H891 N885 0.985 . S
H892 N889 0.984 . S
H893 N889 0.985 . S
H894 N888 0.984 . S
H895 N888 0.984 . S
H896 N884 0.984 . S
H897 N884 0.985 . S
C898 C899 1.363 . S
C898 C904 1.379 . S
C898 N906 1.356 . S
C899 C898 1.363 . S
C899 C905 1.363 . S
C900 C901 1.363 . S
C900 C905 1.379 . S
C900 N907 1.356 . S
C901 C900 1.363 . S
C901 C904 1.363 . S
N902 C904 1.356 . S
N902 H914 0.984 . S
N902 H915 0.985 . S
N903 C905 1.356 . S
N903 H908 0.984 . S
N903 H909 0.985 . S
C904 C898 1.379 . S
C904 C901 1.363 . S
C904 N902 1.356 . S
C905 C899 1.363 . S
C905 C900 1.379 . S
C905 N903 1.356 . S
N906 C898 1.356 . S
N906 H912 0.984 . S
N906 H913 0.984 . S
N907 C900 1.356 . S
N907 H910 0.984 . S
N907 H911 0.985 . S
H908 N903 0.984 . S
H909 N903 0.985 . S
H910 N907 0.984 . S
H911 N907 0.985 . S
H912 N906 0.984 . S
H913 N906 0.984 . S
H914 N902 0.984 . S
H915 N902 0.985 . S
C916 C917 1.363 . S
C916 C922 1.379 . S
C916 N924 1.356 . S
C917 C916 1.363 . S
C917 C923 1.363 . S
C918 C919 1.363 . S
C918 C923 1.379 . S
C918 N925 1.356 . S
C919 C918 1.363 . S
C919 C922 1.363 . S
N920 C922 1.356 . S
N920 H932 0.984 . S
N920 H933 0.985 . S
N921 C923 1.356 . S
N921 H926 0.984 . S
N921 H927 0.985 . S
C922 C916 1.379 . S
C922 C919 1.363 . S
C922 N920 1.356 . S
C923 C917 1.363 . S
C923 C918 1.379 . S
C923 N921 1.356 . S
N924 C916 1.356 . S
N924 H930 0.984 . S
N924 H931 0.984 . S
N925 C918 1.356 . S
N925 H928 0.984 . S
N925 H929 0.985 . S
H926 N921 0.984 . S
H927 N921 0.985 . S
H928 N925 0.984 . S
H929 N925 0.985 . S
H930 N924 0.984 . S
H931 N924 0.984 . S
H932 N920 0.984 . S
H933 N920 0.985 . S
C934 C935 1.363 . S
C934 C940 1.379 . S
C934 N942 1.356 . S
C935 C934 1.363 . S
C935 C941 1.363 . S
C936 C937 1.363 . S
C936 C941 1.379 . S
C936 N943 1.356 . S
C937 C936 1.363 . S
C937 C940 1.363 . S
N938 C940 1.356 . S
N938 H950 0.984 . S
N938 H951 0.985 . S
N939 C941 1.356 . S
N939 H944 0.984 . S
N939 H945 0.985 . S
C940 C934 1.379 . S
C940 C937 1.363 . S
C940 N938 1.356 . S
C941 C935 1.363 . S
C941 C936 1.379 . S
C941 N939 1.356 . S
N942 C934 1.356 . S
N942 H948 0.984 1_455 S
N942 H949 0.984 1_455 S
N943 C936 1.356 . S
N943 H946 0.984 . S
N943 H947 0.985 . S
H944 N939 0.984 . S
H945 N939 0.985 . S
H946 N943 0.984 . S
H947 N943 0.985 . S
H948 N942 0.984 1_655 S
H949 N942 0.984 1_655 S
H950 N938 0.984 . S
H951 N938 0.985 . S
C952 C953 1.363 . S
C952 C958 1.379 . S
C952 N960 1.356 . S
C953 C952 1.363 . S
C953 C959 1.363 . S
C954 C955 1.363 . S
C954 C959 1.379 . S
C954 N961 1.356 . S
C955 C954 1.363 . S
C955 C958 1.363 . S
N956 C958 1.356 . S
N956 H968 0.984 . S
N956 H969 0.985 . S
N957 C959 1.356 . S
N957 H962 0.984 . S
N957 H963 0.985 . S
C958 C952 1.379 . S
C958 C955 1.363 . S
C958 N956 1.356 . S
C959 C953 1.363 . S
C959 C954 1.379 . S
C959 N957 1.356 . S
N960 C952 1.356 . S
N960 H966 0.984 . S
N960 H967 0.984 . S
N961 C954 1.356 . S
N961 H964 0.984 . S
N961 H965 0.985 . S
H962 N957 0.984 . S
H963 N957 0.985 . S
H964 N961 0.984 . S
H965 N961 0.985 . S
H966 N960 0.984 . S
H967 N960 0.984 . S
H968 N956 0.984 . S
H969 N956 0.985 . S
C970 C971 1.363 . S
C970 C976 1.379 . S
C970 N978 1.356 . S
C971 C970 1.363 . S
C971 C977 1.363 . S
C972 C973 1.363 . S
C972 C977 1.379 . S
C972 N979 1.356 . S
C973 C972 1.363 . S
C973 C976 1.363 . S
N974 C976 1.356 . S
N974 H986 0.984 . S
N974 H987 0.985 . S
N975 C977 1.356 . S
N975 H980 0.984 1_455 S
N975 H981 0.985 . S
C976 C970 1.379 . S
C976 C973 1.363 . S
C976 N974 1.356 . S
C977 C971 1.363 . S
C977 C972 1.379 . S
C977 N975 1.356 . S
N978 C970 1.356 . S
N978 H984 0.984 . S
N978 H985 0.984 . S
N979 C972 1.356 . S
N979 H982 0.984 . S
N979 H983 0.985 . S
H980 N975 0.984 1_655 S
H981 N975 0.985 . S
H982 N979 0.984 . S
H983 N979 0.985 . S
H984 N978 0.984 . S
H985 N978 0.984 . S
H986 N974 0.984 . S
H987 N974 0.985 . S
C988 C989 1.363 . S
C988 C994 1.379 . S
C988 N996 1.356 . S
C989 C988 1.363 . S
C989 C995 1.363 . S
C990 C991 1.363 . S
C990 C995 1.379 . S
C990 N997 1.356 . S
C991 C990 1.363 . S
C991 C994 1.363 . S
N992 C994 1.356 . S
N992 H1004 0.984 . S
N992 H1005 0.985 . S
N993 C995 1.356 . S
N993 H998 0.984 . S
N993 H999 0.985 . S
C994 C988 1.379 . S
C994 C991 1.363 . S
C994 N992 1.356 . S
C995 C989 1.363 . S
C995 C990 1.379 . S
C995 N993 1.356 . S
N996 C988 1.356 . S
N996 H1002 0.984 . S
N996 H1003 0.984 . S
N997 C990 1.356 . S
N997 H1000 0.984 . S
N997 H1001 0.985 . S
H998 N993 0.984 . S
H999 N993 0.985 . S
H1000 N997 0.984 . S
H1001 N997 0.985 . S
H1002 N996 0.984 . S
H1003 N996 0.984 . S
H1004 N992 0.984 . S
H1005 N992 0.985 . S
C1006 C1007 1.363 . S
C1006 C1012 1.379 . S
C1006 N1014 1.356 . S
C1007 C1006 1.363 . S
C1007 C1013 1.363 . S
C1008 C1009 1.363 . S
C1008 C1013 1.379 . S
C1008 N1015 1.356 . S
C1009 C1008 1.363 . S
C1009 C1012 1.363 . S
N1010 C1012 1.356 . S
N1010 H1022 0.984 . S
N1010 H1023 0.985 . S
N1011 C1013 1.356 . S
N1011 H1016 0.984 . S
N1011 H1017 0.985 . S
C1012 C1006 1.379 . S
C1012 C1009 1.363 . S
C1012 N1010 1.356 . S
C1013 C1007 1.363 . S
C1013 C1008 1.379 . S
C1013 N1011 1.356 . S
N1014 C1006 1.356 . S
N1014 H1020 0.984 . S
N1014 H1021 0.984 . S
N1015 C1008 1.356 . S
N1015 H1018 0.984 . S
N1015 H1019 0.985 . S
H1016 N1011 0.984 . S
H1017 N1011 0.985 . S
H1018 N1015 0.984 . S
H1019 N1015 0.985 . S
H1020 N1014 0.984 . S
H1021 N1014 0.984 . S
H1022 N1010 0.984 . S
H1023 N1010 0.985 . S
C1024 C1025 1.363 . S
C1024 C1030 1.379 . S
C1024 N1032 1.356 . S
C1025 C1024 1.363 . S
C1025 C1031 1.363 . S
C1026 C1027 1.363 . S
C1026 C1031 1.379 . S
C1026 N1033 1.356 . S
C1027 C1026 1.363 . S
C1027 C1030 1.363 . S
N1028 C1030 1.356 . S
N1028 H1040 0.984 . S
N1028 H1041 0.985 . S
N1029 C1031 1.356 . S
N1029 H1034 0.984 . S
N1029 H1035 0.985 . S
C1030 C1024 1.379 . S
C1030 C1027 1.363 . S
C1030 N1028 1.356 . S
C1031 C1025 1.363 . S
C1031 C1026 1.379 . S
C1031 N1029 1.356 . S
N1032 C1024 1.356 . S
N1032 H1038 0.984 . S
N1032 H1039 0.984 . S
N1033 C1026 1.356 . S
N1033 H1036 0.984 . S
N1033 H1037 0.985 . S
H1034 N1029 0.984 . S
H1035 N1029 0.985 . S
H1036 N1033 0.984 . S
H1037 N1033 0.985 . S
H1038 N1032 0.984 . S
H1039 N1032 0.984 . S
H1040 N1028 0.984 . S
H1041 N1028 0.985 . S
C1042 C1043 1.363 1_545 S
C1042 C1048 1.379 . S
C1042 N1050 1.356 . S
C1043 C1042 1.363 1_565 S
C1043 C1049 1.363 1_655 S
C1044 C1045 1.363 1_565 S
C1044 C1049 1.379 . S
C1044 N1051 1.356 . S
C1045 C1044 1.363 1_545 S
C1045 C1048 1.363 1_455 S
N1046 C1048 1.356 . S
N1046 H1058 0.984 . S
N1046 H1059 0.985 . S
N1047 C1049 1.356 . S
N1047 H1052 0.984 . S
N1047 H1053 0.985 . S
C1048 C1042 1.379 . S
C1048 C1045 1.363 1_655 S
C1048 N1046 1.356 . S
C1049 C1043 1.363 1_455 S
C1049 C1044 1.379 . S
C1049 N1047 1.356 . S
N1050 C1042 1.356 . S
N1050 H1056 0.984 . S
N1050 H1057 0.984 1_545 S
N1051 C1044 1.356 . S
N1051 H1054 0.984 1_565 S
N1051 H1055 0.985 . S
H1052 N1047 0.984 . S
H1053 N1047 0.985 . S
H1054 N1051 0.984 1_545 S
H1055 N1051 0.985 . S
H1056 N1050 0.984 . S
H1057 N1050 0.984 1_565 S
H1058 N1046 0.984 . S
H1059 N1046 0.985 . S
C1060 C1061 1.363 . S
C1060 C1066 1.379 . S
C1060 N1068 1.356 . S
C1061 C1060 1.363 . S
C1061 C1067 1.363 . S
C1062 C1063 1.363 . S
C1062 C1067 1.379 . S
C1062 N1069 1.356 . S
C1063 C1062 1.363 . S
C1063 C1066 1.363 . S
N1064 C1066 1.356 . S
N1064 H1076 0.984 . S
N1064 H1077 0.985 . S
N1065 C1067 1.356 . S
N1065 H1070 0.984 . S
N1065 H1071 0.985 . S
C1066 C1060 1.379 . S
C1066 C1063 1.363 . S
C1066 N1064 1.356 . S
C1067 C1061 1.363 . S
C1067 C1062 1.379 . S
C1067 N1065 1.356 . S
N1068 C1060 1.356 . S
N1068 H1074 0.984 . S
N1068 H1075 0.984 . S
N1069 C1062 1.356 . S
N1069 H1072 0.984 . S
N1069 H1073 0.985 . S
H1070 N1065 0.984 . S
H1071 N1065 0.985 . S
H1072 N1069 0.984 . S
H1073 N1069 0.985 . S
H1074 N1068 0.984 . S
H1075 N1068 0.984 . S
H1076 N1064 0.984 . S
H1077 N1064 0.985 . S
C1078 C1079 1.363 1_556 S
C1078 C1084 1.379 . S
C1078 N1086 1.356 . S
C1079 C1078 1.363 1_554 S
C1079 C1085 1.363 1_545 S
C1080 C1081 1.363 1_554 S
C1080 C1085 1.379 . S
C1080 N1087 1.356 . S
C1081 C1080 1.363 1_556 S
C1081 C1084 1.363 1_565 S
N1082 C1084 1.356 1_565 S
N1082 H1094 0.984 1_565 S
N1082 H1095 0.985 . S
N1083 C1085 1.356 1_545 S
N1083 H1088 0.984 . S
N1083 H1089 0.985 1_545 S
C1084 C1078 1.379 . S
C1084 C1081 1.363 1_545 S
C1084 N1082 1.356 1_545 S
C1085 C1079 1.363 1_565 S
C1085 C1080 1.379 . S
C1085 N1083 1.356 1_565 S
N1086 C1078 1.356 . S
N1086 H1092 0.984 . S
N1086 H1093 0.984 . S
N1087 C1080 1.356 . S
N1087 H1090 0.984 . S
N1087 H1091 0.985 . S
H1088 N1083 0.984 . S
H1089 N1083 0.985 1_565 S
H1090 N1087 0.984 . S
H1091 N1087 0.985 . S
H1092 N1086 0.984 . S
H1093 N1086 0.984 . S
H1094 N1082 0.984 1_545 S
H1095 N1082 0.985 . S
C1096 C1097 1.363 . S
C1096 C1102 1.379 . S
C1096 N1104 1.356 . S
C1097 C1096 1.363 . S
C1097 C1103 1.363 . S
C1098 C1099 1.363 . S
C1098 C1103 1.379 . S
C1098 N1105 1.356 . S
C1099 C1098 1.363 . S
C1099 C1102 1.363 . S
N1100 C1102 1.356 . S
N1100 H1112 0.984 . S
N1100 H1113 0.985 . S
N1101 C1103 1.356 . S
N1101 H1106 0.984 . S
N1101 H1107 0.985 . S
C1102 C1096 1.379 . S
C1102 C1099 1.363 . S
C1102 N1100 1.356 . S
C1103 C1097 1.363 . S
C1103 C1098 1.379 . S
C1103 N1101 1.356 . S
N1104 C1096 1.356 . S
N1104 H1110 0.984 . S
N1104 H1111 0.984 . S
N1105 C1098 1.356 . S
N1105 H1108 0.984 . S
N1105 H1109 0.985 . S
H1106 N1101 0.984 . S
H1107 N1101 0.985 . S
H1108 N1105 0.984 . S
H1109 N1105 0.985 . S
H1110 N1104 0.984 . S
H1111 N1104 0.984 . S
H1112 N1100 0.984 . S
H1113 N1100 0.985 . S
C1114 C1115 1.363 1_545 S
C1114 C1120 1.379 . S
C1114 N1122 1.356 . S
C1115 C1114 1.363 1_565 S
C1115 C1121 1.363 . S
C1116 C1117 1.363 1_565 S
C1116 C1121 1.379 . S
C1116 N1123 1.356 . S
C1117 C1116 1.363 1_545 S
C1117 C1120 1.363 . S
N1118 C1120 1.356 . S
N1118 H1130 0.984 . S
N1118 H1131 0.985 . S
N1119 C1121 1.356 . S
N1119 H1124 0.984 . S
N1119 H1125 0.985 . S
C1120 C1114 1.379 . S
C1120 C1117 1.363 . S
C1120 N1118 1.356 . S
C1121 C1115 1.363 . S
C1121 C1116 1.379 . S
C1121 N1119 1.356 . S
N1122 C1114 1.356 . S
N1122 H1128 0.984 . S
N1122 H1129 0.984 1_545 S
N1123 C1116 1.356 . S
N1123 H1126 0.984 1_565 S
N1123 H1127 0.985 . S
H1124 N1119 0.984 . S
H1125 N1119 0.985 . S
H1126 N1123 0.984 1_545 S
H1127 N1123 0.985 . S
H1128 N1122 0.984 . S
H1129 N1122 0.984 1_565 S
H1130 N1118 0.984 . S
H1131 N1118 0.985 . S
C1132 C1133 1.363 . S
C1132 C1138 1.379 . S
C1132 N1140 1.356 . S
C1133 C1132 1.363 . S
C1133 C1139 1.363 . S
C1134 C1135 1.363 . S
C1134 C1139 1.379 . S
C1134 N1141 1.356 . S
C1135 C1134 1.363 . S
C1135 C1138 1.363 . S
N1136 C1138 1.356 . S
N1136 H1148 0.984 . S
N1136 H1149 0.985 . S
N1137 C1139 1.356 . S
N1137 H1142 0.984 . S
N1137 H1143 0.985 . S
C1138 C1132 1.379 . S
C1138 C1135 1.363 . S
C1138 N1136 1.356 . S
C1139 C1133 1.363 . S
C1139 C1134 1.379 . S
C1139 N1137 1.356 . S
N1140 C1132 1.356 . S
N1140 H1146 0.984 . S
N1140 H1147 0.984 . S
N1141 C1134 1.356 . S
N1141 H1144 0.984 . S
N1141 H1145 0.985 . S
H1142 N1137 0.984 . S
H1143 N1137 0.985 . S
H1144 N1141 0.984 . S
H1145 N1141 0.985 . S
H1146 N1140 0.984 . S
H1147 N1140 0.984 . S
H1148 N1136 0.984 . S
H1149 N1136 0.985 . S
C1150 C1151 1.363 1_565 S
C1150 C1156 1.379 . S
C1150 N1158 1.356 . S
C1151 C1150 1.363 1_545 S
C1151 C1157 1.363 1_656 S
C1152 C1153 1.363 1_545 S
C1152 C1157 1.379 . S
C1152 N1159 1.356 . S
C1153 C1152 1.363 1_565 S
C1153 C1156 1.363 1_454 S
N1154 C1156 1.356 . S
N1154 H1166 0.984 . S
N1154 H1167 0.985 1_656 S
N1155 C1157 1.356 . S
N1155 H1160 0.984 1_454 S
N1155 H1161 0.985 . S
C1156 C1150 1.379 . S
C1156 C1153 1.363 1_656 S
C1156 N1154 1.356 . S
C1157 C1151 1.363 1_454 S
C1157 C1152 1.379 . S
C1157 N1155 1.356 . S
N1158 C1150 1.356 . S
N1158 H1164 0.984 . S
N1158 H1165 0.984 1_565 S
N1159 C1152 1.356 . S
N1159 H1162 0.984 1_545 S
N1159 H1163 0.985 . S
H1160 N1155 0.984 1_656 S
H1161 N1155 0.985 . S
H1162 N1159 0.984 1_565 S
H1163 N1159 0.985 . S
H1164 N1158 0.984 . S
H1165 N1158 0.984 1_545 S
H1166 N1154 0.984 . S
H1167 N1154 0.985 1_454 S
C1168 C1169 1.363 . S
C1168 C1174 1.379 . S
C1168 N1176 1.356 . S
C1169 C1168 1.363 . S
C1169 C1175 1.363 . S
C1170 C1171 1.363 . S
C1170 C1175 1.379 . S
C1170 N1177 1.356 . S
C1171 C1170 1.363 . S
C1171 C1174 1.363 . S
N1172 C1174 1.356 . S
N1172 H1184 0.984 . S
N1172 H1185 0.985 . S
N1173 C1175 1.356 . S
N1173 H1178 0.984 . S
N1173 H1179 0.985 . S
C1174 C1168 1.379 . S
C1174 C1171 1.363 . S
C1174 N1172 1.356 . S
C1175 C1169 1.363 . S
C1175 C1170 1.379 . S
C1175 N1173 1.356 . S
N1176 C1168 1.356 . S
N1176 H1182 0.984 . S
N1176 H1183 0.984 . S
N1177 C1170 1.356 . S
N1177 H1180 0.984 . S
N1177 H1181 0.985 . S
H1178 N1173 0.984 . S
H1179 N1173 0.985 . S
H1180 N1177 0.984 . S
H1181 N1177 0.985 . S
H1182 N1176 0.984 . S
H1183 N1176 0.984 . S
H1184 N1172 0.984 . S
H1185 N1172 0.985 . S
C1186 C1187 1.363 . S
C1186 C1192 1.379 . S
C1186 N1194 1.356 . S
C1187 C1186 1.363 . S
C1187 C1193 1.363 . S
C1188 C1189 1.363 . S
C1188 C1193 1.379 . S
C1188 N1195 1.356 . S
C1189 C1188 1.363 . S
C1189 C1192 1.363 . S
N1190 C1192 1.356 . S
N1190 H1202 0.984 . S
N1190 H1203 0.985 . S
N1191 C1193 1.356 . S
N1191 H1196 0.984 . S
N1191 H1197 0.985 . S
C1192 C1186 1.379 . S
C1192 C1189 1.363 . S
C1192 N1190 1.356 . S
C1193 C1187 1.363 . S
C1193 C1188 1.379 . S
C1193 N1191 1.356 . S
N1194 C1186 1.356 . S
N1194 H1200 0.984 . S
N1194 H1201 0.984 . S
N1195 C1188 1.356 . S
N1195 H1198 0.984 . S
N1195 H1199 0.985 . S
H1196 N1191 0.984 . S
H1197 N1191 0.985 . S
H1198 N1195 0.984 . S
H1199 N1195 0.985 . S
H1200 N1194 0.984 . S
H1201 N1194 0.984 . S
H1202 N1190 0.984 . S
H1203 N1190 0.985 . S
C1204 C1205 1.363 . S
C1204 C1210 1.379 . S
C1204 N1212 1.356 . S
C1205 C1204 1.363 . S
C1205 C1211 1.363 . S
C1206 C1207 1.363 . S
C1206 C1211 1.379 . S
C1206 N1213 1.356 . S
C1207 C1206 1.363 . S
C1207 C1210 1.363 . S
N1208 C1210 1.356 . S
N1208 H1220 0.984 . S
N1208 H1221 0.985 . S
N1209 C1211 1.356 . S
N1209 H1214 0.984 . S
N1209 H1215 0.985 . S
C1210 C1204 1.379 . S
C1210 C1207 1.363 . S
C1210 N1208 1.356 . S
C1211 C1205 1.363 . S
C1211 C1206 1.379 . S
C1211 N1209 1.356 . S
N1212 C1204 1.356 . S
N1212 H1218 0.984 . S
N1212 H1219 0.984 . S
N1213 C1206 1.356 . S
N1213 H1216 0.984 . S
N1213 H1217 0.985 . S
H1214 N1209 0.984 . S
H1215 N1209 0.985 . S
H1216 N1213 0.984 . S
H1217 N1213 0.985 . S
H1218 N1212 0.984 . S
H1219 N1212 0.984 . S
H1220 N1208 0.984 . S
H1221 N1208 0.985 . S
C1222 C1223 1.363 . S
C1222 C1228 1.379 . S
C1222 N1230 1.356 . S
C1223 C1222 1.363 . S
C1223 C1229 1.363 . S
C1224 C1225 1.363 . S
C1224 C1229 1.379 . S
C1224 N1231 1.356 . S
C1225 C1224 1.363 . S
C1225 C1228 1.363 . S
N1226 C1228 1.356 . S
N1226 H1238 0.984 . S
N1226 H1239 0.985 . S
N1227 C1229 1.356 . S
N1227 H1232 0.984 . S
N1227 H1233 0.985 . S
C1228 C1222 1.379 . S
C1228 C1225 1.363 . S
C1228 N1226 1.356 . S
C1229 C1223 1.363 . S
C1229 C1224 1.379 . S
C1229 N1227 1.356 . S
N1230 C1222 1.356 . S
N1230 H1236 0.984 . S
N1230 H1237 0.984 . S
N1231 C1224 1.356 . S
N1231 H1234 0.984 . S
N1231 H1235 0.985 . S
H1232 N1227 0.984 . S
H1233 N1227 0.985 . S
H1234 N1231 0.984 . S
H1235 N1231 0.985 . S
H1236 N1230 0.984 . S
H1237 N1230 0.984 . S
H1238 N1226 0.984 . S
H1239 N1226 0.985 . S
C1240 C1241 1.363 . S
C1240 C1246 1.379 . S
C1240 N1248 1.356 . S
C1241 C1240 1.363 . S
C1241 C1247 1.363 1_554 S
C1242 C1243 1.363 . S
C1242 C1247 1.379 . S
C1242 N1249 1.356 . S
C1243 C1242 1.363 . S
C1243 C1246 1.363 1_556 S
N1244 C1246 1.356 . S
N1244 H1256 0.984 . S
N1244 H1257 0.985 . S
N1245 C1247 1.356 . S
N1245 H1250 0.984 . S
N1245 H1251 0.985 . S
C1246 C1240 1.379 . S
C1246 C1243 1.363 1_554 S
C1246 N1244 1.356 . S
C1247 C1241 1.363 1_556 S
C1247 C1242 1.379 . S
C1247 N1245 1.356 . S
N1248 C1240 1.356 . S
N1248 H1254 0.984 . S
N1248 H1255 0.984 . S
N1249 C1242 1.356 . S
N1249 H1252 0.984 . S
N1249 H1253 0.985 . S
H1250 N1245 0.984 . S
H1251 N1245 0.985 . S
H1252 N1249 0.984 . S
H1253 N1249 0.985 . S
H1254 N1248 0.984 . S
H1255 N1248 0.984 . S
H1256 N1244 0.984 . S
H1257 N1244 0.985 . S
C1258 C1259 1.363 . S
C1258 C1264 1.379 . S
C1258 N1266 1.356 . S
C1259 C1258 1.363 . S
C1259 C1265 1.363 1_655 S
C1260 C1261 1.363 . S
C1260 C1265 1.379 . S
C1260 N1267 1.356 . S
C1261 C1260 1.363 . S
C1261 C1264 1.363 1_455 S
N1262 C1264 1.356 . S
N1262 H1274 0.984 . S
N1262 H1275 0.984 . S
N1263 C1265 1.356 . S
N1263 H1268 0.984 . S
N1263 H1269 0.985 . S
C1264 C1258 1.379 . S
C1264 C1261 1.363 1_655 S
C1264 N1262 1.356 . S
C1265 C1259 1.363 1_455 S
C1265 C1260 1.379 . S
C1265 N1263 1.356 . S
N1266 C1258 1.356 . S
N1266 H1272 0.984 . S
N1266 H1273 0.984 . S
N1267 C1260 1.356 . S
N1267 H1270 0.984 . S
N1267 H1271 0.985 . S
H1268 N1263 0.984 . S
H1269 N1263 0.985 . S
H1270 N1267 0.984 . S
H1271 N1267 0.985 . S
H1272 N1266 0.984 . S
H1273 N1266 0.984 . S
H1274 N1262 0.984 . S
H1275 N1262 0.984 . S
C1276 C1277 1.363 1_654 S
C1276 C1282 1.379 . S
C1276 N1284 1.357 . S
C1277 C1276 1.363 1_456 S
C1277 C1283 1.363 . S
C1278 C1279 1.363 1_456 S
C1278 C1283 1.379 . S
C1278 N1285 1.357 . S
C1279 C1278 1.363 1_654 S
C1279 C1282 1.363 . S
N1280 C1282 1.356 . S
N1280 H1292 0.984 . S
N1280 H1293 0.985 . S
N1281 C1283 1.356 . S
N1281 H1286 0.984 . S
N1281 H1287 0.985 . S
C1282 C1276 1.379 . S
C1282 C1279 1.363 . S
C1282 N1280 1.356 . S
C1283 C1277 1.363 . S
C1283 C1278 1.379 . S
C1283 N1281 1.356 . S
N1284 C1276 1.357 . S
N1284 H1290 0.991 . S
N1284 H1291 0.977 1_654 S
N1285 C1278 1.357 . S
N1285 H1288 0.977 1_456 S
N1285 H1289 0.991 . S
H1286 N1281 0.984 . S
H1287 N1281 0.985 . S
H1288 N1285 0.977 1_654 S
H1289 N1285 0.991 . S
H1290 N1284 0.991 . S
H1291 N1284 0.977 1_456 S
H1292 N1280 0.984 . S
H1293 N1280 0.985 . S
C1294 C1295 1.363 . S
C1294 C1300 1.379 . S
C1294 N1302 1.356 . S
C1295 C1294 1.363 . S
C1295 C1301 1.363 . S
C1296 C1297 1.363 . S
C1296 C1301 1.379 . S
C1296 N1303 1.356 . S
C1297 C1296 1.363 . S
C1297 C1300 1.363 . S
N1298 C1300 1.356 . S
N1298 H1310 0.984 . S
N1298 H1311 0.985 . S
N1299 C1301 1.356 . S
N1299 H1304 0.984 . S
N1299 H1305 0.985 . S
C1300 C1294 1.379 . S
C1300 C1297 1.363 . S
C1300 N1298 1.356 . S
C1301 C1295 1.363 . S
C1301 C1296 1.379 . S
C1301 N1299 1.356 . S
N1302 C1294 1.356 . S
N1302 H1308 0.984 . S
N1302 H1309 0.984 . S
N1303 C1296 1.356 . S
N1303 H1306 0.984 . S
N1303 H1307 0.985 . S
H1304 N1299 0.984 . S
H1305 N1299 0.985 . S
H1306 N1303 0.984 . S
H1307 N1303 0.985 . S
H1308 N1302 0.984 . S
H1309 N1302 0.984 . S
H1310 N1298 0.984 . S
H1311 N1298 0.985 . S
C1312 C1313 1.363 . S
C1312 C1318 1.379 . S
C1312 N1320 1.356 . S
C1313 C1312 1.363 . S
C1313 C1319 1.363 . S
C1314 C1315 1.363 . S
C1314 C1319 1.379 . S
C1314 N1321 1.356 . S
C1315 C1314 1.363 . S
C1315 C1318 1.363 . S
N1316 C1318 1.356 . S
N1316 H1328 0.984 . S
N1316 H1329 0.985 . S
N1317 C1319 1.356 . S
N1317 H1322 0.984 . S
N1317 H1323 0.985 . S
C1318 C1312 1.379 . S
C1318 C1315 1.363 . S
C1318 N1316 1.356 . S
C1319 C1313 1.363 . S
C1319 C1314 1.379 . S
C1319 N1317 1.356 . S
N1320 C1312 1.356 . S
N1320 H1326 0.984 . S
N1320 H1327 0.984 . S
N1321 C1314 1.356 . S
N1321 H1324 0.984 . S
N1321 H1325 0.985 . S
H1322 N1317 0.984 . S
H1323 N1317 0.985 . S
H1324 N1321 0.984 . S
H1325 N1321 0.985 . S
H1326 N1320 0.984 . S
H1327 N1320 0.984 . S
H1328 N1316 0.984 . S
H1329 N1316 0.985 . S
C1330 C1331 1.363 . S
C1330 C1336 1.379 . S
C1330 N1338 1.356 . S
C1331 C1330 1.363 . S
C1331 C1337 1.363 . S
C1332 C1333 1.363 . S
C1332 C1337 1.379 . S
C1332 N1339 1.356 . S
C1333 C1332 1.363 . S
C1333 C1336 1.363 . S
N1334 C1336 1.356 . S
N1334 H1346 0.984 . S
N1334 H1347 0.985 . S
N1335 C1337 1.356 . S
N1335 H1340 0.984 . S
N1335 H1341 0.985 . S
C1336 C1330 1.379 . S
C1336 C1333 1.363 . S
C1336 N1334 1.356 . S
C1337 C1331 1.363 . S
C1337 C1332 1.379 . S
C1337 N1335 1.356 . S
N1338 C1330 1.356 . S
N1338 H1344 0.984 . S
N1338 H1345 0.984 . S
N1339 C1332 1.356 . S
N1339 H1342 0.984 . S
N1339 H1343 0.985 . S
H1340 N1335 0.984 . S
H1341 N1335 0.985 . S
H1342 N1339 0.984 . S
H1343 N1339 0.985 . S
H1344 N1338 0.984 . S
H1345 N1338 0.984 . S
H1346 N1334 0.984 . S
H1347 N1334 0.985 . S
C1348 C1349 1.363 . S
C1348 C1354 1.379 . S
C1348 N1356 1.356 . S
C1349 C1348 1.363 . S
C1349 C1355 1.363 . S
C1350 C1351 1.363 . S
C1350 C1355 1.379 . S
C1350 N1357 1.356 . S
C1351 C1350 1.363 . S
C1351 C1354 1.363 . S
N1352 C1354 1.356 . S
N1352 H1364 0.984 . S
N1352 H1365 0.985 . S
N1353 C1355 1.356 . S
N1353 H1358 0.984 . S
N1353 H1359 0.985 . S
C1354 C1348 1.379 . S
C1354 C1351 1.363 . S
C1354 N1352 1.356 . S
C1355 C1349 1.363 . S
C1355 C1350 1.379 . S
C1355 N1353 1.356 . S
N1356 C1348 1.356 . S
N1356 H1362 0.984 . S
N1356 H1363 0.984 . S
N1357 C1350 1.356 . S
N1357 H1360 0.984 . S
N1357 H1361 0.985 . S
H1358 N1353 0.984 . S
H1359 N1353 0.985 . S
H1360 N1357 0.984 . S
H1361 N1357 0.985 . S
H1362 N1356 0.984 . S
H1363 N1356 0.984 . S
H1364 N1352 0.984 . S
H1365 N1352 0.985 . S
C1366 C1367 1.363 . S
C1366 C1372 1.379 . S
C1366 N1374 1.356 . S
C1367 C1366 1.363 . S
C1367 C1373 1.363 . S
C1368 C1369 1.363 . S
C1368 C1373 1.379 . S
C1368 N1375 1.356 . S
C1369 C1368 1.363 . S
C1369 C1372 1.363 . S
N1370 C1372 1.356 . S
N1370 H1382 0.984 . S
N1370 H1383 0.985 . S
N1371 C1373 1.356 . S
N1371 H1376 0.984 . S
N1371 H1377 0.985 . S
C1372 C1366 1.379 . S
C1372 C1369 1.363 . S
C1372 N1370 1.356 . S
C1373 C1367 1.363 . S
C1373 C1368 1.379 . S
C1373 N1371 1.356 . S
N1374 C1366 1.356 . S
N1374 H1380 0.984 . S
N1374 H1381 0.984 . S
N1375 C1368 1.356 . S
N1375 H1378 0.984 . S
N1375 H1379 0.985 . S
H1376 N1371 0.984 . S
H1377 N1371 0.985 . S
H1378 N1375 0.984 . S
H1379 N1375 0.985 . S
H1380 N1374 0.984 . S
H1381 N1374 0.984 . S
H1382 N1370 0.984 . S
H1383 N1370 0.985 . S
C1384 C1385 1.363 . S
C1384 C1390 1.379 . S
C1384 N1392 1.356 . S
C1385 C1384 1.363 . S
C1385 C1391 1.363 . S
C1386 C1387 1.363 . S
C1386 C1391 1.379 . S
C1386 N1393 1.356 . S
C1387 C1386 1.363 . S
C1387 C1390 1.363 . S
N1388 C1390 1.356 . S
N1388 H1400 0.984 . S
N1388 H1401 0.985 . S
N1389 C1391 1.356 . S
N1389 H1394 0.984 . S
N1389 H1395 0.985 . S
C1390 C1384 1.379 . S
C1390 C1387 1.363 . S
C1390 N1388 1.356 . S
C1391 C1385 1.363 . S
C1391 C1386 1.379 . S
C1391 N1389 1.356 . S
N1392 C1384 1.356 . S
N1392 H1398 0.984 . S
N1392 H1399 0.984 . S
N1393 C1386 1.356 . S
N1393 H1396 0.984 . S
N1393 H1397 0.985 . S
H1394 N1389 0.984 . S
H1395 N1389 0.985 . S
H1396 N1393 0.984 . S
H1397 N1393 0.985 . S
H1398 N1392 0.984 . S
H1399 N1392 0.984 . S
H1400 N1388 0.984 . S
H1401 N1388 0.985 . S
C1402 C1403 1.363 . S
C1402 C1408 1.379 . S
C1402 N1410 1.356 . S
C1403 C1402 1.363 . S
C1403 C1409 1.363 . S
C1404 C1405 1.363 . S
C1404 C1409 1.379 . S
C1404 N1411 1.356 . S
C1405 C1404 1.363 . S
C1405 C1408 1.363 . S
N1406 C1408 1.356 . S
N1406 H1418 0.984 . S
N1406 H1419 0.985 . S
N1407 C1409 1.356 . S
N1407 H1412 0.984 . S
N1407 H1413 0.985 . S
C1408 C1402 1.379 . S
C1408 C1405 1.363 . S
C1408 N1406 1.356 . S
C1409 C1403 1.363 . S
C1409 C1404 1.379 . S
C1409 N1407 1.356 . S
N1410 C1402 1.356 . S
N1410 H1416 0.984 . S
N1410 H1417 0.984 . S
N1411 C1404 1.356 . S
N1411 H1414 0.984 . S
N1411 H1415 0.985 . S
H1412 N1407 0.984 . S
H1413 N1407 0.985 . S
H1414 N1411 0.984 . S
H1415 N1411 0.985 . S
H1416 N1410 0.984 . S
H1417 N1410 0.984 . S
H1418 N1406 0.984 . S
H1419 N1406 0.985 . S
C1420 C1421 1.363 . S
C1420 C1426 1.379 . S
C1420 N1428 1.356 . S
C1421 C1420 1.363 . S
C1421 C1427 1.363 . S
C1422 C1423 1.363 . S
C1422 C1427 1.379 . S
C1422 N1429 1.356 . S
C1423 C1422 1.363 . S
C1423 C1426 1.363 . S
N1424 C1426 1.356 . S
N1424 H1436 0.984 . S
N1424 H1437 0.985 . S
N1425 C1427 1.356 . S
N1425 H1430 0.984 . S
N1425 H1431 0.985 . S
C1426 C1420 1.379 . S
C1426 C1423 1.363 . S
C1426 N1424 1.356 . S
C1427 C1421 1.363 . S
C1427 C1422 1.379 . S
C1427 N1425 1.356 . S
N1428 C1420 1.356 . S
N1428 H1434 0.984 . S
N1428 H1435 0.984 . S
N1429 C1422 1.356 . S
N1429 H1432 0.984 . S
N1429 H1433 0.985 . S
H1430 N1425 0.984 . S
H1431 N1425 0.985 . S
H1432 N1429 0.984 . S
H1433 N1429 0.985 . S
H1434 N1428 0.984 . S
H1435 N1428 0.984 . S
H1436 N1424 0.984 . S
H1437 N1424 0.985 . S
C1438 C1439 1.363 . S
C1438 C1444 1.379 . S
C1438 N1446 1.356 . S
C1439 C1438 1.363 . S
C1439 C1445 1.363 . S
C1440 C1441 1.363 . S
C1440 C1445 1.379 . S
C1440 N1447 1.356 . S
C1441 C1440 1.363 . S
C1441 C1444 1.363 . S
N1442 C1444 1.356 . S
N1442 H1454 0.984 . S
N1442 H1455 0.985 . S
N1443 C1445 1.356 . S
N1443 H1448 0.984 . S
N1443 H1449 0.985 . S
C1444 C1438 1.379 . S
C1444 C1441 1.363 . S
C1444 N1442 1.356 . S
C1445 C1439 1.363 . S
C1445 C1440 1.379 . S
C1445 N1443 1.356 . S
N1446 C1438 1.356 . S
N1446 H1452 0.984 . S
N1446 H1453 0.984 . S
N1447 C1440 1.356 . S
N1447 H1450 0.984 . S
N1447 H1451 0.985 . S
H1448 N1443 0.984 . S
H1449 N1443 0.985 . S
H1450 N1447 0.984 . S
H1451 N1447 0.985 . S
H1452 N1446 0.984 . S
H1453 N1446 0.984 . S
H1454 N1442 0.984 . S
H1455 N1442 0.985 . S
C1456 C1457 1.363 . S
C1456 C1462 1.379 . S
C1456 N1464 1.356 . S
C1457 C1456 1.363 . S
C1457 C1463 1.363 . S
C1458 C1459 1.363 . S
C1458 C1463 1.379 . S
C1458 N1465 1.356 . S
C1459 C1458 1.363 . S
C1459 C1462 1.363 . S
N1460 C1462 1.356 . S
N1460 H1472 0.984 . S
N1460 H1473 0.985 . S
N1461 C1463 1.356 . S
N1461 H1466 0.984 . S
N1461 H1467 0.985 . S
C1462 C1456 1.379 . S
C1462 C1459 1.363 . S
C1462 N1460 1.356 . S
C1463 C1457 1.363 . S
C1463 C1458 1.379 . S
C1463 N1461 1.356 . S
N1464 C1456 1.356 . S
N1464 H1470 0.984 . S
N1464 H1471 0.984 . S
N1465 C1458 1.356 . S
N1465 H1468 0.984 . S
N1465 H1469 0.985 . S
H1466 N1461 0.984 . S
H1467 N1461 0.985 . S
H1468 N1465 0.984 . S
H1469 N1465 0.985 . S
H1470 N1464 0.984 . S
H1471 N1464 0.984 . S
H1472 N1460 0.984 . S
H1473 N1460 0.985 . S
C1474 C1475 1.363 . S
C1474 C1480 1.379 . S
C1474 N1482 1.356 . S
C1475 C1474 1.363 . S
C1475 C1481 1.363 . S
C1476 C1477 1.363 . S
C1476 C1481 1.379 . S
C1476 N1483 1.356 . S
C1477 C1476 1.363 . S
C1477 C1480 1.363 . S
N1478 C1480 1.356 . S
N1478 H1490 0.984 . S
N1478 H1491 0.985 . S
N1479 C1481 1.356 . S
N1479 H1484 0.984 . S
N1479 H1485 0.985 . S
C1480 C1474 1.379 . S
C1480 C1477 1.363 . S
C1480 N1478 1.356 . S
C1481 C1475 1.363 . S
C1481 C1476 1.379 . S
C1481 N1479 1.356 . S
N1482 C1474 1.356 . S
N1482 H1488 0.984 . S
N1482 H1489 0.984 . S
N1483 C1476 1.356 . S
N1483 H1486 0.984 . S
N1483 H1487 0.985 . S
H1484 N1479 0.984 . S
H1485 N1479 0.985 . S
H1486 N1483 0.984 . S
H1487 N1483 0.985 . S
H1488 N1482 0.984 . S
H1489 N1482 0.984 . S
H1490 N1478 0.984 . S
H1491 N1478 0.985 . S
C1492 C1493 1.363 . S
C1492 C1498 1.379 . S
C1492 N1500 1.356 . S
C1493 C1492 1.363 . S
C1493 C1499 1.363 . S
C1494 C1495 1.363 . S
C1494 C1499 1.379 . S
C1494 N1501 1.356 . S
C1495 C1494 1.363 . S
C1495 C1498 1.363 . S
N1496 C1498 1.356 . S
N1496 H1508 0.984 . S
N1496 H1509 0.985 . S
N1497 C1499 1.356 . S
N1497 H1502 0.984 . S
N1497 H1503 0.985 . S
C1498 C1492 1.379 . S
C1498 C1495 1.363 . S
C1498 N1496 1.356 . S
C1499 C1493 1.363 . S
C1499 C1494 1.379 . S
C1499 N1497 1.356 . S
N1500 C1492 1.356 . S
N1500 H1506 0.984 . S
N1500 H1507 0.984 . S
N1501 C1494 1.356 . S
N1501 H1504 0.984 . S
N1501 H1505 0.985 . S
H1502 N1497 0.984 . S
H1503 N1497 0.985 . S
H1504 N1501 0.984 . S
H1505 N1501 0.985 . S
H1506 N1500 0.984 . S
H1507 N1500 0.984 . S
H1508 N1496 0.984 . S
H1509 N1496 0.985 . S
C1510 C1511 1.363 . S
C1510 C1516 1.379 . S
C1510 N1518 1.356 . S
C1511 C1510 1.363 . S
C1511 C1517 1.363 . S
C1512 C1513 1.363 . S
C1512 C1517 1.379 . S
C1512 N1519 1.356 . S
C1513 C1512 1.363 . S
C1513 C1516 1.363 . S
N1514 C1516 1.356 . S
N1514 H1526 0.984 . S
N1514 H1527 0.985 . S
N1515 C1517 1.356 . S
N1515 H1520 0.984 . S
N1515 H1521 0.985 . S
C1516 C1510 1.379 . S
C1516 C1513 1.363 . S
C1516 N1514 1.356 . S
C1517 C1511 1.363 . S
C1517 C1512 1.379 . S
C1517 N1515 1.356 . S
N1518 C1510 1.356 . S
N1518 H1524 0.984 . S
N1518 H1525 0.984 . S
N1519 C1512 1.356 . S
N1519 H1522 0.984 . S
N1519 H1523 0.985 . S
H1520 N1515 0.984 . S
H1521 N1515 0.985 . S
H1522 N1519 0.984 . S
H1523 N1519 0.985 . S
H1524 N1518 0.984 . S
H1525 N1518 0.984 . S
H1526 N1514 0.984 . S
H1527 N1514 0.985 . S
C1528 C1529 1.363 . S
C1528 C1534 1.379 . S
C1528 N1536 1.356 . S
C1529 C1528 1.363 . S
C1529 C1535 1.363 . S
C1530 C1531 1.363 . S
C1530 C1535 1.379 . S
C1530 N1537 1.356 . S
C1531 C1530 1.363 . S
C1531 C1534 1.363 . S
N1532 C1534 1.356 . S
N1532 H1544 0.984 . S
N1532 H1545 0.985 . S
N1533 C1535 1.356 . S
N1533 H1538 0.984 . S
N1533 H1539 0.985 . S
C1534 C1528 1.379 . S
C1534 C1531 1.363 . S
C1534 N1532 1.356 . S
C1535 C1529 1.363 . S
C1535 C1530 1.379 . S
C1535 N1533 1.356 . S
N1536 C1528 1.356 . S
N1536 H1542 0.984 . S
N1536 H1543 0.984 . S
N1537 C1530 1.356 . S
N1537 H1540 0.984 . S
N1537 H1541 0.985 . S
H1538 N1533 0.984 . S
H1539 N1533 0.985 . S
H1540 N1537 0.984 . S
H1541 N1537 0.985 . S
H1542 N1536 0.984 . S
H1543 N1536 0.984 . S
H1544 N1532 0.984 . S
H1545 N1532 0.985 . S
C1546 C1547 1.363 . S
C1546 C1552 1.379 . S
C1546 N1554 1.356 . S
C1547 C1546 1.363 . S
C1547 C1553 1.363 . S
C1548 C1549 1.363 . S
C1548 C1553 1.379 . S
C1548 N1555 1.356 . S
C1549 C1548 1.363 . S
C1549 C1552 1.363 . S
N1550 C1552 1.356 . S
N1550 H1562 0.984 . S
N1550 H1563 0.985 . S
N1551 C1553 1.356 . S
N1551 H1556 0.984 . S
N1551 H1557 0.985 . S
C1552 C1546 1.379 . S
C1552 C1549 1.363 . S
C1552 N1550 1.356 . S
C1553 C1547 1.363 . S
C1553 C1548 1.379 . S
C1553 N1551 1.356 . S
N1554 C1546 1.356 . S
N1554 H1560 0.984 . S
N1554 H1561 0.984 . S
N1555 C1548 1.356 . S
N1555 H1558 0.984 . S
N1555 H1559 0.985 . S
H1556 N1551 0.984 . S
H1557 N1551 0.985 . S
H1558 N1555 0.984 . S
H1559 N1555 0.985 . S
H1560 N1554 0.984 . S
H1561 N1554 0.984 . S
H1562 N1550 0.984 . S
H1563 N1550 0.985 . S
C1564 C1565 1.363 . S
C1564 C1570 1.379 . S
C1564 N1572 1.356 . S
C1565 C1564 1.363 . S
C1565 C1571 1.363 . S
C1566 C1567 1.363 . S
C1566 C1571 1.379 . S
C1566 N1573 1.356 . S
C1567 C1566 1.363 . S
C1567 C1570 1.363 . S
N1568 C1570 1.356 . S
N1568 H1580 0.984 . S
N1568 H1581 0.985 . S
N1569 C1571 1.356 . S
N1569 H1574 0.984 . S
N1569 H1575 0.985 . S
C1570 C1564 1.379 . S
C1570 C1567 1.363 . S
C1570 N1568 1.356 . S
C1571 C1565 1.363 . S
C1571 C1566 1.379 . S
C1571 N1569 1.356 . S
N1572 C1564 1.356 . S
N1572 H1578 0.984 . S
N1572 H1579 0.984 . S
N1573 C1566 1.356 . S
N1573 H1576 0.984 . S
N1573 H1577 0.985 . S
H1574 N1569 0.984 . S
H1575 N1569 0.985 . S
H1576 N1573 0.984 . S
H1577 N1573 0.985 . S
H1578 N1572 0.984 . S
H1579 N1572 0.984 . S
H1580 N1568 0.984 . S
H1581 N1568 0.985 . S
C1582 C1583 1.363 . S
C1582 C1588 1.379 . S
C1582 N1590 1.356 . S
C1583 C1582 1.363 . S
C1583 C1589 1.363 . S
C1584 C1585 1.363 . S
C1584 C1589 1.379 . S
C1584 N1591 1.356 . S
C1585 C1584 1.363 . S
C1585 C1588 1.363 . S
N1586 C1588 1.356 . S
N1586 H1598 0.984 . S
N1586 H1599 0.985 . S
N1587 C1589 1.356 . S
N1587 H1592 0.984 . S
N1587 H1593 0.985 . S
C1588 C1582 1.379 . S
C1588 C1585 1.363 . S
C1588 N1586 1.356 . S
C1589 C1583 1.363 . S
C1589 C1584 1.379 . S
C1589 N1587 1.356 . S
N1590 C1582 1.356 . S
N1590 H1596 0.984 . S
N1590 H1597 0.984 . S
N1591 C1584 1.356 . S
N1591 H1594 0.984 . S
N1591 H1595 0.985 . S
H1592 N1587 0.984 . S
H1593 N1587 0.985 . S
H1594 N1591 0.984 . S
H1595 N1591 0.985 . S
H1596 N1590 0.984 . S
H1597 N1590 0.984 . S
H1598 N1586 0.984 . S
H1599 N1586 0.985 . S
C449 C135 1.534 . S
C451 C8 1.622 . S
C467 C22 1.622 1_455 S
C469 C373 1.534 . S
C485 C163 1.534 . S
C487 C36 1.622 . S
C503 C345 1.534 . S
C505 C50 1.622 . S
C521 C64 1.622 . S
C523 C219 1.534 . S
C539 C401 1.534 . S
C541 C78 1.622 . S
C557 C92 1.622 . S
C559 C191 1.534 . S
C575 C429 1.534 . S
C577 C106 1.622 1_455 S
C593 C23 1.534 . S
C595 C120 1.622 . S
C611 C134 1.622 1_655 S
C613 C261 1.534 . S
C629 C51 1.534 . S
C631 C148 1.622 . S
C647 C162 1.622 . S
C649 C233 1.534 . S
C665 C176 1.622 . S
C667 C107 1.534 . S
C683 C289 1.534 . S
C685 C190 1.622 . S
C701 C204 1.622 . S
C703 C79 1.534 . S
C719 C317 1.534 . S
C721 C218 1.622 1_655 S
C737 C359 1.534 . S
C739 C232 1.622 . S
C755 C149 1.534 . S
C757 C246 1.622 . S
C773 C260 1.622 . S
C775 C387 1.534 . S
C791 C121 1.534 . S
C793 C274 1.622 1_655 S
C809 C443 1.534 . S
C811 C288 1.622 . S
C827 C302 1.622 1_655 S
C829 C177 1.534 . S
C845 C415 1.534 . S
C847 C316 1.622 . S
C863 C205 1.534 . S
C865 C330 1.622 . S
C881 C247 1.534 . S
C883 C344 1.622 . S
C899 C358 1.622 . S
C901 C37 1.534 . S
C917 C372 1.622 . S
C919 C275 1.534 . S
C935 C386 1.622 1_455 S
C937 C9 1.534 . S
C953 C331 1.534 . S
C955 C400 1.622 . S
C971 C414 1.622 1_455 S
C973 C65 1.534 . S
C989 C428 1.622 . S
C991 C303 1.534 . S
C1007 C442 1.622 . S
C1009 C93 1.534 . S
C1025 C342 1.574 . S
C1027 C6 1.574 . S
C1043 C20 1.574 . S
C1045 C132 1.574 . S
C1061 C34 1.574 . S
C1063 C370 1.574 . S
C1079 C48 1.574 . S
C1081 C160 1.574 . S
C1097 C62 1.574 . S
C1099 C398 1.574 . S
C1115 C76 1.574 . S
C1117 C188 1.574 . S
C1133 C426 1.574 . S
C1135 C90 1.574 . S
C1151 C104 1.574 . S
C1153 C216 1.574 . S
C1169 C118 1.574 . S
C1171 C230 1.574 . S
C1187 C146 1.574 . S
C1189 C258 1.574 . S
C1205 C286 1.574 . S
C1207 C174 1.574 . S
C1223 C314 1.574 . S
C1225 C202 1.574 . S
C1241 C244 1.574 . S
C1243 C356 1.574 . S
C1259 C384 1.574 . S
C1261 C272 1.574 . S
C1277 C300 1.574 . S
C1279 C412 1.574 . S
C1295 C440 1.574 . S
C1297 C328 1.574 . S
C1313 C301 1.320 . S
C1315 C7 1.320 . S
C1331 C315 1.320 . S
C1333 C21 1.320 . S
C1349 C35 1.320 . S
C1351 C329 1.320 . S
C1367 C287 1.320 . S
C1369 C49 1.320 . S
C1385 C273 1.320 . S
C1387 C63 1.320 . S
C1403 C231 1.320 . S
C1405 C77 1.320 . S
C1421 C91 1.320 . S
C1423 C245 1.320 . S
C1439 C259 1.320 . S
C1441 C105 1.320 . S
C1457 C413 1.320 . S
C1459 C119 1.320 . S
C1475 C427 1.320 . S
C1477 C133 1.320 . S
C1493 C441 1.320 . S
C1495 C147 1.320 . S
C1511 C161 1.320 . S
C1513 C399 1.320 . S
C1529 C385 1.320 . S
C1531 C175 1.320 . S
C1547 C343 1.320 . S
C1549 C189 1.320 . S
C1565 C357 1.320 . S
C1567 C203 1.320 . S
C1583 C371 1.320 . S
C1585 C217 1.320 . S
