# Generated by pormake.
# Topology whw, (6)-cn, num edge types: 1
# Building blocks:
#     Node 0, Type 0, BuildingBlock: GEDQOX_clean_sbu_0, # of connection points: 6
#     Node 1, Type 0, BuildingBlock: GEDQOX_clean_sbu_0, # of connection points: 6
#     Node 2, Type 0, BuildingBlock: GEDQOX_clean_sbu_0, # of connection points: 6
#     Node 3, Type 0, BuildingBlock: GEDQOX_clean_sbu_0, # of connection points: 6
#     Node 4, Type 0, BuildingBlock: GEDQOX_clean_sbu_0, # of connection points: 6
#     Node 5, Type 0, BuildingBlock: GEDQOX_clean_sbu_0, # of connection points: 6
#     Node 6, Type 0, BuildingBlock: GEDQOX_clean_sbu_0, # of connection points: 6
#     Node 7, Type 0, BuildingBlock: GEDQOX_clean_sbu_0, # of connection points: 6
#     Node 8, Type 0, BuildingBlock: GEDQOX_clean_sbu_0, # of connection points: 6
#     Node 9, Type 0, BuildingBlock: GEDQOX_clean_sbu_0, # of connection points: 6
#     Node 10, Type 0, BuildingBlock: GEDQOX_clean_sbu_0, # of connection points: 6
#     Node 11, Type 0, BuildingBlock: GEDQOX_clean_sbu_0, # of connection points: 6
#     Node 12, Type 0, BuildingBlock: GEDQOX_clean_sbu_0, # of connection points: 6
#     Node 13, Type 0, BuildingBlock: GEDQOX_clean_sbu_0, # of connection points: 6
#     Node 14, Type 0, BuildingBlock: GEDQOX_clean_sbu_0, # of connection points: 6
#     Node 15, Type 0, BuildingBlock: GEDQOX_clean_sbu_0, # of connection points: 6
#     Edge 16, Type (0, 0), BuildingBlock: XIVTED_clean_linker_0, # of connection points: 2
#     Edge 17, Type (0, 0), BuildingBlock: XIVTED_clean_linker_0, # of connection points: 2
#     Edge 18, Type (0, 0), BuildingBlock: XIVTED_clean_linker_0, # of connection points: 2
#     Edge 19, Type (0, 0), BuildingBlock: XIVTED_clean_linker_0, # of connection points: 2
#     Edge 20, Type (0, 0), BuildingBlock: XIVTED_clean_linker_0, # of connection points: 2
#     Edge 21, Type (0, 0), BuildingBlock: XIVTED_clean_linker_0, # of connection points: 2
#     Edge 22, Type (0, 0), BuildingBlock: XIVTED_clean_linker_0, # of connection points: 2
#     Edge 23, Type (0, 0), BuildingBlock: XIVTED_clean_linker_0, # of connection points: 2
#     Edge 24, Type (0, 0), BuildingBlock: XIVTED_clean_linker_0, # of connection points: 2
#     Edge 25, Type (0, 0), BuildingBlock: XIVTED_clean_linker_0, # of connection points: 2
#     Edge 26, Type (0, 0), BuildingBlock: XIVTED_clean_linker_0, # of connection points: 2
#     Edge 27, Type (0, 0), BuildingBlock: XIVTED_clean_linker_0, # of connection points: 2
#     Edge 28, Type (0, 0), BuildingBlock: XIVTED_clean_linker_0, # of connection points: 2
#     Edge 29, Type (0, 0), BuildingBlock: XIVTED_clean_linker_0, # of connection points: 2
#     Edge 30, Type (0, 0), BuildingBlock: XIVTED_clean_linker_0, # of connection points: 2
#     Edge 31, Type (0, 0), BuildingBlock: XIVTED_clean_linker_0, # of connection points: 2
#     Edge 32, Type (0, 0), BuildingBlock: XIVTED_clean_linker_0, # of connection points: 2
#     Edge 33, Type (0, 0), BuildingBlock: XIVTED_clean_linker_0, # of connection points: 2
#     Edge 34, Type (0, 0), BuildingBlock: XIVTED_clean_linker_0, # of connection points: 2
#     Edge 35, Type (0, 0), BuildingBlock: XIVTED_clean_linker_0, # of connection points: 2
#     Edge 36, Type (0, 0), BuildingBlock: XIVTED_clean_linker_0, # of connection points: 2
#     Edge 37, Type (0, 0), BuildingBlock: XIVTED_clean_linker_0, # of connection points: 2
#     Edge 38, Type (0, 0), BuildingBlock: XIVTED_clean_linker_0, # of connection points: 2
#     Edge 39, Type (0, 0), BuildingBlock: XIVTED_clean_linker_0, # of connection points: 2
#     Edge 40, Type (0, 0), BuildingBlock: XIVTED_clean_linker_0, # of connection points: 2
#     Edge 41, Type (0, 0), BuildingBlock: XIVTED_clean_linker_0, # of connection points: 2
#     Edge 42, Type (0, 0), BuildingBlock: XIVTED_clean_linker_0, # of connection points: 2
#     Edge 43, Type (0, 0), BuildingBlock: XIVTED_clean_linker_0, # of connection points: 2
#     Edge 44, Type (0, 0), BuildingBlock: XIVTED_clean_linker_0, # of connection points: 2
#     Edge 45, Type (0, 0), BuildingBlock: XIVTED_clean_linker_0, # of connection points: 2
#     Edge 46, Type (0, 0), BuildingBlock: XIVTED_clean_linker_0, # of connection points: 2
#     Edge 47, Type (0, 0), BuildingBlock: XIVTED_clean_linker_0, # of connection points: 2
#     Edge 48, Type (0, 0), BuildingBlock: XIVTED_clean_linker_0, # of connection points: 2
#     Edge 49, Type (0, 0), BuildingBlock: XIVTED_clean_linker_0, # of connection points: 2
#     Edge 50, Type (0, 0), BuildingBlock: XIVTED_clean_linker_0, # of connection points: 2
#     Edge 51, Type (0, 0), BuildingBlock: XIVTED_clean_linker_0, # of connection points: 2
#     Edge 52, Type (0, 0), BuildingBlock: XIVTED_clean_linker_0, # of connection points: 2
#     Edge 53, Type (0, 0), BuildingBlock: XIVTED_clean_linker_0, # of connection points: 2
#     Edge 54, Type (0, 0), BuildingBlock: XIVTED_clean_linker_0, # of connection points: 2
#     Edge 55, Type (0, 0), BuildingBlock: XIVTED_clean_linker_0, # of connection points: 2
#     Edge 56, Type (0, 0), BuildingBlock: XIVTED_clean_linker_0, # of connection points: 2
#     Edge 57, Type (0, 0), BuildingBlock: XIVTED_clean_linker_0, # of connection points: 2
#     Edge 58, Type (0, 0), BuildingBlock: XIVTED_clean_linker_0, # of connection points: 2
#     Edge 59, Type (0, 0), BuildingBlock: XIVTED_clean_linker_0, # of connection points: 2
#     Edge 60, Type (0, 0), BuildingBlock: XIVTED_clean_linker_0, # of connection points: 2
#     Edge 61, Type (0, 0), BuildingBlock: XIVTED_clean_linker_0, # of connection points: 2
#     Edge 62, Type (0, 0), BuildingBlock: XIVTED_clean_linker_0, # of connection points: 2
#     Edge 63, Type (0, 0), BuildingBlock: XIVTED_clean_linker_0, # of connection points: 2
# Relax obj value: 0.230
# Max RMSD: 0.193
# Mean RMSD: 0.193
data_MOF--net-whw--node1-GEDQOX_clean_sbu_0--edge1-XIVTED_clean_linker_0
_symmetry_space_group_name_H-M    P1
_symmetry_Int_Tables_number       1
_symmetry_cell_setting            triclinic
loop_
_symmetry_equiv_pos_as_xyz
'x, y, z'
_cell_length_a     47.285821
_cell_length_b     47.292577
_cell_length_c     35.233281
_cell_angle_alpha  90.040883
_cell_angle_beta   90.030843
_cell_angle_gamma 89.828088
loop_
_atom_site_label
_atom_site_type_symbol
_atom_site_fract_x
_atom_site_fract_y
_atom_site_fract_z
_atom_type_partial_charge
Nd0 Nd 0.9802 0.08948 0.13165 0.0
Nd1 Nd 0.03919 0.09535 0.1703 0.0
C2 C 0.93898 0.07906 0.0828 0.0
C3 C 0.93267 0.08824 0.04338 0.0
C4 C 0.95064 0.08138 1.01285 0.0
C5 C 0.94516 0.09189 0.97635 0.0
C6 C 0.92176 0.10966 0.96965 0.0
C7 C 0.90357 0.11602 1.00008 0.0
C8 C 0.9089 0.10534 0.03642 0.0
C9 C -0.01213 0.13868 0.16978 0.0
C10 C 0.03606 0.11211 0.08168 0.0
C11 C 0.08343 0.10596 0.2143 0.0
C12 C 0.09162 0.11619 0.25236 0.0
C13 C 0.11664 0.13175 0.25617 0.0
C14 C 0.1253 0.14167 0.2917 0.0
C15 C 0.10911 0.13623 0.32438 0.0
C16 C 0.08403 0.12045 0.32053 0.0
C17 C 0.07531 0.1106 0.2848 0.0
C18 C 0.02925 0.04573 0.13206 0.0
C19 C 0.9822 0.0802 0.22123 0.0
O20 O 0.9605 0.062 0.08794 0.0
O21 O 0.93742 0.09872 0.10885 0.0
O22 O 0.96353 0.12632 0.16656 0.0
O23 O 0.00668 0.12666 0.14995 0.0
O24 O 0.00976 0.10257 0.08233 0.0
O25 O 0.05163 0.11379 0.11273 0.0
O26 O 0.0725 0.12456 0.191 0.0
O27 O 0.07142 0.0811 0.2119 0.0
O28 O 0.05358 0.05838 0.13219 0.0
O29 O 0.01207 0.05858 0.15319 0.0
O30 O 0.00735 0.0924 0.21964 0.0
O31 O 0.96853 0.07205 0.19026 0.0
H32 H 0.96922 0.06832 1.01719 0.0
H33 H 0.95969 0.08675 0.9536 0.0
H34 H 0.88514 0.12929 0.9958 0.0
H35 H 0.89462 0.11087 0.05932 0.0
H36 H 0.1296 0.1362 0.23154 0.0
H37 H 0.14488 0.1534 0.29361 0.0
H38 H 0.07089 0.11615 0.34501 0.0
H39 H 0.05584 0.09872 0.28252 0.0
Nd40 Nd 0.14242 0.72346 0.37904 0.0
Nd41 Nd 0.13579 0.78201 0.41881 0.0
C42 C 0.1534 0.68308 0.32891 0.0
C43 C 0.14227 0.67712 0.29056 0.0
C44 C 0.15634 0.65821 0.26635 0.0
C45 C 0.14535 0.65216 0.23025 0.0
C46 C 0.12003 0.66489 0.21774 0.0
C47 C 0.10631 0.68423 0.242 0.0
C48 C 0.11732 0.69028 0.27796 0.0
C49 C 0.09294 0.73062 0.41661 0.0
C50 C 0.11892 0.77998 0.33043 0.0
C51 C 0.1252 0.82514 0.46477 0.0
C52 C 0.11515 0.8315 0.50356 0.0
C53 C 0.09275 0.81645 0.52007 0.0
C54 C 0.08215 0.8244 0.55565 0.0
C55 C 0.09382 0.84745 0.57553 0.0
C56 C 0.11685 0.86184 0.55938 0.0
C57 C 0.12732 0.85399 0.52372 0.0
C58 C 0.1857 0.77254 0.38098 0.0
C59 C 0.15113 0.72454 0.46868 0.0
O60 O 0.16876 0.70589 0.33231 0.0
O61 O 0.13536 0.68022 0.35675 0.0
O62 O 0.10531 0.70627 0.41276 0.0
O63 O 0.10495 0.74964 0.39735 0.0
O64 O 0.12905 0.75383 0.33051 0.0
O65 O 0.11677 0.79507 0.36185 0.0
O66 O 0.1067 0.81483 0.44081 0.0
O67 O 0.15026 0.81356 0.46144 0.0
O68 O 0.17278 0.7968 0.38126 0.0
O69 O 0.17289 0.75515 0.40169 0.0
O70 O 0.13833 0.74946 0.46721 0.0
O71 O 0.16 0.71138 0.43761 0.0
H72 H 0.17567 0.64791 0.2755 0.0
H73 H 0.15636 0.63702 0.21249 0.0
H74 H 0.08708 0.69482 0.23313 0.0
H75 H 0.10623 0.70514 0.29606 0.0
H76 H 0.08313 0.79885 0.50524 0.0
H77 H 0.0647 0.81256 0.56752 0.0
H78 H 0.12619 0.8798 0.57372 0.0
H79 H 0.14459 0.86591 0.51148 0.0
Nd80 Nd 0.50392 0.88085 0.63228 0.0
Nd81 Nd 0.44492 0.87461 0.67092 0.0
C82 C 0.54529 0.89191 0.5839 0.0
C83 C 0.55227 0.8831 0.5446 0.0
C84 C 0.53233 0.88488 0.51503 0.0
C85 C 0.53882 0.87454 0.47874 0.0
C86 C 0.56533 0.86209 0.47126 0.0
C87 C 0.58539 0.8609 0.50076 0.0
C88 C 0.57893 0.87131 0.53694 0.0
C89 C 0.49647 0.83154 0.67008 0.0
C90 C 0.44797 0.85778 0.58238 0.0
C91 C 0.40149 0.8644 0.71633 0.0
C92 C 0.39508 0.85459 0.75522 0.0
C93 C 0.40932 0.83146 0.77144 0.0
C94 C 0.40143 0.82133 0.80725 0.0
C95 C 0.37925 0.83422 0.82767 0.0
C96 C 0.36565 0.85791 0.81178 0.0
C97 C 0.37345 0.86791 0.77588 0.0
C98 C 0.45466 0.92436 0.6332 0.0
C99 C 0.50189 0.88964 0.72196 0.0
O100 O 0.52336 0.90849 0.58865 0.0
O101 O 0.54689 0.87212 0.6097 0.0
O102 O 0.5208 0.84391 0.66679 0.0
O103 O 0.4776 0.84356 0.65038 0.0
O104 O 0.47424 0.86749 0.58302 0.0
O105 O 0.43242 0.85603 0.61343 0.0
O106 O 0.41189 0.84578 0.69255 0.0
O107 O 0.41299 0.88941 0.71288 0.0
O108 O 0.43038 0.91162 0.63316 0.0
O109 O 0.47192 0.91149 0.65419 0.0
O110 O 0.47691 0.87714 0.72004 0.0
O111 O 0.51546 0.89819 0.69114 0.0
H112 H 0.51153 0.89377 0.52007 0.0
H113 H 0.52277 0.87559 0.45683 0.0
H114 H 0.60615 0.85188 0.4959 0.0
H115 H 0.59469 0.86975 0.55919 0.0
H116 H 0.42628 0.82093 0.75626 0.0
H117 H 0.41264 0.80333 0.8189 0.0
H118 H 0.34837 0.8682 0.82654 0.0
H119 H 0.36216 0.88577 0.7639 0.0
Nd120 Nd 0.33956 0.24408 0.88661 0.0
Nd121 Nd 0.3422 0.18498 0.92642 0.0
C122 C 0.33181 0.28526 0.83655 0.0
C123 C 0.34358 0.29123 0.79846 0.0
C124 C 0.32986 0.31022 0.774 0.0
C125 C 0.34124 0.3163 0.73814 0.0
C126 C 0.36667 0.30354 0.72602 0.0
C127 C 0.38011 0.28419 0.75055 0.0
C128 C 0.36866 0.27807 0.7863 0.0
C129 C 0.38894 0.23226 0.9229 0.0
C130 C 0.35863 0.1862 0.83747 0.0
C131 C 0.35178 0.14133 0.9719 0.0
C132 C 0.36303 0.13381 1.00981 0.0
C133 C 0.38096 0.11028 1.01306 0.0
C134 C 0.39201 0.10234 0.04831 0.0
C135 C 0.38534 0.11774 0.08132 0.0
C136 C 0.36712 0.14125 0.0781 0.0
C137 C 0.35613 0.14928 0.04264 0.0
C138 C 0.29294 0.19751 0.88879 0.0
C139 C 0.33085 0.24368 0.97614 0.0
O140 O 0.31513 0.26335 0.83916 0.0
O141 O 0.34961 0.28687 0.8649 0.0
O142 O 0.37854 0.25759 0.9201 0.0
O143 O 0.37482 0.21478 0.90372 0.0
O144 O 0.35088 0.21314 0.83794 0.0
O145 O 0.35923 0.17067 0.86864 0.0
O146 O 0.37009 0.15035 0.94684 0.0
O147 O 0.32748 0.15465 0.97015 0.0
O148 O 0.30376 0.17225 0.89031 0.0
O149 O 0.30703 0.2143 0.90902 0.0
O150 O 0.34185 0.21789 0.97477 0.0
O151 O 0.32296 0.2574 0.94507 0.0
H152 H 0.31045 0.32054 0.78275 0.0
H153 H 0.33041 0.33146 0.72024 0.0
H154 H 0.39941 0.27358 0.74203 0.0
H155 H 0.37949 0.26312 0.80455 0.0
H156 H 0.38645 0.09793 0.98819 0.0
H157 H 0.40562 0.08391 0.04973 0.0
H158 H 0.36177 0.15376 0.10284 0.0
H159 H 0.34238 0.16758 0.04091 0.0
Nd160 Nd 0.94926 0.87982 0.87761 0.0
Nd161 Nd 0.0083 0.88609 0.91607 0.0
C162 C 0.9052 0.8686 0.83357 0.0
C163 C 0.89723 0.85825 0.79544 0.0
C164 C 0.87366 0.84054 0.79192 0.0
C165 C 0.86519 0.83054 0.75634 0.0
C166 C 0.88012 0.83804 0.72332 0.0
C167 C 0.90373 0.85596 0.72689 0.0
C168 C 0.91224 0.86593 0.76264 0.0
C169 C 0.95894 0.92966 0.91536 0.0
C170 C 0.00608 0.89507 0.82641 0.0
C171 C 0.04987 0.89678 0.96435 0.0
C172 C 0.05686 0.88748 1.00345 0.0
C173 C 0.03698 0.88906 0.03309 0.0
C174 C 0.04339 0.87812 0.06908 0.0
C175 C 0.06975 0.86524 0.07618 0.0
C176 C 0.08977 0.86426 0.04664 0.0
C177 C 0.08339 0.87528 1.01077 0.0
C178 C 0.00059 0.83684 0.87801 0.0
C179 C 0.95255 0.86325 0.96624 0.0
O180 O 0.91636 0.85015 0.85691 0.0
O181 O 0.9168 0.89366 0.83609 0.0
O182 O 0.93466 0.91691 0.91526 0.0
O183 O 0.97627 0.91681 0.89444 0.0
O184 O 0.98106 0.88263 0.82826 0.0
O185 O 0.01963 0.90362 0.8573 0.0
O186 O 0.02794 0.91345 0.95997 0.0
O187 O 0.0514 0.87725 0.93814 0.0
O188 O 0.0249 0.8493 0.88085 0.0
O189 O 0.98197 0.8488 0.89816 0.0
O190 O 0.97886 0.8728 0.96552 0.0
O191 O 0.93693 0.86157 0.93525 0.0
H192 H 0.86167 0.83448 0.81681 0.0
H193 H 0.84669 0.81715 0.7547 0.0
H194 H 0.91591 0.86192 0.70215 0.0
H195 H 0.93052 0.87957 0.76464 0.0
H196 H 0.01627 0.89824 0.02832 0.0
H197 H 0.02738 0.87903 0.09102 0.0
H198 H 0.11042 0.85492 0.05122 0.0
H199 H 0.0991 0.87383 0.98846 0.0
Nd200 Nd 0.34845 0.68721 0.12753 0.0
Nd201 Nd 0.34187 0.74585 0.16746 0.0
C202 C 0.3597 0.64354 0.08272 0.0
C203 C 0.37077 0.63559 0.04496 0.0
C204 C 0.38859 0.61195 0.04208 0.0
C205 C 0.3992 0.60337 1.00688 0.0
C206 C 0.39222 0.61825 0.97358 0.0
C207 C 0.37418 0.64193 0.97647 0.0
C208 C 0.3636 0.65057 1.01187 0.0
C209 C 0.29826 0.69686 0.16455 0.0
C210 C 0.33362 0.74474 0.07762 0.0
C211 C 0.33052 0.78619 0.21749 0.0
C212 C 0.34161 0.79249 0.25578 0.0
C213 C 0.32671 0.81046 0.28038 0.0
C214 C 0.33745 0.81666 0.31657 0.0
C215 C 0.36336 0.80501 0.32883 0.0
C216 C 0.37799 0.78668 0.30413 0.0
C217 C 0.36722 0.78047 0.26807 0.0
C218 C 0.39168 0.7383 0.13068 0.0
C219 C 0.36484 0.6893 0.21632 0.0
O220 O 0.37786 0.65382 0.10713 0.0
O221 O 0.33488 0.65585 0.08443 0.0
O222 O 0.31093 0.67247 0.16411 0.0
O223 O 0.31141 0.71432 0.14433 0.0
O224 O 0.34633 0.71977 0.0791 0.0
O225 O 0.3247 0.75793 0.10865 0.0
O226 O 0.31549 0.76313 0.21434 0.0
O227 O 0.3484 0.78926 0.18949 0.0
O228 O 0.37956 0.76278 0.13455 0.0
O229 O 0.37922 0.71942 0.14965 0.0
O230 O 0.35534 0.71568 0.21611 0.0
O231 O 0.36651 0.67402 0.18502 0.0
H232 H 0.39425 0.59997 0.06719 0.0
H233 H 0.41268 0.58484 1.00573 0.0
H234 H 0.36862 0.65406 0.95148 0.0
H235 H 0.34991 0.66892 1.01336 0.0
H236 H 0.30686 0.81986 0.2715 0.0
H237 H 0.32571 0.83102 0.33465 0.0
H238 H 0.39771 0.77692 0.31277 0.0
H239 H 0.37896 0.76631 0.24967 0.0
Nd240 Nd 0.53466 0.09012 0.38163 0.0
Nd241 Nd 0.47684 0.08334 0.42374 0.0
C242 C 0.57652 0.10131 0.33399 0.0
C243 C 0.58209 0.11145 0.29491 0.0
C244 C 0.57009 0.13664 0.28105 0.0
C245 C 0.57754 0.14689 0.24512 0.0
C246 C 0.59703 0.13215 0.22216 0.0
C247 C 0.6083 0.10651 0.23569 0.0
C248 C 0.60098 0.09635 0.27171 0.0
C249 C 0.5252 0.03917 0.4165 0.0
C250 C 0.47579 0.07702 0.33354 0.0
C251 C 0.43732 0.07067 0.47423 0.0
C252 C 0.4306 0.08108 0.51272 0.0
C253 C 0.41197 0.06606 0.53612 0.0
C254 C 0.405 0.07636 0.57229 0.0
C255 C 0.4165 0.10195 0.58568 0.0
C256 C 0.43557 0.11664 0.56223 0.0
C257 C 0.44256 0.1063 0.52619 0.0
C258 C 0.48382 0.1337 0.38856 0.0
C259 C 0.53484 0.10447 0.47129 0.0
O260 O 0.5666 0.11961 0.3586 0.0
O261 O 0.56544 0.07613 0.33768 0.0
O262 O 0.54971 0.05149 0.41598 0.0
O263 O 0.50746 0.05315 0.39762 0.0
O264 O 0.50091 0.08931 0.33446 0.0
O265 O 0.46332 0.06759 0.36477 0.0
O266 O 0.4609 0.05639 0.47073 0.0
O267 O 0.43354 0.08879 0.44665 0.0
O268 O 0.4593 0.122 0.39335 0.0
O269 O 0.5031 0.12066 0.40621 0.0
O270 O 0.50821 0.09577 0.47161 0.0
O271 O 0.54962 0.10627 0.43953 0.0
H272 H 0.5553 0.14867 0.29817 0.0
H273 H 0.5681 0.16648 0.23537 0.0
H274 H 0.62352 0.09473 0.21898 0.0
H275 H 0.61058 0.07693 0.2818 0.0
H276 H 0.40258 0.04652 0.52627 0.0
H277 H 0.39009 0.0646 0.58939 0.0
H278 H 0.44523 0.13613 0.57179 0.0
H279 H 0.45717 0.11813 0.50868 0.0
Nd280 Nd 0.13708 0.28114 0.62636 0.0
Nd281 Nd 0.14262 0.22231 0.66594 0.0
C282 C 0.12711 0.32433 0.58035 0.0
C283 C 0.11771 0.3309 0.54128 0.0
C284 C 0.09394 0.31777 0.52513 0.0
C285 C 0.08409 0.3261 0.48934 0.0
C286 C 0.09785 0.3476 0.46883 0.0
C287 C 0.12218 0.36 0.48458 0.0
C288 C 0.13192 0.35179 0.52047 0.0
C289 C 0.18611 0.27167 0.66603 0.0
C290 C 0.15302 0.22348 0.57669 0.0
C291 C 0.15214 0.18147 0.71588 0.0
C292 C 0.14164 0.17603 0.75468 0.0
C293 C 0.15592 0.15712 0.77865 0.0
C294 C 0.14547 0.15135 0.81508 0.0
C295 C 0.12046 0.16435 0.82818 0.0
C296 C 0.10654 0.18371 0.8042 0.0
C297 C 0.11704 0.18952 0.7679 0.0
C298 C 0.09392 0.23039 0.62657 0.0
C299 C 0.11944 0.27889 0.71453 0.0
O300 O 0.10826 0.31396 0.60372 0.0
O301 O 0.15216 0.31284 0.5844 0.0
O302 O 0.17342 0.29604 0.66478 0.0
O303 O 0.17371 0.2541 0.645 0.0
O304 O 0.14071 0.24867 0.57774 0.0
O305 O 0.16096 0.21006 0.60798 0.0
O306 O 0.1688 0.20327 0.71184 0.0
O307 O 0.13331 0.17972 0.6888 0.0
O308 O 0.10604 0.20589 0.63018 0.0
O309 O 0.10579 0.24895 0.64676 0.0
O310 O 0.12947 0.25272 0.71438 0.0
O311 O 0.11747 0.29408 0.68317 0.0
H312 H 0.08269 0.30142 0.5404 0.0
H313 H 0.06556 0.31578 0.47779 0.0
H314 H 0.13316 0.37673 0.46973 0.0
H315 H 0.15026 0.36223 0.53239 0.0
H316 H 0.17498 0.14656 0.76904 0.0
H317 H 0.15663 0.1362 0.83265 0.0
H318 H 0.08753 0.19449 0.81352 0.0
H319 H 0.1058 0.2044 0.75 0.0
Nd320 Nd 0.85487 0.19374 0.62861 0.0
Nd321 Nd 0.84887 0.25284 0.66844 0.0
C322 C 0.86531 0.14978 0.58401 0.0
C323 C 0.87579 0.14172 0.54602 0.0
C324 C 0.89245 0.1173 0.54246 0.0
C325 C 0.90246 0.10867 0.50696 0.0
C326 C 0.89602 0.12429 0.47409 0.0
C327 C 0.8792 0.14879 0.4777 0.0
C328 C 0.86924 0.15747 0.51337 0.0
C329 C 0.80578 0.203 0.66816 0.0
C330 C 0.83952 0.25118 0.57853 0.0
C331 C 0.83732 0.29434 0.71682 0.0
C332 C 0.84472 0.30057 0.75672 0.0
C333 C 0.85112 0.27865 0.7822 0.0
C334 C 0.86114 0.28472 0.81871 0.0
C335 C 0.86427 0.31288 0.83075 0.0
C336 C 0.85671 0.33481 0.80574 0.0
C337 C 0.84727 0.32869 0.76892 0.0
C338 C 0.8976 0.24516 0.6291 0.0
C339 C 0.87339 0.19657 0.71669 0.0
O340 O 0.88384 0.16009 0.60785 0.0
O341 O 0.84057 0.16223 0.58619 0.0
O342 O 0.81848 0.17866 0.66675 0.0
O343 O 0.81816 0.22066 0.64735 0.0
O344 O 0.85167 0.22592 0.5798 0.0
O345 O 0.83147 0.26473 0.6097 0.0
O346 O 0.82043 0.27293 0.71079 0.0
O347 O 0.85832 0.29512 0.69274 0.0
O348 O 0.88547 0.26966 0.63299 0.0
O349 O 0.8857 0.22644 0.64899 0.0
O350 O 0.86349 0.22285 0.71681 0.0
O351 O 0.87452 0.18119 0.68542 0.0
H352 H 0.89763 0.10475 0.56725 0.0
H353 H 0.915 0.08951 0.50524 0.0
H354 H 0.87411 0.1615 0.45305 0.0
H355 H 0.85646 0.17644 0.51544 0.0
H356 H 0.84872 0.25684 0.77364 0.0
H357 H 0.86648 0.2674 0.83753 0.0
H358 H 0.859 0.3567 0.81425 0.0
H359 H 0.84248 0.34594 0.74971 0.0
Nd360 Nd 0.63309 0.77865 0.12943 0.0
Nd361 Nd 0.64094 0.7202 0.16908 0.0
C362 C 0.62188 0.82161 0.08352 0.0
C363 C 0.61192 0.82798 0.04466 0.0
C364 C 0.58895 0.81361 0.0284 0.0
C365 C 0.57868 0.82152 0.99264 0.0
C366 C 0.59124 0.84385 0.97232 0.0
C367 C 0.61476 0.85759 0.98828 0.0
C368 C 0.62491 0.84977 1.02411 0.0
C369 C 0.68356 0.76999 0.1661 0.0
C370 C 0.64833 0.72126 0.07926 0.0
C371 C 0.65305 0.68019 0.2192 0.0
C372 C 0.64182 0.67387 0.25738 0.0
C373 C 0.6562 0.65528 0.2817 0.0
C374 C 0.64517 0.64897 0.31767 0.0
C375 C 0.61949 0.6611 0.32994 0.0
C376 C 0.60544 0.6801 0.30556 0.0
C377 C 0.6165 0.68642 0.26973 0.0
C378 C 0.59071 0.72688 0.13301 0.0
C379 C 0.61713 0.77645 0.21811 0.0
O380 O 0.60348 0.81101 0.10734 0.0
O381 O 0.6471 0.81044 0.08696 0.0
O382 O 0.67028 0.79406 0.16602 0.0
O383 O 0.67078 0.75223 0.14584 0.0
O384 O 0.63517 0.74598 0.08108 0.0
O385 O 0.65794 0.70834 0.1101 0.0
O386 O 0.6676 0.70355 0.21607 0.0
O387 O 0.63536 0.67667 0.19106 0.0
O388 O 0.60322 0.70259 0.13674 0.0
O389 O 0.603 0.74597 0.15182 0.0
O390 O 0.6276 0.75043 0.21774 0.0
O391 O 0.6145 0.79156 0.18678 0.0
H392 H 0.57867 0.79655 0.04352 0.0
H393 H 0.56081 0.81019 0.98093 0.0
H394 H 0.62479 0.87499 0.97362 0.0
H395 H 0.64263 0.86117 0.03615 0.0
H396 H 0.67581 0.64546 0.27274 0.0
H397 H 0.65645 0.6341 0.33553 0.0
H398 H 0.58592 0.69023 0.31424 0.0
H399 H 0.60516 0.70103 0.25154 0.0
Nd400 Nd 0.64381 0.22206 0.87762 0.0
Nd401 Nd 0.63777 0.27839 0.92271 0.0
C402 C 0.65531 0.17768 0.83454 0.0
C403 C 0.64388 0.16965 0.79691 0.0
C404 C 0.65542 0.14704 0.77618 0.0
C405 C 0.64424 0.13973 0.74051 0.0
C406 C 0.62117 0.15478 0.72507 0.0
C407 C 0.60997 0.17762 0.74588 0.0
C408 C 0.62128 0.18503 0.78121 0.0
C409 C 0.58928 0.23863 0.89189 0.0
C410 C 0.62719 0.2798 0.83244 0.0
C411 C 0.62675 0.32079 0.96966 0.0
C412 C 0.6147 0.32766 1.00738 0.0
C413 C 0.59607 0.35067 1.01062 0.0
C414 C 0.58514 0.35859 0.04597 0.0
C415 C 0.59262 0.34372 0.0791 0.0
C416 C 0.61127 0.32055 0.07579 0.0
C417 C 0.62215 0.31255 0.04028 0.0
C418 C 0.68845 0.26973 0.88571 0.0
C419 C 0.64625 0.21845 0.97026 0.0
O420 O 0.671 0.20047 0.83509 0.0
O421 O 0.63726 0.17694 0.86275 0.0
O422 O 0.59756 0.22719 0.86042 0.0
O423 O 0.60955 0.24075 0.91472 0.0
O424 O 0.64239 0.25631 0.83138 0.0
O425 O 0.61828 0.29053 0.86502 0.0
O426 O 0.60911 0.31245 0.94321 0.0
O427 O 0.65113 0.3075 0.96857 0.0
O428 O 0.67588 0.2941 0.88761 0.0
O429 O 0.67473 0.25168 0.90412 0.0
O430 O 0.64036 0.24582 0.97078 0.0
O431 O 0.65046 0.20434 0.93815 0.0
H432 H 0.67297 0.13499 0.78761 0.0
H433 H 0.65331 0.12197 0.72534 0.0
H434 H 0.59258 0.19002 0.73465 0.0
H435 H 0.61232 0.20286 0.7963 0.0
H436 H 0.59018 0.36278 0.98573 0.0
H437 H 0.57117 0.37675 0.0474 0.0
H438 H 0.61723 0.30839 0.10058 0.0
H439 H 0.63646 0.29468 0.03862 0.0
Nd440 Nd 0.84558 0.75222 0.3804 0.0
Nd441 Nd 0.85179 0.69345 0.42006 0.0
C442 C 0.83455 0.7928 0.33067 0.0
C443 C 0.84557 0.79894 0.29234 0.0
C444 C 0.8314 0.81794 0.26839 0.0
C445 C 0.84218 0.82406 0.23224 0.0
C446 C 0.8674 0.81131 0.2194 0.0
C447 C 0.88127 0.79195 0.24343 0.0
C448 C 0.87045 0.78581 0.27945 0.0
C449 C 0.89541 0.74419 0.41692 0.0
C450 C 0.86807 0.69564 0.33128 0.0
C451 C 0.8624 0.64934 0.46427 0.0
C452 C 0.87266 0.64109 0.50224 0.0
C453 C 0.86708 0.65742 0.53471 0.0
C454 C 0.87688 0.64858 0.5704 0.0
C455 C 0.89258 0.62336 0.57415 0.0
C456 C 0.89801 0.60715 0.54144 0.0
C457 C 0.88815 0.61593 0.50595 0.0
C458 C 0.80181 0.70342 0.38268 0.0
C459 C 0.83734 0.75102 0.47026 0.0
O460 O 0.81917 0.77 0.33388 0.0
O461 O 0.85265 0.79554 0.35849 0.0
O462 O 0.88355 0.7688 0.41318 0.0
O463 O 0.88271 0.72541 0.39802 0.0
O464 O 0.85823 0.72188 0.33153 0.0
O465 O 0.87024 0.68049 0.36264 0.0
O466 O 0.881 0.66005 0.44088 0.0
O467 O 0.83758 0.66159 0.46198 0.0
O468 O 0.8144 0.67899 0.38303 0.0
O469 O 0.81491 0.72077 0.40319 0.0
O470 O 0.84974 0.72588 0.4688 0.0
O471 O 0.82862 0.76435 0.43925 0.0
H472 H 0.81212 0.82823 0.27777 0.0
H473 H 0.83105 0.83923 0.21466 0.0
H474 H 0.90044 0.78137 0.23431 0.0
H475 H 0.88162 0.77088 0.29736 0.0
H476 H 0.85524 0.67698 0.53248 0.0
H477 H 0.8726 0.66173 0.59492 0.0
H478 H 0.90969 0.58747 0.5433 0.0
H479 H 0.89256 0.60296 0.48127 0.0
Nd480 Nd 0.47895 0.58366 0.63092 0.0
Nd481 Nd 0.53716 0.5896 0.67169 0.0
C482 C 0.43901 0.57237 0.58039 0.0
C483 C 0.43246 0.58386 0.54243 0.0
C484 C 0.41453 0.56917 0.51766 0.0
C485 C 0.40803 0.58032 0.4818 0.0
C486 C 0.41932 0.60644 0.4701 0.0
C487 C 0.43763 0.62086 0.49495 0.0
C488 C 0.44415 0.60967 0.53068 0.0
C489 C 0.48591 0.63321 0.66836 0.0
C490 C 0.53587 0.60682 0.5832 0.0
C491 C 0.58 0.59963 0.71831 0.0
C492 C 0.58618 0.60995 0.75703 0.0
C493 C 0.57079 0.63232 0.77332 0.0
C494 C 0.57853 0.64315 0.80885 0.0
C495 C 0.60171 0.63178 0.82891 0.0
C496 C 0.61646 0.60879 0.81296 0.0
C497 C 0.6088 0.59807 0.77735 0.0
C498 C 0.52766 0.53972 0.63387 0.0
C499 C 0.47915 0.57519 0.7206 0.0
O500 O 0.46244 0.55775 0.58317 0.0
O501 O 0.43548 0.58981 0.60884 0.0
O502 O 0.4615 0.62125 0.66365 0.0
O503 O 0.50516 0.62085 0.64974 0.0
O504 O 0.50944 0.59758 0.58296 0.0
O505 O 0.55099 0.60802 0.61471 0.0
O506 O 0.57028 0.61811 0.69386 0.0
O507 O 0.56796 0.57484 0.71523 0.0
O508 O 0.55203 0.55229 0.63452 0.0
O509 O 0.51017 0.55283 0.65422 0.0
O510 O 0.50414 0.58773 0.7196 0.0
O511 O 0.46632 0.56634 0.68932 0.0
H512 H 0.40537 0.54918 0.52615 0.0
H513 H 0.3937 0.56875 0.46357 0.0
H514 H 0.44711 0.64074 0.4867 0.0
H515 H 0.45827 0.62124 0.54923 0.0
H516 H 0.5531 0.64172 0.75834 0.0
H517 H 0.56641 0.66057 0.82055 0.0
H518 H 0.63452 0.59966 0.82741 0.0
H519 H 0.62097 0.58082 0.76528 0.0
Nd520 Nd 0.00912 0.38573 0.12976 0.0
Nd521 Nd 0.95081 0.38038 0.17044 0.0
C522 C 0.04956 0.39632 0.07978 0.0
C523 C 0.05594 0.38702 0.04053 0.0
C524 C 0.03482 0.38577 1.01243 0.0
C525 C 0.04104 0.37524 0.97615 0.0
C526 C 0.06843 0.36551 0.9673 0.0
C527 C 0.08954 0.36716 0.99539 0.0
C528 C 0.08337 0.37784 0.03152 0.0
C529 C 0.00205 0.33685 0.16866 0.0
C530 C 0.95216 0.36279 0.08206 0.0
C531 C 0.908 0.37044 0.21698 0.0
C532 C 0.90181 0.36031 0.25577 0.0
C533 C 0.9162 0.33709 0.27152 0.0
C534 C 0.90834 0.3265 0.3071 0.0
C535 C 0.88605 0.33901 0.32774 0.0
C536 C 0.87237 0.36284 0.31237 0.0
C537 C 0.88013 0.3733 0.2767 0.0
C538 C 0.96004 0.42971 0.1316 0.0
C539 C 0.00877 0.39537 0.21941 0.0
O540 O 0.02753 0.41277 0.08468 0.0
O541 O 0.05175 0.37692 0.10602 0.0
O542 O 0.02638 0.34903 0.16432 0.0
O543 O 0.98286 0.34881 0.1494 0.0
O544 O 0.97882 0.37132 0.0818 0.0
O545 O 0.93683 0.36231 0.11337 0.0
O546 O 0.91776 0.35186 0.19265 0.0
O547 O 0.91992 0.39527 0.21374 0.0
O548 O 0.93563 0.41728 0.13301 0.0
O549 O 0.97773 0.4169 0.15203 0.0
O550 O 0.9836 0.38322 0.21852 0.0
O551 O 0.02198 0.40334 0.18801 0.0
H552 H 0.01339 0.39248 1.01863 0.0
H553 H 0.02421 0.37401 0.95536 0.0
H554 H 0.11093 0.36021 0.98942 0.0
H555 H 0.09998 0.37855 0.05269 0.0
H556 H 0.93318 0.32681 0.2561 0.0
H557 H 0.91963 0.30841 0.31837 0.0
H558 H 0.85501 0.37285 0.32732 0.0
H559 H 0.86873 0.39122 0.26506 0.0
Nd560 Nd 0.44709 0.37246 0.38246 0.0
Nd561 Nd 0.50584 0.38033 0.42186 0.0
C562 C 0.40321 0.36049 0.33846 0.0
C563 C 0.39519 0.34992 0.3005 0.0
C564 C 0.41107 0.35614 0.26788 0.0
C565 C 0.40233 0.34624 0.23219 0.0
C566 C 0.37765 0.32982 0.22853 0.0
C567 C 0.36193 0.32369 0.26141 0.0
C568 C 0.37061 0.33364 0.29691 0.0
C569 C 0.45563 0.42288 0.4193 0.0
C570 C 0.50403 0.38742 0.33148 0.0
C571 C 0.54716 0.39364 0.46945 0.0
C572 C 0.55518 0.38587 0.50869 0.0
C573 C 0.5349 0.3836 0.5377 0.0
C574 C 0.54271 0.37409 0.57392 0.0
C575 C 0.57095 0.3666 0.58188 0.0
C576 C 0.59125 0.36961 0.55294 0.0
C577 C 0.58343 0.3791 0.5168 0.0
C578 C 0.49939 0.33043 0.38508 0.0
C579 C 0.4502 0.35655 0.47167 0.0
O580 O 0.41455 0.34227 0.36197 0.0
O581 O 0.41463 0.38564 0.34061 0.0
O582 O 0.43158 0.40971 0.41908 0.0
O583 O 0.47337 0.41006 0.39894 0.0
O584 O 0.47903 0.37494 0.33326 0.0
O585 O 0.51737 0.39645 0.36231 0.0
O586 O 0.52439 0.40908 0.46497 0.0
O587 O 0.54923 0.37348 0.44421 0.0
O588 O 0.52358 0.34304 0.3886 0.0
O589 O 0.48029 0.34249 0.4043 0.0
O590 O 0.4764 0.36651 0.47128 0.0
O591 O 0.43486 0.35449 0.44042 0.0
H592 H 0.43016 0.36861 0.26998 0.0
H593 H 0.41512 0.35108 0.20756 0.0
H594 H 0.34264 0.31147 0.25968 0.0
H595 H 0.35797 0.32873 0.32168 0.0
H596 H 0.51293 0.38867 0.53221 0.0
H597 H 0.52645 0.37182 0.59533 0.0
H598 H 0.61326 0.36453 0.55815 0.0
H599 H 0.59944 0.38073 0.49493 0.0
Nd600 Nd 0.03799 0.59472 0.87528 0.0
Nd601 Nd 0.97937 0.58977 0.91563 0.0
C602 C 0.08101 0.6044 0.82894 0.0
C603 C 0.0874 0.61419 0.79003 0.0
C604 C 0.07371 0.6378 0.77415 0.0
C605 C 0.08178 0.64796 0.73844 0.0
C606 C 0.10361 0.63469 0.71776 0.0
C607 C 0.11661 0.61053 0.73329 0.0
C608 C 0.10863 0.60047 0.76909 0.0
C609 C 0.02832 0.5455 0.91407 0.0
C610 C 0.98007 0.57989 0.82614 0.0
C611 C 0.93824 0.57985 0.96484 0.0
C612 C 0.93125 0.58943 1.00381 0.0
C613 C 0.95108 0.58799 0.03354 0.0
C614 C 0.9445 0.59884 0.06954 0.0
C615 C 0.91801 0.6115 0.07654 0.0
C616 C 0.89809 0.61242 0.04687 0.0
C617 C 0.90463 0.60148 1.011 0.0
C618 C -0.01248 0.63874 0.87702 0.0
C619 C 0.03633 0.61212 0.96383 0.0
O620 O 0.07109 0.62314 0.85293 0.0
O621 O 0.06915 0.57956 0.83249 0.0
O622 O 0.05283 0.55776 0.91271 0.0
O623 O 0.01068 0.5584 0.89362 0.0
O624 O 0.00527 0.592 0.82701 0.0
O625 O 0.96681 0.57197 0.85749 0.0
O626 O 0.96018 0.56318 0.96064 0.0
O627 O 0.93655 0.59909 0.93831 0.0
O628 O 0.96294 0.62698 0.88091 0.0
O629 O 0.00619 0.62632 0.89656 0.0
O630 O 0.00986 0.60298 0.96398 0.0
O631 O 0.05151 0.61332 0.93239 0.0
H632 H 0.05709 0.64866 0.78956 0.0
H633 H 0.071 0.66634 0.72707 0.0
H634 H 0.13361 0.59992 0.71835 0.0
H635 H 0.11951 0.58227 0.78081 0.0
H636 H 0.97185 0.57892 0.02887 0.0
H637 H 0.96044 0.59799 0.0916 0.0
H638 H 0.87735 0.6216 0.05137 0.0
H639 H 0.88895 0.60279 0.98862 0.0
H640 H 0.00922 0.11609 1.01283 0.0
H641 H 0.14873 0.15676 0.89585 0.0
H642 H 0.09081 0.12785 0.06551 0.0
H643 H 0.06489 0.15576 0.84749 0.0
H644 H 0.12846 0.14464 0.95772 0.0
H645 H 0.02968 0.12922 0.95183 0.0
C646 C 0.03145 0.12148 1.01168 0.0
C647 C 0.04827 0.12085 0.04458 0.0
C648 C 0.1145 0.14714 0.93358 0.0
C649 C 0.07198 0.13587 0.9743 0.0
C650 C 0.12608 0.15391 0.89817 0.0
C651 C 0.10853 0.15734 0.86628 0.0
C652 C 0.08513 0.14353 0.93723 0.0
C653 C 0.07926 0.1537 0.87125 0.0
C654 C 0.04314 0.12903 0.97671 0.0
C655 C 0.07697 0.12809 0.04104 0.0
N656 N 0.06855 0.14693 0.9059 0.0
N657 N 0.08791 0.13519 1.00657 0.0
H658 H 0.09385 0.83174 0.31728 0.0
H659 H 0.09671 0.81496 0.09075 0.0
H660 H 0.12419 0.75719 0.25914 0.0
H661 H 0.05743 0.88571 0.14761 0.0
H662 H 0.10783 0.79419 0.15241 0.0
H663 H 0.08101 0.85236 0.25586 0.0
C664 C 0.09777 0.81965 0.29169 0.0
C665 C 0.11017 0.79264 0.29356 0.0
C666 C 0.09675 0.81424 0.15149 0.0
C667 C 0.0956 0.81627 0.22298 0.0
C668 C 0.09054 0.82624 0.11621 0.0
C669 C 0.07623 0.85226 0.11385 0.0
C670 C 0.08876 0.82834 0.18494 0.0
C671 C 0.06831 0.86555 0.14797 0.0
C672 C 0.0904 0.83146 0.25659 0.0
C673 C 0.11468 0.77804 0.2593 0.0
N674 N 0.07479 0.85353 0.18204 0.0
N675 N 0.1075 0.79006 0.22556 0.0
H676 H 0.33544 0.81085 0.39708 0.0
H677 H 0.47485 0.85327 0.51363 0.0
H678 H 0.41873 0.81577 0.34757 0.0
H679 H 0.39317 0.84216 0.56612 0.0
H680 H 0.45436 0.84015 0.4526 0.0
H681 H 0.35575 0.82309 0.4589 0.0
C682 C 0.35797 0.8146 0.39911 0.0
C683 C 0.37535 0.81223 0.36689 0.0
C684 C 0.44088 0.84051 0.47744 0.0
C685 C 0.39883 0.82611 0.43786 0.0
C686 C 0.45259 0.84807 0.51242 0.0
C687 C 0.43575 0.84892 0.54527 0.0
C688 C 0.41201 0.83379 0.47496 0.0
C689 C 0.40703 0.84178 0.54168 0.0
C690 C 0.36959 0.82143 0.43451 0.0
C691 C 0.40449 0.81698 0.37156 0.0
N692 N 0.39608 0.83461 0.50721 0.0
N693 N 0.41524 0.82374 0.40622 0.0
H694 H 0.36332 0.21265 0.76862 0.0
H695 H 0.40862 0.0735 0.65316 0.0
H696 H 0.37374 0.131 0.82165 0.0
H697 H 0.40527 0.15718 0.60459 0.0
H698 H 0.39456 0.09346 0.71457 0.0
H699 H 0.37747 0.19209 0.70815 0.0
C700 C 0.36858 0.19036 0.76766 0.0
C701 C 0.36733 0.17358 0.80054 0.0
C702 C 0.39697 0.10744 0.69048 0.0
C703 C 0.38358 0.14974 0.73074 0.0
C704 C 0.40484 0.09604 0.65531 0.0
C705 C 0.40822 0.11365 0.62351 0.0
C706 C 0.39222 0.13669 0.69394 0.0
C707 C 0.40335 0.14278 0.62829 0.0
C708 C 0.37671 0.17861 0.73296 0.0
C709 C 0.37442 0.1448 0.79718 0.0
N710 N 0.39556 0.15331 0.66269 0.0
N711 N 0.38219 0.13379 0.76294 0.0
H712 H 0.83939 0.81909 0.15159 0.0
H713 H 0.9796 0.8578 0.0348 0.0
H714 H 0.92307 0.81994 0.20047 0.0
H715 H 0.8975 0.84887 0.98259 0.0
H716 H 0.95898 0.84489 0.09581 0.0
H717 H 0.85987 0.83115 0.08987 0.0
C718 C 0.86205 0.82191 0.14943 0.0
C719 C 0.87948 0.81845 0.18142 0.0
C720 C 0.94545 0.84569 0.07103 0.0
C721 C 0.90315 0.83214 0.11059 0.0
C722 C 0.95722 0.85313 0.03607 0.0
C723 C 0.9403 0.85452 1.00332 0.0
C724 C 0.91642 0.83966 0.07355 0.0
C725 C 0.91143 0.84804 1.00696 0.0
C726 C 0.87375 0.82863 0.11408 0.0
C727 C 0.90878 0.82202 0.17662 0.0
N728 N 0.90041 0.841 0.04139 0.0
N729 N 0.91962 0.82873 0.14202 0.0
H730 H 0.8843 0.22374 0.78387 0.0
H731 H 0.92495 0.08361 0.89983 0.0
H732 H 0.88525 0.14078 0.73289 0.0
H733 H 0.90678 0.16411 0.95219 0.0
H734 H 0.91516 0.10461 0.83748 0.0
H735 H 0.89709 0.20273 0.84461 0.0
C736 C 0.88697 0.20107 0.78542 0.0
C737 C 0.88308 0.18403 0.75319 0.0
C738 C 0.91334 0.11766 0.86264 0.0
C739 C 0.89841 0.15969 0.82297 0.0
C740 C 0.91906 0.10573 0.89821 0.0
C741 C 0.91652 0.12206 0.93137 0.0
C742 C 0.90531 0.14624 0.8601 0.0
C743 C 0.90861 0.15058 0.92752 0.0
C744 C 0.89447 0.18906 0.82019 0.0
C745 C 0.88785 0.1548 0.75693 0.0
N746 N 0.90334 0.16172 0.89264 0.0
N747 N 0.89517 0.14355 0.79118 0.0
H748 H 0.565 0.15135 0.70618 0.0
H749 H 0.59092 0.11608 0.48614 0.0
H750 H 0.64828 0.13994 0.65858 0.0
H751 H 0.50948 0.11061 0.54089 0.0
H752 H 0.6123 0.12787 0.54758 0.0
H753 H 0.54436 0.13951 0.64461 0.0
C754 C 0.57899 0.14645 0.68273 0.0
C755 C 0.60848 0.14675 0.68768 0.0
C756 C 0.58975 0.12408 0.54609 0.0
C757 C 0.58485 0.13305 0.6167 0.0
C758 C 0.57748 0.11744 0.51096 0.0
C759 C 0.54828 0.11233 0.50812 0.0
C760 C 0.57271 0.1259 0.57871 0.0
C761 C 0.53205 0.11432 0.54148 0.0
C762 C 0.56716 0.13953 0.64756 0.0
C763 C 0.62546 0.13977 0.65624 0.0
N764 N 0.54444 0.121 0.57519 0.0
N765 N 0.61342 0.13337 0.6221 0.0
H766 H 0.55261 0.88345 0.40045 0.0
H767 H 0.62237 0.75286 0.28878 0.0
H768 H 0.59292 0.81239 0.45521 0.0
H769 H 0.59202 0.82812 0.23243 0.0
H770 H 0.60902 0.77342 0.34962 0.0
H771 H 0.56408 0.86262 0.33856 0.0
C772 C 0.56375 0.86342 0.39951 0.0
C773 C 0.57192 0.84976 0.43322 0.0
C774 C 0.60525 0.78548 0.324 0.0
C775 C 0.58521 0.82581 0.36235 0.0
C776 C 0.61283 0.7737 0.28908 0.0
C777 C 0.60839 0.78875 0.2552 0.0
C778 C 0.593 0.81257 0.32535 0.0
C779 C 0.59592 0.81572 0.25771 0.0
C780 C 0.57043 0.85162 0.36414 0.0
C781 C 0.58657 0.82396 0.43011 0.0
N782 N 0.58867 0.82675 0.29214 0.0
N783 N 0.59267 0.81286 0.39543 0.0
H784 H 0.56381 0.6511 0.34727 0.0
H785 H 0.59082 0.62293 0.56899 0.0
H786 H 0.64663 0.65387 0.39859 0.0
H787 H 0.51023 0.6113 0.51357 0.0
H788 H 0.61137 0.63658 0.50789 0.0
H789 H 0.54362 0.63895 0.40887 0.0
C790 C 0.57778 0.64935 0.37153 0.0
C791 C 0.60703 0.65362 0.36759 0.0
C792 C 0.58919 0.63106 0.50915 0.0
C793 C 0.58393 0.63937 0.43855 0.0
C794 C 0.57739 0.62332 0.54409 0.0
C795 C 0.54869 0.61591 0.54662 0.0
C796 C 0.57218 0.63155 0.47641 0.0
C797 C 0.53243 0.61678 0.5132 0.0
C798 C 0.56622 0.64221 0.40674 0.0
C799 C 0.62403 0.65052 0.4001 0.0
N800 N 0.54437 0.62444 0.47964 0.0
N801 N 0.61225 0.64366 0.43416 0.0
H802 H 0.6449 0.26527 0.76117 0.0
H803 H 0.55262 0.38285 0.65305 0.0
H804 H 0.5923 0.3258 0.82007 0.0
H805 H 0.60787 0.32319 0.5971 0.0
H806 H 0.56636 0.36258 0.71441 0.0
H807 H 0.63143 0.28677 0.70107 0.0
C808 C 0.63054 0.28316 0.76156 0.0
C809 C 0.61972 0.29368 0.79593 0.0
C810 C 0.57551 0.354 0.68868 0.0
C811 C 0.60404 0.31852 0.7266 0.0
C812 C 0.56756 0.36547 0.65359 0.0
C813 C 0.57916 0.35484 0.61968 0.0
C814 C 0.59513 0.33163 0.68999 0.0
C815 C 0.59868 0.33246 0.62235 0.0
C816 C 0.62284 0.29546 0.72707 0.0
C817 C 0.60122 0.31698 0.79436 0.0
N818 N 0.60597 0.32164 0.65675 0.0
N819 N 0.59391 0.32856 0.76029 0.0
H820 H 0.97885 0.344 1.01776 0.0
H821 H 0.84278 0.3481 0.88551 0.0
H822 H 0.8959 0.3617 0.06308 0.0
H823 H 0.91318 0.29264 0.8622 0.0
H824 H 0.86373 0.35924 0.94762 0.0
H825 H 0.95706 0.33087 0.95715 0.0
C826 C 0.95605 0.34508 1.01501 0.0
C827 C 0.93915 0.35386 0.04564 0.0
C828 C 0.8745 0.34455 0.92893 0.0
C829 C 0.91418 0.3393 0.97612 0.0
C830 C 0.86264 0.3383 0.89351 0.0
C831 C 0.87625 0.31938 0.86879 0.0
C832 C 0.90048 0.33231 0.93932 0.0
C833 C 0.90191 0.30717 0.88056 0.0
C834 C 0.94365 0.3375 0.98045 0.0
C835 C 0.90971 0.35484 0.04036 0.0
N836 N 0.91334 0.31405 0.9148 0.0
N837 N 0.89817 0.34792 1.00617 0.0
H838 H 0.89279 0.64375 0.31777 0.0
H839 H 0.89065 0.66152 0.0914 0.0
H840 H 0.86287 0.71864 0.26016 0.0
H841 H 0.93016 0.59075 0.14785 0.0
H842 H 0.87915 0.68192 0.15318 0.0
H843 H 0.90568 0.62333 0.25622 0.0
C844 C 0.88896 0.65595 0.29227 0.0
C845 C 0.87668 0.683 0.29433 0.0
C846 C 0.89036 0.66194 0.15214 0.0
C847 C 0.89133 0.65962 0.22361 0.0
C848 C 0.89678 0.65016 0.11679 0.0
C849 C 0.91129 0.62425 0.11428 0.0
C850 C 0.89832 0.64773 0.18551 0.0
C851 C 0.91914 0.61084 0.14832 0.0
C852 C 0.89636 0.64426 0.2571 0.0
C853 C 0.87228 0.69775 0.26017 0.0
N854 N 0.91245 0.62265 0.18247 0.0
N855 N 0.8795 0.68585 0.22636 0.0
H856 H 0.39511 0.34184 0.48702 0.0
H857 H 0.42271 0.31177 0.70829 0.0
H858 H 0.47656 0.35087 0.54092 0.0
H859 H 0.33968 0.3117 0.65744 0.0
H860 H 0.44306 0.32365 0.64657 0.0
H861 H 0.37481 0.32846 0.54829 0.0
C862 C 0.4088 0.34095 0.51165 0.0
C863 C 0.43766 0.34763 0.50861 0.0
C864 C 0.42038 0.32103 0.64886 0.0
C865 C 0.4144 0.33227 0.57918 0.0
C866 C 0.40872 0.31405 0.68413 0.0
C867 C 0.37935 0.31066 0.68829 0.0
C868 C 0.40265 0.32457 0.61717 0.0
C869 C 0.36237 0.31439 0.65586 0.0
C870 C 0.39713 0.33337 0.54672 0.0
C871 C 0.45421 0.34613 0.54173 0.0
N872 N 0.37424 0.32107 0.62178 0.0
N873 N 0.44238 0.33861 0.57549 0.0
H874 H 0.40746 0.66189 0.45312 0.0
H875 H 0.38228 0.63476 0.23082 0.0
H876 H 0.41375 0.57947 0.40113 0.0
H877 H 0.36768 0.71499 0.28612 0.0
H878 H 0.39593 0.61449 0.29209 0.0
H879 H 0.39512 0.682 0.39146 0.0
C880 C 0.40644 0.64801 0.42871 0.0
C881 C 0.41174 0.61889 0.43247 0.0
C882 C 0.38976 0.63653 0.29079 0.0
C883 C 0.3973 0.64187 0.36147 0.0
C884 C 0.382 0.64817 0.25575 0.0
C885 C 0.37378 0.67668 0.25312 0.0
C886 C 0.38943 0.65351 0.32355 0.0
C887 C 0.37382 0.69293 0.28657 0.0
C888 C 0.3992 0.65951 0.39347 0.0
C889 C 0.40957 0.60196 0.39977 0.0
N890 N 0.38152 0.68114 0.32026 0.0
N891 N 0.40259 0.61369 0.36571 0.0
H892 H 0.0642 0.65626 0.19987 0.0
H893 H 0.09167 0.62653 0.97862 0.0
H894 H 0.14732 0.6569 0.14938 0.0
H895 H 0.01035 0.61804 0.03299 0.0
H896 H 0.11227 0.63984 0.03988 0.0
H897 H 0.04401 0.64452 0.13809 0.0
C898 C 0.07824 0.65413 0.17575 0.0
C899 C 0.10757 0.65768 0.17999 0.0
C900 C 0.08991 0.63507 0.03836 0.0
C901 C 0.08447 0.64389 0.10881 0.0
C902 C 0.07809 0.62753 1.00333 0.0
C903 C 0.04918 0.62105 1.00049 0.0
C904 C 0.07271 0.63629 0.07087 0.0
C905 C 0.03273 0.62268 0.03365 0.0
C906 C 0.06668 0.64723 0.14044 0.0
C907 C 0.12465 0.65411 0.14765 0.0
N908 N 0.0447 0.63012 0.06731 0.0
N909 N 0.11286 0.64748 0.11349 0.0
H910 H 0.12635 0.25631 0.78547 0.0
H911 H 0.05167 0.38422 0.89669 0.0
H912 H 0.09286 0.32993 0.72841 0.0
H913 H 0.09981 0.31814 0.9513 0.0
H914 H 0.063 0.36318 0.83483 0.0
H915 H 0.11323 0.27713 0.84623 0.0
C916 C 0.11613 0.27684 0.7856 0.0
C917 C 0.11075 0.29136 0.75154 0.0
C918 C 0.0711 0.35333 0.86037 0.0
C919 C 0.09562 0.31546 0.8216 0.0
C920 C 0.06451 0.36524 0.89571 0.0
C921 C 0.0749 0.35303 0.92934 0.0
C922 C 0.08796 0.32883 0.85856 0.0
C923 C 0.09166 0.32855 0.92621 0.0
C924 C 0.10871 0.28878 0.82046 0.0
C925 C 0.0975 0.31796 0.75384 0.0
N926 N 0.09758 0.31727 0.89158 0.0
N927 N 0.09036 0.32913 0.78824 0.0
H928 H 0.04341 0.30617 0.2026 0.0
H929 H 0.9471 0.16953 0.2048 0.0
H930 H 0.95403 0.30558 0.17768 0.0
H931 H 0.03588 0.17024 0.17643 0.0
H932 H 0.95036 0.21915 0.22365 0.0
H933 H 0.04044 0.25668 0.22197 0.0
C934 C 0.02304 0.29575 0.20193 0.0
C935 C -0.00093 0.30943 0.1873 0.0
C936 C 0.96923 0.20819 0.21417 0.0
C937 C -0.00441 0.25342 0.20978 0.0
C938 C 0.96741 0.18001 0.20326 0.0
C939 C -0.00889 0.16629 0.18789 0.0
C940 C -0.00508 0.22244 0.2098 0.0
C941 C 0.01703 0.18043 0.18731 0.0
C942 C 0.0214 0.26764 0.21314 0.0
C943 C 0.9731 0.29539 0.18789 0.0
N944 N 0.01817 0.20804 0.19752 0.0
N945 N 0.9721 0.26782 0.19832 0.0
H946 H 0.92546 0.69525 0.42418 0.0
H947 H 0.06549 0.69138 0.45868 0.0
H948 H 0.92735 0.78419 0.4514 0.0
H949 H 0.05912 0.77746 0.41896 0.0
H950 H 0.01617 0.69355 0.4791 0.0
H951 H 0.9746 0.69121 0.44406 0.0
C952 C 0.93607 0.71374 0.43534 0.0
C953 C 0.92282 0.74019 0.43529 0.0
C954 C 0.02566 0.71201 0.46623 0.0
C955 C 0.97873 0.73587 0.45833 0.0
C956 C 0.05373 0.71084 0.45465 0.0
C957 C 0.06573 0.73391 0.43568 0.0
C958 C 0.0097 0.7363 0.45821 0.0
C959 C 0.05017 0.75895 0.43241 0.0
C960 C 0.96405 0.71142 0.44714 0.0
C961 C 0.93723 0.76353 0.45022 0.0
N962 N 0.02261 0.75933 0.4429 0.0
N963 N 0.96478 0.761 0.46019 0.0
H964 H 0.53417 0.66398 0.67789 0.0
H965 H 0.44822 0.80061 0.67819 0.0
H966 H 0.44471 0.66422 0.70197 0.0
H967 H 0.53743 0.80035 0.70403 0.0
H968 H 0.44568 0.75115 0.69763 0.0
H969 H 0.53659 0.71331 0.69818 0.0
C970 C 0.51518 0.67433 0.68811 0.0
C971 C 0.48905 0.66061 0.68703 0.0
C972 C 0.4657 0.76209 0.69995 0.0
C973 C 0.49146 0.71667 0.70972 0.0
C974 C 0.46713 0.79023 0.68864 0.0
C975 C 0.49323 0.80401 0.68832 0.0
C976 C 0.49071 0.74775 0.70998 0.0
C977 C 0.51705 0.79002 0.70282 0.0
C978 C 0.51654 0.70238 0.69992 0.0
C979 C 0.46512 0.67453 0.7013 0.0
N980 N 0.5154 0.76231 0.71216 0.0
N981 N 0.46672 0.70214 0.71118 0.0
H982 H 0.56479 0.26403 0.9531 0.0
H983 H 0.41997 0.18425 0.91353 0.0
H984 H 0.54868 0.20533 0.86174 0.0
H985 H 0.42325 0.26821 0.96142 0.0
H986 H 0.47143 0.18118 0.91846 0.0
H987 H 0.51623 0.25642 0.97617 0.0
C988 C 0.551 0.24961 0.93802 0.0
C989 C 0.56024 0.23574 0.90513 0.0
C990 C 0.46074 0.19997 0.92876 0.0
C991 C 0.50605 0.22605 0.93203 0.0
C992 C 0.43149 0.20171 0.92602 0.0
C993 C 0.41781 0.22696 0.93568 0.0
C994 C 0.476 0.22364 0.94113 0.0
C995 C 0.4334 0.24875 0.95253 0.0
C996 C 0.52364 0.24506 0.95137 0.0
C997 C 0.54205 0.21689 0.88676 0.0
N998 N 0.46197 0.24689 0.95396 0.0
N999 N 0.51576 0.21259 0.90051 0.0
H1000 H 0.03934 0.80912 0.83508 0.0
H1001 H 0.03641 0.66853 0.86895 0.0
H1002 H 0.95408 0.80278 0.87781 0.0
H1003 H 0.94715 0.67106 0.84364 0.0
H1004 H 0.04014 0.71787 0.8499 0.0
H1005 H 0.03717 0.75968 0.8151 0.0
C1006 C 0.02005 0.79734 0.83985 0.0
C1007 C -0.00278 0.80944 0.85944 0.0
C1008 C 0.01991 0.70742 0.84709 0.0
C1009 C -0.00518 0.75329 0.8373 0.0
C1010 C 0.01778 0.67933 0.85839 0.0
C1011 C -0.00866 0.66619 0.85877 0.0
C1012 C -0.0047 0.72231 0.83674 0.0
C1013 C 0.96782 0.68083 0.84456 0.0
C1014 C 0.01889 0.76921 0.82853 0.0
C1015 C 0.97239 0.79381 0.86376 0.0
N1016 N 0.97018 0.70847 0.8351 0.0
N1017 N 0.97201 0.76622 0.85338 0.0
H1018 H 0.5595 0.77509 0.12457 0.0
H1019 H 0.42283 0.68991 0.1237 0.0
H1020 H 0.55959 0.68572 0.09981 0.0
H1021 H 0.42312 0.77895 0.097 0.0
H1022 H 0.47248 0.68708 0.10509 0.0
H1023 H 0.5101 0.77766 0.10464 0.0
C1024 C 0.54921 0.75616 0.11427 0.0
C1025 C 0.56308 0.73002 0.11494 0.0
C1026 C 0.46151 0.70711 0.10239 0.0
C1027 C 0.50691 0.73259 0.09271 0.0
C1028 C 0.43325 0.7087 0.11321 0.0
C1029 C 0.4194 0.73485 0.11301 0.0
C1030 C 0.47585 0.73198 0.09227 0.0
C1031 C 0.43348 0.75854 0.09858 0.0
C1032 C 0.52111 0.7576 0.10268 0.0
C1033 C 0.54919 0.70614 0.1007 0.0
N1034 N 0.46127 0.75672 0.08966 0.0
N1035 N 0.52153 0.70782 0.09103 0.0
H1036 H 0.44337 0.16397 0.35227 0.0
H1037 H 0.54061 0.29963 0.35092 0.0
H1038 H 0.53228 0.16434 0.38002 0.0
H1039 H 0.4514 0.2992 0.3767 0.0
H1040 H 0.53741 0.25011 0.33148 0.0
H1041 H 0.44718 0.21292 0.33087 0.0
C1042 C 0.46382 0.17423 0.35317 0.0
C1043 C 0.48738 0.16072 0.36916 0.0
C1044 C 0.51844 0.26115 0.34044 0.0
C1045 C 0.49182 0.21607 0.34441 0.0
C1046 C 0.52023 0.28925 0.35172 0.0
C1047 C 0.49636 0.30297 0.36659 0.0
C1048 C 0.4926 0.24701 0.34397 0.0
C1049 C 0.47036 0.28901 0.36621 0.0
C1050 C 0.46596 0.202 0.34074 0.0
C1051 C 0.51352 0.17445 0.36874 0.0
N1052 N 0.46923 0.26148 0.35569 0.0
N1053 N 0.51497 0.20175 0.35722 0.0
H1054 H 0.06645 0.192 0.58293 0.0
H1055 H 0.9273 0.19624 0.61977 0.0
H1056 H 0.06063 0.2776 0.62474 0.0
H1057 H 0.92885 0.28537 0.59389 0.0
H1058 H 0.97598 0.19222 0.59814 0.0
H1059 H 0.01718 0.19484 0.56226 0.0
C1060 C 0.05483 0.21151 0.58732 0.0
C1061 C 0.06694 0.23421 0.60702 0.0
C1062 C 0.96543 0.21248 0.59571 0.0
C1063 C 0.01099 0.23735 0.58422 0.0
C1064 C 0.93772 0.21478 0.60851 0.0
C1065 C 0.92454 0.24126 0.60948 0.0
C1066 C 0.97999 0.23699 0.58454 0.0
C1067 C 0.9387 0.26467 0.59438 0.0
C1068 C 0.0268 0.21307 0.57559 0.0
C1069 C 0.05159 0.25936 0.61074 0.0
N1070 N 0.96607 0.26217 0.58351 0.0
N1071 N 0.02404 0.26008 0.60013 0.0
H1072 H 0.98294 0.01179 0.13166 0.0
H1073 H 0.00529 0.96352 0.91576 0.0
H1074 H 0.0546 0.03631 0.0637 0.0
H1075 H 0.93316 0.93973 0.98329 0.0
H1076 H 0.02333 -0.00889 0.96929 0.0
H1077 H 0.9647 0.9845 0.07795 0.0
C1078 C -0.00502 0.01107 0.10551 0.0
C1079 C 0.02019 0.02629 0.1019 0.0
C1080 C 0.00345 0.98003 0.97236 0.0
C1081 C -0.00058 -0.00443 0.04034 0.0
C1082 C -0.0069 0.96446 0.94177 0.0
C1083 C 0.96782 0.94935 0.94532 0.0
C1084 C -0.01163 0.9804 1.0067 0.0
C1085 C 0.95274 0.95118 0.97946 0.0
C1086 C 0.98451 -0.00431 0.07482 0.0
C1087 C 0.03508 0.02477 0.06758 0.0
N1088 N 0.96337 0.96626 1.00899 0.0
N1089 N 0.02436 0.00983 0.03798 0.0
H1090 H 0.19425 0.79816 0.31267 0.0
H1091 H 0.2887 0.67075 0.2323 0.0
H1092 H 0.21976 0.72618 0.37968 0.0
H1093 H 0.26465 0.74353 0.16589 0.0
H1094 H 0.26221 0.68994 0.28609 0.0
H1095 H 0.22049 0.77887 0.25872 0.0
C1096 C 0.20583 0.77853 0.31616 0.0
C1097 C 0.20486 0.76361 0.35045 0.0
C1098 C 0.26253 0.70164 0.25968 0.0
C1099 C 0.23439 0.74117 0.28889 0.0
C1100 C 0.27739 0.69054 0.22889 0.0
C1101 C 0.27886 0.70572 0.19484 0.0
C1102 C 0.24905 0.72803 0.25622 0.0
C1103 C 0.26403 0.7313 0.19185 0.0
C1104 C 0.22054 0.76737 0.28528 0.0
C1105 C 0.22 0.73821 0.35354 0.0
N1106 N 0.24987 0.74179 0.22229 0.0
N1107 N 0.23401 0.72766 0.32301 0.0
H1108 H 0.47855 0.0059 0.4169 0.0
H1109 H 0.5007 0.9586 0.63296 0.0
H1110 H 0.55198 0.02763 0.48331 0.0
H1111 H 0.42954 0.93305 0.56458 0.0
H1112 H 0.51925 -0.01479 0.57891 0.0
H1113 H 0.4605 0.9784 0.47038 0.0
C1114 C 0.49105 0.00444 0.44261 0.0
C1115 C 0.51667 0.019 0.44593 0.0
C1116 C 0.49949 0.97393 0.57576 0.0
C1117 C 0.49606 -0.0118 0.50729 0.0
C1118 C 0.48883 0.95898 0.60665 0.0
C1119 C 0.46369 0.94364 0.60298 0.0
C1120 C 0.48482 0.97351 0.54109 0.0
C1121 C 0.449 0.9447 0.56848 0.0
C1122 C 0.48069 -0.01105 0.47318 0.0
C1123 C 0.53214 0.01659 0.47969 0.0
N1124 N 0.4599 0.95924 0.53871 0.0
N1125 N 0.52144 0.00168 0.50928 0.0
H1126 H 0.28189 0.17 0.82256 0.0
H1127 H 0.19353 0.29846 0.73384 0.0
H1128 H 0.26323 0.24681 0.88382 0.0
H1129 H 0.21969 0.22501 0.67013 0.0
H1130 H 0.21857 0.28002 0.78934 0.0
H1131 H 0.25698 0.18894 0.76739 0.0
C1132 C 0.27214 0.1907 0.82453 0.0
C1133 C 0.27465 0.207 0.85758 0.0
C1134 C 0.21905 0.26803 0.76316 0.0
C1135 C 0.24656 0.22897 0.79452 0.0
C1136 C 0.20499 0.27867 0.73141 0.0
C1137 C 0.20453 0.26308 0.69757 0.0
C1138 C 0.2327 0.24166 0.76091 0.0
C1139 C 0.2195 0.23753 0.69587 0.0
C1140 C 0.25818 0.20163 0.79293 0.0
C1141 C 0.26178 0.2337 0.85868 0.0
N1142 N 0.23283 0.22747 0.72724 0.0
N1143 N 0.24839 0.24397 0.82746 0.0
H1144 H 0.70103 0.29943 0.82151 0.0
H1145 H 0.79689 0.17543 0.73489 0.0
H1146 H 0.72032 0.22201 0.88088 0.0
H1147 H 0.77162 0.24938 0.6717 0.0
H1148 H 0.76954 0.19247 0.78913 0.0
H1149 H 0.72899 0.28271 0.76751 0.0
C1150 C 0.71158 0.27911 0.82337 0.0
C1151 C 0.70841 0.26197 0.8555 0.0
C1152 C 0.76981 0.20492 0.76336 0.0
C1153 C 0.73994 0.24255 0.79387 0.0
C1154 C 0.78522 0.19508 0.73232 0.0
C1155 C 0.78655 0.21118 0.69901 0.0
C1156 C 0.75563 0.23101 0.76096 0.0
C1157 C 0.77119 0.23651 0.6971 0.0
C1158 C 0.72728 0.26945 0.79244 0.0
C1159 C 0.72225 0.23576 0.85647 0.0
N1160 N 0.75649 0.24578 0.7278 0.0
N1161 N 0.73733 0.22676 0.82598 0.0
H1162 H 0.76894 0.75069 0.38089 0.0
H1163 H 0.71742 0.72347 0.16746 0.0
H1164 H 0.79063 0.67631 0.31614 0.0
H1165 H 0.69469 0.7974 0.23252 0.0
H1166 H 0.7456 0.70645 0.22109 0.0
H1167 H 0.74118 0.76809 0.32704 0.0
C1168 C 0.7675 0.7379 0.35544 0.0
C1169 C 0.78207 0.71216 0.35272 0.0
C1170 C 0.73463 0.7265 0.22357 0.0
C1171 C 0.75084 0.73193 0.29104 0.0
C1172 C 0.71874 0.73627 0.19292 0.0
C1173 C 0.70372 0.76173 0.19581 0.0
C1174 C 0.73542 0.74237 0.25728 0.0
C1175 C 0.70603 0.77762 0.22924 0.0
C1176 C 0.75185 0.74787 0.32467 0.0
C1177 C 0.77962 0.69628 0.3193 0.0
N1178 N 0.72143 0.76756 0.25885 0.0
N1179 N 0.76446 0.70653 0.2896 0.0
H1180 H 0.5545 0.52909 0.56686 0.0
H1181 H 0.42957 0.43172 0.48727 0.0
H1182 H 0.48078 0.50663 0.63212 0.0
H1183 H 0.501 0.45806 0.42009 0.0
H1184 H 0.44778 0.45925 0.54065 0.0
H1185 H 0.53613 0.50164 0.51347 0.0
C1186 C 0.53465 0.51797 0.57009 0.0
C1187 C 0.51901 0.52011 0.60373 0.0
C1188 C 0.45939 0.45921 0.51417 0.0
C1189 C 0.49766 0.48915 0.54279 0.0
C1190 C 0.44886 0.44373 0.48362 0.0
C1191 C 0.46396 0.44262 0.44945 0.0
C1192 C 0.48515 0.47367 0.51039 0.0
C1193 C 0.48887 0.45836 0.44615 0.0
C1194 C 0.52403 0.50256 0.53953 0.0
C1195 C 0.49337 0.50549 0.6065 0.0
N1196 N 0.49883 0.47311 0.47638 0.0
N1197 N 0.48338 0.49074 0.5763 0.0
H1198 H 0.05633 0.53514 0.9802 0.0
H1199 H 0.93212 0.43972 0.06532 0.0
H1200 H 0.98111 0.5129 0.91782 0.0
H1201 H 0.00682 0.46296 0.12818 0.0
H1202 H 0.94927 0.46711 1.01128 0.0
H1203 H 0.03905 0.50791 0.03431 0.0
C1204 C 0.03635 0.52414 0.97776 0.0
C1205 C 0.01999 0.52626 0.94473 0.0
C1206 C 0.96185 0.46639 0.03695 0.0
C1207 C -9e-05 0.49551 1.0065 0.0
C1208 C 0.95195 0.45098 0.06788 0.0
C1209 C 0.96822 0.44907 0.10101 0.0
C1210 C -0.01184 0.48001 0.03933 0.0
C1211 C -0.00622 0.46388 0.10293 0.0
C1212 C 0.02637 0.50883 1.00874 0.0
C1213 C -0.00577 0.5118 0.94298 0.0
N1214 N 0.00309 0.47862 0.07236 0.0
N1215 N -0.01514 0.49713 0.97358 0.0
H1216 H 0.10791 0.10993 0.39425 0.0
H1217 H 0.15713 0.24785 0.50712 0.0
H1218 H 0.13117 0.18841 0.34043 0.0
H1219 H 0.14895 0.16653 0.56122 0.0
H1220 H 0.1491 0.22558 0.44567 0.0
H1221 H 0.12295 0.12951 0.45555 0.0
C1222 C 0.11612 0.13127 0.39529 0.0
C1223 C 0.11825 0.14752 0.36201 0.0
C1224 C 0.14942 0.21244 0.47082 0.0
C1225 C 0.13569 0.16998 0.43208 0.0
C1226 C 0.15414 0.22516 0.50597 0.0
C1227 C 0.1538 0.20902 0.53937 0.0
C1228 C 0.14379 0.18333 0.46886 0.0
C1229 C 0.14969 0.17971 0.53614 0.0
C1230 C 0.12492 0.14234 0.43026 0.0
C1231 C 0.1294 0.17493 0.36512 0.0
N1232 N 0.14445 0.16784 0.50154 0.0
N1233 N 0.13752 0.18528 0.39942 0.0
H1234 H 0.03779 0.85243 0.59373 0.0
H1235 H 0.06316 0.89787 0.81021 0.0
H1236 H 0.12112 0.86502 0.64062 0.0
H1237 H 0.98127 0.8915 0.75692 0.0
H1238 H 0.08541 0.88888 0.74829 0.0
H1239 H 0.01723 0.86828 0.65349 0.0
C1240 C 0.0518 0.85836 0.61671 0.0
C1241 C 0.08126 0.85713 0.61214 0.0
C1242 C 0.06257 0.88982 0.75015 0.0
C1243 C 0.05775 0.87576 0.68097 0.0
C1244 C 0.04987 0.8952 0.78543 0.0
C1245 C 0.02027 0.89527 0.78885 0.0
C1246 C 0.04552 0.88446 0.71819 0.0
C1247 C 0.00413 0.89135 0.7558 0.0
C1248 C 0.04003 0.86768 0.65082 0.0
C1249 C 0.0983 0.86573 0.64278 0.0
N1250 N 0.01692 0.88589 0.7221 0.0
N1251 N 0.08632 0.87451 0.67596 0.0
H1252 H 0.33402 0.71982 1.00821 0.0
H1253 H 0.36403 0.86263 0.89303 0.0
H1254 H 0.33304 0.80192 0.06155 0.0
H1255 H 0.37209 0.77857 0.84653 0.0
H1256 H 0.34812 0.84202 0.95326 0.0
H1257 H 0.34229 0.74222 0.94713 0.0
C1258 C 0.33517 0.74267 1.00699 0.0
C1259 C 0.33301 0.75899 0.04015 0.0
C1260 C 0.35332 0.82813 0.92982 0.0
C1261 C 0.343 0.78496 0.96991 0.0
C1262 C 0.36234 0.83986 0.89539 0.0
C1263 C 0.36964 0.8223 0.86466 0.0
C1264 C 0.35135 0.79862 0.93349 0.0
C1265 C 0.36721 0.79295 0.86954 0.0
C1266 C 0.34003 0.75548 0.97202 0.0
C1267 C 0.33445 0.78854 0.03669 0.0
N1268 N 0.35831 0.78211 0.90317 0.0
N1269 N 0.33969 0.8006 1.00221 0.0
H1270 H 0.41829 0.07752 0.31973 0.0
H1271 H 0.43969 0.10076 0.09582 0.0
H1272 H 0.49914 0.07794 0.26309 0.0
H1273 H 0.35998 0.11593 0.15193 0.0
H1274 H 0.46029 0.08687 0.15641 0.0
H1275 H 0.39504 0.08556 0.25809 0.0
C1276 C 0.43109 0.07871 0.2943 0.0
C1277 C 0.4607 0.07706 0.29659 0.0
C1278 C 0.43826 0.09316 0.15559 0.0
C1279 C 0.43437 0.08656 0.22623 0.0
C1280 C 0.42641 0.10099 0.12086 0.0
C1281 C 0.39798 0.1095 0.1186 0.0
C1282 C 0.42168 0.09371 0.18866 0.0
C1283 C 0.38205 0.10979 0.15233 0.0
C1284 C 0.41785 0.08358 0.25921 0.0
C1285 C 0.47627 0.07918 0.26277 0.0
N1286 N 0.39408 0.10198 0.18594 0.0
N1287 N 0.46296 0.08388 0.22919 0.0
H1288 H 0.83425 0.72626 0.53963 0.0
H1289 H 0.87814 0.86549 0.65421 0.0
H1290 H 0.84055 0.808 0.48624 0.0
H1291 H 0.86185 0.78457 0.70619 0.0
H1292 H 0.86361 0.84583 0.59277 0.0
H1293 H 0.84217 0.74831 0.60119 0.0
C1294 C 0.8369 0.74898 0.54095 0.0
C1295 C 0.83677 0.7653 0.50771 0.0
C1296 C 0.86306 0.83246 0.61769 0.0
C1297 C 0.84648 0.79082 0.57841 0.0
C1298 C 0.87158 0.8436 0.65275 0.0
C1299 C 0.87124 0.8267 0.68558 0.0
C1300 C 0.85432 0.80413 0.61532 0.0
C1301 C 0.86215 0.79857 0.68191 0.0
C1302 C 0.84152 0.76159 0.57618 0.0
C1303 C 0.84026 0.79467 0.5112 0.0
N1304 N 0.85422 0.78822 0.64754 0.0
N1305 N 0.84533 0.80647 0.54589 0.0
H1306 H 0.86894 0.12395 0.40472 0.0
H1307 H 0.00717 0.07649 0.29053 0.0
H1308 H 0.94884 0.10374 0.45751 0.0
H1309 H 0.92536 0.08404 0.23735 0.0
H1310 H -0.01471 0.08464 0.35219 0.0
H1311 H 0.8884 0.10893 0.34337 0.0
C1312 C 0.89057 0.11642 0.40344 0.0
C1313 C 0.90726 0.11514 0.43644 0.0
C1314 C 0.97196 0.08418 0.32719 0.0
C1315 C 0.92958 0.09769 0.36631 0.0
C1316 C 0.98447 0.07943 0.29193 0.0
C1317 C 0.96808 0.07959 0.25873 0.0
C1318 C 0.94279 0.0896 0.32945 0.0
C1319 C 0.93874 0.08349 0.26227 0.0
C1320 C 0.90158 0.10762 0.36845 0.0
C1321 C 0.93504 0.10483 0.43304 0.0
N1322 N 0.92706 0.08872 0.29698 0.0
N1323 N 0.9453 0.09667 0.39871 0.0
H1324 H 0.63932 0.16125 0.98395 0.0
H1325 H 0.60982 0.18717 0.20546 0.0
H1326 H 0.64904 0.24138 0.04111 0.0
H1327 H 0.60611 0.10436 0.15425 0.0
H1328 H 0.62523 0.20667 0.14494 0.0
H1329 H 0.6294 0.13899 0.0456 0.0
C1330 C 0.63987 0.17407 1.00942 0.0
C1331 C 0.64483 0.20331 1.0072 0.0
C1332 C 0.62112 0.1842 0.14681 0.0
C1333 C 0.63307 0.1781 0.07765 0.0
C1334 C 0.61205 0.17307 0.18139 0.0
C1335 C 0.6064 0.14408 0.18502 0.0
C1336 C 0.6245 0.16634 0.11521 0.0
C1337 C 0.61034 0.12682 0.15287 0.0
C1338 C 0.634 0.16139 0.04458 0.0
C1339 C 0.64504 0.21886 0.04121 0.0
N1340 N 0.61898 0.13821 0.11929 0.0
N1341 N 0.63904 0.20615 0.07478 0.0
H1342 H 0.47647 0.88768 0.79103 0.0
H1343 H 0.61948 0.85965 0.90723 0.0
H1344 H 0.55892 0.89144 0.73892 0.0
H1345 H 0.53547 0.85039 0.95321 0.0
H1346 H 0.59873 0.8756 0.84705 0.0
H1347 H 0.49873 0.8794 0.85226 0.0
C1348 C 0.49935 0.88717 0.79256 0.0
C1349 C 0.51583 0.89013 0.75967 0.0
C1350 C 0.58488 0.87013 0.87036 0.0
C1351 C 0.54163 0.88008 0.8301 0.0
C1352 C 0.5967 0.86108 0.90477 0.0
C1353 C 0.5792 0.85344 0.93534 0.0
C1354 C 0.55534 0.87175 0.86654 0.0
C1355 C 0.54982 0.85554 0.93032 0.0
C1356 C 0.51208 0.88229 0.82762 0.0
C1357 C 0.5454 0.88941 0.76355 0.0
N1358 N 0.53888 0.86445 0.8967 0.0
N1359 N 0.55738 0.88413 0.79809 0.0
H1360 H 0.6055 0.68793 0.84693 0.0
H1361 H 0.65286 0.66416 0.06319 0.0
H1362 H 0.61995 0.60498 0.89414 0.0
H1363 H 0.64285 0.74569 1.00984 0.0
H1364 H 0.64402 0.6415 1.00143 0.0
H1365 H 0.62095 0.70893 0.90655 0.0
C1366 C 0.61174 0.67408 0.86995 0.0
C1367 C 0.61115 0.6446 0.86549 0.0
C1368 C 0.64413 0.66435 1.00325 0.0
C1369 C 0.62935 0.66864 0.9342 0.0
C1370 C 0.64942 0.67729 0.03843 0.0
C1371 C 0.64846 0.70687 0.04179 0.0
C1372 C 0.63785 0.68116 0.97135 0.0
C1373 C 0.64357 0.72281 1.00878 0.0
C1374 C 0.62083 0.68611 0.90399 0.0
C1375 C 0.62016 0.62781 0.8962 0.0
N1376 N 0.63826 0.70979 0.9752 0.0
N1377 N 0.62872 0.64004 0.92931 0.0
H1378 H 0.47919 0.38895 0.2619 0.0
H1379 H 0.61959 0.34616 0.14855 0.0
H1380 H 0.56108 0.38479 0.31551 0.0
H1381 H 0.53859 0.36113 0.09566 0.0
H1382 H 0.59936 0.36064 0.2097 0.0
H1383 H 0.50142 0.38048 0.20056 0.0
C1384 C 0.50197 0.38666 0.26068 0.0
C1385 C 0.51827 0.38759 0.29395 0.0
C1386 C 0.58608 0.36089 0.18465 0.0
C1387 C 0.54402 0.37725 0.22347 0.0
C1388 C 0.59755 0.35239 0.14975 0.0
C1389 C 0.58081 0.35238 0.11673 0.0
C1390 C 0.55758 0.36927 0.18672 0.0
C1391 C 0.55247 0.36108 0.12009 0.0
C1392 C 0.51468 0.38172 0.22557 0.0
C1393 C 0.54772 0.3845 0.29055 0.0
N1394 N 0.5418 0.36901 0.15433 0.0
N1395 N 0.55964 0.37912 0.25599 0.0
H1396 H 0.87913 0.28308 0.34508 0.0
H1397 H 0.8379 0.3084 0.56308 0.0
H1398 H 0.87049 0.36641 0.39372 0.0
H1399 H 0.84128 0.22672 0.50869 0.0
H1400 H 0.84652 0.33078 0.50121 0.0
H1401 H 0.86341 0.26264 0.40489 0.0
C1402 C 0.8741 0.29711 0.36845 0.0
C1403 C 0.8764 0.32653 0.36436 0.0
C1404 C 0.84501 0.30797 0.50282 0.0
C1405 C 0.85793 0.30317 0.43326 0.0
C1406 C 0.83983 0.29521 0.53807 0.0
C1407 C 0.83905 0.26561 0.54115 0.0
C1408 C 0.84943 0.29098 0.47053 0.0
C1409 C 0.84202 0.24957 0.50782 0.0
C1410 C 0.86485 0.28542 0.40259 0.0
C1411 C 0.86893 0.34362 0.39551 0.0
N1412 N 0.84729 0.26241 0.47413 0.0
N1413 N 0.86021 0.33171 0.4287 0.0
H1414 H 0.00432 0.5753 0.75658 0.0
H1415 H 0.86618 0.6246 0.64393 0.0
H1416 H 0.92307 0.5841 0.81093 0.0
H1417 H 0.94474 0.60103 0.5901 0.0
H1418 H 0.88578 0.60952 0.70521 0.0
H1419 H 0.98192 0.58301 0.69516 0.0
C1420 C 0.98161 0.57838 0.75549 0.0
C1421 C 0.96553 0.57902 0.78892 0.0
C1422 C 0.89862 0.60748 0.67992 0.0
C1423 C 0.93969 0.58863 0.71848 0.0
C1424 C 0.88754 0.61631 0.64497 0.0
C1425 C 0.90382 0.61412 0.61172 0.0
C1426 C 0.92629 0.59663 0.68172 0.0
C1427 C 0.93125 0.60285 0.61479 0.0
C1428 C 0.96882 0.5829 0.72036 0.0
C1429 C 0.93621 0.58318 0.7858 0.0
N1430 N 0.94161 0.59471 0.64907 0.0
N1431 N 0.92425 0.58823 0.7512 0.0
H1432 H 0.37778 0.35669 0.15901 0.0
H1433 H 0.32691 0.21933 0.04573 0.0
H1434 H 0.35637 0.27738 0.21203 0.0
H1435 H 0.33672 0.3005 0.99173 0.0
H1436 H 0.33593 0.24126 0.1071 0.0
H1437 H 0.36241 0.33741 0.09771 0.0
C1438 C 0.36993 0.33522 0.1578 0.0
C1439 C 0.3684 0.31866 0.19087 0.0
C1440 C 0.33581 0.25445 0.082 0.0
C1441 C 0.35052 0.29654 0.12078 0.0
C1442 C 0.33056 0.24192 0.04688 0.0
C1443 C 0.33108 0.25809 1.01352 0.0
C1444 C 0.34207 0.28343 0.08399 0.0
C1445 C 0.33589 0.28729 1.01678 0.0
C1446 C 0.36093 0.32432 0.12283 0.0
C1447 C 0.35766 0.2911 0.18753 0.0
N1448 N 0.34157 0.29899 0.05137 0.0
N1449 N 0.3493 0.28094 0.15323 0.0
H1450 H 0.44615 0.60031 0.95842 0.0
H1451 H 0.42184 0.57629 0.73521 0.0
H1452 H 0.36591 0.61565 0.90366 0.0
H1453 H 0.50319 0.57452 0.79062 0.0
H1454 H 0.39934 0.58448 0.79726 0.0
H1455 H 0.46578 0.58523 0.89777 0.0
C1456 C 0.43254 0.60032 0.93367 0.0
C1457 C 0.40427 0.60926 0.93631 0.0
C1458 C 0.42208 0.58195 0.79579 0.0
C1459 C 0.42683 0.59212 0.86619 0.0
C1460 C 0.43488 0.57697 0.76047 0.0
C1461 C 0.46443 0.57475 0.75774 0.0
C1462 C 0.43898 0.58448 0.82852 0.0
C1463 C 0.48035 0.57623 0.79133 0.0
C1464 C 0.44384 0.59181 0.89891 0.0
C1465 C 0.38789 0.60922 0.90295 0.0
N1466 N 0.46747 0.5811 0.82514 0.0
N1467 N 0.39939 0.60079 0.86929 0.0
H1468 H 0.15015 0.74938 0.53814 0.0
H1469 H 0.1184 0.60642 0.65209 0.0
H1470 H 0.15177 0.66733 0.48461 0.0
H1471 H 0.11184 0.69032 0.69952 0.0
H1472 H 0.13483 0.62709 0.59217 0.0
H1473 H 0.14147 0.72687 0.59904 0.0
C1474 C 0.14912 0.72651 0.53929 0.0
C1475 C 0.1516 0.71024 0.50612 0.0
C1476 C 0.12985 0.64093 0.61574 0.0
C1477 C 0.14102 0.68415 0.57615 0.0
C1478 C 0.12052 0.62916 0.65 0.0
C1479 C 0.11349 0.64666 0.68092 0.0
C1480 C 0.13238 0.67043 0.6124 0.0
C1481 C 0.11649 0.67599 0.67637 0.0
C1482 C 0.14399 0.71364 0.57416 0.0
C1483 C 0.15016 0.68068 0.50949 0.0
N1484 N 0.12565 0.68687 0.64289 0.0
N1485 N 0.14463 0.66857 0.54385 0.0
H1486 H 0.98423 0.39688 0.28898 0.0
H1487 H 0.1265 0.36134 0.40318 0.0
H1488 H 0.06603 0.39421 0.23496 0.0
H1489 H 0.04248 0.35764 0.45056 0.0
H1490 H 0.10621 0.3781 0.34306 0.0
H1491 H 0.00673 0.38845 0.35003 0.0
C1492 C 0.00706 0.39496 0.29006 0.0
C1493 C 0.02325 0.39613 0.25672 0.0
C1494 C 0.09227 0.37368 0.36668 0.0
C1495 C 0.04929 0.38582 0.32691 0.0
C1496 C 0.10382 0.36417 0.40103 0.0
C1497 C 0.08615 0.35781 0.43196 0.0
C1498 C 0.06284 0.37708 0.36328 0.0
C1499 C 0.05691 0.36173 0.42739 0.0
C1500 C 0.01991 0.38998 0.325 0.0
C1501 C 0.05276 0.39361 0.25997 0.0
N1502 N 0.04625 0.37105 0.39382 0.0
N1503 N 0.06484 0.38822 0.29442 0.0
loop_
_geom_bond_atom_site_label_1
_geom_bond_atom_site_label_2
_geom_bond_distance
_geom_bond_site_symmetry_2
_ccdc_geom_bond_type
Nd0 C2 2.836 . S
Nd0 O20 2.500 . S
Nd0 O21 2.492 . S
Nd0 O22 2.487 . S
Nd0 O23 2.682 1_655 S
Nd0 O24 2.410 1_655 S
Nd0 O29 2.414 . S
Nd0 O31 2.424 . S
Nd1 C11 2.836 . S
Nd1 O23 2.414 . S
Nd1 O25 2.424 . S
Nd1 O26 2.500 . S
Nd1 O27 2.492 . S
Nd1 O28 2.487 . S
Nd1 O29 2.682 1_455 S
Nd1 O30 2.410 1_455 S
C2 Nd0 2.836 . S
C2 C3 1.498 1_554 S
C2 O20 1.258 . S
C2 O21 1.239 . S
C3 C2 1.498 1_556 S
C3 C4 1.366 . S
C3 C8 1.407 . S
C4 C3 1.366 . S
C4 C5 1.392 . S
C4 H32 0.930 . S
C5 C4 1.392 . S
C5 C6 1.398 . S
C5 H33 0.929 . S
C6 C5 1.398 . S
C6 C7 1.352 . S
C7 C6 1.352 . S
C7 C8 1.384 . S
C7 H34 0.930 . S
C8 C3 1.407 . S
C8 C7 1.384 . S
C8 H35 0.929 . S
C9 O22 1.241 . S
C9 O23 1.273 1_655 S
C10 O24 1.251 . S
C10 O25 1.268 . S
C11 Nd1 2.836 . S
C11 C12 1.498 . S
C11 O26 1.258 . S
C11 O27 1.239 . S
C12 C11 1.498 . S
C12 C13 1.366 . S
C12 C17 1.407 . S
C13 C12 1.366 . S
C13 C14 1.392 . S
C13 H36 0.930 . S
C14 C13 1.392 . S
C14 C15 1.398 . S
C14 H37 0.929 . S
C15 C14 1.398 . S
C15 C16 1.352 . S
C16 C15 1.352 . S
C16 C17 1.384 . S
C16 H38 0.930 . S
C17 C12 1.407 . S
C17 C16 1.384 . S
C17 H39 0.929 . S
C18 O28 1.241 . S
C18 O29 1.273 1_455 S
C19 O30 1.251 . S
C19 O31 1.268 . S
O20 Nd0 2.500 . S
O20 C2 1.258 . S
O21 Nd0 2.492 . S
O21 C2 1.239 . S
O22 Nd0 2.487 . S
O22 C9 1.241 . S
O23 Nd0 2.682 1_455 S
O23 Nd1 2.414 . S
O23 C9 1.273 1_455 S
O24 Nd0 2.410 1_455 S
O24 C10 1.251 . S
O25 Nd1 2.424 . S
O25 C10 1.268 . S
O26 Nd1 2.500 . S
O26 C11 1.258 . S
O27 Nd1 2.492 . S
O27 C11 1.239 . S
O28 Nd1 2.487 . S
O28 C18 1.241 . S
O29 Nd0 2.414 . S
O29 Nd1 2.682 1_655 S
O29 C18 1.273 1_655 S
O30 Nd1 2.410 1_655 S
O30 C19 1.251 . S
O31 Nd0 2.424 . S
O31 C19 1.268 . S
H32 C4 0.930 . S
H33 C5 0.929 . S
H34 C7 0.930 . S
H35 C8 0.929 . S
H36 C13 0.930 . S
H37 C14 0.929 . S
H38 C16 0.930 . S
H39 C17 0.929 . S
Nd40 C42 2.836 . S
Nd40 O60 2.500 . S
Nd40 O61 2.492 . S
Nd40 O62 2.487 . S
Nd40 O63 2.682 . S
Nd40 O64 2.410 . S
Nd40 O69 2.414 . S
Nd40 O71 2.424 . S
Nd41 C51 2.836 . S
Nd41 O63 2.414 . S
Nd41 O65 2.424 . S
Nd41 O66 2.500 . S
Nd41 O67 2.492 . S
Nd41 O68 2.487 . S
Nd41 O69 2.682 . S
Nd41 O70 2.410 . S
C42 Nd40 2.836 . S
C42 C43 1.498 . S
C42 O60 1.258 . S
C42 O61 1.239 . S
C43 C42 1.498 . S
C43 C44 1.366 . S
C43 C48 1.407 . S
C44 C43 1.366 . S
C44 C45 1.392 . S
C44 H72 0.930 . S
C45 C44 1.392 . S
C45 C46 1.398 . S
C45 H73 0.929 . S
C46 C45 1.398 . S
C46 C47 1.352 . S
C47 C46 1.352 . S
C47 C48 1.384 . S
C47 H74 0.930 . S
C48 C43 1.407 . S
C48 C47 1.384 . S
C48 H75 0.929 . S
C49 O62 1.241 . S
C49 O63 1.273 . S
C50 O64 1.251 . S
C50 O65 1.268 . S
C51 Nd41 2.836 . S
C51 C52 1.498 . S
C51 O66 1.258 . S
C51 O67 1.239 . S
C52 C51 1.498 . S
C52 C53 1.366 . S
C52 C57 1.407 . S
C53 C52 1.366 . S
C53 C54 1.392 . S
C53 H76 0.930 . S
C54 C53 1.392 . S
C54 C55 1.398 . S
C54 H77 0.929 . S
C55 C54 1.398 . S
C55 C56 1.352 . S
C56 C55 1.352 . S
C56 C57 1.384 . S
C56 H78 0.930 . S
C57 C52 1.407 . S
C57 C56 1.384 . S
C57 H79 0.929 . S
C58 O68 1.241 . S
C58 O69 1.273 . S
C59 O70 1.251 . S
C59 O71 1.268 . S
O60 Nd40 2.500 . S
O60 C42 1.258 . S
O61 Nd40 2.492 . S
O61 C42 1.239 . S
O62 Nd40 2.487 . S
O62 C49 1.241 . S
O63 Nd40 2.682 . S
O63 Nd41 2.414 . S
O63 C49 1.273 . S
O64 Nd40 2.410 . S
O64 C50 1.251 . S
O65 Nd41 2.424 . S
O65 C50 1.268 . S
O66 Nd41 2.500 . S
O66 C51 1.258 . S
O67 Nd41 2.492 . S
O67 C51 1.239 . S
O68 Nd41 2.487 . S
O68 C58 1.241 . S
O69 Nd40 2.414 . S
O69 Nd41 2.682 . S
O69 C58 1.273 . S
O70 Nd41 2.410 . S
O70 C59 1.251 . S
O71 Nd40 2.424 . S
O71 C59 1.268 . S
H72 C44 0.930 . S
H73 C45 0.929 . S
H74 C47 0.930 . S
H75 C48 0.929 . S
H76 C53 0.930 . S
H77 C54 0.929 . S
H78 C56 0.930 . S
H79 C57 0.929 . S
Nd80 C82 2.836 . S
Nd80 O100 2.500 . S
Nd80 O101 2.492 . S
Nd80 O102 2.487 . S
Nd80 O103 2.682 . S
Nd80 O104 2.410 . S
Nd80 O109 2.414 . S
Nd80 O111 2.424 . S
Nd81 C91 2.836 . S
Nd81 O103 2.414 . S
Nd81 O105 2.424 . S
Nd81 O106 2.500 . S
Nd81 O107 2.492 . S
Nd81 O108 2.487 . S
Nd81 O109 2.682 . S
Nd81 O110 2.410 . S
C82 Nd80 2.836 . S
C82 C83 1.498 . S
C82 O100 1.258 . S
C82 O101 1.239 . S
C83 C82 1.498 . S
C83 C84 1.366 . S
C83 C88 1.407 . S
C84 C83 1.366 . S
C84 C85 1.392 . S
C84 H112 0.930 . S
C85 C84 1.392 . S
C85 C86 1.398 . S
C85 H113 0.929 . S
C86 C85 1.398 . S
C86 C87 1.352 . S
C87 C86 1.352 . S
C87 C88 1.384 . S
C87 H114 0.930 . S
C88 C83 1.407 . S
C88 C87 1.384 . S
C88 H115 0.929 . S
C89 O102 1.241 . S
C89 O103 1.273 . S
C90 O104 1.251 . S
C90 O105 1.268 . S
C91 Nd81 2.836 . S
C91 C92 1.498 . S
C91 O106 1.258 . S
C91 O107 1.239 . S
C92 C91 1.498 . S
C92 C93 1.366 . S
C92 C97 1.407 . S
C93 C92 1.366 . S
C93 C94 1.392 . S
C93 H116 0.930 . S
C94 C93 1.392 . S
C94 C95 1.398 . S
C94 H117 0.929 . S
C95 C94 1.398 . S
C95 C96 1.352 . S
C96 C95 1.352 . S
C96 C97 1.384 . S
C96 H118 0.930 . S
C97 C92 1.407 . S
C97 C96 1.384 . S
C97 H119 0.929 . S
C98 O108 1.241 . S
C98 O109 1.273 . S
C99 O110 1.251 . S
C99 O111 1.268 . S
O100 Nd80 2.500 . S
O100 C82 1.258 . S
O101 Nd80 2.492 . S
O101 C82 1.239 . S
O102 Nd80 2.487 . S
O102 C89 1.241 . S
O103 Nd80 2.682 . S
O103 Nd81 2.414 . S
O103 C89 1.273 . S
O104 Nd80 2.410 . S
O104 C90 1.251 . S
O105 Nd81 2.424 . S
O105 C90 1.268 . S
O106 Nd81 2.500 . S
O106 C91 1.258 . S
O107 Nd81 2.492 . S
O107 C91 1.239 . S
O108 Nd81 2.487 . S
O108 C98 1.241 . S
O109 Nd80 2.414 . S
O109 Nd81 2.682 . S
O109 C98 1.273 . S
O110 Nd81 2.410 . S
O110 C99 1.251 . S
O111 Nd80 2.424 . S
O111 C99 1.268 . S
H112 C84 0.930 . S
H113 C85 0.929 . S
H114 C87 0.930 . S
H115 C88 0.929 . S
H116 C93 0.930 . S
H117 C94 0.929 . S
H118 C96 0.930 . S
H119 C97 0.929 . S
Nd120 C122 2.836 . S
Nd120 O140 2.500 . S
Nd120 O141 2.492 . S
Nd120 O142 2.487 . S
Nd120 O143 2.682 . S
Nd120 O144 2.410 . S
Nd120 O149 2.414 . S
Nd120 O151 2.424 . S
Nd121 C131 2.836 . S
Nd121 O143 2.414 . S
Nd121 O145 2.424 . S
Nd121 O146 2.500 . S
Nd121 O147 2.492 . S
Nd121 O148 2.487 . S
Nd121 O149 2.682 . S
Nd121 O150 2.410 . S
C122 Nd120 2.836 . S
C122 C123 1.498 . S
C122 O140 1.258 . S
C122 O141 1.239 . S
C123 C122 1.498 . S
C123 C124 1.366 . S
C123 C128 1.407 . S
C124 C123 1.366 . S
C124 C125 1.392 . S
C124 H152 0.930 . S
C125 C124 1.392 . S
C125 C126 1.398 . S
C125 H153 0.929 . S
C126 C125 1.398 . S
C126 C127 1.352 . S
C127 C126 1.352 . S
C127 C128 1.384 . S
C127 H154 0.930 . S
C128 C123 1.407 . S
C128 C127 1.384 . S
C128 H155 0.929 . S
C129 O142 1.241 . S
C129 O143 1.273 . S
C130 O144 1.251 . S
C130 O145 1.268 . S
C131 Nd121 2.836 . S
C131 C132 1.498 1_556 S
C131 O146 1.258 . S
C131 O147 1.239 . S
C132 C131 1.498 1_554 S
C132 C133 1.366 . S
C132 C137 1.407 . S
C133 C132 1.366 . S
C133 C134 1.392 . S
C133 H156 0.930 . S
C134 C133 1.392 . S
C134 C135 1.398 . S
C134 H157 0.929 . S
C135 C134 1.398 . S
C135 C136 1.352 . S
C136 C135 1.352 . S
C136 C137 1.384 . S
C136 H158 0.930 . S
C137 C132 1.407 . S
C137 C136 1.384 . S
C137 H159 0.917 1_554 S
C138 O148 1.241 . S
C138 O149 1.273 . S
C139 O150 1.251 . S
C139 O151 1.268 . S
O140 Nd120 2.500 . S
O140 C122 1.258 . S
O141 Nd120 2.492 . S
O141 C122 1.239 . S
O142 Nd120 2.487 . S
O142 C129 1.241 . S
O143 Nd120 2.682 . S
O143 Nd121 2.414 . S
O143 C129 1.273 . S
O144 Nd120 2.410 . S
O144 C130 1.251 . S
O145 Nd121 2.424 . S
O145 C130 1.268 . S
O146 Nd121 2.500 . S
O146 C131 1.258 . S
O147 Nd121 2.492 . S
O147 C131 1.239 . S
O148 Nd121 2.487 . S
O148 C138 1.241 . S
O149 Nd120 2.414 . S
O149 Nd121 2.682 . S
O149 C138 1.273 . S
O150 Nd121 2.410 . S
O150 C139 1.251 . S
O151 Nd120 2.424 . S
O151 C139 1.268 . S
H152 C124 0.930 . S
H153 C125 0.929 . S
H154 C127 0.930 . S
H155 C128 0.929 . S
H156 C133 0.930 . S
H157 C134 0.929 . S
H158 C136 0.930 . S
H159 C137 0.917 1_556 S
Nd160 C162 2.836 . S
Nd160 O180 2.500 . S
Nd160 O181 2.492 . S
Nd160 O182 2.487 . S
Nd160 O183 2.682 1_655 S
Nd160 O184 2.410 1_655 S
Nd160 O189 2.414 1_655 S
Nd160 O191 2.424 . S
Nd161 C171 2.836 . S
Nd161 O183 2.414 . S
Nd161 O185 2.424 . S
Nd161 O186 2.500 . S
Nd161 O187 2.492 . S
Nd161 O188 2.487 . S
Nd161 O189 2.682 . S
Nd161 O190 2.410 . S
C162 Nd160 2.836 . S
C162 C163 1.498 . S
C162 O180 1.258 . S
C162 O181 1.239 . S
C163 C162 1.498 . S
C163 C164 1.366 . S
C163 C168 1.407 . S
C164 C163 1.366 . S
C164 C165 1.392 . S
C164 H192 0.930 . S
C165 C164 1.392 . S
C165 C166 1.398 . S
C165 H193 0.929 . S
C166 C165 1.398 . S
C166 C167 1.352 . S
C167 C166 1.352 . S
C167 C168 1.384 . S
C167 H194 0.930 . S
C168 C163 1.407 . S
C168 C167 1.384 . S
C168 H195 0.929 . S
C169 O182 1.241 1_455 S
C169 O183 1.273 . S
C170 O184 1.251 . S
C170 O185 1.268 . S
C171 Nd161 2.836 . S
C171 C172 1.498 1_556 S
C171 O186 1.258 . S
C171 O187 1.239 . S
C172 C171 1.498 1_554 S
C172 C173 1.366 . S
C172 C177 1.407 . S
C173 C172 1.366 . S
C173 C174 1.392 . S
C173 H196 0.930 . S
C174 C173 1.392 . S
C174 C175 1.398 . S
C174 H197 0.929 . S
C175 C174 1.398 . S
C175 C176 1.352 . S
C176 C175 1.352 . S
C176 C177 1.384 . S
C176 H198 0.930 . S
C177 C172 1.407 . S
C177 C176 1.384 . S
C177 H199 0.929 . S
C178 O188 1.241 . S
C178 O189 1.273 . S
C179 O190 1.251 1_655 S
C179 O191 1.268 . S
O180 Nd160 2.500 . S
O180 C162 1.258 . S
O181 Nd160 2.492 . S
O181 C162 1.239 . S
O182 Nd160 2.487 . S
O182 C169 1.241 1_655 S
O183 Nd160 2.682 1_455 S
O183 Nd161 2.414 . S
O183 C169 1.273 . S
O184 Nd160 2.410 1_455 S
O184 C170 1.251 . S
O185 Nd161 2.424 . S
O185 C170 1.268 . S
O186 Nd161 2.500 . S
O186 C171 1.258 . S
O187 Nd161 2.492 . S
O187 C171 1.239 . S
O188 Nd161 2.487 . S
O188 C178 1.241 . S
O189 Nd160 2.414 1_455 S
O189 Nd161 2.682 . S
O189 C178 1.273 . S
O190 Nd161 2.410 . S
O190 C179 1.251 1_455 S
O191 Nd160 2.424 . S
O191 C179 1.268 . S
H192 C164 0.930 . S
H193 C165 0.929 . S
H194 C167 0.930 . S
H195 C168 0.929 . S
H196 C173 0.930 . S
H197 C174 0.929 . S
H198 C176 0.930 . S
H199 C177 0.929 . S
Nd200 C202 2.836 . S
Nd200 O220 2.500 . S
Nd200 O221 2.492 . S
Nd200 O222 2.487 . S
Nd200 O223 2.682 . S
Nd200 O224 2.410 . S
Nd200 O229 2.414 . S
Nd200 O231 2.424 . S
Nd201 C211 2.836 . S
Nd201 O223 2.414 . S
Nd201 O225 2.424 . S
Nd201 O226 2.500 . S
Nd201 O227 2.492 . S
Nd201 O228 2.487 . S
Nd201 O229 2.682 . S
Nd201 O230 2.410 . S
C202 Nd200 2.836 . S
C202 C203 1.498 1_554 S
C202 O220 1.258 . S
C202 O221 1.239 . S
C203 C202 1.498 1_556 S
C203 C204 1.366 . S
C203 C208 1.407 . S
C204 C203 1.366 . S
C204 C205 1.392 . S
C204 H232 0.930 . S
C205 C204 1.392 . S
C205 C206 1.398 . S
C205 H233 0.929 . S
C206 C205 1.398 . S
C206 C207 1.352 . S
C207 C206 1.352 . S
C207 C208 1.384 . S
C207 H234 0.930 . S
C208 C203 1.407 . S
C208 C207 1.384 . S
C208 H235 0.917 1_556 S
C209 O222 1.241 . S
C209 O223 1.273 . S
C210 O224 1.251 . S
C210 O225 1.268 . S
C211 Nd201 2.836 . S
C211 C212 1.498 . S
C211 O226 1.258 . S
C211 O227 1.239 . S
C212 C211 1.498 . S
C212 C213 1.366 . S
C212 C217 1.407 . S
C213 C212 1.366 . S
C213 C214 1.392 . S
C213 H236 0.930 . S
C214 C213 1.392 . S
C214 C215 1.398 . S
C214 H237 0.929 . S
C215 C214 1.398 . S
C215 C216 1.352 . S
C216 C215 1.352 . S
C216 C217 1.384 . S
C216 H238 0.930 . S
C217 C212 1.407 . S
C217 C216 1.384 . S
C217 H239 0.929 . S
C218 O228 1.241 . S
C218 O229 1.273 . S
C219 O230 1.251 . S
C219 O231 1.268 . S
O220 Nd200 2.500 . S
O220 C202 1.258 . S
O221 Nd200 2.492 . S
O221 C202 1.239 . S
O222 Nd200 2.487 . S
O222 C209 1.241 . S
O223 Nd200 2.682 . S
O223 Nd201 2.414 . S
O223 C209 1.273 . S
O224 Nd200 2.410 . S
O224 C210 1.251 . S
O225 Nd201 2.424 . S
O225 C210 1.268 . S
O226 Nd201 2.500 . S
O226 C211 1.258 . S
O227 Nd201 2.492 . S
O227 C211 1.239 . S
O228 Nd201 2.487 . S
O228 C218 1.241 . S
O229 Nd200 2.414 . S
O229 Nd201 2.682 . S
O229 C218 1.273 . S
O230 Nd201 2.410 . S
O230 C219 1.251 . S
O231 Nd200 2.424 . S
O231 C219 1.268 . S
H232 C204 0.930 . S
H233 C205 0.929 . S
H234 C207 0.930 . S
H235 C208 0.917 1_554 S
H236 C213 0.930 . S
H237 C214 0.929 . S
H238 C216 0.930 . S
H239 C217 0.929 . S
Nd240 C242 2.836 . S
Nd240 O260 2.500 . S
Nd240 O261 2.492 . S
Nd240 O262 2.487 . S
Nd240 O263 2.682 . S
Nd240 O264 2.410 . S
Nd240 O269 2.414 . S
Nd240 O271 2.424 . S
Nd241 C251 2.836 . S
Nd241 O263 2.414 . S
Nd241 O265 2.424 . S
Nd241 O266 2.500 . S
Nd241 O267 2.492 . S
Nd241 O268 2.487 . S
Nd241 O269 2.682 . S
Nd241 O270 2.410 . S
C242 Nd240 2.836 . S
C242 C243 1.498 . S
C242 O260 1.258 . S
C242 O261 1.239 . S
C243 C242 1.498 . S
C243 C244 1.366 . S
C243 C248 1.407 . S
C244 C243 1.366 . S
C244 C245 1.392 . S
C244 H272 0.930 . S
C245 C244 1.392 . S
C245 C246 1.398 . S
C245 H273 0.929 . S
C246 C245 1.398 . S
C246 C247 1.352 . S
C247 C246 1.352 . S
C247 C248 1.384 . S
C247 H274 0.930 . S
C248 C243 1.407 . S
C248 C247 1.384 . S
C248 H275 0.929 . S
C249 O262 1.241 . S
C249 O263 1.273 . S
C250 O264 1.251 . S
C250 O265 1.268 . S
C251 Nd241 2.836 . S
C251 C252 1.498 . S
C251 O266 1.258 . S
C251 O267 1.239 . S
C252 C251 1.498 . S
C252 C253 1.366 . S
C252 C257 1.407 . S
C253 C252 1.366 . S
C253 C254 1.392 . S
C253 H276 0.930 . S
C254 C253 1.392 . S
C254 C255 1.398 . S
C254 H277 0.929 . S
C255 C254 1.398 . S
C255 C256 1.352 . S
C256 C255 1.352 . S
C256 C257 1.384 . S
C256 H278 0.930 . S
C257 C252 1.407 . S
C257 C256 1.384 . S
C257 H279 0.929 . S
C258 O268 1.241 . S
C258 O269 1.273 . S
C259 O270 1.251 . S
C259 O271 1.268 . S
O260 Nd240 2.500 . S
O260 C242 1.258 . S
O261 Nd240 2.492 . S
O261 C242 1.239 . S
O262 Nd240 2.487 . S
O262 C249 1.241 . S
O263 Nd240 2.682 . S
O263 Nd241 2.414 . S
O263 C249 1.273 . S
O264 Nd240 2.410 . S
O264 C250 1.251 . S
O265 Nd241 2.424 . S
O265 C250 1.268 . S
O266 Nd241 2.500 . S
O266 C251 1.258 . S
O267 Nd241 2.492 . S
O267 C251 1.239 . S
O268 Nd241 2.487 . S
O268 C258 1.241 . S
O269 Nd240 2.414 . S
O269 Nd241 2.682 . S
O269 C258 1.273 . S
O270 Nd241 2.410 . S
O270 C259 1.251 . S
O271 Nd240 2.424 . S
O271 C259 1.268 . S
H272 C244 0.930 . S
H273 C245 0.929 . S
H274 C247 0.930 . S
H275 C248 0.929 . S
H276 C253 0.930 . S
H277 C254 0.929 . S
H278 C256 0.930 . S
H279 C257 0.929 . S
Nd280 C282 2.836 . S
Nd280 O300 2.500 . S
Nd280 O301 2.492 . S
Nd280 O302 2.487 . S
Nd280 O303 2.682 . S
Nd280 O304 2.410 . S
Nd280 O309 2.414 . S
Nd280 O311 2.424 . S
Nd281 C291 2.836 . S
Nd281 O303 2.414 . S
Nd281 O305 2.424 . S
Nd281 O306 2.500 . S
Nd281 O307 2.492 . S
Nd281 O308 2.487 . S
Nd281 O309 2.682 . S
Nd281 O310 2.410 . S
C282 Nd280 2.836 . S
C282 C283 1.498 . S
C282 O300 1.258 . S
C282 O301 1.239 . S
C283 C282 1.498 . S
C283 C284 1.366 . S
C283 C288 1.407 . S
C284 C283 1.366 . S
C284 C285 1.392 . S
C284 H312 0.930 . S
C285 C284 1.392 . S
C285 C286 1.398 . S
C285 H313 0.929 . S
C286 C285 1.398 . S
C286 C287 1.352 . S
C287 C286 1.352 . S
C287 C288 1.384 . S
C287 H314 0.930 . S
C288 C283 1.407 . S
C288 C287 1.384 . S
C288 H315 0.929 . S
C289 O302 1.241 . S
C289 O303 1.273 . S
C290 O304 1.251 . S
C290 O305 1.268 . S
C291 Nd281 2.836 . S
C291 C292 1.498 . S
C291 O306 1.258 . S
C291 O307 1.239 . S
C292 C291 1.498 . S
C292 C293 1.366 . S
C292 C297 1.407 . S
C293 C292 1.366 . S
C293 C294 1.392 . S
C293 H316 0.930 . S
C294 C293 1.392 . S
C294 C295 1.398 . S
C294 H317 0.929 . S
C295 C294 1.398 . S
C295 C296 1.352 . S
C296 C295 1.352 . S
C296 C297 1.384 . S
C296 H318 0.930 . S
C297 C292 1.407 . S
C297 C296 1.384 . S
C297 H319 0.929 . S
C298 O308 1.241 . S
C298 O309 1.273 . S
C299 O310 1.251 . S
C299 O311 1.268 . S
O300 Nd280 2.500 . S
O300 C282 1.258 . S
O301 Nd280 2.492 . S
O301 C282 1.239 . S
O302 Nd280 2.487 . S
O302 C289 1.241 . S
O303 Nd280 2.682 . S
O303 Nd281 2.414 . S
O303 C289 1.273 . S
O304 Nd280 2.410 . S
O304 C290 1.251 . S
O305 Nd281 2.424 . S
O305 C290 1.268 . S
O306 Nd281 2.500 . S
O306 C291 1.258 . S
O307 Nd281 2.492 . S
O307 C291 1.239 . S
O308 Nd281 2.487 . S
O308 C298 1.241 . S
O309 Nd280 2.414 . S
O309 Nd281 2.682 . S
O309 C298 1.273 . S
O310 Nd281 2.410 . S
O310 C299 1.251 . S
O311 Nd280 2.424 . S
O311 C299 1.268 . S
H312 C284 0.930 . S
H313 C285 0.929 . S
H314 C287 0.930 . S
H315 C288 0.929 . S
H316 C293 0.930 . S
H317 C294 0.929 . S
H318 C296 0.930 . S
H319 C297 0.929 . S
Nd320 C322 2.836 . S
Nd320 O340 2.500 . S
Nd320 O341 2.492 . S
Nd320 O342 2.487 . S
Nd320 O343 2.682 . S
Nd320 O344 2.410 . S
Nd320 O349 2.414 . S
Nd320 O351 2.424 . S
Nd321 C331 2.836 . S
Nd321 O343 2.414 . S
Nd321 O345 2.424 . S
Nd321 O346 2.500 . S
Nd321 O347 2.492 . S
Nd321 O348 2.487 . S
Nd321 O349 2.682 . S
Nd321 O350 2.410 . S
C322 Nd320 2.836 . S
C322 C323 1.498 . S
C322 O340 1.258 . S
C322 O341 1.239 . S
C323 C322 1.498 . S
C323 C324 1.366 . S
C323 C328 1.407 . S
C324 C323 1.366 . S
C324 C325 1.392 . S
C324 H352 0.930 . S
C325 C324 1.392 . S
C325 C326 1.398 . S
C325 H353 0.929 . S
C326 C325 1.398 . S
C326 C327 1.352 . S
C327 C326 1.352 . S
C327 C328 1.384 . S
C327 H354 0.930 . S
C328 C323 1.407 . S
C328 C327 1.384 . S
C328 H355 0.929 . S
C329 O342 1.241 . S
C329 O343 1.273 . S
C330 O344 1.251 . S
C330 O345 1.268 . S
C331 Nd321 2.836 . S
C331 C332 1.498 . S
C331 O346 1.258 . S
C331 O347 1.239 . S
C332 C331 1.498 . S
C332 C333 1.366 . S
C332 C337 1.407 . S
C333 C332 1.366 . S
C333 C334 1.392 . S
C333 H356 0.930 . S
C334 C333 1.392 . S
C334 C335 1.398 . S
C334 H357 0.929 . S
C335 C334 1.398 . S
C335 C336 1.352 . S
C336 C335 1.352 . S
C336 C337 1.384 . S
C336 H358 0.930 . S
C337 C332 1.407 . S
C337 C336 1.384 . S
C337 H359 0.929 . S
C338 O348 1.241 . S
C338 O349 1.273 . S
C339 O350 1.251 . S
C339 O351 1.268 . S
O340 Nd320 2.500 . S
O340 C322 1.258 . S
O341 Nd320 2.492 . S
O341 C322 1.239 . S
O342 Nd320 2.487 . S
O342 C329 1.241 . S
O343 Nd320 2.682 . S
O343 Nd321 2.414 . S
O343 C329 1.273 . S
O344 Nd320 2.410 . S
O344 C330 1.251 . S
O345 Nd321 2.424 . S
O345 C330 1.268 . S
O346 Nd321 2.500 . S
O346 C331 1.258 . S
O347 Nd321 2.492 . S
O347 C331 1.239 . S
O348 Nd321 2.487 . S
O348 C338 1.241 . S
O349 Nd320 2.414 . S
O349 Nd321 2.682 . S
O349 C338 1.273 . S
O350 Nd321 2.410 . S
O350 C339 1.251 . S
O351 Nd320 2.424 . S
O351 C339 1.268 . S
H352 C324 0.930 . S
H353 C325 0.929 . S
H354 C327 0.930 . S
H355 C328 0.929 . S
H356 C333 0.930 . S
H357 C334 0.929 . S
H358 C336 0.930 . S
H359 C337 0.929 . S
Nd360 C362 2.836 . S
Nd360 O380 2.500 . S
Nd360 O381 2.492 . S
Nd360 O382 2.487 . S
Nd360 O383 2.682 . S
Nd360 O384 2.410 . S
Nd360 O389 2.414 . S
Nd360 O391 2.424 . S
Nd361 C371 2.836 . S
Nd361 O383 2.414 . S
Nd361 O385 2.424 . S
Nd361 O386 2.500 . S
Nd361 O387 2.492 . S
Nd361 O388 2.487 . S
Nd361 O389 2.682 . S
Nd361 O390 2.410 . S
C362 Nd360 2.836 . S
C362 C363 1.498 1_554 S
C362 O380 1.258 . S
C362 O381 1.239 . S
C363 C362 1.498 1_556 S
C363 C364 1.366 . S
C363 C368 1.407 . S
C364 C363 1.366 . S
C364 C365 1.392 . S
C364 H392 0.930 . S
C365 C364 1.392 . S
C365 C366 1.398 . S
C365 H393 0.929 . S
C366 C365 1.398 . S
C366 C367 1.352 . S
C367 C366 1.352 . S
C367 C368 1.384 . S
C367 H394 0.930 . S
C368 C363 1.407 . S
C368 C367 1.384 . S
C368 H395 0.917 1_556 S
C369 O382 1.241 . S
C369 O383 1.273 . S
C370 O384 1.251 . S
C370 O385 1.268 . S
C371 Nd361 2.836 . S
C371 C372 1.498 . S
C371 O386 1.258 . S
C371 O387 1.239 . S
C372 C371 1.498 . S
C372 C373 1.366 . S
C372 C377 1.407 . S
C373 C372 1.366 . S
C373 C374 1.392 . S
C373 H396 0.930 . S
C374 C373 1.392 . S
C374 C375 1.398 . S
C374 H397 0.929 . S
C375 C374 1.398 . S
C375 C376 1.352 . S
C376 C375 1.352 . S
C376 C377 1.384 . S
C376 H398 0.930 . S
C377 C372 1.407 . S
C377 C376 1.384 . S
C377 H399 0.929 . S
C378 O388 1.241 . S
C378 O389 1.273 . S
C379 O390 1.251 . S
C379 O391 1.268 . S
O380 Nd360 2.500 . S
O380 C362 1.258 . S
O381 Nd360 2.492 . S
O381 C362 1.239 . S
O382 Nd360 2.487 . S
O382 C369 1.241 . S
O383 Nd360 2.682 . S
O383 Nd361 2.414 . S
O383 C369 1.273 . S
O384 Nd360 2.410 . S
O384 C370 1.251 . S
O385 Nd361 2.424 . S
O385 C370 1.268 . S
O386 Nd361 2.500 . S
O386 C371 1.258 . S
O387 Nd361 2.492 . S
O387 C371 1.239 . S
O388 Nd361 2.487 . S
O388 C378 1.241 . S
O389 Nd360 2.414 . S
O389 Nd361 2.682 . S
O389 C378 1.273 . S
O390 Nd361 2.410 . S
O390 C379 1.251 . S
O391 Nd360 2.424 . S
O391 C379 1.268 . S
H392 C364 0.930 . S
H393 C365 0.929 . S
H394 C367 0.930 . S
H395 C368 0.917 1_554 S
H396 C373 0.930 . S
H397 C374 0.929 . S
H398 C376 0.930 . S
H399 C377 0.929 . S
Nd400 C402 2.836 . S
Nd400 O420 2.500 . S
Nd400 O421 2.492 . S
Nd400 O422 2.487 . S
Nd400 O423 2.682 . S
Nd400 O424 2.410 . S
Nd400 O429 2.414 . S
Nd400 O431 2.424 . S
Nd401 C411 2.836 . S
Nd401 O423 2.414 . S
Nd401 O425 2.424 . S
Nd401 O426 2.500 . S
Nd401 O427 2.492 . S
Nd401 O428 2.487 . S
Nd401 O429 2.682 . S
Nd401 O430 2.410 . S
C402 Nd400 2.836 . S
C402 C403 1.498 . S
C402 O420 1.258 . S
C402 O421 1.239 . S
C403 C402 1.498 . S
C403 C404 1.366 . S
C403 C408 1.407 . S
C404 C403 1.366 . S
C404 C405 1.392 . S
C404 H432 0.930 . S
C405 C404 1.392 . S
C405 C406 1.398 . S
C405 H433 0.929 . S
C406 C405 1.398 . S
C406 C407 1.352 . S
C407 C406 1.352 . S
C407 C408 1.384 . S
C407 H434 0.930 . S
C408 C403 1.407 . S
C408 C407 1.384 . S
C408 H435 0.929 . S
C409 O422 1.241 . S
C409 O423 1.273 . S
C410 O424 1.251 . S
C410 O425 1.268 . S
C411 Nd401 2.836 . S
C411 C412 1.498 1_556 S
C411 O426 1.258 . S
C411 O427 1.239 . S
C412 C411 1.498 1_554 S
C412 C413 1.366 . S
C412 C417 1.407 . S
C413 C412 1.366 . S
C413 C414 1.392 . S
C413 H436 0.930 . S
C414 C413 1.392 . S
C414 C415 1.398 . S
C414 H437 0.929 . S
C415 C414 1.398 . S
C415 C416 1.352 . S
C416 C415 1.352 . S
C416 C417 1.384 . S
C416 H438 0.930 . S
C417 C412 1.407 . S
C417 C416 1.384 . S
C417 H439 0.917 1_554 S
C418 O428 1.241 . S
C418 O429 1.273 . S
C419 O430 1.251 . S
C419 O431 1.268 . S
O420 Nd400 2.500 . S
O420 C402 1.258 . S
O421 Nd400 2.492 . S
O421 C402 1.239 . S
O422 Nd400 2.487 . S
O422 C409 1.241 . S
O423 Nd400 2.682 . S
O423 Nd401 2.414 . S
O423 C409 1.273 . S
O424 Nd400 2.410 . S
O424 C410 1.251 . S
O425 Nd401 2.424 . S
O425 C410 1.268 . S
O426 Nd401 2.500 . S
O426 C411 1.258 . S
O427 Nd401 2.492 . S
O427 C411 1.239 . S
O428 Nd401 2.487 . S
O428 C418 1.241 . S
O429 Nd400 2.414 . S
O429 Nd401 2.682 . S
O429 C418 1.273 . S
O430 Nd401 2.410 . S
O430 C419 1.251 . S
O431 Nd400 2.424 . S
O431 C419 1.268 . S
H432 C404 0.930 . S
H433 C405 0.929 . S
H434 C407 0.930 . S
H435 C408 0.929 . S
H436 C413 0.930 . S
H437 C414 0.929 . S
H438 C416 0.930 . S
H439 C417 0.917 1_556 S
Nd440 C442 2.836 . S
Nd440 O460 2.500 . S
Nd440 O461 2.492 . S
Nd440 O462 2.487 . S
Nd440 O463 2.682 . S
Nd440 O464 2.410 . S
Nd440 O469 2.414 . S
Nd440 O471 2.424 . S
Nd441 C451 2.836 . S
Nd441 O463 2.414 . S
Nd441 O465 2.424 . S
Nd441 O466 2.500 . S
Nd441 O467 2.492 . S
Nd441 O468 2.487 . S
Nd441 O469 2.682 . S
Nd441 O470 2.410 . S
C442 Nd440 2.836 . S
C442 C443 1.498 . S
C442 O460 1.258 . S
C442 O461 1.239 . S
C443 C442 1.498 . S
C443 C444 1.366 . S
C443 C448 1.407 . S
C444 C443 1.366 . S
C444 C445 1.392 . S
C444 H472 0.930 . S
C445 C444 1.392 . S
C445 C446 1.398 . S
C445 H473 0.929 . S
C446 C445 1.398 . S
C446 C447 1.352 . S
C447 C446 1.352 . S
C447 C448 1.384 . S
C447 H474 0.930 . S
C448 C443 1.407 . S
C448 C447 1.384 . S
C448 H475 0.929 . S
C449 O462 1.241 . S
C449 O463 1.273 . S
C450 O464 1.251 . S
C450 O465 1.268 . S
C451 Nd441 2.836 . S
C451 C452 1.498 . S
C451 O466 1.258 . S
C451 O467 1.239 . S
C452 C451 1.498 . S
C452 C453 1.366 . S
C452 C457 1.407 . S
C453 C452 1.366 . S
C453 C454 1.392 . S
C453 H476 0.930 . S
C454 C453 1.392 . S
C454 C455 1.398 . S
C454 H477 0.929 . S
C455 C454 1.398 . S
C455 C456 1.352 . S
C456 C455 1.352 . S
C456 C457 1.384 . S
C456 H478 0.930 . S
C457 C452 1.407 . S
C457 C456 1.384 . S
C457 H479 0.929 . S
C458 O468 1.241 . S
C458 O469 1.273 . S
C459 O470 1.251 . S
C459 O471 1.268 . S
O460 Nd440 2.500 . S
O460 C442 1.258 . S
O461 Nd440 2.492 . S
O461 C442 1.239 . S
O462 Nd440 2.487 . S
O462 C449 1.241 . S
O463 Nd440 2.682 . S
O463 Nd441 2.414 . S
O463 C449 1.273 . S
O464 Nd440 2.410 . S
O464 C450 1.251 . S
O465 Nd441 2.424 . S
O465 C450 1.268 . S
O466 Nd441 2.500 . S
O466 C451 1.258 . S
O467 Nd441 2.492 . S
O467 C451 1.239 . S
O468 Nd441 2.487 . S
O468 C458 1.241 . S
O469 Nd440 2.414 . S
O469 Nd441 2.682 . S
O469 C458 1.273 . S
O470 Nd441 2.410 . S
O470 C459 1.251 . S
O471 Nd440 2.424 . S
O471 C459 1.268 . S
H472 C444 0.930 . S
H473 C445 0.929 . S
H474 C447 0.930 . S
H475 C448 0.929 . S
H476 C453 0.930 . S
H477 C454 0.929 . S
H478 C456 0.930 . S
H479 C457 0.929 . S
Nd480 C482 2.836 . S
Nd480 O500 2.500 . S
Nd480 O501 2.492 . S
Nd480 O502 2.487 . S
Nd480 O503 2.682 . S
Nd480 O504 2.410 . S
Nd480 O509 2.414 . S
Nd480 O511 2.424 . S
Nd481 C491 2.836 . S
Nd481 O503 2.414 . S
Nd481 O505 2.424 . S
Nd481 O506 2.500 . S
Nd481 O507 2.492 . S
Nd481 O508 2.487 . S
Nd481 O509 2.682 . S
Nd481 O510 2.410 . S
C482 Nd480 2.836 . S
C482 C483 1.498 . S
C482 O500 1.258 . S
C482 O501 1.239 . S
C483 C482 1.498 . S
C483 C484 1.366 . S
C483 C488 1.407 . S
C484 C483 1.366 . S
C484 C485 1.392 . S
C484 H512 0.930 . S
C485 C484 1.392 . S
C485 C486 1.398 . S
C485 H513 0.929 . S
C486 C485 1.398 . S
C486 C487 1.352 . S
C487 C486 1.352 . S
C487 C488 1.384 . S
C487 H514 0.930 . S
C488 C483 1.407 . S
C488 C487 1.384 . S
C488 H515 0.929 . S
C489 O502 1.241 . S
C489 O503 1.273 . S
C490 O504 1.251 . S
C490 O505 1.268 . S
C491 Nd481 2.836 . S
C491 C492 1.498 . S
C491 O506 1.258 . S
C491 O507 1.239 . S
C492 C491 1.498 . S
C492 C493 1.366 . S
C492 C497 1.407 . S
C493 C492 1.366 . S
C493 C494 1.392 . S
C493 H516 0.930 . S
C494 C493 1.392 . S
C494 C495 1.398 . S
C494 H517 0.929 . S
C495 C494 1.398 . S
C495 C496 1.352 . S
C496 C495 1.352 . S
C496 C497 1.384 . S
C496 H518 0.930 . S
C497 C492 1.407 . S
C497 C496 1.384 . S
C497 H519 0.929 . S
C498 O508 1.241 . S
C498 O509 1.273 . S
C499 O510 1.251 . S
C499 O511 1.268 . S
O500 Nd480 2.500 . S
O500 C482 1.258 . S
O501 Nd480 2.492 . S
O501 C482 1.239 . S
O502 Nd480 2.487 . S
O502 C489 1.241 . S
O503 Nd480 2.682 . S
O503 Nd481 2.414 . S
O503 C489 1.273 . S
O504 Nd480 2.410 . S
O504 C490 1.251 . S
O505 Nd481 2.424 . S
O505 C490 1.268 . S
O506 Nd481 2.500 . S
O506 C491 1.258 . S
O507 Nd481 2.492 . S
O507 C491 1.239 . S
O508 Nd481 2.487 . S
O508 C498 1.241 . S
O509 Nd480 2.414 . S
O509 Nd481 2.682 . S
O509 C498 1.273 . S
O510 Nd481 2.410 . S
O510 C499 1.251 . S
O511 Nd480 2.424 . S
O511 C499 1.268 . S
H512 C484 0.930 . S
H513 C485 0.929 . S
H514 C487 0.930 . S
H515 C488 0.929 . S
H516 C493 0.930 . S
H517 C494 0.929 . S
H518 C496 0.930 . S
H519 C497 0.929 . S
Nd520 C522 2.836 . S
Nd520 O540 2.500 . S
Nd520 O541 2.492 . S
Nd520 O542 2.487 . S
Nd520 O543 2.682 . S
Nd520 O544 2.410 . S
Nd520 O549 2.414 . S
Nd520 O551 2.424 . S
Nd521 C531 2.836 . S
Nd521 O543 2.414 1_655 S
Nd521 O545 2.424 . S
Nd521 O546 2.500 . S
Nd521 O547 2.492 . S
Nd521 O548 2.487 . S
Nd521 O549 2.682 1_655 S
Nd521 O550 2.410 1_655 S
C522 Nd520 2.836 . S
C522 C523 1.498 1_554 S
C522 O540 1.258 . S
C522 O541 1.239 . S
C523 C522 1.498 1_556 S
C523 C524 1.366 . S
C523 C528 1.407 . S
C524 C523 1.366 . S
C524 C525 1.392 . S
C524 H552 0.930 . S
C525 C524 1.392 . S
C525 C526 1.398 . S
C525 H553 0.929 . S
C526 C525 1.398 . S
C526 C527 1.352 . S
C527 C526 1.352 . S
C527 C528 1.384 . S
C527 H554 0.930 . S
C528 C523 1.407 . S
C528 C527 1.384 . S
C528 H555 0.929 . S
C529 O542 1.241 . S
C529 O543 1.273 . S
C530 O544 1.251 1_655 S
C530 O545 1.268 . S
C531 Nd521 2.836 . S
C531 C532 1.498 . S
C531 O546 1.258 . S
C531 O547 1.239 . S
C532 C531 1.498 . S
C532 C533 1.366 . S
C532 C537 1.407 . S
C533 C532 1.366 . S
C533 C534 1.392 . S
C533 H556 0.930 . S
C534 C533 1.392 . S
C534 C535 1.398 . S
C534 H557 0.929 . S
C535 C534 1.398 . S
C535 C536 1.352 . S
C536 C535 1.352 . S
C536 C537 1.384 . S
C536 H558 0.930 . S
C537 C532 1.407 . S
C537 C536 1.384 . S
C537 H559 0.929 . S
C538 O548 1.241 1_455 S
C538 O549 1.273 . S
C539 O550 1.251 . S
C539 O551 1.268 . S
O540 Nd520 2.500 . S
O540 C522 1.258 . S
O541 Nd520 2.492 . S
O541 C522 1.239 . S
O542 Nd520 2.487 . S
O542 C529 1.241 . S
O543 Nd520 2.682 . S
O543 Nd521 2.414 1_455 S
O543 C529 1.273 . S
O544 Nd520 2.410 . S
O544 C530 1.251 1_455 S
O545 Nd521 2.424 . S
O545 C530 1.268 . S
O546 Nd521 2.500 . S
O546 C531 1.258 . S
O547 Nd521 2.492 . S
O547 C531 1.239 . S
O548 Nd521 2.487 . S
O548 C538 1.241 1_655 S
O549 Nd520 2.414 . S
O549 Nd521 2.682 1_455 S
O549 C538 1.273 . S
O550 Nd521 2.410 1_455 S
O550 C539 1.251 . S
O551 Nd520 2.424 . S
O551 C539 1.268 . S
H552 C524 0.930 . S
H553 C525 0.929 . S
H554 C527 0.930 . S
H555 C528 0.929 . S
H556 C533 0.930 . S
H557 C534 0.929 . S
H558 C536 0.930 . S
H559 C537 0.929 . S
Nd560 C562 2.836 . S
Nd560 O580 2.500 . S
Nd560 O581 2.492 . S
Nd560 O582 2.487 . S
Nd560 O583 2.682 . S
Nd560 O584 2.410 . S
Nd560 O589 2.414 . S
Nd560 O591 2.424 . S
Nd561 C571 2.836 . S
Nd561 O583 2.414 . S
Nd561 O585 2.424 . S
Nd561 O586 2.500 . S
Nd561 O587 2.492 . S
Nd561 O588 2.487 . S
Nd561 O589 2.682 . S
Nd561 O590 2.410 . S
C562 Nd560 2.836 . S
C562 C563 1.498 . S
C562 O580 1.258 . S
C562 O581 1.239 . S
C563 C562 1.498 . S
C563 C564 1.366 . S
C563 C568 1.407 . S
C564 C563 1.366 . S
C564 C565 1.392 . S
C564 H592 0.930 . S
C565 C564 1.392 . S
C565 C566 1.398 . S
C565 H593 0.929 . S
C566 C565 1.398 . S
C566 C567 1.352 . S
C567 C566 1.352 . S
C567 C568 1.384 . S
C567 H594 0.930 . S
C568 C563 1.407 . S
C568 C567 1.384 . S
C568 H595 0.929 . S
C569 O582 1.241 . S
C569 O583 1.273 . S
C570 O584 1.251 . S
C570 O585 1.268 . S
C571 Nd561 2.836 . S
C571 C572 1.498 . S
C571 O586 1.258 . S
C571 O587 1.239 . S
C572 C571 1.498 . S
C572 C573 1.366 . S
C572 C577 1.407 . S
C573 C572 1.366 . S
C573 C574 1.392 . S
C573 H596 0.930 . S
C574 C573 1.392 . S
C574 C575 1.398 . S
C574 H597 0.929 . S
C575 C574 1.398 . S
C575 C576 1.352 . S
C576 C575 1.352 . S
C576 C577 1.384 . S
C576 H598 0.930 . S
C577 C572 1.407 . S
C577 C576 1.384 . S
C577 H599 0.929 . S
C578 O588 1.241 . S
C578 O589 1.273 . S
C579 O590 1.251 . S
C579 O591 1.268 . S
O580 Nd560 2.500 . S
O580 C562 1.258 . S
O581 Nd560 2.492 . S
O581 C562 1.239 . S
O582 Nd560 2.487 . S
O582 C569 1.241 . S
O583 Nd560 2.682 . S
O583 Nd561 2.414 . S
O583 C569 1.273 . S
O584 Nd560 2.410 . S
O584 C570 1.251 . S
O585 Nd561 2.424 . S
O585 C570 1.268 . S
O586 Nd561 2.500 . S
O586 C571 1.258 . S
O587 Nd561 2.492 . S
O587 C571 1.239 . S
O588 Nd561 2.487 . S
O588 C578 1.241 . S
O589 Nd560 2.414 . S
O589 Nd561 2.682 . S
O589 C578 1.273 . S
O590 Nd561 2.410 . S
O590 C579 1.251 . S
O591 Nd560 2.424 . S
O591 C579 1.268 . S
H592 C564 0.930 . S
H593 C565 0.929 . S
H594 C567 0.930 . S
H595 C568 0.929 . S
H596 C573 0.930 . S
H597 C574 0.929 . S
H598 C576 0.930 . S
H599 C577 0.929 . S
Nd600 C602 2.836 . S
Nd600 O620 2.500 . S
Nd600 O621 2.492 . S
Nd600 O622 2.487 . S
Nd600 O623 2.682 1_455 S
Nd600 O624 2.410 1_455 S
Nd600 O629 2.414 . S
Nd600 O631 2.424 . S
Nd601 C611 2.836 . S
Nd601 O623 2.414 . S
Nd601 O625 2.424 . S
Nd601 O626 2.500 . S
Nd601 O627 2.492 . S
Nd601 O628 2.487 . S
Nd601 O629 2.682 1_655 S
Nd601 O630 2.410 1_655 S
C602 Nd600 2.836 . S
C602 C603 1.498 . S
C602 O620 1.258 . S
C602 O621 1.239 . S
C603 C602 1.498 . S
C603 C604 1.366 . S
C603 C608 1.407 . S
C604 C603 1.366 . S
C604 C605 1.392 . S
C604 H632 0.930 . S
C605 C604 1.392 . S
C605 C606 1.398 . S
C605 H633 0.929 . S
C606 C605 1.398 . S
C606 C607 1.352 . S
C607 C606 1.352 . S
C607 C608 1.384 . S
C607 H634 0.930 . S
C608 C603 1.407 . S
C608 C607 1.384 . S
C608 H635 0.929 . S
C609 O622 1.241 . S
C609 O623 1.273 1_455 S
C610 O624 1.251 . S
C610 O625 1.268 . S
C611 Nd601 2.836 . S
C611 C612 1.498 1_556 S
C611 O626 1.258 . S
C611 O627 1.239 . S
C612 C611 1.498 1_554 S
C612 C613 1.366 . S
C612 C617 1.407 . S
C613 C612 1.366 . S
C613 C614 1.392 . S
C613 H636 0.930 . S
C614 C613 1.392 . S
C614 C615 1.398 . S
C614 H637 0.929 . S
C615 C614 1.398 . S
C615 C616 1.352 . S
C616 C615 1.352 . S
C616 C617 1.384 . S
C616 H638 0.930 . S
C617 C612 1.407 . S
C617 C616 1.384 . S
C617 H639 0.929 . S
C618 O628 1.241 . S
C618 O629 1.273 1_655 S
C619 O630 1.251 . S
C619 O631 1.268 . S
O620 Nd600 2.500 . S
O620 C602 1.258 . S
O621 Nd600 2.492 . S
O621 C602 1.239 . S
O622 Nd600 2.487 . S
O622 C609 1.241 . S
O623 Nd600 2.682 1_655 S
O623 Nd601 2.414 . S
O623 C609 1.273 1_655 S
O624 Nd600 2.410 1_655 S
O624 C610 1.251 . S
O625 Nd601 2.424 . S
O625 C610 1.268 . S
O626 Nd601 2.500 . S
O626 C611 1.258 . S
O627 Nd601 2.492 . S
O627 C611 1.239 . S
O628 Nd601 2.487 . S
O628 C618 1.241 . S
O629 Nd600 2.414 . S
O629 Nd601 2.682 1_455 S
O629 C618 1.273 1_455 S
O630 Nd601 2.410 1_455 S
O630 C619 1.251 . S
O631 Nd600 2.424 . S
O631 C619 1.268 . S
H632 C604 0.930 . S
H633 C605 0.929 . S
H634 C607 0.930 . S
H635 C608 0.929 . S
H636 C613 0.930 . S
H637 C614 0.929 . S
H638 C616 0.930 . S
H639 C617 0.929 . S
H640 C646 0.930 . S
H641 C650 0.930 . S
H642 C655 0.929 . S
H643 C653 0.929 . S
H644 C648 0.929 . S
H645 C654 0.929 . S
C646 H640 0.930 . S
C646 C647 1.367 1_556 S
C646 C654 1.378 . S
C647 C646 1.367 1_554 S
C647 C655 1.433 . S
C648 H644 0.929 . S
C648 C650 1.378 . S
C648 C652 1.350 . S
C649 C652 1.463 . S
C649 C654 1.350 . S
C649 N657 1.427 . S
C650 H641 0.930 . S
C650 C648 1.378 . S
C650 C651 1.367 . S
C651 C650 1.367 . S
C651 C653 1.433 . S
C652 C648 1.350 . S
C652 C649 1.463 . S
C652 N656 1.427 . S
C653 H643 0.929 . S
C653 C651 1.433 . S
C653 N656 1.384 . S
C654 H645 0.929 . S
C654 C646 1.378 . S
C654 C649 1.350 . S
C655 H642 0.929 . S
C655 C647 1.433 . S
C655 N657 1.384 1_554 S
N656 C652 1.427 . S
N656 C653 1.384 . S
N657 C649 1.427 . S
N657 C655 1.384 1_556 S
H658 C664 0.930 . S
H659 C668 0.930 . S
H660 C673 0.929 . S
H661 C671 0.929 . S
H662 C666 0.929 . S
H663 C672 0.929 . S
C664 H658 0.930 . S
C664 C665 1.367 . S
C664 C672 1.378 . S
C665 C664 1.367 . S
C665 C673 1.433 . S
C666 H662 0.929 . S
C666 C668 1.378 . S
C666 C670 1.350 . S
C667 C670 1.463 . S
C667 C672 1.350 . S
C667 N675 1.427 . S
C668 H659 0.930 . S
C668 C666 1.378 . S
C668 C669 1.367 . S
C669 C668 1.367 . S
C669 C671 1.433 . S
C670 C666 1.350 . S
C670 C667 1.463 . S
C670 N674 1.427 . S
C671 H661 0.929 . S
C671 C669 1.433 . S
C671 N674 1.384 . S
C672 H663 0.929 . S
C672 C664 1.378 . S
C672 C667 1.350 . S
C673 H660 0.929 . S
C673 C665 1.433 . S
C673 N675 1.384 . S
N674 C670 1.427 . S
N674 C671 1.384 . S
N675 C667 1.427 . S
N675 C673 1.384 . S
H676 C682 0.930 . S
H677 C686 0.930 . S
H678 C691 0.929 . S
H679 C689 0.929 . S
H680 C684 0.929 . S
H681 C690 0.929 . S
C682 H676 0.930 . S
C682 C683 1.367 . S
C682 C690 1.378 . S
C683 C682 1.367 . S
C683 C691 1.433 . S
C684 H680 0.929 . S
C684 C686 1.378 . S
C684 C688 1.350 . S
C685 C688 1.463 . S
C685 C690 1.350 . S
C685 N693 1.427 . S
C686 H677 0.930 . S
C686 C684 1.378 . S
C686 C687 1.367 . S
C687 C686 1.367 . S
C687 C689 1.433 . S
C688 C684 1.350 . S
C688 C685 1.463 . S
C688 N692 1.427 . S
C689 H679 0.929 . S
C689 C687 1.433 . S
C689 N692 1.384 . S
C690 H681 0.929 . S
C690 C682 1.378 . S
C690 C685 1.350 . S
C691 H678 0.929 . S
C691 C683 1.433 . S
C691 N693 1.384 . S
N692 C688 1.427 . S
N692 C689 1.384 . S
N693 C685 1.427 . S
N693 C691 1.384 . S
H694 C700 0.930 . S
H695 C704 0.930 . S
H696 C709 0.929 . S
H697 C707 0.929 . S
H698 C702 0.929 . S
H699 C708 0.929 . S
C700 H694 0.930 . S
C700 C701 1.367 . S
C700 C708 1.378 . S
C701 C700 1.367 . S
C701 C709 1.433 . S
C702 H698 0.929 . S
C702 C704 1.378 . S
C702 C706 1.350 . S
C703 C706 1.463 . S
C703 C708 1.350 . S
C703 N711 1.427 . S
C704 H695 0.930 . S
C704 C702 1.378 . S
C704 C705 1.367 . S
C705 C704 1.367 . S
C705 C707 1.433 . S
C706 C702 1.350 . S
C706 C703 1.463 . S
C706 N710 1.427 . S
C707 H697 0.929 . S
C707 C705 1.433 . S
C707 N710 1.384 . S
C708 H699 0.929 . S
C708 C700 1.378 . S
C708 C703 1.350 . S
C709 H696 0.929 . S
C709 C701 1.433 . S
C709 N711 1.384 . S
N710 C706 1.427 . S
N710 C707 1.384 . S
N711 C703 1.427 . S
N711 C709 1.384 . S
H712 C718 0.930 . S
H713 C722 0.930 . S
H714 C727 0.929 . S
H715 C725 0.929 . S
H716 C720 0.929 . S
H717 C726 0.929 . S
C718 H712 0.930 . S
C718 C719 1.367 . S
C718 C726 1.378 . S
C719 C718 1.367 . S
C719 C727 1.433 . S
C720 H716 0.929 . S
C720 C722 1.378 . S
C720 C724 1.350 . S
C721 C724 1.463 . S
C721 C726 1.350 . S
C721 N729 1.427 . S
C722 H713 0.930 . S
C722 C720 1.378 . S
C722 C723 1.367 1_554 S
C723 C722 1.367 1_556 S
C723 C725 1.433 . S
C724 C720 1.350 . S
C724 C721 1.463 . S
C724 N728 1.427 . S
C725 H715 0.929 . S
C725 C723 1.433 . S
C725 N728 1.384 1_556 S
C726 H717 0.929 . S
C726 C718 1.378 . S
C726 C721 1.350 . S
C727 H714 0.929 . S
C727 C719 1.433 . S
C727 N729 1.384 . S
N728 C724 1.427 . S
N728 C725 1.384 1_554 S
N729 C721 1.427 . S
N729 C727 1.384 . S
H730 C736 0.930 . S
H731 C740 0.930 . S
H732 C745 0.929 . S
H733 C743 0.929 . S
H734 C738 0.929 . S
H735 C744 0.929 . S
C736 H730 0.930 . S
C736 C737 1.367 . S
C736 C744 1.378 . S
C737 C736 1.367 . S
C737 C745 1.433 . S
C738 H734 0.929 . S
C738 C740 1.378 . S
C738 C742 1.350 . S
C739 C742 1.463 . S
C739 C744 1.350 . S
C739 N747 1.427 . S
C740 H731 0.930 . S
C740 C738 1.378 . S
C740 C741 1.367 . S
C741 C740 1.367 . S
C741 C743 1.433 . S
C742 C738 1.350 . S
C742 C739 1.463 . S
C742 N746 1.427 . S
C743 H733 0.929 . S
C743 C741 1.433 . S
C743 N746 1.384 . S
C744 H735 0.929 . S
C744 C736 1.378 . S
C744 C739 1.350 . S
C745 H732 0.929 . S
C745 C737 1.433 . S
C745 N747 1.384 . S
N746 C742 1.427 . S
N746 C743 1.384 . S
N747 C739 1.427 . S
N747 C745 1.384 . S
H748 C754 0.930 . S
H749 C758 0.930 . S
H750 C763 0.929 . S
H751 C761 0.929 . S
H752 C756 0.929 . S
H753 C762 0.929 . S
C754 H748 0.930 . S
C754 C755 1.367 . S
C754 C762 1.378 . S
C755 C754 1.367 . S
C755 C763 1.433 . S
C756 H752 0.929 . S
C756 C758 1.378 . S
C756 C760 1.350 . S
C757 C760 1.463 . S
C757 C762 1.350 . S
C757 N765 1.427 . S
C758 H749 0.930 . S
C758 C756 1.378 . S
C758 C759 1.367 . S
C759 C758 1.367 . S
C759 C761 1.433 . S
C760 C756 1.350 . S
C760 C757 1.463 . S
C760 N764 1.427 . S
C761 H751 0.929 . S
C761 C759 1.433 . S
C761 N764 1.384 . S
C762 H753 0.929 . S
C762 C754 1.378 . S
C762 C757 1.350 . S
C763 H750 0.929 . S
C763 C755 1.433 . S
C763 N765 1.384 . S
N764 C760 1.427 . S
N764 C761 1.384 . S
N765 C757 1.427 . S
N765 C763 1.384 . S
H766 C772 0.930 . S
H767 C776 0.930 . S
H768 C781 0.929 . S
H769 C779 0.929 . S
H770 C774 0.929 . S
H771 C780 0.929 . S
C772 H766 0.930 . S
C772 C773 1.367 . S
C772 C780 1.378 . S
C773 C772 1.367 . S
C773 C781 1.433 . S
C774 H770 0.929 . S
C774 C776 1.378 . S
C774 C778 1.350 . S
C775 C778 1.463 . S
C775 C780 1.350 . S
C775 N783 1.427 . S
C776 H767 0.930 . S
C776 C774 1.378 . S
C776 C777 1.367 . S
C777 C776 1.367 . S
C777 C779 1.433 . S
C778 C774 1.350 . S
C778 C775 1.463 . S
C778 N782 1.427 . S
C779 H769 0.929 . S
C779 C777 1.433 . S
C779 N782 1.384 . S
C780 H771 0.929 . S
C780 C772 1.378 . S
C780 C775 1.350 . S
C781 H768 0.929 . S
C781 C773 1.433 . S
C781 N783 1.384 . S
N782 C778 1.427 . S
N782 C779 1.384 . S
N783 C775 1.427 . S
N783 C781 1.384 . S
H784 C790 0.930 . S
H785 C794 0.930 . S
H786 C799 0.929 . S
H787 C797 0.929 . S
H788 C792 0.929 . S
H789 C798 0.929 . S
C790 H784 0.930 . S
C790 C791 1.367 . S
C790 C798 1.378 . S
C791 C790 1.367 . S
C791 C799 1.433 . S
C792 H788 0.929 . S
C792 C794 1.378 . S
C792 C796 1.350 . S
C793 C796 1.463 . S
C793 C798 1.350 . S
C793 N801 1.427 . S
C794 H785 0.930 . S
C794 C792 1.378 . S
C794 C795 1.367 . S
C795 C794 1.367 . S
C795 C797 1.433 . S
C796 C792 1.350 . S
C796 C793 1.463 . S
C796 N800 1.427 . S
C797 H787 0.929 . S
C797 C795 1.433 . S
C797 N800 1.384 . S
C798 H789 0.929 . S
C798 C790 1.378 . S
C798 C793 1.350 . S
C799 H786 0.929 . S
C799 C791 1.433 . S
C799 N801 1.384 . S
N800 C796 1.427 . S
N800 C797 1.384 . S
N801 C793 1.427 . S
N801 C799 1.384 . S
H802 C808 0.930 . S
H803 C812 0.930 . S
H804 C817 0.929 . S
H805 C815 0.929 . S
H806 C810 0.929 . S
H807 C816 0.929 . S
C808 H802 0.930 . S
C808 C809 1.367 . S
C808 C816 1.378 . S
C809 C808 1.367 . S
C809 C817 1.433 . S
C810 H806 0.929 . S
C810 C812 1.378 . S
C810 C814 1.350 . S
C811 C814 1.463 . S
C811 C816 1.350 . S
C811 N819 1.427 . S
C812 H803 0.930 . S
C812 C810 1.378 . S
C812 C813 1.367 . S
C813 C812 1.367 . S
C813 C815 1.433 . S
C814 C810 1.350 . S
C814 C811 1.463 . S
C814 N818 1.427 . S
C815 H805 0.929 . S
C815 C813 1.433 . S
C815 N818 1.384 . S
C816 H807 0.929 . S
C816 C808 1.378 . S
C816 C811 1.350 . S
C817 H804 0.929 . S
C817 C809 1.433 . S
C817 N819 1.384 . S
N818 C814 1.427 . S
N818 C815 1.384 . S
N819 C811 1.427 . S
N819 C817 1.384 . S
H820 C826 0.930 . S
H821 C830 0.930 . S
H822 C835 0.929 . S
H823 C833 0.929 . S
H824 C828 0.929 . S
H825 C834 0.929 . S
C826 H820 0.930 . S
C826 C827 1.367 . S
C826 C834 1.378 1_554 S
C827 C826 1.367 . S
C827 C835 1.433 . S
C828 H824 0.929 . S
C828 C830 1.378 . S
C828 C832 1.350 . S
C829 C832 1.463 . S
C829 C834 1.350 . S
C829 N837 1.427 . S
C830 H821 0.930 . S
C830 C828 1.378 . S
C830 C831 1.367 . S
C831 C830 1.367 . S
C831 C833 1.433 . S
C832 C828 1.350 . S
C832 C829 1.463 . S
C832 N836 1.427 . S
C833 H823 0.929 . S
C833 C831 1.433 . S
C833 N836 1.384 . S
C834 H825 0.929 . S
C834 C826 1.378 1_556 S
C834 C829 1.350 . S
C835 H822 0.929 . S
C835 C827 1.433 . S
C835 N837 1.384 1_554 S
N836 C832 1.427 . S
N836 C833 1.384 . S
N837 C829 1.427 . S
N837 C835 1.384 1_556 S
H838 C844 0.930 . S
H839 C848 0.930 . S
H840 C853 0.929 . S
H841 C851 0.929 . S
H842 C846 0.929 . S
H843 C852 0.929 . S
C844 H838 0.930 . S
C844 C845 1.367 . S
C844 C852 1.378 . S
C845 C844 1.367 . S
C845 C853 1.433 . S
C846 H842 0.929 . S
C846 C848 1.378 . S
C846 C850 1.350 . S
C847 C850 1.463 . S
C847 C852 1.350 . S
C847 N855 1.427 . S
C848 H839 0.930 . S
C848 C846 1.378 . S
C848 C849 1.367 . S
C849 C848 1.367 . S
C849 C851 1.433 . S
C850 C846 1.350 . S
C850 C847 1.463 . S
C850 N854 1.427 . S
C851 H841 0.929 . S
C851 C849 1.433 . S
C851 N854 1.384 . S
C852 H843 0.929 . S
C852 C844 1.378 . S
C852 C847 1.350 . S
C853 H840 0.929 . S
C853 C845 1.433 . S
C853 N855 1.384 . S
N854 C850 1.427 . S
N854 C851 1.384 . S
N855 C847 1.427 . S
N855 C853 1.384 . S
H856 C862 0.930 . S
H857 C866 0.930 . S
H858 C871 0.929 . S
H859 C869 0.929 . S
H860 C864 0.929 . S
H861 C870 0.929 . S
C862 H856 0.930 . S
C862 C863 1.367 . S
C862 C870 1.378 . S
C863 C862 1.367 . S
C863 C871 1.433 . S
C864 H860 0.929 . S
C864 C866 1.378 . S
C864 C868 1.350 . S
C865 C868 1.463 . S
C865 C870 1.350 . S
C865 N873 1.427 . S
C866 H857 0.930 . S
C866 C864 1.378 . S
C866 C867 1.367 . S
C867 C866 1.367 . S
C867 C869 1.433 . S
C868 C864 1.350 . S
C868 C865 1.463 . S
C868 N872 1.427 . S
C869 H859 0.929 . S
C869 C867 1.433 . S
C869 N872 1.384 . S
C870 H861 0.929 . S
C870 C862 1.378 . S
C870 C865 1.350 . S
C871 H858 0.929 . S
C871 C863 1.433 . S
C871 N873 1.384 . S
N872 C868 1.427 . S
N872 C869 1.384 . S
N873 C865 1.427 . S
N873 C871 1.384 . S
H874 C880 0.930 . S
H875 C884 0.930 . S
H876 C889 0.929 . S
H877 C887 0.929 . S
H878 C882 0.929 . S
H879 C888 0.929 . S
C880 H874 0.930 . S
C880 C881 1.367 . S
C880 C888 1.378 . S
C881 C880 1.367 . S
C881 C889 1.433 . S
C882 H878 0.929 . S
C882 C884 1.378 . S
C882 C886 1.350 . S
C883 C886 1.463 . S
C883 C888 1.350 . S
C883 N891 1.427 . S
C884 H875 0.930 . S
C884 C882 1.378 . S
C884 C885 1.367 . S
C885 C884 1.367 . S
C885 C887 1.433 . S
C886 C882 1.350 . S
C886 C883 1.463 . S
C886 N890 1.427 . S
C887 H877 0.929 . S
C887 C885 1.433 . S
C887 N890 1.384 . S
C888 H879 0.929 . S
C888 C880 1.378 . S
C888 C883 1.350 . S
C889 H876 0.929 . S
C889 C881 1.433 . S
C889 N891 1.384 . S
N890 C886 1.427 . S
N890 C887 1.384 . S
N891 C883 1.427 . S
N891 C889 1.384 . S
H892 C898 0.930 . S
H893 C902 0.930 . S
H894 C907 0.929 . S
H895 C905 0.929 . S
H896 C900 0.929 . S
H897 C906 0.929 . S
C898 H892 0.930 . S
C898 C899 1.367 . S
C898 C906 1.378 . S
C899 C898 1.367 . S
C899 C907 1.433 . S
C900 H896 0.929 . S
C900 C902 1.378 1_554 S
C900 C904 1.350 . S
C901 C904 1.463 . S
C901 C906 1.350 . S
C901 N909 1.427 . S
C902 H893 0.930 . S
C902 C900 1.378 1_556 S
C902 C903 1.367 . S
C903 C902 1.367 . S
C903 C905 1.433 1_556 S
C904 C900 1.350 . S
C904 C901 1.463 . S
C904 N908 1.427 . S
C905 H895 0.929 . S
C905 C903 1.433 1_554 S
C905 N908 1.384 . S
C906 H897 0.929 . S
C906 C898 1.378 . S
C906 C901 1.350 . S
C907 H894 0.929 . S
C907 C899 1.433 . S
C907 N909 1.384 . S
N908 C904 1.427 . S
N908 C905 1.384 . S
N909 C901 1.427 . S
N909 C907 1.384 . S
H910 C916 0.930 . S
H911 C920 0.930 . S
H912 C925 0.929 . S
H913 C923 0.929 . S
H914 C918 0.929 . S
H915 C924 0.929 . S
C916 H910 0.930 . S
C916 C917 1.367 . S
C916 C924 1.378 . S
C917 C916 1.367 . S
C917 C925 1.433 . S
C918 H914 0.929 . S
C918 C920 1.378 . S
C918 C922 1.350 . S
C919 C922 1.463 . S
C919 C924 1.350 . S
C919 N927 1.427 . S
C920 H911 0.930 . S
C920 C918 1.378 . S
C920 C921 1.367 . S
C921 C920 1.367 . S
C921 C923 1.433 . S
C922 C918 1.350 . S
C922 C919 1.463 . S
C922 N926 1.427 . S
C923 H913 0.929 . S
C923 C921 1.433 . S
C923 N926 1.384 . S
C924 H915 0.929 . S
C924 C916 1.378 . S
C924 C919 1.350 . S
C925 H912 0.929 . S
C925 C917 1.433 . S
C925 N927 1.384 . S
N926 C922 1.427 . S
N926 C923 1.384 . S
N927 C919 1.427 . S
N927 C925 1.384 . S
H928 C934 0.930 . S
H929 C938 0.930 . S
H930 C943 0.929 1_655 S
H931 C941 0.929 . S
H932 C936 0.929 . S
H933 C942 0.929 . S
C934 H928 0.930 . S
C934 C935 1.367 . S
C934 C942 1.378 . S
C935 C934 1.367 . S
C935 C943 1.433 . S
C936 H932 0.929 . S
C936 C938 1.378 . S
C936 C940 1.350 1_655 S
C937 C940 1.463 . S
C937 C942 1.350 . S
C937 N945 1.437 . S
C938 H929 0.930 . S
C938 C936 1.378 . S
C938 C939 1.367 1_655 S
C939 C938 1.367 1_455 S
C939 C941 1.433 . S
C940 C936 1.350 1_455 S
C940 C937 1.463 . S
C940 N944 1.427 . S
C941 H931 0.929 . S
C941 C939 1.433 . S
C941 N944 1.384 . S
C942 H933 0.929 . S
C942 C934 1.378 . S
C942 C937 1.350 . S
C943 H930 0.929 1_455 S
C943 C935 1.433 . S
C943 N945 1.386 . S
N944 C940 1.427 . S
N944 C941 1.384 . S
N945 C937 1.437 . S
N945 C943 1.386 . S
H946 C952 0.930 . S
H947 C956 0.930 . S
H948 C961 0.929 . S
H949 C959 0.929 . S
H950 C954 0.929 . S
H951 C960 0.929 . S
C952 H946 0.930 . S
C952 C953 1.367 . S
C952 C960 1.378 . S
C953 C952 1.367 . S
C953 C961 1.433 . S
C954 H950 0.929 . S
C954 C956 1.378 . S
C954 C958 1.350 . S
C955 C958 1.463 1_655 S
C955 C960 1.350 . S
C955 N963 1.427 . S
C956 H947 0.930 . S
C956 C954 1.378 . S
C956 C957 1.367 . S
C957 C956 1.367 . S
C957 C959 1.433 . S
C958 C954 1.350 . S
C958 C955 1.463 1_455 S
C958 N962 1.427 . S
C959 H949 0.929 . S
C959 C957 1.433 . S
C959 N962 1.384 . S
C960 H951 0.929 . S
C960 C952 1.378 . S
C960 C955 1.350 . S
C961 H948 0.929 . S
C961 C953 1.433 . S
C961 N963 1.384 . S
N962 C958 1.427 . S
N962 C959 1.384 . S
N963 C955 1.427 . S
N963 C961 1.384 . S
H964 C970 0.930 . S
H965 C974 0.930 . S
H966 C979 0.929 . S
H967 C977 0.929 . S
H968 C972 0.929 . S
H969 C978 0.929 . S
C970 H964 0.930 . S
C970 C971 1.367 . S
C970 C978 1.378 . S
C971 C970 1.367 . S
C971 C979 1.433 . S
C972 H968 0.929 . S
C972 C974 1.378 . S
C972 C976 1.350 . S
C973 C976 1.463 . S
C973 C978 1.350 . S
C973 N981 1.427 . S
C974 H965 0.930 . S
C974 C972 1.378 . S
C974 C975 1.367 . S
C975 C974 1.367 . S
C975 C977 1.433 . S
C976 C972 1.350 . S
C976 C973 1.463 . S
C976 N980 1.427 . S
C977 H967 0.929 . S
C977 C975 1.433 . S
C977 N980 1.384 . S
C978 H969 0.929 . S
C978 C970 1.378 . S
C978 C973 1.350 . S
C979 H966 0.929 . S
C979 C971 1.433 . S
C979 N981 1.384 . S
N980 C976 1.427 . S
N980 C977 1.384 . S
N981 C973 1.427 . S
N981 C979 1.384 . S
H982 C988 0.930 . S
H983 C992 0.930 . S
H984 C997 0.929 . S
H985 C995 0.929 . S
H986 C990 0.929 . S
H987 C996 0.929 . S
C988 H982 0.930 . S
C988 C989 1.367 . S
C988 C996 1.378 . S
C989 C988 1.367 . S
C989 C997 1.433 . S
C990 H986 0.929 . S
C990 C992 1.378 . S
C990 C994 1.350 . S
C991 C994 1.463 . S
C991 C996 1.350 . S
C991 N999 1.427 . S
C992 H983 0.930 . S
C992 C990 1.378 . S
C992 C993 1.367 . S
C993 C992 1.367 . S
C993 C995 1.433 . S
C994 C990 1.350 . S
C994 C991 1.463 . S
C994 N998 1.427 . S
C995 H985 0.929 . S
C995 C993 1.433 . S
C995 N998 1.384 . S
C996 H987 0.929 . S
C996 C988 1.378 . S
C996 C991 1.350 . S
C997 H984 0.929 . S
C997 C989 1.433 . S
C997 N999 1.384 . S
N998 C994 1.427 . S
N998 C995 1.384 . S
N999 C991 1.427 . S
N999 C997 1.384 . S
H1000 C1006 0.930 . S
H1001 C1010 0.930 . S
H1002 C1015 0.929 1_655 S
H1003 C1013 0.929 . S
H1004 C1008 0.929 . S
H1005 C1014 0.929 . S
C1006 H1000 0.930 . S
C1006 C1007 1.367 . S
C1006 C1014 1.378 . S
C1007 C1006 1.367 . S
C1007 C1015 1.433 . S
C1008 H1004 0.929 . S
C1008 C1010 1.378 . S
C1008 C1012 1.350 1_655 S
C1009 C1012 1.463 . S
C1009 C1014 1.350 . S
C1009 N1017 1.427 1_455 S
C1010 H1001 0.930 . S
C1010 C1008 1.378 . S
C1010 C1011 1.367 1_655 S
C1011 C1010 1.367 1_455 S
C1011 C1013 1.433 . S
C1012 C1008 1.350 1_455 S
C1012 C1009 1.463 . S
C1012 N1016 1.427 . S
C1013 H1003 0.929 . S
C1013 C1011 1.433 . S
C1013 N1016 1.384 . S
C1014 H1005 0.929 . S
C1014 C1006 1.378 . S
C1014 C1009 1.350 . S
C1015 H1002 0.929 1_455 S
C1015 C1007 1.433 . S
C1015 N1017 1.384 1_455 S
N1016 C1012 1.427 . S
N1016 C1013 1.384 . S
N1017 C1009 1.427 1_655 S
N1017 C1015 1.384 1_655 S
H1018 C1024 0.930 . S
H1019 C1028 0.930 . S
H1020 C1033 0.929 . S
H1021 C1031 0.929 . S
H1022 C1026 0.929 . S
H1023 C1032 0.929 . S
C1024 H1018 0.930 . S
C1024 C1025 1.367 . S
C1024 C1032 1.378 . S
C1025 C1024 1.367 . S
C1025 C1033 1.433 . S
C1026 H1022 0.929 . S
C1026 C1028 1.378 . S
C1026 C1030 1.350 . S
C1027 C1030 1.463 . S
C1027 C1032 1.350 . S
C1027 N1035 1.427 . S
C1028 H1019 0.930 . S
C1028 C1026 1.378 . S
C1028 C1029 1.367 . S
C1029 C1028 1.367 . S
C1029 C1031 1.433 . S
C1030 C1026 1.350 . S
C1030 C1027 1.463 . S
C1030 N1034 1.427 . S
C1031 H1021 0.929 . S
C1031 C1029 1.433 . S
C1031 N1034 1.384 . S
C1032 H1023 0.929 . S
C1032 C1024 1.378 . S
C1032 C1027 1.350 . S
C1033 H1020 0.929 . S
C1033 C1025 1.433 . S
C1033 N1035 1.384 . S
N1034 C1030 1.427 . S
N1034 C1031 1.384 . S
N1035 C1027 1.427 . S
N1035 C1033 1.384 . S
H1036 C1042 0.930 . S
H1037 C1046 0.930 . S
H1038 C1051 0.929 . S
H1039 C1049 0.929 . S
H1040 C1044 0.929 . S
H1041 C1050 0.929 . S
C1042 H1036 0.930 . S
C1042 C1043 1.367 . S
C1042 C1050 1.378 . S
C1043 C1042 1.367 . S
C1043 C1051 1.433 . S
C1044 H1040 0.929 . S
C1044 C1046 1.378 . S
C1044 C1048 1.350 . S
C1045 C1048 1.463 . S
C1045 C1050 1.350 . S
C1045 N1053 1.427 . S
C1046 H1037 0.930 . S
C1046 C1044 1.378 . S
C1046 C1047 1.367 . S
C1047 C1046 1.367 . S
C1047 C1049 1.433 . S
C1048 C1044 1.350 . S
C1048 C1045 1.463 . S
C1048 N1052 1.427 . S
C1049 H1039 0.929 . S
C1049 C1047 1.433 . S
C1049 N1052 1.384 . S
C1050 H1041 0.929 . S
C1050 C1042 1.378 . S
C1050 C1045 1.350 . S
C1051 H1038 0.929 . S
C1051 C1043 1.433 . S
C1051 N1053 1.384 . S
N1052 C1048 1.427 . S
N1052 C1049 1.384 . S
N1053 C1045 1.427 . S
N1053 C1051 1.384 . S
H1054 C1060 0.930 . S
H1055 C1064 0.930 . S
H1056 C1069 0.929 . S
H1057 C1067 0.929 . S
H1058 C1062 0.929 . S
H1059 C1068 0.929 . S
C1060 H1054 0.930 . S
C1060 C1061 1.367 . S
C1060 C1068 1.378 . S
C1061 C1060 1.367 . S
C1061 C1069 1.433 . S
C1062 H1058 0.929 . S
C1062 C1064 1.378 . S
C1062 C1066 1.350 . S
C1063 C1066 1.463 1_455 S
C1063 C1068 1.350 . S
C1063 N1071 1.427 . S
C1064 H1055 0.930 . S
C1064 C1062 1.378 . S
C1064 C1065 1.367 . S
C1065 C1064 1.367 . S
C1065 C1067 1.433 . S
C1066 C1062 1.350 . S
C1066 C1063 1.463 1_655 S
C1066 N1070 1.427 . S
C1067 H1057 0.929 . S
C1067 C1065 1.433 . S
C1067 N1070 1.384 . S
C1068 H1059 0.929 . S
C1068 C1060 1.378 . S
C1068 C1063 1.350 . S
C1069 H1056 0.929 . S
C1069 C1061 1.433 . S
C1069 N1071 1.384 . S
N1070 C1066 1.427 . S
N1070 C1067 1.384 . S
N1071 C1063 1.427 . S
N1071 C1069 1.384 . S
H1072 C1078 0.930 . S
H1073 C1082 0.930 . S
H1074 C1087 0.929 . S
H1075 C1085 0.930 1_655 S
H1076 C1080 0.929 . S
H1077 C1086 0.929 . S
C1078 H1072 0.930 . S
C1078 C1079 1.367 1_655 S
C1078 C1086 1.378 1_545 S
C1079 C1078 1.367 1_455 S
C1079 C1087 1.433 . S
C1080 H1076 0.929 . S
C1080 C1082 1.378 1_545 S
C1080 C1084 1.350 1_545 S
C1081 C1084 1.463 1_544 S
C1081 C1086 1.350 1_445 S
C1081 N1089 1.427 . S
C1082 H1073 0.930 . S
C1082 C1080 1.378 1_565 S
C1082 C1083 1.367 . S
C1083 C1082 1.367 . S
C1083 C1085 1.433 . S
C1084 C1080 1.350 1_565 S
C1084 C1081 1.463 1_566 S
C1084 N1088 1.427 1_455 S
C1085 H1075 0.930 1_455 S
C1085 C1083 1.433 . S
C1085 N1088 1.384 1_455 S
C1086 H1077 0.929 . S
C1086 C1078 1.378 1_565 S
C1086 C1081 1.350 1_665 S
C1087 H1074 0.929 . S
C1087 C1079 1.433 . S
C1087 N1089 1.384 . S
N1088 C1084 1.427 1_655 S
N1088 C1085 1.384 1_655 S
N1089 C1081 1.427 . S
N1089 C1087 1.384 . S
H1090 C1096 0.930 . S
H1091 C1100 0.930 . S
H1092 C1105 0.929 . S
H1093 C1103 0.929 . S
H1094 C1098 0.929 . S
H1095 C1104 0.929 . S
C1096 H1090 0.930 . S
C1096 C1097 1.367 . S
C1096 C1104 1.378 . S
C1097 C1096 1.367 . S
C1097 C1105 1.433 . S
C1098 H1094 0.929 . S
C1098 C1100 1.378 . S
C1098 C1102 1.350 . S
C1099 C1102 1.463 . S
C1099 C1104 1.350 . S
C1099 N1107 1.427 . S
C1100 H1091 0.930 . S
C1100 C1098 1.378 . S
C1100 C1101 1.367 . S
C1101 C1100 1.367 . S
C1101 C1103 1.433 . S
C1102 C1098 1.350 . S
C1102 C1099 1.463 . S
C1102 N1106 1.427 . S
C1103 H1093 0.929 . S
C1103 C1101 1.433 . S
C1103 N1106 1.384 . S
C1104 H1095 0.929 . S
C1104 C1096 1.378 . S
C1104 C1099 1.350 . S
C1105 H1092 0.929 . S
C1105 C1097 1.433 . S
C1105 N1107 1.384 . S
N1106 C1102 1.427 . S
N1106 C1103 1.384 . S
N1107 C1099 1.427 . S
N1107 C1105 1.384 . S
H1108 C1114 0.930 . S
H1109 C1118 0.930 . S
H1110 C1123 0.929 . S
H1111 C1121 0.929 . S
H1112 C1116 0.929 . S
H1113 C1122 0.929 . S
C1114 H1108 0.930 . S
C1114 C1115 1.367 . S
C1114 C1122 1.378 . S
C1115 C1114 1.367 . S
C1115 C1123 1.433 . S
C1116 H1112 0.929 . S
C1116 C1118 1.378 . S
C1116 C1120 1.350 . S
C1117 C1120 1.463 1_545 S
C1117 C1122 1.350 . S
C1117 N1125 1.427 . S
C1118 H1109 0.930 . S
C1118 C1116 1.378 . S
C1118 C1119 1.367 . S
C1119 C1118 1.367 . S
C1119 C1121 1.433 . S
C1120 C1116 1.350 . S
C1120 C1117 1.463 1_565 S
C1120 N1124 1.427 . S
C1121 H1111 0.929 . S
C1121 C1119 1.433 . S
C1121 N1124 1.384 . S
C1122 H1113 0.929 . S
C1122 C1114 1.378 . S
C1122 C1117 1.350 . S
C1123 H1110 0.929 . S
C1123 C1115 1.433 . S
C1123 N1125 1.384 . S
N1124 C1120 1.427 . S
N1124 C1121 1.384 . S
N1125 C1117 1.427 . S
N1125 C1123 1.384 . S
H1126 C1132 0.930 . S
H1127 C1136 0.930 . S
H1128 C1141 0.929 . S
H1129 C1139 0.929 . S
H1130 C1134 0.929 . S
H1131 C1140 0.929 . S
C1132 H1126 0.930 . S
C1132 C1133 1.367 . S
C1132 C1140 1.378 . S
C1133 C1132 1.367 . S
C1133 C1141 1.433 . S
C1134 H1130 0.929 . S
C1134 C1136 1.378 . S
C1134 C1138 1.350 . S
C1135 C1138 1.463 . S
C1135 C1140 1.350 . S
C1135 N1143 1.427 . S
C1136 H1127 0.930 . S
C1136 C1134 1.378 . S
C1136 C1137 1.367 . S
C1137 C1136 1.367 . S
C1137 C1139 1.433 . S
C1138 C1134 1.350 . S
C1138 C1135 1.463 . S
C1138 N1142 1.427 . S
C1139 H1129 0.929 . S
C1139 C1137 1.433 . S
C1139 N1142 1.384 . S
C1140 H1131 0.929 . S
C1140 C1132 1.378 . S
C1140 C1135 1.350 . S
C1141 H1128 0.929 . S
C1141 C1133 1.433 . S
C1141 N1143 1.384 . S
N1142 C1138 1.427 . S
N1142 C1139 1.384 . S
N1143 C1135 1.427 . S
N1143 C1141 1.384 . S
H1144 C1150 0.930 . S
H1145 C1154 0.930 . S
H1146 C1159 0.929 . S
H1147 C1157 0.929 . S
H1148 C1152 0.929 . S
H1149 C1158 0.929 . S
C1150 H1144 0.930 . S
C1150 C1151 1.367 . S
C1150 C1158 1.378 . S
C1151 C1150 1.367 . S
C1151 C1159 1.433 . S
C1152 H1148 0.929 . S
C1152 C1154 1.378 . S
C1152 C1156 1.350 . S
C1153 C1156 1.463 . S
C1153 C1158 1.350 . S
C1153 N1161 1.427 . S
C1154 H1145 0.930 . S
C1154 C1152 1.378 . S
C1154 C1155 1.367 . S
C1155 C1154 1.367 . S
C1155 C1157 1.433 . S
C1156 C1152 1.350 . S
C1156 C1153 1.463 . S
C1156 N1160 1.427 . S
C1157 H1147 0.929 . S
C1157 C1155 1.433 . S
C1157 N1160 1.384 . S
C1158 H1149 0.929 . S
C1158 C1150 1.378 . S
C1158 C1153 1.350 . S
C1159 H1146 0.929 . S
C1159 C1151 1.433 . S
C1159 N1161 1.384 . S
N1160 C1156 1.427 . S
N1160 C1157 1.384 . S
N1161 C1153 1.427 . S
N1161 C1159 1.384 . S
H1162 C1168 0.930 . S
H1163 C1172 0.930 . S
H1164 C1177 0.929 . S
H1165 C1175 0.929 . S
H1166 C1170 0.929 . S
H1167 C1176 0.929 . S
C1168 H1162 0.930 . S
C1168 C1169 1.367 . S
C1168 C1176 1.378 . S
C1169 C1168 1.367 . S
C1169 C1177 1.433 . S
C1170 H1166 0.929 . S
C1170 C1172 1.378 . S
C1170 C1174 1.350 . S
C1171 C1174 1.463 . S
C1171 C1176 1.350 . S
C1171 N1179 1.427 . S
C1172 H1163 0.930 . S
C1172 C1170 1.378 . S
C1172 C1173 1.367 . S
C1173 C1172 1.367 . S
C1173 C1175 1.433 . S
C1174 C1170 1.350 . S
C1174 C1171 1.463 . S
C1174 N1178 1.427 . S
C1175 H1165 0.929 . S
C1175 C1173 1.433 . S
C1175 N1178 1.384 . S
C1176 H1167 0.929 . S
C1176 C1168 1.378 . S
C1176 C1171 1.350 . S
C1177 H1164 0.929 . S
C1177 C1169 1.433 . S
C1177 N1179 1.384 . S
N1178 C1174 1.427 . S
N1178 C1175 1.384 . S
N1179 C1171 1.427 . S
N1179 C1177 1.384 . S
H1180 C1186 0.930 . S
H1181 C1190 0.930 . S
H1182 C1195 0.929 . S
H1183 C1193 0.929 . S
H1184 C1188 0.929 . S
H1185 C1194 0.929 . S
C1186 H1180 0.930 . S
C1186 C1187 1.367 . S
C1186 C1194 1.378 . S
C1187 C1186 1.367 . S
C1187 C1195 1.433 . S
C1188 H1184 0.929 . S
C1188 C1190 1.378 . S
C1188 C1192 1.350 . S
C1189 C1192 1.463 . S
C1189 C1194 1.350 . S
C1189 N1197 1.427 . S
C1190 H1181 0.930 . S
C1190 C1188 1.378 . S
C1190 C1191 1.367 . S
C1191 C1190 1.367 . S
C1191 C1193 1.433 . S
C1192 C1188 1.350 . S
C1192 C1189 1.463 . S
C1192 N1196 1.427 . S
C1193 H1183 0.929 . S
C1193 C1191 1.433 . S
C1193 N1196 1.384 . S
C1194 H1185 0.929 . S
C1194 C1186 1.378 . S
C1194 C1189 1.350 . S
C1195 H1182 0.929 . S
C1195 C1187 1.433 . S
C1195 N1197 1.384 . S
N1196 C1192 1.427 . S
N1196 C1193 1.384 . S
N1197 C1189 1.427 . S
N1197 C1195 1.384 . S
H1198 C1204 0.930 . S
H1199 C1208 0.930 . S
H1200 C1213 0.926 1_655 S
H1201 C1211 0.929 . S
H1202 C1206 0.929 1_556 S
H1203 C1212 0.929 1_554 S
C1204 H1198 0.930 . S
C1204 C1205 1.367 . S
C1204 C1212 1.378 . S
C1205 C1204 1.367 . S
C1205 C1213 1.433 . S
C1206 H1202 0.929 1_554 S
C1206 C1208 1.378 . S
C1206 C1210 1.350 . S
C1207 C1210 1.463 1_556 S
C1207 C1212 1.350 . S
C1207 N1215 1.427 . S
C1208 H1199 0.930 . S
C1208 C1206 1.378 . S
C1208 C1209 1.367 . S
C1209 C1208 1.367 . S
C1209 C1211 1.433 . S
C1210 C1206 1.350 . S
C1210 C1207 1.463 1_554 S
C1210 N1214 1.427 . S
C1211 H1201 0.929 . S
C1211 C1209 1.433 . S
C1211 N1214 1.384 . S
C1212 H1203 0.929 1_556 S
C1212 C1204 1.378 . S
C1212 C1207 1.350 . S
C1213 H1200 0.926 1_455 S
C1213 C1205 1.433 . S
C1213 N1215 1.384 . S
N1214 C1210 1.427 . S
N1214 C1211 1.384 . S
N1215 C1207 1.427 . S
N1215 C1213 1.384 . S
H1216 C1222 0.930 . S
H1217 C1226 0.930 . S
H1218 C1231 0.929 . S
H1219 C1229 0.929 . S
H1220 C1224 0.929 . S
H1221 C1230 0.929 . S
C1222 H1216 0.930 . S
C1222 C1223 1.367 . S
C1222 C1230 1.378 . S
C1223 C1222 1.367 . S
C1223 C1231 1.433 . S
C1224 H1220 0.929 . S
C1224 C1226 1.378 . S
C1224 C1228 1.350 . S
C1225 C1228 1.463 . S
C1225 C1230 1.350 . S
C1225 N1233 1.427 . S
C1226 H1217 0.930 . S
C1226 C1224 1.378 . S
C1226 C1227 1.367 . S
C1227 C1226 1.367 . S
C1227 C1229 1.433 . S
C1228 C1224 1.350 . S
C1228 C1225 1.463 . S
C1228 N1232 1.427 . S
C1229 H1219 0.929 . S
C1229 C1227 1.433 . S
C1229 N1232 1.384 . S
C1230 H1221 0.929 . S
C1230 C1222 1.378 . S
C1230 C1225 1.350 . S
C1231 H1218 0.929 . S
C1231 C1223 1.433 . S
C1231 N1233 1.384 . S
N1232 C1228 1.427 . S
N1232 C1229 1.384 . S
N1233 C1225 1.427 . S
N1233 C1231 1.384 . S
H1234 C1240 0.930 . S
H1235 C1244 0.930 . S
H1236 C1249 0.929 . S
H1237 C1247 0.929 . S
H1238 C1242 0.929 . S
H1239 C1248 0.929 . S
C1240 H1234 0.930 . S
C1240 C1241 1.367 . S
C1240 C1248 1.378 . S
C1241 C1240 1.367 . S
C1241 C1249 1.433 . S
C1242 H1238 0.929 . S
C1242 C1244 1.378 . S
C1242 C1246 1.350 . S
C1243 C1246 1.463 . S
C1243 C1248 1.350 . S
C1243 N1251 1.427 . S
C1244 H1235 0.930 . S
C1244 C1242 1.378 . S
C1244 C1245 1.367 . S
C1245 C1244 1.367 . S
C1245 C1247 1.433 . S
C1246 C1242 1.350 . S
C1246 C1243 1.463 . S
C1246 N1250 1.427 . S
C1247 H1237 0.929 . S
C1247 C1245 1.433 . S
C1247 N1250 1.384 . S
C1248 H1239 0.929 . S
C1248 C1240 1.378 . S
C1248 C1243 1.350 . S
C1249 H1236 0.929 . S
C1249 C1241 1.433 . S
C1249 N1251 1.384 . S
N1250 C1246 1.427 . S
N1250 C1247 1.384 . S
N1251 C1243 1.427 . S
N1251 C1249 1.384 . S
H1252 C1258 0.930 . S
H1253 C1262 0.930 . S
H1254 C1267 0.929 . S
H1255 C1265 0.929 . S
H1256 C1260 0.929 . S
H1257 C1266 0.929 . S
C1258 H1252 0.930 . S
C1258 C1259 1.367 1_556 S
C1258 C1266 1.378 . S
C1259 C1258 1.367 1_554 S
C1259 C1267 1.433 . S
C1260 H1256 0.929 . S
C1260 C1262 1.378 . S
C1260 C1264 1.350 . S
C1261 C1264 1.463 . S
C1261 C1266 1.350 . S
C1261 N1269 1.427 . S
C1262 H1253 0.930 . S
C1262 C1260 1.378 . S
C1262 C1263 1.367 . S
C1263 C1262 1.367 . S
C1263 C1265 1.433 . S
C1264 C1260 1.350 . S
C1264 C1261 1.463 . S
C1264 N1268 1.427 . S
C1265 H1255 0.929 . S
C1265 C1263 1.433 . S
C1265 N1268 1.384 . S
C1266 H1257 0.929 . S
C1266 C1258 1.378 . S
C1266 C1261 1.350 . S
C1267 H1254 0.929 . S
C1267 C1259 1.433 . S
C1267 N1269 1.384 1_554 S
N1268 C1264 1.427 . S
N1268 C1265 1.384 . S
N1269 C1261 1.427 . S
N1269 C1267 1.384 1_556 S
H1270 C1276 0.930 . S
H1271 C1280 0.930 . S
H1272 C1285 0.929 . S
H1273 C1283 0.929 . S
H1274 C1278 0.929 . S
H1275 C1284 0.929 . S
C1276 H1270 0.930 . S
C1276 C1277 1.367 . S
C1276 C1284 1.378 . S
C1277 C1276 1.367 . S
C1277 C1285 1.433 . S
C1278 H1274 0.929 . S
C1278 C1280 1.378 . S
C1278 C1282 1.350 . S
C1279 C1282 1.463 . S
C1279 C1284 1.350 . S
C1279 N1287 1.427 . S
C1280 H1271 0.930 . S
C1280 C1278 1.378 . S
C1280 C1281 1.367 . S
C1281 C1280 1.367 . S
C1281 C1283 1.433 . S
C1282 C1278 1.350 . S
C1282 C1279 1.463 . S
C1282 N1286 1.427 . S
C1283 H1273 0.929 . S
C1283 C1281 1.433 . S
C1283 N1286 1.384 . S
C1284 H1275 0.929 . S
C1284 C1276 1.378 . S
C1284 C1279 1.350 . S
C1285 H1272 0.929 . S
C1285 C1277 1.433 . S
C1285 N1287 1.384 . S
N1286 C1282 1.427 . S
N1286 C1283 1.384 . S
N1287 C1279 1.427 . S
N1287 C1285 1.384 . S
H1288 C1294 0.930 . S
H1289 C1298 0.930 . S
H1290 C1303 0.929 . S
H1291 C1301 0.929 . S
H1292 C1296 0.929 . S
H1293 C1302 0.929 . S
C1294 H1288 0.930 . S
C1294 C1295 1.367 . S
C1294 C1302 1.378 . S
C1295 C1294 1.367 . S
C1295 C1303 1.433 . S
C1296 H1292 0.929 . S
C1296 C1298 1.378 . S
C1296 C1300 1.350 . S
C1297 C1300 1.463 . S
C1297 C1302 1.350 . S
C1297 N1305 1.427 . S
C1298 H1289 0.930 . S
C1298 C1296 1.378 . S
C1298 C1299 1.367 . S
C1299 C1298 1.367 . S
C1299 C1301 1.433 . S
C1300 C1296 1.350 . S
C1300 C1297 1.463 . S
C1300 N1304 1.427 . S
C1301 H1291 0.929 . S
C1301 C1299 1.433 . S
C1301 N1304 1.384 . S
C1302 H1293 0.929 . S
C1302 C1294 1.378 . S
C1302 C1297 1.350 . S
C1303 H1290 0.929 . S
C1303 C1295 1.433 . S
C1303 N1305 1.384 . S
N1304 C1300 1.427 . S
N1304 C1301 1.384 . S
N1305 C1297 1.427 . S
N1305 C1303 1.384 . S
H1306 C1312 0.930 . S
H1307 C1316 0.930 . S
H1308 C1321 0.929 . S
H1309 C1319 0.929 . S
H1310 C1314 0.929 . S
H1311 C1320 0.929 . S
C1312 H1306 0.930 . S
C1312 C1313 1.367 . S
C1312 C1320 1.378 . S
C1313 C1312 1.367 . S
C1313 C1321 1.433 . S
C1314 H1310 0.929 . S
C1314 C1316 1.378 . S
C1314 C1318 1.350 . S
C1315 C1318 1.463 . S
C1315 C1320 1.350 . S
C1315 N1323 1.427 . S
C1316 H1307 0.930 . S
C1316 C1314 1.378 . S
C1316 C1317 1.367 . S
C1317 C1316 1.367 . S
C1317 C1319 1.433 . S
C1318 C1314 1.350 . S
C1318 C1315 1.463 . S
C1318 N1322 1.427 . S
C1319 H1309 0.929 . S
C1319 C1317 1.433 . S
C1319 N1322 1.384 . S
C1320 H1311 0.929 . S
C1320 C1312 1.378 . S
C1320 C1315 1.350 . S
C1321 H1308 0.929 . S
C1321 C1313 1.433 . S
C1321 N1323 1.384 . S
N1322 C1318 1.427 . S
N1322 C1319 1.384 . S
N1323 C1315 1.427 . S
N1323 C1321 1.384 . S
H1324 C1330 0.930 . S
H1325 C1334 0.930 . S
H1326 C1339 0.929 . S
H1327 C1337 0.929 . S
H1328 C1332 0.929 . S
H1329 C1338 0.929 . S
C1330 H1324 0.930 . S
C1330 C1331 1.367 . S
C1330 C1338 1.378 1_556 S
C1331 C1330 1.367 . S
C1331 C1339 1.433 1_556 S
C1332 H1328 0.929 . S
C1332 C1334 1.378 . S
C1332 C1336 1.350 . S
C1333 C1336 1.463 . S
C1333 C1338 1.350 . S
C1333 N1341 1.427 . S
C1334 H1325 0.930 . S
C1334 C1332 1.378 . S
C1334 C1335 1.367 . S
C1335 C1334 1.367 . S
C1335 C1337 1.433 . S
C1336 C1332 1.350 . S
C1336 C1333 1.463 . S
C1336 N1340 1.427 . S
C1337 H1327 0.929 . S
C1337 C1335 1.433 . S
C1337 N1340 1.384 . S
C1338 H1329 0.929 . S
C1338 C1330 1.378 1_554 S
C1338 C1333 1.350 . S
C1339 H1326 0.929 . S
C1339 C1331 1.433 1_554 S
C1339 N1341 1.384 . S
N1340 C1336 1.427 . S
N1340 C1337 1.384 . S
N1341 C1333 1.427 . S
N1341 C1339 1.384 . S
H1342 C1348 0.930 . S
H1343 C1352 0.930 . S
H1344 C1357 0.929 . S
H1345 C1355 0.929 . S
H1346 C1350 0.929 . S
H1347 C1356 0.929 . S
C1348 H1342 0.930 . S
C1348 C1349 1.367 . S
C1348 C1356 1.378 . S
C1349 C1348 1.367 . S
C1349 C1357 1.433 . S
C1350 H1346 0.929 . S
C1350 C1352 1.378 . S
C1350 C1354 1.350 . S
C1351 C1354 1.463 . S
C1351 C1356 1.350 . S
C1351 N1359 1.427 . S
C1352 H1343 0.930 . S
C1352 C1350 1.378 . S
C1352 C1353 1.367 . S
C1353 C1352 1.367 . S
C1353 C1355 1.433 . S
C1354 C1350 1.350 . S
C1354 C1351 1.463 . S
C1354 N1358 1.427 . S
C1355 H1345 0.929 . S
C1355 C1353 1.433 . S
C1355 N1358 1.384 . S
C1356 H1347 0.929 . S
C1356 C1348 1.378 . S
C1356 C1351 1.350 . S
C1357 H1344 0.929 . S
C1357 C1349 1.433 . S
C1357 N1359 1.384 . S
N1358 C1354 1.427 . S
N1358 C1355 1.384 . S
N1359 C1351 1.427 . S
N1359 C1357 1.384 . S
H1360 C1366 0.930 . S
H1361 C1370 0.930 . S
H1362 C1375 0.929 . S
H1363 C1373 0.929 . S
H1364 C1368 0.929 . S
H1365 C1374 0.929 . S
C1366 H1360 0.930 . S
C1366 C1367 1.367 . S
C1366 C1374 1.378 . S
C1367 C1366 1.367 . S
C1367 C1375 1.433 . S
C1368 H1364 0.929 . S
C1368 C1370 1.378 1_556 S
C1368 C1372 1.350 . S
C1369 C1372 1.463 . S
C1369 C1374 1.350 . S
C1369 N1377 1.427 . S
C1370 H1361 0.930 . S
C1370 C1368 1.378 1_554 S
C1370 C1371 1.367 . S
C1371 C1370 1.367 . S
C1371 C1373 1.433 1_554 S
C1372 C1368 1.350 . S
C1372 C1369 1.463 . S
C1372 N1376 1.427 . S
C1373 H1363 0.929 . S
C1373 C1371 1.433 1_556 S
C1373 N1376 1.384 . S
C1374 H1365 0.929 . S
C1374 C1366 1.378 . S
C1374 C1369 1.350 . S
C1375 H1362 0.929 . S
C1375 C1367 1.433 . S
C1375 N1377 1.384 . S
N1376 C1372 1.427 . S
N1376 C1373 1.384 . S
N1377 C1369 1.427 . S
N1377 C1375 1.384 . S
H1378 C1384 0.930 . S
H1379 C1388 0.930 . S
H1380 C1393 0.929 . S
H1381 C1391 0.929 . S
H1382 C1386 0.929 . S
H1383 C1392 0.929 . S
C1384 H1378 0.930 . S
C1384 C1385 1.367 . S
C1384 C1392 1.378 . S
C1385 C1384 1.367 . S
C1385 C1393 1.433 . S
C1386 H1382 0.929 . S
C1386 C1388 1.378 . S
C1386 C1390 1.350 . S
C1387 C1390 1.463 . S
C1387 C1392 1.350 . S
C1387 N1395 1.427 . S
C1388 H1379 0.930 . S
C1388 C1386 1.378 . S
C1388 C1389 1.367 . S
C1389 C1388 1.367 . S
C1389 C1391 1.433 . S
C1390 C1386 1.350 . S
C1390 C1387 1.463 . S
C1390 N1394 1.427 . S
C1391 H1381 0.929 . S
C1391 C1389 1.433 . S
C1391 N1394 1.384 . S
C1392 H1383 0.929 . S
C1392 C1384 1.378 . S
C1392 C1387 1.350 . S
C1393 H1380 0.929 . S
C1393 C1385 1.433 . S
C1393 N1395 1.384 . S
N1394 C1390 1.427 . S
N1394 C1391 1.384 . S
N1395 C1387 1.427 . S
N1395 C1393 1.384 . S
H1396 C1402 0.930 . S
H1397 C1406 0.930 . S
H1398 C1411 0.929 . S
H1399 C1409 0.929 . S
H1400 C1404 0.929 . S
H1401 C1410 0.929 . S
C1402 H1396 0.930 . S
C1402 C1403 1.367 . S
C1402 C1410 1.378 . S
C1403 C1402 1.367 . S
C1403 C1411 1.433 . S
C1404 H1400 0.929 . S
C1404 C1406 1.378 . S
C1404 C1408 1.350 . S
C1405 C1408 1.463 . S
C1405 C1410 1.350 . S
C1405 N1413 1.427 . S
C1406 H1397 0.930 . S
C1406 C1404 1.378 . S
C1406 C1407 1.367 . S
C1407 C1406 1.367 . S
C1407 C1409 1.433 . S
C1408 C1404 1.350 . S
C1408 C1405 1.463 . S
C1408 N1412 1.427 . S
C1409 H1399 0.929 . S
C1409 C1407 1.433 . S
C1409 N1412 1.384 . S
C1410 H1401 0.929 . S
C1410 C1402 1.378 . S
C1410 C1405 1.350 . S
C1411 H1398 0.929 . S
C1411 C1403 1.433 . S
C1411 N1413 1.384 . S
N1412 C1408 1.427 . S
N1412 C1409 1.384 . S
N1413 C1405 1.427 . S
N1413 C1411 1.384 . S
H1414 C1420 0.930 . S
H1415 C1424 0.930 . S
H1416 C1429 0.929 . S
H1417 C1427 0.929 . S
H1418 C1422 0.929 . S
H1419 C1428 0.929 . S
C1420 H1414 0.930 . S
C1420 C1421 1.367 . S
C1420 C1428 1.378 . S
C1421 C1420 1.367 . S
C1421 C1429 1.433 . S
C1422 H1418 0.929 . S
C1422 C1424 1.378 . S
C1422 C1426 1.350 . S
C1423 C1426 1.463 . S
C1423 C1428 1.350 . S
C1423 N1431 1.427 . S
C1424 H1415 0.930 . S
C1424 C1422 1.378 . S
C1424 C1425 1.367 . S
C1425 C1424 1.367 . S
C1425 C1427 1.433 . S
C1426 C1422 1.350 . S
C1426 C1423 1.463 . S
C1426 N1430 1.427 . S
C1427 H1417 0.929 . S
C1427 C1425 1.433 . S
C1427 N1430 1.384 . S
C1428 H1419 0.929 . S
C1428 C1420 1.378 . S
C1428 C1423 1.350 . S
C1429 H1416 0.929 . S
C1429 C1421 1.433 . S
C1429 N1431 1.384 . S
N1430 C1426 1.427 . S
N1430 C1427 1.384 . S
N1431 C1423 1.427 . S
N1431 C1429 1.384 . S
H1432 C1438 0.930 . S
H1433 C1442 0.926 1_556 S
H1434 C1447 0.929 . S
H1435 C1445 0.929 . S
H1436 C1440 0.929 . S
H1437 C1446 0.929 . S
C1438 H1432 0.930 . S
C1438 C1439 1.367 . S
C1438 C1446 1.378 . S
C1439 C1438 1.367 . S
C1439 C1447 1.433 . S
C1440 H1436 0.929 . S
C1440 C1442 1.401 . S
C1440 C1444 1.350 . S
C1441 C1444 1.463 . S
C1441 C1446 1.350 . S
C1441 N1449 1.427 . S
C1442 H1433 0.926 1_554 S
C1442 C1440 1.401 . S
C1442 C1443 1.349 1_554 S
C1443 C1442 1.349 1_556 S
C1443 C1445 1.433 . S
C1444 C1440 1.350 . S
C1444 C1441 1.463 . S
C1444 N1448 1.427 . S
C1445 H1435 0.929 . S
C1445 C1443 1.433 . S
C1445 N1448 1.384 1_556 S
C1446 H1437 0.929 . S
C1446 C1438 1.378 . S
C1446 C1441 1.350 . S
C1447 H1434 0.929 . S
C1447 C1439 1.433 . S
C1447 N1449 1.384 . S
N1448 C1444 1.427 . S
N1448 C1445 1.384 1_554 S
N1449 C1441 1.427 . S
N1449 C1447 1.384 . S
H1450 C1456 0.930 . S
H1451 C1460 0.930 . S
H1452 C1465 0.929 . S
H1453 C1463 0.929 . S
H1454 C1458 0.929 . S
H1455 C1464 0.929 . S
C1456 H1450 0.930 . S
C1456 C1457 1.367 . S
C1456 C1464 1.378 . S
C1457 C1456 1.367 . S
C1457 C1465 1.433 . S
C1458 H1454 0.929 . S
C1458 C1460 1.378 . S
C1458 C1462 1.350 . S
C1459 C1462 1.463 . S
C1459 C1464 1.350 . S
C1459 N1467 1.427 . S
C1460 H1451 0.930 . S
C1460 C1458 1.378 . S
C1460 C1461 1.367 . S
C1461 C1460 1.367 . S
C1461 C1463 1.433 . S
C1462 C1458 1.350 . S
C1462 C1459 1.463 . S
C1462 N1466 1.427 . S
C1463 H1453 0.929 . S
C1463 C1461 1.433 . S
C1463 N1466 1.384 . S
C1464 H1455 0.929 . S
C1464 C1456 1.378 . S
C1464 C1459 1.350 . S
C1465 H1452 0.929 . S
C1465 C1457 1.433 . S
C1465 N1467 1.384 . S
N1466 C1462 1.427 . S
N1466 C1463 1.384 . S
N1467 C1459 1.427 . S
N1467 C1465 1.384 . S
H1468 C1474 0.930 . S
H1469 C1478 0.930 . S
H1470 C1483 0.929 . S
H1471 C1481 0.929 . S
H1472 C1476 0.929 . S
H1473 C1482 0.929 . S
C1474 H1468 0.930 . S
C1474 C1475 1.367 . S
C1474 C1482 1.378 . S
C1475 C1474 1.367 . S
C1475 C1483 1.433 . S
C1476 H1472 0.929 . S
C1476 C1478 1.378 . S
C1476 C1480 1.350 . S
C1477 C1480 1.463 . S
C1477 C1482 1.350 . S
C1477 N1485 1.427 . S
C1478 H1469 0.930 . S
C1478 C1476 1.378 . S
C1478 C1479 1.367 . S
C1479 C1478 1.367 . S
C1479 C1481 1.433 . S
C1480 C1476 1.350 . S
C1480 C1477 1.463 . S
C1480 N1484 1.427 . S
C1481 H1471 0.929 . S
C1481 C1479 1.433 . S
C1481 N1484 1.384 . S
C1482 H1473 0.929 . S
C1482 C1474 1.378 . S
C1482 C1477 1.350 . S
C1483 H1470 0.929 . S
C1483 C1475 1.433 . S
C1483 N1485 1.384 . S
N1484 C1480 1.427 . S
N1484 C1481 1.384 . S
N1485 C1477 1.427 . S
N1485 C1483 1.384 . S
H1486 C1492 0.930 . S
H1487 C1496 0.930 . S
H1488 C1501 0.929 . S
H1489 C1499 0.929 . S
H1490 C1494 0.929 . S
H1491 C1500 0.929 . S
C1492 H1486 0.930 . S
C1492 C1493 1.367 . S
C1492 C1500 1.378 . S
C1493 C1492 1.367 . S
C1493 C1501 1.433 . S
C1494 H1490 0.929 . S
C1494 C1496 1.378 . S
C1494 C1498 1.350 . S
C1495 C1498 1.463 . S
C1495 C1500 1.350 . S
C1495 N1503 1.427 . S
C1496 H1487 0.930 . S
C1496 C1494 1.378 . S
C1496 C1497 1.367 . S
C1497 C1496 1.367 . S
C1497 C1499 1.433 . S
C1498 C1494 1.350 . S
C1498 C1495 1.463 . S
C1498 N1502 1.427 . S
C1499 H1489 0.929 . S
C1499 C1497 1.433 . S
C1499 N1502 1.384 . S
C1500 H1491 0.929 . S
C1500 C1492 1.378 . S
C1500 C1495 1.350 . S
C1501 H1488 0.929 . S
C1501 C1493 1.433 . S
C1501 N1503 1.384 . S
N1502 C1498 1.427 . S
N1502 C1499 1.384 . S
N1503 C1495 1.427 . S
N1503 C1501 1.384 . S
C647 C10 1.045 . S
C651 C295 1.025 . S
C665 C50 1.037 . S
C669 C175 1.012 . S
C683 C215 1.021 . S
C687 C90 1.045 . S
C701 C130 1.043 . S
C705 C255 1.030 . S
C719 C446 1.025 . S
C723 C179 1.045 . S
C737 C339 1.040 . S
C741 C6 1.032 . S
C755 C406 1.020 . S
C759 C259 1.031 . S
C773 C86 1.032 . S
C777 C379 1.036 . S
C791 C375 1.029 . S
C795 C490 1.033 . S
C809 C410 1.035 . S
C813 C575 1.031 . S
C827 C530 1.032 . S
C831 C335 1.028 . S
C845 C450 1.037 . S
C849 C615 1.012 . S
C863 C579 1.032 . S
C867 C126 1.028 . S
C881 C486 1.014 . S
C885 C219 1.032 . S
C899 C46 1.016 . S
C903 C619 1.031 . S
C917 C299 1.041 . S
C921 C526 1.032 . S
C935 C529 0.440 . S
C939 C9 0.400 1_455 S
C953 C449 0.411 . S
C957 C49 0.451 . S
C971 C489 0.453 . S
C975 C89 0.421 . S
C989 C409 0.450 . S
C993 C129 0.429 . S
C1007 C178 0.438 . S
C1011 C618 0.399 1_455 S
C1025 C378 0.452 . S
C1029 C218 0.419 . S
C1043 C258 0.435 . S
C1047 C578 0.399 . S
C1061 C298 0.438 . S
C1065 C338 0.398 . S
C1079 C18 1.543 . S
C1083 C169 1.543 . S
C1097 C58 1.532 . S
C1101 C209 1.532 . S
C1115 C249 1.536 . S
C1119 C98 1.536 . S
C1133 C138 1.527 . S
C1137 C289 1.527 . S
C1151 C418 1.530 . S
C1155 C329 1.530 . S
C1169 C458 1.540 . S
C1173 C369 1.540 . S
C1187 C498 1.528 . S
C1191 C569 1.528 . S
C1205 C609 1.528 . S
C1209 C538 1.528 . S
C1223 C15 1.902 . S
C1227 C290 1.966 . S
C1241 C55 1.894 . S
C1245 C170 1.963 . S
C1259 C210 1.968 . S
C1263 C95 1.899 . S
C1277 C250 1.964 . S
C1281 C135 1.891 . S
C1295 C459 1.966 . S
C1299 C166 1.902 . S
C1313 C326 1.901 . S
C1317 C19 1.965 . S
C1331 C419 1.964 . S
C1335 C246 1.891 . S
C1349 C99 1.967 . S
C1353 C366 1.900 . S
C1367 C495 1.891 . S
C1371 C370 1.963 . S
C1385 C570 1.966 . S
C1389 C415 1.902 . S
C1403 C535 1.891 . S
C1407 C330 1.964 . S
C1421 C610 1.966 . S
C1425 C455 1.894 . S
C1439 C566 1.896 . S
C1443 C139 1.967 . S
C1457 C206 1.892 . S
C1461 C499 1.965 . S
C1475 C59 1.968 . S
C1479 C606 1.899 . S
C1493 C539 1.967 . S
C1497 C286 1.902 . S
