# Generated by pormake.
# Topology unl, (4)-cn, num edge types: 1
# Building blocks:
#     Node 0, Type 0, BuildingBlock: GALJAG_clean_sbu_0, # of connection points: 4
#     Node 1, Type 0, BuildingBlock: GALJAG_clean_sbu_0, # of connection points: 4
#     Node 2, Type 0, BuildingBlock: GALJAG_clean_sbu_0, # of connection points: 4
#     Node 3, Type 0, BuildingBlock: GALJAG_clean_sbu_0, # of connection points: 4
#     Node 4, Type 0, BuildingBlock: GALJAG_clean_sbu_0, # of connection points: 4
#     Node 5, Type 0, BuildingBlock: GALJAG_clean_sbu_0, # of connection points: 4
#     Node 6, Type 0, BuildingBlock: GALJAG_clean_sbu_0, # of connection points: 4
#     Node 7, Type 0, BuildingBlock: GALJAG_clean_sbu_0, # of connection points: 4
#     Node 8, Type 0, BuildingBlock: GALJAG_clean_sbu_0, # of connection points: 4
#     Node 9, Type 0, BuildingBlock: GALJAG_clean_sbu_0, # of connection points: 4
#     Node 10, Type 0, BuildingBlock: GALJAG_clean_sbu_0, # of connection points: 4
#     Node 11, Type 0, BuildingBlock: GALJAG_clean_sbu_0, # of connection points: 4
#     Node 12, Type 0, BuildingBlock: GALJAG_clean_sbu_0, # of connection points: 4
#     Node 13, Type 0, BuildingBlock: GALJAG_clean_sbu_0, # of connection points: 4
#     Node 14, Type 0, BuildingBlock: GALJAG_clean_sbu_0, # of connection points: 4
#     Node 15, Type 0, BuildingBlock: GALJAG_clean_sbu_0, # of connection points: 4
#     Node 16, Type 0, BuildingBlock: GALJAG_clean_sbu_0, # of connection points: 4
#     Node 17, Type 0, BuildingBlock: GALJAG_clean_sbu_0, # of connection points: 4
#     Node 18, Type 0, BuildingBlock: GALJAG_clean_sbu_0, # of connection points: 4
#     Node 19, Type 0, BuildingBlock: GALJAG_clean_sbu_0, # of connection points: 4
#     Node 20, Type 0, BuildingBlock: GALJAG_clean_sbu_0, # of connection points: 4
#     Node 21, Type 0, BuildingBlock: GALJAG_clean_sbu_0, # of connection points: 4
#     Node 22, Type 0, BuildingBlock: GALJAG_clean_sbu_0, # of connection points: 4
#     Node 23, Type 0, BuildingBlock: GALJAG_clean_sbu_0, # of connection points: 4
#     Node 24, Type 0, BuildingBlock: GALJAG_clean_sbu_0, # of connection points: 4
#     Node 25, Type 0, BuildingBlock: GALJAG_clean_sbu_0, # of connection points: 4
#     Node 26, Type 0, BuildingBlock: GALJAG_clean_sbu_0, # of connection points: 4
#     Node 27, Type 0, BuildingBlock: GALJAG_clean_sbu_0, # of connection points: 4
#     Node 28, Type 0, BuildingBlock: GALJAG_clean_sbu_0, # of connection points: 4
#     Node 29, Type 0, BuildingBlock: GALJAG_clean_sbu_0, # of connection points: 4
#     Node 30, Type 0, BuildingBlock: GALJAG_clean_sbu_0, # of connection points: 4
#     Node 31, Type 0, BuildingBlock: GALJAG_clean_sbu_0, # of connection points: 4
#     Node 32, Type 0, BuildingBlock: GALJAG_clean_sbu_0, # of connection points: 4
#     Node 33, Type 0, BuildingBlock: GALJAG_clean_sbu_0, # of connection points: 4
#     Node 34, Type 0, BuildingBlock: GALJAG_clean_sbu_0, # of connection points: 4
#     Node 35, Type 0, BuildingBlock: GALJAG_clean_sbu_0, # of connection points: 4
#     Edge 36, Type (0, 0), None
#     Edge 37, Type (0, 0), None
#     Edge 38, Type (0, 0), None
#     Edge 39, Type (0, 0), None
#     Edge 40, Type (0, 0), None
#     Edge 41, Type (0, 0), None
#     Edge 42, Type (0, 0), None
#     Edge 43, Type (0, 0), None
#     Edge 44, Type (0, 0), None
#     Edge 45, Type (0, 0), None
#     Edge 46, Type (0, 0), None
#     Edge 47, Type (0, 0), None
#     Edge 48, Type (0, 0), None
#     Edge 49, Type (0, 0), None
#     Edge 50, Type (0, 0), None
#     Edge 51, Type (0, 0), None
#     Edge 52, Type (0, 0), None
#     Edge 53, Type (0, 0), None
#     Edge 54, Type (0, 0), None
#     Edge 55, Type (0, 0), None
#     Edge 56, Type (0, 0), None
#     Edge 57, Type (0, 0), None
#     Edge 58, Type (0, 0), None
#     Edge 59, Type (0, 0), None
#     Edge 60, Type (0, 0), None
#     Edge 61, Type (0, 0), None
#     Edge 62, Type (0, 0), None
#     Edge 63, Type (0, 0), None
#     Edge 64, Type (0, 0), None
#     Edge 65, Type (0, 0), None
#     Edge 66, Type (0, 0), None
#     Edge 67, Type (0, 0), None
#     Edge 68, Type (0, 0), None
#     Edge 69, Type (0, 0), None
#     Edge 70, Type (0, 0), None
#     Edge 71, Type (0, 0), None
#     Edge 72, Type (0, 0), None
#     Edge 73, Type (0, 0), None
#     Edge 74, Type (0, 0), None
#     Edge 75, Type (0, 0), None
#     Edge 76, Type (0, 0), None
#     Edge 77, Type (0, 0), None
#     Edge 78, Type (0, 0), None
#     Edge 79, Type (0, 0), None
#     Edge 80, Type (0, 0), None
#     Edge 81, Type (0, 0), None
#     Edge 82, Type (0, 0), None
#     Edge 83, Type (0, 0), None
#     Edge 84, Type (0, 0), None
#     Edge 85, Type (0, 0), None
#     Edge 86, Type (0, 0), None
#     Edge 87, Type (0, 0), None
#     Edge 88, Type (0, 0), None
#     Edge 89, Type (0, 0), None
#     Edge 90, Type (0, 0), None
#     Edge 91, Type (0, 0), None
#     Edge 92, Type (0, 0), None
#     Edge 93, Type (0, 0), None
#     Edge 94, Type (0, 0), None
#     Edge 95, Type (0, 0), None
#     Edge 96, Type (0, 0), None
#     Edge 97, Type (0, 0), None
#     Edge 98, Type (0, 0), None
#     Edge 99, Type (0, 0), None
#     Edge 100, Type (0, 0), None
#     Edge 101, Type (0, 0), None
#     Edge 102, Type (0, 0), None
#     Edge 103, Type (0, 0), None
#     Edge 104, Type (0, 0), None
#     Edge 105, Type (0, 0), None
#     Edge 106, Type (0, 0), None
#     Edge 107, Type (0, 0), None
# Relax obj value: 0.019
# Max RMSD: 0.089
# Mean RMSD: 0.089
data_MOF--net-unl--node1-GALJAG_clean_sbu_0--edge1-none
_symmetry_space_group_name_H-M    P1
_symmetry_Int_Tables_number       1
_symmetry_cell_setting            triclinic
loop_
_symmetry_equiv_pos_as_xyz
'x, y, z'
_cell_length_a     28.787321
_cell_length_b     28.787433
_cell_length_c     19.507716
_cell_angle_alpha  90.000175
_cell_angle_beta   89.998889
_cell_angle_gamma 120.00847
loop_
_atom_site_label
_atom_site_type_symbol
_atom_site_fract_x
_atom_site_fract_y
_atom_site_fract_z
_atom_type_partial_charge
In0 In 0.16777 0.10171 0.1408 0.0
O1 O 0.10659 0.07764 0.23037 0.0
O2 O 0.167 0.15939 0.2183 0.0
C3 C 0.14529 0.00934 0.08015 0.0
C4 C 0.26603 0.13124 0.18735 0.0
C5 C 0.13405 0.13939 0.03652 0.0
O6 O 0.11417 0.01239 0.12358 0.0
O7 O 0.18918 0.05217 0.07044 0.0
O8 O 0.17663 0.1696 0.0691 0.0
O9 O 0.10922 0.09162 0.05674 0.0
C10 C 0.12763 0.12525 0.25248 0.0
O11 O 0.2585 0.15377 0.13619 0.0
O12 O 0.22426 0.09313 0.21381 0.0
In13 In 0.83072 0.05258 0.14082 0.0
O14 O 0.85479 0.01549 0.23039 0.0
O15 O 0.77304 -0.00586 0.21833 0.0
C16 C 0.92311 0.12249 0.08019 0.0
C17 C 0.80119 0.12132 0.18735 0.0
C18 C 0.79303 -0.01882 0.03654 0.0
O19 O 0.92004 0.08832 0.12361 0.0
O20 O 0.88028 0.12355 0.07047 0.0
O21 O 0.76282 -0.00647 0.06914 0.0
O22 O 0.84081 0.00415 0.05674 0.0
C23 C 0.80719 -0.01109 0.25251 0.0
O24 O 0.77867 0.09126 0.13619 0.0
O25 O 0.8393 0.11767 0.21382 0.0
In26 In 0.87984 0.76467 0.14079 0.0
O27 O 0.91695 0.82584 0.23036 0.0
O28 O 0.93829 0.76544 0.21828 0.0
C29 C 0.80993 0.78715 0.08016 0.0
C30 C 0.8111 0.6664 0.18734 0.0
C31 C 0.95122 0.79837 0.0365 0.0
O32 O 0.84412 0.81826 0.12358 0.0
O33 O 0.80886 0.74325 0.07046 0.0
O34 O 0.93886 0.75581 0.06909 0.0
O35 O 0.92828 0.8232 0.05671 0.0
C36 C 0.94352 0.80481 0.25247 0.0
O37 O 0.84115 0.67394 0.13617 0.0
O38 O 0.81476 0.70816 0.21382 0.0
In39 In 0.08817 0.18131 0.42744 0.0
O40 O 0.0641 0.12013 0.33787 0.0
O41 O 0.14584 0.18057 0.3499 0.0
C42 C -0.0042 0.15884 0.4881 0.0
C43 C 0.1177 0.27958 0.3809 0.0
C44 C 0.12585 0.14759 0.5317 0.0
O45 O -0.00115 0.12773 0.44466 0.0
O46 O 0.03864 0.20272 0.49781 0.0
O47 O 0.15607 0.19017 0.49912 0.0
O48 O 0.07808 0.12277 0.51149 0.0
C49 C 0.1117 0.14119 0.31572 0.0
O50 O 0.14023 0.27205 0.43204 0.0
O51 O 0.07958 0.2378 0.35444 0.0
In52 In 0.75112 0.89339 0.42746 0.0
O53 O 0.8123 0.9305 0.33789 0.0
O54 O 0.75188 0.95182 0.34994 0.0
C55 C 0.77359 0.82349 0.4881 0.0
C56 C 0.65285 0.82465 0.3809 0.0
C57 C 0.78483 0.96478 0.53173 0.0
O58 O 0.8047 0.85766 0.44468 0.0
O59 O 0.7297 0.82242 0.49781 0.0
O60 O 0.74226 0.95242 0.49915 0.0
O61 O 0.80966 0.94184 0.51152 0.0
C62 C 0.79125 0.95704 0.31576 0.0
O63 O 0.66039 0.8547 0.43206 0.0
O64 O 0.69462 0.8283 0.35444 0.0
In65 In 0.03903 0.84426 0.42743 0.0
O66 O 0.07771 0.79221 0.43205 0.0
O67 O 0.10413 0.85285 0.35443 0.0
C68 C -0.03237 0.80657 0.5317 0.0
C69 C -0.02461 0.82074 0.31571 0.0
C70 C 0.10894 0.93664 0.48806 0.0
O71 O -0.02003 0.77636 0.4991 0.0
O72 O -0.0094 0.85435 0.5115 0.0
O73 O 0.07477 0.93358 0.44463 0.0
O74 O 0.11 0.89381 0.49778 0.0
C75 C 0.10777 0.81473 0.3809 0.0
O76 O 0.00194 0.86834 0.33786 0.0
O77 O -0.01939 0.78659 0.34989 0.0
In78 In 0.75111 0.84426 0.92745 0.0
O79 O 0.81228 0.86832 0.83787 0.0
O80 O 0.75186 0.78657 0.84995 0.0
C81 C 0.77362 0.93662 0.98812 0.0
C82 C 0.65285 0.81474 0.8809 0.0
C83 C 0.78483 0.80657 1.03169 0.0
O84 O 0.80472 0.93358 0.94466 0.0
O85 O 0.72972 0.8938 0.99783 0.0
O86 O 0.74222 0.77636 0.99917 0.0
O87 O 0.80968 0.85434 1.01147 0.0
C88 C 0.79124 0.82071 0.81576 0.0
O89 O 0.66038 0.79221 0.93205 0.0
O90 O 0.69463 0.85285 0.85444 0.0
In91 In 0.08817 0.89339 0.92743 0.0
O92 O 0.1402 0.8547 0.93205 0.0
O93 O 0.07957 0.8283 0.85443 0.0
C94 C 0.12586 0.96481 1.03167 0.0
C95 C 0.11171 0.95705 0.81573 0.0
C96 C -0.00421 0.82352 0.98808 0.0
O97 O 0.15607 0.95242 0.99913 0.0
O98 O 0.07809 0.94186 1.01147 0.0
O99 O -0.00116 0.85767 0.94462 0.0
O100 O 0.0386 0.82243 0.99779 0.0
C101 C 0.11768 0.82464 0.8809 0.0
O102 O 0.0641 0.93049 0.83786 0.0
O103 O 0.14585 0.95183 0.84991 0.0
In104 In 0.03904 0.1813 0.92746 0.0
O105 O 0.00193 0.12014 0.83788 0.0
O106 O -0.01941 0.18054 0.84996 0.0
C107 C 0.1089 0.1588 0.98811 0.0
C108 C 0.10779 0.27957 0.88091 0.0
C109 C -0.03237 0.14759 1.03171 0.0
O110 O 0.07475 0.12769 0.94466 0.0
O111 O 0.11001 0.20271 0.99781 0.0
O112 O -0.01996 0.19019 0.99917 0.0
O113 O -0.00944 0.12275 1.0115 0.0
C114 C -0.02464 0.14117 0.81578 0.0
O115 O 0.07774 0.27203 0.93207 0.0
O116 O 0.10412 0.2378 0.85443 0.0
In117 In 0.8307 0.76466 0.6408 0.0
O118 O 0.85477 0.82583 0.73037 0.0
O119 O 0.77303 0.76539 0.71835 0.0
C120 C 0.92306 0.78716 0.58012 0.0
C121 C 0.8012 0.6664 0.68734 0.0
C122 C 0.79301 0.79838 0.53658 0.0
O123 O 0.92003 0.81826 0.62359 0.0
O124 O 0.88024 0.74326 0.57041 0.0
O125 O 0.76281 0.75577 0.56911 0.0
O126 O 0.84078 0.82322 0.55679 0.0
C127 C 0.80717 0.80477 0.75252 0.0
O128 O 0.77866 0.67393 0.6362 0.0
O129 O 0.83931 0.70817 0.7138 0.0
In130 In 0.16776 0.05258 0.64078 0.0
O131 O 0.25849 0.09128 0.63618 0.0
O132 O 0.22425 0.11767 0.7138 0.0
C133 C 0.13404 -0.01883 0.53654 0.0
C134 C 0.12764 -0.01107 0.75249 0.0
C135 C 0.14526 0.12244 0.58012 0.0
O136 O 0.17665 -0.00642 0.56908 0.0
O137 O 0.1092 0.00409 0.55676 0.0
O138 O 0.11416 0.08829 0.62357 0.0
O139 O 0.18917 0.12354 0.57041 0.0
C140 C 0.26602 0.12133 0.68734 0.0
O141 O 0.10659 0.01547 0.73036 0.0
O142 O 0.16701 -0.00585 0.7183 0.0
In143 In 0.87985 0.10172 0.64081 0.0
O144 O 0.91695 0.07764 0.73038 0.0
O145 O 0.93827 0.15939 0.71836 0.0
C146 C 0.80998 0.00934 0.58015 0.0
C147 C 0.8111 0.13122 0.68734 0.0
C148 C 0.95127 0.13942 0.53658 0.0
O149 O 0.84412 0.01239 0.62362 0.0
O150 O 0.80889 0.05216 0.57044 0.0
O151 O 0.93889 0.16962 0.56912 0.0
O152 O 0.92832 0.09164 0.55678 0.0
C153 C 0.94349 0.12524 0.75253 0.0
O154 O 0.84117 0.15376 0.6362 0.0
O155 O 0.81475 0.09311 0.71381 0.0
In156 In 0.83443 0.43504 0.47413 0.0
O157 O 0.77325 0.41097 0.5637 0.0
O158 O 0.83366 0.49272 0.55163 0.0
C159 C 0.81195 0.34266 0.41348 0.0
C160 C 0.93269 0.46457 0.52068 0.0
C161 C 0.80071 0.47272 0.36985 0.0
O162 O 0.78084 0.34571 0.45691 0.0
O163 O 0.85584 0.3855 0.40377 0.0
O164 O 0.84329 0.50293 0.40243 0.0
O165 O 0.77589 0.42494 0.39007 0.0
C166 C 0.79429 0.45858 0.58581 0.0
O167 O 0.92516 0.4871 0.46952 0.0
O168 O 0.89092 0.42646 0.54714 0.0
In169 In 0.49738 0.38592 0.47415 0.0
O170 O 0.52146 0.34882 0.56372 0.0
O171 O 0.43971 0.32747 0.55167 0.0
C172 C 0.58977 0.45583 0.41352 0.0
C173 C 0.46785 0.45465 0.52068 0.0
C174 C 0.4597 0.31452 0.36988 0.0
O175 O 0.58671 0.42165 0.45695 0.0
O176 O 0.54695 0.45689 0.40381 0.0
O177 O 0.42949 0.32686 0.40247 0.0
O178 O 0.50748 0.33749 0.39008 0.0
C179 C 0.47385 0.32225 0.58585 0.0
O180 O 0.44533 0.42459 0.46953 0.0
O181 O 0.50596 0.451 0.54716 0.0
In182 In 0.54651 0.098 0.47412 0.0
O183 O 0.50782 0.00727 0.46951 0.0
O184 O 0.48143 0.0415 0.54715 0.0
C185 C 0.61789 0.1317 0.36983 0.0
C186 C 0.61019 0.13814 0.5858 0.0
C187 C 0.47661 0.12048 0.4135 0.0
O188 O 0.60553 0.08914 0.40243 0.0
O189 O 0.59495 0.15653 0.39004 0.0
O190 O 0.51079 0.1516 0.45691 0.0
O191 O 0.47553 0.07659 0.40379 0.0
C192 C 0.47777 -0.00027 0.52068 0.0
O193 O 0.58362 0.15917 0.56369 0.0
O194 O 0.60496 0.09877 0.55161 0.0
In195 In 0.75484 0.51464 0.76077 0.0
O196 O 0.73076 0.45345 0.6712 0.0
O197 O 0.81251 0.51389 0.68323 0.0
C198 C 0.66247 0.49216 0.82144 0.0
C199 C 0.78436 0.6129 0.71423 0.0
C200 C 0.79252 0.48092 0.86503 0.0
O201 O 0.66551 0.46105 0.778 0.0
O202 O 0.7053 0.53605 0.83115 0.0
O203 O 0.82273 0.52349 0.83245 0.0
O204 O 0.74474 0.45609 0.84482 0.0
C205 C 0.77836 0.47451 0.64906 0.0
O206 O 0.80689 0.60537 0.76537 0.0
O207 O 0.74624 0.57113 0.68777 0.0
In208 In 0.41778 0.22672 0.7608 0.0
O209 O 0.32705 0.18803 0.7654 0.0
O210 O 0.36129 0.16164 0.68778 0.0
C211 C 0.45149 0.29811 0.86507 0.0
C212 C 0.45792 0.29038 0.64909 0.0
C213 C 0.44026 0.15682 0.82143 0.0
O214 O 0.40893 0.28575 0.83248 0.0
O215 O 0.47632 0.27517 0.84486 0.0
O216 O 0.47137 0.191 0.77801 0.0
O217 O 0.39637 0.15575 0.83114 0.0
C218 C 0.31952 0.15798 0.71424 0.0
O219 O 0.47896 0.26383 0.67123 0.0
O220 O 0.41855 0.28516 0.68328 0.0
In221 In 0.7057 0.17759 0.76076 0.0
O222 O 0.74438 0.12553 0.76538 0.0
O223 O 0.7708 0.18618 0.68776 0.0
C224 C 0.6343 0.1399 0.86503 0.0
C225 C 0.64206 0.15407 0.64904 0.0
C226 C 0.77561 0.26997 0.8214 0.0
O227 O 0.64664 0.10969 0.83243 0.0
O228 O 0.65727 0.18768 0.84483 0.0
O229 O 0.74145 0.26691 0.77796 0.0
O230 O 0.77667 0.22714 0.83111 0.0
C231 C 0.77444 0.14806 0.71423 0.0
O232 O 0.66861 0.20167 0.67119 0.0
O233 O 0.64728 0.11992 0.68322 0.0
In234 In 0.41779 0.17759 0.26078 0.0
O235 O 0.47895 0.20165 0.1712 0.0
O236 O 0.41854 0.11991 0.18328 0.0
C237 C 0.44029 0.26996 0.32146 0.0
C238 C 0.31953 0.14808 0.21424 0.0
C239 C 0.45151 0.1399 0.36502 0.0
O240 O 0.47139 0.26692 0.27799 0.0
O241 O 0.39639 0.22714 0.33117 0.0
O242 O 0.4089 0.1097 0.3325 0.0
O243 O 0.47635 0.18767 0.3448 0.0
C244 C 0.45791 0.15405 0.14909 0.0
O245 O 0.32705 0.12555 0.26539 0.0
O246 O 0.3613 0.18619 0.18777 0.0
In247 In 0.75483 0.22672 0.26076 0.0
O248 O 0.73077 0.26382 0.17119 0.0
O249 O 0.81252 0.28516 0.18324 0.0
C250 C 0.66246 0.15685 0.32141 0.0
C251 C 0.78435 0.15797 0.21423 0.0
C252 C 0.79253 0.29814 0.365 0.0
O253 O 0.66551 0.191 0.27795 0.0
O254 O 0.70527 0.15576 0.33113 0.0
O255 O 0.82273 0.28575 0.33246 0.0
O256 O 0.74476 0.27519 0.3448 0.0
C257 C 0.77837 0.29038 0.14906 0.0
O258 O 0.80687 0.18803 0.26538 0.0
O259 O 0.74624 0.16163 0.18776 0.0
In260 In 0.70571 0.51464 0.26079 0.0
O261 O 0.66859 0.45347 0.17122 0.0
O262 O 0.64726 0.51387 0.1833 0.0
C263 C 0.77557 0.49213 0.32144 0.0
C264 C 0.77446 0.6129 0.21424 0.0
C265 C 0.6343 0.48093 0.36505 0.0
O266 O 0.74141 0.46102 0.27799 0.0
O267 O 0.77667 0.53604 0.33114 0.0
O268 O 0.64671 0.52353 0.33251 0.0
O269 O 0.65723 0.45609 0.34484 0.0
C270 C 0.64203 0.47451 0.14911 0.0
O271 O 0.7444 0.60537 0.26541 0.0
O272 O 0.77079 0.57113 0.18777 0.0
In273 In 0.49738 0.098 0.97414 0.0
O274 O 0.44533 0.00726 0.96954 0.0
O275 O 0.50598 0.04151 0.04713 0.0
C276 C 0.45968 0.13172 0.86991 0.0
C277 C 0.47385 0.13811 0.08585 0.0
C278 C 0.58973 0.12049 0.91345 0.0
O279 O 0.42948 0.08911 0.90244 0.0
O280 O 0.50745 0.15656 0.89012 0.0
O281 O 0.5867 0.15159 0.95692 0.0
O282 O 0.54691 0.0766 0.90374 0.0
C283 C 0.46787 -0.00027 1.02068 0.0
O284 O 0.52144 0.15917 0.0637 0.0
O285 O 0.4397 0.09873 0.05168 0.0
In286 In 0.83443 0.38591 0.97411 0.0
O287 O 0.92516 0.42461 0.96951 0.0
O288 O 0.89092 0.451 0.04713 0.0
C289 C 0.80072 0.3145 0.86987 0.0
C290 C 0.79431 0.32226 0.08582 0.0
C291 C 0.81193 0.45577 0.91345 0.0
O292 O 0.84332 0.32691 0.90241 0.0
O293 O 0.77587 0.33742 0.89008 0.0
O294 O 0.78083 0.42162 0.95691 0.0
O295 O 0.85583 0.45687 0.90374 0.0
C296 C 0.93269 0.45467 1.02067 0.0
O297 O 0.77326 0.3488 0.06369 0.0
O298 O 0.83368 0.32749 0.05163 0.0
In299 In 0.54651 0.43505 0.97415 0.0
O300 O 0.58361 0.41098 0.06372 0.0
O301 O 0.60493 0.49272 0.05169 0.0
C302 C 0.47664 0.34268 0.91349 0.0
C303 C 0.47776 0.46456 1.02068 0.0
C304 C 0.61794 0.47275 0.86991 0.0
O305 O 0.51078 0.34572 0.95696 0.0
O306 O 0.47556 0.38549 0.90378 0.0
O307 O 0.60555 0.50295 0.90246 0.0
O308 O 0.59499 0.42497 0.89011 0.0
C309 C 0.61015 0.45857 0.08587 0.0
O310 O 0.50783 0.48709 0.96953 0.0
O311 O 0.48141 0.42645 0.04714 0.0
In312 In 0.50109 0.76837 0.80746 0.0
O313 O 0.43992 0.7443 0.89704 0.0
O314 O 0.50033 0.82606 0.88496 0.0
C315 C 0.47861 0.676 0.74681 0.0
C316 C 0.59936 0.7979 0.85401 0.0
C317 C 0.46738 0.80605 0.70319 0.0
O318 O 0.4475 0.67905 0.79024 0.0
O319 O 0.5225 0.71883 0.7371 0.0
O320 O 0.50995 0.83626 0.73577 0.0
O321 O 0.44255 0.75828 0.72341 0.0
C322 C 0.46095 0.79191 0.91915 0.0
O323 O 0.59183 0.82043 0.80286 0.0
O324 O 0.55758 0.75979 0.88048 0.0
In325 In 0.16405 0.71925 0.80749 0.0
O326 O 0.112 0.75793 0.80286 0.0
O327 O 0.17263 0.78434 0.88049 0.0
C328 C 0.12637 0.64786 0.70321 0.0
C329 C 0.14052 0.65558 0.91918 0.0
C330 C 0.25644 0.78916 0.74686 0.0
O331 O 0.09615 0.6602 0.73581 0.0
O332 O 0.17414 0.67082 0.72341 0.0
O333 O 0.25337 0.75499 0.79028 0.0
O334 O 0.21361 0.79022 0.73714 0.0
C335 C 0.13452 0.78799 0.85402 0.0
O336 O 0.18812 0.68216 0.89706 0.0
O337 O 0.10637 0.66081 0.885 0.0
In338 In 0.21317 0.43133 0.80745 0.0
O339 O 0.17448 0.3406 0.80284 0.0
O340 O 0.1481 0.37483 0.88048 0.0
C341 C 0.28456 0.46504 0.70316 0.0
C342 C 0.27686 0.47148 0.91913 0.0
C343 C 0.14327 0.45381 0.74683 0.0
O344 O 0.2722 0.42247 0.73576 0.0
O345 O 0.26161 0.48986 0.72337 0.0
O346 O 0.17746 0.48493 0.79024 0.0
O347 O 0.14219 0.40992 0.73713 0.0
C348 C 0.14443 0.33306 0.85401 0.0
O349 O 0.25028 0.49251 0.89703 0.0
O350 O 0.27163 0.43211 0.88494 0.0
In351 In 0.4215 0.84797 0.09411 0.0
O352 O 0.39742 0.78679 1.00454 0.0
O353 O 0.47917 0.84723 1.01656 0.0
C354 C 0.32913 0.8255 0.15477 0.0
C355 C 0.45103 0.94624 0.04756 0.0
C356 C 0.45918 0.81425 0.19837 0.0
O357 O 0.33217 0.79439 0.11133 0.0
O358 O 0.37197 0.86939 0.16448 0.0
O359 O 0.4894 0.85683 0.16578 0.0
O360 O 0.41141 0.78943 0.17816 0.0
C361 C 0.44502 0.80785 0.98239 0.0
O362 O 0.47356 0.93871 0.09871 0.0
O363 O 0.41291 0.90447 1.02111 0.0
In364 In 0.08445 0.56006 0.09413 0.0
O365 O 0.14563 0.59717 1.00456 0.0
O366 O 0.08521 0.61849 1.01661 0.0
C367 C 0.10692 0.49016 0.15477 0.0
C368 C -0.01382 0.49131 0.04757 0.0
C369 C 0.11816 0.63145 0.1984 0.0
O370 O 0.13804 0.52433 0.11135 0.0
O371 O 0.06303 0.48909 0.16448 0.0
O372 O 0.07559 0.61909 0.16581 0.0
O373 O 0.14298 0.60851 0.17819 0.0
C374 C 0.12458 0.62372 0.98243 0.0
O375 O -0.00628 0.52137 0.09873 0.0
O376 O 0.02795 0.49497 1.02111 0.0
In377 In 0.37237 0.51092 0.09409 0.0
O378 O 0.41104 0.45887 0.09871 0.0
O379 O 0.43746 0.51951 1.02109 0.0
C380 C 0.30096 0.47324 0.19836 0.0
C381 C 0.30873 0.48741 0.98238 0.0
C382 C 0.44228 0.60331 0.15473 0.0
O383 O 0.3133 0.44302 0.16576 0.0
O384 O 0.32393 0.52102 0.17816 0.0
O385 O 0.40811 0.60025 0.11129 0.0
O386 O 0.44333 0.56048 0.16444 0.0
C387 C 0.44111 0.4814 0.04756 0.0
O388 O 0.33527 0.535 1.00453 0.0
O389 O 0.31394 0.45326 1.01655 0.0
In390 In 0.08445 0.51093 0.59412 0.0
O391 O 0.14562 0.53499 0.50454 0.0
O392 O 0.0852 0.45324 0.51661 0.0
C393 C 0.10695 0.60329 0.65479 0.0
C394 C -0.01381 0.48141 0.54757 0.0
C395 C 0.11817 0.47324 0.69836 0.0
O396 O 0.13806 0.60025 0.61133 0.0
O397 O 0.06305 0.56047 0.6645 0.0
O398 O 0.07556 0.44304 0.66583 0.0
O399 O 0.14301 0.52101 0.67814 0.0
C400 C 0.12458 0.48738 0.48243 0.0
O401 O -0.00628 0.45888 0.59872 0.0
O402 O 0.02796 0.51952 0.52111 0.0
In403 In 0.4215 0.56005 0.59409 0.0
O404 O 0.47354 0.52137 0.59872 0.0
O405 O 0.41291 0.49496 0.52109 0.0
C406 C 0.45919 0.63147 0.69834 0.0
C407 C 0.44504 0.62372 0.4824 0.0
C408 C 0.32912 0.49018 0.65475 0.0
O409 O 0.4894 0.61908 0.66579 0.0
O410 O 0.41142 0.60852 0.67813 0.0
O411 O 0.33217 0.52433 0.61129 0.0
O412 O 0.37193 0.48909 0.66446 0.0
C413 C 0.45101 0.49131 0.54756 0.0
O414 O 0.39744 0.59715 0.50452 0.0
O415 O 0.47918 0.61849 0.51657 0.0
In416 In 0.37237 0.84797 0.59413 0.0
O417 O 0.41107 0.9387 0.59874 0.0
O418 O 0.43745 0.90447 0.5211 0.0
C419 C 0.30096 0.81426 0.69838 0.0
C420 C 0.30869 0.80784 0.48244 0.0
C421 C 0.44223 0.82546 0.65477 0.0
O422 O 0.31337 0.85686 0.66584 0.0
O423 O 0.32389 0.78942 0.67817 0.0
O424 O 0.40807 0.79436 0.61133 0.0
O425 O 0.44334 0.86937 0.66448 0.0
C426 C 0.44112 0.94624 0.54757 0.0
O427 O 0.33526 0.7868 0.50455 0.0
O428 O 0.31392 0.84721 0.51663 0.0
In429 In 0.16404 0.43133 0.30747 0.0
O430 O 0.11199 0.3406 0.30287 0.0
O431 O 0.17265 0.37484 0.38047 0.0
C432 C 0.12634 0.46506 0.20325 0.0
C433 C 0.14051 0.47144 0.41919 0.0
C434 C 0.2564 0.45383 0.24678 0.0
O435 O 0.09614 0.42245 0.23577 0.0
O436 O 0.17412 0.4899 0.22346 0.0
O437 O 0.25337 0.48493 0.29025 0.0
O438 O 0.21358 0.40993 0.23707 0.0
C439 C 0.13453 0.33307 0.35401 0.0
O440 O 0.18811 0.49251 0.39704 0.0
O441 O 0.10637 0.43206 0.38501 0.0
In442 In 0.5011 0.71925 0.30745 0.0
O443 O 0.43992 0.68213 0.39702 0.0
O444 O 0.50035 0.66082 0.38497 0.0
C445 C 0.4786 0.78911 0.24678 0.0
C446 C 0.59936 0.788 0.354 0.0
C447 C 0.46738 0.64783 0.20321 0.0
O448 O 0.44749 0.75496 0.29024 0.0
O449 O 0.5225 0.79021 0.23708 0.0
O450 O 0.50998 0.66024 0.23574 0.0
O451 O 0.44254 0.67076 0.22342 0.0
C452 C 0.46098 0.65559 0.41915 0.0
O453 O 0.59183 0.75794 0.30284 0.0
O454 O 0.55759 0.78434 0.38046 0.0
In455 In 0.21318 0.76838 0.30748 0.0
O456 O 0.1745 0.82043 0.30287 0.0
O457 O 0.14808 0.75978 0.38048 0.0
C458 C 0.2846 0.80608 0.20325 0.0
C459 C 0.27682 0.79191 0.4192 0.0
C460 C 0.14331 0.67601 0.24682 0.0
O461 O 0.27222 0.83629 0.23579 0.0
O462 O 0.26165 0.75831 0.22345 0.0
O463 O 0.17745 0.67906 0.29029 0.0
O464 O 0.14222 0.71883 0.23711 0.0
C465 C 0.14443 0.79789 0.35401 0.0
O466 O 0.25027 0.74431 0.39705 0.0
O467 O 0.27159 0.82606 0.38503 0.0
loop_
_geom_bond_atom_site_label_1
_geom_bond_atom_site_label_2
_geom_bond_distance
_geom_bond_site_symmetry_2
_ccdc_geom_bond_type
In0 O1 2.294 . S
In0 O2 2.326 . S
In0 O6 2.266 . S
In0 O7 2.326 . S
In0 O8 2.266 . S
In0 O9 2.326 . S
In0 O11 2.294 . S
In0 O12 2.326 . S
O1 In0 2.294 . S
O1 C10 1.240 . S
O2 In0 2.326 . S
O2 C10 1.252 . S
C3 O6 1.252 . S
C3 O7 1.260 . S
C4 O11 1.240 . S
C4 O12 1.252 . S
C5 O8 1.252 . S
C5 O9 1.260 . S
O6 In0 2.266 . S
O6 C3 1.252 . S
O7 In0 2.326 . S
O7 C3 1.260 . S
O8 In0 2.266 . S
O8 C5 1.252 . S
O9 In0 2.326 . S
O9 C5 1.260 . S
C10 O1 1.240 . S
C10 O2 1.252 . S
O11 In0 2.294 . S
O11 C4 1.240 . S
O12 In0 2.326 . S
O12 C4 1.252 . S
In13 O14 2.294 . S
In13 O15 2.326 . S
In13 O19 2.266 . S
In13 O20 2.326 . S
In13 O21 2.266 . S
In13 O22 2.326 1_545 S
In13 O24 2.294 . S
In13 O25 2.326 . S
O14 In13 2.294 . S
O14 C23 1.240 . S
O15 In13 2.326 . S
O15 C23 1.252 . S
C16 O19 1.252 . S
C16 O20 1.260 . S
C17 O24 1.240 . S
C17 O25 1.252 . S
C18 O21 1.252 1_565 S
C18 O22 1.260 . S
O19 In13 2.266 . S
O19 C16 1.252 . S
O20 In13 2.326 . S
O20 C16 1.260 . S
O21 In13 2.266 . S
O21 C18 1.252 1_545 S
O22 In13 2.326 1_565 S
O22 C18 1.260 . S
C23 O14 1.240 . S
C23 O15 1.252 . S
O24 In13 2.294 . S
O24 C17 1.240 . S
O25 In13 2.326 . S
O25 C17 1.252 . S
In26 O27 2.294 . S
In26 O28 2.326 . S
In26 O32 2.266 . S
In26 O33 2.326 . S
In26 O34 2.266 . S
In26 O35 2.326 1_655 S
In26 O37 2.294 . S
In26 O38 2.326 . S
O27 In26 2.294 . S
O27 C36 1.240 . S
O28 In26 2.326 . S
O28 C36 1.252 . S
C29 O32 1.252 . S
C29 O33 1.260 . S
C30 O37 1.240 . S
C30 O38 1.252 . S
C31 O34 1.252 1_455 S
C31 O35 1.260 . S
O32 In26 2.266 . S
O32 C29 1.252 . S
O33 In26 2.326 . S
O33 C29 1.260 . S
O34 In26 2.266 . S
O34 C31 1.252 1_655 S
O35 In26 2.326 1_455 S
O35 C31 1.260 . S
C36 O27 1.240 . S
C36 O28 1.252 . S
O37 In26 2.294 . S
O37 C30 1.240 . S
O38 In26 2.326 . S
O38 C30 1.252 . S
In39 O40 2.294 . S
In39 O41 2.326 . S
In39 O45 2.266 . S
In39 O46 2.326 . S
In39 O47 2.266 . S
In39 O48 2.326 . S
In39 O50 2.294 . S
In39 O51 2.326 . S
O40 In39 2.294 . S
O40 C49 1.240 . S
O41 In39 2.326 . S
O41 C49 1.252 . S
C42 O45 1.252 . S
C42 O46 1.260 . S
C43 O50 1.240 . S
C43 O51 1.252 . S
C44 O47 1.252 . S
C44 O48 1.260 . S
O45 In39 2.266 . S
O45 C42 1.252 . S
O46 In39 2.326 . S
O46 C42 1.260 . S
O47 In39 2.266 . S
O47 C44 1.252 . S
O48 In39 2.326 . S
O48 C44 1.260 . S
C49 O40 1.240 . S
C49 O41 1.252 . S
O50 In39 2.294 . S
O50 C43 1.240 . S
O51 In39 2.326 . S
O51 C43 1.252 . S
In52 O53 2.294 . S
In52 O54 2.326 . S
In52 O58 2.266 . S
In52 O59 2.326 . S
In52 O60 2.266 . S
In52 O61 2.326 1_565 S
In52 O63 2.294 . S
In52 O64 2.326 . S
O53 In52 2.294 . S
O53 C62 1.240 . S
O54 In52 2.326 . S
O54 C62 1.252 . S
C55 O58 1.252 . S
C55 O59 1.260 . S
C56 O63 1.240 . S
C56 O64 1.252 . S
C57 O60 1.252 1_545 S
C57 O61 1.260 . S
O58 In52 2.266 . S
O58 C55 1.252 . S
O59 In52 2.326 . S
O59 C55 1.260 . S
O60 In52 2.266 . S
O60 C57 1.252 1_565 S
O61 In52 2.326 1_545 S
O61 C57 1.260 . S
C62 O53 1.240 . S
C62 O54 1.252 . S
O63 In52 2.294 . S
O63 C56 1.240 . S
O64 In52 2.326 . S
O64 C56 1.252 . S
In65 O66 2.294 . S
In65 O67 2.326 . S
In65 O71 2.266 . S
In65 O72 2.326 1_455 S
In65 O73 2.266 . S
In65 O74 2.326 . S
In65 O76 2.294 . S
In65 O77 2.326 . S
O66 In65 2.294 . S
O66 C75 1.240 . S
O67 In65 2.326 . S
O67 C75 1.252 . S
C68 O71 1.252 1_655 S
C68 O72 1.260 . S
C69 O76 1.240 . S
C69 O77 1.252 . S
C70 O73 1.252 . S
C70 O74 1.260 . S
O71 In65 2.266 . S
O71 C68 1.252 1_455 S
O72 In65 2.326 1_655 S
O72 C68 1.260 . S
O73 In65 2.266 . S
O73 C70 1.252 . S
O74 In65 2.326 . S
O74 C70 1.260 . S
C75 O66 1.240 . S
C75 O67 1.252 . S
O76 In65 2.294 . S
O76 C69 1.240 . S
O77 In65 2.326 . S
O77 C69 1.252 . S
In78 O79 2.294 . S
In78 O80 2.326 . S
In78 O84 2.266 . S
In78 O85 2.326 . S
In78 O86 2.266 . S
In78 O87 2.326 . S
In78 O89 2.294 . S
In78 O90 2.326 . S
O79 In78 2.294 . S
O79 C88 1.240 . S
O80 In78 2.326 . S
O80 C88 1.252 . S
C81 O84 1.252 . S
C81 O85 1.260 . S
C82 O89 1.240 . S
C82 O90 1.252 . S
C83 O86 1.252 . S
C83 O87 1.260 . S
O84 In78 2.266 . S
O84 C81 1.252 . S
O85 In78 2.326 . S
O85 C81 1.260 . S
O86 In78 2.266 . S
O86 C83 1.252 . S
O87 In78 2.326 . S
O87 C83 1.260 . S
C88 O79 1.240 . S
C88 O80 1.252 . S
O89 In78 2.294 . S
O89 C82 1.240 . S
O90 In78 2.326 . S
O90 C82 1.252 . S
In91 O92 2.294 . S
In91 O93 2.326 . S
In91 O97 2.266 . S
In91 O98 2.326 1_565 S
In91 O99 2.266 . S
In91 O100 2.326 . S
In91 O102 2.294 . S
In91 O103 2.326 . S
O92 In91 2.294 . S
O92 C101 1.240 . S
O93 In91 2.326 . S
O93 C101 1.252 . S
C94 O97 1.252 1_545 S
C94 O98 1.260 . S
C95 O102 1.240 . S
C95 O103 1.252 . S
C96 O99 1.252 . S
C96 O100 1.260 . S
O97 In91 2.266 . S
O97 C94 1.252 1_565 S
O98 In91 2.326 1_545 S
O98 C94 1.260 . S
O99 In91 2.266 . S
O99 C96 1.252 . S
O100 In91 2.326 . S
O100 C96 1.260 . S
C101 O92 1.240 . S
C101 O93 1.252 . S
O102 In91 2.294 . S
O102 C95 1.240 . S
O103 In91 2.326 . S
O103 C95 1.252 . S
In104 O105 2.294 . S
In104 O106 2.326 . S
In104 O110 2.266 . S
In104 O111 2.326 . S
In104 O112 2.266 . S
In104 O113 2.326 1_455 S
In104 O115 2.294 . S
In104 O116 2.326 . S
O105 In104 2.294 . S
O105 C114 1.240 . S
O106 In104 2.326 . S
O106 C114 1.252 . S
C107 O110 1.252 . S
C107 O111 1.260 . S
C108 O115 1.240 . S
C108 O116 1.252 . S
C109 O112 1.252 1_655 S
C109 O113 1.260 . S
O110 In104 2.266 . S
O110 C107 1.252 . S
O111 In104 2.326 . S
O111 C107 1.260 . S
O112 In104 2.266 . S
O112 C109 1.252 1_455 S
O113 In104 2.326 1_655 S
O113 C109 1.260 . S
C114 O105 1.240 . S
C114 O106 1.252 . S
O115 In104 2.294 . S
O115 C108 1.240 . S
O116 In104 2.326 . S
O116 C108 1.252 . S
In117 O118 2.294 . S
In117 O119 2.326 . S
In117 O123 2.266 . S
In117 O124 2.326 . S
In117 O125 2.266 . S
In117 O126 2.326 . S
In117 O128 2.294 . S
In117 O129 2.326 . S
O118 In117 2.294 . S
O118 C127 1.240 . S
O119 In117 2.326 . S
O119 C127 1.252 . S
C120 O123 1.252 . S
C120 O124 1.260 . S
C121 O128 1.240 . S
C121 O129 1.252 . S
C122 O125 1.252 . S
C122 O126 1.260 . S
O123 In117 2.266 . S
O123 C120 1.252 . S
O124 In117 2.326 . S
O124 C120 1.260 . S
O125 In117 2.266 . S
O125 C122 1.252 . S
O126 In117 2.326 . S
O126 C122 1.260 . S
C127 O118 1.240 . S
C127 O119 1.252 . S
O128 In117 2.294 . S
O128 C121 1.240 . S
O129 In117 2.326 . S
O129 C121 1.252 . S
In130 O131 2.294 . S
In130 O132 2.326 . S
In130 O136 2.266 . S
In130 O137 2.326 1_545 S
In130 O138 2.266 . S
In130 O139 2.326 . S
In130 O141 2.294 . S
In130 O142 2.326 . S
O131 In130 2.294 . S
O131 C140 1.240 . S
O132 In130 2.326 . S
O132 C140 1.252 . S
C133 O136 1.252 1_565 S
C133 O137 1.260 . S
C134 O141 1.240 . S
C134 O142 1.252 . S
C135 O138 1.252 . S
C135 O139 1.260 . S
O136 In130 2.266 . S
O136 C133 1.252 1_545 S
O137 In130 2.326 1_565 S
O137 C133 1.260 . S
O138 In130 2.266 . S
O138 C135 1.252 . S
O139 In130 2.326 . S
O139 C135 1.260 . S
C140 O131 1.240 . S
C140 O132 1.252 . S
O141 In130 2.294 . S
O141 C134 1.240 . S
O142 In130 2.326 . S
O142 C134 1.252 . S
In143 O144 2.294 . S
In143 O145 2.326 . S
In143 O149 2.266 . S
In143 O150 2.326 . S
In143 O151 2.266 . S
In143 O152 2.326 1_655 S
In143 O154 2.294 . S
In143 O155 2.326 . S
O144 In143 2.294 . S
O144 C153 1.240 . S
O145 In143 2.326 . S
O145 C153 1.252 . S
C146 O149 1.252 . S
C146 O150 1.260 . S
C147 O154 1.240 . S
C147 O155 1.252 . S
C148 O151 1.252 1_455 S
C148 O152 1.260 . S
O149 In143 2.266 . S
O149 C146 1.252 . S
O150 In143 2.326 . S
O150 C146 1.260 . S
O151 In143 2.266 . S
O151 C148 1.252 1_655 S
O152 In143 2.326 1_455 S
O152 C148 1.260 . S
C153 O144 1.240 . S
C153 O145 1.252 . S
O154 In143 2.294 . S
O154 C147 1.240 . S
O155 In143 2.326 . S
O155 C147 1.252 . S
In156 O157 2.294 . S
In156 O158 2.326 . S
In156 O162 2.266 . S
In156 O163 2.326 . S
In156 O164 2.266 . S
In156 O165 2.326 . S
In156 O167 2.294 . S
In156 O168 2.326 . S
O157 In156 2.294 . S
O157 C166 1.240 . S
O158 In156 2.326 . S
O158 C166 1.252 . S
C159 O162 1.252 . S
C159 O163 1.260 . S
C160 O167 1.240 . S
C160 O168 1.252 . S
C161 O164 1.252 . S
C161 O165 1.260 . S
O162 In156 2.266 . S
O162 C159 1.252 . S
O163 In156 2.326 . S
O163 C159 1.260 . S
O164 In156 2.266 . S
O164 C161 1.252 . S
O165 In156 2.326 . S
O165 C161 1.260 . S
C166 O157 1.240 . S
C166 O158 1.252 . S
O167 In156 2.294 . S
O167 C160 1.240 . S
O168 In156 2.326 . S
O168 C160 1.252 . S
In169 O170 2.294 . S
In169 O171 2.326 . S
In169 O175 2.266 . S
In169 O176 2.326 . S
In169 O177 2.266 . S
In169 O178 2.326 . S
In169 O180 2.294 . S
In169 O181 2.326 . S
O170 In169 2.294 . S
O170 C179 1.240 . S
O171 In169 2.326 . S
O171 C179 1.252 . S
C172 O175 1.252 . S
C172 O176 1.260 . S
C173 O180 1.240 . S
C173 O181 1.252 . S
C174 O177 1.252 . S
C174 O178 1.260 . S
O175 In169 2.266 . S
O175 C172 1.252 . S
O176 In169 2.326 . S
O176 C172 1.260 . S
O177 In169 2.266 . S
O177 C174 1.252 . S
O178 In169 2.326 . S
O178 C174 1.260 . S
C179 O170 1.240 . S
C179 O171 1.252 . S
O180 In169 2.294 . S
O180 C173 1.240 . S
O181 In169 2.326 . S
O181 C173 1.252 . S
In182 O183 2.294 . S
In182 O184 2.326 . S
In182 O188 2.266 . S
In182 O189 2.326 . S
In182 O190 2.266 . S
In182 O191 2.326 . S
In182 O193 2.294 . S
In182 O194 2.326 . S
O183 In182 2.294 . S
O183 C192 1.240 . S
O184 In182 2.326 . S
O184 C192 1.252 . S
C185 O188 1.252 . S
C185 O189 1.260 . S
C186 O193 1.240 . S
C186 O194 1.252 . S
C187 O190 1.252 . S
C187 O191 1.260 . S
O188 In182 2.266 . S
O188 C185 1.252 . S
O189 In182 2.326 . S
O189 C185 1.260 . S
O190 In182 2.266 . S
O190 C187 1.252 . S
O191 In182 2.326 . S
O191 C187 1.260 . S
C192 O183 1.240 . S
C192 O184 1.252 . S
O193 In182 2.294 . S
O193 C186 1.240 . S
O194 In182 2.326 . S
O194 C186 1.252 . S
In195 O196 2.294 . S
In195 O197 2.326 . S
In195 O201 2.266 . S
In195 O202 2.326 . S
In195 O203 2.266 . S
In195 O204 2.326 . S
In195 O206 2.294 . S
In195 O207 2.326 . S
O196 In195 2.294 . S
O196 C205 1.240 . S
O197 In195 2.326 . S
O197 C205 1.252 . S
C198 O201 1.252 . S
C198 O202 1.260 . S
C199 O206 1.240 . S
C199 O207 1.252 . S
C200 O203 1.252 . S
C200 O204 1.260 . S
O201 In195 2.266 . S
O201 C198 1.252 . S
O202 In195 2.326 . S
O202 C198 1.260 . S
O203 In195 2.266 . S
O203 C200 1.252 . S
O204 In195 2.326 . S
O204 C200 1.260 . S
C205 O196 1.240 . S
C205 O197 1.252 . S
O206 In195 2.294 . S
O206 C199 1.240 . S
O207 In195 2.326 . S
O207 C199 1.252 . S
In208 O209 2.294 . S
In208 O210 2.326 . S
In208 O214 2.266 . S
In208 O215 2.326 . S
In208 O216 2.266 . S
In208 O217 2.326 . S
In208 O219 2.294 . S
In208 O220 2.326 . S
O209 In208 2.294 . S
O209 C218 1.240 . S
O210 In208 2.326 . S
O210 C218 1.252 . S
C211 O214 1.252 . S
C211 O215 1.260 . S
C212 O219 1.240 . S
C212 O220 1.252 . S
C213 O216 1.252 . S
C213 O217 1.260 . S
O214 In208 2.266 . S
O214 C211 1.252 . S
O215 In208 2.326 . S
O215 C211 1.260 . S
O216 In208 2.266 . S
O216 C213 1.252 . S
O217 In208 2.326 . S
O217 C213 1.260 . S
C218 O209 1.240 . S
C218 O210 1.252 . S
O219 In208 2.294 . S
O219 C212 1.240 . S
O220 In208 2.326 . S
O220 C212 1.252 . S
In221 O222 2.294 . S
In221 O223 2.326 . S
In221 O227 2.266 . S
In221 O228 2.326 . S
In221 O229 2.266 . S
In221 O230 2.326 . S
In221 O232 2.294 . S
In221 O233 2.326 . S
O222 In221 2.294 . S
O222 C231 1.240 . S
O223 In221 2.326 . S
O223 C231 1.252 . S
C224 O227 1.252 . S
C224 O228 1.260 . S
C225 O232 1.240 . S
C225 O233 1.252 . S
C226 O229 1.252 . S
C226 O230 1.260 . S
O227 In221 2.266 . S
O227 C224 1.252 . S
O228 In221 2.326 . S
O228 C224 1.260 . S
O229 In221 2.266 . S
O229 C226 1.252 . S
O230 In221 2.326 . S
O230 C226 1.260 . S
C231 O222 1.240 . S
C231 O223 1.252 . S
O232 In221 2.294 . S
O232 C225 1.240 . S
O233 In221 2.326 . S
O233 C225 1.252 . S
In234 O235 2.294 . S
In234 O236 2.326 . S
In234 O240 2.266 . S
In234 O241 2.326 . S
In234 O242 2.266 . S
In234 O243 2.326 . S
In234 O245 2.294 . S
In234 O246 2.326 . S
O235 In234 2.294 . S
O235 C244 1.240 . S
O236 In234 2.326 . S
O236 C244 1.252 . S
C237 O240 1.252 . S
C237 O241 1.260 . S
C238 O245 1.240 . S
C238 O246 1.252 . S
C239 O242 1.252 . S
C239 O243 1.260 . S
O240 In234 2.266 . S
O240 C237 1.252 . S
O241 In234 2.326 . S
O241 C237 1.260 . S
O242 In234 2.266 . S
O242 C239 1.252 . S
O243 In234 2.326 . S
O243 C239 1.260 . S
C244 O235 1.240 . S
C244 O236 1.252 . S
O245 In234 2.294 . S
O245 C238 1.240 . S
O246 In234 2.326 . S
O246 C238 1.252 . S
In247 O248 2.294 . S
In247 O249 2.326 . S
In247 O253 2.266 . S
In247 O254 2.326 . S
In247 O255 2.266 . S
In247 O256 2.326 . S
In247 O258 2.294 . S
In247 O259 2.326 . S
O248 In247 2.294 . S
O248 C257 1.240 . S
O249 In247 2.326 . S
O249 C257 1.252 . S
C250 O253 1.252 . S
C250 O254 1.260 . S
C251 O258 1.240 . S
C251 O259 1.252 . S
C252 O255 1.252 . S
C252 O256 1.260 . S
O253 In247 2.266 . S
O253 C250 1.252 . S
O254 In247 2.326 . S
O254 C250 1.260 . S
O255 In247 2.266 . S
O255 C252 1.252 . S
O256 In247 2.326 . S
O256 C252 1.260 . S
C257 O248 1.240 . S
C257 O249 1.252 . S
O258 In247 2.294 . S
O258 C251 1.240 . S
O259 In247 2.326 . S
O259 C251 1.252 . S
In260 O261 2.294 . S
In260 O262 2.326 . S
In260 O266 2.266 . S
In260 O267 2.326 . S
In260 O268 2.266 . S
In260 O269 2.326 . S
In260 O271 2.294 . S
In260 O272 2.326 . S
O261 In260 2.294 . S
O261 C270 1.240 . S
O262 In260 2.326 . S
O262 C270 1.252 . S
C263 O266 1.252 . S
C263 O267 1.260 . S
C264 O271 1.240 . S
C264 O272 1.252 . S
C265 O268 1.252 . S
C265 O269 1.260 . S
O266 In260 2.266 . S
O266 C263 1.252 . S
O267 In260 2.326 . S
O267 C263 1.260 . S
O268 In260 2.266 . S
O268 C265 1.252 . S
O269 In260 2.326 . S
O269 C265 1.260 . S
C270 O261 1.240 . S
C270 O262 1.252 . S
O271 In260 2.294 . S
O271 C264 1.240 . S
O272 In260 2.326 . S
O272 C264 1.252 . S
In273 O274 2.294 . S
In273 O275 2.326 1_556 S
In273 O279 2.266 . S
In273 O280 2.326 . S
In273 O281 2.266 . S
In273 O282 2.326 . S
In273 O284 2.294 1_556 S
In273 O285 2.326 1_556 S
O274 In273 2.294 . S
O274 C283 1.240 . S
O275 In273 2.326 1_554 S
O275 C283 1.252 1_554 S
C276 O279 1.252 . S
C276 O280 1.260 . S
C277 O284 1.240 . S
C277 O285 1.252 . S
C278 O281 1.252 . S
C278 O282 1.260 . S
O279 In273 2.266 . S
O279 C276 1.252 . S
O280 In273 2.326 . S
O280 C276 1.260 . S
O281 In273 2.266 . S
O281 C278 1.252 . S
O282 In273 2.326 . S
O282 C278 1.260 . S
C283 O274 1.240 . S
C283 O275 1.252 1_556 S
O284 In273 2.294 1_554 S
O284 C277 1.240 . S
O285 In273 2.326 1_554 S
O285 C277 1.252 . S
In286 O287 2.294 . S
In286 O288 2.326 1_556 S
In286 O292 2.266 . S
In286 O293 2.326 . S
In286 O294 2.266 . S
In286 O295 2.326 . S
In286 O297 2.294 1_556 S
In286 O298 2.326 1_556 S
O287 In286 2.294 . S
O287 C296 1.240 . S
O288 In286 2.326 1_554 S
O288 C296 1.252 1_554 S
C289 O292 1.252 . S
C289 O293 1.260 . S
C290 O297 1.240 . S
C290 O298 1.252 . S
C291 O294 1.252 . S
C291 O295 1.260 . S
O292 In286 2.266 . S
O292 C289 1.252 . S
O293 In286 2.326 . S
O293 C289 1.260 . S
O294 In286 2.266 . S
O294 C291 1.252 . S
O295 In286 2.326 . S
O295 C291 1.260 . S
C296 O287 1.240 . S
C296 O288 1.252 1_556 S
O297 In286 2.294 1_554 S
O297 C290 1.240 . S
O298 In286 2.326 1_554 S
O298 C290 1.252 . S
In299 O300 2.294 1_556 S
In299 O301 2.326 1_556 S
In299 O305 2.266 . S
In299 O306 2.326 . S
In299 O307 2.266 . S
In299 O308 2.326 . S
In299 O310 2.294 . S
In299 O311 2.326 1_556 S
O300 In299 2.294 1_554 S
O300 C309 1.240 . S
O301 In299 2.326 1_554 S
O301 C309 1.252 . S
C302 O305 1.252 . S
C302 O306 1.260 . S
C303 O310 1.240 . S
C303 O311 1.252 1_556 S
C304 O307 1.252 . S
C304 O308 1.260 . S
O305 In299 2.266 . S
O305 C302 1.252 . S
O306 In299 2.326 . S
O306 C302 1.260 . S
O307 In299 2.266 . S
O307 C304 1.252 . S
O308 In299 2.326 . S
O308 C304 1.260 . S
C309 O300 1.240 . S
C309 O301 1.252 . S
O310 In299 2.294 . S
O310 C303 1.240 . S
O311 In299 2.326 1_554 S
O311 C303 1.252 1_554 S
In312 O313 2.294 . S
In312 O314 2.326 . S
In312 O318 2.266 . S
In312 O319 2.326 . S
In312 O320 2.266 . S
In312 O321 2.326 . S
In312 O323 2.294 . S
In312 O324 2.326 . S
O313 In312 2.294 . S
O313 C322 1.240 . S
O314 In312 2.326 . S
O314 C322 1.252 . S
C315 O318 1.252 . S
C315 O319 1.260 . S
C316 O323 1.240 . S
C316 O324 1.252 . S
C317 O320 1.252 . S
C317 O321 1.260 . S
O318 In312 2.266 . S
O318 C315 1.252 . S
O319 In312 2.326 . S
O319 C315 1.260 . S
O320 In312 2.266 . S
O320 C317 1.252 . S
O321 In312 2.326 . S
O321 C317 1.260 . S
C322 O313 1.240 . S
C322 O314 1.252 . S
O323 In312 2.294 . S
O323 C316 1.240 . S
O324 In312 2.326 . S
O324 C316 1.252 . S
In325 O326 2.294 . S
In325 O327 2.326 . S
In325 O331 2.266 . S
In325 O332 2.326 . S
In325 O333 2.266 . S
In325 O334 2.326 . S
In325 O336 2.294 . S
In325 O337 2.326 . S
O326 In325 2.294 . S
O326 C335 1.240 . S
O327 In325 2.326 . S
O327 C335 1.252 . S
C328 O331 1.252 . S
C328 O332 1.260 . S
C329 O336 1.240 . S
C329 O337 1.252 . S
C330 O333 1.252 . S
C330 O334 1.260 . S
O331 In325 2.266 . S
O331 C328 1.252 . S
O332 In325 2.326 . S
O332 C328 1.260 . S
O333 In325 2.266 . S
O333 C330 1.252 . S
O334 In325 2.326 . S
O334 C330 1.260 . S
C335 O326 1.240 . S
C335 O327 1.252 . S
O336 In325 2.294 . S
O336 C329 1.240 . S
O337 In325 2.326 . S
O337 C329 1.252 . S
In338 O339 2.294 . S
In338 O340 2.326 . S
In338 O344 2.266 . S
In338 O345 2.326 . S
In338 O346 2.266 . S
In338 O347 2.326 . S
In338 O349 2.294 . S
In338 O350 2.326 . S
O339 In338 2.294 . S
O339 C348 1.240 . S
O340 In338 2.326 . S
O340 C348 1.252 . S
C341 O344 1.252 . S
C341 O345 1.260 . S
C342 O349 1.240 . S
C342 O350 1.252 . S
C343 O346 1.252 . S
C343 O347 1.260 . S
O344 In338 2.266 . S
O344 C341 1.252 . S
O345 In338 2.326 . S
O345 C341 1.260 . S
O346 In338 2.266 . S
O346 C343 1.252 . S
O347 In338 2.326 . S
O347 C343 1.260 . S
C348 O339 1.240 . S
C348 O340 1.252 . S
O349 In338 2.294 . S
O349 C342 1.240 . S
O350 In338 2.326 . S
O350 C342 1.252 . S
In351 O352 2.294 1_554 S
In351 O353 2.326 1_554 S
In351 O357 2.266 . S
In351 O358 2.326 . S
In351 O359 2.266 . S
In351 O360 2.326 . S
In351 O362 2.294 . S
In351 O363 2.326 1_554 S
O352 In351 2.294 1_556 S
O352 C361 1.240 . S
O353 In351 2.326 1_556 S
O353 C361 1.252 . S
C354 O357 1.252 . S
C354 O358 1.260 . S
C355 O362 1.240 . S
C355 O363 1.252 1_554 S
C356 O359 1.252 . S
C356 O360 1.260 . S
O357 In351 2.266 . S
O357 C354 1.252 . S
O358 In351 2.326 . S
O358 C354 1.260 . S
O359 In351 2.266 . S
O359 C356 1.252 . S
O360 In351 2.326 . S
O360 C356 1.260 . S
C361 O352 1.240 . S
C361 O353 1.252 . S
O362 In351 2.294 . S
O362 C355 1.240 . S
O363 In351 2.326 1_556 S
O363 C355 1.252 1_556 S
In364 O365 2.294 1_554 S
In364 O366 2.326 1_554 S
In364 O370 2.266 . S
In364 O371 2.326 . S
In364 O372 2.266 . S
In364 O373 2.326 . S
In364 O375 2.294 . S
In364 O376 2.326 1_554 S
O365 In364 2.294 1_556 S
O365 C374 1.240 . S
O366 In364 2.326 1_556 S
O366 C374 1.252 . S
C367 O370 1.252 . S
C367 O371 1.260 . S
C368 O375 1.240 . S
C368 O376 1.252 1_554 S
C369 O372 1.252 . S
C369 O373 1.260 . S
O370 In364 2.266 . S
O370 C367 1.252 . S
O371 In364 2.326 . S
O371 C367 1.260 . S
O372 In364 2.266 . S
O372 C369 1.252 . S
O373 In364 2.326 . S
O373 C369 1.260 . S
C374 O365 1.240 . S
C374 O366 1.252 . S
O375 In364 2.294 . S
O375 C368 1.240 . S
O376 In364 2.326 1_556 S
O376 C368 1.252 1_556 S
In377 O378 2.294 . S
In377 O379 2.326 1_554 S
In377 O383 2.266 . S
In377 O384 2.326 . S
In377 O385 2.266 . S
In377 O386 2.326 . S
In377 O388 2.294 1_554 S
In377 O389 2.326 1_554 S
O378 In377 2.294 . S
O378 C387 1.240 . S
O379 In377 2.326 1_556 S
O379 C387 1.252 1_556 S
C380 O383 1.252 . S
C380 O384 1.260 . S
C381 O388 1.240 . S
C381 O389 1.252 . S
C382 O385 1.252 . S
C382 O386 1.260 . S
O383 In377 2.266 . S
O383 C380 1.252 . S
O384 In377 2.326 . S
O384 C380 1.260 . S
O385 In377 2.266 . S
O385 C382 1.252 . S
O386 In377 2.326 . S
O386 C382 1.260 . S
C387 O378 1.240 . S
C387 O379 1.252 1_554 S
O388 In377 2.294 1_556 S
O388 C381 1.240 . S
O389 In377 2.326 1_556 S
O389 C381 1.252 . S
In390 O391 2.294 . S
In390 O392 2.326 . S
In390 O396 2.266 . S
In390 O397 2.326 . S
In390 O398 2.266 . S
In390 O399 2.326 . S
In390 O401 2.294 . S
In390 O402 2.326 . S
O391 In390 2.294 . S
O391 C400 1.240 . S
O392 In390 2.326 . S
O392 C400 1.252 . S
C393 O396 1.252 . S
C393 O397 1.260 . S
C394 O401 1.240 . S
C394 O402 1.252 . S
C395 O398 1.252 . S
C395 O399 1.260 . S
O396 In390 2.266 . S
O396 C393 1.252 . S
O397 In390 2.326 . S
O397 C393 1.260 . S
O398 In390 2.266 . S
O398 C395 1.252 . S
O399 In390 2.326 . S
O399 C395 1.260 . S
C400 O391 1.240 . S
C400 O392 1.252 . S
O401 In390 2.294 . S
O401 C394 1.240 . S
O402 In390 2.326 . S
O402 C394 1.252 . S
In403 O404 2.294 . S
In403 O405 2.326 . S
In403 O409 2.266 . S
In403 O410 2.326 . S
In403 O411 2.266 . S
In403 O412 2.326 . S
In403 O414 2.294 . S
In403 O415 2.326 . S
O404 In403 2.294 . S
O404 C413 1.240 . S
O405 In403 2.326 . S
O405 C413 1.252 . S
C406 O409 1.252 . S
C406 O410 1.260 . S
C407 O414 1.240 . S
C407 O415 1.252 . S
C408 O411 1.252 . S
C408 O412 1.260 . S
O409 In403 2.266 . S
O409 C406 1.252 . S
O410 In403 2.326 . S
O410 C406 1.260 . S
O411 In403 2.266 . S
O411 C408 1.252 . S
O412 In403 2.326 . S
O412 C408 1.260 . S
C413 O404 1.240 . S
C413 O405 1.252 . S
O414 In403 2.294 . S
O414 C407 1.240 . S
O415 In403 2.326 . S
O415 C407 1.252 . S
In416 O417 2.294 . S
In416 O418 2.326 . S
In416 O422 2.266 . S
In416 O423 2.326 . S
In416 O424 2.266 . S
In416 O425 2.326 . S
In416 O427 2.294 . S
In416 O428 2.326 . S
O417 In416 2.294 . S
O417 C426 1.240 . S
O418 In416 2.326 . S
O418 C426 1.252 . S
C419 O422 1.252 . S
C419 O423 1.260 . S
C420 O427 1.240 . S
C420 O428 1.252 . S
C421 O424 1.252 . S
C421 O425 1.260 . S
O422 In416 2.266 . S
O422 C419 1.252 . S
O423 In416 2.326 . S
O423 C419 1.260 . S
O424 In416 2.266 . S
O424 C421 1.252 . S
O425 In416 2.326 . S
O425 C421 1.260 . S
C426 O417 1.240 . S
C426 O418 1.252 . S
O427 In416 2.294 . S
O427 C420 1.240 . S
O428 In416 2.326 . S
O428 C420 1.252 . S
In429 O430 2.294 . S
In429 O431 2.326 . S
In429 O435 2.266 . S
In429 O436 2.326 . S
In429 O437 2.266 . S
In429 O438 2.326 . S
In429 O440 2.294 . S
In429 O441 2.326 . S
O430 In429 2.294 . S
O430 C439 1.240 . S
O431 In429 2.326 . S
O431 C439 1.252 . S
C432 O435 1.252 . S
C432 O436 1.260 . S
C433 O440 1.240 . S
C433 O441 1.252 . S
C434 O437 1.252 . S
C434 O438 1.260 . S
O435 In429 2.266 . S
O435 C432 1.252 . S
O436 In429 2.326 . S
O436 C432 1.260 . S
O437 In429 2.266 . S
O437 C434 1.252 . S
O438 In429 2.326 . S
O438 C434 1.260 . S
C439 O430 1.240 . S
C439 O431 1.252 . S
O440 In429 2.294 . S
O440 C433 1.240 . S
O441 In429 2.326 . S
O441 C433 1.252 . S
In442 O443 2.294 . S
In442 O444 2.326 . S
In442 O448 2.266 . S
In442 O449 2.326 . S
In442 O450 2.266 . S
In442 O451 2.326 . S
In442 O453 2.294 . S
In442 O454 2.326 . S
O443 In442 2.294 . S
O443 C452 1.240 . S
O444 In442 2.326 . S
O444 C452 1.252 . S
C445 O448 1.252 . S
C445 O449 1.260 . S
C446 O453 1.240 . S
C446 O454 1.252 . S
C447 O450 1.252 . S
C447 O451 1.260 . S
O448 In442 2.266 . S
O448 C445 1.252 . S
O449 In442 2.326 . S
O449 C445 1.260 . S
O450 In442 2.266 . S
O450 C447 1.252 . S
O451 In442 2.326 . S
O451 C447 1.260 . S
C452 O443 1.240 . S
C452 O444 1.252 . S
O453 In442 2.294 . S
O453 C446 1.240 . S
O454 In442 2.326 . S
O454 C446 1.252 . S
In455 O456 2.294 . S
In455 O457 2.326 . S
In455 O461 2.266 . S
In455 O462 2.326 . S
In455 O463 2.266 . S
In455 O464 2.326 . S
In455 O466 2.294 . S
In455 O467 2.326 . S
O456 In455 2.294 . S
O456 C465 1.240 . S
O457 In455 2.326 . S
O457 C465 1.252 . S
C458 O461 1.252 . S
C458 O462 1.260 . S
C459 O466 1.240 . S
C459 O467 1.252 . S
C460 O463 1.252 . S
C460 O464 1.260 . S
O461 In455 2.266 . S
O461 C458 1.252 . S
O462 In455 2.326 . S
O462 C458 1.260 . S
O463 In455 2.266 . S
O463 C460 1.252 . S
O464 In455 2.326 . S
O464 C460 1.260 . S
C465 O456 1.240 . S
C465 O457 1.252 . S
O466 In455 2.294 . S
O466 C459 1.240 . S
O467 In455 2.326 . S
O467 C459 1.252 . S
C3 C94 1.362 1_554 S
C16 C109 1.362 1_554 S
C83 C29 1.362 1_556 S
C148 C42 1.362 . S
C55 C122 1.362 . S
C70 C133 1.362 . S
C18 C81 1.362 1_554 S
C31 C96 1.362 1_554 S
C107 C5 1.362 1_556 S
C120 C68 1.362 . S
C44 C135 1.362 . S
C146 C57 1.362 . S
C252 C159 1.362 . S
C172 C265 1.362 . S
C187 C239 1.362 . S
C304 C198 1.362 . S
C213 C276 1.362 . S
C289 C226 1.362 . S
C174 C237 1.362 . S
C250 C185 1.362 . S
C161 C263 1.362 . S
C278 C224 1.362 . S
C291 C200 1.362 . S
C302 C211 1.362 . S
C406 C315 1.362 . S
C419 C330 1.362 . S
C395 C343 1.362 . S
C354 C458 1.362 . S
C367 C432 1.362 . S
C447 C382 1.362 . S
C393 C328 1.362 . S
C341 C408 1.362 . S
C317 C421 1.362 . S
C434 C380 1.362 . S
C445 C356 1.362 . S
C460 C369 1.362 . S
C49 C10 1.627 . S
C62 C23 1.627 1_565 S
C36 C69 1.627 1_655 S
C127 C88 1.627 . S
C134 C95 1.627 1_545 S
C153 C114 1.627 1_655 S
C205 C166 1.627 . S
C212 C179 1.627 . S
C186 C225 1.627 . S
C277 C244 1.627 . S
C290 C257 1.627 . S
C309 C270 1.627 . S
C361 C322 1.627 . S
C329 C374 1.627 . S
C381 C342 1.627 . S
C400 C433 1.627 . S
C407 C452 1.627 . S
C420 C459 1.627 . S
C4 C238 1.510 . S
C251 C17 1.510 . S
C264 C30 1.510 . S
C439 C43 1.510 . S
C446 C56 1.510 . S
C465 C75 1.510 . S
C82 C316 1.510 . S
C335 C101 1.510 . S
C348 C108 1.510 . S
C121 C199 1.510 . S
C140 C218 1.510 . S
C147 C231 1.510 . S
C394 C160 1.510 1_455 S
C413 C173 1.510 . S
C192 C426 1.510 1_545 S
C283 C355 1.510 1_546 S
C296 C368 1.510 1_656 S
C303 C387 1.510 1_556 S
