# Generated by pormake.
# Topology wjd, (6)-cn, num edge types: 1
# Building blocks:
#     Node 0, Type 0, BuildingBlock: VOLQOD_clean_sbu_1, # of connection points: 6
#     Node 1, Type 0, BuildingBlock: VOLQOD_clean_sbu_1, # of connection points: 6
#     Node 2, Type 0, BuildingBlock: VOLQOD_clean_sbu_1, # of connection points: 6
#     Node 3, Type 0, BuildingBlock: VOLQOD_clean_sbu_1, # of connection points: 6
#     Node 4, Type 0, BuildingBlock: VOLQOD_clean_sbu_1, # of connection points: 6
#     Node 5, Type 0, BuildingBlock: VOLQOD_clean_sbu_1, # of connection points: 6
#     Node 6, Type 0, BuildingBlock: VOLQOD_clean_sbu_1, # of connection points: 6
#     Node 7, Type 0, BuildingBlock: VOLQOD_clean_sbu_1, # of connection points: 6
#     Node 8, Type 0, BuildingBlock: VOLQOD_clean_sbu_1, # of connection points: 6
#     Node 9, Type 0, BuildingBlock: VOLQOD_clean_sbu_1, # of connection points: 6
#     Node 10, Type 0, BuildingBlock: VOLQOD_clean_sbu_1, # of connection points: 6
#     Node 11, Type 0, BuildingBlock: VOLQOD_clean_sbu_1, # of connection points: 6
#     Edge 12, Type (0, 0), BuildingBlock: UVAHIK_clean_linker_0, # of connection points: 2
#     Edge 13, Type (0, 0), BuildingBlock: UVAHIK_clean_linker_0, # of connection points: 2
#     Edge 14, Type (0, 0), BuildingBlock: UVAHIK_clean_linker_0, # of connection points: 2
#     Edge 15, Type (0, 0), BuildingBlock: UVAHIK_clean_linker_0, # of connection points: 2
#     Edge 16, Type (0, 0), BuildingBlock: UVAHIK_clean_linker_0, # of connection points: 2
#     Edge 17, Type (0, 0), BuildingBlock: UVAHIK_clean_linker_0, # of connection points: 2
#     Edge 18, Type (0, 0), BuildingBlock: UVAHIK_clean_linker_0, # of connection points: 2
#     Edge 19, Type (0, 0), BuildingBlock: UVAHIK_clean_linker_0, # of connection points: 2
#     Edge 20, Type (0, 0), BuildingBlock: UVAHIK_clean_linker_0, # of connection points: 2
#     Edge 21, Type (0, 0), BuildingBlock: UVAHIK_clean_linker_0, # of connection points: 2
#     Edge 22, Type (0, 0), BuildingBlock: UVAHIK_clean_linker_0, # of connection points: 2
#     Edge 23, Type (0, 0), BuildingBlock: UVAHIK_clean_linker_0, # of connection points: 2
#     Edge 24, Type (0, 0), BuildingBlock: UVAHIK_clean_linker_0, # of connection points: 2
#     Edge 25, Type (0, 0), BuildingBlock: UVAHIK_clean_linker_0, # of connection points: 2
#     Edge 26, Type (0, 0), BuildingBlock: UVAHIK_clean_linker_0, # of connection points: 2
#     Edge 27, Type (0, 0), BuildingBlock: UVAHIK_clean_linker_0, # of connection points: 2
#     Edge 28, Type (0, 0), BuildingBlock: UVAHIK_clean_linker_0, # of connection points: 2
#     Edge 29, Type (0, 0), BuildingBlock: UVAHIK_clean_linker_0, # of connection points: 2
#     Edge 30, Type (0, 0), BuildingBlock: UVAHIK_clean_linker_0, # of connection points: 2
#     Edge 31, Type (0, 0), BuildingBlock: UVAHIK_clean_linker_0, # of connection points: 2
#     Edge 32, Type (0, 0), BuildingBlock: UVAHIK_clean_linker_0, # of connection points: 2
#     Edge 33, Type (0, 0), BuildingBlock: UVAHIK_clean_linker_0, # of connection points: 2
#     Edge 34, Type (0, 0), BuildingBlock: UVAHIK_clean_linker_0, # of connection points: 2
#     Edge 35, Type (0, 0), BuildingBlock: UVAHIK_clean_linker_0, # of connection points: 2
#     Edge 36, Type (0, 0), BuildingBlock: UVAHIK_clean_linker_0, # of connection points: 2
#     Edge 37, Type (0, 0), BuildingBlock: UVAHIK_clean_linker_0, # of connection points: 2
#     Edge 38, Type (0, 0), BuildingBlock: UVAHIK_clean_linker_0, # of connection points: 2
#     Edge 39, Type (0, 0), BuildingBlock: UVAHIK_clean_linker_0, # of connection points: 2
#     Edge 40, Type (0, 0), BuildingBlock: UVAHIK_clean_linker_0, # of connection points: 2
#     Edge 41, Type (0, 0), BuildingBlock: UVAHIK_clean_linker_0, # of connection points: 2
#     Edge 42, Type (0, 0), BuildingBlock: UVAHIK_clean_linker_0, # of connection points: 2
#     Edge 43, Type (0, 0), BuildingBlock: UVAHIK_clean_linker_0, # of connection points: 2
#     Edge 44, Type (0, 0), BuildingBlock: UVAHIK_clean_linker_0, # of connection points: 2
#     Edge 45, Type (0, 0), BuildingBlock: UVAHIK_clean_linker_0, # of connection points: 2
#     Edge 46, Type (0, 0), BuildingBlock: UVAHIK_clean_linker_0, # of connection points: 2
#     Edge 47, Type (0, 0), BuildingBlock: UVAHIK_clean_linker_0, # of connection points: 2
# Relax obj value: 0.307
# Max RMSD: 0.232
# Mean RMSD: 0.231
data_MOF--net-wjd--node1-VOLQOD_clean_sbu_1--edge1-UVAHIK_clean_linker_0
_symmetry_space_group_name_H-M    P1
_symmetry_Int_Tables_number       1
_symmetry_cell_setting            triclinic
loop_
_symmetry_equiv_pos_as_xyz
'x, y, z'
_cell_length_a     39.258934
_cell_length_b     39.206345
_cell_length_c     83.258174
_cell_angle_alpha  89.918319
_cell_angle_beta   90.042246
_cell_angle_gamma 120.05777
loop_
_atom_site_label
_atom_site_type_symbol
_atom_site_fract_x
_atom_site_fract_y
_atom_site_fract_z
_atom_type_partial_charge
O0 O 0.35153 0.15205 0.09908 0.0
Zn1 Zn 0.30746 0.09709 0.1022 0.0
O2 O 0.32081 0.07107 0.11892 0.0
Zn3 Zn 0.31561 0.02223 0.11023 0.0
Zn4 Zn 0.3738 0.10596 0.12673 0.0
Zn5 Zn 0.28542 0.05987 0.13685 0.0
O6 O 0.2675 0.9747 0.11974 0.0
O7 O 0.24687 0.0025 0.13762 0.0
O8 O 0.29637 0.0691 0.08098 0.0
O9 O 0.3067 0.01953 0.08632 0.0
O10 O 0.366 0.02046 0.11357 0.0
O11 O 0.40644 0.08166 0.12217 0.0
O12 O 0.37605 0.11174 0.15083 0.0
O13 O 0.26289 0.10508 0.10871 0.0
O14 O 0.31349 0.07551 0.15795 0.0
O15 O 0.25559 0.08876 0.13452 0.0
C16 C 0.38476 0.17358 0.1057 0.0
C17 C 0.24309 0.97217 0.13045 0.0
C18 C 0.40001 0.04783 0.11786 0.0
C19 C 0.29855 0.03925 0.07644 0.0
C20 C 0.34961 0.09688 0.16162 0.0
C21 C 0.24788 0.10359 0.12241 0.0
O22 O 0.3976 0.16009 0.11662 0.0
O23 O 0.81729 0.61485 0.36772 0.0
Zn24 Zn 0.8015 0.65105 0.35767 0.0
O25 O 0.77492 0.66691 0.37294 0.0
Zn26 Zn 0.72304 0.65375 0.36466 0.0
Zn27 Zn 0.76968 0.64016 0.39308 0.0
Zn28 Zn 0.80662 0.72314 0.37656 0.0
O29 O 0.71859 0.7026 0.36169 0.0
O30 O 0.78115 0.74917 0.3653 0.0
O31 O 0.76932 0.62722 0.33784 0.0
O32 O 0.71502 0.62988 0.34244 0.0
O33 O 0.67989 0.61405 0.37905 0.0
O34 O 0.71341 0.60011 0.39686 0.0
O35 O 0.7862 0.67775 0.41145 0.0
O36 O 0.8529 0.69674 0.35103 0.0
O37 O 0.80982 0.73675 0.40028 0.0
O38 O 0.86099 0.74533 0.36712 0.0
C39 C 0.81773 0.60445 0.38216 0.0
C40 C 0.74615 0.73837 0.3609 0.0
C41 C 0.68095 0.59422 0.391 0.0
C42 C 0.73575 0.62124 0.33337 0.0
C43 C 0.80082 0.71483 0.4127 0.0
C44 C 0.87391 0.73152 0.35641 0.0
O45 O 0.80159 0.61312 0.39345 0.0
O46 O 0.82341 0.20877 0.1065 0.0
Zn47 Zn 0.87698 0.21521 0.10807 0.0
O48 O 0.90731 0.25088 0.12527 0.0
Zn49 Zn 0.95501 0.2949 0.11596 0.0
Zn50 Zn 0.87533 0.2688 0.13589 0.0
Zn51 Zn 0.91965 0.22272 0.14126 0.0
O52 O 0.00351 0.29574 0.12493 0.0
O53 O 0.97695 0.24183 0.14028 0.0
O54 O 0.90332 0.23153 0.08663 0.0
O55 O 0.95708 0.2884 0.092 0.0
O56 O 0.95511 0.34633 0.11892 0.0
O57 O 0.89667 0.32512 0.13049 0.0
O58 O 0.87762 0.26655 0.15996 0.0
O59 O 0.86545 0.16083 0.11292 0.0
O60 O 0.90923 0.23371 0.16373 0.0
O61 O 0.88861 0.16388 0.13751 0.0
C62 C 0.80312 0.21599 0.11636 0.0
C63 C 0.00677 0.27135 0.13406 0.0
C64 C 0.92845 0.35258 0.12448 0.0
C65 C 0.93495 0.26176 0.08207 0.0
C66 C 0.89242 0.25172 0.1693 0.0
C67 C 0.86945 0.14406 0.12527 0.0
O68 O 0.81866 0.23697 0.12882 0.0
O69 O 0.39684 0.19564 0.36868 0.0
Zn70 Zn 0.35745 0.14702 0.35738 0.0
O71 O 0.33771 0.10058 0.37081 0.0
Zn72 Zn 0.34995 0.06314 0.3604 0.0
Zn73 Zn 0.36345 0.11726 0.39153 0.0
Zn74 Zn 0.28116 0.07702 0.37414 0.0
O75 O 0.30069 0.01067 0.35685 0.0
O76 O 0.2537 0.02334 0.36448 0.0
O77 O 0.38031 0.14166 0.33685 0.0
O78 O 0.37342 0.08207 0.33825 0.0
O79 O 0.38914 0.05656 0.37382 0.0
O80 O 0.4007 0.09714 0.39438 0.0
O81 O 0.32483 0.09568 0.40945 0.0
O82 O 0.31421 0.15727 0.35174 0.0
O83 O 0.26635 0.06902 0.39773 0.0
O84 O 0.26088 0.11002 0.36379 0.0
C85 C 0.40599 0.20339 0.38341 0.0
C86 C 0.2646 0.00039 0.35862 0.0
C87 C 0.40719 0.07275 0.38683 0.0
C88 C 0.38412 0.11413 0.33068 0.0
C89 C 0.2875 0.07775 0.41033 0.0
C90 C 0.27783 0.141 0.35513 0.0
O91 O 0.39346 0.17626 0.39395 0.0
O92 O 0.77222 0.62076 0.1018 0.0
Zn93 Zn 0.76462 0.66719 0.10367 0.0
O94 O 0.72522 0.65775 0.11998 0.0
Zn95 Zn 0.6827 0.6626 0.10991 0.0
Zn96 Zn 0.70521 0.60581 0.12946 0.0
Zn97 Zn 0.74984 0.69581 0.13712 0.0
O98 O 0.67966 0.70856 0.11947 0.0
O99 O 0.73024 0.7337 0.13647 0.0
O100 O 0.75082 0.67895 0.08186 0.0
O101 O 0.69303 0.67444 0.08628 0.0
O102 O 0.63107 0.61093 0.11105 0.0
O103 O 0.64907 0.57183 0.12328 0.0
O104 O 0.7065 0.60678 0.1537 0.0
O105 O 0.81785 0.71057 0.11021 0.0
O106 O 0.73652 0.67068 0.15893 0.0
O107 O 0.80896 0.7255 0.13496 0.0
C108 C 0.76072 0.58964 0.1101 0.0
C109 C 0.70194 0.73488 0.12953 0.0
C110 C 0.6232 0.57734 0.11648 0.0
C111 C 0.72091 0.68031 0.07682 0.0
C112 C 0.71954 0.63507 0.1637 0.0
C113 C 0.83154 0.72926 0.12329 0.0
O114 O 0.73601 0.58078 0.12149 0.0
O115 O 0.8127 0.18476 0.37632 0.0
Zn116 Zn 0.86384 0.1998 0.36626 0.0
O117 O 0.90622 0.22821 0.38134 0.0
Zn118 Zn 0.94501 0.27681 0.37078 0.0
Zn119 Zn 0.88555 0.23926 0.40077 0.0
Zn120 Zn 0.92891 0.19566 0.38714 0.0
O121 O -0.0033 0.27846 0.36849 0.0
O122 O 0.98431 0.22118 0.37911 0.0
O123 O 0.8697 0.22868 0.34577 0.0
O124 O 0.92869 0.28163 0.34819 0.0
O125 O 0.95154 0.32353 0.38322 0.0
O126 O 0.90608 0.29739 0.4024 0.0
O127 O 0.90297 0.22276 0.4206 0.0
O128 O 0.85844 0.14838 0.36053 0.0
O129 O 0.93134 0.19029 0.41107 0.0
O130 O 0.89763 0.14105 0.37763 0.0
C131 C 0.8014 0.18904 0.39007 0.0
C132 C 0.00742 0.25377 0.37223 0.0
C133 C 0.93317 0.32727 0.39509 0.0
C134 C 0.89767 0.26045 0.34004 0.0
C135 C 0.92027 0.20302 0.42285 0.0
C136 C 0.87156 0.12755 0.36663 0.0
O137 O 0.82591 0.20959 0.40097 0.0
O138 O 0.17539 0.37034 0.62372 0.0
Zn139 Zn 0.1241 0.33542 0.63446 0.0
O140 O 0.08042 0.31803 0.61968 0.0
Zn141 Zn 0.04326 0.33332 0.62786 0.0
Zn142 Zn 0.10077 0.34213 0.59891 0.0
Zn143 Zn 0.05434 0.26115 0.61751 0.0
O144 O 0.98838 0.28603 0.62993 0.0
O145 O 0.00161 0.23719 0.62788 0.0
O146 O 0.11751 0.36138 0.65387 0.0
O147 O 0.05921 0.35644 0.65018 0.0
O148 O 0.04314 0.37501 0.61367 0.0
O149 O 0.08503 0.3823 0.59422 0.0
O150 O 0.07903 0.30198 0.58144 0.0
O151 O 0.12997 0.29042 0.64192 0.0
O152 O 0.04521 0.24466 0.59409 0.0
O153 O 0.08518 0.23893 0.62821 0.0
C154 C 0.18537 0.37916 0.60911 0.0
C155 C 0.97811 0.24971 0.63112 0.0
C156 C 0.06179 0.39184 0.60085 0.0
C157 C 0.08974 0.36658 0.65874 0.0
C158 C 0.05738 0.26466 0.58116 0.0
C159 C 0.11393 0.25432 0.63802 0.0
O160 O 0.15985 0.36919 0.598 0.0
O161 O 0.20359 0.82903 0.88288 0.0
Zn162 Zn 0.20946 0.88271 0.88213 0.0
O163 O 0.24482 0.91479 0.86503 0.0
Zn164 Zn 0.28903 0.96195 0.87461 0.0
Zn165 Zn 0.26291 0.88404 0.85364 0.0
Zn166 Zn 0.21634 0.9282 0.84953 0.0
O167 O 0.28912 0.01087 0.86651 0.0
O168 O 0.23486 0.98545 0.85148 0.0
O169 O 0.22605 0.90787 0.9038 0.0
O170 O 0.28272 0.96218 0.89869 0.0
O171 O 0.34087 0.96304 0.87085 0.0
O172 O 0.31956 0.90602 0.85804 0.0
O173 O 0.25843 0.88634 0.82977 0.0
O174 O 0.15483 0.871 0.87767 0.0
O175 O 0.2264 0.91895 0.82661 0.0
O176 O 0.1577 0.89638 0.85353 0.0
C177 C 0.21184 0.81021 0.87265 0.0
C178 C 0.26436 0.01486 0.85793 0.0
C179 C 0.34712 0.93728 0.86431 0.0
C180 C 0.25625 0.93933 0.90854 0.0
C181 C 0.24353 0.90156 0.82071 0.0
C182 C 0.13799 0.87601 0.86559 0.0
O183 O 0.23288 0.82728 0.86037 0.0
O184 O 0.58264 0.79318 0.61092 0.0
Zn185 Zn 0.62626 0.78895 0.62117 0.0
O186 O 0.64575 0.76373 0.60685 0.0
Zn187 Zn 0.64034 0.71681 0.61717 0.0
Zn188 Zn 0.61613 0.74996 0.58707 0.0
Zn189 Zn 0.70037 0.80002 0.6019 0.0
O190 O 0.69262 0.71932 0.61881 0.0
O191 O 0.7334 0.78308 0.61395 0.0
O192 O 0.61068 0.76275 0.64278 0.0
O193 O 0.6221 0.7131 0.6401 0.0
O194 O 0.60016 0.66798 0.60571 0.0
O195 O 0.57881 0.69172 0.58635 0.0
O196 O 0.65183 0.76382 0.568 0.0
O197 O 0.66697 0.84529 0.62472 0.0
O198 O 0.71177 0.79923 0.57823 0.0
O199 O 0.71589 0.85539 0.60844 0.0
C200 C 0.57301 0.79218 0.59625 0.0
C201 C 0.72696 0.74957 0.61886 0.0
C202 C 0.57698 0.66274 0.59404 0.0
C203 C 0.61142 0.73309 0.6486 0.0
C204 C 0.68903 0.78335 0.56624 0.0
C205 C 0.69997 0.86827 0.61819 0.0
O206 O 0.58567 0.77848 0.58538 0.0
O207 O 0.14595 0.37107 0.8909 0.0
Zn208 Zn 0.09339 0.32258 0.88847 0.0
O209 O 0.06314 0.32893 0.8714 0.0
Zn210 Zn 0.01304 0.32037 0.88024 0.0
Zn211 Zn 0.09334 0.38114 0.8622 0.0
Zn212 Zn 0.05448 0.29175 0.8544 0.0
O213 O 0.96734 0.27104 0.87064 0.0
O214 O -0.002 0.25083 0.85398 0.0
O215 O 0.06567 0.31019 0.90971 0.0
O216 O 0.01103 0.31151 0.90416 0.0
O217 O 0.00726 0.36865 0.87705 0.0
O218 O 0.06635 0.41107 0.86704 0.0
O219 O 0.09579 0.38059 0.83808 0.0
O220 O 0.10717 0.28138 0.88293 0.0
O221 O 0.0666 0.31689 0.83262 0.0
O222 O 0.08701 0.26568 0.85772 0.0
C223 C 0.16473 0.4024 0.88264 0.0
C224 C 0.96672 0.24638 0.86049 0.0
C225 C 0.03256 0.40293 0.87211 0.0
C226 C 0.03343 0.30758 0.91415 0.0
C227 C 0.08318 0.35257 0.82798 0.0
C228 C 0.10514 0.26328 0.86998 0.0
O229 O 0.14857 0.40974 0.87089 0.0
O230 O 0.17941 0.79972 0.61214 0.0
Zn231 Zn 0.18807 0.85006 0.62172 0.0
O232 O 0.21701 0.89411 0.60715 0.0
Zn233 Zn 0.26518 0.93306 0.61809 0.0
Zn234 Zn 0.22896 0.87501 0.58765 0.0
Zn235 Zn 0.18476 0.91698 0.60105 0.0
O236 O 0.26532 0.98412 0.62094 0.0
O237 O 0.20808 0.97114 0.61019 0.0
O238 O 0.21383 0.85829 0.64322 0.0
O239 O 0.26844 0.91608 0.6407 0.0
O240 O 0.31322 0.94168 0.60578 0.0
O241 O 0.287 0.89972 0.58539 0.0
O242 O 0.21056 0.89015 0.56791 0.0
O243 O 0.13423 0.84104 0.62548 0.0
O244 O 0.18173 0.92239 0.57709 0.0
O245 O 0.12956 0.88377 0.6094 0.0
C246 C 0.18596 0.79016 0.59839 0.0
C247 C 0.24004 -0.00578 0.61743 0.0
C248 C 0.31679 0.92587 0.59299 0.0
C249 C 0.2456 0.886 0.64908 0.0
C250 C 0.19289 0.90939 0.56544 0.0
C251 C 0.11439 0.85531 0.61938 0.0
O252 O 0.20438 0.81597 0.58759 0.0
O253 O 0.61317 0.77476 0.8814 0.0
Zn254 Zn 0.65963 0.76672 0.88055 0.0
O255 O 0.65298 0.72832 0.86419 0.0
Zn256 Zn 0.65554 0.68467 0.87462 0.0
Zn257 Zn 0.60309 0.70988 0.85345 0.0
Zn258 Zn 0.69334 0.75341 0.84784 0.0
O259 O 0.70218 0.68118 0.86611 0.0
O260 O 0.73012 0.73263 0.84949 0.0
O261 O 0.6692 0.75215 0.90256 0.0
O262 O 0.66516 0.69437 0.89844 0.0
O263 O 0.60335 0.63342 0.87257 0.0
O264 O 0.56783 0.65395 0.85915 0.0
O265 O 0.60728 0.71215 0.82938 0.0
O266 O 0.70392 0.81993 0.87482 0.0
O267 O 0.67157 0.74228 0.82535 0.0
O268 O 0.72345 0.81235 0.85075 0.0
C269 C 0.58422 0.76465 0.87194 0.0
C270 C 0.72989 0.70372 0.85658 0.0
C271 C 0.57105 0.62695 0.86624 0.0
C272 C 0.67024 0.72218 0.90781 0.0
C273 C 0.63661 0.72574 0.81992 0.0
C274 C 0.72515 0.83426 0.86236 0.0
O275 O 0.57779 0.74112 0.8603 0.0
C276 C 0.07001 0.28168 0.12285 0.0
C277 C 0.04504 0.27368 0.13609 0.0
C278 C 0.09967 0.27187 0.12338 0.0
C279 C 0.11346 0.1968 0.1434 0.0
H280 H 0.21083 0.24269 0.11921 0.0
C281 C 0.20935 0.12401 0.13988 0.0
C282 C 0.22451 0.12329 0.12467 0.0
C283 C 0.19092 0.1461 0.14242 0.0
C284 C 0.18358 0.22951 0.12595 0.0
H285 H 0.0343 0.25422 0.16087 0.0
H286 H 0.08711 0.23876 0.16206 0.0
H287 H 0.17652 0.27985 0.12261 0.0
H288 H 0.23138 0.14455 0.10011 0.0
H289 H 0.19861 0.18254 0.10453 0.0
H290 H 0.11989 0.14622 0.14646 0.0
C291 C 0.08294 0.25102 0.15106 0.0
C292 C 0.16406 0.25082 0.12794 0.0
C293 C 0.05297 0.26016 0.15044 0.0
C294 C 0.22001 0.14441 0.11198 0.0
C295 C 0.20166 0.16657 0.11454 0.0
C296 C 0.13296 0.17564 0.14145 0.0
C297 C 0.10494 0.25442 0.13724 0.0
C298 C 0.12853 0.23448 0.13655 0.0
C299 C 0.18729 0.16794 0.12982 0.0
C300 C 0.16792 0.19152 0.13254 0.0
H301 H 0.06427 0.29193 0.11162 0.0
H302 H 0.1161 0.27487 0.11251 0.0
H303 H 0.08563 0.18283 0.14974 0.0
H304 H 0.21246 0.10823 0.14994 0.0
H305 H 0.18027 0.14676 0.15434 0.0
C306 C 0.22331 0.95428 0.3373 0.0
C307 C 0.23389 0.96134 0.35354 0.0
C308 C 0.18748 0.92156 0.33287 0.0
C309 C 0.0977 0.8804 0.33314 0.0
H310 H 0.04779 0.77661 0.35267 0.0
C311 C 0.93693 0.7957 0.35376 0.0
C312 C 0.915 0.75502 0.35083 0.0
C313 C 0.97669 0.81708 0.34958 0.0
C314 C 0.06143 0.80521 0.34687 0.0
H315 H 0.21765 0.93947 0.3778 0.0
H316 H 0.15548 0.88168 0.37011 0.0
H317 H 0.1195 0.81798 0.35336 0.0
H318 H 0.9172 0.70499 0.34081 0.0
H319 H 0.98692 0.74239 0.33388 0.0
H320 H 0.0395 0.8687 0.32763 0.0
C321 C 0.17463 0.90101 0.36076 0.0
C322 C 0.10234 0.82881 0.3473 0.0
C323 C 0.21006 0.934 0.36519 0.0
C324 C 0.9333 0.73636 0.34321 0.0
C325 C 0.97317 0.75763 0.33927 0.0
C326 C 0.05679 0.85702 0.33291 0.0
C327 C 0.16223 0.89549 0.34466 0.0
C328 C 0.12069 0.86708 0.3409 0.0
C329 C -0.00472 0.79804 0.34261 0.0
C330 C 0.03831 0.81977 0.34023 0.0
H331 H 0.24124 0.97555 0.32821 0.0
H332 H 0.17845 0.91789 0.32039 0.0
H333 H 0.1111 0.90998 0.32827 0.0
H334 H 0.9236 0.81089 0.35954 0.0
H335 H -0.0067 0.8482 0.35243 0.0
C336 C 0.8484 0.08013 0.1396 0.0
C337 C 0.84776 0.1005 0.12581 0.0
C338 C 0.82468 0.03915 0.1405 0.0
C339 C 0.77052 0.95102 0.11509 0.0
H340 H 0.71895 0.90121 0.15511 0.0
C341 C 0.68425 0.78405 0.1194 0.0
C342 C 0.69896 0.77059 0.13175 0.0
C343 C 0.69151 0.82278 0.11959 0.0
C344 C 0.73297 0.91478 0.14383 0.0
H345 H 0.82202 0.09364 0.10207 0.0
H346 H 0.7807 0.02268 0.10375 0.0
H347 H 0.75679 0.97309 0.1533 0.0
H348 H 0.72832 0.78512 0.15488 0.0
H349 H 0.74095 0.85239 0.1552 0.0
H350 H 0.74772 0.89297 0.10572 0.0
C351 C 0.79976 0.03817 0.11379 0.0
C352 C 0.75489 0.95585 0.14283 0.0
C353 C 0.8235 0.07896 0.11286 0.0
C354 C 0.71709 0.79492 0.1451 0.0
C355 C 0.72409 0.83343 0.14534 0.0
C356 C 0.74854 0.91007 0.11607 0.0
C357 C 0.79985 0.0178 0.12765 0.0
C358 C 0.77454 0.97437 0.12853 0.0
C359 C 0.71323 0.84837 0.13219 0.0
C360 C 0.7302 0.89148 0.13054 0.0
H361 H 0.86671 0.09583 0.14979 0.0
H362 H 0.82592 0.02418 0.15124 0.0
H363 H 0.78566 0.96431 0.10396 0.0
H364 H 0.67002 0.76587 0.109 0.0
H365 H 0.68227 0.83344 0.10942 0.0
C366 C 0.2147 0.14076 0.35067 0.0
C367 C 0.25596 0.16065 0.35002 0.0
C368 C 0.19453 0.161 0.34768 0.0
C369 C 0.15985 0.21109 0.3355 0.0
H370 H 0.18954 0.29221 0.36792 0.0
C371 C 0.0614 0.2758 0.35215 0.0
C372 C 0.04662 0.26145 0.36757 0.0
C373 C 0.09513 0.27596 0.34668 0.0
C374 C 0.18161 0.27046 0.3585 0.0
H375 H 0.30839 0.21684 0.34492 0.0
H376 H 0.27297 0.25229 0.34021 0.0
H377 H 0.23269 0.26532 0.36245 0.0
H378 H 0.05651 0.23901 0.3898 0.0
H379 H 0.11631 0.24073 0.38048 0.0
H380 H 0.10764 0.21472 0.33223 0.0
C381 C 0.25641 0.22102 0.34283 0.0
C382 C 0.20618 0.25511 0.35536 0.0
C383 C 0.27655 0.20067 0.34554 0.0
C384 C 0.06747 0.25013 0.37786 0.0
C385 C 0.10168 0.25136 0.37258 0.0
C386 C 0.13563 0.22699 0.33842 0.0
C387 C 0.21535 0.20153 0.34422 0.0
C388 C 0.19454 0.22404 0.34439 0.0
C389 C 0.11496 0.26297 0.35678 0.0
C390 C 0.14553 0.25544 0.35047 0.0
H391 H 0.19808 0.10991 0.35398 0.0
H392 H 0.16281 0.14549 0.349 0.0
H393 H 0.15043 0.18718 0.32697 0.0
H394 H 0.04548 0.28437 0.344 0.0
H395 H 0.10485 0.28469 0.33442 0.0
C396 C 0.18788 0.90837 0.12037 0.0
C397 C 0.20628 0.93466 0.13314 0.0
C398 C 0.14821 0.87925 0.1215 0.0
C399 C 0.06064 0.86746 0.14202 0.0
H400 H 0.00788 0.7668 0.12012 0.0
C401 C 0.89127 0.77027 0.14022 0.0
C402 C 0.87475 0.75277 0.12536 0.0
C403 C 0.93197 0.78928 0.14254 0.0
C404 C 0.02227 0.79497 0.12622 0.0
H405 H 0.19945 0.94822 0.15774 0.0
H406 H 0.13076 0.89665 0.15991 0.0
H407 H 0.07956 0.8022 0.12258 0.0
H408 H 0.88825 0.74237 0.10118 0.0
H409 H 0.95909 0.77605 0.10519 0.0
H410 H 0.00365 0.86082 0.14535 0.0
C411 C 0.14635 0.89934 0.14883 0.0
C412 C 0.06326 0.81514 0.12767 0.0
C413 C 0.18575 0.92865 0.14763 0.0
C414 C 0.89991 0.75544 0.1128 0.0
C415 C 0.94053 0.77439 0.11513 0.0
C416 C 0.01977 0.84732 0.1406 0.0
C417 C 0.12656 0.8758 0.13548 0.0
C418 C 0.08294 0.85187 0.13541 0.0
C419 C 0.95698 0.79116 0.13006 0.0
C420 C 0.00017 0.81116 0.13248 0.0
H421 H 0.203 0.91245 0.10903 0.0
H422 H 0.13385 0.86161 0.11098 0.0
H423 H 0.07485 0.89611 0.14774 0.0
H424 H 0.87275 0.76858 0.15018 0.0
H425 H 0.94379 0.8018 0.15421 0.0
C426 C 0.76607 0.79762 0.34444 0.0
C427 C 0.73844 0.76886 0.35478 0.0
C428 C 0.76506 0.83196 0.3414 0.0
C429 C 0.74518 0.89544 0.36498 0.0
H430 H 0.78962 0.96383 0.32792 0.0
C431 C 0.85686 0.05863 0.37165 0.0
C432 C 0.85228 0.08558 0.3621 0.0
C433 C 0.83391 0.01827 0.36878 0.0
C434 C 0.77664 0.94504 0.33831 0.0
H435 H 0.68593 0.75111 0.36891 0.0
H436 H 0.68461 0.81222 0.36392 0.0
H437 H 0.75766 0.89242 0.32457 0.0
H438 H 0.82149 0.09149 0.34153 0.0
H439 H 0.78184 0.02095 0.33645 0.0
H440 H 0.76576 0.94801 0.37884 0.0
C441 C 0.70685 0.80797 0.35807 0.0
C442 C 0.75834 0.90425 0.33639 0.0
C443 C 0.70752 0.77311 0.3609 0.0
C444 C 0.82563 0.07145 0.34915 0.0
C445 C 0.80287 0.0311 0.34623 0.0
C446 C 0.76355 0.93614 0.3669 0.0
C447 C 0.73676 0.83842 0.3489 0.0
C448 C 0.74413 0.87921 0.34983 0.0
C449 C 0.80616 0.00415 0.35625 0.0
C450 C 0.78101 0.9613 0.35371 0.0
H451 H 0.78999 0.79464 0.33951 0.0
H452 H 0.78873 0.85491 0.33442 0.0
H453 H 0.73481 0.87699 0.37559 0.0
H454 H 0.8771 0.06854 0.3817 0.0
H455 H 0.83765 -0.00195 0.37645 0.0
C456 C 0.25622 0.04381 0.63903 0.0
C457 C 0.24579 0.03218 0.62299 0.0
C458 C 0.2533 0.07537 0.64523 0.0
C459 C 0.19909 0.11052 0.65302 0.0
H460 H 0.2402 0.2131 0.633 0.0
C461 C 0.11296 0.19039 0.64144 0.0
C462 C 0.13217 0.2314 0.64359 0.0
C463 C 0.13287 0.16985 0.64437 0.0
C464 C 0.22908 0.18494 0.63899 0.0
H465 H 0.22715 0.04554 0.60053 0.0
H466 H 0.22374 0.1018 0.61118 0.0
H467 H 0.27013 0.17287 0.62693 0.0
H468 H 0.18649 0.28267 0.65147 0.0
H469 H 0.2214 0.24674 0.65612 0.0
H470 H 0.15569 0.12104 0.6639 0.0
C471 C 0.23363 0.08634 0.61899 0.0
C472 C 0.24616 0.16204 0.6355 0.0
C473 C 0.23542 0.0542 0.61292 0.0
C474 C 0.17084 0.25107 0.64965 0.0
C475 C 0.19091 0.23062 0.65232 0.0
C476 C 0.18149 0.13311 0.65627 0.0
C477 C 0.24116 0.09623 0.6353 0.0
C478 C 0.23044 0.12419 0.64208 0.0
C479 C 0.17243 0.19008 0.64928 0.0
C480 C 0.19558 0.16991 0.64884 0.0
H481 H 0.26387 0.02684 0.64701 0.0
H482 H 0.25891 0.08247 0.65788 0.0
H483 H 0.18626 0.08114 0.65806 0.0
H484 H 0.08312 0.17443 0.63688 0.0
H485 H 0.11814 0.13858 0.6418 0.0
C486 C 0.07284 0.82986 0.878 0.0
C487 C 0.09448 0.85396 0.865 0.0
C488 C 0.03217 0.80545 0.87691 0.0
C489 C 0.95165 0.7578 0.84735 0.0
H490 H 0.88578 0.75084 0.88331 0.0
C491 C 0.79096 0.71791 0.84213 0.0
C492 C 0.76556 0.70041 0.85525 0.0
C493 C 0.82949 0.72518 0.84271 0.0
C494 C 0.90373 0.75158 0.87329 0.0
H495 H 0.09005 0.87207 0.84081 0.0
H496 H 0.01873 0.83003 0.83907 0.0
H497 H 0.95689 0.78987 0.88583 0.0
H498 H 0.75903 0.67286 0.87851 0.0
H499 H 0.82665 0.68551 0.8795 0.0
H500 H 0.89819 0.72059 0.83463 0.0
C501 C 0.03351 0.82946 0.84997 0.0
C502 C 0.94454 0.7742 0.87471 0.0
C503 C 0.0743 0.85391 0.85105 0.0
C504 C 0.77805 0.68653 0.86825 0.0
C505 C 0.81682 0.69407 0.86887 0.0
C506 C 0.91077 0.73518 0.84592 0.0
C507 C 0.01211 0.80463 0.86283 0.0
C508 C 0.96892 0.77827 0.86164 0.0
C509 C 0.84341 0.71523 0.85645 0.0
C510 C 0.88637 0.73258 0.85877 0.0
H511 H 0.08739 0.82901 0.88893 0.0
H512 H 0.01658 0.78651 0.88698 0.0
H513 H 0.96974 0.75969 0.83719 0.0
H514 H 0.78193 0.72854 0.83188 0.0
H515 H 0.84919 0.7416 0.83295 0.0
C516 C 0.75126 0.93799 0.61225 0.0
C517 C 0.71894 0.91098 0.62145 0.0
C518 C 0.76819 0.97837 0.61493 0.0
C519 C 0.78394 0.04914 0.64611 0.0
H520 H 0.82354 0.12229 0.61031 0.0
C521 C 0.90539 0.22102 0.62864 0.0
C522 C 0.93765 0.22036 0.63558 0.0
C523 C 0.86769 0.18794 0.62986 0.0
C524 C 0.81181 0.1025 0.62049 0.0
H525 H 0.67903 0.9052 0.6407 0.0
H526 H 0.70923 0.9759 0.64551 0.0
H527 H 0.77758 0.05276 0.60535 0.0
H528 H 0.95581 0.18715 0.65057 0.0
H529 H 0.8904 0.12997 0.65293 0.0
H530 H 0.82001 0.09859 0.66115 0.0
C531 C 0.72117 0.96568 0.63618 0.0
C532 C 0.78594 0.06261 0.61762 0.0
C533 C 0.70399 0.92525 0.63341 0.0
C534 C 0.9313 0.1881 0.64504 0.0
C535 C 0.89375 0.15552 0.6465 0.0
C536 C 0.80998 0.08905 0.64899 0.0
C537 C 0.75334 0.99261 0.62692 0.0
C538 C 0.77332 0.03535 0.63031 0.0
C539 C 0.8619 0.1543 0.63828 0.0
C540 C 0.82566 0.11574 0.63611 0.0
H541 H 0.7634 0.92802 0.60291 0.0
H542 H 0.7935 -0.00153 0.60782 0.0
H543 H 0.77457 0.02876 0.65612 0.0
H544 H 0.90975 0.24567 0.62126 0.0
H545 H 0.84355 0.18772 0.62345 0.0
C546 C 0.15233 0.24435 0.88137 0.0
C547 C 0.12723 0.24196 0.86881 0.0
C548 C 0.17565 0.22696 0.87985 0.0
C549 C 0.21662 0.18821 0.84958 0.0
H550 H 0.22415 0.12989 0.88573 0.0
C551 C 0.24679 0.06044 0.84432 0.0
C552 C 0.26668 0.05349 0.85679 0.0
C553 C 0.24069 0.09248 0.84501 0.0
C554 C 0.22319 0.14685 0.87563 0.0
H555 H 0.10649 0.21876 0.84492 0.0
H556 H 0.14644 0.18745 0.84246 0.0
H557 H 0.1892 0.16605 0.88881 0.0
H558 H 0.29882 0.07644 0.87905 0.0
H559 H 0.28794 0.13262 0.8803 0.0
H560 H 0.24924 0.16742 0.83623 0.0
C561 C 0.14875 0.20363 0.85333 0.0
C562 C 0.20299 0.16745 0.87738 0.0
C563 C 0.12552 0.2212 0.85481 0.0
C564 C 0.28333 0.08107 0.86928 0.0
C565 C 0.27687 0.11302 0.87006 0.0
C566 C 0.23672 0.16745 0.84782 0.0
C567 C 0.17429 0.20657 0.86579 0.0
C568 C 0.1987 0.18762 0.86427 0.0
C569 C 0.25412 0.11805 0.85825 0.0
C570 C 0.23942 0.14583 0.86073 0.0
H571 H 0.15465 0.26038 0.89228 0.0
H572 H 0.19526 0.23007 0.88961 0.0
H573 H 0.21456 0.20419 0.83935 0.0
H574 H 0.23394 0.03982 0.83446 0.0
H575 H 0.22288 0.09542 0.83577 0.0
C576 C 0.04641 0.83994 0.61248 0.0
C577 C 0.0721 0.83611 0.62307 0.0
C578 C 0.00597 0.81879 0.61514 0.0
C579 C 0.93242 0.77773 0.64567 0.0
H580 H 0.86344 0.72369 0.60968 0.0
C581 C 0.79279 0.77925 0.63156 0.0
C582 C 0.76043 0.74621 0.62475 0.0
C583 C 0.82643 0.77796 0.63571 0.0
C584 C 0.88211 0.73764 0.62001 0.0
H585 H 0.07585 0.80812 0.64501 0.0
H586 H 0.00479 0.77203 0.6499 0.0
H587 H 0.93355 0.74619 0.60761 0.0
H588 H 0.73662 0.6852 0.61775 0.0
H589 H 0.79663 0.68344 0.62448 0.0
H590 H 0.88139 0.77181 0.6576 0.0
C591 C 0.01616 0.79086 0.63942 0.0
C592 C 0.92219 0.75085 0.61874 0.0
C593 C 0.05666 0.81154 0.63662 0.0
C594 C 0.76137 0.71109 0.62293 0.0
C595 C 0.79549 0.71003 0.62681 0.0
C596 C 0.89233 0.7649 0.64687 0.0
C597 C -0.00944 0.79389 0.62854 0.0
C598 C 0.9478 0.77251 0.63128 0.0
C599 C 0.82855 0.7438 0.63289 0.0
C600 C 0.86725 0.74637 0.63375 0.0
H601 H 0.05743 0.85847 0.60191 0.0
H602 H 0.98667 0.82207 0.60675 0.0
H603 H 0.95175 0.79434 0.65549 0.0
H604 H 0.79254 0.80652 0.63328 0.0
H605 H 0.85171 0.80458 0.64016 0.0
C606 C 0.90262 0.18991 0.86958 0.0
C607 C 0.93001 0.20936 0.85726 0.0
C608 C 0.87376 0.1503 0.86781 0.0
C609 C 0.86465 0.06469 0.84666 0.0
H610 H 0.76166 0.00976 0.86659 0.0
C611 C 0.76818 0.89507 0.84631 0.0
C612 C 0.74916 0.87756 0.86083 0.0
C613 C 0.7873 0.93594 0.84441 0.0
C614 C 0.79047 0.02478 0.86103 0.0
H615 H 0.94602 0.20467 0.83279 0.0
H616 H 0.89493 0.13608 0.8295 0.0
H617 H 0.7969 0.0817 0.86502 0.0
H618 H 0.73636 0.8894 0.8849 0.0
H619 H 0.77026 0.96054 0.88163 0.0
H620 H 0.85881 0.00807 0.84302 0.0
C621 C 0.8965 0.15075 0.84072 0.0
C622 C 0.81054 0.06588 0.86009 0.0
C623 C 0.92556 0.19005 0.84256 0.0
C624 C 0.75057 0.90186 0.87352 0.0
C625 C 0.76964 0.94263 0.87161 0.0
C626 C 0.84462 0.02371 0.84758 0.0
C627 C 0.87175 0.12987 0.85363 0.0
C628 C 0.84807 0.08628 0.85308 0.0
C629 C 0.78776 0.96006 0.85698 0.0
C630 C 0.80763 0.00336 0.855 0.0
H631 H 0.90555 0.20419 0.88104 0.0
H632 H 0.85514 0.13501 0.87799 0.0
H633 H 0.89391 0.0795 0.8415 0.0
H634 H 0.76747 0.87719 0.83626 0.0
H635 H 0.80094 0.94858 0.83297 0.0
C636 C 0.41098 0.15438 0.30574 0.0
C637 C 0.39689 0.11812 0.31372 0.0
C638 C 0.41581 0.15681 0.28911 0.0
C639 C 0.38462 0.1421 0.25523 0.0
H640 H 0.42219 0.08681 0.22852 0.0
C641 C 0.33227 0.09609 0.19053 0.0
C642 C 0.36088 0.10377 0.17876 0.0
C643 C 0.3424 0.10162 0.20675 0.0
C644 C 0.41199 0.10272 0.23585 0.0
H645 H 0.38004 0.05671 0.31062 0.0
H646 H 0.38826 0.06097 0.28149 0.0
H647 H 0.43318 0.09046 0.25763 0.0
H648 H 0.42255 0.12303 0.1748 0.0
H649 H 0.44011 0.13219 0.20334 0.0
H650 H 0.3625 0.15345 0.23362 0.0
C651 C 0.39563 0.0875 0.28815 0.0
C652 C 0.41804 0.10459 0.25247 0.0
C653 C 0.3908 0.08504 0.30484 0.0
C654 C 0.3999 0.11706 0.18359 0.0
C655 C 0.40993 0.12208 0.19989 0.0
C656 C 0.37825 0.13988 0.23871 0.0
C657 C 0.40667 0.12308 0.28008 0.0
C658 C 0.40402 0.12396 0.26234 0.0
C659 C 0.38125 0.11452 0.2116 0.0
C660 C 0.39132 0.11968 0.22889 0.0
H661 H 0.41655 0.1806 0.31224 0.0
H662 H 0.42511 0.18479 0.28323 0.0
H663 H 0.37298 0.15677 0.26252 0.0
H664 H 0.30197 0.08584 0.18721 0.0
H665 H 0.31964 0.09519 0.21556 0.0
C666 C 0.68857 0.60648 0.31053 0.0
C667 C 0.72273 0.6081 0.31667 0.0
C668 C 0.67986 0.60032 0.29413 0.0
C669 C 0.68989 0.62216 0.25885 0.0
H670 H 0.71584 0.5582 0.23164 0.0
C671 C 0.72801 0.65778 0.19226 0.0
C672 C 0.71442 0.62666 0.18117 0.0
C673 C 0.72298 0.65019 0.20872 0.0
C674 C 0.70793 0.57583 0.23906 0.0
H675 H 0.77301 0.60174 0.31053 0.0
H676 H 0.75814 0.59157 0.28205 0.0
H677 H 0.71515 0.55074 0.26077 0.0
H678 H 0.68475 0.56302 0.17875 0.0
H679 H 0.67593 0.54982 0.20759 0.0
H680 H 0.68298 0.64748 0.2372 0.0
C681 C 0.73787 0.59477 0.28986 0.0
C682 C 0.70788 0.57181 0.25576 0.0
C683 C 0.74655 0.60089 0.30622 0.0
C684 C 0.69567 0.5877 0.18696 0.0
C685 C 0.6907 0.58011 0.20348 0.0
C686 C 0.68993 0.62616 0.24219 0.0
C687 C 0.70509 0.59561 0.28353 0.0
C688 C 0.69974 0.59559 0.26585 0.0
C689 C 0.70423 0.6113 0.21454 0.0
C690 C 0.69991 0.60376 0.23212 0.0
H691 H 0.66938 0.6116 0.31824 0.0
H692 H 0.65399 0.60044 0.28968 0.0
H693 H 0.68384 0.64123 0.26624 0.0
H694 H 0.74267 0.68816 0.18826 0.0
H695 H 0.73441 0.67492 0.21692 0.0
C696 C 0.90831 0.24114 0.19735 0.0
C697 C 0.89168 0.25698 0.18689 0.0
C698 C 0.9093 0.24753 0.21387 0.0
C699 C 0.86235 0.27366 0.24608 0.0
H700 H 0.95497 0.29252 0.27001 0.0
C701 C 0.92833 0.30131 0.31533 0.0
C702 C 0.89542 0.27051 0.32306 0.0
C703 C 0.9279 0.30678 0.29875 0.0
C704 C 0.92912 0.28797 0.26351 0.0
H705 H 0.86269 0.29173 0.18565 0.0
H706 H 0.8646 0.30297 0.21453 0.0
H707 H 0.95476 0.28791 0.24087 0.0
H708 H 0.83536 0.22299 0.31955 0.0
H709 H 0.83484 0.23224 0.29075 0.0
H710 H 0.83668 0.2736 0.26877 0.0
C711 C 0.87662 0.28537 0.20992 0.0
C712 C 0.92879 0.28474 0.24681 0.0
C713 C 0.87562 0.27899 0.19337 0.0
C714 C 0.86133 0.24688 0.314 0.0
C715 C 0.86091 0.25236 0.29745 0.0
C716 C 0.86268 0.2769 0.2628 0.0
C717 C 0.89373 0.26995 0.22034 0.0
C718 C 0.89512 0.27671 0.23793 0.0
C719 C 0.89454 0.28165 0.28956 0.0
C720 C 0.89579 0.28332 0.27173 0.0
H721 H 0.92083 0.22394 0.1928 0.0
H722 H 0.92201 0.23459 0.2216 0.0
H723 H 0.83591 0.26736 0.23959 0.0
H724 H 0.955 0.32021 0.32196 0.0
H725 H 0.95407 0.33003 0.29304 0.0
C726 C 0.12492 0.39168 0.68487 0.0
C727 C 0.09138 0.38068 0.67536 0.0
C728 C 0.12434 0.39838 0.70129 0.0
C729 C 0.11976 0.42006 0.7358 0.0
H730 H 0.02616 0.3367 0.75621 0.0
C731 C 0.1017 0.40031 0.80503 0.0
C732 C 0.08575 0.36133 0.81058 0.0
C733 C 0.10189 0.40812 0.78863 0.0
C734 C 0.05249 0.36018 0.75069 0.0
H735 H 0.03201 0.37132 0.67542 0.0
H736 H 0.03118 0.38339 0.70413 0.0
H737 H 0.02801 0.34381 0.72716 0.0
H738 H 0.05822 0.30011 0.80316 0.0
H739 H 0.05904 0.31381 0.77465 0.0
H740 H 0.14486 0.43508 0.75938 0.0
C741 C 0.05766 0.38608 0.69889 0.0
C742 C 0.05336 0.36465 0.73405 0.0
C743 C 0.05823 0.37938 0.68243 0.0
C744 C 0.0706 0.33047 0.79934 0.0
C745 C 0.07074 0.33828 0.78299 0.0
C746 C 0.11888 0.41558 0.75249 0.0
C747 C 0.09024 0.3943 0.70859 0.0
C748 C 0.08735 0.394 0.72637 0.0
C749 C 0.08602 0.37712 0.77746 0.0
C750 C 0.0856 0.38489 0.76004 0.0
H751 H 0.1511 0.39328 0.67981 0.0
H752 H 0.14986 0.40436 0.7084 0.0
H753 H 0.14623 0.44323 0.73024 0.0
H754 H 0.11353 0.42478 0.81337 0.0
H755 H 0.11376 0.43835 0.78472 0.0
C756 C 0.23119 0.9164 0.79267 0.0
C757 C 0.24695 0.89954 0.80306 0.0
C758 C 0.23509 0.91498 0.77603 0.0
C759 C 0.26741 0.9278 0.74209 0.0
H760 H 0.25044 0.83101 0.72229 0.0
C761 C 0.28492 0.91806 0.67393 0.0
C762 C 0.25373 0.88507 0.66641 0.0
C763 C 0.28892 0.91936 0.69064 0.0
C764 C 0.25527 0.85825 0.72764 0.0
H765 H 0.27925 0.86798 0.80406 0.0
H766 H 0.28621 0.86579 0.77509 0.0
H767 H 0.2462 0.83444 0.75142 0.0
H768 H 0.20369 0.82666 0.67054 0.0
H769 H 0.21056 0.82909 0.69959 0.0
H770 H 0.27515 0.95119 0.7183 0.0
C771 C 0.27048 0.87973 0.7798 0.0
C772 C 0.25317 0.86033 0.74434 0.0
C773 C 0.2666 0.88115 0.79642 0.0
C774 C 0.22799 0.85259 0.67591 0.0
C775 C 0.23204 0.85389 0.6926 0.0
C776 C 0.26955 0.92573 0.7254 0.0
C777 C 0.25482 0.89667 0.76941 0.0
C778 C 0.25875 0.89498 0.75173 0.0
C779 C 0.26193 0.88767 0.70018 0.0
C780 C 0.26306 0.89079 0.71797 0.0
H781 H 0.21581 0.93073 0.79736 0.0
H782 H 0.22219 0.92782 0.76835 0.0
H783 H 0.27239 0.95509 0.74743 0.0
H784 H 0.3054 0.94353 0.66698 0.0
H785 H 0.31267 0.94555 0.69612 0.0
C786 C 0.60614 0.69275 0.67289 0.0
C787 C 0.6035 0.72408 0.66595 0.0
C788 C 0.60393 0.6875 0.68954 0.0
C789 C 0.57703 0.7179 0.72755 0.0
H790 H 0.65693 0.69894 0.74586 0.0
C791 C 0.66193 0.73785 0.79163 0.0
C792 C 0.62993 0.72213 0.80232 0.0
C793 C 0.65567 0.73452 0.77505 0.0
C794 C 0.63455 0.7044 0.74094 0.0
H795 H 0.59443 0.77323 0.67109 0.0
H796 H 0.59105 0.76433 0.70007 0.0
H797 H 0.64963 0.69872 0.71683 0.0
H798 H 0.56615 0.6903 0.80392 0.0
H799 H 0.5553 0.68422 0.77498 0.0
H800 H 0.563 0.72506 0.75169 0.0
C801 C 0.59449 0.74359 0.69265 0.0
C802 C 0.62998 0.70373 0.72429 0.0
C803 C 0.59663 0.74881 0.676 0.0
C804 C 0.5915 0.7029 0.79603 0.0
C805 C 0.58525 0.69954 0.77944 0.0
C806 C 0.58162 0.71858 0.74422 0.0
C807 C 0.59906 0.71346 0.69964 0.0
C808 C 0.60149 0.71093 0.71738 0.0
C809 C 0.61726 0.71533 0.76875 0.0
C810 C 0.6108 0.71237 0.7511 0.0
H811 H 0.61114 0.67294 0.66551 0.0
H812 H 0.60682 0.66355 0.69453 0.0
H813 H 0.55456 0.72318 0.72261 0.0
H814 H 0.69192 0.75296 0.79603 0.0
H815 H 0.68099 0.74755 0.76715 0.0
C816 C 0.29585 0.98085 0.93183 0.0
C817 C 0.26048 0.94956 0.92582 0.0
C818 C 0.29973 0.99035 0.94815 0.0
C819 C 0.24214 0.98154 0.9842 0.0
H820 H 0.33617 0.00099 0.00719 0.0
C821 C 0.27886 0.04586 0.04845 0.0
C822 C 0.29255 0.02785 0.05928 0.0
C823 C 0.27426 0.03585 0.03218 0.0
C824 C 0.30967 -0.00455 0.00094 0.0
H825 H 0.20139 0.90386 0.93227 0.0
H826 H 0.20823 0.92066 0.96072 0.0
H827 H 0.32961 0.98438 0.97866 0.0
H828 H 0.31193 0.985 0.06148 0.0
H829 H 0.30402 0.96771 0.03306 0.0
H830 H 0.22215 0.9925 0.00649 0.0
C831 C 0.23286 0.93786 0.95277 0.0
C832 C 0.3061 0.98632 0.98459 0.0
C833 C 0.22906 0.92812 0.93649 0.0
C834 C 0.30131 -0.00056 0.05348 0.0
C835 C 0.29703 0.98969 0.03719 0.0
C836 C 0.24588 0.99103 0.00051 0.0
C837 C 0.26824 0.96902 0.95877 0.0
C838 C 0.27224 0.97916 0.97607 0.0
C839 C 0.28357 0.00788 0.02637 0.0
C840 C 0.27963 -0.00205 0.00905 0.0
H841 H 0.32063 -0.00205 0.92394 0.0
H842 H 0.32724 0.01474 0.95243 0.0
H843 H 0.21586 0.97646 0.97789 0.0
H844 H 0.27182 0.06784 0.05252 0.0
H845 H 0.26413 0.05055 0.02409 0.0
C846 C 0.80055 0.70886 0.44252 0.0
C847 C 0.80343 0.73141 0.42891 0.0
C848 C 0.79551 0.72037 0.45774 0.0
C849 C 0.79811 0.80033 0.48212 0.0
H850 H 0.71003 0.71312 0.5038 0.0
C851 C 0.68077 0.76649 0.53701 0.0
C852 C 0.70588 0.78539 0.5501 0.0
C853 C 0.69608 0.76471 0.52214 0.0
C854 C 0.73456 0.73783 0.49788 0.0
H855 H 0.80637 0.7854 0.42078 0.0
H856 H 0.79714 0.80542 0.44753 0.0
H857 H 0.73333 0.70179 0.47846 0.0
H858 H 0.76703 0.81908 0.55752 0.0
H859 H 0.79378 0.81586 0.53137 0.0
H860 H 0.79874 0.83636 0.50168 0.0
C861 C 0.79894 0.77886 0.44634 0.0
C862 C 0.74824 0.73126 0.48345 0.0
C863 C 0.80416 0.76736 0.43103 0.0
C864 C 0.74684 0.80413 0.54771 0.0
C865 C 0.76221 0.80247 0.53274 0.0
C866 C 0.78455 0.80687 0.49672 0.0
C867 C 0.79304 0.75463 0.45974 0.0
C868 C 0.78009 0.76236 0.47538 0.0
C869 C 0.73688 0.78187 0.51993 0.0
C870 C 0.75237 0.77568 0.50465 0.0
H871 H 0.80052 0.68133 0.44134 0.0
H872 H 0.79194 0.70157 0.4679 0.0
H873 H 0.82273 0.82481 0.47615 0.0
H874 H 0.6491 0.75206 0.53833 0.0
H875 H 0.67589 0.7492 0.51239 0.0
C876 C -0.00834 0.30618 0.93716 0.0
C877 C 0.02235 0.30097 0.93132 0.0
C878 C 0.98228 0.3015 0.95349 0.0
C879 C -0.01033 0.25422 0.99025 0.0
H880 H 0.97605 0.33403 0.01202 0.0
C881 C 0.92602 0.23415 0.0543 0.0
C882 C 0.94593 0.26608 0.06489 0.0
C883 C 0.93599 0.23823 0.03804 0.0
C884 C 0.97996 0.31164 0.0061 0.0
H885 H 0.06677 0.28606 0.93803 0.0
H886 H 0.05003 0.27754 0.96653 0.0
H887 H -0.00816 0.34109 0.98337 0.0
H888 H -0.00806 0.32736 0.06669 0.0
H889 H 0.00907 0.33449 0.03821 0.0
H890 H 0.97774 0.22474 0.01297 0.0
C891 C 0.03333 0.28528 0.95844 0.0
C892 C 0.98862 0.31548 0.98971 0.0
C893 C 0.043 0.29035 0.94214 0.0
C894 C 0.97606 0.30218 0.05885 0.0
C895 C 0.98574 0.30636 0.04255 0.0
C896 C 0.98059 0.25016 0.0066 0.0
C897 C 0.0031 0.29112 0.96428 0.0
C898 C -0.00639 0.28684 0.98163 0.0
C899 C 0.96579 0.27441 0.032 0.0
C900 C 0.97572 0.27887 0.01469 0.0
H901 H 0.9752 0.31441 0.92916 0.0
H902 H 0.95857 0.3058 0.95767 0.0
H903 H -0.00686 0.2316 0.98428 0.0
H904 H 0.9027 0.20591 0.05856 0.0
H905 H 0.91991 0.21323 0.03013 0.0
C906 C 0.22922 0.03478 0.42782 0.0
C907 C 0.26899 0.06421 0.42629 0.0
C908 C 0.21402 0.01771 0.44283 0.0
C909 C 0.18903 -0.00178 0.4788 0.0
H910 H 0.25841 0.96796 0.49963 0.0
C911 C 0.17863 0.94872 0.54549 0.0
C912 C 0.18852 0.91951 0.54874 0.0
C913 C 0.18081 0.96256 0.5298 0.0
C914 C 0.23846 0.97578 0.49391 0.0
H915 H 0.32291 0.10121 0.43948 0.0
H916 H 0.2964 0.07157 0.46546 0.0
H917 H 0.2774 0.00242 0.47408 0.0
H918 H 0.20492 0.87945 0.53789 0.0
H919 H 0.20844 0.90342 0.51064 0.0
H920 H 0.15023 0.97162 0.49892 0.0
C921 C 0.27722 0.06116 0.45507 0.0
C922 C 0.24958 -0.00403 0.47938 0.0
C923 C 0.29235 0.07814 0.44017 0.0
C924 C 0.19776 0.90244 0.53586 0.0
C925 C 0.19983 0.91618 0.52024 0.0
C926 C 0.17799 0.97821 0.49354 0.0
C927 C 0.2384 0.02984 0.45645 0.0
C928 C 0.22522 0.0077 0.47173 0.0
C929 C 0.19285 0.94738 0.51714 0.0
C930 C 0.2027 0.96684 0.50121 0.0
H931 H 0.21044 0.02351 0.41735 0.0
H932 H 0.18395 -0.00641 0.44361 0.0
H933 H 0.16976 0.00695 0.47311 0.0
H934 H 0.17122 0.96235 0.55514 0.0
H935 H 0.17537 0.98671 0.52776 0.0
C936 C 0.74916 0.69674 0.04897 0.0
C937 C 0.71789 0.68777 0.05956 0.0
C938 C 0.7457 0.70249 0.0326 0.0
C939 C 0.68702 0.7238 0.00356 0.0
H940 H 0.72832 0.67987 0.97265 0.0
C941 C 0.67454 0.68507 0.93157 0.0
C942 C 0.67735 0.71957 0.92514 0.0
C943 C 0.68082 0.68245 0.94794 0.0
C944 C 0.71637 0.69208 0.98112 0.0
H945 H 0.65848 0.67804 0.06122 0.0
H946 H 0.65225 0.68739 0.03271 0.0
H947 H 0.73618 0.67277 0.00126 0.0
H948 H 0.68949 0.7786 0.9309 0.0
H949 H 0.70109 0.77426 0.95936 0.0
H950 H 0.66605 0.74195 0.98343 0.0
C951 C 0.67973 0.69066 0.03707 0.0
C952 C 0.72134 0.68847 -0.00246 0.0
C953 C 0.68324 0.68507 0.05343 0.0
C954 C 0.68686 0.75149 0.93545 0.0
C955 C 0.69331 0.74893 0.95181 0.0
C956 C 0.68193 0.72729 0.98715 0.0
C957 C 0.71084 0.69927 0.02644 0.0
C958 C 0.70658 0.70414 0.00896 0.0
C959 C 0.69024 0.71434 0.95826 0.0
C960 C 0.6964 0.71133 0.97572 0.0
H961 H 0.77635 0.69923 0.05328 0.0
H962 H 0.77045 0.70966 0.02479 0.0
H963 H 0.67569 0.73664 0.01202 0.0
H964 H 0.6671 0.65984 0.92399 0.0
H965 H 0.67762 0.65515 0.95254 0.0
C966 C 0.01069 0.20755 0.56398 0.0
C967 C 0.04444 0.24501 0.56539 0.0
C968 C -0.00421 0.19173 0.5488 0.0
C969 C 0.0201 0.20398 0.50528 0.0
H970 H 0.90996 0.17155 0.49952 0.0
C971 C 0.95051 0.17677 0.44229 0.0
C972 C 0.92891 0.19598 0.43946 0.0
C973 C 0.96104 0.1727 0.45791 0.0
C974 C 0.94071 0.18033 0.50095 0.0
H975 H 0.09041 0.29406 0.55204 0.0
H976 H 0.06458 0.26662 0.52575 0.0
H977 H 0.93751 0.18256 0.52655 0.0
H978 H 0.90017 0.22456 0.45092 0.0
H979 H 0.91892 0.21788 0.47807 0.0
H980 H 0.02391 0.204 0.47967 0.0
C981 C 0.04956 0.24934 0.53628 0.0
C982 C 0.95638 0.18618 0.51644 0.0
C983 C 0.06419 0.26525 0.55138 0.0
C984 C 0.9169 0.20972 0.45265 0.0
C985 C 0.92737 0.20557 0.46825 0.0
C986 C 0.00444 0.19808 0.4898 0.0
C987 C 0.01469 0.21288 0.5348 0.0
C988 C -0.00344 0.19935 0.51873 0.0
C989 C 0.9501 0.1876 0.47104 0.0
C990 C 0.96487 0.18745 0.48745 0.0
H991 H -0.00516 0.19124 0.57456 0.0
H992 H 0.969 0.16343 0.54801 0.0
H993 H 0.05108 0.21369 0.50669 0.0
H994 H 0.96004 0.16561 0.43242 0.0
H995 H 0.97823 0.15836 0.4597 0.0
C996 C 0.74268 0.17365 0.10016 0.0
C997 C 0.75993 0.19479 0.11436 0.0
C998 C 0.70205 0.1484 0.09919 0.0
C999 C 0.61663 0.08987 0.12496 0.0
H1000 H 0.55461 0.09389 0.08953 0.0
C1001 C 0.45931 0.05492 0.13105 0.0
C1002 C 0.43382 0.04163 0.11783 0.0
C1003 C 0.49692 0.06008 0.12983 0.0
C1004 C 0.57153 0.09145 0.09929 0.0
H1005 H 0.74781 0.2073 0.13839 0.0
H1006 H 0.67686 0.1634 0.13663 0.0
H1007 H 0.62619 0.13378 0.08855 0.0
H1008 H 0.42585 0.02026 0.09339 0.0
H1009 H 0.4924 0.02962 0.09112 0.0
H1010 H 0.56203 0.04862 0.13597 0.0
C1011 C 0.69495 0.16598 0.12636 0.0
C1012 C 0.6125 0.11458 0.09878 0.0
C1013 C 0.7355 0.19148 0.12729 0.0
C1014 C 0.44511 0.03028 0.10376 0.0
C1015 C 0.48317 0.03596 0.10244 0.0
C1016 C 0.57573 0.06657 0.12543 0.0
C1017 C 0.67798 0.14357 0.11244 0.0
C1018 C 0.63525 0.11515 0.1119 0.0
C1019 C 0.50995 0.05255 0.11526 0.0
C1020 C 0.55268 0.06838 0.11291 0.0
H1021 H 0.76069 0.1756 0.08996 0.0
H1022 H 0.68964 0.13159 0.0883 0.0
H1023 H 0.63364 0.08907 0.13506 0.0
H1024 H 0.45108 0.06394 0.14199 0.0
H1025 H 0.51681 0.07326 0.13988 0.0
C1026 C 0.64521 0.53185 0.40665 0.0
C1027 C 0.64398 0.56097 0.39724 0.0
C1028 C 0.61081 0.49679 0.41013 0.0
C1029 C 0.51501 0.43552 0.39109 0.0
H1030 H 0.50908 0.36215 0.42376 0.0
C1031 C 0.45053 0.27397 0.37669 0.0
C1032 C 0.4292 0.24503 0.38829 0.0
C1033 C 0.46966 0.31369 0.38076 0.0
C1034 C 0.50966 0.38229 0.41471 0.0
H1035 H 0.60538 0.57827 0.38573 0.0
H1036 H 0.54491 0.5175 0.39234 0.0
H1037 H 0.5527 0.43256 0.42766 0.0
H1038 H 0.41157 0.23487 0.41332 0.0
H1039 H 0.4448 0.30478 0.42042 0.0
H1040 H 0.47183 0.38542 0.37822 0.0
C1041 C 0.57267 0.52105 0.39647 0.0
C1042 C 0.53502 0.42268 0.41685 0.0
C1043 C 0.60729 0.55595 0.39272 0.0
C1044 C 0.42805 0.2566 0.40416 0.0
C1045 C 0.44696 0.29658 0.40821 0.0
C1046 C 0.48921 0.39534 0.38911 0.0
C1047 C 0.57421 0.49021 0.4045 0.0
C1048 C 0.53971 0.44957 0.40462 0.0
C1049 C 0.46751 0.32556 0.39647 0.0
C1050 C 0.48798 0.36814 0.40043 0.0
H1051 H 0.673 0.53489 0.41044 0.0
H1052 H 0.61354 0.47383 0.41619 0.0
H1053 H 0.51756 0.45501 0.38137 0.0
H1054 H 0.45231 0.26597 0.3644 0.0
H1055 H 0.48634 0.33514 0.37153 0.0
C1056 C 0.91429 0.40358 0.13424 0.0
C1057 C 0.93139 0.39116 0.12253 0.0
C1058 C 0.90478 0.43244 0.13061 0.0
C1059 C 0.90983 0.51039 0.10912 0.0
H1060 H 0.7963 0.44687 0.10448 0.0
C1061 C 0.81168 0.57876 0.09685 0.0
C1062 C 0.77959 0.56564 0.10745 0.0
C1063 C 0.83284 0.55894 0.09585 0.0
C1064 C 0.82794 0.46498 0.10568 0.0
H1065 H 0.95568 0.40157 0.09848 0.0
H1066 H 0.93849 0.45235 0.09207 0.0
H1067 H 0.83517 0.41482 0.10885 0.0
H1068 H 0.74349 0.5204 0.12476 0.0
H1069 H 0.78032 0.48583 0.12299 0.0
H1070 H 0.90241 0.56073 0.10672 0.0
C1071 C 0.93292 0.43984 0.10404 0.0
C1072 C 0.85009 0.44669 0.10807 0.0
C1073 C 0.9428 0.411 0.10773 0.0
C1074 C 0.76802 0.53128 0.11648 0.0
C1075 C 0.78904 0.51138 0.11541 0.0
C1076 C 0.88757 0.52884 0.10673 0.0
C1077 C 0.91216 0.44915 0.11524 0.0
C1078 C 0.89094 0.46928 0.11019 0.0
C1079 C 0.82209 0.52544 0.10532 0.0
C1080 C 0.84629 0.50623 0.10545 0.0
H1081 H 0.90536 0.38872 0.14575 0.0
H1082 H 0.8887 0.43935 0.13936 0.0
H1083 H 0.94135 0.52814 0.11085 0.0
H1084 H 0.82137 0.60512 0.08969 0.0
H1085 H 0.85794 0.57013 0.08786 0.0
C1086 C 0.46391 0.08948 0.40508 0.0
C1087 C 0.43946 0.06664 0.3924 0.0
C1088 C 0.49908 0.09011 0.40824 0.0
C1089 C 0.5716 0.08119 0.38468 0.0
H1090 H 0.62934 0.10706 0.42485 0.0
C1091 C 0.73483 0.13265 0.38459 0.0
C1092 C 0.75892 0.1668 0.39351 0.0
C1093 C 0.69441 0.11177 0.38703 0.0
C1094 C 0.61351 0.09989 0.41357 0.0
H1095 H 0.43027 0.0228 0.37443 0.0
H1096 H 0.49148 0.02342 0.38014 0.0
H1097 H 0.55821 0.08158 0.42514 0.0
H1098 H 0.75995 0.20486 0.41257 0.0
H1099 H 0.6884 0.16903 0.41644 0.0
H1100 H 0.62656 0.10089 0.37301 0.0
C1101 C 0.48394 0.04173 0.38731 0.0
C1102 C 0.57286 0.08517 0.41373 0.0
C1103 C 0.44887 0.04133 0.38406 0.0
C1104 C 0.74193 0.17881 0.40545 0.0
C1105 C 0.70111 0.1581 0.40775 0.0
C1106 C 0.61197 0.09582 0.38452 0.0
C1107 C 0.51034 0.06769 0.39885 0.0
C1108 C 0.55166 0.07643 0.39924 0.0
C1109 C 0.67692 0.12487 0.39828 0.0
C1110 C 0.63352 0.106 0.39892 0.0
H1111 H 0.45729 0.10896 0.4119 0.0
H1112 H 0.51875 0.11052 0.41718 0.0
H1113 H 0.55647 0.07577 0.37327 0.0
H1114 H 0.74721 0.12203 0.37559 0.0
H1115 H 0.67669 0.08576 0.37983 0.0
C1116 C 0.4461 0.23992 0.10615 0.0
C1117 C 0.40634 0.2161 0.1019 0.0
C1118 C 0.46477 0.28079 0.10419 0.0
C1119 C 0.44454 0.35948 0.10711 0.0
H1120 H 0.54546 0.42399 0.08635 0.0
C1121 C 0.57117 0.53306 0.09742 0.0
C1122 C 0.58485 0.54243 0.11328 0.0
C1123 C 0.54159 0.49481 0.09359 0.0
C1124 C 0.51692 0.40629 0.09193 0.0
H1125 H 0.35531 0.21632 0.09187 0.0
H1126 H 0.38782 0.28775 0.08894 0.0
H1127 H 0.51164 0.35212 0.08356 0.0
H1128 H 0.57667 0.52102 0.13775 0.0
H1129 H 0.52363 0.45469 0.13118 0.0
H1130 H 0.45124 0.41349 0.11647 0.0
C1131 C 0.40448 0.27465 0.09356 0.0
C1132 C 0.49785 0.36536 0.09045 0.0
C1133 C 0.38604 0.23381 0.09519 0.0
C1134 C 0.56621 0.51439 0.12547 0.0
C1135 C 0.53598 0.47657 0.12171 0.0
C1136 C 0.46404 0.40038 0.1089 0.0
C1137 C 0.44376 0.29844 0.09826 0.0
C1138 C 0.46188 0.34167 0.09825 0.0
C1139 C 0.52477 0.46603 0.10566 0.0
C1140 C 0.50064 0.42399 0.10152 0.0
H1141 H 0.46245 0.2271 0.11132 0.0
H1142 H 0.49511 0.29877 0.10798 0.0
H1143 H 0.41688 0.34164 0.11332 0.0
H1144 H 0.58564 0.55417 0.08782 0.0
H1145 H 0.53338 0.48711 0.08113 0.0
C1146 C 0.87088 0.58965 0.37589 0.0
C1147 C 0.83991 0.58434 0.38594 0.0
C1148 C 0.89242 0.57116 0.37936 0.0
C1149 C 0.91052 0.5144 0.41088 0.0
H1150 H 0.93101 0.4678 0.37377 0.0
C1151 C 0.91645 0.37136 0.41069 0.0
C1152 C 0.94009 0.3669 0.39916 0.0
C1153 C 0.91662 0.40692 0.41197 0.0
C1154 C 0.9265 0.48138 0.38426 0.0
H1155 H 0.80762 0.55634 0.40769 0.0
H1156 H 0.84392 0.52216 0.41335 0.0
H1157 H 0.90549 0.51192 0.36992 0.0
H1158 H 0.98608 0.39768 0.38141 0.0
H1159 H 0.98626 0.45968 0.38368 0.0
H1160 H 0.92932 0.48129 0.42519 0.0
C1161 C 0.8524 0.54158 0.40304 0.0
C1162 C 0.91176 0.50674 0.38205 0.0
C1163 C 0.83129 0.56075 0.39971 0.0
C1164 C 0.96694 0.3999 0.39019 0.0
C1165 C 0.9671 0.43543 0.39148 0.0
C1166 C 0.92495 0.48858 0.41309 0.0
C1167 C 0.88295 0.54624 0.39279 0.0
C1168 C 0.90279 0.52293 0.39533 0.0
C1169 C 0.94048 0.43856 0.40177 0.0
C1170 C 0.93229 0.47123 0.39978 0.0
H1171 H 0.87876 0.60843 0.36538 0.0
H1172 H 0.91632 0.57616 0.37142 0.0
H1173 H 0.90458 0.52695 0.42135 0.0
H1174 H 0.8958 0.34667 0.41795 0.0
H1175 H 0.89572 0.40846 0.41999 0.0
C1176 C 0.14265 0.71925 0.60538 0.0
C1177 C 0.1691 0.74792 0.5946 0.0
C1178 C 0.12476 0.67938 0.6016 0.0
C1179 C 0.13909 0.60929 0.57869 0.0
H1180 H 0.02954 0.53861 0.58959 0.0
C1181 C 0.0787 0.44359 0.57987 0.0
C1182 C 0.06017 0.42619 0.59449 0.0
C1183 C 0.08411 0.48026 0.57535 0.0
C1184 C 0.0601 0.55796 0.58642 0.0
H1185 H 0.1977 0.75711 0.57142 0.0
H1186 H 0.16676 0.68692 0.56496 0.0
H1187 H 0.0562 0.60979 0.59051 0.0
H1188 H 0.02965 0.43193 0.61511 0.0
H1189 H 0.03979 0.49613 0.60743 0.0
H1190 H 0.14383 0.55784 0.57549 0.0
C1191 C 0.15982 0.69565 0.57627 0.0
C1192 C 0.07533 0.59863 0.58694 0.0
C1193 C 0.17753 0.73574 0.57999 0.0
C1194 C 0.04424 0.44462 0.60382 0.0
C1195 C 0.04986 0.4814 0.59935 0.0
C1196 C 0.12395 0.56864 0.57825 0.0
C1197 C 0.13306 0.66717 0.58701 0.0
C1198 C 0.1153 0.62462 0.58363 0.0
C1199 C 0.07126 0.50032 0.5854 0.0
C1200 C 0.08464 0.54256 0.58266 0.0
H1201 H 0.13535 0.72754 0.61672 0.0
H1202 H 0.10486 0.65801 0.61025 0.0
H1203 H 0.17006 0.62867 0.57618 0.0
H1204 H 0.09074 0.4298 0.57227 0.0
H1205 H 0.09996 0.49372 0.56437 0.0
C1206 C 0.39837 0.92767 0.85167 0.0
C1207 C 0.38605 0.94068 0.86496 0.0
C1208 C 0.4268 0.91673 0.8535 0.0
C1209 C 0.50149 0.91271 0.87722 0.0
H1210 H 0.44345 0.8013 0.86668 0.0
C1211 C 0.56648 0.80986 0.88626 0.0
C1212 C 0.56001 0.78364 0.87355 0.0
C1213 C 0.54648 0.83096 0.88678 0.0
C1214 C 0.46026 0.83239 0.86954 0.0
H1215 H 0.39647 0.95672 0.8901 0.0
H1216 H 0.44676 0.93735 0.89331 0.0
H1217 H 0.41201 0.84085 0.86372 0.0
H1218 H 0.52689 0.75849 0.85163 0.0
H1219 H 0.49266 0.79553 0.85241 0.0
H1220 H 0.55032 0.90445 0.88253 0.0
C1221 C 0.4344 0.93587 0.88152 0.0
C1222 C 0.44221 0.85497 0.86789 0.0
C1223 C 0.40585 0.94706 0.87967 0.0
C1224 C 0.53239 0.7782 0.86165 0.0
C1225 C 0.51263 0.7994 0.86214 0.0
C1226 C 0.51989 0.89011 0.87869 0.0
C1227 C 0.4432 0.91848 0.86865 0.0
C1228 C 0.46285 0.89537 0.87142 0.0
C1229 C 0.51968 0.82629 0.87462 0.0
C1230 C 0.4996 0.84982 0.87457 0.0
H1231 H 0.38352 0.92267 0.8402 0.0
H1232 H 0.43355 0.90374 0.84338 0.0
H1233 H 0.51774 0.94383 0.88009 0.0
H1234 H 0.58754 0.81468 0.89564 0.0
H1235 H 0.55213 0.85103 0.89667 0.0
C1236 C 0.5159 0.61662 0.57898 0.0
C1237 C 0.54428 0.62258 0.59064 0.0
C1238 C 0.48069 0.58076 0.57813 0.0
C1239 C 0.41661 0.5076 0.60655 0.0
H1240 H 0.34981 0.45819 0.56956 0.0
C1241 C 0.25392 0.39557 0.61521 0.0
C1242 C 0.22751 0.39938 0.60502 0.0
C1243 C 0.29395 0.4149 0.61168 0.0
C1244 C 0.3681 0.47181 0.58 0.0
H1245 H 0.55998 0.59407 0.60926 0.0
H1246 H 0.49846 0.53148 0.60773 0.0
H1247 H 0.4199 0.50522 0.56567 0.0
H1248 H 0.22191 0.42534 0.5829 0.0
H1249 H 0.29238 0.46093 0.57709 0.0
H1250 H 0.36511 0.47657 0.62088 0.0
C1251 C 0.50322 0.55484 0.59947 0.0
C1252 C 0.4082 0.49846 0.57777 0.0
C1253 C 0.53845 0.59069 0.60032 0.0
C1254 C 0.24174 0.42209 0.59099 0.0
C1255 C 0.28203 0.4421 0.5876 0.0
C1256 C 0.37668 0.48138 0.60877 0.0
C1257 C 0.47327 0.55025 0.58892 0.0
C1258 C 0.43263 0.51714 0.59103 0.0
C1259 C 0.30866 0.43917 0.59805 0.0
C1260 C 0.35175 0.46371 0.59552 0.0
H1261 H 0.51968 0.64042 0.57118 0.0
H1262 H 0.45811 0.57812 0.5699 0.0
H1263 H 0.43446 0.52218 0.617 0.0
H1264 H 0.24363 0.37749 0.62593 0.0
H1265 H 0.31345 0.41117 0.61978 0.0
C1266 C 0.17204 0.74755 0.88806 0.0
C1267 C 0.19218 0.76688 0.87396 0.0
C1268 C 0.14896 0.70649 0.8885 0.0
C1269 C 0.1305 0.61678 0.86635 0.0
H1270 H 0.03041 0.56799 0.88884 0.0
C1271 C 0.02835 0.45578 0.85816 0.0
C1272 C 0.0245 0.43548 0.87252 0.0
C1273 C 0.03832 0.4952 0.85853 0.0
C1274 C 0.05822 0.58143 0.88249 0.0
H1275 H 0.20445 0.75827 0.84936 0.0
H1276 H 0.16369 0.68717 0.84997 0.0
H1277 H 0.07314 0.63985 0.88948 0.0
H1278 H 0.02355 0.43831 0.89845 0.0
H1279 H 0.04111 0.50776 0.89914 0.0
H1280 H 0.11543 0.55869 0.85915 0.0
C1281 C 0.16628 0.70341 0.86084 0.0
C1282 C 0.08288 0.6224 0.88296 0.0
C1283 C 0.1897 0.74431 0.86047 0.0
C1284 C 0.02581 0.45342 0.88725 0.0
C1285 C 0.03602 0.49312 0.88763 0.0
C1286 C 0.10571 0.57619 0.86567 0.0
C1287 C 0.14527 0.68399 0.8748 0.0
C1288 C 0.11929 0.64051 0.87484 0.0
C1289 C 0.04498 0.51483 0.87328 0.0
C1290 C 0.06931 0.55816 0.87364 0.0
H1291 H 0.17346 0.76416 0.89868 0.0
H1292 H 0.13382 0.69245 0.89954 0.0
H1293 H 0.15869 0.62947 0.86033 0.0
H1294 H 0.02777 0.44243 0.8467 0.0
H1295 H 0.04471 0.51136 0.84733 0.0
C1296 C 0.38662 0.94572 0.59875 0.0
C1297 C 0.35601 0.93441 0.58762 0.0
C1298 C 0.42003 0.94374 0.59463 0.0
C1299 C 0.43966 0.88089 0.56894 0.0
H1300 H 0.53988 0.93344 0.59112 0.0
C1301 C 0.5403 0.81284 0.57557 0.0
C1302 C 0.55096 0.81207 0.59165 0.0
C1303 C 0.52323 0.83534 0.57114 0.0
C1304 C 0.51215 0.91873 0.5847 0.0
H1305 H 0.33846 0.91769 0.56286 0.0
H1306 H 0.39726 0.91524 0.55554 0.0
H1307 H 0.50029 0.96545 0.58935 0.0
H1308 H 0.55148 0.8339 0.61569 0.0
H1309 H 0.52159 0.87261 0.60796 0.0
H1310 H 0.45071 0.83342 0.56497 0.0
C1311 C 0.39494 0.92423 0.56759 0.0
C1312 C 0.48953 0.93701 0.5837 0.0
C1313 C 0.36133 0.9257 0.57178 0.0
C1314 C 0.54363 0.83371 0.6032 0.0
C1315 C 0.52702 0.8564 0.59875 0.0
C1316 C 0.46241 0.86279 0.56986 0.0
C1317 C 0.42348 0.93087 0.57925 0.0
C1318 C 0.45216 0.91738 0.5765 0.0
C1319 C 0.51703 0.85776 0.58268 0.0
C1320 C 0.49788 0.88071 0.57843 0.0
H1321 H 0.38334 0.95274 0.61103 0.0
H1322 H 0.44134 0.94892 0.60395 0.0
H1323 H 0.41085 0.86466 0.56345 0.0
H1324 H 0.5457 0.79659 0.56638 0.0
H1325 H 0.51542 0.83571 0.55869 0.0
C1326 C 0.5052 0.57636 0.85692 0.0
C1327 C 0.53455 0.5893 0.86875 0.0
C1328 C 0.4662 0.55001 0.86084 0.0
C1329 C 0.3918 0.47909 0.88554 0.0
H1330 H 0.34478 0.54569 0.88313 0.0
C1331 C 0.22647 0.41797 0.89738 0.0
C1332 C 0.20741 0.42788 0.88548 0.0
C1333 C 0.26749 0.43786 0.89829 0.0
C1334 C 0.3574 0.52669 0.88386 0.0
H1335 H 0.54722 0.58177 0.89341 0.0
H1336 H 0.47825 0.53509 0.90029 0.0
H1337 H 0.41506 0.57393 0.87821 0.0
H1338 H 0.2165 0.46801 0.86583 0.0
H1339 H 0.28782 0.50242 0.86735 0.0
H1340 H 0.33375 0.43133 0.89039 0.0
C1341 C 0.48575 0.54546 0.88803 0.0
C1342 C 0.39753 0.54287 0.88112 0.0
C1343 C 0.52507 0.57191 0.88407 0.0
C1344 C 0.23018 0.45961 0.87514 0.0
C1345 C 0.27114 0.47946 0.87606 0.0
C1346 C 0.35137 0.4627 0.88817 0.0
C1347 C 0.45605 0.53619 0.87662 0.0
C1348 C 0.41476 0.51903 0.88157 0.0
C1349 C 0.29025 0.46814 0.88738 0.0
C1350 C 0.33364 0.48622 0.88694 0.0
H1351 H 0.5119 0.58929 0.84501 0.0
H1352 H 0.44357 0.54297 0.85189 0.0
H1353 H 0.40476 0.46035 0.8859 0.0
H1354 H 0.20981 0.3938 0.90561 0.0
H1355 H 0.2814 0.42893 0.9073 0.0
loop_
_geom_bond_atom_site_label_1
_geom_bond_atom_site_label_2
_geom_bond_distance
_geom_bond_site_symmetry_2
_ccdc_geom_bond_type
O0 Zn1 1.953 . S
O0 C16 1.225 . S
Zn1 O0 1.953 . S
Zn1 O2 1.949 . S
Zn1 O8 1.919 . S
Zn1 O13 1.924 . S
O2 Zn1 1.949 . S
O2 Zn3 1.923 . S
O2 Zn4 1.950 . S
O2 Zn5 1.945 . S
Zn3 O2 1.923 . S
Zn3 O6 1.933 . S
Zn3 O9 1.941 . S
Zn3 O10 1.965 . S
Zn4 O2 1.950 . S
Zn4 O11 1.938 . S
Zn4 O12 1.906 . S
Zn4 O22 1.953 . S
Zn5 O2 1.945 . S
Zn5 O7 1.932 . S
Zn5 O14 1.977 . S
Zn5 O15 1.910 . S
O6 Zn3 1.933 . S
O6 C17 1.226 . S
O7 Zn5 1.932 . S
O7 C17 1.307 . S
O8 Zn1 1.919 . S
O8 C19 1.253 . S
O9 Zn3 1.941 . S
O9 C19 1.283 . S
O10 Zn3 1.965 . S
O10 C18 1.303 . S
O11 Zn4 1.938 . S
O11 C18 1.247 . S
O12 Zn4 1.906 . S
O12 C20 1.304 . S
O13 Zn1 1.924 . S
O13 C21 1.311 . S
O14 Zn5 1.977 . S
O14 C20 1.272 . S
O15 Zn5 1.910 . S
O15 C21 1.231 . S
C16 O0 1.225 . S
C16 O22 1.298 . S
C17 O6 1.226 . S
C17 O7 1.307 . S
C18 O10 1.303 . S
C18 O11 1.247 . S
C19 O8 1.253 . S
C19 O9 1.283 . S
C20 O12 1.304 . S
C20 O14 1.272 . S
C21 O13 1.311 . S
C21 O15 1.231 . S
O22 Zn4 1.953 . S
O22 C16 1.298 . S
O23 Zn24 1.953 . S
O23 C39 1.225 . S
Zn24 O23 1.953 . S
Zn24 O25 1.949 . S
Zn24 O31 1.919 . S
Zn24 O36 1.924 . S
O25 Zn24 1.949 . S
O25 Zn26 1.923 . S
O25 Zn27 1.950 . S
O25 Zn28 1.945 . S
Zn26 O25 1.923 . S
Zn26 O29 1.933 . S
Zn26 O32 1.941 . S
Zn26 O33 1.965 . S
Zn27 O25 1.950 . S
Zn27 O34 1.938 . S
Zn27 O35 1.906 . S
Zn27 O45 1.953 . S
Zn28 O25 1.945 . S
Zn28 O30 1.932 . S
Zn28 O37 1.977 . S
Zn28 O38 1.910 . S
O29 Zn26 1.933 . S
O29 C40 1.226 . S
O30 Zn28 1.932 . S
O30 C40 1.307 . S
O31 Zn24 1.919 . S
O31 C42 1.253 . S
O32 Zn26 1.941 . S
O32 C42 1.283 . S
O33 Zn26 1.965 . S
O33 C41 1.303 . S
O34 Zn27 1.938 . S
O34 C41 1.247 . S
O35 Zn27 1.906 . S
O35 C43 1.304 . S
O36 Zn24 1.924 . S
O36 C44 1.311 . S
O37 Zn28 1.977 . S
O37 C43 1.272 . S
O38 Zn28 1.910 . S
O38 C44 1.231 . S
C39 O23 1.225 . S
C39 O45 1.298 . S
C40 O29 1.226 . S
C40 O30 1.307 . S
C41 O33 1.303 . S
C41 O34 1.247 . S
C42 O31 1.253 . S
C42 O32 1.283 . S
C43 O35 1.304 . S
C43 O37 1.272 . S
C44 O36 1.311 . S
C44 O38 1.231 . S
O45 Zn27 1.953 . S
O45 C39 1.298 . S
O46 Zn47 1.953 . S
O46 C62 1.225 . S
Zn47 O46 1.953 . S
Zn47 O48 1.949 . S
Zn47 O54 1.919 . S
Zn47 O59 1.924 . S
O48 Zn47 1.949 . S
O48 Zn49 1.923 . S
O48 Zn50 1.950 . S
O48 Zn51 1.945 . S
Zn49 O48 1.923 . S
Zn49 O52 1.933 . S
Zn49 O55 1.941 . S
Zn49 O56 1.965 . S
Zn50 O48 1.950 . S
Zn50 O57 1.938 . S
Zn50 O58 1.906 . S
Zn50 O68 1.953 . S
Zn51 O48 1.945 . S
Zn51 O53 1.932 . S
Zn51 O60 1.977 . S
Zn51 O61 1.910 . S
O52 Zn49 1.933 . S
O52 C63 1.226 . S
O53 Zn51 1.932 . S
O53 C63 1.307 . S
O54 Zn47 1.919 . S
O54 C65 1.253 . S
O55 Zn49 1.941 . S
O55 C65 1.283 . S
O56 Zn49 1.965 . S
O56 C64 1.303 . S
O57 Zn50 1.938 . S
O57 C64 1.247 . S
O58 Zn50 1.906 . S
O58 C66 1.304 . S
O59 Zn47 1.924 . S
O59 C67 1.311 . S
O60 Zn51 1.977 . S
O60 C66 1.272 . S
O61 Zn51 1.910 . S
O61 C67 1.231 . S
C62 O46 1.225 . S
C62 O68 1.298 . S
C63 O52 1.226 . S
C63 O53 1.307 . S
C64 O56 1.303 . S
C64 O57 1.247 . S
C65 O54 1.253 . S
C65 O55 1.283 . S
C66 O58 1.304 . S
C66 O60 1.272 . S
C67 O59 1.311 . S
C67 O61 1.231 . S
O68 Zn50 1.953 . S
O68 C62 1.298 . S
O69 Zn70 1.953 . S
O69 C85 1.225 . S
Zn70 O69 1.953 . S
Zn70 O71 1.949 . S
Zn70 O77 1.919 . S
Zn70 O82 1.924 . S
O71 Zn70 1.949 . S
O71 Zn72 1.923 . S
O71 Zn73 1.950 . S
O71 Zn74 1.945 . S
Zn72 O71 1.923 . S
Zn72 O75 1.933 . S
Zn72 O78 1.941 . S
Zn72 O79 1.965 . S
Zn73 O71 1.950 . S
Zn73 O80 1.938 . S
Zn73 O81 1.906 . S
Zn73 O91 1.953 . S
Zn74 O71 1.945 . S
Zn74 O76 1.932 . S
Zn74 O83 1.977 . S
Zn74 O84 1.910 . S
O75 Zn72 1.933 . S
O75 C86 1.226 . S
O76 Zn74 1.932 . S
O76 C86 1.307 . S
O77 Zn70 1.919 . S
O77 C88 1.253 . S
O78 Zn72 1.941 . S
O78 C88 1.283 . S
O79 Zn72 1.965 . S
O79 C87 1.303 . S
O80 Zn73 1.938 . S
O80 C87 1.247 . S
O81 Zn73 1.906 . S
O81 C89 1.304 . S
O82 Zn70 1.924 . S
O82 C90 1.311 . S
O83 Zn74 1.977 . S
O83 C89 1.272 . S
O84 Zn74 1.910 . S
O84 C90 1.231 . S
C85 O69 1.225 . S
C85 O91 1.298 . S
C86 O75 1.226 . S
C86 O76 1.307 . S
C87 O79 1.303 . S
C87 O80 1.247 . S
C88 O77 1.253 . S
C88 O78 1.283 . S
C89 O81 1.304 . S
C89 O83 1.272 . S
C90 O82 1.311 . S
C90 O84 1.231 . S
O91 Zn73 1.953 . S
O91 C85 1.298 . S
O92 Zn93 1.953 . S
O92 C108 1.225 . S
Zn93 O92 1.953 . S
Zn93 O94 1.949 . S
Zn93 O100 1.919 . S
Zn93 O105 1.924 . S
O94 Zn93 1.949 . S
O94 Zn95 1.923 . S
O94 Zn96 1.950 . S
O94 Zn97 1.945 . S
Zn95 O94 1.923 . S
Zn95 O98 1.933 . S
Zn95 O101 1.941 . S
Zn95 O102 1.965 . S
Zn96 O94 1.950 . S
Zn96 O103 1.938 . S
Zn96 O104 1.906 . S
Zn96 O114 1.953 . S
Zn97 O94 1.945 . S
Zn97 O99 1.932 . S
Zn97 O106 1.977 . S
Zn97 O107 1.910 . S
O98 Zn95 1.933 . S
O98 C109 1.226 . S
O99 Zn97 1.932 . S
O99 C109 1.307 . S
O100 Zn93 1.919 . S
O100 C111 1.253 . S
O101 Zn95 1.941 . S
O101 C111 1.283 . S
O102 Zn95 1.965 . S
O102 C110 1.303 . S
O103 Zn96 1.938 . S
O103 C110 1.247 . S
O104 Zn96 1.906 . S
O104 C112 1.304 . S
O105 Zn93 1.924 . S
O105 C113 1.311 . S
O106 Zn97 1.977 . S
O106 C112 1.272 . S
O107 Zn97 1.910 . S
O107 C113 1.231 . S
C108 O92 1.225 . S
C108 O114 1.298 . S
C109 O98 1.226 . S
C109 O99 1.307 . S
C110 O102 1.303 . S
C110 O103 1.247 . S
C111 O100 1.253 . S
C111 O101 1.283 . S
C112 O104 1.304 . S
C112 O106 1.272 . S
C113 O105 1.311 . S
C113 O107 1.231 . S
O114 Zn96 1.953 . S
O114 C108 1.298 . S
O115 Zn116 1.953 . S
O115 C131 1.225 . S
Zn116 O115 1.953 . S
Zn116 O117 1.949 . S
Zn116 O123 1.919 . S
Zn116 O128 1.924 . S
O117 Zn116 1.949 . S
O117 Zn118 1.923 . S
O117 Zn119 1.950 . S
O117 Zn120 1.945 . S
Zn118 O117 1.923 . S
Zn118 O121 1.933 . S
Zn118 O124 1.941 . S
Zn118 O125 1.965 . S
Zn119 O117 1.950 . S
Zn119 O126 1.938 . S
Zn119 O127 1.906 . S
Zn119 O137 1.953 . S
Zn120 O117 1.945 . S
Zn120 O122 1.932 . S
Zn120 O129 1.977 . S
Zn120 O130 1.910 . S
O121 Zn118 1.933 . S
O121 C132 1.226 . S
O122 Zn120 1.932 . S
O122 C132 1.307 . S
O123 Zn116 1.919 . S
O123 C134 1.253 . S
O124 Zn118 1.941 . S
O124 C134 1.283 . S
O125 Zn118 1.965 . S
O125 C133 1.303 . S
O126 Zn119 1.938 . S
O126 C133 1.247 . S
O127 Zn119 1.906 . S
O127 C135 1.304 . S
O128 Zn116 1.924 . S
O128 C136 1.311 . S
O129 Zn120 1.977 . S
O129 C135 1.272 . S
O130 Zn120 1.910 . S
O130 C136 1.231 . S
C131 O115 1.225 . S
C131 O137 1.298 . S
C132 O121 1.226 . S
C132 O122 1.307 . S
C133 O125 1.303 . S
C133 O126 1.247 . S
C134 O123 1.253 . S
C134 O124 1.283 . S
C135 O127 1.304 . S
C135 O129 1.272 . S
C136 O128 1.311 . S
C136 O130 1.231 . S
O137 Zn119 1.953 . S
O137 C131 1.298 . S
O138 Zn139 1.953 . S
O138 C154 1.225 . S
Zn139 O138 1.953 . S
Zn139 O140 1.949 . S
Zn139 O146 1.919 . S
Zn139 O151 1.924 . S
O140 Zn139 1.949 . S
O140 Zn141 1.923 . S
O140 Zn142 1.950 . S
O140 Zn143 1.945 . S
Zn141 O140 1.923 . S
Zn141 O144 1.933 . S
Zn141 O147 1.941 . S
Zn141 O148 1.965 . S
Zn142 O140 1.950 . S
Zn142 O149 1.938 . S
Zn142 O150 1.906 . S
Zn142 O160 1.953 . S
Zn143 O140 1.945 . S
Zn143 O145 1.932 . S
Zn143 O152 1.977 . S
Zn143 O153 1.910 . S
O144 Zn141 1.933 . S
O144 C155 1.226 . S
O145 Zn143 1.932 . S
O145 C155 1.307 . S
O146 Zn139 1.919 . S
O146 C157 1.253 . S
O147 Zn141 1.941 . S
O147 C157 1.283 . S
O148 Zn141 1.965 . S
O148 C156 1.303 . S
O149 Zn142 1.938 . S
O149 C156 1.247 . S
O150 Zn142 1.906 . S
O150 C158 1.304 . S
O151 Zn139 1.924 . S
O151 C159 1.311 . S
O152 Zn143 1.977 . S
O152 C158 1.272 . S
O153 Zn143 1.910 . S
O153 C159 1.231 . S
C154 O138 1.225 . S
C154 O160 1.298 . S
C155 O144 1.226 . S
C155 O145 1.307 . S
C156 O148 1.303 . S
C156 O149 1.247 . S
C157 O146 1.253 . S
C157 O147 1.283 . S
C158 O150 1.304 . S
C158 O152 1.272 . S
C159 O151 1.311 . S
C159 O153 1.231 . S
O160 Zn142 1.953 . S
O160 C154 1.298 . S
O161 Zn162 1.953 . S
O161 C177 1.225 . S
Zn162 O161 1.953 . S
Zn162 O163 1.949 . S
Zn162 O169 1.919 . S
Zn162 O174 1.924 . S
O163 Zn162 1.949 . S
O163 Zn164 1.923 . S
O163 Zn165 1.950 . S
O163 Zn166 1.945 . S
Zn164 O163 1.923 . S
Zn164 O167 1.933 . S
Zn164 O170 1.941 . S
Zn164 O171 1.965 . S
Zn165 O163 1.950 . S
Zn165 O172 1.938 . S
Zn165 O173 1.906 . S
Zn165 O183 1.953 . S
Zn166 O163 1.945 . S
Zn166 O168 1.932 . S
Zn166 O175 1.977 . S
Zn166 O176 1.910 . S
O167 Zn164 1.933 . S
O167 C178 1.226 . S
O168 Zn166 1.932 . S
O168 C178 1.307 . S
O169 Zn162 1.919 . S
O169 C180 1.253 . S
O170 Zn164 1.941 . S
O170 C180 1.283 . S
O171 Zn164 1.965 . S
O171 C179 1.303 . S
O172 Zn165 1.938 . S
O172 C179 1.247 . S
O173 Zn165 1.906 . S
O173 C181 1.304 . S
O174 Zn162 1.924 . S
O174 C182 1.311 . S
O175 Zn166 1.977 . S
O175 C181 1.272 . S
O176 Zn166 1.910 . S
O176 C182 1.231 . S
C177 O161 1.225 . S
C177 O183 1.298 . S
C178 O167 1.226 . S
C178 O168 1.307 . S
C179 O171 1.303 . S
C179 O172 1.247 . S
C180 O169 1.253 . S
C180 O170 1.283 . S
C181 O173 1.304 . S
C181 O175 1.272 . S
C182 O174 1.311 . S
C182 O176 1.231 . S
O183 Zn165 1.953 . S
O183 C177 1.298 . S
O184 Zn185 1.953 . S
O184 C200 1.225 . S
Zn185 O184 1.953 . S
Zn185 O186 1.949 . S
Zn185 O192 1.919 . S
Zn185 O197 1.924 . S
O186 Zn185 1.949 . S
O186 Zn187 1.923 . S
O186 Zn188 1.950 . S
O186 Zn189 1.945 . S
Zn187 O186 1.923 . S
Zn187 O190 1.933 . S
Zn187 O193 1.941 . S
Zn187 O194 1.965 . S
Zn188 O186 1.950 . S
Zn188 O195 1.938 . S
Zn188 O196 1.906 . S
Zn188 O206 1.953 . S
Zn189 O186 1.945 . S
Zn189 O191 1.932 . S
Zn189 O198 1.977 . S
Zn189 O199 1.910 . S
O190 Zn187 1.933 . S
O190 C201 1.226 . S
O191 Zn189 1.932 . S
O191 C201 1.307 . S
O192 Zn185 1.919 . S
O192 C203 1.253 . S
O193 Zn187 1.941 . S
O193 C203 1.283 . S
O194 Zn187 1.965 . S
O194 C202 1.303 . S
O195 Zn188 1.938 . S
O195 C202 1.247 . S
O196 Zn188 1.906 . S
O196 C204 1.304 . S
O197 Zn185 1.924 . S
O197 C205 1.311 . S
O198 Zn189 1.977 . S
O198 C204 1.272 . S
O199 Zn189 1.910 . S
O199 C205 1.231 . S
C200 O184 1.225 . S
C200 O206 1.298 . S
C201 O190 1.226 . S
C201 O191 1.307 . S
C202 O194 1.303 . S
C202 O195 1.247 . S
C203 O192 1.253 . S
C203 O193 1.283 . S
C204 O196 1.304 . S
C204 O198 1.272 . S
C205 O197 1.311 . S
C205 O199 1.231 . S
O206 Zn188 1.953 . S
O206 C200 1.298 . S
O207 Zn208 1.953 . S
O207 C223 1.225 . S
Zn208 O207 1.953 . S
Zn208 O209 1.949 . S
Zn208 O215 1.919 . S
Zn208 O220 1.924 . S
O209 Zn208 1.949 . S
O209 Zn210 1.923 . S
O209 Zn211 1.950 . S
O209 Zn212 1.945 . S
Zn210 O209 1.923 . S
Zn210 O213 1.933 . S
Zn210 O216 1.941 . S
Zn210 O217 1.965 . S
Zn211 O209 1.950 . S
Zn211 O218 1.938 . S
Zn211 O219 1.906 . S
Zn211 O229 1.953 . S
Zn212 O209 1.945 . S
Zn212 O214 1.932 . S
Zn212 O221 1.977 . S
Zn212 O222 1.910 . S
O213 Zn210 1.933 . S
O213 C224 1.226 . S
O214 Zn212 1.932 . S
O214 C224 1.307 . S
O215 Zn208 1.919 . S
O215 C226 1.253 . S
O216 Zn210 1.941 . S
O216 C226 1.283 . S
O217 Zn210 1.965 . S
O217 C225 1.303 . S
O218 Zn211 1.938 . S
O218 C225 1.247 . S
O219 Zn211 1.906 . S
O219 C227 1.304 . S
O220 Zn208 1.924 . S
O220 C228 1.311 . S
O221 Zn212 1.977 . S
O221 C227 1.272 . S
O222 Zn212 1.910 . S
O222 C228 1.231 . S
C223 O207 1.225 . S
C223 O229 1.298 . S
C224 O213 1.226 . S
C224 O214 1.307 . S
C225 O217 1.303 . S
C225 O218 1.247 . S
C226 O215 1.253 . S
C226 O216 1.283 . S
C227 O219 1.304 . S
C227 O221 1.272 . S
C228 O220 1.311 . S
C228 O222 1.231 . S
O229 Zn211 1.953 . S
O229 C223 1.298 . S
O230 Zn231 1.953 . S
O230 C246 1.225 . S
Zn231 O230 1.953 . S
Zn231 O232 1.949 . S
Zn231 O238 1.919 . S
Zn231 O243 1.924 . S
O232 Zn231 1.949 . S
O232 Zn233 1.923 . S
O232 Zn234 1.950 . S
O232 Zn235 1.945 . S
Zn233 O232 1.923 . S
Zn233 O236 1.933 . S
Zn233 O239 1.941 . S
Zn233 O240 1.965 . S
Zn234 O232 1.950 . S
Zn234 O241 1.938 . S
Zn234 O242 1.906 . S
Zn234 O252 1.953 . S
Zn235 O232 1.945 . S
Zn235 O237 1.932 . S
Zn235 O244 1.977 . S
Zn235 O245 1.910 . S
O236 Zn233 1.933 . S
O236 C247 1.226 . S
O237 Zn235 1.932 . S
O237 C247 1.307 . S
O238 Zn231 1.919 . S
O238 C249 1.253 . S
O239 Zn233 1.941 . S
O239 C249 1.283 . S
O240 Zn233 1.965 . S
O240 C248 1.303 . S
O241 Zn234 1.938 . S
O241 C248 1.247 . S
O242 Zn234 1.906 . S
O242 C250 1.304 . S
O243 Zn231 1.924 . S
O243 C251 1.311 . S
O244 Zn235 1.977 . S
O244 C250 1.272 . S
O245 Zn235 1.910 . S
O245 C251 1.231 . S
C246 O230 1.225 . S
C246 O252 1.298 . S
C247 O236 1.226 . S
C247 O237 1.307 . S
C248 O240 1.303 . S
C248 O241 1.247 . S
C249 O238 1.253 . S
C249 O239 1.283 . S
C250 O242 1.304 . S
C250 O244 1.272 . S
C251 O243 1.311 . S
C251 O245 1.231 . S
O252 Zn234 1.953 . S
O252 C246 1.298 . S
O253 Zn254 1.953 . S
O253 C269 1.225 . S
Zn254 O253 1.953 . S
Zn254 O255 1.949 . S
Zn254 O261 1.919 . S
Zn254 O266 1.924 . S
O255 Zn254 1.949 . S
O255 Zn256 1.923 . S
O255 Zn257 1.950 . S
O255 Zn258 1.945 . S
Zn256 O255 1.923 . S
Zn256 O259 1.933 . S
Zn256 O262 1.941 . S
Zn256 O263 1.965 . S
Zn257 O255 1.950 . S
Zn257 O264 1.938 . S
Zn257 O265 1.906 . S
Zn257 O275 1.953 . S
Zn258 O255 1.945 . S
Zn258 O260 1.932 . S
Zn258 O267 1.977 . S
Zn258 O268 1.910 . S
O259 Zn256 1.933 . S
O259 C270 1.226 . S
O260 Zn258 1.932 . S
O260 C270 1.307 . S
O261 Zn254 1.919 . S
O261 C272 1.253 . S
O262 Zn256 1.941 . S
O262 C272 1.283 . S
O263 Zn256 1.965 . S
O263 C271 1.303 . S
O264 Zn257 1.938 . S
O264 C271 1.247 . S
O265 Zn257 1.906 . S
O265 C273 1.304 . S
O266 Zn254 1.924 . S
O266 C274 1.311 . S
O267 Zn258 1.977 . S
O267 C273 1.272 . S
O268 Zn258 1.910 . S
O268 C274 1.231 . S
C269 O253 1.225 . S
C269 O275 1.298 . S
C270 O259 1.226 . S
C270 O260 1.307 . S
C271 O263 1.303 . S
C271 O264 1.247 . S
C272 O261 1.253 . S
C272 O262 1.283 . S
C273 O265 1.304 . S
C273 O267 1.272 . S
C274 O266 1.311 . S
C274 O268 1.231 . S
O275 Zn257 1.953 . S
O275 C269 1.298 . S
C276 C277 1.349 . S
C276 C278 1.327 . S
C276 H301 0.950 . S
C277 C276 1.349 . S
C277 C293 1.349 . S
C278 C276 1.327 . S
C278 C297 1.429 . S
C278 H302 0.950 . S
C279 C296 1.574 . S
C279 C298 1.368 . S
C279 H303 0.949 . S
H280 C284 0.949 . S
C281 C282 1.349 . S
C281 C283 1.327 . S
C281 H304 0.950 . S
C282 C281 1.349 . S
C282 C294 1.349 . S
C283 C281 1.327 . S
C283 C299 1.429 . S
C283 H305 0.950 . S
C284 H280 0.949 . S
C284 C292 1.574 . S
C284 C300 1.368 . S
H285 C293 0.950 1_655 S
H286 C291 0.950 . S
H287 C292 0.949 . S
H288 C294 0.950 . S
H289 C295 0.950 . S
H290 C296 0.949 . S
C291 H286 0.950 . S
C291 C293 1.327 . S
C291 C297 1.429 . S
C292 C284 1.574 . S
C292 H287 0.949 . S
C292 C298 1.368 . S
C293 C277 1.349 . S
C293 H285 0.950 1_455 S
C293 C291 1.327 . S
C294 C282 1.349 . S
C294 H288 0.950 . S
C294 C295 1.327 . S
C295 H289 0.950 . S
C295 C294 1.327 . S
C295 C299 1.429 . S
C296 C279 1.574 . S
C296 H290 0.949 . S
C296 C300 1.368 . S
C297 C278 1.429 . S
C297 C291 1.429 . S
C297 C298 1.523 . S
C298 C279 1.368 . S
C298 C292 1.368 . S
C298 C297 1.523 . S
C299 C283 1.429 . S
C299 C295 1.429 . S
C299 C300 1.523 . S
C300 C284 1.368 . S
C300 C296 1.368 . S
C300 C299 1.523 . S
H301 C276 0.950 . S
H302 C278 0.950 . S
H303 C279 0.949 . S
H304 C281 0.950 . S
H305 C283 0.950 . S
C306 C307 1.349 . S
C306 C308 1.327 . S
C306 H331 0.950 . S
C307 C306 1.349 . S
C307 C323 1.349 . S
C308 C306 1.327 . S
C308 C327 1.429 . S
C308 H332 0.950 . S
C309 C326 1.574 . S
C309 C328 1.368 . S
C309 H333 0.949 . S
H310 C314 0.949 . S
C311 C312 1.349 . S
C311 C313 1.327 . S
C311 H334 0.950 . S
C312 C311 1.349 . S
C312 C324 1.349 . S
C313 C311 1.327 . S
C313 C329 1.429 . S
C313 H335 0.950 . S
C314 H310 0.949 . S
C314 C322 1.574 . S
C314 C330 1.368 . S
H315 C323 0.950 1_545 S
H316 C321 0.950 . S
H317 C322 0.949 . S
H318 C324 0.950 . S
H319 C325 0.950 . S
H320 C326 0.949 . S
C321 H316 0.950 . S
C321 C323 1.327 . S
C321 C327 1.429 . S
C322 C314 1.574 . S
C322 H317 0.949 . S
C322 C328 1.368 . S
C323 C307 1.349 . S
C323 H315 0.950 1_565 S
C323 C321 1.327 . S
C324 C312 1.349 . S
C324 H318 0.950 . S
C324 C325 1.327 . S
C325 H319 0.950 . S
C325 C324 1.327 . S
C325 C329 1.429 . S
C326 C309 1.574 . S
C326 H320 0.949 . S
C326 C330 1.368 . S
C327 C308 1.429 . S
C327 C321 1.429 . S
C327 C328 1.523 . S
C328 C309 1.368 . S
C328 C322 1.368 . S
C328 C327 1.523 . S
C329 C313 1.429 . S
C329 C325 1.429 . S
C329 C330 1.523 1_655 S
C330 C314 1.368 . S
C330 C326 1.368 . S
C330 C329 1.523 1_455 S
H331 C306 0.950 . S
H332 C308 0.950 . S
H333 C309 0.949 . S
H334 C311 0.950 . S
H335 C313 0.950 . S
C336 C337 1.349 . S
C336 C338 1.327 . S
C336 H361 0.950 . S
C337 C336 1.349 . S
C337 C353 1.349 . S
C338 C336 1.327 . S
C338 C357 1.429 . S
C338 H362 0.950 . S
C339 C356 1.574 . S
C339 C358 1.368 . S
C339 H363 0.949 . S
H340 C344 0.949 . S
C341 C342 1.349 . S
C341 C343 1.327 . S
C341 H364 0.950 . S
C342 C341 1.349 . S
C342 C354 1.349 . S
C343 C341 1.327 . S
C343 C359 1.429 . S
C343 H365 0.950 . S
C344 H340 0.949 . S
C344 C352 1.574 . S
C344 C360 1.368 . S
H345 C353 0.950 . S
H346 C351 0.950 . S
H347 C352 0.949 . S
H348 C354 0.950 . S
H349 C355 0.950 . S
H350 C356 0.949 . S
C351 H346 0.950 . S
C351 C353 1.327 . S
C351 C357 1.429 . S
C352 C344 1.574 . S
C352 H347 0.949 . S
C352 C358 1.368 . S
C353 C337 1.349 . S
C353 H345 0.950 . S
C353 C351 1.327 . S
C354 C342 1.349 . S
C354 H348 0.950 . S
C354 C355 1.327 . S
C355 H349 0.950 . S
C355 C354 1.327 . S
C355 C359 1.429 . S
C356 C339 1.574 . S
C356 H350 0.949 . S
C356 C360 1.368 . S
C357 C338 1.429 . S
C357 C351 1.429 . S
C357 C358 1.523 1_545 S
C358 C339 1.368 . S
C358 C352 1.368 . S
C358 C357 1.523 1_565 S
C359 C343 1.429 . S
C359 C355 1.429 . S
C359 C360 1.523 . S
C360 C344 1.368 . S
C360 C356 1.368 . S
C360 C359 1.523 . S
H361 C336 0.950 . S
H362 C338 0.950 . S
H363 C339 0.949 . S
H364 C341 0.950 . S
H365 C343 0.950 . S
C366 C367 1.349 . S
C366 C368 1.327 . S
C366 H391 0.950 . S
C367 C366 1.349 . S
C367 C383 1.349 . S
C368 C366 1.327 . S
C368 C387 1.429 . S
C368 H392 0.950 . S
C369 C386 1.574 . S
C369 C388 1.368 . S
C369 H393 0.949 . S
H370 C374 0.949 . S
C371 C372 1.349 . S
C371 C373 1.327 . S
C371 H394 0.950 . S
C372 C371 1.349 . S
C372 C384 1.349 . S
C373 C371 1.327 . S
C373 C389 1.429 . S
C373 H395 0.950 . S
C374 H370 0.949 . S
C374 C382 1.574 . S
C374 C390 1.368 . S
H375 C383 0.950 . S
H376 C381 0.950 . S
H377 C382 0.949 . S
H378 C384 0.950 . S
H379 C385 0.950 . S
H380 C386 0.949 . S
C381 H376 0.950 . S
C381 C383 1.327 . S
C381 C387 1.429 . S
C382 C374 1.574 . S
C382 H377 0.949 . S
C382 C388 1.368 . S
C383 C367 1.349 . S
C383 H375 0.950 . S
C383 C381 1.327 . S
C384 C372 1.349 . S
C384 H378 0.950 . S
C384 C385 1.327 . S
C385 H379 0.950 . S
C385 C384 1.327 . S
C385 C389 1.429 . S
C386 C369 1.574 . S
C386 H380 0.949 . S
C386 C390 1.368 . S
C387 C368 1.429 . S
C387 C381 1.429 . S
C387 C388 1.523 . S
C388 C369 1.368 . S
C388 C382 1.368 . S
C388 C387 1.523 . S
C389 C373 1.429 . S
C389 C385 1.429 . S
C389 C390 1.523 . S
C390 C374 1.368 . S
C390 C386 1.368 . S
C390 C389 1.523 . S
H391 C366 0.950 . S
H392 C368 0.950 . S
H393 C369 0.949 . S
H394 C371 0.950 . S
H395 C373 0.950 . S
C396 C397 1.349 . S
C396 C398 1.327 . S
C396 H421 0.950 . S
C397 C396 1.349 . S
C397 C413 1.349 . S
C398 C396 1.327 . S
C398 C417 1.429 . S
C398 H422 0.950 . S
C399 C416 1.574 . S
C399 C418 1.368 . S
C399 H423 0.949 . S
H400 C404 0.949 . S
C401 C402 1.349 . S
C401 C403 1.327 . S
C401 H424 0.950 . S
C402 C401 1.349 . S
C402 C414 1.349 . S
C403 C401 1.327 . S
C403 C419 1.429 . S
C403 H425 0.950 . S
C404 H400 0.949 . S
C404 C412 1.574 . S
C404 C420 1.368 . S
H405 C413 0.950 1_545 S
H406 C411 0.950 . S
H407 C412 0.949 . S
H408 C414 0.950 . S
H409 C415 0.950 . S
H410 C416 0.949 . S
C411 H406 0.950 . S
C411 C413 1.327 . S
C411 C417 1.429 . S
C412 C404 1.574 . S
C412 H407 0.949 . S
C412 C418 1.368 . S
C413 C397 1.349 . S
C413 H405 0.950 1_565 S
C413 C411 1.327 . S
C414 C402 1.349 . S
C414 H408 0.950 . S
C414 C415 1.327 . S
C415 H409 0.950 . S
C415 C414 1.327 . S
C415 C419 1.429 . S
C416 C399 1.574 . S
C416 H410 0.949 . S
C416 C420 1.368 . S
C417 C398 1.429 . S
C417 C411 1.429 . S
C417 C418 1.523 . S
C418 C399 1.368 . S
C418 C412 1.368 . S
C418 C417 1.523 . S
C419 C403 1.429 . S
C419 C415 1.429 . S
C419 C420 1.523 1_655 S
C420 C404 1.368 . S
C420 C416 1.368 . S
C420 C419 1.523 1_455 S
H421 C396 0.950 . S
H422 C398 0.950 . S
H423 C399 0.949 . S
H424 C401 0.950 . S
H425 C403 0.950 . S
C426 C427 1.349 . S
C426 C428 1.327 . S
C426 H451 0.950 . S
C427 C426 1.349 . S
C427 C443 1.349 . S
C428 C426 1.327 . S
C428 C447 1.429 . S
C428 H452 0.950 . S
C429 C446 1.574 . S
C429 C448 1.368 . S
C429 H453 0.949 . S
H430 C434 0.949 . S
C431 C432 1.349 . S
C431 C433 1.327 . S
C431 H454 0.950 . S
C432 C431 1.349 . S
C432 C444 1.349 . S
C433 C431 1.327 . S
C433 C449 1.429 . S
C433 H455 0.950 . S
C434 H430 0.949 . S
C434 C442 1.574 . S
C434 C450 1.368 . S
H435 C443 0.950 . S
H436 C441 0.950 . S
H437 C442 0.949 . S
H438 C444 0.950 . S
H439 C445 0.950 . S
H440 C446 0.949 . S
C441 H436 0.950 . S
C441 C443 1.327 . S
C441 C447 1.429 . S
C442 C434 1.574 . S
C442 H437 0.949 . S
C442 C448 1.368 . S
C443 C427 1.349 . S
C443 H435 0.950 . S
C443 C441 1.327 . S
C444 C432 1.349 . S
C444 H438 0.950 . S
C444 C445 1.327 . S
C445 H439 0.950 . S
C445 C444 1.327 . S
C445 C449 1.429 . S
C446 C429 1.574 . S
C446 H440 0.949 . S
C446 C450 1.368 . S
C447 C428 1.429 . S
C447 C441 1.429 . S
C447 C448 1.523 . S
C448 C429 1.368 . S
C448 C442 1.368 . S
C448 C447 1.523 . S
C449 C433 1.429 . S
C449 C445 1.429 . S
C449 C450 1.523 1_545 S
C450 C434 1.368 . S
C450 C446 1.368 . S
C450 C449 1.523 1_565 S
H451 C426 0.950 . S
H452 C428 0.950 . S
H453 C429 0.949 . S
H454 C431 0.950 . S
H455 C433 0.950 . S
C456 C457 1.349 . S
C456 C458 1.327 . S
C456 H481 0.950 . S
C457 C456 1.349 . S
C457 C473 1.349 . S
C458 C456 1.327 . S
C458 C477 1.429 . S
C458 H482 0.950 . S
C459 C476 1.574 . S
C459 C478 1.368 . S
C459 H483 0.949 . S
H460 C464 0.949 . S
C461 C462 1.349 . S
C461 C463 1.327 . S
C461 H484 0.950 . S
C462 C461 1.349 . S
C462 C474 1.349 . S
C463 C461 1.327 . S
C463 C479 1.429 . S
C463 H485 0.950 . S
C464 H460 0.949 . S
C464 C472 1.574 . S
C464 C480 1.368 . S
H465 C473 0.950 1_565 S
H466 C471 0.950 . S
H467 C472 0.949 . S
H468 C474 0.950 . S
H469 C475 0.950 . S
H470 C476 0.949 . S
C471 H466 0.950 . S
C471 C473 1.327 . S
C471 C477 1.429 . S
C472 C464 1.574 . S
C472 H467 0.949 . S
C472 C478 1.368 . S
C473 C457 1.349 . S
C473 H465 0.950 1_545 S
C473 C471 1.327 . S
C474 C462 1.349 . S
C474 H468 0.950 . S
C474 C475 1.327 . S
C475 H469 0.950 . S
C475 C474 1.327 . S
C475 C479 1.429 . S
C476 C459 1.574 . S
C476 H470 0.949 . S
C476 C480 1.368 . S
C477 C458 1.429 . S
C477 C471 1.429 . S
C477 C478 1.523 . S
C478 C459 1.368 . S
C478 C472 1.368 . S
C478 C477 1.523 . S
C479 C463 1.429 . S
C479 C475 1.429 . S
C479 C480 1.523 . S
C480 C464 1.368 . S
C480 C476 1.368 . S
C480 C479 1.523 . S
H481 C456 0.950 . S
H482 C458 0.950 . S
H483 C459 0.949 . S
H484 C461 0.950 . S
H485 C463 0.950 . S
C486 C487 1.349 . S
C486 C488 1.327 . S
C486 H511 0.950 . S
C487 C486 1.349 . S
C487 C503 1.349 . S
C488 C486 1.327 . S
C488 C507 1.429 . S
C488 H512 0.950 . S
C489 C506 1.574 . S
C489 C508 1.368 . S
C489 H513 0.949 . S
H490 C494 0.949 . S
C491 C492 1.349 . S
C491 C493 1.327 . S
C491 H514 0.950 . S
C492 C491 1.349 . S
C492 C504 1.349 . S
C493 C491 1.327 . S
C493 C509 1.429 . S
C493 H515 0.950 . S
C494 H490 0.949 . S
C494 C502 1.574 . S
C494 C510 1.368 . S
H495 C503 0.950 . S
H496 C501 0.950 . S
H497 C502 0.949 . S
H498 C504 0.950 . S
H499 C505 0.950 . S
H500 C506 0.949 . S
C501 H496 0.950 . S
C501 C503 1.327 . S
C501 C507 1.429 . S
C502 C494 1.574 . S
C502 H497 0.949 . S
C502 C508 1.368 . S
C503 C487 1.349 . S
C503 H495 0.950 . S
C503 C501 1.327 . S
C504 C492 1.349 . S
C504 H498 0.950 . S
C504 C505 1.327 . S
C505 H499 0.950 . S
C505 C504 1.327 . S
C505 C509 1.429 . S
C506 C489 1.574 . S
C506 H500 0.949 . S
C506 C510 1.368 . S
C507 C488 1.429 . S
C507 C501 1.429 . S
C507 C508 1.523 1_455 S
C508 C489 1.368 . S
C508 C502 1.368 . S
C508 C507 1.523 1_655 S
C509 C493 1.429 . S
C509 C505 1.429 . S
C509 C510 1.523 . S
C510 C494 1.368 . S
C510 C506 1.368 . S
C510 C509 1.523 . S
H511 C486 0.950 . S
H512 C488 0.950 . S
H513 C489 0.949 . S
H514 C491 0.950 . S
H515 C493 0.950 . S
C516 C517 1.349 . S
C516 C518 1.327 . S
C516 H541 0.950 . S
C517 C516 1.349 . S
C517 C533 1.349 . S
C518 C516 1.327 . S
C518 C537 1.429 . S
C518 H542 0.950 . S
C519 C536 1.574 . S
C519 C538 1.368 . S
C519 H543 0.949 . S
H520 C524 0.949 . S
C521 C522 1.349 . S
C521 C523 1.327 . S
C521 H544 0.950 . S
C522 C521 1.349 . S
C522 C534 1.349 . S
C523 C521 1.327 . S
C523 C539 1.429 . S
C523 H545 0.950 . S
C524 H520 0.949 . S
C524 C532 1.574 . S
C524 C540 1.368 . S
H525 C533 0.950 . S
H526 C531 0.950 . S
H527 C532 0.949 . S
H528 C534 0.950 1_455 S
H529 C535 0.950 . S
H530 C536 0.949 . S
C531 H526 0.950 . S
C531 C533 1.327 . S
C531 C537 1.429 . S
C532 C524 1.574 . S
C532 H527 0.949 . S
C532 C538 1.368 . S
C533 C517 1.349 . S
C533 H525 0.950 . S
C533 C531 1.327 . S
C534 C522 1.349 . S
C534 H528 0.950 1_655 S
C534 C535 1.327 . S
C535 H529 0.950 . S
C535 C534 1.327 . S
C535 C539 1.429 . S
C536 C519 1.574 . S
C536 H530 0.949 . S
C536 C540 1.368 . S
C537 C518 1.429 . S
C537 C531 1.429 . S
C537 C538 1.523 1_565 S
C538 C519 1.368 . S
C538 C532 1.368 . S
C538 C537 1.523 1_545 S
C539 C523 1.429 . S
C539 C535 1.429 . S
C539 C540 1.523 . S
C540 C524 1.368 . S
C540 C536 1.368 . S
C540 C539 1.523 . S
H541 C516 0.950 . S
H542 C518 0.950 . S
H543 C519 0.949 . S
H544 C521 0.950 . S
H545 C523 0.950 . S
C546 C547 1.349 . S
C546 C548 1.327 . S
C546 H571 0.950 . S
C547 C546 1.349 . S
C547 C563 1.349 . S
C548 C546 1.327 . S
C548 C567 1.429 . S
C548 H572 0.950 . S
C549 C566 1.574 . S
C549 C568 1.368 . S
C549 H573 0.949 . S
H550 C554 0.949 . S
C551 C552 1.349 . S
C551 C553 1.327 . S
C551 H574 0.950 . S
C552 C551 1.349 . S
C552 C564 1.349 . S
C553 C551 1.327 . S
C553 C569 1.429 . S
C553 H575 0.950 . S
C554 H550 0.949 . S
C554 C562 1.574 . S
C554 C570 1.368 . S
H555 C563 0.950 . S
H556 C561 0.950 . S
H557 C562 0.949 . S
H558 C564 0.950 1_565 S
H559 C565 0.950 . S
H560 C566 0.949 . S
C561 H556 0.950 . S
C561 C563 1.327 . S
C561 C567 1.429 . S
C562 C554 1.574 . S
C562 H557 0.949 . S
C562 C568 1.368 . S
C563 C547 1.349 . S
C563 H555 0.950 . S
C563 C561 1.327 . S
C564 C552 1.349 . S
C564 H558 0.950 1_545 S
C564 C565 1.327 . S
C565 H559 0.950 . S
C565 C564 1.327 . S
C565 C569 1.429 . S
C566 C549 1.574 . S
C566 H560 0.949 . S
C566 C570 1.368 . S
C567 C548 1.429 . S
C567 C561 1.429 . S
C567 C568 1.523 . S
C568 C549 1.368 . S
C568 C562 1.368 . S
C568 C567 1.523 . S
C569 C553 1.429 . S
C569 C565 1.429 . S
C569 C570 1.523 . S
C570 C554 1.368 . S
C570 C566 1.368 . S
C570 C569 1.523 . S
H571 C546 0.950 . S
H572 C548 0.950 . S
H573 C549 0.949 . S
H574 C551 0.950 . S
H575 C553 0.950 . S
C576 C577 1.349 . S
C576 C578 1.327 . S
C576 H601 0.950 . S
C577 C576 1.349 . S
C577 C593 1.349 . S
C578 C576 1.327 . S
C578 C597 1.429 . S
C578 H602 0.950 . S
C579 C596 1.574 . S
C579 C598 1.368 . S
C579 H603 0.949 . S
H580 C584 0.949 . S
C581 C582 1.349 . S
C581 C583 1.327 . S
C581 H604 0.950 . S
C582 C581 1.349 . S
C582 C594 1.349 . S
C583 C581 1.327 . S
C583 C599 1.429 . S
C583 H605 0.950 . S
C584 H580 0.949 . S
C584 C592 1.574 . S
C584 C600 1.368 . S
H585 C593 0.950 . S
H586 C591 0.950 . S
H587 C592 0.949 . S
H588 C594 0.950 . S
H589 C595 0.950 . S
H590 C596 0.949 . S
C591 H586 0.950 . S
C591 C593 1.327 . S
C591 C597 1.429 . S
C592 C584 1.574 . S
C592 H587 0.949 . S
C592 C598 1.368 . S
C593 C577 1.349 . S
C593 H585 0.950 . S
C593 C591 1.327 . S
C594 C582 1.349 . S
C594 H588 0.950 . S
C594 C595 1.327 . S
C595 H589 0.950 . S
C595 C594 1.327 . S
C595 C599 1.429 . S
C596 C579 1.574 . S
C596 H590 0.949 . S
C596 C600 1.368 . S
C597 C578 1.429 . S
C597 C591 1.429 . S
C597 C598 1.523 1_455 S
C598 C579 1.368 . S
C598 C592 1.368 . S
C598 C597 1.523 1_655 S
C599 C583 1.429 . S
C599 C595 1.429 . S
C599 C600 1.523 . S
C600 C584 1.368 . S
C600 C596 1.368 . S
C600 C599 1.523 . S
H601 C576 0.950 . S
H602 C578 0.950 . S
H603 C579 0.949 . S
H604 C581 0.950 . S
H605 C583 0.950 . S
C606 C607 1.349 . S
C606 C608 1.327 . S
C606 H631 0.950 . S
C607 C606 1.349 . S
C607 C623 1.349 . S
C608 C606 1.327 . S
C608 C627 1.429 . S
C608 H632 0.950 . S
C609 C626 1.574 . S
C609 C628 1.368 . S
C609 H633 0.949 . S
H610 C614 0.949 . S
C611 C612 1.349 . S
C611 C613 1.327 . S
C611 H634 0.950 . S
C612 C611 1.349 . S
C612 C624 1.349 . S
C613 C611 1.327 . S
C613 C629 1.429 . S
C613 H635 0.950 . S
C614 H610 0.949 . S
C614 C622 1.574 . S
C614 C630 1.368 . S
H615 C623 0.950 1_455 S
H616 C621 0.950 . S
H617 C622 0.949 . S
H618 C624 0.950 . S
H619 C625 0.950 . S
H620 C626 0.949 . S
C621 H616 0.950 . S
C621 C623 1.327 . S
C621 C627 1.429 . S
C622 C614 1.574 . S
C622 H617 0.949 . S
C622 C628 1.368 . S
C623 C607 1.349 . S
C623 H615 0.950 1_655 S
C623 C621 1.327 . S
C624 C612 1.349 . S
C624 H618 0.950 . S
C624 C625 1.327 . S
C625 H619 0.950 . S
C625 C624 1.327 . S
C625 C629 1.429 . S
C626 C609 1.574 . S
C626 H620 0.949 . S
C626 C630 1.368 . S
C627 C608 1.429 . S
C627 C621 1.429 . S
C627 C628 1.523 . S
C628 C609 1.368 . S
C628 C622 1.368 . S
C628 C627 1.523 . S
C629 C613 1.429 . S
C629 C625 1.429 . S
C629 C630 1.523 1_565 S
C630 C614 1.368 . S
C630 C626 1.368 . S
C630 C629 1.523 1_545 S
H631 C606 0.950 . S
H632 C608 0.950 . S
H633 C609 0.949 . S
H634 C611 0.950 . S
H635 C613 0.950 . S
C636 C637 1.349 . S
C636 C638 1.327 . S
C636 H661 0.950 . S
C637 C636 1.349 . S
C637 C653 1.349 . S
C638 C636 1.327 . S
C638 C657 1.429 . S
C638 H662 0.950 . S
C639 C656 1.574 . S
C639 C658 1.368 . S
C639 H663 0.949 . S
H640 C644 0.949 . S
C641 C642 1.349 . S
C641 C643 1.327 . S
C641 H664 0.950 . S
C642 C641 1.349 . S
C642 C654 1.349 . S
C643 C641 1.327 . S
C643 C659 1.429 . S
C643 H665 0.950 . S
C644 H640 0.949 . S
C644 C652 1.574 . S
C644 C660 1.368 . S
H645 C653 0.950 . S
H646 C651 0.950 . S
H647 C652 0.949 . S
H648 C654 0.950 . S
H649 C655 0.950 . S
H650 C656 0.949 . S
C651 H646 0.950 . S
C651 C653 1.327 . S
C651 C657 1.429 . S
C652 C644 1.574 . S
C652 H647 0.949 . S
C652 C658 1.368 . S
C653 C637 1.349 . S
C653 H645 0.950 . S
C653 C651 1.327 . S
C654 C642 1.349 . S
C654 H648 0.950 . S
C654 C655 1.327 . S
C655 H649 0.950 . S
C655 C654 1.327 . S
C655 C659 1.429 . S
C656 C639 1.574 . S
C656 H650 0.949 . S
C656 C660 1.368 . S
C657 C638 1.429 . S
C657 C651 1.429 . S
C657 C658 1.523 . S
C658 C639 1.368 . S
C658 C652 1.368 . S
C658 C657 1.523 . S
C659 C643 1.429 . S
C659 C655 1.429 . S
C659 C660 1.523 . S
C660 C644 1.368 . S
C660 C656 1.368 . S
C660 C659 1.523 . S
H661 C636 0.950 . S
H662 C638 0.950 . S
H663 C639 0.949 . S
H664 C641 0.950 . S
H665 C643 0.950 . S
C666 C667 1.349 . S
C666 C668 1.327 . S
C666 H691 0.950 . S
C667 C666 1.349 . S
C667 C683 1.349 . S
C668 C666 1.327 . S
C668 C687 1.429 . S
C668 H692 0.950 . S
C669 C686 1.574 . S
C669 C688 1.368 . S
C669 H693 0.949 . S
H670 C674 0.949 . S
C671 C672 1.349 . S
C671 C673 1.327 . S
C671 H694 0.950 . S
C672 C671 1.349 . S
C672 C684 1.349 . S
C673 C671 1.327 . S
C673 C689 1.429 . S
C673 H695 0.950 . S
C674 H670 0.949 . S
C674 C682 1.574 . S
C674 C690 1.368 . S
H675 C683 0.950 . S
H676 C681 0.950 . S
H677 C682 0.949 . S
H678 C684 0.950 . S
H679 C685 0.950 . S
H680 C686 0.949 . S
C681 H676 0.950 . S
C681 C683 1.327 . S
C681 C687 1.429 . S
C682 C674 1.574 . S
C682 H677 0.949 . S
C682 C688 1.368 . S
C683 C667 1.349 . S
C683 H675 0.950 . S
C683 C681 1.327 . S
C684 C672 1.349 . S
C684 H678 0.950 . S
C684 C685 1.327 . S
C685 H679 0.950 . S
C685 C684 1.327 . S
C685 C689 1.429 . S
C686 C669 1.574 . S
C686 H680 0.949 . S
C686 C690 1.368 . S
C687 C668 1.429 . S
C687 C681 1.429 . S
C687 C688 1.523 . S
C688 C669 1.368 . S
C688 C682 1.368 . S
C688 C687 1.523 . S
C689 C673 1.429 . S
C689 C685 1.429 . S
C689 C690 1.523 . S
C690 C674 1.368 . S
C690 C686 1.368 . S
C690 C689 1.523 . S
H691 C666 0.950 . S
H692 C668 0.950 . S
H693 C669 0.949 . S
H694 C671 0.950 . S
H695 C673 0.950 . S
C696 C697 1.349 . S
C696 C698 1.327 . S
C696 H721 0.950 . S
C697 C696 1.349 . S
C697 C713 1.349 . S
C698 C696 1.327 . S
C698 C717 1.429 . S
C698 H722 0.950 . S
C699 C716 1.574 . S
C699 C718 1.368 . S
C699 H723 0.949 . S
H700 C704 0.949 . S
C701 C702 1.349 . S
C701 C703 1.327 . S
C701 H724 0.950 . S
C702 C701 1.349 . S
C702 C714 1.349 . S
C703 C701 1.327 . S
C703 C719 1.429 . S
C703 H725 0.950 . S
C704 H700 0.949 . S
C704 C712 1.574 . S
C704 C720 1.368 . S
H705 C713 0.950 . S
H706 C711 0.950 . S
H707 C712 0.949 . S
H708 C714 0.950 . S
H709 C715 0.950 . S
H710 C716 0.949 . S
C711 H706 0.950 . S
C711 C713 1.327 . S
C711 C717 1.429 . S
C712 C704 1.574 . S
C712 H707 0.949 . S
C712 C718 1.368 . S
C713 C697 1.349 . S
C713 H705 0.950 . S
C713 C711 1.327 . S
C714 C702 1.349 . S
C714 H708 0.950 . S
C714 C715 1.327 . S
C715 H709 0.950 . S
C715 C714 1.327 . S
C715 C719 1.429 . S
C716 C699 1.574 . S
C716 H710 0.949 . S
C716 C720 1.368 . S
C717 C698 1.429 . S
C717 C711 1.429 . S
C717 C718 1.523 . S
C718 C699 1.368 . S
C718 C712 1.368 . S
C718 C717 1.523 . S
C719 C703 1.429 . S
C719 C715 1.429 . S
C719 C720 1.523 . S
C720 C704 1.368 . S
C720 C716 1.368 . S
C720 C719 1.523 . S
H721 C696 0.950 . S
H722 C698 0.950 . S
H723 C699 0.949 . S
H724 C701 0.950 . S
H725 C703 0.950 . S
C726 C727 1.349 . S
C726 C728 1.327 . S
C726 H751 0.950 . S
C727 C726 1.349 . S
C727 C743 1.349 . S
C728 C726 1.327 . S
C728 C747 1.429 . S
C728 H752 0.950 . S
C729 C746 1.574 . S
C729 C748 1.368 . S
C729 H753 0.949 . S
H730 C734 0.949 . S
C731 C732 1.349 . S
C731 C733 1.327 . S
C731 H754 0.950 . S
C732 C731 1.349 . S
C732 C744 1.349 . S
C733 C731 1.327 . S
C733 C749 1.429 . S
C733 H755 0.950 . S
C734 H730 0.949 . S
C734 C742 1.574 . S
C734 C750 1.368 . S
H735 C743 0.950 . S
H736 C741 0.950 . S
H737 C742 0.949 . S
H738 C744 0.950 . S
H739 C745 0.950 . S
H740 C746 0.949 . S
C741 H736 0.950 . S
C741 C743 1.327 . S
C741 C747 1.429 . S
C742 C734 1.574 . S
C742 H737 0.949 . S
C742 C748 1.368 . S
C743 C727 1.349 . S
C743 H735 0.950 . S
C743 C741 1.327 . S
C744 C732 1.349 . S
C744 H738 0.950 . S
C744 C745 1.327 . S
C745 H739 0.950 . S
C745 C744 1.327 . S
C745 C749 1.429 . S
C746 C729 1.574 . S
C746 H740 0.949 . S
C746 C750 1.368 . S
C747 C728 1.429 . S
C747 C741 1.429 . S
C747 C748 1.523 . S
C748 C729 1.368 . S
C748 C742 1.368 . S
C748 C747 1.523 . S
C749 C733 1.429 . S
C749 C745 1.429 . S
C749 C750 1.523 . S
C750 C734 1.368 . S
C750 C746 1.368 . S
C750 C749 1.523 . S
H751 C726 0.950 . S
H752 C728 0.950 . S
H753 C729 0.949 . S
H754 C731 0.950 . S
H755 C733 0.950 . S
C756 C757 1.349 . S
C756 C758 1.327 . S
C756 H781 0.950 . S
C757 C756 1.349 . S
C757 C773 1.349 . S
C758 C756 1.327 . S
C758 C777 1.429 . S
C758 H782 0.950 . S
C759 C776 1.574 . S
C759 C778 1.368 . S
C759 H783 0.949 . S
H760 C764 0.949 . S
C761 C762 1.349 . S
C761 C763 1.327 . S
C761 H784 0.950 . S
C762 C761 1.349 . S
C762 C774 1.349 . S
C763 C761 1.327 . S
C763 C779 1.429 . S
C763 H785 0.950 . S
C764 H760 0.949 . S
C764 C772 1.574 . S
C764 C780 1.368 . S
H765 C773 0.950 . S
H766 C771 0.950 . S
H767 C772 0.949 . S
H768 C774 0.950 . S
H769 C775 0.950 . S
H770 C776 0.949 . S
C771 H766 0.950 . S
C771 C773 1.327 . S
C771 C777 1.429 . S
C772 C764 1.574 . S
C772 H767 0.949 . S
C772 C778 1.368 . S
C773 C757 1.349 . S
C773 H765 0.950 . S
C773 C771 1.327 . S
C774 C762 1.349 . S
C774 H768 0.950 . S
C774 C775 1.327 . S
C775 H769 0.950 . S
C775 C774 1.327 . S
C775 C779 1.429 . S
C776 C759 1.574 . S
C776 H770 0.949 . S
C776 C780 1.368 . S
C777 C758 1.429 . S
C777 C771 1.429 . S
C777 C778 1.523 . S
C778 C759 1.368 . S
C778 C772 1.368 . S
C778 C777 1.523 . S
C779 C763 1.429 . S
C779 C775 1.429 . S
C779 C780 1.523 . S
C780 C764 1.368 . S
C780 C776 1.368 . S
C780 C779 1.523 . S
H781 C756 0.950 . S
H782 C758 0.950 . S
H783 C759 0.949 . S
H784 C761 0.950 . S
H785 C763 0.950 . S
C786 C787 1.349 . S
C786 C788 1.327 . S
C786 H811 0.950 . S
C787 C786 1.349 . S
C787 C803 1.349 . S
C788 C786 1.327 . S
C788 C807 1.429 . S
C788 H812 0.950 . S
C789 C806 1.574 . S
C789 C808 1.368 . S
C789 H813 0.949 . S
H790 C794 0.949 . S
C791 C792 1.349 . S
C791 C793 1.327 . S
C791 H814 0.950 . S
C792 C791 1.349 . S
C792 C804 1.349 . S
C793 C791 1.327 . S
C793 C809 1.429 . S
C793 H815 0.950 . S
C794 H790 0.949 . S
C794 C802 1.574 . S
C794 C810 1.368 . S
H795 C803 0.950 . S
H796 C801 0.950 . S
H797 C802 0.949 . S
H798 C804 0.950 . S
H799 C805 0.950 . S
H800 C806 0.949 . S
C801 H796 0.950 . S
C801 C803 1.327 . S
C801 C807 1.429 . S
C802 C794 1.574 . S
C802 H797 0.949 . S
C802 C808 1.368 . S
C803 C787 1.349 . S
C803 H795 0.950 . S
C803 C801 1.327 . S
C804 C792 1.349 . S
C804 H798 0.950 . S
C804 C805 1.327 . S
C805 H799 0.950 . S
C805 C804 1.327 . S
C805 C809 1.429 . S
C806 C789 1.574 . S
C806 H800 0.949 . S
C806 C810 1.368 . S
C807 C788 1.429 . S
C807 C801 1.429 . S
C807 C808 1.523 . S
C808 C789 1.368 . S
C808 C802 1.368 . S
C808 C807 1.523 . S
C809 C793 1.429 . S
C809 C805 1.429 . S
C809 C810 1.523 . S
C810 C794 1.368 . S
C810 C806 1.368 . S
C810 C809 1.523 . S
H811 C786 0.950 . S
H812 C788 0.950 . S
H813 C789 0.949 . S
H814 C791 0.950 . S
H815 C793 0.950 . S
C816 C817 1.349 . S
C816 C818 1.327 . S
C816 H841 0.950 . S
C817 C816 1.349 . S
C817 C833 1.349 . S
C818 C816 1.327 . S
C818 C837 1.429 . S
C818 H842 0.950 . S
C819 C836 1.574 1_566 S
C819 C838 1.368 . S
C819 H843 0.949 . S
H820 C824 0.949 . S
C821 C822 1.349 . S
C821 C823 1.327 . S
C821 H844 0.950 . S
C822 C821 1.349 . S
C822 C834 1.349 . S
C823 C821 1.327 . S
C823 C839 1.429 . S
C823 H845 0.950 . S
C824 H820 0.949 . S
C824 C832 1.574 1_544 S
C824 C840 1.368 . S
H825 C833 0.950 . S
H826 C831 0.950 . S
H827 C832 0.949 . S
H828 C834 0.950 . S
H829 C835 0.950 . S
H830 C836 0.949 . S
C831 H826 0.950 . S
C831 C833 1.327 . S
C831 C837 1.429 . S
C832 C824 1.574 1_566 S
C832 H827 0.949 . S
C832 C838 1.368 . S
C833 C817 1.349 . S
C833 H825 0.950 . S
C833 C831 1.327 . S
C834 C822 1.349 . S
C834 H828 0.950 . S
C834 C835 1.327 . S
C835 H829 0.950 . S
C835 C834 1.327 . S
C835 C839 1.429 . S
C836 C819 1.574 1_544 S
C836 H830 0.949 . S
C836 C840 1.368 . S
C837 C818 1.429 . S
C837 C831 1.429 . S
C837 C838 1.523 . S
C838 C819 1.368 . S
C838 C832 1.368 . S
C838 C837 1.523 . S
C839 C823 1.429 . S
C839 C835 1.429 . S
C839 C840 1.523 . S
C840 C824 1.368 . S
C840 C836 1.368 . S
C840 C839 1.523 . S
H841 C816 0.950 . S
H842 C818 0.950 . S
H843 C819 0.949 . S
H844 C821 0.950 . S
H845 C823 0.950 . S
C846 C847 1.349 . S
C846 C848 1.327 . S
C846 H871 0.950 . S
C847 C846 1.349 . S
C847 C863 1.349 . S
C848 C846 1.327 . S
C848 C867 1.429 . S
C848 H872 0.950 . S
C849 C866 1.574 . S
C849 C868 1.368 . S
C849 H873 0.949 . S
H850 C854 0.949 . S
C851 C852 1.349 . S
C851 C853 1.327 . S
C851 H874 0.950 . S
C852 C851 1.349 . S
C852 C864 1.349 . S
C853 C851 1.327 . S
C853 C869 1.429 . S
C853 H875 0.950 . S
C854 H850 0.949 . S
C854 C862 1.574 . S
C854 C870 1.368 . S
H855 C863 0.950 . S
H856 C861 0.950 . S
H857 C862 0.949 . S
H858 C864 0.950 . S
H859 C865 0.950 . S
H860 C866 0.949 . S
C861 H856 0.950 . S
C861 C863 1.327 . S
C861 C867 1.429 . S
C862 C854 1.574 . S
C862 H857 0.949 . S
C862 C868 1.368 . S
C863 C847 1.349 . S
C863 H855 0.950 . S
C863 C861 1.327 . S
C864 C852 1.349 . S
C864 H858 0.950 . S
C864 C865 1.327 . S
C865 H859 0.950 . S
C865 C864 1.327 . S
C865 C869 1.429 . S
C866 C849 1.574 . S
C866 H860 0.949 . S
C866 C870 1.368 . S
C867 C848 1.429 . S
C867 C861 1.429 . S
C867 C868 1.523 . S
C868 C849 1.368 . S
C868 C862 1.368 . S
C868 C867 1.523 . S
C869 C853 1.429 . S
C869 C865 1.429 . S
C869 C870 1.523 . S
C870 C854 1.368 . S
C870 C866 1.368 . S
C870 C869 1.523 . S
H871 C846 0.950 . S
H872 C848 0.950 . S
H873 C849 0.949 . S
H874 C851 0.950 . S
H875 C853 0.950 . S
C876 C877 1.349 . S
C876 C878 1.327 . S
C876 H901 0.950 . S
C877 C876 1.349 . S
C877 C893 1.349 . S
C878 C876 1.327 . S
C878 C897 1.429 . S
C878 H902 0.950 . S
C879 C896 1.574 1_456 S
C879 C898 1.368 . S
C879 H903 0.949 . S
H880 C884 0.949 . S
C881 C882 1.349 . S
C881 C883 1.327 . S
C881 H904 0.950 . S
C882 C881 1.349 . S
C882 C894 1.349 . S
C883 C881 1.327 . S
C883 C899 1.429 . S
C883 H905 0.950 . S
C884 H880 0.949 . S
C884 C892 1.574 1_654 S
C884 C900 1.368 . S
H885 C893 0.950 . S
H886 C891 0.950 . S
H887 C892 0.949 . S
H888 C894 0.950 . S
H889 C895 0.950 . S
H890 C896 0.949 . S
C891 H886 0.950 . S
C891 C893 1.327 . S
C891 C897 1.429 . S
C892 C884 1.574 1_456 S
C892 H887 0.949 . S
C892 C898 1.368 . S
C893 C877 1.349 . S
C893 H885 0.950 . S
C893 C891 1.327 . S
C894 C882 1.349 . S
C894 H888 0.950 . S
C894 C895 1.327 . S
C895 H889 0.950 . S
C895 C894 1.327 . S
C895 C899 1.429 . S
C896 C879 1.574 1_654 S
C896 H890 0.949 . S
C896 C900 1.368 . S
C897 C878 1.429 . S
C897 C891 1.429 . S
C897 C898 1.523 . S
C898 C879 1.368 . S
C898 C892 1.368 . S
C898 C897 1.523 . S
C899 C883 1.429 . S
C899 C895 1.429 . S
C899 C900 1.523 . S
C900 C884 1.368 . S
C900 C896 1.368 . S
C900 C899 1.523 . S
H901 C876 0.950 . S
H902 C878 0.950 . S
H903 C879 0.949 . S
H904 C881 0.950 . S
H905 C883 0.950 . S
C906 C907 1.349 . S
C906 C908 1.327 . S
C906 H931 0.950 . S
C907 C906 1.349 . S
C907 C923 1.349 . S
C908 C906 1.327 . S
C908 C927 1.429 . S
C908 H932 0.950 1_545 S
C909 C926 1.574 . S
C909 C928 1.368 . S
C909 H933 0.949 . S
H910 C914 0.949 . S
C911 C912 1.349 . S
C911 C913 1.327 . S
C911 H934 0.950 . S
C912 C911 1.349 . S
C912 C924 1.349 . S
C913 C911 1.327 . S
C913 C929 1.429 . S
C913 H935 0.950 1_565 S
C914 H910 0.949 . S
C914 C922 1.574 . S
C914 C930 1.368 . S
H915 C923 0.950 . S
H916 C921 0.950 . S
H917 C922 0.949 . S
H918 C924 0.950 . S
H919 C925 0.950 . S
H920 C926 0.949 . S
C921 H916 0.950 . S
C921 C923 1.327 . S
C921 C927 1.429 . S
C922 C914 1.574 . S
C922 H917 0.949 . S
C922 C928 1.368 1_565 S
C923 C907 1.349 . S
C923 H915 0.950 . S
C923 C921 1.327 . S
C924 C912 1.349 . S
C924 H918 0.950 . S
C924 C925 1.327 . S
C925 H919 0.950 . S
C925 C924 1.327 . S
C925 C929 1.429 . S
C926 C909 1.574 . S
C926 H920 0.949 . S
C926 C930 1.368 1_545 S
C927 C908 1.429 . S
C927 C921 1.429 . S
C927 C928 1.523 . S
C928 C909 1.368 . S
C928 C922 1.368 1_545 S
C928 C927 1.523 . S
C929 C913 1.429 . S
C929 C925 1.429 . S
C929 C930 1.523 . S
C930 C914 1.368 . S
C930 C926 1.368 1_565 S
C930 C929 1.523 . S
H931 C906 0.950 . S
H932 C908 0.950 1_565 S
H933 C909 0.949 . S
H934 C911 0.950 . S
H935 C913 0.950 1_545 S
C936 C937 1.349 . S
C936 C938 1.327 . S
C936 H961 0.950 . S
C937 C936 1.349 . S
C937 C953 1.349 . S
C938 C936 1.327 . S
C938 C957 1.429 . S
C938 H962 0.950 . S
C939 C956 1.574 1_554 S
C939 C958 1.368 . S
C939 H963 0.949 . S
H940 C944 0.949 . S
C941 C942 1.349 . S
C941 C943 1.327 . S
C941 H964 0.950 . S
C942 C941 1.349 . S
C942 C954 1.349 . S
C943 C941 1.327 . S
C943 C959 1.429 . S
C943 H965 0.950 . S
C944 H940 0.949 . S
C944 C952 1.574 1_556 S
C944 C960 1.368 . S
H945 C953 0.950 . S
H946 C951 0.950 . S
H947 C952 0.949 . S
H948 C954 0.950 . S
H949 C955 0.950 . S
H950 C956 0.949 . S
C951 H946 0.950 . S
C951 C953 1.327 . S
C951 C957 1.429 . S
C952 C944 1.574 1_554 S
C952 H947 0.949 . S
C952 C958 1.368 . S
C953 C937 1.349 . S
C953 H945 0.950 . S
C953 C951 1.327 . S
C954 C942 1.349 . S
C954 H948 0.950 . S
C954 C955 1.327 . S
C955 H949 0.950 . S
C955 C954 1.327 . S
C955 C959 1.429 . S
C956 C939 1.574 1_556 S
C956 H950 0.949 . S
C956 C960 1.368 . S
C957 C938 1.429 . S
C957 C951 1.429 . S
C957 C958 1.523 . S
C958 C939 1.368 . S
C958 C952 1.368 . S
C958 C957 1.523 . S
C959 C943 1.429 . S
C959 C955 1.429 . S
C959 C960 1.523 . S
C960 C944 1.368 . S
C960 C956 1.368 . S
C960 C959 1.523 . S
H961 C936 0.950 . S
H962 C938 0.950 . S
H963 C939 0.949 . S
H964 C941 0.950 . S
H965 C943 0.950 . S
C966 C967 1.349 . S
C966 C968 1.327 . S
C966 H991 0.950 . S
C967 C966 1.349 . S
C967 C983 1.349 . S
C968 C966 1.327 . S
C968 C987 1.429 . S
C968 H992 0.950 1_455 S
C969 C986 1.574 . S
C969 C988 1.368 . S
C969 H993 0.949 . S
H970 C974 0.949 . S
C971 C972 1.349 . S
C971 C973 1.327 . S
C971 H994 0.950 . S
C972 C971 1.349 . S
C972 C984 1.349 . S
C973 C971 1.327 . S
C973 C989 1.429 . S
C973 H995 0.950 1_655 S
C974 H970 0.949 . S
C974 C982 1.574 . S
C974 C990 1.368 . S
H975 C983 0.950 . S
H976 C981 0.950 . S
H977 C982 0.949 . S
H978 C984 0.950 . S
H979 C985 0.950 . S
H980 C986 0.949 . S
C981 H976 0.950 . S
C981 C983 1.327 . S
C981 C987 1.429 . S
C982 C974 1.574 . S
C982 H977 0.949 . S
C982 C988 1.368 1_655 S
C983 C967 1.349 . S
C983 H975 0.950 . S
C983 C981 1.327 . S
C984 C972 1.349 . S
C984 H978 0.950 . S
C984 C985 1.327 . S
C985 H979 0.950 . S
C985 C984 1.327 . S
C985 C989 1.429 . S
C986 C969 1.574 . S
C986 H980 0.949 . S
C986 C990 1.368 1_455 S
C987 C968 1.429 . S
C987 C981 1.429 . S
C987 C988 1.523 . S
C988 C969 1.368 . S
C988 C982 1.368 1_455 S
C988 C987 1.523 . S
C989 C973 1.429 . S
C989 C985 1.429 . S
C989 C990 1.523 . S
C990 C974 1.368 . S
C990 C986 1.368 1_655 S
C990 C989 1.523 . S
H991 C966 0.950 . S
H992 C968 0.950 1_655 S
H993 C969 0.949 . S
H994 C971 0.950 . S
H995 C973 0.950 1_455 S
C996 C997 1.349 . S
C996 C998 1.327 . S
C996 H1021 0.950 . S
C997 C996 1.349 . S
C997 C1013 1.349 . S
C998 C996 1.327 . S
C998 C1017 1.429 . S
C998 H1022 0.950 . S
C999 C1016 1.574 . S
C999 C1018 1.368 . S
C999 H1023 0.949 . S
H1000 C1004 0.949 . S
C1001 C1002 1.349 . S
C1001 C1003 1.327 . S
C1001 H1024 0.950 . S
C1002 C1001 1.349 . S
C1002 C1014 1.349 . S
C1003 C1001 1.327 . S
C1003 C1019 1.429 . S
C1003 H1025 0.950 . S
C1004 H1000 0.949 . S
C1004 C1012 1.574 . S
C1004 C1020 1.368 . S
H1005 C1013 0.950 . S
H1006 C1011 0.950 . S
H1007 C1012 0.949 . S
H1008 C1014 0.950 . S
H1009 C1015 0.950 . S
H1010 C1016 0.949 . S
C1011 H1006 0.950 . S
C1011 C1013 1.327 . S
C1011 C1017 1.429 . S
C1012 C1004 1.574 . S
C1012 H1007 0.949 . S
C1012 C1018 1.368 . S
C1013 C997 1.349 . S
C1013 H1005 0.950 . S
C1013 C1011 1.327 . S
C1014 C1002 1.349 . S
C1014 H1008 0.950 . S
C1014 C1015 1.327 . S
C1015 H1009 0.950 . S
C1015 C1014 1.327 . S
C1015 C1019 1.429 . S
C1016 C999 1.574 . S
C1016 H1010 0.949 . S
C1016 C1020 1.368 . S
C1017 C998 1.429 . S
C1017 C1011 1.429 . S
C1017 C1018 1.523 . S
C1018 C999 1.368 . S
C1018 C1012 1.368 . S
C1018 C1017 1.523 . S
C1019 C1003 1.429 . S
C1019 C1015 1.429 . S
C1019 C1020 1.523 . S
C1020 C1004 1.368 . S
C1020 C1016 1.368 . S
C1020 C1019 1.523 . S
H1021 C996 0.950 . S
H1022 C998 0.950 . S
H1023 C999 0.949 . S
H1024 C1001 0.950 . S
H1025 C1003 0.950 . S
C1026 C1027 1.349 . S
C1026 C1028 1.327 . S
C1026 H1051 0.950 . S
C1027 C1026 1.349 . S
C1027 C1043 1.349 . S
C1028 C1026 1.327 . S
C1028 C1047 1.429 . S
C1028 H1052 0.950 . S
C1029 C1046 1.574 . S
C1029 C1048 1.368 . S
C1029 H1053 0.949 . S
H1030 C1034 0.949 . S
C1031 C1032 1.349 . S
C1031 C1033 1.327 . S
C1031 H1054 0.950 . S
C1032 C1031 1.349 . S
C1032 C1044 1.349 . S
C1033 C1031 1.327 . S
C1033 C1049 1.429 . S
C1033 H1055 0.950 . S
C1034 H1030 0.949 . S
C1034 C1042 1.574 . S
C1034 C1050 1.368 . S
H1035 C1043 0.950 . S
H1036 C1041 0.950 . S
H1037 C1042 0.949 . S
H1038 C1044 0.950 . S
H1039 C1045 0.950 . S
H1040 C1046 0.949 . S
C1041 H1036 0.950 . S
C1041 C1043 1.327 . S
C1041 C1047 1.429 . S
C1042 C1034 1.574 . S
C1042 H1037 0.949 . S
C1042 C1048 1.368 . S
C1043 C1027 1.349 . S
C1043 H1035 0.950 . S
C1043 C1041 1.327 . S
C1044 C1032 1.349 . S
C1044 H1038 0.950 . S
C1044 C1045 1.327 . S
C1045 H1039 0.950 . S
C1045 C1044 1.327 . S
C1045 C1049 1.429 . S
C1046 C1029 1.574 . S
C1046 H1040 0.949 . S
C1046 C1050 1.368 . S
C1047 C1028 1.429 . S
C1047 C1041 1.429 . S
C1047 C1048 1.523 . S
C1048 C1029 1.368 . S
C1048 C1042 1.368 . S
C1048 C1047 1.523 . S
C1049 C1033 1.429 . S
C1049 C1045 1.429 . S
C1049 C1050 1.523 . S
C1050 C1034 1.368 . S
C1050 C1046 1.368 . S
C1050 C1049 1.523 . S
H1051 C1026 0.950 . S
H1052 C1028 0.950 . S
H1053 C1029 0.949 . S
H1054 C1031 0.950 . S
H1055 C1033 0.950 . S
C1056 C1057 1.349 . S
C1056 C1058 1.327 . S
C1056 H1081 0.950 . S
C1057 C1056 1.349 . S
C1057 C1073 1.349 . S
C1058 C1056 1.327 . S
C1058 C1077 1.429 . S
C1058 H1082 0.950 . S
C1059 C1076 1.574 . S
C1059 C1078 1.368 . S
C1059 H1083 0.949 . S
H1060 C1064 0.949 . S
C1061 C1062 1.349 . S
C1061 C1063 1.327 . S
C1061 H1084 0.950 . S
C1062 C1061 1.349 . S
C1062 C1074 1.349 . S
C1063 C1061 1.327 . S
C1063 C1079 1.429 . S
C1063 H1085 0.950 . S
C1064 H1060 0.949 . S
C1064 C1072 1.574 . S
C1064 C1080 1.368 . S
H1065 C1073 0.950 . S
H1066 C1071 0.950 . S
H1067 C1072 0.949 . S
H1068 C1074 0.950 . S
H1069 C1075 0.950 . S
H1070 C1076 0.949 . S
C1071 H1066 0.950 . S
C1071 C1073 1.327 . S
C1071 C1077 1.429 . S
C1072 C1064 1.574 . S
C1072 H1067 0.949 . S
C1072 C1078 1.368 . S
C1073 C1057 1.349 . S
C1073 H1065 0.950 . S
C1073 C1071 1.327 . S
C1074 C1062 1.349 . S
C1074 H1068 0.950 . S
C1074 C1075 1.327 . S
C1075 H1069 0.950 . S
C1075 C1074 1.327 . S
C1075 C1079 1.429 . S
C1076 C1059 1.574 . S
C1076 H1070 0.949 . S
C1076 C1080 1.368 . S
C1077 C1058 1.429 . S
C1077 C1071 1.429 . S
C1077 C1078 1.523 . S
C1078 C1059 1.368 . S
C1078 C1072 1.368 . S
C1078 C1077 1.523 . S
C1079 C1063 1.429 . S
C1079 C1075 1.429 . S
C1079 C1080 1.523 . S
C1080 C1064 1.368 . S
C1080 C1076 1.368 . S
C1080 C1079 1.523 . S
H1081 C1056 0.950 . S
H1082 C1058 0.950 . S
H1083 C1059 0.949 . S
H1084 C1061 0.950 . S
H1085 C1063 0.950 . S
C1086 C1087 1.349 . S
C1086 C1088 1.327 . S
C1086 H1111 0.950 . S
C1087 C1086 1.349 . S
C1087 C1103 1.349 . S
C1088 C1086 1.327 . S
C1088 C1107 1.429 . S
C1088 H1112 0.950 . S
C1089 C1106 1.574 . S
C1089 C1108 1.368 . S
C1089 H1113 0.949 . S
H1090 C1094 0.949 . S
C1091 C1092 1.349 . S
C1091 C1093 1.327 . S
C1091 H1114 0.950 . S
C1092 C1091 1.349 . S
C1092 C1104 1.349 . S
C1093 C1091 1.327 . S
C1093 C1109 1.429 . S
C1093 H1115 0.950 . S
C1094 H1090 0.949 . S
C1094 C1102 1.574 . S
C1094 C1110 1.368 . S
H1095 C1103 0.950 . S
H1096 C1101 0.950 . S
H1097 C1102 0.949 . S
H1098 C1104 0.950 . S
H1099 C1105 0.950 . S
H1100 C1106 0.949 . S
C1101 H1096 0.950 . S
C1101 C1103 1.327 . S
C1101 C1107 1.429 . S
C1102 C1094 1.574 . S
C1102 H1097 0.949 . S
C1102 C1108 1.368 . S
C1103 C1087 1.349 . S
C1103 H1095 0.950 . S
C1103 C1101 1.327 . S
C1104 C1092 1.349 . S
C1104 H1098 0.950 . S
C1104 C1105 1.327 . S
C1105 H1099 0.950 . S
C1105 C1104 1.327 . S
C1105 C1109 1.429 . S
C1106 C1089 1.574 . S
C1106 H1100 0.949 . S
C1106 C1110 1.368 . S
C1107 C1088 1.429 . S
C1107 C1101 1.429 . S
C1107 C1108 1.523 . S
C1108 C1089 1.368 . S
C1108 C1102 1.368 . S
C1108 C1107 1.523 . S
C1109 C1093 1.429 . S
C1109 C1105 1.429 . S
C1109 C1110 1.523 . S
C1110 C1094 1.368 . S
C1110 C1106 1.368 . S
C1110 C1109 1.523 . S
H1111 C1086 0.950 . S
H1112 C1088 0.950 . S
H1113 C1089 0.949 . S
H1114 C1091 0.950 . S
H1115 C1093 0.950 . S
C1116 C1117 1.349 . S
C1116 C1118 1.327 . S
C1116 H1141 0.950 . S
C1117 C1116 1.349 . S
C1117 C1133 1.349 . S
C1118 C1116 1.327 . S
C1118 C1137 1.429 . S
C1118 H1142 0.950 . S
C1119 C1136 1.574 . S
C1119 C1138 1.368 . S
C1119 H1143 0.949 . S
H1120 C1124 0.949 . S
C1121 C1122 1.349 . S
C1121 C1123 1.327 . S
C1121 H1144 0.950 . S
C1122 C1121 1.349 . S
C1122 C1134 1.349 . S
C1123 C1121 1.327 . S
C1123 C1139 1.429 . S
C1123 H1145 0.950 . S
C1124 H1120 0.949 . S
C1124 C1132 1.574 . S
C1124 C1140 1.368 . S
H1125 C1133 0.950 . S
H1126 C1131 0.950 . S
H1127 C1132 0.949 . S
H1128 C1134 0.950 . S
H1129 C1135 0.950 . S
H1130 C1136 0.949 . S
C1131 H1126 0.950 . S
C1131 C1133 1.327 . S
C1131 C1137 1.429 . S
C1132 C1124 1.574 . S
C1132 H1127 0.949 . S
C1132 C1138 1.368 . S
C1133 C1117 1.349 . S
C1133 H1125 0.950 . S
C1133 C1131 1.327 . S
C1134 C1122 1.349 . S
C1134 H1128 0.950 . S
C1134 C1135 1.327 . S
C1135 H1129 0.950 . S
C1135 C1134 1.327 . S
C1135 C1139 1.429 . S
C1136 C1119 1.574 . S
C1136 H1130 0.949 . S
C1136 C1140 1.368 . S
C1137 C1118 1.429 . S
C1137 C1131 1.429 . S
C1137 C1138 1.523 . S
C1138 C1119 1.368 . S
C1138 C1132 1.368 . S
C1138 C1137 1.523 . S
C1139 C1123 1.429 . S
C1139 C1135 1.429 . S
C1139 C1140 1.523 . S
C1140 C1124 1.368 . S
C1140 C1136 1.368 . S
C1140 C1139 1.523 . S
H1141 C1116 0.950 . S
H1142 C1118 0.950 . S
H1143 C1119 0.949 . S
H1144 C1121 0.950 . S
H1145 C1123 0.950 . S
C1146 C1147 1.349 . S
C1146 C1148 1.327 . S
C1146 H1171 0.950 . S
C1147 C1146 1.349 . S
C1147 C1163 1.349 . S
C1148 C1146 1.327 . S
C1148 C1167 1.429 . S
C1148 H1172 0.950 . S
C1149 C1166 1.574 . S
C1149 C1168 1.368 . S
C1149 H1173 0.949 . S
H1150 C1154 0.949 . S
C1151 C1152 1.349 . S
C1151 C1153 1.327 . S
C1151 H1174 0.950 . S
C1152 C1151 1.349 . S
C1152 C1164 1.349 . S
C1153 C1151 1.327 . S
C1153 C1169 1.429 . S
C1153 H1175 0.950 . S
C1154 H1150 0.949 . S
C1154 C1162 1.574 . S
C1154 C1170 1.368 . S
H1155 C1163 0.950 . S
H1156 C1161 0.950 . S
H1157 C1162 0.949 . S
H1158 C1164 0.950 . S
H1159 C1165 0.950 . S
H1160 C1166 0.949 . S
C1161 H1156 0.950 . S
C1161 C1163 1.327 . S
C1161 C1167 1.429 . S
C1162 C1154 1.574 . S
C1162 H1157 0.949 . S
C1162 C1168 1.368 . S
C1163 C1147 1.349 . S
C1163 H1155 0.950 . S
C1163 C1161 1.327 . S
C1164 C1152 1.349 . S
C1164 H1158 0.950 . S
C1164 C1165 1.327 . S
C1165 H1159 0.950 . S
C1165 C1164 1.327 . S
C1165 C1169 1.429 . S
C1166 C1149 1.574 . S
C1166 H1160 0.949 . S
C1166 C1170 1.368 . S
C1167 C1148 1.429 . S
C1167 C1161 1.429 . S
C1167 C1168 1.523 . S
C1168 C1149 1.368 . S
C1168 C1162 1.368 . S
C1168 C1167 1.523 . S
C1169 C1153 1.429 . S
C1169 C1165 1.429 . S
C1169 C1170 1.523 . S
C1170 C1154 1.368 . S
C1170 C1166 1.368 . S
C1170 C1169 1.523 . S
H1171 C1146 0.950 . S
H1172 C1148 0.950 . S
H1173 C1149 0.949 . S
H1174 C1151 0.950 . S
H1175 C1153 0.950 . S
C1176 C1177 1.349 . S
C1176 C1178 1.327 . S
C1176 H1201 0.950 . S
C1177 C1176 1.349 . S
C1177 C1193 1.349 . S
C1178 C1176 1.327 . S
C1178 C1197 1.429 . S
C1178 H1202 0.950 . S
C1179 C1196 1.574 . S
C1179 C1198 1.368 . S
C1179 H1203 0.949 . S
H1180 C1184 0.949 . S
C1181 C1182 1.349 . S
C1181 C1183 1.327 . S
C1181 H1204 0.950 . S
C1182 C1181 1.349 . S
C1182 C1194 1.349 . S
C1183 C1181 1.327 . S
C1183 C1199 1.429 . S
C1183 H1205 0.950 . S
C1184 H1180 0.949 . S
C1184 C1192 1.574 . S
C1184 C1200 1.368 . S
H1185 C1193 0.950 . S
H1186 C1191 0.950 . S
H1187 C1192 0.949 . S
H1188 C1194 0.950 . S
H1189 C1195 0.950 . S
H1190 C1196 0.949 . S
C1191 H1186 0.950 . S
C1191 C1193 1.327 . S
C1191 C1197 1.429 . S
C1192 C1184 1.574 . S
C1192 H1187 0.949 . S
C1192 C1198 1.368 . S
C1193 C1177 1.349 . S
C1193 H1185 0.950 . S
C1193 C1191 1.327 . S
C1194 C1182 1.349 . S
C1194 H1188 0.950 . S
C1194 C1195 1.327 . S
C1195 H1189 0.950 . S
C1195 C1194 1.327 . S
C1195 C1199 1.429 . S
C1196 C1179 1.574 . S
C1196 H1190 0.949 . S
C1196 C1200 1.368 . S
C1197 C1178 1.429 . S
C1197 C1191 1.429 . S
C1197 C1198 1.523 . S
C1198 C1179 1.368 . S
C1198 C1192 1.368 . S
C1198 C1197 1.523 . S
C1199 C1183 1.429 . S
C1199 C1195 1.429 . S
C1199 C1200 1.523 . S
C1200 C1184 1.368 . S
C1200 C1196 1.368 . S
C1200 C1199 1.523 . S
H1201 C1176 0.950 . S
H1202 C1178 0.950 . S
H1203 C1179 0.949 . S
H1204 C1181 0.950 . S
H1205 C1183 0.950 . S
C1206 C1207 1.349 . S
C1206 C1208 1.327 . S
C1206 H1231 0.950 . S
C1207 C1206 1.349 . S
C1207 C1223 1.349 . S
C1208 C1206 1.327 . S
C1208 C1227 1.429 . S
C1208 H1232 0.950 . S
C1209 C1226 1.574 . S
C1209 C1228 1.368 . S
C1209 H1233 0.949 . S
H1210 C1214 0.949 . S
C1211 C1212 1.349 . S
C1211 C1213 1.327 . S
C1211 H1234 0.950 . S
C1212 C1211 1.349 . S
C1212 C1224 1.349 . S
C1213 C1211 1.327 . S
C1213 C1229 1.429 . S
C1213 H1235 0.950 . S
C1214 H1210 0.949 . S
C1214 C1222 1.574 . S
C1214 C1230 1.368 . S
H1215 C1223 0.950 . S
H1216 C1221 0.950 . S
H1217 C1222 0.949 . S
H1218 C1224 0.950 . S
H1219 C1225 0.950 . S
H1220 C1226 0.949 . S
C1221 H1216 0.950 . S
C1221 C1223 1.327 . S
C1221 C1227 1.429 . S
C1222 C1214 1.574 . S
C1222 H1217 0.949 . S
C1222 C1228 1.368 . S
C1223 C1207 1.349 . S
C1223 H1215 0.950 . S
C1223 C1221 1.327 . S
C1224 C1212 1.349 . S
C1224 H1218 0.950 . S
C1224 C1225 1.327 . S
C1225 H1219 0.950 . S
C1225 C1224 1.327 . S
C1225 C1229 1.429 . S
C1226 C1209 1.574 . S
C1226 H1220 0.949 . S
C1226 C1230 1.368 . S
C1227 C1208 1.429 . S
C1227 C1221 1.429 . S
C1227 C1228 1.523 . S
C1228 C1209 1.368 . S
C1228 C1222 1.368 . S
C1228 C1227 1.523 . S
C1229 C1213 1.429 . S
C1229 C1225 1.429 . S
C1229 C1230 1.523 . S
C1230 C1214 1.368 . S
C1230 C1226 1.368 . S
C1230 C1229 1.523 . S
H1231 C1206 0.950 . S
H1232 C1208 0.950 . S
H1233 C1209 0.949 . S
H1234 C1211 0.950 . S
H1235 C1213 0.950 . S
C1236 C1237 1.349 . S
C1236 C1238 1.327 . S
C1236 H1261 0.950 . S
C1237 C1236 1.349 . S
C1237 C1253 1.349 . S
C1238 C1236 1.327 . S
C1238 C1257 1.429 . S
C1238 H1262 0.950 . S
C1239 C1256 1.574 . S
C1239 C1258 1.368 . S
C1239 H1263 0.949 . S
H1240 C1244 0.949 . S
C1241 C1242 1.349 . S
C1241 C1243 1.327 . S
C1241 H1264 0.950 . S
C1242 C1241 1.349 . S
C1242 C1254 1.349 . S
C1243 C1241 1.327 . S
C1243 C1259 1.429 . S
C1243 H1265 0.950 . S
C1244 H1240 0.949 . S
C1244 C1252 1.574 . S
C1244 C1260 1.368 . S
H1245 C1253 0.950 . S
H1246 C1251 0.950 . S
H1247 C1252 0.949 . S
H1248 C1254 0.950 . S
H1249 C1255 0.950 . S
H1250 C1256 0.949 . S
C1251 H1246 0.950 . S
C1251 C1253 1.327 . S
C1251 C1257 1.429 . S
C1252 C1244 1.574 . S
C1252 H1247 0.949 . S
C1252 C1258 1.368 . S
C1253 C1237 1.349 . S
C1253 H1245 0.950 . S
C1253 C1251 1.327 . S
C1254 C1242 1.349 . S
C1254 H1248 0.950 . S
C1254 C1255 1.327 . S
C1255 H1249 0.950 . S
C1255 C1254 1.327 . S
C1255 C1259 1.429 . S
C1256 C1239 1.574 . S
C1256 H1250 0.949 . S
C1256 C1260 1.368 . S
C1257 C1238 1.429 . S
C1257 C1251 1.429 . S
C1257 C1258 1.523 . S
C1258 C1239 1.368 . S
C1258 C1252 1.368 . S
C1258 C1257 1.523 . S
C1259 C1243 1.429 . S
C1259 C1255 1.429 . S
C1259 C1260 1.523 . S
C1260 C1244 1.368 . S
C1260 C1256 1.368 . S
C1260 C1259 1.523 . S
H1261 C1236 0.950 . S
H1262 C1238 0.950 . S
H1263 C1239 0.949 . S
H1264 C1241 0.950 . S
H1265 C1243 0.950 . S
C1266 C1267 1.349 . S
C1266 C1268 1.327 . S
C1266 H1291 0.950 . S
C1267 C1266 1.349 . S
C1267 C1283 1.349 . S
C1268 C1266 1.327 . S
C1268 C1287 1.429 . S
C1268 H1292 0.950 . S
C1269 C1286 1.574 . S
C1269 C1288 1.368 . S
C1269 H1293 0.949 . S
H1270 C1274 0.949 . S
C1271 C1272 1.349 . S
C1271 C1273 1.327 . S
C1271 H1294 0.950 . S
C1272 C1271 1.349 . S
C1272 C1284 1.349 . S
C1273 C1271 1.327 . S
C1273 C1289 1.429 . S
C1273 H1295 0.950 . S
C1274 H1270 0.949 . S
C1274 C1282 1.574 . S
C1274 C1290 1.368 . S
H1275 C1283 0.950 . S
H1276 C1281 0.950 . S
H1277 C1282 0.949 . S
H1278 C1284 0.950 . S
H1279 C1285 0.950 . S
H1280 C1286 0.949 . S
C1281 H1276 0.950 . S
C1281 C1283 1.327 . S
C1281 C1287 1.429 . S
C1282 C1274 1.574 . S
C1282 H1277 0.949 . S
C1282 C1288 1.368 . S
C1283 C1267 1.349 . S
C1283 H1275 0.950 . S
C1283 C1281 1.327 . S
C1284 C1272 1.349 . S
C1284 H1278 0.950 . S
C1284 C1285 1.327 . S
C1285 H1279 0.950 . S
C1285 C1284 1.327 . S
C1285 C1289 1.429 . S
C1286 C1269 1.574 . S
C1286 H1280 0.949 . S
C1286 C1290 1.368 . S
C1287 C1268 1.429 . S
C1287 C1281 1.429 . S
C1287 C1288 1.523 . S
C1288 C1269 1.368 . S
C1288 C1282 1.368 . S
C1288 C1287 1.523 . S
C1289 C1273 1.429 . S
C1289 C1285 1.429 . S
C1289 C1290 1.523 . S
C1290 C1274 1.368 . S
C1290 C1286 1.368 . S
C1290 C1289 1.523 . S
H1291 C1266 0.950 . S
H1292 C1268 0.950 . S
H1293 C1269 0.949 . S
H1294 C1271 0.950 . S
H1295 C1273 0.950 . S
C1296 C1297 1.349 . S
C1296 C1298 1.327 . S
C1296 H1321 0.950 . S
C1297 C1296 1.349 . S
C1297 C1313 1.349 . S
C1298 C1296 1.327 . S
C1298 C1317 1.429 . S
C1298 H1322 0.950 . S
C1299 C1316 1.574 . S
C1299 C1318 1.368 . S
C1299 H1323 0.949 . S
H1300 C1304 0.949 . S
C1301 C1302 1.349 . S
C1301 C1303 1.327 . S
C1301 H1324 0.950 . S
C1302 C1301 1.349 . S
C1302 C1314 1.349 . S
C1303 C1301 1.327 . S
C1303 C1319 1.429 . S
C1303 H1325 0.950 . S
C1304 H1300 0.949 . S
C1304 C1312 1.574 . S
C1304 C1320 1.368 . S
H1305 C1313 0.950 . S
H1306 C1311 0.950 . S
H1307 C1312 0.949 . S
H1308 C1314 0.950 . S
H1309 C1315 0.950 . S
H1310 C1316 0.949 . S
C1311 H1306 0.950 . S
C1311 C1313 1.327 . S
C1311 C1317 1.429 . S
C1312 C1304 1.574 . S
C1312 H1307 0.949 . S
C1312 C1318 1.368 . S
C1313 C1297 1.349 . S
C1313 H1305 0.950 . S
C1313 C1311 1.327 . S
C1314 C1302 1.349 . S
C1314 H1308 0.950 . S
C1314 C1315 1.327 . S
C1315 H1309 0.950 . S
C1315 C1314 1.327 . S
C1315 C1319 1.429 . S
C1316 C1299 1.574 . S
C1316 H1310 0.949 . S
C1316 C1320 1.368 . S
C1317 C1298 1.429 . S
C1317 C1311 1.429 . S
C1317 C1318 1.523 . S
C1318 C1299 1.368 . S
C1318 C1312 1.368 . S
C1318 C1317 1.523 . S
C1319 C1303 1.429 . S
C1319 C1315 1.429 . S
C1319 C1320 1.523 . S
C1320 C1304 1.368 . S
C1320 C1316 1.368 . S
C1320 C1319 1.523 . S
H1321 C1296 0.950 . S
H1322 C1298 0.950 . S
H1323 C1299 0.949 . S
H1324 C1301 0.950 . S
H1325 C1303 0.950 . S
C1326 C1327 1.349 . S
C1326 C1328 1.327 . S
C1326 H1351 0.950 . S
C1327 C1326 1.349 . S
C1327 C1343 1.349 . S
C1328 C1326 1.327 . S
C1328 C1347 1.429 . S
C1328 H1352 0.950 . S
C1329 C1346 1.574 . S
C1329 C1348 1.368 . S
C1329 H1353 0.949 . S
H1330 C1334 0.949 . S
C1331 C1332 1.349 . S
C1331 C1333 1.327 . S
C1331 H1354 0.950 . S
C1332 C1331 1.349 . S
C1332 C1344 1.349 . S
C1333 C1331 1.327 . S
C1333 C1349 1.429 . S
C1333 H1355 0.950 . S
C1334 H1330 0.949 . S
C1334 C1342 1.574 . S
C1334 C1350 1.368 . S
H1335 C1343 0.950 . S
H1336 C1341 0.950 . S
H1337 C1342 0.949 . S
H1338 C1344 0.950 . S
H1339 C1345 0.950 . S
H1340 C1346 0.949 . S
C1341 H1336 0.950 . S
C1341 C1343 1.327 . S
C1341 C1347 1.429 . S
C1342 C1334 1.574 . S
C1342 H1337 0.949 . S
C1342 C1348 1.368 . S
C1343 C1327 1.349 . S
C1343 H1335 0.950 . S
C1343 C1341 1.327 . S
C1344 C1332 1.349 . S
C1344 H1338 0.950 . S
C1344 C1345 1.327 . S
C1345 H1339 0.950 . S
C1345 C1344 1.327 . S
C1345 C1349 1.429 . S
C1346 C1329 1.574 . S
C1346 H1340 0.949 . S
C1346 C1350 1.368 . S
C1347 C1328 1.429 . S
C1347 C1341 1.429 . S
C1347 C1348 1.523 . S
C1348 C1329 1.368 . S
C1348 C1342 1.368 . S
C1348 C1347 1.523 . S
C1349 C1333 1.429 . S
C1349 C1345 1.429 . S
C1349 C1350 1.523 . S
C1350 C1334 1.368 . S
C1350 C1346 1.368 . S
C1350 C1349 1.523 . S
H1351 C1326 0.950 . S
H1352 C1328 0.950 . S
H1353 C1329 0.949 . S
H1354 C1331 0.950 . S
H1355 C1333 0.950 . S
C277 C63 0.741 1_455 S
C282 C21 0.741 . S
C307 C86 0.675 1_565 S
C312 C44 0.676 . S
C337 C67 0.741 . S
C342 C109 0.741 . S
C367 C90 0.676 . S
C372 C132 0.675 1_455 S
C397 C17 0.741 1_565 S
C402 C113 0.741 . S
C427 C40 0.675 . S
C432 C136 0.676 . S
C457 C247 0.675 1_545 S
C462 C159 0.676 . S
C487 C182 0.741 . S
C492 C270 0.741 . S
C517 C205 0.676 . S
C522 C155 0.675 1_655 S
C547 C228 0.741 . S
C552 C178 0.741 1_545 S
C577 C251 0.676 . S
C582 C201 0.675 . S
C607 C224 0.741 1_655 S
C612 C274 0.741 . S
C637 C88 1.492 . S
C642 C20 1.504 . S
C667 C42 1.492 . S
C672 C112 1.503 . S
C697 C66 1.504 . S
C702 C134 1.492 . S
C727 C157 1.492 . S
C732 C227 1.503 . S
C757 C181 1.504 . S
C762 C249 1.493 . S
C787 C203 1.492 . S
C792 C273 1.503 . S
C817 C180 1.523 . S
C822 C19 1.523 . S
C847 C43 1.540 . S
C852 C204 1.540 . S
C877 C226 1.523 . S
C882 C65 1.523 . S
C907 C89 1.540 . S
C912 C250 1.540 . S
C937 C111 1.523 . S
C942 C272 1.523 . S
C967 C158 1.540 . S
C972 C135 1.540 . S
C997 C62 1.047 . S
C1002 C18 1.037 . S
C1027 C41 1.082 . S
C1032 C85 1.094 . S
C1057 C64 1.037 . S
C1062 C108 1.047 . S
C1087 C87 1.082 . S
C1092 C131 1.094 . S
C1117 C16 1.047 . S
C1122 C110 1.037 . S
C1147 C39 1.094 . S
C1152 C133 1.082 . S
C1177 C246 1.094 . S
C1182 C156 1.082 . S
C1207 C179 1.037 . S
C1212 C269 1.047 . S
C1237 C202 1.082 . S
C1242 C154 1.094 . S
C1267 C177 1.047 . S
C1272 C225 1.037 . S
C1297 C248 1.082 . S
C1302 C200 1.094 . S
C1327 C271 1.037 . S
C1332 C223 1.047 . S
