# Generated by pormake.
# Topology uml, (4)-cn, num edge types: 1
# Building blocks:
#     Node 0, Type 0, BuildingBlock: QUQFOY_clean_sbu_1, # of connection points: 4
#     Node 1, Type 0, BuildingBlock: QUQFOY_clean_sbu_1, # of connection points: 4
#     Node 2, Type 0, BuildingBlock: QUQFOY_clean_sbu_1, # of connection points: 4
#     Node 3, Type 0, BuildingBlock: QUQFOY_clean_sbu_1, # of connection points: 4
#     Node 4, Type 0, BuildingBlock: QUQFOY_clean_sbu_1, # of connection points: 4
#     Node 5, Type 0, BuildingBlock: QUQFOY_clean_sbu_1, # of connection points: 4
#     Node 6, Type 0, BuildingBlock: QUQFOY_clean_sbu_1, # of connection points: 4
#     Node 7, Type 0, BuildingBlock: QUQFOY_clean_sbu_1, # of connection points: 4
#     Node 8, Type 0, BuildingBlock: QUQFOY_clean_sbu_1, # of connection points: 4
#     Node 9, Type 0, BuildingBlock: QUQFOY_clean_sbu_1, # of connection points: 4
#     Node 10, Type 0, BuildingBlock: QUQFOY_clean_sbu_1, # of connection points: 4
#     Node 11, Type 0, BuildingBlock: QUQFOY_clean_sbu_1, # of connection points: 4
#     Node 12, Type 0, BuildingBlock: QUQFOY_clean_sbu_1, # of connection points: 4
#     Node 13, Type 0, BuildingBlock: QUQFOY_clean_sbu_1, # of connection points: 4
#     Node 14, Type 0, BuildingBlock: QUQFOY_clean_sbu_1, # of connection points: 4
#     Node 15, Type 0, BuildingBlock: QUQFOY_clean_sbu_1, # of connection points: 4
#     Node 16, Type 0, BuildingBlock: QUQFOY_clean_sbu_1, # of connection points: 4
#     Node 17, Type 0, BuildingBlock: QUQFOY_clean_sbu_1, # of connection points: 4
#     Node 18, Type 0, BuildingBlock: QUQFOY_clean_sbu_1, # of connection points: 4
#     Node 19, Type 0, BuildingBlock: QUQFOY_clean_sbu_1, # of connection points: 4
#     Node 20, Type 0, BuildingBlock: QUQFOY_clean_sbu_1, # of connection points: 4
#     Node 21, Type 0, BuildingBlock: QUQFOY_clean_sbu_1, # of connection points: 4
#     Node 22, Type 0, BuildingBlock: QUQFOY_clean_sbu_1, # of connection points: 4
#     Node 23, Type 0, BuildingBlock: QUQFOY_clean_sbu_1, # of connection points: 4
#     Node 24, Type 0, BuildingBlock: QUQFOY_clean_sbu_1, # of connection points: 4
#     Node 25, Type 0, BuildingBlock: QUQFOY_clean_sbu_1, # of connection points: 4
#     Node 26, Type 0, BuildingBlock: QUQFOY_clean_sbu_1, # of connection points: 4
#     Node 27, Type 0, BuildingBlock: QUQFOY_clean_sbu_1, # of connection points: 4
#     Node 28, Type 0, BuildingBlock: QUQFOY_clean_sbu_1, # of connection points: 4
#     Node 29, Type 0, BuildingBlock: QUQFOY_clean_sbu_1, # of connection points: 4
#     Node 30, Type 0, BuildingBlock: QUQFOY_clean_sbu_1, # of connection points: 4
#     Node 31, Type 0, BuildingBlock: QUQFOY_clean_sbu_1, # of connection points: 4
#     Node 32, Type 0, BuildingBlock: QUQFOY_clean_sbu_1, # of connection points: 4
#     Node 33, Type 0, BuildingBlock: QUQFOY_clean_sbu_1, # of connection points: 4
#     Node 34, Type 0, BuildingBlock: QUQFOY_clean_sbu_1, # of connection points: 4
#     Node 35, Type 0, BuildingBlock: QUQFOY_clean_sbu_1, # of connection points: 4
#     Edge 36, Type (0, 0), BuildingBlock: EZIPEK_clean_linker_0, # of connection points: 2
#     Edge 37, Type (0, 0), BuildingBlock: EZIPEK_clean_linker_0, # of connection points: 2
#     Edge 38, Type (0, 0), BuildingBlock: EZIPEK_clean_linker_0, # of connection points: 2
#     Edge 39, Type (0, 0), BuildingBlock: EZIPEK_clean_linker_0, # of connection points: 2
#     Edge 40, Type (0, 0), BuildingBlock: EZIPEK_clean_linker_0, # of connection points: 2
#     Edge 41, Type (0, 0), BuildingBlock: EZIPEK_clean_linker_0, # of connection points: 2
#     Edge 42, Type (0, 0), BuildingBlock: EZIPEK_clean_linker_0, # of connection points: 2
#     Edge 43, Type (0, 0), BuildingBlock: EZIPEK_clean_linker_0, # of connection points: 2
#     Edge 44, Type (0, 0), BuildingBlock: EZIPEK_clean_linker_0, # of connection points: 2
#     Edge 45, Type (0, 0), BuildingBlock: EZIPEK_clean_linker_0, # of connection points: 2
#     Edge 46, Type (0, 0), BuildingBlock: EZIPEK_clean_linker_0, # of connection points: 2
#     Edge 47, Type (0, 0), BuildingBlock: EZIPEK_clean_linker_0, # of connection points: 2
#     Edge 48, Type (0, 0), BuildingBlock: EZIPEK_clean_linker_0, # of connection points: 2
#     Edge 49, Type (0, 0), BuildingBlock: EZIPEK_clean_linker_0, # of connection points: 2
#     Edge 50, Type (0, 0), BuildingBlock: EZIPEK_clean_linker_0, # of connection points: 2
#     Edge 51, Type (0, 0), BuildingBlock: EZIPEK_clean_linker_0, # of connection points: 2
#     Edge 52, Type (0, 0), BuildingBlock: EZIPEK_clean_linker_0, # of connection points: 2
#     Edge 53, Type (0, 0), BuildingBlock: EZIPEK_clean_linker_0, # of connection points: 2
#     Edge 54, Type (0, 0), BuildingBlock: EZIPEK_clean_linker_0, # of connection points: 2
#     Edge 55, Type (0, 0), BuildingBlock: EZIPEK_clean_linker_0, # of connection points: 2
#     Edge 56, Type (0, 0), BuildingBlock: EZIPEK_clean_linker_0, # of connection points: 2
#     Edge 57, Type (0, 0), BuildingBlock: EZIPEK_clean_linker_0, # of connection points: 2
#     Edge 58, Type (0, 0), BuildingBlock: EZIPEK_clean_linker_0, # of connection points: 2
#     Edge 59, Type (0, 0), BuildingBlock: EZIPEK_clean_linker_0, # of connection points: 2
#     Edge 60, Type (0, 0), BuildingBlock: EZIPEK_clean_linker_0, # of connection points: 2
#     Edge 61, Type (0, 0), BuildingBlock: EZIPEK_clean_linker_0, # of connection points: 2
#     Edge 62, Type (0, 0), BuildingBlock: EZIPEK_clean_linker_0, # of connection points: 2
#     Edge 63, Type (0, 0), BuildingBlock: EZIPEK_clean_linker_0, # of connection points: 2
#     Edge 64, Type (0, 0), BuildingBlock: EZIPEK_clean_linker_0, # of connection points: 2
#     Edge 65, Type (0, 0), BuildingBlock: EZIPEK_clean_linker_0, # of connection points: 2
#     Edge 66, Type (0, 0), BuildingBlock: EZIPEK_clean_linker_0, # of connection points: 2
#     Edge 67, Type (0, 0), BuildingBlock: EZIPEK_clean_linker_0, # of connection points: 2
#     Edge 68, Type (0, 0), BuildingBlock: EZIPEK_clean_linker_0, # of connection points: 2
#     Edge 69, Type (0, 0), BuildingBlock: EZIPEK_clean_linker_0, # of connection points: 2
#     Edge 70, Type (0, 0), BuildingBlock: EZIPEK_clean_linker_0, # of connection points: 2
#     Edge 71, Type (0, 0), BuildingBlock: EZIPEK_clean_linker_0, # of connection points: 2
#     Edge 72, Type (0, 0), BuildingBlock: EZIPEK_clean_linker_0, # of connection points: 2
#     Edge 73, Type (0, 0), BuildingBlock: EZIPEK_clean_linker_0, # of connection points: 2
#     Edge 74, Type (0, 0), BuildingBlock: EZIPEK_clean_linker_0, # of connection points: 2
#     Edge 75, Type (0, 0), BuildingBlock: EZIPEK_clean_linker_0, # of connection points: 2
#     Edge 76, Type (0, 0), BuildingBlock: EZIPEK_clean_linker_0, # of connection points: 2
#     Edge 77, Type (0, 0), BuildingBlock: EZIPEK_clean_linker_0, # of connection points: 2
#     Edge 78, Type (0, 0), BuildingBlock: EZIPEK_clean_linker_0, # of connection points: 2
#     Edge 79, Type (0, 0), BuildingBlock: EZIPEK_clean_linker_0, # of connection points: 2
#     Edge 80, Type (0, 0), BuildingBlock: EZIPEK_clean_linker_0, # of connection points: 2
#     Edge 81, Type (0, 0), BuildingBlock: EZIPEK_clean_linker_0, # of connection points: 2
#     Edge 82, Type (0, 0), BuildingBlock: EZIPEK_clean_linker_0, # of connection points: 2
#     Edge 83, Type (0, 0), BuildingBlock: EZIPEK_clean_linker_0, # of connection points: 2
#     Edge 84, Type (0, 0), BuildingBlock: EZIPEK_clean_linker_0, # of connection points: 2
#     Edge 85, Type (0, 0), BuildingBlock: EZIPEK_clean_linker_0, # of connection points: 2
#     Edge 86, Type (0, 0), BuildingBlock: EZIPEK_clean_linker_0, # of connection points: 2
#     Edge 87, Type (0, 0), BuildingBlock: EZIPEK_clean_linker_0, # of connection points: 2
#     Edge 88, Type (0, 0), BuildingBlock: EZIPEK_clean_linker_0, # of connection points: 2
#     Edge 89, Type (0, 0), BuildingBlock: EZIPEK_clean_linker_0, # of connection points: 2
#     Edge 90, Type (0, 0), BuildingBlock: EZIPEK_clean_linker_0, # of connection points: 2
#     Edge 91, Type (0, 0), BuildingBlock: EZIPEK_clean_linker_0, # of connection points: 2
#     Edge 92, Type (0, 0), BuildingBlock: EZIPEK_clean_linker_0, # of connection points: 2
#     Edge 93, Type (0, 0), BuildingBlock: EZIPEK_clean_linker_0, # of connection points: 2
#     Edge 94, Type (0, 0), BuildingBlock: EZIPEK_clean_linker_0, # of connection points: 2
#     Edge 95, Type (0, 0), BuildingBlock: EZIPEK_clean_linker_0, # of connection points: 2
#     Edge 96, Type (0, 0), BuildingBlock: EZIPEK_clean_linker_0, # of connection points: 2
#     Edge 97, Type (0, 0), BuildingBlock: EZIPEK_clean_linker_0, # of connection points: 2
#     Edge 98, Type (0, 0), BuildingBlock: EZIPEK_clean_linker_0, # of connection points: 2
#     Edge 99, Type (0, 0), BuildingBlock: EZIPEK_clean_linker_0, # of connection points: 2
#     Edge 100, Type (0, 0), BuildingBlock: EZIPEK_clean_linker_0, # of connection points: 2
#     Edge 101, Type (0, 0), BuildingBlock: EZIPEK_clean_linker_0, # of connection points: 2
#     Edge 102, Type (0, 0), BuildingBlock: EZIPEK_clean_linker_0, # of connection points: 2
#     Edge 103, Type (0, 0), BuildingBlock: EZIPEK_clean_linker_0, # of connection points: 2
#     Edge 104, Type (0, 0), BuildingBlock: EZIPEK_clean_linker_0, # of connection points: 2
#     Edge 105, Type (0, 0), BuildingBlock: EZIPEK_clean_linker_0, # of connection points: 2
#     Edge 106, Type (0, 0), BuildingBlock: EZIPEK_clean_linker_0, # of connection points: 2
#     Edge 107, Type (0, 0), BuildingBlock: EZIPEK_clean_linker_0, # of connection points: 2
# Relax obj value: 0.056
# Max RMSD: 0.287
# Mean RMSD: 0.183
data_MOF--net-uml--node1-QUQFOY_clean_sbu_1--edge1-EZIPEK_clean_linker_0
_symmetry_space_group_name_H-M    P1
_symmetry_Int_Tables_number       1
_symmetry_cell_setting            triclinic
loop_
_symmetry_equiv_pos_as_xyz
'x, y, z'
_cell_length_a     71.823374
_cell_length_b     72.09463
_cell_length_c     21.349604
_cell_angle_alpha  89.965125
_cell_angle_beta   90.010923
_cell_angle_gamma 120.01574
loop_
_atom_site_label
_atom_site_type_symbol
_atom_site_fract_x
_atom_site_fract_y
_atom_site_fract_z
_atom_type_partial_charge
O0 O 0.35498 0.08353 0.17498 0.0
Cd1 Cd 0.36381 0.06024 0.1869 0.0
Cd2 Cd 0.39754 0.09073 0.13731 0.0
O3 O 0.38803 0.11123 0.17365 0.0
O4 O 0.34494 0.04011 0.25447 0.0
O5 O 0.37968 0.06305 0.2675 0.0
C6 C 0.36146 0.04897 0.29117 0.0
C7 C 0.42807 0.08745 0.1419 0.0
C8 C 0.36777 0.10369 0.17661 0.0
C9 C 0.37147 0.05561 0.0548 0.0
O10 O 0.3809 0.07584 0.05813 0.0
O11 O 0.36571 0.04474 0.10541 0.0
O12 O 0.42819 0.10291 0.11079 0.0
O13 O 0.41194 0.07616 0.17854 0.0
O14 O 0.92712 0.18516 0.20003 0.0
Cd15 Cd 0.95313 0.21588 0.20871 0.0
Cd16 Cd 0.92469 0.22351 0.14345 0.0
O17 O 0.90198 0.19277 0.17204 0.0
O18 O 0.96975 0.21468 0.28297 0.0
O19 O 0.95303 0.23346 0.2822 0.0
C20 C 0.96361 0.22623 0.31291 0.0
C21 C 0.92214 0.25418 0.1281 0.0
C22 C 0.90761 0.17917 0.18749 0.0
C23 C 0.96287 0.22597 0.07594 0.0
O24 O 0.94392 0.22297 0.07488 0.0
O25 O 0.97197 0.22658 0.12777 0.0
O26 O 0.90997 0.23685 0.09741 0.0
O27 O 0.93338 0.25314 0.17389 0.0
O28 O 0.83957 0.64698 0.12173 0.0
Cd29 Cd 0.80768 0.63738 0.12955 0.0
Cd30 Cd 0.80558 0.60248 0.0986 0.0
O31 O 0.83493 0.61515 0.14542 0.0
O32 O 0.8069 0.65626 0.19858 0.0
O33 O 0.79462 0.62168 0.21053 0.0
C34 C 0.80004 0.63995 0.23588 0.0
C35 C 0.77127 0.57283 0.1043 0.0
C36 C 0.84726 0.63532 0.13846 0.0
C37 C 0.7979 0.62399 0.9974 0.0
O38 O 0.80908 0.61563 0.01271 0.0
O39 O 0.79231 0.63248 0.04095 0.0
O40 O 0.78719 0.57073 0.08468 0.0
O41 O 0.77547 0.59087 0.12896 0.0
O42 O 0.16438 0.32693 0.34383 0.0
Cd43 Cd 0.13567 0.32656 0.33116 0.0
Cd44 Cd 0.15979 0.36314 0.38701 0.0
O45 O 0.18628 0.36181 0.35427 0.0
O46 O 0.12183 0.30653 0.25828 0.0
O47 O 0.13309 0.34123 0.25401 0.0
C48 C 0.12576 0.32313 0.22527 0.0
C49 C 0.14633 0.38629 0.38444 0.0
C50 C 0.18331 0.3429 0.3479 0.0
C51 C 0.12718 0.32744 0.46346 0.0
O52 O 0.1461 0.34335 0.46162 0.0
O53 O 0.11704 0.31921 0.41259 0.0
O54 O 0.16259 0.39042 0.41987 0.0
O55 O 0.14071 0.37154 0.34229 0.0
O56 O 0.69003 0.74751 0.35332 0.0
Cd57 Cd 0.6879 0.71813 0.34788 0.0
Cd58 Cd 0.64944 0.70691 0.38761 0.0
O59 O 0.6552 0.73593 0.34812 0.0
O60 O 0.70646 0.72062 0.27458 0.0
O61 O 0.67097 0.6998 0.27565 0.0
C62 C 0.68877 0.70871 0.24442 0.0
C63 C 0.62268 0.67145 0.39081 0.0
C64 C 0.67468 0.75131 0.34745 0.0
C65 C 0.68184 0.70934 0.47942 0.0
O66 O 0.66578 0.71167 0.46844 0.0
O67 O 0.69269 0.70785 0.43438 0.0
O68 O 0.61914 0.68608 0.41318 0.0
O69 O 0.63961 0.67741 0.35666 0.0
O70 O 0.26725 0.83927 0.33301 0.0
Cd71 Cd 0.29446 0.86918 0.329 0.0
Cd72 Cd 0.30922 0.84615 0.38109 0.0
O73 O 0.28282 0.81962 0.34206 0.0
O74 O 0.2884 0.88382 0.25824 0.0
O75 O 0.31388 0.87508 0.25448 0.0
C76 C 0.30255 0.8819 0.22596 0.0
C77 C 0.3457 0.85879 0.38513 0.0
C78 C 0.26602 0.82107 0.33358 0.0
C79 C 0.30136 0.8748 0.46337 0.0
O80 O 0.30134 0.85727 0.45806 0.0
O81 O 0.30186 0.88535 0.41476 0.0
O82 O 0.33243 0.84096 0.41236 0.0
O83 O 0.33803 0.8674 0.34749 0.0
O84 O 0.68217 0.84734 0.83679 0.0
Cd85 Cd 0.68004 0.87477 0.82811 0.0
Cd86 Cd 0.64324 0.84832 0.87807 0.0
O87 O 0.64742 0.82383 0.84274 0.0
O88 O 0.69983 0.89172 0.75762 0.0
O89 O 0.6643 0.87601 0.75184 0.0
C90 C 0.68282 0.88631 0.72446 0.0
C91 C 0.61676 0.85719 0.88511 0.0
C92 C 0.66686 0.82803 0.83784 0.0
C93 C 0.67701 0.88016 0.96063 0.0
O94 O 0.66155 0.86116 0.95486 0.0
O95 O 0.686 0.89156 0.91229 0.0
O96 O 0.61385 0.83951 0.90963 0.0
O97 O 0.63268 0.86738 0.84675 0.0
O98 O 0.1552 0.74223 0.854 0.0
Cd99 Cd 0.13176 0.71055 0.83845 0.0
Cd100 Cd 0.16138 0.70623 0.89372 0.0
O101 O 0.18252 0.73639 0.85866 0.0
O102 O 0.11557 0.71118 0.76194 0.0
O103 O 0.13657 0.69688 0.76242 0.0
C104 C 0.12514 0.70293 0.73099 0.0
C105 C 0.16043 0.67342 0.89101 0.0
C106 C 0.17536 0.74933 0.85429 0.0
C107 C 0.12392 0.6968 0.96933 0.0
O108 O 0.14427 0.70619 0.96934 0.0
O109 O 0.11382 0.69324 0.91747 0.0
O110 O 0.17469 0.68922 0.92365 0.0
O111 O 0.14868 0.67745 0.85367 0.0
O112 O 0.27031 0.32911 0.86193 0.0
Cd113 Cd 0.30062 0.33328 0.8576 0.0
Cd114 Cd 0.31032 0.37131 0.88746 0.0
O115 O 0.28111 0.3632 0.84366 0.0
O116 O 0.29975 0.31203 0.79516 0.0
O117 O 0.31469 0.34683 0.77592 0.0
C118 C 0.30798 0.32766 0.7553 0.0
C119 C 0.34626 0.39631 0.88361 0.0
C120 C 0.26603 0.34371 0.84824 0.0
C121 C 0.31015 0.34403 0.98891 0.0
O122 O 0.30579 0.35843 0.97373 0.0
O123 O 0.31297 0.33319 0.94646 0.0
O124 O 0.33255 0.40199 0.90105 0.0
O125 O 0.33911 0.3778 0.85733 0.0
O126 O 0.92588 0.66124 0.68394 0.0
Cd127 Cd 0.95197 0.65618 0.69309 0.0
Cd128 Cd 0.92312 0.62082 0.63061 0.0
O129 O 0.90011 0.62886 0.6558 0.0
O130 O 0.96937 0.67316 0.76784 0.0
O131 O 0.95186 0.63773 0.76461 0.0
C132 C 0.96339 0.65517 0.79591 0.0
C133 C 0.92444 0.58948 0.6264 0.0
C134 C 0.90624 0.64823 0.67061 0.0
C135 C 0.96156 0.65484 0.56069 0.0
O136 O 0.94228 0.63957 0.56043 0.0
O137 O 0.97087 0.66343 0.61213 0.0
O138 O 0.91153 0.59211 0.59022 0.0
O139 O 0.93357 0.60288 0.67198 0.0
O140 O 0.36647 0.18405 0.66639 0.0
Cd141 Cd 0.37512 0.21593 0.66594 0.0
Cd142 Cd 0.41117 0.21936 0.62313 0.0
O143 O 0.39923 0.18866 0.65971 0.0
O144 O 0.35715 0.21887 0.73308 0.0
O145 O 0.3923 0.23189 0.74159 0.0
C146 C 0.3743 0.22768 0.76726 0.0
C147 C 0.44328 0.25119 0.62379 0.0
C148 C 0.379 0.17636 0.66688 0.0
C149 C 0.38356 0.22524 0.53141 0.0
O150 O 0.39728 0.21944 0.5412 0.0
O151 O 0.37379 0.22798 0.57735 0.0
O152 O 0.4422 0.2343 0.5991 0.0
O153 O 0.42738 0.2489 0.65796 0.0
O154 O 0.83119 0.08754 0.66113 0.0
Cd155 Cd 0.79881 0.0649 0.66821 0.0
Cd156 Cd 0.79729 0.09642 0.62202 0.0
O157 O 0.82643 0.11545 0.66624 0.0
O158 O 0.79674 0.04348 0.73227 0.0
O159 O 0.78564 0.0667 0.74976 0.0
C160 C 0.78961 0.05224 0.77105 0.0
C161 C 0.76307 0.09232 0.62742 0.0
C162 C 0.83883 0.10756 0.6683 0.0
C163 C 0.78923 0.06357 0.53452 0.0
O164 O 0.8009 0.08362 0.54118 0.0
O165 O 0.78238 0.05178 0.58337 0.0
O166 O 0.77861 0.10883 0.60005 0.0
O167 O 0.76756 0.07959 0.65814 0.0
O168 O 0.01787 0.41632 0.5033 0.0
Cd169 Cd 0.02558 0.39226 0.51418 0.0
Cd170 Cd 0.05967 0.42247 0.45974 0.0
O171 O 0.05105 0.44365 0.49611 0.0
O172 O 1.00775 0.37434 0.58694 0.0
O173 O 0.04318 0.39476 0.59037 0.0
C174 C 0.02531 0.38265 0.6193 0.0
C175 C 0.08993 0.41873 0.4616 0.0
C176 C 0.03092 0.43642 0.50271 0.0
C177 C 0.03108 0.38606 0.38182 0.0
O178 O 0.04167 0.40633 0.38374 0.0
O179 O 0.02503 0.3755 0.43296 0.0
O180 O 0.08967 0.43352 0.42789 0.0
O181 O 0.0747 0.40885 0.50212 0.0
O182 O 0.60066 0.51729 0.5364 0.0
Cd183 Cd 0.62564 0.54859 0.54396 0.0
Cd184 Cd 0.59576 0.55449 0.48554 0.0
O185 O 0.57416 0.52369 0.51622 0.0
O186 O 0.643 0.54906 0.61827 0.0
O187 O 0.62438 0.56601 0.6158 0.0
C188 C 0.63578 0.55989 0.64727 0.0
C189 C 0.59277 0.5849 0.47248 0.0
C190 C 0.58077 0.51059 0.52804 0.0
C191 C 0.63337 0.55855 0.4116 0.0
O192 O 0.61398 0.55425 0.41348 0.0
O193 O 0.64361 0.56017 0.46194 0.0
O194 O 0.5798 0.56731 0.44404 0.0
O195 O 0.60501 0.5842 0.51576 0.0
O196 O 0.49344 1.00003 0.51468 0.0
Cd197 Cd 0.46067 0.98823 0.52696 0.0
Cd198 Cd 0.46051 0.95647 0.46205 0.0
O199 O 0.4912 0.96874 0.49795 0.0
O200 O 0.45866 1.00476 0.59995 0.0
O201 O 0.44784 0.97014 0.60461 0.0
C202 C 0.45144 0.98748 0.63287 0.0
C203 C 0.43208 0.92166 0.45363 0.0
C204 C 0.50239 0.98872 0.5092 0.0
C205 C 0.44681 0.98322 0.39505 0.0
O206 O 0.45732 0.97344 0.39069 0.0
O207 O 0.44305 0.98846 0.44866 0.0
O208 O 0.45 0.9274 0.42509 0.0
O209 O 0.4317 0.93467 0.49474 0.0
O210 O 0.84968 0.6976 0.63071 0.0
Cd211 Cd 0.82206 0.66617 0.61206 0.0
Cd212 Cd 0.82981 0.70174 0.70398 0.0
O213 O 0.84998 0.69884 0.63341 0.0
O214 O 0.82538 0.65224 0.53435 0.0
O215 O 0.80266 0.6644 0.54064 0.0
C216 C 0.81141 0.65586 0.50702 0.0
C217 C 0.8178 0.72513 0.72585 0.0
C218 C 0.86851 0.70178 0.64672 0.0
C219 C 0.80775 0.65558 0.74915 0.0
O220 O 0.81593 0.67548 0.7602 0.0
O221 O 0.80759 0.64835 0.69404 0.0
O222 O 0.83552 0.72804 0.7508 0.0
O223 O 0.80875 0.71072 0.68253 0.0
O224 O 0.35995 0.0798 0.68159 0.0
Cd225 Cd 0.35502 0.04926 0.66901 0.0
Cd226 Cd 0.32007 0.04122 0.72832 0.0
O227 O 0.3257 0.07022 0.69173 0.0
O228 O 0.37309 0.05112 0.59459 0.0
O229 O 0.33746 0.03404 0.59289 0.0
C230 C 0.35543 0.04124 0.56292 0.0
C231 C 0.29126 0.00678 0.73248 0.0
C232 C 0.34527 0.08473 0.68416 0.0
C233 C 0.35311 0.03857 0.80135 0.0
O234 O 0.33919 0.04446 0.80229 0.0
O235 O 0.36001 0.03564 0.74933 0.0
O236 O 0.29019 0.02222 0.75983 0.0
O237 O 0.307 0.01168 0.69401 0.0
O238 O 0.93451 0.18253 0.69107 0.0
Cd239 Cd 0.96416 0.2096 0.68625 0.0
Cd240 Cd 0.97538 0.18179 0.72463 0.0
O241 O 0.94584 0.15911 0.68645 0.0
O242 O 0.96096 0.22896 0.62442 0.0
O243 O 0.9788 0.21202 0.60358 0.0
C244 C 0.97048 0.22323 0.58387 0.0
C245 C 0.01141 0.19287 0.70615 0.0
C246 C 0.93062 0.16341 0.6849 0.0
C247 C 0.97505 0.21168 0.81946 0.0
O248 O 0.9729 0.19341 0.80843 0.0
O249 O 0.97554 0.22357 0.77436 0.0
O250 O 0.99923 0.17523 0.73608 0.0
O251 O 1.00202 0.20232 0.6808 0.0
O252 O 0.35635 0.18402 0.15459 0.0
Cd253 Cd 0.35911 0.21377 0.14325 0.0
Cd254 Cd 0.32148 0.19174 0.20231 0.0
O255 O 0.32141 0.16424 0.17297 0.0
O256 O 0.38058 0.22745 0.07391 0.0
O257 O 0.34626 0.21794 0.06394 0.0
C258 C 0.36492 0.22491 0.03844 0.0
C259 C 0.29646 0.20281 0.20927 0.0
C260 C 0.33967 0.16581 0.16278 0.0
C261 C 0.36048 0.22338 0.27472 0.0
O262 O 0.34256 0.20611 0.27346 0.0
O263 O 0.36997 0.23244 0.22393 0.0
O264 O 0.29444 0.18705 0.24311 0.0
O265 O 0.31034 0.20957 0.16401 0.0
O266 O 0.82946 0.0838 0.16164 0.0
Cd267 Cd 0.80146 0.05478 0.14858 0.0
Cd268 Cd 0.82624 0.04378 0.21143 0.0
O269 O 0.85238 0.07263 0.18346 0.0
O270 O 0.78774 0.0597 0.07297 0.0
O271 O 0.79995 0.03695 0.0739 0.0
C272 C 0.79218 0.0469 0.04261 0.0
C273 C 0.81645 0.00806 0.21203 0.0
C274 C 0.84857 0.08778 0.17166 0.0
C275 C 0.79055 0.04493 0.27986 0.0
O276 O 0.80938 0.04766 0.28163 0.0
O277 O 0.78154 0.0438 0.22742 0.0
O278 O 0.83096 0.02128 0.25042 0.0
O279 O 0.81104 0.01596 0.16565 0.0
O280 O 0.9431 0.66183 0.17477 0.0
Cd281 Cd 0.9731 0.66575 0.16947 0.0
Cd282 Cd 0.98309 0.70391 0.19832 0.0
O283 O 0.95412 0.69578 0.15335 0.0
O284 O 0.97129 0.64468 0.10465 0.0
O285 O 0.98614 0.67956 0.08703 0.0
C286 C 0.97863 0.66041 0.06507 0.0
C287 C 0.0189 0.72912 0.19352 0.0
C288 C 0.93899 0.67636 0.15913 0.0
C289 C 0.98158 0.67595 0.30112 0.0
O290 O 0.97815 0.69087 0.28457 0.0
O291 O 0.98451 0.6649 0.25955 0.0
O292 O 1.00514 0.73462 0.2119 0.0
O293 O 0.01183 0.71057 0.16756 0.0
O294 O 0.58466 0.98257 0.04724 0.0
Cd295 Cd 0.61224 0.98047 0.05296 0.0
Cd296 Cd 0.58447 0.94325 0.99342 0.0
O297 O 0.56075 0.94853 0.02962 0.0
O298 O 0.62942 1.00184 0.11964 0.0
O299 O 0.61565 0.96693 0.13219 0.0
C300 C 0.6253 0.98595 0.15612 0.0
C301 C 0.58482 0.9116 0.97595 0.0
C302 C 0.56526 0.96767 0.04146 0.0
C303 C 0.61904 0.97969 0.91884 0.0
O304 O 0.60046 0.96326 0.92132 0.0
O305 O 0.6294 0.98847 0.9689 0.0
O306 O 0.57048 0.91484 0.94998 0.0
O307 O 0.59686 0.92487 0.01882 0.0
O308 O 0.03281 0.5186 0.01967 0.0
Cd309 Cd 0.03966 0.55008 0.02777 0.0
Cd310 Cd 0.07492 0.55542 0.97143 0.0
O311 O 0.06605 0.52507 1.00535 0.0
O312 O 0.02181 0.55054 0.09951 0.0
O313 O 0.05737 0.56631 0.10265 0.0
C314 C 0.03942 0.56072 0.13114 0.0
C315 C 0.10798 0.58653 0.96171 0.0
C316 C 0.04616 0.51194 0.01518 0.0
C317 C 0.0428 0.56033 0.89539 0.0
O318 O 0.05671 0.55445 0.89742 0.0
O319 O 0.03486 0.56292 0.94574 0.0
O320 O 0.1041 0.5693 0.93236 0.0
O321 O 0.09437 0.5852 1.00365 0.0
O322 O 0.50288 0.42222 0.0301 0.0
Cd323 Cd 0.47208 0.39627 0.03611 0.0
Cd324 Cd 0.46472 0.42545 0.97902 0.0
O325 O 0.49518 0.44782 1.01108 0.0
O326 O 0.47309 0.37967 0.11019 0.0
O327 O 0.4535 0.39559 0.10768 0.0
C328 C 0.46112 0.38554 0.13931 0.0
C329 C 0.43347 0.42706 0.9651 0.0
C330 C 0.50887 0.44193 0.02292 0.0
C331 C 0.46282 0.38905 0.90362 0.0
O332 O 0.46601 0.40798 0.90671 0.0
O333 O 0.46163 0.37871 0.9533 0.0
O334 O 0.45097 0.44036 0.93656 0.0
O335 O 0.43461 0.41522 1.00875 0.0
O336 O 0.69041 0.75311 0.86284 0.0
Cd337 Cd 0.69699 0.72833 0.87102 0.0
Cd338 Cd 0.73319 0.75901 0.82402 0.0
O339 O 0.72364 0.78034 0.85344 0.0
O340 O 0.6775 0.70922 0.93835 0.0
O341 O 0.71296 0.72816 0.94828 0.0
C342 C 0.69435 0.71583 0.97318 0.0
C343 C 0.76452 0.75773 0.82508 0.0
C344 C 0.7035 0.77316 0.85967 0.0
C345 C 0.70243 0.72311 0.74034 0.0
O346 O 0.71691 0.74253 0.74683 0.0
O347 O 0.69297 0.71169 0.78806 0.0
O348 O 0.76307 0.77181 0.79114 0.0
O349 O 0.74988 0.74749 0.86709 0.0
O350 O 0.25296 0.84632 0.85091 0.0
Cd351 Cd 0.27946 0.87677 0.85397 0.0
Cd352 Cd 0.25022 0.88469 0.80396 0.0
O353 O 0.22783 0.85533 0.84162 0.0
O354 O 0.2988 0.87463 0.91774 0.0
O355 O 0.28237 0.89326 0.93359 0.0
C356 C 0.29369 0.88533 0.9556 0.0
C357 C 0.25226 0.91771 0.79986 0.0
C358 C 0.23325 0.84116 0.85009 0.0
C359 C 0.28361 0.88534 0.71947 0.0
O360 O 0.26456 0.8818 0.72567 0.0
O361 O 0.295 0.88732 0.76756 0.0
O362 O 0.23674 0.90131 0.77231 0.0
O363 O 0.26457 0.91458 0.83747 0.0
O364 O 0.16585 0.31858 0.84221 0.0
Cd365 Cd 0.13354 0.30952 0.85103 0.0
Cd366 Cd 0.13171 0.27693 0.79589 0.0
O367 O 0.16167 0.28618 0.8329 0.0
O368 O 0.13277 0.32921 0.91621 0.0
O369 O 0.11964 0.29451 0.93217 0.0
C370 C 0.12458 0.31311 0.95423 0.0
C371 C 0.09792 0.24665 0.79555 0.0
C372 C 0.17382 0.3063 0.8406 0.0
C373 C 0.12323 0.30442 0.71745 0.0
O374 O 0.13375 0.29466 0.71951 0.0
O375 O 0.11749 0.30933 0.76845 0.0
O376 O 0.11356 0.2471 0.76421 0.0
O377 O 0.1025 0.26183 0.83554 0.0
O378 O 0.48596 0.98645 0.03039 0.0
Cd379 Cd 0.46122 0.99282 0.01377 0.0
Cd380 Cd 0.49002 0.02747 0.07537 0.0
O381 O 0.51241 0.0198 0.04252 0.0
O382 O 0.44515 0.97451 0.93888 0.0
O383 O 0.46414 0.00984 0.93549 0.0
C384 C 0.45329 0.99191 0.90607 0.0
C385 C 0.48279 0.05521 0.06003 0.0
C386 C 0.50594 0.99994 0.03511 0.0
C387 C 0.45191 0.99755 0.14551 0.0
O388 O 0.47218 0.00935 0.14827 0.0
O389 O 0.44259 0.99102 0.09251 0.0
O390 O 0.49796 0.05765 0.09783 0.0
O391 O 0.47414 0.03809 0.02607 0.0
O392 O 0.02335 0.41388 0.01117 0.0
Cd393 Cd 0.01665 0.38279 0.99695 0.0
Cd394 Cd 0.98225 0.37639 0.05289 0.0
O395 O 0.98949 0.40599 0.01589 0.0
O396 O 0.03595 0.38463 0.92638 0.0
O397 O 1.00051 0.36894 0.91738 0.0
C398 C 0.01903 0.37564 0.89129 0.0
C399 C 0.95402 0.3416 0.05376 0.0
C400 C 1.00943 0.41983 0.01137 0.0
C401 C 0.01281 0.37117 0.12862 0.0
O402 O 1.00029 0.37881 0.12885 0.0
O403 O 0.0193 0.36752 0.07692 0.0
O404 O 0.95182 0.3567 0.07901 0.0
O405 O 0.97052 0.34713 0.0178 0.0
O406 O 0.60509 0.51971 0.02751 0.0
Cd407 Cd 0.63522 0.54623 0.02128 0.0
Cd408 Cd 0.64584 0.51821 0.05564 0.0
O409 O 0.61581 0.49591 0.01906 0.0
O410 O 0.63326 0.56573 0.9579 0.0
O411 O 0.64985 0.5473 0.94003 0.0
C412 C 0.64229 0.55901 0.91866 0.0
C413 C 0.68065 0.52464 0.04962 0.0
C414 C 0.60075 0.50047 0.02038 0.0
C415 C 0.6461 0.54797 0.15244 0.0
O416 O 0.64332 0.52958 0.13979 0.0
O417 O 0.64717 0.56042 0.10839 0.0
O418 O 0.66579 0.50719 0.07513 0.0
O419 O 0.67497 0.53642 0.01846 0.0
O420 O 0.01964 0.51645 0.50888 0.0
Cd421 Cd 0.02246 0.54619 0.50459 0.0
Cd422 Cd 0.98278 0.52303 0.54674 0.0
O423 O 0.98411 0.49683 0.51082 0.0
O424 O 0.04545 0.56233 0.44064 0.0
O425 O 0.01098 0.55122 0.42421 0.0
C426 C 0.03026 0.55921 0.40216 0.0
C427 C 0.95903 0.53575 0.54393 0.0
C428 C 1.00256 0.49832 0.50645 0.0
C429 C 0.01766 0.55075 0.63745 0.0
O430 O 0.99962 0.53412 0.62752 0.0
O431 O 0.02957 0.56144 0.59156 0.0
O432 O 0.95408 0.51828 0.57387 0.0
O433 O 0.97549 0.54358 0.50672 0.0
O434 O 0.5039 0.41518 0.51918 0.0
Cd435 Cd 0.47648 0.38563 0.51272 0.0
Cd436 Cd 0.5039 0.37479 0.55207 0.0
O437 O 0.52735 0.40388 0.51465 0.0
O438 O 0.45802 0.3893 0.44911 0.0
O439 O 0.47372 0.36999 0.43195 0.0
C440 C 0.46314 0.37879 0.41043 0.0
C441 C 0.4958 0.33965 0.55144 0.0
C442 C 0.52316 0.41913 0.5142 0.0
C443 C 0.47379 0.3759 0.64484 0.0
O444 O 0.49245 0.37886 0.63418 0.0
O445 O 0.46153 0.37432 0.59945 0.0
O446 O 0.51367 0.35425 0.57573 0.0
O447 O 0.48469 0.34561 0.51782 0.0
O448 O 0.59549 1.00476 0.53159 0.0
Cd449 Cd 0.62392 1.00427 0.52882 0.0
Cd450 Cd 0.63674 0.04221 0.57531 0.0
O451 O 0.6098 0.03987 0.5306 0.0
O452 O 0.6193 0.9826 0.46202 0.0
O453 O 0.64195 0.01738 0.45152 0.0
C454 C 0.63203 0.99851 0.4267 0.0
C455 C 0.67372 0.0642 0.57066 0.0
C456 C 0.59341 0.02116 0.526 0.0
C457 C 0.63201 0.00919 0.66417 0.0
O458 O 0.6298 0.02547 0.65656 0.0
O459 O 0.63354 0.99917 0.61687 0.0
O460 O 0.66178 0.07165 0.5909 0.0
O461 O 0.66415 0.04554 0.54424 0.0
O462 O 0.26429 0.3273 0.37428 0.0
Cd463 Cd 0.29062 0.32298 0.38141 0.0
Cd464 Cd 0.26234 0.28713 0.32171 0.0
O465 O 0.2391 0.29399 0.35274 0.0
O466 O 0.30723 0.33974 0.45673 0.0
O467 O 0.29046 0.30428 0.45166 0.0
C468 C 0.30103 0.32162 0.48426 0.0
C469 C 0.26354 0.25581 0.30971 0.0
C470 C 0.24464 0.31338 0.36534 0.0
C471 C 0.29884 0.32265 0.24923 0.0
O472 O 0.27986 0.30685 0.25089 0.0
O473 O 0.30896 0.33116 0.29973 0.0
O474 O 0.25 0.25885 0.27795 0.0
O475 O 0.2738 0.26888 0.3551 0.0
O476 O 0.69137 0.84771 0.34804 0.0
Cd477 Cd 0.69541 0.87812 0.35182 0.0
Cd478 Cd 0.73318 0.88665 0.30515 0.0
O479 O 0.72566 0.85678 0.3408 0.0
O480 O 0.67487 0.87695 0.4172 0.0
O481 O 0.71027 0.89477 0.42958 0.0
C482 C 0.69131 0.8875 0.45335 0.0
C483 C 0.76372 0.92036 0.30077 0.0
C484 C 0.70588 0.84253 0.34753 0.0
C485 C 0.70037 0.88696 0.21894 0.0
O486 O 0.71608 0.88384 0.22683 0.0
O487 O 0.69045 0.88869 0.26599 0.0
O488 O 0.76327 0.90431 0.27245 0.0
O489 O 0.7483 0.91649 0.33945 0.0
O490 O 0.1673 0.73974 0.33958 0.0
Cd491 Cd 0.13484 0.71729 0.35191 0.0
Cd492 Cd 0.13305 0.74828 0.28191 0.0
O493 O 0.16384 0.7677 0.31525 0.0
O494 O 0.13427 0.69897 0.42403 0.0
O495 O 0.12103 0.72079 0.43046 0.0
C496 C 0.12581 0.7077 0.45773 0.0
C497 C 0.10493 0.75498 0.26764 0.0
C498 C 0.17557 0.75976 0.33 0.0
C499 C 0.12064 0.70717 0.21955 0.0
O500 O 0.13007 0.72735 0.21346 0.0
O501 O 0.11779 0.69871 0.27379 0.0
O502 O 0.12295 0.76633 0.23888 0.0
O503 O 0.10423 0.74239 0.31198 0.0
C504 C 0.34871 0.05439 0.46118 0.0
C505 C 0.35595 0.04182 0.49297 0.0
C506 C 0.3677 0.0344 0.39221 0.0
C507 C 0.35892 0.04559 0.3603 0.0
N508 N 0.33871 0.06412 0.36345 0.0
N509 N 0.3701 0.01784 0.48911 0.0
C510 C 0.34855 0.05476 0.39454 0.0
C511 C 0.36489 0.03129 0.45853 0.0
N512 N 0.34342 0.06727 0.4947 0.0
N513 N 0.37891 0.02696 0.35913 0.0
H514 H 0.3682 0.0153 0.53738 0.0
H515 H 0.37474 0.00801 0.46651 0.0
H516 H 0.38041 0.02813 0.31047 0.0
H517 H 0.38775 0.02075 0.37986 0.0
H518 H 0.3406 0.07877 0.47441 0.0
H519 H 0.34388 0.06806 0.54343 0.0
H520 H 0.32846 0.06846 0.38518 0.0
H521 H 0.33955 0.06637 0.31508 0.0
C522 C 0.98783 0.23748 0.47798 0.0
C523 C 0.96894 0.22633 0.51514 0.0
C524 C 0.94667 0.21622 0.41961 0.0
C525 C 0.96549 0.22792 0.38264 0.0
N526 N 1.00359 0.25206 0.37588 0.0
N527 N 0.93007 0.2067 0.52206 0.0
C528 C 0.98598 0.23921 0.41171 0.0
C529 C 0.9483 0.21643 0.48617 0.0
N530 N 1.00754 0.24623 0.50612 0.0
N531 N 0.9273 0.20355 0.39088 0.0
H532 H 0.93 0.20379 0.56983 0.0
H533 H 0.91482 0.20225 0.50503 0.0
H534 H 0.92514 0.2031 0.34256 0.0
H535 H 0.91355 0.1922 0.41414 0.0
H536 H 0.02197 0.25237 0.48175 0.0
H537 H 1.00947 0.24654 0.55461 0.0
H538 H 0.01879 0.26234 0.39402 0.0
H539 H 1.00264 0.25363 0.32757 0.0
C540 C 0.80277 0.66444 0.39771 0.0
C541 C 0.80606 0.65066 0.43855 0.0
C542 C 0.80662 0.63056 0.34629 0.0
C543 C 0.8006 0.64257 0.30624 0.0
N544 N 0.78674 0.66693 0.30055 0.0
N545 N 0.80355 0.61614 0.45038 0.0
C546 C 0.79671 0.65825 0.33404 0.0
C547 C 0.80556 0.6323 0.41245 0.0
N548 N 0.80668 0.68406 0.41768 0.0
N549 N 0.81489 0.61861 0.32242 0.0
H550 H 0.80123 0.61601 0.49863 0.0
H551 H 0.80141 0.60171 0.43276 0.0
H552 H 0.81833 0.61831 0.27526 0.0
H553 H 0.82111 0.61124 0.35088 0.0
H554 H 0.8063 0.69526 0.38757 0.0
H555 H 0.81282 0.69026 0.46175 0.0
H556 H 0.78201 0.67712 0.32057 0.0
H557 H 0.78084 0.66191 0.25539 0.0
C558 C 0.10464 0.30649 0.0572 0.0
C559 C 0.12424 0.31655 0.02309 0.0
C560 C 0.14408 0.3334 0.12006 0.0
C561 C 0.12474 0.3219 0.15528 0.0
N562 N 0.08674 0.2965 0.15853 0.0
N563 N 0.16307 0.33644 0.02352 0.0
C564 C 0.10505 0.30811 0.1241 0.0
C565 C 0.14405 0.32934 0.05482 0.0
N566 N 0.08561 0.29602 0.02533 0.0
N567 N 0.16272 0.34808 0.14881 0.0
H568 H 0.16404 0.33377 0.97599 0.0
H569 H 0.17798 0.34328 0.04558 0.0
H570 H 0.16446 0.35034 0.19703 0.0
H571 H 0.17634 0.35912 0.12432 0.0
H572 H 0.07061 0.2901 0.04622 0.0
H573 H 0.08485 0.29464 0.97662 0.0
H574 H 0.07242 0.28428 0.14009 0.0
H575 H 0.08611 0.29844 0.20675 0.0
C576 C 0.67781 0.71738 0.14158 0.0
C577 C 0.68862 0.70832 0.17454 0.0
C578 C 0.7012 0.70171 0.07399 0.0
C579 C 0.69205 0.71254 0.04217 0.0
N580 N 0.67552 0.73458 0.04702 0.0
N581 N 0.71166 0.69294 0.17316 0.0
C582 C 0.68122 0.72122 0.07622 0.0
C583 C 0.70068 0.70084 0.14096 0.0
N584 N 0.66443 0.7227 0.1724 0.0
N585 N 0.70974 0.6917 0.04 0.0
H586 H 0.71037 0.69061 0.22154 0.0
H587 H 0.72277 0.68956 0.15258 0.0
H588 H 0.7103 0.69207 0.99115 0.0
H589 H 0.7148 0.68173 0.05949 0.0
H590 H 0.65375 0.72616 0.14933 0.0
H591 H 0.66285 0.72255 0.22081 0.0
H592 H 0.67028 0.74372 0.07088 0.0
H593 H 0.67802 0.73836 0.99952 0.0
C594 C 0.30924 0.90359 0.12631 0.0
C595 C 0.30281 0.88365 0.15617 0.0
C596 C 0.28949 0.86514 0.05549 0.0
C597 C 0.29748 0.88517 0.02445 0.0
N598 N 0.31769 0.92369 0.02867 0.0
N599 N 0.29024 0.84574 0.14679 0.0
C600 C 0.30809 0.9045 0.05947 0.0
C601 C 0.29424 0.8646 0.11986 0.0
N602 N 0.3163 0.92162 0.16191 0.0
N603 N 0.27588 0.8465 0.0249 0.0
H604 H 0.29197 0.84393 0.19441 0.0
H605 H 0.28674 0.83213 0.12085 0.0
H606 H 0.27099 0.84591 0.97866 0.0
H607 H 0.26745 0.83171 0.04729 0.0
H608 H 0.3189 0.93619 0.14423 0.0
H609 H 0.31847 0.9217 0.21025 0.0
H610 H 0.32747 0.93833 0.05052 0.0
H611 H 0.31729 0.92484 0.98003 0.0
C612 C 0.67889 0.86793 0.62215 0.0
C613 C 0.68424 0.8871 0.65482 0.0
C614 C 0.69519 0.90715 0.55541 0.0
C615 C 0.68836 0.88765 0.52246 0.0
N616 N 0.67148 0.84898 0.52374 0.0
N617 N 0.69558 0.92461 0.65366 0.0
C618 C 0.6794 0.86791 0.55563 0.0
C619 C 0.69193 0.90667 0.62173 0.0
N620 N 0.67461 0.8499 0.65494 0.0
N621 N 0.70489 0.92609 0.52327 0.0
H622 H 0.69351 0.92465 0.70203 0.0
H623 H 0.69927 0.93901 0.63225 0.0
H624 H 0.70651 0.92686 0.47464 0.0
H625 H 0.71229 0.94107 0.54464 0.0
H626 H 0.67357 0.83634 0.6343 0.0
H627 H 0.67402 0.84907 0.70368 0.0
H628 H 0.66192 0.83405 0.54442 0.0
H629 H 0.6733 0.84794 0.47573 0.0
C630 C 0.14482 0.71694 0.56134 0.0
C631 C 0.12524 0.70566 0.52748 0.0
C632 C 0.10534 0.69226 0.6268 0.0
C633 C 0.12508 0.70286 0.66066 0.0
N634 N 0.16399 0.72379 0.65958 0.0
N635 N 0.08721 0.68093 0.52573 0.0
C636 C 0.14491 0.71461 0.62767 0.0
C637 C 0.10556 0.69292 0.55967 0.0
N638 N 0.16328 0.73088 0.53023 0.0
N639 N 0.08639 0.68151 0.65898 0.0
H640 H 0.08691 0.68135 0.47689 0.0
H641 H 0.07258 0.66963 0.54504 0.0
H642 H 0.08568 0.67914 0.7073 0.0
H643 H 0.07131 0.67553 0.63857 0.0
H644 H 0.17749 0.74186 0.55235 0.0
H645 H 0.16413 0.73276 0.48172 0.0
H646 H 0.17888 0.72958 0.63801 0.0
H647 H 0.16522 0.72485 0.70814 0.0
C648 C 0.28424 0.31192 0.59116 0.0
C649 C 0.3031 0.32077 0.5536 0.0
C650 C 0.3255 0.33313 0.64876 0.0
C651 C 0.30662 0.32358 0.68637 0.0
N652 N 0.26789 0.30123 0.69351 0.0
N653 N 0.34149 0.3368 0.54562 0.0
C654 C 0.28601 0.31194 0.65759 0.0
C655 C 0.3237 0.33054 0.5822 0.0
N656 N 0.26463 0.30499 0.56364 0.0
N657 N 0.34513 0.34489 0.67676 0.0
H658 H 0.3406 0.33497 0.49704 0.0
H659 H 0.35686 0.34221 0.56331 0.0
H660 H 0.34714 0.34587 0.72527 0.0
H661 H 0.35932 0.35444 0.6523 0.0
H662 H 0.25072 0.3013 0.58851 0.0
H663 H 0.26235 0.3046 0.51538 0.0
H664 H 0.253 0.28993 0.67542 0.0
H665 H 0.26764 0.30257 0.74197 0.0
C666 C 0.98899 0.66434 0.88749 0.0
C667 C 0.9676 0.65462 0.86435 0.0
C668 C 0.95378 0.64484 0.97204 0.0
C669 C 0.97518 0.65653 0.99593 0.0
N670 N 0.01321 0.67836 0.97681 0.0
N671 N 0.92964 0.63875 0.88521 0.0
C672 C 0.99281 0.66656 0.95364 0.0
C673 C 0.95 0.64544 0.90671 0.0
N674 N 1.00563 0.67083 0.84609 0.0
N675 N 0.93682 0.63347 0.01165 0.0
H676 H 0.92601 0.63929 0.83821 0.0
H677 H 0.91648 0.63446 0.91436 0.0
H678 H 0.93794 0.63431 0.06022 0.0
H679 H 0.92153 0.62217 0.99613 0.0
H680 H 0.02145 0.67612 0.85938 0.0
H681 H 1.00334 0.66928 0.7977 0.0
H682 H 0.02653 0.68826 0.94942 0.0
H683 H 0.01673 0.67899 0.02444 0.0
C684 C 0.37139 0.211 0.93801 0.0
C685 C 0.36751 0.22622 0.96895 0.0
C686 C 0.36953 0.24361 0.86762 0.0
C687 C 0.37244 0.22781 0.83675 0.0
N688 N 0.37264 0.19445 0.84053 0.0
N689 N 0.36075 0.2557 0.96396 0.0
C690 C 0.37256 0.21105 0.87148 0.0
C691 C 0.36589 0.24213 0.93387 0.0
N692 N 0.37388 0.19632 0.97225 0.0
N693 N 0.37084 0.2603 0.83365 0.0
H694 H 0.35896 0.25563 0.01247 0.0
H695 H 0.35715 0.26626 0.94107 0.0
H696 H 0.37324 0.26157 0.78527 0.0
H697 H 0.37093 0.27354 0.85333 0.0
H698 H 0.37989 0.18699 0.95383 0.0
H699 H 0.37099 0.19403 0.02023 0.0
H700 H 0.36992 0.18036 0.86209 0.0
H701 H 0.37377 0.19386 0.792 0.0
C702 C 0.80966 0.05615 0.87106 0.0
C703 C 0.78965 0.04868 0.83992 0.0
C704 C 0.77092 0.03905 0.94169 0.0
C705 C 0.79087 0.04586 0.97265 0.0
N706 N 0.82903 0.05852 0.96626 0.0
N707 N 0.75105 0.03043 0.84336 0.0
C708 C 0.8101 0.05345 0.93705 0.0
C709 C 0.77021 0.03942 0.87471 0.0
N710 N 0.82846 0.06728 0.83817 0.0
N711 N 0.75268 0.03234 0.97652 0.0
H712 H 0.7501 0.03048 0.79459 0.0
H713 H 0.73612 0.02159 0.86481 0.0
H714 H 0.75231 0.03032 0.02497 0.0
H715 H 0.73809 0.02956 0.95813 0.0
H716 H 0.84355 0.07571 0.85901 0.0
H717 H 0.82911 0.06975 0.78995 0.0
H718 H 0.84271 0.06093 0.94244 0.0
H719 H 0.83101 0.05925 0.01464 0.0
C720 C 0.01508 0.35847 0.78499 0.0
C721 C 0.02123 0.37704 0.82177 0.0
C722 C 0.03195 0.3993 0.72658 0.0
C723 C 0.02465 0.38058 0.68911 0.0
N724 N 1.00813 0.34219 0.68146 0.0
N725 N 0.03238 0.41458 0.82807 0.0
C726 C 0.01582 0.36009 0.71807 0.0
C727 C 0.029 0.39732 0.79269 0.0
N728 N 1.0092 0.33946 0.81433 0.0
N729 N 0.04158 0.41912 0.69911 0.0
H730 H 0.03064 0.41403 0.87662 0.0
H731 H 0.03523 0.4291 0.80931 0.0
H732 H 0.04209 0.4216 0.65098 0.0
H733 H 0.05015 0.43337 0.72395 0.0
H734 H 1.00648 0.32561 0.79127 0.0
H735 H 1.00833 0.33784 0.86298 0.0
H736 H 0.99929 0.32662 0.69853 0.0
H737 H 1.00984 0.34286 0.63287 0.0
C738 C 0.61877 0.55123 0.75403 0.0
C739 C 0.63765 0.56213 0.71686 0.0
C740 C 0.6599 0.57184 0.81237 0.0
C741 C 0.64096 0.56168 0.84962 0.0
N742 N 0.6021 0.54403 0.85621 0.0
N743 N 0.67591 0.58548 0.70996 0.0
C744 C 0.62036 0.55234 0.82053 0.0
C745 C 0.65817 0.57318 0.74592 0.0
N746 N 0.59933 0.53833 0.72594 0.0
N747 N 0.67956 0.58006 0.84056 0.0
H748 H 0.67506 0.58688 0.66153 0.0
H749 H 0.69115 0.59561 0.72813 0.0
H750 H 0.68148 0.5807 0.88909 0.0
H751 H 0.69389 0.58537 0.81618 0.0
H752 H 0.58554 0.52754 0.75023 0.0
H753 H 0.59714 0.53687 0.67761 0.0
H754 H 0.58711 0.54019 0.83822 0.0
H755 H 0.60179 0.54186 0.90445 0.0
C756 C 0.43233 0.98118 0.80379 0.0
C757 C 0.45243 0.99122 0.83585 0.0
C758 C 0.47136 0.99758 0.7348 0.0
C759 C 0.4514 0.98859 0.70269 0.0
N760 N 0.41307 0.97359 0.70442 0.0
N761 N 0.49135 0.01081 0.83137 0.0
C762 C 0.4319 0.98077 0.73665 0.0
C763 C 0.47199 1.00005 0.80112 0.0
N764 N 0.41367 0.9721 0.83762 0.0
N765 N 0.48973 1.00282 0.70197 0.0
H766 H 0.49307 0.01126 0.87981 0.0
H767 H 0.5059 0.02036 0.80854 0.0
H768 H 0.49016 1.00177 0.65334 0.0
H769 H 0.50433 0.00666 0.72277 0.0
H770 H 0.39851 0.96243 0.81835 0.0
H771 H 0.41333 0.97355 0.88614 0.0
H772 H 0.39844 0.96958 0.7252 0.0
H773 H 0.41231 0.97284 0.65561 0.0
C774 C 0.64112 0.98502 0.32788 0.0
C775 C 0.63152 0.99587 0.35723 0.0
C776 C 0.61657 0.99829 0.25593 0.0
C777 C 0.62775 0.98923 0.22541 0.0
N778 N 0.65252 0.97598 0.23068 0.0
N779 N 0.61226 0.01527 0.34794 0.0
C780 C 0.64048 0.98304 0.26101 0.0
C781 C 0.62006 1.00336 0.32073 0.0
N782 N 0.65071 0.97652 0.36401 0.0
N783 N 0.60138 1.00072 0.22401 0.0
H784 H 0.61268 0.01795 0.39597 0.0
H785 H 0.60663 0.02375 0.32228 0.0
H786 H 0.59765 0.99665 0.17704 0.0
H787 H 0.59081 1.00468 0.24547 0.0
H788 H 0.65602 0.96647 0.34671 0.0
H789 H 0.65223 0.97854 0.4125 0.0
H790 H 0.66379 0.97318 0.25284 0.0
H791 H 0.65238 0.97441 0.18208 0.0
C792 C 0.03024 0.57533 0.29646 0.0
C793 C 0.03414 0.56112 0.33307 0.0
C794 C 0.04137 0.54688 0.23696 0.0
C795 C 0.03862 0.56185 0.20069 0.0
N796 N 0.03281 0.59185 0.19472 0.0
N797 N 0.04565 0.53479 0.33878 0.0
C798 C 0.03368 0.5765 0.23015 0.0
C799 C 0.04056 0.54749 0.30349 0.0
N800 N 0.02312 0.58758 0.32516 0.0
N801 N 0.0434 0.5311 0.20758 0.0
H802 H 0.04305 0.53257 0.38683 0.0
H803 H 0.05351 0.52711 0.32089 0.0
H804 H 0.04421 0.53004 0.15907 0.0
H805 H 0.0425 0.51794 0.23061 0.0
H806 H 0.01768 0.59652 0.30117 0.0
H807 H 0.02171 0.58806 0.37367 0.0
H808 H 0.03129 0.60437 0.21323 0.0
H809 H 0.03511 0.59291 0.14629 0.0
C810 C 0.46877 0.40231 0.24635 0.0
C811 C 0.45894 0.38346 0.20895 0.0
C812 C 0.44884 0.36137 0.30486 0.0
C813 C 0.46048 0.38018 0.34147 0.0
N814 N 0.48476 0.41844 0.34586 0.0
N815 N 0.44053 0.34498 0.20146 0.0
C816 C 0.47105 0.40064 0.31201 0.0
C817 C 0.44923 0.36295 0.23798 0.0
N818 N 0.47646 0.42202 0.21924 0.0
N819 N 0.43689 0.34209 0.33427 0.0
H820 H 0.4392 0.34548 0.1529 0.0
H821 H 0.43551 0.32968 0.21865 0.0
H822 H 0.43623 0.34051 0.38292 0.0
H823 H 0.42635 0.32796 0.31118 0.0
H824 H 0.48078 0.4359 0.24477 0.0
H825 H 0.47737 0.4246 0.17111 0.0
H826 H 0.49506 0.43328 0.32576 0.0
H827 H 0.48756 0.4182 0.39362 0.0
C828 C 0.3456 0.13989 0.22575 0.0
C829 C 0.34267 0.1469 0.16617 0.0
C830 C 0.35374 0.12357 0.11415 0.0
C831 C 0.35879 0.11829 0.17354 0.0
N832 N 0.36015 0.12129 0.28586 0.0
N833 N 0.34453 0.14645 0.05375 0.0
C834 C 0.35472 0.12629 0.22946 0.0
C835 C 0.34674 0.13887 0.11037 0.0
N836 N 0.33976 0.14643 0.27866 0.0
N837 N 0.35536 0.11369 0.06143 0.0
H838 H 0.33809 0.15654 0.04928 0.0
H839 H 0.34988 0.14358 0.01152 0.0
H840 H 0.36109 0.10295 0.06198 0.0
H841 H 0.34977 0.11497 0.0176 0.0
H842 H 0.33977 0.14075 0.32342 0.0
H843 H 0.33348 0.15671 0.27757 0.0
H844 H 0.35968 0.12808 0.32835 0.0
H845 H 0.36631 0.11094 0.29003 0.0
C846 C 0.87362 0.12038 0.234 0.0
C847 C 0.86579 0.11065 0.17461 0.0
C848 C 0.88581 0.14589 0.12357 0.0
C849 C 0.8921 0.15578 0.18337 0.0
N850 N 0.89021 0.1531 0.2957 0.0
N851 N 0.86276 0.11392 0.06326 0.0
C852 C 0.88564 0.14317 0.23866 0.0
C853 C 0.87144 0.12338 0.1195 0.0
N854 N 0.86943 0.10783 0.28606 0.0
N855 N 0.89426 0.1579 0.07055 0.0
H856 H 0.85344 0.09736 0.05773 0.0
H857 H 0.86388 0.12245 0.02271 0.0
H858 H 0.90443 0.17446 0.07126 0.0
H859 H 0.89248 0.15136 0.026 0.0
H860 H 0.87654 0.11366 0.32948 0.0
H861 H 0.85992 0.09119 0.28521 0.0
H862 H 0.88424 0.14516 0.33803 0.0
H863 H 0.89862 0.16971 0.30039 0.0
C864 C 0.90596 0.65953 0.094 0.0
C865 C 0.91615 0.6699 0.15044 0.0
C866 C 0.88103 0.65825 0.19892 0.0
C867 C 0.87087 0.64567 0.14502 0.0
N868 N 0.87326 0.63314 0.04225 0.0
N869 N 0.9141 0.67898 0.25768 0.0
C870 C 0.88324 0.646 0.09273 0.0
C871 C 0.90387 0.66938 0.20311 0.0
N872 N 0.91812 0.66311 0.04134 0.0
N873 N 0.86883 0.65983 0.24552 0.0
H874 H 0.9308 0.68839 0.26094 0.0
H875 H 0.90623 0.67696 0.30022 0.0
H876 H 0.85206 0.65125 0.24515 0.0
H877 H 0.8752 0.67054 0.28272 0.0
H878 H 0.91168 0.6578 0.99692 0.0
H879 H 0.93479 0.67316 0.04127 0.0
H880 H 0.88147 0.63095 1.00543 0.0
H881 H 0.85661 0.62333 0.03914 0.0
C882 C 0.21139 0.33941 0.40834 0.0
C883 C 0.20137 0.33842 0.35002 0.0
C884 C 0.22058 0.32193 0.30126 0.0
C885 C 0.22885 0.32092 0.36087 0.0
N886 N 0.23086 0.32679 0.47219 0.0
N887 N 0.19492 0.32738 0.24191 0.0
C888 C 0.22405 0.32933 0.41465 0.0
C889 C 0.20558 0.32931 0.29675 0.0
N890 N 0.20862 0.34982 0.45788 0.0
N891 N 0.22779 0.31673 0.24848 0.0
H892 H 0.18504 0.33398 0.23544 0.0
H893 H 0.19497 0.31835 0.20394 0.0
H894 H 0.23858 0.31105 0.24947 0.0
H895 H 0.22445 0.31962 0.20323 0.0
H896 H 0.21723 0.35314 0.49954 0.0
H897 H 0.19879 0.3566 0.45605 0.0
H898 H 0.22615 0.33043 0.51433 0.0
H899 H 0.24 0.31935 0.47832 0.0
C900 C 0.69163 0.78669 0.29152 0.0
C901 C 0.68033 0.77415 0.34449 0.0
C902 C 0.68889 0.80698 0.40244 0.0
C903 C 0.69891 0.81933 0.34811 0.0
N904 N 0.70693 0.82086 0.23783 0.0
N905 N 0.66615 0.77184 0.44841 0.0
C906 C 0.69954 0.80917 0.2918 0.0
C907 C 0.67821 0.78416 0.39924 0.0
N908 N 0.69521 0.77714 0.24128 0.0
N909 N 0.69047 0.81721 0.45778 0.0
H910 H 0.65878 0.75518 0.4488 0.0
H911 H 0.66211 0.77789 0.48706 0.0
H912 H 0.69873 0.83387 0.46176 0.0
H913 H 0.68534 0.80945 0.50072 0.0
H914 H 0.70562 0.78561 0.20472 0.0
H915 H 0.68872 0.76062 0.23781 0.0
H916 H 0.70524 0.81402 0.19375 0.0
H917 H 0.71347 0.83743 0.2362 0.0
C918 C 0.23377 0.79294 0.27576 0.0
C919 C 0.24424 0.80184 0.33336 0.0
C920 C 0.20981 0.78257 0.38932 0.0
C921 C 0.19929 0.77368 0.33169 0.0
N922 N 0.20125 0.76697 0.22194 0.0
N923 N 0.24357 0.80181 0.44604 0.0
C924 C 0.21131 0.77779 0.27542 0.0
C925 C 0.23263 0.79548 0.39057 0.0
N926 N 0.24527 0.79951 0.22131 0.0
N927 N 0.19787 0.77939 0.44229 0.0
H928 H 0.26029 0.81124 0.44823 0.0
H929 H 0.23644 0.79629 0.48965 0.0
H930 H 0.18114 0.77001 0.44291 0.0
H931 H 0.20425 0.7872 0.48454 0.0
H932 H 0.23837 0.79594 0.1769 0.0
H933 H 0.26194 0.80931 0.22088 0.0
H934 H 0.20932 0.76758 0.18084 0.0
H935 H 0.18477 0.75611 0.21973 0.0
C936 C 0.67666 0.80551 0.90418 0.0
C937 C 0.67261 0.811 0.84375 0.0
C938 C 0.69079 0.79362 0.79494 0.0
C939 C 0.69444 0.78763 0.85518 0.0
N940 N 0.68864 0.78522 0.96666 0.0
N941 N 0.67068 0.80583 0.73257 0.0
C942 C 0.68661 0.79272 0.90972 0.0
C943 C 0.67819 0.80373 0.78935 0.0
N944 N 0.67153 0.81308 0.9562 0.0
N945 N 0.69962 0.78988 0.74313 0.0
H946 H 0.66039 0.81207 0.72845 0.0
H947 H 0.67258 0.79936 0.69112 0.0
H948 H 0.70872 0.78228 0.74516 0.0
H949 H 0.69936 0.79572 0.69873 0.0
H950 H 0.67618 0.81186 1.00146 0.0
H951 H 0.6632 0.82148 0.95387 0.0
H952 H 0.68115 0.7861 1.00736 0.0
H953 H 0.69714 0.77711 0.97273 0.0
C954 C 0.21421 0.80641 0.90867 0.0
C955 C 0.21684 0.81805 0.85265 0.0
C956 C 0.19142 0.78479 0.79855 0.0
C957 C 0.19024 0.77289 0.85298 0.0
N958 N 0.20145 0.7719 0.95898 0.0
N959 N 0.21058 0.81834 0.74172 0.0
C960 C 0.202 0.78358 0.90776 0.0
C961 C 0.20603 0.80727 0.79696 0.0
N962 N 0.22279 0.81732 0.96322 0.0
N963 N 0.17846 0.77463 0.74833 0.0
H964 H 0.22085 0.83485 0.73852 0.0
H965 H 0.20544 0.81102 0.69819 0.0
H966 H 0.1684 0.75808 0.74606 0.0
H967 H 0.1766 0.78268 0.7105 0.0
H968 H 0.21993 0.81011 1.00709 0.0
H969 H 0.23141 0.83402 0.96539 0.0
H970 H 0.21155 0.77842 0.9975 0.0
H971 H 0.19168 0.75532 0.96183 0.0
C972 C 0.20897 0.31867 0.78517 0.0
C973 C 0.19758 0.31611 0.84195 0.0
C974 C 0.23176 0.33691 0.89814 0.0
C975 C 0.24305 0.33748 0.84295 0.0
N976 N 0.2429 0.32797 0.73488 0.0
N977 N 0.19766 0.32064 0.95366 0.0
C978 C 0.23178 0.32817 0.78661 0.0
C979 C 0.20887 0.32479 0.89876 0.0
N980 N 0.19803 0.31265 0.72963 0.0
N981 N 0.24303 0.34805 0.94987 0.0
H982 H 0.18092 0.31147 0.95569 0.0
H983 H 0.20483 0.32467 0.99765 0.0
H984 H 0.2598 0.35697 0.95082 0.0
H985 H 0.23592 0.34998 0.98991 0.0
H986 H 0.20551 0.31622 0.68602 0.0
H987 H 0.18132 0.30531 0.72673 0.0
H988 H 0.2356 0.31914 0.69467 0.0
H989 H 0.25967 0.33593 0.73335 0.0
C990 C 0.87834 0.67609 0.59667 0.0
C991 C 0.87348 0.68405 0.65131 0.0
C992 C 0.88402 0.66275 0.7174 0.0
C993 C 0.89152 0.6571 0.66337 0.0
N994 N 0.89542 0.65738 0.5512 0.0
N995 N 0.87051 0.6846 0.76359 0.0
C996 C 0.88815 0.66313 0.60274 0.0
C997 C 0.87575 0.67704 0.71168 0.0
N998 N 0.87384 0.68121 0.53909 0.0
N999 N 0.88473 0.65421 0.77396 0.0
H1000 H 0.86343 0.69416 0.76093 0.0
H1001 H 0.87366 0.68204 0.80934 0.0
H1002 H 0.89057 0.64362 0.77879 0.0
H1003 H 0.87819 0.65619 0.81514 0.0
H1004 H 0.87497 0.67446 0.49724 0.0
H1005 H 0.86748 0.6913 0.53313 0.0
H1006 H 0.89583 0.66308 0.50618 0.0
H1007 H 0.90191 0.64731 0.55357 0.0
C1008 C 0.354 0.13877 0.62831 0.0
C1009 C 0.36951 0.15271 0.67295 0.0
C1010 C 0.36531 0.12141 0.73117 0.0
C1011 C 0.35168 0.10776 0.68304 0.0
N1012 N 0.33376 0.10303 0.58418 0.0
N1013 N 0.39032 0.15752 0.76647 0.0
C1014 C 0.346 0.1163 0.63159 0.0
C1015 C 0.37532 0.14407 0.7242 0.0
N1016 N 0.34681 0.14695 0.58261 0.0
N1017 N 0.36787 0.11255 0.7849 0.0
H1018 H 0.39665 0.17406 0.76636 0.0
H1019 H 0.39733 0.15249 0.80012 0.0
H1020 H 0.36038 0.09604 0.79213 0.0
H1021 H 0.37578 0.12132 0.82461 0.0
H1022 H 0.3335 0.13761 0.5545 0.0
H1023 H 0.3533 0.16324 0.57461 0.0
H1024 H 0.33159 0.10842 0.54104 0.0
H1025 H 0.32662 0.08642 0.5864 0.0
C1026 C 0.8746 0.12993 0.61634 0.0
C1027 C 0.86248 0.12164 0.67226 0.0
C1028 C 0.89586 0.13629 0.73334 0.0
C1029 C 0.90782 0.1464 0.67847 0.0
N1030 N 0.90902 0.15439 0.56853 0.0
N1031 N 0.86094 0.11838 0.78458 0.0
C1032 C 0.8973 0.14355 0.62007 0.0
C1033 C 0.87295 0.12513 0.73098 0.0
N1034 N 0.86441 0.12439 0.55957 0.0
N1035 N 0.90649 0.13738 0.78758 0.0
H1036 H 0.84417 0.1103 0.78426 0.0
H1037 H 0.86742 0.12212 0.82947 0.0
H1038 H 0.92323 0.14552 0.79067 0.0
H1039 H 0.89893 0.12886 0.828 0.0
H1040 H 0.87247 0.12785 0.51688 0.0
H1041 H 0.84775 0.11506 0.555 0.0
H1042 H 0.9022 0.15528 0.52644 0.0
H1043 H 0.92579 0.16348 0.56884 0.0
C1044 C 0.02245 0.462 0.44733 0.0
C1045 C 0.0221 0.45119 0.50327 0.0
C1046 C 1.00397 0.46782 0.55813 0.0
C1047 C 1.00507 0.47916 0.5025 0.0
N1048 N 0.0133 0.48504 0.39175 0.0
N1049 N 1.00908 0.44046 0.60874 0.0
C1050 C 0.0135 0.47557 0.44674 0.0
C1051 C 0.01169 0.453 0.55769 0.0
N1052 N 0.03095 0.45906 0.39347 0.0
N1053 N 0.99667 0.47215 0.61223 0.0
H1054 H 0.01543 0.43026 0.61127 0.0
H1055 H 0.99961 0.43913 0.64725 0.0
H1056 H 0.99002 0.48211 0.61362 0.0
H1057 H 0.99802 0.46675 0.65625 0.0
H1058 H 0.03152 0.46684 0.35165 0.0
H1059 H 0.03721 0.44879 0.39034 0.0
H1060 H 1.00645 0.49479 0.38639 0.0
H1061 H 1.00645 0.49479 0.38639 0.0
C1062 C 0.54483 0.45463 0.4607 0.0
C1063 C 0.54048 0.44192 0.51532 0.0
C1064 C 0.56106 0.47433 0.57905 0.0
C1065 C 0.56586 0.48707 0.52423 0.0
N1066 N 0.56548 0.48952 0.4115 0.0
N1067 N 0.54698 0.43888 0.62449 0.0
C1068 C 0.55859 0.47726 0.4646 0.0
C1069 C 0.54948 0.45157 0.57388 0.0
N1070 N 0.53549 0.44499 0.40525 0.0
N1071 N 0.56685 0.48409 0.63629 0.0
H1072 H 0.53839 0.42219 0.62246 0.0
H1073 H 0.55474 0.44468 0.66716 0.0
H1074 H 0.5752 0.50069 0.6415 0.0
H1075 H 0.56202 0.47596 0.67878 0.0
H1076 H 0.53564 0.45331 0.36522 0.0
H1077 H 0.52674 0.42838 0.4 0.0
H1078 H 0.5629 0.48323 0.36643 0.0
H1079 H 0.57511 0.50616 0.41228 0.0
C1080 C 0.56199 0.01858 0.46591 0.0
C1081 C 0.57123 0.01772 0.52367 0.0
C1082 C 0.53551 0.9986 0.57238 0.0
C1083 C 0.52613 0.99914 0.51449 0.0
N1084 N 0.5301 0.01259 0.40896 0.0
N1085 N 0.56796 0.01281 0.63525 0.0
C1086 C 0.53931 0.01016 0.4621 0.0
C1087 C 0.55829 0.00955 0.57801 0.0
N1088 N 0.57487 0.02688 0.4145 0.0
N1089 N 0.52266 0.98711 0.62144 0.0
H1090 H 0.58464 0.02148 0.64054 0.0
H1091 H 0.55964 0.00897 0.67756 0.0
H1092 H 0.50591 0.97915 0.6193 0.0
H1093 H 0.52848 0.98417 0.66269 0.0
H1094 H 0.56915 0.02564 0.36902 0.0
H1095 H 0.59159 0.03468 0.41752 0.0
H1096 H 0.53882 0.02213 0.37124 0.0
H1097 H 0.51353 0.00598 0.40382 0.0
C1098 C 0.52435 0.98241 0.98168 0.0
C1099 C 0.52133 0.99184 0.03633 0.0
C1100 C 0.5437 0.98126 0.09668 0.0
C1101 C 0.54832 0.97369 0.04087 0.0
N1102 N 0.5456 0.96963 0.92847 0.0
N1103 N 0.52906 1.00164 0.14534 0.0
C1104 C 0.53921 0.97481 0.98291 0.0
C1105 C 0.53137 0.99175 0.09368 0.0
N1106 N 0.51291 0.98058 0.92858 0.0
N1107 N 0.5505 0.97764 0.15283 0.0
H1108 H 0.51914 0.00834 0.14636 0.0
H1109 H 0.53792 1.00437 0.18628 0.0
H1110 H 0.55908 0.96951 0.15634 0.0
H1111 H 0.54615 0.9809 0.19614 0.0
H1112 H 0.51236 0.97155 0.88985 0.0
H1113 H 0.50276 0.98696 0.92455 0.0
H1114 H 0.54178 0.97276 0.88413 0.0
H1115 H 0.55608 0.96357 0.92716 0.0
C1116 C 0.03718 0.47743 0.06898 0.0
C1117 C 0.03768 0.48844 0.01345 0.0
C1118 C 0.01857 0.4542 0.9564 0.0
C1119 C 0.01713 0.44316 0.01278 0.0
N1120 N 0.02219 0.44348 0.1244 0.0
N1121 N 0.02822 0.48791 0.90487 0.0
C1122 C 0.02564 0.45459 0.06959 0.0
C1123 C 0.02816 0.47696 0.95728 0.0
N1124 N 0.04818 0.48888 0.12062 0.0
N1125 N 0.01131 0.44291 0.90177 0.0
H1126 H 0.03654 0.5046 0.90241 0.0
H1127 H 0.0195 0.48066 0.86449 0.0
H1128 H 1.00327 0.42621 0.90023 0.0
H1129 H 0.01399 0.4499 0.85762 0.0
H1130 H 0.05027 0.48204 0.16099 0.0
H1131 H 0.0568 0.50558 0.12134 0.0
H1132 H 0.02604 0.45061 0.16842 0.0
H1133 H 0.01382 0.42678 0.12646 0.0
C1134 C 0.54278 0.46692 0.96468 0.0
C1135 C 0.53235 0.45754 0.02229 0.0
C1136 C 0.5675 0.4726 0.07447 0.0
C1137 C 0.57773 0.48355 0.01837 0.0
N1138 N 0.57547 0.49272 0.9113 0.0
N1139 N 0.53423 0.45315 0.13348 0.0
C1140 C 0.56544 0.48115 0.96382 0.0
C1141 C 0.5446 0.46076 0.07757 0.0
N1142 N 0.53118 0.46143 0.91024 0.0
N1143 N 0.57974 0.47348 0.12471 0.0
H1144 H 0.51751 0.44461 0.13736 0.0
H1145 H 0.54197 0.4567 0.17667 0.0
H1146 H 0.5965 0.48226 0.12439 0.0
H1147 H 0.5735 0.46426 0.16496 0.0
H1148 H 0.53813 0.46563 0.86595 0.0
H1149 H 0.51456 0.45129 0.90871 0.0
H1150 H 0.5673 0.49396 0.87269 0.0
H1151 H 0.59216 0.50202 0.90754 0.0
C1152 C 0.48017 0.08668 0.1062 0.0
C1153 C 0.47172 0.06815 0.06733 0.0
C1154 C 0.43544 0.06119 0.08691 0.0
C1155 C 0.44334 0.07997 0.12405 0.0
N1156 N 0.47372 0.11257 0.16159 0.0
N1157 N 0.44307 0.04717 0.99451 0.0
C1158 C 0.46595 0.09344 0.13117 0.0
C1159 C 0.44991 0.05834 0.04927 0.0
N1160 N 0.50172 0.09801 0.11789 0.0
N1161 N 0.41418 0.0459 0.08675 0.0
H1162 H 0.45382 0.04734 0.96132 0.0
H1163 H 0.42734 0.04078 0.9782 0.0
H1164 H 0.40274 0.04661 0.11475 0.0
H1165 H 0.40842 0.0314 0.06303 0.0
H1166 H 0.50869 0.10991 0.15186 0.0
H1167 H 0.51268 0.0955 0.09253 0.0
H1168 H 0.48995 0.12415 0.16329 0.0
H1169 H 0.46367 0.11721 0.18323 0.0
C1170 C 0.93158 0.28212 0.04342 0.0
C1171 C 0.9254 0.27529 0.10641 0.0
C1172 C 0.93422 0.31177 0.13492 0.0
C1173 C 0.93993 0.31848 0.07119 0.0
N1174 N 0.93611 0.30776 0.96304 0.0
N1175 N 0.91444 0.28194 0.20627 0.0
C1176 C 0.93583 0.30281 0.02492 0.0
C1177 C 0.92454 0.28959 0.15012 0.0
N1178 N 0.93514 0.26973 1.00212 0.0
N1179 N 0.93937 0.32634 0.18218 0.0
H1180 H 0.9071 0.26576 0.21833 0.0
H1181 H 0.91134 0.29115 0.23759 0.0
H1182 H 0.94706 0.3428 0.17608 0.0
H1183 H 0.93776 0.32214 0.22938 0.0
H1184 H 0.9419 0.27518 0.95799 0.0
H1185 H 0.93359 0.25499 0.01359 0.0
H1186 H 0.9315 0.29641 0.92744 0.0
H1187 H 0.9385 0.32261 0.94828 0.0
C1188 C 0.73356 0.54795 0.14048 0.0
C1189 C 0.7485 0.55642 0.09064 0.0
C1190 C 0.71877 0.5385 0.01506 0.0
C1191 C 0.70377 0.53298 0.06441 0.0
N1192 N 0.69703 0.53509 0.17469 0.0
N1193 N 0.75508 0.56199 0.97924 0.0
C1194 C 0.71115 0.5381 0.12749 0.0
C1195 C 0.74109 0.55203 0.0275 0.0
N1196 N 0.74085 0.54934 0.20038 0.0
N1197 N 0.71166 0.53073 0.95622 0.0
H1198 H 0.77145 0.57215 0.9859 0.0
H1199 H 0.75022 0.5616 0.93305 0.0
H1200 H 0.69539 0.52076 0.94589 0.0
H1201 H 0.72191 0.53243 0.91939 0.0
H1202 H 0.73076 0.54162 0.23826 0.0
H1203 H 0.75719 0.55647 0.21107 0.0
H1204 H 0.70188 0.54096 0.2199 0.0
H1205 H 0.68055 0.5284 0.168 0.0
C1206 C 0.09586 0.38841 0.4292 0.0
C1207 C 0.10469 0.41044 0.44503 0.0
C1208 C 0.14038 0.41722 0.41093 0.0
C1209 C 0.13186 0.39493 0.40085 0.0
N1210 N 0.10173 0.35875 0.41289 0.0
N1211 N 0.13596 0.44521 0.46 0.0
C1212 C 0.10969 0.38042 0.41316 0.0
C1213 C 0.12715 0.4247 0.43824 0.0
N1214 N 0.07408 0.37498 0.42638 0.0
N1215 N 0.16091 0.43133 0.39227 0.0
H1216 H 0.12682 0.451 0.4814 0.0
H1217 H 0.15245 0.45581 0.46229 0.0
H1218 H 0.17079 0.42642 0.37093 0.0
H1219 H 0.16744 0.44788 0.39243 0.0
H1220 H 0.06696 0.35993 0.40533 0.0
H1221 H 0.06281 0.37932 0.43856 0.0
H1222 H 0.08666 0.34776 0.43076 0.0
H1223 H 0.11067 0.35151 0.40202 0.0
C1224 C 0.60729 0.64321 0.47637 0.0
C1225 C 0.60993 0.64864 0.41139 0.0
C1226 C 0.59988 0.61167 0.38565 0.0
C1227 C 0.59588 0.60591 0.45024 0.0
N1228 N 0.58995 0.61504 0.55387 0.0
N1229 N 0.60263 0.63649 0.30459 0.0
C1230 C 0.59758 0.62131 0.49445 0.0
C1231 C 0.60403 0.63227 0.36625 0.0
N1232 N 0.6156 0.65881 0.52128 0.0
N1233 N 0.60167 0.59843 0.34326 0.0
H1234 H 0.60535 0.65139 0.28924 0.0
H1235 H 0.59656 0.62463 0.27023 0.0
H1236 H 0.60042 0.58384 0.35492 0.0
H1237 H 0.60683 0.60306 0.29734 0.0
H1238 H 0.61621 0.65549 0.56851 0.0
H1239 H 0.62383 0.67513 0.51163 0.0
H1240 H 0.58899 0.6253 0.58643 0.0
H1241 H 0.58245 0.59907 0.56818 0.0
C1242 C 0.37467 0.87668 0.46731 0.0
C1243 C 0.36878 0.87094 0.40354 0.0
C1244 C 0.40563 0.89669 0.37125 0.0
C1245 C 0.41171 0.90186 0.43549 0.0
N1246 N 0.40352 0.8911 0.54342 0.0
N1247 N 0.38005 0.87079 0.29768 0.0
C1248 C 0.39671 0.88989 0.48305 0.0
C1249 C 0.3848 0.87934 0.35655 0.0
N1250 N 0.3593 0.87107 0.51259 0.0
N1251 N 0.41874 0.90917 0.3239 0.0
H1252 H 0.36493 0.85803 0.28587 0.0
H1253 H 0.39163 0.87478 0.26291 0.0
H1254 H 0.43358 0.92286 0.33055 0.0
H1255 H 0.41387 0.90724 0.27725 0.0
H1256 H 0.36289 0.87701 0.55816 0.0
H1257 H 0.34285 0.8623 0.50386 0.0
H1258 H 0.39354 0.88129 0.57909 0.0
H1259 H 0.4197 0.90011 0.55603 0.0
C1260 C 0.59232 0.89311 0.88658 0.0
C1261 C 0.58927 0.89477 0.95195 0.0
C1262 C 0.60349 0.87086 0.97395 0.0
C1263 C 0.60467 0.86765 0.90843 0.0
N1264 N 0.5948 0.87153 0.80354 0.0
N1265 N 0.58641 0.88039 0.05564 0.0
C1266 C 0.59719 0.87733 0.86518 0.0
C1267 C 0.59296 0.88198 0.99484 0.0
N1268 N 0.5924 0.9076 0.84508 0.0
N1269 N 0.61391 0.86506 0.01643 0.0
H1270 H 0.57823 0.88797 0.07212 0.0
H1271 H 0.587 0.86973 0.08748 0.0
H1272 H 0.62321 0.85826 1.0043 0.0
H1273 H 0.61534 0.86927 0.06361 0.0
H1274 H 0.59677 0.90825 0.79824 0.0
H1275 H 0.59058 0.92051 0.85812 0.0
H1276 H 0.58755 0.87669 0.77094 0.0
H1277 H 0.59794 0.85978 0.78668 0.0
C1278 C 0.14154 0.63515 0.85803 0.0
C1279 C 0.15448 0.65053 0.90324 0.0
C1280 C 0.14195 0.62166 0.98217 0.0
C1281 C 0.12554 0.6078 0.94024 0.0
N1282 N 0.10862 0.6021 0.83832 0.0
N1283 N 0.17151 0.65734 1.00492 0.0
C1284 C 0.12528 0.61455 0.87773 0.0
C1285 C 0.15628 0.64342 0.96421 0.0
N1286 N 0.14496 0.64037 0.79598 0.0
N1287 N 0.1441 0.61378 0.03829 0.0
H1288 H 0.18507 0.67132 0.99007 0.0
H1289 H 0.17132 0.65465 0.05285 0.0
H1290 H 0.13397 0.59791 0.05188 0.0
H1291 H 0.15662 0.62228 0.06963 0.0
H1292 H 0.13723 0.62931 0.76017 0.0
H1293 H 0.15745 0.65519 0.78088 0.0
H1294 H 0.1065 0.60747 0.79502 0.0
H1295 H 0.09575 0.58722 0.85076 0.0
C1296 C 0.3969 0.42245 0.98549 0.0
C1297 C 0.41217 0.42313 0.94226 0.0
C1298 C 0.38543 0.41298 0.85791 0.0
C1299 C 0.36929 0.40872 0.90282 0.0
N1300 N 0.35933 0.40601 0.01252 0.0
N1301 N 0.4195 0.41507 0.83787 0.0
C1302 C 0.37492 0.41281 0.96748 0.0
C1303 C 0.40619 0.41763 0.87831 0.0
N1304 N 0.40341 0.43108 0.04382 0.0
N1305 N 0.38087 0.41245 0.7956 0.0
H1306 H 0.43436 0.41701 0.85066 0.0
H1307 H 0.41482 0.40878 0.79297 0.0
H1308 H 0.36582 0.40923 0.77943 0.0
H1309 H 0.39254 0.41738 0.76072 0.0
H1310 H 0.39334 0.43289 0.07528 0.0
H1311 H 0.41944 0.43844 0.05815 0.0
H1312 H 0.3626 0.40631 0.06018 0.0
H1313 H 0.34294 0.39818 1.00287 0.0
C1314 C 0.91852 0.55307 0.59304 0.0
C1315 C 0.93268 0.57507 0.60661 0.0
C1316 C 0.96351 0.57037 0.58456 0.0
C1317 C 0.94954 0.54911 0.56352 0.0
N1318 N 0.91352 0.52095 0.54041 0.0
N1319 N 0.96852 0.60576 0.59548 0.0
C1320 C 0.92692 0.54061 0.56583 0.0
C1321 C 0.95512 0.58405 0.59671 0.0
N1322 N 0.89722 0.54396 0.60775 0.0
N1323 N 0.98472 0.57738 0.5965 0.0
H1324 H 0.96322 0.61674 0.60039 0.0
H1325 H 0.9846 0.61287 0.58198 0.0
H1326 H 0.99163 0.56775 0.59227 0.0
H1327 H 0.99485 0.59204 0.618 0.0
H1328 H 0.88643 0.52758 0.60469 0.0
H1329 H 0.89073 0.5526 0.62823 0.0
H1330 H 0.89703 0.51471 0.53516 0.0
H1331 H 0.9192 0.51165 0.51954 0.0
C1332 C 0.48222 0.31081 0.63464 0.0
C1333 C 0.48624 0.31676 0.57018 0.0
C1334 C 0.46328 0.27915 0.54034 0.0
C1335 C 0.46038 0.27307 0.6048 0.0
N1336 N 0.47151 0.28255 0.71181 0.0
N1337 N 0.48499 0.30601 0.46296 0.0
C1338 C 0.47141 0.28875 0.65139 0.0
C1339 C 0.47826 0.30068 0.52352 0.0
N1340 N 0.48708 0.32599 0.67987 0.0
N1341 N 0.45059 0.26499 0.49524 0.0
H1342 H 0.49605 0.32164 0.44941 0.0
H1343 H 0.48133 0.29466 0.42786 0.0
H1344 H 0.43874 0.24927 0.50448 0.0
H1345 H 0.45036 0.26946 0.44895 0.0
H1346 H 0.48213 0.32219 0.72628 0.0
H1347 H 0.49415 0.34231 0.67065 0.0
H1348 H 0.48099 0.29316 0.74679 0.0
H1349 H 0.46383 0.26648 0.72527 0.0
C1350 C 0.70995 0.06988 0.54234 0.0
C1351 C 0.69754 0.07519 0.58231 0.0
C1352 C 0.72994 0.09533 0.64806 0.0
C1353 C 0.74034 0.08617 0.61452 0.0
N1354 N 0.73645 0.05889 0.5414 0.0
N1355 N 0.69577 0.09001 0.68372 0.0
C1356 C 0.72925 0.07172 0.56509 0.0
C1357 C 0.70752 0.08737 0.63789 0.0
N1358 N 0.70358 0.06339 0.48218 0.0
N1359 N 0.74121 0.11115 0.69075 0.0
H1360 H 0.67923 0.08353 0.68258 0.0
H1361 H 0.70229 0.09684 0.72702 0.0
H1362 H 0.75733 0.11659 0.70107 0.0
H1363 H 0.73495 0.11989 0.71191 0.0
H1364 H 0.71301 0.06063 0.4506 0.0
H1365 H 0.69043 0.06356 0.46194 0.0
H1366 H 0.72782 0.047 0.50827 0.0
H1367 H 0.74963 0.05854 0.56008 0.0
C1368 C 0.80133 0.76433 0.79268 0.0
C1369 C 0.77925 0.74984 0.80549 0.0
C1370 C 0.78449 0.71983 0.77802 0.0
C1371 C 0.80544 0.73426 0.75567 0.0
N1372 N 0.83355 0.77058 0.73703 0.0
N1373 N 0.74878 0.71393 0.79169 0.0
C1374 C 0.81391 0.75667 0.76204 0.0
C1375 C 0.77052 0.72761 0.79338 0.0
N1376 N 0.81036 0.78521 0.81101 0.0
N1377 N 0.77801 0.69865 0.78646 0.0
H1378 H 0.73746 0.71878 0.79703 0.0
H1379 H 0.74197 0.69806 0.77694 0.0
H1380 H 0.78809 0.69236 0.77884 0.0
H1381 H 0.76354 0.68798 0.80826 0.0
H1382 H 0.82678 0.79612 0.80811 0.0
H1383 H 0.80167 0.79111 0.83453 0.0
H1384 H 0.83966 0.78705 0.73446 0.0
H1385 H 0.84303 0.76542 0.71446 0.0
C1386 C 0.26246 0.94656 0.71815 0.0
C1387 C 0.25792 0.93988 0.78183 0.0
C1388 C 0.27292 0.97729 0.81424 0.0
C1389 C 0.2766 0.98388 0.75007 0.0
N1390 N 0.26836 0.97383 0.64176 0.0
N1391 N 0.25322 0.94814 0.88766 0.0
C1392 C 0.26913 0.96815 0.70235 0.0
C1393 C 0.26122 0.95503 0.82887 0.0
N1394 N 0.26208 0.93291 0.67308 0.0
N1395 N 0.28193 0.9919 0.8616 0.0
H1396 H 0.24453 0.93192 0.8995 0.0
H1397 H 0.25321 0.95828 0.92237 0.0
H1398 H 0.29176 0.00827 0.85482 0.0
H1399 H 0.2815 0.98753 0.90833 0.0
H1400 H 0.26763 0.93786 0.62761 0.0
H1401 H 0.25836 0.91722 0.68202 0.0
H1402 H 0.26128 0.96268 0.60579 0.0
H1403 H 0.2726 0.98944 0.62904 0.0
C1404 C 0.06694 0.20918 0.77427 0.0
C1405 C 0.07526 0.23172 0.77561 0.0
C1406 C 0.04663 0.22707 0.7042 0.0
C1407 C 0.03551 0.2047 0.71411 0.0
N1408 N 0.0372 0.17373 0.74822 0.0
N1409 N 0.06925 0.26131 0.75133 0.0
C1410 C 0.04633 0.19548 0.74617 0.0
C1411 C 0.06384 0.24038 0.74418 0.0
N1412 N 0.07874 0.20097 0.79979 0.0
N1413 N 0.0417 0.23564 0.65422 0.0
H1414 H 0.08153 0.27207 0.78027 0.0
H1415 H 0.05999 0.26741 0.73251 0.0
H1416 H 0.03124 0.22608 0.61895 0.0
H1417 H 0.05047 0.25189 0.64299 0.0
H1418 H 0.07488 0.18507 0.79519 0.0
H1419 H 0.09299 0.2104 0.82435 0.0
H1420 H 0.04247 0.1657 0.77733 0.0
H1421 H 0.0244 0.16368 0.71921 0.0
C1422 C 0.2649 0.20688 0.24439 0.0
C1423 C 0.28725 0.21611 0.23191 0.0
C1424 C 0.29302 0.25121 0.26419 0.0
C1425 C 0.2713 0.24167 0.28409 0.0
N1426 N 0.23674 0.21004 0.2984 0.0
N1427 N 0.32326 0.24616 0.24713 0.0
C1428 C 0.25721 0.21936 0.27545 0.0
C1429 C 0.30149 0.23801 0.24643 0.0
N1430 N 0.25102 0.18646 0.22503 0.0
N1431 N 0.30553 0.27299 0.25947 0.0
H1432 H 0.33056 0.2371 0.23795 0.0
H1433 H 0.33401 0.26141 0.26401 0.0
H1434 H 0.30005 0.28354 0.27004 0.0
H1435 H 0.32064 0.28049 0.23831 0.0
H1436 H 0.23436 0.17943 0.22729 0.0
H1437 H 0.25618 0.17712 0.20171 0.0
H1438 H 0.22628 0.19356 0.29923 0.0
H1439 H 0.23076 0.21878 0.32117 0.0
C1440 C 0.76796 0.95273 0.2447 0.0
C1441 C 0.77777 0.94249 0.27632 0.0
C1442 C 0.81328 0.97336 0.25141 0.0
C1443 C 0.80327 0.98482 0.2287 0.0
N1444 N 0.77015 0.98604 0.21707 0.0
N1445 N 0.80984 0.94344 0.31347 0.0
C1446 C 0.78038 0.97466 0.22845 0.0
C1447 C 0.8005 0.95288 0.28048 0.0
N1448 N 0.74675 0.94137 0.22822 0.0
N1449 N 0.83488 0.9817 0.24318 0.0
H1450 H 0.80089 0.92845 0.33461 0.0
H1451 H 0.82618 0.95109 0.32387 0.0
H1452 H 0.84448 0.99619 0.2201 0.0
H1453 H 0.84287 0.97336 0.25349 0.0
H1454 H 0.73959 0.94733 0.19794 0.0
H1455 H 0.73683 0.9253 0.23916 0.0
H1456 H 0.75367 0.97964 0.22343 0.0
H1457 H 0.77792 1.00247 0.20965 0.0
C1458 C 0.07864 0.75129 0.18167 0.0
C1459 C 0.08477 0.7543 0.24626 0.0
C1460 C 0.04802 0.7446 0.27572 0.0
C1461 C 0.04197 0.74178 0.21138 0.0
N1462 N 0.05277 0.74866 0.10363 0.0
N1463 N 0.07712 0.76092 0.35096 0.0
C1464 C 0.05781 0.74739 0.16459 0.0
C1465 C 0.07004 0.75336 0.29195 0.0
N1466 N 0.09172 0.7503 0.13686 0.0
N1467 N 0.03275 0.73744 0.32176 0.0
H1468 H 0.09329 0.76795 0.36364 0.0
H1469 H 0.06747 0.76239 0.38474 0.0
H1470 H 0.01636 0.73062 0.31311 0.0
H1471 H 0.03623 0.73667 0.36875 0.0
H1472 H 0.08692 0.74598 0.09062 0.0
H1473 H 0.10655 0.75164 0.14585 0.0
H1474 H 0.06414 0.75472 0.06781 0.0
H1475 H 0.03757 0.74578 0.09027 0.0
C1476 C 0.34925 0.02808 0.9711 0.0
C1477 C 0.36905 0.04579 0.99151 0.0
C1478 C 0.3819 0.05322 0.88252 0.0
C1479 C 0.36164 0.03664 0.86249 0.0
N1480 N 0.32979 1.0035 0.88608 0.0
N1481 N 0.40669 0.06986 0.96823 0.0
C1482 C 0.3467 0.02233 0.90663 0.0
C1483 C 0.38624 0.05646 0.94767 0.0
N1484 N 0.33223 0.01792 0.01118 0.0
N1485 N 0.39639 0.0669 0.83963 0.0
H1486 H 0.41054 0.07299 0.0154 0.0
H1487 H 0.42011 0.07621 0.93904 0.0
H1488 H 0.39412 0.06444 0.79147 0.0
H1489 H 0.41016 0.08116 0.85172 0.0
H1490 H 0.31681 0.00669 0.9964 0.0
H1491 H 0.3329 0.02167 0.05844 0.0
H1492 H 0.31936 0.99132 0.91614 0.0
H1493 H 0.32773 0.99936 0.83866 0.0
C1494 C 0.98589 0.23999 0.97882 0.0
C1495 C 0.97084 0.22257 0.01579 0.0
C1496 C 0.95709 0.20024 0.92296 0.0
C1497 C 0.97335 0.21677 0.88589 0.0
N1498 N 1.00585 0.25126 0.88098 0.0
N1499 N 0.9469 0.18458 0.02597 0.0
C1500 C 0.9886 0.23641 0.91442 0.0
C1501 C 0.95825 0.20214 0.98867 0.0
N1502 N 0.99704 0.25993 1.00469 0.0
N1503 N 0.93967 0.18333 0.89541 0.0
H1504 H 0.94757 0.18552 0.07481 0.0
H1505 H 0.93876 0.169 1.00847 0.0
H1506 H 0.937 0.18226 0.84718 0.0
H1507 H 0.92655 0.17185 0.92085 0.0
H1508 H 1.00651 0.27372 0.97858 0.0
H1509 H 0.99587 0.26264 0.05218 0.0
H1510 H 0.01846 0.26496 0.90105 0.0
H1511 H 1.00838 0.24903 0.83417 0.0
C1512 C 0.80444 0.61947 0.88284 0.0
C1513 C 0.79383 0.62546 0.92844 0.0
C1514 C 0.78377 0.64169 0.84305 0.0
C1515 C 0.79961 0.64122 0.80434 0.0
N1516 N 0.82621 0.63044 0.78948 0.0
N1517 N 0.76743 0.63629 0.94607 0.0
C1518 C 0.81007 0.63008 0.82432 0.0
C1519 C 0.78155 0.63472 0.90674 0.0
N1520 N 0.8081 0.60287 0.89331 0.0
N1521 N 0.77058 0.64832 0.81789 0.0
H1522 H 0.76206 0.62748 0.98741 0.0
H1523 H 0.76045 0.64564 0.93686 0.0
H1524 H 0.77149 0.65259 0.77078 0.0
H1525 H 0.75771 0.64794 0.84143 0.0
H1526 H 0.81447 0.59726 0.85926 0.0
H1527 H 0.80168 0.59252 0.93122 0.0
H1528 H 0.836 0.62469 0.80643 0.0
H1529 H 0.83095 0.63786 0.7459 0.0
C1530 C 0.10962 0.29244 0.60858 0.0
C1531 C 0.11743 0.30895 0.65465 0.0
C1532 C 0.12097 0.33443 0.57339 0.0
C1533 C 0.11803 0.31918 0.52655 0.0
N1534 N 0.10965 0.28325 0.49974 0.0
N1535 N 0.13158 0.34634 0.67992 0.0
C1536 C 0.11177 0.29788 0.544 0.0
C1537 C 0.12283 0.33004 0.63721 0.0
N1538 N 0.10041 0.27151 0.62663 0.0
N1539 N 0.12257 0.35343 0.5564 0.0
H1540 H 0.13363 0.34418 0.72707 0.0
H1541 H 0.13841 0.36243 0.66769 0.0
H1542 H 0.12202 0.35739 0.50987 0.0
H1543 H 0.12243 0.36427 0.58838 0.0
H1544 H 0.09213 0.25868 0.59608 0.0
H1545 H 0.09939 0.26694 0.67324 0.0
H1546 H 0.10826 0.26853 0.51066 0.0
H1547 H 0.11052 0.28614 0.4518 0.0
C1548 C 0.69592 0.69978 0.64471 0.0
C1549 C 0.69429 0.71626 0.67613 0.0
C1550 C 0.69031 0.73027 0.57662 0.0
C1551 C 0.68935 0.71254 0.54503 0.0
N1552 N 0.68813 0.67851 0.54982 0.0
N1553 N 0.68297 0.7426 0.67318 0.0
C1554 C 0.69133 0.69669 0.57917 0.0
C1555 C 0.68919 0.72999 0.64231 0.0
N1556 N 0.70236 0.68759 0.67681 0.0
N1557 N 0.69283 0.74768 0.54381 0.0
H1558 H 0.68106 0.74207 0.72176 0.0
H1559 H 0.67741 0.75164 0.65008 0.0
H1560 H 0.69495 0.74904 0.49531 0.0
H1561 H 0.6953 0.7617 0.56546 0.0
H1562 H 0.70606 0.6769 0.65509 0.0
H1563 H 0.70511 0.68909 0.72499 0.0
H1564 H 0.68721 0.66547 0.57367 0.0
H1565 H 0.68497 0.67594 0.50197 0.0
C1566 C 0.30808 0.90035 0.62477 0.0
C1567 C 0.29028 0.88313 0.65553 0.0
C1568 C 0.27777 0.86416 0.55609 0.0
C1569 C 0.29671 0.88 0.52637 0.0
N1570 N 0.33143 0.91197 0.53334 0.0
N1571 N 0.26158 0.84627 0.65322 0.0
C1572 C 0.31235 0.89786 0.56086 0.0
C1573 C 0.27614 0.86432 0.62191 0.0
N1574 N 0.32042 0.91919 0.65574 0.0
N1575 N 0.2611 0.84911 0.52109 0.0
H1576 H 0.26061 0.84539 0.70202 0.0
H1577 H 0.25221 0.83154 0.63125 0.0
H1578 H 0.26145 0.84895 0.47221 0.0
H1579 H 0.24614 0.83833 0.54007 0.0
H1580 H 0.33221 0.93303 0.63388 0.0
H1581 H 0.31786 0.92136 0.7026 0.0
H1582 H 0.34438 0.92398 0.55796 0.0
H1583 H 0.33474 0.91079 0.4864 0.0
C1584 C 0.68995 0.90231 0.12657 0.0
C1585 C 0.69295 0.88595 0.15365 0.0
C1586 C 0.69305 0.8721 0.04978 0.0
C1587 C 0.68682 0.88611 0.02327 0.0
N1588 N 0.67688 0.91317 0.03656 0.0
N1589 N 0.6903 0.85137 0.14102 0.0
C1590 C 0.68462 0.90095 0.06161 0.0
C1591 C 0.69243 0.86969 0.11516 0.0
N1592 N 0.69283 0.91934 0.16178 0.0
N1593 N 0.69932 0.86089 0.01218 0.0
H1594 H 0.68793 0.84814 0.18893 0.0
H1595 H 0.68819 0.83836 0.11423 0.0
H1596 H 0.70029 0.86265 0.96354 0.0
H1597 H 0.70569 0.85175 0.02989 0.0
H1598 H 0.69292 0.93269 0.14272 0.0
H1599 H 0.69671 0.92085 0.20923 0.0
H1600 H 0.6727 0.92257 0.06357 0.0
H1601 H 0.67353 0.91289 0.98888 0.0
C1602 C 0.12238 0.68326 0.1368 0.0
C1603 C 0.11238 0.69431 0.1614 0.0
C1604 C 0.10047 0.6976 0.05637 0.0
C1605 C 0.11313 0.6894 0.03118 0.0
N1606 N 0.12786 0.66625 0.04587 0.0
N1607 N 0.08481 0.70359 0.14986 0.0
C1608 C 0.12104 0.6792 0.07132 0.0
C1609 C 0.09881 0.69842 0.12266 0.0
N1610 N 0.13445 0.67818 0.17487 0.0
N1611 N 0.09146 0.70601 0.01762 0.0
H1612 H 0.0837 0.70438 0.19847 0.0
H1613 H 0.0731 0.70498 0.125 0.0
H1614 H 0.09175 0.70493 0.96903 0.0
H1615 H 0.08416 0.71447 0.03355 0.0
H1616 H 0.1443 0.67249 0.15833 0.0
H1617 H 0.13514 0.68041 0.22324 0.0
H1618 H 0.13252 0.65714 0.07242 0.0
H1619 H 0.12673 0.66313 0.99782 0.0
C1620 C 0.32281 0.33214 0.15385 0.0
C1621 C 0.30625 0.33301 0.18751 0.0
C1622 C 0.29116 0.33734 0.09047 0.0
C1623 C 0.30866 0.33849 0.05633 0.0
N1624 N 0.34359 0.34121 0.05755 0.0
N1625 N 0.27926 0.34349 0.18986 0.0
C1626 C 0.32529 0.33712 0.08849 0.0
C1627 C 0.29213 0.3382 0.15627 0.0
N1628 N 0.33561 0.32593 0.18364 0.0
N1629 N 0.27295 0.33407 0.06032 0.0
H1630 H 0.2799 0.34454 0.23868 0.0
H1631 H 0.26979 0.34897 0.16895 0.0
H1632 H 0.27065 0.33129 0.01223 0.0
H1633 H 0.25914 0.33141 0.08403 0.0
H1634 H 0.34636 0.32266 0.16014 0.0
H1635 H 0.33457 0.32301 0.23176 0.0
H1636 H 0.35699 0.34237 0.08011 0.0
H1637 H 0.34602 0.34516 1.01012 0.0
C1638 C 0.95773 0.66935 0.46092 0.0
C1639 C 0.9707 0.66432 0.49884 0.0
C1640 C 0.99281 0.66791 0.40665 0.0
C1641 C 0.97752 0.66947 0.36804 0.0
N1642 N 0.94184 0.6648 0.35905 0.0
N1643 N 0.99982 0.65696 0.50778 0.0
C1644 C 0.95893 0.6682 0.39544 0.0
C1645 C 0.98818 0.66317 0.47187 0.0
N1646 N 0.94406 0.67506 0.48774 0.0
N1647 N 0.01184 0.67152 0.38177 0.0
H1648 H 0.99717 0.65415 0.55577 0.0
H1649 H 0.01123 0.65359 0.48934 0.0
H1650 H 0.01557 0.67492 0.33442 0.0
H1651 H 0.02441 0.67261 0.40886 0.0
H1652 H 0.93548 0.68052 0.46165 0.0
H1653 H 0.94326 0.67661 0.53616 0.0
H1654 H 0.92727 0.66207 0.3778 0.0
H1655 H 0.94128 0.66202 0.31094 0.0
C1656 C 0.3754 0.20954 0.42444 0.0
C1657 C 0.37795 0.2263 0.46499 0.0
C1658 C 0.37295 0.24465 0.37493 0.0
C1659 C 0.37194 0.22846 0.3351 0.0
N1660 N 0.37902 0.19955 0.31921 0.0
N1661 N 0.38357 0.2621 0.47644 0.0
C1662 C 0.37573 0.21244 0.35917 0.0
C1663 C 0.378 0.2446 0.43968 0.0
N1664 N 0.37125 0.19023 0.44816 0.0
N1665 N 0.36864 0.25966 0.35114 0.0
H1666 H 0.38767 0.26274 0.52354 0.0
H1667 H 0.3858 0.27657 0.45897 0.0
H1668 H 0.3663 0.26067 0.3033 0.0
H1669 H 0.36663 0.27041 0.37889 0.0
H1670 H 0.36723 0.17689 0.42023 0.0
H1671 H 0.36921 0.18674 0.49579 0.0
H1672 H 0.38354 0.18862 0.33441 0.0
H1673 H 0.37945 0.20147 0.27065 0.0
C1674 C 0.784 0.03646 0.45054 0.0
C1675 C 0.78306 0.05485 0.4697 0.0
C1676 C 0.77897 0.0625 0.35959 0.0
C1677 C 0.78064 0.04458 0.34103 0.0
N1678 N 0.77683 0.0106 0.3682 0.0
N1679 N 0.77292 0.08139 0.44314 0.0
C1680 C 0.78019 0.03013 0.38671 0.0
C1681 C 0.77821 0.06648 0.42446 0.0
N1682 N 0.79049 0.02613 0.49117 0.0
N1683 N 0.77976 0.07666 0.31562 0.0
H1684 H 0.77263 0.08544 0.4897 0.0
H1685 H 0.76682 0.08837 0.41274 0.0
H1686 H 0.77926 0.07383 0.26765 0.0
H1687 H 0.78194 0.0917 0.32665 0.0
H1688 H 0.79372 0.01418 0.47719 0.0
H1689 H 0.79473 0.03068 0.53755 0.0
H1690 H 0.7745 0.99849 0.39934 0.0
H1691 H 0.77399 0.0059 0.32145 0.0
C1692 C 0.04116 0.38271 0.21061 0.0
C1693 C 0.02023 0.36791 0.18993 0.0
C1694 C 1.00738 0.35955 0.29816 0.0
C1695 C 0.02794 0.37578 0.31912 0.0
N1696 N 0.06606 0.39666 0.29712 0.0
N1697 N 0.98636 0.33665 0.21183 0.0
C1698 C 0.04542 0.38516 0.27582 0.0
C1699 C 1.0044 0.35431 0.23334 0.0
N1700 N 0.05652 0.39562 0.16839 0.0
N1701 N 0.9903 0.35044 0.33831 0.0
H1702 H 0.98409 0.33283 0.1642 0.0
H1703 H 0.97505 0.32486 0.24124 0.0
H1704 H 0.99151 0.35373 0.38603 0.0
H1705 H 0.97452 0.34051 0.32344 0.0
H1706 H 0.07114 0.40885 0.18121 0.0
H1707 H 0.05424 0.39368 0.12011 0.0
H1708 H 0.07949 0.40197 0.26832 0.0
H1709 H 0.0698 0.39917 0.34447 0.0
C1710 C 0.62723 0.53558 0.254 0.0
C1711 C 0.64404 0.55238 0.21916 0.0
C1712 C 0.65669 0.57392 0.31527 0.0
C1713 C 0.64111 0.55608 0.34986 0.0
N1714 N 0.61644 0.51807 0.35437 0.0
N1715 N 0.67721 0.58633 0.21858 0.0
C1716 C 0.62817 0.53625 0.31978 0.0
C1717 C 0.65957 0.5713 0.25025 0.0
N1718 N 0.60963 0.51957 0.22438 0.0
N1719 N 0.66817 0.59335 0.3439 0.0
H1720 H 0.67979 0.5848 0.17128 0.0
H1721 H 0.68999 0.59944 0.24039 0.0
H1722 H 0.6668 0.59539 0.39174 0.0
H1723 H 0.6781 0.60746 0.31966 0.0
H1724 H 0.59621 0.50794 0.24848 0.0
H1725 H 0.60724 0.51946 0.17615 0.0
H1726 H 0.60799 0.50287 0.33431 0.0
H1727 H 0.61711 0.51805 0.40324 0.0
C1728 C 0.42635 0.96933 0.29631 0.0
C1729 C 0.43846 0.98716 0.33594 0.0
C1730 C 0.44619 0.01089 0.24617 0.0
C1731 C 0.44012 0.99313 0.20581 0.0
N1732 N 0.42162 0.95488 0.19124 0.0
N1733 N 0.45774 0.02539 0.35064 0.0
C1734 C 0.42867 0.97208 0.23026 0.0
C1735 C 0.44717 0.00817 0.31184 0.0
N1736 N 0.41307 0.94979 0.32245 0.0
N1737 N 0.45175 0.03037 0.22079 0.0
H1738 H 0.45814 0.02382 0.39908 0.0
H1739 H 0.46668 0.04111 0.33467 0.0
H1740 H 0.45093 0.03233 0.17257 0.0
H1741 H 0.45505 0.04379 0.24733 0.0
H1742 H 0.40226 0.93649 0.2965 0.0
H1743 H 0.41144 0.94766 0.37096 0.0
H1744 H 0.41559 0.93924 0.20716 0.0
H1745 H 0.42244 0.95639 0.14264 0.0
C1746 C 0.61078 0.99531 0.82806 0.0
C1747 C 0.62557 0.99054 0.85739 0.0
C1748 C 0.64605 0.99886 0.75928 0.0
C1749 C 0.62943 1.00061 0.72857 0.0
N1750 N 0.59322 0.99456 0.73124 0.0
N1751 N 0.65633 0.98571 0.85038 0.0
C1752 C 0.611 0.99714 0.76234 0.0
C1753 C 0.64307 0.99182 0.82299 0.0
N1754 N 0.59654 0.99821 0.86331 0.0
N1755 N 0.6648 1.00448 0.72846 0.0
H1756 H 0.65482 0.9811 0.89729 0.0
H1757 H 0.66796 0.98409 0.82578 0.0
H1758 H 0.66735 0.0095 0.68185 0.0
H1759 H 0.67828 0.00559 0.75033 0.0
H1760 H 0.5866 1.00347 0.84444 0.0
H1761 H 0.5964 0.99762 0.91218 0.0
H1762 H 0.57868 0.99017 0.75354 0.0
H1763 H 0.59223 0.99424 0.68246 0.0
C1764 C 0.03313 0.5753 0.73238 0.0
C1765 C 0.02523 0.55496 0.70339 0.0
C1766 C 0.02219 0.53862 0.80579 0.0
C1767 C 0.03299 0.55907 0.8337 0.0
N1768 N 0.05096 0.59743 0.82344 0.0
N1769 N 0.01879 0.51872 0.71206 0.0
C1770 C 0.03906 0.57766 0.79704 0.0
C1771 C 0.02159 0.537 0.74005 0.0
N1772 N 0.03434 0.59205 0.6992 0.0
N1773 N 0.0127 0.52067 0.84236 0.0
H1774 H 0.02021 0.51749 0.6638 0.0
H1775 H 0.0178 0.50586 0.73725 0.0
H1776 H 0.01259 0.52143 0.8912 0.0
H1777 H 1.00308 0.50535 0.82403 0.0
H1778 H 0.03799 0.6066 0.71969 0.0
H1779 H 0.03012 0.59087 0.65206 0.0
H1780 H 0.0579 0.61159 0.79758 0.0
H1781 H 0.05478 0.59947 0.87105 0.0
C1782 C 0.45086 0.36221 0.74314 0.0
C1783 C 0.46891 0.37849 0.71052 0.0
C1784 C 0.48481 0.39629 0.80929 0.0
C1785 C 0.46561 0.38205 0.84109 0.0
N1786 N 0.42927 0.35248 0.83816 0.0
N1787 N 0.49994 0.41416 0.71163 0.0
C1788 C 0.44827 0.36516 0.80812 0.0
C1789 C 0.48498 0.39646 0.74342 0.0
N1790 N 0.43666 0.34382 0.71288 0.0
N1791 N 0.50293 0.40973 0.84234 0.0
H1792 H 0.49975 0.41554 0.66299 0.0
H1793 H 0.51089 0.42836 0.7339 0.0
H1794 H 0.50348 0.40956 0.89121 0.0
H1795 H 0.51785 0.41924 0.8212 0.0
H1796 H 0.42442 0.33056 0.73579 0.0
H1797 H 0.43808 0.34131 0.66543 0.0
H1798 H 0.41532 0.34138 0.81507 0.0
H1799 H 0.42725 0.35396 0.88594 0.0
loop_
_geom_bond_atom_site_label_1
_geom_bond_atom_site_label_2
_geom_bond_distance
_geom_bond_site_symmetry_2
_ccdc_geom_bond_type
O0 Cd1 2.223 . S
O0 C8 1.315 . S
Cd1 O0 2.223 . S
Cd1 O4 2.297 . S
Cd1 O5 2.439 . S
Cd1 O11 2.240 . S
Cd2 O3 2.240 . S
Cd2 O10 2.223 . S
Cd2 O12 2.297 . S
Cd2 O13 2.439 . S
O3 Cd2 2.240 . S
O3 C8 1.279 . S
O4 Cd1 2.297 . S
O4 C6 1.247 . S
O5 Cd1 2.439 . S
O5 C6 1.208 . S
C6 O4 1.247 . S
C6 O5 1.208 . S
C7 O12 1.247 . S
C7 O13 1.208 . S
C8 O0 1.315 . S
C8 O3 1.279 . S
C9 O10 1.315 . S
C9 O11 1.279 . S
O10 Cd2 2.223 . S
O10 C9 1.315 . S
O11 Cd1 2.240 . S
O11 C9 1.279 . S
O12 Cd2 2.297 . S
O12 C7 1.247 . S
O13 Cd2 2.439 . S
O13 C7 1.208 . S
O14 Cd15 2.223 . S
O14 C22 1.315 . S
Cd15 O14 2.223 . S
Cd15 O18 2.297 . S
Cd15 O19 2.439 . S
Cd15 O25 2.240 . S
Cd16 O17 2.240 . S
Cd16 O24 2.223 . S
Cd16 O26 2.297 . S
Cd16 O27 2.439 . S
O17 Cd16 2.240 . S
O17 C22 1.279 . S
O18 Cd15 2.297 . S
O18 C20 1.247 . S
O19 Cd15 2.439 . S
O19 C20 1.208 . S
C20 O18 1.247 . S
C20 O19 1.208 . S
C21 O26 1.247 . S
C21 O27 1.208 . S
C22 O14 1.315 . S
C22 O17 1.279 . S
C23 O24 1.315 . S
C23 O25 1.279 . S
O24 Cd16 2.223 . S
O24 C23 1.315 . S
O25 Cd15 2.240 . S
O25 C23 1.279 . S
O26 Cd16 2.297 . S
O26 C21 1.247 . S
O27 Cd16 2.439 . S
O27 C21 1.208 . S
O28 Cd29 2.223 . S
O28 C36 1.315 . S
Cd29 O28 2.223 . S
Cd29 O32 2.297 . S
Cd29 O33 2.439 . S
Cd29 O39 2.240 . S
Cd30 O31 2.240 . S
Cd30 O38 2.223 . S
Cd30 O40 2.297 . S
Cd30 O41 2.439 . S
O31 Cd30 2.240 . S
O31 C36 1.279 . S
O32 Cd29 2.297 . S
O32 C34 1.247 . S
O33 Cd29 2.439 . S
O33 C34 1.208 . S
C34 O32 1.247 . S
C34 O33 1.208 . S
C35 O40 1.247 . S
C35 O41 1.208 . S
C36 O28 1.315 . S
C36 O31 1.279 . S
C37 O38 1.315 . S
C37 O39 1.279 . S
O38 Cd30 2.223 . S
O38 C37 1.315 . S
O39 Cd29 2.240 . S
O39 C37 1.279 . S
O40 Cd30 2.297 . S
O40 C35 1.247 . S
O41 Cd30 2.439 . S
O41 C35 1.208 . S
O42 Cd43 2.223 . S
O42 C50 1.315 . S
Cd43 O42 2.223 . S
Cd43 O46 2.297 . S
Cd43 O47 2.439 . S
Cd43 O53 2.240 . S
Cd44 O45 2.240 . S
Cd44 O52 2.223 . S
Cd44 O54 2.297 . S
Cd44 O55 2.439 . S
O45 Cd44 2.240 . S
O45 C50 1.279 . S
O46 Cd43 2.297 . S
O46 C48 1.247 . S
O47 Cd43 2.439 . S
O47 C48 1.208 . S
C48 O46 1.247 . S
C48 O47 1.208 . S
C49 O54 1.247 . S
C49 O55 1.208 . S
C50 O42 1.315 . S
C50 O45 1.279 . S
C51 O52 1.315 . S
C51 O53 1.279 . S
O52 Cd44 2.223 . S
O52 C51 1.315 . S
O53 Cd43 2.240 . S
O53 C51 1.279 . S
O54 Cd44 2.297 . S
O54 C49 1.247 . S
O55 Cd44 2.439 . S
O55 C49 1.208 . S
O56 Cd57 2.223 . S
O56 C64 1.315 . S
Cd57 O56 2.223 . S
Cd57 O60 2.297 . S
Cd57 O61 2.439 . S
Cd57 O67 2.240 . S
Cd58 O59 2.240 . S
Cd58 O66 2.223 . S
Cd58 O68 2.297 . S
Cd58 O69 2.439 . S
O59 Cd58 2.240 . S
O59 C64 1.279 . S
O60 Cd57 2.297 . S
O60 C62 1.247 . S
O61 Cd57 2.439 . S
O61 C62 1.208 . S
C62 O60 1.247 . S
C62 O61 1.208 . S
C63 O68 1.247 . S
C63 O69 1.208 . S
C64 O56 1.315 . S
C64 O59 1.279 . S
C65 O66 1.315 . S
C65 O67 1.279 . S
O66 Cd58 2.223 . S
O66 C65 1.315 . S
O67 Cd57 2.240 . S
O67 C65 1.279 . S
O68 Cd58 2.297 . S
O68 C63 1.247 . S
O69 Cd58 2.439 . S
O69 C63 1.208 . S
O70 Cd71 2.223 . S
O70 C78 1.315 . S
Cd71 O70 2.223 . S
Cd71 O74 2.297 . S
Cd71 O75 2.439 . S
Cd71 O81 2.240 . S
Cd72 O73 2.240 . S
Cd72 O80 2.223 . S
Cd72 O82 2.297 . S
Cd72 O83 2.439 . S
O73 Cd72 2.240 . S
O73 C78 1.279 . S
O74 Cd71 2.297 . S
O74 C76 1.247 . S
O75 Cd71 2.439 . S
O75 C76 1.208 . S
C76 O74 1.247 . S
C76 O75 1.208 . S
C77 O82 1.247 . S
C77 O83 1.208 . S
C78 O70 1.315 . S
C78 O73 1.279 . S
C79 O80 1.315 . S
C79 O81 1.279 . S
O80 Cd72 2.223 . S
O80 C79 1.315 . S
O81 Cd71 2.240 . S
O81 C79 1.279 . S
O82 Cd72 2.297 . S
O82 C77 1.247 . S
O83 Cd72 2.439 . S
O83 C77 1.208 . S
O84 Cd85 2.223 . S
O84 C92 1.315 . S
Cd85 O84 2.223 . S
Cd85 O88 2.297 . S
Cd85 O89 2.439 . S
Cd85 O95 2.240 . S
Cd86 O87 2.240 . S
Cd86 O94 2.223 . S
Cd86 O96 2.297 . S
Cd86 O97 2.439 . S
O87 Cd86 2.240 . S
O87 C92 1.279 . S
O88 Cd85 2.297 . S
O88 C90 1.247 . S
O89 Cd85 2.439 . S
O89 C90 1.208 . S
C90 O88 1.247 . S
C90 O89 1.208 . S
C91 O96 1.247 . S
C91 O97 1.208 . S
C92 O84 1.315 . S
C92 O87 1.279 . S
C93 O94 1.315 . S
C93 O95 1.279 . S
O94 Cd86 2.223 . S
O94 C93 1.315 . S
O95 Cd85 2.240 . S
O95 C93 1.279 . S
O96 Cd86 2.297 . S
O96 C91 1.247 . S
O97 Cd86 2.439 . S
O97 C91 1.208 . S
O98 Cd99 2.223 . S
O98 C106 1.315 . S
Cd99 O98 2.223 . S
Cd99 O102 2.297 . S
Cd99 O103 2.439 . S
Cd99 O109 2.240 . S
Cd100 O101 2.240 . S
Cd100 O108 2.223 . S
Cd100 O110 2.297 . S
Cd100 O111 2.439 . S
O101 Cd100 2.240 . S
O101 C106 1.279 . S
O102 Cd99 2.297 . S
O102 C104 1.247 . S
O103 Cd99 2.439 . S
O103 C104 1.208 . S
C104 O102 1.247 . S
C104 O103 1.208 . S
C105 O110 1.247 . S
C105 O111 1.208 . S
C106 O98 1.315 . S
C106 O101 1.279 . S
C107 O108 1.315 . S
C107 O109 1.279 . S
O108 Cd100 2.223 . S
O108 C107 1.315 . S
O109 Cd99 2.240 . S
O109 C107 1.279 . S
O110 Cd100 2.297 . S
O110 C105 1.247 . S
O111 Cd100 2.439 . S
O111 C105 1.208 . S
O112 Cd113 2.223 . S
O112 C120 1.315 . S
Cd113 O112 2.223 . S
Cd113 O116 2.297 . S
Cd113 O117 2.439 . S
Cd113 O123 2.240 . S
Cd114 O115 2.240 . S
Cd114 O122 2.223 . S
Cd114 O124 2.297 . S
Cd114 O125 2.439 . S
O115 Cd114 2.240 . S
O115 C120 1.279 . S
O116 Cd113 2.297 . S
O116 C118 1.247 . S
O117 Cd113 2.439 . S
O117 C118 1.208 . S
C118 O116 1.247 . S
C118 O117 1.208 . S
C119 O124 1.247 . S
C119 O125 1.208 . S
C120 O112 1.315 . S
C120 O115 1.279 . S
C121 O122 1.315 . S
C121 O123 1.279 . S
O122 Cd114 2.223 . S
O122 C121 1.315 . S
O123 Cd113 2.240 . S
O123 C121 1.279 . S
O124 Cd114 2.297 . S
O124 C119 1.247 . S
O125 Cd114 2.439 . S
O125 C119 1.208 . S
O126 Cd127 2.223 . S
O126 C134 1.315 . S
Cd127 O126 2.223 . S
Cd127 O130 2.297 . S
Cd127 O131 2.439 . S
Cd127 O137 2.240 . S
Cd128 O129 2.240 . S
Cd128 O136 2.223 . S
Cd128 O138 2.297 . S
Cd128 O139 2.439 . S
O129 Cd128 2.240 . S
O129 C134 1.279 . S
O130 Cd127 2.297 . S
O130 C132 1.247 . S
O131 Cd127 2.439 . S
O131 C132 1.208 . S
C132 O130 1.247 . S
C132 O131 1.208 . S
C133 O138 1.247 . S
C133 O139 1.208 . S
C134 O126 1.315 . S
C134 O129 1.279 . S
C135 O136 1.315 . S
C135 O137 1.279 . S
O136 Cd128 2.223 . S
O136 C135 1.315 . S
O137 Cd127 2.240 . S
O137 C135 1.279 . S
O138 Cd128 2.297 . S
O138 C133 1.247 . S
O139 Cd128 2.439 . S
O139 C133 1.208 . S
O140 Cd141 2.223 . S
O140 C148 1.315 . S
Cd141 O140 2.223 . S
Cd141 O144 2.297 . S
Cd141 O145 2.439 . S
Cd141 O151 2.240 . S
Cd142 O143 2.240 . S
Cd142 O150 2.223 . S
Cd142 O152 2.297 . S
Cd142 O153 2.439 . S
O143 Cd142 2.240 . S
O143 C148 1.279 . S
O144 Cd141 2.297 . S
O144 C146 1.247 . S
O145 Cd141 2.439 . S
O145 C146 1.208 . S
C146 O144 1.247 . S
C146 O145 1.208 . S
C147 O152 1.247 . S
C147 O153 1.208 . S
C148 O140 1.315 . S
C148 O143 1.279 . S
C149 O150 1.315 . S
C149 O151 1.279 . S
O150 Cd142 2.223 . S
O150 C149 1.315 . S
O151 Cd141 2.240 . S
O151 C149 1.279 . S
O152 Cd142 2.297 . S
O152 C147 1.247 . S
O153 Cd142 2.439 . S
O153 C147 1.208 . S
O154 Cd155 2.223 . S
O154 C162 1.315 . S
Cd155 O154 2.223 . S
Cd155 O158 2.297 . S
Cd155 O159 2.439 . S
Cd155 O165 2.240 . S
Cd156 O157 2.240 . S
Cd156 O164 2.223 . S
Cd156 O166 2.297 . S
Cd156 O167 2.439 . S
O157 Cd156 2.240 . S
O157 C162 1.279 . S
O158 Cd155 2.297 . S
O158 C160 1.247 . S
O159 Cd155 2.439 . S
O159 C160 1.208 . S
C160 O158 1.247 . S
C160 O159 1.208 . S
C161 O166 1.247 . S
C161 O167 1.208 . S
C162 O154 1.315 . S
C162 O157 1.279 . S
C163 O164 1.315 . S
C163 O165 1.279 . S
O164 Cd156 2.223 . S
O164 C163 1.315 . S
O165 Cd155 2.240 . S
O165 C163 1.279 . S
O166 Cd156 2.297 . S
O166 C161 1.247 . S
O167 Cd156 2.439 . S
O167 C161 1.208 . S
O168 Cd169 2.223 . S
O168 C176 1.315 . S
Cd169 O168 2.223 . S
Cd169 O172 2.297 . S
Cd169 O173 2.439 . S
Cd169 O179 2.240 . S
Cd170 O171 2.240 . S
Cd170 O178 2.223 . S
Cd170 O180 2.297 . S
Cd170 O181 2.439 . S
O171 Cd170 2.240 . S
O171 C176 1.279 1_455 S
O172 Cd169 2.297 . S
O172 C174 1.247 . S
O173 Cd169 2.439 . S
O173 C174 1.208 . S
C174 O172 1.247 . S
C174 O173 1.208 . S
C175 O180 1.247 . S
C175 O181 1.208 . S
C176 O168 1.315 . S
C176 O171 1.279 1_655 S
C177 O178 1.315 1_655 S
C177 O179 1.279 . S
O178 Cd170 2.223 . S
O178 C177 1.315 1_455 S
O179 Cd169 2.240 . S
O179 C177 1.279 . S
O180 Cd170 2.297 . S
O180 C175 1.247 . S
O181 Cd170 2.439 . S
O181 C175 1.208 . S
O182 Cd183 2.223 . S
O182 C190 1.315 . S
Cd183 O182 2.223 . S
Cd183 O186 2.297 . S
Cd183 O187 2.439 . S
Cd183 O193 2.240 . S
Cd184 O185 2.240 . S
Cd184 O192 2.223 . S
Cd184 O194 2.297 . S
Cd184 O195 2.439 . S
O185 Cd184 2.240 . S
O185 C190 1.279 . S
O186 Cd183 2.297 . S
O186 C188 1.247 . S
O187 Cd183 2.439 . S
O187 C188 1.208 . S
C188 O186 1.247 . S
C188 O187 1.208 . S
C189 O194 1.247 . S
C189 O195 1.208 . S
C190 O182 1.315 . S
C190 O185 1.279 . S
C191 O192 1.315 . S
C191 O193 1.279 . S
O192 Cd184 2.223 . S
O192 C191 1.315 . S
O193 Cd183 2.240 . S
O193 C191 1.279 . S
O194 Cd184 2.297 . S
O194 C189 1.247 . S
O195 Cd184 2.439 . S
O195 C189 1.208 . S
O196 Cd197 2.223 . S
O196 C204 1.315 . S
Cd197 O196 2.223 . S
Cd197 O200 2.297 . S
Cd197 O201 2.439 . S
Cd197 O207 2.240 . S
Cd198 O199 2.240 . S
Cd198 O206 2.223 . S
Cd198 O208 2.297 . S
Cd198 O209 2.439 . S
O199 Cd198 2.240 . S
O199 C204 1.279 1_565 S
O200 Cd197 2.297 . S
O200 C202 1.247 . S
O201 Cd197 2.439 . S
O201 C202 1.208 . S
C202 O200 1.247 . S
C202 O201 1.208 . S
C203 O208 1.247 . S
C203 O209 1.208 . S
C204 O196 1.315 . S
C204 O199 1.279 1_545 S
C205 O206 1.315 1_545 S
C205 O207 1.279 . S
O206 Cd198 2.223 . S
O206 C205 1.315 1_565 S
O207 Cd197 2.240 . S
O207 C205 1.279 . S
O208 Cd198 2.297 . S
O208 C203 1.247 . S
O209 Cd198 2.439 . S
O209 C203 1.208 . S
O210 Cd211 2.223 . S
O210 C218 1.315 . S
Cd211 O210 2.223 . S
Cd211 O214 2.297 . S
Cd211 O215 2.439 . S
Cd211 O221 2.240 . S
Cd212 O213 2.240 . S
Cd212 O220 2.223 . S
Cd212 O222 2.297 . S
Cd212 O223 2.439 . S
O213 Cd212 2.240 . S
O213 C218 1.279 . S
O214 Cd211 2.297 . S
O214 C216 1.247 . S
O215 Cd211 2.439 . S
O215 C216 1.208 . S
C216 O214 1.247 . S
C216 O215 1.208 . S
C217 O222 1.247 . S
C217 O223 1.208 . S
C218 O210 1.315 . S
C218 O213 1.279 . S
C219 O220 1.315 . S
C219 O221 1.279 . S
O220 Cd212 2.223 . S
O220 C219 1.315 . S
O221 Cd211 2.240 . S
O221 C219 1.279 . S
O222 Cd212 2.297 . S
O222 C217 1.247 . S
O223 Cd212 2.439 . S
O223 C217 1.208 . S
O224 Cd225 2.223 . S
O224 C232 1.315 . S
Cd225 O224 2.223 . S
Cd225 O228 2.297 . S
Cd225 O229 2.439 . S
Cd225 O235 2.240 . S
Cd226 O227 2.240 . S
Cd226 O234 2.223 . S
Cd226 O236 2.297 1_545 S
Cd226 O237 2.439 1_545 S
O227 Cd226 2.240 . S
O227 C232 1.279 . S
O228 Cd225 2.297 . S
O228 C230 1.247 . S
O229 Cd225 2.439 . S
O229 C230 1.208 . S
C230 O228 1.247 . S
C230 O229 1.208 . S
C231 O236 1.247 . S
C231 O237 1.208 . S
C232 O224 1.315 . S
C232 O227 1.279 . S
C233 O234 1.315 . S
C233 O235 1.279 . S
O234 Cd226 2.223 . S
O234 C233 1.315 . S
O235 Cd225 2.240 . S
O235 C233 1.279 . S
O236 Cd226 2.297 1_565 S
O236 C231 1.247 . S
O237 Cd226 2.439 1_565 S
O237 C231 1.208 . S
O238 Cd239 2.223 . S
O238 C246 1.315 . S
Cd239 O238 2.223 . S
Cd239 O242 2.297 . S
Cd239 O243 2.439 . S
Cd239 O249 2.240 . S
Cd240 O241 2.240 . S
Cd240 O248 2.223 . S
Cd240 O250 2.297 1_655 S
Cd240 O251 2.439 1_655 S
O241 Cd240 2.240 . S
O241 C246 1.279 . S
O242 Cd239 2.297 . S
O242 C244 1.247 . S
O243 Cd239 2.439 . S
O243 C244 1.208 . S
C244 O242 1.247 . S
C244 O243 1.208 . S
C245 O250 1.247 . S
C245 O251 1.208 . S
C246 O238 1.315 . S
C246 O241 1.279 . S
C247 O248 1.315 . S
C247 O249 1.279 . S
O248 Cd240 2.223 . S
O248 C247 1.315 . S
O249 Cd239 2.240 . S
O249 C247 1.279 . S
O250 Cd240 2.297 1_455 S
O250 C245 1.247 . S
O251 Cd240 2.439 1_455 S
O251 C245 1.208 . S
O252 Cd253 2.223 . S
O252 C260 1.315 . S
Cd253 O252 2.223 . S
Cd253 O256 2.297 . S
Cd253 O257 2.439 . S
Cd253 O263 2.240 . S
Cd254 O255 2.240 . S
Cd254 O262 2.223 . S
Cd254 O264 2.297 . S
Cd254 O265 2.439 . S
O255 Cd254 2.240 . S
O255 C260 1.279 . S
O256 Cd253 2.297 . S
O256 C258 1.247 . S
O257 Cd253 2.439 . S
O257 C258 1.208 . S
C258 O256 1.247 . S
C258 O257 1.208 . S
C259 O264 1.247 . S
C259 O265 1.208 . S
C260 O252 1.315 . S
C260 O255 1.279 . S
C261 O262 1.315 . S
C261 O263 1.279 . S
O262 Cd254 2.223 . S
O262 C261 1.315 . S
O263 Cd253 2.240 . S
O263 C261 1.279 . S
O264 Cd254 2.297 . S
O264 C259 1.247 . S
O265 Cd254 2.439 . S
O265 C259 1.208 . S
O266 Cd267 2.223 . S
O266 C274 1.315 . S
Cd267 O266 2.223 . S
Cd267 O270 2.297 . S
Cd267 O271 2.439 . S
Cd267 O277 2.240 . S
Cd268 O269 2.240 . S
Cd268 O276 2.223 . S
Cd268 O278 2.297 1_545 S
Cd268 O279 2.439 1_545 S
O269 Cd268 2.240 . S
O269 C274 1.279 . S
O270 Cd267 2.297 . S
O270 C272 1.247 . S
O271 Cd267 2.439 . S
O271 C272 1.208 . S
C272 O270 1.247 . S
C272 O271 1.208 . S
C273 O278 1.247 . S
C273 O279 1.208 . S
C274 O266 1.315 . S
C274 O269 1.279 . S
C275 O276 1.315 . S
C275 O277 1.279 . S
O276 Cd268 2.223 . S
O276 C275 1.315 . S
O277 Cd267 2.240 . S
O277 C275 1.279 . S
O278 Cd268 2.297 1_565 S
O278 C273 1.247 . S
O279 Cd268 2.439 1_565 S
O279 C273 1.208 . S
O280 Cd281 2.223 . S
O280 C288 1.315 . S
Cd281 O280 2.223 . S
Cd281 O284 2.297 . S
Cd281 O285 2.439 . S
Cd281 O291 2.240 . S
Cd282 O283 2.240 . S
Cd282 O290 2.223 . S
Cd282 O292 2.297 1_655 S
Cd282 O293 2.439 1_655 S
O283 Cd282 2.240 . S
O283 C288 1.279 . S
O284 Cd281 2.297 . S
O284 C286 1.247 . S
O285 Cd281 2.439 . S
O285 C286 1.208 . S
C286 O284 1.247 . S
C286 O285 1.208 . S
C287 O292 1.247 . S
C287 O293 1.208 . S
C288 O280 1.315 . S
C288 O283 1.279 . S
C289 O290 1.315 . S
C289 O291 1.279 . S
O290 Cd282 2.223 . S
O290 C289 1.315 . S
O291 Cd281 2.240 . S
O291 C289 1.279 . S
O292 Cd282 2.297 1_455 S
O292 C287 1.247 . S
O293 Cd282 2.439 1_455 S
O293 C287 1.208 . S
O294 Cd295 2.226 . S
O294 C302 1.315 . S
Cd295 O294 2.226 . S
Cd295 O298 2.297 . S
Cd295 O299 2.451 . S
Cd295 O305 2.240 1_554 S
Cd296 O297 2.240 1_556 S
Cd296 O304 2.223 . S
Cd296 O306 2.297 . S
Cd296 O307 2.439 1_556 S
O297 Cd296 2.240 1_554 S
O297 C302 1.279 1_565 S
O298 Cd295 2.297 . S
O298 C300 1.247 . S
O299 Cd295 2.451 . S
O299 C300 1.224 . S
C300 O298 1.247 . S
C300 O299 1.224 . S
C301 O306 1.247 . S
C301 O307 1.209 1_556 S
C302 O294 1.315 . S
C302 O297 1.279 1_545 S
C303 O304 1.315 1_545 S
C303 O305 1.279 . S
O304 Cd296 2.223 . S
O304 C303 1.315 1_565 S
O305 Cd295 2.240 1_556 S
O305 C303 1.279 . S
O306 Cd296 2.297 . S
O306 C301 1.247 . S
O307 Cd296 2.439 1_554 S
O307 C301 1.209 1_554 S
O308 Cd309 2.226 . S
O308 C316 1.315 . S
Cd309 O308 2.226 . S
Cd309 O312 2.297 . S
Cd309 O313 2.439 . S
Cd309 O319 2.240 1_554 S
Cd310 O311 2.240 1_556 S
Cd310 O318 2.223 . S
Cd310 O320 2.297 . S
Cd310 O321 2.439 1_556 S
O311 Cd310 2.240 1_554 S
O311 C316 1.279 1_455 S
O312 Cd309 2.297 . S
O312 C314 1.247 . S
O313 Cd309 2.439 . S
O313 C314 1.208 . S
C314 O312 1.247 . S
C314 O313 1.208 . S
C315 O320 1.247 . S
C315 O321 1.209 1_556 S
C316 O308 1.315 . S
C316 O311 1.279 1_655 S
C317 O318 1.315 1_655 S
C317 O319 1.279 . S
O318 Cd310 2.223 . S
O318 C317 1.315 1_455 S
O319 Cd309 2.240 1_556 S
O319 C317 1.279 . S
O320 Cd310 2.297 . S
O320 C315 1.247 . S
O321 Cd310 2.439 1_554 S
O321 C315 1.209 1_554 S
O322 Cd323 2.226 . S
O322 C330 1.315 . S
Cd323 O322 2.226 . S
Cd323 O326 2.297 . S
Cd323 O327 2.439 . S
Cd323 O333 2.240 1_554 S
Cd324 O325 2.240 1_556 S
Cd324 O332 2.223 . S
Cd324 O334 2.297 . S
Cd324 O335 2.439 1_556 S
O325 Cd324 2.240 1_554 S
O325 C330 1.279 . S
O326 Cd323 2.297 . S
O326 C328 1.247 . S
O327 Cd323 2.439 . S
O327 C328 1.208 . S
C328 O326 1.247 . S
C328 O327 1.208 . S
C329 O334 1.247 . S
C329 O335 1.209 1_556 S
C330 O322 1.315 . S
C330 O325 1.279 . S
C331 O332 1.315 . S
C331 O333 1.279 . S
O332 Cd324 2.223 . S
O332 C331 1.315 . S
O333 Cd323 2.240 1_556 S
O333 C331 1.279 . S
O334 Cd324 2.297 . S
O334 C329 1.247 . S
O335 Cd324 2.439 1_554 S
O335 C329 1.209 1_554 S
O336 Cd337 2.223 . S
O336 C344 1.315 . S
Cd337 O336 2.223 . S
Cd337 O340 2.297 . S
Cd337 O341 2.439 . S
Cd337 O347 2.240 . S
Cd338 O339 2.240 . S
Cd338 O346 2.223 . S
Cd338 O348 2.297 . S
Cd338 O349 2.439 . S
O339 Cd338 2.240 . S
O339 C344 1.279 . S
O340 Cd337 2.297 . S
O340 C342 1.247 . S
O341 Cd337 2.439 . S
O341 C342 1.208 . S
C342 O340 1.247 . S
C342 O341 1.208 . S
C343 O348 1.247 . S
C343 O349 1.208 . S
C344 O336 1.315 . S
C344 O339 1.279 . S
C345 O346 1.315 . S
C345 O347 1.279 . S
O346 Cd338 2.223 . S
O346 C345 1.315 . S
O347 Cd337 2.240 . S
O347 C345 1.279 . S
O348 Cd338 2.297 . S
O348 C343 1.247 . S
O349 Cd338 2.439 . S
O349 C343 1.208 . S
O350 Cd351 2.223 . S
O350 C358 1.315 . S
Cd351 O350 2.223 . S
Cd351 O354 2.297 . S
Cd351 O355 2.439 . S
Cd351 O361 2.240 . S
Cd352 O353 2.240 . S
Cd352 O360 2.223 . S
Cd352 O362 2.297 . S
Cd352 O363 2.439 . S
O353 Cd352 2.240 . S
O353 C358 1.279 . S
O354 Cd351 2.297 . S
O354 C356 1.247 . S
O355 Cd351 2.439 . S
O355 C356 1.208 . S
C356 O354 1.247 . S
C356 O355 1.208 . S
C357 O362 1.247 . S
C357 O363 1.208 . S
C358 O350 1.315 . S
C358 O353 1.279 . S
C359 O360 1.315 . S
C359 O361 1.279 . S
O360 Cd352 2.223 . S
O360 C359 1.315 . S
O361 Cd351 2.240 . S
O361 C359 1.279 . S
O362 Cd352 2.297 . S
O362 C357 1.247 . S
O363 Cd352 2.439 . S
O363 C357 1.208 . S
O364 Cd365 2.223 . S
O364 C372 1.315 . S
Cd365 O364 2.223 . S
Cd365 O368 2.297 . S
Cd365 O369 2.439 . S
Cd365 O375 2.240 . S
Cd366 O367 2.240 . S
Cd366 O374 2.223 . S
Cd366 O376 2.297 . S
Cd366 O377 2.439 . S
O367 Cd366 2.240 . S
O367 C372 1.279 . S
O368 Cd365 2.297 . S
O368 C370 1.247 . S
O369 Cd365 2.439 . S
O369 C370 1.208 . S
C370 O368 1.247 . S
C370 O369 1.208 . S
C371 O376 1.247 . S
C371 O377 1.208 . S
C372 O364 1.315 . S
C372 O367 1.279 . S
C373 O374 1.315 . S
C373 O375 1.279 . S
O374 Cd366 2.223 . S
O374 C373 1.315 . S
O375 Cd365 2.240 . S
O375 C373 1.279 . S
O376 Cd366 2.297 . S
O376 C371 1.247 . S
O377 Cd366 2.439 . S
O377 C371 1.208 . S
O378 Cd379 2.225 . S
O378 C386 1.315 . S
Cd379 O378 2.225 . S
Cd379 O382 2.297 . S
Cd379 O383 2.439 . S
Cd379 O389 2.240 1_556 S
Cd380 O381 2.240 1_554 S
Cd380 O388 2.223 . S
Cd380 O390 2.297 . S
Cd380 O391 2.439 1_554 S
O381 Cd380 2.240 1_556 S
O381 C386 1.284 . S
O382 Cd379 2.297 . S
O382 C384 1.247 . S
O383 Cd379 2.439 . S
O383 C384 1.208 . S
C384 O382 1.247 . S
C384 O383 1.208 . S
C385 O390 1.247 . S
C385 O391 1.209 1_554 S
C386 O378 1.315 . S
C386 O381 1.284 . S
C387 O388 1.315 . S
C387 O389 1.279 . S
O388 Cd380 2.223 . S
O388 C387 1.315 . S
O389 Cd379 2.240 1_554 S
O389 C387 1.279 . S
O390 Cd380 2.297 . S
O390 C385 1.247 . S
O391 Cd380 2.439 1_556 S
O391 C385 1.209 1_556 S
O392 Cd393 2.225 . S
O392 C400 1.315 . S
Cd393 O392 2.225 . S
Cd393 O396 2.297 . S
Cd393 O397 2.439 . S
Cd393 O403 2.240 1_556 S
Cd394 O395 2.240 1_554 S
Cd394 O402 2.223 . S
Cd394 O404 2.297 . S
Cd394 O405 2.439 1_554 S
O395 Cd394 2.240 1_556 S
O395 C400 1.284 . S
O396 Cd393 2.297 . S
O396 C398 1.247 . S
O397 Cd393 2.439 . S
O397 C398 1.208 . S
C398 O396 1.247 . S
C398 O397 1.208 . S
C399 O404 1.247 . S
C399 O405 1.209 1_554 S
C400 O392 1.315 . S
C400 O395 1.284 . S
C401 O402 1.315 . S
C401 O403 1.279 . S
O402 Cd394 2.223 . S
O402 C401 1.315 . S
O403 Cd393 2.240 1_554 S
O403 C401 1.279 . S
O404 Cd394 2.297 . S
O404 C399 1.247 . S
O405 Cd394 2.439 1_556 S
O405 C399 1.209 1_556 S
O406 Cd407 2.225 . S
O406 C414 1.315 . S
Cd407 O406 2.225 . S
Cd407 O410 2.297 . S
Cd407 O411 2.439 . S
Cd407 O417 2.240 1_556 S
Cd408 O409 2.240 1_554 S
Cd408 O416 2.223 . S
Cd408 O418 2.297 . S
Cd408 O419 2.439 1_554 S
O409 Cd408 2.240 1_556 S
O409 C414 1.284 . S
O410 Cd407 2.297 . S
O410 C412 1.247 . S
O411 Cd407 2.439 . S
O411 C412 1.208 . S
C412 O410 1.247 . S
C412 O411 1.208 . S
C413 O418 1.247 . S
C413 O419 1.209 1_554 S
C414 O406 1.315 . S
C414 O409 1.284 . S
C415 O416 1.315 . S
C415 O417 1.279 . S
O416 Cd408 2.223 . S
O416 C415 1.315 . S
O417 Cd407 2.240 1_554 S
O417 C415 1.279 . S
O418 Cd408 2.297 . S
O418 C413 1.247 . S
O419 Cd408 2.439 1_556 S
O419 C413 1.209 1_556 S
O420 Cd421 2.223 . S
O420 C428 1.315 . S
Cd421 O420 2.223 . S
Cd421 O424 2.297 . S
Cd421 O425 2.439 . S
Cd421 O431 2.240 . S
Cd422 O423 2.240 . S
Cd422 O430 2.223 . S
Cd422 O432 2.297 . S
Cd422 O433 2.439 . S
O423 Cd422 2.240 . S
O423 C428 1.279 . S
O424 Cd421 2.297 . S
O424 C426 1.247 . S
O425 Cd421 2.439 . S
O425 C426 1.208 . S
C426 O424 1.247 . S
C426 O425 1.208 . S
C427 O432 1.247 . S
C427 O433 1.208 . S
C428 O420 1.315 . S
C428 O423 1.279 . S
C429 O430 1.315 . S
C429 O431 1.279 . S
O430 Cd422 2.223 . S
O430 C429 1.315 . S
O431 Cd421 2.240 . S
O431 C429 1.279 . S
O432 Cd422 2.297 . S
O432 C427 1.247 . S
O433 Cd422 2.439 . S
O433 C427 1.208 . S
O434 Cd435 2.223 . S
O434 C442 1.315 . S
Cd435 O434 2.223 . S
Cd435 O438 2.297 . S
Cd435 O439 2.439 . S
Cd435 O445 2.240 . S
Cd436 O437 2.240 . S
Cd436 O444 2.223 . S
Cd436 O446 2.297 . S
Cd436 O447 2.439 . S
O437 Cd436 2.240 . S
O437 C442 1.279 . S
O438 Cd435 2.297 . S
O438 C440 1.247 . S
O439 Cd435 2.439 . S
O439 C440 1.208 . S
C440 O438 1.247 . S
C440 O439 1.208 . S
C441 O446 1.247 . S
C441 O447 1.208 . S
C442 O434 1.315 . S
C442 O437 1.279 . S
C443 O444 1.315 . S
C443 O445 1.279 . S
O444 Cd436 2.223 . S
O444 C443 1.315 . S
O445 Cd435 2.240 . S
O445 C443 1.279 . S
O446 Cd436 2.297 . S
O446 C441 1.247 . S
O447 Cd436 2.439 . S
O447 C441 1.208 . S
O448 Cd449 2.223 . S
O448 C456 1.315 . S
Cd449 O448 2.223 . S
Cd449 O452 2.297 . S
Cd449 O453 2.439 . S
Cd449 O459 2.240 . S
Cd450 O451 2.240 . S
Cd450 O458 2.223 . S
Cd450 O460 2.297 . S
Cd450 O461 2.439 . S
O451 Cd450 2.240 . S
O451 C456 1.279 . S
O452 Cd449 2.297 . S
O452 C454 1.247 . S
O453 Cd449 2.439 . S
O453 C454 1.208 . S
C454 O452 1.247 . S
C454 O453 1.208 . S
C455 O460 1.247 . S
C455 O461 1.208 . S
C456 O448 1.315 . S
C456 O451 1.279 . S
C457 O458 1.315 . S
C457 O459 1.279 . S
O458 Cd450 2.223 . S
O458 C457 1.315 . S
O459 Cd449 2.240 . S
O459 C457 1.279 . S
O460 Cd450 2.297 . S
O460 C455 1.247 . S
O461 Cd450 2.439 . S
O461 C455 1.208 . S
O462 Cd463 2.223 . S
O462 C470 1.315 . S
Cd463 O462 2.223 . S
Cd463 O466 2.297 . S
Cd463 O467 2.439 . S
Cd463 O473 2.240 . S
Cd464 O465 2.240 . S
Cd464 O472 2.223 . S
Cd464 O474 2.297 . S
Cd464 O475 2.439 . S
O465 Cd464 2.240 . S
O465 C470 1.279 . S
O466 Cd463 2.297 . S
O466 C468 1.247 . S
O467 Cd463 2.439 . S
O467 C468 1.208 . S
C468 O466 1.247 . S
C468 O467 1.208 . S
C469 O474 1.247 . S
C469 O475 1.208 . S
C470 O462 1.315 . S
C470 O465 1.279 . S
C471 O472 1.315 . S
C471 O473 1.279 . S
O472 Cd464 2.223 . S
O472 C471 1.315 . S
O473 Cd463 2.240 . S
O473 C471 1.279 . S
O474 Cd464 2.297 . S
O474 C469 1.247 . S
O475 Cd464 2.439 . S
O475 C469 1.208 . S
O476 Cd477 2.223 . S
O476 C484 1.315 . S
Cd477 O476 2.223 . S
Cd477 O480 2.297 . S
Cd477 O481 2.439 . S
Cd477 O487 2.240 . S
Cd478 O479 2.240 . S
Cd478 O486 2.223 . S
Cd478 O488 2.297 . S
Cd478 O489 2.439 . S
O479 Cd478 2.240 . S
O479 C484 1.279 . S
O480 Cd477 2.297 . S
O480 C482 1.247 . S
O481 Cd477 2.439 . S
O481 C482 1.208 . S
C482 O480 1.247 . S
C482 O481 1.208 . S
C483 O488 1.247 . S
C483 O489 1.208 . S
C484 O476 1.315 . S
C484 O479 1.279 . S
C485 O486 1.315 . S
C485 O487 1.279 . S
O486 Cd478 2.223 . S
O486 C485 1.315 . S
O487 Cd477 2.240 . S
O487 C485 1.279 . S
O488 Cd478 2.297 . S
O488 C483 1.247 . S
O489 Cd478 2.439 . S
O489 C483 1.208 . S
O490 Cd491 2.223 . S
O490 C498 1.315 . S
Cd491 O490 2.223 . S
Cd491 O494 2.297 . S
Cd491 O495 2.439 . S
Cd491 O501 2.240 . S
Cd492 O493 2.240 . S
Cd492 O500 2.223 . S
Cd492 O502 2.297 . S
Cd492 O503 2.439 . S
O493 Cd492 2.240 . S
O493 C498 1.279 . S
O494 Cd491 2.297 . S
O494 C496 1.247 . S
O495 Cd491 2.439 . S
O495 C496 1.208 . S
C496 O494 1.247 . S
C496 O495 1.208 . S
C497 O502 1.247 . S
C497 O503 1.208 . S
C498 O490 1.315 . S
C498 O493 1.279 . S
C499 O500 1.315 . S
C499 O501 1.279 . S
O500 Cd492 2.223 . S
O500 C499 1.315 . S
O501 Cd491 2.240 . S
O501 C499 1.279 . S
O502 Cd492 2.297 . S
O502 C497 1.247 . S
O503 Cd492 2.439 . S
O503 C497 1.208 . S
C504 C505 1.363 . S
C504 C510 1.379 . S
C504 N512 1.356 . S
C505 C504 1.363 . S
C505 C511 1.363 . S
C506 C507 1.363 . S
C506 C511 1.379 . S
C506 N513 1.356 . S
C507 C506 1.363 . S
C507 C510 1.363 . S
N508 C510 1.356 . S
N508 H520 0.984 . S
N508 H521 0.985 . S
N509 C511 1.356 . S
N509 H514 0.984 . S
N509 H515 0.939 1_545 S
C510 C504 1.379 . S
C510 C507 1.363 . S
C510 N508 1.356 . S
C511 C505 1.363 . S
C511 C506 1.379 . S
C511 N509 1.356 . S
N512 C504 1.356 . S
N512 H518 0.984 . S
N512 H519 0.984 . S
N513 C506 1.356 . S
N513 H516 0.984 . S
N513 H517 0.985 . S
H514 N509 0.984 . S
H515 N509 0.939 1_565 S
H516 N513 0.984 . S
H517 N513 0.985 . S
H518 N512 0.984 . S
H519 N512 0.984 . S
H520 N508 0.984 . S
H521 N508 0.985 . S
C522 C523 1.363 . S
C522 C528 1.379 . S
C522 N530 1.356 . S
C523 C522 1.363 . S
C523 C529 1.363 . S
C524 C525 1.363 . S
C524 C529 1.379 . S
C524 N531 1.356 . S
C525 C524 1.363 . S
C525 C528 1.363 . S
N526 C528 1.356 . S
N526 H538 0.984 . S
N526 H539 0.985 . S
N527 C529 1.356 . S
N527 H532 0.984 . S
N527 H533 0.985 . S
C528 C522 1.379 . S
C528 C525 1.363 . S
C528 N526 1.356 . S
C529 C523 1.363 . S
C529 C524 1.379 . S
C529 N527 1.356 . S
N530 C522 1.356 . S
N530 H536 0.984 . S
N530 H537 0.984 . S
N531 C524 1.356 . S
N531 H534 0.984 . S
N531 H535 0.985 . S
H532 N527 0.984 . S
H533 N527 0.985 . S
H534 N531 0.984 . S
H535 N531 0.985 . S
H536 N530 0.984 . S
H537 N530 0.984 . S
H538 N526 0.984 . S
H539 N526 0.985 . S
C540 C541 1.363 . S
C540 C546 1.379 . S
C540 N548 1.356 . S
C541 C540 1.363 . S
C541 C547 1.363 . S
C542 C543 1.363 . S
C542 C547 1.379 . S
C542 N549 1.356 . S
C543 C542 1.363 . S
C543 C546 1.363 . S
N544 C546 1.356 . S
N544 H556 0.984 . S
N544 H557 0.985 . S
N545 C547 1.356 . S
N545 H550 0.984 . S
N545 H551 0.985 . S
C546 C540 1.379 . S
C546 C543 1.363 . S
C546 N544 1.356 . S
C547 C541 1.363 . S
C547 C542 1.379 . S
C547 N545 1.356 . S
N548 C540 1.356 . S
N548 H554 0.984 . S
N548 H555 0.984 . S
N549 C542 1.356 . S
N549 H552 0.984 . S
N549 H553 0.985 . S
H550 N545 0.984 . S
H551 N545 0.985 . S
H552 N549 0.984 . S
H553 N549 0.985 . S
H554 N548 0.984 . S
H555 N548 0.984 . S
H556 N544 0.984 . S
H557 N544 0.985 . S
C558 C559 1.363 . S
C558 C564 1.379 . S
C558 N566 1.356 1_554 S
C559 C558 1.363 . S
C559 C565 1.363 . S
C560 C561 1.363 . S
C560 C565 1.379 . S
C560 N567 1.356 . S
C561 C560 1.363 . S
C561 C564 1.363 . S
N562 C564 1.356 . S
N562 H574 0.984 . S
N562 H575 0.985 . S
N563 C565 1.356 . S
N563 H568 0.984 1_554 S
N563 H569 0.985 . S
C564 C558 1.379 . S
C564 C561 1.363 . S
C564 N562 1.356 . S
C565 C559 1.363 . S
C565 C560 1.379 . S
C565 N563 1.356 . S
N566 C558 1.356 1_556 S
N566 H572 0.986 . S
N566 H573 0.984 . S
N567 C560 1.356 . S
N567 H570 0.984 . S
N567 H571 0.985 . S
H568 N563 0.984 1_556 S
H569 N563 0.985 . S
H570 N567 0.984 . S
H571 N567 0.985 . S
H572 N566 0.986 . S
H573 N566 0.984 . S
H574 N562 0.984 . S
H575 N562 0.985 . S
C576 C577 1.363 . S
C576 C582 1.379 . S
C576 N584 1.356 . S
C577 C576 1.363 . S
C577 C583 1.363 . S
C578 C579 1.363 . S
C578 C583 1.379 . S
C578 N585 1.356 1_554 S
C579 C578 1.363 . S
C579 C582 1.363 . S
N580 C582 1.356 . S
N580 H592 0.984 . S
N580 H593 0.985 1_554 S
N581 C583 1.356 . S
N581 H586 0.984 . S
N581 H587 0.985 . S
C582 C576 1.379 . S
C582 C579 1.363 . S
C582 N580 1.356 . S
C583 C577 1.363 . S
C583 C578 1.379 . S
C583 N581 1.356 . S
N584 C576 1.356 . S
N584 H590 0.984 . S
N584 H591 0.984 . S
N585 C578 1.356 1_556 S
N585 H588 0.984 . S
N585 H589 0.985 1_556 S
H586 N581 0.984 . S
H587 N581 0.985 . S
H588 N585 0.984 . S
H589 N585 0.985 1_554 S
H590 N584 0.984 . S
H591 N584 0.984 . S
H592 N580 0.984 . S
H593 N580 0.985 1_556 S
C594 C595 1.363 . S
C594 C600 1.379 . S
C594 N602 1.356 . S
C595 C594 1.363 . S
C595 C601 1.363 . S
C596 C597 1.363 . S
C596 C601 1.379 . S
C596 N603 1.356 1_554 S
C597 C596 1.363 . S
C597 C600 1.363 . S
N598 C600 1.356 . S
N598 H610 0.984 . S
N598 H611 0.985 1_554 S
N599 C601 1.356 . S
N599 H604 0.984 . S
N599 H605 0.985 . S
C600 C594 1.379 . S
C600 C597 1.363 . S
C600 N598 1.356 . S
C601 C595 1.363 . S
C601 C596 1.379 . S
C601 N599 1.356 . S
N602 C594 1.356 . S
N602 H608 0.984 . S
N602 H609 0.984 . S
N603 C596 1.356 1_556 S
N603 H606 0.984 . S
N603 H607 0.985 . S
H604 N599 0.984 . S
H605 N599 0.985 . S
H606 N603 0.984 . S
H607 N603 0.985 . S
H608 N602 0.984 . S
H609 N602 0.984 . S
H610 N598 0.984 . S
H611 N598 0.985 1_556 S
C612 C613 1.363 . S
C612 C618 1.379 . S
C612 N620 1.356 . S
C613 C612 1.363 . S
C613 C619 1.363 . S
C614 C615 1.363 . S
C614 C619 1.379 . S
C614 N621 1.356 . S
C615 C614 1.363 . S
C615 C618 1.363 . S
N616 C618 1.356 . S
N616 H628 0.984 . S
N616 H629 0.985 . S
N617 C619 1.356 . S
N617 H622 0.984 . S
N617 H623 0.985 . S
C618 C612 1.379 . S
C618 C615 1.363 . S
C618 N616 1.356 . S
C619 C613 1.363 . S
C619 C614 1.379 . S
C619 N617 1.356 . S
N620 C612 1.356 . S
N620 H626 0.984 . S
N620 H627 0.984 . S
N621 C614 1.356 . S
N621 H624 0.984 . S
N621 H625 0.985 . S
H622 N617 0.984 . S
H623 N617 0.985 . S
H624 N621 0.984 . S
H625 N621 0.985 . S
H626 N620 0.984 . S
H627 N620 0.984 . S
H628 N616 0.984 . S
H629 N616 0.985 . S
C630 C631 1.363 . S
C630 C636 1.379 . S
C630 N638 1.356 . S
C631 C630 1.363 . S
C631 C637 1.363 . S
C632 C633 1.363 . S
C632 C637 1.379 . S
C632 N639 1.356 . S
C633 C632 1.363 . S
C633 C636 1.363 . S
N634 C636 1.356 . S
N634 H646 0.984 . S
N634 H647 0.985 . S
N635 C637 1.356 . S
N635 H640 0.984 . S
N635 H641 0.985 . S
C636 C630 1.379 . S
C636 C633 1.363 . S
C636 N634 1.356 . S
C637 C631 1.363 . S
C637 C632 1.379 . S
C637 N635 1.356 . S
N638 C630 1.356 . S
N638 H644 0.984 . S
N638 H645 0.984 . S
N639 C632 1.356 . S
N639 H642 0.984 . S
N639 H643 0.985 . S
H640 N635 0.984 . S
H641 N635 0.985 . S
H642 N639 0.984 . S
H643 N639 0.985 . S
H644 N638 0.984 . S
H645 N638 0.984 . S
H646 N634 0.984 . S
H647 N634 0.985 . S
C648 C649 1.363 . S
C648 C654 1.379 . S
C648 N656 1.356 . S
C649 C648 1.363 . S
C649 C655 1.363 . S
C650 C651 1.363 . S
C650 C655 1.379 . S
C650 N657 1.356 . S
C651 C650 1.363 . S
C651 C654 1.363 . S
N652 C654 1.356 . S
N652 H664 0.984 . S
N652 H665 0.985 . S
N653 C655 1.356 . S
N653 H658 0.984 . S
N653 H659 0.985 . S
C654 C648 1.379 . S
C654 C651 1.363 . S
C654 N652 1.356 . S
C655 C649 1.363 . S
C655 C650 1.379 . S
C655 N653 1.356 . S
N656 C648 1.356 . S
N656 H662 0.984 . S
N656 H663 0.984 . S
N657 C650 1.356 . S
N657 H660 0.984 . S
N657 H661 0.985 . S
H658 N653 0.984 . S
H659 N653 0.985 . S
H660 N657 0.984 . S
H661 N657 0.985 . S
H662 N656 0.984 . S
H663 N656 0.984 . S
H664 N652 0.984 . S
H665 N652 0.985 . S
C666 C667 1.363 . S
C666 C672 1.379 . S
C666 N674 1.356 . S
C667 C666 1.363 . S
C667 C673 1.363 . S
C668 C669 1.363 . S
C668 C673 1.379 . S
C668 N675 1.356 1_556 S
C669 C668 1.363 . S
C669 C672 1.363 . S
N670 C672 1.356 . S
N670 H682 0.984 1_655 S
N670 H683 0.985 1_556 S
N671 C673 1.356 . S
N671 H676 0.984 . S
N671 H677 0.985 . S
C672 C666 1.379 . S
C672 C669 1.363 . S
C672 N670 1.356 . S
C673 C667 1.363 . S
C673 C668 1.379 . S
C673 N671 1.356 . S
N674 C666 1.356 . S
N674 H680 0.984 . S
N674 H681 0.984 . S
N675 C668 1.356 1_554 S
N675 H678 0.984 . S
N675 H679 0.985 . S
H676 N671 0.984 . S
H677 N671 0.985 . S
H678 N675 0.984 . S
H679 N675 0.985 . S
H680 N674 0.984 . S
H681 N674 0.984 . S
H682 N670 0.984 1_455 S
H683 N670 0.985 1_554 S
C684 C685 1.363 . S
C684 C690 1.379 . S
C684 N692 1.356 1_556 S
C685 C684 1.363 . S
C685 C691 1.363 . S
C686 C687 1.363 . S
C686 C691 1.379 . S
C686 N693 1.356 . S
C687 C686 1.363 . S
C687 C690 1.363 . S
N688 C690 1.356 . S
N688 H700 0.984 . S
N688 H701 0.985 . S
N689 C691 1.356 . S
N689 H694 0.984 1_556 S
N689 H695 0.985 . S
C690 C684 1.379 . S
C690 C687 1.363 . S
C690 N688 1.356 . S
C691 C685 1.363 . S
C691 C686 1.379 . S
C691 N689 1.356 . S
N692 C684 1.356 1_554 S
N692 H698 0.986 . S
N692 H699 0.984 . S
N693 C686 1.356 . S
N693 H696 0.984 . S
N693 H697 0.985 . S
H694 N689 0.984 1_554 S
H695 N689 0.985 . S
H696 N693 0.984 . S
H697 N693 0.985 . S
H698 N692 0.986 . S
H699 N692 0.984 . S
H700 N688 0.984 . S
H701 N688 0.985 . S
C702 C703 1.363 . S
C702 C708 1.379 . S
C702 N710 1.356 . S
C703 C702 1.363 . S
C703 C709 1.363 . S
C704 C705 1.363 . S
C704 C709 1.379 . S
C704 N711 1.356 . S
C705 C704 1.363 . S
C705 C708 1.363 . S
N706 C708 1.356 . S
N706 H718 0.984 . S
N706 H719 0.985 1_556 S
N707 C709 1.356 . S
N707 H712 0.984 . S
N707 H713 0.985 . S
C708 C702 1.379 . S
C708 C705 1.363 . S
C708 N706 1.356 . S
C709 C703 1.363 . S
C709 C704 1.379 . S
C709 N707 1.356 . S
N710 C702 1.356 . S
N710 H716 0.984 . S
N710 H717 0.984 . S
N711 C704 1.356 . S
N711 H714 0.984 1_556 S
N711 H715 0.996 . S
H712 N707 0.984 . S
H713 N707 0.985 . S
H714 N711 0.984 1_554 S
H715 N711 0.996 . S
H716 N710 0.984 . S
H717 N710 0.984 . S
H718 N706 0.984 . S
H719 N706 0.985 1_554 S
C720 C721 1.363 . S
C720 C726 1.379 . S
C720 N728 1.356 . S
C721 C720 1.363 . S
C721 C727 1.363 . S
C722 C723 1.363 . S
C722 C727 1.379 . S
C722 N729 1.356 . S
C723 C722 1.363 . S
C723 C726 1.363 . S
N724 C726 1.356 . S
N724 H736 0.984 . S
N724 H737 0.985 . S
N725 C727 1.356 . S
N725 H730 0.984 . S
N725 H731 0.985 . S
C726 C720 1.379 . S
C726 C723 1.363 . S
C726 N724 1.356 . S
C727 C721 1.363 . S
C727 C722 1.379 . S
C727 N725 1.356 . S
N728 C720 1.356 . S
N728 H734 0.984 . S
N728 H735 0.984 . S
N729 C722 1.356 . S
N729 H732 0.984 . S
N729 H733 0.985 . S
H730 N725 0.984 . S
H731 N725 0.985 . S
H732 N729 0.984 . S
H733 N729 0.985 . S
H734 N728 0.984 . S
H735 N728 0.984 . S
H736 N724 0.984 . S
H737 N724 0.985 . S
C738 C739 1.363 . S
C738 C744 1.379 . S
C738 N746 1.356 . S
C739 C738 1.363 . S
C739 C745 1.363 . S
C740 C741 1.363 . S
C740 C745 1.379 . S
C740 N747 1.356 . S
C741 C740 1.363 . S
C741 C744 1.363 . S
N742 C744 1.356 . S
N742 H754 0.984 . S
N742 H755 0.985 . S
N743 C745 1.356 . S
N743 H748 0.984 . S
N743 H749 0.985 . S
C744 C738 1.379 . S
C744 C741 1.363 . S
C744 N742 1.356 . S
C745 C739 1.363 . S
C745 C740 1.379 . S
C745 N743 1.356 . S
N746 C738 1.356 . S
N746 H752 0.984 . S
N746 H753 0.984 . S
N747 C740 1.356 . S
N747 H750 0.984 . S
N747 H751 0.985 . S
H748 N743 0.984 . S
H749 N743 0.985 . S
H750 N747 0.984 . S
H751 N747 0.985 . S
H752 N746 0.984 . S
H753 N746 0.984 . S
H754 N742 0.984 . S
H755 N742 0.985 . S
C756 C757 1.363 . S
C756 C762 1.379 . S
C756 N764 1.356 . S
C757 C756 1.363 . S
C757 C763 1.363 . S
C758 C759 1.363 . S
C758 C763 1.379 . S
C758 N765 1.356 . S
C759 C758 1.363 . S
C759 C762 1.363 . S
N760 C762 1.356 . S
N760 H772 0.984 1_545 S
N760 H773 0.985 . S
N761 C763 1.356 . S
N761 H766 0.984 . S
N761 H767 0.985 . S
C762 C756 1.379 . S
C762 C759 1.363 . S
C762 N760 1.356 . S
C763 C757 1.363 . S
C763 C758 1.379 . S
C763 N761 1.356 . S
N764 C756 1.356 . S
N764 H770 0.984 . S
N764 H771 0.984 . S
N765 C758 1.356 . S
N765 H768 0.984 . S
N765 H769 0.985 . S
H766 N761 0.984 . S
H767 N761 0.985 . S
H768 N765 0.984 . S
H769 N765 0.985 . S
H770 N764 0.984 . S
H771 N764 0.984 . S
H772 N760 0.984 1_565 S
H773 N760 0.985 . S
C774 C775 1.363 . S
C774 C780 1.379 . S
C774 N782 1.356 1_545 S
C775 C774 1.363 . S
C775 C781 1.363 . S
C776 C777 1.363 . S
C776 C781 1.379 . S
C776 N783 1.356 . S
C777 C776 1.363 . S
C777 C780 1.363 . S
N778 C780 1.356 1_565 S
N778 H790 0.984 . S
N778 H791 0.985 . S
N779 C781 1.356 . S
N779 H784 0.984 . S
N779 H785 0.985 . S
C780 C774 1.379 . S
C780 C777 1.363 . S
C780 N778 1.356 1_545 S
C781 C775 1.363 . S
C781 C776 1.379 . S
C781 N779 1.356 . S
N782 C774 1.356 1_565 S
N782 H788 0.984 . S
N782 H789 0.984 1_565 S
N783 C776 1.356 . S
N783 H786 0.984 . S
N783 H787 0.985 . S
H784 N779 0.984 . S
H785 N779 0.985 . S
H786 N783 0.984 . S
H787 N783 0.985 . S
H788 N782 0.984 . S
H789 N782 0.984 1_545 S
H790 N778 0.984 . S
H791 N778 0.985 . S
C792 C793 1.363 . S
C792 C798 1.379 . S
C792 N800 1.356 . S
C793 C792 1.363 . S
C793 C799 1.363 . S
C794 C795 1.363 . S
C794 C799 1.379 . S
C794 N801 1.356 . S
C795 C794 1.363 . S
C795 C798 1.363 . S
N796 C798 1.356 . S
N796 H808 0.984 . S
N796 H809 0.985 . S
N797 C799 1.356 . S
N797 H802 0.984 . S
N797 H803 0.985 . S
C798 C792 1.379 . S
C798 C795 1.363 . S
C798 N796 1.356 . S
C799 C793 1.363 . S
C799 C794 1.379 . S
C799 N797 1.356 . S
N800 C792 1.356 . S
N800 H806 0.984 . S
N800 H807 0.984 . S
N801 C794 1.356 . S
N801 H804 0.984 . S
N801 H805 0.985 . S
H802 N797 0.984 . S
H803 N797 0.985 . S
H804 N801 0.984 . S
H805 N801 0.985 . S
H806 N800 0.984 . S
H807 N800 0.984 . S
H808 N796 0.984 . S
H809 N796 0.985 . S
C810 C811 1.363 . S
C810 C816 1.379 . S
C810 N818 1.356 . S
C811 C810 1.363 . S
C811 C817 1.363 . S
C812 C813 1.363 . S
C812 C817 1.379 . S
C812 N819 1.356 . S
C813 C812 1.363 . S
C813 C816 1.363 . S
N814 C816 1.356 . S
N814 H826 0.984 . S
N814 H827 0.985 . S
N815 C817 1.356 . S
N815 H820 0.984 . S
N815 H821 0.985 . S
C816 C810 1.379 . S
C816 C813 1.363 . S
C816 N814 1.356 . S
C817 C811 1.363 . S
C817 C812 1.379 . S
C817 N815 1.356 . S
N818 C810 1.356 . S
N818 H824 0.984 . S
N818 H825 0.984 . S
N819 C812 1.356 . S
N819 H822 0.984 . S
N819 H823 0.985 . S
H820 N815 0.984 . S
H821 N815 0.985 . S
H822 N819 0.984 . S
H823 N819 0.985 . S
H824 N818 0.984 . S
H825 N818 0.984 . S
H826 N814 0.984 . S
H827 N814 0.985 . S
C828 C829 1.363 . S
C828 C834 1.379 . S
C828 N836 1.356 . S
C829 C828 1.363 . S
C829 C835 1.363 . S
C830 C831 1.363 . S
C830 C835 1.379 . S
C830 N837 1.356 . S
C831 C830 1.363 . S
C831 C834 1.363 . S
N832 C834 1.356 . S
N832 H844 0.984 . S
N832 H845 0.985 . S
N833 C835 1.356 . S
N833 H838 0.984 . S
N833 H839 0.985 . S
C834 C828 1.379 . S
C834 C831 1.363 . S
C834 N832 1.356 . S
C835 C829 1.363 . S
C835 C830 1.379 . S
C835 N833 1.356 . S
N836 C828 1.356 . S
N836 H842 0.984 . S
N836 H843 0.984 . S
N837 C830 1.356 . S
N837 H840 0.984 . S
N837 H841 0.985 . S
H838 N833 0.984 . S
H839 N833 0.985 . S
H840 N837 0.984 . S
H841 N837 0.985 . S
H842 N836 0.984 . S
H843 N836 0.984 . S
H844 N832 0.984 . S
H845 N832 0.985 . S
C846 C847 1.363 . S
C846 C852 1.379 . S
C846 N854 1.356 . S
C847 C846 1.363 . S
C847 C853 1.363 . S
C848 C849 1.363 . S
C848 C853 1.379 . S
C848 N855 1.356 . S
C849 C848 1.363 . S
C849 C852 1.363 . S
N850 C852 1.356 . S
N850 H862 0.984 . S
N850 H863 0.985 . S
N851 C853 1.356 . S
N851 H856 0.984 . S
N851 H857 0.985 . S
C852 C846 1.379 . S
C852 C849 1.363 . S
C852 N850 1.356 . S
C853 C847 1.363 . S
C853 C848 1.379 . S
C853 N851 1.356 . S
N854 C846 1.356 . S
N854 H860 0.984 . S
N854 H861 0.984 . S
N855 C848 1.356 . S
N855 H858 0.984 . S
N855 H859 0.985 . S
H856 N851 0.984 . S
H857 N851 0.985 . S
H858 N855 0.984 . S
H859 N855 0.985 . S
H860 N854 0.984 . S
H861 N854 0.984 . S
H862 N850 0.984 . S
H863 N850 0.985 . S
C864 C865 1.363 . S
C864 C870 1.379 . S
C864 N872 1.356 . S
C865 C864 1.363 . S
C865 C871 1.363 . S
C866 C867 1.363 . S
C866 C871 1.379 . S
C866 N873 1.356 . S
C867 C866 1.363 . S
C867 C870 1.363 . S
N868 C870 1.356 . S
N868 H880 0.984 . S
N868 H881 0.985 . S
N869 C871 1.356 . S
N869 H874 0.984 . S
N869 H875 0.985 . S
C870 C864 1.379 . S
C870 C867 1.363 . S
C870 N868 1.356 . S
C871 C865 1.363 . S
C871 C866 1.379 . S
C871 N869 1.356 . S
N872 C864 1.356 . S
N872 H878 0.984 . S
N872 H879 0.984 . S
N873 C866 1.356 . S
N873 H876 0.984 . S
N873 H877 0.985 . S
H874 N869 0.984 . S
H875 N869 0.985 . S
H876 N873 0.984 . S
H877 N873 0.985 . S
H878 N872 0.984 . S
H879 N872 0.984 . S
H880 N868 0.984 . S
H881 N868 0.985 . S
C882 C883 1.363 . S
C882 C888 1.379 . S
C882 N890 1.356 . S
C883 C882 1.363 . S
C883 C889 1.363 . S
C884 C885 1.363 . S
C884 C889 1.379 . S
C884 N891 1.356 . S
C885 C884 1.363 . S
C885 C888 1.363 . S
N886 C888 1.356 . S
N886 H898 0.984 . S
N886 H899 0.985 . S
N887 C889 1.356 . S
N887 H892 0.984 . S
N887 H893 0.985 . S
C888 C882 1.379 . S
C888 C885 1.363 . S
C888 N886 1.356 . S
C889 C883 1.363 . S
C889 C884 1.379 . S
C889 N887 1.356 . S
N890 C882 1.356 . S
N890 H896 0.984 . S
N890 H897 0.984 . S
N891 C884 1.356 . S
N891 H894 0.984 . S
N891 H895 0.985 . S
H892 N887 0.984 . S
H893 N887 0.985 . S
H894 N891 0.984 . S
H895 N891 0.985 . S
H896 N890 0.984 . S
H897 N890 0.984 . S
H898 N886 0.984 . S
H899 N886 0.985 . S
C900 C901 1.363 . S
C900 C906 1.379 . S
C900 N908 1.356 . S
C901 C900 1.363 . S
C901 C907 1.363 . S
C902 C903 1.363 . S
C902 C907 1.379 . S
C902 N909 1.356 . S
C903 C902 1.363 . S
C903 C906 1.363 . S
N904 C906 1.356 . S
N904 H916 0.984 . S
N904 H917 0.985 . S
N905 C907 1.356 . S
N905 H910 0.984 . S
N905 H911 0.985 . S
C906 C900 1.379 . S
C906 C903 1.363 . S
C906 N904 1.356 . S
C907 C901 1.363 . S
C907 C902 1.379 . S
C907 N905 1.356 . S
N908 C900 1.356 . S
N908 H914 0.984 . S
N908 H915 0.984 . S
N909 C902 1.356 . S
N909 H912 0.984 . S
N909 H913 0.985 . S
H910 N905 0.984 . S
H911 N905 0.985 . S
H912 N909 0.984 . S
H913 N909 0.985 . S
H914 N908 0.984 . S
H915 N908 0.984 . S
H916 N904 0.984 . S
H917 N904 0.985 . S
C918 C919 1.363 . S
C918 C924 1.379 . S
C918 N926 1.356 . S
C919 C918 1.363 . S
C919 C925 1.363 . S
C920 C921 1.363 . S
C920 C925 1.379 . S
C920 N927 1.356 . S
C921 C920 1.363 . S
C921 C924 1.363 . S
N922 C924 1.356 . S
N922 H934 0.984 . S
N922 H935 0.985 . S
N923 C925 1.356 . S
N923 H928 0.984 . S
N923 H929 0.985 . S
C924 C918 1.379 . S
C924 C921 1.363 . S
C924 N922 1.356 . S
C925 C919 1.363 . S
C925 C920 1.379 . S
C925 N923 1.356 . S
N926 C918 1.356 . S
N926 H932 0.984 . S
N926 H933 0.984 . S
N927 C920 1.356 . S
N927 H930 0.984 . S
N927 H931 0.985 . S
H928 N923 0.984 . S
H929 N923 0.985 . S
H930 N927 0.984 . S
H931 N927 0.985 . S
H932 N926 0.984 . S
H933 N926 0.984 . S
H934 N922 0.984 . S
H935 N922 0.985 . S
C936 C937 1.363 . S
C936 C942 1.379 . S
C936 N944 1.356 . S
C937 C936 1.363 . S
C937 C943 1.363 . S
C938 C939 1.363 . S
C938 C943 1.379 . S
C938 N945 1.356 . S
C939 C938 1.363 . S
C939 C942 1.363 . S
N940 C942 1.356 . S
N940 H952 0.984 . S
N940 H953 0.985 . S
N941 C943 1.356 . S
N941 H946 0.984 . S
N941 H947 0.985 . S
C942 C936 1.379 . S
C942 C939 1.363 . S
C942 N940 1.356 . S
C943 C937 1.363 . S
C943 C938 1.379 . S
C943 N941 1.356 . S
N944 C936 1.356 . S
N944 H950 0.984 . S
N944 H951 0.984 . S
N945 C938 1.356 . S
N945 H948 0.984 . S
N945 H949 0.985 . S
H946 N941 0.984 . S
H947 N941 0.985 . S
H948 N945 0.984 . S
H949 N945 0.985 . S
H950 N944 0.984 . S
H951 N944 0.984 . S
H952 N940 0.984 . S
H953 N940 0.985 . S
C954 C955 1.363 . S
C954 C960 1.379 . S
C954 N962 1.356 . S
C955 C954 1.363 . S
C955 C961 1.363 . S
C956 C957 1.363 . S
C956 C961 1.379 . S
C956 N963 1.356 . S
C957 C956 1.363 . S
C957 C960 1.363 . S
N958 C960 1.356 . S
N958 H970 0.984 . S
N958 H971 0.985 . S
N959 C961 1.356 . S
N959 H964 0.984 . S
N959 H965 0.985 . S
C960 C954 1.379 . S
C960 C957 1.363 . S
C960 N958 1.356 . S
C961 C955 1.363 . S
C961 C956 1.379 . S
C961 N959 1.356 . S
N962 C954 1.356 . S
N962 H968 0.984 . S
N962 H969 0.984 . S
N963 C956 1.356 . S
N963 H966 0.984 . S
N963 H967 0.985 . S
H964 N959 0.984 . S
H965 N959 0.985 . S
H966 N963 0.984 . S
H967 N963 0.985 . S
H968 N962 0.984 . S
H969 N962 0.984 . S
H970 N958 0.984 . S
H971 N958 0.985 . S
C972 C973 1.363 . S
C972 C978 1.379 . S
C972 N980 1.356 . S
C973 C972 1.363 . S
C973 C979 1.363 . S
C974 C975 1.363 . S
C974 C979 1.379 . S
C974 N981 1.356 . S
C975 C974 1.363 . S
C975 C978 1.363 . S
N976 C978 1.356 . S
N976 H988 0.984 . S
N976 H989 0.985 . S
N977 C979 1.356 . S
N977 H982 0.984 . S
N977 H983 0.985 . S
C978 C972 1.379 . S
C978 C975 1.363 . S
C978 N976 1.356 . S
C979 C973 1.363 . S
C979 C974 1.379 . S
C979 N977 1.356 . S
N980 C972 1.356 . S
N980 H986 0.984 . S
N980 H987 0.984 . S
N981 C974 1.356 . S
N981 H984 0.984 . S
N981 H985 0.985 . S
H982 N977 0.984 . S
H983 N977 0.985 . S
H984 N981 0.984 . S
H985 N981 0.985 . S
H986 N980 0.984 . S
H987 N980 0.984 . S
H988 N976 0.984 . S
H989 N976 0.985 . S
C990 C991 1.363 . S
C990 C996 1.379 . S
C990 N998 1.356 . S
C991 C990 1.363 . S
C991 C997 1.363 . S
C992 C993 1.363 . S
C992 C997 1.379 . S
C992 N999 1.356 . S
C993 C992 1.363 . S
C993 C996 1.363 . S
N994 C996 1.356 . S
N994 H1006 0.984 . S
N994 H1007 0.985 . S
N995 C997 1.356 . S
N995 H1000 0.984 . S
N995 H1001 0.985 . S
C996 C990 1.379 . S
C996 C993 1.363 . S
C996 N994 1.356 . S
C997 C991 1.363 . S
C997 C992 1.379 . S
C997 N995 1.356 . S
N998 C990 1.356 . S
N998 H1004 0.984 . S
N998 H1005 0.984 . S
N999 C992 1.356 . S
N999 H1002 0.984 . S
N999 H1003 0.985 . S
H1000 N995 0.984 . S
H1001 N995 0.985 . S
H1002 N999 0.984 . S
H1003 N999 0.985 . S
H1004 N998 0.984 . S
H1005 N998 0.984 . S
H1006 N994 0.984 . S
H1007 N994 0.985 . S
C1008 C1009 1.363 . S
C1008 C1014 1.379 . S
C1008 N1016 1.356 . S
C1009 C1008 1.363 . S
C1009 C1015 1.363 . S
C1010 C1011 1.363 . S
C1010 C1015 1.379 . S
C1010 N1017 1.356 . S
C1011 C1010 1.363 . S
C1011 C1014 1.363 . S
N1012 C1014 1.356 . S
N1012 H1024 0.984 . S
N1012 H1025 0.985 . S
N1013 C1015 1.356 . S
N1013 H1018 0.984 . S
N1013 H1019 0.985 . S
C1014 C1008 1.379 . S
C1014 C1011 1.363 . S
C1014 N1012 1.356 . S
C1015 C1009 1.363 . S
C1015 C1010 1.379 . S
C1015 N1013 1.356 . S
N1016 C1008 1.356 . S
N1016 H1022 0.984 . S
N1016 H1023 0.984 . S
N1017 C1010 1.356 . S
N1017 H1020 0.984 . S
N1017 H1021 0.985 . S
H1018 N1013 0.984 . S
H1019 N1013 0.985 . S
H1020 N1017 0.984 . S
H1021 N1017 0.985 . S
H1022 N1016 0.984 . S
H1023 N1016 0.984 . S
H1024 N1012 0.984 . S
H1025 N1012 0.985 . S
C1026 C1027 1.363 . S
C1026 C1032 1.379 . S
C1026 N1034 1.356 . S
C1027 C1026 1.363 . S
C1027 C1033 1.363 . S
C1028 C1029 1.363 . S
C1028 C1033 1.379 . S
C1028 N1035 1.356 . S
C1029 C1028 1.363 . S
C1029 C1032 1.363 . S
N1030 C1032 1.356 . S
N1030 H1042 0.984 . S
N1030 H1043 0.985 . S
N1031 C1033 1.356 . S
N1031 H1036 0.984 . S
N1031 H1037 0.985 . S
C1032 C1026 1.379 . S
C1032 C1029 1.363 . S
C1032 N1030 1.356 . S
C1033 C1027 1.363 . S
C1033 C1028 1.379 . S
C1033 N1031 1.356 . S
N1034 C1026 1.356 . S
N1034 H1040 0.984 . S
N1034 H1041 0.984 . S
N1035 C1028 1.356 . S
N1035 H1038 0.984 . S
N1035 H1039 0.985 . S
H1036 N1031 0.984 . S
H1037 N1031 0.985 . S
H1038 N1035 0.984 . S
H1039 N1035 0.985 . S
H1040 N1034 0.984 . S
H1041 N1034 0.984 . S
H1042 N1030 0.984 . S
H1043 N1030 0.985 . S
C1044 C1045 1.363 . S
C1044 C1050 1.379 . S
C1044 N1052 1.356 . S
C1045 C1044 1.363 . S
C1045 C1051 1.363 . S
C1046 C1047 1.363 . S
C1046 C1051 1.379 . S
C1046 N1053 1.356 . S
C1047 C1046 1.363 . S
C1047 C1050 1.363 . S
N1048 C1050 1.356 . S
N1048 H1060 0.984 . S
N1048 H1061 0.985 . S
N1049 C1051 1.356 . S
N1049 H1054 0.984 . S
N1049 H1055 0.985 . S
C1050 C1044 1.379 . S
C1050 C1047 1.363 . S
C1050 N1048 1.356 . S
C1051 C1045 1.363 . S
C1051 C1046 1.379 . S
C1051 N1049 1.356 . S
N1052 C1044 1.356 . S
N1052 H1058 0.984 . S
N1052 H1059 0.984 . S
N1053 C1046 1.356 . S
N1053 H1056 0.984 . S
N1053 H1057 0.985 . S
H1054 N1049 0.984 . S
H1055 N1049 0.985 . S
H1056 N1053 0.984 . S
H1057 N1053 0.985 . S
H1058 N1052 0.984 . S
H1059 N1052 0.984 . S
H1060 N1048 0.984 . S
H1061 N1048 0.985 . S
C1062 C1063 1.363 . S
C1062 C1068 1.379 . S
C1062 N1070 1.356 . S
C1063 C1062 1.363 . S
C1063 C1069 1.363 . S
C1064 C1065 1.363 . S
C1064 C1069 1.379 . S
C1064 N1071 1.356 . S
C1065 C1064 1.363 . S
C1065 C1068 1.363 . S
N1066 C1068 1.356 . S
N1066 H1078 0.984 . S
N1066 H1079 0.985 . S
N1067 C1069 1.356 . S
N1067 H1072 0.984 . S
N1067 H1073 0.985 . S
C1068 C1062 1.379 . S
C1068 C1065 1.363 . S
C1068 N1066 1.356 . S
C1069 C1063 1.363 . S
C1069 C1064 1.379 . S
C1069 N1067 1.356 . S
N1070 C1062 1.356 . S
N1070 H1076 0.984 . S
N1070 H1077 0.984 . S
N1071 C1064 1.356 . S
N1071 H1074 0.984 . S
N1071 H1075 0.985 . S
H1072 N1067 0.984 . S
H1073 N1067 0.985 . S
H1074 N1071 0.984 . S
H1075 N1071 0.985 . S
H1076 N1070 0.984 . S
H1077 N1070 0.984 . S
H1078 N1066 0.984 . S
H1079 N1066 0.985 . S
C1080 C1081 1.363 . S
C1080 C1086 1.379 . S
C1080 N1088 1.356 . S
C1081 C1080 1.363 . S
C1081 C1087 1.363 . S
C1082 C1083 1.363 . S
C1082 C1087 1.379 . S
C1082 N1089 1.329 1_545 S
C1083 C1082 1.363 . S
C1083 C1086 1.363 . S
N1084 C1086 1.356 . S
N1084 H1096 0.984 . S
N1084 H1097 0.985 . S
N1085 C1087 1.356 . S
N1085 H1090 0.984 . S
N1085 H1091 0.985 . S
C1086 C1080 1.379 . S
C1086 C1083 1.363 . S
C1086 N1084 1.356 . S
C1087 C1081 1.363 . S
C1087 C1082 1.379 . S
C1087 N1085 1.356 . S
N1088 C1080 1.356 . S
N1088 H1094 0.984 . S
N1088 H1095 0.984 . S
N1089 C1082 1.329 1_565 S
N1089 H1092 0.985 . S
N1089 H1093 1.013 . S
H1090 N1085 0.984 . S
H1091 N1085 0.985 . S
H1092 N1089 0.985 . S
H1093 N1089 1.013 . S
H1094 N1088 0.984 . S
H1095 N1088 0.984 . S
H1096 N1084 0.984 . S
H1097 N1084 0.985 . S
C1098 C1099 1.363 1_556 S
C1098 C1104 1.379 . S
C1098 N1106 1.356 . S
C1099 C1098 1.363 1_554 S
C1099 C1105 1.363 . S
C1100 C1101 1.363 1_554 S
C1100 C1105 1.379 . S
C1100 N1107 1.356 . S
C1101 C1100 1.363 1_556 S
C1101 C1104 1.363 . S
N1102 C1104 1.356 . S
N1102 H1114 0.984 . S
N1102 H1115 0.985 1_545 S
N1103 C1105 1.356 . S
N1103 H1108 0.984 . S
N1103 H1109 0.985 . S
C1104 C1098 1.379 . S
C1104 C1101 1.363 . S
C1104 N1102 1.356 . S
C1105 C1099 1.363 . S
C1105 C1100 1.379 . S
C1105 N1103 1.356 . S
N1106 C1098 1.356 . S
N1106 H1112 0.984 . S
N1106 H1113 0.984 . S
N1107 C1100 1.356 . S
N1107 H1110 0.984 . S
N1107 H1111 0.985 . S
H1108 N1103 0.984 . S
H1109 N1103 0.985 . S
H1110 N1107 0.984 . S
H1111 N1107 0.985 . S
H1112 N1106 0.984 . S
H1113 N1106 0.984 . S
H1114 N1102 0.984 . S
H1115 N1102 0.985 1_565 S
C1116 C1117 1.363 1_554 S
C1116 C1122 1.379 . S
C1116 N1124 1.356 . S
C1117 C1116 1.363 1_556 S
C1117 C1123 1.363 . S
C1118 C1119 1.363 1_556 S
C1118 C1123 1.379 . S
C1118 N1125 1.356 . S
C1119 C1118 1.363 1_554 S
C1119 C1122 1.363 . S
N1120 C1122 1.356 . S
N1120 H1132 0.984 . S
N1120 H1133 0.985 . S
N1121 C1123 1.356 . S
N1121 H1126 0.984 . S
N1121 H1127 0.985 . S
C1122 C1116 1.379 . S
C1122 C1119 1.363 . S
C1122 N1120 1.356 . S
C1123 C1117 1.363 . S
C1123 C1118 1.379 . S
C1123 N1121 1.356 . S
N1124 C1116 1.356 . S
N1124 H1130 0.963 1_655 S
N1124 H1131 0.984 1_655 S
N1125 C1118 1.356 . S
N1125 H1128 0.984 . S
N1125 H1129 0.985 . S
H1126 N1121 0.984 . S
H1127 N1121 0.985 . S
H1128 N1125 0.984 . S
H1129 N1125 0.985 . S
H1130 N1124 0.963 1_455 S
H1131 N1124 0.984 1_455 S
H1132 N1120 0.984 . S
H1133 N1120 0.985 . S
C1134 C1135 1.363 . S
C1134 C1140 1.379 . S
C1134 N1142 1.356 . S
C1135 C1134 1.363 . S
C1135 C1141 1.363 1_556 S
C1136 C1137 1.363 . S
C1136 C1141 1.379 . S
C1136 N1143 1.356 . S
C1137 C1136 1.363 . S
C1137 C1140 1.363 1_554 S
N1138 C1140 1.356 . S
N1138 H1150 0.984 . S
N1138 H1151 0.985 . S
N1139 C1141 1.356 . S
N1139 H1144 0.984 . S
N1139 H1145 0.985 . S
C1140 C1134 1.379 . S
C1140 C1137 1.363 1_556 S
C1140 N1138 1.356 . S
C1141 C1135 1.363 1_554 S
C1141 C1136 1.379 . S
C1141 N1139 1.356 . S
N1142 C1134 1.356 . S
N1142 H1148 0.984 . S
N1142 H1149 0.984 . S
N1143 C1136 1.356 . S
N1143 H1146 0.984 . S
N1143 H1147 0.985 . S
H1144 N1139 0.984 . S
H1145 N1139 0.985 . S
H1146 N1143 0.984 . S
H1147 N1143 0.985 . S
H1148 N1142 0.984 . S
H1149 N1142 0.984 . S
H1150 N1138 0.984 . S
H1151 N1138 0.985 . S
C1152 C1153 1.363 . S
C1152 C1158 1.379 . S
C1152 N1160 1.356 . S
C1153 C1152 1.363 . S
C1153 C1159 1.363 . S
C1154 C1155 1.363 . S
C1154 C1159 1.379 . S
C1154 N1161 1.349 1_554 S
C1155 C1154 1.363 . S
C1155 C1158 1.363 . S
N1156 C1158 1.356 . S
N1156 H1168 0.984 . S
N1156 H1169 0.985 . S
N1157 C1159 1.356 1_556 S
N1157 H1162 0.984 . S
N1157 H1163 0.985 . S
C1158 C1152 1.379 . S
C1158 C1155 1.363 . S
C1158 N1156 1.356 . S
C1159 C1153 1.363 . S
C1159 C1154 1.379 . S
C1159 N1157 1.356 1_554 S
N1160 C1152 1.356 . S
N1160 H1166 0.984 . S
N1160 H1167 0.984 . S
N1161 C1154 1.349 1_556 S
N1161 H1164 0.975 1_556 S
N1161 H1165 1.002 . S
H1162 N1157 0.984 . S
H1163 N1157 0.985 . S
H1164 N1161 0.975 1_554 S
H1165 N1161 1.002 . S
H1166 N1160 0.984 . S
H1167 N1160 0.984 . S
H1168 N1156 0.984 . S
H1169 N1156 0.985 . S
C1170 C1171 1.363 . S
C1170 C1176 1.379 . S
C1170 N1178 1.356 . S
C1171 C1170 1.363 . S
C1171 C1177 1.363 . S
C1172 C1173 1.363 . S
C1172 C1177 1.379 . S
C1172 N1179 1.356 . S
C1173 C1172 1.363 . S
C1173 C1176 1.363 . S
N1174 C1176 1.356 1_556 S
N1174 H1186 0.984 . S
N1174 H1187 0.985 . S
N1175 C1177 1.356 . S
N1175 H1180 0.984 . S
N1175 H1181 0.985 . S
C1176 C1170 1.379 . S
C1176 C1173 1.363 . S
C1176 N1174 1.356 1_554 S
C1177 C1171 1.363 . S
C1177 C1172 1.379 . S
C1177 N1175 1.356 . S
N1178 C1170 1.356 . S
N1178 H1184 0.984 1_554 S
N1178 H1185 0.984 . S
N1179 C1172 1.356 . S
N1179 H1182 0.984 . S
N1179 H1183 0.985 . S
H1180 N1175 0.984 . S
H1181 N1175 0.985 . S
H1182 N1179 0.984 . S
H1183 N1179 0.985 . S
H1184 N1178 0.984 1_556 S
H1185 N1178 0.984 . S
H1186 N1174 0.984 . S
H1187 N1174 0.985 . S
C1188 C1189 1.363 . S
C1188 C1194 1.379 . S
C1188 N1196 1.356 . S
C1189 C1188 1.363 . S
C1189 C1195 1.363 . S
C1190 C1191 1.363 . S
C1190 C1195 1.379 . S
C1190 N1197 1.356 1_554 S
C1191 C1190 1.363 . S
C1191 C1194 1.363 . S
N1192 C1194 1.356 . S
N1192 H1204 0.984 . S
N1192 H1205 0.985 . S
N1193 C1195 1.356 . S
N1193 H1198 0.984 . S
N1193 H1199 0.985 1_554 S
C1194 C1188 1.379 . S
C1194 C1191 1.363 . S
C1194 N1192 1.356 . S
C1195 C1189 1.363 . S
C1195 C1190 1.379 . S
C1195 N1193 1.356 . S
N1196 C1188 1.356 . S
N1196 H1202 0.984 . S
N1196 H1203 0.984 . S
N1197 C1190 1.356 1_556 S
N1197 H1200 0.984 . S
N1197 H1201 0.985 . S
H1198 N1193 0.984 . S
H1199 N1193 0.985 1_556 S
H1200 N1197 0.984 . S
H1201 N1197 0.985 . S
H1202 N1196 0.984 . S
H1203 N1196 0.984 . S
H1204 N1192 0.984 . S
H1205 N1192 0.985 . S
C1206 C1207 1.363 . S
C1206 C1212 1.379 . S
C1206 N1214 1.356 . S
C1207 C1206 1.363 . S
C1207 C1213 1.363 . S
C1208 C1209 1.363 . S
C1208 C1213 1.379 . S
C1208 N1215 1.356 . S
C1209 C1208 1.363 . S
C1209 C1212 1.363 . S
N1210 C1212 1.356 . S
N1210 H1222 0.984 . S
N1210 H1223 0.985 . S
N1211 C1213 1.356 . S
N1211 H1216 0.984 . S
N1211 H1217 0.985 . S
C1212 C1206 1.379 . S
C1212 C1209 1.363 . S
C1212 N1210 1.356 . S
C1213 C1207 1.363 . S
C1213 C1208 1.379 . S
C1213 N1211 1.356 . S
N1214 C1206 1.356 . S
N1214 H1220 0.984 . S
N1214 H1221 0.984 . S
N1215 C1208 1.356 . S
N1215 H1218 0.984 . S
N1215 H1219 0.985 . S
H1216 N1211 0.984 . S
H1217 N1211 0.985 . S
H1218 N1215 0.984 . S
H1219 N1215 0.985 . S
H1220 N1214 0.984 . S
H1221 N1214 0.984 . S
H1222 N1210 0.984 . S
H1223 N1210 0.985 . S
C1224 C1225 1.363 . S
C1224 C1230 1.379 . S
C1224 N1232 1.356 . S
C1225 C1224 1.363 . S
C1225 C1231 1.363 . S
C1226 C1227 1.363 . S
C1226 C1231 1.379 . S
C1226 N1233 1.356 . S
C1227 C1226 1.363 . S
C1227 C1230 1.363 . S
N1228 C1230 1.356 . S
N1228 H1240 0.984 . S
N1228 H1241 0.985 . S
N1229 C1231 1.356 . S
N1229 H1234 0.984 . S
N1229 H1235 0.985 . S
C1230 C1224 1.379 . S
C1230 C1227 1.363 . S
C1230 N1228 1.356 . S
C1231 C1225 1.363 . S
C1231 C1226 1.379 . S
C1231 N1229 1.356 . S
N1232 C1224 1.356 . S
N1232 H1238 0.984 . S
N1232 H1239 0.984 . S
N1233 C1226 1.356 . S
N1233 H1236 0.984 . S
N1233 H1237 0.985 . S
H1234 N1229 0.984 . S
H1235 N1229 0.985 . S
H1236 N1233 0.984 . S
H1237 N1233 0.985 . S
H1238 N1232 0.984 . S
H1239 N1232 0.984 . S
H1240 N1228 0.984 . S
H1241 N1228 0.985 . S
C1242 C1243 1.363 . S
C1242 C1248 1.379 . S
C1242 N1250 1.356 . S
C1243 C1242 1.363 . S
C1243 C1249 1.363 . S
C1244 C1245 1.363 . S
C1244 C1249 1.379 . S
C1244 N1251 1.356 . S
C1245 C1244 1.363 . S
C1245 C1248 1.363 . S
N1246 C1248 1.356 . S
N1246 H1258 0.984 . S
N1246 H1259 0.985 . S
N1247 C1249 1.356 . S
N1247 H1252 0.984 . S
N1247 H1253 0.985 . S
C1248 C1242 1.379 . S
C1248 C1245 1.363 . S
C1248 N1246 1.356 . S
C1249 C1243 1.363 . S
C1249 C1244 1.379 . S
C1249 N1247 1.356 . S
N1250 C1242 1.356 . S
N1250 H1256 0.984 . S
N1250 H1257 0.984 . S
N1251 C1244 1.356 . S
N1251 H1254 0.984 . S
N1251 H1255 0.985 . S
H1252 N1247 0.984 . S
H1253 N1247 0.985 . S
H1254 N1251 0.984 . S
H1255 N1251 0.985 . S
H1256 N1250 0.984 . S
H1257 N1250 0.984 . S
H1258 N1246 0.984 . S
H1259 N1246 0.985 . S
C1260 C1261 1.363 . S
C1260 C1266 1.379 . S
C1260 N1268 1.356 . S
C1261 C1260 1.363 . S
C1261 C1267 1.363 . S
C1262 C1263 1.363 . S
C1262 C1267 1.379 . S
C1262 N1269 1.356 . S
C1263 C1262 1.363 . S
C1263 C1266 1.363 . S
N1264 C1266 1.356 . S
N1264 H1276 0.984 . S
N1264 H1277 0.985 . S
N1265 C1267 1.356 1_554 S
N1265 H1270 0.984 . S
N1265 H1271 0.985 . S
C1266 C1260 1.379 . S
C1266 C1263 1.363 . S
C1266 N1264 1.356 . S
C1267 C1261 1.363 . S
C1267 C1262 1.379 . S
C1267 N1265 1.356 1_556 S
N1268 C1260 1.356 . S
N1268 H1274 0.984 . S
N1268 H1275 0.984 . S
N1269 C1262 1.356 . S
N1269 H1272 0.984 . S
N1269 H1273 0.985 1_556 S
H1270 N1265 0.984 . S
H1271 N1265 0.985 . S
H1272 N1269 0.984 . S
H1273 N1269 0.985 1_554 S
H1274 N1268 0.984 . S
H1275 N1268 0.984 . S
H1276 N1264 0.984 . S
H1277 N1264 0.985 . S
C1278 C1279 1.363 . S
C1278 C1284 1.379 . S
C1278 N1286 1.356 . S
C1279 C1278 1.363 . S
C1279 C1285 1.363 . S
C1280 C1281 1.363 . S
C1280 C1285 1.379 . S
C1280 N1287 1.356 1_556 S
C1281 C1280 1.363 . S
C1281 C1284 1.363 . S
N1282 C1284 1.356 . S
N1282 H1294 0.984 . S
N1282 H1295 0.985 . S
N1283 C1285 1.356 . S
N1283 H1288 0.984 . S
N1283 H1289 0.985 1_556 S
C1284 C1278 1.379 . S
C1284 C1281 1.363 . S
C1284 N1282 1.356 . S
C1285 C1279 1.363 . S
C1285 C1280 1.379 . S
C1285 N1283 1.356 . S
N1286 C1278 1.356 . S
N1286 H1292 0.984 . S
N1286 H1293 0.984 . S
N1287 C1280 1.356 1_554 S
N1287 H1290 0.984 . S
N1287 H1291 0.985 . S
H1288 N1283 0.984 . S
H1289 N1283 0.985 1_554 S
H1290 N1287 0.984 . S
H1291 N1287 0.985 . S
H1292 N1286 0.984 . S
H1293 N1286 0.984 . S
H1294 N1282 0.984 . S
H1295 N1282 0.985 . S
C1296 C1297 1.363 . S
C1296 C1302 1.379 . S
C1296 N1304 1.356 1_556 S
C1297 C1296 1.363 . S
C1297 C1303 1.363 . S
C1298 C1299 1.363 . S
C1298 C1303 1.379 . S
C1298 N1305 1.356 . S
C1299 C1298 1.363 . S
C1299 C1302 1.363 . S
N1300 C1302 1.355 1_554 S
N1300 H1312 0.987 . S
N1300 H1313 0.983 1_554 S
N1301 C1303 1.356 . S
N1301 H1306 0.984 . S
N1301 H1307 0.985 . S
C1302 C1296 1.379 . S
C1302 C1299 1.363 . S
C1302 N1300 1.355 1_556 S
C1303 C1297 1.363 . S
C1303 C1298 1.379 . S
C1303 N1301 1.356 . S
N1304 C1296 1.356 1_554 S
N1304 H1310 0.984 . S
N1304 H1311 0.984 . S
N1305 C1298 1.356 . S
N1305 H1308 0.984 . S
N1305 H1309 0.985 . S
H1306 N1301 0.984 . S
H1307 N1301 0.985 . S
H1308 N1305 0.984 . S
H1309 N1305 0.985 . S
H1310 N1304 0.984 . S
H1311 N1304 0.984 . S
H1312 N1300 0.987 . S
H1313 N1300 0.983 1_556 S
C1314 C1315 1.363 . S
C1314 C1320 1.379 . S
C1314 N1322 1.356 . S
C1315 C1314 1.363 . S
C1315 C1321 1.363 . S
C1316 C1317 1.363 . S
C1316 C1321 1.379 . S
C1316 N1323 1.356 . S
C1317 C1316 1.363 . S
C1317 C1320 1.363 . S
N1318 C1320 1.356 . S
N1318 H1330 0.984 . S
N1318 H1331 0.985 . S
N1319 C1321 1.356 . S
N1319 H1324 0.984 . S
N1319 H1325 0.985 . S
C1320 C1314 1.379 . S
C1320 C1317 1.363 . S
C1320 N1318 1.356 . S
C1321 C1315 1.363 . S
C1321 C1316 1.379 . S
C1321 N1319 1.356 . S
N1322 C1314 1.356 . S
N1322 H1328 0.984 . S
N1322 H1329 0.984 . S
N1323 C1316 1.356 . S
N1323 H1326 0.984 . S
N1323 H1327 0.985 . S
H1324 N1319 0.984 . S
H1325 N1319 0.985 . S
H1326 N1323 0.984 . S
H1327 N1323 0.985 . S
H1328 N1322 0.984 . S
H1329 N1322 0.984 . S
H1330 N1318 0.984 . S
H1331 N1318 0.985 . S
C1332 C1333 1.363 . S
C1332 C1338 1.379 . S
C1332 N1340 1.356 . S
C1333 C1332 1.363 . S
C1333 C1339 1.363 . S
C1334 C1335 1.363 . S
C1334 C1339 1.379 . S
C1334 N1341 1.356 . S
C1335 C1334 1.363 . S
C1335 C1338 1.363 . S
N1336 C1338 1.356 . S
N1336 H1348 0.984 . S
N1336 H1349 0.985 . S
N1337 C1339 1.356 . S
N1337 H1342 0.984 . S
N1337 H1343 0.985 . S
C1338 C1332 1.379 . S
C1338 C1335 1.363 . S
C1338 N1336 1.356 . S
C1339 C1333 1.363 . S
C1339 C1334 1.379 . S
C1339 N1337 1.356 . S
N1340 C1332 1.356 . S
N1340 H1346 0.984 . S
N1340 H1347 0.984 . S
N1341 C1334 1.356 . S
N1341 H1344 0.984 . S
N1341 H1345 0.985 . S
H1342 N1337 0.984 . S
H1343 N1337 0.985 . S
H1344 N1341 0.984 . S
H1345 N1341 0.985 . S
H1346 N1340 0.984 . S
H1347 N1340 0.984 . S
H1348 N1336 0.984 . S
H1349 N1336 0.985 . S
C1350 C1351 1.363 . S
C1350 C1356 1.379 . S
C1350 N1358 1.356 . S
C1351 C1350 1.363 . S
C1351 C1357 1.363 . S
C1352 C1353 1.363 . S
C1352 C1357 1.379 . S
C1352 N1359 1.356 . S
C1353 C1352 1.363 . S
C1353 C1356 1.363 . S
N1354 C1356 1.356 . S
N1354 H1366 0.984 . S
N1354 H1367 0.985 . S
N1355 C1357 1.356 . S
N1355 H1360 0.984 . S
N1355 H1361 0.985 . S
C1356 C1350 1.379 . S
C1356 C1353 1.363 . S
C1356 N1354 1.356 . S
C1357 C1351 1.363 . S
C1357 C1352 1.379 . S
C1357 N1355 1.356 . S
N1358 C1350 1.356 . S
N1358 H1364 0.984 . S
N1358 H1365 0.984 . S
N1359 C1352 1.356 . S
N1359 H1362 0.984 . S
N1359 H1363 0.985 . S
H1360 N1355 0.984 . S
H1361 N1355 0.985 . S
H1362 N1359 0.984 . S
H1363 N1359 0.985 . S
H1364 N1358 0.984 . S
H1365 N1358 0.984 . S
H1366 N1354 0.984 . S
H1367 N1354 0.985 . S
C1368 C1369 1.363 . S
C1368 C1374 1.379 . S
C1368 N1376 1.356 . S
C1369 C1368 1.363 . S
C1369 C1375 1.363 . S
C1370 C1371 1.363 . S
C1370 C1375 1.379 . S
C1370 N1377 1.356 . S
C1371 C1370 1.363 . S
C1371 C1374 1.363 . S
N1372 C1374 1.356 . S
N1372 H1384 0.984 . S
N1372 H1385 0.985 . S
N1373 C1375 1.356 . S
N1373 H1378 0.984 . S
N1373 H1379 0.985 . S
C1374 C1368 1.379 . S
C1374 C1371 1.363 . S
C1374 N1372 1.356 . S
C1375 C1369 1.363 . S
C1375 C1370 1.379 . S
C1375 N1373 1.356 . S
N1376 C1368 1.356 . S
N1376 H1382 0.984 . S
N1376 H1383 0.984 . S
N1377 C1370 1.356 . S
N1377 H1380 0.984 . S
N1377 H1381 0.985 . S
H1378 N1373 0.984 . S
H1379 N1373 0.985 . S
H1380 N1377 0.984 . S
H1381 N1377 0.985 . S
H1382 N1376 0.984 . S
H1383 N1376 0.984 . S
H1384 N1372 0.984 . S
H1385 N1372 0.985 . S
C1386 C1387 1.363 . S
C1386 C1392 1.379 . S
C1386 N1394 1.356 . S
C1387 C1386 1.363 . S
C1387 C1393 1.363 . S
C1388 C1389 1.363 . S
C1388 C1393 1.379 . S
C1388 N1395 1.356 . S
C1389 C1388 1.363 . S
C1389 C1392 1.363 . S
N1390 C1392 1.356 . S
N1390 H1402 0.984 . S
N1390 H1403 0.985 . S
N1391 C1393 1.356 . S
N1391 H1396 0.984 . S
N1391 H1397 0.985 . S
C1392 C1386 1.379 . S
C1392 C1389 1.363 . S
C1392 N1390 1.356 . S
C1393 C1387 1.363 . S
C1393 C1388 1.379 . S
C1393 N1391 1.356 . S
N1394 C1386 1.356 . S
N1394 H1400 0.984 . S
N1394 H1401 0.984 . S
N1395 C1388 1.356 . S
N1395 H1398 0.984 . S
N1395 H1399 0.985 . S
H1396 N1391 0.984 . S
H1397 N1391 0.985 . S
H1398 N1395 0.984 . S
H1399 N1395 0.985 . S
H1400 N1394 0.984 . S
H1401 N1394 0.984 . S
H1402 N1390 0.984 . S
H1403 N1390 0.985 . S
C1404 C1405 1.363 . S
C1404 C1410 1.379 . S
C1404 N1412 1.356 . S
C1405 C1404 1.363 . S
C1405 C1411 1.363 . S
C1406 C1407 1.363 . S
C1406 C1411 1.379 . S
C1406 N1413 1.356 . S
C1407 C1406 1.363 . S
C1407 C1410 1.363 . S
N1408 C1410 1.356 . S
N1408 H1420 0.984 . S
N1408 H1421 0.985 . S
N1409 C1411 1.356 . S
N1409 H1414 0.984 . S
N1409 H1415 0.985 . S
C1410 C1404 1.379 . S
C1410 C1407 1.363 . S
C1410 N1408 1.356 . S
C1411 C1405 1.363 . S
C1411 C1406 1.379 . S
C1411 N1409 1.356 . S
N1412 C1404 1.356 . S
N1412 H1418 0.984 . S
N1412 H1419 0.984 . S
N1413 C1406 1.356 . S
N1413 H1416 0.984 . S
N1413 H1417 0.985 . S
H1414 N1409 0.984 . S
H1415 N1409 0.985 . S
H1416 N1413 0.984 . S
H1417 N1413 0.985 . S
H1418 N1412 0.984 . S
H1419 N1412 0.984 . S
H1420 N1408 0.984 . S
H1421 N1408 0.985 . S
C1422 C1423 1.363 . S
C1422 C1428 1.379 . S
C1422 N1430 1.356 . S
C1423 C1422 1.363 . S
C1423 C1429 1.363 . S
C1424 C1425 1.363 . S
C1424 C1429 1.379 . S
C1424 N1431 1.356 . S
C1425 C1424 1.363 . S
C1425 C1428 1.363 . S
N1426 C1428 1.356 . S
N1426 H1438 0.984 . S
N1426 H1439 0.985 . S
N1427 C1429 1.356 . S
N1427 H1432 0.984 . S
N1427 H1433 0.985 . S
C1428 C1422 1.379 . S
C1428 C1425 1.363 . S
C1428 N1426 1.356 . S
C1429 C1423 1.363 . S
C1429 C1424 1.379 . S
C1429 N1427 1.356 . S
N1430 C1422 1.356 . S
N1430 H1436 0.984 . S
N1430 H1437 0.984 . S
N1431 C1424 1.356 . S
N1431 H1434 0.984 . S
N1431 H1435 0.985 . S
H1432 N1427 0.984 . S
H1433 N1427 0.985 . S
H1434 N1431 0.984 . S
H1435 N1431 0.985 . S
H1436 N1430 0.984 . S
H1437 N1430 0.984 . S
H1438 N1426 0.984 . S
H1439 N1426 0.985 . S
C1440 C1441 1.363 . S
C1440 C1446 1.379 . S
C1440 N1448 1.356 . S
C1441 C1440 1.363 . S
C1441 C1447 1.363 . S
C1442 C1443 1.363 . S
C1442 C1447 1.379 . S
C1442 N1449 1.356 . S
C1443 C1442 1.363 . S
C1443 C1446 1.363 . S
N1444 C1446 1.356 . S
N1444 H1456 0.984 . S
N1444 H1457 0.985 . S
N1445 C1447 1.356 . S
N1445 H1450 0.984 . S
N1445 H1451 0.985 . S
C1446 C1440 1.379 . S
C1446 C1443 1.363 . S
C1446 N1444 1.356 . S
C1447 C1441 1.363 . S
C1447 C1442 1.379 . S
C1447 N1445 1.356 . S
N1448 C1440 1.356 . S
N1448 H1454 0.984 . S
N1448 H1455 0.984 . S
N1449 C1442 1.356 . S
N1449 H1452 0.984 . S
N1449 H1453 0.985 . S
H1450 N1445 0.984 . S
H1451 N1445 0.985 . S
H1452 N1449 0.984 . S
H1453 N1449 0.985 . S
H1454 N1448 0.984 . S
H1455 N1448 0.984 . S
H1456 N1444 0.984 . S
H1457 N1444 0.985 . S
C1458 C1459 1.363 . S
C1458 C1464 1.379 . S
C1458 N1466 1.356 . S
C1459 C1458 1.363 . S
C1459 C1465 1.363 . S
C1460 C1461 1.363 . S
C1460 C1465 1.379 . S
C1460 N1467 1.356 . S
C1461 C1460 1.363 . S
C1461 C1464 1.363 . S
N1462 C1464 1.356 . S
N1462 H1474 0.984 . S
N1462 H1475 0.985 . S
N1463 C1465 1.356 . S
N1463 H1468 0.984 . S
N1463 H1469 0.985 . S
C1464 C1458 1.379 . S
C1464 C1461 1.363 . S
C1464 N1462 1.356 . S
C1465 C1459 1.363 . S
C1465 C1460 1.379 . S
C1465 N1463 1.356 . S
N1466 C1458 1.356 . S
N1466 H1472 0.984 . S
N1466 H1473 0.984 . S
N1467 C1460 1.356 . S
N1467 H1470 0.984 . S
N1467 H1471 0.985 . S
H1468 N1463 0.984 . S
H1469 N1463 0.985 . S
H1470 N1467 0.984 . S
H1471 N1467 0.985 . S
H1472 N1466 0.984 . S
H1473 N1466 0.984 . S
H1474 N1462 0.984 . S
H1475 N1462 0.985 . S
C1476 C1477 1.363 . S
C1476 C1482 1.379 . S
C1476 N1484 1.356 1_556 S
C1477 C1476 1.363 . S
C1477 C1483 1.363 . S
C1478 C1479 1.363 . S
C1478 C1483 1.379 . S
C1478 N1485 1.356 . S
C1479 C1478 1.363 . S
C1479 C1482 1.363 . S
N1480 C1482 1.356 . S
N1480 H1492 0.984 . S
N1480 H1493 0.985 . S
N1481 C1483 1.356 . S
N1481 H1486 0.984 1_556 S
N1481 H1487 0.985 . S
C1482 C1476 1.379 . S
C1482 C1479 1.363 . S
C1482 N1480 1.356 . S
C1483 C1477 1.363 . S
C1483 C1478 1.379 . S
C1483 N1481 1.356 . S
N1484 C1476 1.356 1_554 S
N1484 H1490 0.984 . S
N1484 H1491 0.984 . S
N1485 C1478 1.356 . S
N1485 H1488 0.984 . S
N1485 H1489 0.985 . S
H1486 N1481 0.984 1_554 S
H1487 N1481 0.985 . S
H1488 N1485 0.984 . S
H1489 N1485 0.985 . S
H1490 N1484 0.984 . S
H1491 N1484 0.984 . S
H1492 N1480 0.984 . S
H1493 N1480 0.985 . S
C1494 C1495 1.363 . S
C1494 C1500 1.379 . S
C1494 N1502 1.356 . S
C1495 C1494 1.363 . S
C1495 C1501 1.363 . S
C1496 C1497 1.363 . S
C1496 C1501 1.379 . S
C1496 N1503 1.356 . S
C1497 C1496 1.363 . S
C1497 C1500 1.363 . S
N1498 C1500 1.356 . S
N1498 H1510 0.984 . S
N1498 H1511 0.985 . S
N1499 C1501 1.356 1_554 S
N1499 H1504 0.984 . S
N1499 H1505 0.985 1_554 S
C1500 C1494 1.379 . S
C1500 C1497 1.363 . S
C1500 N1498 1.356 . S
C1501 C1495 1.363 . S
C1501 C1496 1.379 . S
C1501 N1499 1.356 1_556 S
N1502 C1494 1.356 . S
N1502 H1508 0.984 . S
N1502 H1509 0.984 1_556 S
N1503 C1496 1.356 . S
N1503 H1506 0.984 . S
N1503 H1507 0.985 . S
H1504 N1499 0.984 . S
H1505 N1499 0.985 1_556 S
H1506 N1503 0.984 . S
H1507 N1503 0.985 . S
H1508 N1502 0.984 . S
H1509 N1502 0.984 1_554 S
H1510 N1498 0.984 . S
H1511 N1498 0.985 . S
C1512 C1513 1.363 . S
C1512 C1518 1.379 . S
C1512 N1520 1.356 . S
C1513 C1512 1.363 . S
C1513 C1519 1.363 . S
C1514 C1515 1.363 . S
C1514 C1519 1.379 . S
C1514 N1521 1.356 . S
C1515 C1514 1.363 . S
C1515 C1518 1.363 . S
N1516 C1518 1.356 . S
N1516 H1528 0.984 . S
N1516 H1529 0.985 . S
N1517 C1519 1.356 1_554 S
N1517 H1522 0.984 . S
N1517 H1523 0.985 . S
C1518 C1512 1.379 . S
C1518 C1515 1.363 . S
C1518 N1516 1.356 . S
C1519 C1513 1.363 . S
C1519 C1514 1.379 . S
C1519 N1517 1.356 1_556 S
N1520 C1512 1.356 . S
N1520 H1526 0.984 . S
N1520 H1527 0.984 1_556 S
N1521 C1514 1.356 . S
N1521 H1524 0.984 . S
N1521 H1525 0.985 . S
H1522 N1517 0.984 . S
H1523 N1517 0.985 . S
H1524 N1521 0.984 . S
H1525 N1521 0.985 . S
H1526 N1520 0.984 . S
H1527 N1520 0.984 1_554 S
H1528 N1516 0.984 . S
H1529 N1516 0.985 . S
C1530 C1531 1.363 . S
C1530 C1536 1.379 . S
C1530 N1538 1.356 . S
C1531 C1530 1.363 . S
C1531 C1537 1.363 . S
C1532 C1533 1.363 . S
C1532 C1537 1.379 . S
C1532 N1539 1.356 . S
C1533 C1532 1.363 . S
C1533 C1536 1.363 . S
N1534 C1536 1.356 . S
N1534 H1546 0.984 . S
N1534 H1547 0.985 . S
N1535 C1537 1.356 . S
N1535 H1540 0.984 . S
N1535 H1541 0.985 . S
C1536 C1530 1.379 . S
C1536 C1533 1.363 . S
C1536 N1534 1.356 . S
C1537 C1531 1.363 . S
C1537 C1532 1.379 . S
C1537 N1535 1.356 . S
N1538 C1530 1.356 . S
N1538 H1544 0.984 . S
N1538 H1545 0.984 . S
N1539 C1532 1.356 . S
N1539 H1542 0.984 . S
N1539 H1543 0.985 . S
H1540 N1535 0.984 . S
H1541 N1535 0.985 . S
H1542 N1539 0.984 . S
H1543 N1539 0.985 . S
H1544 N1538 0.984 . S
H1545 N1538 0.984 . S
H1546 N1534 0.984 . S
H1547 N1534 0.985 . S
C1548 C1549 1.363 . S
C1548 C1554 1.379 . S
C1548 N1556 1.356 . S
C1549 C1548 1.363 . S
C1549 C1555 1.363 . S
C1550 C1551 1.363 . S
C1550 C1555 1.379 . S
C1550 N1557 1.356 . S
C1551 C1550 1.363 . S
C1551 C1554 1.363 . S
N1552 C1554 1.356 . S
N1552 H1564 0.984 . S
N1552 H1565 0.985 . S
N1553 C1555 1.356 . S
N1553 H1558 0.984 . S
N1553 H1559 0.985 . S
C1554 C1548 1.379 . S
C1554 C1551 1.363 . S
C1554 N1552 1.356 . S
C1555 C1549 1.363 . S
C1555 C1550 1.379 . S
C1555 N1553 1.356 . S
N1556 C1548 1.356 . S
N1556 H1562 0.984 . S
N1556 H1563 0.984 . S
N1557 C1550 1.356 . S
N1557 H1560 0.984 . S
N1557 H1561 0.985 . S
H1558 N1553 0.984 . S
H1559 N1553 0.985 . S
H1560 N1557 0.984 . S
H1561 N1557 0.985 . S
H1562 N1556 0.984 . S
H1563 N1556 0.984 . S
H1564 N1552 0.984 . S
H1565 N1552 0.985 . S
C1566 C1567 1.363 . S
C1566 C1572 1.379 . S
C1566 N1574 1.356 . S
C1567 C1566 1.363 . S
C1567 C1573 1.363 . S
C1568 C1569 1.363 . S
C1568 C1573 1.379 . S
C1568 N1575 1.356 . S
C1569 C1568 1.363 . S
C1569 C1572 1.363 . S
N1570 C1572 1.356 . S
N1570 H1582 0.984 . S
N1570 H1583 0.985 . S
N1571 C1573 1.356 . S
N1571 H1576 0.984 . S
N1571 H1577 0.985 . S
C1572 C1566 1.379 . S
C1572 C1569 1.363 . S
C1572 N1570 1.356 . S
C1573 C1567 1.363 . S
C1573 C1568 1.379 . S
C1573 N1571 1.356 . S
N1574 C1566 1.356 . S
N1574 H1580 0.984 . S
N1574 H1581 0.984 . S
N1575 C1568 1.356 . S
N1575 H1578 0.984 . S
N1575 H1579 0.985 . S
H1576 N1571 0.984 . S
H1577 N1571 0.985 . S
H1578 N1575 0.984 . S
H1579 N1575 0.985 . S
H1580 N1574 0.984 . S
H1581 N1574 0.984 . S
H1582 N1570 0.984 . S
H1583 N1570 0.985 . S
C1584 C1585 1.363 . S
C1584 C1590 1.379 . S
C1584 N1592 1.356 . S
C1585 C1584 1.363 . S
C1585 C1591 1.363 . S
C1586 C1587 1.363 . S
C1586 C1591 1.379 . S
C1586 N1593 1.351 1_554 S
C1587 C1586 1.363 . S
C1587 C1590 1.363 . S
N1588 C1590 1.356 . S
N1588 H1600 0.984 . S
N1588 H1601 0.985 1_554 S
N1589 C1591 1.356 . S
N1589 H1594 0.984 . S
N1589 H1595 0.985 . S
C1590 C1584 1.379 . S
C1590 C1587 1.363 . S
C1590 N1588 1.356 . S
C1591 C1585 1.363 . S
C1591 C1586 1.379 . S
C1591 N1589 1.356 . S
N1592 C1584 1.356 . S
N1592 H1598 0.984 . S
N1592 H1599 0.984 . S
N1593 C1586 1.351 1_556 S
N1593 H1596 0.990 . S
N1593 H1597 0.984 1_556 S
H1594 N1589 0.984 . S
H1595 N1589 0.985 . S
H1596 N1593 0.990 . S
H1597 N1593 0.984 1_554 S
H1598 N1592 0.984 . S
H1599 N1592 0.984 . S
H1600 N1588 0.984 . S
H1601 N1588 0.985 1_556 S
C1602 C1603 1.363 . S
C1602 C1608 1.379 . S
C1602 N1610 1.356 . S
C1603 C1602 1.363 . S
C1603 C1609 1.363 . S
C1604 C1605 1.363 . S
C1604 C1609 1.379 . S
C1604 N1611 1.356 1_554 S
C1605 C1604 1.363 . S
C1605 C1608 1.363 . S
N1606 C1608 1.356 . S
N1606 H1618 0.984 . S
N1606 H1619 0.985 1_554 S
N1607 C1609 1.356 . S
N1607 H1612 0.984 . S
N1607 H1613 0.985 . S
C1608 C1602 1.379 . S
C1608 C1605 1.363 . S
C1608 N1606 1.356 . S
C1609 C1603 1.363 . S
C1609 C1604 1.379 . S
C1609 N1607 1.356 . S
N1610 C1602 1.356 . S
N1610 H1616 0.984 . S
N1610 H1617 0.984 . S
N1611 C1604 1.356 1_556 S
N1611 H1614 0.984 . S
N1611 H1615 0.985 . S
H1612 N1607 0.984 . S
H1613 N1607 0.985 . S
H1614 N1611 0.984 . S
H1615 N1611 0.985 . S
H1616 N1610 0.984 . S
H1617 N1610 0.984 . S
H1618 N1606 0.984 . S
H1619 N1606 0.985 1_556 S
C1620 C1621 1.363 . S
C1620 C1626 1.379 . S
C1620 N1628 1.356 . S
C1621 C1620 1.363 . S
C1621 C1627 1.363 . S
C1622 C1623 1.363 . S
C1622 C1627 1.379 . S
C1622 N1629 1.356 . S
C1623 C1622 1.363 . S
C1623 C1626 1.363 . S
N1624 C1626 1.363 . S
N1624 H1636 0.985 . S
N1624 H1637 0.977 1_554 S
N1625 C1627 1.356 . S
N1625 H1630 0.984 . S
N1625 H1631 0.985 . S
C1626 C1620 1.379 . S
C1626 C1623 1.363 . S
C1626 N1624 1.363 . S
C1627 C1621 1.363 . S
C1627 C1622 1.379 . S
C1627 N1625 1.356 . S
N1628 C1620 1.356 . S
N1628 H1634 0.984 . S
N1628 H1635 0.984 . S
N1629 C1622 1.356 . S
N1629 H1632 0.984 1_554 S
N1629 H1633 0.985 . S
H1630 N1625 0.984 . S
H1631 N1625 0.985 . S
H1632 N1629 0.984 1_556 S
H1633 N1629 0.985 . S
H1634 N1628 0.984 . S
H1635 N1628 0.984 . S
H1636 N1624 0.985 . S
H1637 N1624 0.977 1_556 S
C1638 C1639 1.363 . S
C1638 C1644 1.379 . S
C1638 N1646 1.356 . S
C1639 C1638 1.363 . S
C1639 C1645 1.363 . S
C1640 C1641 1.363 . S
C1640 C1645 1.379 . S
C1640 N1647 1.356 . S
C1641 C1640 1.363 . S
C1641 C1644 1.363 . S
N1642 C1644 1.356 . S
N1642 H1654 0.984 . S
N1642 H1655 0.985 . S
N1643 C1645 1.356 . S
N1643 H1648 0.984 . S
N1643 H1649 0.985 . S
C1644 C1638 1.379 . S
C1644 C1641 1.363 . S
C1644 N1642 1.356 . S
C1645 C1639 1.363 . S
C1645 C1640 1.379 . S
C1645 N1643 1.356 . S
N1646 C1638 1.356 . S
N1646 H1652 0.984 . S
N1646 H1653 0.984 . S
N1647 C1640 1.356 . S
N1647 H1650 0.984 . S
N1647 H1651 0.985 . S
H1648 N1643 0.984 . S
H1649 N1643 0.985 . S
H1650 N1647 0.984 . S
H1651 N1647 0.985 . S
H1652 N1646 0.984 . S
H1653 N1646 0.984 . S
H1654 N1642 0.984 . S
H1655 N1642 0.985 . S
C1656 C1657 1.363 . S
C1656 C1662 1.379 . S
C1656 N1664 1.356 . S
C1657 C1656 1.363 . S
C1657 C1663 1.363 . S
C1658 C1659 1.363 . S
C1658 C1663 1.379 . S
C1658 N1665 1.356 . S
C1659 C1658 1.363 . S
C1659 C1662 1.363 . S
N1660 C1662 1.356 . S
N1660 H1672 0.984 . S
N1660 H1673 0.985 . S
N1661 C1663 1.356 . S
N1661 H1666 0.984 . S
N1661 H1667 0.985 . S
C1662 C1656 1.379 . S
C1662 C1659 1.363 . S
C1662 N1660 1.356 . S
C1663 C1657 1.363 . S
C1663 C1658 1.379 . S
C1663 N1661 1.356 . S
N1664 C1656 1.356 . S
N1664 H1670 0.984 . S
N1664 H1671 0.984 . S
N1665 C1658 1.356 . S
N1665 H1668 0.984 . S
N1665 H1669 0.985 . S
H1666 N1661 0.984 . S
H1667 N1661 0.985 . S
H1668 N1665 0.984 . S
H1669 N1665 0.985 . S
H1670 N1664 0.984 . S
H1671 N1664 0.984 . S
H1672 N1660 0.984 . S
H1673 N1660 0.985 . S
C1674 C1675 1.363 . S
C1674 C1680 1.379 . S
C1674 N1682 1.356 . S
C1675 C1674 1.363 . S
C1675 C1681 1.363 . S
C1676 C1677 1.363 . S
C1676 C1681 1.379 . S
C1676 N1683 1.356 . S
C1677 C1676 1.363 . S
C1677 C1680 1.363 . S
N1678 C1680 1.356 . S
N1678 H1690 0.984 1_545 S
N1678 H1691 0.985 . S
N1679 C1681 1.356 . S
N1679 H1684 0.984 . S
N1679 H1685 0.985 . S
C1680 C1674 1.379 . S
C1680 C1677 1.363 . S
C1680 N1678 1.356 . S
C1681 C1675 1.363 . S
C1681 C1676 1.379 . S
C1681 N1679 1.356 . S
N1682 C1674 1.356 . S
N1682 H1688 0.984 . S
N1682 H1689 0.984 . S
N1683 C1676 1.356 . S
N1683 H1686 0.984 . S
N1683 H1687 0.985 . S
H1684 N1679 0.984 . S
H1685 N1679 0.985 . S
H1686 N1683 0.984 . S
H1687 N1683 0.985 . S
H1688 N1682 0.984 . S
H1689 N1682 0.984 . S
H1690 N1678 0.984 1_565 S
H1691 N1678 0.985 . S
C1692 C1693 1.363 . S
C1692 C1698 1.379 . S
C1692 N1700 1.376 . S
C1693 C1692 1.363 . S
C1693 C1699 1.363 . S
C1694 C1695 1.363 . S
C1694 C1699 1.379 . S
C1694 N1701 1.356 . S
C1695 C1694 1.363 . S
C1695 C1698 1.363 . S
N1696 C1698 1.356 1_455 S
N1696 H1708 0.984 . S
N1696 H1709 0.985 . S
N1697 C1699 1.356 . S
N1697 H1702 0.984 . S
N1697 H1703 0.985 . S
C1698 C1692 1.379 . S
C1698 C1695 1.363 . S
C1698 N1696 1.356 1_655 S
C1699 C1693 1.363 . S
C1699 C1694 1.379 . S
C1699 N1697 1.356 . S
N1700 C1692 1.376 . S
N1700 H1706 0.950 1_655 S
N1700 H1707 1.002 . S
N1701 C1694 1.356 . S
N1701 H1704 0.984 . S
N1701 H1705 0.985 . S
H1702 N1697 0.984 . S
H1703 N1697 0.985 . S
H1704 N1701 0.984 . S
H1705 N1701 0.985 . S
H1706 N1700 0.950 1_455 S
H1707 N1700 1.002 . S
H1708 N1696 0.984 . S
H1709 N1696 0.985 . S
C1710 C1711 1.363 . S
C1710 C1716 1.379 . S
C1710 N1718 1.356 . S
C1711 C1710 1.363 . S
C1711 C1717 1.363 . S
C1712 C1713 1.363 . S
C1712 C1717 1.379 . S
C1712 N1719 1.356 . S
C1713 C1712 1.363 . S
C1713 C1716 1.363 . S
N1714 C1716 1.356 . S
N1714 H1726 0.984 . S
N1714 H1727 0.985 . S
N1715 C1717 1.356 . S
N1715 H1720 0.984 . S
N1715 H1721 0.985 . S
C1716 C1710 1.379 . S
C1716 C1713 1.363 . S
C1716 N1714 1.356 . S
C1717 C1711 1.363 . S
C1717 C1712 1.379 . S
C1717 N1715 1.356 . S
N1718 C1710 1.356 . S
N1718 H1724 0.984 . S
N1718 H1725 0.984 . S
N1719 C1712 1.356 . S
N1719 H1722 0.984 . S
N1719 H1723 0.985 . S
H1720 N1715 0.984 . S
H1721 N1715 0.985 . S
H1722 N1719 0.984 . S
H1723 N1719 0.985 . S
H1724 N1718 0.984 . S
H1725 N1718 0.984 . S
H1726 N1714 0.984 . S
H1727 N1714 0.985 . S
C1728 C1729 1.363 . S
C1728 C1734 1.379 . S
C1728 N1736 1.356 1_545 S
C1729 C1728 1.363 . S
C1729 C1735 1.363 . S
C1730 C1731 1.363 . S
C1730 C1735 1.379 . S
C1730 N1737 1.356 . S
C1731 C1730 1.363 . S
C1731 C1734 1.363 . S
N1732 C1734 1.356 . S
N1732 H1744 0.984 1_545 S
N1732 H1745 0.985 . S
N1733 C1735 1.356 . S
N1733 H1738 0.984 . S
N1733 H1739 0.985 . S
C1734 C1728 1.379 . S
C1734 C1731 1.363 . S
C1734 N1732 1.356 . S
C1735 C1729 1.363 . S
C1735 C1730 1.379 . S
C1735 N1733 1.356 . S
N1736 C1728 1.356 1_565 S
N1736 H1742 0.984 . S
N1736 H1743 0.984 . S
N1737 C1730 1.356 . S
N1737 H1740 0.984 . S
N1737 H1741 0.985 . S
H1738 N1733 0.984 . S
H1739 N1733 0.985 . S
H1740 N1737 0.984 . S
H1741 N1737 0.985 . S
H1742 N1736 0.984 . S
H1743 N1736 0.984 . S
H1744 N1732 0.984 1_565 S
H1745 N1732 0.985 . S
C1746 C1747 1.363 . S
C1746 C1752 1.379 . S
C1746 N1754 1.356 . S
C1747 C1746 1.363 . S
C1747 C1753 1.363 . S
C1748 C1749 1.363 . S
C1748 C1753 1.379 . S
C1748 N1755 1.356 . S
C1749 C1748 1.363 . S
C1749 C1752 1.363 . S
N1750 C1752 1.356 . S
N1750 H1762 0.984 . S
N1750 H1763 0.985 . S
N1751 C1753 1.356 . S
N1751 H1756 0.984 . S
N1751 H1757 0.985 1_545 S
C1752 C1746 1.379 . S
C1752 C1749 1.363 . S
C1752 N1750 1.356 . S
C1753 C1747 1.363 . S
C1753 C1748 1.379 . S
C1753 N1751 1.356 . S
N1754 C1746 1.356 . S
N1754 H1760 0.984 . S
N1754 H1761 0.984 . S
N1755 C1748 1.356 . S
N1755 H1758 0.984 . S
N1755 H1759 0.985 . S
H1756 N1751 0.984 . S
H1757 N1751 0.985 1_565 S
H1758 N1755 0.984 . S
H1759 N1755 0.985 . S
H1760 N1754 0.984 . S
H1761 N1754 0.984 . S
H1762 N1750 0.984 . S
H1763 N1750 0.985 . S
C1764 C1765 1.363 . S
C1764 C1770 1.379 . S
C1764 N1772 1.356 . S
C1765 C1764 1.363 . S
C1765 C1771 1.363 . S
C1766 C1767 1.363 . S
C1766 C1771 1.379 . S
C1766 N1773 1.356 . S
C1767 C1766 1.363 . S
C1767 C1770 1.363 . S
N1768 C1770 1.356 1_455 S
N1768 H1780 0.984 . S
N1768 H1781 0.985 . S
N1769 C1771 1.356 . S
N1769 H1774 0.984 . S
N1769 H1775 0.985 . S
C1770 C1764 1.379 . S
C1770 C1767 1.363 . S
C1770 N1768 1.356 1_655 S
C1771 C1765 1.363 . S
C1771 C1766 1.379 . S
C1771 N1769 1.356 . S
N1772 C1764 1.356 . S
N1772 H1778 0.984 1_655 S
N1772 H1779 0.984 . S
N1773 C1766 1.356 . S
N1773 H1776 0.984 . S
N1773 H1777 0.985 . S
H1774 N1769 0.984 . S
H1775 N1769 0.985 . S
H1776 N1773 0.984 . S
H1777 N1773 0.985 . S
H1778 N1772 0.984 1_455 S
H1779 N1772 0.984 . S
H1780 N1768 0.984 . S
H1781 N1768 0.985 . S
C1782 C1783 1.363 . S
C1782 C1788 1.379 . S
C1782 N1790 1.356 . S
C1783 C1782 1.363 . S
C1783 C1789 1.363 . S
C1784 C1785 1.363 . S
C1784 C1789 1.379 . S
C1784 N1791 1.356 . S
C1785 C1784 1.363 . S
C1785 C1788 1.363 . S
N1786 C1788 1.356 . S
N1786 H1798 0.984 . S
N1786 H1799 0.985 . S
N1787 C1789 1.356 . S
N1787 H1792 0.984 . S
N1787 H1793 0.985 . S
C1788 C1782 1.379 . S
C1788 C1785 1.363 . S
C1788 N1786 1.356 . S
C1789 C1783 1.363 . S
C1789 C1784 1.379 . S
C1789 N1787 1.356 . S
N1790 C1782 1.356 . S
N1790 H1796 0.984 . S
N1790 H1797 0.984 . S
N1791 C1784 1.356 . S
N1791 H1794 0.984 . S
N1791 H1795 0.985 . S
H1792 N1787 0.984 . S
H1793 N1787 0.985 . S
H1794 N1791 0.984 . S
H1795 N1791 0.985 . S
H1796 N1790 0.984 . S
H1797 N1790 0.984 . S
H1798 N1786 0.984 . S
H1799 N1786 0.985 . S
C505 C230 1.307 . S
C507 C6 1.310 . S
C523 C244 1.307 . S
C525 C20 1.310 . S
C541 C216 1.307 . S
C543 C34 1.310 . S
C559 C370 1.283 1_554 S
C561 C48 1.280 . S
C577 C62 1.280 . S
C579 C342 1.283 1_554 S
C595 C76 1.280 . S
C597 C356 1.283 1_554 S
C613 C90 1.308 . S
C615 C482 1.314 . S
C631 C496 1.315 . S
C633 C104 1.308 . S
C649 C468 1.314 . S
C651 C118 1.307 . S
C667 C132 1.288 . S
C669 C286 1.282 1_556 S
C685 C258 1.282 1_556 S
C687 C146 1.289 . S
C703 C160 1.289 . S
C705 C272 1.282 1_556 S
C721 C398 1.228 . S
C723 C174 1.229 . S
C739 C188 1.231 . S
C741 C412 1.226 . S
C757 C384 1.229 . S
C759 C202 1.229 . S
C775 C454 1.218 . S
C777 C300 1.223 . S
C793 C426 1.219 . S
C795 C314 1.223 . S
C811 C328 1.225 . S
C813 C440 1.216 . S
C829 C260 1.374 . S
C831 C8 1.585 . S
C847 C274 1.374 . S
C849 C22 1.585 . S
C865 C288 1.375 . S
C867 C36 1.586 . S
C883 C50 1.376 . S
C885 C470 1.589 . S
C901 C64 1.377 . S
C903 C484 1.590 . S
C919 C78 1.377 . S
C921 C498 1.590 . S
C937 C92 1.367 . S
C939 C344 1.570 . S
C955 C358 1.570 . S
C957 C106 1.367 . S
C973 C372 1.571 . S
C975 C120 1.368 . S
C991 C218 1.369 . S
C993 C134 1.576 . S
C1009 C148 1.576 . S
C1011 C232 1.370 . S
C1027 C162 1.577 . S
C1029 C246 1.370 . S
C1045 C176 1.582 . S
C1047 C428 1.375 . S
C1063 C442 1.375 . S
C1065 C190 1.583 . S
C1081 C456 1.375 . S
C1083 C204 1.583 . S
C1099 C386 1.387 1_554 S
C1101 C302 1.601 1_556 S
C1117 C316 1.601 1_556 S
C1119 C400 1.388 1_554 S
C1135 C330 1.601 1_556 S
C1137 C414 1.388 1_554 S
C1153 C385 1.719 . S
C1155 C7 1.692 . S
C1171 C21 1.692 . S
C1173 C399 1.720 . S
C1189 C35 1.693 . S
C1191 C413 1.720 . S
C1207 C175 1.682 . S
C1209 C49 1.715 . S
C1225 C63 1.715 . S
C1227 C189 1.683 . S
C1243 C77 1.715 . S
C1245 C203 1.683 . S
C1261 C301 1.660 . S
C1263 C91 1.691 . S
C1279 C105 1.690 . S
C1281 C315 1.660 . S
C1297 C329 1.660 . S
C1299 C119 1.691 . S
C1315 C133 1.662 . S
C1317 C427 1.696 . S
C1333 C441 1.696 . S
C1335 C147 1.662 . S
C1351 C455 1.696 . S
C1353 C161 1.663 . S
C1369 C343 1.671 . S
C1371 C217 1.703 . S
C1387 C357 1.672 . S
C1389 C231 1.703 . S
C1405 C371 1.672 . S
C1407 C245 1.703 . S
C1423 C259 1.705 . S
C1425 C469 1.673 . S
C1441 C483 1.674 . S
C1443 C273 1.705 . S
C1459 C497 1.674 . S
C1461 C287 1.705 . S
C1477 C9 1.482 1_556 S
C1479 C233 1.482 . S
C1495 C23 1.482 1_556 S
C1497 C247 1.482 . S
C1513 C37 1.482 1_556 S
C1515 C219 1.482 . S
C1531 C373 1.511 . S
C1533 C51 1.511 . S
C1549 C345 1.511 . S
C1551 C65 1.511 . S
C1567 C359 1.511 . S
C1569 C79 1.511 . S
C1585 C485 1.481 . S
C1587 C93 1.479 1_554 S
C1603 C499 1.481 . S
C1605 C107 1.479 1_554 S
C1621 C471 1.480 . S
C1623 C121 1.479 1_554 S
C1639 C135 1.511 . S
C1641 C289 1.509 . S
C1657 C149 1.511 . S
C1659 C261 1.509 . S
C1675 C163 1.511 . S
C1677 C275 1.510 . S
C1693 C401 1.563 . S
C1695 C177 1.568 . S
C1711 C415 1.562 . S
C1713 C191 1.567 . S
C1729 C205 1.566 . S
C1731 C387 1.564 . S
C1747 C303 1.583 . S
C1749 C457 1.586 . S
C1765 C429 1.584 . S
C1767 C317 1.584 . S
C1783 C443 1.584 . S
C1785 C331 1.585 . S
