# Generated by pormake.
# Topology lvt, (4)-cn, num edge types: 1
# Building blocks:
#     Node 0, Type 0, BuildingBlock: ESEHIV_clean_sbu_0, # of connection points: 4
#     Node 1, Type 0, BuildingBlock: ESEHIV_clean_sbu_0, # of connection points: 4
#     Node 2, Type 0, BuildingBlock: ESEHIV_clean_sbu_0, # of connection points: 4
#     Node 3, Type 0, BuildingBlock: ESEHIV_clean_sbu_0, # of connection points: 4
#     Node 4, Type 0, BuildingBlock: ESEHIV_clean_sbu_0, # of connection points: 4
#     Node 5, Type 0, BuildingBlock: ESEHIV_clean_sbu_0, # of connection points: 4
#     Node 6, Type 0, BuildingBlock: ESEHIV_clean_sbu_0, # of connection points: 4
#     Node 7, Type 0, BuildingBlock: ESEHIV_clean_sbu_0, # of connection points: 4
#     Edge 8, Type (0, 0), BuildingBlock: OJICUG_clean_linker_0, # of connection points: 2
#     Edge 9, Type (0, 0), BuildingBlock: OJICUG_clean_linker_0, # of connection points: 2
#     Edge 10, Type (0, 0), BuildingBlock: OJICUG_clean_linker_0, # of connection points: 2
#     Edge 11, Type (0, 0), BuildingBlock: OJICUG_clean_linker_0, # of connection points: 2
#     Edge 12, Type (0, 0), BuildingBlock: OJICUG_clean_linker_0, # of connection points: 2
#     Edge 13, Type (0, 0), BuildingBlock: OJICUG_clean_linker_0, # of connection points: 2
#     Edge 14, Type (0, 0), BuildingBlock: OJICUG_clean_linker_0, # of connection points: 2
#     Edge 15, Type (0, 0), BuildingBlock: OJICUG_clean_linker_0, # of connection points: 2
#     Edge 16, Type (0, 0), BuildingBlock: OJICUG_clean_linker_0, # of connection points: 2
#     Edge 17, Type (0, 0), BuildingBlock: OJICUG_clean_linker_0, # of connection points: 2
#     Edge 18, Type (0, 0), BuildingBlock: OJICUG_clean_linker_0, # of connection points: 2
#     Edge 19, Type (0, 0), BuildingBlock: OJICUG_clean_linker_0, # of connection points: 2
#     Edge 20, Type (0, 0), BuildingBlock: OJICUG_clean_linker_0, # of connection points: 2
#     Edge 21, Type (0, 0), BuildingBlock: OJICUG_clean_linker_0, # of connection points: 2
#     Edge 22, Type (0, 0), BuildingBlock: OJICUG_clean_linker_0, # of connection points: 2
#     Edge 23, Type (0, 0), BuildingBlock: OJICUG_clean_linker_0, # of connection points: 2
# Relax obj value: 0.004
# Max RMSD: 0.103
# Mean RMSD: 0.096
data_MOF--net-lvt--node1-ESEHIV_clean_sbu_0--edge1-OJICUG_clean_linker_0
_symmetry_space_group_name_H-M    P1
_symmetry_Int_Tables_number       1
_symmetry_cell_setting            triclinic
loop_
_symmetry_equiv_pos_as_xyz
'x, y, z'
_cell_length_a     28.656522
_cell_length_b     28.8293
_cell_length_c     24.038935
_cell_angle_alpha  98.152911
_cell_angle_beta   89.103367
_cell_angle_gamma 97.748747
loop_
_atom_site_label
_atom_site_type_symbol
_atom_site_fract_x
_atom_site_fract_y
_atom_site_fract_z
_atom_type_partial_charge
Cu0 Cu 0.08621 1.01476 0.50646 0.0
N1 N 0.12401 0.96547 0.49383 0.0
N2 N 0.17356 0.916 0.51438 0.0
C3 C 0.15216 0.95436 0.53312 0.0
C4 C 0.15809 0.90264 0.4609 0.0
C5 C 0.12762 0.93302 0.44844 0.0
O6 O 0.04308 0.99973 0.56764 0.0
C7 C 0.15407 0.0788 0.46876 0.0
O8 O 0.14972 0.04295 0.428 0.0
H9 H 0.15654 0.9742 0.57483 0.0
H10 H 0.10869 0.93079 0.40946 0.0
N11 N 0.04352 1.0186 0.44962 0.0
N12 N 0.98146 0.04465 0.41431 0.0
C13 C 1.00717 0.0436 0.46056 0.0
C14 C 0.04107 1.00303 0.39415 0.0
C15 C 1.00279 1.01905 0.37225 0.0
C16 C 1.0199 0.95832 0.55609 0.0
O17 O 1.02984 0.93185 0.50948 0.0
H18 H 1.00095 0.06219 0.50178 0.0
H19 H 0.0658 0.98264 0.37091 0.0
O20 O 0.12884 0.07498 0.51274 0.0
H21 H 0.16698 0.87227 0.43298 0.0
H22 H 0.99197 1.01268 0.32861 0.0
Cu23 Cu 0.32957 0.76825 0.77444 0.0
N24 N 0.32639 0.79071 0.70503 0.0
N25 N 0.29676 0.82368 0.63629 0.0
C26 C 0.29303 0.81578 0.69053 0.0
C27 C 0.33416 0.80258 0.61614 0.0
C28 C 0.35209 0.78217 0.65833 0.0
O29 O 0.2704 0.72639 0.77776 0.0
C30 C 0.36227 0.82643 0.87745 0.0
O31 O 0.37594 0.78782 0.891 0.0
H32 H 0.2655 0.82638 0.7189 0.0
H33 H 0.38096 0.7614 0.65452 0.0
N34 N 0.38052 0.7341 0.77887 0.0
N35 N 0.42582 0.68535 0.80981 0.0
C36 C 0.38255 0.69923 0.81042 0.0
C37 C 0.42403 0.74274 0.7577 0.0
C38 C 0.45191 0.71265 0.77637 0.0
C39 C 0.26696 0.68517 0.74921 0.0
O40 O 0.30488 0.67059 0.72523 0.0
H41 H 0.35342 0.68615 0.83564 0.0
H42 H 0.43527 0.77028 0.73232 0.0
O43 O 0.33859 0.82402 0.8323 0.0
H44 H 0.3476 0.80143 0.57374 0.0
H45 H 0.48884 0.71179 0.7669 0.0
Cu46 Cu 0.53727 0.07064 1.01492 0.0
N47 N 0.57773 0.05673 0.95466 0.0
N48 N 0.63218 1.01563 0.91109 0.0
C49 C 0.59594 1.01562 0.94762 0.0
C50 C 0.63686 0.05866 0.89396 0.0
C51 C 0.60321 0.08403 0.92101 0.0
O52 O 0.49087 1.01385 1.01211 0.0
C53 C 0.61125 0.12058 0.07663 0.0
O54 O 0.60918 0.14556 0.03531 0.0
H55 H 0.58475 0.98735 0.97206 0.0
H56 H 0.59963 0.12059 0.91881 0.0
N57 N 0.50527 0.12358 1.01459 0.0
N58 N 0.46088 0.18025 0.04688 0.0
C59 C 0.48066 0.14258 0.05844 0.0
C60 C 0.50101 0.15002 0.97363 0.0
C61 C 0.47378 0.18493 0.99337 0.0
C62 C 0.46036 1.00811 0.97268 0.0
O63 O 0.46017 0.04187 0.94132 0.0
H64 H 0.47802 0.12924 0.09839 0.0
H65 H 0.51633 0.14417 0.93225 0.0
O66 O 0.57999 0.08483 0.079 0.0
H67 H 0.66332 0.07131 0.86507 0.0
H68 H 0.46389 0.21133 0.96967 0.0
Cu69 Cu 0.3267 0.33517 0.31182 0.0
N70 N 0.31055 0.30224 0.37336 0.0
N71 N 0.27369 0.24781 0.42326 0.0
C72 C 0.28559 0.25879 0.3714 0.0
C73 C 0.2923 0.28592 0.45919 0.0
C74 C 0.31487 0.3193 0.42838 0.0
O75 O 0.2777 0.37497 0.30302 0.0
C76 C 0.35887 0.30301 0.20138 0.0
O77 O 0.36281 0.34797 0.19554 0.0
H78 H 0.27421 0.2368 0.33243 0.0
H79 H 0.33179 0.35429 0.44486 0.0
N80 N 0.38142 0.37876 0.32525 0.0
N81 N 0.43516 0.43919 0.30797 0.0
C82 C 0.39036 0.41776 0.29987 0.0
C83 C 0.42173 0.37548 0.35139 0.0
C84 C 0.45496 0.4127 0.34083 0.0
C85 C 0.23548 0.36663 0.32009 0.0
O86 O 0.22057 0.32497 0.33466 0.0
H87 H 0.3653 0.42788 0.27217 0.0
H88 H 0.42737 0.3467 0.37378 0.0
O89 O 0.34026 0.28983 0.24615 0.0
H90 H 0.28933 0.28978 0.50449 0.0
H91 H 0.49137 0.41843 0.35432 0.0
Cu92 Cu 0.78929 0.26064 0.32556 0.0
N93 N 0.73465 0.29021 0.32978 0.0
N94 N 0.6847 0.33054 0.29115 0.0
C95 C 0.71665 0.30002 0.28196 0.0
C96 C 0.6823 0.34045 0.34777 0.0
C97 C 0.71329 0.3156 0.37154 0.0
O98 O 0.78026 0.22226 0.2518 0.0
C99 C 0.84861 0.32856 0.39073 0.0
O100 O 0.82008 0.31114 0.42815 0.0
H101 H 0.73018 0.2883 0.24088 0.0
H102 H 0.7219 0.31851 0.41565 0.0
N103 N 0.7989 0.21773 0.37478 0.0
N104 N 0.83593 0.16169 0.40372 0.0
C105 C 0.83455 0.19168 0.36571 0.0
C106 C 0.77656 0.20417 0.42064 0.0
C107 C 0.79955 0.16961 0.43877 0.0
C108 C 0.74836 0.18662 0.25213 0.0
O109 O 0.7321 0.17597 0.30075 0.0
H110 H 0.85934 0.19527 0.33169 0.0
H111 H 0.74578 0.21806 0.43921 0.0
O112 O 0.84226 0.31143 0.33889 0.0
H113 H 0.66137 0.36544 0.37045 0.0
H114 H 0.78974 0.15136 0.47442 0.0
Cu115 Cu 0.80447 0.81093 0.78617 0.0
N116 N 0.76268 0.75484 0.78922 0.0
N117 N 0.72328 0.69384 0.82658 0.0
C118 C 0.74781 0.73768 0.83695 0.0
C119 C 0.72212 0.68352 0.76987 0.0
C120 C 0.74643 0.72106 0.74705 0.0
O121 O 0.78196 0.86161 0.83913 0.0
C122 C 0.87661 0.75298 0.79297 0.0
O123 O 0.84662 0.72533 0.81948 0.0
H124 H 0.75731 0.756 0.87852 0.0
H125 H 0.75325 0.72288 0.70298 0.0
N126 N 0.80725 0.83501 0.71734 0.0
N127 N 0.85172 0.87806 0.66017 0.0
C128 C 0.84834 0.84111 0.68944 0.0
C129 C 0.78301 0.86874 0.70355 0.0
C130 C 0.81028 0.89524 0.66831 0.0
C131 C 0.73739 0.86211 0.83797 0.0
O132 O 0.7113 0.82788 0.80613 0.0
H133 H 0.87773 0.82305 0.69653 0.0
H134 H 0.75047 0.87743 0.72303 0.0
O135 O 0.86898 0.79551 0.79204 0.0
H136 H 0.70564 0.65079 0.74632 0.0
H137 H 0.80168 0.92682 0.65349 0.0
Cu138 Cu 0.58239 0.53948 0.06305 0.0
N139 N 0.53252 0.53542 1.01234 0.0
N140 N 0.48893 0.55985 0.94848 0.0
C141 C 0.52653 0.57077 0.98322 0.0
C142 C 0.47011 0.51574 0.95648 0.0
C143 C 0.49724 0.50064 0.99582 0.0
O144 O 0.63235 0.58232 0.03232 0.0
C145 C 0.51856 0.55842 0.15257 0.0
O146 O 0.4886 0.5632 0.11368 0.0
H147 H 0.54928 0.60424 0.9881 0.0
H148 H 0.49167 0.46684 1.01118 0.0
N149 N 0.60106 0.48044 0.06928 0.0
N150 N 0.62004 0.42309 0.11575 0.0
C151 C 0.61862 0.46998 0.11711 0.0
C152 C 0.59121 0.43876 0.03599 0.0
C153 C 0.60312 0.40345 0.0643 0.0
C154 C 0.64501 0.56827 0.9822 0.0
O155 O 0.62966 0.52464 0.96004 0.0
H156 H 0.62857 0.49642 0.15298 0.0
H157 H 0.57419 0.43401 0.99536 0.0
O158 O 0.56195 0.55877 0.13982 0.0
H159 H 0.43944 0.49553 0.93492 0.0
H160 H 0.59741 0.36599 0.04897 0.0
Cu161 Cu 0.04585 0.55729 0.53694 0.0
N162 N 1.01153 0.60902 0.55013 0.0
N163 N 0.97565 0.66284 0.60561 0.0
C164 C 0.98949 0.61943 0.59942 0.0
C165 C 0.98909 0.68033 0.55771 0.0
C166 C 1.01124 0.64705 0.52353 0.0
O167 O 0.08613 0.56352 0.60341 0.0
C168 C 0.98128 0.49334 0.47282 0.0
O169 O 0.99082 0.52628 0.44017 0.0
H170 H 0.98676 0.59674 0.63186 0.0
H171 H 1.02823 0.65144 0.48378 0.0
N172 N 0.08663 0.55425 0.47501 0.0
N173 N 0.13231 0.51795 0.41073 0.0
C174 C 0.10031 0.51288 0.45198 0.0
C175 C 0.11108 0.58725 0.44768 0.0
C176 C 0.13939 0.56491 0.40796 0.0
C177 C 0.1068 0.60553 0.61803 0.0
O178 O 0.10086 0.63844 0.58726 0.0
H179 H 0.0882 0.47975 0.46715 0.0
H180 H 0.10949 0.62482 0.4569 0.0
O181 O 1.00067 0.49977 0.52137 0.0
H182 H 0.98433 0.71508 0.54852 0.0
H183 H 0.16366 0.58204 0.37987 0.0
C184 C 0.21355 0.12242 0.41085 0.0
C185 C 0.18634 0.12246 0.46022 0.0
H186 H 0.26253 0.16124 0.36092 0.0
C187 C 0.18956 0.16445 0.49851 0.0
H188 H 0.21249 0.09082 0.38031 0.0
C189 C 0.21864 0.20544 0.48699 0.0
C190 C 0.24502 0.2054 0.43681 0.0
H191 H 0.1691 0.16589 0.53683 0.0
H192 H 0.21954 0.23742 0.51678 0.0
C193 C 0.24228 0.1631 0.39934 0.0
C194 C 0.23468 0.8626 0.5168 0.0
C195 C 0.20503 0.89324 0.54525 0.0
H196 H 0.28615 0.81635 0.52262 0.0
C197 C 0.20656 0.9008 0.60445 0.0
H198 H 0.23514 0.85607 0.47138 0.0
C199 C 0.23659 0.87831 0.63414 0.0
C200 C 0.26604 0.84746 0.60564 0.0
H201 H 0.18414 0.92365 0.62821 0.0
H202 H 0.2368 0.88548 0.67953 0.0
C203 C 0.2646 0.84006 0.54644 0.0
C204 C 0.39492 0.95908 0.91462 0.0
C205 C 0.42992 0.9623 0.95601 0.0
H206 H 0.34579 0.91413 0.85798 0.0
C207 C 0.43831 0.92072 0.97613 0.0
H208 H 0.38716 0.9904 0.89842 0.0
C209 C 0.41434 0.87669 0.95279 0.0
C210 C 0.38146 0.87329 0.90885 0.0
H211 H 0.46497 0.92188 1.00792 0.0
H212 H 0.42321 0.84515 0.9675 0.0
C213 C 0.37102 0.91523 0.89138 0.0
C214 C 0.38448 0.22296 0.16835 0.0
C215 C 0.38158 0.2697 0.15945 0.0
H216 H 0.41136 0.15785 0.13969 0.0
C217 C 0.40385 0.2857 0.11176 0.0
H218 H 0.36791 0.20935 0.20461 0.0
C219 C 0.42912 0.25633 0.07474 0.0
C220 C 0.43305 0.20991 0.08416 0.0
H221 H 0.40268 0.32149 0.10347 0.0
H222 H 0.44665 0.27065 0.03952 0.0
C223 C 0.40988 0.1935 0.13126 0.0
C224 C 0.96947 0.89072 0.58932 0.0
C225 C 0.97951 0.93988 0.58963 0.0
H226 H 0.92108 0.83275 0.61069 0.0
C227 C 0.94707 0.96891 0.61456 0.0
H228 H 0.99361 0.86735 0.57003 0.0
C229 C 0.90473 0.94878 0.63714 0.0
C230 C 0.89444 0.89935 0.63579 0.0
H231 H 0.95349 1.0068 0.61453 0.0
H232 H 0.88019 0.97188 0.6558 0.0
C233 C 0.92776 0.8708 0.61235 0.0
C234 C 0.93048 0.08503 0.35967 0.0
C235 C 0.94221 0.07103 0.41077 0.0
H236 H 0.88728 0.12368 0.31705 0.0
C237 C 0.91608 0.08508 0.459 0.0
H238 H 0.9496 0.07512 0.32165 0.0
C239 C 0.88052 0.11375 0.45656 0.0
C240 C 0.87005 0.12915 0.40583 0.0
H241 H 0.92327 0.07431 0.49896 0.0
H242 H 0.8622 0.12488 0.4948 0.0
C243 C 0.89494 0.11357 0.35723 0.0
C244 C 0.71815 0.18971 0.15555 0.0
C245 C 0.72036 0.16513 0.20154 0.0
H246 H 0.68151 0.1952 0.08048 0.0
C247 C 0.68883 0.12343 0.20366 0.0
H248 H 0.74152 0.22215 0.15296 0.0
C249 C 0.65399 0.10821 0.1626 0.0
C250 C 0.64994 0.13433 0.1184 0.0
H251 H 0.68969 0.1036 0.23861 0.0
H252 H 0.62943 0.07681 0.16644 0.0
C253 C 0.68324 0.17449 0.11444 0.0
C254 C 0.64052 0.93066 0.89701 0.0
C255 C 0.66056 0.97782 0.89641 0.0
H256 H 0.64952 0.8576 0.88012 0.0
C257 C 0.70839 0.98695 0.88154 0.0
H258 H 0.60385 0.92221 0.90781 0.0
C259 C 0.73504 0.94953 0.86629 0.0
C260 C 0.71409 0.9024 0.86494 0.0
H261 H 0.72505 1.02292 0.88133 0.0
H262 H 0.77119 0.95736 0.85298 0.0
C263 C 0.66679 0.89356 0.88123 0.0
C264 C 0.67594 0.6507 0.96095 0.0
C265 C 0.66937 0.60135 0.94512 0.0
H266 H 0.69768 0.7189 0.93559 0.0
C267 C 0.68243 0.58333 0.89041 0.0
H268 H 0.66589 0.66591 1.00248 0.0
C269 C 0.70026 0.61352 0.85213 0.0
C270 C 0.70581 0.66288 0.86717 0.0
H271 H 0.67811 0.54558 0.8765 0.0
H272 H 0.70978 0.59793 0.81061 0.0
C273 C 0.69406 0.68111 0.92247 0.0
C274 C 0.6515 0.39835 0.26022 0.0
C275 C 0.66432 0.35258 0.24832 0.0
H276 H 0.62728 0.45646 0.22826 0.0
C277 C 0.66004 0.32975 0.19242 0.0
H278 H 0.65437 0.4172 0.30253 0.0
C279 C 0.64522 0.35256 0.14942 0.0
C280 C 0.63387 0.39896 0.16081 0.0
H281 H 0.66872 0.2942 0.18156 0.0
H282 H 0.64374 0.33398 0.10699 0.0
C283 C 0.63652 0.42121 0.21713 0.0
C284 C 0.9066 0.39878 0.37336 0.0
C285 C 0.88556 0.3686 0.4102 0.0
H286 H 0.95296 0.462 0.36444 0.0
C287 C 0.89797 0.37856 0.46763 0.0
H288 H 0.89777 0.39218 0.32904 0.0
C289 C 0.92983 0.41834 0.488 0.0
C290 C 0.94955 0.4495 0.45155 0.0
H291 H 0.88261 0.35582 0.49719 0.0
H292 H 0.93809 0.42527 0.53247 0.0
C293 C 0.938 0.43895 0.39388 0.0
C294 C 0.90279 0.68091 0.73662 0.0
C295 C 0.90773 0.73053 0.74957 0.0
H296 H 0.9194 0.62087 0.68065 0.0
C297 C 0.9381 0.75752 0.71608 0.0
H298 H 0.87984 0.65867 0.76116 0.0
C299 C 0.96043 0.73555 0.66891 0.0
C300 C 0.95375 0.68598 0.65481 0.0
H301 H 0.94391 0.79568 0.72556 0.0
H302 H 0.98293 0.7574 0.64355 0.0
C303 C 0.92544 0.65903 0.69008 0.0
C304 C 0.52775 0.51113 0.23119 0.0
C305 C 0.50002 0.53712 0.20277 0.0
H306 H 0.52909 0.45912 0.28615 0.0
C307 C 0.45204 0.53562 0.2165 0.0
H308 H 0.56486 0.51157 0.22199 0.0
C309 C 0.43151 0.50591 0.25401 0.0
C310 C 0.45824 0.47637 0.27832 0.0
H311 H 0.4297 0.55558 0.196 0.0
H312 H 0.39415 0.50468 0.26201 0.0
C313 C 0.50709 0.48092 0.26826 0.0
C314 C 0.4897 0.65543 0.85693 0.0
C315 C 0.44187 0.65201 0.84248 0.0
H316 H 0.54215 0.62864 0.90083 0.0
C317 C 0.40994 0.61626 0.86186 0.0
H318 H 0.51539 0.68254 0.84334 0.0
C319 C 0.42536 0.5854 0.89564 0.0
C320 C 0.47304 0.5897 0.91111 0.0
H321 H 0.37297 0.6121 0.85103 0.0
H322 H 0.39976 0.55893 0.91071 0.0
C323 C 0.50504 0.62475 0.89069 0.0
C324 C 0.21708 0.61226 0.70273 0.0
C325 C 0.22044 0.65914 0.73038 0.0
H326 H 0.17708 0.55744 0.64596 0.0
C327 C 0.18118 0.68341 0.73011 0.0
H328 H 0.24671 0.59254 0.7025 0.0
C329 C 0.14174 0.66342 0.69737 0.0
C330 C 0.14038 0.6185 0.66529 0.0
H331 H 0.18252 0.71946 0.75087 0.0
H332 H 0.11365 0.68456 0.69387 0.0
C333 C 0.17715 0.59194 0.67065 0.0
C334 C 0.22689 0.45358 0.33638 0.0
C335 C 0.20666 0.40602 0.33433 0.0
H336 H 0.21939 0.52652 0.36265 0.0
C337 C 0.15994 0.39653 0.35249 0.0
H338 H 0.26286 0.46228 0.3229 0.0
C339 C 0.13502 0.43334 0.37502 0.0
C340 C 0.15613 0.48079 0.38047 0.0
H341 H 0.143 0.36045 0.35111 0.0
H342 H 0.09942 0.42441 0.38944 0.0
C343 C 0.20192 0.49053 0.35921 0.0
loop_
_geom_bond_atom_site_label_1
_geom_bond_atom_site_label_2
_geom_bond_distance
_geom_bond_site_symmetry_2
_ccdc_geom_bond_type
Cu0 N1 2.002 . S
Cu0 O6 1.974 1_445 S
Cu0 N11 1.985 1_455 S
Cu0 O20 1.959 . S
N1 Cu0 2.002 . S
N1 C3 1.259 1_545 S
N1 C5 1.391 . S
N2 C3 1.358 . S
N2 C4 1.400 . S
C3 N1 1.259 1_565 S
C3 N2 1.358 . S
C3 H9 0.930 . S
C4 N2 1.400 . S
C4 C5 1.351 1_565 S
C4 H21 0.930 1_565 S
C5 N1 1.391 . S
C5 C4 1.351 1_545 S
C5 H10 0.930 . S
O6 Cu0 1.974 1_665 S
O6 C16 1.282 . S
C7 O8 1.261 . S
C7 O20 1.251 . S
O8 C7 1.261 . S
H9 C3 0.930 . S
H10 C5 0.930 . S
N11 Cu0 1.985 1_655 S
N11 C13 1.335 . S
N11 C14 1.390 . S
N12 C13 1.345 . S
N12 C15 1.336 . S
C13 N11 1.335 . S
C13 N12 1.345 . S
C13 H18 0.930 1_655 S
C14 N11 1.390 . S
C14 C15 1.346 . S
C14 H19 0.930 1_545 S
C15 N12 1.336 . S
C15 C14 1.346 . S
C15 H22 0.929 . S
C16 O6 1.282 . S
C16 O17 1.216 . S
O17 C16 1.216 . S
H18 C13 0.930 1_455 S
H19 C14 0.930 1_565 S
O20 Cu0 1.959 . S
O20 C7 1.251 . S
H21 C4 0.930 1_545 S
H22 C15 0.929 . S
Cu23 N24 1.999 . S
Cu23 O29 1.974 . S
Cu23 N34 1.985 . S
Cu23 O43 1.959 . S
N24 Cu23 1.999 . S
N24 C26 1.263 . S
N24 C28 1.389 . S
N25 C26 1.358 . S
N25 C27 1.400 . S
C26 N24 1.263 . S
C26 N25 1.358 . S
C26 H32 0.930 . S
C27 N25 1.400 . S
C27 C28 1.351 . S
C27 H44 0.930 . S
C28 N24 1.389 . S
C28 C27 1.351 . S
C28 H33 0.930 . S
O29 Cu23 1.974 . S
O29 C39 1.282 . S
C30 O31 1.261 . S
C30 O43 1.251 . S
O31 C30 1.261 . S
H32 C26 0.930 . S
H33 C28 0.930 . S
N34 Cu23 1.985 . S
N34 C36 1.335 . S
N34 C37 1.390 . S
N35 C36 1.345 . S
N35 C38 1.336 . S
C36 N34 1.335 . S
C36 N35 1.345 . S
C36 H41 0.930 . S
C37 N34 1.390 . S
C37 C38 1.346 . S
C37 H42 0.930 . S
C38 N35 1.336 . S
C38 C37 1.346 . S
C38 H45 0.929 . S
C39 O29 1.282 . S
C39 O40 1.216 . S
O40 C39 1.216 . S
H41 C36 0.930 . S
H42 C37 0.930 . S
O43 Cu23 1.959 . S
O43 C30 1.251 . S
H44 C27 0.930 . S
H45 C38 0.929 . S
Cu46 N47 1.997 1_554 S
Cu46 O52 1.974 1_554 S
Cu46 N57 1.985 1_565 S
Cu46 O66 1.959 1_565 S
N47 Cu46 1.997 1_556 S
N47 C49 1.269 . S
N47 C51 1.385 1_556 S
N48 C49 1.358 . S
N48 C50 1.400 . S
C49 N47 1.269 . S
C49 N48 1.358 . S
C49 H55 0.930 . S
C50 N48 1.400 . S
C50 C51 1.351 1_556 S
C50 H67 0.930 1_556 S
C51 N47 1.385 1_554 S
C51 C50 1.351 1_554 S
C51 H56 0.930 . S
O52 Cu46 1.974 1_556 S
O52 C62 1.282 . S
C53 O54 1.261 . S
C53 O66 1.251 . S
O54 C53 1.261 . S
H55 C49 0.930 . S
H56 C51 0.930 . S
N57 Cu46 1.985 1_545 S
N57 C59 1.335 . S
N57 C60 1.390 . S
N58 C59 1.345 . S
N58 C61 1.336 . S
C59 N57 1.335 . S
C59 N58 1.345 . S
C59 H64 0.930 . S
C60 N57 1.390 . S
C60 C61 1.346 . S
C60 H65 0.930 1_554 S
C61 N58 1.336 . S
C61 C60 1.346 . S
C61 H68 0.929 . S
C62 O52 1.282 . S
C62 O63 1.216 . S
O63 C62 1.216 . S
H64 C59 0.930 . S
H65 C60 0.930 1_556 S
O66 Cu46 1.959 1_545 S
O66 C53 1.251 . S
H67 C50 0.930 1_554 S
H68 C61 0.929 . S
Cu69 N70 1.999 . S
Cu69 O75 1.974 . S
Cu69 N80 1.985 . S
Cu69 O89 1.959 . S
N70 Cu69 1.999 . S
N70 C72 1.263 . S
N70 C74 1.389 . S
N71 C72 1.358 . S
N71 C73 1.400 . S
C72 N70 1.263 . S
C72 N71 1.358 . S
C72 H78 0.930 . S
C73 N71 1.400 . S
C73 C74 1.351 . S
C73 H90 0.930 . S
C74 N70 1.389 . S
C74 C73 1.351 . S
C74 H79 0.930 . S
O75 Cu69 1.974 . S
O75 C85 1.282 . S
C76 O77 1.261 . S
C76 O89 1.251 . S
O77 C76 1.261 . S
H78 C72 0.930 . S
H79 C74 0.930 . S
N80 Cu69 1.985 . S
N80 C82 1.335 . S
N80 C83 1.390 . S
N81 C82 1.345 . S
N81 C84 1.336 . S
C82 N80 1.335 . S
C82 N81 1.345 . S
C82 H87 0.930 . S
C83 N80 1.390 . S
C83 C84 1.346 . S
C83 H88 0.930 . S
C84 N81 1.336 . S
C84 C83 1.346 . S
C84 H91 0.929 . S
C85 O75 1.282 . S
C85 O86 1.216 . S
O86 C85 1.216 . S
H87 C82 0.930 . S
H88 C83 0.930 . S
O89 Cu69 1.959 . S
O89 C76 1.251 . S
H90 C73 0.930 . S
H91 C84 0.929 . S
Cu92 N93 1.999 . S
Cu92 O98 1.974 . S
Cu92 N103 1.985 . S
Cu92 O112 1.959 . S
N93 Cu92 1.999 . S
N93 C95 1.263 . S
N93 C97 1.389 . S
N94 C95 1.358 . S
N94 C96 1.400 . S
C95 N93 1.263 . S
C95 N94 1.358 . S
C95 H101 0.930 . S
C96 N94 1.400 . S
C96 C97 1.351 . S
C96 H113 0.930 . S
C97 N93 1.389 . S
C97 C96 1.351 . S
C97 H102 0.930 . S
O98 Cu92 1.974 . S
O98 C108 1.282 . S
C99 O100 1.261 . S
C99 O112 1.251 . S
O100 C99 1.261 . S
H101 C95 0.930 . S
H102 C97 0.930 . S
N103 Cu92 1.985 . S
N103 C105 1.335 . S
N103 C106 1.390 . S
N104 C105 1.345 . S
N104 C107 1.336 . S
C105 N103 1.335 . S
C105 N104 1.345 . S
C105 H110 0.930 . S
C106 N103 1.390 . S
C106 C107 1.346 . S
C106 H111 0.930 . S
C107 N104 1.336 . S
C107 C106 1.346 . S
C107 H114 0.929 . S
C108 O98 1.282 . S
C108 O109 1.216 . S
O109 C108 1.216 . S
H110 C105 0.930 . S
H111 C106 0.930 . S
O112 Cu92 1.959 . S
O112 C99 1.251 . S
H113 C96 0.930 . S
H114 C107 0.929 . S
Cu115 N116 1.999 . S
Cu115 O121 1.974 . S
Cu115 N126 1.985 . S
Cu115 O135 1.959 . S
N116 Cu115 1.999 . S
N116 C118 1.263 . S
N116 C120 1.389 . S
N117 C118 1.358 . S
N117 C119 1.400 . S
C118 N116 1.263 . S
C118 N117 1.358 . S
C118 H124 0.930 . S
C119 N117 1.400 . S
C119 C120 1.351 . S
C119 H136 0.930 . S
C120 N116 1.389 . S
C120 C119 1.351 . S
C120 H125 0.930 . S
O121 Cu115 1.974 . S
O121 C131 1.282 . S
C122 O123 1.261 . S
C122 O135 1.251 . S
O123 C122 1.261 . S
H124 C118 0.930 . S
H125 C120 0.930 . S
N126 Cu115 1.985 . S
N126 C128 1.335 . S
N126 C129 1.390 . S
N127 C128 1.345 . S
N127 C130 1.336 . S
C128 N126 1.335 . S
C128 N127 1.345 . S
C128 H133 0.930 . S
C129 N126 1.390 . S
C129 C130 1.346 . S
C129 H134 0.930 . S
C130 N127 1.336 . S
C130 C129 1.346 . S
C130 H137 0.929 . S
C131 O121 1.282 . S
C131 O132 1.216 . S
O132 C131 1.216 . S
H133 C128 0.930 . S
H134 C129 0.930 . S
O135 Cu115 1.959 . S
O135 C122 1.251 . S
H136 C119 0.930 . S
H137 C130 0.929 . S
Cu138 N139 1.999 . S
Cu138 O144 1.974 1_554 S
Cu138 N149 1.985 . S
Cu138 O158 1.959 . S
N139 Cu138 1.999 . S
N139 C141 1.263 1_554 S
N139 C143 1.389 . S
N140 C141 1.358 . S
N140 C142 1.400 1_556 S
C141 N139 1.263 1_556 S
C141 N140 1.358 . S
C141 H147 0.930 . S
C142 N140 1.400 1_554 S
C142 C143 1.351 . S
C142 H159 0.930 . S
C143 N139 1.389 . S
C143 C142 1.351 . S
C143 H148 0.930 . S
O144 Cu138 1.974 1_556 S
O144 C154 1.282 . S
C145 O146 1.261 1_554 S
C145 O158 1.251 . S
O146 C145 1.261 1_556 S
H147 C141 0.930 . S
H148 C143 0.930 . S
N149 Cu138 1.985 . S
N149 C151 1.335 . S
N149 C152 1.390 . S
N150 C151 1.345 . S
N150 C153 1.336 . S
C151 N149 1.335 . S
C151 N150 1.345 . S
C151 H156 0.930 . S
C152 N149 1.390 . S
C152 C153 1.346 . S
C152 H157 0.930 1_554 S
C153 N150 1.336 . S
C153 C152 1.346 . S
C153 H160 0.929 . S
C154 O144 1.282 . S
C154 O155 1.216 . S
O155 C154 1.216 . S
H156 C151 0.930 . S
H157 C152 0.930 1_556 S
O158 Cu138 1.959 . S
O158 C145 1.251 . S
H159 C142 0.930 . S
H160 C153 0.929 . S
Cu161 N162 1.999 1_455 S
Cu161 O167 1.974 . S
Cu161 N172 1.985 . S
Cu161 O181 1.959 1_455 S
N162 Cu161 1.999 1_655 S
N162 C164 1.263 . S
N162 C166 1.389 . S
N163 C164 1.358 . S
N163 C165 1.400 . S
C164 N162 1.263 . S
C164 N163 1.358 . S
C164 H170 0.930 . S
C165 N163 1.400 . S
C165 C166 1.351 . S
C165 H182 0.930 . S
C166 N162 1.389 . S
C166 C165 1.351 . S
C166 H171 0.930 . S
O167 Cu161 1.974 . S
O167 C177 1.282 . S
C168 O169 1.261 . S
C168 O181 1.251 . S
O169 C168 1.261 . S
H170 C164 0.930 . S
H171 C166 0.930 . S
N172 Cu161 1.985 . S
N172 C174 1.335 . S
N172 C175 1.390 . S
N173 C174 1.345 . S
N173 C176 1.336 . S
C174 N172 1.335 . S
C174 N173 1.345 . S
C174 H179 0.930 . S
C175 N172 1.390 . S
C175 C176 1.346 . S
C175 H180 0.930 . S
C176 N173 1.336 . S
C176 C175 1.346 . S
C176 H183 0.929 . S
C177 O167 1.282 . S
C177 O178 1.216 . S
O178 C177 1.216 . S
H179 C174 0.930 . S
H180 C175 0.930 . S
O181 Cu161 1.959 1_655 S
O181 C168 1.251 . S
H182 C165 0.930 . S
H183 C176 0.929 . S
C184 C185 1.387 . S
C184 H188 0.950 . S
C184 C193 1.390 . S
C185 C184 1.387 . S
C185 C187 1.387 . S
H186 C193 0.950 . S
C187 C185 1.387 . S
C187 C189 1.390 . S
C187 H191 0.950 . S
H188 C184 0.950 . S
C189 C187 1.390 . S
C189 C190 1.387 . S
C189 H192 0.950 . S
C190 C189 1.387 . S
C190 C193 1.387 . S
H191 C187 0.950 . S
H192 C189 0.950 . S
C193 C184 1.390 . S
C193 H186 0.950 . S
C193 C190 1.387 . S
C194 C195 1.387 . S
C194 H198 0.950 . S
C194 C203 1.390 . S
C195 C194 1.387 . S
C195 C197 1.387 . S
H196 C203 0.950 . S
C197 C195 1.387 . S
C197 C199 1.390 . S
C197 H201 0.950 . S
H198 C194 0.950 . S
C199 C197 1.390 . S
C199 C200 1.387 . S
C199 H202 0.950 . S
C200 C199 1.387 . S
C200 C203 1.387 . S
H201 C197 0.950 . S
H202 C199 0.950 . S
C203 C194 1.390 . S
C203 H196 0.950 . S
C203 C200 1.387 . S
C204 C205 1.387 . S
C204 H208 0.950 . S
C204 C213 1.390 . S
C205 C204 1.387 . S
C205 C207 1.387 . S
H206 C213 0.950 . S
C207 C205 1.387 . S
C207 C209 1.390 . S
C207 H211 0.950 . S
H208 C204 0.950 . S
C209 C207 1.390 . S
C209 C210 1.387 . S
C209 H212 0.950 . S
C210 C209 1.387 . S
C210 C213 1.387 . S
H211 C207 0.950 . S
H212 C209 0.950 . S
C213 C204 1.390 . S
C213 H206 0.950 . S
C213 C210 1.387 . S
C214 C215 1.387 . S
C214 H218 0.950 . S
C214 C223 1.390 . S
C215 C214 1.387 . S
C215 C217 1.387 . S
H216 C223 0.950 . S
C217 C215 1.387 . S
C217 C219 1.390 . S
C217 H221 0.950 . S
H218 C214 0.950 . S
C219 C217 1.390 . S
C219 C220 1.387 . S
C219 H222 0.950 . S
C220 C219 1.387 . S
C220 C223 1.387 . S
H221 C217 0.950 . S
H222 C219 0.950 . S
C223 C214 1.390 . S
C223 H216 0.950 . S
C223 C220 1.387 . S
C224 C225 1.387 . S
C224 H228 0.950 . S
C224 C233 1.390 . S
C225 C224 1.387 . S
C225 C227 1.387 . S
H226 C233 0.950 . S
C227 C225 1.387 . S
C227 C229 1.390 . S
C227 H231 0.950 . S
H228 C224 0.950 . S
C229 C227 1.390 . S
C229 C230 1.387 . S
C229 H232 0.950 . S
C230 C229 1.387 . S
C230 C233 1.387 . S
H231 C227 0.950 . S
H232 C229 0.950 . S
C233 C224 1.390 . S
C233 H226 0.950 . S
C233 C230 1.387 . S
C234 C235 1.387 . S
C234 H238 0.950 . S
C234 C243 1.390 . S
C235 C234 1.387 . S
C235 C237 1.387 . S
H236 C243 0.950 . S
C237 C235 1.387 . S
C237 C239 1.390 . S
C237 H241 0.950 . S
H238 C234 0.950 . S
C239 C237 1.390 . S
C239 C240 1.387 . S
C239 H242 0.950 . S
C240 C239 1.387 . S
C240 C243 1.387 . S
H241 C237 0.950 . S
H242 C239 0.950 . S
C243 C234 1.390 . S
C243 H236 0.950 . S
C243 C240 1.387 . S
C244 C245 1.387 . S
C244 H248 0.950 . S
C244 C253 1.390 . S
C245 C244 1.387 . S
C245 C247 1.387 . S
H246 C253 0.950 . S
C247 C245 1.387 . S
C247 C249 1.390 . S
C247 H251 0.950 . S
H248 C244 0.950 . S
C249 C247 1.390 . S
C249 C250 1.387 . S
C249 H252 0.950 . S
C250 C249 1.387 . S
C250 C253 1.387 . S
H251 C247 0.950 . S
H252 C249 0.950 . S
C253 C244 1.390 . S
C253 H246 0.950 . S
C253 C250 1.387 . S
C254 C255 1.387 . S
C254 H258 0.950 . S
C254 C263 1.390 . S
C255 C254 1.387 . S
C255 C257 1.387 . S
H256 C263 0.950 . S
C257 C255 1.387 . S
C257 C259 1.390 . S
C257 H261 0.950 . S
H258 C254 0.950 . S
C259 C257 1.390 . S
C259 C260 1.387 . S
C259 H262 0.950 . S
C260 C259 1.387 . S
C260 C263 1.387 . S
H261 C257 0.950 . S
H262 C259 0.950 . S
C263 C254 1.390 . S
C263 H256 0.950 . S
C263 C260 1.387 . S
C264 C265 1.387 . S
C264 H268 0.950 . S
C264 C273 1.390 . S
C265 C264 1.387 . S
C265 C267 1.387 . S
H266 C273 0.950 . S
C267 C265 1.387 . S
C267 C269 1.390 . S
C267 H271 0.950 . S
H268 C264 0.950 . S
C269 C267 1.390 . S
C269 C270 1.387 . S
C269 H272 0.950 . S
C270 C269 1.387 . S
C270 C273 1.387 . S
H271 C267 0.950 . S
H272 C269 0.950 . S
C273 C264 1.390 . S
C273 H266 0.950 . S
C273 C270 1.387 . S
C274 C275 1.387 . S
C274 H278 0.950 . S
C274 C283 1.390 . S
C275 C274 1.387 . S
C275 C277 1.387 . S
H276 C283 0.950 . S
C277 C275 1.387 . S
C277 C279 1.390 . S
C277 H281 0.950 . S
H278 C274 0.950 . S
C279 C277 1.390 . S
C279 C280 1.387 . S
C279 H282 0.950 . S
C280 C279 1.387 . S
C280 C283 1.387 . S
H281 C277 0.950 . S
H282 C279 0.950 . S
C283 C274 1.390 . S
C283 H276 0.950 . S
C283 C280 1.387 . S
C284 C285 1.387 . S
C284 H288 0.950 . S
C284 C293 1.390 . S
C285 C284 1.387 . S
C285 C287 1.387 . S
H286 C293 0.950 . S
C287 C285 1.387 . S
C287 C289 1.390 . S
C287 H291 0.950 . S
H288 C284 0.950 . S
C289 C287 1.390 . S
C289 C290 1.387 . S
C289 H292 0.950 . S
C290 C289 1.387 . S
C290 C293 1.387 . S
H291 C287 0.950 . S
H292 C289 0.950 . S
C293 C284 1.390 . S
C293 H286 0.950 . S
C293 C290 1.387 . S
C294 C295 1.387 . S
C294 H298 0.950 . S
C294 C303 1.390 . S
C295 C294 1.387 . S
C295 C297 1.387 . S
H296 C303 0.950 . S
C297 C295 1.387 . S
C297 C299 1.390 . S
C297 H301 0.950 . S
H298 C294 0.950 . S
C299 C297 1.390 . S
C299 C300 1.387 . S
C299 H302 0.950 . S
C300 C299 1.387 . S
C300 C303 1.387 . S
H301 C297 0.950 . S
H302 C299 0.950 . S
C303 C294 1.390 . S
C303 H296 0.950 . S
C303 C300 1.387 . S
C304 C305 1.387 . S
C304 H308 0.950 . S
C304 C313 1.390 . S
C305 C304 1.387 . S
C305 C307 1.387 . S
H306 C313 0.950 . S
C307 C305 1.387 . S
C307 C309 1.390 . S
C307 H311 0.950 . S
H308 C304 0.950 . S
C309 C307 1.390 . S
C309 C310 1.387 . S
C309 H312 0.950 . S
C310 C309 1.387 . S
C310 C313 1.387 . S
H311 C307 0.950 . S
H312 C309 0.950 . S
C313 C304 1.390 . S
C313 H306 0.950 . S
C313 C310 1.387 . S
C314 C315 1.387 . S
C314 H318 0.950 . S
C314 C323 1.390 . S
C315 C314 1.387 . S
C315 C317 1.387 . S
H316 C323 0.950 . S
C317 C315 1.387 . S
C317 C319 1.390 . S
C317 H321 0.950 . S
H318 C314 0.950 . S
C319 C317 1.390 . S
C319 C320 1.387 . S
C319 H322 0.950 . S
C320 C319 1.387 . S
C320 C323 1.387 . S
H321 C317 0.950 . S
H322 C319 0.950 . S
C323 C314 1.390 . S
C323 H316 0.950 . S
C323 C320 1.387 . S
C324 C325 1.387 . S
C324 H328 0.950 . S
C324 C333 1.390 . S
C325 C324 1.387 . S
C325 C327 1.387 . S
H326 C333 0.950 . S
C327 C325 1.387 . S
C327 C329 1.390 . S
C327 H331 0.950 . S
H328 C324 0.950 . S
C329 C327 1.390 . S
C329 C330 1.387 . S
C329 H332 0.950 . S
C330 C329 1.387 . S
C330 C333 1.387 . S
H331 C327 0.950 . S
H332 C329 0.950 . S
C333 C324 1.390 . S
C333 H326 0.950 . S
C333 C330 1.387 . S
C334 C335 1.387 . S
C334 H338 0.950 . S
C334 C343 1.390 . S
C335 C334 1.387 . S
C335 C337 1.387 . S
H336 C343 0.950 . S
C337 C335 1.387 . S
C337 C339 1.390 . S
C337 H341 0.950 . S
H338 C334 0.950 . S
C339 C337 1.390 . S
C339 C340 1.387 . S
C339 H342 0.950 . S
C340 C339 1.387 . S
C340 C343 1.387 . S
H341 C337 0.950 . S
H342 C339 0.950 . S
C343 C334 1.390 . S
C343 H336 0.950 . S
C343 C340 1.387 . S
C185 C7 1.471 . S
C190 N71 1.439 . S
C195 N2 1.443 . S
C200 N25 1.423 . S
C205 C62 1.571 . S
C210 C30 1.576 . S
C215 C76 1.585 . S
C220 N58 1.516 . S
C225 C16 1.450 . S
C230 N127 1.413 . S
C235 N12 1.423 . S
C240 N104 1.413 . S
C245 C108 1.599 . S
C250 C53 1.595 . S
C255 N48 1.573 . S
C260 C131 1.599 . S
C265 C154 1.442 . S
C270 N117 1.407 . S
C275 N94 1.407 . S
C280 N150 1.396 . S
C285 C99 1.598 . S
C290 C168 1.594 . S
C295 C122 1.603 . S
C300 N163 1.564 . S
C305 C145 1.481 . S
C310 N81 1.440 . S
C315 N35 1.439 . S
C320 N140 1.469 . S
C325 C39 1.572 . S
C330 C177 1.569 . S
C335 C85 1.575 . S
C340 N173 1.524 . S
