# Generated by pormake.
# Topology wkr, (6)-cn, num edge types: 1
# Building blocks:
#     Node 0, Type 0, BuildingBlock: IZENUY_clean_sbu_0, # of connection points: 6
#     Node 1, Type 0, BuildingBlock: IZENUY_clean_sbu_0, # of connection points: 6
#     Node 2, Type 0, BuildingBlock: IZENUY_clean_sbu_0, # of connection points: 6
#     Node 3, Type 0, BuildingBlock: IZENUY_clean_sbu_0, # of connection points: 6
#     Node 4, Type 0, BuildingBlock: IZENUY_clean_sbu_0, # of connection points: 6
#     Node 5, Type 0, BuildingBlock: IZENUY_clean_sbu_0, # of connection points: 6
#     Node 6, Type 0, BuildingBlock: IZENUY_clean_sbu_0, # of connection points: 6
#     Node 7, Type 0, BuildingBlock: IZENUY_clean_sbu_0, # of connection points: 6
#     Node 8, Type 0, BuildingBlock: IZENUY_clean_sbu_0, # of connection points: 6
#     Node 9, Type 0, BuildingBlock: IZENUY_clean_sbu_0, # of connection points: 6
#     Node 10, Type 0, BuildingBlock: IZENUY_clean_sbu_0, # of connection points: 6
#     Node 11, Type 0, BuildingBlock: IZENUY_clean_sbu_0, # of connection points: 6
#     Node 12, Type 0, BuildingBlock: IZENUY_clean_sbu_0, # of connection points: 6
#     Node 13, Type 0, BuildingBlock: IZENUY_clean_sbu_0, # of connection points: 6
#     Node 14, Type 0, BuildingBlock: IZENUY_clean_sbu_0, # of connection points: 6
#     Node 15, Type 0, BuildingBlock: IZENUY_clean_sbu_0, # of connection points: 6
#     Node 16, Type 0, BuildingBlock: IZENUY_clean_sbu_0, # of connection points: 6
#     Node 17, Type 0, BuildingBlock: IZENUY_clean_sbu_0, # of connection points: 6
#     Node 18, Type 0, BuildingBlock: IZENUY_clean_sbu_0, # of connection points: 6
#     Node 19, Type 0, BuildingBlock: IZENUY_clean_sbu_0, # of connection points: 6
#     Node 20, Type 0, BuildingBlock: IZENUY_clean_sbu_0, # of connection points: 6
#     Node 21, Type 0, BuildingBlock: IZENUY_clean_sbu_0, # of connection points: 6
#     Node 22, Type 0, BuildingBlock: IZENUY_clean_sbu_0, # of connection points: 6
#     Node 23, Type 0, BuildingBlock: IZENUY_clean_sbu_0, # of connection points: 6
#     Edge 24, Type (0, 0), BuildingBlock: KIFKEQ_clean_linker_1, # of connection points: 2
#     Edge 25, Type (0, 0), BuildingBlock: KIFKEQ_clean_linker_1, # of connection points: 2
#     Edge 26, Type (0, 0), BuildingBlock: KIFKEQ_clean_linker_1, # of connection points: 2
#     Edge 27, Type (0, 0), BuildingBlock: KIFKEQ_clean_linker_1, # of connection points: 2
#     Edge 28, Type (0, 0), BuildingBlock: KIFKEQ_clean_linker_1, # of connection points: 2
#     Edge 29, Type (0, 0), BuildingBlock: KIFKEQ_clean_linker_1, # of connection points: 2
#     Edge 30, Type (0, 0), BuildingBlock: KIFKEQ_clean_linker_1, # of connection points: 2
#     Edge 31, Type (0, 0), BuildingBlock: KIFKEQ_clean_linker_1, # of connection points: 2
#     Edge 32, Type (0, 0), BuildingBlock: KIFKEQ_clean_linker_1, # of connection points: 2
#     Edge 33, Type (0, 0), BuildingBlock: KIFKEQ_clean_linker_1, # of connection points: 2
#     Edge 34, Type (0, 0), BuildingBlock: KIFKEQ_clean_linker_1, # of connection points: 2
#     Edge 35, Type (0, 0), BuildingBlock: KIFKEQ_clean_linker_1, # of connection points: 2
#     Edge 36, Type (0, 0), BuildingBlock: KIFKEQ_clean_linker_1, # of connection points: 2
#     Edge 37, Type (0, 0), BuildingBlock: KIFKEQ_clean_linker_1, # of connection points: 2
#     Edge 38, Type (0, 0), BuildingBlock: KIFKEQ_clean_linker_1, # of connection points: 2
#     Edge 39, Type (0, 0), BuildingBlock: KIFKEQ_clean_linker_1, # of connection points: 2
#     Edge 40, Type (0, 0), BuildingBlock: KIFKEQ_clean_linker_1, # of connection points: 2
#     Edge 41, Type (0, 0), BuildingBlock: KIFKEQ_clean_linker_1, # of connection points: 2
#     Edge 42, Type (0, 0), BuildingBlock: KIFKEQ_clean_linker_1, # of connection points: 2
#     Edge 43, Type (0, 0), BuildingBlock: KIFKEQ_clean_linker_1, # of connection points: 2
#     Edge 44, Type (0, 0), BuildingBlock: KIFKEQ_clean_linker_1, # of connection points: 2
#     Edge 45, Type (0, 0), BuildingBlock: KIFKEQ_clean_linker_1, # of connection points: 2
#     Edge 46, Type (0, 0), BuildingBlock: KIFKEQ_clean_linker_1, # of connection points: 2
#     Edge 47, Type (0, 0), BuildingBlock: KIFKEQ_clean_linker_1, # of connection points: 2
#     Edge 48, Type (0, 0), BuildingBlock: KIFKEQ_clean_linker_1, # of connection points: 2
#     Edge 49, Type (0, 0), BuildingBlock: KIFKEQ_clean_linker_1, # of connection points: 2
#     Edge 50, Type (0, 0), BuildingBlock: KIFKEQ_clean_linker_1, # of connection points: 2
#     Edge 51, Type (0, 0), BuildingBlock: KIFKEQ_clean_linker_1, # of connection points: 2
#     Edge 52, Type (0, 0), BuildingBlock: KIFKEQ_clean_linker_1, # of connection points: 2
#     Edge 53, Type (0, 0), BuildingBlock: KIFKEQ_clean_linker_1, # of connection points: 2
#     Edge 54, Type (0, 0), BuildingBlock: KIFKEQ_clean_linker_1, # of connection points: 2
#     Edge 55, Type (0, 0), BuildingBlock: KIFKEQ_clean_linker_1, # of connection points: 2
#     Edge 56, Type (0, 0), BuildingBlock: KIFKEQ_clean_linker_1, # of connection points: 2
#     Edge 57, Type (0, 0), BuildingBlock: KIFKEQ_clean_linker_1, # of connection points: 2
#     Edge 58, Type (0, 0), BuildingBlock: KIFKEQ_clean_linker_1, # of connection points: 2
#     Edge 59, Type (0, 0), BuildingBlock: KIFKEQ_clean_linker_1, # of connection points: 2
#     Edge 60, Type (0, 0), BuildingBlock: KIFKEQ_clean_linker_1, # of connection points: 2
#     Edge 61, Type (0, 0), BuildingBlock: KIFKEQ_clean_linker_1, # of connection points: 2
#     Edge 62, Type (0, 0), BuildingBlock: KIFKEQ_clean_linker_1, # of connection points: 2
#     Edge 63, Type (0, 0), BuildingBlock: KIFKEQ_clean_linker_1, # of connection points: 2
#     Edge 64, Type (0, 0), BuildingBlock: KIFKEQ_clean_linker_1, # of connection points: 2
#     Edge 65, Type (0, 0), BuildingBlock: KIFKEQ_clean_linker_1, # of connection points: 2
#     Edge 66, Type (0, 0), BuildingBlock: KIFKEQ_clean_linker_1, # of connection points: 2
#     Edge 67, Type (0, 0), BuildingBlock: KIFKEQ_clean_linker_1, # of connection points: 2
#     Edge 68, Type (0, 0), BuildingBlock: KIFKEQ_clean_linker_1, # of connection points: 2
#     Edge 69, Type (0, 0), BuildingBlock: KIFKEQ_clean_linker_1, # of connection points: 2
#     Edge 70, Type (0, 0), BuildingBlock: KIFKEQ_clean_linker_1, # of connection points: 2
#     Edge 71, Type (0, 0), BuildingBlock: KIFKEQ_clean_linker_1, # of connection points: 2
#     Edge 72, Type (0, 0), BuildingBlock: KIFKEQ_clean_linker_1, # of connection points: 2
#     Edge 73, Type (0, 0), BuildingBlock: KIFKEQ_clean_linker_1, # of connection points: 2
#     Edge 74, Type (0, 0), BuildingBlock: KIFKEQ_clean_linker_1, # of connection points: 2
#     Edge 75, Type (0, 0), BuildingBlock: KIFKEQ_clean_linker_1, # of connection points: 2
#     Edge 76, Type (0, 0), BuildingBlock: KIFKEQ_clean_linker_1, # of connection points: 2
#     Edge 77, Type (0, 0), BuildingBlock: KIFKEQ_clean_linker_1, # of connection points: 2
#     Edge 78, Type (0, 0), BuildingBlock: KIFKEQ_clean_linker_1, # of connection points: 2
#     Edge 79, Type (0, 0), BuildingBlock: KIFKEQ_clean_linker_1, # of connection points: 2
#     Edge 80, Type (0, 0), BuildingBlock: KIFKEQ_clean_linker_1, # of connection points: 2
#     Edge 81, Type (0, 0), BuildingBlock: KIFKEQ_clean_linker_1, # of connection points: 2
#     Edge 82, Type (0, 0), BuildingBlock: KIFKEQ_clean_linker_1, # of connection points: 2
#     Edge 83, Type (0, 0), BuildingBlock: KIFKEQ_clean_linker_1, # of connection points: 2
#     Edge 84, Type (0, 0), BuildingBlock: KIFKEQ_clean_linker_1, # of connection points: 2
#     Edge 85, Type (0, 0), BuildingBlock: KIFKEQ_clean_linker_1, # of connection points: 2
#     Edge 86, Type (0, 0), BuildingBlock: KIFKEQ_clean_linker_1, # of connection points: 2
#     Edge 87, Type (0, 0), BuildingBlock: KIFKEQ_clean_linker_1, # of connection points: 2
#     Edge 88, Type (0, 0), BuildingBlock: KIFKEQ_clean_linker_1, # of connection points: 2
#     Edge 89, Type (0, 0), BuildingBlock: KIFKEQ_clean_linker_1, # of connection points: 2
#     Edge 90, Type (0, 0), BuildingBlock: KIFKEQ_clean_linker_1, # of connection points: 2
#     Edge 91, Type (0, 0), BuildingBlock: KIFKEQ_clean_linker_1, # of connection points: 2
#     Edge 92, Type (0, 0), BuildingBlock: KIFKEQ_clean_linker_1, # of connection points: 2
#     Edge 93, Type (0, 0), BuildingBlock: KIFKEQ_clean_linker_1, # of connection points: 2
#     Edge 94, Type (0, 0), BuildingBlock: KIFKEQ_clean_linker_1, # of connection points: 2
#     Edge 95, Type (0, 0), BuildingBlock: KIFKEQ_clean_linker_1, # of connection points: 2
# Relax obj value: 0.596
# Max RMSD: 0.292
# Mean RMSD: 0.292
data_MOF--net-wkr--node1-IZENUY_clean_sbu_0--edge1-KIFKEQ_clean_linker_1
_symmetry_space_group_name_H-M    P1
_symmetry_Int_Tables_number       1
_symmetry_cell_setting            triclinic
loop_
_symmetry_equiv_pos_as_xyz
'x, y, z'
_cell_length_a     49.242556
_cell_length_b     49.228113
_cell_length_c     54.584529
_cell_angle_alpha  90.091594
_cell_angle_beta   89.792468
_cell_angle_gamma 120.01336
loop_
_atom_site_label
_atom_site_type_symbol
_atom_site_fract_x
_atom_site_fract_y
_atom_site_fract_z
_atom_type_partial_charge
Fe0 Fe 0.51351 0.15664 0.15786 0.0
Fe1 Fe 0.57893 0.21397 0.16784 0.0
O2 O 0.55484 0.17479 0.15786 0.0
Fe3 Fe 0.57314 0.15356 0.14772 0.0
O4 O 0.5404 0.11499 0.15415 0.0
O5 O 0.5091 0.12345 0.17734 0.0
O6 O 0.51129 0.17783 0.18649 0.0
C7 C 0.53199 0.19632 0.20202 0.0
C8 C 0.53042 0.14031 0.11174 0.0
O9 O 0.56064 0.20621 0.1978 0.0
C10 C 0.61475 0.21345 0.13003 0.0
O11 O 0.51497 0.18692 0.13799 0.0
O12 O 0.55329 0.22795 0.1565 0.0
O13 O 0.55908 0.15203 0.11717 0.0
O14 O 0.5098 0.13496 0.12844 0.0
C15 C 0.60197 0.17963 0.19056 0.0
O16 O 0.59927 0.22548 0.13839 0.0
O17 O 0.60992 0.1876 0.13844 0.0
C18 C 0.53151 0.21612 0.14092 0.0
O19 O 0.6082 0.20543 0.1808 0.0
O20 O 0.58674 0.15443 0.17862 0.0
C21 C 0.52027 0.10608 0.17087 0.0
Fe22 Fe 0.35793 0.4852 0.16212 0.0
Fe23 Fe 0.3848 0.55618 0.1715 0.0
O24 O 0.38877 0.52453 0.16061 0.0
Fe25 Fe 0.42537 0.53227 0.14811 0.0
O26 O 0.4193 0.49331 0.15251 0.0
O27 O 0.38337 0.47406 0.18048 0.0
O28 O 0.34007 0.48921 0.19139 0.0
C29 C 0.34696 0.51178 0.20627 0.0
C30 C 0.38449 0.49411 0.11408 0.0
O31 O 0.36985 0.53875 0.2016 0.0
C32 C 0.42557 0.58669 0.13398 0.0
O33 O 0.33212 0.49412 0.14415 0.0
O34 O 0.3454 0.54074 0.15983 0.0
O35 O 0.40796 0.52102 0.11816 0.0
O36 O 0.3688 0.47557 0.13173 0.0
C37 C 0.44038 0.56336 0.19125 0.0
O38 O 0.39854 0.57738 0.14248 0.0
O39 O 0.44017 0.57312 0.14039 0.0
C40 C 0.32872 0.51789 0.14592 0.0
O41 O 0.42429 0.57572 0.18462 0.0
O42 O 0.44217 0.5429 0.1784 0.0
C43 C 0.40884 0.47739 0.17151 0.0
Fe44 Fe 0.88489 0.37034 0.16844 0.0
Fe45 Fe 0.83789 0.39415 0.17618 0.0
O46 O 0.87533 0.40045 0.16801 0.0
Fe47 Fe 0.9048 0.43909 0.15958 0.0
O48 O 0.938 0.43388 0.16503 0.0
O49 O 0.91906 0.39395 0.18933 0.0
O50 O 0.86049 0.34955 0.1963 0.0
C51 C 0.84244 0.35441 0.21039 0.0
C52 C 0.90736 0.40347 0.12261 0.0
O53 O 0.83675 0.37621 0.20558 0.0
C54 C 0.85262 0.43833 0.14072 0.0
O55 O 0.85264 0.34543 0.14811 0.0
O56 O 0.81656 0.35614 0.16166 0.0
O57 O 0.90339 0.42626 0.12843 0.0
O58 O 0.90827 0.38526 0.13919 0.0
C59 C 0.88121 0.44529 0.20284 0.0
O60 O 0.83437 0.41043 0.14712 0.0
O61 O 0.87863 0.45354 0.15118 0.0
C62 C 0.82513 0.34114 0.14797 0.0
O63 O 0.85502 0.43219 0.19186 0.0
O64 O 0.90591 0.45077 0.1914 0.0
C65 C 0.94157 0.42071 0.18314 0.0
Fe66 Fe 0.46565 0.79867 0.15415 0.0
Fe67 Fe 0.47352 0.86264 0.14207 0.0
O68 O 0.49037 0.83963 0.1504 0.0
Fe69 Fe 0.53137 0.85661 0.15395 0.0
O70 O 0.52702 0.84219 0.18609 0.0
O71 O 0.49162 0.79396 0.17607 0.0
O72 O 0.44724 0.80507 0.18018 0.0
C73 C 0.43687 0.82387 0.18031 0.0
C74 C 0.51257 0.80039 0.12739 0.0
O75 O 0.4382 0.83874 0.16091 0.0
C76 C 0.52654 0.88499 0.11156 0.0
O77 O 0.43446 0.79481 0.13353 0.0
O78 O 0.45629 0.83973 0.11476 0.0
O79 O 0.53188 0.82131 0.14208 0.0
O80 O 0.48383 0.79193 0.12818 0.0
C81 C 0.51823 0.90433 0.17253 0.0
O82 O 0.50621 0.88961 0.12211 0.0
O83 O 0.53781 0.87013 0.12231 0.0
C84 C 0.43547 0.81141 0.11551 0.0
O85 O 0.48953 0.88763 0.16827 0.0
O86 O 0.53748 0.89566 0.16517 0.0
C87 C 0.51142 0.81296 0.19139 0.0
Fe88 Fe 0.61801 0.45261 0.14271 0.0
Fe89 Fe 0.67802 0.51429 0.15583 0.0
O90 O 0.6581 0.47327 0.15081 0.0
Fe91 Fe 0.67886 0.45252 0.15267 0.0
O92 O 0.65539 0.43062 0.17852 0.0
O93 O 0.61097 0.41757 0.16026 0.0
O94 O 0.60639 0.46487 0.16981 0.0
C95 C 0.61528 0.4928 0.17526 0.0
C96 C 0.63643 0.4201 0.11414 0.0
O97 O 0.64236 0.51478 0.16836 0.0
C98 C 0.71954 0.50384 0.12684 0.0
O99 O 0.61949 0.48455 0.12412 0.0
O100 O 0.66927 0.52095 0.12466 0.0
O101 O 0.65373 0.42081 0.13145 0.0
O102 O 0.62617 0.43879 0.11447 0.0
C103 C 0.70638 0.49676 0.19146 0.0
O104 O 0.71556 0.52038 0.1429 0.0
O105 O 0.70249 0.47432 0.12686 0.0
C106 C 0.64314 0.50712 0.11381 0.0
O107 O 0.69001 0.50996 0.18742 0.0
O108 O 0.70827 0.47963 0.17489 0.0
C109 C 0.62581 0.4174 0.17923 0.0
Fe110 Fe 0.16315 0.61469 0.14182 0.0
Fe111 Fe 0.17375 0.67827 0.15919 0.0
O112 O 0.18831 0.6521 0.15495 0.0
Fe113 Fe 0.22683 0.66229 0.16363 0.0
O114 O 0.21457 0.62279 0.17536 0.0
O115 O 0.16302 0.59594 0.17015 0.0
O116 O 0.12691 0.61295 0.15128 0.0
C117 C 0.12185 0.62194 0.17142 0.0
C118 C 0.22164 0.62655 0.12369 0.0
O119 O 0.14167 0.64906 0.1793 0.0
C120 C 0.23298 0.71649 0.14034 0.0
O121 O 0.1629 0.63265 0.11319 0.0
O122 O 0.14977 0.66518 0.13047 0.0
O123 O 0.23626 0.65327 0.1334 0.0
O124 O 0.19367 0.60813 0.12966 0.0
C125 C 0.21536 0.69325 0.20102 0.0
O126 O 0.2041 0.70749 0.13962 0.0
O127 O 0.24398 0.70283 0.15318 0.0
C128 C 0.1538 0.65242 0.11135 0.0
O129 O 0.19731 0.69816 0.18732 0.0
O130 O 0.22247 0.67287 0.19483 0.0
C131 C 0.1875 0.60032 0.1811 0.0
Fe132 Fe 0.80307 0.44615 0.39064 0.0
Fe133 Fe 0.86631 0.45284 0.40303 0.0
O134 O 0.84406 0.46977 0.3929 0.0
Fe135 Fe 0.86239 0.51037 0.38624 0.0
O136 O 0.84734 0.50284 0.35417 0.0
O137 O 0.79894 0.46948 0.36573 0.0
O138 O 0.80726 0.42289 0.36727 0.0
C139 C 0.82288 0.40909 0.36969 0.0
C140 C 0.80771 0.49751 0.41259 0.0
O141 O 0.84108 0.4149 0.38781 0.0
C142 C 0.89041 0.50848 0.42977 0.0
O143 O 0.79897 0.41809 0.41462 0.0
O144 O 0.84505 0.4402 0.43162 0.0
O145 O 0.82846 0.51423 0.39675 0.0
O146 O 0.79808 0.46862 0.41422 0.0
C147 C 0.90682 0.49219 0.36902 0.0
O148 O 0.89517 0.48789 0.41992 0.0
O149 O 0.87628 0.51969 0.41788 0.0
C150 C 0.81628 0.42077 0.43263 0.0
O151 O 0.88904 0.46422 0.37522 0.0
O152 O 0.90033 0.51332 0.37556 0.0
C153 C 0.81792 0.48774 0.34949 0.0
Fe154 Fe 0.39603 0.83427 0.37186 0.0
Fe155 Fe 0.4354 0.89845 0.39535 0.0
O156 O 0.3988 0.86886 0.38374 0.0
Fe157 Fe 0.36663 0.87539 0.38428 0.0
O158 O 0.3483 0.85373 0.35506 0.0
O159 O 0.38011 0.83722 0.34255 0.0
O160 O 0.43513 0.85577 0.35792 0.0
C161 C 0.44989 0.88432 0.35128 0.0
C162 C 0.3405 0.81336 0.39929 0.0
O163 O 0.45101 0.90592 0.36456 0.0
C164 C 0.3953 0.8927 0.43153 0.0
O165 O 0.41098 0.82698 0.40016 0.0
O166 O 0.45198 0.87342 0.40161 0.0
O167 O 0.34281 0.83992 0.40218 0.0
O168 O 0.35714 0.80866 0.38414 0.0
C169 C 0.41497 0.93516 0.37416 0.0
O170 O 0.41916 0.89069 0.42569 0.0
O171 O 0.37835 0.89553 0.41495 0.0
C172 C 0.43803 0.84523 0.40821 0.0
O173 O 0.42735 0.93033 0.39229 0.0
O174 O 0.38959 0.9124 0.36595 0.0
C175 C 0.35627 0.84001 0.33902 0.0
Fe176 Fe 0.49464 0.35083 0.38159 0.0
Fe177 Fe 0.56538 0.37575 0.37293 0.0
O178 O 0.53418 0.38113 0.38274 0.0
Fe179 Fe 0.54273 0.41854 0.39376 0.0
O180 O 0.50423 0.41324 0.38863 0.0
O181 O 0.48433 0.37582 0.3619 0.0
O182 O 0.4986 0.33138 0.35303 0.0
C183 C 0.52128 0.3377 0.33828 0.0
C184 C 0.50375 0.37985 0.42878 0.0
O185 O 0.54834 0.36032 0.34294 0.0
C186 C 0.59602 0.4177 0.4095 0.0
O187 O 0.5027 0.3257 0.40105 0.0
O188 O 0.54864 0.3365 0.38551 0.0
O189 O 0.53092 0.40271 0.42417 0.0
O190 O 0.48517 0.3635 0.41134 0.0
C191 C 0.57419 0.43058 0.35082 0.0
O192 O 0.58606 0.39011 0.40203 0.0
O193 O 0.58327 0.43265 0.40193 0.0
C194 C 0.52595 0.32148 0.40005 0.0
O195 O 0.58614 0.41478 0.35897 0.0
O196 O 0.55392 0.43367 0.36292 0.0
C197 C 0.48824 0.40193 0.36981 0.0
Fe198 Fe 0.15677 0.54998 0.40095 0.0
Fe199 Fe 0.16325 0.4933 0.38705 0.0
O200 O 0.17925 0.53441 0.3882 0.0
Fe201 Fe 0.21723 0.56057 0.37678 0.0
O202 O 0.20563 0.58841 0.36559 0.0
O203 O 0.15464 0.56442 0.37102 0.0
O204 O 0.11893 0.51575 0.39508 0.0
C205 C 0.11013 0.49688 0.37743 0.0
C206 C 0.21734 0.59497 0.4158 0.0
O207 O 0.12857 0.48789 0.36897 0.0
C208 C 0.22414 0.51452 0.40177 0.0
O209 O 0.15819 0.53508 0.43077 0.0
O210 O 0.14236 0.48696 0.41715 0.0
O211 O 0.22994 0.5807 0.40617 0.0
O212 O 0.18983 0.58767 0.40985 0.0
C213 C 0.2008 0.51489 0.34198 0.0
O214 O 0.19529 0.49623 0.40544 0.0
O215 O 0.234 0.53653 0.3863 0.0
C216 C 0.14831 0.50633 0.43485 0.0
O217 O 0.18408 0.49342 0.35762 0.0
O218 O 0.20838 0.54294 0.34652 0.0
C219 C 0.17858 0.58137 0.35807 0.0
Fe220 Fe 0.67473 0.16834 0.38962 0.0
Fe221 Fe 0.66751 0.227 0.38495 0.0
O222 O 0.65232 0.18723 0.39321 0.0
Fe223 Fe 0.61394 0.1658 0.40548 0.0
O224 O 0.60691 0.12767 0.39542 0.0
O225 O 0.64447 0.13819 0.3691 0.0
O226 O 0.69726 0.19171 0.36165 0.0
C227 C 0.69436 0.21097 0.34761 0.0
C228 C 0.64514 0.14867 0.43675 0.0
O229 O 0.67589 0.22058 0.35372 0.0
C230 C 0.63438 0.22514 0.42576 0.0
O231 O 0.70473 0.19621 0.40997 0.0
O232 O 0.70745 0.23911 0.39487 0.0
O233 O 0.62907 0.1619 0.43418 0.0
O234 O 0.65807 0.14375 0.41809 0.0
C235 C 0.60557 0.19519 0.36671 0.0
O236 O 0.66088 0.23776 0.41553 0.0
O237 O 0.61281 0.19918 0.41816 0.0
C238 C 0.71759 0.22561 0.40878 0.0
O239 O 0.62953 0.22052 0.37358 0.0
O240 O 0.59784 0.16937 0.37703 0.0
C241 C 0.61619 0.12095 0.37609 0.0
Fe242 Fe 0.46385 0.67037 0.38809 0.0
Fe243 Fe 0.46513 0.61035 0.39909 0.0
O244 O 0.48532 0.65048 0.39101 0.0
Fe245 Fe 0.5265 0.67121 0.38698 0.0
O246 O 0.52324 0.6829 0.35515 0.0
O247 O 0.49148 0.70011 0.36616 0.0
O248 O 0.44346 0.64672 0.36202 0.0
C249 C 0.43076 0.6172 0.36153 0.0
C250 C 0.51347 0.7122 0.41458 0.0
O251 O 0.4305 0.60258 0.38077 0.0
C252 C 0.51852 0.63627 0.42909 0.0
O253 O 0.43157 0.64466 0.40884 0.0
O254 O 0.44998 0.61803 0.42682 0.0
O255 O 0.53115 0.70853 0.3994 0.0
O256 O 0.48413 0.6942 0.41411 0.0
C257 C 0.50706 0.60897 0.36762 0.0
O258 O 0.49667 0.61242 0.4185 0.0
O259 O 0.53206 0.66258 0.41841 0.0
C260 C 0.43072 0.62758 0.42644 0.0
O261 O 0.47882 0.59943 0.37242 0.0
O262 O 0.52836 0.63604 0.37506 0.0
C263 C 0.5099 0.69891 0.35039 0.0
Fe264 Fe 0.46721 0.7986 0.88695 0.0
Fe265 Fe 0.47571 0.86337 0.89619 0.0
O266 O 0.49241 0.8397 0.88979 0.0
Fe267 Fe 0.53353 0.85617 0.8872 0.0
O268 O 0.5301 0.83978 0.85573 0.0
O269 O 0.49384 0.79231 0.86674 0.0
O270 O 0.45029 0.80421 0.85971 0.0
C271 C 0.44052 0.82346 0.85825 0.0
C272 C 0.51273 0.80261 0.91689 0.0
O273 O 0.44099 0.83879 0.87714 0.0
C274 C 0.52756 0.88693 0.92779 0.0
O275 O 0.43534 0.79621 0.90638 0.0
O276 O 0.45768 0.84191 0.92388 0.0
O277 O 0.53294 0.82151 0.9015 0.0
O278 O 0.4839 0.7928 0.91403 0.0
C279 C 0.52175 0.90362 0.86599 0.0
O280 O 0.50764 0.89104 0.9162 0.0
O281 O 0.53927 0.87171 0.91823 0.0
C282 C 0.43652 0.81374 0.92383 0.0
O283 O 0.49283 0.88692 0.86941 0.0
O284 O 0.54048 0.89478 0.87421 0.0
C285 C 0.51416 0.81032 0.85121 0.0
Fe286 Fe 0.65622 0.51309 0.8823 0.0
Fe287 Fe 0.63332 0.44319 0.87074 0.0
O288 O 0.62665 0.47316 0.88168 0.0
Fe289 Fe 0.58826 0.4625 0.89204 0.0
O290 O 0.59232 0.50084 0.88887 0.0
O291 O 0.63135 0.52459 0.86383 0.0
O292 O 0.67611 0.51191 0.85289 0.0
C293 C 0.67083 0.49017 0.8374 0.0
C294 C 0.62464 0.4987 0.92933 0.0
O295 O 0.64943 0.46227 0.84151 0.0
C296 C 0.59124 0.41065 0.90697 0.0
O297 O 0.68243 0.50495 0.90029 0.0
O298 O 0.67216 0.45965 0.8838 0.0
O299 O 0.60244 0.47198 0.9229 0.0
O300 O 0.64217 0.51913 0.91308 0.0
C301 C 0.58017 0.4357 0.84736 0.0
O302 O 0.61883 0.42121 0.8993 0.0
O303 O 0.57511 0.42159 0.89844 0.0
C304 C 0.68763 0.48241 0.89808 0.0
O305 O 0.59458 0.42258 0.85612 0.0
O306 O 0.57489 0.45372 0.86063 0.0
C307 C 0.60458 0.51914 0.87129 0.0
Fe308 Fe 0.24663 0.68073 0.87913 0.0
Fe309 Fe 0.18915 0.62578 0.90273 0.0
O310 O 0.2068 0.66292 0.88833 0.0
Fe311 Fe 0.18459 0.68185 0.88381 0.0
O312 O 0.20587 0.70276 0.85452 0.0
O313 O 0.2372 0.68385 0.84756 0.0
O314 O 0.2439 0.6432 0.87067 0.0
C315 C 0.21967 0.61788 0.86422 0.0
C316 C 0.24108 0.73021 0.89972 0.0
O317 O 0.19375 0.60847 0.87509 0.0
C318 C 0.17012 0.65746 0.93238 0.0
O319 O 0.25987 0.67949 0.91021 0.0
O320 O 0.22505 0.63022 0.91537 0.0
O321 O 0.21177 0.71483 0.90239 0.0
O322 O 0.25524 0.72071 0.88585 0.0
C323 C 0.13986 0.62047 0.87396 0.0
O324 O 0.18456 0.64243 0.93062 0.0
O325 O 0.16178 0.66627 0.91313 0.0
C326 C 0.24917 0.6546 0.92256 0.0
O327 O 0.14934 0.61369 0.89312 0.0
O328 O 0.15472 0.64832 0.86544 0.0
C329 C 0.22572 0.70039 0.84062 0.0
Fe330 Fe 0.57355 0.21454 0.8851 0.0
Fe331 Fe 0.56981 0.15221 0.8971 0.0
O332 O 0.55092 0.17345 0.88896 0.0
Fe333 Fe 0.50965 0.15458 0.88516 0.0
O334 O 0.51372 0.16894 0.85281 0.0
O335 O 0.54649 0.21757 0.86355 0.0
O336 O 0.59227 0.20915 0.85906 0.0
C337 C 0.60508 0.19251 0.85879 0.0
C338 C 0.52538 0.20897 0.91256 0.0
O339 O 0.60365 0.17576 0.87696 0.0
C340 C 0.51675 0.12858 0.92825 0.0
O341 O 0.60616 0.22078 0.90488 0.0
O342 O 0.58848 0.17631 0.92376 0.0
O343 O 0.50715 0.18859 0.8971 0.0
O344 O 0.55465 0.21991 0.91135 0.0
C345 C 0.52512 0.10842 0.86737 0.0
O346 O 0.53844 0.12554 0.91824 0.0
O347 O 0.50354 0.14111 0.91681 0.0
C348 C 0.60816 0.20498 0.92219 0.0
O349 O 0.55365 0.12627 0.87137 0.0
O350 O 0.50512 0.11618 0.87428 0.0
C351 C 0.52854 0.19826 0.8476 0.0
Fe352 Fe 0.35355 0.50783 0.88926 0.0
Fe353 Fe 0.37314 0.57762 0.88373 0.0
O354 O 0.38203 0.54805 0.8915 0.0
Fe355 Fe 0.42014 0.559 0.90191 0.0
O356 O 0.41911 0.52344 0.89195 0.0
O357 O 0.37878 0.50094 0.86741 0.0
O358 O 0.33243 0.51257 0.86223 0.0
C359 C 0.33911 0.5353 0.84747 0.0
C360 C 0.38465 0.5137 0.93468 0.0
O361 O 0.36119 0.56252 0.8527 0.0
C362 C 0.41073 0.60481 0.92359 0.0
O363 O 0.32856 0.51305 0.91129 0.0
O364 O 0.33269 0.55547 0.8944 0.0
O365 O 0.40499 0.54217 0.93145 0.0
O366 O 0.36842 0.49659 0.91671 0.0
C367 C 0.43115 0.59619 0.86222 0.0
O368 O 0.38404 0.5954 0.91427 0.0
O369 O 0.42885 0.59655 0.91428 0.0
C370 C 0.32111 0.53409 0.91037 0.0
O371 O 0.41254 0.604 0.87174 0.0
O372 O 0.43594 0.57591 0.87236 0.0
C373 C 0.40644 0.50739 0.87318 0.0
Fe374 Fe 0.83265 0.37662 0.88022 0.0
Fe375 Fe 0.89228 0.42567 0.90584 0.0
O376 O 0.87 0.3879 0.89246 0.0
Fe377 Fe 0.88583 0.36272 0.89113 0.0
O378 O 0.86656 0.34343 0.86117 0.0
O379 O 0.84285 0.36915 0.84993 0.0
O380 O 0.84451 0.41638 0.86972 0.0
C381 C 0.8718 0.43701 0.86311 0.0
C382 C 0.82418 0.32214 0.90398 0.0
O383 O 0.89529 0.44311 0.87611 0.0
C384 C 0.89947 0.38934 0.93944 0.0
O385 O 0.81892 0.38286 0.90954 0.0
O386 O 0.85872 0.42992 0.91454 0.0
O387 O 0.85284 0.33252 0.9086 0.0
O388 O 0.81536 0.33545 0.88878 0.0
C389 C 0.93866 0.42028 0.88154 0.0
O390 O 0.89001 0.40855 0.9355 0.0
O391 O 0.9057 0.37626 0.92162 0.0
C392 C 0.83075 0.40952 0.91941 0.0
O393 O 0.93051 0.42954 0.90012 0.0
O394 O 0.92056 0.39268 0.87347 0.0
C395 C 0.85149 0.34956 0.84508 0.0
Fe396 Fe 0.21433 0.58102 0.6697 0.0
Fe397 Fe 0.15193 0.56891 0.64891 0.0
O398 O 0.17547 0.55401 0.66078 0.0
Fe399 Fe 0.15934 0.51301 0.66364 0.0
O400 O 0.181 0.51493 0.6928 0.0
O401 O 0.20903 0.56556 0.70056 0.0
O402 O 0.20308 0.60914 0.68122 0.0
C403 C 0.17674 0.60208 0.69059 0.0
C404 C 0.21933 0.53234 0.64659 0.0
O405 O 0.15171 0.58438 0.67909 0.0
C406 C 0.14249 0.52395 0.61574 0.0
O407 O 0.22392 0.59901 0.63938 0.0
O408 O 0.18407 0.60643 0.6385 0.0
O409 O 0.19027 0.51363 0.645 0.0
O410 O 0.23066 0.55689 0.65951 0.0
C411 C 0.10699 0.51777 0.67455 0.0
O412 O 0.15176 0.55276 0.61928 0.0
O413 O 0.13767 0.50531 0.63384 0.0
C414 C 0.21077 0.61314 0.63067 0.0
O415 O 0.11447 0.5349 0.65599 0.0
O416 O 0.12575 0.50914 0.68253 0.0
C417 C 0.19978 0.53757 0.70675 0.0
Fe418 Fe 0.70019 0.2363 0.65473 0.0
Fe419 Fe 0.64009 0.17374 0.64849 0.0
O420 O 0.68074 0.19484 0.65405 0.0
Fe421 Fe 0.70238 0.17535 0.65817 0.0
O422 O 0.71611 0.19335 0.68903 0.0
O423 O 0.73224 0.24082 0.67498 0.0
O424 O 0.67916 0.23501 0.68195 0.0
C425 C 0.64985 0.21796 0.68436 0.0
C426 C 0.73885 0.22554 0.62627 0.0
O427 O 0.63326 0.20152 0.6665 0.0
C428 C 0.66463 0.14474 0.61823 0.0
O429 O 0.67189 0.24057 0.6353 0.0
O430 O 0.64453 0.19399 0.61989 0.0
O431 O 0.73808 0.20707 0.64299 0.0
O432 O 0.72137 0.2375 0.62756 0.0
C433 C 0.64233 0.13364 0.68106 0.0
O434 O 0.64134 0.1431 0.6297 0.0
O435 O 0.69156 0.15827 0.62776 0.0
C436 C 0.65272 0.2225 0.61938 0.0
O437 O 0.63248 0.15204 0.67646 0.0
O438 O 0.66879 0.13908 0.67241 0.0
C439 C 0.73215 0.22312 0.69194 0.0
Fe440 Fe 0.4615 0.65973 0.65806 0.0
Fe441 Fe 0.4638 0.6005 0.64534 0.0
O442 O 0.48352 0.64067 0.65352 0.0
Fe443 Fe 0.52483 0.66247 0.65655 0.0
O444 O 0.52184 0.67307 0.68906 0.0
O445 O 0.48962 0.6899 0.6793 0.0
O446 O 0.4431 0.63587 0.68427 0.0
C447 C 0.43021 0.60639 0.68462 0.0
C448 C 0.50897 0.70248 0.63044 0.0
O449 O 0.43041 0.59115 0.66586 0.0
C450 C 0.51603 0.62849 0.6135 0.0
O451 O 0.4284 0.63368 0.63855 0.0
O452 O 0.44551 0.6068 0.61897 0.0
O453 O 0.52772 0.69947 0.64483 0.0
O454 O 0.47984 0.68374 0.6317 0.0
C455 C 0.50861 0.60055 0.67439 0.0
O456 O 0.49436 0.60423 0.62391 0.0
O457 O 0.52994 0.65451 0.62466 0.0
C458 C 0.42657 0.61665 0.62065 0.0
O459 O 0.48004 0.59001 0.6705 0.0
O460 O 0.52883 0.62822 0.66733 0.0
C461 C 0.50838 0.68878 0.69459 0.0
Fe462 Fe 0.80185 0.44639 0.65663 0.0
Fe463 Fe 0.86938 0.46232 0.64895 0.0
O464 O 0.84201 0.47493 0.65382 0.0
Fe465 Fe 0.85408 0.51535 0.65523 0.0
O466 O 0.83673 0.51126 0.6865 0.0
O467 O 0.79142 0.47107 0.67569 0.0
O468 O 0.80951 0.43255 0.68465 0.0
C469 C 0.83075 0.42558 0.68702 0.0
C470 C 0.8003 0.48798 0.62525 0.0
O471 O 0.8477 0.42758 0.66876 0.0
C472 C 0.88766 0.51191 0.61544 0.0
O473 O 0.80388 0.4158 0.63832 0.0
O474 O 0.85003 0.44166 0.62146 0.0
O475 O 0.81767 0.50976 0.64022 0.0
O476 O 0.79404 0.46013 0.62875 0.0
C477 C 0.90461 0.51107 0.67882 0.0
O478 O 0.89488 0.49493 0.62824 0.0
O479 O 0.87016 0.52143 0.62428 0.0
C480 C 0.82285 0.41859 0.62144 0.0
O481 O 0.89073 0.48203 0.6759 0.0
O482 O 0.89375 0.52728 0.66895 0.0
C483 C 0.80744 0.49311 0.69072 0.0
Fe484 Fe 0.44696 0.90403 0.64494 0.0
Fe485 Fe 0.38134 0.88848 0.66102 0.0
O486 O 0.41001 0.87704 0.65803 0.0
Fe487 Fe 0.40355 0.84017 0.66797 0.0
O488 O 0.44353 0.85725 0.68004 0.0
O489 O 0.46471 0.90848 0.67462 0.0
O490 O 0.4443 0.93876 0.65077 0.0
C491 C 0.43518 0.945 0.67022 0.0
C492 C 0.44187 0.84749 0.62952 0.0
O493 O 0.40927 0.92402 0.67941 0.0
C494 C 0.34734 0.82699 0.64435 0.0
O495 O 0.42868 0.89971 0.61565 0.0
O496 O 0.39232 0.9094 0.63076 0.0
O497 O 0.41468 0.83169 0.63824 0.0
O498 O 0.45846 0.87565 0.63575 0.0
C499 C 0.36947 0.84958 0.70442 0.0
O500 O 0.35292 0.85496 0.64325 0.0
O501 O 0.36342 0.81888 0.65716 0.0
C502 C 0.40672 0.90575 0.61246 0.0
O503 O 0.36354 0.86667 0.69033 0.0
O504 O 0.39089 0.84368 0.6987 0.0
C505 C 0.46154 0.88533 0.68695 0.0
Fe506 Fe 0.56945 0.36002 0.66263 0.0
Fe507 Fe 0.55085 0.40366 0.63698 0.0
O508 O 0.54007 0.36805 0.65249 0.0
Fe509 Fe 0.49976 0.34099 0.65719 0.0
O510 O 0.50497 0.32383 0.68635 0.0
O511 O 0.55515 0.35283 0.69431 0.0
O512 O 0.59645 0.40094 0.67125 0.0
C513 C 0.59145 0.42353 0.67524 0.0
C514 C 0.52342 0.30351 0.64154 0.0
O515 O 0.57019 0.42573 0.66405 0.0
C516 C 0.50335 0.36243 0.60836 0.0
O517 O 0.58676 0.36573 0.63197 0.0
O518 O 0.58747 0.40955 0.62482 0.0
O519 O 0.50281 0.31145 0.63894 0.0
O520 O 0.54672 0.31831 0.65551 0.0
C521 C 0.50221 0.39738 0.66625 0.0
O522 O 0.5321 0.38259 0.60939 0.0
O523 O 0.4873 0.35132 0.62797 0.0
C524 C 0.59632 0.39041 0.61949 0.0
O525 O 0.51624 0.40533 0.64602 0.0
O526 O 0.49547 0.37089 0.6755 0.0
C527 C 0.52807 0.33147 0.70076 0.0
H528 H 0.47036 0.27948 0.32373 0.0
H529 H 0.56545 0.34663 0.30328 0.0
H530 H 0.4694 0.24336 0.29187 0.0
H531 H 0.56457 0.31083 0.27216 0.0
H532 H 0.57076 0.22917 0.24012 0.0
H533 H 0.56524 0.26138 0.27114 0.0
H534 H 0.47208 0.23253 0.2454 0.0
H535 H 0.47776 0.1999 0.21357 0.0
C536 C 0.49094 0.28691 0.31234 0.0
C537 C 0.51802 0.31643 0.31659 0.0
C538 C 0.49041 0.26599 0.29397 0.0
C539 C 0.5171 0.27351 0.27933 0.0
C540 C 0.54365 0.30343 0.28312 0.0
C541 C 0.54405 0.32432 0.30111 0.0
C542 C 0.54875 0.2291 0.24097 0.0
C543 C 0.52477 0.21141 0.22381 0.0
C544 C 0.54571 0.24812 0.25889 0.0
C545 C 0.51841 0.25052 0.26092 0.0
C546 C 0.49359 0.23165 0.24465 0.0
C547 C 0.49678 0.21264 0.22634 0.0
H548 H 0.354 0.55643 0.24024 0.0
H549 H 0.29032 0.45977 0.22162 0.0
H550 H 0.31741 0.55433 0.2713 0.0
H551 H 0.25349 0.4576 0.25326 0.0
H552 H 0.20787 0.46302 0.33023 0.0
H553 H 0.24209 0.45979 0.29864 0.0
H554 H 0.26698 0.5523 0.27337 0.0
H555 H 0.23294 0.55536 0.30424 0.0
C556 C 0.33234 0.53445 0.24283 0.0
C557 C 0.32562 0.5083 0.22794 0.0
C558 C 0.31097 0.53334 0.26074 0.0
C559 C 0.28179 0.50592 0.26495 0.0
C560 C 0.27551 0.47924 0.25084 0.0
C561 C 0.29685 0.48047 0.23258 0.0
C562 C 0.22008 0.48242 0.31762 0.0
C563 C 0.2172 0.50948 0.32023 0.0
C564 C 0.24002 0.48065 0.29944 0.0
C565 C 0.25821 0.50603 0.28337 0.0
C566 C 0.25428 0.53244 0.28549 0.0
C567 C 0.23426 0.53406 0.30331 0.0
H568 H 0.83734 0.29724 0.22542 0.0
H569 H 0.80555 0.36176 0.24461 0.0
H570 H 0.80273 0.26077 0.25732 0.0
H571 H 0.77161 0.32595 0.27596 0.0
H572 H 0.68705 0.24524 0.31128 0.0
H573 H 0.72357 0.27789 0.27968 0.0
H574 H 0.78852 0.24803 0.30178 0.0
H575 H 0.75135 0.21478 0.33387 0.0
C576 C 0.82346 0.30402 0.23654 0.0
C577 C 0.82466 0.33289 0.23195 0.0
C578 C 0.80339 0.28293 0.25496 0.0
C579 C 0.78346 0.28969 0.26934 0.0
C580 C 0.78565 0.31902 0.26519 0.0
C581 C 0.80564 0.33998 0.24708 0.0
C582 C 0.70893 0.24517 0.30947 0.0
C583 C 0.71577 0.22696 0.3256 0.0
C584 C 0.7303 0.26441 0.29124 0.0
C585 C 0.75981 0.26661 0.28803 0.0
C586 C 0.76626 0.24732 0.30339 0.0
C587 C 0.74473 0.22798 0.32188 0.0
H588 H 0.49877 0.75273 0.19885 0.0
H589 H 0.53535 0.84081 0.23702 0.0
H590 H 0.50207 0.72751 0.23609 0.0
H591 H 0.53891 0.81542 0.27472 0.0
H592 H 0.50346 0.7505 0.34359 0.0
H593 H 0.50735 0.77909 0.30621 0.0
H594 H 0.53335 0.71997 0.26602 0.0
H595 H 0.52919 0.69097 0.30384 0.0
C596 C 0.50787 0.76698 0.21517 0.0
C597 C 0.5168 0.79912 0.21453 0.0
C598 C 0.50998 0.75235 0.23673 0.0
C599 C 0.52077 0.76901 0.25892 0.0
C600 C 0.53019 0.80138 0.25828 0.0
C601 C 0.52844 0.8162 0.23648 0.0
C602 C 0.51034 0.74361 0.32688 0.0
C603 C 0.51604 0.71814 0.32712 0.0
C604 C 0.51279 0.76035 0.30524 0.0
C605 C 0.52067 0.75226 0.28258 0.0
C606 C 0.52692 0.72706 0.28283 0.0
C607 C 0.52486 0.71047 0.30469 0.0
H608 H 0.69595 0.51013 0.23953 0.0
H609 H 0.75926 0.49228 0.197 0.0
H610 H 0.72386 0.5108 0.27706 0.0
H611 H 0.78679 0.49274 0.23404 0.0
H612 H 0.84622 0.51483 0.30434 0.0
H613 H 0.82131 0.52057 0.26724 0.0
H614 H 0.73212 0.47782 0.3047 0.0
H615 H 0.75681 0.47229 0.34136 0.0
C616 C 0.71607 0.50687 0.23801 0.0
C617 C 0.72512 0.50132 0.21483 0.0
C618 C 0.73205 0.50687 0.25971 0.0
C619 C 0.758 0.50174 0.25911 0.0
C620 C 0.76744 0.49717 0.23577 0.0
C621 C 0.75132 0.49676 0.21427 0.0
C622 C 0.82136 0.50683 0.30475 0.0
C623 C 0.80388 0.49299 0.32627 0.0
C624 C 0.80682 0.50994 0.28326 0.0
C625 C 0.77427 0.49976 0.28246 0.0
C626 C 0.75711 0.48647 0.30418 0.0
C627 C 0.77147 0.48302 0.32542 0.0
H628 H 0.29537 0.82703 0.32808 0.0
H629 H 0.36906 0.81234 0.3002 0.0
H630 H 0.26013 0.79254 0.29583 0.0
H631 H 0.3342 0.77818 0.26839 0.0
H632 H 0.25711 0.68977 0.23249 0.0
H633 H 0.28963 0.72623 0.26416 0.0
H634 H 0.24664 0.78263 0.2513 0.0
H635 H 0.21379 0.74579 0.21914 0.0
C636 C 0.30437 0.81698 0.31493 0.0
C637 C 0.33544 0.8228 0.31718 0.0
C638 C 0.28397 0.79696 0.29633 0.0
C639 C 0.29372 0.78168 0.2794 0.0
C640 C 0.32514 0.78855 0.28119 0.0
C641 C 0.34546 0.80861 0.29953 0.0
C642 C 0.25416 0.70972 0.23636 0.0
C643 C 0.23238 0.71435 0.22283 0.0
C644 C 0.27327 0.73105 0.2546 0.0
C645 C 0.27154 0.7581 0.26044 0.0
C646 C 0.24895 0.76226 0.2476 0.0
C647 C 0.22991 0.74094 0.22905 0.0
H648 H 0.52578 0.6804 0.74179 0.0
H649 H 0.5059 0.74271 0.70021 0.0
H650 H 0.53082 0.71084 0.77908 0.0
H651 H 0.51069 0.77272 0.73698 0.0
H652 H 0.53965 0.83615 0.80519 0.0
H653 H 0.54226 0.8088 0.76825 0.0
H654 H 0.5011 0.72176 0.80848 0.0
H655 H 0.49874 0.74891 0.845 0.0
C656 C 0.523 0.70082 0.7404 0.0
C657 C 0.51555 0.70885 0.71759 0.0
C658 C 0.52554 0.71827 0.76197 0.0
C659 C 0.52119 0.74471 0.76156 0.0
C660 C 0.51468 0.75307 0.73853 0.0
C661 C 0.51173 0.7355 0.7172 0.0
C662 C 0.5316 0.81129 0.80628 0.0
C663 C 0.51908 0.79512 0.8285 0.0
C664 C 0.53278 0.79533 0.78488 0.0
C665 C 0.52187 0.76259 0.78486 0.0
C666 C 0.51017 0.7468 0.80733 0.0
C667 C 0.50864 0.76258 0.82849 0.0
H668 H 0.74455 0.47189 0.69398 0.0
H669 H 0.82906 0.52471 0.73599 0.0
H670 H 0.71367 0.47485 0.7273 0.0
H671 H 0.79754 0.52695 0.77038 0.0
H672 H 0.73066 0.54052 0.82509 0.0
H673 H 0.76463 0.54426 0.79042 0.0
H674 H 0.69219 0.45407 0.76455 0.0
H675 H 0.65854 0.45101 0.79804 0.0
C676 C 0.75679 0.48416 0.71044 0.0
C677 C 0.78973 0.49788 0.71186 0.0
C678 C 0.73873 0.48565 0.72997 0.0
C679 C 0.75241 0.50061 0.75237 0.0
C680 C 0.78561 0.51522 0.7537 0.0
C681 C 0.80391 0.51392 0.73383 0.0
C682 C 0.72172 0.52181 0.81168 0.0
C683 C 0.69127 0.4956 0.81468 0.0
C684 C 0.74152 0.52373 0.79179 0.0
C685 C 0.73166 0.49959 0.77397 0.0
C686 C 0.70105 0.47374 0.77703 0.0
C687 C 0.68147 0.47185 0.79669 0.0
H688 H 0.31163 0.84277 0.71873 0.0
H689 H 0.37854 0.815 0.73979 0.0
H690 H 0.27507 0.80774 0.75027 0.0
H691 H 0.34238 0.78034 0.77093 0.0
H692 H 0.26119 0.69379 0.80478 0.0
H693 H 0.2945 0.7309 0.77371 0.0
H694 H 0.26157 0.79396 0.79464 0.0
H695 H 0.22785 0.75632 0.82627 0.0
C696 C 0.31893 0.82973 0.73027 0.0
C697 C 0.34847 0.83212 0.72628 0.0
C698 C 0.29774 0.80937 0.74845 0.0
C699 C 0.30505 0.79028 0.76323 0.0
C700 C 0.33507 0.79371 0.75978 0.0
C701 C 0.3562 0.81408 0.74185 0.0
C702 C 0.26053 0.71534 0.80277 0.0
C703 C 0.24136 0.72155 0.81846 0.0
C704 C 0.28016 0.73705 0.78489 0.0
C705 C 0.28172 0.76624 0.78157 0.0
C706 C 0.26139 0.77197 0.79639 0.0
C707 C 0.24173 0.75014 0.81457 0.0
H708 H 0.5759 0.24217 0.81986 0.0
H709 H 0.4751 0.18833 0.82147 0.0
H710 H 0.5743 0.27258 0.78556 0.0
H711 H 0.47307 0.21989 0.78731 0.0
H712 H 0.48018 0.27157 0.71344 0.0
H713 H 0.47874 0.23758 0.74674 0.0
H714 H 0.5673 0.31254 0.77315 0.0
H715 H 0.56912 0.34565 0.73945 0.0
C716 C 0.55317 0.23657 0.81272 0.0
C717 C 0.52569 0.21229 0.8236 0.0
C718 C 0.55218 0.25461 0.79303 0.0
C719 C 0.52353 0.24989 0.78337 0.0
C720 C 0.49581 0.22474 0.79374 0.0
C721 C 0.49687 0.20626 0.81344 0.0
C722 C 0.49922 0.28098 0.72651 0.0
C723 C 0.52479 0.31176 0.72336 0.0
C724 C 0.49844 0.26125 0.74584 0.0
C725 C 0.52314 0.27143 0.76304 0.0
C726 C 0.54808 0.30273 0.76028 0.0
C727 C 0.54899 0.32224 0.74088 0.0
H728 H 0.20175 0.48429 0.723 0.0
H729 H 0.23495 0.58098 0.74174 0.0
H730 H 0.2342 0.48131 0.75603 0.0
H731 H 0.26635 0.5779 0.77446 0.0
H732 H 0.28168 0.48401 0.83291 0.0
H733 H 0.24623 0.48185 0.80031 0.0
H734 H 0.31355 0.57689 0.77991 0.0
H735 H 0.34839 0.57908 0.81219 0.0
C736 C 0.21531 0.50474 0.73436 0.0
C737 C 0.21522 0.53286 0.72932 0.0
C738 C 0.23418 0.50309 0.7534 0.0
C739 C 0.25384 0.52955 0.76802 0.0
C740 C 0.25256 0.5571 0.76351 0.0
C741 C 0.23391 0.55874 0.74468 0.0
C742 C 0.28913 0.50435 0.82129 0.0
C743 C 0.31829 0.53177 0.82563 0.0
C744 C 0.26862 0.50312 0.80246 0.0
C745 C 0.27631 0.52937 0.78733 0.0
C746 C 0.30593 0.5563 0.79126 0.0
C747 C 0.32633 0.55747 0.80987 0.0
H748 H 0.77952 0.28389 0.69602 0.0
H749 H 0.73122 0.19939 0.73913 0.0
H750 H 0.80998 0.3125 0.73135 0.0
H751 H 0.76189 0.22866 0.7753 0.0
H752 H 0.83937 0.28904 0.83366 0.0
H753 H 0.81204 0.25707 0.79751 0.0
H754 H 0.80576 0.3349 0.76777 0.0
H755 H 0.83304 0.36641 0.80325 0.0
C756 C 0.77527 0.27116 0.71309 0.0
C757 C 0.75245 0.23896 0.7143 0.0
C758 C 0.79285 0.28791 0.73369 0.0
C759 C 0.78852 0.27349 0.75679 0.0
C760 C 0.76634 0.24093 0.75801 0.0
C761 C 0.74859 0.22397 0.73715 0.0
C762 C 0.83277 0.29954 0.81913 0.0
C763 C 0.83905 0.33075 0.82156 0.0
C764 C 0.81655 0.28094 0.79843 0.0
C765 C 0.80633 0.29297 0.77921 0.0
C766 C 0.81335 0.32442 0.7816 0.0
C767 C 0.82917 0.34274 0.80223 0.0
H768 H 0.53314 0.08604 0.21412 0.0
H769 H 0.48688 0.05329 0.14464 0.0
H770 H 0.53685 0.03828 0.21804 0.0
H771 H 0.49135 1.00625 0.14816 0.0
H772 H 0.54811 0.9559 0.14355 0.0
H773 H 0.54393 1.00331 0.147 0.0
H774 H 0.50209 0.97396 0.21856 0.0
H775 H 0.50553 0.92615 0.21473 0.0
C776 C 0.52222 0.06799 0.20031 0.0
C777 C 0.50886 0.07334 0.17936 0.0
C778 C 0.52497 0.04083 0.2023 0.0
C779 C 0.51515 0.01875 0.1831 0.0
C780 C 0.49968 0.02296 0.16311 0.0
C781 C 0.49638 0.04963 0.16139 0.0
C782 C 0.53944 0.96024 0.16053 0.0
C783 C 0.52797 0.93741 0.17914 0.0
C784 C 0.53638 0.98713 0.1623 0.0
C785 C 0.52222 0.99231 0.18293 0.0
C786 C 0.5131 0.97081 0.20243 0.0
C787 C 0.51548 0.94353 0.20037 0.0
H788 H 0.59179 0.52517 0.15137 0.0
H789 H 0.5772 0.46847 0.21542 0.0
H790 H 0.53834 0.51642 0.15565 0.0
H791 H 0.52426 0.4607 0.22023 0.0
H792 H 0.43933 0.49229 0.21652 0.0
H793 H 0.49245 0.50056 0.2219 0.0
H794 H 0.48356 0.45213 0.15407 0.0
H795 H 0.43062 0.44348 0.14894 0.0
C796 C 0.57795 0.51238 0.16719 0.0
C797 C 0.58942 0.49836 0.18347 0.0
C798 C 0.54705 0.50688 0.1694 0.0
C799 C 0.52692 0.48774 0.18825 0.0
C800 C 0.53912 0.47571 0.20563 0.0
C801 C 0.56974 0.48056 0.20304 0.0
C802 C 0.44794 0.48205 0.20338 0.0
C803 C 0.43023 0.46717 0.18228 0.0
C804 C 0.47875 0.48725 0.20627 0.0
C805 C 0.49264 0.47787 0.18799 0.0
C806 C 0.47384 0.4602 0.16827 0.0
C807 C 0.44308 0.45457 0.16566 0.0
H808 H 0.99984 0.43506 0.169 0.0
H809 H 0.95084 0.4557 0.22481 0.0
H810 H 0.04484 0.48786 0.17349 0.0
H811 H 0.99569 0.50815 0.22933 0.0
H812 H 0.11624 0.59706 0.21774 0.0
H813 H 0.07504 0.54365 0.22967 0.0
H814 H 0.02272 0.53831 0.16502 0.0
H815 H 0.06334 0.59098 0.15323 0.0
C816 C 0.99936 0.44982 0.18355 0.0
C817 C 0.97136 0.44037 0.19672 0.0
C818 C 0.02506 0.48042 0.1858 0.0
C819 C 0.02374 0.50229 0.20165 0.0
C820 C 0.99757 0.4918 0.21711 0.0
C821 C 0.9718 0.46119 0.21475 0.0
C822 C 0.09517 0.58508 0.2068 0.0
C823 C 0.09303 0.59848 0.18461 0.0
C824 C 0.07184 0.5543 0.21342 0.0
C825 C 0.04599 0.5366 0.19797 0.0
C826 C 0.0425 0.55122 0.17714 0.0
C827 C 0.06557 0.58167 0.17061 0.0
H828 H 0.9227 0.4643 0.33282 0.0
H829 H 0.96281 0.53328 0.39022 0.0
H830 H 0.9711 0.46156 0.33048 0.0
H831 H 1.01089 0.53013 0.38825 0.0
H832 H 0.06037 0.47546 0.40748 0.0
H833 H 1.01322 0.47848 0.4006 0.0
H834 H 0.03645 0.49658 0.32396 0.0
H835 H 0.08449 0.49377 0.33093 0.0
C836 C 0.94237 0.47989 0.34421 0.0
C837 C 0.93897 0.49946 0.3614 0.0
C838 C 0.97004 0.4781 0.34299 0.0
C839 C 0.9948 0.49529 0.35938 0.0
C840 C 0.99221 0.51641 0.37543 0.0
C841 C 0.96481 0.51866 0.3763 0.0
C842 C 0.05506 0.47901 0.3889 0.0
C843 C 0.07678 0.48483 0.36988 0.0
C844 C 0.02821 0.48135 0.38508 0.0
C845 C 1.02156 0.48895 0.36194 0.0
C846 C 0.04122 0.49133 0.34216 0.0
C847 C 0.06867 0.48942 0.34611 0.0
H848 H 0.44235 0.95111 0.32804 0.0
H849 H 0.43493 0.9909 0.3962 0.0
H850 H 0.49497 0.99625 0.32158 0.0
H851 H 0.48702 0.03606 0.38965 0.0
H852 H 0.59144 0.06256 0.39436 0.0
H853 H 0.53807 0.02007 0.38683 0.0
H854 H 0.53078 0.07073 0.32531 0.0
H855 H 0.58477 0.11362 0.33292 0.0
C856 C 0.45107 0.97002 0.34104 0.0
C857 C 0.43425 0.96681 0.36282 0.0
C858 C 0.48148 0.99594 0.33741 0.0
C859 C 0.49546 0.01939 0.35541 0.0
C860 C 0.47705 0.01823 0.37554 0.0
C861 C 0.44682 0.99253 0.37905 0.0
C862 C 0.57922 0.06393 0.37835 0.0
C863 C 0.59273 0.09135 0.364 0.0
C864 C 0.54836 0.0398 0.37431 0.0
C865 C 0.53002 0.04221 0.35571 0.0
C866 C 0.54432 0.06816 0.33978 0.0
C867 C 0.57541 0.09254 0.34393 0.0
H868 H 0.50896 0.43504 0.32645 0.0
H869 H 0.44994 0.42071 0.38906 0.0
H870 H 0.51795 0.48845 0.32196 0.0
H871 H 0.4595 0.47415 0.38501 0.0
H872 H 0.53069 0.58065 0.39607 0.0
H873 H 0.52051 0.52686 0.39107 0.0
H874 H 0.48363 0.52295 0.3189 0.0
H875 H 0.49294 0.57646 0.32427 0.0
C876 C 0.49643 0.44242 0.33842 0.0
C877 C 0.47842 0.42299 0.35799 0.0
C878 C 0.50215 0.47347 0.33616 0.0
C879 C 0.49021 0.48594 0.35359 0.0
C880 C 0.46952 0.46552 0.3715 0.0
C881 C 0.46336 0.43447 0.37341 0.0
C882 C 0.52185 0.56897 0.37866 0.0
C883 C 0.51351 0.58347 0.36031 0.0
C884 C 0.5154 0.53783 0.37597 0.0
C885 C 0.50091 0.5204 0.35467 0.0
C886 C 0.49482 0.53564 0.33551 0.0
C887 C 0.50058 0.56656 0.33847 0.0
H888 H 0.49459 0.05673 0.89631 0.0
H889 H 0.54121 0.08737 0.82653 0.0
H890 H 0.4985 1.00903 0.89354 0.0
H891 H 0.54405 0.03906 0.82327 0.0
H892 H 0.50848 0.92667 0.82502 0.0
H893 H 0.50646 0.97539 0.82254 0.0
H894 H 0.54984 1.00268 0.89356 0.0
H895 H 0.55295 0.95454 0.89556 0.0
C896 C 0.50419 0.05254 0.87978 0.0
C897 C 0.5166 0.07551 0.86126 0.0
C898 C 0.50709 0.02549 0.87843 0.0
C899 C 0.52197 0.0203 0.85831 0.0
C900 C 0.53246 0.04221 0.83901 0.0
C901 C 0.53034 0.06969 0.84069 0.0
C902 C 0.51915 0.94384 0.8395 0.0
C903 C 0.5319 0.937 0.86011 0.0
C904 C 0.51748 0.97158 0.83827 0.0
C905 C 0.52747 0.9928 0.85803 0.0
C906 C 0.54162 0.98675 0.8781 0.0
C907 C 0.54409 0.95944 0.87901 0.0
H908 H 0.57864 0.51031 0.82447 0.0
H909 H 0.58154 0.55126 0.89489 0.0
H910 H 0.52611 0.50228 0.81757 0.0
H911 H 0.5293 0.54354 0.88785 0.0
H912 H 0.42583 0.4684 0.88952 0.0
H913 H 0.47888 0.47818 0.88245 0.0
H914 H 0.48919 0.53803 0.82144 0.0
H915 H 0.43532 0.52772 0.8285 0.0
C916 C 0.569 0.51897 0.83805 0.0
C917 C 0.58466 0.53109 0.86049 0.0
C918 C 0.53854 0.51411 0.83409 0.0
C919 C 0.52319 0.5215 0.85245 0.0
C920 C 0.54031 0.53719 0.87346 0.0
C921 C 0.57063 0.5422 0.87727 0.0
C922 C 0.43853 0.48202 0.87359 0.0
C923 C 0.42624 0.49742 0.85967 0.0
C924 C 0.46931 0.48824 0.8699 0.0
C925 C 0.48858 0.50958 0.85184 0.0
C926 C 0.47505 0.52172 0.83568 0.0
C927 C 0.44404 0.5155 0.83952 0.0
H928 H 0.94641 0.4682 0.85226 0.0
H929 H 0.99839 0.43006 0.88691 0.0
H930 H 0.9945 0.51685 0.84405 0.0
H931 H 0.04718 0.47943 0.87913 0.0
H932 H 0.13348 0.56737 0.85496 0.0
H933 H 0.08557 0.51694 0.8508 0.0
H934 H 0.03139 0.56137 0.86833 0.0
H935 H 0.08 0.6121 0.87215 0.0
C936 C 0.96821 0.46946 0.85709 0.0
C937 C 0.96825 0.44427 0.86932 0.0
C938 C 0.996 0.49797 0.85289 0.0
C939 C 0.02506 0.50261 0.86105 0.0
C940 C 0.02544 0.47687 0.87222 0.0
C941 C 0.99742 0.44825 0.87647 0.0
C942 C 0.11134 0.56665 0.85674 0.0
C943 C 0.1108 0.59411 0.86306 0.0
C944 C 0.08371 0.53748 0.85491 0.0
C945 C 0.05428 0.53458 0.85953 0.0
C946 C 0.05347 0.56245 0.86438 0.0
C947 C 0.08138 0.59179 0.86629 0.0
H948 H 0.09018 0.53443 0.71794 0.0
H949 H 0.05242 0.48316 0.65089 0.0
H950 H 0.04279 0.53864 0.7233 0.0
H951 H 1.00583 0.48815 0.65581 0.0
H952 H 0.95648 0.54538 0.65084 0.0
H953 H 1.00511 0.54354 0.65436 0.0
H954 H 0.97619 0.50048 0.72548 0.0
H955 H 0.92703 0.50142 0.72159 0.0
C956 C 0.07119 0.52262 0.70502 0.0
C957 C 0.07498 0.50769 0.68428 0.0
C958 C 0.04424 0.52563 0.70783 0.0
C959 C 1.02085 0.51445 0.68964 0.0
C960 C 0.02359 0.49751 0.66996 0.0
C961 C 0.05003 0.49399 0.66744 0.0
C962 C 0.9612 0.53716 0.66784 0.0
C963 C 0.938 0.52429 0.68618 0.0
C964 C 0.98882 0.53544 0.66963 0.0
C965 C 0.99438 0.52141 0.69006 0.0
C966 C 0.97273 0.51144 0.70953 0.0
C967 C 0.94474 0.51251 0.70747 0.0
H968 H 0.60347 0.11902 0.72067 0.0
H969 H 0.62138 0.07799 0.65729 0.0
H970 H 0.5501 0.07382 0.72358 0.0
H971 H 0.56783 0.03335 0.65979 0.0
H972 H 0.46127 0.96122 0.71728 0.0
H973 H 0.51473 1.00467 0.72506 0.0
H974 H 0.51614 0.04278 0.65381 0.0
H975 H 0.46324 0.99992 0.64613 0.0
C976 C 0.59661 0.09956 0.70814 0.0
C977 C 0.61718 0.1019 0.68909 0.0
C978 C 0.56581 0.07385 0.70963 0.0
C979 C 0.55453 0.05013 0.69176 0.0
C980 C 0.57577 0.05127 0.67383 0.0
C981 C 0.60675 0.07662 0.67265 0.0
C982 C 0.47245 0.9793 0.70362 0.0
C983 C 0.4578 0.97642 0.68085 0.0
C984 C 0.50333 1.00416 0.708 0.0
C985 C 0.52016 0.02655 0.68964 0.0
C986 C 0.50422 0.02552 0.66809 0.0
C987 C 0.4735 1.00119 0.66393 0.0
H988 H 0.46871 0.42044 0.64506 0.0
H989 H 0.52292 0.43038 0.70965 0.0
H990 H 0.47593 0.47269 0.65168 0.0
H991 H 0.52963 0.48298 0.71665 0.0
H992 H 0.48707 0.56163 0.71411 0.0
H993 H 0.4837 0.51033 0.71783 0.0
H994 H 0.54047 0.53002 0.65291 0.0
H995 H 0.54462 0.58171 0.64957 0.0
C996 C 0.48079 0.43311 0.66146 0.0
C997 C 0.49457 0.42065 0.67711 0.0
C998 C 0.48548 0.4634 0.66495 0.0
C999 C 0.5038 0.48228 0.68442 0.0
C1000 C 0.51545 0.46906 0.70141 0.0
C1001 C 0.51105 0.43863 0.69769 0.0
C1002 C 0.50028 0.55576 0.70139 0.0
C1003 C 0.51687 0.57636 0.6819 0.0
C1004 C 0.49804 0.52615 0.70341 0.0
C1005 C 0.51171 0.51598 0.68565 0.0
C1006 C 0.52983 0.53722 0.66699 0.0
C1007 C 0.53263 0.56711 0.66528 0.0
H1008 H 0.64638 0.21786 0.22284 0.0
H1009 H 0.55152 0.14066 0.21734 0.0
H1010 H 0.63803 0.22328 0.2662 0.0
H1011 H 0.54216 0.14711 0.26 0.0
H1012 H 0.61879 0.24489 0.33677 0.0
H1013 H 0.61176 0.24062 0.29261 0.0
H1014 H 0.55393 0.13984 0.29954 0.0
H1015 H 0.55871 0.14447 0.34351 0.0
C1016 C 0.62399 0.20168 0.23115 0.0
C1017 C 0.59995 0.17819 0.21719 0.0
C1018 C 0.61881 0.20526 0.25571 0.0
C1019 C 0.58914 0.18602 0.26643 0.0
C1020 C 0.56535 0.16207 0.25244 0.0
C1021 C 0.57086 0.15796 0.22812 0.0
C1022 C 0.60342 0.22202 0.32891 0.0
C1023 C 0.59078 0.19477 0.34331 0.0
C1024 C 0.5998 0.2195 0.3036 0.0
C1025 C 0.58399 0.18974 0.29256 0.0
C1026 C 0.56691 0.16312 0.30736 0.0
C1027 C 0.56982 0.16575 0.33267 0.0
H1028 H 0.38473 0.56722 0.3354 0.0
H1029 H 0.48234 0.63818 0.3351 0.0
H1030 H 0.39155 0.55037 0.2944 0.0
H1031 H 0.49017 0.62064 0.29637 0.0
H1032 H 0.48033 0.61689 0.21391 0.0
H1033 H 0.47805 0.62665 0.25711 0.0
H1034 H 0.41435 0.52749 0.26914 0.0
H1035 H 0.41455 0.51878 0.22527 0.0
C1036 C 0.4076 0.57886 0.32673 0.0
C1037 C 0.43298 0.60452 0.33793 0.0
C1038 C 0.41172 0.56911 0.30355 0.0
C1039 C 0.44144 0.58456 0.29202 0.0
C1040 C 0.46678 0.60897 0.30418 0.0
C1041 C 0.46236 0.61909 0.32651 0.0
C1042 C 0.46717 0.59714 0.22608 0.0
C1043 C 0.44896 0.56693 0.21677 0.0
C1044 C 0.4656 0.60257 0.25082 0.0
C1045 C 0.44601 0.57769 0.26661 0.0
C1046 C 0.42948 0.54706 0.25742 0.0
C1047 C 0.4306 0.54181 0.23252 0.0
H1048 H 0.8517 0.46318 0.23531 0.0
H1049 H 0.90293 0.41359 0.2288 0.0
H1050 H 0.83453 0.4413 0.27629 0.0
H1051 H 0.88642 0.39221 0.26975 0.0
H1052 H 0.87377 0.40414 0.3568 0.0
H1053 H 0.89066 0.4092 0.31433 0.0
H1054 H 0.79778 0.38526 0.29054 0.0
H1055 H 0.78087 0.38044 0.33301 0.0
C1056 C 0.86037 0.44873 0.24309 0.0
C1057 C 0.87975 0.4412 0.22939 0.0
C1058 C 0.85002 0.43561 0.26619 0.0
C1059 C 0.85863 0.41448 0.27575 0.0
C1060 C 0.87957 0.40847 0.26273 0.0
C1061 C 0.88983 0.42155 0.2396 0.0
C1062 C 0.85644 0.39819 0.34254 0.0
C1063 C 0.82652 0.39362 0.34799 0.0
C1064 C 0.86624 0.40138 0.31821 0.0
C1065 C 0.84589 0.3994 0.2995 0.0
C1066 C 0.81416 0.38817 0.3049 0.0
C1067 C 0.8044 0.38501 0.32916 0.0
H1068 H 0.48923 0.85361 0.20578 0.0
H1069 H 0.39205 0.8288 0.20726 0.0
H1070 H 0.49829 0.8797 0.24433 0.0
H1071 H 0.39984 0.852 0.24836 0.0
H1072 H 0.42108 0.90115 0.31867 0.0
H1073 H 0.4213 0.89496 0.27457 0.0
H1074 H 0.48843 0.86316 0.28341 0.0
H1075 H 0.49087 0.87359 0.32685 0.0
C1076 C 0.46967 0.85359 0.21464 0.0
C1077 C 0.44008 0.83937 0.2037 0.0
C1078 C 0.47474 0.86828 0.23697 0.0
C1079 C 0.44977 0.86752 0.24977 0.0
C1080 C 0.41983 0.85354 0.23875 0.0
C1081 C 0.41513 0.83989 0.21549 0.0
C1082 C 0.43809 0.89592 0.31069 0.0
C1083 C 0.4576 0.88994 0.3256 0.0
C1084 C 0.43718 0.89093 0.2856 0.0
C1085 C 0.45473 0.87845 0.27536 0.0
C1086 C 0.47523 0.87369 0.29039 0.0
C1087 C 0.4768 0.87966 0.31532 0.0
H1088 H 0.62809 0.46687 0.32715 0.0
H1089 H 0.52915 0.4035 0.3171 0.0
H1090 H 0.63719 0.4618 0.28415 0.0
H1091 H 0.53757 0.4 0.27339 0.0
H1092 H 0.57735 0.36996 0.20617 0.0
H1093 H 0.56118 0.37597 0.24786 0.0
H1094 H 0.6288 0.4753 0.24514 0.0
H1095 H 0.64536 0.46846 0.20571 0.0
C1096 C 0.60813 0.45346 0.31527 0.0
C1097 C 0.57784 0.43696 0.32486 0.0
C1098 C 0.61321 0.45021 0.29074 0.0
C1099 C 0.58793 0.4306 0.2754 0.0
C1100 C 0.55737 0.4152 0.28483 0.0
C1101 C 0.5524 0.41816 0.30955 0.0
C1102 C 0.58853 0.39282 0.21481 0.0
C1103 C 0.6132 0.41881 0.20315 0.0
C1104 C 0.57921 0.39641 0.23838 0.0
C1105 C 0.59424 0.42611 0.24985 0.0
C1106 C 0.61756 0.45195 0.2373 0.0
C1107 C 0.62716 0.4481 0.21459 0.0
H1108 H 0.21792 0.62715 0.32686 0.0
H1109 H 0.13247 0.53778 0.33021 0.0
H1110 H 0.2189 0.62246 0.28249 0.0
H1111 H 0.13404 0.53188 0.28614 0.0
H1112 H 0.13348 0.55776 0.20396 0.0
H1113 H 0.12875 0.5502 0.24795 0.0
H1114 H 0.22956 0.59301 0.25341 0.0
H1115 H 0.23434 0.60315 0.20964 0.0
C1116 C 0.199 0.60682 0.31795 0.0
C1117 C 0.17481 0.58301 0.33171 0.0
C1118 C 0.19992 0.60366 0.29269 0.0
C1119 C 0.17706 0.57627 0.28091 0.0
C1120 C 0.152 0.55322 0.29463 0.0
C1121 C 0.15078 0.55677 0.3198 0.0
C1122 C 0.15456 0.56513 0.21453 0.0
C1123 C 0.1843 0.58302 0.2038 0.0
C1124 C 0.15187 0.56056 0.23976 0.0
C1125 C 0.17898 0.57273 0.25424 0.0
C1126 C 0.20839 0.58507 0.24277 0.0
C1127 C 0.21108 0.59043 0.21766 0.0
H1128 H 0.39913 0.83268 0.83044 0.0
H1129 H 0.49362 0.84924 0.83309 0.0
H1130 H 0.40984 0.85617 0.78921 0.0
H1131 H 0.5054 0.87479 0.79405 0.0
H1132 H 0.49543 0.86487 0.71101 0.0
H1133 H 0.49162 0.85445 0.75469 0.0
H1134 H 0.43833 0.90202 0.76402 0.0
H1135 H 0.44006 0.90964 0.71989 0.0
C1136 C 0.4222 0.84177 0.82238 0.0
C1137 C 0.44546 0.83863 0.83447 0.0
C1138 C 0.42855 0.85555 0.79909 0.0
C1139 C 0.45846 0.86697 0.78836 0.0
C1140 C 0.48192 0.86537 0.80141 0.0
C1141 C 0.47519 0.8507 0.82384 0.0
C1142 C 0.48429 0.87433 0.72268 0.0
C1143 C 0.4695 0.88954 0.71262 0.0
C1144 C 0.48189 0.86832 0.74764 0.0
C1145 C 0.46471 0.87759 0.76278 0.0
C1146 C 0.45165 0.89463 0.75279 0.0
C1147 C 0.45372 0.90019 0.72774 0.0
H1148 H 0.56019 0.39137 0.81183 0.0
H1149 H 0.61045 0.49108 0.82455 0.0
H1150 H 0.57493 0.40089 0.76839 0.0
H1151 H 0.62352 0.50081 0.78114 0.0
H1152 H 0.63501 0.42266 0.70534 0.0
H1153 H 0.63717 0.43356 0.74888 0.0
H1154 H 0.58407 0.48046 0.73763 0.0
H1155 H 0.58137 0.46935 0.6939 0.0
C1156 C 0.57318 0.41525 0.80509 0.0
C1157 C 0.58248 0.44064 0.821 0.0
C1158 C 0.58198 0.42072 0.78055 0.0
C1159 C 0.60031 0.4516 0.77187 0.0
C1160 C 0.60902 0.47695 0.78758 0.0
C1161 C 0.6006 0.47141 0.81213 0.0
C1162 C 0.62503 0.43657 0.71187 0.0
C1163 C 0.60632 0.44348 0.69664 0.0
C1164 C 0.62634 0.44279 0.73676 0.0
C1165 C 0.60981 0.45672 0.74624 0.0
C1166 C 0.5965 0.4692 0.73044 0.0
C1167 C 0.59496 0.46276 0.7055 0.0
H1168 H 0.26438 0.64289 0.82817 0.0
H1169 H 0.17475 0.56206 0.84521 0.0
H1170 H 0.25185 0.63522 0.78491 0.0
H1171 H 0.16008 0.55691 0.8025 0.0
H1172 H 0.20945 0.65251 0.71995 0.0
H1173 H 0.22214 0.65008 0.76264 0.0
H1174 H 0.15951 0.54939 0.76198 0.0
H1175 H 0.14499 0.55284 0.72041 0.0
C1176 C 0.24214 0.62309 0.82265 0.0
C1177 C 0.21933 0.60451 0.84005 0.0
C1178 C 0.23456 0.61922 0.79786 0.0
C1179 C 0.20396 0.59719 0.79036 0.0
C1180 C 0.18348 0.57499 0.80748 0.0
C1181 C 0.19167 0.57811 0.83211 0.0
C1182 C 0.19735 0.63026 0.72953 0.0
C1183 C 0.17581 0.60301 0.71725 0.0
C1184 C 0.2053 0.62855 0.7537 0.0
C1185 C 0.19279 0.59929 0.76562 0.0
C1186 C 0.16954 0.57238 0.75369 0.0
C1187 C 0.16076 0.57437 0.72987 0.0
H1188 H 0.56283 0.15372 0.82701 0.0
H1189 H 0.6619 0.2175 0.83666 0.0
H1190 H 0.57039 0.15309 0.7829 0.0
H1191 H 0.66968 0.21703 0.79234 0.0
H1192 H 0.67545 0.19493 0.71465 0.0
H1193 H 0.66299 0.18019 0.75707 0.0
H1194 H 0.58673 0.19966 0.7527 0.0
H1195 H 0.5995 0.21439 0.70924 0.0
C1196 C 0.58643 0.16643 0.81966 0.0
C1197 C 0.61204 0.18517 0.83483 0.0
C1198 C 0.59059 0.16646 0.79454 0.0
C1199 C 0.62042 0.18522 0.7845 0.0
C1200 C 0.64645 0.20222 0.7999 0.0
C1201 C 0.64221 0.20236 0.8251 0.0
C1202 C 0.65614 0.19618 0.72268 0.0
C1203 C 0.63911 0.2068 0.70914 0.0
C1204 C 0.64885 0.18746 0.74686 0.0
C1205 C 0.62434 0.1893 0.758 0.0
C1206 C 0.6058 0.19806 0.7442 0.0
C1207 C 0.61312 0.20668 0.71962 0.0
H1208 H 0.37873 0.57382 0.71385 0.0
H1209 H 0.47922 0.6148 0.71015 0.0
H1210 H 0.38126 0.56956 0.75859 0.0
H1211 H 0.48183 0.60979 0.75363 0.0
H1212 H 0.47073 0.58459 0.83501 0.0
H1213 H 0.46714 0.57711 0.79071 0.0
H1214 H 0.40635 0.61679 0.7867 0.0
H1215 H 0.40901 0.62331 0.83079 0.0
C1216 C 0.40093 0.58011 0.72241 0.0
C1217 C 0.42862 0.59337 0.70868 0.0
C1218 C 0.40252 0.57809 0.74782 0.0
C1219 C 0.43183 0.58952 0.7593 0.0
C1220 C 0.45896 0.60023 0.74519 0.0
C1221 C 0.45738 0.60254 0.72012 0.0
C1222 C 0.45699 0.59209 0.82457 0.0
C1223 C 0.43914 0.60326 0.83633 0.0
C1224 C 0.4547 0.58755 0.79936 0.0
C1225 C 0.4351 0.59486 0.78573 0.0
C1226 C 0.42029 0.6095 0.79713 0.0
C1227 C 0.42251 0.61395 0.82227 0.0
H1228 H 0.84236 0.38567 0.7145 0.0
H1229 H 0.84975 0.47678 0.7141 0.0
H1230 H 0.86009 0.39418 0.75742 0.0
H1231 H 0.86857 0.48596 0.75576 0.0
H1232 H 0.84327 0.46225 0.83738 0.0
H1233 H 0.83906 0.46198 0.79291 0.0
H1234 H 0.90345 0.42665 0.78648 0.0
H1235 H 0.90658 0.4259 0.83103 0.0
C1236 C 0.84833 0.4076 0.72347 0.0
C1237 C 0.84414 0.43032 0.71148 0.0
C1238 C 0.85866 0.41264 0.74778 0.0
C1239 C 0.86523 0.44061 0.75987 0.0
C1240 C 0.86298 0.46396 0.74707 0.0
C1241 C 0.85218 0.45868 0.72326 0.0
C1242 C 0.85742 0.45569 0.82633 0.0
C1243 C 0.87622 0.44539 0.83733 0.0
C1244 C 0.85499 0.45536 0.80097 0.0
C1245 C 0.87111 0.44439 0.78635 0.0
C1246 C 0.89091 0.43525 0.79739 0.0
C1247 C 0.89335 0.43564 0.82278 0.0
H1248 H 0.55056 0.22354 0.09403 0.0
H1249 H 0.51332 0.25886 0.14916 0.0
H1250 H 0.57199 0.27319 0.0717 0.0
H1251 H 0.5334 0.30782 0.12647 0.0
H1252 H 0.57894 0.39678 0.09263 0.0
H1253 H 0.54257 0.34128 0.0855 0.0
H1254 H 0.61761 0.32134 0.09638 0.0
H1255 H 0.65387 0.37663 0.10424 0.0
C1256 C 0.54512 0.24114 0.10041 0.0
C1257 C 0.53033 0.23767 0.12316 0.0
C1258 C 0.55747 0.26952 0.0877 0.0
C1259 C 0.55446 0.2943 0.09743 0.0
C1260 C 0.53574 0.28897 0.1184 0.0
C1261 C 0.52419 0.26097 0.13142 0.0
C1262 C 0.58809 0.38083 0.09239 0.0
C1263 C 0.61905 0.39084 0.09986 0.0
C1264 C 0.56718 0.34904 0.08821 0.0
C1265 C 0.57719 0.32709 0.09082 0.0
C1266 C 0.60928 0.33782 0.09423 0.0
C1267 C 0.63005 0.3695 0.0989 0.0
H1268 H 0.19646 0.57165 0.09841 0.0
H1269 H 0.28517 0.64874 0.12272 0.0
H1270 H 0.22055 0.53923 0.09305 0.0
H1271 H 0.30933 0.61636 0.11669 0.0
H1272 H 0.34729 0.55332 0.10557 0.0
H1273 H 0.32114 0.57996 0.08821 0.0
H1274 H 0.2395 0.52227 0.13264 0.0
H1275 H 0.26615 0.49631 0.15046 0.0
C1276 C 0.2214 0.58213 0.10168 0.0
C1277 C 0.23873 0.61249 0.11172 0.0
C1278 C 0.23509 0.56347 0.0986 0.0
C1279 C 0.26654 0.57511 0.1049 0.0
C1280 C 0.28496 0.60683 0.11169 0.0
C1281 C 0.27113 0.62542 0.11513 0.0
C1282 C 0.32313 0.54528 0.11062 0.0
C1283 C 0.30844 0.52264 0.12909 0.0
C1284 C 0.30834 0.5607 0.10085 0.0
C1285 C 0.27847 0.5533 0.10921 0.0
C1286 C 0.26244 0.52816 0.12569 0.0
C1287 C 0.2775 0.51312 0.1358 0.0
H1288 H 0.80382 0.35821 0.10935 0.0
H1289 H 0.79317 0.27741 0.14843 0.0
H1290 H 0.75246 0.3262 0.09053 0.0
H1291 H 0.74175 0.24521 0.12979 0.0
H1292 H 0.64774 0.19257 0.10404 0.0
H1293 H 0.70364 0.22275 0.09487 0.0
H1294 H 0.70451 0.30762 0.11654 0.0
H1295 H 0.64871 0.27751 0.12573 0.0
C1296 C 0.79105 0.33318 0.11287 0.0
C1297 C 0.80206 0.32002 0.13026 0.0
C1298 C 0.76167 0.31496 0.10223 0.0
C1299 C 0.74291 0.2834 0.10899 0.0
C1300 C 0.75576 0.26945 0.12406 0.0
C1301 C 0.7852 0.28776 0.13476 0.0
C1302 C 0.65968 0.21785 0.106 0.0
C1303 C 0.64423 0.23263 0.11644 0.0
C1304 C 0.69164 0.23506 0.10071 0.0
C1305 C 0.70853 0.26732 0.10558 0.0
C1306 C 0.69211 0.28271 0.11262 0.0
C1307 C 0.66009 0.26546 0.118 0.0
H1308 H 0.4874 0.61706 0.12125 0.0
H1309 H 0.40457 0.62628 0.11911 0.0
H1310 H 0.51965 0.67176 0.10929 0.0
H1311 H 0.43705 0.681 0.1066 0.0
H1312 H 0.54369 0.77286 0.14665 0.0
H1313 H 0.5278 0.71832 0.13807 0.0
H1314 H 0.47753 0.72029 0.07412 0.0
H1315 H 0.49398 0.77506 0.08246 0.0
C1316 C 0.47589 0.63048 0.11762 0.0
C1317 C 0.44342 0.6175 0.12169 0.0
C1318 C 0.49447 0.66177 0.11067 0.0
C1319 C 0.48088 0.68051 0.1071 0.0
C1320 C 0.44808 0.66688 0.10901 0.0
C1321 C 0.42949 0.63564 0.11636 0.0
C1322 C 0.53123 0.76238 0.1298 0.0
C1323 C 0.51947 0.77778 0.11548 0.0
C1324 C 0.52181 0.731 0.12499 0.0
C1325 C 0.50065 0.715 0.10585 0.0
C1326 C 0.49343 0.73206 0.08918 0.0
C1327 C 0.50314 0.76346 0.09383 0.0
H1328 H 0.88443 0.50036 0.12841 0.0
H1329 H 0.79619 0.41474 0.11742 0.0
H1330 H 0.86248 0.53055 0.11068 0.0
H1331 H 0.77439 0.44487 0.09971 0.0
H1332 H 0.77784 0.54364 0.14422 0.0
H1333 H 0.82203 0.53693 0.13388 0.0
H1334 H 0.77278 0.483 0.07006 0.0
H1335 H 0.72833 0.48962 0.08065 0.0
C1336 C 0.86059 0.48787 0.12164 0.0
C1337 C 0.84157 0.45527 0.12512 0.0
C1338 C 0.8482 0.50522 0.1113 0.0
C1339 C 0.81671 0.49021 0.10406 0.0
C1340 C 0.79887 0.4572 0.10494 0.0
C1341 C 0.81118 0.43988 0.11544 0.0
C1342 C 0.77732 0.53227 0.12707 0.0
C1343 C 0.74943 0.51604 0.11373 0.0
C1344 C 0.8027 0.52831 0.12109 0.0
C1345 C 0.80011 0.50815 0.10178 0.0
C1346 C 0.77492 0.49789 0.08543 0.0
C1347 C 0.74955 0.5018 0.09144 0.0
H1348 H 0.39043 0.75165 0.10452 0.0
H1349 H 0.41493 0.84842 0.09503 0.0
H1350 H 0.33589 0.73514 0.09585 0.0
H1351 H 0.36011 0.83182 0.08719 0.0
H1352 H 0.27613 0.77675 0.15031 0.0
H1353 H 0.32528 0.80622 0.12784 0.0
H1354 H 0.28967 0.73629 0.07064 0.0
H1355 H 0.23992 0.7075 0.09283 0.0
C1356 C 0.38439 0.76926 0.09948 0.0
C1357 C 0.40667 0.80127 0.10115 0.0
C1358 C 0.35319 0.75984 0.09432 0.0
C1359 C 0.34385 0.78234 0.09128 0.0
C1360 C 0.36682 0.81411 0.08953 0.0
C1361 C 0.39818 0.82353 0.09412 0.0
C1362 C 0.2781 0.76896 0.13215 0.0
C1363 C 0.25457 0.74015 0.12315 0.0
C1364 C 0.30618 0.78576 0.11922 0.0
C1365 C 0.31126 0.77326 0.09763 0.0
C1366 C 0.28618 0.74641 0.08716 0.0
C1367 C 0.25779 0.73004 0.09981 0.0
H1368 H 0.785 0.486 0.45868 0.0
H1369 H 0.78112 0.52785 0.39037 0.0
H1370 H 0.73115 0.47242 0.46781 0.0
H1371 H 0.72757 0.51505 0.39979 0.0
H1372 H 0.63468 0.39627 0.42588 0.0
H1373 H 0.68993 0.42857 0.4369 0.0
H1374 H 0.68304 0.51222 0.43004 0.0
H1375 H 0.62781 0.48024 0.4197 0.0
C1376 C 0.77335 0.49423 0.44645 0.0
C1377 C 0.78675 0.50728 0.42358 0.0
C1378 C 0.74247 0.48616 0.45158 0.0
C1379 C 0.72513 0.49194 0.43418 0.0
C1380 C 0.74053 0.51025 0.41345 0.0
C1381 C 0.77135 0.51793 0.40814 0.0
C1382 C 0.64467 0.42143 0.42746 0.0
C1383 C 0.62703 0.43566 0.42136 0.0
C1384 C 0.6762 0.43992 0.43394 0.0
C1385 C 0.6906 0.47287 0.43418 0.0
C1386 C 0.67241 0.48691 0.42996 0.0
C1387 C 0.64082 0.46846 0.42393 0.0
H1388 H 0.19685 0.62862 0.44151 0.0
H1389 H 0.28151 0.63146 0.41623 0.0
H1390 H 0.22611 0.68502 0.44859 0.0
H1391 H 0.31071 0.68782 0.42337 0.0
H1392 H 0.35952 0.78846 0.43406 0.0
H1393 H 0.32958 0.73505 0.45 0.0
H1394 H 0.24661 0.72422 0.41418 0.0
H1395 H 0.27678 0.7778 0.39838 0.0
C1396 C 0.22192 0.64112 0.43821 0.0
C1397 C 0.23675 0.6258 0.4276 0.0
C1398 C 0.23859 0.67341 0.44224 0.0
C1399 C 0.27045 0.69088 0.43601 0.0
C1400 C 0.28611 0.67496 0.42835 0.0
C1401 C 0.26937 0.64261 0.4242 0.0
C1402 C 0.33452 0.77501 0.43057 0.0
C1403 C 0.32021 0.78692 0.41513 0.0
C1404 C 0.3175 0.74446 0.43955 0.0
C1405 C 0.28593 0.72536 0.43308 0.0
C1406 C 0.27087 0.7385 0.41967 0.0
C1407 C 0.28801 0.76915 0.41063 0.0
H1408 H 0.5078 0.25948 0.40052 0.0
H1409 H 0.55871 0.34578 0.44105 0.0
H1410 H 0.53536 0.23763 0.42296 0.0
H1411 H 0.58741 0.32456 0.46274 0.0
H1412 H 0.5875 0.20287 0.45921 0.0
H1413 H 0.55494 0.2264 0.46683 0.0
H1414 H 0.62551 0.31248 0.4334 0.0
H1415 H 0.65772 0.28869 0.42504 0.0
C1416 C 0.52356 0.27301 0.41521 0.0
C1417 C 0.53109 0.30403 0.41931 0.0
C1418 C 0.53945 0.26067 0.42801 0.0
C1419 C 0.56359 0.2796 0.44447 0.0
C1420 C 0.56879 0.30954 0.45029 0.0
C1421 C 0.55232 0.32155 0.43795 0.0
C1422 C 0.59679 0.22736 0.4546 0.0
C1423 C 0.62454 0.24366 0.44072 0.0
C1424 C 0.57811 0.24075 0.45901 0.0
C1425 C 0.58746 0.27085 0.45017 0.0
C1426 C 0.61781 0.28912 0.44034 0.0
C1427 C 0.63634 0.27553 0.43557 0.0
H1428 H 0.26906 0.49958 0.39228 0.0
H1429 H 0.23275 0.53481 0.44823 0.0
H1430 H 0.31911 0.52242 0.4137 0.0
H1431 H 0.28338 0.55899 0.46923 0.0
H1432 H 0.38537 0.64302 0.43453 0.0
H1433 H 0.33028 0.60549 0.4423 0.0
H1434 H 0.3532 0.53291 0.45552 0.0
H1435 H 0.40846 0.57053 0.4486 0.0
C1436 C 0.27129 0.51062 0.40992 0.0
C1437 C 0.24726 0.51528 0.41883 0.0
C1438 C 0.29989 0.52376 0.4222 0.0
C1439 C 0.30502 0.54257 0.44304 0.0
C1440 C 0.27983 0.54436 0.45334 0.0
C1441 C 0.25091 0.53042 0.44141 0.0
C1442 C 0.3789 0.61949 0.44033 0.0
C1443 C 0.40107 0.60952 0.44021 0.0
C1444 C 0.34736 0.59802 0.44494 0.0
C1445 C 0.33761 0.56626 0.4491 0.0
C1446 C 0.36025 0.55727 0.45228 0.0
C1447 C 0.39189 0.57891 0.44822 0.0
H1448 H 0.75626 0.37918 0.44636 0.0
H1449 H 0.85214 0.40131 0.45665 0.0
H1450 H 0.73818 0.32501 0.45746 0.0
H1451 H 0.83395 0.34677 0.4669 0.0
H1452 H 0.77879 0.26752 0.40063 0.0
H1453 H 0.80916 0.31425 0.42537 0.0
H1454 H 0.73715 0.27677 0.48117 0.0
H1455 H 0.70746 0.22917 0.4567 0.0
C1456 C 0.77336 0.37284 0.45221 0.0
C1457 C 0.80555 0.39406 0.44964 0.0
C1458 C 0.76303 0.34181 0.4588 0.0
C1459 C 0.78482 0.33165 0.46232 0.0
C1460 C 0.81678 0.35406 0.46404 0.0
C1461 C 0.82711 0.38529 0.45799 0.0
C1462 C 0.77063 0.26839 0.41892 0.0
C1463 C 0.74102 0.24512 0.42688 0.0
C1464 C 0.78798 0.29508 0.4332 0.0
C1465 C 0.77523 0.2992 0.45507 0.0
C1466 C 0.74749 0.27401 0.46448 0.0
C1467 C 0.73057 0.24687 0.45047 0.0
H1468 H 0.54863 0.77032 0.39507 0.0
H1469 H 0.49878 0.72134 0.4604 0.0
H1470 H 0.53787 0.81235 0.40437 0.0
H1471 H 0.48789 0.7634 0.46978 0.0
H1472 H 0.50093 0.87596 0.41726 0.0
H1473 H 0.53233 0.85291 0.43015 0.0
H1474 H 0.44777 0.76356 0.44011 0.0
H1475 H 0.4163 0.78639 0.42699 0.0
C1476 C 0.53736 0.76963 0.41233 0.0
C1477 C 0.52378 0.74238 0.42671 0.0
C1478 C 0.53094 0.79364 0.41762 0.0
C1479 C 0.51105 0.79044 0.43734 0.0
C1480 C 0.50271 0.76602 0.4542 0.0
C1481 C 0.50921 0.74213 0.44895 0.0
C1482 C 0.48893 0.85155 0.42275 0.0
C1483 C 0.45612 0.83273 0.42055 0.0
C1484 C 0.507 0.83849 0.43023 0.0
C1485 C 0.49255 0.80654 0.43608 0.0
C1486 C 0.45957 0.78842 0.436 0.0
C1487 C 0.44152 0.80136 0.4282 0.0
H1488 H 0.53981 0.76712 0.9083 0.0
H1489 H 0.49767 0.79549 0.96469 0.0
H1490 H 0.51686 0.7153 0.92682 0.0
H1491 H 0.47329 0.74313 0.98251 0.0
H1492 H 0.46042 0.62066 0.95311 0.0
H1493 H 0.49723 0.67375 0.96671 0.0
H1494 H 0.43095 0.70286 0.9467 0.0
H1495 H 0.39446 0.64997 0.93208 0.0
C1496 C 0.52774 0.76309 0.9257 0.0
C1497 C 0.51966 0.78475 0.93471 0.0
C1498 C 0.5142 0.73324 0.93622 0.0
C1499 C 0.49254 0.72515 0.95559 0.0
C1500 C 0.48967 0.74882 0.96746 0.0
C1501 C 0.5039 0.77885 0.95735 0.0
C1502 C 0.45315 0.63811 0.95248 0.0
C1503 C 0.42513 0.63162 0.94066 0.0
C1504 C 0.47421 0.66838 0.96046 0.0
C1505 C 0.46705 0.69228 0.95741 0.0
C1506 C 0.4369 0.68464 0.9493 0.0
C1507 C 0.41599 0.65439 0.94085 0.0
H1508 H 0.76661 0.37684 0.92299 0.0
H1509 H 0.84783 0.46694 0.93897 0.0
H1510 H 0.7331 0.39958 0.92809 0.0
H1511 H 0.81413 0.48962 0.94424 0.0
H1512 H 0.67524 0.44207 0.93501 0.0
H1513 H 0.71114 0.42625 0.95182 0.0
H1514 H 0.78724 0.50038 0.91065 0.0
H1515 H 0.75119 0.51639 0.89434 0.0
C1516 C 0.77723 0.40122 0.92841 0.0
C1517 C 0.80996 0.42027 0.92982 0.0
C1518 C 0.75798 0.41429 0.93147 0.0
C1519 C 0.7711 0.44661 0.93607 0.0
C1520 C 0.80346 0.46481 0.94022 0.0
C1521 C 0.82271 0.45173 0.93725 0.0
C1522 C 0.69997 0.45576 0.9305 0.0
C1523 C 0.71073 0.48042 0.91355 0.0
C1524 C 0.72042 0.44659 0.93994 0.0
C1525 C 0.75188 0.46173 0.93228 0.0
C1526 C 0.76319 0.4884 0.91711 0.0
C1527 C 0.74267 0.49765 0.90774 0.0
H1528 H 0.42104 0.85299 0.94766 0.0
H1529 H 0.38748 0.75494 0.93287 0.0
H1530 H 0.36772 0.84085 0.95684 0.0
H1531 H 0.33444 0.74282 0.94315 0.0
H1532 H 0.24223 0.72341 0.94825 0.0
H1533 H 0.29088 0.74992 0.97159 0.0
H1534 H 0.3332 0.81811 0.91359 0.0
H1535 H 0.28526 0.79032 0.88978 0.0
C1536 C 0.4026 0.82862 0.9476 0.0
C1537 C 0.40813 0.80496 0.93857 0.0
C1538 C 0.37214 0.82176 0.95311 0.0
C1539 C 0.34712 0.79109 0.95039 0.0
C1540 C 0.35345 0.76673 0.94547 0.0
C1541 C 0.38377 0.77366 0.93932 0.0
C1542 C 0.26124 0.74527 0.94133 0.0
C1543 C 0.26042 0.75473 0.91724 0.0
C1544 C 0.28907 0.76038 0.95467 0.0
C1545 C 0.31575 0.78568 0.94419 0.0
C1546 C 0.31284 0.79867 0.92211 0.0
C1547 C 0.28541 0.78286 0.90842 0.0
H1548 H 0.54343 0.23118 0.95843 0.0
H1549 H 0.48643 0.23011 0.89821 0.0
H1550 H 0.55131 0.28199 0.97143 0.0
H1551 H 0.49433 0.28081 0.91101 0.0
H1552 H 0.61661 0.37674 0.92565 0.0
H1553 H 0.58781 0.32358 0.94156 0.0
H1554 H 0.50133 0.32583 0.93768 0.0
H1555 H 0.53016 0.37919 0.92186 0.0
C1556 C 0.53102 0.24098 0.94889 0.0
C1557 C 0.51533 0.2276 0.92686 0.0
C1558 C 0.5356 0.27006 0.9563 0.0
C1559 C 0.52457 0.28583 0.94162 0.0
C1560 C 0.50347 0.26936 0.92254 0.0
C1561 C 0.49885 0.2402 0.91515 0.0
C1562 C 0.59163 0.36626 0.92885 0.0
C1563 C 0.57551 0.38165 0.92166 0.0
C1564 C 0.5751 0.33591 0.93831 0.0
C1565 C 0.54219 0.32046 0.9406 0.0
C1566 C 0.5266 0.33714 0.93593 0.0
C1567 C 0.54316 0.36758 0.92666 0.0
H1568 H 0.22858 0.62314 0.96505 0.0
H1569 H 0.31141 0.67277 0.92013 0.0
H1570 H 0.24694 0.58831 0.97939 0.0
H1571 H 0.33035 0.63863 0.93523 0.0
H1572 H 0.34815 0.56172 0.95284 0.0
H1573 H 0.33624 0.59915 0.97276 0.0
H1574 H 0.24826 0.55836 0.93407 0.0
H1575 H 0.26153 0.52309 0.91262 0.0
C1576 C 0.25184 0.6281 0.95968 0.0
C1577 C 0.26815 0.64981 0.94088 0.0
C1578 C 0.26229 0.60811 0.96794 0.0
C1579 C 0.28957 0.61039 0.95792 0.0
C1580 C 0.30913 0.63643 0.94316 0.0
C1581 C 0.29836 0.65612 0.93453 0.0
C1582 C 0.32545 0.55962 0.94971 0.0
C1583 C 0.30578 0.53985 0.93109 0.0
C1584 C 0.31878 0.58111 0.96107 0.0
C1585 C 0.29149 0.58165 0.95482 0.0
C1586 C 0.26935 0.55815 0.93936 0.0
C1587 C 0.27671 0.5377 0.92721 0.0
H1588 H 0.78502 0.26298 0.88832 0.0
H1589 H 0.8057 0.32516 0.94986 0.0
H1590 H 0.73228 0.22889 0.90443 0.0
H1591 H 0.75249 0.29157 0.96575 0.0
H1592 H 0.64901 0.26544 0.93483 0.0
H1593 H 0.7053 0.28807 0.94087 0.0
H1594 H 0.69416 0.19537 0.94024 0.0
H1595 H 0.63763 0.1726 0.93483 0.0
C1596 C 0.77878 0.26832 0.90602 0.0
C1597 C 0.79939 0.29627 0.9181 0.0
C1598 C 0.74856 0.24893 0.91522 0.0
C1599 C 0.73826 0.25772 0.93628 0.0
C1600 C 0.7599 0.28423 0.94955 0.0
C1601 C 0.79038 0.30325 0.9406 0.0
C1602 C 0.65838 0.24984 0.93716 0.0
C1603 C 0.63899 0.21733 0.93418 0.0
C1604 C 0.69061 0.26276 0.94067 0.0
C1605 C 0.70409 0.24343 0.94078 0.0
C1606 C 0.68433 0.21074 0.94018 0.0
C1607 C 0.65194 0.19775 0.93722 0.0
H1608 H 0.23203 0.54903 0.59933 0.0
H1609 H 0.25739 0.51 0.65973 0.0
H1610 H 0.28172 0.5631 0.57887 0.0
H1611 H 0.30652 0.52308 0.63912 0.0
H1612 H 0.39624 0.55562 0.60585 0.0
H1613 H 0.3396 0.52353 0.6004 0.0
H1614 H 0.33191 0.60711 0.60148 0.0
H1615 H 0.38827 0.63906 0.60766 0.0
C1616 C 0.24746 0.54177 0.60745 0.0
C1617 C 0.24118 0.52838 0.63093 0.0
C1618 C 0.27582 0.54987 0.5958 0.0
C1619 C 0.29791 0.54427 0.60746 0.0
C1620 C 0.28972 0.52729 0.62957 0.0
C1621 C 0.26167 0.51979 0.64142 0.0
C1622 C 0.38267 0.56727 0.60371 0.0
C1623 C 0.39643 0.59976 0.60767 0.0
C1624 C 0.35025 0.54884 0.60062 0.0
C1625 C 0.33145 0.56283 0.60083 0.0
C1626 C 0.34589 0.59572 0.60113 0.0
C1627 C 0.37814 0.61405 0.60478 0.0
H1628 H 0.76635 0.36818 0.60935 0.0
H1629 H 0.86625 0.4069 0.60016 0.0
H1630 H 0.75753 0.31783 0.59428 0.0
H1631 H 0.85733 0.35607 0.58597 0.0
H1632 H 0.73634 0.23163 0.57739 0.0
H1633 H 0.76769 0.28376 0.55989 0.0
H1634 H 0.83243 0.30953 0.62014 0.0
H1635 H 0.80061 0.25774 0.63787 0.0
C1636 C 0.7863 0.3662 0.60336 0.0
C1637 C 0.81691 0.3912 0.60645 0.0
C1638 C 0.78131 0.3375 0.59445 0.0
C1639 C 0.80687 0.33316 0.58899 0.0
C1640 C 0.83733 0.35896 0.58986 0.0
C1641 C 0.8423 0.38793 0.59817 0.0
C1642 C 0.75863 0.24763 0.58583 0.0
C1643 C 0.76547 0.2415 0.60947 0.0
C1644 C 0.7765 0.27756 0.57584 0.0
C1645 C 0.80153 0.30089 0.5893 0.0
C1646 C 0.81285 0.29202 0.60961 0.0
C1647 C 0.7947 0.26215 0.61976 0.0
H1648 H 0.50417 0.87265 0.61923 0.0
H1649 H 0.41521 0.78633 0.6143 0.0
H1650 H 0.53158 0.84425 0.60959 0.0
H1651 H 0.44279 0.75815 0.60427 0.0
H1652 H 0.4912 0.70983 0.58545 0.0
H1653 H 0.4808 0.75198 0.57523 0.0
H1654 H 0.53342 0.8037 0.6387 0.0
H1655 H 0.54355 0.76139 0.64898 0.0
C1656 C 0.49036 0.84777 0.61541 0.0
C1657 C 0.45745 0.83157 0.61805 0.0
C1658 C 0.50618 0.83161 0.60986 0.0
C1659 C 0.48938 0.79908 0.60632 0.0
C1660 C 0.45636 0.78335 0.6067 0.0
C1661 C 0.44053 0.79942 0.61262 0.0
C1662 C 0.50212 0.73107 0.59636 0.0
C1663 C 0.51775 0.73229 0.61818 0.0
C1664 C 0.49588 0.75501 0.59064 0.0
C1665 C 0.50557 0.78059 0.60654 0.0
C1666 C 0.5256 0.78416 0.62614 0.0
C1667 C 0.5317 0.76005 0.63195 0.0
H1668 H 0.78785 0.46518 0.57938 0.0
H1669 H 0.76439 0.51504 0.63265 0.0
H1670 H 0.73485 0.44087 0.56291 0.0
H1671 H 0.71183 0.49191 0.61538 0.0
H1672 H 0.63956 0.3707 0.6164 0.0
H1673 H 0.69354 0.40355 0.60223 0.0
H1674 H 0.67046 0.47106 0.57352 0.0
H1675 H 0.61624 0.43774 0.5865 0.0
C1676 C 0.77207 0.47278 0.58632 0.0
C1677 C 0.77967 0.4912 0.60767 0.0
C1678 C 0.74174 0.45869 0.57695 0.0
C1679 C 0.71935 0.46408 0.58828 0.0
C1680 C 0.72889 0.48745 0.6064 0.0
C1681 C 0.75908 0.50098 0.61618 0.0
C1682 C 0.64553 0.39162 0.6059 0.0
C1683 C 0.62403 0.4022 0.60333 0.0
C1684 C 0.6764 0.41044 0.59774 0.0
C1685 C 0.68597 0.43996 0.58718 0.0
C1686 C 0.66353 0.44845 0.58168 0.0
C1687 C 0.63261 0.42938 0.5893 0.0
H1688 H 0.18929 0.64882 0.60953 0.0
H1689 H 0.27442 0.64631 0.62325 0.0
H1690 H 0.22011 0.70484 0.60113 0.0
H1691 H 0.30512 0.70223 0.61471 0.0
H1692 H 0.35763 0.80193 0.60437 0.0
H1693 H 0.32196 0.74965 0.58822 0.0
H1694 H 0.24835 0.74366 0.63523 0.0
H1695 H 0.28421 0.79601 0.65123 0.0
C1696 C 0.21463 0.66 0.60998 0.0
C1697 C 0.22944 0.64341 0.61787 0.0
C1698 C 0.2322 0.69207 0.60513 0.0
C1699 C 0.26487 0.70796 0.60777 0.0
C1700 C 0.27991 0.69058 0.61251 0.0
C1701 C 0.26231 0.6585 0.61752 0.0
C1702 C 0.33332 0.78993 0.61026 0.0
C1703 C 0.32336 0.80266 0.6289 0.0
C1704 C 0.31304 0.76003 0.60116 0.0
C1705 C 0.28258 0.74246 0.6107 0.0
C1706 C 0.27164 0.75677 0.62736 0.0
C1707 C 0.29204 0.78672 0.63653 0.0
H1708 H 0.54479 0.31411 0.59535 0.0
H1709 H 0.51009 0.24449 0.65259 0.0
H1710 H 0.57395 0.29063 0.57762 0.0
H1711 H 0.53804 0.22014 0.63437 0.0
H1712 H 0.5943 0.18363 0.60064 0.0
H1713 H 0.55324 0.19692 0.595 0.0
H1714 H 0.62093 0.29477 0.60581 0.0
H1715 H 0.66201 0.28159 0.61226 0.0
C1716 C 0.54155 0.2924 0.60306 0.0
C1717 C 0.525 0.2808 0.62515 0.0
C1718 C 0.55853 0.27922 0.59307 0.0
C1719 C 0.5584 0.25378 0.60475 0.0
C1720 C 0.53828 0.23957 0.62487 0.0
C1721 C 0.52202 0.25328 0.63522 0.0
C1722 C 0.6008 0.20816 0.60093 0.0
C1723 C 0.63137 0.23155 0.60751 0.0
C1724 C 0.57717 0.21566 0.59768 0.0
C1725 C 0.58389 0.24675 0.60019 0.0
C1726 C 0.61517 0.27058 0.60364 0.0
C1727 C 0.6387 0.26303 0.60744 0.0
H1728 H 0.53235 0.09317 0.95759 0.0
H1729 H 0.48578 0.14772 0.95943 0.0
H1730 H 0.52917 0.0891 1.00211 0.0
H1731 H 0.48369 0.14474 1.004 0.0
H1732 H 0.47596 0.12701 0.08676 0.0
H1733 H 0.46608 0.11726 0.04257 0.0
H1734 H 0.5567 0.12451 0.03365 0.0
H1735 H 0.56595 0.13317 0.077 0.0
C1736 C 0.52102 0.10393 0.96744 0.0
C1737 C 0.50952 0.12092 0.95479 0.0
C1738 C 0.51942 0.10186 0.99309 0.0
C1739 C 0.50675 0.11715 1.00693 0.0
C1740 C 0.49346 0.13247 0.99415 0.0
C1741 C 0.49473 0.13423 0.96846 0.0
C1742 C 0.49341 0.12589 0.07534 0.0
C1743 C 0.52176 0.13098 0.08559 0.0
C1744 C 0.48791 0.12056 0.04995 0.0
C1745 C 0.51053 0.11995 0.0343 0.0
C1746 C 0.53834 0.12412 0.04488 0.0
C1747 C 0.5438 0.12947 0.06996 0.0
H1748 H 0.33307 0.46575 0.95802 0.0
H1749 H 0.43124 0.53311 0.96787 0.0
H1750 H 0.32919 0.45119 1.00157 0.0
H1751 H 0.42744 0.51931 1.01067 0.0
H1752 H 0.42369 0.48584 0.08433 0.0
H1753 H 0.42068 0.48068 0.03981 0.0
H1754 H 0.33084 0.47637 0.0412 0.0
H1755 H 0.33349 0.48012 0.08605 0.0
C1756 C 0.3539 0.47689 0.96931 0.0
C1757 C 0.38243 0.50059 0.95953 0.0
C1758 C 0.35165 0.46881 0.99427 0.0
C1759 C 0.37801 0.48399 1.00972 0.0
C1760 C 0.40673 0.50661 0.99943 0.0
C1761 C 0.40887 0.51478 0.9748 0.0
C1762 C 0.40284 0.48265 0.07511 0.0
C1763 C 0.37878 0.48323 0.08847 0.0
C1764 C 0.40118 0.48 0.0496 0.0
C1765 C 0.37582 0.47878 0.03679 0.0
C1766 C 0.35062 0.47706 0.0504 0.0
C1767 C 0.35209 0.47921 0.07608 0.0
H1768 H 0.92469 0.44737 0.08669 0.0
H1769 H 0.90055 0.35106 0.09795 0.0
H1770 H 0.9267 0.44105 0.04294 0.0
H1771 H 0.90318 0.34476 0.05341 0.0
H1772 H 0.86818 0.34031 0.97122 0.0
H1773 H 0.87421 0.34187 1.01594 0.0
H1774 H 0.95477 0.43504 1.01019 0.0
H1775 H 0.94783 0.43361 0.96586 0.0
C1776 C 0.92031 0.42486 0.07987 0.0
C1777 C 0.91253 0.39975 0.09606 0.0
C1778 C 0.9217 0.42128 0.05457 0.0
C1779 C 0.91531 0.39242 0.04435 0.0
C1780 C 0.90813 0.36732 0.06052 0.0
C1781 C 0.90692 0.371 0.08609 0.0
C1782 C 0.88773 0.36064 0.97956 0.0
C1783 C 0.90778 0.3867 0.96508 0.0
C1784 C 0.89119 0.36163 1.00522 0.0
C1785 C 0.91472 0.38879 1.01693 0.0
C1786 C 0.93594 0.41397 1.00205 0.0
C1787 C 0.93229 0.41306 0.97655 0.0
H1788 H 0.49295 0.90106 0.95916 0.0
H1789 H 0.57623 0.893 0.95614 0.0
H1790 H 0.49733 0.90599 1.00343 0.0
H1791 H 0.58177 0.89968 1.00041 0.0
H1792 H 0.55506 0.8644 0.07951 0.0
H1793 H 0.55943 0.87074 0.03541 0.0
H1794 H 0.52046 0.93222 0.03945 0.0
H1795 H 0.51463 0.92443 0.08371 0.0
C1796 C 0.51284 0.90137 0.96787 0.0
C1797 C 0.53417 0.89651 0.95399 0.0
C1798 C 0.51544 0.90429 0.99343 0.0
C1799 C 0.53974 0.90289 1.00591 0.0
C1800 C 0.56221 0.90004 0.99176 0.0
C1801 C 0.55929 0.89658 0.96623 0.0
C1802 C 0.54795 0.87977 0.0711 0.0
C1803 C 0.53441 0.89383 0.08529 0.0
C1804 C 0.55057 0.88355 0.04561 0.0
C1805 C 0.54014 0.90189 0.03345 0.0
C1806 C 0.52813 0.91733 0.04787 0.0
C1807 C 0.52508 0.91316 0.07339 0.0
H1808 H 0.58613 0.4616 0.96572 0.0
H1809 H 0.67021 0.55109 0.95456 0.0
H1810 H 0.59127 0.46898 1.00933 0.0
H1811 H 0.67493 0.55907 0.99922 0.0
H1812 H 0.69112 0.53816 0.08072 0.0
H1813 H 0.68713 0.54079 0.03633 0.0
H1814 H 0.58631 0.49555 0.04284 0.0
H1815 H 0.59032 0.49176 0.08701 0.0
C1816 C 0.60563 0.48326 0.9725 0.0
C1817 C 0.62774 0.50579 0.95625 0.0
C1818 C 0.6084 0.48763 0.99783 0.0
C1819 C 0.6333 0.51482 1.00818 0.0
C1820 C 0.65543 0.53772 0.99204 0.0
C1821 C 0.65265 0.53328 0.96638 0.0
C1822 C 0.66811 0.52935 0.07274 0.0
C1823 C 0.641 0.51452 0.08756 0.0
C1824 C 0.66583 0.5309 0.04715 0.0
C1825 C 0.63636 0.51786 0.03565 0.0
C1826 C 0.60943 0.50505 0.05076 0.0
C1827 C 0.61169 0.50314 0.07625 0.0
H1828 H 0.11183 0.61085 0.07889 0.0
H1829 H 0.18242 0.70814 0.08702 0.0
H1830 H 0.11117 0.61811 0.03452 0.0
H1831 H 0.1826 0.71519 0.04247 0.0
H1832 H 0.11534 0.6513 0.95257 0.0
H1833 H 0.10524 0.65455 0.99663 0.0
H1834 H 0.2013 0.68219 1.01279 0.0
H1835 H 0.21069 0.67705 0.96979 0.0
C1836 C 0.12626 0.63409 0.07126 0.0
C1837 C 0.14682 0.65906 0.08642 0.0
C1838 C 0.12588 0.63825 0.04586 0.0
C1839 C 0.14672 0.66724 0.03502 0.0
C1840 C 0.16602 0.69269 0.05036 0.0
C1841 C 0.16582 0.68871 0.07586 0.0
C1842 C 0.13436 0.65877 0.96554 0.0
C1843 C 0.16396 0.66443 0.95764 0.0
C1844 C 0.12858 0.66052 0.9907 0.0
C1845 C 0.15265 0.66906 1.00809 0.0
C1846 C 0.18248 0.67616 0.99985 0.0
C1847 C 0.18787 0.67333 0.97513 0.0
H1848 H 0.88913 0.55716 0.58512 0.0
H1849 H 0.9045 0.47828 0.58506 0.0
H1850 H 0.89542 0.5612 0.54078 0.0
H1851 H 0.90898 0.48093 0.54064 0.0
H1852 H 0.92859 0.49711 0.45977 0.0
H1853 H 0.93373 0.50253 0.50419 0.0
H1854 H 0.87 0.53897 0.50505 0.0
H1855 H 0.86643 0.53512 0.46074 0.0
C1856 C 0.89417 0.54082 0.57566 0.0
C1857 C 0.89648 0.51752 0.58886 0.0
C1858 C 0.89736 0.54281 0.55001 0.0
C1859 C 0.90229 0.52112 0.53654 0.0
C1860 C 0.90568 0.49849 0.54996 0.0
C1861 C 0.90307 0.49688 0.57566 0.0
C1862 C 0.91623 0.50693 0.46943 0.0
C1863 C 0.89731 0.51591 0.45646 0.0
C1864 C 0.91883 0.50969 0.4951 0.0
C1865 C 0.9021 0.52098 0.50878 0.0
C1866 C 0.88385 0.53073 0.49558 0.0
C1867 C 0.88169 0.52845 0.46992 0.0
H1868 H 0.45028 0.93809 0.57783 0.0
H1869 H 0.35016 0.88567 0.58942 0.0
H1870 H 0.44221 0.93715 0.53379 0.0
H1871 H 0.34205 0.88447 0.54473 0.0
H1872 H 0.36312 0.91841 0.45536 0.0
H1873 H 0.36148 0.92589 0.5001 0.0
H1874 H 0.41405 0.87856 0.51188 0.0
H1875 H 0.41553 0.87088 0.46821 0.0
C1876 C 0.42648 0.92714 0.57096 0.0
C1877 C 0.40085 0.91176 0.587 0.0
C1878 C 0.42188 0.92665 0.54576 0.0
C1879 C 0.39154 0.91055 0.53589 0.0
C1880 C 0.36565 0.89727 0.55194 0.0
C1881 C 0.3703 0.89797 0.57743 0.0
C1882 C 0.37387 0.90926 0.46762 0.0
C1883 C 0.39004 0.89466 0.45816 0.0
C1884 C 0.37291 0.91352 0.49313 0.0
C1885 C 0.38812 0.90323 0.5093 0.0
C1886 C 0.40261 0.88718 0.4998 0.0
C1887 C 0.40349 0.88289 0.4747 0.0
H1888 H 0.52213 0.42302 0.46522 0.0
H1889 H 0.4631 0.32397 0.45138 0.0
H1890 H 0.51231 0.41396 0.50889 0.0
H1891 H 0.45317 0.3147 0.49564 0.0
H1892 H 0.49522 0.31748 0.57568 0.0
H1893 H 0.4869 0.31843 0.53153 0.0
H1894 H 0.47298 0.39766 0.54166 0.0
H1895 H 0.48168 0.39671 0.58571 0.0
C1896 C 0.50653 0.39929 0.47151 0.0
C1897 C 0.49338 0.37421 0.4548 0.0
C1898 C 0.50071 0.3941 0.49661 0.0
C1899 C 0.48186 0.36359 0.50588 0.0
C1900 C 0.46784 0.33849 0.48912 0.0
C1901 C 0.47331 0.3438 0.46378 0.0
C1902 C 0.48901 0.33416 0.56851 0.0
C1903 C 0.48851 0.35667 0.58405 0.0
C1904 C 0.48434 0.33482 0.54322 0.0
C1905 C 0.47957 0.35833 0.53296 0.0
C1906 C 0.47692 0.37945 0.54889 0.0
C1907 C 0.48149 0.3787 0.57415 0.0
H1908 H 0.12463 0.54794 0.57853 0.0
H1909 H 0.146 0.47481 0.59434 0.0
H1910 H 0.12089 0.53556 0.5353 0.0
H1911 H 0.14191 0.46193 0.5504 0.0
H1912 H 0.17892 0.48945 0.46767 0.0
H1913 H 0.17217 0.48668 0.51235 0.0
H1914 H 0.09118 0.49804 0.50426 0.0
H1915 H 0.09871 0.50173 0.45987 0.0
C1916 C 0.12797 0.52873 0.5728 0.0
C1917 C 0.13556 0.51234 0.59 0.0
C1918 C 0.1256 0.52143 0.54788 0.0
C1919 C 0.13095 0.4976 0.53916 0.0
C1920 C 0.13774 0.48051 0.55641 0.0
C1921 C 0.13977 0.48764 0.58161 0.0
C1922 C 0.15906 0.49021 0.4755 0.0
C1923 C 0.13912 0.49547 0.46038 0.0
C1924 C 0.15519 0.4887 0.50111 0.0
C1925 C 0.13138 0.4926 0.51206 0.0
C1926 C 0.11013 0.49554 0.4966 0.0
C1927 C 0.11415 0.49726 0.47113 0.0
H1928 H 0.60186 0.13386 0.47254 0.0
H1929 H 0.6907 0.13917 0.45855 0.0
H1930 H 0.60632 0.12634 0.51554 0.0
H1931 H 0.69471 0.12996 0.50231 0.0
H1932 H 0.6109 0.10526 0.59275 0.0
H1933 H 0.60535 0.0972 0.54855 0.0
H1934 H 0.70555 0.15688 0.53978 0.0
H1935 H 0.7111 0.16327 0.5839 0.0
C1936 C 0.62216 0.13264 0.4786 0.0
C1937 C 0.64609 0.13744 0.46195 0.0
C1938 C 0.62458 0.12794 0.5035 0.0
C1939 C 0.65094 0.12756 0.51286 0.0
C1940 C 0.67421 0.13056 0.496 0.0
C1941 C 0.67179 0.13543 0.4708 0.0
C1942 C 0.63179 0.11599 0.58141 0.0
C1943 C 0.66138 0.13499 0.592 0.0
C1944 C 0.62865 0.11169 0.55592 0.0
C1945 C 0.65492 0.12693 0.54018 0.0
C1946 C 0.68471 0.14445 0.551 0.0
C1947 C 0.68789 0.14823 0.5765 0.0
H1948 H 0.56545 0.67196 0.58559 0.0
H1949 H 0.48061 0.58201 0.5808 0.0
H1950 H 0.57149 0.6725 0.54121 0.0
H1951 H 0.4855 0.5832 0.53659 0.0
H1952 H 0.50338 0.58353 0.45638 0.0
H1953 H 0.50811 0.58012 0.50058 0.0
H1954 H 0.55153 0.68102 0.50589 0.0
H1955 H 0.54834 0.68432 0.46178 0.0
C1956 C 0.54823 0.65213 0.57511 0.0
C1957 C 0.52259 0.62693 0.58693 0.0
C1958 C 0.55145 0.65256 0.5495 0.0
C1959 C 0.5288 0.62808 0.53485 0.0
C1960 C 0.50382 0.60235 0.5469 0.0
C1961 C 0.50091 0.60169 0.57248 0.0
C1962 C 0.51456 0.60501 0.46697 0.0
C1963 C 0.52553 0.63419 0.45539 0.0
C1964 C 0.51697 0.60308 0.49247 0.0
C1965 C 0.52986 0.63024 0.50727 0.0
C1966 C 0.54189 0.65949 0.49544 0.0
C1967 C 0.53997 0.66143 0.46993 0.0
loop_
_geom_bond_atom_site_label_1
_geom_bond_atom_site_label_2
_geom_bond_distance
_geom_bond_site_symmetry_2
_ccdc_geom_bond_type
Fe0 O2 1.918 . S
Fe0 O5 1.997 . S
Fe0 O6 2.002 . S
Fe0 O11 1.976 . S
Fe0 O14 1.996 . S
Fe1 O2 1.918 . S
Fe1 O9 1.997 . S
Fe1 O12 1.996 . S
Fe1 O16 1.976 . S
Fe1 O19 2.002 . S
O2 Fe0 1.918 . S
O2 Fe1 1.918 . S
O2 Fe3 1.918 . S
Fe3 O2 1.918 . S
Fe3 O4 2.002 . S
Fe3 O13 1.976 . S
Fe3 O17 1.996 . S
Fe3 O20 1.997 . S
O4 Fe3 2.002 . S
O4 C21 1.295 . S
O5 Fe0 1.997 . S
O5 C21 1.235 . S
O6 Fe0 2.002 . S
O6 C7 1.295 . S
C7 O6 1.295 . S
C7 O9 1.235 . S
C8 O13 1.287 . S
C8 O14 1.255 . S
O9 Fe1 1.997 . S
O9 C7 1.235 . S
C10 O16 1.287 . S
C10 O17 1.255 . S
O11 Fe0 1.976 . S
O11 C18 1.287 . S
O12 Fe1 1.996 . S
O12 C18 1.255 . S
O13 Fe3 1.976 . S
O13 C8 1.287 . S
O14 Fe0 1.996 . S
O14 C8 1.255 . S
C15 O19 1.295 . S
C15 O20 1.235 . S
O16 Fe1 1.976 . S
O16 C10 1.287 . S
O17 Fe3 1.996 . S
O17 C10 1.255 . S
C18 O11 1.287 . S
C18 O12 1.255 . S
O19 Fe1 2.002 . S
O19 C15 1.295 . S
O20 Fe3 1.997 . S
O20 C15 1.235 . S
C21 O4 1.295 . S
C21 O5 1.235 . S
Fe22 O24 1.918 . S
Fe22 O27 1.997 . S
Fe22 O28 2.002 . S
Fe22 O33 1.976 . S
Fe22 O36 1.996 . S
Fe23 O24 1.918 . S
Fe23 O31 1.997 . S
Fe23 O34 1.996 . S
Fe23 O38 1.976 . S
Fe23 O41 2.002 . S
O24 Fe22 1.918 . S
O24 Fe23 1.918 . S
O24 Fe25 1.918 . S
Fe25 O24 1.918 . S
Fe25 O26 2.002 . S
Fe25 O35 1.976 . S
Fe25 O39 1.996 . S
Fe25 O42 1.997 . S
O26 Fe25 2.002 . S
O26 C43 1.295 . S
O27 Fe22 1.997 . S
O27 C43 1.235 . S
O28 Fe22 2.002 . S
O28 C29 1.295 . S
C29 O28 1.295 . S
C29 O31 1.235 . S
C30 O35 1.287 . S
C30 O36 1.255 . S
O31 Fe23 1.997 . S
O31 C29 1.235 . S
C32 O38 1.287 . S
C32 O39 1.255 . S
O33 Fe22 1.976 . S
O33 C40 1.287 . S
O34 Fe23 1.996 . S
O34 C40 1.255 . S
O35 Fe25 1.976 . S
O35 C30 1.287 . S
O36 Fe22 1.996 . S
O36 C30 1.255 . S
C37 O41 1.295 . S
C37 O42 1.235 . S
O38 Fe23 1.976 . S
O38 C32 1.287 . S
O39 Fe25 1.996 . S
O39 C32 1.255 . S
C40 O33 1.287 . S
C40 O34 1.255 . S
O41 Fe23 2.002 . S
O41 C37 1.295 . S
O42 Fe25 1.997 . S
O42 C37 1.235 . S
C43 O26 1.295 . S
C43 O27 1.235 . S
Fe44 O46 1.918 . S
Fe44 O49 1.997 . S
Fe44 O50 2.002 . S
Fe44 O55 1.976 . S
Fe44 O58 1.996 . S
Fe45 O46 1.918 . S
Fe45 O53 1.997 . S
Fe45 O56 1.996 . S
Fe45 O60 1.976 . S
Fe45 O63 2.002 . S
O46 Fe44 1.918 . S
O46 Fe45 1.918 . S
O46 Fe47 1.918 . S
Fe47 O46 1.918 . S
Fe47 O48 2.002 . S
Fe47 O57 1.976 . S
Fe47 O61 1.996 . S
Fe47 O64 1.997 . S
O48 Fe47 2.002 . S
O48 C65 1.295 . S
O49 Fe44 1.997 . S
O49 C65 1.235 . S
O50 Fe44 2.002 . S
O50 C51 1.295 . S
C51 O50 1.295 . S
C51 O53 1.235 . S
C52 O57 1.287 . S
C52 O58 1.255 . S
O53 Fe45 1.997 . S
O53 C51 1.235 . S
C54 O60 1.287 . S
C54 O61 1.255 . S
O55 Fe44 1.976 . S
O55 C62 1.287 . S
O56 Fe45 1.996 . S
O56 C62 1.255 . S
O57 Fe47 1.976 . S
O57 C52 1.287 . S
O58 Fe44 1.996 . S
O58 C52 1.255 . S
C59 O63 1.295 . S
C59 O64 1.235 . S
O60 Fe45 1.976 . S
O60 C54 1.287 . S
O61 Fe47 1.996 . S
O61 C54 1.255 . S
C62 O55 1.287 . S
C62 O56 1.255 . S
O63 Fe45 2.002 . S
O63 C59 1.295 . S
O64 Fe47 1.997 . S
O64 C59 1.235 . S
C65 O48 1.295 . S
C65 O49 1.235 . S
Fe66 O68 1.918 . S
Fe66 O71 1.997 . S
Fe66 O72 2.002 . S
Fe66 O77 1.976 . S
Fe66 O80 1.996 . S
Fe67 O68 1.918 . S
Fe67 O75 1.997 . S
Fe67 O78 1.996 . S
Fe67 O82 1.976 . S
Fe67 O85 2.002 . S
O68 Fe66 1.918 . S
O68 Fe67 1.918 . S
O68 Fe69 1.918 . S
Fe69 O68 1.918 . S
Fe69 O70 2.002 . S
Fe69 O79 1.976 . S
Fe69 O83 1.996 . S
Fe69 O86 1.997 . S
O70 Fe69 2.002 . S
O70 C87 1.295 . S
O71 Fe66 1.997 . S
O71 C87 1.235 . S
O72 Fe66 2.002 . S
O72 C73 1.295 . S
C73 O72 1.295 . S
C73 O75 1.235 . S
C74 O79 1.287 . S
C74 O80 1.255 . S
O75 Fe67 1.997 . S
O75 C73 1.235 . S
C76 O82 1.287 . S
C76 O83 1.255 . S
O77 Fe66 1.976 . S
O77 C84 1.287 . S
O78 Fe67 1.996 . S
O78 C84 1.255 . S
O79 Fe69 1.976 . S
O79 C74 1.287 . S
O80 Fe66 1.996 . S
O80 C74 1.255 . S
C81 O85 1.295 . S
C81 O86 1.235 . S
O82 Fe67 1.976 . S
O82 C76 1.287 . S
O83 Fe69 1.996 . S
O83 C76 1.255 . S
C84 O77 1.287 . S
C84 O78 1.255 . S
O85 Fe67 2.002 . S
O85 C81 1.295 . S
O86 Fe69 1.997 . S
O86 C81 1.235 . S
C87 O70 1.295 . S
C87 O71 1.235 . S
Fe88 O90 1.918 . S
Fe88 O93 1.997 . S
Fe88 O94 2.002 . S
Fe88 O99 1.976 . S
Fe88 O102 1.996 . S
Fe89 O90 1.918 . S
Fe89 O97 1.997 . S
Fe89 O100 1.996 . S
Fe89 O104 1.976 . S
Fe89 O107 2.002 . S
O90 Fe88 1.918 . S
O90 Fe89 1.918 . S
O90 Fe91 1.918 . S
Fe91 O90 1.918 . S
Fe91 O92 2.002 . S
Fe91 O101 1.976 . S
Fe91 O105 1.996 . S
Fe91 O108 1.997 . S
O92 Fe91 2.002 . S
O92 C109 1.295 . S
O93 Fe88 1.997 . S
O93 C109 1.235 . S
O94 Fe88 2.002 . S
O94 C95 1.295 . S
C95 O94 1.295 . S
C95 O97 1.235 . S
C96 O101 1.287 . S
C96 O102 1.255 . S
O97 Fe89 1.997 . S
O97 C95 1.235 . S
C98 O104 1.287 . S
C98 O105 1.255 . S
O99 Fe88 1.976 . S
O99 C106 1.287 . S
O100 Fe89 1.996 . S
O100 C106 1.255 . S
O101 Fe91 1.976 . S
O101 C96 1.287 . S
O102 Fe88 1.996 . S
O102 C96 1.255 . S
C103 O107 1.295 . S
C103 O108 1.235 . S
O104 Fe89 1.976 . S
O104 C98 1.287 . S
O105 Fe91 1.996 . S
O105 C98 1.255 . S
C106 O99 1.287 . S
C106 O100 1.255 . S
O107 Fe89 2.002 . S
O107 C103 1.295 . S
O108 Fe91 1.997 . S
O108 C103 1.235 . S
C109 O92 1.295 . S
C109 O93 1.235 . S
Fe110 O112 1.918 . S
Fe110 O115 1.997 . S
Fe110 O116 2.002 . S
Fe110 O121 1.976 . S
Fe110 O124 1.996 . S
Fe111 O112 1.918 . S
Fe111 O119 1.997 . S
Fe111 O122 1.996 . S
Fe111 O126 1.976 . S
Fe111 O129 2.002 . S
O112 Fe110 1.918 . S
O112 Fe111 1.918 . S
O112 Fe113 1.918 . S
Fe113 O112 1.918 . S
Fe113 O114 2.002 . S
Fe113 O123 1.976 . S
Fe113 O127 1.996 . S
Fe113 O130 1.997 . S
O114 Fe113 2.002 . S
O114 C131 1.295 . S
O115 Fe110 1.997 . S
O115 C131 1.235 . S
O116 Fe110 2.002 . S
O116 C117 1.295 . S
C117 O116 1.295 . S
C117 O119 1.235 . S
C118 O123 1.287 . S
C118 O124 1.255 . S
O119 Fe111 1.997 . S
O119 C117 1.235 . S
C120 O126 1.287 . S
C120 O127 1.255 . S
O121 Fe110 1.976 . S
O121 C128 1.287 . S
O122 Fe111 1.996 . S
O122 C128 1.255 . S
O123 Fe113 1.976 . S
O123 C118 1.287 . S
O124 Fe110 1.996 . S
O124 C118 1.255 . S
C125 O129 1.295 . S
C125 O130 1.235 . S
O126 Fe111 1.976 . S
O126 C120 1.287 . S
O127 Fe113 1.996 . S
O127 C120 1.255 . S
C128 O121 1.287 . S
C128 O122 1.255 . S
O129 Fe111 2.002 . S
O129 C125 1.295 . S
O130 Fe113 1.997 . S
O130 C125 1.235 . S
C131 O114 1.295 . S
C131 O115 1.235 . S
Fe132 O134 1.918 . S
Fe132 O137 1.997 . S
Fe132 O138 2.002 . S
Fe132 O143 1.976 . S
Fe132 O146 1.996 . S
Fe133 O134 1.918 . S
Fe133 O141 1.997 . S
Fe133 O144 1.996 . S
Fe133 O148 1.976 . S
Fe133 O151 2.002 . S
O134 Fe132 1.918 . S
O134 Fe133 1.918 . S
O134 Fe135 1.918 . S
Fe135 O134 1.918 . S
Fe135 O136 2.002 . S
Fe135 O145 1.976 . S
Fe135 O149 1.996 . S
Fe135 O152 1.997 . S
O136 Fe135 2.002 . S
O136 C153 1.295 . S
O137 Fe132 1.997 . S
O137 C153 1.235 . S
O138 Fe132 2.002 . S
O138 C139 1.295 . S
C139 O138 1.295 . S
C139 O141 1.235 . S
C140 O145 1.287 . S
C140 O146 1.255 . S
O141 Fe133 1.997 . S
O141 C139 1.235 . S
C142 O148 1.287 . S
C142 O149 1.255 . S
O143 Fe132 1.976 . S
O143 C150 1.287 . S
O144 Fe133 1.996 . S
O144 C150 1.255 . S
O145 Fe135 1.976 . S
O145 C140 1.287 . S
O146 Fe132 1.996 . S
O146 C140 1.255 . S
C147 O151 1.295 . S
C147 O152 1.235 . S
O148 Fe133 1.976 . S
O148 C142 1.287 . S
O149 Fe135 1.996 . S
O149 C142 1.255 . S
C150 O143 1.287 . S
C150 O144 1.255 . S
O151 Fe133 2.002 . S
O151 C147 1.295 . S
O152 Fe135 1.997 . S
O152 C147 1.235 . S
C153 O136 1.295 . S
C153 O137 1.235 . S
Fe154 O156 1.918 . S
Fe154 O159 1.997 . S
Fe154 O160 2.002 . S
Fe154 O165 1.976 . S
Fe154 O168 1.996 . S
Fe155 O156 1.918 . S
Fe155 O163 1.997 . S
Fe155 O166 1.996 . S
Fe155 O170 1.976 . S
Fe155 O173 2.002 . S
O156 Fe154 1.918 . S
O156 Fe155 1.918 . S
O156 Fe157 1.918 . S
Fe157 O156 1.918 . S
Fe157 O158 2.002 . S
Fe157 O167 1.976 . S
Fe157 O171 1.996 . S
Fe157 O174 1.997 . S
O158 Fe157 2.002 . S
O158 C175 1.295 . S
O159 Fe154 1.997 . S
O159 C175 1.235 . S
O160 Fe154 2.002 . S
O160 C161 1.295 . S
C161 O160 1.295 . S
C161 O163 1.235 . S
C162 O167 1.287 . S
C162 O168 1.255 . S
O163 Fe155 1.997 . S
O163 C161 1.235 . S
C164 O170 1.287 . S
C164 O171 1.255 . S
O165 Fe154 1.976 . S
O165 C172 1.287 . S
O166 Fe155 1.996 . S
O166 C172 1.255 . S
O167 Fe157 1.976 . S
O167 C162 1.287 . S
O168 Fe154 1.996 . S
O168 C162 1.255 . S
C169 O173 1.295 . S
C169 O174 1.235 . S
O170 Fe155 1.976 . S
O170 C164 1.287 . S
O171 Fe157 1.996 . S
O171 C164 1.255 . S
C172 O165 1.287 . S
C172 O166 1.255 . S
O173 Fe155 2.002 . S
O173 C169 1.295 . S
O174 Fe157 1.997 . S
O174 C169 1.235 . S
C175 O158 1.295 . S
C175 O159 1.235 . S
Fe176 O178 1.918 . S
Fe176 O181 1.997 . S
Fe176 O182 2.002 . S
Fe176 O187 1.976 . S
Fe176 O190 1.996 . S
Fe177 O178 1.918 . S
Fe177 O185 1.997 . S
Fe177 O188 1.996 . S
Fe177 O192 1.976 . S
Fe177 O195 2.002 . S
O178 Fe176 1.918 . S
O178 Fe177 1.918 . S
O178 Fe179 1.918 . S
Fe179 O178 1.918 . S
Fe179 O180 2.002 . S
Fe179 O189 1.976 . S
Fe179 O193 1.996 . S
Fe179 O196 1.997 . S
O180 Fe179 2.002 . S
O180 C197 1.295 . S
O181 Fe176 1.997 . S
O181 C197 1.235 . S
O182 Fe176 2.002 . S
O182 C183 1.295 . S
C183 O182 1.295 . S
C183 O185 1.235 . S
C184 O189 1.287 . S
C184 O190 1.255 . S
O185 Fe177 1.997 . S
O185 C183 1.235 . S
C186 O192 1.287 . S
C186 O193 1.255 . S
O187 Fe176 1.976 . S
O187 C194 1.287 . S
O188 Fe177 1.996 . S
O188 C194 1.255 . S
O189 Fe179 1.976 . S
O189 C184 1.287 . S
O190 Fe176 1.996 . S
O190 C184 1.255 . S
C191 O195 1.295 . S
C191 O196 1.235 . S
O192 Fe177 1.976 . S
O192 C186 1.287 . S
O193 Fe179 1.996 . S
O193 C186 1.255 . S
C194 O187 1.287 . S
C194 O188 1.255 . S
O195 Fe177 2.002 . S
O195 C191 1.295 . S
O196 Fe179 1.997 . S
O196 C191 1.235 . S
C197 O180 1.295 . S
C197 O181 1.235 . S
Fe198 O200 1.918 . S
Fe198 O203 1.997 . S
Fe198 O204 2.002 . S
Fe198 O209 1.976 . S
Fe198 O212 1.996 . S
Fe199 O200 1.918 . S
Fe199 O207 1.997 . S
Fe199 O210 1.996 . S
Fe199 O214 1.976 . S
Fe199 O217 2.002 . S
O200 Fe198 1.918 . S
O200 Fe199 1.918 . S
O200 Fe201 1.918 . S
Fe201 O200 1.918 . S
Fe201 O202 2.002 . S
Fe201 O211 1.976 . S
Fe201 O215 1.996 . S
Fe201 O218 1.997 . S
O202 Fe201 2.002 . S
O202 C219 1.295 . S
O203 Fe198 1.997 . S
O203 C219 1.235 . S
O204 Fe198 2.002 . S
O204 C205 1.295 . S
C205 O204 1.295 . S
C205 O207 1.235 . S
C206 O211 1.287 . S
C206 O212 1.255 . S
O207 Fe199 1.997 . S
O207 C205 1.235 . S
C208 O214 1.287 . S
C208 O215 1.255 . S
O209 Fe198 1.976 . S
O209 C216 1.287 . S
O210 Fe199 1.996 . S
O210 C216 1.255 . S
O211 Fe201 1.976 . S
O211 C206 1.287 . S
O212 Fe198 1.996 . S
O212 C206 1.255 . S
C213 O217 1.295 . S
C213 O218 1.235 . S
O214 Fe199 1.976 . S
O214 C208 1.287 . S
O215 Fe201 1.996 . S
O215 C208 1.255 . S
C216 O209 1.287 . S
C216 O210 1.255 . S
O217 Fe199 2.002 . S
O217 C213 1.295 . S
O218 Fe201 1.997 . S
O218 C213 1.235 . S
C219 O202 1.295 . S
C219 O203 1.235 . S
Fe220 O222 1.918 . S
Fe220 O225 1.997 . S
Fe220 O226 2.002 . S
Fe220 O231 1.976 . S
Fe220 O234 1.996 . S
Fe221 O222 1.918 . S
Fe221 O229 1.997 . S
Fe221 O232 1.996 . S
Fe221 O236 1.976 . S
Fe221 O239 2.002 . S
O222 Fe220 1.918 . S
O222 Fe221 1.918 . S
O222 Fe223 1.918 . S
Fe223 O222 1.918 . S
Fe223 O224 2.002 . S
Fe223 O233 1.976 . S
Fe223 O237 1.996 . S
Fe223 O240 1.997 . S
O224 Fe223 2.002 . S
O224 C241 1.295 . S
O225 Fe220 1.997 . S
O225 C241 1.235 . S
O226 Fe220 2.002 . S
O226 C227 1.295 . S
C227 O226 1.295 . S
C227 O229 1.235 . S
C228 O233 1.287 . S
C228 O234 1.255 . S
O229 Fe221 1.997 . S
O229 C227 1.235 . S
C230 O236 1.287 . S
C230 O237 1.255 . S
O231 Fe220 1.976 . S
O231 C238 1.287 . S
O232 Fe221 1.996 . S
O232 C238 1.255 . S
O233 Fe223 1.976 . S
O233 C228 1.287 . S
O234 Fe220 1.996 . S
O234 C228 1.255 . S
C235 O239 1.295 . S
C235 O240 1.235 . S
O236 Fe221 1.976 . S
O236 C230 1.287 . S
O237 Fe223 1.996 . S
O237 C230 1.255 . S
C238 O231 1.287 . S
C238 O232 1.255 . S
O239 Fe221 2.002 . S
O239 C235 1.295 . S
O240 Fe223 1.997 . S
O240 C235 1.235 . S
C241 O224 1.295 . S
C241 O225 1.235 . S
Fe242 O244 1.918 . S
Fe242 O247 1.997 . S
Fe242 O248 2.002 . S
Fe242 O253 1.976 . S
Fe242 O256 1.996 . S
Fe243 O244 1.918 . S
Fe243 O251 1.997 . S
Fe243 O254 1.996 . S
Fe243 O258 1.976 . S
Fe243 O261 2.002 . S
O244 Fe242 1.918 . S
O244 Fe243 1.918 . S
O244 Fe245 1.918 . S
Fe245 O244 1.918 . S
Fe245 O246 2.002 . S
Fe245 O255 1.976 . S
Fe245 O259 1.996 . S
Fe245 O262 1.997 . S
O246 Fe245 2.002 . S
O246 C263 1.295 . S
O247 Fe242 1.997 . S
O247 C263 1.235 . S
O248 Fe242 2.002 . S
O248 C249 1.295 . S
C249 O248 1.295 . S
C249 O251 1.235 . S
C250 O255 1.287 . S
C250 O256 1.255 . S
O251 Fe243 1.997 . S
O251 C249 1.235 . S
C252 O258 1.287 . S
C252 O259 1.255 . S
O253 Fe242 1.976 . S
O253 C260 1.287 . S
O254 Fe243 1.996 . S
O254 C260 1.255 . S
O255 Fe245 1.976 . S
O255 C250 1.287 . S
O256 Fe242 1.996 . S
O256 C250 1.255 . S
C257 O261 1.295 . S
C257 O262 1.235 . S
O258 Fe243 1.976 . S
O258 C252 1.287 . S
O259 Fe245 1.996 . S
O259 C252 1.255 . S
C260 O253 1.287 . S
C260 O254 1.255 . S
O261 Fe243 2.002 . S
O261 C257 1.295 . S
O262 Fe245 1.997 . S
O262 C257 1.235 . S
C263 O246 1.295 . S
C263 O247 1.235 . S
Fe264 O266 1.918 . S
Fe264 O269 1.997 . S
Fe264 O270 2.002 . S
Fe264 O275 1.976 . S
Fe264 O278 1.996 . S
Fe265 O266 1.918 . S
Fe265 O273 1.997 . S
Fe265 O276 1.996 . S
Fe265 O280 1.976 . S
Fe265 O283 2.002 . S
O266 Fe264 1.918 . S
O266 Fe265 1.918 . S
O266 Fe267 1.918 . S
Fe267 O266 1.918 . S
Fe267 O268 2.002 . S
Fe267 O277 1.976 . S
Fe267 O281 1.996 . S
Fe267 O284 1.997 . S
O268 Fe267 2.002 . S
O268 C285 1.295 . S
O269 Fe264 1.997 . S
O269 C285 1.235 . S
O270 Fe264 2.002 . S
O270 C271 1.295 . S
C271 O270 1.295 . S
C271 O273 1.235 . S
C272 O277 1.287 . S
C272 O278 1.255 . S
O273 Fe265 1.997 . S
O273 C271 1.235 . S
C274 O280 1.287 . S
C274 O281 1.255 . S
O275 Fe264 1.976 . S
O275 C282 1.287 . S
O276 Fe265 1.996 . S
O276 C282 1.255 . S
O277 Fe267 1.976 . S
O277 C272 1.287 . S
O278 Fe264 1.996 . S
O278 C272 1.255 . S
C279 O283 1.295 . S
C279 O284 1.235 . S
O280 Fe265 1.976 . S
O280 C274 1.287 . S
O281 Fe267 1.996 . S
O281 C274 1.255 . S
C282 O275 1.287 . S
C282 O276 1.255 . S
O283 Fe265 2.002 . S
O283 C279 1.295 . S
O284 Fe267 1.997 . S
O284 C279 1.235 . S
C285 O268 1.295 . S
C285 O269 1.235 . S
Fe286 O288 1.918 . S
Fe286 O291 1.997 . S
Fe286 O292 2.002 . S
Fe286 O297 1.976 . S
Fe286 O300 1.996 . S
Fe287 O288 1.918 . S
Fe287 O295 1.997 . S
Fe287 O298 1.996 . S
Fe287 O302 1.976 . S
Fe287 O305 2.002 . S
O288 Fe286 1.918 . S
O288 Fe287 1.918 . S
O288 Fe289 1.918 . S
Fe289 O288 1.918 . S
Fe289 O290 2.002 . S
Fe289 O299 1.976 . S
Fe289 O303 1.996 . S
Fe289 O306 1.997 . S
O290 Fe289 2.002 . S
O290 C307 1.295 . S
O291 Fe286 1.997 . S
O291 C307 1.235 . S
O292 Fe286 2.002 . S
O292 C293 1.295 . S
C293 O292 1.295 . S
C293 O295 1.235 . S
C294 O299 1.287 . S
C294 O300 1.255 . S
O295 Fe287 1.997 . S
O295 C293 1.235 . S
C296 O302 1.287 . S
C296 O303 1.255 . S
O297 Fe286 1.976 . S
O297 C304 1.287 . S
O298 Fe287 1.996 . S
O298 C304 1.255 . S
O299 Fe289 1.976 . S
O299 C294 1.287 . S
O300 Fe286 1.996 . S
O300 C294 1.255 . S
C301 O305 1.295 . S
C301 O306 1.235 . S
O302 Fe287 1.976 . S
O302 C296 1.287 . S
O303 Fe289 1.996 . S
O303 C296 1.255 . S
C304 O297 1.287 . S
C304 O298 1.255 . S
O305 Fe287 2.002 . S
O305 C301 1.295 . S
O306 Fe289 1.997 . S
O306 C301 1.235 . S
C307 O290 1.295 . S
C307 O291 1.235 . S
Fe308 O310 1.918 . S
Fe308 O313 1.997 . S
Fe308 O314 2.002 . S
Fe308 O319 1.976 . S
Fe308 O322 1.996 . S
Fe309 O310 1.918 . S
Fe309 O317 1.997 . S
Fe309 O320 1.996 . S
Fe309 O324 1.976 . S
Fe309 O327 2.002 . S
O310 Fe308 1.918 . S
O310 Fe309 1.918 . S
O310 Fe311 1.918 . S
Fe311 O310 1.918 . S
Fe311 O312 2.002 . S
Fe311 O321 1.976 . S
Fe311 O325 1.996 . S
Fe311 O328 1.997 . S
O312 Fe311 2.002 . S
O312 C329 1.295 . S
O313 Fe308 1.997 . S
O313 C329 1.235 . S
O314 Fe308 2.002 . S
O314 C315 1.295 . S
C315 O314 1.295 . S
C315 O317 1.235 . S
C316 O321 1.287 . S
C316 O322 1.255 . S
O317 Fe309 1.997 . S
O317 C315 1.235 . S
C318 O324 1.287 . S
C318 O325 1.255 . S
O319 Fe308 1.976 . S
O319 C326 1.287 . S
O320 Fe309 1.996 . S
O320 C326 1.255 . S
O321 Fe311 1.976 . S
O321 C316 1.287 . S
O322 Fe308 1.996 . S
O322 C316 1.255 . S
C323 O327 1.295 . S
C323 O328 1.235 . S
O324 Fe309 1.976 . S
O324 C318 1.287 . S
O325 Fe311 1.996 . S
O325 C318 1.255 . S
C326 O319 1.287 . S
C326 O320 1.255 . S
O327 Fe309 2.002 . S
O327 C323 1.295 . S
O328 Fe311 1.997 . S
O328 C323 1.235 . S
C329 O312 1.295 . S
C329 O313 1.235 . S
Fe330 O332 1.918 . S
Fe330 O335 1.997 . S
Fe330 O336 2.002 . S
Fe330 O341 1.976 . S
Fe330 O344 1.996 . S
Fe331 O332 1.918 . S
Fe331 O339 1.997 . S
Fe331 O342 1.996 . S
Fe331 O346 1.976 . S
Fe331 O349 2.002 . S
O332 Fe330 1.918 . S
O332 Fe331 1.918 . S
O332 Fe333 1.918 . S
Fe333 O332 1.918 . S
Fe333 O334 2.002 . S
Fe333 O343 1.976 . S
Fe333 O347 1.996 . S
Fe333 O350 1.997 . S
O334 Fe333 2.002 . S
O334 C351 1.295 . S
O335 Fe330 1.997 . S
O335 C351 1.235 . S
O336 Fe330 2.002 . S
O336 C337 1.295 . S
C337 O336 1.295 . S
C337 O339 1.235 . S
C338 O343 1.287 . S
C338 O344 1.255 . S
O339 Fe331 1.997 . S
O339 C337 1.235 . S
C340 O346 1.287 . S
C340 O347 1.255 . S
O341 Fe330 1.976 . S
O341 C348 1.287 . S
O342 Fe331 1.996 . S
O342 C348 1.255 . S
O343 Fe333 1.976 . S
O343 C338 1.287 . S
O344 Fe330 1.996 . S
O344 C338 1.255 . S
C345 O349 1.295 . S
C345 O350 1.235 . S
O346 Fe331 1.976 . S
O346 C340 1.287 . S
O347 Fe333 1.996 . S
O347 C340 1.255 . S
C348 O341 1.287 . S
C348 O342 1.255 . S
O349 Fe331 2.002 . S
O349 C345 1.295 . S
O350 Fe333 1.997 . S
O350 C345 1.235 . S
C351 O334 1.295 . S
C351 O335 1.235 . S
Fe352 O354 1.918 . S
Fe352 O357 1.997 . S
Fe352 O358 2.002 . S
Fe352 O363 1.976 . S
Fe352 O366 1.996 . S
Fe353 O354 1.918 . S
Fe353 O361 1.997 . S
Fe353 O364 1.996 . S
Fe353 O368 1.976 . S
Fe353 O371 2.002 . S
O354 Fe352 1.918 . S
O354 Fe353 1.918 . S
O354 Fe355 1.918 . S
Fe355 O354 1.918 . S
Fe355 O356 2.002 . S
Fe355 O365 1.976 . S
Fe355 O369 1.996 . S
Fe355 O372 1.997 . S
O356 Fe355 2.002 . S
O356 C373 1.295 . S
O357 Fe352 1.997 . S
O357 C373 1.235 . S
O358 Fe352 2.002 . S
O358 C359 1.295 . S
C359 O358 1.295 . S
C359 O361 1.235 . S
C360 O365 1.287 . S
C360 O366 1.255 . S
O361 Fe353 1.997 . S
O361 C359 1.235 . S
C362 O368 1.287 . S
C362 O369 1.255 . S
O363 Fe352 1.976 . S
O363 C370 1.287 . S
O364 Fe353 1.996 . S
O364 C370 1.255 . S
O365 Fe355 1.976 . S
O365 C360 1.287 . S
O366 Fe352 1.996 . S
O366 C360 1.255 . S
C367 O371 1.295 . S
C367 O372 1.235 . S
O368 Fe353 1.976 . S
O368 C362 1.287 . S
O369 Fe355 1.996 . S
O369 C362 1.255 . S
C370 O363 1.287 . S
C370 O364 1.255 . S
O371 Fe353 2.002 . S
O371 C367 1.295 . S
O372 Fe355 1.997 . S
O372 C367 1.235 . S
C373 O356 1.295 . S
C373 O357 1.235 . S
Fe374 O376 1.918 . S
Fe374 O379 1.997 . S
Fe374 O380 2.002 . S
Fe374 O385 1.976 . S
Fe374 O388 1.996 . S
Fe375 O376 1.918 . S
Fe375 O383 1.997 . S
Fe375 O386 1.996 . S
Fe375 O390 1.976 . S
Fe375 O393 2.002 . S
O376 Fe374 1.918 . S
O376 Fe375 1.918 . S
O376 Fe377 1.918 . S
Fe377 O376 1.918 . S
Fe377 O378 2.002 . S
Fe377 O387 1.976 . S
Fe377 O391 1.996 . S
Fe377 O394 1.997 . S
O378 Fe377 2.002 . S
O378 C395 1.295 . S
O379 Fe374 1.997 . S
O379 C395 1.235 . S
O380 Fe374 2.002 . S
O380 C381 1.295 . S
C381 O380 1.295 . S
C381 O383 1.235 . S
C382 O387 1.287 . S
C382 O388 1.255 . S
O383 Fe375 1.997 . S
O383 C381 1.235 . S
C384 O390 1.287 . S
C384 O391 1.255 . S
O385 Fe374 1.976 . S
O385 C392 1.287 . S
O386 Fe375 1.996 . S
O386 C392 1.255 . S
O387 Fe377 1.976 . S
O387 C382 1.287 . S
O388 Fe374 1.996 . S
O388 C382 1.255 . S
C389 O393 1.295 . S
C389 O394 1.235 . S
O390 Fe375 1.976 . S
O390 C384 1.287 . S
O391 Fe377 1.996 . S
O391 C384 1.255 . S
C392 O385 1.287 . S
C392 O386 1.255 . S
O393 Fe375 2.002 . S
O393 C389 1.295 . S
O394 Fe377 1.997 . S
O394 C389 1.235 . S
C395 O378 1.295 . S
C395 O379 1.235 . S
Fe396 O398 1.918 . S
Fe396 O401 1.997 . S
Fe396 O402 2.002 . S
Fe396 O407 1.976 . S
Fe396 O410 1.996 . S
Fe397 O398 1.918 . S
Fe397 O405 1.997 . S
Fe397 O408 1.996 . S
Fe397 O412 1.976 . S
Fe397 O415 2.002 . S
O398 Fe396 1.918 . S
O398 Fe397 1.918 . S
O398 Fe399 1.918 . S
Fe399 O398 1.918 . S
Fe399 O400 2.002 . S
Fe399 O409 1.976 . S
Fe399 O413 1.996 . S
Fe399 O416 1.997 . S
O400 Fe399 2.002 . S
O400 C417 1.295 . S
O401 Fe396 1.997 . S
O401 C417 1.235 . S
O402 Fe396 2.002 . S
O402 C403 1.295 . S
C403 O402 1.295 . S
C403 O405 1.235 . S
C404 O409 1.287 . S
C404 O410 1.255 . S
O405 Fe397 1.997 . S
O405 C403 1.235 . S
C406 O412 1.287 . S
C406 O413 1.255 . S
O407 Fe396 1.976 . S
O407 C414 1.287 . S
O408 Fe397 1.996 . S
O408 C414 1.255 . S
O409 Fe399 1.976 . S
O409 C404 1.287 . S
O410 Fe396 1.996 . S
O410 C404 1.255 . S
C411 O415 1.295 . S
C411 O416 1.235 . S
O412 Fe397 1.976 . S
O412 C406 1.287 . S
O413 Fe399 1.996 . S
O413 C406 1.255 . S
C414 O407 1.287 . S
C414 O408 1.255 . S
O415 Fe397 2.002 . S
O415 C411 1.295 . S
O416 Fe399 1.997 . S
O416 C411 1.235 . S
C417 O400 1.295 . S
C417 O401 1.235 . S
Fe418 O420 1.918 . S
Fe418 O423 1.997 . S
Fe418 O424 2.002 . S
Fe418 O429 1.976 . S
Fe418 O432 1.996 . S
Fe419 O420 1.918 . S
Fe419 O427 1.997 . S
Fe419 O430 1.996 . S
Fe419 O434 1.976 . S
Fe419 O437 2.002 . S
O420 Fe418 1.918 . S
O420 Fe419 1.918 . S
O420 Fe421 1.918 . S
Fe421 O420 1.918 . S
Fe421 O422 2.002 . S
Fe421 O431 1.976 . S
Fe421 O435 1.996 . S
Fe421 O438 1.997 . S
O422 Fe421 2.002 . S
O422 C439 1.295 . S
O423 Fe418 1.997 . S
O423 C439 1.235 . S
O424 Fe418 2.002 . S
O424 C425 1.295 . S
C425 O424 1.295 . S
C425 O427 1.235 . S
C426 O431 1.287 . S
C426 O432 1.255 . S
O427 Fe419 1.997 . S
O427 C425 1.235 . S
C428 O434 1.287 . S
C428 O435 1.255 . S
O429 Fe418 1.976 . S
O429 C436 1.287 . S
O430 Fe419 1.996 . S
O430 C436 1.255 . S
O431 Fe421 1.976 . S
O431 C426 1.287 . S
O432 Fe418 1.996 . S
O432 C426 1.255 . S
C433 O437 1.295 . S
C433 O438 1.235 . S
O434 Fe419 1.976 . S
O434 C428 1.287 . S
O435 Fe421 1.996 . S
O435 C428 1.255 . S
C436 O429 1.287 . S
C436 O430 1.255 . S
O437 Fe419 2.002 . S
O437 C433 1.295 . S
O438 Fe421 1.997 . S
O438 C433 1.235 . S
C439 O422 1.295 . S
C439 O423 1.235 . S
Fe440 O442 1.918 . S
Fe440 O445 1.997 . S
Fe440 O446 2.002 . S
Fe440 O451 1.976 . S
Fe440 O454 1.996 . S
Fe441 O442 1.918 . S
Fe441 O449 1.997 . S
Fe441 O452 1.996 . S
Fe441 O456 1.976 . S
Fe441 O459 2.002 . S
O442 Fe440 1.918 . S
O442 Fe441 1.918 . S
O442 Fe443 1.918 . S
Fe443 O442 1.918 . S
Fe443 O444 2.002 . S
Fe443 O453 1.976 . S
Fe443 O457 1.996 . S
Fe443 O460 1.997 . S
O444 Fe443 2.002 . S
O444 C461 1.295 . S
O445 Fe440 1.997 . S
O445 C461 1.235 . S
O446 Fe440 2.002 . S
O446 C447 1.295 . S
C447 O446 1.295 . S
C447 O449 1.235 . S
C448 O453 1.287 . S
C448 O454 1.255 . S
O449 Fe441 1.997 . S
O449 C447 1.235 . S
C450 O456 1.287 . S
C450 O457 1.255 . S
O451 Fe440 1.976 . S
O451 C458 1.287 . S
O452 Fe441 1.996 . S
O452 C458 1.255 . S
O453 Fe443 1.976 . S
O453 C448 1.287 . S
O454 Fe440 1.996 . S
O454 C448 1.255 . S
C455 O459 1.295 . S
C455 O460 1.235 . S
O456 Fe441 1.976 . S
O456 C450 1.287 . S
O457 Fe443 1.996 . S
O457 C450 1.255 . S
C458 O451 1.287 . S
C458 O452 1.255 . S
O459 Fe441 2.002 . S
O459 C455 1.295 . S
O460 Fe443 1.997 . S
O460 C455 1.235 . S
C461 O444 1.295 . S
C461 O445 1.235 . S
Fe462 O464 1.918 . S
Fe462 O467 1.997 . S
Fe462 O468 2.002 . S
Fe462 O473 1.976 . S
Fe462 O476 1.996 . S
Fe463 O464 1.918 . S
Fe463 O471 1.997 . S
Fe463 O474 1.996 . S
Fe463 O478 1.976 . S
Fe463 O481 2.002 . S
O464 Fe462 1.918 . S
O464 Fe463 1.918 . S
O464 Fe465 1.918 . S
Fe465 O464 1.918 . S
Fe465 O466 2.002 . S
Fe465 O475 1.976 . S
Fe465 O479 1.996 . S
Fe465 O482 1.997 . S
O466 Fe465 2.002 . S
O466 C483 1.295 . S
O467 Fe462 1.997 . S
O467 C483 1.235 . S
O468 Fe462 2.002 . S
O468 C469 1.295 . S
C469 O468 1.295 . S
C469 O471 1.235 . S
C470 O475 1.287 . S
C470 O476 1.255 . S
O471 Fe463 1.997 . S
O471 C469 1.235 . S
C472 O478 1.287 . S
C472 O479 1.255 . S
O473 Fe462 1.976 . S
O473 C480 1.287 . S
O474 Fe463 1.996 . S
O474 C480 1.255 . S
O475 Fe465 1.976 . S
O475 C470 1.287 . S
O476 Fe462 1.996 . S
O476 C470 1.255 . S
C477 O481 1.295 . S
C477 O482 1.235 . S
O478 Fe463 1.976 . S
O478 C472 1.287 . S
O479 Fe465 1.996 . S
O479 C472 1.255 . S
C480 O473 1.287 . S
C480 O474 1.255 . S
O481 Fe463 2.002 . S
O481 C477 1.295 . S
O482 Fe465 1.997 . S
O482 C477 1.235 . S
C483 O466 1.295 . S
C483 O467 1.235 . S
Fe484 O486 1.918 . S
Fe484 O489 1.997 . S
Fe484 O490 2.002 . S
Fe484 O495 1.976 . S
Fe484 O498 1.996 . S
Fe485 O486 1.918 . S
Fe485 O493 1.997 . S
Fe485 O496 1.996 . S
Fe485 O500 1.976 . S
Fe485 O503 2.002 . S
O486 Fe484 1.918 . S
O486 Fe485 1.918 . S
O486 Fe487 1.918 . S
Fe487 O486 1.918 . S
Fe487 O488 2.002 . S
Fe487 O497 1.976 . S
Fe487 O501 1.996 . S
Fe487 O504 1.997 . S
O488 Fe487 2.002 . S
O488 C505 1.295 . S
O489 Fe484 1.997 . S
O489 C505 1.235 . S
O490 Fe484 2.002 . S
O490 C491 1.295 . S
C491 O490 1.295 . S
C491 O493 1.235 . S
C492 O497 1.287 . S
C492 O498 1.255 . S
O493 Fe485 1.997 . S
O493 C491 1.235 . S
C494 O500 1.287 . S
C494 O501 1.255 . S
O495 Fe484 1.976 . S
O495 C502 1.287 . S
O496 Fe485 1.996 . S
O496 C502 1.255 . S
O497 Fe487 1.976 . S
O497 C492 1.287 . S
O498 Fe484 1.996 . S
O498 C492 1.255 . S
C499 O503 1.295 . S
C499 O504 1.235 . S
O500 Fe485 1.976 . S
O500 C494 1.287 . S
O501 Fe487 1.996 . S
O501 C494 1.255 . S
C502 O495 1.287 . S
C502 O496 1.255 . S
O503 Fe485 2.002 . S
O503 C499 1.295 . S
O504 Fe487 1.997 . S
O504 C499 1.235 . S
C505 O488 1.295 . S
C505 O489 1.235 . S
Fe506 O508 1.918 . S
Fe506 O511 1.997 . S
Fe506 O512 2.002 . S
Fe506 O517 1.976 . S
Fe506 O520 1.996 . S
Fe507 O508 1.918 . S
Fe507 O515 1.997 . S
Fe507 O518 1.996 . S
Fe507 O522 1.976 . S
Fe507 O525 2.002 . S
O508 Fe506 1.918 . S
O508 Fe507 1.918 . S
O508 Fe509 1.918 . S
Fe509 O508 1.918 . S
Fe509 O510 2.002 . S
Fe509 O519 1.976 . S
Fe509 O523 1.996 . S
Fe509 O526 1.997 . S
O510 Fe509 2.002 . S
O510 C527 1.295 . S
O511 Fe506 1.997 . S
O511 C527 1.235 . S
O512 Fe506 2.002 . S
O512 C513 1.295 . S
C513 O512 1.295 . S
C513 O515 1.235 . S
C514 O519 1.287 . S
C514 O520 1.255 . S
O515 Fe507 1.997 . S
O515 C513 1.235 . S
C516 O522 1.287 . S
C516 O523 1.255 . S
O517 Fe506 1.976 . S
O517 C524 1.287 . S
O518 Fe507 1.996 . S
O518 C524 1.255 . S
O519 Fe509 1.976 . S
O519 C514 1.287 . S
O520 Fe506 1.996 . S
O520 C514 1.255 . S
C521 O525 1.295 . S
C521 O526 1.235 . S
O522 Fe507 1.976 . S
O522 C516 1.287 . S
O523 Fe509 1.996 . S
O523 C516 1.255 . S
C524 O517 1.287 . S
C524 O518 1.255 . S
O525 Fe507 2.002 . S
O525 C521 1.295 . S
O526 Fe509 1.997 . S
O526 C521 1.235 . S
C527 O510 1.295 . S
C527 O511 1.235 . S
H528 C536 0.950 . S
H529 C541 0.950 . S
H530 C538 0.950 . S
H531 C540 0.950 . S
H532 C542 0.950 . S
H533 C544 0.950 . S
H534 C546 0.950 . S
H535 C547 0.950 . S
C536 H528 0.950 . S
C536 C537 1.386 . S
C536 C538 1.391 . S
C537 C536 1.386 . S
C537 C541 1.393 . S
C538 H530 0.950 . S
C538 C536 1.391 . S
C538 C539 1.400 . S
C539 C538 1.400 . S
C539 C540 1.398 . S
C539 C545 1.491 . S
C540 H531 0.950 . S
C540 C539 1.398 . S
C540 C541 1.391 . S
C541 H529 0.950 . S
C541 C537 1.393 . S
C541 C540 1.391 . S
C542 H532 0.950 . S
C542 C543 1.386 . S
C542 C544 1.391 . S
C543 C542 1.386 . S
C543 C547 1.393 . S
C544 H533 0.950 . S
C544 C542 1.391 . S
C544 C545 1.400 . S
C545 C539 1.491 . S
C545 C544 1.400 . S
C545 C546 1.398 . S
C546 H534 0.950 . S
C546 C545 1.398 . S
C546 C547 1.391 . S
C547 H535 0.950 . S
C547 C543 1.393 . S
C547 C546 1.391 . S
H548 C556 0.950 . S
H549 C561 0.950 . S
H550 C558 0.950 . S
H551 C560 0.950 . S
H552 C562 0.950 . S
H553 C564 0.950 . S
H554 C566 0.950 . S
H555 C567 0.950 . S
C556 H548 0.950 . S
C556 C557 1.386 . S
C556 C558 1.391 . S
C557 C556 1.386 . S
C557 C561 1.393 . S
C558 H550 0.950 . S
C558 C556 1.391 . S
C558 C559 1.400 . S
C559 C558 1.400 . S
C559 C560 1.398 . S
C559 C565 1.491 . S
C560 H551 0.950 . S
C560 C559 1.398 . S
C560 C561 1.391 . S
C561 H549 0.950 . S
C561 C557 1.393 . S
C561 C560 1.391 . S
C562 H552 0.950 . S
C562 C563 1.386 . S
C562 C564 1.391 . S
C563 C562 1.386 . S
C563 C567 1.393 . S
C564 H553 0.950 . S
C564 C562 1.391 . S
C564 C565 1.400 . S
C565 C559 1.491 . S
C565 C564 1.400 . S
C565 C566 1.398 . S
C566 H554 0.950 . S
C566 C565 1.398 . S
C566 C567 1.391 . S
C567 H555 0.950 . S
C567 C563 1.393 . S
C567 C566 1.391 . S
H568 C576 0.950 . S
H569 C581 0.950 . S
H570 C578 0.950 . S
H571 C580 0.950 . S
H572 C582 0.950 . S
H573 C584 0.950 . S
H574 C586 0.950 . S
H575 C587 0.950 . S
C576 H568 0.950 . S
C576 C577 1.386 . S
C576 C578 1.391 . S
C577 C576 1.386 . S
C577 C581 1.393 . S
C578 H570 0.950 . S
C578 C576 1.391 . S
C578 C579 1.400 . S
C579 C578 1.400 . S
C579 C580 1.398 . S
C579 C585 1.491 . S
C580 H571 0.950 . S
C580 C579 1.398 . S
C580 C581 1.391 . S
C581 H569 0.950 . S
C581 C577 1.393 . S
C581 C580 1.391 . S
C582 H572 0.950 . S
C582 C583 1.386 . S
C582 C584 1.391 . S
C583 C582 1.386 . S
C583 C587 1.393 . S
C584 H573 0.950 . S
C584 C582 1.391 . S
C584 C585 1.400 . S
C585 C579 1.491 . S
C585 C584 1.400 . S
C585 C586 1.398 . S
C586 H574 0.950 . S
C586 C585 1.398 . S
C586 C587 1.391 . S
C587 H575 0.950 . S
C587 C583 1.393 . S
C587 C586 1.391 . S
H588 C596 0.950 . S
H589 C601 0.950 . S
H590 C598 0.950 . S
H591 C600 0.950 . S
H592 C602 0.950 . S
H593 C604 0.950 . S
H594 C606 0.950 . S
H595 C607 0.950 . S
C596 H588 0.950 . S
C596 C597 1.386 . S
C596 C598 1.391 . S
C597 C596 1.386 . S
C597 C601 1.393 . S
C598 H590 0.950 . S
C598 C596 1.391 . S
C598 C599 1.400 . S
C599 C598 1.400 . S
C599 C600 1.398 . S
C599 C605 1.491 . S
C600 H591 0.950 . S
C600 C599 1.398 . S
C600 C601 1.391 . S
C601 H589 0.950 . S
C601 C597 1.393 . S
C601 C600 1.391 . S
C602 H592 0.950 . S
C602 C603 1.386 . S
C602 C604 1.391 . S
C603 C602 1.386 . S
C603 C607 1.393 . S
C604 H593 0.950 . S
C604 C602 1.391 . S
C604 C605 1.400 . S
C605 C599 1.491 . S
C605 C604 1.400 . S
C605 C606 1.398 . S
C606 H594 0.950 . S
C606 C605 1.398 . S
C606 C607 1.391 . S
C607 H595 0.950 . S
C607 C603 1.393 . S
C607 C606 1.391 . S
H608 C616 0.950 . S
H609 C621 0.950 . S
H610 C618 0.950 . S
H611 C620 0.950 . S
H612 C622 0.950 . S
H613 C624 0.950 . S
H614 C626 0.950 . S
H615 C627 0.950 . S
C616 H608 0.950 . S
C616 C617 1.386 . S
C616 C618 1.391 . S
C617 C616 1.386 . S
C617 C621 1.393 . S
C618 H610 0.950 . S
C618 C616 1.391 . S
C618 C619 1.400 . S
C619 C618 1.400 . S
C619 C620 1.398 . S
C619 C625 1.491 . S
C620 H611 0.950 . S
C620 C619 1.398 . S
C620 C621 1.391 . S
C621 H609 0.950 . S
C621 C617 1.393 . S
C621 C620 1.391 . S
C622 H612 0.950 . S
C622 C623 1.386 . S
C622 C624 1.391 . S
C623 C622 1.386 . S
C623 C627 1.393 . S
C624 H613 0.950 . S
C624 C622 1.391 . S
C624 C625 1.400 . S
C625 C619 1.491 . S
C625 C624 1.400 . S
C625 C626 1.398 . S
C626 H614 0.950 . S
C626 C625 1.398 . S
C626 C627 1.391 . S
C627 H615 0.950 . S
C627 C623 1.393 . S
C627 C626 1.391 . S
H628 C636 0.950 . S
H629 C641 0.950 . S
H630 C638 0.950 . S
H631 C640 0.950 . S
H632 C642 0.950 . S
H633 C644 0.950 . S
H634 C646 0.950 . S
H635 C647 0.950 . S
C636 H628 0.950 . S
C636 C637 1.386 . S
C636 C638 1.391 . S
C637 C636 1.386 . S
C637 C641 1.393 . S
C638 H630 0.950 . S
C638 C636 1.391 . S
C638 C639 1.400 . S
C639 C638 1.400 . S
C639 C640 1.398 . S
C639 C645 1.491 . S
C640 H631 0.950 . S
C640 C639 1.398 . S
C640 C641 1.391 . S
C641 H629 0.950 . S
C641 C637 1.393 . S
C641 C640 1.391 . S
C642 H632 0.950 . S
C642 C643 1.386 . S
C642 C644 1.391 . S
C643 C642 1.386 . S
C643 C647 1.393 . S
C644 H633 0.950 . S
C644 C642 1.391 . S
C644 C645 1.400 . S
C645 C639 1.491 . S
C645 C644 1.400 . S
C645 C646 1.398 . S
C646 H634 0.950 . S
C646 C645 1.398 . S
C646 C647 1.391 . S
C647 H635 0.950 . S
C647 C643 1.393 . S
C647 C646 1.391 . S
H648 C656 0.950 . S
H649 C661 0.950 . S
H650 C658 0.950 . S
H651 C660 0.950 . S
H652 C662 0.950 . S
H653 C664 0.950 . S
H654 C666 0.950 . S
H655 C667 0.950 . S
C656 H648 0.950 . S
C656 C657 1.386 . S
C656 C658 1.391 . S
C657 C656 1.386 . S
C657 C661 1.393 . S
C658 H650 0.950 . S
C658 C656 1.391 . S
C658 C659 1.400 . S
C659 C658 1.400 . S
C659 C660 1.398 . S
C659 C665 1.491 . S
C660 H651 0.950 . S
C660 C659 1.398 . S
C660 C661 1.391 . S
C661 H649 0.950 . S
C661 C657 1.393 . S
C661 C660 1.391 . S
C662 H652 0.950 . S
C662 C663 1.386 . S
C662 C664 1.391 . S
C663 C662 1.386 . S
C663 C667 1.393 . S
C664 H653 0.950 . S
C664 C662 1.391 . S
C664 C665 1.400 . S
C665 C659 1.491 . S
C665 C664 1.400 . S
C665 C666 1.398 . S
C666 H654 0.950 . S
C666 C665 1.398 . S
C666 C667 1.391 . S
C667 H655 0.950 . S
C667 C663 1.393 . S
C667 C666 1.391 . S
H668 C676 0.950 . S
H669 C681 0.950 . S
H670 C678 0.950 . S
H671 C680 0.950 . S
H672 C682 0.950 . S
H673 C684 0.950 . S
H674 C686 0.950 . S
H675 C687 0.950 . S
C676 H668 0.950 . S
C676 C677 1.386 . S
C676 C678 1.391 . S
C677 C676 1.386 . S
C677 C681 1.393 . S
C678 H670 0.950 . S
C678 C676 1.391 . S
C678 C679 1.400 . S
C679 C678 1.400 . S
C679 C680 1.398 . S
C679 C685 1.491 . S
C680 H671 0.950 . S
C680 C679 1.398 . S
C680 C681 1.391 . S
C681 H669 0.950 . S
C681 C677 1.393 . S
C681 C680 1.391 . S
C682 H672 0.950 . S
C682 C683 1.386 . S
C682 C684 1.391 . S
C683 C682 1.386 . S
C683 C687 1.393 . S
C684 H673 0.950 . S
C684 C682 1.391 . S
C684 C685 1.400 . S
C685 C679 1.491 . S
C685 C684 1.400 . S
C685 C686 1.398 . S
C686 H674 0.950 . S
C686 C685 1.398 . S
C686 C687 1.391 . S
C687 H675 0.950 . S
C687 C683 1.393 . S
C687 C686 1.391 . S
H688 C696 0.950 . S
H689 C701 0.950 . S
H690 C698 0.950 . S
H691 C700 0.950 . S
H692 C702 0.950 . S
H693 C704 0.950 . S
H694 C706 0.950 . S
H695 C707 0.950 . S
C696 H688 0.950 . S
C696 C697 1.386 . S
C696 C698 1.391 . S
C697 C696 1.386 . S
C697 C701 1.393 . S
C698 H690 0.950 . S
C698 C696 1.391 . S
C698 C699 1.400 . S
C699 C698 1.400 . S
C699 C700 1.398 . S
C699 C705 1.491 . S
C700 H691 0.950 . S
C700 C699 1.398 . S
C700 C701 1.391 . S
C701 H689 0.950 . S
C701 C697 1.393 . S
C701 C700 1.391 . S
C702 H692 0.950 . S
C702 C703 1.386 . S
C702 C704 1.391 . S
C703 C702 1.386 . S
C703 C707 1.393 . S
C704 H693 0.950 . S
C704 C702 1.391 . S
C704 C705 1.400 . S
C705 C699 1.491 . S
C705 C704 1.400 . S
C705 C706 1.398 . S
C706 H694 0.950 . S
C706 C705 1.398 . S
C706 C707 1.391 . S
C707 H695 0.950 . S
C707 C703 1.393 . S
C707 C706 1.391 . S
H708 C716 0.950 . S
H709 C721 0.950 . S
H710 C718 0.950 . S
H711 C720 0.950 . S
H712 C722 0.950 . S
H713 C724 0.950 . S
H714 C726 0.950 . S
H715 C727 0.950 . S
C716 H708 0.950 . S
C716 C717 1.386 . S
C716 C718 1.391 . S
C717 C716 1.386 . S
C717 C721 1.393 . S
C718 H710 0.950 . S
C718 C716 1.391 . S
C718 C719 1.400 . S
C719 C718 1.400 . S
C719 C720 1.398 . S
C719 C725 1.491 . S
C720 H711 0.950 . S
C720 C719 1.398 . S
C720 C721 1.391 . S
C721 H709 0.950 . S
C721 C717 1.393 . S
C721 C720 1.391 . S
C722 H712 0.950 . S
C722 C723 1.386 . S
C722 C724 1.391 . S
C723 C722 1.386 . S
C723 C727 1.393 . S
C724 H713 0.950 . S
C724 C722 1.391 . S
C724 C725 1.400 . S
C725 C719 1.491 . S
C725 C724 1.400 . S
C725 C726 1.398 . S
C726 H714 0.950 . S
C726 C725 1.398 . S
C726 C727 1.391 . S
C727 H715 0.950 . S
C727 C723 1.393 . S
C727 C726 1.391 . S
H728 C736 0.950 . S
H729 C741 0.950 . S
H730 C738 0.950 . S
H731 C740 0.950 . S
H732 C742 0.950 . S
H733 C744 0.950 . S
H734 C746 0.950 . S
H735 C747 0.950 . S
C736 H728 0.950 . S
C736 C737 1.386 . S
C736 C738 1.391 . S
C737 C736 1.386 . S
C737 C741 1.393 . S
C738 H730 0.950 . S
C738 C736 1.391 . S
C738 C739 1.400 . S
C739 C738 1.400 . S
C739 C740 1.398 . S
C739 C745 1.491 . S
C740 H731 0.950 . S
C740 C739 1.398 . S
C740 C741 1.391 . S
C741 H729 0.950 . S
C741 C737 1.393 . S
C741 C740 1.391 . S
C742 H732 0.950 . S
C742 C743 1.386 . S
C742 C744 1.391 . S
C743 C742 1.386 . S
C743 C747 1.393 . S
C744 H733 0.950 . S
C744 C742 1.391 . S
C744 C745 1.400 . S
C745 C739 1.491 . S
C745 C744 1.400 . S
C745 C746 1.398 . S
C746 H734 0.950 . S
C746 C745 1.398 . S
C746 C747 1.391 . S
C747 H735 0.950 . S
C747 C743 1.393 . S
C747 C746 1.391 . S
H748 C756 0.950 . S
H749 C761 0.950 . S
H750 C758 0.950 . S
H751 C760 0.950 . S
H752 C762 0.950 . S
H753 C764 0.950 . S
H754 C766 0.950 . S
H755 C767 0.950 . S
C756 H748 0.950 . S
C756 C757 1.386 . S
C756 C758 1.391 . S
C757 C756 1.386 . S
C757 C761 1.393 . S
C758 H750 0.950 . S
C758 C756 1.391 . S
C758 C759 1.400 . S
C759 C758 1.400 . S
C759 C760 1.398 . S
C759 C765 1.491 . S
C760 H751 0.950 . S
C760 C759 1.398 . S
C760 C761 1.391 . S
C761 H749 0.950 . S
C761 C757 1.393 . S
C761 C760 1.391 . S
C762 H752 0.950 . S
C762 C763 1.386 . S
C762 C764 1.391 . S
C763 C762 1.386 . S
C763 C767 1.393 . S
C764 H753 0.950 . S
C764 C762 1.391 . S
C764 C765 1.400 . S
C765 C759 1.491 . S
C765 C764 1.400 . S
C765 C766 1.398 . S
C766 H754 0.950 . S
C766 C765 1.398 . S
C766 C767 1.391 . S
C767 H755 0.950 . S
C767 C763 1.393 . S
C767 C766 1.391 . S
H768 C776 0.950 . S
H769 C781 0.950 . S
H770 C778 0.950 . S
H771 C780 0.950 1_565 S
H772 C782 0.950 . S
H773 C784 0.950 . S
H774 C786 0.950 1_545 S
H775 C787 0.950 . S
C776 H768 0.950 . S
C776 C777 1.386 . S
C776 C778 1.391 . S
C777 C776 1.386 . S
C777 C781 1.393 . S
C778 H770 0.950 . S
C778 C776 1.391 . S
C778 C779 1.400 . S
C779 C778 1.400 . S
C779 C780 1.398 . S
C779 C785 1.491 1_545 S
C780 H771 0.950 1_545 S
C780 C779 1.398 . S
C780 C781 1.391 . S
C781 H769 0.950 . S
C781 C777 1.393 . S
C781 C780 1.391 . S
C782 H772 0.950 . S
C782 C783 1.386 . S
C782 C784 1.391 . S
C783 C782 1.386 . S
C783 C787 1.393 . S
C784 H773 0.950 . S
C784 C782 1.391 . S
C784 C785 1.400 . S
C785 C779 1.491 1_565 S
C785 C784 1.400 . S
C785 C786 1.398 . S
C786 H774 0.950 1_565 S
C786 C785 1.398 . S
C786 C787 1.391 . S
C787 H775 0.950 . S
C787 C783 1.393 . S
C787 C786 1.391 . S
H788 C796 0.950 . S
H789 C801 0.950 . S
H790 C798 0.950 . S
H791 C800 0.950 . S
H792 C802 0.950 . S
H793 C804 0.950 . S
H794 C806 0.950 . S
H795 C807 0.950 . S
C796 H788 0.950 . S
C796 C797 1.386 . S
C796 C798 1.391 . S
C797 C796 1.386 . S
C797 C801 1.393 . S
C798 H790 0.950 . S
C798 C796 1.391 . S
C798 C799 1.400 . S
C799 C798 1.400 . S
C799 C800 1.398 . S
C799 C805 1.491 . S
C800 H791 0.950 . S
C800 C799 1.398 . S
C800 C801 1.391 . S
C801 H789 0.950 . S
C801 C797 1.393 . S
C801 C800 1.391 . S
C802 H792 0.950 . S
C802 C803 1.386 . S
C802 C804 1.391 . S
C803 C802 1.386 . S
C803 C807 1.393 . S
C804 H793 0.950 . S
C804 C802 1.391 . S
C804 C805 1.400 . S
C805 C799 1.491 . S
C805 C804 1.400 . S
C805 C806 1.398 . S
C806 H794 0.950 . S
C806 C805 1.398 . S
C806 C807 1.391 . S
C807 H795 0.950 . S
C807 C803 1.393 . S
C807 C806 1.391 . S
H808 C816 0.950 . S
H809 C821 0.950 . S
H810 C818 0.950 . S
H811 C820 0.950 . S
H812 C822 0.950 . S
H813 C824 0.950 . S
H814 C826 0.950 . S
H815 C827 0.950 . S
C816 H808 0.950 . S
C816 C817 1.386 . S
C816 C818 1.391 1_655 S
C817 C816 1.386 . S
C817 C821 1.393 . S
C818 H810 0.950 . S
C818 C816 1.391 1_455 S
C818 C819 1.400 1_455 S
C819 C818 1.400 1_655 S
C819 C820 1.398 . S
C819 C825 1.491 1_655 S
C820 H811 0.950 . S
C820 C819 1.398 . S
C820 C821 1.391 . S
C821 H809 0.950 . S
C821 C817 1.393 . S
C821 C820 1.391 . S
C822 H812 0.950 . S
C822 C823 1.386 . S
C822 C824 1.391 1_455 S
C823 C822 1.386 . S
C823 C827 1.393 . S
C824 H813 0.950 . S
C824 C822 1.391 1_655 S
C824 C825 1.400 1_655 S
C825 C819 1.491 1_455 S
C825 C824 1.400 1_455 S
C825 C826 1.398 . S
C826 H814 0.950 . S
C826 C825 1.398 . S
C826 C827 1.391 . S
C827 H815 0.950 . S
C827 C823 1.393 . S
C827 C826 1.391 . S
H828 C836 0.950 . S
H829 C841 0.950 . S
H830 C838 0.950 . S
H831 C840 0.950 1_455 S
H832 C842 0.950 . S
H833 C844 0.950 . S
H834 C846 0.950 1_655 S
H835 C847 0.950 . S
C836 H828 0.950 . S
C836 C837 1.386 . S
C836 C838 1.391 . S
C837 C836 1.386 . S
C837 C841 1.393 . S
C838 H830 0.950 . S
C838 C836 1.391 . S
C838 C839 1.400 . S
C839 C838 1.400 . S
C839 C840 1.398 . S
C839 C845 1.491 1_655 S
C840 H831 0.950 1_655 S
C840 C839 1.398 . S
C840 C841 1.391 . S
C841 H829 0.950 . S
C841 C837 1.393 . S
C841 C840 1.391 . S
C842 H832 0.950 . S
C842 C843 1.386 . S
C842 C844 1.391 . S
C843 C842 1.386 . S
C843 C847 1.393 . S
C844 H833 0.950 . S
C844 C842 1.391 . S
C844 C845 1.400 . S
C845 C839 1.491 1_455 S
C845 C844 1.400 . S
C845 C846 1.398 . S
C846 H834 0.950 1_455 S
C846 C845 1.398 . S
C846 C847 1.391 . S
C847 H835 0.950 . S
C847 C843 1.393 . S
C847 C846 1.391 . S
H848 C856 0.950 . S
H849 C861 0.950 . S
H850 C858 0.950 . S
H851 C860 0.950 . S
H852 C862 0.950 . S
H853 C864 0.950 . S
H854 C866 0.950 . S
H855 C867 0.950 . S
C856 H848 0.950 . S
C856 C857 1.386 . S
C856 C858 1.391 . S
C857 C856 1.386 . S
C857 C861 1.393 . S
C858 H850 0.950 . S
C858 C856 1.391 . S
C858 C859 1.400 . S
C859 C858 1.400 . S
C859 C860 1.398 . S
C859 C865 1.491 1_565 S
C860 H851 0.950 . S
C860 C859 1.398 . S
C860 C861 1.391 . S
C861 H849 0.950 . S
C861 C857 1.393 . S
C861 C860 1.391 . S
C862 H852 0.950 . S
C862 C863 1.386 . S
C862 C864 1.391 . S
C863 C862 1.386 . S
C863 C867 1.393 . S
C864 H853 0.950 . S
C864 C862 1.391 . S
C864 C865 1.400 . S
C865 C859 1.491 1_545 S
C865 C864 1.400 . S
C865 C866 1.398 . S
C866 H854 0.950 . S
C866 C865 1.398 . S
C866 C867 1.391 . S
C867 H855 0.950 . S
C867 C863 1.393 . S
C867 C866 1.391 . S
H868 C876 0.950 . S
H869 C881 0.950 . S
H870 C878 0.950 . S
H871 C880 0.950 . S
H872 C882 0.950 . S
H873 C884 0.950 . S
H874 C886 0.950 . S
H875 C887 0.950 . S
C876 H868 0.950 . S
C876 C877 1.386 . S
C876 C878 1.391 . S
C877 C876 1.386 . S
C877 C881 1.393 . S
C878 H870 0.950 . S
C878 C876 1.391 . S
C878 C879 1.400 . S
C879 C878 1.400 . S
C879 C880 1.398 . S
C879 C885 1.491 . S
C880 H871 0.950 . S
C880 C879 1.398 . S
C880 C881 1.391 . S
C881 H869 0.950 . S
C881 C877 1.393 . S
C881 C880 1.391 . S
C882 H872 0.950 . S
C882 C883 1.386 . S
C882 C884 1.391 . S
C883 C882 1.386 . S
C883 C887 1.393 . S
C884 H873 0.950 . S
C884 C882 1.391 . S
C884 C885 1.400 . S
C885 C879 1.491 . S
C885 C884 1.400 . S
C885 C886 1.398 . S
C886 H874 0.950 . S
C886 C885 1.398 . S
C886 C887 1.391 . S
C887 H875 0.950 . S
C887 C883 1.393 . S
C887 C886 1.391 . S
H888 C896 0.950 . S
H889 C901 0.950 . S
H890 C898 0.950 1_565 S
H891 C900 0.950 . S
H892 C902 0.950 . S
H893 C904 0.950 1_545 S
H894 C906 0.950 . S
H895 C907 0.950 . S
C896 H888 0.950 . S
C896 C897 1.386 . S
C896 C898 1.391 . S
C897 C896 1.386 . S
C897 C901 1.393 . S
C898 H890 0.950 1_545 S
C898 C896 1.391 . S
C898 C899 1.400 . S
C899 C898 1.400 . S
C899 C900 1.398 . S
C899 C905 1.491 1_545 S
C900 H891 0.950 . S
C900 C899 1.398 . S
C900 C901 1.391 . S
C901 H889 0.950 . S
C901 C897 1.393 . S
C901 C900 1.391 . S
C902 H892 0.950 . S
C902 C903 1.386 . S
C902 C904 1.391 . S
C903 C902 1.386 . S
C903 C907 1.393 . S
C904 H893 0.950 1_565 S
C904 C902 1.391 . S
C904 C905 1.400 . S
C905 C899 1.491 1_565 S
C905 C904 1.400 . S
C905 C906 1.398 . S
C906 H894 0.950 . S
C906 C905 1.398 . S
C906 C907 1.391 . S
C907 H895 0.950 . S
C907 C903 1.393 . S
C907 C906 1.391 . S
H908 C916 0.950 . S
H909 C921 0.950 . S
H910 C918 0.950 . S
H911 C920 0.950 . S
H912 C922 0.950 . S
H913 C924 0.950 . S
H914 C926 0.950 . S
H915 C927 0.950 . S
C916 H908 0.950 . S
C916 C917 1.386 . S
C916 C918 1.391 . S
C917 C916 1.386 . S
C917 C921 1.393 . S
C918 H910 0.950 . S
C918 C916 1.391 . S
C918 C919 1.400 . S
C919 C918 1.400 . S
C919 C920 1.398 . S
C919 C925 1.491 . S
C920 H911 0.950 . S
C920 C919 1.398 . S
C920 C921 1.391 . S
C921 H909 0.950 . S
C921 C917 1.393 . S
C921 C920 1.391 . S
C922 H912 0.950 . S
C922 C923 1.386 . S
C922 C924 1.391 . S
C923 C922 1.386 . S
C923 C927 1.393 . S
C924 H913 0.950 . S
C924 C922 1.391 . S
C924 C925 1.400 . S
C925 C919 1.491 . S
C925 C924 1.400 . S
C925 C926 1.398 . S
C926 H914 0.950 . S
C926 C925 1.398 . S
C926 C927 1.391 . S
C927 H915 0.950 . S
C927 C923 1.393 . S
C927 C926 1.391 . S
H928 C936 0.950 . S
H929 C941 0.950 . S
H930 C938 0.950 . S
H931 C940 0.978 . S
H932 C942 0.950 . S
H933 C944 0.950 . S
H934 C946 0.978 . S
H935 C947 0.950 . S
C936 H928 0.950 . S
C936 C937 1.386 . S
C936 C938 1.391 . S
C937 C936 1.386 . S
C937 C941 1.393 . S
C938 H930 0.950 . S
C938 C936 1.391 . S
C938 C939 1.400 . S
C939 C938 1.400 . S
C939 C940 1.375 1_655 S
C939 C945 1.491 1_655 S
C940 H931 0.978 . S
C940 C939 1.375 1_455 S
C940 C941 1.387 1_455 S
C941 H929 0.950 . S
C941 C937 1.393 . S
C941 C940 1.387 1_655 S
C942 H932 0.950 . S
C942 C943 1.386 . S
C942 C944 1.391 . S
C943 C942 1.386 . S
C943 C947 1.393 . S
C944 H933 0.950 . S
C944 C942 1.391 . S
C944 C945 1.400 . S
C945 C939 1.491 1_455 S
C945 C944 1.400 . S
C945 C946 1.375 1_455 S
C946 H934 0.978 . S
C946 C945 1.375 1_655 S
C946 C947 1.387 1_655 S
C947 H935 0.950 . S
C947 C943 1.393 . S
C947 C946 1.387 1_455 S
H948 C956 0.950 . S
H949 C961 0.950 . S
H950 C958 0.950 1_655 S
H951 C960 0.950 . S
H952 C962 0.950 . S
H953 C964 0.950 1_455 S
H954 C966 0.950 . S
H955 C967 0.950 . S
C956 H948 0.950 . S
C956 C957 1.386 . S
C956 C958 1.391 . S
C957 C956 1.386 . S
C957 C961 1.393 . S
C958 H950 0.950 1_455 S
C958 C956 1.391 . S
C958 C959 1.400 . S
C959 C958 1.400 . S
C959 C960 1.398 . S
C959 C965 1.491 1_455 S
C960 H951 0.950 . S
C960 C959 1.398 . S
C960 C961 1.391 . S
C961 H949 0.950 . S
C961 C957 1.393 . S
C961 C960 1.391 . S
C962 H952 0.950 . S
C962 C963 1.386 . S
C962 C964 1.391 . S
C963 C962 1.386 . S
C963 C967 1.393 . S
C964 H953 0.950 1_655 S
C964 C962 1.391 . S
C964 C965 1.400 . S
C965 C959 1.491 1_655 S
C965 C964 1.400 . S
C965 C966 1.398 . S
C966 H954 0.950 . S
C966 C965 1.398 . S
C966 C967 1.391 . S
C967 H955 0.950 . S
C967 C963 1.393 . S
C967 C966 1.391 . S
H968 C976 0.950 . S
H969 C981 0.950 . S
H970 C978 0.950 . S
H971 C980 0.971 . S
H972 C982 0.950 . S
H973 C984 0.950 . S
H974 C986 0.971 . S
H975 C987 0.950 . S
C976 H968 0.950 . S
C976 C977 1.386 . S
C976 C978 1.391 . S
C977 C976 1.386 . S
C977 C981 1.393 . S
C978 H970 0.950 . S
C978 C976 1.391 . S
C978 C979 1.400 . S
C979 C978 1.400 . S
C979 C980 1.381 1_545 S
C979 C985 1.491 1_545 S
C980 H971 0.971 . S
C980 C979 1.381 1_565 S
C980 C981 1.388 1_565 S
C981 H969 0.950 . S
C981 C977 1.393 . S
C981 C980 1.388 1_545 S
C982 H972 0.950 . S
C982 C983 1.386 . S
C982 C984 1.391 . S
C983 C982 1.386 . S
C983 C987 1.393 . S
C984 H973 0.950 . S
C984 C982 1.391 . S
C984 C985 1.400 . S
C985 C979 1.491 1_565 S
C985 C984 1.400 . S
C985 C986 1.381 1_565 S
C986 H974 0.971 . S
C986 C985 1.381 1_545 S
C986 C987 1.388 1_545 S
C987 H975 0.950 . S
C987 C983 1.393 . S
C987 C986 1.388 1_565 S
H988 C996 0.950 . S
H989 C1001 0.950 . S
H990 C998 0.950 . S
H991 C1000 0.950 . S
H992 C1002 0.950 . S
H993 C1004 0.950 . S
H994 C1006 0.950 . S
H995 C1007 0.950 . S
C996 H988 0.950 . S
C996 C997 1.386 . S
C996 C998 1.391 . S
C997 C996 1.386 . S
C997 C1001 1.393 . S
C998 H990 0.950 . S
C998 C996 1.391 . S
C998 C999 1.400 . S
C999 C998 1.400 . S
C999 C1000 1.398 . S
C999 C1005 1.491 . S
C1000 H991 0.950 . S
C1000 C999 1.398 . S
C1000 C1001 1.391 . S
C1001 H989 0.950 . S
C1001 C997 1.393 . S
C1001 C1000 1.391 . S
C1002 H992 0.950 . S
C1002 C1003 1.386 . S
C1002 C1004 1.391 . S
C1003 C1002 1.386 . S
C1003 C1007 1.393 . S
C1004 H993 0.950 . S
C1004 C1002 1.391 . S
C1004 C1005 1.400 . S
C1005 C999 1.491 . S
C1005 C1004 1.400 . S
C1005 C1006 1.398 . S
C1006 H994 0.950 . S
C1006 C1005 1.398 . S
C1006 C1007 1.391 . S
C1007 H995 0.950 . S
C1007 C1003 1.393 . S
C1007 C1006 1.391 . S
H1008 C1016 0.950 . S
H1009 C1021 0.950 . S
H1010 C1018 0.950 . S
H1011 C1020 0.950 . S
H1012 C1022 0.950 . S
H1013 C1024 0.950 . S
H1014 C1026 0.950 . S
H1015 C1027 0.950 . S
C1016 H1008 0.950 . S
C1016 C1017 1.386 . S
C1016 C1018 1.391 . S
C1017 C1016 1.386 . S
C1017 C1021 1.393 . S
C1018 H1010 0.950 . S
C1018 C1016 1.391 . S
C1018 C1019 1.400 . S
C1019 C1018 1.400 . S
C1019 C1020 1.398 . S
C1019 C1025 1.491 . S
C1020 H1011 0.950 . S
C1020 C1019 1.398 . S
C1020 C1021 1.391 . S
C1021 H1009 0.950 . S
C1021 C1017 1.393 . S
C1021 C1020 1.391 . S
C1022 H1012 0.950 . S
C1022 C1023 1.386 . S
C1022 C1024 1.391 . S
C1023 C1022 1.386 . S
C1023 C1027 1.393 . S
C1024 H1013 0.950 . S
C1024 C1022 1.391 . S
C1024 C1025 1.400 . S
C1025 C1019 1.491 . S
C1025 C1024 1.400 . S
C1025 C1026 1.398 . S
C1026 H1014 0.950 . S
C1026 C1025 1.398 . S
C1026 C1027 1.391 . S
C1027 H1015 0.950 . S
C1027 C1023 1.393 . S
C1027 C1026 1.391 . S
H1028 C1036 0.950 . S
H1029 C1041 0.950 . S
H1030 C1038 0.950 . S
H1031 C1040 0.950 . S
H1032 C1042 0.950 . S
H1033 C1044 0.950 . S
H1034 C1046 0.950 . S
H1035 C1047 0.950 . S
C1036 H1028 0.950 . S
C1036 C1037 1.386 . S
C1036 C1038 1.391 . S
C1037 C1036 1.386 . S
C1037 C1041 1.393 . S
C1038 H1030 0.950 . S
C1038 C1036 1.391 . S
C1038 C1039 1.400 . S
C1039 C1038 1.400 . S
C1039 C1040 1.398 . S
C1039 C1045 1.491 . S
C1040 H1031 0.950 . S
C1040 C1039 1.398 . S
C1040 C1041 1.391 . S
C1041 H1029 0.950 . S
C1041 C1037 1.393 . S
C1041 C1040 1.391 . S
C1042 H1032 0.950 . S
C1042 C1043 1.386 . S
C1042 C1044 1.391 . S
C1043 C1042 1.386 . S
C1043 C1047 1.393 . S
C1044 H1033 0.950 . S
C1044 C1042 1.391 . S
C1044 C1045 1.400 . S
C1045 C1039 1.491 . S
C1045 C1044 1.400 . S
C1045 C1046 1.398 . S
C1046 H1034 0.950 . S
C1046 C1045 1.398 . S
C1046 C1047 1.391 . S
C1047 H1035 0.950 . S
C1047 C1043 1.393 . S
C1047 C1046 1.391 . S
H1048 C1056 0.950 . S
H1049 C1061 0.950 . S
H1050 C1058 0.950 . S
H1051 C1060 0.950 . S
H1052 C1062 0.950 . S
H1053 C1064 0.950 . S
H1054 C1066 0.950 . S
H1055 C1067 0.950 . S
C1056 H1048 0.950 . S
C1056 C1057 1.386 . S
C1056 C1058 1.391 . S
C1057 C1056 1.386 . S
C1057 C1061 1.393 . S
C1058 H1050 0.950 . S
C1058 C1056 1.391 . S
C1058 C1059 1.400 . S
C1059 C1058 1.400 . S
C1059 C1060 1.398 . S
C1059 C1065 1.491 . S
C1060 H1051 0.950 . S
C1060 C1059 1.398 . S
C1060 C1061 1.391 . S
C1061 H1049 0.950 . S
C1061 C1057 1.393 . S
C1061 C1060 1.391 . S
C1062 H1052 0.950 . S
C1062 C1063 1.386 . S
C1062 C1064 1.391 . S
C1063 C1062 1.386 . S
C1063 C1067 1.393 . S
C1064 H1053 0.950 . S
C1064 C1062 1.391 . S
C1064 C1065 1.400 . S
C1065 C1059 1.491 . S
C1065 C1064 1.400 . S
C1065 C1066 1.398 . S
C1066 H1054 0.950 . S
C1066 C1065 1.398 . S
C1066 C1067 1.391 . S
C1067 H1055 0.950 . S
C1067 C1063 1.393 . S
C1067 C1066 1.391 . S
H1068 C1076 0.950 . S
H1069 C1081 0.950 . S
H1070 C1078 0.950 . S
H1071 C1080 0.950 . S
H1072 C1082 0.950 . S
H1073 C1084 0.950 . S
H1074 C1086 0.950 . S
H1075 C1087 0.950 . S
C1076 H1068 0.950 . S
C1076 C1077 1.386 . S
C1076 C1078 1.391 . S
C1077 C1076 1.386 . S
C1077 C1081 1.393 . S
C1078 H1070 0.950 . S
C1078 C1076 1.391 . S
C1078 C1079 1.400 . S
C1079 C1078 1.400 . S
C1079 C1080 1.398 . S
C1079 C1085 1.491 . S
C1080 H1071 0.950 . S
C1080 C1079 1.398 . S
C1080 C1081 1.391 . S
C1081 H1069 0.950 . S
C1081 C1077 1.393 . S
C1081 C1080 1.391 . S
C1082 H1072 0.950 . S
C1082 C1083 1.386 . S
C1082 C1084 1.391 . S
C1083 C1082 1.386 . S
C1083 C1087 1.393 . S
C1084 H1073 0.950 . S
C1084 C1082 1.391 . S
C1084 C1085 1.400 . S
C1085 C1079 1.491 . S
C1085 C1084 1.400 . S
C1085 C1086 1.398 . S
C1086 H1074 0.950 . S
C1086 C1085 1.398 . S
C1086 C1087 1.391 . S
C1087 H1075 0.950 . S
C1087 C1083 1.393 . S
C1087 C1086 1.391 . S
H1088 C1096 0.950 . S
H1089 C1101 0.950 . S
H1090 C1098 0.950 . S
H1091 C1100 0.950 . S
H1092 C1102 0.950 . S
H1093 C1104 0.950 . S
H1094 C1106 0.950 . S
H1095 C1107 0.950 . S
C1096 H1088 0.950 . S
C1096 C1097 1.386 . S
C1096 C1098 1.391 . S
C1097 C1096 1.386 . S
C1097 C1101 1.393 . S
C1098 H1090 0.950 . S
C1098 C1096 1.391 . S
C1098 C1099 1.400 . S
C1099 C1098 1.400 . S
C1099 C1100 1.398 . S
C1099 C1105 1.491 . S
C1100 H1091 0.950 . S
C1100 C1099 1.398 . S
C1100 C1101 1.391 . S
C1101 H1089 0.950 . S
C1101 C1097 1.393 . S
C1101 C1100 1.391 . S
C1102 H1092 0.950 . S
C1102 C1103 1.386 . S
C1102 C1104 1.391 . S
C1103 C1102 1.386 . S
C1103 C1107 1.393 . S
C1104 H1093 0.950 . S
C1104 C1102 1.391 . S
C1104 C1105 1.400 . S
C1105 C1099 1.491 . S
C1105 C1104 1.400 . S
C1105 C1106 1.398 . S
C1106 H1094 0.950 . S
C1106 C1105 1.398 . S
C1106 C1107 1.391 . S
C1107 H1095 0.950 . S
C1107 C1103 1.393 . S
C1107 C1106 1.391 . S
H1108 C1116 0.950 . S
H1109 C1121 0.950 . S
H1110 C1118 0.950 . S
H1111 C1120 0.950 . S
H1112 C1122 0.950 . S
H1113 C1124 0.950 . S
H1114 C1126 0.950 . S
H1115 C1127 0.950 . S
C1116 H1108 0.950 . S
C1116 C1117 1.386 . S
C1116 C1118 1.391 . S
C1117 C1116 1.386 . S
C1117 C1121 1.393 . S
C1118 H1110 0.950 . S
C1118 C1116 1.391 . S
C1118 C1119 1.400 . S
C1119 C1118 1.400 . S
C1119 C1120 1.398 . S
C1119 C1125 1.491 . S
C1120 H1111 0.950 . S
C1120 C1119 1.398 . S
C1120 C1121 1.391 . S
C1121 H1109 0.950 . S
C1121 C1117 1.393 . S
C1121 C1120 1.391 . S
C1122 H1112 0.950 . S
C1122 C1123 1.386 . S
C1122 C1124 1.391 . S
C1123 C1122 1.386 . S
C1123 C1127 1.393 . S
C1124 H1113 0.950 . S
C1124 C1122 1.391 . S
C1124 C1125 1.400 . S
C1125 C1119 1.491 . S
C1125 C1124 1.400 . S
C1125 C1126 1.398 . S
C1126 H1114 0.950 . S
C1126 C1125 1.398 . S
C1126 C1127 1.391 . S
C1127 H1115 0.950 . S
C1127 C1123 1.393 . S
C1127 C1126 1.391 . S
H1128 C1136 0.950 . S
H1129 C1141 0.950 . S
H1130 C1138 0.950 . S
H1131 C1140 0.950 . S
H1132 C1142 0.950 . S
H1133 C1144 0.950 . S
H1134 C1146 0.950 . S
H1135 C1147 0.950 . S
C1136 H1128 0.950 . S
C1136 C1137 1.386 . S
C1136 C1138 1.391 . S
C1137 C1136 1.386 . S
C1137 C1141 1.393 . S
C1138 H1130 0.950 . S
C1138 C1136 1.391 . S
C1138 C1139 1.400 . S
C1139 C1138 1.400 . S
C1139 C1140 1.398 . S
C1139 C1145 1.491 . S
C1140 H1131 0.950 . S
C1140 C1139 1.398 . S
C1140 C1141 1.391 . S
C1141 H1129 0.950 . S
C1141 C1137 1.393 . S
C1141 C1140 1.391 . S
C1142 H1132 0.950 . S
C1142 C1143 1.386 . S
C1142 C1144 1.391 . S
C1143 C1142 1.386 . S
C1143 C1147 1.393 . S
C1144 H1133 0.950 . S
C1144 C1142 1.391 . S
C1144 C1145 1.400 . S
C1145 C1139 1.491 . S
C1145 C1144 1.400 . S
C1145 C1146 1.398 . S
C1146 H1134 0.950 . S
C1146 C1145 1.398 . S
C1146 C1147 1.391 . S
C1147 H1135 0.950 . S
C1147 C1143 1.393 . S
C1147 C1146 1.391 . S
H1148 C1156 0.950 . S
H1149 C1161 0.950 . S
H1150 C1158 0.950 . S
H1151 C1160 0.950 . S
H1152 C1162 0.950 . S
H1153 C1164 0.950 . S
H1154 C1166 0.950 . S
H1155 C1167 0.950 . S
C1156 H1148 0.950 . S
C1156 C1157 1.386 . S
C1156 C1158 1.391 . S
C1157 C1156 1.386 . S
C1157 C1161 1.393 . S
C1158 H1150 0.950 . S
C1158 C1156 1.391 . S
C1158 C1159 1.400 . S
C1159 C1158 1.400 . S
C1159 C1160 1.398 . S
C1159 C1165 1.491 . S
C1160 H1151 0.950 . S
C1160 C1159 1.398 . S
C1160 C1161 1.391 . S
C1161 H1149 0.950 . S
C1161 C1157 1.393 . S
C1161 C1160 1.391 . S
C1162 H1152 0.950 . S
C1162 C1163 1.386 . S
C1162 C1164 1.391 . S
C1163 C1162 1.386 . S
C1163 C1167 1.393 . S
C1164 H1153 0.950 . S
C1164 C1162 1.391 . S
C1164 C1165 1.400 . S
C1165 C1159 1.491 . S
C1165 C1164 1.400 . S
C1165 C1166 1.398 . S
C1166 H1154 0.950 . S
C1166 C1165 1.398 . S
C1166 C1167 1.391 . S
C1167 H1155 0.950 . S
C1167 C1163 1.393 . S
C1167 C1166 1.391 . S
H1168 C1176 0.950 . S
H1169 C1181 0.950 . S
H1170 C1178 0.950 . S
H1171 C1180 0.950 . S
H1172 C1182 0.950 . S
H1173 C1184 0.950 . S
H1174 C1186 0.950 . S
H1175 C1187 0.950 . S
C1176 H1168 0.950 . S
C1176 C1177 1.386 . S
C1176 C1178 1.391 . S
C1177 C1176 1.386 . S
C1177 C1181 1.393 . S
C1178 H1170 0.950 . S
C1178 C1176 1.391 . S
C1178 C1179 1.400 . S
C1179 C1178 1.400 . S
C1179 C1180 1.398 . S
C1179 C1185 1.491 . S
C1180 H1171 0.950 . S
C1180 C1179 1.398 . S
C1180 C1181 1.391 . S
C1181 H1169 0.950 . S
C1181 C1177 1.393 . S
C1181 C1180 1.391 . S
C1182 H1172 0.950 . S
C1182 C1183 1.386 . S
C1182 C1184 1.391 . S
C1183 C1182 1.386 . S
C1183 C1187 1.393 . S
C1184 H1173 0.950 . S
C1184 C1182 1.391 . S
C1184 C1185 1.400 . S
C1185 C1179 1.491 . S
C1185 C1184 1.400 . S
C1185 C1186 1.398 . S
C1186 H1174 0.950 . S
C1186 C1185 1.398 . S
C1186 C1187 1.391 . S
C1187 H1175 0.950 . S
C1187 C1183 1.393 . S
C1187 C1186 1.391 . S
H1188 C1196 0.950 . S
H1189 C1201 0.950 . S
H1190 C1198 0.950 . S
H1191 C1200 0.950 . S
H1192 C1202 0.950 . S
H1193 C1204 0.950 . S
H1194 C1206 0.950 . S
H1195 C1207 0.950 . S
C1196 H1188 0.950 . S
C1196 C1197 1.386 . S
C1196 C1198 1.391 . S
C1197 C1196 1.386 . S
C1197 C1201 1.393 . S
C1198 H1190 0.950 . S
C1198 C1196 1.391 . S
C1198 C1199 1.400 . S
C1199 C1198 1.400 . S
C1199 C1200 1.398 . S
C1199 C1205 1.491 . S
C1200 H1191 0.950 . S
C1200 C1199 1.398 . S
C1200 C1201 1.391 . S
C1201 H1189 0.950 . S
C1201 C1197 1.393 . S
C1201 C1200 1.391 . S
C1202 H1192 0.950 . S
C1202 C1203 1.386 . S
C1202 C1204 1.391 . S
C1203 C1202 1.386 . S
C1203 C1207 1.393 . S
C1204 H1193 0.950 . S
C1204 C1202 1.391 . S
C1204 C1205 1.400 . S
C1205 C1199 1.491 . S
C1205 C1204 1.400 . S
C1205 C1206 1.398 . S
C1206 H1194 0.950 . S
C1206 C1205 1.398 . S
C1206 C1207 1.391 . S
C1207 H1195 0.950 . S
C1207 C1203 1.393 . S
C1207 C1206 1.391 . S
H1208 C1216 0.950 . S
H1209 C1221 0.950 . S
H1210 C1218 0.950 . S
H1211 C1220 0.950 . S
H1212 C1222 0.950 . S
H1213 C1224 0.950 . S
H1214 C1226 0.950 . S
H1215 C1227 0.950 . S
C1216 H1208 0.950 . S
C1216 C1217 1.386 . S
C1216 C1218 1.391 . S
C1217 C1216 1.386 . S
C1217 C1221 1.393 . S
C1218 H1210 0.950 . S
C1218 C1216 1.391 . S
C1218 C1219 1.400 . S
C1219 C1218 1.400 . S
C1219 C1220 1.398 . S
C1219 C1225 1.491 . S
C1220 H1211 0.950 . S
C1220 C1219 1.398 . S
C1220 C1221 1.391 . S
C1221 H1209 0.950 . S
C1221 C1217 1.393 . S
C1221 C1220 1.391 . S
C1222 H1212 0.950 . S
C1222 C1223 1.386 . S
C1222 C1224 1.391 . S
C1223 C1222 1.386 . S
C1223 C1227 1.393 . S
C1224 H1213 0.950 . S
C1224 C1222 1.391 . S
C1224 C1225 1.400 . S
C1225 C1219 1.491 . S
C1225 C1224 1.400 . S
C1225 C1226 1.398 . S
C1226 H1214 0.950 . S
C1226 C1225 1.398 . S
C1226 C1227 1.391 . S
C1227 H1215 0.950 . S
C1227 C1223 1.393 . S
C1227 C1226 1.391 . S
H1228 C1236 0.950 . S
H1229 C1241 0.950 . S
H1230 C1238 0.950 . S
H1231 C1240 0.950 . S
H1232 C1242 0.950 . S
H1233 C1244 0.950 . S
H1234 C1246 0.950 . S
H1235 C1247 0.950 . S
C1236 H1228 0.950 . S
C1236 C1237 1.386 . S
C1236 C1238 1.391 . S
C1237 C1236 1.386 . S
C1237 C1241 1.393 . S
C1238 H1230 0.950 . S
C1238 C1236 1.391 . S
C1238 C1239 1.400 . S
C1239 C1238 1.400 . S
C1239 C1240 1.398 . S
C1239 C1245 1.491 . S
C1240 H1231 0.950 . S
C1240 C1239 1.398 . S
C1240 C1241 1.391 . S
C1241 H1229 0.950 . S
C1241 C1237 1.393 . S
C1241 C1240 1.391 . S
C1242 H1232 0.950 . S
C1242 C1243 1.386 . S
C1242 C1244 1.391 . S
C1243 C1242 1.386 . S
C1243 C1247 1.393 . S
C1244 H1233 0.950 . S
C1244 C1242 1.391 . S
C1244 C1245 1.400 . S
C1245 C1239 1.491 . S
C1245 C1244 1.400 . S
C1245 C1246 1.398 . S
C1246 H1234 0.950 . S
C1246 C1245 1.398 . S
C1246 C1247 1.391 . S
C1247 H1235 0.950 . S
C1247 C1243 1.393 . S
C1247 C1246 1.391 . S
H1248 C1256 0.950 . S
H1249 C1261 0.950 . S
H1250 C1258 0.950 . S
H1251 C1260 0.950 . S
H1252 C1262 0.950 . S
H1253 C1264 0.950 . S
H1254 C1266 0.950 . S
H1255 C1267 0.950 . S
C1256 H1248 0.950 . S
C1256 C1257 1.386 . S
C1256 C1258 1.391 . S
C1257 C1256 1.386 . S
C1257 C1261 1.393 . S
C1258 H1250 0.950 . S
C1258 C1256 1.391 . S
C1258 C1259 1.400 . S
C1259 C1258 1.400 . S
C1259 C1260 1.398 . S
C1259 C1265 1.491 . S
C1260 H1251 0.950 . S
C1260 C1259 1.398 . S
C1260 C1261 1.391 . S
C1261 H1249 0.950 . S
C1261 C1257 1.393 . S
C1261 C1260 1.391 . S
C1262 H1252 0.950 . S
C1262 C1263 1.386 . S
C1262 C1264 1.391 . S
C1263 C1262 1.386 . S
C1263 C1267 1.393 . S
C1264 H1253 0.950 . S
C1264 C1262 1.391 . S
C1264 C1265 1.400 . S
C1265 C1259 1.491 . S
C1265 C1264 1.400 . S
C1265 C1266 1.398 . S
C1266 H1254 0.950 . S
C1266 C1265 1.398 . S
C1266 C1267 1.391 . S
C1267 H1255 0.950 . S
C1267 C1263 1.393 . S
C1267 C1266 1.391 . S
H1268 C1276 0.950 . S
H1269 C1281 0.950 . S
H1270 C1278 0.950 . S
H1271 C1280 0.950 . S
H1272 C1282 0.950 . S
H1273 C1284 0.950 . S
H1274 C1286 0.950 . S
H1275 C1287 0.950 . S
C1276 H1268 0.950 . S
C1276 C1277 1.386 . S
C1276 C1278 1.391 . S
C1277 C1276 1.386 . S
C1277 C1281 1.393 . S
C1278 H1270 0.950 . S
C1278 C1276 1.391 . S
C1278 C1279 1.400 . S
C1279 C1278 1.400 . S
C1279 C1280 1.398 . S
C1279 C1285 1.491 . S
C1280 H1271 0.950 . S
C1280 C1279 1.398 . S
C1280 C1281 1.391 . S
C1281 H1269 0.950 . S
C1281 C1277 1.393 . S
C1281 C1280 1.391 . S
C1282 H1272 0.950 . S
C1282 C1283 1.386 . S
C1282 C1284 1.391 . S
C1283 C1282 1.386 . S
C1283 C1287 1.393 . S
C1284 H1273 0.950 . S
C1284 C1282 1.391 . S
C1284 C1285 1.400 . S
C1285 C1279 1.491 . S
C1285 C1284 1.400 . S
C1285 C1286 1.398 . S
C1286 H1274 0.950 . S
C1286 C1285 1.398 . S
C1286 C1287 1.391 . S
C1287 H1275 0.950 . S
C1287 C1283 1.393 . S
C1287 C1286 1.391 . S
H1288 C1296 0.950 . S
H1289 C1301 0.950 . S
H1290 C1298 0.950 . S
H1291 C1300 0.950 . S
H1292 C1302 0.950 . S
H1293 C1304 0.950 . S
H1294 C1306 0.950 . S
H1295 C1307 0.950 . S
C1296 H1288 0.950 . S
C1296 C1297 1.386 . S
C1296 C1298 1.391 . S
C1297 C1296 1.386 . S
C1297 C1301 1.393 . S
C1298 H1290 0.950 . S
C1298 C1296 1.391 . S
C1298 C1299 1.400 . S
C1299 C1298 1.400 . S
C1299 C1300 1.398 . S
C1299 C1305 1.491 . S
C1300 H1291 0.950 . S
C1300 C1299 1.398 . S
C1300 C1301 1.391 . S
C1301 H1289 0.950 . S
C1301 C1297 1.393 . S
C1301 C1300 1.391 . S
C1302 H1292 0.950 . S
C1302 C1303 1.386 . S
C1302 C1304 1.391 . S
C1303 C1302 1.386 . S
C1303 C1307 1.393 . S
C1304 H1293 0.950 . S
C1304 C1302 1.391 . S
C1304 C1305 1.400 . S
C1305 C1299 1.491 . S
C1305 C1304 1.400 . S
C1305 C1306 1.398 . S
C1306 H1294 0.950 . S
C1306 C1305 1.398 . S
C1306 C1307 1.391 . S
C1307 H1295 0.950 . S
C1307 C1303 1.393 . S
C1307 C1306 1.391 . S
H1308 C1316 0.950 . S
H1309 C1321 0.950 . S
H1310 C1318 0.950 . S
H1311 C1320 0.950 . S
H1312 C1322 0.950 . S
H1313 C1324 0.950 . S
H1314 C1326 0.950 . S
H1315 C1327 0.950 . S
C1316 H1308 0.950 . S
C1316 C1317 1.386 . S
C1316 C1318 1.391 . S
C1317 C1316 1.386 . S
C1317 C1321 1.393 . S
C1318 H1310 0.950 . S
C1318 C1316 1.391 . S
C1318 C1319 1.400 . S
C1319 C1318 1.400 . S
C1319 C1320 1.398 . S
C1319 C1325 1.491 . S
C1320 H1311 0.950 . S
C1320 C1319 1.398 . S
C1320 C1321 1.391 . S
C1321 H1309 0.950 . S
C1321 C1317 1.393 . S
C1321 C1320 1.391 . S
C1322 H1312 0.950 . S
C1322 C1323 1.386 . S
C1322 C1324 1.391 . S
C1323 C1322 1.386 . S
C1323 C1327 1.393 . S
C1324 H1313 0.950 . S
C1324 C1322 1.391 . S
C1324 C1325 1.400 . S
C1325 C1319 1.491 . S
C1325 C1324 1.400 . S
C1325 C1326 1.398 . S
C1326 H1314 0.950 . S
C1326 C1325 1.398 . S
C1326 C1327 1.391 . S
C1327 H1315 0.950 . S
C1327 C1323 1.393 . S
C1327 C1326 1.391 . S
H1328 C1336 0.950 . S
H1329 C1341 0.950 . S
H1330 C1338 0.950 . S
H1331 C1340 0.950 . S
H1332 C1342 0.950 . S
H1333 C1344 0.950 . S
H1334 C1346 0.950 . S
H1335 C1347 0.950 . S
C1336 H1328 0.950 . S
C1336 C1337 1.386 . S
C1336 C1338 1.391 . S
C1337 C1336 1.386 . S
C1337 C1341 1.393 . S
C1338 H1330 0.950 . S
C1338 C1336 1.391 . S
C1338 C1339 1.400 . S
C1339 C1338 1.400 . S
C1339 C1340 1.398 . S
C1339 C1345 1.491 . S
C1340 H1331 0.950 . S
C1340 C1339 1.398 . S
C1340 C1341 1.391 . S
C1341 H1329 0.950 . S
C1341 C1337 1.393 . S
C1341 C1340 1.391 . S
C1342 H1332 0.950 . S
C1342 C1343 1.386 . S
C1342 C1344 1.391 . S
C1343 C1342 1.386 . S
C1343 C1347 1.393 . S
C1344 H1333 0.950 . S
C1344 C1342 1.391 . S
C1344 C1345 1.400 . S
C1345 C1339 1.491 . S
C1345 C1344 1.400 . S
C1345 C1346 1.398 . S
C1346 H1334 0.950 . S
C1346 C1345 1.398 . S
C1346 C1347 1.391 . S
C1347 H1335 0.950 . S
C1347 C1343 1.393 . S
C1347 C1346 1.391 . S
H1348 C1356 0.950 . S
H1349 C1361 0.950 . S
H1350 C1358 0.950 . S
H1351 C1360 0.950 . S
H1352 C1362 0.950 . S
H1353 C1364 0.950 . S
H1354 C1366 0.950 . S
H1355 C1367 0.950 . S
C1356 H1348 0.950 . S
C1356 C1357 1.386 . S
C1356 C1358 1.391 . S
C1357 C1356 1.386 . S
C1357 C1361 1.393 . S
C1358 H1350 0.950 . S
C1358 C1356 1.391 . S
C1358 C1359 1.400 . S
C1359 C1358 1.400 . S
C1359 C1360 1.398 . S
C1359 C1365 1.491 . S
C1360 H1351 0.950 . S
C1360 C1359 1.398 . S
C1360 C1361 1.391 . S
C1361 H1349 0.950 . S
C1361 C1357 1.393 . S
C1361 C1360 1.391 . S
C1362 H1352 0.950 . S
C1362 C1363 1.386 . S
C1362 C1364 1.391 . S
C1363 C1362 1.386 . S
C1363 C1367 1.393 . S
C1364 H1353 0.950 . S
C1364 C1362 1.391 . S
C1364 C1365 1.400 . S
C1365 C1359 1.491 . S
C1365 C1364 1.400 . S
C1365 C1366 1.398 . S
C1366 H1354 0.950 . S
C1366 C1365 1.398 . S
C1366 C1367 1.391 . S
C1367 H1355 0.950 . S
C1367 C1363 1.393 . S
C1367 C1366 1.391 . S
H1368 C1376 0.950 . S
H1369 C1381 0.950 . S
H1370 C1378 0.950 . S
H1371 C1380 0.950 . S
H1372 C1382 0.950 . S
H1373 C1384 0.950 . S
H1374 C1386 0.950 . S
H1375 C1387 0.950 . S
C1376 H1368 0.950 . S
C1376 C1377 1.386 . S
C1376 C1378 1.391 . S
C1377 C1376 1.386 . S
C1377 C1381 1.393 . S
C1378 H1370 0.950 . S
C1378 C1376 1.391 . S
C1378 C1379 1.400 . S
C1379 C1378 1.400 . S
C1379 C1380 1.398 . S
C1379 C1385 1.491 . S
C1380 H1371 0.950 . S
C1380 C1379 1.398 . S
C1380 C1381 1.391 . S
C1381 H1369 0.950 . S
C1381 C1377 1.393 . S
C1381 C1380 1.391 . S
C1382 H1372 0.950 . S
C1382 C1383 1.386 . S
C1382 C1384 1.391 . S
C1383 C1382 1.386 . S
C1383 C1387 1.393 . S
C1384 H1373 0.950 . S
C1384 C1382 1.391 . S
C1384 C1385 1.400 . S
C1385 C1379 1.491 . S
C1385 C1384 1.400 . S
C1385 C1386 1.398 . S
C1386 H1374 0.950 . S
C1386 C1385 1.398 . S
C1386 C1387 1.391 . S
C1387 H1375 0.950 . S
C1387 C1383 1.393 . S
C1387 C1386 1.391 . S
H1388 C1396 0.950 . S
H1389 C1401 0.950 . S
H1390 C1398 0.950 . S
H1391 C1400 0.950 . S
H1392 C1402 0.950 . S
H1393 C1404 0.950 . S
H1394 C1406 0.950 . S
H1395 C1407 0.950 . S
C1396 H1388 0.950 . S
C1396 C1397 1.386 . S
C1396 C1398 1.391 . S
C1397 C1396 1.386 . S
C1397 C1401 1.393 . S
C1398 H1390 0.950 . S
C1398 C1396 1.391 . S
C1398 C1399 1.400 . S
C1399 C1398 1.400 . S
C1399 C1400 1.398 . S
C1399 C1405 1.491 . S
C1400 H1391 0.950 . S
C1400 C1399 1.398 . S
C1400 C1401 1.391 . S
C1401 H1389 0.950 . S
C1401 C1397 1.393 . S
C1401 C1400 1.391 . S
C1402 H1392 0.950 . S
C1402 C1403 1.386 . S
C1402 C1404 1.391 . S
C1403 C1402 1.386 . S
C1403 C1407 1.393 . S
C1404 H1393 0.950 . S
C1404 C1402 1.391 . S
C1404 C1405 1.400 . S
C1405 C1399 1.491 . S
C1405 C1404 1.400 . S
C1405 C1406 1.398 . S
C1406 H1394 0.950 . S
C1406 C1405 1.398 . S
C1406 C1407 1.391 . S
C1407 H1395 0.950 . S
C1407 C1403 1.393 . S
C1407 C1406 1.391 . S
H1408 C1416 0.950 . S
H1409 C1421 0.950 . S
H1410 C1418 0.950 . S
H1411 C1420 0.950 . S
H1412 C1422 0.950 . S
H1413 C1424 0.950 . S
H1414 C1426 0.950 . S
H1415 C1427 0.950 . S
C1416 H1408 0.950 . S
C1416 C1417 1.386 . S
C1416 C1418 1.391 . S
C1417 C1416 1.386 . S
C1417 C1421 1.393 . S
C1418 H1410 0.950 . S
C1418 C1416 1.391 . S
C1418 C1419 1.400 . S
C1419 C1418 1.400 . S
C1419 C1420 1.398 . S
C1419 C1425 1.491 . S
C1420 H1411 0.950 . S
C1420 C1419 1.398 . S
C1420 C1421 1.391 . S
C1421 H1409 0.950 . S
C1421 C1417 1.393 . S
C1421 C1420 1.391 . S
C1422 H1412 0.950 . S
C1422 C1423 1.386 . S
C1422 C1424 1.391 . S
C1423 C1422 1.386 . S
C1423 C1427 1.393 . S
C1424 H1413 0.950 . S
C1424 C1422 1.391 . S
C1424 C1425 1.400 . S
C1425 C1419 1.491 . S
C1425 C1424 1.400 . S
C1425 C1426 1.398 . S
C1426 H1414 0.950 . S
C1426 C1425 1.398 . S
C1426 C1427 1.391 . S
C1427 H1415 0.950 . S
C1427 C1423 1.393 . S
C1427 C1426 1.391 . S
H1428 C1436 0.950 . S
H1429 C1441 0.950 . S
H1430 C1438 0.950 . S
H1431 C1440 0.950 . S
H1432 C1442 0.950 . S
H1433 C1444 0.950 . S
H1434 C1446 0.950 . S
H1435 C1447 0.950 . S
C1436 H1428 0.950 . S
C1436 C1437 1.386 . S
C1436 C1438 1.391 . S
C1437 C1436 1.386 . S
C1437 C1441 1.393 . S
C1438 H1430 0.950 . S
C1438 C1436 1.391 . S
C1438 C1439 1.400 . S
C1439 C1438 1.400 . S
C1439 C1440 1.398 . S
C1439 C1445 1.491 . S
C1440 H1431 0.950 . S
C1440 C1439 1.398 . S
C1440 C1441 1.391 . S
C1441 H1429 0.950 . S
C1441 C1437 1.393 . S
C1441 C1440 1.391 . S
C1442 H1432 0.950 . S
C1442 C1443 1.386 . S
C1442 C1444 1.391 . S
C1443 C1442 1.386 . S
C1443 C1447 1.393 . S
C1444 H1433 0.950 . S
C1444 C1442 1.391 . S
C1444 C1445 1.400 . S
C1445 C1439 1.491 . S
C1445 C1444 1.400 . S
C1445 C1446 1.398 . S
C1446 H1434 0.950 . S
C1446 C1445 1.398 . S
C1446 C1447 1.391 . S
C1447 H1435 0.950 . S
C1447 C1443 1.393 . S
C1447 C1446 1.391 . S
H1448 C1456 0.950 . S
H1449 C1461 0.950 . S
H1450 C1458 0.950 . S
H1451 C1460 0.950 . S
H1452 C1462 0.950 . S
H1453 C1464 0.950 . S
H1454 C1466 0.950 . S
H1455 C1467 0.950 . S
C1456 H1448 0.950 . S
C1456 C1457 1.386 . S
C1456 C1458 1.391 . S
C1457 C1456 1.386 . S
C1457 C1461 1.393 . S
C1458 H1450 0.950 . S
C1458 C1456 1.391 . S
C1458 C1459 1.400 . S
C1459 C1458 1.400 . S
C1459 C1460 1.398 . S
C1459 C1465 1.491 . S
C1460 H1451 0.950 . S
C1460 C1459 1.398 . S
C1460 C1461 1.391 . S
C1461 H1449 0.950 . S
C1461 C1457 1.393 . S
C1461 C1460 1.391 . S
C1462 H1452 0.950 . S
C1462 C1463 1.386 . S
C1462 C1464 1.391 . S
C1463 C1462 1.386 . S
C1463 C1467 1.393 . S
C1464 H1453 0.950 . S
C1464 C1462 1.391 . S
C1464 C1465 1.400 . S
C1465 C1459 1.491 . S
C1465 C1464 1.400 . S
C1465 C1466 1.398 . S
C1466 H1454 0.950 . S
C1466 C1465 1.398 . S
C1466 C1467 1.391 . S
C1467 H1455 0.950 . S
C1467 C1463 1.393 . S
C1467 C1466 1.391 . S
H1468 C1476 0.950 . S
H1469 C1481 0.950 . S
H1470 C1478 0.950 . S
H1471 C1480 0.950 . S
H1472 C1482 0.950 . S
H1473 C1484 0.950 . S
H1474 C1486 0.950 . S
H1475 C1487 0.950 . S
C1476 H1468 0.950 . S
C1476 C1477 1.386 . S
C1476 C1478 1.391 . S
C1477 C1476 1.386 . S
C1477 C1481 1.393 . S
C1478 H1470 0.950 . S
C1478 C1476 1.391 . S
C1478 C1479 1.400 . S
C1479 C1478 1.400 . S
C1479 C1480 1.398 . S
C1479 C1485 1.491 . S
C1480 H1471 0.950 . S
C1480 C1479 1.398 . S
C1480 C1481 1.391 . S
C1481 H1469 0.950 . S
C1481 C1477 1.393 . S
C1481 C1480 1.391 . S
C1482 H1472 0.950 . S
C1482 C1483 1.386 . S
C1482 C1484 1.391 . S
C1483 C1482 1.386 . S
C1483 C1487 1.393 . S
C1484 H1473 0.950 . S
C1484 C1482 1.391 . S
C1484 C1485 1.400 . S
C1485 C1479 1.491 . S
C1485 C1484 1.400 . S
C1485 C1486 1.398 . S
C1486 H1474 0.950 . S
C1486 C1485 1.398 . S
C1486 C1487 1.391 . S
C1487 H1475 0.950 . S
C1487 C1483 1.393 . S
C1487 C1486 1.391 . S
H1488 C1496 0.950 . S
H1489 C1501 0.950 . S
H1490 C1498 0.950 . S
H1491 C1500 0.950 . S
H1492 C1502 0.950 . S
H1493 C1504 0.950 . S
H1494 C1506 0.950 . S
H1495 C1507 0.950 . S
C1496 H1488 0.950 . S
C1496 C1497 1.386 . S
C1496 C1498 1.391 . S
C1497 C1496 1.386 . S
C1497 C1501 1.393 . S
C1498 H1490 0.950 . S
C1498 C1496 1.391 . S
C1498 C1499 1.400 . S
C1499 C1498 1.400 . S
C1499 C1500 1.398 . S
C1499 C1505 1.491 . S
C1500 H1491 0.950 . S
C1500 C1499 1.398 . S
C1500 C1501 1.391 . S
C1501 H1489 0.950 . S
C1501 C1497 1.393 . S
C1501 C1500 1.391 . S
C1502 H1492 0.950 . S
C1502 C1503 1.386 . S
C1502 C1504 1.391 . S
C1503 C1502 1.386 . S
C1503 C1507 1.393 . S
C1504 H1493 0.950 . S
C1504 C1502 1.391 . S
C1504 C1505 1.400 . S
C1505 C1499 1.491 . S
C1505 C1504 1.400 . S
C1505 C1506 1.398 . S
C1506 H1494 0.950 . S
C1506 C1505 1.398 . S
C1506 C1507 1.391 . S
C1507 H1495 0.950 . S
C1507 C1503 1.393 . S
C1507 C1506 1.391 . S
H1508 C1516 0.950 . S
H1509 C1521 0.950 . S
H1510 C1518 0.950 . S
H1511 C1520 0.950 . S
H1512 C1522 0.950 . S
H1513 C1524 0.950 . S
H1514 C1526 0.950 . S
H1515 C1527 0.950 . S
C1516 H1508 0.950 . S
C1516 C1517 1.386 . S
C1516 C1518 1.391 . S
C1517 C1516 1.386 . S
C1517 C1521 1.393 . S
C1518 H1510 0.950 . S
C1518 C1516 1.391 . S
C1518 C1519 1.400 . S
C1519 C1518 1.400 . S
C1519 C1520 1.398 . S
C1519 C1525 1.491 . S
C1520 H1511 0.950 . S
C1520 C1519 1.398 . S
C1520 C1521 1.391 . S
C1521 H1509 0.950 . S
C1521 C1517 1.393 . S
C1521 C1520 1.391 . S
C1522 H1512 0.950 . S
C1522 C1523 1.386 . S
C1522 C1524 1.391 . S
C1523 C1522 1.386 . S
C1523 C1527 1.393 . S
C1524 H1513 0.950 . S
C1524 C1522 1.391 . S
C1524 C1525 1.400 . S
C1525 C1519 1.491 . S
C1525 C1524 1.400 . S
C1525 C1526 1.398 . S
C1526 H1514 0.950 . S
C1526 C1525 1.398 . S
C1526 C1527 1.391 . S
C1527 H1515 0.950 . S
C1527 C1523 1.393 . S
C1527 C1526 1.391 . S
H1528 C1536 0.950 . S
H1529 C1541 0.950 . S
H1530 C1538 0.950 . S
H1531 C1540 0.950 . S
H1532 C1542 0.950 . S
H1533 C1544 0.950 . S
H1534 C1546 0.950 . S
H1535 C1547 0.950 . S
C1536 H1528 0.950 . S
C1536 C1537 1.386 . S
C1536 C1538 1.391 . S
C1537 C1536 1.386 . S
C1537 C1541 1.393 . S
C1538 H1530 0.950 . S
C1538 C1536 1.391 . S
C1538 C1539 1.400 . S
C1539 C1538 1.400 . S
C1539 C1540 1.398 . S
C1539 C1545 1.491 . S
C1540 H1531 0.950 . S
C1540 C1539 1.398 . S
C1540 C1541 1.391 . S
C1541 H1529 0.950 . S
C1541 C1537 1.393 . S
C1541 C1540 1.391 . S
C1542 H1532 0.950 . S
C1542 C1543 1.386 . S
C1542 C1544 1.391 . S
C1543 C1542 1.386 . S
C1543 C1547 1.393 . S
C1544 H1533 0.950 . S
C1544 C1542 1.391 . S
C1544 C1545 1.400 . S
C1545 C1539 1.491 . S
C1545 C1544 1.400 . S
C1545 C1546 1.398 . S
C1546 H1534 0.950 . S
C1546 C1545 1.398 . S
C1546 C1547 1.391 . S
C1547 H1535 0.950 . S
C1547 C1543 1.393 . S
C1547 C1546 1.391 . S
H1548 C1556 0.950 . S
H1549 C1561 0.950 . S
H1550 C1558 0.950 . S
H1551 C1560 0.950 . S
H1552 C1562 0.950 . S
H1553 C1564 0.950 . S
H1554 C1566 0.950 . S
H1555 C1567 0.950 . S
C1556 H1548 0.950 . S
C1556 C1557 1.386 . S
C1556 C1558 1.391 . S
C1557 C1556 1.386 . S
C1557 C1561 1.393 . S
C1558 H1550 0.950 . S
C1558 C1556 1.391 . S
C1558 C1559 1.400 . S
C1559 C1558 1.400 . S
C1559 C1560 1.398 . S
C1559 C1565 1.491 . S
C1560 H1551 0.950 . S
C1560 C1559 1.398 . S
C1560 C1561 1.391 . S
C1561 H1549 0.950 . S
C1561 C1557 1.393 . S
C1561 C1560 1.391 . S
C1562 H1552 0.950 . S
C1562 C1563 1.386 . S
C1562 C1564 1.391 . S
C1563 C1562 1.386 . S
C1563 C1567 1.393 . S
C1564 H1553 0.950 . S
C1564 C1562 1.391 . S
C1564 C1565 1.400 . S
C1565 C1559 1.491 . S
C1565 C1564 1.400 . S
C1565 C1566 1.398 . S
C1566 H1554 0.950 . S
C1566 C1565 1.398 . S
C1566 C1567 1.391 . S
C1567 H1555 0.950 . S
C1567 C1563 1.393 . S
C1567 C1566 1.391 . S
H1568 C1576 0.950 . S
H1569 C1581 0.950 . S
H1570 C1578 0.950 . S
H1571 C1580 0.950 . S
H1572 C1582 0.950 . S
H1573 C1584 0.950 . S
H1574 C1586 0.950 . S
H1575 C1587 0.950 . S
C1576 H1568 0.950 . S
C1576 C1577 1.386 . S
C1576 C1578 1.391 . S
C1577 C1576 1.386 . S
C1577 C1581 1.393 . S
C1578 H1570 0.950 . S
C1578 C1576 1.391 . S
C1578 C1579 1.400 . S
C1579 C1578 1.400 . S
C1579 C1580 1.398 . S
C1579 C1585 1.491 . S
C1580 H1571 0.950 . S
C1580 C1579 1.398 . S
C1580 C1581 1.391 . S
C1581 H1569 0.950 . S
C1581 C1577 1.393 . S
C1581 C1580 1.391 . S
C1582 H1572 0.950 . S
C1582 C1583 1.386 . S
C1582 C1584 1.391 . S
C1583 C1582 1.386 . S
C1583 C1587 1.393 . S
C1584 H1573 0.950 . S
C1584 C1582 1.391 . S
C1584 C1585 1.400 . S
C1585 C1579 1.491 . S
C1585 C1584 1.400 . S
C1585 C1586 1.398 . S
C1586 H1574 0.950 . S
C1586 C1585 1.398 . S
C1586 C1587 1.391 . S
C1587 H1575 0.950 . S
C1587 C1583 1.393 . S
C1587 C1586 1.391 . S
H1588 C1596 0.950 . S
H1589 C1601 0.950 . S
H1590 C1598 0.950 . S
H1591 C1600 0.950 . S
H1592 C1602 0.950 . S
H1593 C1604 0.950 . S
H1594 C1606 0.950 . S
H1595 C1607 0.950 . S
C1596 H1588 0.950 . S
C1596 C1597 1.386 . S
C1596 C1598 1.391 . S
C1597 C1596 1.386 . S
C1597 C1601 1.393 . S
C1598 H1590 0.950 . S
C1598 C1596 1.391 . S
C1598 C1599 1.400 . S
C1599 C1598 1.400 . S
C1599 C1600 1.398 . S
C1599 C1605 1.491 . S
C1600 H1591 0.950 . S
C1600 C1599 1.398 . S
C1600 C1601 1.391 . S
C1601 H1589 0.950 . S
C1601 C1597 1.393 . S
C1601 C1600 1.391 . S
C1602 H1592 0.950 . S
C1602 C1603 1.386 . S
C1602 C1604 1.391 . S
C1603 C1602 1.386 . S
C1603 C1607 1.393 . S
C1604 H1593 0.950 . S
C1604 C1602 1.391 . S
C1604 C1605 1.400 . S
C1605 C1599 1.491 . S
C1605 C1604 1.400 . S
C1605 C1606 1.398 . S
C1606 H1594 0.950 . S
C1606 C1605 1.398 . S
C1606 C1607 1.391 . S
C1607 H1595 0.950 . S
C1607 C1603 1.393 . S
C1607 C1606 1.391 . S
H1608 C1616 0.950 . S
H1609 C1621 0.950 . S
H1610 C1618 0.950 . S
H1611 C1620 0.950 . S
H1612 C1622 0.950 . S
H1613 C1624 0.950 . S
H1614 C1626 0.950 . S
H1615 C1627 0.950 . S
C1616 H1608 0.950 . S
C1616 C1617 1.386 . S
C1616 C1618 1.391 . S
C1617 C1616 1.386 . S
C1617 C1621 1.393 . S
C1618 H1610 0.950 . S
C1618 C1616 1.391 . S
C1618 C1619 1.400 . S
C1619 C1618 1.400 . S
C1619 C1620 1.398 . S
C1619 C1625 1.491 . S
C1620 H1611 0.950 . S
C1620 C1619 1.398 . S
C1620 C1621 1.391 . S
C1621 H1609 0.950 . S
C1621 C1617 1.393 . S
C1621 C1620 1.391 . S
C1622 H1612 0.950 . S
C1622 C1623 1.386 . S
C1622 C1624 1.391 . S
C1623 C1622 1.386 . S
C1623 C1627 1.393 . S
C1624 H1613 0.950 . S
C1624 C1622 1.391 . S
C1624 C1625 1.400 . S
C1625 C1619 1.491 . S
C1625 C1624 1.400 . S
C1625 C1626 1.398 . S
C1626 H1614 0.950 . S
C1626 C1625 1.398 . S
C1626 C1627 1.391 . S
C1627 H1615 0.950 . S
C1627 C1623 1.393 . S
C1627 C1626 1.391 . S
H1628 C1636 0.950 . S
H1629 C1641 0.950 . S
H1630 C1638 0.950 . S
H1631 C1640 0.950 . S
H1632 C1642 0.950 . S
H1633 C1644 0.950 . S
H1634 C1646 0.950 . S
H1635 C1647 0.950 . S
C1636 H1628 0.950 . S
C1636 C1637 1.386 . S
C1636 C1638 1.391 . S
C1637 C1636 1.386 . S
C1637 C1641 1.393 . S
C1638 H1630 0.950 . S
C1638 C1636 1.391 . S
C1638 C1639 1.400 . S
C1639 C1638 1.400 . S
C1639 C1640 1.398 . S
C1639 C1645 1.491 . S
C1640 H1631 0.950 . S
C1640 C1639 1.398 . S
C1640 C1641 1.391 . S
C1641 H1629 0.950 . S
C1641 C1637 1.393 . S
C1641 C1640 1.391 . S
C1642 H1632 0.950 . S
C1642 C1643 1.386 . S
C1642 C1644 1.391 . S
C1643 C1642 1.386 . S
C1643 C1647 1.393 . S
C1644 H1633 0.950 . S
C1644 C1642 1.391 . S
C1644 C1645 1.400 . S
C1645 C1639 1.491 . S
C1645 C1644 1.400 . S
C1645 C1646 1.398 . S
C1646 H1634 0.950 . S
C1646 C1645 1.398 . S
C1646 C1647 1.391 . S
C1647 H1635 0.950 . S
C1647 C1643 1.393 . S
C1647 C1646 1.391 . S
H1648 C1656 0.950 . S
H1649 C1661 0.950 . S
H1650 C1658 0.950 . S
H1651 C1660 0.950 . S
H1652 C1662 0.950 . S
H1653 C1664 0.950 . S
H1654 C1666 0.950 . S
H1655 C1667 0.950 . S
C1656 H1648 0.950 . S
C1656 C1657 1.386 . S
C1656 C1658 1.391 . S
C1657 C1656 1.386 . S
C1657 C1661 1.393 . S
C1658 H1650 0.950 . S
C1658 C1656 1.391 . S
C1658 C1659 1.400 . S
C1659 C1658 1.400 . S
C1659 C1660 1.398 . S
C1659 C1665 1.491 . S
C1660 H1651 0.950 . S
C1660 C1659 1.398 . S
C1660 C1661 1.391 . S
C1661 H1649 0.950 . S
C1661 C1657 1.393 . S
C1661 C1660 1.391 . S
C1662 H1652 0.950 . S
C1662 C1663 1.386 . S
C1662 C1664 1.391 . S
C1663 C1662 1.386 . S
C1663 C1667 1.393 . S
C1664 H1653 0.950 . S
C1664 C1662 1.391 . S
C1664 C1665 1.400 . S
C1665 C1659 1.491 . S
C1665 C1664 1.400 . S
C1665 C1666 1.398 . S
C1666 H1654 0.950 . S
C1666 C1665 1.398 . S
C1666 C1667 1.391 . S
C1667 H1655 0.950 . S
C1667 C1663 1.393 . S
C1667 C1666 1.391 . S
H1668 C1676 0.950 . S
H1669 C1681 0.950 . S
H1670 C1678 0.950 . S
H1671 C1680 0.950 . S
H1672 C1682 0.950 . S
H1673 C1684 0.950 . S
H1674 C1686 0.950 . S
H1675 C1687 0.950 . S
C1676 H1668 0.950 . S
C1676 C1677 1.386 . S
C1676 C1678 1.391 . S
C1677 C1676 1.386 . S
C1677 C1681 1.393 . S
C1678 H1670 0.950 . S
C1678 C1676 1.391 . S
C1678 C1679 1.400 . S
C1679 C1678 1.400 . S
C1679 C1680 1.398 . S
C1679 C1685 1.491 . S
C1680 H1671 0.950 . S
C1680 C1679 1.398 . S
C1680 C1681 1.391 . S
C1681 H1669 0.950 . S
C1681 C1677 1.393 . S
C1681 C1680 1.391 . S
C1682 H1672 0.950 . S
C1682 C1683 1.386 . S
C1682 C1684 1.391 . S
C1683 C1682 1.386 . S
C1683 C1687 1.393 . S
C1684 H1673 0.950 . S
C1684 C1682 1.391 . S
C1684 C1685 1.400 . S
C1685 C1679 1.491 . S
C1685 C1684 1.400 . S
C1685 C1686 1.398 . S
C1686 H1674 0.950 . S
C1686 C1685 1.398 . S
C1686 C1687 1.391 . S
C1687 H1675 0.950 . S
C1687 C1683 1.393 . S
C1687 C1686 1.391 . S
H1688 C1696 0.950 . S
H1689 C1701 0.950 . S
H1690 C1698 0.950 . S
H1691 C1700 0.950 . S
H1692 C1702 0.950 . S
H1693 C1704 0.950 . S
H1694 C1706 0.950 . S
H1695 C1707 0.950 . S
C1696 H1688 0.950 . S
C1696 C1697 1.386 . S
C1696 C1698 1.391 . S
C1697 C1696 1.386 . S
C1697 C1701 1.393 . S
C1698 H1690 0.950 . S
C1698 C1696 1.391 . S
C1698 C1699 1.400 . S
C1699 C1698 1.400 . S
C1699 C1700 1.398 . S
C1699 C1705 1.491 . S
C1700 H1691 0.950 . S
C1700 C1699 1.398 . S
C1700 C1701 1.391 . S
C1701 H1689 0.950 . S
C1701 C1697 1.393 . S
C1701 C1700 1.391 . S
C1702 H1692 0.950 . S
C1702 C1703 1.386 . S
C1702 C1704 1.391 . S
C1703 C1702 1.386 . S
C1703 C1707 1.393 . S
C1704 H1693 0.950 . S
C1704 C1702 1.391 . S
C1704 C1705 1.400 . S
C1705 C1699 1.491 . S
C1705 C1704 1.400 . S
C1705 C1706 1.398 . S
C1706 H1694 0.950 . S
C1706 C1705 1.398 . S
C1706 C1707 1.391 . S
C1707 H1695 0.950 . S
C1707 C1703 1.393 . S
C1707 C1706 1.391 . S
H1708 C1716 0.950 . S
H1709 C1721 0.950 . S
H1710 C1718 0.950 . S
H1711 C1720 0.950 . S
H1712 C1722 0.950 . S
H1713 C1724 0.950 . S
H1714 C1726 0.950 . S
H1715 C1727 0.950 . S
C1716 H1708 0.950 . S
C1716 C1717 1.386 . S
C1716 C1718 1.391 . S
C1717 C1716 1.386 . S
C1717 C1721 1.393 . S
C1718 H1710 0.950 . S
C1718 C1716 1.391 . S
C1718 C1719 1.400 . S
C1719 C1718 1.400 . S
C1719 C1720 1.398 . S
C1719 C1725 1.491 . S
C1720 H1711 0.950 . S
C1720 C1719 1.398 . S
C1720 C1721 1.391 . S
C1721 H1709 0.950 . S
C1721 C1717 1.393 . S
C1721 C1720 1.391 . S
C1722 H1712 0.950 . S
C1722 C1723 1.386 . S
C1722 C1724 1.391 . S
C1723 C1722 1.386 . S
C1723 C1727 1.393 . S
C1724 H1713 0.950 . S
C1724 C1722 1.391 . S
C1724 C1725 1.400 . S
C1725 C1719 1.491 . S
C1725 C1724 1.400 . S
C1725 C1726 1.398 . S
C1726 H1714 0.950 . S
C1726 C1725 1.398 . S
C1726 C1727 1.391 . S
C1727 H1715 0.950 . S
C1727 C1723 1.393 . S
C1727 C1726 1.391 . S
H1728 C1736 0.950 . S
H1729 C1741 0.950 . S
H1730 C1738 0.950 . S
H1731 C1740 0.950 . S
H1732 C1742 0.950 . S
H1733 C1744 0.950 . S
H1734 C1746 0.950 . S
H1735 C1747 0.950 . S
C1736 H1728 0.950 . S
C1736 C1737 1.386 . S
C1736 C1738 1.391 . S
C1737 C1736 1.386 . S
C1737 C1741 1.393 . S
C1738 H1730 0.950 . S
C1738 C1736 1.391 . S
C1738 C1739 1.400 . S
C1739 C1738 1.400 . S
C1739 C1740 1.398 . S
C1739 C1745 1.491 1_556 S
C1740 H1731 0.950 . S
C1740 C1739 1.398 . S
C1740 C1741 1.391 . S
C1741 H1729 0.950 . S
C1741 C1737 1.393 . S
C1741 C1740 1.391 . S
C1742 H1732 0.950 . S
C1742 C1743 1.386 . S
C1742 C1744 1.391 . S
C1743 C1742 1.386 . S
C1743 C1747 1.393 . S
C1744 H1733 0.950 . S
C1744 C1742 1.391 . S
C1744 C1745 1.400 . S
C1745 C1739 1.491 1_554 S
C1745 C1744 1.400 . S
C1745 C1746 1.398 . S
C1746 H1734 0.950 . S
C1746 C1745 1.398 . S
C1746 C1747 1.391 . S
C1747 H1735 0.950 . S
C1747 C1743 1.393 . S
C1747 C1746 1.391 . S
H1748 C1756 0.950 . S
H1749 C1761 0.950 . S
H1750 C1758 0.950 . S
H1751 C1760 0.950 . S
H1752 C1762 0.950 . S
H1753 C1764 0.950 . S
H1754 C1766 0.950 . S
H1755 C1767 0.950 . S
C1756 H1748 0.950 . S
C1756 C1757 1.386 . S
C1756 C1758 1.391 . S
C1757 C1756 1.386 . S
C1757 C1761 1.393 . S
C1758 H1750 0.950 . S
C1758 C1756 1.391 . S
C1758 C1759 1.400 . S
C1759 C1758 1.400 . S
C1759 C1760 1.398 . S
C1759 C1765 1.491 1_556 S
C1760 H1751 0.950 . S
C1760 C1759 1.398 . S
C1760 C1761 1.391 . S
C1761 H1749 0.950 . S
C1761 C1757 1.393 . S
C1761 C1760 1.391 . S
C1762 H1752 0.950 . S
C1762 C1763 1.386 . S
C1762 C1764 1.391 . S
C1763 C1762 1.386 . S
C1763 C1767 1.393 . S
C1764 H1753 0.950 . S
C1764 C1762 1.391 . S
C1764 C1765 1.400 . S
C1765 C1759 1.491 1_554 S
C1765 C1764 1.400 . S
C1765 C1766 1.398 . S
C1766 H1754 0.950 . S
C1766 C1765 1.398 . S
C1766 C1767 1.391 . S
C1767 H1755 0.950 . S
C1767 C1763 1.393 . S
C1767 C1766 1.391 . S
H1768 C1776 0.950 . S
H1769 C1781 0.950 . S
H1770 C1778 0.950 . S
H1771 C1780 0.950 . S
H1772 C1782 0.950 . S
H1773 C1784 0.950 . S
H1774 C1786 0.950 . S
H1775 C1787 0.950 . S
C1776 H1768 0.950 . S
C1776 C1777 1.386 . S
C1776 C1778 1.391 . S
C1777 C1776 1.386 . S
C1777 C1781 1.393 . S
C1778 H1770 0.950 . S
C1778 C1776 1.391 . S
C1778 C1779 1.400 . S
C1779 C1778 1.400 . S
C1779 C1780 1.398 . S
C1779 C1785 1.491 1_554 S
C1780 H1771 0.950 . S
C1780 C1779 1.398 . S
C1780 C1781 1.391 . S
C1781 H1769 0.950 . S
C1781 C1777 1.393 . S
C1781 C1780 1.391 . S
C1782 H1772 0.950 . S
C1782 C1783 1.386 . S
C1782 C1784 1.391 . S
C1783 C1782 1.386 . S
C1783 C1787 1.393 . S
C1784 H1773 0.950 . S
C1784 C1782 1.391 . S
C1784 C1785 1.400 . S
C1785 C1779 1.491 1_556 S
C1785 C1784 1.400 . S
C1785 C1786 1.398 . S
C1786 H1774 0.950 . S
C1786 C1785 1.398 . S
C1786 C1787 1.391 . S
C1787 H1775 0.950 . S
C1787 C1783 1.393 . S
C1787 C1786 1.391 . S
H1788 C1796 0.950 . S
H1789 C1801 0.950 . S
H1790 C1798 0.950 . S
H1791 C1800 0.950 . S
H1792 C1802 0.950 . S
H1793 C1804 0.950 . S
H1794 C1806 0.950 . S
H1795 C1807 0.950 . S
C1796 H1788 0.950 . S
C1796 C1797 1.386 . S
C1796 C1798 1.391 . S
C1797 C1796 1.386 . S
C1797 C1801 1.393 . S
C1798 H1790 0.950 . S
C1798 C1796 1.391 . S
C1798 C1799 1.400 . S
C1799 C1798 1.400 . S
C1799 C1800 1.398 . S
C1799 C1805 1.491 1_556 S
C1800 H1791 0.950 . S
C1800 C1799 1.398 . S
C1800 C1801 1.391 . S
C1801 H1789 0.950 . S
C1801 C1797 1.393 . S
C1801 C1800 1.391 . S
C1802 H1792 0.950 . S
C1802 C1803 1.386 . S
C1802 C1804 1.391 . S
C1803 C1802 1.386 . S
C1803 C1807 1.393 . S
C1804 H1793 0.950 . S
C1804 C1802 1.391 . S
C1804 C1805 1.400 . S
C1805 C1799 1.491 1_554 S
C1805 C1804 1.400 . S
C1805 C1806 1.398 . S
C1806 H1794 0.950 . S
C1806 C1805 1.398 . S
C1806 C1807 1.391 . S
C1807 H1795 0.950 . S
C1807 C1803 1.393 . S
C1807 C1806 1.391 . S
H1808 C1816 0.950 . S
H1809 C1821 0.950 . S
H1810 C1818 0.950 . S
H1811 C1820 0.950 . S
H1812 C1822 0.950 . S
H1813 C1824 0.950 . S
H1814 C1826 0.950 . S
H1815 C1827 0.950 . S
C1816 H1808 0.950 . S
C1816 C1817 1.386 . S
C1816 C1818 1.391 . S
C1817 C1816 1.386 . S
C1817 C1821 1.393 . S
C1818 H1810 0.950 . S
C1818 C1816 1.391 . S
C1818 C1819 1.400 . S
C1819 C1818 1.400 . S
C1819 C1820 1.398 . S
C1819 C1825 1.491 1_556 S
C1820 H1811 0.950 . S
C1820 C1819 1.398 . S
C1820 C1821 1.391 . S
C1821 H1809 0.950 . S
C1821 C1817 1.393 . S
C1821 C1820 1.391 . S
C1822 H1812 0.950 . S
C1822 C1823 1.386 . S
C1822 C1824 1.391 . S
C1823 C1822 1.386 . S
C1823 C1827 1.393 . S
C1824 H1813 0.950 . S
C1824 C1822 1.391 . S
C1824 C1825 1.400 . S
C1825 C1819 1.491 1_554 S
C1825 C1824 1.400 . S
C1825 C1826 1.398 . S
C1826 H1814 0.950 . S
C1826 C1825 1.398 . S
C1826 C1827 1.391 . S
C1827 H1815 0.950 . S
C1827 C1823 1.393 . S
C1827 C1826 1.391 . S
H1828 C1836 0.950 . S
H1829 C1841 0.950 . S
H1830 C1838 0.950 . S
H1831 C1840 0.950 . S
H1832 C1842 0.950 . S
H1833 C1844 0.950 . S
H1834 C1846 0.950 . S
H1835 C1847 0.950 . S
C1836 H1828 0.950 . S
C1836 C1837 1.386 . S
C1836 C1838 1.391 . S
C1837 C1836 1.386 . S
C1837 C1841 1.393 . S
C1838 H1830 0.950 . S
C1838 C1836 1.391 . S
C1838 C1839 1.400 . S
C1839 C1838 1.400 . S
C1839 C1840 1.398 . S
C1839 C1845 1.491 1_554 S
C1840 H1831 0.950 . S
C1840 C1839 1.398 . S
C1840 C1841 1.391 . S
C1841 H1829 0.950 . S
C1841 C1837 1.393 . S
C1841 C1840 1.391 . S
C1842 H1832 0.950 . S
C1842 C1843 1.386 . S
C1842 C1844 1.391 . S
C1843 C1842 1.386 . S
C1843 C1847 1.393 . S
C1844 H1833 0.950 . S
C1844 C1842 1.391 . S
C1844 C1845 1.400 . S
C1845 C1839 1.491 1_556 S
C1845 C1844 1.400 . S
C1845 C1846 1.398 . S
C1846 H1834 0.950 . S
C1846 C1845 1.398 . S
C1846 C1847 1.391 . S
C1847 H1835 0.950 . S
C1847 C1843 1.393 . S
C1847 C1846 1.391 . S
H1848 C1856 0.950 . S
H1849 C1861 0.950 . S
H1850 C1858 0.950 . S
H1851 C1860 0.950 . S
H1852 C1862 0.950 . S
H1853 C1864 0.950 . S
H1854 C1866 0.950 . S
H1855 C1867 0.950 . S
C1856 H1848 0.950 . S
C1856 C1857 1.386 . S
C1856 C1858 1.391 . S
C1857 C1856 1.386 . S
C1857 C1861 1.393 . S
C1858 H1850 0.950 . S
C1858 C1856 1.391 . S
C1858 C1859 1.400 . S
C1859 C1858 1.400 . S
C1859 C1860 1.398 . S
C1859 C1865 1.491 . S
C1860 H1851 0.950 . S
C1860 C1859 1.398 . S
C1860 C1861 1.391 . S
C1861 H1849 0.950 . S
C1861 C1857 1.393 . S
C1861 C1860 1.391 . S
C1862 H1852 0.950 . S
C1862 C1863 1.386 . S
C1862 C1864 1.391 . S
C1863 C1862 1.386 . S
C1863 C1867 1.393 . S
C1864 H1853 0.950 . S
C1864 C1862 1.391 . S
C1864 C1865 1.400 . S
C1865 C1859 1.491 . S
C1865 C1864 1.400 . S
C1865 C1866 1.398 . S
C1866 H1854 0.950 . S
C1866 C1865 1.398 . S
C1866 C1867 1.391 . S
C1867 H1855 0.950 . S
C1867 C1863 1.393 . S
C1867 C1866 1.391 . S
H1868 C1876 0.950 . S
H1869 C1881 0.950 . S
H1870 C1878 0.950 . S
H1871 C1880 0.950 . S
H1872 C1882 0.950 . S
H1873 C1884 0.950 . S
H1874 C1886 0.950 . S
H1875 C1887 0.950 . S
C1876 H1868 0.950 . S
C1876 C1877 1.386 . S
C1876 C1878 1.391 . S
C1877 C1876 1.386 . S
C1877 C1881 1.393 . S
C1878 H1870 0.950 . S
C1878 C1876 1.391 . S
C1878 C1879 1.400 . S
C1879 C1878 1.400 . S
C1879 C1880 1.398 . S
C1879 C1885 1.491 . S
C1880 H1871 0.950 . S
C1880 C1879 1.398 . S
C1880 C1881 1.391 . S
C1881 H1869 0.950 . S
C1881 C1877 1.393 . S
C1881 C1880 1.391 . S
C1882 H1872 0.950 . S
C1882 C1883 1.386 . S
C1882 C1884 1.391 . S
C1883 C1882 1.386 . S
C1883 C1887 1.393 . S
C1884 H1873 0.950 . S
C1884 C1882 1.391 . S
C1884 C1885 1.400 . S
C1885 C1879 1.491 . S
C1885 C1884 1.400 . S
C1885 C1886 1.398 . S
C1886 H1874 0.950 . S
C1886 C1885 1.398 . S
C1886 C1887 1.391 . S
C1887 H1875 0.950 . S
C1887 C1883 1.393 . S
C1887 C1886 1.391 . S
H1888 C1896 0.950 . S
H1889 C1901 0.950 . S
H1890 C1898 0.950 . S
H1891 C1900 0.950 . S
H1892 C1902 0.950 . S
H1893 C1904 0.950 . S
H1894 C1906 0.950 . S
H1895 C1907 0.950 . S
C1896 H1888 0.950 . S
C1896 C1897 1.386 . S
C1896 C1898 1.391 . S
C1897 C1896 1.386 . S
C1897 C1901 1.393 . S
C1898 H1890 0.950 . S
C1898 C1896 1.391 . S
C1898 C1899 1.400 . S
C1899 C1898 1.400 . S
C1899 C1900 1.398 . S
C1899 C1905 1.491 . S
C1900 H1891 0.950 . S
C1900 C1899 1.398 . S
C1900 C1901 1.391 . S
C1901 H1889 0.950 . S
C1901 C1897 1.393 . S
C1901 C1900 1.391 . S
C1902 H1892 0.950 . S
C1902 C1903 1.386 . S
C1902 C1904 1.391 . S
C1903 C1902 1.386 . S
C1903 C1907 1.393 . S
C1904 H1893 0.950 . S
C1904 C1902 1.391 . S
C1904 C1905 1.400 . S
C1905 C1899 1.491 . S
C1905 C1904 1.400 . S
C1905 C1906 1.398 . S
C1906 H1894 0.950 . S
C1906 C1905 1.398 . S
C1906 C1907 1.391 . S
C1907 H1895 0.950 . S
C1907 C1903 1.393 . S
C1907 C1906 1.391 . S
H1908 C1916 0.950 . S
H1909 C1921 0.950 . S
H1910 C1918 0.950 . S
H1911 C1920 0.950 . S
H1912 C1922 0.950 . S
H1913 C1924 0.950 . S
H1914 C1926 0.950 . S
H1915 C1927 0.950 . S
C1916 H1908 0.950 . S
C1916 C1917 1.386 . S
C1916 C1918 1.391 . S
C1917 C1916 1.386 . S
C1917 C1921 1.393 . S
C1918 H1910 0.950 . S
C1918 C1916 1.391 . S
C1918 C1919 1.400 . S
C1919 C1918 1.400 . S
C1919 C1920 1.398 . S
C1919 C1925 1.491 . S
C1920 H1911 0.950 . S
C1920 C1919 1.398 . S
C1920 C1921 1.391 . S
C1921 H1909 0.950 . S
C1921 C1917 1.393 . S
C1921 C1920 1.391 . S
C1922 H1912 0.950 . S
C1922 C1923 1.386 . S
C1922 C1924 1.391 . S
C1923 C1922 1.386 . S
C1923 C1927 1.393 . S
C1924 H1913 0.950 . S
C1924 C1922 1.391 . S
C1924 C1925 1.400 . S
C1925 C1919 1.491 . S
C1925 C1924 1.400 . S
C1925 C1926 1.398 . S
C1926 H1914 0.950 . S
C1926 C1925 1.398 . S
C1926 C1927 1.391 . S
C1927 H1915 0.950 . S
C1927 C1923 1.393 . S
C1927 C1926 1.391 . S
H1928 C1936 0.950 . S
H1929 C1941 0.950 . S
H1930 C1938 0.950 . S
H1931 C1940 0.950 . S
H1932 C1942 0.950 . S
H1933 C1944 0.950 . S
H1934 C1946 0.950 . S
H1935 C1947 0.950 . S
C1936 H1928 0.950 . S
C1936 C1937 1.386 . S
C1936 C1938 1.391 . S
C1937 C1936 1.386 . S
C1937 C1941 1.393 . S
C1938 H1930 0.950 . S
C1938 C1936 1.391 . S
C1938 C1939 1.400 . S
C1939 C1938 1.400 . S
C1939 C1940 1.398 . S
C1939 C1945 1.491 . S
C1940 H1931 0.950 . S
C1940 C1939 1.398 . S
C1940 C1941 1.391 . S
C1941 H1929 0.950 . S
C1941 C1937 1.393 . S
C1941 C1940 1.391 . S
C1942 H1932 0.950 . S
C1942 C1943 1.386 . S
C1942 C1944 1.391 . S
C1943 C1942 1.386 . S
C1943 C1947 1.393 . S
C1944 H1933 0.950 . S
C1944 C1942 1.391 . S
C1944 C1945 1.400 . S
C1945 C1939 1.491 . S
C1945 C1944 1.400 . S
C1945 C1946 1.398 . S
C1946 H1934 0.950 . S
C1946 C1945 1.398 . S
C1946 C1947 1.391 . S
C1947 H1935 0.950 . S
C1947 C1943 1.393 . S
C1947 C1946 1.391 . S
H1948 C1956 0.950 . S
H1949 C1961 0.950 . S
H1950 C1958 0.950 . S
H1951 C1960 0.950 . S
H1952 C1962 0.950 . S
H1953 C1964 0.950 . S
H1954 C1966 0.950 . S
H1955 C1967 0.950 . S
C1956 H1948 0.950 . S
C1956 C1957 1.386 . S
C1956 C1958 1.391 . S
C1957 C1956 1.386 . S
C1957 C1961 1.393 . S
C1958 H1950 0.950 . S
C1958 C1956 1.391 . S
C1958 C1959 1.400 . S
C1959 C1958 1.400 . S
C1959 C1960 1.398 . S
C1959 C1965 1.491 . S
C1960 H1951 0.950 . S
C1960 C1959 1.398 . S
C1960 C1961 1.391 . S
C1961 H1949 0.950 . S
C1961 C1957 1.393 . S
C1961 C1960 1.391 . S
C1962 H1952 0.950 . S
C1962 C1963 1.386 . S
C1962 C1964 1.391 . S
C1963 C1962 1.386 . S
C1963 C1967 1.393 . S
C1964 H1953 0.950 . S
C1964 C1962 1.391 . S
C1964 C1965 1.400 . S
C1965 C1959 1.491 . S
C1965 C1964 1.400 . S
C1965 C1966 1.398 . S
C1966 H1954 0.950 . S
C1966 C1965 1.398 . S
C1966 C1967 1.391 . S
C1967 H1955 0.950 . S
C1967 C1963 1.393 . S
C1967 C1966 1.391 . S
C537 C183 1.638 . S
C543 C7 1.657 . S
C557 C29 1.647 . S
C563 C213 1.626 . S
C577 C51 1.646 . S
C583 C227 1.653 . S
C597 C87 1.654 . S
C603 C263 1.628 . S
C617 C103 1.629 . S
C623 C153 1.655 . S
C637 C175 1.654 . S
C643 C125 1.645 . S
C657 C461 1.634 . S
C663 C285 1.632 . S
C677 C483 1.627 . S
C683 C293 1.653 . S
C697 C499 1.634 . S
C703 C329 1.632 . S
C717 C351 1.657 . S
C723 C527 1.634 . S
C737 C417 1.638 . S
C743 C359 1.656 . S
C757 C439 1.635 . S
C763 C395 1.657 . S
C777 C21 2.345 . S
C783 C81 2.342 . S
C797 C95 2.317 . S
C803 C43 2.320 . S
C817 C65 2.326 . S
C823 C117 2.332 . S
C837 C147 2.344 . S
C843 C205 2.340 . S
C857 C169 2.346 . S
C863 C241 2.346 . S
C877 C197 2.344 . S
C883 C257 2.340 . S
C897 C345 2.340 . S
C903 C279 2.334 . S
C917 C307 2.317 . S
C923 C373 2.317 . S
C937 C389 2.327 . S
C943 C323 2.334 . S
C957 C411 2.321 . S
C963 C477 2.317 . S
C977 C433 2.335 . S
C983 C491 2.340 . S
C997 C521 2.346 . S
C1003 C455 2.344 . S
C1017 C15 0.490 . S
C1023 C235 0.518 . S
C1037 C249 0.480 . S
C1043 C37 0.535 . S
C1057 C59 0.515 . S
C1063 C139 0.493 . S
C1077 C73 0.541 . S
C1083 C161 0.483 . S
C1097 C191 0.480 . S
C1103 C109 0.539 . S
C1117 C219 0.500 . S
C1123 C131 0.507 . S
C1137 C271 0.540 . S
C1143 C505 0.481 . S
C1157 C301 0.541 . S
C1163 C513 0.486 . S
C1177 C315 0.540 . S
C1183 C403 0.490 . S
C1197 C337 0.483 . S
C1203 C425 0.541 . S
C1217 C447 0.536 . S
C1223 C367 0.497 . S
C1237 C469 0.531 . S
C1243 C381 0.482 . S
C1257 C18 0.706 . S
C1263 C96 0.651 . S
C1277 C118 0.673 . S
C1283 C40 0.675 . S
C1297 C62 0.713 . S
C1303 C10 0.658 . S
C1317 C32 0.674 . S
C1323 C74 0.693 . S
C1337 C54 0.670 . S
C1343 C98 0.707 . S
C1357 C84 0.644 . S
C1363 C120 0.681 . S
C1377 C140 0.708 . S
C1383 C186 0.669 . S
C1397 C206 0.672 . S
C1403 C162 0.670 . S
C1417 C194 0.652 . S
C1423 C230 0.648 . S
C1437 C208 0.675 . S
C1443 C260 0.673 . S
C1457 C150 0.647 . S
C1463 C238 0.697 . S
C1477 C250 0.645 . S
C1483 C172 0.655 . S
C1497 C272 0.713 . S
C1503 C362 0.665 . S
C1517 C392 0.663 . S
C1523 C304 0.714 . S
C1537 C282 0.658 . S
C1543 C316 0.713 . S
C1557 C338 0.654 . S
C1563 C296 0.646 . S
C1577 C326 0.660 . S
C1583 C370 0.714 . S
C1597 C382 0.687 . S
C1603 C348 0.644 . S
C1617 C404 0.657 . S
C1623 C458 0.668 . S
C1637 C480 0.667 . S
C1643 C426 0.712 . S
C1657 C492 0.658 . S
C1663 C448 0.713 . S
C1677 C470 0.664 . S
C1683 C524 0.644 . S
C1697 C414 0.648 . S
C1703 C494 0.699 . S
C1717 C514 0.669 . S
C1723 C436 0.672 . S
C1737 C340 1.471 . S
C1743 C8 1.478 . S
C1757 C360 1.476 . S
C1763 C30 1.474 . S
C1777 C52 1.477 . S
C1783 C384 1.472 . S
C1797 C274 1.474 . S
C1803 C76 1.476 . S
C1817 C294 1.471 . S
C1823 C106 1.478 . S
C1837 C128 1.476 . S
C1843 C318 1.473 . S
C1857 C472 1.477 . S
C1863 C142 1.472 . S
C1877 C502 1.472 . S
C1883 C164 1.478 . S
C1897 C184 1.475 . S
C1903 C516 1.474 . S
C1917 C406 1.471 . S
C1923 C216 1.478 . S
C1937 C228 1.477 . S
C1943 C428 1.472 . S
C1957 C450 1.478 . S
C1963 C252 1.471 . S
