# Generated by pormake.
# Topology fcp, (5)-cn, num edge types: 1
# Building blocks:
#     Node 0, Type 0, BuildingBlock: BEQFEK_clean_sbu_0, # of connection points: 5
#     Node 1, Type 0, BuildingBlock: BEQFEK_clean_sbu_0, # of connection points: 5
#     Node 2, Type 0, BuildingBlock: BEQFEK_clean_sbu_0, # of connection points: 5
#     Node 3, Type 0, BuildingBlock: BEQFEK_clean_sbu_0, # of connection points: 5
#     Node 4, Type 0, BuildingBlock: BEQFEK_clean_sbu_0, # of connection points: 5
#     Node 5, Type 0, BuildingBlock: BEQFEK_clean_sbu_0, # of connection points: 5
#     Node 6, Type 0, BuildingBlock: BEQFEK_clean_sbu_0, # of connection points: 5
#     Node 7, Type 0, BuildingBlock: BEQFEK_clean_sbu_0, # of connection points: 5
#     Node 8, Type 0, BuildingBlock: BEQFEK_clean_sbu_0, # of connection points: 5
#     Node 9, Type 0, BuildingBlock: BEQFEK_clean_sbu_0, # of connection points: 5
#     Node 10, Type 0, BuildingBlock: BEQFEK_clean_sbu_0, # of connection points: 5
#     Node 11, Type 0, BuildingBlock: BEQFEK_clean_sbu_0, # of connection points: 5
#     Node 12, Type 0, BuildingBlock: BEQFEK_clean_sbu_0, # of connection points: 5
#     Node 13, Type 0, BuildingBlock: BEQFEK_clean_sbu_0, # of connection points: 5
#     Node 14, Type 0, BuildingBlock: BEQFEK_clean_sbu_0, # of connection points: 5
#     Node 15, Type 0, BuildingBlock: BEQFEK_clean_sbu_0, # of connection points: 5
#     Node 16, Type 0, BuildingBlock: BEQFEK_clean_sbu_0, # of connection points: 5
#     Node 17, Type 0, BuildingBlock: BEQFEK_clean_sbu_0, # of connection points: 5
#     Node 18, Type 0, BuildingBlock: BEQFEK_clean_sbu_0, # of connection points: 5
#     Node 19, Type 0, BuildingBlock: BEQFEK_clean_sbu_0, # of connection points: 5
#     Node 20, Type 0, BuildingBlock: BEQFEK_clean_sbu_0, # of connection points: 5
#     Node 21, Type 0, BuildingBlock: BEQFEK_clean_sbu_0, # of connection points: 5
#     Node 22, Type 0, BuildingBlock: BEQFEK_clean_sbu_0, # of connection points: 5
#     Node 23, Type 0, BuildingBlock: BEQFEK_clean_sbu_0, # of connection points: 5
#     Edge 24, Type (0, 0), BuildingBlock: KIFKEQ_clean_linker_1, # of connection points: 2
#     Edge 25, Type (0, 0), BuildingBlock: KIFKEQ_clean_linker_1, # of connection points: 2
#     Edge 26, Type (0, 0), BuildingBlock: KIFKEQ_clean_linker_1, # of connection points: 2
#     Edge 27, Type (0, 0), BuildingBlock: KIFKEQ_clean_linker_1, # of connection points: 2
#     Edge 28, Type (0, 0), BuildingBlock: KIFKEQ_clean_linker_1, # of connection points: 2
#     Edge 29, Type (0, 0), BuildingBlock: KIFKEQ_clean_linker_1, # of connection points: 2
#     Edge 30, Type (0, 0), BuildingBlock: KIFKEQ_clean_linker_1, # of connection points: 2
#     Edge 31, Type (0, 0), BuildingBlock: KIFKEQ_clean_linker_1, # of connection points: 2
#     Edge 32, Type (0, 0), BuildingBlock: KIFKEQ_clean_linker_1, # of connection points: 2
#     Edge 33, Type (0, 0), BuildingBlock: KIFKEQ_clean_linker_1, # of connection points: 2
#     Edge 34, Type (0, 0), BuildingBlock: KIFKEQ_clean_linker_1, # of connection points: 2
#     Edge 35, Type (0, 0), BuildingBlock: KIFKEQ_clean_linker_1, # of connection points: 2
#     Edge 36, Type (0, 0), BuildingBlock: KIFKEQ_clean_linker_1, # of connection points: 2
#     Edge 37, Type (0, 0), BuildingBlock: KIFKEQ_clean_linker_1, # of connection points: 2
#     Edge 38, Type (0, 0), BuildingBlock: KIFKEQ_clean_linker_1, # of connection points: 2
#     Edge 39, Type (0, 0), BuildingBlock: KIFKEQ_clean_linker_1, # of connection points: 2
#     Edge 40, Type (0, 0), BuildingBlock: KIFKEQ_clean_linker_1, # of connection points: 2
#     Edge 41, Type (0, 0), BuildingBlock: KIFKEQ_clean_linker_1, # of connection points: 2
#     Edge 42, Type (0, 0), BuildingBlock: KIFKEQ_clean_linker_1, # of connection points: 2
#     Edge 43, Type (0, 0), BuildingBlock: KIFKEQ_clean_linker_1, # of connection points: 2
#     Edge 44, Type (0, 0), BuildingBlock: KIFKEQ_clean_linker_1, # of connection points: 2
#     Edge 45, Type (0, 0), BuildingBlock: KIFKEQ_clean_linker_1, # of connection points: 2
#     Edge 46, Type (0, 0), BuildingBlock: KIFKEQ_clean_linker_1, # of connection points: 2
#     Edge 47, Type (0, 0), BuildingBlock: KIFKEQ_clean_linker_1, # of connection points: 2
#     Edge 48, Type (0, 0), BuildingBlock: KIFKEQ_clean_linker_1, # of connection points: 2
#     Edge 49, Type (0, 0), BuildingBlock: KIFKEQ_clean_linker_1, # of connection points: 2
#     Edge 50, Type (0, 0), BuildingBlock: KIFKEQ_clean_linker_1, # of connection points: 2
#     Edge 51, Type (0, 0), BuildingBlock: KIFKEQ_clean_linker_1, # of connection points: 2
#     Edge 52, Type (0, 0), BuildingBlock: KIFKEQ_clean_linker_1, # of connection points: 2
#     Edge 53, Type (0, 0), BuildingBlock: KIFKEQ_clean_linker_1, # of connection points: 2
#     Edge 54, Type (0, 0), BuildingBlock: KIFKEQ_clean_linker_1, # of connection points: 2
#     Edge 55, Type (0, 0), BuildingBlock: KIFKEQ_clean_linker_1, # of connection points: 2
#     Edge 56, Type (0, 0), BuildingBlock: KIFKEQ_clean_linker_1, # of connection points: 2
#     Edge 57, Type (0, 0), BuildingBlock: KIFKEQ_clean_linker_1, # of connection points: 2
#     Edge 58, Type (0, 0), BuildingBlock: KIFKEQ_clean_linker_1, # of connection points: 2
#     Edge 59, Type (0, 0), BuildingBlock: KIFKEQ_clean_linker_1, # of connection points: 2
#     Edge 60, Type (0, 0), BuildingBlock: KIFKEQ_clean_linker_1, # of connection points: 2
#     Edge 61, Type (0, 0), BuildingBlock: KIFKEQ_clean_linker_1, # of connection points: 2
#     Edge 62, Type (0, 0), BuildingBlock: KIFKEQ_clean_linker_1, # of connection points: 2
#     Edge 63, Type (0, 0), BuildingBlock: KIFKEQ_clean_linker_1, # of connection points: 2
#     Edge 64, Type (0, 0), BuildingBlock: KIFKEQ_clean_linker_1, # of connection points: 2
#     Edge 65, Type (0, 0), BuildingBlock: KIFKEQ_clean_linker_1, # of connection points: 2
#     Edge 66, Type (0, 0), BuildingBlock: KIFKEQ_clean_linker_1, # of connection points: 2
#     Edge 67, Type (0, 0), BuildingBlock: KIFKEQ_clean_linker_1, # of connection points: 2
#     Edge 68, Type (0, 0), BuildingBlock: KIFKEQ_clean_linker_1, # of connection points: 2
#     Edge 69, Type (0, 0), BuildingBlock: KIFKEQ_clean_linker_1, # of connection points: 2
#     Edge 70, Type (0, 0), BuildingBlock: KIFKEQ_clean_linker_1, # of connection points: 2
#     Edge 71, Type (0, 0), BuildingBlock: KIFKEQ_clean_linker_1, # of connection points: 2
#     Edge 72, Type (0, 0), BuildingBlock: KIFKEQ_clean_linker_1, # of connection points: 2
#     Edge 73, Type (0, 0), BuildingBlock: KIFKEQ_clean_linker_1, # of connection points: 2
#     Edge 74, Type (0, 0), BuildingBlock: KIFKEQ_clean_linker_1, # of connection points: 2
#     Edge 75, Type (0, 0), BuildingBlock: KIFKEQ_clean_linker_1, # of connection points: 2
#     Edge 76, Type (0, 0), BuildingBlock: KIFKEQ_clean_linker_1, # of connection points: 2
#     Edge 77, Type (0, 0), BuildingBlock: KIFKEQ_clean_linker_1, # of connection points: 2
#     Edge 78, Type (0, 0), BuildingBlock: KIFKEQ_clean_linker_1, # of connection points: 2
#     Edge 79, Type (0, 0), BuildingBlock: KIFKEQ_clean_linker_1, # of connection points: 2
#     Edge 80, Type (0, 0), BuildingBlock: KIFKEQ_clean_linker_1, # of connection points: 2
#     Edge 81, Type (0, 0), BuildingBlock: KIFKEQ_clean_linker_1, # of connection points: 2
#     Edge 82, Type (0, 0), BuildingBlock: KIFKEQ_clean_linker_1, # of connection points: 2
#     Edge 83, Type (0, 0), BuildingBlock: KIFKEQ_clean_linker_1, # of connection points: 2
# Relax obj value: 0.276
# Max RMSD: 0.212
# Mean RMSD: 0.212
data_MOF--net-fcp--node1-BEQFEK_clean_sbu_0--edge1-KIFKEQ_clean_linker_1
_symmetry_space_group_name_H-M    P1
_symmetry_Int_Tables_number       1
_symmetry_cell_setting            triclinic
loop_
_symmetry_equiv_pos_as_xyz
'x, y, z'
_cell_length_a     52.462302
_cell_length_b     52.463161
_cell_length_c     52.466674
_cell_angle_alpha  89.946056
_cell_angle_beta   90.001126
_cell_angle_gamma 89.997789
loop_
_atom_site_label
_atom_site_type_symbol
_atom_site_fract_x
_atom_site_fract_y
_atom_site_fract_z
_atom_type_partial_charge
Co0 Co 0.03974 0.34099 0.16729 0.0
Co1 Co 0.09193 0.32725 0.14178 0.0
C2 C 0.06624 0.29221 0.17922 0.0
O3 O 0.04678 0.30655 0.18146 0.0
O4 O 0.08476 0.2983 0.16478 0.0
C5 C 0.98956 0.33817 0.18957 0.0
O6 O 0.99278 0.31337 0.18834 0.0
C7 C 0.13036 0.29598 0.1164 0.0
C8 C 0.15514 0.32483 0.09827 0.0
C9 C 0.1521 0.29883 0.1017 0.0
N10 N 0.12103 0.31922 0.12163 0.0
N11 N 0.13588 0.33641 0.1107 0.0
C12 C 0.11755 0.27159 0.12382 0.0
H13 H 0.09655 0.27402 0.12344 0.0
H14 H 0.12299 0.25585 0.11079 0.0
H15 H 0.12333 0.26643 0.1435 0.0
C16 C 0.02458 0.34646 0.11282 0.0
N17 N 0.04176 0.3413 0.13121 0.0
N18 N 0.06347 0.33466 0.12056 0.0
C19 C 0.06063 0.33473 0.09504 0.0
C20 C 0.03597 0.3425 0.08918 0.0
C21 C 0.99816 0.35585 0.11801 0.0
H22 H -0.00154 0.36959 0.13405 0.0
H23 H 0.986 0.33948 0.12367 0.0
H24 H 0.98978 0.36521 0.10099 0.0
O25 O 0.06448 0.36489 0.18238 0.0
O26 O 0.10138 0.35655 0.16361 0.0
H27 H 0.09564 0.33985 0.07481 0.0
H28 H 0.07235 0.32102 0.05779 0.0
C29 C 0.08046 0.32527 0.07682 0.0
H30 H 0.08912 0.30755 0.08434 0.0
H31 H 0.13291 0.35605 0.11181 0.0
O32 O 0.0064 0.35281 0.18018 0.0
C33 C 0.08815 0.36922 0.1795 0.0
Co34 Co 0.83355 0.45547 0.33364 0.0
Co35 Co 0.82897 0.4017 0.3592 0.0
C36 C 0.78708 0.42401 0.32671 0.0
O37 O 0.79885 0.44499 0.32372 0.0
O38 O 0.79681 0.40583 0.33955 0.0
C39 C 0.83412 0.49162 0.29612 0.0
O40 O 0.82388 0.47173 0.28488 0.0
C41 C 0.80459 0.36259 0.39029 0.0
C42 C 0.83468 0.33326 0.39292 0.0
C43 C 0.80956 0.33827 0.39935 0.0
N44 N 0.82581 0.37157 0.37915 0.0
N45 N 0.84389 0.35414 0.38118 0.0
C46 C 0.77936 0.37584 0.38929 0.0
H47 H 0.78208 0.39667 0.38684 0.0
H48 H 0.76824 0.3722 0.40688 0.0
H49 H 0.7683 0.36842 0.37286 0.0
C50 C 0.84067 0.47085 0.38781 0.0
N51 N 0.83758 0.45316 0.36946 0.0
N52 N 0.8356 0.43051 0.38012 0.0
C53 C 0.83755 0.43305 0.40558 0.0
C54 C 0.84066 0.45867 0.41135 0.0
C55 C 0.84163 0.4989 0.3828 0.0
H56 H 0.82723 0.50405 0.36818 0.0
H57 H 0.83819 0.51006 0.40043 0.0
H58 H 0.86069 0.50385 0.37508 0.0
O59 O 0.8582 0.43345 0.31539 0.0
O60 O 0.85673 0.3958 0.33448 0.0
H61 H 0.84354 0.41707 0.4432 0.0
H62 H 0.81685 0.40428 0.42565 0.0
C63 C 0.83673 0.41129 0.42404 0.0
H64 H 0.84884 0.39549 0.417 0.0
H65 H 0.86212 0.35601 0.37343 0.0
O66 O 0.83977 0.49002 0.31966 0.0
C67 C 0.86574 0.4105 0.31743 0.0
Co68 Co 0.95634 0.65346 0.16687 0.0
Co69 Co 0.90398 0.66604 0.14115 0.0
C70 C 0.9302 0.70241 0.17732 0.0
O71 O 0.94969 0.68823 0.18011 0.0
O72 O 0.91171 0.69566 0.16316 0.0
C73 C 0.00678 0.65616 0.18882 0.0
O74 O 0.00379 0.68097 0.18721 0.0
C75 C 0.86901 0.69828 0.11265 0.0
C76 C 0.83774 0.67183 0.10295 0.0
C77 C 0.84525 0.69713 0.1009 0.0
N78 N 0.87494 0.67493 0.12134 0.0
N79 N 0.85626 0.65916 0.1154 0.0
C80 C 0.88678 0.72054 0.11448 0.0
H81 H 0.90681 0.71386 0.11588 0.0
H82 H 0.88477 0.73318 0.09763 0.0
H83 H 0.88238 0.73156 0.13197 0.0
C84 C 0.9715 0.64741 0.11247 0.0
N85 N 0.95416 0.65229 0.13076 0.0
N86 N 0.93212 0.65754 0.11998 0.0
C87 C 0.93471 0.65623 0.09446 0.0
C88 C 0.95979 0.64971 0.08877 0.0
C89 C -0.00141 0.64026 0.11782 0.0
H90 H -0.00081 0.6257 0.13315 0.0
H91 H 0.00902 0.65732 0.12471 0.0
H92 H 0.00819 0.63264 0.1006 0.0
O93 O 0.93137 0.63001 0.18268 0.0
O94 O 0.89435 0.63731 0.16366 0.0
H95 H 0.89733 0.65051 0.07916 0.0
H96 H 0.92013 0.66192 0.05593 0.0
C97 C 0.91399 0.66317 0.07606 0.0
H98 H 0.90788 0.68302 0.07965 0.0
H99 H 0.85597 0.63984 0.1202 0.0
O100 O 0.98968 0.64155 0.17985 0.0
C101 C 0.90774 0.62528 0.17994 0.0
Co102 Co 0.16367 0.53842 0.3321 0.0
Co103 Co 0.17015 0.5925 0.35639 0.0
C104 C 0.21154 0.56793 0.32516 0.0
O105 O 0.19894 0.54741 0.32253 0.0
O106 O 0.20238 0.5868 0.33734 0.0
C107 C 0.16413 0.50047 0.29625 0.0
O108 O 0.17649 0.51907 0.2849 0.0
C109 C 0.19565 0.63203 0.38595 0.0
C110 C 0.16621 0.66209 0.38762 0.0
C111 C 0.19133 0.65685 0.39389 0.0
N112 N 0.17408 0.62305 0.37548 0.0
N113 N 0.1564 0.64092 0.37697 0.0
C114 C 0.22059 0.61822 0.38517 0.0
H115 H 0.23163 0.62483 0.36839 0.0
H116 H 0.2174 0.59737 0.38357 0.0
H117 H 0.23199 0.62218 0.40249 0.0
C118 C 0.15464 0.52467 0.38643 0.0
N119 N 0.15913 0.54176 0.36778 0.0
N120 N 0.16227 0.56446 0.37798 0.0
C121 C 0.15991 0.56254 0.40347 0.0
C122 C 0.15505 0.5373 0.4097 0.0
C123 C 0.15188 0.49666 0.38197 0.0
H124 H 0.16774 0.48989 0.36972 0.0
H125 H 0.15176 0.48579 0.40012 0.0
H126 H 0.13383 0.4931 0.37154 0.0
O127 O 0.1399 0.56071 0.31298 0.0
O128 O 0.14276 0.59866 0.33123 0.0
H129 H 0.15042 0.60061 0.41464 0.0
H130 H 0.15601 0.57923 0.44104 0.0
C131 C 0.16223 0.58449 0.42152 0.0
H132 H 0.18238 0.59085 0.42217 0.0
H133 H 0.13806 0.63914 0.36949 0.0
O134 O 0.15666 0.50367 0.3191 0.0
C135 C 0.1332 0.58396 0.3145 0.0
Co136 Co 0.03247 0.661 0.83196 0.0
Co137 Co 0.0858 0.67058 0.85717 0.0
C138 C 0.06193 0.70815 0.821 0.0
O139 O 0.04169 0.69508 0.81853 0.0
O140 O 0.08013 0.70049 0.83504 0.0
C141 C 0.98534 0.66683 0.80499 0.0
O142 O 0.99382 0.69006 0.80113 0.0
C143 C 0.1219 0.70127 0.88522 0.0
C144 C 0.15376 0.67468 0.89225 0.0
C145 C 0.14639 0.69993 0.8952 0.0
N146 N 0.11542 0.67813 0.87649 0.0
N147 N 0.13441 0.66222 0.88092 0.0
C148 C 0.10427 0.7237 0.88458 0.0
H149 H 0.08414 0.71717 0.88492 0.0
H150 H 0.10785 0.73653 0.901 0.0
H151 H 0.10727 0.73447 0.86662 0.0
C152 C 0.01763 0.65597 0.88656 0.0
N153 N 0.03495 0.66004 0.86803 0.0
N154 N 0.05737 0.66417 0.87854 0.0
C155 C 0.05502 0.66289 0.90406 0.0
C156 C 0.02979 0.65774 0.91001 0.0
C157 C 0.98991 0.65143 0.88171 0.0
H158 H 0.98261 0.66606 0.86828 0.0
H159 H 0.97867 0.65194 0.89962 0.0
H160 H 0.98753 0.63255 0.87249 0.0
O161 O 0.05573 0.63561 0.81623 0.0
O162 O 0.09322 0.64113 0.83501 0.0
H163 H 0.07136 0.65908 0.94181 0.0
H164 H 0.08264 0.6858 0.9233 0.0
C165 C 0.07673 0.66553 0.92239 0.0
H166 H 0.09318 0.65412 0.91566 0.0
H167 H 0.13446 0.64306 0.87552 0.0
O168 O 0.99793 0.65184 0.81932 0.0
C169 C 0.07909 0.62961 0.81901 0.0
Co170 Co 0.15649 0.45958 0.66556 0.0
Co171 Co 0.16744 0.40734 0.63871 0.0
C172 C 0.20562 0.43153 0.67346 0.0
O173 O 0.19153 0.45095 0.67707 0.0
O174 O 0.1985 0.41336 0.65909 0.0
C175 C 0.15149 0.49377 0.70422 0.0
O176 O 0.16119 0.47352 0.71534 0.0
C177 C 0.19488 0.36843 0.60965 0.0
C178 C 0.16451 0.34026 0.60216 0.0
C179 C 0.19037 0.34462 0.59924 0.0
N180 N 0.17266 0.37783 0.61823 0.0
N181 N 0.15449 0.36109 0.61331 0.0
C182 C 0.2202 0.3808 0.61407 0.0
H183 H 0.21803 0.4018 0.61506 0.0
H184 H 0.23388 0.37588 0.59875 0.0
H185 H 0.22811 0.37388 0.63243 0.0
C186 C 0.14878 0.47571 0.61159 0.0
N187 N 0.15391 0.45805 0.62953 0.0
N188 N 0.15904 0.43621 0.61833 0.0
C189 C 0.15773 0.43933 0.59287 0.0
C190 C 0.151 0.46446 0.58766 0.0
C191 C 0.14161 0.50266 0.61747 0.0
H192 H 0.12923 0.50323 0.63459 0.0
H193 H 0.15915 0.51369 0.62171 0.0
H194 H 0.13155 0.51167 0.60118 0.0
O195 O 0.13235 0.4357 0.6818 0.0
O196 O 0.1399 0.39863 0.66306 0.0
H197 H 0.15112 0.40357 0.57449 0.0
H198 H 0.16711 0.42671 0.55448 0.0
C199 C 0.16536 0.4192 0.57413 0.0
H200 H 0.18405 0.41117 0.57975 0.0
H201 H 0.13548 0.36335 0.61869 0.0
O202 O 0.14784 0.49325 0.68025 0.0
C203 C 0.12793 0.41201 0.67934 0.0
Co204 Co 0.96034 0.33826 0.83347 0.0
Co205 Co 0.90765 0.32455 0.85917 0.0
C206 C 0.93258 0.28896 0.82268 0.0
O207 O 0.95138 0.30403 0.81981 0.0
O208 O 0.91428 0.29438 0.83765 0.0
C209 C 0.0073 0.33281 0.80616 0.0
O210 O -0.00082 0.30937 0.80297 0.0
C211 C 0.86477 0.2974 0.88325 0.0
C212 C 0.84828 0.32719 0.90802 0.0
C213 C 0.84588 0.30179 0.90126 0.0
N214 N 0.87817 0.31901 0.88006 0.0
N215 N 0.86804 0.33681 0.89473 0.0
C216 C 0.86843 0.27413 0.86721 0.0
H217 H 0.86897 0.27994 0.84693 0.0
H218 H 0.88692 0.26506 0.87206 0.0
H219 H 0.85277 0.26015 0.86951 0.0
C220 C 0.97525 0.34438 0.88777 0.0
N221 N 0.95811 0.3389 0.86945 0.0
N222 N 0.93653 0.33186 0.88016 0.0
C223 C 0.93962 0.33165 0.90567 0.0
C224 C 0.96409 0.34002 0.91144 0.0
C225 C 0.00139 0.35447 0.88247 0.0
H226 H 0.00093 0.36723 0.86561 0.0
H227 H 0.01429 0.33829 0.87813 0.0
H228 H 0.00903 0.36511 0.89907 0.0
O229 O 0.93661 0.36308 0.81841 0.0
O230 O 0.89927 0.3532 0.8357 0.0
H231 H 0.9068 0.33602 0.92943 0.0
H232 H 0.92998 0.31383 0.9416 0.0
C233 C 0.92056 0.32092 0.92404 0.0
H234 H 0.9101 0.30488 0.91516 0.0
H235 H 0.8748 0.35548 0.89585 0.0
O236 O 0.9946 0.34791 0.82025 0.0
C237 C 0.91273 0.3666 0.82056 0.0
Co238 Co 0.84052 0.53529 0.66717 0.0
Co239 Co 0.82241 0.58685 0.64213 0.0
C240 C 0.78938 0.55944 0.67873 0.0
O241 O 0.8065 0.54257 0.68194 0.0
O242 O 0.79244 0.57765 0.66299 0.0
C243 C 0.83605 0.48682 0.69178 0.0
O244 O 0.81173 0.49272 0.69229 0.0
C245 C 0.79385 0.6305 0.62085 0.0
C246 C 0.82187 0.64668 0.59387 0.0
C247 C 0.7972 0.64963 0.60281 0.0
N248 N 0.81529 0.61647 0.62192 0.0
N249 N 0.83205 0.62646 0.60598 0.0
C250 C 0.77183 0.6271 0.63869 0.0
H251 H 0.77902 0.62313 0.65816 0.0
H252 H 0.76022 0.61061 0.63235 0.0
H253 H 0.75967 0.64435 0.63958 0.0
C254 C 0.84567 0.52076 0.61273 0.0
N255 N 0.84002 0.53768 0.63118 0.0
N256 N 0.8315 0.55884 0.62069 0.0
C257 C 0.83059 0.55567 0.59521 0.0
C258 C 0.83994 0.53162 0.58922 0.0
C259 C 0.85683 0.495 0.61774 0.0
H260 H 0.87033 0.49601 0.63397 0.0
H261 H 0.84128 0.48164 0.62297 0.0
H262 H 0.86689 0.48756 0.60069 0.0
O263 O 0.86444 0.56 0.68166 0.0
O264 O 0.85053 0.59667 0.66582 0.0
H265 H 0.83236 0.58805 0.5705 0.0
H266 H 0.81032 0.56389 0.56028 0.0
C267 C 0.81809 0.57396 0.57717 0.0
H268 H 0.80227 0.58411 0.58679 0.0
H269 H 0.85044 0.61938 0.60328 0.0
O270 O 0.85154 0.50138 0.6801 0.0
C271 C 0.86566 0.58415 0.68012 0.0
Co272 Co 0.16444 0.03894 0.3434 0.0
Co273 Co 0.13774 0.09085 0.32924 0.0
C274 C 0.17274 0.06577 0.29291 0.0
O275 O 0.17697 0.04805 0.30892 0.0
O276 O 0.15718 0.08371 0.29776 0.0
C277 C 0.19323 0.99304 0.33747 0.0
O278 O 0.19638 0.0018 0.31425 0.0
C279 C 0.10924 0.13066 0.30203 0.0
C280 C 0.09924 0.15693 0.33336 0.0
C281 C 0.09767 0.15382 0.30721 0.0
N282 N 0.11714 0.12041 0.32415 0.0
N283 N 0.11076 0.13603 0.34285 0.0
C284 C 0.1153 0.11975 0.27639 0.0
H285 H 0.11405 0.09865 0.27706 0.0
H286 H 0.10227 0.12714 0.26149 0.0
H287 H 0.13509 0.12508 0.27119 0.0
C288 C 0.11039 0.02329 0.35046 0.0
N289 N 0.12841 0.04075 0.34498 0.0
N290 N 0.11729 0.06232 0.33858 0.0
C291 C 0.09182 0.05916 0.33931 0.0
C292 C 0.08651 0.03434 0.34707 0.0
C293 C 0.11618 0.99673 0.35907 0.0
H294 H 0.13283 0.99686 0.3721 0.0
H295 H 0.12118 0.98496 0.34223 0.0
H296 H 0.0996 0.98804 0.36894 0.0
O297 O 0.17995 0.06293 0.36753 0.0
O298 O 0.1628 0.09993 0.35633 0.0
H299 H 0.07211 0.09448 0.34424 0.0
H300 H 0.05391 0.07071 0.32714 0.0
C301 C 0.0732 0.07877 0.33014 0.0
H302 H 0.07991 0.08681 0.31181 0.0
H303 H 0.11522 0.13291 0.36198 0.0
O304 O 0.1785 0.00487 0.35269 0.0
C305 C 0.17814 0.08697 0.36998 0.0
Co306 Co 0.53187 0.32979 0.16159 0.0
Co307 Co 0.58612 0.35247 0.17307 0.0
C308 C 0.5592 0.31852 0.21028 0.0
O309 O 0.53983 0.31656 0.19589 0.0
O310 O 0.57838 0.33187 0.2038 0.0
C311 C 0.48327 0.30577 0.16768 0.0
O312 O 0.49062 0.30345 0.19149 0.0
C313 C 0.6256 0.3793 0.20185 0.0
C314 C 0.6566 0.38212 0.17351 0.0
C315 C 0.65068 0.38692 0.19878 0.0
N316 N 0.61702 0.37044 0.17939 0.0
N317 N 0.63552 0.37258 0.16242 0.0
C318 C 0.611 0.37766 0.2263 0.0
H319 H 0.61825 0.36132 0.23761 0.0
H320 H 0.59037 0.37505 0.22254 0.0
H321 H 0.61373 0.39518 0.23776 0.0
C322 C 0.52007 0.38482 0.15482 0.0
N323 N 0.53634 0.36561 0.15982 0.0
N324 N 0.55897 0.37513 0.16496 0.0
C325 C 0.5578 0.40076 0.16361 0.0
C326 C 0.53308 0.40782 0.15704 0.0
C327 C 0.49275 0.38096 0.1476 0.0
H328 H 0.49116 0.3648 0.13408 0.0
H329 H 0.48166 0.37603 0.16492 0.0
H330 H 0.48453 0.39832 0.13874 0.0
O331 O 0.55465 0.3121 0.13759 0.0
O332 O 0.593 0.3284 0.14469 0.0
H333 H 0.59556 0.41485 0.1574 0.0
H334 H 0.574 0.43833 0.17062 0.0
C335 C 0.57944 0.41795 0.17073 0.0
H336 H 0.58603 0.41305 0.19018 0.0
H337 H 0.63415 0.36633 0.14359 0.0
O338 O 0.49703 0.31837 0.15219 0.0
C339 C 0.57841 0.31305 0.13285 0.0
Co340 Co 0.83199 0.95804 0.33299 0.0
Co341 Co 0.85693 0.90423 0.32581 0.0
C342 C 0.82617 0.92966 0.28443 0.0
O343 O 0.82305 0.94987 0.29743 0.0
O344 O 0.8384 0.91068 0.29339 0.0
C345 C 0.79493 0.99449 0.33487 0.0
O346 O 0.78372 0.97533 0.32331 0.0
C347 C 0.88695 0.86488 0.30015 0.0
C348 C 0.88918 0.83504 0.32979 0.0
C349 C 0.89531 0.84022 0.30463 0.0
N350 N 0.8764 0.87387 0.32169 0.0
N351 N 0.87823 0.85611 0.33948 0.0
C352 C 0.88597 0.87851 0.27512 0.0
H353 H 0.88505 0.89942 0.27818 0.0
H354 H 0.90284 0.87386 0.2633 0.0
H355 H 0.86866 0.8724 0.26461 0.0
C356 C 0.88605 0.97207 0.34281 0.0
N357 N 0.86761 0.95487 0.33799 0.0
N358 N 0.87806 0.93229 0.33468 0.0
C359 C 0.9035 0.93441 0.33731 0.0
C360 C 0.90945 0.95966 0.34248 0.0
C361 C 0.88129 3e-05 0.34563 0.0
H362 H 0.86814 0.00657 0.3304 0.0
H363 H 0.89927 0.01115 0.34477 0.0
H364 H 0.8718 0.00354 0.3642 0.0
O365 O 0.81277 0.93496 0.35579 0.0
O366 O 0.83134 0.89718 0.3526 0.0
H367 H 0.94119 0.91793 0.34133 0.0
H368 H 0.92262 0.90654 0.31464 0.0
C369 C 0.92177 0.91263 0.33486 0.0
H370 H 0.91492 0.8963 0.34641 0.0
H371 H 0.8708 0.8579 0.35784 0.0
O372 O 0.81835 0.99236 0.34086 0.0
C373 C 0.81431 0.9116 0.36206 0.0
Co374 Co 0.46478 0.66651 0.15601 0.0
Co375 Co 0.41195 0.64205 0.17019 0.0
C376 C 0.43791 0.67931 0.20461 0.0
O377 O 0.45649 0.68199 0.18932 0.0
O378 O 0.4196 0.6642 0.19972 0.0
C379 C 0.51272 0.69192 0.16058 0.0
O380 O 0.50557 0.69442 0.18442 0.0
C381 C 0.37595 0.61457 0.20215 0.0
C382 C 0.34378 0.60748 0.17598 0.0
C383 C 0.35141 0.60467 0.20116 0.0
N384 N 0.38224 0.62315 0.17887 0.0
N385 N 0.36303 0.61868 0.16322 0.0
C386 C 0.39377 0.61514 0.2244 0.0
H387 H 0.41385 0.61536 0.21775 0.0
H388 H 0.39056 0.59842 0.23698 0.0
H389 H 0.39036 0.63275 0.23551 0.0
C390 C 0.47923 0.61167 0.15339 0.0
N391 N 0.4621 0.63044 0.15714 0.0
N392 N 0.43987 0.62024 0.16282 0.0
C393 C 0.44215 0.59468 0.16282 0.0
C394 C 0.46715 0.58839 0.15698 0.0
C395 C 0.50679 0.61623 0.14771 0.0
H396 H 0.51456 0.63037 0.16137 0.0
H397 H 0.51806 0.59836 0.14881 0.0
H398 H 0.50857 0.62448 0.12831 0.0
O399 O 0.44088 0.68095 0.1308 0.0
O400 O 0.40338 0.66405 0.14064 0.0
H401 H 0.42552 0.5569 0.16144 0.0
H402 H 0.41591 0.57639 0.18806 0.0
C403 C 0.42059 0.57656 0.16746 0.0
H404 H 0.4035 0.58291 0.15678 0.0
H405 H 0.36281 0.62388 0.14402 0.0
O406 O 0.4991 0.67872 0.14546 0.0
C407 C 0.41703 0.67876 0.12696 0.0
Co408 Co 0.16654 0.95669 0.65636 0.0
Co409 Co 0.14024 0.90407 0.66681 0.0
C410 C 0.17378 0.9291 0.70567 0.0
O411 O 0.17739 0.94857 0.69164 0.0
O412 O 0.15996 0.91062 0.69824 0.0
C413 C 0.20457 0.99146 0.65156 0.0
O414 O 0.21581 0.97146 0.66163 0.0
C415 C 0.10992 0.86627 0.6942 0.0
C416 C 0.10554 0.83605 0.66523 0.0
C417 C 0.10049 0.8419 0.69047 0.0
N418 N 0.12003 0.87448 0.67215 0.0
N419 N 0.11695 0.85652 0.65478 0.0
C420 C 0.11228 0.88027 0.71892 0.0
H421 H 0.1298 0.8738 0.72886 0.0
H422 H 0.11372 0.90108 0.71542 0.0
H423 H 0.09575 0.87635 0.73147 0.0
C424 C 0.11261 0.9722 0.64846 0.0
N425 N 0.1307 0.95461 0.65325 0.0
N426 N 0.1197 0.93251 0.65785 0.0
C427 C 0.09426 0.93538 0.65624 0.0
C428 C 0.08892 0.96056 0.65027 0.0
C429 C 0.11808 -0.00017 0.64413 0.0
H430 H 0.12976 0.00723 0.66013 0.0
H431 H 0.1003 0.01117 0.64245 0.0
H432 H 0.12951 0.00196 0.62646 0.0
O433 O 0.18352 0.93282 0.63269 0.0
O434 O 0.16497 0.89553 0.63979 0.0
H435 H 0.05575 0.92041 0.65555 0.0
H436 H 0.0758 0.9089 0.68109 0.0
C437 C 0.07538 0.91445 0.66069 0.0
H438 H 0.08068 0.89757 0.64916 0.0
H439 H 0.12378 0.85775 0.63614 0.0
O440 O 0.18068 0.99054 0.64751 0.0
C441 C 0.18135 0.90911 0.62818 0.0
Co442 Co 0.45645 0.33383 0.83864 0.0
Co443 Co 0.40229 0.35768 0.82906 0.0
C444 C 0.42806 0.32527 0.78988 0.0
O445 O 0.44772 0.32223 0.80374 0.0
O446 O 0.40925 0.33852 0.79749 0.0
C447 C 0.50387 0.30778 0.83209 0.0
O448 O 0.49477 0.30358 0.80918 0.0
C449 C 0.3637 0.38694 0.80182 0.0
C450 C 0.33213 0.38802 0.82965 0.0
C451 C 0.33863 0.3946 0.80491 0.0
N452 N 0.37168 0.37637 0.82374 0.0
N453 N 0.35288 0.37748 0.84047 0.0
C454 C 0.37877 0.38661 0.77761 0.0
H455 H 0.39944 0.38502 0.78182 0.0
H456 H 0.37524 0.4041 0.7663 0.0
H457 H 0.37281 0.36997 0.766 0.0
C458 C 0.46944 0.38849 0.84559 0.0
N459 N 0.45257 0.3696 0.84141 0.0
N460 N 0.42986 0.37956 0.83746 0.0
C461 C 0.43157 0.40512 0.83906 0.0
C462 C 0.45668 0.41165 0.84416 0.0
C463 C 0.49745 0.38428 0.8489 0.0
H464 H 0.50447 0.37136 0.83371 0.0
H465 H 0.50825 0.40245 0.84828 0.0
H466 H 0.50084 0.37471 0.86747 0.0
O467 O 0.43388 0.31585 0.86303 0.0
O468 O 0.39557 0.33245 0.85618 0.0
H469 H 0.39297 0.41592 0.84684 0.0
H470 H 0.41435 0.4425 0.84236 0.0
C471 C 0.40956 0.42298 0.83582 0.0
H472 H 0.40415 0.42373 0.8154 0.0
H473 H 0.35379 0.36984 0.85881 0.0
O474 O 0.49146 0.32202 0.8473 0.0
C475 C 0.41011 0.31685 0.86776 0.0
Co476 Co 0.83515 0.04025 0.66361 0.0
Co477 Co 0.86224 0.09315 0.66907 0.0
C478 C 0.83079 0.07002 0.71136 0.0
O479 O 0.8269 0.04946 0.69914 0.0
O480 O 0.84359 0.08819 0.70161 0.0
C481 C 0.79669 0.00504 0.66239 0.0
O482 O 0.78593 0.02471 0.67353 0.0
C483 C 0.89331 0.13194 0.69406 0.0
C484 C 0.89764 0.16075 0.66366 0.0
C485 C 0.90288 0.15604 0.68911 0.0
N486 N 0.88298 0.12275 0.67251 0.0
N487 N 0.88607 0.13985 0.65426 0.0
C488 C 0.89116 0.11913 0.71947 0.0
H489 H 0.88918 0.09822 0.71704 0.0
H490 H 0.90807 0.12315 0.73144 0.0
H491 H 0.87409 0.12654 0.72951 0.0
C492 C 0.88827 0.02407 0.65222 0.0
N493 N 0.87071 0.04195 0.65771 0.0
N494 N 0.88214 0.06409 0.66056 0.0
C495 C 0.90742 0.06099 0.65727 0.0
C496 C 0.9122 0.03549 0.65175 0.0
C497 C 0.88202 0.99665 0.64748 0.0
H498 H 0.86447 0.99525 0.63578 0.0
H499 H 0.8783 0.9871 0.66598 0.0
H500 H 0.89786 0.98673 0.63758 0.0
O501 O 0.81645 0.06357 0.64079 0.0
O502 O 0.83655 0.10068 0.6424 0.0
H503 H 0.92393 0.09705 0.6478 0.0
H504 H 0.94646 0.07461 0.66122 0.0
C505 C 0.92658 0.08162 0.66203 0.0
H506 H 0.92332 0.08979 0.6812 0.0
H507 H 0.87903 0.13784 0.63577 0.0
O508 O 0.8202 0.00637 0.65659 0.0
C509 C 0.81872 0.08667 0.6338 0.0
Co510 Co 0.53691 0.66583 0.8324 0.0
Co511 Co 0.58934 0.63829 0.82342 0.0
C512 C 0.56458 0.67121 0.78319 0.0
O513 O 0.54492 0.67514 0.79682 0.0
O514 O 0.58302 0.65766 0.79135 0.0
C515 C 0.50168 0.70418 0.83555 0.0
O516 O 0.52128 0.71553 0.82483 0.0
C517 C 0.63179 0.61204 0.79804 0.0
C518 C 0.64787 0.58845 0.82901 0.0
C519 C 0.65032 0.59394 0.80331 0.0
N520 N 0.61845 0.61652 0.81942 0.0
N521 N 0.62833 0.60255 0.83795 0.0
C522 C 0.62874 0.62724 0.77412 0.0
H523 H 0.62916 0.64772 0.77919 0.0
H524 H 0.61003 0.62283 0.76529 0.0
H525 H 0.6442 0.62373 0.7602 0.0
C526 C 0.52053 0.61279 0.84306 0.0
N527 N 0.53848 0.63017 0.83715 0.0
N528 N 0.56007 0.61842 0.83212 0.0
C529 C 0.55627 0.59305 0.83382 0.0
C530 C 0.5312 0.58861 0.8412 0.0
C531 C 0.49383 0.61948 0.85052 0.0
H532 H 0.49389 0.63677 0.86266 0.0
H533 H 0.48265 0.62379 0.83308 0.0
H534 H 0.48455 0.60361 0.86099 0.0
O535 O 0.56109 0.68361 0.85479 0.0
O536 O 0.59798 0.66348 0.85047 0.0
H537 H 0.58832 0.56904 0.84133 0.0
H538 H 0.5656 0.5555 0.8195 0.0
C539 C 0.57518 0.57341 0.82536 0.0
H540 H 0.58634 0.58063 0.80896 0.0
H541 H 0.62159 0.60248 0.85666 0.0
O542 O 0.50323 0.68051 0.84057 0.0
C543 C 0.58451 0.68104 0.86042 0.0
Co544 Co 0.34106 0.16332 0.03796 0.0
Co545 Co 0.32482 0.13814 0.09001 0.0
C546 C 0.29047 0.1741 0.06258 0.0
O547 O 0.30682 0.17763 0.04505 0.0
O548 O 0.29473 0.1589 0.08099 0.0
C549 C 0.33676 0.1874 0.9894 0.0
O550 O 0.31248 0.18804 0.99543 0.0
C551 C 0.29345 0.11261 0.12844 0.0
C552 C 0.3222 0.09749 0.15522 0.0
C553 C 0.2962 0.09949 0.15116 0.0
N554 N 0.31673 0.11834 0.11946 0.0
N555 N 0.33387 0.10917 0.13552 0.0
C556 C 0.26908 0.11899 0.11511 0.0
H557 H 0.27164 0.11744 0.09418 0.0
H558 H 0.25345 0.10612 0.12126 0.0
H559 H 0.26372 0.13889 0.11982 0.0
C560 C 0.34592 0.10884 0.02343 0.0
N561 N 0.34103 0.12733 0.04053 0.0
N562 N 0.3342 0.11684 0.06229 0.0
C563 C 0.33428 0.09131 0.05965 0.0
C564 C 0.34173 0.08538 0.03498 0.0
C565 C 0.35284 0.11382 0.99623 0.0
H566 H 0.33838 0.1266 0.98755 0.0
H567 H 0.35405 0.09593 0.98503 0.0
H568 H 0.37143 0.12388 0.99552 0.0
O569 O 0.36478 0.17846 0.06275 0.0
O570 O 0.35257 0.16197 0.09976 0.0
H571 H 0.32943 0.05287 0.07433 0.0
H572 H 0.30771 0.07657 0.08684 0.0
C573 C 0.32755 0.07299 0.08048 0.0
H574 H 0.34041 0.07615 0.09692 0.0
H575 H 0.35351 0.11121 0.13322 0.0
O576 O 0.3523 0.17584 0.00399 0.0
C577 C 0.3668 0.17682 0.08685 0.0
Co578 Co 0.33646 0.8304 0.95723 0.0
Co579 Co 0.32613 0.8574 0.90498 0.0
C580 C 0.28729 0.8234 0.92972 0.0
O581 O 0.3012 0.81981 0.94925 0.0
O582 O 0.29487 0.83717 0.91124 0.0
C583 C 0.34039 0.79206 0.9923 0.0
O584 O 0.32956 0.78081 0.97273 0.0
C585 C 0.2982 0.88695 0.86686 0.0
C586 C 0.32768 0.89331 0.83749 0.0
C587 C 0.30207 0.89692 0.84273 0.0
N588 N 0.32054 0.87794 0.87558 0.0
N589 N 0.3382 0.88222 0.85812 0.0
C590 C 0.27324 0.88326 0.88016 0.0
H591 H 0.27617 0.88211 0.90107 0.0
H592 H 0.25991 0.89905 0.87576 0.0
H593 H 0.26449 0.8652 0.8735 0.0
C594 C 0.345 0.88416 0.97325 0.0
N595 N 0.33961 0.86634 0.95561 0.0
N596 N 0.33485 0.87764 0.93371 0.0
C597 C 0.33689 0.90305 0.93672 0.0
C598 C 0.3435 0.90808 0.96189 0.0
C599 C 0.35158 0.87819 0.00035 0.0
H600 H 0.36439 0.86138 0.00108 0.0
H601 H 0.33387 0.87331 0.01084 0.0
H602 H 0.36096 0.89461 0.0098 0.0
O603 O 0.36012 0.81377 0.93314 0.0
O604 O 0.35393 0.83349 0.8963 0.0
H605 H 0.344 0.92025 0.90045 0.0
H606 H 0.33019 0.94184 0.92352 0.0
C607 C 0.33023 0.92198 0.9164 0.0
H608 H 0.31098 0.91765 0.9089 0.0
H609 H 0.35713 0.87635 0.85974 0.0
O610 O 0.34518 0.81579 0.9909 0.0
C611 C 0.36529 0.81672 0.90964 0.0
Co612 Co 0.33196 0.1615 0.53558 0.0
Co613 Co 0.35587 0.17097 0.58951 0.0
C614 C 0.3196 0.20817 0.56518 0.0
O615 O 0.3178 0.19524 0.54479 0.0
O616 O 0.33337 0.20059 0.58362 0.0
C617 C 0.30612 0.16765 0.48791 0.0
O618 O 0.30291 0.19107 0.49608 0.0
C619 C 0.38339 0.20184 0.62575 0.0
C620 C 0.38982 0.17558 0.65802 0.0
C621 C 0.3931 0.2007 0.65035 0.0
N622 N 0.37452 0.1787 0.61947 0.0
N623 N 0.37856 0.16298 0.63872 0.0
C624 C 0.38316 0.22404 0.6078 0.0
H625 H 0.38363 0.21725 0.58777 0.0
H626 H 0.39969 0.23676 0.61137 0.0
H627 H 0.36528 0.23501 0.61048 0.0
C628 C 0.38702 0.15787 0.52179 0.0
N629 N 0.36802 0.16125 0.53874 0.0
N630 N 0.37794 0.16508 0.56148 0.0
C631 C 0.40353 0.16409 0.55975 0.0
C632 C 0.41018 0.15965 0.53456 0.0
C633 C 0.3829 0.15399 0.49386 0.0
H634 H 0.36784 0.16716 0.48697 0.0
H635 H 0.40069 0.15717 0.48288 0.0
H636 H 0.37616 0.13421 0.4906 0.0
O637 O 0.31622 0.13564 0.55841 0.0
O638 O 0.3341 0.14114 0.59633 0.0
H639 H 0.44056 0.15879 0.57728 0.0
H640 H 0.42277 0.18617 0.58803 0.0
C641 C 0.42125 0.16597 0.58205 0.0
H642 H 0.41361 0.15474 0.59824 0.0
H643 H 0.37304 0.14385 0.63892 0.0
O644 O 0.31986 0.15237 0.50082 0.0
C645 C 0.3186 0.12947 0.58178 0.0
Co646 Co 0.65327 0.16742 0.95816 0.0
Co647 Co 0.66967 0.14532 0.90525 0.0
C648 C 0.70379 0.18005 0.93515 0.0
O649 O 0.68769 0.1822 0.95316 0.0
O650 O 0.69925 0.16619 0.91578 0.0
C651 C 0.65445 0.18728 0.00921 0.0
O652 O 0.67932 0.18663 0.00639 0.0
C653 C 0.70156 0.11802 0.86857 0.0
C654 C 0.67637 0.11664 0.83486 0.0
C655 C 0.70073 0.1108 0.8432 0.0
N656 N 0.67872 0.1277 0.87494 0.0
N657 N 0.6636 0.1264 0.85483 0.0
C658 C 0.72443 0.11851 0.8856 0.0
H659 H 0.73749 0.13389 0.87924 0.0
H660 H 0.71872 0.12192 0.90566 0.0
H661 H 0.73491 0.10021 0.8844 0.0
C662 C 0.6486 0.11211 0.96993 0.0
N663 N 0.6534 0.13155 0.95382 0.0
N664 N 0.66004 0.12228 0.93148 0.0
C665 C 0.65967 0.09663 0.93265 0.0
C666 C 0.65249 0.08931 0.95705 0.0
C667 C 0.64213 0.11558 0.99747 0.0
H668 H 0.65602 0.12885 0.00631 0.0
H669 H 0.64227 0.09722 0.00797 0.0
H670 H 0.62298 0.12443 -0.00099 0.0
O671 O 0.62998 0.18399 0.93372 0.0
O672 O 0.6417 0.16896 0.89606 0.0
H673 H 0.6597 0.05955 0.91451 0.0
H674 H 0.68665 0.07972 0.90731 0.0
C675 C 0.66579 0.07945 0.91073 0.0
H676 H 0.6561 0.08641 0.89329 0.0
H677 H 0.64496 0.13332 0.85441 0.0
O678 O 0.64029 0.1781 0.99184 0.0
C679 C 0.62766 0.18333 0.90962 0.0
Co680 Co 0.6672 0.84377 0.53889 0.0
Co681 Co 0.64214 0.83118 0.59155 0.0
C682 C 0.67845 0.79502 0.56582 0.0
O683 O 0.68137 0.80965 0.54666 0.0
O684 O 0.66387 0.80112 0.58423 0.0
C685 C 0.68892 0.83974 0.48857 0.0
O686 O 0.68836 0.81505 0.49277 0.0
C687 C 0.61237 0.80143 0.62801 0.0
C688 C 0.60902 0.82818 0.66032 0.0
C689 C 0.60341 0.80353 0.65273 0.0
N690 N 0.62273 0.82384 0.62123 0.0
N691 N 0.62027 0.83991 0.64046 0.0
C692 C 0.61375 0.77778 0.61217 0.0
H693 H 0.62862 0.76497 0.62008 0.0
H694 H 0.61845 0.7825 0.5921 0.0
H695 H 0.59532 0.76745 0.61277 0.0
C696 C 0.61261 0.84751 0.52386 0.0
N697 N 0.63113 0.84391 0.5413 0.0
N698 N 0.62062 0.8388 0.56351 0.0
C699 C 0.59508 0.83903 0.56093 0.0
C700 C 0.58914 0.84443 0.53573 0.0
C701 C 0.61758 0.85207 0.49616 0.0
H702 H 0.63071 0.83718 0.48887 0.0
H703 H 0.59972 0.85187 0.48483 0.0
H704 H 0.62721 0.87075 0.49382 0.0
O705 O 0.68266 0.86841 0.56279 0.0
O706 O 0.6647 0.86016 0.60009 0.0
H707 H 0.55709 0.84062 0.57701 0.0
H708 H 0.57639 0.81396 0.58701 0.0
C709 C 0.57666 0.83456 0.58225 0.0
H710 H 0.58279 0.84529 0.59938 0.0
H711 H 0.62736 0.85849 0.64045 0.0
O712 O 0.67937 0.85477 0.50497 0.0
C713 C 0.68023 0.87287 0.58648 0.0
Co714 Co 0.65945 0.83225 0.03107 0.0
Co715 Co 0.67207 0.85862 0.08309 0.0
C716 C 0.70869 0.82273 0.05719 0.0
O717 O 0.69443 0.81933 0.03786 0.0
O718 O 0.70187 0.83721 0.07536 0.0
C719 C 0.66237 0.80817 0.98168 0.0
O720 O 0.68713 0.80844 0.98539 0.0
C721 C 0.70438 0.88608 0.11863 0.0
C722 C 0.67791 0.89548 0.14995 0.0
C723 C 0.70335 0.89679 0.14281 0.0
N724 N 0.68083 0.87847 0.11209 0.0
N725 N 0.66501 0.88434 0.13076 0.0
C726 C 0.72692 0.88411 0.10124 0.0
H727 H 0.72065 0.88444 0.08104 0.0
H728 H 0.74047 0.89999 0.10468 0.0
H729 H 0.73685 0.86578 0.10471 0.0
C730 C 0.65221 0.88646 0.01558 0.0
N731 N 0.65775 0.86837 0.03296 0.0
N732 N 0.66302 0.8794 0.05486 0.0
C733 C 0.66116 0.90486 0.05211 0.0
C734 C 0.65415 0.91027 0.02711 0.0
C735 C 0.64456 0.88078 0.9887 0.0
H736 H 0.63047 0.86502 0.98852 0.0
H737 H 0.66157 0.87437 0.97789 0.0
H738 H 0.63619 0.89773 0.97921 0.0
O739 O 0.63608 0.81641 0.05612 0.0
O740 O 0.64417 0.83535 0.09304 0.0
H741 H 0.65452 0.92121 0.08884 0.0
H742 H 0.66754 0.94349 0.0659 0.0
C743 C 0.66792 0.9235 0.07265 0.0
H744 H 0.68737 0.91935 0.0797 0.0
H745 H 0.64559 0.88004 0.13074 0.0
O746 O 0.64781 0.81881 0.99785 0.0
C747 C 0.63193 0.81907 0.07987 0.0
Co748 Co 0.33342 0.83912 0.4587 0.0
Co749 Co 0.35902 0.82862 0.40561 0.0
C750 C 0.32216 0.79178 0.42874 0.0
O751 O 0.31962 0.80533 0.44866 0.0
O752 O 0.33677 0.79868 0.41067 0.0
C753 C 0.30701 0.8318 0.50587 0.0
O754 O 0.30371 0.80861 0.4971 0.0
C755 C 0.38459 0.80033 0.36526 0.0
C756 C 0.40155 0.83077 0.34159 0.0
C757 C 0.3986 0.8046 0.34334 0.0
N758 N 0.37919 0.82292 0.37596 0.0
N759 N 0.38947 0.84108 0.3618 0.0
C760 C 0.37778 0.77511 0.37673 0.0
H761 H 0.37857 0.77626 0.39782 0.0
H762 H 0.39091 0.75992 0.37008 0.0
H763 H 0.35809 0.77 0.37099 0.0
C764 C 0.38774 0.8441 0.47402 0.0
N765 N 0.36943 0.83977 0.45656 0.0
N766 N 0.38015 0.83465 0.43448 0.0
C767 C 0.40568 0.83505 0.4373 0.0
C768 C 0.41141 0.84129 0.46241 0.0
C769 C 0.38242 0.85171 0.50098 0.0
H770 H 0.3664 0.86549 0.50149 0.0
H771 H 0.37664 0.83459 0.51199 0.0
H772 H 0.3994 0.86043 0.51008 0.0
O773 O 0.31817 0.86498 0.43593 0.0
O774 O 0.33624 0.85787 0.39835 0.0
H775 H 0.42534 0.84309 0.40253 0.0
H776 H 0.44334 0.82358 0.42452 0.0
C777 C 0.42407 0.82754 0.41681 0.0
H778 H 0.41715 0.81013 0.40711 0.0
H779 H 0.38803 0.86051 0.36579 0.0
O780 O 0.32066 0.84742 0.49332 0.0
C781 C 0.32069 0.87014 0.41236 0.0
Co782 Co 0.66753 0.15486 0.46084 0.0
Co783 Co 0.64151 0.16865 0.40872 0.0
C784 C 0.67858 0.20411 0.43424 0.0
O785 O 0.68141 0.18924 0.45323 0.0
O786 O 0.66376 0.19839 0.41587 0.0
C787 C 0.69013 0.15892 0.51076 0.0
O788 O 0.68889 0.18363 0.50688 0.0
C789 C 0.61799 0.19692 0.36642 0.0
C790 C 0.59107 0.16862 0.35072 0.0
C791 C 0.59907 0.19366 0.34824 0.0
N792 N 0.62046 0.17512 0.37962 0.0
N793 N 0.60458 0.15815 0.36989 0.0
C794 C 0.63557 0.21915 0.36938 0.0
H795 H 0.65542 0.21196 0.36976 0.0
H796 H 0.63157 0.2289 0.38771 0.0
H797 H 0.63396 0.23291 0.35343 0.0
C798 C 0.61329 0.14971 0.47664 0.0
N799 N 0.63147 0.15447 0.4591 0.0
N800 N 0.62058 0.16144 0.4376 0.0
C801 C 0.59512 0.16221 0.44107 0.0
C802 C 0.58957 0.15434 0.46573 0.0
C803 C 0.61875 0.14046 0.50306 0.0
H804 H 0.63453 0.1264 0.50263 0.0
H805 H 0.62491 0.15682 0.51495 0.0
H806 H 0.60168 0.13154 0.5118 0.0
O807 O 0.68259 0.13069 0.43643 0.0
O808 O 0.66389 0.13949 0.39959 0.0
H809 H 0.57054 0.15826 0.40881 0.0
H810 H 0.55946 0.18086 0.43205 0.0
C811 C 0.57665 0.1733 0.42232 0.0
H812 H 0.58568 0.18909 0.41159 0.0
H813 H 0.60268 0.13952 0.37662 0.0
O814 O 0.68064 0.14385 0.49437 0.0
C815 C 0.67971 0.12658 0.41273 0.0
H816 H 0.1293 0.46367 0.30908 0.0
H817 H 0.18111 0.48667 0.24929 0.0
H818 H 0.11243 0.43022 0.28142 0.0
H819 H 0.164 0.45371 0.22163 0.0
H820 H 0.13924 0.37918 0.1843 0.0
H821 H 0.15973 0.40807 0.21445 0.0
H822 H 0.08586 0.43053 0.24308 0.0
H823 H 0.06542 0.40144 0.21341 0.0
C824 C 0.13731 0.46137 0.2902 0.0
C825 C 0.15633 0.47796 0.28127 0.0
C826 C 0.12752 0.44238 0.27428 0.0
C827 C 0.13666 0.43955 0.24921 0.0
C828 C 0.15662 0.45529 0.24085 0.0
C829 C 0.16633 0.47429 0.25669 0.0
C830 C 0.12737 0.39039 0.19693 0.0
C831 C 0.10068 0.38802 0.19639 0.0
C832 C 0.13912 0.4069 0.21423 0.0
C833 C 0.12442 0.4214 0.23132 0.0
C834 C 0.09775 0.41922 0.23055 0.0
C835 C 0.08602 0.40273 0.21332 0.0
H836 H 0.95045 0.31299 0.21331 0.0
H837 H 0.98245 0.3881 0.20221 0.0
H838 H 0.91967 0.33061 0.24337 0.0
H839 H 0.95246 0.40548 0.23281 0.0
H840 H 0.88156 0.43316 0.27333 0.0
H841 H 0.90919 0.41552 0.24064 0.0
H842 H 0.91915 0.34731 0.28585 0.0
H843 H 0.89069 0.36462 0.31821 0.0
C844 C 0.95081 0.33327 0.21714 0.0
C845 C 0.96896 0.3491 0.20542 0.0
C846 C 0.93335 0.34334 0.23457 0.0
C847 C 0.93375 0.36943 0.24076 0.0
C848 C 0.95138 0.38536 0.22835 0.0
C849 C 0.96868 0.37534 0.21081 0.0
C850 C 0.88973 0.41444 0.27639 0.0
C851 C 0.88396 0.40033 0.29845 0.0
C852 C 0.90564 0.40434 0.25763 0.0
C853 C 0.91639 0.37996 0.26054 0.0
C854 C 0.91083 0.36595 0.28274 0.0
C855 C 0.89472 0.37598 0.30144 0.0
H856 H 0.82162 0.50121 0.24672 0.0
H857 H 0.86364 0.53238 0.31032 0.0
H858 H 0.83802 0.53476 0.21927 0.0
H859 H 0.87979 0.56636 0.28278 0.0
H860 H 0.9302 0.59769 0.21797 0.0
H861 H 0.91018 0.56776 0.24714 0.0
H862 H 0.8375 0.58062 0.21065 0.0
H863 H 0.85759 0.61043 0.18107 0.0
C864 C 0.83408 0.51546 0.25495 0.0
C865 C 0.84153 0.51399 0.28065 0.0
C866 C 0.84336 0.53479 0.23921 0.0
C867 C 0.86037 0.55308 0.24878 0.0
C868 C 0.867 0.55227 0.27476 0.0
C869 C 0.85762 0.53294 0.29058 0.0
C870 C 0.90995 0.59414 0.21606 0.0
C871 C 0.89553 0.60642 0.19707 0.0
C872 C 0.89843 0.57716 0.233 0.0
C873 C 0.87222 0.57197 0.23135 0.0
C874 C 0.85777 0.58413 0.21231 0.0
C875 C 0.86929 0.60121 0.19537 0.0
H876 H 0.11613 0.56106 0.271 0.0
H877 H 0.1094 0.63044 0.31486 0.0
H878 H 0.08783 0.57864 0.23879 0.0
H879 H 0.0803 0.64771 0.28303 0.0
H880 H 0.0468 0.68126 0.21103 0.0
H881 H 0.07835 0.66376 0.24038 0.0
H882 H 0.04446 0.58911 0.23218 0.0
H883 H 0.01365 0.60637 0.20228 0.0
C884 C 0.10839 0.57998 0.27393 0.0
C885 C 0.11498 0.59432 0.29557 0.0
C886 C 0.09208 0.59005 0.25545 0.0
C887 C 0.08176 0.61462 0.25825 0.0
C888 C 0.08824 0.6289 0.27999 0.0
C889 C 0.10475 0.61891 0.29839 0.0
C890 C 0.04633 0.66105 0.21524 0.0
C891 C 0.02766 0.64525 0.20436 0.0
C892 C 0.06427 0.65105 0.23226 0.0
C893 C 0.06383 0.62505 0.23888 0.0
C894 C 0.0456 0.60915 0.22735 0.0
C895 C 0.02783 0.61909 0.21022 0.0
H896 H 0.16077 0.50136 0.75461 0.0
H897 H 0.12293 0.53514 0.68966 0.0
H898 H 0.14389 0.53471 0.78192 0.0
H899 H 0.10626 0.56892 0.71713 0.0
H900 H 0.05573 0.60322 0.78058 0.0
H901 H 0.07464 0.57192 0.752 0.0
H902 H 0.14698 0.58046 0.79036 0.0
H903 H 0.12806 0.61151 0.81924 0.0
C904 C 0.14906 0.51609 0.74609 0.0
C905 C 0.14308 0.51554 0.71998 0.0
C906 C 0.1395 0.53529 0.76176 0.0
C907 C 0.12366 0.55439 0.75172 0.0
C908 C 0.11816 0.55425 0.72547 0.0
C909 C 0.12786 0.53504 0.70971 0.0
C910 C 0.07565 0.59838 0.78302 0.0
C911 C 0.09034 0.60983 0.8023 0.0
C912 C 0.08654 0.58062 0.76646 0.0
C913 C 0.11233 0.57383 0.76884 0.0
C914 C 0.127 0.58516 0.78818 0.0
C915 C 0.11614 0.60298 0.8047 0.0
H916 H 0.03281 0.37812 0.81062 0.0
H917 H 0.02804 0.31024 0.76431 0.0
H918 H 0.06309 0.39648 0.7805 0.0
H919 H 0.05713 0.32895 0.73364 0.0
H920 H 0.12519 0.3615 0.69166 0.0
H921 H 0.09865 0.34167 0.72413 0.0
H922 H 0.06332 0.41455 0.73954 0.0
H923 H 0.09082 0.43451 0.70798 0.0
C924 C 0.03833 0.36708 0.79407 0.0
C925 C 0.02798 0.34278 0.78982 0.0
C926 C 0.05547 0.37769 0.77663 0.0
C927 C 0.06234 0.36439 0.75436 0.0
C928 C 0.05259 0.3397 0.75065 0.0
C929 C 0.03578 0.32896 0.76825 0.0
C930 C 0.11162 0.37323 0.70188 0.0
C931 C 0.11007 0.39956 0.69724 0.0
C932 C 0.09634 0.36186 0.72051 0.0
C933 C 0.07886 0.37648 0.73467 0.0
C934 C 0.07696 0.40275 0.72953 0.0
C935 C 0.09252 0.41417 0.71119 0.0
H936 H 0.86297 0.36727 0.80526 0.0
H937 H 0.9345 0.407 0.79618 0.0
H938 H 0.84385 0.39419 0.77262 0.0
H939 H 0.91516 0.43479 0.76449 0.0
H940 H 0.8832 0.46461 0.69107 0.0
H941 H 0.90084 0.43493 0.72217 0.0
H942 H 0.82911 0.43507 0.76282 0.0
H943 H 0.81124 0.46361 0.73106 0.0
C944 C 0.87445 0.38213 0.79666 0.0
C945 C 0.90024 0.385 0.80325 0.0
C946 C 0.8635 0.39761 0.77792 0.0
C947 C 0.87799 0.41657 0.76562 0.0
C948 C 0.90357 0.41996 0.77297 0.0
C949 C 0.9146 0.40423 0.79139 0.0
C950 C 0.87113 0.45795 0.70645 0.0
C951 C 0.84587 0.46648 0.70863 0.0
C952 C 0.8813 0.44116 0.72447 0.0
C953 C 0.86656 0.43284 0.74533 0.0
C954 C 0.84101 0.44078 0.74695 0.0
C955 C 0.83074 0.45724 0.72871 0.0
H956 H 0.96235 0.69004 0.76449 0.0
H957 H 0.96138 0.6207 0.80902 0.0
H958 H 0.9332 0.67095 0.73396 0.0
H959 H 0.93142 0.6019 0.77895 0.0
H960 H 0.90648 0.56447 0.70552 0.0
H961 H 0.93342 0.58564 0.73665 0.0
H962 H 0.89131 0.65561 0.72551 0.0
H963 H 0.86487 0.63456 0.69361 0.0
C964 C 0.95547 0.6709 0.76808 0.0
C965 C 0.9644 0.65677 0.78905 0.0
C966 C 0.93868 0.65996 0.75056 0.0
C967 C 0.93026 0.63473 0.75375 0.0
C968 C 0.93807 0.62114 0.77553 0.0
C969 C 0.95505 0.632 0.79293 0.0
C970 C 0.9031 0.58443 0.70954 0.0
C971 C 0.88352 0.59782 0.6971 0.0
C972 C 0.91837 0.59652 0.72763 0.0
C973 C 0.91429 0.62224 0.73394 0.0
C974 C 0.8951 0.63582 0.72102 0.0
C975 C 0.87994 0.62377 0.70271 0.0
H976 H 0.1917 0.13732 0.36994 0.0
H977 H 0.20522 0.06614 0.40916 0.0
H978 H 0.22449 0.15773 0.39573 0.0
H979 H 0.23716 0.0867 0.43565 0.0
H980 H 0.30961 0.12166 0.46359 0.0
H981 H 0.27902 0.1032 0.43392 0.0
H982 H 0.23429 0.17235 0.43705 0.0
H983 H 0.26538 0.19111 0.46571 0.0
C984 C 0.20136 0.12615 0.38438 0.0
C985 C 0.1959 0.10011 0.38748 0.0
C986 C 0.22018 0.13785 0.39919 0.0
C987 C 0.23374 0.12383 0.41763 0.0
C988 C 0.22765 0.09796 0.42119 0.0
C989 C 0.20909 0.08621 0.40619 0.0
C990 C 0.29346 0.13305 0.45757 0.0
C991 C 0.28985 0.15777 0.46713 0.0
C992 C 0.27576 0.12238 0.44078 0.0
C993 C 0.25388 0.13609 0.43341 0.0
C994 C 0.25094 0.16126 0.44211 0.0
C995 C 0.2688 0.17202 0.45864 0.0
H996 H 0.62611 0.31315 0.11144 0.0
H997 H 0.55568 0.27048 0.11377 0.0
H998 H 0.64437 0.28128 0.08292 0.0
H999 H 0.57416 0.23823 0.08634 0.0
H1000 H 0.60459 0.20106 0.01418 0.0
H1001 H 0.58656 0.23133 0.04401 0.0
H1002 H 0.65982 0.23861 0.08105 0.0
H1003 H 0.6782 0.20898 0.0503 0.0
C1004 C 0.61456 0.29696 0.10591 0.0
C1005 C 0.58938 0.29448 0.11471 0.0
C1006 C 0.6251 0.27854 0.08978 0.0
C1007 C 0.61078 0.25709 0.08234 0.0
C1008 C 0.58563 0.25467 0.09126 0.0
C1009 C 0.57502 0.27319 0.10708 0.0
C1010 C 0.61684 0.20885 0.02886 0.0
C1011 C 0.64289 0.20267 0.02978 0.0
C1012 C 0.60644 0.22621 0.04608 0.0
C1013 C 0.62174 0.23761 0.06489 0.0
C1014 C 0.6476 0.23063 0.06647 0.0
C1015 C 0.65808 0.21342 0.04903 0.0
H1016 H 0.70068 0.88958 0.47963 0.0
H1017 H 0.71202 0.81371 0.44967 0.0
H1018 H 0.73028 0.90647 0.44841 0.0
H1019 H 0.74106 0.83083 0.4176 0.0
H1020 H 0.81525 0.86544 0.38655 0.0
H1021 H 0.78319 0.84795 0.41532 0.0
H1022 H 0.73718 0.91555 0.40495 0.0
H1023 H 0.76959 0.93338 0.3771 0.0
C1024 C 0.7091 0.87654 0.46603 0.0
C1025 C 0.7041 0.85025 0.46725 0.0
C1026 C 0.72606 0.88627 0.448 0.0
C1027 C 0.73824 0.87001 0.43054 0.0
C1028 C 0.73242 0.84383 0.43109 0.0
C1029 C 0.71558 0.83405 0.44931 0.0
C1030 C 0.79831 0.87658 0.3905 0.0
C1031 C 0.79509 0.90089 0.37972 0.0
C1032 C 0.7798 0.86646 0.40681 0.0
C1033 C 0.75754 0.88032 0.41248 0.0
C1034 C 0.75425 0.90451 0.4014 0.0
C1035 C 0.77285 0.91472 0.38536 0.0
H1036 H 0.37137 0.80652 0.0318 0.0
H1037 H 0.32902 0.74241 0.00211 0.0
H1038 H 0.38874 0.77927 0.06541 0.0
H1039 H 0.34656 0.71527 0.03539 0.0
H1040 H 0.36678 0.67949 0.11256 0.0
H1041 H 0.3465 0.70802 0.08187 0.0
H1042 H 0.41928 0.74324 0.06638 0.0
H1043 H 0.43955 0.71506 0.09714 0.0
C1044 C 0.36558 0.78672 0.0326 0.0
C1045 C 0.34897 0.77658 0.01422 0.0
C1046 C 0.37565 0.77108 0.05171 0.0
C1047 C 0.36916 0.74509 0.05289 0.0
C1048 C 0.35179 0.73524 0.03509 0.0
C1049 C 0.34186 0.7508 0.01594 0.0
C1050 C 0.37848 0.69325 0.10255 0.0
C1051 C 0.4048 0.69494 0.10731 0.0
C1052 C 0.36685 0.70957 0.08496 0.0
C1053 C 0.38128 0.72799 0.07188 0.0
C1054 C 0.40759 0.72955 0.0765 0.0
C1055 C 0.41923 0.71319 0.09396 0.0
H1056 H 0.31267 0.87583 0.5331 0.0
H1057 H 0.2651 0.80897 0.52627 0.0
H1058 H 0.28307 0.89363 0.56417 0.0
H1059 H 0.23495 0.82716 0.55622 0.0
H1060 H 0.19342 0.85861 0.62492 0.0
H1061 H 0.22586 0.83896 0.59826 0.0
H1062 H 0.2423 0.91233 0.56435 0.0
H1063 H 0.21074 0.93209 0.59194 0.0
C1064 C 0.29597 0.86488 0.53837 0.0
C1065 C 0.29115 0.84108 0.52717 0.0
C1066 C 0.27885 0.87518 0.55596 0.0
C1067 C 0.25635 0.86205 0.56245 0.0
C1068 C 0.25214 0.83775 0.55195 0.0
C1069 C 0.26944 0.82731 0.53467 0.0
C1070 C 0.20388 0.8705 0.61166 0.0
C1071 C 0.1995 0.89689 0.6105 0.0
C1072 C 0.22249 0.85923 0.59633 0.0
C1073 C 0.23687 0.87404 0.57919 0.0
C1074 C 0.23208 0.90039 0.57774 0.0
C1075 C 0.21375 0.91171 0.59334 0.0
H1076 H 0.43412 0.29053 0.90576 0.0
H1077 H 0.36089 0.30044 0.86948 0.0
H1078 H 0.41594 0.25823 0.93373 0.0
H1079 H 0.34299 0.26719 0.8963 0.0
H1080 H 0.31212 0.22685 0.96652 0.0
H1081 H 0.3297 0.25802 0.93732 0.0
H1082 H 0.40086 0.21635 0.93575 0.0
H1083 H 0.38352 0.18586 0.96628 0.0
C1084 C 0.41414 0.2857 0.90371 0.0
C1085 C 0.39889 0.29815 0.88557 0.0
C1086 C 0.40375 0.26696 0.91955 0.0
C1087 C 0.37796 0.25987 0.91727 0.0
C1088 C 0.36278 0.27238 0.89902 0.0
C1089 C 0.37305 0.29145 0.88355 0.0
C1090 C 0.33142 0.22414 0.95971 0.0
C1091 C 0.34647 0.20394 0.96878 0.0
C1092 C 0.34153 0.24204 0.94283 0.0
C1093 C 0.36683 0.23993 0.93419 0.0
C1094 C 0.38152 0.21901 0.94243 0.0
C1095 C 0.37151 0.20133 0.95971 0.0
H1096 H 0.81991 0.13251 0.60859 0.0
H1097 H 0.77319 0.06566 0.62038 0.0
H1098 H 0.78725 0.15028 0.58059 0.0
H1099 H 0.74033 0.08374 0.59334 0.0
H1100 H 0.7149 0.18514 0.54853 0.0
H1101 H 0.74505 0.16807 0.57961 0.0
H1102 H 0.73258 0.09227 0.54985 0.0
H1103 H 0.70195 0.1091 0.51963 0.0
C1104 C 0.80265 0.12167 0.6053 0.0
C1105 C 0.79928 0.09757 0.61651 0.0
C1106 C 0.78381 0.13195 0.58945 0.0
C1107 C 0.76113 0.11844 0.58468 0.0
C1108 C 0.75772 0.09449 0.59619 0.0
C1109 C 0.77659 0.08413 0.61177 0.0
C1110 C 0.71833 0.16478 0.54892 0.0
C1111 C 0.70606 0.1485 0.53156 0.0
C1112 C 0.7358 0.15503 0.56656 0.0
C1113 C 0.74143 0.12881 0.56712 0.0
C1114 C 0.72853 0.1125 0.55023 0.0
C1115 C 0.71098 0.1222 0.53278 0.0
H1116 H 0.6872 0.7826 0.94349 0.0
H1117 H 0.6122 0.79675 0.9745 0.0
H1118 H 0.66885 0.75255 0.91309 0.0
H1119 H 0.59412 0.76617 0.94503 0.0
H1120 H 0.5647 0.72658 0.87527 0.0
H1121 H 0.58412 0.75877 0.90205 0.0
H1122 H 0.6504 0.71077 0.91187 0.0
H1123 H 0.63124 0.67878 0.88399 0.0
C1124 C 0.6668 0.77942 0.94373 0.0
C1125 C 0.65118 0.79208 0.96142 0.0
C1126 C 0.65632 0.762 0.92648 0.0
C1127 C 0.63001 0.75676 0.92668 0.0
C1128 C 0.61438 0.76994 0.94401 0.0
C1129 C 0.6248 0.78747 0.96104 0.0
C1130 C 0.58339 0.72278 0.88318 0.0
C1131 C 0.59635 0.69999 0.87764 0.0
C1132 C 0.59453 0.74127 0.89864 0.0
C1133 C 0.61879 0.73738 0.90929 0.0
C1134 C 0.63183 0.71458 0.90372 0.0
C1135 C 0.62077 0.69613 0.88794 0.0
H1136 H 0.45997 0.30834 0.12114 0.0
H1137 H 0.46033 0.26576 0.19167 0.0
H1138 H 0.43077 0.27734 0.10265 0.0
H1139 H 0.43212 0.23422 0.17292 0.0
H1140 H 0.36572 0.19113 0.13693 0.0
H1141 H 0.39117 0.22413 0.15736 0.0
H1142 H 0.43312 0.23507 0.08725 0.0
H1143 H 0.40695 0.2029 0.06661 0.0
C1144 C 0.45364 0.29247 0.13276 0.0
C1145 C 0.46258 0.28943 0.1578 0.0
C1146 C 0.43714 0.27453 0.12208 0.0
C1147 C 0.42945 0.25296 0.1361 0.0
C1148 C 0.43747 0.25062 0.16157 0.0
C1149 C 0.45371 0.26873 0.17234 0.0
C1150 C 0.38056 0.20042 0.12597 0.0
C1151 C 0.38429 0.19445 0.10014 0.0
C1152 C 0.39516 0.21937 0.13768 0.0
C1153 C 0.41403 0.23254 0.12389 0.0
C1154 C 0.4183 0.22587 0.09828 0.0
C1155 C 0.4035 0.20718 0.08651 0.0
H1156 H 0.38182 0.8172 0.8601 0.0
H1157 H 0.39159 0.77755 0.93175 0.0
H1158 H 0.41265 0.78864 0.84023 0.0
H1159 H 0.42264 0.74939 0.91195 0.0
H1160 H 0.46055 0.68859 0.86376 0.0
H1161 H 0.42598 0.71513 0.8802 0.0
H1162 H 0.45854 0.7808 0.8426 0.0
H1163 H 0.4927 0.75436 0.82588 0.0
C1164 C 0.39057 0.80247 0.87163 0.0
C1165 C 0.3843 0.79974 0.89755 0.0
C1166 C 0.40826 0.78614 0.86025 0.0
C1167 C 0.42001 0.76672 0.87451 0.0
C1168 C 0.41362 0.76391 0.90036 0.0
C1169 C 0.39599 0.78023 0.91175 0.0
C1170 C 0.46013 0.70863 0.85877 0.0
C1171 C 0.47943 0.71941 0.84366 0.0
C1172 C 0.44044 0.72384 0.86831 0.0
C1173 C 0.43964 0.75008 0.86283 0.0
C1174 C 0.45847 0.76062 0.84699 0.0
C1175 C 0.47815 0.74546 0.83753 0.0
H1176 H 0.1899 0.03254 0.62259 0.0
H1177 H 0.25467 -0.00016 0.66168 0.0
H1178 H 0.21716 0.0668 0.60643 0.0
H1179 H 0.28175 0.03365 0.64531 0.0
H1180 H 0.31802 0.11112 0.63063 0.0
H1181 H 0.28926 0.07949 0.64878 0.0
H1182 H 0.25267 0.07064 0.57557 0.0
H1183 H 0.28114 0.10255 0.55742 0.0
C1184 C 0.20986 0.03277 0.62789 0.0
C1185 C 0.22015 0.01345 0.64333 0.0
C1186 C 0.22549 0.05225 0.61849 0.0
C1187 C 0.25163 0.05284 0.62451 0.0
C1188 C 0.26167 0.03389 0.64052 0.0
C1189 C 0.24613 0.01442 0.64979 0.0
C1190 C 0.30391 0.1024 0.61835 0.0
C1191 C 0.30197 0.10934 0.59254 0.0
C1192 C 0.28744 0.08424 0.62876 0.0
C1193 C 0.26864 0.07265 0.61362 0.0
C1194 C 0.26671 0.07953 0.58781 0.0
C1195 C 0.28322 0.09763 0.57737 0.0
H1196 H 0.5269 0.26775 0.80835 0.0
H1197 H 0.52914 0.31233 0.87754 0.0
H1198 H 0.55722 0.23788 0.82649 0.0
H1199 H 0.56043 0.28294 0.89538 0.0
H1200 H 0.5885 0.2095 0.93167 0.0
H1201 H 0.56068 0.2409 0.91196 0.0
H1202 H 0.59937 0.23003 0.84001 0.0
H1203 H 0.62651 0.19782 0.85955 0.0
C1204 C 0.53431 0.27151 0.82725 0.0
C1205 C 0.52541 0.29229 0.84161 0.0
C1206 C 0.55181 0.25437 0.83764 0.0
C1207 C 0.56106 0.25776 0.86255 0.0
C1208 C 0.5532 0.27936 0.87638 0.0
C1209 C 0.53547 0.29638 0.86607 0.0
C1210 C 0.59095 0.21368 0.91159 0.0
C1211 C 0.60966 0.2011 0.89716 0.0
C1212 C 0.57518 0.23192 0.90033 0.0
C1213 C 0.57793 0.23828 0.87443 0.0
C1214 C 0.59651 0.22547 0.85993 0.0
C1215 C 0.61209 0.20698 0.87114 0.0
H1216 H 0.74698 0.99612 0.67426 0.0
H1217 H 0.81025 0.96508 0.63161 0.0
H1218 H 0.71908 0.96345 0.65686 0.0
H1219 H 0.78227 0.93204 0.61446 0.0
H1220 H 0.71747 0.90147 0.56389 0.0
H1221 H 0.7464 0.93156 0.58406 0.0
H1222 H 0.7105 0.91746 0.65681 0.0
H1223 H 0.68121 0.88753 0.63661 0.0
C1224 C 0.75503 0.9821 0.66143 0.0
C1225 C 0.78079 0.9833 0.65416 0.0
C1226 C 0.73903 0.9633 0.65156 0.0
C1227 C 0.74842 0.9453 0.63414 0.0
C1228 C 0.77441 0.94591 0.62756 0.0
C1229 C 0.79047 0.9647 0.63753 0.0
C1230 C 0.71562 0.90482 0.58418 0.0
C1231 C 0.69695 0.8921 0.59862 0.0
C1232 C 0.7324 0.92189 0.59577 0.0
C1233 C 0.73087 0.92672 0.62205 0.0
C1234 C 0.71205 0.91423 0.63648 0.0
C1235 C 0.69529 0.89707 0.6249 0.0
H1236 H 0.53439 0.73319 0.18333 0.0
H1237 H 0.53684 0.68816 0.11448 0.0
H1238 H 0.563 0.76412 0.16429 0.0
H1239 H 0.56666 0.7185 0.09575 0.0
H1240 H 0.59377 0.79129 0.0581 0.0
H1241 H 0.56654 0.75972 0.07841 0.0
H1242 H 0.60409 0.7738 0.15044 0.0
H1243 H 0.63037 0.80629 0.13029 0.0
C1244 C 0.54155 0.72957 0.16431 0.0
C1245 C 0.53323 0.7083 0.15034 0.0
C1246 C 0.55807 0.74733 0.15338 0.0
C1247 C 0.56702 0.74406 0.12832 0.0
C1248 C 0.55966 0.72205 0.11483 0.0
C1249 C 0.54279 0.70447 0.12565 0.0
C1250 C 0.59601 0.78779 0.07833 0.0
C1251 C 0.61413 0.80134 0.09262 0.0
C1252 C 0.5806 0.76945 0.08995 0.0
C1253 C 0.58324 0.7639 0.11607 0.0
C1254 C 0.60123 0.77772 0.13039 0.0
C1255 C 0.61635 0.79637 0.11883 0.0
H1256 H 0.18982 0.96687 0.38257 0.0
H1257 H 0.23534 0.97358 0.31427 0.0
H1258 H 0.22059 0.93669 0.40004 0.0
H1259 H 0.26659 0.94456 0.33208 0.0
H1260 H 0.30819 0.87496 0.3621 0.0
H1261 H 0.27597 0.90259 0.34348 0.0
H1262 H 0.26196 0.936 0.4175 0.0
H1263 H 0.29335 0.90743 0.43626 0.0
C1264 C 0.20633 0.96182 0.37126 0.0
C1265 C 0.21014 0.97263 0.34707 0.0
C1266 C 0.22414 0.94473 0.38136 0.0
C1267 C 0.24631 0.93836 0.36763 0.0
C1268 C 0.24966 0.9487 0.34313 0.0
C1269 C 0.23171 0.96546 0.33291 0.0
C1270 C 0.2984 0.88839 0.37434 0.0
C1271 C 0.30333 0.88902 0.40065 0.0
C1272 C 0.2799 0.90428 0.36366 0.0
C1273 C 0.26614 0.92149 0.37897 0.0
C1274 C 0.27167 0.92259 0.40519 0.0
C1275 C 0.28991 0.90642 0.41593 0.0
H1276 H 0.7458 0.00513 0.32213 0.0
H1277 H 0.80896 0.03346 0.36677 0.0
H1278 H 0.71838 0.03802 0.33977 0.0
H1279 H 0.78146 0.0668 0.38417 0.0
H1280 H 0.71644 0.09692 0.4347 0.0
H1281 H 0.74528 0.06722 0.41393 0.0
H1282 H 0.71033 0.08394 0.34127 0.0
H1283 H 0.68107 0.11352 0.3621 0.0
C1284 C 0.75395 0.01862 0.33545 0.0
C1285 C 0.77952 0.01655 0.34323 0.0
C1286 C 0.73822 0.03758 0.34545 0.0
C1287 C 0.74767 0.05488 0.36352 0.0
C1288 C 0.77353 0.05347 0.37056 0.0
C1289 C 0.78933 0.03452 0.36046 0.0
C1290 C 0.71478 0.09425 0.4143 0.0
C1291 C 0.69634 0.10758 0.40009 0.0
C1292 C 0.73153 0.0774 0.40236 0.0
C1293 C 0.73025 0.0734 0.37593 0.0
C1294 C 0.71169 0.08653 0.3617 0.0
C1295 C 0.69493 0.10346 0.37365 0.0
H1296 H 0.94187 0.36147 0.95315 0.0
H1297 H 0.01155 0.32572 0.92787 0.0
H1298 H 0.9587 0.36361 0.99656 0.0
H1299 H 0.02887 0.3291 0.9711 0.0
H1300 H 0.0567 0.36561 0.04753 0.0
H1301 H 0.03979 0.36651 0.00403 0.0
H1302 H 0.97219 0.32722 0.02957 0.0
H1303 H 0.98963 0.32519 0.07284 0.0
C1304 C 0.96081 0.35415 0.95686 0.0
C1305 C 0.97533 0.34324 0.93718 0.0
C1306 C 0.97043 0.35549 0.98164 0.0
C1307 C 0.995 0.34647 0.98709 0.0
C1308 C 0.00991 0.33635 0.96728 0.0
C1309 C 7e-05 0.33455 0.94256 0.0
C1310 C 0.03829 0.35705 0.04379 0.0
C1311 C 0.02456 0.34514 0.06347 0.0
C1312 C 0.02864 0.35763 0.01898 0.0
C1313 C 0.00478 0.34686 0.01353 0.0
C1314 C 0.99058 0.3358 0.03338 0.0
C1315 C 0.00048 0.33476 0.0581 0.0
H1316 H 0.80533 0.45309 0.44854 0.0
H1317 H 0.87673 0.49007 0.43164 0.0
H1318 H 0.80621 0.4705 0.49159 0.0
H1319 H 0.87834 0.50693 0.47512 0.0
H1320 H 0.85909 0.55375 0.54638 0.0
H1321 H 0.85934 0.53674 0.50318 0.0
H1322 H 0.82728 0.4661 0.53113 0.0
H1323 H 0.82554 0.48392 0.57401 0.0
C1324 C 0.8213 0.46488 0.45422 0.0
C1325 C 0.841 0.47024 0.43698 0.0
C1326 C 0.82196 0.4747 0.47892 0.0
C1327 C 0.84249 0.48993 0.48703 0.0
C1328 C 0.86209 0.49551 0.46951 0.0
C1329 C 0.86127 0.48585 0.44466 0.0
C1330 C 0.85198 0.53463 0.5432 0.0
C1331 C 0.84215 0.5202 0.56349 0.0
C1332 C 0.8524 0.52475 0.51848 0.0
C1333 C 0.84321 0.50006 0.51354 0.0
C1334 C 0.83408 0.48536 0.53409 0.0
C1335 C 0.83344 0.49538 0.55877 0.0
H1336 H 0.00643 0.61669 0.93148 0.0
H1337 H 0.02869 0.69433 0.94621 0.0
H1338 H 0.99121 0.61255 0.97537 0.0
H1339 H 0.0123 0.69103 0.98956 0.0
H1340 H 0.00294 0.67336 0.0723 0.0
H1341 H 0.02064 0.67355 0.02936 0.0
H1342 H 0.9596 0.62408 0.00429 0.0
H1343 H 0.94333 0.62241 0.04778 0.0
C1344 C 0.00762 0.63296 0.94412 0.0
C1345 C 0.01864 0.65579 0.93572 0.0
C1346 C -0.00113 0.63069 0.96923 0.0
C1347 C 0.00063 0.6514 0.98625 0.0
C1348 C 0.01119 0.67444 0.97736 0.0
C1349 C 0.0203 0.6765 0.95245 0.0
C1350 C 0.9937 0.66212 0.05766 0.0
C1351 C 0.97165 0.64809 0.06322 0.0
C1352 C 0.00356 0.66253 0.03292 0.0
C1353 C 0.99133 0.64922 0.01306 0.0
C1354 C 0.9697 0.63446 0.01897 0.0
C1355 C 0.96016 0.63371 0.04383 0.0
H1356 H 0.12501 0.44711 0.54619 0.0
H1357 H 0.17219 0.50928 0.57193 0.0
H1358 H 0.12558 0.46438 0.50306 0.0
H1359 H 0.17122 0.52781 0.52935 0.0
H1360 H 0.19151 0.53818 0.44613 0.0
H1361 H 0.18913 0.52121 0.48932 0.0
H1362 H 0.11191 0.496 0.47488 0.0
H1363 H 0.11515 0.51196 0.43115 0.0
C1364 C 0.13523 0.4647 0.54261 0.0
C1365 C 0.14883 0.47668 0.56228 0.0
C1366 C 0.13533 0.4748 0.51795 0.0
C1367 C 0.14868 0.49743 0.51248 0.0
C1368 C 0.16126 0.51003 0.53258 0.0
C1369 C 0.16148 0.49967 0.55714 0.0
C1370 C 0.17413 0.52886 0.45229 0.0
C1371 C 0.15352 0.52626 0.43552 0.0
C1372 C 0.1726 0.51936 0.47711 0.0
C1373 C 0.15021 0.5074 0.48586 0.0
C1374 C 0.12958 0.50477 0.46883 0.0
C1375 C 0.13132 0.51396 0.44383 0.0
H1376 H 0.92995 0.98652 0.38188 0.0
H1377 H 0.94648 0.95808 0.30665 0.0
H1378 H 0.97339 0.00326 0.38518 0.0
H1379 H 0.98941 0.97564 0.30916 0.0
H1380 H 0.07164 0.98849 0.32767 0.0
H1381 H 0.02918 0.96969 0.32852 0.0
H1382 H 0.00123 0.03507 0.3702 0.0
H1383 H 0.04419 0.0528 0.37084 0.0
C1384 C 0.94291 0.98415 0.36598 0.0
C1385 C 0.93514 0.97099 0.3441 0.0
C1386 C 0.96773 0.99378 0.36776 0.0
C1387 C 0.98511 0.99068 0.3475 0.0
C1388 C 0.9769 0.97786 0.32541 0.0
C1389 C 0.95225 0.96799 0.32382 0.0
C1390 C 0.0565 -0.00149 0.33749 0.0
C1391 C 0.06113 0.02213 0.34909 0.0
C1392 C 0.03204 0.98797 0.33764 0.0
C1393 C 0.01155 0.001 0.3491 0.0
C1394 C 0.01646 0.02434 0.36135 0.0
C1395 C 0.04102 0.03468 0.36149 0.0
H1396 H 0.49037 0.42668 0.17961 0.0
H1397 H 0.55232 0.44774 0.12984 0.0
H1398 H 0.4743 0.47023 0.17818 0.0
H1399 H 0.53745 0.49183 0.12974 0.0
H1400 H 0.49086 0.56473 0.11731 0.0
H1401 H 0.50595 0.5206 0.1157 0.0
H1402 H 0.48404 0.51056 0.19458 0.0
H1403 H 0.46803 0.55416 0.19551 0.0
C1404 C 0.50049 0.44069 0.1683 0.0
C1405 C 0.52266 0.43396 0.15499 0.0
C1406 C 0.49154 0.46576 0.16777 0.0
C1407 C 0.50477 0.48478 0.15417 0.0
C1408 C 0.52664 0.47777 0.1403 0.0
C1409 C 0.53535 0.45259 0.14057 0.0
C1410 C 0.4895 0.55297 0.13424 0.0
C1411 C 0.4783 0.56259 0.15649 0.0
C1412 C 0.49816 0.52775 0.13341 0.0
C1413 C 0.49604 0.51181 0.15495 0.0
C1414 C 0.48542 0.52194 0.17741 0.0
C1415 C 0.47648 0.54698 0.17809 0.0
H1416 H 0.05582 0.96513 0.68936 0.0
H1417 H 0.06523 0.98243 0.60963 0.0
H1418 H 0.0129 0.98288 0.68841 0.0
H1419 H 0.02165 -0.00088 0.60798 0.0
H1420 H 0.95165 0.05009 0.62124 0.0
H1421 H 0.99476 0.03266 0.62044 0.0
H1422 H 0.97175 0.9742 0.67392 0.0
H1423 H 0.92936 0.99297 0.67604 0.0
C1424 C 0.0485 0.97274 0.6716 0.0
C1425 C 0.06358 0.97257 0.64959 0.0
C1426 C 0.02383 0.98263 0.67091 0.0
C1427 C 0.01355 0.99218 0.64802 0.0
C1428 C 0.02895 0.99221 0.626 0.0
C1429 C 0.05384 0.98262 0.62685 0.0
C1430 C 0.95597 0.03357 0.63286 0.0
C1431 C 0.93736 0.02306 0.64895 0.0
C1432 C 0.98058 0.02337 0.63222 0.0
C1433 C 0.98695 0.00215 0.64735 0.0
C1434 C 0.96782 0.99094 0.6625 0.0
C1435 C 0.94336 0.00141 0.66343 0.0
H1436 H 0.5493 0.5473 0.8668 0.0
H1437 H 0.48509 0.57329 0.82247 0.0
H1438 H 0.53129 0.50453 0.86812 0.0
H1439 H 0.46599 0.53103 0.82528 0.0
H1440 H 0.45468 0.44723 0.80689 0.0
H1441 H 0.47187 0.49038 0.80769 0.0
H1442 H 0.4993 0.47771 0.88445 0.0
H1443 H 0.48293 0.43404 0.8829 0.0
C1444 C 0.53112 0.54388 0.85764 0.0
C1445 C 0.51867 0.56352 0.84439 0.0
C1446 C 0.52062 0.51943 0.85863 0.0
C1447 C 0.49722 0.51416 0.84666 0.0
C1448 C 0.48429 0.5342 0.83428 0.0
C1449 C 0.495 0.55856 0.83301 0.0
C1450 C 0.46445 0.45379 0.82386 0.0
C1451 C 0.46758 0.43753 0.84483 0.0
C1452 C 0.4741 0.47856 0.82447 0.0
C1453 C 0.48682 0.48774 0.84623 0.0
C1454 C 0.48991 0.47127 0.86725 0.0
C1455 C 0.48051 0.44632 0.86646 0.0
H1456 H 0.383 0.06189 0.01415 0.0
H1457 H 0.30307 0.05165 0.03008 0.0
H1458 H 0.38541 0.01824 0.99775 0.0
H1459 H 0.30498 0.00843 0.01304 0.0
H1460 H 0.32012 0.92465 0.00508 0.0
H1461 H 0.32127 0.9674 0.02332 0.0
H1462 H 0.37238 0.99154 0.9633 0.0
H1463 H 0.37219 0.94832 0.94602 0.0
C1464 C 0.36592 0.05029 0.0138 0.0
C1465 C 0.3429 0.05984 0.02339 0.0
C1466 C 0.36723 0.02536 0.00441 0.0
C1467 C 0.34543 0.00968 0.0043 0.0
C1468 C 0.32228 0.01969 0.0134 0.0
C1469 C 0.32107 0.04447 0.02293 0.0
C1470 C 0.33196 0.93902 0.99615 0.0
C1471 C 0.34593 0.93335 0.9741 0.0
C1472 C 0.33237 0.9636 0.00635 0.0
C1473 C 0.34662 0.98307 0.99456 0.0
C1474 C 0.3613 0.97704 0.97296 0.0
C1475 C 0.36104 0.95238 0.96292 0.0
H1476 H 0.44773 0.1948 0.53879 0.0
H1477 H 0.43109 0.12092 0.50704 0.0
H1478 H 0.49138 0.19201 0.52306 0.0
H1479 H 0.4751 0.11738 0.49203 0.0
H1480 H 0.54737 0.13244 0.44527 0.0
H1481 H 0.50399 0.13335 0.46168 0.0
H1482 H 0.53077 0.17146 0.52967 0.0
H1483 H 0.57392 0.17198 0.51225 0.0
C1484 C 0.45359 0.17789 0.52849 0.0
C1485 C 0.43622 0.1581 0.524 0.0
C1486 C 0.47864 0.17613 0.51969 0.0
C1487 C 0.48696 0.15436 0.50643 0.0
C1488 C 0.46936 0.13458 0.50187 0.0
C1489 C 0.44418 0.13652 0.51045 0.0
C1490 C 0.54391 0.14104 0.46371 0.0
C1491 C 0.56393 0.15232 0.4774 0.0
C1492 C 0.51907 0.14132 0.47328 0.0
C1493 C 0.51371 0.15263 0.49698 0.0
C1494 C 0.53404 0.16303 0.51113 0.0
C1495 C 0.55886 0.16299 0.50138 0.0
H1496 H 0.61232 0.06514 0.97942 0.0
H1497 H 0.69082 0.05477 0.95759 0.0
H1498 H 0.61065 0.02107 0.99472 0.0
H1499 H 0.68978 0.01119 0.97369 0.0
H1500 H 0.67598 0.92745 0.98325 0.0
H1501 H 0.67376 0.97026 0.96521 0.0
H1502 H 0.62491 0.99365 0.02735 0.0
H1503 H 0.62591 0.95032 0.04425 0.0
C1504 C 0.62926 0.0534 0.97819 0.0
C1505 C 0.65166 0.06312 0.96734 0.0
C1506 C 0.6284 0.02822 0.98699 0.0
C1507 C 0.65005 0.01239 0.98535 0.0
C1508 C 0.67255 0.02249 0.97475 0.0
C1509 C 0.67327 0.04751 0.96572 0.0
C1510 C 0.66439 0.94167 0.9927 0.0
C1511 C 0.65128 0.93571 0.01522 0.0
C1512 C 0.66339 0.96632 0.98261 0.0
C1513 C 0.64946 0.98565 0.995 0.0
C1514 C 0.63569 0.97933 0.01714 0.0
C1515 C 0.63646 0.95458 0.02702 0.0
H1516 H 0.45236 0.86731 0.44392 0.0
H1517 H 0.42813 0.82042 0.507 0.0
H1518 H 0.49558 0.86815 0.46097 0.0
H1519 H 0.47087 0.8226 0.52514 0.0
H1520 H 0.55491 0.80586 0.53563 0.0
H1521 H 0.51186 0.80598 0.5181 0.0
H1522 H 0.5224 0.88397 0.49335 0.0
H1523 H 0.56595 0.88317 0.51008 0.0
C1524 C 0.4563 0.85738 0.4616 0.0
C1525 C 0.43702 0.84361 0.47404 0.0
C1526 C 0.481 0.85809 0.47155 0.0
C1527 C 0.48688 0.8453 0.4944 0.0
C1528 C 0.46724 0.83223 0.50724 0.0
C1529 C 0.44263 0.83128 0.49709 0.0
C1530 C 0.54794 0.82293 0.5263 0.0
C1531 C 0.56354 0.84449 0.5241 0.0
C1532 C 0.52322 0.82314 0.51646 0.0
C1533 C 0.51344 0.84508 0.50449 0.0
C1534 C 0.52932 0.86663 0.50215 0.0
C1535 C 0.55421 0.86626 0.51175 0.0
H1536 H 0.02884 0.26769 0.20649 0.0
H1537 H 0.10949 0.26551 0.18958 0.0
H1538 H 0.0346 0.23299 0.23736 0.0
H1539 H 0.11505 0.23131 0.22044 0.0
H1540 H 0.1177 0.20099 0.30321 0.0
H1541 H 0.1084 0.23324 0.27078 0.0
H1542 H 0.05173 0.1837 0.23758 0.0
H1543 H 0.06138 0.15115 0.27001 0.0
C1544 C 0.04767 0.25964 0.20911 0.0
C1545 C 0.06871 0.2694 0.19562 0.0
C1546 C 0.05092 0.23981 0.22669 0.0
C1547 C 0.07529 0.22979 0.23134 0.0
C1548 C 0.09612 0.23895 0.2173 0.0
C1549 C 0.09285 0.2584 0.19951 0.0
C1550 C 0.10314 0.19713 0.28908 0.0
C1551 C 0.09039 0.17367 0.28879 0.0
C1552 C 0.09793 0.21544 0.27052 0.0
C1553 C 0.07953 0.21076 0.25165 0.0
C1554 C 0.06601 0.18766 0.25196 0.0
C1555 C 0.07157 0.16911 0.27033 0.0
H1556 H 0.76135 0.37911 0.32057 0.0
H1557 H 0.75888 0.45897 0.30015 0.0
H1558 H 0.72626 0.37068 0.29129 0.0
H1559 H 0.72375 0.45038 0.27093 0.0
H1560 H 0.64751 0.42525 0.23384 0.0
H1561 H 0.67776 0.43457 0.26829 0.0
H1562 H 0.72555 0.37256 0.24286 0.0
H1563 H 0.69528 0.36323 0.20871 0.0
C1564 C 0.75305 0.39495 0.31022 0.0
C1565 C 0.76313 0.41968 0.31248 0.0
C1566 C 0.73307 0.39006 0.29335 0.0
C1567 C 0.72257 0.40983 0.27864 0.0
C1568 C 0.73149 0.43481 0.28208 0.0
C1569 C 0.75165 0.43968 0.29877 0.0
C1570 C 0.66438 0.41353 0.23588 0.0
C1571 C 0.66905 0.39337 0.21896 0.0
C1572 C 0.6817 0.41894 0.25541 0.0
C1573 C 0.70379 0.40407 0.2584 0.0
C1574 C 0.70845 0.38403 0.24127 0.0
C1575 C 0.69132 0.37886 0.22162 0.0
H1576 H 0.93567 0.84158 0.27159 0.0
H1577 H 0.87144 0.79579 0.29493 0.0
H1578 H 0.94609 0.81 0.2385 0.0
H1579 H 0.88163 0.76453 0.26198 0.0
H1580 H 0.88812 0.73251 0.18214 0.0
H1581 H 0.88149 0.76726 0.21208 0.0
H1582 H 0.95932 0.76045 0.23775 0.0
H1583 H 0.96614 0.72525 0.20784 0.0
C1584 C 0.92381 0.8248 0.26953 0.0
C1585 C 0.90266 0.82108 0.2855 0.0
C1586 C 0.92982 0.80677 0.2508 0.0
C1587 C 0.91446 0.78507 0.2476 0.0
C1588 C 0.89355 0.78129 0.26387 0.0
C1589 C 0.88784 0.79903 0.28278 0.0
C1590 C 0.90401 0.73857 0.19383 0.0
C1591 C 0.92761 0.72588 0.19276 0.0
C1592 C 0.90013 0.75841 0.21104 0.0
C1593 C 0.91982 0.76625 0.22734 0.0
C1594 C 0.94387 0.7547 0.22533 0.0
C1595 C 0.94771 0.73455 0.20827 0.0
H1596 H 0.35021 0.62139 0.25087 0.0
H1597 H 0.31385 0.56911 0.19874 0.0
H1598 H 0.32057 0.60918 0.28407 0.0
H1599 H 0.28294 0.55807 0.2316 0.0
H1600 H 0.23811 0.53141 0.29903 0.0
H1601 H 0.27525 0.5376 0.27184 0.0
H1602 H 0.27681 0.61738 0.29231 0.0
H1603 H 0.24031 0.61105 0.32002 0.0
C1604 C 0.33641 0.60674 0.24662 0.0
C1605 C 0.33487 0.59575 0.22224 0.0
C1606 C 0.31898 0.60012 0.2656 0.0
C1607 C 0.29929 0.58269 0.26055 0.0
C1608 C 0.2981 0.57125 0.23634 0.0
C1609 C 0.31567 0.57775 0.2174 0.0
C1610 C 0.24666 0.55018 0.29807 0.0
C1611 C 0.23609 0.57079 0.31155 0.0
C1612 C 0.26785 0.55376 0.28233 0.0
C1613 C 0.27887 0.57803 0.27965 0.0
C1614 C 0.26903 0.59835 0.29411 0.0
C1615 C 0.24796 0.59475 0.30995 0.0
H1616 H 0.02665 0.73296 0.79135 0.0
H1617 H 0.10571 0.73548 0.81468 0.0
H1618 H 0.03474 0.76727 0.76077 0.0
H1619 H 0.11359 0.76946 0.78406 0.0
H1620 H 0.12275 0.79671 0.70055 0.0
H1621 H 0.11214 0.76662 0.73451 0.0
H1622 H 0.05035 0.81538 0.75856 0.0
H1623 H 0.06118 0.84571 0.72444 0.0
C1624 C 0.04562 0.74104 0.79025 0.0
C1625 C 0.06559 0.73127 0.80526 0.0
C1626 C 0.05018 0.7607 0.77282 0.0
C1627 C 0.07483 0.77068 0.76993 0.0
C1628 C 0.09448 0.76181 0.78576 0.0
C1629 C 0.08989 0.74243 0.80336 0.0
C1630 C 0.10686 0.8009 0.71306 0.0
C1631 C 0.09289 0.82349 0.71019 0.0
C1632 C 0.10093 0.78386 0.73255 0.0
C1633 C 0.08064 0.78891 0.74926 0.0
C1634 C 0.06614 0.81118 0.74594 0.0
C1635 C 0.07237 0.82849 0.72661 0.0
H1636 H 0.2951 0.37037 0.79231 0.0
H1637 H 0.34151 0.43531 0.77243 0.0
H1638 H 0.26566 0.38074 0.75775 0.0
H1639 H 0.31185 0.44587 0.73768 0.0
H1640 H 0.229 0.46694 0.70401 0.0
H1641 H 0.26342 0.45929 0.73454 0.0
H1642 H 0.26935 0.38152 0.7085 0.0
H1643 H 0.23521 0.38898 0.67799 0.0
C1644 C 0.29888 0.38693 0.78054 0.0
C1645 C 0.32057 0.40194 0.78474 0.0
C1646 C 0.28222 0.39273 0.76068 0.0
C1647 C 0.28672 0.41391 0.74491 0.0
C1648 C 0.30808 0.42937 0.74953 0.0
C1649 C 0.32504 0.4233 0.76923 0.0
C1650 C 0.23799 0.44836 0.70444 0.0
C1651 C 0.22917 0.42851 0.68871 0.0
C1652 C 0.25771 0.44404 0.72186 0.0
C1653 C 0.26872 0.41975 0.72403 0.0
C1654 C 0.2609 0.40034 0.70738 0.0
C1655 C 0.24145 0.4047 0.6898 0.0
H1656 H 0.97025 0.26618 0.79444 0.0
H1657 H 0.89006 0.2608 0.81259 0.0
H1658 H 0.96498 0.23294 0.76215 0.0
H1659 H 0.88497 0.22784 0.78049 0.0
H1660 H 0.8802 0.20142 0.69724 0.0
H1661 H 0.88907 0.23191 0.73129 0.0
H1662 H 0.95095 0.18452 0.7578 0.0
H1663 H 0.94193 0.15385 0.72354 0.0
C1664 C 0.95162 0.2577 0.79185 0.0
C1665 C 0.93053 0.26629 0.80603 0.0
C1666 C 0.94866 0.23865 0.77343 0.0
C1667 C 0.92452 0.22817 0.76868 0.0
C1668 C 0.90373 0.23591 0.78361 0.0
C1669 C 0.90672 0.25465 0.80217 0.0
C1670 C 0.89585 0.1977 0.71019 0.0
C1671 C 0.91025 0.1753 0.70808 0.0
C1672 C 0.90078 0.21497 0.72975 0.0
C1673 C 0.92045 0.21031 0.74731 0.0
C1674 C 0.93562 0.18842 0.74453 0.0
C1675 C 0.93042 0.17092 0.72511 0.0
H1676 H 0.70066 0.58517 0.81225 0.0
H1677 H 0.64235 0.57734 0.75477 0.0
H1678 H 0.73295 0.57206 0.78123 0.0
H1679 H 0.67461 0.56473 0.72362 0.0
H1680 H 0.74528 0.58663 0.673 0.0
H1681 H 0.71029 0.59024 0.70335 0.0
H1682 H 0.74716 0.53563 0.75271 0.0
H1683 H 0.78225 0.53196 0.7224 0.0
C1684 C 0.69477 0.58035 0.79306 0.0
C1685 C 0.66925 0.58308 0.78558 0.0
C1686 C 0.71317 0.57279 0.77535 0.0
C1687 C 0.70627 0.56778 0.74994 0.0
C1688 C 0.68048 0.56899 0.74295 0.0
C1689 C 0.6621 0.57632 0.7607 0.0
C1690 C 0.74579 0.57514 0.69014 0.0
C1691 C 0.76664 0.55917 0.69536 0.0
C1692 C 0.72568 0.5771 0.70745 0.0
C1693 C 0.72613 0.5633 0.73042 0.0
C1694 C 0.74649 0.54663 0.73523 0.0
C1695 C 0.76647 0.54444 0.71779 0.0
H1696 H 0.1616 0.09034 0.24825 0.0
H1697 H 0.21893 0.04379 0.28466 0.0
H1698 H 0.18928 0.09549 0.21128 0.0
H1699 H 0.2471 0.04998 0.2486 0.0
H1700 H 0.29029 0.0539 0.17514 0.0
H1701 H 0.25772 0.04234 0.2064 0.0
H1702 H 0.22575 0.11818 0.20044 0.0
H1703 H 0.25741 0.12893 0.16842 0.0
C1704 C 0.1801 0.08118 0.2483 0.0
C1705 C 0.18814 0.06679 0.26938 0.0
C1706 C 0.19608 0.08425 0.2272 0.0
C1707 C 0.22066 0.07343 0.22696 0.0
C1708 C 0.22824 0.0583 0.24778 0.0
C1709 C 0.21209 0.05484 0.26861 0.0
C1710 C 0.27602 0.06785 0.18041 0.0
C1711 C 0.27605 0.09212 0.16925 0.0
C1712 C 0.25745 0.06136 0.1984 0.0
C1713 C 0.23897 0.0793 0.20606 0.0
C1714 C 0.23914 0.1036 0.19465 0.0
C1715 C 0.25738 0.10986 0.17635 0.0
H1716 H 0.58468 0.18542 0.29915 0.0
H1717 H 0.5895 0.24419 0.3565 0.0
H1718 H 0.57097 0.21719 0.26786 0.0
H1719 H 0.57657 0.27606 0.32506 0.0
H1720 H 0.59303 0.32275 0.24968 0.0
H1721 H 0.59893 0.29312 0.28504 0.0
H1722 H 0.53486 0.24871 0.25874 0.0
H1723 H 0.5288 0.27834 0.2234 0.0
C1724 C 0.58271 0.20511 0.30505 0.0
C1725 C 0.58906 0.21255 0.32993 0.0
C1726 C 0.57479 0.22324 0.28722 0.0
C1727 C 0.57305 0.24909 0.29403 0.0
C1728 C 0.57824 0.25632 0.31924 0.0
C1729 C 0.58586 0.23814 0.33711 0.0
C1730 C 0.57994 0.30693 0.25166 0.0
C1731 C 0.56057 0.30283 0.23364 0.0
C1732 C 0.58326 0.29003 0.27196 0.0
C1733 C 0.56744 0.26857 0.27445 0.0
C1734 C 0.54743 0.265 0.25707 0.0
C1735 C 0.5439 0.28208 0.23696 0.0
H1736 H 0.8019 0.96702 0.25725 0.0
H1737 H 0.82024 0.8867 0.25568 0.0
H1738 H 0.77527 0.9617 0.21959 0.0
H1739 H 0.79299 0.88122 0.21874 0.0
H1740 H 0.75223 0.87781 0.14521 0.0
H1741 H 0.78547 0.8891 0.1751 0.0
H1742 H 0.73465 0.94305 0.21104 0.0
H1743 H 0.70188 0.93304 0.17973 0.0
C1744 C 0.80046 0.94828 0.24873 0.0
C1745 C 0.81304 0.92724 0.2596 0.0
C1746 C 0.78504 0.9452 0.22724 0.0
C1747 C 0.78172 0.92099 0.21627 0.0
C1748 C 0.79531 0.90022 0.22645 0.0
C1749 C 0.81088 0.90333 0.24777 0.0
C1750 C 0.7484 0.8929 0.15865 0.0
C1751 C 0.72452 0.90502 0.15957 0.0
C1752 C 0.76739 0.89898 0.17625 0.0
C1753 C 0.76279 0.91692 0.19558 0.0
C1754 C 0.73907 0.92944 0.19617 0.0
C1755 C 0.72017 0.92354 0.17837 0.0
H1756 H 0.41234 0.66998 0.24886 0.0
H1757 H 0.45986 0.72587 0.21155 0.0
H1758 H 0.40563 0.69914 0.28422 0.0
H1759 H 0.45217 0.75566 0.24624 0.0
H1760 H 0.44501 0.79973 0.32052 0.0
H1761 H 0.45786 0.7676 0.2892 0.0
H1762 H 0.38164 0.73612 0.29093 0.0
H1763 H 0.36946 0.7674 0.32272 0.0
C1764 C 0.42136 0.6885 0.24826 0.0
C1765 C 0.43637 0.69574 0.22735 0.0
C1766 C 0.4174 0.70533 0.26844 0.0
C1767 C 0.42793 0.73 0.26791 0.0
C1768 C 0.44391 0.73679 0.24746 0.0
C1769 C 0.44824 0.71974 0.22749 0.0
C1770 C 0.43121 0.78574 0.31419 0.0
C1771 C 0.40646 0.78562 0.32426 0.0
C1772 C 0.43846 0.76742 0.29623 0.0
C1773 C 0.42089 0.74901 0.2877 0.0
C1774 C 0.39596 0.7494 0.29758 0.0
C1775 C 0.38889 0.76741 0.31573 0.0
H1776 H 0.26684 0.93514 0.84556 0.0
H1777 H 0.29322 0.87362 0.79785 0.0
H1778 H 0.23276 0.94446 0.81467 0.0
H1779 H 0.2592 0.88263 0.76728 0.0
H1780 H 0.17936 0.88644 0.73493 0.0
H1781 H 0.20918 0.88005 0.76995 0.0
H1782 H 0.23148 0.9591 0.76574 0.0
H1783 H 0.2018 0.96566 0.73036 0.0
C1784 C 0.26524 0.92367 0.82848 0.0
C1785 C 0.28238 0.90364 0.82396 0.0
C1786 C 0.2459 0.929 0.81088 0.0
C1787 C 0.24327 0.91404 0.78885 0.0
C1788 C 0.26065 0.89419 0.78432 0.0
C1789 C 0.28017 0.88918 0.80163 0.0
C1790 C 0.19023 0.90263 0.74171 0.0
C1791 C 0.1884 0.9265 0.72965 0.0
C1792 C 0.20738 0.89889 0.76167 0.0
C1793 C 0.22275 0.91902 0.77024 0.0
C1794 C 0.21977 0.94331 0.75942 0.0
C1795 C 0.20284 0.947 0.73916 0.0
H1796 H 0.46501 0.29757 0.76541 0.0
H1797 H 0.38612 0.32067 0.75952 0.0
H1798 H 0.45967 0.27007 0.72836 0.0
H1799 H 0.38058 0.29269 0.72324 0.0
H1800 H 0.37763 0.25085 0.65072 0.0
H1801 H 0.39007 0.28396 0.68021 0.0
H1802 H 0.43872 0.23044 0.71973 0.0
H1803 H 0.42769 0.19765 0.68878 0.0
C1804 C 0.4466 0.29696 0.75611 0.0
C1805 C 0.42594 0.31116 0.76558 0.0
C1806 C 0.4435 0.28107 0.73497 0.0
C1807 C 0.41965 0.27897 0.72293 0.0
C1808 C 0.39933 0.29405 0.73176 0.0
C1809 C 0.40247 0.31004 0.75274 0.0
C1810 C 0.39186 0.24631 0.66487 0.0
C1811 C 0.40217 0.22167 0.66691 0.0
C1812 C 0.39858 0.26526 0.68224 0.0
C1813 C 0.4153 0.2599 0.70247 0.0
C1814 C 0.4261 0.23541 0.70417 0.0
C1815 C 0.41959 0.21652 0.68658 0.0
H1816 H 0.80269 0.03563 0.7389 0.0
H1817 H 0.82793 0.11412 0.73886 0.0
H1818 H 0.77385 0.04502 0.77419 0.0
H1819 H 0.79915 0.12329 0.77407 0.0
H1820 H 0.71502 0.13459 0.79997 0.0
H1821 H 0.75056 0.12396 0.77193 0.0
H1822 H 0.77037 0.06071 0.82084 0.0
H1823 H 0.73451 0.07146 0.849 0.0
C1824 C 0.80254 0.05471 0.74676 0.0
C1825 C 0.81736 0.07421 0.7358 0.0
C1826 C 0.78609 0.06003 0.76703 0.0
C1827 C 0.78406 0.08495 0.77654 0.0
C1828 C 0.80014 0.104 0.7668 0.0
C1829 C 0.81672 0.09867 0.74671 0.0
C1830 C 0.72705 0.11849 0.80474 0.0
C1831 C 0.72231 0.10396 0.82666 0.0
C1832 C 0.7475 0.11255 0.78888 0.0
C1833 C 0.76338 0.09172 0.79444 0.0
C1834 C 0.75848 0.07696 0.81627 0.0
C1835 C 0.73815 0.08317 0.8324 0.0
H1836 H 0.5291 0.70104 0.7589 0.0
H1837 H 0.60689 0.67453 0.7529 0.0
H1838 H 0.53698 0.73129 0.72427 0.0
H1839 H 0.6146 0.70477 0.71873 0.0
H1840 H 0.62556 0.79029 0.6971 0.0
H1841 H 0.61443 0.75477 0.72509 0.0
H1842 H 0.55237 0.7345 0.675 0.0
H1843 H 0.56379 0.77016 0.64667 0.0
C1844 C 0.54768 0.70121 0.7499 0.0
C1845 C 0.56751 0.68556 0.75902 0.0
C1846 C 0.55212 0.71848 0.73006 0.0
C1847 C 0.57648 0.72051 0.71922 0.0
C1848 C 0.59573 0.70371 0.72706 0.0
C1849 C 0.59124 0.6863 0.74662 0.0
C1850 C 0.60953 0.77825 0.69212 0.0
C1851 C 0.59563 0.78267 0.66975 0.0
C1852 C 0.60331 0.75788 0.70796 0.0
C1853 C 0.58277 0.74181 0.70194 0.0
C1854 C 0.56839 0.74658 0.67988 0.0
C1855 C 0.57495 0.7668 0.66371 0.0
H1856 H 0.28379 0.22118 0.04177 0.0
H1857 H 0.24474 0.16263 0.08447 0.0
H1858 H 0.24821 0.25008 0.04868 0.0
H1859 H 0.20858 0.1911 0.09055 0.0
H1860 H 0.1701 0.25891 0.12928 0.0
H1861 H 0.20099 0.22707 0.11623 0.0
H1862 H 0.20535 0.26197 0.04161 0.0
H1863 H 0.17482 0.29448 0.05526 0.0
C1864 C 0.26728 0.21429 0.05211 0.0
C1865 C 0.26719 0.18984 0.06303 0.0
C1866 C 0.2468 0.23083 0.056 0.0
C1867 C 0.22564 0.2231 0.07056 0.0
C1868 C 0.22488 0.19796 0.0799 0.0
C1869 C 0.24553 0.18158 0.07635 0.0
C1870 C 0.1773 0.25946 0.10994 0.0
C1871 C 0.16984 0.27885 0.09312 0.0
C1872 C 0.19498 0.24116 0.10239 0.0
C1873 C 0.20553 0.24172 0.07774 0.0
C1874 C 0.19781 0.26107 0.0608 0.0
C1875 C 0.18029 0.27961 0.06853 0.0
H1876 H 0.26244 0.79603 0.96661 0.0
H1877 H 0.2573 0.81862 0.88751 0.0
H1878 H 0.22511 0.76888 0.96125 0.0
H1879 H 0.22075 0.79094 0.88195 0.0
H1880 H 0.14761 0.74988 0.87904 0.0
H1881 H 0.17757 0.78271 0.89116 0.0
H1882 H 0.21598 0.72926 0.94077 0.0
H1883 H 0.18457 0.6968 0.93005 0.0
C1884 C 0.25323 0.79538 0.94814 0.0
C1885 C 0.26293 0.8094 0.92745 0.0
C1886 C 0.23193 0.77969 0.94504 0.0
C1887 C 0.22001 0.77753 0.92113 0.0
C1888 C 0.22915 0.79237 0.90074 0.0
C1889 C 0.25027 0.8082 0.9039 0.0
C1890 C 0.16162 0.74532 0.89341 0.0
C1891 C 0.1632 0.72079 0.90409 0.0
C1892 C 0.17926 0.7641 0.89994 0.0
C1893 C 0.19931 0.75867 0.91685 0.0
C1894 C 0.20057 0.73429 0.92799 0.0
C1895 C 0.18271 0.71558 0.92167 0.0
H1896 H 0.3107 0.23431 0.6092 0.0
H1897 H 0.29188 0.23373 0.52893 0.0
H1898 H 0.27998 0.26843 0.61606 0.0
H1899 H 0.26125 0.2682 0.53598 0.0
H1900 H 0.2264 0.34756 0.56182 0.0
H1901 H 0.25977 0.31605 0.55227 0.0
H1902 H 0.23038 0.26722 0.61171 0.0
H1903 H 0.1971 0.29851 0.62101 0.0
C1904 C 0.30032 0.24169 0.59294 0.0
C1905 C 0.30356 0.2311 0.56854 0.0
C1906 C 0.28265 0.26113 0.59694 0.0
C1907 C 0.26813 0.27066 0.57659 0.0
C1908 C 0.27227 0.26112 0.55195 0.0
C1909 C 0.28973 0.24137 0.54798 0.0
C1910 C 0.22719 0.33003 0.57272 0.0
C1911 C 0.20949 0.32537 0.59223 0.0
C1912 C 0.2461 0.31206 0.56723 0.0
C1913 C 0.24773 0.28943 0.58148 0.0
C1914 C 0.22971 0.2847 0.6007 0.0
C1915 C 0.21061 0.30243 0.60588 0.0
H1916 H 0.85278 0.25188 0.9146 0.0
H1917 H 0.79601 0.31137 0.91164 0.0
H1918 H 0.82001 0.22112 0.9269 0.0
H1919 H 0.7633 0.28075 0.9246 0.0
H1920 H 0.71381 0.22187 0.9646 0.0
H1921 H 0.74989 0.25111 0.96068 0.0
H1922 H 0.7824 0.20319 0.90225 0.0
H1923 H 0.74644 0.17404 0.90602 0.0
C1924 C 0.83325 0.25832 0.91645 0.0
C1925 C 0.82667 0.28374 0.91119 0.0
C1926 C 0.81459 0.24079 0.92371 0.0
C1927 C 0.78911 0.24851 0.92641 0.0
C1928 C 0.78283 0.2743 0.92274 0.0
C1929 C 0.80148 0.29178 0.91522 0.0
C1930 C 0.72888 0.21734 0.95123 0.0
C1931 C 0.72719 0.19574 0.93546 0.0
C1932 C 0.74942 0.23416 0.9489 0.0
C1933 C 0.76882 0.22946 0.93107 0.0
C1934 C 0.76779 0.20718 0.91628 0.0
C1935 C 0.74713 0.19057 0.91835 0.0
H1936 H 0.71915 0.78085 0.53644 0.0
H1937 H 0.67268 0.75593 0.5998 0.0
H1938 H 0.74719 0.74423 0.54274 0.0
H1939 H 0.70073 0.71941 0.606 0.0
H1940 H 0.74558 0.64524 0.59579 0.0
H1941 H 0.71558 0.67899 0.5844 0.0
H1942 H 0.77804 0.73218 0.57764 0.0
H1943 H 0.80797 0.69858 0.5897 0.0
C1944 C 0.7147 0.76741 0.55148 0.0
C1945 C 0.69376 0.7714 0.56773 0.0
C1946 C 0.73086 0.74654 0.55516 0.0
C1947 C 0.72621 0.72909 0.57494 0.0
C1948 C 0.70468 0.73247 0.59049 0.0
C1949 C 0.68868 0.75346 0.587 0.0
C1950 C 0.75285 0.66425 0.59235 0.0
C1951 C 0.77901 0.66955 0.59456 0.0
C1952 C 0.7357 0.68348 0.58558 0.0
C1953 C 0.74446 0.70823 0.58035 0.0
C1954 C 0.77076 0.71323 0.58144 0.0
C1955 C 0.78787 0.69405 0.58845 0.0
H1956 H 0.84448 0.74798 0.11444 0.0
H1957 H 0.80856 0.6933 0.06445 0.0
H1958 H 0.81617 0.7808 0.09918 0.0
H1959 H 0.77837 0.72585 0.05086 0.0
H1960 H 0.73264 0.79248 0.02169 0.0
H1961 H 0.76924 0.76447 0.02871 0.0
H1962 H 0.77356 0.79022 0.10688 0.0
H1963 H 0.73808 0.81853 0.09965 0.0
C1964 C 0.83109 0.74298 0.09967 0.0
C1965 C 0.82935 0.71798 0.09025 0.0
C1966 C 0.8143 0.76182 0.09131 0.0
C1967 C 0.79473 0.75601 0.07396 0.0
C1968 C 0.79338 0.73118 0.06398 0.0
C1969 C 0.81053 0.71241 0.072 0.0
C1970 C 0.74176 0.79242 0.04021 0.0
C1971 C 0.73243 0.80778 0.06008 0.0
C1972 C 0.76262 0.77626 0.0443 0.0
C1973 C 0.7744 0.775 0.06838 0.0
C1974 C 0.76544 0.79098 0.08792 0.0
C1975 C 0.74488 0.80722 0.08378 0.0
H1976 H 0.22529 0.65493 0.43343 0.0
H1977 H 0.20041 0.70175 0.37052 0.0
H1978 H 0.2591 0.68586 0.44303 0.0
H1979 H 0.23388 0.73263 0.38011 0.0
H1980 H 0.31325 0.76557 0.38477 0.0
H1981 H 0.28236 0.73171 0.37779 0.0
H1982 H 0.26257 0.73286 0.45764 0.0
H1983 H 0.29369 0.76682 0.46482 0.0
C1984 C 0.22717 0.67179 0.42166 0.0
C1985 C 0.21061 0.67591 0.40106 0.0
C1986 C 0.24631 0.68951 0.42724 0.0
C1987 C 0.24926 0.71141 0.41208 0.0
C1988 C 0.23228 0.71569 0.39182 0.0
C1989 C 0.21303 0.69818 0.38648 0.0
C1990 C 0.30272 0.75835 0.40098 0.0
C1991 C 0.30588 0.76901 0.42534 0.0
C1992 C 0.28486 0.7391 0.39691 0.0
C1993 C 0.26991 0.72993 0.41712 0.0
C1994 C 0.2739 0.73961 0.44174 0.0
C1995 C 0.29164 0.75909 0.4458 0.0
H1996 H 0.68479 0.23499 0.39279 0.0
H1997 H 0.70991 0.22505 0.47065 0.0
H1998 H 0.7162 0.26838 0.3868 0.0
H1999 H 0.74141 0.25902 0.46449 0.0
H2000 H 0.77689 0.34062 0.43993 0.0
H2001 H 0.74334 0.30967 0.45092 0.0
H2002 H 0.76669 0.26239 0.38781 0.0
H2003 H 0.80012 0.29301 0.37706 0.0
C2004 C 0.69661 0.24017 0.4088 0.0
C2005 C 0.69491 0.22706 0.43212 0.0
C2006 C 0.71472 0.25926 0.40529 0.0
C2007 C 0.73133 0.26595 0.4251 0.0
C2008 C 0.72876 0.2541 0.44894 0.0
C2009 C 0.71078 0.23466 0.45239 0.0
C2010 C 0.77477 0.32353 0.42856 0.0
C2011 C 0.79075 0.31917 0.40754 0.0
C2012 C 0.75579 0.30587 0.4349 0.0
C2013 C 0.75237 0.28392 0.41999 0.0
C2014 C 0.76882 0.27935 0.39939 0.0
C2015 C 0.78798 0.29672 0.39335 0.0
loop_
_geom_bond_atom_site_label_1
_geom_bond_atom_site_label_2
_geom_bond_distance
_geom_bond_site_symmetry_2
_ccdc_geom_bond_type
Co0 O3 1.970 . S
Co0 N17 1.989 . S
Co0 O25 1.967 . S
Co0 O32 1.920 . S
Co1 O4 1.966 . S
Co1 N10 2.022 . S
Co1 N18 1.993 . S
Co1 O26 1.941 . S
C2 O3 1.258 . S
C2 O4 1.263 . S
O3 Co0 1.970 . S
O3 C2 1.258 . S
O4 Co1 1.966 . S
O4 C2 1.263 . S
C5 O6 1.236 . S
C5 O32 1.281 1_655 S
O6 C5 1.236 . S
C7 C9 1.400 . S
C7 N10 1.351 . S
C7 C12 1.501 . S
C8 C9 1.387 . S
C8 N11 1.341 . S
C9 C7 1.400 . S
C9 C8 1.387 . S
N10 Co1 2.022 . S
N10 C7 1.351 . S
N10 N11 1.365 . S
N11 C8 1.341 . S
N11 N10 1.365 . S
N11 H31 0.862 . S
C12 C7 1.501 . S
C12 H13 0.961 . S
C12 H14 0.961 . S
C12 H15 0.960 . S
H13 C12 0.961 . S
H14 C12 0.961 . S
H15 C12 0.960 . S
C16 N17 1.342 . S
C16 C20 1.401 . S
C16 C21 1.499 . S
N17 Co0 1.989 . S
N17 C16 1.342 . S
N17 N18 1.388 . S
N18 Co1 1.993 . S
N18 N17 1.388 . S
N18 C19 1.346 . S
C19 N18 1.346 . S
C19 C20 1.396 . S
C19 C29 1.510 . S
C20 C16 1.401 . S
C20 C19 1.396 . S
C21 C16 1.499 . S
C21 H22 0.959 . S
C21 H23 0.960 1_455 S
C21 H24 0.961 . S
H22 C21 0.959 . S
H23 C21 0.960 1_655 S
H24 C21 0.961 . S
O25 Co0 1.967 . S
O25 C33 1.258 . S
O26 Co1 1.941 . S
O26 C33 1.266 . S
H27 C29 0.959 . S
H28 C29 0.961 . S
C29 C19 1.510 . S
C29 H27 0.959 . S
C29 H28 0.961 . S
C29 H30 0.960 . S
H30 C29 0.960 . S
H31 N11 0.862 . S
O32 Co0 1.920 . S
O32 C5 1.281 1_455 S
C33 O25 1.258 . S
C33 O26 1.266 . S
Co34 O37 1.970 . S
Co34 N51 1.989 . S
Co34 O59 1.967 . S
Co34 O66 1.920 . S
Co35 O38 1.966 . S
Co35 N44 2.022 . S
Co35 N52 1.993 . S
Co35 O60 1.941 . S
C36 O37 1.258 . S
C36 O38 1.263 . S
O37 Co34 1.970 . S
O37 C36 1.258 . S
O38 Co35 1.966 . S
O38 C36 1.263 . S
C39 O40 1.235 . S
C39 O66 1.289 . S
O40 C39 1.235 . S
C41 C43 1.400 . S
C41 N44 1.351 . S
C41 C46 1.501 . S
C42 C43 1.387 . S
C42 N45 1.341 . S
C43 C41 1.400 . S
C43 C42 1.387 . S
N44 Co35 2.022 . S
N44 C41 1.351 . S
N44 N45 1.365 . S
N45 C42 1.341 . S
N45 N44 1.365 . S
N45 H65 0.862 . S
C46 C41 1.501 . S
C46 H47 0.961 . S
C46 H48 0.961 . S
C46 H49 0.960 . S
H47 C46 0.961 . S
H48 C46 0.961 . S
H49 C46 0.960 . S
C50 N51 1.342 . S
C50 C54 1.401 . S
C50 C55 1.499 . S
N51 Co34 1.989 . S
N51 C50 1.342 . S
N51 N52 1.388 . S
N52 Co35 1.993 . S
N52 N51 1.388 . S
N52 C53 1.346 . S
C53 N52 1.346 . S
C53 C54 1.396 . S
C53 C63 1.510 . S
C54 C50 1.401 . S
C54 C53 1.396 . S
C55 C50 1.499 . S
C55 H56 0.959 . S
C55 H57 0.960 . S
C55 H58 0.961 . S
H56 C55 0.959 . S
H57 C55 0.960 . S
H58 C55 0.961 . S
O59 Co34 1.967 . S
O59 C67 1.258 . S
O60 Co35 1.941 . S
O60 C67 1.266 . S
H61 C63 0.959 . S
H62 C63 0.961 . S
C63 C53 1.510 . S
C63 H61 0.959 . S
C63 H62 0.961 . S
C63 H64 0.960 . S
H64 C63 0.960 . S
H65 N45 0.862 . S
O66 Co34 1.920 . S
O66 C39 1.289 . S
C67 O59 1.258 . S
C67 O60 1.266 . S
Co68 O71 1.970 . S
Co68 N85 1.989 . S
Co68 O93 1.967 . S
Co68 O100 1.920 . S
Co69 O72 1.966 . S
Co69 N78 2.022 . S
Co69 N86 1.993 . S
Co69 O94 1.941 . S
C70 O71 1.258 . S
C70 O72 1.263 . S
O71 Co68 1.970 . S
O71 C70 1.258 . S
O72 Co69 1.966 . S
O72 C70 1.263 . S
C73 O74 1.236 . S
C73 O100 1.281 1_455 S
O74 C73 1.236 . S
C75 C77 1.400 . S
C75 N78 1.351 . S
C75 C80 1.501 . S
C76 C77 1.387 . S
C76 N79 1.341 . S
C77 C75 1.400 . S
C77 C76 1.387 . S
N78 Co69 2.022 . S
N78 C75 1.351 . S
N78 N79 1.365 . S
N79 C76 1.341 . S
N79 N78 1.365 . S
N79 H99 0.862 . S
C80 C75 1.501 . S
C80 H81 0.961 . S
C80 H82 0.961 . S
C80 H83 0.960 . S
H81 C80 0.961 . S
H82 C80 0.961 . S
H83 C80 0.960 . S
C84 N85 1.342 . S
C84 C88 1.401 . S
C84 C89 1.499 . S
N85 Co68 1.989 . S
N85 C84 1.342 . S
N85 N86 1.388 . S
N86 Co69 1.993 . S
N86 N85 1.388 . S
N86 C87 1.346 . S
C87 N86 1.346 . S
C87 C88 1.396 . S
C87 C97 1.510 . S
C88 C84 1.401 . S
C88 C87 1.396 . S
C89 C84 1.499 . S
C89 H90 0.959 . S
C89 H91 0.960 1_655 S
C89 H92 0.961 . S
H90 C89 0.959 . S
H91 C89 0.960 1_455 S
H92 C89 0.961 . S
O93 Co68 1.967 . S
O93 C101 1.258 . S
O94 Co69 1.941 . S
O94 C101 1.266 . S
H95 C97 0.959 . S
H96 C97 0.961 . S
C97 C87 1.510 . S
C97 H95 0.959 . S
C97 H96 0.961 . S
C97 H98 0.960 . S
H98 C97 0.960 . S
H99 N79 0.862 . S
O100 Co68 1.920 . S
O100 C73 1.281 1_655 S
C101 O93 1.258 . S
C101 O94 1.266 . S
Co102 O105 1.970 . S
Co102 N119 1.989 . S
Co102 O127 1.967 . S
Co102 O134 1.920 . S
Co103 O106 1.966 . S
Co103 N112 2.022 . S
Co103 N120 1.993 . S
Co103 O128 1.941 . S
C104 O105 1.258 . S
C104 O106 1.263 . S
O105 Co102 1.970 . S
O105 C104 1.258 . S
O106 Co103 1.966 . S
O106 C104 1.263 . S
C107 O108 1.235 . S
C107 O134 1.289 . S
O108 C107 1.235 . S
C109 C111 1.400 . S
C109 N112 1.351 . S
C109 C114 1.501 . S
C110 C111 1.387 . S
C110 N113 1.341 . S
C111 C109 1.400 . S
C111 C110 1.387 . S
N112 Co103 2.022 . S
N112 C109 1.351 . S
N112 N113 1.365 . S
N113 C110 1.341 . S
N113 N112 1.365 . S
N113 H133 0.862 . S
C114 C109 1.501 . S
C114 H115 0.961 . S
C114 H116 0.961 . S
C114 H117 0.960 . S
H115 C114 0.961 . S
H116 C114 0.961 . S
H117 C114 0.960 . S
C118 N119 1.342 . S
C118 C122 1.401 . S
C118 C123 1.499 . S
N119 Co102 1.989 . S
N119 C118 1.342 . S
N119 N120 1.388 . S
N120 Co103 1.993 . S
N120 N119 1.388 . S
N120 C121 1.346 . S
C121 N120 1.346 . S
C121 C122 1.396 . S
C121 C131 1.510 . S
C122 C118 1.401 . S
C122 C121 1.396 . S
C123 C118 1.499 . S
C123 H124 0.959 . S
C123 H125 0.960 . S
C123 H126 0.961 . S
H124 C123 0.959 . S
H125 C123 0.960 . S
H126 C123 0.961 . S
O127 Co102 1.967 . S
O127 C135 1.258 . S
O128 Co103 1.941 . S
O128 C135 1.266 . S
H129 C131 0.959 . S
H130 C131 0.961 . S
C131 C121 1.510 . S
C131 H129 0.959 . S
C131 H130 0.961 . S
C131 H132 0.960 . S
H132 C131 0.960 . S
H133 N113 0.862 . S
O134 Co102 1.920 . S
O134 C107 1.289 . S
C135 O127 1.258 . S
C135 O128 1.266 . S
Co136 O139 1.970 . S
Co136 N153 1.989 . S
Co136 O161 1.967 . S
Co136 O168 1.920 . S
Co137 O140 1.966 . S
Co137 N146 2.022 . S
Co137 N154 1.993 . S
Co137 O162 1.941 . S
C138 O139 1.258 . S
C138 O140 1.263 . S
O139 Co136 1.970 . S
O139 C138 1.258 . S
O140 Co137 1.966 . S
O140 C138 1.263 . S
C141 O142 1.236 . S
C141 O168 1.281 1_655 S
O142 C141 1.236 . S
C143 C145 1.400 . S
C143 N146 1.351 . S
C143 C148 1.501 . S
C144 C145 1.387 . S
C144 N147 1.341 . S
C145 C143 1.400 . S
C145 C144 1.387 . S
N146 Co137 2.022 . S
N146 C143 1.351 . S
N146 N147 1.365 . S
N147 C144 1.341 . S
N147 N146 1.365 . S
N147 H167 0.862 . S
C148 C143 1.501 . S
C148 H149 0.961 . S
C148 H150 0.961 . S
C148 H151 0.960 . S
H149 C148 0.961 . S
H150 C148 0.961 . S
H151 C148 0.960 . S
C152 N153 1.342 . S
C152 C156 1.401 . S
C152 C157 1.499 . S
N153 Co136 1.989 . S
N153 C152 1.342 . S
N153 N154 1.388 . S
N154 Co137 1.993 . S
N154 N153 1.388 . S
N154 C155 1.346 . S
C155 N154 1.346 . S
C155 C156 1.396 . S
C155 C165 1.510 . S
C156 C152 1.401 . S
C156 C155 1.396 . S
C157 C152 1.499 . S
C157 H158 0.959 . S
C157 H159 0.960 1_455 S
C157 H160 0.961 . S
H158 C157 0.959 . S
H159 C157 0.960 1_655 S
H160 C157 0.961 . S
O161 Co136 1.967 . S
O161 C169 1.258 . S
O162 Co137 1.941 . S
O162 C169 1.266 . S
H163 C165 0.959 . S
H164 C165 0.961 . S
C165 C155 1.510 . S
C165 H163 0.959 . S
C165 H164 0.961 . S
C165 H166 0.960 . S
H166 C165 0.960 . S
H167 N147 0.862 . S
O168 Co136 1.920 . S
O168 C141 1.281 1_455 S
C169 O161 1.258 . S
C169 O162 1.266 . S
Co170 O173 1.970 . S
Co170 N187 1.989 . S
Co170 O195 1.967 . S
Co170 O202 1.920 . S
Co171 O174 1.966 . S
Co171 N180 2.022 . S
Co171 N188 1.993 . S
Co171 O196 1.941 . S
C172 O173 1.258 . S
C172 O174 1.263 . S
O173 Co170 1.970 . S
O173 C172 1.258 . S
O174 Co171 1.966 . S
O174 C172 1.263 . S
C175 O176 1.235 . S
C175 O202 1.289 . S
O176 C175 1.235 . S
C177 C179 1.400 . S
C177 N180 1.351 . S
C177 C182 1.501 . S
C178 C179 1.387 . S
C178 N181 1.341 . S
C179 C177 1.400 . S
C179 C178 1.387 . S
N180 Co171 2.022 . S
N180 C177 1.351 . S
N180 N181 1.365 . S
N181 C178 1.341 . S
N181 N180 1.365 . S
N181 H201 0.862 . S
C182 C177 1.501 . S
C182 H183 0.961 . S
C182 H184 0.961 . S
C182 H185 0.960 . S
H183 C182 0.961 . S
H184 C182 0.961 . S
H185 C182 0.960 . S
C186 N187 1.342 . S
C186 C190 1.401 . S
C186 C191 1.499 . S
N187 Co170 1.989 . S
N187 C186 1.342 . S
N187 N188 1.388 . S
N188 Co171 1.993 . S
N188 N187 1.388 . S
N188 C189 1.346 . S
C189 N188 1.346 . S
C189 C190 1.396 . S
C189 C199 1.510 . S
C190 C186 1.401 . S
C190 C189 1.396 . S
C191 C186 1.499 . S
C191 H192 0.959 . S
C191 H193 0.960 . S
C191 H194 0.961 . S
H192 C191 0.959 . S
H193 C191 0.960 . S
H194 C191 0.961 . S
O195 Co170 1.967 . S
O195 C203 1.258 . S
O196 Co171 1.941 . S
O196 C203 1.266 . S
H197 C199 0.959 . S
H198 C199 0.961 . S
C199 C189 1.510 . S
C199 H197 0.959 . S
C199 H198 0.961 . S
C199 H200 0.960 . S
H200 C199 0.960 . S
H201 N181 0.862 . S
O202 Co170 1.920 . S
O202 C175 1.289 . S
C203 O195 1.258 . S
C203 O196 1.266 . S
Co204 O207 1.970 . S
Co204 N221 1.989 . S
Co204 O229 1.967 . S
Co204 O236 1.920 . S
Co205 O208 1.966 . S
Co205 N214 2.022 . S
Co205 N222 1.993 . S
Co205 O230 1.941 . S
C206 O207 1.258 . S
C206 O208 1.263 . S
O207 Co204 1.970 . S
O207 C206 1.258 . S
O208 Co205 1.966 . S
O208 C206 1.263 . S
C209 O210 1.236 . S
C209 O236 1.281 1_455 S
O210 C209 1.236 . S
C211 C213 1.400 . S
C211 N214 1.351 . S
C211 C216 1.501 . S
C212 C213 1.387 . S
C212 N215 1.341 . S
C213 C211 1.400 . S
C213 C212 1.387 . S
N214 Co205 2.022 . S
N214 C211 1.351 . S
N214 N215 1.365 . S
N215 C212 1.341 . S
N215 N214 1.365 . S
N215 H235 0.862 . S
C216 C211 1.501 . S
C216 H217 0.961 . S
C216 H218 0.961 . S
C216 H219 0.960 . S
H217 C216 0.961 . S
H218 C216 0.961 . S
H219 C216 0.960 . S
C220 N221 1.342 . S
C220 C224 1.401 . S
C220 C225 1.499 . S
N221 Co204 1.989 . S
N221 C220 1.342 . S
N221 N222 1.388 . S
N222 Co205 1.993 . S
N222 N221 1.388 . S
N222 C223 1.346 . S
C223 N222 1.346 . S
C223 C224 1.396 . S
C223 C233 1.510 . S
C224 C220 1.401 . S
C224 C223 1.396 . S
C225 C220 1.499 . S
C225 H226 0.959 . S
C225 H227 0.960 1_655 S
C225 H228 0.961 . S
H226 C225 0.959 . S
H227 C225 0.960 1_455 S
H228 C225 0.961 . S
O229 Co204 1.967 . S
O229 C237 1.258 . S
O230 Co205 1.941 . S
O230 C237 1.266 . S
H231 C233 0.959 . S
H232 C233 0.961 . S
C233 C223 1.510 . S
C233 H231 0.959 . S
C233 H232 0.961 . S
C233 H234 0.960 . S
H234 C233 0.960 . S
H235 N215 0.862 . S
O236 Co204 1.920 . S
O236 C209 1.281 1_655 S
C237 O229 1.258 . S
C237 O230 1.266 . S
Co238 O241 1.970 . S
Co238 N255 1.989 . S
Co238 O263 1.967 . S
Co238 O270 1.920 . S
Co239 O242 1.966 . S
Co239 N248 2.022 . S
Co239 N256 1.993 . S
Co239 O264 1.941 . S
C240 O241 1.258 . S
C240 O242 1.263 . S
O241 Co238 1.970 . S
O241 C240 1.258 . S
O242 Co239 1.966 . S
O242 C240 1.263 . S
C243 O244 1.235 . S
C243 O270 1.289 . S
O244 C243 1.235 . S
C245 C247 1.400 . S
C245 N248 1.351 . S
C245 C250 1.501 . S
C246 C247 1.387 . S
C246 N249 1.341 . S
C247 C245 1.400 . S
C247 C246 1.387 . S
N248 Co239 2.022 . S
N248 C245 1.351 . S
N248 N249 1.365 . S
N249 C246 1.341 . S
N249 N248 1.365 . S
N249 H269 0.862 . S
C250 C245 1.501 . S
C250 H251 0.961 . S
C250 H252 0.961 . S
C250 H253 0.960 . S
H251 C250 0.961 . S
H252 C250 0.961 . S
H253 C250 0.960 . S
C254 N255 1.342 . S
C254 C258 1.401 . S
C254 C259 1.499 . S
N255 Co238 1.989 . S
N255 C254 1.342 . S
N255 N256 1.388 . S
N256 Co239 1.993 . S
N256 N255 1.388 . S
N256 C257 1.346 . S
C257 N256 1.346 . S
C257 C258 1.396 . S
C257 C267 1.510 . S
C258 C254 1.401 . S
C258 C257 1.396 . S
C259 C254 1.499 . S
C259 H260 0.959 . S
C259 H261 0.960 . S
C259 H262 0.961 . S
H260 C259 0.959 . S
H261 C259 0.960 . S
H262 C259 0.961 . S
O263 Co238 1.967 . S
O263 C271 1.258 . S
O264 Co239 1.941 . S
O264 C271 1.266 . S
H265 C267 0.959 . S
H266 C267 0.961 . S
C267 C257 1.510 . S
C267 H265 0.959 . S
C267 H266 0.961 . S
C267 H268 0.960 . S
H268 C267 0.960 . S
H269 N249 0.862 . S
O270 Co238 1.920 . S
O270 C243 1.289 . S
C271 O263 1.258 . S
C271 O264 1.266 . S
Co272 O275 1.970 . S
Co272 N289 1.989 . S
Co272 O297 1.967 . S
Co272 O304 1.920 . S
Co273 O276 1.966 . S
Co273 N282 2.022 . S
Co273 N290 1.993 . S
Co273 O298 1.941 . S
C274 O275 1.258 . S
C274 O276 1.263 . S
O275 Co272 1.970 . S
O275 C274 1.258 . S
O276 Co273 1.966 . S
O276 C274 1.263 . S
C277 O278 1.236 . S
C277 O304 1.281 1_565 S
O278 C277 1.236 . S
C279 C281 1.400 . S
C279 N282 1.351 . S
C279 C284 1.501 . S
C280 C281 1.387 . S
C280 N283 1.341 . S
C281 C279 1.400 . S
C281 C280 1.387 . S
N282 Co273 2.022 . S
N282 C279 1.351 . S
N282 N283 1.365 . S
N283 C280 1.341 . S
N283 N282 1.365 . S
N283 H303 0.862 . S
C284 C279 1.501 . S
C284 H285 0.961 . S
C284 H286 0.961 . S
C284 H287 0.960 . S
H285 C284 0.961 . S
H286 C284 0.961 . S
H287 C284 0.960 . S
C288 N289 1.342 . S
C288 C292 1.401 . S
C288 C293 1.499 . S
N289 Co272 1.989 . S
N289 C288 1.342 . S
N289 N290 1.388 . S
N290 Co273 1.993 . S
N290 N289 1.388 . S
N290 C291 1.346 . S
C291 N290 1.346 . S
C291 C292 1.396 . S
C291 C301 1.510 . S
C292 C288 1.401 . S
C292 C291 1.396 . S
C293 C288 1.499 . S
C293 H294 0.959 . S
C293 H295 0.960 1_545 S
C293 H296 0.961 . S
H294 C293 0.959 . S
H295 C293 0.960 1_565 S
H296 C293 0.961 . S
O297 Co272 1.967 . S
O297 C305 1.258 . S
O298 Co273 1.941 . S
O298 C305 1.266 . S
H299 C301 0.959 . S
H300 C301 0.961 . S
C301 C291 1.510 . S
C301 H299 0.959 . S
C301 H300 0.961 . S
C301 H302 0.960 . S
H302 C301 0.960 . S
H303 N283 0.862 . S
O304 Co272 1.920 . S
O304 C277 1.281 1_545 S
C305 O297 1.258 . S
C305 O298 1.266 . S
Co306 O309 1.970 . S
Co306 N323 1.989 . S
Co306 O331 1.967 . S
Co306 O338 1.920 . S
Co307 O310 1.966 . S
Co307 N316 2.022 . S
Co307 N324 1.993 . S
Co307 O332 1.941 . S
C308 O309 1.258 . S
C308 O310 1.263 . S
O309 Co306 1.970 . S
O309 C308 1.258 . S
O310 Co307 1.966 . S
O310 C308 1.263 . S
C311 O312 1.235 . S
C311 O338 1.289 . S
O312 C311 1.235 . S
C313 C315 1.400 . S
C313 N316 1.351 . S
C313 C318 1.501 . S
C314 C315 1.387 . S
C314 N317 1.341 . S
C315 C313 1.400 . S
C315 C314 1.387 . S
N316 Co307 2.022 . S
N316 C313 1.351 . S
N316 N317 1.365 . S
N317 C314 1.341 . S
N317 N316 1.365 . S
N317 H337 0.862 . S
C318 C313 1.501 . S
C318 H319 0.961 . S
C318 H320 0.961 . S
C318 H321 0.960 . S
H319 C318 0.961 . S
H320 C318 0.961 . S
H321 C318 0.960 . S
C322 N323 1.342 . S
C322 C326 1.401 . S
C322 C327 1.499 . S
N323 Co306 1.989 . S
N323 C322 1.342 . S
N323 N324 1.388 . S
N324 Co307 1.993 . S
N324 N323 1.388 . S
N324 C325 1.346 . S
C325 N324 1.346 . S
C325 C326 1.396 . S
C325 C335 1.510 . S
C326 C322 1.401 . S
C326 C325 1.396 . S
C327 C322 1.499 . S
C327 H328 0.959 . S
C327 H329 0.960 . S
C327 H330 0.961 . S
H328 C327 0.959 . S
H329 C327 0.960 . S
H330 C327 0.961 . S
O331 Co306 1.967 . S
O331 C339 1.258 . S
O332 Co307 1.941 . S
O332 C339 1.266 . S
H333 C335 0.959 . S
H334 C335 0.961 . S
C335 C325 1.510 . S
C335 H333 0.959 . S
C335 H334 0.961 . S
C335 H336 0.960 . S
H336 C335 0.960 . S
H337 N317 0.862 . S
O338 Co306 1.920 . S
O338 C311 1.289 . S
C339 O331 1.258 . S
C339 O332 1.266 . S
Co340 O343 1.970 . S
Co340 N357 1.989 . S
Co340 O365 1.967 . S
Co340 O372 1.920 . S
Co341 O344 1.966 . S
Co341 N350 2.022 . S
Co341 N358 1.993 . S
Co341 O366 1.941 . S
C342 O343 1.258 . S
C342 O344 1.263 . S
O343 Co340 1.970 . S
O343 C342 1.258 . S
O344 Co341 1.966 . S
O344 C342 1.263 . S
C345 O346 1.236 . S
C345 O372 1.281 1_545 S
O346 C345 1.236 . S
C347 C349 1.400 . S
C347 N350 1.351 . S
C347 C352 1.501 . S
C348 C349 1.387 . S
C348 N351 1.341 . S
C349 C347 1.400 . S
C349 C348 1.387 . S
N350 Co341 2.022 . S
N350 C347 1.351 . S
N350 N351 1.365 . S
N351 C348 1.341 . S
N351 N350 1.365 . S
N351 H371 0.862 . S
C352 C347 1.501 . S
C352 H353 0.961 . S
C352 H354 0.961 . S
C352 H355 0.960 . S
H353 C352 0.961 . S
H354 C352 0.961 . S
H355 C352 0.960 . S
C356 N357 1.342 . S
C356 C360 1.401 . S
C356 C361 1.499 . S
N357 Co340 1.989 . S
N357 C356 1.342 . S
N357 N358 1.388 . S
N358 Co341 1.993 . S
N358 N357 1.388 . S
N358 C359 1.346 . S
C359 N358 1.346 . S
C359 C360 1.396 . S
C359 C369 1.510 . S
C360 C356 1.401 . S
C360 C359 1.396 . S
C361 C356 1.499 . S
C361 H362 0.959 . S
C361 H363 0.960 1_565 S
C361 H364 0.961 . S
H362 C361 0.959 . S
H363 C361 0.960 1_545 S
H364 C361 0.961 . S
O365 Co340 1.967 . S
O365 C373 1.258 . S
O366 Co341 1.941 . S
O366 C373 1.266 . S
H367 C369 0.959 . S
H368 C369 0.961 . S
C369 C359 1.510 . S
C369 H367 0.959 . S
C369 H368 0.961 . S
C369 H370 0.960 . S
H370 C369 0.960 . S
H371 N351 0.862 . S
O372 Co340 1.920 . S
O372 C345 1.281 1_565 S
C373 O365 1.258 . S
C373 O366 1.266 . S
Co374 O377 1.970 . S
Co374 N391 1.989 . S
Co374 O399 1.967 . S
Co374 O406 1.920 . S
Co375 O378 1.966 . S
Co375 N384 2.022 . S
Co375 N392 1.993 . S
Co375 O400 1.941 . S
C376 O377 1.258 . S
C376 O378 1.263 . S
O377 Co374 1.970 . S
O377 C376 1.258 . S
O378 Co375 1.966 . S
O378 C376 1.263 . S
C379 O380 1.235 . S
C379 O406 1.289 . S
O380 C379 1.235 . S
C381 C383 1.400 . S
C381 N384 1.351 . S
C381 C386 1.501 . S
C382 C383 1.387 . S
C382 N385 1.341 . S
C383 C381 1.400 . S
C383 C382 1.387 . S
N384 Co375 2.022 . S
N384 C381 1.351 . S
N384 N385 1.365 . S
N385 C382 1.341 . S
N385 N384 1.365 . S
N385 H405 0.862 . S
C386 C381 1.501 . S
C386 H387 0.961 . S
C386 H388 0.961 . S
C386 H389 0.960 . S
H387 C386 0.961 . S
H388 C386 0.961 . S
H389 C386 0.960 . S
C390 N391 1.342 . S
C390 C394 1.401 . S
C390 C395 1.499 . S
N391 Co374 1.989 . S
N391 C390 1.342 . S
N391 N392 1.388 . S
N392 Co375 1.993 . S
N392 N391 1.388 . S
N392 C393 1.346 . S
C393 N392 1.346 . S
C393 C394 1.396 . S
C393 C403 1.510 . S
C394 C390 1.401 . S
C394 C393 1.396 . S
C395 C390 1.499 . S
C395 H396 0.959 . S
C395 H397 0.960 . S
C395 H398 0.961 . S
H396 C395 0.959 . S
H397 C395 0.960 . S
H398 C395 0.961 . S
O399 Co374 1.967 . S
O399 C407 1.258 . S
O400 Co375 1.941 . S
O400 C407 1.266 . S
H401 C403 0.959 . S
H402 C403 0.961 . S
C403 C393 1.510 . S
C403 H401 0.959 . S
C403 H402 0.961 . S
C403 H404 0.960 . S
H404 C403 0.960 . S
H405 N385 0.862 . S
O406 Co374 1.920 . S
O406 C379 1.289 . S
C407 O399 1.258 . S
C407 O400 1.266 . S
Co408 O411 1.970 . S
Co408 N425 1.989 . S
Co408 O433 1.967 . S
Co408 O440 1.920 . S
Co409 O412 1.966 . S
Co409 N418 2.022 . S
Co409 N426 1.993 . S
Co409 O434 1.941 . S
C410 O411 1.258 . S
C410 O412 1.263 . S
O411 Co408 1.970 . S
O411 C410 1.258 . S
O412 Co409 1.966 . S
O412 C410 1.263 . S
C413 O414 1.236 . S
C413 O440 1.281 1_545 S
O414 C413 1.236 . S
C415 C417 1.400 . S
C415 N418 1.351 . S
C415 C420 1.501 . S
C416 C417 1.387 . S
C416 N419 1.341 . S
C417 C415 1.400 . S
C417 C416 1.387 . S
N418 Co409 2.022 . S
N418 C415 1.351 . S
N418 N419 1.365 . S
N419 C416 1.341 . S
N419 N418 1.365 . S
N419 H439 0.862 . S
C420 C415 1.501 . S
C420 H421 0.961 . S
C420 H422 0.961 . S
C420 H423 0.960 . S
H421 C420 0.961 . S
H422 C420 0.961 . S
H423 C420 0.960 . S
C424 N425 1.342 . S
C424 C428 1.401 . S
C424 C429 1.499 . S
N425 Co408 1.989 . S
N425 C424 1.342 . S
N425 N426 1.388 . S
N426 Co409 1.993 . S
N426 N425 1.388 . S
N426 C427 1.346 . S
C427 N426 1.346 . S
C427 C428 1.396 . S
C427 C437 1.510 . S
C428 C424 1.401 . S
C428 C427 1.396 . S
C429 C424 1.499 . S
C429 H430 0.959 . S
C429 H431 0.960 1_565 S
C429 H432 0.961 . S
H430 C429 0.959 . S
H431 C429 0.960 1_545 S
H432 C429 0.961 . S
O433 Co408 1.967 . S
O433 C441 1.258 . S
O434 Co409 1.941 . S
O434 C441 1.266 . S
H435 C437 0.959 . S
H436 C437 0.961 . S
C437 C427 1.510 . S
C437 H435 0.959 . S
C437 H436 0.961 . S
C437 H438 0.960 . S
H438 C437 0.960 . S
H439 N419 0.862 . S
O440 Co408 1.920 . S
O440 C413 1.281 1_565 S
C441 O433 1.258 . S
C441 O434 1.266 . S
Co442 O445 1.970 . S
Co442 N459 1.989 . S
Co442 O467 1.967 . S
Co442 O474 1.920 . S
Co443 O446 1.966 . S
Co443 N452 2.022 . S
Co443 N460 1.993 . S
Co443 O468 1.941 . S
C444 O445 1.258 . S
C444 O446 1.263 . S
O445 Co442 1.970 . S
O445 C444 1.258 . S
O446 Co443 1.966 . S
O446 C444 1.263 . S
C447 O448 1.235 . S
C447 O474 1.289 . S
O448 C447 1.235 . S
C449 C451 1.400 . S
C449 N452 1.351 . S
C449 C454 1.501 . S
C450 C451 1.387 . S
C450 N453 1.341 . S
C451 C449 1.400 . S
C451 C450 1.387 . S
N452 Co443 2.022 . S
N452 C449 1.351 . S
N452 N453 1.365 . S
N453 C450 1.341 . S
N453 N452 1.365 . S
N453 H473 0.862 . S
C454 C449 1.501 . S
C454 H455 0.961 . S
C454 H456 0.961 . S
C454 H457 0.960 . S
H455 C454 0.961 . S
H456 C454 0.961 . S
H457 C454 0.960 . S
C458 N459 1.342 . S
C458 C462 1.401 . S
C458 C463 1.499 . S
N459 Co442 1.989 . S
N459 C458 1.342 . S
N459 N460 1.388 . S
N460 Co443 1.993 . S
N460 N459 1.388 . S
N460 C461 1.346 . S
C461 N460 1.346 . S
C461 C462 1.396 . S
C461 C471 1.510 . S
C462 C458 1.401 . S
C462 C461 1.396 . S
C463 C458 1.499 . S
C463 H464 0.959 . S
C463 H465 0.960 . S
C463 H466 0.961 . S
H464 C463 0.959 . S
H465 C463 0.960 . S
H466 C463 0.961 . S
O467 Co442 1.967 . S
O467 C475 1.258 . S
O468 Co443 1.941 . S
O468 C475 1.266 . S
H469 C471 0.959 . S
H470 C471 0.961 . S
C471 C461 1.510 . S
C471 H469 0.959 . S
C471 H470 0.961 . S
C471 H472 0.960 . S
H472 C471 0.960 . S
H473 N453 0.862 . S
O474 Co442 1.920 . S
O474 C447 1.289 . S
C475 O467 1.258 . S
C475 O468 1.266 . S
Co476 O479 1.970 . S
Co476 N493 1.989 . S
Co476 O501 1.967 . S
Co476 O508 1.920 . S
Co477 O480 1.966 . S
Co477 N486 2.022 . S
Co477 N494 1.993 . S
Co477 O502 1.941 . S
C478 O479 1.258 . S
C478 O480 1.263 . S
O479 Co476 1.970 . S
O479 C478 1.258 . S
O480 Co477 1.966 . S
O480 C478 1.263 . S
C481 O482 1.236 . S
C481 O508 1.281 1_565 S
O482 C481 1.236 . S
C483 C485 1.400 . S
C483 N486 1.351 . S
C483 C488 1.501 . S
C484 C485 1.387 . S
C484 N487 1.341 . S
C485 C483 1.400 . S
C485 C484 1.387 . S
N486 Co477 2.022 . S
N486 C483 1.351 . S
N486 N487 1.365 . S
N487 C484 1.341 . S
N487 N486 1.365 . S
N487 H507 0.862 . S
C488 C483 1.501 . S
C488 H489 0.961 . S
C488 H490 0.961 . S
C488 H491 0.960 . S
H489 C488 0.961 . S
H490 C488 0.961 . S
H491 C488 0.960 . S
C492 N493 1.342 . S
C492 C496 1.401 . S
C492 C497 1.499 . S
N493 Co476 1.989 . S
N493 C492 1.342 . S
N493 N494 1.388 . S
N494 Co477 1.993 . S
N494 N493 1.388 . S
N494 C495 1.346 . S
C495 N494 1.346 . S
C495 C496 1.396 . S
C495 C505 1.510 . S
C496 C492 1.401 . S
C496 C495 1.396 . S
C497 C492 1.499 . S
C497 H498 0.959 . S
C497 H499 0.960 1_545 S
C497 H500 0.961 . S
H498 C497 0.959 . S
H499 C497 0.960 1_565 S
H500 C497 0.961 . S
O501 Co476 1.967 . S
O501 C509 1.258 . S
O502 Co477 1.941 . S
O502 C509 1.266 . S
H503 C505 0.959 . S
H504 C505 0.961 . S
C505 C495 1.510 . S
C505 H503 0.959 . S
C505 H504 0.961 . S
C505 H506 0.960 . S
H506 C505 0.960 . S
H507 N487 0.862 . S
O508 Co476 1.920 . S
O508 C481 1.281 1_545 S
C509 O501 1.258 . S
C509 O502 1.266 . S
Co510 O513 1.970 . S
Co510 N527 1.989 . S
Co510 O535 1.967 . S
Co510 O542 1.920 . S
Co511 O514 1.966 . S
Co511 N520 2.022 . S
Co511 N528 1.993 . S
Co511 O536 1.941 . S
C512 O513 1.258 . S
C512 O514 1.263 . S
O513 Co510 1.970 . S
O513 C512 1.258 . S
O514 Co511 1.966 . S
O514 C512 1.263 . S
C515 O516 1.235 . S
C515 O542 1.289 . S
O516 C515 1.235 . S
C517 C519 1.400 . S
C517 N520 1.351 . S
C517 C522 1.501 . S
C518 C519 1.387 . S
C518 N521 1.341 . S
C519 C517 1.400 . S
C519 C518 1.387 . S
N520 Co511 2.022 . S
N520 C517 1.351 . S
N520 N521 1.365 . S
N521 C518 1.341 . S
N521 N520 1.365 . S
N521 H541 0.862 . S
C522 C517 1.501 . S
C522 H523 0.961 . S
C522 H524 0.961 . S
C522 H525 0.960 . S
H523 C522 0.961 . S
H524 C522 0.961 . S
H525 C522 0.960 . S
C526 N527 1.342 . S
C526 C530 1.401 . S
C526 C531 1.499 . S
N527 Co510 1.989 . S
N527 C526 1.342 . S
N527 N528 1.388 . S
N528 Co511 1.993 . S
N528 N527 1.388 . S
N528 C529 1.346 . S
C529 N528 1.346 . S
C529 C530 1.396 . S
C529 C539 1.510 . S
C530 C526 1.401 . S
C530 C529 1.396 . S
C531 C526 1.499 . S
C531 H532 0.959 . S
C531 H533 0.960 . S
C531 H534 0.961 . S
H532 C531 0.959 . S
H533 C531 0.960 . S
H534 C531 0.961 . S
O535 Co510 1.967 . S
O535 C543 1.258 . S
O536 Co511 1.941 . S
O536 C543 1.266 . S
H537 C539 0.959 . S
H538 C539 0.961 . S
C539 C529 1.510 . S
C539 H537 0.959 . S
C539 H538 0.961 . S
C539 H540 0.960 . S
H540 C539 0.960 . S
H541 N521 0.862 . S
O542 Co510 1.920 . S
O542 C515 1.289 . S
C543 O535 1.258 . S
C543 O536 1.266 . S
Co544 O547 1.970 . S
Co544 N561 1.989 . S
Co544 O569 1.967 . S
Co544 O576 1.920 . S
Co545 O548 1.966 . S
Co545 N554 2.022 . S
Co545 N562 1.993 . S
Co545 O570 1.941 . S
C546 O547 1.258 . S
C546 O548 1.263 . S
O547 Co544 1.970 . S
O547 C546 1.258 . S
O548 Co545 1.966 . S
O548 C546 1.263 . S
C549 O550 1.236 . S
C549 O576 1.281 1_556 S
O550 C549 1.236 . S
C551 C553 1.400 . S
C551 N554 1.351 . S
C551 C556 1.501 . S
C552 C553 1.387 . S
C552 N555 1.341 . S
C553 C551 1.400 . S
C553 C552 1.387 . S
N554 Co545 2.022 . S
N554 C551 1.351 . S
N554 N555 1.365 . S
N555 C552 1.341 . S
N555 N554 1.365 . S
N555 H575 0.862 . S
C556 C551 1.501 . S
C556 H557 0.961 . S
C556 H558 0.961 . S
C556 H559 0.960 . S
H557 C556 0.961 . S
H558 C556 0.961 . S
H559 C556 0.960 . S
C560 N561 1.342 . S
C560 C564 1.401 . S
C560 C565 1.499 . S
N561 Co544 1.989 . S
N561 C560 1.342 . S
N561 N562 1.388 . S
N562 Co545 1.993 . S
N562 N561 1.388 . S
N562 C563 1.346 . S
C563 N562 1.346 . S
C563 C564 1.396 . S
C563 C573 1.510 . S
C564 C560 1.401 . S
C564 C563 1.396 . S
C565 C560 1.499 . S
C565 H566 0.959 . S
C565 H567 0.960 1_554 S
C565 H568 0.961 . S
H566 C565 0.959 . S
H567 C565 0.960 1_556 S
H568 C565 0.961 . S
O569 Co544 1.967 . S
O569 C577 1.258 . S
O570 Co545 1.941 . S
O570 C577 1.266 . S
H571 C573 0.959 . S
H572 C573 0.961 . S
C573 C563 1.510 . S
C573 H571 0.959 . S
C573 H572 0.961 . S
C573 H574 0.960 . S
H574 C573 0.960 . S
H575 N555 0.862 . S
O576 Co544 1.920 . S
O576 C549 1.281 1_554 S
C577 O569 1.258 . S
C577 O570 1.266 . S
Co578 O581 1.970 . S
Co578 N595 1.989 . S
Co578 O603 1.967 . S
Co578 O610 1.920 . S
Co579 O582 1.966 . S
Co579 N588 2.022 . S
Co579 N596 1.993 . S
Co579 O604 1.941 . S
C580 O581 1.258 . S
C580 O582 1.263 . S
O581 Co578 1.970 . S
O581 C580 1.258 . S
O582 Co579 1.966 . S
O582 C580 1.263 . S
C583 O584 1.236 . S
C583 O610 1.281 1_554 S
O584 C583 1.236 . S
C585 C587 1.400 . S
C585 N588 1.351 . S
C585 C590 1.501 . S
C586 C587 1.387 . S
C586 N589 1.341 . S
C587 C585 1.400 . S
C587 C586 1.387 . S
N588 Co579 2.022 . S
N588 C585 1.351 . S
N588 N589 1.365 . S
N589 C586 1.341 . S
N589 N588 1.365 . S
N589 H609 0.862 . S
C590 C585 1.501 . S
C590 H591 0.961 . S
C590 H592 0.961 . S
C590 H593 0.960 . S
H591 C590 0.961 . S
H592 C590 0.961 . S
H593 C590 0.960 . S
C594 N595 1.342 . S
C594 C598 1.401 . S
C594 C599 1.499 . S
N595 Co578 1.989 . S
N595 C594 1.342 . S
N595 N596 1.388 . S
N596 Co579 1.993 . S
N596 N595 1.388 . S
N596 C597 1.346 . S
C597 N596 1.346 . S
C597 C598 1.396 . S
C597 C607 1.510 . S
C598 C594 1.401 . S
C598 C597 1.396 . S
C599 C594 1.499 . S
C599 H600 0.959 . S
C599 H601 0.960 1_556 S
C599 H602 0.961 . S
H600 C599 0.959 . S
H601 C599 0.960 1_554 S
H602 C599 0.961 . S
O603 Co578 1.967 . S
O603 C611 1.258 . S
O604 Co579 1.941 . S
O604 C611 1.266 . S
H605 C607 0.959 . S
H606 C607 0.961 . S
C607 C597 1.510 . S
C607 H605 0.959 . S
C607 H606 0.961 . S
C607 H608 0.960 . S
H608 C607 0.960 . S
H609 N589 0.862 . S
O610 Co578 1.920 . S
O610 C583 1.281 1_556 S
C611 O603 1.258 . S
C611 O604 1.266 . S
Co612 O615 1.970 . S
Co612 N629 1.989 . S
Co612 O637 1.967 . S
Co612 O644 1.920 . S
Co613 O616 1.966 . S
Co613 N622 2.022 . S
Co613 N630 1.993 . S
Co613 O638 1.941 . S
C614 O615 1.258 . S
C614 O616 1.263 . S
O615 Co612 1.970 . S
O615 C614 1.258 . S
O616 Co613 1.966 . S
O616 C614 1.263 . S
C617 O618 1.235 . S
C617 O644 1.289 . S
O618 C617 1.235 . S
C619 C621 1.400 . S
C619 N622 1.351 . S
C619 C624 1.501 . S
C620 C621 1.387 . S
C620 N623 1.341 . S
C621 C619 1.400 . S
C621 C620 1.387 . S
N622 Co613 2.022 . S
N622 C619 1.351 . S
N622 N623 1.365 . S
N623 C620 1.341 . S
N623 N622 1.365 . S
N623 H643 0.862 . S
C624 C619 1.501 . S
C624 H625 0.961 . S
C624 H626 0.961 . S
C624 H627 0.960 . S
H625 C624 0.961 . S
H626 C624 0.961 . S
H627 C624 0.960 . S
C628 N629 1.342 . S
C628 C632 1.401 . S
C628 C633 1.499 . S
N629 Co612 1.989 . S
N629 C628 1.342 . S
N629 N630 1.388 . S
N630 Co613 1.993 . S
N630 N629 1.388 . S
N630 C631 1.346 . S
C631 N630 1.346 . S
C631 C632 1.396 . S
C631 C641 1.510 . S
C632 C628 1.401 . S
C632 C631 1.396 . S
C633 C628 1.499 . S
C633 H634 0.959 . S
C633 H635 0.960 . S
C633 H636 0.961 . S
H634 C633 0.959 . S
H635 C633 0.960 . S
H636 C633 0.961 . S
O637 Co612 1.967 . S
O637 C645 1.258 . S
O638 Co613 1.941 . S
O638 C645 1.266 . S
H639 C641 0.959 . S
H640 C641 0.961 . S
C641 C631 1.510 . S
C641 H639 0.959 . S
C641 H640 0.961 . S
C641 H642 0.960 . S
H642 C641 0.960 . S
H643 N623 0.862 . S
O644 Co612 1.920 . S
O644 C617 1.289 . S
C645 O637 1.258 . S
C645 O638 1.266 . S
Co646 O649 1.970 . S
Co646 N663 1.989 . S
Co646 O671 1.967 . S
Co646 O678 1.920 . S
Co647 O650 1.966 . S
Co647 N656 2.022 . S
Co647 N664 1.993 . S
Co647 O672 1.941 . S
C648 O649 1.258 . S
C648 O650 1.263 . S
O649 Co646 1.970 . S
O649 C648 1.258 . S
O650 Co647 1.966 . S
O650 C648 1.263 . S
C651 O652 1.236 . S
C651 O678 1.281 1_554 S
O652 C651 1.236 . S
C653 C655 1.400 . S
C653 N656 1.351 . S
C653 C658 1.501 . S
C654 C655 1.387 . S
C654 N657 1.341 . S
C655 C653 1.400 . S
C655 C654 1.387 . S
N656 Co647 2.022 . S
N656 C653 1.351 . S
N656 N657 1.365 . S
N657 C654 1.341 . S
N657 N656 1.365 . S
N657 H677 0.862 . S
C658 C653 1.501 . S
C658 H659 0.961 . S
C658 H660 0.961 . S
C658 H661 0.960 . S
H659 C658 0.961 . S
H660 C658 0.961 . S
H661 C658 0.960 . S
C662 N663 1.342 . S
C662 C666 1.401 . S
C662 C667 1.499 . S
N663 Co646 1.989 . S
N663 C662 1.342 . S
N663 N664 1.388 . S
N664 Co647 1.993 . S
N664 N663 1.388 . S
N664 C665 1.346 . S
C665 N664 1.346 . S
C665 C666 1.396 . S
C665 C675 1.510 . S
C666 C662 1.401 . S
C666 C665 1.396 . S
C667 C662 1.499 . S
C667 H668 0.959 . S
C667 H669 0.960 1_556 S
C667 H670 0.961 . S
H668 C667 0.959 . S
H669 C667 0.960 1_554 S
H670 C667 0.961 . S
O671 Co646 1.967 . S
O671 C679 1.258 . S
O672 Co647 1.941 . S
O672 C679 1.266 . S
H673 C675 0.959 . S
H674 C675 0.961 . S
C675 C665 1.510 . S
C675 H673 0.959 . S
C675 H674 0.961 . S
C675 H676 0.960 . S
H676 C675 0.960 . S
H677 N657 0.862 . S
O678 Co646 1.920 . S
O678 C651 1.281 1_556 S
C679 O671 1.258 . S
C679 O672 1.266 . S
Co680 O683 1.970 . S
Co680 N697 1.989 . S
Co680 O705 1.967 . S
Co680 O712 1.920 . S
Co681 O684 1.966 . S
Co681 N690 2.022 . S
Co681 N698 1.993 . S
Co681 O706 1.941 . S
C682 O683 1.258 . S
C682 O684 1.263 . S
O683 Co680 1.970 . S
O683 C682 1.258 . S
O684 Co681 1.966 . S
O684 C682 1.263 . S
C685 O686 1.235 . S
C685 O712 1.289 . S
O686 C685 1.235 . S
C687 C689 1.400 . S
C687 N690 1.351 . S
C687 C692 1.501 . S
C688 C689 1.387 . S
C688 N691 1.341 . S
C689 C687 1.400 . S
C689 C688 1.387 . S
N690 Co681 2.022 . S
N690 C687 1.351 . S
N690 N691 1.365 . S
N691 C688 1.341 . S
N691 N690 1.365 . S
N691 H711 0.862 . S
C692 C687 1.501 . S
C692 H693 0.961 . S
C692 H694 0.961 . S
C692 H695 0.960 . S
H693 C692 0.961 . S
H694 C692 0.961 . S
H695 C692 0.960 . S
C696 N697 1.342 . S
C696 C700 1.401 . S
C696 C701 1.499 . S
N697 Co680 1.989 . S
N697 C696 1.342 . S
N697 N698 1.388 . S
N698 Co681 1.993 . S
N698 N697 1.388 . S
N698 C699 1.346 . S
C699 N698 1.346 . S
C699 C700 1.396 . S
C699 C709 1.510 . S
C700 C696 1.401 . S
C700 C699 1.396 . S
C701 C696 1.499 . S
C701 H702 0.959 . S
C701 H703 0.960 . S
C701 H704 0.961 . S
H702 C701 0.959 . S
H703 C701 0.960 . S
H704 C701 0.961 . S
O705 Co680 1.967 . S
O705 C713 1.258 . S
O706 Co681 1.941 . S
O706 C713 1.266 . S
H707 C709 0.959 . S
H708 C709 0.961 . S
C709 C699 1.510 . S
C709 H707 0.959 . S
C709 H708 0.961 . S
C709 H710 0.960 . S
H710 C709 0.960 . S
H711 N691 0.862 . S
O712 Co680 1.920 . S
O712 C685 1.289 . S
C713 O705 1.258 . S
C713 O706 1.266 . S
Co714 O717 1.970 . S
Co714 N731 1.989 . S
Co714 O739 1.967 . S
Co714 O746 1.920 . S
Co715 O718 1.966 . S
Co715 N724 2.022 . S
Co715 N732 1.993 . S
Co715 O740 1.941 . S
C716 O717 1.258 . S
C716 O718 1.263 . S
O717 Co714 1.970 . S
O717 C716 1.258 . S
O718 Co715 1.966 . S
O718 C716 1.263 . S
C719 O720 1.236 . S
C719 O746 1.281 1_556 S
O720 C719 1.236 . S
C721 C723 1.400 . S
C721 N724 1.351 . S
C721 C726 1.501 . S
C722 C723 1.387 . S
C722 N725 1.341 . S
C723 C721 1.400 . S
C723 C722 1.387 . S
N724 Co715 2.022 . S
N724 C721 1.351 . S
N724 N725 1.365 . S
N725 C722 1.341 . S
N725 N724 1.365 . S
N725 H745 0.862 . S
C726 C721 1.501 . S
C726 H727 0.961 . S
C726 H728 0.961 . S
C726 H729 0.960 . S
H727 C726 0.961 . S
H728 C726 0.961 . S
H729 C726 0.960 . S
C730 N731 1.342 . S
C730 C734 1.401 . S
C730 C735 1.499 . S
N731 Co714 1.989 . S
N731 C730 1.342 . S
N731 N732 1.388 . S
N732 Co715 1.993 . S
N732 N731 1.388 . S
N732 C733 1.346 . S
C733 N732 1.346 . S
C733 C734 1.396 . S
C733 C743 1.510 . S
C734 C730 1.401 . S
C734 C733 1.396 . S
C735 C730 1.499 . S
C735 H736 0.959 . S
C735 H737 0.960 1_554 S
C735 H738 0.961 . S
H736 C735 0.959 . S
H737 C735 0.960 1_556 S
H738 C735 0.961 . S
O739 Co714 1.967 . S
O739 C747 1.258 . S
O740 Co715 1.941 . S
O740 C747 1.266 . S
H741 C743 0.959 . S
H742 C743 0.961 . S
C743 C733 1.510 . S
C743 H741 0.959 . S
C743 H742 0.961 . S
C743 H744 0.960 . S
H744 C743 0.960 . S
H745 N725 0.862 . S
O746 Co714 1.920 . S
O746 C719 1.281 1_554 S
C747 O739 1.258 . S
C747 O740 1.266 . S
Co748 O751 1.970 . S
Co748 N765 1.989 . S
Co748 O773 1.967 . S
Co748 O780 1.920 . S
Co749 O752 1.966 . S
Co749 N758 2.022 . S
Co749 N766 1.993 . S
Co749 O774 1.941 . S
C750 O751 1.258 . S
C750 O752 1.263 . S
O751 Co748 1.970 . S
O751 C750 1.258 . S
O752 Co749 1.966 . S
O752 C750 1.263 . S
C753 O754 1.235 . S
C753 O780 1.289 . S
O754 C753 1.235 . S
C755 C757 1.400 . S
C755 N758 1.351 . S
C755 C760 1.501 . S
C756 C757 1.387 . S
C756 N759 1.341 . S
C757 C755 1.400 . S
C757 C756 1.387 . S
N758 Co749 2.022 . S
N758 C755 1.351 . S
N758 N759 1.365 . S
N759 C756 1.341 . S
N759 N758 1.365 . S
N759 H779 0.862 . S
C760 C755 1.501 . S
C760 H761 0.961 . S
C760 H762 0.961 . S
C760 H763 0.960 . S
H761 C760 0.961 . S
H762 C760 0.961 . S
H763 C760 0.960 . S
C764 N765 1.342 . S
C764 C768 1.401 . S
C764 C769 1.499 . S
N765 Co748 1.989 . S
N765 C764 1.342 . S
N765 N766 1.388 . S
N766 Co749 1.993 . S
N766 N765 1.388 . S
N766 C767 1.346 . S
C767 N766 1.346 . S
C767 C768 1.396 . S
C767 C777 1.510 . S
C768 C764 1.401 . S
C768 C767 1.396 . S
C769 C764 1.499 . S
C769 H770 0.959 . S
C769 H771 0.960 . S
C769 H772 0.961 . S
H770 C769 0.959 . S
H771 C769 0.960 . S
H772 C769 0.961 . S
O773 Co748 1.967 . S
O773 C781 1.258 . S
O774 Co749 1.941 . S
O774 C781 1.266 . S
H775 C777 0.959 . S
H776 C777 0.961 . S
C777 C767 1.510 . S
C777 H775 0.959 . S
C777 H776 0.961 . S
C777 H778 0.960 . S
H778 C777 0.960 . S
H779 N759 0.862 . S
O780 Co748 1.920 . S
O780 C753 1.289 . S
C781 O773 1.258 . S
C781 O774 1.266 . S
Co782 O785 1.970 . S
Co782 N799 1.989 . S
Co782 O807 1.967 . S
Co782 O814 1.920 . S
Co783 O786 1.966 . S
Co783 N792 2.022 . S
Co783 N800 1.993 . S
Co783 O808 1.941 . S
C784 O785 1.258 . S
C784 O786 1.263 . S
O785 Co782 1.970 . S
O785 C784 1.258 . S
O786 Co783 1.966 . S
O786 C784 1.263 . S
C787 O788 1.235 . S
C787 O814 1.289 . S
O788 C787 1.235 . S
C789 C791 1.400 . S
C789 N792 1.351 . S
C789 C794 1.501 . S
C790 C791 1.387 . S
C790 N793 1.341 . S
C791 C789 1.400 . S
C791 C790 1.387 . S
N792 Co783 2.022 . S
N792 C789 1.351 . S
N792 N793 1.365 . S
N793 C790 1.341 . S
N793 N792 1.365 . S
N793 H813 0.862 . S
C794 C789 1.501 . S
C794 H795 0.961 . S
C794 H796 0.961 . S
C794 H797 0.960 . S
H795 C794 0.961 . S
H796 C794 0.961 . S
H797 C794 0.960 . S
C798 N799 1.342 . S
C798 C802 1.401 . S
C798 C803 1.499 . S
N799 Co782 1.989 . S
N799 C798 1.342 . S
N799 N800 1.388 . S
N800 Co783 1.993 . S
N800 N799 1.388 . S
N800 C801 1.346 . S
C801 N800 1.346 . S
C801 C802 1.396 . S
C801 C811 1.510 . S
C802 C798 1.401 . S
C802 C801 1.396 . S
C803 C798 1.499 . S
C803 H804 0.959 . S
C803 H805 0.960 . S
C803 H806 0.961 . S
H804 C803 0.959 . S
H805 C803 0.960 . S
H806 C803 0.961 . S
O807 Co782 1.967 . S
O807 C815 1.258 . S
O808 Co783 1.941 . S
O808 C815 1.266 . S
H809 C811 0.959 . S
H810 C811 0.961 . S
C811 C801 1.510 . S
C811 H809 0.959 . S
C811 H810 0.961 . S
C811 H812 0.960 . S
H812 C811 0.960 . S
H813 N793 0.862 . S
O814 Co782 1.920 . S
O814 C787 1.289 . S
C815 O807 1.258 . S
C815 O808 1.266 . S
H816 C824 0.950 . S
H817 C829 0.950 . S
H818 C826 0.950 . S
H819 C828 0.950 . S
H820 C830 0.950 . S
H821 C832 0.950 . S
H822 C834 0.950 . S
H823 C835 0.950 . S
C824 H816 0.950 . S
C824 C825 1.386 . S
C824 C826 1.391 . S
C825 C824 1.386 . S
C825 C829 1.393 . S
C826 H818 0.950 . S
C826 C824 1.391 . S
C826 C827 1.400 . S
C827 C826 1.400 . S
C827 C828 1.398 . S
C827 C833 1.491 . S
C828 H819 0.950 . S
C828 C827 1.398 . S
C828 C829 1.391 . S
C829 H817 0.950 . S
C829 C825 1.393 . S
C829 C828 1.391 . S
C830 H820 0.950 . S
C830 C831 1.386 . S
C830 C832 1.391 . S
C831 C830 1.386 . S
C831 C835 1.393 . S
C832 H821 0.950 . S
C832 C830 1.391 . S
C832 C833 1.400 . S
C833 C827 1.491 . S
C833 C832 1.400 . S
C833 C834 1.398 . S
C834 H822 0.950 . S
C834 C833 1.398 . S
C834 C835 1.391 . S
C835 H823 0.950 . S
C835 C831 1.393 . S
C835 C834 1.391 . S
H836 C844 0.950 . S
H837 C849 0.950 . S
H838 C846 0.950 . S
H839 C848 0.950 . S
H840 C850 0.950 . S
H841 C852 0.950 . S
H842 C854 0.950 . S
H843 C855 0.950 . S
C844 H836 0.950 . S
C844 C845 1.386 . S
C844 C846 1.391 . S
C845 C844 1.386 . S
C845 C849 1.393 . S
C846 H838 0.950 . S
C846 C844 1.391 . S
C846 C847 1.400 . S
C847 C846 1.400 . S
C847 C848 1.398 . S
C847 C853 1.491 . S
C848 H839 0.950 . S
C848 C847 1.398 . S
C848 C849 1.391 . S
C849 H837 0.950 . S
C849 C845 1.393 . S
C849 C848 1.391 . S
C850 H840 0.950 . S
C850 C851 1.386 . S
C850 C852 1.391 . S
C851 C850 1.386 . S
C851 C855 1.393 . S
C852 H841 0.950 . S
C852 C850 1.391 . S
C852 C853 1.400 . S
C853 C847 1.491 . S
C853 C852 1.400 . S
C853 C854 1.398 . S
C854 H842 0.950 . S
C854 C853 1.398 . S
C854 C855 1.391 . S
C855 H843 0.950 . S
C855 C851 1.393 . S
C855 C854 1.391 . S
H856 C864 0.950 . S
H857 C869 0.950 . S
H858 C866 0.950 . S
H859 C868 0.950 . S
H860 C870 0.950 . S
H861 C872 0.950 . S
H862 C874 0.950 . S
H863 C875 0.950 . S
C864 H856 0.950 . S
C864 C865 1.386 . S
C864 C866 1.391 . S
C865 C864 1.386 . S
C865 C869 1.393 . S
C866 H858 0.950 . S
C866 C864 1.391 . S
C866 C867 1.400 . S
C867 C866 1.400 . S
C867 C868 1.398 . S
C867 C873 1.491 . S
C868 H859 0.950 . S
C868 C867 1.398 . S
C868 C869 1.391 . S
C869 H857 0.950 . S
C869 C865 1.393 . S
C869 C868 1.391 . S
C870 H860 0.950 . S
C870 C871 1.386 . S
C870 C872 1.391 . S
C871 C870 1.386 . S
C871 C875 1.393 . S
C872 H861 0.950 . S
C872 C870 1.391 . S
C872 C873 1.400 . S
C873 C867 1.491 . S
C873 C872 1.400 . S
C873 C874 1.398 . S
C874 H862 0.950 . S
C874 C873 1.398 . S
C874 C875 1.391 . S
C875 H863 0.950 . S
C875 C871 1.393 . S
C875 C874 1.391 . S
H876 C884 0.950 . S
H877 C889 0.950 . S
H878 C886 0.950 . S
H879 C888 0.950 . S
H880 C890 0.918 1_655 S
H881 C892 0.950 . S
H882 C894 0.950 . S
H883 C895 0.950 . S
C884 H876 0.950 . S
C884 C885 1.386 . S
C884 C886 1.391 . S
C885 C884 1.386 . S
C885 C889 1.393 . S
C886 H878 0.950 . S
C886 C884 1.391 . S
C886 C887 1.400 . S
C887 C886 1.400 . S
C887 C888 1.398 . S
C887 C893 1.491 . S
C888 H879 0.950 . S
C888 C887 1.398 . S
C888 C889 1.391 . S
C889 H877 0.950 . S
C889 C885 1.393 . S
C889 C888 1.391 . S
C890 H880 0.918 1_455 S
C890 C891 1.386 . S
C890 C892 1.391 . S
C891 C890 1.386 . S
C891 C895 1.393 . S
C892 H881 0.950 . S
C892 C890 1.391 . S
C892 C893 1.400 . S
C893 C887 1.491 . S
C893 C892 1.400 . S
C893 C894 1.398 . S
C894 H882 0.950 . S
C894 C893 1.398 . S
C894 C895 1.391 . S
C895 H883 0.950 . S
C895 C891 1.393 . S
C895 C894 1.391 . S
H896 C904 0.950 . S
H897 C909 0.950 . S
H898 C906 0.950 . S
H899 C908 0.950 . S
H900 C910 0.950 . S
H901 C912 0.950 . S
H902 C914 0.950 . S
H903 C915 0.950 . S
C904 H896 0.950 . S
C904 C905 1.386 . S
C904 C906 1.391 . S
C905 C904 1.386 . S
C905 C909 1.393 . S
C906 H898 0.950 . S
C906 C904 1.391 . S
C906 C907 1.400 . S
C907 C906 1.400 . S
C907 C908 1.398 . S
C907 C913 1.491 . S
C908 H899 0.950 . S
C908 C907 1.398 . S
C908 C909 1.391 . S
C909 H897 0.950 . S
C909 C905 1.393 . S
C909 C908 1.391 . S
C910 H900 0.950 . S
C910 C911 1.386 . S
C910 C912 1.391 . S
C911 C910 1.386 . S
C911 C915 1.393 . S
C912 H901 0.950 . S
C912 C910 1.391 . S
C912 C913 1.400 . S
C913 C907 1.491 . S
C913 C912 1.400 . S
C913 C914 1.398 . S
C914 H902 0.950 . S
C914 C913 1.398 . S
C914 C915 1.391 . S
C915 H903 0.950 . S
C915 C911 1.393 . S
C915 C914 1.391 . S
H916 C924 0.950 . S
H917 C929 0.950 . S
H918 C926 0.950 . S
H919 C928 0.950 . S
H920 C930 0.950 . S
H921 C932 0.950 . S
H922 C934 0.950 . S
H923 C935 0.950 . S
C924 H916 0.950 . S
C924 C925 1.386 . S
C924 C926 1.391 . S
C925 C924 1.386 . S
C925 C929 1.393 . S
C926 H918 0.950 . S
C926 C924 1.391 . S
C926 C927 1.400 . S
C927 C926 1.400 . S
C927 C928 1.398 . S
C927 C933 1.491 . S
C928 H919 0.950 . S
C928 C927 1.398 . S
C928 C929 1.391 . S
C929 H917 0.950 . S
C929 C925 1.393 . S
C929 C928 1.391 . S
C930 H920 0.950 . S
C930 C931 1.386 . S
C930 C932 1.391 . S
C931 C930 1.386 . S
C931 C935 1.393 . S
C932 H921 0.950 . S
C932 C930 1.391 . S
C932 C933 1.400 . S
C933 C927 1.491 . S
C933 C932 1.400 . S
C933 C934 1.398 . S
C934 H922 0.950 . S
C934 C933 1.398 . S
C934 C935 1.391 . S
C935 H923 0.950 . S
C935 C931 1.393 . S
C935 C934 1.391 . S
H936 C944 0.950 . S
H937 C949 0.950 . S
H938 C946 0.950 . S
H939 C948 0.950 . S
H940 C950 0.950 . S
H941 C952 0.950 . S
H942 C954 0.950 . S
H943 C955 0.950 . S
C944 H936 0.950 . S
C944 C945 1.386 . S
C944 C946 1.391 . S
C945 C944 1.386 . S
C945 C949 1.393 . S
C946 H938 0.950 . S
C946 C944 1.391 . S
C946 C947 1.400 . S
C947 C946 1.400 . S
C947 C948 1.398 . S
C947 C953 1.491 . S
C948 H939 0.950 . S
C948 C947 1.398 . S
C948 C949 1.391 . S
C949 H937 0.950 . S
C949 C945 1.393 . S
C949 C948 1.391 . S
C950 H940 0.950 . S
C950 C951 1.386 . S
C950 C952 1.391 . S
C951 C950 1.386 . S
C951 C955 1.393 . S
C952 H941 0.950 . S
C952 C950 1.391 . S
C952 C953 1.400 . S
C953 C947 1.491 . S
C953 C952 1.400 . S
C953 C954 1.398 . S
C954 H942 0.950 . S
C954 C953 1.398 . S
C954 C955 1.391 . S
C955 H943 0.950 . S
C955 C951 1.393 . S
C955 C954 1.391 . S
H956 C964 0.950 . S
H957 C969 0.970 . S
H958 C966 0.950 . S
H959 C968 0.950 . S
H960 C970 0.950 . S
H961 C972 0.950 . S
H962 C974 0.950 . S
H963 C975 0.950 . S
C964 H956 0.950 . S
C964 C965 1.386 . S
C964 C966 1.391 . S
C965 C964 1.386 . S
C965 C969 1.393 . S
C966 H958 0.950 . S
C966 C964 1.391 . S
C966 C967 1.400 . S
C967 C966 1.400 . S
C967 C968 1.398 . S
C967 C973 1.491 . S
C968 H959 0.950 . S
C968 C967 1.398 . S
C968 C969 1.391 . S
C969 H957 0.970 . S
C969 C965 1.393 . S
C969 C968 1.391 . S
C970 H960 0.950 . S
C970 C971 1.386 . S
C970 C972 1.391 . S
C971 C970 1.386 . S
C971 C975 1.393 . S
C972 H961 0.950 . S
C972 C970 1.391 . S
C972 C973 1.400 . S
C973 C967 1.491 . S
C973 C972 1.400 . S
C973 C974 1.398 . S
C974 H962 0.950 . S
C974 C973 1.398 . S
C974 C975 1.391 . S
C975 H963 0.950 . S
C975 C971 1.393 . S
C975 C974 1.391 . S
H976 C984 0.950 . S
H977 C989 0.950 . S
H978 C986 0.950 . S
H979 C988 0.950 . S
H980 C990 0.950 . S
H981 C992 0.950 . S
H982 C994 0.950 . S
H983 C995 0.950 . S
C984 H976 0.950 . S
C984 C985 1.386 . S
C984 C986 1.391 . S
C985 C984 1.386 . S
C985 C989 1.393 . S
C986 H978 0.950 . S
C986 C984 1.391 . S
C986 C987 1.400 . S
C987 C986 1.400 . S
C987 C988 1.398 . S
C987 C993 1.491 . S
C988 H979 0.950 . S
C988 C987 1.398 . S
C988 C989 1.391 . S
C989 H977 0.950 . S
C989 C985 1.393 . S
C989 C988 1.391 . S
C990 H980 0.950 . S
C990 C991 1.386 . S
C990 C992 1.391 . S
C991 C990 1.386 . S
C991 C995 1.393 . S
C992 H981 0.950 . S
C992 C990 1.391 . S
C992 C993 1.400 . S
C993 C987 1.491 . S
C993 C992 1.400 . S
C993 C994 1.398 . S
C994 H982 0.950 . S
C994 C993 1.398 . S
C994 C995 1.391 . S
C995 H983 0.950 . S
C995 C991 1.393 . S
C995 C994 1.391 . S
H996 C1004 0.950 . S
H997 C1009 0.950 . S
H998 C1006 0.950 . S
H999 C1008 0.950 . S
H1000 C1010 0.950 . S
H1001 C1012 0.950 . S
H1002 C1014 0.950 . S
H1003 C1015 0.936 1_556 S
C1004 H996 0.950 . S
C1004 C1005 1.386 . S
C1004 C1006 1.391 . S
C1005 C1004 1.386 . S
C1005 C1009 1.393 . S
C1006 H998 0.950 . S
C1006 C1004 1.391 . S
C1006 C1007 1.400 . S
C1007 C1006 1.400 . S
C1007 C1008 1.398 . S
C1007 C1013 1.491 . S
C1008 H999 0.950 . S
C1008 C1007 1.398 . S
C1008 C1009 1.391 . S
C1009 H997 0.950 . S
C1009 C1005 1.393 . S
C1009 C1008 1.391 . S
C1010 H1000 0.950 . S
C1010 C1011 1.386 . S
C1010 C1012 1.391 . S
C1011 C1010 1.386 . S
C1011 C1015 1.393 . S
C1012 H1001 0.950 . S
C1012 C1010 1.391 . S
C1012 C1013 1.400 . S
C1013 C1007 1.491 . S
C1013 C1012 1.400 . S
C1013 C1014 1.398 . S
C1014 H1002 0.950 . S
C1014 C1013 1.398 . S
C1014 C1015 1.391 . S
C1015 H1003 0.936 1_554 S
C1015 C1011 1.393 . S
C1015 C1014 1.391 . S
H1016 C1024 0.950 . S
H1017 C1029 0.950 . S
H1018 C1026 0.950 . S
H1019 C1028 0.950 . S
H1020 C1030 0.950 . S
H1021 C1032 0.950 . S
H1022 C1034 0.950 . S
H1023 C1035 0.950 . S
C1024 H1016 0.950 . S
C1024 C1025 1.386 . S
C1024 C1026 1.391 . S
C1025 C1024 1.386 . S
C1025 C1029 1.393 . S
C1026 H1018 0.950 . S
C1026 C1024 1.391 . S
C1026 C1027 1.400 . S
C1027 C1026 1.400 . S
C1027 C1028 1.398 . S
C1027 C1033 1.491 . S
C1028 H1019 0.950 . S
C1028 C1027 1.398 . S
C1028 C1029 1.391 . S
C1029 H1017 0.950 . S
C1029 C1025 1.393 . S
C1029 C1028 1.391 . S
C1030 H1020 0.950 . S
C1030 C1031 1.386 . S
C1030 C1032 1.391 . S
C1031 C1030 1.386 . S
C1031 C1035 1.393 . S
C1032 H1021 0.950 . S
C1032 C1030 1.391 . S
C1032 C1033 1.400 . S
C1033 C1027 1.491 . S
C1033 C1032 1.400 . S
C1033 C1034 1.398 . S
C1034 H1022 0.950 . S
C1034 C1033 1.398 . S
C1034 C1035 1.391 . S
C1035 H1023 0.950 . S
C1035 C1031 1.393 . S
C1035 C1034 1.391 . S
H1036 C1044 0.950 . S
H1037 C1049 0.950 . S
H1038 C1046 0.950 . S
H1039 C1048 0.950 . S
H1040 C1050 0.950 . S
H1041 C1052 0.950 . S
H1042 C1054 0.950 . S
H1043 C1055 0.950 . S
C1044 H1036 0.950 . S
C1044 C1045 1.386 . S
C1044 C1046 1.391 . S
C1045 C1044 1.386 . S
C1045 C1049 1.393 . S
C1046 H1038 0.950 . S
C1046 C1044 1.391 . S
C1046 C1047 1.400 . S
C1047 C1046 1.400 . S
C1047 C1048 1.398 . S
C1047 C1053 1.491 . S
C1048 H1039 0.950 . S
C1048 C1047 1.398 . S
C1048 C1049 1.391 . S
C1049 H1037 0.950 . S
C1049 C1045 1.393 . S
C1049 C1048 1.391 . S
C1050 H1040 0.950 . S
C1050 C1051 1.386 . S
C1050 C1052 1.391 . S
C1051 C1050 1.386 . S
C1051 C1055 1.393 . S
C1052 H1041 0.950 . S
C1052 C1050 1.391 . S
C1052 C1053 1.400 . S
C1053 C1047 1.491 . S
C1053 C1052 1.400 . S
C1053 C1054 1.398 . S
C1054 H1042 0.950 . S
C1054 C1053 1.398 . S
C1054 C1055 1.391 . S
C1055 H1043 0.950 . S
C1055 C1051 1.393 . S
C1055 C1054 1.391 . S
H1056 C1064 0.950 . S
H1057 C1069 0.950 . S
H1058 C1066 0.950 . S
H1059 C1068 0.950 . S
H1060 C1070 0.950 . S
H1061 C1072 0.950 . S
H1062 C1074 0.950 . S
H1063 C1075 0.950 . S
C1064 H1056 0.950 . S
C1064 C1065 1.386 . S
C1064 C1066 1.391 . S
C1065 C1064 1.386 . S
C1065 C1069 1.393 . S
C1066 H1058 0.950 . S
C1066 C1064 1.391 . S
C1066 C1067 1.400 . S
C1067 C1066 1.400 . S
C1067 C1068 1.398 . S
C1067 C1073 1.491 . S
C1068 H1059 0.950 . S
C1068 C1067 1.398 . S
C1068 C1069 1.391 . S
C1069 H1057 0.950 . S
C1069 C1065 1.393 . S
C1069 C1068 1.391 . S
C1070 H1060 0.950 . S
C1070 C1071 1.386 . S
C1070 C1072 1.391 . S
C1071 C1070 1.386 . S
C1071 C1075 1.393 . S
C1072 H1061 0.950 . S
C1072 C1070 1.391 . S
C1072 C1073 1.400 . S
C1073 C1067 1.491 . S
C1073 C1072 1.400 . S
C1073 C1074 1.398 . S
C1074 H1062 0.950 . S
C1074 C1073 1.398 . S
C1074 C1075 1.391 . S
C1075 H1063 0.950 . S
C1075 C1071 1.393 . S
C1075 C1074 1.391 . S
H1076 C1084 0.950 . S
H1077 C1089 0.950 . S
H1078 C1086 0.950 . S
H1079 C1088 0.950 . S
H1080 C1090 0.950 . S
H1081 C1092 0.950 . S
H1082 C1094 0.950 . S
H1083 C1095 0.950 1_554 S
C1084 H1076 0.950 . S
C1084 C1085 1.386 . S
C1084 C1086 1.391 . S
C1085 C1084 1.386 . S
C1085 C1089 1.393 . S
C1086 H1078 0.950 . S
C1086 C1084 1.391 . S
C1086 C1087 1.400 . S
C1087 C1086 1.400 . S
C1087 C1088 1.398 . S
C1087 C1093 1.491 . S
C1088 H1079 0.950 . S
C1088 C1087 1.398 . S
C1088 C1089 1.391 . S
C1089 H1077 0.950 . S
C1089 C1085 1.393 . S
C1089 C1088 1.391 . S
C1090 H1080 0.950 . S
C1090 C1091 1.386 . S
C1090 C1092 1.391 . S
C1091 C1090 1.386 . S
C1091 C1095 1.393 . S
C1092 H1081 0.950 . S
C1092 C1090 1.391 . S
C1092 C1093 1.400 . S
C1093 C1087 1.491 . S
C1093 C1092 1.400 . S
C1093 C1094 1.398 . S
C1094 H1082 0.950 . S
C1094 C1093 1.398 . S
C1094 C1095 1.391 . S
C1095 H1083 0.950 1_556 S
C1095 C1091 1.393 . S
C1095 C1094 1.391 . S
H1096 C1104 0.950 . S
H1097 C1109 0.950 . S
H1098 C1106 0.950 . S
H1099 C1108 0.950 . S
H1100 C1110 0.950 . S
H1101 C1112 0.950 . S
H1102 C1114 0.950 . S
H1103 C1115 0.950 . S
C1104 H1096 0.950 . S
C1104 C1105 1.386 . S
C1104 C1106 1.391 . S
C1105 C1104 1.386 . S
C1105 C1109 1.393 . S
C1106 H1098 0.950 . S
C1106 C1104 1.391 . S
C1106 C1107 1.400 . S
C1107 C1106 1.400 . S
C1107 C1108 1.398 . S
C1107 C1113 1.491 . S
C1108 H1099 0.950 . S
C1108 C1107 1.398 . S
C1108 C1109 1.391 . S
C1109 H1097 0.950 . S
C1109 C1105 1.393 . S
C1109 C1108 1.391 . S
C1110 H1100 0.950 . S
C1110 C1111 1.386 . S
C1110 C1112 1.391 . S
C1111 C1110 1.386 . S
C1111 C1115 1.393 . S
C1112 H1101 0.950 . S
C1112 C1110 1.391 . S
C1112 C1113 1.400 . S
C1113 C1107 1.491 . S
C1113 C1112 1.400 . S
C1113 C1114 1.398 . S
C1114 H1102 0.950 . S
C1114 C1113 1.398 . S
C1114 C1115 1.391 . S
C1115 H1103 0.950 . S
C1115 C1111 1.393 . S
C1115 C1114 1.391 . S
H1116 C1124 0.950 . S
H1117 C1129 0.950 . S
H1118 C1126 0.950 . S
H1119 C1128 0.950 . S
H1120 C1130 0.950 . S
H1121 C1132 0.950 . S
H1122 C1134 0.950 . S
H1123 C1135 0.950 . S
C1124 H1116 0.950 . S
C1124 C1125 1.386 . S
C1124 C1126 1.391 . S
C1125 C1124 1.386 . S
C1125 C1129 1.393 . S
C1126 H1118 0.950 . S
C1126 C1124 1.391 . S
C1126 C1127 1.400 . S
C1127 C1126 1.400 . S
C1127 C1128 1.398 . S
C1127 C1133 1.491 . S
C1128 H1119 0.950 . S
C1128 C1127 1.398 . S
C1128 C1129 1.391 . S
C1129 H1117 0.950 . S
C1129 C1125 1.393 . S
C1129 C1128 1.391 . S
C1130 H1120 0.950 . S
C1130 C1131 1.386 . S
C1130 C1132 1.391 . S
C1131 C1130 1.386 . S
C1131 C1135 1.393 . S
C1132 H1121 0.950 . S
C1132 C1130 1.391 . S
C1132 C1133 1.400 . S
C1133 C1127 1.491 . S
C1133 C1132 1.400 . S
C1133 C1134 1.398 . S
C1134 H1122 0.950 . S
C1134 C1133 1.398 . S
C1134 C1135 1.391 . S
C1135 H1123 0.950 . S
C1135 C1131 1.393 . S
C1135 C1134 1.391 . S
H1136 C1144 0.950 . S
H1137 C1149 0.950 . S
H1138 C1146 0.950 . S
H1139 C1148 0.950 . S
H1140 C1150 0.950 . S
H1141 C1152 0.950 . S
H1142 C1154 0.950 . S
H1143 C1155 0.950 . S
C1144 H1136 0.950 . S
C1144 C1145 1.386 . S
C1144 C1146 1.391 . S
C1145 C1144 1.386 . S
C1145 C1149 1.393 . S
C1146 H1138 0.950 . S
C1146 C1144 1.391 . S
C1146 C1147 1.400 . S
C1147 C1146 1.400 . S
C1147 C1148 1.398 . S
C1147 C1153 1.491 . S
C1148 H1139 0.950 . S
C1148 C1147 1.398 . S
C1148 C1149 1.391 . S
C1149 H1137 0.950 . S
C1149 C1145 1.393 . S
C1149 C1148 1.391 . S
C1150 H1140 0.950 . S
C1150 C1151 1.386 . S
C1150 C1152 1.391 . S
C1151 C1150 1.386 . S
C1151 C1155 1.393 . S
C1152 H1141 0.950 . S
C1152 C1150 1.391 . S
C1152 C1153 1.400 . S
C1153 C1147 1.491 . S
C1153 C1152 1.400 . S
C1153 C1154 1.398 . S
C1154 H1142 0.950 . S
C1154 C1153 1.398 . S
C1154 C1155 1.391 . S
C1155 H1143 0.950 . S
C1155 C1151 1.393 . S
C1155 C1154 1.391 . S
H1156 C1164 0.950 . S
H1157 C1169 0.950 . S
H1158 C1166 0.950 . S
H1159 C1168 0.950 . S
H1160 C1170 0.950 . S
H1161 C1172 0.950 . S
H1162 C1174 0.950 . S
H1163 C1175 0.950 . S
C1164 H1156 0.950 . S
C1164 C1165 1.386 . S
C1164 C1166 1.391 . S
C1165 C1164 1.386 . S
C1165 C1169 1.393 . S
C1166 H1158 0.950 . S
C1166 C1164 1.391 . S
C1166 C1167 1.400 . S
C1167 C1166 1.400 . S
C1167 C1168 1.398 . S
C1167 C1173 1.491 . S
C1168 H1159 0.950 . S
C1168 C1167 1.398 . S
C1168 C1169 1.391 . S
C1169 H1157 0.950 . S
C1169 C1165 1.393 . S
C1169 C1168 1.391 . S
C1170 H1160 0.950 . S
C1170 C1171 1.386 . S
C1170 C1172 1.391 . S
C1171 C1170 1.386 . S
C1171 C1175 1.393 . S
C1172 H1161 0.950 . S
C1172 C1170 1.391 . S
C1172 C1173 1.400 . S
C1173 C1167 1.491 . S
C1173 C1172 1.400 . S
C1173 C1174 1.398 . S
C1174 H1162 0.950 . S
C1174 C1173 1.398 . S
C1174 C1175 1.391 . S
C1175 H1163 0.950 . S
C1175 C1171 1.393 . S
C1175 C1174 1.391 . S
H1176 C1184 0.950 . S
H1177 C1189 0.950 . S
H1178 C1186 0.950 . S
H1179 C1188 0.950 . S
H1180 C1190 0.950 . S
H1181 C1192 0.950 . S
H1182 C1194 0.950 . S
H1183 C1195 0.950 . S
C1184 H1176 0.950 . S
C1184 C1185 1.386 . S
C1184 C1186 1.391 . S
C1185 C1184 1.386 . S
C1185 C1189 1.393 . S
C1186 H1178 0.950 . S
C1186 C1184 1.391 . S
C1186 C1187 1.400 . S
C1187 C1186 1.400 . S
C1187 C1188 1.398 . S
C1187 C1193 1.491 . S
C1188 H1179 0.950 . S
C1188 C1187 1.398 . S
C1188 C1189 1.391 . S
C1189 H1177 0.950 . S
C1189 C1185 1.393 . S
C1189 C1188 1.391 . S
C1190 H1180 0.950 . S
C1190 C1191 1.386 . S
C1190 C1192 1.391 . S
C1191 C1190 1.386 . S
C1191 C1195 1.393 . S
C1192 H1181 0.950 . S
C1192 C1190 1.391 . S
C1192 C1193 1.400 . S
C1193 C1187 1.491 . S
C1193 C1192 1.400 . S
C1193 C1194 1.398 . S
C1194 H1182 0.950 . S
C1194 C1193 1.398 . S
C1194 C1195 1.391 . S
C1195 H1183 0.950 . S
C1195 C1191 1.393 . S
C1195 C1194 1.391 . S
H1196 C1204 0.950 . S
H1197 C1209 0.950 . S
H1198 C1206 0.950 . S
H1199 C1208 0.950 . S
H1200 C1210 0.950 . S
H1201 C1212 0.950 . S
H1202 C1214 0.950 . S
H1203 C1215 0.950 . S
C1204 H1196 0.950 . S
C1204 C1205 1.386 . S
C1204 C1206 1.391 . S
C1205 C1204 1.386 . S
C1205 C1209 1.393 . S
C1206 H1198 0.950 . S
C1206 C1204 1.391 . S
C1206 C1207 1.400 . S
C1207 C1206 1.400 . S
C1207 C1208 1.398 . S
C1207 C1213 1.491 . S
C1208 H1199 0.950 . S
C1208 C1207 1.398 . S
C1208 C1209 1.391 . S
C1209 H1197 0.950 . S
C1209 C1205 1.393 . S
C1209 C1208 1.391 . S
C1210 H1200 0.950 . S
C1210 C1211 1.386 . S
C1210 C1212 1.391 . S
C1211 C1210 1.386 . S
C1211 C1215 1.393 . S
C1212 H1201 0.950 . S
C1212 C1210 1.391 . S
C1212 C1213 1.400 . S
C1213 C1207 1.491 . S
C1213 C1212 1.400 . S
C1213 C1214 1.398 . S
C1214 H1202 0.950 . S
C1214 C1213 1.398 . S
C1214 C1215 1.391 . S
C1215 H1203 0.950 . S
C1215 C1211 1.393 . S
C1215 C1214 1.391 . S
H1216 C1224 0.950 . S
H1217 C1229 0.924 1_545 S
H1218 C1226 0.950 . S
H1219 C1228 0.950 . S
H1220 C1230 0.950 . S
H1221 C1232 0.950 . S
H1222 C1234 0.950 . S
H1223 C1235 0.950 . S
C1224 H1216 0.950 . S
C1224 C1225 1.386 . S
C1224 C1226 1.391 . S
C1225 C1224 1.386 . S
C1225 C1229 1.393 . S
C1226 H1218 0.950 . S
C1226 C1224 1.391 . S
C1226 C1227 1.400 . S
C1227 C1226 1.400 . S
C1227 C1228 1.398 . S
C1227 C1233 1.491 . S
C1228 H1219 0.950 . S
C1228 C1227 1.398 . S
C1228 C1229 1.391 . S
C1229 H1217 0.924 1_565 S
C1229 C1225 1.393 . S
C1229 C1228 1.391 . S
C1230 H1220 0.950 . S
C1230 C1231 1.386 . S
C1230 C1232 1.391 . S
C1231 C1230 1.386 . S
C1231 C1235 1.393 . S
C1232 H1221 0.950 . S
C1232 C1230 1.391 . S
C1232 C1233 1.400 . S
C1233 C1227 1.491 . S
C1233 C1232 1.400 . S
C1233 C1234 1.398 . S
C1234 H1222 0.950 . S
C1234 C1233 1.398 . S
C1234 C1235 1.391 . S
C1235 H1223 0.950 . S
C1235 C1231 1.393 . S
C1235 C1234 1.391 . S
H1236 C1244 0.950 . S
H1237 C1249 0.950 . S
H1238 C1246 0.950 . S
H1239 C1248 0.950 . S
H1240 C1250 0.950 . S
H1241 C1252 0.950 . S
H1242 C1254 0.950 . S
H1243 C1255 0.950 . S
C1244 H1236 0.950 . S
C1244 C1245 1.386 . S
C1244 C1246 1.391 . S
C1245 C1244 1.386 . S
C1245 C1249 1.393 . S
C1246 H1238 0.950 . S
C1246 C1244 1.391 . S
C1246 C1247 1.400 . S
C1247 C1246 1.400 . S
C1247 C1248 1.398 . S
C1247 C1253 1.491 . S
C1248 H1239 0.950 . S
C1248 C1247 1.398 . S
C1248 C1249 1.391 . S
C1249 H1237 0.950 . S
C1249 C1245 1.393 . S
C1249 C1248 1.391 . S
C1250 H1240 0.950 . S
C1250 C1251 1.386 . S
C1250 C1252 1.391 . S
C1251 C1250 1.386 . S
C1251 C1255 1.393 . S
C1252 H1241 0.950 . S
C1252 C1250 1.391 . S
C1252 C1253 1.400 . S
C1253 C1247 1.491 . S
C1253 C1252 1.400 . S
C1253 C1254 1.398 . S
C1254 H1242 0.950 . S
C1254 C1253 1.398 . S
C1254 C1255 1.391 . S
C1255 H1243 0.950 . S
C1255 C1251 1.393 . S
C1255 C1254 1.391 . S
H1256 C1264 0.950 1_545 S
H1257 C1269 0.950 . S
H1258 C1266 0.950 . S
H1259 C1268 0.950 . S
H1260 C1270 0.950 . S
H1261 C1272 0.950 . S
H1262 C1274 0.950 . S
H1263 C1275 0.950 . S
C1264 H1256 0.950 1_565 S
C1264 C1265 1.386 . S
C1264 C1266 1.391 . S
C1265 C1264 1.386 . S
C1265 C1269 1.393 . S
C1266 H1258 0.950 . S
C1266 C1264 1.391 . S
C1266 C1267 1.400 . S
C1267 C1266 1.400 . S
C1267 C1268 1.398 . S
C1267 C1273 1.491 . S
C1268 H1259 0.950 . S
C1268 C1267 1.398 . S
C1268 C1269 1.391 . S
C1269 H1257 0.950 . S
C1269 C1265 1.393 . S
C1269 C1268 1.391 . S
C1270 H1260 0.950 . S
C1270 C1271 1.386 . S
C1270 C1272 1.391 . S
C1271 C1270 1.386 . S
C1271 C1275 1.393 . S
C1272 H1261 0.950 . S
C1272 C1270 1.391 . S
C1272 C1273 1.400 . S
C1273 C1267 1.491 . S
C1273 C1272 1.400 . S
C1273 C1274 1.398 . S
C1274 H1262 0.950 . S
C1274 C1273 1.398 . S
C1274 C1275 1.391 . S
C1275 H1263 0.950 . S
C1275 C1271 1.393 . S
C1275 C1274 1.391 . S
H1276 C1284 0.950 . S
H1277 C1289 0.950 1_565 S
H1278 C1286 0.950 . S
H1279 C1288 0.950 . S
H1280 C1290 0.950 . S
H1281 C1292 0.950 . S
H1282 C1294 0.950 . S
H1283 C1295 0.950 . S
C1284 H1276 0.950 . S
C1284 C1285 1.386 . S
C1284 C1286 1.391 . S
C1285 C1284 1.386 . S
C1285 C1289 1.393 . S
C1286 H1278 0.950 . S
C1286 C1284 1.391 . S
C1286 C1287 1.400 . S
C1287 C1286 1.400 . S
C1287 C1288 1.398 . S
C1287 C1293 1.491 . S
C1288 H1279 0.950 . S
C1288 C1287 1.398 . S
C1288 C1289 1.391 . S
C1289 H1277 0.950 1_545 S
C1289 C1285 1.393 . S
C1289 C1288 1.391 . S
C1290 H1280 0.950 . S
C1290 C1291 1.386 . S
C1290 C1292 1.391 . S
C1291 C1290 1.386 . S
C1291 C1295 1.393 . S
C1292 H1281 0.950 . S
C1292 C1290 1.391 . S
C1292 C1293 1.400 . S
C1293 C1287 1.491 . S
C1293 C1292 1.400 . S
C1293 C1294 1.398 . S
C1294 H1282 0.950 . S
C1294 C1293 1.398 . S
C1294 C1295 1.391 . S
C1295 H1283 0.950 . S
C1295 C1291 1.393 . S
C1295 C1294 1.391 . S
H1296 C1304 0.950 . S
H1297 C1309 0.950 1_455 S
H1298 C1306 0.977 . S
H1299 C1308 0.950 . S
H1300 C1310 0.950 . S
H1301 C1312 0.977 . S
H1302 C1314 0.950 . S
H1303 C1315 0.950 1_655 S
C1304 H1296 0.950 . S
C1304 C1305 1.386 . S
C1304 C1306 1.391 . S
C1305 C1304 1.386 . S
C1305 C1309 1.393 . S
C1306 H1298 0.977 . S
C1306 C1304 1.391 . S
C1306 C1307 1.400 . S
C1307 C1306 1.400 . S
C1307 C1308 1.398 1_655 S
C1307 C1313 1.491 1_656 S
C1308 H1299 0.950 . S
C1308 C1307 1.398 1_455 S
C1308 C1309 1.391 1_455 S
C1309 H1297 0.950 1_655 S
C1309 C1305 1.393 . S
C1309 C1308 1.391 1_655 S
C1310 H1300 0.950 . S
C1310 C1311 1.386 . S
C1310 C1312 1.391 . S
C1311 C1310 1.386 . S
C1311 C1315 1.393 . S
C1312 H1301 0.977 . S
C1312 C1310 1.391 . S
C1312 C1313 1.400 . S
C1313 C1307 1.491 1_454 S
C1313 C1312 1.400 . S
C1313 C1314 1.398 1_455 S
C1314 H1302 0.950 . S
C1314 C1313 1.398 1_655 S
C1314 C1315 1.391 1_655 S
C1315 H1303 0.950 1_455 S
C1315 C1311 1.393 . S
C1315 C1314 1.391 1_455 S
H1316 C1324 0.950 . S
H1317 C1329 0.950 . S
H1318 C1326 0.950 . S
H1319 C1328 0.950 . S
H1320 C1330 0.950 . S
H1321 C1332 0.950 . S
H1322 C1334 0.950 . S
H1323 C1335 0.950 . S
C1324 H1316 0.950 . S
C1324 C1325 1.386 . S
C1324 C1326 1.391 . S
C1325 C1324 1.386 . S
C1325 C1329 1.393 . S
C1326 H1318 0.950 . S
C1326 C1324 1.391 . S
C1326 C1327 1.400 . S
C1327 C1326 1.400 . S
C1327 C1328 1.398 . S
C1327 C1333 1.491 . S
C1328 H1319 0.950 . S
C1328 C1327 1.398 . S
C1328 C1329 1.391 . S
C1329 H1317 0.950 . S
C1329 C1325 1.393 . S
C1329 C1328 1.391 . S
C1330 H1320 0.950 . S
C1330 C1331 1.386 . S
C1330 C1332 1.391 . S
C1331 C1330 1.386 . S
C1331 C1335 1.393 . S
C1332 H1321 0.950 . S
C1332 C1330 1.391 . S
C1332 C1333 1.400 . S
C1333 C1327 1.491 . S
C1333 C1332 1.400 . S
C1333 C1334 1.398 . S
C1334 H1322 0.950 . S
C1334 C1333 1.398 . S
C1334 C1335 1.391 . S
C1335 H1323 0.950 . S
C1335 C1331 1.393 . S
C1335 C1334 1.391 . S
H1336 C1344 0.950 . S
H1337 C1349 0.950 . S
H1338 C1346 0.950 . S
H1339 C1348 0.950 . S
H1340 C1350 0.950 . S
H1341 C1352 0.950 . S
H1342 C1354 0.950 . S
H1343 C1355 0.950 . S
C1344 H1336 0.950 . S
C1344 C1345 1.386 . S
C1344 C1346 1.391 1_455 S
C1345 C1344 1.386 . S
C1345 C1349 1.393 . S
C1346 H1338 0.950 . S
C1346 C1344 1.391 1_655 S
C1346 C1347 1.400 1_655 S
C1347 C1346 1.400 1_455 S
C1347 C1348 1.398 . S
C1347 C1353 1.491 1_456 S
C1348 H1339 0.950 . S
C1348 C1347 1.398 . S
C1348 C1349 1.391 . S
C1349 H1337 0.950 . S
C1349 C1345 1.393 . S
C1349 C1348 1.391 . S
C1350 H1340 0.950 . S
C1350 C1351 1.386 . S
C1350 C1352 1.391 1_655 S
C1351 C1350 1.386 . S
C1351 C1355 1.393 . S
C1352 H1341 0.950 . S
C1352 C1350 1.391 1_455 S
C1352 C1353 1.400 1_455 S
C1353 C1347 1.491 1_654 S
C1353 C1352 1.400 1_655 S
C1353 C1354 1.398 . S
C1354 H1342 0.950 . S
C1354 C1353 1.398 . S
C1354 C1355 1.391 . S
C1355 H1343 0.950 . S
C1355 C1351 1.393 . S
C1355 C1354 1.391 . S
H1356 C1364 0.950 . S
H1357 C1369 0.950 . S
H1358 C1366 0.950 . S
H1359 C1368 0.950 . S
H1360 C1370 0.950 . S
H1361 C1372 0.950 . S
H1362 C1374 0.950 . S
H1363 C1375 0.950 . S
C1364 H1356 0.950 . S
C1364 C1365 1.386 . S
C1364 C1366 1.391 . S
C1365 C1364 1.386 . S
C1365 C1369 1.393 . S
C1366 H1358 0.950 . S
C1366 C1364 1.391 . S
C1366 C1367 1.400 . S
C1367 C1366 1.400 . S
C1367 C1368 1.398 . S
C1367 C1373 1.491 . S
C1368 H1359 0.950 . S
C1368 C1367 1.398 . S
C1368 C1369 1.391 . S
C1369 H1357 0.950 . S
C1369 C1365 1.393 . S
C1369 C1368 1.391 . S
C1370 H1360 0.950 . S
C1370 C1371 1.386 . S
C1370 C1372 1.391 . S
C1371 C1370 1.386 . S
C1371 C1375 1.393 . S
C1372 H1361 0.950 . S
C1372 C1370 1.391 . S
C1372 C1373 1.400 . S
C1373 C1367 1.491 . S
C1373 C1372 1.400 . S
C1373 C1374 1.398 . S
C1374 H1362 0.950 . S
C1374 C1373 1.398 . S
C1374 C1375 1.391 . S
C1375 H1363 0.950 . S
C1375 C1371 1.393 . S
C1375 C1374 1.391 . S
H1376 C1384 0.950 . S
H1377 C1389 0.950 . S
H1378 C1386 0.949 1_545 S
H1379 C1388 0.950 . S
H1380 C1390 0.950 . S
H1381 C1392 0.949 1_565 S
H1382 C1394 0.950 . S
H1383 C1395 0.950 . S
C1384 H1376 0.950 . S
C1384 C1385 1.386 . S
C1384 C1386 1.392 . S
C1385 C1384 1.386 . S
C1385 C1389 1.393 . S
C1386 H1378 0.949 1_565 S
C1386 C1384 1.392 . S
C1386 C1387 1.400 . S
C1387 C1386 1.400 . S
C1387 C1388 1.398 . S
C1387 C1393 1.491 1_665 S
C1388 H1379 0.950 . S
C1388 C1387 1.398 . S
C1388 C1389 1.391 . S
C1389 H1377 0.950 . S
C1389 C1385 1.393 . S
C1389 C1388 1.391 . S
C1390 H1380 0.950 . S
C1390 C1391 1.386 . S
C1390 C1392 1.392 . S
C1391 C1390 1.386 . S
C1391 C1395 1.393 . S
C1392 H1381 0.949 1_545 S
C1392 C1390 1.392 . S
C1392 C1393 1.400 . S
C1393 C1387 1.491 1_445 S
C1393 C1392 1.400 . S
C1393 C1394 1.398 . S
C1394 H1382 0.950 . S
C1394 C1393 1.398 . S
C1394 C1395 1.391 . S
C1395 H1383 0.950 . S
C1395 C1391 1.393 . S
C1395 C1394 1.391 . S
H1396 C1404 0.950 . S
H1397 C1409 0.950 . S
H1398 C1406 0.950 . S
H1399 C1408 0.950 . S
H1400 C1410 0.950 . S
H1401 C1412 0.950 . S
H1402 C1414 0.950 . S
H1403 C1415 0.950 . S
C1404 H1396 0.950 . S
C1404 C1405 1.386 . S
C1404 C1406 1.391 . S
C1405 C1404 1.386 . S
C1405 C1409 1.393 . S
C1406 H1398 0.950 . S
C1406 C1404 1.391 . S
C1406 C1407 1.400 . S
C1407 C1406 1.400 . S
C1407 C1408 1.398 . S
C1407 C1413 1.491 . S
C1408 H1399 0.950 . S
C1408 C1407 1.398 . S
C1408 C1409 1.391 . S
C1409 H1397 0.950 . S
C1409 C1405 1.393 . S
C1409 C1408 1.391 . S
C1410 H1400 0.950 . S
C1410 C1411 1.386 . S
C1410 C1412 1.391 . S
C1411 C1410 1.386 . S
C1411 C1415 1.393 . S
C1412 H1401 0.950 . S
C1412 C1410 1.391 . S
C1412 C1413 1.400 . S
C1413 C1407 1.491 . S
C1413 C1412 1.400 . S
C1413 C1414 1.398 . S
C1414 H1402 0.950 . S
C1414 C1413 1.398 . S
C1414 C1415 1.391 . S
C1415 H1403 0.950 . S
C1415 C1411 1.393 . S
C1415 C1414 1.391 . S
H1416 C1424 0.950 . S
H1417 C1429 0.950 . S
H1418 C1426 0.950 . S
H1419 C1428 0.950 . S
H1420 C1430 0.950 . S
H1421 C1432 0.950 . S
H1422 C1434 0.950 . S
H1423 C1435 0.950 . S
C1424 H1416 0.950 . S
C1424 C1425 1.386 . S
C1424 C1426 1.391 . S
C1425 C1424 1.386 . S
C1425 C1429 1.393 . S
C1426 H1418 0.950 . S
C1426 C1424 1.391 . S
C1426 C1427 1.400 . S
C1427 C1426 1.400 . S
C1427 C1428 1.398 1_565 S
C1427 C1433 1.491 1_465 S
C1428 H1419 0.950 . S
C1428 C1427 1.398 1_545 S
C1428 C1429 1.391 1_545 S
C1429 H1417 0.950 . S
C1429 C1425 1.393 . S
C1429 C1428 1.391 1_565 S
C1430 H1420 0.950 . S
C1430 C1431 1.386 . S
C1430 C1432 1.391 . S
C1431 C1430 1.386 . S
C1431 C1435 1.393 . S
C1432 H1421 0.950 . S
C1432 C1430 1.391 . S
C1432 C1433 1.400 . S
C1433 C1427 1.491 1_645 S
C1433 C1432 1.400 . S
C1433 C1434 1.398 1_545 S
C1434 H1422 0.950 . S
C1434 C1433 1.398 1_565 S
C1434 C1435 1.391 1_565 S
C1435 H1423 0.950 . S
C1435 C1431 1.393 . S
C1435 C1434 1.391 1_545 S
H1436 C1444 0.950 . S
H1437 C1449 0.950 . S
H1438 C1446 0.950 . S
H1439 C1448 0.950 . S
H1440 C1450 0.950 . S
H1441 C1452 0.950 . S
H1442 C1454 0.950 . S
H1443 C1455 0.950 . S
C1444 H1436 0.950 . S
C1444 C1445 1.386 . S
C1444 C1446 1.391 . S
C1445 C1444 1.386 . S
C1445 C1449 1.393 . S
C1446 H1438 0.950 . S
C1446 C1444 1.391 . S
C1446 C1447 1.400 . S
C1447 C1446 1.400 . S
C1447 C1448 1.398 . S
C1447 C1453 1.491 . S
C1448 H1439 0.950 . S
C1448 C1447 1.398 . S
C1448 C1449 1.391 . S
C1449 H1437 0.950 . S
C1449 C1445 1.393 . S
C1449 C1448 1.391 . S
C1450 H1440 0.950 . S
C1450 C1451 1.386 . S
C1450 C1452 1.391 . S
C1451 C1450 1.386 . S
C1451 C1455 1.393 . S
C1452 H1441 0.950 . S
C1452 C1450 1.391 . S
C1452 C1453 1.400 . S
C1453 C1447 1.491 . S
C1453 C1452 1.400 . S
C1453 C1454 1.398 . S
C1454 H1442 0.950 . S
C1454 C1453 1.398 . S
C1454 C1455 1.391 . S
C1455 H1443 0.950 . S
C1455 C1451 1.393 . S
C1455 C1454 1.391 . S
H1456 C1464 0.950 . S
H1457 C1469 0.950 . S
H1458 C1466 0.950 . S
H1459 C1468 0.950 . S
H1460 C1470 0.950 . S
H1461 C1472 0.950 . S
H1462 C1474 0.950 . S
H1463 C1475 0.950 . S
C1464 H1456 0.950 . S
C1464 C1465 1.386 . S
C1464 C1466 1.391 1_554 S
C1465 C1464 1.386 . S
C1465 C1469 1.393 . S
C1466 H1458 0.950 . S
C1466 C1464 1.391 1_556 S
C1466 C1467 1.400 1_556 S
C1467 C1466 1.400 1_554 S
C1467 C1468 1.398 . S
C1467 C1473 1.491 1_544 S
C1468 H1459 0.950 . S
C1468 C1467 1.398 . S
C1468 C1469 1.391 . S
C1469 H1457 0.950 . S
C1469 C1465 1.393 . S
C1469 C1468 1.391 . S
C1470 H1460 0.950 . S
C1470 C1471 1.386 . S
C1470 C1472 1.391 1_556 S
C1471 C1470 1.386 . S
C1471 C1475 1.393 . S
C1472 H1461 0.950 . S
C1472 C1470 1.391 1_554 S
C1472 C1473 1.400 1_554 S
C1473 C1467 1.491 1_566 S
C1473 C1472 1.400 1_556 S
C1473 C1474 1.398 . S
C1474 H1462 0.950 . S
C1474 C1473 1.398 . S
C1474 C1475 1.391 . S
C1475 H1463 0.950 . S
C1475 C1471 1.393 . S
C1475 C1474 1.391 . S
H1476 C1484 0.950 . S
H1477 C1489 0.950 . S
H1478 C1486 0.950 . S
H1479 C1488 0.950 . S
H1480 C1490 0.950 . S
H1481 C1492 0.950 . S
H1482 C1494 0.950 . S
H1483 C1495 0.950 . S
C1484 H1476 0.950 . S
C1484 C1485 1.386 . S
C1484 C1486 1.391 . S
C1485 C1484 1.386 . S
C1485 C1489 1.393 . S
C1486 H1478 0.950 . S
C1486 C1484 1.391 . S
C1486 C1487 1.400 . S
C1487 C1486 1.400 . S
C1487 C1488 1.398 . S
C1487 C1493 1.491 . S
C1488 H1479 0.950 . S
C1488 C1487 1.398 . S
C1488 C1489 1.391 . S
C1489 H1477 0.950 . S
C1489 C1485 1.393 . S
C1489 C1488 1.391 . S
C1490 H1480 0.950 . S
C1490 C1491 1.386 . S
C1490 C1492 1.391 . S
C1491 C1490 1.386 . S
C1491 C1495 1.393 . S
C1492 H1481 0.950 . S
C1492 C1490 1.391 . S
C1492 C1493 1.400 . S
C1493 C1487 1.491 . S
C1493 C1492 1.400 . S
C1493 C1494 1.398 . S
C1494 H1482 0.950 . S
C1494 C1493 1.398 . S
C1494 C1495 1.391 . S
C1495 H1483 0.950 . S
C1495 C1491 1.393 . S
C1495 C1494 1.391 . S
H1496 C1504 0.950 . S
H1497 C1509 0.950 . S
H1498 C1506 0.980 . S
H1499 C1508 0.950 . S
H1500 C1510 0.950 . S
H1501 C1512 0.980 . S
H1502 C1514 0.950 . S
H1503 C1515 0.950 . S
C1504 H1496 0.950 . S
C1504 C1505 1.386 . S
C1504 C1506 1.374 1_556 S
C1505 C1504 1.386 . S
C1505 C1509 1.393 . S
C1506 H1498 0.980 . S
C1506 C1504 1.374 1_554 S
C1506 C1507 1.389 1_554 S
C1507 C1506 1.389 1_556 S
C1507 C1508 1.398 . S
C1507 C1513 1.491 1_546 S
C1508 H1499 0.950 . S
C1508 C1507 1.398 . S
C1508 C1509 1.391 . S
C1509 H1497 0.950 . S
C1509 C1505 1.393 . S
C1509 C1508 1.391 . S
C1510 H1500 0.950 . S
C1510 C1511 1.386 . S
C1510 C1512 1.374 1_554 S
C1511 C1510 1.386 . S
C1511 C1515 1.393 . S
C1512 H1501 0.980 . S
C1512 C1510 1.374 1_556 S
C1512 C1513 1.389 1_556 S
C1513 C1507 1.491 1_564 S
C1513 C1512 1.389 1_554 S
C1513 C1514 1.398 . S
C1514 H1502 0.950 . S
C1514 C1513 1.398 . S
C1514 C1515 1.391 . S
C1515 H1503 0.950 . S
C1515 C1511 1.393 . S
C1515 C1514 1.391 . S
H1516 C1524 0.950 . S
H1517 C1529 0.950 . S
H1518 C1526 0.950 . S
H1519 C1528 0.950 . S
H1520 C1530 0.950 . S
H1521 C1532 0.950 . S
H1522 C1534 0.950 . S
H1523 C1535 0.950 . S
C1524 H1516 0.950 . S
C1524 C1525 1.386 . S
C1524 C1526 1.391 . S
C1525 C1524 1.386 . S
C1525 C1529 1.393 . S
C1526 H1518 0.950 . S
C1526 C1524 1.391 . S
C1526 C1527 1.400 . S
C1527 C1526 1.400 . S
C1527 C1528 1.398 . S
C1527 C1533 1.491 . S
C1528 H1519 0.950 . S
C1528 C1527 1.398 . S
C1528 C1529 1.391 . S
C1529 H1517 0.950 . S
C1529 C1525 1.393 . S
C1529 C1528 1.391 . S
C1530 H1520 0.950 . S
C1530 C1531 1.386 . S
C1530 C1532 1.391 . S
C1531 C1530 1.386 . S
C1531 C1535 1.393 . S
C1532 H1521 0.950 . S
C1532 C1530 1.391 . S
C1532 C1533 1.400 . S
C1533 C1527 1.491 . S
C1533 C1532 1.400 . S
C1533 C1534 1.398 . S
C1534 H1522 0.950 . S
C1534 C1533 1.398 . S
C1534 C1535 1.391 . S
C1535 H1523 0.950 . S
C1535 C1531 1.393 . S
C1535 C1534 1.391 . S
H1536 C1544 0.950 . S
H1537 C1549 0.950 . S
H1538 C1546 0.950 . S
H1539 C1548 0.950 . S
H1540 C1550 0.950 . S
H1541 C1552 0.950 . S
H1542 C1554 0.950 . S
H1543 C1555 0.950 . S
C1544 H1536 0.950 . S
C1544 C1545 1.386 . S
C1544 C1546 1.391 . S
C1545 C1544 1.386 . S
C1545 C1549 1.393 . S
C1546 H1538 0.950 . S
C1546 C1544 1.391 . S
C1546 C1547 1.400 . S
C1547 C1546 1.400 . S
C1547 C1548 1.398 . S
C1547 C1553 1.491 . S
C1548 H1539 0.950 . S
C1548 C1547 1.398 . S
C1548 C1549 1.391 . S
C1549 H1537 0.950 . S
C1549 C1545 1.393 . S
C1549 C1548 1.391 . S
C1550 H1540 0.950 . S
C1550 C1551 1.386 . S
C1550 C1552 1.391 . S
C1551 C1550 1.386 . S
C1551 C1555 1.393 . S
C1552 H1541 0.950 . S
C1552 C1550 1.391 . S
C1552 C1553 1.400 . S
C1553 C1547 1.491 . S
C1553 C1552 1.400 . S
C1553 C1554 1.398 . S
C1554 H1542 0.950 . S
C1554 C1553 1.398 . S
C1554 C1555 1.391 . S
C1555 H1543 0.950 . S
C1555 C1551 1.393 . S
C1555 C1554 1.391 . S
H1556 C1564 0.950 . S
H1557 C1569 0.950 . S
H1558 C1566 0.950 . S
H1559 C1568 0.950 . S
H1560 C1570 0.950 . S
H1561 C1572 0.950 . S
H1562 C1574 0.950 . S
H1563 C1575 0.950 . S
C1564 H1556 0.950 . S
C1564 C1565 1.386 . S
C1564 C1566 1.391 . S
C1565 C1564 1.386 . S
C1565 C1569 1.393 . S
C1566 H1558 0.950 . S
C1566 C1564 1.391 . S
C1566 C1567 1.400 . S
C1567 C1566 1.400 . S
C1567 C1568 1.398 . S
C1567 C1573 1.491 . S
C1568 H1559 0.950 . S
C1568 C1567 1.398 . S
C1568 C1569 1.391 . S
C1569 H1557 0.950 . S
C1569 C1565 1.393 . S
C1569 C1568 1.391 . S
C1570 H1560 0.950 . S
C1570 C1571 1.386 . S
C1570 C1572 1.391 . S
C1571 C1570 1.386 . S
C1571 C1575 1.393 . S
C1572 H1561 0.950 . S
C1572 C1570 1.391 . S
C1572 C1573 1.400 . S
C1573 C1567 1.491 . S
C1573 C1572 1.400 . S
C1573 C1574 1.398 . S
C1574 H1562 0.950 . S
C1574 C1573 1.398 . S
C1574 C1575 1.391 . S
C1575 H1563 0.950 . S
C1575 C1571 1.393 . S
C1575 C1574 1.391 . S
H1576 C1584 0.950 . S
H1577 C1589 0.950 . S
H1578 C1586 0.950 . S
H1579 C1588 0.950 . S
H1580 C1590 0.950 . S
H1581 C1592 0.950 . S
H1582 C1594 0.950 . S
H1583 C1595 0.950 . S
C1584 H1576 0.950 . S
C1584 C1585 1.386 . S
C1584 C1586 1.391 . S
C1585 C1584 1.386 . S
C1585 C1589 1.393 . S
C1586 H1578 0.950 . S
C1586 C1584 1.391 . S
C1586 C1587 1.400 . S
C1587 C1586 1.400 . S
C1587 C1588 1.398 . S
C1587 C1593 1.491 . S
C1588 H1579 0.950 . S
C1588 C1587 1.398 . S
C1588 C1589 1.391 . S
C1589 H1577 0.950 . S
C1589 C1585 1.393 . S
C1589 C1588 1.391 . S
C1590 H1580 0.950 . S
C1590 C1591 1.386 . S
C1590 C1592 1.391 . S
C1591 C1590 1.386 . S
C1591 C1595 1.393 . S
C1592 H1581 0.950 . S
C1592 C1590 1.391 . S
C1592 C1593 1.400 . S
C1593 C1587 1.491 . S
C1593 C1592 1.400 . S
C1593 C1594 1.398 . S
C1594 H1582 0.950 . S
C1594 C1593 1.398 . S
C1594 C1595 1.391 . S
C1595 H1583 0.950 . S
C1595 C1591 1.393 . S
C1595 C1594 1.391 . S
H1596 C1604 0.950 . S
H1597 C1609 0.950 . S
H1598 C1606 0.950 . S
H1599 C1608 0.950 . S
H1600 C1610 0.950 . S
H1601 C1612 0.950 . S
H1602 C1614 0.950 . S
H1603 C1615 0.950 . S
C1604 H1596 0.950 . S
C1604 C1605 1.386 . S
C1604 C1606 1.391 . S
C1605 C1604 1.386 . S
C1605 C1609 1.393 . S
C1606 H1598 0.950 . S
C1606 C1604 1.391 . S
C1606 C1607 1.400 . S
C1607 C1606 1.400 . S
C1607 C1608 1.398 . S
C1607 C1613 1.491 . S
C1608 H1599 0.950 . S
C1608 C1607 1.398 . S
C1608 C1609 1.391 . S
C1609 H1597 0.950 . S
C1609 C1605 1.393 . S
C1609 C1608 1.391 . S
C1610 H1600 0.950 . S
C1610 C1611 1.386 . S
C1610 C1612 1.391 . S
C1611 C1610 1.386 . S
C1611 C1615 1.393 . S
C1612 H1601 0.950 . S
C1612 C1610 1.391 . S
C1612 C1613 1.400 . S
C1613 C1607 1.491 . S
C1613 C1612 1.400 . S
C1613 C1614 1.398 . S
C1614 H1602 0.950 . S
C1614 C1613 1.398 . S
C1614 C1615 1.391 . S
C1615 H1603 0.950 . S
C1615 C1611 1.393 . S
C1615 C1614 1.391 . S
H1616 C1624 0.950 . S
H1617 C1629 0.950 . S
H1618 C1626 0.950 . S
H1619 C1628 0.950 . S
H1620 C1630 0.950 . S
H1621 C1632 0.950 . S
H1622 C1634 0.950 . S
H1623 C1635 0.950 . S
C1624 H1616 0.950 . S
C1624 C1625 1.386 . S
C1624 C1626 1.391 . S
C1625 C1624 1.386 . S
C1625 C1629 1.393 . S
C1626 H1618 0.950 . S
C1626 C1624 1.391 . S
C1626 C1627 1.400 . S
C1627 C1626 1.400 . S
C1627 C1628 1.398 . S
C1627 C1633 1.491 . S
C1628 H1619 0.950 . S
C1628 C1627 1.398 . S
C1628 C1629 1.391 . S
C1629 H1617 0.950 . S
C1629 C1625 1.393 . S
C1629 C1628 1.391 . S
C1630 H1620 0.950 . S
C1630 C1631 1.386 . S
C1630 C1632 1.391 . S
C1631 C1630 1.386 . S
C1631 C1635 1.393 . S
C1632 H1621 0.950 . S
C1632 C1630 1.391 . S
C1632 C1633 1.400 . S
C1633 C1627 1.491 . S
C1633 C1632 1.400 . S
C1633 C1634 1.398 . S
C1634 H1622 0.950 . S
C1634 C1633 1.398 . S
C1634 C1635 1.391 . S
C1635 H1623 0.950 . S
C1635 C1631 1.393 . S
C1635 C1634 1.391 . S
H1636 C1644 0.950 . S
H1637 C1649 0.950 . S
H1638 C1646 0.950 . S
H1639 C1648 0.950 . S
H1640 C1650 0.950 . S
H1641 C1652 0.950 . S
H1642 C1654 0.950 . S
H1643 C1655 0.950 . S
C1644 H1636 0.950 . S
C1644 C1645 1.386 . S
C1644 C1646 1.391 . S
C1645 C1644 1.386 . S
C1645 C1649 1.393 . S
C1646 H1638 0.950 . S
C1646 C1644 1.391 . S
C1646 C1647 1.400 . S
C1647 C1646 1.400 . S
C1647 C1648 1.398 . S
C1647 C1653 1.491 . S
C1648 H1639 0.950 . S
C1648 C1647 1.398 . S
C1648 C1649 1.391 . S
C1649 H1637 0.950 . S
C1649 C1645 1.393 . S
C1649 C1648 1.391 . S
C1650 H1640 0.950 . S
C1650 C1651 1.386 . S
C1650 C1652 1.391 . S
C1651 C1650 1.386 . S
C1651 C1655 1.393 . S
C1652 H1641 0.950 . S
C1652 C1650 1.391 . S
C1652 C1653 1.400 . S
C1653 C1647 1.491 . S
C1653 C1652 1.400 . S
C1653 C1654 1.398 . S
C1654 H1642 0.950 . S
C1654 C1653 1.398 . S
C1654 C1655 1.391 . S
C1655 H1643 0.950 . S
C1655 C1651 1.393 . S
C1655 C1654 1.391 . S
H1656 C1664 0.950 . S
H1657 C1669 0.950 . S
H1658 C1666 0.950 . S
H1659 C1668 0.950 . S
H1660 C1670 0.950 . S
H1661 C1672 0.950 . S
H1662 C1674 0.950 . S
H1663 C1675 0.950 . S
C1664 H1656 0.950 . S
C1664 C1665 1.386 . S
C1664 C1666 1.391 . S
C1665 C1664 1.386 . S
C1665 C1669 1.393 . S
C1666 H1658 0.950 . S
C1666 C1664 1.391 . S
C1666 C1667 1.400 . S
C1667 C1666 1.400 . S
C1667 C1668 1.398 . S
C1667 C1673 1.491 . S
C1668 H1659 0.950 . S
C1668 C1667 1.398 . S
C1668 C1669 1.391 . S
C1669 H1657 0.950 . S
C1669 C1665 1.393 . S
C1669 C1668 1.391 . S
C1670 H1660 0.950 . S
C1670 C1671 1.386 . S
C1670 C1672 1.391 . S
C1671 C1670 1.386 . S
C1671 C1675 1.393 . S
C1672 H1661 0.950 . S
C1672 C1670 1.391 . S
C1672 C1673 1.400 . S
C1673 C1667 1.491 . S
C1673 C1672 1.400 . S
C1673 C1674 1.398 . S
C1674 H1662 0.950 . S
C1674 C1673 1.398 . S
C1674 C1675 1.391 . S
C1675 H1663 0.950 . S
C1675 C1671 1.393 . S
C1675 C1674 1.391 . S
H1676 C1684 0.950 . S
H1677 C1689 0.950 . S
H1678 C1686 0.950 . S
H1679 C1688 0.950 . S
H1680 C1690 0.950 . S
H1681 C1692 0.950 . S
H1682 C1694 0.950 . S
H1683 C1695 0.950 . S
C1684 H1676 0.950 . S
C1684 C1685 1.386 . S
C1684 C1686 1.391 . S
C1685 C1684 1.386 . S
C1685 C1689 1.393 . S
C1686 H1678 0.950 . S
C1686 C1684 1.391 . S
C1686 C1687 1.400 . S
C1687 C1686 1.400 . S
C1687 C1688 1.398 . S
C1687 C1693 1.491 . S
C1688 H1679 0.950 . S
C1688 C1687 1.398 . S
C1688 C1689 1.391 . S
C1689 H1677 0.950 . S
C1689 C1685 1.393 . S
C1689 C1688 1.391 . S
C1690 H1680 0.950 . S
C1690 C1691 1.386 . S
C1690 C1692 1.391 . S
C1691 C1690 1.386 . S
C1691 C1695 1.393 . S
C1692 H1681 0.950 . S
C1692 C1690 1.391 . S
C1692 C1693 1.400 . S
C1693 C1687 1.491 . S
C1693 C1692 1.400 . S
C1693 C1694 1.398 . S
C1694 H1682 0.950 . S
C1694 C1693 1.398 . S
C1694 C1695 1.391 . S
C1695 H1683 0.950 . S
C1695 C1691 1.393 . S
C1695 C1694 1.391 . S
H1696 C1704 0.950 . S
H1697 C1709 0.950 . S
H1698 C1706 0.950 . S
H1699 C1708 0.950 . S
H1700 C1710 0.950 . S
H1701 C1712 0.950 . S
H1702 C1714 0.950 . S
H1703 C1715 0.950 . S
C1704 H1696 0.950 . S
C1704 C1705 1.386 . S
C1704 C1706 1.391 . S
C1705 C1704 1.386 . S
C1705 C1709 1.393 . S
C1706 H1698 0.950 . S
C1706 C1704 1.391 . S
C1706 C1707 1.400 . S
C1707 C1706 1.400 . S
C1707 C1708 1.398 . S
C1707 C1713 1.491 . S
C1708 H1699 0.950 . S
C1708 C1707 1.398 . S
C1708 C1709 1.391 . S
C1709 H1697 0.950 . S
C1709 C1705 1.393 . S
C1709 C1708 1.391 . S
C1710 H1700 0.950 . S
C1710 C1711 1.386 . S
C1710 C1712 1.391 . S
C1711 C1710 1.386 . S
C1711 C1715 1.393 . S
C1712 H1701 0.950 . S
C1712 C1710 1.391 . S
C1712 C1713 1.400 . S
C1713 C1707 1.491 . S
C1713 C1712 1.400 . S
C1713 C1714 1.398 . S
C1714 H1702 0.950 . S
C1714 C1713 1.398 . S
C1714 C1715 1.391 . S
C1715 H1703 0.950 . S
C1715 C1711 1.393 . S
C1715 C1714 1.391 . S
H1716 C1724 0.950 . S
H1717 C1729 0.950 . S
H1718 C1726 0.950 . S
H1719 C1728 0.950 . S
H1720 C1730 0.950 . S
H1721 C1732 0.950 . S
H1722 C1734 0.950 . S
H1723 C1735 0.950 . S
C1724 H1716 0.950 . S
C1724 C1725 1.386 . S
C1724 C1726 1.391 . S
C1725 C1724 1.386 . S
C1725 C1729 1.393 . S
C1726 H1718 0.950 . S
C1726 C1724 1.391 . S
C1726 C1727 1.400 . S
C1727 C1726 1.400 . S
C1727 C1728 1.398 . S
C1727 C1733 1.491 . S
C1728 H1719 0.950 . S
C1728 C1727 1.398 . S
C1728 C1729 1.391 . S
C1729 H1717 0.950 . S
C1729 C1725 1.393 . S
C1729 C1728 1.391 . S
C1730 H1720 0.950 . S
C1730 C1731 1.386 . S
C1730 C1732 1.391 . S
C1731 C1730 1.386 . S
C1731 C1735 1.393 . S
C1732 H1721 0.950 . S
C1732 C1730 1.391 . S
C1732 C1733 1.400 . S
C1733 C1727 1.491 . S
C1733 C1732 1.400 . S
C1733 C1734 1.398 . S
C1734 H1722 0.950 . S
C1734 C1733 1.398 . S
C1734 C1735 1.391 . S
C1735 H1723 0.950 . S
C1735 C1731 1.393 . S
C1735 C1734 1.391 . S
H1736 C1744 0.950 . S
H1737 C1749 0.950 . S
H1738 C1746 0.950 . S
H1739 C1748 0.950 . S
H1740 C1750 0.950 . S
H1741 C1752 0.950 . S
H1742 C1754 0.950 . S
H1743 C1755 0.950 . S
C1744 H1736 0.950 . S
C1744 C1745 1.386 . S
C1744 C1746 1.391 . S
C1745 C1744 1.386 . S
C1745 C1749 1.393 . S
C1746 H1738 0.950 . S
C1746 C1744 1.391 . S
C1746 C1747 1.400 . S
C1747 C1746 1.400 . S
C1747 C1748 1.398 . S
C1747 C1753 1.491 . S
C1748 H1739 0.950 . S
C1748 C1747 1.398 . S
C1748 C1749 1.391 . S
C1749 H1737 0.950 . S
C1749 C1745 1.393 . S
C1749 C1748 1.391 . S
C1750 H1740 0.950 . S
C1750 C1751 1.386 . S
C1750 C1752 1.391 . S
C1751 C1750 1.386 . S
C1751 C1755 1.393 . S
C1752 H1741 0.950 . S
C1752 C1750 1.391 . S
C1752 C1753 1.400 . S
C1753 C1747 1.491 . S
C1753 C1752 1.400 . S
C1753 C1754 1.398 . S
C1754 H1742 0.950 . S
C1754 C1753 1.398 . S
C1754 C1755 1.391 . S
C1755 H1743 0.950 . S
C1755 C1751 1.393 . S
C1755 C1754 1.391 . S
H1756 C1764 0.950 . S
H1757 C1769 0.950 . S
H1758 C1766 0.950 . S
H1759 C1768 0.950 . S
H1760 C1770 0.950 . S
H1761 C1772 0.950 . S
H1762 C1774 0.950 . S
H1763 C1775 0.950 . S
C1764 H1756 0.950 . S
C1764 C1765 1.386 . S
C1764 C1766 1.391 . S
C1765 C1764 1.386 . S
C1765 C1769 1.393 . S
C1766 H1758 0.950 . S
C1766 C1764 1.391 . S
C1766 C1767 1.400 . S
C1767 C1766 1.400 . S
C1767 C1768 1.398 . S
C1767 C1773 1.491 . S
C1768 H1759 0.950 . S
C1768 C1767 1.398 . S
C1768 C1769 1.391 . S
C1769 H1757 0.950 . S
C1769 C1765 1.393 . S
C1769 C1768 1.391 . S
C1770 H1760 0.950 . S
C1770 C1771 1.386 . S
C1770 C1772 1.391 . S
C1771 C1770 1.386 . S
C1771 C1775 1.393 . S
C1772 H1761 0.950 . S
C1772 C1770 1.391 . S
C1772 C1773 1.400 . S
C1773 C1767 1.491 . S
C1773 C1772 1.400 . S
C1773 C1774 1.398 . S
C1774 H1762 0.950 . S
C1774 C1773 1.398 . S
C1774 C1775 1.391 . S
C1775 H1763 0.950 . S
C1775 C1771 1.393 . S
C1775 C1774 1.391 . S
H1776 C1784 0.950 . S
H1777 C1789 0.950 . S
H1778 C1786 0.950 . S
H1779 C1788 0.950 . S
H1780 C1790 0.950 . S
H1781 C1792 0.950 . S
H1782 C1794 0.950 . S
H1783 C1795 0.950 . S
C1784 H1776 0.950 . S
C1784 C1785 1.386 . S
C1784 C1786 1.391 . S
C1785 C1784 1.386 . S
C1785 C1789 1.393 . S
C1786 H1778 0.950 . S
C1786 C1784 1.391 . S
C1786 C1787 1.400 . S
C1787 C1786 1.400 . S
C1787 C1788 1.398 . S
C1787 C1793 1.491 . S
C1788 H1779 0.950 . S
C1788 C1787 1.398 . S
C1788 C1789 1.391 . S
C1789 H1777 0.950 . S
C1789 C1785 1.393 . S
C1789 C1788 1.391 . S
C1790 H1780 0.950 . S
C1790 C1791 1.386 . S
C1790 C1792 1.391 . S
C1791 C1790 1.386 . S
C1791 C1795 1.393 . S
C1792 H1781 0.950 . S
C1792 C1790 1.391 . S
C1792 C1793 1.400 . S
C1793 C1787 1.491 . S
C1793 C1792 1.400 . S
C1793 C1794 1.398 . S
C1794 H1782 0.950 . S
C1794 C1793 1.398 . S
C1794 C1795 1.391 . S
C1795 H1783 0.950 . S
C1795 C1791 1.393 . S
C1795 C1794 1.391 . S
H1796 C1804 0.950 . S
H1797 C1809 0.950 . S
H1798 C1806 0.950 . S
H1799 C1808 0.950 . S
H1800 C1810 0.950 . S
H1801 C1812 0.950 . S
H1802 C1814 0.950 . S
H1803 C1815 0.950 . S
C1804 H1796 0.950 . S
C1804 C1805 1.386 . S
C1804 C1806 1.391 . S
C1805 C1804 1.386 . S
C1805 C1809 1.393 . S
C1806 H1798 0.950 . S
C1806 C1804 1.391 . S
C1806 C1807 1.400 . S
C1807 C1806 1.400 . S
C1807 C1808 1.398 . S
C1807 C1813 1.491 . S
C1808 H1799 0.950 . S
C1808 C1807 1.398 . S
C1808 C1809 1.391 . S
C1809 H1797 0.950 . S
C1809 C1805 1.393 . S
C1809 C1808 1.391 . S
C1810 H1800 0.950 . S
C1810 C1811 1.386 . S
C1810 C1812 1.391 . S
C1811 C1810 1.386 . S
C1811 C1815 1.393 . S
C1812 H1801 0.950 . S
C1812 C1810 1.391 . S
C1812 C1813 1.400 . S
C1813 C1807 1.491 . S
C1813 C1812 1.400 . S
C1813 C1814 1.398 . S
C1814 H1802 0.950 . S
C1814 C1813 1.398 . S
C1814 C1815 1.391 . S
C1815 H1803 0.950 . S
C1815 C1811 1.393 . S
C1815 C1814 1.391 . S
H1816 C1824 0.950 . S
H1817 C1829 0.950 . S
H1818 C1826 0.950 . S
H1819 C1828 0.950 . S
H1820 C1830 0.950 . S
H1821 C1832 0.950 . S
H1822 C1834 0.950 . S
H1823 C1835 0.950 . S
C1824 H1816 0.950 . S
C1824 C1825 1.386 . S
C1824 C1826 1.391 . S
C1825 C1824 1.386 . S
C1825 C1829 1.393 . S
C1826 H1818 0.950 . S
C1826 C1824 1.391 . S
C1826 C1827 1.400 . S
C1827 C1826 1.400 . S
C1827 C1828 1.398 . S
C1827 C1833 1.491 . S
C1828 H1819 0.950 . S
C1828 C1827 1.398 . S
C1828 C1829 1.391 . S
C1829 H1817 0.950 . S
C1829 C1825 1.393 . S
C1829 C1828 1.391 . S
C1830 H1820 0.950 . S
C1830 C1831 1.386 . S
C1830 C1832 1.391 . S
C1831 C1830 1.386 . S
C1831 C1835 1.393 . S
C1832 H1821 0.950 . S
C1832 C1830 1.391 . S
C1832 C1833 1.400 . S
C1833 C1827 1.491 . S
C1833 C1832 1.400 . S
C1833 C1834 1.398 . S
C1834 H1822 0.950 . S
C1834 C1833 1.398 . S
C1834 C1835 1.391 . S
C1835 H1823 0.950 . S
C1835 C1831 1.393 . S
C1835 C1834 1.391 . S
H1836 C1844 0.950 . S
H1837 C1849 0.950 . S
H1838 C1846 0.950 . S
H1839 C1848 0.950 . S
H1840 C1850 0.950 . S
H1841 C1852 0.950 . S
H1842 C1854 0.950 . S
H1843 C1855 0.950 . S
C1844 H1836 0.950 . S
C1844 C1845 1.386 . S
C1844 C1846 1.391 . S
C1845 C1844 1.386 . S
C1845 C1849 1.393 . S
C1846 H1838 0.950 . S
C1846 C1844 1.391 . S
C1846 C1847 1.400 . S
C1847 C1846 1.400 . S
C1847 C1848 1.398 . S
C1847 C1853 1.491 . S
C1848 H1839 0.950 . S
C1848 C1847 1.398 . S
C1848 C1849 1.391 . S
C1849 H1837 0.950 . S
C1849 C1845 1.393 . S
C1849 C1848 1.391 . S
C1850 H1840 0.950 . S
C1850 C1851 1.386 . S
C1850 C1852 1.391 . S
C1851 C1850 1.386 . S
C1851 C1855 1.393 . S
C1852 H1841 0.950 . S
C1852 C1850 1.391 . S
C1852 C1853 1.400 . S
C1853 C1847 1.491 . S
C1853 C1852 1.400 . S
C1853 C1854 1.398 . S
C1854 H1842 0.950 . S
C1854 C1853 1.398 . S
C1854 C1855 1.391 . S
C1855 H1843 0.950 . S
C1855 C1851 1.393 . S
C1855 C1854 1.391 . S
H1856 C1864 0.950 . S
H1857 C1869 0.950 . S
H1858 C1866 0.950 . S
H1859 C1868 0.950 . S
H1860 C1870 0.950 . S
H1861 C1872 0.950 . S
H1862 C1874 0.950 . S
H1863 C1875 0.950 . S
C1864 H1856 0.950 . S
C1864 C1865 1.386 . S
C1864 C1866 1.391 . S
C1865 C1864 1.386 . S
C1865 C1869 1.393 . S
C1866 H1858 0.950 . S
C1866 C1864 1.391 . S
C1866 C1867 1.400 . S
C1867 C1866 1.400 . S
C1867 C1868 1.398 . S
C1867 C1873 1.491 . S
C1868 H1859 0.950 . S
C1868 C1867 1.398 . S
C1868 C1869 1.391 . S
C1869 H1857 0.950 . S
C1869 C1865 1.393 . S
C1869 C1868 1.391 . S
C1870 H1860 0.950 . S
C1870 C1871 1.386 . S
C1870 C1872 1.391 . S
C1871 C1870 1.386 . S
C1871 C1875 1.393 . S
C1872 H1861 0.950 . S
C1872 C1870 1.391 . S
C1872 C1873 1.400 . S
C1873 C1867 1.491 . S
C1873 C1872 1.400 . S
C1873 C1874 1.398 . S
C1874 H1862 0.950 . S
C1874 C1873 1.398 . S
C1874 C1875 1.391 . S
C1875 H1863 0.950 . S
C1875 C1871 1.393 . S
C1875 C1874 1.391 . S
H1876 C1884 0.950 . S
H1877 C1889 0.950 . S
H1878 C1886 0.950 . S
H1879 C1888 0.950 . S
H1880 C1890 0.950 . S
H1881 C1892 0.950 . S
H1882 C1894 0.950 . S
H1883 C1895 0.950 . S
C1884 H1876 0.950 . S
C1884 C1885 1.386 . S
C1884 C1886 1.391 . S
C1885 C1884 1.386 . S
C1885 C1889 1.393 . S
C1886 H1878 0.950 . S
C1886 C1884 1.391 . S
C1886 C1887 1.400 . S
C1887 C1886 1.400 . S
C1887 C1888 1.398 . S
C1887 C1893 1.491 . S
C1888 H1879 0.950 . S
C1888 C1887 1.398 . S
C1888 C1889 1.391 . S
C1889 H1877 0.950 . S
C1889 C1885 1.393 . S
C1889 C1888 1.391 . S
C1890 H1880 0.950 . S
C1890 C1891 1.386 . S
C1890 C1892 1.391 . S
C1891 C1890 1.386 . S
C1891 C1895 1.393 . S
C1892 H1881 0.950 . S
C1892 C1890 1.391 . S
C1892 C1893 1.400 . S
C1893 C1887 1.491 . S
C1893 C1892 1.400 . S
C1893 C1894 1.398 . S
C1894 H1882 0.950 . S
C1894 C1893 1.398 . S
C1894 C1895 1.391 . S
C1895 H1883 0.950 . S
C1895 C1891 1.393 . S
C1895 C1894 1.391 . S
H1896 C1904 0.950 . S
H1897 C1909 0.950 . S
H1898 C1906 0.950 . S
H1899 C1908 0.950 . S
H1900 C1910 0.950 . S
H1901 C1912 0.950 . S
H1902 C1914 0.950 . S
H1903 C1915 0.950 . S
C1904 H1896 0.950 . S
C1904 C1905 1.386 . S
C1904 C1906 1.391 . S
C1905 C1904 1.386 . S
C1905 C1909 1.393 . S
C1906 H1898 0.950 . S
C1906 C1904 1.391 . S
C1906 C1907 1.400 . S
C1907 C1906 1.400 . S
C1907 C1908 1.398 . S
C1907 C1913 1.491 . S
C1908 H1899 0.950 . S
C1908 C1907 1.398 . S
C1908 C1909 1.391 . S
C1909 H1897 0.950 . S
C1909 C1905 1.393 . S
C1909 C1908 1.391 . S
C1910 H1900 0.950 . S
C1910 C1911 1.386 . S
C1910 C1912 1.391 . S
C1911 C1910 1.386 . S
C1911 C1915 1.393 . S
C1912 H1901 0.950 . S
C1912 C1910 1.391 . S
C1912 C1913 1.400 . S
C1913 C1907 1.491 . S
C1913 C1912 1.400 . S
C1913 C1914 1.398 . S
C1914 H1902 0.950 . S
C1914 C1913 1.398 . S
C1914 C1915 1.391 . S
C1915 H1903 0.950 . S
C1915 C1911 1.393 . S
C1915 C1914 1.391 . S
H1916 C1924 0.950 . S
H1917 C1929 0.950 . S
H1918 C1926 0.950 . S
H1919 C1928 0.950 . S
H1920 C1930 0.950 . S
H1921 C1932 0.950 . S
H1922 C1934 0.950 . S
H1923 C1935 0.950 . S
C1924 H1916 0.950 . S
C1924 C1925 1.386 . S
C1924 C1926 1.391 . S
C1925 C1924 1.386 . S
C1925 C1929 1.393 . S
C1926 H1918 0.950 . S
C1926 C1924 1.391 . S
C1926 C1927 1.400 . S
C1927 C1926 1.400 . S
C1927 C1928 1.398 . S
C1927 C1933 1.491 . S
C1928 H1919 0.950 . S
C1928 C1927 1.398 . S
C1928 C1929 1.391 . S
C1929 H1917 0.950 . S
C1929 C1925 1.393 . S
C1929 C1928 1.391 . S
C1930 H1920 0.950 . S
C1930 C1931 1.386 . S
C1930 C1932 1.391 . S
C1931 C1930 1.386 . S
C1931 C1935 1.393 . S
C1932 H1921 0.950 . S
C1932 C1930 1.391 . S
C1932 C1933 1.400 . S
C1933 C1927 1.491 . S
C1933 C1932 1.400 . S
C1933 C1934 1.398 . S
C1934 H1922 0.950 . S
C1934 C1933 1.398 . S
C1934 C1935 1.391 . S
C1935 H1923 0.950 . S
C1935 C1931 1.393 . S
C1935 C1934 1.391 . S
H1936 C1944 0.950 . S
H1937 C1949 0.950 . S
H1938 C1946 0.950 . S
H1939 C1948 0.950 . S
H1940 C1950 0.950 . S
H1941 C1952 0.950 . S
H1942 C1954 0.950 . S
H1943 C1955 0.950 . S
C1944 H1936 0.950 . S
C1944 C1945 1.386 . S
C1944 C1946 1.391 . S
C1945 C1944 1.386 . S
C1945 C1949 1.393 . S
C1946 H1938 0.950 . S
C1946 C1944 1.391 . S
C1946 C1947 1.400 . S
C1947 C1946 1.400 . S
C1947 C1948 1.398 . S
C1947 C1953 1.491 . S
C1948 H1939 0.950 . S
C1948 C1947 1.398 . S
C1948 C1949 1.391 . S
C1949 H1937 0.950 . S
C1949 C1945 1.393 . S
C1949 C1948 1.391 . S
C1950 H1940 0.950 . S
C1950 C1951 1.386 . S
C1950 C1952 1.391 . S
C1951 C1950 1.386 . S
C1951 C1955 1.393 . S
C1952 H1941 0.950 . S
C1952 C1950 1.391 . S
C1952 C1953 1.400 . S
C1953 C1947 1.491 . S
C1953 C1952 1.400 . S
C1953 C1954 1.398 . S
C1954 H1942 0.950 . S
C1954 C1953 1.398 . S
C1954 C1955 1.391 . S
C1955 H1943 0.950 . S
C1955 C1951 1.393 . S
C1955 C1954 1.391 . S
H1956 C1964 0.950 . S
H1957 C1969 0.950 . S
H1958 C1966 0.950 . S
H1959 C1968 0.950 . S
H1960 C1970 0.950 . S
H1961 C1972 0.950 . S
H1962 C1974 0.950 . S
H1963 C1975 0.950 . S
C1964 H1956 0.950 . S
C1964 C1965 1.386 . S
C1964 C1966 1.391 . S
C1965 C1964 1.386 . S
C1965 C1969 1.393 . S
C1966 H1958 0.950 . S
C1966 C1964 1.391 . S
C1966 C1967 1.400 . S
C1967 C1966 1.400 . S
C1967 C1968 1.398 . S
C1967 C1973 1.491 . S
C1968 H1959 0.950 . S
C1968 C1967 1.398 . S
C1968 C1969 1.391 . S
C1969 H1957 0.950 . S
C1969 C1965 1.393 . S
C1969 C1968 1.391 . S
C1970 H1960 0.950 . S
C1970 C1971 1.386 . S
C1970 C1972 1.391 . S
C1971 C1970 1.386 . S
C1971 C1975 1.393 . S
C1972 H1961 0.950 . S
C1972 C1970 1.391 . S
C1972 C1973 1.400 . S
C1973 C1967 1.491 . S
C1973 C1972 1.400 . S
C1973 C1974 1.398 . S
C1974 H1962 0.950 . S
C1974 C1973 1.398 . S
C1974 C1975 1.391 . S
C1975 H1963 0.950 . S
C1975 C1971 1.393 . S
C1975 C1974 1.391 . S
H1976 C1984 0.950 . S
H1977 C1989 0.950 . S
H1978 C1986 0.950 . S
H1979 C1988 0.950 . S
H1980 C1990 0.950 . S
H1981 C1992 0.950 . S
H1982 C1994 0.950 . S
H1983 C1995 0.950 . S
C1984 H1976 0.950 . S
C1984 C1985 1.386 . S
C1984 C1986 1.391 . S
C1985 C1984 1.386 . S
C1985 C1989 1.393 . S
C1986 H1978 0.950 . S
C1986 C1984 1.391 . S
C1986 C1987 1.400 . S
C1987 C1986 1.400 . S
C1987 C1988 1.398 . S
C1987 C1993 1.491 . S
C1988 H1979 0.950 . S
C1988 C1987 1.398 . S
C1988 C1989 1.391 . S
C1989 H1977 0.950 . S
C1989 C1985 1.393 . S
C1989 C1988 1.391 . S
C1990 H1980 0.950 . S
C1990 C1991 1.386 . S
C1990 C1992 1.391 . S
C1991 C1990 1.386 . S
C1991 C1995 1.393 . S
C1992 H1981 0.950 . S
C1992 C1990 1.391 . S
C1992 C1993 1.400 . S
C1993 C1987 1.491 . S
C1993 C1992 1.400 . S
C1993 C1994 1.398 . S
C1994 H1982 0.950 . S
C1994 C1993 1.398 . S
C1994 C1995 1.391 . S
C1995 H1983 0.950 . S
C1995 C1991 1.393 . S
C1995 C1994 1.391 . S
H1996 C2004 0.950 . S
H1997 C2009 0.950 . S
H1998 C2006 0.950 . S
H1999 C2008 0.950 . S
H2000 C2010 0.950 . S
H2001 C2012 0.950 . S
H2002 C2014 0.950 . S
H2003 C2015 0.950 . S
C2004 H1996 0.950 . S
C2004 C2005 1.386 . S
C2004 C2006 1.391 . S
C2005 C2004 1.386 . S
C2005 C2009 1.393 . S
C2006 H1998 0.950 . S
C2006 C2004 1.391 . S
C2006 C2007 1.400 . S
C2007 C2006 1.400 . S
C2007 C2008 1.398 . S
C2007 C2013 1.491 . S
C2008 H1999 0.950 . S
C2008 C2007 1.398 . S
C2008 C2009 1.391 . S
C2009 H1997 0.950 . S
C2009 C2005 1.393 . S
C2009 C2008 1.391 . S
C2010 H2000 0.950 . S
C2010 C2011 1.386 . S
C2010 C2012 1.391 . S
C2011 C2010 1.386 . S
C2011 C2015 1.393 . S
C2012 H2001 0.950 . S
C2012 C2010 1.391 . S
C2012 C2013 1.400 . S
C2013 C2007 1.491 . S
C2013 C2012 1.400 . S
C2013 C2014 1.398 . S
C2014 H2002 0.950 . S
C2014 C2013 1.398 . S
C2014 C2015 1.391 . S
C2015 H2003 0.950 . S
C2015 C2011 1.393 . S
C2015 C2014 1.391 . S
C825 C107 1.241 . S
C831 C33 1.245 . S
C845 C5 1.253 . S
C851 C67 1.246 . S
C865 C39 1.260 . S
C871 C101 1.260 . S
C885 C135 1.256 . S
C891 C73 1.258 . S
C905 C175 1.258 . S
C911 C169 1.258 . S
C925 C209 1.268 . S
C931 C203 1.262 . S
C945 C237 1.262 . S
C951 C243 1.260 . S
C965 C141 1.248 . S
C971 C271 1.244 . S
C985 C305 1.262 . S
C991 C617 1.260 . S
C1005 C339 1.250 . S
C1011 C651 1.257 . S
C1025 C685 1.247 . S
C1031 C373 1.247 . S
C1045 C583 1.263 . S
C1051 C407 1.259 . S
C1065 C753 1.243 . S
C1071 C441 1.244 . S
C1085 C475 1.259 . S
C1091 C549 1.266 . S
C1105 C509 1.250 . S
C1111 C787 1.245 . S
C1125 C719 1.256 . S
C1131 C543 1.249 . S
C1145 C311 1.251 . S
C1151 C577 1.251 . S
C1165 C611 1.262 . S
C1171 C515 1.261 . S
C1185 C413 1.264 . S
C1191 C645 1.260 . S
C1205 C447 1.260 . S
C1211 C679 1.261 . S
C1225 C481 1.248 . S
C1231 C713 1.244 . S
C1245 C379 1.260 . S
C1251 C747 1.260 . S
C1265 C277 1.267 . S
C1271 C781 1.260 . S
C1285 C345 1.248 . S
C1291 C815 1.244 . S
C1305 C224 2.014 . S
C1311 C20 2.021 . S
C1325 C54 2.022 . S
C1331 C258 2.016 . S
C1345 C156 2.021 . S
C1351 C88 2.017 . S
C1365 C190 2.018 . S
C1371 C122 2.016 . S
C1385 C360 2.021 . S
C1391 C292 2.017 . S
C1405 C326 2.017 . S
C1411 C394 2.022 . S
C1425 C428 2.015 . S
C1431 C496 2.019 . S
C1445 C530 2.017 . S
C1451 C462 2.016 . S
C1465 C564 2.021 . S
C1471 C598 2.017 . S
C1485 C632 2.022 . S
C1491 C802 2.016 . S
C1505 C666 2.021 . S
C1511 C734 2.017 . S
C1525 C768 2.019 . S
C1531 C700 2.015 . S
C1545 C2 1.200 . S
C1551 C281 1.154 . S
C1565 C36 1.199 . S
C1571 C315 1.152 . S
C1585 C349 1.156 . S
C1591 C70 1.201 . S
C1605 C383 1.151 . S
C1611 C104 1.199 . S
C1625 C138 1.207 . S
C1631 C417 1.171 . S
C1645 C451 1.153 . S
C1651 C172 1.199 . S
C1665 C206 1.201 . S
C1671 C485 1.156 . S
C1685 C519 1.170 . S
C1691 C240 1.206 . S
C1705 C274 1.208 . S
C1711 C553 1.173 . S
C1725 C791 1.174 . S
C1731 C308 1.208 . S
C1745 C342 1.195 . S
C1751 C723 1.143 . S
C1765 C376 1.196 . S
C1771 C757 1.144 . S
C1785 C587 1.156 . S
C1791 C410 1.201 . S
C1805 C444 1.210 . S
C1811 C621 1.177 . S
C1825 C478 1.200 . S
C1831 C655 1.154 . S
C1845 C512 1.202 . S
C1851 C689 1.159 . S
C1865 C546 1.196 . S
C1871 C9 1.146 . S
C1885 C580 1.195 . S
C1891 C145 1.142 . S
C1905 C614 1.197 . S
C1911 C179 1.147 . S
C1925 C213 1.176 . S
C1931 C648 1.209 . S
C1945 C682 1.209 . S
C1951 C247 1.176 . S
C1965 C77 1.177 . S
C1971 C716 1.209 . S
C1985 C111 1.154 . S
C1991 C750 1.200 . S
C2005 C784 1.199 . S
C2011 C43 1.152 . S
