# Generated by pormake.
# Topology lcs-e, (6)-cn, num edge types: 1
# Building blocks:
#     Node 0, Type 0, BuildingBlock: BETDEL_clean_sbu_0, # of connection points: 6
#     Node 1, Type 0, BuildingBlock: BETDEL_clean_sbu_0, # of connection points: 6
#     Node 2, Type 0, BuildingBlock: BETDEL_clean_sbu_0, # of connection points: 6
#     Node 3, Type 0, BuildingBlock: BETDEL_clean_sbu_0, # of connection points: 6
#     Node 4, Type 0, BuildingBlock: BETDEL_clean_sbu_0, # of connection points: 6
#     Node 5, Type 0, BuildingBlock: BETDEL_clean_sbu_0, # of connection points: 6
#     Node 6, Type 0, BuildingBlock: BETDEL_clean_sbu_0, # of connection points: 6
#     Node 7, Type 0, BuildingBlock: BETDEL_clean_sbu_0, # of connection points: 6
#     Node 8, Type 0, BuildingBlock: BETDEL_clean_sbu_0, # of connection points: 6
#     Node 9, Type 0, BuildingBlock: BETDEL_clean_sbu_0, # of connection points: 6
#     Node 10, Type 0, BuildingBlock: BETDEL_clean_sbu_0, # of connection points: 6
#     Node 11, Type 0, BuildingBlock: BETDEL_clean_sbu_0, # of connection points: 6
#     Node 12, Type 0, BuildingBlock: BETDEL_clean_sbu_0, # of connection points: 6
#     Node 13, Type 0, BuildingBlock: BETDEL_clean_sbu_0, # of connection points: 6
#     Node 14, Type 0, BuildingBlock: BETDEL_clean_sbu_0, # of connection points: 6
#     Node 15, Type 0, BuildingBlock: BETDEL_clean_sbu_0, # of connection points: 6
#     Node 16, Type 0, BuildingBlock: BETDEL_clean_sbu_0, # of connection points: 6
#     Node 17, Type 0, BuildingBlock: BETDEL_clean_sbu_0, # of connection points: 6
#     Node 18, Type 0, BuildingBlock: BETDEL_clean_sbu_0, # of connection points: 6
#     Node 19, Type 0, BuildingBlock: BETDEL_clean_sbu_0, # of connection points: 6
#     Node 20, Type 0, BuildingBlock: BETDEL_clean_sbu_0, # of connection points: 6
#     Node 21, Type 0, BuildingBlock: BETDEL_clean_sbu_0, # of connection points: 6
#     Node 22, Type 0, BuildingBlock: BETDEL_clean_sbu_0, # of connection points: 6
#     Node 23, Type 0, BuildingBlock: BETDEL_clean_sbu_0, # of connection points: 6
#     Node 24, Type 0, BuildingBlock: BETDEL_clean_sbu_0, # of connection points: 6
#     Node 25, Type 0, BuildingBlock: BETDEL_clean_sbu_0, # of connection points: 6
#     Node 26, Type 0, BuildingBlock: BETDEL_clean_sbu_0, # of connection points: 6
#     Node 27, Type 0, BuildingBlock: BETDEL_clean_sbu_0, # of connection points: 6
#     Node 28, Type 0, BuildingBlock: BETDEL_clean_sbu_0, # of connection points: 6
#     Node 29, Type 0, BuildingBlock: BETDEL_clean_sbu_0, # of connection points: 6
#     Node 30, Type 0, BuildingBlock: BETDEL_clean_sbu_0, # of connection points: 6
#     Node 31, Type 0, BuildingBlock: BETDEL_clean_sbu_0, # of connection points: 6
#     Node 32, Type 0, BuildingBlock: BETDEL_clean_sbu_0, # of connection points: 6
#     Node 33, Type 0, BuildingBlock: BETDEL_clean_sbu_0, # of connection points: 6
#     Node 34, Type 0, BuildingBlock: BETDEL_clean_sbu_0, # of connection points: 6
#     Node 35, Type 0, BuildingBlock: BETDEL_clean_sbu_0, # of connection points: 6
#     Node 36, Type 0, BuildingBlock: BETDEL_clean_sbu_0, # of connection points: 6
#     Node 37, Type 0, BuildingBlock: BETDEL_clean_sbu_0, # of connection points: 6
#     Node 38, Type 0, BuildingBlock: BETDEL_clean_sbu_0, # of connection points: 6
#     Node 39, Type 0, BuildingBlock: BETDEL_clean_sbu_0, # of connection points: 6
#     Node 40, Type 0, BuildingBlock: BETDEL_clean_sbu_0, # of connection points: 6
#     Node 41, Type 0, BuildingBlock: BETDEL_clean_sbu_0, # of connection points: 6
#     Node 42, Type 0, BuildingBlock: BETDEL_clean_sbu_0, # of connection points: 6
#     Node 43, Type 0, BuildingBlock: BETDEL_clean_sbu_0, # of connection points: 6
#     Node 44, Type 0, BuildingBlock: BETDEL_clean_sbu_0, # of connection points: 6
#     Node 45, Type 0, BuildingBlock: BETDEL_clean_sbu_0, # of connection points: 6
#     Node 46, Type 0, BuildingBlock: BETDEL_clean_sbu_0, # of connection points: 6
#     Node 47, Type 0, BuildingBlock: BETDEL_clean_sbu_0, # of connection points: 6
#     Edge 48, Type (0, 0), BuildingBlock: MIFKUJ_clean_linker_0, # of connection points: 2
#     Edge 49, Type (0, 0), BuildingBlock: MIFKUJ_clean_linker_0, # of connection points: 2
#     Edge 50, Type (0, 0), BuildingBlock: MIFKUJ_clean_linker_0, # of connection points: 2
#     Edge 51, Type (0, 0), BuildingBlock: MIFKUJ_clean_linker_0, # of connection points: 2
#     Edge 52, Type (0, 0), BuildingBlock: MIFKUJ_clean_linker_0, # of connection points: 2
#     Edge 53, Type (0, 0), BuildingBlock: MIFKUJ_clean_linker_0, # of connection points: 2
#     Edge 54, Type (0, 0), BuildingBlock: MIFKUJ_clean_linker_0, # of connection points: 2
#     Edge 55, Type (0, 0), BuildingBlock: MIFKUJ_clean_linker_0, # of connection points: 2
#     Edge 56, Type (0, 0), BuildingBlock: MIFKUJ_clean_linker_0, # of connection points: 2
#     Edge 57, Type (0, 0), BuildingBlock: MIFKUJ_clean_linker_0, # of connection points: 2
#     Edge 58, Type (0, 0), BuildingBlock: MIFKUJ_clean_linker_0, # of connection points: 2
#     Edge 59, Type (0, 0), BuildingBlock: MIFKUJ_clean_linker_0, # of connection points: 2
#     Edge 60, Type (0, 0), BuildingBlock: MIFKUJ_clean_linker_0, # of connection points: 2
#     Edge 61, Type (0, 0), BuildingBlock: MIFKUJ_clean_linker_0, # of connection points: 2
#     Edge 62, Type (0, 0), BuildingBlock: MIFKUJ_clean_linker_0, # of connection points: 2
#     Edge 63, Type (0, 0), BuildingBlock: MIFKUJ_clean_linker_0, # of connection points: 2
#     Edge 64, Type (0, 0), BuildingBlock: MIFKUJ_clean_linker_0, # of connection points: 2
#     Edge 65, Type (0, 0), BuildingBlock: MIFKUJ_clean_linker_0, # of connection points: 2
#     Edge 66, Type (0, 0), BuildingBlock: MIFKUJ_clean_linker_0, # of connection points: 2
#     Edge 67, Type (0, 0), BuildingBlock: MIFKUJ_clean_linker_0, # of connection points: 2
#     Edge 68, Type (0, 0), BuildingBlock: MIFKUJ_clean_linker_0, # of connection points: 2
#     Edge 69, Type (0, 0), BuildingBlock: MIFKUJ_clean_linker_0, # of connection points: 2
#     Edge 70, Type (0, 0), BuildingBlock: MIFKUJ_clean_linker_0, # of connection points: 2
#     Edge 71, Type (0, 0), BuildingBlock: MIFKUJ_clean_linker_0, # of connection points: 2
#     Edge 72, Type (0, 0), BuildingBlock: MIFKUJ_clean_linker_0, # of connection points: 2
#     Edge 73, Type (0, 0), BuildingBlock: MIFKUJ_clean_linker_0, # of connection points: 2
#     Edge 74, Type (0, 0), BuildingBlock: MIFKUJ_clean_linker_0, # of connection points: 2
#     Edge 75, Type (0, 0), BuildingBlock: MIFKUJ_clean_linker_0, # of connection points: 2
#     Edge 76, Type (0, 0), BuildingBlock: MIFKUJ_clean_linker_0, # of connection points: 2
#     Edge 77, Type (0, 0), BuildingBlock: MIFKUJ_clean_linker_0, # of connection points: 2
#     Edge 78, Type (0, 0), BuildingBlock: MIFKUJ_clean_linker_0, # of connection points: 2
#     Edge 79, Type (0, 0), BuildingBlock: MIFKUJ_clean_linker_0, # of connection points: 2
#     Edge 80, Type (0, 0), BuildingBlock: MIFKUJ_clean_linker_0, # of connection points: 2
#     Edge 81, Type (0, 0), BuildingBlock: MIFKUJ_clean_linker_0, # of connection points: 2
#     Edge 82, Type (0, 0), BuildingBlock: MIFKUJ_clean_linker_0, # of connection points: 2
#     Edge 83, Type (0, 0), BuildingBlock: MIFKUJ_clean_linker_0, # of connection points: 2
#     Edge 84, Type (0, 0), BuildingBlock: MIFKUJ_clean_linker_0, # of connection points: 2
#     Edge 85, Type (0, 0), BuildingBlock: MIFKUJ_clean_linker_0, # of connection points: 2
#     Edge 86, Type (0, 0), BuildingBlock: MIFKUJ_clean_linker_0, # of connection points: 2
#     Edge 87, Type (0, 0), BuildingBlock: MIFKUJ_clean_linker_0, # of connection points: 2
#     Edge 88, Type (0, 0), BuildingBlock: MIFKUJ_clean_linker_0, # of connection points: 2
#     Edge 89, Type (0, 0), BuildingBlock: MIFKUJ_clean_linker_0, # of connection points: 2
#     Edge 90, Type (0, 0), BuildingBlock: MIFKUJ_clean_linker_0, # of connection points: 2
#     Edge 91, Type (0, 0), BuildingBlock: MIFKUJ_clean_linker_0, # of connection points: 2
#     Edge 92, Type (0, 0), BuildingBlock: MIFKUJ_clean_linker_0, # of connection points: 2
#     Edge 93, Type (0, 0), BuildingBlock: MIFKUJ_clean_linker_0, # of connection points: 2
#     Edge 94, Type (0, 0), BuildingBlock: MIFKUJ_clean_linker_0, # of connection points: 2
#     Edge 95, Type (0, 0), BuildingBlock: MIFKUJ_clean_linker_0, # of connection points: 2
#     Edge 96, Type (0, 0), BuildingBlock: MIFKUJ_clean_linker_0, # of connection points: 2
#     Edge 97, Type (0, 0), BuildingBlock: MIFKUJ_clean_linker_0, # of connection points: 2
#     Edge 98, Type (0, 0), BuildingBlock: MIFKUJ_clean_linker_0, # of connection points: 2
#     Edge 99, Type (0, 0), BuildingBlock: MIFKUJ_clean_linker_0, # of connection points: 2
#     Edge 100, Type (0, 0), BuildingBlock: MIFKUJ_clean_linker_0, # of connection points: 2
#     Edge 101, Type (0, 0), BuildingBlock: MIFKUJ_clean_linker_0, # of connection points: 2
#     Edge 102, Type (0, 0), BuildingBlock: MIFKUJ_clean_linker_0, # of connection points: 2
#     Edge 103, Type (0, 0), BuildingBlock: MIFKUJ_clean_linker_0, # of connection points: 2
#     Edge 104, Type (0, 0), BuildingBlock: MIFKUJ_clean_linker_0, # of connection points: 2
#     Edge 105, Type (0, 0), BuildingBlock: MIFKUJ_clean_linker_0, # of connection points: 2
#     Edge 106, Type (0, 0), BuildingBlock: MIFKUJ_clean_linker_0, # of connection points: 2
#     Edge 107, Type (0, 0), BuildingBlock: MIFKUJ_clean_linker_0, # of connection points: 2
#     Edge 108, Type (0, 0), BuildingBlock: MIFKUJ_clean_linker_0, # of connection points: 2
#     Edge 109, Type (0, 0), BuildingBlock: MIFKUJ_clean_linker_0, # of connection points: 2
#     Edge 110, Type (0, 0), BuildingBlock: MIFKUJ_clean_linker_0, # of connection points: 2
#     Edge 111, Type (0, 0), BuildingBlock: MIFKUJ_clean_linker_0, # of connection points: 2
#     Edge 112, Type (0, 0), BuildingBlock: MIFKUJ_clean_linker_0, # of connection points: 2
#     Edge 113, Type (0, 0), BuildingBlock: MIFKUJ_clean_linker_0, # of connection points: 2
#     Edge 114, Type (0, 0), BuildingBlock: MIFKUJ_clean_linker_0, # of connection points: 2
#     Edge 115, Type (0, 0), BuildingBlock: MIFKUJ_clean_linker_0, # of connection points: 2
#     Edge 116, Type (0, 0), BuildingBlock: MIFKUJ_clean_linker_0, # of connection points: 2
#     Edge 117, Type (0, 0), BuildingBlock: MIFKUJ_clean_linker_0, # of connection points: 2
#     Edge 118, Type (0, 0), BuildingBlock: MIFKUJ_clean_linker_0, # of connection points: 2
#     Edge 119, Type (0, 0), BuildingBlock: MIFKUJ_clean_linker_0, # of connection points: 2
#     Edge 120, Type (0, 0), BuildingBlock: MIFKUJ_clean_linker_0, # of connection points: 2
#     Edge 121, Type (0, 0), BuildingBlock: MIFKUJ_clean_linker_0, # of connection points: 2
#     Edge 122, Type (0, 0), BuildingBlock: MIFKUJ_clean_linker_0, # of connection points: 2
#     Edge 123, Type (0, 0), BuildingBlock: MIFKUJ_clean_linker_0, # of connection points: 2
#     Edge 124, Type (0, 0), BuildingBlock: MIFKUJ_clean_linker_0, # of connection points: 2
#     Edge 125, Type (0, 0), BuildingBlock: MIFKUJ_clean_linker_0, # of connection points: 2
#     Edge 126, Type (0, 0), BuildingBlock: MIFKUJ_clean_linker_0, # of connection points: 2
#     Edge 127, Type (0, 0), BuildingBlock: MIFKUJ_clean_linker_0, # of connection points: 2
#     Edge 128, Type (0, 0), BuildingBlock: MIFKUJ_clean_linker_0, # of connection points: 2
#     Edge 129, Type (0, 0), BuildingBlock: MIFKUJ_clean_linker_0, # of connection points: 2
#     Edge 130, Type (0, 0), BuildingBlock: MIFKUJ_clean_linker_0, # of connection points: 2
#     Edge 131, Type (0, 0), BuildingBlock: MIFKUJ_clean_linker_0, # of connection points: 2
#     Edge 132, Type (0, 0), BuildingBlock: MIFKUJ_clean_linker_0, # of connection points: 2
#     Edge 133, Type (0, 0), BuildingBlock: MIFKUJ_clean_linker_0, # of connection points: 2
#     Edge 134, Type (0, 0), BuildingBlock: MIFKUJ_clean_linker_0, # of connection points: 2
#     Edge 135, Type (0, 0), BuildingBlock: MIFKUJ_clean_linker_0, # of connection points: 2
#     Edge 136, Type (0, 0), BuildingBlock: MIFKUJ_clean_linker_0, # of connection points: 2
#     Edge 137, Type (0, 0), BuildingBlock: MIFKUJ_clean_linker_0, # of connection points: 2
#     Edge 138, Type (0, 0), BuildingBlock: MIFKUJ_clean_linker_0, # of connection points: 2
#     Edge 139, Type (0, 0), BuildingBlock: MIFKUJ_clean_linker_0, # of connection points: 2
#     Edge 140, Type (0, 0), BuildingBlock: MIFKUJ_clean_linker_0, # of connection points: 2
#     Edge 141, Type (0, 0), BuildingBlock: MIFKUJ_clean_linker_0, # of connection points: 2
#     Edge 142, Type (0, 0), BuildingBlock: MIFKUJ_clean_linker_0, # of connection points: 2
#     Edge 143, Type (0, 0), BuildingBlock: MIFKUJ_clean_linker_0, # of connection points: 2
#     Edge 144, Type (0, 0), BuildingBlock: MIFKUJ_clean_linker_0, # of connection points: 2
#     Edge 145, Type (0, 0), BuildingBlock: MIFKUJ_clean_linker_0, # of connection points: 2
#     Edge 146, Type (0, 0), BuildingBlock: MIFKUJ_clean_linker_0, # of connection points: 2
#     Edge 147, Type (0, 0), BuildingBlock: MIFKUJ_clean_linker_0, # of connection points: 2
#     Edge 148, Type (0, 0), BuildingBlock: MIFKUJ_clean_linker_0, # of connection points: 2
#     Edge 149, Type (0, 0), BuildingBlock: MIFKUJ_clean_linker_0, # of connection points: 2
#     Edge 150, Type (0, 0), BuildingBlock: MIFKUJ_clean_linker_0, # of connection points: 2
#     Edge 151, Type (0, 0), BuildingBlock: MIFKUJ_clean_linker_0, # of connection points: 2
#     Edge 152, Type (0, 0), BuildingBlock: MIFKUJ_clean_linker_0, # of connection points: 2
#     Edge 153, Type (0, 0), BuildingBlock: MIFKUJ_clean_linker_0, # of connection points: 2
#     Edge 154, Type (0, 0), BuildingBlock: MIFKUJ_clean_linker_0, # of connection points: 2
#     Edge 155, Type (0, 0), BuildingBlock: MIFKUJ_clean_linker_0, # of connection points: 2
#     Edge 156, Type (0, 0), BuildingBlock: MIFKUJ_clean_linker_0, # of connection points: 2
#     Edge 157, Type (0, 0), BuildingBlock: MIFKUJ_clean_linker_0, # of connection points: 2
#     Edge 158, Type (0, 0), BuildingBlock: MIFKUJ_clean_linker_0, # of connection points: 2
#     Edge 159, Type (0, 0), BuildingBlock: MIFKUJ_clean_linker_0, # of connection points: 2
#     Edge 160, Type (0, 0), BuildingBlock: MIFKUJ_clean_linker_0, # of connection points: 2
#     Edge 161, Type (0, 0), BuildingBlock: MIFKUJ_clean_linker_0, # of connection points: 2
#     Edge 162, Type (0, 0), BuildingBlock: MIFKUJ_clean_linker_0, # of connection points: 2
#     Edge 163, Type (0, 0), BuildingBlock: MIFKUJ_clean_linker_0, # of connection points: 2
#     Edge 164, Type (0, 0), BuildingBlock: MIFKUJ_clean_linker_0, # of connection points: 2
#     Edge 165, Type (0, 0), BuildingBlock: MIFKUJ_clean_linker_0, # of connection points: 2
#     Edge 166, Type (0, 0), BuildingBlock: MIFKUJ_clean_linker_0, # of connection points: 2
#     Edge 167, Type (0, 0), BuildingBlock: MIFKUJ_clean_linker_0, # of connection points: 2
#     Edge 168, Type (0, 0), BuildingBlock: MIFKUJ_clean_linker_0, # of connection points: 2
#     Edge 169, Type (0, 0), BuildingBlock: MIFKUJ_clean_linker_0, # of connection points: 2
#     Edge 170, Type (0, 0), BuildingBlock: MIFKUJ_clean_linker_0, # of connection points: 2
#     Edge 171, Type (0, 0), BuildingBlock: MIFKUJ_clean_linker_0, # of connection points: 2
#     Edge 172, Type (0, 0), BuildingBlock: MIFKUJ_clean_linker_0, # of connection points: 2
#     Edge 173, Type (0, 0), BuildingBlock: MIFKUJ_clean_linker_0, # of connection points: 2
#     Edge 174, Type (0, 0), BuildingBlock: MIFKUJ_clean_linker_0, # of connection points: 2
#     Edge 175, Type (0, 0), BuildingBlock: MIFKUJ_clean_linker_0, # of connection points: 2
#     Edge 176, Type (0, 0), BuildingBlock: MIFKUJ_clean_linker_0, # of connection points: 2
#     Edge 177, Type (0, 0), BuildingBlock: MIFKUJ_clean_linker_0, # of connection points: 2
#     Edge 178, Type (0, 0), BuildingBlock: MIFKUJ_clean_linker_0, # of connection points: 2
#     Edge 179, Type (0, 0), BuildingBlock: MIFKUJ_clean_linker_0, # of connection points: 2
#     Edge 180, Type (0, 0), BuildingBlock: MIFKUJ_clean_linker_0, # of connection points: 2
#     Edge 181, Type (0, 0), BuildingBlock: MIFKUJ_clean_linker_0, # of connection points: 2
#     Edge 182, Type (0, 0), BuildingBlock: MIFKUJ_clean_linker_0, # of connection points: 2
#     Edge 183, Type (0, 0), BuildingBlock: MIFKUJ_clean_linker_0, # of connection points: 2
#     Edge 184, Type (0, 0), BuildingBlock: MIFKUJ_clean_linker_0, # of connection points: 2
#     Edge 185, Type (0, 0), BuildingBlock: MIFKUJ_clean_linker_0, # of connection points: 2
#     Edge 186, Type (0, 0), BuildingBlock: MIFKUJ_clean_linker_0, # of connection points: 2
#     Edge 187, Type (0, 0), BuildingBlock: MIFKUJ_clean_linker_0, # of connection points: 2
#     Edge 188, Type (0, 0), BuildingBlock: MIFKUJ_clean_linker_0, # of connection points: 2
#     Edge 189, Type (0, 0), BuildingBlock: MIFKUJ_clean_linker_0, # of connection points: 2
#     Edge 190, Type (0, 0), BuildingBlock: MIFKUJ_clean_linker_0, # of connection points: 2
#     Edge 191, Type (0, 0), BuildingBlock: MIFKUJ_clean_linker_0, # of connection points: 2
# Relax obj value: 0.427
# Max RMSD: 0.318
# Mean RMSD: 0.283
data_MOF--net-lcs-e--node1-BETDEL_clean_sbu_0--edge1-MIFKUJ_clean_linker_0
_symmetry_space_group_name_H-M    P1
_symmetry_Int_Tables_number       1
_symmetry_cell_setting            triclinic
loop_
_symmetry_equiv_pos_as_xyz
'x, y, z'
_cell_length_a     73.711329
_cell_length_b     75.341818
_cell_length_c     73.175022
_cell_angle_alpha  88.926766
_cell_angle_beta   89.905826
_cell_angle_gamma 88.345117
loop_
_atom_site_label
_atom_site_type_symbol
_atom_site_fract_x
_atom_site_fract_y
_atom_site_fract_z
_atom_type_partial_charge
Dy0 Dy 0.00441 0.36259 0.26858 0.0
C1 C 0.03927 0.41521 0.31368 0.0
C2 C -0.00042 0.32802 0.25904 0.0
Dy3 Dy 0.02339 0.38976 0.29429 0.0
O4 O 0.98693 0.34056 0.25818 0.0
O5 O 0.01484 0.33484 0.26364 0.0
O6 O 0.98756 0.38575 0.25556 0.0
O7 O 0.01288 0.38964 0.26708 0.0
C8 C -0.00075 0.39756 0.26049 0.0
C9 C 0.03199 0.35579 0.29979 0.0
O10 O 0.99475 0.39134 0.3043 0.0
O11 O 0.98594 0.36444 0.29256 0.0
O12 O 0.03279 0.40066 0.32049 0.0
O13 O 0.03542 0.41659 0.29637 0.0
O14 O 0.04299 0.36842 0.30312 0.0
O15 O 0.01644 0.36195 0.2957 0.0
O16 O 0.03205 0.36427 0.2554 0.0
O17 O 0.0444 0.38675 0.27282 0.0
C18 C 0.98357 0.3779 0.30377 0.0
C19 C 0.04547 0.37486 0.25976 0.0
Dy20 Dy 0.86074 0.7531 0.54976 0.0
C21 C 0.86187 0.80661 0.49681 0.0
C22 C 0.86384 0.72816 0.5769 0.0
Dy23 Dy 0.86407 0.77845 0.51951 0.0
O24 O 0.85194 0.74109 0.57627 0.0
O25 O 0.87185 0.72733 0.56106 0.0
O26 O 0.85538 0.77408 0.56973 0.0
O27 O 0.84542 0.77761 0.54276 0.0
C28 C 0.84706 0.78471 0.55823 0.0
C29 C 0.89224 0.75557 0.51477 0.0
O30 O 0.88017 0.79207 0.54033 0.0
O31 O 0.88631 0.76652 0.55722 0.0
O32 O 0.85677 0.79084 0.49275 0.0
O33 O 0.86774 0.80716 0.51348 0.0
O34 O 0.8861 0.76662 0.50241 0.0
O35 O 0.88067 0.75466 0.52764 0.0
O36 O 0.83577 0.74542 0.53414 0.0
O37 O 0.83655 0.76836 0.51291 0.0
C38 C 0.88926 0.78336 0.5533 0.0
C39 C 0.828 0.75512 0.52084 0.0
Dy40 Dy 0.45415 0.60523 0.75593 0.0
C41 C 0.50815 0.61162 0.8113 0.0
C42 C 0.42879 0.5975 0.73059 0.0
Dy43 Dy 0.48527 0.60547 0.78338 0.0
O44 O 0.42793 0.61071 0.74168 0.0
O45 O 0.44458 0.58939 0.73209 0.0
O46 O 0.434 0.61468 0.77645 0.0
O47 O 0.46129 0.62208 0.77841 0.0
C48 C 0.44619 0.62183 0.78647 0.0
C49 C 0.49029 0.58138 0.75618 0.0
O50 O 0.46636 0.58828 0.79923 0.0
O51 O 0.44639 0.58337 0.7753 0.0
O52 O 0.51231 0.61255 0.79409 0.0
O53 O 0.49161 0.60644 0.81337 0.0
O54 O 0.50308 0.59014 0.76376 0.0
O55 O 0.47583 0.58641 0.76382 0.0
O56 O 0.46955 0.62867 0.74445 0.0
O57 O 0.48754 0.63229 0.76999 0.0
C58 C 0.45201 0.58062 0.79235 0.0
C59 C 0.48098 0.63817 0.75411 0.0
Dy60 Dy 0.61886 0.21518 0.01686 0.0
C61 C 0.62044 0.26245 0.07728 0.0
C62 C 0.62651 0.19302 0.98897 0.0
Dy63 Dy 0.62005 0.24229 0.04703 0.0
O64 O 0.61263 0.19192 -0.00022 0.0
O65 O 0.63475 0.20774 0.99196 0.0
O66 O 0.60949 0.19376 0.03539 0.0
O67 O 0.60234 0.22062 0.04068 0.0
C68 C 0.60222 0.20484 0.04682 0.0
C69 C 0.6422 0.24872 0.01824 0.0
O70 O 0.63593 0.22 0.06033 0.0
O71 O 0.64252 0.20496 0.03366 0.0
O72 O 0.63208 0.26349 0.06408 0.0
O73 O 0.60864 0.25062 0.07388 0.0
O74 O 0.63248 0.26083 0.02646 0.0
O75 O 0.63851 0.23405 0.02546 0.0
O76 O 0.59546 0.23381 0.00835 0.0
O77 O 0.5938 0.25107 0.03444 0.0
C78 C 0.64479 0.2074 0.05137 0.0
C79 C 0.58694 0.24576 0.01885 0.0
Dy80 Dy -0.00081 0.61854 0.21798 0.0
C81 C 0.0607 0.61496 0.26792 0.0
C82 C 0.97345 0.62648 0.19204 0.0
Dy83 Dy 0.03027 0.6207 0.24712 0.0
O84 O 0.98355 0.61208 0.19282 0.0
O85 O 0.97595 0.63555 0.20679 0.0
O86 O 0.0173 0.6038 0.19884 0.0
O87 O 0.02179 0.60178 0.22715 0.0
C88 C 0.02809 0.59791 0.21172 0.0
C89 C 0.00374 0.64657 0.2494 0.0
O90 O 0.04358 0.63513 0.22371 0.0
O91 O 0.01803 0.63783 0.20495 0.0
O92 O 0.04435 0.6172 0.27432 0.0
O93 O 0.06049 0.61674 0.25022 0.0
O94 O 0.01286 0.64007 0.2633 0.0
O95 O 0.00985 0.63886 0.23553 0.0
O96 O 0.98907 0.59822 0.23905 0.0
O97 O 0.01609 0.59587 0.25545 0.0
C98 C 0.03525 0.64102 0.20859 0.0
C99 C -0.00011 0.58976 0.2513 0.0
Dy100 Dy 0.60049 0.78861 0.50912 0.0
C101 C 0.60191 0.73854 0.44949 0.0
C102 C 0.6022 0.8164 0.53166 0.0
Dy103 Dy 0.60764 0.75908 0.4784 0.0
O104 O 0.60007 0.81734 0.51414 0.0
O105 O 0.60374 0.79983 0.53732 0.0
O106 O 0.57822 0.80399 0.49318 0.0
O107 O 0.59057 0.7819 0.48272 0.0
C108 C 0.57927 0.79414 0.47889 0.0
C109 C 0.63467 0.75655 0.50318 0.0
O110 O 0.61949 0.78357 0.46667 0.0
O111 O 0.62566 0.79574 0.49481 0.0
O112 O 0.61107 0.75306 0.44878 0.0
O113 O 0.59638 0.73509 0.46599 0.0
O114 O 0.63233 0.74548 0.49004 0.0
O115 O 0.6206 0.76679 0.50379 0.0
O116 O 0.58117 0.76853 0.51909 0.0
O117 O 0.58176 0.75204 0.49232 0.0
C118 C 0.62725 0.79554 0.47688 0.0
C119 C 0.57403 0.75703 0.50786 0.0
Dy120 Dy 0.49807 0.36369 0.7148 0.0
C121 C 0.43856 0.36282 0.76541 0.0
C122 C 0.5268 0.36096 0.69156 0.0
Dy123 Dy 0.46814 0.36075 0.74315 0.0
O124 O 0.51432 0.37342 0.69103 0.0
O125 O 0.52417 0.35047 0.7056 0.0
O126 O 0.47908 0.37544 0.69419 0.0
O127 O 0.47463 0.38052 0.72219 0.0
C128 C 0.4682 0.38235 0.70622 0.0
C129 C 0.49529 0.3352 0.74688 0.0
O130 O 0.45506 0.3471 0.71974 0.0
O131 O 0.48183 0.34177 0.70361 0.0
O132 O 0.4553 0.36327 0.77074 0.0
O133 O 0.43791 0.36083 0.74782 0.0
O134 O 0.48656 0.34247 0.76033 0.0
O135 O 0.48884 0.34236 0.73263 0.0
O136 O 0.50816 0.38218 0.73613 0.0
O137 O 0.48057 0.38633 0.75067 0.0
C138 C 0.46421 0.33959 0.70616 0.0
C139 C 0.49734 0.39126 0.74731 0.0
Dy140 Dy 0.8644 0.24821 0.96736 0.0
C141 C 0.85382 0.1905 0.02012 0.0
C142 C 0.87547 0.27244 0.9416 0.0
Dy143 Dy 0.86481 0.21774 0.99791 0.0
O144 O 0.85938 0.26589 0.94249 0.0
O145 O 0.88503 0.26662 0.95547 0.0
O146 O 0.83887 0.23776 0.95536 0.0
O147 O 0.85697 0.22066 0.96947 0.0
C148 C 0.84151 0.22187 0.96227 0.0
C149 C 0.88831 0.24346 0.00383 0.0
O150 O 0.88212 0.20447 0.97637 0.0
O151 O 0.88649 0.22949 0.95786 0.0
O152 O 0.87062 0.19466 0.01736 0.0
O153 O 0.84313 0.20121 0.01078 0.0
O154 O 0.88958 0.22779 0.01149 0.0
O155 O 0.87324 0.24519 0.99568 0.0
O156 O 0.84366 0.2598 0.98637 0.0
O157 O 0.84006 0.23422 0.00457 0.0
C158 C 0.89065 0.21292 0.9629 0.0
C159 C 0.83476 0.25033 -0.00118 0.0
Dy160 Dy 0.29657 0.01163 0.36028 0.0
C161 C 0.25474 0.07568 0.35807 0.0
C162 C 0.31766 0.98213 0.35581 0.0
Dy163 Dy 0.2721 0.04372 0.35682 0.0
O164 O 0.31802 0.99238 0.36984 0.0
O165 O 0.30356 0.98648 0.34587 0.0
O166 O 0.31989 0.02735 0.36861 0.0
O167 O 0.29333 0.0357 0.37617 0.0
C168 C 0.30987 0.03975 0.37586 0.0
C169 C 0.26315 0.01707 0.33446 0.0
O170 O 0.29385 0.05275 0.33819 0.0
O171 O 0.30911 0.02552 0.3361 0.0
O172 O 0.24731 0.06102 0.35357 0.0
O173 O 0.27192 0.07298 0.36116 0.0
O174 O 0.25143 0.02728 0.34274 0.0
O175 O 0.27863 0.02173 0.33902 0.0
O176 O 0.27601 0.00521 0.38232 0.0
O177 O 0.26353 0.03363 0.38402 0.0
C178 C 0.30679 0.04247 0.33117 0.0
C179 C 0.26587 0.0174 0.39085 0.0
Dy180 Dy 0.22004 0.01631 0.61492 0.0
C181 C 0.26171 0.07812 0.61431 0.0
C182 C 0.19618 0.99053 0.62294 0.0
Dy183 Dy 0.24301 0.04857 0.62037 0.0
O184 O 0.19777 0.99836 0.60714 0.0
O185 O 0.2093 0.99525 0.63348 0.0
O186 O 0.21102 0.02602 0.58718 0.0
O187 O 0.21751 0.04394 0.6075 0.0
C188 C 0.21403 0.04247 0.59086 0.0
C189 C 0.24708 0.0248 0.64682 0.0
O190 O 0.21919 0.05859 0.63629 0.0
O191 O 0.20297 0.03269 0.63441 0.0
O192 O 0.26894 0.06305 0.61987 0.0
O193 O 0.24427 0.07711 0.6127 0.0
O194 O 0.24957 0.04161 0.64886 0.0
O195 O 0.245 0.02085 0.63013 0.0
O196 O 0.24218 0.00887 0.59516 0.0
O197 O 0.2533 0.03737 0.59408 0.0
C198 C 0.20505 0.04894 0.64059 0.0
C199 C 0.25175 0.02145 0.58698 0.0
Dy200 Dy 0.24688 0.97712 0.86619 0.0
C201 C 0.18269 0.02173 0.86132 0.0
C202 C 0.27454 0.95343 0.87465 0.0
Dy203 Dy 0.2123 0.00097 0.86997 0.0
O204 O 0.26865 0.95715 0.85829 0.0
O205 O 0.2662 0.96382 0.88611 0.0
O206 O 0.23821 0.96803 0.83855 0.0
O207 O 0.21891 0.97538 0.85822 0.0
C208 C 0.22111 0.97112 0.84183 0.0
C209 C 0.23675 0.00584 0.89614 0.0
O210 O 0.20212 0.97787 0.88626 0.0
O211 O 0.22954 0.96175 0.88603 0.0
O212 O 0.19881 0.02758 0.8642 0.0
O213 O 0.1826 0.00462 0.86384 0.0
O214 O 0.21945 0.0091 0.898 0.0
O215 O 0.24043 0.00216 0.87965 0.0
O216 O 0.25457 -0.00079 0.84694 0.0
O217 O 0.22471 0.00922 0.84356 0.0
C218 C 0.2125 0.96409 0.89167 0.0
C219 C 0.24171 0.00837 0.83779 0.0
Dy220 Dy 0.24702 0.95831 0.11417 0.0
C221 C 0.30595 0.00731 0.10705 0.0
C222 C 0.22041 0.93492 0.10819 0.0
Dy223 Dy 0.27722 0.98584 0.10634 0.0
O224 O 0.232 0.9339 0.12146 0.0
O225 O 0.22218 0.94989 0.09929 0.0
O226 O 0.26202 0.94114 0.13534 0.0
O227 O 0.27344 0.96347 0.12396 0.0
C228 C 0.27635 0.95078 0.13502 0.0
C229 C 0.24616 0.99152 0.0871 0.0
O230 O 0.28762 0.96471 0.08783 0.0
O231 O 0.26427 0.94481 0.09294 0.0
O232 O 0.28937 0.01258 0.1038 0.0
O233 O 0.30689 0.99011 0.10851 0.0
O234 O 0.25553 0.00382 0.09446 0.0
O235 O 0.2536 0.97675 0.09146 0.0
O236 O 0.23926 0.97958 0.13426 0.0
O237 O 0.26813 0.99117 0.13462 0.0
C238 C 0.27975 0.94937 0.08503 0.0
C239 C 0.25201 0.98899 0.14214 0.0
Dy240 Dy 0.36369 0.25364 0.0505 0.0
C241 C 0.3606 0.3104 -0.0004 0.0
C242 C 0.36827 0.2267 0.0751 0.0
Dy243 Dy 0.36494 0.28094 0.01977 0.0
O244 O 0.35442 0.23772 0.07447 0.0
O245 O 0.37816 0.22898 0.06056 0.0
O246 O 0.35754 0.27502 0.07062 0.0
O247 O 0.34782 0.27747 0.04362 0.0
C248 C 0.34903 0.2851 0.0587 0.0
C249 C 0.39335 0.2582 0.01682 0.0
O250 O 0.38259 0.29331 0.04085 0.0
O251 O 0.38808 0.26821 0.05895 0.0
O252 O 0.36063 0.29452 0.99292 0.0
O253 O 0.36265 0.31013 0.0172 0.0
O254 O 0.39037 0.27182 0.00608 0.0
O255 O 0.37819 0.25504 0.02452 0.0
O256 O 0.33742 0.24718 0.03568 0.0
O257 O 0.33831 0.26912 0.01291 0.0
C258 C 0.39118 0.2849 0.05448 0.0
C259 C 0.32969 0.25632 0.02173 0.0
Dy260 Dy 0.99643 0.863 0.21508 0.0
C261 C 0.93683 0.86081 0.26457 0.0
C262 C 0.02529 0.86022 0.19184 0.0
Dy263 Dy 0.96717 0.85894 0.24354 0.0
O264 O 0.01255 0.87244 0.19102 0.0
O265 O 0.02278 0.85033 0.20632 0.0
O266 O 0.97592 0.87325 0.19467 0.0
O267 O 0.97233 0.8788 0.22257 0.0
C268 C 0.96516 0.8799 0.20694 0.0
C269 C 0.99618 0.83656 0.24902 0.0
O270 O 0.95592 0.84242 0.22106 0.0
O271 O 0.98253 0.83973 0.20415 0.0
O272 O 0.95253 0.85479 0.27018 0.0
O273 O 0.93761 0.8651 0.24735 0.0
O274 O 0.98729 0.84462 0.26192 0.0
O275 O 0.98925 0.84156 0.23403 0.0
O276 O 0.00618 0.88219 0.23575 0.0
O277 O 0.97906 0.88457 0.25158 0.0
C278 C 0.96548 0.83578 0.20728 0.0
C279 C 0.99536 0.89045 0.24753 0.0
Dy280 Dy 0.12104 0.72 0.51988 0.0
C281 C 0.1163 0.75749 0.58615 0.0
C282 C 0.12903 0.69724 0.49243 0.0
Dy283 Dy 0.12326 0.74148 0.55437 0.0
O284 O 0.11679 0.69512 0.50488 0.0
O285 O 0.13571 0.71296 0.49374 0.0
O286 O 0.09521 0.70865 0.53063 0.0
O287 O 0.1165 0.71471 0.54846 0.0
C288 C 0.10059 0.70945 0.54746 0.0
C289 C 0.1448 0.75406 0.52845 0.0
O290 O 0.14222 0.71948 0.56304 0.0
O291 O 0.14636 0.7085 0.53402 0.0
O292 O 0.13207 0.75663 0.57834 0.0
O293 O 0.10441 0.74918 0.57679 0.0
O294 O 0.14659 0.75721 0.54564 0.0
O295 O 0.12977 0.74678 0.52554 0.0
O296 O 0.09695 0.73868 0.51426 0.0
O297 O 0.09606 0.75012 0.5436 0.0
C298 C 0.1511 0.7091 0.55152 0.0
C299 C 0.08848 0.7477 0.52749 0.0
Dy300 Dy 0.97078 0.60656 0.7044 0.0
C301 C -0.00054 0.66821 0.73442 0.0
C302 C 0.95363 0.58267 0.68398 0.0
Dy303 Dy 0.99164 0.63344 0.72845 0.0
O304 O 0.95819 0.59841 0.67849 0.0
O305 O 0.96 0.5793 0.70032 0.0
O306 O 0.9471 0.62587 0.70426 0.0
O307 O 0.97345 0.635 0.70502 0.0
C308 C 0.95697 0.63973 0.70527 0.0
C309 C 0.99747 0.59825 0.73529 0.0
O310 O 0.96551 0.63069 0.7434 0.0
O311 O 0.9588 0.60295 0.73217 0.0
O312 O 0.01039 0.65471 0.73878 0.0
O313 O 0.9844 0.66239 0.72806 0.0
O314 O 0.99804 0.61006 0.74825 0.0
O315 O 0.9952 0.60608 0.72021 0.0
O316 O 0.99429 0.61195 0.68601 0.0
O317 O 0.00981 0.6319 0.70425 0.0
C318 C 0.95606 0.61605 0.74373 0.0
C319 C 0.00774 0.62289 0.68904 0.0
Dy320 Dy 0.13088 0.2186 0.47591 0.0
C321 C 0.13248 0.26942 0.41855 0.0
C322 C 0.13302 0.18972 0.49766 0.0
Dy323 Dy 0.13484 0.24347 0.44491 0.0
O324 O 0.135 0.20579 0.50323 0.0
O325 O 0.13023 0.1894 0.48018 0.0
O326 O 0.10855 0.23048 0.49242 0.0
O327 O 0.11496 0.24282 0.46737 0.0
C328 C 0.10348 0.2424 0.48044 0.0
C329 C 0.14898 0.21166 0.43841 0.0
O330 O 0.16047 0.25004 0.46018 0.0
O331 O 0.15812 0.22907 0.48348 0.0
O332 O 0.14367 0.25589 0.41857 0.0
O333 O 0.12462 0.26994 0.43448 0.0
O334 O 0.14109 0.22153 0.42589 0.0
O335 O 0.15002 0.21969 0.45335 0.0
O336 O 0.11461 0.20483 0.45504 0.0
O337 O 0.11031 0.22917 0.43583 0.0
C338 C 0.16748 0.24119 0.47454 0.0
C339 C 0.10699 0.21253 0.44051 0.0
Dy340 Dy 0.50959 0.39273 0.21153 0.0
C341 C 0.56483 0.39546 0.26643 0.0
C342 C 0.48738 0.38818 0.18254 0.0
Dy343 Dy 0.53948 0.39072 0.24056 0.0
O344 O 0.48237 0.38804 0.19955 0.0
O345 O 0.50451 0.3917 0.18126 0.0
O346 O 0.49171 0.40904 0.23049 0.0
O347 O 0.51903 0.41032 0.23243 0.0
C348 C 0.50471 0.41639 0.23934 0.0
C349 C 0.54851 0.37629 0.20935 0.0
O350 O 0.52296 0.36745 0.25021 0.0
O351 O 0.50594 0.36555 0.22376 0.0
O352 O 0.56484 0.38252 0.25502 0.0
O353 O 0.54966 0.40471 0.26512 0.0
O354 O 0.56018 0.38353 0.21988 0.0
O355 O 0.53314 0.37532 0.2168 0.0
O356 O 0.52964 0.41033 0.19771 0.0
O357 O 0.54755 0.41418 0.22347 0.0
C358 C 0.51191 0.35865 0.23948 0.0
C359 C 0.54339 0.41771 0.2061 0.0
Dy360 Dy 0.37141 0.75417 0.94529 0.0
C361 C 0.36744 0.79899 0.0091 0.0
C362 C 0.36653 0.7353 0.91456 0.0
Dy363 Dy 0.37606 0.77871 0.9799 0.0
O364 O 0.35777 0.73315 0.92973 0.0
O365 O 0.37799 0.74797 0.91612 0.0
O366 O 0.36001 0.73447 0.96526 0.0
O367 O 0.35571 0.76131 0.96929 0.0
C368 C 0.35175 0.74621 0.97531 0.0
C369 C 0.3971 0.78919 0.9525 0.0
O370 O 0.39734 0.75679 0.98508 0.0
O371 O 0.39901 0.74629 0.95516 0.0
O372 O 0.38179 0.80051 -0.001 0.0
O373 O 0.35891 0.78488 0.00448 0.0
O374 O 0.39631 0.79743 0.96792 0.0
O375 O 0.38673 0.77632 0.95325 0.0
O376 O 0.3552 0.778 0.93584 0.0
O377 O 0.35479 0.79379 0.96318 0.0
C378 C 0.40611 0.74823 0.97165 0.0
C379 C 0.34976 0.7916 0.94592 0.0
Dy380 Dy 0.9672 0.37821 0.74944 0.0
C381 C 0.02232 0.37045 0.80683 0.0
C382 C 0.93783 0.38558 0.72733 0.0
Dy383 Dy 0.99747 0.37732 0.77974 0.0
O384 O 0.93703 0.37868 0.74373 0.0
O385 O 0.95466 0.38793 0.72289 0.0
O386 O 0.98395 0.35881 0.73265 0.0
O387 O 0.98661 0.35852 0.76045 0.0
C388 C 0.99259 0.35121 0.7463 0.0
C389 C 0.96899 0.39869 0.78588 0.0
O390 O 0.00959 0.39689 0.75956 0.0
O391 O 0.98293 0.40288 0.7433 0.0
O392 O 0.0115 0.38427 0.80551 0.0
O393 O 0.02079 0.36095 0.7922 0.0
O394 O 0.97894 0.39183 0.79892 0.0
O395 O 0.97596 0.3955 0.77063 0.0
O396 O 0.95257 0.36501 0.77313 0.0
O397 O 0.97843 0.35681 0.78987 0.0
C398 C -0.00021 0.4069 0.74775 0.0
C399 C 0.96071 0.3562 0.78695 0.0
Dy400 Dy 0.39262 0.23532 0.51848 0.0
C401 C 0.38604 0.18454 0.4627 0.0
C402 C 0.40315 0.25423 0.54739 0.0
Dy403 Dy 0.39199 0.20829 0.48921 0.0
O404 O 0.39494 0.26115 0.53312 0.0
O405 O 0.40537 0.23723 0.54585 0.0
O406 O 0.36385 0.24336 0.51693 0.0
O407 O 0.37643 0.23368 0.49288 0.0
C408 C 0.36117 0.23795 0.50046 0.0
C409 C 0.41049 0.19758 0.51941 0.0
O410 O 0.41389 0.22471 0.47721 0.0
O411 O 0.41356 0.2461 0.49965 0.0
O412 O 0.40102 0.18558 0.47181 0.0
O413 O 0.3752 0.19777 0.46672 0.0
O414 O 0.40113 0.18704 0.50965 0.0
O415 O 0.41029 0.21287 0.51208 0.0
O416 O 0.37744 0.21321 0.53184 0.0
O417 O 0.36773 0.20169 0.50473 0.0
C418 C 0.42094 0.23863 0.48508 0.0
C419 C 0.36679 0.20288 0.52253 0.0
Dy420 Dy 0.52941 0.63627 0.25497 0.0
C421 C 0.4671 0.6384 0.30157 0.0
C422 C 0.56185 0.63305 0.23749 0.0
Dy423 Dy 0.49722 0.63335 0.28044 0.0
O424 O 0.54721 0.64014 0.23035 0.0
O425 O 0.55887 0.62834 0.25434 0.0
O426 O 0.51221 0.65237 0.23511 0.0
O427 O 0.50733 0.65461 0.26283 0.0
C428 C 0.50213 0.66016 0.24731 0.0
C429 C 0.52668 0.61433 0.29078 0.0
O430 O 0.48856 0.61513 0.25832 0.0
O431 O 0.51692 0.61149 0.24503 0.0
O432 O 0.47848 0.62498 0.30293 0.0
O433 O 0.47136 0.648 0.28735 0.0
O434 O 0.51546 0.62159 0.30229 0.0
O435 O 0.52086 0.6164 0.27468 0.0
O436 O 0.53957 0.65151 0.27897 0.0
O437 O 0.51162 0.6553 0.29316 0.0
C438 C 0.50004 0.60639 0.24749 0.0
C439 C 0.52919 0.65811 0.2922 0.0
Dy440 Dy 0.12939 0.78128 -0.00053 0.0
C441 C 0.12154 0.72858 0.05776 0.0
C442 C 0.14149 0.80816 0.97764 0.0
Dy443 Dy 0.13022 0.75112 0.0296 0.0
O444 O 0.12449 0.80548 0.98128 0.0
O445 O 0.15168 0.79622 0.98587 0.0
O446 O 0.10478 0.77114 0.98585 0.0
O447 O 0.12168 0.75355 0.00117 0.0
C448 C 0.10657 0.75534 0.99316 0.0
C449 C 0.1532 0.7774 0.03417 0.0
O450 O 0.15199 0.73975 0.01152 0.0
O451 O 0.15426 0.76523 0.99297 0.0
O452 O 0.13173 0.74222 0.05888 0.0
O453 O 0.11664 0.72657 0.04082 0.0
O454 O 0.15655 0.76126 0.04002 0.0
O455 O 0.13735 0.77885 0.02787 0.0
O456 O 0.11255 0.79398 0.02144 0.0
O457 O 0.10495 0.76738 0.03534 0.0
C458 C 0.16029 0.74942 -0.00121 0.0
C459 C 0.10221 0.78464 0.03267 0.0
Dy460 Dy 0.72715 0.95381 0.64081 0.0
C461 C 0.67795 0.01168 0.6356 0.0
C462 C 0.74702 0.92295 0.64404 0.0
Dy463 Dy 0.70054 0.98296 0.63417 0.0
O464 O 0.75353 0.93874 0.64327 0.0
O465 O 0.72947 0.92423 0.64338 0.0
O466 O 0.74518 0.97287 0.65492 0.0
O467 O 0.71764 0.97587 0.6574 0.0
C468 C 0.73229 0.98208 0.66264 0.0
C469 C 0.69138 0.95287 0.61892 0.0
O470 O 0.7214 0.99018 0.61295 0.0
O471 O 0.73513 0.96237 0.61253 0.0
O472 O 0.67647 -0.00127 0.62435 0.0
O473 O 0.69343 0.01005 0.64407 0.0
O474 O 0.67963 0.96449 0.62489 0.0
O475 O 0.70719 0.95872 0.61944 0.0
O476 O 0.70386 0.94363 0.65721 0.0
O477 O 0.68832 0.97061 0.65917 0.0
C478 C 0.73197 0.97816 0.60478 0.0
C479 C 0.69051 0.95368 0.66384 0.0
Dy480 Dy 0.7528 0.94675 0.37731 0.0
C481 C 0.79808 0.00599 0.36888 0.0
C482 C 0.73622 0.91621 0.38472 0.0
Dy483 Dy 0.77499 0.98046 0.37915 0.0
O484 O 0.72827 0.93014 0.37724 0.0
O485 O 0.75313 0.91897 0.38804 0.0
O486 O 0.74607 0.95158 0.34827 0.0
O487 O 0.75006 0.97364 0.36516 0.0
C488 C 0.74777 0.96866 0.34881 0.0
C489 C 0.78295 0.95605 0.40479 0.0
O490 O 0.75285 0.98852 0.39874 0.0
O491 O 0.74263 0.95978 0.4027 0.0
O492 O 0.79474 0.0013 0.38565 0.0
O493 O 0.78683 0.99844 0.35805 0.0
O494 O 0.78643 0.97267 0.40681 0.0
O495 O 0.77829 0.95364 0.38867 0.0
O496 O 0.77781 0.93611 0.36374 0.0
O497 O 0.79173 0.96323 0.36008 0.0
C498 C 0.74397 0.97632 0.40829 0.0
C499 C 0.79095 0.94595 0.35706 0.0
Dy500 Dy 0.78356 0.9976 0.12925 0.0
C501 C 0.72898 0.05231 0.13017 0.0
C502 C 0.81514 0.9786 0.13356 0.0
Dy503 Dy 0.75203 0.02385 0.13373 0.0
O504 O 0.80532 0.9786 0.11879 0.0
O505 O 0.80778 0.9889 0.1456 0.0
O506 O 0.76506 0.9796 0.11441 0.0
O507 O 0.76106 0.00666 0.1117 0.0
C508 C 0.75539 0.9921 0.10626 0.0
C509 C 0.77692 0.02476 0.16032 0.0
O510 O 0.74086 0.00039 0.14871 0.0
O511 O 0.76914 0.98722 0.15381 0.0
O512 O 0.7452 0.05242 0.13681 0.0
O513 O 0.72479 0.03624 0.12575 0.0
O514 O 0.75969 0.02754 0.16301 0.0
O515 O 0.77978 0.02242 0.14357 0.0
O516 O 0.79503 0.01996 0.11262 0.0
O517 O 0.76819 0.03693 0.11161 0.0
C518 C 0.75176 0.98918 0.15796 0.0
C519 C 0.78535 0.03407 0.10676 0.0
Dy520 Dy 0.71938 0.01038 0.88801 0.0
C521 C 0.77664 0.06172 0.88896 0.0
C522 C 0.69292 0.98673 0.88483 0.0
Dy523 Dy 0.74973 0.03884 0.88215 0.0
O524 O 0.69305 -0.00129 0.89746 0.0
O525 O 0.70679 0.98811 0.87412 0.0
O526 O 0.73986 0.99322 0.90336 0.0
O527 O 0.74185 0.02007 0.90384 0.0
C528 C 0.74901 0.00595 0.9102 0.0
C529 C 0.72032 0.04672 0.86121 0.0
O530 O 0.75936 0.01762 0.86305 0.0
O531 O 0.73121 0.00472 0.86078 0.0
O532 O 0.76602 0.06246 0.87485 0.0
O533 O 0.77338 0.04761 0.89878 0.0
O534 O 0.73448 0.0566 0.86164 0.0
O535 O 0.72356 0.03347 0.87145 0.0
O536 O 0.70594 0.03334 0.90204 0.0
O537 O 0.73181 0.05063 0.90376 0.0
C538 C 0.74787 0.00712 0.85479 0.0
C539 C 0.71475 0.04718 0.90822 0.0
Dy540 Dy 0.63221 0.71501 0.97456 0.0
C541 C 0.63123 0.76944 0.92196 0.0
C542 C 0.63528 0.69061 0.00132 0.0
Dy543 Dy 0.63421 0.74159 0.94597 0.0
O544 O 0.63591 0.70758 0.00394 0.0
O545 O 0.63366 0.68701 0.98414 0.0
O546 O 0.60288 0.71814 0.97878 0.0
O547 O 0.6171 0.74106 0.97088 0.0
C548 C 0.60141 0.7344 0.97324 0.0
C549 C 0.65089 0.71146 0.93651 0.0
O550 O 0.65939 0.74939 0.96108 0.0
O551 O 0.65916 0.72638 0.98225 0.0
O552 O 0.64496 0.75842 0.92329 0.0
O553 O 0.61984 0.76608 0.93504 0.0
O554 O 0.64211 0.72169 0.92491 0.0
O555 O 0.65114 0.71819 0.95212 0.0
O556 O 0.61944 0.69987 0.95242 0.0
O557 O 0.61164 0.7252 0.93568 0.0
C558 C 0.6674 0.73994 0.97441 0.0
C559 C 0.61025 0.70799 0.93908 0.0
Dy560 Dy 0.02976 0.14005 0.75373 0.0
C561 C 0.9677 0.13707 0.80373 0.0
C562 C 0.06097 0.13897 0.73402 0.0
Dy563 Dy 0.99594 0.13293 0.77987 0.0
O564 O 0.04487 0.14207 0.72735 0.0
O565 O 0.06011 0.13737 0.75173 0.0
O566 O 0.01035 0.15395 0.73449 0.0
O567 O 0.00529 0.1549 0.76216 0.0
C568 C -0.00022 0.16081 0.74687 0.0
C569 C 0.02518 0.11263 0.78932 0.0
O570 O 0.99059 0.11457 0.75678 0.0
O571 O 0.02072 0.11307 0.74719 0.0
O572 O 0.9802 0.12466 0.80439 0.0
O573 O 0.96973 0.14646 0.78876 0.0
O574 O 0.00991 0.11188 0.79806 0.0
O575 O 0.02299 0.12336 0.77621 0.0
O576 O 0.03744 0.1573 0.77665 0.0
O577 O 0.01102 0.15398 0.79422 0.0
C578 C 0.00434 0.10637 0.74828 0.0
C579 C 0.02723 0.16081 0.7912 0.0
Dy580 Dy 0.87321 0.25763 0.4452 0.0
C581 C 0.87666 0.30796 0.50098 0.0
C582 C 0.87392 0.23982 0.4135 0.0
Dy583 Dy 0.88057 0.28188 0.47613 0.0
O584 O 0.86127 0.23838 0.42579 0.0
O585 O 0.88527 0.25172 0.41823 0.0
O586 O 0.86584 0.23688 0.46583 0.0
O587 O 0.85912 0.26322 0.47073 0.0
C588 C 0.85681 0.24757 0.47645 0.0
C589 C 0.90197 0.28581 0.44709 0.0
O590 O 0.89954 0.25914 0.48395 0.0
O591 O 0.90115 0.24901 0.45443 0.0
O592 O 0.88511 0.30917 0.48553 0.0
O593 O 0.8716 0.29169 0.50372 0.0
O594 O 0.90778 0.28766 0.46366 0.0
O595 O 0.88527 0.28314 0.44706 0.0
O596 O 0.8519 0.27816 0.43746 0.0
O597 O 0.85687 0.29601 0.46241 0.0
C598 C 0.90816 0.25008 0.471 0.0
C599 C 0.84803 0.29246 0.44718 0.0
Dy600 Dy 0.50729 0.86199 0.76301 0.0
C601 C 0.5361 0.91619 0.80907 0.0
C602 C 0.49875 0.82842 0.75257 0.0
Dy603 Dy 0.52239 0.88914 0.7902 0.0
O604 O 0.48687 0.84112 0.75601 0.0
O605 O 0.51493 0.83474 0.75312 0.0
O606 O 0.50165 0.88518 0.74278 0.0
O607 O 0.5005 0.88926 0.77084 0.0
C608 C 0.49975 0.897 0.75557 0.0
C609 C 0.53867 0.85673 0.79167 0.0
O610 O 0.49766 0.8822 0.80584 0.0
O611 O 0.48928 0.85897 0.7872 0.0
O612 O 0.53064 0.90138 0.81632 0.0
O613 O 0.53203 0.91686 0.79178 0.0
O614 O 0.54663 0.87136 0.79522 0.0
O615 O 0.52217 0.86036 0.78879 0.0
O616 O 0.53579 0.86416 0.75317 0.0
O617 O 0.53932 0.8919 0.76534 0.0
C618 C 0.48749 0.86845 0.8022 0.0
C619 C 0.54517 0.87861 0.75524 0.0
Dy620 Dy 0.95813 0.10497 0.25365 0.0
C621 C 0.00598 0.11477 0.31359 0.0
C622 C 0.93731 0.09693 0.2245 0.0
Dy623 Dy 0.98357 0.10716 0.28618 0.0
O624 O 0.93923 0.11272 0.23089 0.0
O625 O 0.9487 0.08596 0.2327 0.0
O626 O 0.93431 0.11459 0.27015 0.0
O627 O 0.96056 0.12298 0.2761 0.0
C628 C 0.94424 0.12344 0.28115 0.0
C629 C 0.98791 0.07719 0.26777 0.0
O630 O 0.96018 0.09408 0.29966 0.0
O631 O 0.94867 0.08354 0.27262 0.0
O632 O 0.01135 0.10922 0.29775 0.0
O633 O 0.98842 0.11646 0.31439 0.0
O634 O 0.99111 0.07874 0.28501 0.0
O635 O 0.98441 0.09234 0.2604 0.0
O636 O 0.97373 0.12901 0.2446 0.0
O637 O 0.99248 0.13086 0.27005 0.0
C638 C 0.94923 0.08369 0.2907 0.0
C639 C 0.9859 0.13744 0.25445 0.0
Dy640 Dy 0.49935 0.12008 0.71829 0.0
C641 C 0.55969 0.11163 0.76906 0.0
C642 C 0.47392 0.12763 0.69192 0.0
Dy643 Dy 0.5309 0.1198 0.74655 0.0
O644 O 0.48518 0.11412 0.69232 0.0
O645 O 0.47516 0.13615 0.70722 0.0
O646 O 0.5174 0.10822 0.69699 0.0
O647 O 0.52254 0.10291 0.72479 0.0
C648 C 0.52857 0.10118 0.70886 0.0
C649 C 0.50386 0.14432 0.75315 0.0
O650 O 0.54439 0.13314 0.72254 0.0
O651 O 0.51733 0.14189 0.70832 0.0
O652 O 0.55845 0.12579 0.75856 0.0
O653 O 0.54546 0.10225 0.76702 0.0
O654 O 0.51342 0.13595 0.76567 0.0
O655 O 0.50958 0.1389 0.738 0.0
O656 O 0.48953 0.09807 0.73766 0.0
O657 O 0.5166 0.09482 0.75372 0.0
C658 C 0.53527 0.1425 0.70978 0.0
C659 C 0.50038 0.08901 0.74942 0.0
Dy660 Dy 0.10349 0.28748 0.00939 0.0
C661 C 0.09999 0.23976 0.94834 0.0
C662 C 0.11278 0.30972 0.03605 0.0
Dy663 Dy 0.10834 0.26123 0.976 0.0
O664 O 0.09633 0.30796 0.03014 0.0
O665 O 0.12356 0.29785 0.02882 0.0
O666 O 0.08229 0.30613 0.99554 0.0
O667 O 0.09262 0.28426 0.98264 0.0
C668 C 0.08178 0.29723 0.98052 0.0
C669 C 0.13603 0.25875 -0.00027 0.0
O670 O 0.11715 0.28725 0.96414 0.0
O671 O 0.12471 0.29925 0.99208 0.0
O672 O 0.11247 0.25159 0.94743 0.0
O673 O 0.09235 0.23958 0.96427 0.0
O674 O 0.13661 0.25272 0.98324 0.0
O675 O 0.11955 0.26291 0.00361 0.0
O676 O 0.08399 0.26728 0.01886 0.0
O677 O 0.08427 0.2517 0.99154 0.0
C678 C 0.12527 0.29925 0.97409 0.0
C679 C 0.07694 0.25573 0.00758 0.0
Dy680 Dy 0.36359 0.74652 0.46673 0.0
C681 C 0.35653 0.68407 0.5138 0.0
C682 C 0.37148 0.76897 0.43836 0.0
Dy683 Dy 0.36558 0.7144 0.49575 0.0
O684 O 0.36461 0.75342 0.43705 0.0
O685 O 0.3736 0.77281 0.45558 0.0
O686 O 0.33677 0.73697 0.45693 0.0
O687 O 0.3562 0.71906 0.46796 0.0
C688 C 0.34023 0.72063 0.46205 0.0
C689 C 0.38339 0.74392 0.50479 0.0
O690 O 0.38554 0.70391 0.4754 0.0
O691 O 0.38835 0.73039 0.45842 0.0
O692 O 0.37203 0.69182 0.51571 0.0
O693 O 0.3464 0.69272 0.502 0.0
O694 O 0.37673 0.73278 0.51669 0.0
O695 O 0.38076 0.73776 0.48927 0.0
O696 O 0.34306 0.75622 0.48732 0.0
O697 O 0.33973 0.72853 0.50152 0.0
C698 C 0.39316 0.71357 0.46224 0.0
C699 C 0.3338 0.74485 0.49762 0.0
Dy700 Dy 0.79765 0.51494 0.86115 0.0
C701 C 0.75134 0.57469 0.85308 0.0
C702 C 0.81955 0.48575 0.85885 0.0
Dy703 Dy 0.77063 0.54365 0.85446 0.0
O704 O 0.82092 0.49797 0.87098 0.0
O705 O 0.80455 0.48838 0.84974 0.0
O706 O 0.81842 0.53347 0.87011 0.0
O707 O 0.79078 0.53905 0.87595 0.0
C708 C 0.80664 0.54495 0.87631 0.0
C709 C 0.7659 0.51529 0.83307 0.0
O710 O 0.79248 0.55394 0.83635 0.0
O711 O 0.8116 0.52899 0.83803 0.0
O712 O 0.74448 0.55913 0.85155 0.0
O713 O 0.76886 0.57318 0.85433 0.0
O714 O 0.75271 0.52432 0.84057 0.0
O715 O 0.7805 0.52183 0.83797 0.0
O716 O 0.77729 0.50773 0.88318 0.0
O717 O 0.76183 0.53473 0.88211 0.0
C718 C 0.80746 0.54514 0.83158 0.0
C719 C 0.76558 0.51936 0.89042 0.0
Dy720 Dy 0.71947 0.51495 0.11254 0.0
C721 C 0.75997 0.57757 0.11516 0.0
C722 C 0.69317 0.49127 0.11809 0.0
Dy723 Dy 0.74315 0.54644 0.11882 0.0
O724 O 0.69285 0.50393 0.10592 0.0
O725 O 0.709 0.49027 0.12604 0.0
O726 O 0.71385 0.52352 0.08352 0.0
O727 O 0.71888 0.54214 0.10354 0.0
C728 C 0.7168 0.54008 0.08672 0.0
C729 C 0.75057 0.51883 0.14185 0.0
O730 O 0.71966 0.55655 0.13504 0.0
O731 O 0.70182 0.53187 0.13081 0.0
O732 O 0.76338 0.56596 0.12816 0.0
O733 O 0.74644 0.57267 0.10548 0.0
O734 O 0.76278 0.52796 0.13334 0.0
O735 O 0.73532 0.52393 0.13569 0.0
O736 O 0.74373 0.50673 0.09556 0.0
O737 O 0.75476 0.53508 0.09353 0.0
C738 C 0.70452 0.54779 0.13761 0.0
C739 C 0.75331 0.51902 0.0869 0.0
Dy740 Dy 0.74815 0.47492 0.36471 0.0
C741 C 0.68234 0.51907 0.36271 0.0
C742 C 0.77766 0.45281 0.36956 0.0
Dy743 Dy 0.71358 0.4989 0.36722 0.0
O744 O 0.7684 0.45486 0.35458 0.0
O745 O 0.77224 0.46483 0.3811 0.0
O746 O 0.73362 0.45328 0.35149 0.0
O747 O 0.72435 0.4799 0.34764 0.0
C748 C 0.72086 0.46381 0.34517 0.0
C749 C 0.7402 0.50601 0.39177 0.0
O750 O 0.70366 0.47493 0.38282 0.0
O751 O 0.73186 0.46021 0.38551 0.0
O752 O 0.69823 0.52524 0.36587 0.0
O753 O 0.68336 0.50183 0.36294 0.0
O754 O 0.72939 0.51776 0.38406 0.0
O755 O 0.73574 0.49127 0.3858 0.0
O756 O 0.75553 0.49687 0.34481 0.0
O757 O 0.72597 0.50764 0.3408 0.0
C758 C 0.71417 0.46136 0.38876 0.0
C759 C 0.74319 0.50675 0.33568 0.0
Dy760 Dy 0.74546 0.45636 0.61582 0.0
C761 C 0.80368 0.50455 0.60242 0.0
C762 C 0.7169 0.43531 0.6093 0.0
Dy763 Dy 0.77455 0.48392 0.60671 0.0
O764 O 0.72844 0.43297 0.62256 0.0
O765 O 0.72023 0.44996 0.60046 0.0
O766 O 0.76045 0.44034 0.63796 0.0
O767 O 0.77203 0.46212 0.62539 0.0
C768 C 0.77491 0.44986 0.63701 0.0
C769 C 0.74404 0.48785 0.58646 0.0
O770 O 0.78441 0.4625 0.58825 0.0
O771 O 0.763 0.44131 0.59613 0.0
O772 O 0.78707 0.51048 0.60383 0.0
O773 O 0.80425 0.48732 0.60288 0.0
O774 O 0.75186 0.5006 0.59479 0.0
O775 O 0.75173 0.47356 0.59195 0.0
O776 O 0.73732 0.47863 0.63455 0.0
O777 O 0.76596 0.49058 0.63479 0.0
C778 C 0.77755 0.44651 0.58704 0.0
C779 C 0.74956 0.48901 0.64187 0.0
Dy780 Dy 0.47357 0.10873 0.20338 0.0
C781 C 0.4982 0.1679 0.24133 0.0
C782 C 0.45634 0.08384 0.18433 0.0
Dy783 Dy 0.49309 0.13344 0.23174 0.0
O784 O 0.46052 0.09944 0.17806 0.0
O785 O 0.46318 0.08125 0.20056 0.0
O786 O 0.45416 0.13083 0.19651 0.0
O787 O 0.48066 0.13636 0.20481 0.0
C788 C 0.46516 0.14302 0.20132 0.0
C789 C 0.49782 0.098 0.23681 0.0
O790 O 0.46582 0.13169 0.24498 0.0
O791 O 0.45298 0.11118 0.22539 0.0
O792 O 0.51066 0.15518 0.24281 0.0
O793 O 0.483 0.16121 0.23642 0.0
O794 O 0.50919 0.10927 0.24358 0.0
O795 O 0.48446 0.10656 0.23041 0.0
O796 O 0.50087 0.11075 0.19007 0.0
O797 O 0.51237 0.13246 0.20878 0.0
C798 C 0.45221 0.12197 0.23948 0.0
C799 C 0.51256 0.12336 0.19351 0.0
Dy800 Dy 0.01007 0.89098 0.70807 0.0
C801 C 0.06565 0.90051 0.76004 0.0
C802 C 0.99204 0.8818 0.67787 0.0
Dy803 Dy 0.03608 0.89162 0.74092 0.0
O804 O 0.98436 0.88833 0.69235 0.0
O805 O 0.00949 0.88038 0.67987 0.0
O806 O -0.00084 0.9179 0.71149 0.0
O807 O 0.00916 0.9038 0.73506 0.0
C808 C 0.0039 0.91895 0.7285 0.0
C809 C 0.04338 0.86723 0.7161 0.0
O810 O 0.01968 0.86828 0.75043 0.0
O811 O 0.00374 0.86584 0.72312 0.0
O812 O 0.0655 0.89405 0.74387 0.0
O813 O 0.04914 0.90163 0.76677 0.0
O814 O 0.04782 0.86496 0.73313 0.0
O815 O 0.03737 0.88271 0.71349 0.0
O816 O 0.03226 0.90699 0.69583 0.0
O817 O 0.04318 0.91546 0.72381 0.0
C818 C 0.00921 0.85927 0.73917 0.0
C819 C 0.04289 0.91688 0.70577 0.0
Dy820 Dy 0.46474 0.87455 0.2482 0.0
C821 C 0.51875 0.86662 0.3052 0.0
C822 C 0.43739 0.88472 0.22472 0.0
Dy823 Dy 0.49636 0.8753 0.27635 0.0
O824 O 0.43602 0.87287 0.23776 0.0
O825 O 0.45367 0.89076 0.22443 0.0
O826 O 0.47266 0.84797 0.23749 0.0
O827 O 0.49257 0.86326 0.24958 0.0
C828 C 0.48906 0.84795 0.2438 0.0
C829 C 0.47121 0.90079 0.28001 0.0
O830 O 0.50609 0.897 0.25705 0.0
O831 O 0.4786 0.89986 0.24141 0.0
O832 O 0.50506 0.87772 0.30527 0.0
O833 O 0.52122 0.86076 0.28863 0.0
O834 O 0.48803 0.90257 0.2848 0.0
O835 O 0.46846 0.8851 0.27525 0.0
O836 O 0.45119 0.86088 0.27194 0.0
O837 O 0.47773 0.855 0.2883 0.0
C838 C 0.49471 0.90595 0.24573 0.0
C839 C 0.46018 0.85277 0.28557 0.0
Dy840 Dy 0.88964 0.73541 0.02013 0.0
C841 C 0.88983 0.68441 0.96151 0.0
C842 C 0.89803 0.75407 0.04983 0.0
Dy843 Dy 0.89255 0.70745 0.98923 0.0
O844 O 0.89389 0.73741 0.05021 0.0
O845 O 0.89672 0.76073 0.03337 0.0
O846 O 0.86397 0.75018 0.011 0.0
O847 O 0.87456 0.7296 0.99576 0.0
C848 C 0.86121 0.74042 0.99686 0.0
C849 C 0.91107 0.69862 0.01989 0.0
O850 O 0.91216 0.72696 0.97809 0.0
O851 O 0.9134 0.7444 0.00394 0.0
O852 O 0.90343 0.68509 0.97265 0.0
O853 O 0.8784 0.6975 0.96456 0.0
O854 O 0.90394 0.68722 0.00919 0.0
O855 O 0.90907 0.71411 0.01298 0.0
O856 O 0.87543 0.71245 0.03238 0.0
O857 O 0.86875 0.69865 0.00518 0.0
C858 C 0.91975 0.73941 0.98783 0.0
C859 C 0.86685 0.70039 0.02302 0.0
Dy860 Dy 0.6332 0.27986 0.50081 0.0
C861 C 0.62375 0.22288 0.55442 0.0
C862 C 0.64093 0.30878 0.47948 0.0
Dy863 Dy 0.6352 0.24773 0.52948 0.0
O864 O 0.63905 0.29281 0.47345 0.0
O865 O 0.63847 0.3089 0.49706 0.0
O866 O 0.60665 0.27149 0.49015 0.0
O867 O 0.62475 0.25224 0.5018 0.0
C868 C 0.60882 0.2551 0.49576 0.0
C869 C 0.65807 0.27388 0.53516 0.0
O870 O 0.65595 0.23798 0.5095 0.0
O871 O 0.65969 0.26575 0.49526 0.0
O872 O 0.63989 0.22939 0.55386 0.0
O873 O 0.61442 0.22891 0.54044 0.0
O874 O 0.66081 0.25788 0.54177 0.0
O875 O 0.6424 0.27519 0.52853 0.0
O876 O 0.61409 0.29102 0.52186 0.0
O877 O 0.61341 0.26569 0.5406 0.0
C878 C 0.66504 0.24907 0.49874 0.0
C879 C 0.60767 0.28202 0.53613 0.0
Dy880 Dy 0.22394 0.45522 0.13858 0.0
C881 C 0.17822 0.5159 0.13983 0.0
C882 C 0.24346 0.42429 0.13729 0.0
Dy883 Dy 0.1991 0.48639 0.13489 0.0
O884 O 0.25015 0.43973 0.13996 0.0
O885 O 0.2259 0.42565 0.13612 0.0
O886 O 0.2439 0.4723 0.1527 0.0
O887 O 0.21664 0.47688 0.15691 0.0
C888 C 0.23202 0.48183 0.16153 0.0
C889 C 0.18623 0.45844 0.11886 0.0
O890 O 0.21881 0.49309 0.11228 0.0
O891 O 0.23191 0.46497 0.11098 0.0
O892 O 0.17726 0.50551 0.12597 0.0
O893 O 0.1929 0.51179 0.14901 0.0
O894 O 0.17604 0.47075 0.12605 0.0
O895 O 0.20279 0.46252 0.11876 0.0
O896 O 0.20204 0.4451 0.15654 0.0
O897 O 0.18534 0.47164 0.15771 0.0
C898 C 0.22911 0.48101 0.10386 0.0
C899 C 0.18813 0.45476 0.16261 0.0
Dy900 Dy 0.25241 0.45321 0.87791 0.0
C901 C 0.29911 0.51242 0.88061 0.0
C902 C 0.23559 0.42208 0.88169 0.0
Dy903 Dy 0.27817 0.48332 0.88159 0.0
O904 O 0.22823 0.43651 0.87468 0.0
O905 O 0.25243 0.42448 0.88575 0.0
O906 O 0.23436 0.47033 0.85992 0.0
O907 O 0.26224 0.47351 0.85902 0.0
C908 C 0.2474 0.47898 0.85218 0.0
C909 C 0.28603 0.45504 0.90208 0.0
O910 O 0.25504 0.49288 0.89964 0.0
O911 O 0.2412 0.46596 0.90304 0.0
O912 O 0.29797 0.50116 0.89413 0.0
O913 O 0.28755 0.50835 0.86804 0.0
O914 O 0.29852 0.46493 0.89519 0.0
O915 O 0.27049 0.46151 0.89887 0.0
O916 O 0.27644 0.44139 0.86311 0.0
O917 O 0.29419 0.46649 0.86202 0.0
C918 C 0.24378 0.4823 0.90856 0.0
C919 C 0.29136 0.44964 0.85814 0.0
Dy920 Dy 0.28192 0.49511 0.62615 0.0
C921 C 0.22432 0.54876 0.62904 0.0
C922 C 0.31283 0.47744 0.63622 0.0
Dy923 Dy 0.24899 0.52137 0.63202 0.0
O924 O 0.30632 0.47743 0.61959 0.0
O925 O 0.30281 0.4874 0.64663 0.0
O926 O 0.26452 0.47747 0.60942 0.0
O927 O 0.25876 0.50447 0.6102 0.0
C928 C 0.25347 0.49021 0.60365 0.0
C929 C 0.27463 0.52184 0.65759 0.0
O930 O 0.23937 0.498 0.64853 0.0
O931 O 0.26745 0.48341 0.64976 0.0
O932 O 0.23875 0.54838 0.63908 0.0
O933 O 0.22286 0.53366 0.62075 0.0
O934 O 0.25748 0.5244 0.6611 0.0
O935 O 0.27672 0.51958 0.64072 0.0
O936 O 0.29302 0.51778 0.61009 0.0
O937 O 0.26764 0.53699 0.61355 0.0
C938 C 0.2511 0.48658 0.65647 0.0
C939 C 0.28417 0.53315 0.60705 0.0
Dy940 Dy 0.21999 0.51279 0.38834 0.0
C941 C 0.27762 0.56286 0.3845 0.0
C942 C 0.19029 0.49282 0.3886 0.0
Dy943 Dy 0.24986 0.54069 0.37934 0.0
O944 O 0.20635 0.48711 0.39351 0.0
O945 O 0.19035 0.5097 0.38469 0.0
O946 O 0.24128 0.4964 0.40296 0.0
O947 O 0.24255 0.52386 0.40316 0.0
C948 C 0.24995 0.50968 0.40942 0.0
C949 C 0.22052 0.54558 0.35769 0.0
O950 O 0.25891 0.51826 0.36152 0.0
O951 O 0.23091 0.5048 0.3611 0.0
O952 O 0.26636 0.56372 0.37089 0.0
O953 O 0.27453 0.54889 0.3946 0.0
O954 O 0.23432 0.55593 0.35673 0.0
O955 O 0.22421 0.53374 0.36942 0.0
O956 O 0.20948 0.53515 0.40549 0.0
O957 O 0.23175 0.55586 0.39831 0.0
C958 C 0.24723 0.50739 0.35413 0.0
C959 C 0.21658 0.55112 0.40665 0.0
H960 H 0.96886 0.41997 0.25637 0.0
H961 H 0.96817 0.45275 0.2568 0.0
H962 H 0.02643 0.4522 0.26209 0.0
H963 H 0.0272 0.41988 0.26107 0.0
H964 H 0.01054 0.47566 0.28599 0.0
H965 H 0.0111 0.46448 0.22322 0.0
H966 H 0.00205 0.45006 0.19483 0.0
H967 H 0.94831 0.47305 0.19973 0.0
H968 H 0.95704 0.48752 0.22829 0.0
H969 H 0.02553 0.56642 0.26501 0.0
H970 H 0.02475 0.53467 0.26755 0.0
H971 H 0.96815 0.53645 0.25254 0.0
H972 H 0.96932 0.56888 0.24812 0.0
H973 H 0.98377 0.51168 0.23487 0.0
H974 H 0.99016 0.52592 0.30033 0.0
H975 H 0.00584 0.53929 0.32626 0.0
H976 H 0.05478 0.50994 0.31316 0.0
H977 H 0.03948 0.49651 0.28709 0.0
C978 C 0.98148 0.42689 0.25739 0.0
C979 C 0.99804 0.4173 0.25889 0.0
C980 C 0.98111 0.44561 0.25778 0.0
C981 C 0.99726 0.45502 0.25973 0.0
C982 C 0.01376 0.44537 0.26091 0.0
C983 C 0.01415 0.42682 0.2603 0.0
C984 C 0.99711 0.47491 0.25995 0.0
C985 C 0.00464 0.48359 0.27486 0.0
C986 C 0.98996 0.48529 0.24525 0.0
C987 C 0.98466 0.47695 0.22796 0.0
C988 C 0.99732 0.46638 0.21829 0.0
C989 C 0.99226 0.45822 0.20217 0.0
C990 C 0.97459 0.46059 0.19551 0.0
C991 C 0.96198 0.47121 0.20492 0.0
C992 C 0.96699 0.47943 0.22106 0.0
C993 C 0.01265 0.56034 0.26251 0.0
C994 C 0.99736 0.57058 0.25641 0.0
C995 C 0.01224 0.54187 0.26422 0.0
C996 C 0.99627 0.53281 0.26082 0.0
C997 C 0.9807 0.54298 0.25539 0.0
C998 C 0.98128 0.56161 0.25301 0.0
C999 C 0.9963 0.51279 0.26144 0.0
C1000 C 0.98914 0.50394 0.24638 0.0
C1001 C 0.0046 0.50231 0.27575 0.0
C1002 C 0.01364 0.51026 0.29168 0.0
C1003 C 0.00426 0.52235 0.30295 0.0
C1004 C 0.0131 0.52994 0.31768 0.0
C1005 C 0.03129 0.52548 0.32134 0.0
C1006 C 0.04068 0.51337 0.31033 0.0
C1007 C 0.03192 0.50574 0.2956 0.0
H1008 H 0.0381 0.53139 0.33272 0.0
H1009 H 0.97068 0.45423 0.18303 0.0
H1010 H 0.80667 0.7753 0.54203 0.0
H1011 H 0.77405 0.78137 0.53987 0.0
H1012 H 0.77092 0.74496 0.49525 0.0
H1013 H 0.80411 0.73951 0.49694 0.0
H1014 H 0.74936 0.77365 0.48856 0.0
H1015 H 0.75861 0.73467 0.54173 0.0
H1016 H 0.77202 0.72654 0.5717 0.0
H1017 H 0.74849 0.77389 0.59476 0.0
H1018 H 0.73518 0.78245 0.56483 0.0
H1019 H 0.66433 0.73662 0.49541 0.0
H1020 H 0.69596 0.74347 0.49867 0.0
H1021 H 0.68111 0.79099 0.52762 0.0
H1022 H 0.64853 0.78464 0.52345 0.0
H1023 H 0.71095 0.76444 0.54348 0.0
H1024 H 0.69772 0.80158 0.49262 0.0
H1025 H 0.68566 0.81209 0.46281 0.0
H1026 H 0.71626 0.77104 0.43577 0.0
H1027 H 0.72853 0.76016 0.46537 0.0
C1028 C 0.79898 0.76836 0.53193 0.0
C1029 C 0.80785 0.75647 0.52006 0.0
C1030 C 0.78027 0.77189 0.53066 0.0
C1031 C 0.7697 0.76334 0.5177 0.0
C1032 C 0.77863 0.75164 0.50552 0.0
C1033 C 0.79755 0.74831 0.50661 0.0
C1034 C 0.74942 0.76639 0.51714 0.0
C1035 C 0.74098 0.77146 0.50054 0.0
C1036 C 0.73835 0.7646 0.53297 0.0
C1037 C 0.74606 0.75927 0.55101 0.0
C1038 C 0.75638 0.74339 0.55318 0.0
C1039 C 0.76396 0.73871 0.57015 0.0
C1040 C 0.76115 0.74971 0.58511 0.0
C1041 C 0.75069 0.7654 0.58315 0.0
C1042 C 0.74312 0.77016 0.56619 0.0
C1043 C 0.66754 0.74858 0.50258 0.0
C1044 C 0.65365 0.7601 0.5091 0.0
C1045 C 0.6858 0.75253 0.50428 0.0
C1046 C 0.69102 0.76789 0.51303 0.0
C1047 C 0.67738 0.77914 0.52053 0.0
C1048 C 0.65878 0.77542 0.51834 0.0
C1049 C 0.7109 0.77101 0.51478 0.0
C1050 C 0.71935 0.76697 0.53157 0.0
C1051 C 0.72194 0.77397 0.49917 0.0
C1052 C 0.71393 0.7799 0.48134 0.0
C1053 C 0.70169 0.79459 0.48038 0.0
C1054 C 0.69485 0.80067 0.4635 0.0
C1055 C 0.70007 0.79219 0.44745 0.0
C1056 C 0.71218 0.77759 0.44823 0.0
C1057 C 0.71913 0.77148 0.46506 0.0
H1058 H 0.6948 0.79698 0.4344 0.0
H1059 H 0.76704 0.74607 0.59824 0.0
H1060 H 0.51154 0.41475 0.72349 0.0
H1061 H 0.50997 0.44693 0.72525 0.0
H1062 H 0.48906 0.44296 0.78027 0.0
H1063 H 0.48929 0.41043 0.7779 0.0
H1064 H 0.47135 0.46857 0.76382 0.0
H1065 H 0.5343 0.45521 0.77033 0.0
H1066 H 0.5634 0.4401 0.76282 0.0
H1067 H 0.56324 0.46593 0.71001 0.0
H1068 H 0.53399 0.48103 0.71712 0.0
H1069 H 0.49026 0.55772 0.78383 0.0
H1070 H 0.4926 0.52539 0.78257 0.0
H1071 H 0.49888 0.5288 0.724 0.0
H1072 H 0.49655 0.56157 0.72527 0.0
H1073 H 0.52365 0.50391 0.74309 0.0
H1074 H 0.45894 0.51907 0.74092 0.0
H1075 H 0.43474 0.53789 0.75452 0.0
H1076 H 0.44116 0.50976 0.80574 0.0
H1077 H 0.46579 0.49109 0.79263 0.0
C1078 C 0.50719 0.42068 0.73621 0.0
C1079 C 0.50109 0.41005 0.75078 0.0
C1080 C 0.50614 0.43916 0.73717 0.0
C1081 C 0.49973 0.44755 0.75304 0.0
C1082 C 0.49409 0.43691 0.76787 0.0
C1083 C 0.49455 0.41832 0.76666 0.0
C1084 C 0.49897 0.46737 0.75386 0.0
C1085 C 0.48285 0.47623 0.75942 0.0
C1086 C 0.51394 0.47757 0.74826 0.0
C1087 C 0.53192 0.46917 0.74422 0.0
C1088 C 0.54047 0.45766 0.75711 0.0
C1089 C 0.55697 0.44907 0.75292 0.0
C1090 C 0.56514 0.45203 0.73593 0.0
C1091 C 0.55688 0.46366 0.72316 0.0
C1092 C 0.54036 0.47226 0.72727 0.0
C1093 C 0.49233 0.55157 0.77069 0.0
C1094 C 0.4933 0.56205 0.75463 0.0
C1095 C 0.49358 0.53312 0.76999 0.0
C1096 C 0.49571 0.52468 0.75319 0.0
C1097 C 0.49719 0.5351 0.7371 0.0
C1098 C 0.49589 0.55374 0.7378 0.0
C1099 C 0.49605 0.50496 0.75262 0.0
C1100 C 0.51212 0.49616 0.74725 0.0
C1101 C 0.48126 0.49491 0.75898 0.0
C1102 C 0.46442 0.50385 0.76585 0.0
C1103 C 0.45511 0.5168 0.75504 0.0
C1104 C 0.44144 0.52754 0.7627 0.0
C1105 C 0.43676 0.52525 0.78107 0.0
C1106 C 0.44507 0.51168 0.79159 0.0
C1107 C 0.45887 0.50099 0.78404 0.0
H1108 H 0.42665 0.53399 0.78712 0.0
H1109 H 0.57789 0.44532 0.73268 0.0
H1110 H 0.81769 0.25157 0.03208 0.0
H1111 H 0.78472 0.25153 0.03703 0.0
H1112 H 0.77648 0.2557 0.97861 0.0
H1113 H 0.80899 0.25753 0.97401 0.0
H1114 H 0.75286 0.27394 0.99163 0.0
H1115 H 0.76981 0.21227 0.00683 0.0
H1116 H 0.7869 0.18808 0.02292 0.0
H1117 H 0.77073 0.2094 0.07465 0.0
H1118 H 0.75316 0.23352 0.0588 0.0
H1119 H 0.663 0.23783 0.98952 0.0
H1120 H 0.69643 0.23754 0.98794 0.0
H1121 H 0.6983 0.26328 0.04 0.0
H1122 H 0.66511 0.26426 0.04125 0.0
H1123 H 0.72423 0.22915 0.03206 0.0
H1124 H 0.70483 0.29008 0.01189 0.0
H1125 H 0.6863 0.31025 0.99203 0.0
H1126 H 0.70827 0.28487 0.94445 0.0
H1127 H 0.72674 0.26442 0.9641 0.0
C1128 C 0.80866 0.25324 0.02046 0.0
C1129 C 0.81575 0.25514 0.00272 0.0
C1130 C 0.78987 0.25268 0.02321 0.0
C1131 C 0.77796 0.25316 0.00818 0.0
C1132 C 0.78521 0.25546 0.99052 0.0
C1133 C 0.80383 0.25675 0.98787 0.0
C1134 C 0.75794 0.25194 0.01049 0.0
C1135 C 0.7468 0.2639 0.00033 0.0
C1136 C 0.74969 0.23907 0.022 0.0
C1137 C 0.76038 0.2248 0.03164 0.0
C1138 C 0.77 0.21185 0.02163 0.0
C1139 C 0.77971 0.19812 0.03071 0.0
C1140 C 0.78006 0.1973 0.0498 0.0
C1141 C 0.77049 0.21009 0.05986 0.0
C1142 C 0.76056 0.22373 0.05084 0.0
C1143 C 0.6706 0.2439 0.00028 0.0
C1144 C 0.66155 0.25173 0.01509 0.0
C1145 C 0.6896 0.24339 -0.00041 0.0
C1146 C 0.69972 0.25017 0.014 0.0
C1147 C 0.69069 0.25786 0.02885 0.0
C1148 C 0.67177 0.25878 0.02932 0.0
C1149 C 0.7197 0.25083 0.01283 0.0
C1150 C 0.73062 0.23896 0.02333 0.0
C1151 C 0.72791 0.26329 0.00115 0.0
C1152 C 0.71701 0.2757 0.98942 0.0
C1153 C 0.70559 0.28875 0.9972 0.0
C1154 C 0.69513 0.30023 0.98599 0.0
C1155 C 0.69608 0.29882 0.96699 0.0
C1156 C 0.70753 0.28594 0.95917 0.0
C1157 C 0.71801 0.27442 0.97032 0.0
H1158 H 0.68797 0.30773 0.95833 0.0
H1159 H 0.7877 0.18672 0.05676 0.0
H1160 H 0.24313 0.03862 0.41094 0.0
H1161 H 0.24125 0.03973 0.44417 0.0
H1162 H 0.27551 0.99256 0.4487 0.0
H1163 H 0.27785 0.99146 0.41529 0.0
H1164 H 0.24321 0.99421 0.47213 0.0
H1165 H 0.29291 0.0334 0.4521 0.0
H1166 H 0.30422 0.05993 0.43597 0.0
H1167 H 0.26742 0.09326 0.4664 0.0
H1168 H 0.25563 0.06695 0.48248 0.0
H1169 H 0.25999 0.99162 0.5664 0.0
H1170 H 0.26335 0.99069 0.53303 0.0
H1171 H 0.25425 0.04757 0.52964 0.0
H1172 H 0.25326 0.04869 0.56246 0.0
H1173 H 0.27306 0.04261 0.5045 0.0
H1174 H 0.21964 0.01364 0.51992 0.0
H1175 H 0.19873 0.99294 0.53493 0.0
H1176 H 0.2286 0.94862 0.51258 0.0
H1177 H 0.24978 0.96906 0.49753 0.0
C1178 C 0.25005 0.02824 0.41893 0.0
C1179 C 0.26077 0.01496 0.41037 0.0
C1180 C 0.24907 0.02905 0.43797 0.0
C1181 C 0.25863 0.01653 0.44888 0.0
C1182 C 0.26823 0.00251 0.44046 0.0
C1183 C 0.26937 0.00175 0.42136 0.0
C1184 C 0.25853 0.01789 0.4691 0.0
C1185 C 0.24996 0.00463 0.47929 0.0
C1186 C 0.26608 0.03232 0.47832 0.0
C1187 C 0.27326 0.0481 0.46842 0.0
C1188 C 0.28708 0.04634 0.45524 0.0
C1189 C 0.2936 0.06137 0.44611 0.0
C1190 C 0.2865 0.07826 0.45011 0.0
C1191 C 0.27289 0.08017 0.46328 0.0
C1192 C 0.2663 0.0652 0.47241 0.0
C1193 C 0.25917 0.00391 0.55848 0.0
C1194 C 0.25629 0.02017 0.56721 0.0
C1195 C 0.26077 0.00339 0.53932 0.0
C1196 C 0.25846 0.01901 0.52844 0.0
C1197 C 0.25617 0.03525 0.53735 0.0
C1198 C 0.25548 0.03584 0.55636 0.0
C1199 C 0.25797 0.01855 0.50792 0.0
C1200 C 0.2663 0.03207 0.49757 0.0
C1201 C 0.24879 0.00524 0.49843 0.0
C1202 C 0.23642 0.99285 0.5078 0.0
C1203 C 0.22185 -0.00054 0.51836 0.0
C1204 C 0.20992 0.98779 0.52683 0.0
C1205 C 0.21238 0.96947 0.52476 0.0
C1206 C 0.22675 0.9628 0.5142 0.0
C1207 C 0.2387 0.97443 0.50568 0.0
H1208 H 0.20311 0.96045 0.53131 0.0
H1209 H 0.29154 0.08987 0.44305 0.0
H1210 H 0.27536 0.01211 0.66634 0.0
H1211 H 0.27439 0.00882 0.69951 0.0
H1212 H 0.21586 0.011 0.69797 0.0
H1213 H 0.21692 0.0147 0.66467 0.0
H1214 H 0.23048 0.0365 0.72022 0.0
H1215 H 0.23835 0.973 0.71222 0.0
H1216 H 0.25415 0.94805 0.69695 0.0
H1217 H 0.30467 0.96289 0.72058 0.0
H1218 H 0.2892 0.98804 0.73582 0.0
H1219 H 0.21614 0.02235 0.81448 0.0
H1220 H 0.21766 0.02411 0.78167 0.0
H1221 H 0.27494 0.01053 0.78359 0.0
H1222 H 0.27314 0.00706 0.81696 0.0
H1223 H 0.261 0.99117 0.76041 0.0
H1224 H 0.25346 0.05266 0.77163 0.0
H1225 H 0.24043 0.08074 0.78312 0.0
H1226 H 0.19287 0.0746 0.75048 0.0
H1227 H 0.20484 0.04573 0.73984 0.0
C1228 C 0.26231 0.0107 0.67297 0.0
C1229 C 0.24623 0.01315 0.66292 0.0
C1230 C 0.26174 0.00916 0.69199 0.0
C1231 C 0.24505 0.00979 0.70125 0.0
C1232 C 0.22889 0.01055 0.6911 0.0
C1233 C 0.22949 0.01216 0.67203 0.0
C1234 C 0.24467 0.01119 0.72146 0.0
C1235 C 0.23674 0.02648 0.7292 0.0
C1236 C 0.25369 0.99849 0.73286 0.0
C1237 C 0.26262 0.98237 0.72519 0.0
C1238 C 0.25281 0.97085 0.71426 0.0
C1239 C 0.26171 0.95672 0.70555 0.0
C1240 C 0.2804 0.95389 0.70779 0.0
C1241 C 0.29019 0.96507 0.71889 0.0
C1242 C 0.28135 0.97923 0.72763 0.0
C1243 C 0.22926 0.01998 0.80814 0.0
C1244 C 0.24454 0.01426 0.81852 0.0
C1245 C 0.23008 0.02118 0.78916 0.0
C1246 C 0.24642 0.01756 0.77996 0.0
C1247 C 0.2621 0.01325 0.79034 0.0
C1248 C 0.26114 0.01146 0.80945 0.0
C1249 C 0.24658 0.01657 0.75962 0.0
C1250 C 0.25451 0.00129 0.75173 0.0
C1251 C 0.23772 0.02955 0.74809 0.0
C1252 C 0.23005 0.04672 0.75508 0.0
C1253 C 0.24002 0.05699 0.76721 0.0
C1254 C 0.23275 0.07305 0.77366 0.0
C1255 C 0.21571 0.07932 0.76772 0.0
C1256 C 0.20589 0.06952 0.75535 0.0
C1257 C 0.21287 0.05323 0.74919 0.0
H1258 H 0.21018 0.09184 0.77258 0.0
H1259 H 0.2873 0.94303 0.70092 0.0
H1260 H 0.22688 0.96918 0.06574 0.0
H1261 H 0.22337 0.97135 0.03249 0.0
H1262 H 0.24956 0.02188 0.03217 0.0
H1263 H 0.25121 0.02066 0.0652 0.0
H1264 H 0.22795 0.02276 0.00584 0.0
H1265 H 0.2754 0.97209 0.02207 0.0
H1266 H 0.28153 0.94272 0.03615 0.0
H1267 H 0.23305 0.92305 0.0123 0.0
H1268 H 0.22726 0.95219 0.99706 0.0
H1269 H 0.25658 0.02862 0.91585 0.0
H1270 H 0.26058 0.0257 0.94902 0.0
H1271 H 0.24164 0.97203 0.94708 0.0
H1272 H 0.23982 0.97443 0.91437 0.0
H1273 H 0.25804 0.97207 0.97452 0.0
H1274 H 0.21251 0.01349 0.95281 0.0
H1275 H 0.19964 0.03978 0.93631 0.0
H1276 H 0.23206 0.07381 0.96854 0.0
H1277 H 0.24525 0.04768 0.98511 0.0
C1278 C 0.23129 0.981 0.05857 0.0
C1279 C 0.23956 0.99459 0.06813 0.0
C1280 C 0.22972 0.98205 0.03946 0.0
C1281 C 0.23718 0.99631 0.02953 0.0
C1282 C 0.24394 0.01056 0.0393 0.0
C1283 C 0.24486 0.00984 0.05834 0.0
C1284 C 0.23927 0.99623 0.00917 0.0
C1285 C 0.23463 0.01171 -0.00099 0.0
C1286 C 0.24712 0.98162 -0.00019 0.0
C1287 C 0.25077 0.96427 0.0088 0.0
C1288 C 0.26603 0.96151 0.01994 0.0
C1289 C 0.26939 0.9449 0.02818 0.0
C1290 C 0.25737 0.93111 0.02566 0.0
C1291 C 0.2422 0.93379 0.01446 0.0
C1292 C 0.23901 0.95026 0.00583 0.0
C1293 C 0.25447 0.01586 0.92247 0.0
C1294 C 0.24782 0.00174 0.91245 0.0
C1295 C 0.25621 0.01434 0.94153 0.0
C1296 C 0.25037 -0.00101 0.95087 0.0
C1297 C 0.24599 0.98419 0.94052 0.0
C1298 C 0.24501 0.98552 0.92154 0.0
C1299 C 0.24688 -0.00128 0.97103 0.0
C1300 C 0.25134 0.98322 0.98119 0.0
C1301 C 0.23773 0.01292 0.98006 0.0
C1302 C 0.23 0.02865 0.97004 0.0
C1303 C 0.21697 0.02658 0.95629 0.0
C1304 C 0.20961 0.04145 0.94694 0.0
C1305 C 0.21507 0.05845 0.95134 0.0
C1306 C 0.22787 0.06063 0.96512 0.0
C1307 C 0.23529 0.0458 0.9745 0.0
H1308 H 0.20934 0.06995 0.9441 0.0
H1309 H 0.25995 0.91822 0.03198 0.0
H1310 H 0.27761 0.97882 0.16603 0.0
H1311 H 0.27983 0.98562 0.19819 0.0
H1312 H 0.2281 0.0138 0.19557 0.0
H1313 H 0.22586 0.00712 0.16262 0.0
H1314 H 0.25952 0.03096 0.21583 0.0
H1315 H 0.22783 0.97438 0.21259 0.0
H1316 H 0.22554 0.9437 0.20178 0.0
H1317 H 0.27724 0.92987 0.22585 0.0
H1318 H 0.27991 0.96051 0.23665 0.0
H1319 H 0.23693 0.02978 0.31079 0.0
H1320 H 0.23743 0.02755 0.27745 0.0
H1321 H 0.28491 0.99286 0.28098 0.0
H1322 H 0.28469 0.99528 0.31431 0.0
H1323 H 0.25802 0.97997 0.25969 0.0
H1324 H 0.29208 0.03066 0.26403 0.0
H1325 H 0.3027 0.06028 0.27182 0.0
H1326 H 0.25674 0.08469 0.24435 0.0
H1327 H 0.24569 0.05519 0.23655 0.0
C1328 C 0.26662 0.98647 0.17223 0.0
C1329 C 0.25146 0.99236 0.16189 0.0
C1330 C 0.26799 0.99038 0.19061 0.0
C1331 C 0.25415 0.00015 0.19923 0.0
C1332 C 0.23893 0.00623 0.18904 0.0
C1333 C 0.23751 0.00223 0.17039 0.0
C1334 C 0.25548 0.00291 0.21913 0.0
C1335 C 0.25866 0.01998 0.22557 0.0
C1336 C 0.25592 0.98826 0.23151 0.0
C1337 C 0.25409 0.96975 0.22534 0.0
C1338 C 0.23873 0.96481 0.21551 0.0
C1339 C 0.23736 0.94743 0.20939 0.0
C1340 C 0.25124 0.93485 0.21311 0.0
C1341 C 0.2665 0.93962 0.22299 0.0
C1342 C 0.26792 0.95697 0.22914 0.0
C1343 C 0.24722 0.02134 0.30451 0.0
C1344 C 0.26056 0.01237 0.31519 0.0
C1345 C 0.24773 0.02042 0.28544 0.0
C1346 C 0.26141 0.01033 0.27677 0.0
C1347 C 0.27435 0.00087 0.28742 0.0
C1348 C 0.27401 0.00199 0.30645 0.0
C1349 C 0.26103 0.00822 0.25672 0.0
C1350 C 0.25844 0.99115 0.25014 0.0
C1351 C 0.26195 0.0228 0.24424 0.0
C1352 C 0.26783 0.0406 0.24998 0.0
C1353 C 0.28401 0.04229 0.25995 0.0
C1354 C 0.29019 0.05909 0.26427 0.0
C1355 C 0.28036 0.07435 0.25867 0.0
C1356 C 0.26431 0.07285 0.24874 0.0
C1357 C 0.25808 0.05608 0.24436 0.0
H1358 H 0.2852 0.08734 0.26196 0.0
H1359 H 0.25016 0.92141 0.20836 0.0
H1360 H 0.41599 0.28494 0.02214 0.0
H1361 H 0.44858 0.28344 0.02553 0.0
H1362 H 0.44721 0.2265 0.03146 0.0
H1363 H 0.41378 0.22788 0.02771 0.0
H1364 H 0.47386 0.24441 0.05485 0.0
H1365 H 0.45614 0.24326 0.99068 0.0
H1366 H 0.44248 0.2535 0.96145 0.0
H1367 H 0.47 0.30278 0.96492 0.0
H1368 H 0.4836 0.29295 0.99429 0.0
H1369 H 0.5622 0.22035 0.02016 0.0
H1370 H 0.52955 0.22411 0.02578 0.0
H1371 H 0.53412 0.28094 0.02138 0.0
H1372 H 0.56715 0.27718 0.0167 0.0
H1373 H 0.50625 0.26528 -0.00066 0.0
H1374 H 0.52539 0.26864 0.05991 0.0
H1375 H 0.54052 0.26177 0.08929 0.0
H1376 H 0.51165 0.21322 0.09428 0.0
H1377 H 0.49651 0.21966 0.06477 0.0
C1378 C 0.42238 0.27201 0.02468 0.0
C1379 C 0.41207 0.25648 0.02463 0.0
C1380 C 0.44119 0.27122 0.02645 0.0
C1381 C 0.45049 0.25487 0.02826 0.0
C1382 C 0.4403 0.23931 0.02983 0.0
C1383 C 0.42118 0.24008 0.02789 0.0
C1384 C 0.47078 0.25432 0.02725 0.0
C1385 C 0.48097 0.24859 0.04259 0.0
C1386 C 0.48012 0.26097 0.01167 0.0
C1387 C 0.47066 0.26746 0.99485 0.0
C1388 C 0.45899 0.25642 0.9854 0.0
C1389 C 0.45134 0.26211 0.96874 0.0
C1390 C 0.45532 0.2788 0.96136 0.0
C1391 C 0.46687 0.28988 0.97067 0.0
C1392 C 0.47452 0.28426 0.98733 0.0
C1393 C 0.55615 0.23363 0.01987 0.0
C1394 C 0.56707 0.24846 0.01721 0.0
C1395 C 0.53757 0.23578 0.02354 0.0
C1396 C 0.5294 0.25279 0.02427 0.0
C1397 C 0.54016 0.26767 0.02106 0.0
C1398 C 0.55893 0.26553 0.01801 0.0
C1399 C 0.50935 0.25476 0.02663 0.0
C1400 C 0.49918 0.26097 0.0116 0.0
C1401 C 0.50015 0.24901 0.04262 0.0
C1402 C 0.51006 0.24447 0.05986 0.0
C1403 C 0.52254 0.25631 0.06704 0.0
C1404 C 0.53103 0.25255 0.08381 0.0
C1405 C 0.52713 0.23702 0.0936 0.0
C1406 C 0.51471 0.22522 0.08665 0.0
C1407 C 0.50617 0.22892 0.06989 0.0
H1408 H 0.53367 0.23416 0.1066 0.0
H1409 H 0.4495 0.28312 0.9484 0.0
H1410 H 0.90706 0.26075 0.02922 0.0
H1411 H 0.9395 0.26683 0.02734 0.0
H1412 H 0.93964 0.25301 0.97045 0.0
H1413 H 0.9076 0.24718 0.97235 0.0
H1414 H 0.96194 0.23108 0.99275 0.0
H1415 H 0.95254 0.29151 0.97773 0.0
H1416 H 0.9373 0.32088 0.98046 0.0
H1417 H 0.95884 0.32566 0.03457 0.0
H1418 H 0.97405 0.29615 0.03226 0.0
H1419 H 0.05666 0.23712 0.98401 0.0
H1420 H 0.02421 0.23896 0.98123 0.0
H1421 H 0.02003 0.26409 0.03366 0.0
H1422 H 0.05324 0.26421 0.03562 0.0
H1423 H -0.00056 0.28164 0.01034 0.0
H1424 H 0.00794 0.21789 0.02343 0.0
H1425 H 0.02233 0.18856 0.01757 0.0
H1426 H 0.00171 0.19043 0.9627 0.0
H1427 H 0.98741 0.21986 0.96815 0.0
C1428 C 0.91382 0.26002 0.01608 0.0
C1429 C 0.90462 0.25386 0.00079 0.0
C1430 C 0.93235 0.26334 0.01505 0.0
C1431 C 0.94192 0.26021 -0.00123 0.0
C1432 C 0.93246 0.25555 0.98311 0.0
C1433 C 0.91394 0.25246 0.98413 0.0
C1434 C 0.96194 0.25889 -0.00098 0.0
C1435 C 0.97023 0.24217 0.99635 0.0
C1436 C 0.97256 0.27337 0.00372 0.0
C1437 C 0.96434 0.29155 0.00489 0.0
C1438 C 0.95401 0.2988 0.99025 0.0
C1439 C 0.94536 0.31547 0.99171 0.0
C1440 C 0.94706 0.32511 0.0077 0.0
C1441 C 0.95754 0.31816 0.02219 0.0
C1442 C 0.96622 0.30147 0.0208 0.0
C1443 C 0.04902 0.24276 0.99526 0.0
C1444 C 0.05774 0.2508 0.00996 0.0
C1445 C 0.03024 0.2437 0.99364 0.0
C1446 C 0.01951 0.25151 0.00729 0.0
C1447 C 0.02804 0.2581 0.02286 0.0
C1448 C 0.04702 0.25787 0.02414 0.0
C1449 C -0.00046 0.25355 0.00478 0.0
C1450 C 0.99123 0.27049 0.00684 0.0
C1451 C 0.98887 0.23927 -0.00088 0.0
C1452 C 0.99668 0.22113 0.9962 0.0
C1453 C 0.00647 0.21204 0.01013 0.0
C1454 C 0.01464 0.19541 0.00686 0.0
C1455 C 0.01297 0.18766 0.98977 0.0
C1456 C 0.003 0.19645 0.97593 0.0
C1457 C 0.99483 0.21309 0.97912 0.0
H1458 H 0.01937 0.17482 0.98725 0.0
H1459 H 0.94028 0.33797 0.00886 0.0
H1460 H 0.9868 0.66776 0.27494 0.0
H1461 H 0.98496 0.70054 0.27459 0.0
H1462 H 0.0113 0.70168 0.22197 0.0
H1463 H 0.01225 0.66944 0.22172 0.0
H1464 H 0.02803 0.72244 0.25164 0.0
H1465 H 0.97428 0.71348 0.21831 0.0
H1466 H 0.94471 0.70056 0.21187 0.0
H1467 H 0.92179 0.72563 0.25915 0.0
H1468 H 0.95142 0.73836 0.26616 0.0
H1469 H 0.01492 0.81551 0.22523 0.0
H1470 H 0.01633 0.78289 0.22549 0.0
H1471 H 0.98874 0.78192 0.27746 0.0
H1472 H 0.98781 0.81436 0.27762 0.0
H1473 H 0.97249 0.7611 0.24731 0.0
H1474 H 0.02923 0.77067 0.27883 0.0
H1475 H 0.05926 0.78397 0.28144 0.0
H1476 H 0.0768 0.75816 0.23239 0.0
H1477 H 0.04674 0.74495 0.2293 0.0
C1478 C 0.99174 0.67505 0.26313 0.0
C1479 C -0.00042 0.66596 0.24835 0.0
C1480 C 0.9908 0.69372 0.26298 0.0
C1481 C 0.99819 0.70348 0.24832 0.0
C1482 C 0.0056 0.69441 0.23343 0.0
C1483 C 0.00599 0.6759 0.23329 0.0
C1484 C -0.00107 0.72312 0.2487 0.0
C1485 C 0.0159 0.73091 0.25063 0.0
C1486 C 0.98312 0.73411 0.24713 0.0
C1487 C 0.9652 0.72661 0.24297 0.0
C1488 C 0.96302 0.71603 0.22751 0.0
C1489 C 0.94623 0.70877 0.22372 0.0
C1490 C 0.9314 0.71219 0.23515 0.0
C1491 C 0.93332 0.72293 0.25035 0.0
C1492 C 0.95013 0.73016 0.25426 0.0
C1493 C 0.00973 0.80832 0.23699 0.0
C1494 C 0.00141 0.81753 0.25145 0.0
C1495 C 0.01034 0.78971 0.23702 0.0
C1496 C 0.00238 0.78003 0.25137 0.0
C1497 C 0.99481 0.78917 0.26619 0.0
C1498 C 0.99454 0.80773 0.26636 0.0
C1499 C 0.00155 0.76039 0.25076 0.0
C1500 C 0.98458 0.75261 0.24857 0.0
C1501 C 0.01741 0.74941 0.25163 0.0
C1502 C 0.03565 0.75697 0.25373 0.0
C1503 C 0.03944 0.76794 0.26852 0.0
C1504 C 0.05647 0.77545 0.27009 0.0
C1505 C 0.06992 0.77195 0.25706 0.0
C1506 C 0.06637 0.76088 0.24246 0.0
C1507 C 0.04933 0.75337 0.2408 0.0
H1508 H 0.08309 0.77779 0.2583 0.0
H1509 H 0.9184 0.70658 0.23219 0.0
H1510 H 0.55174 0.7635 0.47977 0.0
H1511 H 0.5188 0.76399 0.47952 0.0
H1512 H 0.51836 0.74763 0.53632 0.0
H1513 H 0.55191 0.7477 0.53688 0.0
H1514 H 0.49572 0.72792 0.50754 0.0
H1515 H 0.50856 0.78718 0.53012 0.0
H1516 H 0.52308 0.81623 0.52788 0.0
H1517 H 0.49795 0.82636 0.47568 0.0
H1518 H 0.48343 0.79727 0.47753 0.0
H1519 H 0.40605 0.73866 0.53396 0.0
H1520 H 0.43884 0.7422 0.53278 0.0
H1521 H 0.43348 0.77044 0.48117 0.0
H1522 H 0.40059 0.76676 0.48215 0.0
H1523 H 0.45934 0.78432 0.50324 0.0
H1524 H 0.44637 0.72945 0.47785 0.0
H1525 H 0.43536 0.69936 0.47251 0.0
H1526 H 0.4621 0.67991 0.52115 0.0
H1527 H 0.47339 0.70978 0.52686 0.0
C1528 C 0.54469 0.75973 0.4922 0.0
C1529 C 0.5543 0.75522 0.50832 0.0
C1530 C 0.52589 0.76022 0.49203 0.0
C1531 C 0.51631 0.75597 0.50789 0.0
C1532 C 0.52573 0.75104 0.52399 0.0
C1533 C 0.54475 0.75099 0.52431 0.0
C1534 C 0.49639 0.7564 0.50732 0.0
C1535 C 0.48764 0.74019 0.5071 0.0
C1536 C 0.48624 0.7725 0.50506 0.0
C1537 C 0.49503 0.78997 0.50391 0.0
C1538 C 0.50626 0.79552 0.51809 0.0
C1539 C 0.51445 0.81202 0.51691 0.0
C1540 C 0.51146 0.82312 0.50163 0.0
C1541 C 0.50026 0.81775 0.48751 0.0
C1542 C 0.49202 0.80127 0.48863 0.0
C1543 C 0.41173 0.74622 0.52271 0.0
C1544 C 0.40083 0.75228 0.50803 0.0
C1545 C 0.43049 0.74794 0.52189 0.0
C1546 C 0.43852 0.756 0.50658 0.0
C1547 C 0.4275 0.76389 0.49293 0.0
C1548 C 0.40873 0.76202 0.49365 0.0
C1549 C 0.45844 0.75576 0.50484 0.0
C1550 C 0.46729 0.77198 0.50404 0.0
C1551 C 0.46876 0.7396 0.50538 0.0
C1552 C 0.46049 0.722 0.50298 0.0
C1553 C 0.44961 0.71887 0.48764 0.0
C1554 C 0.44341 0.70182 0.48447 0.0
C1555 C 0.44787 0.68781 0.49653 0.0
C1556 C 0.45856 0.6908 0.51185 0.0
C1557 C 0.4649 0.70778 0.51505 0.0
H1558 H 0.44314 0.67462 0.49396 0.0
H1559 H 0.5178 0.83589 0.50076 0.0
H1560 H 0.91805 0.76297 0.48957 0.0
H1561 H 0.95064 0.76475 0.49375 0.0
H1562 H 0.9455 0.74533 0.54923 0.0
H1563 H 0.91234 0.74389 0.54522 0.0
H1564 H 0.97069 0.77351 0.54589 0.0
H1565 H 0.9606 0.71771 0.51688 0.0
H1566 H 0.94746 0.6987 0.49355 0.0
H1567 H 0.97441 0.72814 0.45121 0.0
H1568 H 0.98749 0.7475 0.47428 0.0
H1569 H 0.06465 0.74983 0.55567 0.0
H1570 H 0.03197 0.75348 0.55482 0.0
H1571 H 0.03405 0.76059 0.49619 0.0
H1572 H 0.06715 0.75549 0.4969 0.0
H1573 H 0.00975 0.73981 0.50266 0.0
H1574 H 0.02228 0.79463 0.53201 0.0
H1575 H 0.03511 0.8139 0.55529 0.0
H1576 H 0.0043 0.78772 0.59709 0.0
H1577 H 0.99149 0.76806 0.57416 0.0
C1578 C 0.92375 0.75878 0.50265 0.0
C1579 C 0.91239 0.75305 0.51698 0.0
C1580 C 0.94251 0.75997 0.50506 0.0
C1581 C 0.95075 0.75513 0.52179 0.0
C1582 C 0.93956 0.74922 0.53619 0.0
C1583 C 0.92059 0.74814 0.53379 0.0
C1584 C 0.97109 0.75537 0.5235 0.0
C1585 C 0.97931 0.76599 0.53663 0.0
C1586 C 0.98244 0.746 0.51112 0.0
C1587 C 0.97491 0.73412 0.49729 0.0
C1588 C 0.96365 0.72018 0.50259 0.0
C1589 C 0.95621 0.70934 0.48941 0.0
C1590 C 0.96007 0.71223 0.47091 0.0
C1591 C 0.97142 0.72593 0.46555 0.0
C1592 C 0.97887 0.73682 0.47866 0.0
C1593 C 0.05829 0.75248 0.54252 0.0
C1594 C 0.06869 0.75243 0.52629 0.0
C1595 C 0.0394 0.75475 0.54211 0.0
C1596 C 0.03019 0.75772 0.52551 0.0
C1597 C 0.04064 0.75833 0.50927 0.0
C1598 C 0.05963 0.75548 0.50963 0.0
C1599 C 0.00973 0.75818 0.52487 0.0
C1600 C 0.00137 0.74756 0.51194 0.0
C1601 C -0.00157 0.76766 0.53746 0.0
C1602 C 0.00602 0.77969 0.5513 0.0
C1603 C 0.01834 0.79284 0.54618 0.0
C1604 C 0.02561 0.80386 0.55933 0.0
C1605 C 0.02057 0.802 0.57766 0.0
C1606 C 0.00822 0.78913 0.58288 0.0
C1607 C 0.00093 0.77806 0.5698 0.0
H1608 H 0.02619 0.81055 0.58781 0.0
H1609 H 0.95428 0.70384 0.46073 0.0
H1610 H 0.95779 0.16076 0.25314 0.0
H1611 H 0.95822 0.19255 0.25821 0.0
H1612 H 0.01677 0.19041 0.25751 0.0
H1613 H 0.01625 0.15795 0.25419 0.0
H1614 H 0.00525 0.21243 0.28314 0.0
H1615 H 0.98653 0.20588 0.21843 0.0
H1616 H 0.96558 0.19294 0.19635 0.0
H1617 H 0.92011 0.21746 0.22379 0.0
H1618 H 0.94078 0.23042 0.2461 0.0
H1619 H 0.02543 0.30153 0.2615 0.0
H1620 H 0.02123 0.26955 0.26411 0.0
H1621 H 0.96321 0.27828 0.26092 0.0
H1622 H 0.96744 0.3104 0.25786 0.0
H1623 H 0.97112 0.25292 0.24053 0.0
H1624 H 0.98611 0.2644 0.30065 0.0
H1625 H 0.00143 0.27452 0.32829 0.0
H1626 H 0.04715 0.23981 0.31728 0.0
H1627 H 0.03251 0.22999 0.28912 0.0
C1628 C 0.97078 0.16713 0.25342 0.0
C1629 C 0.987 0.15696 0.2523 0.0
C1630 C 0.97103 0.18539 0.25651 0.0
C1631 C 0.98753 0.19424 0.25763 0.0
C1632 C 0.00383 0.18407 0.25646 0.0
C1633 C 0.00356 0.16558 0.25415 0.0
C1634 C 0.98774 0.21405 0.25966 0.0
C1635 C 0.99815 0.22136 0.27361 0.0
C1636 C 0.97735 0.22575 0.24814 0.0
C1637 C 0.96518 0.21912 0.23386 0.0
C1638 C 0.97207 0.20861 0.21964 0.0
C1639 C 0.96025 0.20122 0.20714 0.0
C1640 C 0.94153 0.20438 0.20867 0.0
C1641 C 0.9346 0.21506 0.2226 0.0
C1642 C 0.94637 0.22248 0.23513 0.0
C1643 C 0.01176 0.29664 0.26116 0.0
C1644 C 0.99677 0.30852 0.2591 0.0
C1645 C 0.00936 0.2783 0.26296 0.0
C1646 C 0.99188 0.27131 0.26295 0.0
C1647 C 0.97686 0.28321 0.26095 0.0
C1648 C 0.97927 0.3016 0.25905 0.0
C1649 C 0.98946 0.25158 0.26349 0.0
C1650 C 0.97848 0.2442 0.25008 0.0
C1651 C -0.00122 0.23993 0.27606 0.0
C1652 C 0.00822 0.24658 0.2925 0.0
C1653 C -0.00041 0.25915 0.30386 0.0
C1654 C 0.00815 0.26481 0.31969 0.0
C1655 C 0.02526 0.25782 0.32453 0.0
C1656 C 0.03387 0.24518 0.31353 0.0
C1657 C 0.02549 0.23966 0.29754 0.0
H1658 H 0.03186 0.26222 0.33679 0.0
H1659 H 0.93239 0.19855 0.19905 0.0
H1660 H 0.46759 0.81122 0.7627 0.0
H1661 H 0.46366 0.77894 0.76605 0.0
H1662 H 0.51878 0.76965 0.74805 0.0
H1663 H 0.52274 0.80162 0.74477 0.0
H1664 H 0.49563 0.75027 0.72912 0.0
H1665 H 0.51139 0.75396 0.79328 0.0
H1666 H 0.51046 0.76564 0.82453 0.0
H1667 H 0.45261 0.76102 0.82586 0.0
H1668 H 0.45328 0.7485 0.79482 0.0
H1669 H 0.51126 0.65813 0.75235 0.0
H1670 H 0.51252 0.69059 0.7548 0.0
H1671 H 0.45409 0.69443 0.75508 0.0
H1672 H 0.45281 0.66204 0.75194 0.0
H1673 H 0.47726 0.71626 0.78451 0.0
H1674 H 0.4672 0.70533 0.7192 0.0
H1675 H 0.47541 0.6886 0.69159 0.0
H1676 H 0.52997 0.70682 0.69473 0.0
H1677 H 0.52214 0.72336 0.7226 0.0
C1678 C 0.47878 0.80225 0.75926 0.0
C1679 C 0.49535 0.809 0.75302 0.0
C1680 C 0.47662 0.78381 0.76149 0.0
C1681 C 0.49096 0.77176 0.7574 0.0
C1682 C 0.5075 0.77858 0.7513 0.0
C1683 C 0.50969 0.7969 0.74924 0.0
C1684 C 0.48839 0.75211 0.7576 0.0
C1685 C 0.4916 0.74295 0.74129 0.0
C1686 C 0.48321 0.74231 0.77342 0.0
C1687 C 0.48236 0.75058 0.79164 0.0
C1688 C 0.49845 0.75559 0.80018 0.0
C1689 C 0.49798 0.76226 0.81788 0.0
C1690 C 0.48147 0.76429 0.82709 0.0
C1691 C 0.46538 0.75946 0.81868 0.0
C1692 C 0.46581 0.75245 0.80107 0.0
C1693 C 0.49871 0.66598 0.75232 0.0
C1694 C 0.48196 0.65763 0.75109 0.0
C1695 C 0.49943 0.68446 0.75415 0.0
C1696 C 0.48339 0.69495 0.75539 0.0
C1697 C 0.46663 0.68663 0.7543 0.0
C1698 C 0.46592 0.66819 0.752 0.0
C1699 C 0.48427 0.71473 0.75594 0.0
C1700 C 0.48087 0.72379 0.77232 0.0
C1701 C 0.48973 0.72449 0.74033 0.0
C1702 C 0.49411 0.7155 0.72298 0.0
C1703 C 0.48095 0.70573 0.714 0.0
C1704 C 0.48554 0.69626 0.69834 0.0
C1705 C 0.50321 0.69663 0.69142 0.0
C1706 C 0.51629 0.70655 0.7001 0.0
C1707 C 0.51178 0.71599 0.71582 0.0
H1708 H 0.50676 0.68925 0.67932 0.0
H1709 H 0.48117 0.76951 0.84078 0.0
H1710 H 0.00478 0.4261 0.71588 0.0
H1711 H 0.00317 0.45876 0.71249 0.0
H1712 H -0.00156 0.46329 0.77093 0.0
H1713 H 0.00093 0.43089 0.77437 0.0
H1714 H 0.9703 0.48376 0.74646 0.0
H1715 H 0.03591 0.4728 0.75607 0.0
H1716 H 0.06493 0.45822 0.74727 0.0
H1717 H 0.06035 0.4815 0.6934 0.0
H1718 H 0.03114 0.49602 0.70182 0.0
H1719 H 0.98734 0.57689 0.76489 0.0
H1720 H 0.98527 0.54415 0.7654 0.0
H1721 H 0.00369 0.5428 0.70948 0.0
H1722 H 0.00557 0.57501 0.70888 0.0
H1723 H 0.02317 0.52008 0.73019 0.0
H1724 H 0.96242 0.53461 0.71856 0.0
H1725 H 0.93093 0.5462 0.72034 0.0
H1726 H 0.92212 0.51484 0.76885 0.0
H1727 H 0.95381 0.5036 0.76799 0.0
C1728 C 0.00414 0.43414 0.728 0.0
C1729 C 0.00377 0.42598 0.74544 0.0
C1730 C 0.00288 0.45276 0.72605 0.0
C1731 C 0.00049 0.4635 0.74147 0.0
C1732 C 0.00024 0.45533 0.75885 0.0
C1733 C 0.00206 0.43682 0.76082 0.0
C1734 C -0.00133 0.48327 0.73966 0.0
C1735 C 0.98186 0.49185 0.74325 0.0
C1736 C 0.0135 0.49365 0.73438 0.0
C1737 C 0.03129 0.48535 0.72953 0.0
C1738 C 0.04104 0.47472 0.74232 0.0
C1739 C 0.05752 0.46648 0.73741 0.0
C1740 C 0.06446 0.46889 0.71978 0.0
C1741 C 0.05495 0.47963 0.70705 0.0
C1742 C 0.03845 0.48788 0.71189 0.0
C1743 C 0.99108 0.56952 0.75282 0.0
C1744 C 0.99698 0.57852 0.73697 0.0
C1745 C 0.98965 0.55085 0.75301 0.0
C1746 C 0.99431 0.54091 0.73744 0.0
C1747 C 4e-05 0.55003 0.72168 0.0
C1748 C 0.00122 0.56851 0.7214 0.0
C1749 C 0.99486 0.52099 0.73779 0.0
C1750 C 0.01148 0.51226 0.73369 0.0
C1751 C 0.97955 0.51057 0.74191 0.0
C1752 C 0.96082 0.51851 0.74343 0.0
C1753 C 0.95402 0.53054 0.72996 0.0
C1754 C 0.93605 0.537 0.73074 0.0
C1755 C 0.92457 0.53138 0.74475 0.0
C1756 C 0.93108 0.51934 0.7581 0.0
C1757 C 0.94909 0.51297 0.75751 0.0
H1758 H 0.91062 0.53627 0.74521 0.0
H1759 H 0.07721 0.46248 0.71599 0.0
H1760 H 0.1914 0.23104 0.44855 0.0
H1761 H 0.22413 0.22473 0.45152 0.0
H1762 H 0.22184 0.24051 0.50778 0.0
H1763 H 0.18875 0.246 0.50507 0.0
H1764 H 0.2474 0.25901 0.47996 0.0
H1765 H 0.23073 0.20248 0.50553 0.0
H1766 H 0.21664 0.1732 0.50666 0.0
H1767 H 0.2476 0.15708 0.45978 0.0
H1768 H 0.26174 0.18636 0.45819 0.0
H1769 H 0.33113 0.24866 0.51819 0.0
H1770 H 0.29969 0.24445 0.51133 0.0
H1771 H 0.31465 0.21763 0.46181 0.0
H1772 H 0.34722 0.22141 0.46906 0.0
H1773 H 0.28311 0.20216 0.48233 0.0
H1774 H 0.29985 0.25855 0.45684 0.0
H1775 H 0.31468 0.28748 0.4567 0.0
H1776 H 0.28304 0.30334 0.50326 0.0
H1777 H 0.26819 0.27442 0.50382 0.0
C1778 C 0.19792 0.23337 0.46152 0.0
C1779 C 0.18761 0.23972 0.47639 0.0
C1780 C 0.21658 0.2294 0.46329 0.0
C1781 C 0.22552 0.23195 0.4799 0.0
C1782 C 0.21524 0.23823 0.49485 0.0
C1783 C 0.1964 0.24167 0.49323 0.0
C1784 C 0.24582 0.2306 0.48085 0.0
C1785 C 0.25514 0.24654 0.48058 0.0
C1786 C 0.25604 0.21428 0.48096 0.0
C1787 C 0.24708 0.19682 0.48153 0.0
C1788 C 0.23433 0.19284 0.49525 0.0
C1789 C 0.2264 0.17618 0.49604 0.0
C1790 C 0.23115 0.16332 0.48324 0.0
C1791 C 0.24388 0.16708 0.46965 0.0
C1792 C 0.25187 0.18371 0.46881 0.0
C1793 C 0.32806 0.2418 0.50575 0.0
C1794 C 0.34202 0.23559 0.49409 0.0
C1795 C 0.30983 0.23934 0.50189 0.0
C1796 C 0.30454 0.2309 0.48597 0.0
C1797 C 0.3183 0.22425 0.47422 0.0
C1798 C 0.33694 0.22659 0.47825 0.0
C1799 C 0.28458 0.23068 0.48165 0.0
C1800 C 0.27532 0.21457 0.48132 0.0
C1801 C 0.27419 0.24682 0.48082 0.0
C1802 C 0.28295 0.26431 0.48039 0.0
C1803 C 0.29612 0.26818 0.4671 0.0
C1804 C 0.30452 0.28458 0.46694 0.0
C1805 C 0.29981 0.29724 0.47997 0.0
C1806 C 0.28667 0.29353 0.49316 0.0
C1807 C 0.27822 0.27716 0.49338 0.0
H1808 H 0.30634 0.30992 0.47982 0.0
H1809 H 0.22503 0.15044 0.48389 0.0
H1810 H 0.50258 0.4405 0.212 0.0
H1811 H 0.5057 0.47267 0.21355 0.0
H1812 H 0.50964 0.46843 0.27227 0.0
H1813 H 0.50709 0.43589 0.27066 0.0
H1814 H 0.48285 0.49247 0.25928 0.0
H1815 H 0.54521 0.47931 0.24954 0.0
H1816 H 0.5738 0.46827 0.23582 0.0
H1817 H 0.56337 0.50035 0.1877 0.0
H1818 H 0.53442 0.51118 0.20082 0.0
H1819 H 0.49377 0.58285 0.27411 0.0
H1820 H 0.49744 0.5508 0.27294 0.0
H1821 H 0.50485 0.55428 0.21445 0.0
H1822 H 0.50301 0.58697 0.21602 0.0
H1823 H 0.52759 0.53042 0.22792 0.0
H1824 H 0.46297 0.54044 0.23717 0.0
H1825 H 0.43662 0.55399 0.25307 0.0
H1826 H 0.45347 0.5283 0.30336 0.0
H1827 H 0.48002 0.51476 0.28781 0.0
C1828 C 0.50386 0.44649 0.22528 0.0
C1829 C 0.50389 0.43585 0.2413 0.0
C1830 C 0.50603 0.46481 0.22609 0.0
C1831 C 0.5081 0.47295 0.24298 0.0
C1832 C 0.50817 0.46236 0.25907 0.0
C1833 C 0.50639 0.44388 0.25821 0.0
C1834 C 0.50772 0.49265 0.24386 0.0
C1835 C 0.49281 0.50073 0.25262 0.0
C1836 C 0.5205 0.50343 0.23469 0.0
C1837 C 0.53735 0.49589 0.22613 0.0
C1838 C 0.54874 0.48372 0.23586 0.0
C1839 C 0.5651 0.47755 0.2282 0.0
C1840 C 0.57037 0.48353 0.21087 0.0
C1841 C 0.55924 0.49563 0.20109 0.0
C1842 C 0.54282 0.50177 0.20863 0.0
C1843 C 0.49556 0.57678 0.26089 0.0
C1844 C 0.49729 0.58732 0.24503 0.0
C1845 C 0.49778 0.55838 0.26023 0.0
C1846 C 0.50081 0.5499 0.24353 0.0
C1847 C 0.50231 0.56043 0.2275 0.0
C1848 C 0.50089 0.57905 0.22831 0.0
C1849 C 0.50254 0.53011 0.24307 0.0
C1850 C 0.51763 0.52205 0.2344 0.0
C1851 C 0.48995 0.51919 0.25223 0.0
C1852 C 0.47349 0.52663 0.26133 0.0
C1853 C 0.46102 0.53766 0.25161 0.0
C1854 C 0.44608 0.54537 0.26057 0.0
C1855 C 0.44338 0.54202 0.27921 0.0
C1856 C 0.45557 0.53087 0.28891 0.0
C1857 C 0.47053 0.52314 0.28003 0.0
H1858 H 0.43185 0.54806 0.28614 0.0
H1859 H 0.58312 0.47886 0.2051 0.0
H1860 H 0.33034 0.76909 0.9942 0.0
H1861 H 0.2973 0.76954 0.99558 0.0
H1862 H 0.2968 0.71902 0.96886 0.0
H1863 H 0.33002 0.7185 0.96732 0.0
H1864 H 0.27126 0.748 0.95402 0.0
H1865 H 0.29028 0.71866 0.01298 0.0
H1866 H 0.30821 0.71935 0.04142 0.0
H1867 H 0.28275 0.76941 0.05491 0.0
H1868 H 0.26479 0.76905 0.0265 0.0
H1869 H 0.17821 0.7251 0.97657 0.0
H1870 H 0.21118 0.7247 0.96974 0.0
H1871 H 0.21766 0.76878 0.00582 0.0
H1872 H 0.18558 0.76876 0.01294 0.0
H1873 H 0.2405 0.74323 0.01417 0.0
H1874 H 0.22136 0.776 0.96252 0.0
H1875 H 0.20469 0.78433 0.93436 0.0
H1876 H 0.22991 0.74033 0.90669 0.0
H1877 H 0.24658 0.73153 0.93482 0.0
C1878 C 0.32327 0.75782 0.98913 0.0
C1879 C 0.33281 0.74367 0.9809 0.0
C1880 C 0.30439 0.75825 0.98961 0.0
C1881 C 0.29471 0.74443 0.98206 0.0
C1882 C 0.30413 0.7299 0.97451 0.0
C1883 C 0.32308 0.72944 0.97404 0.0
C1884 C 0.27475 0.7447 0.98314 0.0
C1885 C 0.26439 0.7466 0.96706 0.0
C1886 C 0.266 0.74405 0.00026 0.0
C1887 C 0.27624 0.74381 0.01767 0.0
C1888 C 0.28852 0.72979 0.02205 0.0
C1889 C 0.29869 0.73013 0.03814 0.0
C1890 C 0.29663 0.74441 0.04996 0.0
C1891 C 0.28432 0.75834 0.04576 0.0
C1892 C 0.27411 0.75805 0.0297 0.0
C1893 C 0.18691 0.73432 0.98326 0.0
C1894 C 0.1797 0.74653 0.99575 0.0
C1895 C 0.20553 0.73436 0.97911 0.0
C1896 C 0.21678 0.74672 0.98733 0.0
C1897 C 0.20928 0.75904 -0.00053 0.0
C1898 C 0.19101 0.75887 0.00369 0.0
C1899 C 0.23666 0.74606 0.98501 0.0
C1900 C 0.24713 0.74427 0.00095 0.0
C1901 C 0.24531 0.74795 0.96783 0.0
C1902 C 0.23497 0.75286 0.95095 0.0
C1903 C 0.22315 0.76789 0.95054 0.0
C1904 C 0.21376 0.77277 0.93455 0.0
C1905 C 0.21616 0.76281 0.91877 0.0
C1906 C 0.22801 0.74799 0.91895 0.0
C1907 C 0.23744 0.74305 0.93493 0.0
H1908 H 0.2089 0.76661 0.9064 0.0
H1909 H 0.30456 0.74468 0.06238 0.0
H1910 H 0.72417 0.00202 0.42786 0.0
H1911 H 0.72065 0.00269 0.46153 0.0
H1912 H 0.75549 0.95586 0.46678 0.0
H1913 H 0.75841 0.955 0.43402 0.0
H1914 H 0.72808 0.95197 0.48832 0.0
H1915 H 0.77205 0.9957 0.47736 0.0
H1916 H 0.78506 0.02239 0.46309 0.0
H1917 H 0.74105 0.05455 0.48419 0.0
H1918 H 0.72774 0.02798 0.49852 0.0
H1919 H 0.75332 0.95658 0.58335 0.0
H1920 H 0.75325 0.95522 0.54996 0.0
H1921 H 0.71612 0.0005 0.54738 0.0
H1922 H 0.71629 0.0021 0.58063 0.0
H1923 H 0.74341 0.00446 0.5244 0.0
H1924 H 0.69916 0.9543 0.53263 0.0
H1925 H 0.68857 0.92426 0.54046 0.0
H1926 H 0.73981 0.90147 0.52363 0.0
H1927 H 0.75053 0.9313 0.51535 0.0
C1928 C 0.73103 0.99198 0.43631 0.0
C1929 C 0.74152 0.97837 0.42826 0.0
C1930 C 0.72905 0.99232 0.45549 0.0
C1931 C 0.73777 0.97923 0.46673 0.0
C1932 C 0.74837 0.96593 0.45854 0.0
C1933 C 0.75012 0.9655 0.43968 0.0
C1934 C 0.73633 0.97917 0.48705 0.0
C1935 C 0.73143 0.96347 0.49623 0.0
C1936 C 0.741 0.99394 0.49743 0.0
C1937 C 0.7488 0.00989 0.48879 0.0
C1938 C 0.76509 0.00846 0.47882 0.0
C1939 C 0.77253 0.02356 0.47077 0.0
C1940 C 0.76385 0.04015 0.47268 0.0
C1941 C 0.74773 0.04168 0.4827 0.0
C1942 C 0.74025 0.02662 0.49081 0.0
C1943 C 0.74536 0.96645 0.57566 0.0
C1944 C 0.735 0.97963 0.58474 0.0
C1945 C 0.74504 0.9654 0.55656 0.0
C1946 C 0.73433 0.97749 0.54613 0.0
C1947 C 0.72438 0.99092 0.55513 0.0
C1948 C 0.72473 0.99201 0.57418 0.0
C1949 C 0.7347 0.9774 0.52579 0.0
C1950 C 0.73968 0.99305 0.51655 0.0
C1951 C 0.73084 0.96227 0.51541 0.0
C1952 C 0.72572 0.94503 0.52365 0.0
C1953 C 0.7083 0.94292 0.53104 0.0
C1954 C 0.70221 0.92591 0.53535 0.0
C1955 C 0.7135 0.91099 0.53246 0.0
C1956 C 0.73108 0.91304 0.52579 0.0
C1957 C 0.73715 0.92997 0.52128 0.0
H1958 H 0.70859 0.89781 0.53515 0.0
H1959 H 0.76963 0.05183 0.46643 0.0
H1960 H 0.72797 0.99491 0.3311 0.0
H1961 H 0.72913 0.00029 0.29788 0.0
H1962 H 0.77771 0.96707 0.29483 0.0
H1963 H 0.77663 0.96213 0.32745 0.0
H1964 H 0.77949 0.98826 0.26868 0.0
H1965 H 0.73611 0.9495 0.28981 0.0
H1966 H 0.71067 0.93757 0.30764 0.0
H1967 H 0.67425 0.97645 0.28288 0.0
H1968 H 0.69958 0.98879 0.26504 0.0
H1969 H 0.76662 0.96113 0.17734 0.0
H1970 H 0.76641 0.95771 0.21063 0.0
H1971 H 0.72618 0.00021 0.21411 0.0
H1972 H 0.72618 0.00359 0.18084 0.0
H1973 H 0.72119 0.97317 0.23987 0.0
H1974 H 0.77499 0.00649 0.21593 0.0
H1975 H 0.80411 0.00746 0.19936 0.0
H1976 H 0.82486 0.96293 0.2309 0.0
H1977 H 0.79593 0.96163 0.24778 0.0
C1978 C 0.73943 0.98968 0.32341 0.0
C1979 C 0.7524 0.97836 0.33192 0.0
C1980 C 0.73993 0.99245 0.30439 0.0
C1981 C 0.75324 0.98366 0.29373 0.0
C1982 C 0.76729 0.97402 0.3026 0.0
C1983 C 0.7668 0.97136 0.32145 0.0
C1984 C 0.75141 0.98246 0.27352 0.0
C1985 C 0.76671 0.98498 0.26243 0.0
C1986 C 0.73506 0.97722 0.2653 0.0
C1987 C 0.71979 0.97025 0.27629 0.0
C1988 C 0.72272 0.95565 0.28832 0.0
C1989 C 0.70831 0.94878 0.29839 0.0
C1990 C 0.69086 0.95629 0.29644 0.0
C1991 C 0.68779 0.97069 0.2844 0.0
C1992 C 0.70217 0.97764 0.27431 0.0
C1993 C 0.75725 0.96934 0.18516 0.0
C1994 C 0.74656 0.98278 0.17644 0.0
C1995 C 0.75734 0.96752 0.20421 0.0
C1996 C 0.7468 0.97917 0.21488 0.0
C1997 C 0.73465 0.99127 0.20614 0.0
C1998 C 0.73449 0.99305 0.18706 0.0
C1999 C 0.74906 0.97963 0.23505 0.0
C2000 C 0.73385 0.97676 0.24616 0.0
C2001 C 0.76595 0.98301 0.2434 0.0
C2002 C 0.78319 0.98384 0.23297 0.0
C2003 C 0.78569 0.99681 0.21922 0.0
C2004 C 0.80217 0.99742 0.20977 0.0
C2005 C 0.81624 0.98519 0.21388 0.0
C2006 C 0.81392 0.97234 0.22761 0.0
C2007 C 0.79751 0.97168 0.23717 0.0
H2008 H 0.82898 0.98578 0.20655 0.0
H2009 H 0.67971 0.95092 0.3042 0.0
H2010 H 0.78032 0.00061 0.93068 0.0
H2011 H 0.78214 -0.00088 0.96442 0.0
H2012 H 0.72408 0.00774 0.96774 0.0
H2013 H 0.72235 0.00942 0.93453 0.0
H2014 H 0.74091 0.02719 0.99242 0.0
H2015 H 0.74359 0.96589 0.97221 0.0
H2016 H 0.75716 0.94109 0.9548 0.0
H2017 H 0.80767 0.94653 0.98302 0.0
H2018 H 0.79444 0.97147 0.00047 0.0
H2019 H 0.72527 0.00199 0.08591 0.0
H2020 H 0.72381 0.00494 0.05235 0.0
H2021 H 0.77939 0.98543 0.04889 0.0
H2022 H 0.78022 0.98123 0.08182 0.0
H2023 H 0.76408 0.97218 0.02357 0.0
H2024 H 0.7626 0.03329 0.04406 0.0
H2025 H 0.75139 0.06091 0.05842 0.0
H2026 H 0.70118 0.05822 0.02919 0.0
H2027 H 0.71204 0.03063 0.01459 0.0
C2028 C 0.76806 0.00218 0.93874 0.0
C2029 C 0.75121 0.00499 0.93017 0.0
C2030 C 0.76906 0.00134 0.95792 0.0
C2031 C 0.75318 0.00323 0.9686 0.0
C2032 C 0.73648 0.00633 0.95987 0.0
C2033 C 0.73551 0.00718 0.9409 0.0
C2034 C 0.75349 0.00138 0.98886 0.0
C2035 C 0.74591 0.01516 -0.00067 0.0
C2036 C 0.76025 0.9858 0.9978 0.0
C2037 C 0.76807 0.97061 0.98754 0.0
C2038 C 0.75761 0.96183 0.97464 0.0
C2039 C 0.76524 0.94775 0.96478 0.0
C2040 C 0.78328 0.94226 0.96778 0.0
C2041 C 0.79371 0.9508 0.9807 0.0
C2042 C 0.78614 0.96489 0.9906 0.0
C2043 C 0.73687 0.99779 0.0778 0.0
C2044 C 0.75263 0.99082 0.08637 0.0
C2045 C 0.73623 -0.00015 0.05866 0.0
C2046 C 0.75161 0.99569 0.0479 0.0
C2047 C 0.76723 0.98859 0.05664 0.0
C2048 C 0.76766 0.98602 0.07554 0.0
C2049 C 0.75175 0.99821 0.02756 0.0
C2050 C 0.75924 0.9844 0.01692 0.0
C2051 C 0.74511 0.01393 0.01853 0.0
C2052 C 0.73805 0.02973 0.02842 0.0
C2053 C 0.74906 0.03842 0.04092 0.0
C2054 C 0.74279 0.05411 0.04905 0.0
C2055 C 0.72556 0.06122 0.04484 0.0
C2056 C 0.7145 0.05265 0.03251 0.0
C2057 C 0.72071 0.03701 0.02428 0.0
H2058 H 0.72084 0.07344 0.05103 0.0
H2059 H 0.78916 0.93137 0.96012 0.0
H2060 H 0.74185 0.01233 0.68043 0.0
H2061 H 0.74354 0.01594 0.71384 0.0
H2062 H 0.72726 0.96181 0.72211 0.0
H2063 H 0.72561 0.95824 0.68909 0.0
H2064 H 0.71063 0.98399 0.74658 0.0
H2065 H 0.77045 0.96932 0.72533 0.0
H2066 H 0.79707 0.97256 0.7052 0.0
H2067 H 0.80349 0.0258 0.72364 0.0
H2068 H 0.77677 0.02291 0.74376 0.0
H2069 H 0.73875 0.97583 0.83994 0.0
H2070 H 0.73521 0.97027 0.80727 0.0
H2071 H 0.75837 0.02105 0.79461 0.0
H2072 H 0.76264 0.02618 0.82713 0.0
H2073 H 0.77051 -0.00125 0.77208 0.0
H2074 H 0.70844 0.01131 0.79489 0.0
H2075 H 0.67978 0.00652 0.81158 0.0
H2076 H 0.67703 0.9542 0.78969 0.0
H2077 H 0.70565 0.95863 0.77295 0.0
C2078 C 0.73872 0.00129 0.68947 0.0
C2079 C 0.73387 0.98497 0.68235 0.0
C2080 C 0.73956 0.00334 0.70846 0.0
C2081 C 0.73558 0.98908 0.72041 0.0
C2082 C 0.73028 0.97298 0.71318 0.0
C2083 C 0.72951 0.97093 0.69435 0.0
C2084 C 0.73825 0.99038 0.74039 0.0
C2085 C 0.72371 0.98717 0.75227 0.0
C2086 C 0.75534 0.99426 0.7477 0.0
C2087 C 0.77158 0.99595 0.73592 0.0
C2088 C 0.77751 0.98174 0.72502 0.0
C2089 C 0.79261 0.98351 0.71363 0.0
C2090 C 0.80195 -0.00061 0.71312 0.0
C2091 C 0.79624 0.01351 0.72405 0.0
C2092 C 0.78114 0.01181 0.73547 0.0
C2093 C 0.74369 0.98547 0.83008 0.0
C2094 C 0.75125 0.00132 0.83599 0.0
C2095 C 0.74124 0.98248 0.81145 0.0
C2096 C 0.74597 0.99548 0.79845 0.0
C2097 C 0.7545 0.01084 0.80436 0.0
C2098 C 0.75725 0.01366 0.82295 0.0
C2099 C 0.74267 0.99313 0.77861 0.0
C2100 C 0.75728 0.99582 0.76661 0.0
C2101 C 0.72562 0.98842 0.77133 0.0
C2102 C 0.70933 0.98525 0.78281 0.0
C2103 C 0.70189 -0.00132 0.79388 0.0
C2104 C 0.68558 0.99606 0.80327 0.0
C2105 C 0.67661 0.98007 0.80168 0.0
C2106 C 0.684 0.96658 0.79091 0.0
C2107 C 0.70025 0.96914 0.78147 0.0
H2108 H 0.66386 0.97815 0.80864 0.0
H2109 H 0.81363 0.00074 0.70428 0.0
H2110 H 0.42722 0.73849 0.00196 0.0
H2111 H 0.46054 0.73488 0.00283 0.0
H2112 H 0.46296 0.74764 0.94514 0.0
H2113 H 0.43026 0.75009 0.94401 0.0
H2114 H 0.48667 0.72391 0.95157 0.0
H2115 H 0.47121 0.77953 0.98375 0.0
H2116 H 0.45452 0.79436 0.00877 0.0
H2117 H 0.48138 0.75976 0.04811 0.0
H2118 H 0.49818 0.74473 0.02332 0.0
H2119 H 0.58101 0.74504 0.94331 0.0
H2120 H 0.54762 0.74596 0.94247 0.0
H2121 H 0.54655 0.73964 0.00121 0.0
H2122 H 0.57946 0.73952 0.00194 0.0
H2123 H 0.52138 0.75931 0.99494 0.0
H2124 H 0.53717 0.70378 0.96625 0.0
H2125 H 0.54366 0.67868 0.94581 0.0
H2126 H 0.51275 0.70491 0.90304 0.0
H2127 H 0.50665 0.7304 0.92294 0.0
C2128 C 0.43493 0.74029 0.98949 0.0
C2129 C 0.42601 0.74449 0.97296 0.0
C2130 C 0.45401 0.73843 0.98999 0.0
C2131 C 0.46451 0.7415 0.97411 0.0
C2132 C 0.45542 0.74524 0.95761 0.0
C2133 C 0.43654 0.74659 0.95701 0.0
C2134 C 0.48489 0.74138 0.97428 0.0
C2135 C 0.49437 0.73189 0.96081 0.0
C2136 C 0.49498 0.75111 0.98686 0.0
C2137 C 0.48596 0.76108 0.00173 0.0
C2138 C 0.47365 0.77522 0.99776 0.0
C2139 C 0.46414 0.7836 0.01189 0.0
C2140 C 0.4669 0.77801 0.03002 0.0
C2141 C 0.4793 0.76411 0.03408 0.0
C2142 C 0.48887 0.75571 0.02001 0.0
C2143 C 0.57358 0.74485 0.95608 0.0
C2144 C 0.58302 0.74299 0.97278 0.0
C2145 C 0.5544 0.74476 0.95557 0.0
C2146 C 0.54419 0.74255 0.97176 0.0
C2147 C 0.55373 0.74154 0.98843 0.0
C2148 C 0.57272 0.74182 0.98892 0.0
C2149 C 0.52371 0.74182 0.97186 0.0
C2150 C 0.51403 0.75135 0.9854 0.0
C2151 C 0.51349 0.73171 0.95945 0.0
C2152 C 0.52158 0.71912 0.94612 0.0
C2153 C 0.53232 0.70451 0.95229 0.0
C2154 C 0.53571 0.69008 0.94086 0.0
C2155 C 0.52827 0.69003 0.92331 0.0
C2156 C 0.51824 0.70481 0.91677 0.0
C2157 C 0.51506 0.71936 0.92801 0.0
H2158 H 0.53064 0.67871 0.91462 0.0
H2159 H 0.45942 0.78443 0.04092 0.0
H2160 H 0.94336 0.72364 0.96359 0.0
H2161 H 0.97636 0.72294 0.96649 0.0
H2162 H 0.97237 0.76286 0.00798 0.0
H2163 H 0.93968 0.76441 0.00439 0.0
H2164 H 0.00013 0.76851 0.99111 0.0
H2165 H 0.97894 0.71646 0.0193 0.0
H2166 H 0.96396 0.68805 0.02514 0.0
H2167 H 0.99448 0.66411 0.98156 0.0
H2168 H 0.0096 0.6924 0.97542 0.0
H2169 H 0.08953 0.74257 0.02384 0.0
H2170 H 0.0571 0.737 0.02473 0.0
H2171 H 0.05633 0.73475 0.96594 0.0
H2172 H 0.08841 0.74217 0.96494 0.0
H2173 H 0.03132 0.7094 0.99672 0.0
H2174 H 0.04949 0.76944 0.97051 0.0
H2175 H 0.06487 0.79785 0.97354 0.0
H2176 H 0.03799 0.80659 0.02483 0.0
H2177 H 0.02287 0.77792 0.02234 0.0
C2178 C 0.94954 0.73278 0.9728 0.0
C2179 C 0.93881 0.7438 0.98404 0.0
C2180 C 0.96841 0.73204 0.97478 0.0
C2181 C 0.97679 0.74223 0.98807 0.0
C2182 C 0.96624 0.7546 0.99786 0.0
C2183 C 0.94748 0.75557 0.99567 0.0
C2184 C 0.99654 0.74016 0.99169 0.0
C2185 C 0.00679 0.75553 0.99253 0.0
C2186 C 0.00536 0.72327 0.99411 0.0
C2187 C 0.99523 0.70665 0.99674 0.0
C2188 C 0.98224 0.70523 0.01076 0.0
C2189 C 0.9738 0.68911 0.0142 0.0
C2190 C 0.97822 0.6743 0.00369 0.0
C2191 C 0.99104 0.6756 0.98967 0.0
C2192 C -0.00044 0.69167 0.98622 0.0
C2193 C 0.08263 0.74049 0.01115 0.0
C2194 C 0.09128 0.74339 0.9943 0.0
C2195 C 0.06409 0.73722 0.0117 0.0
C2196 C 0.05441 0.73597 0.99536 0.0
C2197 C 0.06368 0.73593 0.97865 0.0
C2198 C 0.08199 0.73999 0.9781 0.0
C2199 C 0.03452 0.73762 0.99531 0.0
C2200 C 0.02436 0.72224 0.99534 0.0
C2201 C 0.02562 0.75449 0.99467 0.0
C2202 C 0.03544 0.77128 0.99646 0.0
C2203 C 0.04722 0.77717 0.98265 0.0
C2204 C 0.0558 0.79339 0.98422 0.0
C2205 C 0.05249 0.80397 -0.00058 0.0
C2206 C 0.04063 0.79833 0.01311 0.0
C2207 C 0.03211 0.78207 0.01166 0.0
H2208 H 0.05903 0.81659 0.00053 0.0
H2209 H 0.97175 0.66181 0.00644 0.0
H2210 H 0.01271 0.18442 0.72169 0.0
H2211 H 0.0121 0.21662 0.72376 0.0
H2212 H 0.97675 0.21361 0.77061 0.0
H2213 H 0.97801 0.18094 0.76924 0.0
H2214 H 0.96739 0.23984 0.73914 0.0
H2215 H 0.012 0.22486 0.78376 0.0
H2216 H 0.03902 0.21114 0.7985 0.0
H2217 H 0.07289 0.23248 0.75619 0.0
H2218 H 0.046 0.24668 0.74132 0.0
H2219 H 0.97384 0.32802 0.7669 0.0
H2220 H 0.97503 0.29589 0.76654 0.0
H2221 H 0.01689 0.29719 0.72535 0.0
H2222 H 0.01569 0.33004 0.72562 0.0
H2223 H 0.02313 0.27158 0.7551 0.0
H2224 H 0.97582 0.28828 0.71201 0.0
H2225 H 0.94772 0.30359 0.70117 0.0
H2226 H 0.91763 0.27888 0.74451 0.0
H2227 H 0.94559 0.26358 0.75573 0.0
C2228 C 0.00445 0.1905 0.73225 0.0
C2229 C 0.99523 0.18005 0.74524 0.0
C2230 C 0.00437 0.20894 0.73355 0.0
C2231 C 0.9947 0.21742 0.74753 0.0
C2232 C 0.9845 0.20723 0.75986 0.0
C2233 C 0.98499 0.18863 0.7589 0.0
C2234 C 0.99493 0.23702 0.74857 0.0
C2235 C 0.97947 0.24681 0.74289 0.0
C2236 C 0.01085 0.24601 0.75314 0.0
C2237 C 0.02692 0.23653 0.76121 0.0
C2238 C 0.02515 0.22636 0.77739 0.0
C2239 C 0.04047 0.21857 0.78584 0.0
C2240 C 0.05766 0.22069 0.77816 0.0
C2241 C 0.05956 0.23074 0.76207 0.0
C2242 C 0.04428 0.23873 0.75366 0.0
C2243 C 0.98359 0.32161 0.75798 0.0
C2244 C 0.99492 0.33162 0.7465 0.0
C2245 C 0.98408 0.30315 0.75764 0.0
C2246 C 0.99589 0.29413 0.7458 0.0
C2247 C 0.0076 0.30396 0.73454 0.0
C2248 C 0.00695 0.32265 0.73471 0.0
C2249 C 0.99564 0.27444 0.74538 0.0
C2250 C 0.01109 0.26461 0.75121 0.0
C2251 C 0.97958 0.2654 0.74127 0.0
C2252 C 0.96284 0.27493 0.73481 0.0
C2253 C 0.96325 0.28627 0.71935 0.0
C2254 C 0.94733 0.2949 0.7131 0.0
C2255 C 0.93091 0.29224 0.72217 0.0
C2256 C 0.93036 0.28094 0.73751 0.0
C2257 C 0.94624 0.27228 0.7438 0.0
H2258 H 0.9186 0.29891 0.71729 0.0
H2259 H 0.0695 0.21466 0.78477 0.0
H2260 H 0.44502 0.22089 0.46266 0.0
H2261 H 0.47802 0.22038 0.4658 0.0
H2262 H 0.47372 0.26307 0.50422 0.0
H2263 H 0.44104 0.26427 0.50051 0.0
H2264 H 0.50114 0.26815 0.4863 0.0
H2265 H 0.48599 0.21715 0.52224 0.0
H2266 H 0.47382 0.18847 0.53228 0.0
H2267 H 0.49577 0.16377 0.48434 0.0
H2268 H 0.50866 0.19229 0.47436 0.0
H2269 H 0.58668 0.25474 0.52524 0.0
H2270 H 0.55458 0.24878 0.52399 0.0
H2271 H 0.56191 0.22627 0.47068 0.0
H2272 H 0.59435 0.23265 0.47179 0.0
H2273 H 0.53355 0.21033 0.49746 0.0
H2274 H 0.55411 0.26675 0.4695 0.0
H2275 H 0.56889 0.29569 0.47031 0.0
H2276 H 0.5351 0.31123 0.51547 0.0
H2277 H 0.5203 0.28229 0.51507 0.0
C2278 C 0.45112 0.23059 0.47129 0.0
C2279 C 0.44026 0.24245 0.48153 0.0
C2280 C 0.47 0.22999 0.47342 0.0
C2281 C 0.47834 0.24118 0.48583 0.0
C2282 C 0.46765 0.25408 0.49476 0.0
C2283 C 0.44887 0.25486 0.49247 0.0
C2284 C 0.49821 0.23982 0.48922 0.0
C2285 C 0.50809 0.25547 0.48891 0.0
C2286 C 0.50747 0.22338 0.49287 0.0
C2287 C 0.49787 0.2069 0.49735 0.0
C2288 C 0.48787 0.20568 0.51366 0.0
C2289 C 0.481 0.18941 0.51943 0.0
C2290 C 0.48377 0.17433 0.50884 0.0
C2291 C 0.49351 0.17549 0.49247 0.0
C2292 C 0.50068 0.19167 0.48679 0.0
C2293 C 0.58179 0.24765 0.5137 0.0
C2294 C 0.59308 0.244 0.4987 0.0
C2295 C 0.56332 0.24443 0.51292 0.0
C2296 C 0.55593 0.23744 0.4971 0.0
C2297 C 0.56747 0.23176 0.48297 0.0
C2298 C 0.586 0.2352 0.4837 0.0
C2299 C 0.53617 0.23853 0.49423 0.0
C2300 C 0.52642 0.22289 0.49468 0.0
C2301 C 0.52686 0.2551 0.49181 0.0
C2302 C 0.53624 0.27226 0.49236 0.0
C2303 C 0.55 0.27624 0.47974 0.0
C2304 C 0.55833 0.29268 0.48009 0.0
C2305 C 0.55295 0.30528 0.49294 0.0
C2306 C 0.53926 0.30146 0.50552 0.0
C2307 C 0.5309 0.28504 0.50524 0.0
H2308 H 0.55937 0.31802 0.49313 0.0
H2309 H 0.47849 0.16173 0.51338 0.0
H2310 H 0.92851 0.24587 0.50259 0.0
H2311 H 0.96172 0.24427 0.50486 0.0
H2312 H 0.96579 0.24448 0.44604 0.0
H2313 H 0.93293 0.24485 0.44374 0.0
H2314 H 0.99249 0.22531 0.45864 0.0
H2315 H 0.96894 0.28446 0.47399 0.0
H2316 H 0.94869 0.30407 0.49202 0.0
H2317 H 0.97413 0.28484 0.5416 0.0
H2318 H 0.99446 0.26505 0.52384 0.0
H2319 H 0.08308 0.25574 0.45108 0.0
H2320 H 0.04976 0.25914 0.44985 0.0
H2321 H 0.04646 0.24537 0.50714 0.0
H2322 H 0.07949 0.24244 0.50857 0.0
H2323 H 0.0196 0.27239 0.49555 0.0
H2324 H 0.03186 0.20757 0.48218 0.0
H2325 H 0.0531 0.18611 0.46768 0.0
H2326 H 0.04997 0.21649 0.41744 0.0
H2327 H 0.02846 0.23777 0.43154 0.0
C2328 C 0.9365 0.24514 0.49018 0.0
C2329 C 0.92794 0.24563 0.47303 0.0
C2330 C 0.95555 0.24446 0.49145 0.0
C2331 C 0.96647 0.24496 0.4756 0.0
C2332 C 0.95787 0.24427 0.45852 0.0
C2333 C 0.93892 0.24446 0.45726 0.0
C2334 C 0.98666 0.24718 0.47656 0.0
C2335 C -0.00178 0.23586 0.46648 0.0
C2336 C 0.9946 0.26062 0.48707 0.0
C2337 C 0.98323 0.27333 0.49761 0.0
C2338 C 0.97028 0.28452 0.48873 0.0
C2339 C 0.95875 0.29562 0.4989 0.0
C2340 C 0.96013 0.29571 0.51795 0.0
C2341 C 0.97311 0.28479 0.52685 0.0
C2342 C 0.98468 0.27368 0.51674 0.0
C2343 C 0.0753 0.25404 0.46353 0.0
C2344 C 0.08408 0.24888 0.47993 0.0
C2345 C 0.05619 0.25576 0.46279 0.0
C2346 C 0.04544 0.25226 0.47838 0.0
C2347 C 0.05429 0.24822 0.49494 0.0
C2348 C 0.07329 0.24656 0.4957 0.0
C2349 C 0.02515 0.25092 0.47717 0.0
C2350 C 0.01367 0.26219 0.4874 0.0
C2351 C 0.01717 0.23753 0.46687 0.0
C2352 C 0.02865 0.2241 0.45782 0.0
C2353 C 0.03564 0.20949 0.46799 0.0
C2354 C 0.04777 0.19746 0.45991 0.0
C2355 C 0.05301 0.20006 0.44177 0.0
C2356 C 0.04607 0.21458 0.43156 0.0
C2357 C 0.03372 0.2265 0.4395 0.0
H2358 H 0.06201 0.19047 0.43555 0.0
H2359 H 0.95114 0.30425 0.52581 0.0
H2360 H 0.02479 0.68616 0.75449 0.0
H2361 H 0.02905 0.71852 0.75462 0.0
H2362 H 0.98788 0.72584 0.71316 0.0
H2363 H 0.9834 0.69388 0.71323 0.0
H2364 H 0.01649 0.74789 0.70672 0.0
H2365 H 0.97635 0.73334 0.75563 0.0
H2366 H 0.96574 0.71822 0.78367 0.0
H2367 H 0.01101 0.73771 0.81337 0.0
H2368 H 0.02202 0.75277 0.78541 0.0
H2369 H 0.98685 0.8378 0.72028 0.0
H2370 H 0.9893 0.80564 0.71768 0.0
H2371 H 0.03038 0.80339 0.75954 0.0
H2372 H 0.02841 0.83587 0.76193 0.0
H2373 H 0.00449 0.77873 0.76498 0.0
H2374 H 0.04402 0.7942 0.71466 0.0
H2375 H 0.05444 0.8076 0.68563 0.0
H2376 H 0.0084 0.78727 0.65786 0.0
H2377 H 0.99796 0.77335 0.68666 0.0
C2378 C 0.01676 0.69469 0.74537 0.0
C2379 C 0.00355 0.68747 0.73412 0.0
C2380 C 0.01917 0.71318 0.74544 0.0
C2381 C 0.00864 0.72473 0.73402 0.0
C2382 C 0.99612 0.71734 0.72215 0.0
C2383 C 0.9935 0.69901 0.72232 0.0
C2384 C 0.00976 0.74451 0.73519 0.0
C2385 C 0.01378 0.75465 0.71944 0.0
C2386 C 0.00637 0.75344 0.75175 0.0
C2387 C 0.00016 0.74394 0.7684 0.0
C2388 C 0.98418 0.73419 0.76809 0.0
C2389 C 0.97805 0.72569 0.78397 0.0
C2390 C 0.98773 0.72694 0.80028 0.0
C2391 C 0.00356 0.7367 0.80072 0.0
C2392 C 0.00975 0.74522 0.78486 0.0
C2393 C 0.99629 0.83054 0.72919 0.0
C2394 C 0.00738 0.83962 0.74146 0.0
C2395 C 0.99787 0.81208 0.72741 0.0
C2396 C 0.01039 0.80203 0.73801 0.0
C2397 C 0.0208 0.81086 0.75098 0.0
C2398 C 0.01941 0.82944 0.7526 0.0
C2399 C 0.01145 0.78222 0.73661 0.0
C2400 C 0.00756 0.77202 0.75231 0.0
C2401 C 0.01472 0.77335 0.7199 0.0
C2402 C 0.02007 0.78295 0.70291 0.0
C2403 C 0.03597 0.79281 0.70243 0.0
C2404 C 0.04195 0.80039 0.68597 0.0
C2405 C 0.03201 0.79843 0.66993 0.0
C2406 C 0.01607 0.78883 0.6703 0.0
C2407 C 0.01016 0.78101 0.68667 0.0
H2408 H 0.0367 0.80424 0.65719 0.0
H2409 H 0.98294 0.7204 0.81258 0.0
H2410 H 0.53846 0.33441 0.24979 0.0
H2411 H 0.53824 0.30205 0.24596 0.0
H2412 H 0.48264 0.30638 0.2279 0.0
H2413 H 0.48294 0.33867 0.23131 0.0
H2414 H 0.48854 0.28163 0.25573 0.0
H2415 H 0.51122 0.2957 0.19727 0.0
H2416 H 0.52964 0.30542 0.17099 0.0
H2417 H 0.57489 0.27348 0.19068 0.0
H2418 H 0.55684 0.26369 0.21721 0.0
H2419 H 0.47361 0.19375 0.2317 0.0
H2420 H 0.47782 0.22555 0.22838 0.0
H2421 H 0.53363 0.21849 0.24519 0.0
H2422 H 0.52962 0.18613 0.24796 0.0
H2423 H 0.52832 0.24445 0.21625 0.0
H2424 H 0.50191 0.23158 0.27617 0.0
H2425 H 0.4789 0.21822 0.29628 0.0
H2426 H 0.43666 0.24777 0.2678 0.0
H2427 H 0.45941 0.26114 0.24739 0.0
C2428 C 0.52605 0.32839 0.24547 0.0
C2429 C 0.51051 0.33906 0.24145 0.0
C2430 C 0.52609 0.30994 0.24282 0.0
C2431 C 0.51052 0.30175 0.23633 0.0
C2432 C 0.49489 0.31237 0.23273 0.0
C2433 C 0.49495 0.33079 0.23502 0.0
C2434 C 0.50969 0.28199 0.23542 0.0
C2435 C 0.49723 0.2736 0.24696 0.0
C2436 C 0.52101 0.27136 0.22398 0.0
C2437 C 0.53269 0.27914 0.20947 0.0
C2438 C 0.52522 0.29106 0.19628 0.0
C2439 C 0.53554 0.29642 0.1812 0.0
C2440 C 0.55337 0.28995 0.1791 0.0
C2441 C 0.56105 0.27842 0.19228 0.0
C2442 C 0.55078 0.27298 0.20736 0.0
C2443 C 0.4868 0.19888 0.23484 0.0
C2444 C 0.50116 0.18738 0.24063 0.0
C2445 C 0.4892 0.21714 0.23281 0.0
C2446 C 0.50594 0.22456 0.23686 0.0
C2447 C 0.52054 0.21311 0.2421 0.0
C2448 C 0.51818 0.19466 0.24394 0.0
C2449 C 0.50755 0.24432 0.23689 0.0
C2450 C 0.51999 0.25264 0.22517 0.0
C2451 C 0.49594 0.25506 0.24777 0.0
C2452 C 0.48233 0.24729 0.26025 0.0
C2453 C 0.4877 0.23518 0.27419 0.0
C2454 C 0.47471 0.2276 0.28562 0.0
C2455 C 0.45633 0.23213 0.28331 0.0
C2456 C 0.4509 0.24428 0.26958 0.0
C2457 C 0.46383 0.25188 0.2581 0.0
H2458 H 0.44629 0.22624 0.29217 0.0
H2459 H 0.56128 0.29396 0.16731 0.0
H2460 H 0.4705 0.06767 0.74306 0.0
H2461 H 0.46917 0.03521 0.74822 0.0
H2462 H 0.5223 0.0347 0.77252 0.0
H2463 H 0.52346 0.06657 0.7685 0.0
H2464 H 0.51504 0.01233 0.73836 0.0
H2465 H 0.50204 0.02262 0.79978 0.0
H2466 H 0.48646 0.03601 0.82617 0.0
H2467 H 0.43695 0.01152 0.81104 0.0
H2468 H 0.45219 0.99822 0.78428 0.0
H2469 H 0.52826 0.9191 0.75009 0.0
H2470 H 0.52852 0.95085 0.75483 0.0
H2471 H 0.47015 0.9522 0.76003 0.0
H2472 H 0.47038 0.91968 0.75821 0.0
H2473 H 0.48113 0.9749 0.78192 0.0
H2474 H 0.50171 0.96567 0.71681 0.0
H2475 H 0.52359 0.95328 0.69446 0.0
H2476 H 0.56748 0.97685 0.72288 0.0
H2477 H 0.54589 0.98926 0.74542 0.0
C2478 C 0.48164 0.06075 0.75002 0.0
C2479 C 0.49708 0.07004 0.75521 0.0
C2480 C 0.48089 0.04214 0.75294 0.0
C2481 C 0.49565 0.03243 0.76082 0.0
C2482 C 0.51067 0.04178 0.76659 0.0
C2483 C 0.51124 0.06022 0.76417 0.0
C2484 C 0.49667 0.01249 0.76091 0.0
C2485 C 0.5077 0.00415 0.74785 0.0
C2486 C 0.48754 0.00174 0.77379 0.0
C2487 C 0.47817 0.00972 0.78977 0.0
C2488 C 0.48775 0.02032 0.80187 0.0
C2489 C 0.47901 0.02784 0.81696 0.0
C2490 C 0.46069 0.02471 0.82022 0.0
C2491 C 0.45112 0.01399 0.80844 0.0
C2492 C 0.45981 0.00646 0.7933 0.0
C2493 C 0.51546 0.92607 0.75223 0.0
C2494 C 0.49926 0.91675 0.75351 0.0
C2495 C 0.51555 0.94452 0.75465 0.0
C2496 C 0.49926 0.95452 0.75709 0.0
C2497 C 0.48298 0.94514 0.75803 0.0
C2498 C 0.48304 0.92651 0.75661 0.0
C2499 C 0.49905 0.97456 0.75849 0.0
C2500 C 0.48834 0.98301 0.77209 0.0
C2501 C 0.50937 0.98555 0.74663 0.0
C2502 C 0.52219 0.9783 0.73282 0.0
C2503 C 0.51603 0.96819 0.71827 0.0
C2504 C 0.52839 0.96114 0.70559 0.0
C2505 C 0.54692 0.96423 0.70728 0.0
C2506 C 0.55314 0.97441 0.72162 0.0
C2507 C 0.54085 0.98146 0.73433 0.0
H2508 H 0.55645 0.95877 0.69746 0.0
H2509 H 0.45394 0.03053 0.83191 0.0
H2510 H 0.15764 0.28324 0.98512 0.0
H2511 H 0.1896 0.28718 0.99113 0.0
H2512 H 0.18714 0.24854 0.03525 0.0
H2513 H 0.15428 0.24633 0.03041 0.0
H2514 H 0.21301 0.26944 0.0427 0.0
H2515 H 0.19884 0.23885 0.98635 0.0
H2516 H 0.18508 0.23635 0.9558 0.0
H2517 H 0.21365 0.28204 0.93686 0.0
H2518 H 0.22752 0.28485 0.96732 0.0
H2519 H 0.30408 0.23584 0.03949 0.0
H2520 H 0.27093 0.2389 0.03716 0.0
H2521 H 0.27637 0.27902 0.9949 0.0
H2522 H 0.30924 0.27558 0.99662 0.0
H2523 H 0.24934 0.25993 0.98642 0.0
H2524 H 0.26498 0.28973 0.04172 0.0
H2525 H 0.2804 0.29121 0.07159 0.0
H2526 H 0.24968 0.24746 0.09187 0.0
H2527 H 0.23413 0.24569 0.06217 0.0
C2528 C 0.16351 0.27673 0.99706 0.0
C2529 C 0.15305 0.26523 0.00785 0.0
C2530 C 0.18213 0.27838 5e-05 0.0
C2531 C 0.19125 0.26757 0.01314 0.0
C2532 C 0.18065 0.25694 0.02487 0.0
C2533 C 0.16174 0.2558 0.02226 0.0
C2534 C 0.21174 0.26624 0.01356 0.0
C2535 C 0.22086 0.26718 0.03037 0.0
C2536 C 0.22239 0.26385 0.99748 0.0
C2537 C 0.2141 0.26213 0.97915 0.0
C2538 C 0.20213 0.24839 0.97568 0.0
C2539 C 0.19433 0.24692 0.95838 0.0
C2540 C 0.19847 0.25905 0.94441 0.0
C2541 C 0.21046 0.27266 0.94769 0.0
C2542 C 0.21832 0.27418 0.96496 0.0
C2543 C 0.29826 0.24504 0.02942 0.0
C2544 C 0.3096 0.25539 0.01827 0.0
C2545 C 0.27919 0.24701 0.02829 0.0
C2546 C 0.27089 0.25957 0.01617 0.0
C2547 C 0.2822 0.26931 0.00447 0.0
C2548 C 0.30117 0.26723 0.00546 0.0
C2549 C 0.25054 0.26263 0.01562 0.0
C2550 C 0.24148 0.26222 -0.00126 0.0
C2551 C 0.23998 0.26564 0.03157 0.0
C2552 C 0.24857 0.26743 0.04969 0.0
C2553 C 0.26152 0.28044 0.05257 0.0
C2554 C 0.27027 0.28134 0.06945 0.0
C2555 C 0.26614 0.2693 0.0835 0.0
C2556 C 0.25292 0.25669 0.08091 0.0
C2557 C 0.2441 0.25577 0.0641 0.0
H2558 H 0.27325 0.2696 0.09637 0.0
H2559 H 0.19241 0.25789 0.93103 0.0
H2560 H 0.96804 0.05289 0.28504 0.0
H2561 H 0.96845 0.02129 0.28001 0.0
H2562 H 0.00108 0.0289 0.23165 0.0
H2563 H -0.00015 0.06128 0.23622 0.0
H2564 H 0.97622 0.00168 0.22908 0.0
H2565 H 0.01958 0.02155 0.27297 0.0
H2566 H 0.02955 0.03604 0.30098 0.0
H2567 H -0.00096 -0.00042 0.33369 0.0
H2568 H 0.98854 0.98511 0.3059 0.0
H2569 H 0.01406 0.9144 0.22717 0.0
H2570 H 0.01129 0.94673 0.22914 0.0
H2571 H 0.98 0.94144 0.27868 0.0
H2572 H 0.98247 0.90905 0.27666 0.0
H2573 H 0.0047 0.9676 0.2807 0.0
H2574 H 0.95442 0.95524 0.2417 0.0
H2575 H 0.93543 0.94609 0.21607 0.0
H2576 H 0.97303 0.96858 0.1778 0.0
H2577 H 0.99199 0.97825 0.20333 0.0
C2578 C 0.97445 0.04808 0.27273 0.0
C2579 C 0.98365 0.05962 0.26081 0.0
C2580 C 0.97501 0.02989 0.27012 0.0
C2581 C 0.98535 0.02276 0.25589 0.0
C2582 C 0.99324 0.03425 0.24292 0.0
C2583 C 0.99239 0.0527 0.24538 0.0
C2584 C 0.9888 0.00334 0.2554 0.0
C2585 C 0.98285 0.99426 0.24017 0.0
C2586 C 0.99657 0.99364 0.27043 0.0
C2587 C 0.00299 0.0024 0.28722 0.0
C2588 C 0.01478 0.01675 0.28609 0.0
C2589 C 0.02057 0.02494 0.30197 0.0
C2590 C 0.01488 0.01878 0.3191 0.0
C2591 C 0.00339 0.00439 0.32041 0.0
C2592 C 0.99749 0.99621 0.30458 0.0
C2593 C 0.00709 0.92009 0.23881 0.0
C2594 C -0.00144 0.90918 0.25182 0.0
C2595 C 0.00521 0.93857 0.23971 0.0
C2596 C 0.99506 0.94644 0.25379 0.0
C2597 C 0.9877 0.93561 0.26757 0.0
C2598 C 0.98931 0.91713 0.26652 0.0
C2599 C 0.9923 0.96598 0.25422 0.0
C2600 C -0.00166 0.97507 0.2695 0.0
C2601 C 0.9841 0.9757 0.23956 0.0
C2602 C 0.97478 0.96713 0.22436 0.0
C2603 C 0.95886 0.9578 0.22781 0.0
C2604 C 0.94799 0.95273 0.21329 0.0
C2605 C 0.95307 0.95669 0.19527 0.0
C2606 C 0.96915 0.96548 0.19175 0.0
C2607 C 0.97994 0.9708 0.20622 0.0
H2608 H 0.94452 0.95316 0.184 0.0
H2609 H 0.01942 0.02511 0.33137 0.0
H2610 H 0.30917 0.71943 0.49687 0.0
H2611 H 0.27684 0.72192 0.50086 0.0
H2612 H 0.2804 0.77834 0.50854 0.0
H2613 H 0.31379 0.77597 0.50469 0.0
H2614 H 0.25709 0.75761 0.53446 0.0
H2615 H 0.26894 0.76378 0.46889 0.0
H2616 H 0.28225 0.75349 0.4399 0.0
H2617 H 0.25215 0.70566 0.44406 0.0
H2618 H 0.23909 0.71536 0.47336 0.0
H2619 H 0.16603 0.7818 0.52398 0.0
H2620 H 0.19869 0.77948 0.5186 0.0
H2621 H 0.19365 0.72475 0.50363 0.0
H2622 H 0.161 0.72704 0.50936 0.0
H2623 H 0.21793 0.74259 0.48217 0.0
H2624 H 0.2076 0.73063 0.54371 0.0
H2625 H 0.19732 0.73196 0.57571 0.0
H2626 H 0.22563 0.78037 0.58262 0.0
H2627 H 0.23586 0.77953 0.55055 0.0
C2628 C 0.30334 0.73246 0.49972 0.0
C2629 C 0.31416 0.74756 0.50071 0.0
C2630 C 0.28473 0.73379 0.50184 0.0
C2631 C 0.27629 0.75028 0.50477 0.0
C2632 C 0.28685 0.76549 0.50615 0.0
C2633 C 0.30579 0.76418 0.5039 0.0
C2634 C 0.25634 0.75124 0.50598 0.0
C2635 C 0.2484 0.7549 0.52295 0.0
C2636 C 0.24535 0.74598 0.49127 0.0
C2637 C 0.25312 0.74028 0.47346 0.0
C2638 C 0.26529 0.75099 0.46374 0.0
C2639 C 0.2728 0.74524 0.44724 0.0
C2640 C 0.26809 0.72891 0.44016 0.0
C2641 C 0.25583 0.71829 0.44957 0.0
C2642 C 0.24838 0.7239 0.46614 0.0
C2643 C 0.17177 0.76952 0.51868 0.0
C2644 C 0.16093 0.75463 0.51682 0.0
C2645 C 0.19045 0.7681 0.51606 0.0
C2646 C 0.19856 0.75181 0.51129 0.0
C2647 C 0.18759 0.7374 0.50753 0.0
C2648 C 0.16884 0.7388 0.51037 0.0
C2649 C 0.21851 0.75002 0.5104 0.0
C2650 C 0.2265 0.74576 0.49363 0.0
C2651 C 0.22961 0.7538 0.52557 0.0
C2652 C 0.22226 0.75519 0.5445 0.0
C2653 C 0.21133 0.74178 0.55188 0.0
C2654 C 0.2056 0.74238 0.5701 0.0
C2655 C 0.21075 0.75628 0.58117 0.0
C2656 C 0.22159 0.76964 0.57401 0.0
C2657 C 0.22735 0.76912 0.55579 0.0
H2658 H 0.2064 0.75666 0.5953 0.0
H2659 H 0.27389 0.72452 0.42737 0.0
H2660 H 0.76746 0.49009 0.91385 0.0
H2661 H 0.76401 0.49025 0.94734 0.0
H2662 H 0.7509 0.54636 0.94496 0.0
H2663 H 0.75343 0.54626 0.91192 0.0
H2664 H 0.77877 0.53694 0.97034 0.0
H2665 H 0.71936 0.5273 0.95646 0.0
H2666 H 0.69354 0.51496 0.94015 0.0
H2667 H 0.70535 0.46365 0.96454 0.0
H2668 H 0.73157 0.47565 0.98075 0.0
H2669 H 0.75571 0.5468 0.06308 0.0
H2670 H 0.75459 0.54682 0.03041 0.0
H2671 H 0.75826 0.48957 0.03102 0.0
H2672 H 0.75681 0.48936 0.06474 0.0
H2673 H 0.73454 0.50166 0.00578 0.0
H2674 H 0.79657 0.52338 0.02269 0.0
H2675 H 0.813 0.54596 0.03965 0.0
H2676 H 0.78544 0.58754 0.00878 0.0
H2677 H 0.76865 0.56529 0.99187 0.0
C2678 C 0.76343 0.50234 0.92044 0.0
C2679 C 0.76068 0.51808 0.9101 0.0
C2680 C 0.76159 0.50246 0.93955 0.0
C2681 C 0.75745 0.51839 0.94859 0.0
C2682 C 0.75426 0.53397 0.93828 0.0
C2683 C 0.75557 0.53378 0.91928 0.0
C2684 C 0.75672 0.51892 0.96885 0.0
C2685 C 0.76923 0.52911 0.97814 0.0
C2686 C 0.74353 0.50967 0.9789 0.0
C2687 C 0.72763 0.50228 0.96958 0.0
C2688 C 0.7166 0.51333 0.9582 0.0
C2689 C 0.70187 0.50642 0.949 0.0
C2690 C 0.69786 0.48851 0.95124 0.0
C2691 C 0.70853 0.47751 0.96278 0.0
C2692 C 0.72334 0.48436 0.97198 0.0
C2693 C 0.75645 0.53404 0.05655 0.0
C2694 C 0.75661 0.51797 0.06683 0.0
C2695 C 0.75599 0.53415 0.03757 0.0
C2696 C 0.75718 0.51826 0.028 0.0
C2697 C 0.75764 0.50208 0.03807 0.0
C2698 C 0.75707 0.50193 0.05734 0.0
C2699 C 0.75753 0.51865 0.00756 0.0
C2700 C 0.74459 0.50895 0.9981 0.0
C2701 C 0.76947 0.52958 0.99732 0.0
C2702 C 0.7813 0.54263 0.00606 0.0
C2703 C 0.79417 0.53732 0.01939 0.0
C2704 C 0.80346 0.55008 0.02906 0.0
C2705 C 0.80016 0.56816 0.02534 0.0
C2706 C 0.78792 0.57353 0.01167 0.0
C2707 C 0.77855 0.56086 0.00202 0.0
H2708 H 0.80695 0.57803 0.03311 0.0
H2709 H 0.68646 0.48316 0.94409 0.0
H2710 H 0.75951 0.5457 0.16335 0.0
H2711 H 0.75525 0.54787 0.19619 0.0
H2712 H 0.73881 0.49337 0.1988 0.0
H2713 H 0.74198 0.49156 0.16534 0.0
H2714 H 0.717 0.51508 0.21908 0.0
H2715 H 0.78369 0.50887 0.21077 0.0
H2716 H 0.81204 0.51995 0.19734 0.0
H2717 H 0.80247 0.57034 0.22263 0.0
H2718 H 0.77396 0.55964 0.23598 0.0
H2719 H 0.74923 0.48393 0.30846 0.0
H2720 H 0.74517 0.49007 0.27566 0.0
H2721 H 0.73815 0.54593 0.28628 0.0
H2722 H 0.74101 0.53963 0.31935 0.0
H2723 H 0.76787 0.53057 0.25938 0.0
H2724 H 0.70706 0.53509 0.27524 0.0
H2725 H 0.67608 0.53029 0.28611 0.0
H2726 H 0.66879 0.49137 0.24496 0.0
H2727 H 0.70018 0.49474 0.2347 0.0
C2728 C 0.75553 0.53397 0.17098 0.0
C2729 C 0.75182 0.51816 0.16193 0.0
C2730 C 0.75294 0.5353 0.18977 0.0
C2731 C 0.74714 0.52067 0.20011 0.0
C2732 C 0.74348 0.50479 0.19112 0.0
C2733 C 0.74559 0.50362 0.17212 0.0
C2734 C 0.74493 0.52192 0.22027 0.0
C2735 C 0.72812 0.5179 0.22814 0.0
C2736 C 0.7591 0.52746 0.23168 0.0
C2737 C 0.77667 0.53348 0.22428 0.0
C2738 C 0.78765 0.5223 0.21346 0.0
C2739 C 0.80372 0.52854 0.20583 0.0
C2740 C 0.80904 0.54585 0.2091 0.0
C2741 C 0.79834 0.55694 0.22009 0.0
C2742 C 0.78224 0.55079 0.22771 0.0
C2743 C 0.74724 0.49757 0.30374 0.0
C2744 C 0.74615 0.51142 0.31632 0.0
C2745 C 0.7444 0.50099 0.28509 0.0
C2746 C 0.74074 0.51837 0.27862 0.0
C2747 C 0.74046 0.53236 0.29107 0.0
C2748 C 0.74259 0.52884 0.30985 0.0
C2749 C 0.7403 0.52195 0.25863 0.0
C2750 C 0.75661 0.52727 0.25065 0.0
C2751 C 0.72534 0.51804 0.24725 0.0
C2752 C 0.70661 0.51487 0.25447 0.0
C2753 C 0.6993 0.52493 0.26892 0.0
C2754 C 0.68148 0.52254 0.27493 0.0
C2755 C 0.6705 0.51046 0.26631 0.0
C2756 C 0.6773 0.50075 0.25165 0.0
C2757 C 0.69522 0.50282 0.24582 0.0
H2758 H 0.6567 0.5087 0.27093 0.0
H2759 H 0.82145 0.55066 0.20314 0.0
H2760 H 0.7713 0.49764 0.56489 0.0
H2761 H 0.77192 0.50077 0.53182 0.0
H2762 H 0.71574 0.48636 0.52938 0.0
H2763 H 0.71527 0.48267 0.56305 0.0
H2764 H 0.73595 0.47035 0.50271 0.0
H2765 H 0.72839 0.53012 0.52443 0.0
H2766 H 0.73548 0.55622 0.54268 0.0
H2767 H 0.78847 0.55776 0.51835 0.0
H2768 H 0.78179 0.53153 0.50011 0.0
H2769 H 0.71394 0.50573 0.4168 0.0
H2770 H 0.71705 0.50293 0.44991 0.0
H2771 H 0.77524 0.50525 0.44474 0.0
H2772 H 0.77213 0.50773 0.41111 0.0
H2773 H 0.75624 0.52698 0.47465 0.0
H2774 H 0.76422 0.46747 0.45314 0.0
H2775 H 0.75614 0.44386 0.43196 0.0
H2776 H 0.70233 0.44333 0.45443 0.0
H2777 H 0.71007 0.46698 0.47573 0.0
C2778 C 0.75897 0.49537 0.55734 0.0
C2779 C 0.74305 0.49043 0.56649 0.0
C2780 C 0.75936 0.49713 0.53842 0.0
C2781 C 0.74378 0.49425 0.52811 0.0
C2782 C 0.72788 0.48886 0.53713 0.0
C2783 C 0.72753 0.48689 0.55628 0.0
C2784 C 0.74441 0.49696 0.50796 0.0
C2785 C 0.7402 0.4828 0.49663 0.0
C2786 C 0.75056 0.51302 0.49994 0.0
C2787 C 0.75463 0.52875 0.51101 0.0
C2788 C 0.74161 0.53593 0.52307 0.0
C2789 C 0.74555 0.55077 0.5334 0.0
C2790 C 0.76243 0.55862 0.5317 0.0
C2791 C 0.7754 0.55166 0.51966 0.0
C2792 C 0.77154 0.53682 0.50931 0.0
C2793 C 0.72738 0.50603 0.42276 0.0
C2794 C 0.7428 0.50719 0.41157 0.0
C2795 C 0.72914 0.50432 0.44162 0.0
C2796 C 0.74635 0.5038 0.44969 0.0
C2797 C 0.76185 0.50565 0.43866 0.0
C2798 C 0.76009 0.50712 0.41957 0.0
C2799 C 0.7477 0.50049 0.46963 0.0
C2800 C 0.75223 0.5145 0.48086 0.0
C2801 C 0.74197 0.48434 0.47756 0.0
C2802 C 0.73769 0.46906 0.46596 0.0
C2803 C 0.75068 0.46228 0.4536 0.0
C2804 C 0.74616 0.44893 0.44156 0.0
C2805 C 0.7287 0.44224 0.44178 0.0
C2806 C 0.71582 0.44862 0.45424 0.0
C2807 C 0.7203 0.46192 0.46638 0.0
H2808 H 0.72522 0.43201 0.43237 0.0
H2809 H 0.76544 0.57012 0.53969 0.0
H2810 H 0.79304 0.51126 0.80805 0.0
H2811 H 0.78964 0.50922 0.77499 0.0
H2812 H 0.73188 0.50423 0.78153 0.0
H2813 H 0.73501 0.50695 0.81476 0.0
H2814 H 0.75368 0.47851 0.75701 0.0
H2815 H 0.74547 0.54282 0.77086 0.0
H2816 H 0.75687 0.5712 0.78185 0.0
H2817 H 0.8017 0.56751 0.74447 0.0
H2818 H 0.7907 0.53904 0.73339 0.0
H2819 H 0.72344 0.48117 0.66758 0.0
H2820 H 0.72494 0.48772 0.7002 0.0
H2821 H 0.77228 0.519 0.69038 0.0
H2822 H 0.77 0.51369 0.65797 0.0
H2823 H 0.75819 0.53205 0.71697 0.0
H2824 H 0.77518 0.47359 0.70415 0.0
H2825 H 0.7748 0.44309 0.69262 0.0
H2826 H 0.72866 0.43204 0.72642 0.0
H2827 H 0.72867 0.46256 0.73807 0.0
C2828 C 0.7796 0.50945 0.80254 0.0
C2829 C 0.76421 0.50943 0.81401 0.0
C2830 C 0.77772 0.50848 0.78362 0.0
C2831 C 0.76048 0.50703 0.77591 0.0
C2832 C 0.74525 0.50566 0.78734 0.0
C2833 C 0.74707 0.507 0.80628 0.0
C2834 C 0.75829 0.50652 0.75592 0.0
C2835 C 0.75432 0.49023 0.74821 0.0
C2836 C 0.76069 0.5216 0.74444 0.0
C2837 C 0.76732 0.53866 0.75142 0.0
C2838 C 0.75786 0.54795 0.76512 0.0
C2839 C 0.76422 0.56409 0.77132 0.0
C2840 C 0.78001 0.57113 0.76389 0.0
C2841 C 0.78948 0.56205 0.75022 0.0
C2842 C 0.78317 0.54592 0.74397 0.0
C2843 C 0.73373 0.48996 0.67232 0.0
C2844 C 0.74686 0.49652 0.66025 0.0
C2845 C 0.73478 0.49348 0.69101 0.0
C2846 C 0.7492 0.50325 0.69792 0.0
C2847 C 0.76116 0.51124 0.68557 0.0
C2848 C 0.75987 0.50808 0.66695 0.0
C2849 C 0.75269 0.50403 0.71792 0.0
C2850 C 0.75726 0.52028 0.72564 0.0
C2851 C 0.75235 0.48861 0.72929 0.0
C2852 C 0.75175 0.47046 0.72179 0.0
C2853 C 0.7648 0.46474 0.70895 0.0
C2854 C 0.76469 0.44742 0.70243 0.0
C2855 C 0.75166 0.43565 0.7087 0.0
C2856 C 0.73871 0.44118 0.72152 0.0
C2857 C 0.73876 0.45849 0.7281 0.0
H2858 H 0.75164 0.42223 0.70368 0.0
H2859 H 0.7849 0.58363 0.7687 0.0
H2860 H 0.47841 0.31136 0.72618 0.0
H2861 H 0.48054 0.27923 0.72781 0.0
H2862 H 0.5204 0.28179 0.77065 0.0
H2863 H 0.51825 0.31462 0.76903 0.0
H2864 H 0.52781 0.25528 0.74157 0.0
H2865 H 0.47994 0.27385 0.78296 0.0
H2866 H 0.45175 0.28996 0.79168 0.0
H2867 H 0.42236 0.26275 0.75061 0.0
H2868 H 0.45045 0.2467 0.74141 0.0
H2869 H 0.5196 0.16705 0.77656 0.0
H2870 H 0.51895 0.19945 0.77437 0.0
H2871 H 0.47939 0.19802 0.73116 0.0
H2872 H 0.48053 0.16534 0.73276 0.0
H2873 H 0.47214 0.22392 0.7599 0.0
H2874 H 0.51684 0.20684 0.71682 0.0
H2875 H 0.54392 0.19234 0.7033 0.0
H2876 H 0.57784 0.21685 0.74256 0.0
H2877 H 0.55094 0.23155 0.75638 0.0
C2878 C 0.48799 0.30524 0.73567 0.0
C2879 C 0.49839 0.31563 0.74728 0.0
C2880 C 0.48903 0.28677 0.73671 0.0
C2881 C 0.5005 0.27808 0.74943 0.0
C2882 C 0.51142 0.28828 0.76074 0.0
C2883 C 0.5102 0.30697 0.75983 0.0
C2884 C 0.50031 0.25837 0.75114 0.0
C2885 C 0.5158 0.24839 0.746 0.0
C2886 C 0.48427 0.24943 0.75593 0.0
C2887 C 0.46737 0.25919 0.76138 0.0
C2888 C 0.46752 0.27143 0.77565 0.0
C2889 C 0.45154 0.28053 0.78071 0.0
C2890 C 0.43528 0.27741 0.77168 0.0
C2891 C 0.43497 0.26518 0.75758 0.0
C2892 C 0.45092 0.25607 0.75245 0.0
C2893 C 0.5104 0.17358 0.76687 0.0
C2894 C 0.49989 0.1636 0.75497 0.0
C2895 C 0.51026 0.19212 0.76547 0.0
C2896 C 0.49935 0.20112 0.75243 0.0
C2897 C 0.48803 0.1913 0.74123 0.0
C2898 C 0.48851 0.17267 0.7423 0.0
C2899 C 0.49976 0.2208 0.75074 0.0
C2900 C 0.48425 0.23078 0.75572 0.0
C2901 C 0.51565 0.22972 0.74539 0.0
C2902 C 0.53179 0.22005 0.73788 0.0
C2903 C 0.53002 0.20889 0.72282 0.0
C2904 C 0.54536 0.2007 0.71502 0.0
C2905 C 0.56257 0.20352 0.72216 0.0
C2906 C 0.56449 0.21459 0.7371 0.0
C2907 C 0.54919 0.22289 0.74491 0.0
H2908 H 0.57443 0.19721 0.71604 0.0
H2909 H 0.42292 0.28445 0.77563 0.0
H2910 H 0.46933 0.92956 0.23199 0.0
H2911 H 0.47068 0.9613 0.22888 0.0
H2912 H 0.52719 0.95879 0.24423 0.0
H2913 H 0.5255 0.92644 0.24894 0.0
H2914 H 0.5118 0.98385 0.2617 0.0
H2915 H 0.50609 0.96913 0.19669 0.0
H2916 H 0.49098 0.95593 0.17032 0.0
H2917 H 0.44231 0.9865 0.18151 0.0
H2918 H 0.45701 -0.00029 0.20805 0.0
H2919 H 0.52772 0.07515 0.24072 0.0
H2920 H 0.52801 0.04243 0.23988 0.0
H2921 H 0.46979 0.04375 0.23398 0.0
H2922 H 0.46943 0.0761 0.23539 0.0
H2923 H 0.48578 0.01996 0.21024 0.0
H2924 H 0.48496 0.03141 0.27314 0.0
H2925 H 0.49429 0.04614 0.30127 0.0
H2926 H 0.54776 0.02249 0.29654 0.0
H2927 H 0.53878 0.00776 0.2682 0.0
C2928 C 0.48229 0.93549 0.23445 0.0
C2929 C 0.49741 0.92511 0.2407 0.0
C2930 C 0.48304 0.95393 0.23244 0.0
C2931 C 0.49915 0.96277 0.2358 0.0
C2932 C 0.51454 0.95243 0.24141 0.0
C2933 C 0.51365 0.93385 0.24399 0.0
C2934 C 0.49943 0.98277 0.23504 0.0
C2935 C 0.50655 0.9916 0.25013 0.0
C2936 C 0.49141 0.99328 0.22059 0.0
C2937 C 0.48268 0.98534 0.20447 0.0
C2938 C 0.49215 0.97298 0.19359 0.0
C2939 C 0.48364 0.96549 0.1786 0.0
C2940 C 0.46569 0.97035 0.17427 0.0
C2941 C 0.45621 0.98273 0.18488 0.0
C2942 C 0.46464 0.99024 0.19988 0.0
C2943 C 0.51502 0.06842 0.23942 0.0
C2944 C 0.4986 0.07824 0.23784 0.0
C2945 C 0.51517 0.04973 0.23881 0.0
C2946 C 0.49892 0.04055 0.23663 0.0
C2947 C 0.48254 0.05042 0.23532 0.0
C2948 C 0.48238 0.06897 0.23612 0.0
C2949 C 0.49887 0.02066 0.23645 0.0
C2950 C 0.49147 0.012 0.22146 0.0
C2951 C 0.50588 0.01026 0.25121 0.0
C2952 C 0.51127 0.01862 0.26848 0.0
C2953 C 0.49874 0.02942 0.27805 0.0
C2954 C 0.50395 0.03776 0.29403 0.0
C2955 C 0.52162 0.03529 0.30066 0.0
C2956 C 0.53408 0.02439 0.29136 0.0
C2957 C 0.52893 0.01602 0.27536 0.0
H2958 H 0.52565 0.04178 0.31302 0.0
H2959 H 0.45914 0.96453 0.16268 0.0
H2960 H 0.83416 0.76519 0.99794 0.0
H2961 H 0.80227 0.76202 0.99028 0.0
H2962 H 0.81416 0.70982 0.96956 0.0
H2963 H 0.84648 0.71291 0.97734 0.0
H2964 H 0.78494 0.73915 0.94966 0.0
H2965 H 0.80126 0.70651 0.00692 0.0
H2966 H 0.82068 0.70995 0.03397 0.0
H2967 H 0.78902 0.75601 0.04941 0.0
H2968 H 0.76983 0.75323 0.02212 0.0
H2969 H 0.69019 0.72465 0.95034 0.0
H2970 H 0.72316 0.72097 0.95164 0.0
H2971 H 0.72363 0.75073 0.0015 0.0
H2972 H 0.69024 0.75315 0.0008 0.0
H2973 H 0.74828 0.72877 0.00555 0.0
H2974 H 0.73345 0.76568 0.95515 0.0
H2975 H 0.72184 0.77773 0.92582 0.0
H2976 H 0.75449 0.73938 0.89695 0.0
H2977 H 0.76511 0.72605 0.92612 0.0
C2978 C 0.83016 0.75317 0.99132 0.0
C2979 C 0.84293 0.73929 0.98832 0.0
C2980 C 0.81186 0.7514 0.98693 0.0
C2981 C 0.80573 0.73568 0.97944 0.0
C2982 C 0.81857 0.72213 0.97526 0.0
C2983 C 0.83706 0.72391 0.9797 0.0
C2984 C 0.78571 0.733 0.97827 0.0
C2985 C 0.77679 0.73623 0.96164 0.0
C2986 C 0.77519 0.73045 0.99426 0.0
C2987 C 0.78416 0.72972 0.01242 0.0
C2988 C 0.79832 0.71726 0.01619 0.0
C2989 C 0.80945 0.71924 0.03143 0.0
C2990 C 0.80625 0.73336 0.04323 0.0
C2991 C 0.79158 0.74519 0.04015 0.0
C2992 C 0.78056 0.7434 0.02481 0.0
C2993 C 0.69736 0.7305 0.96155 0.0
C2994 C 0.68763 0.73958 0.97524 0.0
C2995 C 0.71633 0.72844 0.96226 0.0
C2996 C 0.72634 0.73594 0.97641 0.0
C2997 C 0.71651 0.74483 0.99032 0.0
C2998 C 0.69737 0.74645 0.98985 0.0
C2999 C 0.7469 0.73473 0.97654 0.0
C3000 C 0.75606 0.73092 0.99316 0.0
C3001 C 0.75764 0.73773 0.96056 0.0
C3002 C 0.74978 0.74455 0.94298 0.0
C3003 C 0.73769 0.75937 0.94261 0.0
C3004 C 0.73124 0.76642 0.92597 0.0
C3005 C 0.73723 0.75917 0.90953 0.0
C3006 C 0.7496 0.74478 0.90971 0.0
C3007 C 0.75564 0.73731 0.92631 0.0
H3008 H 0.73243 0.76481 0.89665 0.0
H3009 H 0.815 0.73499 0.05491 0.0
H3010 H 0.98185 0.08555 0.72781 0.0
H3011 H 0.98434 0.05291 0.72536 0.0
H3012 H 0.02944 0.05161 0.76302 0.0
H3013 H 0.02759 0.08365 0.76466 0.0
H3014 H 0.03615 0.0291 0.73712 0.0
H3015 H 0.98358 0.04295 0.77676 0.0
H3016 H 0.95375 0.05785 0.78182 0.0
H3017 H 0.93182 0.03112 0.73584 0.0
H3018 H 0.96152 0.01616 0.73048 0.0
H3019 H 0.02877 0.9325 0.75319 0.0
H3020 H 0.03262 0.96455 0.75877 0.0
H3021 H 0.98584 0.97687 0.72489 0.0
H3022 H 0.98141 0.94578 0.72048 0.0
H3023 H 0.98258 0.99399 0.75362 0.0
H3024 H 0.03294 0.9857 0.70873 0.0
H3025 H 0.06306 0.97799 0.69591 0.0
H3026 H 0.08862 0.99518 0.74495 0.0
H3027 H 0.05865 0.00348 0.75781 0.0
C3028 C 0.99218 0.07816 0.73552 0.0
C3029 C 0.00435 0.08699 0.74659 0.0
C3030 C 0.99366 0.05961 0.73413 0.0
C3031 C 0.00695 0.04981 0.74426 0.0
C3032 C 0.01914 0.05881 0.75507 0.0
C3033 C 0.01791 0.07714 0.75613 0.0
C3034 C 0.00786 0.03014 0.74458 0.0
C3035 C 0.02448 0.02133 0.7408 0.0
C3036 C 0.9927 0.02008 0.7494 0.0
C3037 C 0.97472 0.02847 0.75324 0.0
C3038 C 0.97236 0.04023 0.76779 0.0
C3039 C 0.95549 0.0487 0.77068 0.0
C3040 C 0.9409 0.04543 0.75915 0.0
C3041 C 0.94311 0.03362 0.74477 0.0
C3042 C 0.95993 0.02511 0.74184 0.0
C3043 C 0.01904 0.94214 0.74757 0.0
C3044 C 0.00462 0.93666 0.73663 0.0
C3045 C 0.02149 0.96042 0.75036 0.0
C3046 C 0.00959 0.97319 0.74211 0.0
C3047 C 0.99515 0.96742 0.73155 0.0
C3048 C 0.99253 0.94953 0.72916 0.0
C3049 C 0.01062 0.99261 0.74499 0.0
C3050 C 0.99439 0.00158 0.74995 0.0
C3051 C 0.02604 0.00269 0.74066 0.0
C3052 C 0.04353 0.99477 0.7344 0.0
C3053 C 0.04495 0.98739 0.71696 0.0
C3054 C 0.06202 0.98313 0.70959 0.0
C3055 C 0.07775 0.98596 0.71967 0.0
C3056 C 0.07643 0.9929 0.7372 0.0
C3057 C 0.05941 0.99742 0.7445 0.0
H3058 H 0.09097 0.98298 0.71383 0.0
H3059 H 0.92788 0.05205 0.76137 0.0
H3060 H 0.68095 0.25114 0.46518 0.0
H3061 H 0.71382 0.2517 0.45915 0.0
H3062 H 0.72442 0.24101 0.51629 0.0
H3063 H 0.69174 0.23965 0.52218 0.0
H3064 H 0.74362 0.27352 0.49436 0.0
H3065 H 0.73161 0.20802 0.49646 0.0
H3066 H 0.7129 0.18414 0.48466 0.0
H3067 H 0.7276 0.19861 0.42966 0.0
H3068 H 0.74624 0.22272 0.4412 0.0
H3069 H 0.83645 0.25527 0.50671 0.0
H3070 H 0.80319 0.25524 0.50852 0.0
H3071 H 0.80114 0.23367 0.4543 0.0
H3072 H 0.83401 0.23217 0.45328 0.0
H3073 H 0.77631 0.22031 0.47042 0.0
H3074 H 0.78783 0.28255 0.4625 0.0
H3075 H 0.80283 0.31083 0.46798 0.0
H3076 H 0.78814 0.30768 0.52471 0.0
H3077 H 0.77282 0.27947 0.51949 0.0
C3078 C 0.69038 0.24831 0.47627 0.0
C3079 C 0.68396 0.24478 0.49402 0.0
C3080 C 0.70904 0.24901 0.47291 0.0
C3081 C 0.7214 0.24676 0.48738 0.0
C3082 C 0.715 0.24297 0.50503 0.0
C3083 C 0.69642 0.24177 0.50829 0.0
C3084 C 0.74114 0.24708 0.4841 0.0
C3085 C 0.75088 0.26192 0.48921 0.0
C3086 C 0.75036 0.23235 0.47649 0.0
C3087 C 0.7403 0.21709 0.46968 0.0
C3088 C 0.73089 0.20604 0.48186 0.0
C3089 C 0.72027 0.19251 0.47522 0.0
C3090 C 0.71906 0.18985 0.45642 0.0
C3091 C 0.72857 0.20066 0.44422 0.0
C3092 C 0.7392 0.21423 0.45081 0.0
C3093 C 0.82881 0.24986 0.49558 0.0
C3094 C 0.83779 0.2433 0.48012 0.0
C3095 C 0.80981 0.25032 0.49634 0.0
C3096 C 0.79951 0.245 0.48128 0.0
C3097 C 0.80861 0.23784 0.46613 0.0
C3098 C 0.82749 0.2368 0.46566 0.0
C3099 C 0.77932 0.24659 0.48132 0.0
C3100 C 0.76932 0.23211 0.47543 0.0
C3101 C 0.76986 0.26208 0.48732 0.0
C3102 C 0.77925 0.27889 0.49063 0.0
C3103 C 0.78788 0.28785 0.47616 0.0
C3104 C 0.79641 0.30388 0.4792 0.0
C3105 C 0.79654 0.311 0.4967 0.0
C3106 C 0.78805 0.30215 0.51117 0.0
C3107 C 0.77934 0.2862 0.50815 0.0
H3108 H 0.80319 0.32339 0.49904 0.0
H3109 H 0.71077 0.17942 0.4513 0.0
H3110 H 0.20735 0.49645 0.07771 0.0
H3111 H 0.2096 0.49199 0.04463 0.0
H3112 H 0.26053 0.46326 0.05239 0.0
H3113 H 0.25817 0.46739 0.08544 0.0
H3114 H 0.26214 0.48896 0.02626 0.0
H3115 H 0.22802 0.44034 0.0405 0.0
H3116 H 0.20481 0.41993 0.05171 0.0
H3117 H 0.1648 0.44642 0.0176 0.0
H3118 H 0.18763 0.46734 0.00648 0.0
H3119 H 0.27049 0.47507 0.93197 0.0
H3120 H 0.26837 0.46966 0.96452 0.0
H3121 H 0.21241 0.48827 0.96369 0.0
H3122 H 0.21387 0.4909 0.93004 0.0
H3123 H 0.21534 0.46287 0.98717 0.0
H3124 H 0.25666 0.51414 0.97709 0.0
H3125 H 0.28484 0.52652 0.96451 0.0
H3126 H 0.31637 0.48501 0.99149 0.0
H3127 H 0.28841 0.47234 0.00408 0.0
C3128 C 0.21927 0.48964 0.07229 0.0
C3129 C 0.23285 0.48271 0.0841 0.0
C3130 C 0.2203 0.48668 0.05346 0.0
C3131 C 0.23503 0.47697 0.0461 0.0
C3132 C 0.24892 0.4706 0.0578 0.0
C3133 C 0.24775 0.47327 0.07662 0.0
C3134 C 0.23696 0.47527 0.02601 0.0
C3135 C 0.25192 0.48314 0.01774 0.0
C3136 C 0.22388 0.4672 0.01494 0.0
C3137 C 0.20959 0.4557 0.02284 0.0
C3138 C 0.2142 0.44216 0.03569 0.0
C3139 C 0.20112 0.43039 0.04195 0.0
C3140 C 0.18336 0.4319 0.03538 0.0
C3141 C 0.17857 0.4453 0.0227 0.0
C3142 C 0.19159 0.45715 0.01643 0.0
C3143 C 0.25777 0.47827 0.93871 0.0
C3144 C 0.24252 0.48405 0.92855 0.0
C3145 C 0.2566 0.47531 0.95749 0.0
C3146 C 0.24052 0.47944 0.96699 0.0
C3147 C 0.22514 0.4853 0.95683 0.0
C3148 C 0.22602 0.4872 0.93768 0.0
C3149 C 0.23986 0.47775 0.9874 0.0
C3150 C 0.2253 0.46897 0.99575 0.0
C3151 C 0.25374 0.48426 -0.00128 0.0
C3152 C 0.27045 0.49228 0.99143 0.0
C3153 C 0.26961 0.50769 0.98032 0.0
C3154 C 0.28554 0.51473 0.97318 0.0
C3155 C 0.30238 0.50655 0.97718 0.0
C3156 C 0.30333 0.49134 0.9884 0.0
C3157 C 0.28746 0.48425 0.99556 0.0
H3158 H 0.31468 0.512 0.9716 0.0
H3159 H 0.17335 0.42261 0.04001 0.0
H3160 H 0.27508 0.4896 0.8304 0.0
H3161 H 0.27622 0.48902 0.79707 0.0
H3162 H 0.21965 0.47598 0.79555 0.0
H3163 H 0.2185 0.47612 0.829 0.0
H3164 H 0.24248 0.4541 0.773 0.0
H3165 H 0.23354 0.51834 0.78583 0.0
H3166 H 0.24409 0.54454 0.80206 0.0
H3167 H 0.29616 0.53915 0.77604 0.0
H3168 H 0.28598 0.51281 0.7598 0.0
H3169 H 0.2205 0.48058 0.67805 0.0
H3170 H 0.22001 0.47777 0.71182 0.0
H3171 H 0.27806 0.48281 0.71319 0.0
H3172 H 0.27892 0.48472 0.68032 0.0
H3173 H 0.25647 0.50768 0.7357 0.0
H3174 H 0.27165 0.44854 0.72427 0.0
H3175 H 0.27032 0.41928 0.70998 0.0
H3176 H 0.21813 0.41118 0.73438 0.0
H3177 H 0.21896 0.44067 0.7485 0.0
C3178 C 0.26276 0.487 0.82297 0.0
C3179 C 0.24667 0.48301 0.83234 0.0
C3180 C 0.26348 0.48651 0.80392 0.0
C3181 C 0.24802 0.48239 0.79383 0.0
C3182 C 0.23176 0.47907 0.8031 0.0
C3183 C 0.23104 0.47945 0.82219 0.0
C3184 C 0.24868 0.48189 0.77358 0.0
C3185 C 0.2451 0.4659 0.76481 0.0
C3186 C 0.25342 0.49696 0.76298 0.0
C3187 C 0.25898 0.51363 0.77159 0.0
C3188 C 0.2472 0.52282 0.78349 0.0
C3189 C 0.25314 0.53765 0.79274 0.0
C3190 C 0.27078 0.5435 0.79009 0.0
C3191 C 0.28249 0.53462 0.77806 0.0
C3192 C 0.27662 0.51977 0.76879 0.0
C3193 C 0.23312 0.48065 0.68559 0.0
C3194 C 0.24969 0.48256 0.67636 0.0
C3195 C 0.23285 0.47912 0.70481 0.0
C3196 C 0.24905 0.48013 0.71489 0.0
C3197 C 0.26547 0.48193 0.70568 0.0
C3198 C 0.26584 0.48285 0.68674 0.0
C3199 C 0.24908 0.48021 0.73511 0.0
C3200 C 0.25327 0.49601 0.74386 0.0
C3201 C 0.24596 0.46472 0.74567 0.0
C3202 C 0.24516 0.44703 0.73711 0.0
C3203 C 0.25972 0.44069 0.72632 0.0
C3204 C 0.25911 0.42402 0.71831 0.0
C3205 C 0.24409 0.41342 0.72117 0.0
C3206 C 0.22971 0.41946 0.7321 0.0
C3207 C 0.23023 0.43617 0.7401 0.0
H3208 H 0.24365 0.4005 0.71499 0.0
H3209 H 0.27539 0.55492 0.79734 0.0
H3210 H 0.25202 0.46251 0.57966 0.0
H3211 H 0.25098 0.46554 0.54627 0.0
H3212 H 0.2417 0.52212 0.55098 0.0
H3213 H 0.24126 0.51896 0.584 0.0
H3214 H 0.22541 0.51318 0.5236 0.0
H3215 H 0.28692 0.49968 0.54372 0.0
H3216 H 0.31115 0.4817 0.55905 0.0
H3217 H 0.29992 0.43765 0.52484 0.0
H3218 H 0.27556 0.45534 0.50939 0.0
H3219 H 0.25317 0.53681 0.43362 0.0
H3220 H 0.25339 0.53391 0.467 0.0
H3221 H 0.25824 0.47693 0.46281 0.0
H3222 H 0.25833 0.47975 0.42955 0.0
H3223 H 0.27759 0.48664 0.48997 0.0
H3224 H 0.21461 0.4994 0.47228 0.0
H3225 H 0.18622 0.51482 0.46232 0.0
H3226 H 0.19959 0.56024 0.49366 0.0
H3227 H 0.22802 0.54505 0.50385 0.0
C3228 C 0.2491 0.47547 0.57353 0.0
C3229 C 0.2471 0.49054 0.58447 0.0
C3230 C 0.2489 0.47727 0.55442 0.0
C3231 C 0.24717 0.49419 0.54601 0.0
C3232 C 0.24339 0.50893 0.557 0.0
C3233 C 0.24306 0.50708 0.57598 0.0
C3234 C 0.24975 0.49687 0.52593 0.0
C3235 C 0.23704 0.50763 0.51634 0.0
C3236 C 0.26469 0.48937 0.51625 0.0
C3237 C 0.27934 0.47877 0.52552 0.0
C3238 C 0.28958 0.48613 0.53954 0.0
C3239 C 0.30334 0.476 0.54823 0.0
C3240 C 0.30705 0.45854 0.54294 0.0
C3241 C 0.29703 0.45118 0.52892 0.0
C3242 C 0.28327 0.46125 0.52018 0.0
C3243 C 0.25479 0.52369 0.43981 0.0
C3244 C 0.25553 0.50848 0.42889 0.0
C3245 C 0.2546 0.52204 0.45892 0.0
C3246 C 0.25522 0.50517 0.46747 0.0
C3247 C 0.25751 0.49009 0.45659 0.0
C3248 C 0.25771 0.49173 0.43752 0.0
C3249 C 0.25322 0.50301 0.48766 0.0
C3250 C 0.2661 0.49239 0.49728 0.0
C3251 C 0.23854 0.51084 0.49746 0.0
C3252 C 0.2235 0.52117 0.48862 0.0
C3253 C 0.2117 0.51283 0.47666 0.0
C3254 C 0.1955 0.52144 0.47117 0.0
C3255 C 0.19102 0.53838 0.47754 0.0
C3256 C 0.20302 0.54705 0.48886 0.0
C3257 C 0.21918 0.53847 0.49446 0.0
H3258 H 0.17821 0.54474 0.47369 0.0
H3259 H 0.3177 0.45071 0.5497 0.0
H3260 H 0.24212 0.53055 0.32652 0.0
H3261 H 0.23696 0.52386 0.29438 0.0
H3262 H 0.25005 0.46858 0.3056 0.0
H3263 H 0.25413 0.47516 0.33825 0.0
H3264 H 0.2687 0.48879 0.27385 0.0
H3265 H 0.21163 0.47635 0.3016 0.0
H3266 H 0.1842 0.48278 0.31977 0.0
H3267 H 0.16675 0.52243 0.28028 0.0
H3268 H 0.19459 0.51705 0.26234 0.0
H3269 H 0.25103 0.46101 0.18556 0.0
H3270 H 0.25115 0.46286 0.21871 0.0
H3271 H 0.21873 0.51143 0.21534 0.0
H3272 H 0.2175 0.50883 0.18185 0.0
H3273 H 0.2082 0.49232 0.24413 0.0
H3274 H 0.26577 0.51123 0.22165 0.0
H3275 H 0.29365 0.50849 0.20312 0.0
H3276 H 0.30928 0.46066 0.2326 0.0
H3277 H 0.28133 0.46298 0.25113 0.0
C3278 C 0.24425 0.51703 0.32204 0.0
C3279 C 0.24899 0.50342 0.33465 0.0
C3280 C 0.24103 0.5132 0.30378 0.0
C3281 C 0.24286 0.49572 0.29773 0.0
C3282 C 0.2484 0.48214 0.31013 0.0
C3283 C 0.25101 0.48591 0.32862 0.0
C3284 C 0.23996 0.49199 0.27819 0.0
C3285 C 0.25544 0.48923 0.26741 0.0
C3286 C 0.22258 0.4933 0.26984 0.0
C3287 C 0.2056 0.4965 0.2807 0.0
C3288 C 0.20225 0.48677 0.29694 0.0
C3289 C 0.18655 0.49022 0.30723 0.0
C3290 C 0.17377 0.50304 0.30122 0.0
C3291 C 0.1767 0.51252 0.28495 0.0
C3292 C 0.19251 0.50933 0.27476 0.0
C3293 C 0.24428 0.47233 0.19182 0.0
C3294 C 0.23491 0.48522 0.18109 0.0
C3295 C 0.24418 0.47328 0.21083 0.0
C3296 C 0.23533 0.48752 0.21961 0.0
C3297 C 0.22578 0.50038 0.20892 0.0
C3298 C 0.22539 0.49911 0.18981 0.0
C3299 C 0.23705 0.48935 0.2398 0.0
C3300 C 0.2214 0.49178 0.25066 0.0
C3301 C 0.25428 0.48831 0.24837 0.0
C3302 C 0.27141 0.48721 0.23769 0.0
C3303 C 0.27514 0.50011 0.22415 0.0
C3304 C 0.29093 0.49862 0.21364 0.0
C3305 C 0.30321 0.48439 0.21666 0.0
C3306 C 0.29975 0.47167 0.23027 0.0
C3307 C 0.28394 0.47307 0.24079 0.0
H3308 H 0.31542 0.48325 0.20848 0.0
H3309 H 0.16157 0.5056 0.30913 0.0
H3310 H 0.50989 0.82918 0.21996 0.0
H3311 H 0.51338 0.79673 0.22066 0.0
H3312 H 0.49022 0.79541 0.27487 0.0
H3313 H 0.48805 0.82746 0.27454 0.0
H3314 H 0.50992 0.769 0.27352 0.0
H3315 H 0.46455 0.79182 0.23252 0.0
H3316 H 0.45122 0.809 0.20658 0.0
H3317 H 0.48546 0.78013 0.16926 0.0
H3318 H 0.49916 0.76293 0.19502 0.0
H3319 H 0.48146 0.68047 0.27035 0.0
H3320 H 0.47807 0.71289 0.26984 0.0
H3321 H 0.50796 0.71519 0.21915 0.0
H3322 H 0.51029 0.68283 0.21899 0.0
H3323 H 0.48349 0.741 0.21922 0.0
H3324 H 0.5316 0.72317 0.26665 0.0
H3325 H 0.54032 0.70654 0.29472 0.0
H3326 H 0.49228 0.72627 0.32174 0.0
H3327 H 0.48369 0.74365 0.29397 0.0
C3328 C 0.5066 0.82196 0.23241 0.0
C3329 C 0.49895 0.83098 0.24733 0.0
C3330 C 0.50811 0.80335 0.23264 0.0
C3331 C 0.50131 0.79343 0.24751 0.0
C3332 C 0.49542 0.80256 0.2631 0.0
C3333 C 0.49437 0.8211 0.26301 0.0
C3334 C 0.49896 0.77381 0.2465 0.0
C3335 C 0.50399 0.76304 0.26162 0.0
C3336 C 0.49098 0.76571 0.2312 0.0
C3337 C 0.48304 0.77625 0.21571 0.0
C3338 C 0.46935 0.78925 0.2188 0.0
C3339 C 0.46171 0.79897 0.20413 0.0
C3340 C 0.46753 0.79569 0.18629 0.0
C3341 C 0.481 0.78268 0.18309 0.0
C3342 C 0.48871 0.77295 0.19771 0.0
C3343 C 0.48682 0.68789 0.25883 0.0
C3344 C 0.49625 0.67906 0.24479 0.0
C3345 C 0.48519 0.70647 0.25871 0.0
C3346 C 0.49348 0.71664 0.24487 0.0
C3347 C 0.50165 0.70775 0.23013 0.0
C3348 C 0.50291 0.68917 0.23002 0.0
C3349 C 0.49469 0.73637 0.24607 0.0
C3350 C 0.48943 0.74712 0.23101 0.0
C3351 C 0.50168 0.74463 0.26169 0.0
C3352 C 0.50695 0.73444 0.27829 0.0
C3353 C 0.52291 0.72387 0.27858 0.0
C3354 C 0.52779 0.71431 0.29442 0.0
C3355 C 0.51665 0.71504 0.30988 0.0
C3356 C 0.50078 0.72559 0.30968 0.0
C3357 C 0.49601 0.73545 0.29399 0.0
H3358 H 0.52046 0.70781 0.32219 0.0
H3359 H 0.46157 0.8032 0.17494 0.0
H3360 H 0.06418 0.34123 0.29128 0.0
H3361 H 0.0774 0.3143 0.30485 0.0
H3362 H 0.02537 0.30151 0.32809 0.0
H3363 H 0.01207 0.32898 0.31451 0.0
H3364 H 0.04976 0.30849 0.35324 0.0
H3365 H 0.05042 0.27473 0.2993 0.0
H3366 H 0.05581 0.26779 0.26708 0.0
H3367 H 0.11322 0.27146 0.27501 0.0
H3368 H 0.10829 0.27861 0.30729 0.0
H3369 H 0.09841 0.25936 0.4149 0.0
H3370 H 0.07957 0.26108 0.38773 0.0
H3371 H 0.12278 0.28599 0.3578 0.0
H3372 H 0.14242 0.28312 0.3851 0.0
H3373 H 0.09841 0.26523 0.3355 0.0
H3374 H 0.09772 0.31228 0.37915 0.0
H3375 H 0.09773 0.32197 0.41113 0.0
H3376 H 0.04539 0.29959 0.41954 0.0
H3377 H 0.04531 0.28933 0.38766 0.0
C3378 C 0.05539 0.33224 0.2986 0.0
C3379 C 0.03731 0.33713 0.30223 0.0
C3380 C 0.06291 0.31673 0.3062 0.0
C3381 C 0.05239 0.3059 0.31753 0.0
C3382 C 0.03366 0.30969 0.31929 0.0
C3383 C 0.02608 0.32531 0.31156 0.0
C3384 C 0.0619 0.29403 0.33086 0.0
C3385 C 0.05993 0.29857 0.34931 0.0
C3386 C 0.07586 0.28176 0.32559 0.0
C3387 C 0.07892 0.27699 0.30606 0.0
C3388 C 0.06423 0.27394 0.29434 0.0
C3389 C 0.0672 0.27004 0.27596 0.0
C3390 C 0.08485 0.26912 0.26901 0.0
C3391 C 0.09955 0.27208 0.28044 0.0
C3392 C 0.09666 0.276 0.29884 0.0
C3393 C 0.10392 0.26526 0.40254 0.0
C3394 C 0.12139 0.27221 0.40224 0.0
C3395 C 0.09332 0.26576 0.38693 0.0
C3396 C 0.0997 0.27393 0.37095 0.0
C3397 C 0.11767 0.27969 0.37012 0.0
C3398 C 0.12862 0.27858 0.38574 0.0
C3399 C 0.08635 0.28027 0.35724 0.0
C3400 C 0.08774 0.27473 0.33911 0.0
C3401 C 0.07239 0.2924 0.36239 0.0
C3402 C 0.07156 0.29992 0.38105 0.0
C3403 C 0.0862 0.30944 0.38781 0.0
C3404 C 0.08626 0.31497 0.40593 0.0
C3405 C 0.07158 0.31136 0.41737 0.0
C3406 C 0.05676 0.30235 0.41065 0.0
C3407 C 0.05669 0.29666 0.39255 0.0
H3408 H 0.07168 0.31558 0.43143 0.0
H3409 H 0.08712 0.26616 0.25476 0.0
H3410 H 0.95678 0.88786 0.66873 0.0
H3411 H 0.93925 0.87105 0.64694 0.0
H3412 H 0.98761 0.84054 0.63278 0.0
H3413 H 0.00525 0.85775 0.65399 0.0
H3414 H 0.96819 0.84826 0.60359 0.0
H3415 H 0.9567 0.824 0.66342 0.0
H3416 H 0.94811 0.82538 0.69596 0.0
H3417 H 0.89506 0.84575 0.68109 0.0
H3418 H 0.90339 0.84465 0.64843 0.0
H3419 H 0.92146 0.77305 0.56888 0.0
H3420 H 0.93915 0.79006 0.59065 0.0
H3421 H 0.8983 0.83224 0.5887 0.0
H3422 H 0.88102 0.81571 0.56648 0.0
H3423 H 0.91386 0.81737 0.62666 0.0
H3424 H 0.92745 0.84436 0.56706 0.0
H3425 H 0.93713 0.84386 0.53479 0.0
H3426 H 0.98743 0.8178 0.55041 0.0
H3427 H 0.97792 0.81791 0.58279 0.0
C3428 C 0.96365 0.87777 0.66069 0.0
C3429 C 0.98221 0.87392 0.66298 0.0
C3430 C 0.95365 0.86811 0.64843 0.0
C3431 C 0.9621 0.85429 0.6387 0.0
C3432 C 0.98087 0.85109 0.6403 0.0
C3433 C 0.99091 0.86094 0.65233 0.0
C3434 C 0.95134 0.84292 0.62706 0.0
C3435 C 0.95647 0.84132 0.60871 0.0
C3436 C 0.93595 0.83405 0.63381 0.0
C3437 C 0.93072 0.83435 0.65345 0.0
C3438 C 0.94322 0.82884 0.66708 0.0
C3439 C 0.9384 0.82956 0.68555 0.0
C3440 C 0.92106 0.83568 0.69059 0.0
C3441 C 0.90849 0.84101 0.67716 0.0
C3442 C 0.91324 0.84031 0.65866 0.0
C3443 C 0.91643 0.78601 0.57305 0.0
C3444 C 0.90023 0.79336 0.56583 0.0
C3445 C 0.92639 0.79559 0.58549 0.0
C3446 C 0.91988 0.81228 0.59114 0.0
C3447 C 0.90342 0.81935 0.58439 0.0
C3448 C 0.89375 0.81004 0.57159 0.0
C3449 C 0.93079 0.82288 0.60331 0.0
C3450 C 0.92567 0.82427 0.6217 0.0
C3451 C 0.9463 0.83145 0.59672 0.0
C3452 C 0.95184 0.83086 0.57727 0.0
C3453 C 0.94045 0.83826 0.56357 0.0
C3454 C 0.94594 0.83812 0.54528 0.0
C3455 C 0.96286 0.8307 0.54055 0.0
C3456 C 0.97431 0.82343 0.5541 0.0
C3457 C 0.96888 0.82353 0.57242 0.0
H3458 H 0.96712 0.83066 0.52639 0.0
H3459 H 0.91737 0.83626 0.70489 0.0
H3460 H 0.45003 0.61293 0.82225 0.0
H3461 H 0.43758 0.62972 0.84822 0.0
H3462 H 0.41841 0.67111 0.81079 0.0
H3463 H 0.43076 0.65436 0.78505 0.0
H3464 H 0.43528 0.68378 0.84168 0.0
H3465 H 0.38988 0.64052 0.82466 0.0
H3466 H 0.37775 0.6106 0.82093 0.0
H3467 H 0.38913 0.59808 0.87732 0.0
H3468 H 0.40137 0.62787 0.88133 0.0
H3469 H 0.36906 0.7381 0.87753 0.0
H3470 H 0.38209 0.71519 0.85766 0.0
H3471 H 0.38564 0.67855 0.90372 0.0
H3472 H 0.37094 0.70076 0.923 0.0
H3473 H 0.38148 0.66084 0.87435 0.0
H3474 H 0.42201 0.70772 0.89155 0.0
H3475 H 0.42855 0.73958 0.89403 0.0
H3476 H 0.42424 0.74613 0.83578 0.0
H3477 H 0.41776 0.7144 0.83293 0.0
C3478 C 0.44348 0.6258 0.81979 0.0
C3479 C 0.44144 0.63269 0.80196 0.0
C3480 C 0.43631 0.63525 0.83449 0.0
C3481 C 0.42711 0.65155 0.83129 0.0
C3482 C 0.42561 0.65857 0.81345 0.0
C3483 C 0.43264 0.64912 0.79883 0.0
C3484 C 0.41829 0.66133 0.84617 0.0
C3485 C 0.42361 0.67876 0.84898 0.0
C3486 C 0.40335 0.65451 0.85589 0.0
C3487 C 0.39681 0.63631 0.85322 0.0
C3488 C 0.39001 0.63129 0.83619 0.0
C3489 C 0.38302 0.61438 0.83405 0.0
C3490 C 0.38269 0.60241 0.84887 0.0
C3491 C 0.38939 0.60732 0.86584 0.0
C3492 C 0.39636 0.62422 0.86806 0.0
C3493 C 0.37194 0.7249 0.88309 0.0
C3494 C 0.36922 0.72106 0.90163 0.0
C3495 C 0.3796 0.71193 0.8719 0.0
C3496 C 0.38565 0.69553 0.87951 0.0
C3497 C 0.38133 0.69121 0.89766 0.0
C3498 C 0.3729 0.70387 0.90862 0.0
C3499 C 0.39789 0.68363 0.86911 0.0
C3500 C 0.39344 0.66575 0.86747 0.0
C3501 C 0.41363 0.69004 0.86037 0.0
C3502 C 0.41932 0.7087 0.86204 0.0
C3503 C 0.42264 0.71594 0.87926 0.0
C3504 C 0.4263 0.73397 0.88074 0.0
C3505 C 0.42673 0.74486 0.86508 0.0
C3506 C 0.42394 0.73768 0.84789 0.0
C3507 C 0.42036 0.71966 0.84633 0.0
H3508 H 0.42906 0.75889 0.86626 0.0
H3509 H 0.37721 0.58936 0.84722 0.0
H3510 H 0.59637 0.22236 0.07833 0.0
H3511 H 0.5784 0.21266 0.10459 0.0
H3512 H 0.56704 0.16418 0.07677 0.0
H3513 H 0.5849 0.17403 0.05056 0.0
H3514 H 0.53643 0.18138 0.09088 0.0
H3515 H 0.59873 0.1639 0.1101 0.0
H3516 H 0.63016 0.1675 0.12054 0.0
H3517 H 0.6115 0.20336 0.16183 0.0
H3518 H 0.57987 0.19974 0.15187 0.0
H3519 H 0.51842 0.11227 0.15803 0.0
H3520 H 0.52813 0.13125 0.13215 0.0
H3521 H 0.5318 0.17563 0.16818 0.0
H3522 H 0.52371 0.15726 0.19366 0.0
H3523 H 0.5632 0.16663 0.15155 0.0
H3524 H 0.5018 0.18413 0.1347 0.0
H3525 H 0.46976 0.18162 0.12552 0.0
H3526 H 0.48577 0.1473 0.08187 0.0
H3527 H 0.51794 0.15005 0.0904 0.0
C3528 C 0.58985 0.20984 0.07783 0.0
C3529 C 0.5917 0.1991 0.06252 0.0
C3530 C 0.5798 0.20422 0.09282 0.0
C3531 C 0.57147 0.18779 0.09242 0.0
C3532 C 0.5734 0.17696 0.07715 0.0
C3533 C 0.58359 0.18254 0.0623 0.0
C3534 C 0.56042 0.18172 0.1077 0.0
C3535 C 0.54223 0.17806 0.10418 0.0
C3536 C 0.56789 0.17836 0.12518 0.0
C3537 C 0.58698 0.18187 0.12995 0.0
C3538 C 0.60136 0.17284 0.12114 0.0
C3539 C 0.61921 0.17481 0.12704 0.0
C3540 C 0.62288 0.18585 0.14163 0.0
C3541 C 0.60867 0.19492 0.15043 0.0
C3542 C 0.59078 0.19289 0.14469 0.0
C3543 C 0.52164 0.12598 0.16038 0.0
C3544 C 0.52082 0.13294 0.17804 0.0
C3545 C 0.52662 0.13688 0.1456 0.0
C3546 C 0.53029 0.15482 0.14842 0.0
C3547 C 0.52885 0.16184 0.16581 0.0
C3548 C 0.52459 0.15102 0.18047 0.0
C3549 C 0.53945 0.16537 0.13447 0.0
C3550 C 0.55724 0.17016 0.13836 0.0
C3551 C 0.53153 0.16997 0.1175 0.0
C3552 C 0.51221 0.16702 0.11338 0.0
C3553 C 0.49845 0.17581 0.12334 0.0
C3554 C 0.48028 0.17445 0.11818 0.0
C3555 C 0.47571 0.16412 0.10331 0.0
C3556 C 0.48931 0.15522 0.09346 0.0
C3557 C 0.50751 0.15674 0.09837 0.0
H3558 H 0.46164 0.16312 0.09934 0.0
H3559 H 0.63671 0.18725 0.14622 0.0
H3560 H 0.06383 0.66333 0.21353 0.0
H3561 H 0.07938 0.68075 0.18959 0.0
H3562 H 0.04429 0.65961 0.14889 0.0
H3563 H 0.02864 0.64258 0.17236 0.0
H3564 H 0.0829 0.6559 0.1419 0.0
H3565 H 0.03546 0.69805 0.15805 0.0
H3566 H 0.01795 0.71683 0.17939 0.0
H3567 H 0.0657 0.74575 0.19132 0.0
H3568 H 0.08362 0.72693 0.17022 0.0
H3569 H 0.09513 0.70371 0.05901 0.0
H3570 H 0.08101 0.69092 0.08649 0.0
H3571 H 0.11633 0.72078 0.1205 0.0
H3572 H 0.13046 0.73354 0.09319 0.0
H3573 H 0.07966 0.72138 0.13294 0.0
H3574 H 0.12679 0.67896 0.11593 0.0
H3575 H 0.14349 0.65997 0.09413 0.0
H3576 H 0.09504 0.63154 0.08367 0.0
H3577 H 0.078 0.6505 0.1053 0.0
C3578 C 0.0595 0.66244 0.19945 0.0
C3579 C 0.0451 0.65156 0.19478 0.0
C3580 C 0.06827 0.67245 0.18586 0.0
C3581 C 0.0629 0.67138 0.1675 0.0
C3582 C 0.04856 0.66055 0.16295 0.0
C3583 C 0.03965 0.65087 0.17642 0.0
C3584 C 0.07261 0.68066 0.1526 0.0
C3585 C 0.08217 0.67022 0.13993 0.0
C3586 C 0.07174 0.69935 0.15021 0.0
C3587 C 0.06097 0.71087 0.16274 0.0
C3588 C 0.0423 0.70828 0.16536 0.0
C3589 C 0.03228 0.71897 0.17738 0.0
C3590 C 0.04072 0.73243 0.18675 0.0
C3591 C 0.0592 0.73528 0.18406 0.0
C3592 C 0.06929 0.72461 0.17207 0.0
C3593 C 0.10001 0.70735 0.07234 0.0
C3594 C 0.11403 0.71941 0.07397 0.0
C3595 C 0.09185 0.70019 0.08802 0.0
C3596 C 0.09761 0.70495 0.10554 0.0
C3597 C 0.11158 0.71703 0.10715 0.0
C3598 C 0.11977 0.72414 0.09152 0.0
C3599 C 0.08976 0.69652 0.12214 0.0
C3600 C 0.08058 0.7071 0.13508 0.0
C3601 C 0.09083 0.6779 0.12483 0.0
C3602 C 0.10111 0.6662 0.11215 0.0
C3603 C 0.11969 0.6687 0.10893 0.0
C3604 C 0.12921 0.65794 0.09662 0.0
C3605 C 0.12032 0.64457 0.08751 0.0
C3606 C 0.1019 0.6419 0.09075 0.0
C3607 C 0.09231 0.65262 0.10306 0.0
H3608 H 0.12771 0.63627 0.07795 0.0
H3609 H 0.03294 0.74068 0.19605 0.0
H3610 H 0.59268 0.78621 0.44483 0.0
H3611 H 0.58296 0.79958 0.4155 0.0
H3612 H 0.53861 0.82697 0.44241 0.0
H3613 H 0.54896 0.8145 0.47199 0.0
H3614 H 0.53302 0.80388 0.40619 0.0
H3615 H 0.56028 0.85359 0.43316 0.0
H3616 H 0.58204 0.87368 0.44685 0.0
H3617 H 0.61914 0.86441 0.40255 0.0
H3618 H 0.59777 0.84394 0.38877 0.0
H3619 H 0.50257 0.86705 0.33815 0.0
H3620 H 0.51288 0.85327 0.36678 0.0
H3621 H 0.56206 0.83473 0.34048 0.0
H3622 H 0.55139 0.84816 0.31118 0.0
H3623 H 0.56519 0.85363 0.37641 0.0
H3624 H 0.53423 0.80578 0.34838 0.0
H3625 H 0.50862 0.7915 0.33353 0.0
H3626 H 0.47531 0.80111 0.38063 0.0
H3627 H 0.50054 0.81589 0.39565 0.0
C3628 C 0.58087 0.79503 0.44453 0.0
C3629 C 0.57169 0.7994 0.46075 0.0
C3630 C 0.57539 0.80276 0.42777 0.0
C3631 C 0.5603 0.81456 0.42683 0.0
C3632 C 0.55049 0.81816 0.44287 0.0
C3633 C 0.55632 0.8109 0.45971 0.0
C3634 C 0.55443 0.82247 0.40895 0.0
C3635 C 0.53998 0.81484 0.39973 0.0
C3636 C 0.56358 0.83673 0.4005 0.0
C3637 C 0.57753 0.84689 0.4101 0.0
C3638 C 0.57331 0.85534 0.42663 0.0
C3639 C 0.58551 0.86695 0.43432 0.0
C3640 C 0.60192 0.87035 0.42553 0.0
C3641 C 0.60641 0.86177 0.40933 0.0
C3642 C 0.59428 0.85011 0.40161 0.0
C3643 C 0.51565 0.86011 0.33838 0.0
C3644 C 0.52625 0.85876 0.3224 0.0
C3645 C 0.52144 0.85214 0.35478 0.0
C3646 C 0.53814 0.84286 0.35575 0.0
C3647 C 0.54905 0.84176 0.33995 0.0
C3648 C 0.543 0.84943 0.32327 0.0
C3649 C 0.54416 0.83475 0.37349 0.0
C3650 C 0.55848 0.84246 0.38276 0.0
C3651 C 0.53463 0.82085 0.38215 0.0
C3652 C 0.51928 0.81218 0.37306 0.0
C3653 C 0.52137 0.80511 0.35549 0.0
C3654 C 0.50691 0.79689 0.34705 0.0
C3655 C 0.49029 0.79551 0.3561 0.0
C3656 C 0.48813 0.80231 0.37362 0.0
C3657 C 0.50252 0.81061 0.3821 0.0
H3658 H 0.47911 0.78911 0.34958 0.0
H3659 H 0.61102 0.87984 0.43111 0.0
H3660 H 0.47668 0.30865 0.69212 0.0
H3661 H 0.46406 0.2931 0.6663 0.0
H3662 H 0.4191 0.3311 0.66391 0.0
H3663 H 0.43124 0.34613 0.69055 0.0
H3664 H 0.40866 0.29823 0.65504 0.0
H3665 H 0.45828 0.33658 0.63842 0.0
H3666 H 0.48961 0.3466 0.64228 0.0
H3667 H 0.51053 0.29506 0.62755 0.0
H3668 H 0.47934 0.2846 0.62397 0.0
H3669 H 0.3897 0.28577 0.55997 0.0
H3670 H 0.39871 0.30037 0.58822 0.0
H3671 H 0.43926 0.25888 0.59824 0.0
H3672 H 0.43 0.24406 0.57047 0.0
H3673 H 0.45129 0.29452 0.60253 0.0
H3674 H 0.40467 0.25503 0.62119 0.0
H3675 H 0.3745 0.24181 0.62007 0.0
H3676 H 0.34926 0.29243 0.6317 0.0
H3677 H 0.37932 0.30603 0.63262 0.0
C3678 C 0.46383 0.31335 0.68639 0.0
C3679 C 0.45488 0.32854 0.69315 0.0
C3680 C 0.45672 0.30457 0.67159 0.0
C3681 C 0.44098 0.31131 0.66288 0.0
C3682 C 0.43136 0.3258 0.67039 0.0
C3683 C 0.43823 0.33433 0.68557 0.0
C3684 C 0.43544 0.30412 0.64518 0.0
C3685 C 0.41786 0.29769 0.64346 0.0
C3686 C 0.44768 0.30306 0.63023 0.0
C3687 C 0.46644 0.30974 0.63116 0.0
C3688 C 0.46955 0.32738 0.63602 0.0
C3689 C 0.48728 0.33312 0.6382 0.0
C3690 C 0.50201 0.32141 0.63534 0.0
C3691 C 0.49908 0.30406 0.62988 0.0
C3692 C 0.48138 0.29822 0.62778 0.0
C3693 C 0.40062 0.27993 0.56819 0.0
C3694 C 0.40918 0.26388 0.56326 0.0
C3695 C 0.40567 0.28818 0.58425 0.0
C3696 C 0.41955 0.28058 0.5952 0.0
C3697 C 0.42851 0.26487 0.5899 0.0
C3698 C 0.4232 0.25644 0.57412 0.0
C3699 C 0.42457 0.28872 0.61248 0.0
C3700 C 0.44204 0.29532 0.61406 0.0
C3701 C 0.41236 0.28969 0.62734 0.0
C3702 C 0.39424 0.28161 0.62672 0.0
C3703 C 0.39268 0.2634 0.62329 0.0
C3704 C 0.3756 0.25582 0.62275 0.0
C3705 C 0.35997 0.26629 0.62574 0.0
C3706 C 0.36139 0.28435 0.62933 0.0
C3707 C 0.37845 0.292 0.62988 0.0
H3708 H 0.34676 0.2604 0.62533 0.0
H3709 H 0.51567 0.32576 0.63745 0.0
H3710 H 0.93355 0.15045 0.81186 0.0
H3711 H 0.92421 0.16466 0.84053 0.0
H3712 H 0.97861 0.15684 0.86165 0.0
H3713 H 0.98752 0.14186 0.83373 0.0
H3714 H 0.95688 0.15027 0.88762 0.0
H3715 H 0.96233 0.19883 0.84604 0.0
H3716 H 0.95791 0.21539 0.81692 0.0
H3717 H 0.9003 0.21745 0.82585 0.0
H3718 H 0.90436 0.20075 0.85496 0.0
H3719 H 0.92734 0.20683 0.96251 0.0
H3720 H 0.94526 0.19629 0.93612 0.0
H3721 H 0.89578 0.18957 0.90605 0.0
H3722 H 0.87799 0.19901 0.93251 0.0
H3723 H 0.92127 0.20718 0.88589 0.0
H3724 H 0.9183 0.1523 0.92467 0.0
H3725 H 0.924 0.1375 0.95459 0.0
H3726 H 0.98018 0.1509 0.95142 0.0
H3727 H 0.97476 0.16577 0.92146 0.0
C3728 C 0.94334 0.15166 0.82276 0.0
C3729 C 0.9611 0.14492 0.82078 0.0
C3730 C 0.93813 0.15991 0.83903 0.0
C3731 C 0.95081 0.16209 0.85318 0.0
C3732 C 0.96855 0.15527 0.85107 0.0
C3733 C 0.9736 0.14668 0.8351 0.0
C3734 C 0.94558 0.17131 0.87025 0.0
C3735 C 0.94939 0.16288 0.88719 0.0
C3736 C 0.93614 0.18794 0.86987 0.0
C3737 C 0.93364 0.19847 0.85265 0.0
C3738 C 0.94871 0.20279 0.84178 0.0
C3739 C 0.94628 0.2122 0.82528 0.0
C3740 C 0.92883 0.21745 0.81953 0.0
C3741 C 0.9138 0.21338 0.83033 0.0
C3742 C 0.91616 0.20399 0.84686 0.0
C3743 C 0.92041 0.2023 0.95049 0.0
C3744 C 0.90138 0.20294 0.94963 0.0
C3745 C 0.93058 0.1966 0.93538 0.0
C3746 C 0.92174 0.19194 0.91921 0.0
C3747 C 0.90276 0.19276 0.91849 0.0
C3748 C 0.89265 0.19796 0.93363 0.0
C3749 C 0.93185 0.1857 0.90295 0.0
C3750 C 0.9291 0.19476 0.8862 0.0
C3751 C 0.94264 0.16992 0.90352 0.0
C3752 C 0.94614 0.16009 0.9209 0.0
C3753 C 0.93188 0.15198 0.93034 0.0
C3754 C 0.93505 0.14362 0.9473 0.0
C3755 C 0.95245 0.14326 0.9549 0.0
C3756 C 0.96673 0.15115 0.94549 0.0
C3757 C 0.96363 0.15949 0.9285 0.0
H3758 H 0.95486 0.13687 0.96807 0.0
H3759 H 0.92697 0.22468 0.80672 0.0
H3760 H 0.33856 0.02793 0.31808 0.0
H3761 H 0.36182 0.04354 0.30081 0.0
H3762 H 0.32729 0.09061 0.29806 0.0
H3763 H 0.30386 0.07526 0.3151 0.0
H3764 H 0.34663 0.08378 0.26569 0.0
H3765 H 0.35706 0.08183 0.33226 0.0
H3766 H 0.36548 0.06852 0.36209 0.0
H3767 H 0.41566 0.04837 0.3398 0.0
H3768 H 0.40757 0.06149 0.30975 0.0
H3769 H 0.42004 0.14076 0.24067 0.0
H3770 H 0.39214 0.13005 0.25539 0.0
H3771 H 0.4227 0.08428 0.27657 0.0
H3772 H 0.45021 0.09568 0.26335 0.0
H3773 H 0.40256 0.09442 0.30076 0.0
H3774 H 0.39378 0.08594 0.23548 0.0
H3775 H 0.3883 0.09391 0.20304 0.0
H3776 H 0.34086 0.12478 0.21796 0.0
H3777 H 0.34613 0.11709 0.25047 0.0
C3778 C 0.33576 0.04149 0.31349 0.0
C3779 C 0.31953 0.0505 0.31821 0.0
C3780 C 0.34908 0.05034 0.30369 0.0
C3781 C 0.34633 0.06822 0.29856 0.0
C3782 C 0.32965 0.07682 0.30208 0.0
C3783 C 0.31634 0.06804 0.31188 0.0
C3784 C 0.36118 0.0785 0.29078 0.0
C3785 C 0.35897 0.0861 0.27325 0.0
C3786 C 0.37732 0.08113 0.30065 0.0
C3787 C 0.38153 0.07247 0.31862 0.0
C3788 C 0.36972 0.07428 0.33358 0.0
C3789 C 0.37448 0.0668 0.35059 0.0
C3790 C 0.39101 0.05748 0.35286 0.0
C3791 C 0.40283 0.05556 0.33807 0.0
C3792 C 0.39817 0.06304 0.32105 0.0
C3793 C 0.42067 0.12888 0.24927 0.0
C3794 C 0.43707 0.11921 0.2516 0.0
C3795 C 0.40478 0.12256 0.25723 0.0
C3796 C 0.40529 0.10627 0.26693 0.0
C3797 C 0.42194 0.09699 0.26939 0.0
C3798 C 0.4377 0.10355 0.26203 0.0
C3799 C 0.38893 0.09846 0.27494 0.0
C3800 C 0.39046 0.09185 0.29291 0.0
C3801 C 0.37291 0.09559 0.26488 0.0
C3802 C 0.37054 0.10119 0.24545 0.0
C3803 C 0.38235 0.09466 0.23187 0.0
C3804 C 0.37923 0.09906 0.21346 0.0
C3805 C 0.36429 0.10991 0.20845 0.0
C3806 C 0.35247 0.11643 0.22185 0.0
C3807 C 0.35552 0.11207 0.24027 0.0
H3808 H 0.36183 0.11321 0.19419 0.0
H3809 H 0.39469 0.05183 0.36609 0.0
H3810 H 0.17855 0.04928 0.58634 0.0
H3811 H 0.16449 0.07584 0.57215 0.0
H3812 H 0.21764 0.0951 0.55847 0.0
H3813 H 0.2316 0.06923 0.57432 0.0
H3814 H 0.19836 0.12117 0.56795 0.0
H3815 H 0.18913 0.07442 0.52688 0.0
H3816 H 0.18012 0.04511 0.51623 0.0
H3817 H 0.12457 0.05761 0.52981 0.0
H3818 H 0.13329 0.08687 0.5409 0.0
H3819 H 0.16411 0.17258 0.49078 0.0
H3820 H 0.17821 0.14842 0.5091 0.0
H3821 H 0.13185 0.14898 0.54528 0.0
H3822 H 0.11798 0.17383 0.52726 0.0
H3823 H 0.14755 0.11415 0.52446 0.0
H3824 H 0.16124 0.16355 0.56493 0.0
H3825 H 0.1734 0.19331 0.56953 0.0
H3826 H 0.22511 0.17564 0.54847 0.0
H3827 H 0.21323 0.14581 0.54367 0.0
C3828 C 0.1871 0.05914 0.58003 0.0
C3829 C 0.20599 0.05717 0.58056 0.0
C3830 C 0.17914 0.07424 0.57199 0.0
C3831 C 0.19003 0.08712 0.56375 0.0
C3832 C 0.20901 0.08519 0.56456 0.0
C3833 C 0.21697 0.07036 0.57325 0.0
C3834 C 0.1815 0.10252 0.55424 0.0
C3835 C 0.18735 0.11958 0.55835 0.0
C3836 C 0.16723 0.10043 0.54159 0.0
C3837 C 0.16191 0.08279 0.53493 0.0
C3838 C 0.17501 0.07087 0.52776 0.0
C3839 C 0.16995 0.05426 0.52162 0.0
C3840 C 0.15179 0.04948 0.52239 0.0
C3841 C 0.13864 0.06132 0.52926 0.0
C3842 C 0.14364 0.07791 0.53548 0.0
C3843 C 0.15698 0.1674 0.50261 0.0
C3844 C 0.14007 0.17456 0.50777 0.0
C3845 C 0.16503 0.15386 0.51305 0.0
C3846 C 0.15601 0.14732 0.52845 0.0
C3847 C 0.1389 0.15422 0.53344 0.0
C3848 C 0.13102 0.16814 0.52321 0.0
C3849 C 0.16416 0.13243 0.53859 0.0
C3850 C 0.15839 0.11553 0.53432 0.0
C3851 C 0.17899 0.13466 0.55035 0.0
C3852 C 0.1863 0.15245 0.55386 0.0
C3853 C 0.17518 0.16603 0.56122 0.0
C3854 C 0.18204 0.1829 0.56391 0.0
C3855 C 0.20003 0.18636 0.55933 0.0
C3856 C 0.21121 0.17293 0.55211 0.0
C3857 C 0.20443 0.15602 0.54945 0.0
H3858 H 0.2053 0.19943 0.56137 0.0
H3859 H 0.1479 0.03662 0.51762 0.0
H3860 H 0.22223 0.96324 0.80564 0.0
H3861 H 0.19794 0.94997 0.78781 0.0
H3862 H 0.16346 0.95015 0.83553 0.0
H3863 H 0.18728 0.9636 0.85315 0.0
H3864 H 0.16667 0.91643 0.81514 0.0
H3865 H 0.15736 0.98174 0.80645 0.0
H3866 H 0.17101 0.00973 0.79628 0.0
H3867 H 0.17918 0.98878 0.74261 0.0
H3868 H 0.16604 0.96043 0.75267 0.0
H3869 H 0.07267 0.91181 0.79497 0.0
H3870 H 0.10153 0.9238 0.80567 0.0
H3871 H 0.12442 0.918 0.75182 0.0
H3872 H 0.09624 0.90596 0.74113 0.0
H3873 H 0.13071 0.95236 0.76972 0.0
H3874 H 0.14776 0.88909 0.77591 0.0
H3875 H 0.14031 0.85792 0.78288 0.0
H3876 H 0.12074 0.87289 0.83589 0.0
H3877 H 0.12798 0.90416 0.8291 0.0
C3878 C 0.2094 0.96049 0.81219 0.0
C3879 C 0.20651 0.96439 0.83067 0.0
C3880 C 0.19567 0.95288 0.80209 0.0
C3881 C 0.17912 0.94899 0.81053 0.0
C3882 C 0.17626 0.95296 0.82893 0.0
C3883 C 0.18979 0.96078 0.83889 0.0
C3884 C 0.16422 0.94138 0.8003 0.0
C3885 C 0.15872 0.92433 0.80535 0.0
C3886 C 0.15454 0.95138 0.78682 0.0
C3887 C 0.16079 0.96895 0.78033 0.0
C3888 C 0.16203 0.98311 0.79247 0.0
C3889 C 0.16977 -0.00099 0.78676 0.0
C3890 C 0.17601 0.00102 0.76881 0.0
C3891 C 0.17436 0.98719 0.75651 0.0
C3892 C 0.16678 0.9712 0.76222 0.0
C3893 C 0.08388 0.91314 0.78551 0.0
C3894 C 0.0823 0.90784 0.76736 0.0
C3895 C 0.10024 0.91999 0.79154 0.0
C3896 C 0.1149 0.92181 0.77936 0.0
C3897 C 0.11317 0.91681 0.76124 0.0
C3898 C 0.09707 0.90979 0.7553 0.0
C3899 C 0.13245 0.92801 0.78575 0.0
C3900 C 0.13861 0.94456 0.77964 0.0
C3901 C 0.14308 0.91742 0.79789 0.0
C3902 C 0.13857 0.89881 0.80211 0.0
C3903 C 0.14189 0.88567 0.78905 0.0
C3904 C 0.13768 0.86802 0.79295 0.0
C3905 C 0.1301 0.86341 0.80984 0.0
C3906 C 0.12668 0.87646 0.82285 0.0
C3907 C 0.13088 0.89413 0.81901 0.0
H3908 H 0.12685 0.84975 0.81284 0.0
H3909 H 0.18209 0.01331 0.76443 0.0
H3910 H 0.38242 0.83049 0.01595 0.0
H3911 H 0.3664 0.8586 0.02194 0.0
H3912 H 0.3154 0.83196 0.02302 0.0
H3913 H 0.33136 0.80367 0.0167 0.0
H3914 H 0.31565 0.86889 0.00469 0.0
H3915 H 0.33049 0.83626 0.06077 0.0
H3916 H 0.35279 0.81772 0.07815 0.0
H3917 H 0.38947 0.86098 0.0784 0.0
H3918 H 0.36753 0.87962 0.06057 0.0
H3919 H 0.26539 0.91917 0.0719 0.0
H3920 H 0.28012 0.8972 0.05246 0.0
H3921 H 0.32885 0.92735 0.05142 0.0
H3922 H 0.31399 0.95008 0.07029 0.0
H3923 H 0.33038 0.8902 0.06661 0.0
H3924 H 0.31471 0.92371 0.01215 0.0
H3925 H 0.29553 0.94047 0.98982 0.0
H3926 H 0.26074 0.89602 0.98552 0.0
H3927 H 0.27981 0.87893 0.00773 0.0
C3928 C 0.36782 0.83056 0.01772 0.0
C3929 C 0.35817 0.81484 0.0164 0.0
C3930 C 0.35867 0.84667 0.02071 0.0
C3931 C 0.33975 0.84731 0.0227 0.0
C3932 C 0.33 0.8317 0.02126 0.0
C3933 C 0.33917 0.81552 0.01819 0.0
C3934 C 0.33079 0.86366 0.02946 0.0
C3935 C 0.31861 0.87352 0.01828 0.0
C3936 C 0.33507 0.86975 0.047 0.0
C3937 C 0.34742 0.8593 0.05933 0.0
C3938 C 0.34329 0.84183 0.0646 0.0
C3939 C 0.35589 0.83128 0.07444 0.0
C3940 C 0.37255 0.83816 0.07936 0.0
C3941 C 0.37656 0.85567 0.07458 0.0
C3942 C 0.36404 0.86624 0.06461 0.0
C3943 C 0.27919 0.92131 0.06744 0.0
C3944 C 0.28853 0.93642 0.07269 0.0
C3945 C 0.28753 0.90873 0.05625 0.0
C3946 C 0.30544 0.91074 0.05044 0.0
C3947 C 0.31484 0.9258 0.05552 0.0
C3948 C 0.30638 0.93867 0.06641 0.0
C3949 C 0.3151 0.89563 0.04193 0.0
C3950 C 0.32737 0.88576 0.05295 0.0
C3951 C 0.3107 0.88959 0.02432 0.0
C3952 C 0.29862 0.90009 0.01172 0.0
C3953 C 0.30289 0.91755 0.00655 0.0
C3954 C 0.29215 0.92705 0.99378 0.0
C3955 C 0.27699 0.91928 0.98618 0.0
C3956 C 0.27255 0.90199 0.99134 0.0
C3957 C 0.28335 0.89237 0.00398 0.0
H3958 H 0.26861 0.92671 0.97641 0.0
H3959 H 0.38234 0.82995 0.0869 0.0
H3960 H 0.40463 0.8698 0.21902 0.0
H3961 H 0.37912 0.88235 0.201 0.0
H3962 H 0.41065 0.92796 0.18682 0.0
H3963 H 0.4363 0.91531 0.20448 0.0
H3964 H 0.37567 0.93655 0.20058 0.0
H3965 H 0.40331 0.9011 0.15434 0.0
H3966 H 0.41688 0.8743 0.14037 0.0
H3967 H 0.3671 0.84699 0.14847 0.0
H3968 H 0.35328 0.87358 0.16269 0.0
H3969 H 0.30721 0.96998 0.1372 0.0
H3970 H 0.3364 0.96022 0.15079 0.0
H3971 H 0.31319 0.91036 0.16686 0.0
H3972 H 0.28426 0.92004 0.15327 0.0
H3973 H 0.34626 0.90594 0.14953 0.0
H3974 H 0.31987 0.94045 0.19852 0.0
H3975 H 0.30607 0.96737 0.21205 0.0
H3976 H 0.35343 0.99662 0.19808 0.0
H3977 H 0.36752 0.96984 0.18442 0.0
C3978 C 0.40615 0.88241 0.21189 0.0
C3979 C 0.42238 0.8916 0.21309 0.0
C3980 C 0.39163 0.88953 0.20159 0.0
C3981 C 0.39305 0.90606 0.19256 0.0
C3982 C 0.40931 0.91519 0.19366 0.0
C3983 C 0.42393 0.90792 0.20369 0.0
C3984 C 0.37722 0.91412 0.18272 0.0
C3985 C 0.36941 0.93004 0.1892 0.0
C3986 C 0.36897 0.90546 0.16804 0.0
C3987 C 0.37731 0.88931 0.15978 0.0
C3988 C 0.39531 0.88933 0.15334 0.0
C3989 C 0.40303 0.87419 0.14531 0.0
C3990 C 0.39287 0.85894 0.14358 0.0
C3991 C 0.37496 0.85881 0.14984 0.0
C3992 C 0.36717 0.87392 0.15787 0.0
C3993 C 0.30845 0.95698 0.14361 0.0
C3994 C 0.29364 0.94571 0.14401 0.0
C3995 C 0.32503 0.95143 0.15144 0.0
C3996 C 0.32695 0.93452 0.15976 0.0
C3997 C 0.31204 0.9234 0.16039 0.0
C3998 C 0.29551 0.92898 0.15269 0.0
C3999 C 0.3445 0.92813 0.16765 0.0
C4000 C 0.35264 0.91254 0.16079 0.0
C4001 C 0.35304 0.93709 0.18196 0.0
C4002 C 0.34467 0.95319 0.19027 0.0
C4003 C 0.32729 0.95265 0.19822 0.0
C4004 C 0.31944 0.96787 0.20594 0.0
C4005 C 0.32883 0.98372 0.20585 0.0
C4006 C 0.34616 0.98434 0.19812 0.0
C4007 C 0.35411 0.96913 0.19043 0.0
H4008 H 0.3227 0.9955 0.2118 0.0
H4009 H 0.39887 0.84724 0.13735 0.0
H4010 H 0.35116 0.17677 0.45571 0.0
H4011 H 0.33931 0.14797 0.44818 0.0
H4012 H 0.39353 0.12486 0.44957 0.0
H4013 H 0.40556 0.15378 0.45738 0.0
H4014 H 0.37599 0.12585 0.41588 0.0
H4015 H 0.3591 0.09095 0.47413 0.0
H4016 H 0.34496 0.08665 0.50447 0.0
H4017 H 0.3001 0.121 0.48838 0.0
H4018 H 0.31367 0.12493 0.45772 0.0
H4019 H 0.34541 0.04604 0.37947 0.0
H4020 H 0.35918 0.06992 0.39586 0.0
H4021 H 0.30601 0.09219 0.40809 0.0
H4022 H 0.29201 0.06758 0.39234 0.0
H4023 H 0.32548 0.08894 0.43754 0.0
H4024 H 0.33671 0.11398 0.37785 0.0
H4025 H 0.34791 0.1182 0.34632 0.0
H4026 H 0.4023 0.10539 0.36402 0.0
H4027 H 0.39142 0.10097 0.39562 0.0
C4028 C 0.36058 0.16555 0.45442 0.0
C4029 C 0.37933 0.16757 0.45645 0.0
C4030 C 0.35371 0.14899 0.45072 0.0
C4031 C 0.36549 0.13423 0.44877 0.0
C4032 C 0.3842 0.13606 0.45144 0.0
C4033 C 0.39108 0.15263 0.45536 0.0
C4034 C 0.35894 0.11902 0.43871 0.0
C4035 C 0.36526 0.11737 0.42074 0.0
C4036 C 0.34441 0.10868 0.44486 0.0
C4037 C 0.33768 0.1087 0.46389 0.0
C4038 C 0.34641 0.09787 0.47721 0.0
C4039 C 0.33834 0.09525 0.49434 0.0
C4040 C 0.32173 0.10368 0.49841 0.0
C4041 C 0.31306 0.11462 0.48528 0.0
C4042 C 0.32088 0.11699 0.46801 0.0
C4043 C 0.33661 0.05611 0.3855 0.0
C4044 C 0.31765 0.05501 0.38474 0.0
C4045 C 0.34454 0.06988 0.39465 0.0
C4046 C 0.33365 0.08298 0.40286 0.0
C4047 C 0.31464 0.08222 0.40167 0.0
C4048 C 0.30666 0.06823 0.39272 0.0
C4049 C 0.34216 0.09614 0.41447 0.0
C4050 C 0.3363 0.09726 0.43268 0.0
C4051 C 0.35694 0.10628 0.40841 0.0
C4052 C 0.36319 0.10694 0.38909 0.0
C4053 C 0.351 0.11174 0.37497 0.0
C4054 C 0.35733 0.11435 0.35711 0.0
C4055 C 0.37582 0.11221 0.3532 0.0
C4056 C 0.388 0.10717 0.36708 0.0
C4057 C 0.38175 0.10458 0.38496 0.0
H4058 H 0.38069 0.11429 0.33938 0.0
H4059 H 0.31557 0.1017 0.5117 0.0
H4060 H 0.17087 0.0518 0.62775 0.0
H4061 H 0.14482 0.06756 0.64161 0.0
H4062 H 0.17826 0.08112 0.68733 0.0
H4063 H 0.20456 0.0659 0.67311 0.0
H4064 H 0.1416 0.06373 0.69433 0.0
H4065 H 0.17082 0.11253 0.66065 0.0
H4066 H 0.18174 0.12856 0.63325 0.0
H4067 H 0.1291 0.12564 0.60863 0.0
H4068 H 0.11791 0.10946 0.63584 0.0
H4069 H 0.09411 0.12687 0.74601 0.0
H4070 H 0.11673 0.11007 0.72831 0.0
H4071 H 0.08391 0.11776 0.67983 0.0
H4072 H 0.06159 0.13495 0.69732 0.0
H4073 H 0.11715 0.12199 0.67141 0.0
H4074 H 0.08567 0.07706 0.7019 0.0
H4075 H 0.07113 0.05976 0.72653 0.0
H4076 H 0.12249 0.05212 0.75345 0.0
H4077 H 0.13739 0.06953 0.7291 0.0
C4078 C 0.17256 0.05811 0.6408 0.0
C4079 C 0.18952 0.05763 0.64955 0.0
C4080 C 0.15778 0.06716 0.6486 0.0
C4081 C 0.15974 0.07548 0.6654 0.0
C4082 C 0.17662 0.07478 0.67429 0.0
C4083 C 0.19154 0.06613 0.66625 0.0
C4084 C 0.14407 0.08455 0.67402 0.0
C4085 C 0.13633 0.07657 0.68953 0.0
C4086 C 0.13656 0.1007 0.66691 0.0
C4087 C 0.14363 0.10952 0.65016 0.0
C4088 C 0.16167 0.11503 0.64927 0.0
C4089 C 0.16787 0.12424 0.63381 0.0
C4090 C 0.15615 0.12805 0.61917 0.0
C4091 C 0.13819 0.12264 0.61995 0.0
C4092 C 0.13192 0.11345 0.63538 0.0
C4093 C 0.09196 0.12529 0.7315 0.0
C4094 C 0.07619 0.13221 0.72299 0.0
C4095 C 0.1047 0.11544 0.72148 0.0
C4096 C 0.10175 0.11228 0.70287 0.0
C4097 C 0.08638 0.11991 0.6942 0.0
C4098 C 0.07373 0.12985 0.70417 0.0
C4099 C 0.11509 0.1016 0.69232 0.0
C4100 C 0.12226 0.10911 0.67628 0.0
C4101 C 0.12157 0.08468 0.69855 0.0
C4102 C 0.11263 0.07479 0.71372 0.0
C4103 C 0.09385 0.0719 0.71319 0.0
C4104 C 0.08556 0.062 0.72707 0.0
C4105 C 0.09589 0.0549 0.74157 0.0
C4106 C 0.11453 0.05768 0.74222 0.0
C4107 C 0.12291 0.06753 0.72837 0.0
H4108 H 0.08947 0.04719 0.75228 0.0
H4109 H 0.16096 0.13524 0.60726 0.0
H4110 H 0.17662 0.81381 0.96866 0.0
H4111 H 0.18891 0.83988 0.95315 0.0
H4112 H 0.13478 0.86259 0.94725 0.0
H4113 H 0.12237 0.83634 0.96257 0.0
H4114 H 0.15618 0.86733 0.91614 0.0
H4115 H 0.16218 0.87428 0.98234 0.0
H4116 H 0.17315 0.86505 0.01297 0.0
H4117 H 0.22816 0.86477 0.99364 0.0
H4118 H 0.21752 0.87385 0.96281 0.0
H4119 H 0.17655 0.95644 0.8964 0.0
H4120 H 0.16443 0.92979 0.91109 0.0
H4121 H 0.2188 0.91185 0.92544 0.0
H4122 H 0.23073 0.93884 0.91188 0.0
H4123 H 0.19813 0.90373 0.95168 0.0
H4124 H 0.19591 0.89571 0.88764 0.0
H4125 H 0.18855 0.90371 0.85562 0.0
H4126 H 0.13164 0.90284 0.86807 0.0
H4127 H 0.13865 0.89514 0.90029 0.0
C4128 C 0.16733 0.8243 0.96391 0.0
C4129 C 0.14856 0.82319 0.96693 0.0
C4130 C 0.17437 0.83918 0.9551 0.0
C4131 C 0.16277 0.85328 0.94935 0.0
C4132 C 0.14395 0.85186 0.95167 0.0
C4133 C 0.13688 0.83692 0.96044 0.0
C4134 C 0.17029 0.86985 0.94167 0.0
C4135 C 0.16517 0.87544 0.92396 0.0
C4136 C 0.18267 0.87997 0.95161 0.0
C4137 C 0.18903 0.87459 0.97021 0.0
C4138 C 0.17661 0.87213 0.98458 0.0
C4139 C 0.18277 0.86693 0.00199 0.0
C4140 C 0.20133 0.86423 0.00526 0.0
C4141 C 0.21378 0.86681 0.9911 0.0
C4142 C 0.2077 0.87201 0.97366 0.0
C4143 C 0.18585 0.94697 0.90301 0.0
C4144 C 0.20465 0.94953 0.90263 0.0
C4145 C 0.17895 0.93163 0.91119 0.0
C4146 C 0.19075 0.91853 0.91891 0.0
C4147 C 0.20941 0.92161 0.9194 0.0
C4148 C 0.21625 0.93698 0.91147 0.0
C4149 C 0.1838 0.90148 0.9262 0.0
C4150 C 0.18911 0.89571 0.9438 0.0
C4151 C 0.17214 0.89088 0.9159 0.0
C4152 C 0.16781 0.89509 0.89645 0.0
C4153 C 0.18182 0.89734 0.88359 0.0
C4154 C 0.17772 0.90181 0.86541 0.0
C4155 C 0.15965 0.90388 0.85987 0.0
C4156 C 0.14563 0.9013 0.87243 0.0
C4157 C 0.14966 0.89688 0.89066 0.0
H4158 H 0.15654 0.90748 0.84584 0.0
H4159 H 0.20604 0.86021 0.01876 0.0
H4160 H 0.28004 0.41992 0.13861 0.0
H4161 H 0.29848 0.39817 0.12172 0.0
H4162 H 0.24972 0.3743 0.10243 0.0
H4163 H 0.23124 0.39585 0.11941 0.0
H4164 H 0.27458 0.35083 0.11708 0.0
H4165 H 0.27368 0.39922 0.07317 0.0
H4166 H 0.27813 0.42995 0.06221 0.0
H4167 H 0.33481 0.42501 0.07537 0.0
H4168 H 0.33068 0.3943 0.08657 0.0
H4169 H 0.31458 0.29488 0.04906 0.0
H4170 H 0.29668 0.32023 0.06087 0.0
H4171 H 0.34355 0.3374 0.09023 0.0
H4172 H 0.36119 0.3116 0.07921 0.0
H4173 H 0.31986 0.36527 0.06925 0.0
H4174 H 0.32098 0.3178 0.11367 0.0
H4175 H 0.3165 0.28915 0.12943 0.0
H4176 H 0.25914 0.29414 0.11975 0.0
H4177 H 0.2634 0.3223 0.10289 0.0
C4178 C 0.27332 0.40984 0.13097 0.0
C4179 C 0.25431 0.40938 0.13035 0.0
C4180 C 0.28382 0.39768 0.12111 0.0
C4181 C 0.27538 0.38503 0.11051 0.0
C4182 C 0.2564 0.38418 0.11039 0.0
C4183 C 0.2459 0.39627 0.12029 0.0
C4184 C 0.28633 0.37156 0.10085 0.0
C4185 C 0.28418 0.35388 0.10628 0.0
C4186 C 0.29935 0.37591 0.0874 0.0
C4187 C 0.30183 0.39448 0.08086 0.0
C4188 C 0.28706 0.40473 0.07389 0.0
C4189 C 0.28954 0.42214 0.06758 0.0
C4190 C 0.30674 0.42944 0.06812 0.0
C4191 C 0.3215 0.41934 0.07496 0.0
C4192 C 0.3191 0.40192 0.08126 0.0
C4193 C 0.32105 0.30424 0.05783 0.0
C4194 C 0.33911 0.30142 0.06343 0.0
C4195 C 0.31086 0.3186 0.06457 0.0
C4196 C 0.31884 0.33045 0.0765 0.0
C4197 C 0.33724 0.32828 0.08108 0.0
C4198 C 0.34723 0.3136 0.07486 0.0
C4199 C 0.30771 0.34441 0.08521 0.0
C4200 C 0.30998 0.36217 0.07975 0.0
C4201 C 0.29477 0.3402 0.09879 0.0
C4202 C 0.29261 0.32201 0.10652 0.0
C4203 C 0.30751 0.31249 0.1142 0.0
C4204 C 0.30498 0.29636 0.12349 0.0
C4205 C 0.28756 0.2898 0.12556 0.0
C4206 C 0.27265 0.29921 0.1181 0.0
C4207 C 0.27515 0.31513 0.10846 0.0
H4208 H 0.2856 0.27744 0.13297 0.0
H4209 H 0.30863 0.44291 0.06323 0.0
H4210 H 0.79096 0.06625 0.92289 0.0
H4211 H 0.79925 0.09455 0.93621 0.0
H4212 H 0.78837 0.12131 0.88456 0.0
H4213 H 0.7804 0.09319 0.87117 0.0
H4214 H 0.81968 0.13037 0.89827 0.0
H4215 H 0.75921 0.12457 0.92037 0.0
H4216 H 0.73278 0.11319 0.93667 0.0
H4217 H 0.76094 0.11605 0.98778 0.0
H4218 H 0.78802 0.12671 0.97165 0.0
H4219 H 0.81975 0.21961 0.9324 0.0
H4220 H 0.80813 0.19233 0.91947 0.0
H4221 H 0.83077 0.16183 0.96484 0.0
H4222 H 0.84306 0.18885 0.97739 0.0
H4223 H 0.79207 0.15587 0.95413 0.0
H4224 H 0.85403 0.15304 0.93137 0.0
H4225 H 0.88189 0.16109 0.91498 0.0
H4226 H 0.85071 0.17437 0.86684 0.0
H4227 H 0.82269 0.16573 0.88285 0.0
C4228 C 0.79072 0.07814 0.91432 0.0
C4229 C 0.78522 0.07756 0.89598 0.0
C4230 C 0.79509 0.09431 0.92203 0.0
C4231 C 0.79401 0.11005 0.91146 0.0
C4232 C 0.78912 0.10933 0.89298 0.0
C4233 C 0.78479 0.09323 0.8853 0.0
C4234 C 0.79931 0.12712 0.91914 0.0
C4235 C 0.81335 0.13606 0.91031 0.0
C4236 C 0.79144 0.13427 0.9352 0.0
C4237 C 0.77578 0.12625 0.94471 0.0
C4238 C 0.75997 0.1224 0.93503 0.0
C4239 C 0.74478 0.11619 0.9443 0.0
C4240 C 0.74506 0.11404 0.96331 0.0
C4241 C 0.76071 0.11775 0.97306 0.0
C4242 C 0.77603 0.12378 0.96384 0.0
C4243 C 0.82201 0.2071 0.93971 0.0
C4244 C 0.83216 0.20624 0.95594 0.0
C4245 C 0.81554 0.19159 0.93225 0.0
C4246 C 0.81883 0.17519 0.94117 0.0
C4247 C 0.82824 0.17443 0.95778 0.0
C4248 C 0.83508 0.18984 0.965 0.0
C4249 C 0.81235 0.15877 0.93327 0.0
C4250 C 0.79814 0.15007 0.94203 0.0
C4251 C 0.82008 0.15168 0.91727 0.0
C4252 C 0.83628 0.15913 0.90841 0.0
C4253 C 0.85308 0.15804 0.91742 0.0
C4254 C 0.86892 0.16253 0.90813 0.0
C4255 C 0.86807 0.16846 0.88992 0.0
C4256 C 0.85135 0.16989 0.88097 0.0
C4257 C 0.8355 0.16511 0.89011 0.0
H4258 H 0.88037 0.17181 0.8827 0.0
H4259 H 0.73316 0.10955 0.97053 0.0
H4260 H 0.02975 0.57554 0.18336 0.0
H4261 H 0.05352 0.55315 0.17734 0.0
H4262 H 0.08037 0.56622 0.22749 0.0
H4263 H 0.05596 0.58798 0.23412 0.0
H4264 H 0.09834 0.57222 0.19004 0.0
H4265 H 0.06998 0.52869 0.22891 0.0
H4266 H 0.04198 0.51433 0.23911 0.0
H4267 H 0.03523 0.49277 0.18575 0.0
H4268 H 0.06307 0.50727 0.1751 0.0
H4269 H 0.1749 0.52448 0.17554 0.0
H4270 H 0.14685 0.52688 0.19312 0.0
H4271 H 0.11567 0.51818 0.14448 0.0
H4272 H 0.14374 0.51543 0.12671 0.0
H4273 H 0.09948 0.5065 0.18437 0.0
H4274 H 0.11866 0.55556 0.14381 0.0
H4275 H 0.14448 0.57061 0.12944 0.0
H4276 H 0.16505 0.58295 0.18245 0.0
H4277 H 0.13951 0.56757 0.1971 0.0
C4278 C 0.04059 0.57343 0.19322 0.0
C4279 C 0.04152 0.58374 0.20892 0.0
C4280 C 0.05394 0.56055 0.18989 0.0
C4281 C 0.06847 0.55818 0.20204 0.0
C4282 C 0.06904 0.56791 0.21813 0.0
C4283 C 0.05535 0.58044 0.22174 0.0
C4284 C 0.08444 0.54801 0.19612 0.0
C4285 C 0.0988 0.55784 0.18925 0.0
C4286 C 0.08434 0.52937 0.19441 0.0
C4287 C 0.06867 0.51908 0.20119 0.0
C4288 C 0.06259 0.52083 0.21935 0.0
C4289 C 0.04671 0.51271 0.22521 0.0
C4290 C 0.03683 0.50266 0.21308 0.0
C4291 C 0.04293 0.50054 0.19513 0.0
C4292 C 0.0588 0.50867 0.18919 0.0
C4293 C 0.16209 0.52314 0.16854 0.0
C4294 C 0.16145 0.52051 0.14962 0.0
C4295 C 0.14616 0.52381 0.17873 0.0
C4296 C 0.12932 0.5224 0.17009 0.0
C4297 C 0.12861 0.51889 0.1514 0.0
C4298 C 0.14458 0.51806 0.14119 0.0
C4299 C 0.11348 0.53084 0.17878 0.0
C4300 C 0.09912 0.52082 0.18571 0.0
C4301 C 0.11307 0.54949 0.18018 0.0
C4302 C 0.12723 0.56046 0.17152 0.0
C4303 C 0.12864 0.5616 0.15237 0.0
C4304 C 0.14326 0.57008 0.14419 0.0
C4305 C 0.15641 0.57773 0.15503 0.0
C4306 C 0.15485 0.57703 0.17408 0.0
C4307 C 0.14029 0.56845 0.18233 0.0
H4308 H 0.16779 0.5842 0.14868 0.0
H4309 H 0.02445 0.49655 0.21759 0.0
H4310 H 0.65163 0.81677 0.49237 0.0
H4311 H 0.66642 0.84191 0.47799 0.0
H4312 H 0.63626 0.83404 0.42837 0.0
H4313 H 0.62153 0.80867 0.44261 0.0
H4314 H 0.67237 0.82949 0.42465 0.0
H4315 H 0.6314 0.87037 0.45327 0.0
H4316 H 0.61461 0.88505 0.47812 0.0
H4317 H 0.66469 0.90181 0.50112 0.0
H4318 H 0.68182 0.88714 0.4764 0.0
H4319 H 0.70436 0.90351 0.37349 0.0
H4320 H 0.68483 0.88389 0.39134 0.0
H4321 H 0.72597 0.87837 0.43312 0.0
H4322 H 0.74584 0.89745 0.41506 0.0
H4323 H 0.68457 0.89135 0.442 0.0
H4324 H 0.72484 0.8447 0.41953 0.0
H4325 H 0.74289 0.82974 0.39559 0.0
H4326 H 0.69463 0.82334 0.36387 0.0
H4327 H 0.67635 0.83851 0.38755 0.0
C4328 C 0.64805 0.82052 0.47844 0.0
C4329 C 0.63603 0.81051 0.46826 0.0
C4330 C 0.6562 0.83507 0.47042 0.0
C4331 C 0.65234 0.83967 0.45222 0.0
C4332 C 0.63935 0.83048 0.44246 0.0
C4333 C 0.6313 0.81584 0.45043 0.0
C4334 C 0.66464 0.85116 0.44229 0.0
C4335 C 0.67472 0.84316 0.42825 0.0
C4336 C 0.66827 0.8686 0.44783 0.0
C4337 C 0.65795 0.87755 0.46283 0.0
C4338 C 0.63888 0.87715 0.46358 0.0
C4339 C 0.62928 0.88549 0.47768 0.0
C4340 C 0.63858 0.89436 0.49121 0.0
C4341 C 0.65749 0.89495 0.49061 0.0
C4342 C 0.66715 0.88665 0.47649 0.0
C4343 C 0.70932 0.89772 0.38626 0.0
C4344 C 0.7264 0.90181 0.39303 0.0
C4345 C 0.69819 0.88678 0.39645 0.0
C4346 C 0.70402 0.88023 0.41354 0.0
C4347 C 0.72137 0.88366 0.42 0.0
C4348 C 0.73269 0.89426 0.4096 0.0
C4349 C 0.69178 0.86961 0.42444 0.0
C4350 C 0.68192 0.87772 0.43859 0.0
C4351 C 0.68843 0.85213 0.4194 0.0
C4352 C 0.6993 0.84293 0.40517 0.0
C4353 C 0.71813 0.84027 0.40735 0.0
C4354 C 0.72839 0.83171 0.39387 0.0
C4355 C 0.71992 0.82565 0.37819 0.0
C4356 C 0.70117 0.82808 0.37601 0.0
C4357 C 0.69086 0.83664 0.38946 0.0
H4358 H 0.72788 0.81903 0.36776 0.0
H4359 H 0.63113 0.90076 0.50215 0.0
H4360 H 0.95707 0.91485 0.20199 0.0
H4361 H 0.92842 0.928 0.18988 0.0
H4362 H 0.90517 0.87637 0.18904 0.0
H4363 H 0.93345 0.86316 0.20157 0.0
H4364 H 0.90456 0.89996 0.15387 0.0
H4365 H 0.88498 0.89865 0.2169 0.0
H4366 H 0.88739 0.90325 0.24989 0.0
H4367 H 0.89647 0.95871 0.24032 0.0
H4368 H 0.8939 0.95442 0.20706 0.0
H4369 H 0.82067 0.94385 0.12486 0.0
H4370 H 0.84415 0.92354 0.13781 0.0
H4371 H 0.86861 0.96769 0.16431 0.0
H4372 H 0.84454 0.98757 0.15242 0.0
H4373 H 0.86539 0.9428 0.18766 0.0
H4374 H 0.88693 0.94529 0.12535 0.0
H4375 H 0.8833 0.94245 0.09205 0.0
H4376 H 0.87242 0.88707 0.09924 0.0
H4377 H 0.87568 0.88966 0.13265 0.0
C4378 C 0.94566 0.90643 0.19967 0.0
C4379 C 0.94734 0.88807 0.2027 0.0
C4380 C 0.92948 0.91391 0.19273 0.0
C4381 C 0.91487 0.90318 0.18864 0.0
C4382 C 0.91635 0.88485 0.19208 0.0
C4383 C 0.93248 0.87736 0.19922 0.0
C4384 C 0.8985 0.91139 0.18003 0.0
C4385 C 0.8957 0.90908 0.16126 0.0
C4386 C 0.88736 0.92357 0.18963 0.0
C4387 C 0.88942 0.92617 0.20952 0.0
C4388 C 0.88767 0.91179 0.22181 0.0
C4389 C 0.889 0.91437 0.24059 0.0
C4390 C 0.89221 0.93125 0.24728 0.0
C4391 C 0.89401 0.94563 0.23514 0.0
C4392 C 0.89253 0.94315 0.21632 0.0
C4393 C 0.83137 0.94916 0.13309 0.0
C4394 C 0.83105 0.96717 0.1376 0.0
C4395 C 0.84473 0.93759 0.14052 0.0
C4396 C 0.85821 0.94408 0.15203 0.0
C4397 C 0.85829 0.96232 0.15563 0.0
C4398 C 0.84469 0.9737 0.14869 0.0
C4399 C 0.87174 0.93201 0.16122 0.0
C4400 C 0.87402 0.93356 0.18017 0.0
C4401 C 0.88261 0.91946 0.15163 0.0
C4402 C 0.88137 0.91771 0.13151 0.0
C4403 C 0.8837 0.93252 0.11984 0.0
C4404 C 0.88169 0.93096 0.10094 0.0
C4405 C 0.87757 0.91461 0.09354 0.0
C4406 C 0.87557 0.89974 0.10501 0.0
C4407 C 0.87751 0.90124 0.12392 0.0
H4408 H 0.87597 0.91344 0.07891 0.0
H4409 H 0.89323 0.93322 0.26185 0.0
H4410 H 0.19805 0.55478 0.60301 0.0
H4411 H 0.18699 0.58402 0.59159 0.0
H4412 H 0.21852 0.60958 0.63254 0.0
H4413 H 0.22907 0.5806 0.64439 0.0
H4414 H 0.18005 0.62324 0.62508 0.0
H4415 H 0.24137 0.62955 0.58751 0.0
H4416 H 0.26659 0.61376 0.57216 0.0
H4417 H 0.22925 0.57736 0.54949 0.0
H4418 H 0.20374 0.59326 0.56456 0.0
H4419 H 0.16943 0.70946 0.58391 0.0
H4420 H 0.18467 0.68413 0.59941 0.0
H4421 H 0.17491 0.65179 0.55253 0.0
H4422 H 0.16043 0.67715 0.53677 0.0
H4423 H 0.20622 0.64321 0.56597 0.0
H4424 H 0.14527 0.65367 0.59614 0.0
H4425 H 0.12347 0.67043 0.61527 0.0
H4426 H 0.1642 0.67603 0.6564 0.0
H4427 H 0.18619 0.65898 0.63767 0.0
C4428 C 0.20224 0.56663 0.60981 0.0
C4429 C 0.21451 0.56548 0.62443 0.0
C4430 C 0.19616 0.58327 0.60315 0.0
C4431 C 0.2025 0.59884 0.61089 0.0
C4432 C 0.21375 0.59767 0.62625 0.0
C4433 C 0.21967 0.58111 0.63302 0.0
C4434 C 0.19774 0.61637 0.60275 0.0
C4435 C 0.18564 0.62763 0.61208 0.0
C4436 C 0.2057 0.62231 0.58629 0.0
C4437 C 0.22076 0.61233 0.57745 0.0
C4438 C 0.23858 0.6181 0.57934 0.0
C4439 C 0.25292 0.60917 0.57062 0.0
C4440 C 0.24958 0.59445 0.55991 0.0
C4441 C 0.23185 0.58868 0.55789 0.0
C4442 C 0.21744 0.59763 0.56656 0.0
C4443 C 0.17088 0.69701 0.57681 0.0
C4444 C 0.16355 0.69522 0.55922 0.0
C4445 C 0.17938 0.68249 0.58577 0.0
C4446 C 0.18034 0.66586 0.57744 0.0
C4447 C 0.17415 0.66443 0.55937 0.0
C4448 C 0.16594 0.67899 0.5503 0.0
C4449 C 0.18719 0.64968 0.58739 0.0
C4450 C 0.20023 0.63879 0.57874 0.0
C4451 C 0.18034 0.64429 0.60471 0.0
C4452 C 0.16739 0.6553 0.61541 0.0
C4453 C 0.14961 0.65865 0.60917 0.0
C4454 C 0.1372 0.66815 0.61998 0.0
C4455 C 0.14245 0.67447 0.63695 0.0
C4456 C 0.16015 0.67121 0.64322 0.0
C4457 C 0.17257 0.66158 0.63256 0.0
H4458 H 0.13279 0.68179 0.64528 0.0
H4459 H 0.26068 0.58755 0.55311 0.0
H4460 H 0.05718 0.40359 0.3438 0.0
H4461 H 0.08749 0.41125 0.35303 0.0
H4462 H 0.08898 0.45142 0.31027 0.0
H4463 H 0.05863 0.44299 0.3001 0.0
H4464 H 0.12325 0.43208 0.31569 0.0
H4465 H 0.07833 0.46494 0.34968 0.0
H4466 H 0.0501 0.46856 0.3675 0.0
H4467 H 0.07156 0.4328 0.409 0.0
H4468 H 0.09984 0.42875 0.39124 0.0
H4469 H 0.16817 0.5006 0.36033 0.0
H4470 H 0.14866 0.48039 0.34456 0.0
H4471 H 0.1634 0.43845 0.38317 0.0
H4472 H 0.1839 0.45858 0.39867 0.0
H4473 H 0.1245 0.4533 0.37953 0.0
H4474 H 0.17275 0.42587 0.34633 0.0
H4475 H 0.20109 0.42563 0.32836 0.0
H4476 H 0.17442 0.45602 0.28561 0.0
H4477 H 0.14587 0.45633 0.30315 0.0
C4478 C 0.06379 0.41422 0.33645 0.0
C4479 C 0.05544 0.42296 0.32145 0.0
C4480 C 0.08124 0.41834 0.34154 0.0
C4481 C 0.09041 0.4318 0.33226 0.0
C4482 C 0.08211 0.44081 0.3174 0.0
C4483 C 0.06468 0.43634 0.31194 0.0
C4484 C 0.10752 0.43782 0.33992 0.0
C4485 C 0.12361 0.43685 0.32958 0.0
C4486 C 0.10789 0.44368 0.35813 0.0
C4487 C 0.0911 0.44641 0.36907 0.0
C4488 C 0.07698 0.45777 0.36256 0.0
C4489 C 0.06098 0.4599 0.37264 0.0
C4490 C 0.05901 0.45087 0.38935 0.0
C4491 C 0.07309 0.43976 0.39604 0.0
C4492 C 0.08911 0.43755 0.38598 0.0
C4493 C 0.16723 0.48709 0.36552 0.0
C4494 C 0.17703 0.48115 0.38097 0.0
C4495 C 0.15648 0.47549 0.35623 0.0
C4496 C 0.15504 0.45796 0.36255 0.0
C4497 C 0.16481 0.4519 0.37797 0.0
C4498 C 0.17608 0.46342 0.38699 0.0
C4499 C 0.14023 0.44774 0.3554 0.0
C4500 C 0.12434 0.44808 0.3658 0.0
C4501 C 0.14015 0.44186 0.33719 0.0
C4502 C 0.1571 0.44113 0.32611 0.0
C4503 C 0.17289 0.43248 0.33306 0.0
C4504 C 0.18899 0.43226 0.3229 0.0
C4505 C 0.18951 0.44066 0.30574 0.0
C4506 C 0.1739 0.44922 0.29871 0.0
C4507 C 0.15774 0.4494 0.30875 0.0
H4508 H 0.20201 0.44064 0.29795 0.0
H4509 H 0.0466 0.45252 0.39714 0.0
H4510 H 0.45754 0.54991 0.81271 0.0
H4511 H 0.43429 0.53464 0.83116 0.0
H4512 H 0.39582 0.57738 0.81887 0.0
H4513 H 0.41835 0.592 0.79996 0.0
H4514 H 0.40723 0.55338 0.86202 0.0
H4515 H 0.37914 0.56076 0.79717 0.0
H4516 H 0.38553 0.55634 0.76446 0.0
H4517 H 0.3998 0.50155 0.7755 0.0
H4518 H 0.39467 0.50599 0.8085 0.0
H4519 H 0.30859 0.54628 0.87102 0.0
H4520 H 0.33848 0.55492 0.85901 0.0
H4521 H 0.35838 0.50072 0.86516 0.0
H4522 H 0.32906 0.49225 0.87766 0.0
H4523 H 0.35926 0.5246 0.82633 0.0
H4524 H 0.38474 0.51316 0.8878 0.0
H4525 H 0.38116 0.51449 0.92131 0.0
H4526 H 0.3712 0.57088 0.91719 0.0
H4527 H 0.37462 0.56976 0.8836 0.0
C4528 C 0.44411 0.55595 0.81412 0.0
C4529 C 0.43946 0.57184 0.80476 0.0
C4530 C 0.43094 0.5473 0.82459 0.0
C4531 C 0.41333 0.55479 0.82592 0.0
C4532 C 0.40923 0.57126 0.81759 0.0
C4533 C 0.42208 0.57956 0.80682 0.0
C4534 C 0.39866 0.54544 0.83527 0.0
C4535 C 0.39686 0.54692 0.85427 0.0
C4536 C 0.38528 0.5368 0.82515 0.0
C4537 C 0.38718 0.53388 0.80531 0.0
C4538 C 0.38399 0.54787 0.79267 0.0
C4539 C 0.38742 0.54539 0.7741 0.0
C4540 C 0.3935 0.52881 0.76801 0.0
C4541 C 0.39538 0.51446 0.78033 0.0
C4542 C 0.39242 0.51701 0.79898 0.0
C4543 C 0.31953 0.53643 0.87012 0.0
C4544 C 0.31687 0.51878 0.87545 0.0
C4545 C 0.33643 0.54127 0.86326 0.0
C4546 C 0.35041 0.52836 0.86133 0.0
C4547 C 0.34772 0.51079 0.86676 0.0
C4548 C 0.33108 0.50605 0.87395 0.0
C4549 C 0.36765 0.5331 0.85289 0.0
C4550 C 0.36984 0.53075 0.8341 0.0
C4551 C 0.38153 0.5405 0.86323 0.0
C4552 C 0.38011 0.54143 0.88333 0.0
C4553 C 0.38187 0.52584 0.8941 0.0
C4554 C 0.37983 0.52654 0.91307 0.0
C4555 C 0.37601 0.54277 0.92139 0.0
C4556 C 0.37425 0.55833 0.91074 0.0
C4557 C 0.3763 0.55769 0.89175 0.0
H4558 H 0.37438 0.54329 0.93607 0.0
H4559 H 0.39683 0.52713 0.75376 0.0
H4560 H 0.85251 0.71983 0.61154 0.0
H4561 H 0.87153 0.71857 0.63923 0.0
H4562 H 0.91753 0.73496 0.60721 0.0
H4563 H 0.89906 0.73538 0.57976 0.0
H4564 H 0.91774 0.69982 0.61952 0.0
H4565 H 0.9131 0.75788 0.64389 0.0
H4566 H 0.89922 0.78577 0.65524 0.0
H4567 H 0.86984 0.75644 0.6959 0.0
H4568 H 0.88362 0.72838 0.68486 0.0
H4569 H 0.97608 0.66491 0.68716 0.0
H4570 H 0.96311 0.69003 0.66942 0.0
H4571 H 0.90995 0.6788 0.69065 0.0
H4572 H 0.92273 0.65331 0.70797 0.0
H4573 H 0.91807 0.71719 0.68452 0.0
H4574 H 0.91739 0.65966 0.65584 0.0
H4575 H 0.92777 0.6316 0.64194 0.0
H4576 H 0.96372 0.66013 0.60658 0.0
H4577 H 0.95376 0.68835 0.62052 0.0
C4578 C 0.86673 0.72297 0.61055 0.0
C4579 C 0.87473 0.72638 0.5935 0.0
C4580 C 0.87737 0.72291 0.62636 0.0
C4581 C 0.89589 0.72675 0.62517 0.0
C4582 C 0.90325 0.73205 0.60837 0.0
C4583 C 0.89285 0.73162 0.59264 0.0
C4584 C 0.90835 0.71912 0.639 0.0
C4585 C 0.91833 0.70402 0.63363 0.0
C4586 C 0.90845 0.72432 0.65741 0.0
C4587 C 0.89927 0.741 0.66342 0.0
C4588 C 0.9035 0.75735 0.6551 0.0
C4589 C 0.89574 0.7732 0.66155 0.0
C4590 C 0.88362 0.77287 0.67625 0.0
C4591 C 0.87923 0.75668 0.68452 0.0
C4592 C 0.88706 0.7408 0.67821 0.0
C4593 C 0.96173 0.66817 0.68851 0.0
C4594 C 0.95029 0.65718 0.69874 0.0
C4595 C 0.95439 0.68248 0.6784 0.0
C4596 C 0.93563 0.68609 0.67877 0.0
C4597 C 0.92448 0.6762 0.69037 0.0
C4598 C 0.93175 0.66166 0.70018 0.0
C4599 C 0.92724 0.69793 0.66487 0.0
C4600 C 0.91796 0.71353 0.67026 0.0
C4601 C 0.9275 0.69317 0.6463 0.0
C4602 C 0.93526 0.67607 0.63967 0.0
C4603 C 0.92793 0.6599 0.64552 0.0
C4604 C 0.9336 0.64398 0.63749 0.0
C4605 C 0.9465 0.64406 0.62348 0.0
C4606 C 0.95384 0.66006 0.61754 0.0
C4607 C 0.94825 0.67601 0.62556 0.0
H4608 H 0.95071 0.63175 0.61714 0.0
H4609 H 0.87766 0.78515 0.68126 0.0
H4610 H 0.08767 0.22346 0.4102 0.0
H4611 H 0.07227 0.20476 0.38837 0.0
H4612 H 0.09018 0.15786 0.41859 0.0
H4613 H 0.10543 0.17635 0.44066 0.0
H4614 H 0.09484 0.16078 0.3752 0.0
H4615 H 0.0466 0.15411 0.42387 0.0
H4616 H 0.02235 0.16238 0.44573 0.0
H4617 H 0.00386 0.20452 0.40942 0.0
H4618 H 0.02796 0.19637 0.38736 0.0
H4619 H 0.03438 0.09954 0.3323 0.0
H4620 H 0.05459 0.11477 0.35331 0.0
H4621 H 0.02516 0.16422 0.34206 0.0
H4622 H 0.00445 0.14883 0.32226 0.0
H4623 H 0.02778 0.15733 0.37703 0.0
H4624 H 0.06869 0.15492 0.32496 0.0
H4625 H 0.0846 0.13743 0.30136 0.0
H4626 H 0.11363 0.10753 0.34302 0.0
H4627 H 0.0977 0.1247 0.3669 0.0
C4628 C 0.08824 0.20919 0.4123 0.0
C4629 C 0.09728 0.20144 0.4275 0.0
C4630 C 0.07948 0.19855 0.3998 0.0
C4631 C 0.07988 0.18003 0.40215 0.0
C4632 C 0.08955 0.17217 0.41678 0.0
C4633 C 0.09812 0.18278 0.42942 0.0
C4634 C 0.07024 0.16894 0.38922 0.0
C4635 C 0.08018 0.15995 0.37558 0.0
C4636 C 0.05117 0.1678 0.38975 0.0
C4637 C 0.03954 0.17513 0.40438 0.0
C4638 C 0.03769 0.16546 0.42083 0.0
C4639 C 0.02379 0.16993 0.43311 0.0
C4640 C 0.01164 0.18404 0.42903 0.0
C4641 C 0.01335 0.19368 0.41264 0.0
C4642 C 0.02719 0.18921 0.4003 0.0
C4643 C 0.03235 0.11364 0.33454 0.0
C4644 C 0.01792 0.12315 0.32621 0.0
C4645 C 0.04394 0.12232 0.34623 0.0
C4646 C 0.04142 0.14062 0.349 0.0
C4647 C 0.02725 0.15009 0.34009 0.0
C4648 C 0.01541 0.14134 0.32896 0.0
C4649 C 0.05214 0.14984 0.36257 0.0
C4650 C 0.04244 0.15833 0.37643 0.0
C4651 C 0.07128 0.15036 0.36211 0.0
C4652 C 0.08198 0.14109 0.34774 0.0
C4653 C 0.07852 0.14467 0.3291 0.0
C4654 C 0.0875 0.13477 0.31567 0.0
C4655 C 0.1001 0.12137 0.32069 0.0
C4656 C 0.10387 0.11794 0.33915 0.0
C4657 C 0.09491 0.12779 0.35265 0.0
H4658 H 0.10696 0.11364 0.31029 0.0
H4659 H 0.00091 0.18749 0.43854 0.0
H4660 H 0.54518 0.34139 0.20345 0.0
H4661 H 0.56166 0.32454 0.18003 0.0
H4662 H 0.58114 0.37304 0.15634 0.0
H4663 H 0.56575 0.39002 0.1804 0.0
H4664 H 0.56651 0.34703 0.13119 0.0
H4665 H 0.60975 0.35239 0.18049 0.0
H4666 H 0.62116 0.3497 0.21213 0.0
H4667 H 0.61183 0.2937 0.21253 0.0
H4668 H 0.60016 0.29608 0.18101 0.0
H4669 H 0.63173 0.29637 0.07752 0.0
H4670 H 0.62161 0.31928 0.09905 0.0
H4671 H 0.59409 0.27961 0.13112 0.0
H4672 H 0.6036 0.25687 0.10941 0.0
H4673 H 0.61646 0.30529 0.15058 0.0
H4674 H 0.56842 0.29875 0.10701 0.0
H4675 H 0.55275 0.2987 0.0773 0.0
H4676 H 0.56631 0.35314 0.0677 0.0
H4677 H 0.58235 0.35341 0.09729 0.0
C4678 C 0.55263 0.34841 0.19292 0.0
C4679 C 0.55419 0.36683 0.19331 0.0
C4680 C 0.56208 0.33883 0.17975 0.0
C4681 C 0.57264 0.34767 0.16673 0.0
C4682 C 0.5732 0.36618 0.16647 0.0
C4683 C 0.56428 0.37576 0.17998 0.0
C4684 C 0.58329 0.33746 0.15353 0.0
C4685 C 0.57774 0.33819 0.13525 0.0
C4686 C 0.59753 0.32571 0.15921 0.0
C4687 C 0.60393 0.32445 0.17843 0.0
C4688 C 0.60991 0.33955 0.1874 0.0
C4689 C 0.61649 0.33806 0.2053 0.0
C4690 C 0.6172 0.32155 0.21434 0.0
C4691 C 0.61127 0.30649 0.20553 0.0
C4692 C 0.60469 0.3079 0.18765 0.0
C4693 C 0.62387 0.29256 0.08942 0.0
C4694 C 0.61829 0.27505 0.09195 0.0
C4695 C 0.618 0.3056 0.1015 0.0
C4696 C 0.60695 0.30099 0.11632 0.0
C4697 C 0.60254 0.28326 0.11959 0.0
C4698 C 0.60801 0.27036 0.10731 0.0
C4699 C 0.59943 0.31457 0.12834 0.0
C4700 C 0.60559 0.3145 0.14639 0.0
C4701 C 0.58535 0.3265 0.12258 0.0
C4702 C 0.57702 0.32595 0.10416 0.0
C4703 C 0.56848 0.31057 0.09838 0.0
C4704 C 0.5594 0.31055 0.08161 0.0
C4705 C 0.55864 0.32587 0.07056 0.0
C4706 C 0.56701 0.34124 0.07623 0.0
C4707 C 0.57613 0.34133 0.09298 0.0
H4708 H 0.55149 0.32587 0.05765 0.0
H4709 H 0.62236 0.32042 0.22817 0.0
H4710 H 0.40172 0.7729 0.91976 0.0
H4711 H 0.4169 0.78521 0.89262 0.0
H4712 H 0.42952 0.83202 0.92278 0.0
H4713 H 0.41439 0.81992 0.94961 0.0
H4714 H 0.41463 0.84036 0.89021 0.0
H4715 H 0.4606 0.80233 0.9157 0.0
H4716 H 0.47476 0.77459 0.92785 0.0
H4717 H 0.47023 0.7508 0.87525 0.0
H4718 H 0.45578 0.7784 0.86282 0.0
H4719 H 0.48357 0.87975 0.83735 0.0
H4720 H 0.4682 0.86411 0.86225 0.0
H4721 H 0.45099 0.82447 0.82473 0.0
H4722 H 0.46595 0.83993 0.79976 0.0
H4723 H 0.4666 0.81089 0.85861 0.0
H4724 H 0.42193 0.85325 0.83477 0.0
H4725 H 0.41351 0.88372 0.8245 0.0
H4726 H 0.42224 0.90263 0.87869 0.0
H4727 H 0.43118 0.87231 0.88918 0.0
C4728 C 0.40776 0.78578 0.92046 0.0
C4729 C 0.40685 0.79558 0.93653 0.0
C4730 C 0.41643 0.79274 0.90509 0.0
C4731 C 0.42418 0.80951 0.90584 0.0
C4732 C 0.42347 0.81911 0.92201 0.0
C4733 C 0.41492 0.81216 0.93729 0.0
C4734 C 0.43285 0.81739 0.88977 0.0
C4735 C 0.42615 0.83401 0.88345 0.0
C4736 C 0.44779 0.80895 0.88103 0.0
C4737 C 0.45662 0.79231 0.88842 0.0
C4738 C 0.46233 0.79111 0.90677 0.0
C4739 C 0.47049 0.77542 0.9137 0.0
C4740 C 0.47323 0.76086 0.90239 0.0
C4741 C 0.468 0.76205 0.88404 0.0
C4742 C 0.45983 0.77773 0.87704 0.0
C4743 C 0.47624 0.8679 0.83433 0.0
C4744 C 0.47588 0.86115 0.81659 0.0
C4745 C 0.46771 0.8589 0.84856 0.0
C4746 C 0.4587 0.84317 0.84513 0.0
C4747 C 0.45807 0.83653 0.82749 0.0
C4748 C 0.46644 0.84555 0.81326 0.0
C4749 C 0.449 0.83412 0.85984 0.0
C4750 C 0.45525 0.81721 0.86562 0.0
C4751 C 0.43421 0.8426 0.86864 0.0
C4752 C 0.42733 0.86052 0.86274 0.0
C4753 C 0.42206 0.86391 0.8445 0.0
C4754 C 0.41725 0.88116 0.83862 0.0
C4755 C 0.41738 0.89511 0.85093 0.0
C4756 C 0.42217 0.8918 0.86917 0.0
C4757 C 0.4271 0.87458 0.8751 0.0
H4758 H 0.41374 0.90848 0.84633 0.0
H4759 H 0.47949 0.7487 0.9078 0.0
H4760 H 0.85782 0.29147 0.91431 0.0
H4761 H 0.87106 0.30341 0.88598 0.0
H4762 H 0.92357 0.28167 0.90227 0.0
H4763 H 0.91061 0.27092 0.93091 0.0
H4764 H 0.92888 0.31155 0.89077 0.0
H4765 H 0.89614 0.2648 0.86469 0.0
H4766 H 0.87081 0.24589 0.85627 0.0
H4767 H 0.84272 0.29095 0.83163 0.0
H4768 H 0.86784 0.31015 0.83997 0.0
H4769 H 0.97355 0.3282 0.80744 0.0
H4770 H 0.95814 0.31233 0.83192 0.0
H4771 H 0.90889 0.34279 0.82055 0.0
H4772 H 0.92439 0.35895 0.79583 0.0
H4773 H 0.90204 0.30835 0.82891 0.0
H4774 H 0.93959 0.35376 0.85628 0.0
H4775 H 0.96814 0.36848 0.86355 0.0
H4776 H 0.99097 0.31915 0.88454 0.0
H4777 H 0.96264 0.30413 0.87729 0.0
C4778 C 0.87223 0.28949 0.91185 0.0
C4779 C 0.88328 0.28065 0.92496 0.0
C4780 C 0.87975 0.29604 0.89551 0.0
C4781 C 0.89837 0.29336 0.89173 0.0
C4782 C 0.90924 0.28415 0.90478 0.0
C4783 C 0.90184 0.27808 0.92126 0.0
C4784 C 0.90695 0.30126 0.87503 0.0
C4785 C 0.92307 0.3105 0.87723 0.0
C4786 C 0.89941 0.30025 0.85725 0.0
C4787 C 0.88377 0.28898 0.85321 0.0
C4788 C 0.88444 0.27074 0.85772 0.0
C4789 C 0.87016 0.25994 0.85287 0.0
C4790 C 0.85513 0.26723 0.84349 0.0
C4791 C 0.85435 0.28533 0.83894 0.0
C4792 C 0.86861 0.29617 0.84371 0.0
C4793 C 0.9594 0.33154 0.81006 0.0
C4794 C 0.95025 0.34506 0.79986 0.0
C4795 C 0.95062 0.32247 0.82416 0.0
C4796 C 0.93254 0.32681 0.82856 0.0
C4797 C 0.92298 0.33949 0.81765 0.0
C4798 C 0.93179 0.34862 0.80344 0.0
C4799 C 0.92384 0.31842 0.84483 0.0
C4800 C 0.90772 0.30922 0.84252 0.0
C4801 C 0.93177 0.31879 0.86245 0.0
C4802 C 0.94902 0.3278 0.86612 0.0
C4803 C 0.95075 0.34603 0.86227 0.0
C4804 C 0.96688 0.35443 0.86645 0.0
C4805 C 0.98133 0.34475 0.87451 0.0
C4806 C 0.97975 0.32663 0.87831 0.0
C4807 C 0.96367 0.31818 0.8742 0.0
H4808 H 0.99372 0.35129 0.87789 0.0
H4809 H 0.84413 0.25884 0.83969 0.0
H4810 H 0.49202 0.1258 0.65993 0.0
H4811 H 0.48448 0.14048 0.63078 0.0
H4812 H 0.43586 0.16328 0.65468 0.0
H4813 H 0.44382 0.14911 0.68439 0.0
H4814 H 0.43195 0.14256 0.62152 0.0
H4815 H 0.46788 0.18727 0.64687 0.0
H4816 H 0.49421 0.20235 0.65914 0.0
H4817 H 0.52173 0.1972 0.60777 0.0
H4818 H 0.49637 0.1805 0.59563 0.0
H4819 H 0.40041 0.20504 0.55448 0.0
H4820 H 0.41408 0.19372 0.5827 0.0
H4821 H 0.45514 0.16546 0.55189 0.0
H4822 H 0.44107 0.17667 0.52316 0.0
H4823 H 0.46505 0.18904 0.58743 0.0
H4824 H 0.43183 0.13979 0.56462 0.0
H4825 H 0.40561 0.12412 0.55252 0.0
H4826 H 0.37379 0.13959 0.59907 0.0
H4827 H 0.39966 0.15568 0.61126 0.0
C4828 C 0.47966 0.13391 0.65901 0.0
C4829 C 0.46826 0.13605 0.67434 0.0
C4830 C 0.47554 0.14247 0.64238 0.0
C4831 C 0.45973 0.15308 0.6406 0.0
C4832 C 0.44824 0.15525 0.65586 0.0
C4833 C 0.45267 0.14707 0.67274 0.0
C4834 C 0.45424 0.16031 0.62236 0.0
C4835 C 0.43915 0.15285 0.61418 0.0
C4836 C 0.46414 0.17331 0.61251 0.0
C4837 C 0.48016 0.18215 0.6204 0.0
C4838 C 0.47977 0.18864 0.63834 0.0
C4839 C 0.4946 0.19751 0.6453 0.0
C4840 C 0.50976 0.20049 0.63432 0.0
C4841 C 0.51015 0.19452 0.61639 0.0
C4842 C 0.4956 0.1852 0.60952 0.0
C4843 C 0.41255 0.19681 0.55354 0.0
C4844 C 0.41991 0.19213 0.53654 0.0
C4845 C 0.4203 0.19021 0.56978 0.0
C4846 C 0.43568 0.17886 0.5694 0.0
C4847 C 0.44335 0.17435 0.55246 0.0
C4848 C 0.43534 0.18075 0.53612 0.0
C4849 C 0.44291 0.17117 0.58683 0.0
C4850 C 0.45819 0.17858 0.59482 0.0
C4851 C 0.43345 0.15798 0.59656 0.0
C4852 C 0.4176 0.14918 0.5887 0.0
C4853 C 0.41914 0.14016 0.57209 0.0
C4854 C 0.40438 0.13112 0.56527 0.0
C4855 C 0.38809 0.13092 0.57504 0.0
C4856 C 0.38644 0.13981 0.59154 0.0
C4857 C 0.40112 0.14891 0.59838 0.0
H4858 H 0.37672 0.12387 0.56993 0.0
H4859 H 0.52111 0.20757 0.63965 0.0
H4860 H 0.57244 0.7183 0.44765 0.0
H4861 H 0.55965 0.70544 0.42035 0.0
H4862 H 0.60429 0.72506 0.38825 0.0
H4863 H 0.61667 0.73878 0.4155 0.0
H4864 H 0.57154 0.73193 0.37225 0.0
H4865 H 0.6015 0.68051 0.40364 0.0
H4866 H 0.60537 0.66111 0.43098 0.0
H4867 H 0.54904 0.64827 0.42897 0.0
H4868 H 0.54478 0.66779 0.40179 0.0
H4869 H 0.56277 0.67305 0.29414 0.0
H4870 H 0.57535 0.68836 0.32047 0.0
H4871 H 0.5263 0.67916 0.35096 0.0
H4872 H 0.51357 0.66434 0.32501 0.0
H4873 H 0.56039 0.66755 0.3677 0.0
H4874 H 0.53123 0.73194 0.35584 0.0
H4875 H 0.52201 0.75584 0.33393 0.0
H4876 H 0.56963 0.74483 0.30172 0.0
H4877 H 0.57923 0.72106 0.32364 0.0
C4878 C 0.57963 0.71964 0.4348 0.0
C4879 C 0.5956 0.72927 0.43353 0.0
C4880 C 0.57232 0.71232 0.41926 0.0
C4881 C 0.58123 0.71408 0.40242 0.0
C4882 C 0.59731 0.72356 0.4012 0.0
C4883 C 0.60441 0.73124 0.41669 0.0
C4884 C 0.57363 0.70636 0.38592 0.0
C4885 C 0.56945 0.71779 0.37111 0.0
C4886 C 0.56997 0.68809 0.38493 0.0
C4887 C 0.57283 0.67565 0.4007 0.0
C4888 C 0.58995 0.67354 0.40903 0.0
C4889 C 0.5922 0.66255 0.42452 0.0
C4890 C 0.57746 0.65348 0.43172 0.0
C4891 C 0.56045 0.6553 0.42338 0.0
C4892 C 0.55812 0.6663 0.40791 0.0
C4893 C 0.55463 0.67454 0.30638 0.0
C4894 C 0.53708 0.66785 0.30735 0.0
C4895 C 0.56173 0.68339 0.32129 0.0
C4896 C 0.55146 0.68528 0.33734 0.0
C4897 C 0.53421 0.67814 0.3385 0.0
C4898 C 0.52699 0.6697 0.3236 0.0
C4899 C 0.55926 0.693 0.3537 0.0
C4900 C 0.563 0.6816 0.36869 0.0
C4901 C 0.56195 0.71137 0.35512 0.0
C4902 C 0.55568 0.72446 0.34105 0.0
C4903 C 0.53962 0.73453 0.34396 0.0
C4904 C 0.53441 0.74815 0.33165 0.0
C4905 C 0.54517 0.75179 0.31638 0.0
C4906 C 0.56122 0.74188 0.31346 0.0
C4907 C 0.56653 0.7283 0.3258 0.0
H4908 H 0.54109 0.76229 0.30682 0.0
H4909 H 0.57922 0.64502 0.44375 0.0
H4910 H 0.10736 0.81613 0.04898 0.0
H4911 H 0.09137 0.82704 0.07619 0.0
H4912 H 0.05474 0.78365 0.0738 0.0
H4913 H 0.0706 0.7726 0.04656 0.0
H4914 H 0.03828 0.81745 0.08149 0.0
H4915 H 0.08363 0.77813 0.10378 0.0
H4916 H 0.11308 0.76278 0.1096 0.0
H4917 H 0.13477 0.81104 0.12944 0.0
H4918 H 0.10556 0.8268 0.12344 0.0
H4919 H 0.01295 0.8313 0.17622 0.0
H4920 H 0.02206 0.81865 0.14693 0.0
H4921 H 0.06159 0.85938 0.13991 0.0
H4922 H 0.05201 0.87246 0.16918 0.0
H4923 H 0.0746 0.82272 0.13803 0.0
H4924 H 0.02615 0.86137 0.11299 0.0
H4925 H 0.99498 0.87325 0.10804 0.0
H4926 H 0.97719 0.82106 0.09565 0.0
H4927 H 0.00823 0.80884 0.10062 0.0
C4928 C 0.09559 0.80922 0.05396 0.0
C4929 C 0.09014 0.79358 0.04575 0.0
C4930 C 0.08678 0.81523 0.06965 0.0
C4931 C 0.07239 0.80579 0.07721 0.0
C4932 C 0.06606 0.7909 0.06828 0.0
C4933 C 0.075 0.78472 0.05271 0.0
C4934 C 0.06404 0.81178 0.09441 0.0
C4935 C 0.04608 0.81837 0.09398 0.0
C4936 C 0.07431 0.81278 0.11064 0.0
C4937 C 0.09241 0.80375 0.11287 0.0
C4938 C 0.09477 0.78559 0.10902 0.0
C4939 C 0.11141 0.77677 0.11246 0.0
C4940 C 0.1258 0.78594 0.11983 0.0
C4941 C 0.12362 0.80397 0.12368 0.0
C4942 C 0.10703 0.81285 0.12025 0.0
C4943 C 0.02368 0.83745 0.16842 0.0
C4944 C 0.03223 0.85248 0.17499 0.0
C4945 C 0.02862 0.83041 0.15163 0.0
C4946 C 0.04235 0.83819 0.14127 0.0
C4947 C 0.05085 0.85332 0.14775 0.0
C4948 C 0.04559 0.86064 0.16445 0.0
C4949 C 0.04922 0.82932 0.12477 0.0
C4950 C 0.06683 0.82186 0.1255 0.0
C4951 C 0.03841 0.82704 0.10906 0.0
C4952 C 0.01949 0.83416 0.10746 0.0
C4953 C 0.01554 0.85237 0.10953 0.0
C4954 C 0.99791 0.85919 0.10659 0.0
C4955 C 0.98411 0.84791 0.10158 0.0
C4956 C 0.98788 0.82978 0.09956 0.0
C4957 C 0.00549 0.82291 0.10243 0.0
H4958 H 0.9705 0.85324 0.0992 0.0
H4959 H 0.13863 0.77906 0.1226 0.0
H4960 H 0.67098 0.92587 0.65462 0.0
H4961 H 0.64678 0.91209 0.67224 0.0
H4962 H 0.65446 0.9491 0.71566 0.0
H4963 H 0.67841 0.9635 0.69754 0.0
H4964 H 0.65527 0.91026 0.72523 0.0
H4965 H 0.61851 0.95567 0.69788 0.0
H4966 H 0.60406 0.97575 0.67486 0.0
H4967 H 0.58326 0.931 0.64703 0.0
H4968 H 0.59782 0.91062 0.6697 0.0
H4969 H 0.57311 0.89368 0.77185 0.0
H4970 H 0.60216 0.90087 0.75847 0.0
H4971 H 0.58867 0.87214 0.71004 0.0
H4972 H 0.55911 0.86504 0.72349 0.0
H4973 H 0.59158 0.90728 0.70415 0.0
H4974 H 0.62826 0.86201 0.73513 0.0
H4975 H 0.63971 0.84451 0.76173 0.0
H4976 H 0.658 0.89204 0.78642 0.0
H4977 H 0.6465 0.90985 0.7601 0.0
C4978 C 0.66751 0.931 0.66794 0.0
C4979 C 0.67658 0.94542 0.67499 0.0
C4980 C 0.65362 0.92328 0.67786 0.0
C4981 C 0.64892 0.92967 0.69512 0.0
C4982 C 0.65797 0.94412 0.70228 0.0
C4983 C 0.67158 0.95222 0.69205 0.0
C4984 C 0.6353 0.92022 0.70589 0.0
C4985 C 0.64124 0.90973 0.72086 0.0
C4986 C 0.61719 0.91945 0.69983 0.0
C4987 C 0.60957 0.93158 0.68534 0.0
C4988 C 0.61119 0.95007 0.68664 0.0
C4989 C 0.60286 0.96152 0.67372 0.0
C4990 C 0.59281 0.95465 0.65945 0.0
C4991 C 0.5911 0.93631 0.65805 0.0
C4992 C 0.59941 0.9248 0.67092 0.0
C4993 C 0.57648 0.88861 0.75846 0.0
C4994 C 0.56371 0.8795 0.74826 0.0
C4995 C 0.59326 0.8924 0.751 0.0
C4996 C 0.5975 0.88714 0.73323 0.0
C4997 C 0.58555 0.87631 0.72381 0.0
C4998 C 0.56868 0.8724 0.73137 0.0
C4999 C 0.61159 0.89673 0.72318 0.0
C5000 C 0.60567 0.90749 0.70839 0.0
C5001 C 0.62954 0.89802 0.72974 0.0
C5002 C 0.63641 0.88728 0.74565 0.0
C5003 C 0.6346 0.86875 0.74629 0.0
C5004 C 0.64113 0.85876 0.76131 0.0
C5005 C 0.64955 0.86715 0.77577 0.0
C5006 C 0.65148 0.88554 0.77522 0.0
C5007 C 0.64499 0.89559 0.76023 0.0
H5008 H 0.65461 0.85938 0.78737 0.0
H5009 H 0.5863 0.96354 0.64952 0.0
H5010 H 0.88139 0.83041 0.47737 0.0
H5011 H 0.86875 0.85663 0.4606 0.0
H5012 H 0.81489 0.84336 0.47876 0.0
H5013 H 0.82743 0.81717 0.49499 0.0
H5014 H 0.81674 0.85096 0.44216 0.0
H5015 H 0.83658 0.87341 0.49937 0.0
H5016 H 0.85928 0.8779 0.52329 0.0
H5017 H 0.89072 0.90904 0.48588 0.0
H5018 H 0.86865 0.90392 0.46135 0.0
H5019 H 0.76613 0.92845 0.42053 0.0
H5020 H 0.78047 0.9031 0.4365 0.0
H5021 H 0.83322 0.92475 0.42567 0.0
H5022 H 0.81857 0.95115 0.41157 0.0
H5023 H 0.83315 0.91226 0.4577 0.0
H5024 H 0.81304 0.88752 0.39964 0.0
H5025 H 0.79039 0.88074 0.37613 0.0
H5026 H 0.7582 0.85417 0.4166 0.0
H5027 H 0.78065 0.86074 0.4403 0.0
C5028 C 0.8669 0.83326 0.4776 0.0
C5029 C 0.85516 0.82212 0.48707 0.0
C5030 C 0.85975 0.84805 0.46816 0.0
C5031 C 0.84097 0.85168 0.46855 0.0
C5032 C 0.82938 0.84052 0.47823 0.0
C5033 C 0.83648 0.82574 0.48745 0.0
C5034 C 0.83317 0.86722 0.45903 0.0
C5035 C 0.82025 0.86442 0.44549 0.0
C5036 C 0.83801 0.88456 0.46353 0.0
C5037 C 0.85105 0.88809 0.47842 0.0
C5038 C 0.84842 0.88107 0.49615 0.0
C5039 C 0.86117 0.88375 0.50985 0.0
C5040 C 0.87639 0.89385 0.50618 0.0
C5041 C 0.87892 0.90122 0.48873 0.0
C5042 C 0.86634 0.89835 0.47488 0.0
C5043 C 0.78074 0.92796 0.42212 0.0
C5044 C 0.79134 0.94179 0.41555 0.0
C5045 C 0.78895 0.91332 0.43081 0.0
C5046 C 0.80794 0.91184 0.43184 0.0
C5047 C 0.81854 0.92569 0.42505 0.0
C5048 C 0.81024 0.94073 0.41714 0.0
C5049 C 0.81678 0.89613 0.44046 0.0
C5050 C 0.82983 0.89886 0.45402 0.0
C5051 C 0.81196 0.87866 0.43606 0.0
C5052 C 0.79848 0.87473 0.42174 0.0
C5053 C 0.8011 0.88028 0.40351 0.0
C5054 C 0.78831 0.87643 0.39015 0.0
C5055 C 0.77285 0.86703 0.39487 0.0
C5056 C 0.77019 0.8614 0.41294 0.0
C5057 C 0.78296 0.86514 0.42633 0.0
H5058 H 0.76293 0.86412 0.38453 0.0
H5059 H 0.88621 0.89595 0.51684 0.0
H5060 H 0.81331 0.01887 0.15875 0.0
H5061 H 0.83657 0.03314 0.17654 0.0
H5062 H 0.79512 0.06399 0.20423 0.0
H5063 H 0.77163 0.04838 0.18777 0.0
H5064 H 0.8328 0.07743 0.17732 0.0
H5065 H 0.80697 0.05481 0.23273 0.0
H5066 H 0.79312 0.03222 0.25261 0.0
H5067 H 0.84198 -2e-05 0.25023 0.0
H5068 H 0.85582 0.02199 0.22948 0.0
H5069 H 0.90649 0.11719 0.22088 0.0
H5070 H 0.87572 0.10672 0.21753 0.0
H5071 H 0.89676 0.05315 0.2113 0.0
H5072 H 0.92774 0.06347 0.2155 0.0
H5073 H 0.86452 0.05547 0.23349 0.0
H5074 H 0.88763 0.07799 0.17461 0.0
H5075 H 0.90209 0.10239 0.15763 0.0
H5076 H 0.85701 0.13744 0.17024 0.0
H5077 H 0.84246 0.11331 0.18764 0.0
C5078 C 0.80913 0.02813 0.16914 0.0
C5079 C 0.7907 0.03213 0.17225 0.0
C5080 C 0.8224 0.03633 0.17923 0.0
C5081 C 0.81749 0.04922 0.19203 0.0
C5082 C 0.79911 0.05353 0.19497 0.0
C5083 C 0.78576 0.0447 0.18546 0.0
C5084 C 0.83195 0.05934 0.20045 0.0
C5085 C 0.83947 0.07298 0.18987 0.0
C5086 C 0.84057 0.05339 0.21679 0.0
C5087 C 0.83228 0.0399 0.22909 0.0
C5088 C 0.8146 0.04269 0.23598 0.0
C5089 C 0.80678 0.03003 0.24752 0.0
C5090 C 0.81665 0.01465 0.25265 0.0
C5091 C 0.83435 0.0119 0.2462 0.0
C5092 C 0.84214 0.02442 0.23445 0.0
C5093 C 0.90464 0.10321 0.21849 0.0
C5094 C 0.91956 0.09117 0.21806 0.0
C5095 C 0.88701 0.09722 0.21692 0.0
C5096 C 0.88398 0.07916 0.21428 0.0
C5097 C 0.89884 0.06712 0.21356 0.0
C5098 C 0.91651 0.07307 0.21548 0.0
C5099 C 0.86555 0.07319 0.21005 0.0
C5100 C 0.85751 0.06025 0.22126 0.0
C5101 C 0.85617 0.07998 0.19447 0.0
C5102 C 0.86398 0.09388 0.18244 0.0
C5103 C 0.88075 0.09087 0.17365 0.0
C5104 C 0.88901 0.10467 0.16405 0.0
C5105 C 0.88049 0.12146 0.16288 0.0
C5106 C 0.8636 0.12443 0.17116 0.0
C5107 C 0.85533 0.11069 0.18089 0.0
H5108 H 0.88695 0.13216 0.15554 0.0
H5109 H 0.8106 0.00489 0.26163 0.0
H5110 H 0.61238 0.1612 0.98079 0.0
H5111 H 0.62925 0.13308 0.97613 0.0
H5112 H 0.67968 0.15982 0.98312 0.0
H5113 H 0.663 0.18791 0.98724 0.0
H5114 H 0.67588 0.14539 0.95038 0.0
H5115 H 0.67192 0.12545 0.01241 0.0
H5116 H 0.65932 0.11674 0.04244 0.0
H5117 H 0.62552 0.07909 0.0167 0.0
H5118 H 0.6379 0.08753 0.98655 0.0
H5119 H 0.73086 0.06904 0.93189 0.0
H5120 H 0.71617 0.09118 0.95121 0.0
H5121 H 0.6637 0.07529 0.93316 0.0
H5122 H 0.67817 0.05262 0.91375 0.0
H5123 H 0.67088 0.08376 0.97432 0.0
H5124 H 0.67676 0.1048 0.91177 0.0
H5125 H 0.69115 0.11376 0.88283 0.0
H5126 H 0.72239 0.15192 0.91098 0.0
H5127 H 0.70866 0.14275 0.94022 0.0
C5128 C 0.62708 0.16104 0.98108 0.0
C5129 C 0.63642 0.1768 0.98354 0.0
C5130 C 0.63665 0.14493 0.97901 0.0
C5131 C 0.65567 0.14436 0.97959 0.0
C5132 C 0.66497 0.15999 0.9828 0.0
C5133 C 0.65545 0.17609 0.98461 0.0
C5134 C 0.66571 0.12891 0.97219 0.0
C5135 C 0.6752 0.13195 0.9559 0.0
C5136 C 0.66421 0.11138 0.97918 0.0
C5137 C 0.65566 0.10734 0.99714 0.0
C5138 C 0.66157 0.11554 0.0131 0.0
C5139 C 0.65457 0.11055 0.03018 0.0
C5140 C 0.64156 0.09745 0.03145 0.0
C5141 C 0.63555 0.08928 0.01569 0.0
C5142 C 0.64259 0.09413 -0.00139 0.0
C5143 C 0.71617 0.0702 0.93194 0.0
C5144 C 0.70563 0.05938 0.92097 0.0
C5145 C 0.7079 0.08292 0.94293 0.0
C5146 C 0.68906 0.08525 0.94294 0.0
C5147 C 0.67835 0.07376 0.933 0.0
C5148 C 0.68661 0.06088 0.92197 0.0
C5149 C 0.68079 0.10042 0.95251 0.0
C5150 C 0.67172 0.09728 0.96908 0.0
C5151 C 0.68282 0.11802 0.94592 0.0
C5152 C 0.69205 0.12259 0.92839 0.0
C5153 C 0.68712 0.11466 0.91195 0.0
C5154 C 0.69506 0.11992 0.89542 0.0
C5155 C 0.70779 0.1333 0.89507 0.0
C5156 C 0.7126 0.14147 0.91126 0.0
C5157 C 0.70475 0.13622 0.92782 0.0
H5158 H 0.71382 0.13743 0.88224 0.0
H5159 H 0.63612 0.09363 0.04464 0.0
H5160 H 0.59047 0.12984 0.77668 0.0
H5161 H 0.61624 0.11929 0.79569 0.0
H5162 H 0.58869 0.07074 0.80785 0.0
H5163 H 0.56304 0.08116 0.78906 0.0
H5164 H 0.60784 0.08468 0.83859 0.0
H5165 H 0.6174 0.06873 0.7752 0.0
H5166 H 0.61847 0.07599 0.7422 0.0
H5167 H 0.65997 0.1136 0.75161 0.0
H5168 H 0.65899 0.10668 0.78471 0.0
H5169 H 0.68722 0.03077 0.8641 0.0
H5170 H 0.65814 0.04206 0.85137 0.0
H5171 H 0.68504 0.08734 0.82815 0.0
H5172 H 0.71381 0.07614 0.84057 0.0
H5173 H 0.66474 0.07417 0.80363 0.0
H5174 H 0.65777 0.08813 0.86695 0.0
H5175 H 0.65588 0.08233 0.90006 0.0
H5176 H 0.60921 0.05057 0.89228 0.0
H5177 H 0.61075 0.0562 0.85905 0.0
C5178 C 0.5899 0.11701 0.78356 0.0
C5179 C 0.57488 0.10624 0.78126 0.0
C5180 C 0.60453 0.11103 0.79446 0.0
C5181 C 0.60435 0.0942 0.80313 0.0
C5182 C 0.58904 0.0838 0.80142 0.0
C5183 C 0.57447 0.08973 0.79054 0.0
C5184 C 0.62082 0.08661 0.81229 0.0
C5185 C 0.6203 0.08221 0.83103 0.0
C5186 C 0.637 0.08356 0.80236 0.0
C5187 C 0.63806 0.08727 0.78241 0.0
C5188 C 0.62672 0.07858 0.77022 0.0
C5189 C 0.6273 0.08263 0.75151 0.0
C5190 C 0.63926 0.09527 0.74482 0.0
C5191 C 0.65072 0.10382 0.75682 0.0
C5192 C 0.65018 0.09981 0.77555 0.0
C5193 C 0.68684 0.04306 0.85616 0.0
C5194 C 0.70275 0.05253 0.85318 0.0
C5195 C 0.67023 0.04955 0.84899 0.0
C5196 C 0.66935 0.06557 0.83876 0.0
C5197 C 0.68532 0.07493 0.83588 0.0
C5198 C 0.70179 0.06849 0.84299 0.0
C5199 C 0.65215 0.07249 0.83025 0.0
C5200 C 0.65241 0.07662 0.81143 0.0
C5201 C 0.63583 0.07537 0.84026 0.0
C5202 C 0.63473 0.07216 0.86035 0.0
C5203 C 0.64725 0.0797 0.87222 0.0
C5204 C 0.64618 0.07651 0.89107 0.0
C5205 C 0.63257 0.06592 0.89829 0.0
C5206 C 0.61985 0.05866 0.88667 0.0
C5207 C 0.6208 0.06187 0.86781 0.0
H5208 H 0.63182 0.06344 0.91289 0.0
H5209 H 0.63967 0.09842 0.73033 0.0
H5210 H 0.68927 0.91819 0.62779 0.0
H5211 H 0.67404 0.89575 0.61003 0.0
H5212 H 0.66588 0.93394 0.5658 0.0
H5213 H 0.6807 0.95647 0.58388 0.0
H5214 H 0.63536 0.91941 0.57423 0.0
H5215 H 0.69506 0.90027 0.56539 0.0
H5216 H 0.7265 0.88874 0.56707 0.0
H5217 H 0.7082 0.83932 0.58933 0.0
H5218 H 0.67669 0.85082 0.5888 0.0
H5219 H 0.59997 0.85023 0.51922 0.0
H5220 H 0.61409 0.87555 0.53267 0.0
H5221 H 0.62627 0.84417 0.58135 0.0
H5222 H 0.61296 0.81824 0.56735 0.0
H5223 H 0.65584 0.85702 0.56528 0.0
H5224 H 0.59513 0.88163 0.57893 0.0
H5225 H 0.56439 0.89167 0.56935 0.0
H5226 H 0.58713 0.93001 0.5324 0.0
H5227 H 0.61802 0.92 0.54152 0.0
C5228 C 0.68455 0.92155 0.61411 0.0
C5229 C 0.68603 0.93879 0.607 0.0
C5230 C 0.67592 0.90881 0.60399 0.0
C5231 C 0.66888 0.91322 0.58661 0.0
C5232 C 0.6712 0.93032 0.5792 0.0
C5233 C 0.67972 0.94308 0.58939 0.0
C5234 C 0.65777 0.90043 0.57699 0.0
C5235 C 0.63993 0.90577 0.5722 0.0
C5236 C 0.66388 0.88269 0.5742 0.0
C5237 C 0.6832 0.8765 0.57681 0.0
C5238 C 0.69763 0.8871 0.57102 0.0
C5239 C 0.71555 0.88053 0.57175 0.0
C5240 C 0.71929 0.86321 0.57798 0.0
C5241 C 0.70524 0.85269 0.58427 0.0
C5242 C 0.68733 0.8593 0.58386 0.0
C5243 C 0.60525 0.84881 0.533 0.0
C5244 C 0.60581 0.83223 0.54217 0.0
C5245 C 0.61318 0.86338 0.54071 0.0
C5246 C 0.62126 0.8617 0.55796 0.0
C5247 C 0.62015 0.84561 0.56793 0.0
C5248 C 0.6125 0.83087 0.56003 0.0
C5249 C 0.63324 0.87559 0.56439 0.0
C5250 C 0.65137 0.87056 0.56794 0.0
C5251 C 0.62755 0.89357 0.56581 0.0
C5252 C 0.60892 0.89997 0.56084 0.0
C5253 C 0.59359 0.89215 0.56871 0.0
C5254 C 0.57613 0.89784 0.56335 0.0
C5255 C 0.57381 0.91144 0.55025 0.0
C5256 C 0.58894 0.91946 0.54254 0.0
C5257 C 0.60643 0.9138 0.54782 0.0
H5258 H 0.56029 0.91579 0.5461 0.0
H5259 H 0.73309 0.85791 0.57786 0.0
H5260 H 0.80685 0.91495 0.36838 0.0
H5261 H 0.83443 0.90062 0.35613 0.0
H5262 H 0.83828 0.94249 0.31541 0.0
H5263 H 0.81111 0.95739 0.32818 0.0
H5264 H 0.83729 0.90266 0.30453 0.0
H5265 H 0.86692 0.94629 0.33887 0.0
H5266 H 0.87439 0.96386 0.36574 0.0
H5267 H 0.89376 0.91657 0.39395 0.0
H5268 H 0.88601 0.89862 0.36735 0.0
H5269 H 0.91901 0.89194 0.26023 0.0
H5270 H 0.89694 0.90564 0.28092 0.0
H5271 H 0.90151 0.86014 0.31733 0.0
H5272 H 0.92463 0.84659 0.29695 0.0
H5273 H 0.89863 0.8998 0.3326 0.0
H5274 H 0.86971 0.85712 0.29347 0.0
H5275 H 0.86535 0.84374 0.26336 0.0
H5276 H 0.84663 0.89418 0.24128 0.0
H5277 H 0.85128 0.90796 0.27115 0.0
C5278 C 0.81357 0.92104 0.35676 0.0
C5279 C 0.8068 0.93704 0.34892 0.0
C5280 C 0.82937 0.91298 0.34997 0.0
C5281 C 0.83832 0.92065 0.33505 0.0
C5282 C 0.83153 0.93656 0.32708 0.0
C5283 C 0.81602 0.94493 0.33424 0.0
C5284 C 0.85384 0.91114 0.32677 0.0
C5285 C 0.85069 0.90201 0.31066 0.0
C5286 C 0.8712 0.91035 0.33498 0.0
C5287 C 0.87549 0.92102 0.35122 0.0
C5288 C 0.87242 0.93956 0.35092 0.0
C5289 C 0.87681 0.94961 0.36608 0.0
C5290 C 0.88445 0.94132 0.38159 0.0
C5291 C 0.88776 0.92296 0.38195 0.0
C5292 C 0.88335 0.91283 0.36684 0.0
C5293 C 0.9152 0.88477 0.27256 0.0
C5294 C 0.92289 0.86799 0.2768 0.0
C5295 C 0.90283 0.89269 0.28439 0.0
C5296 C 0.89748 0.88373 0.30031 0.0
C5297 C 0.90556 0.86718 0.30501 0.0
C5298 C 0.91845 0.85939 0.29332 0.0
C5299 C 0.88195 0.89115 0.31052 0.0
C5300 C 0.88507 0.90003 0.32685 0.0
C5301 C 0.86458 0.8921 0.30232 0.0
C5302 C 0.86094 0.8836 0.28456 0.0
C5303 C 0.86475 0.86538 0.28218 0.0
C5304 C 0.86224 0.85773 0.26514 0.0
C5305 C 0.85573 0.86811 0.25041 0.0
C5306 C 0.85162 0.88614 0.25272 0.0
C5307 C 0.85417 0.89388 0.26971 0.0
H5308 H 0.85386 0.86217 0.23721 0.0
H5309 H 0.88788 0.94913 0.39329 0.0
H5310 H 0.81915 0.1805 0.02584 0.0
H5311 H 0.80886 0.1541 0.04233 0.0
H5312 H 0.86435 0.13973 0.05607 0.0
H5313 H 0.87467 0.16614 0.03939 0.0
H5314 H 0.84756 0.11222 0.04228 0.0
H5315 H 0.83388 0.15457 0.08867 0.0
H5316 H 0.82059 0.18138 0.10288 0.0
H5317 H 0.76707 0.16456 0.08985 0.0
H5318 H 0.78 0.13784 0.07531 0.0
H5319 H 0.82162 0.04049 0.10242 0.0
H5320 H 0.83474 0.06694 0.0882 0.0
H5321 H 0.78124 0.08585 0.07194 0.0
H5322 H 0.76811 0.05988 0.08647 0.0
H5323 H 0.79879 0.11105 0.08898 0.0
H5324 H 0.81228 0.07035 0.04041 0.0
H5325 H 0.82498 0.04261 0.02759 0.0
H5326 H 0.87824 0.05601 0.04548 0.0
H5327 H 0.86581 0.08378 0.05857 0.0
C5328 C 0.82911 0.17181 0.03257 0.0
C5329 C 0.84768 0.17529 0.0313 0.0
C5330 C 0.82322 0.15677 0.04207 0.0
C5331 C 0.83582 0.14496 0.05056 0.0
C5332 C 0.85439 0.14865 0.04963 0.0
C5333 C 0.86027 0.16373 0.04013 0.0
C5334 C 0.82971 0.12813 0.05916 0.0
C5335 C 0.83711 0.112 0.05273 0.0
C5336 C 0.81576 0.12779 0.0725 0.0
C5337 C 0.80796 0.14424 0.0807 0.0
C5338 C 0.81929 0.15669 0.08862 0.0
C5339 C 0.8118 0.17187 0.0968 0.0
C5340 C 0.79299 0.1747 0.09725 0.0
C5341 C 0.78162 0.16238 0.08951 0.0
C5342 C 0.78903 0.14722 0.08128 0.0
C5343 C 0.81273 0.0501 0.09545 0.0
C5344 C 0.79384 0.04809 0.09554 0.0
C5345 C 0.82022 0.06523 0.08737 0.0
C5346 C 0.80895 0.07841 0.07905 0.0
C5347 C 0.79019 0.07595 0.07841 0.0
C5348 C 0.78272 0.061 0.0866 0.0
C5349 C 0.81644 0.09526 0.07187 0.0
C5350 C 0.8093 0.11135 0.07859 0.0
C5351 C 0.83054 0.09558 0.05877 0.0
C5352 C 0.83809 0.07907 0.05061 0.0
C5353 C 0.82668 0.06734 0.04169 0.0
C5354 C 0.83384 0.05162 0.03436 0.0
C5355 C 0.8524 0.04753 0.03577 0.0
C5356 C 0.86386 0.0592 0.04442 0.0
C5357 C 0.85677 0.07494 0.05177 0.0
H5358 H 0.85791 0.03534 0.03012 0.0
H5359 H 0.78721 0.18644 0.10361 0.0
H5360 H 0.67716 0.69297 0.95542 0.0
H5361 H 0.69321 0.66572 0.94572 0.0
H5362 H 0.65839 0.66367 0.89853 0.0
H5363 H 0.64285 0.69124 0.9077 0.0
H5364 H 0.66967 0.6282 0.91946 0.0
H5365 H 0.68974 0.68026 0.88567 0.0
H5366 H 0.70169 0.71009 0.88017 0.0
H5367 H 0.74731 0.69712 0.91484 0.0
H5368 H 0.73543 0.66719 0.92073 0.0
H5369 H 0.71587 0.58413 0.84773 0.0
H5370 H 0.6976 0.60395 0.86717 0.0
H5371 H 0.74546 0.61518 0.89845 0.0
H5372 H 0.76376 0.59653 0.87844 0.0
H5373 H 0.72817 0.64372 0.89047 0.0
H5374 H 0.71046 0.58777 0.91674 0.0
H5375 H 0.69925 0.55723 0.91618 0.0
H5376 H 0.64947 0.57649 0.89153 0.0
H5377 H 0.66038 0.60714 0.89195 0.0
C5378 C 0.67285 0.68655 0.94311 0.0
C5379 C 0.65914 0.69424 0.93203 0.0
C5380 C 0.68186 0.67099 0.93771 0.0
C5381 C 0.67683 0.66283 0.92151 0.0
C5382 C 0.66226 0.66981 0.91116 0.0
C5383 C 0.65359 0.68559 0.91628 0.0
C5384 C 0.68854 0.6489 0.91371 0.0
C5385 C 0.68253 0.63143 0.91318 0.0
C5386 C 0.7053 0.65325 0.90576 0.0
C5387 C 0.71145 0.67172 0.90403 0.0
C5388 C 0.70204 0.68394 0.89253 0.0
C5389 C 0.70888 0.70078 0.88921 0.0
C5390 C 0.72518 0.70549 0.89722 0.0
C5391 C 0.73461 0.69346 0.90874 0.0
C5392 C 0.72782 0.67657 0.91211 0.0
C5393 C 0.72243 0.59128 0.85847 0.0
C5394 C 0.74114 0.58919 0.86145 0.0
C5395 C 0.71199 0.60216 0.86982 0.0
C5396 C 0.72013 0.61055 0.88456 0.0
C5397 C 0.73892 0.6087 0.88723 0.0
C5398 C 0.74939 0.5983 0.8756 0.0
C5399 C 0.70952 0.62278 0.89609 0.0
C5400 C 0.71568 0.6401 0.89729 0.0
C5401 C 0.69293 0.61817 0.90446 0.0
C5402 C 0.68627 0.59975 0.90432 0.0
C5403 C 0.69715 0.58548 0.91114 0.0
C5404 C 0.69083 0.56816 0.91089 0.0
C5405 C 0.67367 0.56492 0.90381 0.0
C5406 C 0.66275 0.57902 0.89704 0.0
C5407 C 0.66896 0.59638 0.89735 0.0
H5408 H 0.66882 0.5515 0.90358 0.0
H5409 H 0.73052 0.71841 0.89427 0.0
H5410 H 0.22023 0.9016 0.12302 0.0
H5411 H 0.21525 0.87397 0.10689 0.0
H5412 H 0.20293 0.90409 0.05753 0.0
H5413 H 0.20777 0.93175 0.07356 0.0
H5414 H 0.17626 0.8819 0.06963 0.0
H5415 H 0.2425 0.87333 0.05443 0.0
H5416 H 0.27526 0.86867 0.06096 0.0
H5417 H 0.26304 0.831 0.10349 0.0
H5418 H 0.23034 0.83479 0.09677 0.0
H5419 H 0.15128 0.81029 0.01868 0.0
H5420 H 0.16707 0.83651 0.02818 0.0
H5421 H 0.1939 0.80556 0.07104 0.0
H5422 H 0.17919 0.77893 0.06046 0.0
H5423 H 0.21582 0.82842 0.06074 0.0
H5424 H 0.15464 0.834 0.08034 0.0
H5425 H 0.12131 0.83518 0.07997 0.0
H5426 H 0.12175 0.87664 0.03883 0.0
H5427 H 0.15525 0.876 0.03941 0.0
C5428 C 0.21624 0.90231 0.10877 0.0
C5429 C 0.21398 0.9188 0.09961 0.0
C5430 C 0.21391 0.88652 0.09948 0.0
C5431 C 0.20929 0.88701 0.0809 0.0
C5432 C 0.20687 0.90348 0.07179 0.0
C5433 C 0.20919 0.91925 0.08106 0.0
C5434 C 0.20337 0.87078 0.07203 0.0
C5435 C 0.18504 0.87035 0.06722 0.0
C5436 C 0.21458 0.85537 0.07006 0.0
C5437 C 0.23398 0.8546 0.07533 0.0
C5438 C 0.24679 0.8643 0.06538 0.0
C5439 C 0.26534 0.86173 0.06902 0.0
C5440 C 0.27118 0.84983 0.0828 0.0
C5441 C 0.2585 0.84032 0.09291 0.0
C5442 C 0.23999 0.84258 0.08912 0.0
C5443 C 0.16089 0.80902 0.02982 0.0
C5444 C 0.16403 0.79268 0.03887 0.0
C5445 C 0.16975 0.82405 0.03541 0.0
C5446 C 0.18129 0.82317 0.05068 0.0
C5447 C 0.18502 0.80663 0.05927 0.0
C5448 C 0.17658 0.79144 0.05327 0.0
C5449 C 0.18866 0.83964 0.05816 0.0
C5450 C 0.20713 0.84008 0.06279 0.0
C5451 C 0.17742 0.85489 0.06093 0.0
C5452 C 0.1574 0.85465 0.05961 0.0
C5453 C 0.14762 0.84318 0.07103 0.0
C5454 C 0.12867 0.84386 0.07087 0.0
C5455 C 0.11934 0.85584 0.05921 0.0
C5456 C 0.12898 0.86729 0.04778 0.0
C5457 C 0.14795 0.86683 0.04807 0.0
H5458 H 0.10465 0.85634 0.05911 0.0
H5459 H 0.28554 0.84785 0.08552 0.0
H5460 H 0.85452 0.48892 0.86975 0.0
H5461 H 0.88169 0.48323 0.85124 0.0
H5462 H 0.8485 0.4631 0.80828 0.0
H5463 H 0.82128 0.46868 0.8266 0.0
H5464 H 0.87512 0.44012 0.83094 0.0
H5465 H 0.86775 0.49492 0.79544 0.0
H5466 H 0.86689 0.52713 0.78867 0.0
H5467 H 0.92116 0.53105 0.80903 0.0
H5468 H 0.92227 0.49897 0.81625 0.0
H5469 H 0.93584 0.40155 0.77065 0.0
H5470 H 0.91155 0.42287 0.77884 0.0
H5471 H 0.9482 0.4488 0.815 0.0
H5472 H 0.97233 0.4271 0.80724 0.0
H5473 H 0.92129 0.47215 0.7948 0.0
H5474 H 0.92843 0.42098 0.83419 0.0
H5475 H 0.93073 0.38966 0.84444 0.0
H5476 H 0.87824 0.38045 0.82175 0.0
H5477 H 0.87589 0.41159 0.81079 0.0
C5478 C 0.85304 0.48313 0.85641 0.0
C5479 C 0.83586 0.47882 0.84974 0.0
C5480 C 0.86847 0.48051 0.84566 0.0
C5481 C 0.86688 0.47348 0.8282 0.0
C5482 C 0.84978 0.46917 0.82152 0.0
C5483 C 0.83438 0.47178 0.83222 0.0
C5484 C 0.88288 0.46538 0.81965 0.0
C5485 C 0.88506 0.44708 0.82273 0.0
C5486 C 0.89618 0.4749 0.80991 0.0
C5487 C 0.89495 0.49447 0.80671 0.0
C5488 C 0.87936 0.50267 0.79886 0.0
C5489 C 0.87888 0.52092 0.79482 0.0
C5490 C 0.89392 0.53114 0.79849 0.0
C5491 C 0.90947 0.52315 0.80628 0.0
C5492 C 0.91003 0.50493 0.81034 0.0
C5493 C 0.9387 0.41205 0.78001 0.0
C5494 C 0.95554 0.41271 0.78867 0.0
C5495 C 0.92498 0.42421 0.78457 0.0
C5496 C 0.92826 0.4372 0.79752 0.0
C5497 C 0.94561 0.43882 0.80494 0.0
C5498 C 0.95919 0.42638 0.80072 0.0
C5499 C 0.91296 0.4469 0.80564 0.0
C5500 C 0.91114 0.46532 0.80281 0.0
C5501 C 0.90007 0.43771 0.81613 0.0
C5502 C 0.90218 0.41857 0.82128 0.0
C5503 C 0.9176 0.41218 0.8309 0.0
C5504 C 0.91886 0.39448 0.83696 0.0
C5505 C 0.90466 0.38308 0.83372 0.0
C5506 C 0.88927 0.38928 0.82419 0.0
C5507 C 0.888 0.40694 0.81798 0.0
H5508 H 0.9055 0.3695 0.83878 0.0
H5509 H 0.89355 0.54523 0.79523 0.0
H5510 H 0.37521 0.18184 0.55191 0.0
H5511 H 0.35803 0.156 0.56224 0.0
H5512 H 0.31685 0.16874 0.52183 0.0
H5513 H 0.33365 0.19456 0.51172 0.0
H5514 H 0.30705 0.16804 0.5596 0.0
H5515 H 0.34283 0.13786 0.51569 0.0
H5516 H 0.37045 0.12617 0.50099 0.0
H5517 H 0.37859 0.08852 0.5451 0.0
H5518 H 0.35181 0.10076 0.56089 0.0
H5519 H 0.24891 0.10146 0.58888 0.0
H5520 H 0.26698 0.11964 0.56836 0.0
H5521 H 0.31563 0.10295 0.59753 0.0
H5522 H 0.29761 0.08399 0.61771 0.0
H5523 H 0.32026 0.10315 0.56002 0.0
H5524 H 0.2946 0.14126 0.6069 0.0
H5525 H 0.27011 0.15548 0.62495 0.0
H5526 H 0.24639 0.17791 0.57588 0.0
H5527 H 0.27052 0.16348 0.55747 0.0
C5528 C 0.36227 0.17927 0.54563 0.0
C5529 C 0.35532 0.19023 0.53149 0.0
C5530 C 0.35288 0.16431 0.55107 0.0
C5531 C 0.33662 0.16042 0.54232 0.0
C5532 C 0.32964 0.1715 0.52834 0.0
C5533 C 0.33896 0.18634 0.52294 0.0
C5534 C 0.32498 0.14706 0.55009 0.0
C5535 C 0.30982 0.1538 0.55945 0.0
C5536 C 0.32917 0.1286 0.5499 0.0
C5537 C 0.34529 0.12083 0.53997 0.0
C5538 C 0.35075 0.12758 0.52275 0.0
C5539 C 0.36635 0.12077 0.51413 0.0
C5540 C 0.37639 0.10674 0.5222 0.0
C5541 C 0.37082 0.09944 0.53887 0.0
C5542 C 0.35541 0.10638 0.54769 0.0
C5543 C 0.26342 0.10192 0.59112 0.0
C5544 C 0.27199 0.09163 0.60492 0.0
C5545 C 0.2737 0.11205 0.57925 0.0
C5546 C 0.29253 0.11244 0.58149 0.0
C5547 C 0.30108 0.10252 0.59556 0.0
C5548 C 0.29083 0.09205 0.60723 0.0
C5549 C 0.30313 0.12439 0.57012 0.0
C5550 C 0.31778 0.1174 0.55995 0.0
C5551 C 0.29899 0.14276 0.56976 0.0
C5552 C 0.28421 0.15106 0.5808 0.0
C5553 C 0.28402 0.14902 0.59994 0.0
C5554 C 0.27022 0.15714 0.61023 0.0
C5555 C 0.25665 0.16751 0.60155 0.0
C5556 C 0.25685 0.16978 0.58256 0.0
C5557 C 0.27056 0.16162 0.57219 0.0
H5558 H 0.24602 0.17385 0.60954 0.0
H5559 H 0.38837 0.10141 0.51544 0.0
H5560 H 0.02961 0.08098 0.80664 0.0
H5561 H 0.05754 0.06798 0.81969 0.0
H5562 H 0.08678 0.11389 0.80132 0.0
H5563 H 0.05888 0.12644 0.78741 0.0
H5564 H 0.10538 0.08553 0.79414 0.0
H5565 H 0.07603 0.10474 0.8516 0.0
H5566 H 0.05203 0.1062 0.87524 0.0
H5567 H 0.05006 0.04936 0.87692 0.0
H5568 H 0.07435 0.04749 0.85375 0.0
H5569 H 0.18291 0.0562 0.84932 0.0
H5570 H 0.15753 0.07363 0.83569 0.0
H5571 H 0.12295 0.02875 0.84264 0.0
H5572 H 0.14823 0.01128 0.85603 0.0
H5573 H 0.1087 0.05983 0.85694 0.0
H5574 H 0.13357 0.0383 0.80141 0.0
H5575 H 0.15387 0.0323 0.77539 0.0
H5576 H 0.16158 0.08808 0.76736 0.0
H5577 H 0.14098 0.09454 0.79321 0.0
C5578 C 0.04207 0.08819 0.80534 0.0
C5579 C 0.04229 0.10453 0.7959 0.0
C5580 C 0.05795 0.08093 0.81305 0.0
C5581 C 0.07419 0.0902 0.81202 0.0
C5582 C 0.07439 0.10655 0.80243 0.0
C5583 C 0.05855 0.11363 0.79432 0.0
C5584 C 0.09118 0.08217 0.8197 0.0
C5585 C 0.10629 0.08037 0.80807 0.0
C5586 C 0.09211 0.07471 0.8376 0.0
C5587 C 0.07687 0.076 0.85083 0.0
C5588 C 0.07035 0.09258 0.85689 0.0
C5589 C 0.05675 0.09347 0.87025 0.0
C5590 C 0.0494 0.07793 0.8774 0.0
C5591 C 0.05572 0.06141 0.87134 0.0
C5592 C 0.06947 0.06041 0.8582 0.0
C5593 C 0.16986 0.05011 0.84794 0.0
C5594 C 0.16739 0.0325 0.85389 0.0
C5595 C 0.15548 0.05999 0.84 0.0
C5596 C 0.13846 0.0524 0.83809 0.0
C5597 C 0.13604 0.0348 0.84398 0.0
C5598 C 0.15042 0.02488 0.85172 0.0
C5599 C 0.1227 0.0631 0.83133 0.0
C5600 C 0.10793 0.06546 0.84319 0.0
C5601 C 0.12193 0.07064 0.81352 0.0
C5602 C 0.13604 0.06688 0.79953 0.0
C5603 C 0.13996 0.04928 0.79444 0.0
C5604 C 0.15145 0.04579 0.77966 0.0
C5605 C 0.15922 0.05974 0.76991 0.0
C5606 C 0.15563 0.07727 0.77501 0.0
C5607 C 0.14401 0.08087 0.7897 0.0
H5608 H 0.16775 0.05691 0.75823 0.0
H5609 H 0.03888 0.07868 0.88772 0.0
H5610 H 0.79608 0.44373 0.40092 0.0
H5611 H 0.80237 0.41352 0.41301 0.0
H5612 H 0.77851 0.39162 0.36497 0.0
H5613 H 0.77281 0.42159 0.35252 0.0
H5614 H 0.769 0.37519 0.40461 0.0
H5615 H 0.81608 0.38687 0.35999 0.0
H5616 H 0.8374 0.40749 0.34548 0.0
H5617 H 0.86491 0.41278 0.3967 0.0
H5618 H 0.84349 0.39243 0.41158 0.0
H5619 H 0.82409 0.29028 0.41841 0.0
H5620 H 0.80651 0.31504 0.40402 0.0
H5621 H 0.82521 0.35025 0.44526 0.0
H5622 H 0.84242 0.32592 0.45979 0.0
H5623 H 0.83435 0.35718 0.40467 0.0
H5624 H 0.78549 0.34621 0.44914 0.0
H5625 H 0.76322 0.32639 0.46341 0.0
H5626 H 0.73903 0.31824 0.411 0.0
H5627 H 0.76123 0.33797 0.39642 0.0
C5628 C 0.79252 0.43247 0.39282 0.0
C5629 C 0.78438 0.43503 0.37562 0.0
C5630 C 0.79573 0.41528 0.39987 0.0
C5631 C 0.79052 0.40043 0.39 0.0
C5632 C 0.78232 0.40293 0.3729 0.0
C5633 C 0.77948 0.42007 0.36566 0.0
C5634 C 0.79603 0.38239 0.39652 0.0
C5635 C 0.78321 0.37105 0.40439 0.0
C5636 C 0.81449 0.377 0.39601 0.0
C5637 C 0.82817 0.38821 0.3869 0.0
C5638 C 0.82668 0.39245 0.36815 0.0
C5639 C 0.83874 0.40411 0.35987 0.0
C5640 C 0.85248 0.41146 0.37017 0.0
C5641 C 0.85425 0.40707 0.38874 0.0
C5642 C 0.84217 0.39545 0.3971 0.0
C5643 C 0.82414 0.30322 0.4246 0.0
C5644 C 0.83491 0.30616 0.44006 0.0
C5645 C 0.81405 0.3173 0.41642 0.0
C5646 C 0.81473 0.33442 0.42357 0.0
C5647 C 0.82456 0.3371 0.43958 0.0
C5648 C 0.83443 0.32312 0.44783 0.0
C5649 C 0.80748 0.35009 0.41329 0.0
C5650 C 0.82005 0.36105 0.40459 0.0
C5651 C 0.78879 0.35486 0.41286 0.0
C5652 C 0.7751 0.34346 0.42168 0.0
C5653 C 0.77546 0.34014 0.44065 0.0
C5654 C 0.76284 0.32894 0.4488 0.0
C5655 C 0.74975 0.32102 0.43811 0.0
C5656 C 0.74918 0.32438 0.41926 0.0
C5657 C 0.76175 0.33561 0.41106 0.0
H5658 H 0.74004 0.31231 0.44443 0.0
H5659 H 0.86177 0.42055 0.36376 0.0
H5660 H 0.92757 0.59882 0.66351 0.0
H5661 H 0.89901 0.58679 0.65373 0.0
H5662 H 0.91419 0.53604 0.67822 0.0
H5663 H 0.9429 0.54832 0.68883 0.0
H5664 H 0.90629 0.54881 0.63269 0.0
H5665 H 0.88473 0.53692 0.69439 0.0
H5666 H 0.87425 0.54153 0.72599 0.0
H5667 H 0.83564 0.58144 0.70707 0.0
H5668 H 0.84615 0.57731 0.67536 0.0
H5669 H 0.83789 0.49231 0.60824 0.0
H5670 H 0.86172 0.50809 0.62341 0.0
H5671 H 0.82859 0.55628 0.62182 0.0
H5672 H 0.80424 0.54031 0.60693 0.0
H5673 H 0.84358 0.54643 0.65716 0.0
H5674 H 0.86334 0.5553 0.595 0.0
H5675 H 0.86841 0.54383 0.564 0.0
H5676 H 0.90824 0.50608 0.58501 0.0
H5677 H 0.90324 0.51719 0.61617 0.0
C5678 C 0.92487 0.58509 0.66692 0.0
C5679 C 0.9375 0.57436 0.67673 0.0
C5680 C 0.90836 0.5784 0.66168 0.0
C5681 C 0.90426 0.5608 0.66591 0.0
C5682 C 0.91687 0.54991 0.67557 0.0
C5683 C 0.93334 0.55677 0.68124 0.0
C5684 C 0.88911 0.55312 0.65619 0.0
C5685 C 0.89261 0.54813 0.63812 0.0
C5686 C 0.87122 0.55288 0.66322 0.0
C5687 C 0.8666 0.55711 0.68247 0.0
C5688 C 0.8744 0.54705 0.69698 0.0
C5689 C 0.86826 0.54941 0.71491 0.0
C5690 C 0.85428 0.56176 0.71853 0.0
C5691 C 0.84647 0.57186 0.70425 0.0
C5692 C 0.85257 0.56958 0.6863 0.0
C5693 C 0.83585 0.50638 0.61063 0.0
C5694 C 0.81933 0.51516 0.60649 0.0
C5695 C 0.84939 0.51532 0.61942 0.0
C5696 C 0.84675 0.53325 0.62375 0.0
C5697 C 0.83067 0.54238 0.61867 0.0
C5698 C 0.81698 0.53335 0.60997 0.0
C5699 C 0.86094 0.54206 0.63389 0.0
C5700 C 0.85726 0.54743 0.65179 0.0
C5701 C 0.8787 0.54266 0.62685 0.0
C5702 C 0.88295 0.5371 0.60791 0.0
C5703 C 0.87326 0.54463 0.59298 0.0
C5704 C 0.87607 0.53814 0.5754 0.0
C5705 C 0.88864 0.52423 0.57254 0.0
C5706 C 0.89854 0.51689 0.58724 0.0
C5707 C 0.89578 0.52331 0.60486 0.0
H5708 H 0.8907 0.51914 0.55894 0.0
H5709 H 0.84952 0.56352 0.7324 0.0
H5710 H 0.65905 0.4988 0.10626 0.0
H5711 H 0.63074 0.49342 0.12251 0.0
H5712 H 0.66084 0.46772 0.16654 0.0
H5713 H 0.68938 0.4733 0.15047 0.0
H5714 H 0.63724 0.44707 0.14391 0.0
H5715 H 0.63607 0.49852 0.18193 0.0
H5716 H 0.63471 0.52958 0.19196 0.0
H5717 H 0.58856 0.54046 0.15742 0.0
H5718 H 0.58926 0.50925 0.14764 0.0
H5719 H 0.57915 0.42013 0.21252 0.0
H5720 H 0.6015 0.43523 0.19397 0.0
H5721 H 0.55943 0.45435 0.15707 0.0
H5722 H 0.53666 0.43864 0.17556 0.0
H5723 H 0.58538 0.48053 0.1711 0.0
H5724 H 0.58566 0.42615 0.13785 0.0
H5725 H 0.58786 0.39438 0.13033 0.0
H5726 H 0.63829 0.38888 0.15945 0.0
H5727 H 0.63652 0.42064 0.16694 0.0
C5728 C 0.65964 0.49198 0.11942 0.0
C5729 C 0.67632 0.48589 0.12689 0.0
C5730 C 0.64351 0.48942 0.12888 0.0
C5731 C 0.64382 0.48058 0.14583 0.0
C5732 C 0.66048 0.47494 0.15359 0.0
C5733 C 0.67666 0.47762 0.1442 0.0
C5734 C 0.62713 0.47263 0.15253 0.0
C5735 C 0.626 0.45434 0.1502 0.0
C5736 C 0.6122 0.48245 0.15964 0.0
C5737 C 0.61299 0.50163 0.16373 0.0
C5738 C 0.62587 0.50762 0.17617 0.0
C5739 C 0.62509 0.52521 0.18196 0.0
C5740 C 0.61168 0.53705 0.17519 0.0
C5741 C 0.59898 0.5313 0.16262 0.0
C5742 C 0.59951 0.51363 0.15701 0.0
C5743 C 0.57454 0.42764 0.20055 0.0
C5744 C 0.55617 0.42833 0.19547 0.0
C5745 C 0.58738 0.43607 0.18986 0.0
C5746 C 0.58207 0.44555 0.17406 0.0
C5747 C 0.56369 0.4468 0.16914 0.0
C5748 C 0.55077 0.43796 0.17969 0.0
C5749 C 0.59604 0.4548 0.16357 0.0
C5750 C 0.5966 0.47334 0.16479 0.0
C5751 C 0.61077 0.44521 0.15581 0.0
C5752 C 0.61081 0.42574 0.15314 0.0
C5753 C 0.59705 0.4181 0.14292 0.0
C5754 C 0.59834 0.40014 0.13849 0.0
C5755 C 0.61318 0.38961 0.14445 0.0
C5756 C 0.62678 0.39702 0.15487 0.0
C5757 C 0.62567 0.41502 0.15915 0.0
H5758 H 0.61413 0.3757 0.14101 0.0
H5759 H 0.61112 0.55066 0.1797 0.0
H5760 H 0.6364 0.75255 0.8902 0.0
H5761 H 0.61715 0.75596 0.86321 0.0
H5762 H 0.591 0.80226 0.88672 0.0
H5763 H 0.60941 0.79809 0.91432 0.0
H5764 H 0.56687 0.7794 0.87534 0.0
H5765 H 0.62477 0.80241 0.85237 0.0
H5766 H 0.65714 0.79758 0.84487 0.0
H5767 H 0.64342 0.75716 0.80711 0.0
H5768 H 0.61095 0.76146 0.81474 0.0
H5769 H 0.54776 0.85457 0.82686 0.0
H5770 H 0.5593 0.82875 0.84388 0.0
H5771 H 0.55413 0.79657 0.79602 0.0
H5772 H 0.54246 0.82295 0.77863 0.0
H5773 H 0.58858 0.79469 0.81305 0.0
H5774 H 0.52661 0.79111 0.83139 0.0
H5775 H 0.49692 0.80231 0.84254 0.0
H5776 H 0.52111 0.81629 0.89339 0.0
H5777 H 0.5509 0.80573 0.88251 0.0
C5778 C 0.62695 0.76382 0.88931 0.0
C5779 C 0.62447 0.77532 0.90412 0.0
C5780 C 0.61582 0.76556 0.874 0.0
C5781 C 0.60256 0.7792 0.8731 0.0
C5782 C 0.60101 0.79144 0.88735 0.0
C5783 C 0.61173 0.78936 0.90289 0.0
C5784 C 0.58996 0.78103 0.85756 0.0
C5785 C 0.57145 0.78279 0.86165 0.0
C5786 C 0.59605 0.78407 0.83949 0.0
C5787 C 0.61547 0.78206 0.83433 0.0
C5788 C 0.62866 0.79243 0.84254 0.0
C5789 C 0.64703 0.78976 0.83829 0.0
C5790 C 0.65234 0.77701 0.82558 0.0
C5791 C 0.63928 0.76697 0.81701 0.0
C5792 C 0.6209 0.76949 0.82132 0.0
C5793 C 0.54894 0.84196 0.81999 0.0
C5794 C 0.54444 0.84059 0.80152 0.0
C5795 C 0.55531 0.82719 0.82976 0.0
C5796 C 0.55716 0.81071 0.82129 0.0
C5797 C 0.55247 0.80917 0.8028 0.0
C5798 C 0.54589 0.82412 0.79294 0.0
C5799 C 0.56592 0.79599 0.83174 0.0
C5800 C 0.58365 0.7909 0.8265 0.0
C5801 C 0.55939 0.7912 0.84934 0.0
C5802 C 0.54111 0.7972 0.85612 0.0
C5803 C 0.52561 0.79645 0.84498 0.0
C5804 C 0.50874 0.80281 0.85126 0.0
C5805 C 0.50713 0.8099 0.86871 0.0
C5806 C 0.52235 0.81068 0.87992 0.0
C5807 C 0.53924 0.80446 0.87369 0.0
H5808 H 0.49417 0.81492 0.8736 0.0
H5809 H 0.66657 0.77495 0.82233 0.0
H5810 H 0.41723 0.30886 0.04608 0.0
H5811 H 0.43392 0.327 0.06764 0.0
H5812 H 0.40496 0.30329 0.11269 0.0
H5813 H 0.389 0.2845 0.09134 0.0
H5814 H 0.40649 0.34359 0.11081 0.0
H5815 H 0.44187 0.28976 0.11306 0.0
H5816 H 0.45848 0.26393 0.10037 0.0
H5817 H 0.49618 0.29857 0.07416 0.0
H5818 H 0.47956 0.32471 0.08644 0.0
H5819 H 0.45569 0.37151 0.18647 0.0
H5820 H 0.44027 0.3542 0.16386 0.0
H5821 H 0.47926 0.36974 0.12295 0.0
H5822 H 0.49549 0.38648 0.14606 0.0
H5823 H 0.47253 0.33412 0.12207 0.0
H5824 H 0.43573 0.38862 0.123 0.0
H5825 H 0.42027 0.41217 0.14069 0.0
H5826 H 0.38548 0.37369 0.16527 0.0
H5827 H 0.40083 0.34988 0.1478 0.0
C5828 C 0.41465 0.3074 0.06059 0.0
C5829 C 0.40206 0.29519 0.06711 0.0
C5830 C 0.42407 0.31778 0.07285 0.0
C5831 C 0.42056 0.3165 0.09169 0.0
C5832 C 0.40782 0.30446 0.09819 0.0
C5833 C 0.39887 0.29366 0.08602 0.0
C5834 C 0.43038 0.32762 0.10461 0.0
C5835 C 0.4209 0.34151 0.11332 0.0
C5836 C 0.44915 0.32482 0.10786 0.0
C5837 C 0.45928 0.30922 0.10042 0.0
C5838 C 0.45356 0.29191 0.10438 0.0
C5839 C 0.463 0.27721 0.09732 0.0
C5840 C 0.47831 0.27962 0.0864 0.0
C5841 C 0.48426 0.29675 0.08257 0.0
C5842 C 0.47483 0.31151 0.08959 0.0
C5843 C 0.46084 0.37151 0.1726 0.0
C5844 C 0.47665 0.38048 0.16792 0.0
C5845 C 0.45201 0.36157 0.15968 0.0
C5846 C 0.45844 0.36088 0.14164 0.0
C5847 C 0.47407 0.37014 0.1368 0.0
C5848 C 0.48317 0.37984 0.1499 0.0
C5849 C 0.44875 0.35034 0.12802 0.0
C5850 C 0.4582 0.33645 0.11926 0.0
C5851 C 0.42988 0.35295 0.12498 0.0
C5852 C 0.41938 0.36747 0.13403 0.0
C5853 C 0.42466 0.38521 0.13204 0.0
C5854 C 0.41597 0.39859 0.14209 0.0
C5855 C 0.40189 0.39442 0.15409 0.0
C5856 C 0.39635 0.3769 0.15592 0.0
C5857 C 0.40498 0.36346 0.14588 0.0
H5858 H 0.39529 0.40477 0.16198 0.0
H5859 H 0.4856 0.26822 0.08098 0.0
H5860 H 0.85367 0.21907 0.39121 0.0
H5861 H 0.86562 0.19424 0.37269 0.0
H5862 H 0.91923 0.20192 0.3944 0.0
H5863 H 0.90773 0.22681 0.41185 0.0
H5864 H 0.91846 0.20425 0.35837 0.0
H5865 H 0.89687 0.16504 0.40546 0.0
H5866 H 0.87399 0.15264 0.42634 0.0
H5867 H 0.84234 0.13697 0.38048 0.0
H5868 H 0.86493 0.14946 0.3593 0.0
H5869 H 0.9639 0.14019 0.30656 0.0
H5870 H 0.95244 0.15531 0.33361 0.0
H5871 H 0.89756 0.14377 0.31803 0.0
H5872 H 0.90918 0.12727 0.29186 0.0
H5873 H 0.89992 0.1418 0.35328 0.0
H5874 H 0.91858 0.18529 0.30702 0.0
H5875 H 0.9394 0.20087 0.28615 0.0
H5876 H 0.9753 0.2102 0.33087 0.0
H5877 H 0.95468 0.19468 0.35202 0.0
C5878 C 0.86797 0.21535 0.39184 0.0
C5879 C 0.87996 0.22507 0.40228 0.0
C5880 C 0.8747 0.20111 0.38159 0.0
C5881 C 0.89328 0.19636 0.38229 0.0
C5882 C 0.90489 0.2055 0.39362 0.0
C5883 C 0.89834 0.21985 0.40335 0.0
C5884 C 0.90142 0.18384 0.36931 0.0
C5885 C 0.91464 0.19048 0.35747 0.0
C5886 C 0.89604 0.16609 0.36802 0.0
C5887 C 0.88254 0.15835 0.38077 0.0
C5888 C 0.88497 0.15907 0.39981 0.0
C5889 C 0.87207 0.152 0.41171 0.0
C5890 C 0.8567 0.14407 0.40474 0.0
C5891 C 0.85425 0.14313 0.38586 0.0
C5892 C 0.86712 0.15018 0.3739 0.0
C5893 C 0.94945 0.14054 0.30919 0.0
C5894 C 0.9374 0.13258 0.29728 0.0
C5895 C 0.94289 0.14932 0.32451 0.0
C5896 C 0.92412 0.15094 0.32761 0.0
C5897 C 0.9121 0.14264 0.31589 0.0
C5898 C 0.91871 0.1334 0.30088 0.0
C5899 C 0.9169 0.16231 0.34225 0.0
C5900 C 0.90387 0.1555 0.35438 0.0
C5901 C 0.92238 0.18005 0.34388 0.0
C5902 C 0.9352 0.18863 0.33103 0.0
C5903 C 0.93102 0.19049 0.31235 0.0
C5904 C 0.94275 0.19936 0.30049 0.0
C5905 C 0.9587 0.20644 0.30716 0.0
C5906 C 0.96297 0.20466 0.32572 0.0
C5907 C 0.95125 0.19586 0.33765 0.0
H5908 H 0.96769 0.21339 0.29798 0.0
H5909 H 0.84671 0.13863 0.41397 0.0
H5910 H 0.11443 0.69495 0.5783 0.0
H5911 H 0.09746 0.68318 0.60432 0.0
H5912 H 0.04712 0.70019 0.57885 0.0
H5913 H 0.06402 0.71164 0.55224 0.0
H5914 H 0.05708 0.70376 0.62381 0.0
H5915 H 0.04887 0.66614 0.57085 0.0
H5916 H 0.05917 0.64932 0.54403 0.0
H5917 H 0.09582 0.61801 0.57788 0.0
H5918 H 0.08621 0.63513 0.60482 0.0
H5919 H 0.99414 0.64325 0.6623 0.0
H5920 H 0.0114 0.66165 0.64103 0.0
H5921 H 0.06131 0.63654 0.66039 0.0
H5922 H 0.04398 0.61869 0.68258 0.0
H5923 H 0.05257 0.6383 0.6199 0.0
H5924 H 0.05804 0.67238 0.67332 0.0
H5925 H 0.04922 0.68904 0.70073 0.0
H5926 H 0.0185 0.72659 0.66757 0.0
H5927 H 0.02667 0.70988 0.63995 0.0
C5928 C 0.09976 0.69635 0.57835 0.0
C5929 C 0.09034 0.70379 0.56333 0.0
C5930 C 0.0902 0.68974 0.59317 0.0
C5931 C 0.07127 0.69077 0.59322 0.0
C5932 C 0.06182 0.69932 0.57882 0.0
C5933 C 0.07137 0.7056 0.56368 0.0
C5934 C 0.06169 0.68075 0.60725 0.0
C5935 C 0.05563 0.68951 0.62293 0.0
C5936 C 0.06084 0.66211 0.60613 0.0
C5937 C 0.06712 0.65223 0.58979 0.0
C5938 C 0.05945 0.65599 0.57252 0.0
C5939 C 0.0651 0.64633 0.5573 0.0
C5940 C 0.07822 0.63267 0.55923 0.0
C5941 C 0.08574 0.62867 0.57638 0.0
C5942 C 0.08024 0.63839 0.59162 0.0
C5943 C 0.00877 0.64138 0.66164 0.0
C5944 C 0.01788 0.62938 0.67352 0.0
C5945 C 0.01856 0.65211 0.64987 0.0
C5946 C 0.0375 0.65062 0.64964 0.0
C5947 C 0.04664 0.63796 0.66081 0.0
C5948 C 0.03683 0.6276 0.67309 0.0
C5949 C 0.04743 0.66127 0.63638 0.0
C5950 C 0.05378 0.65258 0.62084 0.0
C5951 C 0.04845 0.67994 0.63773 0.0
C5952 C 0.04275 0.68962 0.65449 0.0
C5953 C 0.04908 0.68395 0.67185 0.0
C5954 C 0.04427 0.69347 0.68744 0.0
C5955 C 0.03326 0.70883 0.6859 0.0
C5956 C 0.02698 0.71465 0.66875 0.0
C5957 C 0.03168 0.70513 0.65311 0.0
H5958 H 0.02969 0.71625 0.69796 0.0
H5959 H 0.08248 0.62512 0.54745 0.0
H5960 H 0.52075 0.1619 0.68112 0.0
H5961 H 0.53671 0.17697 0.65646 0.0
H5962 H 0.58801 0.16241 0.68158 0.0
H5963 H 0.57207 0.14735 0.70663 0.0
H5964 H 0.5881 0.1961 0.66713 0.0
H5965 H 0.5691 0.13878 0.64804 0.0
H5966 H 0.54726 0.11553 0.6417 0.0
H5967 H 0.52092 0.14953 0.60151 0.0
H5968 H 0.54255 0.17298 0.60766 0.0
H5969 H 0.64118 0.20989 0.58516 0.0
H5970 H 0.62727 0.1986 0.61345 0.0
H5971 H 0.57416 0.20723 0.58964 0.0
H5972 H 0.58799 0.21798 0.56134 0.0
H5973 H 0.57631 0.17601 0.60426 0.0
H5974 H 0.59149 0.23409 0.62502 0.0
H5975 H 0.6102 0.25939 0.63318 0.0
H5976 H 0.64191 0.22561 0.6695 0.0
H5977 H 0.62348 0.20008 0.66148 0.0
C5978 C 0.53544 0.16198 0.68159 0.0
C5979 C 0.54513 0.15319 0.69585 0.0
C5980 C 0.54455 0.17062 0.66738 0.0
C5981 C 0.56359 0.17054 0.66692 0.0
C5982 C 0.57331 0.16254 0.68156 0.0
C5983 C 0.56418 0.15389 0.69586 0.0
C5984 C 0.57328 0.17806 0.65076 0.0
C5985 C 0.58572 0.19157 0.65338 0.0
C5986 C 0.56983 0.17241 0.63273 0.0
C5987 C 0.55714 0.15795 0.62875 0.0
C5988 C 0.55852 0.14143 0.63803 0.0
C5989 C 0.54622 0.12815 0.6344 0.0
C5990 C 0.5326 0.13111 0.62133 0.0
C5991 C 0.53137 0.14729 0.61174 0.0
C5992 C 0.54364 0.16059 0.61532 0.0
C5993 C 0.62654 0.20916 0.58594 0.0
C5994 C 0.61569 0.21448 0.5709 0.0
C5995 C 0.61859 0.20298 0.60223 0.0
C5996 C 0.59961 0.20219 0.60384 0.0
C5997 C 0.58882 0.20762 0.58879 0.0
C5998 C 0.59675 0.21362 0.57252 0.0
C5999 C 0.59086 0.1944 0.62048 0.0
C6000 C 0.5787 0.18064 0.61798 0.0
C6001 C 0.59442 0.19998 0.63852 0.0
C6002 C 0.60625 0.21509 0.64242 0.0
C6003 C 0.60263 0.23198 0.63452 0.0
C6004 C 0.61313 0.2464 0.6392 0.0
C6005 C 0.62727 0.2441 0.6518 0.0
C6006 C 0.63098 0.22737 0.65971 0.0
C6007 C 0.62051 0.21293 0.65511 0.0
H6008 H 0.63532 0.25528 0.65546 0.0
H6009 H 0.52309 0.12082 0.61856 0.0
H6010 H 0.01334 0.38319 0.83998 0.0
H6011 H 0.01994 0.37007 0.8698 0.0
H6012 H 0.05319 0.32919 0.84471 0.0
H6013 H 0.04551 0.34182 0.81432 0.0
H6014 H 0.03213 0.31542 0.87099 0.0
H6015 H 0.07008 0.36911 0.86832 0.0
H6016 H 0.07139 0.4016 0.86364 0.0
H6017 H 0.0331 0.40958 0.90721 0.0
H6018 H 0.03147 0.37717 0.91205 0.0
H6019 H 0.08462 0.2827 0.94647 0.0
H6020 H 0.07171 0.29464 0.9178 0.0
H6021 H 0.04454 0.33674 0.94738 0.0
H6022 H 0.058 0.3252 0.97589 0.0
H6023 H 0.0588 0.35091 0.92 0.0
H6024 H 0.02338 0.3016 0.92834 0.0
H6025 H 0.01316 0.27111 0.93335 0.0
H6026 H 0.03469 0.25618 0.88117 0.0
H6027 H 0.04621 0.28624 0.87629 0.0
C6028 C 0.02233 0.37157 0.84073 0.0
C6029 C 0.02919 0.36373 0.82475 0.0
C6030 C 0.0261 0.36404 0.85791 0.0
C6031 C 0.03742 0.34881 0.85971 0.0
C6032 C 0.04449 0.34101 0.84375 0.0
C6033 C 0.04031 0.34833 0.8264 0.0
C6034 C 0.04176 0.34098 0.87817 0.0
C6035 C 0.03841 0.32296 0.88162 0.0
C6036 C 0.04847 0.35128 0.89255 0.0
C6037 C 0.05068 0.37073 0.89054 0.0
C6038 C 0.06206 0.37781 0.87698 0.0
C6039 C 0.06279 0.39621 0.87426 0.0
C6040 C 0.05233 0.40764 0.88512 0.0
C6041 C 0.04122 0.40072 0.89883 0.0
C6042 C 0.04044 0.38235 0.90161 0.0
C6043 C 0.0758 0.29443 0.94685 0.0
C6044 C 0.07246 0.30311 0.9634 0.0
C6045 C 0.0683 0.30121 0.93044 0.0
C6046 C 0.05705 0.31665 0.93028 0.0
C6047 C 0.05325 0.32493 0.94699 0.0
C6048 C 0.0609 0.31827 0.96333 0.0
C6049 C 0.05027 0.32481 0.91266 0.0
C6050 C 0.05287 0.34303 0.90941 0.0
C6051 C 0.04207 0.31479 0.89879 0.0
C6052 C 0.03607 0.29626 0.90211 0.0
C6053 C 0.02645 0.29175 0.91811 0.0
C6054 C 0.02041 0.27449 0.92094 0.0
C6055 C 0.02346 0.26166 0.90767 0.0
C6056 C 0.03256 0.26607 0.89155 0.0
C6057 C 0.03898 0.28321 0.88881 0.0
H6058 H 0.01866 0.24834 0.90982 0.0
H6059 H 0.05282 0.42187 0.8829 0.0
H6060 H 0.95218 0.85177 0.17735 0.0
H6061 H 0.94237 0.83791 0.14945 0.0
H6062 H 0.9511 0.78612 0.17468 0.0
H6063 H 0.96104 0.80025 0.20301 0.0
H6064 H 0.96657 0.79023 0.13905 0.0
H6065 H 0.90893 0.80177 0.16955 0.0
H6066 H 0.88602 0.82062 0.18513 0.0
H6067 H 0.88244 0.85532 0.13797 0.0
H6068 H 0.90551 0.83681 0.1222 0.0
H6069 H 0.91202 0.73887 0.08078 0.0
H6070 H 0.92759 0.75378 0.10543 0.0
H6071 H 0.91925 0.80416 0.07722 0.0
H6072 H 0.90391 0.78928 0.05234 0.0
H6073 H 0.90534 0.8023 0.11276 0.0
H6074 H 0.96014 0.79144 0.08102 0.0
H6075 H 0.98407 0.77496 0.06429 0.0
H6076 H 0.99421 0.74143 0.11145 0.0
H6077 H 0.97017 0.75755 0.12843 0.0
C6078 C 0.95128 0.83746 0.17721 0.0
C6079 C 0.95642 0.82701 0.19247 0.0
C6080 C 0.94597 0.82956 0.1612 0.0
C6081 C 0.94583 0.81105 0.16016 0.0
C6082 C 0.95103 0.80047 0.17539 0.0
C6083 C 0.95638 0.80846 0.19154 0.0
C6084 C 0.94032 0.80297 0.14298 0.0
C6085 C 0.95309 0.79252 0.13339 0.0
C6086 C 0.92307 0.8069 0.13529 0.0
C6087 C 0.90908 0.81798 0.14475 0.0
C6088 C 0.90336 0.81349 0.16255 0.0
C6089 C 0.89032 0.82411 0.17141 0.0
C6090 C 0.88282 0.83919 0.16256 0.0
C6091 C 0.88829 0.84365 0.14482 0.0
C6092 C 0.90132 0.83309 0.1359 0.0
C6093 C 0.91352 0.75312 0.07988 0.0
C6094 C 0.90653 0.76307 0.06495 0.0
C6095 C 0.92266 0.76154 0.09376 0.0
C6096 C 0.92469 0.77998 0.09292 0.0
C6097 C 0.91792 0.78988 0.0779 0.0
C6098 C 0.90902 0.78143 0.06388 0.0
C6099 C 0.93135 0.7891 0.10901 0.0
C6100 C 0.91883 0.79991 0.11837 0.0
C6101 C 0.94889 0.78566 0.11626 0.0
C6102 C 0.96313 0.7756 0.10596 0.0
C6103 C 0.96729 0.78041 0.08778 0.0
C6104 C 0.98094 0.77117 0.07826 0.0
C6105 C 0.99061 0.75712 0.08678 0.0
C6106 C 0.98668 0.7523 0.10485 0.0
C6107 C 0.97305 0.7615 0.11444 0.0
H6108 H 0.00118 0.75 0.07939 0.0
H6109 H 0.87274 0.84739 0.16945 0.0
H6110 H 0.44293 0.62507 0.32634 0.0
H6111 H 0.43446 0.63822 0.35588 0.0
H6112 H 0.46936 0.68207 0.34456 0.0
H6113 H 0.47704 0.66955 0.31482 0.0
H6114 H 0.46944 0.66304 0.38449 0.0
H6115 H 0.43568 0.69703 0.33869 0.0
H6116 H 0.41822 0.69892 0.30998 0.0
H6117 H 0.37734 0.66625 0.33388 0.0
H6118 H 0.39483 0.66386 0.36264 0.0
H6119 H 0.42151 0.72798 0.44384 0.0
H6120 H 0.43769 0.7151 0.41764 0.0
H6121 H 0.40742 0.66726 0.42407 0.0
H6122 H 0.39165 0.67976 0.45057 0.0
H6123 H 0.40742 0.69062 0.38646 0.0
H6124 H 0.44364 0.65717 0.43299 0.0
H6125 H 0.46117 0.65835 0.46161 0.0
H6126 H 0.49795 0.6944 0.43606 0.0
H6127 H 0.48042 0.69361 0.40734 0.0
C6128 C 0.44845 0.63766 0.3301 0.0
C6129 C 0.46004 0.64668 0.31818 0.0
C6130 C 0.44393 0.64496 0.34701 0.0
C6131 C 0.45152 0.66096 0.35238 0.0
C6132 C 0.46353 0.66965 0.34068 0.0
C6133 C 0.46756 0.66269 0.3236 0.0
C6134 C 0.44509 0.66968 0.36915 0.0
C6135 C 0.45596 0.66918 0.38493 0.0
C6136 C 0.42769 0.67797 0.36955 0.0
C6137 C 0.41662 0.68013 0.35272 0.0
C6138 C 0.42301 0.69017 0.33778 0.0
C6139 C 0.41313 0.69133 0.3215 0.0
C6140 C 0.3967 0.68266 0.32009 0.0
C6141 C 0.39008 0.67292 0.33499 0.0
C6142 C 0.39997 0.67167 0.35129 0.0
C6143 C 0.41867 0.71455 0.4399 0.0
C6144 C 0.40543 0.70479 0.4492 0.0
C6145 C 0.42783 0.70728 0.42496 0.0
C6146 C 0.42353 0.69037 0.41896 0.0
C6147 C 0.41083 0.68036 0.42861 0.0
C6148 C 0.402 0.68743 0.44381 0.0
C6149 C 0.43146 0.68344 0.40196 0.0
C6150 C 0.42091 0.68448 0.38605 0.0
C6151 C 0.44926 0.67605 0.40142 0.0
C6152 C 0.46074 0.67533 0.41805 0.0
C6153 C 0.45551 0.66529 0.43347 0.0
C6154 C 0.4654 0.66593 0.44972 0.0
C6155 C 0.48066 0.67645 0.45066 0.0
C6156 C 0.48614 0.68623 0.43529 0.0
C6157 C 0.47625 0.68567 0.41901 0.0
H6158 H 0.48823 0.67703 0.46329 0.0
H6159 H 0.38907 0.68353 0.30746 0.0
H6160 H 0.84399 0.54428 0.83539 0.0
H6161 H 0.86556 0.56335 0.81953 0.0
H6162 H 0.8222 0.58563 0.78598 0.0
H6163 H 0.80042 0.56701 0.80233 0.0
H6164 H 0.8541 0.57711 0.76644 0.0
H6165 H 0.83386 0.60691 0.81747 0.0
H6166 H 0.82585 0.61793 0.84785 0.0
H6167 H 0.88223 0.62108 0.86124 0.0
H6168 H 0.8907 0.60742 0.83228 0.0
H6169 H 0.92592 0.63642 0.73897 0.0
H6170 H 0.89606 0.63138 0.75286 0.0
H6171 H 0.91973 0.58908 0.7864 0.0
H6172 H 0.94939 0.59369 0.77204 0.0
H6173 H 0.8914 0.61742 0.80267 0.0
H6174 H 0.90218 0.57271 0.75008 0.0
H6175 H 0.90987 0.57194 0.71715 0.0
H6176 H 0.86794 0.61122 0.70556 0.0
H6177 H 0.86001 0.61219 0.73834 0.0
C6178 C 0.83914 0.55307 0.82445 0.0
C6179 C 0.82062 0.55432 0.82004 0.0
C6180 C 0.85139 0.56406 0.81557 0.0
C6181 C 0.84533 0.57612 0.80191 0.0
C6182 C 0.82702 0.57656 0.79668 0.0
C6183 C 0.81466 0.56593 0.80594 0.0
C6184 C 0.85827 0.58816 0.79314 0.0
C6185 C 0.86206 0.58602 0.77445 0.0
C6186 C 0.86816 0.60045 0.80342 0.0
C6187 C 0.86297 0.60579 0.82238 0.0
C6188 C 0.84463 0.60895 0.82715 0.0
C6189 C 0.83998 0.61561 0.84431 0.0
C6190 C 0.85352 0.6199 0.85664 0.0
C6191 C 0.87172 0.61721 0.85197 0.0
C6192 C 0.87644 0.60972 0.83525 0.0
C6193 C 0.92472 0.62643 0.74971 0.0
C6194 C 0.93971 0.61553 0.75477 0.0
C6195 C 0.90777 0.62355 0.75752 0.0
C6196 C 0.9059 0.60994 0.77061 0.0
C6197 C 0.92111 0.59973 0.77637 0.0
C6198 C 0.93794 0.60234 0.76828 0.0
C6199 C 0.88795 0.60481 0.77711 0.0
C6200 C 0.88316 0.6084 0.79513 0.0
C6201 C 0.87677 0.59443 0.7663 0.0
C6202 C 0.8804 0.5924 0.74655 0.0
C6203 C 0.8945 0.58102 0.74045 0.0
C6204 C 0.89898 0.58064 0.72186 0.0
C6205 C 0.88943 0.59155 0.70932 0.0
C6206 C 0.87533 0.6028 0.7153 0.0
C6207 C 0.87077 0.60319 0.73384 0.0
H6208 H 0.89289 0.59126 0.69497 0.0
H6209 H 0.84992 0.6255 0.86972 0.0
H6210 H 0.734 0.56883 0.07374 0.0
H6211 H 0.71934 0.59607 0.06138 0.0
H6212 H 0.66743 0.57092 0.06373 0.0
H6213 H 0.68214 0.54375 0.07612 0.0
H6214 H 0.67416 0.58736 0.03117 0.0
H6215 H 0.6752 0.60445 0.09656 0.0
H6216 H 0.68812 0.6124 0.12637 0.0
H6217 H 0.7264 0.64573 0.09932 0.0
H6218 H 0.71334 0.63851 0.06942 0.0
H6219 H 0.61746 0.66135 0.01158 0.0
H6220 H 0.6312 0.63531 0.02738 0.0
H6221 H 0.68113 0.66343 0.03318 0.0
H6222 H 0.66691 0.68972 0.01874 0.0
H6223 H 0.67576 0.64546 0.06178 0.0
H6224 H 0.67481 0.63199 0.99758 0.0
H6225 H 0.66215 0.6272 0.96691 0.0
H6226 H 0.62675 0.58805 0.98928 0.0
H6227 H 0.6392 0.59261 0.02006 0.0
C6228 C 0.71952 0.56918 0.07141 0.0
C6229 C 0.7091 0.55443 0.07561 0.0
C6230 C 0.71117 0.5847 0.06461 0.0
C6231 C 0.69234 0.58547 0.06213 0.0
C6232 C 0.682 0.57048 0.06575 0.0
C6233 C 0.69038 0.55497 0.07248 0.0
C6234 C 0.68345 0.6015 0.05454 0.0
C6235 C 0.67428 0.60006 0.03792 0.0
C6236 C 0.68436 0.61807 0.0631 0.0
C6237 C 0.69358 0.62062 0.08077 0.0
C6238 C 0.68661 0.61318 0.09697 0.0
C6239 C 0.69386 0.61766 0.11388 0.0
C6240 C 0.70824 0.6293 0.11472 0.0
C6241 C 0.71537 0.63659 0.09866 0.0
C6242 C 0.708 0.63238 0.08174 0.0
C6243 C 0.63112 0.662 0.01694 0.0
C6244 C 0.64121 0.67729 0.01445 0.0
C6245 C 0.63904 0.64715 0.02554 0.0
C6246 C 0.65729 0.64739 0.0309 0.0
C6247 C 0.66703 0.66304 0.0291 0.0
C6248 C 0.65891 0.67805 0.02108 0.0
C6249 C 0.66637 0.63137 0.03839 0.0
C6250 C 0.67563 0.63279 0.05495 0.0
C6251 C 0.66593 0.61489 0.02951 0.0
C6252 C 0.6578 0.61279 0.01115 0.0
C6253 C 0.66418 0.62251 0.99598 0.0
C6254 C 0.6571 0.61977 0.97856 0.0
C6255 C 0.64362 0.60736 0.97615 0.0
C6256 C 0.63718 0.59767 0.99116 0.0
C6257 C 0.64426 0.6003 0.00858 0.0
H6258 H 0.6382 0.60522 0.96266 0.0
H6259 H 0.71374 0.63279 0.12783 0.0
H6260 H 0.72261 0.43664 0.32164 0.0
H6261 H 0.69731 0.42479 0.30429 0.0
H6262 H 0.66104 0.46441 0.3274 0.0
H6263 H 0.68638 0.47647 0.34416 0.0
H6264 H 0.65088 0.42567 0.32896 0.0
H6265 H 0.67747 0.47155 0.29052 0.0
H6266 H 0.70621 0.48082 0.27692 0.0
H6267 H 0.70526 0.43726 0.24002 0.0
H6268 H 0.67773 0.42625 0.25514 0.0
H6269 H 0.5694 0.42618 0.28477 0.0
H6270 H 0.59829 0.4402 0.29105 0.0
H6271 H 0.62736 0.39691 0.26531 0.0
H6272 H 0.59874 0.38264 0.25933 0.0
H6273 H 0.64334 0.43586 0.26201 0.0
H6274 H 0.62843 0.38628 0.30242 0.0
H6275 H 0.60536 0.36862 0.31835 0.0
H6276 H 0.58793 0.4145 0.34838 0.0
H6277 H 0.61077 0.43249 0.33234 0.0
C6278 C 0.70922 0.44284 0.32283 0.0
C6279 C 0.70621 0.45758 0.33398 0.0
C6280 C 0.6949 0.43604 0.31306 0.0
C6281 C 0.67751 0.44379 0.31475 0.0
C6282 C 0.67449 0.45836 0.32606 0.0
C6283 C 0.68888 0.46538 0.33541 0.0
C6284 C 0.66233 0.43709 0.30447 0.0
C6285 C 0.64917 0.42803 0.31438 0.0
C6286 C 0.66075 0.43968 0.2853 0.0
C6287 C 0.67565 0.44775 0.27439 0.0
C6288 C 0.68353 0.46365 0.2798 0.0
C6289 C 0.69977 0.46911 0.27196 0.0
C6290 C 0.70756 0.45967 0.25757 0.0
C6291 C 0.69923 0.44455 0.25121 0.0
C6292 C 0.68345 0.43849 0.25967 0.0
C6293 C 0.58196 0.41964 0.28056 0.0
C6294 C 0.58192 0.40308 0.27217 0.0
C6295 C 0.59834 0.42789 0.28362 0.0
C6296 C 0.6148 0.41968 0.27827 0.0
C6297 C 0.61473 0.40357 0.26913 0.0
C6298 C 0.59841 0.39522 0.26627 0.0
C6299 C 0.63166 0.42513 0.28681 0.0
C6300 C 0.64513 0.4337 0.2766 0.0
C6301 C 0.63411 0.42159 0.30563 0.0
C6302 C 0.62122 0.41069 0.31621 0.0
C6303 C 0.61968 0.39257 0.31245 0.0
C6304 C 0.60663 0.38252 0.32144 0.0
C6305 C 0.59518 0.39044 0.33436 0.0
C6306 C 0.59683 0.40839 0.33837 0.0
C6307 C 0.60983 0.41852 0.32936 0.0
H6308 H 0.58504 0.38266 0.34128 0.0
H6309 H 0.71999 0.46412 0.2513 0.0
H6310 H 0.86938 0.33888 0.4832 0.0
H6311 H 0.84902 0.36285 0.49259 0.0
H6312 H 0.84149 0.33635 0.5448 0.0
H6313 H 0.86085 0.31132 0.53469 0.0
H6314 H 0.81075 0.34942 0.53341 0.0
H6315 H 0.872 0.37244 0.53529 0.0
H6316 H 0.90136 0.38043 0.52166 0.0
H6317 H 0.87393 0.41594 0.48359 0.0
H6318 H 0.84437 0.40791 0.49677 0.0
H6319 H 0.78893 0.41359 0.59693 0.0
H6320 H 0.80371 0.39133 0.57772 0.0
H6321 H 0.80027 0.42771 0.53141 0.0
H6322 H 0.78647 0.45053 0.55114 0.0
H6323 H 0.83201 0.41132 0.53243 0.0
H6324 H 0.77087 0.39249 0.53833 0.0
H6325 H 0.7437 0.38605 0.55662 0.0
H6326 H 0.77217 0.34232 0.58328 0.0
H6327 H 0.79976 0.34895 0.56577 0.0
C6328 C 0.86365 0.33825 0.49683 0.0
C6329 C 0.86701 0.32345 0.50847 0.0
C6330 C 0.85193 0.35197 0.50213 0.0
C6331 C 0.84403 0.35162 0.51953 0.0
C6332 C 0.84751 0.33691 0.5313 0.0
C6333 C 0.85876 0.32278 0.5257 0.0
C6334 C 0.83239 0.36666 0.52567 0.0
C6335 C 0.81542 0.36295 0.53334 0.0
C6336 C 0.83813 0.38445 0.52467 0.0
C6337 C 0.85595 0.38941 0.51688 0.0
C6338 C 0.87222 0.38186 0.52393 0.0
C6339 C 0.8889 0.38639 0.51628 0.0
C6340 C 0.8895 0.39864 0.50173 0.0
C6341 C 0.87344 0.40642 0.49482 0.0
C6342 C 0.85672 0.40187 0.50237 0.0
C6343 C 0.79137 0.41677 0.58264 0.0
C6344 C 0.7866 0.43355 0.57534 0.0
C6345 C 0.79964 0.40405 0.57165 0.0
C6346 C 0.80253 0.40767 0.55299 0.0
C6347 C 0.79795 0.42461 0.54572 0.0
C6348 C 0.79015 0.43757 0.55692 0.0
C6349 C 0.81101 0.39386 0.54144 0.0
C6350 C 0.82717 0.39785 0.53231 0.0
C6351 C 0.80466 0.37628 0.54141 0.0
C6352 C 0.7875 0.37132 0.55075 0.0
C6353 C 0.77137 0.38149 0.54808 0.0
C6354 C 0.75589 0.37784 0.55839 0.0
C6355 C 0.75622 0.36378 0.57115 0.0
C6356 C 0.77195 0.35322 0.57343 0.0
C6357 C 0.78753 0.35695 0.56332 0.0
H6358 H 0.74436 0.36107 0.57934 0.0
H6359 H 0.90243 0.40214 0.49584 0.0
H6360 H 0.93779 0.40786 0.69754 0.0
H6361 H 0.91147 0.41985 0.6804 0.0
H6362 H 0.87594 0.38945 0.71493 0.0
H6363 H 0.90221 0.37764 0.73229 0.0
H6364 H 0.86789 0.38736 0.67763 0.0
H6365 H 0.88075 0.43258 0.72175 0.0
H6366 H 0.89924 0.45483 0.73677 0.0
H6367 H 0.90502 0.48305 0.68567 0.0
H6368 H 0.88683 0.46079 0.67026 0.0
H6369 H 0.78106 0.42446 0.66312 0.0
H6370 H 0.81006 0.41443 0.67629 0.0
H6371 H 0.83763 0.45336 0.6433 0.0
H6372 H 0.80835 0.46385 0.63051 0.0
H6373 H 0.85193 0.4518 0.67632 0.0
H6374 H 0.83844 0.409 0.63205 0.0
H6375 H 0.82043 0.38733 0.61559 0.0
H6376 H 0.81717 0.35493 0.66432 0.0
H6377 H 0.8349 0.37654 0.68116 0.0
C6378 C 0.92436 0.40365 0.70139 0.0
C6379 C 0.92202 0.3918 0.71624 0.0
C6380 C 0.90934 0.4106 0.69165 0.0
C6381 C 0.89171 0.40567 0.69647 0.0
C6382 C 0.88941 0.39347 0.711 0.0
C6383 C 0.90441 0.38673 0.72091 0.0
C6384 C 0.87559 0.41317 0.68643 0.0
C6385 C 0.86428 0.40143 0.67749 0.0
C6386 C 0.87135 0.43164 0.68556 0.0
C6387 C 0.88262 0.44484 0.69479 0.0
C6388 C 0.88616 0.44338 0.71365 0.0
C6389 C 0.89654 0.45604 0.72225 0.0
C6390 C 0.90335 0.47031 0.71217 0.0
C6391 C 0.89978 0.47196 0.69346 0.0
C6392 C 0.88944 0.45932 0.68479 0.0
C6393 C 0.79328 0.43099 0.65877 0.0
C6394 C 0.79246 0.44492 0.64576 0.0
C6395 C 0.8099 0.42514 0.6662 0.0
C6396 C 0.82616 0.43284 0.66051 0.0
C6397 C 0.82532 0.44712 0.64784 0.0
C6398 C 0.80859 0.45312 0.64054 0.0
C6399 C 0.84388 0.42592 0.66795 0.0
C6400 C 0.85557 0.43774 0.6763 0.0
C6401 C 0.84867 0.40754 0.66802 0.0
C6402 C 0.8379 0.3945 0.65793 0.0
C6403 C 0.83376 0.39733 0.63931 0.0
C6404 C 0.82362 0.38504 0.6299 0.0
C6405 C 0.81764 0.36978 0.63891 0.0
C6406 C 0.8218 0.36676 0.65735 0.0
C6407 C 0.83191 0.37903 0.66684 0.0
H6408 H 0.8098 0.36027 0.6316 0.0
H6409 H 0.91134 0.48012 0.71886 0.0
H6410 H 0.82137 0.57583 0.86656 0.0
H6411 H 0.83742 0.59564 0.88673 0.0
H6412 H 0.82295 0.56291 0.93335 0.0
H6413 H 0.80613 0.54362 0.91315 0.0
H6414 H 0.82118 0.59495 0.94287 0.0
H6415 H 0.86338 0.56014 0.9118 0.0
H6416 H 0.88149 0.54508 0.88815 0.0
H6417 H 0.90239 0.59492 0.87002 0.0
H6418 H 0.88351 0.61055 0.89265 0.0
H6419 H 0.89962 0.65164 0.97423 0.0
H6420 H 0.88509 0.62377 0.96728 0.0
H6421 H 0.85163 0.6512 0.92689 0.0
H6422 H 0.86564 0.67938 0.93425 0.0
H6423 H 0.88216 0.61426 0.92376 0.0
H6424 H 0.82901 0.64635 0.95459 0.0
H6425 H 0.81322 0.65657 0.98236 0.0
H6426 H 0.81912 0.60436 0.00647 0.0
H6427 H 0.83546 0.59395 0.97909 0.0
C6428 C 0.82121 0.5733 0.8812 0.0
C6429 C 0.81241 0.5586 0.88854 0.0
C6430 C 0.8306 0.58435 0.89264 0.0
C6431 C 0.83179 0.58042 0.91145 0.0
C6432 C 0.82228 0.56609 0.91886 0.0
C6433 C 0.81257 0.55523 0.90743 0.0
C6434 C 0.84286 0.59148 0.92324 0.0
C6435 C 0.83459 0.59902 0.93869 0.0
C6436 C 0.86082 0.59604 0.91839 0.0
C6437 C 0.87161 0.58667 0.90393 0.0
C6438 C 0.8714 0.56805 0.90251 0.0
C6439 C 0.88185 0.55937 0.88921 0.0
C6440 C 0.89295 0.56906 0.87748 0.0
C6441 C 0.89362 0.58745 0.879 0.0
C6442 C 0.88293 0.59624 0.892 0.0
C6443 C 0.88934 0.65169 0.96366 0.0
C6444 C 0.88386 0.66753 0.95449 0.0
C6445 C 0.88082 0.63587 0.96006 0.0
C6446 C 0.86692 0.63573 0.94713 0.0
C6447 C 0.86197 0.65135 0.9374 0.0
C6448 C 0.87018 0.66727 0.94128 0.0
C6449 C 0.85946 0.61894 0.94148 0.0
C6450 C 0.86874 0.60997 0.9276 0.0
C6451 C 0.84281 0.61265 0.94809 0.0
C6452 C 0.83387 0.61946 0.96488 0.0
C6453 C 0.8274 0.63715 0.96596 0.0
C6454 C 0.81822 0.64295 0.98162 0.0
C6455 C 0.81522 0.63114 0.99619 0.0
C6456 C 0.82152 0.61353 0.99522 0.0
C6457 C 0.83079 0.60769 0.97966 0.0
H6458 H 0.80793 0.6356 0.00819 0.0
H6459 H 0.90113 0.56232 0.86731 0.0
H6460 H 0.58059 0.6026 0.24424 0.0
H6461 H 0.60269 0.58798 0.22447 0.0
H6462 H 0.59952 0.63263 0.18661 0.0
H6463 H 0.576 0.64676 0.20588 0.0
H6464 H 0.60209 0.60207 0.16842 0.0
H6465 H 0.63531 0.62752 0.21776 0.0
H6466 H 0.64119 0.63351 0.25023 0.0
H6467 H 0.64835 0.57761 0.26146 0.0
H6468 H 0.64244 0.57128 0.22907 0.0
H6469 H 0.69217 0.58145 0.13206 0.0
H6470 H 0.66552 0.59604 0.14632 0.0
H6471 H 0.65621 0.54832 0.17793 0.0
H6472 H 0.68222 0.53349 0.16308 0.0
H6473 H 0.6597 0.5812 0.19776 0.0
H6474 H 0.62939 0.55641 0.14682 0.0
H6475 H 0.6229 0.5509 0.1145 0.0
H6476 H 0.61063 0.60639 0.10533 0.0
H6477 H 0.61723 0.61231 0.13764 0.0
C6478 C 0.58476 0.60941 0.23181 0.0
C6479 C 0.57699 0.62594 0.22669 0.0
C6480 C 0.59733 0.60102 0.22049 0.0
C6481 C 0.60307 0.60939 0.20427 0.0
C6482 C 0.59531 0.62598 0.1991 0.0
C6483 C 0.58214 0.63413 0.21018 0.0
C6484 C 0.61773 0.60097 0.19332 0.0
C6485 C 0.61483 0.59777 0.17469 0.0
C6486 C 0.6342 0.59511 0.20166 0.0
C6487 C 0.63846 0.59893 0.22099 0.0
C6488 C 0.63819 0.61651 0.22715 0.0
C6489 C 0.64153 0.61996 0.24553 0.0
C6490 C 0.64521 0.60595 0.25787 0.0
C6491 C 0.64559 0.58845 0.25186 0.0
C6492 C 0.64231 0.58493 0.23348 0.0
C6493 C 0.68436 0.57422 0.14211 0.0
C6494 C 0.68925 0.55661 0.14684 0.0
C6495 C 0.66911 0.5824 0.15 0.0
C6496 C 0.65888 0.57311 0.16297 0.0
C6497 C 0.66382 0.55551 0.16772 0.0
C6498 C 0.67872 0.54717 0.15943 0.0
C6499 C 0.6441 0.58226 0.17291 0.0
C6500 C 0.64703 0.58562 0.1914 0.0
C6501 C 0.62786 0.5884 0.16429 0.0
C6502 C 0.62401 0.58485 0.14474 0.0
C6503 C 0.62547 0.5675 0.13795 0.0
C6504 C 0.62172 0.56428 0.1196 0.0
C6505 C 0.61641 0.57829 0.10785 0.0
C6506 C 0.61478 0.59555 0.11445 0.0
C6507 C 0.6185 0.59883 0.1328 0.0
H6508 H 0.61352 0.57578 0.09364 0.0
H6509 H 0.64773 0.60865 0.27211 0.0
H6510 H 0.68577 0.46014 0.41337 0.0
H6511 H 0.6737 0.43329 0.42831 0.0
H6512 H 0.71209 0.40062 0.39859 0.0
H6513 H 0.72452 0.42713 0.38422 0.0
H6514 H 0.66519 0.39659 0.4014 0.0
H6515 H 0.72606 0.38829 0.42698 0.0
H6516 H 0.75405 0.39588 0.44312 0.0
H6517 H 0.72248 0.41367 0.489 0.0
H6518 H 0.69427 0.40637 0.47296 0.0
H6519 H 0.65168 0.30975 0.44364 0.0
H6520 H 0.66326 0.33536 0.42646 0.0
H6521 H 0.65371 0.36836 0.47327 0.0
H6522 H 0.64257 0.34283 0.49051 0.0
H6523 H 0.68768 0.37111 0.46038 0.0
H6524 H 0.62679 0.37052 0.43318 0.0
H6525 H 0.60245 0.35671 0.41577 0.0
H6526 H 0.63843 0.34994 0.37008 0.0
H6527 H 0.66305 0.36349 0.38729 0.0
C6528 C 0.69162 0.44722 0.41013 0.0
C6529 C 0.70618 0.44572 0.39782 0.0
C6530 C 0.68482 0.43195 0.4187 0.0
C6531 C 0.6923 0.41504 0.4148 0.0
C6532 C 0.70646 0.41355 0.40213 0.0
C6533 C 0.71348 0.42873 0.39391 0.0
C6534 C 0.68462 0.39885 0.4231 0.0
C6535 C 0.6701 0.39094 0.41428 0.0
C6536 C 0.69136 0.39126 0.43962 0.0
C6537 C 0.70804 0.39734 0.44853 0.0
C6538 C 0.72506 0.39425 0.4403 0.0
C6539 C 0.74098 0.39831 0.44952 0.0
C6540 C 0.74005 0.40534 0.46705 0.0
C6541 C 0.72319 0.4083 0.47539 0.0
C6542 C 0.70723 0.40426 0.46622 0.0
C6543 C 0.65187 0.32254 0.45013 0.0
C6544 C 0.64631 0.32433 0.46841 0.0
C6545 C 0.6584 0.33717 0.44029 0.0
C6546 C 0.65927 0.35382 0.44855 0.0
C6547 C 0.65319 0.35565 0.46663 0.0
C6548 C 0.64681 0.34106 0.47647 0.0
C6549 C 0.66773 0.36912 0.43908 0.0
C6550 C 0.68256 0.37681 0.4476 0.0
C6551 C 0.66171 0.37597 0.4219 0.0
C6552 C 0.64681 0.3679 0.4116 0.0
C6553 C 0.62955 0.36597 0.41947 0.0
C6554 C 0.6157 0.35821 0.40963 0.0
C6555 C 0.61891 0.35242 0.39185 0.0
C6556 C 0.63597 0.35441 0.38385 0.0
C6557 C 0.64987 0.36215 0.39364 0.0
H6558 H 0.60816 0.34642 0.38425 0.0
H6559 H 0.75237 0.40846 0.47417 0.0
H6560 H 0.8285 0.81038 0.53761 0.0
H6561 H 0.81166 0.83656 0.5496 0.0
H6562 H 0.82783 0.82118 0.6044 0.0
H6563 H 0.84476 0.79576 0.59278 0.0
H6564 H 0.788 0.82556 0.59567 0.0
H6565 H 0.84712 0.85111 0.5924 0.0
H6566 H 0.87506 0.86296 0.57906 0.0
H6567 H 0.84353 0.90114 0.54739 0.0
H6568 H 0.8153 0.88909 0.56006 0.0
H6569 H 0.7662 0.89485 0.65954 0.0
H6570 H 0.78351 0.87188 0.64256 0.0
H6571 H 0.76678 0.89704 0.59155 0.0
H6572 H 0.74942 0.91951 0.60833 0.0
H6573 H 0.8052 0.88871 0.59541 0.0
H6574 H 0.74622 0.86544 0.60598 0.0
H6575 H 0.72048 0.85507 0.62423 0.0
H6576 H 0.75413 0.81307 0.64749 0.0
H6577 H 0.78026 0.82341 0.62958 0.0
C6578 C 0.82853 0.8128 0.55216 0.0
C6579 C 0.83769 0.801 0.56431 0.0
C6580 C 0.81905 0.82769 0.55894 0.0
C6581 C 0.8186 0.83061 0.57785 0.0
C6582 C 0.82809 0.81906 0.58979 0.0
C6583 C 0.83771 0.80452 0.58308 0.0
C6584 C 0.80709 0.84467 0.58583 0.0
C6585 C 0.79167 0.83941 0.59562 0.0
C6586 C 0.81211 0.86261 0.58564 0.0
C6587 C 0.82901 0.86883 0.57682 0.0
C6588 C 0.84606 0.86166 0.58218 0.0
C6589 C 0.86199 0.86852 0.57485 0.0
C6590 C 0.86107 0.88275 0.56234 0.0
C6591 C 0.84422 0.89007 0.55704 0.0
C6592 C 0.82825 0.88316 0.56421 0.0
C6593 C 0.76622 0.89521 0.64473 0.0
C6594 C 0.75661 0.90858 0.63503 0.0
C6595 C 0.77607 0.8823 0.63511 0.0
C6596 C 0.77636 0.88299 0.6159 0.0
C6597 C 0.76676 0.89647 0.60637 0.0
C6598 C 0.75681 0.90912 0.6159 0.0
C6599 C 0.78635 0.86952 0.60546 0.0
C6600 C 0.80136 0.87491 0.59521 0.0
C6601 C 0.78121 0.85162 0.60563 0.0
C6602 C 0.76534 0.84529 0.61636 0.0
C6603 C 0.74824 0.85405 0.61501 0.0
C6604 C 0.73353 0.84818 0.62532 0.0
C6605 C 0.73565 0.83341 0.63701 0.0
C6606 C 0.75249 0.82451 0.6384 0.0
C6607 C 0.76727 0.83038 0.62814 0.0
H6608 H 0.72425 0.82887 0.64499 0.0
H6609 H 0.87342 0.88813 0.55677 0.0
H6610 H 0.27767 0.59522 0.36812 0.0
H6611 H 0.28451 0.62315 0.38234 0.0
H6612 H 0.30261 0.59482 0.43109 0.0
H6613 H 0.29493 0.56661 0.41712 0.0
H6614 H 0.28218 0.62491 0.43955 0.0
H6615 H 0.33302 0.60916 0.40241 0.0
H6616 H 0.34725 0.59817 0.37414 0.0
H6617 H 0.32667 0.6442 0.34458 0.0
H6618 H 0.31198 0.65532 0.37265 0.0
H6619 H 0.34859 0.68591 0.46817 0.0
H6620 H 0.33462 0.66055 0.45436 0.0
H6621 H 0.29709 0.69572 0.42524 0.0
H6622 H 0.31047 0.72139 0.43989 0.0
H6623 H 0.3251 0.6639 0.40655 0.0
H6624 H 0.27353 0.67832 0.4477 0.0
H6625 H 0.26672 0.6899 0.47838 0.0
H6626 H 0.2961 0.64569 0.50293 0.0
H6627 H 0.30313 0.63386 0.47245 0.0
C6628 C 0.28341 0.59487 0.38174 0.0
C6629 C 0.28601 0.57877 0.39145 0.0
C6630 C 0.28709 0.61085 0.38993 0.0
C6631 C 0.29401 0.61101 0.40776 0.0
C6632 C 0.29711 0.59492 0.41737 0.0
C6633 C 0.29312 0.57886 0.40925 0.0
C6634 C 0.2992 0.62799 0.41564 0.0
C6635 C 0.29147 0.63345 0.43229 0.0
C6636 C 0.31151 0.63902 0.40627 0.0
C6637 C 0.32129 0.63302 0.38961 0.0
C6638 C 0.33151 0.61694 0.38988 0.0
C6639 C 0.33962 0.61066 0.37389 0.0
C6640 C 0.33783 0.62046 0.35756 0.0
C6641 C 0.32803 0.63662 0.35724 0.0
C6642 C 0.31981 0.64293 0.3732 0.0
C6643 C 0.33699 0.68826 0.45933 0.0
C6644 C 0.33037 0.70553 0.45533 0.0
C6645 C 0.32926 0.6738 0.45123 0.0
C6646 C 0.31507 0.67646 0.43874 0.0
C6647 C 0.30815 0.69362 0.43483 0.0
C6648 C 0.31567 0.70814 0.44329 0.0
C6649 C 0.30767 0.66094 0.42997 0.0
C6650 C 0.3153 0.65558 0.41338 0.0
C6651 C 0.29568 0.6499 0.43959 0.0
C6652 C 0.28871 0.65513 0.45781 0.0
C6653 C 0.27822 0.67089 0.45967 0.0
C6654 C 0.27442 0.67756 0.47701 0.0
C6655 C 0.28096 0.66853 0.49258 0.0
C6656 C 0.29095 0.6526 0.49087 0.0
C6657 C 0.29477 0.64585 0.47357 0.0
H6658 H 0.27838 0.67397 0.50594 0.0
H6659 H 0.34406 0.61554 0.34517 0.0
H6660 H 0.53102 0.08101 0.67893 0.0
H6661 H 0.55597 0.06044 0.67095 0.0
H6662 H 0.58457 0.07437 0.71984 0.0
H6663 H 0.55924 0.09454 0.72826 0.0
H6664 H 0.60282 0.07732 0.68279 0.0
H6665 H 0.56713 0.03962 0.72101 0.0
H6666 H 0.53649 0.03 0.72776 0.0
H6667 H 0.53613 0.00028 0.67821 0.0
H6668 H 0.56632 0.01136 0.67017 0.0
H6669 H 0.67624 0.02438 0.66992 0.0
H6670 H 0.64893 0.03044 0.68775 0.0
H6671 H 0.61573 0.0182 0.64144 0.0
H6672 H 0.64313 0.01152 0.62351 0.0
H6673 H 0.59958 0.01152 0.68041 0.0
H6674 H 0.62257 0.05582 0.63786 0.0
H6675 H 0.64885 0.06921 0.6226 0.0
H6676 H 0.669 0.08551 0.67452 0.0
H6677 H 0.64296 0.07183 0.69012 0.0
C6678 C 0.54263 0.07959 0.68796 0.0
C6679 C 0.54347 0.08918 0.70414 0.0
C6680 C 0.5567 0.06785 0.68347 0.0
C6681 C 0.5718 0.06594 0.69496 0.0
C6682 C 0.5728 0.0757 0.71102 0.0
C6683 C 0.55847 0.08711 0.71577 0.0
C6684 C 0.58705 0.05446 0.68951 0.0
C6685 C 0.60229 0.06293 0.68271 0.0
C6686 C 0.58569 0.03576 0.6887 0.0
C6687 C 0.56889 0.02678 0.69473 0.0
C6688 C 0.5605 0.03121 0.71139 0.0
C6689 C 0.54308 0.02555 0.7154 0.0
C6690 C 0.5342 0.01457 0.70333 0.0
C6691 C 0.54293 0.00899 0.6874 0.0
C6692 C 0.56017 0.01513 0.68303 0.0
C6693 C 0.66315 0.02305 0.66347 0.0
C6694 C 0.66174 0.01826 0.6451 0.0
C6695 C 0.64761 0.02587 0.67387 0.0
C6696 C 0.63046 0.02458 0.66587 0.0
C6697 C 0.62892 0.01894 0.64784 0.0
C6698 C 0.64452 0.01583 0.63747 0.0
C6699 C 0.61531 0.03454 0.67404 0.0
C6700 C 0.60015 0.02586 0.68106 0.0
C6701 C 0.61615 0.05321 0.67442 0.0
C6702 C 0.63092 0.06281 0.66512 0.0
C6703 C 0.6326 0.06232 0.646 0.0
C6704 C 0.64746 0.06988 0.6373 0.0
C6705 C 0.6606 0.0782 0.64759 0.0
C6706 C 0.65881 0.07906 0.66658 0.0
C6707 C 0.64399 0.07142 0.67536 0.0
H6708 H 0.67215 0.08399 0.64084 0.0
H6709 H 0.52061 0.01028 0.70632 0.0
H6710 H 0.11541 0.31815 0.94355 0.0
H6711 H 0.13138 0.34337 0.93013 0.0
H6712 H 0.1725 0.33755 0.97207 0.0
H6713 H 0.15555 0.31406 0.98652 0.0
H6714 H 0.17015 0.36958 0.96382 0.0
H6715 H 0.17552 0.31617 0.92842 0.0
H6716 H 0.16345 0.29112 0.91142 0.0
H6717 H 0.13716 0.32769 0.87354 0.0
H6718 H 0.14894 0.35295 0.89045 0.0
H6719 H 0.24563 0.40009 0.90983 0.0
H6720 H 0.22545 0.38159 0.9282 0.0
H6721 H 0.18093 0.39635 0.8922 0.0
H6722 H 0.20111 0.41438 0.87358 0.0
H6723 H 0.18462 0.36126 0.89828 0.0
H6724 H 0.18691 0.41514 0.93532 0.0
H6725 H 0.20127 0.43697 0.95503 0.0
H6726 H 0.21874 0.39513 0.99212 0.0
H6727 H 0.20475 0.37304 0.97257 0.0
C6728 C 0.12788 0.32235 0.94976 0.0
C6729 C 0.13487 0.31371 0.96541 0.0
C6730 C 0.1369 0.33675 0.94224 0.0
C6731 C 0.15347 0.34187 0.94975 0.0
C6732 C 0.15985 0.33374 0.96593 0.0
C6733 C 0.1504 0.32001 0.97391 0.0
C6734 C 0.16525 0.35419 0.93984 0.0
C6735 C 0.17341 0.36778 0.9495 0.0
C6736 C 0.1696 0.35161 0.92125 0.0
C6737 C 0.16299 0.33643 0.91076 0.0
C6738 C 0.16715 0.31885 0.91647 0.0
C6739 C 0.16034 0.30462 0.90687 0.0
C6740 C 0.1495 0.30781 0.89144 0.0
C6741 C 0.14554 0.32524 0.88551 0.0
C6742 C 0.15229 0.33951 0.89508 0.0
C6743 C 0.23164 0.39893 0.90561 0.0
C6744 C 0.22485 0.4083 0.8902 0.0
C6745 C 0.2201 0.38876 0.91633 0.0
C6746 C 0.20171 0.38805 0.91172 0.0
C6747 C 0.1951 0.39699 0.89601 0.0
C6748 C 0.20662 0.40704 0.88529 0.0
C6749 C 0.18943 0.37679 0.92215 0.0
C6750 C 0.18128 0.36323 0.91257 0.0
C6751 C 0.18586 0.37896 0.941 0.0
C6752 C 0.1949 0.39237 0.95231 0.0
C6753 C 0.19402 0.41055 0.94753 0.0
C6754 C 0.20204 0.42299 0.95874 0.0
C6755 C 0.21093 0.41744 0.9748 0.0
C6756 C 0.21187 0.39943 0.97968 0.0
C6757 C 0.20389 0.38695 0.96853 0.0
H6758 H 0.21705 0.42709 0.98348 0.0
H6759 H 0.1442 0.29679 0.88404 0.0
H6760 H 0.333 0.45113 0.6192 0.0
H6761 H 0.35728 0.43226 0.63326 0.0
H6762 H 0.35003 0.45985 0.68402 0.0
H6763 H 0.32627 0.4786 0.67023 0.0
H6764 H 0.3848 0.45884 0.67278 0.0
H6765 H 0.33638 0.41857 0.68179 0.0
H6766 H 0.31107 0.39946 0.67388 0.0
H6767 H 0.3463 0.36897 0.63889 0.0
H6768 H 0.3718 0.38801 0.64645 0.0
H6769 H 0.44629 0.40431 0.72681 0.0
H6770 H 0.41777 0.41932 0.71677 0.0
H6771 H 0.42241 0.39378 0.6646 0.0
H6772 H 0.45063 0.379 0.6744 0.0
H6773 H 0.38776 0.39314 0.6784 0.0
H6774 H 0.4355 0.43508 0.66817 0.0
H6775 H 0.46047 0.45463 0.67607 0.0
H6776 H 0.42564 0.48241 0.71371 0.0
H6777 H 0.40052 0.46288 0.70618 0.0
C6778 C 0.33672 0.45314 0.63331 0.0
C6779 C 0.32797 0.46641 0.64357 0.0
C6780 C 0.35036 0.44226 0.64137 0.0
C6781 C 0.35528 0.44464 0.65971 0.0
C6782 C 0.34639 0.45781 0.66989 0.0
C6783 C 0.33289 0.46857 0.66192 0.0
C6784 C 0.37077 0.43466 0.66803 0.0
C6785 C 0.38533 0.44447 0.67427 0.0
C6786 C 0.37146 0.41594 0.66966 0.0
C6787 C 0.35597 0.4049 0.6645 0.0
C6788 C 0.33868 0.40796 0.6722 0.0
C6789 C 0.32431 0.39708 0.66785 0.0
C6790 C 0.32705 0.38305 0.65584 0.0
C6791 C 0.34418 0.37987 0.64816 0.0
C6792 C 0.3586 0.39069 0.65248 0.0
C6793 C 0.44108 0.40189 0.71328 0.0
C6794 C 0.45064 0.39072 0.70128 0.0
C6795 C 0.42489 0.41044 0.70756 0.0
C6796 C 0.41813 0.4077 0.68991 0.0
C6797 C 0.42742 0.39605 0.67825 0.0
C6798 C 0.44358 0.38772 0.68384 0.0
C6799 C 0.40176 0.41736 0.68308 0.0
C6800 C 0.38708 0.40751 0.67706 0.0
C6801 C 0.40087 0.43609 0.68169 0.0
C6802 C 0.41622 0.4473 0.68684 0.0
C6803 C 0.43325 0.44517 0.67834 0.0
C6804 C 0.4474 0.45631 0.68269 0.0
C6805 C 0.44467 0.4697 0.69545 0.0
C6806 C 0.42776 0.47199 0.70389 0.0
C6807 C 0.41357 0.46088 0.69959 0.0
H6808 H 0.45563 0.47835 0.69875 0.0
H6809 H 0.31593 0.37462 0.65252 0.0
H6810 H 0.69287 0.0623 0.13141 0.0
H6811 H 0.67943 0.09067 0.11995 0.0
H6812 H 0.73223 0.10652 0.10103 0.0
H6813 H 0.74562 0.07896 0.11335 0.0
H6814 H 0.71628 0.13362 0.11478 0.0
H6815 H 0.69958 0.08969 0.07187 0.0
H6816 H 0.68674 0.06132 0.06263 0.0
H6817 H 0.63444 0.07832 0.08269 0.0
H6818 H 0.64701 0.10671 0.09222 0.0
H6819 H 0.67775 0.19322 0.04189 0.0
H6820 H 0.6941 0.16828 0.0574 0.0
H6821 H 0.65222 0.16639 0.0984 0.0
H6822 H 0.63612 0.19165 0.08348 0.0
H6823 H 0.66323 0.1332 0.07312 0.0
H6824 H 0.68304 0.17599 0.11915 0.0
H6825 H 0.69714 0.2041 0.12728 0.0
H6826 H 0.74507 0.18913 0.09722 0.0
H6827 H 0.73126 0.16082 0.08901 0.0
C6828 C 0.70145 0.07195 0.12482 0.0
C6829 C 0.72014 0.06864 0.12319 0.0
C6830 C 0.69386 0.08807 0.11827 0.0
C6831 C 0.70484 0.10063 0.10944 0.0
C6832 C 0.72353 0.09715 0.10789 0.0
C6833 C 0.73112 0.08137 0.11484 0.0
C6834 C 0.69696 0.11721 0.1013 0.0
C6835 C 0.70477 0.13346 0.10556 0.0
C6836 C 0.68203 0.11705 0.08917 0.0
C6837 C 0.67427 0.10026 0.08287 0.0
C6838 C 0.68535 0.08736 0.07432 0.0
C6839 C 0.67812 0.07129 0.06903 0.0
C6840 C 0.65979 0.06803 0.07208 0.0
C6841 C 0.64864 0.08086 0.08037 0.0
C6842 C 0.65579 0.09696 0.08566 0.0
C6843 C 0.67232 0.1877 0.05447 0.0
C6844 C 0.65587 0.19431 0.06167 0.0
C6845 C 0.68161 0.17356 0.06325 0.0
C6846 C 0.67424 0.16573 0.079 0.0
C6847 C 0.65804 0.17256 0.08638 0.0
C6848 C 0.64899 0.18694 0.07791 0.0
C6849 C 0.68242 0.14933 0.08684 0.0
C6850 C 0.67474 0.13319 0.08236 0.0
C6851 C 0.69767 0.14954 0.09839 0.0
C6852 C 0.70609 0.16639 0.1034 0.0
C6853 C 0.69657 0.17873 0.11424 0.0
C6854 C 0.70452 0.19465 0.1189 0.0
C6855 C 0.72199 0.19838 0.11276 0.0
C6856 C 0.73157 0.18616 0.102 0.0
C6857 C 0.72371 0.17016 0.0974 0.0
H6858 H 0.72811 0.21073 0.11635 0.0
H6859 H 0.65423 0.05557 0.068 0.0
H6860 H 0.56589 0.92487 0.78959 0.0
H6861 H 0.59573 0.93179 0.8019 0.0
H6862 H 0.57349 0.93131 0.85643 0.0
H6863 H 0.5437 0.92377 0.84427 0.0
H6864 H 0.59479 0.96465 0.83487 0.0
H6865 H 0.59425 0.89945 0.85112 0.0
H6866 H 0.59743 0.86761 0.84421 0.0
H6867 H 0.64834 0.87656 0.81756 0.0
H6868 H 0.6452 0.90853 0.8237 0.0
H6869 H 0.65842 0.98715 0.89873 0.0
H6870 H 0.63285 0.97124 0.88602 0.0
H6871 H 0.66951 0.94386 0.84925 0.0
H6872 H 0.69487 0.95922 0.86212 0.0
H6873 H 0.64376 0.92324 0.8571 0.0
H6874 H 0.65023 0.98085 0.83725 0.0
H6875 H 0.65299 0.01319 0.83431 0.0
H6876 H 0.59885 0.02084 0.85496 0.0
H6877 H 0.59583 0.98842 0.85831 0.0
C6878 C 0.56729 0.92661 0.80418 0.0
C6879 C 0.55245 0.92428 0.81605 0.0
C6880 C 0.58439 0.93012 0.81117 0.0
C6881 C 0.58675 0.9315 0.83004 0.0
C6882 C 0.57186 0.92979 0.84183 0.0
C6883 C 0.55486 0.92591 0.83491 0.0
C6884 C 0.60395 0.93739 0.83747 0.0
C6885 C 0.60544 0.95565 0.84001 0.0
C6886 C 0.6184 0.92558 0.84258 0.0
C6887 C 0.61927 0.90654 0.8376 0.0
C6888 C 0.60587 0.89477 0.84335 0.0
C6889 C 0.60773 0.87664 0.83964 0.0
C6890 C 0.623 0.87009 0.83032 0.0
C6891 C 0.63642 0.88166 0.8246 0.0
C6892 C 0.63457 0.89979 0.82815 0.0
C6893 C 0.66098 0.9773 0.88838 0.0
C6894 C 0.67838 0.9746 0.88107 0.0
C6895 C 0.64645 0.96832 0.88107 0.0
C6896 C 0.64933 0.95675 0.86641 0.0
C6897 C 0.66701 0.95278 0.86048 0.0
C6898 C 0.68145 0.96166 0.86778 0.0
C6899 C 0.63393 0.95046 0.85581 0.0
C6900 C 0.63301 0.93229 0.85224 0.0
C6901 C 0.62062 0.96248 0.8485 0.0
C6902 C 0.62285 0.98208 0.84813 0.0
C6903 C 0.63899 0.98937 0.84144 0.0
C6904 C 0.64059 0.00774 0.83964 0.0
C6905 C 0.62609 0.01905 0.84438 0.0
C6906 C 0.61007 0.01203 0.85126 0.0
C6907 C 0.60842 0.99363 0.85313 0.0
H6908 H 0.62723 0.03324 0.84254 0.0
H6909 H 0.6245 0.85604 0.82764 0.0
H6910 H 0.82423 0.0211 0.38896 0.0
H6911 H 0.85571 0.02591 0.37978 0.0
H6912 H 0.84553 0.0023 0.32768 0.0
H6913 H 0.81411 0.9975 0.33671 0.0
H6914 H 0.88449 -0.00042 0.34102 0.0
H6915 H 0.83501 0.04014 0.32434 0.0
H6916 H 0.80551 0.05362 0.33326 0.0
H6917 H 0.83111 0.0802 0.3773 0.0
H6918 H 0.86073 0.06639 0.36893 0.0
H6919 H 0.93 0.05644 0.27743 0.0
H6920 H 0.90793 0.03858 0.29377 0.0
H6921 H 0.91789 0.06726 0.34306 0.0
H6922 H 0.94 0.08535 0.32679 0.0
H6923 H 0.88086 0.06524 0.3327 0.0
H6924 H 0.93466 0.02648 0.33848 0.0
H6925 H 0.9606 0.01075 0.32408 0.0
H6926 H 0.92406 0.97938 0.29355 0.0
H6927 H 0.89787 0.99521 0.3074 0.0
C6928 C 0.82876 0.01696 0.37556 0.0
C6929 C 0.81658 0.00993 0.36311 0.0
C6930 C 0.84682 0.01917 0.37058 0.0
C6931 C 0.85282 0.01449 0.35304 0.0
C6932 C 0.84112 0.00591 0.34128 0.0
C6933 C 0.82304 0.0038 0.34621 0.0
C6934 C 0.86845 0.02356 0.34512 0.0
C6935 C 0.8839 0.01391 0.33929 0.0
C6936 C 0.8672 0.04215 0.34232 0.0
C6937 C 0.85005 0.05227 0.34603 0.0
C6938 C 0.83436 0.04897 0.33585 0.0
C6939 C 0.81761 0.05655 0.34088 0.0
C6940 C 0.81644 0.06776 0.35585 0.0
C6941 C 0.83206 0.07152 0.36571 0.0
C6942 C 0.84884 0.06382 0.36083 0.0
C6943 C 0.92761 0.05889 0.29179 0.0
C6944 C 0.93676 0.07226 0.30089 0.0
C6945 C 0.91508 0.0486 0.30109 0.0
C6946 C 0.91152 0.05153 0.31961 0.0
C6947 C 0.92065 0.06478 0.32878 0.0
C6948 C 0.93329 0.07503 0.3195 0.0
C6949 C 0.89743 0.04147 0.32913 0.0
C6950 C 0.8819 0.05097 0.33491 0.0
C6951 C 0.89847 0.0227 0.33107 0.0
C6952 C 0.91424 0.01214 0.32393 0.0
C6953 C 0.93213 0.01623 0.3287 0.0
C6954 C 0.94689 0.00733 0.32058 0.0
C6955 C 0.94397 0.99411 0.30787 0.0
C6956 C 0.92629 0.98964 0.30339 0.0
C6957 C 0.91147 -0.00144 0.31138 0.0
H6958 H 0.95538 0.98732 0.30148 0.0
H6959 H 0.80344 0.07354 0.3598 0.0
H6960 H 0.40003 0.20843 0.08041 0.0
H6961 H 0.41766 0.2066 0.10869 0.0
H6962 H 0.37472 0.23475 0.13708 0.0
H6963 H 0.35687 0.23652 0.10892 0.0
H6964 H 0.42405 0.23782 0.14285 0.0
H6965 H 0.36528 0.20393 0.15297 0.0
H6966 H 0.3416 0.19004 0.13467 0.0
H6967 H 0.38223 0.15729 0.10858 0.0
H6968 H 0.40613 0.17115 0.1266 0.0
H6969 H 0.44725 0.16846 0.22006 0.0
H6970 H 0.43041 0.19357 0.20555 0.0
H6971 H 0.45626 0.1817 0.1542 0.0
H6972 H 0.47349 0.15711 0.16868 0.0
H6973 H 0.41075 0.17777 0.1678 0.0
H6974 H 0.46701 0.21335 0.15044 0.0
H6975 H 0.4942 0.22641 0.16379 0.0
H6976 H 0.46073 0.25466 0.20227 0.0
H6977 H 0.43336 0.2415 0.18927 0.0
C6978 C 0.39428 0.21405 0.09272 0.0
C6979 C 0.37694 0.22218 0.09261 0.0
C6980 C 0.40458 0.21355 0.10864 0.0
C6981 C 0.39764 0.22107 0.12468 0.0
C6982 C 0.38043 0.22936 0.12463 0.0
C6983 C 0.37005 0.22978 0.10872 0.0
C6984 C 0.40618 0.21561 0.14202 0.0
C6985 C 0.42079 0.22504 0.14886 0.0
C6986 C 0.40192 0.19888 0.14956 0.0
C6987 C 0.38742 0.18833 0.14135 0.0
C6988 C 0.36908 0.19346 0.14364 0.0
C6989 C 0.35565 0.18574 0.13318 0.0
C6990 C 0.3604 0.17274 0.12052 0.0
C6991 C 0.37856 0.16728 0.11847 0.0
C6992 C 0.39204 0.175 0.12886 0.0
C6993 C 0.45013 0.17203 0.20596 0.0
C6994 C 0.46175 0.16127 0.19544 0.0
C6995 C 0.44045 0.18618 0.1977 0.0
C6996 C 0.4423 0.18939 0.17891 0.0
C6997 C 0.45513 0.17959 0.16881 0.0
C6998 C 0.46497 0.16565 0.17708 0.0
C6999 C 0.42855 0.2 0.16887 0.0
C7000 C 0.41318 0.19121 0.16297 0.0
C7001 C 0.4321 0.21725 0.16234 0.0
C7002 C 0.44819 0.22659 0.16882 0.0
C7003 C 0.46546 0.22249 0.16163 0.0
C7004 C 0.4809 0.22982 0.1692 0.0
C7005 C 0.47919 0.24139 0.18385 0.0
C7006 C 0.46202 0.24574 0.19089 0.0
C7007 C 0.44655 0.23835 0.18342 0.0
H7008 H 0.49117 0.24696 0.18979 0.0
H7009 H 0.35002 0.16695 0.11226 0.0
H7010 H 0.60991 0.71201 0.90232 0.0
H7011 H 0.59341 0.69442 0.88036 0.0
H7012 H 0.57191 0.66286 0.9248 0.0
H7013 H 0.58925 0.67981 0.94671 0.0
H7014 H 0.58166 0.64314 0.89525 0.0
H7015 H 0.55643 0.70236 0.90572 0.0
H7016 H 0.55247 0.73457 0.90358 0.0
H7017 H 0.5467 0.73189 0.8454 0.0
H7018 H 0.55109 0.69947 0.84699 0.0
H7019 H 0.50656 0.60651 0.8484 0.0
H7020 H 0.52278 0.6234 0.8715 0.0
H7021 H 0.54746 0.65448 0.82855 0.0
H7022 H 0.532 0.63741 0.80567 0.0
H7023 H 0.53432 0.67479 0.85803 0.0
H7024 H 0.571 0.62399 0.84374 0.0
H7025 H 0.57696 0.59201 0.83944 0.0
H7026 H 0.56714 0.58196 0.89649 0.0
H7027 H 0.56059 0.61392 0.90105 0.0
C7028 C 0.60168 0.70126 0.90733 0.0
C7029 C 0.6004 0.69739 0.92611 0.0
C7030 C 0.59242 0.69119 0.89481 0.0
C7031 C 0.58117 0.67766 0.90105 0.0
C7032 C 0.58046 0.67335 0.91979 0.0
C7033 C 0.59018 0.68308 0.93226 0.0
C7034 C 0.56922 0.66866 0.88833 0.0
C7035 C 0.57121 0.6501 0.88725 0.0
C7036 C 0.55608 0.67804 0.87732 0.0
C7037 C 0.55395 0.69797 0.87655 0.0
C7038 C 0.55436 0.70835 0.89238 0.0
C7039 C 0.5521 0.72683 0.89128 0.0
C7040 C 0.54926 0.7353 0.87437 0.0
C7041 C 0.54884 0.7253 0.85853 0.0
C7042 C 0.55123 0.70682 0.85956 0.0
C7043 C 0.51561 0.61684 0.84402 0.0
C7044 C 0.51843 0.62047 0.82538 0.0
C7045 C 0.52465 0.62655 0.85713 0.0
C7046 C 0.53615 0.64021 0.85161 0.0
C7047 C 0.53853 0.64407 0.83301 0.0
C7048 C 0.52994 0.63412 0.81999 0.0
C7049 C 0.54708 0.64961 0.86495 0.0
C7050 C 0.54484 0.6681 0.86615 0.0
C7051 C 0.56072 0.64053 0.87521 0.0
C7052 C 0.56499 0.62133 0.87269 0.0
C7053 C 0.56988 0.61495 0.85534 0.0
C7054 C 0.57338 0.59683 0.85285 0.0
C7055 C 0.57235 0.58495 0.86767 0.0
C7056 C 0.56786 0.59119 0.88502 0.0
C7057 C 0.56422 0.60931 0.88756 0.0
H7058 H 0.57509 0.57092 0.86572 0.0
H7059 H 0.54742 0.7496 0.87355 0.0
H7060 H 0.13832 0.78179 0.60014 0.0
H7061 H 0.12868 0.80799 0.61716 0.0
H7062 H 0.07365 0.78978 0.61808 0.0
H7063 H 0.08311 0.7637 0.60072 0.0
H7064 H 0.07611 0.82665 0.61081 0.0
H7065 H 0.09705 0.78021 0.653 0.0
H7066 H 0.11964 0.75738 0.66322 0.0
H7067 H 0.15916 0.79753 0.66992 0.0
H7068 H 0.13682 0.82059 0.6594 0.0
H7069 H 0.0291 0.84675 0.69057 0.0
H7070 H 0.04465 0.83625 0.66309 0.0
H7071 H 0.09394 0.86057 0.68072 0.0
H7072 H 0.07846 0.87042 0.70851 0.0
H7073 H 0.09983 0.82784 0.67419 0.0
H7074 H 0.06938 0.87533 0.64033 0.0
H7075 H 0.04299 0.89422 0.63095 0.0
H7076 H 0.01652 0.84864 0.61046 0.0
H7077 H 0.04262 0.82945 0.61987 0.0
C7078 C 0.12422 0.7833 0.60419 0.0
C7079 C 0.1114 0.77083 0.59937 0.0
C7080 C 0.11872 0.79836 0.61352 0.0
C7081 C 0.10047 0.80079 0.6184 0.0
C7082 C 0.08773 0.78816 0.61395 0.0
C7083 C 0.09319 0.77316 0.60449 0.0
C7084 C 0.09503 0.81517 0.63038 0.0
C7085 C 0.08131 0.82722 0.62464 0.0
C7086 C 0.10214 0.8157 0.64819 0.0
C7087 C 0.11538 0.80206 0.65525 0.0
C7088 C 0.11059 0.78415 0.65659 0.0
C7089 C 0.12333 0.77117 0.66241 0.0
C7090 C 0.14084 0.77599 0.66716 0.0
C7091 C 0.1456 0.79382 0.66619 0.0
C7092 C 0.13291 0.80685 0.66031 0.0
C7093 C 0.04334 0.84947 0.68856 0.0
C7094 C 0.05302 0.85856 0.70161 0.0
C7095 C 0.05205 0.84399 0.67274 0.0
C7096 C 0.07034 0.84793 0.6698 0.0
C7097 C 0.0798 0.85749 0.68278 0.0
C7098 C 0.07117 0.86271 0.69871 0.0
C7099 C 0.08033 0.83934 0.65498 0.0
C7100 C 0.09506 0.82817 0.66015 0.0
C7101 C 0.07362 0.83931 0.63688 0.0
C7102 C 0.05803 0.85095 0.63079 0.0
C7103 C 0.05793 0.86933 0.63385 0.0
C7104 C 0.04301 0.88009 0.62852 0.0
C7105 C 0.0281 0.87263 0.6201 0.0
C7106 C 0.0281 0.85441 0.61693 0.0
C7107 C 0.04299 0.84359 0.6222 0.0
H7108 H 0.01653 0.88097 0.61607 0.0
H7109 H 0.15071 0.76593 0.67163 0.0
H7110 H 0.88896 0.29224 0.41303 0.0
H7111 H 0.90584 0.30326 0.38679 0.0
H7112 H 0.95582 0.29672 0.41724 0.0
H7113 H 0.93872 0.28635 0.44394 0.0
H7114 H 0.95041 0.32947 0.40712 0.0
H7115 H 0.94742 0.27446 0.37683 0.0
H7116 H 0.93305 0.24778 0.36521 0.0
H7117 H 0.89971 0.28027 0.32917 0.0
H7118 H 0.91352 0.3072 0.34084 0.0
H7119 H 0.99821 0.37263 0.33649 0.0
H7120 H 0.98649 0.35297 0.35997 0.0
H7121 H 0.93494 0.35249 0.33197 0.0
H7122 H 0.94762 0.37076 0.30716 0.0
H7123 H 0.94463 0.32045 0.34049 0.0
H7124 H 0.94399 0.3751 0.37487 0.0
H7125 H 0.95819 0.40185 0.38662 0.0
H7126 H 0.99788 0.36921 0.41536 0.0
H7127 H 0.9841 0.34228 0.40355 0.0
C7128 C 0.9036 0.29277 0.41397 0.0
C7129 C 0.91258 0.28898 0.43053 0.0
C7130 C 0.91327 0.29885 0.39888 0.0
C7131 C 0.93209 0.30084 0.40007 0.0
C7132 C 0.94128 0.29536 0.41612 0.0
C7133 C 0.93154 0.28957 0.43134 0.0
C7134 C 0.94129 0.31194 0.38627 0.0
C7135 C 0.94951 0.32725 0.39254 0.0
C7136 C 0.93957 0.30927 0.36726 0.0
C7137 C 0.93148 0.29296 0.35986 0.0
C7138 C 0.93694 0.27598 0.36653 0.0
C7139 C 0.92888 0.26078 0.35992 0.0
C7140 C 0.91546 0.26233 0.34649 0.0
C7141 C 0.91011 0.27908 0.33959 0.0
C7142 C 0.91806 0.29433 0.34619 0.0
C7143 C 0.98409 0.36902 0.33578 0.0
C7144 C 0.97359 0.37351 0.32035 0.0
C7145 C 0.97742 0.35762 0.34917 0.0
C7146 C 0.95971 0.3514 0.34793 0.0
C7147 C 0.94866 0.3571 0.33318 0.0
C7148 C 0.95569 0.36785 0.31927 0.0
C7149 C 0.9532 0.33816 0.36145 0.0
C7150 C 0.9456 0.32249 0.35509 0.0
C7151 C 0.95532 0.34046 0.38046 0.0
C7152 C 0.96308 0.35668 0.38821 0.0
C7153 C 0.95576 0.37363 0.38367 0.0
C7154 C 0.96375 0.38883 0.39032 0.0
C7155 C 0.97895 0.38723 0.40169 0.0
C7156 C 0.98612 0.37043 0.40654 0.0
C7157 C 0.9782 0.3552 0.39989 0.0
H7158 H 0.98516 0.39901 0.40677 0.0
H7159 H 0.90922 0.25056 0.34142 0.0
H7160 H 0.43605 0.82589 0.28243 0.0
H7161 H 0.42099 0.80991 0.30756 0.0
H7162 H 0.44656 0.84353 0.34653 0.0
H7163 H 0.46243 0.85848 0.32163 0.0
H7164 H 0.44727 0.8124 0.36012 0.0
H7165 H 0.39862 0.8486 0.33187 0.0
H7166 H 0.38007 0.85901 0.30548 0.0
H7167 H 0.36379 0.80559 0.29646 0.0
H7168 H 0.38242 0.79493 0.32269 0.0
H7169 H 0.39048 0.79991 0.4375 0.0
H7170 H 0.40485 0.81366 0.41061 0.0
H7171 H 0.38335 0.77327 0.37641 0.0
H7172 H 0.36873 0.75984 0.40295 0.0
H7173 H 0.38053 0.80555 0.3598 0.0
H7174 H 0.43096 0.76899 0.38537 0.0
H7175 H 0.44953 0.75775 0.41141 0.0
H7176 H 0.46103 0.81124 0.42593 0.0
H7177 H 0.44262 0.82274 0.39985 0.0
C7178 C 0.43833 0.8298 0.29639 0.0
C7179 C 0.45025 0.84342 0.30017 0.0
C7180 C 0.4297 0.82075 0.31076 0.0
C7181 C 0.43233 0.82568 0.32905 0.0
C7182 C 0.44429 0.83935 0.33265 0.0
C7183 C 0.45328 0.84798 0.3184 0.0
C7184 C 0.42263 0.8169 0.34456 0.0
C7185 C 0.43265 0.81114 0.36004 0.0
C7186 C 0.40359 0.81463 0.34448 0.0
C7187 C 0.39202 0.82101 0.32906 0.0
C7188 C 0.39113 0.83912 0.32417 0.0
C7189 C 0.38061 0.84505 0.30927 0.0
C7190 C 0.3708 0.83295 0.29926 0.0
C7191 C 0.37142 0.81493 0.30421 0.0
C7192 C 0.38193 0.80896 0.3191 0.0
C7193 C 0.38864 0.79417 0.4242 0.0
C7194 C 0.37851 0.77882 0.42233 0.0
C7195 C 0.39699 0.80189 0.40888 0.0
C7196 C 0.39544 0.79429 0.39153 0.0
C7197 C 0.38478 0.77935 0.38962 0.0
C7198 C 0.37642 0.7717 0.40484 0.0
C7199 C 0.40513 0.80167 0.37538 0.0
C7200 C 0.39514 0.80692 0.35979 0.0
C7201 C 0.42415 0.80347 0.37532 0.0
C7202 C 0.43548 0.79669 0.39074 0.0
C7203 C 0.43749 0.77832 0.39413 0.0
C7204 C 0.44799 0.77191 0.40886 0.0
C7205 C 0.45645 0.78378 0.42032 0.0
C7206 C 0.45449 0.80207 0.41703 0.0
C7207 C 0.44409 0.80854 0.40224 0.0
H7208 H 0.46452 0.7788 0.43176 0.0
H7209 H 0.36269 0.83755 0.2877 0.0
H7210 H 0.97084 0.61028 0.15906 0.0
H7211 H 0.96556 0.6245 0.12908 0.0
H7212 H 0.95875 0.6753 0.15488 0.0
H7213 H 0.96349 0.66106 0.18483 0.0
H7214 H 0.93316 0.67164 0.13229 0.0
H7215 H 0.99812 0.66375 0.12608 0.0
H7216 H 0.02804 0.64823 0.12491 0.0
H7217 H 0.00859 0.61359 0.08394 0.0
H7218 H 0.97857 0.62891 0.08471 0.0
H7219 H 0.92361 0.71952 0.04761 0.0
H7220 H 0.93771 0.70918 0.07651 0.0
H7221 H 0.93807 0.65532 0.0576 0.0
H7222 H 0.92322 0.66543 0.02932 0.0
H7223 H 0.96999 0.66274 0.07629 0.0
H7224 H 0.90564 0.66226 0.08997 0.0
H7225 H 0.87405 0.67283 0.09321 0.0
H7226 H 0.89157 0.7198 0.11952 0.0
H7227 H 0.92345 0.70885 0.1174 0.0
C7228 C 0.96791 0.62445 0.15834 0.0
C7229 C 0.96723 0.63449 0.17437 0.0
C7230 C 0.9653 0.63264 0.14112 0.0
C7231 C 0.96216 0.6511 0.13954 0.0
C7232 C 0.96126 0.66107 0.15562 0.0
C7233 C 0.96372 0.65288 0.17281 0.0
C7234 C 0.95778 0.65982 0.12148 0.0
C7235 C 0.94164 0.67009 0.12025 0.0
C7236 C 0.96827 0.65723 0.10538 0.0
C7237 C 0.98601 0.64737 0.10561 0.0
C7238 C 0.00014 0.65268 0.11698 0.0
C7239 C 0.01715 0.64398 0.11633 0.0
C7240 C 0.02019 0.6299 0.10445 0.0
C7241 C 0.00622 0.62448 0.09316 0.0
C7242 C 0.98922 0.6332 0.09365 0.0
C7243 C 0.92656 0.7055 0.04971 0.0
C7244 C 0.92171 0.69326 0.03645 0.0
C7245 C 0.93476 0.69959 0.06616 0.0
C7246 C 0.93877 0.6814 0.06935 0.0
C7247 C 0.93504 0.66937 0.05556 0.0
C7248 C 0.92645 0.6752 0.03941 0.0
C7249 C 0.94562 0.67467 0.08746 0.0
C7250 C 0.96201 0.66468 0.08859 0.0
C7251 C 0.93539 0.67726 0.10356 0.0
C7252 C 0.91681 0.68499 0.10312 0.0
C7253 C 0.90275 0.675 0.09613 0.0
C7254 C 0.88478 0.68101 0.09786 0.0
C7255 C 0.88072 0.69722 0.10613 0.0
C7256 C 0.89471 0.70734 0.11294 0.0
C7257 C 0.91274 0.70117 0.11162 0.0
H7258 H 0.86673 0.7018 0.10747 0.0
H7259 H 0.03339 0.62324 0.10396 0.0
H7260 H 0.11868 0.23027 0.9179 0.0
H7261 H 0.10624 0.21648 0.8907 0.0
H7262 H 0.05362 0.21486 0.91667 0.0
H7263 H 0.0662 0.22778 0.94407 0.0
H7264 H 0.06001 0.1858 0.89792 0.0
H7265 H 0.06631 0.24779 0.88949 0.0
H7266 H 0.08099 0.27666 0.88744 0.0
H7267 H 0.11285 0.25862 0.84191 0.0
H7268 H 0.09856 0.22947 0.84387 0.0
H7269 H 0.00802 0.17684 0.81839 0.0
H7270 H 0.02028 0.19187 0.84466 0.0
H7271 H 0.07431 0.18574 0.82247 0.0
H7272 H 0.06222 0.17058 0.79605 0.0
H7273 H 0.06626 0.2192 0.83922 0.0
H7274 H 0.05996 0.15598 0.85006 0.0
H7275 H 0.04237 0.12871 0.85131 0.0
H7276 H 0.0083 0.15093 0.89322 0.0
H7277 H 0.02518 0.17872 0.89162 0.0
C7278 C 0.10456 0.22666 0.9178 0.0
C7279 C 0.09332 0.23003 0.93285 0.0
C7280 C 0.09748 0.21887 0.90235 0.0
C7281 C 0.07899 0.21495 0.90167 0.0
C7282 C 0.06794 0.21774 0.91701 0.0
C7283 C 0.07511 0.22513 0.93258 0.0
C7284 C 0.07085 0.20897 0.88461 0.0
C7285 C 0.06124 0.19318 0.88512 0.0
C7286 C 0.07254 0.21873 0.86798 0.0
C7287 C 0.08133 0.23631 0.86688 0.0
C7288 C 0.07647 0.2499 0.87906 0.0
C7289 C 0.08475 0.26634 0.87794 0.0
C7290 C 0.09784 0.26948 0.86454 0.0
C7291 C 0.10269 0.25617 0.85228 0.0
C7292 C 0.0945 0.23967 0.8534 0.0
C7293 C 0.02249 0.17889 0.81894 0.0
C7294 C 0.03424 0.17232 0.80532 0.0
C7295 C 0.02942 0.18751 0.83392 0.0
C7296 C 0.04815 0.18959 0.83549 0.0
C7297 C 0.0598 0.18414 0.82138 0.0
C7298 C 0.05288 0.17549 0.80636 0.0
C7299 C 0.05578 0.19598 0.85257 0.0
C7300 C 0.06517 0.21188 0.85206 0.0
C7301 C 0.05364 0.1865 0.86927 0.0
C7302 C 0.04373 0.16958 0.87053 0.0
C7303 C 0.0486 0.15517 0.85939 0.0
C7304 C 0.03874 0.1396 0.86017 0.0
C7305 C 0.02425 0.13806 0.87237 0.0
C7306 C 0.01953 0.15214 0.88377 0.0
C7307 C 0.02919 0.16784 0.88287 0.0
H7308 H 0.0167 0.12595 0.87302 0.0
H7309 H 0.10422 0.28224 0.86366 0.0
H7310 H 0.54598 0.33015 0.68637 0.0
H7311 H 0.55783 0.31925 0.65735 0.0
H7312 H 0.54277 0.36914 0.6309 0.0
H7313 H 0.53059 0.38009 0.65995 0.0
H7314 H 0.53167 0.33719 0.61179 0.0
H7315 H 0.58643 0.36203 0.63832 0.0
H7316 H 0.60643 0.36534 0.665 0.0
H7317 H 0.61568 0.30882 0.66804 0.0
H7318 H 0.59571 0.3052 0.64142 0.0
H7319 H 0.59047 0.31498 0.53323 0.0
H7320 H 0.57416 0.33063 0.55781 0.0
H7321 H 0.58147 0.28469 0.59331 0.0
H7322 H 0.59708 0.26889 0.56916 0.0
H7323 H 0.59642 0.3183 0.60566 0.0
H7324 H 0.54376 0.28979 0.58648 0.0
H7325 H 0.52146 0.27976 0.56415 0.0
H7326 H 0.50535 0.3339 0.55199 0.0
H7327 H 0.52785 0.3443 0.57409 0.0
C7328 C 0.5456 0.33896 0.6745 0.0
C7329 C 0.53754 0.356 0.67541 0.0
C7330 C 0.5522 0.33267 0.6579 0.0
C7331 C 0.55109 0.3434 0.64202 0.0
C7332 C 0.5436 0.36065 0.643 0.0
C7333 C 0.53692 0.36694 0.65962 0.0
C7334 C 0.55809 0.33648 0.62455 0.0
C7335 C 0.54586 0.33334 0.61029 0.0
C7336 C 0.57649 0.33103 0.62284 0.0
C7337 C 0.58964 0.33336 0.63787 0.0
C7338 C 0.59284 0.35034 0.64462 0.0
C7339 C 0.60413 0.35226 0.65975 0.0
C7340 C 0.61231 0.3373 0.66821 0.0
C7341 C 0.60938 0.3204 0.66144 0.0
C7342 C 0.59815 0.31841 0.64628 0.0
C7343 C 0.58828 0.30814 0.54616 0.0
C7344 C 0.59538 0.29084 0.54931 0.0
C7345 C 0.57897 0.31706 0.56012 0.0
C7346 C 0.57691 0.30879 0.57733 0.0
C7347 C 0.58308 0.29126 0.58012 0.0
C7348 C 0.59202 0.28228 0.56622 0.0
C7349 C 0.56998 0.31878 0.59307 0.0
C7350 C 0.58227 0.32247 0.607 0.0
C7351 C 0.5515 0.32387 0.59482 0.0
C7352 C 0.53774 0.31785 0.58169 0.0
C7353 C 0.53562 0.29959 0.57889 0.0
C7354 C 0.52292 0.29382 0.56631 0.0
C7355 C 0.51207 0.30619 0.55657 0.0
C7356 C 0.51383 0.32434 0.5595 0.0
C7357 C 0.52656 0.33019 0.57205 0.0
H7358 H 0.50226 0.30171 0.54681 0.0
H7359 H 0.62093 0.3388 0.68001 0.0
H7360 H 0.04539 0.39041 0.22681 0.0
H7361 H 0.0718 0.40192 0.21099 0.0
H7362 H 0.10715 0.37551 0.25059 0.0
H7363 H 0.08034 0.36496 0.26721 0.0
H7364 H 0.11675 0.40945 0.24465 0.0
H7365 H 0.10522 0.35989 0.20587 0.0
H7366 H 0.08363 0.34116 0.1899 0.0
H7367 H 0.06624 0.38585 0.15641 0.0
H7368 H 0.08771 0.40486 0.17223 0.0
H7369 H 0.19353 0.42688 0.18627 0.0
H7370 H 0.1702 0.4103 0.20263 0.0
H7371 H 0.12867 0.44562 0.1799 0.0
H7372 H 0.15195 0.46254 0.16382 0.0
H7373 H 0.12468 0.40442 0.17746 0.0
H7374 H 0.13118 0.4541 0.21916 0.0
H7375 H 0.15267 0.47422 0.23337 0.0
H7376 H 0.17975 0.42969 0.26006 0.0
H7377 H 0.1584 0.4093 0.24592 0.0
C7378 C 0.05884 0.38649 0.23166 0.0
C7379 C 0.06105 0.37637 0.24772 0.0
C7380 C 0.07391 0.39317 0.22275 0.0
C7381 C 0.09148 0.3893 0.22943 0.0
C7382 C 0.09373 0.37856 0.24518 0.0
C7383 C 0.07853 0.37227 0.25442 0.0
C7384 C 0.10723 0.39715 0.22011 0.0
C7385 C 0.11871 0.40802 0.23005 0.0
C7386 C 0.10962 0.39554 0.201 0.0
C7387 C 0.09813 0.38377 0.19017 0.0
C7388 C 0.09692 0.36567 0.19496 0.0
C7389 C 0.08466 0.35503 0.18599 0.0
C7390 C 0.07358 0.36232 0.17214 0.0
C7391 C 0.07489 0.38021 0.16709 0.0
C7392 C 0.08718 0.39091 0.17598 0.0
C7393 C 0.17944 0.43118 0.18492 0.0
C7394 C 0.17448 0.44598 0.17392 0.0
C7395 C 0.16619 0.42168 0.19414 0.0
C7396 C 0.14783 0.42669 0.19218 0.0
C7397 C 0.14282 0.44155 0.18136 0.0
C7398 C 0.15611 0.45128 0.17242 0.0
C7399 C 0.13391 0.41668 0.20199 0.0
C7400 C 0.12285 0.40549 0.19212 0.0
C7401 C 0.13193 0.41796 0.22109 0.0
C7402 C 0.14321 0.43021 0.23153 0.0
C7403 C 0.14159 0.44864 0.22824 0.0
C7404 C 0.15378 0.46007 0.2362 0.0
C7405 C 0.16763 0.45322 0.24751 0.0
C7406 C 0.16903 0.43496 0.25125 0.0
C7407 C 0.15683 0.42346 0.24334 0.0
H7408 H 0.17728 0.46208 0.25334 0.0
H7409 H 0.06396 0.3541 0.16534 0.0
H7410 H 0.31188 0.43131 0.89198 0.0
H7411 H 0.31972 0.40303 0.90736 0.0
H7412 H 0.27613 0.41179 0.9459 0.0
H7413 H 0.2676 0.43975 0.92988 0.0
H7414 H 0.31728 0.41074 0.95723 0.0
H7415 H 0.26978 0.37832 0.92685 0.0
H7416 H 0.25297 0.36707 0.90049 0.0
H7417 H 0.30212 0.34362 0.87917 0.0
H7418 H 0.31922 0.35458 0.90538 0.0
H7419 H 0.34098 0.33749 0.01303 0.0
H7420 H 0.32505 0.36063 0.99528 0.0
H7421 H 0.35078 0.34157 0.94595 0.0
H7422 H 0.36577 0.31741 0.96368 0.0
H7423 H 0.31592 0.34717 0.94086 0.0
H7424 H 0.36439 0.37904 0.96611 0.0
H7425 H 0.38423 0.38668 0.99169 0.0
H7426 H 0.33887 0.41131 0.0192 0.0
H7427 H 0.31865 0.4035 0.99389 0.0
C7428 C 0.30376 0.42694 0.90347 0.0
C7429 C 0.28943 0.43757 0.91011 0.0
C7430 C 0.30808 0.41081 0.91204 0.0
C7431 C 0.29836 0.40553 0.92755 0.0
C7432 C 0.2835 0.41573 0.93373 0.0
C7433 C 0.27881 0.43164 0.92476 0.0
C7434 C 0.3062 0.39147 0.93917 0.0
C7435 C 0.31672 0.39677 0.95396 0.0
C7436 C 0.30607 0.37355 0.93405 0.0
C7437 C 0.29582 0.36749 0.91798 0.0
C7438 C 0.27704 0.37097 0.91643 0.0
C7439 C 0.26745 0.36459 0.90155 0.0
C7440 C 0.27649 0.3548 0.88811 0.0
C7441 C 0.29513 0.35126 0.88956 0.0
C7442 C 0.30477 0.3575 0.90444 0.0
C7443 C 0.34347 0.3385 -0.00155 0.0
C7444 C 0.35449 0.32598 0.98951 0.0
C7445 C 0.33436 0.35161 0.98836 0.0
C7446 C 0.33693 0.35275 0.96942 0.0
C7447 C 0.34865 0.34069 0.96059 0.0
C7448 C 0.35729 0.32715 0.97063 0.0
C7449 C 0.32705 0.36643 0.95883 0.0
C7450 C 0.31633 0.36111 0.94425 0.0
C7451 C 0.32761 0.38445 0.96362 0.0
C7452 C 0.33997 0.39061 0.97811 0.0
C7453 C 0.35864 0.38614 0.97758 0.0
C7454 C 0.36994 0.39043 0.99206 0.0
C7455 C 0.3628 0.39945 0.00708 0.0
C7456 C 0.34437 0.40433 0.00755 0.0
C7457 C 0.33298 0.4 0.99311 0.0
H7458 H 0.37155 0.40267 0.01834 0.0
H7459 H 0.26902 0.34989 0.87662 0.0
H7460 H 0.39744 0.59722 0.7492 0.0
H7461 H 0.36946 0.58275 0.74131 0.0
H7462 H 0.39454 0.56291 0.6922 0.0
H7463 H 0.4232 0.57696 0.70047 0.0
H7464 H 0.36046 0.59043 0.69279 0.0
H7465 H 0.38065 0.53016 0.70678 0.0
H7466 H 0.38806 0.50063 0.72038 0.0
H7467 H 0.34957 0.51021 0.76345 0.0
H7468 H 0.34199 0.53979 0.7501 0.0
H7469 H 0.30761 0.53187 0.64575 0.0
H7470 H 0.32902 0.54993 0.66176 0.0
H7471 H 0.29397 0.55062 0.70908 0.0
H7472 H 0.27209 0.53263 0.69286 0.0
H7473 H 0.32845 0.53719 0.71469 0.0
H7474 H 0.30116 0.58822 0.68817 0.0
H7475 H 0.2878 0.60818 0.66447 0.0
H7476 H 0.33935 0.61074 0.63743 0.0
H7477 H 0.35294 0.59017 0.66041 0.0
C7478 C 0.39708 0.58969 0.73674 0.0
C7479 C 0.41226 0.58858 0.7251 0.0
C7480 C 0.3812 0.58114 0.73249 0.0
C7481 C 0.38011 0.57155 0.71641 0.0
C7482 C 0.39537 0.56998 0.70492 0.0
C7483 C 0.41155 0.5782 0.70944 0.0
C7484 C 0.36209 0.56685 0.70986 0.0
C7485 C 0.3535 0.57863 0.6973 0.0
C7486 C 0.35271 0.55206 0.71672 0.0
C7487 C 0.36119 0.53743 0.72775 0.0
C7488 C 0.37434 0.52627 0.71957 0.0
C7489 C 0.37827 0.50935 0.727 0.0
C7490 C 0.36922 0.5035 0.74271 0.0
C7491 C 0.35653 0.51472 0.75126 0.0
C7492 C 0.35255 0.53163 0.74386 0.0
C7493 C 0.30441 0.53587 0.65955 0.0
C7494 C 0.28831 0.53079 0.66819 0.0
C7495 C 0.31645 0.54652 0.66851 0.0
C7496 C 0.31273 0.55204 0.68632 0.0
C7497 C 0.29675 0.54683 0.69511 0.0
C7498 C 0.28451 0.53633 0.68602 0.0
C7499 C 0.32737 0.55996 0.69666 0.0
C7500 C 0.3352 0.5492 0.7104 0.0
C7501 C 0.33628 0.57523 0.69027 0.0
C7502 C 0.32809 0.58746 0.6761 0.0
C7503 C 0.30964 0.59278 0.67704 0.0
C7504 C 0.30201 0.60422 0.66368 0.0
C7505 C 0.31271 0.61064 0.64939 0.0
C7506 C 0.33106 0.60564 0.64842 0.0
C7507 C 0.33873 0.59406 0.66162 0.0
H7508 H 0.3068 0.61954 0.6391 0.0
H7509 H 0.37215 0.49035 0.74833 0.0
H7510 H 0.12713 0.66322 0.50421 0.0
H7511 H 0.14531 0.63766 0.49432 0.0
H7512 H 0.17216 0.67064 0.45449 0.0
H7513 H 0.15437 0.69677 0.4649 0.0
H7514 H 0.14777 0.63788 0.44473 0.0
H7515 H 0.19949 0.65677 0.48201 0.0
H7516 H 0.21599 0.66306 0.5104 0.0
H7517 H 0.20205 0.61219 0.53281 0.0
H7518 H 0.18552 0.60558 0.50461 0.0
H7519 H 0.21203 0.58572 0.39744 0.0
H7520 H 0.19688 0.60902 0.41519 0.0
H7521 H 0.18557 0.57095 0.45799 0.0
H7522 H 0.20029 0.54716 0.43987 0.0
H7523 H 0.20049 0.6034 0.47016 0.0
H7524 H 0.15497 0.58099 0.43466 0.0
H7525 H 0.13695 0.57075 0.40894 0.0
H7526 H 0.13102 0.6242 0.38826 0.0
H7527 H 0.15089 0.63461 0.41254 0.0
C7528 C 0.13689 0.66511 0.49331 0.0
C7529 C 0.13904 0.68189 0.48492 0.0
C7530 C 0.14751 0.65054 0.488 0.0
C7531 C 0.16024 0.65242 0.47399 0.0
C7532 C 0.16259 0.66914 0.46563 0.0
C7533 C 0.15223 0.68391 0.47128 0.0
C7534 C 0.16813 0.63639 0.46567 0.0
C7535 C 0.15961 0.63052 0.4499 0.0
C7536 C 0.18243 0.62609 0.47372 0.0
C7537 C 0.19109 0.63077 0.49123 0.0
C7538 C 0.19968 0.64705 0.4931 0.0
C7539 C 0.20916 0.65062 0.50913 0.0
C7540 C 0.21009 0.63802 0.52339 0.0
C7541 C 0.20137 0.62192 0.52176 0.0
C7542 C 0.19197 0.61825 0.50575 0.0
C7543 C 0.20625 0.5823 0.41063 0.0
C7544 C 0.20716 0.56474 0.41738 0.0
C7545 C 0.19763 0.59557 0.4207 0.0
C7546 C 0.19015 0.59151 0.43782 0.0
C7547 C 0.19134 0.57407 0.44477 0.0
C7548 C 0.19955 0.56063 0.43445 0.0
C7549 C 0.18099 0.60566 0.44826 0.0
C7550 C 0.18886 0.61089 0.46469 0.0
C7551 C 0.16557 0.61502 0.4412 0.0
C7552 C 0.15496 0.60857 0.4254 0.0
C7553 C 0.15061 0.59053 0.42422 0.0
C7554 C 0.14007 0.58466 0.40979 0.0
C7555 C 0.13315 0.59678 0.39675 0.0
C7556 C 0.13685 0.61476 0.39806 0.0
C7557 C 0.14796 0.62062 0.41205 0.0
H7558 H 0.12474 0.59227 0.38575 0.0
H7559 H 0.2177 0.6407 0.53561 0.0
H7560 H 0.09241 0.60086 0.25487 0.0
H7561 H 0.11729 0.58666 0.2724 0.0
H7562 H 0.08913 0.59846 0.32263 0.0
H7563 H 0.06399 0.61247 0.30509 0.0
H7564 H 0.12623 0.60802 0.32156 0.0
H7565 H 0.09027 0.55701 0.30999 0.0
H7566 H 0.07355 0.53606 0.29126 0.0
H7567 H 0.12193 0.52415 0.26055 0.0
H7568 H 0.13888 0.54517 0.27895 0.0
H7569 H 0.18877 0.55179 0.37579 0.0
H7570 H 0.15992 0.56318 0.36257 0.0
H7571 H 0.18324 0.5602 0.30857 0.0
H7572 H 0.21232 0.54982 0.32184 0.0
H7573 H 0.14658 0.54525 0.3141 0.0
H7574 H 0.1828 0.59515 0.32393 0.0
H7575 H 0.20035 0.61793 0.33892 0.0
H7576 H 0.15295 0.63565 0.36804 0.0
H7577 H 0.13524 0.61194 0.35437 0.0
C7578 C 0.09158 0.60055 0.26966 0.0
C7579 C 0.07636 0.60791 0.27865 0.0
C7580 C 0.1057 0.59226 0.27964 0.0
C7581 C 0.10494 0.5913 0.29879 0.0
C7582 C 0.08991 0.59895 0.30784 0.0
C7583 C 0.07563 0.60703 0.29784 0.0
C7584 C 0.12034 0.58316 0.3093 0.0
C7585 C 0.13048 0.59418 0.32039 0.0
C7586 C 0.12613 0.56526 0.30706 0.0
C7587 C 0.11582 0.55282 0.29577 0.0
C7588 C 0.0973 0.55007 0.29913 0.0
C7589 C 0.08779 0.53813 0.2886 0.0
C7590 C 0.09665 0.52882 0.27469 0.0
C7591 C 0.11506 0.53139 0.27131 0.0
C7592 C 0.12464 0.54329 0.28181 0.0
C7593 C 0.18759 0.5534 0.36109 0.0
C7594 C 0.2026 0.54987 0.34974 0.0
C7595 C 0.17121 0.56 0.35359 0.0
C7596 C 0.16954 0.56267 0.33462 0.0
C7597 C 0.18431 0.5583 0.32325 0.0
C7598 C 0.20085 0.55234 0.33079 0.0
C7599 C 0.15251 0.57013 0.32647 0.0
C7600 C 0.14213 0.55899 0.31573 0.0
C7601 C 0.14669 0.58806 0.3288 0.0
C7602 C 0.15777 0.60119 0.33853 0.0
C7603 C 0.1762 0.60328 0.33414 0.0
C7604 C 0.18619 0.61645 0.34238 0.0
C7605 C 0.17781 0.628 0.35469 0.0
C7606 C 0.15946 0.62637 0.35885 0.0
C7607 C 0.14949 0.61296 0.35097 0.0
H7608 H 0.18548 0.63838 0.36083 0.0
H7609 H 0.08927 0.51959 0.26656 0.0
H7610 H 0.09288 0.33883 0.04697 0.0
H7611 H 0.10467 0.36799 0.05459 0.0
H7612 H 0.15917 0.34838 0.04413 0.0
H7613 H 0.1477 0.31935 0.03703 0.0
H7614 H 0.14783 0.35711 0.08146 0.0
H7615 H 0.15022 0.38002 0.01988 0.0
H7616 H 0.14073 0.39117 0.98936 0.0
H7617 H 0.10494 0.42985 0.01398 0.0
H7618 H 0.11407 0.41883 0.04464 0.0
H7619 H 0.20432 0.43039 0.10312 0.0
H7620 H 0.19046 0.40569 0.08721 0.0
H7621 H 0.13719 0.42854 0.09764 0.0
H7622 H 0.15074 0.45282 0.11379 0.0
H7623 H 0.14632 0.41971 0.05945 0.0
H7624 H 0.14405 0.3959 0.12073 0.0
H7625 H 0.15425 0.38485 0.15105 0.0
H7626 H 0.1909 0.3474 0.12568 0.0
H7627 H 0.1811 0.35841 0.09521 0.0
C7628 C 0.10737 0.3408 0.0464 0.0
C7629 C 0.11947 0.32672 0.04215 0.0
C7630 C 0.11399 0.35753 0.05019 0.0
C7631 C 0.13271 0.36029 0.04953 0.0
C7632 C 0.14464 0.34649 0.04436 0.0
C7633 C 0.13811 0.32981 0.04083 0.0
C7634 C 0.14023 0.3751 0.05938 0.0
C7635 C 0.14783 0.37077 0.07647 0.0
C7636 C 0.13947 0.39292 0.05301 0.0
C7637 C 0.13256 0.39831 0.03461 0.0
C7638 C 0.14 0.39061 0.01881 0.0
C7639 C 0.1348 0.39702 0.00147 0.0
C7640 C 0.12217 0.41115 -0.00027 0.0
C7641 C 0.11466 0.41885 0.01534 0.0
C7642 C 0.11984 0.41252 0.0327 0.0
C7643 C 0.18969 0.43001 0.10206 0.0
C7644 C 0.17857 0.44345 0.1095 0.0
C7645 C 0.18183 0.41597 0.09309 0.0
C7646 C 0.16289 0.41548 0.09139 0.0
C7647 C 0.15183 0.42883 0.09889 0.0
C7648 C 0.15961 0.44264 0.10805 0.0
C7649 C 0.15455 0.40145 0.08105 0.0
C7650 C 0.14651 0.40597 0.06417 0.0
C7651 C 0.15502 0.38371 0.08743 0.0
C7652 C 0.1621 0.37824 0.10569 0.0
C7653 C 0.15458 0.3856 0.12161 0.0
C7654 C 0.16019 0.37924 0.13883 0.0
C7655 C 0.17327 0.36549 0.14029 0.0
C7656 C 0.18083 0.35811 0.12454 0.0
C7657 C 0.17527 0.36442 0.1073 0.0
H7658 H 0.1775 0.36049 0.15363 0.0
H7659 H 0.11827 0.41617 0.98631 0.0
H7660 H 0.32731 0.45197 0.86442 0.0
H7661 H 0.35206 0.43415 0.85134 0.0
H7662 H 0.31362 0.40649 0.81864 0.0
H7663 H 0.2886 0.4235 0.8329 0.0
H7664 H 0.33906 0.38394 0.82925 0.0
H7665 H 0.33977 0.44269 0.80141 0.0
H7666 H 0.3398 0.4754 0.80244 0.0
H7667 H 0.39044 0.47286 0.83139 0.0
H7668 H 0.39064 0.4401 0.83068 0.0
H7669 H 0.40256 0.36214 0.7568 0.0
H7670 H 0.37718 0.37454 0.77478 0.0
H7671 H 0.41434 0.38761 0.81761 0.0
H7672 H 0.43961 0.37487 0.80002 0.0
H7673 H 0.3903 0.41686 0.80225 0.0
H7674 H 0.38992 0.3582 0.82923 0.0
H7675 H 0.39068 0.3256 0.82672 0.0
H7676 H 0.34006 0.32826 0.79773 0.0
H7677 H 0.33913 0.36095 0.79984 0.0
C7678 C 0.32416 0.44215 0.85437 0.0
C7679 C 0.30613 0.43933 0.84934 0.0
C7680 C 0.33831 0.43195 0.84689 0.0
C7681 C 0.33481 0.4193 0.83356 0.0
C7682 C 0.31671 0.41623 0.8288 0.0
C7683 C 0.30245 0.42604 0.83679 0.0
C7684 C 0.35007 0.40985 0.82416 0.0
C7685 C 0.35012 0.39119 0.82319 0.0
C7686 C 0.36476 0.41922 0.81646 0.0
C7687 C 0.36514 0.43893 0.81611 0.0
C7688 C 0.35091 0.44911 0.80799 0.0
C7689 C 0.35088 0.46765 0.80854 0.0
C7690 C 0.36508 0.4762 0.81704 0.0
C7691 C 0.37944 0.46622 0.82484 0.0
C7692 C 0.37955 0.44766 0.82433 0.0
C7693 C 0.40521 0.36733 0.77021 0.0
C7694 C 0.42298 0.36762 0.77704 0.0
C7695 C 0.39077 0.37444 0.78041 0.0
C7696 C 0.39402 0.38209 0.79739 0.0
C7697 C 0.41166 0.38183 0.80447 0.0
C7698 C 0.42602 0.37447 0.79446 0.0
C7699 C 0.37912 0.39116 0.80736 0.0
C7700 C 0.37918 0.40971 0.80838 0.0
C7701 C 0.36458 0.38173 0.81496 0.0
C7702 C 0.3645 0.36204 0.8146 0.0
C7703 C 0.37896 0.35184 0.82229 0.0
C7704 C 0.37943 0.33335 0.82093 0.0
C7705 C 0.36544 0.32487 0.81204 0.0
C7706 C 0.35088 0.33486 0.80461 0.0
C7707 C 0.35035 0.35337 0.80592 0.0
H7708 H 0.36587 0.31055 0.81092 0.0
H7709 H 0.36494 0.49054 0.81757 0.0
H7710 H 0.33475 0.65857 0.50173 0.0
H7711 H 0.32281 0.63349 0.51911 0.0
H7712 H 0.35038 0.65088 0.56736 0.0
H7713 H 0.36357 0.67514 0.54945 0.0
H7714 H 0.35399 0.61902 0.56819 0.0
H7715 H 0.30155 0.65401 0.55997 0.0
H7716 H 0.27475 0.67143 0.54916 0.0
H7717 H 0.2574 0.62712 0.51831 0.0
H7718 H 0.28436 0.60955 0.52845 0.0
H7719 H 0.29674 0.56213 0.62314 0.0
H7720 H 0.31129 0.58756 0.60835 0.0
H7721 H 0.3071 0.56234 0.55611 0.0
H7722 H 0.29291 0.53664 0.57105 0.0
H7723 H 0.29161 0.59815 0.55936 0.0
H7724 H 0.34698 0.56443 0.57396 0.0
H7725 H 0.3678 0.54876 0.59557 0.0
H7726 H 0.37297 0.59654 0.62595 0.0
H7727 H 0.35205 0.61247 0.60461 0.0
C7728 C 0.33838 0.65688 0.51602 0.0
C7729 C 0.35025 0.66855 0.52425 0.0
C7730 C 0.33126 0.64274 0.52605 0.0
C7731 C 0.33524 0.64041 0.54474 0.0
C7732 C 0.34707 0.65226 0.55298 0.0
C7733 C 0.35469 0.66607 0.54276 0.0
C7734 C 0.32812 0.62489 0.55519 0.0
C7735 C 0.34015 0.61483 0.56649 0.0
C7736 C 0.31004 0.61915 0.55317 0.0
C7737 C 0.29521 0.63048 0.54485 0.0
C7738 C 0.29231 0.64808 0.55051 0.0
C7739 C 0.27697 0.65795 0.54461 0.0
C7740 C 0.26433 0.65034 0.53315 0.0
C7741 C 0.26717 0.63297 0.52726 0.0
C7742 C 0.28254 0.62309 0.533 0.0
C7743 C 0.29921 0.56198 0.60854 0.0
C7744 C 0.29386 0.5476 0.59811 0.0
C7745 C 0.30755 0.5764 0.60015 0.0
C7746 C 0.3104 0.57669 0.5812 0.0
C7747 C 0.30516 0.56221 0.57079 0.0
C7748 C 0.2971 0.54762 0.57925 0.0
C7749 C 0.31731 0.59279 0.57204 0.0
C7750 C 0.30526 0.6028 0.56099 0.0
C7751 C 0.33483 0.5991 0.5753 0.0
C7752 C 0.34778 0.58958 0.5878 0.0
C7753 C 0.35246 0.57157 0.58532 0.0
C7754 C 0.36431 0.56265 0.5975 0.0
C7755 C 0.37165 0.57163 0.61216 0.0
C7756 C 0.36727 0.58959 0.6146 0.0
C7757 C 0.35544 0.59857 0.60245 0.0
H7758 H 0.38078 0.56469 0.6216 0.0
H7759 H 0.2524 0.65795 0.52873 0.0
H7760 H 0.26555 0.09848 0.38375 0.0
H7761 H 0.24562 0.11812 0.40165 0.0
H7762 H 0.20016 0.10462 0.36805 0.0
H7763 H 0.21993 0.08475 0.3503 0.0
H7764 H 0.20827 0.14167 0.3721 0.0
H7765 H 0.20065 0.08771 0.40725 0.0
H7766 H 0.20968 0.0617 0.42644 0.0
H7767 H 0.23091 0.09598 0.4669 0.0
H7768 H 0.22245 0.1222 0.44779 0.0
H7769 H 0.1389 0.18951 0.41229 0.0
H7770 H 0.15572 0.16338 0.40158 0.0
H7771 H 0.19515 0.16916 0.4445 0.0
H7772 H 0.17784 0.19513 0.45572 0.0
H7773 H 0.19062 0.13473 0.43725 0.0
H7774 H 0.2025 0.18753 0.40252 0.0
H7775 H 0.19778 0.21432 0.38302 0.0
H7776 H 0.17294 0.18315 0.34193 0.0
H7777 H 0.17726 0.15623 0.36129 0.0
C7778 C 0.25137 0.10001 0.38 0.0
C7779 C 0.24416 0.09036 0.36562 0.0
C7780 C 0.24 0.11083 0.39046 0.0
C7781 C 0.22146 0.11223 0.38641 0.0
C7782 C 0.21442 0.10326 0.37153 0.0
C7783 C 0.22571 0.09225 0.36124 0.0
C7784 C 0.2098 0.12489 0.39613 0.0
C7785 C 0.20409 0.14004 0.38626 0.0
C7786 C 0.20527 0.12287 0.41481 0.0
C7787 C 0.21109 0.10698 0.42593 0.0
C7788 C 0.20754 0.08973 0.42007 0.0
C7789 C 0.2125 0.07493 0.43099 0.0
C7790 C 0.22089 0.07719 0.44786 0.0
C7791 C 0.22445 0.09424 0.45381 0.0
C7792 C 0.21959 0.10908 0.44293 0.0
C7793 C 0.15098 0.18498 0.41963 0.0
C7794 C 0.15742 0.1944 0.4345 0.0
C7795 C 0.16056 0.17012 0.41351 0.0
C7796 C 0.17694 0.16477 0.42191 0.0
C7797 C 0.18261 0.17327 0.43775 0.0
C7798 C 0.17279 0.18805 0.44411 0.0
C7799 C 0.1888 0.15144 0.41306 0.0
C7800 C 0.19467 0.13627 0.42307 0.0
C7801 C 0.19392 0.15351 0.3945 0.0
C7802 C 0.18995 0.16992 0.3835 0.0
C7803 C 0.19572 0.18645 0.38948 0.0
C7804 C 0.19321 0.20164 0.37841 0.0
C7805 C 0.18501 0.20045 0.36128 0.0
C7806 C 0.17922 0.18407 0.35523 0.0
C7807 C 0.18168 0.16886 0.36626 0.0
H7808 H 0.1832 0.2122 0.35267 0.0
H7809 H 0.22456 0.06576 0.45638 0.0
H7810 H 0.67012 0.30168 0.51531 0.0
H7811 H 0.68006 0.33007 0.52723 0.0
H7812 H 0.67459 0.30953 0.58236 0.0
H7813 H 0.66499 0.28105 0.57042 0.0
H7814 H 0.65682 0.34393 0.57516 0.0
H7815 H 0.71386 0.31309 0.56994 0.0
H7816 H 0.73561 0.29387 0.55333 0.0
H7817 H 0.74144 0.33452 0.51203 0.0
H7818 H 0.71939 0.35392 0.52824 0.0
H7819 H 0.70656 0.40497 0.62641 0.0
H7820 H 0.69702 0.3778 0.61172 0.0
H7821 H 0.69853 0.40435 0.55904 0.0
H7822 H 0.70762 0.43172 0.57369 0.0
H7823 H 0.71762 0.3681 0.5628 0.0
H7824 H 0.66053 0.3991 0.57091 0.0
H7825 H 0.63967 0.41738 0.5896 0.0
H7826 H 0.63599 0.37469 0.62903 0.0
H7827 H 0.65717 0.35626 0.61071 0.0
C7828 C 0.67138 0.30323 0.52993 0.0
C7829 C 0.66704 0.28937 0.54202 0.0
C7830 C 0.67692 0.31937 0.53671 0.0
C7831 C 0.67783 0.32183 0.55565 0.0
C7832 C 0.67383 0.30782 0.56772 0.0
C7833 C 0.66864 0.29157 0.56092 0.0
C7834 C 0.68306 0.33908 0.56282 0.0
C7835 C 0.6702 0.34911 0.5727 0.0
C7836 C 0.70043 0.34583 0.55931 0.0
C7837 C 0.71477 0.33488 0.55018 0.0
C7838 C 0.71973 0.31794 0.55729 0.0
C7839 C 0.73209 0.307 0.54794 0.0
C7840 C 0.73979 0.31294 0.53158 0.0
C7841 C 0.73538 0.32994 0.52468 0.0
C7842 C 0.72295 0.34093 0.53396 0.0
C7843 C 0.70439 0.40512 0.61176 0.0
C7844 C 0.7075 0.42046 0.60121 0.0
C7845 C 0.69921 0.38959 0.60338 0.0
C7846 C 0.69731 0.38913 0.58433 0.0
C7847 C 0.70009 0.4045 0.57376 0.0
C7848 C 0.70494 0.42015 0.58218 0.0
C7849 C 0.69169 0.37265 0.57569 0.0
C7850 C 0.70438 0.36282 0.5654 0.0
C7851 C 0.67434 0.3659 0.57915 0.0
C7852 C 0.66049 0.37633 0.58948 0.0
C7853 C 0.65527 0.3936 0.58356 0.0
C7854 C 0.64343 0.40401 0.59411 0.0
C7855 C 0.63654 0.39721 0.61052 0.0
C7856 C 0.64136 0.37993 0.61632 0.0
C7857 C 0.65326 0.36948 0.60584 0.0
H7858 H 0.62745 0.40532 0.61872 0.0
H7859 H 0.74914 0.30438 0.52425 0.0
H7860 H 0.47203 0.92351 0.30794 0.0
H7861 H 0.44674 0.94186 0.31935 0.0
H7862 H 0.41288 0.9244 0.27551 0.0
H7863 H 0.43809 0.90539 0.26435 0.0
H7864 H 0.41317 0.96404 0.28451 0.0
H7865 H 0.40397 0.90552 0.30907 0.0
H7866 H 0.41057 0.87721 0.32535 0.0
H7867 H 0.42221 0.90526 0.37432 0.0
H7868 H 0.41627 0.93384 0.3581 0.0
H7869 H 0.32284 0.97075 0.321 0.0
H7870 H 0.35197 0.96645 0.30534 0.0
H7871 H 0.38018 0.97913 0.35479 0.0
H7872 H 0.35127 0.98307 0.37063 0.0
H7873 H 0.38488 0.94501 0.34291 0.0
H7874 H 0.39626 0.00372 0.31771 0.0
H7875 H 0.39311 0.03191 0.30018 0.0
H7876 H 0.37619 0.0038 0.25297 0.0
H7877 H 0.37987 0.97535 0.27004 0.0
C7878 C 0.45925 0.92377 0.30062 0.0
C7879 C 0.45677 0.91313 0.28538 0.0
C7880 C 0.4449 0.93416 0.30716 0.0
C7881 C 0.42813 0.93426 0.29825 0.0
C7882 C 0.42585 0.92432 0.28247 0.0
C7883 C 0.4401 0.91353 0.27618 0.0
C7884 C 0.41281 0.94422 0.30604 0.0
C7885 C 0.40671 0.95986 0.29715 0.0
C7886 C 0.4051 0.9389 0.32283 0.0
C7887 C 0.41007 0.92184 0.33223 0.0
C7888 C 0.40837 0.90569 0.32317 0.0
C7889 C 0.41185 0.88957 0.33244 0.0
C7890 C 0.41681 0.8894 0.35087 0.0
C7891 C 0.41844 0.90539 0.36003 0.0
C7892 C 0.41509 0.92156 0.35077 0.0
C7893 C 0.33527 0.97242 0.32856 0.0
C7894 C 0.33483 0.97657 0.3472 0.0
C7895 C 0.35184 0.9706 0.31943 0.0
C7896 C 0.36813 0.97291 0.32882 0.0
C7897 C 0.36768 0.97767 0.34725 0.0
C7898 C 0.3512 0.97934 0.3564 0.0
C7899 C 0.38491 0.96499 0.32142 0.0
C7900 C 0.39138 0.94948 0.33038 0.0
C7901 C 0.39277 0.97043 0.30468 0.0
C7902 C 0.38789 0.98747 0.29529 0.0
C7903 C 0.39147 0.00359 0.30372 0.0
C7904 C 0.38984 0.01959 0.29379 0.0
C7905 C 0.38423 0.01969 0.27555 0.0
C7906 C 0.38038 0.00374 0.26715 0.0
C7907 C 0.38233 0.98766 0.27691 0.0
H7908 H 0.38299 0.03212 0.26791 0.0
H7909 H 0.41935 0.87689 0.35805 0.0
H7910 H 0.76314 0.58612 0.07946 0.0
H7911 H 0.78845 0.60043 0.06452 0.0
H7912 H 0.81406 0.60688 0.11686 0.0
H7913 H 0.78894 0.59166 0.13204 0.0
H7914 H 0.79984 0.6376 0.09519 0.0
H7915 H 0.8354 0.5859 0.0933 0.0
H7916 H 0.84579 0.55533 0.08736 0.0
H7917 H 0.84874 0.56738 0.02993 0.0
H7918 H 0.83744 0.59785 0.0353 0.0
H7919 H 0.86394 0.69629 0.05988 0.0
H7920 H 0.84946 0.67226 0.0764 0.0
H7921 H 0.83322 0.64951 0.02566 0.0
H7922 H 0.84746 0.6736 0.00873 0.0
H7923 H 0.847 0.62449 0.04865 0.0
H7924 H 0.80576 0.67722 0.05547 0.0
H7925 H 0.79683 0.70693 0.06656 0.0
H7926 H 0.81093 0.69094 0.12135 0.0
H7927 H 0.81967 0.66107 0.1108 0.0
C7928 C 0.77418 0.59053 0.08784 0.0
C7929 C 0.77402 0.58827 0.10696 0.0
C7930 C 0.78883 0.59819 0.0792 0.0
C7931 C 0.80323 0.6041 0.08961 0.0
C7932 C 0.8032 0.60178 0.10869 0.0
C7933 C 0.78873 0.59363 0.11734 0.0
C7934 C 0.81503 0.61714 0.08131 0.0
C7935 C 0.81045 0.63473 0.08526 0.0
C7936 C 0.82853 0.61298 0.0682 0.0
C7937 C 0.83494 0.59431 0.06472 0.0
C7938 C 0.83767 0.58203 0.07931 0.0
C7939 C 0.84387 0.56466 0.07605 0.0
C7940 C 0.84782 0.55938 0.05827 0.0
C7941 C 0.84563 0.57148 0.04371 0.0
C7942 C 0.83925 0.58883 0.04687 0.0
C7943 C 0.85713 0.68631 0.05217 0.0
C7944 C 0.85669 0.68692 0.03302 0.0
C7945 C 0.84912 0.67249 0.06166 0.0
C7946 C 0.84043 0.65917 0.05225 0.0
C7947 C 0.83991 0.65971 0.03312 0.0
C7948 C 0.84792 0.67355 0.02353 0.0
C7949 C 0.83152 0.64491 0.06244 0.0
C7950 C 0.83646 0.62716 0.05867 0.0
C7951 C 0.81869 0.64873 0.0763 0.0
C7952 C 0.81365 0.66695 0.08227 0.0
C7953 C 0.80716 0.68008 0.06984 0.0
C7954 C 0.80219 0.69698 0.07603 0.0
C7955 C 0.8037 0.70096 0.09453 0.0
C7956 C 0.80995 0.68794 0.10698 0.0
C7957 C 0.81485 0.67101 0.10093 0.0
H7958 H 0.79985 0.71407 0.09923 0.0
H7959 H 0.85266 0.54593 0.05579 0.0
H7960 H 0.54761 0.62191 0.31979 0.0
H7961 H 0.57617 0.60704 0.32937 0.0
H7962 H 0.57325 0.57214 0.28348 0.0
H7963 H 0.54494 0.58748 0.27344 0.0
H7964 H 0.57807 0.55604 0.32177 0.0
H7965 H 0.60142 0.59883 0.27931 0.0
H7966 H 0.60435 0.6291 0.26664 0.0
H7967 H 0.62941 0.64522 0.31635 0.0
H7968 H 0.62595 0.61518 0.32965 0.0
H7969 H 0.65963 0.50924 0.33613 0.0
H7970 H 0.63599 0.52728 0.32079 0.0
H7971 H 0.64721 0.57113 0.35577 0.0
H7972 H 0.67193 0.55332 0.37034 0.0
H7973 H 0.63863 0.58327 0.32172 0.0
H7974 H 0.61191 0.54348 0.36559 0.0
H7975 H 0.60872 0.51392 0.38009 0.0
H7976 H 0.59002 0.49338 0.32934 0.0
H7977 H 0.5933 0.52281 0.31448 0.0
C7978 C 0.55315 0.61113 0.3117 0.0
C7979 C 0.54413 0.60571 0.29596 0.0
C7980 C 0.56945 0.60272 0.31714 0.0
C7981 C 0.57676 0.58852 0.30712 0.0
C7982 C 0.56779 0.58311 0.29134 0.0
C7983 C 0.55171 0.59186 0.28561 0.0
C7984 C 0.59331 0.57884 0.31372 0.0
C7985 C 0.59136 0.56187 0.32149 0.0
C7986 C 0.6105 0.58678 0.31383 0.0
C7987 C 0.61315 0.60475 0.30563 0.0
C7988 C 0.60729 0.60887 0.28769 0.0
C7989 C 0.60904 0.62601 0.28038 0.0
C7990 C 0.617 0.6391 0.29071 0.0
C7991 C 0.62322 0.63506 0.30838 0.0
C7992 C 0.62131 0.61798 0.31583 0.0
C7993 C 0.65695 0.52268 0.34065 0.0
C7994 C 0.66718 0.52976 0.35476 0.0
C7995 C 0.64353 0.53303 0.33179 0.0
C7996 C 0.63949 0.55045 0.3374 0.0
C7997 C 0.65002 0.55772 0.35125 0.0
C7998 C 0.66392 0.54749 0.35973 0.0
C7999 C 0.62339 0.56037 0.32971 0.0
C8000 C 0.62536 0.57741 0.32188 0.0
C8001 C 0.60607 0.55268 0.32975 0.0
C8002 C 0.60289 0.53531 0.33892 0.0
C8003 C 0.60706 0.53267 0.35754 0.0
C8004 C 0.60529 0.51593 0.36581 0.0
C8005 C 0.5992 0.50177 0.35563 0.0
C8006 C 0.59473 0.50437 0.3372 0.0
C8007 C 0.59649 0.52108 0.32886 0.0
H8008 H 0.59793 0.4888 0.36203 0.0
H8009 H 0.61841 0.65234 0.285 0.0
H8010 H 0.35732 0.80896 0.91449 0.0
H8011 H 0.34065 0.83452 0.90087 0.0
H8012 H 0.30029 0.83122 0.94345 0.0
H8013 H 0.31747 0.80598 0.95763 0.0
H8014 H 0.28832 0.83866 0.90201 0.0
H8015 H 0.3221 0.85887 0.95281 0.0
H8016 H 0.34865 0.86129 0.97294 0.0
H8017 H 0.37938 0.88287 0.92828 0.0
H8018 H 0.35312 0.88012 0.90775 0.0
H8019 H 0.25732 0.93089 0.89691 0.0
H8020 H 0.26604 0.90025 0.90523 0.0
H8021 H 0.31415 0.90432 0.87193 0.0
H8022 H 0.30498 0.93503 0.86308 0.0
H8023 H 0.3199 0.89537 0.90931 0.0
H8024 H 0.2824 0.87707 0.85933 0.0
H8025 H 0.25459 0.87406 0.8411 0.0
H8026 H 0.22803 0.85011 0.88722 0.0
H8027 H 0.2556 0.85316 0.90581 0.0
C8028 C 0.34475 0.81355 0.92076 0.0
C8029 C 0.33861 0.80569 0.93706 0.0
C8030 C 0.33525 0.82806 0.91299 0.0
C8031 C 0.31927 0.83464 0.92116 0.0
C8032 C 0.31258 0.82622 0.93695 0.0
C8033 C 0.3224 0.81197 0.94507 0.0
C8034 C 0.31092 0.85145 0.91417 0.0
C8035 C 0.29498 0.85117 0.90377 0.0
C8036 C 0.3198 0.86761 0.91646 0.0
C8037 C 0.33576 0.86895 0.92865 0.0
C8038 C 0.33462 0.86381 0.94719 0.0
C8039 C 0.34959 0.86531 0.9587 0.0
C8040 C 0.36573 0.87214 0.95187 0.0
C8041 C 0.3669 0.8775 0.93352 0.0
C8042 C 0.35199 0.87595 0.92194 0.0
C8043 C 0.26978 0.92523 0.89145 0.0
C8044 C 0.28083 0.93539 0.8799 0.0
C8045 C 0.27455 0.90765 0.89591 0.0
C8046 C 0.29065 0.89999 0.88909 0.0
C8047 C 0.30157 0.91 0.87719 0.0
C8048 C 0.29651 0.92753 0.87235 0.0
C8049 C 0.29743 0.88272 0.89667 0.0
C8050 C 0.31313 0.88294 0.90742 0.0
C8051 C 0.28793 0.86671 0.89506 0.0
C8052 C 0.27106 0.86558 0.88406 0.0
C8053 C 0.27056 0.87141 0.86569 0.0
C8054 C 0.25485 0.86961 0.85526 0.0
C8055 C 0.23953 0.86195 0.86301 0.0
C8056 C 0.23989 0.85608 0.88123 0.0
C8057 C 0.25556 0.85783 0.89171 0.0
H8058 H 0.22741 0.86053 0.8549 0.0
H8059 H 0.37729 0.87335 0.96081 0.0
H8060 H 0.31978 -0.0005 0.14006 0.0
H8061 H 0.33905 0.01779 0.15854 0.0
H8062 H 0.33753 0.05854 0.11627 0.0
H8063 H 0.31747 0.04034 0.09786 0.0
H8064 H 0.37147 0.03854 0.12419 0.0
H8065 H 0.3233 0.07079 0.15471 0.0
H8066 H 0.29494 0.07309 0.17252 0.0
H8067 H 0.32049 0.04475 0.21741 0.0
H8068 H 0.34899 0.04206 0.19979 0.0
H8069 H 0.43725 0.0921 0.15388 0.0
H8070 H 0.4071 0.08236 0.14624 0.0
H8071 H 0.40787 0.04664 0.19303 0.0
H8072 H 0.43814 0.05693 0.20128 0.0
H8073 H 0.37235 0.06495 0.18583 0.0
H8074 H 0.41693 0.02813 0.15704 0.0
H8075 H 0.44528 0.02127 0.14037 0.0
H8076 H 0.42557 0.05173 0.09396 0.0
H8077 H 0.3972 0.05904 0.1105 0.0
C8078 C 0.32355 0.01239 0.13473 0.0
C8079 C 0.318 0.01834 0.11728 0.0
C8080 C 0.33407 0.02299 0.14551 0.0
C8081 C 0.33944 0.0395 0.1388 0.0
C8082 C 0.33316 0.04589 0.12171 0.0
C8083 C 0.32217 0.03541 0.11107 0.0
C8084 C 0.35533 0.0473 0.14704 0.0
C8085 C 0.37158 0.04473 0.13747 0.0
C8086 C 0.35537 0.05409 0.16494 0.0
C8087 C 0.33834 0.05612 0.17582 0.0
C8088 C 0.32289 0.06494 0.16832 0.0
C8089 C 0.30677 0.06634 0.17841 0.0
C8090 C 0.30591 0.05904 0.19607 0.0
C8091 C 0.32119 0.05041 0.20372 0.0
C8092 C 0.33735 0.04899 0.1937 0.0
C8093 C 0.43115 0.08202 0.16246 0.0
C8094 C 0.44014 0.075 0.17795 0.0
C8095 C 0.4138 0.07672 0.15827 0.0
C8096 C 0.4053 0.06393 0.16918 0.0
C8097 C 0.4142 0.05671 0.18463 0.0
C8098 C 0.4316 0.06224 0.18902 0.0
C8099 C 0.3883 0.05661 0.16256 0.0
C8100 C 0.37205 0.05896 0.17247 0.0
C8101 C 0.38809 0.0488 0.1452 0.0
C8102 C 0.40503 0.04428 0.13507 0.0
C8103 C 0.41871 0.03349 0.14333 0.0
C8104 C 0.43477 0.02951 0.13391 0.0
C8105 C 0.43725 0.03611 0.11613 0.0
C8106 C 0.42364 0.04665 0.10774 0.0
C8107 C 0.40756 0.05071 0.11713 0.0
H8108 H 0.4497 0.03301 0.10885 0.0
H8109 H 0.29341 0.06008 0.20383 0.0
H8110 H 0.16801 0.97455 0.60612 0.0
H8111 H 0.13747 0.97017 0.61886 0.0
H8112 H 0.15279 0.9971 0.66776 0.0
H8113 H 0.18321 0.00076 0.65557 0.0
H8114 H 0.14585 0.96228 0.67275 0.0
H8115 H 0.1156 0.01371 0.64686 0.0
H8116 H 0.10398 0.03563 0.62394 0.0
H8117 H 0.07783 0.99429 0.59523 0.0
H8118 H 0.08929 0.97214 0.61795 0.0
H8119 H 0.06885 0.93594 0.72235 0.0
H8120 H 0.0935 0.95159 0.70803 0.0
H8121 H 0.07384 0.93773 0.65476 0.0
H8122 H 0.04897 0.92182 0.6691 0.0
H8123 H 0.08179 0.97009 0.65324 0.0
H8124 H 0.11598 0.91819 0.6769 0.0
H8125 H 0.12969 0.89638 0.69879 0.0
H8126 H 0.15026 0.93874 0.73051 0.0
H8127 H 0.13666 0.96077 0.70884 0.0
C8128 C 0.16477 0.97937 0.61963 0.0
C8129 C 0.17814 0.987 0.63035 0.0
C8130 C 0.14725 0.97736 0.62664 0.0
C8131 C 0.14292 0.98338 0.64422 0.0
C8132 C 0.15589 0.99238 0.65418 0.0
C8133 C 0.1734 0.99398 0.64741 0.0
C8134 C 0.12742 0.97592 0.65415 0.0
C8135 C 0.13175 0.9643 0.66873 0.0
C8136 C 0.1092 0.97817 0.64846 0.0
C8137 C 0.10352 0.99122 0.63399 0.0
C8138 C 0.10763 0.00925 0.63549 0.0
C8139 C 0.10095 0.02174 0.62261 0.0
C8140 C 0.09022 0.01635 0.60811 0.0
C8141 C 0.08617 0.99845 0.60644 0.0
C8142 C 0.09272 0.98593 0.61934 0.0
C8143 C 0.06961 0.93629 0.70756 0.0
C8144 C 0.05676 0.9278 0.69684 0.0
C8145 C 0.08392 0.94513 0.69937 0.0
C8146 C 0.08561 0.94588 0.68029 0.0
C8147 C 0.07274 0.93749 0.66953 0.0
C8148 C 0.05847 0.92848 0.67772 0.0
C8149 C 0.10035 0.956 0.67153 0.0
C8150 C 0.09587 0.96816 0.65729 0.0
C8151 C 0.11861 0.95422 0.6774 0.0
C8152 C 0.12505 0.94109 0.69143 0.0
C8153 C 0.12314 0.92283 0.68873 0.0
C8154 C 0.13102 0.91044 0.70101 0.0
C8155 C 0.14085 0.91617 0.71601 0.0
C8156 C 0.14267 0.93432 0.71888 0.0
C8157 C 0.13486 0.94675 0.70662 0.0
H8158 H 0.14704 0.90656 0.72543 0.0
H8159 H 0.085 0.02604 0.5982 0.0
loop_
_geom_bond_atom_site_label_1
_geom_bond_atom_site_label_2
_geom_bond_distance
_geom_bond_site_symmetry_2
_ccdc_geom_bond_type
Dy0 O4 2.398 1_455 S
Dy0 O5 2.491 . S
Dy0 O6 2.403 . S
Dy0 O7 2.664 . S
Dy0 O11 2.326 . S
Dy0 O15 2.310 . S
Dy0 O16 2.351 . S
C1 O12 1.185 . S
C1 O13 1.355 . S
C2 O4 1.185 . S
C2 O5 1.355 1_655 S
Dy3 O7 2.310 . S
Dy3 O10 2.351 . S
Dy3 O12 2.398 . S
Dy3 O13 2.491 . S
Dy3 O14 2.403 . S
Dy3 O15 2.664 . S
Dy3 O17 2.326 . S
O4 Dy0 2.398 1_655 S
O4 C2 1.185 . S
O5 Dy0 2.491 . S
O5 C2 1.355 1_455 S
O6 Dy0 2.403 . S
O6 C8 1.254 . S
O7 Dy0 2.664 . S
O7 Dy3 2.310 . S
O7 C8 1.268 . S
C8 O6 1.254 . S
C8 O7 1.268 . S
C9 O14 1.254 . S
C9 O15 1.268 . S
O10 Dy3 2.351 . S
O10 C18 1.249 . S
O11 Dy0 2.326 . S
O11 C18 1.267 . S
O12 C1 1.185 . S
O12 Dy3 2.398 . S
O13 C1 1.355 . S
O13 Dy3 2.491 . S
O14 Dy3 2.403 . S
O14 C9 1.254 . S
O15 Dy0 2.310 . S
O15 Dy3 2.664 . S
O15 C9 1.268 . S
O16 Dy0 2.351 . S
O16 C19 1.249 . S
O17 Dy3 2.326 . S
O17 C19 1.267 . S
C18 O10 1.249 . S
C18 O11 1.267 . S
C19 O16 1.249 . S
C19 O17 1.267 . S
Dy20 O24 2.398 . S
Dy20 O25 2.491 . S
Dy20 O26 2.403 . S
Dy20 O27 2.664 . S
Dy20 O31 2.326 . S
Dy20 O35 2.310 . S
Dy20 O36 2.351 . S
C21 O32 1.185 . S
C21 O33 1.355 . S
C22 O24 1.185 . S
C22 O25 1.355 . S
Dy23 O27 2.310 . S
Dy23 O30 2.351 . S
Dy23 O32 2.398 . S
Dy23 O33 2.491 . S
Dy23 O34 2.403 . S
Dy23 O35 2.664 . S
Dy23 O37 2.326 . S
O24 Dy20 2.398 . S
O24 C22 1.185 . S
O25 Dy20 2.491 . S
O25 C22 1.355 . S
O26 Dy20 2.403 . S
O26 C28 1.254 . S
O27 Dy20 2.664 . S
O27 Dy23 2.310 . S
O27 C28 1.268 . S
C28 O26 1.254 . S
C28 O27 1.268 . S
C29 O34 1.254 . S
C29 O35 1.268 . S
O30 Dy23 2.351 . S
O30 C38 1.249 . S
O31 Dy20 2.326 . S
O31 C38 1.267 . S
O32 C21 1.185 . S
O32 Dy23 2.398 . S
O33 C21 1.355 . S
O33 Dy23 2.491 . S
O34 Dy23 2.403 . S
O34 C29 1.254 . S
O35 Dy20 2.310 . S
O35 Dy23 2.664 . S
O35 C29 1.268 . S
O36 Dy20 2.351 . S
O36 C39 1.249 . S
O37 Dy23 2.326 . S
O37 C39 1.267 . S
C38 O30 1.249 . S
C38 O31 1.267 . S
C39 O36 1.249 . S
C39 O37 1.267 . S
Dy40 O44 2.398 . S
Dy40 O45 2.491 . S
Dy40 O46 2.403 . S
Dy40 O47 2.664 . S
Dy40 O51 2.326 . S
Dy40 O55 2.310 . S
Dy40 O56 2.351 . S
C41 O52 1.185 . S
C41 O53 1.355 . S
C42 O44 1.185 . S
C42 O45 1.355 . S
Dy43 O47 2.310 . S
Dy43 O50 2.351 . S
Dy43 O52 2.398 . S
Dy43 O53 2.491 . S
Dy43 O54 2.403 . S
Dy43 O55 2.664 . S
Dy43 O57 2.326 . S
O44 Dy40 2.398 . S
O44 C42 1.185 . S
O45 Dy40 2.491 . S
O45 C42 1.355 . S
O46 Dy40 2.403 . S
O46 C48 1.254 . S
O47 Dy40 2.664 . S
O47 Dy43 2.310 . S
O47 C48 1.268 . S
C48 O46 1.254 . S
C48 O47 1.268 . S
C49 O54 1.254 . S
C49 O55 1.268 . S
O50 Dy43 2.351 . S
O50 C58 1.249 . S
O51 Dy40 2.326 . S
O51 C58 1.267 . S
O52 C41 1.185 . S
O52 Dy43 2.398 . S
O53 C41 1.355 . S
O53 Dy43 2.491 . S
O54 Dy43 2.403 . S
O54 C49 1.254 . S
O55 Dy40 2.310 . S
O55 Dy43 2.664 . S
O55 C49 1.268 . S
O56 Dy40 2.351 . S
O56 C59 1.249 . S
O57 Dy43 2.326 . S
O57 C59 1.267 . S
C58 O50 1.249 . S
C58 O51 1.267 . S
C59 O56 1.249 . S
C59 O57 1.267 . S
Dy60 O64 2.398 . S
Dy60 O65 2.491 . S
Dy60 O66 2.403 . S
Dy60 O67 2.664 . S
Dy60 O71 2.326 . S
Dy60 O75 2.310 . S
Dy60 O76 2.351 . S
C61 O72 1.185 . S
C61 O73 1.355 . S
C62 O64 1.185 . S
C62 O65 1.355 . S
Dy63 O67 2.310 . S
Dy63 O70 2.351 . S
Dy63 O72 2.398 . S
Dy63 O73 2.491 . S
Dy63 O74 2.403 . S
Dy63 O75 2.664 . S
Dy63 O77 2.326 . S
O64 Dy60 2.398 . S
O64 C62 1.185 . S
O65 Dy60 2.491 . S
O65 C62 1.355 . S
O66 Dy60 2.403 . S
O66 C68 1.254 . S
O67 Dy60 2.664 . S
O67 Dy63 2.310 . S
O67 C68 1.268 . S
C68 O66 1.254 . S
C68 O67 1.268 . S
C69 O74 1.254 . S
C69 O75 1.268 . S
O70 Dy63 2.351 . S
O70 C78 1.249 . S
O71 Dy60 2.326 . S
O71 C78 1.267 . S
O72 C61 1.185 . S
O72 Dy63 2.398 . S
O73 C61 1.355 . S
O73 Dy63 2.491 . S
O74 Dy63 2.403 . S
O74 C69 1.254 . S
O75 Dy60 2.310 . S
O75 Dy63 2.664 . S
O75 C69 1.268 . S
O76 Dy60 2.351 . S
O76 C79 1.249 . S
O77 Dy63 2.326 . S
O77 C79 1.267 . S
C78 O70 1.249 . S
C78 O71 1.267 . S
C79 O76 1.249 . S
C79 O77 1.267 . S
Dy80 O84 2.398 1_455 S
Dy80 O85 2.491 1_455 S
Dy80 O86 2.403 . S
Dy80 O87 2.664 . S
Dy80 O91 2.326 . S
Dy80 O95 2.310 . S
Dy80 O96 2.351 . S
C81 O92 1.185 . S
C81 O93 1.355 . S
C82 O84 1.185 . S
C82 O85 1.355 . S
Dy83 O87 2.310 . S
Dy83 O90 2.351 . S
Dy83 O92 2.398 . S
Dy83 O93 2.491 . S
Dy83 O94 2.403 . S
Dy83 O95 2.664 . S
Dy83 O97 2.326 . S
O84 Dy80 2.398 1_655 S
O84 C82 1.185 . S
O85 Dy80 2.491 1_655 S
O85 C82 1.355 . S
O86 Dy80 2.403 . S
O86 C88 1.254 . S
O87 Dy80 2.664 . S
O87 Dy83 2.310 . S
O87 C88 1.268 . S
C88 O86 1.254 . S
C88 O87 1.268 . S
C89 O94 1.254 . S
C89 O95 1.268 . S
O90 Dy83 2.351 . S
O90 C98 1.249 . S
O91 Dy80 2.326 . S
O91 C98 1.267 . S
O92 C81 1.185 . S
O92 Dy83 2.398 . S
O93 C81 1.355 . S
O93 Dy83 2.491 . S
O94 Dy83 2.403 . S
O94 C89 1.254 . S
O95 Dy80 2.310 . S
O95 Dy83 2.664 . S
O95 C89 1.268 . S
O96 Dy80 2.351 . S
O96 C99 1.249 . S
O97 Dy83 2.326 . S
O97 C99 1.267 . S
C98 O90 1.249 . S
C98 O91 1.267 . S
C99 O96 1.249 . S
C99 O97 1.267 . S
Dy100 O104 2.398 . S
Dy100 O105 2.491 . S
Dy100 O106 2.403 . S
Dy100 O107 2.664 . S
Dy100 O111 2.326 . S
Dy100 O115 2.310 . S
Dy100 O116 2.351 . S
C101 O112 1.185 . S
C101 O113 1.355 . S
C102 O104 1.185 . S
C102 O105 1.355 . S
Dy103 O107 2.310 . S
Dy103 O110 2.351 . S
Dy103 O112 2.398 . S
Dy103 O113 2.491 . S
Dy103 O114 2.403 . S
Dy103 O115 2.664 . S
Dy103 O117 2.326 . S
O104 Dy100 2.398 . S
O104 C102 1.185 . S
O105 Dy100 2.491 . S
O105 C102 1.355 . S
O106 Dy100 2.403 . S
O106 C108 1.254 . S
O107 Dy100 2.664 . S
O107 Dy103 2.310 . S
O107 C108 1.268 . S
C108 O106 1.254 . S
C108 O107 1.268 . S
C109 O114 1.254 . S
C109 O115 1.268 . S
O110 Dy103 2.351 . S
O110 C118 1.249 . S
O111 Dy100 2.326 . S
O111 C118 1.267 . S
O112 C101 1.185 . S
O112 Dy103 2.398 . S
O113 C101 1.355 . S
O113 Dy103 2.491 . S
O114 Dy103 2.403 . S
O114 C109 1.254 . S
O115 Dy100 2.310 . S
O115 Dy103 2.664 . S
O115 C109 1.268 . S
O116 Dy100 2.351 . S
O116 C119 1.249 . S
O117 Dy103 2.326 . S
O117 C119 1.267 . S
C118 O110 1.249 . S
C118 O111 1.267 . S
C119 O116 1.249 . S
C119 O117 1.267 . S
Dy120 O124 2.398 . S
Dy120 O125 2.491 . S
Dy120 O126 2.403 . S
Dy120 O127 2.664 . S
Dy120 O131 2.326 . S
Dy120 O135 2.310 . S
Dy120 O136 2.351 . S
C121 O132 1.185 . S
C121 O133 1.355 . S
C122 O124 1.185 . S
C122 O125 1.355 . S
Dy123 O127 2.310 . S
Dy123 O130 2.351 . S
Dy123 O132 2.398 . S
Dy123 O133 2.491 . S
Dy123 O134 2.403 . S
Dy123 O135 2.664 . S
Dy123 O137 2.326 . S
O124 Dy120 2.398 . S
O124 C122 1.185 . S
O125 Dy120 2.491 . S
O125 C122 1.355 . S
O126 Dy120 2.403 . S
O126 C128 1.254 . S
O127 Dy120 2.664 . S
O127 Dy123 2.310 . S
O127 C128 1.268 . S
C128 O126 1.254 . S
C128 O127 1.268 . S
C129 O134 1.254 . S
C129 O135 1.268 . S
O130 Dy123 2.351 . S
O130 C138 1.249 . S
O131 Dy120 2.326 . S
O131 C138 1.267 . S
O132 C121 1.185 . S
O132 Dy123 2.398 . S
O133 C121 1.355 . S
O133 Dy123 2.491 . S
O134 Dy123 2.403 . S
O134 C129 1.254 . S
O135 Dy120 2.310 . S
O135 Dy123 2.664 . S
O135 C129 1.268 . S
O136 Dy120 2.351 . S
O136 C139 1.249 . S
O137 Dy123 2.326 . S
O137 C139 1.267 . S
C138 O130 1.249 . S
C138 O131 1.267 . S
C139 O136 1.249 . S
C139 O137 1.267 . S
Dy140 O144 2.398 . S
Dy140 O145 2.491 . S
Dy140 O146 2.403 . S
Dy140 O147 2.664 . S
Dy140 O151 2.326 . S
Dy140 O155 2.310 . S
Dy140 O156 2.351 . S
C141 O152 1.185 . S
C141 O153 1.355 . S
C142 O144 1.185 . S
C142 O145 1.355 . S
Dy143 O147 2.310 . S
Dy143 O150 2.351 . S
Dy143 O152 2.398 1_556 S
Dy143 O153 2.491 1_556 S
Dy143 O154 2.403 1_556 S
Dy143 O155 2.664 . S
Dy143 O157 2.326 1_556 S
O144 Dy140 2.398 . S
O144 C142 1.185 . S
O145 Dy140 2.491 . S
O145 C142 1.355 . S
O146 Dy140 2.403 . S
O146 C148 1.254 . S
O147 Dy140 2.664 . S
O147 Dy143 2.310 . S
O147 C148 1.268 . S
C148 O146 1.254 . S
C148 O147 1.268 . S
C149 O154 1.254 1_556 S
C149 O155 1.268 . S
O150 Dy143 2.351 . S
O150 C158 1.249 . S
O151 Dy140 2.326 . S
O151 C158 1.267 . S
O152 C141 1.185 . S
O152 Dy143 2.398 1_554 S
O153 C141 1.355 . S
O153 Dy143 2.491 1_554 S
O154 Dy143 2.403 1_554 S
O154 C149 1.254 1_554 S
O155 Dy140 2.310 . S
O155 Dy143 2.664 . S
O155 C149 1.268 . S
O156 Dy140 2.351 . S
O156 C159 1.207 1_556 S
O157 Dy143 2.326 1_554 S
O157 C159 1.286 . S
C158 O150 1.249 . S
C158 O151 1.267 . S
C159 O156 1.207 1_554 S
C159 O157 1.286 . S
Dy160 O164 2.398 . S
Dy160 O165 2.491 . S
Dy160 O166 2.403 . S
Dy160 O167 2.664 . S
Dy160 O171 2.326 . S
Dy160 O175 2.310 . S
Dy160 O176 2.351 . S
C161 O172 1.185 . S
C161 O173 1.355 . S
C162 O164 1.185 . S
C162 O165 1.355 . S
Dy163 O167 2.310 . S
Dy163 O170 2.351 . S
Dy163 O172 2.398 . S
Dy163 O173 2.491 . S
Dy163 O174 2.403 . S
Dy163 O175 2.664 . S
Dy163 O177 2.326 . S
O164 Dy160 2.398 . S
O164 C162 1.185 . S
O165 Dy160 2.491 . S
O165 C162 1.355 . S
O166 Dy160 2.403 . S
O166 C168 1.254 . S
O167 Dy160 2.664 . S
O167 Dy163 2.310 . S
O167 C168 1.268 . S
C168 O166 1.254 . S
C168 O167 1.268 . S
C169 O174 1.254 . S
C169 O175 1.268 . S
O170 Dy163 2.351 . S
O170 C178 1.249 . S
O171 Dy160 2.326 . S
O171 C178 1.267 . S
O172 C161 1.185 . S
O172 Dy163 2.398 . S
O173 C161 1.355 . S
O173 Dy163 2.491 . S
O174 Dy163 2.403 . S
O174 C169 1.254 . S
O175 Dy160 2.310 . S
O175 Dy163 2.664 . S
O175 C169 1.268 . S
O176 Dy160 2.351 . S
O176 C179 1.249 . S
O177 Dy163 2.326 . S
O177 C179 1.267 . S
C178 O170 1.249 . S
C178 O171 1.267 . S
C179 O176 1.249 . S
C179 O177 1.267 . S
Dy180 O184 2.398 . S
Dy180 O185 2.491 . S
Dy180 O186 2.403 . S
Dy180 O187 2.664 . S
Dy180 O191 2.326 . S
Dy180 O195 2.310 . S
Dy180 O196 2.351 . S
C181 O192 1.185 . S
C181 O193 1.355 . S
C182 O184 1.185 . S
C182 O185 1.355 . S
Dy183 O187 2.310 . S
Dy183 O190 2.351 . S
Dy183 O192 2.398 . S
Dy183 O193 2.491 . S
Dy183 O194 2.403 . S
Dy183 O195 2.664 . S
Dy183 O197 2.326 . S
O184 Dy180 2.398 . S
O184 C182 1.185 . S
O185 Dy180 2.491 . S
O185 C182 1.355 . S
O186 Dy180 2.403 . S
O186 C188 1.254 . S
O187 Dy180 2.664 . S
O187 Dy183 2.310 . S
O187 C188 1.268 . S
C188 O186 1.254 . S
C188 O187 1.268 . S
C189 O194 1.254 . S
C189 O195 1.268 . S
O190 Dy183 2.351 . S
O190 C198 1.249 . S
O191 Dy180 2.326 . S
O191 C198 1.267 . S
O192 C181 1.185 . S
O192 Dy183 2.398 . S
O193 C181 1.355 . S
O193 Dy183 2.491 . S
O194 Dy183 2.403 . S
O194 C189 1.254 . S
O195 Dy180 2.310 . S
O195 Dy183 2.664 . S
O195 C189 1.268 . S
O196 Dy180 2.351 . S
O196 C199 1.249 . S
O197 Dy183 2.326 . S
O197 C199 1.267 . S
C198 O190 1.249 . S
C198 O191 1.267 . S
C199 O196 1.249 . S
C199 O197 1.267 . S
Dy200 O204 2.398 . S
Dy200 O205 2.491 . S
Dy200 O206 2.403 . S
Dy200 O207 2.664 . S
Dy200 O211 2.326 . S
Dy200 O215 2.310 . S
Dy200 O216 2.351 . S
C201 O212 1.185 . S
C201 O213 1.355 . S
C202 O204 1.185 . S
C202 O205 1.355 . S
Dy203 O207 2.310 . S
Dy203 O210 2.351 . S
Dy203 O212 2.398 1_565 S
Dy203 O213 2.491 1_565 S
Dy203 O214 2.403 1_565 S
Dy203 O215 2.664 . S
Dy203 O217 2.326 1_565 S
O204 Dy200 2.398 . S
O204 C202 1.185 . S
O205 Dy200 2.491 . S
O205 C202 1.355 . S
O206 Dy200 2.403 . S
O206 C208 1.254 . S
O207 Dy200 2.664 . S
O207 Dy203 2.310 . S
O207 C208 1.268 . S
C208 O206 1.254 . S
C208 O207 1.268 . S
C209 O214 1.231 1_565 S
C209 O215 1.296 . S
O210 Dy203 2.351 . S
O210 C218 1.249 . S
O211 Dy200 2.326 . S
O211 C218 1.267 . S
O212 C201 1.185 . S
O212 Dy203 2.398 1_545 S
O213 C201 1.355 . S
O213 Dy203 2.491 1_545 S
O214 Dy203 2.403 1_545 S
O214 C209 1.231 1_545 S
O215 Dy200 2.310 . S
O215 Dy203 2.664 . S
O215 C209 1.296 . S
O216 Dy200 2.351 . S
O216 C219 1.249 1_565 S
O217 Dy203 2.326 1_545 S
O217 C219 1.267 . S
C218 O210 1.249 . S
C218 O211 1.267 . S
C219 O216 1.249 1_545 S
C219 O217 1.267 . S
Dy220 O224 2.398 . S
Dy220 O225 2.491 . S
Dy220 O226 2.403 . S
Dy220 O227 2.664 . S
Dy220 O231 2.326 . S
Dy220 O235 2.310 . S
Dy220 O236 2.351 . S
C221 O232 1.185 . S
C221 O233 1.355 1_545 S
C222 O224 1.185 . S
C222 O225 1.355 . S
Dy223 O227 2.310 . S
Dy223 O230 2.351 . S
Dy223 O232 2.398 1_565 S
Dy223 O233 2.491 . S
Dy223 O234 2.403 . S
Dy223 O235 2.664 . S
Dy223 O237 2.326 . S
O224 Dy220 2.398 . S
O224 C222 1.185 . S
O225 Dy220 2.491 . S
O225 C222 1.355 . S
O226 Dy220 2.403 . S
O226 C228 1.254 . S
O227 Dy220 2.664 . S
O227 Dy223 2.310 . S
O227 C228 1.268 . S
C228 O226 1.254 . S
C228 O227 1.268 . S
C229 O234 1.254 . S
C229 O235 1.268 . S
O230 Dy223 2.351 . S
O230 C238 1.249 . S
O231 Dy220 2.326 . S
O231 C238 1.267 . S
O232 C221 1.185 . S
O232 Dy223 2.398 1_545 S
O233 C221 1.355 1_565 S
O233 Dy223 2.491 . S
O234 Dy223 2.403 . S
O234 C229 1.254 . S
O235 Dy220 2.310 . S
O235 Dy223 2.664 . S
O235 C229 1.268 . S
O236 Dy220 2.351 . S
O236 C239 1.249 . S
O237 Dy223 2.326 . S
O237 C239 1.267 . S
C238 O230 1.249 . S
C238 O231 1.267 . S
C239 O236 1.249 . S
C239 O237 1.267 . S
Dy240 O244 2.398 . S
Dy240 O245 2.491 . S
Dy240 O246 2.403 . S
Dy240 O247 2.664 . S
Dy240 O251 2.326 . S
Dy240 O255 2.310 . S
Dy240 O256 2.351 . S
C241 O252 1.184 1_554 S
C241 O253 1.373 . S
C242 O244 1.185 . S
C242 O245 1.355 . S
Dy243 O247 2.310 . S
Dy243 O250 2.351 . S
Dy243 O252 2.388 1_554 S
Dy243 O253 2.491 . S
Dy243 O254 2.403 . S
Dy243 O255 2.664 . S
Dy243 O257 2.326 . S
O244 Dy240 2.398 . S
O244 C242 1.185 . S
O245 Dy240 2.491 . S
O245 C242 1.355 . S
O246 Dy240 2.403 . S
O246 C248 1.254 . S
O247 Dy240 2.664 . S
O247 Dy243 2.310 . S
O247 C248 1.268 . S
C248 O246 1.254 . S
C248 O247 1.268 . S
C249 O254 1.254 . S
C249 O255 1.268 . S
O250 Dy243 2.351 . S
O250 C258 1.249 . S
O251 Dy240 2.326 . S
O251 C258 1.267 . S
O252 C241 1.184 1_556 S
O252 Dy243 2.388 1_556 S
O253 C241 1.373 . S
O253 Dy243 2.491 . S
O254 Dy243 2.403 . S
O254 C249 1.254 . S
O255 Dy240 2.310 . S
O255 Dy243 2.664 . S
O255 C249 1.268 . S
O256 Dy240 2.351 . S
O256 C259 1.249 . S
O257 Dy243 2.326 . S
O257 C259 1.267 . S
C258 O250 1.249 . S
C258 O251 1.267 . S
C259 O256 1.249 . S
C259 O257 1.267 . S
Dy260 O264 2.398 1_655 S
Dy260 O265 2.491 1_655 S
Dy260 O266 2.403 . S
Dy260 O267 2.664 . S
Dy260 O271 2.326 . S
Dy260 O275 2.310 . S
Dy260 O276 2.351 . S
C261 O272 1.185 . S
C261 O273 1.355 . S
C262 O264 1.185 . S
C262 O265 1.355 . S
Dy263 O267 2.310 . S
Dy263 O270 2.351 . S
Dy263 O272 2.398 . S
Dy263 O273 2.491 . S
Dy263 O274 2.403 . S
Dy263 O275 2.664 . S
Dy263 O277 2.326 . S
O264 Dy260 2.398 1_455 S
O264 C262 1.185 . S
O265 Dy260 2.491 1_455 S
O265 C262 1.355 . S
O266 Dy260 2.403 . S
O266 C268 1.254 . S
O267 Dy260 2.664 . S
O267 Dy263 2.310 . S
O267 C268 1.268 . S
C268 O266 1.254 . S
C268 O267 1.268 . S
C269 O274 1.254 . S
C269 O275 1.268 . S
O270 Dy263 2.351 . S
O270 C278 1.249 . S
O271 Dy260 2.326 . S
O271 C278 1.267 . S
O272 C261 1.185 . S
O272 Dy263 2.398 . S
O273 C261 1.355 . S
O273 Dy263 2.491 . S
O274 Dy263 2.403 . S
O274 C269 1.254 . S
O275 Dy260 2.310 . S
O275 Dy263 2.664 . S
O275 C269 1.268 . S
O276 Dy260 2.351 . S
O276 C279 1.249 . S
O277 Dy263 2.326 . S
O277 C279 1.267 . S
C278 O270 1.249 . S
C278 O271 1.267 . S
C279 O276 1.249 . S
C279 O277 1.267 . S
Dy280 O284 2.398 . S
Dy280 O285 2.491 . S
Dy280 O286 2.403 . S
Dy280 O287 2.664 . S
Dy280 O291 2.326 . S
Dy280 O295 2.310 . S
Dy280 O296 2.351 . S
C281 O292 1.185 . S
C281 O293 1.355 . S
C282 O284 1.185 . S
C282 O285 1.355 . S
Dy283 O287 2.310 . S
Dy283 O290 2.351 . S
Dy283 O292 2.398 . S
Dy283 O293 2.491 . S
Dy283 O294 2.403 . S
Dy283 O295 2.664 . S
Dy283 O297 2.326 . S
O284 Dy280 2.398 . S
O284 C282 1.185 . S
O285 Dy280 2.491 . S
O285 C282 1.355 . S
O286 Dy280 2.403 . S
O286 C288 1.254 . S
O287 Dy280 2.664 . S
O287 Dy283 2.310 . S
O287 C288 1.268 . S
C288 O286 1.254 . S
C288 O287 1.268 . S
C289 O294 1.254 . S
C289 O295 1.268 . S
O290 Dy283 2.351 . S
O290 C298 1.249 . S
O291 Dy280 2.326 . S
O291 C298 1.267 . S
O292 C281 1.185 . S
O292 Dy283 2.398 . S
O293 C281 1.355 . S
O293 Dy283 2.491 . S
O294 Dy283 2.403 . S
O294 C289 1.254 . S
O295 Dy280 2.310 . S
O295 Dy283 2.664 . S
O295 C289 1.268 . S
O296 Dy280 2.351 . S
O296 C299 1.249 . S
O297 Dy283 2.326 . S
O297 C299 1.267 . S
C298 O290 1.249 . S
C298 O291 1.267 . S
C299 O296 1.249 . S
C299 O297 1.267 . S
Dy300 O304 2.398 . S
Dy300 O305 2.491 . S
Dy300 O306 2.403 . S
Dy300 O307 2.664 . S
Dy300 O311 2.326 . S
Dy300 O315 2.310 . S
Dy300 O316 2.351 . S
C301 O312 1.185 . S
C301 O313 1.355 1_455 S
C302 O304 1.185 . S
C302 O305 1.355 . S
Dy303 O307 2.310 . S
Dy303 O310 2.351 . S
Dy303 O312 2.398 1_655 S
Dy303 O313 2.491 . S
Dy303 O314 2.403 . S
Dy303 O315 2.664 . S
Dy303 O317 2.326 . S
O304 Dy300 2.398 . S
O304 C302 1.185 . S
O305 Dy300 2.491 . S
O305 C302 1.355 . S
O306 Dy300 2.403 . S
O306 C308 1.254 . S
O307 Dy300 2.664 . S
O307 Dy303 2.310 . S
O307 C308 1.268 . S
C308 O306 1.254 . S
C308 O307 1.268 . S
C309 O314 1.254 . S
C309 O315 1.268 . S
O310 Dy303 2.351 . S
O310 C318 1.249 . S
O311 Dy300 2.326 . S
O311 C318 1.267 . S
O312 C301 1.185 . S
O312 Dy303 2.398 1_455 S
O313 C301 1.355 1_655 S
O313 Dy303 2.491 . S
O314 Dy303 2.403 . S
O314 C309 1.254 . S
O315 Dy300 2.310 . S
O315 Dy303 2.664 . S
O315 C309 1.268 . S
O316 Dy300 2.351 . S
O316 C319 1.249 . S
O317 Dy303 2.326 . S
O317 C319 1.267 . S
C318 O310 1.249 . S
C318 O311 1.267 . S
C319 O316 1.249 . S
C319 O317 1.267 . S
Dy320 O324 2.398 . S
Dy320 O325 2.491 . S
Dy320 O326 2.403 . S
Dy320 O327 2.664 . S
Dy320 O331 2.326 . S
Dy320 O335 2.310 . S
Dy320 O336 2.351 . S
C321 O332 1.185 . S
C321 O333 1.355 . S
C322 O324 1.185 . S
C322 O325 1.355 . S
Dy323 O327 2.310 . S
Dy323 O330 2.351 . S
Dy323 O332 2.398 . S
Dy323 O333 2.491 . S
Dy323 O334 2.403 . S
Dy323 O335 2.664 . S
Dy323 O337 2.326 . S
O324 Dy320 2.398 . S
O324 C322 1.185 . S
O325 Dy320 2.491 . S
O325 C322 1.355 . S
O326 Dy320 2.403 . S
O326 C328 1.254 . S
O327 Dy320 2.664 . S
O327 Dy323 2.310 . S
O327 C328 1.268 . S
C328 O326 1.254 . S
C328 O327 1.268 . S
C329 O334 1.254 . S
C329 O335 1.268 . S
O330 Dy323 2.351 . S
O330 C338 1.249 . S
O331 Dy320 2.326 . S
O331 C338 1.267 . S
O332 C321 1.185 . S
O332 Dy323 2.398 . S
O333 C321 1.355 . S
O333 Dy323 2.491 . S
O334 Dy323 2.403 . S
O334 C329 1.254 . S
O335 Dy320 2.310 . S
O335 Dy323 2.664 . S
O335 C329 1.268 . S
O336 Dy320 2.351 . S
O336 C339 1.249 . S
O337 Dy323 2.326 . S
O337 C339 1.267 . S
C338 O330 1.249 . S
C338 O331 1.267 . S
C339 O336 1.249 . S
C339 O337 1.267 . S
Dy340 O344 2.398 . S
Dy340 O345 2.491 . S
Dy340 O346 2.403 . S
Dy340 O347 2.664 . S
Dy340 O351 2.326 . S
Dy340 O355 2.310 . S
Dy340 O356 2.351 . S
C341 O352 1.185 . S
C341 O353 1.355 . S
C342 O344 1.185 . S
C342 O345 1.355 . S
Dy343 O347 2.310 . S
Dy343 O350 2.351 . S
Dy343 O352 2.398 . S
Dy343 O353 2.491 . S
Dy343 O354 2.403 . S
Dy343 O355 2.664 . S
Dy343 O357 2.326 . S
O344 Dy340 2.398 . S
O344 C342 1.185 . S
O345 Dy340 2.491 . S
O345 C342 1.355 . S
O346 Dy340 2.403 . S
O346 C348 1.254 . S
O347 Dy340 2.664 . S
O347 Dy343 2.310 . S
O347 C348 1.268 . S
C348 O346 1.254 . S
C348 O347 1.268 . S
C349 O354 1.254 . S
C349 O355 1.268 . S
O350 Dy343 2.351 . S
O350 C358 1.249 . S
O351 Dy340 2.326 . S
O351 C358 1.267 . S
O352 C341 1.185 . S
O352 Dy343 2.398 . S
O353 C341 1.355 . S
O353 Dy343 2.491 . S
O354 Dy343 2.403 . S
O354 C349 1.254 . S
O355 Dy340 2.310 . S
O355 Dy343 2.664 . S
O355 C349 1.268 . S
O356 Dy340 2.351 . S
O356 C359 1.249 . S
O357 Dy343 2.326 . S
O357 C359 1.267 . S
C358 O350 1.249 . S
C358 O351 1.267 . S
C359 O356 1.249 . S
C359 O357 1.267 . S
Dy360 O364 2.398 . S
Dy360 O365 2.491 . S
Dy360 O366 2.403 . S
Dy360 O367 2.664 . S
Dy360 O371 2.326 . S
Dy360 O375 2.310 . S
Dy360 O376 2.351 . S
C361 O372 1.185 . S
C361 O373 1.355 . S
C362 O364 1.185 . S
C362 O365 1.355 . S
Dy363 O367 2.310 . S
Dy363 O370 2.351 . S
Dy363 O372 2.398 . S
Dy363 O373 2.491 . S
Dy363 O374 2.403 . S
Dy363 O375 2.664 . S
Dy363 O377 2.326 . S
O364 Dy360 2.398 . S
O364 C362 1.185 . S
O365 Dy360 2.491 . S
O365 C362 1.355 . S
O366 Dy360 2.403 . S
O366 C368 1.254 . S
O367 Dy360 2.664 . S
O367 Dy363 2.310 . S
O367 C368 1.268 . S
C368 O366 1.254 . S
C368 O367 1.268 . S
C369 O374 1.254 . S
C369 O375 1.268 . S
O370 Dy363 2.351 . S
O370 C378 1.249 . S
O371 Dy360 2.326 . S
O371 C378 1.267 . S
O372 C361 1.185 . S
O372 Dy363 2.398 . S
O373 C361 1.355 . S
O373 Dy363 2.491 . S
O374 Dy363 2.403 . S
O374 C369 1.254 . S
O375 Dy360 2.310 . S
O375 Dy363 2.664 . S
O375 C369 1.268 . S
O376 Dy360 2.351 . S
O376 C379 1.249 . S
O377 Dy363 2.326 . S
O377 C379 1.267 . S
C378 O370 1.249 . S
C378 O371 1.267 . S
C379 O376 1.249 . S
C379 O377 1.267 . S
Dy380 O384 2.398 . S
Dy380 O385 2.491 . S
Dy380 O386 2.403 . S
Dy380 O387 2.664 . S
Dy380 O391 2.326 . S
Dy380 O395 2.310 . S
Dy380 O396 2.351 . S
C381 O392 1.185 . S
C381 O393 1.355 . S
C382 O384 1.185 . S
C382 O385 1.355 . S
Dy383 O387 2.310 . S
Dy383 O390 2.351 . S
Dy383 O392 2.398 1_655 S
Dy383 O393 2.491 1_655 S
Dy383 O394 2.403 . S
Dy383 O395 2.664 . S
Dy383 O397 2.326 . S
O384 Dy380 2.398 . S
O384 C382 1.185 . S
O385 Dy380 2.491 . S
O385 C382 1.355 . S
O386 Dy380 2.403 . S
O386 C388 1.254 . S
O387 Dy380 2.664 . S
O387 Dy383 2.310 . S
O387 C388 1.268 . S
C388 O386 1.254 . S
C388 O387 1.268 . S
C389 O394 1.254 . S
C389 O395 1.268 . S
O390 Dy383 2.351 . S
O390 C398 1.249 . S
O391 Dy380 2.326 . S
O391 C398 1.267 . S
O392 C381 1.185 . S
O392 Dy383 2.398 1_455 S
O393 C381 1.355 . S
O393 Dy383 2.491 1_455 S
O394 Dy383 2.403 . S
O394 C389 1.254 . S
O395 Dy380 2.310 . S
O395 Dy383 2.664 . S
O395 C389 1.268 . S
O396 Dy380 2.351 . S
O396 C399 1.249 . S
O397 Dy383 2.326 . S
O397 C399 1.267 . S
C398 O390 1.249 . S
C398 O391 1.267 . S
C399 O396 1.249 . S
C399 O397 1.267 . S
Dy400 O404 2.398 . S
Dy400 O405 2.491 . S
Dy400 O406 2.403 . S
Dy400 O407 2.664 . S
Dy400 O411 2.326 . S
Dy400 O415 2.310 . S
Dy400 O416 2.351 . S
C401 O412 1.185 . S
C401 O413 1.355 . S
C402 O404 1.185 . S
C402 O405 1.355 . S
Dy403 O407 2.310 . S
Dy403 O410 2.351 . S
Dy403 O412 2.398 . S
Dy403 O413 2.491 . S
Dy403 O414 2.403 . S
Dy403 O415 2.664 . S
Dy403 O417 2.326 . S
O404 Dy400 2.398 . S
O404 C402 1.185 . S
O405 Dy400 2.491 . S
O405 C402 1.355 . S
O406 Dy400 2.403 . S
O406 C408 1.254 . S
O407 Dy400 2.664 . S
O407 Dy403 2.310 . S
O407 C408 1.268 . S
C408 O406 1.254 . S
C408 O407 1.268 . S
C409 O414 1.254 . S
C409 O415 1.268 . S
O410 Dy403 2.351 . S
O410 C418 1.249 . S
O411 Dy400 2.326 . S
O411 C418 1.267 . S
O412 C401 1.185 . S
O412 Dy403 2.398 . S
O413 C401 1.355 . S
O413 Dy403 2.491 . S
O414 Dy403 2.403 . S
O414 C409 1.254 . S
O415 Dy400 2.310 . S
O415 Dy403 2.664 . S
O415 C409 1.268 . S
O416 Dy400 2.351 . S
O416 C419 1.249 . S
O417 Dy403 2.326 . S
O417 C419 1.267 . S
C418 O410 1.249 . S
C418 O411 1.267 . S
C419 O416 1.249 . S
C419 O417 1.267 . S
Dy420 O424 2.398 . S
Dy420 O425 2.491 . S
Dy420 O426 2.403 . S
Dy420 O427 2.664 . S
Dy420 O431 2.326 . S
Dy420 O435 2.310 . S
Dy420 O436 2.351 . S
C421 O432 1.185 . S
C421 O433 1.355 . S
C422 O424 1.185 . S
C422 O425 1.355 . S
Dy423 O427 2.310 . S
Dy423 O430 2.351 . S
Dy423 O432 2.398 . S
Dy423 O433 2.491 . S
Dy423 O434 2.403 . S
Dy423 O435 2.664 . S
Dy423 O437 2.326 . S
O424 Dy420 2.398 . S
O424 C422 1.185 . S
O425 Dy420 2.491 . S
O425 C422 1.355 . S
O426 Dy420 2.403 . S
O426 C428 1.254 . S
O427 Dy420 2.664 . S
O427 Dy423 2.310 . S
O427 C428 1.268 . S
C428 O426 1.254 . S
C428 O427 1.268 . S
C429 O434 1.254 . S
C429 O435 1.268 . S
O430 Dy423 2.351 . S
O430 C438 1.249 . S
O431 Dy420 2.326 . S
O431 C438 1.267 . S
O432 C421 1.185 . S
O432 Dy423 2.398 . S
O433 C421 1.355 . S
O433 Dy423 2.491 . S
O434 Dy423 2.403 . S
O434 C429 1.254 . S
O435 Dy420 2.310 . S
O435 Dy423 2.664 . S
O435 C429 1.268 . S
O436 Dy420 2.351 . S
O436 C439 1.249 . S
O437 Dy423 2.326 . S
O437 C439 1.267 . S
C438 O430 1.249 . S
C438 O431 1.267 . S
C439 O436 1.249 . S
C439 O437 1.267 . S
Dy440 O444 2.398 1_554 S
Dy440 O445 2.491 1_554 S
Dy440 O446 2.403 1_554 S
Dy440 O447 2.664 . S
Dy440 O451 2.326 1_554 S
Dy440 O455 2.310 . S
Dy440 O456 2.351 . S
C441 O452 1.185 . S
C441 O453 1.355 . S
C442 O444 1.185 . S
C442 O445 1.355 . S
Dy443 O447 2.310 . S
Dy443 O450 2.351 . S
Dy443 O452 2.398 . S
Dy443 O453 2.491 . S
Dy443 O454 2.403 . S
Dy443 O455 2.664 . S
Dy443 O457 2.326 . S
O444 Dy440 2.398 1_556 S
O444 C442 1.185 . S
O445 Dy440 2.491 1_556 S
O445 C442 1.355 . S
O446 Dy440 2.403 1_556 S
O446 C448 1.254 1_556 S
O447 Dy440 2.664 . S
O447 Dy443 2.310 . S
O447 C448 1.268 . S
C448 O446 1.254 1_554 S
C448 O447 1.268 . S
C449 O454 1.254 . S
C449 O455 1.268 . S
O450 Dy443 2.351 . S
O450 C458 1.207 1_554 S
O451 Dy440 2.326 1_556 S
O451 C458 1.286 . S
O452 C441 1.185 . S
O452 Dy443 2.398 . S
O453 C441 1.355 . S
O453 Dy443 2.491 . S
O454 Dy443 2.403 . S
O454 C449 1.254 . S
O455 Dy440 2.310 . S
O455 Dy443 2.664 . S
O455 C449 1.268 . S
O456 Dy440 2.351 . S
O456 C459 1.249 . S
O457 Dy443 2.326 . S
O457 C459 1.267 . S
C458 O450 1.207 1_556 S
C458 O451 1.286 . S
C459 O456 1.249 . S
C459 O457 1.267 . S
Dy460 O464 2.398 . S
Dy460 O465 2.491 . S
Dy460 O466 2.403 . S
Dy460 O467 2.664 . S
Dy460 O471 2.326 . S
Dy460 O475 2.310 . S
Dy460 O476 2.351 . S
C461 O472 1.185 . S
C461 O473 1.355 . S
C462 O464 1.185 . S
C462 O465 1.355 . S
Dy463 O467 2.310 . S
Dy463 O470 2.351 . S
Dy463 O472 2.398 . S
Dy463 O473 2.491 . S
Dy463 O474 2.403 . S
Dy463 O475 2.664 . S
Dy463 O477 2.326 . S
O464 Dy460 2.398 . S
O464 C462 1.185 . S
O465 Dy460 2.491 . S
O465 C462 1.355 . S
O466 Dy460 2.403 . S
O466 C468 1.254 . S
O467 Dy460 2.664 . S
O467 Dy463 2.310 . S
O467 C468 1.268 . S
C468 O466 1.254 . S
C468 O467 1.268 . S
C469 O474 1.254 . S
C469 O475 1.268 . S
O470 Dy463 2.351 . S
O470 C478 1.249 . S
O471 Dy460 2.326 . S
O471 C478 1.267 . S
O472 C461 1.185 . S
O472 Dy463 2.398 . S
O473 C461 1.355 . S
O473 Dy463 2.491 . S
O474 Dy463 2.403 . S
O474 C469 1.254 . S
O475 Dy460 2.310 . S
O475 Dy463 2.664 . S
O475 C469 1.268 . S
O476 Dy460 2.351 . S
O476 C479 1.249 . S
O477 Dy463 2.326 . S
O477 C479 1.267 . S
C478 O470 1.249 . S
C478 O471 1.267 . S
C479 O476 1.249 . S
C479 O477 1.267 . S
Dy480 O484 2.398 . S
Dy480 O485 2.491 . S
Dy480 O486 2.403 . S
Dy480 O487 2.664 . S
Dy480 O491 2.326 . S
Dy480 O495 2.310 . S
Dy480 O496 2.351 . S
C481 O492 1.185 . S
C481 O493 1.355 . S
C482 O484 1.185 . S
C482 O485 1.355 . S
Dy483 O487 2.310 . S
Dy483 O490 2.351 . S
Dy483 O492 2.398 . S
Dy483 O493 2.491 . S
Dy483 O494 2.403 . S
Dy483 O495 2.664 . S
Dy483 O497 2.326 . S
O484 Dy480 2.398 . S
O484 C482 1.185 . S
O485 Dy480 2.491 . S
O485 C482 1.355 . S
O486 Dy480 2.403 . S
O486 C488 1.254 . S
O487 Dy480 2.664 . S
O487 Dy483 2.310 . S
O487 C488 1.268 . S
C488 O486 1.254 . S
C488 O487 1.268 . S
C489 O494 1.254 . S
C489 O495 1.268 . S
O490 Dy483 2.351 . S
O490 C498 1.249 . S
O491 Dy480 2.326 . S
O491 C498 1.267 . S
O492 C481 1.185 . S
O492 Dy483 2.398 . S
O493 C481 1.355 . S
O493 Dy483 2.491 . S
O494 Dy483 2.403 . S
O494 C489 1.254 . S
O495 Dy480 2.310 . S
O495 Dy483 2.664 . S
O495 C489 1.268 . S
O496 Dy480 2.351 . S
O496 C499 1.249 . S
O497 Dy483 2.326 . S
O497 C499 1.267 . S
C498 O490 1.249 . S
C498 O491 1.267 . S
C499 O496 1.249 . S
C499 O497 1.267 . S
Dy500 O504 2.398 1_545 S
Dy500 O505 2.491 1_545 S
Dy500 O506 2.403 1_545 S
Dy500 O507 2.664 . S
Dy500 O511 2.326 1_545 S
Dy500 O515 2.310 . S
Dy500 O516 2.351 . S
C501 O512 1.185 . S
C501 O513 1.355 . S
C502 O504 1.185 . S
C502 O505 1.355 . S
Dy503 O507 2.310 . S
Dy503 O510 2.351 . S
Dy503 O512 2.398 . S
Dy503 O513 2.491 . S
Dy503 O514 2.403 . S
Dy503 O515 2.664 . S
Dy503 O517 2.326 . S
O504 Dy500 2.398 1_565 S
O504 C502 1.185 . S
O505 Dy500 2.491 1_565 S
O505 C502 1.355 . S
O506 Dy500 2.403 1_565 S
O506 C508 1.231 1_565 S
O507 Dy500 2.664 . S
O507 Dy503 2.310 . S
O507 C508 1.296 . S
C508 O506 1.231 1_545 S
C508 O507 1.296 . S
C509 O514 1.254 . S
C509 O515 1.268 . S
O510 Dy503 2.351 . S
O510 C518 1.249 1_545 S
O511 Dy500 2.326 1_565 S
O511 C518 1.267 . S
O512 C501 1.185 . S
O512 Dy503 2.398 . S
O513 C501 1.355 . S
O513 Dy503 2.491 . S
O514 Dy503 2.403 . S
O514 C509 1.254 . S
O515 Dy500 2.310 . S
O515 Dy503 2.664 . S
O515 C509 1.268 . S
O516 Dy500 2.351 . S
O516 C519 1.249 . S
O517 Dy503 2.326 . S
O517 C519 1.267 . S
C518 O510 1.249 1_565 S
C518 O511 1.267 . S
C519 O516 1.249 . S
C519 O517 1.267 . S
Dy520 O524 2.398 1_545 S
Dy520 O525 2.491 . S
Dy520 O526 2.403 . S
Dy520 O527 2.664 . S
Dy520 O531 2.326 . S
Dy520 O535 2.310 . S
Dy520 O536 2.351 . S
C521 O532 1.185 . S
C521 O533 1.355 . S
C522 O524 1.185 . S
C522 O525 1.355 1_565 S
Dy523 O527 2.310 . S
Dy523 O530 2.351 . S
Dy523 O532 2.398 . S
Dy523 O533 2.491 . S
Dy523 O534 2.403 . S
Dy523 O535 2.664 . S
Dy523 O537 2.326 . S
O524 Dy520 2.398 1_565 S
O524 C522 1.185 . S
O525 Dy520 2.491 . S
O525 C522 1.355 1_545 S
O526 Dy520 2.403 . S
O526 C528 1.254 . S
O527 Dy520 2.664 . S
O527 Dy523 2.310 . S
O527 C528 1.268 . S
C528 O526 1.254 . S
C528 O527 1.268 . S
C529 O534 1.254 . S
C529 O535 1.268 . S
O530 Dy523 2.351 . S
O530 C538 1.249 . S
O531 Dy520 2.326 . S
O531 C538 1.267 . S
O532 C521 1.185 . S
O532 Dy523 2.398 . S
O533 C521 1.355 . S
O533 Dy523 2.491 . S
O534 Dy523 2.403 . S
O534 C529 1.254 . S
O535 Dy520 2.310 . S
O535 Dy523 2.664 . S
O535 C529 1.268 . S
O536 Dy520 2.351 . S
O536 C539 1.249 . S
O537 Dy523 2.326 . S
O537 C539 1.267 . S
C538 O530 1.249 . S
C538 O531 1.267 . S
C539 O536 1.249 . S
C539 O537 1.267 . S
Dy540 O544 2.388 1_556 S
Dy540 O545 2.491 . S
Dy540 O546 2.403 . S
Dy540 O547 2.664 . S
Dy540 O551 2.326 . S
Dy540 O555 2.310 . S
Dy540 O556 2.351 . S
C541 O552 1.185 . S
C541 O553 1.355 . S
C542 O544 1.184 1_556 S
C542 O545 1.373 . S
Dy543 O547 2.310 . S
Dy543 O550 2.351 . S
Dy543 O552 2.398 . S
Dy543 O553 2.491 . S
Dy543 O554 2.403 . S
Dy543 O555 2.664 . S
Dy543 O557 2.326 . S
O544 Dy540 2.388 1_554 S
O544 C542 1.184 1_554 S
O545 Dy540 2.491 . S
O545 C542 1.373 . S
O546 Dy540 2.403 . S
O546 C548 1.254 . S
O547 Dy540 2.664 . S
O547 Dy543 2.310 . S
O547 C548 1.268 . S
C548 O546 1.254 . S
C548 O547 1.268 . S
C549 O554 1.254 . S
C549 O555 1.268 . S
O550 Dy543 2.351 . S
O550 C558 1.249 . S
O551 Dy540 2.326 . S
O551 C558 1.267 . S
O552 C541 1.185 . S
O552 Dy543 2.398 . S
O553 C541 1.355 . S
O553 Dy543 2.491 . S
O554 Dy543 2.403 . S
O554 C549 1.254 . S
O555 Dy540 2.310 . S
O555 Dy543 2.664 . S
O555 C549 1.268 . S
O556 Dy540 2.351 . S
O556 C559 1.249 . S
O557 Dy543 2.326 . S
O557 C559 1.267 . S
C558 O550 1.249 . S
C558 O551 1.267 . S
C559 O556 1.249 . S
C559 O557 1.267 . S
Dy560 O564 2.398 . S
Dy560 O565 2.491 . S
Dy560 O566 2.403 . S
Dy560 O567 2.664 . S
Dy560 O571 2.326 . S
Dy560 O575 2.310 . S
Dy560 O576 2.351 . S
C561 O572 1.185 . S
C561 O573 1.355 . S
C562 O564 1.185 . S
C562 O565 1.355 . S
Dy563 O567 2.310 . S
Dy563 O570 2.351 . S
Dy563 O572 2.398 1_455 S
Dy563 O573 2.491 1_455 S
Dy563 O574 2.403 . S
Dy563 O575 2.664 . S
Dy563 O577 2.326 . S
O564 Dy560 2.398 . S
O564 C562 1.185 . S
O565 Dy560 2.491 . S
O565 C562 1.355 . S
O566 Dy560 2.403 . S
O566 C568 1.254 . S
O567 Dy560 2.664 . S
O567 Dy563 2.310 . S
O567 C568 1.268 . S
C568 O566 1.254 . S
C568 O567 1.268 . S
C569 O574 1.254 . S
C569 O575 1.268 . S
O570 Dy563 2.351 . S
O570 C578 1.249 . S
O571 Dy560 2.326 . S
O571 C578 1.267 . S
O572 C561 1.185 . S
O572 Dy563 2.398 1_655 S
O573 C561 1.355 . S
O573 Dy563 2.491 1_655 S
O574 Dy563 2.403 . S
O574 C569 1.254 . S
O575 Dy560 2.310 . S
O575 Dy563 2.664 . S
O575 C569 1.268 . S
O576 Dy560 2.351 . S
O576 C579 1.249 . S
O577 Dy563 2.326 . S
O577 C579 1.267 . S
C578 O570 1.249 . S
C578 O571 1.267 . S
C579 O576 1.249 . S
C579 O577 1.267 . S
Dy580 O584 2.398 . S
Dy580 O585 2.491 . S
Dy580 O586 2.403 . S
Dy580 O587 2.664 . S
Dy580 O591 2.326 . S
Dy580 O595 2.310 . S
Dy580 O596 2.351 . S
C581 O592 1.185 . S
C581 O593 1.355 . S
C582 O584 1.185 . S
C582 O585 1.355 . S
Dy583 O587 2.310 . S
Dy583 O590 2.351 . S
Dy583 O592 2.398 . S
Dy583 O593 2.491 . S
Dy583 O594 2.403 . S
Dy583 O595 2.664 . S
Dy583 O597 2.326 . S
O584 Dy580 2.398 . S
O584 C582 1.185 . S
O585 Dy580 2.491 . S
O585 C582 1.355 . S
O586 Dy580 2.403 . S
O586 C588 1.254 . S
O587 Dy580 2.664 . S
O587 Dy583 2.310 . S
O587 C588 1.268 . S
C588 O586 1.254 . S
C588 O587 1.268 . S
C589 O594 1.254 . S
C589 O595 1.268 . S
O590 Dy583 2.351 . S
O590 C598 1.249 . S
O591 Dy580 2.326 . S
O591 C598 1.267 . S
O592 C581 1.185 . S
O592 Dy583 2.398 . S
O593 C581 1.355 . S
O593 Dy583 2.491 . S
O594 Dy583 2.403 . S
O594 C589 1.254 . S
O595 Dy580 2.310 . S
O595 Dy583 2.664 . S
O595 C589 1.268 . S
O596 Dy580 2.351 . S
O596 C599 1.249 . S
O597 Dy583 2.326 . S
O597 C599 1.267 . S
C598 O590 1.249 . S
C598 O591 1.267 . S
C599 O596 1.249 . S
C599 O597 1.267 . S
Dy600 O604 2.398 . S
Dy600 O605 2.491 . S
Dy600 O606 2.403 . S
Dy600 O607 2.664 . S
Dy600 O611 2.326 . S
Dy600 O615 2.310 . S
Dy600 O616 2.351 . S
C601 O612 1.185 . S
C601 O613 1.355 . S
C602 O604 1.185 . S
C602 O605 1.355 . S
Dy603 O607 2.310 . S
Dy603 O610 2.351 . S
Dy603 O612 2.398 . S
Dy603 O613 2.491 . S
Dy603 O614 2.403 . S
Dy603 O615 2.664 . S
Dy603 O617 2.326 . S
O604 Dy600 2.398 . S
O604 C602 1.185 . S
O605 Dy600 2.491 . S
O605 C602 1.355 . S
O606 Dy600 2.403 . S
O606 C608 1.254 . S
O607 Dy600 2.664 . S
O607 Dy603 2.310 . S
O607 C608 1.268 . S
C608 O606 1.254 . S
C608 O607 1.268 . S
C609 O614 1.254 . S
C609 O615 1.268 . S
O610 Dy603 2.351 . S
O610 C618 1.249 . S
O611 Dy600 2.326 . S
O611 C618 1.267 . S
O612 C601 1.185 . S
O612 Dy603 2.398 . S
O613 C601 1.355 . S
O613 Dy603 2.491 . S
O614 Dy603 2.403 . S
O614 C609 1.254 . S
O615 Dy600 2.310 . S
O615 Dy603 2.664 . S
O615 C609 1.268 . S
O616 Dy600 2.351 . S
O616 C619 1.249 . S
O617 Dy603 2.326 . S
O617 C619 1.267 . S
C618 O610 1.249 . S
C618 O611 1.267 . S
C619 O616 1.249 . S
C619 O617 1.267 . S
Dy620 O624 2.398 . S
Dy620 O625 2.491 . S
Dy620 O626 2.403 . S
Dy620 O627 2.664 . S
Dy620 O631 2.326 . S
Dy620 O635 2.310 . S
Dy620 O636 2.351 . S
C621 O632 1.185 . S
C621 O633 1.355 1_455 S
C622 O624 1.185 . S
C622 O625 1.355 . S
Dy623 O627 2.310 . S
Dy623 O630 2.351 . S
Dy623 O632 2.398 1_655 S
Dy623 O633 2.491 . S
Dy623 O634 2.403 . S
Dy623 O635 2.664 . S
Dy623 O637 2.326 . S
O624 Dy620 2.398 . S
O624 C622 1.185 . S
O625 Dy620 2.491 . S
O625 C622 1.355 . S
O626 Dy620 2.403 . S
O626 C628 1.254 . S
O627 Dy620 2.664 . S
O627 Dy623 2.310 . S
O627 C628 1.268 . S
C628 O626 1.254 . S
C628 O627 1.268 . S
C629 O634 1.254 . S
C629 O635 1.268 . S
O630 Dy623 2.351 . S
O630 C638 1.249 . S
O631 Dy620 2.326 . S
O631 C638 1.267 . S
O632 C621 1.185 . S
O632 Dy623 2.398 1_455 S
O633 C621 1.355 1_655 S
O633 Dy623 2.491 . S
O634 Dy623 2.403 . S
O634 C629 1.254 . S
O635 Dy620 2.310 . S
O635 Dy623 2.664 . S
O635 C629 1.268 . S
O636 Dy620 2.351 . S
O636 C639 1.249 . S
O637 Dy623 2.326 . S
O637 C639 1.267 . S
C638 O630 1.249 . S
C638 O631 1.267 . S
C639 O636 1.249 . S
C639 O637 1.267 . S
Dy640 O644 2.398 . S
Dy640 O645 2.491 . S
Dy640 O646 2.403 . S
Dy640 O647 2.664 . S
Dy640 O651 2.326 . S
Dy640 O655 2.310 . S
Dy640 O656 2.351 . S
C641 O652 1.185 . S
C641 O653 1.355 . S
C642 O644 1.185 . S
C642 O645 1.355 . S
Dy643 O647 2.310 . S
Dy643 O650 2.351 . S
Dy643 O652 2.398 . S
Dy643 O653 2.491 . S
Dy643 O654 2.403 . S
Dy643 O655 2.664 . S
Dy643 O657 2.326 . S
O644 Dy640 2.398 . S
O644 C642 1.185 . S
O645 Dy640 2.491 . S
O645 C642 1.355 . S
O646 Dy640 2.403 . S
O646 C648 1.254 . S
O647 Dy640 2.664 . S
O647 Dy643 2.310 . S
O647 C648 1.268 . S
C648 O646 1.254 . S
C648 O647 1.268 . S
C649 O654 1.254 . S
C649 O655 1.268 . S
O650 Dy643 2.351 . S
O650 C658 1.249 . S
O651 Dy640 2.326 . S
O651 C658 1.267 . S
O652 C641 1.185 . S
O652 Dy643 2.398 . S
O653 C641 1.355 . S
O653 Dy643 2.491 . S
O654 Dy643 2.403 . S
O654 C649 1.254 . S
O655 Dy640 2.310 . S
O655 Dy643 2.664 . S
O655 C649 1.268 . S
O656 Dy640 2.351 . S
O656 C659 1.249 . S
O657 Dy643 2.326 . S
O657 C659 1.267 . S
C658 O650 1.249 . S
C658 O651 1.267 . S
C659 O656 1.249 . S
C659 O657 1.267 . S
Dy660 O664 2.398 . S
Dy660 O665 2.491 . S
Dy660 O666 2.403 1_554 S
Dy660 O667 2.664 1_554 S
Dy660 O671 2.326 1_554 S
Dy660 O675 2.307 1_554 S
Dy660 O676 2.351 . S
C661 O672 1.185 . S
C661 O673 1.355 . S
C662 O664 1.185 . S
C662 O665 1.355 . S
Dy663 O667 2.310 . S
Dy663 O670 2.351 . S
Dy663 O672 2.398 . S
Dy663 O673 2.491 . S
Dy663 O674 2.403 . S
Dy663 O675 2.674 . S
Dy663 O677 2.326 . S
O664 Dy660 2.398 . S
O664 C662 1.185 . S
O665 Dy660 2.491 . S
O665 C662 1.355 . S
O666 Dy660 2.403 1_556 S
O666 C668 1.254 . S
O667 Dy660 2.664 1_556 S
O667 Dy663 2.310 . S
O667 C668 1.268 . S
C668 O666 1.254 . S
C668 O667 1.268 . S
C669 O674 1.254 1_554 S
C669 O675 1.267 1_554 S
O670 Dy663 2.351 . S
O670 C678 1.249 . S
O671 Dy660 2.326 1_556 S
O671 C678 1.267 . S
O672 C661 1.185 . S
O672 Dy663 2.398 . S
O673 C661 1.355 . S
O673 Dy663 2.491 . S
O674 Dy663 2.403 . S
O674 C669 1.254 1_556 S
O675 Dy660 2.307 1_556 S
O675 Dy663 2.674 . S
O675 C669 1.267 1_556 S
O676 Dy660 2.351 . S
O676 C679 1.249 1_554 S
O677 Dy663 2.326 . S
O677 C679 1.267 . S
C678 O670 1.249 . S
C678 O671 1.267 . S
C679 O676 1.249 1_556 S
C679 O677 1.267 . S
Dy680 O684 2.398 . S
Dy680 O685 2.491 . S
Dy680 O686 2.403 . S
Dy680 O687 2.664 . S
Dy680 O691 2.326 . S
Dy680 O695 2.310 . S
Dy680 O696 2.351 . S
C681 O692 1.185 . S
C681 O693 1.355 . S
C682 O684 1.185 . S
C682 O685 1.355 . S
Dy683 O687 2.310 . S
Dy683 O690 2.351 . S
Dy683 O692 2.398 . S
Dy683 O693 2.491 . S
Dy683 O694 2.403 . S
Dy683 O695 2.664 . S
Dy683 O697 2.326 . S
O684 Dy680 2.398 . S
O684 C682 1.185 . S
O685 Dy680 2.491 . S
O685 C682 1.355 . S
O686 Dy680 2.403 . S
O686 C688 1.254 . S
O687 Dy680 2.664 . S
O687 Dy683 2.310 . S
O687 C688 1.268 . S
C688 O686 1.254 . S
C688 O687 1.268 . S
C689 O694 1.254 . S
C689 O695 1.268 . S
O690 Dy683 2.351 . S
O690 C698 1.249 . S
O691 Dy680 2.326 . S
O691 C698 1.267 . S
O692 C681 1.185 . S
O692 Dy683 2.398 . S
O693 C681 1.355 . S
O693 Dy683 2.491 . S
O694 Dy683 2.403 . S
O694 C689 1.254 . S
O695 Dy680 2.310 . S
O695 Dy683 2.664 . S
O695 C689 1.268 . S
O696 Dy680 2.351 . S
O696 C699 1.249 . S
O697 Dy683 2.326 . S
O697 C699 1.267 . S
C698 O690 1.249 . S
C698 O691 1.267 . S
C699 O696 1.249 . S
C699 O697 1.267 . S
Dy700 O704 2.398 . S
Dy700 O705 2.491 . S
Dy700 O706 2.403 . S
Dy700 O707 2.664 . S
Dy700 O711 2.326 . S
Dy700 O715 2.310 . S
Dy700 O716 2.351 . S
C701 O712 1.185 . S
C701 O713 1.355 . S
C702 O704 1.185 . S
C702 O705 1.355 . S
Dy703 O707 2.310 . S
Dy703 O710 2.351 . S
Dy703 O712 2.398 . S
Dy703 O713 2.491 . S
Dy703 O714 2.403 . S
Dy703 O715 2.664 . S
Dy703 O717 2.326 . S
O704 Dy700 2.398 . S
O704 C702 1.185 . S
O705 Dy700 2.491 . S
O705 C702 1.355 . S
O706 Dy700 2.403 . S
O706 C708 1.254 . S
O707 Dy700 2.664 . S
O707 Dy703 2.310 . S
O707 C708 1.268 . S
C708 O706 1.254 . S
C708 O707 1.268 . S
C709 O714 1.254 . S
C709 O715 1.268 . S
O710 Dy703 2.351 . S
O710 C718 1.249 . S
O711 Dy700 2.326 . S
O711 C718 1.267 . S
O712 C701 1.185 . S
O712 Dy703 2.398 . S
O713 C701 1.355 . S
O713 Dy703 2.491 . S
O714 Dy703 2.403 . S
O714 C709 1.254 . S
O715 Dy700 2.310 . S
O715 Dy703 2.664 . S
O715 C709 1.268 . S
O716 Dy700 2.351 . S
O716 C719 1.249 . S
O717 Dy703 2.326 . S
O717 C719 1.267 . S
C718 O710 1.249 . S
C718 O711 1.267 . S
C719 O716 1.249 . S
C719 O717 1.267 . S
Dy720 O724 2.398 . S
Dy720 O725 2.491 . S
Dy720 O726 2.403 . S
Dy720 O727 2.664 . S
Dy720 O731 2.326 . S
Dy720 O735 2.310 . S
Dy720 O736 2.351 . S
C721 O732 1.185 . S
C721 O733 1.355 . S
C722 O724 1.185 . S
C722 O725 1.355 . S
Dy723 O727 2.310 . S
Dy723 O730 2.351 . S
Dy723 O732 2.398 . S
Dy723 O733 2.491 . S
Dy723 O734 2.403 . S
Dy723 O735 2.664 . S
Dy723 O737 2.326 . S
O724 Dy720 2.398 . S
O724 C722 1.185 . S
O725 Dy720 2.491 . S
O725 C722 1.355 . S
O726 Dy720 2.403 . S
O726 C728 1.254 . S
O727 Dy720 2.664 . S
O727 Dy723 2.310 . S
O727 C728 1.268 . S
C728 O726 1.254 . S
C728 O727 1.268 . S
C729 O734 1.254 . S
C729 O735 1.268 . S
O730 Dy723 2.351 . S
O730 C738 1.249 . S
O731 Dy720 2.326 . S
O731 C738 1.267 . S
O732 C721 1.185 . S
O732 Dy723 2.398 . S
O733 C721 1.355 . S
O733 Dy723 2.491 . S
O734 Dy723 2.403 . S
O734 C729 1.254 . S
O735 Dy720 2.310 . S
O735 Dy723 2.664 . S
O735 C729 1.268 . S
O736 Dy720 2.351 . S
O736 C739 1.249 . S
O737 Dy723 2.326 . S
O737 C739 1.267 . S
C738 O730 1.249 . S
C738 O731 1.267 . S
C739 O736 1.249 . S
C739 O737 1.267 . S
Dy740 O744 2.398 . S
Dy740 O745 2.491 . S
Dy740 O746 2.403 . S
Dy740 O747 2.664 . S
Dy740 O751 2.326 . S
Dy740 O755 2.310 . S
Dy740 O756 2.351 . S
C741 O752 1.185 . S
C741 O753 1.355 . S
C742 O744 1.185 . S
C742 O745 1.355 . S
Dy743 O747 2.310 . S
Dy743 O750 2.351 . S
Dy743 O752 2.398 . S
Dy743 O753 2.491 . S
Dy743 O754 2.403 . S
Dy743 O755 2.664 . S
Dy743 O757 2.326 . S
O744 Dy740 2.398 . S
O744 C742 1.185 . S
O745 Dy740 2.491 . S
O745 C742 1.355 . S
O746 Dy740 2.403 . S
O746 C748 1.254 . S
O747 Dy740 2.664 . S
O747 Dy743 2.310 . S
O747 C748 1.268 . S
C748 O746 1.254 . S
C748 O747 1.268 . S
C749 O754 1.254 . S
C749 O755 1.268 . S
O750 Dy743 2.351 . S
O750 C758 1.249 . S
O751 Dy740 2.326 . S
O751 C758 1.267 . S
O752 C741 1.185 . S
O752 Dy743 2.398 . S
O753 C741 1.355 . S
O753 Dy743 2.491 . S
O754 Dy743 2.403 . S
O754 C749 1.254 . S
O755 Dy740 2.310 . S
O755 Dy743 2.664 . S
O755 C749 1.268 . S
O756 Dy740 2.351 . S
O756 C759 1.249 . S
O757 Dy743 2.326 . S
O757 C759 1.267 . S
C758 O750 1.249 . S
C758 O751 1.267 . S
C759 O756 1.249 . S
C759 O757 1.267 . S
Dy760 O764 2.398 . S
Dy760 O765 2.491 . S
Dy760 O766 2.403 . S
Dy760 O767 2.664 . S
Dy760 O771 2.326 . S
Dy760 O775 2.310 . S
Dy760 O776 2.351 . S
C761 O772 1.185 . S
C761 O773 1.355 . S
C762 O764 1.185 . S
C762 O765 1.355 . S
Dy763 O767 2.310 . S
Dy763 O770 2.351 . S
Dy763 O772 2.398 . S
Dy763 O773 2.491 . S
Dy763 O774 2.403 . S
Dy763 O775 2.664 . S
Dy763 O777 2.326 . S
O764 Dy760 2.398 . S
O764 C762 1.185 . S
O765 Dy760 2.491 . S
O765 C762 1.355 . S
O766 Dy760 2.403 . S
O766 C768 1.254 . S
O767 Dy760 2.664 . S
O767 Dy763 2.310 . S
O767 C768 1.268 . S
C768 O766 1.254 . S
C768 O767 1.268 . S
C769 O774 1.254 . S
C769 O775 1.268 . S
O770 Dy763 2.351 . S
O770 C778 1.249 . S
O771 Dy760 2.326 . S
O771 C778 1.267 . S
O772 C761 1.185 . S
O772 Dy763 2.398 . S
O773 C761 1.355 . S
O773 Dy763 2.491 . S
O774 Dy763 2.403 . S
O774 C769 1.254 . S
O775 Dy760 2.310 . S
O775 Dy763 2.664 . S
O775 C769 1.268 . S
O776 Dy760 2.351 . S
O776 C779 1.249 . S
O777 Dy763 2.326 . S
O777 C779 1.267 . S
C778 O770 1.249 . S
C778 O771 1.267 . S
C779 O776 1.249 . S
C779 O777 1.267 . S
Dy780 O784 2.398 . S
Dy780 O785 2.491 . S
Dy780 O786 2.403 . S
Dy780 O787 2.664 . S
Dy780 O791 2.326 . S
Dy780 O795 2.310 . S
Dy780 O796 2.351 . S
C781 O792 1.185 . S
C781 O793 1.355 . S
C782 O784 1.185 . S
C782 O785 1.355 . S
Dy783 O787 2.310 . S
Dy783 O790 2.351 . S
Dy783 O792 2.398 . S
Dy783 O793 2.491 . S
Dy783 O794 2.403 . S
Dy783 O795 2.664 . S
Dy783 O797 2.326 . S
O784 Dy780 2.398 . S
O784 C782 1.185 . S
O785 Dy780 2.491 . S
O785 C782 1.355 . S
O786 Dy780 2.403 . S
O786 C788 1.254 . S
O787 Dy780 2.664 . S
O787 Dy783 2.310 . S
O787 C788 1.268 . S
C788 O786 1.254 . S
C788 O787 1.268 . S
C789 O794 1.254 . S
C789 O795 1.268 . S
O790 Dy783 2.351 . S
O790 C798 1.249 . S
O791 Dy780 2.326 . S
O791 C798 1.267 . S
O792 C781 1.185 . S
O792 Dy783 2.398 . S
O793 C781 1.355 . S
O793 Dy783 2.491 . S
O794 Dy783 2.403 . S
O794 C789 1.254 . S
O795 Dy780 2.310 . S
O795 Dy783 2.664 . S
O795 C789 1.268 . S
O796 Dy780 2.351 . S
O796 C799 1.249 . S
O797 Dy783 2.326 . S
O797 C799 1.267 . S
C798 O790 1.249 . S
C798 O791 1.267 . S
C799 O796 1.249 . S
C799 O797 1.267 . S
Dy800 O804 2.398 1_455 S
Dy800 O805 2.491 . S
Dy800 O806 2.403 . S
Dy800 O807 2.664 . S
Dy800 O811 2.326 . S
Dy800 O815 2.310 . S
Dy800 O816 2.351 . S
C801 O812 1.185 . S
C801 O813 1.355 . S
C802 O804 1.185 . S
C802 O805 1.355 1_655 S
Dy803 O807 2.310 . S
Dy803 O810 2.351 . S
Dy803 O812 2.398 . S
Dy803 O813 2.491 . S
Dy803 O814 2.403 . S
Dy803 O815 2.664 . S
Dy803 O817 2.326 . S
O804 Dy800 2.398 1_655 S
O804 C802 1.185 . S
O805 Dy800 2.491 . S
O805 C802 1.355 1_455 S
O806 Dy800 2.403 . S
O806 C808 1.254 . S
O807 Dy800 2.664 . S
O807 Dy803 2.310 . S
O807 C808 1.268 . S
C808 O806 1.254 . S
C808 O807 1.268 . S
C809 O814 1.254 . S
C809 O815 1.268 . S
O810 Dy803 2.351 . S
O810 C818 1.249 . S
O811 Dy800 2.326 . S
O811 C818 1.267 . S
O812 C801 1.185 . S
O812 Dy803 2.398 . S
O813 C801 1.355 . S
O813 Dy803 2.491 . S
O814 Dy803 2.403 . S
O814 C809 1.254 . S
O815 Dy800 2.310 . S
O815 Dy803 2.664 . S
O815 C809 1.268 . S
O816 Dy800 2.351 . S
O816 C819 1.249 . S
O817 Dy803 2.326 . S
O817 C819 1.267 . S
C818 O810 1.249 . S
C818 O811 1.267 . S
C819 O816 1.249 . S
C819 O817 1.267 . S
Dy820 O824 2.398 . S
Dy820 O825 2.491 . S
Dy820 O826 2.403 . S
Dy820 O827 2.664 . S
Dy820 O831 2.326 . S
Dy820 O835 2.310 . S
Dy820 O836 2.351 . S
C821 O832 1.185 . S
C821 O833 1.355 . S
C822 O824 1.185 . S
C822 O825 1.355 . S
Dy823 O827 2.310 . S
Dy823 O830 2.351 . S
Dy823 O832 2.398 . S
Dy823 O833 2.491 . S
Dy823 O834 2.403 . S
Dy823 O835 2.664 . S
Dy823 O837 2.326 . S
O824 Dy820 2.398 . S
O824 C822 1.185 . S
O825 Dy820 2.491 . S
O825 C822 1.355 . S
O826 Dy820 2.403 . S
O826 C828 1.254 . S
O827 Dy820 2.664 . S
O827 Dy823 2.310 . S
O827 C828 1.268 . S
C828 O826 1.254 . S
C828 O827 1.268 . S
C829 O834 1.254 . S
C829 O835 1.268 . S
O830 Dy823 2.351 . S
O830 C838 1.249 . S
O831 Dy820 2.326 . S
O831 C838 1.267 . S
O832 C821 1.185 . S
O832 Dy823 2.398 . S
O833 C821 1.355 . S
O833 Dy823 2.491 . S
O834 Dy823 2.403 . S
O834 C829 1.254 . S
O835 Dy820 2.310 . S
O835 Dy823 2.664 . S
O835 C829 1.268 . S
O836 Dy820 2.351 . S
O836 C839 1.249 . S
O837 Dy823 2.326 . S
O837 C839 1.267 . S
C838 O830 1.249 . S
C838 O831 1.267 . S
C839 O836 1.249 . S
C839 O837 1.267 . S
Dy840 O844 2.398 . S
Dy840 O845 2.491 . S
Dy840 O846 2.403 . S
Dy840 O847 2.674 . S
Dy840 O851 2.326 . S
Dy840 O855 2.310 . S
Dy840 O856 2.351 . S
C841 O852 1.185 . S
C841 O853 1.355 . S
C842 O844 1.185 . S
C842 O845 1.355 . S
Dy843 O847 2.307 1_556 S
Dy843 O850 2.351 . S
Dy843 O852 2.398 . S
Dy843 O853 2.491 . S
Dy843 O854 2.403 1_556 S
Dy843 O855 2.664 1_556 S
Dy843 O857 2.326 1_556 S
O844 Dy840 2.398 . S
O844 C842 1.185 . S
O845 Dy840 2.491 . S
O845 C842 1.355 . S
O846 Dy840 2.403 . S
O846 C848 1.254 1_554 S
O847 Dy840 2.674 . S
O847 Dy843 2.307 1_554 S
O847 C848 1.267 1_554 S
C848 O846 1.254 1_556 S
C848 O847 1.267 1_556 S
C849 O854 1.254 . S
C849 O855 1.268 . S
O850 Dy843 2.351 . S
O850 C858 1.249 1_556 S
O851 Dy840 2.326 . S
O851 C858 1.267 . S
O852 C841 1.185 . S
O852 Dy843 2.398 . S
O853 C841 1.355 . S
O853 Dy843 2.491 . S
O854 Dy843 2.403 1_554 S
O854 C849 1.254 . S
O855 Dy840 2.310 . S
O855 Dy843 2.664 1_554 S
O855 C849 1.268 . S
O856 Dy840 2.351 . S
O856 C859 1.249 . S
O857 Dy843 2.326 1_554 S
O857 C859 1.267 . S
C858 O850 1.249 1_554 S
C858 O851 1.267 . S
C859 O856 1.249 . S
C859 O857 1.267 . S
Dy860 O864 2.398 . S
Dy860 O865 2.491 . S
Dy860 O866 2.403 . S
Dy860 O867 2.664 . S
Dy860 O871 2.326 . S
Dy860 O875 2.310 . S
Dy860 O876 2.351 . S
C861 O872 1.185 . S
C861 O873 1.355 . S
C862 O864 1.185 . S
C862 O865 1.355 . S
Dy863 O867 2.310 . S
Dy863 O870 2.351 . S
Dy863 O872 2.398 . S
Dy863 O873 2.491 . S
Dy863 O874 2.403 . S
Dy863 O875 2.664 . S
Dy863 O877 2.326 . S
O864 Dy860 2.398 . S
O864 C862 1.185 . S
O865 Dy860 2.491 . S
O865 C862 1.355 . S
O866 Dy860 2.403 . S
O866 C868 1.254 . S
O867 Dy860 2.664 . S
O867 Dy863 2.310 . S
O867 C868 1.268 . S
C868 O866 1.254 . S
C868 O867 1.268 . S
C869 O874 1.254 . S
C869 O875 1.268 . S
O870 Dy863 2.351 . S
O870 C878 1.249 . S
O871 Dy860 2.326 . S
O871 C878 1.267 . S
O872 C861 1.185 . S
O872 Dy863 2.398 . S
O873 C861 1.355 . S
O873 Dy863 2.491 . S
O874 Dy863 2.403 . S
O874 C869 1.254 . S
O875 Dy860 2.310 . S
O875 Dy863 2.664 . S
O875 C869 1.268 . S
O876 Dy860 2.351 . S
O876 C879 1.249 . S
O877 Dy863 2.326 . S
O877 C879 1.267 . S
C878 O870 1.249 . S
C878 O871 1.267 . S
C879 O876 1.249 . S
C879 O877 1.267 . S
Dy880 O884 2.398 . S
Dy880 O885 2.491 . S
Dy880 O886 2.403 . S
Dy880 O887 2.664 . S
Dy880 O891 2.326 . S
Dy880 O895 2.310 . S
Dy880 O896 2.351 . S
C881 O892 1.185 . S
C881 O893 1.355 . S
C882 O884 1.185 . S
C882 O885 1.355 . S
Dy883 O887 2.310 . S
Dy883 O890 2.351 . S
Dy883 O892 2.398 . S
Dy883 O893 2.491 . S
Dy883 O894 2.403 . S
Dy883 O895 2.664 . S
Dy883 O897 2.326 . S
O884 Dy880 2.398 . S
O884 C882 1.185 . S
O885 Dy880 2.491 . S
O885 C882 1.355 . S
O886 Dy880 2.403 . S
O886 C888 1.254 . S
O887 Dy880 2.664 . S
O887 Dy883 2.310 . S
O887 C888 1.268 . S
C888 O886 1.254 . S
C888 O887 1.268 . S
C889 O894 1.254 . S
C889 O895 1.268 . S
O890 Dy883 2.351 . S
O890 C898 1.249 . S
O891 Dy880 2.326 . S
O891 C898 1.267 . S
O892 C881 1.185 . S
O892 Dy883 2.398 . S
O893 C881 1.355 . S
O893 Dy883 2.491 . S
O894 Dy883 2.403 . S
O894 C889 1.254 . S
O895 Dy880 2.310 . S
O895 Dy883 2.664 . S
O895 C889 1.268 . S
O896 Dy880 2.351 . S
O896 C899 1.249 . S
O897 Dy883 2.326 . S
O897 C899 1.267 . S
C898 O890 1.249 . S
C898 O891 1.267 . S
C899 O896 1.249 . S
C899 O897 1.267 . S
Dy900 O904 2.398 . S
Dy900 O905 2.491 . S
Dy900 O906 2.403 . S
Dy900 O907 2.664 . S
Dy900 O911 2.326 . S
Dy900 O915 2.310 . S
Dy900 O916 2.351 . S
C901 O912 1.185 . S
C901 O913 1.355 . S
C902 O904 1.185 . S
C902 O905 1.355 . S
Dy903 O907 2.310 . S
Dy903 O910 2.351 . S
Dy903 O912 2.398 . S
Dy903 O913 2.491 . S
Dy903 O914 2.403 . S
Dy903 O915 2.664 . S
Dy903 O917 2.326 . S
O904 Dy900 2.398 . S
O904 C902 1.185 . S
O905 Dy900 2.491 . S
O905 C902 1.355 . S
O906 Dy900 2.403 . S
O906 C908 1.254 . S
O907 Dy900 2.664 . S
O907 Dy903 2.310 . S
O907 C908 1.268 . S
C908 O906 1.254 . S
C908 O907 1.268 . S
C909 O914 1.254 . S
C909 O915 1.268 . S
O910 Dy903 2.351 . S
O910 C918 1.249 . S
O911 Dy900 2.326 . S
O911 C918 1.267 . S
O912 C901 1.185 . S
O912 Dy903 2.398 . S
O913 C901 1.355 . S
O913 Dy903 2.491 . S
O914 Dy903 2.403 . S
O914 C909 1.254 . S
O915 Dy900 2.310 . S
O915 Dy903 2.664 . S
O915 C909 1.268 . S
O916 Dy900 2.351 . S
O916 C919 1.249 . S
O917 Dy903 2.326 . S
O917 C919 1.267 . S
C918 O910 1.249 . S
C918 O911 1.267 . S
C919 O916 1.249 . S
C919 O917 1.267 . S
Dy920 O924 2.398 . S
Dy920 O925 2.491 . S
Dy920 O926 2.403 . S
Dy920 O927 2.664 . S
Dy920 O931 2.326 . S
Dy920 O935 2.310 . S
Dy920 O936 2.351 . S
C921 O932 1.185 . S
C921 O933 1.355 . S
C922 O924 1.185 . S
C922 O925 1.355 . S
Dy923 O927 2.310 . S
Dy923 O930 2.351 . S
Dy923 O932 2.398 . S
Dy923 O933 2.491 . S
Dy923 O934 2.403 . S
Dy923 O935 2.664 . S
Dy923 O937 2.326 . S
O924 Dy920 2.398 . S
O924 C922 1.185 . S
O925 Dy920 2.491 . S
O925 C922 1.355 . S
O926 Dy920 2.403 . S
O926 C928 1.254 . S
O927 Dy920 2.664 . S
O927 Dy923 2.310 . S
O927 C928 1.268 . S
C928 O926 1.254 . S
C928 O927 1.268 . S
C929 O934 1.254 . S
C929 O935 1.268 . S
O930 Dy923 2.351 . S
O930 C938 1.249 . S
O931 Dy920 2.326 . S
O931 C938 1.267 . S
O932 C921 1.185 . S
O932 Dy923 2.398 . S
O933 C921 1.355 . S
O933 Dy923 2.491 . S
O934 Dy923 2.403 . S
O934 C929 1.254 . S
O935 Dy920 2.310 . S
O935 Dy923 2.664 . S
O935 C929 1.268 . S
O936 Dy920 2.351 . S
O936 C939 1.249 . S
O937 Dy923 2.326 . S
O937 C939 1.267 . S
C938 O930 1.249 . S
C938 O931 1.267 . S
C939 O936 1.249 . S
C939 O937 1.267 . S
Dy940 O944 2.398 . S
Dy940 O945 2.491 . S
Dy940 O946 2.403 . S
Dy940 O947 2.664 . S
Dy940 O951 2.326 . S
Dy940 O955 2.310 . S
Dy940 O956 2.351 . S
C941 O952 1.185 . S
C941 O953 1.355 . S
C942 O944 1.185 . S
C942 O945 1.355 . S
Dy943 O947 2.310 . S
Dy943 O950 2.351 . S
Dy943 O952 2.398 . S
Dy943 O953 2.491 . S
Dy943 O954 2.403 . S
Dy943 O955 2.664 . S
Dy943 O957 2.326 . S
O944 Dy940 2.398 . S
O944 C942 1.185 . S
O945 Dy940 2.491 . S
O945 C942 1.355 . S
O946 Dy940 2.403 . S
O946 C948 1.254 . S
O947 Dy940 2.664 . S
O947 Dy943 2.310 . S
O947 C948 1.268 . S
C948 O946 1.254 . S
C948 O947 1.268 . S
C949 O954 1.254 . S
C949 O955 1.268 . S
O950 Dy943 2.351 . S
O950 C958 1.249 . S
O951 Dy940 2.326 . S
O951 C958 1.267 . S
O952 C941 1.185 . S
O952 Dy943 2.398 . S
O953 C941 1.355 . S
O953 Dy943 2.491 . S
O954 Dy943 2.403 . S
O954 C949 1.254 . S
O955 Dy940 2.310 . S
O955 Dy943 2.664 . S
O955 C949 1.268 . S
O956 Dy940 2.351 . S
O956 C959 1.249 . S
O957 Dy943 2.326 . S
O957 C959 1.267 . S
C958 O950 1.249 . S
C958 O951 1.267 . S
C959 O956 1.249 . S
C959 O957 1.267 . S
H960 C978 0.951 . S
H961 C980 0.951 . S
H962 C982 0.950 . S
H963 C983 0.950 . S
H964 C985 0.950 . S
H965 C988 0.950 . S
H966 C989 0.950 1_455 S
H967 C991 0.950 . S
H968 C992 0.950 . S
H969 C993 0.951 . S
H970 C995 0.951 . S
H971 C997 0.950 . S
H972 C998 0.950 . S
H973 C1000 0.950 1_655 S
H974 C1003 0.950 . S
H975 C1004 0.950 . S
H976 C1006 0.950 . S
H977 C1007 0.950 . S
C978 H960 0.951 . S
C978 C979 1.366 1_655 S
C978 C980 1.388 . S
C979 C978 1.366 1_455 S
C979 C983 1.385 . S
C980 H961 0.951 . S
C980 C978 1.388 . S
C980 C981 1.366 1_655 S
C981 C980 1.366 1_455 S
C981 C982 1.414 . S
C981 C984 1.499 . S
C982 H962 0.950 . S
C982 C981 1.414 . S
C982 C983 1.374 . S
C983 H963 0.950 . S
C983 C979 1.385 . S
C983 C982 1.374 . S
C984 C981 1.499 . S
C984 C985 1.373 . S
C984 C986 1.389 . S
C985 H964 0.950 . S
C985 C984 1.373 . S
C985 C1001 1.377 . S
C986 C984 1.389 . S
C986 C987 1.524 1_455 S
C986 C1000 1.377 . S
C987 C986 1.524 1_655 S
C987 C988 1.397 1_655 S
C987 C992 1.363 . S
C988 H965 0.950 . S
C988 C987 1.397 1_455 S
C988 C989 1.334 1_455 S
C989 H966 0.950 1_655 S
C989 C988 1.334 1_655 S
C989 C990 1.287 . S
C990 C989 1.287 . S
C990 C991 1.524 . S
C990 H1009 0.913 . S
C991 H967 0.950 . S
C991 C990 1.524 . S
C991 C992 1.415 . S
C992 H968 0.950 . S
C992 C987 1.363 . S
C992 C991 1.415 . S
C993 H969 0.951 . S
C993 C994 1.366 . S
C993 C995 1.388 . S
C994 C993 1.366 . S
C994 C998 1.385 1_455 S
C995 H970 0.951 . S
C995 C993 1.388 . S
C995 C996 1.366 . S
C996 C995 1.366 . S
C996 C997 1.414 1_455 S
C996 C999 1.499 . S
C997 H971 0.950 . S
C997 C996 1.414 1_655 S
C997 C998 1.374 . S
C998 H972 0.950 . S
C998 C994 1.385 1_655 S
C998 C997 1.374 . S
C999 C996 1.499 . S
C999 C1000 1.373 . S
C999 C1001 1.389 . S
C1000 H973 0.950 1_455 S
C1000 C986 1.377 . S
C1000 C999 1.373 . S
C1001 C985 1.377 . S
C1001 C999 1.389 . S
C1001 C1002 1.524 . S
C1002 C1001 1.524 . S
C1002 C1003 1.397 . S
C1002 C1007 1.363 . S
C1003 H974 0.950 . S
C1003 C1002 1.397 . S
C1003 C1004 1.334 . S
C1004 H975 0.950 . S
C1004 C1003 1.334 . S
C1004 C1005 1.287 . S
C1005 C1004 1.287 . S
C1005 C1006 1.524 . S
C1005 H1008 0.999 . S
C1006 H976 0.950 . S
C1006 C1005 1.524 . S
C1006 C1007 1.415 . S
C1007 H977 0.950 . S
C1007 C1002 1.363 . S
C1007 C1006 1.415 . S
H1008 C1005 0.999 . S
H1009 C990 0.913 . S
H1010 C1028 0.951 . S
H1011 C1030 0.951 . S
H1012 C1032 0.950 . S
H1013 C1033 0.950 . S
H1014 C1035 0.950 . S
H1015 C1038 0.950 . S
H1016 C1039 0.950 . S
H1017 C1041 0.950 . S
H1018 C1042 0.950 . S
H1019 C1043 0.951 . S
H1020 C1045 0.951 . S
H1021 C1047 0.950 . S
H1022 C1048 0.950 . S
H1023 C1050 0.950 . S
H1024 C1053 0.950 . S
H1025 C1054 0.950 . S
H1026 C1056 0.950 . S
H1027 C1057 0.950 . S
C1028 H1010 0.951 . S
C1028 C1029 1.366 . S
C1028 C1030 1.388 . S
C1029 C1028 1.366 . S
C1029 C1033 1.385 . S
C1030 H1011 0.951 . S
C1030 C1028 1.388 . S
C1030 C1031 1.366 . S
C1031 C1030 1.366 . S
C1031 C1032 1.414 . S
C1031 C1034 1.499 . S
C1032 H1012 0.950 . S
C1032 C1031 1.414 . S
C1032 C1033 1.374 . S
C1033 H1013 0.950 . S
C1033 C1029 1.385 . S
C1033 C1032 1.374 . S
C1034 C1031 1.499 . S
C1034 C1035 1.373 . S
C1034 C1036 1.389 . S
C1035 H1014 0.950 . S
C1035 C1034 1.373 . S
C1035 C1051 1.377 . S
C1036 C1034 1.389 . S
C1036 C1037 1.524 . S
C1036 C1050 1.377 . S
C1037 C1036 1.524 . S
C1037 C1038 1.397 . S
C1037 C1042 1.363 . S
C1038 H1015 0.950 . S
C1038 C1037 1.397 . S
C1038 C1039 1.334 . S
C1039 H1016 0.950 . S
C1039 C1038 1.334 . S
C1039 C1040 1.287 . S
C1040 C1039 1.287 . S
C1040 C1041 1.524 . S
C1040 H1059 0.913 . S
C1041 H1017 0.950 . S
C1041 C1040 1.524 . S
C1041 C1042 1.415 . S
C1042 H1018 0.950 . S
C1042 C1037 1.363 . S
C1042 C1041 1.415 . S
C1043 H1019 0.951 . S
C1043 C1044 1.366 . S
C1043 C1045 1.388 . S
C1044 C1043 1.366 . S
C1044 C1048 1.385 . S
C1045 H1020 0.951 . S
C1045 C1043 1.388 . S
C1045 C1046 1.366 . S
C1046 C1045 1.366 . S
C1046 C1047 1.414 . S
C1046 C1049 1.499 . S
C1047 H1021 0.950 . S
C1047 C1046 1.414 . S
C1047 C1048 1.374 . S
C1048 H1022 0.950 . S
C1048 C1044 1.385 . S
C1048 C1047 1.374 . S
C1049 C1046 1.499 . S
C1049 C1050 1.373 . S
C1049 C1051 1.389 . S
C1050 H1023 0.950 . S
C1050 C1036 1.377 . S
C1050 C1049 1.373 . S
C1051 C1035 1.377 . S
C1051 C1049 1.389 . S
C1051 C1052 1.524 . S
C1052 C1051 1.524 . S
C1052 C1053 1.397 . S
C1052 C1057 1.363 . S
C1053 H1024 0.950 . S
C1053 C1052 1.397 . S
C1053 C1054 1.334 . S
C1054 H1025 0.950 . S
C1054 C1053 1.334 . S
C1054 C1055 1.287 . S
C1055 C1054 1.287 . S
C1055 C1056 1.524 . S
C1055 H1058 0.999 . S
C1056 H1026 0.950 . S
C1056 C1055 1.524 . S
C1056 C1057 1.415 . S
C1057 H1027 0.950 . S
C1057 C1052 1.363 . S
C1057 C1056 1.415 . S
H1058 C1055 0.999 . S
H1059 C1040 0.913 . S
H1060 C1078 0.951 . S
H1061 C1080 0.951 . S
H1062 C1082 0.950 . S
H1063 C1083 0.950 . S
H1064 C1085 0.950 . S
H1065 C1088 0.950 . S
H1066 C1089 0.950 . S
H1067 C1091 0.950 . S
H1068 C1092 0.950 . S
H1069 C1093 0.951 . S
H1070 C1095 0.951 . S
H1071 C1097 0.950 . S
H1072 C1098 0.950 . S
H1073 C1100 0.950 . S
H1074 C1103 0.950 . S
H1075 C1104 0.950 . S
H1076 C1106 0.950 . S
H1077 C1107 0.950 . S
C1078 H1060 0.951 . S
C1078 C1079 1.366 . S
C1078 C1080 1.388 . S
C1079 C1078 1.366 . S
C1079 C1083 1.385 . S
C1080 H1061 0.951 . S
C1080 C1078 1.388 . S
C1080 C1081 1.366 . S
C1081 C1080 1.366 . S
C1081 C1082 1.414 . S
C1081 C1084 1.499 . S
C1082 H1062 0.950 . S
C1082 C1081 1.414 . S
C1082 C1083 1.374 . S
C1083 H1063 0.950 . S
C1083 C1079 1.385 . S
C1083 C1082 1.374 . S
C1084 C1081 1.499 . S
C1084 C1085 1.373 . S
C1084 C1086 1.389 . S
C1085 H1064 0.950 . S
C1085 C1084 1.373 . S
C1085 C1101 1.377 . S
C1086 C1084 1.389 . S
C1086 C1087 1.524 . S
C1086 C1100 1.377 . S
C1087 C1086 1.524 . S
C1087 C1088 1.397 . S
C1087 C1092 1.363 . S
C1088 H1065 0.950 . S
C1088 C1087 1.397 . S
C1088 C1089 1.334 . S
C1089 H1066 0.950 . S
C1089 C1088 1.334 . S
C1089 C1090 1.287 . S
C1090 C1089 1.287 . S
C1090 C1091 1.524 . S
C1090 H1109 0.913 . S
C1091 H1067 0.950 . S
C1091 C1090 1.524 . S
C1091 C1092 1.415 . S
C1092 H1068 0.950 . S
C1092 C1087 1.363 . S
C1092 C1091 1.415 . S
C1093 H1069 0.951 . S
C1093 C1094 1.366 . S
C1093 C1095 1.388 . S
C1094 C1093 1.366 . S
C1094 C1098 1.385 . S
C1095 H1070 0.951 . S
C1095 C1093 1.388 . S
C1095 C1096 1.366 . S
C1096 C1095 1.366 . S
C1096 C1097 1.414 . S
C1096 C1099 1.499 . S
C1097 H1071 0.950 . S
C1097 C1096 1.414 . S
C1097 C1098 1.374 . S
C1098 H1072 0.950 . S
C1098 C1094 1.385 . S
C1098 C1097 1.374 . S
C1099 C1096 1.499 . S
C1099 C1100 1.373 . S
C1099 C1101 1.389 . S
C1100 H1073 0.950 . S
C1100 C1086 1.377 . S
C1100 C1099 1.373 . S
C1101 C1085 1.377 . S
C1101 C1099 1.389 . S
C1101 C1102 1.524 . S
C1102 C1101 1.524 . S
C1102 C1103 1.397 . S
C1102 C1107 1.363 . S
C1103 H1074 0.950 . S
C1103 C1102 1.397 . S
C1103 C1104 1.334 . S
C1104 H1075 0.950 . S
C1104 C1103 1.334 . S
C1104 C1105 1.287 . S
C1105 C1104 1.287 . S
C1105 C1106 1.524 . S
C1105 H1108 0.999 . S
C1106 H1076 0.950 . S
C1106 C1105 1.524 . S
C1106 C1107 1.415 . S
C1107 H1077 0.950 . S
C1107 C1102 1.363 . S
C1107 C1106 1.415 . S
H1108 C1105 0.999 . S
H1109 C1090 0.913 . S
H1110 C1128 0.951 . S
H1111 C1130 0.951 . S
H1112 C1132 0.950 . S
H1113 C1133 0.950 . S
H1114 C1135 0.950 1_556 S
H1115 C1138 0.950 . S
H1116 C1139 0.950 . S
H1117 C1141 0.950 . S
H1118 C1142 0.950 . S
H1119 C1143 0.951 . S
H1120 C1145 0.951 1_556 S
H1121 C1147 0.950 . S
H1122 C1148 0.950 . S
H1123 C1150 0.950 . S
H1124 C1153 0.950 . S
H1125 C1154 0.960 . S
H1126 C1156 0.950 . S
H1127 C1157 0.950 . S
C1128 H1110 0.951 . S
C1128 C1129 1.366 . S
C1128 C1130 1.388 . S
C1129 C1128 1.366 . S
C1129 C1133 1.385 1_554 S
C1130 H1111 0.951 . S
C1130 C1128 1.388 . S
C1130 C1131 1.366 . S
C1131 C1130 1.366 . S
C1131 C1132 1.414 1_554 S
C1131 C1134 1.499 . S
C1132 H1112 0.950 . S
C1132 C1131 1.414 1_556 S
C1132 C1133 1.374 . S
C1133 H1113 0.950 . S
C1133 C1129 1.385 1_556 S
C1133 C1132 1.374 . S
C1134 C1131 1.499 . S
C1134 C1135 1.373 . S
C1134 C1136 1.389 . S
C1135 H1114 0.950 1_554 S
C1135 C1134 1.373 . S
C1135 C1151 1.377 . S
C1136 C1134 1.389 . S
C1136 C1137 1.524 . S
C1136 C1150 1.377 . S
C1137 C1136 1.524 . S
C1137 C1138 1.397 . S
C1137 C1142 1.363 . S
C1138 H1115 0.950 . S
C1138 C1137 1.397 . S
C1138 C1139 1.334 . S
C1139 H1116 0.950 . S
C1139 C1138 1.334 . S
C1139 C1140 1.287 . S
C1140 C1139 1.287 . S
C1140 C1141 1.524 . S
C1140 H1159 0.913 . S
C1141 H1117 0.950 . S
C1141 C1140 1.524 . S
C1141 C1142 1.415 . S
C1142 H1118 0.950 . S
C1142 C1137 1.363 . S
C1142 C1141 1.415 . S
C1143 H1119 0.951 . S
C1143 C1144 1.366 . S
C1143 C1145 1.388 . S
C1144 C1143 1.366 . S
C1144 C1148 1.385 . S
C1145 H1120 0.951 1_554 S
C1145 C1143 1.388 . S
C1145 C1146 1.366 . S
C1146 C1145 1.366 . S
C1146 C1147 1.414 . S
C1146 C1149 1.499 . S
C1147 H1121 0.950 . S
C1147 C1146 1.414 . S
C1147 C1148 1.374 . S
C1148 H1122 0.950 . S
C1148 C1144 1.385 . S
C1148 C1147 1.374 . S
C1149 C1146 1.499 . S
C1149 C1150 1.373 . S
C1149 C1151 1.389 . S
C1150 H1123 0.950 . S
C1150 C1136 1.377 . S
C1150 C1149 1.373 . S
C1151 C1135 1.377 . S
C1151 C1149 1.389 . S
C1151 C1152 1.524 1_554 S
C1152 C1151 1.524 1_556 S
C1152 C1153 1.397 1_556 S
C1152 C1157 1.363 . S
C1153 H1124 0.950 . S
C1153 C1152 1.397 1_554 S
C1153 C1154 1.334 1_554 S
C1154 H1125 0.960 . S
C1154 C1153 1.334 1_556 S
C1154 C1155 1.287 . S
C1155 C1154 1.287 . S
C1155 C1156 1.524 . S
C1155 H1158 0.999 . S
C1156 H1126 0.950 . S
C1156 C1155 1.524 . S
C1156 C1157 1.415 . S
C1157 H1127 0.950 . S
C1157 C1152 1.363 . S
C1157 C1156 1.415 . S
H1158 C1155 0.999 . S
H1159 C1140 0.913 . S
H1160 C1178 0.951 . S
H1161 C1180 0.951 . S
H1162 C1182 0.950 . S
H1163 C1183 0.950 . S
H1164 C1185 0.950 . S
H1165 C1188 0.950 . S
H1166 C1189 0.950 . S
H1167 C1191 0.950 . S
H1168 C1192 0.950 . S
H1169 C1193 0.951 . S
H1170 C1195 0.951 . S
H1171 C1197 0.950 . S
H1172 C1198 0.950 . S
H1173 C1200 0.950 . S
H1174 C1203 0.950 . S
H1175 C1204 0.953 . S
H1176 C1206 0.950 . S
H1177 C1207 0.950 . S
C1178 H1160 0.951 . S
C1178 C1179 1.366 . S
C1178 C1180 1.388 . S
C1179 C1178 1.366 . S
C1179 C1183 1.385 . S
C1180 H1161 0.951 . S
C1180 C1178 1.388 . S
C1180 C1181 1.366 . S
C1181 C1180 1.366 . S
C1181 C1182 1.414 . S
C1181 C1184 1.499 . S
C1182 H1162 0.950 . S
C1182 C1181 1.414 . S
C1182 C1183 1.374 . S
C1183 H1163 0.950 . S
C1183 C1179 1.385 . S
C1183 C1182 1.374 . S
C1184 C1181 1.499 . S
C1184 C1185 1.373 . S
C1184 C1186 1.389 . S
C1185 H1164 0.950 . S
C1185 C1184 1.373 . S
C1185 C1201 1.377 . S
C1186 C1184 1.389 . S
C1186 C1187 1.524 . S
C1186 C1200 1.377 . S
C1187 C1186 1.524 . S
C1187 C1188 1.397 . S
C1187 C1192 1.363 . S
C1188 H1165 0.950 . S
C1188 C1187 1.397 . S
C1188 C1189 1.334 . S
C1189 H1166 0.950 . S
C1189 C1188 1.334 . S
C1189 C1190 1.287 . S
C1190 C1189 1.287 . S
C1190 C1191 1.524 . S
C1190 H1209 0.913 . S
C1191 H1167 0.950 . S
C1191 C1190 1.524 . S
C1191 C1192 1.415 . S
C1192 H1168 0.950 . S
C1192 C1187 1.363 . S
C1192 C1191 1.415 . S
C1193 H1169 0.951 . S
C1193 C1194 1.366 . S
C1193 C1195 1.388 . S
C1194 C1193 1.366 . S
C1194 C1198 1.385 . S
C1195 H1170 0.951 . S
C1195 C1193 1.388 . S
C1195 C1196 1.366 . S
C1196 C1195 1.366 . S
C1196 C1197 1.414 . S
C1196 C1199 1.499 . S
C1197 H1171 0.950 . S
C1197 C1196 1.414 . S
C1197 C1198 1.374 . S
C1198 H1172 0.950 . S
C1198 C1194 1.385 . S
C1198 C1197 1.374 . S
C1199 C1196 1.499 . S
C1199 C1200 1.373 . S
C1199 C1201 1.389 . S
C1200 H1173 0.950 . S
C1200 C1186 1.377 . S
C1200 C1199 1.373 . S
C1201 C1185 1.377 . S
C1201 C1199 1.389 . S
C1201 C1202 1.524 . S
C1202 C1201 1.524 . S
C1202 C1203 1.397 . S
C1202 C1207 1.363 1_545 S
C1203 H1174 0.950 . S
C1203 C1202 1.397 . S
C1203 C1204 1.334 1_545 S
C1204 H1175 0.953 . S
C1204 C1203 1.334 1_565 S
C1204 C1205 1.287 . S
C1205 C1204 1.287 . S
C1205 C1206 1.524 . S
C1205 H1208 0.999 . S
C1206 H1176 0.950 . S
C1206 C1205 1.524 . S
C1206 C1207 1.415 . S
C1207 H1177 0.950 . S
C1207 C1202 1.363 1_565 S
C1207 C1206 1.415 . S
H1208 C1205 0.999 . S
H1209 C1190 0.913 . S
H1210 C1228 0.951 . S
H1211 C1230 0.951 . S
H1212 C1232 0.950 . S
H1213 C1233 0.950 . S
H1214 C1235 0.950 . S
H1215 C1238 0.950 . S
H1216 C1239 0.950 . S
H1217 C1241 0.950 . S
H1218 C1242 0.934 1_545 S
H1219 C1243 0.951 . S
H1220 C1245 0.951 . S
H1221 C1247 0.950 . S
H1222 C1248 0.950 . S
H1223 C1250 0.950 . S
H1224 C1253 0.950 . S
H1225 C1254 0.950 . S
H1226 C1256 0.950 . S
H1227 C1257 0.950 . S
C1228 H1210 0.951 . S
C1228 C1229 1.366 . S
C1228 C1230 1.388 . S
C1229 C1228 1.366 . S
C1229 C1233 1.385 . S
C1230 H1211 0.951 . S
C1230 C1228 1.388 . S
C1230 C1231 1.366 . S
C1231 C1230 1.366 . S
C1231 C1232 1.414 . S
C1231 C1234 1.499 . S
C1232 H1212 0.950 . S
C1232 C1231 1.414 . S
C1232 C1233 1.374 . S
C1233 H1213 0.950 . S
C1233 C1229 1.385 . S
C1233 C1232 1.374 . S
C1234 C1231 1.499 . S
C1234 C1235 1.373 . S
C1234 C1236 1.389 . S
C1235 H1214 0.950 . S
C1235 C1234 1.373 . S
C1235 C1251 1.377 . S
C1236 C1234 1.389 . S
C1236 C1237 1.524 1_545 S
C1236 C1250 1.377 . S
C1237 C1236 1.524 1_565 S
C1237 C1238 1.397 . S
C1237 C1242 1.363 . S
C1238 H1215 0.950 . S
C1238 C1237 1.397 . S
C1238 C1239 1.334 . S
C1239 H1216 0.950 . S
C1239 C1238 1.334 . S
C1239 C1240 1.287 . S
C1240 C1239 1.287 . S
C1240 C1241 1.524 . S
C1240 H1259 0.913 . S
C1241 H1217 0.950 . S
C1241 C1240 1.524 . S
C1241 C1242 1.415 . S
C1242 H1218 0.934 1_565 S
C1242 C1237 1.363 . S
C1242 C1241 1.415 . S
C1243 H1219 0.951 . S
C1243 C1244 1.366 . S
C1243 C1245 1.388 . S
C1244 C1243 1.366 . S
C1244 C1248 1.385 . S
C1245 H1220 0.951 . S
C1245 C1243 1.388 . S
C1245 C1246 1.366 . S
C1246 C1245 1.366 . S
C1246 C1247 1.414 . S
C1246 C1249 1.499 . S
C1247 H1221 0.950 . S
C1247 C1246 1.414 . S
C1247 C1248 1.374 . S
C1248 H1222 0.950 . S
C1248 C1244 1.385 . S
C1248 C1247 1.374 . S
C1249 C1246 1.499 . S
C1249 C1250 1.373 . S
C1249 C1251 1.389 . S
C1250 H1223 0.950 . S
C1250 C1236 1.377 . S
C1250 C1249 1.373 . S
C1251 C1235 1.377 . S
C1251 C1249 1.389 . S
C1251 C1252 1.524 . S
C1252 C1251 1.524 . S
C1252 C1253 1.397 . S
C1252 C1257 1.363 . S
C1253 H1224 0.950 . S
C1253 C1252 1.397 . S
C1253 C1254 1.334 . S
C1254 H1225 0.950 . S
C1254 C1253 1.334 . S
C1254 C1255 1.287 . S
C1255 C1254 1.287 . S
C1255 C1256 1.524 . S
C1255 H1258 0.999 . S
C1256 H1226 0.950 . S
C1256 C1255 1.524 . S
C1256 C1257 1.415 . S
C1257 H1227 0.950 . S
C1257 C1252 1.363 . S
C1257 C1256 1.415 . S
H1258 C1255 0.999 . S
H1259 C1240 0.913 . S
H1260 C1278 0.951 . S
H1261 C1280 0.951 . S
H1262 C1282 0.950 . S
H1263 C1283 0.950 . S
H1264 C1285 0.980 . S
H1265 C1288 0.950 . S
H1266 C1289 0.950 . S
H1267 C1291 0.950 . S
H1268 C1292 0.957 . S
H1269 C1293 0.951 . S
H1270 C1295 0.951 . S
H1271 C1297 0.950 . S
H1272 C1298 0.950 . S
H1273 C1300 0.950 . S
H1274 C1303 0.950 . S
H1275 C1304 0.950 . S
H1276 C1306 0.950 . S
H1277 C1307 0.950 . S
C1278 H1260 0.951 . S
C1278 C1279 1.366 . S
C1278 C1280 1.388 . S
C1279 C1278 1.366 . S
C1279 C1283 1.385 1_565 S
C1280 H1261 0.951 . S
C1280 C1278 1.388 . S
C1280 C1281 1.366 . S
C1281 C1280 1.366 . S
C1281 C1282 1.414 1_565 S
C1281 C1284 1.499 . S
C1282 H1262 0.950 . S
C1282 C1281 1.414 1_545 S
C1282 C1283 1.374 . S
C1283 H1263 0.950 . S
C1283 C1279 1.385 1_545 S
C1283 C1282 1.374 . S
C1284 C1281 1.499 . S
C1284 C1285 1.395 1_565 S
C1284 C1286 1.389 1_554 S
C1285 H1264 0.980 . S
C1285 C1284 1.395 1_545 S
C1285 C1301 1.327 1_554 S
C1286 C1284 1.389 1_556 S
C1286 C1287 1.524 1_556 S
C1286 C1300 1.377 . S
C1287 C1286 1.524 1_554 S
C1287 C1288 1.397 . S
C1287 C1292 1.360 1_554 S
C1288 H1265 0.950 . S
C1288 C1287 1.397 . S
C1288 C1289 1.334 . S
C1289 H1266 0.950 . S
C1289 C1288 1.334 . S
C1289 C1290 1.287 . S
C1290 C1289 1.287 . S
C1290 C1291 1.524 . S
C1290 H1309 0.913 . S
C1291 H1267 0.950 . S
C1291 C1290 1.524 . S
C1291 C1292 1.412 1_554 S
C1292 H1268 0.957 . S
C1292 C1287 1.360 1_556 S
C1292 C1291 1.412 1_556 S
C1293 H1269 0.951 . S
C1293 C1294 1.363 . S
C1293 C1295 1.388 . S
C1294 C1293 1.363 . S
C1294 C1298 1.388 1_545 S
C1295 H1270 0.951 . S
C1295 C1293 1.388 . S
C1295 C1296 1.366 1_545 S
C1296 C1295 1.366 1_565 S
C1296 C1297 1.414 . S
C1296 C1299 1.499 . S
C1297 H1271 0.950 . S
C1297 C1296 1.414 . S
C1297 C1298 1.374 . S
C1298 H1272 0.950 . S
C1298 C1294 1.388 1_565 S
C1298 C1297 1.374 . S
C1299 C1296 1.499 . S
C1299 C1300 1.373 . S
C1299 C1301 1.389 1_565 S
C1300 H1273 0.950 . S
C1300 C1286 1.377 . S
C1300 C1299 1.373 . S
C1301 C1285 1.327 1_556 S
C1301 C1299 1.389 1_545 S
C1301 C1302 1.524 . S
C1302 C1301 1.524 . S
C1302 C1303 1.397 . S
C1302 C1307 1.363 . S
C1303 H1274 0.950 . S
C1303 C1302 1.397 . S
C1303 C1304 1.334 . S
C1304 H1275 0.950 . S
C1304 C1303 1.334 . S
C1304 C1305 1.287 . S
C1305 C1304 1.287 . S
C1305 C1306 1.524 . S
C1305 H1308 0.999 . S
C1306 H1276 0.950 . S
C1306 C1305 1.524 . S
C1306 C1307 1.415 . S
C1307 H1277 0.950 . S
C1307 C1302 1.363 . S
C1307 C1306 1.415 . S
H1308 C1305 0.999 . S
H1309 C1290 0.913 . S
H1310 C1328 0.951 . S
H1311 C1330 0.951 . S
H1312 C1332 0.950 . S
H1313 C1333 0.950 . S
H1314 C1335 0.950 . S
H1315 C1338 0.950 . S
H1316 C1339 0.950 . S
H1317 C1341 0.950 . S
H1318 C1342 0.950 . S
H1319 C1343 0.951 . S
H1320 C1345 0.951 . S
H1321 C1347 0.950 1_565 S
H1322 C1348 0.950 . S
H1323 C1350 0.950 . S
H1324 C1353 0.950 . S
H1325 C1354 0.950 . S
H1326 C1356 0.950 . S
H1327 C1357 0.950 . S
C1328 H1310 0.951 . S
C1328 C1329 1.366 . S
C1328 C1330 1.388 . S
C1329 C1328 1.366 . S
C1329 C1333 1.385 1_565 S
C1330 H1311 0.951 . S
C1330 C1328 1.388 . S
C1330 C1331 1.366 1_565 S
C1331 C1330 1.366 1_545 S
C1331 C1332 1.414 . S
C1331 C1334 1.499 . S
C1332 H1312 0.950 . S
C1332 C1331 1.414 . S
C1332 C1333 1.374 . S
C1333 H1313 0.950 . S
C1333 C1329 1.385 1_545 S
C1333 C1332 1.374 . S
C1334 C1331 1.499 . S
C1334 C1335 1.373 . S
C1334 C1336 1.389 1_545 S
C1335 H1314 0.950 . S
C1335 C1334 1.373 . S
C1335 C1351 1.377 . S
C1336 C1334 1.389 1_565 S
C1336 C1337 1.524 . S
C1336 C1350 1.377 . S
C1337 C1336 1.524 . S
C1337 C1338 1.397 . S
C1337 C1342 1.363 . S
C1338 H1315 0.950 . S
C1338 C1337 1.397 . S
C1338 C1339 1.334 . S
C1339 H1316 0.950 . S
C1339 C1338 1.334 . S
C1339 C1340 1.287 . S
C1340 C1339 1.287 . S
C1340 C1341 1.524 . S
C1340 H1359 0.913 . S
C1341 H1317 0.950 . S
C1341 C1340 1.524 . S
C1341 C1342 1.415 . S
C1342 H1318 0.950 . S
C1342 C1337 1.363 . S
C1342 C1341 1.415 . S
C1343 H1319 0.951 . S
C1343 C1344 1.366 . S
C1343 C1345 1.388 . S
C1344 C1343 1.366 . S
C1344 C1348 1.385 . S
C1345 H1320 0.951 . S
C1345 C1343 1.388 . S
C1345 C1346 1.366 . S
C1346 C1345 1.366 . S
C1346 C1347 1.414 . S
C1346 C1349 1.499 . S
C1347 H1321 0.950 1_545 S
C1347 C1346 1.414 . S
C1347 C1348 1.374 . S
C1348 H1322 0.950 . S
C1348 C1344 1.385 . S
C1348 C1347 1.374 . S
C1349 C1346 1.499 . S
C1349 C1350 1.373 1_545 S
C1349 C1351 1.389 . S
C1350 H1323 0.950 . S
C1350 C1336 1.377 . S
C1350 C1349 1.373 1_565 S
C1351 C1335 1.377 . S
C1351 C1349 1.389 . S
C1351 C1352 1.524 . S
C1352 C1351 1.524 . S
C1352 C1353 1.397 . S
C1352 C1357 1.363 . S
C1353 H1324 0.950 . S
C1353 C1352 1.397 . S
C1353 C1354 1.334 . S
C1354 H1325 0.950 . S
C1354 C1353 1.334 . S
C1354 C1355 1.287 . S
C1355 C1354 1.287 . S
C1355 C1356 1.524 . S
C1355 H1358 0.999 . S
C1356 H1326 0.950 . S
C1356 C1355 1.524 . S
C1356 C1357 1.415 . S
C1357 H1327 0.950 . S
C1357 C1352 1.363 . S
C1357 C1356 1.415 . S
H1358 C1355 0.999 . S
H1359 C1340 0.913 . S
H1360 C1378 0.951 . S
H1361 C1380 0.951 . S
H1362 C1382 0.950 . S
H1363 C1383 0.950 . S
H1364 C1385 0.950 . S
H1365 C1388 0.950 . S
H1366 C1389 0.950 . S
H1367 C1391 0.950 . S
H1368 C1392 0.950 . S
H1369 C1393 0.951 . S
H1370 C1395 0.951 . S
H1371 C1397 0.950 . S
H1372 C1398 0.950 . S
H1373 C1400 0.950 . S
H1374 C1403 0.950 . S
H1375 C1404 0.950 . S
H1376 C1406 0.950 . S
H1377 C1407 0.950 . S
C1378 H1360 0.951 . S
C1378 C1379 1.366 . S
C1378 C1380 1.388 . S
C1379 C1378 1.366 . S
C1379 C1383 1.385 . S
C1380 H1361 0.951 . S
C1380 C1378 1.388 . S
C1380 C1381 1.366 . S
C1381 C1380 1.366 . S
C1381 C1382 1.414 . S
C1381 C1384 1.499 . S
C1382 H1362 0.950 . S
C1382 C1381 1.414 . S
C1382 C1383 1.374 . S
C1383 H1363 0.950 . S
C1383 C1379 1.385 . S
C1383 C1382 1.374 . S
C1384 C1381 1.499 . S
C1384 C1385 1.373 . S
C1384 C1386 1.389 . S
C1385 H1364 0.950 . S
C1385 C1384 1.373 . S
C1385 C1401 1.377 . S
C1386 C1384 1.389 . S
C1386 C1387 1.524 1_554 S
C1386 C1400 1.377 . S
C1387 C1386 1.524 1_556 S
C1387 C1388 1.397 . S
C1387 C1392 1.363 . S
C1388 H1365 0.950 . S
C1388 C1387 1.397 . S
C1388 C1389 1.334 . S
C1389 H1366 0.950 . S
C1389 C1388 1.334 . S
C1389 C1390 1.287 . S
C1390 C1389 1.287 . S
C1390 C1391 1.524 . S
C1390 H1409 0.913 . S
C1391 H1367 0.950 . S
C1391 C1390 1.524 . S
C1391 C1392 1.415 . S
C1392 H1368 0.950 . S
C1392 C1387 1.363 . S
C1392 C1391 1.415 . S
C1393 H1369 0.951 . S
C1393 C1394 1.366 . S
C1393 C1395 1.388 . S
C1394 C1393 1.366 . S
C1394 C1398 1.385 . S
C1395 H1370 0.951 . S
C1395 C1393 1.388 . S
C1395 C1396 1.366 . S
C1396 C1395 1.366 . S
C1396 C1397 1.414 . S
C1396 C1399 1.499 . S
C1397 H1371 0.950 . S
C1397 C1396 1.414 . S
C1397 C1398 1.374 . S
C1398 H1372 0.950 . S
C1398 C1394 1.385 . S
C1398 C1397 1.374 . S
C1399 C1396 1.499 . S
C1399 C1400 1.373 . S
C1399 C1401 1.389 . S
C1400 H1373 0.950 . S
C1400 C1386 1.377 . S
C1400 C1399 1.373 . S
C1401 C1385 1.377 . S
C1401 C1399 1.389 . S
C1401 C1402 1.524 . S
C1402 C1401 1.524 . S
C1402 C1403 1.397 . S
C1402 C1407 1.363 . S
C1403 H1374 0.950 . S
C1403 C1402 1.397 . S
C1403 C1404 1.334 . S
C1404 H1375 0.950 . S
C1404 C1403 1.334 . S
C1404 C1405 1.287 . S
C1405 C1404 1.287 . S
C1405 C1406 1.524 . S
C1405 H1408 0.999 . S
C1406 H1376 0.950 . S
C1406 C1405 1.524 . S
C1406 C1407 1.415 . S
C1407 H1377 0.950 . S
C1407 C1402 1.363 . S
C1407 C1406 1.415 . S
H1408 C1405 0.999 . S
H1409 C1390 0.913 . S
H1410 C1428 0.951 . S
H1411 C1430 0.951 . S
H1412 C1432 0.950 . S
H1413 C1433 0.950 . S
H1414 C1435 0.950 . S
H1415 C1438 0.950 . S
H1416 C1439 0.950 . S
H1417 C1441 0.950 . S
H1418 C1442 0.950 . S
H1419 C1443 0.951 . S
H1420 C1445 0.951 . S
H1421 C1447 0.950 . S
H1422 C1448 0.950 . S
H1423 C1450 0.950 . S
H1424 C1453 0.950 . S
H1425 C1454 0.950 . S
H1426 C1456 0.950 . S
H1427 C1457 0.965 . S
C1428 H1410 0.951 . S
C1428 C1429 1.366 1_554 S
C1428 C1430 1.388 . S
C1429 C1428 1.366 1_556 S
C1429 C1433 1.385 . S
C1430 H1411 0.951 . S
C1430 C1428 1.388 . S
C1430 C1431 1.366 1_554 S
C1431 C1430 1.366 1_556 S
C1431 C1432 1.414 . S
C1431 C1434 1.499 . S
C1432 H1412 0.950 . S
C1432 C1431 1.414 . S
C1432 C1433 1.374 . S
C1433 H1413 0.950 . S
C1433 C1429 1.385 . S
C1433 C1432 1.374 . S
C1434 C1431 1.499 . S
C1434 C1435 1.373 . S
C1434 C1436 1.389 1_556 S
C1435 H1414 0.950 . S
C1435 C1434 1.373 . S
C1435 C1451 1.377 . S
C1436 C1434 1.389 1_554 S
C1436 C1437 1.524 . S
C1436 C1450 1.377 . S
C1437 C1436 1.524 . S
C1437 C1438 1.397 1_554 S
C1437 C1442 1.363 . S
C1438 H1415 0.950 . S
C1438 C1437 1.397 1_556 S
C1438 C1439 1.334 . S
C1439 H1416 0.950 . S
C1439 C1438 1.334 . S
C1439 C1440 1.287 1_556 S
C1440 C1439 1.287 1_554 S
C1440 C1441 1.524 . S
C1440 H1459 0.913 . S
C1441 H1417 0.950 . S
C1441 C1440 1.524 . S
C1441 C1442 1.415 . S
C1442 H1418 0.950 . S
C1442 C1437 1.363 . S
C1442 C1441 1.415 . S
C1443 H1419 0.951 . S
C1443 C1444 1.366 . S
C1443 C1445 1.388 . S
C1444 C1443 1.366 . S
C1444 C1448 1.385 1_556 S
C1445 H1420 0.951 . S
C1445 C1443 1.388 . S
C1445 C1446 1.366 . S
C1446 C1445 1.366 . S
C1446 C1447 1.414 1_556 S
C1446 C1449 1.503 1_455 S
C1447 H1421 0.950 . S
C1447 C1446 1.414 1_554 S
C1447 C1448 1.374 . S
C1448 H1422 0.950 . S
C1448 C1444 1.385 1_554 S
C1448 C1447 1.374 . S
C1449 C1446 1.503 1_655 S
C1449 C1450 1.362 1_556 S
C1449 C1451 1.401 . S
C1450 H1423 0.950 . S
C1450 C1436 1.377 . S
C1450 C1449 1.362 1_554 S
C1451 C1435 1.377 . S
C1451 C1449 1.401 . S
C1451 C1452 1.524 1_655 S
C1452 C1451 1.524 1_455 S
C1452 C1453 1.397 1_556 S
C1452 C1457 1.359 1_455 S
C1453 H1424 0.950 . S
C1453 C1452 1.397 1_554 S
C1453 C1454 1.334 . S
C1454 H1425 0.950 . S
C1454 C1453 1.334 . S
C1454 C1455 1.287 1_554 S
C1455 C1454 1.287 1_556 S
C1455 C1456 1.524 . S
C1455 H1458 0.999 . S
C1456 H1426 0.950 . S
C1456 C1455 1.524 . S
C1456 C1457 1.405 1_455 S
C1457 H1427 0.965 . S
C1457 C1452 1.359 1_655 S
C1457 C1456 1.405 1_655 S
H1458 C1455 0.999 . S
H1459 C1440 0.913 . S
H1460 C1478 0.951 . S
H1461 C1480 0.951 . S
H1462 C1482 0.950 . S
H1463 C1483 0.950 . S
H1464 C1485 0.950 . S
H1465 C1488 0.950 . S
H1466 C1489 0.950 . S
H1467 C1491 0.950 . S
H1468 C1492 0.950 . S
H1469 C1493 0.951 . S
H1470 C1495 0.951 . S
H1471 C1497 0.950 . S
H1472 C1498 0.950 . S
H1473 C1500 0.950 . S
H1474 C1503 0.950 . S
H1475 C1504 0.950 . S
H1476 C1506 0.950 . S
H1477 C1507 0.950 . S
C1478 H1460 0.951 . S
C1478 C1479 1.366 1_655 S
C1478 C1480 1.388 . S
C1479 C1478 1.366 1_455 S
C1479 C1483 1.385 . S
C1480 H1461 0.951 . S
C1480 C1478 1.388 . S
C1480 C1481 1.366 1_655 S
C1481 C1480 1.366 1_455 S
C1481 C1482 1.414 . S
C1481 C1484 1.499 . S
C1482 H1462 0.950 . S
C1482 C1481 1.414 . S
C1482 C1483 1.374 . S
C1483 H1463 0.950 . S
C1483 C1479 1.385 . S
C1483 C1482 1.374 . S
C1484 C1481 1.499 . S
C1484 C1485 1.373 . S
C1484 C1486 1.389 1_455 S
C1485 H1464 0.950 . S
C1485 C1484 1.373 . S
C1485 C1501 1.377 . S
C1486 C1484 1.389 1_655 S
C1486 C1487 1.524 . S
C1486 C1500 1.377 . S
C1487 C1486 1.524 . S
C1487 C1488 1.397 . S
C1487 C1492 1.363 . S
C1488 H1465 0.950 . S
C1488 C1487 1.397 . S
C1488 C1489 1.334 . S
C1489 H1466 0.950 . S
C1489 C1488 1.334 . S
C1489 C1490 1.287 . S
C1490 C1489 1.287 . S
C1490 C1491 1.524 . S
C1490 H1509 0.913 . S
C1491 H1467 0.950 . S
C1491 C1490 1.524 . S
C1491 C1492 1.415 . S
C1492 H1468 0.950 . S
C1492 C1487 1.363 . S
C1492 C1491 1.415 . S
C1493 H1469 0.951 . S
C1493 C1494 1.331 1_455 S
C1493 C1495 1.388 . S
C1494 C1493 1.331 1_655 S
C1494 C1498 1.420 . S
C1495 H1470 0.951 . S
C1495 C1493 1.388 . S
C1495 C1496 1.366 . S
C1496 C1495 1.366 . S
C1496 C1497 1.414 1_455 S
C1496 C1499 1.499 . S
C1497 H1471 0.950 . S
C1497 C1496 1.414 1_655 S
C1497 C1498 1.374 . S
C1498 H1472 0.950 . S
C1498 C1494 1.420 . S
C1498 C1497 1.374 . S
C1499 C1496 1.499 . S
C1499 C1500 1.373 1_455 S
C1499 C1501 1.389 . S
C1500 H1473 0.950 . S
C1500 C1486 1.377 . S
C1500 C1499 1.373 1_655 S
C1501 C1485 1.377 . S
C1501 C1499 1.389 . S
C1501 C1502 1.524 . S
C1502 C1501 1.524 . S
C1502 C1503 1.397 . S
C1502 C1507 1.363 . S
C1503 H1474 0.950 . S
C1503 C1502 1.397 . S
C1503 C1504 1.334 . S
C1504 H1475 0.950 . S
C1504 C1503 1.334 . S
C1504 C1505 1.287 . S
C1505 C1504 1.287 . S
C1505 C1506 1.524 . S
C1505 H1508 0.999 . S
C1506 H1476 0.950 . S
C1506 C1505 1.524 . S
C1506 C1507 1.415 . S
C1507 H1477 0.950 . S
C1507 C1502 1.363 . S
C1507 C1506 1.415 . S
H1508 C1505 0.999 . S
H1509 C1490 0.913 . S
H1510 C1528 0.951 . S
H1511 C1530 0.951 . S
H1512 C1532 0.950 . S
H1513 C1533 0.950 . S
H1514 C1535 0.950 . S
H1515 C1538 0.950 . S
H1516 C1539 0.950 . S
H1517 C1541 0.950 . S
H1518 C1542 0.950 . S
H1519 C1543 0.951 . S
H1520 C1545 0.951 . S
H1521 C1547 0.950 . S
H1522 C1548 0.950 . S
H1523 C1550 0.950 . S
H1524 C1553 0.950 . S
H1525 C1554 0.950 . S
H1526 C1556 0.950 . S
H1527 C1557 0.950 . S
C1528 H1510 0.951 . S
C1528 C1529 1.366 . S
C1528 C1530 1.388 . S
C1529 C1528 1.366 . S
C1529 C1533 1.385 . S
C1530 H1511 0.951 . S
C1530 C1528 1.388 . S
C1530 C1531 1.366 . S
C1531 C1530 1.366 . S
C1531 C1532 1.414 . S
C1531 C1534 1.499 . S
C1532 H1512 0.950 . S
C1532 C1531 1.414 . S
C1532 C1533 1.374 . S
C1533 H1513 0.950 . S
C1533 C1529 1.385 . S
C1533 C1532 1.374 . S
C1534 C1531 1.499 . S
C1534 C1535 1.373 . S
C1534 C1536 1.389 . S
C1535 H1514 0.950 . S
C1535 C1534 1.373 . S
C1535 C1551 1.377 . S
C1536 C1534 1.389 . S
C1536 C1537 1.524 . S
C1536 C1550 1.377 . S
C1537 C1536 1.524 . S
C1537 C1538 1.397 . S
C1537 C1542 1.363 . S
C1538 H1515 0.950 . S
C1538 C1537 1.397 . S
C1538 C1539 1.334 . S
C1539 H1516 0.950 . S
C1539 C1538 1.334 . S
C1539 C1540 1.287 . S
C1540 C1539 1.287 . S
C1540 C1541 1.524 . S
C1540 H1559 0.913 . S
C1541 H1517 0.950 . S
C1541 C1540 1.524 . S
C1541 C1542 1.415 . S
C1542 H1518 0.950 . S
C1542 C1537 1.363 . S
C1542 C1541 1.415 . S
C1543 H1519 0.951 . S
C1543 C1544 1.366 . S
C1543 C1545 1.388 . S
C1544 C1543 1.366 . S
C1544 C1548 1.385 . S
C1545 H1520 0.951 . S
C1545 C1543 1.388 . S
C1545 C1546 1.366 . S
C1546 C1545 1.366 . S
C1546 C1547 1.414 . S
C1546 C1549 1.499 . S
C1547 H1521 0.950 . S
C1547 C1546 1.414 . S
C1547 C1548 1.374 . S
C1548 H1522 0.950 . S
C1548 C1544 1.385 . S
C1548 C1547 1.374 . S
C1549 C1546 1.499 . S
C1549 C1550 1.373 . S
C1549 C1551 1.389 . S
C1550 H1523 0.950 . S
C1550 C1536 1.377 . S
C1550 C1549 1.373 . S
C1551 C1535 1.377 . S
C1551 C1549 1.389 . S
C1551 C1552 1.524 . S
C1552 C1551 1.524 . S
C1552 C1553 1.397 . S
C1552 C1557 1.363 . S
C1553 H1524 0.950 . S
C1553 C1552 1.397 . S
C1553 C1554 1.334 . S
C1554 H1525 0.950 . S
C1554 C1553 1.334 . S
C1554 C1555 1.287 . S
C1555 C1554 1.287 . S
C1555 C1556 1.524 . S
C1555 H1558 0.999 . S
C1556 H1526 0.950 . S
C1556 C1555 1.524 . S
C1556 C1557 1.415 . S
C1557 H1527 0.950 . S
C1557 C1552 1.363 . S
C1557 C1556 1.415 . S
H1558 C1555 0.999 . S
H1559 C1540 0.913 . S
H1560 C1578 0.951 . S
H1561 C1580 0.951 . S
H1562 C1582 0.950 . S
H1563 C1583 0.950 . S
H1564 C1585 0.950 . S
H1565 C1588 0.950 . S
H1566 C1589 0.950 . S
H1567 C1591 0.950 . S
H1568 C1592 0.950 . S
H1569 C1593 0.951 . S
H1570 C1595 0.951 . S
H1571 C1597 0.950 . S
H1572 C1598 0.950 . S
H1573 C1600 0.950 . S
H1574 C1603 0.950 . S
H1575 C1604 0.950 . S
H1576 C1606 0.950 . S
H1577 C1607 0.950 1_655 S
C1578 H1560 0.951 . S
C1578 C1579 1.366 . S
C1578 C1580 1.388 . S
C1579 C1578 1.366 . S
C1579 C1583 1.385 . S
C1580 H1561 0.951 . S
C1580 C1578 1.388 . S
C1580 C1581 1.366 . S
C1581 C1580 1.366 . S
C1581 C1582 1.414 . S
C1581 C1584 1.499 . S
C1582 H1562 0.950 . S
C1582 C1581 1.414 . S
C1582 C1583 1.374 . S
C1583 H1563 0.950 . S
C1583 C1579 1.385 . S
C1583 C1582 1.374 . S
C1584 C1581 1.499 . S
C1584 C1585 1.373 . S
C1584 C1586 1.389 . S
C1585 H1564 0.950 . S
C1585 C1584 1.373 . S
C1585 C1601 1.377 1_655 S
C1586 C1584 1.389 . S
C1586 C1587 1.524 . S
C1586 C1600 1.377 1_655 S
C1587 C1586 1.524 . S
C1587 C1588 1.397 . S
C1587 C1592 1.363 . S
C1588 H1565 0.950 . S
C1588 C1587 1.397 . S
C1588 C1589 1.334 . S
C1589 H1566 0.950 . S
C1589 C1588 1.334 . S
C1589 C1590 1.287 . S
C1590 C1589 1.287 . S
C1590 C1591 1.524 . S
C1590 H1609 0.913 . S
C1591 H1567 0.950 . S
C1591 C1590 1.524 . S
C1591 C1592 1.415 . S
C1592 H1568 0.950 . S
C1592 C1587 1.363 . S
C1592 C1591 1.415 . S
C1593 H1569 0.951 . S
C1593 C1594 1.366 . S
C1593 C1595 1.388 . S
C1594 C1593 1.366 . S
C1594 C1598 1.385 . S
C1595 H1570 0.951 . S
C1595 C1593 1.388 . S
C1595 C1596 1.366 . S
C1596 C1595 1.366 . S
C1596 C1597 1.414 . S
C1596 C1599 1.499 . S
C1597 H1571 0.950 . S
C1597 C1596 1.414 . S
C1597 C1598 1.374 . S
C1598 H1572 0.950 . S
C1598 C1594 1.385 . S
C1598 C1597 1.374 . S
C1599 C1596 1.499 . S
C1599 C1600 1.373 . S
C1599 C1601 1.389 . S
C1600 H1573 0.950 . S
C1600 C1586 1.377 1_455 S
C1600 C1599 1.373 . S
C1601 C1585 1.377 1_455 S
C1601 C1599 1.389 . S
C1601 C1602 1.524 . S
C1602 C1601 1.524 . S
C1602 C1603 1.397 . S
C1602 C1607 1.363 . S
C1603 H1574 0.950 . S
C1603 C1602 1.397 . S
C1603 C1604 1.334 . S
C1604 H1575 0.950 . S
C1604 C1603 1.334 . S
C1604 C1605 1.287 . S
C1605 C1604 1.287 . S
C1605 C1606 1.524 . S
C1605 H1608 0.999 . S
C1606 H1576 0.950 . S
C1606 C1605 1.524 . S
C1606 C1607 1.415 . S
C1607 H1577 0.950 1_455 S
C1607 C1602 1.363 . S
C1607 C1606 1.415 . S
H1608 C1605 0.999 . S
H1609 C1590 0.913 . S
H1610 C1628 0.951 . S
H1611 C1630 0.951 . S
H1612 C1632 0.950 . S
H1613 C1633 0.950 . S
H1614 C1635 0.950 1_455 S
H1615 C1638 0.950 . S
H1616 C1639 0.950 . S
H1617 C1641 0.950 . S
H1618 C1642 0.950 . S
H1619 C1643 0.951 . S
H1620 C1645 0.951 . S
H1621 C1647 0.950 . S
H1622 C1648 0.950 . S
H1623 C1650 0.950 . S
H1624 C1653 0.886 1_655 S
H1625 C1654 0.950 . S
H1626 C1656 0.950 . S
H1627 C1657 0.950 . S
C1628 H1610 0.951 . S
C1628 C1629 1.366 . S
C1628 C1630 1.388 . S
C1629 C1628 1.366 . S
C1629 C1633 1.385 1_655 S
C1630 H1611 0.951 . S
C1630 C1628 1.388 . S
C1630 C1631 1.366 . S
C1631 C1630 1.366 . S
C1631 C1632 1.414 1_655 S
C1631 C1634 1.499 . S
C1632 H1612 0.950 . S
C1632 C1631 1.414 1_455 S
C1632 C1633 1.374 . S
C1633 H1613 0.950 . S
C1633 C1629 1.385 1_455 S
C1633 C1632 1.374 . S
C1634 C1631 1.499 . S
C1634 C1635 1.373 . S
C1634 C1636 1.389 . S
C1635 H1614 0.950 1_655 S
C1635 C1634 1.373 . S
C1635 C1651 1.377 . S
C1636 C1634 1.389 . S
C1636 C1637 1.524 . S
C1636 C1650 1.377 . S
C1637 C1636 1.524 . S
C1637 C1638 1.397 . S
C1637 C1642 1.363 . S
C1638 H1615 0.950 . S
C1638 C1637 1.397 . S
C1638 C1639 1.334 . S
C1639 H1616 0.950 . S
C1639 C1638 1.334 . S
C1639 C1640 1.287 . S
C1640 C1639 1.287 . S
C1640 C1641 1.524 . S
C1640 H1659 0.913 . S
C1641 H1617 0.950 . S
C1641 C1640 1.524 . S
C1641 C1642 1.415 . S
C1642 H1618 0.950 . S
C1642 C1637 1.363 . S
C1642 C1641 1.415 . S
C1643 H1619 0.951 . S
C1643 C1644 1.366 1_455 S
C1643 C1645 1.388 . S
C1644 C1643 1.366 1_655 S
C1644 C1648 1.385 . S
C1645 H1620 0.951 . S
C1645 C1643 1.388 . S
C1645 C1646 1.366 1_455 S
C1646 C1645 1.366 1_655 S
C1646 C1647 1.414 . S
C1646 C1649 1.499 . S
C1647 H1621 0.950 . S
C1647 C1646 1.414 . S
C1647 C1648 1.374 . S
C1648 H1622 0.950 . S
C1648 C1644 1.385 . S
C1648 C1647 1.374 . S
C1649 C1646 1.499 . S
C1649 C1650 1.373 . S
C1649 C1651 1.389 . S
C1650 H1623 0.950 . S
C1650 C1636 1.377 . S
C1650 C1649 1.373 . S
C1651 C1635 1.377 . S
C1651 C1649 1.389 . S
C1651 C1652 1.524 1_655 S
C1652 C1651 1.524 1_455 S
C1652 C1653 1.427 . S
C1652 C1657 1.363 . S
C1653 H1624 0.886 1_455 S
C1653 C1652 1.427 . S
C1653 C1654 1.369 . S
C1654 H1625 0.950 . S
C1654 C1653 1.369 . S
C1654 C1655 1.287 . S
C1655 C1654 1.287 . S
C1655 C1656 1.524 . S
C1655 H1658 0.999 . S
C1656 H1626 0.950 . S
C1656 C1655 1.524 . S
C1656 C1657 1.415 . S
C1657 H1627 0.950 . S
C1657 C1652 1.363 . S
C1657 C1656 1.415 . S
H1658 C1655 0.999 . S
H1659 C1640 0.913 . S
H1660 C1678 0.951 . S
H1661 C1680 0.951 . S
H1662 C1682 0.950 . S
H1663 C1683 0.950 . S
H1664 C1685 0.950 . S
H1665 C1688 0.950 . S
H1666 C1689 0.950 . S
H1667 C1691 0.950 . S
H1668 C1692 0.950 . S
H1669 C1693 0.951 . S
H1670 C1695 0.951 . S
H1671 C1697 0.950 . S
H1672 C1698 0.950 . S
H1673 C1700 0.950 . S
H1674 C1703 0.950 . S
H1675 C1704 0.950 . S
H1676 C1706 0.950 . S
H1677 C1707 0.950 . S
C1678 H1660 0.951 . S
C1678 C1679 1.366 . S
C1678 C1680 1.388 . S
C1679 C1678 1.366 . S
C1679 C1683 1.385 . S
C1680 H1661 0.951 . S
C1680 C1678 1.388 . S
C1680 C1681 1.366 . S
C1681 C1680 1.366 . S
C1681 C1682 1.414 . S
C1681 C1684 1.499 . S
C1682 H1662 0.950 . S
C1682 C1681 1.414 . S
C1682 C1683 1.374 . S
C1683 H1663 0.950 . S
C1683 C1679 1.385 . S
C1683 C1682 1.374 . S
C1684 C1681 1.499 . S
C1684 C1685 1.373 . S
C1684 C1686 1.389 . S
C1685 H1664 0.950 . S
C1685 C1684 1.373 . S
C1685 C1701 1.377 . S
C1686 C1684 1.389 . S
C1686 C1687 1.524 . S
C1686 C1700 1.377 . S
C1687 C1686 1.524 . S
C1687 C1688 1.397 . S
C1687 C1692 1.363 . S
C1688 H1665 0.950 . S
C1688 C1687 1.397 . S
C1688 C1689 1.334 . S
C1689 H1666 0.950 . S
C1689 C1688 1.334 . S
C1689 C1690 1.287 . S
C1690 C1689 1.287 . S
C1690 C1691 1.524 . S
C1690 H1709 0.913 . S
C1691 H1667 0.950 . S
C1691 C1690 1.524 . S
C1691 C1692 1.415 . S
C1692 H1668 0.950 . S
C1692 C1687 1.363 . S
C1692 C1691 1.415 . S
C1693 H1669 0.951 . S
C1693 C1694 1.366 . S
C1693 C1695 1.388 . S
C1694 C1693 1.366 . S
C1694 C1698 1.385 . S
C1695 H1670 0.951 . S
C1695 C1693 1.388 . S
C1695 C1696 1.366 . S
C1696 C1695 1.366 . S
C1696 C1697 1.414 . S
C1696 C1699 1.499 . S
C1697 H1671 0.950 . S
C1697 C1696 1.414 . S
C1697 C1698 1.374 . S
C1698 H1672 0.950 . S
C1698 C1694 1.385 . S
C1698 C1697 1.374 . S
C1699 C1696 1.499 . S
C1699 C1700 1.373 . S
C1699 C1701 1.389 . S
C1700 H1673 0.950 . S
C1700 C1686 1.377 . S
C1700 C1699 1.373 . S
C1701 C1685 1.377 . S
C1701 C1699 1.389 . S
C1701 C1702 1.524 . S
C1702 C1701 1.524 . S
C1702 C1703 1.397 . S
C1702 C1707 1.363 . S
C1703 H1674 0.950 . S
C1703 C1702 1.397 . S
C1703 C1704 1.334 . S
C1704 H1675 0.950 . S
C1704 C1703 1.334 . S
C1704 C1705 1.287 . S
C1705 C1704 1.287 . S
C1705 C1706 1.524 . S
C1705 H1708 0.999 . S
C1706 H1676 0.950 . S
C1706 C1705 1.524 . S
C1706 C1707 1.415 . S
C1707 H1677 0.950 . S
C1707 C1702 1.363 . S
C1707 C1706 1.415 . S
H1708 C1705 0.999 . S
H1709 C1690 0.913 . S
H1710 C1728 0.972 . S
H1711 C1730 0.952 1_455 S
H1712 C1732 0.950 . S
H1713 C1733 0.950 . S
H1714 C1735 0.950 . S
H1715 C1738 0.950 . S
H1716 C1739 0.950 . S
H1717 C1741 0.950 . S
H1718 C1742 0.950 . S
H1719 C1743 0.951 . S
H1720 C1745 0.951 . S
H1721 C1747 0.939 1_455 S
H1722 C1748 0.929 1_455 S
H1723 C1750 0.950 . S
H1724 C1753 0.950 . S
H1725 C1754 0.950 . S
H1726 C1756 0.950 . S
H1727 C1757 0.950 . S
C1728 H1710 0.972 . S
C1728 C1729 1.366 . S
C1728 C1730 1.388 . S
C1729 C1728 1.366 . S
C1729 C1733 1.385 . S
C1730 H1711 0.952 1_655 S
C1730 C1728 1.388 . S
C1730 C1731 1.366 . S
C1731 C1730 1.366 . S
C1731 C1732 1.414 . S
C1731 C1734 1.499 . S
C1732 H1712 0.950 . S
C1732 C1731 1.414 . S
C1732 C1733 1.374 . S
C1733 H1713 0.950 . S
C1733 C1729 1.385 . S
C1733 C1732 1.374 . S
C1734 C1731 1.499 . S
C1734 C1735 1.373 . S
C1734 C1736 1.389 1_655 S
C1735 H1714 0.950 . S
C1735 C1734 1.373 . S
C1735 C1751 1.377 . S
C1736 C1734 1.389 1_455 S
C1736 C1737 1.524 . S
C1736 C1750 1.377 . S
C1737 C1736 1.524 . S
C1737 C1738 1.397 . S
C1737 C1742 1.363 . S
C1738 H1715 0.950 . S
C1738 C1737 1.397 . S
C1738 C1739 1.334 . S
C1739 H1716 0.950 . S
C1739 C1738 1.334 . S
C1739 C1740 1.287 . S
C1740 C1739 1.287 . S
C1740 C1741 1.524 . S
C1740 H1759 0.913 . S
C1741 H1717 0.950 . S
C1741 C1740 1.524 . S
C1741 C1742 1.415 . S
C1742 H1718 0.950 . S
C1742 C1737 1.363 . S
C1742 C1741 1.415 . S
C1743 H1719 0.951 . S
C1743 C1744 1.366 . S
C1743 C1745 1.388 . S
C1744 C1743 1.366 . S
C1744 C1748 1.385 . S
C1745 H1720 0.951 . S
C1745 C1743 1.388 . S
C1745 C1746 1.366 . S
C1746 C1745 1.366 . S
C1746 C1747 1.414 . S
C1746 C1749 1.499 . S
C1747 H1721 0.939 1_655 S
C1747 C1746 1.414 . S
C1747 C1748 1.374 . S
C1748 H1722 0.929 1_655 S
C1748 C1744 1.385 . S
C1748 C1747 1.374 . S
C1749 C1746 1.499 . S
C1749 C1750 1.373 1_655 S
C1749 C1751 1.389 . S
C1750 H1723 0.950 . S
C1750 C1736 1.377 . S
C1750 C1749 1.373 1_455 S
C1751 C1735 1.377 . S
C1751 C1749 1.389 . S
C1751 C1752 1.524 . S
C1752 C1751 1.524 . S
C1752 C1753 1.397 . S
C1752 C1757 1.363 . S
C1753 H1724 0.950 . S
C1753 C1752 1.397 . S
C1753 C1754 1.334 . S
C1754 H1725 0.950 . S
C1754 C1753 1.334 . S
C1754 C1755 1.287 . S
C1755 C1754 1.287 . S
C1755 C1756 1.524 . S
C1755 H1758 0.999 . S
C1756 H1726 0.950 . S
C1756 C1755 1.524 . S
C1756 C1757 1.415 . S
C1757 H1727 0.950 . S
C1757 C1752 1.363 . S
C1757 C1756 1.415 . S
H1758 C1755 0.999 . S
H1759 C1740 0.913 . S
H1760 C1778 0.951 . S
H1761 C1780 0.951 . S
H1762 C1782 0.950 . S
H1763 C1783 0.950 . S
H1764 C1785 0.950 . S
H1765 C1788 0.950 . S
H1766 C1789 0.950 . S
H1767 C1791 0.950 . S
H1768 C1792 0.950 . S
H1769 C1793 0.951 . S
H1770 C1795 0.951 . S
H1771 C1797 0.950 . S
H1772 C1798 0.950 . S
H1773 C1800 0.950 . S
H1774 C1803 0.950 . S
H1775 C1804 0.950 . S
H1776 C1806 0.950 . S
H1777 C1807 0.950 . S
C1778 H1760 0.951 . S
C1778 C1779 1.366 . S
C1778 C1780 1.388 . S
C1779 C1778 1.366 . S
C1779 C1783 1.385 . S
C1780 H1761 0.951 . S
C1780 C1778 1.388 . S
C1780 C1781 1.366 . S
C1781 C1780 1.366 . S
C1781 C1782 1.414 . S
C1781 C1784 1.499 . S
C1782 H1762 0.950 . S
C1782 C1781 1.414 . S
C1782 C1783 1.374 . S
C1783 H1763 0.950 . S
C1783 C1779 1.385 . S
C1783 C1782 1.374 . S
C1784 C1781 1.499 . S
C1784 C1785 1.373 . S
C1784 C1786 1.389 . S
C1785 H1764 0.950 . S
C1785 C1784 1.373 . S
C1785 C1801 1.377 . S
C1786 C1784 1.389 . S
C1786 C1787 1.524 . S
C1786 C1800 1.377 . S
C1787 C1786 1.524 . S
C1787 C1788 1.397 . S
C1787 C1792 1.363 . S
C1788 H1765 0.950 . S
C1788 C1787 1.397 . S
C1788 C1789 1.334 . S
C1789 H1766 0.950 . S
C1789 C1788 1.334 . S
C1789 C1790 1.287 . S
C1790 C1789 1.287 . S
C1790 C1791 1.524 . S
C1790 H1809 0.913 . S
C1791 H1767 0.950 . S
C1791 C1790 1.524 . S
C1791 C1792 1.415 . S
C1792 H1768 0.950 . S
C1792 C1787 1.363 . S
C1792 C1791 1.415 . S
C1793 H1769 0.951 . S
C1793 C1794 1.366 . S
C1793 C1795 1.388 . S
C1794 C1793 1.366 . S
C1794 C1798 1.385 . S
C1795 H1770 0.951 . S
C1795 C1793 1.388 . S
C1795 C1796 1.366 . S
C1796 C1795 1.366 . S
C1796 C1797 1.414 . S
C1796 C1799 1.499 . S
C1797 H1771 0.950 . S
C1797 C1796 1.414 . S
C1797 C1798 1.374 . S
C1798 H1772 0.950 . S
C1798 C1794 1.385 . S
C1798 C1797 1.374 . S
C1799 C1796 1.499 . S
C1799 C1800 1.373 . S
C1799 C1801 1.389 . S
C1800 H1773 0.950 . S
C1800 C1786 1.377 . S
C1800 C1799 1.373 . S
C1801 C1785 1.377 . S
C1801 C1799 1.389 . S
C1801 C1802 1.524 . S
C1802 C1801 1.524 . S
C1802 C1803 1.397 . S
C1802 C1807 1.363 . S
C1803 H1774 0.950 . S
C1803 C1802 1.397 . S
C1803 C1804 1.334 . S
C1804 H1775 0.950 . S
C1804 C1803 1.334 . S
C1804 C1805 1.287 . S
C1805 C1804 1.287 . S
C1805 C1806 1.524 . S
C1805 H1808 0.999 . S
C1806 H1776 0.950 . S
C1806 C1805 1.524 . S
C1806 C1807 1.415 . S
C1807 H1777 0.950 . S
C1807 C1802 1.363 . S
C1807 C1806 1.415 . S
H1808 C1805 0.999 . S
H1809 C1790 0.913 . S
H1810 C1828 0.951 . S
H1811 C1830 0.951 . S
H1812 C1832 0.950 . S
H1813 C1833 0.950 . S
H1814 C1835 0.950 . S
H1815 C1838 0.950 . S
H1816 C1839 0.950 . S
H1817 C1841 0.950 . S
H1818 C1842 0.950 . S
H1819 C1843 0.951 . S
H1820 C1845 0.951 . S
H1821 C1847 0.950 . S
H1822 C1848 0.950 . S
H1823 C1850 0.950 . S
H1824 C1853 0.950 . S
H1825 C1854 0.950 . S
H1826 C1856 0.950 . S
H1827 C1857 0.950 . S
C1828 H1810 0.951 . S
C1828 C1829 1.366 . S
C1828 C1830 1.388 . S
C1829 C1828 1.366 . S
C1829 C1833 1.385 . S
C1830 H1811 0.951 . S
C1830 C1828 1.388 . S
C1830 C1831 1.366 . S
C1831 C1830 1.366 . S
C1831 C1832 1.414 . S
C1831 C1834 1.499 . S
C1832 H1812 0.950 . S
C1832 C1831 1.414 . S
C1832 C1833 1.374 . S
C1833 H1813 0.950 . S
C1833 C1829 1.385 . S
C1833 C1832 1.374 . S
C1834 C1831 1.499 . S
C1834 C1835 1.373 . S
C1834 C1836 1.389 . S
C1835 H1814 0.950 . S
C1835 C1834 1.373 . S
C1835 C1851 1.377 . S
C1836 C1834 1.389 . S
C1836 C1837 1.524 . S
C1836 C1850 1.377 . S
C1837 C1836 1.524 . S
C1837 C1838 1.397 . S
C1837 C1842 1.363 . S
C1838 H1815 0.950 . S
C1838 C1837 1.397 . S
C1838 C1839 1.334 . S
C1839 H1816 0.950 . S
C1839 C1838 1.334 . S
C1839 C1840 1.287 . S
C1840 C1839 1.287 . S
C1840 C1841 1.524 . S
C1840 H1859 0.913 . S
C1841 H1817 0.950 . S
C1841 C1840 1.524 . S
C1841 C1842 1.415 . S
C1842 H1818 0.950 . S
C1842 C1837 1.363 . S
C1842 C1841 1.415 . S
C1843 H1819 0.951 . S
C1843 C1844 1.366 . S
C1843 C1845 1.388 . S
C1844 C1843 1.366 . S
C1844 C1848 1.385 . S
C1845 H1820 0.951 . S
C1845 C1843 1.388 . S
C1845 C1846 1.366 . S
C1846 C1845 1.366 . S
C1846 C1847 1.414 . S
C1846 C1849 1.499 . S
C1847 H1821 0.950 . S
C1847 C1846 1.414 . S
C1847 C1848 1.374 . S
C1848 H1822 0.950 . S
C1848 C1844 1.385 . S
C1848 C1847 1.374 . S
C1849 C1846 1.499 . S
C1849 C1850 1.373 . S
C1849 C1851 1.389 . S
C1850 H1823 0.950 . S
C1850 C1836 1.377 . S
C1850 C1849 1.373 . S
C1851 C1835 1.377 . S
C1851 C1849 1.389 . S
C1851 C1852 1.524 . S
C1852 C1851 1.524 . S
C1852 C1853 1.397 . S
C1852 C1857 1.363 . S
C1853 H1824 0.950 . S
C1853 C1852 1.397 . S
C1853 C1854 1.334 . S
C1854 H1825 0.950 . S
C1854 C1853 1.334 . S
C1854 C1855 1.287 . S
C1855 C1854 1.287 . S
C1855 C1856 1.524 . S
C1855 H1858 0.999 . S
C1856 H1826 0.950 . S
C1856 C1855 1.524 . S
C1856 C1857 1.415 . S
C1857 H1827 0.950 . S
C1857 C1852 1.363 . S
C1857 C1856 1.415 . S
H1858 C1855 0.999 . S
H1859 C1840 0.913 . S
H1860 C1878 0.951 . S
H1861 C1880 0.951 . S
H1862 C1882 0.950 . S
H1863 C1883 0.950 . S
H1864 C1885 0.950 . S
H1865 C1888 0.950 . S
H1866 C1889 0.950 . S
H1867 C1891 0.950 . S
H1868 C1892 0.950 . S
H1869 C1893 0.951 . S
H1870 C1895 0.951 . S
H1871 C1897 0.950 1_554 S
H1872 C1898 0.990 . S
H1873 C1900 0.950 1_554 S
H1874 C1903 0.950 . S
H1875 C1904 0.950 . S
H1876 C1906 0.950 . S
H1877 C1907 0.950 . S
C1878 H1860 0.951 . S
C1878 C1879 1.366 . S
C1878 C1880 1.388 . S
C1879 C1878 1.366 . S
C1879 C1883 1.385 . S
C1880 H1861 0.951 . S
C1880 C1878 1.388 . S
C1880 C1881 1.366 . S
C1881 C1880 1.366 . S
C1881 C1882 1.414 . S
C1881 C1884 1.499 . S
C1882 H1862 0.950 . S
C1882 C1881 1.414 . S
C1882 C1883 1.374 . S
C1883 H1863 0.950 . S
C1883 C1879 1.385 . S
C1883 C1882 1.374 . S
C1884 C1881 1.499 . S
C1884 C1885 1.373 . S
C1884 C1886 1.389 . S
C1885 H1864 0.950 . S
C1885 C1884 1.373 . S
C1885 C1901 1.377 . S
C1886 C1884 1.389 . S
C1886 C1887 1.524 1_556 S
C1886 C1900 1.377 . S
C1887 C1886 1.524 1_554 S
C1887 C1888 1.397 . S
C1887 C1892 1.363 . S
C1888 H1865 0.950 . S
C1888 C1887 1.397 . S
C1888 C1889 1.334 . S
C1889 H1866 0.950 . S
C1889 C1888 1.334 . S
C1889 C1890 1.287 . S
C1890 C1889 1.287 . S
C1890 C1891 1.524 . S
C1890 H1909 0.913 . S
C1891 H1867 0.950 . S
C1891 C1890 1.524 . S
C1891 C1892 1.415 . S
C1892 H1868 0.950 . S
C1892 C1887 1.363 . S
C1892 C1891 1.415 . S
C1893 H1869 0.951 . S
C1893 C1894 1.366 . S
C1893 C1895 1.388 . S
C1894 C1893 1.366 . S
C1894 C1898 1.356 1_556 S
C1895 H1870 0.951 . S
C1895 C1893 1.388 . S
C1895 C1896 1.366 . S
C1896 C1895 1.366 . S
C1896 C1897 1.414 . S
C1896 C1899 1.499 . S
C1897 H1871 0.950 1_556 S
C1897 C1896 1.414 . S
C1897 C1898 1.366 1_556 S
C1898 H1872 0.990 . S
C1898 C1894 1.356 1_554 S
C1898 C1897 1.366 1_554 S
C1899 C1896 1.499 . S
C1899 C1900 1.373 . S
C1899 C1901 1.389 . S
C1900 H1873 0.950 1_556 S
C1900 C1886 1.377 . S
C1900 C1899 1.373 . S
C1901 C1885 1.377 . S
C1901 C1899 1.389 . S
C1901 C1902 1.524 . S
C1902 C1901 1.524 . S
C1902 C1903 1.397 . S
C1902 C1907 1.363 . S
C1903 H1874 0.950 . S
C1903 C1902 1.397 . S
C1903 C1904 1.334 . S
C1904 H1875 0.950 . S
C1904 C1903 1.334 . S
C1904 C1905 1.287 . S
C1905 C1904 1.287 . S
C1905 C1906 1.524 . S
C1905 H1908 0.999 . S
C1906 H1876 0.950 . S
C1906 C1905 1.524 . S
C1906 C1907 1.415 . S
C1907 H1877 0.950 . S
C1907 C1902 1.363 . S
C1907 C1906 1.415 . S
H1908 C1905 0.999 . S
H1909 C1890 0.913 . S
H1910 C1928 0.951 . S
H1911 C1930 0.951 . S
H1912 C1932 0.950 . S
H1913 C1933 0.950 . S
H1914 C1935 0.950 . S
H1915 C1938 0.950 . S
H1916 C1939 0.950 . S
H1917 C1941 0.950 . S
H1918 C1942 0.950 . S
H1919 C1943 0.951 . S
H1920 C1945 0.951 . S
H1921 C1947 0.950 . S
H1922 C1948 0.950 . S
H1923 C1950 0.950 . S
H1924 C1953 0.950 . S
H1925 C1954 0.950 . S
H1926 C1956 0.950 . S
H1927 C1957 0.950 . S
C1928 H1910 0.951 . S
C1928 C1929 1.366 . S
C1928 C1930 1.388 . S
C1929 C1928 1.366 . S
C1929 C1933 1.385 . S
C1930 H1911 0.951 . S
C1930 C1928 1.388 . S
C1930 C1931 1.366 . S
C1931 C1930 1.366 . S
C1931 C1932 1.414 . S
C1931 C1934 1.499 . S
C1932 H1912 0.950 . S
C1932 C1931 1.414 . S
C1932 C1933 1.374 . S
C1933 H1913 0.950 . S
C1933 C1929 1.385 . S
C1933 C1932 1.374 . S
C1934 C1931 1.499 . S
C1934 C1935 1.373 . S
C1934 C1936 1.389 . S
C1935 H1914 0.950 . S
C1935 C1934 1.373 . S
C1935 C1951 1.377 . S
C1936 C1934 1.389 . S
C1936 C1937 1.524 . S
C1936 C1950 1.377 . S
C1937 C1936 1.524 . S
C1937 C1938 1.397 . S
C1937 C1942 1.363 1_565 S
C1938 H1915 0.950 . S
C1938 C1937 1.397 . S
C1938 C1939 1.334 1_565 S
C1939 H1916 0.950 . S
C1939 C1938 1.334 1_545 S
C1939 C1940 1.287 . S
C1940 C1939 1.287 . S
C1940 C1941 1.524 . S
C1940 H1959 0.913 . S
C1941 H1917 0.950 . S
C1941 C1940 1.524 . S
C1941 C1942 1.415 . S
C1942 H1918 0.950 . S
C1942 C1937 1.363 1_545 S
C1942 C1941 1.415 . S
C1943 H1919 0.951 . S
C1943 C1944 1.366 . S
C1943 C1945 1.388 . S
C1944 C1943 1.366 . S
C1944 C1948 1.385 . S
C1945 H1920 0.951 . S
C1945 C1943 1.388 . S
C1945 C1946 1.366 . S
C1946 C1945 1.366 . S
C1946 C1947 1.414 . S
C1946 C1949 1.499 . S
C1947 H1921 0.950 . S
C1947 C1946 1.414 . S
C1947 C1948 1.374 . S
C1948 H1922 0.950 . S
C1948 C1944 1.385 . S
C1948 C1947 1.374 . S
C1949 C1946 1.499 . S
C1949 C1950 1.373 . S
C1949 C1951 1.389 . S
C1950 H1923 0.950 . S
C1950 C1936 1.377 . S
C1950 C1949 1.373 . S
C1951 C1935 1.377 . S
C1951 C1949 1.389 . S
C1951 C1952 1.524 . S
C1952 C1951 1.524 . S
C1952 C1953 1.397 . S
C1952 C1957 1.363 . S
C1953 H1924 0.950 . S
C1953 C1952 1.397 . S
C1953 C1954 1.334 . S
C1954 H1925 0.950 . S
C1954 C1953 1.334 . S
C1954 C1955 1.287 . S
C1955 C1954 1.287 . S
C1955 C1956 1.524 . S
C1955 H1958 0.999 . S
C1956 H1926 0.950 . S
C1956 C1955 1.524 . S
C1956 C1957 1.415 . S
C1957 H1927 0.950 . S
C1957 C1952 1.363 . S
C1957 C1956 1.415 . S
H1958 C1955 0.999 . S
H1959 C1940 0.913 . S
H1960 C1978 0.951 . S
H1961 C1980 0.951 . S
H1962 C1982 0.950 . S
H1963 C1983 0.950 . S
H1964 C1985 0.950 . S
H1965 C1988 0.950 . S
H1966 C1989 0.950 . S
H1967 C1991 0.950 . S
H1968 C1992 0.950 . S
H1969 C1993 0.951 . S
H1970 C1995 0.951 . S
H1971 C1997 0.972 . S
H1972 C1998 0.950 1_545 S
H1973 C2000 0.950 . S
H1974 C2003 0.950 . S
H1975 C2004 0.950 . S
H1976 C2006 0.950 . S
H1977 C2007 0.950 . S
C1978 H1960 0.951 . S
C1978 C1979 1.366 . S
C1978 C1980 1.388 . S
C1979 C1978 1.366 . S
C1979 C1983 1.385 . S
C1980 H1961 0.951 . S
C1980 C1978 1.388 . S
C1980 C1981 1.366 . S
C1981 C1980 1.366 . S
C1981 C1982 1.414 . S
C1981 C1984 1.499 . S
C1982 H1962 0.950 . S
C1982 C1981 1.414 . S
C1982 C1983 1.374 . S
C1983 H1963 0.950 . S
C1983 C1979 1.385 . S
C1983 C1982 1.374 . S
C1984 C1981 1.499 . S
C1984 C1985 1.373 . S
C1984 C1986 1.389 . S
C1985 H1964 0.950 . S
C1985 C1984 1.373 . S
C1985 C2001 1.377 . S
C1986 C1984 1.389 . S
C1986 C1987 1.524 . S
C1986 C2000 1.377 . S
C1987 C1986 1.524 . S
C1987 C1988 1.397 . S
C1987 C1992 1.363 . S
C1988 H1965 0.950 . S
C1988 C1987 1.397 . S
C1988 C1989 1.334 . S
C1989 H1966 0.950 . S
C1989 C1988 1.334 . S
C1989 C1990 1.287 . S
C1990 C1989 1.287 . S
C1990 C1991 1.524 . S
C1990 H2009 0.913 . S
C1991 H1967 0.950 . S
C1991 C1990 1.524 . S
C1991 C1992 1.415 . S
C1992 H1968 0.950 . S
C1992 C1987 1.363 . S
C1992 C1991 1.415 . S
C1993 H1969 0.951 . S
C1993 C1994 1.366 . S
C1993 C1995 1.388 . S
C1994 C1993 1.366 . S
C1994 C1998 1.385 . S
C1995 H1970 0.951 . S
C1995 C1993 1.388 . S
C1995 C1996 1.366 . S
C1996 C1995 1.366 . S
C1996 C1997 1.414 . S
C1996 C1999 1.499 . S
C1997 H1971 0.972 . S
C1997 C1996 1.414 . S
C1997 C1998 1.374 . S
C1998 H1972 0.950 1_565 S
C1998 C1994 1.385 . S
C1998 C1997 1.374 . S
C1999 C1996 1.499 . S
C1999 C2000 1.373 . S
C1999 C2001 1.389 . S
C2000 H1973 0.950 . S
C2000 C1986 1.377 . S
C2000 C1999 1.373 . S
C2001 C1985 1.377 . S
C2001 C1999 1.389 . S
C2001 C2002 1.524 . S
C2002 C2001 1.524 . S
C2002 C2003 1.397 1_565 S
C2002 C2007 1.363 . S
C2003 H1974 0.950 . S
C2003 C2002 1.397 1_545 S
C2003 C2004 1.334 . S
C2004 H1975 0.950 . S
C2004 C2003 1.334 . S
C2004 C2005 1.287 . S
C2005 C2004 1.287 . S
C2005 C2006 1.524 1_545 S
C2005 H2008 0.999 . S
C2006 H1976 0.950 . S
C2006 C2005 1.524 1_565 S
C2006 C2007 1.415 . S
C2007 H1977 0.950 . S
C2007 C2002 1.363 . S
C2007 C2006 1.415 . S
H2008 C2005 0.999 . S
H2009 C1990 0.913 . S
H2010 C2028 0.951 . S
H2011 C2030 0.951 . S
H2012 C2032 0.950 . S
H2013 C2033 0.950 . S
H2014 C2035 0.950 1_556 S
H2015 C2038 0.950 . S
H2016 C2039 0.950 . S
H2017 C2041 0.950 . S
H2018 C2042 0.950 1_554 S
H2019 C2043 0.951 . S
H2020 C2045 0.951 . S
H2021 C2047 0.948 1_565 S
H2022 C2048 0.950 . S
H2023 C2050 0.950 . S
H2024 C2053 0.950 . S
H2025 C2054 0.950 . S
H2026 C2056 0.950 . S
H2027 C2057 0.950 . S
C2028 H2010 0.951 . S
C2028 C2029 1.366 . S
C2028 C2030 1.388 . S
C2029 C2028 1.366 . S
C2029 C2033 1.385 . S
C2030 H2011 0.951 . S
C2030 C2028 1.388 . S
C2030 C2031 1.366 . S
C2031 C2030 1.366 . S
C2031 C2032 1.414 . S
C2031 C2034 1.499 . S
C2032 H2012 0.950 . S
C2032 C2031 1.414 . S
C2032 C2033 1.374 . S
C2033 H2013 0.950 . S
C2033 C2029 1.385 . S
C2033 C2032 1.374 . S
C2034 C2031 1.499 . S
C2034 C2035 1.373 1_556 S
C2034 C2036 1.382 1_546 S
C2035 H2014 0.950 1_554 S
C2035 C2034 1.373 1_554 S
C2035 C2051 1.377 . S
C2036 C2034 1.382 1_564 S
C2036 C2037 1.517 1_554 S
C2036 C2050 1.393 . S
C2037 C2036 1.517 1_556 S
C2037 C2038 1.397 . S
C2037 C2042 1.363 . S
C2038 H2015 0.950 . S
C2038 C2037 1.397 . S
C2038 C2039 1.334 . S
C2039 H2016 0.950 . S
C2039 C2038 1.334 . S
C2039 C2040 1.287 . S
C2040 C2039 1.287 . S
C2040 C2041 1.524 . S
C2040 H2059 0.913 . S
C2041 H2017 0.950 . S
C2041 C2040 1.524 . S
C2041 C2042 1.415 . S
C2042 H2018 0.950 1_556 S
C2042 C2037 1.363 . S
C2042 C2041 1.415 . S
C2043 H2019 0.951 . S
C2043 C2044 1.366 1_545 S
C2043 C2045 1.388 . S
C2044 C2043 1.366 1_565 S
C2044 C2048 1.385 . S
C2045 H2020 0.951 . S
C2045 C2043 1.388 . S
C2045 C2046 1.366 . S
C2046 C2045 1.366 . S
C2046 C2047 1.416 . S
C2046 C2049 1.499 . S
C2047 H2021 0.948 1_545 S
C2047 C2046 1.416 . S
C2047 C2048 1.373 1_545 S
C2048 H2022 0.950 . S
C2048 C2044 1.385 . S
C2048 C2047 1.373 1_565 S
C2049 C2046 1.499 . S
C2049 C2050 1.373 1_545 S
C2049 C2051 1.389 . S
C2050 H2023 0.950 . S
C2050 C2036 1.393 . S
C2050 C2049 1.373 1_565 S
C2051 C2035 1.377 . S
C2051 C2049 1.389 . S
C2051 C2052 1.524 . S
C2052 C2051 1.524 . S
C2052 C2053 1.397 . S
C2052 C2057 1.363 . S
C2053 H2024 0.950 . S
C2053 C2052 1.397 . S
C2053 C2054 1.334 . S
C2054 H2025 0.950 . S
C2054 C2053 1.334 . S
C2054 C2055 1.287 . S
C2055 C2054 1.287 . S
C2055 C2056 1.524 . S
C2055 H2058 0.999 . S
C2056 H2026 0.950 . S
C2056 C2055 1.524 . S
C2056 C2057 1.415 . S
C2057 H2027 0.950 . S
C2057 C2052 1.363 . S
C2057 C2056 1.415 . S
H2058 C2055 0.999 . S
H2059 C2040 0.913 . S
H2060 C2078 0.951 1_545 S
H2061 C2080 0.951 1_545 S
H2062 C2082 0.950 . S
H2063 C2083 0.950 . S
H2064 C2085 0.950 . S
H2065 C2088 0.950 . S
H2066 C2089 0.950 . S
H2067 C2091 0.950 . S
H2068 C2092 0.950 . S
H2069 C2093 0.951 . S
H2070 C2095 0.951 . S
H2071 C2097 0.950 . S
H2072 C2098 0.950 . S
H2073 C2100 0.950 1_545 S
H2074 C2103 0.950 1_545 S
H2075 C2104 0.950 1_545 S
H2076 C2106 0.950 . S
H2077 C2107 0.950 . S
C2078 H2060 0.951 1_565 S
C2078 C2079 1.366 . S
C2078 C2080 1.388 . S
C2079 C2078 1.366 . S
C2079 C2083 1.385 . S
C2080 H2061 0.951 1_565 S
C2080 C2078 1.388 . S
C2080 C2081 1.366 . S
C2081 C2080 1.366 . S
C2081 C2082 1.414 . S
C2081 C2084 1.499 . S
C2082 H2062 0.950 . S
C2082 C2081 1.414 . S
C2082 C2083 1.374 . S
C2083 H2063 0.950 . S
C2083 C2079 1.385 . S
C2083 C2082 1.374 . S
C2084 C2081 1.499 . S
C2084 C2085 1.373 . S
C2084 C2086 1.389 . S
C2085 H2064 0.950 . S
C2085 C2084 1.373 . S
C2085 C2101 1.377 . S
C2086 C2084 1.389 . S
C2086 C2087 1.524 . S
C2086 C2100 1.377 . S
C2087 C2086 1.524 . S
C2087 C2088 1.397 . S
C2087 C2092 1.363 1_565 S
C2088 H2065 0.950 . S
C2088 C2087 1.397 . S
C2088 C2089 1.334 . S
C2089 H2066 0.950 . S
C2089 C2088 1.334 . S
C2089 C2090 1.287 . S
C2090 C2089 1.287 . S
C2090 C2091 1.524 1_565 S
C2090 H2109 0.913 . S
C2091 H2067 0.950 . S
C2091 C2090 1.524 1_545 S
C2091 C2092 1.415 . S
C2092 H2068 0.950 . S
C2092 C2087 1.363 1_545 S
C2092 C2091 1.415 . S
C2093 H2069 0.951 . S
C2093 C2094 1.366 1_565 S
C2093 C2095 1.388 . S
C2094 C2093 1.366 1_545 S
C2094 C2098 1.385 . S
C2095 H2070 0.951 . S
C2095 C2093 1.388 . S
C2095 C2096 1.366 . S
C2096 C2095 1.366 . S
C2096 C2097 1.414 1_565 S
C2096 C2099 1.499 . S
C2097 H2071 0.950 . S
C2097 C2096 1.414 1_545 S
C2097 C2098 1.374 . S
C2098 H2072 0.950 . S
C2098 C2094 1.385 . S
C2098 C2097 1.374 . S
C2099 C2096 1.499 . S
C2099 C2100 1.373 . S
C2099 C2101 1.389 . S
C2100 H2073 0.950 1_565 S
C2100 C2086 1.377 . S
C2100 C2099 1.373 . S
C2101 C2085 1.377 . S
C2101 C2099 1.389 . S
C2101 C2102 1.524 . S
C2102 C2101 1.524 . S
C2102 C2103 1.397 . S
C2102 C2107 1.363 . S
C2103 H2074 0.950 1_565 S
C2103 C2102 1.397 . S
C2103 C2104 1.334 . S
C2104 H2075 0.950 1_565 S
C2104 C2103 1.334 . S
C2104 C2105 1.287 . S
C2105 C2104 1.287 . S
C2105 C2106 1.524 . S
C2105 H2108 0.999 . S
C2106 H2076 0.950 . S
C2106 C2105 1.524 . S
C2106 C2107 1.415 . S
C2107 H2077 0.950 . S
C2107 C2102 1.363 . S
C2107 C2106 1.415 . S
H2108 C2105 0.999 . S
H2109 C2090 0.913 . S
H2110 C2128 0.951 . S
H2111 C2130 0.951 . S
H2112 C2132 0.950 . S
H2113 C2133 0.950 . S
H2114 C2135 0.950 . S
H2115 C2138 0.950 . S
H2116 C2139 0.950 . S
H2117 C2141 0.950 . S
H2118 C2142 0.950 . S
H2119 C2143 0.951 . S
H2120 C2145 0.951 . S
H2121 C2147 0.950 . S
H2122 C2148 0.950 . S
H2123 C2150 0.950 . S
H2124 C2153 0.950 . S
H2125 C2154 0.950 . S
H2126 C2156 0.950 . S
H2127 C2157 0.950 . S
C2128 H2110 0.951 . S
C2128 C2129 1.366 . S
C2128 C2130 1.388 . S
C2129 C2128 1.366 . S
C2129 C2133 1.385 . S
C2130 H2111 0.951 . S
C2130 C2128 1.388 . S
C2130 C2131 1.366 . S
C2131 C2130 1.366 . S
C2131 C2132 1.414 . S
C2131 C2134 1.499 . S
C2132 H2112 0.950 . S
C2132 C2131 1.414 . S
C2132 C2133 1.374 . S
C2133 H2113 0.950 . S
C2133 C2129 1.385 . S
C2133 C2132 1.374 . S
C2134 C2131 1.499 . S
C2134 C2135 1.373 . S
C2134 C2136 1.389 . S
C2135 H2114 0.950 . S
C2135 C2134 1.373 . S
C2135 C2151 1.377 . S
C2136 C2134 1.389 . S
C2136 C2137 1.524 . S
C2136 C2150 1.377 . S
C2137 C2136 1.524 . S
C2137 C2138 1.397 . S
C2137 C2142 1.363 1_556 S
C2138 H2115 0.950 . S
C2138 C2137 1.397 . S
C2138 C2139 1.334 1_556 S
C2139 H2116 0.950 . S
C2139 C2138 1.334 1_554 S
C2139 C2140 1.287 . S
C2140 C2139 1.287 . S
C2140 C2141 1.524 . S
C2140 H2159 0.913 . S
C2141 H2117 0.950 . S
C2141 C2140 1.524 . S
C2141 C2142 1.415 . S
C2142 H2118 0.950 . S
C2142 C2137 1.363 1_554 S
C2142 C2141 1.415 . S
C2143 H2119 0.951 . S
C2143 C2144 1.366 . S
C2143 C2145 1.388 . S
C2144 C2143 1.366 . S
C2144 C2148 1.385 . S
C2145 H2120 0.951 . S
C2145 C2143 1.388 . S
C2145 C2146 1.366 . S
C2146 C2145 1.366 . S
C2146 C2147 1.414 . S
C2146 C2149 1.499 . S
C2147 H2121 0.950 . S
C2147 C2146 1.414 . S
C2147 C2148 1.374 . S
C2148 H2122 0.950 . S
C2148 C2144 1.385 . S
C2148 C2147 1.374 . S
C2149 C2146 1.499 . S
C2149 C2150 1.373 . S
C2149 C2151 1.389 . S
C2150 H2123 0.950 . S
C2150 C2136 1.377 . S
C2150 C2149 1.373 . S
C2151 C2135 1.377 . S
C2151 C2149 1.389 . S
C2151 C2152 1.524 . S
C2152 C2151 1.524 . S
C2152 C2153 1.397 . S
C2152 C2157 1.363 . S
C2153 H2124 0.950 . S
C2153 C2152 1.397 . S
C2153 C2154 1.334 . S
C2154 H2125 0.950 . S
C2154 C2153 1.334 . S
C2154 C2155 1.287 . S
C2155 C2154 1.287 . S
C2155 C2156 1.524 . S
C2155 H2158 0.999 . S
C2156 H2126 0.950 . S
C2156 C2155 1.524 . S
C2156 C2157 1.415 . S
C2157 H2127 0.950 . S
C2157 C2152 1.363 . S
C2157 C2156 1.415 . S
H2158 C2155 0.999 . S
H2159 C2140 0.913 . S
H2160 C2178 0.951 . S
H2161 C2180 0.951 . S
H2162 C2182 0.950 . S
H2163 C2183 0.950 . S
H2164 C2185 0.916 1_655 S
H2165 C2188 0.950 . S
H2166 C2189 0.950 . S
H2167 C2191 0.950 . S
H2168 C2192 0.950 . S
H2169 C2193 0.951 . S
H2170 C2195 0.951 . S
H2171 C2197 0.950 . S
H2172 C2198 0.950 . S
H2173 C2200 0.950 1_556 S
H2174 C2203 0.950 . S
H2175 C2204 0.950 . S
H2176 C2206 0.950 . S
H2177 C2207 0.950 . S
C2178 H2160 0.951 . S
C2178 C2179 1.366 1_556 S
C2178 C2180 1.388 . S
C2179 C2178 1.366 1_554 S
C2179 C2183 1.385 . S
C2180 H2161 0.951 . S
C2180 C2178 1.388 . S
C2180 C2181 1.366 1_556 S
C2181 C2180 1.366 1_554 S
C2181 C2182 1.414 . S
C2181 C2184 1.492 1_655 S
C2182 H2162 0.950 . S
C2182 C2181 1.414 . S
C2182 C2183 1.374 . S
C2183 H2163 0.950 . S
C2183 C2179 1.385 . S
C2183 C2182 1.374 . S
C2184 C2181 1.492 1_455 S
C2184 C2185 1.376 . S
C2184 C2186 1.394 . S
C2185 H2164 0.916 1_455 S
C2185 C2184 1.376 . S
C2185 C2201 1.377 . S
C2186 C2184 1.394 . S
C2186 C2187 1.524 . S
C2186 C2200 1.377 . S
C2187 C2186 1.524 . S
C2187 C2188 1.397 1_455 S
C2187 C2192 1.363 1_554 S
C2188 H2165 0.950 . S
C2188 C2187 1.397 1_655 S
C2188 C2189 1.334 . S
C2189 H2166 0.950 . S
C2189 C2188 1.334 . S
C2189 C2190 1.287 . S
C2190 C2189 1.287 . S
C2190 C2191 1.524 1_654 S
C2190 H2209 0.913 . S
C2191 H2167 0.950 . S
C2191 C2190 1.524 1_456 S
C2191 C2192 1.415 . S
C2192 H2168 0.950 . S
C2192 C2187 1.363 1_556 S
C2192 C2191 1.415 . S
C2193 H2169 0.951 . S
C2193 C2194 1.366 . S
C2193 C2195 1.388 . S
C2194 C2193 1.366 . S
C2194 C2198 1.385 1_554 S
C2195 H2170 0.951 . S
C2195 C2193 1.388 . S
C2195 C2196 1.366 . S
C2196 C2195 1.366 . S
C2196 C2197 1.414 1_554 S
C2196 C2199 1.501 . S
C2197 H2171 0.950 . S
C2197 C2196 1.414 1_556 S
C2197 C2198 1.374 . S
C2198 H2172 0.950 . S
C2198 C2194 1.385 1_556 S
C2198 C2197 1.374 . S
C2199 C2196 1.501 . S
C2199 C2200 1.372 . S
C2199 C2201 1.394 . S
C2200 H2173 0.950 1_554 S
C2200 C2186 1.377 . S
C2200 C2199 1.372 . S
C2201 C2185 1.377 . S
C2201 C2199 1.394 . S
C2201 C2202 1.524 . S
C2202 C2201 1.524 . S
C2202 C2203 1.397 1_554 S
C2202 C2207 1.363 . S
C2203 H2174 0.950 . S
C2203 C2202 1.397 1_556 S
C2203 C2204 1.334 . S
C2204 H2175 0.950 . S
C2204 C2203 1.334 . S
C2204 C2205 1.287 . S
C2205 C2204 1.287 . S
C2205 C2206 1.524 1_556 S
C2205 H2208 0.999 . S
C2206 H2176 0.950 . S
C2206 C2205 1.524 1_554 S
C2206 C2207 1.415 . S
C2207 H2177 0.950 . S
C2207 C2202 1.363 . S
C2207 C2206 1.415 . S
H2208 C2205 0.999 . S
H2209 C2190 0.913 . S
H2210 C2228 0.951 . S
H2211 C2230 0.951 . S
H2212 C2232 0.950 . S
H2213 C2233 0.950 . S
H2214 C2235 0.950 . S
H2215 C2238 0.950 . S
H2216 C2239 0.950 . S
H2217 C2241 0.950 . S
H2218 C2242 0.950 . S
H2219 C2243 0.951 . S
H2220 C2245 0.951 . S
H2221 C2247 0.950 . S
H2222 C2248 0.950 . S
H2223 C2250 0.950 . S
H2224 C2253 0.950 . S
H2225 C2254 0.950 . S
H2226 C2256 0.950 . S
H2227 C2257 0.950 . S
C2228 H2210 0.951 . S
C2228 C2229 1.405 . S
C2228 C2230 1.388 . S
C2229 C2228 1.405 . S
C2229 C2233 1.347 1_455 S
C2230 H2211 0.951 . S
C2230 C2228 1.388 . S
C2230 C2231 1.365 . S
C2231 C2230 1.365 . S
C2231 C2232 1.414 1_455 S
C2231 C2234 1.498 1_455 S
C2232 H2212 0.950 . S
C2232 C2231 1.414 1_655 S
C2232 C2233 1.374 . S
C2233 H2213 0.950 . S
C2233 C2229 1.347 1_655 S
C2233 C2232 1.374 . S
C2234 C2231 1.498 1_655 S
C2234 C2235 1.429 . S
C2234 C2236 1.336 1_655 S
C2235 H2214 0.950 . S
C2235 C2234 1.429 . S
C2235 C2251 1.377 . S
C2236 C2234 1.336 1_455 S
C2236 C2237 1.524 . S
C2236 C2250 1.377 . S
C2237 C2236 1.524 . S
C2237 C2238 1.397 . S
C2237 C2242 1.363 . S
C2238 H2215 0.950 . S
C2238 C2237 1.397 . S
C2238 C2239 1.334 . S
C2239 H2216 0.950 . S
C2239 C2238 1.334 . S
C2239 C2240 1.287 . S
C2240 C2239 1.287 . S
C2240 C2241 1.524 . S
C2240 H2259 0.913 . S
C2241 H2217 0.950 . S
C2241 C2240 1.524 . S
C2241 C2242 1.415 . S
C2242 H2218 0.950 . S
C2242 C2237 1.363 . S
C2242 C2241 1.415 . S
C2243 H2219 0.951 . S
C2243 C2244 1.366 . S
C2243 C2245 1.388 . S
C2244 C2243 1.366 . S
C2244 C2248 1.385 1_655 S
C2245 H2220 0.951 . S
C2245 C2243 1.388 . S
C2245 C2246 1.366 . S
C2246 C2245 1.366 . S
C2246 C2247 1.414 1_655 S
C2246 C2249 1.499 . S
C2247 H2221 0.950 . S
C2247 C2246 1.414 1_455 S
C2247 C2248 1.374 . S
C2248 H2222 0.950 . S
C2248 C2244 1.385 1_455 S
C2248 C2247 1.374 . S
C2249 C2246 1.499 . S
C2249 C2250 1.373 1_655 S
C2249 C2251 1.389 . S
C2250 H2223 0.950 . S
C2250 C2236 1.377 . S
C2250 C2249 1.373 1_455 S
C2251 C2235 1.377 . S
C2251 C2249 1.389 . S
C2251 C2252 1.524 . S
C2252 C2251 1.524 . S
C2252 C2253 1.397 . S
C2252 C2257 1.363 . S
C2253 H2224 0.950 . S
C2253 C2252 1.397 . S
C2253 C2254 1.334 . S
C2254 H2225 0.950 . S
C2254 C2253 1.334 . S
C2254 C2255 1.287 . S
C2255 C2254 1.287 . S
C2255 C2256 1.524 . S
C2255 H2258 0.999 . S
C2256 H2226 0.950 . S
C2256 C2255 1.524 . S
C2256 C2257 1.415 . S
C2257 H2227 0.950 . S
C2257 C2252 1.363 . S
C2257 C2256 1.415 . S
H2258 C2255 0.999 . S
H2259 C2240 0.913 . S
H2260 C2278 0.951 . S
H2261 C2280 0.951 . S
H2262 C2282 0.950 . S
H2263 C2283 0.950 . S
H2264 C2285 0.950 . S
H2265 C2288 0.950 . S
H2266 C2289 0.950 . S
H2267 C2291 0.950 . S
H2268 C2292 0.950 . S
H2269 C2293 0.951 . S
H2270 C2295 0.951 . S
H2271 C2297 0.950 . S
H2272 C2298 0.950 . S
H2273 C2300 0.950 . S
H2274 C2303 0.950 . S
H2275 C2304 0.950 . S
H2276 C2306 0.950 . S
H2277 C2307 0.950 . S
C2278 H2260 0.951 . S
C2278 C2279 1.366 . S
C2278 C2280 1.388 . S
C2279 C2278 1.366 . S
C2279 C2283 1.385 . S
C2280 H2261 0.951 . S
C2280 C2278 1.388 . S
C2280 C2281 1.366 . S
C2281 C2280 1.366 . S
C2281 C2282 1.414 . S
C2281 C2284 1.499 . S
C2282 H2262 0.950 . S
C2282 C2281 1.414 . S
C2282 C2283 1.374 . S
C2283 H2263 0.950 . S
C2283 C2279 1.385 . S
C2283 C2282 1.374 . S
C2284 C2281 1.499 . S
C2284 C2285 1.373 . S
C2284 C2286 1.389 . S
C2285 H2264 0.950 . S
C2285 C2284 1.373 . S
C2285 C2301 1.377 . S
C2286 C2284 1.389 . S
C2286 C2287 1.524 . S
C2286 C2300 1.377 . S
C2287 C2286 1.524 . S
C2287 C2288 1.397 . S
C2287 C2292 1.363 . S
C2288 H2265 0.950 . S
C2288 C2287 1.397 . S
C2288 C2289 1.334 . S
C2289 H2266 0.950 . S
C2289 C2288 1.334 . S
C2289 C2290 1.287 . S
C2290 C2289 1.287 . S
C2290 C2291 1.524 . S
C2290 H2309 0.913 . S
C2291 H2267 0.950 . S
C2291 C2290 1.524 . S
C2291 C2292 1.415 . S
C2292 H2268 0.950 . S
C2292 C2287 1.363 . S
C2292 C2291 1.415 . S
C2293 H2269 0.951 . S
C2293 C2294 1.366 . S
C2293 C2295 1.388 . S
C2294 C2293 1.366 . S
C2294 C2298 1.385 . S
C2295 H2270 0.951 . S
C2295 C2293 1.388 . S
C2295 C2296 1.366 . S
C2296 C2295 1.366 . S
C2296 C2297 1.414 . S
C2296 C2299 1.499 . S
C2297 H2271 0.950 . S
C2297 C2296 1.414 . S
C2297 C2298 1.374 . S
C2298 H2272 0.950 . S
C2298 C2294 1.385 . S
C2298 C2297 1.374 . S
C2299 C2296 1.499 . S
C2299 C2300 1.373 . S
C2299 C2301 1.389 . S
C2300 H2273 0.950 . S
C2300 C2286 1.377 . S
C2300 C2299 1.373 . S
C2301 C2285 1.377 . S
C2301 C2299 1.389 . S
C2301 C2302 1.524 . S
C2302 C2301 1.524 . S
C2302 C2303 1.397 . S
C2302 C2307 1.363 . S
C2303 H2274 0.950 . S
C2303 C2302 1.397 . S
C2303 C2304 1.334 . S
C2304 H2275 0.950 . S
C2304 C2303 1.334 . S
C2304 C2305 1.287 . S
C2305 C2304 1.287 . S
C2305 C2306 1.524 . S
C2305 H2308 0.999 . S
C2306 H2276 0.950 . S
C2306 C2305 1.524 . S
C2306 C2307 1.415 . S
C2307 H2277 0.950 . S
C2307 C2302 1.363 . S
C2307 C2306 1.415 . S
H2308 C2305 0.999 . S
H2309 C2290 0.913 . S
H2310 C2328 0.951 . S
H2311 C2330 0.951 . S
H2312 C2332 0.950 . S
H2313 C2333 0.950 . S
H2314 C2335 0.950 . S
H2315 C2338 0.950 . S
H2316 C2339 0.950 . S
H2317 C2341 0.950 . S
H2318 C2342 0.950 . S
H2319 C2343 0.951 . S
H2320 C2345 0.951 . S
H2321 C2347 0.950 . S
H2322 C2348 0.950 . S
H2323 C2350 0.950 . S
H2324 C2353 0.950 . S
H2325 C2354 0.950 . S
H2326 C2356 0.950 . S
H2327 C2357 0.950 . S
C2328 H2310 0.951 . S
C2328 C2329 1.366 . S
C2328 C2330 1.388 . S
C2329 C2328 1.366 . S
C2329 C2333 1.385 . S
C2330 H2311 0.951 . S
C2330 C2328 1.388 . S
C2330 C2331 1.366 . S
C2331 C2330 1.366 . S
C2331 C2332 1.414 . S
C2331 C2334 1.499 . S
C2332 H2312 0.950 . S
C2332 C2331 1.414 . S
C2332 C2333 1.374 . S
C2333 H2313 0.950 . S
C2333 C2329 1.385 . S
C2333 C2332 1.374 . S
C2334 C2331 1.499 . S
C2334 C2335 1.373 . S
C2334 C2336 1.389 . S
C2335 H2314 0.950 . S
C2335 C2334 1.373 . S
C2335 C2351 1.377 1_655 S
C2336 C2334 1.389 . S
C2336 C2337 1.524 . S
C2336 C2350 1.377 1_655 S
C2337 C2336 1.524 . S
C2337 C2338 1.397 . S
C2337 C2342 1.363 . S
C2338 H2315 0.950 . S
C2338 C2337 1.397 . S
C2338 C2339 1.334 . S
C2339 H2316 0.950 . S
C2339 C2338 1.334 . S
C2339 C2340 1.287 . S
C2340 C2339 1.287 . S
C2340 C2341 1.524 . S
C2340 H2359 0.913 . S
C2341 H2317 0.950 . S
C2341 C2340 1.524 . S
C2341 C2342 1.415 . S
C2342 H2318 0.950 . S
C2342 C2337 1.363 . S
C2342 C2341 1.415 . S
C2343 H2319 0.951 . S
C2343 C2344 1.366 . S
C2343 C2345 1.388 . S
C2344 C2343 1.366 . S
C2344 C2348 1.385 . S
C2345 H2320 0.951 . S
C2345 C2343 1.388 . S
C2345 C2346 1.366 . S
C2346 C2345 1.366 . S
C2346 C2347 1.414 . S
C2346 C2349 1.499 . S
C2347 H2321 0.950 . S
C2347 C2346 1.414 . S
C2347 C2348 1.374 . S
C2348 H2322 0.950 . S
C2348 C2344 1.385 . S
C2348 C2347 1.374 . S
C2349 C2346 1.499 . S
C2349 C2350 1.373 . S
C2349 C2351 1.389 . S
C2350 H2323 0.950 . S
C2350 C2336 1.377 1_455 S
C2350 C2349 1.373 . S
C2351 C2335 1.377 1_455 S
C2351 C2349 1.389 . S
C2351 C2352 1.524 . S
C2352 C2351 1.524 . S
C2352 C2353 1.397 . S
C2352 C2357 1.363 . S
C2353 H2324 0.950 . S
C2353 C2352 1.397 . S
C2353 C2354 1.334 . S
C2354 H2325 0.950 . S
C2354 C2353 1.334 . S
C2354 C2355 1.287 . S
C2355 C2354 1.287 . S
C2355 C2356 1.524 . S
C2355 H2358 0.999 . S
C2356 H2326 0.950 . S
C2356 C2355 1.524 . S
C2356 C2357 1.415 . S
C2357 H2327 0.950 . S
C2357 C2352 1.363 . S
C2357 C2356 1.415 . S
H2358 C2355 0.999 . S
H2359 C2340 0.913 . S
H2360 C2378 0.951 . S
H2361 C2380 0.951 . S
H2362 C2382 0.950 1_655 S
H2363 C2383 0.950 1_655 S
H2364 C2385 0.950 . S
H2365 C2388 0.950 . S
H2366 C2389 0.950 . S
H2367 C2391 0.950 . S
H2368 C2392 0.950 . S
H2369 C2393 0.951 1_655 S
H2370 C2395 0.951 1_655 S
H2371 C2397 0.950 . S
H2372 C2398 0.950 . S
H2373 C2400 0.950 . S
H2374 C2403 0.950 . S
H2375 C2404 0.950 . S
H2376 C2406 0.950 . S
H2377 C2407 0.950 . S
C2378 H2360 0.951 . S
C2378 C2379 1.366 . S
C2378 C2380 1.388 . S
C2379 C2378 1.366 . S
C2379 C2383 1.385 . S
C2380 H2361 0.951 . S
C2380 C2378 1.388 . S
C2380 C2381 1.366 . S
C2381 C2380 1.366 . S
C2381 C2382 1.414 . S
C2381 C2384 1.499 . S
C2382 H2362 0.950 1_455 S
C2382 C2381 1.414 . S
C2382 C2383 1.374 . S
C2383 H2363 0.950 1_455 S
C2383 C2379 1.385 . S
C2383 C2382 1.374 . S
C2384 C2381 1.499 . S
C2384 C2385 1.373 . S
C2384 C2386 1.389 . S
C2385 H2364 0.950 . S
C2385 C2384 1.373 . S
C2385 C2401 1.377 . S
C2386 C2384 1.389 . S
C2386 C2387 1.524 . S
C2386 C2400 1.377 . S
C2387 C2386 1.524 . S
C2387 C2388 1.397 1_455 S
C2387 C2392 1.363 . S
C2388 H2365 0.950 . S
C2388 C2387 1.397 1_655 S
C2388 C2389 1.334 . S
C2389 H2366 0.950 . S
C2389 C2388 1.334 . S
C2389 C2390 1.287 . S
C2390 C2389 1.287 . S
C2390 C2391 1.524 1_655 S
C2390 H2409 0.913 . S
C2391 H2367 0.950 . S
C2391 C2390 1.524 1_455 S
C2391 C2392 1.415 . S
C2392 H2368 0.950 . S
C2392 C2387 1.363 . S
C2392 C2391 1.415 . S
C2393 H2369 0.951 1_455 S
C2393 C2394 1.366 . S
C2393 C2395 1.388 . S
C2394 C2393 1.366 . S
C2394 C2398 1.385 . S
C2395 H2370 0.951 1_455 S
C2395 C2393 1.388 . S
C2395 C2396 1.366 . S
C2396 C2395 1.366 . S
C2396 C2397 1.414 . S
C2396 C2399 1.499 . S
C2397 H2371 0.950 . S
C2397 C2396 1.414 . S
C2397 C2398 1.374 . S
C2398 H2372 0.950 . S
C2398 C2394 1.385 . S
C2398 C2397 1.374 . S
C2399 C2396 1.499 . S
C2399 C2400 1.373 . S
C2399 C2401 1.389 . S
C2400 H2373 0.950 . S
C2400 C2386 1.377 . S
C2400 C2399 1.373 . S
C2401 C2385 1.377 . S
C2401 C2399 1.389 . S
C2401 C2402 1.524 . S
C2402 C2401 1.524 . S
C2402 C2403 1.397 . S
C2402 C2407 1.363 . S
C2403 H2374 0.950 . S
C2403 C2402 1.397 . S
C2403 C2404 1.334 . S
C2404 H2375 0.950 . S
C2404 C2403 1.334 . S
C2404 C2405 1.287 . S
C2405 C2404 1.287 . S
C2405 C2406 1.524 . S
C2405 H2408 0.999 . S
C2406 H2376 0.950 . S
C2406 C2405 1.524 . S
C2406 C2407 1.415 . S
C2407 H2377 0.950 . S
C2407 C2402 1.363 . S
C2407 C2406 1.415 . S
H2408 C2405 0.999 . S
H2409 C2390 0.913 . S
H2410 C2428 0.951 . S
H2411 C2430 0.951 . S
H2412 C2432 0.950 . S
H2413 C2433 0.950 . S
H2414 C2435 0.950 . S
H2415 C2438 0.950 . S
H2416 C2439 0.950 . S
H2417 C2441 0.950 . S
H2418 C2442 0.950 . S
H2419 C2443 0.951 . S
H2420 C2445 0.951 . S
H2421 C2447 0.950 . S
H2422 C2448 0.950 . S
H2423 C2450 0.950 . S
H2424 C2453 0.950 . S
H2425 C2454 0.950 . S
H2426 C2456 0.950 . S
H2427 C2457 0.950 . S
C2428 H2410 0.951 . S
C2428 C2429 1.366 . S
C2428 C2430 1.388 . S
C2429 C2428 1.366 . S
C2429 C2433 1.385 . S
C2430 H2411 0.951 . S
C2430 C2428 1.388 . S
C2430 C2431 1.366 . S
C2431 C2430 1.366 . S
C2431 C2432 1.414 . S
C2431 C2434 1.499 . S
C2432 H2412 0.950 . S
C2432 C2431 1.414 . S
C2432 C2433 1.374 . S
C2433 H2413 0.950 . S
C2433 C2429 1.385 . S
C2433 C2432 1.374 . S
C2434 C2431 1.499 . S
C2434 C2435 1.373 . S
C2434 C2436 1.389 . S
C2435 H2414 0.950 . S
C2435 C2434 1.373 . S
C2435 C2451 1.377 . S
C2436 C2434 1.389 . S
C2436 C2437 1.524 . S
C2436 C2450 1.377 . S
C2437 C2436 1.524 . S
C2437 C2438 1.397 . S
C2437 C2442 1.363 . S
C2438 H2415 0.950 . S
C2438 C2437 1.397 . S
C2438 C2439 1.334 . S
C2439 H2416 0.950 . S
C2439 C2438 1.334 . S
C2439 C2440 1.287 . S
C2440 C2439 1.287 . S
C2440 C2441 1.524 . S
C2440 H2459 0.913 . S
C2441 H2417 0.950 . S
C2441 C2440 1.524 . S
C2441 C2442 1.415 . S
C2442 H2418 0.950 . S
C2442 C2437 1.363 . S
C2442 C2441 1.415 . S
C2443 H2419 0.951 . S
C2443 C2444 1.366 . S
C2443 C2445 1.388 . S
C2444 C2443 1.366 . S
C2444 C2448 1.385 . S
C2445 H2420 0.951 . S
C2445 C2443 1.388 . S
C2445 C2446 1.366 . S
C2446 C2445 1.366 . S
C2446 C2447 1.414 . S
C2446 C2449 1.499 . S
C2447 H2421 0.950 . S
C2447 C2446 1.414 . S
C2447 C2448 1.374 . S
C2448 H2422 0.950 . S
C2448 C2444 1.385 . S
C2448 C2447 1.374 . S
C2449 C2446 1.499 . S
C2449 C2450 1.373 . S
C2449 C2451 1.389 . S
C2450 H2423 0.950 . S
C2450 C2436 1.377 . S
C2450 C2449 1.373 . S
C2451 C2435 1.377 . S
C2451 C2449 1.389 . S
C2451 C2452 1.524 . S
C2452 C2451 1.524 . S
C2452 C2453 1.397 . S
C2452 C2457 1.363 . S
C2453 H2424 0.950 . S
C2453 C2452 1.397 . S
C2453 C2454 1.334 . S
C2454 H2425 0.950 . S
C2454 C2453 1.334 . S
C2454 C2455 1.287 . S
C2455 C2454 1.287 . S
C2455 C2456 1.524 . S
C2455 H2458 0.999 . S
C2456 H2426 0.950 . S
C2456 C2455 1.524 . S
C2456 C2457 1.415 . S
C2457 H2427 0.950 . S
C2457 C2452 1.363 . S
C2457 C2456 1.415 . S
H2458 C2455 0.999 . S
H2459 C2440 0.913 . S
H2460 C2478 0.951 . S
H2461 C2480 0.951 . S
H2462 C2482 0.950 . S
H2463 C2483 0.950 . S
H2464 C2485 0.950 . S
H2465 C2488 0.950 . S
H2466 C2489 0.950 . S
H2467 C2491 0.950 . S
H2468 C2492 0.950 . S
H2469 C2493 0.951 . S
H2470 C2495 0.951 . S
H2471 C2497 0.950 . S
H2472 C2498 0.950 . S
H2473 C2500 0.950 . S
H2474 C2503 0.950 . S
H2475 C2504 0.950 . S
H2476 C2506 0.950 . S
H2477 C2507 0.950 . S
C2478 H2460 0.951 . S
C2478 C2479 1.366 . S
C2478 C2480 1.388 . S
C2479 C2478 1.366 . S
C2479 C2483 1.385 . S
C2480 H2461 0.951 . S
C2480 C2478 1.388 . S
C2480 C2481 1.366 . S
C2481 C2480 1.366 . S
C2481 C2482 1.414 . S
C2481 C2484 1.499 . S
C2482 H2462 0.950 . S
C2482 C2481 1.414 . S
C2482 C2483 1.374 . S
C2483 H2463 0.950 . S
C2483 C2479 1.385 . S
C2483 C2482 1.374 . S
C2484 C2481 1.499 . S
C2484 C2485 1.373 . S
C2484 C2486 1.389 . S
C2485 H2464 0.950 . S
C2485 C2484 1.373 . S
C2485 C2501 1.377 1_545 S
C2486 C2484 1.389 . S
C2486 C2487 1.524 . S
C2486 C2500 1.377 1_545 S
C2487 C2486 1.524 . S
C2487 C2488 1.397 . S
C2487 C2492 1.363 . S
C2488 H2465 0.950 . S
C2488 C2487 1.397 . S
C2488 C2489 1.334 . S
C2489 H2466 0.950 . S
C2489 C2488 1.334 . S
C2489 C2490 1.287 . S
C2490 C2489 1.287 . S
C2490 C2491 1.524 . S
C2490 H2509 0.913 . S
C2491 H2467 0.950 . S
C2491 C2490 1.524 . S
C2491 C2492 1.415 . S
C2492 H2468 0.950 . S
C2492 C2487 1.363 . S
C2492 C2491 1.415 . S
C2493 H2469 0.951 . S
C2493 C2494 1.366 . S
C2493 C2495 1.388 . S
C2494 C2493 1.366 . S
C2494 C2498 1.385 . S
C2495 H2470 0.951 . S
C2495 C2493 1.388 . S
C2495 C2496 1.366 . S
C2496 C2495 1.366 . S
C2496 C2497 1.414 . S
C2496 C2499 1.499 . S
C2497 H2471 0.950 . S
C2497 C2496 1.414 . S
C2497 C2498 1.374 . S
C2498 H2472 0.950 . S
C2498 C2494 1.385 . S
C2498 C2497 1.374 . S
C2499 C2496 1.499 . S
C2499 C2500 1.373 . S
C2499 C2501 1.389 . S
C2500 H2473 0.950 . S
C2500 C2486 1.377 1_565 S
C2500 C2499 1.373 . S
C2501 C2485 1.377 1_565 S
C2501 C2499 1.389 . S
C2501 C2502 1.524 . S
C2502 C2501 1.524 . S
C2502 C2503 1.397 . S
C2502 C2507 1.363 . S
C2503 H2474 0.950 . S
C2503 C2502 1.397 . S
C2503 C2504 1.334 . S
C2504 H2475 0.950 . S
C2504 C2503 1.334 . S
C2504 C2505 1.287 . S
C2505 C2504 1.287 . S
C2505 C2506 1.524 . S
C2505 H2508 0.999 . S
C2506 H2476 0.950 . S
C2506 C2505 1.524 . S
C2506 C2507 1.415 . S
C2507 H2477 0.950 . S
C2507 C2502 1.363 . S
C2507 C2506 1.415 . S
H2508 C2505 0.999 . S
H2509 C2490 0.913 . S
H2510 C2528 0.941 1_556 S
H2511 C2530 0.916 1_556 S
H2512 C2532 0.950 . S
H2513 C2533 0.950 . S
H2514 C2535 0.950 . S
H2515 C2538 0.950 . S
H2516 C2539 0.950 . S
H2517 C2541 0.950 . S
H2518 C2542 0.950 . S
H2519 C2543 0.951 . S
H2520 C2545 0.951 . S
H2521 C2547 0.950 1_556 S
H2522 C2548 0.925 1_556 S
H2523 C2550 0.973 . S
H2524 C2553 0.950 . S
H2525 C2554 0.950 . S
H2526 C2556 0.950 . S
H2527 C2557 0.950 . S
C2528 H2510 0.941 1_554 S
C2528 C2529 1.375 . S
C2528 C2530 1.387 . S
C2529 C2528 1.375 . S
C2529 C2533 1.385 . S
C2530 H2511 0.916 1_554 S
C2530 C2528 1.387 . S
C2530 C2531 1.404 . S
C2531 C2530 1.404 . S
C2531 C2532 1.414 . S
C2531 C2534 1.499 . S
C2532 H2512 0.950 . S
C2532 C2531 1.414 . S
C2532 C2533 1.374 . S
C2533 H2513 0.950 . S
C2533 C2529 1.385 . S
C2533 C2532 1.374 . S
C2534 C2531 1.499 . S
C2534 C2535 1.373 . S
C2534 C2536 1.389 1_554 S
C2535 H2514 0.950 . S
C2535 C2534 1.373 . S
C2535 C2551 1.377 . S
C2536 C2534 1.389 1_556 S
C2536 C2537 1.524 . S
C2536 C2550 1.379 . S
C2537 C2536 1.524 . S
C2537 C2538 1.397 . S
C2537 C2542 1.363 . S
C2538 H2515 0.950 . S
C2538 C2537 1.397 . S
C2538 C2539 1.334 . S
C2539 H2516 0.950 . S
C2539 C2538 1.334 . S
C2539 C2540 1.287 . S
C2540 C2539 1.287 . S
C2540 C2541 1.524 . S
C2540 H2559 0.913 . S
C2541 H2517 0.950 . S
C2541 C2540 1.524 . S
C2541 C2542 1.415 . S
C2542 H2518 0.950 . S
C2542 C2537 1.363 . S
C2542 C2541 1.415 . S
C2543 H2519 0.951 . S
C2543 C2544 1.366 . S
C2543 C2545 1.388 . S
C2544 C2543 1.366 . S
C2544 C2548 1.385 . S
C2545 H2520 0.951 . S
C2545 C2543 1.388 . S
C2545 C2546 1.366 . S
C2546 C2545 1.366 . S
C2546 C2547 1.414 . S
C2546 C2549 1.499 . S
C2547 H2521 0.950 1_554 S
C2547 C2546 1.414 . S
C2547 C2548 1.374 . S
C2548 H2522 0.925 1_554 S
C2548 C2544 1.385 . S
C2548 C2547 1.374 . S
C2549 C2546 1.499 . S
C2549 C2550 1.349 1_554 S
C2549 C2551 1.389 . S
C2550 H2523 0.973 . S
C2550 C2536 1.379 . S
C2550 C2549 1.349 1_556 S
C2551 C2535 1.377 . S
C2551 C2549 1.389 . S
C2551 C2552 1.524 . S
C2552 C2551 1.524 . S
C2552 C2553 1.397 . S
C2552 C2557 1.363 . S
C2553 H2524 0.950 . S
C2553 C2552 1.397 . S
C2553 C2554 1.334 . S
C2554 H2525 0.950 . S
C2554 C2553 1.334 . S
C2554 C2555 1.287 . S
C2555 C2554 1.287 . S
C2555 C2556 1.524 . S
C2555 H2558 0.999 . S
C2556 H2526 0.950 . S
C2556 C2555 1.524 . S
C2556 C2557 1.415 . S
C2557 H2527 0.950 . S
C2557 C2552 1.363 . S
C2557 C2556 1.415 . S
H2558 C2555 0.999 . S
H2559 C2540 0.913 . S
H2560 C2578 0.951 . S
H2561 C2580 0.951 . S
H2562 C2582 0.950 . S
H2563 C2583 0.950 . S
H2564 C2585 0.950 1_545 S
H2565 C2588 0.950 . S
H2566 C2589 0.950 . S
H2567 C2591 0.950 . S
H2568 C2592 0.950 . S
H2569 C2593 0.971 . S
H2570 C2595 0.951 . S
H2571 C2597 0.950 . S
H2572 C2598 0.950 . S
H2573 C2600 0.950 . S
H2574 C2603 0.950 . S
H2575 C2604 0.950 . S
H2576 C2606 0.950 . S
H2577 C2607 0.950 . S
C2578 H2560 0.951 . S
C2578 C2579 1.366 . S
C2578 C2580 1.388 . S
C2579 C2578 1.366 . S
C2579 C2583 1.385 . S
C2580 H2561 0.951 . S
C2580 C2578 1.388 . S
C2580 C2581 1.366 . S
C2581 C2580 1.366 . S
C2581 C2582 1.414 . S
C2581 C2584 1.499 . S
C2582 H2562 0.950 . S
C2582 C2581 1.414 . S
C2582 C2583 1.374 . S
C2583 H2563 0.950 . S
C2583 C2579 1.385 . S
C2583 C2582 1.374 . S
C2584 C2581 1.499 . S
C2584 C2585 1.373 1_545 S
C2584 C2586 1.389 1_545 S
C2585 H2564 0.950 1_565 S
C2585 C2584 1.373 1_565 S
C2585 C2601 1.377 . S
C2586 C2584 1.389 1_565 S
C2586 C2587 1.525 . S
C2586 C2600 1.377 . S
C2587 C2586 1.525 . S
C2587 C2588 1.396 1_665 S
C2587 C2592 1.363 . S
C2588 H2565 0.950 . S
C2588 C2587 1.396 1_445 S
C2588 C2589 1.334 . S
C2589 H2566 0.950 . S
C2589 C2588 1.334 . S
C2589 C2590 1.287 . S
C2590 C2589 1.287 . S
C2590 C2591 1.524 1_445 S
C2590 H2609 0.913 . S
C2591 H2567 0.950 . S
C2591 C2590 1.524 1_665 S
C2591 C2592 1.415 . S
C2592 H2568 0.950 . S
C2592 C2587 1.363 . S
C2592 C2591 1.415 . S
C2593 H2569 0.971 . S
C2593 C2594 1.366 . S
C2593 C2595 1.388 . S
C2594 C2593 1.366 . S
C2594 C2598 1.385 . S
C2595 H2570 0.951 . S
C2595 C2593 1.388 . S
C2595 C2596 1.366 . S
C2596 C2595 1.366 . S
C2596 C2597 1.414 . S
C2596 C2599 1.499 . S
C2597 H2571 0.950 . S
C2597 C2596 1.414 . S
C2597 C2598 1.374 . S
C2598 H2572 0.950 . S
C2598 C2594 1.385 . S
C2598 C2597 1.374 . S
C2599 C2596 1.499 . S
C2599 C2600 1.373 . S
C2599 C2601 1.389 . S
C2600 H2573 0.950 . S
C2600 C2586 1.377 . S
C2600 C2599 1.373 . S
C2601 C2585 1.377 . S
C2601 C2599 1.389 . S
C2601 C2602 1.524 . S
C2602 C2601 1.524 . S
C2602 C2603 1.397 . S
C2602 C2607 1.363 . S
C2603 H2574 0.950 . S
C2603 C2602 1.397 . S
C2603 C2604 1.334 . S
C2604 H2575 0.950 . S
C2604 C2603 1.334 . S
C2604 C2605 1.287 . S
C2605 C2604 1.287 . S
C2605 C2606 1.524 . S
C2605 H2608 0.999 . S
C2606 H2576 0.950 . S
C2606 C2605 1.524 . S
C2606 C2607 1.415 . S
C2607 H2577 0.950 . S
C2607 C2602 1.363 . S
C2607 C2606 1.415 . S
H2608 C2605 0.999 . S
H2609 C2590 0.913 . S
H2610 C2628 0.951 . S
H2611 C2630 0.951 . S
H2612 C2632 0.950 . S
H2613 C2633 0.950 . S
H2614 C2635 0.950 . S
H2615 C2638 0.950 . S
H2616 C2639 0.950 . S
H2617 C2641 0.950 . S
H2618 C2642 0.950 . S
H2619 C2643 0.951 . S
H2620 C2645 0.951 . S
H2621 C2647 0.950 . S
H2622 C2648 0.950 . S
H2623 C2650 0.950 . S
H2624 C2653 0.950 . S
H2625 C2654 0.950 . S
H2626 C2656 0.950 . S
H2627 C2657 0.950 . S
C2628 H2610 0.951 . S
C2628 C2629 1.366 . S
C2628 C2630 1.388 . S
C2629 C2628 1.366 . S
C2629 C2633 1.385 . S
C2630 H2611 0.951 . S
C2630 C2628 1.388 . S
C2630 C2631 1.366 . S
C2631 C2630 1.366 . S
C2631 C2632 1.414 . S
C2631 C2634 1.499 . S
C2632 H2612 0.950 . S
C2632 C2631 1.414 . S
C2632 C2633 1.374 . S
C2633 H2613 0.950 . S
C2633 C2629 1.385 . S
C2633 C2632 1.374 . S
C2634 C2631 1.499 . S
C2634 C2635 1.373 . S
C2634 C2636 1.389 . S
C2635 H2614 0.950 . S
C2635 C2634 1.373 . S
C2635 C2651 1.377 . S
C2636 C2634 1.389 . S
C2636 C2637 1.524 . S
C2636 C2650 1.377 . S
C2637 C2636 1.524 . S
C2637 C2638 1.397 . S
C2637 C2642 1.363 . S
C2638 H2615 0.950 . S
C2638 C2637 1.397 . S
C2638 C2639 1.334 . S
C2639 H2616 0.950 . S
C2639 C2638 1.334 . S
C2639 C2640 1.287 . S
C2640 C2639 1.287 . S
C2640 C2641 1.524 . S
C2640 H2659 0.913 . S
C2641 H2617 0.950 . S
C2641 C2640 1.524 . S
C2641 C2642 1.415 . S
C2642 H2618 0.950 . S
C2642 C2637 1.363 . S
C2642 C2641 1.415 . S
C2643 H2619 0.951 . S
C2643 C2644 1.366 . S
C2643 C2645 1.388 . S
C2644 C2643 1.366 . S
C2644 C2648 1.385 . S
C2645 H2620 0.951 . S
C2645 C2643 1.388 . S
C2645 C2646 1.366 . S
C2646 C2645 1.366 . S
C2646 C2647 1.414 . S
C2646 C2649 1.499 . S
C2647 H2621 0.950 . S
C2647 C2646 1.414 . S
C2647 C2648 1.374 . S
C2648 H2622 0.950 . S
C2648 C2644 1.385 . S
C2648 C2647 1.374 . S
C2649 C2646 1.499 . S
C2649 C2650 1.373 . S
C2649 C2651 1.389 . S
C2650 H2623 0.950 . S
C2650 C2636 1.377 . S
C2650 C2649 1.373 . S
C2651 C2635 1.377 . S
C2651 C2649 1.389 . S
C2651 C2652 1.524 . S
C2652 C2651 1.524 . S
C2652 C2653 1.397 . S
C2652 C2657 1.363 . S
C2653 H2624 0.950 . S
C2653 C2652 1.397 . S
C2653 C2654 1.334 . S
C2654 H2625 0.950 . S
C2654 C2653 1.334 . S
C2654 C2655 1.287 . S
C2655 C2654 1.287 . S
C2655 C2656 1.524 . S
C2655 H2658 0.999 . S
C2656 H2626 0.950 . S
C2656 C2655 1.524 . S
C2656 C2657 1.415 . S
C2657 H2627 0.950 . S
C2657 C2652 1.363 . S
C2657 C2656 1.415 . S
H2658 C2655 0.999 . S
H2659 C2640 0.913 . S
H2660 C2678 0.951 . S
H2661 C2680 0.951 . S
H2662 C2682 0.950 . S
H2663 C2683 0.950 . S
H2664 C2685 0.950 . S
H2665 C2688 0.950 . S
H2666 C2689 0.950 . S
H2667 C2691 0.950 . S
H2668 C2692 0.950 . S
H2669 C2693 0.951 . S
H2670 C2695 0.951 . S
H2671 C2697 0.950 . S
H2672 C2698 0.950 . S
H2673 C2700 0.950 1_554 S
H2674 C2703 0.950 . S
H2675 C2704 0.950 . S
H2676 C2706 0.950 . S
H2677 C2707 0.950 1_556 S
C2678 H2660 0.951 . S
C2678 C2679 1.366 . S
C2678 C2680 1.388 . S
C2679 C2678 1.366 . S
C2679 C2683 1.385 . S
C2680 H2661 0.951 . S
C2680 C2678 1.388 . S
C2680 C2681 1.366 . S
C2681 C2680 1.366 . S
C2681 C2682 1.414 . S
C2681 C2684 1.499 . S
C2682 H2662 0.950 . S
C2682 C2681 1.414 . S
C2682 C2683 1.374 . S
C2683 H2663 0.950 . S
C2683 C2679 1.385 . S
C2683 C2682 1.374 . S
C2684 C2681 1.499 . S
C2684 C2685 1.373 . S
C2684 C2686 1.389 . S
C2685 H2664 0.950 . S
C2685 C2684 1.373 . S
C2685 C2701 1.377 . S
C2686 C2684 1.389 . S
C2686 C2687 1.524 . S
C2686 C2700 1.377 . S
C2687 C2686 1.524 . S
C2687 C2688 1.397 . S
C2687 C2692 1.363 . S
C2688 H2665 0.950 . S
C2688 C2687 1.397 . S
C2688 C2689 1.334 . S
C2689 H2666 0.950 . S
C2689 C2688 1.334 . S
C2689 C2690 1.287 . S
C2690 C2689 1.287 . S
C2690 C2691 1.524 . S
C2690 H2709 0.913 . S
C2691 H2667 0.950 . S
C2691 C2690 1.524 . S
C2691 C2692 1.415 . S
C2692 H2668 0.950 . S
C2692 C2687 1.363 . S
C2692 C2691 1.415 . S
C2693 H2669 0.951 . S
C2693 C2694 1.366 . S
C2693 C2695 1.388 . S
C2694 C2693 1.366 . S
C2694 C2698 1.385 . S
C2695 H2670 0.951 . S
C2695 C2693 1.388 . S
C2695 C2696 1.366 . S
C2696 C2695 1.366 . S
C2696 C2697 1.414 . S
C2696 C2699 1.499 . S
C2697 H2671 0.950 . S
C2697 C2696 1.414 . S
C2697 C2698 1.374 . S
C2698 H2672 0.950 . S
C2698 C2694 1.385 . S
C2698 C2697 1.374 . S
C2699 C2696 1.499 . S
C2699 C2700 1.373 1_554 S
C2699 C2701 1.389 1_554 S
C2700 H2673 0.950 1_556 S
C2700 C2686 1.377 . S
C2700 C2699 1.373 1_556 S
C2701 C2685 1.377 . S
C2701 C2699 1.389 1_556 S
C2701 C2702 1.524 1_556 S
C2702 C2701 1.524 1_554 S
C2702 C2703 1.397 . S
C2702 C2707 1.363 . S
C2703 H2674 0.950 . S
C2703 C2702 1.397 . S
C2703 C2704 1.334 . S
C2704 H2675 0.950 . S
C2704 C2703 1.334 . S
C2704 C2705 1.287 . S
C2705 C2704 1.287 . S
C2705 C2706 1.524 . S
C2705 H2708 0.999 . S
C2706 H2676 0.950 . S
C2706 C2705 1.524 . S
C2706 C2707 1.415 . S
C2707 H2677 0.950 1_554 S
C2707 C2702 1.363 . S
C2707 C2706 1.415 . S
H2708 C2705 0.999 . S
H2709 C2690 0.913 . S
H2710 C2728 0.951 . S
H2711 C2730 0.951 . S
H2712 C2732 0.950 . S
H2713 C2733 0.950 . S
H2714 C2735 0.950 . S
H2715 C2738 0.950 . S
H2716 C2739 0.950 . S
H2717 C2741 0.950 . S
H2718 C2742 0.950 . S
H2719 C2743 0.951 . S
H2720 C2745 0.951 . S
H2721 C2747 0.950 . S
H2722 C2748 0.950 . S
H2723 C2750 0.950 . S
H2724 C2753 0.950 . S
H2725 C2754 0.950 . S
H2726 C2756 0.950 . S
H2727 C2757 0.950 . S
C2728 H2710 0.951 . S
C2728 C2729 1.366 . S
C2728 C2730 1.388 . S
C2729 C2728 1.366 . S
C2729 C2733 1.385 . S
C2730 H2711 0.951 . S
C2730 C2728 1.388 . S
C2730 C2731 1.366 . S
C2731 C2730 1.366 . S
C2731 C2732 1.414 . S
C2731 C2734 1.499 . S
C2732 H2712 0.950 . S
C2732 C2731 1.414 . S
C2732 C2733 1.374 . S
C2733 H2713 0.950 . S
C2733 C2729 1.385 . S
C2733 C2732 1.374 . S
C2734 C2731 1.499 . S
C2734 C2735 1.373 . S
C2734 C2736 1.389 . S
C2735 H2714 0.950 . S
C2735 C2734 1.373 . S
C2735 C2751 1.377 . S
C2736 C2734 1.389 . S
C2736 C2737 1.524 . S
C2736 C2750 1.377 . S
C2737 C2736 1.524 . S
C2737 C2738 1.397 . S
C2737 C2742 1.363 . S
C2738 H2715 0.950 . S
C2738 C2737 1.397 . S
C2738 C2739 1.334 . S
C2739 H2716 0.950 . S
C2739 C2738 1.334 . S
C2739 C2740 1.287 . S
C2740 C2739 1.287 . S
C2740 C2741 1.524 . S
C2740 H2759 0.913 . S
C2741 H2717 0.950 . S
C2741 C2740 1.524 . S
C2741 C2742 1.415 . S
C2742 H2718 0.950 . S
C2742 C2737 1.363 . S
C2742 C2741 1.415 . S
C2743 H2719 0.951 . S
C2743 C2744 1.366 . S
C2743 C2745 1.388 . S
C2744 C2743 1.366 . S
C2744 C2748 1.385 . S
C2745 H2720 0.951 . S
C2745 C2743 1.388 . S
C2745 C2746 1.366 . S
C2746 C2745 1.366 . S
C2746 C2747 1.414 . S
C2746 C2749 1.499 . S
C2747 H2721 0.950 . S
C2747 C2746 1.414 . S
C2747 C2748 1.374 . S
C2748 H2722 0.950 . S
C2748 C2744 1.385 . S
C2748 C2747 1.374 . S
C2749 C2746 1.499 . S
C2749 C2750 1.373 . S
C2749 C2751 1.389 . S
C2750 H2723 0.950 . S
C2750 C2736 1.377 . S
C2750 C2749 1.373 . S
C2751 C2735 1.377 . S
C2751 C2749 1.389 . S
C2751 C2752 1.524 . S
C2752 C2751 1.524 . S
C2752 C2753 1.397 . S
C2752 C2757 1.363 . S
C2753 H2724 0.950 . S
C2753 C2752 1.397 . S
C2753 C2754 1.334 . S
C2754 H2725 0.950 . S
C2754 C2753 1.334 . S
C2754 C2755 1.287 . S
C2755 C2754 1.287 . S
C2755 C2756 1.524 . S
C2755 H2758 0.999 . S
C2756 H2726 0.950 . S
C2756 C2755 1.524 . S
C2756 C2757 1.415 . S
C2757 H2727 0.950 . S
C2757 C2752 1.363 . S
C2757 C2756 1.415 . S
H2758 C2755 0.999 . S
H2759 C2740 0.913 . S
H2760 C2778 0.951 . S
H2761 C2780 0.951 . S
H2762 C2782 0.950 . S
H2763 C2783 0.950 . S
H2764 C2785 0.950 . S
H2765 C2788 0.950 . S
H2766 C2789 0.950 . S
H2767 C2791 0.950 . S
H2768 C2792 0.950 . S
H2769 C2793 0.951 . S
H2770 C2795 0.951 . S
H2771 C2797 0.950 . S
H2772 C2798 0.950 . S
H2773 C2800 0.950 . S
H2774 C2803 0.950 . S
H2775 C2804 0.950 . S
H2776 C2806 0.950 . S
H2777 C2807 0.950 . S
C2778 H2760 0.951 . S
C2778 C2779 1.366 . S
C2778 C2780 1.388 . S
C2779 C2778 1.366 . S
C2779 C2783 1.385 . S
C2780 H2761 0.951 . S
C2780 C2778 1.388 . S
C2780 C2781 1.366 . S
C2781 C2780 1.366 . S
C2781 C2782 1.414 . S
C2781 C2784 1.499 . S
C2782 H2762 0.950 . S
C2782 C2781 1.414 . S
C2782 C2783 1.374 . S
C2783 H2763 0.950 . S
C2783 C2779 1.385 . S
C2783 C2782 1.374 . S
C2784 C2781 1.499 . S
C2784 C2785 1.373 . S
C2784 C2786 1.389 . S
C2785 H2764 0.950 . S
C2785 C2784 1.373 . S
C2785 C2801 1.377 . S
C2786 C2784 1.389 . S
C2786 C2787 1.524 . S
C2786 C2800 1.377 . S
C2787 C2786 1.524 . S
C2787 C2788 1.397 . S
C2787 C2792 1.363 . S
C2788 H2765 0.950 . S
C2788 C2787 1.397 . S
C2788 C2789 1.334 . S
C2789 H2766 0.950 . S
C2789 C2788 1.334 . S
C2789 C2790 1.287 . S
C2790 C2789 1.287 . S
C2790 C2791 1.524 . S
C2790 H2809 0.913 . S
C2791 H2767 0.950 . S
C2791 C2790 1.524 . S
C2791 C2792 1.415 . S
C2792 H2768 0.950 . S
C2792 C2787 1.363 . S
C2792 C2791 1.415 . S
C2793 H2769 0.951 . S
C2793 C2794 1.366 . S
C2793 C2795 1.388 . S
C2794 C2793 1.366 . S
C2794 C2798 1.385 . S
C2795 H2770 0.951 . S
C2795 C2793 1.388 . S
C2795 C2796 1.366 . S
C2796 C2795 1.366 . S
C2796 C2797 1.414 . S
C2796 C2799 1.499 . S
C2797 H2771 0.950 . S
C2797 C2796 1.414 . S
C2797 C2798 1.374 . S
C2798 H2772 0.950 . S
C2798 C2794 1.385 . S
C2798 C2797 1.374 . S
C2799 C2796 1.499 . S
C2799 C2800 1.373 . S
C2799 C2801 1.389 . S
C2800 H2773 0.950 . S
C2800 C2786 1.377 . S
C2800 C2799 1.373 . S
C2801 C2785 1.377 . S
C2801 C2799 1.389 . S
C2801 C2802 1.524 . S
C2802 C2801 1.524 . S
C2802 C2803 1.397 . S
C2802 C2807 1.363 . S
C2803 H2774 0.950 . S
C2803 C2802 1.397 . S
C2803 C2804 1.334 . S
C2804 H2775 0.950 . S
C2804 C2803 1.334 . S
C2804 C2805 1.287 . S
C2805 C2804 1.287 . S
C2805 C2806 1.524 . S
C2805 H2808 0.999 . S
C2806 H2776 0.950 . S
C2806 C2805 1.524 . S
C2806 C2807 1.415 . S
C2807 H2777 0.950 . S
C2807 C2802 1.363 . S
C2807 C2806 1.415 . S
H2808 C2805 0.999 . S
H2809 C2790 0.913 . S
H2810 C2828 0.951 . S
H2811 C2830 0.951 . S
H2812 C2832 0.950 . S
H2813 C2833 0.950 . S
H2814 C2835 0.950 . S
H2815 C2838 0.950 . S
H2816 C2839 0.950 . S
H2817 C2841 0.950 . S
H2818 C2842 0.950 . S
H2819 C2843 0.951 . S
H2820 C2845 0.951 . S
H2821 C2847 0.950 . S
H2822 C2848 0.950 . S
H2823 C2850 0.950 . S
H2824 C2853 0.950 . S
H2825 C2854 0.950 . S
H2826 C2856 0.950 . S
H2827 C2857 0.950 . S
C2828 H2810 0.951 . S
C2828 C2829 1.366 . S
C2828 C2830 1.388 . S
C2829 C2828 1.366 . S
C2829 C2833 1.385 . S
C2830 H2811 0.951 . S
C2830 C2828 1.388 . S
C2830 C2831 1.366 . S
C2831 C2830 1.366 . S
C2831 C2832 1.414 . S
C2831 C2834 1.499 . S
C2832 H2812 0.950 . S
C2832 C2831 1.414 . S
C2832 C2833 1.374 . S
C2833 H2813 0.950 . S
C2833 C2829 1.385 . S
C2833 C2832 1.374 . S
C2834 C2831 1.499 . S
C2834 C2835 1.373 . S
C2834 C2836 1.389 . S
C2835 H2814 0.950 . S
C2835 C2834 1.373 . S
C2835 C2851 1.377 . S
C2836 C2834 1.389 . S
C2836 C2837 1.524 . S
C2836 C2850 1.377 . S
C2837 C2836 1.524 . S
C2837 C2838 1.397 . S
C2837 C2842 1.363 . S
C2838 H2815 0.950 . S
C2838 C2837 1.397 . S
C2838 C2839 1.334 . S
C2839 H2816 0.950 . S
C2839 C2838 1.334 . S
C2839 C2840 1.287 . S
C2840 C2839 1.287 . S
C2840 C2841 1.524 . S
C2840 H2859 0.913 . S
C2841 H2817 0.950 . S
C2841 C2840 1.524 . S
C2841 C2842 1.415 . S
C2842 H2818 0.950 . S
C2842 C2837 1.363 . S
C2842 C2841 1.415 . S
C2843 H2819 0.951 . S
C2843 C2844 1.366 . S
C2843 C2845 1.388 . S
C2844 C2843 1.366 . S
C2844 C2848 1.385 . S
C2845 H2820 0.951 . S
C2845 C2843 1.388 . S
C2845 C2846 1.366 . S
C2846 C2845 1.366 . S
C2846 C2847 1.414 . S
C2846 C2849 1.499 . S
C2847 H2821 0.950 . S
C2847 C2846 1.414 . S
C2847 C2848 1.374 . S
C2848 H2822 0.950 . S
C2848 C2844 1.385 . S
C2848 C2847 1.374 . S
C2849 C2846 1.499 . S
C2849 C2850 1.373 . S
C2849 C2851 1.389 . S
C2850 H2823 0.950 . S
C2850 C2836 1.377 . S
C2850 C2849 1.373 . S
C2851 C2835 1.377 . S
C2851 C2849 1.389 . S
C2851 C2852 1.524 . S
C2852 C2851 1.524 . S
C2852 C2853 1.397 . S
C2852 C2857 1.363 . S
C2853 H2824 0.950 . S
C2853 C2852 1.397 . S
C2853 C2854 1.334 . S
C2854 H2825 0.950 . S
C2854 C2853 1.334 . S
C2854 C2855 1.287 . S
C2855 C2854 1.287 . S
C2855 C2856 1.524 . S
C2855 H2858 0.999 . S
C2856 H2826 0.950 . S
C2856 C2855 1.524 . S
C2856 C2857 1.415 . S
C2857 H2827 0.950 . S
C2857 C2852 1.363 . S
C2857 C2856 1.415 . S
H2858 C2855 0.999 . S
H2859 C2840 0.913 . S
H2860 C2878 0.951 . S
H2861 C2880 0.951 . S
H2862 C2882 0.950 . S
H2863 C2883 0.950 . S
H2864 C2885 0.950 . S
H2865 C2888 0.950 . S
H2866 C2889 0.950 . S
H2867 C2891 0.950 . S
H2868 C2892 0.950 . S
H2869 C2893 0.951 . S
H2870 C2895 0.951 . S
H2871 C2897 0.950 . S
H2872 C2898 0.950 . S
H2873 C2900 0.950 . S
H2874 C2903 0.950 . S
H2875 C2904 0.950 . S
H2876 C2906 0.950 . S
H2877 C2907 0.950 . S
C2878 H2860 0.951 . S
C2878 C2879 1.366 . S
C2878 C2880 1.388 . S
C2879 C2878 1.366 . S
C2879 C2883 1.385 . S
C2880 H2861 0.951 . S
C2880 C2878 1.388 . S
C2880 C2881 1.366 . S
C2881 C2880 1.366 . S
C2881 C2882 1.414 . S
C2881 C2884 1.499 . S
C2882 H2862 0.950 . S
C2882 C2881 1.414 . S
C2882 C2883 1.374 . S
C2883 H2863 0.950 . S
C2883 C2879 1.385 . S
C2883 C2882 1.374 . S
C2884 C2881 1.499 . S
C2884 C2885 1.373 . S
C2884 C2886 1.389 . S
C2885 H2864 0.950 . S
C2885 C2884 1.373 . S
C2885 C2901 1.377 . S
C2886 C2884 1.389 . S
C2886 C2887 1.524 . S
C2886 C2900 1.377 . S
C2887 C2886 1.524 . S
C2887 C2888 1.397 . S
C2887 C2892 1.363 . S
C2888 H2865 0.950 . S
C2888 C2887 1.397 . S
C2888 C2889 1.334 . S
C2889 H2866 0.950 . S
C2889 C2888 1.334 . S
C2889 C2890 1.287 . S
C2890 C2889 1.287 . S
C2890 C2891 1.524 . S
C2890 H2909 0.913 . S
C2891 H2867 0.950 . S
C2891 C2890 1.524 . S
C2891 C2892 1.415 . S
C2892 H2868 0.950 . S
C2892 C2887 1.363 . S
C2892 C2891 1.415 . S
C2893 H2869 0.951 . S
C2893 C2894 1.366 . S
C2893 C2895 1.388 . S
C2894 C2893 1.366 . S
C2894 C2898 1.385 . S
C2895 H2870 0.951 . S
C2895 C2893 1.388 . S
C2895 C2896 1.366 . S
C2896 C2895 1.366 . S
C2896 C2897 1.414 . S
C2896 C2899 1.499 . S
C2897 H2871 0.950 . S
C2897 C2896 1.414 . S
C2897 C2898 1.374 . S
C2898 H2872 0.950 . S
C2898 C2894 1.385 . S
C2898 C2897 1.374 . S
C2899 C2896 1.499 . S
C2899 C2900 1.373 . S
C2899 C2901 1.389 . S
C2900 H2873 0.950 . S
C2900 C2886 1.377 . S
C2900 C2899 1.373 . S
C2901 C2885 1.377 . S
C2901 C2899 1.389 . S
C2901 C2902 1.524 . S
C2902 C2901 1.524 . S
C2902 C2903 1.397 . S
C2902 C2907 1.363 . S
C2903 H2874 0.950 . S
C2903 C2902 1.397 . S
C2903 C2904 1.334 . S
C2904 H2875 0.950 . S
C2904 C2903 1.334 . S
C2904 C2905 1.287 . S
C2905 C2904 1.287 . S
C2905 C2906 1.524 . S
C2905 H2908 0.999 . S
C2906 H2876 0.950 . S
C2906 C2905 1.524 . S
C2906 C2907 1.415 . S
C2907 H2877 0.950 . S
C2907 C2902 1.363 . S
C2907 C2906 1.415 . S
H2908 C2905 0.999 . S
H2909 C2890 0.913 . S
H2910 C2928 0.951 . S
H2911 C2930 0.951 . S
H2912 C2932 0.950 . S
H2913 C2933 0.950 . S
H2914 C2935 0.950 . S
H2915 C2938 0.950 . S
H2916 C2939 0.950 . S
H2917 C2941 0.950 . S
H2918 C2942 0.928 1_545 S
H2919 C2943 0.951 . S
H2920 C2945 0.951 . S
H2921 C2947 0.950 . S
H2922 C2948 0.950 . S
H2923 C2950 0.950 . S
H2924 C2953 0.950 . S
H2925 C2954 0.950 . S
H2926 C2956 0.950 . S
H2927 C2957 0.950 . S
C2928 H2910 0.951 . S
C2928 C2929 1.366 . S
C2928 C2930 1.388 . S
C2929 C2928 1.366 . S
C2929 C2933 1.385 . S
C2930 H2911 0.951 . S
C2930 C2928 1.388 . S
C2930 C2931 1.366 . S
C2931 C2930 1.366 . S
C2931 C2932 1.414 . S
C2931 C2934 1.499 . S
C2932 H2912 0.950 . S
C2932 C2931 1.414 . S
C2932 C2933 1.374 . S
C2933 H2913 0.950 . S
C2933 C2929 1.385 . S
C2933 C2932 1.374 . S
C2934 C2931 1.499 . S
C2934 C2935 1.373 . S
C2934 C2936 1.389 . S
C2935 H2914 0.950 . S
C2935 C2934 1.373 . S
C2935 C2951 1.377 1_565 S
C2936 C2934 1.389 . S
C2936 C2937 1.524 . S
C2936 C2950 1.377 1_565 S
C2937 C2936 1.524 . S
C2937 C2938 1.397 . S
C2937 C2942 1.363 . S
C2938 H2915 0.950 . S
C2938 C2937 1.397 . S
C2938 C2939 1.334 . S
C2939 H2916 0.950 . S
C2939 C2938 1.334 . S
C2939 C2940 1.287 . S
C2940 C2939 1.287 . S
C2940 C2941 1.524 . S
C2940 H2959 0.913 . S
C2941 H2917 0.950 . S
C2941 C2940 1.524 . S
C2941 C2942 1.415 . S
C2942 H2918 0.928 1_565 S
C2942 C2937 1.363 . S
C2942 C2941 1.415 . S
C2943 H2919 0.951 . S
C2943 C2944 1.366 . S
C2943 C2945 1.388 . S
C2944 C2943 1.366 . S
C2944 C2948 1.385 . S
C2945 H2920 0.951 . S
C2945 C2943 1.388 . S
C2945 C2946 1.366 . S
C2946 C2945 1.366 . S
C2946 C2947 1.414 . S
C2946 C2949 1.499 . S
C2947 H2921 0.950 . S
C2947 C2946 1.414 . S
C2947 C2948 1.374 . S
C2948 H2922 0.950 . S
C2948 C2944 1.385 . S
C2948 C2947 1.374 . S
C2949 C2946 1.499 . S
C2949 C2950 1.373 . S
C2949 C2951 1.389 . S
C2950 H2923 0.950 . S
C2950 C2936 1.377 1_545 S
C2950 C2949 1.373 . S
C2951 C2935 1.377 1_545 S
C2951 C2949 1.389 . S
C2951 C2952 1.524 . S
C2952 C2951 1.524 . S
C2952 C2953 1.397 . S
C2952 C2957 1.363 . S
C2953 H2924 0.950 . S
C2953 C2952 1.397 . S
C2953 C2954 1.334 . S
C2954 H2925 0.950 . S
C2954 C2953 1.334 . S
C2954 C2955 1.287 . S
C2955 C2954 1.287 . S
C2955 C2956 1.524 . S
C2955 H2958 0.999 . S
C2956 H2926 0.950 . S
C2956 C2955 1.524 . S
C2956 C2957 1.415 . S
C2957 H2927 0.950 . S
C2957 C2952 1.363 . S
C2957 C2956 1.415 . S
H2958 C2955 0.999 . S
H2959 C2940 0.913 . S
H2960 C2978 0.987 . S
H2961 C2980 0.952 . S
H2962 C2982 0.950 . S
H2963 C2983 0.950 . S
H2964 C2985 0.950 . S
H2965 C2988 0.950 . S
H2966 C2989 0.950 . S
H2967 C2991 0.950 . S
H2968 C2992 0.950 . S
H2969 C2993 0.951 . S
H2970 C2995 0.951 . S
H2971 C2997 0.950 1_554 S
H2972 C2998 0.950 1_554 S
H2973 C3000 0.965 . S
H2974 C3003 0.950 . S
H2975 C3004 0.950 . S
H2976 C3006 0.950 . S
H2977 C3007 0.950 . S
C2978 H2960 0.987 . S
C2978 C2979 1.333 1_554 S
C2978 C2980 1.387 . S
C2979 C2978 1.333 1_556 S
C2979 C2983 1.385 . S
C2980 H2961 0.952 . S
C2980 C2978 1.387 . S
C2980 C2981 1.365 1_554 S
C2981 C2980 1.365 1_556 S
C2981 C2982 1.414 . S
C2981 C2984 1.499 . S
C2982 H2962 0.950 . S
C2982 C2981 1.414 . S
C2982 C2983 1.374 . S
C2983 H2963 0.950 . S
C2983 C2979 1.385 . S
C2983 C2982 1.374 . S
C2984 C2981 1.499 . S
C2984 C2985 1.373 . S
C2984 C2986 1.389 1_556 S
C2985 H2964 0.950 . S
C2985 C2984 1.373 . S
C2985 C3001 1.377 . S
C2986 C2984 1.389 1_554 S
C2986 C2987 1.524 . S
C2986 C3000 1.378 . S
C2987 C2986 1.524 . S
C2987 C2988 1.397 . S
C2987 C2992 1.363 . S
C2988 H2965 0.950 . S
C2988 C2987 1.397 . S
C2988 C2989 1.334 . S
C2989 H2966 0.950 . S
C2989 C2988 1.334 . S
C2989 C2990 1.287 . S
C2990 C2989 1.287 . S
C2990 C2991 1.524 . S
C2990 H3009 0.913 . S
C2991 H2967 0.950 . S
C2991 C2990 1.524 . S
C2991 C2992 1.415 . S
C2992 H2968 0.950 . S
C2992 C2987 1.363 . S
C2992 C2991 1.415 . S
C2993 H2969 0.951 . S
C2993 C2994 1.366 . S
C2993 C2995 1.388 . S
C2994 C2993 1.366 . S
C2994 C2998 1.385 . S
C2995 H2970 0.951 . S
C2995 C2993 1.388 . S
C2995 C2996 1.366 . S
C2996 C2995 1.366 . S
C2996 C2997 1.414 . S
C2996 C2999 1.499 . S
C2997 H2971 0.950 1_556 S
C2997 C2996 1.414 . S
C2997 C2998 1.374 . S
C2998 H2972 0.950 1_556 S
C2998 C2994 1.385 . S
C2998 C2997 1.374 . S
C2999 C2996 1.499 . S
C2999 C3000 1.358 1_556 S
C2999 C3001 1.389 . S
C3000 H2973 0.965 . S
C3000 C2986 1.378 . S
C3000 C2999 1.358 1_554 S
C3001 C2985 1.377 . S
C3001 C2999 1.389 . S
C3001 C3002 1.524 . S
C3002 C3001 1.524 . S
C3002 C3003 1.397 . S
C3002 C3007 1.363 . S
C3003 H2974 0.950 . S
C3003 C3002 1.397 . S
C3003 C3004 1.334 . S
C3004 H2975 0.950 . S
C3004 C3003 1.334 . S
C3004 C3005 1.287 . S
C3005 C3004 1.287 . S
C3005 C3006 1.524 . S
C3005 H3008 0.999 . S
C3006 H2976 0.950 . S
C3006 C3005 1.524 . S
C3006 C3007 1.415 . S
C3007 H2977 0.950 . S
C3007 C3002 1.363 . S
C3007 C3006 1.415 . S
H3008 C3005 0.999 . S
H3009 C2990 0.913 . S
H3010 C3028 0.951 1_655 S
H3011 C3030 0.951 1_655 S
H3012 C3032 0.950 . S
H3013 C3033 0.950 . S
H3014 C3035 0.950 . S
H3015 C3038 0.950 . S
H3016 C3039 0.950 . S
H3017 C3041 0.950 . S
H3018 C3042 0.950 . S
H3019 C3043 0.951 . S
H3020 C3045 0.951 . S
H3021 C3047 0.932 1_655 S
H3022 C3048 0.950 . S
H3023 C3050 0.950 1_665 S
H3024 C3053 0.950 . S
H3025 C3054 0.950 . S
H3026 C3056 0.950 . S
H3027 C3057 0.950 . S
C3028 H3010 0.951 1_455 S
C3028 C3029 1.366 . S
C3028 C3030 1.388 . S
C3029 C3028 1.366 . S
C3029 C3033 1.385 . S
C3030 H3011 0.951 1_455 S
C3030 C3028 1.388 . S
C3030 C3031 1.366 . S
C3031 C3030 1.366 . S
C3031 C3032 1.414 . S
C3031 C3034 1.499 . S
C3032 H3012 0.950 . S
C3032 C3031 1.414 . S
C3032 C3033 1.374 . S
C3033 H3013 0.950 . S
C3033 C3029 1.385 . S
C3033 C3032 1.374 . S
C3034 C3031 1.499 . S
C3034 C3035 1.373 . S
C3034 C3036 1.403 . S
C3035 H3014 0.950 . S
C3035 C3034 1.373 . S
C3035 C3051 1.377 . S
C3036 C3034 1.403 . S
C3036 C3037 1.510 1_455 S
C3036 C3050 1.377 . S
C3037 C3036 1.510 1_655 S
C3037 C3038 1.397 . S
C3037 C3042 1.363 . S
C3038 H3015 0.950 . S
C3038 C3037 1.397 . S
C3038 C3039 1.334 . S
C3039 H3016 0.950 . S
C3039 C3038 1.334 . S
C3039 C3040 1.287 . S
C3040 C3039 1.287 . S
C3040 C3041 1.524 . S
C3040 H3059 0.913 . S
C3041 H3017 0.950 . S
C3041 C3040 1.524 . S
C3041 C3042 1.415 . S
C3042 H3018 0.950 . S
C3042 C3037 1.363 . S
C3042 C3041 1.415 . S
C3043 H3019 0.951 . S
C3043 C3044 1.366 . S
C3043 C3045 1.388 . S
C3044 C3043 1.366 . S
C3044 C3048 1.385 . S
C3045 H3020 0.951 . S
C3045 C3043 1.388 . S
C3045 C3046 1.366 . S
C3046 C3045 1.366 . S
C3046 C3047 1.414 . S
C3046 C3049 1.499 . S
C3047 H3021 0.932 1_455 S
C3047 C3046 1.414 . S
C3047 C3048 1.374 . S
C3048 H3022 0.950 . S
C3048 C3044 1.385 . S
C3048 C3047 1.374 . S
C3049 C3046 1.499 . S
C3049 C3050 1.373 1_565 S
C3049 C3051 1.389 1_565 S
C3050 H3023 0.950 1_445 S
C3050 C3036 1.377 . S
C3050 C3049 1.373 1_545 S
C3051 C3035 1.377 . S
C3051 C3049 1.389 1_545 S
C3051 C3052 1.524 1_545 S
C3052 C3051 1.524 1_565 S
C3052 C3053 1.397 . S
C3052 C3057 1.363 1_565 S
C3053 H3024 0.950 . S
C3053 C3052 1.397 . S
C3053 C3054 1.334 . S
C3054 H3025 0.950 . S
C3054 C3053 1.334 . S
C3054 C3055 1.287 . S
C3055 C3054 1.287 . S
C3055 C3056 1.524 . S
C3055 H3058 0.999 . S
C3056 H3026 0.950 . S
C3056 C3055 1.524 . S
C3056 C3057 1.415 1_565 S
C3057 H3027 0.950 . S
C3057 C3052 1.363 1_545 S
C3057 C3056 1.415 1_545 S
H3058 C3055 0.999 . S
H3059 C3040 0.913 . S
H3060 C3078 0.951 . S
H3061 C3080 0.951 . S
H3062 C3082 0.950 . S
H3063 C3083 0.950 . S
H3064 C3085 0.950 . S
H3065 C3088 0.950 . S
H3066 C3089 0.950 . S
H3067 C3091 0.950 . S
H3068 C3092 0.950 . S
H3069 C3093 0.951 . S
H3070 C3095 0.951 . S
H3071 C3097 0.950 . S
H3072 C3098 0.950 . S
H3073 C3100 0.950 . S
H3074 C3103 0.950 . S
H3075 C3104 0.950 . S
H3076 C3106 0.950 . S
H3077 C3107 0.950 . S
C3078 H3060 0.951 . S
C3078 C3079 1.366 . S
C3078 C3080 1.388 . S
C3079 C3078 1.366 . S
C3079 C3083 1.385 . S
C3080 H3061 0.951 . S
C3080 C3078 1.388 . S
C3080 C3081 1.366 . S
C3081 C3080 1.366 . S
C3081 C3082 1.414 . S
C3081 C3084 1.499 . S
C3082 H3062 0.950 . S
C3082 C3081 1.414 . S
C3082 C3083 1.374 . S
C3083 H3063 0.950 . S
C3083 C3079 1.385 . S
C3083 C3082 1.374 . S
C3084 C3081 1.499 . S
C3084 C3085 1.373 . S
C3084 C3086 1.389 . S
C3085 H3064 0.950 . S
C3085 C3084 1.373 . S
C3085 C3101 1.377 . S
C3086 C3084 1.389 . S
C3086 C3087 1.524 . S
C3086 C3100 1.377 . S
C3087 C3086 1.524 . S
C3087 C3088 1.397 . S
C3087 C3092 1.363 . S
C3088 H3065 0.950 . S
C3088 C3087 1.397 . S
C3088 C3089 1.334 . S
C3089 H3066 0.950 . S
C3089 C3088 1.334 . S
C3089 C3090 1.287 . S
C3090 C3089 1.287 . S
C3090 C3091 1.524 . S
C3090 H3109 0.913 . S
C3091 H3067 0.950 . S
C3091 C3090 1.524 . S
C3091 C3092 1.415 . S
C3092 H3068 0.950 . S
C3092 C3087 1.363 . S
C3092 C3091 1.415 . S
C3093 H3069 0.951 . S
C3093 C3094 1.366 . S
C3093 C3095 1.388 . S
C3094 C3093 1.366 . S
C3094 C3098 1.385 . S
C3095 H3070 0.951 . S
C3095 C3093 1.388 . S
C3095 C3096 1.366 . S
C3096 C3095 1.366 . S
C3096 C3097 1.414 . S
C3096 C3099 1.499 . S
C3097 H3071 0.950 . S
C3097 C3096 1.414 . S
C3097 C3098 1.374 . S
C3098 H3072 0.950 . S
C3098 C3094 1.385 . S
C3098 C3097 1.374 . S
C3099 C3096 1.499 . S
C3099 C3100 1.373 . S
C3099 C3101 1.389 . S
C3100 H3073 0.950 . S
C3100 C3086 1.377 . S
C3100 C3099 1.373 . S
C3101 C3085 1.377 . S
C3101 C3099 1.389 . S
C3101 C3102 1.524 . S
C3102 C3101 1.524 . S
C3102 C3103 1.397 . S
C3102 C3107 1.363 . S
C3103 H3074 0.950 . S
C3103 C3102 1.397 . S
C3103 C3104 1.334 . S
C3104 H3075 0.950 . S
C3104 C3103 1.334 . S
C3104 C3105 1.287 . S
C3105 C3104 1.287 . S
C3105 C3106 1.524 . S
C3105 H3108 0.999 . S
C3106 H3076 0.950 . S
C3106 C3105 1.524 . S
C3106 C3107 1.415 . S
C3107 H3077 0.950 . S
C3107 C3102 1.363 . S
C3107 C3106 1.415 . S
H3108 C3105 0.999 . S
H3109 C3090 0.913 . S
H3110 C3128 0.951 . S
H3111 C3130 0.951 . S
H3112 C3132 0.950 . S
H3113 C3133 0.950 . S
H3114 C3135 0.950 . S
H3115 C3138 0.950 . S
H3116 C3139 0.950 . S
H3117 C3141 0.950 . S
H3118 C3142 0.950 . S
H3119 C3143 0.951 . S
H3120 C3145 0.951 . S
H3121 C3147 0.950 . S
H3122 C3148 0.950 . S
H3123 C3150 0.950 1_556 S
H3124 C3153 0.950 . S
H3125 C3154 0.950 . S
H3126 C3156 0.950 1_554 S
H3127 C3157 0.950 . S
C3128 H3110 0.951 . S
C3128 C3129 1.366 . S
C3128 C3130 1.388 . S
C3129 C3128 1.366 . S
C3129 C3133 1.385 . S
C3130 H3111 0.951 . S
C3130 C3128 1.388 . S
C3130 C3131 1.366 . S
C3131 C3130 1.366 . S
C3131 C3132 1.414 . S
C3131 C3134 1.499 . S
C3132 H3112 0.950 . S
C3132 C3131 1.414 . S
C3132 C3133 1.374 . S
C3133 H3113 0.950 . S
C3133 C3129 1.385 . S
C3133 C3132 1.374 . S
C3134 C3131 1.499 . S
C3134 C3135 1.373 . S
C3134 C3136 1.389 . S
C3135 H3114 0.950 . S
C3135 C3134 1.373 . S
C3135 C3151 1.377 . S
C3136 C3134 1.389 . S
C3136 C3137 1.524 . S
C3136 C3150 1.377 . S
C3137 C3136 1.524 . S
C3137 C3138 1.397 . S
C3137 C3142 1.363 . S
C3138 H3115 0.950 . S
C3138 C3137 1.397 . S
C3138 C3139 1.334 . S
C3139 H3116 0.950 . S
C3139 C3138 1.334 . S
C3139 C3140 1.287 . S
C3140 C3139 1.287 . S
C3140 C3141 1.524 . S
C3140 H3159 0.913 . S
C3141 H3117 0.950 . S
C3141 C3140 1.524 . S
C3141 C3142 1.415 . S
C3142 H3118 0.950 . S
C3142 C3137 1.363 . S
C3142 C3141 1.415 . S
C3143 H3119 0.951 . S
C3143 C3144 1.366 . S
C3143 C3145 1.388 . S
C3144 C3143 1.366 . S
C3144 C3148 1.385 . S
C3145 H3120 0.951 . S
C3145 C3143 1.388 . S
C3145 C3146 1.366 . S
C3146 C3145 1.366 . S
C3146 C3147 1.414 . S
C3146 C3149 1.499 . S
C3147 H3121 0.950 . S
C3147 C3146 1.414 . S
C3147 C3148 1.374 . S
C3148 H3122 0.950 . S
C3148 C3144 1.385 . S
C3148 C3147 1.374 . S
C3149 C3146 1.499 . S
C3149 C3150 1.373 1_556 S
C3149 C3151 1.389 1_556 S
C3150 H3123 0.950 1_554 S
C3150 C3136 1.377 . S
C3150 C3149 1.373 1_554 S
C3151 C3135 1.377 . S
C3151 C3149 1.389 1_554 S
C3151 C3152 1.524 1_554 S
C3152 C3151 1.524 1_556 S
C3152 C3153 1.397 . S
C3152 C3157 1.363 1_556 S
C3153 H3124 0.950 . S
C3153 C3152 1.397 . S
C3153 C3154 1.334 . S
C3154 H3125 0.950 . S
C3154 C3153 1.334 . S
C3154 C3155 1.287 . S
C3155 C3154 1.287 . S
C3155 C3156 1.524 . S
C3155 H3158 0.999 . S
C3156 H3126 0.950 1_556 S
C3156 C3155 1.524 . S
C3156 C3157 1.415 1_556 S
C3157 H3127 0.950 . S
C3157 C3152 1.363 1_554 S
C3157 C3156 1.415 1_554 S
H3158 C3155 0.999 . S
H3159 C3140 0.913 . S
H3160 C3178 0.951 . S
H3161 C3180 0.951 . S
H3162 C3182 0.950 . S
H3163 C3183 0.950 . S
H3164 C3185 0.950 . S
H3165 C3188 0.950 . S
H3166 C3189 0.950 . S
H3167 C3191 0.950 . S
H3168 C3192 0.950 . S
H3169 C3193 0.951 . S
H3170 C3195 0.951 . S
H3171 C3197 0.950 . S
H3172 C3198 0.950 . S
H3173 C3200 0.950 . S
H3174 C3203 0.950 . S
H3175 C3204 0.950 . S
H3176 C3206 0.950 . S
H3177 C3207 0.950 . S
C3178 H3160 0.951 . S
C3178 C3179 1.366 . S
C3178 C3180 1.388 . S
C3179 C3178 1.366 . S
C3179 C3183 1.385 . S
C3180 H3161 0.951 . S
C3180 C3178 1.388 . S
C3180 C3181 1.366 . S
C3181 C3180 1.366 . S
C3181 C3182 1.414 . S
C3181 C3184 1.499 . S
C3182 H3162 0.950 . S
C3182 C3181 1.414 . S
C3182 C3183 1.374 . S
C3183 H3163 0.950 . S
C3183 C3179 1.385 . S
C3183 C3182 1.374 . S
C3184 C3181 1.499 . S
C3184 C3185 1.373 . S
C3184 C3186 1.389 . S
C3185 H3164 0.950 . S
C3185 C3184 1.373 . S
C3185 C3201 1.377 . S
C3186 C3184 1.389 . S
C3186 C3187 1.524 . S
C3186 C3200 1.377 . S
C3187 C3186 1.524 . S
C3187 C3188 1.397 . S
C3187 C3192 1.363 . S
C3188 H3165 0.950 . S
C3188 C3187 1.397 . S
C3188 C3189 1.334 . S
C3189 H3166 0.950 . S
C3189 C3188 1.334 . S
C3189 C3190 1.287 . S
C3190 C3189 1.287 . S
C3190 C3191 1.524 . S
C3190 H3209 0.913 . S
C3191 H3167 0.950 . S
C3191 C3190 1.524 . S
C3191 C3192 1.415 . S
C3192 H3168 0.950 . S
C3192 C3187 1.363 . S
C3192 C3191 1.415 . S
C3193 H3169 0.951 . S
C3193 C3194 1.366 . S
C3193 C3195 1.388 . S
C3194 C3193 1.366 . S
C3194 C3198 1.385 . S
C3195 H3170 0.951 . S
C3195 C3193 1.388 . S
C3195 C3196 1.366 . S
C3196 C3195 1.366 . S
C3196 C3197 1.414 . S
C3196 C3199 1.499 . S
C3197 H3171 0.950 . S
C3197 C3196 1.414 . S
C3197 C3198 1.374 . S
C3198 H3172 0.950 . S
C3198 C3194 1.385 . S
C3198 C3197 1.374 . S
C3199 C3196 1.499 . S
C3199 C3200 1.373 . S
C3199 C3201 1.389 . S
C3200 H3173 0.950 . S
C3200 C3186 1.377 . S
C3200 C3199 1.373 . S
C3201 C3185 1.377 . S
C3201 C3199 1.389 . S
C3201 C3202 1.524 . S
C3202 C3201 1.524 . S
C3202 C3203 1.397 . S
C3202 C3207 1.363 . S
C3203 H3174 0.950 . S
C3203 C3202 1.397 . S
C3203 C3204 1.334 . S
C3204 H3175 0.950 . S
C3204 C3203 1.334 . S
C3204 C3205 1.287 . S
C3205 C3204 1.287 . S
C3205 C3206 1.524 . S
C3205 H3208 0.999 . S
C3206 H3176 0.950 . S
C3206 C3205 1.524 . S
C3206 C3207 1.415 . S
C3207 H3177 0.950 . S
C3207 C3202 1.363 . S
C3207 C3206 1.415 . S
H3208 C3205 0.999 . S
H3209 C3190 0.913 . S
H3210 C3228 0.951 . S
H3211 C3230 0.951 . S
H3212 C3232 0.950 . S
H3213 C3233 0.950 . S
H3214 C3235 0.950 . S
H3215 C3238 0.950 . S
H3216 C3239 0.950 . S
H3217 C3241 0.950 . S
H3218 C3242 0.950 . S
H3219 C3243 0.951 . S
H3220 C3245 0.951 . S
H3221 C3247 0.950 . S
H3222 C3248 0.950 . S
H3223 C3250 0.950 . S
H3224 C3253 0.950 . S
H3225 C3254 0.950 . S
H3226 C3256 0.950 . S
H3227 C3257 0.950 . S
C3228 H3210 0.951 . S
C3228 C3229 1.366 . S
C3228 C3230 1.388 . S
C3229 C3228 1.366 . S
C3229 C3233 1.385 . S
C3230 H3211 0.951 . S
C3230 C3228 1.388 . S
C3230 C3231 1.366 . S
C3231 C3230 1.366 . S
C3231 C3232 1.414 . S
C3231 C3234 1.499 . S
C3232 H3212 0.950 . S
C3232 C3231 1.414 . S
C3232 C3233 1.374 . S
C3233 H3213 0.950 . S
C3233 C3229 1.385 . S
C3233 C3232 1.374 . S
C3234 C3231 1.499 . S
C3234 C3235 1.373 . S
C3234 C3236 1.389 . S
C3235 H3214 0.950 . S
C3235 C3234 1.373 . S
C3235 C3251 1.377 . S
C3236 C3234 1.389 . S
C3236 C3237 1.524 . S
C3236 C3250 1.377 . S
C3237 C3236 1.524 . S
C3237 C3238 1.397 . S
C3237 C3242 1.363 . S
C3238 H3215 0.950 . S
C3238 C3237 1.397 . S
C3238 C3239 1.334 . S
C3239 H3216 0.950 . S
C3239 C3238 1.334 . S
C3239 C3240 1.287 . S
C3240 C3239 1.287 . S
C3240 C3241 1.524 . S
C3240 H3259 0.913 . S
C3241 H3217 0.950 . S
C3241 C3240 1.524 . S
C3241 C3242 1.415 . S
C3242 H3218 0.950 . S
C3242 C3237 1.363 . S
C3242 C3241 1.415 . S
C3243 H3219 0.951 . S
C3243 C3244 1.366 . S
C3243 C3245 1.388 . S
C3244 C3243 1.366 . S
C3244 C3248 1.385 . S
C3245 H3220 0.951 . S
C3245 C3243 1.388 . S
C3245 C3246 1.366 . S
C3246 C3245 1.366 . S
C3246 C3247 1.414 . S
C3246 C3249 1.499 . S
C3247 H3221 0.950 . S
C3247 C3246 1.414 . S
C3247 C3248 1.374 . S
C3248 H3222 0.950 . S
C3248 C3244 1.385 . S
C3248 C3247 1.374 . S
C3249 C3246 1.499 . S
C3249 C3250 1.373 . S
C3249 C3251 1.389 . S
C3250 H3223 0.950 . S
C3250 C3236 1.377 . S
C3250 C3249 1.373 . S
C3251 C3235 1.377 . S
C3251 C3249 1.389 . S
C3251 C3252 1.524 . S
C3252 C3251 1.524 . S
C3252 C3253 1.397 . S
C3252 C3257 1.363 . S
C3253 H3224 0.950 . S
C3253 C3252 1.397 . S
C3253 C3254 1.334 . S
C3254 H3225 0.950 . S
C3254 C3253 1.334 . S
C3254 C3255 1.287 . S
C3255 C3254 1.287 . S
C3255 C3256 1.524 . S
C3255 H3258 0.999 . S
C3256 H3226 0.950 . S
C3256 C3255 1.524 . S
C3256 C3257 1.415 . S
C3257 H3227 0.950 . S
C3257 C3252 1.363 . S
C3257 C3256 1.415 . S
H3258 C3255 0.999 . S
H3259 C3240 0.913 . S
H3260 C3278 0.951 . S
H3261 C3280 0.951 . S
H3262 C3282 0.950 . S
H3263 C3283 0.950 . S
H3264 C3285 0.950 . S
H3265 C3288 0.950 . S
H3266 C3289 0.950 . S
H3267 C3291 0.950 . S
H3268 C3292 0.950 . S
H3269 C3293 0.951 . S
H3270 C3295 0.951 . S
H3271 C3297 0.950 . S
H3272 C3298 0.950 . S
H3273 C3300 0.950 . S
H3274 C3303 0.950 . S
H3275 C3304 0.950 . S
H3276 C3306 0.950 . S
H3277 C3307 0.950 . S
C3278 H3260 0.951 . S
C3278 C3279 1.366 . S
C3278 C3280 1.388 . S
C3279 C3278 1.366 . S
C3279 C3283 1.385 . S
C3280 H3261 0.951 . S
C3280 C3278 1.388 . S
C3280 C3281 1.366 . S
C3281 C3280 1.366 . S
C3281 C3282 1.414 . S
C3281 C3284 1.499 . S
C3282 H3262 0.950 . S
C3282 C3281 1.414 . S
C3282 C3283 1.374 . S
C3283 H3263 0.950 . S
C3283 C3279 1.385 . S
C3283 C3282 1.374 . S
C3284 C3281 1.499 . S
C3284 C3285 1.373 . S
C3284 C3286 1.389 . S
C3285 H3264 0.950 . S
C3285 C3284 1.373 . S
C3285 C3301 1.377 . S
C3286 C3284 1.389 . S
C3286 C3287 1.524 . S
C3286 C3300 1.377 . S
C3287 C3286 1.524 . S
C3287 C3288 1.397 . S
C3287 C3292 1.363 . S
C3288 H3265 0.950 . S
C3288 C3287 1.397 . S
C3288 C3289 1.334 . S
C3289 H3266 0.950 . S
C3289 C3288 1.334 . S
C3289 C3290 1.287 . S
C3290 C3289 1.287 . S
C3290 C3291 1.524 . S
C3290 H3309 0.913 . S
C3291 H3267 0.950 . S
C3291 C3290 1.524 . S
C3291 C3292 1.415 . S
C3292 H3268 0.950 . S
C3292 C3287 1.363 . S
C3292 C3291 1.415 . S
C3293 H3269 0.951 . S
C3293 C3294 1.366 . S
C3293 C3295 1.388 . S
C3294 C3293 1.366 . S
C3294 C3298 1.385 . S
C3295 H3270 0.951 . S
C3295 C3293 1.388 . S
C3295 C3296 1.366 . S
C3296 C3295 1.366 . S
C3296 C3297 1.414 . S
C3296 C3299 1.499 . S
C3297 H3271 0.950 . S
C3297 C3296 1.414 . S
C3297 C3298 1.374 . S
C3298 H3272 0.950 . S
C3298 C3294 1.385 . S
C3298 C3297 1.374 . S
C3299 C3296 1.499 . S
C3299 C3300 1.373 . S
C3299 C3301 1.389 . S
C3300 H3273 0.950 . S
C3300 C3286 1.377 . S
C3300 C3299 1.373 . S
C3301 C3285 1.377 . S
C3301 C3299 1.389 . S
C3301 C3302 1.524 . S
C3302 C3301 1.524 . S
C3302 C3303 1.397 . S
C3302 C3307 1.363 . S
C3303 H3274 0.950 . S
C3303 C3302 1.397 . S
C3303 C3304 1.334 . S
C3304 H3275 0.950 . S
C3304 C3303 1.334 . S
C3304 C3305 1.287 . S
C3305 C3304 1.287 . S
C3305 C3306 1.524 . S
C3305 H3308 0.999 . S
C3306 H3276 0.950 . S
C3306 C3305 1.524 . S
C3306 C3307 1.415 . S
C3307 H3277 0.950 . S
C3307 C3302 1.363 . S
C3307 C3306 1.415 . S
H3308 C3305 0.999 . S
H3309 C3290 0.913 . S
H3310 C3328 0.951 . S
H3311 C3330 0.951 . S
H3312 C3332 0.950 . S
H3313 C3333 0.950 . S
H3314 C3335 0.950 . S
H3315 C3338 0.950 . S
H3316 C3339 0.950 . S
H3317 C3341 0.950 . S
H3318 C3342 0.950 . S
H3319 C3343 0.951 . S
H3320 C3345 0.951 . S
H3321 C3347 0.950 . S
H3322 C3348 0.950 . S
H3323 C3350 0.950 . S
H3324 C3353 0.950 . S
H3325 C3354 0.950 . S
H3326 C3356 0.950 . S
H3327 C3357 0.950 . S
C3328 H3310 0.951 . S
C3328 C3329 1.366 . S
C3328 C3330 1.388 . S
C3329 C3328 1.366 . S
C3329 C3333 1.385 . S
C3330 H3311 0.951 . S
C3330 C3328 1.388 . S
C3330 C3331 1.366 . S
C3331 C3330 1.366 . S
C3331 C3332 1.414 . S
C3331 C3334 1.499 . S
C3332 H3312 0.950 . S
C3332 C3331 1.414 . S
C3332 C3333 1.374 . S
C3333 H3313 0.950 . S
C3333 C3329 1.385 . S
C3333 C3332 1.374 . S
C3334 C3331 1.499 . S
C3334 C3335 1.373 . S
C3334 C3336 1.389 . S
C3335 H3314 0.950 . S
C3335 C3334 1.373 . S
C3335 C3351 1.377 . S
C3336 C3334 1.389 . S
C3336 C3337 1.524 . S
C3336 C3350 1.377 . S
C3337 C3336 1.524 . S
C3337 C3338 1.397 . S
C3337 C3342 1.363 . S
C3338 H3315 0.950 . S
C3338 C3337 1.397 . S
C3338 C3339 1.334 . S
C3339 H3316 0.950 . S
C3339 C3338 1.334 . S
C3339 C3340 1.287 . S
C3340 C3339 1.287 . S
C3340 C3341 1.524 . S
C3340 H3359 0.913 . S
C3341 H3317 0.950 . S
C3341 C3340 1.524 . S
C3341 C3342 1.415 . S
C3342 H3318 0.950 . S
C3342 C3337 1.363 . S
C3342 C3341 1.415 . S
C3343 H3319 0.951 . S
C3343 C3344 1.366 . S
C3343 C3345 1.388 . S
C3344 C3343 1.366 . S
C3344 C3348 1.385 . S
C3345 H3320 0.951 . S
C3345 C3343 1.388 . S
C3345 C3346 1.366 . S
C3346 C3345 1.366 . S
C3346 C3347 1.414 . S
C3346 C3349 1.499 . S
C3347 H3321 0.950 . S
C3347 C3346 1.414 . S
C3347 C3348 1.374 . S
C3348 H3322 0.950 . S
C3348 C3344 1.385 . S
C3348 C3347 1.374 . S
C3349 C3346 1.499 . S
C3349 C3350 1.373 . S
C3349 C3351 1.389 . S
C3350 H3323 0.950 . S
C3350 C3336 1.377 . S
C3350 C3349 1.373 . S
C3351 C3335 1.377 . S
C3351 C3349 1.389 . S
C3351 C3352 1.524 . S
C3352 C3351 1.524 . S
C3352 C3353 1.397 . S
C3352 C3357 1.363 . S
C3353 H3324 0.950 . S
C3353 C3352 1.397 . S
C3353 C3354 1.334 . S
C3354 H3325 0.950 . S
C3354 C3353 1.334 . S
C3354 C3355 1.287 . S
C3355 C3354 1.287 . S
C3355 C3356 1.524 . S
C3355 H3358 0.999 . S
C3356 H3326 0.950 . S
C3356 C3355 1.524 . S
C3356 C3357 1.415 . S
C3357 H3327 0.950 . S
C3357 C3352 1.363 . S
C3357 C3356 1.415 . S
H3358 C3355 0.999 . S
H3359 C3340 0.913 . S
H3360 C3378 0.951 . S
H3361 C3380 0.951 . S
H3362 C3382 0.950 . S
H3363 C3383 0.950 . S
H3364 C3385 0.950 . S
H3365 C3388 0.950 . S
H3366 C3389 0.950 . S
H3367 C3391 0.950 . S
H3368 C3392 0.950 . S
H3369 C3393 0.951 . S
H3370 C3395 0.951 . S
H3371 C3397 0.950 . S
H3372 C3398 0.950 . S
H3373 C3400 0.950 . S
H3374 C3403 0.950 . S
H3375 C3404 0.950 . S
H3376 C3406 0.950 . S
H3377 C3407 0.950 . S
C3378 H3360 0.951 . S
C3378 C3379 1.366 . S
C3378 C3380 1.388 . S
C3379 C3378 1.366 . S
C3379 C3383 1.385 . S
C3380 H3361 0.951 . S
C3380 C3378 1.388 . S
C3380 C3381 1.366 . S
C3381 C3380 1.366 . S
C3381 C3382 1.414 . S
C3381 C3384 1.499 . S
C3382 H3362 0.950 . S
C3382 C3381 1.414 . S
C3382 C3383 1.374 . S
C3383 H3363 0.950 . S
C3383 C3379 1.385 . S
C3383 C3382 1.374 . S
C3384 C3381 1.499 . S
C3384 C3385 1.373 . S
C3384 C3386 1.389 . S
C3385 H3364 0.950 . S
C3385 C3384 1.373 . S
C3385 C3401 1.377 . S
C3386 C3384 1.389 . S
C3386 C3387 1.524 . S
C3386 C3400 1.377 . S
C3387 C3386 1.524 . S
C3387 C3388 1.397 . S
C3387 C3392 1.363 . S
C3388 H3365 0.950 . S
C3388 C3387 1.397 . S
C3388 C3389 1.334 . S
C3389 H3366 0.950 . S
C3389 C3388 1.334 . S
C3389 C3390 1.287 . S
C3390 C3389 1.287 . S
C3390 C3391 1.524 . S
C3390 H3409 0.913 . S
C3391 H3367 0.950 . S
C3391 C3390 1.524 . S
C3391 C3392 1.415 . S
C3392 H3368 0.950 . S
C3392 C3387 1.363 . S
C3392 C3391 1.415 . S
C3393 H3369 0.951 . S
C3393 C3394 1.366 . S
C3393 C3395 1.388 . S
C3394 C3393 1.366 . S
C3394 C3398 1.385 . S
C3395 H3370 0.951 . S
C3395 C3393 1.388 . S
C3395 C3396 1.366 . S
C3396 C3395 1.366 . S
C3396 C3397 1.414 . S
C3396 C3399 1.499 . S
C3397 H3371 0.950 . S
C3397 C3396 1.414 . S
C3397 C3398 1.374 . S
C3398 H3372 0.950 . S
C3398 C3394 1.385 . S
C3398 C3397 1.374 . S
C3399 C3396 1.499 . S
C3399 C3400 1.373 . S
C3399 C3401 1.389 . S
C3400 H3373 0.950 . S
C3400 C3386 1.377 . S
C3400 C3399 1.373 . S
C3401 C3385 1.377 . S
C3401 C3399 1.389 . S
C3401 C3402 1.524 . S
C3402 C3401 1.524 . S
C3402 C3403 1.397 . S
C3402 C3407 1.363 . S
C3403 H3374 0.950 . S
C3403 C3402 1.397 . S
C3403 C3404 1.334 . S
C3404 H3375 0.950 . S
C3404 C3403 1.334 . S
C3404 C3405 1.287 . S
C3405 C3404 1.287 . S
C3405 C3406 1.524 . S
C3405 H3408 0.999 . S
C3406 H3376 0.950 . S
C3406 C3405 1.524 . S
C3406 C3407 1.415 . S
C3407 H3377 0.950 . S
C3407 C3402 1.363 . S
C3407 C3406 1.415 . S
H3408 C3405 0.999 . S
H3409 C3390 0.913 . S
H3410 C3428 0.951 . S
H3411 C3430 0.951 . S
H3412 C3432 0.950 . S
H3413 C3433 0.950 1_455 S
H3414 C3435 0.950 . S
H3415 C3438 0.950 . S
H3416 C3439 0.950 . S
H3417 C3441 0.950 . S
H3418 C3442 0.950 . S
H3419 C3443 0.951 . S
H3420 C3445 0.951 . S
H3421 C3447 0.950 . S
H3422 C3448 0.950 . S
H3423 C3450 0.950 . S
H3424 C3453 0.950 . S
H3425 C3454 0.950 . S
H3426 C3456 0.950 . S
H3427 C3457 0.950 . S
C3428 H3410 0.951 . S
C3428 C3429 1.366 . S
C3428 C3430 1.388 . S
C3429 C3428 1.366 . S
C3429 C3433 1.385 . S
C3430 H3411 0.951 . S
C3430 C3428 1.388 . S
C3430 C3431 1.366 . S
C3431 C3430 1.366 . S
C3431 C3432 1.414 . S
C3431 C3434 1.499 . S
C3432 H3412 0.950 . S
C3432 C3431 1.414 . S
C3432 C3433 1.374 . S
C3433 H3413 0.950 1_655 S
C3433 C3429 1.385 . S
C3433 C3432 1.374 . S
C3434 C3431 1.499 . S
C3434 C3435 1.373 . S
C3434 C3436 1.389 . S
C3435 H3414 0.950 . S
C3435 C3434 1.373 . S
C3435 C3451 1.377 . S
C3436 C3434 1.389 . S
C3436 C3437 1.524 . S
C3436 C3450 1.377 . S
C3437 C3436 1.524 . S
C3437 C3438 1.397 . S
C3437 C3442 1.363 . S
C3438 H3415 0.950 . S
C3438 C3437 1.397 . S
C3438 C3439 1.334 . S
C3439 H3416 0.950 . S
C3439 C3438 1.334 . S
C3439 C3440 1.287 . S
C3440 C3439 1.287 . S
C3440 C3441 1.524 . S
C3440 H3459 0.913 . S
C3441 H3417 0.950 . S
C3441 C3440 1.524 . S
C3441 C3442 1.415 . S
C3442 H3418 0.950 . S
C3442 C3437 1.363 . S
C3442 C3441 1.415 . S
C3443 H3419 0.951 . S
C3443 C3444 1.366 . S
C3443 C3445 1.388 . S
C3444 C3443 1.366 . S
C3444 C3448 1.385 . S
C3445 H3420 0.951 . S
C3445 C3443 1.388 . S
C3445 C3446 1.366 . S
C3446 C3445 1.366 . S
C3446 C3447 1.414 . S
C3446 C3449 1.499 . S
C3447 H3421 0.950 . S
C3447 C3446 1.414 . S
C3447 C3448 1.374 . S
C3448 H3422 0.950 . S
C3448 C3444 1.385 . S
C3448 C3447 1.374 . S
C3449 C3446 1.499 . S
C3449 C3450 1.373 . S
C3449 C3451 1.389 . S
C3450 H3423 0.950 . S
C3450 C3436 1.377 . S
C3450 C3449 1.373 . S
C3451 C3435 1.377 . S
C3451 C3449 1.389 . S
C3451 C3452 1.524 . S
C3452 C3451 1.524 . S
C3452 C3453 1.397 . S
C3452 C3457 1.363 . S
C3453 H3424 0.950 . S
C3453 C3452 1.397 . S
C3453 C3454 1.334 . S
C3454 H3425 0.950 . S
C3454 C3453 1.334 . S
C3454 C3455 1.287 . S
C3455 C3454 1.287 . S
C3455 C3456 1.524 . S
C3455 H3458 0.999 . S
C3456 H3426 0.950 . S
C3456 C3455 1.524 . S
C3456 C3457 1.415 . S
C3457 H3427 0.950 . S
C3457 C3452 1.363 . S
C3457 C3456 1.415 . S
H3458 C3455 0.999 . S
H3459 C3440 0.913 . S
H3460 C3478 0.951 . S
H3461 C3480 0.951 . S
H3462 C3482 0.950 . S
H3463 C3483 0.950 . S
H3464 C3485 0.950 . S
H3465 C3488 0.950 . S
H3466 C3489 0.950 . S
H3467 C3491 0.950 . S
H3468 C3492 0.950 . S
H3469 C3493 0.951 . S
H3470 C3495 0.951 . S
H3471 C3497 0.950 . S
H3472 C3498 0.950 . S
H3473 C3500 0.950 . S
H3474 C3503 0.950 . S
H3475 C3504 0.950 . S
H3476 C3506 0.950 . S
H3477 C3507 0.950 . S
C3478 H3460 0.951 . S
C3478 C3479 1.366 . S
C3478 C3480 1.388 . S
C3479 C3478 1.366 . S
C3479 C3483 1.385 . S
C3480 H3461 0.951 . S
C3480 C3478 1.388 . S
C3480 C3481 1.366 . S
C3481 C3480 1.366 . S
C3481 C3482 1.414 . S
C3481 C3484 1.499 . S
C3482 H3462 0.950 . S
C3482 C3481 1.414 . S
C3482 C3483 1.374 . S
C3483 H3463 0.950 . S
C3483 C3479 1.385 . S
C3483 C3482 1.374 . S
C3484 C3481 1.499 . S
C3484 C3485 1.373 . S
C3484 C3486 1.389 . S
C3485 H3464 0.950 . S
C3485 C3484 1.373 . S
C3485 C3501 1.377 . S
C3486 C3484 1.389 . S
C3486 C3487 1.524 . S
C3486 C3500 1.377 . S
C3487 C3486 1.524 . S
C3487 C3488 1.397 . S
C3487 C3492 1.363 . S
C3488 H3465 0.950 . S
C3488 C3487 1.397 . S
C3488 C3489 1.334 . S
C3489 H3466 0.950 . S
C3489 C3488 1.334 . S
C3489 C3490 1.287 . S
C3490 C3489 1.287 . S
C3490 C3491 1.524 . S
C3490 H3509 0.913 . S
C3491 H3467 0.950 . S
C3491 C3490 1.524 . S
C3491 C3492 1.415 . S
C3492 H3468 0.950 . S
C3492 C3487 1.363 . S
C3492 C3491 1.415 . S
C3493 H3469 0.951 . S
C3493 C3494 1.366 . S
C3493 C3495 1.388 . S
C3494 C3493 1.366 . S
C3494 C3498 1.385 . S
C3495 H3470 0.951 . S
C3495 C3493 1.388 . S
C3495 C3496 1.366 . S
C3496 C3495 1.366 . S
C3496 C3497 1.414 . S
C3496 C3499 1.499 . S
C3497 H3471 0.950 . S
C3497 C3496 1.414 . S
C3497 C3498 1.374 . S
C3498 H3472 0.950 . S
C3498 C3494 1.385 . S
C3498 C3497 1.374 . S
C3499 C3496 1.499 . S
C3499 C3500 1.373 . S
C3499 C3501 1.389 . S
C3500 H3473 0.950 . S
C3500 C3486 1.377 . S
C3500 C3499 1.373 . S
C3501 C3485 1.377 . S
C3501 C3499 1.389 . S
C3501 C3502 1.524 . S
C3502 C3501 1.524 . S
C3502 C3503 1.397 . S
C3502 C3507 1.363 . S
C3503 H3474 0.950 . S
C3503 C3502 1.397 . S
C3503 C3504 1.334 . S
C3504 H3475 0.950 . S
C3504 C3503 1.334 . S
C3504 C3505 1.287 . S
C3505 C3504 1.287 . S
C3505 C3506 1.524 . S
C3505 H3508 0.999 . S
C3506 H3476 0.950 . S
C3506 C3505 1.524 . S
C3506 C3507 1.415 . S
C3507 H3477 0.950 . S
C3507 C3502 1.363 . S
C3507 C3506 1.415 . S
H3508 C3505 0.999 . S
H3509 C3490 0.913 . S
H3510 C3528 0.951 . S
H3511 C3530 0.951 . S
H3512 C3532 0.950 . S
H3513 C3533 0.950 . S
H3514 C3535 0.950 . S
H3515 C3538 0.950 . S
H3516 C3539 0.950 . S
H3517 C3541 0.950 . S
H3518 C3542 0.950 . S
H3519 C3543 0.951 . S
H3520 C3545 0.951 . S
H3521 C3547 0.950 . S
H3522 C3548 0.950 . S
H3523 C3550 0.950 . S
H3524 C3553 0.950 . S
H3525 C3554 0.950 . S
H3526 C3556 0.950 . S
H3527 C3557 0.950 . S
C3528 H3510 0.951 . S
C3528 C3529 1.366 . S
C3528 C3530 1.388 . S
C3529 C3528 1.366 . S
C3529 C3533 1.385 . S
C3530 H3511 0.951 . S
C3530 C3528 1.388 . S
C3530 C3531 1.366 . S
C3531 C3530 1.366 . S
C3531 C3532 1.414 . S
C3531 C3534 1.499 . S
C3532 H3512 0.950 . S
C3532 C3531 1.414 . S
C3532 C3533 1.374 . S
C3533 H3513 0.950 . S
C3533 C3529 1.385 . S
C3533 C3532 1.374 . S
C3534 C3531 1.499 . S
C3534 C3535 1.373 . S
C3534 C3536 1.389 . S
C3535 H3514 0.950 . S
C3535 C3534 1.373 . S
C3535 C3551 1.377 . S
C3536 C3534 1.389 . S
C3536 C3537 1.524 . S
C3536 C3550 1.377 . S
C3537 C3536 1.524 . S
C3537 C3538 1.397 . S
C3537 C3542 1.363 . S
C3538 H3515 0.950 . S
C3538 C3537 1.397 . S
C3538 C3539 1.334 . S
C3539 H3516 0.950 . S
C3539 C3538 1.334 . S
C3539 C3540 1.287 . S
C3540 C3539 1.287 . S
C3540 C3541 1.524 . S
C3540 H3559 0.913 . S
C3541 H3517 0.950 . S
C3541 C3540 1.524 . S
C3541 C3542 1.415 . S
C3542 H3518 0.950 . S
C3542 C3537 1.363 . S
C3542 C3541 1.415 . S
C3543 H3519 0.951 . S
C3543 C3544 1.366 . S
C3543 C3545 1.388 . S
C3544 C3543 1.366 . S
C3544 C3548 1.385 . S
C3545 H3520 0.951 . S
C3545 C3543 1.388 . S
C3545 C3546 1.366 . S
C3546 C3545 1.366 . S
C3546 C3547 1.414 . S
C3546 C3549 1.499 . S
C3547 H3521 0.950 . S
C3547 C3546 1.414 . S
C3547 C3548 1.374 . S
C3548 H3522 0.950 . S
C3548 C3544 1.385 . S
C3548 C3547 1.374 . S
C3549 C3546 1.499 . S
C3549 C3550 1.373 . S
C3549 C3551 1.389 . S
C3550 H3523 0.950 . S
C3550 C3536 1.377 . S
C3550 C3549 1.373 . S
C3551 C3535 1.377 . S
C3551 C3549 1.389 . S
C3551 C3552 1.524 . S
C3552 C3551 1.524 . S
C3552 C3553 1.397 . S
C3552 C3557 1.363 . S
C3553 H3524 0.950 . S
C3553 C3552 1.397 . S
C3553 C3554 1.334 . S
C3554 H3525 0.950 . S
C3554 C3553 1.334 . S
C3554 C3555 1.287 . S
C3555 C3554 1.287 . S
C3555 C3556 1.524 . S
C3555 H3558 0.999 . S
C3556 H3526 0.950 . S
C3556 C3555 1.524 . S
C3556 C3557 1.415 . S
C3557 H3527 0.950 . S
C3557 C3552 1.363 . S
C3557 C3556 1.415 . S
H3558 C3555 0.999 . S
H3559 C3540 0.913 . S
H3560 C3578 0.951 . S
H3561 C3580 0.951 . S
H3562 C3582 0.950 . S
H3563 C3583 0.950 . S
H3564 C3585 0.950 . S
H3565 C3588 0.950 . S
H3566 C3589 0.950 . S
H3567 C3591 0.950 . S
H3568 C3592 0.950 . S
H3569 C3593 0.951 . S
H3570 C3595 0.951 . S
H3571 C3597 0.950 . S
H3572 C3598 0.950 . S
H3573 C3600 0.950 . S
H3574 C3603 0.950 . S
H3575 C3604 0.950 . S
H3576 C3606 0.950 . S
H3577 C3607 0.950 . S
C3578 H3560 0.951 . S
C3578 C3579 1.366 . S
C3578 C3580 1.388 . S
C3579 C3578 1.366 . S
C3579 C3583 1.385 . S
C3580 H3561 0.951 . S
C3580 C3578 1.388 . S
C3580 C3581 1.366 . S
C3581 C3580 1.366 . S
C3581 C3582 1.414 . S
C3581 C3584 1.499 . S
C3582 H3562 0.950 . S
C3582 C3581 1.414 . S
C3582 C3583 1.374 . S
C3583 H3563 0.950 . S
C3583 C3579 1.385 . S
C3583 C3582 1.374 . S
C3584 C3581 1.499 . S
C3584 C3585 1.373 . S
C3584 C3586 1.389 . S
C3585 H3564 0.950 . S
C3585 C3584 1.373 . S
C3585 C3601 1.377 . S
C3586 C3584 1.389 . S
C3586 C3587 1.524 . S
C3586 C3600 1.377 . S
C3587 C3586 1.524 . S
C3587 C3588 1.397 . S
C3587 C3592 1.363 . S
C3588 H3565 0.950 . S
C3588 C3587 1.397 . S
C3588 C3589 1.334 . S
C3589 H3566 0.950 . S
C3589 C3588 1.334 . S
C3589 C3590 1.287 . S
C3590 C3589 1.287 . S
C3590 C3591 1.524 . S
C3590 H3609 0.913 . S
C3591 H3567 0.950 . S
C3591 C3590 1.524 . S
C3591 C3592 1.415 . S
C3592 H3568 0.950 . S
C3592 C3587 1.363 . S
C3592 C3591 1.415 . S
C3593 H3569 0.951 . S
C3593 C3594 1.366 . S
C3593 C3595 1.388 . S
C3594 C3593 1.366 . S
C3594 C3598 1.385 . S
C3595 H3570 0.951 . S
C3595 C3593 1.388 . S
C3595 C3596 1.366 . S
C3596 C3595 1.366 . S
C3596 C3597 1.414 . S
C3596 C3599 1.499 . S
C3597 H3571 0.950 . S
C3597 C3596 1.414 . S
C3597 C3598 1.374 . S
C3598 H3572 0.950 . S
C3598 C3594 1.385 . S
C3598 C3597 1.374 . S
C3599 C3596 1.499 . S
C3599 C3600 1.373 . S
C3599 C3601 1.389 . S
C3600 H3573 0.950 . S
C3600 C3586 1.377 . S
C3600 C3599 1.373 . S
C3601 C3585 1.377 . S
C3601 C3599 1.389 . S
C3601 C3602 1.524 . S
C3602 C3601 1.524 . S
C3602 C3603 1.397 . S
C3602 C3607 1.363 . S
C3603 H3574 0.950 . S
C3603 C3602 1.397 . S
C3603 C3604 1.334 . S
C3604 H3575 0.950 . S
C3604 C3603 1.334 . S
C3604 C3605 1.287 . S
C3605 C3604 1.287 . S
C3605 C3606 1.524 . S
C3605 H3608 0.999 . S
C3606 H3576 0.950 . S
C3606 C3605 1.524 . S
C3606 C3607 1.415 . S
C3607 H3577 0.950 . S
C3607 C3602 1.363 . S
C3607 C3606 1.415 . S
H3608 C3605 0.999 . S
H3609 C3590 0.913 . S
H3610 C3628 0.951 . S
H3611 C3630 0.951 . S
H3612 C3632 0.950 . S
H3613 C3633 0.950 . S
H3614 C3635 0.950 . S
H3615 C3638 0.950 . S
H3616 C3639 0.950 . S
H3617 C3641 0.950 . S
H3618 C3642 0.950 . S
H3619 C3643 0.951 . S
H3620 C3645 0.951 . S
H3621 C3647 0.950 . S
H3622 C3648 0.950 . S
H3623 C3650 0.950 . S
H3624 C3653 0.950 . S
H3625 C3654 0.950 . S
H3626 C3656 0.950 . S
H3627 C3657 0.950 . S
C3628 H3610 0.951 . S
C3628 C3629 1.366 . S
C3628 C3630 1.388 . S
C3629 C3628 1.366 . S
C3629 C3633 1.385 . S
C3630 H3611 0.951 . S
C3630 C3628 1.388 . S
C3630 C3631 1.366 . S
C3631 C3630 1.366 . S
C3631 C3632 1.414 . S
C3631 C3634 1.499 . S
C3632 H3612 0.950 . S
C3632 C3631 1.414 . S
C3632 C3633 1.374 . S
C3633 H3613 0.950 . S
C3633 C3629 1.385 . S
C3633 C3632 1.374 . S
C3634 C3631 1.499 . S
C3634 C3635 1.373 . S
C3634 C3636 1.389 . S
C3635 H3614 0.950 . S
C3635 C3634 1.373 . S
C3635 C3651 1.377 . S
C3636 C3634 1.389 . S
C3636 C3637 1.524 . S
C3636 C3650 1.377 . S
C3637 C3636 1.524 . S
C3637 C3638 1.397 . S
C3637 C3642 1.363 . S
C3638 H3615 0.950 . S
C3638 C3637 1.397 . S
C3638 C3639 1.334 . S
C3639 H3616 0.950 . S
C3639 C3638 1.334 . S
C3639 C3640 1.287 . S
C3640 C3639 1.287 . S
C3640 C3641 1.524 . S
C3640 H3659 0.913 . S
C3641 H3617 0.950 . S
C3641 C3640 1.524 . S
C3641 C3642 1.415 . S
C3642 H3618 0.950 . S
C3642 C3637 1.363 . S
C3642 C3641 1.415 . S
C3643 H3619 0.951 . S
C3643 C3644 1.366 . S
C3643 C3645 1.388 . S
C3644 C3643 1.366 . S
C3644 C3648 1.385 . S
C3645 H3620 0.951 . S
C3645 C3643 1.388 . S
C3645 C3646 1.366 . S
C3646 C3645 1.366 . S
C3646 C3647 1.414 . S
C3646 C3649 1.499 . S
C3647 H3621 0.950 . S
C3647 C3646 1.414 . S
C3647 C3648 1.374 . S
C3648 H3622 0.950 . S
C3648 C3644 1.385 . S
C3648 C3647 1.374 . S
C3649 C3646 1.499 . S
C3649 C3650 1.373 . S
C3649 C3651 1.389 . S
C3650 H3623 0.950 . S
C3650 C3636 1.377 . S
C3650 C3649 1.373 . S
C3651 C3635 1.377 . S
C3651 C3649 1.389 . S
C3651 C3652 1.524 . S
C3652 C3651 1.524 . S
C3652 C3653 1.397 . S
C3652 C3657 1.363 . S
C3653 H3624 0.950 . S
C3653 C3652 1.397 . S
C3653 C3654 1.334 . S
C3654 H3625 0.950 . S
C3654 C3653 1.334 . S
C3654 C3655 1.287 . S
C3655 C3654 1.287 . S
C3655 C3656 1.524 . S
C3655 H3658 0.999 . S
C3656 H3626 0.950 . S
C3656 C3655 1.524 . S
C3656 C3657 1.415 . S
C3657 H3627 0.950 . S
C3657 C3652 1.363 . S
C3657 C3656 1.415 . S
H3658 C3655 0.999 . S
H3659 C3640 0.913 . S
H3660 C3678 0.951 . S
H3661 C3680 0.951 . S
H3662 C3682 0.950 . S
H3663 C3683 0.950 . S
H3664 C3685 0.950 . S
H3665 C3688 0.950 . S
H3666 C3689 0.950 . S
H3667 C3691 0.950 . S
H3668 C3692 0.950 . S
H3669 C3693 0.951 . S
H3670 C3695 0.951 . S
H3671 C3697 0.950 . S
H3672 C3698 0.950 . S
H3673 C3700 0.950 . S
H3674 C3703 0.950 . S
H3675 C3704 0.950 . S
H3676 C3706 0.950 . S
H3677 C3707 0.950 . S
C3678 H3660 0.951 . S
C3678 C3679 1.366 . S
C3678 C3680 1.388 . S
C3679 C3678 1.366 . S
C3679 C3683 1.385 . S
C3680 H3661 0.951 . S
C3680 C3678 1.388 . S
C3680 C3681 1.366 . S
C3681 C3680 1.366 . S
C3681 C3682 1.414 . S
C3681 C3684 1.499 . S
C3682 H3662 0.950 . S
C3682 C3681 1.414 . S
C3682 C3683 1.374 . S
C3683 H3663 0.950 . S
C3683 C3679 1.385 . S
C3683 C3682 1.374 . S
C3684 C3681 1.499 . S
C3684 C3685 1.373 . S
C3684 C3686 1.389 . S
C3685 H3664 0.950 . S
C3685 C3684 1.373 . S
C3685 C3701 1.377 . S
C3686 C3684 1.389 . S
C3686 C3687 1.524 . S
C3686 C3700 1.377 . S
C3687 C3686 1.524 . S
C3687 C3688 1.397 . S
C3687 C3692 1.363 . S
C3688 H3665 0.950 . S
C3688 C3687 1.397 . S
C3688 C3689 1.334 . S
C3689 H3666 0.950 . S
C3689 C3688 1.334 . S
C3689 C3690 1.287 . S
C3690 C3689 1.287 . S
C3690 C3691 1.524 . S
C3690 H3709 0.913 . S
C3691 H3667 0.950 . S
C3691 C3690 1.524 . S
C3691 C3692 1.415 . S
C3692 H3668 0.950 . S
C3692 C3687 1.363 . S
C3692 C3691 1.415 . S
C3693 H3669 0.951 . S
C3693 C3694 1.366 . S
C3693 C3695 1.388 . S
C3694 C3693 1.366 . S
C3694 C3698 1.385 . S
C3695 H3670 0.951 . S
C3695 C3693 1.388 . S
C3695 C3696 1.366 . S
C3696 C3695 1.366 . S
C3696 C3697 1.414 . S
C3696 C3699 1.499 . S
C3697 H3671 0.950 . S
C3697 C3696 1.414 . S
C3697 C3698 1.374 . S
C3698 H3672 0.950 . S
C3698 C3694 1.385 . S
C3698 C3697 1.374 . S
C3699 C3696 1.499 . S
C3699 C3700 1.373 . S
C3699 C3701 1.389 . S
C3700 H3673 0.950 . S
C3700 C3686 1.377 . S
C3700 C3699 1.373 . S
C3701 C3685 1.377 . S
C3701 C3699 1.389 . S
C3701 C3702 1.524 . S
C3702 C3701 1.524 . S
C3702 C3703 1.397 . S
C3702 C3707 1.363 . S
C3703 H3674 0.950 . S
C3703 C3702 1.397 . S
C3703 C3704 1.334 . S
C3704 H3675 0.950 . S
C3704 C3703 1.334 . S
C3704 C3705 1.287 . S
C3705 C3704 1.287 . S
C3705 C3706 1.524 . S
C3705 H3708 0.999 . S
C3706 H3676 0.950 . S
C3706 C3705 1.524 . S
C3706 C3707 1.415 . S
C3707 H3677 0.950 . S
C3707 C3702 1.363 . S
C3707 C3706 1.415 . S
H3708 C3705 0.999 . S
H3709 C3690 0.913 . S
H3710 C3728 0.951 . S
H3711 C3730 0.951 . S
H3712 C3732 0.950 . S
H3713 C3733 0.950 1_455 S
H3714 C3735 0.950 . S
H3715 C3738 0.950 . S
H3716 C3739 0.950 . S
H3717 C3741 0.950 . S
H3718 C3742 0.950 . S
H3719 C3743 0.951 . S
H3720 C3745 0.951 . S
H3721 C3747 0.950 . S
H3722 C3748 0.950 . S
H3723 C3750 0.950 . S
H3724 C3753 0.950 . S
H3725 C3754 0.950 . S
H3726 C3756 0.950 . S
H3727 C3757 0.950 . S
C3728 H3710 0.951 . S
C3728 C3729 1.366 . S
C3728 C3730 1.388 . S
C3729 C3728 1.366 . S
C3729 C3733 1.385 . S
C3730 H3711 0.951 . S
C3730 C3728 1.388 . S
C3730 C3731 1.366 . S
C3731 C3730 1.366 . S
C3731 C3732 1.414 . S
C3731 C3734 1.499 . S
C3732 H3712 0.950 . S
C3732 C3731 1.414 . S
C3732 C3733 1.374 . S
C3733 H3713 0.950 1_655 S
C3733 C3729 1.385 . S
C3733 C3732 1.374 . S
C3734 C3731 1.499 . S
C3734 C3735 1.373 . S
C3734 C3736 1.389 . S
C3735 H3714 0.950 . S
C3735 C3734 1.373 . S
C3735 C3751 1.377 . S
C3736 C3734 1.389 . S
C3736 C3737 1.524 . S
C3736 C3750 1.377 . S
C3737 C3736 1.524 . S
C3737 C3738 1.397 . S
C3737 C3742 1.363 . S
C3738 H3715 0.950 . S
C3738 C3737 1.397 . S
C3738 C3739 1.334 . S
C3739 H3716 0.950 . S
C3739 C3738 1.334 . S
C3739 C3740 1.287 . S
C3740 C3739 1.287 . S
C3740 C3741 1.524 . S
C3740 H3759 0.913 . S
C3741 H3717 0.950 . S
C3741 C3740 1.524 . S
C3741 C3742 1.415 . S
C3742 H3718 0.950 . S
C3742 C3737 1.363 . S
C3742 C3741 1.415 . S
C3743 H3719 0.951 . S
C3743 C3744 1.366 . S
C3743 C3745 1.388 . S
C3744 C3743 1.366 . S
C3744 C3748 1.385 . S
C3745 H3720 0.951 . S
C3745 C3743 1.388 . S
C3745 C3746 1.366 . S
C3746 C3745 1.366 . S
C3746 C3747 1.414 . S
C3746 C3749 1.499 . S
C3747 H3721 0.950 . S
C3747 C3746 1.414 . S
C3747 C3748 1.374 . S
C3748 H3722 0.950 . S
C3748 C3744 1.385 . S
C3748 C3747 1.374 . S
C3749 C3746 1.499 . S
C3749 C3750 1.373 . S
C3749 C3751 1.389 . S
C3750 H3723 0.950 . S
C3750 C3736 1.377 . S
C3750 C3749 1.373 . S
C3751 C3735 1.377 . S
C3751 C3749 1.389 . S
C3751 C3752 1.524 . S
C3752 C3751 1.524 . S
C3752 C3753 1.397 . S
C3752 C3757 1.363 . S
C3753 H3724 0.950 . S
C3753 C3752 1.397 . S
C3753 C3754 1.334 . S
C3754 H3725 0.950 . S
C3754 C3753 1.334 . S
C3754 C3755 1.287 . S
C3755 C3754 1.287 . S
C3755 C3756 1.524 . S
C3755 H3758 0.999 . S
C3756 H3726 0.950 . S
C3756 C3755 1.524 . S
C3756 C3757 1.415 . S
C3757 H3727 0.950 . S
C3757 C3752 1.363 . S
C3757 C3756 1.415 . S
H3758 C3755 0.999 . S
H3759 C3740 0.913 . S
H3760 C3778 0.951 . S
H3761 C3780 0.951 . S
H3762 C3782 0.950 . S
H3763 C3783 0.950 . S
H3764 C3785 0.950 . S
H3765 C3788 0.950 . S
H3766 C3789 0.950 . S
H3767 C3791 0.950 . S
H3768 C3792 0.950 . S
H3769 C3793 0.951 . S
H3770 C3795 0.951 . S
H3771 C3797 0.950 . S
H3772 C3798 0.950 . S
H3773 C3800 0.950 . S
H3774 C3803 0.950 . S
H3775 C3804 0.950 . S
H3776 C3806 0.950 . S
H3777 C3807 0.950 . S
C3778 H3760 0.951 . S
C3778 C3779 1.366 . S
C3778 C3780 1.388 . S
C3779 C3778 1.366 . S
C3779 C3783 1.385 . S
C3780 H3761 0.951 . S
C3780 C3778 1.388 . S
C3780 C3781 1.366 . S
C3781 C3780 1.366 . S
C3781 C3782 1.414 . S
C3781 C3784 1.499 . S
C3782 H3762 0.950 . S
C3782 C3781 1.414 . S
C3782 C3783 1.374 . S
C3783 H3763 0.950 . S
C3783 C3779 1.385 . S
C3783 C3782 1.374 . S
C3784 C3781 1.499 . S
C3784 C3785 1.373 . S
C3784 C3786 1.389 . S
C3785 H3764 0.950 . S
C3785 C3784 1.373 . S
C3785 C3801 1.377 . S
C3786 C3784 1.389 . S
C3786 C3787 1.524 . S
C3786 C3800 1.377 . S
C3787 C3786 1.524 . S
C3787 C3788 1.397 . S
C3787 C3792 1.363 . S
C3788 H3765 0.950 . S
C3788 C3787 1.397 . S
C3788 C3789 1.334 . S
C3789 H3766 0.950 . S
C3789 C3788 1.334 . S
C3789 C3790 1.287 . S
C3790 C3789 1.287 . S
C3790 C3791 1.524 . S
C3790 H3809 0.913 . S
C3791 H3767 0.950 . S
C3791 C3790 1.524 . S
C3791 C3792 1.415 . S
C3792 H3768 0.950 . S
C3792 C3787 1.363 . S
C3792 C3791 1.415 . S
C3793 H3769 0.951 . S
C3793 C3794 1.366 . S
C3793 C3795 1.388 . S
C3794 C3793 1.366 . S
C3794 C3798 1.385 . S
C3795 H3770 0.951 . S
C3795 C3793 1.388 . S
C3795 C3796 1.366 . S
C3796 C3795 1.366 . S
C3796 C3797 1.414 . S
C3796 C3799 1.499 . S
C3797 H3771 0.950 . S
C3797 C3796 1.414 . S
C3797 C3798 1.374 . S
C3798 H3772 0.950 . S
C3798 C3794 1.385 . S
C3798 C3797 1.374 . S
C3799 C3796 1.499 . S
C3799 C3800 1.373 . S
C3799 C3801 1.389 . S
C3800 H3773 0.950 . S
C3800 C3786 1.377 . S
C3800 C3799 1.373 . S
C3801 C3785 1.377 . S
C3801 C3799 1.389 . S
C3801 C3802 1.524 . S
C3802 C3801 1.524 . S
C3802 C3803 1.397 . S
C3802 C3807 1.363 . S
C3803 H3774 0.950 . S
C3803 C3802 1.397 . S
C3803 C3804 1.334 . S
C3804 H3775 0.950 . S
C3804 C3803 1.334 . S
C3804 C3805 1.287 . S
C3805 C3804 1.287 . S
C3805 C3806 1.524 . S
C3805 H3808 0.999 . S
C3806 H3776 0.950 . S
C3806 C3805 1.524 . S
C3806 C3807 1.415 . S
C3807 H3777 0.950 . S
C3807 C3802 1.363 . S
C3807 C3806 1.415 . S
H3808 C3805 0.999 . S
H3809 C3790 0.913 . S
H3810 C3828 0.951 . S
H3811 C3830 0.951 . S
H3812 C3832 0.950 . S
H3813 C3833 0.950 . S
H3814 C3835 0.950 . S
H3815 C3838 0.950 . S
H3816 C3839 0.950 . S
H3817 C3841 0.950 . S
H3818 C3842 0.950 . S
H3819 C3843 0.951 . S
H3820 C3845 0.951 . S
H3821 C3847 0.950 . S
H3822 C3848 0.950 . S
H3823 C3850 0.950 . S
H3824 C3853 0.950 . S
H3825 C3854 0.950 . S
H3826 C3856 0.950 . S
H3827 C3857 0.950 . S
C3828 H3810 0.951 . S
C3828 C3829 1.366 . S
C3828 C3830 1.388 . S
C3829 C3828 1.366 . S
C3829 C3833 1.385 . S
C3830 H3811 0.951 . S
C3830 C3828 1.388 . S
C3830 C3831 1.366 . S
C3831 C3830 1.366 . S
C3831 C3832 1.414 . S
C3831 C3834 1.499 . S
C3832 H3812 0.950 . S
C3832 C3831 1.414 . S
C3832 C3833 1.374 . S
C3833 H3813 0.950 . S
C3833 C3829 1.385 . S
C3833 C3832 1.374 . S
C3834 C3831 1.499 . S
C3834 C3835 1.373 . S
C3834 C3836 1.389 . S
C3835 H3814 0.950 . S
C3835 C3834 1.373 . S
C3835 C3851 1.377 . S
C3836 C3834 1.389 . S
C3836 C3837 1.524 . S
C3836 C3850 1.377 . S
C3837 C3836 1.524 . S
C3837 C3838 1.397 . S
C3837 C3842 1.363 . S
C3838 H3815 0.950 . S
C3838 C3837 1.397 . S
C3838 C3839 1.334 . S
C3839 H3816 0.950 . S
C3839 C3838 1.334 . S
C3839 C3840 1.287 . S
C3840 C3839 1.287 . S
C3840 C3841 1.524 . S
C3840 H3859 0.913 . S
C3841 H3817 0.950 . S
C3841 C3840 1.524 . S
C3841 C3842 1.415 . S
C3842 H3818 0.950 . S
C3842 C3837 1.363 . S
C3842 C3841 1.415 . S
C3843 H3819 0.951 . S
C3843 C3844 1.366 . S
C3843 C3845 1.388 . S
C3844 C3843 1.366 . S
C3844 C3848 1.385 . S
C3845 H3820 0.951 . S
C3845 C3843 1.388 . S
C3845 C3846 1.366 . S
C3846 C3845 1.366 . S
C3846 C3847 1.414 . S
C3846 C3849 1.499 . S
C3847 H3821 0.950 . S
C3847 C3846 1.414 . S
C3847 C3848 1.374 . S
C3848 H3822 0.950 . S
C3848 C3844 1.385 . S
C3848 C3847 1.374 . S
C3849 C3846 1.499 . S
C3849 C3850 1.373 . S
C3849 C3851 1.389 . S
C3850 H3823 0.950 . S
C3850 C3836 1.377 . S
C3850 C3849 1.373 . S
C3851 C3835 1.377 . S
C3851 C3849 1.389 . S
C3851 C3852 1.524 . S
C3852 C3851 1.524 . S
C3852 C3853 1.397 . S
C3852 C3857 1.363 . S
C3853 H3824 0.950 . S
C3853 C3852 1.397 . S
C3853 C3854 1.334 . S
C3854 H3825 0.950 . S
C3854 C3853 1.334 . S
C3854 C3855 1.287 . S
C3855 C3854 1.287 . S
C3855 C3856 1.524 . S
C3855 H3858 0.999 . S
C3856 H3826 0.950 . S
C3856 C3855 1.524 . S
C3856 C3857 1.415 . S
C3857 H3827 0.950 . S
C3857 C3852 1.363 . S
C3857 C3856 1.415 . S
H3858 C3855 0.999 . S
H3859 C3840 0.913 . S
H3860 C3878 0.951 . S
H3861 C3880 0.951 . S
H3862 C3882 0.950 . S
H3863 C3883 0.950 . S
H3864 C3885 0.950 . S
H3865 C3888 0.950 . S
H3866 C3889 0.950 . S
H3867 C3891 0.950 . S
H3868 C3892 0.950 . S
H3869 C3893 0.951 . S
H3870 C3895 0.951 . S
H3871 C3897 0.950 . S
H3872 C3898 0.950 . S
H3873 C3900 0.950 . S
H3874 C3903 0.950 . S
H3875 C3904 0.950 . S
H3876 C3906 0.950 . S
H3877 C3907 0.950 . S
C3878 H3860 0.951 . S
C3878 C3879 1.366 . S
C3878 C3880 1.388 . S
C3879 C3878 1.366 . S
C3879 C3883 1.385 . S
C3880 H3861 0.951 . S
C3880 C3878 1.388 . S
C3880 C3881 1.366 . S
C3881 C3880 1.366 . S
C3881 C3882 1.414 . S
C3881 C3884 1.499 . S
C3882 H3862 0.950 . S
C3882 C3881 1.414 . S
C3882 C3883 1.374 . S
C3883 H3863 0.950 . S
C3883 C3879 1.385 . S
C3883 C3882 1.374 . S
C3884 C3881 1.499 . S
C3884 C3885 1.373 . S
C3884 C3886 1.389 . S
C3885 H3864 0.950 . S
C3885 C3884 1.373 . S
C3885 C3901 1.377 . S
C3886 C3884 1.389 . S
C3886 C3887 1.524 . S
C3886 C3900 1.377 . S
C3887 C3886 1.524 . S
C3887 C3888 1.397 . S
C3887 C3892 1.363 . S
C3888 H3865 0.950 . S
C3888 C3887 1.397 . S
C3888 C3889 1.334 1_565 S
C3889 H3866 0.950 . S
C3889 C3888 1.334 1_545 S
C3889 C3890 1.287 . S
C3890 C3889 1.287 . S
C3890 C3891 1.524 1_545 S
C3890 H3909 0.913 . S
C3891 H3867 0.950 . S
C3891 C3890 1.524 1_565 S
C3891 C3892 1.415 . S
C3892 H3868 0.950 . S
C3892 C3887 1.363 . S
C3892 C3891 1.415 . S
C3893 H3869 0.951 . S
C3893 C3894 1.366 . S
C3893 C3895 1.388 . S
C3894 C3893 1.366 . S
C3894 C3898 1.385 . S
C3895 H3870 0.951 . S
C3895 C3893 1.388 . S
C3895 C3896 1.366 . S
C3896 C3895 1.366 . S
C3896 C3897 1.414 . S
C3896 C3899 1.499 . S
C3897 H3871 0.950 . S
C3897 C3896 1.414 . S
C3897 C3898 1.374 . S
C3898 H3872 0.950 . S
C3898 C3894 1.385 . S
C3898 C3897 1.374 . S
C3899 C3896 1.499 . S
C3899 C3900 1.373 . S
C3899 C3901 1.389 . S
C3900 H3873 0.950 . S
C3900 C3886 1.377 . S
C3900 C3899 1.373 . S
C3901 C3885 1.377 . S
C3901 C3899 1.389 . S
C3901 C3902 1.524 . S
C3902 C3901 1.524 . S
C3902 C3903 1.397 . S
C3902 C3907 1.363 . S
C3903 H3874 0.950 . S
C3903 C3902 1.397 . S
C3903 C3904 1.334 . S
C3904 H3875 0.950 . S
C3904 C3903 1.334 . S
C3904 C3905 1.287 . S
C3905 C3904 1.287 . S
C3905 C3906 1.524 . S
C3905 H3908 0.999 . S
C3906 H3876 0.950 . S
C3906 C3905 1.524 . S
C3906 C3907 1.415 . S
C3907 H3877 0.950 . S
C3907 C3902 1.363 . S
C3907 C3906 1.415 . S
H3908 C3905 0.999 . S
H3909 C3890 0.913 . S
H3910 C3928 0.951 . S
H3911 C3930 0.951 . S
H3912 C3932 0.950 . S
H3913 C3933 0.950 . S
H3914 C3935 0.950 . S
H3915 C3938 0.950 . S
H3916 C3939 0.950 . S
H3917 C3941 0.950 . S
H3918 C3942 0.950 . S
H3919 C3943 0.951 . S
H3920 C3945 0.951 . S
H3921 C3947 0.950 . S
H3922 C3948 0.950 . S
H3923 C3950 0.950 . S
H3924 C3953 0.950 . S
H3925 C3954 0.950 . S
H3926 C3956 0.950 . S
H3927 C3957 0.950 . S
C3928 H3910 0.951 . S
C3928 C3929 1.366 . S
C3928 C3930 1.388 1_556 S
C3929 C3928 1.366 . S
C3929 C3933 1.385 . S
C3930 H3911 0.951 . S
C3930 C3928 1.388 1_554 S
C3930 C3931 1.366 . S
C3931 C3930 1.366 . S
C3931 C3932 1.414 . S
C3931 C3934 1.499 . S
C3932 H3912 0.950 . S
C3932 C3931 1.414 . S
C3932 C3933 1.374 1_554 S
C3933 H3913 0.950 . S
C3933 C3929 1.385 . S
C3933 C3932 1.374 1_556 S
C3934 C3931 1.499 . S
C3934 C3935 1.373 . S
C3934 C3936 1.389 . S
C3935 H3914 0.950 . S
C3935 C3934 1.373 . S
C3935 C3951 1.377 . S
C3936 C3934 1.389 . S
C3936 C3937 1.524 . S
C3936 C3950 1.377 . S
C3937 C3936 1.524 . S
C3937 C3938 1.397 . S
C3937 C3942 1.363 . S
C3938 H3915 0.950 . S
C3938 C3937 1.397 . S
C3938 C3939 1.334 . S
C3939 H3916 0.950 . S
C3939 C3938 1.334 . S
C3939 C3940 1.287 . S
C3940 C3939 1.287 . S
C3940 C3941 1.524 . S
C3940 H3959 0.913 . S
C3941 H3917 0.950 . S
C3941 C3940 1.524 . S
C3941 C3942 1.415 . S
C3942 H3918 0.950 . S
C3942 C3937 1.363 . S
C3942 C3941 1.415 . S
C3943 H3919 0.951 . S
C3943 C3944 1.366 . S
C3943 C3945 1.388 . S
C3944 C3943 1.366 . S
C3944 C3948 1.385 . S
C3945 H3920 0.951 . S
C3945 C3943 1.388 . S
C3945 C3946 1.366 . S
C3946 C3945 1.366 . S
C3946 C3947 1.414 . S
C3946 C3949 1.499 . S
C3947 H3921 0.950 . S
C3947 C3946 1.414 . S
C3947 C3948 1.374 . S
C3948 H3922 0.950 . S
C3948 C3944 1.385 . S
C3948 C3947 1.374 . S
C3949 C3946 1.499 . S
C3949 C3950 1.373 . S
C3949 C3951 1.389 . S
C3950 H3923 0.950 . S
C3950 C3936 1.377 . S
C3950 C3949 1.373 . S
C3951 C3935 1.377 . S
C3951 C3949 1.389 . S
C3951 C3952 1.524 . S
C3952 C3951 1.524 . S
C3952 C3953 1.397 . S
C3952 C3957 1.363 . S
C3953 H3924 0.950 . S
C3953 C3952 1.397 . S
C3953 C3954 1.334 . S
C3954 H3925 0.950 . S
C3954 C3953 1.334 . S
C3954 C3955 1.287 1_554 S
C3955 C3954 1.287 1_556 S
C3955 C3956 1.524 . S
C3955 H3958 0.999 . S
C3956 H3926 0.950 . S
C3956 C3955 1.524 . S
C3956 C3957 1.415 1_556 S
C3957 H3927 0.950 . S
C3957 C3952 1.363 . S
C3957 C3956 1.415 1_554 S
H3958 C3955 0.999 . S
H3959 C3940 0.913 . S
H3960 C3978 0.951 . S
H3961 C3980 0.951 . S
H3962 C3982 0.950 . S
H3963 C3983 0.950 . S
H3964 C3985 0.950 . S
H3965 C3988 0.950 . S
H3966 C3989 0.950 . S
H3967 C3991 0.950 . S
H3968 C3992 0.950 . S
H3969 C3993 0.951 . S
H3970 C3995 0.951 . S
H3971 C3997 0.950 . S
H3972 C3998 0.950 . S
H3973 C4000 0.950 . S
H3974 C4003 0.950 . S
H3975 C4004 0.950 . S
H3976 C4006 0.950 . S
H3977 C4007 0.950 . S
C3978 H3960 0.951 . S
C3978 C3979 1.366 . S
C3978 C3980 1.388 . S
C3979 C3978 1.366 . S
C3979 C3983 1.385 . S
C3980 H3961 0.951 . S
C3980 C3978 1.388 . S
C3980 C3981 1.366 . S
C3981 C3980 1.366 . S
C3981 C3982 1.414 . S
C3981 C3984 1.499 . S
C3982 H3962 0.950 . S
C3982 C3981 1.414 . S
C3982 C3983 1.374 . S
C3983 H3963 0.950 . S
C3983 C3979 1.385 . S
C3983 C3982 1.374 . S
C3984 C3981 1.499 . S
C3984 C3985 1.373 . S
C3984 C3986 1.389 . S
C3985 H3964 0.950 . S
C3985 C3984 1.373 . S
C3985 C4001 1.377 . S
C3986 C3984 1.389 . S
C3986 C3987 1.524 . S
C3986 C4000 1.377 . S
C3987 C3986 1.524 . S
C3987 C3988 1.397 . S
C3987 C3992 1.363 . S
C3988 H3965 0.950 . S
C3988 C3987 1.397 . S
C3988 C3989 1.334 . S
C3989 H3966 0.950 . S
C3989 C3988 1.334 . S
C3989 C3990 1.287 . S
C3990 C3989 1.287 . S
C3990 C3991 1.524 . S
C3990 H4009 0.913 . S
C3991 H3967 0.950 . S
C3991 C3990 1.524 . S
C3991 C3992 1.415 . S
C3992 H3968 0.950 . S
C3992 C3987 1.363 . S
C3992 C3991 1.415 . S
C3993 H3969 0.951 . S
C3993 C3994 1.366 . S
C3993 C3995 1.388 . S
C3994 C3993 1.366 . S
C3994 C3998 1.385 . S
C3995 H3970 0.951 . S
C3995 C3993 1.388 . S
C3995 C3996 1.366 . S
C3996 C3995 1.366 . S
C3996 C3997 1.414 . S
C3996 C3999 1.499 . S
C3997 H3971 0.950 . S
C3997 C3996 1.414 . S
C3997 C3998 1.374 . S
C3998 H3972 0.950 . S
C3998 C3994 1.385 . S
C3998 C3997 1.374 . S
C3999 C3996 1.499 . S
C3999 C4000 1.373 . S
C3999 C4001 1.389 . S
C4000 H3973 0.950 . S
C4000 C3986 1.377 . S
C4000 C3999 1.373 . S
C4001 C3985 1.377 . S
C4001 C3999 1.389 . S
C4001 C4002 1.524 . S
C4002 C4001 1.524 . S
C4002 C4003 1.397 . S
C4002 C4007 1.363 . S
C4003 H3974 0.950 . S
C4003 C4002 1.397 . S
C4003 C4004 1.334 . S
C4004 H3975 0.950 . S
C4004 C4003 1.334 . S
C4004 C4005 1.287 . S
C4005 C4004 1.287 . S
C4005 C4006 1.524 . S
C4005 H4008 0.999 . S
C4006 H3976 0.950 . S
C4006 C4005 1.524 . S
C4006 C4007 1.415 . S
C4007 H3977 0.950 . S
C4007 C4002 1.363 . S
C4007 C4006 1.415 . S
H4008 C4005 0.999 . S
H4009 C3990 0.913 . S
H4010 C4028 0.951 . S
H4011 C4030 0.951 . S
H4012 C4032 0.950 . S
H4013 C4033 0.950 . S
H4014 C4035 0.950 . S
H4015 C4038 0.950 . S
H4016 C4039 0.950 . S
H4017 C4041 0.950 . S
H4018 C4042 0.950 . S
H4019 C4043 0.951 . S
H4020 C4045 0.951 . S
H4021 C4047 0.950 . S
H4022 C4048 0.950 . S
H4023 C4050 0.950 . S
H4024 C4053 0.950 . S
H4025 C4054 0.950 . S
H4026 C4056 0.950 . S
H4027 C4057 0.950 . S
C4028 H4010 0.951 . S
C4028 C4029 1.366 . S
C4028 C4030 1.388 . S
C4029 C4028 1.366 . S
C4029 C4033 1.385 . S
C4030 H4011 0.951 . S
C4030 C4028 1.388 . S
C4030 C4031 1.366 . S
C4031 C4030 1.366 . S
C4031 C4032 1.414 . S
C4031 C4034 1.499 . S
C4032 H4012 0.950 . S
C4032 C4031 1.414 . S
C4032 C4033 1.374 . S
C4033 H4013 0.950 . S
C4033 C4029 1.385 . S
C4033 C4032 1.374 . S
C4034 C4031 1.499 . S
C4034 C4035 1.373 . S
C4034 C4036 1.389 . S
C4035 H4014 0.950 . S
C4035 C4034 1.373 . S
C4035 C4051 1.377 . S
C4036 C4034 1.389 . S
C4036 C4037 1.524 . S
C4036 C4050 1.377 . S
C4037 C4036 1.524 . S
C4037 C4038 1.397 . S
C4037 C4042 1.363 . S
C4038 H4015 0.950 . S
C4038 C4037 1.397 . S
C4038 C4039 1.334 . S
C4039 H4016 0.950 . S
C4039 C4038 1.334 . S
C4039 C4040 1.287 . S
C4040 C4039 1.287 . S
C4040 C4041 1.524 . S
C4040 H4059 0.913 . S
C4041 H4017 0.950 . S
C4041 C4040 1.524 . S
C4041 C4042 1.415 . S
C4042 H4018 0.950 . S
C4042 C4037 1.363 . S
C4042 C4041 1.415 . S
C4043 H4019 0.951 . S
C4043 C4044 1.366 . S
C4043 C4045 1.388 . S
C4044 C4043 1.366 . S
C4044 C4048 1.385 . S
C4045 H4020 0.951 . S
C4045 C4043 1.388 . S
C4045 C4046 1.366 . S
C4046 C4045 1.366 . S
C4046 C4047 1.414 . S
C4046 C4049 1.499 . S
C4047 H4021 0.950 . S
C4047 C4046 1.414 . S
C4047 C4048 1.374 . S
C4048 H4022 0.950 . S
C4048 C4044 1.385 . S
C4048 C4047 1.374 . S
C4049 C4046 1.499 . S
C4049 C4050 1.373 . S
C4049 C4051 1.389 . S
C4050 H4023 0.950 . S
C4050 C4036 1.377 . S
C4050 C4049 1.373 . S
C4051 C4035 1.377 . S
C4051 C4049 1.389 . S
C4051 C4052 1.524 . S
C4052 C4051 1.524 . S
C4052 C4053 1.397 . S
C4052 C4057 1.363 . S
C4053 H4024 0.950 . S
C4053 C4052 1.397 . S
C4053 C4054 1.334 . S
C4054 H4025 0.950 . S
C4054 C4053 1.334 . S
C4054 C4055 1.287 . S
C4055 C4054 1.287 . S
C4055 C4056 1.524 . S
C4055 H4058 0.999 . S
C4056 H4026 0.950 . S
C4056 C4055 1.524 . S
C4056 C4057 1.415 . S
C4057 H4027 0.950 . S
C4057 C4052 1.363 . S
C4057 C4056 1.415 . S
H4058 C4055 0.999 . S
H4059 C4040 0.913 . S
H4060 C4078 0.951 . S
H4061 C4080 0.951 . S
H4062 C4082 0.950 . S
H4063 C4083 0.950 . S
H4064 C4085 0.950 . S
H4065 C4088 0.950 . S
H4066 C4089 0.950 . S
H4067 C4091 0.950 . S
H4068 C4092 0.950 . S
H4069 C4093 0.951 . S
H4070 C4095 0.951 . S
H4071 C4097 0.950 . S
H4072 C4098 0.950 . S
H4073 C4100 0.950 . S
H4074 C4103 0.950 . S
H4075 C4104 0.950 . S
H4076 C4106 0.950 . S
H4077 C4107 0.950 . S
C4078 H4060 0.951 . S
C4078 C4079 1.366 . S
C4078 C4080 1.388 . S
C4079 C4078 1.366 . S
C4079 C4083 1.385 . S
C4080 H4061 0.951 . S
C4080 C4078 1.388 . S
C4080 C4081 1.366 . S
C4081 C4080 1.366 . S
C4081 C4082 1.414 . S
C4081 C4084 1.499 . S
C4082 H4062 0.950 . S
C4082 C4081 1.414 . S
C4082 C4083 1.374 . S
C4083 H4063 0.950 . S
C4083 C4079 1.385 . S
C4083 C4082 1.374 . S
C4084 C4081 1.499 . S
C4084 C4085 1.373 . S
C4084 C4086 1.389 . S
C4085 H4064 0.950 . S
C4085 C4084 1.373 . S
C4085 C4101 1.377 . S
C4086 C4084 1.389 . S
C4086 C4087 1.524 . S
C4086 C4100 1.377 . S
C4087 C4086 1.524 . S
C4087 C4088 1.397 . S
C4087 C4092 1.363 . S
C4088 H4065 0.950 . S
C4088 C4087 1.397 . S
C4088 C4089 1.334 . S
C4089 H4066 0.950 . S
C4089 C4088 1.334 . S
C4089 C4090 1.287 . S
C4090 C4089 1.287 . S
C4090 C4091 1.524 . S
C4090 H4109 0.913 . S
C4091 H4067 0.950 . S
C4091 C4090 1.524 . S
C4091 C4092 1.415 . S
C4092 H4068 0.950 . S
C4092 C4087 1.363 . S
C4092 C4091 1.415 . S
C4093 H4069 0.951 . S
C4093 C4094 1.366 . S
C4093 C4095 1.388 . S
C4094 C4093 1.366 . S
C4094 C4098 1.385 . S
C4095 H4070 0.951 . S
C4095 C4093 1.388 . S
C4095 C4096 1.366 . S
C4096 C4095 1.366 . S
C4096 C4097 1.414 . S
C4096 C4099 1.499 . S
C4097 H4071 0.950 . S
C4097 C4096 1.414 . S
C4097 C4098 1.374 . S
C4098 H4072 0.950 . S
C4098 C4094 1.385 . S
C4098 C4097 1.374 . S
C4099 C4096 1.499 . S
C4099 C4100 1.373 . S
C4099 C4101 1.389 . S
C4100 H4073 0.950 . S
C4100 C4086 1.377 . S
C4100 C4099 1.373 . S
C4101 C4085 1.377 . S
C4101 C4099 1.389 . S
C4101 C4102 1.524 . S
C4102 C4101 1.524 . S
C4102 C4103 1.397 . S
C4102 C4107 1.363 . S
C4103 H4074 0.950 . S
C4103 C4102 1.397 . S
C4103 C4104 1.334 . S
C4104 H4075 0.950 . S
C4104 C4103 1.334 . S
C4104 C4105 1.287 . S
C4105 C4104 1.287 . S
C4105 C4106 1.524 . S
C4105 H4108 0.999 . S
C4106 H4076 0.950 . S
C4106 C4105 1.524 . S
C4106 C4107 1.415 . S
C4107 H4077 0.950 . S
C4107 C4102 1.363 . S
C4107 C4106 1.415 . S
H4108 C4105 0.999 . S
H4109 C4090 0.913 . S
H4110 C4128 0.951 . S
H4111 C4130 0.951 . S
H4112 C4132 0.950 . S
H4113 C4133 0.950 . S
H4114 C4135 0.950 . S
H4115 C4138 0.950 . S
H4116 C4139 0.944 1_554 S
H4117 C4141 0.950 . S
H4118 C4142 0.950 . S
H4119 C4143 0.951 . S
H4120 C4145 0.951 . S
H4121 C4147 0.950 . S
H4122 C4148 0.950 . S
H4123 C4150 0.950 . S
H4124 C4153 0.950 . S
H4125 C4154 0.950 . S
H4126 C4156 0.950 . S
H4127 C4157 0.950 . S
C4128 H4110 0.951 . S
C4128 C4129 1.366 . S
C4128 C4130 1.388 . S
C4129 C4128 1.366 . S
C4129 C4133 1.385 . S
C4130 H4111 0.951 . S
C4130 C4128 1.388 . S
C4130 C4131 1.366 . S
C4131 C4130 1.366 . S
C4131 C4132 1.414 . S
C4131 C4134 1.499 . S
C4132 H4112 0.950 . S
C4132 C4131 1.414 . S
C4132 C4133 1.374 . S
C4133 H4113 0.950 . S
C4133 C4129 1.385 . S
C4133 C4132 1.374 . S
C4134 C4131 1.499 . S
C4134 C4135 1.373 . S
C4134 C4136 1.389 . S
C4135 H4114 0.950 . S
C4135 C4134 1.373 . S
C4135 C4151 1.377 . S
C4136 C4134 1.389 . S
C4136 C4137 1.524 . S
C4136 C4150 1.377 . S
C4137 C4136 1.524 . S
C4137 C4138 1.397 . S
C4137 C4142 1.363 . S
C4138 H4115 0.950 . S
C4138 C4137 1.397 . S
C4138 C4139 1.342 . S
C4139 H4116 0.944 1_556 S
C4139 C4138 1.342 . S
C4139 C4140 1.285 1_556 S
C4140 C4139 1.285 1_554 S
C4140 C4141 1.524 1_554 S
C4140 H4159 0.913 . S
C4141 H4117 0.950 . S
C4141 C4140 1.524 1_556 S
C4141 C4142 1.415 . S
C4142 H4118 0.950 . S
C4142 C4137 1.363 . S
C4142 C4141 1.415 . S
C4143 H4119 0.951 . S
C4143 C4144 1.366 . S
C4143 C4145 1.388 . S
C4144 C4143 1.366 . S
C4144 C4148 1.385 . S
C4145 H4120 0.951 . S
C4145 C4143 1.388 . S
C4145 C4146 1.366 . S
C4146 C4145 1.366 . S
C4146 C4147 1.414 . S
C4146 C4149 1.499 . S
C4147 H4121 0.950 . S
C4147 C4146 1.414 . S
C4147 C4148 1.374 . S
C4148 H4122 0.950 . S
C4148 C4144 1.385 . S
C4148 C4147 1.374 . S
C4149 C4146 1.499 . S
C4149 C4150 1.373 . S
C4149 C4151 1.389 . S
C4150 H4123 0.950 . S
C4150 C4136 1.377 . S
C4150 C4149 1.373 . S
C4151 C4135 1.377 . S
C4151 C4149 1.389 . S
C4151 C4152 1.524 . S
C4152 C4151 1.524 . S
C4152 C4153 1.397 . S
C4152 C4157 1.363 . S
C4153 H4124 0.950 . S
C4153 C4152 1.397 . S
C4153 C4154 1.334 . S
C4154 H4125 0.950 . S
C4154 C4153 1.334 . S
C4154 C4155 1.287 . S
C4155 C4154 1.287 . S
C4155 C4156 1.524 . S
C4155 H4158 0.999 . S
C4156 H4126 0.950 . S
C4156 C4155 1.524 . S
C4156 C4157 1.415 . S
C4157 H4127 0.950 . S
C4157 C4152 1.363 . S
C4157 C4156 1.415 . S
H4158 C4155 0.999 . S
H4159 C4140 0.913 . S
H4160 C4178 0.951 . S
H4161 C4180 0.951 . S
H4162 C4182 0.950 . S
H4163 C4183 0.950 . S
H4164 C4185 0.950 . S
H4165 C4188 0.950 . S
H4166 C4189 0.950 . S
H4167 C4191 0.950 . S
H4168 C4192 0.950 . S
H4169 C4193 0.951 . S
H4170 C4195 0.951 . S
H4171 C4197 0.950 . S
H4172 C4198 0.950 . S
H4173 C4200 0.950 . S
H4174 C4203 0.950 . S
H4175 C4204 0.950 . S
H4176 C4206 0.950 . S
H4177 C4207 0.950 . S
C4178 H4160 0.951 . S
C4178 C4179 1.366 . S
C4178 C4180 1.388 . S
C4179 C4178 1.366 . S
C4179 C4183 1.385 . S
C4180 H4161 0.951 . S
C4180 C4178 1.388 . S
C4180 C4181 1.366 . S
C4181 C4180 1.366 . S
C4181 C4182 1.414 . S
C4181 C4184 1.499 . S
C4182 H4162 0.950 . S
C4182 C4181 1.414 . S
C4182 C4183 1.374 . S
C4183 H4163 0.950 . S
C4183 C4179 1.385 . S
C4183 C4182 1.374 . S
C4184 C4181 1.499 . S
C4184 C4185 1.373 . S
C4184 C4186 1.389 . S
C4185 H4164 0.950 . S
C4185 C4184 1.373 . S
C4185 C4201 1.377 . S
C4186 C4184 1.389 . S
C4186 C4187 1.524 . S
C4186 C4200 1.377 . S
C4187 C4186 1.524 . S
C4187 C4188 1.397 . S
C4187 C4192 1.363 . S
C4188 H4165 0.950 . S
C4188 C4187 1.397 . S
C4188 C4189 1.334 . S
C4189 H4166 0.950 . S
C4189 C4188 1.334 . S
C4189 C4190 1.287 . S
C4190 C4189 1.287 . S
C4190 C4191 1.524 . S
C4190 H4209 0.913 . S
C4191 H4167 0.950 . S
C4191 C4190 1.524 . S
C4191 C4192 1.415 . S
C4192 H4168 0.950 . S
C4192 C4187 1.363 . S
C4192 C4191 1.415 . S
C4193 H4169 0.951 . S
C4193 C4194 1.366 . S
C4193 C4195 1.388 . S
C4194 C4193 1.366 . S
C4194 C4198 1.385 . S
C4195 H4170 0.951 . S
C4195 C4193 1.388 . S
C4195 C4196 1.366 . S
C4196 C4195 1.366 . S
C4196 C4197 1.414 . S
C4196 C4199 1.499 . S
C4197 H4171 0.950 . S
C4197 C4196 1.414 . S
C4197 C4198 1.374 . S
C4198 H4172 0.950 . S
C4198 C4194 1.385 . S
C4198 C4197 1.374 . S
C4199 C4196 1.499 . S
C4199 C4200 1.373 . S
C4199 C4201 1.389 . S
C4200 H4173 0.950 . S
C4200 C4186 1.377 . S
C4200 C4199 1.373 . S
C4201 C4185 1.377 . S
C4201 C4199 1.389 . S
C4201 C4202 1.524 . S
C4202 C4201 1.524 . S
C4202 C4203 1.397 . S
C4202 C4207 1.363 . S
C4203 H4174 0.950 . S
C4203 C4202 1.397 . S
C4203 C4204 1.334 . S
C4204 H4175 0.950 . S
C4204 C4203 1.334 . S
C4204 C4205 1.287 . S
C4205 C4204 1.287 . S
C4205 C4206 1.524 . S
C4205 H4208 0.999 . S
C4206 H4176 0.950 . S
C4206 C4205 1.524 . S
C4206 C4207 1.415 . S
C4207 H4177 0.950 . S
C4207 C4202 1.363 . S
C4207 C4206 1.415 . S
H4208 C4205 0.999 . S
H4209 C4190 0.913 . S
H4210 C4228 0.951 . S
H4211 C4230 0.951 . S
H4212 C4232 0.950 . S
H4213 C4233 0.950 . S
H4214 C4235 0.950 . S
H4215 C4238 0.950 . S
H4216 C4239 0.950 . S
H4217 C4241 0.950 . S
H4218 C4242 0.950 . S
H4219 C4243 0.951 . S
H4220 C4245 0.951 . S
H4221 C4247 0.950 . S
H4222 C4248 0.950 . S
H4223 C4250 0.950 . S
H4224 C4253 0.950 . S
H4225 C4254 0.950 . S
H4226 C4256 0.950 . S
H4227 C4257 0.950 . S
C4228 H4210 0.951 . S
C4228 C4229 1.366 . S
C4228 C4230 1.388 . S
C4229 C4228 1.366 . S
C4229 C4233 1.385 . S
C4230 H4211 0.951 . S
C4230 C4228 1.388 . S
C4230 C4231 1.366 . S
C4231 C4230 1.366 . S
C4231 C4232 1.414 . S
C4231 C4234 1.499 . S
C4232 H4212 0.950 . S
C4232 C4231 1.414 . S
C4232 C4233 1.374 . S
C4233 H4213 0.950 . S
C4233 C4229 1.385 . S
C4233 C4232 1.374 . S
C4234 C4231 1.499 . S
C4234 C4235 1.373 . S
C4234 C4236 1.389 . S
C4235 H4214 0.950 . S
C4235 C4234 1.373 . S
C4235 C4251 1.377 . S
C4236 C4234 1.389 . S
C4236 C4237 1.524 . S
C4236 C4250 1.377 . S
C4237 C4236 1.524 . S
C4237 C4238 1.397 . S
C4237 C4242 1.363 . S
C4238 H4215 0.950 . S
C4238 C4237 1.397 . S
C4238 C4239 1.334 . S
C4239 H4216 0.950 . S
C4239 C4238 1.334 . S
C4239 C4240 1.287 . S
C4240 C4239 1.287 . S
C4240 C4241 1.524 . S
C4240 H4259 0.913 . S
C4241 H4217 0.950 . S
C4241 C4240 1.524 . S
C4241 C4242 1.415 . S
C4242 H4218 0.950 . S
C4242 C4237 1.363 . S
C4242 C4241 1.415 . S
C4243 H4219 0.951 . S
C4243 C4244 1.366 . S
C4243 C4245 1.388 . S
C4244 C4243 1.366 . S
C4244 C4248 1.385 . S
C4245 H4220 0.951 . S
C4245 C4243 1.388 . S
C4245 C4246 1.366 . S
C4246 C4245 1.366 . S
C4246 C4247 1.414 . S
C4246 C4249 1.499 . S
C4247 H4221 0.950 . S
C4247 C4246 1.414 . S
C4247 C4248 1.374 . S
C4248 H4222 0.950 . S
C4248 C4244 1.385 . S
C4248 C4247 1.374 . S
C4249 C4246 1.499 . S
C4249 C4250 1.373 . S
C4249 C4251 1.389 . S
C4250 H4223 0.950 . S
C4250 C4236 1.377 . S
C4250 C4249 1.373 . S
C4251 C4235 1.377 . S
C4251 C4249 1.389 . S
C4251 C4252 1.524 . S
C4252 C4251 1.524 . S
C4252 C4253 1.397 . S
C4252 C4257 1.363 . S
C4253 H4224 0.950 . S
C4253 C4252 1.397 . S
C4253 C4254 1.334 . S
C4254 H4225 0.950 . S
C4254 C4253 1.334 . S
C4254 C4255 1.287 . S
C4255 C4254 1.287 . S
C4255 C4256 1.524 . S
C4255 H4258 0.999 . S
C4256 H4226 0.950 . S
C4256 C4255 1.524 . S
C4256 C4257 1.415 . S
C4257 H4227 0.950 . S
C4257 C4252 1.363 . S
C4257 C4256 1.415 . S
H4258 C4255 0.999 . S
H4259 C4240 0.913 . S
H4260 C4278 0.951 . S
H4261 C4280 0.951 . S
H4262 C4282 0.950 . S
H4263 C4283 0.950 . S
H4264 C4285 0.950 . S
H4265 C4288 0.950 . S
H4266 C4289 0.950 . S
H4267 C4291 0.950 . S
H4268 C4292 0.950 . S
H4269 C4293 0.951 . S
H4270 C4295 0.951 . S
H4271 C4297 0.950 . S
H4272 C4298 0.950 . S
H4273 C4300 0.950 . S
H4274 C4303 0.950 . S
H4275 C4304 0.950 . S
H4276 C4306 0.950 . S
H4277 C4307 0.950 . S
C4278 H4260 0.951 . S
C4278 C4279 1.366 . S
C4278 C4280 1.388 . S
C4279 C4278 1.366 . S
C4279 C4283 1.385 . S
C4280 H4261 0.951 . S
C4280 C4278 1.388 . S
C4280 C4281 1.366 . S
C4281 C4280 1.366 . S
C4281 C4282 1.414 . S
C4281 C4284 1.499 . S
C4282 H4262 0.950 . S
C4282 C4281 1.414 . S
C4282 C4283 1.374 . S
C4283 H4263 0.950 . S
C4283 C4279 1.385 . S
C4283 C4282 1.374 . S
C4284 C4281 1.499 . S
C4284 C4285 1.373 . S
C4284 C4286 1.389 . S
C4285 H4264 0.950 . S
C4285 C4284 1.373 . S
C4285 C4301 1.377 . S
C4286 C4284 1.389 . S
C4286 C4287 1.524 . S
C4286 C4300 1.377 . S
C4287 C4286 1.524 . S
C4287 C4288 1.397 . S
C4287 C4292 1.363 . S
C4288 H4265 0.950 . S
C4288 C4287 1.397 . S
C4288 C4289 1.334 . S
C4289 H4266 0.950 . S
C4289 C4288 1.334 . S
C4289 C4290 1.287 . S
C4290 C4289 1.287 . S
C4290 C4291 1.524 . S
C4290 H4309 0.913 . S
C4291 H4267 0.950 . S
C4291 C4290 1.524 . S
C4291 C4292 1.415 . S
C4292 H4268 0.950 . S
C4292 C4287 1.363 . S
C4292 C4291 1.415 . S
C4293 H4269 0.951 . S
C4293 C4294 1.366 . S
C4293 C4295 1.388 . S
C4294 C4293 1.366 . S
C4294 C4298 1.385 . S
C4295 H4270 0.951 . S
C4295 C4293 1.388 . S
C4295 C4296 1.366 . S
C4296 C4295 1.366 . S
C4296 C4297 1.414 . S
C4296 C4299 1.499 . S
C4297 H4271 0.950 . S
C4297 C4296 1.414 . S
C4297 C4298 1.374 . S
C4298 H4272 0.950 . S
C4298 C4294 1.385 . S
C4298 C4297 1.374 . S
C4299 C4296 1.499 . S
C4299 C4300 1.373 . S
C4299 C4301 1.389 . S
C4300 H4273 0.950 . S
C4300 C4286 1.377 . S
C4300 C4299 1.373 . S
C4301 C4285 1.377 . S
C4301 C4299 1.389 . S
C4301 C4302 1.524 . S
C4302 C4301 1.524 . S
C4302 C4303 1.397 . S
C4302 C4307 1.363 . S
C4303 H4274 0.950 . S
C4303 C4302 1.397 . S
C4303 C4304 1.334 . S
C4304 H4275 0.950 . S
C4304 C4303 1.334 . S
C4304 C4305 1.287 . S
C4305 C4304 1.287 . S
C4305 C4306 1.524 . S
C4305 H4308 0.999 . S
C4306 H4276 0.950 . S
C4306 C4305 1.524 . S
C4306 C4307 1.415 . S
C4307 H4277 0.950 . S
C4307 C4302 1.363 . S
C4307 C4306 1.415 . S
H4308 C4305 0.999 . S
H4309 C4290 0.913 . S
H4310 C4328 0.951 . S
H4311 C4330 0.951 . S
H4312 C4332 0.950 . S
H4313 C4333 0.950 . S
H4314 C4335 0.950 . S
H4315 C4338 0.950 . S
H4316 C4339 0.950 . S
H4317 C4341 0.950 . S
H4318 C4342 0.950 . S
H4319 C4343 0.951 . S
H4320 C4345 0.951 . S
H4321 C4347 0.950 . S
H4322 C4348 0.950 . S
H4323 C4350 0.950 . S
H4324 C4353 0.950 . S
H4325 C4354 0.950 . S
H4326 C4356 0.950 . S
H4327 C4357 0.950 . S
C4328 H4310 0.951 . S
C4328 C4329 1.366 . S
C4328 C4330 1.388 . S
C4329 C4328 1.366 . S
C4329 C4333 1.385 . S
C4330 H4311 0.951 . S
C4330 C4328 1.388 . S
C4330 C4331 1.366 . S
C4331 C4330 1.366 . S
C4331 C4332 1.414 . S
C4331 C4334 1.499 . S
C4332 H4312 0.950 . S
C4332 C4331 1.414 . S
C4332 C4333 1.374 . S
C4333 H4313 0.950 . S
C4333 C4329 1.385 . S
C4333 C4332 1.374 . S
C4334 C4331 1.499 . S
C4334 C4335 1.373 . S
C4334 C4336 1.389 . S
C4335 H4314 0.950 . S
C4335 C4334 1.373 . S
C4335 C4351 1.377 . S
C4336 C4334 1.389 . S
C4336 C4337 1.524 . S
C4336 C4350 1.377 . S
C4337 C4336 1.524 . S
C4337 C4338 1.397 . S
C4337 C4342 1.363 . S
C4338 H4315 0.950 . S
C4338 C4337 1.397 . S
C4338 C4339 1.334 . S
C4339 H4316 0.950 . S
C4339 C4338 1.334 . S
C4339 C4340 1.287 . S
C4340 C4339 1.287 . S
C4340 C4341 1.524 . S
C4340 H4359 0.913 . S
C4341 H4317 0.950 . S
C4341 C4340 1.524 . S
C4341 C4342 1.415 . S
C4342 H4318 0.950 . S
C4342 C4337 1.363 . S
C4342 C4341 1.415 . S
C4343 H4319 0.951 . S
C4343 C4344 1.366 . S
C4343 C4345 1.388 . S
C4344 C4343 1.366 . S
C4344 C4348 1.385 . S
C4345 H4320 0.951 . S
C4345 C4343 1.388 . S
C4345 C4346 1.366 . S
C4346 C4345 1.366 . S
C4346 C4347 1.414 . S
C4346 C4349 1.499 . S
C4347 H4321 0.950 . S
C4347 C4346 1.414 . S
C4347 C4348 1.374 . S
C4348 H4322 0.950 . S
C4348 C4344 1.385 . S
C4348 C4347 1.374 . S
C4349 C4346 1.499 . S
C4349 C4350 1.373 . S
C4349 C4351 1.389 . S
C4350 H4323 0.950 . S
C4350 C4336 1.377 . S
C4350 C4349 1.373 . S
C4351 C4335 1.377 . S
C4351 C4349 1.389 . S
C4351 C4352 1.524 . S
C4352 C4351 1.524 . S
C4352 C4353 1.397 . S
C4352 C4357 1.363 . S
C4353 H4324 0.950 . S
C4353 C4352 1.397 . S
C4353 C4354 1.334 . S
C4354 H4325 0.950 . S
C4354 C4353 1.334 . S
C4354 C4355 1.287 . S
C4355 C4354 1.287 . S
C4355 C4356 1.524 . S
C4355 H4358 0.999 . S
C4356 H4326 0.950 . S
C4356 C4355 1.524 . S
C4356 C4357 1.415 . S
C4357 H4327 0.950 . S
C4357 C4352 1.363 . S
C4357 C4356 1.415 . S
H4358 C4355 0.999 . S
H4359 C4340 0.913 . S
H4360 C4378 0.951 . S
H4361 C4380 0.951 . S
H4362 C4382 0.950 . S
H4363 C4383 0.950 . S
H4364 C4385 0.950 . S
H4365 C4388 0.950 . S
H4366 C4389 0.950 . S
H4367 C4391 0.950 . S
H4368 C4392 0.950 . S
H4369 C4393 0.951 . S
H4370 C4395 0.951 . S
H4371 C4397 0.950 . S
H4372 C4398 0.950 . S
H4373 C4400 0.950 . S
H4374 C4403 0.950 . S
H4375 C4404 0.950 . S
H4376 C4406 0.950 . S
H4377 C4407 0.950 . S
C4378 H4360 0.951 . S
C4378 C4379 1.366 . S
C4378 C4380 1.388 . S
C4379 C4378 1.366 . S
C4379 C4383 1.385 . S
C4380 H4361 0.951 . S
C4380 C4378 1.388 . S
C4380 C4381 1.366 . S
C4381 C4380 1.366 . S
C4381 C4382 1.414 . S
C4381 C4384 1.499 . S
C4382 H4362 0.950 . S
C4382 C4381 1.414 . S
C4382 C4383 1.374 . S
C4383 H4363 0.950 . S
C4383 C4379 1.385 . S
C4383 C4382 1.374 . S
C4384 C4381 1.499 . S
C4384 C4385 1.373 . S
C4384 C4386 1.389 . S
C4385 H4364 0.950 . S
C4385 C4384 1.373 . S
C4385 C4401 1.377 . S
C4386 C4384 1.389 . S
C4386 C4387 1.524 . S
C4386 C4400 1.377 . S
C4387 C4386 1.524 . S
C4387 C4388 1.397 . S
C4387 C4392 1.363 . S
C4388 H4365 0.950 . S
C4388 C4387 1.397 . S
C4388 C4389 1.334 . S
C4389 H4366 0.950 . S
C4389 C4388 1.334 . S
C4389 C4390 1.287 . S
C4390 C4389 1.287 . S
C4390 C4391 1.524 . S
C4390 H4409 0.913 . S
C4391 H4367 0.950 . S
C4391 C4390 1.524 . S
C4391 C4392 1.415 . S
C4392 H4368 0.950 . S
C4392 C4387 1.363 . S
C4392 C4391 1.415 . S
C4393 H4369 0.951 . S
C4393 C4394 1.366 . S
C4393 C4395 1.388 . S
C4394 C4393 1.366 . S
C4394 C4398 1.385 . S
C4395 H4370 0.951 . S
C4395 C4393 1.388 . S
C4395 C4396 1.366 . S
C4396 C4395 1.366 . S
C4396 C4397 1.414 . S
C4396 C4399 1.499 . S
C4397 H4371 0.950 . S
C4397 C4396 1.414 . S
C4397 C4398 1.374 . S
C4398 H4372 0.950 . S
C4398 C4394 1.385 . S
C4398 C4397 1.374 . S
C4399 C4396 1.499 . S
C4399 C4400 1.373 . S
C4399 C4401 1.389 . S
C4400 H4373 0.950 . S
C4400 C4386 1.377 . S
C4400 C4399 1.373 . S
C4401 C4385 1.377 . S
C4401 C4399 1.389 . S
C4401 C4402 1.524 . S
C4402 C4401 1.524 . S
C4402 C4403 1.397 . S
C4402 C4407 1.363 . S
C4403 H4374 0.950 . S
C4403 C4402 1.397 . S
C4403 C4404 1.334 . S
C4404 H4375 0.950 . S
C4404 C4403 1.334 . S
C4404 C4405 1.287 . S
C4405 C4404 1.287 . S
C4405 C4406 1.524 . S
C4405 H4408 0.999 . S
C4406 H4376 0.950 . S
C4406 C4405 1.524 . S
C4406 C4407 1.415 . S
C4407 H4377 0.950 . S
C4407 C4402 1.363 . S
C4407 C4406 1.415 . S
H4408 C4405 0.999 . S
H4409 C4390 0.913 . S
H4410 C4428 0.951 . S
H4411 C4430 0.951 . S
H4412 C4432 0.950 . S
H4413 C4433 0.950 . S
H4414 C4435 0.950 . S
H4415 C4438 0.950 . S
H4416 C4439 0.950 . S
H4417 C4441 0.950 . S
H4418 C4442 0.950 . S
H4419 C4443 0.951 . S
H4420 C4445 0.951 . S
H4421 C4447 0.950 . S
H4422 C4448 0.950 . S
H4423 C4450 0.950 . S
H4424 C4453 0.950 . S
H4425 C4454 0.950 . S
H4426 C4456 0.950 . S
H4427 C4457 0.950 . S
C4428 H4410 0.951 . S
C4428 C4429 1.366 . S
C4428 C4430 1.388 . S
C4429 C4428 1.366 . S
C4429 C4433 1.385 . S
C4430 H4411 0.951 . S
C4430 C4428 1.388 . S
C4430 C4431 1.366 . S
C4431 C4430 1.366 . S
C4431 C4432 1.414 . S
C4431 C4434 1.499 . S
C4432 H4412 0.950 . S
C4432 C4431 1.414 . S
C4432 C4433 1.374 . S
C4433 H4413 0.950 . S
C4433 C4429 1.385 . S
C4433 C4432 1.374 . S
C4434 C4431 1.499 . S
C4434 C4435 1.373 . S
C4434 C4436 1.389 . S
C4435 H4414 0.950 . S
C4435 C4434 1.373 . S
C4435 C4451 1.377 . S
C4436 C4434 1.389 . S
C4436 C4437 1.524 . S
C4436 C4450 1.377 . S
C4437 C4436 1.524 . S
C4437 C4438 1.397 . S
C4437 C4442 1.363 . S
C4438 H4415 0.950 . S
C4438 C4437 1.397 . S
C4438 C4439 1.334 . S
C4439 H4416 0.950 . S
C4439 C4438 1.334 . S
C4439 C4440 1.287 . S
C4440 C4439 1.287 . S
C4440 C4441 1.524 . S
C4440 H4459 0.913 . S
C4441 H4417 0.950 . S
C4441 C4440 1.524 . S
C4441 C4442 1.415 . S
C4442 H4418 0.950 . S
C4442 C4437 1.363 . S
C4442 C4441 1.415 . S
C4443 H4419 0.951 . S
C4443 C4444 1.366 . S
C4443 C4445 1.388 . S
C4444 C4443 1.366 . S
C4444 C4448 1.385 . S
C4445 H4420 0.951 . S
C4445 C4443 1.388 . S
C4445 C4446 1.366 . S
C4446 C4445 1.366 . S
C4446 C4447 1.414 . S
C4446 C4449 1.499 . S
C4447 H4421 0.950 . S
C4447 C4446 1.414 . S
C4447 C4448 1.374 . S
C4448 H4422 0.950 . S
C4448 C4444 1.385 . S
C4448 C4447 1.374 . S
C4449 C4446 1.499 . S
C4449 C4450 1.373 . S
C4449 C4451 1.389 . S
C4450 H4423 0.950 . S
C4450 C4436 1.377 . S
C4450 C4449 1.373 . S
C4451 C4435 1.377 . S
C4451 C4449 1.389 . S
C4451 C4452 1.524 . S
C4452 C4451 1.524 . S
C4452 C4453 1.397 . S
C4452 C4457 1.363 . S
C4453 H4424 0.950 . S
C4453 C4452 1.397 . S
C4453 C4454 1.334 . S
C4454 H4425 0.950 . S
C4454 C4453 1.334 . S
C4454 C4455 1.287 . S
C4455 C4454 1.287 . S
C4455 C4456 1.524 . S
C4455 H4458 0.999 . S
C4456 H4426 0.950 . S
C4456 C4455 1.524 . S
C4456 C4457 1.415 . S
C4457 H4427 0.950 . S
C4457 C4452 1.363 . S
C4457 C4456 1.415 . S
H4458 C4455 0.999 . S
H4459 C4440 0.913 . S
H4460 C4478 0.951 . S
H4461 C4480 0.951 . S
H4462 C4482 0.950 . S
H4463 C4483 0.950 . S
H4464 C4485 0.950 . S
H4465 C4488 0.950 . S
H4466 C4489 0.950 . S
H4467 C4491 0.950 . S
H4468 C4492 0.950 . S
H4469 C4493 0.951 . S
H4470 C4495 0.951 . S
H4471 C4497 0.950 . S
H4472 C4498 0.950 . S
H4473 C4500 0.950 . S
H4474 C4503 0.950 . S
H4475 C4504 0.950 . S
H4476 C4506 0.950 . S
H4477 C4507 0.950 . S
C4478 H4460 0.951 . S
C4478 C4479 1.366 . S
C4478 C4480 1.388 . S
C4479 C4478 1.366 . S
C4479 C4483 1.385 . S
C4480 H4461 0.951 . S
C4480 C4478 1.388 . S
C4480 C4481 1.366 . S
C4481 C4480 1.366 . S
C4481 C4482 1.414 . S
C4481 C4484 1.499 . S
C4482 H4462 0.950 . S
C4482 C4481 1.414 . S
C4482 C4483 1.374 . S
C4483 H4463 0.950 . S
C4483 C4479 1.385 . S
C4483 C4482 1.374 . S
C4484 C4481 1.499 . S
C4484 C4485 1.373 . S
C4484 C4486 1.389 . S
C4485 H4464 0.950 . S
C4485 C4484 1.373 . S
C4485 C4501 1.377 . S
C4486 C4484 1.389 . S
C4486 C4487 1.524 . S
C4486 C4500 1.377 . S
C4487 C4486 1.524 . S
C4487 C4488 1.397 . S
C4487 C4492 1.363 . S
C4488 H4465 0.950 . S
C4488 C4487 1.397 . S
C4488 C4489 1.334 . S
C4489 H4466 0.950 . S
C4489 C4488 1.334 . S
C4489 C4490 1.287 . S
C4490 C4489 1.287 . S
C4490 C4491 1.524 . S
C4490 H4509 0.913 . S
C4491 H4467 0.950 . S
C4491 C4490 1.524 . S
C4491 C4492 1.415 . S
C4492 H4468 0.950 . S
C4492 C4487 1.363 . S
C4492 C4491 1.415 . S
C4493 H4469 0.951 . S
C4493 C4494 1.366 . S
C4493 C4495 1.388 . S
C4494 C4493 1.366 . S
C4494 C4498 1.385 . S
C4495 H4470 0.951 . S
C4495 C4493 1.388 . S
C4495 C4496 1.366 . S
C4496 C4495 1.366 . S
C4496 C4497 1.414 . S
C4496 C4499 1.499 . S
C4497 H4471 0.950 . S
C4497 C4496 1.414 . S
C4497 C4498 1.374 . S
C4498 H4472 0.950 . S
C4498 C4494 1.385 . S
C4498 C4497 1.374 . S
C4499 C4496 1.499 . S
C4499 C4500 1.373 . S
C4499 C4501 1.389 . S
C4500 H4473 0.950 . S
C4500 C4486 1.377 . S
C4500 C4499 1.373 . S
C4501 C4485 1.377 . S
C4501 C4499 1.389 . S
C4501 C4502 1.524 . S
C4502 C4501 1.524 . S
C4502 C4503 1.397 . S
C4502 C4507 1.363 . S
C4503 H4474 0.950 . S
C4503 C4502 1.397 . S
C4503 C4504 1.334 . S
C4504 H4475 0.950 . S
C4504 C4503 1.334 . S
C4504 C4505 1.287 . S
C4505 C4504 1.287 . S
C4505 C4506 1.524 . S
C4505 H4508 0.999 . S
C4506 H4476 0.950 . S
C4506 C4505 1.524 . S
C4506 C4507 1.415 . S
C4507 H4477 0.950 . S
C4507 C4502 1.363 . S
C4507 C4506 1.415 . S
H4508 C4505 0.999 . S
H4509 C4490 0.913 . S
H4510 C4528 0.951 . S
H4511 C4530 0.951 . S
H4512 C4532 0.950 . S
H4513 C4533 0.950 . S
H4514 C4535 0.950 . S
H4515 C4538 0.950 . S
H4516 C4539 0.950 . S
H4517 C4541 0.950 . S
H4518 C4542 0.950 . S
H4519 C4543 0.951 . S
H4520 C4545 0.951 . S
H4521 C4547 0.950 . S
H4522 C4548 0.950 . S
H4523 C4550 0.950 . S
H4524 C4553 0.950 . S
H4525 C4554 0.950 . S
H4526 C4556 0.950 . S
H4527 C4557 0.950 . S
C4528 H4510 0.951 . S
C4528 C4529 1.366 . S
C4528 C4530 1.388 . S
C4529 C4528 1.366 . S
C4529 C4533 1.385 . S
C4530 H4511 0.951 . S
C4530 C4528 1.388 . S
C4530 C4531 1.366 . S
C4531 C4530 1.366 . S
C4531 C4532 1.414 . S
C4531 C4534 1.499 . S
C4532 H4512 0.950 . S
C4532 C4531 1.414 . S
C4532 C4533 1.374 . S
C4533 H4513 0.950 . S
C4533 C4529 1.385 . S
C4533 C4532 1.374 . S
C4534 C4531 1.499 . S
C4534 C4535 1.373 . S
C4534 C4536 1.389 . S
C4535 H4514 0.950 . S
C4535 C4534 1.373 . S
C4535 C4551 1.377 . S
C4536 C4534 1.389 . S
C4536 C4537 1.524 . S
C4536 C4550 1.377 . S
C4537 C4536 1.524 . S
C4537 C4538 1.397 . S
C4537 C4542 1.363 . S
C4538 H4515 0.950 . S
C4538 C4537 1.397 . S
C4538 C4539 1.334 . S
C4539 H4516 0.950 . S
C4539 C4538 1.334 . S
C4539 C4540 1.287 . S
C4540 C4539 1.287 . S
C4540 C4541 1.524 . S
C4540 H4559 0.913 . S
C4541 H4517 0.950 . S
C4541 C4540 1.524 . S
C4541 C4542 1.415 . S
C4542 H4518 0.950 . S
C4542 C4537 1.363 . S
C4542 C4541 1.415 . S
C4543 H4519 0.951 . S
C4543 C4544 1.366 . S
C4543 C4545 1.388 . S
C4544 C4543 1.366 . S
C4544 C4548 1.385 . S
C4545 H4520 0.951 . S
C4545 C4543 1.388 . S
C4545 C4546 1.366 . S
C4546 C4545 1.366 . S
C4546 C4547 1.414 . S
C4546 C4549 1.499 . S
C4547 H4521 0.950 . S
C4547 C4546 1.414 . S
C4547 C4548 1.374 . S
C4548 H4522 0.950 . S
C4548 C4544 1.385 . S
C4548 C4547 1.374 . S
C4549 C4546 1.499 . S
C4549 C4550 1.373 . S
C4549 C4551 1.389 . S
C4550 H4523 0.950 . S
C4550 C4536 1.377 . S
C4550 C4549 1.373 . S
C4551 C4535 1.377 . S
C4551 C4549 1.389 . S
C4551 C4552 1.524 . S
C4552 C4551 1.524 . S
C4552 C4553 1.397 . S
C4552 C4557 1.363 . S
C4553 H4524 0.950 . S
C4553 C4552 1.397 . S
C4553 C4554 1.334 . S
C4554 H4525 0.950 . S
C4554 C4553 1.334 . S
C4554 C4555 1.287 . S
C4555 C4554 1.287 . S
C4555 C4556 1.524 . S
C4555 H4558 0.999 . S
C4556 H4526 0.950 . S
C4556 C4555 1.524 . S
C4556 C4557 1.415 . S
C4557 H4527 0.950 . S
C4557 C4552 1.363 . S
C4557 C4556 1.415 . S
H4558 C4555 0.999 . S
H4559 C4540 0.913 . S
H4560 C4578 0.951 . S
H4561 C4580 0.951 . S
H4562 C4582 0.950 . S
H4563 C4583 0.950 . S
H4564 C4585 0.950 . S
H4565 C4588 0.950 . S
H4566 C4589 0.950 . S
H4567 C4591 0.950 . S
H4568 C4592 0.950 . S
H4569 C4593 0.951 . S
H4570 C4595 0.951 . S
H4571 C4597 0.950 . S
H4572 C4598 0.950 . S
H4573 C4600 0.950 . S
H4574 C4603 0.950 . S
H4575 C4604 0.950 . S
H4576 C4606 0.950 . S
H4577 C4607 0.950 . S
C4578 H4560 0.951 . S
C4578 C4579 1.366 . S
C4578 C4580 1.388 . S
C4579 C4578 1.366 . S
C4579 C4583 1.385 . S
C4580 H4561 0.951 . S
C4580 C4578 1.388 . S
C4580 C4581 1.366 . S
C4581 C4580 1.366 . S
C4581 C4582 1.414 . S
C4581 C4584 1.499 . S
C4582 H4562 0.950 . S
C4582 C4581 1.414 . S
C4582 C4583 1.374 . S
C4583 H4563 0.950 . S
C4583 C4579 1.385 . S
C4583 C4582 1.374 . S
C4584 C4581 1.499 . S
C4584 C4585 1.373 . S
C4584 C4586 1.389 . S
C4585 H4564 0.950 . S
C4585 C4584 1.373 . S
C4585 C4601 1.377 . S
C4586 C4584 1.389 . S
C4586 C4587 1.524 . S
C4586 C4600 1.377 . S
C4587 C4586 1.524 . S
C4587 C4588 1.397 . S
C4587 C4592 1.363 . S
C4588 H4565 0.950 . S
C4588 C4587 1.397 . S
C4588 C4589 1.334 . S
C4589 H4566 0.950 . S
C4589 C4588 1.334 . S
C4589 C4590 1.287 . S
C4590 C4589 1.287 . S
C4590 C4591 1.524 . S
C4590 H4609 0.913 . S
C4591 H4567 0.950 . S
C4591 C4590 1.524 . S
C4591 C4592 1.415 . S
C4592 H4568 0.950 . S
C4592 C4587 1.363 . S
C4592 C4591 1.415 . S
C4593 H4569 0.951 . S
C4593 C4594 1.366 . S
C4593 C4595 1.388 . S
C4594 C4593 1.366 . S
C4594 C4598 1.385 . S
C4595 H4570 0.951 . S
C4595 C4593 1.388 . S
C4595 C4596 1.366 . S
C4596 C4595 1.366 . S
C4596 C4597 1.414 . S
C4596 C4599 1.499 . S
C4597 H4571 0.950 . S
C4597 C4596 1.414 . S
C4597 C4598 1.374 . S
C4598 H4572 0.950 . S
C4598 C4594 1.385 . S
C4598 C4597 1.374 . S
C4599 C4596 1.499 . S
C4599 C4600 1.373 . S
C4599 C4601 1.389 . S
C4600 H4573 0.950 . S
C4600 C4586 1.377 . S
C4600 C4599 1.373 . S
C4601 C4585 1.377 . S
C4601 C4599 1.389 . S
C4601 C4602 1.524 . S
C4602 C4601 1.524 . S
C4602 C4603 1.397 . S
C4602 C4607 1.363 . S
C4603 H4574 0.950 . S
C4603 C4602 1.397 . S
C4603 C4604 1.334 . S
C4604 H4575 0.950 . S
C4604 C4603 1.334 . S
C4604 C4605 1.287 . S
C4605 C4604 1.287 . S
C4605 C4606 1.524 . S
C4605 H4608 0.999 . S
C4606 H4576 0.950 . S
C4606 C4605 1.524 . S
C4606 C4607 1.415 . S
C4607 H4577 0.950 . S
C4607 C4602 1.363 . S
C4607 C4606 1.415 . S
H4608 C4605 0.999 . S
H4609 C4590 0.913 . S
H4610 C4628 0.951 . S
H4611 C4630 0.951 . S
H4612 C4632 0.950 . S
H4613 C4633 0.950 . S
H4614 C4635 0.950 . S
H4615 C4638 0.950 . S
H4616 C4639 0.950 . S
H4617 C4641 0.950 . S
H4618 C4642 0.950 . S
H4619 C4643 0.951 . S
H4620 C4645 0.951 . S
H4621 C4647 0.950 . S
H4622 C4648 0.930 1_655 S
H4623 C4650 0.950 . S
H4624 C4653 0.950 . S
H4625 C4654 0.950 . S
H4626 C4656 0.950 . S
H4627 C4657 0.950 . S
C4628 H4610 0.951 . S
C4628 C4629 1.366 . S
C4628 C4630 1.388 . S
C4629 C4628 1.366 . S
C4629 C4633 1.385 . S
C4630 H4611 0.951 . S
C4630 C4628 1.388 . S
C4630 C4631 1.366 . S
C4631 C4630 1.366 . S
C4631 C4632 1.414 . S
C4631 C4634 1.499 . S
C4632 H4612 0.950 . S
C4632 C4631 1.414 . S
C4632 C4633 1.374 . S
C4633 H4613 0.950 . S
C4633 C4629 1.385 . S
C4633 C4632 1.374 . S
C4634 C4631 1.499 . S
C4634 C4635 1.373 . S
C4634 C4636 1.389 . S
C4635 H4614 0.950 . S
C4635 C4634 1.373 . S
C4635 C4651 1.377 . S
C4636 C4634 1.389 . S
C4636 C4637 1.524 . S
C4636 C4650 1.377 . S
C4637 C4636 1.524 . S
C4637 C4638 1.397 . S
C4637 C4642 1.363 . S
C4638 H4615 0.950 . S
C4638 C4637 1.397 . S
C4638 C4639 1.334 . S
C4639 H4616 0.950 . S
C4639 C4638 1.334 . S
C4639 C4640 1.287 . S
C4640 C4639 1.287 . S
C4640 C4641 1.524 . S
C4640 H4659 0.913 . S
C4641 H4617 0.950 . S
C4641 C4640 1.524 . S
C4641 C4642 1.415 . S
C4642 H4618 0.950 . S
C4642 C4637 1.363 . S
C4642 C4641 1.415 . S
C4643 H4619 0.951 . S
C4643 C4644 1.366 . S
C4643 C4645 1.388 . S
C4644 C4643 1.366 . S
C4644 C4648 1.385 . S
C4645 H4620 0.951 . S
C4645 C4643 1.388 . S
C4645 C4646 1.366 . S
C4646 C4645 1.366 . S
C4646 C4647 1.414 . S
C4646 C4649 1.499 . S
C4647 H4621 0.950 . S
C4647 C4646 1.414 . S
C4647 C4648 1.374 . S
C4648 H4622 0.930 1_455 S
C4648 C4644 1.385 . S
C4648 C4647 1.374 . S
C4649 C4646 1.499 . S
C4649 C4650 1.373 . S
C4649 C4651 1.389 . S
C4650 H4623 0.950 . S
C4650 C4636 1.377 . S
C4650 C4649 1.373 . S
C4651 C4635 1.377 . S
C4651 C4649 1.389 . S
C4651 C4652 1.524 . S
C4652 C4651 1.524 . S
C4652 C4653 1.397 . S
C4652 C4657 1.363 . S
C4653 H4624 0.950 . S
C4653 C4652 1.397 . S
C4653 C4654 1.334 . S
C4654 H4625 0.950 . S
C4654 C4653 1.334 . S
C4654 C4655 1.287 . S
C4655 C4654 1.287 . S
C4655 C4656 1.524 . S
C4655 H4658 0.999 . S
C4656 H4626 0.950 . S
C4656 C4655 1.524 . S
C4656 C4657 1.415 . S
C4657 H4627 0.950 . S
C4657 C4652 1.363 . S
C4657 C4656 1.415 . S
H4658 C4655 0.999 . S
H4659 C4640 0.913 . S
H4660 C4678 0.951 . S
H4661 C4680 0.951 . S
H4662 C4682 0.950 . S
H4663 C4683 0.950 . S
H4664 C4685 0.950 . S
H4665 C4688 0.950 . S
H4666 C4689 0.950 . S
H4667 C4691 0.950 . S
H4668 C4692 0.950 . S
H4669 C4693 0.951 . S
H4670 C4695 0.951 . S
H4671 C4697 0.950 . S
H4672 C4698 0.950 . S
H4673 C4700 0.950 . S
H4674 C4703 0.950 . S
H4675 C4704 0.950 . S
H4676 C4706 0.950 . S
H4677 C4707 0.950 . S
C4678 H4660 0.951 . S
C4678 C4679 1.366 . S
C4678 C4680 1.388 . S
C4679 C4678 1.366 . S
C4679 C4683 1.385 . S
C4680 H4661 0.951 . S
C4680 C4678 1.388 . S
C4680 C4681 1.366 . S
C4681 C4680 1.366 . S
C4681 C4682 1.414 . S
C4681 C4684 1.499 . S
C4682 H4662 0.950 . S
C4682 C4681 1.414 . S
C4682 C4683 1.374 . S
C4683 H4663 0.950 . S
C4683 C4679 1.385 . S
C4683 C4682 1.374 . S
C4684 C4681 1.499 . S
C4684 C4685 1.373 . S
C4684 C4686 1.389 . S
C4685 H4664 0.950 . S
C4685 C4684 1.373 . S
C4685 C4701 1.377 . S
C4686 C4684 1.389 . S
C4686 C4687 1.524 . S
C4686 C4700 1.377 . S
C4687 C4686 1.524 . S
C4687 C4688 1.397 . S
C4687 C4692 1.363 . S
C4688 H4665 0.950 . S
C4688 C4687 1.397 . S
C4688 C4689 1.334 . S
C4689 H4666 0.950 . S
C4689 C4688 1.334 . S
C4689 C4690 1.287 . S
C4690 C4689 1.287 . S
C4690 C4691 1.524 . S
C4690 H4709 0.913 . S
C4691 H4667 0.950 . S
C4691 C4690 1.524 . S
C4691 C4692 1.415 . S
C4692 H4668 0.950 . S
C4692 C4687 1.363 . S
C4692 C4691 1.415 . S
C4693 H4669 0.951 . S
C4693 C4694 1.366 . S
C4693 C4695 1.388 . S
C4694 C4693 1.366 . S
C4694 C4698 1.385 . S
C4695 H4670 0.951 . S
C4695 C4693 1.388 . S
C4695 C4696 1.366 . S
C4696 C4695 1.366 . S
C4696 C4697 1.414 . S
C4696 C4699 1.499 . S
C4697 H4671 0.950 . S
C4697 C4696 1.414 . S
C4697 C4698 1.374 . S
C4698 H4672 0.950 . S
C4698 C4694 1.385 . S
C4698 C4697 1.374 . S
C4699 C4696 1.499 . S
C4699 C4700 1.373 . S
C4699 C4701 1.389 . S
C4700 H4673 0.950 . S
C4700 C4686 1.377 . S
C4700 C4699 1.373 . S
C4701 C4685 1.377 . S
C4701 C4699 1.389 . S
C4701 C4702 1.524 . S
C4702 C4701 1.524 . S
C4702 C4703 1.397 . S
C4702 C4707 1.363 . S
C4703 H4674 0.950 . S
C4703 C4702 1.397 . S
C4703 C4704 1.334 . S
C4704 H4675 0.950 . S
C4704 C4703 1.334 . S
C4704 C4705 1.287 . S
C4705 C4704 1.287 . S
C4705 C4706 1.524 . S
C4705 H4708 0.999 . S
C4706 H4676 0.950 . S
C4706 C4705 1.524 . S
C4706 C4707 1.415 . S
C4707 H4677 0.950 . S
C4707 C4702 1.363 . S
C4707 C4706 1.415 . S
H4708 C4705 0.999 . S
H4709 C4690 0.913 . S
H4710 C4728 0.951 . S
H4711 C4730 0.951 . S
H4712 C4732 0.950 . S
H4713 C4733 0.950 . S
H4714 C4735 0.950 . S
H4715 C4738 0.950 . S
H4716 C4739 0.950 . S
H4717 C4741 0.950 . S
H4718 C4742 0.950 . S
H4719 C4743 0.951 . S
H4720 C4745 0.951 . S
H4721 C4747 0.950 . S
H4722 C4748 0.950 . S
H4723 C4750 0.950 . S
H4724 C4753 0.950 . S
H4725 C4754 0.950 . S
H4726 C4756 0.950 . S
H4727 C4757 0.950 . S
C4728 H4710 0.951 . S
C4728 C4729 1.366 . S
C4728 C4730 1.388 . S
C4729 C4728 1.366 . S
C4729 C4733 1.385 . S
C4730 H4711 0.951 . S
C4730 C4728 1.388 . S
C4730 C4731 1.366 . S
C4731 C4730 1.366 . S
C4731 C4732 1.414 . S
C4731 C4734 1.499 . S
C4732 H4712 0.950 . S
C4732 C4731 1.414 . S
C4732 C4733 1.374 . S
C4733 H4713 0.950 . S
C4733 C4729 1.385 . S
C4733 C4732 1.374 . S
C4734 C4731 1.499 . S
C4734 C4735 1.373 . S
C4734 C4736 1.389 . S
C4735 H4714 0.950 . S
C4735 C4734 1.373 . S
C4735 C4751 1.377 . S
C4736 C4734 1.389 . S
C4736 C4737 1.524 . S
C4736 C4750 1.377 . S
C4737 C4736 1.524 . S
C4737 C4738 1.397 . S
C4737 C4742 1.363 . S
C4738 H4715 0.950 . S
C4738 C4737 1.397 . S
C4738 C4739 1.334 . S
C4739 H4716 0.950 . S
C4739 C4738 1.334 . S
C4739 C4740 1.287 . S
C4740 C4739 1.287 . S
C4740 C4741 1.524 . S
C4740 H4759 0.913 . S
C4741 H4717 0.950 . S
C4741 C4740 1.524 . S
C4741 C4742 1.415 . S
C4742 H4718 0.950 . S
C4742 C4737 1.363 . S
C4742 C4741 1.415 . S
C4743 H4719 0.951 . S
C4743 C4744 1.366 . S
C4743 C4745 1.388 . S
C4744 C4743 1.366 . S
C4744 C4748 1.385 . S
C4745 H4720 0.951 . S
C4745 C4743 1.388 . S
C4745 C4746 1.366 . S
C4746 C4745 1.366 . S
C4746 C4747 1.414 . S
C4746 C4749 1.499 . S
C4747 H4721 0.950 . S
C4747 C4746 1.414 . S
C4747 C4748 1.374 . S
C4748 H4722 0.950 . S
C4748 C4744 1.385 . S
C4748 C4747 1.374 . S
C4749 C4746 1.499 . S
C4749 C4750 1.373 . S
C4749 C4751 1.389 . S
C4750 H4723 0.950 . S
C4750 C4736 1.377 . S
C4750 C4749 1.373 . S
C4751 C4735 1.377 . S
C4751 C4749 1.389 . S
C4751 C4752 1.524 . S
C4752 C4751 1.524 . S
C4752 C4753 1.397 . S
C4752 C4757 1.363 . S
C4753 H4724 0.950 . S
C4753 C4752 1.397 . S
C4753 C4754 1.334 . S
C4754 H4725 0.950 . S
C4754 C4753 1.334 . S
C4754 C4755 1.287 . S
C4755 C4754 1.287 . S
C4755 C4756 1.524 . S
C4755 H4758 0.999 . S
C4756 H4726 0.950 . S
C4756 C4755 1.524 . S
C4756 C4757 1.415 . S
C4757 H4727 0.950 . S
C4757 C4752 1.363 . S
C4757 C4756 1.415 . S
H4758 C4755 0.999 . S
H4759 C4740 0.913 . S
H4760 C4778 0.951 . S
H4761 C4780 0.951 . S
H4762 C4782 0.950 . S
H4763 C4783 0.950 . S
H4764 C4785 0.950 . S
H4765 C4788 0.950 . S
H4766 C4789 0.950 . S
H4767 C4791 0.950 . S
H4768 C4792 0.950 . S
H4769 C4793 0.951 . S
H4770 C4795 0.951 . S
H4771 C4797 0.950 . S
H4772 C4798 0.950 . S
H4773 C4800 0.950 . S
H4774 C4803 0.950 . S
H4775 C4804 0.950 . S
H4776 C4806 0.950 . S
H4777 C4807 0.950 . S
C4778 H4760 0.951 . S
C4778 C4779 1.366 . S
C4778 C4780 1.388 . S
C4779 C4778 1.366 . S
C4779 C4783 1.385 . S
C4780 H4761 0.951 . S
C4780 C4778 1.388 . S
C4780 C4781 1.366 . S
C4781 C4780 1.366 . S
C4781 C4782 1.414 . S
C4781 C4784 1.499 . S
C4782 H4762 0.950 . S
C4782 C4781 1.414 . S
C4782 C4783 1.374 . S
C4783 H4763 0.950 . S
C4783 C4779 1.385 . S
C4783 C4782 1.374 . S
C4784 C4781 1.499 . S
C4784 C4785 1.373 . S
C4784 C4786 1.389 . S
C4785 H4764 0.950 . S
C4785 C4784 1.373 . S
C4785 C4801 1.377 . S
C4786 C4784 1.389 . S
C4786 C4787 1.524 . S
C4786 C4800 1.377 . S
C4787 C4786 1.524 . S
C4787 C4788 1.397 . S
C4787 C4792 1.363 . S
C4788 H4765 0.950 . S
C4788 C4787 1.397 . S
C4788 C4789 1.334 . S
C4789 H4766 0.950 . S
C4789 C4788 1.334 . S
C4789 C4790 1.287 . S
C4790 C4789 1.287 . S
C4790 C4791 1.524 . S
C4790 H4809 0.913 . S
C4791 H4767 0.950 . S
C4791 C4790 1.524 . S
C4791 C4792 1.415 . S
C4792 H4768 0.950 . S
C4792 C4787 1.363 . S
C4792 C4791 1.415 . S
C4793 H4769 0.951 . S
C4793 C4794 1.366 . S
C4793 C4795 1.388 . S
C4794 C4793 1.366 . S
C4794 C4798 1.385 . S
C4795 H4770 0.951 . S
C4795 C4793 1.388 . S
C4795 C4796 1.366 . S
C4796 C4795 1.366 . S
C4796 C4797 1.414 . S
C4796 C4799 1.499 . S
C4797 H4771 0.950 . S
C4797 C4796 1.414 . S
C4797 C4798 1.374 . S
C4798 H4772 0.950 . S
C4798 C4794 1.385 . S
C4798 C4797 1.374 . S
C4799 C4796 1.499 . S
C4799 C4800 1.373 . S
C4799 C4801 1.389 . S
C4800 H4773 0.950 . S
C4800 C4786 1.377 . S
C4800 C4799 1.373 . S
C4801 C4785 1.377 . S
C4801 C4799 1.389 . S
C4801 C4802 1.524 . S
C4802 C4801 1.524 . S
C4802 C4803 1.397 . S
C4802 C4807 1.363 . S
C4803 H4774 0.950 . S
C4803 C4802 1.397 . S
C4803 C4804 1.334 . S
C4804 H4775 0.950 . S
C4804 C4803 1.334 . S
C4804 C4805 1.287 . S
C4805 C4804 1.287 . S
C4805 C4806 1.524 . S
C4805 H4808 0.999 . S
C4806 H4776 0.950 . S
C4806 C4805 1.524 . S
C4806 C4807 1.415 . S
C4807 H4777 0.950 . S
C4807 C4802 1.363 . S
C4807 C4806 1.415 . S
H4808 C4805 0.999 . S
H4809 C4790 0.913 . S
H4810 C4828 0.951 . S
H4811 C4830 0.951 . S
H4812 C4832 0.950 . S
H4813 C4833 0.950 . S
H4814 C4835 0.950 . S
H4815 C4838 0.950 . S
H4816 C4839 0.950 . S
H4817 C4841 0.950 . S
H4818 C4842 0.950 . S
H4819 C4843 0.951 . S
H4820 C4845 0.951 . S
H4821 C4847 0.950 . S
H4822 C4848 0.950 . S
H4823 C4850 0.950 . S
H4824 C4853 0.950 . S
H4825 C4854 0.950 . S
H4826 C4856 0.950 . S
H4827 C4857 0.950 . S
C4828 H4810 0.951 . S
C4828 C4829 1.366 . S
C4828 C4830 1.388 . S
C4829 C4828 1.366 . S
C4829 C4833 1.385 . S
C4830 H4811 0.951 . S
C4830 C4828 1.388 . S
C4830 C4831 1.366 . S
C4831 C4830 1.366 . S
C4831 C4832 1.414 . S
C4831 C4834 1.499 . S
C4832 H4812 0.950 . S
C4832 C4831 1.414 . S
C4832 C4833 1.374 . S
C4833 H4813 0.950 . S
C4833 C4829 1.385 . S
C4833 C4832 1.374 . S
C4834 C4831 1.499 . S
C4834 C4835 1.373 . S
C4834 C4836 1.389 . S
C4835 H4814 0.950 . S
C4835 C4834 1.373 . S
C4835 C4851 1.377 . S
C4836 C4834 1.389 . S
C4836 C4837 1.524 . S
C4836 C4850 1.377 . S
C4837 C4836 1.524 . S
C4837 C4838 1.397 . S
C4837 C4842 1.363 . S
C4838 H4815 0.950 . S
C4838 C4837 1.397 . S
C4838 C4839 1.334 . S
C4839 H4816 0.950 . S
C4839 C4838 1.334 . S
C4839 C4840 1.287 . S
C4840 C4839 1.287 . S
C4840 C4841 1.524 . S
C4840 H4859 0.913 . S
C4841 H4817 0.950 . S
C4841 C4840 1.524 . S
C4841 C4842 1.415 . S
C4842 H4818 0.950 . S
C4842 C4837 1.363 . S
C4842 C4841 1.415 . S
C4843 H4819 0.951 . S
C4843 C4844 1.366 . S
C4843 C4845 1.388 . S
C4844 C4843 1.366 . S
C4844 C4848 1.385 . S
C4845 H4820 0.951 . S
C4845 C4843 1.388 . S
C4845 C4846 1.366 . S
C4846 C4845 1.366 . S
C4846 C4847 1.414 . S
C4846 C4849 1.499 . S
C4847 H4821 0.950 . S
C4847 C4846 1.414 . S
C4847 C4848 1.374 . S
C4848 H4822 0.950 . S
C4848 C4844 1.385 . S
C4848 C4847 1.374 . S
C4849 C4846 1.499 . S
C4849 C4850 1.373 . S
C4849 C4851 1.389 . S
C4850 H4823 0.950 . S
C4850 C4836 1.377 . S
C4850 C4849 1.373 . S
C4851 C4835 1.377 . S
C4851 C4849 1.389 . S
C4851 C4852 1.524 . S
C4852 C4851 1.524 . S
C4852 C4853 1.397 . S
C4852 C4857 1.363 . S
C4853 H4824 0.950 . S
C4853 C4852 1.397 . S
C4853 C4854 1.334 . S
C4854 H4825 0.950 . S
C4854 C4853 1.334 . S
C4854 C4855 1.287 . S
C4855 C4854 1.287 . S
C4855 C4856 1.524 . S
C4855 H4858 0.999 . S
C4856 H4826 0.950 . S
C4856 C4855 1.524 . S
C4856 C4857 1.415 . S
C4857 H4827 0.950 . S
C4857 C4852 1.363 . S
C4857 C4856 1.415 . S
H4858 C4855 0.999 . S
H4859 C4840 0.913 . S
H4860 C4878 0.951 . S
H4861 C4880 0.951 . S
H4862 C4882 0.950 . S
H4863 C4883 0.950 . S
H4864 C4885 0.950 . S
H4865 C4888 0.950 . S
H4866 C4889 0.950 . S
H4867 C4891 0.950 . S
H4868 C4892 0.950 . S
H4869 C4893 0.951 . S
H4870 C4895 0.951 . S
H4871 C4897 0.950 . S
H4872 C4898 0.950 . S
H4873 C4900 0.950 . S
H4874 C4903 0.950 . S
H4875 C4904 0.950 . S
H4876 C4906 0.950 . S
H4877 C4907 0.950 . S
C4878 H4860 0.951 . S
C4878 C4879 1.366 . S
C4878 C4880 1.388 . S
C4879 C4878 1.366 . S
C4879 C4883 1.385 . S
C4880 H4861 0.951 . S
C4880 C4878 1.388 . S
C4880 C4881 1.366 . S
C4881 C4880 1.366 . S
C4881 C4882 1.414 . S
C4881 C4884 1.499 . S
C4882 H4862 0.950 . S
C4882 C4881 1.414 . S
C4882 C4883 1.374 . S
C4883 H4863 0.950 . S
C4883 C4879 1.385 . S
C4883 C4882 1.374 . S
C4884 C4881 1.499 . S
C4884 C4885 1.373 . S
C4884 C4886 1.389 . S
C4885 H4864 0.950 . S
C4885 C4884 1.373 . S
C4885 C4901 1.377 . S
C4886 C4884 1.389 . S
C4886 C4887 1.524 . S
C4886 C4900 1.377 . S
C4887 C4886 1.524 . S
C4887 C4888 1.397 . S
C4887 C4892 1.363 . S
C4888 H4865 0.950 . S
C4888 C4887 1.397 . S
C4888 C4889 1.334 . S
C4889 H4866 0.950 . S
C4889 C4888 1.334 . S
C4889 C4890 1.287 . S
C4890 C4889 1.287 . S
C4890 C4891 1.524 . S
C4890 H4909 0.913 . S
C4891 H4867 0.950 . S
C4891 C4890 1.524 . S
C4891 C4892 1.415 . S
C4892 H4868 0.950 . S
C4892 C4887 1.363 . S
C4892 C4891 1.415 . S
C4893 H4869 0.951 . S
C4893 C4894 1.366 . S
C4893 C4895 1.388 . S
C4894 C4893 1.366 . S
C4894 C4898 1.385 . S
C4895 H4870 0.951 . S
C4895 C4893 1.388 . S
C4895 C4896 1.366 . S
C4896 C4895 1.366 . S
C4896 C4897 1.414 . S
C4896 C4899 1.499 . S
C4897 H4871 0.950 . S
C4897 C4896 1.414 . S
C4897 C4898 1.374 . S
C4898 H4872 0.950 . S
C4898 C4894 1.385 . S
C4898 C4897 1.374 . S
C4899 C4896 1.499 . S
C4899 C4900 1.373 . S
C4899 C4901 1.389 . S
C4900 H4873 0.950 . S
C4900 C4886 1.377 . S
C4900 C4899 1.373 . S
C4901 C4885 1.377 . S
C4901 C4899 1.389 . S
C4901 C4902 1.524 . S
C4902 C4901 1.524 . S
C4902 C4903 1.397 . S
C4902 C4907 1.363 . S
C4903 H4874 0.950 . S
C4903 C4902 1.397 . S
C4903 C4904 1.334 . S
C4904 H4875 0.950 . S
C4904 C4903 1.334 . S
C4904 C4905 1.287 . S
C4905 C4904 1.287 . S
C4905 C4906 1.524 . S
C4905 H4908 0.999 . S
C4906 H4876 0.950 . S
C4906 C4905 1.524 . S
C4906 C4907 1.415 . S
C4907 H4877 0.950 . S
C4907 C4902 1.363 . S
C4907 C4906 1.415 . S
H4908 C4905 0.999 . S
H4909 C4890 0.913 . S
H4910 C4928 0.951 . S
H4911 C4930 0.951 . S
H4912 C4932 0.950 . S
H4913 C4933 0.950 . S
H4914 C4935 0.950 . S
H4915 C4938 0.950 . S
H4916 C4939 0.950 . S
H4917 C4941 0.950 . S
H4918 C4942 0.950 . S
H4919 C4943 0.949 . S
H4920 C4945 0.951 . S
H4921 C4947 0.950 . S
H4922 C4948 0.950 . S
H4923 C4950 0.950 . S
H4924 C4953 0.950 . S
H4925 C4954 0.950 . S
H4926 C4956 0.950 . S
H4927 C4957 0.950 . S
C4928 H4910 0.951 . S
C4928 C4929 1.366 . S
C4928 C4930 1.388 . S
C4929 C4928 1.366 . S
C4929 C4933 1.385 . S
C4930 H4911 0.951 . S
C4930 C4928 1.388 . S
C4930 C4931 1.366 . S
C4931 C4930 1.366 . S
C4931 C4932 1.414 . S
C4931 C4934 1.499 . S
C4932 H4912 0.950 . S
C4932 C4931 1.414 . S
C4932 C4933 1.374 . S
C4933 H4913 0.950 . S
C4933 C4929 1.385 . S
C4933 C4932 1.374 . S
C4934 C4931 1.499 . S
C4934 C4935 1.373 . S
C4934 C4936 1.389 . S
C4935 H4914 0.950 . S
C4935 C4934 1.373 . S
C4935 C4951 1.377 . S
C4936 C4934 1.389 . S
C4936 C4937 1.524 . S
C4936 C4950 1.377 . S
C4937 C4936 1.524 . S
C4937 C4938 1.397 . S
C4937 C4942 1.363 . S
C4938 H4915 0.950 . S
C4938 C4937 1.397 . S
C4938 C4939 1.334 . S
C4939 H4916 0.950 . S
C4939 C4938 1.334 . S
C4939 C4940 1.287 . S
C4940 C4939 1.287 . S
C4940 C4941 1.524 . S
C4940 H4959 0.913 . S
C4941 H4917 0.950 . S
C4941 C4940 1.524 . S
C4941 C4942 1.415 . S
C4942 H4918 0.950 . S
C4942 C4937 1.363 . S
C4942 C4941 1.415 . S
C4943 H4919 0.949 . S
C4943 C4944 1.366 . S
C4943 C4945 1.388 . S
C4944 C4943 1.366 . S
C4944 C4948 1.385 . S
C4945 H4920 0.951 . S
C4945 C4943 1.388 . S
C4945 C4946 1.366 . S
C4946 C4945 1.366 . S
C4946 C4947 1.414 . S
C4946 C4949 1.499 . S
C4947 H4921 0.950 . S
C4947 C4946 1.414 . S
C4947 C4948 1.374 . S
C4948 H4922 0.950 . S
C4948 C4944 1.385 . S
C4948 C4947 1.374 . S
C4949 C4946 1.499 . S
C4949 C4950 1.373 . S
C4949 C4951 1.389 . S
C4950 H4923 0.950 . S
C4950 C4936 1.377 . S
C4950 C4949 1.373 . S
C4951 C4935 1.377 . S
C4951 C4949 1.389 . S
C4951 C4952 1.524 . S
C4952 C4951 1.524 . S
C4952 C4953 1.397 . S
C4952 C4957 1.363 . S
C4953 H4924 0.950 . S
C4953 C4952 1.397 . S
C4953 C4954 1.334 . S
C4954 H4925 0.950 . S
C4954 C4953 1.334 . S
C4954 C4955 1.287 1_455 S
C4955 C4954 1.287 1_655 S
C4955 C4956 1.524 . S
C4955 H4958 0.999 . S
C4956 H4926 0.950 . S
C4956 C4955 1.524 . S
C4956 C4957 1.415 1_655 S
C4957 H4927 0.950 . S
C4957 C4952 1.363 . S
C4957 C4956 1.415 1_455 S
H4958 C4955 0.999 . S
H4959 C4940 0.913 . S
H4960 C4978 0.951 . S
H4961 C4980 0.951 . S
H4962 C4982 0.950 . S
H4963 C4983 0.950 . S
H4964 C4985 0.950 . S
H4965 C4988 0.950 . S
H4966 C4989 0.950 . S
H4967 C4991 0.950 . S
H4968 C4992 0.950 . S
H4969 C4993 0.951 . S
H4970 C4995 0.951 . S
H4971 C4997 0.950 . S
H4972 C4998 0.950 . S
H4973 C5000 0.950 . S
H4974 C5003 0.950 . S
H4975 C5004 0.950 . S
H4976 C5006 0.950 . S
H4977 C5007 0.950 . S
C4978 H4960 0.951 . S
C4978 C4979 1.366 . S
C4978 C4980 1.388 . S
C4979 C4978 1.366 . S
C4979 C4983 1.385 . S
C4980 H4961 0.951 . S
C4980 C4978 1.388 . S
C4980 C4981 1.366 . S
C4981 C4980 1.366 . S
C4981 C4982 1.414 . S
C4981 C4984 1.499 . S
C4982 H4962 0.950 . S
C4982 C4981 1.414 . S
C4982 C4983 1.374 . S
C4983 H4963 0.950 . S
C4983 C4979 1.385 . S
C4983 C4982 1.374 . S
C4984 C4981 1.499 . S
C4984 C4985 1.373 . S
C4984 C4986 1.389 . S
C4985 H4964 0.950 . S
C4985 C4984 1.373 . S
C4985 C5001 1.377 . S
C4986 C4984 1.389 . S
C4986 C4987 1.524 . S
C4986 C5000 1.377 . S
C4987 C4986 1.524 . S
C4987 C4988 1.397 . S
C4987 C4992 1.363 . S
C4988 H4965 0.950 . S
C4988 C4987 1.397 . S
C4988 C4989 1.334 . S
C4989 H4966 0.950 . S
C4989 C4988 1.334 . S
C4989 C4990 1.287 . S
C4990 C4989 1.287 . S
C4990 C4991 1.524 . S
C4990 H5009 0.913 . S
C4991 H4967 0.950 . S
C4991 C4990 1.524 . S
C4991 C4992 1.415 . S
C4992 H4968 0.950 . S
C4992 C4987 1.363 . S
C4992 C4991 1.415 . S
C4993 H4969 0.951 . S
C4993 C4994 1.366 . S
C4993 C4995 1.388 . S
C4994 C4993 1.366 . S
C4994 C4998 1.385 . S
C4995 H4970 0.951 . S
C4995 C4993 1.388 . S
C4995 C4996 1.366 . S
C4996 C4995 1.366 . S
C4996 C4997 1.414 . S
C4996 C4999 1.499 . S
C4997 H4971 0.950 . S
C4997 C4996 1.414 . S
C4997 C4998 1.374 . S
C4998 H4972 0.950 . S
C4998 C4994 1.385 . S
C4998 C4997 1.374 . S
C4999 C4996 1.499 . S
C4999 C5000 1.373 . S
C4999 C5001 1.389 . S
C5000 H4973 0.950 . S
C5000 C4986 1.377 . S
C5000 C4999 1.373 . S
C5001 C4985 1.377 . S
C5001 C4999 1.389 . S
C5001 C5002 1.524 . S
C5002 C5001 1.524 . S
C5002 C5003 1.397 . S
C5002 C5007 1.363 . S
C5003 H4974 0.950 . S
C5003 C5002 1.397 . S
C5003 C5004 1.334 . S
C5004 H4975 0.950 . S
C5004 C5003 1.334 . S
C5004 C5005 1.287 . S
C5005 C5004 1.287 . S
C5005 C5006 1.524 . S
C5005 H5008 0.999 . S
C5006 H4976 0.950 . S
C5006 C5005 1.524 . S
C5006 C5007 1.415 . S
C5007 H4977 0.950 . S
C5007 C5002 1.363 . S
C5007 C5006 1.415 . S
H5008 C5005 0.999 . S
H5009 C4990 0.913 . S
H5010 C5028 0.951 . S
H5011 C5030 0.951 . S
H5012 C5032 0.950 . S
H5013 C5033 0.950 . S
H5014 C5035 0.950 . S
H5015 C5038 0.950 . S
H5016 C5039 0.950 . S
H5017 C5041 0.950 . S
H5018 C5042 0.950 . S
H5019 C5043 0.951 . S
H5020 C5045 0.951 . S
H5021 C5047 0.950 . S
H5022 C5048 0.950 . S
H5023 C5050 0.950 . S
H5024 C5053 0.950 . S
H5025 C5054 0.950 . S
H5026 C5056 0.950 . S
H5027 C5057 0.950 . S
C5028 H5010 0.951 . S
C5028 C5029 1.366 . S
C5028 C5030 1.388 . S
C5029 C5028 1.366 . S
C5029 C5033 1.385 . S
C5030 H5011 0.951 . S
C5030 C5028 1.388 . S
C5030 C5031 1.366 . S
C5031 C5030 1.366 . S
C5031 C5032 1.414 . S
C5031 C5034 1.499 . S
C5032 H5012 0.950 . S
C5032 C5031 1.414 . S
C5032 C5033 1.374 . S
C5033 H5013 0.950 . S
C5033 C5029 1.385 . S
C5033 C5032 1.374 . S
C5034 C5031 1.499 . S
C5034 C5035 1.373 . S
C5034 C5036 1.389 . S
C5035 H5014 0.950 . S
C5035 C5034 1.373 . S
C5035 C5051 1.377 . S
C5036 C5034 1.389 . S
C5036 C5037 1.524 . S
C5036 C5050 1.377 . S
C5037 C5036 1.524 . S
C5037 C5038 1.397 . S
C5037 C5042 1.363 . S
C5038 H5015 0.950 . S
C5038 C5037 1.397 . S
C5038 C5039 1.334 . S
C5039 H5016 0.950 . S
C5039 C5038 1.334 . S
C5039 C5040 1.287 . S
C5040 C5039 1.287 . S
C5040 C5041 1.524 . S
C5040 H5059 0.913 . S
C5041 H5017 0.950 . S
C5041 C5040 1.524 . S
C5041 C5042 1.415 . S
C5042 H5018 0.950 . S
C5042 C5037 1.363 . S
C5042 C5041 1.415 . S
C5043 H5019 0.951 . S
C5043 C5044 1.366 . S
C5043 C5045 1.388 . S
C5044 C5043 1.366 . S
C5044 C5048 1.385 . S
C5045 H5020 0.951 . S
C5045 C5043 1.388 . S
C5045 C5046 1.366 . S
C5046 C5045 1.366 . S
C5046 C5047 1.414 . S
C5046 C5049 1.499 . S
C5047 H5021 0.950 . S
C5047 C5046 1.414 . S
C5047 C5048 1.374 . S
C5048 H5022 0.950 . S
C5048 C5044 1.385 . S
C5048 C5047 1.374 . S
C5049 C5046 1.499 . S
C5049 C5050 1.373 . S
C5049 C5051 1.389 . S
C5050 H5023 0.950 . S
C5050 C5036 1.377 . S
C5050 C5049 1.373 . S
C5051 C5035 1.377 . S
C5051 C5049 1.389 . S
C5051 C5052 1.524 . S
C5052 C5051 1.524 . S
C5052 C5053 1.397 . S
C5052 C5057 1.363 . S
C5053 H5024 0.950 . S
C5053 C5052 1.397 . S
C5053 C5054 1.334 . S
C5054 H5025 0.950 . S
C5054 C5053 1.334 . S
C5054 C5055 1.287 . S
C5055 C5054 1.287 . S
C5055 C5056 1.524 . S
C5055 H5058 0.999 . S
C5056 H5026 0.950 . S
C5056 C5055 1.524 . S
C5056 C5057 1.415 . S
C5057 H5027 0.950 . S
C5057 C5052 1.363 . S
C5057 C5056 1.415 . S
H5058 C5055 0.999 . S
H5059 C5040 0.913 . S
H5060 C5078 0.951 . S
H5061 C5080 0.951 . S
H5062 C5082 0.950 . S
H5063 C5083 0.950 . S
H5064 C5085 0.950 . S
H5065 C5088 0.950 . S
H5066 C5089 0.950 . S
H5067 C5091 0.950 1_565 S
H5068 C5092 0.950 . S
H5069 C5093 0.951 . S
H5070 C5095 0.951 . S
H5071 C5097 0.950 . S
H5072 C5098 0.950 . S
H5073 C5100 0.950 . S
H5074 C5103 0.950 . S
H5075 C5104 0.950 . S
H5076 C5106 0.950 . S
H5077 C5107 0.950 . S
C5078 H5060 0.951 . S
C5078 C5079 1.366 . S
C5078 C5080 1.388 . S
C5079 C5078 1.366 . S
C5079 C5083 1.385 . S
C5080 H5061 0.951 . S
C5080 C5078 1.388 . S
C5080 C5081 1.366 . S
C5081 C5080 1.366 . S
C5081 C5082 1.414 . S
C5081 C5084 1.499 . S
C5082 H5062 0.950 . S
C5082 C5081 1.414 . S
C5082 C5083 1.374 . S
C5083 H5063 0.950 . S
C5083 C5079 1.385 . S
C5083 C5082 1.374 . S
C5084 C5081 1.499 . S
C5084 C5085 1.373 . S
C5084 C5086 1.389 . S
C5085 H5064 0.950 . S
C5085 C5084 1.373 . S
C5085 C5101 1.377 . S
C5086 C5084 1.389 . S
C5086 C5087 1.524 . S
C5086 C5100 1.377 . S
C5087 C5086 1.524 . S
C5087 C5088 1.397 . S
C5087 C5092 1.363 . S
C5088 H5065 0.950 . S
C5088 C5087 1.397 . S
C5088 C5089 1.334 . S
C5089 H5066 0.950 . S
C5089 C5088 1.334 . S
C5089 C5090 1.287 . S
C5090 C5089 1.287 . S
C5090 C5091 1.524 . S
C5090 H5109 0.913 1_545 S
C5091 H5067 0.950 1_545 S
C5091 C5090 1.524 . S
C5091 C5092 1.415 . S
C5092 H5068 0.950 . S
C5092 C5087 1.363 . S
C5092 C5091 1.415 . S
C5093 H5069 0.951 . S
C5093 C5094 1.366 . S
C5093 C5095 1.388 . S
C5094 C5093 1.366 . S
C5094 C5098 1.385 . S
C5095 H5070 0.951 . S
C5095 C5093 1.388 . S
C5095 C5096 1.366 . S
C5096 C5095 1.366 . S
C5096 C5097 1.414 . S
C5096 C5099 1.499 . S
C5097 H5071 0.950 . S
C5097 C5096 1.414 . S
C5097 C5098 1.374 . S
C5098 H5072 0.950 . S
C5098 C5094 1.385 . S
C5098 C5097 1.374 . S
C5099 C5096 1.499 . S
C5099 C5100 1.373 . S
C5099 C5101 1.389 . S
C5100 H5073 0.950 . S
C5100 C5086 1.377 . S
C5100 C5099 1.373 . S
C5101 C5085 1.377 . S
C5101 C5099 1.389 . S
C5101 C5102 1.524 . S
C5102 C5101 1.524 . S
C5102 C5103 1.397 . S
C5102 C5107 1.363 . S
C5103 H5074 0.950 . S
C5103 C5102 1.397 . S
C5103 C5104 1.334 . S
C5104 H5075 0.950 . S
C5104 C5103 1.334 . S
C5104 C5105 1.287 . S
C5105 C5104 1.287 . S
C5105 C5106 1.524 . S
C5105 H5108 0.999 . S
C5106 H5076 0.950 . S
C5106 C5105 1.524 . S
C5106 C5107 1.415 . S
C5107 H5077 0.950 . S
C5107 C5102 1.363 . S
C5107 C5106 1.415 . S
H5108 C5105 0.999 . S
H5109 C5090 0.913 1_565 S
H5110 C5128 0.951 . S
H5111 C5130 0.951 . S
H5112 C5132 0.950 . S
H5113 C5133 0.950 . S
H5114 C5135 0.950 . S
H5115 C5138 0.950 . S
H5116 C5139 0.950 . S
H5117 C5141 0.950 . S
H5118 C5142 0.950 . S
H5119 C5143 0.951 . S
H5120 C5145 0.951 . S
H5121 C5147 0.950 . S
H5122 C5148 0.950 . S
H5123 C5150 0.950 . S
H5124 C5153 0.950 . S
H5125 C5154 0.950 . S
H5126 C5156 0.950 . S
H5127 C5157 0.950 . S
C5128 H5110 0.951 . S
C5128 C5129 1.366 . S
C5128 C5130 1.388 1_554 S
C5129 C5128 1.366 . S
C5129 C5133 1.385 . S
C5130 H5111 0.951 . S
C5130 C5128 1.388 1_556 S
C5130 C5131 1.366 . S
C5131 C5130 1.366 . S
C5131 C5132 1.414 . S
C5131 C5134 1.499 . S
C5132 H5112 0.950 . S
C5132 C5131 1.414 . S
C5132 C5133 1.374 1_556 S
C5133 H5113 0.950 . S
C5133 C5129 1.385 . S
C5133 C5132 1.374 1_554 S
C5134 C5131 1.499 . S
C5134 C5135 1.373 . S
C5134 C5136 1.389 . S
C5135 H5114 0.950 . S
C5135 C5134 1.373 . S
C5135 C5151 1.377 . S
C5136 C5134 1.389 . S
C5136 C5137 1.524 . S
C5136 C5150 1.377 . S
C5137 C5136 1.524 . S
C5137 C5138 1.397 1_556 S
C5137 C5142 1.363 . S
C5138 H5115 0.950 . S
C5138 C5137 1.397 1_554 S
C5138 C5139 1.334 . S
C5139 H5116 0.950 . S
C5139 C5138 1.334 . S
C5139 C5140 1.287 . S
C5140 C5139 1.287 . S
C5140 C5141 1.524 . S
C5140 H5159 0.913 . S
C5141 H5117 0.950 . S
C5141 C5140 1.524 . S
C5141 C5142 1.415 1_554 S
C5142 H5118 0.950 . S
C5142 C5137 1.363 . S
C5142 C5141 1.415 1_556 S
C5143 H5119 0.951 . S
C5143 C5144 1.366 . S
C5143 C5145 1.388 . S
C5144 C5143 1.366 . S
C5144 C5148 1.385 . S
C5145 H5120 0.951 . S
C5145 C5143 1.388 . S
C5145 C5146 1.366 . S
C5146 C5145 1.366 . S
C5146 C5147 1.414 . S
C5146 C5149 1.499 . S
C5147 H5121 0.950 . S
C5147 C5146 1.414 . S
C5147 C5148 1.374 . S
C5148 H5122 0.950 . S
C5148 C5144 1.385 . S
C5148 C5147 1.374 . S
C5149 C5146 1.499 . S
C5149 C5150 1.373 . S
C5149 C5151 1.389 . S
C5150 H5123 0.950 . S
C5150 C5136 1.377 . S
C5150 C5149 1.373 . S
C5151 C5135 1.377 . S
C5151 C5149 1.389 . S
C5151 C5152 1.524 . S
C5152 C5151 1.524 . S
C5152 C5153 1.397 . S
C5152 C5157 1.363 . S
C5153 H5124 0.950 . S
C5153 C5152 1.397 . S
C5153 C5154 1.334 . S
C5154 H5125 0.950 . S
C5154 C5153 1.334 . S
C5154 C5155 1.287 . S
C5155 C5154 1.287 . S
C5155 C5156 1.524 . S
C5155 H5158 0.999 . S
C5156 H5126 0.950 . S
C5156 C5155 1.524 . S
C5156 C5157 1.415 . S
C5157 H5127 0.950 . S
C5157 C5152 1.363 . S
C5157 C5156 1.415 . S
H5158 C5155 0.999 . S
H5159 C5140 0.913 . S
H5160 C5178 0.951 . S
H5161 C5180 0.951 . S
H5162 C5182 0.950 . S
H5163 C5183 0.950 . S
H5164 C5185 0.950 . S
H5165 C5188 0.950 . S
H5166 C5189 0.950 . S
H5167 C5191 0.950 . S
H5168 C5192 0.950 . S
H5169 C5193 0.951 . S
H5170 C5195 0.951 . S
H5171 C5197 0.950 . S
H5172 C5198 0.950 . S
H5173 C5200 0.950 . S
H5174 C5203 0.950 . S
H5175 C5204 0.950 . S
H5176 C5206 0.950 . S
H5177 C5207 0.950 . S
C5178 H5160 0.951 . S
C5178 C5179 1.366 . S
C5178 C5180 1.388 . S
C5179 C5178 1.366 . S
C5179 C5183 1.385 . S
C5180 H5161 0.951 . S
C5180 C5178 1.388 . S
C5180 C5181 1.366 . S
C5181 C5180 1.366 . S
C5181 C5182 1.414 . S
C5181 C5184 1.499 . S
C5182 H5162 0.950 . S
C5182 C5181 1.414 . S
C5182 C5183 1.374 . S
C5183 H5163 0.950 . S
C5183 C5179 1.385 . S
C5183 C5182 1.374 . S
C5184 C5181 1.499 . S
C5184 C5185 1.373 . S
C5184 C5186 1.389 . S
C5185 H5164 0.950 . S
C5185 C5184 1.373 . S
C5185 C5201 1.377 . S
C5186 C5184 1.389 . S
C5186 C5187 1.524 . S
C5186 C5200 1.377 . S
C5187 C5186 1.524 . S
C5187 C5188 1.397 . S
C5187 C5192 1.363 . S
C5188 H5165 0.950 . S
C5188 C5187 1.397 . S
C5188 C5189 1.334 . S
C5189 H5166 0.950 . S
C5189 C5188 1.334 . S
C5189 C5190 1.287 . S
C5190 C5189 1.287 . S
C5190 C5191 1.524 . S
C5190 H5209 0.913 . S
C5191 H5167 0.950 . S
C5191 C5190 1.524 . S
C5191 C5192 1.415 . S
C5192 H5168 0.950 . S
C5192 C5187 1.363 . S
C5192 C5191 1.415 . S
C5193 H5169 0.951 . S
C5193 C5194 1.366 . S
C5193 C5195 1.388 . S
C5194 C5193 1.366 . S
C5194 C5198 1.385 . S
C5195 H5170 0.951 . S
C5195 C5193 1.388 . S
C5195 C5196 1.366 . S
C5196 C5195 1.366 . S
C5196 C5197 1.414 . S
C5196 C5199 1.499 . S
C5197 H5171 0.950 . S
C5197 C5196 1.414 . S
C5197 C5198 1.374 . S
C5198 H5172 0.950 . S
C5198 C5194 1.385 . S
C5198 C5197 1.374 . S
C5199 C5196 1.499 . S
C5199 C5200 1.373 . S
C5199 C5201 1.389 . S
C5200 H5173 0.950 . S
C5200 C5186 1.377 . S
C5200 C5199 1.373 . S
C5201 C5185 1.377 . S
C5201 C5199 1.389 . S
C5201 C5202 1.524 . S
C5202 C5201 1.524 . S
C5202 C5203 1.397 . S
C5202 C5207 1.363 . S
C5203 H5174 0.950 . S
C5203 C5202 1.397 . S
C5203 C5204 1.334 . S
C5204 H5175 0.950 . S
C5204 C5203 1.334 . S
C5204 C5205 1.287 . S
C5205 C5204 1.287 . S
C5205 C5206 1.524 . S
C5205 H5208 0.999 . S
C5206 H5176 0.950 . S
C5206 C5205 1.524 . S
C5206 C5207 1.415 . S
C5207 H5177 0.950 . S
C5207 C5202 1.363 . S
C5207 C5206 1.415 . S
H5208 C5205 0.999 . S
H5209 C5190 0.913 . S
H5210 C5228 0.951 . S
H5211 C5230 0.951 . S
H5212 C5232 0.950 . S
H5213 C5233 0.950 . S
H5214 C5235 0.950 . S
H5215 C5238 0.950 . S
H5216 C5239 0.950 . S
H5217 C5241 0.950 . S
H5218 C5242 0.950 . S
H5219 C5243 0.951 . S
H5220 C5245 0.951 . S
H5221 C5247 0.950 . S
H5222 C5248 0.950 . S
H5223 C5250 0.950 . S
H5224 C5253 0.950 . S
H5225 C5254 0.950 . S
H5226 C5256 0.950 . S
H5227 C5257 0.950 . S
C5228 H5210 0.951 . S
C5228 C5229 1.366 . S
C5228 C5230 1.388 . S
C5229 C5228 1.366 . S
C5229 C5233 1.385 . S
C5230 H5211 0.951 . S
C5230 C5228 1.388 . S
C5230 C5231 1.366 . S
C5231 C5230 1.366 . S
C5231 C5232 1.414 . S
C5231 C5234 1.499 . S
C5232 H5212 0.950 . S
C5232 C5231 1.414 . S
C5232 C5233 1.374 . S
C5233 H5213 0.950 . S
C5233 C5229 1.385 . S
C5233 C5232 1.374 . S
C5234 C5231 1.499 . S
C5234 C5235 1.373 . S
C5234 C5236 1.389 . S
C5235 H5214 0.950 . S
C5235 C5234 1.373 . S
C5235 C5251 1.377 . S
C5236 C5234 1.389 . S
C5236 C5237 1.524 . S
C5236 C5250 1.377 . S
C5237 C5236 1.524 . S
C5237 C5238 1.397 . S
C5237 C5242 1.363 . S
C5238 H5215 0.950 . S
C5238 C5237 1.397 . S
C5238 C5239 1.334 . S
C5239 H5216 0.950 . S
C5239 C5238 1.334 . S
C5239 C5240 1.287 . S
C5240 C5239 1.287 . S
C5240 C5241 1.524 . S
C5240 H5259 0.913 . S
C5241 H5217 0.950 . S
C5241 C5240 1.524 . S
C5241 C5242 1.415 . S
C5242 H5218 0.950 . S
C5242 C5237 1.363 . S
C5242 C5241 1.415 . S
C5243 H5219 0.951 . S
C5243 C5244 1.366 . S
C5243 C5245 1.388 . S
C5244 C5243 1.366 . S
C5244 C5248 1.385 . S
C5245 H5220 0.951 . S
C5245 C5243 1.388 . S
C5245 C5246 1.366 . S
C5246 C5245 1.366 . S
C5246 C5247 1.414 . S
C5246 C5249 1.499 . S
C5247 H5221 0.950 . S
C5247 C5246 1.414 . S
C5247 C5248 1.374 . S
C5248 H5222 0.950 . S
C5248 C5244 1.385 . S
C5248 C5247 1.374 . S
C5249 C5246 1.499 . S
C5249 C5250 1.373 . S
C5249 C5251 1.389 . S
C5250 H5223 0.950 . S
C5250 C5236 1.377 . S
C5250 C5249 1.373 . S
C5251 C5235 1.377 . S
C5251 C5249 1.389 . S
C5251 C5252 1.524 . S
C5252 C5251 1.524 . S
C5252 C5253 1.397 . S
C5252 C5257 1.363 . S
C5253 H5224 0.950 . S
C5253 C5252 1.397 . S
C5253 C5254 1.334 . S
C5254 H5225 0.950 . S
C5254 C5253 1.334 . S
C5254 C5255 1.287 . S
C5255 C5254 1.287 . S
C5255 C5256 1.524 . S
C5255 H5258 0.999 . S
C5256 H5226 0.950 . S
C5256 C5255 1.524 . S
C5256 C5257 1.415 . S
C5257 H5227 0.950 . S
C5257 C5252 1.363 . S
C5257 C5256 1.415 . S
H5258 C5255 0.999 . S
H5259 C5240 0.913 . S
H5260 C5278 0.951 . S
H5261 C5280 0.951 . S
H5262 C5282 0.950 . S
H5263 C5283 0.950 . S
H5264 C5285 0.950 . S
H5265 C5288 0.950 . S
H5266 C5289 0.950 . S
H5267 C5291 0.950 . S
H5268 C5292 0.950 . S
H5269 C5293 0.951 . S
H5270 C5295 0.951 . S
H5271 C5297 0.950 . S
H5272 C5298 0.950 . S
H5273 C5300 0.950 . S
H5274 C5303 0.950 . S
H5275 C5304 0.950 . S
H5276 C5306 0.950 . S
H5277 C5307 0.950 . S
C5278 H5260 0.951 . S
C5278 C5279 1.366 . S
C5278 C5280 1.388 . S
C5279 C5278 1.366 . S
C5279 C5283 1.385 . S
C5280 H5261 0.951 . S
C5280 C5278 1.388 . S
C5280 C5281 1.366 . S
C5281 C5280 1.366 . S
C5281 C5282 1.414 . S
C5281 C5284 1.499 . S
C5282 H5262 0.950 . S
C5282 C5281 1.414 . S
C5282 C5283 1.374 . S
C5283 H5263 0.950 . S
C5283 C5279 1.385 . S
C5283 C5282 1.374 . S
C5284 C5281 1.499 . S
C5284 C5285 1.373 . S
C5284 C5286 1.389 . S
C5285 H5264 0.950 . S
C5285 C5284 1.373 . S
C5285 C5301 1.377 . S
C5286 C5284 1.389 . S
C5286 C5287 1.524 . S
C5286 C5300 1.377 . S
C5287 C5286 1.524 . S
C5287 C5288 1.397 . S
C5287 C5292 1.363 . S
C5288 H5265 0.950 . S
C5288 C5287 1.397 . S
C5288 C5289 1.334 . S
C5289 H5266 0.950 . S
C5289 C5288 1.334 . S
C5289 C5290 1.287 . S
C5290 C5289 1.287 . S
C5290 C5291 1.524 . S
C5290 H5309 0.913 . S
C5291 H5267 0.950 . S
C5291 C5290 1.524 . S
C5291 C5292 1.415 . S
C5292 H5268 0.950 . S
C5292 C5287 1.363 . S
C5292 C5291 1.415 . S
C5293 H5269 0.951 . S
C5293 C5294 1.366 . S
C5293 C5295 1.388 . S
C5294 C5293 1.366 . S
C5294 C5298 1.385 . S
C5295 H5270 0.951 . S
C5295 C5293 1.388 . S
C5295 C5296 1.366 . S
C5296 C5295 1.366 . S
C5296 C5297 1.414 . S
C5296 C5299 1.499 . S
C5297 H5271 0.950 . S
C5297 C5296 1.414 . S
C5297 C5298 1.374 . S
C5298 H5272 0.950 . S
C5298 C5294 1.385 . S
C5298 C5297 1.374 . S
C5299 C5296 1.499 . S
C5299 C5300 1.373 . S
C5299 C5301 1.389 . S
C5300 H5273 0.950 . S
C5300 C5286 1.377 . S
C5300 C5299 1.373 . S
C5301 C5285 1.377 . S
C5301 C5299 1.389 . S
C5301 C5302 1.524 . S
C5302 C5301 1.524 . S
C5302 C5303 1.397 . S
C5302 C5307 1.363 . S
C5303 H5274 0.950 . S
C5303 C5302 1.397 . S
C5303 C5304 1.334 . S
C5304 H5275 0.950 . S
C5304 C5303 1.334 . S
C5304 C5305 1.287 . S
C5305 C5304 1.287 . S
C5305 C5306 1.524 . S
C5305 H5308 0.999 . S
C5306 H5276 0.950 . S
C5306 C5305 1.524 . S
C5306 C5307 1.415 . S
C5307 H5277 0.950 . S
C5307 C5302 1.363 . S
C5307 C5306 1.415 . S
H5308 C5305 0.999 . S
H5309 C5290 0.913 . S
H5310 C5328 0.951 . S
H5311 C5330 0.951 . S
H5312 C5332 0.950 . S
H5313 C5333 0.950 . S
H5314 C5335 0.950 . S
H5315 C5338 0.950 . S
H5316 C5339 0.950 . S
H5317 C5341 0.950 . S
H5318 C5342 0.950 . S
H5319 C5343 0.951 . S
H5320 C5345 0.951 . S
H5321 C5347 0.950 . S
H5322 C5348 0.950 . S
H5323 C5350 0.950 . S
H5324 C5353 0.950 . S
H5325 C5354 0.950 . S
H5326 C5356 0.950 . S
H5327 C5357 0.950 . S
C5328 H5310 0.951 . S
C5328 C5329 1.366 . S
C5328 C5330 1.388 . S
C5329 C5328 1.366 . S
C5329 C5333 1.385 . S
C5330 H5311 0.951 . S
C5330 C5328 1.388 . S
C5330 C5331 1.366 . S
C5331 C5330 1.366 . S
C5331 C5332 1.414 . S
C5331 C5334 1.499 . S
C5332 H5312 0.950 . S
C5332 C5331 1.414 . S
C5332 C5333 1.374 . S
C5333 H5313 0.950 . S
C5333 C5329 1.385 . S
C5333 C5332 1.374 . S
C5334 C5331 1.499 . S
C5334 C5335 1.373 . S
C5334 C5336 1.389 . S
C5335 H5314 0.950 . S
C5335 C5334 1.373 . S
C5335 C5351 1.377 . S
C5336 C5334 1.389 . S
C5336 C5337 1.524 . S
C5336 C5350 1.377 . S
C5337 C5336 1.524 . S
C5337 C5338 1.397 . S
C5337 C5342 1.363 . S
C5338 H5315 0.950 . S
C5338 C5337 1.397 . S
C5338 C5339 1.334 . S
C5339 H5316 0.950 . S
C5339 C5338 1.334 . S
C5339 C5340 1.287 . S
C5340 C5339 1.287 . S
C5340 C5341 1.524 . S
C5340 H5359 0.913 . S
C5341 H5317 0.950 . S
C5341 C5340 1.524 . S
C5341 C5342 1.415 . S
C5342 H5318 0.950 . S
C5342 C5337 1.363 . S
C5342 C5341 1.415 . S
C5343 H5319 0.951 . S
C5343 C5344 1.366 . S
C5343 C5345 1.388 . S
C5344 C5343 1.366 . S
C5344 C5348 1.385 . S
C5345 H5320 0.951 . S
C5345 C5343 1.388 . S
C5345 C5346 1.366 . S
C5346 C5345 1.366 . S
C5346 C5347 1.414 . S
C5346 C5349 1.499 . S
C5347 H5321 0.950 . S
C5347 C5346 1.414 . S
C5347 C5348 1.374 . S
C5348 H5322 0.950 . S
C5348 C5344 1.385 . S
C5348 C5347 1.374 . S
C5349 C5346 1.499 . S
C5349 C5350 1.373 . S
C5349 C5351 1.389 . S
C5350 H5323 0.950 . S
C5350 C5336 1.377 . S
C5350 C5349 1.373 . S
C5351 C5335 1.377 . S
C5351 C5349 1.389 . S
C5351 C5352 1.524 . S
C5352 C5351 1.524 . S
C5352 C5353 1.397 . S
C5352 C5357 1.363 . S
C5353 H5324 0.950 . S
C5353 C5352 1.397 . S
C5353 C5354 1.334 . S
C5354 H5325 0.950 . S
C5354 C5353 1.334 . S
C5354 C5355 1.287 . S
C5355 C5354 1.287 . S
C5355 C5356 1.524 . S
C5355 H5358 0.999 . S
C5356 H5326 0.950 . S
C5356 C5355 1.524 . S
C5356 C5357 1.415 . S
C5357 H5327 0.950 . S
C5357 C5352 1.363 . S
C5357 C5356 1.415 . S
H5358 C5355 0.999 . S
H5359 C5340 0.913 . S
H5360 C5378 0.951 . S
H5361 C5380 0.951 . S
H5362 C5382 0.950 . S
H5363 C5383 0.950 . S
H5364 C5385 0.950 . S
H5365 C5388 0.950 . S
H5366 C5389 0.950 . S
H5367 C5391 0.950 . S
H5368 C5392 0.950 . S
H5369 C5393 0.951 . S
H5370 C5395 0.951 . S
H5371 C5397 0.950 . S
H5372 C5398 0.950 . S
H5373 C5400 0.950 . S
H5374 C5403 0.950 . S
H5375 C5404 0.950 . S
H5376 C5406 0.950 . S
H5377 C5407 0.950 . S
C5378 H5360 0.951 . S
C5378 C5379 1.366 . S
C5378 C5380 1.388 . S
C5379 C5378 1.366 . S
C5379 C5383 1.385 . S
C5380 H5361 0.951 . S
C5380 C5378 1.388 . S
C5380 C5381 1.366 . S
C5381 C5380 1.366 . S
C5381 C5382 1.414 . S
C5381 C5384 1.499 . S
C5382 H5362 0.950 . S
C5382 C5381 1.414 . S
C5382 C5383 1.374 . S
C5383 H5363 0.950 . S
C5383 C5379 1.385 . S
C5383 C5382 1.374 . S
C5384 C5381 1.499 . S
C5384 C5385 1.373 . S
C5384 C5386 1.389 . S
C5385 H5364 0.950 . S
C5385 C5384 1.373 . S
C5385 C5401 1.377 . S
C5386 C5384 1.389 . S
C5386 C5387 1.524 . S
C5386 C5400 1.377 . S
C5387 C5386 1.524 . S
C5387 C5388 1.397 . S
C5387 C5392 1.363 . S
C5388 H5365 0.950 . S
C5388 C5387 1.397 . S
C5388 C5389 1.334 . S
C5389 H5366 0.950 . S
C5389 C5388 1.334 . S
C5389 C5390 1.287 . S
C5390 C5389 1.287 . S
C5390 C5391 1.524 . S
C5390 H5409 0.913 . S
C5391 H5367 0.950 . S
C5391 C5390 1.524 . S
C5391 C5392 1.415 . S
C5392 H5368 0.950 . S
C5392 C5387 1.363 . S
C5392 C5391 1.415 . S
C5393 H5369 0.951 . S
C5393 C5394 1.366 . S
C5393 C5395 1.388 . S
C5394 C5393 1.366 . S
C5394 C5398 1.385 . S
C5395 H5370 0.951 . S
C5395 C5393 1.388 . S
C5395 C5396 1.366 . S
C5396 C5395 1.366 . S
C5396 C5397 1.414 . S
C5396 C5399 1.499 . S
C5397 H5371 0.950 . S
C5397 C5396 1.414 . S
C5397 C5398 1.374 . S
C5398 H5372 0.950 . S
C5398 C5394 1.385 . S
C5398 C5397 1.374 . S
C5399 C5396 1.499 . S
C5399 C5400 1.373 . S
C5399 C5401 1.389 . S
C5400 H5373 0.950 . S
C5400 C5386 1.377 . S
C5400 C5399 1.373 . S
C5401 C5385 1.377 . S
C5401 C5399 1.389 . S
C5401 C5402 1.524 . S
C5402 C5401 1.524 . S
C5402 C5403 1.397 . S
C5402 C5407 1.363 . S
C5403 H5374 0.950 . S
C5403 C5402 1.397 . S
C5403 C5404 1.334 . S
C5404 H5375 0.950 . S
C5404 C5403 1.334 . S
C5404 C5405 1.287 . S
C5405 C5404 1.287 . S
C5405 C5406 1.524 . S
C5405 H5408 0.999 . S
C5406 H5376 0.950 . S
C5406 C5405 1.524 . S
C5406 C5407 1.415 . S
C5407 H5377 0.950 . S
C5407 C5402 1.363 . S
C5407 C5406 1.415 . S
H5408 C5405 0.999 . S
H5409 C5390 0.913 . S
H5410 C5428 0.951 . S
H5411 C5430 0.951 . S
H5412 C5432 0.950 . S
H5413 C5433 0.950 . S
H5414 C5435 0.950 . S
H5415 C5438 0.950 . S
H5416 C5439 0.950 . S
H5417 C5441 0.950 . S
H5418 C5442 0.950 . S
H5419 C5443 0.951 . S
H5420 C5445 0.951 . S
H5421 C5447 0.950 . S
H5422 C5448 0.950 . S
H5423 C5450 0.950 . S
H5424 C5453 0.950 . S
H5425 C5454 0.950 . S
H5426 C5456 0.950 . S
H5427 C5457 0.950 . S
C5428 H5410 0.951 . S
C5428 C5429 1.366 . S
C5428 C5430 1.388 . S
C5429 C5428 1.366 . S
C5429 C5433 1.385 . S
C5430 H5411 0.951 . S
C5430 C5428 1.388 . S
C5430 C5431 1.366 . S
C5431 C5430 1.366 . S
C5431 C5432 1.414 . S
C5431 C5434 1.499 . S
C5432 H5412 0.950 . S
C5432 C5431 1.414 . S
C5432 C5433 1.374 . S
C5433 H5413 0.950 . S
C5433 C5429 1.385 . S
C5433 C5432 1.374 . S
C5434 C5431 1.499 . S
C5434 C5435 1.373 . S
C5434 C5436 1.389 . S
C5435 H5414 0.950 . S
C5435 C5434 1.373 . S
C5435 C5451 1.377 . S
C5436 C5434 1.389 . S
C5436 C5437 1.524 . S
C5436 C5450 1.377 . S
C5437 C5436 1.524 . S
C5437 C5438 1.397 . S
C5437 C5442 1.363 . S
C5438 H5415 0.950 . S
C5438 C5437 1.397 . S
C5438 C5439 1.334 . S
C5439 H5416 0.950 . S
C5439 C5438 1.334 . S
C5439 C5440 1.287 . S
C5440 C5439 1.287 . S
C5440 C5441 1.524 . S
C5440 H5459 0.913 . S
C5441 H5417 0.950 . S
C5441 C5440 1.524 . S
C5441 C5442 1.415 . S
C5442 H5418 0.950 . S
C5442 C5437 1.363 . S
C5442 C5441 1.415 . S
C5443 H5419 0.951 . S
C5443 C5444 1.366 . S
C5443 C5445 1.388 . S
C5444 C5443 1.366 . S
C5444 C5448 1.385 . S
C5445 H5420 0.951 . S
C5445 C5443 1.388 . S
C5445 C5446 1.366 . S
C5446 C5445 1.366 . S
C5446 C5447 1.414 . S
C5446 C5449 1.499 . S
C5447 H5421 0.950 . S
C5447 C5446 1.414 . S
C5447 C5448 1.374 . S
C5448 H5422 0.950 . S
C5448 C5444 1.385 . S
C5448 C5447 1.374 . S
C5449 C5446 1.499 . S
C5449 C5450 1.373 . S
C5449 C5451 1.389 . S
C5450 H5423 0.950 . S
C5450 C5436 1.377 . S
C5450 C5449 1.373 . S
C5451 C5435 1.377 . S
C5451 C5449 1.389 . S
C5451 C5452 1.524 . S
C5452 C5451 1.524 . S
C5452 C5453 1.397 . S
C5452 C5457 1.363 . S
C5453 H5424 0.950 . S
C5453 C5452 1.397 . S
C5453 C5454 1.334 . S
C5454 H5425 0.950 . S
C5454 C5453 1.334 . S
C5454 C5455 1.287 . S
C5455 C5454 1.287 . S
C5455 C5456 1.524 . S
C5455 H5458 0.999 . S
C5456 H5426 0.950 . S
C5456 C5455 1.524 . S
C5456 C5457 1.415 . S
C5457 H5427 0.950 . S
C5457 C5452 1.363 . S
C5457 C5456 1.415 . S
H5458 C5455 0.999 . S
H5459 C5440 0.913 . S
H5460 C5478 0.951 . S
H5461 C5480 0.951 . S
H5462 C5482 0.950 . S
H5463 C5483 0.950 . S
H5464 C5485 0.950 . S
H5465 C5488 0.950 . S
H5466 C5489 0.950 . S
H5467 C5491 0.950 . S
H5468 C5492 0.950 . S
H5469 C5493 0.951 . S
H5470 C5495 0.951 . S
H5471 C5497 0.950 . S
H5472 C5498 0.950 . S
H5473 C5500 0.950 . S
H5474 C5503 0.950 . S
H5475 C5504 0.950 . S
H5476 C5506 0.950 . S
H5477 C5507 0.950 . S
C5478 H5460 0.951 . S
C5478 C5479 1.366 . S
C5478 C5480 1.388 . S
C5479 C5478 1.366 . S
C5479 C5483 1.385 . S
C5480 H5461 0.951 . S
C5480 C5478 1.388 . S
C5480 C5481 1.366 . S
C5481 C5480 1.366 . S
C5481 C5482 1.414 . S
C5481 C5484 1.499 . S
C5482 H5462 0.950 . S
C5482 C5481 1.414 . S
C5482 C5483 1.374 . S
C5483 H5463 0.950 . S
C5483 C5479 1.385 . S
C5483 C5482 1.374 . S
C5484 C5481 1.499 . S
C5484 C5485 1.373 . S
C5484 C5486 1.389 . S
C5485 H5464 0.950 . S
C5485 C5484 1.373 . S
C5485 C5501 1.377 . S
C5486 C5484 1.389 . S
C5486 C5487 1.524 . S
C5486 C5500 1.377 . S
C5487 C5486 1.524 . S
C5487 C5488 1.397 . S
C5487 C5492 1.363 . S
C5488 H5465 0.950 . S
C5488 C5487 1.397 . S
C5488 C5489 1.334 . S
C5489 H5466 0.950 . S
C5489 C5488 1.334 . S
C5489 C5490 1.287 . S
C5490 C5489 1.287 . S
C5490 C5491 1.524 . S
C5490 H5509 0.913 . S
C5491 H5467 0.950 . S
C5491 C5490 1.524 . S
C5491 C5492 1.415 . S
C5492 H5468 0.950 . S
C5492 C5487 1.363 . S
C5492 C5491 1.415 . S
C5493 H5469 0.951 . S
C5493 C5494 1.366 . S
C5493 C5495 1.388 . S
C5494 C5493 1.366 . S
C5494 C5498 1.385 . S
C5495 H5470 0.951 . S
C5495 C5493 1.388 . S
C5495 C5496 1.366 . S
C5496 C5495 1.366 . S
C5496 C5497 1.414 . S
C5496 C5499 1.499 . S
C5497 H5471 0.950 . S
C5497 C5496 1.414 . S
C5497 C5498 1.374 . S
C5498 H5472 0.950 . S
C5498 C5494 1.385 . S
C5498 C5497 1.374 . S
C5499 C5496 1.499 . S
C5499 C5500 1.373 . S
C5499 C5501 1.389 . S
C5500 H5473 0.950 . S
C5500 C5486 1.377 . S
C5500 C5499 1.373 . S
C5501 C5485 1.377 . S
C5501 C5499 1.389 . S
C5501 C5502 1.524 . S
C5502 C5501 1.524 . S
C5502 C5503 1.397 . S
C5502 C5507 1.363 . S
C5503 H5474 0.950 . S
C5503 C5502 1.397 . S
C5503 C5504 1.334 . S
C5504 H5475 0.950 . S
C5504 C5503 1.334 . S
C5504 C5505 1.287 . S
C5505 C5504 1.287 . S
C5505 C5506 1.524 . S
C5505 H5508 0.999 . S
C5506 H5476 0.950 . S
C5506 C5505 1.524 . S
C5506 C5507 1.415 . S
C5507 H5477 0.950 . S
C5507 C5502 1.363 . S
C5507 C5506 1.415 . S
H5508 C5505 0.999 . S
H5509 C5490 0.913 . S
H5510 C5528 0.951 . S
H5511 C5530 0.951 . S
H5512 C5532 0.950 . S
H5513 C5533 0.950 . S
H5514 C5535 0.950 . S
H5515 C5538 0.950 . S
H5516 C5539 0.950 . S
H5517 C5541 0.950 . S
H5518 C5542 0.950 . S
H5519 C5543 0.951 . S
H5520 C5545 0.951 . S
H5521 C5547 0.950 . S
H5522 C5548 0.950 . S
H5523 C5550 0.950 . S
H5524 C5553 0.950 . S
H5525 C5554 0.950 . S
H5526 C5556 0.950 . S
H5527 C5557 0.950 . S
C5528 H5510 0.951 . S
C5528 C5529 1.366 . S
C5528 C5530 1.388 . S
C5529 C5528 1.366 . S
C5529 C5533 1.385 . S
C5530 H5511 0.951 . S
C5530 C5528 1.388 . S
C5530 C5531 1.366 . S
C5531 C5530 1.366 . S
C5531 C5532 1.414 . S
C5531 C5534 1.499 . S
C5532 H5512 0.950 . S
C5532 C5531 1.414 . S
C5532 C5533 1.374 . S
C5533 H5513 0.950 . S
C5533 C5529 1.385 . S
C5533 C5532 1.374 . S
C5534 C5531 1.499 . S
C5534 C5535 1.373 . S
C5534 C5536 1.389 . S
C5535 H5514 0.950 . S
C5535 C5534 1.373 . S
C5535 C5551 1.377 . S
C5536 C5534 1.389 . S
C5536 C5537 1.524 . S
C5536 C5550 1.377 . S
C5537 C5536 1.524 . S
C5537 C5538 1.397 . S
C5537 C5542 1.363 . S
C5538 H5515 0.950 . S
C5538 C5537 1.397 . S
C5538 C5539 1.334 . S
C5539 H5516 0.950 . S
C5539 C5538 1.334 . S
C5539 C5540 1.287 . S
C5540 C5539 1.287 . S
C5540 C5541 1.524 . S
C5540 H5559 0.913 . S
C5541 H5517 0.950 . S
C5541 C5540 1.524 . S
C5541 C5542 1.415 . S
C5542 H5518 0.950 . S
C5542 C5537 1.363 . S
C5542 C5541 1.415 . S
C5543 H5519 0.951 . S
C5543 C5544 1.366 . S
C5543 C5545 1.388 . S
C5544 C5543 1.366 . S
C5544 C5548 1.385 . S
C5545 H5520 0.951 . S
C5545 C5543 1.388 . S
C5545 C5546 1.366 . S
C5546 C5545 1.366 . S
C5546 C5547 1.414 . S
C5546 C5549 1.499 . S
C5547 H5521 0.950 . S
C5547 C5546 1.414 . S
C5547 C5548 1.374 . S
C5548 H5522 0.950 . S
C5548 C5544 1.385 . S
C5548 C5547 1.374 . S
C5549 C5546 1.499 . S
C5549 C5550 1.373 . S
C5549 C5551 1.389 . S
C5550 H5523 0.950 . S
C5550 C5536 1.377 . S
C5550 C5549 1.373 . S
C5551 C5535 1.377 . S
C5551 C5549 1.389 . S
C5551 C5552 1.524 . S
C5552 C5551 1.524 . S
C5552 C5553 1.397 . S
C5552 C5557 1.363 . S
C5553 H5524 0.950 . S
C5553 C5552 1.397 . S
C5553 C5554 1.334 . S
C5554 H5525 0.950 . S
C5554 C5553 1.334 . S
C5554 C5555 1.287 . S
C5555 C5554 1.287 . S
C5555 C5556 1.524 . S
C5555 H5558 0.999 . S
C5556 H5526 0.950 . S
C5556 C5555 1.524 . S
C5556 C5557 1.415 . S
C5557 H5527 0.950 . S
C5557 C5552 1.363 . S
C5557 C5556 1.415 . S
H5558 C5555 0.999 . S
H5559 C5540 0.913 . S
H5560 C5578 0.951 . S
H5561 C5580 0.951 . S
H5562 C5582 0.950 . S
H5563 C5583 0.950 . S
H5564 C5585 0.950 . S
H5565 C5588 0.950 . S
H5566 C5589 0.950 . S
H5567 C5591 0.950 . S
H5568 C5592 0.950 . S
H5569 C5593 0.951 . S
H5570 C5595 0.951 . S
H5571 C5597 0.950 . S
H5572 C5598 0.950 . S
H5573 C5600 0.950 . S
H5574 C5603 0.950 . S
H5575 C5604 0.950 . S
H5576 C5606 0.950 . S
H5577 C5607 0.950 . S
C5578 H5560 0.951 . S
C5578 C5579 1.366 . S
C5578 C5580 1.388 . S
C5579 C5578 1.366 . S
C5579 C5583 1.385 . S
C5580 H5561 0.951 . S
C5580 C5578 1.388 . S
C5580 C5581 1.366 . S
C5581 C5580 1.366 . S
C5581 C5582 1.414 . S
C5581 C5584 1.499 . S
C5582 H5562 0.950 . S
C5582 C5581 1.414 . S
C5582 C5583 1.374 . S
C5583 H5563 0.950 . S
C5583 C5579 1.385 . S
C5583 C5582 1.374 . S
C5584 C5581 1.499 . S
C5584 C5585 1.373 . S
C5584 C5586 1.389 . S
C5585 H5564 0.950 . S
C5585 C5584 1.373 . S
C5585 C5601 1.377 . S
C5586 C5584 1.389 . S
C5586 C5587 1.524 . S
C5586 C5600 1.377 . S
C5587 C5586 1.524 . S
C5587 C5588 1.397 . S
C5587 C5592 1.363 . S
C5588 H5565 0.950 . S
C5588 C5587 1.397 . S
C5588 C5589 1.334 . S
C5589 H5566 0.950 . S
C5589 C5588 1.334 . S
C5589 C5590 1.287 . S
C5590 C5589 1.287 . S
C5590 C5591 1.524 . S
C5590 H5609 0.913 . S
C5591 H5567 0.950 . S
C5591 C5590 1.524 . S
C5591 C5592 1.415 . S
C5592 H5568 0.950 . S
C5592 C5587 1.363 . S
C5592 C5591 1.415 . S
C5593 H5569 0.951 . S
C5593 C5594 1.366 . S
C5593 C5595 1.388 . S
C5594 C5593 1.366 . S
C5594 C5598 1.385 . S
C5595 H5570 0.951 . S
C5595 C5593 1.388 . S
C5595 C5596 1.366 . S
C5596 C5595 1.366 . S
C5596 C5597 1.414 . S
C5596 C5599 1.499 . S
C5597 H5571 0.950 . S
C5597 C5596 1.414 . S
C5597 C5598 1.374 . S
C5598 H5572 0.950 . S
C5598 C5594 1.385 . S
C5598 C5597 1.374 . S
C5599 C5596 1.499 . S
C5599 C5600 1.373 . S
C5599 C5601 1.389 . S
C5600 H5573 0.950 . S
C5600 C5586 1.377 . S
C5600 C5599 1.373 . S
C5601 C5585 1.377 . S
C5601 C5599 1.389 . S
C5601 C5602 1.524 . S
C5602 C5601 1.524 . S
C5602 C5603 1.397 . S
C5602 C5607 1.363 . S
C5603 H5574 0.950 . S
C5603 C5602 1.397 . S
C5603 C5604 1.334 . S
C5604 H5575 0.950 . S
C5604 C5603 1.334 . S
C5604 C5605 1.287 . S
C5605 C5604 1.287 . S
C5605 C5606 1.524 . S
C5605 H5608 0.999 . S
C5606 H5576 0.950 . S
C5606 C5605 1.524 . S
C5606 C5607 1.415 . S
C5607 H5577 0.950 . S
C5607 C5602 1.363 . S
C5607 C5606 1.415 . S
H5608 C5605 0.999 . S
H5609 C5590 0.913 . S
H5610 C5628 0.951 . S
H5611 C5630 0.951 . S
H5612 C5632 0.950 . S
H5613 C5633 0.950 . S
H5614 C5635 0.950 . S
H5615 C5638 0.950 . S
H5616 C5639 0.950 . S
H5617 C5641 0.950 . S
H5618 C5642 0.950 . S
H5619 C5643 0.951 . S
H5620 C5645 0.951 . S
H5621 C5647 0.950 . S
H5622 C5648 0.950 . S
H5623 C5650 0.950 . S
H5624 C5653 0.950 . S
H5625 C5654 0.950 . S
H5626 C5656 0.950 . S
H5627 C5657 0.950 . S
C5628 H5610 0.951 . S
C5628 C5629 1.366 . S
C5628 C5630 1.388 . S
C5629 C5628 1.366 . S
C5629 C5633 1.385 . S
C5630 H5611 0.951 . S
C5630 C5628 1.388 . S
C5630 C5631 1.366 . S
C5631 C5630 1.366 . S
C5631 C5632 1.414 . S
C5631 C5634 1.499 . S
C5632 H5612 0.950 . S
C5632 C5631 1.414 . S
C5632 C5633 1.374 . S
C5633 H5613 0.950 . S
C5633 C5629 1.385 . S
C5633 C5632 1.374 . S
C5634 C5631 1.499 . S
C5634 C5635 1.373 . S
C5634 C5636 1.389 . S
C5635 H5614 0.950 . S
C5635 C5634 1.373 . S
C5635 C5651 1.377 . S
C5636 C5634 1.389 . S
C5636 C5637 1.524 . S
C5636 C5650 1.377 . S
C5637 C5636 1.524 . S
C5637 C5638 1.397 . S
C5637 C5642 1.363 . S
C5638 H5615 0.950 . S
C5638 C5637 1.397 . S
C5638 C5639 1.334 . S
C5639 H5616 0.950 . S
C5639 C5638 1.334 . S
C5639 C5640 1.287 . S
C5640 C5639 1.287 . S
C5640 C5641 1.524 . S
C5640 H5659 0.913 . S
C5641 H5617 0.950 . S
C5641 C5640 1.524 . S
C5641 C5642 1.415 . S
C5642 H5618 0.950 . S
C5642 C5637 1.363 . S
C5642 C5641 1.415 . S
C5643 H5619 0.951 . S
C5643 C5644 1.366 . S
C5643 C5645 1.388 . S
C5644 C5643 1.366 . S
C5644 C5648 1.385 . S
C5645 H5620 0.951 . S
C5645 C5643 1.388 . S
C5645 C5646 1.366 . S
C5646 C5645 1.366 . S
C5646 C5647 1.414 . S
C5646 C5649 1.499 . S
C5647 H5621 0.950 . S
C5647 C5646 1.414 . S
C5647 C5648 1.374 . S
C5648 H5622 0.950 . S
C5648 C5644 1.385 . S
C5648 C5647 1.374 . S
C5649 C5646 1.499 . S
C5649 C5650 1.373 . S
C5649 C5651 1.389 . S
C5650 H5623 0.950 . S
C5650 C5636 1.377 . S
C5650 C5649 1.373 . S
C5651 C5635 1.377 . S
C5651 C5649 1.389 . S
C5651 C5652 1.524 . S
C5652 C5651 1.524 . S
C5652 C5653 1.397 . S
C5652 C5657 1.363 . S
C5653 H5624 0.950 . S
C5653 C5652 1.397 . S
C5653 C5654 1.334 . S
C5654 H5625 0.950 . S
C5654 C5653 1.334 . S
C5654 C5655 1.287 . S
C5655 C5654 1.287 . S
C5655 C5656 1.524 . S
C5655 H5658 0.999 . S
C5656 H5626 0.950 . S
C5656 C5655 1.524 . S
C5656 C5657 1.415 . S
C5657 H5627 0.950 . S
C5657 C5652 1.363 . S
C5657 C5656 1.415 . S
H5658 C5655 0.999 . S
H5659 C5640 0.913 . S
H5660 C5678 0.951 . S
H5661 C5680 0.951 . S
H5662 C5682 0.950 . S
H5663 C5683 0.950 . S
H5664 C5685 0.950 . S
H5665 C5688 0.950 . S
H5666 C5689 0.950 . S
H5667 C5691 0.950 . S
H5668 C5692 0.950 . S
H5669 C5693 0.951 . S
H5670 C5695 0.951 . S
H5671 C5697 0.950 . S
H5672 C5698 0.950 . S
H5673 C5700 0.950 . S
H5674 C5703 0.950 . S
H5675 C5704 0.950 . S
H5676 C5706 0.950 . S
H5677 C5707 0.950 . S
C5678 H5660 0.951 . S
C5678 C5679 1.366 . S
C5678 C5680 1.388 . S
C5679 C5678 1.366 . S
C5679 C5683 1.385 . S
C5680 H5661 0.951 . S
C5680 C5678 1.388 . S
C5680 C5681 1.366 . S
C5681 C5680 1.366 . S
C5681 C5682 1.414 . S
C5681 C5684 1.499 . S
C5682 H5662 0.950 . S
C5682 C5681 1.414 . S
C5682 C5683 1.374 . S
C5683 H5663 0.950 . S
C5683 C5679 1.385 . S
C5683 C5682 1.374 . S
C5684 C5681 1.499 . S
C5684 C5685 1.373 . S
C5684 C5686 1.389 . S
C5685 H5664 0.950 . S
C5685 C5684 1.373 . S
C5685 C5701 1.377 . S
C5686 C5684 1.389 . S
C5686 C5687 1.524 . S
C5686 C5700 1.377 . S
C5687 C5686 1.524 . S
C5687 C5688 1.397 . S
C5687 C5692 1.363 . S
C5688 H5665 0.950 . S
C5688 C5687 1.397 . S
C5688 C5689 1.334 . S
C5689 H5666 0.950 . S
C5689 C5688 1.334 . S
C5689 C5690 1.287 . S
C5690 C5689 1.287 . S
C5690 C5691 1.524 . S
C5690 H5709 0.913 . S
C5691 H5667 0.950 . S
C5691 C5690 1.524 . S
C5691 C5692 1.415 . S
C5692 H5668 0.950 . S
C5692 C5687 1.363 . S
C5692 C5691 1.415 . S
C5693 H5669 0.951 . S
C5693 C5694 1.366 . S
C5693 C5695 1.388 . S
C5694 C5693 1.366 . S
C5694 C5698 1.385 . S
C5695 H5670 0.951 . S
C5695 C5693 1.388 . S
C5695 C5696 1.366 . S
C5696 C5695 1.366 . S
C5696 C5697 1.414 . S
C5696 C5699 1.499 . S
C5697 H5671 0.950 . S
C5697 C5696 1.414 . S
C5697 C5698 1.374 . S
C5698 H5672 0.950 . S
C5698 C5694 1.385 . S
C5698 C5697 1.374 . S
C5699 C5696 1.499 . S
C5699 C5700 1.373 . S
C5699 C5701 1.389 . S
C5700 H5673 0.950 . S
C5700 C5686 1.377 . S
C5700 C5699 1.373 . S
C5701 C5685 1.377 . S
C5701 C5699 1.389 . S
C5701 C5702 1.524 . S
C5702 C5701 1.524 . S
C5702 C5703 1.397 . S
C5702 C5707 1.363 . S
C5703 H5674 0.950 . S
C5703 C5702 1.397 . S
C5703 C5704 1.334 . S
C5704 H5675 0.950 . S
C5704 C5703 1.334 . S
C5704 C5705 1.287 . S
C5705 C5704 1.287 . S
C5705 C5706 1.524 . S
C5705 H5708 0.999 . S
C5706 H5676 0.950 . S
C5706 C5705 1.524 . S
C5706 C5707 1.415 . S
C5707 H5677 0.950 . S
C5707 C5702 1.363 . S
C5707 C5706 1.415 . S
H5708 C5705 0.999 . S
H5709 C5690 0.913 . S
H5710 C5728 0.951 . S
H5711 C5730 0.951 . S
H5712 C5732 0.950 . S
H5713 C5733 0.950 . S
H5714 C5735 0.950 . S
H5715 C5738 0.950 . S
H5716 C5739 0.950 . S
H5717 C5741 0.950 . S
H5718 C5742 0.950 . S
H5719 C5743 0.951 . S
H5720 C5745 0.951 . S
H5721 C5747 0.950 . S
H5722 C5748 0.950 . S
H5723 C5750 0.950 . S
H5724 C5753 0.950 . S
H5725 C5754 0.950 . S
H5726 C5756 0.950 . S
H5727 C5757 0.950 . S
C5728 H5710 0.951 . S
C5728 C5729 1.366 . S
C5728 C5730 1.388 . S
C5729 C5728 1.366 . S
C5729 C5733 1.385 . S
C5730 H5711 0.951 . S
C5730 C5728 1.388 . S
C5730 C5731 1.366 . S
C5731 C5730 1.366 . S
C5731 C5732 1.414 . S
C5731 C5734 1.499 . S
C5732 H5712 0.950 . S
C5732 C5731 1.414 . S
C5732 C5733 1.374 . S
C5733 H5713 0.950 . S
C5733 C5729 1.385 . S
C5733 C5732 1.374 . S
C5734 C5731 1.499 . S
C5734 C5735 1.373 . S
C5734 C5736 1.389 . S
C5735 H5714 0.950 . S
C5735 C5734 1.373 . S
C5735 C5751 1.377 . S
C5736 C5734 1.389 . S
C5736 C5737 1.524 . S
C5736 C5750 1.377 . S
C5737 C5736 1.524 . S
C5737 C5738 1.397 . S
C5737 C5742 1.363 . S
C5738 H5715 0.950 . S
C5738 C5737 1.397 . S
C5738 C5739 1.334 . S
C5739 H5716 0.950 . S
C5739 C5738 1.334 . S
C5739 C5740 1.287 . S
C5740 C5739 1.287 . S
C5740 C5741 1.524 . S
C5740 H5759 0.913 . S
C5741 H5717 0.950 . S
C5741 C5740 1.524 . S
C5741 C5742 1.415 . S
C5742 H5718 0.950 . S
C5742 C5737 1.363 . S
C5742 C5741 1.415 . S
C5743 H5719 0.951 . S
C5743 C5744 1.366 . S
C5743 C5745 1.388 . S
C5744 C5743 1.366 . S
C5744 C5748 1.385 . S
C5745 H5720 0.951 . S
C5745 C5743 1.388 . S
C5745 C5746 1.366 . S
C5746 C5745 1.366 . S
C5746 C5747 1.414 . S
C5746 C5749 1.499 . S
C5747 H5721 0.950 . S
C5747 C5746 1.414 . S
C5747 C5748 1.374 . S
C5748 H5722 0.950 . S
C5748 C5744 1.385 . S
C5748 C5747 1.374 . S
C5749 C5746 1.499 . S
C5749 C5750 1.373 . S
C5749 C5751 1.389 . S
C5750 H5723 0.950 . S
C5750 C5736 1.377 . S
C5750 C5749 1.373 . S
C5751 C5735 1.377 . S
C5751 C5749 1.389 . S
C5751 C5752 1.524 . S
C5752 C5751 1.524 . S
C5752 C5753 1.397 . S
C5752 C5757 1.363 . S
C5753 H5724 0.950 . S
C5753 C5752 1.397 . S
C5753 C5754 1.334 . S
C5754 H5725 0.950 . S
C5754 C5753 1.334 . S
C5754 C5755 1.287 . S
C5755 C5754 1.287 . S
C5755 C5756 1.524 . S
C5755 H5758 0.999 . S
C5756 H5726 0.950 . S
C5756 C5755 1.524 . S
C5756 C5757 1.415 . S
C5757 H5727 0.950 . S
C5757 C5752 1.363 . S
C5757 C5756 1.415 . S
H5758 C5755 0.999 . S
H5759 C5740 0.913 . S
H5760 C5778 0.951 . S
H5761 C5780 0.951 . S
H5762 C5782 0.950 . S
H5763 C5783 0.950 . S
H5764 C5785 0.950 . S
H5765 C5788 0.950 . S
H5766 C5789 0.950 . S
H5767 C5791 0.950 . S
H5768 C5792 0.950 . S
H5769 C5793 0.951 . S
H5770 C5795 0.951 . S
H5771 C5797 0.950 . S
H5772 C5798 0.950 . S
H5773 C5800 0.950 . S
H5774 C5803 0.950 . S
H5775 C5804 0.950 . S
H5776 C5806 0.950 . S
H5777 C5807 0.950 . S
C5778 H5760 0.951 . S
C5778 C5779 1.366 . S
C5778 C5780 1.388 . S
C5779 C5778 1.366 . S
C5779 C5783 1.385 . S
C5780 H5761 0.951 . S
C5780 C5778 1.388 . S
C5780 C5781 1.366 . S
C5781 C5780 1.366 . S
C5781 C5782 1.414 . S
C5781 C5784 1.499 . S
C5782 H5762 0.950 . S
C5782 C5781 1.414 . S
C5782 C5783 1.374 . S
C5783 H5763 0.950 . S
C5783 C5779 1.385 . S
C5783 C5782 1.374 . S
C5784 C5781 1.499 . S
C5784 C5785 1.373 . S
C5784 C5786 1.389 . S
C5785 H5764 0.950 . S
C5785 C5784 1.373 . S
C5785 C5801 1.377 . S
C5786 C5784 1.389 . S
C5786 C5787 1.524 . S
C5786 C5800 1.377 . S
C5787 C5786 1.524 . S
C5787 C5788 1.397 . S
C5787 C5792 1.363 . S
C5788 H5765 0.950 . S
C5788 C5787 1.397 . S
C5788 C5789 1.334 . S
C5789 H5766 0.950 . S
C5789 C5788 1.334 . S
C5789 C5790 1.287 . S
C5790 C5789 1.287 . S
C5790 C5791 1.524 . S
C5790 H5809 0.913 . S
C5791 H5767 0.950 . S
C5791 C5790 1.524 . S
C5791 C5792 1.415 . S
C5792 H5768 0.950 . S
C5792 C5787 1.363 . S
C5792 C5791 1.415 . S
C5793 H5769 0.951 . S
C5793 C5794 1.366 . S
C5793 C5795 1.388 . S
C5794 C5793 1.366 . S
C5794 C5798 1.385 . S
C5795 H5770 0.951 . S
C5795 C5793 1.388 . S
C5795 C5796 1.366 . S
C5796 C5795 1.366 . S
C5796 C5797 1.414 . S
C5796 C5799 1.499 . S
C5797 H5771 0.950 . S
C5797 C5796 1.414 . S
C5797 C5798 1.374 . S
C5798 H5772 0.950 . S
C5798 C5794 1.385 . S
C5798 C5797 1.374 . S
C5799 C5796 1.499 . S
C5799 C5800 1.373 . S
C5799 C5801 1.389 . S
C5800 H5773 0.950 . S
C5800 C5786 1.377 . S
C5800 C5799 1.373 . S
C5801 C5785 1.377 . S
C5801 C5799 1.389 . S
C5801 C5802 1.524 . S
C5802 C5801 1.524 . S
C5802 C5803 1.397 . S
C5802 C5807 1.363 . S
C5803 H5774 0.950 . S
C5803 C5802 1.397 . S
C5803 C5804 1.334 . S
C5804 H5775 0.950 . S
C5804 C5803 1.334 . S
C5804 C5805 1.287 . S
C5805 C5804 1.287 . S
C5805 C5806 1.524 . S
C5805 H5808 0.999 . S
C5806 H5776 0.950 . S
C5806 C5805 1.524 . S
C5806 C5807 1.415 . S
C5807 H5777 0.950 . S
C5807 C5802 1.363 . S
C5807 C5806 1.415 . S
H5808 C5805 0.999 . S
H5809 C5790 0.913 . S
H5810 C5828 0.951 . S
H5811 C5830 0.951 . S
H5812 C5832 0.950 . S
H5813 C5833 0.950 . S
H5814 C5835 0.950 . S
H5815 C5838 0.950 . S
H5816 C5839 0.950 . S
H5817 C5841 0.950 . S
H5818 C5842 0.950 . S
H5819 C5843 0.951 . S
H5820 C5845 0.951 . S
H5821 C5847 0.950 . S
H5822 C5848 0.950 . S
H5823 C5850 0.950 . S
H5824 C5853 0.950 . S
H5825 C5854 0.950 . S
H5826 C5856 0.950 . S
H5827 C5857 0.950 . S
C5828 H5810 0.951 . S
C5828 C5829 1.366 . S
C5828 C5830 1.388 . S
C5829 C5828 1.366 . S
C5829 C5833 1.385 . S
C5830 H5811 0.951 . S
C5830 C5828 1.388 . S
C5830 C5831 1.366 . S
C5831 C5830 1.366 . S
C5831 C5832 1.414 . S
C5831 C5834 1.499 . S
C5832 H5812 0.950 . S
C5832 C5831 1.414 . S
C5832 C5833 1.374 . S
C5833 H5813 0.950 . S
C5833 C5829 1.385 . S
C5833 C5832 1.374 . S
C5834 C5831 1.499 . S
C5834 C5835 1.373 . S
C5834 C5836 1.389 . S
C5835 H5814 0.950 . S
C5835 C5834 1.373 . S
C5835 C5851 1.377 . S
C5836 C5834 1.389 . S
C5836 C5837 1.524 . S
C5836 C5850 1.377 . S
C5837 C5836 1.524 . S
C5837 C5838 1.397 . S
C5837 C5842 1.363 . S
C5838 H5815 0.950 . S
C5838 C5837 1.397 . S
C5838 C5839 1.334 . S
C5839 H5816 0.950 . S
C5839 C5838 1.334 . S
C5839 C5840 1.287 . S
C5840 C5839 1.287 . S
C5840 C5841 1.524 . S
C5840 H5859 0.913 . S
C5841 H5817 0.950 . S
C5841 C5840 1.524 . S
C5841 C5842 1.415 . S
C5842 H5818 0.950 . S
C5842 C5837 1.363 . S
C5842 C5841 1.415 . S
C5843 H5819 0.951 . S
C5843 C5844 1.366 . S
C5843 C5845 1.388 . S
C5844 C5843 1.366 . S
C5844 C5848 1.385 . S
C5845 H5820 0.951 . S
C5845 C5843 1.388 . S
C5845 C5846 1.366 . S
C5846 C5845 1.366 . S
C5846 C5847 1.414 . S
C5846 C5849 1.499 . S
C5847 H5821 0.950 . S
C5847 C5846 1.414 . S
C5847 C5848 1.374 . S
C5848 H5822 0.950 . S
C5848 C5844 1.385 . S
C5848 C5847 1.374 . S
C5849 C5846 1.499 . S
C5849 C5850 1.373 . S
C5849 C5851 1.389 . S
C5850 H5823 0.950 . S
C5850 C5836 1.377 . S
C5850 C5849 1.373 . S
C5851 C5835 1.377 . S
C5851 C5849 1.389 . S
C5851 C5852 1.524 . S
C5852 C5851 1.524 . S
C5852 C5853 1.397 . S
C5852 C5857 1.363 . S
C5853 H5824 0.950 . S
C5853 C5852 1.397 . S
C5853 C5854 1.334 . S
C5854 H5825 0.950 . S
C5854 C5853 1.334 . S
C5854 C5855 1.287 . S
C5855 C5854 1.287 . S
C5855 C5856 1.524 . S
C5855 H5858 0.999 . S
C5856 H5826 0.950 . S
C5856 C5855 1.524 . S
C5856 C5857 1.415 . S
C5857 H5827 0.950 . S
C5857 C5852 1.363 . S
C5857 C5856 1.415 . S
H5858 C5855 0.999 . S
H5859 C5840 0.913 . S
H5860 C5878 0.951 . S
H5861 C5880 0.951 . S
H5862 C5882 0.950 . S
H5863 C5883 0.950 . S
H5864 C5885 0.950 . S
H5865 C5888 0.950 . S
H5866 C5889 0.950 . S
H5867 C5891 0.950 . S
H5868 C5892 0.950 . S
H5869 C5893 0.951 . S
H5870 C5895 0.951 . S
H5871 C5897 0.950 . S
H5872 C5898 0.950 . S
H5873 C5900 0.950 . S
H5874 C5903 0.950 . S
H5875 C5904 0.950 . S
H5876 C5906 0.950 . S
H5877 C5907 0.950 . S
C5878 H5860 0.951 . S
C5878 C5879 1.366 . S
C5878 C5880 1.388 . S
C5879 C5878 1.366 . S
C5879 C5883 1.385 . S
C5880 H5861 0.951 . S
C5880 C5878 1.388 . S
C5880 C5881 1.366 . S
C5881 C5880 1.366 . S
C5881 C5882 1.414 . S
C5881 C5884 1.499 . S
C5882 H5862 0.950 . S
C5882 C5881 1.414 . S
C5882 C5883 1.374 . S
C5883 H5863 0.950 . S
C5883 C5879 1.385 . S
C5883 C5882 1.374 . S
C5884 C5881 1.499 . S
C5884 C5885 1.373 . S
C5884 C5886 1.389 . S
C5885 H5864 0.950 . S
C5885 C5884 1.373 . S
C5885 C5901 1.377 . S
C5886 C5884 1.389 . S
C5886 C5887 1.524 . S
C5886 C5900 1.377 . S
C5887 C5886 1.524 . S
C5887 C5888 1.397 . S
C5887 C5892 1.363 . S
C5888 H5865 0.950 . S
C5888 C5887 1.397 . S
C5888 C5889 1.334 . S
C5889 H5866 0.950 . S
C5889 C5888 1.334 . S
C5889 C5890 1.287 . S
C5890 C5889 1.287 . S
C5890 C5891 1.524 . S
C5890 H5909 0.913 . S
C5891 H5867 0.950 . S
C5891 C5890 1.524 . S
C5891 C5892 1.415 . S
C5892 H5868 0.950 . S
C5892 C5887 1.363 . S
C5892 C5891 1.415 . S
C5893 H5869 0.951 . S
C5893 C5894 1.366 . S
C5893 C5895 1.388 . S
C5894 C5893 1.366 . S
C5894 C5898 1.385 . S
C5895 H5870 0.951 . S
C5895 C5893 1.388 . S
C5895 C5896 1.366 . S
C5896 C5895 1.366 . S
C5896 C5897 1.414 . S
C5896 C5899 1.499 . S
C5897 H5871 0.950 . S
C5897 C5896 1.414 . S
C5897 C5898 1.374 . S
C5898 H5872 0.950 . S
C5898 C5894 1.385 . S
C5898 C5897 1.374 . S
C5899 C5896 1.499 . S
C5899 C5900 1.373 . S
C5899 C5901 1.389 . S
C5900 H5873 0.950 . S
C5900 C5886 1.377 . S
C5900 C5899 1.373 . S
C5901 C5885 1.377 . S
C5901 C5899 1.389 . S
C5901 C5902 1.524 . S
C5902 C5901 1.524 . S
C5902 C5903 1.397 . S
C5902 C5907 1.363 . S
C5903 H5874 0.950 . S
C5903 C5902 1.397 . S
C5903 C5904 1.334 . S
C5904 H5875 0.950 . S
C5904 C5903 1.334 . S
C5904 C5905 1.287 . S
C5905 C5904 1.287 . S
C5905 C5906 1.524 . S
C5905 H5908 0.999 . S
C5906 H5876 0.950 . S
C5906 C5905 1.524 . S
C5906 C5907 1.415 . S
C5907 H5877 0.950 . S
C5907 C5902 1.363 . S
C5907 C5906 1.415 . S
H5908 C5905 0.999 . S
H5909 C5890 0.913 . S
H5910 C5928 0.951 . S
H5911 C5930 0.951 . S
H5912 C5932 0.950 . S
H5913 C5933 0.950 . S
H5914 C5935 0.950 . S
H5915 C5938 0.950 . S
H5916 C5939 0.950 . S
H5917 C5941 0.950 . S
H5918 C5942 0.950 . S
H5919 C5943 1.003 . S
H5920 C5945 0.951 . S
H5921 C5947 0.950 . S
H5922 C5948 0.950 . S
H5923 C5950 0.950 . S
H5924 C5953 0.950 . S
H5925 C5954 0.950 . S
H5926 C5956 0.950 . S
H5927 C5957 0.950 . S
C5928 H5910 0.951 . S
C5928 C5929 1.366 . S
C5928 C5930 1.388 . S
C5929 C5928 1.366 . S
C5929 C5933 1.385 . S
C5930 H5911 0.951 . S
C5930 C5928 1.388 . S
C5930 C5931 1.366 . S
C5931 C5930 1.366 . S
C5931 C5932 1.414 . S
C5931 C5934 1.499 . S
C5932 H5912 0.950 . S
C5932 C5931 1.414 . S
C5932 C5933 1.374 . S
C5933 H5913 0.950 . S
C5933 C5929 1.385 . S
C5933 C5932 1.374 . S
C5934 C5931 1.499 . S
C5934 C5935 1.373 . S
C5934 C5936 1.389 . S
C5935 H5914 0.950 . S
C5935 C5934 1.373 . S
C5935 C5951 1.377 . S
C5936 C5934 1.389 . S
C5936 C5937 1.524 . S
C5936 C5950 1.377 . S
C5937 C5936 1.524 . S
C5937 C5938 1.397 . S
C5937 C5942 1.363 . S
C5938 H5915 0.950 . S
C5938 C5937 1.397 . S
C5938 C5939 1.334 . S
C5939 H5916 0.950 . S
C5939 C5938 1.334 . S
C5939 C5940 1.287 . S
C5940 C5939 1.287 . S
C5940 C5941 1.524 . S
C5940 H5959 0.913 . S
C5941 H5917 0.950 . S
C5941 C5940 1.524 . S
C5941 C5942 1.415 . S
C5942 H5918 0.950 . S
C5942 C5937 1.363 . S
C5942 C5941 1.415 . S
C5943 H5919 1.003 . S
C5943 C5944 1.352 1_655 S
C5943 C5945 1.353 1_655 S
C5944 C5943 1.352 1_455 S
C5944 C5948 1.385 . S
C5945 H5920 0.951 . S
C5945 C5943 1.353 1_455 S
C5945 C5946 1.366 . S
C5946 C5945 1.366 . S
C5946 C5947 1.414 . S
C5946 C5949 1.499 . S
C5947 H5921 0.950 . S
C5947 C5946 1.414 . S
C5947 C5948 1.374 . S
C5948 H5922 0.950 . S
C5948 C5944 1.385 . S
C5948 C5947 1.374 . S
C5949 C5946 1.499 . S
C5949 C5950 1.373 . S
C5949 C5951 1.389 . S
C5950 H5923 0.950 . S
C5950 C5936 1.377 . S
C5950 C5949 1.373 . S
C5951 C5935 1.377 . S
C5951 C5949 1.389 . S
C5951 C5952 1.524 . S
C5952 C5951 1.524 . S
C5952 C5953 1.397 . S
C5952 C5957 1.363 . S
C5953 H5924 0.950 . S
C5953 C5952 1.397 . S
C5953 C5954 1.334 . S
C5954 H5925 0.950 . S
C5954 C5953 1.334 . S
C5954 C5955 1.287 . S
C5955 C5954 1.287 . S
C5955 C5956 1.524 . S
C5955 H5958 0.999 . S
C5956 H5926 0.950 . S
C5956 C5955 1.524 . S
C5956 C5957 1.415 . S
C5957 H5927 0.950 . S
C5957 C5952 1.363 . S
C5957 C5956 1.415 . S
H5958 C5955 0.999 . S
H5959 C5940 0.913 . S
H5960 C5978 0.951 . S
H5961 C5980 0.951 . S
H5962 C5982 0.950 . S
H5963 C5983 0.950 . S
H5964 C5985 0.950 . S
H5965 C5988 0.950 . S
H5966 C5989 0.950 . S
H5967 C5991 0.950 . S
H5968 C5992 0.950 . S
H5969 C5993 0.951 . S
H5970 C5995 0.951 . S
H5971 C5997 0.950 . S
H5972 C5998 0.950 . S
H5973 C6000 0.950 . S
H5974 C6003 0.950 . S
H5975 C6004 0.950 . S
H5976 C6006 0.950 . S
H5977 C6007 0.950 . S
C5978 H5960 0.951 . S
C5978 C5979 1.366 . S
C5978 C5980 1.388 . S
C5979 C5978 1.366 . S
C5979 C5983 1.385 . S
C5980 H5961 0.951 . S
C5980 C5978 1.388 . S
C5980 C5981 1.366 . S
C5981 C5980 1.366 . S
C5981 C5982 1.414 . S
C5981 C5984 1.499 . S
C5982 H5962 0.950 . S
C5982 C5981 1.414 . S
C5982 C5983 1.374 . S
C5983 H5963 0.950 . S
C5983 C5979 1.385 . S
C5983 C5982 1.374 . S
C5984 C5981 1.499 . S
C5984 C5985 1.373 . S
C5984 C5986 1.389 . S
C5985 H5964 0.950 . S
C5985 C5984 1.373 . S
C5985 C6001 1.377 . S
C5986 C5984 1.389 . S
C5986 C5987 1.524 . S
C5986 C6000 1.377 . S
C5987 C5986 1.524 . S
C5987 C5988 1.397 . S
C5987 C5992 1.363 . S
C5988 H5965 0.950 . S
C5988 C5987 1.397 . S
C5988 C5989 1.334 . S
C5989 H5966 0.950 . S
C5989 C5988 1.334 . S
C5989 C5990 1.287 . S
C5990 C5989 1.287 . S
C5990 C5991 1.524 . S
C5990 H6009 0.913 . S
C5991 H5967 0.950 . S
C5991 C5990 1.524 . S
C5991 C5992 1.415 . S
C5992 H5968 0.950 . S
C5992 C5987 1.363 . S
C5992 C5991 1.415 . S
C5993 H5969 0.951 . S
C5993 C5994 1.366 . S
C5993 C5995 1.388 . S
C5994 C5993 1.366 . S
C5994 C5998 1.385 . S
C5995 H5970 0.951 . S
C5995 C5993 1.388 . S
C5995 C5996 1.366 . S
C5996 C5995 1.366 . S
C5996 C5997 1.414 . S
C5996 C5999 1.499 . S
C5997 H5971 0.950 . S
C5997 C5996 1.414 . S
C5997 C5998 1.374 . S
C5998 H5972 0.950 . S
C5998 C5994 1.385 . S
C5998 C5997 1.374 . S
C5999 C5996 1.499 . S
C5999 C6000 1.373 . S
C5999 C6001 1.389 . S
C6000 H5973 0.950 . S
C6000 C5986 1.377 . S
C6000 C5999 1.373 . S
C6001 C5985 1.377 . S
C6001 C5999 1.389 . S
C6001 C6002 1.524 . S
C6002 C6001 1.524 . S
C6002 C6003 1.397 . S
C6002 C6007 1.363 . S
C6003 H5974 0.950 . S
C6003 C6002 1.397 . S
C6003 C6004 1.334 . S
C6004 H5975 0.950 . S
C6004 C6003 1.334 . S
C6004 C6005 1.287 . S
C6005 C6004 1.287 . S
C6005 C6006 1.524 . S
C6005 H6008 0.999 . S
C6006 H5976 0.950 . S
C6006 C6005 1.524 . S
C6006 C6007 1.415 . S
C6007 H5977 0.950 . S
C6007 C6002 1.363 . S
C6007 C6006 1.415 . S
H6008 C6005 0.999 . S
H6009 C5990 0.913 . S
H6010 C6028 0.951 1_655 S
H6011 C6030 0.951 . S
H6012 C6032 0.950 . S
H6013 C6033 0.950 . S
H6014 C6035 0.950 . S
H6015 C6038 0.950 . S
H6016 C6039 0.950 . S
H6017 C6041 0.950 . S
H6018 C6042 0.950 . S
H6019 C6043 0.951 . S
H6020 C6045 0.951 . S
H6021 C6047 0.950 . S
H6022 C6048 0.950 . S
H6023 C6050 0.950 . S
H6024 C6053 0.950 . S
H6025 C6054 0.950 . S
H6026 C6056 0.950 . S
H6027 C6057 0.950 . S
C6028 H6010 0.951 1_455 S
C6028 C6029 1.366 . S
C6028 C6030 1.388 . S
C6029 C6028 1.366 . S
C6029 C6033 1.385 . S
C6030 H6011 0.951 . S
C6030 C6028 1.388 . S
C6030 C6031 1.366 . S
C6031 C6030 1.366 . S
C6031 C6032 1.414 . S
C6031 C6034 1.499 . S
C6032 H6012 0.950 . S
C6032 C6031 1.414 . S
C6032 C6033 1.374 . S
C6033 H6013 0.950 . S
C6033 C6029 1.385 . S
C6033 C6032 1.374 . S
C6034 C6031 1.499 . S
C6034 C6035 1.373 . S
C6034 C6036 1.389 . S
C6035 H6014 0.950 . S
C6035 C6034 1.373 . S
C6035 C6051 1.377 . S
C6036 C6034 1.389 . S
C6036 C6037 1.524 . S
C6036 C6050 1.377 . S
C6037 C6036 1.524 . S
C6037 C6038 1.397 . S
C6037 C6042 1.363 . S
C6038 H6015 0.950 . S
C6038 C6037 1.397 . S
C6038 C6039 1.334 . S
C6039 H6016 0.950 . S
C6039 C6038 1.334 . S
C6039 C6040 1.287 . S
C6040 C6039 1.287 . S
C6040 C6041 1.524 . S
C6040 H6059 0.913 . S
C6041 H6017 0.950 . S
C6041 C6040 1.524 . S
C6041 C6042 1.415 . S
C6042 H6018 0.950 . S
C6042 C6037 1.363 . S
C6042 C6041 1.415 . S
C6043 H6019 0.951 . S
C6043 C6044 1.366 . S
C6043 C6045 1.388 . S
C6044 C6043 1.366 . S
C6044 C6048 1.385 . S
C6045 H6020 0.951 . S
C6045 C6043 1.388 . S
C6045 C6046 1.366 . S
C6046 C6045 1.366 . S
C6046 C6047 1.414 . S
C6046 C6049 1.499 . S
C6047 H6021 0.950 . S
C6047 C6046 1.414 . S
C6047 C6048 1.374 . S
C6048 H6022 0.950 . S
C6048 C6044 1.385 . S
C6048 C6047 1.374 . S
C6049 C6046 1.499 . S
C6049 C6050 1.373 . S
C6049 C6051 1.389 . S
C6050 H6023 0.950 . S
C6050 C6036 1.377 . S
C6050 C6049 1.373 . S
C6051 C6035 1.377 . S
C6051 C6049 1.389 . S
C6051 C6052 1.524 . S
C6052 C6051 1.524 . S
C6052 C6053 1.397 . S
C6052 C6057 1.363 . S
C6053 H6024 0.950 . S
C6053 C6052 1.397 . S
C6053 C6054 1.334 . S
C6054 H6025 0.950 . S
C6054 C6053 1.334 . S
C6054 C6055 1.287 . S
C6055 C6054 1.287 . S
C6055 C6056 1.524 . S
C6055 H6058 0.999 . S
C6056 H6026 0.950 . S
C6056 C6055 1.524 . S
C6056 C6057 1.415 . S
C6057 H6027 0.950 . S
C6057 C6052 1.363 . S
C6057 C6056 1.415 . S
H6058 C6055 0.999 . S
H6059 C6040 0.913 . S
H6060 C6078 0.951 . S
H6061 C6080 0.951 . S
H6062 C6082 0.950 . S
H6063 C6083 0.950 . S
H6064 C6085 0.950 . S
H6065 C6088 0.950 . S
H6066 C6089 0.950 . S
H6067 C6091 0.950 . S
H6068 C6092 0.950 . S
H6069 C6093 0.951 . S
H6070 C6095 0.951 . S
H6071 C6097 0.950 . S
H6072 C6098 0.950 . S
H6073 C6100 0.950 . S
H6074 C6103 0.950 . S
H6075 C6104 0.950 . S
H6076 C6106 0.950 . S
H6077 C6107 0.950 . S
C6078 H6060 0.951 . S
C6078 C6079 1.366 . S
C6078 C6080 1.388 . S
C6079 C6078 1.366 . S
C6079 C6083 1.385 . S
C6080 H6061 0.951 . S
C6080 C6078 1.388 . S
C6080 C6081 1.366 . S
C6081 C6080 1.366 . S
C6081 C6082 1.414 . S
C6081 C6084 1.499 . S
C6082 H6062 0.950 . S
C6082 C6081 1.414 . S
C6082 C6083 1.374 . S
C6083 H6063 0.950 . S
C6083 C6079 1.385 . S
C6083 C6082 1.374 . S
C6084 C6081 1.499 . S
C6084 C6085 1.373 . S
C6084 C6086 1.389 . S
C6085 H6064 0.950 . S
C6085 C6084 1.373 . S
C6085 C6101 1.377 . S
C6086 C6084 1.389 . S
C6086 C6087 1.524 . S
C6086 C6100 1.377 . S
C6087 C6086 1.524 . S
C6087 C6088 1.397 . S
C6087 C6092 1.363 . S
C6088 H6065 0.950 . S
C6088 C6087 1.397 . S
C6088 C6089 1.334 . S
C6089 H6066 0.950 . S
C6089 C6088 1.334 . S
C6089 C6090 1.287 . S
C6090 C6089 1.287 . S
C6090 C6091 1.524 . S
C6090 H6109 0.913 . S
C6091 H6067 0.950 . S
C6091 C6090 1.524 . S
C6091 C6092 1.415 . S
C6092 H6068 0.950 . S
C6092 C6087 1.363 . S
C6092 C6091 1.415 . S
C6093 H6069 0.951 . S
C6093 C6094 1.366 . S
C6093 C6095 1.388 . S
C6094 C6093 1.366 . S
C6094 C6098 1.385 . S
C6095 H6070 0.951 . S
C6095 C6093 1.388 . S
C6095 C6096 1.366 . S
C6096 C6095 1.366 . S
C6096 C6097 1.414 . S
C6096 C6099 1.499 . S
C6097 H6071 0.950 . S
C6097 C6096 1.414 . S
C6097 C6098 1.374 . S
C6098 H6072 0.950 . S
C6098 C6094 1.385 . S
C6098 C6097 1.374 . S
C6099 C6096 1.499 . S
C6099 C6100 1.373 . S
C6099 C6101 1.389 . S
C6100 H6073 0.950 . S
C6100 C6086 1.377 . S
C6100 C6099 1.373 . S
C6101 C6085 1.377 . S
C6101 C6099 1.389 . S
C6101 C6102 1.524 . S
C6102 C6101 1.524 . S
C6102 C6103 1.397 . S
C6102 C6107 1.363 . S
C6103 H6074 0.950 . S
C6103 C6102 1.397 . S
C6103 C6104 1.334 . S
C6104 H6075 0.950 . S
C6104 C6103 1.334 . S
C6104 C6105 1.287 . S
C6105 C6104 1.287 . S
C6105 C6106 1.524 . S
C6105 H6108 0.999 1_655 S
C6106 H6076 0.950 . S
C6106 C6105 1.524 . S
C6106 C6107 1.415 . S
C6107 H6077 0.950 . S
C6107 C6102 1.363 . S
C6107 C6106 1.415 . S
H6108 C6105 0.999 1_455 S
H6109 C6090 0.913 . S
H6110 C6128 0.951 . S
H6111 C6130 0.951 . S
H6112 C6132 0.950 . S
H6113 C6133 0.950 . S
H6114 C6135 0.950 . S
H6115 C6138 0.950 . S
H6116 C6139 0.950 . S
H6117 C6141 0.950 . S
H6118 C6142 0.950 . S
H6119 C6143 0.951 . S
H6120 C6145 0.951 . S
H6121 C6147 0.950 . S
H6122 C6148 0.950 . S
H6123 C6150 0.950 . S
H6124 C6153 0.950 . S
H6125 C6154 0.950 . S
H6126 C6156 0.950 . S
H6127 C6157 0.950 . S
C6128 H6110 0.951 . S
C6128 C6129 1.366 . S
C6128 C6130 1.388 . S
C6129 C6128 1.366 . S
C6129 C6133 1.385 . S
C6130 H6111 0.951 . S
C6130 C6128 1.388 . S
C6130 C6131 1.366 . S
C6131 C6130 1.366 . S
C6131 C6132 1.414 . S
C6131 C6134 1.499 . S
C6132 H6112 0.950 . S
C6132 C6131 1.414 . S
C6132 C6133 1.374 . S
C6133 H6113 0.950 . S
C6133 C6129 1.385 . S
C6133 C6132 1.374 . S
C6134 C6131 1.499 . S
C6134 C6135 1.373 . S
C6134 C6136 1.389 . S
C6135 H6114 0.950 . S
C6135 C6134 1.373 . S
C6135 C6151 1.377 . S
C6136 C6134 1.389 . S
C6136 C6137 1.524 . S
C6136 C6150 1.377 . S
C6137 C6136 1.524 . S
C6137 C6138 1.397 . S
C6137 C6142 1.363 . S
C6138 H6115 0.950 . S
C6138 C6137 1.397 . S
C6138 C6139 1.334 . S
C6139 H6116 0.950 . S
C6139 C6138 1.334 . S
C6139 C6140 1.287 . S
C6140 C6139 1.287 . S
C6140 C6141 1.524 . S
C6140 H6159 0.913 . S
C6141 H6117 0.950 . S
C6141 C6140 1.524 . S
C6141 C6142 1.415 . S
C6142 H6118 0.950 . S
C6142 C6137 1.363 . S
C6142 C6141 1.415 . S
C6143 H6119 0.951 . S
C6143 C6144 1.366 . S
C6143 C6145 1.388 . S
C6144 C6143 1.366 . S
C6144 C6148 1.385 . S
C6145 H6120 0.951 . S
C6145 C6143 1.388 . S
C6145 C6146 1.366 . S
C6146 C6145 1.366 . S
C6146 C6147 1.414 . S
C6146 C6149 1.499 . S
C6147 H6121 0.950 . S
C6147 C6146 1.414 . S
C6147 C6148 1.374 . S
C6148 H6122 0.950 . S
C6148 C6144 1.385 . S
C6148 C6147 1.374 . S
C6149 C6146 1.499 . S
C6149 C6150 1.373 . S
C6149 C6151 1.389 . S
C6150 H6123 0.950 . S
C6150 C6136 1.377 . S
C6150 C6149 1.373 . S
C6151 C6135 1.377 . S
C6151 C6149 1.389 . S
C6151 C6152 1.524 . S
C6152 C6151 1.524 . S
C6152 C6153 1.397 . S
C6152 C6157 1.363 . S
C6153 H6124 0.950 . S
C6153 C6152 1.397 . S
C6153 C6154 1.334 . S
C6154 H6125 0.950 . S
C6154 C6153 1.334 . S
C6154 C6155 1.287 . S
C6155 C6154 1.287 . S
C6155 C6156 1.524 . S
C6155 H6158 0.999 . S
C6156 H6126 0.950 . S
C6156 C6155 1.524 . S
C6156 C6157 1.415 . S
C6157 H6127 0.950 . S
C6157 C6152 1.363 . S
C6157 C6156 1.415 . S
H6158 C6155 0.999 . S
H6159 C6140 0.913 . S
H6160 C6178 0.951 . S
H6161 C6180 0.951 . S
H6162 C6182 0.950 . S
H6163 C6183 0.950 . S
H6164 C6185 0.950 . S
H6165 C6188 0.950 . S
H6166 C6189 0.950 . S
H6167 C6191 0.950 . S
H6168 C6192 0.950 . S
H6169 C6193 0.951 . S
H6170 C6195 0.951 . S
H6171 C6197 0.950 . S
H6172 C6198 0.950 . S
H6173 C6200 0.950 . S
H6174 C6203 0.950 . S
H6175 C6204 0.950 . S
H6176 C6206 0.950 . S
H6177 C6207 0.950 . S
C6178 H6160 0.951 . S
C6178 C6179 1.366 . S
C6178 C6180 1.388 . S
C6179 C6178 1.366 . S
C6179 C6183 1.385 . S
C6180 H6161 0.951 . S
C6180 C6178 1.388 . S
C6180 C6181 1.366 . S
C6181 C6180 1.366 . S
C6181 C6182 1.414 . S
C6181 C6184 1.499 . S
C6182 H6162 0.950 . S
C6182 C6181 1.414 . S
C6182 C6183 1.374 . S
C6183 H6163 0.950 . S
C6183 C6179 1.385 . S
C6183 C6182 1.374 . S
C6184 C6181 1.499 . S
C6184 C6185 1.373 . S
C6184 C6186 1.389 . S
C6185 H6164 0.950 . S
C6185 C6184 1.373 . S
C6185 C6201 1.377 . S
C6186 C6184 1.389 . S
C6186 C6187 1.524 . S
C6186 C6200 1.377 . S
C6187 C6186 1.524 . S
C6187 C6188 1.397 . S
C6187 C6192 1.363 . S
C6188 H6165 0.950 . S
C6188 C6187 1.397 . S
C6188 C6189 1.334 . S
C6189 H6166 0.950 . S
C6189 C6188 1.334 . S
C6189 C6190 1.287 . S
C6190 C6189 1.287 . S
C6190 C6191 1.524 . S
C6190 H6209 0.913 . S
C6191 H6167 0.950 . S
C6191 C6190 1.524 . S
C6191 C6192 1.415 . S
C6192 H6168 0.950 . S
C6192 C6187 1.363 . S
C6192 C6191 1.415 . S
C6193 H6169 0.951 . S
C6193 C6194 1.366 . S
C6193 C6195 1.388 . S
C6194 C6193 1.366 . S
C6194 C6198 1.385 . S
C6195 H6170 0.951 . S
C6195 C6193 1.388 . S
C6195 C6196 1.366 . S
C6196 C6195 1.366 . S
C6196 C6197 1.414 . S
C6196 C6199 1.499 . S
C6197 H6171 0.950 . S
C6197 C6196 1.414 . S
C6197 C6198 1.374 . S
C6198 H6172 0.950 . S
C6198 C6194 1.385 . S
C6198 C6197 1.374 . S
C6199 C6196 1.499 . S
C6199 C6200 1.373 . S
C6199 C6201 1.389 . S
C6200 H6173 0.950 . S
C6200 C6186 1.377 . S
C6200 C6199 1.373 . S
C6201 C6185 1.377 . S
C6201 C6199 1.389 . S
C6201 C6202 1.524 . S
C6202 C6201 1.524 . S
C6202 C6203 1.397 . S
C6202 C6207 1.363 . S
C6203 H6174 0.950 . S
C6203 C6202 1.397 . S
C6203 C6204 1.334 . S
C6204 H6175 0.950 . S
C6204 C6203 1.334 . S
C6204 C6205 1.287 . S
C6205 C6204 1.287 . S
C6205 C6206 1.524 . S
C6205 H6208 0.999 . S
C6206 H6176 0.950 . S
C6206 C6205 1.524 . S
C6206 C6207 1.415 . S
C6207 H6177 0.950 . S
C6207 C6202 1.363 . S
C6207 C6206 1.415 . S
H6208 C6205 0.999 . S
H6209 C6190 0.913 . S
H6210 C6228 0.951 . S
H6211 C6230 0.951 . S
H6212 C6232 0.950 . S
H6213 C6233 0.950 . S
H6214 C6235 0.950 . S
H6215 C6238 0.950 . S
H6216 C6239 0.950 . S
H6217 C6241 0.950 . S
H6218 C6242 0.950 . S
H6219 C6243 0.951 . S
H6220 C6245 0.951 . S
H6221 C6247 0.950 . S
H6222 C6248 0.950 . S
H6223 C6250 0.950 . S
H6224 C6253 0.950 . S
H6225 C6254 0.950 . S
H6226 C6256 0.950 . S
H6227 C6257 0.950 . S
C6228 H6210 0.951 . S
C6228 C6229 1.366 . S
C6228 C6230 1.388 . S
C6229 C6228 1.366 . S
C6229 C6233 1.385 . S
C6230 H6211 0.951 . S
C6230 C6228 1.388 . S
C6230 C6231 1.366 . S
C6231 C6230 1.366 . S
C6231 C6232 1.414 . S
C6231 C6234 1.499 . S
C6232 H6212 0.950 . S
C6232 C6231 1.414 . S
C6232 C6233 1.374 . S
C6233 H6213 0.950 . S
C6233 C6229 1.385 . S
C6233 C6232 1.374 . S
C6234 C6231 1.499 . S
C6234 C6235 1.373 . S
C6234 C6236 1.389 . S
C6235 H6214 0.950 . S
C6235 C6234 1.373 . S
C6235 C6251 1.377 . S
C6236 C6234 1.389 . S
C6236 C6237 1.524 . S
C6236 C6250 1.377 . S
C6237 C6236 1.524 . S
C6237 C6238 1.397 . S
C6237 C6242 1.363 . S
C6238 H6215 0.950 . S
C6238 C6237 1.397 . S
C6238 C6239 1.334 . S
C6239 H6216 0.950 . S
C6239 C6238 1.334 . S
C6239 C6240 1.287 . S
C6240 C6239 1.287 . S
C6240 C6241 1.524 . S
C6240 H6259 0.913 . S
C6241 H6217 0.950 . S
C6241 C6240 1.524 . S
C6241 C6242 1.415 . S
C6242 H6218 0.950 . S
C6242 C6237 1.363 . S
C6242 C6241 1.415 . S
C6243 H6219 0.951 . S
C6243 C6244 1.374 . S
C6243 C6245 1.388 . S
C6244 C6243 1.374 . S
C6244 C6248 1.394 . S
C6245 H6220 0.951 . S
C6245 C6243 1.388 . S
C6245 C6246 1.366 . S
C6246 C6245 1.366 . S
C6246 C6247 1.414 . S
C6246 C6249 1.499 . S
C6247 H6221 0.950 . S
C6247 C6246 1.414 . S
C6247 C6248 1.374 . S
C6248 H6222 0.950 . S
C6248 C6244 1.394 . S
C6248 C6247 1.374 . S
C6249 C6246 1.499 . S
C6249 C6250 1.373 . S
C6249 C6251 1.389 . S
C6250 H6223 0.950 . S
C6250 C6236 1.377 . S
C6250 C6249 1.373 . S
C6251 C6235 1.377 . S
C6251 C6249 1.389 . S
C6251 C6252 1.524 . S
C6252 C6251 1.524 . S
C6252 C6253 1.397 1_554 S
C6252 C6257 1.363 . S
C6253 H6224 0.950 . S
C6253 C6252 1.397 1_556 S
C6253 C6254 1.334 . S
C6254 H6225 0.950 . S
C6254 C6253 1.334 . S
C6254 C6255 1.287 . S
C6255 C6254 1.287 . S
C6255 C6256 1.524 . S
C6255 H6258 0.999 . S
C6256 H6226 0.950 . S
C6256 C6255 1.524 . S
C6256 C6257 1.415 1_556 S
C6257 H6227 0.950 . S
C6257 C6252 1.363 . S
C6257 C6256 1.415 1_554 S
H6258 C6255 0.999 . S
H6259 C6240 0.913 . S
H6260 C6278 0.951 . S
H6261 C6280 0.951 . S
H6262 C6282 0.950 . S
H6263 C6283 0.950 . S
H6264 C6285 0.950 . S
H6265 C6288 0.950 . S
H6266 C6289 0.950 . S
H6267 C6291 0.950 . S
H6268 C6292 0.950 . S
H6269 C6293 0.951 . S
H6270 C6295 0.951 . S
H6271 C6297 0.950 . S
H6272 C6298 0.950 . S
H6273 C6300 0.950 . S
H6274 C6303 0.950 . S
H6275 C6304 0.950 . S
H6276 C6306 0.950 . S
H6277 C6307 0.950 . S
C6278 H6260 0.951 . S
C6278 C6279 1.366 . S
C6278 C6280 1.388 . S
C6279 C6278 1.366 . S
C6279 C6283 1.385 . S
C6280 H6261 0.951 . S
C6280 C6278 1.388 . S
C6280 C6281 1.366 . S
C6281 C6280 1.366 . S
C6281 C6282 1.414 . S
C6281 C6284 1.499 . S
C6282 H6262 0.950 . S
C6282 C6281 1.414 . S
C6282 C6283 1.374 . S
C6283 H6263 0.950 . S
C6283 C6279 1.385 . S
C6283 C6282 1.374 . S
C6284 C6281 1.499 . S
C6284 C6285 1.373 . S
C6284 C6286 1.389 . S
C6285 H6264 0.950 . S
C6285 C6284 1.373 . S
C6285 C6301 1.377 . S
C6286 C6284 1.389 . S
C6286 C6287 1.524 . S
C6286 C6300 1.377 . S
C6287 C6286 1.524 . S
C6287 C6288 1.397 . S
C6287 C6292 1.363 . S
C6288 H6265 0.950 . S
C6288 C6287 1.397 . S
C6288 C6289 1.334 . S
C6289 H6266 0.950 . S
C6289 C6288 1.334 . S
C6289 C6290 1.287 . S
C6290 C6289 1.287 . S
C6290 C6291 1.524 . S
C6290 H6309 0.913 . S
C6291 H6267 0.950 . S
C6291 C6290 1.524 . S
C6291 C6292 1.415 . S
C6292 H6268 0.950 . S
C6292 C6287 1.363 . S
C6292 C6291 1.415 . S
C6293 H6269 0.951 . S
C6293 C6294 1.366 . S
C6293 C6295 1.388 . S
C6294 C6293 1.366 . S
C6294 C6298 1.385 . S
C6295 H6270 0.951 . S
C6295 C6293 1.388 . S
C6295 C6296 1.366 . S
C6296 C6295 1.366 . S
C6296 C6297 1.414 . S
C6296 C6299 1.499 . S
C6297 H6271 0.950 . S
C6297 C6296 1.414 . S
C6297 C6298 1.374 . S
C6298 H6272 0.950 . S
C6298 C6294 1.385 . S
C6298 C6297 1.374 . S
C6299 C6296 1.499 . S
C6299 C6300 1.373 . S
C6299 C6301 1.389 . S
C6300 H6273 0.950 . S
C6300 C6286 1.377 . S
C6300 C6299 1.373 . S
C6301 C6285 1.377 . S
C6301 C6299 1.389 . S
C6301 C6302 1.524 . S
C6302 C6301 1.524 . S
C6302 C6303 1.397 . S
C6302 C6307 1.363 . S
C6303 H6274 0.950 . S
C6303 C6302 1.397 . S
C6303 C6304 1.334 . S
C6304 H6275 0.950 . S
C6304 C6303 1.334 . S
C6304 C6305 1.287 . S
C6305 C6304 1.287 . S
C6305 C6306 1.524 . S
C6305 H6308 0.999 . S
C6306 H6276 0.950 . S
C6306 C6305 1.524 . S
C6306 C6307 1.415 . S
C6307 H6277 0.950 . S
C6307 C6302 1.363 . S
C6307 C6306 1.415 . S
H6308 C6305 0.999 . S
H6309 C6290 0.913 . S
H6310 C6328 0.951 . S
H6311 C6330 0.951 . S
H6312 C6332 0.950 . S
H6313 C6333 0.950 . S
H6314 C6335 0.950 . S
H6315 C6338 0.950 . S
H6316 C6339 0.950 . S
H6317 C6341 0.950 . S
H6318 C6342 0.950 . S
H6319 C6343 0.951 . S
H6320 C6345 0.951 . S
H6321 C6347 0.950 . S
H6322 C6348 0.950 . S
H6323 C6350 0.950 . S
H6324 C6353 0.950 . S
H6325 C6354 0.950 . S
H6326 C6356 0.950 . S
H6327 C6357 0.950 . S
C6328 H6310 0.951 . S
C6328 C6329 1.366 . S
C6328 C6330 1.388 . S
C6329 C6328 1.366 . S
C6329 C6333 1.385 . S
C6330 H6311 0.951 . S
C6330 C6328 1.388 . S
C6330 C6331 1.366 . S
C6331 C6330 1.366 . S
C6331 C6332 1.414 . S
C6331 C6334 1.499 . S
C6332 H6312 0.950 . S
C6332 C6331 1.414 . S
C6332 C6333 1.374 . S
C6333 H6313 0.950 . S
C6333 C6329 1.385 . S
C6333 C6332 1.374 . S
C6334 C6331 1.499 . S
C6334 C6335 1.373 . S
C6334 C6336 1.389 . S
C6335 H6314 0.950 . S
C6335 C6334 1.373 . S
C6335 C6351 1.377 . S
C6336 C6334 1.389 . S
C6336 C6337 1.524 . S
C6336 C6350 1.377 . S
C6337 C6336 1.524 . S
C6337 C6338 1.397 . S
C6337 C6342 1.363 . S
C6338 H6315 0.950 . S
C6338 C6337 1.397 . S
C6338 C6339 1.334 . S
C6339 H6316 0.950 . S
C6339 C6338 1.334 . S
C6339 C6340 1.287 . S
C6340 C6339 1.287 . S
C6340 C6341 1.524 . S
C6340 H6359 0.913 . S
C6341 H6317 0.950 . S
C6341 C6340 1.524 . S
C6341 C6342 1.415 . S
C6342 H6318 0.950 . S
C6342 C6337 1.363 . S
C6342 C6341 1.415 . S
C6343 H6319 0.951 . S
C6343 C6344 1.366 . S
C6343 C6345 1.388 . S
C6344 C6343 1.366 . S
C6344 C6348 1.385 . S
C6345 H6320 0.951 . S
C6345 C6343 1.388 . S
C6345 C6346 1.366 . S
C6346 C6345 1.366 . S
C6346 C6347 1.414 . S
C6346 C6349 1.499 . S
C6347 H6321 0.950 . S
C6347 C6346 1.414 . S
C6347 C6348 1.374 . S
C6348 H6322 0.950 . S
C6348 C6344 1.385 . S
C6348 C6347 1.374 . S
C6349 C6346 1.499 . S
C6349 C6350 1.373 . S
C6349 C6351 1.389 . S
C6350 H6323 0.950 . S
C6350 C6336 1.377 . S
C6350 C6349 1.373 . S
C6351 C6335 1.377 . S
C6351 C6349 1.389 . S
C6351 C6352 1.524 . S
C6352 C6351 1.524 . S
C6352 C6353 1.397 . S
C6352 C6357 1.363 . S
C6353 H6324 0.950 . S
C6353 C6352 1.397 . S
C6353 C6354 1.334 . S
C6354 H6325 0.950 . S
C6354 C6353 1.334 . S
C6354 C6355 1.287 . S
C6355 C6354 1.287 . S
C6355 C6356 1.524 . S
C6355 H6358 0.999 . S
C6356 H6326 0.950 . S
C6356 C6355 1.524 . S
C6356 C6357 1.415 . S
C6357 H6327 0.950 . S
C6357 C6352 1.363 . S
C6357 C6356 1.415 . S
H6358 C6355 0.999 . S
H6359 C6340 0.913 . S
H6360 C6378 0.951 . S
H6361 C6380 0.951 . S
H6362 C6382 0.950 . S
H6363 C6383 0.950 . S
H6364 C6385 0.950 . S
H6365 C6388 0.950 . S
H6366 C6389 0.950 . S
H6367 C6391 0.950 . S
H6368 C6392 0.950 . S
H6369 C6393 0.951 . S
H6370 C6395 0.951 . S
H6371 C6397 0.950 . S
H6372 C6398 0.950 . S
H6373 C6400 0.950 . S
H6374 C6403 0.950 . S
H6375 C6404 0.950 . S
H6376 C6406 0.950 . S
H6377 C6407 0.950 . S
C6378 H6360 0.951 . S
C6378 C6379 1.366 . S
C6378 C6380 1.388 . S
C6379 C6378 1.366 . S
C6379 C6383 1.385 . S
C6380 H6361 0.951 . S
C6380 C6378 1.388 . S
C6380 C6381 1.366 . S
C6381 C6380 1.366 . S
C6381 C6382 1.414 . S
C6381 C6384 1.499 . S
C6382 H6362 0.950 . S
C6382 C6381 1.414 . S
C6382 C6383 1.374 . S
C6383 H6363 0.950 . S
C6383 C6379 1.385 . S
C6383 C6382 1.374 . S
C6384 C6381 1.499 . S
C6384 C6385 1.373 . S
C6384 C6386 1.389 . S
C6385 H6364 0.950 . S
C6385 C6384 1.373 . S
C6385 C6401 1.377 . S
C6386 C6384 1.389 . S
C6386 C6387 1.524 . S
C6386 C6400 1.377 . S
C6387 C6386 1.524 . S
C6387 C6388 1.397 . S
C6387 C6392 1.363 . S
C6388 H6365 0.950 . S
C6388 C6387 1.397 . S
C6388 C6389 1.334 . S
C6389 H6366 0.950 . S
C6389 C6388 1.334 . S
C6389 C6390 1.287 . S
C6390 C6389 1.287 . S
C6390 C6391 1.524 . S
C6390 H6409 0.913 . S
C6391 H6367 0.950 . S
C6391 C6390 1.524 . S
C6391 C6392 1.415 . S
C6392 H6368 0.950 . S
C6392 C6387 1.363 . S
C6392 C6391 1.415 . S
C6393 H6369 0.951 . S
C6393 C6394 1.366 . S
C6393 C6395 1.388 . S
C6394 C6393 1.366 . S
C6394 C6398 1.385 . S
C6395 H6370 0.951 . S
C6395 C6393 1.388 . S
C6395 C6396 1.366 . S
C6396 C6395 1.366 . S
C6396 C6397 1.414 . S
C6396 C6399 1.499 . S
C6397 H6371 0.950 . S
C6397 C6396 1.414 . S
C6397 C6398 1.374 . S
C6398 H6372 0.950 . S
C6398 C6394 1.385 . S
C6398 C6397 1.374 . S
C6399 C6396 1.499 . S
C6399 C6400 1.373 . S
C6399 C6401 1.389 . S
C6400 H6373 0.950 . S
C6400 C6386 1.377 . S
C6400 C6399 1.373 . S
C6401 C6385 1.377 . S
C6401 C6399 1.389 . S
C6401 C6402 1.524 . S
C6402 C6401 1.524 . S
C6402 C6403 1.397 . S
C6402 C6407 1.363 . S
C6403 H6374 0.950 . S
C6403 C6402 1.397 . S
C6403 C6404 1.334 . S
C6404 H6375 0.950 . S
C6404 C6403 1.334 . S
C6404 C6405 1.287 . S
C6405 C6404 1.287 . S
C6405 C6406 1.524 . S
C6405 H6408 0.999 . S
C6406 H6376 0.950 . S
C6406 C6405 1.524 . S
C6406 C6407 1.415 . S
C6407 H6377 0.950 . S
C6407 C6402 1.363 . S
C6407 C6406 1.415 . S
H6408 C6405 0.999 . S
H6409 C6390 0.913 . S
H6410 C6428 0.951 . S
H6411 C6430 0.951 . S
H6412 C6432 0.950 . S
H6413 C6433 0.950 . S
H6414 C6435 0.950 . S
H6415 C6438 0.950 . S
H6416 C6439 0.950 . S
H6417 C6441 0.950 . S
H6418 C6442 0.950 . S
H6419 C6443 0.951 . S
H6420 C6445 0.951 . S
H6421 C6447 0.950 . S
H6422 C6448 0.950 . S
H6423 C6450 0.950 . S
H6424 C6453 0.950 . S
H6425 C6454 0.950 . S
H6426 C6456 0.950 1_554 S
H6427 C6457 0.950 . S
C6428 H6410 0.951 . S
C6428 C6429 1.366 . S
C6428 C6430 1.388 . S
C6429 C6428 1.366 . S
C6429 C6433 1.385 . S
C6430 H6411 0.951 . S
C6430 C6428 1.388 . S
C6430 C6431 1.366 . S
C6431 C6430 1.366 . S
C6431 C6432 1.414 . S
C6431 C6434 1.499 . S
C6432 H6412 0.950 . S
C6432 C6431 1.414 . S
C6432 C6433 1.374 . S
C6433 H6413 0.950 . S
C6433 C6429 1.385 . S
C6433 C6432 1.374 . S
C6434 C6431 1.499 . S
C6434 C6435 1.373 . S
C6434 C6436 1.389 . S
C6435 H6414 0.950 . S
C6435 C6434 1.373 . S
C6435 C6451 1.377 . S
C6436 C6434 1.389 . S
C6436 C6437 1.524 . S
C6436 C6450 1.377 . S
C6437 C6436 1.524 . S
C6437 C6438 1.397 . S
C6437 C6442 1.363 . S
C6438 H6415 0.950 . S
C6438 C6437 1.397 . S
C6438 C6439 1.334 . S
C6439 H6416 0.950 . S
C6439 C6438 1.334 . S
C6439 C6440 1.287 . S
C6440 C6439 1.287 . S
C6440 C6441 1.524 . S
C6440 H6459 0.913 . S
C6441 H6417 0.950 . S
C6441 C6440 1.524 . S
C6441 C6442 1.415 . S
C6442 H6418 0.950 . S
C6442 C6437 1.363 . S
C6442 C6441 1.415 . S
C6443 H6419 0.951 . S
C6443 C6444 1.366 . S
C6443 C6445 1.388 . S
C6444 C6443 1.366 . S
C6444 C6448 1.385 . S
C6445 H6420 0.951 . S
C6445 C6443 1.388 . S
C6445 C6446 1.366 . S
C6446 C6445 1.366 . S
C6446 C6447 1.414 . S
C6446 C6449 1.499 . S
C6447 H6421 0.950 . S
C6447 C6446 1.414 . S
C6447 C6448 1.374 . S
C6448 H6422 0.950 . S
C6448 C6444 1.385 . S
C6448 C6447 1.374 . S
C6449 C6446 1.499 . S
C6449 C6450 1.373 . S
C6449 C6451 1.389 . S
C6450 H6423 0.950 . S
C6450 C6436 1.377 . S
C6450 C6449 1.373 . S
C6451 C6435 1.377 . S
C6451 C6449 1.389 . S
C6451 C6452 1.524 . S
C6452 C6451 1.524 . S
C6452 C6453 1.397 . S
C6452 C6457 1.363 . S
C6453 H6424 0.950 . S
C6453 C6452 1.397 . S
C6453 C6454 1.334 . S
C6454 H6425 0.950 . S
C6454 C6453 1.334 . S
C6454 C6455 1.287 . S
C6455 C6454 1.287 . S
C6455 C6456 1.524 . S
C6455 H6458 0.999 1_556 S
C6456 H6426 0.950 1_556 S
C6456 C6455 1.524 . S
C6456 C6457 1.415 . S
C6457 H6427 0.950 . S
C6457 C6452 1.363 . S
C6457 C6456 1.415 . S
H6458 C6455 0.999 1_554 S
H6459 C6440 0.913 . S
H6460 C6478 0.951 . S
H6461 C6480 0.951 . S
H6462 C6482 0.950 . S
H6463 C6483 0.950 . S
H6464 C6485 0.950 . S
H6465 C6488 0.950 . S
H6466 C6489 0.950 . S
H6467 C6491 0.950 . S
H6468 C6492 0.950 . S
H6469 C6493 0.951 . S
H6470 C6495 0.951 . S
H6471 C6497 0.950 . S
H6472 C6498 0.950 . S
H6473 C6500 0.950 . S
H6474 C6503 0.950 . S
H6475 C6504 0.950 . S
H6476 C6506 0.950 . S
H6477 C6507 0.950 . S
C6478 H6460 0.951 . S
C6478 C6479 1.366 . S
C6478 C6480 1.388 . S
C6479 C6478 1.366 . S
C6479 C6483 1.385 . S
C6480 H6461 0.951 . S
C6480 C6478 1.388 . S
C6480 C6481 1.366 . S
C6481 C6480 1.366 . S
C6481 C6482 1.414 . S
C6481 C6484 1.499 . S
C6482 H6462 0.950 . S
C6482 C6481 1.414 . S
C6482 C6483 1.374 . S
C6483 H6463 0.950 . S
C6483 C6479 1.385 . S
C6483 C6482 1.374 . S
C6484 C6481 1.499 . S
C6484 C6485 1.373 . S
C6484 C6486 1.389 . S
C6485 H6464 0.950 . S
C6485 C6484 1.373 . S
C6485 C6501 1.377 . S
C6486 C6484 1.389 . S
C6486 C6487 1.524 . S
C6486 C6500 1.377 . S
C6487 C6486 1.524 . S
C6487 C6488 1.397 . S
C6487 C6492 1.363 . S
C6488 H6465 0.950 . S
C6488 C6487 1.397 . S
C6488 C6489 1.334 . S
C6489 H6466 0.950 . S
C6489 C6488 1.334 . S
C6489 C6490 1.287 . S
C6490 C6489 1.287 . S
C6490 C6491 1.524 . S
C6490 H6509 0.913 . S
C6491 H6467 0.950 . S
C6491 C6490 1.524 . S
C6491 C6492 1.415 . S
C6492 H6468 0.950 . S
C6492 C6487 1.363 . S
C6492 C6491 1.415 . S
C6493 H6469 0.951 . S
C6493 C6494 1.366 . S
C6493 C6495 1.388 . S
C6494 C6493 1.366 . S
C6494 C6498 1.385 . S
C6495 H6470 0.951 . S
C6495 C6493 1.388 . S
C6495 C6496 1.366 . S
C6496 C6495 1.366 . S
C6496 C6497 1.414 . S
C6496 C6499 1.499 . S
C6497 H6471 0.950 . S
C6497 C6496 1.414 . S
C6497 C6498 1.374 . S
C6498 H6472 0.950 . S
C6498 C6494 1.385 . S
C6498 C6497 1.374 . S
C6499 C6496 1.499 . S
C6499 C6500 1.373 . S
C6499 C6501 1.389 . S
C6500 H6473 0.950 . S
C6500 C6486 1.377 . S
C6500 C6499 1.373 . S
C6501 C6485 1.377 . S
C6501 C6499 1.389 . S
C6501 C6502 1.524 . S
C6502 C6501 1.524 . S
C6502 C6503 1.397 . S
C6502 C6507 1.363 . S
C6503 H6474 0.950 . S
C6503 C6502 1.397 . S
C6503 C6504 1.334 . S
C6504 H6475 0.950 . S
C6504 C6503 1.334 . S
C6504 C6505 1.287 . S
C6505 C6504 1.287 . S
C6505 C6506 1.524 . S
C6505 H6508 0.999 . S
C6506 H6476 0.950 . S
C6506 C6505 1.524 . S
C6506 C6507 1.415 . S
C6507 H6477 0.950 . S
C6507 C6502 1.363 . S
C6507 C6506 1.415 . S
H6508 C6505 0.999 . S
H6509 C6490 0.913 . S
H6510 C6528 0.951 . S
H6511 C6530 0.951 . S
H6512 C6532 0.950 . S
H6513 C6533 0.950 . S
H6514 C6535 0.950 . S
H6515 C6538 0.950 . S
H6516 C6539 0.950 . S
H6517 C6541 0.950 . S
H6518 C6542 0.950 . S
H6519 C6543 0.951 . S
H6520 C6545 0.951 . S
H6521 C6547 0.950 . S
H6522 C6548 0.950 . S
H6523 C6550 0.950 . S
H6524 C6553 0.950 . S
H6525 C6554 0.950 . S
H6526 C6556 0.950 . S
H6527 C6557 0.950 . S
C6528 H6510 0.951 . S
C6528 C6529 1.366 . S
C6528 C6530 1.388 . S
C6529 C6528 1.366 . S
C6529 C6533 1.385 . S
C6530 H6511 0.951 . S
C6530 C6528 1.388 . S
C6530 C6531 1.366 . S
C6531 C6530 1.366 . S
C6531 C6532 1.414 . S
C6531 C6534 1.499 . S
C6532 H6512 0.950 . S
C6532 C6531 1.414 . S
C6532 C6533 1.374 . S
C6533 H6513 0.950 . S
C6533 C6529 1.385 . S
C6533 C6532 1.374 . S
C6534 C6531 1.499 . S
C6534 C6535 1.373 . S
C6534 C6536 1.389 . S
C6535 H6514 0.950 . S
C6535 C6534 1.373 . S
C6535 C6551 1.377 . S
C6536 C6534 1.389 . S
C6536 C6537 1.524 . S
C6536 C6550 1.377 . S
C6537 C6536 1.524 . S
C6537 C6538 1.397 . S
C6537 C6542 1.363 . S
C6538 H6515 0.950 . S
C6538 C6537 1.397 . S
C6538 C6539 1.334 . S
C6539 H6516 0.950 . S
C6539 C6538 1.334 . S
C6539 C6540 1.287 . S
C6540 C6539 1.287 . S
C6540 C6541 1.524 . S
C6540 H6559 0.913 . S
C6541 H6517 0.950 . S
C6541 C6540 1.524 . S
C6541 C6542 1.415 . S
C6542 H6518 0.950 . S
C6542 C6537 1.363 . S
C6542 C6541 1.415 . S
C6543 H6519 0.951 . S
C6543 C6544 1.366 . S
C6543 C6545 1.388 . S
C6544 C6543 1.366 . S
C6544 C6548 1.385 . S
C6545 H6520 0.951 . S
C6545 C6543 1.388 . S
C6545 C6546 1.366 . S
C6546 C6545 1.366 . S
C6546 C6547 1.414 . S
C6546 C6549 1.499 . S
C6547 H6521 0.950 . S
C6547 C6546 1.414 . S
C6547 C6548 1.374 . S
C6548 H6522 0.950 . S
C6548 C6544 1.385 . S
C6548 C6547 1.374 . S
C6549 C6546 1.499 . S
C6549 C6550 1.373 . S
C6549 C6551 1.389 . S
C6550 H6523 0.950 . S
C6550 C6536 1.377 . S
C6550 C6549 1.373 . S
C6551 C6535 1.377 . S
C6551 C6549 1.389 . S
C6551 C6552 1.524 . S
C6552 C6551 1.524 . S
C6552 C6553 1.397 . S
C6552 C6557 1.363 . S
C6553 H6524 0.950 . S
C6553 C6552 1.397 . S
C6553 C6554 1.334 . S
C6554 H6525 0.950 . S
C6554 C6553 1.334 . S
C6554 C6555 1.287 . S
C6555 C6554 1.287 . S
C6555 C6556 1.524 . S
C6555 H6558 0.999 . S
C6556 H6526 0.950 . S
C6556 C6555 1.524 . S
C6556 C6557 1.415 . S
C6557 H6527 0.950 . S
C6557 C6552 1.363 . S
C6557 C6556 1.415 . S
H6558 C6555 0.999 . S
H6559 C6540 0.913 . S
H6560 C6578 0.951 . S
H6561 C6580 0.951 . S
H6562 C6582 0.950 . S
H6563 C6583 0.950 . S
H6564 C6585 0.950 . S
H6565 C6588 0.950 . S
H6566 C6589 0.950 . S
H6567 C6591 0.950 . S
H6568 C6592 0.950 . S
H6569 C6593 0.951 . S
H6570 C6595 0.951 . S
H6571 C6597 0.950 . S
H6572 C6598 0.950 . S
H6573 C6600 0.950 . S
H6574 C6603 0.950 . S
H6575 C6604 0.950 . S
H6576 C6606 0.950 . S
H6577 C6607 0.950 . S
C6578 H6560 0.951 . S
C6578 C6579 1.366 . S
C6578 C6580 1.388 . S
C6579 C6578 1.366 . S
C6579 C6583 1.385 . S
C6580 H6561 0.951 . S
C6580 C6578 1.388 . S
C6580 C6581 1.366 . S
C6581 C6580 1.366 . S
C6581 C6582 1.414 . S
C6581 C6584 1.499 . S
C6582 H6562 0.950 . S
C6582 C6581 1.414 . S
C6582 C6583 1.374 . S
C6583 H6563 0.950 . S
C6583 C6579 1.385 . S
C6583 C6582 1.374 . S
C6584 C6581 1.499 . S
C6584 C6585 1.373 . S
C6584 C6586 1.389 . S
C6585 H6564 0.950 . S
C6585 C6584 1.373 . S
C6585 C6601 1.377 . S
C6586 C6584 1.389 . S
C6586 C6587 1.524 . S
C6586 C6600 1.377 . S
C6587 C6586 1.524 . S
C6587 C6588 1.397 . S
C6587 C6592 1.363 . S
C6588 H6565 0.950 . S
C6588 C6587 1.397 . S
C6588 C6589 1.334 . S
C6589 H6566 0.950 . S
C6589 C6588 1.334 . S
C6589 C6590 1.287 . S
C6590 C6589 1.287 . S
C6590 C6591 1.524 . S
C6590 H6609 0.913 . S
C6591 H6567 0.950 . S
C6591 C6590 1.524 . S
C6591 C6592 1.415 . S
C6592 H6568 0.950 . S
C6592 C6587 1.363 . S
C6592 C6591 1.415 . S
C6593 H6569 0.951 . S
C6593 C6594 1.366 . S
C6593 C6595 1.388 . S
C6594 C6593 1.366 . S
C6594 C6598 1.385 . S
C6595 H6570 0.951 . S
C6595 C6593 1.388 . S
C6595 C6596 1.366 . S
C6596 C6595 1.366 . S
C6596 C6597 1.414 . S
C6596 C6599 1.499 . S
C6597 H6571 0.950 . S
C6597 C6596 1.414 . S
C6597 C6598 1.374 . S
C6598 H6572 0.950 . S
C6598 C6594 1.385 . S
C6598 C6597 1.374 . S
C6599 C6596 1.499 . S
C6599 C6600 1.373 . S
C6599 C6601 1.389 . S
C6600 H6573 0.950 . S
C6600 C6586 1.377 . S
C6600 C6599 1.373 . S
C6601 C6585 1.377 . S
C6601 C6599 1.389 . S
C6601 C6602 1.524 . S
C6602 C6601 1.524 . S
C6602 C6603 1.397 . S
C6602 C6607 1.363 . S
C6603 H6574 0.950 . S
C6603 C6602 1.397 . S
C6603 C6604 1.334 . S
C6604 H6575 0.950 . S
C6604 C6603 1.334 . S
C6604 C6605 1.287 . S
C6605 C6604 1.287 . S
C6605 C6606 1.524 . S
C6605 H6608 0.999 . S
C6606 H6576 0.950 . S
C6606 C6605 1.524 . S
C6606 C6607 1.415 . S
C6607 H6577 0.950 . S
C6607 C6602 1.363 . S
C6607 C6606 1.415 . S
H6608 C6605 0.999 . S
H6609 C6590 0.913 . S
H6610 C6628 0.951 . S
H6611 C6630 0.951 . S
H6612 C6632 0.950 . S
H6613 C6633 0.950 . S
H6614 C6635 0.950 . S
H6615 C6638 0.950 . S
H6616 C6639 0.950 . S
H6617 C6641 0.950 . S
H6618 C6642 0.950 . S
H6619 C6643 0.951 . S
H6620 C6645 0.951 . S
H6621 C6647 0.950 . S
H6622 C6648 0.950 . S
H6623 C6650 0.950 . S
H6624 C6653 0.950 . S
H6625 C6654 0.950 . S
H6626 C6656 0.950 . S
H6627 C6657 0.950 . S
C6628 H6610 0.951 . S
C6628 C6629 1.366 . S
C6628 C6630 1.388 . S
C6629 C6628 1.366 . S
C6629 C6633 1.385 . S
C6630 H6611 0.951 . S
C6630 C6628 1.388 . S
C6630 C6631 1.366 . S
C6631 C6630 1.366 . S
C6631 C6632 1.414 . S
C6631 C6634 1.499 . S
C6632 H6612 0.950 . S
C6632 C6631 1.414 . S
C6632 C6633 1.374 . S
C6633 H6613 0.950 . S
C6633 C6629 1.385 . S
C6633 C6632 1.374 . S
C6634 C6631 1.499 . S
C6634 C6635 1.373 . S
C6634 C6636 1.389 . S
C6635 H6614 0.950 . S
C6635 C6634 1.373 . S
C6635 C6651 1.377 . S
C6636 C6634 1.389 . S
C6636 C6637 1.524 . S
C6636 C6650 1.377 . S
C6637 C6636 1.524 . S
C6637 C6638 1.397 . S
C6637 C6642 1.363 . S
C6638 H6615 0.950 . S
C6638 C6637 1.397 . S
C6638 C6639 1.334 . S
C6639 H6616 0.950 . S
C6639 C6638 1.334 . S
C6639 C6640 1.287 . S
C6640 C6639 1.287 . S
C6640 C6641 1.524 . S
C6640 H6659 0.913 . S
C6641 H6617 0.950 . S
C6641 C6640 1.524 . S
C6641 C6642 1.415 . S
C6642 H6618 0.950 . S
C6642 C6637 1.363 . S
C6642 C6641 1.415 . S
C6643 H6619 0.951 . S
C6643 C6644 1.366 . S
C6643 C6645 1.388 . S
C6644 C6643 1.366 . S
C6644 C6648 1.385 . S
C6645 H6620 0.951 . S
C6645 C6643 1.388 . S
C6645 C6646 1.366 . S
C6646 C6645 1.366 . S
C6646 C6647 1.414 . S
C6646 C6649 1.499 . S
C6647 H6621 0.950 . S
C6647 C6646 1.414 . S
C6647 C6648 1.374 . S
C6648 H6622 0.950 . S
C6648 C6644 1.385 . S
C6648 C6647 1.374 . S
C6649 C6646 1.499 . S
C6649 C6650 1.373 . S
C6649 C6651 1.389 . S
C6650 H6623 0.950 . S
C6650 C6636 1.377 . S
C6650 C6649 1.373 . S
C6651 C6635 1.377 . S
C6651 C6649 1.389 . S
C6651 C6652 1.524 . S
C6652 C6651 1.524 . S
C6652 C6653 1.397 . S
C6652 C6657 1.363 . S
C6653 H6624 0.950 . S
C6653 C6652 1.397 . S
C6653 C6654 1.334 . S
C6654 H6625 0.950 . S
C6654 C6653 1.334 . S
C6654 C6655 1.287 . S
C6655 C6654 1.287 . S
C6655 C6656 1.524 . S
C6655 H6658 0.999 . S
C6656 H6626 0.950 . S
C6656 C6655 1.524 . S
C6656 C6657 1.415 . S
C6657 H6627 0.950 . S
C6657 C6652 1.363 . S
C6657 C6656 1.415 . S
H6658 C6655 0.999 . S
H6659 C6640 0.913 . S
H6660 C6678 0.951 . S
H6661 C6680 0.951 . S
H6662 C6682 0.950 . S
H6663 C6683 0.950 . S
H6664 C6685 0.950 . S
H6665 C6688 0.950 . S
H6666 C6689 0.950 . S
H6667 C6691 0.928 1_565 S
H6668 C6692 0.950 . S
H6669 C6693 0.951 . S
H6670 C6695 0.951 . S
H6671 C6697 0.950 . S
H6672 C6698 0.950 . S
H6673 C6700 0.950 . S
H6674 C6703 0.950 . S
H6675 C6704 0.950 . S
H6676 C6706 0.950 . S
H6677 C6707 0.950 . S
C6678 H6660 0.951 . S
C6678 C6679 1.366 . S
C6678 C6680 1.388 . S
C6679 C6678 1.366 . S
C6679 C6683 1.385 . S
C6680 H6661 0.951 . S
C6680 C6678 1.388 . S
C6680 C6681 1.366 . S
C6681 C6680 1.366 . S
C6681 C6682 1.414 . S
C6681 C6684 1.499 . S
C6682 H6662 0.950 . S
C6682 C6681 1.414 . S
C6682 C6683 1.374 . S
C6683 H6663 0.950 . S
C6683 C6679 1.385 . S
C6683 C6682 1.374 . S
C6684 C6681 1.499 . S
C6684 C6685 1.373 . S
C6684 C6686 1.389 . S
C6685 H6664 0.950 . S
C6685 C6684 1.373 . S
C6685 C6701 1.377 . S
C6686 C6684 1.389 . S
C6686 C6687 1.524 . S
C6686 C6700 1.377 . S
C6687 C6686 1.524 . S
C6687 C6688 1.397 . S
C6687 C6692 1.363 . S
C6688 H6665 0.950 . S
C6688 C6687 1.397 . S
C6688 C6689 1.334 . S
C6689 H6666 0.950 . S
C6689 C6688 1.334 . S
C6689 C6690 1.287 . S
C6690 C6689 1.287 . S
C6690 C6691 1.524 . S
C6690 H6709 0.913 . S
C6691 H6667 0.928 1_545 S
C6691 C6690 1.524 . S
C6691 C6692 1.415 . S
C6692 H6668 0.950 . S
C6692 C6687 1.363 . S
C6692 C6691 1.415 . S
C6693 H6669 0.951 . S
C6693 C6694 1.366 1_545 S
C6693 C6695 1.388 . S
C6694 C6693 1.366 1_565 S
C6694 C6698 1.385 . S
C6695 H6670 0.951 . S
C6695 C6693 1.388 . S
C6695 C6696 1.366 . S
C6696 C6695 1.366 . S
C6696 C6697 1.414 . S
C6696 C6699 1.499 . S
C6697 H6671 0.950 . S
C6697 C6696 1.414 . S
C6697 C6698 1.374 1_545 S
C6698 H6672 0.950 . S
C6698 C6694 1.385 . S
C6698 C6697 1.374 1_565 S
C6699 C6696 1.499 . S
C6699 C6700 1.373 . S
C6699 C6701 1.389 . S
C6700 H6673 0.950 . S
C6700 C6686 1.377 . S
C6700 C6699 1.373 . S
C6701 C6685 1.377 . S
C6701 C6699 1.389 . S
C6701 C6702 1.524 . S
C6702 C6701 1.524 . S
C6702 C6703 1.397 . S
C6702 C6707 1.363 . S
C6703 H6674 0.950 . S
C6703 C6702 1.397 . S
C6703 C6704 1.334 . S
C6704 H6675 0.950 . S
C6704 C6703 1.334 . S
C6704 C6705 1.287 . S
C6705 C6704 1.287 . S
C6705 C6706 1.524 . S
C6705 H6708 0.999 . S
C6706 H6676 0.950 . S
C6706 C6705 1.524 . S
C6706 C6707 1.415 . S
C6707 H6677 0.950 . S
C6707 C6702 1.363 . S
C6707 C6706 1.415 . S
H6708 C6705 0.999 . S
H6709 C6690 0.913 . S
H6710 C6728 0.951 . S
H6711 C6730 0.951 . S
H6712 C6732 0.950 . S
H6713 C6733 0.950 . S
H6714 C6735 0.950 . S
H6715 C6738 0.950 . S
H6716 C6739 0.950 . S
H6717 C6741 0.950 . S
H6718 C6742 0.950 . S
H6719 C6743 0.951 . S
H6720 C6745 0.951 . S
H6721 C6747 0.950 . S
H6722 C6748 0.950 . S
H6723 C6750 0.950 . S
H6724 C6753 0.950 . S
H6725 C6754 0.950 . S
H6726 C6756 0.950 . S
H6727 C6757 0.950 . S
C6728 H6710 0.951 . S
C6728 C6729 1.366 . S
C6728 C6730 1.388 . S
C6729 C6728 1.366 . S
C6729 C6733 1.385 . S
C6730 H6711 0.951 . S
C6730 C6728 1.388 . S
C6730 C6731 1.366 . S
C6731 C6730 1.366 . S
C6731 C6732 1.414 . S
C6731 C6734 1.499 . S
C6732 H6712 0.950 . S
C6732 C6731 1.414 . S
C6732 C6733 1.374 . S
C6733 H6713 0.950 . S
C6733 C6729 1.385 . S
C6733 C6732 1.374 . S
C6734 C6731 1.499 . S
C6734 C6735 1.373 . S
C6734 C6736 1.389 . S
C6735 H6714 0.950 . S
C6735 C6734 1.373 . S
C6735 C6751 1.377 . S
C6736 C6734 1.389 . S
C6736 C6737 1.524 . S
C6736 C6750 1.377 . S
C6737 C6736 1.524 . S
C6737 C6738 1.397 . S
C6737 C6742 1.363 . S
C6738 H6715 0.950 . S
C6738 C6737 1.397 . S
C6738 C6739 1.334 . S
C6739 H6716 0.950 . S
C6739 C6738 1.334 . S
C6739 C6740 1.287 . S
C6740 C6739 1.287 . S
C6740 C6741 1.524 . S
C6740 H6759 0.913 . S
C6741 H6717 0.950 . S
C6741 C6740 1.524 . S
C6741 C6742 1.415 . S
C6742 H6718 0.950 . S
C6742 C6737 1.363 . S
C6742 C6741 1.415 . S
C6743 H6719 0.951 . S
C6743 C6744 1.366 . S
C6743 C6745 1.388 . S
C6744 C6743 1.366 . S
C6744 C6748 1.385 . S
C6745 H6720 0.951 . S
C6745 C6743 1.388 . S
C6745 C6746 1.366 . S
C6746 C6745 1.366 . S
C6746 C6747 1.414 . S
C6746 C6749 1.499 . S
C6747 H6721 0.950 . S
C6747 C6746 1.414 . S
C6747 C6748 1.374 . S
C6748 H6722 0.950 . S
C6748 C6744 1.385 . S
C6748 C6747 1.374 . S
C6749 C6746 1.499 . S
C6749 C6750 1.373 . S
C6749 C6751 1.389 . S
C6750 H6723 0.950 . S
C6750 C6736 1.377 . S
C6750 C6749 1.373 . S
C6751 C6735 1.377 . S
C6751 C6749 1.389 . S
C6751 C6752 1.524 . S
C6752 C6751 1.524 . S
C6752 C6753 1.397 . S
C6752 C6757 1.363 . S
C6753 H6724 0.950 . S
C6753 C6752 1.397 . S
C6753 C6754 1.334 . S
C6754 H6725 0.950 . S
C6754 C6753 1.334 . S
C6754 C6755 1.287 . S
C6755 C6754 1.287 . S
C6755 C6756 1.524 . S
C6755 H6758 0.999 . S
C6756 H6726 0.950 . S
C6756 C6755 1.524 . S
C6756 C6757 1.415 . S
C6757 H6727 0.950 . S
C6757 C6752 1.363 . S
C6757 C6756 1.415 . S
H6758 C6755 0.999 . S
H6759 C6740 0.913 . S
H6760 C6778 0.951 . S
H6761 C6780 0.951 . S
H6762 C6782 0.950 . S
H6763 C6783 0.950 . S
H6764 C6785 0.950 . S
H6765 C6788 0.950 . S
H6766 C6789 0.950 . S
H6767 C6791 0.950 . S
H6768 C6792 0.950 . S
H6769 C6793 0.951 . S
H6770 C6795 0.951 . S
H6771 C6797 0.950 . S
H6772 C6798 0.950 . S
H6773 C6800 0.950 . S
H6774 C6803 0.950 . S
H6775 C6804 0.950 . S
H6776 C6806 0.950 . S
H6777 C6807 0.950 . S
C6778 H6760 0.951 . S
C6778 C6779 1.366 . S
C6778 C6780 1.388 . S
C6779 C6778 1.366 . S
C6779 C6783 1.385 . S
C6780 H6761 0.951 . S
C6780 C6778 1.388 . S
C6780 C6781 1.366 . S
C6781 C6780 1.366 . S
C6781 C6782 1.414 . S
C6781 C6784 1.499 . S
C6782 H6762 0.950 . S
C6782 C6781 1.414 . S
C6782 C6783 1.374 . S
C6783 H6763 0.950 . S
C6783 C6779 1.385 . S
C6783 C6782 1.374 . S
C6784 C6781 1.499 . S
C6784 C6785 1.373 . S
C6784 C6786 1.389 . S
C6785 H6764 0.950 . S
C6785 C6784 1.373 . S
C6785 C6801 1.377 . S
C6786 C6784 1.389 . S
C6786 C6787 1.524 . S
C6786 C6800 1.377 . S
C6787 C6786 1.524 . S
C6787 C6788 1.397 . S
C6787 C6792 1.363 . S
C6788 H6765 0.950 . S
C6788 C6787 1.397 . S
C6788 C6789 1.334 . S
C6789 H6766 0.950 . S
C6789 C6788 1.334 . S
C6789 C6790 1.287 . S
C6790 C6789 1.287 . S
C6790 C6791 1.524 . S
C6790 H6809 0.913 . S
C6791 H6767 0.950 . S
C6791 C6790 1.524 . S
C6791 C6792 1.415 . S
C6792 H6768 0.950 . S
C6792 C6787 1.363 . S
C6792 C6791 1.415 . S
C6793 H6769 0.951 . S
C6793 C6794 1.366 . S
C6793 C6795 1.388 . S
C6794 C6793 1.366 . S
C6794 C6798 1.385 . S
C6795 H6770 0.951 . S
C6795 C6793 1.388 . S
C6795 C6796 1.366 . S
C6796 C6795 1.366 . S
C6796 C6797 1.414 . S
C6796 C6799 1.499 . S
C6797 H6771 0.950 . S
C6797 C6796 1.414 . S
C6797 C6798 1.374 . S
C6798 H6772 0.950 . S
C6798 C6794 1.385 . S
C6798 C6797 1.374 . S
C6799 C6796 1.499 . S
C6799 C6800 1.373 . S
C6799 C6801 1.389 . S
C6800 H6773 0.950 . S
C6800 C6786 1.377 . S
C6800 C6799 1.373 . S
C6801 C6785 1.377 . S
C6801 C6799 1.389 . S
C6801 C6802 1.524 . S
C6802 C6801 1.524 . S
C6802 C6803 1.397 . S
C6802 C6807 1.363 . S
C6803 H6774 0.950 . S
C6803 C6802 1.397 . S
C6803 C6804 1.334 . S
C6804 H6775 0.950 . S
C6804 C6803 1.334 . S
C6804 C6805 1.287 . S
C6805 C6804 1.287 . S
C6805 C6806 1.524 . S
C6805 H6808 0.999 . S
C6806 H6776 0.950 . S
C6806 C6805 1.524 . S
C6806 C6807 1.415 . S
C6807 H6777 0.950 . S
C6807 C6802 1.363 . S
C6807 C6806 1.415 . S
H6808 C6805 0.999 . S
H6809 C6790 0.913 . S
H6810 C6828 0.951 . S
H6811 C6830 0.951 . S
H6812 C6832 0.950 . S
H6813 C6833 0.950 . S
H6814 C6835 0.950 . S
H6815 C6838 0.950 . S
H6816 C6839 0.950 . S
H6817 C6841 0.950 . S
H6818 C6842 0.950 . S
H6819 C6843 0.951 . S
H6820 C6845 0.951 . S
H6821 C6847 0.950 . S
H6822 C6848 0.950 . S
H6823 C6850 0.950 . S
H6824 C6853 0.950 . S
H6825 C6854 0.950 . S
H6826 C6856 0.950 . S
H6827 C6857 0.950 . S
C6828 H6810 0.951 . S
C6828 C6829 1.366 . S
C6828 C6830 1.388 . S
C6829 C6828 1.366 . S
C6829 C6833 1.385 . S
C6830 H6811 0.951 . S
C6830 C6828 1.388 . S
C6830 C6831 1.366 . S
C6831 C6830 1.366 . S
C6831 C6832 1.414 . S
C6831 C6834 1.499 . S
C6832 H6812 0.950 . S
C6832 C6831 1.414 . S
C6832 C6833 1.374 . S
C6833 H6813 0.950 . S
C6833 C6829 1.385 . S
C6833 C6832 1.374 . S
C6834 C6831 1.499 . S
C6834 C6835 1.373 . S
C6834 C6836 1.389 . S
C6835 H6814 0.950 . S
C6835 C6834 1.373 . S
C6835 C6851 1.377 . S
C6836 C6834 1.389 . S
C6836 C6837 1.524 . S
C6836 C6850 1.377 . S
C6837 C6836 1.524 . S
C6837 C6838 1.397 . S
C6837 C6842 1.363 . S
C6838 H6815 0.950 . S
C6838 C6837 1.397 . S
C6838 C6839 1.334 . S
C6839 H6816 0.950 . S
C6839 C6838 1.334 . S
C6839 C6840 1.287 . S
C6840 C6839 1.287 . S
C6840 C6841 1.524 . S
C6840 H6859 0.913 . S
C6841 H6817 0.950 . S
C6841 C6840 1.524 . S
C6841 C6842 1.415 . S
C6842 H6818 0.950 . S
C6842 C6837 1.363 . S
C6842 C6841 1.415 . S
C6843 H6819 0.951 . S
C6843 C6844 1.366 . S
C6843 C6845 1.388 . S
C6844 C6843 1.366 . S
C6844 C6848 1.385 . S
C6845 H6820 0.951 . S
C6845 C6843 1.388 . S
C6845 C6846 1.366 . S
C6846 C6845 1.366 . S
C6846 C6847 1.414 . S
C6846 C6849 1.499 . S
C6847 H6821 0.950 . S
C6847 C6846 1.414 . S
C6847 C6848 1.374 . S
C6848 H6822 0.950 . S
C6848 C6844 1.385 . S
C6848 C6847 1.374 . S
C6849 C6846 1.499 . S
C6849 C6850 1.373 . S
C6849 C6851 1.389 . S
C6850 H6823 0.950 . S
C6850 C6836 1.377 . S
C6850 C6849 1.373 . S
C6851 C6835 1.377 . S
C6851 C6849 1.389 . S
C6851 C6852 1.524 . S
C6852 C6851 1.524 . S
C6852 C6853 1.397 . S
C6852 C6857 1.363 . S
C6853 H6824 0.950 . S
C6853 C6852 1.397 . S
C6853 C6854 1.334 . S
C6854 H6825 0.950 . S
C6854 C6853 1.334 . S
C6854 C6855 1.287 . S
C6855 C6854 1.287 . S
C6855 C6856 1.524 . S
C6855 H6858 0.999 . S
C6856 H6826 0.950 . S
C6856 C6855 1.524 . S
C6856 C6857 1.415 . S
C6857 H6827 0.950 . S
C6857 C6852 1.363 . S
C6857 C6856 1.415 . S
H6858 C6855 0.999 . S
H6859 C6840 0.913 . S
H6860 C6878 0.951 . S
H6861 C6880 0.951 . S
H6862 C6882 0.950 . S
H6863 C6883 0.950 . S
H6864 C6885 0.950 . S
H6865 C6888 0.950 . S
H6866 C6889 0.950 . S
H6867 C6891 0.950 . S
H6868 C6892 0.950 . S
H6869 C6893 0.951 . S
H6870 C6895 0.951 . S
H6871 C6897 0.950 . S
H6872 C6898 0.950 . S
H6873 C6900 0.950 . S
H6874 C6903 0.950 . S
H6875 C6904 0.950 . S
H6876 C6906 0.950 . S
H6877 C6907 0.950 . S
C6878 H6860 0.951 . S
C6878 C6879 1.366 . S
C6878 C6880 1.388 . S
C6879 C6878 1.366 . S
C6879 C6883 1.385 . S
C6880 H6861 0.951 . S
C6880 C6878 1.388 . S
C6880 C6881 1.366 . S
C6881 C6880 1.366 . S
C6881 C6882 1.414 . S
C6881 C6884 1.499 . S
C6882 H6862 0.950 . S
C6882 C6881 1.414 . S
C6882 C6883 1.374 . S
C6883 H6863 0.950 . S
C6883 C6879 1.385 . S
C6883 C6882 1.374 . S
C6884 C6881 1.499 . S
C6884 C6885 1.373 . S
C6884 C6886 1.389 . S
C6885 H6864 0.950 . S
C6885 C6884 1.373 . S
C6885 C6901 1.377 . S
C6886 C6884 1.389 . S
C6886 C6887 1.524 . S
C6886 C6900 1.377 . S
C6887 C6886 1.524 . S
C6887 C6888 1.397 . S
C6887 C6892 1.363 . S
C6888 H6865 0.950 . S
C6888 C6887 1.397 . S
C6888 C6889 1.334 . S
C6889 H6866 0.950 . S
C6889 C6888 1.334 . S
C6889 C6890 1.287 . S
C6890 C6889 1.287 . S
C6890 C6891 1.524 . S
C6890 H6909 0.913 . S
C6891 H6867 0.950 . S
C6891 C6890 1.524 . S
C6891 C6892 1.415 . S
C6892 H6868 0.950 . S
C6892 C6887 1.363 . S
C6892 C6891 1.415 . S
C6893 H6869 0.951 . S
C6893 C6894 1.366 . S
C6893 C6895 1.388 . S
C6894 C6893 1.366 . S
C6894 C6898 1.385 . S
C6895 H6870 0.951 . S
C6895 C6893 1.388 . S
C6895 C6896 1.366 . S
C6896 C6895 1.366 . S
C6896 C6897 1.414 . S
C6896 C6899 1.499 . S
C6897 H6871 0.950 . S
C6897 C6896 1.414 . S
C6897 C6898 1.374 . S
C6898 H6872 0.950 . S
C6898 C6894 1.385 . S
C6898 C6897 1.374 . S
C6899 C6896 1.499 . S
C6899 C6900 1.373 . S
C6899 C6901 1.389 . S
C6900 H6873 0.950 . S
C6900 C6886 1.377 . S
C6900 C6899 1.373 . S
C6901 C6885 1.377 . S
C6901 C6899 1.389 . S
C6901 C6902 1.524 . S
C6902 C6901 1.524 . S
C6902 C6903 1.397 . S
C6902 C6907 1.363 . S
C6903 H6874 0.950 . S
C6903 C6902 1.397 . S
C6903 C6904 1.334 1_565 S
C6904 H6875 0.950 . S
C6904 C6903 1.334 1_545 S
C6904 C6905 1.287 . S
C6905 C6904 1.287 . S
C6905 C6906 1.524 . S
C6905 H6908 0.999 . S
C6906 H6876 0.950 . S
C6906 C6905 1.524 . S
C6906 C6907 1.415 1_545 S
C6907 H6877 0.950 . S
C6907 C6902 1.363 . S
C6907 C6906 1.415 1_565 S
H6908 C6905 0.999 . S
H6909 C6890 0.913 . S
H6910 C6928 0.942 1_545 S
H6911 C6930 0.951 . S
H6912 C6932 0.950 . S
H6913 C6933 0.950 . S
H6914 C6935 0.978 . S
H6915 C6938 0.950 . S
H6916 C6939 0.950 . S
H6917 C6941 0.950 . S
H6918 C6942 0.950 . S
H6919 C6943 0.951 . S
H6920 C6945 0.951 . S
H6921 C6947 0.950 . S
H6922 C6948 0.950 . S
H6923 C6950 0.950 . S
H6924 C6953 0.950 . S
H6925 C6954 0.950 . S
H6926 C6956 0.950 . S
H6927 C6957 0.931 1_565 S
C6928 H6910 0.942 1_565 S
C6928 C6929 1.408 . S
C6928 C6930 1.356 1_565 S
C6929 C6928 1.408 . S
C6929 C6933 1.385 . S
C6930 H6911 0.951 . S
C6930 C6928 1.356 1_545 S
C6930 C6931 1.366 . S
C6931 C6930 1.366 . S
C6931 C6932 1.414 1_545 S
C6931 C6934 1.499 . S
C6932 H6912 0.950 . S
C6932 C6931 1.414 1_565 S
C6932 C6933 1.374 . S
C6933 H6913 0.950 . S
C6933 C6929 1.385 . S
C6933 C6932 1.374 . S
C6934 C6931 1.499 . S
C6934 C6935 1.373 . S
C6934 C6936 1.389 . S
C6935 H6914 0.978 . S
C6935 C6934 1.373 . S
C6935 C6951 1.377 . S
C6936 C6934 1.389 . S
C6936 C6937 1.524 . S
C6936 C6950 1.377 . S
C6937 C6936 1.524 . S
C6937 C6938 1.397 . S
C6937 C6942 1.363 . S
C6938 H6915 0.950 . S
C6938 C6937 1.397 . S
C6938 C6939 1.334 . S
C6939 H6916 0.950 . S
C6939 C6938 1.334 . S
C6939 C6940 1.287 . S
C6940 C6939 1.287 . S
C6940 C6941 1.524 . S
C6940 H6959 0.913 . S
C6941 H6917 0.950 . S
C6941 C6940 1.524 . S
C6941 C6942 1.415 . S
C6942 H6918 0.950 . S
C6942 C6937 1.363 . S
C6942 C6941 1.415 . S
C6943 H6919 0.951 . S
C6943 C6944 1.366 . S
C6943 C6945 1.388 . S
C6944 C6943 1.366 . S
C6944 C6948 1.385 . S
C6945 H6920 0.951 . S
C6945 C6943 1.388 . S
C6945 C6946 1.366 . S
C6946 C6945 1.366 . S
C6946 C6947 1.414 . S
C6946 C6949 1.499 . S
C6947 H6921 0.950 . S
C6947 C6946 1.414 . S
C6947 C6948 1.374 . S
C6948 H6922 0.950 . S
C6948 C6944 1.385 . S
C6948 C6947 1.374 . S
C6949 C6946 1.499 . S
C6949 C6950 1.373 . S
C6949 C6951 1.389 . S
C6950 H6923 0.950 . S
C6950 C6936 1.377 . S
C6950 C6949 1.373 . S
C6951 C6935 1.377 . S
C6951 C6949 1.389 . S
C6951 C6952 1.524 . S
C6952 C6951 1.524 . S
C6952 C6953 1.397 . S
C6952 C6957 1.409 . S
C6953 H6924 0.950 . S
C6953 C6952 1.397 . S
C6953 C6954 1.334 . S
C6954 H6925 0.950 . S
C6954 C6953 1.334 . S
C6954 C6955 1.298 . S
C6955 C6954 1.298 . S
C6955 C6956 1.518 1_545 S
C6955 H6958 0.993 1_545 S
C6956 H6926 0.950 . S
C6956 C6955 1.518 1_565 S
C6956 C6957 1.390 1_565 S
C6957 H6927 0.931 1_545 S
C6957 C6952 1.409 . S
C6957 C6956 1.390 1_545 S
H6958 C6955 0.993 1_565 S
H6959 C6940 0.913 . S
H6960 C6978 0.951 . S
H6961 C6980 0.951 . S
H6962 C6982 0.950 . S
H6963 C6983 0.950 . S
H6964 C6985 0.950 . S
H6965 C6988 0.950 . S
H6966 C6989 0.950 . S
H6967 C6991 0.950 . S
H6968 C6992 0.950 . S
H6969 C6993 0.951 . S
H6970 C6995 0.951 . S
H6971 C6997 0.950 . S
H6972 C6998 0.950 . S
H6973 C7000 0.950 . S
H6974 C7003 0.950 . S
H6975 C7004 0.950 . S
H6976 C7006 0.950 . S
H6977 C7007 0.950 . S
C6978 H6960 0.951 . S
C6978 C6979 1.366 . S
C6978 C6980 1.388 . S
C6979 C6978 1.366 . S
C6979 C6983 1.385 . S
C6980 H6961 0.951 . S
C6980 C6978 1.388 . S
C6980 C6981 1.366 . S
C6981 C6980 1.366 . S
C6981 C6982 1.414 . S
C6981 C6984 1.499 . S
C6982 H6962 0.950 . S
C6982 C6981 1.414 . S
C6982 C6983 1.374 . S
C6983 H6963 0.950 . S
C6983 C6979 1.385 . S
C6983 C6982 1.374 . S
C6984 C6981 1.499 . S
C6984 C6985 1.373 . S
C6984 C6986 1.389 . S
C6985 H6964 0.950 . S
C6985 C6984 1.373 . S
C6985 C7001 1.377 . S
C6986 C6984 1.389 . S
C6986 C6987 1.524 . S
C6986 C7000 1.377 . S
C6987 C6986 1.524 . S
C6987 C6988 1.397 . S
C6987 C6992 1.363 . S
C6988 H6965 0.950 . S
C6988 C6987 1.397 . S
C6988 C6989 1.334 . S
C6989 H6966 0.950 . S
C6989 C6988 1.334 . S
C6989 C6990 1.287 . S
C6990 C6989 1.287 . S
C6990 C6991 1.524 . S
C6990 H7009 0.913 . S
C6991 H6967 0.950 . S
C6991 C6990 1.524 . S
C6991 C6992 1.415 . S
C6992 H6968 0.950 . S
C6992 C6987 1.363 . S
C6992 C6991 1.415 . S
C6993 H6969 0.951 . S
C6993 C6994 1.366 . S
C6993 C6995 1.388 . S
C6994 C6993 1.366 . S
C6994 C6998 1.385 . S
C6995 H6970 0.951 . S
C6995 C6993 1.388 . S
C6995 C6996 1.366 . S
C6996 C6995 1.366 . S
C6996 C6997 1.414 . S
C6996 C6999 1.499 . S
C6997 H6971 0.950 . S
C6997 C6996 1.414 . S
C6997 C6998 1.374 . S
C6998 H6972 0.950 . S
C6998 C6994 1.385 . S
C6998 C6997 1.374 . S
C6999 C6996 1.499 . S
C6999 C7000 1.373 . S
C6999 C7001 1.389 . S
C7000 H6973 0.950 . S
C7000 C6986 1.377 . S
C7000 C6999 1.373 . S
C7001 C6985 1.377 . S
C7001 C6999 1.389 . S
C7001 C7002 1.524 . S
C7002 C7001 1.524 . S
C7002 C7003 1.397 . S
C7002 C7007 1.363 . S
C7003 H6974 0.950 . S
C7003 C7002 1.397 . S
C7003 C7004 1.334 . S
C7004 H6975 0.950 . S
C7004 C7003 1.334 . S
C7004 C7005 1.287 . S
C7005 C7004 1.287 . S
C7005 C7006 1.524 . S
C7005 H7008 0.999 . S
C7006 H6976 0.950 . S
C7006 C7005 1.524 . S
C7006 C7007 1.415 . S
C7007 H6977 0.950 . S
C7007 C7002 1.363 . S
C7007 C7006 1.415 . S
H7008 C7005 0.999 . S
H7009 C6990 0.913 . S
H7010 C7028 0.951 . S
H7011 C7030 0.951 . S
H7012 C7032 0.950 . S
H7013 C7033 0.950 . S
H7014 C7035 0.950 . S
H7015 C7038 0.950 . S
H7016 C7039 0.950 . S
H7017 C7041 0.950 . S
H7018 C7042 0.950 . S
H7019 C7043 0.951 . S
H7020 C7045 0.951 . S
H7021 C7047 0.950 . S
H7022 C7048 0.950 . S
H7023 C7050 0.950 . S
H7024 C7053 0.950 . S
H7025 C7054 0.950 . S
H7026 C7056 0.950 . S
H7027 C7057 0.950 . S
C7028 H7010 0.951 . S
C7028 C7029 1.366 . S
C7028 C7030 1.388 . S
C7029 C7028 1.366 . S
C7029 C7033 1.385 . S
C7030 H7011 0.951 . S
C7030 C7028 1.388 . S
C7030 C7031 1.366 . S
C7031 C7030 1.366 . S
C7031 C7032 1.414 . S
C7031 C7034 1.499 . S
C7032 H7012 0.950 . S
C7032 C7031 1.414 . S
C7032 C7033 1.374 . S
C7033 H7013 0.950 . S
C7033 C7029 1.385 . S
C7033 C7032 1.374 . S
C7034 C7031 1.499 . S
C7034 C7035 1.373 . S
C7034 C7036 1.389 . S
C7035 H7014 0.950 . S
C7035 C7034 1.373 . S
C7035 C7051 1.377 . S
C7036 C7034 1.389 . S
C7036 C7037 1.524 . S
C7036 C7050 1.377 . S
C7037 C7036 1.524 . S
C7037 C7038 1.397 . S
C7037 C7042 1.363 . S
C7038 H7015 0.950 . S
C7038 C7037 1.397 . S
C7038 C7039 1.334 . S
C7039 H7016 0.950 . S
C7039 C7038 1.334 . S
C7039 C7040 1.287 . S
C7040 C7039 1.287 . S
C7040 C7041 1.524 . S
C7040 H7059 0.913 . S
C7041 H7017 0.950 . S
C7041 C7040 1.524 . S
C7041 C7042 1.415 . S
C7042 H7018 0.950 . S
C7042 C7037 1.363 . S
C7042 C7041 1.415 . S
C7043 H7019 0.951 . S
C7043 C7044 1.366 . S
C7043 C7045 1.388 . S
C7044 C7043 1.366 . S
C7044 C7048 1.385 . S
C7045 H7020 0.951 . S
C7045 C7043 1.388 . S
C7045 C7046 1.366 . S
C7046 C7045 1.366 . S
C7046 C7047 1.414 . S
C7046 C7049 1.499 . S
C7047 H7021 0.950 . S
C7047 C7046 1.414 . S
C7047 C7048 1.374 . S
C7048 H7022 0.950 . S
C7048 C7044 1.385 . S
C7048 C7047 1.374 . S
C7049 C7046 1.499 . S
C7049 C7050 1.373 . S
C7049 C7051 1.389 . S
C7050 H7023 0.950 . S
C7050 C7036 1.377 . S
C7050 C7049 1.373 . S
C7051 C7035 1.377 . S
C7051 C7049 1.389 . S
C7051 C7052 1.524 . S
C7052 C7051 1.524 . S
C7052 C7053 1.397 . S
C7052 C7057 1.363 . S
C7053 H7024 0.950 . S
C7053 C7052 1.397 . S
C7053 C7054 1.334 . S
C7054 H7025 0.950 . S
C7054 C7053 1.334 . S
C7054 C7055 1.287 . S
C7055 C7054 1.287 . S
C7055 C7056 1.524 . S
C7055 H7058 0.999 . S
C7056 H7026 0.950 . S
C7056 C7055 1.524 . S
C7056 C7057 1.415 . S
C7057 H7027 0.950 . S
C7057 C7052 1.363 . S
C7057 C7056 1.415 . S
H7058 C7055 0.999 . S
H7059 C7040 0.913 . S
H7060 C7078 0.951 . S
H7061 C7080 0.951 . S
H7062 C7082 0.950 . S
H7063 C7083 0.950 . S
H7064 C7085 0.950 . S
H7065 C7088 0.950 . S
H7066 C7089 0.950 . S
H7067 C7091 0.950 . S
H7068 C7092 0.950 . S
H7069 C7093 0.951 . S
H7070 C7095 0.951 . S
H7071 C7097 0.950 . S
H7072 C7098 0.950 . S
H7073 C7100 0.950 . S
H7074 C7103 0.950 . S
H7075 C7104 0.950 . S
H7076 C7106 0.950 . S
H7077 C7107 0.950 . S
C7078 H7060 0.951 . S
C7078 C7079 1.366 . S
C7078 C7080 1.388 . S
C7079 C7078 1.366 . S
C7079 C7083 1.385 . S
C7080 H7061 0.951 . S
C7080 C7078 1.388 . S
C7080 C7081 1.366 . S
C7081 C7080 1.366 . S
C7081 C7082 1.414 . S
C7081 C7084 1.499 . S
C7082 H7062 0.950 . S
C7082 C7081 1.414 . S
C7082 C7083 1.374 . S
C7083 H7063 0.950 . S
C7083 C7079 1.385 . S
C7083 C7082 1.374 . S
C7084 C7081 1.499 . S
C7084 C7085 1.373 . S
C7084 C7086 1.389 . S
C7085 H7064 0.950 . S
C7085 C7084 1.373 . S
C7085 C7101 1.377 . S
C7086 C7084 1.389 . S
C7086 C7087 1.524 . S
C7086 C7100 1.377 . S
C7087 C7086 1.524 . S
C7087 C7088 1.397 . S
C7087 C7092 1.363 . S
C7088 H7065 0.950 . S
C7088 C7087 1.397 . S
C7088 C7089 1.334 . S
C7089 H7066 0.950 . S
C7089 C7088 1.334 . S
C7089 C7090 1.287 . S
C7090 C7089 1.287 . S
C7090 C7091 1.524 . S
C7090 H7109 0.913 . S
C7091 H7067 0.950 . S
C7091 C7090 1.524 . S
C7091 C7092 1.415 . S
C7092 H7068 0.950 . S
C7092 C7087 1.363 . S
C7092 C7091 1.415 . S
C7093 H7069 0.951 . S
C7093 C7094 1.366 . S
C7093 C7095 1.388 . S
C7094 C7093 1.366 . S
C7094 C7098 1.385 . S
C7095 H7070 0.951 . S
C7095 C7093 1.388 . S
C7095 C7096 1.366 . S
C7096 C7095 1.366 . S
C7096 C7097 1.414 . S
C7096 C7099 1.499 . S
C7097 H7071 0.950 . S
C7097 C7096 1.414 . S
C7097 C7098 1.374 . S
C7098 H7072 0.950 . S
C7098 C7094 1.385 . S
C7098 C7097 1.374 . S
C7099 C7096 1.499 . S
C7099 C7100 1.373 . S
C7099 C7101 1.389 . S
C7100 H7073 0.950 . S
C7100 C7086 1.377 . S
C7100 C7099 1.373 . S
C7101 C7085 1.377 . S
C7101 C7099 1.389 . S
C7101 C7102 1.524 . S
C7102 C7101 1.524 . S
C7102 C7103 1.397 . S
C7102 C7107 1.363 . S
C7103 H7074 0.950 . S
C7103 C7102 1.397 . S
C7103 C7104 1.334 . S
C7104 H7075 0.950 . S
C7104 C7103 1.334 . S
C7104 C7105 1.287 . S
C7105 C7104 1.287 . S
C7105 C7106 1.524 . S
C7105 H7108 0.999 . S
C7106 H7076 0.950 . S
C7106 C7105 1.524 . S
C7106 C7107 1.415 . S
C7107 H7077 0.950 . S
C7107 C7102 1.363 . S
C7107 C7106 1.415 . S
H7108 C7105 0.999 . S
H7109 C7090 0.913 . S
H7110 C7128 0.951 . S
H7111 C7130 0.951 . S
H7112 C7132 0.950 . S
H7113 C7133 0.950 . S
H7114 C7135 0.950 . S
H7115 C7138 0.950 . S
H7116 C7139 0.950 . S
H7117 C7141 0.950 . S
H7118 C7142 0.950 . S
H7119 C7143 0.951 . S
H7120 C7145 0.951 . S
H7121 C7147 0.950 . S
H7122 C7148 0.950 . S
H7123 C7150 0.950 . S
H7124 C7153 0.950 . S
H7125 C7154 0.950 . S
H7126 C7156 0.950 . S
H7127 C7157 0.950 . S
C7128 H7110 0.951 . S
C7128 C7129 1.366 . S
C7128 C7130 1.388 . S
C7129 C7128 1.366 . S
C7129 C7133 1.385 . S
C7130 H7111 0.951 . S
C7130 C7128 1.388 . S
C7130 C7131 1.366 . S
C7131 C7130 1.366 . S
C7131 C7132 1.414 . S
C7131 C7134 1.499 . S
C7132 H7112 0.950 . S
C7132 C7131 1.414 . S
C7132 C7133 1.374 . S
C7133 H7113 0.950 . S
C7133 C7129 1.385 . S
C7133 C7132 1.374 . S
C7134 C7131 1.499 . S
C7134 C7135 1.373 . S
C7134 C7136 1.389 . S
C7135 H7114 0.950 . S
C7135 C7134 1.373 . S
C7135 C7151 1.377 . S
C7136 C7134 1.389 . S
C7136 C7137 1.524 . S
C7136 C7150 1.377 . S
C7137 C7136 1.524 . S
C7137 C7138 1.397 . S
C7137 C7142 1.363 . S
C7138 H7115 0.950 . S
C7138 C7137 1.397 . S
C7138 C7139 1.334 . S
C7139 H7116 0.950 . S
C7139 C7138 1.334 . S
C7139 C7140 1.287 . S
C7140 C7139 1.287 . S
C7140 C7141 1.524 . S
C7140 H7159 0.913 . S
C7141 H7117 0.950 . S
C7141 C7140 1.524 . S
C7141 C7142 1.415 . S
C7142 H7118 0.950 . S
C7142 C7137 1.363 . S
C7142 C7141 1.415 . S
C7143 H7119 0.951 . S
C7143 C7144 1.366 1_455 S
C7143 C7145 1.388 1_455 S
C7144 C7143 1.366 1_655 S
C7144 C7148 1.385 . S
C7145 H7120 0.951 . S
C7145 C7143 1.388 1_655 S
C7145 C7146 1.366 . S
C7146 C7145 1.366 . S
C7146 C7147 1.414 . S
C7146 C7149 1.499 . S
C7147 H7121 0.950 . S
C7147 C7146 1.414 . S
C7147 C7148 1.374 . S
C7148 H7122 0.950 . S
C7148 C7144 1.385 . S
C7148 C7147 1.374 . S
C7149 C7146 1.499 . S
C7149 C7150 1.373 . S
C7149 C7151 1.389 . S
C7150 H7123 0.950 . S
C7150 C7136 1.377 . S
C7150 C7149 1.373 . S
C7151 C7135 1.377 . S
C7151 C7149 1.389 . S
C7151 C7152 1.524 . S
C7152 C7151 1.524 . S
C7152 C7153 1.397 . S
C7152 C7157 1.363 . S
C7153 H7124 0.950 . S
C7153 C7152 1.397 . S
C7153 C7154 1.334 . S
C7154 H7125 0.950 . S
C7154 C7153 1.334 . S
C7154 C7155 1.287 . S
C7155 C7154 1.287 . S
C7155 C7156 1.524 . S
C7155 H7158 0.999 . S
C7156 H7126 0.950 . S
C7156 C7155 1.524 . S
C7156 C7157 1.415 . S
C7157 H7127 0.950 . S
C7157 C7152 1.363 . S
C7157 C7156 1.415 . S
H7158 C7155 0.999 . S
H7159 C7140 0.913 . S
H7160 C7178 0.951 . S
H7161 C7180 0.951 . S
H7162 C7182 0.950 . S
H7163 C7183 0.950 . S
H7164 C7185 0.950 . S
H7165 C7188 0.950 . S
H7166 C7189 0.950 . S
H7167 C7191 0.950 . S
H7168 C7192 0.950 . S
H7169 C7193 0.951 . S
H7170 C7195 0.951 . S
H7171 C7197 0.950 . S
H7172 C7198 0.950 . S
H7173 C7200 0.950 . S
H7174 C7203 0.950 . S
H7175 C7204 0.950 . S
H7176 C7206 0.950 . S
H7177 C7207 0.950 . S
C7178 H7160 0.951 . S
C7178 C7179 1.366 . S
C7178 C7180 1.388 . S
C7179 C7178 1.366 . S
C7179 C7183 1.385 . S
C7180 H7161 0.951 . S
C7180 C7178 1.388 . S
C7180 C7181 1.366 . S
C7181 C7180 1.366 . S
C7181 C7182 1.414 . S
C7181 C7184 1.499 . S
C7182 H7162 0.950 . S
C7182 C7181 1.414 . S
C7182 C7183 1.374 . S
C7183 H7163 0.950 . S
C7183 C7179 1.385 . S
C7183 C7182 1.374 . S
C7184 C7181 1.499 . S
C7184 C7185 1.373 . S
C7184 C7186 1.389 . S
C7185 H7164 0.950 . S
C7185 C7184 1.373 . S
C7185 C7201 1.377 . S
C7186 C7184 1.389 . S
C7186 C7187 1.524 . S
C7186 C7200 1.377 . S
C7187 C7186 1.524 . S
C7187 C7188 1.397 . S
C7187 C7192 1.363 . S
C7188 H7165 0.950 . S
C7188 C7187 1.397 . S
C7188 C7189 1.334 . S
C7189 H7166 0.950 . S
C7189 C7188 1.334 . S
C7189 C7190 1.287 . S
C7190 C7189 1.287 . S
C7190 C7191 1.524 . S
C7190 H7209 0.913 . S
C7191 H7167 0.950 . S
C7191 C7190 1.524 . S
C7191 C7192 1.415 . S
C7192 H7168 0.950 . S
C7192 C7187 1.363 . S
C7192 C7191 1.415 . S
C7193 H7169 0.951 . S
C7193 C7194 1.366 . S
C7193 C7195 1.388 . S
C7194 C7193 1.366 . S
C7194 C7198 1.385 . S
C7195 H7170 0.951 . S
C7195 C7193 1.388 . S
C7195 C7196 1.366 . S
C7196 C7195 1.366 . S
C7196 C7197 1.414 . S
C7196 C7199 1.499 . S
C7197 H7171 0.950 . S
C7197 C7196 1.414 . S
C7197 C7198 1.374 . S
C7198 H7172 0.950 . S
C7198 C7194 1.385 . S
C7198 C7197 1.374 . S
C7199 C7196 1.499 . S
C7199 C7200 1.373 . S
C7199 C7201 1.389 . S
C7200 H7173 0.950 . S
C7200 C7186 1.377 . S
C7200 C7199 1.373 . S
C7201 C7185 1.377 . S
C7201 C7199 1.389 . S
C7201 C7202 1.524 . S
C7202 C7201 1.524 . S
C7202 C7203 1.397 . S
C7202 C7207 1.363 . S
C7203 H7174 0.950 . S
C7203 C7202 1.397 . S
C7203 C7204 1.334 . S
C7204 H7175 0.950 . S
C7204 C7203 1.334 . S
C7204 C7205 1.287 . S
C7205 C7204 1.287 . S
C7205 C7206 1.524 . S
C7205 H7208 0.999 . S
C7206 H7176 0.950 . S
C7206 C7205 1.524 . S
C7206 C7207 1.415 . S
C7207 H7177 0.950 . S
C7207 C7202 1.363 . S
C7207 C7206 1.415 . S
H7208 C7205 0.999 . S
H7209 C7190 0.913 . S
H7210 C7228 0.951 . S
H7211 C7230 0.951 . S
H7212 C7232 0.950 . S
H7213 C7233 0.950 . S
H7214 C7235 0.950 . S
H7215 C7238 0.950 . S
H7216 C7239 0.950 . S
H7217 C7241 0.950 . S
H7218 C7242 0.950 . S
H7219 C7243 0.951 . S
H7220 C7245 0.951 . S
H7221 C7247 0.950 . S
H7222 C7248 0.950 . S
H7223 C7250 0.950 . S
H7224 C7253 0.950 . S
H7225 C7254 0.950 . S
H7226 C7256 0.950 . S
H7227 C7257 0.950 . S
C7228 H7210 0.951 . S
C7228 C7229 1.366 . S
C7228 C7230 1.388 . S
C7229 C7228 1.366 . S
C7229 C7233 1.385 . S
C7230 H7211 0.951 . S
C7230 C7228 1.388 . S
C7230 C7231 1.366 . S
C7231 C7230 1.366 . S
C7231 C7232 1.414 . S
C7231 C7234 1.499 . S
C7232 H7212 0.950 . S
C7232 C7231 1.414 . S
C7232 C7233 1.374 . S
C7233 H7213 0.950 . S
C7233 C7229 1.385 . S
C7233 C7232 1.374 . S
C7234 C7231 1.499 . S
C7234 C7235 1.373 . S
C7234 C7236 1.389 . S
C7235 H7214 0.950 . S
C7235 C7234 1.373 . S
C7235 C7251 1.377 . S
C7236 C7234 1.389 . S
C7236 C7237 1.524 . S
C7236 C7250 1.377 . S
C7237 C7236 1.524 . S
C7237 C7238 1.397 1_655 S
C7237 C7242 1.363 . S
C7238 H7215 0.950 . S
C7238 C7237 1.397 1_455 S
C7238 C7239 1.334 . S
C7239 H7216 0.950 . S
C7239 C7238 1.334 . S
C7239 C7240 1.287 . S
C7240 C7239 1.287 . S
C7240 C7241 1.524 . S
C7240 H7259 0.913 . S
C7241 H7217 0.950 . S
C7241 C7240 1.524 . S
C7241 C7242 1.415 1_455 S
C7242 H7218 0.950 . S
C7242 C7237 1.363 . S
C7242 C7241 1.415 1_655 S
C7243 H7219 0.951 . S
C7243 C7244 1.366 . S
C7243 C7245 1.388 . S
C7244 C7243 1.366 . S
C7244 C7248 1.385 . S
C7245 H7220 0.951 . S
C7245 C7243 1.388 . S
C7245 C7246 1.366 . S
C7246 C7245 1.366 . S
C7246 C7247 1.414 . S
C7246 C7249 1.499 . S
C7247 H7221 0.950 . S
C7247 C7246 1.414 . S
C7247 C7248 1.374 . S
C7248 H7222 0.950 . S
C7248 C7244 1.385 . S
C7248 C7247 1.374 . S
C7249 C7246 1.499 . S
C7249 C7250 1.373 . S
C7249 C7251 1.389 . S
C7250 H7223 0.950 . S
C7250 C7236 1.377 . S
C7250 C7249 1.373 . S
C7251 C7235 1.377 . S
C7251 C7249 1.389 . S
C7251 C7252 1.524 . S
C7252 C7251 1.524 . S
C7252 C7253 1.397 . S
C7252 C7257 1.363 . S
C7253 H7224 0.950 . S
C7253 C7252 1.397 . S
C7253 C7254 1.334 . S
C7254 H7225 0.950 . S
C7254 C7253 1.334 . S
C7254 C7255 1.287 . S
C7255 C7254 1.287 . S
C7255 C7256 1.524 . S
C7255 H7258 0.999 . S
C7256 H7226 0.950 . S
C7256 C7255 1.524 . S
C7256 C7257 1.415 . S
C7257 H7227 0.950 . S
C7257 C7252 1.363 . S
C7257 C7256 1.415 . S
H7258 C7255 0.999 . S
H7259 C7240 0.913 . S
H7260 C7278 0.951 . S
H7261 C7280 0.951 . S
H7262 C7282 0.950 . S
H7263 C7283 0.950 . S
H7264 C7285 0.950 . S
H7265 C7288 0.950 . S
H7266 C7289 0.950 . S
H7267 C7291 0.950 . S
H7268 C7292 0.950 . S
H7269 C7293 0.951 . S
H7270 C7295 0.951 . S
H7271 C7297 0.950 . S
H7272 C7298 0.950 . S
H7273 C7300 0.950 . S
H7274 C7303 0.950 . S
H7275 C7304 0.950 . S
H7276 C7306 0.950 . S
H7277 C7307 0.950 . S
C7278 H7260 0.951 . S
C7278 C7279 1.366 . S
C7278 C7280 1.388 . S
C7279 C7278 1.366 . S
C7279 C7283 1.385 . S
C7280 H7261 0.951 . S
C7280 C7278 1.388 . S
C7280 C7281 1.366 . S
C7281 C7280 1.366 . S
C7281 C7282 1.414 . S
C7281 C7284 1.499 . S
C7282 H7262 0.950 . S
C7282 C7281 1.414 . S
C7282 C7283 1.374 . S
C7283 H7263 0.950 . S
C7283 C7279 1.385 . S
C7283 C7282 1.374 . S
C7284 C7281 1.499 . S
C7284 C7285 1.373 . S
C7284 C7286 1.389 . S
C7285 H7264 0.950 . S
C7285 C7284 1.373 . S
C7285 C7301 1.377 . S
C7286 C7284 1.389 . S
C7286 C7287 1.524 . S
C7286 C7300 1.377 . S
C7287 C7286 1.524 . S
C7287 C7288 1.397 . S
C7287 C7292 1.363 . S
C7288 H7265 0.950 . S
C7288 C7287 1.397 . S
C7288 C7289 1.334 . S
C7289 H7266 0.950 . S
C7289 C7288 1.334 . S
C7289 C7290 1.287 . S
C7290 C7289 1.287 . S
C7290 C7291 1.524 . S
C7290 H7309 0.913 . S
C7291 H7267 0.950 . S
C7291 C7290 1.524 . S
C7291 C7292 1.415 . S
C7292 H7268 0.950 . S
C7292 C7287 1.363 . S
C7292 C7291 1.415 . S
C7293 H7269 0.951 . S
C7293 C7294 1.366 . S
C7293 C7295 1.388 . S
C7294 C7293 1.366 . S
C7294 C7298 1.385 . S
C7295 H7270 0.951 . S
C7295 C7293 1.388 . S
C7295 C7296 1.366 . S
C7296 C7295 1.366 . S
C7296 C7297 1.414 . S
C7296 C7299 1.499 . S
C7297 H7271 0.950 . S
C7297 C7296 1.414 . S
C7297 C7298 1.374 . S
C7298 H7272 0.950 . S
C7298 C7294 1.385 . S
C7298 C7297 1.374 . S
C7299 C7296 1.499 . S
C7299 C7300 1.373 . S
C7299 C7301 1.389 . S
C7300 H7273 0.950 . S
C7300 C7286 1.377 . S
C7300 C7299 1.373 . S
C7301 C7285 1.377 . S
C7301 C7299 1.389 . S
C7301 C7302 1.524 . S
C7302 C7301 1.524 . S
C7302 C7303 1.397 . S
C7302 C7307 1.363 . S
C7303 H7274 0.950 . S
C7303 C7302 1.397 . S
C7303 C7304 1.334 . S
C7304 H7275 0.950 . S
C7304 C7303 1.334 . S
C7304 C7305 1.287 . S
C7305 C7304 1.287 . S
C7305 C7306 1.524 . S
C7305 H7308 0.999 . S
C7306 H7276 0.950 . S
C7306 C7305 1.524 . S
C7306 C7307 1.415 . S
C7307 H7277 0.950 . S
C7307 C7302 1.363 . S
C7307 C7306 1.415 . S
H7308 C7305 0.999 . S
H7309 C7290 0.913 . S
H7310 C7328 0.951 . S
H7311 C7330 0.951 . S
H7312 C7332 0.950 . S
H7313 C7333 0.950 . S
H7314 C7335 0.950 . S
H7315 C7338 0.950 . S
H7316 C7339 0.950 . S
H7317 C7341 0.950 . S
H7318 C7342 0.950 . S
H7319 C7343 0.951 . S
H7320 C7345 0.951 . S
H7321 C7347 0.950 . S
H7322 C7348 0.950 . S
H7323 C7350 0.950 . S
H7324 C7353 0.950 . S
H7325 C7354 0.950 . S
H7326 C7356 0.950 . S
H7327 C7357 0.950 . S
C7328 H7310 0.951 . S
C7328 C7329 1.366 . S
C7328 C7330 1.388 . S
C7329 C7328 1.366 . S
C7329 C7333 1.385 . S
C7330 H7311 0.951 . S
C7330 C7328 1.388 . S
C7330 C7331 1.366 . S
C7331 C7330 1.366 . S
C7331 C7332 1.414 . S
C7331 C7334 1.499 . S
C7332 H7312 0.950 . S
C7332 C7331 1.414 . S
C7332 C7333 1.374 . S
C7333 H7313 0.950 . S
C7333 C7329 1.385 . S
C7333 C7332 1.374 . S
C7334 C7331 1.499 . S
C7334 C7335 1.373 . S
C7334 C7336 1.389 . S
C7335 H7314 0.950 . S
C7335 C7334 1.373 . S
C7335 C7351 1.377 . S
C7336 C7334 1.389 . S
C7336 C7337 1.524 . S
C7336 C7350 1.377 . S
C7337 C7336 1.524 . S
C7337 C7338 1.397 . S
C7337 C7342 1.363 . S
C7338 H7315 0.950 . S
C7338 C7337 1.397 . S
C7338 C7339 1.334 . S
C7339 H7316 0.950 . S
C7339 C7338 1.334 . S
C7339 C7340 1.287 . S
C7340 C7339 1.287 . S
C7340 C7341 1.524 . S
C7340 H7359 0.913 . S
C7341 H7317 0.950 . S
C7341 C7340 1.524 . S
C7341 C7342 1.415 . S
C7342 H7318 0.950 . S
C7342 C7337 1.363 . S
C7342 C7341 1.415 . S
C7343 H7319 0.951 . S
C7343 C7344 1.366 . S
C7343 C7345 1.388 . S
C7344 C7343 1.366 . S
C7344 C7348 1.385 . S
C7345 H7320 0.951 . S
C7345 C7343 1.388 . S
C7345 C7346 1.366 . S
C7346 C7345 1.366 . S
C7346 C7347 1.414 . S
C7346 C7349 1.499 . S
C7347 H7321 0.950 . S
C7347 C7346 1.414 . S
C7347 C7348 1.374 . S
C7348 H7322 0.950 . S
C7348 C7344 1.385 . S
C7348 C7347 1.374 . S
C7349 C7346 1.499 . S
C7349 C7350 1.373 . S
C7349 C7351 1.389 . S
C7350 H7323 0.950 . S
C7350 C7336 1.377 . S
C7350 C7349 1.373 . S
C7351 C7335 1.377 . S
C7351 C7349 1.389 . S
C7351 C7352 1.524 . S
C7352 C7351 1.524 . S
C7352 C7353 1.397 . S
C7352 C7357 1.363 . S
C7353 H7324 0.950 . S
C7353 C7352 1.397 . S
C7353 C7354 1.334 . S
C7354 H7325 0.950 . S
C7354 C7353 1.334 . S
C7354 C7355 1.287 . S
C7355 C7354 1.287 . S
C7355 C7356 1.524 . S
C7355 H7358 0.999 . S
C7356 H7326 0.950 . S
C7356 C7355 1.524 . S
C7356 C7357 1.415 . S
C7357 H7327 0.950 . S
C7357 C7352 1.363 . S
C7357 C7356 1.415 . S
H7358 C7355 0.999 . S
H7359 C7340 0.913 . S
H7360 C7378 0.951 . S
H7361 C7380 0.951 . S
H7362 C7382 0.950 . S
H7363 C7383 0.950 . S
H7364 C7385 0.950 . S
H7365 C7388 0.950 . S
H7366 C7389 0.950 . S
H7367 C7391 0.950 . S
H7368 C7392 0.950 . S
H7369 C7393 0.951 . S
H7370 C7395 0.951 . S
H7371 C7397 0.950 . S
H7372 C7398 0.950 . S
H7373 C7400 0.950 . S
H7374 C7403 0.950 . S
H7375 C7404 0.950 . S
H7376 C7406 0.950 . S
H7377 C7407 0.950 . S
C7378 H7360 0.951 . S
C7378 C7379 1.366 . S
C7378 C7380 1.388 . S
C7379 C7378 1.366 . S
C7379 C7383 1.385 . S
C7380 H7361 0.951 . S
C7380 C7378 1.388 . S
C7380 C7381 1.366 . S
C7381 C7380 1.366 . S
C7381 C7382 1.414 . S
C7381 C7384 1.499 . S
C7382 H7362 0.950 . S
C7382 C7381 1.414 . S
C7382 C7383 1.374 . S
C7383 H7363 0.950 . S
C7383 C7379 1.385 . S
C7383 C7382 1.374 . S
C7384 C7381 1.499 . S
C7384 C7385 1.373 . S
C7384 C7386 1.389 . S
C7385 H7364 0.950 . S
C7385 C7384 1.373 . S
C7385 C7401 1.377 . S
C7386 C7384 1.389 . S
C7386 C7387 1.524 . S
C7386 C7400 1.377 . S
C7387 C7386 1.524 . S
C7387 C7388 1.397 . S
C7387 C7392 1.363 . S
C7388 H7365 0.950 . S
C7388 C7387 1.397 . S
C7388 C7389 1.334 . S
C7389 H7366 0.950 . S
C7389 C7388 1.334 . S
C7389 C7390 1.287 . S
C7390 C7389 1.287 . S
C7390 C7391 1.524 . S
C7390 H7409 0.913 . S
C7391 H7367 0.950 . S
C7391 C7390 1.524 . S
C7391 C7392 1.415 . S
C7392 H7368 0.950 . S
C7392 C7387 1.363 . S
C7392 C7391 1.415 . S
C7393 H7369 0.951 . S
C7393 C7394 1.366 . S
C7393 C7395 1.388 . S
C7394 C7393 1.366 . S
C7394 C7398 1.385 . S
C7395 H7370 0.951 . S
C7395 C7393 1.388 . S
C7395 C7396 1.366 . S
C7396 C7395 1.366 . S
C7396 C7397 1.414 . S
C7396 C7399 1.499 . S
C7397 H7371 0.950 . S
C7397 C7396 1.414 . S
C7397 C7398 1.374 . S
C7398 H7372 0.950 . S
C7398 C7394 1.385 . S
C7398 C7397 1.374 . S
C7399 C7396 1.499 . S
C7399 C7400 1.373 . S
C7399 C7401 1.389 . S
C7400 H7373 0.950 . S
C7400 C7386 1.377 . S
C7400 C7399 1.373 . S
C7401 C7385 1.377 . S
C7401 C7399 1.389 . S
C7401 C7402 1.524 . S
C7402 C7401 1.524 . S
C7402 C7403 1.397 . S
C7402 C7407 1.363 . S
C7403 H7374 0.950 . S
C7403 C7402 1.397 . S
C7403 C7404 1.334 . S
C7404 H7375 0.950 . S
C7404 C7403 1.334 . S
C7404 C7405 1.287 . S
C7405 C7404 1.287 . S
C7405 C7406 1.524 . S
C7405 H7408 0.999 . S
C7406 H7376 0.950 . S
C7406 C7405 1.524 . S
C7406 C7407 1.415 . S
C7407 H7377 0.950 . S
C7407 C7402 1.363 . S
C7407 C7406 1.415 . S
H7408 C7405 0.999 . S
H7409 C7390 0.913 . S
H7410 C7428 0.951 . S
H7411 C7430 0.951 . S
H7412 C7432 0.950 . S
H7413 C7433 0.950 . S
H7414 C7435 0.950 . S
H7415 C7438 0.950 . S
H7416 C7439 0.950 . S
H7417 C7441 0.950 . S
H7418 C7442 0.950 . S
H7419 C7443 0.951 . S
H7420 C7445 0.951 1_554 S
H7421 C7447 0.950 . S
H7422 C7448 0.950 . S
H7423 C7450 0.950 . S
H7424 C7453 0.950 . S
H7425 C7454 0.955 . S
H7426 C7456 0.950 . S
H7427 C7457 0.954 . S
C7428 H7410 0.951 . S
C7428 C7429 1.366 . S
C7428 C7430 1.388 . S
C7429 C7428 1.366 . S
C7429 C7433 1.385 . S
C7430 H7411 0.951 . S
C7430 C7428 1.388 . S
C7430 C7431 1.366 . S
C7431 C7430 1.366 . S
C7431 C7432 1.414 . S
C7431 C7434 1.499 . S
C7432 H7412 0.950 . S
C7432 C7431 1.414 . S
C7432 C7433 1.374 . S
C7433 H7413 0.950 . S
C7433 C7429 1.385 . S
C7433 C7432 1.374 . S
C7434 C7431 1.499 . S
C7434 C7435 1.373 . S
C7434 C7436 1.389 . S
C7435 H7414 0.950 . S
C7435 C7434 1.373 . S
C7435 C7451 1.377 . S
C7436 C7434 1.389 . S
C7436 C7437 1.524 . S
C7436 C7450 1.377 . S
C7437 C7436 1.524 . S
C7437 C7438 1.397 . S
C7437 C7442 1.363 . S
C7438 H7415 0.950 . S
C7438 C7437 1.397 . S
C7438 C7439 1.334 . S
C7439 H7416 0.950 . S
C7439 C7438 1.334 . S
C7439 C7440 1.287 . S
C7440 C7439 1.287 . S
C7440 C7441 1.524 . S
C7440 H7459 0.913 . S
C7441 H7417 0.950 . S
C7441 C7440 1.524 . S
C7441 C7442 1.415 . S
C7442 H7418 0.950 . S
C7442 C7437 1.363 . S
C7442 C7441 1.415 . S
C7443 H7419 0.951 . S
C7443 C7444 1.353 1_554 S
C7443 C7445 1.388 1_554 S
C7444 C7443 1.353 1_556 S
C7444 C7448 1.415 . S
C7445 H7420 0.951 1_556 S
C7445 C7443 1.388 1_556 S
C7445 C7446 1.366 . S
C7446 C7445 1.366 . S
C7446 C7447 1.414 . S
C7446 C7449 1.499 . S
C7447 H7421 0.950 . S
C7447 C7446 1.414 . S
C7447 C7448 1.374 . S
C7448 H7422 0.950 . S
C7448 C7444 1.415 . S
C7448 C7447 1.374 . S
C7449 C7446 1.499 . S
C7449 C7450 1.373 . S
C7449 C7451 1.389 . S
C7450 H7423 0.950 . S
C7450 C7436 1.377 . S
C7450 C7449 1.373 . S
C7451 C7435 1.377 . S
C7451 C7449 1.389 . S
C7451 C7452 1.524 . S
C7452 C7451 1.524 . S
C7452 C7453 1.397 . S
C7452 C7457 1.386 . S
C7453 H7424 0.950 . S
C7453 C7452 1.397 . S
C7453 C7454 1.295 1_556 S
C7454 H7425 0.955 . S
C7454 C7453 1.295 1_554 S
C7454 C7455 1.323 . S
C7455 C7454 1.323 . S
C7455 C7456 1.524 . S
C7455 H7458 0.999 . S
C7456 H7426 0.950 . S
C7456 C7455 1.524 . S
C7456 C7457 1.389 1_554 S
C7457 H7427 0.954 . S
C7457 C7452 1.386 . S
C7457 C7456 1.389 1_556 S
H7458 C7455 0.999 . S
H7459 C7440 0.913 . S
H7460 C7478 0.951 . S
H7461 C7480 0.951 . S
H7462 C7482 0.950 . S
H7463 C7483 0.950 . S
H7464 C7485 0.950 . S
H7465 C7488 0.950 . S
H7466 C7489 0.950 . S
H7467 C7491 0.950 . S
H7468 C7492 0.950 . S
H7469 C7493 0.951 . S
H7470 C7495 0.951 . S
H7471 C7497 0.950 . S
H7472 C7498 0.950 . S
H7473 C7500 0.950 . S
H7474 C7503 0.950 . S
H7475 C7504 0.950 . S
H7476 C7506 0.950 . S
H7477 C7507 0.950 . S
C7478 H7460 0.951 . S
C7478 C7479 1.366 . S
C7478 C7480 1.388 . S
C7479 C7478 1.366 . S
C7479 C7483 1.385 . S
C7480 H7461 0.951 . S
C7480 C7478 1.388 . S
C7480 C7481 1.366 . S
C7481 C7480 1.366 . S
C7481 C7482 1.414 . S
C7481 C7484 1.499 . S
C7482 H7462 0.950 . S
C7482 C7481 1.414 . S
C7482 C7483 1.374 . S
C7483 H7463 0.950 . S
C7483 C7479 1.385 . S
C7483 C7482 1.374 . S
C7484 C7481 1.499 . S
C7484 C7485 1.373 . S
C7484 C7486 1.389 . S
C7485 H7464 0.950 . S
C7485 C7484 1.373 . S
C7485 C7501 1.377 . S
C7486 C7484 1.389 . S
C7486 C7487 1.524 . S
C7486 C7500 1.377 . S
C7487 C7486 1.524 . S
C7487 C7488 1.397 . S
C7487 C7492 1.363 . S
C7488 H7465 0.950 . S
C7488 C7487 1.397 . S
C7488 C7489 1.334 . S
C7489 H7466 0.950 . S
C7489 C7488 1.334 . S
C7489 C7490 1.287 . S
C7490 C7489 1.287 . S
C7490 C7491 1.524 . S
C7490 H7509 0.913 . S
C7491 H7467 0.950 . S
C7491 C7490 1.524 . S
C7491 C7492 1.415 . S
C7492 H7468 0.950 . S
C7492 C7487 1.363 . S
C7492 C7491 1.415 . S
C7493 H7469 0.951 . S
C7493 C7494 1.366 . S
C7493 C7495 1.388 . S
C7494 C7493 1.366 . S
C7494 C7498 1.385 . S
C7495 H7470 0.951 . S
C7495 C7493 1.388 . S
C7495 C7496 1.366 . S
C7496 C7495 1.366 . S
C7496 C7497 1.414 . S
C7496 C7499 1.499 . S
C7497 H7471 0.950 . S
C7497 C7496 1.414 . S
C7497 C7498 1.374 . S
C7498 H7472 0.950 . S
C7498 C7494 1.385 . S
C7498 C7497 1.374 . S
C7499 C7496 1.499 . S
C7499 C7500 1.373 . S
C7499 C7501 1.389 . S
C7500 H7473 0.950 . S
C7500 C7486 1.377 . S
C7500 C7499 1.373 . S
C7501 C7485 1.377 . S
C7501 C7499 1.389 . S
C7501 C7502 1.524 . S
C7502 C7501 1.524 . S
C7502 C7503 1.397 . S
C7502 C7507 1.363 . S
C7503 H7474 0.950 . S
C7503 C7502 1.397 . S
C7503 C7504 1.334 . S
C7504 H7475 0.950 . S
C7504 C7503 1.334 . S
C7504 C7505 1.287 . S
C7505 C7504 1.287 . S
C7505 C7506 1.524 . S
C7505 H7508 0.999 . S
C7506 H7476 0.950 . S
C7506 C7505 1.524 . S
C7506 C7507 1.415 . S
C7507 H7477 0.950 . S
C7507 C7502 1.363 . S
C7507 C7506 1.415 . S
H7508 C7505 0.999 . S
H7509 C7490 0.913 . S
H7510 C7528 0.951 . S
H7511 C7530 0.951 . S
H7512 C7532 0.950 . S
H7513 C7533 0.950 . S
H7514 C7535 0.950 . S
H7515 C7538 0.950 . S
H7516 C7539 0.950 . S
H7517 C7541 0.950 . S
H7518 C7542 0.950 . S
H7519 C7543 0.951 . S
H7520 C7545 0.951 . S
H7521 C7547 0.950 . S
H7522 C7548 0.950 . S
H7523 C7550 0.950 . S
H7524 C7553 0.950 . S
H7525 C7554 0.950 . S
H7526 C7556 0.950 . S
H7527 C7557 0.950 . S
C7528 H7510 0.951 . S
C7528 C7529 1.366 . S
C7528 C7530 1.388 . S
C7529 C7528 1.366 . S
C7529 C7533 1.385 . S
C7530 H7511 0.951 . S
C7530 C7528 1.388 . S
C7530 C7531 1.366 . S
C7531 C7530 1.366 . S
C7531 C7532 1.414 . S
C7531 C7534 1.499 . S
C7532 H7512 0.950 . S
C7532 C7531 1.414 . S
C7532 C7533 1.374 . S
C7533 H7513 0.950 . S
C7533 C7529 1.385 . S
C7533 C7532 1.374 . S
C7534 C7531 1.499 . S
C7534 C7535 1.373 . S
C7534 C7536 1.389 . S
C7535 H7514 0.950 . S
C7535 C7534 1.373 . S
C7535 C7551 1.377 . S
C7536 C7534 1.389 . S
C7536 C7537 1.524 . S
C7536 C7550 1.377 . S
C7537 C7536 1.524 . S
C7537 C7538 1.397 . S
C7537 C7542 1.363 . S
C7538 H7515 0.950 . S
C7538 C7537 1.397 . S
C7538 C7539 1.334 . S
C7539 H7516 0.950 . S
C7539 C7538 1.334 . S
C7539 C7540 1.287 . S
C7540 C7539 1.287 . S
C7540 C7541 1.524 . S
C7540 H7559 0.913 . S
C7541 H7517 0.950 . S
C7541 C7540 1.524 . S
C7541 C7542 1.415 . S
C7542 H7518 0.950 . S
C7542 C7537 1.363 . S
C7542 C7541 1.415 . S
C7543 H7519 0.951 . S
C7543 C7544 1.366 . S
C7543 C7545 1.388 . S
C7544 C7543 1.366 . S
C7544 C7548 1.385 . S
C7545 H7520 0.951 . S
C7545 C7543 1.388 . S
C7545 C7546 1.366 . S
C7546 C7545 1.366 . S
C7546 C7547 1.414 . S
C7546 C7549 1.499 . S
C7547 H7521 0.950 . S
C7547 C7546 1.414 . S
C7547 C7548 1.374 . S
C7548 H7522 0.950 . S
C7548 C7544 1.385 . S
C7548 C7547 1.374 . S
C7549 C7546 1.499 . S
C7549 C7550 1.373 . S
C7549 C7551 1.389 . S
C7550 H7523 0.950 . S
C7550 C7536 1.377 . S
C7550 C7549 1.373 . S
C7551 C7535 1.377 . S
C7551 C7549 1.389 . S
C7551 C7552 1.524 . S
C7552 C7551 1.524 . S
C7552 C7553 1.397 . S
C7552 C7557 1.363 . S
C7553 H7524 0.950 . S
C7553 C7552 1.397 . S
C7553 C7554 1.334 . S
C7554 H7525 0.950 . S
C7554 C7553 1.334 . S
C7554 C7555 1.287 . S
C7555 C7554 1.287 . S
C7555 C7556 1.524 . S
C7555 H7558 0.999 . S
C7556 H7526 0.950 . S
C7556 C7555 1.524 . S
C7556 C7557 1.415 . S
C7557 H7527 0.950 . S
C7557 C7552 1.363 . S
C7557 C7556 1.415 . S
H7558 C7555 0.999 . S
H7559 C7540 0.913 . S
H7560 C7578 0.951 . S
H7561 C7580 0.951 . S
H7562 C7582 0.950 . S
H7563 C7583 0.950 . S
H7564 C7585 0.950 . S
H7565 C7588 0.950 . S
H7566 C7589 0.950 . S
H7567 C7591 0.950 . S
H7568 C7592 0.950 . S
H7569 C7593 0.951 . S
H7570 C7595 0.951 . S
H7571 C7597 0.950 . S
H7572 C7598 0.950 . S
H7573 C7600 0.950 . S
H7574 C7603 0.950 . S
H7575 C7604 0.950 . S
H7576 C7606 0.950 . S
H7577 C7607 0.950 . S
C7578 H7560 0.951 . S
C7578 C7579 1.366 . S
C7578 C7580 1.388 . S
C7579 C7578 1.366 . S
C7579 C7583 1.385 . S
C7580 H7561 0.951 . S
C7580 C7578 1.388 . S
C7580 C7581 1.366 . S
C7581 C7580 1.366 . S
C7581 C7582 1.414 . S
C7581 C7584 1.499 . S
C7582 H7562 0.950 . S
C7582 C7581 1.414 . S
C7582 C7583 1.374 . S
C7583 H7563 0.950 . S
C7583 C7579 1.385 . S
C7583 C7582 1.374 . S
C7584 C7581 1.499 . S
C7584 C7585 1.373 . S
C7584 C7586 1.389 . S
C7585 H7564 0.950 . S
C7585 C7584 1.373 . S
C7585 C7601 1.377 . S
C7586 C7584 1.389 . S
C7586 C7587 1.524 . S
C7586 C7600 1.377 . S
C7587 C7586 1.524 . S
C7587 C7588 1.397 . S
C7587 C7592 1.363 . S
C7588 H7565 0.950 . S
C7588 C7587 1.397 . S
C7588 C7589 1.334 . S
C7589 H7566 0.950 . S
C7589 C7588 1.334 . S
C7589 C7590 1.287 . S
C7590 C7589 1.287 . S
C7590 C7591 1.524 . S
C7590 H7609 0.913 . S
C7591 H7567 0.950 . S
C7591 C7590 1.524 . S
C7591 C7592 1.415 . S
C7592 H7568 0.950 . S
C7592 C7587 1.363 . S
C7592 C7591 1.415 . S
C7593 H7569 0.951 . S
C7593 C7594 1.366 . S
C7593 C7595 1.388 . S
C7594 C7593 1.366 . S
C7594 C7598 1.385 . S
C7595 H7570 0.951 . S
C7595 C7593 1.388 . S
C7595 C7596 1.366 . S
C7596 C7595 1.366 . S
C7596 C7597 1.414 . S
C7596 C7599 1.499 . S
C7597 H7571 0.950 . S
C7597 C7596 1.414 . S
C7597 C7598 1.374 . S
C7598 H7572 0.950 . S
C7598 C7594 1.385 . S
C7598 C7597 1.374 . S
C7599 C7596 1.499 . S
C7599 C7600 1.373 . S
C7599 C7601 1.389 . S
C7600 H7573 0.950 . S
C7600 C7586 1.377 . S
C7600 C7599 1.373 . S
C7601 C7585 1.377 . S
C7601 C7599 1.389 . S
C7601 C7602 1.524 . S
C7602 C7601 1.524 . S
C7602 C7603 1.397 . S
C7602 C7607 1.363 . S
C7603 H7574 0.950 . S
C7603 C7602 1.397 . S
C7603 C7604 1.334 . S
C7604 H7575 0.950 . S
C7604 C7603 1.334 . S
C7604 C7605 1.287 . S
C7605 C7604 1.287 . S
C7605 C7606 1.524 . S
C7605 H7608 0.999 . S
C7606 H7576 0.950 . S
C7606 C7605 1.524 . S
C7606 C7607 1.415 . S
C7607 H7577 0.950 . S
C7607 C7602 1.363 . S
C7607 C7606 1.415 . S
H7608 C7605 0.999 . S
H7609 C7590 0.913 . S
H7610 C7628 0.951 . S
H7611 C7630 0.951 . S
H7612 C7632 0.950 . S
H7613 C7633 0.950 . S
H7614 C7635 0.950 . S
H7615 C7638 0.950 . S
H7616 C7639 0.950 1_556 S
H7617 C7641 0.950 . S
H7618 C7642 0.950 . S
H7619 C7643 0.951 . S
H7620 C7645 0.951 . S
H7621 C7647 0.950 . S
H7622 C7648 0.950 . S
H7623 C7650 0.950 . S
H7624 C7653 0.950 . S
H7625 C7654 0.950 . S
H7626 C7656 0.950 . S
H7627 C7657 0.950 . S
C7628 H7610 0.951 . S
C7628 C7629 1.366 . S
C7628 C7630 1.388 . S
C7629 C7628 1.366 . S
C7629 C7633 1.385 . S
C7630 H7611 0.951 . S
C7630 C7628 1.388 . S
C7630 C7631 1.366 . S
C7631 C7630 1.366 . S
C7631 C7632 1.414 . S
C7631 C7634 1.499 . S
C7632 H7612 0.950 . S
C7632 C7631 1.414 . S
C7632 C7633 1.374 . S
C7633 H7613 0.950 . S
C7633 C7629 1.385 . S
C7633 C7632 1.374 . S
C7634 C7631 1.499 . S
C7634 C7635 1.373 . S
C7634 C7636 1.389 . S
C7635 H7614 0.950 . S
C7635 C7634 1.373 . S
C7635 C7651 1.377 . S
C7636 C7634 1.389 . S
C7636 C7637 1.524 . S
C7636 C7650 1.377 . S
C7637 C7636 1.524 . S
C7637 C7638 1.397 . S
C7637 C7642 1.363 . S
C7638 H7615 0.950 . S
C7638 C7637 1.397 . S
C7638 C7639 1.334 . S
C7639 H7616 0.950 1_554 S
C7639 C7638 1.334 . S
C7639 C7640 1.287 . S
C7640 C7639 1.287 . S
C7640 C7641 1.524 . S
C7640 H7659 0.913 1_554 S
C7641 H7617 0.950 . S
C7641 C7640 1.524 . S
C7641 C7642 1.415 . S
C7642 H7618 0.950 . S
C7642 C7637 1.363 . S
C7642 C7641 1.415 . S
C7643 H7619 0.951 . S
C7643 C7644 1.366 . S
C7643 C7645 1.388 . S
C7644 C7643 1.366 . S
C7644 C7648 1.385 . S
C7645 H7620 0.951 . S
C7645 C7643 1.388 . S
C7645 C7646 1.366 . S
C7646 C7645 1.366 . S
C7646 C7647 1.414 . S
C7646 C7649 1.499 . S
C7647 H7621 0.950 . S
C7647 C7646 1.414 . S
C7647 C7648 1.374 . S
C7648 H7622 0.950 . S
C7648 C7644 1.385 . S
C7648 C7647 1.374 . S
C7649 C7646 1.499 . S
C7649 C7650 1.373 . S
C7649 C7651 1.389 . S
C7650 H7623 0.950 . S
C7650 C7636 1.377 . S
C7650 C7649 1.373 . S
C7651 C7635 1.377 . S
C7651 C7649 1.389 . S
C7651 C7652 1.524 . S
C7652 C7651 1.524 . S
C7652 C7653 1.397 . S
C7652 C7657 1.363 . S
C7653 H7624 0.950 . S
C7653 C7652 1.397 . S
C7653 C7654 1.334 . S
C7654 H7625 0.950 . S
C7654 C7653 1.334 . S
C7654 C7655 1.287 . S
C7655 C7654 1.287 . S
C7655 C7656 1.524 . S
C7655 H7658 0.999 . S
C7656 H7626 0.950 . S
C7656 C7655 1.524 . S
C7656 C7657 1.415 . S
C7657 H7627 0.950 . S
C7657 C7652 1.363 . S
C7657 C7656 1.415 . S
H7658 C7655 0.999 . S
H7659 C7640 0.913 1_556 S
H7660 C7678 0.951 . S
H7661 C7680 0.951 . S
H7662 C7682 0.950 . S
H7663 C7683 0.950 . S
H7664 C7685 0.950 . S
H7665 C7688 0.950 . S
H7666 C7689 0.950 . S
H7667 C7691 0.950 . S
H7668 C7692 0.950 . S
H7669 C7693 0.951 . S
H7670 C7695 0.951 . S
H7671 C7697 0.950 . S
H7672 C7698 0.950 . S
H7673 C7700 0.950 . S
H7674 C7703 0.950 . S
H7675 C7704 0.950 . S
H7676 C7706 0.950 . S
H7677 C7707 0.950 . S
C7678 H7660 0.951 . S
C7678 C7679 1.366 . S
C7678 C7680 1.388 . S
C7679 C7678 1.366 . S
C7679 C7683 1.385 . S
C7680 H7661 0.951 . S
C7680 C7678 1.388 . S
C7680 C7681 1.366 . S
C7681 C7680 1.366 . S
C7681 C7682 1.414 . S
C7681 C7684 1.499 . S
C7682 H7662 0.950 . S
C7682 C7681 1.414 . S
C7682 C7683 1.374 . S
C7683 H7663 0.950 . S
C7683 C7679 1.385 . S
C7683 C7682 1.374 . S
C7684 C7681 1.499 . S
C7684 C7685 1.373 . S
C7684 C7686 1.389 . S
C7685 H7664 0.950 . S
C7685 C7684 1.373 . S
C7685 C7701 1.377 . S
C7686 C7684 1.389 . S
C7686 C7687 1.524 . S
C7686 C7700 1.377 . S
C7687 C7686 1.524 . S
C7687 C7688 1.397 . S
C7687 C7692 1.363 . S
C7688 H7665 0.950 . S
C7688 C7687 1.397 . S
C7688 C7689 1.334 . S
C7689 H7666 0.950 . S
C7689 C7688 1.334 . S
C7689 C7690 1.287 . S
C7690 C7689 1.287 . S
C7690 C7691 1.524 . S
C7690 H7709 0.913 . S
C7691 H7667 0.950 . S
C7691 C7690 1.524 . S
C7691 C7692 1.415 . S
C7692 H7668 0.950 . S
C7692 C7687 1.363 . S
C7692 C7691 1.415 . S
C7693 H7669 0.951 . S
C7693 C7694 1.366 . S
C7693 C7695 1.388 . S
C7694 C7693 1.366 . S
C7694 C7698 1.385 . S
C7695 H7670 0.951 . S
C7695 C7693 1.388 . S
C7695 C7696 1.366 . S
C7696 C7695 1.366 . S
C7696 C7697 1.414 . S
C7696 C7699 1.499 . S
C7697 H7671 0.950 . S
C7697 C7696 1.414 . S
C7697 C7698 1.374 . S
C7698 H7672 0.950 . S
C7698 C7694 1.385 . S
C7698 C7697 1.374 . S
C7699 C7696 1.499 . S
C7699 C7700 1.373 . S
C7699 C7701 1.389 . S
C7700 H7673 0.950 . S
C7700 C7686 1.377 . S
C7700 C7699 1.373 . S
C7701 C7685 1.377 . S
C7701 C7699 1.389 . S
C7701 C7702 1.524 . S
C7702 C7701 1.524 . S
C7702 C7703 1.397 . S
C7702 C7707 1.363 . S
C7703 H7674 0.950 . S
C7703 C7702 1.397 . S
C7703 C7704 1.334 . S
C7704 H7675 0.950 . S
C7704 C7703 1.334 . S
C7704 C7705 1.287 . S
C7705 C7704 1.287 . S
C7705 C7706 1.524 . S
C7705 H7708 0.999 . S
C7706 H7676 0.950 . S
C7706 C7705 1.524 . S
C7706 C7707 1.415 . S
C7707 H7677 0.950 . S
C7707 C7702 1.363 . S
C7707 C7706 1.415 . S
H7708 C7705 0.999 . S
H7709 C7690 0.913 . S
H7710 C7728 0.951 . S
H7711 C7730 0.951 . S
H7712 C7732 0.950 . S
H7713 C7733 0.950 . S
H7714 C7735 0.950 . S
H7715 C7738 0.950 . S
H7716 C7739 0.950 . S
H7717 C7741 0.950 . S
H7718 C7742 0.950 . S
H7719 C7743 0.951 . S
H7720 C7745 0.951 . S
H7721 C7747 0.950 . S
H7722 C7748 0.950 . S
H7723 C7750 0.950 . S
H7724 C7753 0.950 . S
H7725 C7754 0.950 . S
H7726 C7756 0.950 . S
H7727 C7757 0.950 . S
C7728 H7710 0.951 . S
C7728 C7729 1.366 . S
C7728 C7730 1.388 . S
C7729 C7728 1.366 . S
C7729 C7733 1.385 . S
C7730 H7711 0.951 . S
C7730 C7728 1.388 . S
C7730 C7731 1.366 . S
C7731 C7730 1.366 . S
C7731 C7732 1.414 . S
C7731 C7734 1.499 . S
C7732 H7712 0.950 . S
C7732 C7731 1.414 . S
C7732 C7733 1.374 . S
C7733 H7713 0.950 . S
C7733 C7729 1.385 . S
C7733 C7732 1.374 . S
C7734 C7731 1.499 . S
C7734 C7735 1.373 . S
C7734 C7736 1.389 . S
C7735 H7714 0.950 . S
C7735 C7734 1.373 . S
C7735 C7751 1.377 . S
C7736 C7734 1.389 . S
C7736 C7737 1.524 . S
C7736 C7750 1.377 . S
C7737 C7736 1.524 . S
C7737 C7738 1.397 . S
C7737 C7742 1.363 . S
C7738 H7715 0.950 . S
C7738 C7737 1.397 . S
C7738 C7739 1.334 . S
C7739 H7716 0.950 . S
C7739 C7738 1.334 . S
C7739 C7740 1.287 . S
C7740 C7739 1.287 . S
C7740 C7741 1.524 . S
C7740 H7759 0.913 . S
C7741 H7717 0.950 . S
C7741 C7740 1.524 . S
C7741 C7742 1.415 . S
C7742 H7718 0.950 . S
C7742 C7737 1.363 . S
C7742 C7741 1.415 . S
C7743 H7719 0.951 . S
C7743 C7744 1.366 . S
C7743 C7745 1.388 . S
C7744 C7743 1.366 . S
C7744 C7748 1.385 . S
C7745 H7720 0.951 . S
C7745 C7743 1.388 . S
C7745 C7746 1.366 . S
C7746 C7745 1.366 . S
C7746 C7747 1.414 . S
C7746 C7749 1.499 . S
C7747 H7721 0.950 . S
C7747 C7746 1.414 . S
C7747 C7748 1.374 . S
C7748 H7722 0.950 . S
C7748 C7744 1.385 . S
C7748 C7747 1.374 . S
C7749 C7746 1.499 . S
C7749 C7750 1.373 . S
C7749 C7751 1.389 . S
C7750 H7723 0.950 . S
C7750 C7736 1.377 . S
C7750 C7749 1.373 . S
C7751 C7735 1.377 . S
C7751 C7749 1.389 . S
C7751 C7752 1.524 . S
C7752 C7751 1.524 . S
C7752 C7753 1.397 . S
C7752 C7757 1.363 . S
C7753 H7724 0.950 . S
C7753 C7752 1.397 . S
C7753 C7754 1.334 . S
C7754 H7725 0.950 . S
C7754 C7753 1.334 . S
C7754 C7755 1.287 . S
C7755 C7754 1.287 . S
C7755 C7756 1.524 . S
C7755 H7758 0.999 . S
C7756 H7726 0.950 . S
C7756 C7755 1.524 . S
C7756 C7757 1.415 . S
C7757 H7727 0.950 . S
C7757 C7752 1.363 . S
C7757 C7756 1.415 . S
H7758 C7755 0.999 . S
H7759 C7740 0.913 . S
H7760 C7778 0.951 . S
H7761 C7780 0.951 . S
H7762 C7782 0.950 . S
H7763 C7783 0.950 . S
H7764 C7785 0.950 . S
H7765 C7788 0.950 . S
H7766 C7789 0.950 . S
H7767 C7791 0.950 . S
H7768 C7792 0.950 . S
H7769 C7793 0.951 . S
H7770 C7795 0.951 . S
H7771 C7797 0.950 . S
H7772 C7798 0.950 . S
H7773 C7800 0.950 . S
H7774 C7803 0.950 . S
H7775 C7804 0.950 . S
H7776 C7806 0.950 . S
H7777 C7807 0.950 . S
C7778 H7760 0.951 . S
C7778 C7779 1.366 . S
C7778 C7780 1.388 . S
C7779 C7778 1.366 . S
C7779 C7783 1.385 . S
C7780 H7761 0.951 . S
C7780 C7778 1.388 . S
C7780 C7781 1.366 . S
C7781 C7780 1.366 . S
C7781 C7782 1.414 . S
C7781 C7784 1.499 . S
C7782 H7762 0.950 . S
C7782 C7781 1.414 . S
C7782 C7783 1.374 . S
C7783 H7763 0.950 . S
C7783 C7779 1.385 . S
C7783 C7782 1.374 . S
C7784 C7781 1.499 . S
C7784 C7785 1.373 . S
C7784 C7786 1.389 . S
C7785 H7764 0.950 . S
C7785 C7784 1.373 . S
C7785 C7801 1.377 . S
C7786 C7784 1.389 . S
C7786 C7787 1.524 . S
C7786 C7800 1.377 . S
C7787 C7786 1.524 . S
C7787 C7788 1.397 . S
C7787 C7792 1.363 . S
C7788 H7765 0.950 . S
C7788 C7787 1.397 . S
C7788 C7789 1.334 . S
C7789 H7766 0.950 . S
C7789 C7788 1.334 . S
C7789 C7790 1.287 . S
C7790 C7789 1.287 . S
C7790 C7791 1.524 . S
C7790 H7809 0.913 . S
C7791 H7767 0.950 . S
C7791 C7790 1.524 . S
C7791 C7792 1.415 . S
C7792 H7768 0.950 . S
C7792 C7787 1.363 . S
C7792 C7791 1.415 . S
C7793 H7769 0.951 . S
C7793 C7794 1.366 . S
C7793 C7795 1.388 . S
C7794 C7793 1.366 . S
C7794 C7798 1.385 . S
C7795 H7770 0.951 . S
C7795 C7793 1.388 . S
C7795 C7796 1.366 . S
C7796 C7795 1.366 . S
C7796 C7797 1.414 . S
C7796 C7799 1.499 . S
C7797 H7771 0.950 . S
C7797 C7796 1.414 . S
C7797 C7798 1.374 . S
C7798 H7772 0.950 . S
C7798 C7794 1.385 . S
C7798 C7797 1.374 . S
C7799 C7796 1.499 . S
C7799 C7800 1.373 . S
C7799 C7801 1.389 . S
C7800 H7773 0.950 . S
C7800 C7786 1.377 . S
C7800 C7799 1.373 . S
C7801 C7785 1.377 . S
C7801 C7799 1.389 . S
C7801 C7802 1.524 . S
C7802 C7801 1.524 . S
C7802 C7803 1.397 . S
C7802 C7807 1.363 . S
C7803 H7774 0.950 . S
C7803 C7802 1.397 . S
C7803 C7804 1.334 . S
C7804 H7775 0.950 . S
C7804 C7803 1.334 . S
C7804 C7805 1.287 . S
C7805 C7804 1.287 . S
C7805 C7806 1.524 . S
C7805 H7808 0.999 . S
C7806 H7776 0.950 . S
C7806 C7805 1.524 . S
C7806 C7807 1.415 . S
C7807 H7777 0.950 . S
C7807 C7802 1.363 . S
C7807 C7806 1.415 . S
H7808 C7805 0.999 . S
H7809 C7790 0.913 . S
H7810 C7828 0.951 . S
H7811 C7830 0.951 . S
H7812 C7832 0.950 . S
H7813 C7833 0.950 . S
H7814 C7835 0.950 . S
H7815 C7838 0.950 . S
H7816 C7839 0.950 . S
H7817 C7841 0.950 . S
H7818 C7842 0.950 . S
H7819 C7843 0.951 . S
H7820 C7845 0.951 . S
H7821 C7847 0.950 . S
H7822 C7848 0.950 . S
H7823 C7850 0.950 . S
H7824 C7853 0.950 . S
H7825 C7854 0.950 . S
H7826 C7856 0.950 . S
H7827 C7857 0.950 . S
C7828 H7810 0.951 . S
C7828 C7829 1.366 . S
C7828 C7830 1.388 . S
C7829 C7828 1.366 . S
C7829 C7833 1.385 . S
C7830 H7811 0.951 . S
C7830 C7828 1.388 . S
C7830 C7831 1.366 . S
C7831 C7830 1.366 . S
C7831 C7832 1.414 . S
C7831 C7834 1.499 . S
C7832 H7812 0.950 . S
C7832 C7831 1.414 . S
C7832 C7833 1.374 . S
C7833 H7813 0.950 . S
C7833 C7829 1.385 . S
C7833 C7832 1.374 . S
C7834 C7831 1.499 . S
C7834 C7835 1.373 . S
C7834 C7836 1.389 . S
C7835 H7814 0.950 . S
C7835 C7834 1.373 . S
C7835 C7851 1.377 . S
C7836 C7834 1.389 . S
C7836 C7837 1.524 . S
C7836 C7850 1.377 . S
C7837 C7836 1.524 . S
C7837 C7838 1.397 . S
C7837 C7842 1.363 . S
C7838 H7815 0.950 . S
C7838 C7837 1.397 . S
C7838 C7839 1.334 . S
C7839 H7816 0.950 . S
C7839 C7838 1.334 . S
C7839 C7840 1.287 . S
C7840 C7839 1.287 . S
C7840 C7841 1.524 . S
C7840 H7859 0.913 . S
C7841 H7817 0.950 . S
C7841 C7840 1.524 . S
C7841 C7842 1.415 . S
C7842 H7818 0.950 . S
C7842 C7837 1.363 . S
C7842 C7841 1.415 . S
C7843 H7819 0.951 . S
C7843 C7844 1.366 . S
C7843 C7845 1.388 . S
C7844 C7843 1.366 . S
C7844 C7848 1.385 . S
C7845 H7820 0.951 . S
C7845 C7843 1.388 . S
C7845 C7846 1.366 . S
C7846 C7845 1.366 . S
C7846 C7847 1.414 . S
C7846 C7849 1.499 . S
C7847 H7821 0.950 . S
C7847 C7846 1.414 . S
C7847 C7848 1.374 . S
C7848 H7822 0.950 . S
C7848 C7844 1.385 . S
C7848 C7847 1.374 . S
C7849 C7846 1.499 . S
C7849 C7850 1.373 . S
C7849 C7851 1.389 . S
C7850 H7823 0.950 . S
C7850 C7836 1.377 . S
C7850 C7849 1.373 . S
C7851 C7835 1.377 . S
C7851 C7849 1.389 . S
C7851 C7852 1.524 . S
C7852 C7851 1.524 . S
C7852 C7853 1.397 . S
C7852 C7857 1.363 . S
C7853 H7824 0.950 . S
C7853 C7852 1.397 . S
C7853 C7854 1.334 . S
C7854 H7825 0.950 . S
C7854 C7853 1.334 . S
C7854 C7855 1.287 . S
C7855 C7854 1.287 . S
C7855 C7856 1.524 . S
C7855 H7858 0.999 . S
C7856 H7826 0.950 . S
C7856 C7855 1.524 . S
C7856 C7857 1.415 . S
C7857 H7827 0.950 . S
C7857 C7852 1.363 . S
C7857 C7856 1.415 . S
H7858 C7855 0.999 . S
H7859 C7840 0.913 . S
H7860 C7878 0.951 . S
H7861 C7880 0.951 . S
H7862 C7882 0.950 . S
H7863 C7883 0.950 . S
H7864 C7885 0.950 . S
H7865 C7888 0.950 . S
H7866 C7889 0.950 . S
H7867 C7891 0.950 . S
H7868 C7892 0.950 . S
H7869 C7893 0.956 . S
H7870 C7895 0.951 . S
H7871 C7897 0.950 . S
H7872 C7898 0.968 . S
H7873 C7900 0.950 . S
H7874 C7903 0.950 . S
H7875 C7904 0.950 . S
H7876 C7906 0.950 . S
H7877 C7907 0.950 . S
C7878 H7860 0.951 . S
C7878 C7879 1.366 . S
C7878 C7880 1.388 . S
C7879 C7878 1.366 . S
C7879 C7883 1.385 . S
C7880 H7861 0.951 . S
C7880 C7878 1.388 . S
C7880 C7881 1.366 . S
C7881 C7880 1.366 . S
C7881 C7882 1.414 . S
C7881 C7884 1.499 . S
C7882 H7862 0.950 . S
C7882 C7881 1.414 . S
C7882 C7883 1.374 . S
C7883 H7863 0.950 . S
C7883 C7879 1.385 . S
C7883 C7882 1.374 . S
C7884 C7881 1.499 . S
C7884 C7885 1.373 . S
C7884 C7886 1.389 . S
C7885 H7864 0.950 . S
C7885 C7884 1.373 . S
C7885 C7901 1.377 . S
C7886 C7884 1.389 . S
C7886 C7887 1.524 . S
C7886 C7900 1.377 . S
C7887 C7886 1.524 . S
C7887 C7888 1.397 . S
C7887 C7892 1.363 . S
C7888 H7865 0.950 . S
C7888 C7887 1.397 . S
C7888 C7889 1.334 . S
C7889 H7866 0.950 . S
C7889 C7888 1.334 . S
C7889 C7890 1.287 . S
C7890 C7889 1.287 . S
C7890 C7891 1.524 . S
C7890 H7909 0.913 . S
C7891 H7867 0.950 . S
C7891 C7890 1.524 . S
C7891 C7892 1.415 . S
C7892 H7868 0.950 . S
C7892 C7887 1.363 . S
C7892 C7891 1.415 . S
C7893 H7869 0.956 . S
C7893 C7894 1.373 . S
C7893 C7895 1.376 1_545 S
C7894 C7893 1.373 . S
C7894 C7898 1.399 . S
C7895 H7870 0.951 . S
C7895 C7893 1.376 1_565 S
C7895 C7896 1.366 . S
C7896 C7895 1.366 . S
C7896 C7897 1.414 . S
C7896 C7899 1.499 . S
C7897 H7871 0.950 . S
C7897 C7896 1.414 . S
C7897 C7898 1.344 1_565 S
C7898 H7872 0.968 . S
C7898 C7894 1.399 . S
C7898 C7897 1.344 1_545 S
C7899 C7896 1.499 . S
C7899 C7900 1.373 . S
C7899 C7901 1.389 . S
C7900 H7873 0.950 . S
C7900 C7886 1.377 . S
C7900 C7899 1.373 . S
C7901 C7885 1.377 . S
C7901 C7899 1.389 . S
C7901 C7902 1.524 . S
C7902 C7901 1.524 . S
C7902 C7903 1.397 1_565 S
C7902 C7907 1.363 . S
C7903 H7874 0.950 . S
C7903 C7902 1.397 1_545 S
C7903 C7904 1.334 . S
C7904 H7875 0.950 . S
C7904 C7903 1.334 . S
C7904 C7905 1.287 . S
C7905 C7904 1.287 . S
C7905 C7906 1.524 . S
C7905 H7908 0.999 . S
C7906 H7876 0.950 . S
C7906 C7905 1.524 . S
C7906 C7907 1.415 1_545 S
C7907 H7877 0.950 . S
C7907 C7902 1.363 . S
C7907 C7906 1.415 1_565 S
H7908 C7905 0.999 . S
H7909 C7890 0.913 . S
H7910 C7928 0.951 . S
H7911 C7930 0.951 . S
H7912 C7932 0.950 . S
H7913 C7933 0.950 . S
H7914 C7935 0.950 . S
H7915 C7938 0.950 . S
H7916 C7939 0.950 . S
H7917 C7941 0.950 . S
H7918 C7942 0.950 . S
H7919 C7943 0.951 . S
H7920 C7945 0.951 . S
H7921 C7947 0.950 . S
H7922 C7948 0.950 . S
H7923 C7950 0.950 . S
H7924 C7953 0.950 . S
H7925 C7954 0.950 . S
H7926 C7956 0.950 . S
H7927 C7957 0.950 . S
C7928 H7910 0.951 . S
C7928 C7929 1.366 . S
C7928 C7930 1.388 . S
C7929 C7928 1.366 . S
C7929 C7933 1.385 . S
C7930 H7911 0.951 . S
C7930 C7928 1.388 . S
C7930 C7931 1.366 . S
C7931 C7930 1.366 . S
C7931 C7932 1.414 . S
C7931 C7934 1.499 . S
C7932 H7912 0.950 . S
C7932 C7931 1.414 . S
C7932 C7933 1.374 . S
C7933 H7913 0.950 . S
C7933 C7929 1.385 . S
C7933 C7932 1.374 . S
C7934 C7931 1.499 . S
C7934 C7935 1.373 . S
C7934 C7936 1.389 . S
C7935 H7914 0.950 . S
C7935 C7934 1.373 . S
C7935 C7951 1.377 . S
C7936 C7934 1.389 . S
C7936 C7937 1.524 . S
C7936 C7950 1.377 . S
C7937 C7936 1.524 . S
C7937 C7938 1.397 . S
C7937 C7942 1.363 . S
C7938 H7915 0.950 . S
C7938 C7937 1.397 . S
C7938 C7939 1.334 . S
C7939 H7916 0.950 . S
C7939 C7938 1.334 . S
C7939 C7940 1.287 . S
C7940 C7939 1.287 . S
C7940 C7941 1.524 . S
C7940 H7959 0.913 . S
C7941 H7917 0.950 . S
C7941 C7940 1.524 . S
C7941 C7942 1.415 . S
C7942 H7918 0.950 . S
C7942 C7937 1.363 . S
C7942 C7941 1.415 . S
C7943 H7919 0.951 . S
C7943 C7944 1.366 . S
C7943 C7945 1.388 . S
C7944 C7943 1.366 . S
C7944 C7948 1.385 . S
C7945 H7920 0.951 . S
C7945 C7943 1.388 . S
C7945 C7946 1.366 . S
C7946 C7945 1.366 . S
C7946 C7947 1.414 . S
C7946 C7949 1.499 . S
C7947 H7921 0.950 . S
C7947 C7946 1.414 . S
C7947 C7948 1.374 . S
C7948 H7922 0.950 . S
C7948 C7944 1.385 . S
C7948 C7947 1.374 . S
C7949 C7946 1.499 . S
C7949 C7950 1.373 . S
C7949 C7951 1.389 . S
C7950 H7923 0.950 . S
C7950 C7936 1.377 . S
C7950 C7949 1.373 . S
C7951 C7935 1.377 . S
C7951 C7949 1.389 . S
C7951 C7952 1.524 . S
C7952 C7951 1.524 . S
C7952 C7953 1.397 . S
C7952 C7957 1.363 . S
C7953 H7924 0.950 . S
C7953 C7952 1.397 . S
C7953 C7954 1.334 . S
C7954 H7925 0.950 . S
C7954 C7953 1.334 . S
C7954 C7955 1.287 . S
C7955 C7954 1.287 . S
C7955 C7956 1.524 . S
C7955 H7958 0.999 . S
C7956 H7926 0.950 . S
C7956 C7955 1.524 . S
C7956 C7957 1.415 . S
C7957 H7927 0.950 . S
C7957 C7952 1.363 . S
C7957 C7956 1.415 . S
H7958 C7955 0.999 . S
H7959 C7940 0.913 . S
H7960 C7978 0.951 . S
H7961 C7980 0.951 . S
H7962 C7982 0.950 . S
H7963 C7983 0.950 . S
H7964 C7985 0.950 . S
H7965 C7988 0.950 . S
H7966 C7989 0.950 . S
H7967 C7991 0.950 . S
H7968 C7992 0.950 . S
H7969 C7993 0.951 . S
H7970 C7995 0.951 . S
H7971 C7997 0.950 . S
H7972 C7998 0.950 . S
H7973 C8000 0.950 . S
H7974 C8003 0.950 . S
H7975 C8004 0.950 . S
H7976 C8006 0.950 . S
H7977 C8007 0.950 . S
C7978 H7960 0.951 . S
C7978 C7979 1.366 . S
C7978 C7980 1.388 . S
C7979 C7978 1.366 . S
C7979 C7983 1.385 . S
C7980 H7961 0.951 . S
C7980 C7978 1.388 . S
C7980 C7981 1.366 . S
C7981 C7980 1.366 . S
C7981 C7982 1.414 . S
C7981 C7984 1.499 . S
C7982 H7962 0.950 . S
C7982 C7981 1.414 . S
C7982 C7983 1.374 . S
C7983 H7963 0.950 . S
C7983 C7979 1.385 . S
C7983 C7982 1.374 . S
C7984 C7981 1.499 . S
C7984 C7985 1.373 . S
C7984 C7986 1.389 . S
C7985 H7964 0.950 . S
C7985 C7984 1.373 . S
C7985 C8001 1.377 . S
C7986 C7984 1.389 . S
C7986 C7987 1.524 . S
C7986 C8000 1.377 . S
C7987 C7986 1.524 . S
C7987 C7988 1.397 . S
C7987 C7992 1.363 . S
C7988 H7965 0.950 . S
C7988 C7987 1.397 . S
C7988 C7989 1.334 . S
C7989 H7966 0.950 . S
C7989 C7988 1.334 . S
C7989 C7990 1.287 . S
C7990 C7989 1.287 . S
C7990 C7991 1.524 . S
C7990 H8009 0.913 . S
C7991 H7967 0.950 . S
C7991 C7990 1.524 . S
C7991 C7992 1.415 . S
C7992 H7968 0.950 . S
C7992 C7987 1.363 . S
C7992 C7991 1.415 . S
C7993 H7969 0.951 . S
C7993 C7994 1.366 . S
C7993 C7995 1.388 . S
C7994 C7993 1.366 . S
C7994 C7998 1.385 . S
C7995 H7970 0.951 . S
C7995 C7993 1.388 . S
C7995 C7996 1.366 . S
C7996 C7995 1.366 . S
C7996 C7997 1.414 . S
C7996 C7999 1.499 . S
C7997 H7971 0.950 . S
C7997 C7996 1.414 . S
C7997 C7998 1.374 . S
C7998 H7972 0.950 . S
C7998 C7994 1.385 . S
C7998 C7997 1.374 . S
C7999 C7996 1.499 . S
C7999 C8000 1.373 . S
C7999 C8001 1.389 . S
C8000 H7973 0.950 . S
C8000 C7986 1.377 . S
C8000 C7999 1.373 . S
C8001 C7985 1.377 . S
C8001 C7999 1.389 . S
C8001 C8002 1.524 . S
C8002 C8001 1.524 . S
C8002 C8003 1.397 . S
C8002 C8007 1.363 . S
C8003 H7974 0.950 . S
C8003 C8002 1.397 . S
C8003 C8004 1.334 . S
C8004 H7975 0.950 . S
C8004 C8003 1.334 . S
C8004 C8005 1.287 . S
C8005 C8004 1.287 . S
C8005 C8006 1.524 . S
C8005 H8008 0.999 . S
C8006 H7976 0.950 . S
C8006 C8005 1.524 . S
C8006 C8007 1.415 . S
C8007 H7977 0.950 . S
C8007 C8002 1.363 . S
C8007 C8006 1.415 . S
H8008 C8005 0.999 . S
H8009 C7990 0.913 . S
H8010 C8028 0.951 . S
H8011 C8030 0.951 . S
H8012 C8032 0.950 . S
H8013 C8033 0.950 . S
H8014 C8035 0.950 . S
H8015 C8038 0.950 . S
H8016 C8039 0.950 . S
H8017 C8041 0.950 . S
H8018 C8042 0.950 . S
H8019 C8043 0.951 . S
H8020 C8045 0.951 . S
H8021 C8047 0.950 . S
H8022 C8048 0.950 . S
H8023 C8050 0.950 . S
H8024 C8053 0.950 . S
H8025 C8054 0.950 . S
H8026 C8056 0.950 . S
H8027 C8057 0.950 . S
C8028 H8010 0.951 . S
C8028 C8029 1.366 . S
C8028 C8030 1.388 . S
C8029 C8028 1.366 . S
C8029 C8033 1.385 . S
C8030 H8011 0.951 . S
C8030 C8028 1.388 . S
C8030 C8031 1.366 . S
C8031 C8030 1.366 . S
C8031 C8032 1.414 . S
C8031 C8034 1.499 . S
C8032 H8012 0.950 . S
C8032 C8031 1.414 . S
C8032 C8033 1.374 . S
C8033 H8013 0.950 . S
C8033 C8029 1.385 . S
C8033 C8032 1.374 . S
C8034 C8031 1.499 . S
C8034 C8035 1.373 . S
C8034 C8036 1.389 . S
C8035 H8014 0.950 . S
C8035 C8034 1.373 . S
C8035 C8051 1.377 . S
C8036 C8034 1.389 . S
C8036 C8037 1.524 . S
C8036 C8050 1.377 . S
C8037 C8036 1.524 . S
C8037 C8038 1.397 . S
C8037 C8042 1.363 . S
C8038 H8015 0.950 . S
C8038 C8037 1.397 . S
C8038 C8039 1.334 . S
C8039 H8016 0.950 . S
C8039 C8038 1.334 . S
C8039 C8040 1.287 . S
C8040 C8039 1.287 . S
C8040 C8041 1.524 . S
C8040 H8059 0.913 . S
C8041 H8017 0.950 . S
C8041 C8040 1.524 . S
C8041 C8042 1.415 . S
C8042 H8018 0.950 . S
C8042 C8037 1.363 . S
C8042 C8041 1.415 . S
C8043 H8019 0.951 . S
C8043 C8044 1.366 . S
C8043 C8045 1.388 . S
C8044 C8043 1.366 . S
C8044 C8048 1.385 . S
C8045 H8020 0.951 . S
C8045 C8043 1.388 . S
C8045 C8046 1.366 . S
C8046 C8045 1.366 . S
C8046 C8047 1.414 . S
C8046 C8049 1.499 . S
C8047 H8021 0.950 . S
C8047 C8046 1.414 . S
C8047 C8048 1.374 . S
C8048 H8022 0.950 . S
C8048 C8044 1.385 . S
C8048 C8047 1.374 . S
C8049 C8046 1.499 . S
C8049 C8050 1.373 . S
C8049 C8051 1.389 . S
C8050 H8023 0.950 . S
C8050 C8036 1.377 . S
C8050 C8049 1.373 . S
C8051 C8035 1.377 . S
C8051 C8049 1.389 . S
C8051 C8052 1.524 . S
C8052 C8051 1.524 . S
C8052 C8053 1.397 . S
C8052 C8057 1.363 . S
C8053 H8024 0.950 . S
C8053 C8052 1.397 . S
C8053 C8054 1.334 . S
C8054 H8025 0.950 . S
C8054 C8053 1.334 . S
C8054 C8055 1.287 . S
C8055 C8054 1.287 . S
C8055 C8056 1.524 . S
C8055 H8058 0.999 . S
C8056 H8026 0.950 . S
C8056 C8055 1.524 . S
C8056 C8057 1.415 . S
C8057 H8027 0.950 . S
C8057 C8052 1.363 . S
C8057 C8056 1.415 . S
H8058 C8055 0.999 . S
H8059 C8040 0.913 . S
H8060 C8078 0.951 . S
H8061 C8080 0.951 . S
H8062 C8082 0.950 . S
H8063 C8083 0.950 . S
H8064 C8085 0.950 . S
H8065 C8088 0.950 . S
H8066 C8089 0.950 . S
H8067 C8091 0.950 . S
H8068 C8092 0.950 . S
H8069 C8093 0.951 . S
H8070 C8095 0.951 . S
H8071 C8097 0.950 . S
H8072 C8098 0.950 . S
H8073 C8100 0.950 . S
H8074 C8103 0.950 . S
H8075 C8104 0.950 . S
H8076 C8106 0.950 . S
H8077 C8107 0.950 . S
C8078 H8060 0.951 . S
C8078 C8079 1.366 . S
C8078 C8080 1.388 . S
C8079 C8078 1.366 . S
C8079 C8083 1.385 . S
C8080 H8061 0.951 . S
C8080 C8078 1.388 . S
C8080 C8081 1.366 . S
C8081 C8080 1.366 . S
C8081 C8082 1.414 . S
C8081 C8084 1.499 . S
C8082 H8062 0.950 . S
C8082 C8081 1.414 . S
C8082 C8083 1.374 . S
C8083 H8063 0.950 . S
C8083 C8079 1.385 . S
C8083 C8082 1.374 . S
C8084 C8081 1.499 . S
C8084 C8085 1.373 . S
C8084 C8086 1.389 . S
C8085 H8064 0.950 . S
C8085 C8084 1.373 . S
C8085 C8101 1.377 . S
C8086 C8084 1.389 . S
C8086 C8087 1.524 . S
C8086 C8100 1.377 . S
C8087 C8086 1.524 . S
C8087 C8088 1.397 . S
C8087 C8092 1.363 . S
C8088 H8065 0.950 . S
C8088 C8087 1.397 . S
C8088 C8089 1.334 . S
C8089 H8066 0.950 . S
C8089 C8088 1.334 . S
C8089 C8090 1.287 . S
C8090 C8089 1.287 . S
C8090 C8091 1.524 . S
C8090 H8109 0.913 . S
C8091 H8067 0.950 . S
C8091 C8090 1.524 . S
C8091 C8092 1.415 . S
C8092 H8068 0.950 . S
C8092 C8087 1.363 . S
C8092 C8091 1.415 . S
C8093 H8069 0.951 . S
C8093 C8094 1.366 . S
C8093 C8095 1.388 . S
C8094 C8093 1.366 . S
C8094 C8098 1.385 . S
C8095 H8070 0.951 . S
C8095 C8093 1.388 . S
C8095 C8096 1.366 . S
C8096 C8095 1.366 . S
C8096 C8097 1.414 . S
C8096 C8099 1.499 . S
C8097 H8071 0.950 . S
C8097 C8096 1.414 . S
C8097 C8098 1.374 . S
C8098 H8072 0.950 . S
C8098 C8094 1.385 . S
C8098 C8097 1.374 . S
C8099 C8096 1.499 . S
C8099 C8100 1.373 . S
C8099 C8101 1.389 . S
C8100 H8073 0.950 . S
C8100 C8086 1.377 . S
C8100 C8099 1.373 . S
C8101 C8085 1.377 . S
C8101 C8099 1.389 . S
C8101 C8102 1.524 . S
C8102 C8101 1.524 . S
C8102 C8103 1.397 . S
C8102 C8107 1.363 . S
C8103 H8074 0.950 . S
C8103 C8102 1.397 . S
C8103 C8104 1.334 . S
C8104 H8075 0.950 . S
C8104 C8103 1.334 . S
C8104 C8105 1.287 . S
C8105 C8104 1.287 . S
C8105 C8106 1.524 . S
C8105 H8108 0.999 . S
C8106 H8076 0.950 . S
C8106 C8105 1.524 . S
C8106 C8107 1.415 . S
C8107 H8077 0.950 . S
C8107 C8102 1.363 . S
C8107 C8106 1.415 . S
H8108 C8105 0.999 . S
H8109 C8090 0.913 . S
H8110 C8128 0.951 . S
H8111 C8130 0.951 . S
H8112 C8132 0.950 . S
H8113 C8133 0.950 . S
H8114 C8135 0.950 . S
H8115 C8138 0.950 . S
H8116 C8139 0.950 . S
H8117 C8141 0.950 . S
H8118 C8142 0.950 . S
H8119 C8143 0.951 . S
H8120 C8145 0.951 . S
H8121 C8147 0.950 . S
H8122 C8148 0.950 . S
H8123 C8150 0.950 . S
H8124 C8153 0.950 . S
H8125 C8154 0.950 . S
H8126 C8156 0.950 . S
H8127 C8157 0.950 . S
C8128 H8110 0.951 . S
C8128 C8129 1.366 . S
C8128 C8130 1.388 1_545 S
C8129 C8128 1.366 . S
C8129 C8133 1.385 . S
C8130 H8111 0.951 . S
C8130 C8128 1.388 1_565 S
C8130 C8131 1.366 . S
C8131 C8130 1.366 . S
C8131 C8132 1.414 1_565 S
C8131 C8134 1.499 . S
C8132 H8112 0.950 . S
C8132 C8131 1.414 1_545 S
C8132 C8133 1.374 . S
C8133 H8113 0.950 . S
C8133 C8129 1.385 . S
C8133 C8132 1.374 . S
C8134 C8131 1.499 . S
C8134 C8135 1.373 . S
C8134 C8136 1.389 . S
C8135 H8114 0.950 . S
C8135 C8134 1.373 . S
C8135 C8151 1.377 . S
C8136 C8134 1.389 . S
C8136 C8137 1.524 . S
C8136 C8150 1.377 . S
C8137 C8136 1.524 . S
C8137 C8138 1.397 1_565 S
C8137 C8142 1.363 . S
C8138 H8115 0.950 . S
C8138 C8137 1.397 1_545 S
C8138 C8139 1.334 . S
C8139 H8116 0.950 . S
C8139 C8138 1.334 . S
C8139 C8140 1.287 . S
C8140 C8139 1.287 . S
C8140 C8141 1.524 1_545 S
C8140 H8159 0.913 . S
C8141 H8117 0.950 . S
C8141 C8140 1.524 1_565 S
C8141 C8142 1.415 . S
C8142 H8118 0.950 . S
C8142 C8137 1.363 . S
C8142 C8141 1.415 . S
C8143 H8119 0.951 . S
C8143 C8144 1.366 . S
C8143 C8145 1.388 . S
C8144 C8143 1.366 . S
C8144 C8148 1.385 . S
C8145 H8120 0.951 . S
C8145 C8143 1.388 . S
C8145 C8146 1.366 . S
C8146 C8145 1.366 . S
C8146 C8147 1.414 . S
C8146 C8149 1.499 . S
C8147 H8121 0.950 . S
C8147 C8146 1.414 . S
C8147 C8148 1.374 . S
C8148 H8122 0.950 . S
C8148 C8144 1.385 . S
C8148 C8147 1.374 . S
C8149 C8146 1.499 . S
C8149 C8150 1.373 . S
C8149 C8151 1.389 . S
C8150 H8123 0.950 . S
C8150 C8136 1.377 . S
C8150 C8149 1.373 . S
C8151 C8135 1.377 . S
C8151 C8149 1.389 . S
C8151 C8152 1.524 . S
C8152 C8151 1.524 . S
C8152 C8153 1.397 . S
C8152 C8157 1.363 . S
C8153 H8124 0.950 . S
C8153 C8152 1.397 . S
C8153 C8154 1.334 . S
C8154 H8125 0.950 . S
C8154 C8153 1.334 . S
C8154 C8155 1.287 . S
C8155 C8154 1.287 . S
C8155 C8156 1.524 . S
C8155 H8158 0.999 . S
C8156 H8126 0.950 . S
C8156 C8155 1.524 . S
C8156 C8157 1.415 . S
C8157 H8127 0.950 . S
C8157 C8152 1.363 . S
C8157 C8156 1.415 . S
H8158 C8155 0.999 . S
H8159 C8140 0.913 . S
C979 C8 2.108 . S
C994 C99 2.056 . S
C1029 C39 2.465 . S
C1044 C109 2.262 . S
C1079 C139 1.862 . S
C1094 C49 1.748 . S
C1129 C159 1.403 . S
C1144 C69 1.287 . S
C1179 C179 1.920 . S
C1194 C199 1.912 . S
C1229 C189 1.746 . S
C1244 C219 1.859 . S
C1279 C229 1.584 . S
C1294 C209 1.582 1_545 S
C1329 C239 1.816 . S
C1344 C169 1.710 . S
C1379 C249 2.140 . S
C1394 C79 2.290 . S
C1429 C149 1.262 . S
C1444 C679 1.377 . S
C1479 C89 1.627 . S
C1494 C269 1.631 . S
C1529 C119 1.378 . S
C1544 C689 1.264 . S
C1579 C29 2.140 . S
C1594 C299 2.290 . S
C1629 C639 1.812 . S
C1644 C2 1.752 . S
C1679 C602 1.752 . S
C1694 C59 1.812 . S
C1729 C398 2.056 . S
C1744 C309 2.108 . S
C1779 C338 2.465 . S
C1794 C408 2.261 . S
C1829 C348 1.748 . S
C1844 C438 1.862 . S
C1879 C368 1.286 . S
C1894 C458 1.403 . S
C1929 C498 1.912 . S
C1944 C478 1.919 . S
C1979 C488 1.747 . S
C1994 C518 1.859 . S
C2029 C528 1.583 . S
C2044 C508 1.581 1_565 S
C2079 C468 1.710 . S
C2094 C538 1.816 . S
C2129 C378 2.290 . S
C2144 C548 2.141 . S
C2179 C858 1.378 . S
C2194 C448 1.264 . S
C2229 C568 1.631 . S
C2244 C388 1.628 . S
C2279 C418 1.378 . S
C2294 C868 1.264 . S
C2329 C598 2.290 . S
C2344 C328 2.141 . S
C2379 C301 1.752 . S
C2394 C818 1.812 . S
C2429 C358 1.812 . S
C2444 C781 1.752 . S
C2479 C659 2.056 . S
C2494 C608 2.108 . S
C2529 C669 2.261 . S
C2544 C259 2.465 . S
C2579 C629 1.748 . S
C2594 C279 1.863 . S
C2629 C699 1.385 . S
C2644 C289 1.288 . S
C2679 C719 1.919 . S
C2694 C739 1.911 . S
C2729 C729 1.746 . S
C2744 C759 1.859 . S
C2779 C769 1.583 . S
C2794 C749 1.583 . S
C2829 C709 1.710 . S
C2844 C779 1.816 . S
C2879 C129 1.609 . S
C2894 C649 1.629 . S
C2929 C838 2.056 . S
C2944 C789 2.108 . S
C2979 C848 2.262 . S
C2994 C558 2.465 . S
C3029 C578 1.862 . S
C3044 C808 1.748 . S
C3079 C878 1.384 . S
C3094 C588 1.288 . S
C3129 C898 1.919 . S
C3144 C918 1.912 . S
C3179 C908 1.746 . S
C3194 C938 1.858 . S
C3229 C928 1.584 . S
C3244 C948 1.584 . S
C3279 C958 1.816 . S
C3294 C888 1.709 . S
C3329 C828 1.628 . S
C3344 C428 1.609 . S
C3379 C9 0.466 . S
C3394 C321 0.261 . S
C3429 C802 0.610 . S
C3444 C38 0.619 . S
C3479 C48 0.146 . S
C3494 C362 0.286 . S
C3529 C68 0.778 . S
C3544 C799 0.779 . S
C3579 C98 1.141 . S
C3594 C441 1.170 . S
C3629 C108 0.737 . S
C3644 C821 0.736 . S
C3679 C138 1.069 . S
C3694 C402 1.061 . S
C3729 C561 0.733 . S
C3744 C158 0.735 . S
C3779 C178 0.649 . S
C3794 C798 0.634 . S
C3829 C188 0.202 . S
C3844 C322 0.430 . S
C3879 C208 0.425 . S
C3894 C801 0.428 . S
C3929 C361 0.938 . S
C3944 C238 0.926 . S
C3979 C822 0.966 . S
C3994 C228 1.005 . S
C4029 C401 0.260 . S
C4044 C168 0.285 . S
C4079 C198 0.699 . S
C4094 C562 0.699 . S
C4129 C442 1.184 . S
C4144 C218 1.190 . S
C4179 C882 0.347 . S
C4194 C248 0.275 . S
C4229 C521 0.577 . S
C4244 C148 0.580 . S
C4279 C88 0.366 . S
C4294 C881 0.374 . S
C4329 C118 0.552 . S
C4344 C482 0.533 . S
C4379 C268 0.952 . S
C4394 C502 0.927 . S
C4429 C921 0.649 . S
C4444 C298 0.663 . S
C4479 C1 0.420 . S
C4494 C942 0.425 . S
C4529 C58 0.413 . S
C4544 C901 0.394 . S
C4579 C22 0.256 . S
C4594 C308 0.470 . S
C4629 C339 0.618 . S
C4644 C621 0.610 . S
C4679 C349 0.147 . S
C4694 C61 0.284 . S
C4729 C369 0.778 . S
C4744 C618 0.779 . S
C4779 C142 1.170 . S
C4794 C399 1.142 . S
C4829 C642 0.736 . S
C4844 C409 0.737 . S
C4879 C101 1.060 . S
C4894 C439 1.068 . S
C4929 C459 0.735 . S
C4944 C262 0.733 . S
C4979 C479 0.648 . S
C4994 C619 0.635 . S
C5029 C21 0.434 . S
C5044 C489 0.201 . S
C5079 C509 0.425 . S
C5094 C622 0.428 . S
C5129 C62 0.937 . S
C5144 C539 0.927 . S
C5179 C641 0.967 . S
C5194 C529 1.005 . S
C5229 C469 0.284 . S
C5244 C102 0.262 . S
C5279 C499 0.699 . S
C5294 C261 0.700 . S
C5329 C141 1.182 . S
C5344 C519 1.189 . S
C5379 C549 0.274 . S
C5394 C701 0.346 . S
C5429 C222 0.577 . S
C5444 C449 0.580 . S
C5479 C702 0.372 . S
C5494 C389 0.366 . S
C5529 C419 0.551 . S
C5544 C181 0.533 . S
C5579 C569 0.952 . S
C5594 C201 0.926 . S
C5629 C742 0.650 . S
C5644 C599 0.661 . S
C5679 C302 0.418 . S
C5694 C761 0.428 . S
C5729 C722 0.393 . S
C5744 C359 0.415 . S
C5779 C541 0.259 . S
C5794 C609 0.468 . S
C5829 C258 0.618 . S
C5844 C342 0.611 . S
C5879 C582 0.284 . S
C5894 C628 0.146 . S
C5929 C288 0.778 . S
C5944 C319 0.779 1_455 S
C5979 C658 1.142 . S
C5994 C861 1.170 . S
C6029 C381 0.737 . S
C6044 C668 0.736 . S
C6079 C278 1.069 . S
C6094 C842 1.060 . S
C6129 C421 0.733 . S
C6144 C698 0.735 . S
C6179 C718 0.649 . S
C6194 C318 0.634 . S
C6229 C728 0.201 . S
C6244 C542 0.428 1_554 S
C6279 C748 0.425 . S
C6294 C341 0.428 . S
C6329 C581 0.937 . S
C6344 C778 0.926 . S
C6379 C382 0.966 . S
C6394 C768 1.005 . S
C6429 C708 0.286 . S
C6444 C841 0.261 . S
C6479 C422 0.700 . S
C6494 C738 0.699 . S
C6529 C758 1.189 . S
C6544 C862 1.183 . S
C6579 C28 0.273 . S
C6594 C462 0.350 . S
C6629 C941 0.578 . S
C6644 C688 0.579 . S
C6679 C648 0.366 . S
C6694 C461 0.374 . S
C6729 C678 0.552 . S
C6744 C902 0.532 . S
C6779 C922 0.925 . S
C6794 C128 0.952 . S
C6829 C501 0.649 . S
C6844 C78 0.661 . S
C6879 C601 0.421 . S
C6894 C522 0.429 . S
C6929 C481 0.395 . S
C6944 C638 0.413 . S
C6979 C242 0.260 . S
C6994 C788 0.467 . S
C7029 C559 0.618 . S
C7044 C41 0.610 . S
C7079 C281 0.288 . S
C7094 C809 0.143 . S
C7129 C589 0.777 . S
C7144 C18 0.779 1_655 S
C7179 C839 1.143 . S
C7194 C682 1.170 . S
C7229 C82 0.737 . S
C7244 C849 0.737 . S
C7279 C661 1.061 . S
C7294 C579 1.069 . S
C7329 C122 0.733 . S
C7344 C879 0.734 . S
C7379 C19 0.634 . S
C7394 C899 0.647 . S
C7429 C909 0.200 . S
C7444 C241 0.428 1_556 S
C7479 C42 0.427 . S
C7494 C929 0.426 . S
C7529 C282 0.937 . S
C7544 C959 0.927 . S
C7579 C81 0.966 . S
C7594 C949 1.005 . S
C7629 C662 0.260 . S
C7644 C889 0.284 . S
C7679 C919 0.698 . S
C7694 C121 0.699 . S
C7729 C681 1.183 . S
C7744 C939 1.190 . S
C7779 C161 0.347 . S
C7794 C329 0.275 . S
C7829 C869 0.579 . S
C7844 C762 0.578 . S
C7879 C829 0.366 . S
C7894 C162 0.371 . S
C7929 C721 0.531 . S
C7944 C859 0.551 . S
C7979 C429 0.952 . S
C7994 C741 0.927 . S
C8029 C379 0.662 . S
C8044 C202 0.649 . S
C8079 C221 0.425 . S
C8094 C782 0.419 . S
C8129 C182 0.393 . S
C8144 C819 0.414 . S
