# Generated by pormake.
# Topology vbk, (5)-cn, num edge types: 1
# Building blocks:
#     Node 0, Type 0, BuildingBlock: XOMCOT_clean_sbu_1, # of connection points: 5
#     Node 1, Type 0, BuildingBlock: XOMCOT_clean_sbu_1, # of connection points: 5
#     Node 2, Type 0, BuildingBlock: XOMCOT_clean_sbu_1, # of connection points: 5
#     Node 3, Type 0, BuildingBlock: XOMCOT_clean_sbu_1, # of connection points: 5
#     Node 4, Type 0, BuildingBlock: XOMCOT_clean_sbu_1, # of connection points: 5
#     Node 5, Type 0, BuildingBlock: XOMCOT_clean_sbu_1, # of connection points: 5
#     Node 6, Type 0, BuildingBlock: XOMCOT_clean_sbu_1, # of connection points: 5
#     Node 7, Type 0, BuildingBlock: XOMCOT_clean_sbu_1, # of connection points: 5
#     Node 8, Type 0, BuildingBlock: XOMCOT_clean_sbu_1, # of connection points: 5
#     Node 9, Type 0, BuildingBlock: XOMCOT_clean_sbu_1, # of connection points: 5
#     Node 10, Type 0, BuildingBlock: XOMCOT_clean_sbu_1, # of connection points: 5
#     Node 11, Type 0, BuildingBlock: XOMCOT_clean_sbu_1, # of connection points: 5
#     Node 12, Type 0, BuildingBlock: XOMCOT_clean_sbu_1, # of connection points: 5
#     Node 13, Type 0, BuildingBlock: XOMCOT_clean_sbu_1, # of connection points: 5
#     Node 14, Type 0, BuildingBlock: XOMCOT_clean_sbu_1, # of connection points: 5
#     Node 15, Type 0, BuildingBlock: XOMCOT_clean_sbu_1, # of connection points: 5
#     Edge 16, Type (0, 0), BuildingBlock: AJUNOK_clean_linker_0, # of connection points: 2
#     Edge 17, Type (0, 0), BuildingBlock: AJUNOK_clean_linker_0, # of connection points: 2
#     Edge 18, Type (0, 0), BuildingBlock: AJUNOK_clean_linker_0, # of connection points: 2
#     Edge 19, Type (0, 0), BuildingBlock: AJUNOK_clean_linker_0, # of connection points: 2
#     Edge 20, Type (0, 0), BuildingBlock: AJUNOK_clean_linker_0, # of connection points: 2
#     Edge 21, Type (0, 0), BuildingBlock: AJUNOK_clean_linker_0, # of connection points: 2
#     Edge 22, Type (0, 0), BuildingBlock: AJUNOK_clean_linker_0, # of connection points: 2
#     Edge 23, Type (0, 0), BuildingBlock: AJUNOK_clean_linker_0, # of connection points: 2
#     Edge 24, Type (0, 0), BuildingBlock: AJUNOK_clean_linker_0, # of connection points: 2
#     Edge 25, Type (0, 0), BuildingBlock: AJUNOK_clean_linker_0, # of connection points: 2
#     Edge 26, Type (0, 0), BuildingBlock: AJUNOK_clean_linker_0, # of connection points: 2
#     Edge 27, Type (0, 0), BuildingBlock: AJUNOK_clean_linker_0, # of connection points: 2
#     Edge 28, Type (0, 0), BuildingBlock: AJUNOK_clean_linker_0, # of connection points: 2
#     Edge 29, Type (0, 0), BuildingBlock: AJUNOK_clean_linker_0, # of connection points: 2
#     Edge 30, Type (0, 0), BuildingBlock: AJUNOK_clean_linker_0, # of connection points: 2
#     Edge 31, Type (0, 0), BuildingBlock: AJUNOK_clean_linker_0, # of connection points: 2
#     Edge 32, Type (0, 0), BuildingBlock: AJUNOK_clean_linker_0, # of connection points: 2
#     Edge 33, Type (0, 0), BuildingBlock: AJUNOK_clean_linker_0, # of connection points: 2
#     Edge 34, Type (0, 0), BuildingBlock: AJUNOK_clean_linker_0, # of connection points: 2
#     Edge 35, Type (0, 0), BuildingBlock: AJUNOK_clean_linker_0, # of connection points: 2
#     Edge 36, Type (0, 0), BuildingBlock: AJUNOK_clean_linker_0, # of connection points: 2
#     Edge 37, Type (0, 0), BuildingBlock: AJUNOK_clean_linker_0, # of connection points: 2
#     Edge 38, Type (0, 0), BuildingBlock: AJUNOK_clean_linker_0, # of connection points: 2
#     Edge 39, Type (0, 0), BuildingBlock: AJUNOK_clean_linker_0, # of connection points: 2
#     Edge 40, Type (0, 0), BuildingBlock: AJUNOK_clean_linker_0, # of connection points: 2
#     Edge 41, Type (0, 0), BuildingBlock: AJUNOK_clean_linker_0, # of connection points: 2
#     Edge 42, Type (0, 0), BuildingBlock: AJUNOK_clean_linker_0, # of connection points: 2
#     Edge 43, Type (0, 0), BuildingBlock: AJUNOK_clean_linker_0, # of connection points: 2
#     Edge 44, Type (0, 0), BuildingBlock: AJUNOK_clean_linker_0, # of connection points: 2
#     Edge 45, Type (0, 0), BuildingBlock: AJUNOK_clean_linker_0, # of connection points: 2
#     Edge 46, Type (0, 0), BuildingBlock: AJUNOK_clean_linker_0, # of connection points: 2
#     Edge 47, Type (0, 0), BuildingBlock: AJUNOK_clean_linker_0, # of connection points: 2
#     Edge 48, Type (0, 0), BuildingBlock: AJUNOK_clean_linker_0, # of connection points: 2
#     Edge 49, Type (0, 0), BuildingBlock: AJUNOK_clean_linker_0, # of connection points: 2
#     Edge 50, Type (0, 0), BuildingBlock: AJUNOK_clean_linker_0, # of connection points: 2
#     Edge 51, Type (0, 0), BuildingBlock: AJUNOK_clean_linker_0, # of connection points: 2
#     Edge 52, Type (0, 0), BuildingBlock: AJUNOK_clean_linker_0, # of connection points: 2
#     Edge 53, Type (0, 0), BuildingBlock: AJUNOK_clean_linker_0, # of connection points: 2
#     Edge 54, Type (0, 0), BuildingBlock: AJUNOK_clean_linker_0, # of connection points: 2
#     Edge 55, Type (0, 0), BuildingBlock: AJUNOK_clean_linker_0, # of connection points: 2
# Relax obj value: 0.081
# Max RMSD: 0.146
# Mean RMSD: 0.146
data_MOF--net-vbk--node1-XOMCOT_clean_sbu_1--edge1-AJUNOK_clean_linker_0
_symmetry_space_group_name_H-M    P1
_symmetry_Int_Tables_number       1
_symmetry_cell_setting            triclinic
loop_
_symmetry_equiv_pos_as_xyz
'x, y, z'
_cell_length_a     50.651713
_cell_length_b     33.529623
_cell_length_c     21.836657
_cell_angle_alpha  90.131735
_cell_angle_beta   89.854291
_cell_angle_gamma 90.504006
loop_
_atom_site_label
_atom_site_type_symbol
_atom_site_fract_x
_atom_site_fract_y
_atom_site_fract_z
_atom_type_partial_charge
C0 C 0.1441 0.24112 0.00947 0.0
C1 C 0.11702 0.24074 0.00719 0.0
N2 N 0.1082 0.20784 0.03615 0.0
N3 N 0.15251 0.20817 0.03878 0.0
C4 C 0.13006 0.18883 0.0557 0.0
H5 H 0.15691 0.26439 -0.00819 0.0
Co6 Co 0.18822 0.19656 0.05604 0.0
C7 C 0.19347 0.11486 0.0101 0.0
O8 O 0.21438 0.12788 -0.01944 0.0
N9 N 0.22484 0.18525 0.07705 0.0
C10 C 0.26878 0.17796 0.07823 0.0
C11 C 0.24693 0.18355 0.04195 0.0
C12 C 0.23434 0.18008 0.13487 0.0
N13 N 0.26088 0.17626 0.13694 0.0
O14 O 0.17952 0.19793 0.14045 0.0
H15 H 0.24758 0.18653 -0.00725 0.0
H16 H 0.22215 0.17909 0.17547 0.0
O17 O 0.18078 0.13851 0.04572 0.0
C18 C 0.18282 0.23568 0.14691 0.0
O19 O 0.19082 0.25653 0.09926 0.0
N20 N 0.19593 0.2035 0.97284 0.0
C21 C 0.18965 0.24552 0.86392 0.0
C22 C 0.17553 0.20991 0.87463 0.0
C23 C 0.17949 0.18874 0.92858 0.0
C24 C 0.2105 0.23721 0.96228 0.0
C25 C 0.2083 0.2579 0.90743 0.0
H26 H 0.16621 0.16419 0.93848 0.0
H27 H 0.22205 0.25039 -0.00126 0.0
H28 H 0.12972 0.16191 0.08298 0.0
H29 H 0.10467 0.26385 -0.01165 0.0
H30 H 0.28906 0.17658 0.06269 0.0
H31 H 0.15987 0.20002 0.84453 0.0
H32 H 0.21987 0.28489 0.90114 0.0
C33 C 0.45352 0.83125 0.557 0.0
C34 C 0.4803 0.82936 0.54939 0.0
N35 N 0.49058 0.866 0.55846 0.0
N36 N 0.44657 0.86908 0.57019 0.0
C37 C 0.46976 0.88973 0.57147 0.0
H38 H 0.4398 0.8066 0.55181 0.0
Co39 Co 0.41075 0.88304 0.58051 0.0
C40 C 0.40646 0.96033 0.52052 0.0
O41 O 0.38661 0.94463 0.49011 0.0
N42 N 0.3737 0.89672 0.59426 0.0
C43 C 0.32957 0.89912 0.59235 0.0
C44 C 0.35204 0.8915 0.55883 0.0
C45 C 0.36333 0.90939 0.6486 0.0
N46 N 0.33658 0.90981 0.64955 0.0
O47 O 0.41699 0.88934 0.6653 0.0
H48 H 0.35205 0.88182 0.51168 0.0
H49 H 0.3752 0.91793 0.68745 0.0
O50 O 0.41863 0.93957 0.5607 0.0
C51 C 0.41068 0.85352 0.6798 0.0
O52 O 0.40503 0.82778 0.63619 0.0
N53 N 0.40522 0.86864 0.49867 0.0
C54 C 0.41158 0.8199 0.39599 0.0
C55 C 0.42567 0.85607 0.40151 0.0
C56 C 0.42211 0.88014 0.453 0.0
C57 C 0.39112 0.83394 0.49343 0.0
C58 C 0.39329 0.80991 0.44169 0.0
H59 H 0.43512 0.90554 0.45914 0.0
H60 H 0.37935 0.82329 0.53147 0.0
H61 H 0.47129 0.92147 0.58003 0.0
H62 H 0.49147 0.80303 0.53766 0.0
H63 H 0.30951 0.89511 0.57639 0.0
H64 H 0.44038 0.8648 0.36795 0.0
H65 H 0.38129 0.78312 0.43875 0.0
C66 C 0.133 0.83347 0.83422 0.0
C67 C 0.10592 0.83443 0.83169 0.0
N68 N 0.09794 0.86948 0.85484 0.0
N69 N 0.14221 0.86788 0.85858 0.0
C70 C 0.12023 0.88936 0.87077 0.0
H71 H 0.14521 0.80881 0.82012 0.0
Co72 Co 0.17851 0.87834 0.86883 0.0
C73 C 0.18018 0.95007 0.94621 0.0
O74 O 0.19465 0.92941 -0.01577 0.0
N75 N 0.21639 0.88945 0.87607 0.0
C76 C 0.25919 0.8914 0.90074 0.0
C77 C 0.23405 0.88219 0.92084 0.0
C78 C 0.23176 0.90474 0.83037 0.0
N79 N 0.25801 0.90494 0.84259 0.0
O80 O 0.17988 0.89212 0.78449 0.0
H81 H 0.22939 0.87047 0.96561 0.0
H82 H 0.22388 0.91471 0.78753 0.0
O83 O 0.17183 0.93393 0.89634 0.0
C84 C 0.18805 0.85899 0.76265 0.0
O85 O 0.19413 0.83008 0.80048 0.0
N86 N 0.1759 0.85697 0.94802 0.0
C87 C 0.16427 0.807 0.04718 0.0
C88 C 0.15003 0.84223 0.03745 0.0
C89 C 0.1563 0.86692 -0.01182 0.0
C90 C 0.18899 0.8219 0.95491 0.0
C91 C 0.18433 0.79741 0.00539 0.0
H92 H 0.1445 0.89311 -0.0191 0.0
H93 H 0.20299 0.8125 0.92046 0.0
H94 H 0.12044 0.91854 0.89207 0.0
H95 H 0.09297 0.81053 0.81651 0.0
H96 H 0.27666 0.88752 0.92806 0.0
H97 H 0.13385 0.85059 0.06719 0.0
H98 H 0.19648 0.77134 0.01123 0.0
C99 C 0.45951 0.24567 0.36004 0.0
C100 C 0.48656 0.2466 0.36067 0.0
N101 N 0.49514 0.20952 0.37164 0.0
N102 N 0.45086 0.20816 0.37082 0.0
C103 C 0.47319 0.18655 0.37784 0.0
H104 H 0.44684 0.27115 0.35411 0.0
Co105 Co 0.41444 0.19662 0.37513 0.0
C106 C 0.4122 0.12658 0.45743 0.0
O107 O 0.39733 0.14732 0.49481 0.0
N108 N 0.37644 0.18558 0.3762 0.0
C109 C 0.33303 0.18463 0.39696 0.0
C110 C 0.35804 0.19003 0.42083 0.0
C111 C 0.36158 0.17583 0.32634 0.0
N112 N 0.33529 0.17632 0.33689 0.0
O113 O 0.4164 0.17835 0.29323 0.0
H114 H 0.36211 0.19822 0.46773 0.0
H115 H 0.36955 0.16972 0.28164 0.0
O116 O 0.42091 0.14253 0.40787 0.0
C117 C 0.41191 0.21109 0.26569 0.0
O118 O 0.40568 0.24274 0.29809 0.0
N119 N 0.41389 0.22083 0.45256 0.0
C120 C 0.42156 0.2737 0.55034 0.0
C121 C 0.43747 0.23983 0.54323 0.0
C122 C 0.43307 0.21355 0.49483 0.0
C123 C 0.39927 0.2547 0.45659 0.0
C124 C 0.40194 0.28056 0.5064 0.0
H125 H 0.44613 0.18848 0.4894 0.0
H126 H 0.38568 0.26213 0.42033 0.0
H127 H 0.47338 0.15521 0.38949 0.0
H128 H 0.49906 0.27278 0.35591 0.0
H129 H 0.31468 0.18726 0.42205 0.0
H130 H 0.4535 0.2337 0.57442 0.0
H131 H 0.38863 0.3055 0.51004 0.0
C132 C 0.95233 0.83944 0.93353 0.0
C133 C 0.97942 0.83863 0.93461 0.0
N134 N 0.98857 0.87261 0.90948 0.0
N135 N 0.9443 0.87419 0.9089 0.0
C136 C 0.96696 0.89351 0.89338 0.0
H137 H 0.93925 0.81585 0.94897 0.0
Co138 Co 0.90853 0.8874 0.89564 0.0
C139 C 0.90648 0.96782 0.95189 0.0
O140 O 0.88813 0.9541 -0.01123 0.0
N141 N 0.87182 0.90035 0.87984 0.0
C142 C 0.82836 0.91063 0.88886 0.0
C143 C 0.85169 0.90601 0.9199 0.0
C144 C 0.85971 0.90218 0.82427 0.0
N145 N 0.83336 0.90777 0.82863 0.0
O146 O 0.91621 0.89003 0.81018 0.0
H147 H 0.85321 0.90523 0.96915 0.0
H148 H 0.86962 0.89784 0.78095 0.0
O149 O 0.9166 0.94497 0.91091 0.0
C150 C 0.91313 0.85245 0.80109 0.0
O151 O 0.90313 0.83056 0.84549 0.0
N152 N 0.90169 0.87604 -0.02203 0.0
C153 C 0.90437 0.8293 0.08276 0.0
C154 C 0.91971 0.86423 0.07756 0.0
C155 C 0.91817 0.88723 0.02455 0.0
C156 C 0.8859 0.84306 -0.01626 0.0
C157 C 0.88649 0.81982 0.03625 0.0
H158 H 0.93224 0.9113 0.01824 0.0
H159 H 0.87414 0.83283 0.9455 0.0
H160 H 0.96761 0.92188 0.86984 0.0
H161 H 0.99153 0.8143 0.95042 0.0
H162 H 0.8091 0.91501 0.90927 0.0
H163 H 0.93393 0.87239 0.11247 0.0
H164 H 0.87375 0.79378 0.03924 0.0
C165 C 0.64213 0.25044 0.40912 0.0
C166 C 0.61522 0.25088 0.41646 0.0
N167 N 0.60565 0.21438 0.40282 0.0
N168 N 0.64973 0.2136 0.39185 0.0
C169 C 0.6269 0.19237 0.38716 0.0
H170 H 0.65539 0.2756 0.41524 0.0
Co171 Co 0.68497 0.19967 0.37363 0.0
C172 C 0.68831 0.12564 0.44823 0.0
O173 O 0.70722 0.14206 0.4807 0.0
N174 N 0.72098 0.18576 0.35274 0.0
C175 C 0.76449 0.17465 0.35511 0.0
C176 C 0.74212 0.18057 0.38972 0.0
C177 C 0.7315 0.18279 0.29549 0.0
N178 N 0.75782 0.17644 0.29573 0.0
O179 O 0.67387 0.18786 0.29209 0.0
H180 H 0.74203 0.18342 0.43892 0.0
H181 H 0.72036 0.18592 0.25375 0.0
O182 O 0.67815 0.1445 0.40309 0.0
C183 C 0.67566 0.22398 0.27338 0.0
O184 O 0.68713 0.25065 0.30897 0.0
N185 N 0.69504 0.21922 0.45055 0.0
C186 C 0.69663 0.27552 0.54411 0.0
C187 C 0.6813 0.24073 0.55027 0.0
C188 C 0.68051 0.21306 0.50259 0.0
C189 C 0.711 0.25208 0.44539 0.0
C190 C 0.71227 0.28048 0.49187 0.0
H191 H 0.66619 0.18902 0.50491 0.0
H192 H 0.72097 0.25834 0.40262 0.0
H193 H 0.62584 0.16167 0.37188 0.0
H194 H 0.60342 0.27647 0.42878 0.0
H195 H 0.78441 0.17162 0.37227 0.0
H196 H 0.6689 0.23605 0.59014 0.0
H197 H 0.72393 0.30735 0.48506 0.0
C198 C 0.96559 0.2387 0.14178 0.0
C199 C 0.99263 0.23664 0.14132 0.0
N200 N 0.99973 0.20728 0.10284 0.0
N201 N 0.95546 0.21041 0.10434 0.0
C202 C 0.97688 0.19176 0.08087 0.0
H203 H 0.95408 0.26016 0.16708 0.0
Co204 Co 0.91903 0.20355 0.09228 0.0
C205 C 0.91526 0.13546 0.00568 0.0
O206 O 0.90032 0.1573 0.97029 0.0
N207 N 0.88103 0.19669 0.0818 0.0
C208 C 0.83883 0.20378 0.05379 0.0
C209 C 0.86482 0.20961 0.0369 0.0
C210 C 0.86391 0.18155 0.12407 0.0
N211 N 0.83825 0.18691 0.10963 0.0
O212 O 0.91665 0.18217 0.17309 0.0
H213 H 0.87113 0.22338 -0.0054 0.0
H214 H 0.86992 0.16825 0.16663 0.0
O215 O 0.9244 0.1502 0.05568 0.0
C216 C 0.90935 0.21292 0.20314 0.0
O217 O 0.90403 0.2458 0.17321 0.0
N218 N 0.92241 0.23111 0.01864 0.0
C219 C 0.9279 0.28646 0.92517 0.0
C220 C 0.94029 0.24933 0.9208 0.0
C221 C 0.93774 0.22212 0.969 0.0
C222 C 0.91218 0.26838 0.02517 0.0
C223 C 0.91421 0.29626 -0.02153 0.0
H224 H 0.948 0.19409 0.96624 0.0
H225 H 0.90167 0.27618 0.0665 0.0
H226 H 0.97585 0.16767 0.04788 0.0
H227 H 1.00614 0.25633 0.16541 0.0
H228 H 0.82179 0.21204 0.02708 0.0
H229 H 0.95109 0.24106 0.87988 0.0
H230 H 0.90439 0.3247 -0.01699 0.0
C231 C 0.63894 0.83091 0.54509 0.0
C232 C 0.61202 0.82904 0.54007 0.0
N233 N 0.60227 0.86552 0.55142 0.0
N234 N 0.64646 0.86857 0.55877 0.0
C235 C 0.62354 0.8891 0.56317 0.0
H236 H 0.65235 0.80639 0.53806 0.0
Co237 Co 0.68249 0.88254 0.56729 0.0
C238 C 0.6861 0.96072 0.50938 0.0
O239 O 0.70472 0.94532 0.47514 0.0
N240 N 0.71974 0.8961 0.57891 0.0
C241 C 0.7638 0.90147 0.57141 0.0
C242 C 0.74057 0.89588 0.5397 0.0
C243 C 0.73133 0.90332 0.63403 0.0
N244 N 0.75795 0.9054 0.63115 0.0
O245 O 0.67675 0.88584 0.65322 0.0
H246 H 0.73945 0.89063 0.49095 0.0
H247 H 0.72059 0.90644 0.67657 0.0
O248 O 0.67489 0.93956 0.55115 0.0
C249 C 0.6819 0.84894 0.6627 0.0
O250 O 0.69097 0.82745 0.61691 0.0
N251 N 0.6871 0.87036 0.4846 0.0
C252 C 0.67857 0.82189 0.38296 0.0
C253 C 0.66423 0.85721 0.39084 0.0
C254 C 0.66901 0.88134 0.44165 0.0
C255 C 0.70185 0.83692 0.47624 0.0
C256 C 0.69856 0.81309 0.42475 0.0
H257 H 0.65588 0.906 0.45015 0.0
H258 H 0.71488 0.82678 0.51191 0.0
H259 H 0.62248 0.92067 0.57328 0.0
H260 H 0.60038 0.80281 0.5288 0.0
H261 H 0.78351 0.90066 0.55237 0.0
H262 H 0.64842 0.86507 0.36 0.0
H263 H 0.71092 0.78715 0.41929 0.0
C264 C 0.63935 0.74774 0.03788 0.0
C265 C 0.61258 0.75063 0.03089 0.0
N266 N 0.60158 0.7149 0.04342 0.0
N267 N 0.64554 0.71019 0.05427 0.0
C268 C 0.62193 0.69084 0.05836 0.0
H269 H 0.65356 0.77162 0.03128 0.0
Co270 Co 0.68093 0.69523 0.06876 0.0
C271 C 0.68424 0.61677 0.01018 0.0
O272 O 0.70443 0.63116 -0.02057 0.0
N273 N 0.71744 0.68095 0.08652 0.0
C274 C 0.76139 0.67385 0.08415 0.0
C275 C 0.73905 0.67998 0.04978 0.0
C276 C 0.72768 0.67438 0.14323 0.0
N277 N 0.75428 0.67092 0.14332 0.0
O278 O 0.67228 0.69093 0.15296 0.0
H279 H 0.73912 0.68473 0.00088 0.0
H280 H 0.71596 0.67257 0.18451 0.0
O281 O 0.67245 0.63857 0.05 0.0
C282 C 0.6769 0.72783 0.16452 0.0
O283 O 0.68782 0.75012 0.12173 0.0
N284 N 0.68851 0.70775 -0.01267 0.0
C285 C 0.68463 0.75537 0.88369 0.0
C286 C 0.6695 0.72026 0.88915 0.0
C287 C 0.67184 0.69668 0.94111 0.0
C288 C 0.70399 0.74107 -0.01828 0.0
C289 C 0.70294 0.76465 0.9295 0.0
H290 H 0.65794 0.67238 0.94728 0.0
H291 H 0.71583 0.75125 0.01986 0.0
H292 H 0.61971 0.65988 0.07149 0.0
H293 H 0.60188 0.7772 0.01835 0.0
H294 H 0.78146 0.6735 0.06713 0.0
H295 H 0.65479 0.71222 0.85528 0.0
H296 H 0.71564 0.79071 0.92633 0.0
C297 C 0.95551 0.32591 0.56457 0.0
C298 C 0.98217 0.32364 0.55466 0.0
N299 N 0.99246 0.36069 0.5575 0.0
N300 N 0.94864 0.36435 0.57283 0.0
C301 C 0.97178 0.38504 0.56893 0.0
H302 H 0.94181 0.30099 0.56465 0.0
Co303 Co 0.91304 0.3792 0.58595 0.0
C304 C 0.90978 0.45121 0.50623 0.0
O305 O 0.89159 0.43279 0.47393 0.0
N306 N 0.87645 0.39406 0.60149 0.0
C307 C 0.83294 0.40403 0.5929 0.0
C308 C 0.85582 0.3948 0.56211 0.0
C309 C 0.86505 0.4035 0.65628 0.0
N310 N 0.83868 0.40963 0.65236 0.0
O311 O 0.92208 0.39407 0.66748 0.0
H312 H 0.85673 0.38734 0.51406 0.0
H313 H 0.87562 0.4054 0.69903 0.0
O314 O 0.9202 0.43356 0.55234 0.0
C315 C 0.91875 0.35949 0.69134 0.0
O316 O 0.91131 0.3297 0.65598 0.0
N317 N 0.90463 0.35647 0.5101 0.0
C318 C 0.90365 0.29735 0.42039 0.0
C319 C 0.91907 0.33198 0.41251 0.0
C320 C 0.91956 0.36109 0.45836 0.0
C321 C 0.88912 0.32329 0.51752 0.0
C322 C 0.8881 0.29361 0.47298 0.0
H323 H 0.93361 0.38543 0.45472 0.0
H324 H 0.879 0.31826 0.56048 0.0
H325 H 0.97336 0.41715 0.57301 0.0
H326 H 0.99324 0.29676 0.54575 0.0
H327 H 0.81333 0.40435 0.5733 0.0
H328 H 0.93149 0.33572 0.37245 0.0
H329 H 0.87646 0.2669 0.48135 0.0
C330 C 0.63751 0.32691 0.85104 0.0
C331 C 0.61057 0.32274 0.85275 0.0
N332 N 0.6 0.35886 0.86254 0.0
N333 N 0.64414 0.36546 0.86035 0.0
C334 C 0.62072 0.38451 0.8665 0.0
H335 H 0.65151 0.30293 0.84649 0.0
Co336 Co 0.67982 0.3806 0.86907 0.0
C337 C 0.67771 0.45172 0.9474 0.0
O338 O 0.69317 0.43277 -0.01461 0.0
N339 N 0.7172 0.39578 0.87485 0.0
C340 C 0.76007 0.4013 0.89907 0.0
C341 C 0.73512 0.3919 0.92039 0.0
C342 C 0.73222 0.40942 0.8273 0.0
N343 N 0.7583 0.41201 0.83989 0.0
O344 O 0.67963 0.39547 0.78541 0.0
H345 H 0.73086 0.38165 0.96622 0.0
H346 H 0.72451 0.41557 0.78254 0.0
O347 O 0.67034 0.43488 0.8973 0.0
C348 C 0.68786 0.36316 0.76123 0.0
O349 O 0.69503 0.33372 0.79701 0.0
N350 N 0.67883 0.35906 0.94845 0.0
C351 C 0.66909 0.30891 0.04853 0.0
C352 C 0.65215 0.34061 0.03491 0.0
C353 C 0.65789 0.36608 -0.01357 0.0
C354 C 0.69425 0.32651 0.95774 0.0
C355 C 0.69057 0.30228 0.009 0.0
H356 H 0.64429 0.38985 -0.02312 0.0
H357 H 0.70922 0.31876 0.9245 0.0
H358 H 0.61893 0.41582 0.87783 0.0
H359 H 0.59955 0.29499 0.84977 0.0
H360 H 0.77821 0.39908 0.92482 0.0
H361 H 0.63401 0.3454 0.05991 0.0
H362 H 0.70425 0.2782 0.01663 0.0
C363 C 0.94679 0.75401 0.41548 0.0
C364 C 0.97363 0.75899 0.41816 0.0
N365 N 0.98498 0.72382 0.40546 0.0
N366 N 0.94096 0.71564 0.40203 0.0
C367 C 0.96479 0.69785 0.39543 0.0
H368 H 0.93229 0.7768 0.42432 0.0
Co369 Co 0.9055 0.69795 0.39693 0.0
C370 C 0.90729 0.6178 0.45145 0.0
O371 O 0.88944 0.63047 0.49025 0.0
N372 N 0.86866 0.68095 0.38862 0.0
C373 C 0.82542 0.66931 0.40304 0.0
C374 C 0.84936 0.67608 0.43121 0.0
C375 C 0.85547 0.67584 0.33476 0.0
N376 N 0.82925 0.66965 0.34215 0.0
O377 O 0.90965 0.69684 0.31039 0.0
H378 H 0.85194 0.67859 0.48012 0.0
H379 H 0.86446 0.67839 0.29004 0.0
O380 O 0.91599 0.64106 0.40902 0.0
C381 C 0.9032 0.73337 0.30213 0.0
O382 O 0.89333 0.75333 0.34868 0.0
N383 N 0.90221 0.70782 0.48111 0.0
C384 C 0.91053 0.75399 0.586 0.0
C385 C 0.92699 0.72164 0.57221 0.0
C386 C 0.92208 0.69829 0.52054 0.0
C387 C 0.88587 0.73885 0.49413 0.0
C388 C 0.8891 0.76135 0.54724 0.0
H389 H 0.93638 0.6759 0.50819 0.0
H390 H 0.87149 0.74835 0.46088 0.0
H391 H 0.96729 0.66648 0.38544 0.0
H392 H 0.98412 0.78631 0.42937 0.0
H393 H 0.80658 0.6652 0.42576 0.0
H394 H 0.94464 0.7158 0.59831 0.0
H395 H 0.87567 0.78567 0.55598 0.0
C396 C 0.45068 0.3223 0.89676 0.0
C397 C 0.47758 0.31882 0.89892 0.0
N398 N 0.48846 0.35542 0.8933 0.0
N399 N 0.4443 0.36103 0.89065 0.0
C400 C 0.46782 0.38065 0.88794 0.0
H401 H 0.43654 0.298 0.89926 0.0
Co402 Co 0.40891 0.37747 0.88393 0.0
C403 C 0.4097 0.45024 0.96243 0.0
O404 O 0.39198 0.4333 -0.00211 0.0
N405 N 0.37241 0.39362 0.87494 0.0
C406 C 0.3292 0.4031 0.89056 0.0
C407 C 0.35311 0.39599 0.91793 0.0
C408 C 0.35925 0.40009 0.82163 0.0
N409 N 0.33304 0.40516 0.82978 0.0
O410 O 0.41615 0.39092 0.80051 0.0
H411 H 0.35555 0.39046 0.96622 0.0
H412 H 0.36826 0.39904 0.77679 0.0
O413 O 0.4183 0.43152 0.91509 0.0
C414 C 0.41162 0.35576 0.7796 0.0
O415 O 0.4002 0.32943 0.81578 0.0
N416 N 0.40255 0.35622 0.96144 0.0
C417 C 0.40528 0.29708 0.05003 0.0
C418 C 0.4208 0.33182 0.05507 0.0
C419 C 0.41951 0.36083 0.00957 0.0
C420 C 0.38639 0.32351 0.95789 0.0
C421 C 0.38726 0.29377 0.00197 0.0
H422 H 0.43382 0.38492 0.01002 0.0
H423 H 0.37431 0.31864 0.91782 0.0
H424 H 0.46975 0.41261 0.88243 0.0
H425 H 0.48841 0.29126 0.90307 0.0
H426 H 0.31033 0.40532 0.91362 0.0
H427 H 0.43461 0.33578 0.09242 0.0
H428 H 0.37501 0.26735 -0.00347 0.0
C429 C 0.13712 0.75066 0.42933 0.0
C430 C 0.11045 0.75594 0.43587 0.0
N431 N 0.0978 0.72522 0.40861 0.0
N432 N 0.14166 0.71612 0.3994 0.0
C433 C 0.11718 0.70203 0.38535 0.0
H434 H 0.15226 0.7711 0.44509 0.0
Co435 Co 0.17579 0.69743 0.3773 0.0
C436 C 0.15093 0.6216 0.4353 0.0
O437 O 0.13029 0.6386 0.46028 0.0
N438 N 0.2098 0.67916 0.3542 0.0
C439 C 0.24725 0.64479 0.35413 0.0
C440 C 0.22401 0.65182 0.3849 0.0
C441 C 0.22522 0.68894 0.30542 0.0
N442 N 0.24806 0.66829 0.30434 0.0
O443 O 0.16358 0.68973 0.29538 0.0
H444 H 0.21787 0.63781 0.42722 0.0
H445 H 0.21969 0.71019 0.27064 0.0
O446 O 0.16733 0.64238 0.40351 0.0
C447 C 0.16624 0.72613 0.27851 0.0
O448 O 0.1766 0.75185 0.31743 0.0
N449 N 0.18876 0.7117 0.45425 0.0
C450 C 0.19527 0.76442 0.551 0.0
C451 C 0.18036 0.7293 0.55857 0.0
C452 C 0.17748 0.70291 0.50942 0.0
C453 C 0.20565 0.74342 0.44854 0.0
C454 C 0.20923 0.77027 0.49652 0.0
H455 H 0.16395 0.67832 0.51426 0.0
H456 H 0.21408 0.75063 0.40437 0.0
H457 H 0.11371 0.67473 0.35993 0.0
H458 H 0.10103 0.7808 0.45853 0.0
H459 H 0.26252 0.62417 0.3675 0.0
H460 H 0.16964 0.72368 0.60072 0.0
H461 H 0.2209 0.79706 0.48915 0.0
C462 C 0.45259 0.75069 0.05829 0.0
C463 C 0.47946 0.75376 0.05157 0.0
N464 N 0.4898 0.71719 0.05768 0.0
N465 N 0.44577 0.71219 0.06795 0.0
C466 C 0.46906 0.69241 0.06827 0.0
H467 H 0.43872 0.77489 0.05435 0.0
Co468 Co 0.41016 0.69474 0.07658 0.0
C469 C 0.41836 0.61827 0.00582 0.0
O470 O 0.40711 0.63374 0.95756 0.0
N471 N 0.37403 0.67697 0.0882 0.0
C472 C 0.335 0.64577 0.07916 0.0
C473 C 0.3595 0.65173 0.05314 0.0
C474 C 0.35733 0.68631 0.13498 0.0
N475 N 0.33361 0.66778 0.13047 0.0
O476 O 0.4164 0.68941 0.16244 0.0
H477 H 0.36584 0.63839 0.0109 0.0
H478 H 0.3624 0.70561 0.17286 0.0
O479 O 0.42028 0.63842 0.05598 0.0
C480 C 0.41198 0.72641 0.17382 0.0
O481 O 0.40209 0.74858 0.12992 0.0
N482 N 0.40372 0.7096 -0.00503 0.0
C483 C 0.40182 0.76268 0.89762 0.0
C484 C 0.42244 0.73547 0.90193 0.0
C485 C 0.42316 0.70933 0.9512 0.0
C486 C 0.38298 0.73514 -0.01041 0.0
C487 C 0.3815 0.76165 0.94088 0.0
H488 H 0.44037 0.6908 0.9564 0.0
H489 H 0.3687 0.73809 0.02607 0.0
H490 H 0.47074 0.66049 0.07401 0.0
H491 H 0.4906 0.78073 0.04185 0.0
H492 H 0.31933 0.62684 0.06156 0.0
H493 H 0.43839 0.73544 0.86877 0.0
H494 H 0.36547 0.7828 0.9391 0.0
C495 C 0.14195 0.33064 0.52145 0.0
C496 C 0.11506 0.32775 0.51591 0.0
N497 N 0.10434 0.36245 0.53413 0.0
N498 N 0.14855 0.36723 0.54241 0.0
C499 C 0.12511 0.38596 0.55044 0.0
H500 H 0.15593 0.30738 0.511 0.0
Co501 Co 0.18395 0.38246 0.5579 0.0
C502 C 0.18736 0.46414 0.51115 0.0
O503 O 0.20909 0.45253 0.48409 0.0
N504 N 0.22053 0.39707 0.5764 0.0
C505 C 0.26452 0.405 0.57414 0.0
C506 C 0.24219 0.39881 0.53971 0.0
C507 C 0.23079 0.40301 0.63331 0.0
N508 N 0.2574 0.40704 0.63331 0.0
O509 O 0.17583 0.38144 0.6433 0.0
H510 H 0.24227 0.39515 0.49057 0.0
H511 H 0.2191 0.40377 0.67474 0.0
O512 O 0.17479 0.43951 0.54578 0.0
C513 C 0.18106 0.34424 0.64937 0.0
O514 O 0.19193 0.32541 0.60303 0.0
N515 N 0.19125 0.37451 0.47504 0.0
C516 C 0.18684 0.33034 0.36769 0.0
C517 C 0.17238 0.36558 0.37549 0.0
C518 C 0.17493 0.38744 0.42964 0.0
C519 C 0.20641 0.34151 0.46642 0.0
C520 C 0.20512 0.31976 0.41243 0.0
H521 H 0.16138 0.41159 0.43792 0.0
H522 H 0.21811 0.32991 0.50349 0.0
H523 H 0.12334 0.41613 0.56752 0.0
H524 H 0.10412 0.30169 0.50069 0.0
H525 H 0.28459 0.40603 0.55714 0.0
H526 H 0.15792 0.3747 0.342 0.0
H527 H 0.21741 0.2937 0.40731 0.0
C528 C 0.30072 0.15038 0.1886 0.0
C529 C 0.27781 0.1738 0.1903 0.0
C530 C 0.31868 0.15009 0.23761 0.0
C531 C 0.31474 0.1735 0.29056 0.0
H532 H 0.30493 0.13234 0.14862 0.0
H533 H 0.33606 0.13172 0.23353 0.0
S534 S 0.25801 0.24111 0.31729 0.0
N535 N 0.25214 0.22123 0.2494 0.0
N536 N 0.28591 0.22125 0.34092 0.0
C537 C 0.29158 0.19659 0.29334 0.0
C538 C 0.27317 0.19663 0.24343 0.0
C539 C 0.27362 0.92644 0.73877 0.0
C540 C 0.27936 0.91223 0.79825 0.0
C541 C 0.29259 0.92713 0.69171 0.0
C542 C 0.31871 0.91481 0.70144 0.0
H543 H 0.25406 0.93619 0.72682 0.0
H544 H 0.2865 0.93677 0.64668 0.0
S545 S 0.34658 0.88401 0.85138 0.0
N546 N 0.315 0.89114 0.86553 0.0
N547 N 0.35051 0.89426 0.77814 0.0
C548 C 0.32562 0.90439 0.76188 0.0
C549 C 0.30609 0.90274 0.80986 0.0
C550 C 0.80089 0.92656 0.67596 0.0
C551 C 0.77645 0.90645 0.68166 0.0
C552 C 0.81943 0.92684 0.72392 0.0
C553 C 0.81421 0.90715 0.77956 0.0
H554 H 0.80563 0.94243 0.63416 0.0
H555 H 0.83787 0.94293 0.71778 0.0
S556 S 0.75475 0.84593 0.81527 0.0
N557 N 0.74922 0.86336 0.7459 0.0
N558 N 0.78374 0.8644 0.83573 0.0
C559 C 0.79011 0.8863 0.78544 0.0
C560 C 0.77132 0.88582 0.73666 0.0
C561 C 0.79722 0.14994 0.24287 0.0
C562 C 0.77593 0.17657 0.24439 0.0
C563 C 0.81663 0.15217 0.19688 0.0
C564 C 0.81592 0.18161 0.15086 0.0
H565 H 0.79905 0.12754 0.27821 0.0
H566 H 0.83273 0.13118 0.19829 0.0
S567 S 0.76425 0.25912 0.13531 0.0
N568 N 0.75499 0.23304 0.19579 0.0
N569 N 0.79167 0.23821 0.11051 0.0
C570 C 0.7943 0.20796 0.15123 0.0
C571 C 0.77433 0.20525 0.19771 0.0
C572 C 0.79609 0.6483 0.19064 0.0
C573 C 0.77198 0.66882 0.19541 0.0
C574 C 0.81444 0.64814 0.23894 0.0
C575 C 0.80944 0.66828 0.29435 0.0
H576 H 0.80088 0.63235 0.14896 0.0
H577 H 0.83275 0.63216 0.2329 0.0
S578 S 0.7504 0.72927 0.32903 0.0
N579 N 0.74492 0.71172 0.25948 0.0
N580 N 0.77911 0.7109 0.35007 0.0
C581 C 0.78543 0.68887 0.29992 0.0
C582 C 0.7668 0.68925 0.25062 0.0
C583 C 0.82344 0.39612 0.75869 0.0
C584 C 0.81987 0.41512 0.70198 0.0
C585 C 0.80378 0.39645 0.8043 0.0
C586 C 0.77976 0.41667 0.7959 0.0
H587 H 0.84115 0.3795 0.76716 0.0
H588 H 0.80709 0.37929 0.84542 0.0
S589 S 0.76314 0.47897 0.66099 0.0
N590 N 0.79201 0.45949 0.64341 0.0
N591 N 0.75561 0.46179 0.72969 0.0
C592 C 0.77687 0.43861 0.74126 0.0
C593 C 0.79673 0.43751 0.69432 0.0
C594 C 0.29905 0.43028 0.68148 0.0
C595 C 0.27518 0.40848 0.68512 0.0
C596 C 0.31766 0.42954 0.72915 0.0
C597 C 0.3131 0.40713 0.78257 0.0
H598 H 0.30346 0.44787 0.64115 0.0
H599 H 0.3358 0.44656 0.72419 0.0
S600 S 0.25486 0.3421 0.813 0.0
N601 N 0.24881 0.36202 0.74548 0.0
N602 N 0.28352 0.36097 0.83496 0.0
C603 C 0.28934 0.38519 0.78689 0.0
C604 C 0.27044 0.3858 0.73828 0.0
C605 C 0.27865 0.63326 0.23476 0.0
C606 C 0.26878 0.66917 0.25878 0.0
C607 C 0.29954 0.63312 0.19228 0.0
C608 C 0.31186 0.66882 0.17342 0.0
H609 H 0.27002 0.60507 0.24884 0.0
H610 H 0.3065 0.60481 0.1749 0.0
S611 S 0.29359 0.77077 0.22294 0.0
N612 N 0.27274 0.74134 0.26021 0.0
N613 N 0.31249 0.74106 0.18159 0.0
C614 C 0.30226 0.70493 0.19723 0.0
C615 C 0.28057 0.70511 0.23948 0.0
C616 C 0.04633 0.19534 0.12884 0.0
C617 C 1.02644 0.19909 0.08431 0.0
C618 C 0.07317 0.19506 0.11242 0.0
C619 C 0.081 0.19949 0.05102 0.0
H620 H 1.04103 0.19426 0.17689 0.0
H621 H 0.08792 0.19404 0.14818 0.0
S622 S 1.03672 0.20794 0.91693 0.0
N623 N 1.01643 0.20487 0.97613 0.0
N624 N 0.06686 0.20526 0.94534 0.0
C625 C 0.06131 0.20146 0.00593 0.0
C626 C 1.03401 0.20097 0.02253 0.0
C627 C 0.5596 0.86106 0.49884 0.0
C628 C 0.57465 0.87542 0.54831 0.0
C629 C 0.53197 0.86128 0.50051 0.0
C630 C 0.5182 0.87586 0.55172 0.0
H631 H 0.56934 0.84747 0.45993 0.0
H632 H 0.5212 0.84779 0.46289 0.0
S633 S 0.54825 0.91988 0.69108 0.0
N634 N 0.57383 0.90734 0.64818 0.0
N635 N 0.52161 0.90771 0.65133 0.0
C636 C 0.53291 0.89298 0.59971 0.0
C637 C 0.56124 0.89277 0.598 0.0
C638 C 1.02487 0.88122 0.83521 0.0
C639 C 1.01589 0.88092 0.89616 0.0
C640 C 0.05203 0.87989 0.82171 0.0
C641 C 0.07099 0.87925 0.8687 0.0
H642 H 1.01078 0.87971 0.79806 0.0
H643 H 0.05828 0.87756 0.77439 0.0
S644 S 0.05751 0.88031 0.03531 0.0
N645 N 1.02794 0.88125 0.00354 0.0
N646 N 0.07894 0.8801 -0.0219 0.0
C647 C 0.06224 0.88124 0.92959 0.0
C648 C 1.03467 0.8817 0.94332 0.0
C649 C 0.56683 0.1895 0.34521 0.0
C650 C 0.57804 0.20379 0.40005 0.0
C651 C 0.53921 0.188 0.33752 0.0
C652 C 0.52212 0.20002 0.38483 0.0
H653 H 0.57946 0.18234 0.30671 0.0
H654 H 0.53118 0.17996 0.29323 0.0
S655 S 0.54155 0.23537 0.53892 0.0
N656 N 0.56988 0.22691 0.5037 0.0
N657 N 0.51818 0.22363 0.48924 0.0
C658 C 0.53311 0.21163 0.44096 0.0
C659 C 0.56104 0.21358 0.4486 0.0
C660 C 0.53241 0.69225 0.09741 0.0
C661 C 0.51727 0.70776 0.04914 0.0
C662 C 0.56026 0.69158 0.0938 0.0
C663 C 0.57361 0.70643 0.04184 0.0
H664 H 0.52278 0.68313 0.13949 0.0
H665 H 0.57144 0.68203 0.13326 0.0
S666 S 0.54261 0.74416 0.90005 0.0
N667 N 0.51744 0.73383 0.94574 0.0
N668 N 0.5694 0.7324 0.93876 0.0
C669 C 0.55846 0.71905 -0.00815 0.0
C670 C 0.53038 0.71979 -0.00444 0.0
C671 C 0.06003 0.35451 0.48932 0.0
C672 C 0.07631 0.37044 0.53564 0.0
C673 C 1.03248 0.35426 0.49486 0.0
C674 C 1.0199 0.37024 0.5467 0.0
H675 H 0.06877 0.3404 0.44957 0.0
H676 H 1.02085 0.33964 0.45967 0.0
S677 S 0.05301 0.41852 0.67883 0.0
N678 N 0.07759 0.40507 0.63355 0.0
N679 N 1.02554 0.40485 0.64348 0.0
C680 C 1.03569 0.38874 0.59152 0.0
C681 C 0.06396 0.38885 0.58607 0.0
C682 C 0.53319 0.34156 0.93088 0.0
C683 C 0.51653 0.36359 0.89241 0.0
C684 C 0.56064 0.34237 0.92335 0.0
C685 C 0.57265 0.36547 0.87734 0.0
H686 H 0.52479 0.3221 0.96546 0.0
H687 H 0.5726 0.32338 0.95197 0.0
S688 S 0.53843 0.43092 0.76735 0.0
N689 N 0.5143 0.41113 0.80872 0.0
N690 N 0.5662 0.41286 0.79516 0.0
C691 C 0.55653 0.38966 0.84102 0.0
C692 C 0.52838 0.38873 0.84847 0.0
C693 C 1.02708 0.7297 0.46011 0.0
C694 C 1.01296 0.71666 0.40844 0.0
C695 C 0.05471 0.73051 0.46054 0.0
C696 C 0.06951 0.7187 0.40903 0.0
H697 H 1.01654 0.74069 0.49984 0.0
H698 H 0.0646 0.74156 0.50115 0.0
S699 S 1.04184 0.68064 0.26274 0.0
N700 N 1.01556 0.69004 0.30527 0.0
N701 N 0.06776 0.69196 0.30545 0.0
C702 C 0.05565 0.70382 0.35784 0.0
C703 C 1.02731 0.70277 0.35768 0.0
C704 C 0.18527 0.06188 0.93222 0.0
C705 C 0.18347 0.0746 -0.00624 0.0
C706 C 0.18148 1.02174 0.91575 0.0
C707 C 0.17626 0.99279 0.9605 0.0
H708 H 0.19094 0.08287 0.89678 0.0
H709 H 0.18474 1.01294 0.86857 0.0
S710 S 0.16607 1.01127 0.12659 0.0
N711 N 0.17309 0.05579 0.09827 0.0
N712 N 0.16658 0.98006 0.06792 0.0
C713 C 0.17249 1.00556 0.02148 0.0
C714 C 0.17589 0.04659 0.03801 0.0
C715 C 0.41546 1.03118 0.55029 0.0
C716 C 0.41455 1.00154 0.50491 0.0
C717 C 0.41635 0.07177 0.5343 0.0
C718 C 0.41686 0.08406 0.47247 0.0
H719 H 0.41355 1.02312 0.59813 0.0
H720 H 0.41547 0.09375 0.57068 0.0
S721 S 0.4184 1.01736 0.337 0.0
N722 N 0.41667 0.98674 0.39606 0.0
N723 N 0.41905 0.06286 0.36616 0.0
C724 C 0.41813 0.0545 0.42699 0.0
C725 C 0.41674 1.01326 0.44322 0.0
C726 C 0.91849 1.02322 0.0226 0.0
C727 C 0.91542 1.00946 0.96196 0.0
C728 C 0.92057 0.06406 0.03617 0.0
C729 C 0.91901 0.09278 -0.01038 0.0
H730 H 0.91798 1.00224 0.06029 0.0
H731 H 0.92155 0.07319 0.08374 0.0
S732 S 0.91424 0.07209 0.82273 0.0
N733 N 0.91364 1.02745 0.85461 0.0
N734 N 0.91702 0.10439 0.87968 0.0
C735 C 0.91771 0.07928 0.92839 0.0
C736 C 0.91608 1.03756 0.91461 0.0
C737 C 0.67804 0.05525 0.41887 0.0
C738 C 0.68004 0.08463 0.46444 0.0
C739 C 0.67759 1.01468 0.43452 0.0
C740 C 0.67856 1.00223 0.49616 0.0
H741 H 0.67908 0.06345 0.37095 0.0
H742 H 0.67815 0.9928 0.39794 0.0
S743 S 0.67921 0.0679 0.63245 0.0
N744 N 0.67962 0.09891 0.57374 0.0
N745 N 0.67825 1.02254 0.60277 0.0
C746 C 0.67786 1.03136 0.5421 0.0
C747 C 0.67878 0.07266 0.52625 0.0
C748 C 0.67662 0.56351 0.93266 0.0
C749 C 0.67517 0.57604 -0.00569 0.0
C750 C 0.67461 0.52306 0.91654 0.0
C751 C 0.67161 0.49375 0.96176 0.0
H752 H 0.68083 0.58498 0.89684 0.0
H753 H 0.67766 0.51456 0.86916 0.0
S754 S 0.6629 0.5113 0.12851 0.0
N755 N 0.66729 0.55638 0.09961 0.0
N756 N 0.66404 0.48015 0.06983 0.0
C757 C 0.66797 0.50614 0.02295 0.0
C758 C 0.66957 0.5474 0.03915 0.0
C759 C 0.91098 0.50672 0.42957 0.0
C760 C 0.91628 0.49325 0.48959 0.0
C761 C 0.91116 0.54756 0.41488 0.0
C762 C 0.91648 0.57641 0.45983 0.0
H763 H 0.90515 0.48567 0.39429 0.0
H764 H 0.90491 0.55661 0.36962 0.0
S765 S 0.93517 0.55723 0.62122 0.0
N766 N 0.93006 0.51231 0.59208 0.0
N767 N 0.92993 0.58893 0.56484 0.0
C768 C 0.9239 0.56331 0.51853 0.0
C769 C 0.924 0.52175 0.53333 0.0
C770 C 0.41113 0.50829 0.03488 0.0
C771 C 0.41814 0.49176 -0.02251 0.0
C772 C 0.41405 0.54924 0.04709 0.0
C773 C 0.42402 0.57515 0.00225 0.0
H774 H 0.40194 0.48988 0.06976 0.0
H775 H 0.40641 0.56102 0.08978 0.0
S776 S 0.44979 0.54651 0.84919 0.0
N777 N 0.43901 0.50414 0.87893 0.0
N778 N 0.44432 0.58104 0.90166 0.0
C779 C 0.43338 0.55858 0.94701 0.0
C780 C 0.43053 0.51689 0.93465 0.0
C781 C 0.18057 0.5626 0.42717 0.0
C782 C 0.15806 0.58011 0.45311 0.0
C783 C 0.18965 0.52555 0.44689 0.0
C784 C 0.17656 0.50366 0.49321 0.0
H785 H 0.19161 0.57776 0.39153 0.0
H786 H 0.20726 0.5141 0.42511 0.0
S787 S 0.11552 0.53455 0.57384 0.0
N788 N 0.12202 0.57169 0.52642 0.0
N789 N 0.13907 0.50155 0.56273 0.0
C790 C 0.15352 0.52007 0.51851 0.0
C791 C 0.14427 0.55825 0.4986 0.0
C792 C 0.18131 0.33775 0.76376 0.0
C793 C 0.17711 0.32098 0.70578 0.0
C794 C 0.18438 0.31313 0.81518 0.0
C795 C 0.18396 0.27102 0.80989 0.0
H796 H 0.1837 0.36972 0.7689 0.0
H797 H 0.18785 0.32728 0.85908 0.0
S798 S 0.17047 0.21326 0.66787 0.0
N799 N 0.16889 0.26037 0.64696 0.0
N800 N 0.1775 0.21433 0.74151 0.0
C801 C 0.17838 0.25428 0.75231 0.0
C802 C 0.17421 0.27925 0.70086 0.0
C803 C 0.4185 0.81145 0.2841 0.0
C804 C 0.41536 0.79367 0.3417 0.0
C805 C 0.41953 0.78851 0.23113 0.0
C806 C 0.41674 0.74669 0.23276 0.0
H807 H 0.419 0.84358 0.27918 0.0
H808 H 0.42131 0.8042 0.18795 0.0
S809 S 0.41234 0.68456 0.37221 0.0
N810 N 0.41343 0.73089 0.39817 0.0
N811 N 0.41362 0.68779 0.29675 0.0
C812 C 0.41528 0.72797 0.2899 0.0
C813 C 0.41481 0.75148 0.34474 0.0
C814 C 0.15401 0.80265 0.15856 0.0
C815 C 0.15967 0.78272 0.10345 0.0
C816 C 0.15346 0.78249 0.2141 0.0
C817 C 0.15928 0.74165 0.21771 0.0
H818 H 0.15157 0.83468 0.15993 0.0
H819 H 0.15017 0.79987 0.2553 0.0
S820 S 0.17043 0.67358 0.0868 0.0
N821 N 0.16665 0.71788 0.0551 0.0
N822 N 0.16749 0.68054 0.16144 0.0
C823 C 0.16287 0.72035 0.16313 0.0
C824 C 0.16281 0.74083 0.10562 0.0
C825 C 0.42843 0.30103 0.7173 0.0
C826 C 0.42048 0.34101 0.71969 0.0
C827 C 0.42977 0.28039 0.66221 0.0
C828 C 0.42399 0.29908 0.60632 0.0
H829 H 0.43191 0.28449 0.7591 0.0
H830 H 0.43373 0.24877 0.66454 0.0
S831 S 0.40793 0.40643 0.58705 0.0
N832 N 0.41003 0.40047 0.66199 0.0
N833 N 0.41448 0.36249 0.55635 0.0
C834 C 0.41868 0.34048 0.60748 0.0
C835 C 0.41667 0.36137 0.66461 0.0
C836 C 0.90735 0.79731 0.24761 0.0
C837 C 0.90671 0.75532 0.24433 0.0
C838 C 0.90726 0.8207 0.19515 0.0
C839 C 0.90675 0.80319 0.13694 0.0
H840 H 0.90728 0.81261 0.29138 0.0
H841 H 0.90665 0.85282 0.20045 0.0
S842 S 0.90846 0.69459 0.10271 0.0
N843 N 0.9077 0.69701 0.17828 0.0
N844 N 0.90837 0.74122 0.07835 0.0
C845 C 0.9076 0.76117 0.13254 0.0
C846 C 0.90752 0.73716 0.18656 0.0
C847 C 0.67012 0.32009 0.61158 0.0
C848 C 0.69501 0.30734 0.59076 0.0
C849 C 0.66786 0.34462 0.66325 0.0
C850 C 0.69041 0.35693 0.69542 0.0
H851 H 0.65224 0.30905 0.59001 0.0
H852 H 0.64838 0.35043 0.68169 0.0
S853 S 0.76008 0.33689 0.65438 0.0
N854 N 0.74266 0.31303 0.60173 0.0
N855 N 0.73829 0.3588 0.69932 0.0
C856 C 0.71539 0.34771 0.67156 0.0
C857 C 0.71774 0.3229 0.61895 0.0
C858 C 0.9457 0.33441 0.84656 0.0
C859 C 0.92473 0.31149 0.87065 0.0
C860 C 0.9429 0.35454 0.79045 0.0
C861 C 0.91923 0.35152 0.75725 0.0
H862 H 0.96452 0.33548 0.86998 0.0
H863 H 0.95985 0.3698 0.77085 0.0
S864 S 0.85885 0.29515 0.802 0.0
N865 N 0.87958 0.28825 0.85907 0.0
N866 N 0.87469 0.32409 0.75285 0.0
C867 C 0.898 0.32982 0.7825 0.0
C868 C 0.90067 0.31019 0.83948 0.0
C869 C 0.66824 0.81235 0.273 0.0
C870 C 0.67329 0.79519 0.3302 0.0
C871 C 0.66678 0.78899 0.22058 0.0
C872 C 0.67102 0.74763 0.22273 0.0
H873 H 0.6669 0.84438 0.26771 0.0
H874 H 0.66397 0.80404 0.17722 0.0
S875 S 0.67965 0.68677 0.36209 0.0
N876 N 0.67777 0.73313 0.38752 0.0
N877 N 0.67683 0.68939 0.28685 0.0
C878 C 0.67385 0.72932 0.27976 0.0
C879 C 0.67476 0.75315 0.33401 0.0
C880 C 0.67847 0.76354 0.77209 0.0
C881 C 0.68147 0.78147 0.82966 0.0
C882 C 0.67677 0.7864 0.71947 0.0
C883 C 0.67869 0.82829 0.72153 0.0
H884 H 0.6783 0.73139 0.76707 0.0
H885 H 0.67489 0.77066 0.67626 0.0
S886 S 0.68369 0.89049 0.86121 0.0
N887 N 0.68335 0.84413 0.88676 0.0
N888 N 0.68172 0.88728 0.78583 0.0
C889 C 0.68046 0.84707 0.7787 0.0
C890 C 0.68169 0.82359 0.8332 0.0
C891 C 0.93055 0.22656 0.30104 0.0
C892 C 0.90758 0.21492 0.26974 0.0
C893 C 0.92907 0.25133 0.35266 0.0
C894 C 0.90456 0.26481 0.3746 0.0
H895 H 0.94979 0.22061 0.28137 0.0
H896 H 0.94727 0.26216 0.373 0.0
S897 S 0.83859 0.23638 0.3147 0.0
N898 N 0.85971 0.21374 0.2689 0.0
N899 N 0.85676 0.25997 0.36626 0.0
C900 C 0.88141 0.24941 0.34796 0.0
C901 C 0.88299 0.2243 0.29546 0.0
C902 C 0.67362 0.22113 0.15923 0.0
C903 C 0.66566 0.23845 0.21459 0.0
C904 C 0.67286 0.2432 0.1046 0.0
C905 C 0.66497 0.28363 0.10417 0.0
H906 H 0.68234 0.19174 0.15882 0.0
H907 H 0.67978 0.22897 0.0631 0.0
S908 S 0.63915 0.33989 0.2386 0.0
N909 N 0.64572 0.29515 0.26522 0.0
N910 N 0.64715 0.33829 0.16544 0.0
C911 C 0.65516 0.29988 0.1593 0.0
C912 C 0.65477 0.27677 0.21371 0.0
C913 C 0.91083 0.82223 0.63506 0.0
C914 C 0.91587 0.78083 0.63914 0.0
C915 C 0.91231 0.84717 0.68676 0.0
C916 C 0.91945 0.83157 0.74372 0.0
H917 H 0.90471 0.83527 0.59213 0.0
H918 H 0.90618 0.87793 0.68294 0.0
S919 S 0.93885 0.7275 0.77788 0.0
N920 N 0.93033 0.72675 0.70507 0.0
N921 N 0.93553 0.77424 0.79994 0.0
C922 C 0.92718 0.79143 0.74708 0.0
C923 C 0.92477 0.76583 0.69542 0.0
C924 C 0.38462 0.24897 0.12265 0.0
C925 C 0.40758 0.26459 0.09519 0.0
C926 C 0.38624 0.22455 0.17416 0.0
C927 C 0.41083 0.21496 0.19946 0.0
H928 H 0.36528 0.25847 0.10776 0.0
H929 H 0.36815 0.21706 0.19825 0.0
S930 S 0.47662 0.24073 0.13661 0.0
N931 N 0.45559 0.26259 0.08999 0.0
N932 N 0.45844 0.2174 0.18849 0.0
C933 C 0.43384 0.2263 0.16827 0.0
C934 C 0.43227 0.25119 0.11572 0.0
C935 C 0.16763 0.83712 0.66676 0.0
C936 C 0.19039 0.85027 0.69742 0.0
C937 C 0.16947 0.81046 0.61749 0.0
C938 C 0.19415 0.79644 0.59739 0.0
H939 H 0.14826 0.8442 0.68476 0.0
H940 H 0.15143 0.7992 0.59691 0.0
S941 S 0.25965 0.82604 0.65822 0.0
N942 N 0.23826 0.8503 0.70133 0.0
N943 N 0.24183 0.80098 0.6076 0.0
C944 C 0.21711 0.81225 0.62415 0.0
C945 C 0.21518 0.83907 0.67452 0.0
C946 C 0.42586 0.84107 0.78594 0.0
C947 C 0.40561 0.84046 0.7424 0.0
C948 C 0.42402 0.81696 0.83818 0.0
C949 C 0.40178 0.79224 0.84812 0.0
H950 H 0.44395 0.85759 0.77724 0.0
H951 H 0.44053 0.81628 0.86962 0.0
S952 S 0.34233 0.78408 0.75054 0.0
N953 N 0.3619 0.81593 0.71451 0.0
N954 N 0.3583 0.77144 0.81328 0.0
C955 C 0.38066 0.79383 0.80711 0.0
C956 C 0.38265 0.81777 0.75392 0.0
C957 C 0.17908 0.2993 0.20286 0.0
C958 C 0.17988 0.25732 0.20521 0.0
C959 C 0.1807 0.32242 0.25567 0.0
C960 C 0.18279 0.3046 0.31333 0.0
H961 H 0.17812 0.31483 0.15948 0.0
H962 H 0.18132 0.35457 0.25086 0.0
S963 S 0.18163 0.19575 0.34559 0.0
N964 N 0.18053 0.19864 0.27013 0.0
N965 N 0.18231 0.24224 0.37077 0.0
C966 C 0.18181 0.26253 0.317 0.0
C967 C 0.18052 0.23884 0.26263 0.0
loop_
_geom_bond_atom_site_label_1
_geom_bond_atom_site_label_2
_geom_bond_distance
_geom_bond_site_symmetry_2
_ccdc_geom_bond_type
C0 C1 1.351 . S
C0 N3 1.368 . S
C0 H5 0.931 . S
C1 C0 1.351 . S
C1 N2 1.373 . S
C1 H29 0.930 . S
N2 C1 1.373 . S
N2 C4 1.340 . S
N3 C0 1.368 . S
N3 C4 1.321 . S
N3 Co6 2.135 . S
C4 N2 1.340 . S
C4 N3 1.321 . S
C4 H28 0.930 . S
H5 C0 0.931 . S
Co6 N3 2.135 . S
Co6 N9 2.121 . S
Co6 O14 2.055 . S
Co6 O17 2.039 . S
Co6 N20 2.140 . S
C7 O8 1.227 . S
C7 O17 1.265 . S
O8 C7 1.227 . S
N9 Co6 2.121 . S
N9 C11 1.375 . S
N9 C12 1.313 . S
C10 C11 1.338 . S
C10 N13 1.377 . S
C10 H30 0.930 . S
C11 N9 1.375 . S
C11 C10 1.338 . S
C11 H15 0.931 . S
C12 N9 1.313 . S
C12 N13 1.344 . S
C12 H16 0.930 . S
N13 C10 1.377 . S
N13 C12 1.344 . S
O14 Co6 2.055 . S
O14 C18 1.253 . S
H15 C11 0.931 . S
H16 C12 0.930 . S
O17 Co6 2.039 . S
O17 C7 1.265 . S
C18 O14 1.253 . S
C18 O19 1.227 . S
O19 C18 1.227 . S
N20 Co6 2.140 . S
N20 C23 1.346 1_554 S
N20 C24 1.345 . S
C21 C22 1.387 . S
C21 C25 1.391 . S
C22 C21 1.387 . S
C22 C23 1.369 . S
C22 H31 0.929 . S
C23 N20 1.346 1_556 S
C23 C22 1.369 . S
C23 H26 0.928 . S
C24 N20 1.345 . S
C24 C25 1.371 1_554 S
C24 H27 0.931 . S
C25 C21 1.391 . S
C25 C24 1.371 1_556 S
C25 H32 0.930 . S
H26 C23 0.928 . S
H27 C24 0.931 . S
H28 C4 0.930 . S
H29 C1 0.930 . S
H30 C10 0.930 . S
H31 C22 0.929 . S
H32 C25 0.930 . S
C33 C34 1.351 . S
C33 N36 1.368 . S
C33 H38 0.931 . S
C34 C33 1.351 . S
C34 N35 1.373 . S
C34 H62 0.930 . S
N35 C34 1.373 . S
N35 C37 1.340 . S
N36 C33 1.368 . S
N36 C37 1.321 . S
N36 Co39 2.135 . S
C37 N35 1.340 . S
C37 N36 1.321 . S
C37 H61 0.930 . S
H38 C33 0.931 . S
Co39 N36 2.135 . S
Co39 N42 2.121 . S
Co39 O47 2.055 . S
Co39 O50 2.039 . S
Co39 N53 2.140 . S
C40 O41 1.227 . S
C40 O50 1.265 . S
O41 C40 1.227 . S
N42 Co39 2.121 . S
N42 C44 1.375 . S
N42 C45 1.313 . S
C43 C44 1.338 . S
C43 N46 1.377 . S
C43 H63 0.930 . S
C44 N42 1.375 . S
C44 C43 1.338 . S
C44 H48 0.931 . S
C45 N42 1.313 . S
C45 N46 1.344 . S
C45 H49 0.930 . S
N46 C43 1.377 . S
N46 C45 1.344 . S
O47 Co39 2.055 . S
O47 C51 1.253 . S
H48 C44 0.931 . S
H49 C45 0.930 . S
O50 Co39 2.039 . S
O50 C40 1.265 . S
C51 O47 1.253 . S
C51 O52 1.227 . S
O52 C51 1.227 . S
N53 Co39 2.140 . S
N53 C56 1.346 . S
N53 C57 1.345 . S
C54 C55 1.387 . S
C54 C58 1.391 . S
C55 C54 1.387 . S
C55 C56 1.369 . S
C55 H64 0.929 . S
C56 N53 1.346 . S
C56 C55 1.369 . S
C56 H59 0.928 . S
C57 N53 1.345 . S
C57 C58 1.371 . S
C57 H60 0.931 . S
C58 C54 1.391 . S
C58 C57 1.371 . S
C58 H65 0.930 . S
H59 C56 0.928 . S
H60 C57 0.931 . S
H61 C37 0.930 . S
H62 C34 0.930 . S
H63 C43 0.930 . S
H64 C55 0.929 . S
H65 C58 0.930 . S
C66 C67 1.351 . S
C66 N69 1.368 . S
C66 H71 0.931 . S
C67 C66 1.351 . S
C67 N68 1.373 . S
C67 H95 0.930 . S
N68 C67 1.373 . S
N68 C70 1.340 . S
N69 C66 1.368 . S
N69 C70 1.321 . S
N69 Co72 2.135 . S
C70 N68 1.340 . S
C70 N69 1.321 . S
C70 H94 0.930 . S
H71 C66 0.931 . S
Co72 N69 2.135 . S
Co72 N75 2.121 . S
Co72 O80 2.055 . S
Co72 O83 2.039 . S
Co72 N86 2.140 . S
C73 O74 1.227 . S
C73 O83 1.265 . S
O74 C73 1.227 . S
N75 Co72 2.121 . S
N75 C77 1.375 . S
N75 C78 1.313 . S
C76 C77 1.338 . S
C76 N79 1.377 . S
C76 H96 0.930 . S
C77 N75 1.375 . S
C77 C76 1.338 . S
C77 H81 0.931 . S
C78 N75 1.313 . S
C78 N79 1.344 . S
C78 H82 0.930 . S
N79 C76 1.377 . S
N79 C78 1.344 . S
O80 Co72 2.055 . S
O80 C84 1.253 . S
H81 C77 0.931 . S
H82 C78 0.930 . S
O83 Co72 2.039 . S
O83 C73 1.265 . S
C84 O80 1.253 . S
C84 O85 1.227 . S
O85 C84 1.227 . S
N86 Co72 2.140 . S
N86 C89 1.346 1_556 S
N86 C90 1.345 . S
C87 C88 1.387 . S
C87 C91 1.391 . S
C88 C87 1.387 . S
C88 C89 1.369 . S
C88 H97 0.929 . S
C89 N86 1.346 1_554 S
C89 C88 1.369 . S
C89 H92 0.928 . S
C90 N86 1.345 . S
C90 C91 1.371 1_556 S
C90 H93 0.931 . S
C91 C87 1.391 . S
C91 C90 1.371 1_554 S
C91 H98 0.930 . S
H92 C89 0.928 . S
H93 C90 0.931 . S
H94 C70 0.930 . S
H95 C67 0.930 . S
H96 C76 0.930 . S
H97 C88 0.929 . S
H98 C91 0.930 . S
C99 C100 1.351 . S
C99 N102 1.368 . S
C99 H104 0.931 . S
C100 C99 1.351 . S
C100 N101 1.373 . S
C100 H128 0.930 . S
N101 C100 1.373 . S
N101 C103 1.340 . S
N102 C99 1.368 . S
N102 C103 1.321 . S
N102 Co105 2.135 . S
C103 N101 1.340 . S
C103 N102 1.321 . S
C103 H127 0.930 . S
H104 C99 0.931 . S
Co105 N102 2.135 . S
Co105 N108 2.121 . S
Co105 O113 2.055 . S
Co105 O116 2.039 . S
Co105 N119 2.140 . S
C106 O107 1.227 . S
C106 O116 1.265 . S
O107 C106 1.227 . S
N108 Co105 2.121 . S
N108 C110 1.375 . S
N108 C111 1.313 . S
C109 C110 1.338 . S
C109 N112 1.377 . S
C109 H129 0.930 . S
C110 N108 1.375 . S
C110 C109 1.338 . S
C110 H114 0.931 . S
C111 N108 1.313 . S
C111 N112 1.344 . S
C111 H115 0.930 . S
N112 C109 1.377 . S
N112 C111 1.344 . S
O113 Co105 2.055 . S
O113 C117 1.253 . S
H114 C110 0.931 . S
H115 C111 0.930 . S
O116 Co105 2.039 . S
O116 C106 1.265 . S
C117 O113 1.253 . S
C117 O118 1.227 . S
O118 C117 1.227 . S
N119 Co105 2.140 . S
N119 C122 1.346 . S
N119 C123 1.345 . S
C120 C121 1.387 . S
C120 C124 1.391 . S
C121 C120 1.387 . S
C121 C122 1.369 . S
C121 H130 0.929 . S
C122 N119 1.346 . S
C122 C121 1.369 . S
C122 H125 0.928 . S
C123 N119 1.345 . S
C123 C124 1.371 . S
C123 H126 0.931 . S
C124 C120 1.391 . S
C124 C123 1.371 . S
C124 H131 0.930 . S
H125 C122 0.928 . S
H126 C123 0.931 . S
H127 C103 0.930 . S
H128 C100 0.930 . S
H129 C109 0.930 . S
H130 C121 0.929 . S
H131 C124 0.930 . S
C132 C133 1.351 . S
C132 N135 1.368 . S
C132 H137 0.931 . S
C133 C132 1.351 . S
C133 N134 1.373 . S
C133 H161 0.930 . S
N134 C133 1.373 . S
N134 C136 1.340 . S
N135 C132 1.368 . S
N135 C136 1.321 . S
N135 Co138 2.135 . S
C136 N134 1.340 . S
C136 N135 1.321 . S
C136 H160 0.930 . S
H137 C132 0.931 . S
Co138 N135 2.135 . S
Co138 N141 2.121 . S
Co138 O146 2.055 . S
Co138 O149 2.039 . S
Co138 N152 2.140 . S
C139 O140 1.227 . S
C139 O149 1.265 . S
O140 C139 1.227 . S
N141 Co138 2.121 . S
N141 C143 1.375 . S
N141 C144 1.313 . S
C142 C143 1.338 . S
C142 N145 1.377 . S
C142 H162 0.930 . S
C143 N141 1.375 . S
C143 C142 1.338 . S
C143 H147 0.931 . S
C144 N141 1.313 . S
C144 N145 1.344 . S
C144 H148 0.930 . S
N145 C142 1.377 . S
N145 C144 1.344 . S
O146 Co138 2.055 . S
O146 C150 1.253 . S
H147 C143 0.931 . S
H148 C144 0.930 . S
O149 Co138 2.039 . S
O149 C139 1.265 . S
C150 O146 1.253 . S
C150 O151 1.227 . S
O151 C150 1.227 . S
N152 Co138 2.140 . S
N152 C155 1.346 1_556 S
N152 C156 1.345 . S
C153 C154 1.387 . S
C153 C157 1.391 . S
C154 C153 1.387 . S
C154 C155 1.369 . S
C154 H163 0.929 . S
C155 N152 1.346 1_554 S
C155 C154 1.369 . S
C155 H158 0.928 . S
C156 N152 1.345 . S
C156 C157 1.371 1_556 S
C156 H159 0.931 . S
C157 C153 1.391 . S
C157 C156 1.371 1_554 S
C157 H164 0.930 . S
H158 C155 0.928 . S
H159 C156 0.931 . S
H160 C136 0.930 . S
H161 C133 0.930 . S
H162 C142 0.930 . S
H163 C154 0.929 . S
H164 C157 0.930 . S
C165 C166 1.351 . S
C165 N168 1.368 . S
C165 H170 0.931 . S
C166 C165 1.351 . S
C166 N167 1.373 . S
C166 H194 0.930 . S
N167 C166 1.373 . S
N167 C169 1.340 . S
N168 C165 1.368 . S
N168 C169 1.321 . S
N168 Co171 2.135 . S
C169 N167 1.340 . S
C169 N168 1.321 . S
C169 H193 0.930 . S
H170 C165 0.931 . S
Co171 N168 2.135 . S
Co171 N174 2.121 . S
Co171 O179 2.055 . S
Co171 O182 2.039 . S
Co171 N185 2.140 . S
C172 O173 1.227 . S
C172 O182 1.265 . S
O173 C172 1.227 . S
N174 Co171 2.121 . S
N174 C176 1.375 . S
N174 C177 1.313 . S
C175 C176 1.338 . S
C175 N178 1.377 . S
C175 H195 0.930 . S
C176 N174 1.375 . S
C176 C175 1.338 . S
C176 H180 0.931 . S
C177 N174 1.313 . S
C177 N178 1.344 . S
C177 H181 0.930 . S
N178 C175 1.377 . S
N178 C177 1.344 . S
O179 Co171 2.055 . S
O179 C183 1.253 . S
H180 C176 0.931 . S
H181 C177 0.930 . S
O182 Co171 2.039 . S
O182 C172 1.265 . S
C183 O179 1.253 . S
C183 O184 1.227 . S
O184 C183 1.227 . S
N185 Co171 2.140 . S
N185 C188 1.346 . S
N185 C189 1.345 . S
C186 C187 1.387 . S
C186 C190 1.391 . S
C187 C186 1.387 . S
C187 C188 1.369 . S
C187 H196 0.929 . S
C188 N185 1.346 . S
C188 C187 1.369 . S
C188 H191 0.928 . S
C189 N185 1.345 . S
C189 C190 1.371 . S
C189 H192 0.931 . S
C190 C186 1.391 . S
C190 C189 1.371 . S
C190 H197 0.930 . S
H191 C188 0.928 . S
H192 C189 0.931 . S
H193 C169 0.930 . S
H194 C166 0.930 . S
H195 C175 0.930 . S
H196 C187 0.929 . S
H197 C190 0.930 . S
C198 C199 1.351 . S
C198 N201 1.368 . S
C198 H203 0.931 . S
C199 C198 1.351 . S
C199 N200 1.373 . S
C199 H227 0.930 . S
N200 C199 1.373 . S
N200 C202 1.340 . S
N201 C198 1.368 . S
N201 C202 1.321 . S
N201 Co204 2.135 . S
C202 N200 1.340 . S
C202 N201 1.321 . S
C202 H226 0.930 . S
H203 C198 0.931 . S
Co204 N201 2.135 . S
Co204 N207 2.121 . S
Co204 O212 2.055 . S
Co204 O215 2.039 . S
Co204 N218 2.140 . S
C205 O206 1.227 . S
C205 O215 1.265 . S
O206 C205 1.227 . S
N207 Co204 2.121 . S
N207 C209 1.375 . S
N207 C210 1.313 . S
C208 C209 1.338 . S
C208 N211 1.377 . S
C208 H228 0.930 . S
C209 N207 1.375 . S
C209 C208 1.338 . S
C209 H213 0.931 . S
C210 N207 1.313 . S
C210 N211 1.344 . S
C210 H214 0.930 . S
N211 C208 1.377 . S
N211 C210 1.344 . S
O212 Co204 2.055 . S
O212 C216 1.253 . S
H213 C209 0.931 . S
H214 C210 0.930 . S
O215 Co204 2.039 . S
O215 C205 1.265 . S
C216 O212 1.253 . S
C216 O217 1.227 . S
O217 C216 1.227 . S
N218 Co204 2.140 . S
N218 C221 1.346 1_554 S
N218 C222 1.345 . S
C219 C220 1.387 . S
C219 C223 1.391 . S
C220 C219 1.387 . S
C220 C221 1.369 . S
C220 H229 0.929 . S
C221 N218 1.346 1_556 S
C221 C220 1.369 . S
C221 H224 0.928 . S
C222 N218 1.345 . S
C222 C223 1.371 1_554 S
C222 H225 0.931 . S
C223 C219 1.391 . S
C223 C222 1.371 1_556 S
C223 H230 0.930 . S
H224 C221 0.928 . S
H225 C222 0.931 . S
H226 C202 0.930 . S
H227 C199 0.930 . S
H228 C208 0.930 . S
H229 C220 0.929 . S
H230 C223 0.930 . S
C231 C232 1.351 . S
C231 N234 1.368 . S
C231 H236 0.931 . S
C232 C231 1.351 . S
C232 N233 1.373 . S
C232 H260 0.930 . S
N233 C232 1.373 . S
N233 C235 1.340 . S
N234 C231 1.368 . S
N234 C235 1.321 . S
N234 Co237 2.135 . S
C235 N233 1.340 . S
C235 N234 1.321 . S
C235 H259 0.930 . S
H236 C231 0.931 . S
Co237 N234 2.135 . S
Co237 N240 2.121 . S
Co237 O245 2.055 . S
Co237 O248 2.039 . S
Co237 N251 2.140 . S
C238 O239 1.227 . S
C238 O248 1.265 . S
O239 C238 1.227 . S
N240 Co237 2.121 . S
N240 C242 1.375 . S
N240 C243 1.313 . S
C241 C242 1.338 . S
C241 N244 1.377 . S
C241 H261 0.930 . S
C242 N240 1.375 . S
C242 C241 1.338 . S
C242 H246 0.931 . S
C243 N240 1.313 . S
C243 N244 1.344 . S
C243 H247 0.930 . S
N244 C241 1.377 . S
N244 C243 1.344 . S
O245 Co237 2.055 . S
O245 C249 1.253 . S
H246 C242 0.931 . S
H247 C243 0.930 . S
O248 Co237 2.039 . S
O248 C238 1.265 . S
C249 O245 1.253 . S
C249 O250 1.227 . S
O250 C249 1.227 . S
N251 Co237 2.140 . S
N251 C254 1.346 . S
N251 C255 1.345 . S
C252 C253 1.387 . S
C252 C256 1.391 . S
C253 C252 1.387 . S
C253 C254 1.369 . S
C253 H262 0.929 . S
C254 N251 1.346 . S
C254 C253 1.369 . S
C254 H257 0.928 . S
C255 N251 1.345 . S
C255 C256 1.371 . S
C255 H258 0.931 . S
C256 C252 1.391 . S
C256 C255 1.371 . S
C256 H263 0.930 . S
H257 C254 0.928 . S
H258 C255 0.931 . S
H259 C235 0.930 . S
H260 C232 0.930 . S
H261 C241 0.930 . S
H262 C253 0.929 . S
H263 C256 0.930 . S
C264 C265 1.351 . S
C264 N267 1.368 . S
C264 H269 0.931 . S
C265 C264 1.351 . S
C265 N266 1.373 . S
C265 H293 0.930 . S
N266 C265 1.373 . S
N266 C268 1.340 . S
N267 C264 1.368 . S
N267 C268 1.321 . S
N267 Co270 2.135 . S
C268 N266 1.340 . S
C268 N267 1.321 . S
C268 H292 0.930 . S
H269 C264 0.931 . S
Co270 N267 2.135 . S
Co270 N273 2.121 . S
Co270 O278 2.055 . S
Co270 O281 2.039 . S
Co270 N284 2.140 . S
C271 O272 1.227 . S
C271 O281 1.265 . S
O272 C271 1.227 . S
N273 Co270 2.121 . S
N273 C275 1.375 . S
N273 C276 1.313 . S
C274 C275 1.338 . S
C274 N277 1.377 . S
C274 H294 0.930 . S
C275 N273 1.375 . S
C275 C274 1.338 . S
C275 H279 0.931 . S
C276 N273 1.313 . S
C276 N277 1.344 . S
C276 H280 0.930 . S
N277 C274 1.377 . S
N277 C276 1.344 . S
O278 Co270 2.055 . S
O278 C282 1.253 . S
H279 C275 0.931 . S
H280 C276 0.930 . S
O281 Co270 2.039 . S
O281 C271 1.265 . S
C282 O278 1.253 . S
C282 O283 1.227 . S
O283 C282 1.227 . S
N284 Co270 2.140 . S
N284 C287 1.346 1_554 S
N284 C288 1.345 . S
C285 C286 1.387 . S
C285 C289 1.391 . S
C286 C285 1.387 . S
C286 C287 1.369 . S
C286 H295 0.929 . S
C287 N284 1.346 1_556 S
C287 C286 1.369 . S
C287 H290 0.928 . S
C288 N284 1.345 . S
C288 C289 1.371 1_554 S
C288 H291 0.931 . S
C289 C285 1.391 . S
C289 C288 1.371 1_556 S
C289 H296 0.930 . S
H290 C287 0.928 . S
H291 C288 0.931 . S
H292 C268 0.930 . S
H293 C265 0.930 . S
H294 C274 0.930 . S
H295 C286 0.929 . S
H296 C289 0.930 . S
C297 C298 1.351 . S
C297 N300 1.368 . S
C297 H302 0.931 . S
C298 C297 1.351 . S
C298 N299 1.373 . S
C298 H326 0.930 . S
N299 C298 1.373 . S
N299 C301 1.340 . S
N300 C297 1.368 . S
N300 C301 1.321 . S
N300 Co303 2.135 . S
C301 N299 1.340 . S
C301 N300 1.321 . S
C301 H325 0.930 . S
H302 C297 0.931 . S
Co303 N300 2.135 . S
Co303 N306 2.121 . S
Co303 O311 2.055 . S
Co303 O314 2.039 . S
Co303 N317 2.140 . S
C304 O305 1.227 . S
C304 O314 1.265 . S
O305 C304 1.227 . S
N306 Co303 2.121 . S
N306 C308 1.375 . S
N306 C309 1.313 . S
C307 C308 1.338 . S
C307 N310 1.377 . S
C307 H327 0.930 . S
C308 N306 1.375 . S
C308 C307 1.338 . S
C308 H312 0.931 . S
C309 N306 1.313 . S
C309 N310 1.344 . S
C309 H313 0.930 . S
N310 C307 1.377 . S
N310 C309 1.344 . S
O311 Co303 2.055 . S
O311 C315 1.253 . S
H312 C308 0.931 . S
H313 C309 0.930 . S
O314 Co303 2.039 . S
O314 C304 1.265 . S
C315 O311 1.253 . S
C315 O316 1.227 . S
O316 C315 1.227 . S
N317 Co303 2.140 . S
N317 C320 1.346 . S
N317 C321 1.345 . S
C318 C319 1.387 . S
C318 C322 1.391 . S
C319 C318 1.387 . S
C319 C320 1.369 . S
C319 H328 0.929 . S
C320 N317 1.346 . S
C320 C319 1.369 . S
C320 H323 0.928 . S
C321 N317 1.345 . S
C321 C322 1.371 . S
C321 H324 0.931 . S
C322 C318 1.391 . S
C322 C321 1.371 . S
C322 H329 0.930 . S
H323 C320 0.928 . S
H324 C321 0.931 . S
H325 C301 0.930 . S
H326 C298 0.930 . S
H327 C307 0.930 . S
H328 C319 0.929 . S
H329 C322 0.930 . S
C330 C331 1.351 . S
C330 N333 1.368 . S
C330 H335 0.931 . S
C331 C330 1.351 . S
C331 N332 1.373 . S
C331 H359 0.930 . S
N332 C331 1.373 . S
N332 C334 1.340 . S
N333 C330 1.368 . S
N333 C334 1.321 . S
N333 Co336 2.135 . S
C334 N332 1.340 . S
C334 N333 1.321 . S
C334 H358 0.930 . S
H335 C330 0.931 . S
Co336 N333 2.135 . S
Co336 N339 2.121 . S
Co336 O344 2.055 . S
Co336 O347 2.039 . S
Co336 N350 2.140 . S
C337 O338 1.227 . S
C337 O347 1.265 . S
O338 C337 1.227 . S
N339 Co336 2.121 . S
N339 C341 1.375 . S
N339 C342 1.313 . S
C340 C341 1.338 . S
C340 N343 1.377 . S
C340 H360 0.930 . S
C341 N339 1.375 . S
C341 C340 1.338 . S
C341 H345 0.931 . S
C342 N339 1.313 . S
C342 N343 1.344 . S
C342 H346 0.930 . S
N343 C340 1.377 . S
N343 C342 1.344 . S
O344 Co336 2.055 . S
O344 C348 1.253 . S
H345 C341 0.931 . S
H346 C342 0.930 . S
O347 Co336 2.039 . S
O347 C337 1.265 . S
C348 O344 1.253 . S
C348 O349 1.227 . S
O349 C348 1.227 . S
N350 Co336 2.140 . S
N350 C353 1.346 1_556 S
N350 C354 1.345 . S
C351 C352 1.387 . S
C351 C355 1.391 . S
C352 C351 1.387 . S
C352 C353 1.369 . S
C352 H361 0.929 . S
C353 N350 1.346 1_554 S
C353 C352 1.369 . S
C353 H356 0.928 . S
C354 N350 1.345 . S
C354 C355 1.371 1_556 S
C354 H357 0.931 . S
C355 C351 1.391 . S
C355 C354 1.371 1_554 S
C355 H362 0.930 . S
H356 C353 0.928 . S
H357 C354 0.931 . S
H358 C334 0.930 . S
H359 C331 0.930 . S
H360 C340 0.930 . S
H361 C352 0.929 . S
H362 C355 0.930 . S
C363 C364 1.351 . S
C363 N366 1.368 . S
C363 H368 0.931 . S
C364 C363 1.351 . S
C364 N365 1.373 . S
C364 H392 0.930 . S
N365 C364 1.373 . S
N365 C367 1.340 . S
N366 C363 1.368 . S
N366 C367 1.321 . S
N366 Co369 2.135 . S
C367 N365 1.340 . S
C367 N366 1.321 . S
C367 H391 0.930 . S
H368 C363 0.931 . S
Co369 N366 2.135 . S
Co369 N372 2.121 . S
Co369 O377 2.055 . S
Co369 O380 2.039 . S
Co369 N383 2.140 . S
C370 O371 1.227 . S
C370 O380 1.265 . S
O371 C370 1.227 . S
N372 Co369 2.121 . S
N372 C374 1.375 . S
N372 C375 1.313 . S
C373 C374 1.338 . S
C373 N376 1.377 . S
C373 H393 0.930 . S
C374 N372 1.375 . S
C374 C373 1.338 . S
C374 H378 0.931 . S
C375 N372 1.313 . S
C375 N376 1.344 . S
C375 H379 0.930 . S
N376 C373 1.377 . S
N376 C375 1.344 . S
O377 Co369 2.055 . S
O377 C381 1.253 . S
H378 C374 0.931 . S
H379 C375 0.930 . S
O380 Co369 2.039 . S
O380 C370 1.265 . S
C381 O377 1.253 . S
C381 O382 1.227 . S
O382 C381 1.227 . S
N383 Co369 2.140 . S
N383 C386 1.346 . S
N383 C387 1.345 . S
C384 C385 1.387 . S
C384 C388 1.391 . S
C385 C384 1.387 . S
C385 C386 1.369 . S
C385 H394 0.929 . S
C386 N383 1.346 . S
C386 C385 1.369 . S
C386 H389 0.928 . S
C387 N383 1.345 . S
C387 C388 1.371 . S
C387 H390 0.931 . S
C388 C384 1.391 . S
C388 C387 1.371 . S
C388 H395 0.930 . S
H389 C386 0.928 . S
H390 C387 0.931 . S
H391 C367 0.930 . S
H392 C364 0.930 . S
H393 C373 0.930 . S
H394 C385 0.929 . S
H395 C388 0.930 . S
C396 C397 1.351 . S
C396 N399 1.368 . S
C396 H401 0.931 . S
C397 C396 1.351 . S
C397 N398 1.373 . S
C397 H425 0.930 . S
N398 C397 1.373 . S
N398 C400 1.340 . S
N399 C396 1.368 . S
N399 C400 1.321 . S
N399 Co402 2.135 . S
C400 N398 1.340 . S
C400 N399 1.321 . S
C400 H424 0.930 . S
H401 C396 0.931 . S
Co402 N399 2.135 . S
Co402 N405 2.121 . S
Co402 O410 2.055 . S
Co402 O413 2.039 . S
Co402 N416 2.140 . S
C403 O404 1.227 . S
C403 O413 1.265 . S
O404 C403 1.227 . S
N405 Co402 2.121 . S
N405 C407 1.375 . S
N405 C408 1.313 . S
C406 C407 1.338 . S
C406 N409 1.377 . S
C406 H426 0.930 . S
C407 N405 1.375 . S
C407 C406 1.338 . S
C407 H411 0.931 . S
C408 N405 1.313 . S
C408 N409 1.344 . S
C408 H412 0.930 . S
N409 C406 1.377 . S
N409 C408 1.344 . S
O410 Co402 2.055 . S
O410 C414 1.253 . S
H411 C407 0.931 . S
H412 C408 0.930 . S
O413 Co402 2.039 . S
O413 C403 1.265 . S
C414 O410 1.253 . S
C414 O415 1.227 . S
O415 C414 1.227 . S
N416 Co402 2.140 . S
N416 C419 1.346 1_556 S
N416 C420 1.345 . S
C417 C418 1.387 . S
C417 C421 1.391 . S
C418 C417 1.387 . S
C418 C419 1.369 . S
C418 H427 0.929 . S
C419 N416 1.346 1_554 S
C419 C418 1.369 . S
C419 H422 0.928 . S
C420 N416 1.345 . S
C420 C421 1.371 1_556 S
C420 H423 0.931 . S
C421 C417 1.391 . S
C421 C420 1.371 1_554 S
C421 H428 0.930 . S
H422 C419 0.928 . S
H423 C420 0.931 . S
H424 C400 0.930 . S
H425 C397 0.930 . S
H426 C406 0.930 . S
H427 C418 0.929 . S
H428 C421 0.930 . S
C429 C430 1.351 . S
C429 N432 1.368 . S
C429 H434 0.931 . S
C430 C429 1.351 . S
C430 N431 1.373 . S
C430 H458 0.930 . S
N431 C430 1.373 . S
N431 C433 1.340 . S
N432 C429 1.368 . S
N432 C433 1.321 . S
N432 Co435 2.135 . S
C433 N431 1.340 . S
C433 N432 1.321 . S
C433 H457 0.930 . S
H434 C429 0.931 . S
Co435 N432 2.135 . S
Co435 N438 2.121 . S
Co435 O443 2.055 . S
Co435 O446 2.039 . S
Co435 N449 2.140 . S
C436 O437 1.227 . S
C436 O446 1.265 . S
O437 C436 1.227 . S
N438 Co435 2.121 . S
N438 C440 1.375 . S
N438 C441 1.313 . S
C439 C440 1.338 . S
C439 N442 1.377 . S
C439 H459 0.930 . S
C440 N438 1.375 . S
C440 C439 1.338 . S
C440 H444 0.931 . S
C441 N438 1.313 . S
C441 N442 1.344 . S
C441 H445 0.930 . S
N442 C439 1.377 . S
N442 C441 1.344 . S
O443 Co435 2.055 . S
O443 C447 1.253 . S
H444 C440 0.931 . S
H445 C441 0.930 . S
O446 Co435 2.039 . S
O446 C436 1.265 . S
C447 O443 1.253 . S
C447 O448 1.227 . S
O448 C447 1.227 . S
N449 Co435 2.140 . S
N449 C452 1.346 . S
N449 C453 1.345 . S
C450 C451 1.387 . S
C450 C454 1.391 . S
C451 C450 1.387 . S
C451 C452 1.369 . S
C451 H460 0.929 . S
C452 N449 1.346 . S
C452 C451 1.369 . S
C452 H455 0.928 . S
C453 N449 1.345 . S
C453 C454 1.371 . S
C453 H456 0.931 . S
C454 C450 1.391 . S
C454 C453 1.371 . S
C454 H461 0.930 . S
H455 C452 0.928 . S
H456 C453 0.931 . S
H457 C433 0.930 . S
H458 C430 0.930 . S
H459 C439 0.930 . S
H460 C451 0.929 . S
H461 C454 0.930 . S
C462 C463 1.351 . S
C462 N465 1.368 . S
C462 H467 0.931 . S
C463 C462 1.351 . S
C463 N464 1.373 . S
C463 H491 0.930 . S
N464 C463 1.373 . S
N464 C466 1.340 . S
N465 C462 1.368 . S
N465 C466 1.321 . S
N465 Co468 2.135 . S
C466 N464 1.340 . S
C466 N465 1.321 . S
C466 H490 0.930 . S
H467 C462 0.931 . S
Co468 N465 2.135 . S
Co468 N471 2.121 . S
Co468 O476 2.055 . S
Co468 O479 2.039 . S
Co468 N482 2.140 . S
C469 O470 1.227 . S
C469 O479 1.265 . S
O470 C469 1.227 . S
N471 Co468 2.121 . S
N471 C473 1.375 . S
N471 C474 1.313 . S
C472 C473 1.338 . S
C472 N475 1.377 . S
C472 H492 0.930 . S
C473 N471 1.375 . S
C473 C472 1.338 . S
C473 H477 0.931 . S
C474 N471 1.313 . S
C474 N475 1.344 . S
C474 H478 0.930 . S
N475 C472 1.377 . S
N475 C474 1.344 . S
O476 Co468 2.055 . S
O476 C480 1.253 . S
H477 C473 0.931 . S
H478 C474 0.930 . S
O479 Co468 2.039 . S
O479 C469 1.265 . S
C480 O476 1.253 . S
C480 O481 1.227 . S
O481 C480 1.227 . S
N482 Co468 2.140 . S
N482 C485 1.346 1_554 S
N482 C486 1.345 . S
C483 C484 1.387 . S
C483 C487 1.391 . S
C484 C483 1.387 . S
C484 C485 1.369 . S
C484 H493 0.929 . S
C485 N482 1.346 1_556 S
C485 C484 1.369 . S
C485 H488 0.928 . S
C486 N482 1.345 . S
C486 C487 1.371 1_554 S
C486 H489 0.931 . S
C487 C483 1.391 . S
C487 C486 1.371 1_556 S
C487 H494 0.930 . S
H488 C485 0.928 . S
H489 C486 0.931 . S
H490 C466 0.930 . S
H491 C463 0.930 . S
H492 C472 0.930 . S
H493 C484 0.929 . S
H494 C487 0.930 . S
C495 C496 1.351 . S
C495 N498 1.368 . S
C495 H500 0.931 . S
C496 C495 1.351 . S
C496 N497 1.373 . S
C496 H524 0.930 . S
N497 C496 1.373 . S
N497 C499 1.340 . S
N498 C495 1.368 . S
N498 C499 1.321 . S
N498 Co501 2.135 . S
C499 N497 1.340 . S
C499 N498 1.321 . S
C499 H523 0.930 . S
H500 C495 0.931 . S
Co501 N498 2.135 . S
Co501 N504 2.121 . S
Co501 O509 2.055 . S
Co501 O512 2.039 . S
Co501 N515 2.140 . S
C502 O503 1.227 . S
C502 O512 1.265 . S
O503 C502 1.227 . S
N504 Co501 2.121 . S
N504 C506 1.375 . S
N504 C507 1.313 . S
C505 C506 1.338 . S
C505 N508 1.377 . S
C505 H525 0.930 . S
C506 N504 1.375 . S
C506 C505 1.338 . S
C506 H510 0.931 . S
C507 N504 1.313 . S
C507 N508 1.344 . S
C507 H511 0.930 . S
N508 C505 1.377 . S
N508 C507 1.344 . S
O509 Co501 2.055 . S
O509 C513 1.253 . S
H510 C506 0.931 . S
H511 C507 0.930 . S
O512 Co501 2.039 . S
O512 C502 1.265 . S
C513 O509 1.253 . S
C513 O514 1.227 . S
O514 C513 1.227 . S
N515 Co501 2.140 . S
N515 C518 1.346 . S
N515 C519 1.345 . S
C516 C517 1.387 . S
C516 C520 1.391 . S
C517 C516 1.387 . S
C517 C518 1.369 . S
C517 H526 0.929 . S
C518 N515 1.346 . S
C518 C517 1.369 . S
C518 H521 0.928 . S
C519 N515 1.345 . S
C519 C520 1.371 . S
C519 H522 0.931 . S
C520 C516 1.391 . S
C520 C519 1.371 . S
C520 H527 0.930 . S
H521 C518 0.928 . S
H522 C519 0.931 . S
H523 C499 0.930 . S
H524 C496 0.930 . S
H525 C505 0.930 . S
H526 C517 0.929 . S
H527 C520 0.930 . S
C528 C529 1.369 . S
C528 C530 1.419 . S
C528 H532 0.930 . S
C529 C528 1.369 . S
C529 C538 1.429 . S
C530 C528 1.419 . S
C530 C531 1.363 . S
C530 H533 0.929 . S
C531 C530 1.363 . S
C531 C537 1.428 . S
H532 C528 0.930 . S
H533 C530 0.929 . S
S534 N535 1.613 . S
S534 N536 1.610 . S
N535 S534 1.613 . S
N535 C538 1.350 . S
N536 S534 1.610 . S
N536 C537 1.351 . S
C537 C531 1.428 . S
C537 N536 1.351 . S
C537 C538 1.434 . S
C538 C529 1.429 . S
C538 N535 1.350 . S
C538 C537 1.434 . S
C539 C540 1.369 . S
C539 C541 1.419 . S
C539 H543 0.930 . S
C540 C539 1.369 . S
C540 C549 1.429 . S
C541 C539 1.419 . S
C541 C542 1.363 . S
C541 H544 0.929 . S
C542 C541 1.363 . S
C542 C548 1.428 . S
H543 C539 0.930 . S
H544 C541 0.929 . S
S545 N546 1.613 . S
S545 N547 1.610 . S
N546 S545 1.613 . S
N546 C549 1.350 . S
N547 S545 1.610 . S
N547 C548 1.351 . S
C548 C542 1.428 . S
C548 N547 1.351 . S
C548 C549 1.434 . S
C549 C540 1.429 . S
C549 N546 1.350 . S
C549 C548 1.434 . S
C550 C551 1.369 . S
C550 C552 1.419 . S
C550 H554 0.930 . S
C551 C550 1.369 . S
C551 C560 1.429 . S
C552 C550 1.419 . S
C552 C553 1.363 . S
C552 H555 0.929 . S
C553 C552 1.363 . S
C553 C559 1.428 . S
H554 C550 0.930 . S
H555 C552 0.929 . S
S556 N557 1.613 . S
S556 N558 1.610 . S
N557 S556 1.613 . S
N557 C560 1.350 . S
N558 S556 1.610 . S
N558 C559 1.351 . S
C559 C553 1.428 . S
C559 N558 1.351 . S
C559 C560 1.434 . S
C560 C551 1.429 . S
C560 N557 1.350 . S
C560 C559 1.434 . S
C561 C562 1.369 . S
C561 C563 1.419 . S
C561 H565 0.930 . S
C562 C561 1.369 . S
C562 C571 1.429 . S
C563 C561 1.419 . S
C563 C564 1.363 . S
C563 H566 0.929 . S
C564 C563 1.363 . S
C564 C570 1.428 . S
H565 C561 0.930 . S
H566 C563 0.929 . S
S567 N568 1.613 . S
S567 N569 1.610 . S
N568 S567 1.613 . S
N568 C571 1.350 . S
N569 S567 1.610 . S
N569 C570 1.351 . S
C570 C564 1.428 . S
C570 N569 1.351 . S
C570 C571 1.434 . S
C571 C562 1.429 . S
C571 N568 1.350 . S
C571 C570 1.434 . S
C572 C573 1.369 . S
C572 C574 1.419 . S
C572 H576 0.930 . S
C573 C572 1.369 . S
C573 C582 1.429 . S
C574 C572 1.419 . S
C574 C575 1.363 . S
C574 H577 0.929 . S
C575 C574 1.363 . S
C575 C581 1.428 . S
H576 C572 0.930 . S
H577 C574 0.929 . S
S578 N579 1.613 . S
S578 N580 1.610 . S
N579 S578 1.613 . S
N579 C582 1.350 . S
N580 S578 1.610 . S
N580 C581 1.351 . S
C581 C575 1.428 . S
C581 N580 1.351 . S
C581 C582 1.434 . S
C582 C573 1.429 . S
C582 N579 1.350 . S
C582 C581 1.434 . S
C583 C584 1.369 . S
C583 C585 1.419 . S
C583 H587 0.930 . S
C584 C583 1.369 . S
C584 C593 1.429 . S
C585 C583 1.419 . S
C585 C586 1.363 . S
C585 H588 0.929 . S
C586 C585 1.363 . S
C586 C592 1.428 . S
H587 C583 0.930 . S
H588 C585 0.929 . S
S589 N590 1.613 . S
S589 N591 1.610 . S
N590 S589 1.613 . S
N590 C593 1.350 . S
N591 S589 1.610 . S
N591 C592 1.351 . S
C592 C586 1.428 . S
C592 N591 1.351 . S
C592 C593 1.434 . S
C593 C584 1.429 . S
C593 N590 1.350 . S
C593 C592 1.434 . S
C594 C595 1.369 . S
C594 C596 1.419 . S
C594 H598 0.930 . S
C595 C594 1.369 . S
C595 C604 1.429 . S
C596 C594 1.419 . S
C596 C597 1.363 . S
C596 H599 0.929 . S
C597 C596 1.363 . S
C597 C603 1.428 . S
H598 C594 0.930 . S
H599 C596 0.929 . S
S600 N601 1.613 . S
S600 N602 1.610 . S
N601 S600 1.613 . S
N601 C604 1.350 . S
N602 S600 1.610 . S
N602 C603 1.351 . S
C603 C597 1.428 . S
C603 N602 1.351 . S
C603 C604 1.434 . S
C604 C595 1.429 . S
C604 N601 1.350 . S
C604 C603 1.434 . S
C605 C606 1.369 . S
C605 C607 1.419 . S
C605 H609 0.930 . S
C606 C605 1.369 . S
C606 C615 1.429 . S
C607 C605 1.419 . S
C607 C608 1.363 . S
C607 H610 0.929 . S
C608 C607 1.363 . S
C608 C614 1.428 . S
H609 C605 0.930 . S
H610 C607 0.929 . S
S611 N612 1.613 . S
S611 N613 1.610 . S
N612 S611 1.613 . S
N612 C615 1.350 . S
N613 S611 1.610 . S
N613 C614 1.351 . S
C614 C608 1.428 . S
C614 N613 1.351 . S
C614 C615 1.434 . S
C615 C606 1.429 . S
C615 N612 1.350 . S
C615 C614 1.434 . S
C616 C617 1.369 . S
C616 C618 1.419 1_655 S
C616 H620 0.930 . S
C617 C616 1.369 . S
C617 C626 1.429 . S
C618 C616 1.419 1_455 S
C618 C619 1.363 . S
C618 H621 0.929 . S
C619 C618 1.363 . S
C619 C625 1.428 . S
H620 C616 0.930 . S
H621 C618 0.929 . S
S622 N623 1.617 1_456 S
S622 N624 1.607 1_556 S
N623 S622 1.617 1_654 S
N623 C626 1.350 . S
N624 S622 1.607 1_554 S
N624 C625 1.351 . S
C625 C619 1.428 . S
C625 N624 1.351 . S
C625 C626 1.434 1_455 S
C626 C617 1.429 . S
C626 N623 1.350 . S
C626 C625 1.434 1_655 S
C627 C628 1.369 . S
C627 C629 1.419 . S
C627 H631 0.930 . S
C628 C627 1.369 . S
C628 C637 1.429 . S
C629 C627 1.419 . S
C629 C630 1.363 . S
C629 H632 0.929 . S
C630 C629 1.363 . S
C630 C636 1.428 . S
H631 C627 0.930 . S
H632 C629 0.929 . S
S633 N634 1.613 . S
S633 N635 1.610 . S
N634 S633 1.613 . S
N634 C637 1.350 . S
N635 S633 1.610 . S
N635 C636 1.351 . S
C636 C630 1.428 . S
C636 N635 1.351 . S
C636 C637 1.434 . S
C637 C628 1.429 . S
C637 N634 1.350 . S
C637 C636 1.434 . S
C638 C639 1.369 . S
C638 C640 1.419 1_655 S
C638 H642 0.930 . S
C639 C638 1.369 . S
C639 C648 1.429 . S
C640 C638 1.419 1_455 S
C640 C641 1.363 . S
C640 H643 0.929 . S
C641 C640 1.363 . S
C641 C647 1.428 . S
H642 C638 0.930 . S
H643 C640 0.929 . S
S644 N645 1.617 1_455 S
S644 N646 1.607 . S
N645 S644 1.617 1_655 S
N645 C648 1.350 1_554 S
N646 S644 1.607 . S
N646 C647 1.351 1_554 S
C647 C641 1.428 . S
C647 N646 1.351 1_556 S
C647 C648 1.434 1_455 S
C648 C639 1.429 . S
C648 N645 1.350 1_556 S
C648 C647 1.434 1_655 S
C649 C650 1.369 . S
C649 C651 1.419 . S
C649 H653 0.930 . S
C650 C649 1.369 . S
C650 C659 1.429 . S
C651 C649 1.419 . S
C651 C652 1.363 . S
C651 H654 0.929 . S
C652 C651 1.363 . S
C652 C658 1.428 . S
H653 C649 0.930 . S
H654 C651 0.929 . S
S655 N656 1.613 . S
S655 N657 1.610 . S
N656 S655 1.613 . S
N656 C659 1.350 . S
N657 S655 1.610 . S
N657 C658 1.351 . S
C658 C652 1.428 . S
C658 N657 1.351 . S
C658 C659 1.434 . S
C659 C650 1.429 . S
C659 N656 1.350 . S
C659 C658 1.434 . S
C660 C661 1.369 . S
C660 C662 1.419 . S
C660 H664 0.930 . S
C661 C660 1.369 . S
C661 C670 1.429 . S
C662 C660 1.419 . S
C662 C663 1.363 . S
C662 H665 0.929 . S
C663 C662 1.363 . S
C663 C669 1.428 . S
H664 C660 0.930 . S
H665 C662 0.929 . S
S666 N667 1.613 . S
S666 N668 1.610 . S
N667 S666 1.613 . S
N667 C670 1.350 . S
N668 S666 1.610 . S
N668 C669 1.351 . S
C669 C663 1.428 . S
C669 N668 1.351 . S
C669 C670 1.434 . S
C670 C661 1.429 . S
C670 N667 1.350 . S
C670 C669 1.434 . S
C671 C672 1.369 . S
C671 C673 1.419 1_455 S
C671 H675 0.930 . S
C672 C671 1.369 . S
C672 C681 1.429 . S
C673 C671 1.419 1_655 S
C673 C674 1.363 . S
C673 H676 0.929 . S
C674 C673 1.363 . S
C674 C680 1.428 . S
H675 C671 0.930 . S
H676 C673 0.929 . S
S677 N678 1.617 1_655 S
S677 N679 1.607 . S
N678 S677 1.617 1_455 S
N678 C681 1.350 . S
N679 S677 1.607 . S
N679 C680 1.351 . S
C680 C674 1.428 . S
C680 N679 1.351 . S
C680 C681 1.434 1_655 S
C681 C672 1.429 . S
C681 N678 1.350 . S
C681 C680 1.434 1_455 S
C682 C683 1.369 . S
C682 C684 1.419 . S
C682 H686 0.930 . S
C683 C682 1.369 . S
C683 C692 1.429 . S
C684 C682 1.419 . S
C684 C685 1.363 . S
C684 H687 0.929 . S
C685 C684 1.363 . S
C685 C691 1.428 . S
H686 C682 0.930 . S
H687 C684 0.929 . S
S688 N689 1.613 . S
S688 N690 1.610 . S
N689 S688 1.613 . S
N689 C692 1.350 . S
N690 S688 1.610 . S
N690 C691 1.351 . S
C691 C685 1.428 . S
C691 N690 1.351 . S
C691 C692 1.434 . S
C692 C683 1.429 . S
C692 N689 1.350 . S
C692 C691 1.434 . S
C693 C694 1.369 . S
C693 C695 1.419 1_655 S
C693 H697 0.930 . S
C694 C693 1.369 . S
C694 C703 1.429 . S
C695 C693 1.419 1_455 S
C695 C696 1.363 . S
C695 H698 0.929 . S
C696 C695 1.363 . S
C696 C702 1.428 . S
H697 C693 0.930 . S
H698 C695 0.929 . S
S699 N700 1.617 1_455 S
S699 N701 1.607 . S
N700 S699 1.617 1_655 S
N700 C703 1.350 . S
N701 S699 1.607 . S
N701 C702 1.351 . S
C702 C696 1.428 . S
C702 N701 1.351 . S
C702 C703 1.434 1_455 S
C703 C694 1.429 . S
C703 N700 1.350 . S
C703 C702 1.434 1_655 S
C704 C705 1.369 1_556 S
C704 C706 1.419 . S
C704 H708 0.930 . S
C705 C704 1.369 1_554 S
C705 C714 1.429 1_545 S
C706 C704 1.419 . S
C706 C707 1.363 1_545 S
C706 H709 0.929 . S
C707 C706 1.363 1_565 S
C707 C713 1.428 1_556 S
H708 C704 0.930 . S
H709 C706 0.929 . S
S710 N711 1.613 . S
S710 N712 1.610 . S
N711 S710 1.613 . S
N711 C714 1.350 . S
N712 S710 1.610 . S
N712 C713 1.351 . S
C713 C707 1.428 1_554 S
C713 N712 1.351 . S
C713 C714 1.434 . S
C714 C705 1.429 1_565 S
C714 N711 1.350 . S
C714 C713 1.434 . S
C715 C716 1.369 . S
C715 C717 1.419 1_565 S
C715 H719 0.930 . S
C716 C715 1.369 . S
C716 C725 1.429 . S
C717 C715 1.419 1_545 S
C717 C718 1.363 . S
C717 H720 0.929 . S
C718 C717 1.363 . S
C718 C724 1.428 . S
H719 C715 0.930 . S
H720 C717 0.929 . S
S721 N722 1.613 . S
S721 N723 1.610 1_565 S
N722 S721 1.613 . S
N722 C725 1.350 . S
N723 S721 1.610 1_545 S
N723 C724 1.351 . S
C724 C718 1.428 . S
C724 N723 1.351 . S
C724 C725 1.434 1_545 S
C725 C716 1.429 . S
C725 N722 1.350 . S
C725 C724 1.434 1_565 S
C726 C727 1.369 1_554 S
C726 C728 1.419 1_565 S
C726 H730 0.930 . S
C727 C726 1.369 1_556 S
C727 C736 1.429 . S
C728 C726 1.419 1_545 S
C728 C729 1.363 . S
C728 H731 0.929 . S
C729 C728 1.363 . S
C729 C735 1.428 1_554 S
H730 C726 0.930 . S
H731 C728 0.929 . S
S732 N733 1.613 1_545 S
S732 N734 1.610 . S
N733 S732 1.613 1_565 S
N733 C736 1.350 . S
N734 S732 1.610 . S
N734 C735 1.351 . S
C735 C729 1.428 1_556 S
C735 N734 1.351 . S
C735 C736 1.434 1_545 S
C736 C727 1.429 . S
C736 N733 1.350 . S
C736 C735 1.434 1_565 S
C737 C738 1.369 . S
C737 C739 1.419 1_545 S
C737 H741 0.930 . S
C738 C737 1.369 . S
C738 C747 1.429 . S
C739 C737 1.419 1_565 S
C739 C740 1.363 . S
C739 H742 0.929 . S
C740 C739 1.363 . S
C740 C746 1.428 . S
H741 C737 0.930 . S
H742 C739 0.929 . S
S743 N744 1.613 . S
S743 N745 1.610 1_545 S
N744 S743 1.613 . S
N744 C747 1.350 . S
N745 S743 1.610 1_565 S
N745 C746 1.351 . S
C746 C740 1.428 . S
C746 N745 1.351 . S
C746 C747 1.434 1_565 S
C747 C738 1.429 . S
C747 N744 1.350 . S
C747 C746 1.434 1_545 S
C748 C749 1.369 1_556 S
C748 C750 1.419 . S
C748 H752 0.930 . S
C749 C748 1.369 1_554 S
C749 C758 1.429 . S
C750 C748 1.419 . S
C750 C751 1.363 . S
C750 H753 0.929 . S
C751 C750 1.363 . S
C751 C757 1.428 1_556 S
H752 C748 0.930 . S
H753 C750 0.929 . S
S754 N755 1.613 . S
S754 N756 1.610 . S
N755 S754 1.613 . S
N755 C758 1.350 . S
N756 S754 1.610 . S
N756 C757 1.351 . S
C757 C751 1.428 1_554 S
C757 N756 1.351 . S
C757 C758 1.434 . S
C758 C749 1.429 . S
C758 N755 1.350 . S
C758 C757 1.434 . S
C759 C760 1.369 . S
C759 C761 1.419 . S
C759 H763 0.930 . S
C760 C759 1.369 . S
C760 C769 1.429 . S
C761 C759 1.419 . S
C761 C762 1.363 . S
C761 H764 0.929 . S
C762 C761 1.363 . S
C762 C768 1.428 . S
H763 C759 0.930 . S
H764 C761 0.929 . S
S765 N766 1.613 . S
S765 N767 1.610 . S
N766 S765 1.613 . S
N766 C769 1.350 . S
N767 S765 1.610 . S
N767 C768 1.351 . S
C768 C762 1.428 . S
C768 N767 1.351 . S
C768 C769 1.434 . S
C769 C760 1.429 . S
C769 N766 1.350 . S
C769 C768 1.434 . S
C770 C771 1.369 1_554 S
C770 C772 1.419 . S
C770 H774 0.930 . S
C771 C770 1.369 1_556 S
C771 C780 1.429 . S
C772 C770 1.419 . S
C772 C773 1.363 . S
C772 H775 0.929 . S
C773 C772 1.363 . S
C773 C779 1.428 1_554 S
H774 C770 0.930 . S
H775 C772 0.929 . S
S776 N777 1.613 . S
S776 N778 1.610 . S
N777 S776 1.613 . S
N777 C780 1.350 . S
N778 S776 1.610 . S
N778 C779 1.351 . S
C779 C773 1.428 1_556 S
C779 N778 1.351 . S
C779 C780 1.434 . S
C780 C771 1.429 . S
C780 N777 1.350 . S
C780 C779 1.434 . S
C781 C782 1.369 . S
C781 C783 1.419 . S
C781 H785 0.930 . S
C782 C781 1.369 . S
C782 C791 1.429 . S
C783 C781 1.419 . S
C783 C784 1.363 . S
C783 H786 0.929 . S
C784 C783 1.363 . S
C784 C790 1.428 . S
H785 C781 0.930 . S
H786 C783 0.929 . S
S787 N788 1.613 . S
S787 N789 1.610 . S
N788 S787 1.613 . S
N788 C791 1.350 . S
N789 S787 1.610 . S
N789 C790 1.351 . S
C790 C784 1.428 . S
C790 N789 1.351 . S
C790 C791 1.434 . S
C791 C782 1.429 . S
C791 N788 1.350 . S
C791 C790 1.434 . S
C792 C793 1.369 . S
C792 C794 1.419 . S
C792 H796 0.930 . S
C793 C792 1.369 . S
C793 C802 1.429 . S
C794 C792 1.419 . S
C794 C795 1.363 . S
C794 H797 0.929 . S
C795 C794 1.363 . S
C795 C801 1.428 . S
H796 C792 0.930 . S
H797 C794 0.929 . S
S798 N799 1.613 . S
S798 N800 1.610 . S
N799 S798 1.613 . S
N799 C802 1.350 . S
N800 S798 1.610 . S
N800 C801 1.351 . S
C801 C795 1.428 . S
C801 N800 1.351 . S
C801 C802 1.434 . S
C802 C793 1.429 . S
C802 N799 1.350 . S
C802 C801 1.434 . S
C803 C804 1.369 . S
C803 C805 1.419 . S
C803 H807 0.930 . S
C804 C803 1.369 . S
C804 C813 1.429 . S
C805 C803 1.419 . S
C805 C806 1.363 . S
C805 H808 0.929 . S
C806 C805 1.363 . S
C806 C812 1.428 . S
H807 C803 0.930 . S
H808 C805 0.929 . S
S809 N810 1.613 . S
S809 N811 1.610 . S
N810 S809 1.613 . S
N810 C813 1.350 . S
N811 S809 1.610 . S
N811 C812 1.351 . S
C812 C806 1.428 . S
C812 N811 1.351 . S
C812 C813 1.434 . S
C813 C804 1.429 . S
C813 N810 1.350 . S
C813 C812 1.434 . S
C814 C815 1.369 . S
C814 C816 1.419 . S
C814 H818 0.930 . S
C815 C814 1.369 . S
C815 C824 1.429 . S
C816 C814 1.419 . S
C816 C817 1.363 . S
C816 H819 0.929 . S
C817 C816 1.363 . S
C817 C823 1.428 . S
H818 C814 0.930 . S
H819 C816 0.929 . S
S820 N821 1.613 . S
S820 N822 1.610 . S
N821 S820 1.613 . S
N821 C824 1.350 . S
N822 S820 1.610 . S
N822 C823 1.351 . S
C823 C817 1.428 . S
C823 N822 1.351 . S
C823 C824 1.434 . S
C824 C815 1.429 . S
C824 N821 1.350 . S
C824 C823 1.434 . S
C825 C826 1.369 . S
C825 C827 1.419 . S
C825 H829 0.930 . S
C826 C825 1.369 . S
C826 C835 1.429 . S
C827 C825 1.419 . S
C827 C828 1.363 . S
C827 H830 0.929 . S
C828 C827 1.363 . S
C828 C834 1.428 . S
H829 C825 0.930 . S
H830 C827 0.929 . S
S831 N832 1.613 . S
S831 N833 1.610 . S
N832 S831 1.613 . S
N832 C835 1.350 . S
N833 S831 1.610 . S
N833 C834 1.351 . S
C834 C828 1.428 . S
C834 N833 1.351 . S
C834 C835 1.434 . S
C835 C826 1.429 . S
C835 N832 1.350 . S
C835 C834 1.434 . S
C836 C837 1.369 . S
C836 C838 1.419 . S
C836 H840 0.930 . S
C837 C836 1.369 . S
C837 C846 1.429 . S
C838 C836 1.419 . S
C838 C839 1.363 . S
C838 H841 0.929 . S
C839 C838 1.363 . S
C839 C845 1.428 . S
H840 C836 0.930 . S
H841 C838 0.929 . S
S842 N843 1.613 . S
S842 N844 1.610 . S
N843 S842 1.613 . S
N843 C846 1.350 . S
N844 S842 1.610 . S
N844 C845 1.351 . S
C845 C839 1.428 . S
C845 N844 1.351 . S
C845 C846 1.434 . S
C846 C837 1.429 . S
C846 N843 1.350 . S
C846 C845 1.434 . S
C847 C848 1.369 . S
C847 C849 1.419 . S
C847 H851 0.930 . S
C848 C847 1.369 . S
C848 C857 1.429 . S
C849 C847 1.419 . S
C849 C850 1.363 . S
C849 H852 0.929 . S
C850 C849 1.363 . S
C850 C856 1.428 . S
H851 C847 0.930 . S
H852 C849 0.929 . S
S853 N854 1.613 . S
S853 N855 1.610 . S
N854 S853 1.613 . S
N854 C857 1.350 . S
N855 S853 1.610 . S
N855 C856 1.351 . S
C856 C850 1.428 . S
C856 N855 1.351 . S
C856 C857 1.434 . S
C857 C848 1.429 . S
C857 N854 1.350 . S
C857 C856 1.434 . S
C858 C859 1.369 . S
C858 C860 1.419 . S
C858 H862 0.930 . S
C859 C858 1.369 . S
C859 C868 1.429 . S
C860 C858 1.419 . S
C860 C861 1.363 . S
C860 H863 0.929 . S
C861 C860 1.363 . S
C861 C867 1.428 . S
H862 C858 0.930 . S
H863 C860 0.929 . S
S864 N865 1.613 . S
S864 N866 1.610 . S
N865 S864 1.613 . S
N865 C868 1.350 . S
N866 S864 1.610 . S
N866 C867 1.351 . S
C867 C861 1.428 . S
C867 N866 1.351 . S
C867 C868 1.434 . S
C868 C859 1.429 . S
C868 N865 1.350 . S
C868 C867 1.434 . S
C869 C870 1.369 . S
C869 C871 1.419 . S
C869 H873 0.930 . S
C870 C869 1.369 . S
C870 C879 1.429 . S
C871 C869 1.419 . S
C871 C872 1.363 . S
C871 H874 0.929 . S
C872 C871 1.363 . S
C872 C878 1.428 . S
H873 C869 0.930 . S
H874 C871 0.929 . S
S875 N876 1.613 . S
S875 N877 1.610 . S
N876 S875 1.613 . S
N876 C879 1.350 . S
N877 S875 1.610 . S
N877 C878 1.351 . S
C878 C872 1.428 . S
C878 N877 1.351 . S
C878 C879 1.434 . S
C879 C870 1.429 . S
C879 N876 1.350 . S
C879 C878 1.434 . S
C880 C881 1.369 . S
C880 C882 1.419 . S
C880 H884 0.930 . S
C881 C880 1.369 . S
C881 C890 1.429 . S
C882 C880 1.419 . S
C882 C883 1.363 . S
C882 H885 0.929 . S
C883 C882 1.363 . S
C883 C889 1.428 . S
H884 C880 0.930 . S
H885 C882 0.929 . S
S886 N887 1.613 . S
S886 N888 1.610 . S
N887 S886 1.613 . S
N887 C890 1.350 . S
N888 S886 1.610 . S
N888 C889 1.351 . S
C889 C883 1.428 . S
C889 N888 1.351 . S
C889 C890 1.434 . S
C890 C881 1.429 . S
C890 N887 1.350 . S
C890 C889 1.434 . S
C891 C892 1.369 . S
C891 C893 1.419 . S
C891 H895 0.930 . S
C892 C891 1.369 . S
C892 C901 1.429 . S
C893 C891 1.419 . S
C893 C894 1.363 . S
C893 H896 0.929 . S
C894 C893 1.363 . S
C894 C900 1.428 . S
H895 C891 0.930 . S
H896 C893 0.929 . S
S897 N898 1.613 . S
S897 N899 1.610 . S
N898 S897 1.613 . S
N898 C901 1.350 . S
N899 S897 1.610 . S
N899 C900 1.351 . S
C900 C894 1.428 . S
C900 N899 1.351 . S
C900 C901 1.434 . S
C901 C892 1.429 . S
C901 N898 1.350 . S
C901 C900 1.434 . S
C902 C903 1.369 . S
C902 C904 1.419 . S
C902 H906 0.930 . S
C903 C902 1.369 . S
C903 C912 1.429 . S
C904 C902 1.419 . S
C904 C905 1.363 . S
C904 H907 0.929 . S
C905 C904 1.363 . S
C905 C911 1.428 . S
H906 C902 0.930 . S
H907 C904 0.929 . S
S908 N909 1.613 . S
S908 N910 1.610 . S
N909 S908 1.613 . S
N909 C912 1.350 . S
N910 S908 1.610 . S
N910 C911 1.351 . S
C911 C905 1.428 . S
C911 N910 1.351 . S
C911 C912 1.434 . S
C912 C903 1.429 . S
C912 N909 1.350 . S
C912 C911 1.434 . S
C913 C914 1.369 . S
C913 C915 1.419 . S
C913 H917 0.930 . S
C914 C913 1.369 . S
C914 C923 1.429 . S
C915 C913 1.419 . S
C915 C916 1.363 . S
C915 H918 0.929 . S
C916 C915 1.363 . S
C916 C922 1.428 . S
H917 C913 0.930 . S
H918 C915 0.929 . S
S919 N920 1.613 . S
S919 N921 1.610 . S
N920 S919 1.613 . S
N920 C923 1.350 . S
N921 S919 1.610 . S
N921 C922 1.351 . S
C922 C916 1.428 . S
C922 N921 1.351 . S
C922 C923 1.434 . S
C923 C914 1.429 . S
C923 N920 1.350 . S
C923 C922 1.434 . S
C924 C925 1.369 . S
C924 C926 1.419 . S
C924 H928 0.930 . S
C925 C924 1.369 . S
C925 C934 1.429 . S
C926 C924 1.419 . S
C926 C927 1.363 . S
C926 H929 0.929 . S
C927 C926 1.363 . S
C927 C933 1.428 . S
H928 C924 0.930 . S
H929 C926 0.929 . S
S930 N931 1.613 . S
S930 N932 1.610 . S
N931 S930 1.613 . S
N931 C934 1.350 . S
N932 S930 1.610 . S
N932 C933 1.351 . S
C933 C927 1.428 . S
C933 N932 1.351 . S
C933 C934 1.434 . S
C934 C925 1.429 . S
C934 N931 1.350 . S
C934 C933 1.434 . S
C935 C936 1.369 . S
C935 C937 1.419 . S
C935 H939 0.930 . S
C936 C935 1.369 . S
C936 C945 1.429 . S
C937 C935 1.419 . S
C937 C938 1.363 . S
C937 H940 0.929 . S
C938 C937 1.363 . S
C938 C944 1.428 . S
H939 C935 0.930 . S
H940 C937 0.929 . S
S941 N942 1.613 . S
S941 N943 1.610 . S
N942 S941 1.613 . S
N942 C945 1.350 . S
N943 S941 1.610 . S
N943 C944 1.351 . S
C944 C938 1.428 . S
C944 N943 1.351 . S
C944 C945 1.434 . S
C945 C936 1.429 . S
C945 N942 1.350 . S
C945 C944 1.434 . S
C946 C947 1.369 . S
C946 C948 1.419 . S
C946 H950 0.930 . S
C947 C946 1.369 . S
C947 C956 1.429 . S
C948 C946 1.419 . S
C948 C949 1.363 . S
C948 H951 0.929 . S
C949 C948 1.363 . S
C949 C955 1.428 . S
H950 C946 0.930 . S
H951 C948 0.929 . S
S952 N953 1.613 . S
S952 N954 1.610 . S
N953 S952 1.613 . S
N953 C956 1.350 . S
N954 S952 1.610 . S
N954 C955 1.351 . S
C955 C949 1.428 . S
C955 N954 1.351 . S
C955 C956 1.434 . S
C956 C947 1.429 . S
C956 N953 1.350 . S
C956 C955 1.434 . S
C957 C958 1.369 . S
C957 C959 1.419 . S
C957 H961 0.930 . S
C958 C957 1.369 . S
C958 C967 1.429 . S
C959 C957 1.419 . S
C959 C960 1.363 . S
C959 H962 0.929 . S
C960 C959 1.363 . S
C960 C966 1.428 . S
H961 C957 0.930 . S
H962 C959 0.929 . S
S963 N964 1.613 . S
S963 N965 1.610 . S
N964 S963 1.613 . S
N964 C967 1.350 . S
N965 S963 1.610 . S
N965 C966 1.351 . S
C966 C960 1.428 . S
C966 N965 1.351 . S
C966 C967 1.434 . S
C967 C958 1.429 . S
C967 N964 1.350 . S
C967 C966 1.434 . S
C529 N13 1.749 . S
C531 N112 1.750 . S
C540 N79 1.747 . S
C542 N46 1.745 . S
C551 N244 1.747 . S
C553 N145 1.750 . S
C562 N178 1.749 . S
C564 N211 1.749 . S
C573 N277 1.749 . S
C575 N376 1.749 . S
C584 N310 1.744 . S
C586 N343 1.745 . S
C595 N508 1.744 . S
C597 N409 1.748 . S
C606 N442 1.749 . S
C608 N475 1.749 . S
C617 N200 1.551 . S
C619 N2 1.551 . S
C628 N233 1.546 . S
C630 N35 1.547 . S
C639 N134 1.554 . S
C641 N68 1.553 . S
C650 N167 1.551 . S
C652 N101 1.550 . S
C661 N464 1.549 . S
C663 N266 1.549 . S
C672 N497 1.550 . S
C674 N299 1.550 . S
C683 N398 1.550 . S
C685 N332 1.550 . S
C694 N365 1.546 . S
C696 N431 1.547 . S
C705 C7 1.582 . S
C707 C73 1.575 . S
C716 C40 1.576 . S
C718 C106 1.578 . S
C727 C139 1.578 . S
C729 C205 1.576 . S
C738 C172 1.574 . S
C740 C238 1.579 . S
C749 C271 1.582 . S
C751 C337 1.574 . S
C760 C304 1.581 . S
C762 C370 1.575 . S
C771 C403 1.582 . S
C773 C469 1.574 . S
C782 C436 1.574 . S
C784 C502 1.581 . S
C793 C513 1.230 . S
C795 C21 1.241 . S
C804 C54 1.240 . S
C806 C480 1.234 . S
C815 C87 1.240 . S
C817 C447 1.234 . S
C826 C414 1.233 . S
C828 C120 1.242 . S
C837 C381 1.235 . S
C839 C153 1.240 . S
C848 C186 1.244 . S
C850 C348 1.229 . S
C859 C219 1.244 . S
C861 C315 1.228 . S
C870 C252 1.240 . S
C872 C282 1.234 . S
C881 C285 1.241 . S
C883 C249 1.232 . S
C892 C216 1.228 . S
C894 C318 1.244 . S
C903 C183 1.229 . S
C905 C351 1.242 . S
C914 C384 1.242 . S
C916 C150 1.230 . S
C925 C417 1.240 . S
C927 C117 1.234 . S
C936 C84 1.230 . S
C938 C450 1.243 . S
C947 C51 1.228 . S
C949 C483 1.244 . S
C958 C18 1.233 . S
C960 C516 1.242 . S
