# Generated by pormake.
# Topology umg, (4)-cn, num edge types: 1
# Building blocks:
#     Node 0, Type 0, BuildingBlock: GALJAG_clean_sbu_0, # of connection points: 4
#     Node 1, Type 0, BuildingBlock: GALJAG_clean_sbu_0, # of connection points: 4
#     Node 2, Type 0, BuildingBlock: GALJAG_clean_sbu_0, # of connection points: 4
#     Node 3, Type 0, BuildingBlock: GALJAG_clean_sbu_0, # of connection points: 4
#     Node 4, Type 0, BuildingBlock: GALJAG_clean_sbu_0, # of connection points: 4
#     Node 5, Type 0, BuildingBlock: GALJAG_clean_sbu_0, # of connection points: 4
#     Node 6, Type 0, BuildingBlock: GALJAG_clean_sbu_0, # of connection points: 4
#     Node 7, Type 0, BuildingBlock: GALJAG_clean_sbu_0, # of connection points: 4
#     Node 8, Type 0, BuildingBlock: GALJAG_clean_sbu_0, # of connection points: 4
#     Node 9, Type 0, BuildingBlock: GALJAG_clean_sbu_0, # of connection points: 4
#     Node 10, Type 0, BuildingBlock: GALJAG_clean_sbu_0, # of connection points: 4
#     Node 11, Type 0, BuildingBlock: GALJAG_clean_sbu_0, # of connection points: 4
#     Edge 12, Type (0, 0), BuildingBlock: AJUNOK_clean_linker_0, # of connection points: 2
#     Edge 13, Type (0, 0), BuildingBlock: AJUNOK_clean_linker_0, # of connection points: 2
#     Edge 14, Type (0, 0), BuildingBlock: AJUNOK_clean_linker_0, # of connection points: 2
#     Edge 15, Type (0, 0), BuildingBlock: AJUNOK_clean_linker_0, # of connection points: 2
#     Edge 16, Type (0, 0), BuildingBlock: AJUNOK_clean_linker_0, # of connection points: 2
#     Edge 17, Type (0, 0), BuildingBlock: AJUNOK_clean_linker_0, # of connection points: 2
#     Edge 18, Type (0, 0), BuildingBlock: AJUNOK_clean_linker_0, # of connection points: 2
#     Edge 19, Type (0, 0), BuildingBlock: AJUNOK_clean_linker_0, # of connection points: 2
#     Edge 20, Type (0, 0), BuildingBlock: AJUNOK_clean_linker_0, # of connection points: 2
#     Edge 21, Type (0, 0), BuildingBlock: AJUNOK_clean_linker_0, # of connection points: 2
#     Edge 22, Type (0, 0), BuildingBlock: AJUNOK_clean_linker_0, # of connection points: 2
#     Edge 23, Type (0, 0), BuildingBlock: AJUNOK_clean_linker_0, # of connection points: 2
#     Edge 24, Type (0, 0), BuildingBlock: AJUNOK_clean_linker_0, # of connection points: 2
#     Edge 25, Type (0, 0), BuildingBlock: AJUNOK_clean_linker_0, # of connection points: 2
#     Edge 26, Type (0, 0), BuildingBlock: AJUNOK_clean_linker_0, # of connection points: 2
#     Edge 27, Type (0, 0), BuildingBlock: AJUNOK_clean_linker_0, # of connection points: 2
#     Edge 28, Type (0, 0), BuildingBlock: AJUNOK_clean_linker_0, # of connection points: 2
#     Edge 29, Type (0, 0), BuildingBlock: AJUNOK_clean_linker_0, # of connection points: 2
#     Edge 30, Type (0, 0), BuildingBlock: AJUNOK_clean_linker_0, # of connection points: 2
#     Edge 31, Type (0, 0), BuildingBlock: AJUNOK_clean_linker_0, # of connection points: 2
#     Edge 32, Type (0, 0), BuildingBlock: AJUNOK_clean_linker_0, # of connection points: 2
#     Edge 33, Type (0, 0), BuildingBlock: AJUNOK_clean_linker_0, # of connection points: 2
#     Edge 34, Type (0, 0), BuildingBlock: AJUNOK_clean_linker_0, # of connection points: 2
#     Edge 35, Type (0, 0), BuildingBlock: AJUNOK_clean_linker_0, # of connection points: 2
# Relax obj value: 0.078
# Max RMSD: 0.206
# Mean RMSD: 0.205
data_MOF--net-umg--node1-GALJAG_clean_sbu_0--edge1-AJUNOK_clean_linker_0
_symmetry_space_group_name_H-M    P1
_symmetry_Int_Tables_number       1
_symmetry_cell_setting            triclinic
loop_
_symmetry_equiv_pos_as_xyz
'x, y, z'
_cell_length_a     21.167185
_cell_length_b     21.135161
_cell_length_c     64.100904
_cell_angle_alpha  89.91381
_cell_angle_beta   90.020772
_cell_angle_gamma 120.08006
loop_
_atom_site_label
_atom_site_type_symbol
_atom_site_fract_x
_atom_site_fract_y
_atom_site_fract_z
_atom_type_partial_charge
In0 In 0.30123 0.60124 0.07768 0.0
O1 O 0.34902 0.69629 0.05398 0.0
O2 O 0.29651 0.58529 0.04329 0.0
C3 C 0.33206 0.64278 0.11752 0.0
C4 C 0.39371 0.54962 0.07528 0.0
C5 C 0.15601 0.54923 0.07895 0.0
O6 O 0.34504 0.68914 0.10313 0.0
O7 O 0.30323 0.57716 0.11162 0.0
O8 O 0.18289 0.50746 0.07859 0.0
O9 O 0.20257 0.61669 0.07849 0.0
C10 C 0.33062 0.65239 0.0387 0.0
O11 O 0.32491 0.50762 0.07506 0.0
O12 O 0.41491 0.61701 0.07691 0.0
In13 In 0.70391 0.30925 0.40941 0.0
O14 O 0.82291 0.3376 0.40774 0.0
O15 O 0.7991 0.4245 0.40986 0.0
C16 C 0.61249 0.16358 0.40792 0.0
C17 C 0.68096 0.34455 0.37131 0.0
C18 C 0.68947 0.33035 0.44982 0.0
O19 O 0.68125 0.19164 0.40703 0.0
O20 O 0.59079 0.20923 0.40945 0.0
O21 O 0.65909 0.34832 0.43576 0.0
O22 O 0.72565 0.30173 0.44329 0.0
C23 C 0.84732 0.40606 0.40857 0.0
O24 O 0.65243 0.35654 0.38713 0.0
O25 O 0.71823 0.31424 0.37492 0.0
In26 In 0.405 0.69998 0.74298 0.0
O27 O 0.30889 0.65176 0.71986 0.0
O28 O 0.41762 0.68702 0.70907 0.0
C29 C 0.36921 0.69487 0.78317 0.0
C30 C 0.45221 0.8429 0.73766 0.0
C31 C 0.45197 0.60323 0.74567 0.0
O32 O 0.32095 0.66066 0.76932 0.0
O33 O 0.43407 0.7302 0.77654 0.0
O34 O 0.49609 0.6714 0.74361 0.0
O35 O 0.3854 0.58532 0.74679 0.0
C36 C 0.35068 0.65897 0.70472 0.0
O37 O 0.49631 0.81877 0.73896 0.0
O38 O 0.38549 0.7946 0.73877 0.0
In39 In 0.70064 0.40271 0.07781 0.0
O40 O 0.65337 0.31058 0.05332 0.0
O41 O 0.72853 0.42108 0.04411 0.0
C42 C 0.66776 0.3626 0.11762 0.0
C43 C 0.60566 0.45063 0.07357 0.0
C44 C 0.84416 0.4499 0.08084 0.0
O45 O 0.65596 0.31577 0.10349 0.0
O46 O 0.69623 0.42802 0.11146 0.0
O47 O 0.82022 0.49394 0.07862 0.0
O48 O 0.79538 0.38316 0.08192 0.0
C49 C 0.68915 0.35508 0.03873 0.0
O50 O 0.67379 0.49457 0.07552 0.0
O51 O 0.58695 0.38367 0.07345 0.0
In52 In 0.30407 0.70641 0.41048 0.0
O53 O 0.18748 0.68507 0.40898 0.0
O54 O 0.20455 0.59367 0.41104 0.0
C55 C 0.4016 0.85073 0.40876 0.0
C56 C 0.32121 0.66997 0.37195 0.0
C57 C 0.31768 0.68139 0.45066 0.0
O58 O 0.33332 0.82638 0.40892 0.0
O59 O 0.41964 0.80218 0.40951 0.0
O60 O 0.34686 0.66302 0.43637 0.0
O61 O 0.28382 0.71295 0.44451 0.0
C62 C 0.15931 0.61605 0.40977 0.0
O63 O 0.35001 0.65605 0.38736 0.0
O64 O 0.28648 0.70244 0.37619 0.0
In65 In 0.6054 0.2992 0.7429 0.0
O66 O 0.5109 0.18207 0.73888 0.0
O67 O 0.61965 0.20076 0.73886 0.0
C68 C 0.55158 0.39063 0.74564 0.0
C69 C 0.66533 0.34254 0.70509 0.0
C70 C 0.64589 0.30907 0.78291 0.0
O71 O 0.51076 0.32234 0.74291 0.0
O72 O 0.61882 0.41178 0.74727 0.0
O73 O 0.6919 0.34346 0.76856 0.0
O74 O 0.58078 0.27005 0.77683 0.0
C75 C 0.55227 0.15485 0.73769 0.0
O76 O 0.70382 0.34417 0.72047 0.0
O77 O 0.59891 0.31943 0.70901 0.0
In78 In 0.41118 0.70236 0.57917 0.0
O79 O 0.50582 0.68007 0.58074 0.0
O80 O 0.39735 0.58916 0.57837 0.0
C81 C 0.46505 0.84825 0.5807 0.0
C82 C 0.35408 0.66466 0.61741 0.0
C83 C 0.36939 0.67883 0.53914 0.0
O84 O 0.50594 0.82044 0.58062 0.0
O85 O 0.39758 0.8023 0.58013 0.0
O86 O 0.32335 0.66162 0.55381 0.0
O87 O 0.43509 0.7075 0.54486 0.0
C88 C 0.46485 0.61117 0.57979 0.0
O89 O 0.31297 0.65241 0.60173 0.0
O90 O 0.42159 0.69649 0.61362 0.0
In91 In 0.70371 0.4047 0.91113 0.0
O92 O 0.82098 0.49887 0.91269 0.0
O93 O 0.80207 0.38955 0.91176 0.0
C94 C 0.61023 0.4564 0.91029 0.0
C95 C 0.68486 0.35629 0.9504 0.0
C96 C 0.69229 0.36197 0.87143 0.0
O97 O 0.6789 0.49819 0.91038 0.0
O98 O 0.58934 0.38896 0.91077 0.0
O99 O 0.66012 0.31574 0.88595 0.0
O100 O 0.72772 0.42788 0.87713 0.0
C101 C 0.84815 0.45721 0.91267 0.0
O102 O 0.65591 0.31138 0.93545 0.0
O103 O 0.71994 0.42293 0.94532 0.0
In104 In 0.30105 0.70423 0.24576 0.0
O105 O 0.32724 0.82304 0.24894 0.0
O106 O 0.41443 0.79998 0.25042 0.0
C107 C 0.15689 0.60818 0.24267 0.0
C108 C 0.31434 0.66404 0.28426 0.0
C109 C 0.33343 0.69458 0.20599 0.0
O110 O 0.18142 0.67638 0.2448 0.0
O111 O 0.2053 0.58994 0.24178 0.0
O112 O 0.34585 0.66131 0.22052 0.0
O113 O 0.30565 0.7324 0.21179 0.0
C114 C 0.39541 0.84784 0.2509 0.0
O115 O 0.3508 0.65896 0.26929 0.0
O116 O 0.27305 0.68901 0.27959 0.0
In117 In 0.61461 0.30558 0.57942 0.0
O118 O 0.71194 0.35414 0.60215 0.0
O119 O 0.60246 0.30777 0.61382 0.0
C120 C 0.64812 0.3291 0.53899 0.0
C121 C 0.56708 0.40141 0.58059 0.0
C122 C 0.56712 0.1612 0.58064 0.0
O123 O 0.69741 0.34643 0.55273 0.0
O124 O 0.58351 0.29913 0.5458 0.0
O125 O 0.52339 0.18578 0.58151 0.0
O126 O 0.63368 0.20959 0.57916 0.0
C127 C 0.66995 0.33966 0.61777 0.0
O128 O 0.52318 0.33278 0.58122 0.0
O129 O 0.63393 0.42035 0.57937 0.0
In130 In 0.30312 0.60521 0.91161 0.0
O131 O 0.18392 0.51356 0.91321 0.0
O132 O 0.2082 0.62453 0.91462 0.0
C133 C 0.39845 0.55663 0.90913 0.0
C134 C 0.33816 0.65351 0.95071 0.0
C135 C 0.31754 0.64852 0.87188 0.0
O136 O 0.33023 0.51296 0.91107 0.0
O137 O 0.41703 0.6235 0.90818 0.0
O138 O 0.35009 0.69395 0.88651 0.0
O139 O 0.27823 0.58275 0.87754 0.0
C140 C 0.15974 0.55765 0.91445 0.0
O141 O 0.3472 0.69761 0.936 0.0
O142 O 0.31112 0.58732 0.94552 0.0
In143 In 0.69877 0.30461 0.24625 0.0
O144 O 0.67544 0.18727 0.25049 0.0
O145 O 0.58558 0.20623 0.24996 0.0
C146 C 0.8441 0.39625 0.24309 0.0
C147 C 0.68369 0.34775 0.28419 0.0
C148 C 0.66716 0.31437 0.20633 0.0
O149 O 0.81663 0.32778 0.24545 0.0
O150 O 0.79799 0.41753 0.24209 0.0
O151 O 0.65546 0.34849 0.2207 0.0
O152 O 0.69405 0.27597 0.21233 0.0
C153 C 0.60678 0.16016 0.25137 0.0
O154 O 0.64744 0.35103 0.26889 0.0
O155 O 0.72523 0.32261 0.28018 0.0
C156 C 0.32538 0.71078 0.98342 0.0
C157 C 0.35626 0.67474 0.97269 0.0
C158 C 0.3234 0.71056 0.0054 0.0
C159 C 0.35265 0.67466 0.01697 0.0
H160 H 0.29706 0.73335 0.97486 0.0
H161 H 0.29359 0.7329 0.01324 0.0
S162 S 0.45015 0.58378 -0.00386 0.0
N163 N 0.4247 0.61102 0.97522 0.0
N164 N 0.42128 0.61094 0.0163 0.0
C165 C 0.38953 0.64482 0.00637 0.0
C166 C 0.39131 0.64481 0.98423 0.0
C167 C 0.61093 0.32932 0.33861 0.0
C168 C 0.67641 0.3669 0.34994 0.0
C169 C 0.61173 0.33026 0.31664 0.0
C170 C 0.67807 0.36847 0.30568 0.0
H171 H 0.56023 0.29356 0.34663 0.0
H172 H 0.56158 0.29519 0.3083 0.0
S173 S 0.86175 0.4849 0.32841 0.0
N174 N 0.80707 0.45084 0.34879 0.0
N175 N 0.80867 0.45226 0.30768 0.0
C176 C 0.74237 0.41191 0.31694 0.0
C177 C 0.7415 0.41117 0.3391 0.0
C178 C 0.29495 0.67354 0.67207 0.0
C179 C 0.32629 0.63845 0.68307 0.0
C180 C 0.29589 0.67513 0.65009 0.0
C181 C 0.32799 0.64146 0.63881 0.0
H182 H 0.27635 0.70577 0.68039 0.0
H183 H 0.27797 0.70849 0.64205 0.0
S184 S 0.40521 0.53215 0.66046 0.0
N185 N 0.38079 0.56133 0.68115 0.0
N186 N 0.38241 0.56419 0.64005 0.0
C187 C 0.35241 0.60018 0.64969 0.0
C188 C 0.35156 0.59866 0.67184 0.0
C189 C 0.75137 0.37197 0.00509 0.0
C190 C 0.68647 0.3349 0.01665 0.0
C191 C 0.75021 0.37232 0.98335 0.0
C192 C 0.68415 0.33554 0.97233 0.0
H193 H 0.80314 0.40513 0.01293 0.0
H194 H 0.80112 0.40575 0.9751 0.0
S195 S 0.49986 0.22356 -0.00481 0.0
N196 N 0.55485 0.25471 0.01561 0.0
N197 N 0.55277 0.25538 0.97435 0.0
C198 C 0.61933 0.2929 0.98355 0.0
C199 C 0.62049 0.29254 0.00589 0.0
C200 C 0.25479 0.61082 0.31778 0.0
C201 C 0.31951 0.64557 0.30607 0.0
C202 C 0.25657 0.61208 0.33954 0.0
C203 C 0.32311 0.6481 0.35035 0.0
H204 H 0.20224 0.58731 0.31006 0.0
H205 H 0.20535 0.58968 0.34796 0.0
S206 S 0.50794 0.74072 0.32699 0.0
N207 N 0.45213 0.71108 0.30673 0.0
N208 N 0.45539 0.7136 0.34797 0.0
C209 C 0.3884 0.67735 0.33894 0.0
C210 C 0.38661 0.67598 0.31663 0.0
C211 C 0.66752 0.40166 0.67183 0.0
C212 C 0.69216 0.36214 0.68357 0.0
C213 C 0.66892 0.4011 0.65006 0.0
C214 C 0.69497 0.36099 0.63931 0.0
H215 H 0.64137 0.42823 0.6795 0.0
H216 H 0.64367 0.42709 0.64158 0.0
S217 S 0.77315 0.25525 0.66279 0.0
N218 N 0.75009 0.28785 0.68302 0.0
N219 N 0.75239 0.28658 0.64178 0.0
C220 C 0.72615 0.32692 0.65078 0.0
C221 C 0.7249 0.32763 0.67308 0.0
C222 C 0.34118 0.73432 0.16895 0.0
C223 C 0.3447 0.68638 0.18361 0.0
C224 C 0.34156 0.72251 0.14745 0.0
C225 C 0.34436 0.66172 0.13988 0.0
H226 H 0.33581 0.7802 0.17411 0.0
H227 H 0.33584 0.75908 0.13676 0.0
S228 S 0.36265 0.52455 0.17157 0.0
N229 N 0.3579 0.57967 0.18893 0.0
N230 N 0.35761 0.55681 0.14854 0.0
C231 C 0.35188 0.6156 0.15431 0.0
C232 C 0.35239 0.62814 0.17619 0.0
C233 C 0.73142 0.33476 0.4864 0.0
C234 C 0.68236 0.33918 0.47241 0.0
C235 C 0.72236 0.33544 0.50803 0.0
C236 C 0.66316 0.33924 0.5164 0.0
H237 H 0.77646 0.32918 0.48061 0.0
H238 H 0.76003 0.32962 0.51821 0.0
S239 S 0.52329 0.3587 0.48668 0.0
N240 N 0.57587 0.35335 0.46856 0.0
N241 N 0.55793 0.35326 0.50924 0.0
C242 C 0.61547 0.3468 0.50265 0.0
C243 C 0.62534 0.34721 0.48063 0.0
C244 C 0.28746 0.63177 0.8135 0.0
C245 C 0.35271 0.69024 0.80572 0.0
C246 C 0.27538 0.62062 0.83502 0.0
C247 C 0.32754 0.66819 0.84953 0.0
H248 H 0.24684 0.59241 0.80294 0.0
H249 H 0.22553 0.57313 0.84033 0.0
S250 S 0.50412 0.83384 0.83715 0.0
N251 N 0.46795 0.79951 0.81418 0.0
N252 N 0.4445 0.77878 0.85462 0.0
C253 C 0.3911 0.72924 0.84197 0.0
C254 C 0.4039 0.74014 0.82005 0.0
C255 C 0.65852 0.28417 0.14792 0.0
C256 C 0.65536 0.34449 0.14005 0.0
C257 C 0.6592 0.2733 0.16947 0.0
C258 C 0.65573 0.32178 0.18389 0.0
H259 H 0.6643 0.24725 0.13743 0.0
H260 H 0.66479 0.22774 0.17485 0.0
S261 S 0.63678 0.48258 0.17103 0.0
N262 N 0.64169 0.44945 0.14816 0.0
N263 N 0.64205 0.42839 0.18867 0.0
C264 C 0.64766 0.37953 0.17617 0.0
C265 C 0.6478 0.39108 0.15423 0.0
C266 C 0.39989 0.67093 0.50203 0.0
C267 C 0.34995 0.66981 0.51677 0.0
C268 C 0.38731 0.67071 0.48056 0.0
C269 C 0.32502 0.67079 0.4731 0.0
H270 H 0.45 0.67362 0.50711 0.0
H271 H 0.42822 0.67389 0.46978 0.0
S272 S 0.17445 0.66155 0.50511 0.0
N273 N 0.23326 0.66325 0.52235 0.0
N274 N 0.21013 0.66427 0.48199 0.0
C275 C 0.27319 0.66662 0.48764 0.0
C276 C 0.28546 0.66566 0.50949 0.0
C277 C 0.62322 0.28167 0.84144 0.0
C278 C 0.68653 0.34254 0.84914 0.0
C279 C 0.61205 0.26962 0.81991 0.0
C280 C 0.66426 0.31742 0.80537 0.0
H281 H 0.5804 0.24528 0.85203 0.0
H282 H 0.56098 0.22372 0.81463 0.0
S283 S 0.84376 0.47915 0.81788 0.0
N284 N 0.80527 0.44719 0.8408 0.0
N285 N 0.78463 0.42393 0.80037 0.0
C286 C 0.72992 0.37567 0.81297 0.0
C287 C 0.7409 0.38843 0.83486 0.0
C288 C 0.97579 0.54841 0.07902 0.0
C289 C 0.92332 0.47391 0.08115 0.0
C290 C 0.05069 0.57204 0.07842 0.0
C291 C 0.0763 0.52216 0.07986 0.0
H292 H 0.95898 0.58894 0.07763 0.0
H293 H 0.08877 0.63001 0.07665 0.0
S294 S 0.96167 0.32109 0.08622 0.0
N295 N 0.90257 0.35029 0.08517 0.0
N296 N 0.04303 0.39481 0.08396 0.0
C297 C 0.02452 0.44757 0.08221 0.0
C298 C 0.94821 0.42346 0.08288 0.0
C299 C 0.48482 0.05731 0.40893 0.0
C300 C 0.56042 0.08354 0.40759 0.0
C301 C 0.43396 0.98216 0.40911 0.0
C302 C 0.45653 0.93001 0.40801 0.0
H303 H 0.46449 0.09513 0.40997 0.0
H304 H 0.37651 0.96493 0.41031 0.0
S305 S 0.64813 0.96975 0.4037 0.0
N306 N 0.65521 0.0511 0.40471 0.0
N307 N 0.55992 0.91001 0.40507 0.0
C308 C 0.53197 0.95541 0.40645 0.0
C309 C 0.58379 0.03204 0.40623 0.0
C310 C 0.57381 0.51862 0.74806 0.0
C311 C 0.52409 0.44306 0.74618 0.0
C312 C 0.55015 0.56995 0.74796 0.0
C313 C 0.47573 0.54787 0.74611 0.0
H314 H 0.63179 0.53861 0.74946 0.0
H315 H 0.59062 0.6274 0.74934 0.0
S316 S 0.32312 0.35657 0.74059 0.0
N317 N 0.3968 0.34889 0.74231 0.0
N318 N 0.35222 0.44491 0.74222 0.0
C319 C 0.4253 0.47242 0.74433 0.0
C320 C 0.44947 0.42019 0.74434 0.0
C321 C 0.46782 0.02965 0.58152 0.0
C322 C 0.54269 0.08186 0.58107 0.0
C323 C 0.4435 0.95447 0.58152 0.0
C324 C 0.49301 0.92829 0.58112 0.0
H325 H 0.42748 0.04687 0.58173 0.0
H326 H 0.38521 0.91659 0.58176 0.0
S327 S 0.69509 0.04219 0.58026 0.0
N328 N 0.66647 0.10187 0.5805 0.0
N329 N 0.62063 0.96084 0.58053 0.0
C330 C 0.56808 0.97985 0.58086 0.0
C331 C 0.59291 0.05646 0.58082 0.0
C332 C 0.43106 0.45779 0.91128 0.0
C333 C 0.45323 0.53219 0.90878 0.0
C334 C 0.48219 0.43395 0.91168 0.0
C335 C 0.55762 0.48353 0.90965 0.0
H336 H 0.37378 0.41755 0.91311 0.0
H337 H 0.46228 0.37609 0.91374 0.0
S338 S 0.64423 0.68412 0.9021 0.0
N339 N 0.5561 0.6553 0.90377 0.0
N340 N 0.65171 0.61042 0.90459 0.0
C341 C 0.58052 0.55799 0.90696 0.0
C342 C 0.52849 0.5823 0.90649 0.0
C343 C 0.02531 0.57565 0.24223 0.0
C344 C 0.07754 0.5531 0.24205 0.0
C345 C 0.95019 0.52453 0.24229 0.0
C346 C 0.92406 0.44866 0.24229 0.0
H347 H 0.04246 0.6333 0.24245 0.0
H348 H 0.91232 0.54487 0.24258 0.0
S349 S 0.03797 0.36068 0.24151 0.0
N350 N 0.09752 0.44918 0.24156 0.0
N351 N 0.95672 0.35363 0.2418 0.0
C352 C 0.97564 0.4253 0.24194 0.0
C353 C 0.05216 0.47732 0.24178 0.0
C354 C 0.57285 0.54894 0.07588 0.0
C355 C 0.55102 0.47498 0.07272 0.0
C356 C 0.52157 0.57243 0.07648 0.0
C357 C 0.44637 0.52291 0.07397 0.0
H358 H 0.62989 0.58899 0.07826 0.0
H359 H 0.54117 0.6299 0.07921 0.0
S360 S 0.36103 0.32383 0.06398 0.0
N361 N 0.44906 0.3526 0.0661 0.0
N362 N 0.35299 0.3969 0.0673 0.0
C363 C 0.42389 0.44903 0.07034 0.0
C364 C 0.47611 0.42506 0.0697 0.0
C365 C 0.97811 0.43778 0.40949 0.0
C366 C 0.92639 0.46081 0.40842 0.0
C367 C 0.05311 0.48848 0.40989 0.0
C368 C 0.0795 0.56431 0.40918 0.0
H369 H 0.96065 0.38009 0.41019 0.0
H370 H 0.09065 0.46782 0.41083 0.0
S371 S 0.96678 0.65322 0.40563 0.0
N372 N 0.90688 0.56483 0.40619 0.0
N373 N 0.04779 0.6599 0.40693 0.0
C374 C 0.02843 0.58816 0.40789 0.0
C375 C 0.95195 0.5365 0.40751 0.0
C376 C 0.57489 0.04947 0.73669 0.0
C377 C 0.52498 0.07516 0.73617 0.0
C378 C 0.55106 0.97444 0.73668 0.0
C379 C 0.47633 0.92196 0.73611 0.0
H380 H 0.63305 0.08759 0.73751 0.0
H381 H 0.59161 0.95757 0.73751 0.0
S382 S 0.32329 0.96042 0.7333 0.0
N383 N 0.39737 0.04198 0.73414 0.0
N384 N 0.35238 0.90114 0.73403 0.0
C385 C 0.42581 0.94688 0.73498 0.0
C386 C 0.45016 0.02336 0.73503 0.0
C387 C 0.4434 0.48353 0.57924 0.0
C388 C 0.49277 0.55933 0.58033 0.0
C389 C 0.46775 0.43287 0.57954 0.0
C390 C 0.54249 0.45594 0.5809 0.0
H391 H 0.38524 0.46291 0.57805 0.0
H392 H 0.42761 0.37522 0.57851 0.0
S393 S 0.69425 0.64824 0.58485 0.0
N394 N 0.61993 0.65485 0.58334 0.0
N395 N 0.66585 0.55993 0.58389 0.0
C396 C 0.59251 0.53158 0.58223 0.0
C397 C 0.56764 0.58317 0.58196 0.0
C398 C 0.02841 0.45864 0.91365 0.0
C399 C 0.08068 0.53345 0.91478 0.0
C400 C 0.95351 0.43473 0.91308 0.0
C401 C 0.92779 0.48463 0.9136 0.0
H402 H 0.04537 0.4181 0.91301 0.0
H403 H 0.91553 0.3765 0.9121 0.0
S404 S 0.042 0.68658 0.91699 0.0
N405 N 0.10125 0.6575 0.91674 0.0
N406 N 0.96069 0.61239 0.91564 0.0
C407 C 0.97938 0.55957 0.91493 0.0
C408 C 0.0557 0.58399 0.91554 0.0
C409 C 0.42765 0.97932 0.2505 0.0
C410 C 0.44979 0.92706 0.25258 0.0
C411 C 0.47874 0.05444 0.2506 0.0
C412 C 0.55411 0.08044 0.25275 0.0
H413 H 0.37052 0.96219 0.24836 0.0
H414 H 0.45891 0.09238 0.24855 0.0
S415 S 0.64024 0.96641 0.26028 0.0
N416 N 0.55224 0.90685 0.25804 0.0
N417 N 0.64789 0.0478 0.25812 0.0
C418 C 0.57685 0.02887 0.25545 0.0
C419 C 0.52483 0.95233 0.2554 0.0
loop_
_geom_bond_atom_site_label_1
_geom_bond_atom_site_label_2
_geom_bond_distance
_geom_bond_site_symmetry_2
_ccdc_geom_bond_type
In0 O1 2.294 . S
In0 O2 2.326 . S
In0 O6 2.266 . S
In0 O7 2.326 . S
In0 O8 2.266 . S
In0 O9 2.326 . S
In0 O11 2.294 . S
In0 O12 2.326 . S
O1 In0 2.294 . S
O1 C10 1.240 . S
O2 In0 2.326 . S
O2 C10 1.252 . S
C3 O6 1.252 . S
C3 O7 1.260 . S
C4 O11 1.240 . S
C4 O12 1.252 . S
C5 O8 1.252 . S
C5 O9 1.260 . S
O6 In0 2.266 . S
O6 C3 1.252 . S
O7 In0 2.326 . S
O7 C3 1.260 . S
O8 In0 2.266 . S
O8 C5 1.252 . S
O9 In0 2.326 . S
O9 C5 1.260 . S
C10 O1 1.240 . S
C10 O2 1.252 . S
O11 In0 2.294 . S
O11 C4 1.240 . S
O12 In0 2.326 . S
O12 C4 1.252 . S
In13 O14 2.294 . S
In13 O15 2.326 . S
In13 O19 2.266 . S
In13 O20 2.326 . S
In13 O21 2.266 . S
In13 O22 2.326 . S
In13 O24 2.294 . S
In13 O25 2.326 . S
O14 In13 2.294 . S
O14 C23 1.240 . S
O15 In13 2.326 . S
O15 C23 1.252 . S
C16 O19 1.252 . S
C16 O20 1.260 . S
C17 O24 1.240 . S
C17 O25 1.252 . S
C18 O21 1.252 . S
C18 O22 1.260 . S
O19 In13 2.266 . S
O19 C16 1.252 . S
O20 In13 2.326 . S
O20 C16 1.260 . S
O21 In13 2.266 . S
O21 C18 1.252 . S
O22 In13 2.326 . S
O22 C18 1.260 . S
C23 O14 1.240 . S
C23 O15 1.252 . S
O24 In13 2.294 . S
O24 C17 1.240 . S
O25 In13 2.326 . S
O25 C17 1.252 . S
In26 O27 2.294 . S
In26 O28 2.326 . S
In26 O32 2.266 . S
In26 O33 2.326 . S
In26 O34 2.266 . S
In26 O35 2.326 . S
In26 O37 2.294 . S
In26 O38 2.326 . S
O27 In26 2.294 . S
O27 C36 1.240 . S
O28 In26 2.326 . S
O28 C36 1.252 . S
C29 O32 1.252 . S
C29 O33 1.260 . S
C30 O37 1.240 . S
C30 O38 1.252 . S
C31 O34 1.252 . S
C31 O35 1.260 . S
O32 In26 2.266 . S
O32 C29 1.252 . S
O33 In26 2.326 . S
O33 C29 1.260 . S
O34 In26 2.266 . S
O34 C31 1.252 . S
O35 In26 2.326 . S
O35 C31 1.260 . S
C36 O27 1.240 . S
C36 O28 1.252 . S
O37 In26 2.294 . S
O37 C30 1.240 . S
O38 In26 2.326 . S
O38 C30 1.252 . S
In39 O40 2.294 . S
In39 O41 2.326 . S
In39 O45 2.266 . S
In39 O46 2.326 . S
In39 O47 2.266 . S
In39 O48 2.326 . S
In39 O50 2.294 . S
In39 O51 2.326 . S
O40 In39 2.294 . S
O40 C49 1.240 . S
O41 In39 2.326 . S
O41 C49 1.252 . S
C42 O45 1.252 . S
C42 O46 1.260 . S
C43 O50 1.240 . S
C43 O51 1.252 . S
C44 O47 1.252 . S
C44 O48 1.260 . S
O45 In39 2.266 . S
O45 C42 1.252 . S
O46 In39 2.326 . S
O46 C42 1.260 . S
O47 In39 2.266 . S
O47 C44 1.252 . S
O48 In39 2.326 . S
O48 C44 1.260 . S
C49 O40 1.240 . S
C49 O41 1.252 . S
O50 In39 2.294 . S
O50 C43 1.240 . S
O51 In39 2.326 . S
O51 C43 1.252 . S
In52 O53 2.294 . S
In52 O54 2.326 . S
In52 O58 2.266 . S
In52 O59 2.326 . S
In52 O60 2.266 . S
In52 O61 2.326 . S
In52 O63 2.294 . S
In52 O64 2.326 . S
O53 In52 2.294 . S
O53 C62 1.240 . S
O54 In52 2.326 . S
O54 C62 1.252 . S
C55 O58 1.252 . S
C55 O59 1.260 . S
C56 O63 1.240 . S
C56 O64 1.252 . S
C57 O60 1.252 . S
C57 O61 1.260 . S
O58 In52 2.266 . S
O58 C55 1.252 . S
O59 In52 2.326 . S
O59 C55 1.260 . S
O60 In52 2.266 . S
O60 C57 1.252 . S
O61 In52 2.326 . S
O61 C57 1.260 . S
C62 O53 1.240 . S
C62 O54 1.252 . S
O63 In52 2.294 . S
O63 C56 1.240 . S
O64 In52 2.326 . S
O64 C56 1.252 . S
In65 O66 2.294 . S
In65 O67 2.326 . S
In65 O71 2.266 . S
In65 O72 2.326 . S
In65 O73 2.266 . S
In65 O74 2.326 . S
In65 O76 2.294 . S
In65 O77 2.326 . S
O66 In65 2.294 . S
O66 C75 1.240 . S
O67 In65 2.326 . S
O67 C75 1.252 . S
C68 O71 1.252 . S
C68 O72 1.260 . S
C69 O76 1.240 . S
C69 O77 1.252 . S
C70 O73 1.252 . S
C70 O74 1.260 . S
O71 In65 2.266 . S
O71 C68 1.252 . S
O72 In65 2.326 . S
O72 C68 1.260 . S
O73 In65 2.266 . S
O73 C70 1.252 . S
O74 In65 2.326 . S
O74 C70 1.260 . S
C75 O66 1.240 . S
C75 O67 1.252 . S
O76 In65 2.294 . S
O76 C69 1.240 . S
O77 In65 2.326 . S
O77 C69 1.252 . S
In78 O79 2.294 . S
In78 O80 2.326 . S
In78 O84 2.266 . S
In78 O85 2.326 . S
In78 O86 2.266 . S
In78 O87 2.326 . S
In78 O89 2.294 . S
In78 O90 2.326 . S
O79 In78 2.294 . S
O79 C88 1.240 . S
O80 In78 2.326 . S
O80 C88 1.252 . S
C81 O84 1.252 . S
C81 O85 1.260 . S
C82 O89 1.240 . S
C82 O90 1.252 . S
C83 O86 1.252 . S
C83 O87 1.260 . S
O84 In78 2.266 . S
O84 C81 1.252 . S
O85 In78 2.326 . S
O85 C81 1.260 . S
O86 In78 2.266 . S
O86 C83 1.252 . S
O87 In78 2.326 . S
O87 C83 1.260 . S
C88 O79 1.240 . S
C88 O80 1.252 . S
O89 In78 2.294 . S
O89 C82 1.240 . S
O90 In78 2.326 . S
O90 C82 1.252 . S
In91 O92 2.294 . S
In91 O93 2.326 . S
In91 O97 2.266 . S
In91 O98 2.326 . S
In91 O99 2.266 . S
In91 O100 2.326 . S
In91 O102 2.294 . S
In91 O103 2.326 . S
O92 In91 2.294 . S
O92 C101 1.240 . S
O93 In91 2.326 . S
O93 C101 1.252 . S
C94 O97 1.252 . S
C94 O98 1.260 . S
C95 O102 1.240 . S
C95 O103 1.252 . S
C96 O99 1.252 . S
C96 O100 1.260 . S
O97 In91 2.266 . S
O97 C94 1.252 . S
O98 In91 2.326 . S
O98 C94 1.260 . S
O99 In91 2.266 . S
O99 C96 1.252 . S
O100 In91 2.326 . S
O100 C96 1.260 . S
C101 O92 1.240 . S
C101 O93 1.252 . S
O102 In91 2.294 . S
O102 C95 1.240 . S
O103 In91 2.326 . S
O103 C95 1.252 . S
In104 O105 2.294 . S
In104 O106 2.326 . S
In104 O110 2.266 . S
In104 O111 2.326 . S
In104 O112 2.266 . S
In104 O113 2.326 . S
In104 O115 2.294 . S
In104 O116 2.326 . S
O105 In104 2.294 . S
O105 C114 1.240 . S
O106 In104 2.326 . S
O106 C114 1.252 . S
C107 O110 1.252 . S
C107 O111 1.260 . S
C108 O115 1.240 . S
C108 O116 1.252 . S
C109 O112 1.252 . S
C109 O113 1.260 . S
O110 In104 2.266 . S
O110 C107 1.252 . S
O111 In104 2.326 . S
O111 C107 1.260 . S
O112 In104 2.266 . S
O112 C109 1.252 . S
O113 In104 2.326 . S
O113 C109 1.260 . S
C114 O105 1.240 . S
C114 O106 1.252 . S
O115 In104 2.294 . S
O115 C108 1.240 . S
O116 In104 2.326 . S
O116 C108 1.252 . S
In117 O118 2.294 . S
In117 O119 2.326 . S
In117 O123 2.266 . S
In117 O124 2.326 . S
In117 O125 2.266 . S
In117 O126 2.326 . S
In117 O128 2.294 . S
In117 O129 2.326 . S
O118 In117 2.294 . S
O118 C127 1.240 . S
O119 In117 2.326 . S
O119 C127 1.252 . S
C120 O123 1.252 . S
C120 O124 1.260 . S
C121 O128 1.240 . S
C121 O129 1.252 . S
C122 O125 1.252 . S
C122 O126 1.260 . S
O123 In117 2.266 . S
O123 C120 1.252 . S
O124 In117 2.326 . S
O124 C120 1.260 . S
O125 In117 2.266 . S
O125 C122 1.252 . S
O126 In117 2.326 . S
O126 C122 1.260 . S
C127 O118 1.240 . S
C127 O119 1.252 . S
O128 In117 2.294 . S
O128 C121 1.240 . S
O129 In117 2.326 . S
O129 C121 1.252 . S
In130 O131 2.294 . S
In130 O132 2.326 . S
In130 O136 2.266 . S
In130 O137 2.326 . S
In130 O138 2.266 . S
In130 O139 2.326 . S
In130 O141 2.294 . S
In130 O142 2.326 . S
O131 In130 2.294 . S
O131 C140 1.240 . S
O132 In130 2.326 . S
O132 C140 1.252 . S
C133 O136 1.252 . S
C133 O137 1.260 . S
C134 O141 1.240 . S
C134 O142 1.252 . S
C135 O138 1.252 . S
C135 O139 1.260 . S
O136 In130 2.266 . S
O136 C133 1.252 . S
O137 In130 2.326 . S
O137 C133 1.260 . S
O138 In130 2.266 . S
O138 C135 1.252 . S
O139 In130 2.326 . S
O139 C135 1.260 . S
C140 O131 1.240 . S
C140 O132 1.252 . S
O141 In130 2.294 . S
O141 C134 1.240 . S
O142 In130 2.326 . S
O142 C134 1.252 . S
In143 O144 2.294 . S
In143 O145 2.326 . S
In143 O149 2.266 . S
In143 O150 2.326 . S
In143 O151 2.266 . S
In143 O152 2.326 . S
In143 O154 2.294 . S
In143 O155 2.326 . S
O144 In143 2.294 . S
O144 C153 1.240 . S
O145 In143 2.326 . S
O145 C153 1.252 . S
C146 O149 1.252 . S
C146 O150 1.260 . S
C147 O154 1.240 . S
C147 O155 1.252 . S
C148 O151 1.252 . S
C148 O152 1.260 . S
O149 In143 2.266 . S
O149 C146 1.252 . S
O150 In143 2.326 . S
O150 C146 1.260 . S
O151 In143 2.266 . S
O151 C148 1.252 . S
O152 In143 2.326 . S
O152 C148 1.260 . S
C153 O144 1.240 . S
C153 O145 1.252 . S
O154 In143 2.294 . S
O154 C147 1.240 . S
O155 In143 2.326 . S
O155 C147 1.252 . S
C156 C157 1.369 . S
C156 C158 1.419 1_556 S
C156 H160 0.930 . S
C157 C156 1.369 . S
C157 C166 1.429 . S
C158 C156 1.419 1_554 S
C158 C159 1.363 . S
C158 H161 0.929 . S
C159 C158 1.363 . S
C159 C165 1.428 . S
H160 C156 0.930 . S
H161 C158 0.929 . S
S162 N163 1.613 . S
S162 N164 1.610 1_556 S
N163 S162 1.613 . S
N163 C166 1.350 . S
N164 S162 1.610 1_554 S
N164 C165 1.351 . S
C165 C159 1.428 . S
C165 N164 1.351 . S
C165 C166 1.434 1_554 S
C166 C157 1.429 . S
C166 N163 1.350 . S
C166 C165 1.434 1_556 S
C167 C168 1.369 . S
C167 C169 1.419 . S
C167 H171 0.930 . S
C168 C167 1.369 . S
C168 C177 1.429 . S
C169 C167 1.419 . S
C169 C170 1.363 . S
C169 H172 0.929 . S
C170 C169 1.363 . S
C170 C176 1.428 . S
H171 C167 0.930 . S
H172 C169 0.929 . S
S173 N174 1.613 . S
S173 N175 1.610 . S
N174 S173 1.613 . S
N174 C177 1.350 . S
N175 S173 1.610 . S
N175 C176 1.351 . S
C176 C170 1.428 . S
C176 N175 1.351 . S
C176 C177 1.434 . S
C177 C168 1.429 . S
C177 N174 1.350 . S
C177 C176 1.434 . S
C178 C179 1.369 . S
C178 C180 1.419 . S
C178 H182 0.930 . S
C179 C178 1.369 . S
C179 C188 1.429 . S
C180 C178 1.419 . S
C180 C181 1.363 . S
C180 H183 0.929 . S
C181 C180 1.363 . S
C181 C187 1.428 . S
H182 C178 0.930 . S
H183 C180 0.929 . S
S184 N185 1.613 . S
S184 N186 1.610 . S
N185 S184 1.613 . S
N185 C188 1.350 . S
N186 S184 1.610 . S
N186 C187 1.351 . S
C187 C181 1.428 . S
C187 N186 1.351 . S
C187 C188 1.434 . S
C188 C179 1.429 . S
C188 N185 1.350 . S
C188 C187 1.434 . S
C189 C190 1.369 . S
C189 C191 1.419 1_554 S
C189 H193 0.930 . S
C190 C189 1.369 . S
C190 C199 1.429 . S
C191 C189 1.419 1_556 S
C191 C192 1.363 . S
C191 H194 0.929 . S
C192 C191 1.363 . S
C192 C198 1.428 . S
H193 C189 0.930 . S
H194 C191 0.929 . S
S195 N196 1.613 1_556 S
S195 N197 1.610 . S
N196 S195 1.613 1_554 S
N196 C199 1.350 . S
N197 S195 1.610 . S
N197 C198 1.351 . S
C198 C192 1.428 . S
C198 N197 1.351 . S
C198 C199 1.434 1_556 S
C199 C190 1.429 . S
C199 N196 1.350 . S
C199 C198 1.434 1_554 S
C200 C201 1.369 . S
C200 C202 1.419 . S
C200 H204 0.930 . S
C201 C200 1.369 . S
C201 C210 1.429 . S
C202 C200 1.419 . S
C202 C203 1.363 . S
C202 H205 0.929 . S
C203 C202 1.363 . S
C203 C209 1.428 . S
H204 C200 0.930 . S
H205 C202 0.929 . S
S206 N207 1.613 . S
S206 N208 1.610 . S
N207 S206 1.613 . S
N207 C210 1.350 . S
N208 S206 1.610 . S
N208 C209 1.351 . S
C209 C203 1.428 . S
C209 N208 1.351 . S
C209 C210 1.434 . S
C210 C201 1.429 . S
C210 N207 1.350 . S
C210 C209 1.434 . S
C211 C212 1.369 . S
C211 C213 1.419 . S
C211 H215 0.930 . S
C212 C211 1.369 . S
C212 C221 1.429 . S
C213 C211 1.419 . S
C213 C214 1.363 . S
C213 H216 0.929 . S
C214 C213 1.363 . S
C214 C220 1.428 . S
H215 C211 0.930 . S
H216 C213 0.929 . S
S217 N218 1.613 . S
S217 N219 1.610 . S
N218 S217 1.613 . S
N218 C221 1.350 . S
N219 S217 1.610 . S
N219 C220 1.351 . S
C220 C214 1.428 . S
C220 N219 1.351 . S
C220 C221 1.434 . S
C221 C212 1.429 . S
C221 N218 1.350 . S
C221 C220 1.434 . S
C222 C223 1.369 . S
C222 C224 1.419 . S
C222 H226 0.930 . S
C223 C222 1.369 . S
C223 C232 1.429 . S
C224 C222 1.419 . S
C224 C225 1.363 . S
C224 H227 0.929 . S
C225 C224 1.363 . S
C225 C231 1.428 . S
H226 C222 0.930 . S
H227 C224 0.929 . S
S228 N229 1.613 . S
S228 N230 1.610 . S
N229 S228 1.613 . S
N229 C232 1.350 . S
N230 S228 1.610 . S
N230 C231 1.351 . S
C231 C225 1.428 . S
C231 N230 1.351 . S
C231 C232 1.434 . S
C232 C223 1.429 . S
C232 N229 1.350 . S
C232 C231 1.434 . S
C233 C234 1.369 . S
C233 C235 1.419 . S
C233 H237 0.930 . S
C234 C233 1.369 . S
C234 C243 1.429 . S
C235 C233 1.419 . S
C235 C236 1.363 . S
C235 H238 0.929 . S
C236 C235 1.363 . S
C236 C242 1.428 . S
H237 C233 0.930 . S
H238 C235 0.929 . S
S239 N240 1.613 . S
S239 N241 1.610 . S
N240 S239 1.613 . S
N240 C243 1.350 . S
N241 S239 1.610 . S
N241 C242 1.351 . S
C242 C236 1.428 . S
C242 N241 1.351 . S
C242 C243 1.434 . S
C243 C234 1.429 . S
C243 N240 1.350 . S
C243 C242 1.434 . S
C244 C245 1.369 . S
C244 C246 1.419 . S
C244 H248 0.930 . S
C245 C244 1.369 . S
C245 C254 1.429 . S
C246 C244 1.419 . S
C246 C247 1.363 . S
C246 H249 0.929 . S
C247 C246 1.363 . S
C247 C253 1.428 . S
H248 C244 0.930 . S
H249 C246 0.929 . S
S250 N251 1.613 . S
S250 N252 1.610 . S
N251 S250 1.613 . S
N251 C254 1.350 . S
N252 S250 1.610 . S
N252 C253 1.351 . S
C253 C247 1.428 . S
C253 N252 1.351 . S
C253 C254 1.434 . S
C254 C245 1.429 . S
C254 N251 1.350 . S
C254 C253 1.434 . S
C255 C256 1.369 . S
C255 C257 1.419 . S
C255 H259 0.930 . S
C256 C255 1.369 . S
C256 C265 1.429 . S
C257 C255 1.419 . S
C257 C258 1.363 . S
C257 H260 0.929 . S
C258 C257 1.363 . S
C258 C264 1.428 . S
H259 C255 0.930 . S
H260 C257 0.929 . S
S261 N262 1.613 . S
S261 N263 1.610 . S
N262 S261 1.613 . S
N262 C265 1.350 . S
N263 S261 1.610 . S
N263 C264 1.351 . S
C264 C258 1.428 . S
C264 N263 1.351 . S
C264 C265 1.434 . S
C265 C256 1.429 . S
C265 N262 1.350 . S
C265 C264 1.434 . S
C266 C267 1.369 . S
C266 C268 1.419 . S
C266 H270 0.930 . S
C267 C266 1.369 . S
C267 C276 1.429 . S
C268 C266 1.419 . S
C268 C269 1.363 . S
C268 H271 0.929 . S
C269 C268 1.363 . S
C269 C275 1.428 . S
H270 C266 0.930 . S
H271 C268 0.929 . S
S272 N273 1.613 . S
S272 N274 1.610 . S
N273 S272 1.613 . S
N273 C276 1.350 . S
N274 S272 1.610 . S
N274 C275 1.351 . S
C275 C269 1.428 . S
C275 N274 1.351 . S
C275 C276 1.434 . S
C276 C267 1.429 . S
C276 N273 1.350 . S
C276 C275 1.434 . S
C277 C278 1.369 . S
C277 C279 1.419 . S
C277 H281 0.930 . S
C278 C277 1.369 . S
C278 C287 1.429 . S
C279 C277 1.419 . S
C279 C280 1.363 . S
C279 H282 0.929 . S
C280 C279 1.363 . S
C280 C286 1.428 . S
H281 C277 0.930 . S
H282 C279 0.929 . S
S283 N284 1.613 . S
S283 N285 1.610 . S
N284 S283 1.613 . S
N284 C287 1.350 . S
N285 S283 1.610 . S
N285 C286 1.351 . S
C286 C280 1.428 . S
C286 N285 1.351 . S
C286 C287 1.434 . S
C287 C278 1.429 . S
C287 N284 1.350 . S
C287 C286 1.434 . S
C288 C289 1.369 . S
C288 C290 1.419 1_655 S
C288 H292 0.930 . S
C289 C288 1.369 . S
C289 C298 1.429 . S
C290 C288 1.419 1_455 S
C290 C291 1.363 . S
C290 H293 0.929 . S
C291 C290 1.363 . S
C291 C297 1.428 . S
H292 C288 0.930 . S
H293 C290 0.929 . S
S294 N295 1.613 . S
S294 N296 1.610 1_655 S
N295 S294 1.613 . S
N295 C298 1.350 . S
N296 S294 1.610 1_455 S
N296 C297 1.351 . S
C297 C291 1.428 . S
C297 N296 1.351 . S
C297 C298 1.434 1_455 S
C298 C289 1.429 . S
C298 N295 1.350 . S
C298 C297 1.434 1_655 S
C299 C300 1.369 . S
C299 C301 1.419 1_545 S
C299 H303 0.930 . S
C300 C299 1.369 . S
C300 C309 1.429 . S
C301 C299 1.419 1_565 S
C301 C302 1.363 . S
C301 H304 0.929 . S
C302 C301 1.363 . S
C302 C308 1.428 . S
H303 C299 0.930 . S
H304 C301 0.929 . S
S305 N306 1.613 1_565 S
S305 N307 1.610 . S
N306 S305 1.613 1_545 S
N306 C309 1.350 . S
N307 S305 1.610 . S
N307 C308 1.351 . S
C308 C302 1.428 . S
C308 N307 1.351 . S
C308 C309 1.434 1_565 S
C309 C300 1.429 . S
C309 N306 1.350 . S
C309 C308 1.434 1_545 S
C310 C311 1.369 . S
C310 C312 1.419 . S
C310 H314 0.930 . S
C311 C310 1.369 . S
C311 C320 1.429 . S
C312 C310 1.419 . S
C312 C313 1.363 . S
C312 H315 0.929 . S
C313 C312 1.363 . S
C313 C319 1.428 . S
H314 C310 0.930 . S
H315 C312 0.929 . S
S316 N317 1.613 . S
S316 N318 1.610 . S
N317 S316 1.613 . S
N317 C320 1.350 . S
N318 S316 1.610 . S
N318 C319 1.351 . S
C319 C313 1.428 . S
C319 N318 1.351 . S
C319 C320 1.434 . S
C320 C311 1.429 . S
C320 N317 1.350 . S
C320 C319 1.434 . S
C321 C322 1.369 . S
C321 C323 1.419 1_545 S
C321 H325 0.930 . S
C322 C321 1.369 . S
C322 C331 1.429 . S
C323 C321 1.419 1_565 S
C323 C324 1.363 . S
C323 H326 0.929 . S
C324 C323 1.363 . S
C324 C330 1.428 . S
H325 C321 0.930 . S
H326 C323 0.929 . S
S327 N328 1.613 . S
S327 N329 1.610 1_545 S
N328 S327 1.613 . S
N328 C331 1.350 . S
N329 S327 1.610 1_565 S
N329 C330 1.351 . S
C330 C324 1.428 . S
C330 N329 1.351 . S
C330 C331 1.434 1_565 S
C331 C322 1.429 . S
C331 N328 1.350 . S
C331 C330 1.434 1_545 S
C332 C333 1.369 . S
C332 C334 1.419 . S
C332 H336 0.930 . S
C333 C332 1.369 . S
C333 C342 1.429 . S
C334 C332 1.419 . S
C334 C335 1.363 . S
C334 H337 0.929 . S
C335 C334 1.363 . S
C335 C341 1.428 . S
H336 C332 0.930 . S
H337 C334 0.929 . S
S338 N339 1.613 . S
S338 N340 1.610 . S
N339 S338 1.613 . S
N339 C342 1.350 . S
N340 S338 1.610 . S
N340 C341 1.351 . S
C341 C335 1.428 . S
C341 N340 1.351 . S
C341 C342 1.434 . S
C342 C333 1.429 . S
C342 N339 1.350 . S
C342 C341 1.434 . S
C343 C344 1.369 . S
C343 C345 1.419 1_455 S
C343 H347 0.930 . S
C344 C343 1.369 . S
C344 C353 1.429 . S
C345 C343 1.419 1_655 S
C345 C346 1.363 . S
C345 H348 0.929 . S
C346 C345 1.363 . S
C346 C352 1.428 . S
H347 C343 0.930 . S
H348 C345 0.929 . S
S349 N350 1.613 . S
S349 N351 1.610 1_455 S
N350 S349 1.613 . S
N350 C353 1.350 . S
N351 S349 1.610 1_655 S
N351 C352 1.351 . S
C352 C346 1.428 . S
C352 N351 1.351 . S
C352 C353 1.434 1_655 S
C353 C344 1.429 . S
C353 N350 1.350 . S
C353 C352 1.434 1_455 S
C354 C355 1.369 . S
C354 C356 1.419 . S
C354 H358 0.930 . S
C355 C354 1.369 . S
C355 C364 1.429 . S
C356 C354 1.419 . S
C356 C357 1.363 . S
C356 H359 0.929 . S
C357 C356 1.363 . S
C357 C363 1.428 . S
H358 C354 0.930 . S
H359 C356 0.929 . S
S360 N361 1.613 . S
S360 N362 1.610 . S
N361 S360 1.613 . S
N361 C364 1.350 . S
N362 S360 1.610 . S
N362 C363 1.351 . S
C363 C357 1.428 . S
C363 N362 1.351 . S
C363 C364 1.434 . S
C364 C355 1.429 . S
C364 N361 1.350 . S
C364 C363 1.434 . S
C365 C366 1.369 . S
C365 C367 1.419 1_655 S
C365 H369 0.930 . S
C366 C365 1.369 . S
C366 C375 1.429 . S
C367 C365 1.419 1_455 S
C367 C368 1.363 . S
C367 H370 0.929 . S
C368 C367 1.363 . S
C368 C374 1.428 . S
H369 C365 0.930 . S
H370 C367 0.929 . S
S371 N372 1.613 . S
S371 N373 1.610 1_655 S
N372 S371 1.613 . S
N372 C375 1.350 . S
N373 S371 1.610 1_455 S
N373 C374 1.351 . S
C374 C368 1.428 . S
C374 N373 1.351 . S
C374 C375 1.434 1_455 S
C375 C366 1.429 . S
C375 N372 1.350 . S
C375 C374 1.434 1_655 S
C376 C377 1.369 . S
C376 C378 1.419 1_545 S
C376 H380 0.930 . S
C377 C376 1.369 . S
C377 C386 1.429 . S
C378 C376 1.419 1_565 S
C378 C379 1.363 . S
C378 H381 0.929 . S
C379 C378 1.363 . S
C379 C385 1.428 . S
H380 C376 0.930 . S
H381 C378 0.929 . S
S382 N383 1.613 1_565 S
S382 N384 1.610 . S
N383 S382 1.613 1_545 S
N383 C386 1.350 . S
N384 S382 1.610 . S
N384 C385 1.351 . S
C385 C379 1.428 . S
C385 N384 1.351 . S
C385 C386 1.434 1_565 S
C386 C377 1.429 . S
C386 N383 1.350 . S
C386 C385 1.434 1_545 S
C387 C388 1.369 . S
C387 C389 1.419 . S
C387 H391 0.930 . S
C388 C387 1.369 . S
C388 C397 1.429 . S
C389 C387 1.419 . S
C389 C390 1.363 . S
C389 H392 0.929 . S
C390 C389 1.363 . S
C390 C396 1.428 . S
H391 C387 0.930 . S
H392 C389 0.929 . S
S393 N394 1.613 . S
S393 N395 1.610 . S
N394 S393 1.613 . S
N394 C397 1.350 . S
N395 S393 1.610 . S
N395 C396 1.351 . S
C396 C390 1.428 . S
C396 N395 1.351 . S
C396 C397 1.434 . S
C397 C388 1.429 . S
C397 N394 1.350 . S
C397 C396 1.434 . S
C398 C399 1.369 . S
C398 C400 1.419 1_455 S
C398 H402 0.930 . S
C399 C398 1.369 . S
C399 C408 1.429 . S
C400 C398 1.419 1_655 S
C400 C401 1.363 . S
C400 H403 0.929 . S
C401 C400 1.363 . S
C401 C407 1.428 . S
H402 C398 0.930 . S
H403 C400 0.929 . S
S404 N405 1.613 . S
S404 N406 1.610 1_455 S
N405 S404 1.613 . S
N405 C408 1.350 . S
N406 S404 1.610 1_655 S
N406 C407 1.351 . S
C407 C401 1.428 . S
C407 N406 1.351 . S
C407 C408 1.434 1_655 S
C408 C399 1.429 . S
C408 N405 1.350 . S
C408 C407 1.434 1_455 S
C409 C410 1.369 . S
C409 C411 1.419 1_565 S
C409 H413 0.930 . S
C410 C409 1.369 . S
C410 C419 1.429 . S
C411 C409 1.419 1_545 S
C411 C412 1.363 . S
C411 H414 0.929 . S
C412 C411 1.363 . S
C412 C418 1.428 . S
H413 C409 0.930 . S
H414 C411 0.929 . S
S415 N416 1.613 . S
S415 N417 1.610 1_565 S
N416 S415 1.613 . S
N416 C419 1.350 . S
N417 S415 1.610 1_545 S
N417 C418 1.351 . S
C418 C412 1.428 . S
C418 N417 1.351 . S
C418 C419 1.434 1_545 S
C419 C410 1.429 . S
C419 N416 1.350 . S
C419 C418 1.434 1_565 S
C157 C134 1.416 . S
C159 C10 1.416 . S
C168 C17 1.420 . S
C170 C147 1.417 . S
C179 C36 1.416 . S
C181 C82 1.416 . S
C190 C49 1.422 . S
C192 C95 1.420 . S
C201 C108 1.422 . S
C203 C56 1.419 . S
C212 C69 1.421 . S
C214 C127 1.419 . S
C223 C109 1.450 . S
C225 C3 1.441 . S
C234 C18 1.443 . S
C236 C120 1.445 . S
C245 C29 1.442 . S
C247 C135 1.440 . S
C256 C42 1.439 . S
C258 C148 1.445 . S
C267 C83 1.449 . S
C269 C57 1.443 . S
C278 C96 1.441 . S
C280 C70 1.451 . S
C289 C44 1.315 . S
C291 C5 1.318 . S
C300 C16 1.318 . S
C302 C55 1.313 . S
C311 C68 1.316 . S
C313 C31 1.315 . S
C322 C122 1.314 . S
C324 C81 1.318 . S
C333 C133 1.315 . S
C335 C94 1.318 . S
C344 C107 1.313 . S
C346 C146 1.319 . S
C355 C43 1.593 . S
C357 C4 1.594 . S
C366 C23 1.591 . S
C368 C62 1.595 . S
C377 C75 1.596 . S
C379 C30 1.592 . S
C388 C88 1.595 . S
C390 C121 1.592 . S
C399 C140 1.591 . S
C401 C101 1.595 . S
C410 C114 1.592 . S
C412 C153 1.594 . S
