# Generated by pormake.
# Topology wje, (4)-cn, num edge types: 1
# Building blocks:
#     Node 0, Type 0, BuildingBlock: QUQFOY_clean_sbu_3, # of connection points: 4
#     Node 1, Type 0, BuildingBlock: QUQFOY_clean_sbu_3, # of connection points: 4
#     Node 2, Type 0, BuildingBlock: QUQFOY_clean_sbu_3, # of connection points: 4
#     Node 3, Type 0, BuildingBlock: QUQFOY_clean_sbu_3, # of connection points: 4
#     Node 4, Type 0, BuildingBlock: QUQFOY_clean_sbu_3, # of connection points: 4
#     Node 5, Type 0, BuildingBlock: QUQFOY_clean_sbu_3, # of connection points: 4
#     Node 6, Type 0, BuildingBlock: QUQFOY_clean_sbu_3, # of connection points: 4
#     Node 7, Type 0, BuildingBlock: QUQFOY_clean_sbu_3, # of connection points: 4
#     Node 8, Type 0, BuildingBlock: QUQFOY_clean_sbu_3, # of connection points: 4
#     Node 9, Type 0, BuildingBlock: QUQFOY_clean_sbu_3, # of connection points: 4
#     Node 10, Type 0, BuildingBlock: QUQFOY_clean_sbu_3, # of connection points: 4
#     Node 11, Type 0, BuildingBlock: QUQFOY_clean_sbu_3, # of connection points: 4
#     Edge 12, Type (0, 0), BuildingBlock: XUDNAN_clean_linker_2, # of connection points: 2
#     Edge 13, Type (0, 0), BuildingBlock: XUDNAN_clean_linker_2, # of connection points: 2
#     Edge 14, Type (0, 0), BuildingBlock: XUDNAN_clean_linker_2, # of connection points: 2
#     Edge 15, Type (0, 0), BuildingBlock: XUDNAN_clean_linker_2, # of connection points: 2
#     Edge 16, Type (0, 0), BuildingBlock: XUDNAN_clean_linker_2, # of connection points: 2
#     Edge 17, Type (0, 0), BuildingBlock: XUDNAN_clean_linker_2, # of connection points: 2
#     Edge 18, Type (0, 0), BuildingBlock: XUDNAN_clean_linker_2, # of connection points: 2
#     Edge 19, Type (0, 0), BuildingBlock: XUDNAN_clean_linker_2, # of connection points: 2
#     Edge 20, Type (0, 0), BuildingBlock: XUDNAN_clean_linker_2, # of connection points: 2
#     Edge 21, Type (0, 0), BuildingBlock: XUDNAN_clean_linker_2, # of connection points: 2
#     Edge 22, Type (0, 0), BuildingBlock: XUDNAN_clean_linker_2, # of connection points: 2
#     Edge 23, Type (0, 0), BuildingBlock: XUDNAN_clean_linker_2, # of connection points: 2
#     Edge 24, Type (0, 0), BuildingBlock: XUDNAN_clean_linker_2, # of connection points: 2
#     Edge 25, Type (0, 0), BuildingBlock: XUDNAN_clean_linker_2, # of connection points: 2
#     Edge 26, Type (0, 0), BuildingBlock: XUDNAN_clean_linker_2, # of connection points: 2
#     Edge 27, Type (0, 0), BuildingBlock: XUDNAN_clean_linker_2, # of connection points: 2
#     Edge 28, Type (0, 0), BuildingBlock: XUDNAN_clean_linker_2, # of connection points: 2
#     Edge 29, Type (0, 0), BuildingBlock: XUDNAN_clean_linker_2, # of connection points: 2
#     Edge 30, Type (0, 0), BuildingBlock: XUDNAN_clean_linker_2, # of connection points: 2
#     Edge 31, Type (0, 0), BuildingBlock: XUDNAN_clean_linker_2, # of connection points: 2
#     Edge 32, Type (0, 0), BuildingBlock: XUDNAN_clean_linker_2, # of connection points: 2
#     Edge 33, Type (0, 0), BuildingBlock: XUDNAN_clean_linker_2, # of connection points: 2
#     Edge 34, Type (0, 0), BuildingBlock: XUDNAN_clean_linker_2, # of connection points: 2
#     Edge 35, Type (0, 0), BuildingBlock: XUDNAN_clean_linker_2, # of connection points: 2
# Relax obj value: 0.146
# Max RMSD: 0.092
# Mean RMSD: 0.092
data_MOF--net-wje--node1-QUQFOY_clean_sbu_3--edge1-XUDNAN_clean_linker_2
_symmetry_space_group_name_H-M    P1
_symmetry_Int_Tables_number       1
_symmetry_cell_setting            triclinic
loop_
_symmetry_equiv_pos_as_xyz
'x, y, z'
_cell_length_a     41.560165
_cell_length_b     41.305299
_cell_length_c     38.920707
_cell_angle_alpha  90.049733
_cell_angle_beta   89.933001
_cell_angle_gamma 120.12283
loop_
_atom_site_label
_atom_site_type_symbol
_atom_site_fract_x
_atom_site_fract_y
_atom_site_fract_z
_atom_type_partial_charge
C0 C 0.30227 0.96211 0.2746 0.0
O1 O 0.32689 0.95302 0.26953 0.0
Cd2 Cd 0.38787 -0.00647 0.29132 0.0
O3 O 0.31155 -0.00492 0.28432 0.0
Cd4 Cd 0.36583 0.05747 0.29479 0.0
C5 C 0.35819 0.01302 0.3689 0.0
O6 O 0.41391 0.05327 0.26426 0.0
O7 O 0.43296 0.09366 0.30561 0.0
O8 O 0.34817 0.07882 0.24482 0.0
C9 C 0.44094 0.07931 0.28047 0.0
O10 O 0.3704 -0.00449 0.35113 0.0
C11 C 0.34507 0.10452 0.25954 0.0
O12 O 0.35362 0.03864 0.35553 0.0
O13 O 0.35148 0.10871 0.29174 0.0
C14 C 0.26169 0.24331 0.62589 0.0
O15 O 0.27579 0.25384 0.59633 0.0
Cd16 Cd 0.3196 0.31666 0.61884 0.0
O17 O 0.27221 0.26809 0.64897 0.0
Cd18 Cd 0.31853 0.33405 0.62499 0.0
C19 C 0.33098 0.32637 0.69894 0.0
O20 O 0.37543 0.33554 0.59449 0.0
O21 O 0.38317 0.38522 0.6204 0.0
O22 O 0.27656 0.32298 0.57665 0.0
C23 C 0.39707 0.36941 0.60269 0.0
O24 O 0.33614 0.30637 0.67753 0.0
C25 C 0.27653 0.35352 0.57988 0.0
O26 O 0.32083 0.34845 0.68705 0.0
O27 O 0.29549 0.37503 0.60438 0.0
C28 C 0.00643 0.2959 0.9652 0.0
O29 O 0.01358 0.32961 0.96649 0.0
Cd30 Cd 0.97143 0.34953 0.98339 0.0
O31 O 0.9733 0.26883 0.96904 0.0
Cd32 Cd 0.91018 0.26012 0.97655 0.0
C33 C 0.94172 0.29318 0.05618 0.0
O34 O 0.91827 0.31523 0.94951 0.0
O35 O 0.87517 0.29316 0.98765 0.0
O36 O 0.88861 0.22355 0.92478 0.0
C37 C 0.89305 0.31797 0.96503 0.0
O38 O 0.9574 0.32559 0.04244 0.0
C39 C 0.8618 0.19473 0.93844 0.0
O40 O 0.92434 0.26344 0.03815 0.0
O41 O 0.85768 0.19553 0.97082 0.0
C42 C 0.77759 0.03667 0.31517 0.0
O43 O 0.76911 0.04164 0.28522 0.0
Cd44 Cd 0.70304 0.01256 0.30191 0.0
O45 O 0.75114 0.01784 0.3357 0.0
Cd46 Cd 0.68739 -0.00636 0.30619 0.0
C47 C 0.6822 0.00331 0.38064 0.0
O48 O 0.67805 0.04485 0.27741 0.0
O49 O 0.63456 0.00487 0.31052 0.0
O50 O 0.70479 0.98069 0.24994 0.0
C51 C 0.64613 0.0328 0.29052 0.0
O52 O 0.70225 0.03153 0.36208 0.0
C53 C 0.68136 0.94598 0.24943 0.0
O54 O 0.66565 0.97156 0.36587 0.0
O55 O 0.66094 0.93216 0.27599 0.0
C56 C 0.65413 0.69561 0.62526 0.0
O57 O 0.62185 0.66686 0.62699 0.0
Cd58 Cd 0.60964 0.60513 0.6373 0.0
O59 O 0.68319 0.69254 0.62534 0.0
Cd60 Cd 0.70144 0.6437 0.62568 0.0
C61 C 0.66891 0.6324 0.70787 0.0
O62 O 0.64804 0.59918 0.59638 0.0
O63 O 0.67749 0.57456 0.61952 0.0
O64 O 0.73941 0.67386 0.57585 0.0
C65 C 0.65028 0.57019 0.60127 0.0
O66 O 0.63623 0.61486 0.69515 0.0
C67 C 0.76929 0.67722 0.58791 0.0
O68 O 0.69768 0.6466 0.6886 0.0
O69 O 0.76814 0.66561 0.61844 0.0
C70 C 0.88175 0.62262 0.95613 0.0
O71 O 0.87073 0.58804 0.95979 0.0
Cd72 Cd 0.91141 0.56432 0.96926 0.0
O73 O 0.91596 0.64621 0.95074 0.0
Cd74 Cd 0.97581 0.64804 0.94179 0.0
C75 C 0.96467 0.63635 0.02727 0.0
O76 O 0.95517 0.58539 0.92473 0.0
O77 O 0.00777 0.61205 0.95087 0.0
O78 O 0.98224 0.67178 0.88414 0.0
C79 C 0.98232 0.58296 0.93621 0.0
O80 O 0.94262 0.60192 0.02015 0.0
C81 C 0.01422 0.70037 0.88831 0.0
O82 O 0.98007 0.66093 0.00365 0.0
O83 O 0.0284 0.70567 0.91825 0.0
C84 C 0.06969 0.73758 0.33329 0.0
O85 O 0.07448 0.70993 0.328 0.0
Cd86 Cd 0.02902 0.64564 0.33185 0.0
O87 O 0.03858 0.73276 0.34421 0.0
Cd88 Cd 0.97637 0.6799 0.36137 0.0
C89 C 0.96891 0.65532 0.27703 0.0
O90 O -0.00053 0.64226 0.3841 0.0
O91 O 0.9401 0.6123 0.37818 0.0
O92 O 0.97934 0.71476 0.41259 0.0
C93 C 0.96908 0.61206 0.38793 0.0
O94 O -0.01036 0.64169 0.28417 0.0
C95 C 0.9464 0.70902 0.41027 0.0
O96 O 0.96082 0.67255 0.29961 0.0
O97 O 0.92797 0.6917 0.38367 0.0
C98 C 0.2563 0.02693 0.69129 0.0
O99 O 0.29096 0.04653 0.69714 0.0
Cd100 Cd 0.33247 0.02273 0.69039 0.0
O101 O 0.2407 -0.00828 0.68687 0.0
Cd102 Cd 0.25638 0.94169 0.69269 0.0
C103 C 0.29729 0.9723 0.61479 0.0
O104 O 0.31119 0.97201 0.72919 0.0
O105 O 0.29944 0.91987 0.70507 0.0
O106 O 0.21205 0.91461 0.73897 0.0
C107 C 0.31979 0.94685 0.72492 0.0
O108 O 0.32203 0.00094 0.6308 0.0
C109 C 0.19138 0.8834 0.7244 0.0
O110 O 0.26984 0.94575 0.63069 0.0
O111 O 0.2003 0.87927 0.69408 0.0
C112 C 0.24843 0.32747 0.01634 0.0
O113 O 0.27054 0.3625 0.01386 0.0
Cd114 Cd 0.33597 0.39363 0.01128 0.0
O115 O 0.2605 0.30514 0.0227 0.0
Cd116 Cd 0.32152 0.30966 0.03549 0.0
C117 C 0.33598 0.33041 0.95107 0.0
O118 O 0.35491 0.37155 0.05774 0.0
O119 O 0.38947 0.3519 0.03609 0.0
O120 O 0.29929 0.28082 0.09084 0.0
C121 C 0.38734 0.37833 0.05049 0.0
O122 O 0.34139 0.36244 0.96023 0.0
C123 C 0.30837 0.25588 0.08747 0.0
O124 O 0.32694 0.30412 0.97294 0.0
O125 O 0.32221 0.25445 0.05866 0.0
C126 C 0.96628 0.25907 0.38929 0.0
O127 O 0.9417 0.26844 0.39328 0.0
Cd128 Cd 0.9535 0.3293 0.37662 0.0
O129 O -0.00021 0.28345 0.38252 0.0
Cd130 Cd 0.04002 0.35176 0.37972 0.0
C131 C 0.00102 0.33471 0.30122 0.0
O132 O 0.0032 0.37306 0.41072 0.0
O133 O 0.04593 0.41304 0.37696 0.0
O134 O 0.07187 0.3411 0.4259 0.0
C135 C 0.02037 0.406 0.39855 0.0
O136 O 0.97291 0.33281 0.3164 0.0
C137 C 0.1045 0.36299 0.41486 0.0
O138 O 0.02953 0.33966 0.31797 0.0
O139 O 0.10765 0.37977 0.38655 0.0
C140 C 0.61473 0.90254 0.68376 0.0
O141 O 0.58047 0.89106 0.67878 0.0
Cd142 Cd 0.55491 0.93077 0.6797 0.0
O143 O 0.6368 0.93597 0.6938 0.0
Cd144 Cd 0.63475 -0.007 0.71133 0.0
C145 C 0.62273 -0.00333 0.6257 0.0
O146 O 0.57353 0.9601 0.7342 0.0
O147 O 0.59257 0.01819 0.72463 0.0
O148 O 0.66635 -0.00734 0.76339 0.0
C149 C 0.5678 0.98722 0.73716 0.0
O150 O 0.58971 0.9699 0.63087 0.0
C151 C 0.69093 0.02709 0.76276 0.0
O152 O 0.64563 0.01118 0.65053 0.0
O153 O 0.69055 0.04598 0.73708 0.0
C154 C 0.68184 0.65849 0.03973 0.0
O155 O 0.65422 0.62541 0.04108 0.0
Cd156 Cd 0.59401 0.60988 0.02201 0.0
O157 O 0.67707 0.68629 0.03475 0.0
Cd158 Cd 0.62609 0.70048 0.02877 0.0
C159 C 0.62834 0.66789 0.94981 0.0
O160 O 0.57633 0.64666 0.05388 0.0
O161 O 0.5591 0.67193 0.01536 0.0
O162 O 0.64223 0.73581 0.08138 0.0
C163 C 0.5499 0.64592 0.03724 0.0
O164 O 0.6104 0.63542 0.9634 0.0
C165 C 0.64619 0.76568 0.06816 0.0
O166 O 0.63932 0.69754 0.96775 0.0
O167 O 0.64195 0.7659 0.03575 0.0
H168 H 0.34707 0.11215 0.18995 0.0
H169 H 0.32053 0.15097 0.28361 0.0
H170 H 0.30341 0.19039 0.249 0.0
H171 H 0.38978 0.19964 0.1472 0.0
H172 H 0.37275 0.17989 0.10528 0.0
H173 H 0.38018 0.15297 0.13735 0.0
H174 H 0.31179 0.0996 0.13066 0.0
H175 H 0.30406 0.12648 0.09868 0.0
H176 H 0.27464 0.10971 0.13614 0.0
H177 H 0.29028 0.22611 0.20405 0.0
H178 H 0.28732 0.25986 0.15307 0.0
H179 H 0.32492 0.1992 0.08898 0.0
C180 C 0.33732 0.12866 0.20323 0.0
C181 C 0.33483 0.12835 0.23947 0.0
C182 C 0.32257 0.15081 0.25588 0.0
C183 C 0.31262 0.17308 0.23642 0.0
C184 C 0.31537 0.17266 0.20069 0.0
C185 C 0.32774 0.15128 0.1843 0.0
C186 C 0.33038 0.15745 0.1458 0.0
C187 C 0.37066 0.17345 0.13318 0.0
C188 C 0.30362 0.12114 0.1267 0.0
C189 C 0.31793 0.18604 0.14303 0.0
C190 C 0.30888 0.19401 0.17492 0.0
C191 C 0.29723 0.22003 0.17897 0.0
C192 C 0.29557 0.23899 0.14979 0.0
C193 C 0.3059 0.23217 0.11699 0.0
C194 C 0.31668 0.2049 0.11363 0.0
H195 H 0.21115 0.30594 0.5488 0.0
H196 H 0.29536 0.42324 0.55625 0.0
H197 H 0.26237 0.43857 0.51174 0.0
H198 H 0.19395 0.30212 0.45869 0.0
H199 H 0.14442 0.27143 0.46274 0.0
H200 H 0.17535 0.26981 0.49417 0.0
H201 H 0.14005 0.28186 0.54293 0.0
H202 H 0.10874 0.28302 0.5117 0.0
H203 H 0.13395 0.32203 0.54042 0.0
H204 H 0.22121 0.43982 0.46376 0.0
H205 H 0.17027 0.42857 0.42355 0.0
H206 H 0.11107 0.3114 0.45233 0.0
C207 C 0.22259 0.33486 0.54105 0.0
C208 C 0.25582 0.36345 0.55556 0.0
C209 C 0.26979 0.40103 0.54533 0.0
C210 C 0.25143 0.4099 0.51996 0.0
C211 C 0.21886 0.38088 0.50574 0.0
C212 C 0.20418 0.34424 0.51652 0.0
C213 C 0.16775 0.31845 0.49885 0.0
C214 C 0.17056 0.2887 0.47734 0.0
C215 C 0.13574 0.30029 0.52504 0.0
C216 C 0.16423 0.3462 0.47622 0.0
C217 C 0.19427 0.38196 0.47998 0.0
C218 C 0.19742 0.41199 0.46085 0.0
C219 C 0.1686 0.40535 0.43796 0.0
C220 C 0.13693 0.36921 0.43513 0.0
C221 C 0.13499 0.33934 0.45425 0.0
H222 H 0.7514 0.09822 0.7667 0.0
H223 H 0.68819 -0.00431 0.82514 0.0
H224 H 0.727 0.02632 0.87604 0.0
H225 H 0.84207 0.12557 0.80641 0.0
H226 H 0.85659 0.17467 0.80572 0.0
H227 H 0.8253 0.14383 0.77326 0.0
H228 H 0.77796 0.16496 0.78884 0.0
H229 H 0.80896 0.19564 0.82143 0.0
H230 H 0.76204 0.16072 0.8326 0.0
H231 H 0.76847 0.0701 0.92229 0.0
H232 H 0.81314 0.12263 0.9589 0.0
H233 H 0.85118 0.1951 0.86948 0.0
C234 C 0.7461 0.08206 0.79005 0.0
C235 C 0.71677 0.04459 0.79194 0.0
C236 C 0.71063 0.02441 0.82302 0.0
C237 C 0.73247 0.04156 0.85213 0.0
C238 C 0.76072 0.07875 0.84962 0.0
C239 C 0.76796 0.0986 0.81924 0.0
C240 C 0.79944 0.13847 0.82359 0.0
C241 C 0.83283 0.14607 0.8009 0.0
C242 C 0.7863 0.16659 0.81618 0.0
C243 C 0.80812 0.13815 0.86132 0.0
C244 C 0.78546 0.1035 0.87595 0.0
C245 C 0.78682 0.09721 0.91101 0.0
C246 C 0.81212 0.12716 0.93161 0.0
C247 C 0.83584 0.16272 0.91695 0.0
C248 C 0.83386 0.16803 0.88132 0.0
H249 H 0.63581 0.7656 0.13743 0.0
H250 H 0.67378 0.83848 0.04824 0.0
H251 H 0.68661 0.89235 0.08533 0.0
H252 H 0.58912 0.80898 0.17815 0.0
H253 H 0.60149 0.8029 0.22106 0.0
H254 H 0.59623 0.77033 0.18772 0.0
H255 H 0.66294 0.78307 0.19957 0.0
H256 H 0.66841 0.81564 0.23298 0.0
H257 H 0.70144 0.83045 0.19817 0.0
H258 H 0.69716 0.93807 0.13204 0.0
H259 H 0.70166 0.97293 0.18484 0.0
H260 H 0.65321 0.86974 0.24361 0.0
C261 C 0.64702 0.79294 0.12572 0.0
C262 C 0.65414 0.79806 0.09002 0.0
C263 C 0.66824 0.83408 0.07554 0.0
C264 C 0.67562 0.86476 0.0964 0.0
C265 C 0.66825 0.85872 0.1315 0.0
C266 C 0.65396 0.82369 0.14604 0.0
C267 C 0.64763 0.82463 0.18432 0.0
C268 C 0.60615 0.80026 0.19333 0.0
C269 C 0.67154 0.81275 0.20497 0.0
C270 C 0.6609 0.86582 0.18914 0.0
C271 C 0.67292 0.88493 0.15833 0.0
C272 C 0.6876 0.9234 0.15625 0.0
C273 C 0.69012 0.94292 0.18643 0.0
C274 C 0.67764 0.92397 0.21827 0.0
C275 C 0.66259 0.88484 0.21957 0.0
H276 H 0.87622 0.69952 0.41331 0.0
H277 H 0.97646 0.73602 0.47351 0.0
H278 H 0.94355 0.73849 0.52529 0.0
H279 H 0.84215 0.75557 0.46188 0.0
H280 H 0.79441 0.71868 0.45783 0.0
H281 H 0.82754 0.72559 0.42462 0.0
H282 H 0.81075 0.65638 0.43085 0.0
H283 H 0.77801 0.64938 0.46428 0.0
H284 H 0.81479 0.63928 0.4723 0.0
H285 H 0.89698 0.72598 0.57201 0.0
H286 H 0.84153 0.70552 0.60899 0.0
H287 H 0.77272 0.68048 0.51809 0.0
C288 C 0.89158 0.70921 0.43714 0.0
C289 C 0.92891 0.71762 0.43933 0.0
C290 C 0.94791 0.72964 0.47113 0.0
C291 C 0.92943 0.73111 0.50074 0.0
C292 C 0.89217 0.72113 0.49802 0.0
C293 C 0.87366 0.71118 0.46688 0.0
C294 C 0.83298 0.69919 0.4713 0.0
C295 C 0.82374 0.72639 0.45281 0.0
C296 C 0.80767 0.65866 0.45896 0.0
C297 C 0.83118 0.70232 0.50993 0.0
C298 C 0.86561 0.71519 0.52491 0.0
C299 C 0.87005 0.71682 0.56053 0.0
C300 C 0.83844 0.70496 0.58133 0.0
C301 C 0.80302 0.69194 0.56638 0.0
C302 C 0.7996 0.69114 0.53024 0.0
H303 H 0.18004 0.87644 0.79361 0.0
H304 H 0.13131 0.82143 0.69686 0.0
H305 H 0.0787 0.77009 0.72848 0.0
H306 H 0.15815 0.79339 0.83921 0.0
H307 H 0.14907 0.80915 0.87934 0.0
H308 H 0.18121 0.84269 0.84899 0.0
H309 H 0.14326 0.87687 0.84883 0.0
H310 H 0.11096 0.84341 0.87918 0.0
H311 H 0.09428 0.85097 0.83897 0.0
H312 H 0.03192 0.72489 0.77077 0.0
H313 H -0.00349 0.68639 0.82042 0.0
H314 H 0.0779 0.76949 0.88972 0.0
C315 C 0.15806 0.85381 0.77903 0.0
C316 C 0.15942 0.85301 0.74278 0.0
C317 C 0.13062 0.82258 0.72464 0.0
C318 C 0.10065 0.79343 0.74237 0.0
C319 C 0.10024 0.79505 0.77817 0.0
C320 C 0.12837 0.8243 0.7963 0.0
C321 C 0.12253 0.81832 0.83472 0.0
C322 C 0.15464 0.81572 0.85154 0.0
C323 C 0.11745 0.84923 0.8514 0.0
C324 C 0.08672 0.781 0.83544 0.0
C325 C 0.0741 0.76832 0.80255 0.0
C326 C 0.04155 0.73452 0.79662 0.0
C327 C 0.0216 0.71291 0.82502 0.0
C328 C 0.03449 0.72493 0.85895 0.0
C329 C 0.0674 0.75956 0.86411 0.0
H330 H 0.48197 0.07162 0.33009 0.0
H331 H 0.48157 0.09492 0.22171 0.0
H332 H 0.54065 0.09458 0.21395 0.0
H333 H 0.58476 0.12092 0.344 0.0
H334 H 0.58093 0.08413 0.37162 0.0
H335 H 0.54369 0.0945 0.36991 0.0
H336 H 0.49727 0.02525 0.35458 0.0
H337 H 0.53429 0.01473 0.356 0.0
H338 H 0.50637 0.0045 0.31777 0.0
H339 H 0.59686 0.08642 0.21753 0.0
H340 H 0.64106 0.06426 0.23045 0.0
H341 H 0.59959 0.03944 0.33495 0.0
C342 C 0.49526 0.0781 0.30503 0.0
C343 C 0.47827 0.08446 0.27662 0.0
C344 C 0.49495 0.09084 0.2438 0.0
C345 C 0.52842 0.09077 0.23927 0.0
C346 C 0.54421 0.08355 0.26773 0.0
C347 C 0.52792 0.07696 0.29993 0.0
C348 C 0.54689 0.06413 0.32512 0.0
C349 C 0.56516 0.09263 0.35439 0.0
C350 C 0.51958 0.02483 0.33916 0.0
C351 C 0.57578 0.0636 0.30191 0.0
C352 C 0.5746 0.07593 0.26918 0.0
C353 C 0.59818 0.07694 0.24312 0.0
C354 C 0.62314 0.06437 0.25063 0.0
C355 C 0.62335 0.05007 0.28356 0.0
C356 C 0.59977 0.05018 0.30953 0.0
H357 H 0.58417 0.55658 0.57582 0.0
H358 H 0.64197 0.50012 0.61185 0.0
H359 H 0.58343 0.43907 0.60639 0.0
H360 H 0.50748 0.50679 0.62496 0.0
H361 H 0.47483 0.50636 0.59425 0.0
H362 H 0.52237 0.54361 0.59352 0.0
H363 H 0.52795 0.52916 0.52963 0.0
H364 H 0.4802 0.49173 0.53013 0.0
H365 H 0.51652 0.48249 0.51732 0.0
H366 H 0.51613 0.38501 0.60308 0.0
H367 H 0.44742 0.34532 0.60777 0.0
H368 H 0.43554 0.43994 0.57882 0.0
C369 C 0.58499 0.53138 0.58166 0.0
C370 C 0.61768 0.53304 0.59401 0.0
C371 C 0.61723 0.4994 0.60207 0.0
C372 C 0.58417 0.46466 0.5989 0.0
C373 C 0.55203 0.46425 0.58769 0.0
C374 C 0.55238 0.49694 0.5793 0.0
C375 C 0.51374 0.49033 0.57279 0.0
C376 C 0.50406 0.51309 0.59788 0.0
C377 C 0.50936 0.49893 0.53523 0.0
C378 C 0.49119 0.44895 0.58004 0.0
C379 C 0.51359 0.43396 0.58756 0.0
C380 C 0.49843 0.39642 0.5968 0.0
C381 C 0.45951 0.37407 0.5993 0.0
C382 C 0.43664 0.38984 0.5935 0.0
C383 C 0.45265 0.42736 0.58309 0.0
H384 H 0.95919 0.52197 0.89514 0.0
H385 H -0.01309 0.5602 0.00043 0.0
H386 H 0.96073 0.49475 0.01992 0.0
H387 H 0.87437 0.43939 0.91067 0.0
H388 H 0.88127 0.41109 0.87954 0.0
H389 H 0.90297 0.46092 0.87335 0.0
H390 H 0.968 0.46681 0.86936 0.0
H391 H 0.94633 0.41686 0.87431 0.0
H392 H 0.98298 0.44754 0.90313 0.0
H393 H 0.92641 0.42498 0.02822 0.0
H394 H 0.90029 0.35657 0.02377 0.0
H395 H 0.89966 0.36431 0.91275 0.0
C396 C 0.9606 0.51647 0.92214 0.0
C397 C 0.97538 0.54582 0.9463 0.0
C398 C 0.97639 0.53793 0.98153 0.0
C399 C 0.96109 0.50089 0.99285 0.0
C400 C 0.94552 0.47235 0.9685 0.0
C401 C 0.94633 0.47977 0.93377 0.0
C402 C 0.92933 0.44413 0.91278 0.0
C403 C 0.89495 0.43858 0.89292 0.0
C404 C 0.95839 0.44382 0.88848 0.0
C405 C 0.91851 0.41549 0.94116 0.0
C406 C 0.92728 0.43228 0.97316 0.0
C407 C 0.91958 0.4115 0.00332 0.0
C408 C 0.90423 0.37266 0.00059 0.0
C409 C 0.89753 0.35539 0.96793 0.0
C410 C 0.90397 0.37694 0.93797 0.0
H411 H 0.02361 0.59724 0.37161 0.0
H412 H 0.91451 0.54787 0.4188 0.0
H413 H 0.91648 0.48955 0.42986 0.0
H414 H 0.00515 0.51318 0.32761 0.0
H415 H 0.05259 0.52344 0.33133 0.0
H416 H 0.04261 0.56107 0.32931 0.0
H417 H 0.07812 0.58768 0.38657 0.0
H418 H 0.08793 0.54997 0.38894 0.0
H419 H 0.06461 0.55814 0.42409 0.0
H420 H 0.93213 0.43702 0.43601 0.0
H421 H 0.95666 0.39347 0.43179 0.0
H422 H 0.05329 0.47818 0.3769 0.0
C423 C 0.00011 0.57431 0.3844 0.0
C424 C 0.96905 0.57702 0.39471 0.0
C425 C 0.93861 0.54616 0.41086 0.0
C426 C 0.93958 0.51313 0.41728 0.0
C427 C 0.97084 0.51146 0.40665 0.0
C428 C 0.00019 0.54114 0.39001 0.0
C429 C 0.02948 0.53196 0.3789 0.0
C430 C 0.03262 0.53243 0.33946 0.0
C431 C 0.06726 0.55851 0.39565 0.0
C432 C 0.01278 0.49276 0.39284 0.0
C433 C 0.979 0.48126 0.40883 0.0
C434 C 0.95852 0.44578 0.42344 0.0
C435 C 0.97273 0.42133 0.42105 0.0
C436 C 0.00688 0.43251 0.40401 0.0
C437 C 0.02717 0.46883 0.3901 0.0
H438 H 0.53697 0.03198 0.72726 0.0
H439 H 0.51508 0.92615 0.7709 0.0
H440 H 0.44997 0.90866 0.78114 0.0
H441 H 0.46909 0.0439 0.78438 0.0
H442 H 0.45593 0.06346 0.74943 0.0
H443 H 0.5026 0.07116 0.75169 0.0
H444 H 0.49543 0.04394 0.69038 0.0
H445 H 0.44879 0.03588 0.68801 0.0
H446 H 0.45731 -0.00237 0.68129 0.0
H447 H 0.38615 0.89663 0.77523 0.0
H448 H 0.32742 0.89334 0.75772 0.0
H449 H 0.3892 0.00782 0.72147 0.0
C450 C 0.51874 0.00576 0.74008 0.0
C451 C 0.53099 0.9804 0.74827 0.0
C452 C 0.50622 0.94596 0.76435 0.0
C453 C 0.46921 0.93583 0.77045 0.0
C454 C 0.45747 0.96066 0.76079 0.0
C455 C 0.48153 -0.00479 0.74647 0.0
C456 C 0.46077 0.01483 0.73517 0.0
C457 C 0.47281 0.05045 0.75645 0.0
C458 C 0.46588 0.02355 0.69642 0.0
C459 C 0.42117 0.98499 0.74359 0.0
C460 C 0.42002 0.95413 0.75868 0.0
C461 C 0.3866 0.92105 0.76455 0.0
C462 C 0.35346 0.91929 0.75441 0.0
C463 C 0.35412 0.95059 0.73912 0.0
C464 C 0.3882 0.98406 0.7343 0.0
H465 H 0.41673 0.4371 0.09498 0.0
H466 H 0.41802 0.40676 0.98855 0.0
H467 H 0.45274 0.4737 0.97257 0.0
H468 H 0.40692 0.51656 0.08132 0.0
H469 H 0.43864 0.54459 0.11484 0.0
H470 H 0.41351 0.49431 0.11834 0.0
H471 H 0.47525 0.4936 0.12509 0.0
H472 H 0.50036 0.54391 0.12297 0.0
H473 H 0.51161 0.51722 0.09365 0.0
H474 H 0.48327 0.54335 0.96773 0.0
H475 H 0.52274 0.61156 0.97606 0.0
H476 H 0.50634 0.5967 0.08617 0.0
C477 C 0.4252 0.44475 0.06851 0.0
C478 C 0.41528 0.41718 0.04299 0.0
C479 C 0.4262 0.42777 0.00849 0.0
C480 C 0.44529 0.4656 -0.00089 0.0
C481 C 0.45363 0.49223 0.02471 0.0
C482 C 0.44516 0.48239 0.05886 0.0
C483 C 0.45972 0.5166 0.0816 0.0
C484 C 0.42778 0.51808 0.10011 0.0
C485 C 0.48845 0.51791 0.10733 0.0
C486 C 0.47767 0.54719 0.05488 0.0
C487 C 0.47286 0.53252 0.02212 0.0
C488 C 0.48729 0.55524 0.99323 0.0
C489 C 0.50915 0.59396 -0.00186 0.0
C490 C 0.5169 0.60916 0.03171 0.0
C491 C 0.50001 0.58565 0.06026 0.0
H492 H 0.13957 0.75703 0.31177 0.0
H493 H 0.0684 0.8036 0.33353 0.0
H494 H 0.11859 0.86581 0.31448 0.0
H495 H 0.22336 0.8344 0.3416 0.0
H496 H 0.25162 0.82972 0.30902 0.0
H497 H 0.20939 0.7892 0.32312 0.0
H498 H 0.18613 0.77581 0.26005 0.0
H499 H 0.22808 0.81677 0.24585 0.0
H500 H 0.18337 0.81148 0.23577 0.0
H501 H 0.1776 0.92319 0.2948 0.0
H502 H 0.24204 0.97193 0.2812 0.0
H503 H 0.27305 0.88639 0.27145 0.0
C504 C 0.13434 0.7802 0.31253 0.0
C505 C 0.1 0.77542 0.3241 0.0
C506 C 0.09453 0.80662 0.32484 0.0
C507 C 0.12274 0.84196 0.31382 0.0
C508 C 0.15605 0.84545 0.30206 0.0
C509 C 0.16198 0.81542 0.30161 0.0
C510 C 0.20071 0.82665 0.28938 0.0
C511 C 0.22255 0.81959 0.31746 0.0
C512 C 0.19948 0.80648 0.25576 0.0
C513 C 0.21601 0.86796 0.28348 0.0
C514 C 0.18977 0.87826 0.29057 0.0
C515 C 0.19827 0.9154 0.2889 0.0
C516 C 0.23492 0.94286 0.28104 0.0
C517 C 0.26257 0.93295 0.27512 0.0
C518 C 0.25251 0.89487 0.27528 0.0
H519 H 0.25805 0.21361 0.68812 0.0
H520 H 0.21889 0.18375 0.5835 0.0
H521 H 0.19506 0.11707 0.59716 0.0
H522 H 0.29979 0.16568 0.68973 0.0
H523 H 0.29161 0.15089 0.73401 0.0
H524 H 0.29122 0.19233 0.72146 0.0
H525 H 0.22484 0.16563 0.74624 0.0
H526 H 0.22506 0.12386 0.75933 0.0
H527 H 0.18813 0.12034 0.73247 0.0
H528 H 0.1889 0.05756 0.61746 0.0
H529 H 0.20873 0.01396 0.63857 0.0
H530 H 0.25955 0.08471 0.72727 0.0
C531 C 0.24263 0.19276 0.66864 0.0
C532 C 0.23959 0.20348 0.63499 0.0
C533 C 0.22091 0.17584 0.60959 0.0
C534 C 0.20709 0.13793 0.61726 0.0
C535 C 0.21263 0.12837 0.65028 0.0
C536 C 0.23013 0.1552 0.67559 0.0
C537 C 0.24131 0.13999 0.70582 0.0
C538 C 0.28345 0.1636 0.7131 0.0
C539 C 0.21845 0.13729 0.73786 0.0
C540 C 0.23046 0.10155 0.6923 0.0
C541 C 0.21195 0.09452 0.66119 0.0
C542 C 0.20255 0.06237 0.64213 0.0
C543 C 0.21388 0.03774 0.6543 0.0
C544 C 0.23547 0.04625 0.68452 0.0
C545 C 0.24258 0.07763 0.70435 0.0
H546 H 0.21829 0.36637 0.98851 0.0
H547 H 0.18924 0.25557 0.02472 0.0
H548 H 0.12353 0.23233 0.00829 0.0
H549 H 0.1394 0.36664 0.01849 0.0
H550 H 0.13661 0.39211 0.98212 0.0
H551 H 0.18083 0.3982 0.99494 0.0
H552 H 0.19039 0.38018 0.93341 0.0
H553 H 0.14578 0.37341 0.92057 0.0
H554 H 0.15593 0.33608 0.91525 0.0
H555 H 0.0601 0.22323 0.99133 0.0
H556 H 0.00536 0.23003 0.97917 0.0
H557 H 0.07887 0.34651 0.95214 0.0
C558 C 0.19829 0.33715 0.99308 0.0
C559 C 0.20883 0.31282 0.00813 0.0
C560 C 0.18168 0.27473 0.01331 0.0
C561 C 0.14443 0.26127 0.00385 0.0
C562 C 0.13516 0.28618 0.98881 0.0
C563 C 0.16148 0.32331 0.98349 0.0
C564 C 0.14471 0.34512 0.96846 0.0
C565 C 0.15073 0.37739 0.99244 0.0
C566 C 0.16012 0.35953 0.93227 0.0
C567 C 0.10442 0.3148 0.96712 0.0
C568 C 0.0993 0.28082 0.9785 0.0
C569 C 0.06387 0.24956 0.98192 0.0
C570 C 0.03296 0.25365 0.97479 0.0
C571 C 0.03788 0.28883 0.96469 0.0
C572 C 0.07413 0.31919 0.95958 0.0
H573 H 0.91153 0.20049 0.42448 0.0
H574 H -0.00778 0.22869 0.34299 0.0
H575 H 0.95846 0.16359 0.32251 0.0
H576 H 0.88839 0.09465 0.43278 0.0
H577 H 0.84072 0.08095 0.44207 0.0
H578 H 0.87795 0.12515 0.45753 0.0
H579 H 0.84724 0.15903 0.42807 0.0
H580 H 0.81052 0.11543 0.41226 0.0
H581 H 0.83788 0.15281 0.38254 0.0
H582 H 0.90539 0.10737 0.29838 0.0
H583 H 0.84231 0.06031 0.27892 0.0
H584 H 0.79846 0.06264 0.37922 0.0
C585 C 0.92309 0.19217 0.40363 0.0
C586 C 0.95418 0.21922 0.38527 0.0
C587 C 0.96859 0.20809 0.35766 0.0
C588 C 0.94957 0.17112 0.34583 0.0
C589 C 0.9171 0.14547 0.36277 0.0
C590 C 0.90484 0.15508 0.39212 0.0
C591 C 0.86654 0.12422 0.40258 0.0
C592 C 0.86854 0.1051 0.4357 0.0
C593 C 0.83898 0.13877 0.40651 0.0
C594 C 0.85719 0.09832 0.37206 0.0
C595 C 0.88698 0.11052 0.34969 0.0
C596 C 0.88243 0.09621 0.31636 0.0
C597 C 0.84653 0.06973 0.30537 0.0
C598 C 0.81597 0.05751 0.3279 0.0
C599 C 0.82176 0.0706 0.36202 0.0
H600 H 0.59824 0.71188 0.62288 0.0
H601 H 0.71792 0.76348 0.63471 0.0
H602 H 0.72171 0.82363 0.64899 0.0
H603 H 0.59773 0.79435 0.5871 0.0
H604 H 0.5558 0.78347 0.61007 0.0
H605 H 0.56374 0.74634 0.59651 0.0
H606 H 0.55481 0.72259 0.6594 0.0
H607 H 0.54761 0.76002 0.67327 0.0
H608 H 0.58362 0.75406 0.69279 0.0
H609 H 0.71104 0.87628 0.6681 0.0
H610 H 0.68736 0.91807 0.68585 0.0
H611 H 0.57486 0.83017 0.66203 0.0
C612 C 0.62542 0.73597 0.62766 0.0
C613 C 0.65777 0.73297 0.62768 0.0
C614 C 0.69275 0.76518 0.63434 0.0
C615 C 0.69517 0.79942 0.6426 0.0
C616 C 0.66243 0.80091 0.64377 0.0
C617 C 0.62831 0.77012 0.63597 0.0
C618 C 0.59695 0.77814 0.64091 0.0
C619 C 0.57742 0.77543 0.6066 0.0
C620 C 0.56913 0.75216 0.66822 0.0
C621 C 0.6186 0.81802 0.6535 0.0
C622 C 0.65633 0.83086 0.65486 0.0
C623 C 0.68158 0.86664 0.66678 0.0
C624 C 0.66785 0.89006 0.67701 0.0
C625 C 0.62926 0.8774 0.67534 0.0
C626 C 0.60452 0.84081 0.6636 0.0
H627 H 0.70043 0.60397 0.041 0.0
H628 H 0.74753 0.72367 0.02705 0.0
H629 H 0.80521 0.72819 0.00446 0.0
H630 H 0.78849 0.60561 0.06227 0.0
H631 H 0.77386 0.56285 0.03873 0.0
H632 H 0.73978 0.57096 0.0595 0.0
H633 H 0.70551 0.55972 0.00126 0.0
H634 H 0.74014 0.55296 0.98001 0.0
H635 H 0.73025 0.58824 0.96472 0.0
H636 H 0.85461 0.71787 0.97661 0.0
H637 H 0.89425 0.69459 0.95222 0.0
H638 H 0.81153 0.58138 0.98175 0.0
C639 C 0.72326 0.63142 0.03438 0.0
C640 C 0.7194 0.66344 0.0358 0.0
C641 C 0.74991 0.69873 0.0264 0.0
C642 C 0.7827 0.70155 0.01331 0.0
C643 C 0.78447 0.66888 0.01001 0.0
C644 C 0.75578 0.63462 0.02091 0.0
C645 C 0.76304 0.60322 0.01226 0.0
C646 C 0.76652 0.58458 0.04515 0.0
C647 C 0.73295 0.57436 0.98813 0.0
C648 C 0.79991 0.62499 0.99406 0.0
C649 C 0.81208 0.66284 0.99318 0.0
C650 C 0.84548 0.6883 0.97741 0.0
C651 C 0.86761 0.67478 0.96333 0.0
C652 C 0.85594 0.63613 0.96491 0.0
C653 C 0.82122 0.61103 0.9798 0.0
H654 H 0.36274 0.05524 0.4256 0.0
H655 H 0.32547 0.94164 0.39208 0.0
H656 H 0.30316 0.91844 0.45067 0.0
H657 H 0.39754 0.04546 0.50723 0.0
H658 H 0.38409 0.07482 0.53005 0.0
H659 H 0.39498 0.08235 0.48493 0.0
H660 H 0.3305 0.07548 0.47296 0.0
H661 H 0.31938 0.06781 0.51806 0.0
H662 H 0.289 0.03386 0.48696 0.0
H663 H 0.28337 0.90719 0.51252 0.0
H664 H 0.27395 0.90968 0.5751 0.0
H665 H 0.32875 0.0308 0.56967 0.0
C666 C 0.34968 0.02551 0.43068 0.0
C667 C 0.34565 0.00019 0.40438 0.0
C668 C 0.32896 0.96152 0.41197 0.0
C669 C 0.31599 0.94803 0.44509 0.0
C670 C 0.32045 0.97363 0.47054 0.0
C671 C 0.33737 0.01162 0.46391 0.0
C672 C 0.34073 0.03328 0.49644 0.0
C673 C 0.38177 0.06058 0.50517 0.0
C674 C 0.31858 0.05381 0.49341 0.0
C675 C 0.32305 0.00156 0.52223 0.0
C676 C 0.31095 0.96732 0.50666 0.0
C677 C 0.29294 0.93386 0.52509 0.0
C678 C 0.28759 0.9355 0.56054 0.0
C679 C 0.30088 0.97038 0.57717 0.0
C680 C 0.31867 0.00374 0.55765 0.0
H681 H 0.3371 0.37393 0.89793 0.0
H682 H 0.33839 0.27157 0.92008 0.0
H683 H 0.33963 0.26061 0.85759 0.0
H684 H 0.276 0.33852 0.82673 0.0
H685 H 0.29885 0.38184 0.80304 0.0
H686 H 0.30031 0.38253 0.84927 0.0
H687 H 0.37237 0.42057 0.8475 0.0
H688 H 0.37116 0.42007 0.80123 0.0
H689 H 0.39732 0.40265 0.82365 0.0
H690 H 0.33994 0.26087 0.79257 0.0
H691 H 0.33666 0.27049 0.73043 0.0
H692 H 0.33282 0.37171 0.7516 0.0
C693 C 0.33808 0.34936 0.8898 0.0
C694 C 0.33798 0.32372 0.91395 0.0
C695 C 0.33859 0.29163 0.90206 0.0
C696 C 0.33936 0.28524 0.86666 0.0
C697 C 0.33924 0.31108 0.84363 0.0
C698 C 0.33844 0.3424 0.85478 0.0
C699 C 0.33683 0.36509 0.82499 0.0
C700 C 0.30085 0.36709 0.82608 0.0
C701 C 0.37149 0.40442 0.82431 0.0
C702 C 0.33674 0.34162 0.79514 0.0
C703 C 0.33846 0.31076 0.8064 0.0
C704 C 0.33867 0.28496 0.78351 0.0
C705 C 0.33689 0.29076 0.74825 0.0
C706 C 0.33457 0.32194 0.73619 0.0
C707 C 0.33457 0.34766 0.76004 0.0
H708 H 0.97504 0.36185 0.25109 0.0
H709 H 0.0188 0.28759 0.26856 0.0
H710 H 0.00487 0.26595 0.20817 0.0
H711 H 0.90134 0.30391 0.19495 0.0
H712 H 0.90741 0.34118 0.16677 0.0
H713 H 0.92075 0.35093 0.21125 0.0
H714 H -0.01242 0.40131 0.19354 0.0
H715 H 0.97424 0.39225 0.14902 0.0
H716 H 0.01345 0.38902 0.16433 0.0
H717 H 0.98085 0.24858 0.14735 0.0
H718 H 0.96041 0.24582 0.0871 0.0
H719 H 0.93842 0.33604 0.10791 0.0
C720 C 0.98213 0.34144 0.24195 0.0
C721 C -0.00199 0.32634 0.26421 0.0
C722 C 0.00702 0.29973 0.25161 0.0
C723 C -0.00115 0.28703 0.21754 0.0
C724 C 0.98243 0.30188 0.19635 0.0
C725 C 0.97517 0.32928 0.20779 0.0
C726 C 0.95912 0.34196 0.1794 0.0
C727 C 0.91982 0.33401 0.18866 0.0
C728 C -0.01484 0.3836 0.17107 0.0
C729 C 0.95804 0.31707 0.15031 0.0
C730 C 0.97086 0.29359 0.1608 0.0
C731 C 0.97116 0.26713 0.13873 0.0
C732 C 0.95918 0.26548 0.10473 0.0
C733 C 0.94789 0.29068 0.0931 0.0
C734 C 0.94698 0.31649 0.11628 0.0
H735 H 0.62701 0.95634 0.42565 0.0
H736 H 0.73069 0.06227 0.41961 0.0
H737 H 0.72564 0.0736 0.48101 0.0
H738 H 0.58078 0.98867 0.48299 0.0
H739 H 0.55702 0.94545 0.50676 0.0
H740 H 0.56896 0.945 0.46232 0.0
H741 H 0.60484 0.91091 0.47863 0.0
H742 H 0.59267 0.91091 0.52304 0.0
H743 H 0.6408 0.93102 0.51082 0.0
H744 H 0.71031 0.07292 0.54351 0.0
H745 H 0.68546 0.05973 0.60283 0.0
H746 H 0.59036 0.95605 0.56759 0.0
C747 C 0.64872 0.98175 0.43737 0.0
C748 C 0.67924 0.00838 0.41789 0.0
C749 C 0.70694 0.04152 0.43402 0.0
C750 C 0.70436 0.04825 0.4689 0.0
C751 C 0.67369 0.02177 0.48731 0.0
C752 C 0.64632 0.9892 0.47217 0.0
C753 C 0.61611 0.96554 0.49779 0.0
C754 C 0.5785 0.96091 0.4868 0.0
C755 C 0.61347 0.92734 0.50287 0.0
C756 C 0.63099 0.98974 0.52965 0.0
C757 C 0.66427 0.02201 0.52311 0.0
C758 C 0.68407 0.04789 0.54893 0.0
C759 C 0.66974 0.04023 0.58251 0.0
C760 C 0.63578 0.00715 0.58983 0.0
C761 C 0.61603 0.98198 0.5628 0.0
H762 H 0.59316 0.61645 0.89878 0.0
H763 H 0.69012 0.72493 0.91912 0.0
H764 H 0.71345 0.72557 0.86044 0.0
H765 H 0.63779 0.57843 0.84828 0.0
H766 H 0.5999 0.55496 0.81832 0.0
H767 H 0.59076 0.56292 0.86184 0.0
H768 H 0.55743 0.5977 0.83983 0.0
H769 H 0.56583 0.58921 0.79626 0.0
H770 H 0.58133 0.63633 0.81044 0.0
H771 H 0.72767 0.71243 0.80039 0.0
H772 H 0.72672 0.69179 0.74057 0.0
H773 H 0.61878 0.59351 0.7589 0.0
C774 C 0.61915 0.64049 0.89078 0.0
C775 C 0.63988 0.67064 0.91347 0.0
C776 C 0.67365 0.70169 0.90202 0.0
C777 C 0.68728 0.70212 0.86888 0.0
C778 C 0.66656 0.67151 0.84742 0.0
C779 C 0.63282 0.64165 0.85767 0.0
C780 C 0.61517 0.61295 0.82927 0.0
C781 C 0.61065 0.57508 0.84009 0.0
C782 C 0.57773 0.60883 0.8183 0.0
C783 C 0.64429 0.63123 0.80142 0.0
C784 C 0.67403 0.66467 0.81255 0.0
C785 C 0.70444 0.68638 0.79135 0.0
C786 C 0.70381 0.67425 0.7575 0.0
C787 C 0.67271 0.64103 0.74507 0.0
C788 C 0.64297 0.619 0.76766 0.0
H789 H 0.95621 0.60276 0.22867 0.0
H790 H 0.96382 0.7105 0.24288 0.0
H791 H 0.9643 0.71823 0.17973 0.0
H792 H 0.01669 0.62693 0.16017 0.0
H793 H -0.009 0.58334 0.13724 0.0
H794 H -0.01293 0.58425 0.18323 0.0
H795 H 0.91546 0.5541 0.17865 0.0
H796 H 0.91901 0.55204 0.13266 0.0
H797 H 0.89613 0.57518 0.1512 0.0
H798 H 0.97253 0.71736 0.11485 0.0
H799 H 0.97599 0.70288 0.05359 0.0
H800 H 0.96054 0.59471 0.08298 0.0
C801 C 0.95685 0.62747 0.21847 0.0
C802 C 0.95979 0.65596 0.24052 0.0
C803 C 0.96095 0.68809 0.22636 0.0
C804 C 0.96166 0.69288 0.19055 0.0
C805 C 0.96053 0.66497 0.1695 0.0
C806 C 0.95708 0.63242 0.18299 0.0
C807 C 0.95701 0.6069 0.15509 0.0
C808 C -0.0101 0.59997 0.1592 0.0
C809 C 0.91968 0.56987 0.15435 0.0
C810 C 0.96178 0.63046 0.12376 0.0
C811 C 0.96413 0.66402 0.13248 0.0
C812 C 0.97017 0.69093 0.10772 0.0
C813 C 0.97256 0.68268 0.07308 0.0
C814 C 0.96849 0.64769 0.06367 0.0
C815 C 0.96356 0.62161 0.08946 0.0
loop_
_geom_bond_atom_site_label_1
_geom_bond_atom_site_label_2
_geom_bond_distance
_geom_bond_site_symmetry_2
_ccdc_geom_bond_type
C0 O1 1.306 . S
C0 O3 1.160 . S
O1 C0 1.306 . S
O1 Cd2 2.228 . S
Cd2 O1 2.228 . S
Cd2 O6 2.273 . S
Cd2 O10 2.277 . S
O3 C0 1.160 . S
O3 Cd4 2.203 1_565 S
Cd4 O3 2.203 1_545 S
Cd4 O6 2.411 1_545 S
Cd4 O7 2.333 . S
Cd4 O8 2.352 . S
Cd4 O12 2.277 . S
Cd4 O13 2.356 . S
C5 O10 1.209 1_545 S
C5 O12 1.226 . S
O6 Cd2 2.273 . S
O6 Cd4 2.411 1_565 S
O6 C9 1.320 1_565 S
O7 Cd4 2.333 . S
O7 C9 1.214 . S
O8 Cd4 2.352 . S
O8 C11 1.258 . S
C9 O6 1.320 1_545 S
C9 O7 1.214 . S
O10 Cd2 2.277 . S
O10 C5 1.209 1_565 S
C11 O8 1.258 . S
C11 O13 1.282 . S
O12 Cd4 2.277 . S
O12 C5 1.226 . S
O13 Cd4 2.356 . S
O13 C11 1.282 . S
C14 O15 1.306 . S
C14 O17 1.160 . S
O15 C14 1.306 . S
O15 Cd16 2.228 . S
Cd16 O15 2.228 . S
Cd16 O20 2.273 . S
Cd16 O24 2.277 . S
O17 C14 1.160 . S
O17 Cd18 2.203 . S
Cd18 O17 2.203 . S
Cd18 O20 2.411 . S
Cd18 O21 2.333 . S
Cd18 O22 2.352 . S
Cd18 O26 2.277 . S
Cd18 O27 2.356 . S
C19 O24 1.209 . S
C19 O26 1.226 . S
O20 Cd16 2.273 . S
O20 Cd18 2.411 . S
O20 C23 1.320 . S
O21 Cd18 2.333 . S
O21 C23 1.214 . S
O22 Cd18 2.352 . S
O22 C25 1.258 . S
C23 O20 1.320 . S
C23 O21 1.214 . S
O24 Cd16 2.277 . S
O24 C19 1.209 . S
C25 O22 1.258 . S
C25 O27 1.282 . S
O26 Cd18 2.277 . S
O26 C19 1.226 . S
O27 Cd18 2.356 . S
O27 C25 1.282 . S
C28 O29 1.306 . S
C28 O31 1.160 . S
O29 C28 1.306 . S
O29 Cd30 2.228 1_556 S
Cd30 O29 2.228 1_554 S
Cd30 O34 2.273 1_554 S
Cd30 O38 2.277 . S
O31 C28 1.160 . S
O31 Cd32 2.203 1_455 S
Cd32 O31 2.203 1_655 S
Cd32 O34 2.411 1_655 S
Cd32 O35 2.333 . S
Cd32 O36 2.352 . S
Cd32 O40 2.277 1_556 S
Cd32 O41 2.356 . S
C33 O38 1.209 1_655 S
C33 O40 1.226 . S
O34 Cd30 2.273 1_556 S
O34 Cd32 2.411 1_455 S
O34 C37 1.320 1_455 S
O35 Cd32 2.333 . S
O35 C37 1.214 . S
O36 Cd32 2.352 . S
O36 C39 1.258 . S
C37 O34 1.320 1_655 S
C37 O35 1.214 . S
O38 Cd30 2.277 . S
O38 C33 1.209 1_455 S
C39 O36 1.258 . S
C39 O41 1.282 . S
O40 Cd32 2.277 1_554 S
O40 C33 1.226 . S
O41 Cd32 2.356 . S
O41 C39 1.282 . S
C42 O43 1.306 . S
C42 O45 1.160 . S
O43 C42 1.306 . S
O43 Cd44 2.228 . S
Cd44 O43 2.228 . S
Cd44 O48 2.273 . S
Cd44 O52 2.277 . S
O45 C42 1.160 . S
O45 Cd46 2.203 1_545 S
Cd46 O45 2.203 1_565 S
Cd46 O48 2.411 1_565 S
Cd46 O49 2.333 . S
Cd46 O50 2.352 . S
Cd46 O54 2.277 . S
Cd46 O55 2.356 . S
C47 O52 1.209 1_565 S
C47 O54 1.226 . S
O48 Cd44 2.273 . S
O48 Cd46 2.411 1_545 S
O48 C51 1.320 1_545 S
O49 Cd46 2.333 . S
O49 C51 1.214 . S
O50 Cd46 2.352 . S
O50 C53 1.258 . S
C51 O48 1.320 1_565 S
C51 O49 1.214 . S
O52 Cd44 2.277 . S
O52 C47 1.209 1_545 S
C53 O50 1.258 . S
C53 O55 1.282 . S
O54 Cd46 2.277 . S
O54 C47 1.226 . S
O55 Cd46 2.356 . S
O55 C53 1.282 . S
C56 O57 1.306 . S
C56 O59 1.160 . S
O57 C56 1.306 . S
O57 Cd58 2.228 . S
Cd58 O57 2.228 . S
Cd58 O62 2.273 . S
Cd58 O66 2.277 . S
O59 C56 1.160 . S
O59 Cd60 2.203 . S
Cd60 O59 2.203 . S
Cd60 O62 2.411 . S
Cd60 O63 2.333 . S
Cd60 O64 2.352 . S
Cd60 O68 2.277 . S
Cd60 O69 2.356 . S
C61 O66 1.209 . S
C61 O68 1.226 . S
O62 Cd58 2.273 . S
O62 Cd60 2.411 . S
O62 C65 1.320 . S
O63 Cd60 2.333 . S
O63 C65 1.214 . S
O64 Cd60 2.352 . S
O64 C67 1.258 . S
C65 O62 1.320 . S
C65 O63 1.214 . S
O66 Cd58 2.277 . S
O66 C61 1.209 . S
C67 O64 1.258 . S
C67 O69 1.282 . S
O68 Cd60 2.277 . S
O68 C61 1.226 . S
O69 Cd60 2.356 . S
O69 C67 1.282 . S
C70 O71 1.306 . S
C70 O73 1.160 . S
O71 C70 1.306 . S
O71 Cd72 2.228 1_556 S
Cd72 O71 2.228 1_554 S
Cd72 O76 2.273 1_554 S
Cd72 O80 2.277 . S
O73 C70 1.160 . S
O73 Cd74 2.203 1_655 S
Cd74 O73 2.203 1_455 S
Cd74 O76 2.411 1_455 S
Cd74 O77 2.333 . S
Cd74 O78 2.352 . S
Cd74 O82 2.277 1_556 S
Cd74 O83 2.356 . S
C75 O80 1.209 1_455 S
C75 O82 1.226 . S
O76 Cd72 2.273 1_556 S
O76 Cd74 2.411 1_655 S
O76 C79 1.320 1_655 S
O77 Cd74 2.333 . S
O77 C79 1.214 . S
O78 Cd74 2.352 . S
O78 C81 1.258 . S
C79 O76 1.320 1_455 S
C79 O77 1.214 . S
O80 Cd72 2.277 . S
O80 C75 1.209 1_655 S
C81 O78 1.258 . S
C81 O83 1.282 . S
O82 Cd74 2.277 1_554 S
O82 C75 1.226 . S
O83 Cd74 2.356 . S
O83 C81 1.282 . S
C84 O85 1.306 . S
C84 O87 1.160 . S
O85 C84 1.306 . S
O85 Cd86 2.228 . S
Cd86 O85 2.228 . S
Cd86 O90 2.273 . S
Cd86 O94 2.277 . S
O87 C84 1.160 . S
O87 Cd88 2.203 1_455 S
Cd88 O87 2.203 1_655 S
Cd88 O90 2.411 1_655 S
Cd88 O91 2.333 . S
Cd88 O92 2.352 . S
Cd88 O96 2.277 . S
Cd88 O97 2.356 . S
C89 O94 1.209 1_655 S
C89 O96 1.226 . S
O90 Cd86 2.273 . S
O90 Cd88 2.411 1_455 S
O90 C93 1.320 1_455 S
O91 Cd88 2.333 . S
O91 C93 1.214 . S
O92 Cd88 2.352 . S
O92 C95 1.258 . S
C93 O90 1.320 1_655 S
C93 O91 1.214 . S
O94 Cd86 2.277 . S
O94 C89 1.209 1_455 S
C95 O92 1.258 . S
C95 O97 1.282 . S
O96 Cd88 2.277 . S
O96 C89 1.226 . S
O97 Cd88 2.356 . S
O97 C95 1.282 . S
C98 O99 1.306 . S
C98 O101 1.160 . S
O99 C98 1.306 . S
O99 Cd100 2.228 . S
Cd100 O99 2.228 . S
Cd100 O104 2.273 . S
Cd100 O108 2.277 . S
O101 C98 1.160 . S
O101 Cd102 2.203 1_545 S
Cd102 O101 2.203 1_565 S
Cd102 O104 2.411 1_565 S
Cd102 O105 2.333 . S
Cd102 O106 2.352 . S
Cd102 O110 2.277 . S
Cd102 O111 2.356 . S
C103 O108 1.209 1_565 S
C103 O110 1.226 . S
O104 Cd100 2.273 . S
O104 Cd102 2.411 1_545 S
O104 C107 1.320 1_545 S
O105 Cd102 2.333 . S
O105 C107 1.214 . S
O106 Cd102 2.352 . S
O106 C109 1.258 . S
C107 O104 1.320 1_565 S
C107 O105 1.214 . S
O108 Cd100 2.277 . S
O108 C103 1.209 1_545 S
C109 O106 1.258 . S
C109 O111 1.282 . S
O110 Cd102 2.277 . S
O110 C103 1.226 . S
O111 Cd102 2.356 . S
O111 C109 1.282 . S
C112 O113 1.306 . S
C112 O115 1.160 . S
O113 C112 1.306 . S
O113 Cd114 2.228 1_554 S
Cd114 O113 2.228 1_556 S
Cd114 O118 2.273 1_556 S
Cd114 O122 2.277 . S
O115 C112 1.160 . S
O115 Cd116 2.203 . S
Cd116 O115 2.203 . S
Cd116 O118 2.411 . S
Cd116 O119 2.333 . S
Cd116 O120 2.352 . S
Cd116 O124 2.277 1_554 S
Cd116 O125 2.356 . S
C117 O122 1.209 . S
C117 O124 1.226 . S
O118 Cd114 2.273 1_554 S
O118 Cd116 2.411 . S
O118 C121 1.320 . S
O119 Cd116 2.333 . S
O119 C121 1.214 . S
O120 Cd116 2.352 . S
O120 C123 1.258 . S
C121 O118 1.320 . S
C121 O119 1.214 . S
O122 Cd114 2.277 . S
O122 C117 1.209 . S
C123 O120 1.258 . S
C123 O125 1.282 . S
O124 Cd116 2.277 1_556 S
O124 C117 1.226 . S
O125 Cd116 2.356 . S
O125 C123 1.282 . S
C126 O127 1.306 . S
C126 O129 1.160 . S
O127 C126 1.306 . S
O127 Cd128 2.228 . S
Cd128 O127 2.228 . S
Cd128 O132 2.273 . S
Cd128 O136 2.277 . S
O129 C126 1.160 . S
O129 Cd130 2.203 1_655 S
Cd130 O129 2.203 1_455 S
Cd130 O132 2.411 1_455 S
Cd130 O133 2.333 . S
Cd130 O134 2.352 . S
Cd130 O138 2.277 . S
Cd130 O139 2.356 . S
C131 O136 1.209 1_455 S
C131 O138 1.226 . S
O132 Cd128 2.273 . S
O132 Cd130 2.411 1_655 S
O132 C135 1.320 1_655 S
O133 Cd130 2.333 . S
O133 C135 1.214 . S
O134 Cd130 2.352 . S
O134 C137 1.258 . S
C135 O132 1.320 1_455 S
C135 O133 1.214 . S
O136 Cd128 2.277 . S
O136 C131 1.209 1_655 S
C137 O134 1.258 . S
C137 O139 1.282 . S
O138 Cd130 2.277 . S
O138 C131 1.226 . S
O139 Cd130 2.356 . S
O139 C137 1.282 . S
C140 O141 1.306 . S
C140 O143 1.160 . S
O141 C140 1.306 . S
O141 Cd142 2.228 . S
Cd142 O141 2.228 . S
Cd142 O146 2.273 . S
Cd142 O150 2.277 . S
O143 C140 1.160 . S
O143 Cd144 2.203 1_565 S
Cd144 O143 2.203 1_545 S
Cd144 O146 2.411 1_545 S
Cd144 O147 2.333 . S
Cd144 O148 2.352 . S
Cd144 O152 2.277 . S
Cd144 O153 2.356 . S
C145 O150 1.209 1_545 S
C145 O152 1.226 . S
O146 Cd142 2.273 . S
O146 Cd144 2.411 1_565 S
O146 C149 1.320 1_565 S
O147 Cd144 2.333 . S
O147 C149 1.214 . S
O148 Cd144 2.352 . S
O148 C151 1.258 . S
C149 O146 1.320 1_545 S
C149 O147 1.214 . S
O150 Cd142 2.277 . S
O150 C145 1.209 1_565 S
C151 O148 1.258 . S
C151 O153 1.282 . S
O152 Cd144 2.277 . S
O152 C145 1.226 . S
O153 Cd144 2.356 . S
O153 C151 1.282 . S
C154 O155 1.306 . S
C154 O157 1.160 . S
O155 C154 1.306 . S
O155 Cd156 2.228 1_554 S
Cd156 O155 2.228 1_556 S
Cd156 O160 2.273 1_556 S
Cd156 O164 2.277 . S
O157 C154 1.160 . S
O157 Cd158 2.203 . S
Cd158 O157 2.203 . S
Cd158 O160 2.411 . S
Cd158 O161 2.333 . S
Cd158 O162 2.352 . S
Cd158 O166 2.277 1_554 S
Cd158 O167 2.356 . S
C159 O164 1.209 . S
C159 O166 1.226 . S
O160 Cd156 2.273 1_554 S
O160 Cd158 2.411 . S
O160 C163 1.320 . S
O161 Cd158 2.333 . S
O161 C163 1.214 . S
O162 Cd158 2.352 . S
O162 C165 1.258 . S
C163 O160 1.320 . S
C163 O161 1.214 . S
O164 Cd156 2.277 . S
O164 C159 1.209 . S
C165 O162 1.258 . S
C165 O167 1.282 . S
O166 Cd158 2.277 1_556 S
O166 C159 1.226 . S
O167 Cd158 2.356 . S
O167 C165 1.282 . S
H168 C180 0.930 . S
H169 C182 0.930 . S
H170 C183 0.930 . S
H171 C187 0.959 . S
H172 C187 0.959 . S
H173 C187 0.961 . S
H174 C188 0.960 . S
H175 C188 0.961 . S
H176 C188 0.959 . S
H177 C191 0.929 . S
H178 C192 0.931 . S
H179 C194 0.930 . S
C180 H168 0.930 . S
C180 C181 1.399 . S
C180 C185 1.399 . S
C181 C180 1.399 . S
C181 C182 1.376 . S
C182 H169 0.930 . S
C182 C181 1.376 . S
C182 C183 1.388 . S
C183 H170 0.930 . S
C183 C182 1.388 . S
C183 C184 1.390 . S
C184 C183 1.390 . S
C184 C185 1.394 . S
C184 C190 1.465 . S
C185 C180 1.399 . S
C185 C184 1.394 . S
C185 C186 1.516 . S
C186 C185 1.516 . S
C186 C187 1.502 . S
C186 C188 1.561 . S
C186 C189 1.526 . S
C187 H171 0.959 . S
C187 H172 0.959 . S
C187 H173 0.961 . S
C187 C186 1.502 . S
C188 H174 0.960 . S
C188 H175 0.961 . S
C188 H176 0.959 . S
C188 C186 1.561 . S
C189 C186 1.526 . S
C189 C190 1.396 . S
C189 C194 1.390 . S
C190 C184 1.465 . S
C190 C189 1.396 . S
C190 C191 1.399 . S
C191 H177 0.929 . S
C191 C190 1.399 . S
C191 C192 1.385 . S
C192 H178 0.931 . S
C192 C191 1.385 . S
C192 C193 1.389 . S
C193 C192 1.389 . S
C193 C194 1.387 . S
C194 H179 0.930 . S
C194 C189 1.390 . S
C194 C193 1.387 . S
H195 C207 0.930 . S
H196 C209 0.930 . S
H197 C210 0.930 . S
H198 C214 0.959 . S
H199 C214 0.959 . S
H200 C214 0.961 . S
H201 C215 0.960 . S
H202 C215 0.961 . S
H203 C215 0.959 . S
H204 C218 0.929 . S
H205 C219 0.931 . S
H206 C221 0.930 . S
C207 H195 0.930 . S
C207 C208 1.399 . S
C207 C212 1.399 . S
C208 C207 1.399 . S
C208 C209 1.376 . S
C209 H196 0.930 . S
C209 C208 1.376 . S
C209 C210 1.388 . S
C210 H197 0.930 . S
C210 C209 1.388 . S
C210 C211 1.390 . S
C211 C210 1.390 . S
C211 C212 1.394 . S
C211 C217 1.465 . S
C212 C207 1.399 . S
C212 C211 1.394 . S
C212 C213 1.516 . S
C213 C212 1.516 . S
C213 C214 1.502 . S
C213 C215 1.561 . S
C213 C216 1.526 . S
C214 H198 0.959 . S
C214 H199 0.959 . S
C214 H200 0.961 . S
C214 C213 1.502 . S
C215 H201 0.960 . S
C215 H202 0.961 . S
C215 H203 0.959 . S
C215 C213 1.561 . S
C216 C213 1.526 . S
C216 C217 1.396 . S
C216 C221 1.390 . S
C217 C211 1.465 . S
C217 C216 1.396 . S
C217 C218 1.399 . S
C218 H204 0.929 . S
C218 C217 1.399 . S
C218 C219 1.385 . S
C219 H205 0.931 . S
C219 C218 1.385 . S
C219 C220 1.389 . S
C220 C219 1.389 . S
C220 C221 1.387 . S
C221 H206 0.930 . S
C221 C216 1.390 . S
C221 C220 1.387 . S
H222 C234 0.930 . S
H223 C236 0.930 . S
H224 C237 0.930 . S
H225 C241 0.959 . S
H226 C241 0.959 . S
H227 C241 0.961 . S
H228 C242 0.960 . S
H229 C242 0.961 . S
H230 C242 0.959 . S
H231 C245 0.929 . S
H232 C246 0.931 . S
H233 C248 0.930 . S
C234 H222 0.930 . S
C234 C235 1.399 . S
C234 C239 1.399 . S
C235 C234 1.399 . S
C235 C236 1.376 . S
C236 H223 0.930 . S
C236 C235 1.376 . S
C236 C237 1.388 . S
C237 H224 0.930 . S
C237 C236 1.388 . S
C237 C238 1.390 . S
C238 C237 1.390 . S
C238 C239 1.394 . S
C238 C244 1.465 . S
C239 C234 1.399 . S
C239 C238 1.394 . S
C239 C240 1.516 . S
C240 C239 1.516 . S
C240 C241 1.502 . S
C240 C242 1.561 . S
C240 C243 1.526 . S
C241 H225 0.959 . S
C241 H226 0.959 . S
C241 H227 0.961 . S
C241 C240 1.502 . S
C242 H228 0.960 . S
C242 H229 0.961 . S
C242 H230 0.959 . S
C242 C240 1.561 . S
C243 C240 1.526 . S
C243 C244 1.396 . S
C243 C248 1.390 . S
C244 C238 1.465 . S
C244 C243 1.396 . S
C244 C245 1.399 . S
C245 H231 0.929 . S
C245 C244 1.399 . S
C245 C246 1.385 . S
C246 H232 0.931 . S
C246 C245 1.385 . S
C246 C247 1.389 . S
C247 C246 1.389 . S
C247 C248 1.387 . S
C248 H233 0.930 . S
C248 C243 1.390 . S
C248 C247 1.387 . S
H249 C261 0.930 . S
H250 C263 0.930 . S
H251 C264 0.930 . S
H252 C268 0.959 . S
H253 C268 0.959 . S
H254 C268 0.961 . S
H255 C269 0.960 . S
H256 C269 0.961 . S
H257 C269 0.959 . S
H258 C272 0.929 . S
H259 C273 0.931 . S
H260 C275 0.930 . S
C261 H249 0.930 . S
C261 C262 1.399 . S
C261 C266 1.399 . S
C262 C261 1.399 . S
C262 C263 1.376 . S
C263 H250 0.930 . S
C263 C262 1.376 . S
C263 C264 1.388 . S
C264 H251 0.930 . S
C264 C263 1.388 . S
C264 C265 1.390 . S
C265 C264 1.390 . S
C265 C266 1.394 . S
C265 C271 1.465 . S
C266 C261 1.399 . S
C266 C265 1.394 . S
C266 C267 1.516 . S
C267 C266 1.516 . S
C267 C268 1.502 . S
C267 C269 1.561 . S
C267 C270 1.526 . S
C268 H252 0.959 . S
C268 H253 0.959 . S
C268 H254 0.961 . S
C268 C267 1.502 . S
C269 H255 0.960 . S
C269 H256 0.961 . S
C269 H257 0.959 . S
C269 C267 1.561 . S
C270 C267 1.526 . S
C270 C271 1.396 . S
C270 C275 1.390 . S
C271 C265 1.465 . S
C271 C270 1.396 . S
C271 C272 1.399 . S
C272 H258 0.929 . S
C272 C271 1.399 . S
C272 C273 1.385 . S
C273 H259 0.931 . S
C273 C272 1.385 . S
C273 C274 1.389 . S
C274 C273 1.389 . S
C274 C275 1.387 . S
C275 H260 0.930 . S
C275 C270 1.390 . S
C275 C274 1.387 . S
H276 C288 0.930 . S
H277 C290 0.930 . S
H278 C291 0.930 . S
H279 C295 0.959 . S
H280 C295 0.959 . S
H281 C295 0.961 . S
H282 C296 0.960 . S
H283 C296 0.961 . S
H284 C296 0.959 . S
H285 C299 0.929 . S
H286 C300 0.931 . S
H287 C302 0.930 . S
C288 H276 0.930 . S
C288 C289 1.399 . S
C288 C293 1.399 . S
C289 C288 1.399 . S
C289 C290 1.376 . S
C290 H277 0.930 . S
C290 C289 1.376 . S
C290 C291 1.388 . S
C291 H278 0.930 . S
C291 C290 1.388 . S
C291 C292 1.390 . S
C292 C291 1.390 . S
C292 C293 1.394 . S
C292 C298 1.465 . S
C293 C288 1.399 . S
C293 C292 1.394 . S
C293 C294 1.516 . S
C294 C293 1.516 . S
C294 C295 1.502 . S
C294 C296 1.561 . S
C294 C297 1.526 . S
C295 H279 0.959 . S
C295 H280 0.959 . S
C295 H281 0.961 . S
C295 C294 1.502 . S
C296 H282 0.960 . S
C296 H283 0.961 . S
C296 H284 0.959 . S
C296 C294 1.561 . S
C297 C294 1.526 . S
C297 C298 1.396 . S
C297 C302 1.390 . S
C298 C292 1.465 . S
C298 C297 1.396 . S
C298 C299 1.399 . S
C299 H285 0.929 . S
C299 C298 1.399 . S
C299 C300 1.385 . S
C300 H286 0.931 . S
C300 C299 1.385 . S
C300 C301 1.389 . S
C301 C300 1.389 . S
C301 C302 1.387 . S
C302 H287 0.930 . S
C302 C297 1.390 . S
C302 C301 1.387 . S
H303 C315 0.930 . S
H304 C317 0.930 . S
H305 C318 0.930 . S
H306 C322 0.959 . S
H307 C322 0.959 . S
H308 C322 0.961 . S
H309 C323 0.960 . S
H310 C323 0.961 . S
H311 C323 0.959 . S
H312 C326 0.929 . S
H313 C327 0.931 . S
H314 C329 0.930 . S
C315 H303 0.930 . S
C315 C316 1.399 . S
C315 C320 1.399 . S
C316 C315 1.399 . S
C316 C317 1.376 . S
C317 H304 0.930 . S
C317 C316 1.376 . S
C317 C318 1.388 . S
C318 H305 0.930 . S
C318 C317 1.388 . S
C318 C319 1.390 . S
C319 C318 1.390 . S
C319 C320 1.394 . S
C319 C325 1.465 . S
C320 C315 1.399 . S
C320 C319 1.394 . S
C320 C321 1.516 . S
C321 C320 1.516 . S
C321 C322 1.502 . S
C321 C323 1.561 . S
C321 C324 1.526 . S
C322 H306 0.959 . S
C322 H307 0.959 . S
C322 H308 0.961 . S
C322 C321 1.502 . S
C323 H309 0.960 . S
C323 H310 0.961 . S
C323 H311 0.959 . S
C323 C321 1.561 . S
C324 C321 1.526 . S
C324 C325 1.396 . S
C324 C329 1.390 . S
C325 C319 1.465 . S
C325 C324 1.396 . S
C325 C326 1.399 . S
C326 H312 0.929 . S
C326 C325 1.399 . S
C326 C327 1.385 . S
C327 H313 0.931 . S
C327 C326 1.385 . S
C327 C328 1.389 . S
C328 C327 1.389 . S
C328 C329 1.387 . S
C329 H314 0.930 . S
C329 C324 1.390 . S
C329 C328 1.387 . S
H330 C342 0.930 . S
H331 C344 0.940 1_565 S
H332 C345 0.930 . S
H333 C349 0.959 . S
H334 C349 0.959 . S
H335 C349 0.961 . S
H336 C350 0.960 . S
H337 C350 0.961 . S
H338 C350 0.959 . S
H339 C353 0.929 . S
H340 C354 0.931 . S
H341 C356 0.930 . S
C342 H330 0.930 . S
C342 C343 1.399 . S
C342 C347 1.399 . S
C343 C342 1.399 . S
C343 C344 1.376 . S
C344 H331 0.940 1_545 S
C344 C343 1.376 . S
C344 C345 1.388 1_545 S
C345 H332 0.930 . S
C345 C344 1.388 1_565 S
C345 C346 1.390 . S
C346 C345 1.390 . S
C346 C347 1.394 1_565 S
C346 C352 1.465 . S
C347 C342 1.399 . S
C347 C346 1.394 1_545 S
C347 C348 1.516 . S
C348 C347 1.516 . S
C348 C349 1.502 . S
C348 C350 1.561 1_545 S
C348 C351 1.526 1_545 S
C349 H333 0.959 . S
C349 H334 0.959 . S
C349 H335 0.961 . S
C349 C348 1.502 . S
C350 H336 0.960 . S
C350 H337 0.961 . S
C350 H338 0.959 . S
C350 C348 1.561 1_565 S
C351 C348 1.526 1_565 S
C351 C352 1.396 . S
C351 C356 1.390 . S
C352 C346 1.465 . S
C352 C351 1.396 . S
C352 C353 1.399 . S
C353 H339 0.929 . S
C353 C352 1.399 . S
C353 C354 1.385 . S
C354 H340 0.931 . S
C354 C353 1.385 . S
C354 C355 1.389 . S
C355 C354 1.389 . S
C355 C356 1.387 . S
C356 H341 0.930 . S
C356 C351 1.390 . S
C356 C355 1.387 . S
H357 C369 0.930 . S
H358 C371 0.930 . S
H359 C372 0.930 . S
H360 C376 0.959 . S
H361 C376 0.959 . S
H362 C376 0.961 . S
H363 C377 0.960 . S
H364 C377 0.961 . S
H365 C377 0.959 . S
H366 C380 0.929 . S
H367 C381 0.931 . S
H368 C383 0.930 . S
C369 H357 0.930 . S
C369 C370 1.399 . S
C369 C374 1.399 . S
C370 C369 1.399 . S
C370 C371 1.376 . S
C371 H358 0.930 . S
C371 C370 1.376 . S
C371 C372 1.388 . S
C372 H359 0.930 . S
C372 C371 1.388 . S
C372 C373 1.390 . S
C373 C372 1.390 . S
C373 C374 1.394 . S
C373 C379 1.465 . S
C374 C369 1.399 . S
C374 C373 1.394 . S
C374 C375 1.516 . S
C375 C374 1.516 . S
C375 C376 1.502 . S
C375 C377 1.561 . S
C375 C378 1.526 . S
C376 H360 0.959 . S
C376 H361 0.959 . S
C376 H362 0.961 . S
C376 C375 1.502 . S
C377 H363 0.960 . S
C377 H364 0.961 . S
C377 H365 0.959 . S
C377 C375 1.561 . S
C378 C375 1.526 . S
C378 C379 1.396 . S
C378 C383 1.390 . S
C379 C373 1.465 . S
C379 C378 1.396 . S
C379 C380 1.399 . S
C380 H366 0.929 . S
C380 C379 1.399 . S
C380 C381 1.385 . S
C381 H367 0.931 . S
C381 C380 1.385 . S
C381 C382 1.389 . S
C382 C381 1.389 . S
C382 C383 1.387 . S
C383 H368 0.930 . S
C383 C378 1.390 . S
C383 C382 1.387 . S
H384 C396 0.930 1_655 S
H385 C398 0.930 . S
H386 C399 0.930 . S
H387 C403 0.959 . S
H388 C403 0.959 . S
H389 C403 0.961 . S
H390 C404 0.960 . S
H391 C404 0.961 . S
H392 C404 0.959 . S
H393 C407 0.929 . S
H394 C408 0.931 . S
H395 C410 0.930 . S
C396 H384 0.930 1_455 S
C396 C397 1.399 . S
C396 C401 1.383 . S
C397 C396 1.399 . S
C397 C398 1.376 1_556 S
C398 H385 0.930 . S
C398 C397 1.376 1_554 S
C398 C399 1.388 . S
C399 H386 0.930 . S
C399 C398 1.388 . S
C399 C400 1.390 1_554 S
C400 C399 1.390 1_556 S
C400 C401 1.412 . S
C400 C406 1.465 . S
C401 C396 1.383 . S
C401 C400 1.412 . S
C401 C402 1.519 1_455 S
C402 C401 1.519 1_655 S
C402 C403 1.502 . S
C402 C404 1.561 1_655 S
C402 C405 1.526 . S
C403 H387 0.959 . S
C403 H388 0.959 . S
C403 H389 0.961 . S
C403 C402 1.502 . S
C404 H390 0.960 . S
C404 H391 0.961 . S
C404 H392 0.959 . S
C404 C402 1.561 1_455 S
C405 C402 1.526 . S
C405 C406 1.396 1_655 S
C405 C410 1.390 . S
C406 C400 1.465 . S
C406 C405 1.396 1_455 S
C406 C407 1.399 1_556 S
C407 H393 0.929 . S
C407 C406 1.399 1_554 S
C407 C408 1.385 . S
C408 H394 0.931 . S
C408 C407 1.385 . S
C408 C409 1.389 1_454 S
C409 C408 1.389 1_656 S
C409 C410 1.387 . S
C410 H395 0.930 . S
C410 C405 1.390 . S
C410 C409 1.387 . S
H411 C423 0.930 . S
H412 C425 0.930 . S
H413 C426 0.930 . S
H414 C430 0.959 . S
H415 C430 0.959 . S
H416 C430 0.961 . S
H417 C431 0.960 . S
H418 C431 0.961 . S
H419 C431 0.959 . S
H420 C434 0.929 . S
H421 C435 0.931 . S
H422 C437 0.930 1_655 S
C423 H411 0.930 . S
C423 C424 1.399 . S
C423 C428 1.399 . S
C424 C423 1.399 . S
C424 C425 1.376 1_655 S
C425 H412 0.930 . S
C425 C424 1.376 1_455 S
C425 C426 1.388 . S
C426 H413 0.930 . S
C426 C425 1.388 . S
C426 C427 1.390 . S
C427 C426 1.390 . S
C427 C428 1.394 1_455 S
C427 C433 1.465 . S
C428 C423 1.399 . S
C428 C427 1.394 1_655 S
C428 C429 1.516 . S
C429 C428 1.516 . S
C429 C430 1.502 . S
C429 C431 1.561 1_655 S
C429 C432 1.526 1_655 S
C430 H414 0.959 . S
C430 H415 0.959 . S
C430 H416 0.961 . S
C430 C429 1.502 . S
C431 H417 0.960 . S
C431 H418 0.961 . S
C431 H419 0.959 . S
C431 C429 1.561 1_455 S
C432 C429 1.526 1_455 S
C432 C433 1.396 . S
C432 C437 1.390 . S
C433 C427 1.465 . S
C433 C432 1.396 . S
C433 C434 1.399 . S
C434 H420 0.929 . S
C434 C433 1.399 . S
C434 C435 1.385 . S
C435 H421 0.931 . S
C435 C434 1.385 . S
C435 C436 1.389 . S
C436 C435 1.389 . S
C436 C437 1.387 . S
C437 H422 0.930 1_455 S
C437 C432 1.390 . S
C437 C436 1.387 . S
H438 C450 0.930 . S
H439 C452 0.930 . S
H440 C453 0.930 . S
H441 C457 0.959 . S
H442 C457 0.959 . S
H443 C457 0.961 . S
H444 C458 0.960 1_545 S
H445 C458 0.961 . S
H446 C458 0.959 . S
H447 C461 0.929 . S
H448 C462 0.931 . S
H449 C464 0.930 1_545 S
C450 H438 0.930 . S
C450 C451 1.399 . S
C450 C455 1.399 . S
C451 C450 1.399 . S
C451 C452 1.376 1_545 S
C452 H439 0.930 . S
C452 C451 1.376 1_565 S
C452 C453 1.388 . S
C453 H440 0.930 . S
C453 C452 1.388 . S
C453 C454 1.390 . S
C454 C453 1.390 . S
C454 C455 1.394 1_565 S
C454 C460 1.465 . S
C455 C450 1.399 . S
C455 C454 1.394 1_545 S
C455 C456 1.516 . S
C456 C455 1.516 . S
C456 C457 1.502 . S
C456 C458 1.561 1_545 S
C456 C459 1.526 . S
C457 H441 0.959 . S
C457 H442 0.959 . S
C457 H443 0.961 . S
C457 C456 1.502 . S
C458 H444 0.960 1_565 S
C458 H445 0.961 . S
C458 H446 0.959 . S
C458 C456 1.561 1_565 S
C459 C456 1.526 . S
C459 C460 1.392 1_545 S
C459 C464 1.393 1_545 S
C460 C454 1.465 . S
C460 C459 1.392 1_565 S
C460 C461 1.399 . S
C461 H447 0.929 . S
C461 C460 1.399 . S
C461 C462 1.385 . S
C462 H448 0.931 . S
C462 C461 1.385 . S
C462 C463 1.389 . S
C463 C462 1.389 . S
C463 C464 1.387 . S
C464 H449 0.930 1_565 S
C464 C459 1.393 1_565 S
C464 C463 1.387 . S
H465 C477 0.930 . S
H466 C479 0.930 . S
H467 C480 0.930 . S
H468 C484 0.959 . S
H469 C484 0.959 . S
H470 C484 0.961 . S
H471 C485 0.960 . S
H472 C485 0.961 . S
H473 C485 0.959 . S
H474 C488 0.929 . S
H475 C489 0.931 . S
H476 C491 0.930 . S
C477 H465 0.930 . S
C477 C478 1.399 . S
C477 C482 1.399 . S
C478 C477 1.399 . S
C478 C479 1.377 1_554 S
C479 H466 0.930 . S
C479 C478 1.377 1_556 S
C479 C480 1.388 . S
C480 H467 0.930 . S
C480 C479 1.388 . S
C480 C481 1.390 1_556 S
C481 C480 1.390 1_554 S
C481 C482 1.394 . S
C481 C487 1.465 . S
C482 C477 1.399 . S
C482 C481 1.394 . S
C482 C483 1.516 . S
C483 C482 1.516 . S
C483 C484 1.502 . S
C483 C485 1.561 . S
C483 C486 1.526 . S
C484 H468 0.959 . S
C484 H469 0.959 . S
C484 H470 0.961 . S
C484 C483 1.502 . S
C485 H471 0.960 . S
C485 H472 0.961 . S
C485 H473 0.959 . S
C485 C483 1.561 . S
C486 C483 1.526 . S
C486 C487 1.396 . S
C486 C491 1.390 . S
C487 C481 1.465 . S
C487 C486 1.396 . S
C487 C488 1.399 1_554 S
C488 H474 0.929 . S
C488 C487 1.399 1_556 S
C488 C489 1.385 . S
C489 H475 0.931 . S
C489 C488 1.385 . S
C489 C490 1.389 1_556 S
C490 C489 1.389 1_554 S
C490 C491 1.387 . S
C491 H476 0.930 . S
C491 C486 1.390 . S
C491 C490 1.387 . S
H492 C504 0.930 . S
H493 C506 0.930 . S
H494 C507 0.930 . S
H495 C511 0.959 . S
H496 C511 0.959 . S
H497 C511 0.961 . S
H498 C512 0.960 . S
H499 C512 0.961 . S
H500 C512 0.959 . S
H501 C515 0.929 . S
H502 C516 0.931 . S
H503 C518 0.930 . S
C504 H492 0.930 . S
C504 C505 1.399 . S
C504 C509 1.399 . S
C505 C504 1.399 . S
C505 C506 1.376 . S
C506 H493 0.930 . S
C506 C505 1.376 . S
C506 C507 1.388 . S
C507 H494 0.930 . S
C507 C506 1.388 . S
C507 C508 1.390 . S
C508 C507 1.390 . S
C508 C509 1.394 . S
C508 C514 1.465 . S
C509 C504 1.399 . S
C509 C508 1.394 . S
C509 C510 1.516 . S
C510 C509 1.516 . S
C510 C511 1.502 . S
C510 C512 1.561 . S
C510 C513 1.526 . S
C511 H495 0.959 . S
C511 H496 0.959 . S
C511 H497 0.961 . S
C511 C510 1.502 . S
C512 H498 0.960 . S
C512 H499 0.961 . S
C512 H500 0.959 . S
C512 C510 1.561 . S
C513 C510 1.526 . S
C513 C514 1.396 . S
C513 C518 1.390 . S
C514 C508 1.465 . S
C514 C513 1.396 . S
C514 C515 1.399 . S
C515 H501 0.929 . S
C515 C514 1.399 . S
C515 C516 1.385 . S
C516 H502 0.931 . S
C516 C515 1.385 . S
C516 C517 1.389 . S
C517 C516 1.389 . S
C517 C518 1.387 . S
C518 H503 0.930 . S
C518 C513 1.390 . S
C518 C517 1.387 . S
H519 C531 0.930 . S
H520 C533 0.930 . S
H521 C534 0.930 . S
H522 C538 0.959 . S
H523 C538 0.959 . S
H524 C538 0.961 . S
H525 C539 0.960 . S
H526 C539 0.961 . S
H527 C539 0.959 . S
H528 C542 0.929 . S
H529 C543 0.931 . S
H530 C545 0.930 . S
C531 H519 0.930 . S
C531 C532 1.399 . S
C531 C536 1.399 . S
C532 C531 1.399 . S
C532 C533 1.376 . S
C533 H520 0.930 . S
C533 C532 1.376 . S
C533 C534 1.388 . S
C534 H521 0.930 . S
C534 C533 1.388 . S
C534 C535 1.390 . S
C535 C534 1.390 . S
C535 C536 1.394 . S
C535 C541 1.465 . S
C536 C531 1.399 . S
C536 C535 1.394 . S
C536 C537 1.516 . S
C537 C536 1.516 . S
C537 C538 1.502 . S
C537 C539 1.561 . S
C537 C540 1.526 . S
C538 H522 0.959 . S
C538 H523 0.959 . S
C538 H524 0.961 . S
C538 C537 1.502 . S
C539 H525 0.960 . S
C539 H526 0.961 . S
C539 H527 0.959 . S
C539 C537 1.561 . S
C540 C537 1.526 . S
C540 C541 1.396 . S
C540 C545 1.390 . S
C541 C535 1.465 . S
C541 C540 1.396 . S
C541 C542 1.399 . S
C542 H528 0.929 . S
C542 C541 1.399 . S
C542 C543 1.385 . S
C543 H529 0.931 . S
C543 C542 1.385 . S
C543 C544 1.389 . S
C544 C543 1.389 . S
C544 C545 1.387 . S
C545 H530 0.930 . S
C545 C540 1.390 . S
C545 C544 1.387 . S
H546 C558 0.930 . S
H547 C560 0.930 . S
H548 C561 0.930 . S
H549 C565 0.959 . S
H550 C565 0.959 . S
H551 C565 0.961 . S
H552 C566 0.960 . S
H553 C566 0.961 . S
H554 C566 0.959 . S
H555 C569 0.929 . S
H556 C570 0.931 . S
H557 C572 0.930 . S
C558 H546 0.930 . S
C558 C559 1.399 . S
C558 C563 1.399 . S
C559 C558 1.399 . S
C559 C560 1.376 1_554 S
C560 H547 0.930 . S
C560 C559 1.376 1_556 S
C560 C561 1.388 . S
C561 H548 0.930 . S
C561 C560 1.388 . S
C561 C562 1.390 . S
C562 C561 1.390 . S
C562 C563 1.394 1_556 S
C562 C568 1.465 . S
C563 C558 1.399 . S
C563 C562 1.394 1_554 S
C563 C564 1.516 . S
C564 C563 1.516 . S
C564 C565 1.502 . S
C564 C566 1.561 . S
C564 C567 1.526 . S
C565 H549 0.959 . S
C565 H550 0.959 . S
C565 H551 0.961 . S
C565 C564 1.502 . S
C566 H552 0.960 . S
C566 H553 0.961 . S
C566 H554 0.959 . S
C566 C564 1.561 . S
C567 C564 1.526 . S
C567 C568 1.396 1_554 S
C567 C572 1.390 . S
C568 C562 1.465 . S
C568 C567 1.396 1_556 S
C568 C569 1.399 . S
C569 H555 0.929 . S
C569 C568 1.399 . S
C569 C570 1.385 . S
C570 H556 0.931 . S
C570 C569 1.385 . S
C570 C571 1.389 . S
C571 C570 1.389 . S
C571 C572 1.387 1_556 S
C572 H557 0.930 . S
C572 C567 1.390 . S
C572 C571 1.387 1_554 S
H573 C585 0.930 . S
H574 C587 0.930 . S
H575 C588 0.930 . S
H576 C592 0.959 . S
H577 C592 0.959 . S
H578 C592 0.961 . S
H579 C593 0.960 . S
H580 C593 0.961 . S
H581 C593 0.959 . S
H582 C596 0.929 . S
H583 C597 0.931 . S
H584 C599 0.930 . S
C585 H573 0.930 . S
C585 C586 1.399 . S
C585 C590 1.399 . S
C586 C585 1.399 . S
C586 C587 1.376 . S
C587 H574 0.930 . S
C587 C586 1.376 . S
C587 C588 1.388 . S
C588 H575 0.930 . S
C588 C587 1.388 . S
C588 C589 1.390 . S
C589 C588 1.390 . S
C589 C590 1.394 . S
C589 C595 1.465 . S
C590 C585 1.399 . S
C590 C589 1.394 . S
C590 C591 1.516 . S
C591 C590 1.516 . S
C591 C592 1.502 . S
C591 C593 1.561 . S
C591 C594 1.526 . S
C592 H576 0.959 . S
C592 H577 0.959 . S
C592 H578 0.961 . S
C592 C591 1.502 . S
C593 H579 0.960 . S
C593 H580 0.961 . S
C593 H581 0.959 . S
C593 C591 1.561 . S
C594 C591 1.526 . S
C594 C595 1.396 . S
C594 C599 1.390 . S
C595 C589 1.465 . S
C595 C594 1.396 . S
C595 C596 1.399 . S
C596 H582 0.929 . S
C596 C595 1.399 . S
C596 C597 1.385 . S
C597 H583 0.931 . S
C597 C596 1.385 . S
C597 C598 1.389 . S
C598 C597 1.389 . S
C598 C599 1.387 . S
C599 H584 0.930 . S
C599 C594 1.390 . S
C599 C598 1.387 . S
H600 C612 0.930 . S
H601 C614 0.930 . S
H602 C615 0.930 . S
H603 C619 0.959 . S
H604 C619 0.959 . S
H605 C619 0.961 . S
H606 C620 0.960 . S
H607 C620 0.961 . S
H608 C620 0.959 . S
H609 C623 0.929 . S
H610 C624 0.931 . S
H611 C626 0.930 . S
C612 H600 0.930 . S
C612 C613 1.399 . S
C612 C617 1.399 . S
C613 C612 1.399 . S
C613 C614 1.376 . S
C614 H601 0.930 . S
C614 C613 1.376 . S
C614 C615 1.388 . S
C615 H602 0.930 . S
C615 C614 1.388 . S
C615 C616 1.390 . S
C616 C615 1.390 . S
C616 C617 1.394 . S
C616 C622 1.465 . S
C617 C612 1.399 . S
C617 C616 1.394 . S
C617 C618 1.516 . S
C618 C617 1.516 . S
C618 C619 1.502 . S
C618 C620 1.561 . S
C618 C621 1.526 . S
C619 H603 0.959 . S
C619 H604 0.959 . S
C619 H605 0.961 . S
C619 C618 1.502 . S
C620 H606 0.960 . S
C620 H607 0.961 . S
C620 H608 0.959 . S
C620 C618 1.561 . S
C621 C618 1.526 . S
C621 C622 1.396 . S
C621 C626 1.390 . S
C622 C616 1.465 . S
C622 C621 1.396 . S
C622 C623 1.399 . S
C623 H609 0.929 . S
C623 C622 1.399 . S
C623 C624 1.385 . S
C624 H610 0.931 . S
C624 C623 1.385 . S
C624 C625 1.389 . S
C625 C624 1.389 . S
C625 C626 1.387 . S
C626 H611 0.930 . S
C626 C621 1.390 . S
C626 C625 1.387 . S
H627 C639 0.930 . S
H628 C641 0.930 . S
H629 C642 0.930 1_556 S
H630 C646 0.959 . S
H631 C646 0.959 . S
H632 C646 0.961 . S
H633 C647 0.960 . S
H634 C647 0.961 . S
H635 C647 0.959 . S
H636 C650 0.929 . S
H637 C651 0.931 . S
H638 C653 0.930 . S
C639 H627 0.930 . S
C639 C640 1.399 . S
C639 C644 1.399 . S
C640 C639 1.399 . S
C640 C641 1.376 . S
C641 H628 0.930 . S
C641 C640 1.376 . S
C641 C642 1.388 . S
C642 H629 0.930 1_554 S
C642 C641 1.388 . S
C642 C643 1.390 . S
C643 C642 1.390 . S
C643 C644 1.394 . S
C643 C649 1.465 1_554 S
C644 C639 1.399 . S
C644 C643 1.394 . S
C644 C645 1.516 . S
C645 C644 1.516 . S
C645 C646 1.502 . S
C645 C647 1.561 1_554 S
C645 C648 1.526 1_554 S
C646 H630 0.959 . S
C646 H631 0.959 . S
C646 H632 0.961 . S
C646 C645 1.502 . S
C647 H633 0.960 . S
C647 H634 0.961 . S
C647 H635 0.959 . S
C647 C645 1.561 1_556 S
C648 C645 1.526 1_556 S
C648 C649 1.396 . S
C648 C653 1.390 . S
C649 C643 1.465 1_556 S
C649 C648 1.396 . S
C649 C650 1.399 . S
C650 H636 0.929 . S
C650 C649 1.399 . S
C650 C651 1.385 . S
C651 H637 0.931 . S
C651 C650 1.385 . S
C651 C652 1.389 . S
C652 C651 1.389 . S
C652 C653 1.387 . S
C653 H638 0.930 . S
C653 C648 1.390 . S
C653 C652 1.387 . S
H654 C666 0.930 . S
H655 C668 0.930 . S
H656 C669 0.930 . S
H657 C673 0.943 1_565 S
H658 C673 0.956 . S
H659 C673 0.962 . S
H660 C674 0.960 . S
H661 C674 0.961 . S
H662 C674 0.959 . S
H663 C677 0.929 . S
H664 C678 0.931 . S
H665 C680 0.930 1_545 S
C666 H654 0.930 . S
C666 C667 1.399 . S
C666 C671 1.399 . S
C667 C666 1.399 . S
C667 C668 1.376 . S
C668 H655 0.930 . S
C668 C667 1.376 . S
C668 C669 1.388 1_545 S
C669 H656 0.930 . S
C669 C668 1.388 1_565 S
C669 C670 1.390 1_565 S
C670 C669 1.390 1_545 S
C670 C671 1.394 . S
C670 C676 1.465 1_545 S
C671 C666 1.399 . S
C671 C670 1.394 . S
C671 C672 1.516 . S
C672 C671 1.516 . S
C672 C673 1.519 . S
C672 C674 1.561 . S
C672 C675 1.526 . S
C673 H657 0.943 1_545 S
C673 H658 0.956 . S
C673 H659 0.962 . S
C673 C672 1.519 . S
C674 H660 0.960 . S
C674 H661 0.961 . S
C674 H662 0.959 . S
C674 C672 1.561 . S
C675 C672 1.526 . S
C675 C676 1.396 1_545 S
C675 C680 1.390 1_545 S
C676 C670 1.465 1_565 S
C676 C675 1.396 1_565 S
C676 C677 1.399 . S
C677 H663 0.929 . S
C677 C676 1.399 . S
C677 C678 1.385 . S
C678 H664 0.931 . S
C678 C677 1.385 . S
C678 C679 1.389 . S
C679 C678 1.389 . S
C679 C680 1.387 . S
C680 H665 0.930 1_565 S
C680 C675 1.390 1_565 S
C680 C679 1.387 . S
H681 C693 0.930 . S
H682 C695 0.930 . S
H683 C696 0.930 . S
H684 C700 0.959 . S
H685 C700 0.959 . S
H686 C700 0.961 . S
H687 C701 0.960 . S
H688 C701 0.961 . S
H689 C701 0.959 . S
H690 C704 0.929 . S
H691 C705 0.931 . S
H692 C707 0.930 . S
C693 H681 0.930 . S
C693 C694 1.399 . S
C693 C698 1.399 . S
C694 C693 1.399 . S
C694 C695 1.376 . S
C695 H682 0.930 . S
C695 C694 1.376 . S
C695 C696 1.388 . S
C696 H683 0.930 . S
C696 C695 1.388 . S
C696 C697 1.390 . S
C697 C696 1.390 . S
C697 C698 1.394 . S
C697 C703 1.465 . S
C698 C693 1.399 . S
C698 C697 1.394 . S
C698 C699 1.516 . S
C699 C698 1.516 . S
C699 C700 1.502 . S
C699 C701 1.561 . S
C699 C702 1.526 . S
C700 H684 0.959 . S
C700 H685 0.959 . S
C700 H686 0.961 . S
C700 C699 1.502 . S
C701 H687 0.960 . S
C701 H688 0.961 . S
C701 H689 0.959 . S
C701 C699 1.561 . S
C702 C699 1.526 . S
C702 C703 1.396 . S
C702 C707 1.390 . S
C703 C697 1.465 . S
C703 C702 1.396 . S
C703 C704 1.399 . S
C704 H690 0.929 . S
C704 C703 1.399 . S
C704 C705 1.385 . S
C705 H691 0.931 . S
C705 C704 1.385 . S
C705 C706 1.389 . S
C706 C705 1.389 . S
C706 C707 1.387 . S
C707 H692 0.930 . S
C707 C702 1.390 . S
C707 C706 1.387 . S
H708 C720 0.930 . S
H709 C722 0.930 . S
H710 C723 0.930 . S
H711 C727 0.959 . S
H712 C727 0.959 . S
H713 C727 0.961 . S
H714 C728 0.960 . S
H715 C728 0.961 . S
H716 C728 0.959 . S
H717 C731 0.929 1_455 S
H718 C732 0.931 . S
H719 C734 0.930 . S
C720 H708 0.930 . S
C720 C721 1.399 . S
C720 C725 1.399 . S
C721 C720 1.399 . S
C721 C722 1.376 . S
C722 H709 0.930 . S
C722 C721 1.376 . S
C722 C723 1.388 . S
C723 H710 0.930 . S
C723 C722 1.388 . S
C723 C724 1.390 . S
C724 C723 1.390 . S
C724 C725 1.394 . S
C724 C730 1.465 . S
C725 C720 1.399 . S
C725 C724 1.394 . S
C725 C726 1.528 . S
C726 C725 1.528 . S
C726 C727 1.478 1_455 S
C726 C728 1.572 . S
C726 C729 1.531 1_455 S
C727 H711 0.959 . S
C727 H712 0.959 . S
C727 H713 0.961 . S
C727 C726 1.478 1_655 S
C728 H714 0.960 . S
C728 H715 0.961 . S
C728 H716 0.959 . S
C728 C726 1.572 . S
C729 C726 1.531 1_655 S
C729 C730 1.396 1_655 S
C729 C734 1.390 . S
C730 C724 1.465 . S
C730 C729 1.396 1_455 S
C730 C731 1.399 1_455 S
C731 H717 0.929 1_655 S
C731 C730 1.399 1_655 S
C731 C732 1.385 . S
C732 H718 0.931 . S
C732 C731 1.385 . S
C732 C733 1.389 . S
C733 C732 1.389 . S
C733 C734 1.387 . S
C734 H719 0.930 . S
C734 C729 1.390 . S
C734 C733 1.387 . S
H735 C747 0.930 . S
H736 C749 0.930 . S
H737 C750 0.930 . S
H738 C754 0.959 . S
H739 C754 0.959 . S
H740 C754 0.961 . S
H741 C755 0.960 . S
H742 C755 0.961 . S
H743 C755 0.959 . S
H744 C758 0.929 . S
H745 C759 0.931 . S
H746 C761 0.930 . S
C747 H735 0.930 . S
C747 C748 1.399 . S
C747 C752 1.399 . S
C748 C747 1.399 . S
C748 C749 1.376 1_565 S
C749 H736 0.930 . S
C749 C748 1.376 1_545 S
C749 C750 1.388 . S
C750 H737 0.930 . S
C750 C749 1.388 . S
C750 C751 1.390 . S
C751 C750 1.390 . S
C751 C752 1.394 1_545 S
C751 C757 1.465 . S
C752 C747 1.399 . S
C752 C751 1.394 1_565 S
C752 C753 1.516 . S
C753 C752 1.516 . S
C753 C754 1.502 . S
C753 C755 1.561 . S
C753 C756 1.526 . S
C754 H738 0.959 . S
C754 H739 0.959 . S
C754 H740 0.961 . S
C754 C753 1.502 . S
C755 H741 0.960 . S
C755 H742 0.961 . S
C755 H743 0.959 . S
C755 C753 1.561 . S
C756 C753 1.526 . S
C756 C757 1.396 1_565 S
C756 C761 1.390 . S
C757 C751 1.465 . S
C757 C756 1.396 1_545 S
C757 C758 1.399 . S
C758 H744 0.929 . S
C758 C757 1.399 . S
C758 C759 1.385 . S
C759 H745 0.931 . S
C759 C758 1.385 . S
C759 C760 1.389 . S
C760 C759 1.389 . S
C760 C761 1.387 1_545 S
C761 H746 0.930 . S
C761 C756 1.390 . S
C761 C760 1.387 1_565 S
H762 C774 0.930 . S
H763 C776 0.930 . S
H764 C777 0.930 . S
H765 C781 0.959 . S
H766 C781 0.959 . S
H767 C781 0.961 . S
H768 C782 0.960 . S
H769 C782 0.961 . S
H770 C782 0.959 . S
H771 C785 0.929 . S
H772 C786 0.931 . S
H773 C788 0.930 . S
C774 H762 0.930 . S
C774 C775 1.399 . S
C774 C779 1.399 . S
C775 C774 1.399 . S
C775 C776 1.376 . S
C776 H763 0.930 . S
C776 C775 1.376 . S
C776 C777 1.388 . S
C777 H764 0.930 . S
C777 C776 1.388 . S
C777 C778 1.390 . S
C778 C777 1.390 . S
C778 C779 1.394 . S
C778 C784 1.465 . S
C779 C774 1.399 . S
C779 C778 1.394 . S
C779 C780 1.516 . S
C780 C779 1.516 . S
C780 C781 1.502 . S
C780 C782 1.561 . S
C780 C783 1.526 . S
C781 H765 0.959 . S
C781 H766 0.959 . S
C781 H767 0.961 . S
C781 C780 1.502 . S
C782 H768 0.960 . S
C782 H769 0.961 . S
C782 H770 0.959 . S
C782 C780 1.561 . S
C783 C780 1.526 . S
C783 C784 1.396 . S
C783 C788 1.390 . S
C784 C778 1.465 . S
C784 C783 1.396 . S
C784 C785 1.399 . S
C785 H771 0.929 . S
C785 C784 1.399 . S
C785 C786 1.385 . S
C786 H772 0.931 . S
C786 C785 1.385 . S
C786 C787 1.389 . S
C787 C786 1.389 . S
C787 C788 1.387 . S
C788 H773 0.930 . S
C788 C783 1.390 . S
C788 C787 1.387 . S
H789 C801 0.930 . S
H790 C803 0.930 . S
H791 C804 0.930 . S
H792 C808 0.959 . S
H793 C808 0.959 . S
H794 C808 0.961 . S
H795 C809 0.960 . S
H796 C809 0.961 . S
H797 C809 0.959 . S
H798 C812 0.929 . S
H799 C813 0.931 . S
H800 C815 0.930 . S
C801 H789 0.930 . S
C801 C802 1.399 . S
C801 C806 1.399 . S
C802 C801 1.399 . S
C802 C803 1.376 . S
C803 H790 0.930 . S
C803 C802 1.376 . S
C803 C804 1.388 . S
C804 H791 0.930 . S
C804 C803 1.388 . S
C804 C805 1.390 . S
C805 C804 1.390 . S
C805 C806 1.394 . S
C805 C811 1.465 1_655 S
C806 C801 1.399 . S
C806 C805 1.394 . S
C806 C807 1.516 . S
C807 C806 1.516 . S
C807 C808 1.502 1_655 S
C807 C809 1.561 . S
C807 C810 1.526 1_655 S
C808 H792 0.959 . S
C808 H793 0.959 . S
C808 H794 0.961 . S
C808 C807 1.502 1_455 S
C809 H795 0.960 . S
C809 H796 0.961 . S
C809 H797 0.959 . S
C809 C807 1.561 . S
C810 C807 1.526 1_455 S
C810 C811 1.396 . S
C810 C815 1.390 . S
C811 C805 1.465 1_455 S
C811 C810 1.396 . S
C811 C812 1.399 . S
C812 H798 0.929 . S
C812 C811 1.399 . S
C812 C813 1.385 . S
C813 H799 0.931 . S
C813 C812 1.385 . S
C813 C814 1.389 . S
C814 C813 1.389 . S
C814 C815 1.387 . S
C815 H800 0.930 . S
C815 C810 1.390 . S
C815 C814 1.387 . S
C181 C11 1.770 . S
C193 C123 1.788 . S
C208 C25 1.771 . S
C220 C137 1.780 . S
C235 C151 1.788 . S
C247 C39 1.776 . S
C262 C165 1.784 . S
C274 C53 1.782 . S
C289 C95 1.787 . S
C301 C67 1.778 . S
C316 C109 1.769 . S
C328 C81 1.787 . S
C343 C9 1.586 . S
C355 C51 1.592 . S
C370 C65 1.583 . S
C382 C23 1.575 . S
C397 C79 1.583 . S
C409 C37 1.575 . S
C424 C93 1.585 . S
C436 C135 1.592 . S
C451 C149 1.583 . S
C463 C107 1.593 . S
C478 C121 1.583 . S
C490 C163 1.575 . S
C505 C84 0.949 . S
C517 C0 0.857 . S
C532 C14 0.953 . S
C544 C98 0.840 . S
C559 C112 0.825 . S
C571 C28 0.948 . S
C586 C126 0.830 . S
C598 C42 0.917 . S
C613 C56 0.940 . S
C625 C140 0.873 . S
C640 C154 0.884 . S
C652 C70 0.933 . S
C667 C5 1.058 . S
C679 C103 1.062 . S
C694 C117 1.083 . S
C706 C19 1.027 . S
C721 C131 1.071 . S
C733 C33 1.048 . S
C748 C47 1.036 . S
C760 C145 1.078 . S
C775 C159 1.082 . S
C787 C61 1.029 . S
C802 C89 1.065 . S
C814 C75 1.056 . S
