# Generated by pormake.
# Topology lcy-e, (6)-cn, num edge types: 1
# Building blocks:
#     Node 0, Type 0, BuildingBlock: BETDAH_clean_sbu_0, # of connection points: 6
#     Node 1, Type 0, BuildingBlock: BETDAH_clean_sbu_0, # of connection points: 6
#     Node 2, Type 0, BuildingBlock: BETDAH_clean_sbu_0, # of connection points: 6
#     Node 3, Type 0, BuildingBlock: BETDAH_clean_sbu_0, # of connection points: 6
#     Node 4, Type 0, BuildingBlock: BETDAH_clean_sbu_0, # of connection points: 6
#     Node 5, Type 0, BuildingBlock: BETDAH_clean_sbu_0, # of connection points: 6
#     Node 6, Type 0, BuildingBlock: BETDAH_clean_sbu_0, # of connection points: 6
#     Node 7, Type 0, BuildingBlock: BETDAH_clean_sbu_0, # of connection points: 6
#     Node 8, Type 0, BuildingBlock: BETDAH_clean_sbu_0, # of connection points: 6
#     Node 9, Type 0, BuildingBlock: BETDAH_clean_sbu_0, # of connection points: 6
#     Node 10, Type 0, BuildingBlock: BETDAH_clean_sbu_0, # of connection points: 6
#     Node 11, Type 0, BuildingBlock: BETDAH_clean_sbu_0, # of connection points: 6
#     Edge 12, Type (0, 0), BuildingBlock: XUDNAN_clean_linker_2, # of connection points: 2
#     Edge 13, Type (0, 0), BuildingBlock: XUDNAN_clean_linker_2, # of connection points: 2
#     Edge 14, Type (0, 0), BuildingBlock: XUDNAN_clean_linker_2, # of connection points: 2
#     Edge 15, Type (0, 0), BuildingBlock: XUDNAN_clean_linker_2, # of connection points: 2
#     Edge 16, Type (0, 0), BuildingBlock: XUDNAN_clean_linker_2, # of connection points: 2
#     Edge 17, Type (0, 0), BuildingBlock: XUDNAN_clean_linker_2, # of connection points: 2
#     Edge 18, Type (0, 0), BuildingBlock: XUDNAN_clean_linker_2, # of connection points: 2
#     Edge 19, Type (0, 0), BuildingBlock: XUDNAN_clean_linker_2, # of connection points: 2
#     Edge 20, Type (0, 0), BuildingBlock: XUDNAN_clean_linker_2, # of connection points: 2
#     Edge 21, Type (0, 0), BuildingBlock: XUDNAN_clean_linker_2, # of connection points: 2
#     Edge 22, Type (0, 0), BuildingBlock: XUDNAN_clean_linker_2, # of connection points: 2
#     Edge 23, Type (0, 0), BuildingBlock: XUDNAN_clean_linker_2, # of connection points: 2
#     Edge 24, Type (0, 0), BuildingBlock: XUDNAN_clean_linker_2, # of connection points: 2
#     Edge 25, Type (0, 0), BuildingBlock: XUDNAN_clean_linker_2, # of connection points: 2
#     Edge 26, Type (0, 0), BuildingBlock: XUDNAN_clean_linker_2, # of connection points: 2
#     Edge 27, Type (0, 0), BuildingBlock: XUDNAN_clean_linker_2, # of connection points: 2
#     Edge 28, Type (0, 0), BuildingBlock: XUDNAN_clean_linker_2, # of connection points: 2
#     Edge 29, Type (0, 0), BuildingBlock: XUDNAN_clean_linker_2, # of connection points: 2
#     Edge 30, Type (0, 0), BuildingBlock: XUDNAN_clean_linker_2, # of connection points: 2
#     Edge 31, Type (0, 0), BuildingBlock: XUDNAN_clean_linker_2, # of connection points: 2
#     Edge 32, Type (0, 0), BuildingBlock: XUDNAN_clean_linker_2, # of connection points: 2
#     Edge 33, Type (0, 0), BuildingBlock: XUDNAN_clean_linker_2, # of connection points: 2
#     Edge 34, Type (0, 0), BuildingBlock: XUDNAN_clean_linker_2, # of connection points: 2
#     Edge 35, Type (0, 0), BuildingBlock: XUDNAN_clean_linker_2, # of connection points: 2
#     Edge 36, Type (0, 0), BuildingBlock: XUDNAN_clean_linker_2, # of connection points: 2
#     Edge 37, Type (0, 0), BuildingBlock: XUDNAN_clean_linker_2, # of connection points: 2
#     Edge 38, Type (0, 0), BuildingBlock: XUDNAN_clean_linker_2, # of connection points: 2
#     Edge 39, Type (0, 0), BuildingBlock: XUDNAN_clean_linker_2, # of connection points: 2
#     Edge 40, Type (0, 0), BuildingBlock: XUDNAN_clean_linker_2, # of connection points: 2
#     Edge 41, Type (0, 0), BuildingBlock: XUDNAN_clean_linker_2, # of connection points: 2
#     Edge 42, Type (0, 0), BuildingBlock: XUDNAN_clean_linker_2, # of connection points: 2
#     Edge 43, Type (0, 0), BuildingBlock: XUDNAN_clean_linker_2, # of connection points: 2
#     Edge 44, Type (0, 0), BuildingBlock: XUDNAN_clean_linker_2, # of connection points: 2
#     Edge 45, Type (0, 0), BuildingBlock: XUDNAN_clean_linker_2, # of connection points: 2
#     Edge 46, Type (0, 0), BuildingBlock: XUDNAN_clean_linker_2, # of connection points: 2
#     Edge 47, Type (0, 0), BuildingBlock: XUDNAN_clean_linker_2, # of connection points: 2
# Relax obj value: 0.195
# Max RMSD: 0.313
# Mean RMSD: 0.289
data_MOF--net-lcy-e--node1-BETDAH_clean_sbu_0--edge1-XUDNAN_clean_linker_2
_symmetry_space_group_name_H-M    P1
_symmetry_Int_Tables_number       1
_symmetry_cell_setting            triclinic
loop_
_symmetry_equiv_pos_as_xyz
'x, y, z'
_cell_length_a     45.309462
_cell_length_b     41.530377
_cell_length_c     44.966949
_cell_angle_alpha  89.586643
_cell_angle_beta   90.853977
_cell_angle_gamma 88.547866
loop_
_atom_site_label
_atom_site_type_symbol
_atom_site_fract_x
_atom_site_fract_y
_atom_site_fract_z
_atom_type_partial_charge
Ho0 Ho 0.13785 0.26545 0.47964 0.0
Ho1 Ho 0.16471 0.21778 0.52476 0.0
C2 C 0.19885 0.22454 0.46412 0.0
C3 C 0.12935 0.31126 0.44092 0.0
C4 C 0.14042 0.3187 0.41108 0.0
C5 C 0.16868 0.30822 0.40222 0.0
C6 C 0.17903 0.31618 0.37399 0.0
C7 C 0.16142 0.33515 0.35435 0.0
C8 C 0.13295 0.34508 0.36315 0.0
C9 C 0.12254 0.33683 0.39121 0.0
C10 C 0.10918 0.20997 0.48225 0.0
C11 C 0.10622 0.25928 0.5417 0.0
C12 C 0.17308 0.17012 0.56177 0.0
C13 C 0.15448 0.14754 0.57802 0.0
C14 C 0.12381 0.14729 0.57318 0.0
C15 C 0.10676 0.12411 0.58719 0.0
C16 C 0.12007 0.1007 0.60627 0.0
C17 C 0.15078 0.10159 0.61143 0.0
C18 C 0.16777 0.12477 0.59743 0.0
C19 C 0.18626 0.27871 0.52667 0.0
O20 O 0.17872 0.24681 0.45642 0.0
O21 O 0.1979 0.2086 0.48951 0.0
O22 O 0.1124 0.28635 0.44283 0.0
O23 O 0.14853 0.31254 0.46289 0.0
O24 O 0.09681 0.23801 0.47734 0.0
O25 O 0.13722 0.21195 0.48363 0.0
O26 O 0.12039 0.23111 0.54428 0.0
O27 O 0.11226 0.27978 0.52001 0.0
O28 O 0.17171 0.20027 0.56995 0.0
O29 O 0.17296 0.16702 0.53286 0.0
O30 O 0.20228 0.25314 0.53322 0.0
O31 O 0.16036 0.27014 0.52208 0.0
H32 H 0.18296 0.29446 0.41732 0.0
H33 H 0.20115 0.3085 0.36794 0.0
H34 H 0.11881 0.35952 0.34837 0.0
H35 H 0.10064 0.34501 0.39756 0.0
H36 H 0.11314 0.16466 0.55819 0.0
H37 H 0.08316 0.12445 0.58298 0.0
H38 H 0.16189 0.08375 0.62559 0.0
H39 H 0.19144 0.12447 0.60127 0.0
Ho40 Ho 0.99901 0.85994 0.74138 0.0
Ho41 Ho 0.04451 0.88712 0.78568 0.0
C42 C 0.03699 0.92379 0.72358 0.0
C43 C 0.95585 0.85385 0.70361 0.0
C44 C 0.94913 0.86495 0.67286 0.0
C45 C 0.95609 0.89613 0.66329 0.0
C46 C 0.94801 0.90698 0.63468 0.0
C47 C 0.93247 0.88698 0.61518 0.0
C48 C 0.92617 0.85551 0.6246 0.0
C49 C 0.93448 0.84461 0.65312 0.0
C50 C 0.05154 0.82853 0.74186 0.0
C51 C 1.00707 0.82614 0.80468 0.0
C52 C 0.09016 0.89426 0.82031 0.0
C53 C 0.11637 0.87519 0.8312 0.0
C54 C 0.11415 0.85002 0.8521 0.0
C55 C 0.13961 0.83357 0.8629 0.0
C56 C 0.1678 0.84185 0.85296 0.0
C57 C 0.16982 0.86676 0.83181 0.0
C58 C 0.14449 0.88325 0.82118 0.0
C59 C 0.98847 0.91284 0.78823 0.0
O60 O 0.0153 0.90405 0.71712 0.0
O61 O 0.05267 0.92114 0.74842 0.0
O62 O 0.97714 0.83221 0.70708 0.0
O63 O 0.95662 0.87625 0.72386 0.0
O64 O 0.02636 0.81505 0.7372 0.0
O65 O 0.04796 0.85883 0.74412 0.0
O66 O 0.03397 0.83791 0.80417 0.0
O67 O 0.987 0.83486 0.78415 0.0
O68 O 0.06408 0.88693 0.83011 0.0
O69 O 0.08963 0.9014 0.79197 0.0
O70 O 1.01164 0.92912 0.79539 0.0
O71 O 0.99676 0.88459 0.78343 0.0
H72 H 0.96705 0.91246 0.67821 0.0
H73 H 0.95287 0.93145 0.62828 0.0
H74 H 0.91445 0.83941 0.61001 0.0
H75 H 0.92891 0.82047 0.65998 0.0
H76 H 0.09284 0.84318 0.86033 0.0
H77 H 0.13722 0.81435 0.87902 0.0
H78 H 0.19112 0.87421 0.82402 0.0
H79 H 0.14696 0.90274 0.80534 0.0
Ho80 Ho 0.37853 0.7825 0.02088 0.0
Ho81 Ho 0.39922 0.73484 0.97304 0.0
C82 C 0.43031 0.80389 0.97623 0.0
C83 C 0.3734 0.82105 0.06547 0.0
C84 C 0.39137 0.84308 0.08327 0.0
C85 C 0.41721 0.85659 0.0723 0.0
C86 C 0.43379 0.8773 0.09015 0.0
C87 C 0.42493 0.88439 0.1193 0.0
C88 C 0.39893 0.87085 0.12994 0.0
C89 C 0.38237 0.85045 0.11212 0.0
C90 C 0.33823 0.77384 0.97674 0.0
C91 C 0.35363 0.71089 0.0192 0.0
C92 C 0.41104 0.70734 0.92262 0.0
C93 C 0.39676 0.68955 0.89827 0.0
C94 C 0.41318 0.68195 0.87299 0.0
C95 C 0.39994 0.66707 0.84856 0.0
C96 C 0.36986 0.65936 0.84883 0.0
C97 C 0.35353 0.66667 0.87453 0.0
C98 C 0.36684 0.68171 0.89898 0.0
C99 C 0.42711 0.72943 0.02712 0.0
O100 O 0.41151 0.81284 0.99706 0.0
O101 O 0.431 0.77442 0.96527 0.0
O102 O 0.36721 0.82966 0.03793 0.0
O103 O 0.38004 0.79029 0.06835 0.0
O104 O 0.33186 0.77984 1.00413 0.0
O105 O 0.36588 0.77492 0.97361 0.0
O106 O 0.36018 0.70985 0.99071 0.0
O107 O 0.36278 0.7343 0.03676 0.0
O108 O 0.41423 0.69283 0.9484 0.0
O109 O 0.40281 0.73751 0.92522 0.0
O110 O 0.42217 0.70502 1.01002 0.0
O111 O 0.41899 0.75472 1.01366 0.0
H112 H 0.42462 0.85098 0.05011 0.0
H113 H 0.45381 0.8872 0.08141 0.0
H114 H 0.39124 0.87618 0.15211 0.0
H115 H 0.36247 0.84032 0.12095 0.0
H116 H 0.43624 0.68812 0.87189 0.0
H117 H 0.41317 0.66244 0.82912 0.0
H118 H 0.33044 0.66076 0.8758 0.0
H119 H 0.35373 0.68755 0.91826 0.0
Ho120 Ho 0.54849 0.12527 0.24128 0.0
Ho121 Ho 0.49997 0.11103 0.28596 0.0
C122 C 0.50739 0.06204 0.23244 0.0
C123 C 0.59338 0.12325 0.20625 0.0
C124 C 0.6001 0.11095 0.17621 0.0
C125 C 0.59144 0.08026 0.16704 0.0
C126 C 0.59892 0.06877 0.13885 0.0
C127 C 0.61505 0.08776 0.11906 0.0
C128 C 0.62324 0.11869 0.12824 0.0
C129 C 0.61591 0.13007 0.1565 0.0
C130 C 0.49834 0.16046 0.23328 0.0
C131 C 0.54086 0.17059 0.29721 0.0
C132 C 0.45428 0.10972 0.31995 0.0
C133 C 0.43067 0.12878 0.33431 0.0
C134 C 0.42144 0.15936 0.32379 0.0
C135 C 0.39653 0.17492 0.33586 0.0
C136 C 0.38031 0.16006 0.35851 0.0
C137 C 0.39035 0.12979 0.36939 0.0
C138 C 0.41523 0.11444 0.35746 0.0
C139 C 0.55278 0.07934 0.29574 0.0
O140 O 0.52997 0.07887 0.22312 0.0
O141 O 0.49132 0.07064 0.25534 0.0
O142 O 0.57494 0.14792 0.20756 0.0
O143 O 0.58888 0.10176 0.22702 0.0
O144 O 0.52446 0.17081 0.22777 0.0
O145 O 0.49974 0.13097 0.24052 0.0
O146 O 0.51317 0.16148 0.29675 0.0
O147 O 0.56109 0.15551 0.28096 0.0
O148 O 0.48131 0.11208 0.33022 0.0
O149 O 0.4529 0.10764 0.29096 0.0
O150 O 0.5273 0.0677 0.302 0.0
O151 O 0.54885 0.10788 0.2871 0.0
H152 H 0.57914 0.06497 0.18174 0.0
H153 H 0.59251 0.04471 0.13284 0.0
H154 H 0.63516 0.1343 0.11353 0.0
H155 H 0.62271 0.15386 0.16301 0.0
H156 H 0.43304 0.17083 0.30583 0.0
H157 H 0.3898 0.19839 0.32718 0.0
H158 H 0.37832 0.11722 0.38635 0.0
H159 H 0.42183 0.09069 0.36567 0.0
Ho160 Ho 0.62611 0.24891 0.55466 0.0
Ho161 Ho 0.65053 0.29991 0.51352 0.0
C162 C 0.68204 0.29274 0.57642 0.0
C163 C 0.61951 0.2005 0.59046 0.0
C164 C 0.6281 0.19197 0.62132 0.0
C165 C 0.65017 0.20866 0.63661 0.0
C166 C 0.65975 0.19857 0.66502 0.0
C167 C 0.64756 0.17142 0.67849 0.0
C168 C 0.62472 0.15549 0.66348 0.0
C169 C 0.61511 0.1657 0.63518 0.0
C170 C 0.59336 0.30339 0.55289 0.0
C171 C 0.59732 0.25784 0.49025 0.0
C172 C 0.65972 0.34866 0.47873 0.0
C173 C 0.64396 0.37388 0.46104 0.0
C174 C 0.65856 0.40241 0.45473 0.0
C175 C 0.64433 0.42727 0.43855 0.0
C176 C 0.61509 0.42415 0.42822 0.0
C177 C 0.60044 0.39539 0.43465 0.0
C178 C 0.61475 0.37047 0.45096 0.0
C179 C 0.677 0.23997 0.51159 0.0
O180 O 0.66436 0.26851 0.58182 0.0
O181 O 0.68005 0.30988 0.55178 0.0
O182 O 0.59979 0.22379 0.58692 0.0
O183 O 0.64119 0.20254 0.57174 0.0
O184 O 0.58298 0.27469 0.55511 0.0
O185 O 0.6215 0.30245 0.55329 0.0
O186 O 0.60718 0.28746 0.49178 0.0
O187 O 0.60571 0.2357 0.5103 0.0
O188 O 0.65844 0.31895 0.46941 0.0
O189 O 0.65748 0.35085 0.50758 0.0
O190 O 0.69141 0.26626 0.50776 0.0
O191 O 0.6504 0.24743 0.51392 0.0
H192 H 0.66056 0.22889 0.62625 0.0
H193 H 0.67753 0.21115 0.67587 0.0
H194 H 0.61464 0.13472 0.67343 0.0
H195 H 0.59799 0.15256 0.62381 0.0
H196 H 0.68104 0.40558 0.46254 0.0
H197 H 0.65616 0.44918 0.43456 0.0
H198 H 0.57803 0.39198 0.42682 0.0
H199 H 0.60304 0.34864 0.4557 0.0
Ho200 Ho 0.98524 0.38344 0.74633 0.0
Ho201 Ho 0.03925 0.36203 0.78617 0.0
C202 C 0.98163 0.31968 0.78581 0.0
C203 C 0.94587 0.39645 0.7055 0.0
C204 C 0.9146 0.38854 0.70079 0.0
C205 C 0.90277 0.36148 0.71473 0.0
C206 C 0.87447 0.35131 0.70703 0.0
C207 C 0.85727 0.36814 0.68537 0.0
C208 C 0.86878 0.39614 0.67252 0.0
C209 C 0.89721 0.40611 0.68005 0.0
C210 C 0.984 0.40372 0.80374 0.0
C211 C 0.04715 0.42231 0.74268 0.0
C212 C 0.07918 0.3542 0.82732 0.0
C213 C 0.09807 0.37131 0.84861 0.0
C214 C 0.08792 0.39875 0.86386 0.0
C215 C 0.10519 0.41204 0.88655 0.0
C216 C 0.13282 0.39799 0.89447 0.0
C217 C 0.14299 0.37085 0.87865 0.0
C218 C 0.12584 0.35778 0.85595 0.0
C219 C 0.0338 0.33176 0.73281 0.0
O220 O 0.97314 0.33343 0.76041 0.0
O221 O 1.00309 0.33121 0.80241 0.0
O222 O 0.95209 0.41648 0.72699 0.0
O223 O 0.96425 0.37168 0.70477 0.0
O224 O 0.96097 0.39516 0.78857 0.0
O225 O 1.00617 0.4017 0.78733 0.0
O226 O 0.05655 0.40773 0.76745 0.0
O227 O 0.02137 0.41575 0.72971 0.0
O228 O 0.08547 0.35613 0.799 0.0
O229 O 0.05075 0.35505 0.83236 0.0
O230 O 0.04601 0.31811 0.75613 0.0
O231 O 0.02795 0.3604 0.73905 0.0
H232 H 0.91585 0.34747 0.73077 0.0
H233 H 0.86665 0.32948 0.71721 0.0
H234 H 0.85601 0.41014 0.65625 0.0
H235 H 0.90593 0.42705 0.66906 0.0
H236 H 0.06641 0.40941 0.8588 0.0
H237 H 0.09678 0.43311 0.89802 0.0
H238 H 0.16383 0.3589 0.88444 0.0
H239 H 0.13389 0.33633 0.84475 0.0
Ho240 Ho 0.88012 0.76622 0.05026 0.0
Ho241 Ho 0.87337 0.70774 1.00929 0.0
C242 C 0.83441 0.70919 0.06736 0.0
C243 C 0.87161 0.81785 0.08145 0.0
C244 C 0.86754 0.82744 0.11283 0.0
C245 C 0.84472 0.84947 0.11985 0.0
C246 C 0.84145 0.86059 0.149 0.0
C247 C 0.86111 0.85007 0.17177 0.0
C248 C 0.88351 0.82733 0.16481 0.0
C249 C 0.88665 0.81607 0.13569 0.0
C250 C 0.91973 0.71808 0.06123 0.0
C251 C 0.92039 0.75935 0.99344 0.0
C252 C 0.87709 0.65668 0.97654 0.0
C253 C 0.89656 0.63087 0.96471 0.0
C254 C 0.92114 0.6373 0.94712 0.0
C255 C 0.93678 0.612 0.93346 0.0
C256 C 0.92801 0.57989 0.93701 0.0
C257 C 0.90403 0.57362 0.95544 0.0
C258 C 0.8885 0.5988 0.96907 0.0
C259 C 0.83539 0.7588 0.99898 0.0
O260 O 0.84237 0.73938 0.07155 0.0
O261 O 0.84583 0.69102 0.04638 0.0
O262 O 0.89774 0.80678 0.07393 0.0
O263 O 0.85018 0.80197 0.06904 0.0
O264 O 0.92465 0.74817 0.06624 0.0
O265 O 0.89307 0.71463 0.05384 0.0
O266 O 0.91702 0.72811 0.99711 0.0
O267 O 0.90345 0.78042 1.00792 0.0
O268 O 0.87923 0.68598 0.96603 0.0
O269 O 0.87196 0.65596 1.00503 0.0
O270 O 0.82871 0.72908 0.99445 0.0
O271 O 0.86212 0.75963 1.00588 0.0
H272 H 0.82973 0.85863 0.1026 0.0
H273 H 0.82415 0.87829 0.15348 0.0
H274 H 0.89879 0.8184 0.18187 0.0
H275 H 0.90431 0.79886 0.13102 0.0
H276 H 0.92778 0.66184 0.94328 0.0
H277 H 0.95505 0.61768 0.91925 0.0
H278 H 0.89698 0.54919 0.95906 0.0
H279 H 0.86957 0.59323 0.98246 0.0
Ho280 Ho 0.53841 0.62253 0.2354 0.0
Ho281 Ho 0.49666 0.64599 0.28524 0.0
C282 C 0.5581 0.68055 0.27593 0.0
C283 C 0.56709 0.61056 0.18745 0.0
C284 C 0.59753 0.61698 0.1783 0.0
C285 C 0.61281 0.64302 0.19032 0.0
C286 C 0.64125 0.64985 0.18082 0.0
C287 C 0.65512 0.6305 0.15938 0.0
C288 C 0.63987 0.6042 0.14764 0.0
C289 C 0.61129 0.59758 0.15697 0.0
C290 C 0.55064 0.5983 0.29077 0.0
C291 C 0.47494 0.58913 0.2426 0.0
C292 C 0.46661 0.65241 0.33348 0.0
C293 C 0.45419 0.63247 0.35759 0.0
C294 C 0.47274 0.6149 0.37754 0.0
C295 C 0.46106 0.59891 0.402 0.0
C296 C 0.43052 0.6001 0.4073 0.0
C297 C 0.41191 0.61716 0.38701 0.0
C298 C 0.42363 0.6332 0.36248 0.0
C299 C 0.493 0.67974 0.23287 0.0
O300 O 0.55782 0.6694 0.24855 0.0
O301 O 0.53935 0.67038 0.29596 0.0
O302 O 0.56407 0.58907 0.20863 0.0
O303 O 0.55016 0.63625 0.19095 0.0
O304 O 0.57055 0.60494 0.27138 0.0
O305 O 0.52556 0.60351 0.2792 0.0
O306 O 0.47167 0.60334 0.26867 0.0
O307 O 0.49804 0.59393 0.22545 0.0
O308 O 0.45421 0.65128 0.30698 0.0
O309 O 0.49544 0.65355 0.33247 0.0
O310 O 0.48847 0.69273 0.25865 0.0
O311 O 0.49695 0.65014 0.23674 0.0
H312 H 0.60269 0.65822 0.20696 0.0
H313 H 0.65253 0.67001 0.19053 0.0
H314 H 0.64988 0.589 0.13091 0.0
H315 H 0.59986 0.57744 0.14738 0.0
H316 H 0.49644 0.6141 0.37479 0.0
H317 H 0.47618 0.58648 0.4173 0.0
H318 H 0.38825 0.61827 0.39011 0.0
H319 H 0.40882 0.64675 0.34765 0.0
Ho320 Ho 0.22195 0.5098 0.14146 0.0
Ho321 Ho 0.27188 0.45778 0.13657 0.0
C322 C 0.22143 0.45876 0.08637 0.0
C323 C 0.18558 0.55799 0.13236 0.0
C324 C 0.15516 0.56577 0.12221 0.0
C325 C 0.15079 0.59036 0.101 0.0
C326 C 0.12235 0.60016 0.09212 0.0
C327 C 0.09756 0.5857 0.10442 0.0
C328 C 0.10193 0.56021 0.12494 0.0
C329 C 0.13056 0.55032 0.13382 0.0
C330 C 0.21691 0.46042 0.17948 0.0
C331 C 0.27978 0.51307 0.18373 0.0
C332 C 0.30831 0.40908 0.1422 0.0
C333 C 0.32468 0.38636 0.16218 0.0
C334 C 0.31077 0.36916 0.18484 0.0
C335 C 0.32586 0.34378 0.19979 0.0
C336 C 0.35507 0.33512 0.19228 0.0
C337 C 0.36912 0.35334 0.17036 0.0
C338 C 0.35412 0.37864 0.15558 0.0
C339 C 0.277 0.51199 0.10246 0.0
O340 O 0.20845 0.48372 0.09948 0.0
O341 O 0.24487 0.44339 0.09762 0.0
O342 O 0.18937 0.54374 0.15825 0.0
O343 O 0.2035 0.5468 0.11217 0.0
O344 O 0.20755 0.48961 0.18427 0.0
O345 O 0.22584 0.45759 0.15296 0.0
O346 O 0.28139 0.48142 0.18074 0.0
O347 O 0.26016 0.53023 0.16753 0.0
O348 O 0.31695 0.4389 0.14059 0.0
O349 O 0.27962 0.40651 0.14009 0.0
O350 O 0.28812 0.4842 0.09481 0.0
O351 O 0.2673 0.50923 0.12806 0.0
H352 H 0.16948 0.60245 0.09164 0.0
H353 H 0.11975 0.61944 0.07586 0.0
H354 H 0.08326 0.54871 0.1349 0.0
H355 H 0.13339 0.53113 0.15013 0.0
H356 H 0.28799 0.37457 0.19033 0.0
H357 H 0.31446 0.33058 0.2168 0.0
H358 H 0.39134 0.34715 0.16348 0.0
H359 H 0.36516 0.39125 0.13791 0.0
Ho360 Ho 0.72726 0.9783 0.87376 0.0
Ho361 Ho 0.76818 0.03108 0.8951 0.0
C362 C 0.70963 0.02257 0.93175 0.0
C363 C 0.69369 0.92883 0.87149 0.0
C364 C 0.66327 0.92174 0.87964 0.0
C365 C 0.656 0.88983 0.88568 0.0
C366 C 0.62804 0.88267 0.89613 0.0
C367 C 0.60671 0.90733 0.90066 0.0
C368 C 0.61405 0.93936 0.89417 0.0
C369 C 0.64216 0.94652 0.88387 0.0
C370 C 0.72193 0.03231 0.84132 0.0
C371 C 0.78903 0.98598 0.84098 0.0
C372 C 0.80001 0.08176 0.8993 0.0
C373 C 0.82023 0.10108 0.88137 0.0
C374 C 0.81461 0.13434 0.87833 0.0
C375 C 0.83469 0.15392 0.86397 0.0
C376 C 0.86094 0.14063 0.85248 0.0
C377 C 0.866 0.10709 0.85451 0.0
C378 C 0.84583 0.08747 0.8688 0.0
C379 C 0.77606 0.97194 0.92116 0.0
O380 O 0.70341 0.99837 0.91386 0.0
O381 O 0.73312 0.04018 0.92828 0.0
O382 O 0.69713 0.94851 0.84902 0.0
O383 O 0.71118 0.93498 0.89395 0.0
O384 O 0.71877 1.00345 0.83121 0.0
O385 O 0.72557 0.03172 0.86949 0.0
O386 O 0.78935 0.01537 0.85218 0.0
O387 O 0.76901 0.96503 0.8494 0.0
O388 O 0.80917 0.05299 0.90794 0.0
O389 O 0.77218 0.08274 0.89109 0.0
O390 O 0.78001 0.99857 0.93558 0.0
O391 O 0.77021 0.97876 0.89469 0.0
H392 H 0.67223 0.87049 0.88301 0.0
H393 H 0.62349 0.85784 0.90147 0.0
H394 H 0.59813 0.95892 0.89713 0.0
H395 H 0.64757 0.97139 0.87968 0.0
H396 H 0.79505 0.14537 0.88791 0.0
H397 H 0.83028 0.17966 0.8631 0.0
H398 H 0.88587 0.09608 0.84557 0.0
H399 H 0.85069 0.06187 0.87065 0.0
Ho400 Ho 0.76142 0.9691 0.41042 0.0
Ho401 Ho 0.80859 0.02049 0.4005 0.0
C402 C 0.81161 0.95889 0.35943 0.0
C403 C 0.71628 0.9327 0.40287 0.0
C404 C 0.70659 0.90148 0.3916 0.0
C405 C 0.67726 0.89299 0.39601 0.0
C406 C 0.66583 0.8659 0.3822 0.0
C407 C 0.68356 0.84658 0.36366 0.0
C408 C 0.71341 0.85456 0.36019 0.0
C409 C 0.72481 0.88188 0.37396 0.0
C410 C 0.80897 0.96072 0.44593 0.0
C411 C 0.76137 0.03157 0.4529 0.0
C412 C 0.85043 0.06168 0.40633 0.0
C413 C 0.88241 0.06734 0.40952 0.0
C414 C 0.90279 0.04318 0.41901 0.0
C415 C 0.93205 0.05096 0.42637 0.0
C416 C 0.94122 0.08308 0.42462 0.0
C417 C 0.921 0.10677 0.41376 0.0
C418 C 0.892 0.09897 0.40632 0.0
C419 C 0.75453 0.03052 0.37257 0.0
O420 O 0.78471 0.95231 0.36858 0.0
O421 O 0.82748 0.98138 0.37216 0.0
O422 O 0.73206 0.93295 0.42748 0.0
O423 O 0.7255 0.95292 0.38287 0.0
O424 O 0.78249 0.95212 0.45233 0.0
O425 O 0.81006 0.97037 0.41902 0.0
O426 O 0.7886 0.03617 0.44393 0.0
O427 O 0.7448 0.00923 0.44038 0.0
O428 O 0.83771 0.04753 0.42862 0.0
O429 O 0.83974 0.05307 0.38044 0.0
O430 O 0.77892 0.04066 0.36144 0.0
O431 O 0.76083 0.0189 0.39737 0.0
H432 H 0.66279 0.9081 0.40925 0.0
H433 H 0.64268 0.861 0.38505 0.0
H434 H 0.72785 0.84005 0.34643 0.0
H435 H 0.7475 0.88821 0.37014 0.0
H436 H 0.89591 0.01861 0.42162 0.0
H437 H 0.94707 0.03216 0.43464 0.0
H438 H 0.92744 0.13161 0.41159 0.0
H439 H 0.87668 0.11802 0.39911 0.0
Ho440 Ho 0.29883 0.48565 0.63727 0.0
Ho441 Ho 0.26388 0.54669 0.6205 0.0
C442 C 0.32577 0.53052 0.58664 0.0
C443 C 0.32653 0.43145 0.64745 0.0
C444 C 0.35795 0.42332 0.64245 0.0
C445 C 0.36713 0.39142 0.63728 0.0
C446 C 0.39626 0.38433 0.62896 0.0
C447 C 0.41672 0.40907 0.62556 0.0
C448 C 0.40753 0.44094 0.63144 0.0
C449 C 0.37843 0.44799 0.63965 0.0
C450 C 0.31052 0.53875 0.67016 0.0
C451 C 0.23235 0.49663 0.66102 0.0
C452 C 0.24801 0.60692 0.61667 0.0
C453 C 0.23322 0.63165 0.63488 0.0
C454 C 0.23641 0.66421 0.62753 0.0
C455 C 0.22211 0.68825 0.64396 0.0
C456 C 0.20427 0.6802 0.66811 0.0
C457 C 0.20155 0.64744 0.67574 0.0
C458 C 0.21598 0.62337 0.65931 0.0
C459 C 0.2479 0.49509 0.58851 0.0
O460 O 0.32744 0.50229 0.60032 0.0
O461 O 0.30431 0.55178 0.59205 0.0
O462 O 0.32097 0.45248 0.66826 0.0
O463 O 0.31111 0.43748 0.62324 0.0
O464 O 0.33048 0.51841 0.66114 0.0
O465 O 0.28562 0.52969 0.66151 0.0
O466 O 0.23558 0.52781 0.65662 0.0
O467 O 0.25237 0.47504 0.65211 0.0
O468 O 0.23172 0.58348 0.60697 0.0
O469 O 0.27414 0.59689 0.62611 0.0
O470 O 0.23058 0.51964 0.59412 0.0
O471 O 0.27405 0.50102 0.59689 0.0
H472 H 0.35161 0.37209 0.63897 0.0
H473 H 0.4027 0.35947 0.62493 0.0
H474 H 0.42252 0.4606 0.62866 0.0
H475 H 0.37171 0.4729 0.64297 0.0
H476 H 0.24971 0.67104 0.60879 0.0
H477 H 0.2244 0.71314 0.6372 0.0
H478 H 0.18824 0.64042 0.6944 0.0
H479 H 0.2135 0.59833 0.66551 0.0
H480 H 0.23912 0.30593 0.54718 0.0
H481 H 0.1492 0.32972 0.5184 0.0
H482 H 0.1575 0.38669 0.52717 0.0
H483 H 0.24055 0.3632 0.60665 0.0
H484 H 0.27831 0.37458 0.60177 0.0
H485 H 0.26689 0.33502 0.59105 0.0
H486 H 0.286 0.34486 0.53787 0.0
H487 H 0.29745 0.38446 0.54851 0.0
H488 H 0.27279 0.37975 0.5171 0.0
H489 H 0.17282 0.44014 0.54141 0.0
H490 H 0.19489 0.48871 0.56176 0.0
H491 H 0.276 0.43454 0.58155 0.0
C492 C 0.22143 0.32328 0.54235 0.0
C493 C 0.1936 0.31312 0.53145 0.0
C494 C 0.17086 0.3366 0.52605 0.0
C495 C 0.17529 0.36924 0.53108 0.0
C496 C 0.20265 0.37852 0.54181 0.0
C497 C 0.22545 0.3565 0.5475 0.0
C498 C 0.2521 0.37366 0.56046 0.0
C499 C 0.25992 0.36084 0.59185 0.0
C500 C 0.27866 0.37049 0.53974 0.0
C501 C 0.24029 0.40839 0.56144 0.0
C502 C 0.21172 0.41031 0.55038 0.0
C503 C 0.19529 0.43906 0.54994 0.0
C504 C 0.20809 0.4666 0.56159 0.0
C505 C 0.23717 0.46558 0.57361 0.0
C506 C 0.25373 0.43612 0.57288 0.0
H507 H 0.84324 0.01423 0.83582 0.0
H508 H 0.79421 0.93017 0.80976 0.0
H509 H 0.83973 0.90533 0.79014 0.0
H510 H 0.89605 0.01249 0.77218 0.0
H511 H 0.92651 0.02463 0.79541 0.0
H512 H 0.88943 0.03816 0.80368 0.0
H513 H 0.89552 0.01483 0.85688 0.0
H514 H 0.93243 1.00076 0.84882 0.0
H515 H 0.90564 0.97285 0.86198 0.0
H516 H 0.88997 0.88592 0.78141 0.0
H517 H 0.94269 0.87417 0.77808 0.0
H518 H 0.96195 0.97116 0.80667 0.0
C519 C 0.84188 0.99106 0.82509 0.0
C520 C 0.81501 0.97419 0.82418 0.0
C521 C 0.81439 0.9436 0.81061 0.0
C522 C 0.84017 0.92928 0.79941 0.0
C523 C 0.86642 0.94593 0.80175 0.0
C524 C 0.86756 0.97632 0.81379 0.0
C525 C 0.89927 0.98772 0.81537 0.0
C526 C 0.90303 0.01752 0.79546 0.0
C527 C 0.90876 0.99443 0.84769 0.0
C528 C 0.9158 0.95848 0.80312 0.0
C529 C 0.89613 0.93486 0.79548 0.0
C530 C 0.90554 0.90458 0.78629 0.0
C531 C 0.93578 0.89822 0.78436 0.0
C532 C 0.95671 0.92208 0.7909 0.0
C533 C 0.94654 0.95272 0.80063 0.0
H534 H 0.35612 0.64673 1.0052 0.0
H535 H 0.31303 0.71629 0.06272 0.0
H536 H 0.28513 0.67266 0.08589 0.0
H537 H 0.29393 0.59179 0.996 0.0
H538 H 0.31724 0.556 0.99812 0.0
H539 H 0.33148 0.5929 0.98339 0.0
H540 H 0.37451 0.58988 0.02198 0.0
H541 H 0.36047 0.55299 0.03676 0.0
H542 H 0.36636 0.58668 0.061 0.0
H543 H 0.26432 0.62286 0.10445 0.0
H544 H 0.25409 0.56848 0.12141 0.0
H545 H 0.31139 0.52836 0.0538 0.0
C546 C 0.34035 0.65271 0.02229 0.0
C547 C 0.33629 0.68485 0.03201 0.0
C548 C 0.31625 0.69183 0.05497 0.0
C549 C 0.30023 0.66726 0.06809 0.0
C550 C 0.30483 0.63582 0.05821 0.0
C551 C 0.32459 0.62828 0.0361 0.0
C552 C 0.32727 0.59201 0.03184 0.0
C553 C 0.31685 0.58263 1.00047 0.0
C554 C 0.35904 0.57967 0.03829 0.0
C555 C 0.30616 0.58039 0.0553 0.0
C556 C 0.29324 0.60632 0.06976 0.0
C557 C 0.27397 0.60237 0.09307 0.0
C558 C 0.26812 0.57115 0.10239 0.0
C559 C 0.28146 0.54395 0.08864 0.0
C560 C 0.30048 0.54862 0.06441 0.0
H561 H 0.6093 0.09797 0.28218 0.0
H562 H 0.56061 0.03175 0.33685 0.0
H563 H 0.60713 0.0128 0.36081 0.0
H564 H 0.67296 0.04141 0.27091 0.0
H565 H 0.69971 0.0728 0.27162 0.0
H566 H 0.66261 0.08148 0.25827 0.0
H567 H 0.65755 0.12742 0.29656 0.0
H568 H 0.69448 0.11874 0.31029 0.0
H569 H 0.66391 0.11873 0.33549 0.0
H570 H 0.65592 1.00749 0.38384 0.0
H571 H 0.70742 1.00603 0.39914 0.0
H572 H 0.72959 0.06704 0.32436 0.0
C573 C 0.60859 0.07904 0.29878 0.0
C574 C 0.58128 0.06626 0.30768 0.0
C575 C 0.58117 0.04179 0.32966 0.0
C576 C 0.60749 0.03096 0.34345 0.0
C577 C 0.63389 0.04422 0.33448 0.0
C578 C 0.63496 0.06706 0.31217 0.0
C579 C 0.66681 0.07643 0.30667 0.0
C580 C 0.67607 0.06749 0.27498 0.0
C581 C 0.67092 0.11247 0.31261 0.0
C582 C 0.68333 0.05561 0.32985 0.0
C583 C 0.66342 0.03794 0.34584 0.0
C584 C 0.67192 0.01989 0.37062 0.0
C585 C 0.70161 0.01899 0.37895 0.0
C586 C 0.72329 0.03445 0.3619 0.0
C587 C 0.7139 0.05361 0.33707 0.0
H588 H 0.73329 0.21521 0.49826 0.0
H589 H 0.64348 0.18748 0.51604 0.0
H590 H 0.65757 0.1308 0.51026 0.0
H591 H 0.74384 0.15867 0.44048 0.0
H592 H 0.7821 0.1495 0.4492 0.0
H593 H 0.76623 0.18819 0.45863 0.0
H594 H 0.78254 0.17905 0.51359 0.0
H595 H 0.79823 0.14014 0.50429 0.0
H596 H 0.77108 0.1435 0.53307 0.0
H597 H 0.67917 0.07747 0.49883 0.0
H598 H 0.70679 0.03103 0.4782 0.0
H599 H 0.78284 0.09119 0.4664 0.0
C600 C 0.71685 0.19709 0.50149 0.0
C601 C 0.68743 0.20597 0.5085 0.0
C602 C 0.66634 0.18153 0.51156 0.0
C603 C 0.67409 0.14903 0.50828 0.0
C604 C 0.70309 0.14095 0.50153 0.0
C605 C 0.72419 0.16413 0.49785 0.0
C606 C 0.75304 0.14865 0.48773 0.0
C607 C 0.7618 0.16204 0.4572 0.0
C608 C 0.77768 0.1531 0.51107 0.0
C609 C 0.74444 0.11352 0.48574 0.0
C610 C 0.71563 0.10966 0.49425 0.0
C611 C 0.70194 0.08 0.49246 0.0
C612 C 0.71782 0.0537 0.48077 0.0
C613 C 0.74707 0.0572 0.47093 0.0
C614 C 0.76073 0.0874 0.47428 0.0
H615 H 0.09821 0.44835 0.7645 0.0
H616 H 0.04652 0.43718 0.68331 0.0
H617 H 0.08818 0.45664 0.65409 0.0
H618 H 0.13774 0.52184 0.73926 0.0
H619 H 0.17136 0.50899 0.75825 0.0
H620 H 0.13613 0.49819 0.77295 0.0
H621 H 0.15281 0.43812 0.77239 0.0
H622 H 0.18779 0.44857 0.75705 0.0
H623 H 0.16476 0.42029 0.73802 0.0
H624 H 0.1374 0.46932 0.63325 0.0
H625 H 0.18898 0.48256 0.62241 0.0
H626 H 0.20889 0.48778 0.71673 0.0
C627 C 0.09529 0.45096 0.74065 0.0
C628 C 0.06895 0.44134 0.72623 0.0
C629 C 0.06621 0.44479 0.69495 0.0
C630 C 0.08989 0.45558 0.67811 0.0
C631 C 0.11599 0.46337 0.6929 0.0
C632 C 0.11861 0.46203 0.72352 0.0
C633 C 0.14949 0.47069 0.7338 0.0
C634 C 0.14862 0.50178 0.75215 0.0
C635 C 0.16459 0.44274 0.75134 0.0
C636 C 0.16414 0.47593 0.70411 0.0
C637 C 0.14435 0.47152 0.68084 0.0
C638 C 0.15292 0.47337 0.65129 0.0
C639 C 0.18227 0.48062 0.64533 0.0
C640 C 0.20269 0.48601 0.66872 0.0
C641 C 0.19358 0.48364 0.69851 0.0
H642 H 0.80251 0.94771 0.97374 0.0
H643 H 0.76305 0.919 0.88993 0.0
H644 H 0.76626 0.86257 0.90525 0.0
H645 H 0.85734 0.88404 0.9691 0.0
H646 H 0.86062 0.87731 1.00867 0.0
H647 H 0.84965 0.91651 0.99447 0.0
H648 H 0.80244 0.91521 0.02629 0.0
H649 H 0.81323 0.87577 0.04025 0.0
H650 H 0.77769 0.88214 0.02233 0.0
H651 H 0.77284 0.80903 0.92901 0.0
H652 H 0.79451 0.76048 0.95389 0.0
H653 H 0.84024 0.82135 1.01648 0.0
C654 C 0.7939 0.92951 0.95909 0.0
C655 C 0.78014 0.93814 0.93163 0.0
C656 C 0.77127 0.91343 0.91209 0.0
C657 C 0.77331 0.88106 0.92043 0.0
C658 C 0.78604 0.87326 0.94784 0.0
C659 C 0.79741 0.89651 0.96639 0.0
C660 C 0.815 0.88071 0.99183 0.0
C661 C 0.84758 0.89021 0.99095 0.0
C662 C 0.80126 0.88895 0.02196 0.0
C663 C 0.81145 0.84531 0.98446 0.0
C664 C 0.79375 0.84168 0.95959 0.0
C665 C 0.78689 0.81143 0.94849 0.0
C666 C 0.79914 0.78402 0.96279 0.0
C667 C 0.81879 0.7872 0.98721 0.0
C668 C 0.82483 0.81822 0.99823 0.0
H669 H 0.43137 0.55405 0.26988 0.0
H670 H 0.45925 0.59161 0.18466 0.0
H671 H 0.41146 0.57809 0.16236 0.0
H672 H 0.39109 0.48516 0.23574 0.0
H673 H 0.36269 0.48636 0.26339 0.0
H674 H 0.3996 0.49822 0.27298 0.0
H675 H 0.37865 0.55312 0.2911 0.0
H676 H 0.34177 0.54175 0.28093 0.0
H677 H 0.35669 0.57815 0.26592 0.0
H678 H 0.35939 0.56978 0.15144 0.0
H679 H 0.3088 0.55135 0.1468 0.0
H680 H 0.31472 0.50954 0.23548 0.0
C681 C 0.42756 0.55862 0.24638 0.0
C682 C 0.44896 0.57403 0.229 0.0
C683 C 0.44331 0.57969 0.19835 0.0
C684 C 0.4161 0.57239 0.18551 0.0
C685 C 0.39511 0.55841 0.20337 0.0
C686 C 0.40076 0.55018 0.23274 0.0
C687 C 0.37432 0.53372 0.2461 0.0
C688 C 0.38241 0.49878 0.25508 0.0
C689 C 0.36215 0.55284 0.27258 0.0
C690 C 0.3528 0.53501 0.2198 0.0
C691 C 0.36529 0.55024 0.19581 0.0
C692 C 0.34956 0.55703 0.16973 0.0
C693 C 0.32062 0.54674 0.16746 0.0
C694 C 0.30779 0.52893 0.19068 0.0
C695 C 0.32403 0.5231 0.21739 0.0
H696 H 0.58209 0.15786 0.34042 0.0
H697 H 0.51661 0.22913 0.31044 0.0
H698 H 0.52365 0.25946 0.35718 0.0
H699 H 0.55758 0.15501 0.4139 0.0
H700 H 0.59361 0.14923 0.43094 0.0
H701 H 0.58697 0.1356 0.39357 0.0
H702 H 0.62999 0.16952 0.37438 0.0
H703 H 0.63727 0.18266 0.41181 0.0
H704 H 0.63067 0.21194 0.38253 0.0
H705 H 0.53695 0.28101 0.4078 0.0
H706 H 0.55552 0.29229 0.45866 0.0
H707 H 0.60818 0.20371 0.45778 0.0
C708 C 0.57016 0.18054 0.34331 0.0
C709 C 0.54958 0.19195 0.32157 0.0
C710 C 0.53307 0.22068 0.32661 0.0
C711 C 0.53678 0.23785 0.35312 0.0
C712 C 0.55658 0.22547 0.3746 0.0
C713 C 0.57301 0.19747 0.37 0.0
C714 C 0.59094 0.18791 0.39757 0.0
C715 C 0.58171 0.15499 0.4097 0.0
C716 C 0.62419 0.18803 0.39119 0.0
C717 C 0.58202 0.21489 0.4184 0.0
C718 C 0.56243 0.23648 0.4046 0.0
C719 C 0.55205 0.26411 0.41892 0.0
C720 C 0.56251 0.27022 0.44782 0.0
C721 C 0.58257 0.24843 0.46231 0.0
C722 C 0.59206 0.22019 0.44754 0.0
H723 H 0.10221 0.23325 0.59775 0.0
H724 H 0.06647 0.30984 0.54056 0.0
H725 H 0.03889 0.3322 0.58285 0.0
H726 H 0.03592 0.22556 0.64637 0.0
H727 H 0.05862 0.21888 0.67921 0.0
H728 H 0.07155 0.20559 0.64349 0.0
H729 H 0.11896 0.23825 0.65094 0.0
H730 H 0.10614 0.25189 0.68647 0.0
H731 H 0.11579 0.2808 0.65838 0.0
H732 H 0.02201 0.35099 0.63154 0.0
H733 H 0.01515 0.36476 0.68385 0.0
H734 H 0.06016 0.27573 0.71117 0.0
C735 C 0.08782 0.25412 0.59389 0.0
C736 C 0.08628 0.26969 0.56574 0.0
C737 C 0.06787 0.29745 0.56183 0.0
C738 C 0.05205 0.31026 0.58572 0.0
C739 C 0.0548 0.29498 0.61336 0.0
C740 C 0.07202 0.26738 0.61761 0.0
C741 C 0.07346 0.25765 0.65026 0.0
C742 C 0.05902 0.22498 0.65511 0.0
C743 C 0.10549 0.25713 0.6622 0.0
C744 C 0.05525 0.28482 0.66384 0.0
C745 C 0.04447 0.30576 0.64196 0.0
C746 C 0.02946 0.33427 0.6488 0.0
C747 C 0.02548 0.34176 0.67871 0.0
C748 C 0.03611 0.32079 0.70167 0.0
C749 C 0.051 0.29173 0.69409 0.0
H750 H 0.95461 0.83351 0.83356 0.0
H751 H 0.0399 0.78394 0.83914 0.0
H752 H 0.02757 0.76282 0.88896 0.0
H753 H 0.95443 0.85883 0.90892 0.0
H754 H 0.91533 0.85434 0.91383 0.0
H755 H 0.92943 0.86311 0.87749 0.0
H756 H 0.90457 0.81263 0.85614 0.0
H757 H 0.88992 0.80405 0.89227 0.0
H758 H 0.91188 0.77391 0.87347 0.0
H759 H 1.00572 0.74687 0.93801 0.0
H760 H 0.97612 0.73749 0.98294 0.0
H761 H 0.90702 0.80169 0.94783 0.0
C762 C 0.97032 0.81746 0.84495 0.0
C763 C 0.99794 0.8096 0.83221 0.0
C764 C 0.01844 0.78969 0.8483 0.0
C765 C 1.01167 0.77777 0.87665 0.0
C766 C 0.98454 0.78656 0.8889 0.0
C767 C 0.9642 0.806 0.8736 0.0
C768 C 0.93732 0.81324 0.89246 0.0
C769 C 0.93394 0.84954 0.89853 0.0
C770 C 0.90926 0.80017 0.87771 0.0
C771 C 0.9456 0.79462 0.92067 0.0
C772 C 0.97286 0.77922 0.91803 0.0
C773 C 0.98456 0.75915 0.94048 0.0
C774 C 0.96772 0.75411 0.96597 0.0
C775 C 0.93977 0.76958 0.96916 0.0
C776 C 0.9288 0.79049 0.94639 0.0
H777 H 0.48108 0.64802 0.1813 0.0
H778 H 0.48599 0.74395 0.21813 0.0
H779 H 0.47118 0.76723 0.16893 0.0
H780 H 0.50785 0.66577 0.1082 0.0
H781 H 0.48261 0.63941 0.08965 0.0
H782 H 0.49469 0.63073 0.12728 0.0
H783 H 0.44029 0.62972 0.14393 0.0
H784 H 0.42795 0.6384 0.10644 0.0
H785 H 0.41617 0.66406 0.13641 0.0
H786 H 0.45594 0.77967 0.11517 0.0
H787 H 0.43922 0.78046 0.06263 0.0
H788 H 0.44144 0.67602 0.06185 0.0
C789 C 0.47925 0.67397 0.179 0.0
C790 C 0.4849 0.69428 0.2035 0.0
C791 C 0.48187 0.72803 0.19964 0.0
C792 C 0.47349 0.74139 0.17178 0.0
C793 C 0.46791 0.72062 0.14812 0.0
C794 C 0.47045 0.6876 0.15158 0.0
C795 C 0.46207 0.67042 0.12309 0.0
C796 C 0.48838 0.6504 0.11136 0.0
C797 C 0.43501 0.64942 0.12775 0.0
C798 C 0.45459 0.69892 0.10285 0.0
C799 C 0.45826 0.72768 0.11767 0.0
C800 C 0.45287 0.75726 0.10351 0.0
C801 C 0.44327 0.75746 0.07365 0.0
C802 C 0.43869 0.72831 0.05823 0.0
C803 C 0.44466 0.69868 0.07306 0.0
H804 H 0.15923 0.39641 0.33312 0.0
H805 H 0.19083 0.30023 0.31137 0.0
H806 H 0.20966 0.32082 0.26335 0.0
H807 H 0.13464 0.42011 0.26076 0.0
H808 H 0.14627 0.46104 0.26491 0.0
H809 H 0.13598 0.43814 0.29709 0.0
H810 H 0.18683 0.4489 0.32191 0.0
H811 H 0.19726 0.47184 0.2898 0.0
H812 H 0.22017 0.43824 0.30251 0.0
H813 H 0.22352 0.35367 0.21588 0.0
H814 H 0.23199 0.39494 0.17655 0.0
H815 H 0.19183 0.46778 0.23268 0.0
C816 C 0.16991 0.37957 0.31818 0.0
C817 C 0.17327 0.34671 0.32571 0.0
C818 C 0.18802 0.32557 0.3059 0.0
C819 C 0.19869 0.33704 0.27861 0.0
C820 C 0.19471 0.36973 0.27175 0.0
C821 C 0.18083 0.39059 0.29126 0.0
C822 C 0.17938 0.42462 0.27942 0.0
C823 C 0.14716 0.43666 0.27529 0.0
C824 C 0.19697 0.44722 0.29961 0.0
C825 C 0.19421 0.4198 0.24994 0.0
C826 C 0.20302 0.38813 0.24557 0.0
C827 C 0.21678 0.37854 0.21926 0.0
C828 C 0.22153 0.40203 0.19705 0.0
C829 C 0.21263 0.43451 0.20158 0.0
C830 C 0.19896 0.44317 0.22843 0.0
H831 H 0.87723 0.87993 0.59192 0.0
H832 H 0.96093 0.92353 0.57329 0.0
H833 H 0.93989 0.94597 0.52597 0.0
H834 H 0.85782 0.85863 0.51639 0.0
H835 H 0.81919 0.86807 0.52151 0.0
H836 H 0.84179 0.85444 0.55262 0.0
H837 H 0.82648 0.90563 0.58194 0.0
H838 H 0.80388 0.9194 0.55094 0.0
H839 H 0.83215 0.94478 0.56573 0.0
H840 H 0.90774 0.96428 0.4798 0.0
H841 H 0.86772 0.97797 0.44272 0.0
H842 H 0.80671 0.92288 0.49462 0.0
C843 C 0.89138 0.89367 0.57767 0.0
C844 C 0.92082 0.89961 0.58611 0.0
C845 C 0.93827 0.91862 0.56721 0.0
C846 C 0.92655 0.93134 0.54025 0.0
C847 C 0.89728 0.92501 0.53264 0.0
C848 C 0.88002 0.90667 0.55103 0.0
C849 C 0.8489 0.90441 0.53904 0.0
C850 C 0.84151 0.8693 0.53196 0.0
C851 C 0.82655 0.91946 0.56069 0.0
C852 C 0.85112 0.92437 0.51103 0.0
C853 C 0.87912 0.93598 0.50728 0.0
C854 C 0.88576 0.95524 0.48266 0.0
C855 C 0.86304 0.96294 0.46171 0.0
C856 C 0.83419 0.9517 0.46585 0.0
C857 C 0.82851 0.93203 0.49074 0.0
H858 H 0.36029 0.54661 0.70481 0.0
H859 H 0.27028 0.58242 0.69148 0.0
H860 H 0.27575 0.61788 0.73508 0.0
H861 H 0.35834 0.5434 0.78371 0.0
H862 H 0.39585 0.55579 0.78925 0.0
H863 H 0.3856 0.53493 0.75584 0.0
H864 H 0.4051 0.58172 0.72384 0.0
H865 H 0.4156 0.60265 0.75718 0.0
H866 H 0.39143 0.62223 0.73005 0.0
H867 H 0.29059 0.64802 0.78151 0.0
H868 H 0.3138 0.67134 0.82615 0.0
H869 H 0.39355 0.61415 0.81041 0.0
C870 C 0.34189 0.56228 0.71082 0.0
C871 C 0.31489 0.56192 0.69467 0.0
C872 C 0.29119 0.58243 0.70348 0.0
C873 C 0.29409 0.60261 0.72824 0.0
C874 C 0.32082 0.60195 0.74408 0.0
C875 C 0.34434 0.58239 0.73566 0.0
C876 C 0.37032 0.58541 0.75706 0.0
C877 C 0.37796 0.55295 0.77237 0.0
C878 C 0.3972 0.59881 0.74107 0.0
C879 C 0.3577 0.60956 0.77892 0.0
C880 C 0.32916 0.61888 0.771 0.0
C881 C 0.31293 0.64084 0.78792 0.0
C882 C 0.32626 0.65376 0.81346 0.0
C883 C 0.35557 0.64465 0.82209 0.0
C884 C 0.37129 0.62208 0.80442 0.0
H885 H 0.66677 0.09736 0.08894 0.0
H886 H 0.58278 0.04976 0.08119 0.0
H887 H 0.59747 0.02818 0.03245 0.0
H888 H 0.67097 0.12076 1.01139 0.0
H889 H 0.71042 0.1143 1.01011 0.0
H890 H 0.6933 0.12573 0.04449 0.0
H891 H 0.71714 0.07545 0.07056 0.0
H892 H 0.73429 0.06384 0.03627 0.0
H893 H 0.71104 0.03608 0.05534 0.0
H894 H 0.6221 0.01063 0.9846 0.0
H895 H 0.65407 0.99982 0.94152 0.0
H896 H 0.72072 0.06108 0.97982 0.0
C897 C 0.6512 0.08279 0.07691 0.0
C898 C 0.62358 0.07528 0.08918 0.0
C899 C 0.60426 0.05552 0.07269 0.0
C900 C 0.61232 0.0433 0.04481 0.0
C901 C 0.63971 0.05116 0.0335 0.0
C902 C 0.65878 0.07059 0.04899 0.0
C903 C 0.68697 0.07544 0.03199 0.0
C904 C 0.69061 0.11118 0.02402 0.0
C905 C 0.71395 0.06189 0.0496 0.0
C906 C 0.68085 0.05563 1.00453 0.0
C907 C 0.65353 0.0417 1.00582 0.0
C908 C 0.64345 0.02161 0.9833 0.0
C909 C 0.6618 0.01558 0.95891 0.0
C910 C 0.68987 0.02976 0.95709 0.0
C911 C 0.69929 0.05014 0.98026 0.0
H912 H 0.66183 0.10879 0.69055 0.0
H913 H 0.66224 0.20359 0.73015 0.0
H914 H 0.68293 0.17963 0.77707 0.0
H915 H 0.64017 0.06554 0.75479 0.0
H916 H 0.66319 0.03081 0.74655 0.0
H917 H 0.6489 0.05615 0.71679 0.0
H918 H 0.70216 0.06434 0.69818 0.0
H919 H 0.71661 0.03909 0.72796 0.0
H920 H 0.72973 0.07942 0.72344 0.0
H921 H 0.70215 0.1426 0.8213 0.0
H922 H 0.7186 0.09781 0.85551 0.0
H923 H 0.70629 0.03009 0.78368 0.0
C924 C 0.666 0.12457 0.70914 0.0
C925 C 0.66007 0.15795 0.70685 0.0
C926 C 0.66658 0.17786 0.73148 0.0
C927 C 0.67827 0.16445 0.75821 0.0
C928 C 0.68362 0.13119 0.75974 0.0
C929 C 0.6778 0.11173 0.7356 0.0
C930 C 0.6854 0.07688 0.74221 0.0
C931 C 0.65777 0.05614 0.73996 0.0
C932 C 0.70994 0.06421 0.72174 0.0
C933 C 0.69627 0.07947 0.77393 0.0
C934 C 0.69511 0.11077 0.78406 0.0
C935 C 0.7033 0.11806 0.81339 0.0
C936 C 0.71263 0.09259 0.83268 0.0
C937 C 0.71377 0.06049 0.8223 0.0
C938 C 0.70578 0.0543 0.79247 0.0
H939 H 0.16503 0.45789 0.06127 0.0
H940 H 0.25775 0.44051 0.04245 0.0
H941 H 0.24504 0.42755 0.99066 0.0
H942 H 0.13946 0.39156 0.01752 0.0
H943 H 0.10614 0.41213 1.00457 0.0
H944 H 0.12242 0.42252 0.03988 0.0
H945 H 0.12447 0.48211 0.02277 0.0
H946 H 0.10842 0.47181 0.98728 0.0
H947 H 0.14318 0.49194 0.98891 0.0
H948 H 0.22331 0.41696 0.94129 0.0
H949 H 0.19295 0.40261 0.89784 0.0
H950 H 0.11348 0.42183 0.94838 0.0
C951 C 0.18254 0.45145 0.04612 0.0
C952 C 0.21237 0.45012 0.05584 0.0
C953 C 0.23473 0.44132 0.03555 0.0
C954 C 0.22779 0.43421 1.00599 0.0
C955 C 0.1983 0.4356 0.99703 0.0
C956 C 0.17591 0.44347 1.01646 0.0
C957 C 0.14593 0.44076 1.00124 0.0
C958 C 0.1274 0.41522 0.01672 0.0
C959 C 0.12954 0.47362 0.99998 0.0
C960 C 0.15513 0.42998 0.97043 0.0
C961 C 0.18548 0.42778 0.96849 0.0
C962 C 0.19948 0.41829 0.94254 0.0
C963 C 0.182 0.40996 0.91802 0.0
C964 C 0.15077 0.41056 0.91968 0.0
C965 C 0.13724 0.42133 0.94618 0.0
H966 H 0.78264 0.9253 0.31552 0.0
H967 H 0.86999 0.95177 0.34612 0.0
H968 H 0.89197 0.92424 0.30306 0.0
H969 H 0.80373 0.84635 0.28512 0.0
H970 H 0.7789 0.85054 0.25356 0.0
H971 H 0.77005 0.87008 0.28808 0.0
H972 H 0.76508 0.92494 0.26046 0.0
H973 H 0.77402 0.90561 0.22591 0.0
H974 H 0.79546 0.93886 0.23879 0.0
H975 H 0.90458 0.89573 0.25596 0.0
H976 H 0.90688 0.86993 0.20681 0.0
H977 H 0.81144 0.86287 0.20529 0.0
C978 C 0.80642 0.92487 0.31338 0.0
C979 C 0.8246 0.94056 0.33435 0.0
C980 C 0.85558 0.93995 0.33041 0.0
C981 C 0.86831 0.92427 0.30605 0.0
C982 C 0.8498 0.90942 0.2856 0.0
C983 C 0.81952 0.90963 0.28889 0.0
C984 C 0.80459 0.8934 0.26272 0.0
C985 C 0.78836 0.8633 0.27299 0.0
C986 C 0.78355 0.91713 0.24598 0.0
C987 C 0.83121 0.88439 0.24408 0.0
C988 C 0.85706 0.89355 0.25792 0.0
C989 C 0.8845 0.88825 0.245 0.0
C990 C 0.88559 0.8734 0.2171 0.0
C991 C 0.8594 0.86416 0.20216 0.0
C992 C 0.83186 0.86972 0.21603 0.0
H993 H 0.32588 0.58279 0.54847 0.0
H994 H 0.3727 0.4926 0.56903 0.0
H995 H 0.40454 0.50071 0.52575 0.0
H996 H 0.32555 0.57459 0.47007 0.0
H997 H 0.33118 0.61662 0.46237 0.0
H998 H 0.31292 0.60478 0.49587 0.0
H999 H 0.3512 0.63526 0.52762 0.0
H1000 H 0.3694 0.64751 0.4942 0.0
H1001 H 0.39002 0.62632 0.52316 0.0
H1002 H 0.42966 0.51714 0.47858 0.0
H1003 H 0.44791 0.54208 0.43267 0.0
H1004 H 0.38565 0.62226 0.44338 0.0
C1005 C 0.34306 0.56491 0.54416 0.0
C1006 C 0.34669 0.53703 0.56228 0.0
C1007 C 0.36938 0.51417 0.55558 0.0
C1008 C 0.3876 0.51853 0.53097 0.0
C1009 C 0.38301 0.54592 0.51325 0.0
C1010 C 0.36147 0.56888 0.51967 0.0
C1011 C 0.36083 0.59591 0.49678 0.0
C1012 C 0.33084 0.59808 0.4803 0.0
C1013 C 0.36832 0.62815 0.51131 0.0
C1014 C 0.38518 0.58442 0.47634 0.0
C1015 C 0.39767 0.55553 0.48624 0.0
C1016 C 0.42024 0.53993 0.4708 0.0
C1017 C 0.43056 0.5544 0.44476 0.0
C1018 C 0.41843 0.58431 0.43433 0.0
C1019 C 0.39528 0.59928 0.45043 0.0
H1020 H 0.25206 0.19313 0.47631 0.0
H1021 H 0.2016 0.24056 0.40502 0.0
H1022 H 0.24304 0.23125 0.37094 0.0
H1023 H 0.32294 0.22386 0.45629 0.0
H1024 H 0.34298 0.18711 0.46589 0.0
H1025 H 0.30938 0.19762 0.48484 0.0
H1026 H 0.28739 0.1429 0.47007 0.0
H1027 H 0.32096 0.13217 0.45119 0.0
H1028 H 0.28607 0.13166 0.43143 0.0
H1029 H 0.28977 0.21574 0.34417 0.0
H1030 H 0.33767 0.19446 0.32662 0.0
H1031 H 0.35855 0.1587 0.4157 0.0
C1032 C 0.24965 0.20145 0.45351 0.0
C1033 C 0.22353 0.21778 0.44345 0.0
C1034 C 0.22144 0.22838 0.41343 0.0
C1035 C 0.24487 0.2231 0.39383 0.0
C1036 C 0.27037 0.20722 0.40452 0.0
C1037 C 0.27291 0.19652 0.43364 0.0
C1038 C 0.30271 0.18002 0.43947 0.0
C1039 C 0.32055 0.19825 0.46302 0.0
C1040 C 0.29905 0.14459 0.44857 0.0
C1041 C 0.31639 0.18283 0.40901 0.0
C1042 C 0.29741 0.19866 0.38918 0.0
C1043 C 0.30492 0.20353 0.35957 0.0
C1044 C 0.33238 0.19156 0.34986 0.0
C1045 C 0.35219 0.17492 0.36968 0.0
C1046 C 0.34398 0.17096 0.39977 0.0
H1047 H 0.12533 0.07454 0.66277 0.0
H1048 H 0.07496 0.06738 0.58029 0.0
H1049 H 0.04715 0.02268 0.60172 0.0
H1050 H 0.13256 0.99012 0.67694 0.0
H1051 H 0.12907 0.99368 0.71666 0.0
H1052 H 0.14391 0.02625 0.69541 0.0
H1053 H 0.10418 0.06545 0.71652 0.0
H1054 H 0.08925 0.03299 0.73789 0.0
H1055 H 0.06569 0.05607 0.71258 0.0
H1056 H 0.02641 0.97671 0.63142 0.0
H1057 H 0.01374 0.93427 0.66734 0.0
H1058 H 0.0777 0.9714 0.73037 0.0
C1059 C 0.10848 0.0636 0.64915 0.0
C1060 C 0.10235 0.07468 0.6198 0.0
C1061 C 0.07982 0.05979 0.60296 0.0
C1062 C 0.06401 0.03419 0.61488 0.0
C1063 C 0.07085 0.0237 0.64374 0.0
C1064 C 0.09247 0.03803 0.66069 0.0
C1065 C 0.09594 0.02182 0.69091 0.0
C1066 C 0.12722 1.00709 0.69522 0.0
C1067 C 0.0883 0.0455 0.71595 0.0
C1068 C 0.07311 0.99591 0.68819 0.0
C1069 C 0.05883 0.99742 0.66085 0.0
C1070 C 0.03729 0.97551 0.65301 0.0
C1071 C 0.03015 0.95149 0.67366 0.0
C1072 C 0.04441 0.94951 0.70191 0.0
C1073 C 0.0662 0.97217 0.70909 0.0
H1074 H 0.18018 0.82516 0.91118 0.0
H1075 H 0.21776 0.82279 0.82303 0.0
H1076 H 0.26474 0.80089 0.84438 0.0
H1077 H 0.24301 0.85108 0.94862 0.0
H1078 H 0.2378 0.82716 0.98164 0.0
H1079 H 0.20643 0.83966 0.95904 0.0
H1080 H 0.19137 0.78017 0.95355 0.0
H1081 H 0.2227 0.76747 0.97628 0.0
H1082 H 0.21769 0.75089 0.93966 0.0
H1083 H 0.30934 0.78322 0.8764 0.0
H1084 H 0.34681 0.77178 0.91618 0.0
H1085 H 0.27921 0.78464 0.9826 0.0
C1086 C 0.198 0.81928 0.89622 0.0
C1087 C 0.19516 0.8257 0.86538 0.0
C1088 C 0.21941 0.81838 0.84676 0.0
C1089 C 0.24616 0.80572 0.85867 0.0
C1090 C 0.24837 0.80026 0.88926 0.0
C1091 C 0.22482 0.80664 0.90773 0.0
C1092 C 0.23329 0.80047 0.94 0.0
C1093 C 0.22994 0.83143 0.95839 0.0
C1094 C 0.21519 0.77312 0.95314 0.0
C1095 C 0.26542 0.79029 0.93691 0.0
C1096 C 0.27377 0.79005 0.90749 0.0
C1097 C 0.30292 0.783 0.89948 0.0
C1098 C 0.32407 0.77654 0.92217 0.0
C1099 C 0.31592 0.77729 0.95242 0.0
C1100 C 0.2861 0.78367 0.95966 0.0
H1101 H 0.49952 0.04784 0.1728 0.0
H1102 H 0.49922 1.00639 0.26156 0.0
H1103 H 0.48363 0.95457 0.24099 0.0
H1104 H 0.43424 0.0119 0.1487 0.0
H1105 H 0.44557 1.00466 0.11102 0.0
H1106 H 0.46114 0.0372 0.13175 0.0
H1107 H 0.51379 0.0141 0.12239 0.0
H1108 H 0.49835 0.98148 0.10153 0.0
H1109 H 0.52285 0.97296 0.1327 0.0
H1110 H 0.46436 0.90922 0.21241 0.0
H1111 H 0.43989 0.87291 0.17732 0.0
H1112 H 0.44965 0.94308 0.10636 0.0
C1113 C 0.49686 0.02751 0.18765 0.0
C1114 C 0.50084 0.03083 0.21871 0.0
C1115 C 0.49636 1.00416 0.2377 0.0
C1116 C 0.48765 0.97462 0.22622 0.0
C1117 C 0.48324 0.97214 0.19564 0.0
C1118 C 0.48754 0.99778 0.17651 0.0
C1119 C 0.47829 0.98928 0.14494 0.0
C1120 C 0.45332 0.01212 0.13344 0.0
C1121 C 0.50491 0.98946 0.12416 0.0
C1122 C 0.46741 0.95529 0.1496 0.0
C1123 C 0.47103 0.94583 0.17898 0.0
C1124 C 0.46156 0.91621 0.1893 0.0
C1125 C 0.4475 0.89584 0.16923 0.0
C1126 C 0.44268 0.9052 0.13915 0.0
C1127 C 0.45334 0.93511 0.12912 0.0
H1128 H 0.8336 0.36912 0.62861 0.0
H1129 H 0.81503 0.33823 0.71874 0.0
H1130 H 0.76844 0.31488 0.70096 0.0
H1131 H 0.75827 0.3923 0.60862 0.0
H1132 H 0.76184 0.37872 0.57083 0.0
H1133 H 0.79368 0.39273 0.59087 0.0
H1134 H 0.8214 0.33871 0.58045 0.0
H1135 H 0.78958 0.32446 0.56055 0.0
H1136 H 0.80507 0.30137 0.59136 0.0
H1137 H 0.72393 0.29346 0.67251 0.0
H1138 H 0.68479 0.27862 0.63645 0.0
H1139 H 0.7322 0.32578 0.56596 0.0
C1140 C 0.81959 0.35799 0.64483 0.0
C1141 C 0.82821 0.35559 0.67516 0.0
C1142 C 0.80929 0.34006 0.69532 0.0
C1143 C 0.78264 0.32684 0.68546 0.0
C1144 C 0.77502 0.32948 0.65537 0.0
C1145 C 0.79289 0.34492 0.63543 0.0
C1146 C 0.77977 0.34467 0.60429 0.0
C1147 C 0.77298 0.37915 0.593 0.0
C1148 C 0.80017 0.3262 0.58291 0.0
C1149 C 0.75173 0.32664 0.60975 0.0
C1150 C 0.74938 0.31785 0.63929 0.0
C1151 C 0.72553 0.30036 0.64935 0.0
C1152 C 0.70347 0.29186 0.62868 0.0
C1153 C 0.70535 0.30103 0.59838 0.0
C1154 C 0.72989 0.31864 0.589 0.0
H1155 H 0.93445 0.42499 0.83283 0.0
H1156 H 0.02925 0.4357 0.82958 0.0
H1157 H 0.02596 0.47947 0.86639 0.0
H1158 H 0.91688 0.50716 0.83428 0.0
H1159 H 0.8861 0.50403 0.85898 0.0
H1160 H 0.89629 0.47061 0.83571 0.0
H1161 H 0.90158 0.43335 0.88205 0.0
H1162 H 0.89112 0.46663 0.90549 0.0
H1163 H 0.92537 0.44466 0.91252 0.0
H1164 H 1.01158 0.52593 0.89956 0.0
H1165 H 0.98747 0.56978 0.92804 0.0
H1166 H 0.90192 0.5297 0.90829 0.0
C1167 C 0.95458 0.43597 0.8405 0.0
C1168 C 0.98222 0.42654 0.82881 0.0
C1169 C 1.00798 0.44204 0.83882 0.0
C1170 C 1.00628 0.46708 0.85956 0.0
C1171 C 0.9786 0.47643 0.87006 0.0
C1172 C 0.95322 0.4612 0.86102 0.0
C1173 C 0.926 0.47733 0.874 0.0
C1174 C 0.9051 0.49056 0.84926 0.0
C1175 C 0.91009 0.45411 0.89475 0.0
C1176 C 0.93996 0.50433 0.89129 0.0
C1177 C 0.97032 0.50334 0.88888 0.0
C1178 C 0.98783 0.52673 0.90186 0.0
C1179 C 0.97394 0.55168 0.9178 0.0
C1180 C 0.94283 0.55311 0.92061 0.0
C1181 C 0.92578 0.52896 0.90714 0.0
H1182 H 0.78413 0.73647 0.09192 0.0
H1183 H 0.83526 0.6471 0.08564 0.0
H1184 H 0.79653 0.61839 0.11204 0.0
H1185 H 0.75104 0.71947 0.16599 0.0
H1186 H 0.71582 0.73745 0.15524 0.0
H1187 H 0.74926 0.75216 0.13937 0.0
H1188 H 0.728 0.74238 0.08652 0.0
H1189 H 0.69465 0.72741 0.10218 0.0
H1190 H 0.71567 0.70282 0.07682 0.0
H1191 H 0.75088 0.59801 0.13404 0.0
H1192 H 0.70089 0.58738 0.15211 0.0
H1193 H 0.67792 0.6892 0.14405 0.0
C1194 C 0.78745 0.71108 0.09695 0.0
C1195 C 0.81277 0.69401 0.08696 0.0
C1196 C 0.81604 0.66061 0.09314 0.0
C1197 C 0.7942 0.64409 0.10819 0.0
C1198 C 0.76908 0.66125 0.11694 0.0
C1199 C 0.76556 0.69402 0.11179 0.0
C1200 C 0.73528 0.70594 0.12158 0.0
C1201 C 0.73802 0.73019 0.14707 0.0
C1202 C 0.71735 0.72049 0.0952 0.0
C1203 C 0.72226 0.67464 0.13231 0.0
C1204 C 0.7423 0.64926 0.12961 0.0
C1205 C 0.73506 0.61772 0.13659 0.0
C1206 C 0.70654 0.61187 0.1466 0.0
C1207 C 0.68551 0.63741 0.14951 0.0
C1208 C 0.69366 0.66925 0.14247 0.0
H1209 H 0.63881 0.46349 0.38565 0.0
H1210 H 0.55731 0.44574 0.43189 0.0
H1211 H 0.53271 0.49045 0.40379 0.0
H1212 H 0.6309 0.55087 0.38394 0.0
H1213 H 0.64655 0.55442 0.34748 0.0
H1214 H 0.65786 0.52141 0.37163 0.0
H1215 H 0.64334 0.48073 0.33084 0.0
H1216 H 0.63214 0.51358 0.30654 0.0
H1217 H 0.60648 0.48251 0.31515 0.0
H1218 H 0.5166 0.53636 0.36947 0.0
H1219 H 0.50995 0.57813 0.33031 0.0
H1220 H 0.60242 0.56723 0.30797 0.0
C1221 C 0.61589 0.4692 0.39022 0.0
C1222 C 0.60006 0.45098 0.4111 0.0
C1223 C 0.56988 0.45897 0.4158 0.0
C1224 C 0.55577 0.48456 0.40013 0.0
C1225 C 0.57211 0.50207 0.37988 0.0
C1226 C 0.60151 0.49469 0.37488 0.0
C1227 C 0.61394 0.51666 0.35134 0.0
C1228 C 0.63878 0.53705 0.36439 0.0
C1229 C 0.62459 0.4972 0.32437 0.0
C1230 C 0.58684 0.53733 0.34357 0.0
C1231 C 0.56297 0.52866 0.3604 0.0
C1232 C 0.53522 0.54348 0.35636 0.0
C1233 C 0.53167 0.56727 0.33416 0.0
C1234 C 0.55572 0.57612 0.31635 0.0
C1235 C 0.58374 0.56128 0.32152 0.0
H1236 H 0.41379 0.32756 0.20758 0.0
H1237 H 0.33148 0.27636 0.20599 0.0
H1238 H 0.35841 0.22641 0.22157 0.0
H1239 H 0.45542 0.26749 0.17408 0.0
H1240 H 0.48877 0.27424 0.19524 0.0
H1241 H 0.46245 0.30679 0.18897 0.0
H1242 H 0.45899 0.31578 0.24584 0.0
H1243 H 0.48548 0.28328 0.2523 0.0
H1244 H 0.44999 0.28258 0.26982 0.0
H1245 H 0.39587 0.18024 0.23241 0.0
H1246 H 0.43991 0.14344 0.23665 0.0
H1247 H 0.4967 0.22536 0.22833 0.0
C1248 C 0.40127 0.30599 0.21081 0.0
C1249 C 0.37044 0.30607 0.20555 0.0
C1250 C 0.35501 0.27721 0.21034 0.0
C1251 C 0.37016 0.2486 0.21905 0.0
C1252 C 0.40074 0.2492 0.223 0.0
C1253 C 0.41603 0.2773 0.21917 0.0
C1254 C 0.44898 0.27134 0.22222 0.0
C1255 C 0.46482 0.28049 0.19342 0.0
C1256 C 0.46159 0.28931 0.24915 0.0
C1257 C 0.45 0.23533 0.22743 0.0
C1258 C 0.42204 0.22289 0.22835 0.0
C1259 C 0.41784 0.18985 0.23193 0.0
C1260 C 0.4429 0.16911 0.23428 0.0
C1261 C 0.4716 0.18158 0.23264 0.0
C1262 C 0.475 0.2151 0.22956 0.0
H1263 H 0.9247 0.29919 0.77628 0.0
H1264 H 1.00885 0.27174 0.8177 0.0
H1265 H 0.98789 0.2211 0.83542 0.0
H1266 H 0.88086 0.27024 0.83532 0.0
H1267 H 0.85147 0.25619 0.81167 0.0
H1268 H 0.87361 0.28909 0.79961 0.0
H1269 H 0.88661 0.25811 0.75162 0.0
H1270 H 0.86455 0.22503 0.76353 0.0
H1271 H 0.90278 0.21806 0.75441 0.0
H1272 H 0.95819 0.17458 0.8501 0.0
H1273 H 0.92006 0.13648 0.8645 0.0
H1274 H 0.854 0.19392 0.81558 0.0
C1275 C 0.93871 0.28227 0.78876 0.0
C1276 C 0.96842 0.28929 0.79555 0.0
C1277 C 0.98599 0.2669 0.81238 0.0
C1278 C 0.97437 0.23796 0.82238 0.0
C1279 C 0.945 0.2318 0.81562 0.0
C1280 C 0.92725 0.25335 0.79946 0.0
C1281 C 0.89582 0.24168 0.79729 0.0
C1282 C 0.87417 0.26573 0.81185 0.0
C1283 C 0.88692 0.23534 0.76477 0.0
C1284 C 0.89872 0.21049 0.81507 0.0
C1285 C 0.92743 0.2051 0.82497 0.0
C1286 C 0.93565 0.17836 0.84232 0.0
C1287 C 0.91385 0.15672 0.85022 0.0
C1288 C 0.88407 0.16205 0.84104 0.0
C1289 C 0.87656 0.1892 0.82295 0.0
H1290 H 0.08008 0.64881 0.10041 0.0
H1291 H 0.04704 0.55212 0.09219 0.0
H1292 H 0.99724 0.57496 0.07957 0.0
H1293 H 0.01656 0.68408 0.13375 0.0
H1294 H 0.01955 0.72194 0.11432 0.0
H1295 H 0.05218 0.69761 0.12232 0.0
H1296 H 0.06502 0.69756 0.06629 0.0
H1297 H 0.03242 0.72191 0.05811 0.0
H1298 H 0.03816 0.68405 0.03947 0.0
H1299 H 0.95074 0.60965 0.06707 0.0
H1300 H 0.91231 0.65252 0.05801 0.0
H1301 H 0.97745 0.72515 0.07484 0.0
C1302 C 0.0625 0.63235 0.09563 0.0
C1303 C 0.06748 0.59869 0.09701 0.0
C1304 C 0.04366 0.57802 0.09134 0.0
C1305 C 0.01538 0.59077 0.08402 0.0
C1306 C 1.01136 0.62419 0.08261 0.0
C1307 C 0.03436 0.6446 0.08838 0.0
C1308 C 0.02458 0.67954 0.08593 0.0
C1309 C 0.02844 0.69679 0.11586 0.0
C1310 C 0.04102 0.69677 0.06096 0.0
C1311 C 0.99239 0.67579 0.07796 0.0
C1312 C 0.98503 0.64377 0.07595 0.0
C1313 C 0.95632 0.63477 0.06868 0.0
C1314 C 0.93467 0.65919 0.06356 0.0
C1315 C 0.94198 0.69201 0.06593 0.0
C1316 C 0.9712 0.70022 0.07306 0.0
H1317 H 0.64106 0.8044 0.38187 0.0
H1318 H 0.69516 0.8284 0.30629 0.0
H1319 H 0.67042 0.78709 0.27657 0.0
H1320 H 0.63732 0.71817 0.36811 0.0
H1321 H 0.59936 0.71616 0.37927 0.0
H1322 H 0.623 0.7458 0.39542 0.0
H1323 H 0.58574 0.79107 0.37896 0.0
H1324 H 0.56207 0.76161 0.36265 0.0
H1325 H 0.57478 0.79457 0.34034 0.0
H1326 H 0.6377 0.74569 0.25396 0.0
H1327 H 0.60036 0.70608 0.24047 0.0
H1328 H 0.56647 0.7097 0.33028 0.0
C1329 C 0.64784 0.80096 0.35911 0.0
C1330 C 0.67028 0.81971 0.34658 0.0
C1331 C 0.67853 0.81405 0.31672 0.0
C1332 C 0.66441 0.79077 0.29953 0.0
C1333 C 0.64204 0.77326 0.31242 0.0
C1334 C 0.63387 0.77795 0.34156 0.0
C1335 C 0.60839 0.75675 0.34972 0.0
C1336 C 0.61758 0.73279 0.3746 0.0
C1337 C 0.58114 0.77723 0.35843 0.0
C1338 C 0.60329 0.73967 0.32048 0.0
C1339 C 0.62302 0.74949 0.29931 0.0
C1340 C 0.62228 0.73766 0.27042 0.0
C1341 C 0.60089 0.71514 0.26297 0.0
C1342 C 0.58043 0.70458 0.2843 0.0
C1343 C 0.58179 0.71713 0.31345 0.0
H1344 H 0.53694 0.31002 0.53554 0.0
H1345 H 0.60502 0.35782 0.58582 0.0
H1346 H 0.5669 0.3951 0.60663 0.0
H1347 H 0.48638 0.38217 0.5221 0.0
H1348 H 0.45437 0.35779 0.52658 0.0
H1349 H 0.48765 0.34045 0.51128 0.0
H1350 H 0.48753 0.2958 0.5518 0.0
H1351 H 0.45481 0.31334 0.56774 0.0
H1352 H 0.48756 0.30697 0.59047 0.0
H1353 H 0.51961 0.42067 0.62802 0.0
H1354 H 0.46921 0.43398 0.64549 0.0
H1355 H 0.43304 0.3677 0.58126 0.0
C1356 C 0.54396 0.32923 0.55 0.0
C1357 C 0.57382 0.33144 0.55888 0.0
C1358 C 0.58228 0.35628 0.5783 0.0
C1359 C 0.56071 0.37732 0.59036 0.0
C1360 C 0.53105 0.37322 0.5824 0.0
C1361 C 0.52285 0.35006 0.56217 0.0
C1362 C 0.48965 0.34788 0.55942 0.0
C1363 C 0.47888 0.35767 0.52798 0.0
C1364 C 0.47931 0.314 0.56787 0.0
C1365 C 0.48019 0.37253 0.58212 0.0
C1366 C 0.50423 0.3873 0.59492 0.0
C1367 C 0.5007 0.40962 0.61771 0.0
C1368 C 0.47197 0.41701 0.62751 0.0
C1369 C 0.44712 0.40182 0.61482 0.0
C1370 C 0.45152 0.37953 0.59165 0.0
H1371 H 0.14691 0.67895 0.68641 0.0
H1372 H 0.22326 0.73985 0.68534 0.0
H1373 H 0.19369 0.78393 0.70795 0.0
H1374 H 0.09487 0.73848 0.66599 0.0
H1375 H 0.06606 0.72375 0.6893 0.0
H1376 H 0.09404 0.69633 0.67577 0.0
H1377 H 0.10707 0.67837 0.72983 0.0
H1378 H 0.079 0.70571 0.74355 0.0
H1379 H 0.11653 0.70822 0.75704 0.0
H1380 H 0.15392 0.82303 0.72746 0.0
H1381 H 0.10783 0.85271 0.74121 0.0
H1382 H 0.05892 0.76511 0.72996 0.0
C1383 C 0.15768 0.70123 0.69162 0.0
C1384 C 0.18746 0.70583 0.68418 0.0
C1385 C 0.20041 0.73579 0.69064 0.0
C1386 C 0.18384 0.76092 0.70366 0.0
C1387 C 0.15436 0.75572 0.71024 0.0
C1388 C 0.1415 0.72649 0.70453 0.0
C1389 C 0.10905 0.72745 0.71191 0.0
C1390 C 0.08989 0.72114 0.68409 0.0
C1391 C 0.10254 0.70352 0.73709 0.0
C1392 C 0.10547 0.76191 0.72217 0.0
C1393 C 0.13179 0.77792 0.72131 0.0
C1394 C 0.13326 0.81058 0.72847 0.0
C1395 C 0.10705 0.82726 0.73624 0.0
C1396 C 0.07988 0.81121 0.73662 0.0
C1397 C 0.07938 0.77804 0.73 0.0
H1398 H 0.47145 0.79437 0.93299 0.0
H1399 H 0.44084 0.86466 0.99738 0.0
H1400 H 0.48101 0.90054 0.983 0.0
H1401 H 0.54731 0.80409 0.94566 0.0
H1402 H 0.55736 0.79922 0.9073 0.0
H1403 H 0.52499 0.78026 0.92115 0.0
H1404 H 0.49294 0.80872 0.88007 0.0
H1405 H 0.52526 0.82769 0.86598 0.0
H1406 H 0.49355 0.85195 0.87632 0.0
H1407 H 0.52697 0.92694 0.96388 0.0
H1408 H 0.57414 0.94179 0.94134 0.0
H1409 H 0.57303 0.85478 0.8884 0.0
C1410 C 0.47289 0.81744 0.94392 0.0
C1411 C 0.45295 0.82663 0.96639 0.0
C1412 C 0.4558 0.85704 0.9801 0.0
C1413 C 0.47854 0.87762 0.97206 0.0
C1414 C 0.49807 0.86754 0.95012 0.0
C1415 C 0.49531 0.83824 0.93612 0.0
C1416 C 0.5197 0.83241 0.91405 0.0
C1417 C 0.53844 0.80221 0.92256 0.0
C1418 C 0.5071 0.83007 0.88222 0.0
C1419 C 0.53698 0.86277 0.91812 0.0
C1420 C 0.52415 0.88283 0.93891 0.0
C1421 C 0.53697 0.91162 0.94726 0.0
C1422 C 0.56371 0.91994 0.93418 0.0
C1423 C 0.57737 0.89955 0.91296 0.0
C1424 C 0.56343 0.87082 0.90469 0.0
H1425 H 0.95407 0.13399 0.46001 0.0
H1426 H 0.99569 0.05413 0.41382 0.0
H1427 H 0.04499 0.07353 0.42931 0.0
H1428 H 1.00339 0.19217 0.43919 0.0
H1429 H 1.00222 0.21336 0.47402 0.0
H1430 H 0.97106 0.19063 0.462 0.0
H1431 H 0.97359 0.15811 0.51151 0.0
H1432 H 1.00501 0.18065 0.52354 0.0
H1433 H 1.0075 0.13729 0.52238 0.0
H1434 H 0.09053 0.10661 0.44599 0.0
H1435 H 0.12535 0.1495 0.46047 0.0
H1436 H 0.05231 0.20546 0.49608 0.0
C1437 C 0.97352 0.12036 0.45332 0.0
C1438 C 0.97101 0.09266 0.43552 0.0
C1439 C 0.99706 0.07535 0.42757 0.0
C1440 C 0.02515 0.08622 0.43629 0.0
C1441 C 0.02681 0.11413 0.45339 0.0
C1442 C 1.00148 0.13069 0.46196 0.0
C1443 C 1.00866 0.16099 0.47867 0.0
C1444 C 0.99558 0.19104 0.4625 0.0
C1445 C 0.99806 0.15913 0.51094 0.0
C1446 C 0.04198 0.15969 0.4774 0.0
C1447 C 0.05236 0.1324 0.46311 0.0
C1448 C 0.08255 0.12774 0.45762 0.0
C1449 C 0.10226 0.15206 0.46607 0.0
C1450 C 0.09149 0.18062 0.47953 0.0
C1451 C 0.06119 0.18371 0.48605 0.0
loop_
_geom_bond_atom_site_label_1
_geom_bond_atom_site_label_2
_geom_bond_distance
_geom_bond_site_symmetry_2
_ccdc_geom_bond_type
Ho0 C3 2.811 . S
Ho0 O20 2.322 . S
Ho0 O22 2.378 . S
Ho0 O23 2.524 . S
Ho0 O24 2.381 . S
Ho0 O25 2.669 . S
Ho0 O27 2.346 . S
Ho0 O31 2.305 . S
Ho1 C12 2.811 . S
Ho1 O21 2.346 . S
Ho1 O25 2.305 . S
Ho1 O26 2.322 . S
Ho1 O28 2.378 . S
Ho1 O29 2.524 . S
Ho1 O30 2.381 . S
Ho1 O31 2.669 . S
C2 O20 1.259 . S
C2 O21 1.268 . S
C3 Ho0 2.811 . S
C3 C4 1.488 . S
C3 O22 1.215 . S
C3 O23 1.289 . S
C4 C3 1.488 . S
C4 C5 1.348 . S
C4 C9 1.413 . S
C5 C4 1.348 . S
C5 C6 1.442 . S
C5 H32 0.930 . S
C6 C5 1.442 . S
C6 C7 1.381 . S
C6 H33 0.931 . S
C7 C6 1.381 . S
C7 C8 1.321 . S
C8 C7 1.321 . S
C8 C9 1.403 . S
C8 H34 0.934 . S
C9 C4 1.413 . S
C9 C8 1.403 . S
C9 H35 0.930 . S
C10 O24 1.275 . S
C10 O25 1.256 . S
C11 O26 1.259 . S
C11 O27 1.268 . S
C12 Ho1 2.811 . S
C12 C13 1.488 . S
C12 O28 1.215 . S
C12 O29 1.289 . S
C13 C12 1.488 . S
C13 C14 1.348 . S
C13 C18 1.413 . S
C14 C13 1.348 . S
C14 C15 1.442 . S
C14 H36 0.930 . S
C15 C14 1.442 . S
C15 C16 1.381 . S
C15 H37 0.931 . S
C16 C15 1.381 . S
C16 C17 1.321 . S
C17 C16 1.321 . S
C17 C18 1.403 . S
C17 H38 0.934 . S
C18 C13 1.413 . S
C18 C17 1.403 . S
C18 H39 0.930 . S
C19 O30 1.275 . S
C19 O31 1.256 . S
O20 Ho0 2.322 . S
O20 C2 1.259 . S
O21 Ho1 2.346 . S
O21 C2 1.268 . S
O22 Ho0 2.378 . S
O22 C3 1.215 . S
O23 Ho0 2.524 . S
O23 C3 1.289 . S
O24 Ho0 2.381 . S
O24 C10 1.275 . S
O25 Ho0 2.669 . S
O25 Ho1 2.305 . S
O25 C10 1.256 . S
O26 Ho1 2.322 . S
O26 C11 1.259 . S
O27 Ho0 2.346 . S
O27 C11 1.268 . S
O28 Ho1 2.378 . S
O28 C12 1.215 . S
O29 Ho1 2.524 . S
O29 C12 1.289 . S
O30 Ho1 2.381 . S
O30 C19 1.275 . S
O31 Ho0 2.305 . S
O31 Ho1 2.669 . S
O31 C19 1.256 . S
H32 C5 0.930 . S
H33 C6 0.931 . S
H34 C8 0.934 . S
H35 C9 0.930 . S
H36 C14 0.930 . S
H37 C15 0.931 . S
H38 C17 0.934 . S
H39 C18 0.930 . S
Ho40 C43 2.811 . S
Ho40 O60 2.322 1_655 S
Ho40 O62 2.378 . S
Ho40 O63 2.524 . S
Ho40 O64 2.381 1_655 S
Ho40 O65 2.669 1_655 S
Ho40 O67 2.346 . S
Ho40 O71 2.305 . S
Ho41 C52 2.811 . S
Ho41 O61 2.346 . S
Ho41 O65 2.305 . S
Ho41 O66 2.322 . S
Ho41 O68 2.378 . S
Ho41 O69 2.524 . S
Ho41 O70 2.407 . S
Ho41 O71 2.669 1_455 S
C42 O60 1.259 . S
C42 O61 1.268 . S
C43 Ho40 2.811 . S
C43 C44 1.488 . S
C43 O62 1.215 . S
C43 O63 1.289 . S
C44 C43 1.488 . S
C44 C45 1.348 . S
C44 C49 1.413 . S
C45 C44 1.348 . S
C45 C46 1.442 . S
C45 H72 0.930 . S
C46 C45 1.442 . S
C46 C47 1.381 . S
C46 H73 0.931 . S
C47 C46 1.381 . S
C47 C48 1.321 . S
C48 C47 1.321 . S
C48 C49 1.403 . S
C48 H74 0.934 . S
C49 C44 1.413 . S
C49 C48 1.403 . S
C49 H75 0.930 . S
C50 O64 1.275 . S
C50 O65 1.256 . S
C51 O66 1.259 1_655 S
C51 O67 1.268 . S
C52 Ho41 2.811 . S
C52 C53 1.488 . S
C52 O68 1.215 . S
C52 O69 1.289 . S
C53 C52 1.488 . S
C53 C54 1.348 . S
C53 C58 1.413 . S
C54 C53 1.348 . S
C54 C55 1.442 . S
C54 H76 0.930 . S
C55 C54 1.442 . S
C55 C56 1.381 . S
C55 H77 0.931 . S
C56 C55 1.381 . S
C56 C57 1.321 . S
C57 C56 1.321 . S
C57 C58 1.403 . S
C57 H78 0.934 . S
C58 C53 1.413 . S
C58 C57 1.403 . S
C58 H79 0.930 . S
C59 O70 1.249 1_655 S
C59 O71 1.256 . S
O60 Ho40 2.322 1_455 S
O60 C42 1.259 . S
O61 Ho41 2.346 . S
O61 C42 1.268 . S
O62 Ho40 2.378 . S
O62 C43 1.215 . S
O63 Ho40 2.524 . S
O63 C43 1.289 . S
O64 Ho40 2.381 1_455 S
O64 C50 1.275 . S
O65 Ho40 2.669 1_455 S
O65 Ho41 2.305 . S
O65 C50 1.256 . S
O66 Ho41 2.322 . S
O66 C51 1.259 1_455 S
O67 Ho40 2.346 . S
O67 C51 1.268 . S
O68 Ho41 2.378 . S
O68 C52 1.215 . S
O69 Ho41 2.524 . S
O69 C52 1.289 . S
O70 Ho41 2.407 . S
O70 C59 1.249 1_455 S
O71 Ho40 2.305 . S
O71 Ho41 2.669 1_655 S
O71 C59 1.256 . S
H72 C45 0.930 . S
H73 C46 0.931 . S
H74 C48 0.934 . S
H75 C49 0.930 . S
H76 C54 0.930 . S
H77 C55 0.931 . S
H78 C57 0.934 . S
H79 C58 0.930 . S
Ho80 C83 2.811 . S
Ho80 O100 2.322 1_554 S
Ho80 O102 2.378 . S
Ho80 O103 2.524 . S
Ho80 O104 2.381 1_554 S
Ho80 O105 2.669 1_554 S
Ho80 O107 2.346 . S
Ho80 O111 2.305 . S
Ho81 C92 2.811 . S
Ho81 O101 2.346 . S
Ho81 O105 2.305 . S
Ho81 O106 2.322 . S
Ho81 O108 2.378 . S
Ho81 O109 2.524 . S
Ho81 O110 2.381 . S
Ho81 O111 2.669 1_556 S
C82 O100 1.259 . S
C82 O101 1.268 . S
C83 Ho80 2.811 . S
C83 C84 1.488 . S
C83 O102 1.215 . S
C83 O103 1.289 . S
C84 C83 1.488 . S
C84 C85 1.348 . S
C84 C89 1.413 . S
C85 C84 1.348 . S
C85 C86 1.442 . S
C85 H112 0.930 . S
C86 C85 1.442 . S
C86 C87 1.381 . S
C86 H113 0.931 . S
C87 C86 1.381 . S
C87 C88 1.321 . S
C88 C87 1.321 . S
C88 C89 1.403 . S
C88 H114 0.934 . S
C89 C84 1.413 . S
C89 C88 1.403 . S
C89 H115 0.930 . S
C90 O104 1.275 . S
C90 O105 1.256 . S
C91 O106 1.259 1_554 S
C91 O107 1.268 . S
C92 Ho81 2.811 . S
C92 C93 1.488 . S
C92 O108 1.215 . S
C92 O109 1.289 . S
C93 C92 1.488 . S
C93 C94 1.348 . S
C93 C98 1.413 . S
C94 C93 1.348 . S
C94 C95 1.442 . S
C94 H116 0.930 . S
C95 C94 1.442 . S
C95 C96 1.381 . S
C95 H117 0.931 . S
C96 C95 1.381 . S
C96 C97 1.321 . S
C97 C96 1.321 . S
C97 C98 1.403 . S
C97 H118 0.934 . S
C98 C93 1.413 . S
C98 C97 1.403 . S
C98 H119 0.930 . S
C99 O110 1.275 1_554 S
C99 O111 1.256 . S
O100 Ho80 2.322 1_556 S
O100 C82 1.259 . S
O101 Ho81 2.346 . S
O101 C82 1.268 . S
O102 Ho80 2.378 . S
O102 C83 1.215 . S
O103 Ho80 2.524 . S
O103 C83 1.289 . S
O104 Ho80 2.381 1_556 S
O104 C90 1.275 . S
O105 Ho80 2.669 1_556 S
O105 Ho81 2.305 . S
O105 C90 1.256 . S
O106 Ho81 2.322 . S
O106 C91 1.259 1_556 S
O107 Ho80 2.346 . S
O107 C91 1.268 . S
O108 Ho81 2.378 . S
O108 C92 1.215 . S
O109 Ho81 2.524 . S
O109 C92 1.289 . S
O110 Ho81 2.381 . S
O110 C99 1.275 1_556 S
O111 Ho80 2.305 . S
O111 Ho81 2.669 1_554 S
O111 C99 1.256 . S
H112 C85 0.930 . S
H113 C86 0.931 . S
H114 C88 0.934 . S
H115 C89 0.930 . S
H116 C94 0.930 . S
H117 C95 0.931 . S
H118 C97 0.934 . S
H119 C98 0.930 . S
Ho120 C123 2.811 . S
Ho120 O140 2.322 . S
Ho120 O142 2.378 . S
Ho120 O143 2.524 . S
Ho120 O144 2.381 . S
Ho120 O145 2.669 . S
Ho120 O147 2.346 . S
Ho120 O151 2.305 . S
Ho121 C132 2.811 . S
Ho121 O141 2.346 . S
Ho121 O145 2.305 . S
Ho121 O146 2.322 . S
Ho121 O148 2.378 . S
Ho121 O149 2.524 . S
Ho121 O150 2.381 . S
Ho121 O151 2.669 . S
C122 O140 1.259 . S
C122 O141 1.268 . S
C123 Ho120 2.811 . S
C123 C124 1.488 . S
C123 O142 1.215 . S
C123 O143 1.289 . S
C124 C123 1.488 . S
C124 C125 1.348 . S
C124 C129 1.413 . S
C125 C124 1.348 . S
C125 C126 1.442 . S
C125 H152 0.930 . S
C126 C125 1.442 . S
C126 C127 1.381 . S
C126 H153 0.931 . S
C127 C126 1.381 . S
C127 C128 1.321 . S
C128 C127 1.321 . S
C128 C129 1.403 . S
C128 H154 0.934 . S
C129 C124 1.413 . S
C129 C128 1.403 . S
C129 H155 0.930 . S
C130 O144 1.275 . S
C130 O145 1.256 . S
C131 O146 1.259 . S
C131 O147 1.268 . S
C132 Ho121 2.811 . S
C132 C133 1.488 . S
C132 O148 1.215 . S
C132 O149 1.289 . S
C133 C132 1.488 . S
C133 C134 1.348 . S
C133 C138 1.413 . S
C134 C133 1.348 . S
C134 C135 1.442 . S
C134 H156 0.930 . S
C135 C134 1.442 . S
C135 C136 1.381 . S
C135 H157 0.931 . S
C136 C135 1.381 . S
C136 C137 1.321 . S
C137 C136 1.321 . S
C137 C138 1.403 . S
C137 H158 0.934 . S
C138 C133 1.413 . S
C138 C137 1.403 . S
C138 H159 0.930 . S
C139 O150 1.275 . S
C139 O151 1.256 . S
O140 Ho120 2.322 . S
O140 C122 1.259 . S
O141 Ho121 2.346 . S
O141 C122 1.268 . S
O142 Ho120 2.378 . S
O142 C123 1.215 . S
O143 Ho120 2.524 . S
O143 C123 1.289 . S
O144 Ho120 2.381 . S
O144 C130 1.275 . S
O145 Ho120 2.669 . S
O145 Ho121 2.305 . S
O145 C130 1.256 . S
O146 Ho121 2.322 . S
O146 C131 1.259 . S
O147 Ho120 2.346 . S
O147 C131 1.268 . S
O148 Ho121 2.378 . S
O148 C132 1.215 . S
O149 Ho121 2.524 . S
O149 C132 1.289 . S
O150 Ho121 2.381 . S
O150 C139 1.275 . S
O151 Ho120 2.305 . S
O151 Ho121 2.669 . S
O151 C139 1.256 . S
H152 C125 0.930 . S
H153 C126 0.931 . S
H154 C128 0.934 . S
H155 C129 0.930 . S
H156 C134 0.930 . S
H157 C135 0.931 . S
H158 C137 0.934 . S
H159 C138 0.930 . S
Ho160 C163 2.811 . S
Ho160 O180 2.322 . S
Ho160 O182 2.378 . S
Ho160 O183 2.524 . S
Ho160 O184 2.381 . S
Ho160 O185 2.669 . S
Ho160 O187 2.346 . S
Ho160 O191 2.305 . S
Ho161 C172 2.811 . S
Ho161 O181 2.346 . S
Ho161 O185 2.305 . S
Ho161 O186 2.322 . S
Ho161 O188 2.378 . S
Ho161 O189 2.524 . S
Ho161 O190 2.381 . S
Ho161 O191 2.669 . S
C162 O180 1.259 . S
C162 O181 1.268 . S
C163 Ho160 2.811 . S
C163 C164 1.488 . S
C163 O182 1.215 . S
C163 O183 1.289 . S
C164 C163 1.488 . S
C164 C165 1.348 . S
C164 C169 1.413 . S
C165 C164 1.348 . S
C165 C166 1.442 . S
C165 H192 0.930 . S
C166 C165 1.442 . S
C166 C167 1.381 . S
C166 H193 0.931 . S
C167 C166 1.381 . S
C167 C168 1.321 . S
C168 C167 1.321 . S
C168 C169 1.403 . S
C168 H194 0.934 . S
C169 C164 1.413 . S
C169 C168 1.403 . S
C169 H195 0.930 . S
C170 O184 1.275 . S
C170 O185 1.256 . S
C171 O186 1.259 . S
C171 O187 1.268 . S
C172 Ho161 2.811 . S
C172 C173 1.488 . S
C172 O188 1.215 . S
C172 O189 1.289 . S
C173 C172 1.488 . S
C173 C174 1.348 . S
C173 C178 1.413 . S
C174 C173 1.348 . S
C174 C175 1.442 . S
C174 H196 0.930 . S
C175 C174 1.442 . S
C175 C176 1.381 . S
C175 H197 0.931 . S
C176 C175 1.381 . S
C176 C177 1.321 . S
C177 C176 1.321 . S
C177 C178 1.403 . S
C177 H198 0.934 . S
C178 C173 1.413 . S
C178 C177 1.403 . S
C178 H199 0.930 . S
C179 O190 1.275 . S
C179 O191 1.256 . S
O180 Ho160 2.322 . S
O180 C162 1.259 . S
O181 Ho161 2.346 . S
O181 C162 1.268 . S
O182 Ho160 2.378 . S
O182 C163 1.215 . S
O183 Ho160 2.524 . S
O183 C163 1.289 . S
O184 Ho160 2.381 . S
O184 C170 1.275 . S
O185 Ho160 2.669 . S
O185 Ho161 2.305 . S
O185 C170 1.256 . S
O186 Ho161 2.322 . S
O186 C171 1.259 . S
O187 Ho160 2.346 . S
O187 C171 1.268 . S
O188 Ho161 2.378 . S
O188 C172 1.215 . S
O189 Ho161 2.524 . S
O189 C172 1.289 . S
O190 Ho161 2.381 . S
O190 C179 1.275 . S
O191 Ho160 2.305 . S
O191 Ho161 2.669 . S
O191 C179 1.256 . S
H192 C165 0.930 . S
H193 C166 0.931 . S
H194 C168 0.934 . S
H195 C169 0.930 . S
H196 C174 0.930 . S
H197 C175 0.931 . S
H198 C177 0.934 . S
H199 C178 0.930 . S
Ho200 C203 2.811 . S
Ho200 O220 2.322 . S
Ho200 O222 2.378 . S
Ho200 O223 2.524 . S
Ho200 O224 2.381 . S
Ho200 O225 2.669 . S
Ho200 O227 2.346 1_655 S
Ho200 O231 2.305 1_655 S
Ho201 C212 2.811 . S
Ho201 O221 2.346 1_455 S
Ho201 O225 2.305 1_455 S
Ho201 O226 2.322 . S
Ho201 O228 2.378 . S
Ho201 O229 2.524 . S
Ho201 O230 2.381 . S
Ho201 O231 2.669 . S
C202 O220 1.259 . S
C202 O221 1.268 . S
C203 Ho200 2.811 . S
C203 C204 1.488 . S
C203 O222 1.215 . S
C203 O223 1.289 . S
C204 C203 1.488 . S
C204 C205 1.348 . S
C204 C209 1.413 . S
C205 C204 1.348 . S
C205 C206 1.442 . S
C205 H232 0.930 . S
C206 C205 1.442 . S
C206 C207 1.381 . S
C206 H233 0.931 . S
C207 C206 1.381 . S
C207 C208 1.321 . S
C208 C207 1.321 . S
C208 C209 1.403 . S
C208 H234 0.934 . S
C209 C204 1.413 . S
C209 C208 1.403 . S
C209 H235 0.930 . S
C210 O224 1.275 . S
C210 O225 1.256 . S
C211 O226 1.259 . S
C211 O227 1.268 . S
C212 Ho201 2.811 . S
C212 C213 1.488 . S
C212 O228 1.215 . S
C212 O229 1.289 . S
C213 C212 1.488 . S
C213 C214 1.348 . S
C213 C218 1.413 . S
C214 C213 1.348 . S
C214 C215 1.442 . S
C214 H236 0.930 . S
C215 C214 1.442 . S
C215 C216 1.381 . S
C215 H237 0.931 . S
C216 C215 1.381 . S
C216 C217 1.321 . S
C217 C216 1.321 . S
C217 C218 1.403 . S
C217 H238 0.934 . S
C218 C213 1.413 . S
C218 C217 1.403 . S
C218 H239 0.930 . S
C219 O230 1.275 . S
C219 O231 1.256 . S
O220 Ho200 2.322 . S
O220 C202 1.259 . S
O221 Ho201 2.346 1_655 S
O221 C202 1.268 . S
O222 Ho200 2.378 . S
O222 C203 1.215 . S
O223 Ho200 2.524 . S
O223 C203 1.289 . S
O224 Ho200 2.381 . S
O224 C210 1.275 . S
O225 Ho200 2.669 . S
O225 Ho201 2.305 1_655 S
O225 C210 1.256 . S
O226 Ho201 2.322 . S
O226 C211 1.259 . S
O227 Ho200 2.346 1_455 S
O227 C211 1.268 . S
O228 Ho201 2.378 . S
O228 C212 1.215 . S
O229 Ho201 2.524 . S
O229 C212 1.289 . S
O230 Ho201 2.381 . S
O230 C219 1.275 . S
O231 Ho200 2.305 1_455 S
O231 Ho201 2.669 . S
O231 C219 1.256 . S
H232 C205 0.930 . S
H233 C206 0.931 . S
H234 C208 0.934 . S
H235 C209 0.930 . S
H236 C214 0.930 . S
H237 C215 0.931 . S
H238 C217 0.934 . S
H239 C218 0.930 . S
Ho240 C243 2.811 . S
Ho240 O260 2.322 . S
Ho240 O262 2.378 . S
Ho240 O263 2.524 . S
Ho240 O264 2.381 . S
Ho240 O265 2.669 . S
Ho240 O267 2.346 1_554 S
Ho240 O271 2.305 . S
Ho241 C252 2.811 . S
Ho241 O261 2.346 1_556 S
Ho241 O265 2.305 1_556 S
Ho241 O266 2.322 . S
Ho241 O268 2.378 . S
Ho241 O269 2.524 . S
Ho241 O270 2.381 . S
Ho241 O271 2.669 1_556 S
C242 O260 1.259 . S
C242 O261 1.268 . S
C243 Ho240 2.811 . S
C243 C244 1.488 . S
C243 O262 1.215 . S
C243 O263 1.289 . S
C244 C243 1.488 . S
C244 C245 1.348 . S
C244 C249 1.413 . S
C245 C244 1.348 . S
C245 C246 1.442 . S
C245 H272 0.930 . S
C246 C245 1.442 . S
C246 C247 1.381 . S
C246 H273 0.931 . S
C247 C246 1.381 . S
C247 C248 1.321 . S
C248 C247 1.321 . S
C248 C249 1.403 . S
C248 H274 0.934 . S
C249 C244 1.413 . S
C249 C248 1.403 . S
C249 H275 0.930 . S
C250 O264 1.275 . S
C250 O265 1.256 . S
C251 O266 1.259 . S
C251 O267 1.268 . S
C252 Ho241 2.811 . S
C252 C253 1.488 . S
C252 O268 1.215 . S
C252 O269 1.289 . S
C253 C252 1.488 . S
C253 C254 1.348 . S
C253 C258 1.413 . S
C254 C253 1.348 . S
C254 C255 1.442 . S
C254 H276 0.930 . S
C255 C254 1.442 . S
C255 C256 1.381 . S
C255 H277 0.931 . S
C256 C255 1.381 . S
C256 C257 1.321 . S
C257 C256 1.321 . S
C257 C258 1.403 . S
C257 H278 0.934 . S
C258 C253 1.413 . S
C258 C257 1.403 . S
C258 H279 0.930 . S
C259 O270 1.275 . S
C259 O271 1.256 1_556 S
O260 Ho240 2.322 . S
O260 C242 1.259 . S
O261 Ho241 2.346 1_554 S
O261 C242 1.268 . S
O262 Ho240 2.378 . S
O262 C243 1.215 . S
O263 Ho240 2.524 . S
O263 C243 1.289 . S
O264 Ho240 2.381 . S
O264 C250 1.275 . S
O265 Ho240 2.669 . S
O265 Ho241 2.305 1_554 S
O265 C250 1.256 . S
O266 Ho241 2.322 . S
O266 C251 1.259 . S
O267 Ho240 2.346 1_556 S
O267 C251 1.268 . S
O268 Ho241 2.378 . S
O268 C252 1.215 . S
O269 Ho241 2.524 . S
O269 C252 1.289 . S
O270 Ho241 2.381 . S
O270 C259 1.275 . S
O271 Ho240 2.305 . S
O271 Ho241 2.669 1_554 S
O271 C259 1.256 1_554 S
H272 C245 0.930 . S
H273 C246 0.931 . S
H274 C248 0.934 . S
H275 C249 0.930 . S
H276 C254 0.930 . S
H277 C255 0.931 . S
H278 C257 0.934 . S
H279 C258 0.930 . S
Ho280 C283 2.811 . S
Ho280 O300 2.322 . S
Ho280 O302 2.378 . S
Ho280 O303 2.524 . S
Ho280 O304 2.381 . S
Ho280 O305 2.669 . S
Ho280 O307 2.346 . S
Ho280 O311 2.305 . S
Ho281 C292 2.811 . S
Ho281 O301 2.346 . S
Ho281 O305 2.305 . S
Ho281 O306 2.322 . S
Ho281 O308 2.378 . S
Ho281 O309 2.524 . S
Ho281 O310 2.381 . S
Ho281 O311 2.669 . S
C282 O300 1.259 . S
C282 O301 1.268 . S
C283 Ho280 2.811 . S
C283 C284 1.488 . S
C283 O302 1.215 . S
C283 O303 1.289 . S
C284 C283 1.488 . S
C284 C285 1.348 . S
C284 C289 1.413 . S
C285 C284 1.348 . S
C285 C286 1.442 . S
C285 H312 0.930 . S
C286 C285 1.442 . S
C286 C287 1.381 . S
C286 H313 0.931 . S
C287 C286 1.381 . S
C287 C288 1.321 . S
C288 C287 1.321 . S
C288 C289 1.403 . S
C288 H314 0.934 . S
C289 C284 1.413 . S
C289 C288 1.403 . S
C289 H315 0.930 . S
C290 O304 1.275 . S
C290 O305 1.256 . S
C291 O306 1.259 . S
C291 O307 1.268 . S
C292 Ho281 2.811 . S
C292 C293 1.488 . S
C292 O308 1.215 . S
C292 O309 1.289 . S
C293 C292 1.488 . S
C293 C294 1.348 . S
C293 C298 1.413 . S
C294 C293 1.348 . S
C294 C295 1.442 . S
C294 H316 0.930 . S
C295 C294 1.442 . S
C295 C296 1.381 . S
C295 H317 0.931 . S
C296 C295 1.381 . S
C296 C297 1.321 . S
C297 C296 1.321 . S
C297 C298 1.403 . S
C297 H318 0.934 . S
C298 C293 1.413 . S
C298 C297 1.403 . S
C298 H319 0.930 . S
C299 O310 1.275 . S
C299 O311 1.256 . S
O300 Ho280 2.322 . S
O300 C282 1.259 . S
O301 Ho281 2.346 . S
O301 C282 1.268 . S
O302 Ho280 2.378 . S
O302 C283 1.215 . S
O303 Ho280 2.524 . S
O303 C283 1.289 . S
O304 Ho280 2.381 . S
O304 C290 1.275 . S
O305 Ho280 2.669 . S
O305 Ho281 2.305 . S
O305 C290 1.256 . S
O306 Ho281 2.322 . S
O306 C291 1.259 . S
O307 Ho280 2.346 . S
O307 C291 1.268 . S
O308 Ho281 2.378 . S
O308 C292 1.215 . S
O309 Ho281 2.524 . S
O309 C292 1.289 . S
O310 Ho281 2.381 . S
O310 C299 1.275 . S
O311 Ho280 2.305 . S
O311 Ho281 2.669 . S
O311 C299 1.256 . S
H312 C285 0.930 . S
H313 C286 0.931 . S
H314 C288 0.934 . S
H315 C289 0.930 . S
H316 C294 0.930 . S
H317 C295 0.931 . S
H318 C297 0.934 . S
H319 C298 0.930 . S
Ho320 C323 2.811 . S
Ho320 O340 2.322 . S
Ho320 O342 2.378 . S
Ho320 O343 2.524 . S
Ho320 O344 2.381 . S
Ho320 O345 2.669 . S
Ho320 O347 2.346 . S
Ho320 O351 2.305 . S
Ho321 C332 2.811 . S
Ho321 O341 2.346 . S
Ho321 O345 2.305 . S
Ho321 O346 2.322 . S
Ho321 O348 2.378 . S
Ho321 O349 2.524 . S
Ho321 O350 2.381 . S
Ho321 O351 2.669 . S
C322 O340 1.259 . S
C322 O341 1.268 . S
C323 Ho320 2.811 . S
C323 C324 1.488 . S
C323 O342 1.215 . S
C323 O343 1.289 . S
C324 C323 1.488 . S
C324 C325 1.348 . S
C324 C329 1.413 . S
C325 C324 1.348 . S
C325 C326 1.442 . S
C325 H352 0.930 . S
C326 C325 1.442 . S
C326 C327 1.381 . S
C326 H353 0.931 . S
C327 C326 1.381 . S
C327 C328 1.321 . S
C328 C327 1.321 . S
C328 C329 1.403 . S
C328 H354 0.934 . S
C329 C324 1.413 . S
C329 C328 1.403 . S
C329 H355 0.930 . S
C330 O344 1.275 . S
C330 O345 1.256 . S
C331 O346 1.259 . S
C331 O347 1.268 . S
C332 Ho321 2.811 . S
C332 C333 1.488 . S
C332 O348 1.215 . S
C332 O349 1.289 . S
C333 C332 1.488 . S
C333 C334 1.348 . S
C333 C338 1.413 . S
C334 C333 1.348 . S
C334 C335 1.442 . S
C334 H356 0.930 . S
C335 C334 1.442 . S
C335 C336 1.381 . S
C335 H357 0.931 . S
C336 C335 1.381 . S
C336 C337 1.321 . S
C337 C336 1.321 . S
C337 C338 1.403 . S
C337 H358 0.934 . S
C338 C333 1.413 . S
C338 C337 1.403 . S
C338 H359 0.930 . S
C339 O350 1.275 . S
C339 O351 1.256 . S
O340 Ho320 2.322 . S
O340 C322 1.259 . S
O341 Ho321 2.346 . S
O341 C322 1.268 . S
O342 Ho320 2.378 . S
O342 C323 1.215 . S
O343 Ho320 2.524 . S
O343 C323 1.289 . S
O344 Ho320 2.381 . S
O344 C330 1.275 . S
O345 Ho320 2.669 . S
O345 Ho321 2.305 . S
O345 C330 1.256 . S
O346 Ho321 2.322 . S
O346 C331 1.259 . S
O347 Ho320 2.346 . S
O347 C331 1.268 . S
O348 Ho321 2.378 . S
O348 C332 1.215 . S
O349 Ho321 2.524 . S
O349 C332 1.289 . S
O350 Ho321 2.381 . S
O350 C339 1.275 . S
O351 Ho320 2.305 . S
O351 Ho321 2.669 . S
O351 C339 1.256 . S
H352 C325 0.930 . S
H353 C326 0.931 . S
H354 C328 0.934 . S
H355 C329 0.930 . S
H356 C334 0.930 . S
H357 C335 0.931 . S
H358 C337 0.934 . S
H359 C338 0.930 . S
Ho360 C363 2.811 . S
Ho360 O380 2.322 1_565 S
Ho360 O382 2.378 . S
Ho360 O383 2.524 . S
Ho360 O384 2.381 1_565 S
Ho360 O385 2.669 1_565 S
Ho360 O387 2.346 . S
Ho360 O391 2.305 . S
Ho361 C372 2.811 . S
Ho361 O381 2.346 . S
Ho361 O385 2.305 . S
Ho361 O386 2.322 1_545 S
Ho361 O388 2.378 . S
Ho361 O389 2.524 . S
Ho361 O390 2.381 1_545 S
Ho361 O391 2.669 1_545 S
C362 O380 1.259 . S
C362 O381 1.268 . S
C363 Ho360 2.811 . S
C363 C364 1.488 . S
C363 O382 1.215 . S
C363 O383 1.289 . S
C364 C363 1.488 . S
C364 C365 1.348 . S
C364 C369 1.413 . S
C365 C364 1.348 . S
C365 C366 1.442 . S
C365 H392 0.930 . S
C366 C365 1.442 . S
C366 C367 1.381 . S
C366 H393 0.931 . S
C367 C366 1.381 . S
C367 C368 1.321 . S
C368 C367 1.321 . S
C368 C369 1.403 . S
C368 H394 0.934 . S
C369 C364 1.413 . S
C369 C368 1.403 . S
C369 H395 0.930 . S
C370 O384 1.275 . S
C370 O385 1.256 . S
C371 O386 1.259 . S
C371 O387 1.268 . S
C372 Ho361 2.811 . S
C372 C373 1.488 . S
C372 O388 1.215 . S
C372 O389 1.289 . S
C373 C372 1.488 . S
C373 C374 1.348 . S
C373 C378 1.413 . S
C374 C373 1.348 . S
C374 C375 1.442 . S
C374 H396 0.930 . S
C375 C374 1.442 . S
C375 C376 1.381 . S
C375 H397 0.931 . S
C376 C375 1.381 . S
C376 C377 1.321 . S
C377 C376 1.321 . S
C377 C378 1.403 . S
C377 H398 0.934 . S
C378 C373 1.413 . S
C378 C377 1.403 . S
C378 H399 0.930 . S
C379 O390 1.275 . S
C379 O391 1.256 . S
O380 Ho360 2.322 1_545 S
O380 C362 1.259 . S
O381 Ho361 2.346 . S
O381 C362 1.268 . S
O382 Ho360 2.378 . S
O382 C363 1.215 . S
O383 Ho360 2.524 . S
O383 C363 1.289 . S
O384 Ho360 2.381 1_545 S
O384 C370 1.275 . S
O385 Ho360 2.669 1_545 S
O385 Ho361 2.305 . S
O385 C370 1.256 . S
O386 Ho361 2.322 1_565 S
O386 C371 1.259 . S
O387 Ho360 2.346 . S
O387 C371 1.268 . S
O388 Ho361 2.378 . S
O388 C372 1.215 . S
O389 Ho361 2.524 . S
O389 C372 1.289 . S
O390 Ho361 2.381 1_565 S
O390 C379 1.275 . S
O391 Ho360 2.305 . S
O391 Ho361 2.669 1_565 S
O391 C379 1.256 . S
H392 C365 0.930 . S
H393 C366 0.931 . S
H394 C368 0.934 . S
H395 C369 0.930 . S
H396 C374 0.930 . S
H397 C375 0.931 . S
H398 C377 0.934 . S
H399 C378 0.930 . S
Ho400 C403 2.811 . S
Ho400 O420 2.322 . S
Ho400 O422 2.378 . S
Ho400 O423 2.524 . S
Ho400 O424 2.381 . S
Ho400 O425 2.669 . S
Ho400 O427 2.346 1_565 S
Ho400 O431 2.305 1_565 S
Ho401 C412 2.811 . S
Ho401 O421 2.346 1_545 S
Ho401 O425 2.305 1_545 S
Ho401 O426 2.322 . S
Ho401 O428 2.378 . S
Ho401 O429 2.524 . S
Ho401 O430 2.381 . S
Ho401 O431 2.669 . S
C402 O420 1.259 . S
C402 O421 1.268 . S
C403 Ho400 2.811 . S
C403 C404 1.488 . S
C403 O422 1.215 . S
C403 O423 1.289 . S
C404 C403 1.488 . S
C404 C405 1.348 . S
C404 C409 1.413 . S
C405 C404 1.348 . S
C405 C406 1.442 . S
C405 H432 0.930 . S
C406 C405 1.442 . S
C406 C407 1.381 . S
C406 H433 0.931 . S
C407 C406 1.381 . S
C407 C408 1.321 . S
C408 C407 1.321 . S
C408 C409 1.403 . S
C408 H434 0.934 . S
C409 C404 1.413 . S
C409 C408 1.403 . S
C409 H435 0.930 . S
C410 O424 1.275 . S
C410 O425 1.256 . S
C411 O426 1.259 . S
C411 O427 1.268 . S
C412 Ho401 2.811 . S
C412 C413 1.488 . S
C412 O428 1.215 . S
C412 O429 1.289 . S
C413 C412 1.488 . S
C413 C414 1.348 . S
C413 C418 1.413 . S
C414 C413 1.348 . S
C414 C415 1.442 . S
C414 H436 0.930 . S
C415 C414 1.442 . S
C415 C416 1.381 . S
C415 H437 0.931 . S
C416 C415 1.381 . S
C416 C417 1.321 . S
C417 C416 1.321 . S
C417 C418 1.403 . S
C417 H438 0.934 . S
C418 C413 1.413 . S
C418 C417 1.403 . S
C418 H439 0.930 . S
C419 O430 1.275 . S
C419 O431 1.256 . S
O420 Ho400 2.322 . S
O420 C402 1.259 . S
O421 Ho401 2.346 1_565 S
O421 C402 1.268 . S
O422 Ho400 2.378 . S
O422 C403 1.215 . S
O423 Ho400 2.524 . S
O423 C403 1.289 . S
O424 Ho400 2.381 . S
O424 C410 1.275 . S
O425 Ho400 2.669 . S
O425 Ho401 2.305 1_565 S
O425 C410 1.256 . S
O426 Ho401 2.322 . S
O426 C411 1.259 . S
O427 Ho400 2.346 1_545 S
O427 C411 1.268 . S
O428 Ho401 2.378 . S
O428 C412 1.215 . S
O429 Ho401 2.524 . S
O429 C412 1.289 . S
O430 Ho401 2.381 . S
O430 C419 1.275 . S
O431 Ho400 2.305 1_545 S
O431 Ho401 2.669 . S
O431 C419 1.256 . S
H432 C405 0.930 . S
H433 C406 0.931 . S
H434 C408 0.934 . S
H435 C409 0.930 . S
H436 C414 0.930 . S
H437 C415 0.931 . S
H438 C417 0.934 . S
H439 C418 0.930 . S
Ho440 C443 2.811 . S
Ho440 O460 2.322 . S
Ho440 O462 2.378 . S
Ho440 O463 2.524 . S
Ho440 O464 2.381 . S
Ho440 O465 2.669 . S
Ho440 O467 2.346 . S
Ho440 O471 2.305 . S
Ho441 C452 2.811 . S
Ho441 O461 2.346 . S
Ho441 O465 2.305 . S
Ho441 O466 2.322 . S
Ho441 O468 2.378 . S
Ho441 O469 2.524 . S
Ho441 O470 2.381 . S
Ho441 O471 2.669 . S
C442 O460 1.259 . S
C442 O461 1.268 . S
C443 Ho440 2.811 . S
C443 C444 1.488 . S
C443 O462 1.215 . S
C443 O463 1.289 . S
C444 C443 1.488 . S
C444 C445 1.348 . S
C444 C449 1.413 . S
C445 C444 1.348 . S
C445 C446 1.442 . S
C445 H472 0.930 . S
C446 C445 1.442 . S
C446 C447 1.381 . S
C446 H473 0.931 . S
C447 C446 1.381 . S
C447 C448 1.321 . S
C448 C447 1.321 . S
C448 C449 1.403 . S
C448 H474 0.934 . S
C449 C444 1.413 . S
C449 C448 1.403 . S
C449 H475 0.930 . S
C450 O464 1.275 . S
C450 O465 1.256 . S
C451 O466 1.259 . S
C451 O467 1.268 . S
C452 Ho441 2.811 . S
C452 C453 1.488 . S
C452 O468 1.215 . S
C452 O469 1.289 . S
C453 C452 1.488 . S
C453 C454 1.348 . S
C453 C458 1.413 . S
C454 C453 1.348 . S
C454 C455 1.442 . S
C454 H476 0.930 . S
C455 C454 1.442 . S
C455 C456 1.381 . S
C455 H477 0.931 . S
C456 C455 1.381 . S
C456 C457 1.321 . S
C457 C456 1.321 . S
C457 C458 1.403 . S
C457 H478 0.934 . S
C458 C453 1.413 . S
C458 C457 1.403 . S
C458 H479 0.930 . S
C459 O470 1.275 . S
C459 O471 1.256 . S
O460 Ho440 2.322 . S
O460 C442 1.259 . S
O461 Ho441 2.346 . S
O461 C442 1.268 . S
O462 Ho440 2.378 . S
O462 C443 1.215 . S
O463 Ho440 2.524 . S
O463 C443 1.289 . S
O464 Ho440 2.381 . S
O464 C450 1.275 . S
O465 Ho440 2.669 . S
O465 Ho441 2.305 . S
O465 C450 1.256 . S
O466 Ho441 2.322 . S
O466 C451 1.259 . S
O467 Ho440 2.346 . S
O467 C451 1.268 . S
O468 Ho441 2.378 . S
O468 C452 1.215 . S
O469 Ho441 2.524 . S
O469 C452 1.289 . S
O470 Ho441 2.381 . S
O470 C459 1.275 . S
O471 Ho440 2.305 . S
O471 Ho441 2.669 . S
O471 C459 1.256 . S
H472 C445 0.930 . S
H473 C446 0.931 . S
H474 C448 0.934 . S
H475 C449 0.930 . S
H476 C454 0.930 . S
H477 C455 0.931 . S
H478 C457 0.934 . S
H479 C458 0.930 . S
H480 C492 0.930 . S
H481 C494 0.930 . S
H482 C495 0.930 . S
H483 C499 0.959 . S
H484 C499 0.959 . S
H485 C499 0.961 . S
H486 C500 0.960 . S
H487 C500 0.961 . S
H488 C500 0.959 . S
H489 C503 0.929 . S
H490 C504 0.931 . S
H491 C506 0.930 . S
C492 H480 0.930 . S
C492 C493 1.399 . S
C492 C497 1.399 . S
C493 C492 1.399 . S
C493 C494 1.376 . S
C494 H481 0.930 . S
C494 C493 1.376 . S
C494 C495 1.388 . S
C495 H482 0.930 . S
C495 C494 1.388 . S
C495 C496 1.390 . S
C496 C495 1.390 . S
C496 C497 1.394 . S
C496 C502 1.465 . S
C497 C492 1.399 . S
C497 C496 1.394 . S
C497 C498 1.516 . S
C498 C497 1.516 . S
C498 C499 1.502 . S
C498 C500 1.561 . S
C498 C501 1.526 . S
C499 H483 0.959 . S
C499 H484 0.959 . S
C499 H485 0.961 . S
C499 C498 1.502 . S
C500 H486 0.960 . S
C500 H487 0.961 . S
C500 H488 0.959 . S
C500 C498 1.561 . S
C501 C498 1.526 . S
C501 C502 1.396 . S
C501 C506 1.390 . S
C502 C496 1.465 . S
C502 C501 1.396 . S
C502 C503 1.399 . S
C503 H489 0.929 . S
C503 C502 1.399 . S
C503 C504 1.385 . S
C504 H490 0.931 . S
C504 C503 1.385 . S
C504 C505 1.389 . S
C505 C504 1.389 . S
C505 C506 1.387 . S
C506 H491 0.930 . S
C506 C501 1.390 . S
C506 C505 1.387 . S
H507 C519 0.930 1_545 S
H508 C521 0.930 . S
H509 C522 0.930 . S
H510 C526 0.959 . S
H511 C526 0.959 1_545 S
H512 C526 0.961 1_545 S
H513 C527 0.960 . S
H514 C527 0.961 . S
H515 C527 0.959 . S
H516 C530 0.929 . S
H517 C531 0.931 . S
H518 C533 0.930 . S
C519 H507 0.930 1_565 S
C519 C520 1.399 . S
C519 C524 1.399 . S
C520 C519 1.399 . S
C520 C521 1.376 . S
C521 H508 0.930 . S
C521 C520 1.376 . S
C521 C522 1.388 . S
C522 H509 0.930 . S
C522 C521 1.388 . S
C522 C523 1.390 . S
C523 C522 1.390 . S
C523 C524 1.394 . S
C523 C529 1.465 . S
C524 C519 1.399 . S
C524 C523 1.394 . S
C524 C525 1.516 . S
C525 C524 1.516 . S
C525 C526 1.502 . S
C525 C527 1.561 1_565 S
C525 C528 1.526 . S
C526 H510 0.959 . S
C526 H511 0.959 1_565 S
C526 H512 0.961 1_565 S
C526 C525 1.502 . S
C527 H513 0.960 . S
C527 H514 0.961 . S
C527 H515 0.959 . S
C527 C525 1.561 1_545 S
C528 C525 1.526 . S
C528 C529 1.396 . S
C528 C533 1.390 . S
C529 C523 1.465 . S
C529 C528 1.396 . S
C529 C530 1.399 . S
C530 H516 0.929 . S
C530 C529 1.399 . S
C530 C531 1.385 . S
C531 H517 0.931 . S
C531 C530 1.385 . S
C531 C532 1.389 . S
C532 C531 1.389 . S
C532 C533 1.387 . S
C533 H518 0.930 . S
C533 C528 1.390 . S
C533 C532 1.387 . S
H534 C546 0.930 1_556 S
H535 C548 0.930 . S
H536 C549 0.930 . S
H537 C553 0.959 . S
H538 C553 0.959 . S
H539 C553 0.961 . S
H540 C554 0.960 . S
H541 C554 0.961 . S
H542 C554 0.959 . S
H543 C557 0.929 . S
H544 C558 0.931 . S
H545 C560 0.930 . S
C546 H534 0.930 1_554 S
C546 C547 1.399 . S
C546 C551 1.399 . S
C547 C546 1.399 . S
C547 C548 1.376 . S
C548 H535 0.930 . S
C548 C547 1.376 . S
C548 C549 1.388 . S
C549 H536 0.930 . S
C549 C548 1.388 . S
C549 C550 1.390 . S
C550 C549 1.390 . S
C550 C551 1.394 . S
C550 C556 1.465 . S
C551 C546 1.399 . S
C551 C550 1.394 . S
C551 C552 1.516 . S
C552 C551 1.516 . S
C552 C553 1.502 1_554 S
C552 C554 1.561 . S
C552 C555 1.526 . S
C553 H537 0.959 . S
C553 H538 0.959 . S
C553 H539 0.961 . S
C553 C552 1.502 1_556 S
C554 H540 0.960 . S
C554 H541 0.961 . S
C554 H542 0.959 . S
C554 C552 1.561 . S
C555 C552 1.526 . S
C555 C556 1.396 . S
C555 C560 1.390 . S
C556 C550 1.465 . S
C556 C555 1.396 . S
C556 C557 1.399 . S
C557 H543 0.929 . S
C557 C556 1.399 . S
C557 C558 1.385 . S
C558 H544 0.931 . S
C558 C557 1.385 . S
C558 C559 1.389 . S
C559 C558 1.389 . S
C559 C560 1.387 . S
C560 H545 0.930 . S
C560 C555 1.390 . S
C560 C559 1.387 . S
H561 C573 0.930 . S
H562 C575 0.930 . S
H563 C576 0.930 . S
H564 C580 0.959 . S
H565 C580 0.959 . S
H566 C580 0.961 . S
H567 C581 0.960 . S
H568 C581 0.961 . S
H569 C581 0.959 . S
H570 C584 0.929 . S
H571 C585 0.931 . S
H572 C587 0.930 . S
C573 H561 0.930 . S
C573 C574 1.399 . S
C573 C578 1.399 . S
C574 C573 1.399 . S
C574 C575 1.376 . S
C575 H562 0.930 . S
C575 C574 1.376 . S
C575 C576 1.388 . S
C576 H563 0.930 . S
C576 C575 1.388 . S
C576 C577 1.390 . S
C577 C576 1.390 . S
C577 C578 1.394 . S
C577 C583 1.465 . S
C578 C573 1.399 . S
C578 C577 1.394 . S
C578 C579 1.516 . S
C579 C578 1.516 . S
C579 C580 1.502 . S
C579 C581 1.561 . S
C579 C582 1.526 . S
C580 H564 0.959 . S
C580 H565 0.959 . S
C580 H566 0.961 . S
C580 C579 1.502 . S
C581 H567 0.960 . S
C581 H568 0.961 . S
C581 H569 0.959 . S
C581 C579 1.561 . S
C582 C579 1.526 . S
C582 C583 1.396 . S
C582 C587 1.390 . S
C583 C577 1.465 . S
C583 C582 1.396 . S
C583 C584 1.399 . S
C584 H570 0.929 . S
C584 C583 1.399 . S
C584 C585 1.385 . S
C585 H571 0.931 . S
C585 C584 1.385 . S
C585 C586 1.389 . S
C586 C585 1.389 . S
C586 C587 1.387 . S
C587 H572 0.930 . S
C587 C582 1.390 . S
C587 C586 1.387 . S
H588 C600 0.930 . S
H589 C602 0.930 . S
H590 C603 0.930 . S
H591 C607 0.959 . S
H592 C607 0.959 . S
H593 C607 0.961 . S
H594 C608 0.960 . S
H595 C608 0.961 . S
H596 C608 0.959 . S
H597 C611 0.929 . S
H598 C612 0.931 . S
H599 C614 0.930 . S
C600 H588 0.930 . S
C600 C601 1.399 . S
C600 C605 1.399 . S
C601 C600 1.399 . S
C601 C602 1.376 . S
C602 H589 0.930 . S
C602 C601 1.376 . S
C602 C603 1.388 . S
C603 H590 0.930 . S
C603 C602 1.388 . S
C603 C604 1.390 . S
C604 C603 1.390 . S
C604 C605 1.394 . S
C604 C610 1.465 . S
C605 C600 1.399 . S
C605 C604 1.394 . S
C605 C606 1.516 . S
C606 C605 1.516 . S
C606 C607 1.502 . S
C606 C608 1.561 . S
C606 C609 1.526 . S
C607 H591 0.959 . S
C607 H592 0.959 . S
C607 H593 0.961 . S
C607 C606 1.502 . S
C608 H594 0.960 . S
C608 H595 0.961 . S
C608 H596 0.959 . S
C608 C606 1.561 . S
C609 C606 1.526 . S
C609 C610 1.396 . S
C609 C614 1.390 . S
C610 C604 1.465 . S
C610 C609 1.396 . S
C610 C611 1.399 . S
C611 H597 0.929 . S
C611 C610 1.399 . S
C611 C612 1.385 . S
C612 H598 0.931 . S
C612 C611 1.385 . S
C612 C613 1.389 . S
C613 C612 1.389 . S
C613 C614 1.387 . S
C614 H599 0.930 . S
C614 C609 1.390 . S
C614 C613 1.387 . S
H615 C627 0.930 . S
H616 C629 0.930 . S
H617 C630 0.930 . S
H618 C634 0.959 . S
H619 C634 0.959 . S
H620 C634 0.961 . S
H621 C635 0.960 . S
H622 C635 0.961 . S
H623 C635 0.959 . S
H624 C638 0.929 . S
H625 C639 0.931 . S
H626 C641 0.930 . S
C627 H615 0.930 . S
C627 C628 1.399 . S
C627 C632 1.399 . S
C628 C627 1.399 . S
C628 C629 1.376 . S
C629 H616 0.930 . S
C629 C628 1.376 . S
C629 C630 1.388 . S
C630 H617 0.930 . S
C630 C629 1.388 . S
C630 C631 1.390 . S
C631 C630 1.390 . S
C631 C632 1.394 . S
C631 C637 1.465 . S
C632 C627 1.399 . S
C632 C631 1.394 . S
C632 C633 1.516 . S
C633 C632 1.516 . S
C633 C634 1.502 . S
C633 C635 1.561 . S
C633 C636 1.526 . S
C634 H618 0.959 . S
C634 H619 0.959 . S
C634 H620 0.961 . S
C634 C633 1.502 . S
C635 H621 0.960 . S
C635 H622 0.961 . S
C635 H623 0.959 . S
C635 C633 1.561 . S
C636 C633 1.526 . S
C636 C637 1.396 . S
C636 C641 1.390 . S
C637 C631 1.465 . S
C637 C636 1.396 . S
C637 C638 1.399 . S
C638 H624 0.929 . S
C638 C637 1.399 . S
C638 C639 1.385 . S
C639 H625 0.931 . S
C639 C638 1.385 . S
C639 C640 1.389 . S
C640 C639 1.389 . S
C640 C641 1.387 . S
C641 H626 0.930 . S
C641 C636 1.390 . S
C641 C640 1.387 . S
H642 C654 0.930 . S
H643 C656 0.930 . S
H644 C657 0.930 . S
H645 C661 0.959 1_556 S
H646 C661 0.959 . S
H647 C661 0.961 . S
H648 C662 0.954 1_554 S
H649 C662 0.941 1_554 S
H650 C662 0.974 . S
H651 C665 0.929 . S
H652 C666 0.931 . S
H653 C668 0.930 1_554 S
C654 H642 0.930 . S
C654 C655 1.399 . S
C654 C659 1.399 . S
C655 C654 1.399 . S
C655 C656 1.376 . S
C656 H643 0.930 . S
C656 C655 1.376 . S
C656 C657 1.388 . S
C657 H644 0.930 . S
C657 C656 1.388 . S
C657 C658 1.390 . S
C658 C657 1.390 . S
C658 C659 1.394 . S
C658 C664 1.465 . S
C659 C654 1.399 . S
C659 C658 1.394 . S
C659 C660 1.516 . S
C660 C659 1.516 . S
C660 C661 1.502 1_556 S
C660 C662 1.572 . S
C660 C663 1.526 . S
C661 H645 0.959 1_554 S
C661 H646 0.959 . S
C661 H647 0.961 . S
C661 C660 1.502 1_554 S
C662 H648 0.954 1_556 S
C662 H649 0.941 1_556 S
C662 H650 0.974 . S
C662 C660 1.572 . S
C663 C660 1.526 . S
C663 C664 1.396 . S
C663 C668 1.390 . S
C664 C658 1.465 . S
C664 C663 1.396 . S
C664 C665 1.399 . S
C665 H651 0.929 . S
C665 C664 1.399 . S
C665 C666 1.385 . S
C666 H652 0.931 . S
C666 C665 1.385 . S
C666 C667 1.389 . S
C667 C666 1.389 . S
C667 C668 1.387 . S
C668 H653 0.930 1_556 S
C668 C663 1.390 . S
C668 C667 1.387 . S
H669 C681 0.930 . S
H670 C683 0.930 . S
H671 C684 0.930 . S
H672 C688 0.959 . S
H673 C688 0.959 . S
H674 C688 0.961 . S
H675 C689 0.960 . S
H676 C689 0.961 . S
H677 C689 0.959 . S
H678 C692 0.929 . S
H679 C693 0.931 . S
H680 C695 0.930 . S
C681 H669 0.930 . S
C681 C682 1.399 . S
C681 C686 1.399 . S
C682 C681 1.399 . S
C682 C683 1.376 . S
C683 H670 0.930 . S
C683 C682 1.376 . S
C683 C684 1.388 . S
C684 H671 0.930 . S
C684 C683 1.388 . S
C684 C685 1.390 . S
C685 C684 1.390 . S
C685 C686 1.394 . S
C685 C691 1.465 . S
C686 C681 1.399 . S
C686 C685 1.394 . S
C686 C687 1.516 . S
C687 C686 1.516 . S
C687 C688 1.502 . S
C687 C689 1.561 . S
C687 C690 1.526 . S
C688 H672 0.959 . S
C688 H673 0.959 . S
C688 H674 0.961 . S
C688 C687 1.502 . S
C689 H675 0.960 . S
C689 H676 0.961 . S
C689 H677 0.959 . S
C689 C687 1.561 . S
C690 C687 1.526 . S
C690 C691 1.396 . S
C690 C695 1.390 . S
C691 C685 1.465 . S
C691 C690 1.396 . S
C691 C692 1.399 . S
C692 H678 0.929 . S
C692 C691 1.399 . S
C692 C693 1.385 . S
C693 H679 0.931 . S
C693 C692 1.385 . S
C693 C694 1.389 . S
C694 C693 1.389 . S
C694 C695 1.387 . S
C695 H680 0.930 . S
C695 C690 1.390 . S
C695 C694 1.387 . S
H696 C708 0.930 . S
H697 C710 0.930 . S
H698 C711 0.930 . S
H699 C715 0.959 . S
H700 C715 0.959 . S
H701 C715 0.961 . S
H702 C716 0.960 . S
H703 C716 0.961 . S
H704 C716 0.959 . S
H705 C719 0.929 . S
H706 C720 0.931 . S
H707 C722 0.930 . S
C708 H696 0.930 . S
C708 C709 1.399 . S
C708 C713 1.399 . S
C709 C708 1.399 . S
C709 C710 1.376 . S
C710 H697 0.930 . S
C710 C709 1.376 . S
C710 C711 1.388 . S
C711 H698 0.930 . S
C711 C710 1.388 . S
C711 C712 1.390 . S
C712 C711 1.390 . S
C712 C713 1.394 . S
C712 C718 1.465 . S
C713 C708 1.399 . S
C713 C712 1.394 . S
C713 C714 1.516 . S
C714 C713 1.516 . S
C714 C715 1.502 . S
C714 C716 1.561 . S
C714 C717 1.526 . S
C715 H699 0.959 . S
C715 H700 0.959 . S
C715 H701 0.961 . S
C715 C714 1.502 . S
C716 H702 0.960 . S
C716 H703 0.961 . S
C716 H704 0.959 . S
C716 C714 1.561 . S
C717 C714 1.526 . S
C717 C718 1.396 . S
C717 C722 1.390 . S
C718 C712 1.465 . S
C718 C717 1.396 . S
C718 C719 1.399 . S
C719 H705 0.929 . S
C719 C718 1.399 . S
C719 C720 1.385 . S
C720 H706 0.931 . S
C720 C719 1.385 . S
C720 C721 1.389 . S
C721 C720 1.389 . S
C721 C722 1.387 . S
C722 H707 0.930 . S
C722 C717 1.390 . S
C722 C721 1.387 . S
H723 C735 0.930 . S
H724 C737 0.930 . S
H725 C738 0.930 . S
H726 C742 0.956 1_655 S
H727 C742 0.957 1_655 S
H728 C742 0.959 1_655 S
H729 C743 0.960 . S
H730 C743 0.961 . S
H731 C743 0.959 . S
H732 C746 0.929 . S
H733 C747 0.931 . S
H734 C749 0.930 . S
C735 H723 0.930 . S
C735 C736 1.399 . S
C735 C740 1.399 . S
C736 C735 1.399 . S
C736 C737 1.376 . S
C737 H724 0.930 . S
C737 C736 1.376 . S
C737 C738 1.388 . S
C738 H725 0.930 . S
C738 C737 1.388 . S
C738 C739 1.390 . S
C739 C738 1.390 . S
C739 C740 1.394 . S
C739 C745 1.465 . S
C740 C735 1.399 . S
C740 C739 1.394 . S
C740 C741 1.516 . S
C741 C740 1.516 . S
C741 C742 1.508 . S
C741 C743 1.561 . S
C741 C744 1.526 . S
C742 H726 0.956 1_455 S
C742 H727 0.957 1_455 S
C742 H728 0.959 1_455 S
C742 C741 1.508 . S
C743 H729 0.960 . S
C743 H730 0.961 . S
C743 H731 0.959 . S
C743 C741 1.561 . S
C744 C741 1.526 . S
C744 C745 1.396 . S
C744 C749 1.390 . S
C745 C739 1.465 . S
C745 C744 1.396 . S
C745 C746 1.399 . S
C746 H732 0.929 . S
C746 C745 1.399 . S
C746 C747 1.385 . S
C747 H733 0.931 . S
C747 C746 1.385 . S
C747 C748 1.389 . S
C748 C747 1.389 . S
C748 C749 1.387 . S
C749 H734 0.930 . S
C749 C744 1.390 . S
C749 C748 1.387 . S
H750 C762 0.930 . S
H751 C764 0.930 . S
H752 C765 0.930 . S
H753 C769 0.959 . S
H754 C769 0.959 . S
H755 C769 0.961 . S
H756 C770 0.960 . S
H757 C770 0.961 . S
H758 C770 0.959 . S
H759 C773 0.929 . S
H760 C774 0.931 . S
H761 C776 0.930 . S
C762 H750 0.930 . S
C762 C763 1.399 . S
C762 C767 1.399 . S
C763 C762 1.399 . S
C763 C764 1.376 1_655 S
C764 H751 0.930 . S
C764 C763 1.376 1_455 S
C764 C765 1.388 . S
C765 H752 0.930 . S
C765 C764 1.388 . S
C765 C766 1.390 1_455 S
C766 C765 1.390 1_655 S
C766 C767 1.394 . S
C766 C772 1.465 . S
C767 C762 1.399 . S
C767 C766 1.394 . S
C767 C768 1.516 . S
C768 C767 1.516 . S
C768 C769 1.502 . S
C768 C770 1.561 . S
C768 C771 1.526 . S
C769 H753 0.959 . S
C769 H754 0.959 . S
C769 H755 0.961 . S
C769 C768 1.502 . S
C770 H756 0.960 . S
C770 H757 0.961 . S
C770 H758 0.959 . S
C770 C768 1.561 . S
C771 C768 1.526 . S
C771 C772 1.396 . S
C771 C776 1.390 . S
C772 C766 1.465 . S
C772 C771 1.396 . S
C772 C773 1.399 . S
C773 H759 0.929 . S
C773 C772 1.399 . S
C773 C774 1.385 . S
C774 H760 0.931 . S
C774 C773 1.385 . S
C774 C775 1.389 . S
C775 C774 1.389 . S
C775 C776 1.387 . S
C776 H761 0.930 . S
C776 C771 1.390 . S
C776 C775 1.387 . S
H777 C789 0.930 . S
H778 C791 0.930 . S
H779 C792 0.930 . S
H780 C796 0.959 . S
H781 C796 0.959 . S
H782 C796 0.961 . S
H783 C797 0.960 . S
H784 C797 0.961 . S
H785 C797 0.959 . S
H786 C800 0.929 . S
H787 C801 0.931 . S
H788 C803 0.930 . S
C789 H777 0.930 . S
C789 C790 1.399 . S
C789 C794 1.399 . S
C790 C789 1.399 . S
C790 C791 1.376 . S
C791 H778 0.930 . S
C791 C790 1.376 . S
C791 C792 1.388 . S
C792 H779 0.930 . S
C792 C791 1.388 . S
C792 C793 1.390 . S
C793 C792 1.390 . S
C793 C794 1.394 . S
C793 C799 1.465 . S
C794 C789 1.399 . S
C794 C793 1.394 . S
C794 C795 1.516 . S
C795 C794 1.516 . S
C795 C796 1.502 . S
C795 C797 1.561 . S
C795 C798 1.526 . S
C796 H780 0.959 . S
C796 H781 0.959 . S
C796 H782 0.961 . S
C796 C795 1.502 . S
C797 H783 0.960 . S
C797 H784 0.961 . S
C797 H785 0.959 . S
C797 C795 1.561 . S
C798 C795 1.526 . S
C798 C799 1.396 . S
C798 C803 1.390 . S
C799 C793 1.465 . S
C799 C798 1.396 . S
C799 C800 1.399 . S
C800 H786 0.929 . S
C800 C799 1.399 . S
C800 C801 1.385 . S
C801 H787 0.931 . S
C801 C800 1.385 . S
C801 C802 1.389 . S
C802 C801 1.389 . S
C802 C803 1.387 . S
C803 H788 0.930 . S
C803 C798 1.390 . S
C803 C802 1.387 . S
H804 C816 0.930 . S
H805 C818 0.930 . S
H806 C819 0.930 . S
H807 C823 0.959 . S
H808 C823 0.959 . S
H809 C823 0.961 . S
H810 C824 0.960 . S
H811 C824 0.961 . S
H812 C824 0.959 . S
H813 C827 0.929 . S
H814 C828 0.931 . S
H815 C830 0.930 . S
C816 H804 0.930 . S
C816 C817 1.399 . S
C816 C821 1.399 . S
C817 C816 1.399 . S
C817 C818 1.376 . S
C818 H805 0.930 . S
C818 C817 1.376 . S
C818 C819 1.388 . S
C819 H806 0.930 . S
C819 C818 1.388 . S
C819 C820 1.390 . S
C820 C819 1.390 . S
C820 C821 1.394 . S
C820 C826 1.465 . S
C821 C816 1.399 . S
C821 C820 1.394 . S
C821 C822 1.516 . S
C822 C821 1.516 . S
C822 C823 1.502 . S
C822 C824 1.561 . S
C822 C825 1.526 . S
C823 H807 0.959 . S
C823 H808 0.959 . S
C823 H809 0.961 . S
C823 C822 1.502 . S
C824 H810 0.960 . S
C824 H811 0.961 . S
C824 H812 0.959 . S
C824 C822 1.561 . S
C825 C822 1.526 . S
C825 C826 1.396 . S
C825 C830 1.390 . S
C826 C820 1.465 . S
C826 C825 1.396 . S
C826 C827 1.399 . S
C827 H813 0.929 . S
C827 C826 1.399 . S
C827 C828 1.385 . S
C828 H814 0.931 . S
C828 C827 1.385 . S
C828 C829 1.389 . S
C829 C828 1.389 . S
C829 C830 1.387 . S
C830 H815 0.930 . S
C830 C825 1.390 . S
C830 C829 1.387 . S
H831 C843 0.930 . S
H832 C845 0.930 . S
H833 C846 0.930 . S
H834 C850 0.959 . S
H835 C850 0.959 . S
H836 C850 0.961 . S
H837 C851 0.960 . S
H838 C851 0.961 . S
H839 C851 0.959 . S
H840 C854 0.929 1_545 S
H841 C855 0.931 1_545 S
H842 C857 0.930 . S
C843 H831 0.930 . S
C843 C844 1.399 . S
C843 C848 1.399 . S
C844 C843 1.399 . S
C844 C845 1.376 . S
C845 H832 0.930 . S
C845 C844 1.376 . S
C845 C846 1.388 . S
C846 H833 0.930 . S
C846 C845 1.388 . S
C846 C847 1.390 . S
C847 C846 1.390 . S
C847 C848 1.394 . S
C847 C853 1.465 . S
C848 C843 1.399 . S
C848 C847 1.394 . S
C848 C849 1.516 . S
C849 C848 1.516 . S
C849 C850 1.502 . S
C849 C851 1.561 . S
C849 C852 1.526 . S
C850 H834 0.959 . S
C850 H835 0.959 . S
C850 H836 0.961 . S
C850 C849 1.502 . S
C851 H837 0.960 . S
C851 H838 0.961 . S
C851 H839 0.959 . S
C851 C849 1.561 . S
C852 C849 1.526 . S
C852 C853 1.396 . S
C852 C857 1.390 . S
C853 C847 1.465 . S
C853 C852 1.396 . S
C853 C854 1.399 . S
C854 H840 0.929 1_565 S
C854 C853 1.399 . S
C854 C855 1.385 . S
C855 H841 0.931 1_565 S
C855 C854 1.385 . S
C855 C856 1.389 . S
C856 C855 1.389 . S
C856 C857 1.387 . S
C857 H842 0.930 . S
C857 C852 1.390 . S
C857 C856 1.387 . S
H858 C870 0.930 . S
H859 C872 0.930 . S
H860 C873 0.930 . S
H861 C877 0.959 . S
H862 C877 0.959 . S
H863 C877 0.961 . S
H864 C878 0.960 . S
H865 C878 0.961 . S
H866 C878 0.959 . S
H867 C881 0.929 . S
H868 C882 0.931 . S
H869 C884 0.930 . S
C870 H858 0.930 . S
C870 C871 1.399 . S
C870 C875 1.399 . S
C871 C870 1.399 . S
C871 C872 1.376 . S
C872 H859 0.930 . S
C872 C871 1.376 . S
C872 C873 1.388 . S
C873 H860 0.930 . S
C873 C872 1.388 . S
C873 C874 1.390 . S
C874 C873 1.390 . S
C874 C875 1.394 . S
C874 C880 1.465 . S
C875 C870 1.399 . S
C875 C874 1.394 . S
C875 C876 1.516 . S
C876 C875 1.516 . S
C876 C877 1.502 . S
C876 C878 1.561 . S
C876 C879 1.526 . S
C877 H861 0.959 . S
C877 H862 0.959 . S
C877 H863 0.961 . S
C877 C876 1.502 . S
C878 H864 0.960 . S
C878 H865 0.961 . S
C878 H866 0.959 . S
C878 C876 1.561 . S
C879 C876 1.526 . S
C879 C880 1.396 . S
C879 C884 1.390 . S
C880 C874 1.465 . S
C880 C879 1.396 . S
C880 C881 1.399 . S
C881 H867 0.929 . S
C881 C880 1.399 . S
C881 C882 1.385 . S
C882 H868 0.931 . S
C882 C881 1.385 . S
C882 C883 1.389 . S
C883 C882 1.389 . S
C883 C884 1.387 . S
C884 H869 0.930 . S
C884 C879 1.390 . S
C884 C883 1.387 . S
H885 C897 0.930 . S
H886 C899 0.930 . S
H887 C900 0.930 . S
H888 C904 0.959 . S
H889 C904 0.959 . S
H890 C904 0.961 . S
H891 C905 0.960 . S
H892 C905 0.961 . S
H893 C905 0.959 . S
H894 C908 0.929 1_564 S
H895 C909 0.931 1_565 S
H896 C911 0.930 . S
C897 H885 0.930 . S
C897 C898 1.399 . S
C897 C902 1.399 . S
C898 C897 1.399 . S
C898 C899 1.376 . S
C899 H886 0.930 . S
C899 C898 1.376 . S
C899 C900 1.388 . S
C900 H887 0.930 . S
C900 C899 1.388 . S
C900 C901 1.390 . S
C901 C900 1.390 . S
C901 C902 1.394 . S
C901 C907 1.465 1_554 S
C902 C897 1.399 . S
C902 C901 1.394 . S
C902 C903 1.516 1_554 S
C903 C902 1.516 1_556 S
C903 C904 1.502 . S
C903 C905 1.561 . S
C903 C906 1.526 . S
C904 H888 0.959 . S
C904 H889 0.959 . S
C904 H890 0.961 . S
C904 C903 1.502 . S
C905 H891 0.960 . S
C905 H892 0.961 . S
C905 H893 0.959 . S
C905 C903 1.561 . S
C906 C903 1.526 . S
C906 C907 1.396 . S
C906 C911 1.390 . S
C907 C901 1.465 1_556 S
C907 C906 1.396 . S
C907 C908 1.399 . S
C908 H894 0.929 1_546 S
C908 C907 1.399 . S
C908 C909 1.385 . S
C909 H895 0.931 1_545 S
C909 C908 1.385 . S
C909 C910 1.389 . S
C910 C909 1.389 . S
C910 C911 1.387 . S
C911 H896 0.930 . S
C911 C906 1.390 . S
C911 C910 1.387 . S
H912 C924 0.930 . S
H913 C926 0.930 . S
H914 C927 0.930 . S
H915 C931 0.959 . S
H916 C931 0.959 . S
H917 C931 0.961 . S
H918 C932 0.960 . S
H919 C932 0.961 . S
H920 C932 0.959 . S
H921 C935 0.929 . S
H922 C936 0.931 . S
H923 C938 0.930 . S
C924 H912 0.930 . S
C924 C925 1.399 . S
C924 C929 1.399 . S
C925 C924 1.399 . S
C925 C926 1.376 . S
C926 H913 0.930 . S
C926 C925 1.376 . S
C926 C927 1.388 . S
C927 H914 0.930 . S
C927 C926 1.388 . S
C927 C928 1.390 . S
C928 C927 1.390 . S
C928 C929 1.394 . S
C928 C934 1.465 . S
C929 C924 1.399 . S
C929 C928 1.394 . S
C929 C930 1.516 . S
C930 C929 1.516 . S
C930 C931 1.502 . S
C930 C932 1.561 . S
C930 C933 1.526 . S
C931 H915 0.959 . S
C931 H916 0.959 . S
C931 H917 0.961 . S
C931 C930 1.502 . S
C932 H918 0.960 . S
C932 H919 0.961 . S
C932 H920 0.959 . S
C932 C930 1.561 . S
C933 C930 1.526 . S
C933 C934 1.396 . S
C933 C938 1.390 . S
C934 C928 1.465 . S
C934 C933 1.396 . S
C934 C935 1.399 . S
C935 H921 0.929 . S
C935 C934 1.399 . S
C935 C936 1.385 . S
C936 H922 0.931 . S
C936 C935 1.385 . S
C936 C937 1.389 . S
C937 C936 1.389 . S
C937 C938 1.387 . S
C938 H923 0.930 . S
C938 C933 1.390 . S
C938 C937 1.387 . S
H939 C951 0.930 . S
H940 C953 0.930 . S
H941 C954 0.930 . S
H942 C958 0.959 . S
H943 C958 0.959 . S
H944 C958 0.961 . S
H945 C959 0.960 . S
H946 C959 0.961 . S
H947 C959 0.959 . S
H948 C962 0.929 . S
H949 C963 0.931 . S
H950 C965 0.930 . S
C951 H939 0.930 . S
C951 C952 1.399 . S
C951 C956 1.399 1_554 S
C952 C951 1.399 . S
C952 C953 1.376 . S
C953 H940 0.930 . S
C953 C952 1.376 . S
C953 C954 1.388 1_554 S
C954 H941 0.930 . S
C954 C953 1.388 1_556 S
C954 C955 1.390 . S
C955 C954 1.390 . S
C955 C956 1.394 . S
C955 C961 1.465 . S
C956 C951 1.399 1_556 S
C956 C955 1.394 . S
C956 C957 1.516 . S
C957 C956 1.516 . S
C957 C958 1.502 . S
C957 C959 1.561 . S
C957 C960 1.526 . S
C958 H942 0.959 . S
C958 H943 0.959 . S
C958 H944 0.961 . S
C958 C957 1.502 . S
C959 H945 0.960 . S
C959 H946 0.961 . S
C959 H947 0.959 . S
C959 C957 1.561 . S
C960 C957 1.526 . S
C960 C961 1.396 . S
C960 C965 1.390 . S
C961 C955 1.465 . S
C961 C960 1.396 . S
C961 C962 1.399 . S
C962 H948 0.929 . S
C962 C961 1.399 . S
C962 C963 1.385 . S
C963 H949 0.931 . S
C963 C962 1.385 . S
C963 C964 1.389 . S
C964 C963 1.389 . S
C964 C965 1.387 . S
C965 H950 0.930 . S
C965 C960 1.390 . S
C965 C964 1.387 . S
H966 C978 0.930 . S
H967 C980 0.930 . S
H968 C981 0.930 . S
H969 C985 0.959 . S
H970 C985 0.959 . S
H971 C985 0.961 . S
H972 C986 0.960 . S
H973 C986 0.961 . S
H974 C986 0.959 . S
H975 C989 0.929 . S
H976 C990 0.931 . S
H977 C992 0.930 . S
C978 H966 0.930 . S
C978 C979 1.399 . S
C978 C983 1.399 . S
C979 C978 1.399 . S
C979 C980 1.376 . S
C980 H967 0.930 . S
C980 C979 1.376 . S
C980 C981 1.388 . S
C981 H968 0.930 . S
C981 C980 1.388 . S
C981 C982 1.390 . S
C982 C981 1.390 . S
C982 C983 1.394 . S
C982 C988 1.465 . S
C983 C978 1.399 . S
C983 C982 1.394 . S
C983 C984 1.516 . S
C984 C983 1.516 . S
C984 C985 1.502 . S
C984 C986 1.561 . S
C984 C987 1.526 . S
C985 H969 0.959 . S
C985 H970 0.959 . S
C985 H971 0.961 . S
C985 C984 1.502 . S
C986 H972 0.960 . S
C986 H973 0.961 . S
C986 H974 0.959 . S
C986 C984 1.561 . S
C987 C984 1.526 . S
C987 C988 1.396 . S
C987 C992 1.390 . S
C988 C982 1.465 . S
C988 C987 1.396 . S
C988 C989 1.399 . S
C989 H975 0.929 . S
C989 C988 1.399 . S
C989 C990 1.385 . S
C990 H976 0.931 . S
C990 C989 1.385 . S
C990 C991 1.389 . S
C991 C990 1.389 . S
C991 C992 1.387 . S
C992 H977 0.930 . S
C992 C987 1.390 . S
C992 C991 1.387 . S
H993 C1005 0.930 . S
H994 C1007 0.930 . S
H995 C1008 0.930 . S
H996 C1012 0.959 . S
H997 C1012 0.959 . S
H998 C1012 0.961 . S
H999 C1013 0.960 . S
H1000 C1013 0.961 . S
H1001 C1013 0.959 . S
H1002 C1016 0.929 . S
H1003 C1017 0.931 . S
H1004 C1019 0.930 . S
C1005 H993 0.930 . S
C1005 C1006 1.399 . S
C1005 C1010 1.399 . S
C1006 C1005 1.399 . S
C1006 C1007 1.376 . S
C1007 H994 0.930 . S
C1007 C1006 1.376 . S
C1007 C1008 1.388 . S
C1008 H995 0.930 . S
C1008 C1007 1.388 . S
C1008 C1009 1.390 . S
C1009 C1008 1.390 . S
C1009 C1010 1.394 . S
C1009 C1015 1.465 . S
C1010 C1005 1.399 . S
C1010 C1009 1.394 . S
C1010 C1011 1.516 . S
C1011 C1010 1.516 . S
C1011 C1012 1.502 . S
C1011 C1013 1.561 . S
C1011 C1014 1.526 . S
C1012 H996 0.959 . S
C1012 H997 0.959 . S
C1012 H998 0.961 . S
C1012 C1011 1.502 . S
C1013 H999 0.960 . S
C1013 H1000 0.961 . S
C1013 H1001 0.959 . S
C1013 C1011 1.561 . S
C1014 C1011 1.526 . S
C1014 C1015 1.396 . S
C1014 C1019 1.390 . S
C1015 C1009 1.465 . S
C1015 C1014 1.396 . S
C1015 C1016 1.399 . S
C1016 H1002 0.929 . S
C1016 C1015 1.399 . S
C1016 C1017 1.385 . S
C1017 H1003 0.931 . S
C1017 C1016 1.385 . S
C1017 C1018 1.389 . S
C1018 C1017 1.389 . S
C1018 C1019 1.387 . S
C1019 H1004 0.930 . S
C1019 C1014 1.390 . S
C1019 C1018 1.387 . S
H1020 C1032 0.930 . S
H1021 C1034 0.930 . S
H1022 C1035 0.930 . S
H1023 C1039 0.959 . S
H1024 C1039 0.959 . S
H1025 C1039 0.961 . S
H1026 C1040 0.960 . S
H1027 C1040 0.961 . S
H1028 C1040 0.959 . S
H1029 C1043 0.929 . S
H1030 C1044 0.931 . S
H1031 C1046 0.930 . S
C1032 H1020 0.930 . S
C1032 C1033 1.399 . S
C1032 C1037 1.399 . S
C1033 C1032 1.399 . S
C1033 C1034 1.376 . S
C1034 H1021 0.930 . S
C1034 C1033 1.376 . S
C1034 C1035 1.388 . S
C1035 H1022 0.930 . S
C1035 C1034 1.388 . S
C1035 C1036 1.390 . S
C1036 C1035 1.390 . S
C1036 C1037 1.394 . S
C1036 C1042 1.465 . S
C1037 C1032 1.399 . S
C1037 C1036 1.394 . S
C1037 C1038 1.516 . S
C1038 C1037 1.516 . S
C1038 C1039 1.502 . S
C1038 C1040 1.561 . S
C1038 C1041 1.526 . S
C1039 H1023 0.959 . S
C1039 H1024 0.959 . S
C1039 H1025 0.961 . S
C1039 C1038 1.502 . S
C1040 H1026 0.960 . S
C1040 H1027 0.961 . S
C1040 H1028 0.959 . S
C1040 C1038 1.561 . S
C1041 C1038 1.526 . S
C1041 C1042 1.396 . S
C1041 C1046 1.390 . S
C1042 C1036 1.465 . S
C1042 C1041 1.396 . S
C1042 C1043 1.399 . S
C1043 H1029 0.929 . S
C1043 C1042 1.399 . S
C1043 C1044 1.385 . S
C1044 H1030 0.931 . S
C1044 C1043 1.385 . S
C1044 C1045 1.389 . S
C1045 C1044 1.389 . S
C1045 C1046 1.387 . S
C1046 H1031 0.930 . S
C1046 C1041 1.390 . S
C1046 C1045 1.387 . S
H1047 C1059 0.930 . S
H1048 C1061 0.930 . S
H1049 C1062 0.930 . S
H1050 C1066 0.959 . S
H1051 C1066 0.959 . S
H1052 C1066 0.961 . S
H1053 C1067 0.960 . S
H1054 C1067 0.961 . S
H1055 C1067 0.959 . S
H1056 C1070 0.929 . S
H1057 C1071 0.931 . S
H1058 C1073 0.930 . S
C1059 H1047 0.930 . S
C1059 C1060 1.399 . S
C1059 C1064 1.399 . S
C1060 C1059 1.399 . S
C1060 C1061 1.376 . S
C1061 H1048 0.930 . S
C1061 C1060 1.376 . S
C1061 C1062 1.388 . S
C1062 H1049 0.930 . S
C1062 C1061 1.388 . S
C1062 C1063 1.390 . S
C1063 C1062 1.390 . S
C1063 C1064 1.394 . S
C1063 C1069 1.465 . S
C1064 C1059 1.399 . S
C1064 C1063 1.394 . S
C1064 C1065 1.516 . S
C1065 C1064 1.516 . S
C1065 C1066 1.502 . S
C1065 C1067 1.561 . S
C1065 C1068 1.526 . S
C1066 H1050 0.959 . S
C1066 H1051 0.959 . S
C1066 H1052 0.961 . S
C1066 C1065 1.502 . S
C1067 H1053 0.960 . S
C1067 H1054 0.961 . S
C1067 H1055 0.959 . S
C1067 C1065 1.561 . S
C1068 C1065 1.526 . S
C1068 C1069 1.396 . S
C1068 C1073 1.390 1_545 S
C1069 C1063 1.465 . S
C1069 C1068 1.396 . S
C1069 C1070 1.399 1_545 S
C1070 H1056 0.929 . S
C1070 C1069 1.399 1_565 S
C1070 C1071 1.385 . S
C1071 H1057 0.931 . S
C1071 C1070 1.385 . S
C1071 C1072 1.389 . S
C1072 C1071 1.389 . S
C1072 C1073 1.387 . S
C1073 H1058 0.930 . S
C1073 C1068 1.390 1_565 S
C1073 C1072 1.387 . S
H1074 C1086 0.930 . S
H1075 C1088 0.930 . S
H1076 C1089 0.930 . S
H1077 C1093 0.959 . S
H1078 C1093 0.959 . S
H1079 C1093 0.961 . S
H1080 C1094 0.960 . S
H1081 C1094 0.961 . S
H1082 C1094 0.959 . S
H1083 C1097 0.929 . S
H1084 C1098 0.931 . S
H1085 C1100 0.930 . S
C1086 H1074 0.930 . S
C1086 C1087 1.399 . S
C1086 C1091 1.399 . S
C1087 C1086 1.399 . S
C1087 C1088 1.376 . S
C1088 H1075 0.930 . S
C1088 C1087 1.376 . S
C1088 C1089 1.388 . S
C1089 H1076 0.930 . S
C1089 C1088 1.388 . S
C1089 C1090 1.390 . S
C1090 C1089 1.390 . S
C1090 C1091 1.394 . S
C1090 C1096 1.465 . S
C1091 C1086 1.399 . S
C1091 C1090 1.394 . S
C1091 C1092 1.516 . S
C1092 C1091 1.516 . S
C1092 C1093 1.502 . S
C1092 C1094 1.561 . S
C1092 C1095 1.526 . S
C1093 H1077 0.959 . S
C1093 H1078 0.959 . S
C1093 H1079 0.961 . S
C1093 C1092 1.502 . S
C1094 H1080 0.960 . S
C1094 H1081 0.961 . S
C1094 H1082 0.959 . S
C1094 C1092 1.561 . S
C1095 C1092 1.526 . S
C1095 C1096 1.396 . S
C1095 C1100 1.390 . S
C1096 C1090 1.465 . S
C1096 C1095 1.396 . S
C1096 C1097 1.399 . S
C1097 H1083 0.929 . S
C1097 C1096 1.399 . S
C1097 C1098 1.385 . S
C1098 H1084 0.931 . S
C1098 C1097 1.385 . S
C1098 C1099 1.389 . S
C1099 C1098 1.389 . S
C1099 C1100 1.387 . S
C1100 H1085 0.930 . S
C1100 C1095 1.390 . S
C1100 C1099 1.387 . S
H1101 C1113 0.930 . S
H1102 C1115 0.930 . S
H1103 C1116 0.930 1_565 S
H1104 C1120 0.959 . S
H1105 C1120 0.959 . S
H1106 C1120 0.961 . S
H1107 C1121 0.960 . S
H1108 C1121 0.958 1_565 S
H1109 C1121 0.959 1_565 S
H1110 C1124 0.929 . S
H1111 C1125 0.931 . S
H1112 C1127 0.930 . S
C1113 H1101 0.930 . S
C1113 C1114 1.399 . S
C1113 C1118 1.399 . S
C1114 C1113 1.399 . S
C1114 C1115 1.376 . S
C1115 H1102 0.930 . S
C1115 C1114 1.376 . S
C1115 C1116 1.388 . S
C1116 H1103 0.930 1_545 S
C1116 C1115 1.388 . S
C1116 C1117 1.390 . S
C1117 C1116 1.390 . S
C1117 C1118 1.394 . S
C1117 C1123 1.465 1_545 S
C1118 C1113 1.399 . S
C1118 C1117 1.394 . S
C1118 C1119 1.516 . S
C1119 C1118 1.516 . S
C1119 C1120 1.502 . S
C1119 C1121 1.561 . S
C1119 C1122 1.526 1_545 S
C1120 H1104 0.959 . S
C1120 H1105 0.959 . S
C1120 H1106 0.961 . S
C1120 C1119 1.502 . S
C1121 H1107 0.960 . S
C1121 H1108 0.958 1_545 S
C1121 H1109 0.959 1_545 S
C1121 C1119 1.561 . S
C1122 C1119 1.526 1_565 S
C1122 C1123 1.396 . S
C1122 C1127 1.390 . S
C1123 C1117 1.465 1_565 S
C1123 C1122 1.396 . S
C1123 C1124 1.399 . S
C1124 H1110 0.929 . S
C1124 C1123 1.399 . S
C1124 C1125 1.385 . S
C1125 H1111 0.931 . S
C1125 C1124 1.385 . S
C1125 C1126 1.389 . S
C1126 C1125 1.389 . S
C1126 C1127 1.387 . S
C1127 H1112 0.930 . S
C1127 C1122 1.390 . S
C1127 C1126 1.387 . S
H1128 C1140 0.930 . S
H1129 C1142 0.930 . S
H1130 C1143 0.930 . S
H1131 C1147 0.959 . S
H1132 C1147 0.959 . S
H1133 C1147 0.961 . S
H1134 C1148 0.960 . S
H1135 C1148 0.961 . S
H1136 C1148 0.959 . S
H1137 C1151 0.929 . S
H1138 C1152 0.931 . S
H1139 C1154 0.930 . S
C1140 H1128 0.930 . S
C1140 C1141 1.399 . S
C1140 C1145 1.399 . S
C1141 C1140 1.399 . S
C1141 C1142 1.376 . S
C1142 H1129 0.930 . S
C1142 C1141 1.376 . S
C1142 C1143 1.388 . S
C1143 H1130 0.930 . S
C1143 C1142 1.388 . S
C1143 C1144 1.390 . S
C1144 C1143 1.390 . S
C1144 C1145 1.394 . S
C1144 C1150 1.465 . S
C1145 C1140 1.399 . S
C1145 C1144 1.394 . S
C1145 C1146 1.516 . S
C1146 C1145 1.516 . S
C1146 C1147 1.502 . S
C1146 C1148 1.561 . S
C1146 C1149 1.526 . S
C1147 H1131 0.959 . S
C1147 H1132 0.959 . S
C1147 H1133 0.961 . S
C1147 C1146 1.502 . S
C1148 H1134 0.960 . S
C1148 H1135 0.961 . S
C1148 H1136 0.959 . S
C1148 C1146 1.561 . S
C1149 C1146 1.526 . S
C1149 C1150 1.396 . S
C1149 C1154 1.390 . S
C1150 C1144 1.465 . S
C1150 C1149 1.396 . S
C1150 C1151 1.399 . S
C1151 H1137 0.929 . S
C1151 C1150 1.399 . S
C1151 C1152 1.385 . S
C1152 H1138 0.931 . S
C1152 C1151 1.385 . S
C1152 C1153 1.389 . S
C1153 C1152 1.389 . S
C1153 C1154 1.387 . S
C1154 H1139 0.930 . S
C1154 C1149 1.390 . S
C1154 C1153 1.387 . S
H1155 C1167 0.930 . S
H1156 C1169 0.930 . S
H1157 C1170 0.930 . S
H1158 C1174 0.959 . S
H1159 C1174 0.959 . S
H1160 C1174 0.961 . S
H1161 C1175 0.960 . S
H1162 C1175 0.961 . S
H1163 C1175 0.959 . S
H1164 C1178 0.929 . S
H1165 C1179 0.931 . S
H1166 C1181 0.930 . S
C1167 H1155 0.930 . S
C1167 C1168 1.399 . S
C1167 C1172 1.399 . S
C1168 C1167 1.399 . S
C1168 C1169 1.376 . S
C1169 H1156 0.930 . S
C1169 C1168 1.376 . S
C1169 C1170 1.388 . S
C1170 H1157 0.930 . S
C1170 C1169 1.388 . S
C1170 C1171 1.390 . S
C1171 C1170 1.390 . S
C1171 C1172 1.394 . S
C1171 C1177 1.465 . S
C1172 C1167 1.399 . S
C1172 C1171 1.394 . S
C1172 C1173 1.516 . S
C1173 C1172 1.516 . S
C1173 C1174 1.502 . S
C1173 C1175 1.561 . S
C1173 C1176 1.526 . S
C1174 H1158 0.959 . S
C1174 H1159 0.959 . S
C1174 H1160 0.961 . S
C1174 C1173 1.502 . S
C1175 H1161 0.960 . S
C1175 H1162 0.961 . S
C1175 H1163 0.959 . S
C1175 C1173 1.561 . S
C1176 C1173 1.526 . S
C1176 C1177 1.396 . S
C1176 C1181 1.390 . S
C1177 C1171 1.465 . S
C1177 C1176 1.396 . S
C1177 C1178 1.399 . S
C1178 H1164 0.929 . S
C1178 C1177 1.399 . S
C1178 C1179 1.385 . S
C1179 H1165 0.931 . S
C1179 C1178 1.385 . S
C1179 C1180 1.389 . S
C1180 C1179 1.389 . S
C1180 C1181 1.387 . S
C1181 H1166 0.930 . S
C1181 C1176 1.390 . S
C1181 C1180 1.387 . S
H1182 C1194 0.930 . S
H1183 C1196 0.930 . S
H1184 C1197 0.930 . S
H1185 C1201 0.959 . S
H1186 C1201 0.959 . S
H1187 C1201 0.961 . S
H1188 C1202 0.960 . S
H1189 C1202 0.961 . S
H1190 C1202 0.959 . S
H1191 C1205 0.929 . S
H1192 C1206 0.931 . S
H1193 C1208 0.930 . S
C1194 H1182 0.930 . S
C1194 C1195 1.399 . S
C1194 C1199 1.399 . S
C1195 C1194 1.399 . S
C1195 C1196 1.376 . S
C1196 H1183 0.930 . S
C1196 C1195 1.376 . S
C1196 C1197 1.388 . S
C1197 H1184 0.930 . S
C1197 C1196 1.388 . S
C1197 C1198 1.390 . S
C1198 C1197 1.390 . S
C1198 C1199 1.394 . S
C1198 C1204 1.465 . S
C1199 C1194 1.399 . S
C1199 C1198 1.394 . S
C1199 C1200 1.516 . S
C1200 C1199 1.516 . S
C1200 C1201 1.502 . S
C1200 C1202 1.561 . S
C1200 C1203 1.526 . S
C1201 H1185 0.959 . S
C1201 H1186 0.959 . S
C1201 H1187 0.961 . S
C1201 C1200 1.502 . S
C1202 H1188 0.960 . S
C1202 H1189 0.961 . S
C1202 H1190 0.959 . S
C1202 C1200 1.561 . S
C1203 C1200 1.526 . S
C1203 C1204 1.396 . S
C1203 C1208 1.390 . S
C1204 C1198 1.465 . S
C1204 C1203 1.396 . S
C1204 C1205 1.399 . S
C1205 H1191 0.929 . S
C1205 C1204 1.399 . S
C1205 C1206 1.385 . S
C1206 H1192 0.931 . S
C1206 C1205 1.385 . S
C1206 C1207 1.389 . S
C1207 C1206 1.389 . S
C1207 C1208 1.387 . S
C1208 H1193 0.930 . S
C1208 C1203 1.390 . S
C1208 C1207 1.387 . S
H1209 C1221 0.930 . S
H1210 C1223 0.930 . S
H1211 C1224 0.930 . S
H1212 C1228 0.959 . S
H1213 C1228 0.959 . S
H1214 C1228 0.961 . S
H1215 C1229 0.960 . S
H1216 C1229 0.961 . S
H1217 C1229 0.959 . S
H1218 C1232 0.929 . S
H1219 C1233 0.931 . S
H1220 C1235 0.930 . S
C1221 H1209 0.930 . S
C1221 C1222 1.399 . S
C1221 C1226 1.399 . S
C1222 C1221 1.399 . S
C1222 C1223 1.376 . S
C1223 H1210 0.930 . S
C1223 C1222 1.376 . S
C1223 C1224 1.388 . S
C1224 H1211 0.930 . S
C1224 C1223 1.388 . S
C1224 C1225 1.390 . S
C1225 C1224 1.390 . S
C1225 C1226 1.394 . S
C1225 C1231 1.465 . S
C1226 C1221 1.399 . S
C1226 C1225 1.394 . S
C1226 C1227 1.516 . S
C1227 C1226 1.516 . S
C1227 C1228 1.502 . S
C1227 C1229 1.561 . S
C1227 C1230 1.526 . S
C1228 H1212 0.959 . S
C1228 H1213 0.959 . S
C1228 H1214 0.961 . S
C1228 C1227 1.502 . S
C1229 H1215 0.960 . S
C1229 H1216 0.961 . S
C1229 H1217 0.959 . S
C1229 C1227 1.561 . S
C1230 C1227 1.526 . S
C1230 C1231 1.396 . S
C1230 C1235 1.390 . S
C1231 C1225 1.465 . S
C1231 C1230 1.396 . S
C1231 C1232 1.399 . S
C1232 H1218 0.929 . S
C1232 C1231 1.399 . S
C1232 C1233 1.385 . S
C1233 H1219 0.931 . S
C1233 C1232 1.385 . S
C1233 C1234 1.389 . S
C1234 C1233 1.389 . S
C1234 C1235 1.387 . S
C1235 H1220 0.930 . S
C1235 C1230 1.390 . S
C1235 C1234 1.387 . S
H1236 C1248 0.930 . S
H1237 C1250 0.930 . S
H1238 C1251 0.930 . S
H1239 C1255 0.959 . S
H1240 C1255 0.959 . S
H1241 C1255 0.961 . S
H1242 C1256 0.960 . S
H1243 C1256 0.961 . S
H1244 C1256 0.959 . S
H1245 C1259 0.929 . S
H1246 C1260 0.931 . S
H1247 C1262 0.930 . S
C1248 H1236 0.930 . S
C1248 C1249 1.399 . S
C1248 C1253 1.399 . S
C1249 C1248 1.399 . S
C1249 C1250 1.376 . S
C1250 H1237 0.930 . S
C1250 C1249 1.376 . S
C1250 C1251 1.388 . S
C1251 H1238 0.930 . S
C1251 C1250 1.388 . S
C1251 C1252 1.390 . S
C1252 C1251 1.390 . S
C1252 C1253 1.394 . S
C1252 C1258 1.465 . S
C1253 C1248 1.399 . S
C1253 C1252 1.394 . S
C1253 C1254 1.516 . S
C1254 C1253 1.516 . S
C1254 C1255 1.502 . S
C1254 C1256 1.561 . S
C1254 C1257 1.526 . S
C1255 H1239 0.959 . S
C1255 H1240 0.959 . S
C1255 H1241 0.961 . S
C1255 C1254 1.502 . S
C1256 H1242 0.960 . S
C1256 H1243 0.961 . S
C1256 H1244 0.959 . S
C1256 C1254 1.561 . S
C1257 C1254 1.526 . S
C1257 C1258 1.396 . S
C1257 C1262 1.390 . S
C1258 C1252 1.465 . S
C1258 C1257 1.396 . S
C1258 C1259 1.399 . S
C1259 H1245 0.929 . S
C1259 C1258 1.399 . S
C1259 C1260 1.385 . S
C1260 H1246 0.931 . S
C1260 C1259 1.385 . S
C1260 C1261 1.389 . S
C1261 C1260 1.389 . S
C1261 C1262 1.387 . S
C1262 H1247 0.930 . S
C1262 C1257 1.390 . S
C1262 C1261 1.387 . S
H1263 C1275 0.930 . S
H1264 C1277 0.930 . S
H1265 C1278 0.930 . S
H1266 C1282 0.959 . S
H1267 C1282 0.959 . S
H1268 C1282 0.961 . S
H1269 C1283 0.960 . S
H1270 C1283 0.961 . S
H1271 C1283 0.959 . S
H1272 C1286 0.929 . S
H1273 C1287 0.931 . S
H1274 C1289 0.930 . S
C1275 H1263 0.930 . S
C1275 C1276 1.399 . S
C1275 C1280 1.399 . S
C1276 C1275 1.399 . S
C1276 C1277 1.376 . S
C1277 H1264 0.930 . S
C1277 C1276 1.376 . S
C1277 C1278 1.388 . S
C1278 H1265 0.930 . S
C1278 C1277 1.388 . S
C1278 C1279 1.390 . S
C1279 C1278 1.390 . S
C1279 C1280 1.394 . S
C1279 C1285 1.465 . S
C1280 C1275 1.399 . S
C1280 C1279 1.394 . S
C1280 C1281 1.516 . S
C1281 C1280 1.516 . S
C1281 C1282 1.502 . S
C1281 C1283 1.561 . S
C1281 C1284 1.526 . S
C1282 H1266 0.959 . S
C1282 H1267 0.959 . S
C1282 H1268 0.961 . S
C1282 C1281 1.502 . S
C1283 H1269 0.960 . S
C1283 H1270 0.961 . S
C1283 H1271 0.959 . S
C1283 C1281 1.561 . S
C1284 C1281 1.526 . S
C1284 C1285 1.396 . S
C1284 C1289 1.390 . S
C1285 C1279 1.465 . S
C1285 C1284 1.396 . S
C1285 C1286 1.399 . S
C1286 H1272 0.929 . S
C1286 C1285 1.399 . S
C1286 C1287 1.385 . S
C1287 H1273 0.931 . S
C1287 C1286 1.385 . S
C1287 C1288 1.389 . S
C1288 C1287 1.389 . S
C1288 C1289 1.387 . S
C1289 H1274 0.930 . S
C1289 C1284 1.390 . S
C1289 C1288 1.387 . S
H1290 C1302 0.930 . S
H1291 C1304 0.930 . S
H1292 C1305 0.930 . S
H1293 C1309 0.959 . S
H1294 C1309 0.959 1_556 S
H1295 C1309 0.961 1_556 S
H1296 C1310 0.960 . S
H1297 C1310 0.961 1_655 S
H1298 C1310 0.959 1_654 S
H1299 C1313 0.929 . S
H1300 C1314 0.931 . S
H1301 C1316 0.930 . S
C1302 H1290 0.930 . S
C1302 C1303 1.399 . S
C1302 C1307 1.399 . S
C1303 C1302 1.399 . S
C1303 C1304 1.376 . S
C1304 H1291 0.930 . S
C1304 C1303 1.376 . S
C1304 C1305 1.388 . S
C1305 H1292 0.930 . S
C1305 C1304 1.388 . S
C1305 C1306 1.390 . S
C1306 C1305 1.390 . S
C1306 C1307 1.394 . S
C1306 C1312 1.465 1_455 S
C1307 C1302 1.399 . S
C1307 C1306 1.394 . S
C1307 C1308 1.516 . S
C1308 C1307 1.516 . S
C1308 C1309 1.502 . S
C1308 C1310 1.561 1_554 S
C1308 C1311 1.526 1_455 S
C1309 H1293 0.959 . S
C1309 H1294 0.959 1_554 S
C1309 H1295 0.961 1_554 S
C1309 C1308 1.502 . S
C1310 H1296 0.960 . S
C1310 H1297 0.961 1_455 S
C1310 H1298 0.959 1_456 S
C1310 C1308 1.561 1_556 S
C1311 C1308 1.526 1_655 S
C1311 C1312 1.396 . S
C1311 C1316 1.390 . S
C1312 C1306 1.465 1_655 S
C1312 C1311 1.396 . S
C1312 C1313 1.399 . S
C1313 H1299 0.929 . S
C1313 C1312 1.399 . S
C1313 C1314 1.385 . S
C1314 H1300 0.931 . S
C1314 C1313 1.385 . S
C1314 C1315 1.389 . S
C1315 C1314 1.389 . S
C1315 C1316 1.387 . S
C1316 H1301 0.930 . S
C1316 C1311 1.390 . S
C1316 C1315 1.387 . S
H1317 C1329 0.930 . S
H1318 C1331 0.930 . S
H1319 C1332 0.930 . S
H1320 C1336 0.959 . S
H1321 C1336 0.959 . S
H1322 C1336 0.961 . S
H1323 C1337 0.960 . S
H1324 C1337 0.961 . S
H1325 C1337 0.959 . S
H1326 C1340 0.929 . S
H1327 C1341 0.931 . S
H1328 C1343 0.930 . S
C1329 H1317 0.930 . S
C1329 C1330 1.399 . S
C1329 C1334 1.399 . S
C1330 C1329 1.399 . S
C1330 C1331 1.376 . S
C1331 H1318 0.930 . S
C1331 C1330 1.376 . S
C1331 C1332 1.388 . S
C1332 H1319 0.930 . S
C1332 C1331 1.388 . S
C1332 C1333 1.390 . S
C1333 C1332 1.390 . S
C1333 C1334 1.394 . S
C1333 C1339 1.465 . S
C1334 C1329 1.399 . S
C1334 C1333 1.394 . S
C1334 C1335 1.516 . S
C1335 C1334 1.516 . S
C1335 C1336 1.502 . S
C1335 C1337 1.561 . S
C1335 C1338 1.526 . S
C1336 H1320 0.959 . S
C1336 H1321 0.959 . S
C1336 H1322 0.961 . S
C1336 C1335 1.502 . S
C1337 H1323 0.960 . S
C1337 H1324 0.961 . S
C1337 H1325 0.959 . S
C1337 C1335 1.561 . S
C1338 C1335 1.526 . S
C1338 C1339 1.396 . S
C1338 C1343 1.390 . S
C1339 C1333 1.465 . S
C1339 C1338 1.396 . S
C1339 C1340 1.399 . S
C1340 H1326 0.929 . S
C1340 C1339 1.399 . S
C1340 C1341 1.385 . S
C1341 H1327 0.931 . S
C1341 C1340 1.385 . S
C1341 C1342 1.389 . S
C1342 C1341 1.389 . S
C1342 C1343 1.387 . S
C1343 H1328 0.930 . S
C1343 C1338 1.390 . S
C1343 C1342 1.387 . S
H1344 C1356 0.930 . S
H1345 C1358 0.930 . S
H1346 C1359 0.930 . S
H1347 C1363 0.959 . S
H1348 C1363 0.959 . S
H1349 C1363 0.961 . S
H1350 C1364 0.960 . S
H1351 C1364 0.961 . S
H1352 C1364 0.959 . S
H1353 C1367 0.929 . S
H1354 C1368 0.931 . S
H1355 C1370 0.930 . S
C1356 H1344 0.930 . S
C1356 C1357 1.399 . S
C1356 C1361 1.399 . S
C1357 C1356 1.399 . S
C1357 C1358 1.376 . S
C1358 H1345 0.930 . S
C1358 C1357 1.376 . S
C1358 C1359 1.388 . S
C1359 H1346 0.930 . S
C1359 C1358 1.388 . S
C1359 C1360 1.390 . S
C1360 C1359 1.390 . S
C1360 C1361 1.394 . S
C1360 C1366 1.465 . S
C1361 C1356 1.399 . S
C1361 C1360 1.394 . S
C1361 C1362 1.516 . S
C1362 C1361 1.516 . S
C1362 C1363 1.502 . S
C1362 C1364 1.561 . S
C1362 C1365 1.526 . S
C1363 H1347 0.959 . S
C1363 H1348 0.959 . S
C1363 H1349 0.961 . S
C1363 C1362 1.502 . S
C1364 H1350 0.960 . S
C1364 H1351 0.961 . S
C1364 H1352 0.959 . S
C1364 C1362 1.561 . S
C1365 C1362 1.526 . S
C1365 C1366 1.396 . S
C1365 C1370 1.390 . S
C1366 C1360 1.465 . S
C1366 C1365 1.396 . S
C1366 C1367 1.399 . S
C1367 H1353 0.929 . S
C1367 C1366 1.399 . S
C1367 C1368 1.385 . S
C1368 H1354 0.931 . S
C1368 C1367 1.385 . S
C1368 C1369 1.389 . S
C1369 C1368 1.389 . S
C1369 C1370 1.387 . S
C1370 H1355 0.930 . S
C1370 C1365 1.390 . S
C1370 C1369 1.387 . S
H1371 C1383 0.930 . S
H1372 C1385 0.930 . S
H1373 C1386 0.930 . S
H1374 C1390 0.959 . S
H1375 C1390 0.959 . S
H1376 C1390 0.961 . S
H1377 C1391 0.960 . S
H1378 C1391 0.961 . S
H1379 C1391 0.959 . S
H1380 C1394 0.929 . S
H1381 C1395 0.931 . S
H1382 C1397 0.930 . S
C1383 H1371 0.930 . S
C1383 C1384 1.399 . S
C1383 C1388 1.399 . S
C1384 C1383 1.399 . S
C1384 C1385 1.376 . S
C1385 H1372 0.930 . S
C1385 C1384 1.376 . S
C1385 C1386 1.388 . S
C1386 H1373 0.930 . S
C1386 C1385 1.388 . S
C1386 C1387 1.390 . S
C1387 C1386 1.390 . S
C1387 C1388 1.394 . S
C1387 C1393 1.465 . S
C1388 C1383 1.399 . S
C1388 C1387 1.394 . S
C1388 C1389 1.516 . S
C1389 C1388 1.516 . S
C1389 C1390 1.502 . S
C1389 C1391 1.561 . S
C1389 C1392 1.526 . S
C1390 H1374 0.959 . S
C1390 H1375 0.959 . S
C1390 H1376 0.961 . S
C1390 C1389 1.502 . S
C1391 H1377 0.960 . S
C1391 H1378 0.961 . S
C1391 H1379 0.959 . S
C1391 C1389 1.561 . S
C1392 C1389 1.526 . S
C1392 C1393 1.396 . S
C1392 C1397 1.390 . S
C1393 C1387 1.465 . S
C1393 C1392 1.396 . S
C1393 C1394 1.399 . S
C1394 H1380 0.929 . S
C1394 C1393 1.399 . S
C1394 C1395 1.385 . S
C1395 H1381 0.931 . S
C1395 C1394 1.385 . S
C1395 C1396 1.389 . S
C1396 C1395 1.389 . S
C1396 C1397 1.387 . S
C1397 H1382 0.930 . S
C1397 C1392 1.390 . S
C1397 C1396 1.387 . S
H1398 C1410 0.930 . S
H1399 C1412 0.930 . S
H1400 C1413 0.930 . S
H1401 C1417 0.959 . S
H1402 C1417 0.959 . S
H1403 C1417 0.961 . S
H1404 C1418 0.960 . S
H1405 C1418 0.961 . S
H1406 C1418 0.959 . S
H1407 C1421 0.929 . S
H1408 C1422 0.931 . S
H1409 C1424 0.930 . S
C1410 H1398 0.930 . S
C1410 C1411 1.399 . S
C1410 C1415 1.399 . S
C1411 C1410 1.399 . S
C1411 C1412 1.376 . S
C1412 H1399 0.930 . S
C1412 C1411 1.376 . S
C1412 C1413 1.388 . S
C1413 H1400 0.930 . S
C1413 C1412 1.388 . S
C1413 C1414 1.390 . S
C1414 C1413 1.390 . S
C1414 C1415 1.394 . S
C1414 C1420 1.465 . S
C1415 C1410 1.399 . S
C1415 C1414 1.394 . S
C1415 C1416 1.516 . S
C1416 C1415 1.516 . S
C1416 C1417 1.502 . S
C1416 C1418 1.561 . S
C1416 C1419 1.526 . S
C1417 H1401 0.959 . S
C1417 H1402 0.959 . S
C1417 H1403 0.961 . S
C1417 C1416 1.502 . S
C1418 H1404 0.960 . S
C1418 H1405 0.961 . S
C1418 H1406 0.959 . S
C1418 C1416 1.561 . S
C1419 C1416 1.526 . S
C1419 C1420 1.396 . S
C1419 C1424 1.390 . S
C1420 C1414 1.465 . S
C1420 C1419 1.396 . S
C1420 C1421 1.399 . S
C1421 H1407 0.929 . S
C1421 C1420 1.399 . S
C1421 C1422 1.385 . S
C1422 H1408 0.931 . S
C1422 C1421 1.385 . S
C1422 C1423 1.389 . S
C1423 C1422 1.389 . S
C1423 C1424 1.387 . S
C1424 H1409 0.930 . S
C1424 C1419 1.390 . S
C1424 C1423 1.387 . S
H1425 C1437 0.930 . S
H1426 C1439 0.930 . S
H1427 C1440 0.930 . S
H1428 C1444 0.959 . S
H1429 C1444 0.959 . S
H1430 C1444 0.961 . S
H1431 C1445 0.960 . S
H1432 C1445 0.961 . S
H1433 C1445 0.959 . S
H1434 C1448 0.929 . S
H1435 C1449 0.931 . S
H1436 C1451 0.930 . S
C1437 H1425 0.930 . S
C1437 C1438 1.399 . S
C1437 C1442 1.399 . S
C1438 C1437 1.399 . S
C1438 C1439 1.376 . S
C1439 H1426 0.930 . S
C1439 C1438 1.376 . S
C1439 C1440 1.388 . S
C1440 H1427 0.930 . S
C1440 C1439 1.388 . S
C1440 C1441 1.390 . S
C1441 C1440 1.390 . S
C1441 C1442 1.394 . S
C1441 C1447 1.465 . S
C1442 C1437 1.399 . S
C1442 C1441 1.394 . S
C1442 C1443 1.516 . S
C1443 C1442 1.516 . S
C1443 C1444 1.502 . S
C1443 C1445 1.561 . S
C1443 C1446 1.526 . S
C1444 H1428 0.959 . S
C1444 H1429 0.959 . S
C1444 H1430 0.961 . S
C1444 C1443 1.502 . S
C1445 H1431 0.960 . S
C1445 H1432 0.961 . S
C1445 H1433 0.959 . S
C1445 C1443 1.561 . S
C1446 C1443 1.526 . S
C1446 C1447 1.396 . S
C1446 C1451 1.390 1_655 S
C1447 C1441 1.465 . S
C1447 C1446 1.396 . S
C1447 C1448 1.399 1_655 S
C1448 H1434 0.929 . S
C1448 C1447 1.399 1_455 S
C1448 C1449 1.385 . S
C1449 H1435 0.931 . S
C1449 C1448 1.385 . S
C1449 C1450 1.389 . S
C1450 C1449 1.389 . S
C1450 C1451 1.387 . S
C1451 H1436 0.930 . S
C1451 C1446 1.390 1_455 S
C1451 C1450 1.387 . S
C493 C19 1.080 . S
C505 C459 1.058 . S
C520 C371 1.619 . S
C532 C59 1.725 . S
C547 C91 1.258 . S
C559 C339 1.318 . S
C574 C139 2.006 . S
C586 C419 1.994 . S
C601 C179 1.653 . S
C613 C411 1.577 . S
C628 C211 1.434 . S
C640 C451 1.450 . S
C655 C379 1.794 . S
C667 C259 1.794 . S
C682 C291 1.674 . S
C694 C331 1.722 . S
C709 C131 1.751 . S
C721 C171 1.770 . S
C736 C11 1.510 . S
C748 C219 1.607 . S
C763 C51 1.655 . S
C775 C251 1.658 . S
C790 C299 1.876 . S
C802 C99 1.881 . S
C817 C7 1.576 . S
C829 C330 1.539 . S
C844 C47 1.823 . S
C856 C410 1.728 . S
C871 C450 1.918 . S
C883 C96 1.994 . S
C898 C127 1.552 . S
C910 C362 1.548 . S
C925 C167 1.241 . S
C937 C370 1.238 . S
C952 C322 1.917 . S
C964 C216 1.901 . S
C979 C402 1.352 . S
C991 C247 1.377 . S
C1006 C442 2.665 . S
C1018 C296 2.546 . S
C1033 C2 2.754 . S
C1045 C136 2.610 . S
C1060 C16 1.959 . S
C1072 C42 2.078 . S
C1087 C56 2.269 . S
C1099 C90 2.241 . S
C1114 C122 1.686 . S
C1126 C87 1.727 . S
C1141 C207 1.466 . S
C1153 C162 1.477 . S
C1168 C210 1.368 . S
C1180 C256 1.288 . S
C1195 C242 1.458 . S
C1207 C287 1.508 . S
C1222 C176 0.914 . S
C1234 C290 0.799 . S
C1249 C336 0.804 . S
C1261 C130 0.813 . S
C1276 C202 1.636 . S
C1288 C376 1.649 . S
C1303 C327 1.362 . S
C1315 C250 1.340 . S
C1330 C407 1.820 . S
C1342 C282 1.806 . S
C1357 C170 1.220 . S
C1369 C447 1.345 . S
C1384 C456 1.727 . S
C1396 C50 1.633 . S
C1411 C82 1.516 . S
C1423 C367 1.539 . S
C1438 C416 1.734 . S
C1450 C10 1.790 . S
