# Generated by pormake.
# Topology rob, (6)-cn, num edge types: 1
# Building blocks:
#     Node 0, Type 0, BuildingBlock: VOLQOD_clean_sbu_1, # of connection points: 6
#     Node 1, Type 0, BuildingBlock: VOLQOD_clean_sbu_1, # of connection points: 6
#     Node 2, Type 0, BuildingBlock: VOLQOD_clean_sbu_1, # of connection points: 6
#     Node 3, Type 0, BuildingBlock: VOLQOD_clean_sbu_1, # of connection points: 6
#     Edge 4, Type (0, 0), BuildingBlock: TEMPAE_clean_linker_10, # of connection points: 2
#     Edge 5, Type (0, 0), BuildingBlock: TEMPAE_clean_linker_10, # of connection points: 2
#     Edge 6, Type (0, 0), BuildingBlock: TEMPAE_clean_linker_10, # of connection points: 2
#     Edge 7, Type (0, 0), BuildingBlock: TEMPAE_clean_linker_10, # of connection points: 2
#     Edge 8, Type (0, 0), BuildingBlock: TEMPAE_clean_linker_10, # of connection points: 2
#     Edge 9, Type (0, 0), BuildingBlock: TEMPAE_clean_linker_10, # of connection points: 2
#     Edge 10, Type (0, 0), BuildingBlock: TEMPAE_clean_linker_10, # of connection points: 2
#     Edge 11, Type (0, 0), BuildingBlock: TEMPAE_clean_linker_10, # of connection points: 2
#     Edge 12, Type (0, 0), BuildingBlock: TEMPAE_clean_linker_10, # of connection points: 2
#     Edge 13, Type (0, 0), BuildingBlock: TEMPAE_clean_linker_10, # of connection points: 2
#     Edge 14, Type (0, 0), BuildingBlock: TEMPAE_clean_linker_10, # of connection points: 2
#     Edge 15, Type (0, 0), BuildingBlock: TEMPAE_clean_linker_10, # of connection points: 2
# Relax obj value: 0.388
# Max RMSD: 0.278
# Mean RMSD: 0.278
data_MOF--net-rob--node1-VOLQOD_clean_sbu_1--edge1-TEMPAE_clean_linker_10
_symmetry_space_group_name_H-M    P1
_symmetry_Int_Tables_number       1
_symmetry_cell_setting            triclinic
loop_
_symmetry_equiv_pos_as_xyz
'x, y, z'
_cell_length_a     17.887746
_cell_length_b     29.457974
_cell_length_c     26.164401
_cell_angle_alpha  88.460788
_cell_angle_beta   90.349758
_cell_angle_gamma 90.182602
loop_
_atom_site_label
_atom_site_type_symbol
_atom_site_fract_x
_atom_site_fract_y
_atom_site_fract_z
_atom_type_partial_charge
O0 O 0.2409 0.34538 0.00968 0.0
Zn1 Zn 0.17871 0.29065 -0.0051 0.0
O2 O 0.23308 0.23425 0.01086 0.0
Zn3 Zn 0.23961 0.19744 0.95042 0.0
Zn4 Zn 0.33293 0.24881 0.03584 0.0
Zn5 Zn 0.18072 0.19929 0.06316 0.0
O6 O 0.19144 0.13612 0.96024 0.0
O7 O 0.15717 0.13632 0.04149 0.0
O8 O 0.15583 0.29586 0.92 0.0
O9 O 0.19325 0.22986 0.88947 0.0
O10 O 0.3466 0.18699 0.93321 0.0
O11 O 0.41288 0.22194 -0.0075 0.0
O12 O 0.34612 0.22858 0.10899 0.0
O13 O 0.08329 0.29498 0.03538 0.0
O14 O 0.23837 0.19547 0.12901 0.0
O15 O 0.08528 0.22957 0.07937 0.0
C16 C 0.30871 0.3502 0.02336 0.0
C17 C 0.16303 0.11621 -0.0007 0.0
C18 C 0.40915 0.19828 0.95258 0.0
C19 C 0.16452 0.2691 0.88321 0.0
C20 C 0.30357 0.20867 0.14139 0.0
C21 C 0.0537 0.26698 0.06726 0.0
O22 O 0.35003 0.31601 0.03339 0.0
O23 O 0.80019 0.83468 -0.01987 0.0
Zn24 Zn 0.70886 0.79589 -0.01587 0.0
O25 O 0.73692 0.73177 -0.01126 0.0
Zn26 Zn 0.69606 0.69972 0.93106 0.0
Zn27 Zn 0.84521 0.72629 -0.00988 0.0
Zn28 Zn 0.69722 0.70438 0.05072 0.0
O29 O 0.61823 0.65395 0.95261 0.0
O30 O 0.61571 0.65989 0.03684 0.0
O31 O 0.6496 0.81036 0.92049 0.0
O32 O 0.64844 0.74415 0.88189 0.0
O33 O 0.77617 0.66743 0.89312 0.0
O34 O 0.87986 0.68998 0.93193 0.0
O35 O 0.88034 0.69387 0.05361 0.0
O36 O 0.65245 0.81551 0.04621 0.0
O37 O 0.77567 0.67182 0.09195 0.0
O38 O 0.65632 0.75233 0.09443 0.0
C39 C 0.87023 0.82745 -0.01867 0.0
C40 C 0.59144 0.64245 -0.00398 0.0
C41 C 0.84706 0.66762 0.89741 0.0
C42 C 0.63263 0.78626 0.88248 0.0
C43 C 0.84658 0.67229 0.08937 0.0
C44 C 0.64002 0.79412 0.08821 0.0
O45 O 0.89625 0.78735 -0.01437 0.0
O46 O 0.17301 0.87414 0.47684 0.0
Zn47 Zn 0.25925 0.8312 0.48184 0.0
O48 O 0.22121 0.76916 0.48793 0.0
Zn49 Zn 0.25873 0.74061 0.54941 0.0
Zn50 Zn 0.11278 0.76849 0.48989 0.0
Zn51 Zn 0.25521 0.73418 0.43181 0.0
O52 O 0.34264 0.69766 0.53646 0.0
O53 O 0.33679 0.69085 0.45246 0.0
O54 O 0.31932 0.84841 0.54435 0.0
O55 O 0.29637 0.78823 0.59521 0.0
O56 O 0.17888 0.70569 0.58602 0.0
O57 O 0.0759 0.73789 0.55421 0.0
O58 O 0.07147 0.73102 0.43371 0.0
O59 O 0.31754 0.84134 0.41678 0.0
O60 O 0.17188 0.69845 0.40147 0.0
O61 O 0.29548 0.77633 0.378 0.0
C62 C 0.10214 0.87023 0.4778 0.0
C63 C 0.3661 0.68036 0.49557 0.0
C64 C 0.10838 0.71078 0.58579 0.0
C65 C 0.32169 0.82829 0.58805 0.0
C66 C 0.10133 0.70267 0.40426 0.0
C67 C 0.32072 0.81681 0.3775 0.0
O68 O 0.07059 0.83159 0.48318 0.0
O69 O 0.72792 0.38947 0.50269 0.0
Zn70 Zn 0.7939 0.33598 0.49002 0.0
O71 O 0.74191 0.27906 0.50863 0.0
Zn72 Zn 0.80052 0.24496 0.55851 0.0
Zn73 Zn 0.64309 0.29178 0.53608 0.0
Zn74 Zn 0.73079 0.24152 0.44954 0.0
O75 O 0.82956 0.18403 0.5346 0.0
O76 O 0.79166 0.18415 0.45393 0.0
O77 O 0.88879 0.34432 0.53154 0.0
O78 O 0.89423 0.27795 0.57389 0.0
O79 O 0.74605 0.23631 0.62448 0.0
O80 O 0.63727 0.2703 0.60938 0.0
O81 O 0.56019 0.2613 0.4964 0.0
O82 O 0.81694 0.3385 0.41454 0.0
O83 O 0.62556 0.22207 0.441 0.0
O84 O 0.75843 0.27705 0.38648 0.0
C85 C 0.66162 0.39336 0.51938 0.0
C86 C 0.82485 0.16492 0.49176 0.0
C87 C 0.68186 0.24865 0.63927 0.0
C88 C 0.92194 0.31651 0.56199 0.0
C89 C 0.56363 0.23289 0.46069 0.0
C90 C 0.79403 0.31395 0.37824 0.0
O91 O 0.62324 0.35871 0.53311 0.0
C92 C 0.50142 0.5947 0.0467 0.0
C93 C 0.53541 0.60557 -0.00028 0.0
C94 C 0.45582 0.55617 0.05247 0.0
C95 C 0.44455 0.52781 0.01035 0.0
C96 C 0.4751 0.53999 0.96213 0.0
C97 C 0.52 0.57889 0.95733 0.0
C98 C 0.42316 0.54453 0.10429 0.0
C99 C 0.46414 0.51049 0.91631 0.0
C100 C 0.418 0.40181 0.0349 0.0
C101 C 0.34158 0.39627 0.02447 0.0
C102 C 0.45167 0.4447 0.0316 0.0
C103 C 0.40777 0.48304 0.01782 0.0
C104 C 0.33013 0.47807 0.00908 0.0
C105 C 0.29789 0.43464 0.01239 0.0
C106 C 0.53478 0.44876 0.04127 0.0
C107 C 0.28165 0.51838 -0.00521 0.0
H108 H 0.51229 0.61548 0.07952 0.0
H109 H 0.54569 0.58718 0.92083 0.0
H110 H 0.36306 0.53569 0.1007 0.0
H111 H 0.45213 0.51436 0.12111 0.0
H112 H 0.42906 0.57291 0.13115 0.0
H113 H 0.4857 0.52687 0.88058 0.0
H114 H 0.49382 0.4778 0.92286 0.0
H115 H 0.40403 0.50251 0.91087 0.0
H116 H 0.45217 0.37242 0.04441 0.0
H117 H 0.2387 0.43072 0.00449 0.0
H118 H 0.54585 0.47378 0.07135 0.0
H119 H 0.563 0.46133 0.00596 0.0
H120 H 0.56035 0.41584 0.05338 0.0
H121 H 0.28967 0.54574 0.02263 0.0
H122 H 0.22135 0.50931 -0.00667 0.0
H123 H 0.2983 0.53239 0.95675 0.0
C124 C 0.43868 0.61822 0.45617 0.0
C125 C 0.42393 0.64463 0.49874 0.0
C126 C 0.48533 0.5802 0.46037 0.0
C127 C 0.51851 0.56862 0.50818 0.0
C128 C 0.50789 0.59681 0.55043 0.0
C129 C 0.46037 0.63443 0.54528 0.0
C130 C 0.49534 0.55088 0.41443 0.0
C131 C 0.54344 0.58589 0.60177 0.0
C132 C 0.55095 0.44307 0.53214 0.0
C133 C 0.62696 0.43885 0.52042 0.0
C134 C 0.51558 0.48538 0.52947 0.0
C135 C 0.55735 0.52451 0.5151 0.0
C136 C 0.63464 0.52086 0.50497 0.0
C137 C 0.66855 0.47797 0.50756 0.0
C138 C 0.43287 0.48796 0.54044 0.0
C139 C 0.68095 0.56202 0.49008 0.0
H140 H 0.41112 0.62598 0.41998 0.0
H141 H 0.45 0.65501 0.57822 0.0
H142 H 0.55547 0.54407 0.40811 0.0
H143 H 0.46737 0.51762 0.42143 0.0
H144 H 0.47141 0.56677 0.37901 0.0
H145 H 0.53782 0.61425 0.62862 0.0
H146 H 0.51639 0.55528 0.6191 0.0
H147 H 0.60365 0.57809 0.59732 0.0
H148 H 0.51835 0.4131 0.54219 0.0
H149 H 0.72744 0.47507 0.49873 0.0
H150 H 0.40246 0.50013 0.50563 0.0
H151 H 0.42243 0.5127 0.57079 0.0
H152 H 0.4091 0.45458 0.5528 0.0
H153 H 0.6619 0.57584 0.45237 0.0
H154 H 0.74145 0.55399 0.48763 0.0
H155 H 0.67338 0.58916 0.51816 0.0
C156 C 0.13206 0.04786 0.94821 0.0
C157 C 0.13339 0.0695 -0.00465 0.0
C158 C 0.09771 0.00531 0.94332 0.0
C159 C 0.064 0.98411 -0.01344 0.0
C160 C 0.06862 0.00465 0.03472 0.0
C161 C 0.10327 0.0471 0.03854 0.0
C162 C 0.09416 0.98419 0.89141 0.0
C163 C 0.03347 0.98297 0.08177 0.0
C164 C 0.89287 0.91056 0.96968 0.0
C165 C 0.92164 0.86685 0.97893 0.0
C166 C 0.9393 0.94881 0.9704 0.0
C167 C 0.0165 0.94328 -0.01935 0.0
C168 C 0.04658 0.89924 -0.01164 0.0
C169 C -0.00132 0.86141 -0.01261 0.0
C170 C 0.90517 0.99529 0.96181 0.0
C171 C 0.12878 0.89222 -0.00077 0.0
H172 H 0.15576 0.06474 0.91472 0.0
H173 H 0.10478 0.06327 0.07526 0.0
H174 H 0.11052 0.94791 0.8942 0.0
H175 H 0.03588 0.98555 0.8767 0.0
H176 H 0.13098 1.002 0.86327 0.0
H177 H 0.04818 1.00114 0.11712 0.0
H178 H 0.97173 0.98299 0.07738 0.0
H179 H 0.05138 0.94708 0.08647 0.0
H180 H 0.83356 0.91512 0.96262 0.0
H181 H 0.02138 0.82773 -0.00559 0.0
H182 H 0.93487 0.01407 0.93069 0.0
H183 H 0.91136 0.01526 -0.00304 0.0
H184 H 0.84484 0.99352 0.95171 0.0
H185 H 0.16296 0.91053 0.97002 0.0
H186 H 0.14439 0.85573 -0.00012 0.0
H187 H 0.1433 0.90647 0.03685 0.0
C188 C 0.8912 0.09743 0.5291 0.0
C189 C 0.85896 0.11967 0.48634 0.0
C190 C 0.92589 0.05523 0.52486 0.0
C191 C 0.92859 0.03475 0.47665 0.0
C192 C 0.89477 0.05637 0.43349 0.0
C193 C 0.86022 0.09867 0.43884 0.0
C194 C 0.96129 0.03312 0.57181 0.0
C195 C 0.89668 0.03533 0.38153 0.0
C196 C 0.09025 0.95391 0.463 0.0
C197 C 0.05609 0.91176 0.47345 0.0
C198 C 0.04861 0.99405 0.46176 0.0
C199 C 0.97094 0.99203 0.47133 0.0
C200 C 0.93547 0.94954 0.48005 0.0
C201 C 0.97854 0.90981 0.48096 0.0
C202 C 0.08833 0.0388 0.45215 0.0
C203 C 0.85265 0.94622 0.49037 0.0
H204 H 0.89006 0.11317 0.56606 0.0
H205 H 0.83518 0.11554 0.40566 0.0
H206 H 0.93913 0.99817 0.57778 0.0
H207 H 0.02256 0.03034 0.56635 0.0
H208 H 0.95108 0.05251 0.60692 0.0
H209 H 0.86353 0.05501 0.35259 0.0
H210 H 0.95531 0.03345 0.36818 0.0
H211 H 0.8747 1.00009 0.38388 0.0
H212 H 0.15001 0.95575 0.45661 0.0
H213 H 0.95164 0.87736 0.48882 0.0
H214 H 0.0862 0.05932 0.48706 0.0
H215 H 0.05993 0.05857 0.42106 0.0
H216 H 0.14784 0.03422 0.44159 0.0
H217 H 0.84016 0.96171 0.52754 0.0
H218 H 0.8325 0.9105 0.49168 0.0
H219 H 0.82068 0.96542 0.46049 0.0
C220 C 0.4958 0.17527 0.41132 0.0
C221 C 0.49543 0.21747 0.43476 0.0
C222 C 0.44721 0.16658 0.37063 0.0
C223 C 0.39856 0.20134 0.35279 0.0
C224 C 0.39022 0.24116 0.38138 0.0
C225 C 0.43889 0.24872 0.42256 0.0
C226 C 0.45574 0.12292 0.34237 0.0
C227 C 0.3377 0.27858 0.36421 0.0
C228 C 0.39895 0.22043 0.20949 0.0
C229 C 0.32861 0.20383 0.19524 0.0
C230 C 0.42184 0.21964 0.26066 0.0
C231 C 0.37339 0.20141 0.29872 0.0
C232 C 0.303 0.18352 0.28467 0.0
C233 C 0.2812 0.18515 0.23298 0.0
C234 C 0.49783 0.23889 0.27393 0.0
C235 C 0.25003 0.1637 0.3241 0.0
H236 H 0.53884 0.15074 0.42155 0.0
H237 H 0.43828 0.28126 0.44097 0.0
H238 H 0.40082 0.11045 0.32859 0.0
H239 H 0.49176 0.12914 0.30849 0.0
H240 H 0.48218 0.09599 0.36686 0.0
H241 H 0.32612 0.30225 0.39554 0.0
H242 H 0.36345 0.2983 0.33209 0.0
H243 H 0.28403 0.26445 0.35027 0.0
H244 H 0.43599 0.23488 0.18069 0.0
H245 H 0.22655 0.17238 0.22233 0.0
H246 H 0.53272 0.21228 0.29298 0.0
H247 H 0.49166 0.26694 0.30105 0.0
H248 H 0.52821 0.25218 0.23974 0.0
H249 H 0.2802 0.14171 0.3524 0.0
H250 H 0.20466 0.14356 0.30631 0.0
H251 H 0.22404 0.19164 0.34527 0.0
C252 C 0.5558 0.85412 0.12185 0.0
C253 C 0.60337 0.81695 0.13067 0.0
C254 C 0.51017 0.86977 0.16115 0.0
C255 C 0.51247 0.84736 0.20967 0.0
C256 C 0.56648 0.81324 0.21994 0.0
C257 C 0.61124 0.79849 0.18025 0.0
C258 C 0.45537 0.90746 0.14934 0.0
C259 C 0.57192 0.78886 0.27143 0.0
C260 C 0.41183 0.86856 0.33242 0.0
C261 C 0.35801 0.8339 0.33073 0.0
C262 C 0.45798 0.87782 0.29015 0.0
C263 C 0.44994 0.85146 0.24601 0.0
C264 C 0.38967 0.82047 0.24219 0.0
C265 C 0.34442 0.81211 0.28467 0.0
C266 C 0.51949 0.91263 0.29466 0.0
C267 C 0.37798 0.79222 0.1954 0.0
H268 H 0.5506 0.86905 0.08367 0.0
H269 H 0.64976 0.77067 0.18752 0.0
H270 H 0.40158 0.89261 0.13654 0.0
H271 H 0.44429 0.92781 0.18354 0.0
H272 H 0.47618 0.93035 0.11808 0.0
H273 H 0.62178 0.76653 0.27448 0.0
H274 H 0.57467 0.81359 0.30257 0.0
H275 H 0.52129 0.76757 0.27763 0.0
H276 H 0.42142 0.88625 0.36767 0.0
H277 H 0.30109 0.78637 0.2827 0.0
H278 H 0.53123 0.92962 0.25718 0.0
H279 H 0.57148 0.89558 0.3081 0.0
H280 H 0.50492 0.93879 0.32271 0.0
H281 H 0.37989 0.81389 0.16015 0.0
H282 H 0.3237 0.77378 0.19629 0.0
H283 H 0.42351 0.76684 0.19311 0.0
C284 C 0.5692 0.85249 0.83825 0.0
C285 C 0.5933 0.80715 0.83799 0.0
C286 C 0.52761 0.87118 0.79717 0.0
C287 C 0.50929 0.84362 0.75544 0.0
C288 C 0.53693 0.79865 0.75387 0.0
C289 C 0.57861 0.78108 0.79507 0.0
C290 C 0.50051 0.9195 0.7999 0.0
C291 C 0.51923 0.76802 0.70986 0.0
C292 C 0.33243 0.84029 0.68056 0.0
C293 C 0.35998 0.84905 0.63133 0.0
C294 C 0.37844 0.84509 0.72338 0.0
C295 C 0.45378 0.85839 0.71627 0.0
C296 C 0.47812 0.87397 0.66746 0.0
C297 C 0.43053 0.86903 0.62507 0.0
C298 C 0.34946 0.82951 0.77504 0.0
C299 C 0.55719 0.89023 0.65896 0.0
H300 H 0.58113 0.87311 0.87102 0.0
H301 H 0.59806 0.74631 0.79408 0.0
H302 H 0.49636 0.93604 0.76139 0.0
H303 H 0.4441 0.91962 0.81727 0.0
H304 H 0.5381 0.94006 0.82415 0.0
H305 H 0.54852 0.73487 0.71338 0.0
H306 H 0.45817 0.76137 0.70825 0.0
H307 H 0.53545 0.78472 0.67308 0.0
H308 H 0.27697 0.82578 0.68524 0.0
H309 H 0.45139 0.87634 0.58689 0.0
H310 H 0.36856 0.85265 0.80522 0.0
H311 H 0.37165 0.79515 0.78461 0.0
H312 H 0.28741 0.82775 0.77561 0.0
H313 H 0.5774 0.91015 0.69172 0.0
H314 H 0.56175 0.91141 0.62333 0.0
H315 H 0.59447 0.86045 0.65547 0.0
C316 C 0.59019 0.25375 0.71007 0.0
C317 C 0.65817 0.23724 0.69207 0.0
C318 C 0.56511 0.24208 0.75916 0.0
C319 C 0.60904 0.21301 0.79114 0.0
C320 C 0.67875 0.19716 0.77391 0.0
C321 C 0.70251 0.20942 0.7244 0.0
C322 C 0.49057 0.26018 0.77631 0.0
C323 C 0.72707 0.16613 0.80684 0.0
C324 C 0.53593 0.22249 0.92414 0.0
C325 C 0.47699 0.19107 0.92222 0.0
C326 C 0.58695 0.22649 0.88381 0.0
C327 C 0.57862 0.1981 0.84137 0.0
C328 C 0.52675 0.16177 0.84337 0.0
C329 C 0.47602 0.15883 0.88382 0.0
C330 C 0.64295 0.26491 0.88362 0.0
C331 C 0.51802 0.12976 0.79964 0.0
H332 H 0.55592 0.27556 0.68557 0.0
H333 H 0.7553 0.19656 0.71081 0.0
H334 H 0.45118 0.23158 0.78357 0.0
H335 H 0.49744 0.27838 0.81263 0.0
H336 H 0.46488 0.28381 0.74748 0.0
H337 H 0.78565 0.16542 0.79301 0.0
H338 H 0.72725 0.17659 0.84726 0.0
H339 H 0.70428 0.1311 0.80592 0.0
H340 H 0.53765 0.24712 0.95419 0.0
H341 H 0.43158 0.13372 0.88296 0.0
H342 H 0.6206 0.29381 0.86018 0.0
H343 H 0.69656 0.25448 0.86644 0.0
H344 H 0.65397 0.27695 0.92285 0.0
H345 H 0.48695 0.14714 0.76793 0.0
H346 H 0.48656 0.09861 0.81123 0.0
H347 H 0.57334 0.11977 0.78477 0.0
C348 C 0.96149 0.67126 0.14254 0.0
C349 C 0.89019 0.65365 0.13288 0.0
C350 C -0.00452 0.66455 0.19029 0.0
C351 C 0.95803 0.63834 0.2285 0.0
C352 C 0.8914 0.61497 0.21633 0.0
C353 C 0.85725 0.62362 0.16872 0.0
C354 C 0.06699 0.69005 0.20153 0.0
C355 C 0.8526 0.58413 0.25479 0.0
C356 C 0.08 0.63866 0.34532 0.0
C357 C 0.05395 0.67811 0.36811 0.0
C358 C 0.04265 0.62087 0.30307 0.0
C359 C 0.98023 0.64435 0.28238 0.0
C360 C 0.9492 0.68117 0.30874 0.0
C361 C -0.01392 0.69722 0.35188 0.0
C362 C 0.07385 0.57944 0.27822 0.0
C363 C 0.88205 0.707 0.28823 0.0
H364 H -0.01226 0.69391 0.1146 0.0
H365 H 0.80296 0.60883 0.16076 0.0
H366 H 0.0559 0.71655 0.22987 0.0
H367 H 0.10955 0.66672 0.21828 0.0
H368 H 0.09089 0.7068 0.16673 0.0
H369 H 0.82177 0.55666 0.23531 0.0
H370 H 0.89273 0.56861 0.2826 0.0
H371 H 0.81121 0.60396 0.27625 0.0
H372 H 0.1314 0.62295 0.35892 0.0
H373 H 0.96519 0.72727 0.37003 0.0
H374 H 0.1148 0.5901 0.24855 0.0
H375 H 0.02908 0.55952 0.25954 0.0
H376 H 0.10342 0.55719 0.30667 0.0
H377 H 0.89653 0.72437 0.25141 0.0
H378 H 0.86246 0.73298 0.31505 0.0
H379 H 0.83516 0.68338 0.28077 0.0
C380 C 0.76288 0.31892 0.28567 0.0
C381 C 0.81435 0.32576 0.32533 0.0
C382 C 0.78601 0.32013 0.23459 0.0
C383 C 0.86281 0.32595 0.22369 0.0
C384 C 0.91343 0.33726 0.26335 0.0
C385 C 0.88808 0.33774 0.31387 0.0
C386 C 0.7295 0.31104 0.19303 0.0
C387 C -0.00403 0.34354 0.25345 0.0
C388 C 0.95778 0.24893 0.13273 0.0
C389 C -0.01191 0.28036 0.09735 0.0
C390 C 0.91173 0.26305 0.17207 0.0
C391 C 0.89337 0.30962 0.17503 0.0
C392 C 0.91522 0.34045 0.13545 0.0
C393 C 0.96341 0.32555 0.09718 0.0
C394 C 0.88935 0.22873 0.21329 0.0
C395 C 0.89284 0.38977 0.1355 0.0
H396 H 0.70527 0.31056 0.29474 0.0
H397 H 0.92754 0.34323 0.34475 0.0
H398 H 0.74414 0.32956 0.15694 0.0
H399 H 0.72836 0.27422 0.1853 0.0
H400 H 0.6724 0.3211 0.20469 0.0
H401 H 0.02643 0.35597 0.28748 0.0
H402 H 0.02067 0.31061 0.24278 0.0
H403 H 0.005 0.36796 0.22112 0.0
H404 H 0.97482 0.21366 0.13225 0.0
H405 H -0.01471 0.34994 0.06929 0.0
H406 H 0.828 0.22904 0.21877 0.0
H407 H 0.91587 0.23769 0.25016 0.0
H408 H 0.90629 0.19362 0.20418 0.0
H409 H 0.83725 0.39422 0.15327 0.0
H410 H 0.8914 0.40458 0.09601 0.0
H411 H 0.93448 0.40919 0.15772 0.0
C412 C 0.04881 0.30248 0.5954 0.0
C413 C -0.01369 0.33086 0.5923 0.0
C414 C 0.09432 0.30159 0.63914 0.0
C415 C 0.07453 0.32847 0.68096 0.0
C416 C 0.01783 0.36167 0.67488 0.0
C417 C 0.97463 0.36281 0.62997 0.0
C418 C 0.15679 0.26736 0.6432 0.0
C419 C -0.00494 0.39112 0.71841 0.0
C420 C 0.08153 0.26392 0.80785 0.0
C421 C 0.14219 0.28443 0.83179 0.0
C422 C 0.05837 0.27875 0.75904 0.0
C423 C 0.0988 0.31389 0.73313 0.0
C424 C 0.16142 0.33399 0.75697 0.0
C425 C 0.18154 0.31954 0.80672 0.0
C426 C -0.00955 0.2568 0.73533 0.0
C427 C 0.20706 0.37053 0.73014 0.0
H428 H 0.05757 0.27779 0.56602 0.0
H429 H 0.92572 0.38446 0.62751 0.0
H430 H 0.20496 0.28106 0.66488 0.0
H431 H 0.13656 0.23642 0.66401 0.0
H432 H 0.17615 0.25733 0.60486 0.0
H433 H 0.96169 0.42082 0.7047 0.0
H434 H 0.9604 0.37072 0.74562 0.0
H435 H 0.04458 0.40345 0.73962 0.0
H436 H 0.05144 0.23683 0.82778 0.0
H437 H 0.22883 0.33505 0.82573 0.0
H438 H 0.00684 0.2389 0.70037 0.0
H439 H 0.9489 0.28309 0.7238 0.0
H440 H 0.96302 0.23191 0.76185 0.0
H441 H 0.21868 0.3613 0.69013 0.0
H442 H 0.26104 0.37666 0.75007 0.0
H443 H 0.17518 0.40276 0.72873 0.0
C444 C 0.00276 0.70941 0.64624 0.0
C445 C 0.06437 0.6875 0.62572 0.0
C446 C 0.96756 0.69167 0.6899 0.0
C447 C -0.00676 0.65014 0.71232 0.0
C448 C 0.05069 0.62562 0.68864 0.0
C449 C 0.08692 0.64518 0.64607 0.0
C450 C 0.90691 0.71936 0.71422 0.0
C451 C 0.07709 0.58011 0.7094 0.0
C452 C 0.96804 0.66038 0.85255 0.0
C453 C 0.89247 0.64815 0.85663 0.0
C454 C 0.00593 0.65576 0.80649 0.0
C455 C 0.96754 0.63739 0.76433 0.0
C456 C 0.89616 0.61757 0.77119 0.0
C457 C 0.85856 0.62385 0.81729 0.0
C458 C 0.08316 0.67619 0.80114 0.0
C459 C 0.85644 0.59423 0.72816 0.0
H460 H -0.0147 0.74206 0.63025 0.0
H461 H 0.13382 0.62778 0.62939 0.0
H462 H 0.85517 0.69886 0.71857 0.0
H463 H 0.925 0.72944 0.75297 0.0
H464 H 0.89323 0.75064 0.69144 0.0
H465 H 0.09372 0.558 0.67769 0.0
H466 H 0.12723 0.58502 0.73381 0.0
H467 H 0.03362 0.56232 0.73253 0.0
H468 H -0.00449 0.67783 0.88345 0.0
H469 H 0.80098 0.61269 0.82095 0.0
H470 H 0.08028 0.70737 0.7764 0.0
H471 H 0.1213 0.6521 0.7827 0.0
H472 H 0.10761 0.68536 0.83862 0.0
H473 H 0.82891 0.62002 0.70282 0.0
H474 H 0.81273 0.5705 0.7429 0.0
H475 H 0.8966 0.57516 0.70476 0.0
loop_
_geom_bond_atom_site_label_1
_geom_bond_atom_site_label_2
_geom_bond_distance
_geom_bond_site_symmetry_2
_ccdc_geom_bond_type
O0 Zn1 1.953 . S
O0 C16 1.225 . S
Zn1 O0 1.953 . S
Zn1 O2 1.949 . S
Zn1 O8 1.919 1_554 S
Zn1 O13 1.924 . S
O2 Zn1 1.949 . S
O2 Zn3 1.923 1_554 S
O2 Zn4 1.950 . S
O2 Zn5 1.945 . S
Zn3 O2 1.923 1_556 S
Zn3 O6 1.933 . S
Zn3 O9 1.941 . S
Zn3 O10 1.965 . S
Zn4 O2 1.950 . S
Zn4 O11 1.938 1_554 S
Zn4 O12 1.906 . S
Zn4 O22 1.953 . S
Zn5 O2 1.945 . S
Zn5 O7 1.932 . S
Zn5 O14 1.977 . S
Zn5 O15 1.910 . S
O6 Zn3 1.933 . S
O6 C17 1.226 1_556 S
O7 Zn5 1.932 . S
O7 C17 1.307 . S
O8 Zn1 1.919 1_556 S
O8 C19 1.253 . S
O9 Zn3 1.941 . S
O9 C19 1.283 . S
O10 Zn3 1.965 . S
O10 C18 1.303 . S
O11 Zn4 1.938 1_556 S
O11 C18 1.247 . S
O12 Zn4 1.906 . S
O12 C20 1.304 . S
O13 Zn1 1.924 . S
O13 C21 1.311 . S
O14 Zn5 1.977 . S
O14 C20 1.272 . S
O15 Zn5 1.910 . S
O15 C21 1.231 . S
C16 O0 1.225 . S
C16 O22 1.298 . S
C17 O6 1.226 1_554 S
C17 O7 1.307 . S
C18 O10 1.303 . S
C18 O11 1.247 . S
C19 O8 1.253 . S
C19 O9 1.283 . S
C20 O12 1.304 . S
C20 O14 1.272 . S
C21 O13 1.311 . S
C21 O15 1.231 . S
O22 Zn4 1.953 . S
O22 C16 1.298 . S
O23 Zn24 1.953 . S
O23 C39 1.225 . S
Zn24 O23 1.953 . S
Zn24 O25 1.949 . S
Zn24 O31 1.919 1_554 S
Zn24 O36 1.924 . S
O25 Zn24 1.949 . S
O25 Zn26 1.923 1_554 S
O25 Zn27 1.950 . S
O25 Zn28 1.945 . S
Zn26 O25 1.923 1_556 S
Zn26 O29 1.933 . S
Zn26 O32 1.941 . S
Zn26 O33 1.965 . S
Zn27 O25 1.950 . S
Zn27 O34 1.938 1_554 S
Zn27 O35 1.906 . S
Zn27 O45 1.953 . S
Zn28 O25 1.945 . S
Zn28 O30 1.932 . S
Zn28 O37 1.977 . S
Zn28 O38 1.910 . S
O29 Zn26 1.933 . S
O29 C40 1.226 1_556 S
O30 Zn28 1.932 . S
O30 C40 1.307 . S
O31 Zn24 1.919 1_556 S
O31 C42 1.253 . S
O32 Zn26 1.941 . S
O32 C42 1.283 . S
O33 Zn26 1.965 . S
O33 C41 1.303 . S
O34 Zn27 1.938 1_556 S
O34 C41 1.247 . S
O35 Zn27 1.906 . S
O35 C43 1.304 . S
O36 Zn24 1.924 . S
O36 C44 1.311 . S
O37 Zn28 1.977 . S
O37 C43 1.272 . S
O38 Zn28 1.910 . S
O38 C44 1.231 . S
C39 O23 1.225 . S
C39 O45 1.298 . S
C40 O29 1.226 1_554 S
C40 O30 1.307 . S
C41 O33 1.303 . S
C41 O34 1.247 . S
C42 O31 1.253 . S
C42 O32 1.283 . S
C43 O35 1.304 . S
C43 O37 1.272 . S
C44 O36 1.311 . S
C44 O38 1.231 . S
O45 Zn27 1.953 . S
O45 C39 1.298 . S
O46 Zn47 1.953 . S
O46 C62 1.225 . S
Zn47 O46 1.953 . S
Zn47 O48 1.949 . S
Zn47 O54 1.919 . S
Zn47 O59 1.924 . S
O48 Zn47 1.949 . S
O48 Zn49 1.923 . S
O48 Zn50 1.950 . S
O48 Zn51 1.945 . S
Zn49 O48 1.923 . S
Zn49 O52 1.933 . S
Zn49 O55 1.941 . S
Zn49 O56 1.965 . S
Zn50 O48 1.950 . S
Zn50 O57 1.938 . S
Zn50 O58 1.906 . S
Zn50 O68 1.953 . S
Zn51 O48 1.945 . S
Zn51 O53 1.932 . S
Zn51 O60 1.977 . S
Zn51 O61 1.910 . S
O52 Zn49 1.933 . S
O52 C63 1.226 . S
O53 Zn51 1.932 . S
O53 C63 1.307 . S
O54 Zn47 1.919 . S
O54 C65 1.253 . S
O55 Zn49 1.941 . S
O55 C65 1.283 . S
O56 Zn49 1.965 . S
O56 C64 1.303 . S
O57 Zn50 1.938 . S
O57 C64 1.247 . S
O58 Zn50 1.906 . S
O58 C66 1.304 . S
O59 Zn47 1.924 . S
O59 C67 1.311 . S
O60 Zn51 1.977 . S
O60 C66 1.272 . S
O61 Zn51 1.910 . S
O61 C67 1.231 . S
C62 O46 1.225 . S
C62 O68 1.298 . S
C63 O52 1.226 . S
C63 O53 1.307 . S
C64 O56 1.303 . S
C64 O57 1.247 . S
C65 O54 1.253 . S
C65 O55 1.283 . S
C66 O58 1.304 . S
C66 O60 1.272 . S
C67 O59 1.311 . S
C67 O61 1.231 . S
O68 Zn50 1.953 . S
O68 C62 1.298 . S
O69 Zn70 1.953 . S
O69 C85 1.225 . S
Zn70 O69 1.953 . S
Zn70 O71 1.949 . S
Zn70 O77 1.919 . S
Zn70 O82 1.924 . S
O71 Zn70 1.949 . S
O71 Zn72 1.923 . S
O71 Zn73 1.950 . S
O71 Zn74 1.945 . S
Zn72 O71 1.923 . S
Zn72 O75 1.933 . S
Zn72 O78 1.941 . S
Zn72 O79 1.965 . S
Zn73 O71 1.950 . S
Zn73 O80 1.938 . S
Zn73 O81 1.906 . S
Zn73 O91 1.953 . S
Zn74 O71 1.945 . S
Zn74 O76 1.932 . S
Zn74 O83 1.977 . S
Zn74 O84 1.910 . S
O75 Zn72 1.933 . S
O75 C86 1.226 . S
O76 Zn74 1.932 . S
O76 C86 1.307 . S
O77 Zn70 1.919 . S
O77 C88 1.253 . S
O78 Zn72 1.941 . S
O78 C88 1.283 . S
O79 Zn72 1.965 . S
O79 C87 1.303 . S
O80 Zn73 1.938 . S
O80 C87 1.247 . S
O81 Zn73 1.906 . S
O81 C89 1.304 . S
O82 Zn70 1.924 . S
O82 C90 1.311 . S
O83 Zn74 1.977 . S
O83 C89 1.272 . S
O84 Zn74 1.910 . S
O84 C90 1.231 . S
C85 O69 1.225 . S
C85 O91 1.298 . S
C86 O75 1.226 . S
C86 O76 1.307 . S
C87 O79 1.303 . S
C87 O80 1.247 . S
C88 O77 1.253 . S
C88 O78 1.283 . S
C89 O81 1.304 . S
C89 O83 1.272 . S
C90 O82 1.311 . S
C90 O84 1.231 . S
O91 Zn73 1.953 . S
O91 C85 1.298 . S
C92 C93 1.391 . S
C92 C94 1.394 . S
C92 H108 0.931 . S
C93 C92 1.391 . S
C93 C97 1.376 1_554 S
C94 C92 1.394 . S
C94 C95 1.369 . S
C94 C98 1.531 . S
C95 C94 1.369 . S
C95 C96 1.410 1_554 S
C95 C103 1.503 . S
C96 C95 1.410 1_556 S
C96 C97 1.392 . S
C96 C99 1.511 . S
C97 C93 1.376 1_556 S
C97 C96 1.392 . S
C97 H109 0.929 . S
C98 C94 1.531 . S
C98 H110 0.960 . S
C98 H111 0.962 . S
C98 H112 0.960 . S
C99 C96 1.511 . S
C99 H113 0.961 . S
C99 H114 0.961 . S
C99 H115 0.961 . S
C100 C101 1.370 1_556 S
C100 C102 1.363 . S
C100 H116 0.931 . S
C101 C100 1.370 1_554 S
C101 C105 1.408 . S
C102 C100 1.363 . S
C102 C103 1.370 1_556 S
C102 C106 1.524 . S
C103 C95 1.503 . S
C103 C102 1.370 1_554 S
C103 C104 1.403 . S
C104 C103 1.403 . S
C104 C105 1.404 . S
C104 C107 1.539 . S
C105 C101 1.408 . S
C105 C104 1.404 . S
C105 H117 0.930 . S
C106 C102 1.524 . S
C106 H118 0.956 . S
C106 H119 0.961 . S
C106 H120 0.961 . S
C107 C104 1.539 . S
C107 H121 0.958 . S
C107 H122 0.961 . S
C107 H123 0.960 . S
H108 C92 0.931 . S
H109 C97 0.929 . S
H110 C98 0.960 . S
H111 C98 0.962 . S
H112 C98 0.960 . S
H113 C99 0.961 . S
H114 C99 0.961 . S
H115 C99 0.961 . S
H116 C100 0.931 . S
H117 C105 0.930 . S
H118 C106 0.956 . S
H119 C106 0.961 . S
H120 C106 0.961 . S
H121 C107 0.958 . S
H122 C107 0.961 . S
H123 C107 0.960 . S
C124 C125 1.391 . S
C124 C126 1.394 . S
C124 H140 0.931 . S
C125 C124 1.391 . S
C125 C129 1.376 . S
C126 C124 1.394 . S
C126 C127 1.369 . S
C126 C130 1.531 . S
C127 C126 1.369 . S
C127 C128 1.410 . S
C127 C135 1.503 . S
C128 C127 1.410 . S
C128 C129 1.392 . S
C128 C131 1.511 . S
C129 C125 1.376 . S
C129 C128 1.392 . S
C129 H141 0.929 . S
C130 C126 1.531 . S
C130 H142 0.960 . S
C130 H143 0.962 . S
C130 H144 0.960 . S
C131 C128 1.511 . S
C131 H145 0.961 . S
C131 H146 0.961 . S
C131 H147 0.961 . S
C132 C133 1.370 . S
C132 C134 1.363 . S
C132 H148 0.931 . S
C133 C132 1.370 . S
C133 C137 1.408 . S
C134 C132 1.363 . S
C134 C135 1.370 . S
C134 C138 1.524 . S
C135 C127 1.503 . S
C135 C134 1.370 . S
C135 C136 1.403 . S
C136 C135 1.403 . S
C136 C137 1.404 . S
C136 C139 1.539 . S
C137 C133 1.408 . S
C137 C136 1.404 . S
C137 H149 0.930 . S
C138 C134 1.524 . S
C138 H150 0.956 . S
C138 H151 0.961 . S
C138 H152 0.961 . S
C139 C136 1.539 . S
C139 H153 0.958 . S
C139 H154 0.961 . S
C139 H155 0.960 . S
H140 C124 0.931 . S
H141 C129 0.929 . S
H142 C130 0.960 . S
H143 C130 0.962 . S
H144 C130 0.960 . S
H145 C131 0.961 . S
H146 C131 0.961 . S
H147 C131 0.961 . S
H148 C132 0.931 . S
H149 C137 0.930 . S
H150 C138 0.956 . S
H151 C138 0.961 . S
H152 C138 0.961 . S
H153 C139 0.958 . S
H154 C139 0.961 . S
H155 C139 0.960 . S
C156 C157 1.391 . S
C156 C158 1.394 . S
C156 H172 0.931 . S
C157 C156 1.391 . S
C157 C161 1.376 . S
C158 C156 1.394 . S
C158 C159 1.369 . S
C158 C162 1.531 1_545 S
C159 C158 1.369 . S
C159 C160 1.410 1_455 S
C159 C167 1.503 1_445 S
C160 C159 1.410 1_655 S
C160 C161 1.392 1_655 S
C160 C163 1.511 1_554 S
C161 C157 1.376 . S
C161 C160 1.392 1_455 S
C161 H173 0.929 1_554 S
C162 C158 1.531 1_565 S
C162 H174 0.960 . S
C162 H175 0.962 . S
C162 H176 0.960 . S
C163 C160 1.511 1_556 S
C163 H177 0.961 . S
C163 H178 0.961 . S
C163 H179 0.961 1_556 S
C164 C165 1.370 1_556 S
C164 C166 1.363 . S
C164 H180 0.931 . S
C165 C164 1.370 1_554 S
C165 C169 1.408 . S
C166 C164 1.363 . S
C166 C167 1.370 1_556 S
C166 C170 1.524 1_655 S
C167 C159 1.503 1_665 S
C167 C166 1.370 1_554 S
C167 C168 1.403 . S
C168 C167 1.403 . S
C168 C169 1.404 . S
C168 C171 1.539 1_565 S
C169 C165 1.408 . S
C169 C168 1.404 . S
C169 H181 0.930 . S
C170 C166 1.524 1_455 S
C170 H182 0.956 . S
C170 H183 0.961 . S
C170 H184 0.961 . S
C171 C168 1.539 1_545 S
C171 H185 0.958 1_545 S
C171 H186 0.961 . S
C171 H187 0.960 . S
H172 C156 0.931 . S
H173 C161 0.929 1_556 S
H174 C162 0.960 . S
H175 C162 0.962 . S
H176 C162 0.960 . S
H177 C163 0.961 . S
H178 C163 0.961 . S
H179 C163 0.961 1_554 S
H180 C164 0.931 . S
H181 C169 0.930 . S
H182 C170 0.956 . S
H183 C170 0.961 . S
H184 C170 0.961 . S
H185 C171 0.958 1_565 S
H186 C171 0.961 . S
H187 C171 0.960 . S
C188 C189 1.391 . S
C188 C190 1.394 . S
C188 H204 0.931 . S
C189 C188 1.391 . S
C189 C193 1.376 . S
C190 C188 1.394 . S
C190 C191 1.369 . S
C190 C194 1.531 . S
C191 C190 1.369 . S
C191 C192 1.410 . S
C191 C199 1.503 1_645 S
C192 C191 1.410 . S
C192 C193 1.392 . S
C192 C195 1.511 . S
C193 C189 1.376 . S
C193 C192 1.392 . S
C193 H205 0.929 . S
C194 C190 1.531 . S
C194 H206 0.960 1_545 S
C194 H207 0.962 1_655 S
C194 H208 0.960 . S
C195 C192 1.511 . S
C195 H209 0.961 . S
C195 H210 0.961 1_645 S
C195 H211 0.961 1_545 S
C196 C197 1.370 . S
C196 C198 1.363 . S
C196 H212 0.931 . S
C197 C196 1.370 . S
C197 C201 1.408 . S
C198 C196 1.363 . S
C198 C199 1.370 . S
C198 C202 1.524 1_565 S
C199 C191 1.503 1_465 S
C199 C198 1.370 . S
C199 C200 1.403 . S
C200 C199 1.403 . S
C200 C201 1.404 . S
C200 C203 1.539 1_455 S
C201 C197 1.408 . S
C201 C200 1.404 . S
C201 H213 0.930 . S
C202 C198 1.524 1_545 S
C202 H214 0.956 . S
C202 H215 0.961 . S
C202 H216 0.961 . S
C203 C200 1.539 1_655 S
C203 H217 0.958 . S
C203 H218 0.961 . S
C203 H219 0.960 . S
H204 C188 0.931 . S
H205 C193 0.929 . S
H206 C194 0.960 1_565 S
H207 C194 0.962 1_455 S
H208 C194 0.960 . S
H209 C195 0.961 . S
H210 C195 0.961 1_465 S
H211 C195 0.961 1_565 S
H212 C196 0.931 . S
H213 C201 0.930 . S
H214 C202 0.956 . S
H215 C202 0.961 . S
H216 C202 0.961 . S
H217 C203 0.958 . S
H218 C203 0.961 . S
H219 C203 0.960 . S
C220 C221 1.391 . S
C220 C222 1.394 . S
C220 H236 0.931 . S
C221 C220 1.391 . S
C221 C225 1.376 . S
C222 C220 1.394 . S
C222 C223 1.369 . S
C222 C226 1.531 . S
C223 C222 1.369 . S
C223 C224 1.410 . S
C223 C231 1.503 . S
C224 C223 1.410 . S
C224 C225 1.392 . S
C224 C227 1.511 . S
C225 C221 1.376 . S
C225 C224 1.392 . S
C225 H237 0.929 . S
C226 C222 1.531 . S
C226 H238 0.960 . S
C226 H239 0.962 . S
C226 H240 0.960 . S
C227 C224 1.511 . S
C227 H241 0.961 . S
C227 H242 0.961 . S
C227 H243 0.961 . S
C228 C229 1.370 . S
C228 C230 1.363 . S
C228 H244 0.931 . S
C229 C228 1.370 . S
C229 C233 1.408 . S
C230 C228 1.363 . S
C230 C231 1.370 . S
C230 C234 1.524 . S
C231 C223 1.503 . S
C231 C230 1.370 . S
C231 C232 1.403 . S
C232 C231 1.403 . S
C232 C233 1.404 . S
C232 C235 1.539 . S
C233 C229 1.408 . S
C233 C232 1.404 . S
C233 H245 0.930 . S
C234 C230 1.524 . S
C234 H246 0.956 . S
C234 H247 0.961 . S
C234 H248 0.961 . S
C235 C232 1.539 . S
C235 H249 0.958 . S
C235 H250 0.961 . S
C235 H251 0.960 . S
H236 C220 0.931 . S
H237 C225 0.929 . S
H238 C226 0.960 . S
H239 C226 0.962 . S
H240 C226 0.960 . S
H241 C227 0.961 . S
H242 C227 0.961 . S
H243 C227 0.961 . S
H244 C228 0.931 . S
H245 C233 0.930 . S
H246 C234 0.956 . S
H247 C234 0.961 . S
H248 C234 0.961 . S
H249 C235 0.958 . S
H250 C235 0.961 . S
H251 C235 0.960 . S
C252 C253 1.391 . S
C252 C254 1.394 . S
C252 H268 0.931 . S
C253 C252 1.391 . S
C253 C257 1.376 . S
C254 C252 1.394 . S
C254 C255 1.369 . S
C254 C258 1.531 . S
C255 C254 1.369 . S
C255 C256 1.410 . S
C255 C263 1.503 . S
C256 C255 1.410 . S
C256 C257 1.392 . S
C256 C259 1.511 . S
C257 C253 1.376 . S
C257 C256 1.392 . S
C257 H269 0.929 . S
C258 C254 1.531 . S
C258 H270 0.960 . S
C258 H271 0.962 . S
C258 H272 0.960 . S
C259 C256 1.511 . S
C259 H273 0.961 . S
C259 H274 0.961 . S
C259 H275 0.961 . S
C260 C261 1.370 . S
C260 C262 1.363 . S
C260 H276 0.931 . S
C261 C260 1.370 . S
C261 C265 1.408 . S
C262 C260 1.363 . S
C262 C263 1.370 . S
C262 C266 1.524 . S
C263 C255 1.503 . S
C263 C262 1.370 . S
C263 C264 1.403 . S
C264 C263 1.403 . S
C264 C265 1.404 . S
C264 C267 1.539 . S
C265 C261 1.408 . S
C265 C264 1.404 . S
C265 H277 0.930 . S
C266 C262 1.524 . S
C266 H278 0.956 . S
C266 H279 0.961 . S
C266 H280 0.961 . S
C267 C264 1.539 . S
C267 H281 0.958 . S
C267 H282 0.961 . S
C267 H283 0.960 . S
H268 C252 0.931 . S
H269 C257 0.929 . S
H270 C258 0.960 . S
H271 C258 0.962 . S
H272 C258 0.960 . S
H273 C259 0.961 . S
H274 C259 0.961 . S
H275 C259 0.961 . S
H276 C260 0.931 . S
H277 C265 0.930 . S
H278 C266 0.956 . S
H279 C266 0.961 . S
H280 C266 0.961 . S
H281 C267 0.958 . S
H282 C267 0.961 . S
H283 C267 0.960 . S
C284 C285 1.391 . S
C284 C286 1.394 . S
C284 H300 0.931 . S
C285 C284 1.391 . S
C285 C289 1.376 . S
C286 C284 1.394 . S
C286 C287 1.369 . S
C286 C290 1.531 . S
C287 C286 1.369 . S
C287 C288 1.410 . S
C287 C295 1.503 . S
C288 C287 1.410 . S
C288 C289 1.392 . S
C288 C291 1.511 . S
C289 C285 1.376 . S
C289 C288 1.392 . S
C289 H301 0.929 . S
C290 C286 1.531 . S
C290 H302 0.960 . S
C290 H303 0.962 . S
C290 H304 0.960 . S
C291 C288 1.511 . S
C291 H305 0.961 . S
C291 H306 0.961 . S
C291 H307 0.961 . S
C292 C293 1.370 . S
C292 C294 1.363 . S
C292 H308 0.931 . S
C293 C292 1.370 . S
C293 C297 1.408 . S
C294 C292 1.363 . S
C294 C295 1.370 . S
C294 C298 1.524 . S
C295 C287 1.503 . S
C295 C294 1.370 . S
C295 C296 1.403 . S
C296 C295 1.403 . S
C296 C297 1.404 . S
C296 C299 1.539 . S
C297 C293 1.408 . S
C297 C296 1.404 . S
C297 H309 0.930 . S
C298 C294 1.524 . S
C298 H310 0.956 . S
C298 H311 0.961 . S
C298 H312 0.961 . S
C299 C296 1.539 . S
C299 H313 0.958 . S
C299 H314 0.961 . S
C299 H315 0.960 . S
H300 C284 0.931 . S
H301 C289 0.929 . S
H302 C290 0.960 . S
H303 C290 0.962 . S
H304 C290 0.960 . S
H305 C291 0.961 . S
H306 C291 0.961 . S
H307 C291 0.961 . S
H308 C292 0.931 . S
H309 C297 0.930 . S
H310 C298 0.956 . S
H311 C298 0.961 . S
H312 C298 0.961 . S
H313 C299 0.958 . S
H314 C299 0.961 . S
H315 C299 0.960 . S
C316 C317 1.391 . S
C316 C318 1.394 . S
C316 H332 0.931 . S
C317 C316 1.391 . S
C317 C321 1.376 . S
C318 C316 1.394 . S
C318 C319 1.369 . S
C318 C322 1.531 . S
C319 C318 1.369 . S
C319 C320 1.410 . S
C319 C327 1.503 . S
C320 C319 1.410 . S
C320 C321 1.392 . S
C320 C323 1.511 . S
C321 C317 1.376 . S
C321 C320 1.392 . S
C321 H333 0.929 . S
C322 C318 1.531 . S
C322 H334 0.960 . S
C322 H335 0.962 . S
C322 H336 0.960 . S
C323 C320 1.511 . S
C323 H337 0.961 . S
C323 H338 0.961 . S
C323 H339 0.961 . S
C324 C325 1.370 . S
C324 C326 1.363 . S
C324 H340 0.931 . S
C325 C324 1.370 . S
C325 C329 1.408 . S
C326 C324 1.363 . S
C326 C327 1.370 . S
C326 C330 1.524 . S
C327 C319 1.503 . S
C327 C326 1.370 . S
C327 C328 1.403 . S
C328 C327 1.403 . S
C328 C329 1.404 . S
C328 C331 1.539 . S
C329 C325 1.408 . S
C329 C328 1.404 . S
C329 H341 0.930 . S
C330 C326 1.524 . S
C330 H342 0.956 . S
C330 H343 0.961 . S
C330 H344 0.961 . S
C331 C328 1.539 . S
C331 H345 0.958 . S
C331 H346 0.961 . S
C331 H347 0.960 . S
H332 C316 0.931 . S
H333 C321 0.929 . S
H334 C322 0.960 . S
H335 C322 0.962 . S
H336 C322 0.960 . S
H337 C323 0.961 . S
H338 C323 0.961 . S
H339 C323 0.961 . S
H340 C324 0.931 . S
H341 C329 0.930 . S
H342 C330 0.956 . S
H343 C330 0.961 . S
H344 C330 0.961 . S
H345 C331 0.958 . S
H346 C331 0.961 . S
H347 C331 0.960 . S
C348 C349 1.391 . S
C348 C350 1.394 1_655 S
C348 H364 0.931 . S
C349 C348 1.391 . S
C349 C353 1.376 . S
C350 C348 1.394 1_455 S
C350 C351 1.369 1_455 S
C350 C354 1.531 . S
C351 C350 1.369 1_655 S
C351 C352 1.410 . S
C351 C359 1.503 1_655 S
C352 C351 1.410 . S
C352 C353 1.392 . S
C352 C355 1.511 . S
C353 C349 1.376 . S
C353 C352 1.392 . S
C353 H365 0.929 . S
C354 C350 1.531 . S
C354 H366 0.960 . S
C354 H367 0.962 . S
C354 H368 0.960 . S
C355 C352 1.511 . S
C355 H369 0.961 . S
C355 H370 0.961 . S
C355 H371 0.961 . S
C356 C357 1.370 . S
C356 C358 1.363 . S
C356 H372 0.931 . S
C357 C356 1.370 . S
C357 C361 1.408 . S
C358 C356 1.363 . S
C358 C359 1.370 . S
C358 C362 1.524 . S
C359 C351 1.503 1_455 S
C359 C358 1.370 . S
C359 C360 1.403 . S
C360 C359 1.403 . S
C360 C361 1.404 . S
C360 C363 1.539 1_455 S
C361 C357 1.408 . S
C361 C360 1.404 . S
C361 H373 0.930 . S
C362 C358 1.524 . S
C362 H374 0.956 . S
C362 H375 0.961 . S
C362 H376 0.961 . S
C363 C360 1.539 1_655 S
C363 H377 0.958 . S
C363 H378 0.961 . S
C363 H379 0.960 . S
H364 C348 0.931 . S
H365 C353 0.929 . S
H366 C354 0.960 . S
H367 C354 0.962 . S
H368 C354 0.960 . S
H369 C355 0.961 . S
H370 C355 0.961 . S
H371 C355 0.961 . S
H372 C356 0.931 . S
H373 C361 0.930 . S
H374 C362 0.956 . S
H375 C362 0.961 . S
H376 C362 0.961 . S
H377 C363 0.958 . S
H378 C363 0.961 . S
H379 C363 0.960 . S
C380 C381 1.391 . S
C380 C382 1.394 . S
C380 H396 0.931 . S
C381 C380 1.391 . S
C381 C385 1.376 . S
C382 C380 1.394 . S
C382 C383 1.369 . S
C382 C386 1.531 . S
C383 C382 1.369 . S
C383 C384 1.410 1_655 S
C383 C391 1.503 1_655 S
C384 C383 1.410 1_455 S
C384 C385 1.392 1_455 S
C384 C387 1.511 . S
C385 C381 1.376 . S
C385 C384 1.392 1_655 S
C385 H397 0.929 1_655 S
C386 C382 1.531 . S
C386 H398 0.960 . S
C386 H399 0.962 . S
C386 H400 0.960 . S
C387 C384 1.511 . S
C387 H401 0.961 . S
C387 H402 0.961 . S
C387 H403 0.961 . S
C388 C389 1.370 . S
C388 C390 1.363 . S
C388 H404 0.931 . S
C389 C388 1.370 . S
C389 C393 1.408 . S
C390 C388 1.363 . S
C390 C391 1.370 . S
C390 C394 1.524 1_455 S
C391 C383 1.503 1_455 S
C391 C390 1.370 . S
C391 C392 1.403 . S
C392 C391 1.403 . S
C392 C393 1.404 . S
C392 C395 1.539 . S
C393 C389 1.408 . S
C393 C392 1.404 . S
C393 H405 0.930 . S
C394 C390 1.524 1_655 S
C394 H406 0.956 . S
C394 H407 0.961 . S
C394 H408 0.961 . S
C395 C392 1.539 . S
C395 H409 0.958 . S
C395 H410 0.961 . S
C395 H411 0.960 . S
H396 C380 0.931 . S
H397 C385 0.929 1_455 S
H398 C386 0.960 . S
H399 C386 0.962 . S
H400 C386 0.960 . S
H401 C387 0.961 . S
H402 C387 0.961 . S
H403 C387 0.961 . S
H404 C388 0.931 . S
H405 C393 0.930 . S
H406 C394 0.956 . S
H407 C394 0.961 . S
H408 C394 0.961 . S
H409 C395 0.958 . S
H410 C395 0.961 . S
H411 C395 0.960 . S
C412 C413 1.391 . S
C412 C414 1.394 1_655 S
C412 H428 0.931 . S
C413 C412 1.391 . S
C413 C417 1.376 . S
C414 C412 1.394 1_455 S
C414 C415 1.369 1_455 S
C414 C418 1.531 . S
C415 C414 1.369 1_655 S
C415 C416 1.410 . S
C415 C423 1.503 1_655 S
C416 C415 1.410 . S
C416 C417 1.392 . S
C416 C419 1.511 . S
C417 C413 1.376 . S
C417 C416 1.392 . S
C417 H429 0.929 . S
C418 C414 1.531 . S
C418 H430 0.960 . S
C418 H431 0.962 . S
C418 H432 0.960 . S
C419 C416 1.511 . S
C419 H433 0.961 . S
C419 H434 0.961 . S
C419 H435 0.961 . S
C420 C421 1.370 . S
C420 C422 1.363 1_455 S
C420 H436 0.931 1_455 S
C421 C420 1.370 . S
C421 C425 1.408 . S
C422 C420 1.363 1_655 S
C422 C423 1.370 1_655 S
C422 C426 1.524 . S
C423 C415 1.503 1_455 S
C423 C422 1.370 1_455 S
C423 C424 1.403 . S
C424 C423 1.403 . S
C424 C425 1.404 . S
C424 C427 1.539 . S
C425 C421 1.408 . S
C425 C424 1.404 . S
C425 H437 0.930 . S
C426 C422 1.524 . S
C426 H438 0.956 . S
C426 H439 0.961 . S
C426 H440 0.961 . S
C427 C424 1.539 . S
C427 H441 0.958 . S
C427 H442 0.961 . S
C427 H443 0.960 . S
H428 C412 0.931 . S
H429 C417 0.929 . S
H430 C418 0.960 . S
H431 C418 0.962 . S
H432 C418 0.960 . S
H433 C419 0.961 . S
H434 C419 0.961 . S
H435 C419 0.961 . S
H436 C420 0.931 1_655 S
H437 C425 0.930 . S
H438 C426 0.956 . S
H439 C426 0.961 . S
H440 C426 0.961 . S
H441 C427 0.958 . S
H442 C427 0.961 . S
H443 C427 0.960 . S
C444 C445 1.391 . S
C444 C446 1.394 1_455 S
C444 H460 0.931 1_455 S
C445 C444 1.391 . S
C445 C449 1.376 . S
C446 C444 1.394 1_655 S
C446 C447 1.369 1_655 S
C446 C450 1.531 . S
C447 C446 1.369 1_455 S
C447 C448 1.410 . S
C447 C455 1.503 1_455 S
C448 C447 1.410 . S
C448 C449 1.392 . S
C448 C451 1.511 . S
C449 C445 1.376 . S
C449 C448 1.392 . S
C449 H461 0.929 . S
C450 C446 1.531 . S
C450 H462 0.960 . S
C450 H463 0.962 . S
C450 H464 0.960 . S
C451 C448 1.511 . S
C451 H465 0.961 . S
C451 H466 0.961 . S
C451 H467 0.961 . S
C452 C453 1.370 . S
C452 C454 1.363 . S
C452 H468 0.931 . S
C453 C452 1.370 . S
C453 C457 1.408 . S
C454 C452 1.363 . S
C454 C455 1.370 . S
C454 C458 1.524 1_655 S
C455 C447 1.503 1_655 S
C455 C454 1.370 . S
C455 C456 1.403 . S
C456 C455 1.403 . S
C456 C457 1.404 . S
C456 C459 1.539 . S
C457 C453 1.408 . S
C457 C456 1.404 . S
C457 H469 0.930 . S
C458 C454 1.524 1_455 S
C458 H470 0.956 . S
C458 H471 0.961 . S
C458 H472 0.961 . S
C459 C456 1.539 . S
C459 H473 0.958 . S
C459 H474 0.961 . S
C459 H475 0.960 . S
H460 C444 0.931 1_655 S
H461 C449 0.929 . S
H462 C450 0.960 . S
H463 C450 0.962 . S
H464 C450 0.960 . S
H465 C451 0.961 . S
H466 C451 0.961 . S
H467 C451 0.961 . S
H468 C452 0.931 . S
H469 C457 0.930 . S
H470 C458 0.956 . S
H471 C458 0.961 . S
H472 C458 0.961 . S
H473 C459 0.958 . S
H474 C459 0.961 . S
H475 C459 0.960 . S
C93 C40 1.666 . S
C101 C16 1.689 . S
C125 C63 1.670 . S
C133 C85 1.685 . S
C157 C17 1.674 . S
C165 C39 1.687 . S
C189 C86 1.702 . S
C197 C62 1.673 . S
C221 C89 0.978 . S
C229 C20 0.930 . S
C253 C44 0.940 . S
C261 C67 0.929 . S
C285 C42 0.741 . S
C293 C65 0.793 . S
C317 C87 0.832 . S
C325 C18 0.856 . S
C349 C43 0.852 . S
C357 C66 0.909 . S
C381 C90 0.973 . S
C389 C21 0.945 . S
C413 C88 0.826 . S
C421 C19 0.761 . S
C445 C64 0.837 . S
C453 C41 0.843 . S
