# Generated by pormake.
# Topology mdf, (4)-cn, num edge types: 1
# Building blocks:
#     Node 0, Type 0, BuildingBlock: UXUYUI_clean_sbu_0, # of connection points: 4
#     Node 1, Type 0, BuildingBlock: UXUYUI_clean_sbu_0, # of connection points: 4
#     Node 2, Type 0, BuildingBlock: UXUYUI_clean_sbu_0, # of connection points: 4
#     Node 3, Type 0, BuildingBlock: UXUYUI_clean_sbu_0, # of connection points: 4
#     Node 4, Type 0, BuildingBlock: UXUYUI_clean_sbu_0, # of connection points: 4
#     Node 5, Type 0, BuildingBlock: UXUYUI_clean_sbu_0, # of connection points: 4
#     Node 6, Type 0, BuildingBlock: UXUYUI_clean_sbu_0, # of connection points: 4
#     Node 7, Type 0, BuildingBlock: UXUYUI_clean_sbu_0, # of connection points: 4
#     Edge 8, Type (0, 0), BuildingBlock: CIFDUS_clean_linker_0, # of connection points: 2
#     Edge 9, Type (0, 0), BuildingBlock: CIFDUS_clean_linker_0, # of connection points: 2
#     Edge 10, Type (0, 0), BuildingBlock: CIFDUS_clean_linker_0, # of connection points: 2
#     Edge 11, Type (0, 0), BuildingBlock: CIFDUS_clean_linker_0, # of connection points: 2
#     Edge 12, Type (0, 0), BuildingBlock: CIFDUS_clean_linker_0, # of connection points: 2
#     Edge 13, Type (0, 0), BuildingBlock: CIFDUS_clean_linker_0, # of connection points: 2
#     Edge 14, Type (0, 0), BuildingBlock: CIFDUS_clean_linker_0, # of connection points: 2
#     Edge 15, Type (0, 0), BuildingBlock: CIFDUS_clean_linker_0, # of connection points: 2
#     Edge 16, Type (0, 0), BuildingBlock: CIFDUS_clean_linker_0, # of connection points: 2
#     Edge 17, Type (0, 0), BuildingBlock: CIFDUS_clean_linker_0, # of connection points: 2
#     Edge 18, Type (0, 0), BuildingBlock: CIFDUS_clean_linker_0, # of connection points: 2
#     Edge 19, Type (0, 0), BuildingBlock: CIFDUS_clean_linker_0, # of connection points: 2
#     Edge 20, Type (0, 0), BuildingBlock: CIFDUS_clean_linker_0, # of connection points: 2
#     Edge 21, Type (0, 0), BuildingBlock: CIFDUS_clean_linker_0, # of connection points: 2
#     Edge 22, Type (0, 0), BuildingBlock: CIFDUS_clean_linker_0, # of connection points: 2
#     Edge 23, Type (0, 0), BuildingBlock: CIFDUS_clean_linker_0, # of connection points: 2
# Relax obj value: 0.090
# Max RMSD: 0.078
# Mean RMSD: 0.078
data_MOF--net-mdf--node1-UXUYUI_clean_sbu_0--edge1-CIFDUS_clean_linker_0
_symmetry_space_group_name_H-M    P1
_symmetry_Int_Tables_number       1
_symmetry_cell_setting            triclinic
loop_
_symmetry_equiv_pos_as_xyz
'x, y, z'
_cell_length_a     45.872981
_cell_length_b     45.988658
_cell_length_c     20.88553
_cell_angle_alpha  90.095722
_cell_angle_beta   89.96506
_cell_angle_gamma 90.11151
loop_
_atom_site_label
_atom_site_type_symbol
_atom_site_fract_x
_atom_site_fract_y
_atom_site_fract_z
_atom_type_partial_charge
Li0 Li 0.25308 0.57527 0.4431 0.0
Li1 Li 0.23835 0.53973 0.36541 0.0
Li2 Li 0.28825 0.5375 0.41482 0.0
Li3 Li 0.2745 0.57691 0.33592 0.0
C4 C 0.22571 0.52443 0.49049 0.0
N5 N 0.17701 0.50729 0.55862 0.0
C6 C 0.19994 0.54048 0.48652 0.0
C7 C 0.22673 0.49966 0.52902 0.0
C8 C 0.17556 0.53147 0.52135 0.0
C9 C 0.20187 0.49135 0.56313 0.0
C10 C 0.21098 0.58976 0.31977 0.0
C11 C 0.19112 0.59162 0.21298 0.0
N12 N 0.16593 0.6028 0.23694 0.0
C13 C 0.18498 0.60146 0.34331 0.0
C14 C 0.21415 0.58491 0.2541 0.0
C15 C 0.16243 0.6078 0.30068 0.0
C16 C 0.22426 0.62226 0.50733 0.0
N17 N 0.23979 0.59736 0.51503 0.0
C18 C 0.23298 0.59924 0.62836 0.0
C19 C 0.24476 0.58604 0.57406 0.0
C20 C 0.21576 0.62432 0.62196 0.0
C21 C 0.21198 0.63621 0.5605 0.0
H22 H 0.22071 0.6308 0.45977 0.0
H23 H 0.25732 0.56628 0.57873 0.0
C24 C 0.21711 0.48641 0.32277 0.0
N25 N 0.20823 0.51385 0.33697 0.0
C26 C 0.19677 0.46487 0.30751 0.0
C27 C 0.15836 0.50021 0.32114 0.0
C28 C 0.17948 0.52108 0.33632 0.0
C29 C 0.16689 0.47154 0.30726 0.0
H30 H 0.24005 0.48109 0.32471 0.0
H31 H 0.17276 0.54271 0.34968 0.0
C32 C 0.30189 0.60403 0.45564 0.0
N33 N 0.31327 0.65251 0.52988 0.0
C34 C 0.29728 0.63185 0.43089 0.0
C35 C 0.3122 0.60084 0.5182 0.0
C36 C 0.30318 0.6561 0.46918 0.0
C37 C 0.31785 0.62563 0.55495 0.0
C38 C 0.28585 0.523 0.26727 0.0
C39 C 0.31471 0.51372 0.26097 0.0
C40 C 0.26679 0.52043 0.21539 0.0
C41 C 0.32421 0.50261 0.20228 0.0
C42 C 0.27711 0.50917 0.15752 0.0
N43 N 0.30537 0.50061 0.15218 0.0
C44 C 0.31477 0.48298 0.42641 0.0
C45 C 0.34225 0.52155 0.47184 0.0
C46 C 0.33616 0.4629 0.44377 0.0
N47 N 0.31818 0.51163 0.44071 0.0
C48 C 0.36402 0.50217 0.49082 0.0
C49 C 0.36112 0.47242 0.47671 0.0
H50 H 0.29541 0.47579 0.40138 0.0
H51 H 0.3446 0.5445 0.48171 0.0
C52 C 0.27818 0.62367 0.24375 0.0
N53 N 0.29122 0.59959 0.26832 0.0
C54 C 0.29174 0.6395 0.19475 0.0
C55 C 0.33184 0.60558 0.19782 0.0
C56 C 0.31772 0.5907 0.24702 0.0
C57 C 0.319 0.63048 0.17096 0.0
H58 H 0.25744 0.63081 0.26264 0.0
H59 H 0.32804 0.57208 0.26865 0.0
O60 O 0.24984 0.53269 0.45651 0.0
O61 O 0.23312 0.58312 0.36104 0.0
O62 O 0.29575 0.58005 0.41918 0.0
O63 O 0.27617 0.53373 0.32458 0.0
H64 H 0.19874 0.55965 0.45678 0.0
H65 H 0.24653 0.48698 0.53243 0.0
H66 H 0.15546 0.54368 0.51869 0.0
H67 H 0.20233 0.47221 0.59315 0.0
H68 H 0.19328 0.58796 0.16203 0.0
H69 H 0.18212 0.6053 0.39405 0.0
H70 H 0.23423 0.57623 0.23503 0.0
H71 H 0.14211 0.6166 0.31834 0.0
H72 H 0.23692 0.58961 0.67482 0.0
H73 H 0.19873 0.65538 0.55324 0.0
H74 H 0.20436 0.44314 0.29655 0.0
H75 H 0.13555 0.5062 0.32253 0.0
H76 H 0.28904 0.63469 0.3828 0.0
H77 H 0.31543 0.57946 0.53851 0.0
H78 H 0.29968 0.67777 0.45067 0.0
H79 H 0.32577 0.6235 0.6035 0.0
H80 H 0.32968 0.51532 0.30087 0.0
H81 H 0.24419 0.52675 0.21988 0.0
H82 H 0.34654 0.49555 0.19658 0.0
H83 H 0.26262 0.50713 0.11691 0.0
H84 H 0.333 0.44012 0.43245 0.0
H85 H 0.3831 0.5104 0.51549 0.0
H86 H 0.2812 0.65884 0.17658 0.0
H87 H 0.35259 0.59745 0.18087 0.0
Li88 Li 0.43551 0.74718 0.68669 0.0
Li89 Li 0.47269 0.73287 0.61048 0.0
Li90 Li 0.47352 0.78328 0.65179 0.0
Li91 Li 0.4363 0.7663 0.57581 0.0
C92 C 0.49114 0.7246 0.73441 0.0
N93 N 0.51783 0.68032 0.80164 0.0
C94 C 0.47586 0.69905 0.7483 0.0
C95 C 0.51998 0.72766 0.75494 0.0
C96 C 0.48973 0.67691 0.78229 0.0
C97 C 0.5331 0.70501 0.7888 0.0
C98 C 0.42863 0.69795 0.58111 0.0
C99 C 0.43776 0.66363 0.49592 0.0
N100 N 0.42648 0.64199 0.53273 0.0
C101 C 0.41717 0.67534 0.61811 0.0
C102 C 0.439 0.69205 0.51949 0.0
C103 C 0.41624 0.64721 0.59277 0.0
C104 C 0.38537 0.72301 0.74694 0.0
N105 N 0.41177 0.73554 0.75772 0.0
C106 C 0.40651 0.72853 0.87057 0.0
C107 C 0.42235 0.73875 0.8181 0.0
C108 C 0.37966 0.7143 0.86101 0.0
C109 C 0.36899 0.71198 0.79799 0.0
H110 H 0.3774 0.72082 0.69844 0.0
H111 H 0.44344 0.74873 0.8255 0.0
C112 C 0.52305 0.71188 0.55072 0.0
N113 N 0.49981 0.70288 0.58596 0.0
C114 C 0.545 0.69236 0.53367 0.0
C115 C 0.51878 0.65443 0.58918 0.0
C116 C 0.49731 0.67472 0.60519 0.0
C117 C 0.5432 0.66322 0.55336 0.0
H118 H 0.52479 0.73441 0.53654 0.0
H119 H 0.47888 0.66796 0.63371 0.0
C120 C 0.42145 0.80594 0.70668 0.0
N121 N 0.40329 0.84042 0.80751 0.0
C122 C 0.39631 0.82284 0.70089 0.0
C123 C 0.43735 0.80654 0.76373 0.0
C124 C 0.38749 0.84016 0.75241 0.0
C125 C 0.42781 0.82411 0.81416 0.0
C126 C 0.48053 0.78406 0.50692 0.0
C127 C 0.48062 0.81445 0.50669 0.0
C128 C 0.481 0.76886 0.44893 0.0
C129 C 0.48087 0.82917 0.44823 0.0
C130 C 0.4812 0.78438 0.39148 0.0
N131 N 0.48111 0.81396 0.39232 0.0
C132 C 0.5283 0.80549 0.67608 0.0
C133 C 0.49184 0.84136 0.69004 0.0
C134 C 0.55001 0.82524 0.69342 0.0
N135 N 0.49986 0.81362 0.67573 0.0
C136 C 0.51292 0.86192 0.70777 0.0
C137 C 0.54248 0.85385 0.71027 0.0
H138 H 0.5341 0.78355 0.66247 0.0
H139 H 0.46916 0.84757 0.68778 0.0
C140 C 0.40368 0.76114 0.45949 0.0
N141 N 0.41305 0.77978 0.50574 0.0
C142 C 0.38879 0.77161 0.40595 0.0
C143 C 0.39258 0.82016 0.44954 0.0
C144 C 0.40747 0.80876 0.50215 0.0
C145 C 0.3833 0.80153 0.40013 0.0
H146 H 0.40802 0.7382 0.46361 0.0
H147 H 0.41526 0.82312 0.53951 0.0
O148 O 0.47798 0.74649 0.70088 0.0
O149 O 0.42939 0.72573 0.6048 0.0
O150 O 0.43027 0.78885 0.65664 0.0
O151 O 0.47938 0.76927 0.5636 0.0
H152 H 0.45368 0.69612 0.73215 0.0
H153 H 0.53211 0.74732 0.74502 0.0
H154 H 0.47819 0.65697 0.79302 0.0
H155 H 0.55541 0.70708 0.8049 0.0
H156 H 0.44586 0.65877 0.44846 0.0
H157 H 0.40917 0.67936 0.66598 0.0
H158 H 0.44835 0.70914 0.49054 0.0
H159 H 0.40742 0.62952 0.62089 0.0
H160 H 0.41544 0.73155 0.91807 0.0
H161 H 0.34865 0.70095 0.78774 0.0
H162 H 0.56322 0.70007 0.50536 0.0
H163 H 0.51663 0.63228 0.60609 0.0
H164 H 0.38376 0.82259 0.657 0.0
H165 H 0.45695 0.79373 0.76888 0.0
H166 H 0.36809 0.85337 0.74861 0.0
H167 H 0.43992 0.82481 0.85856 0.0
H168 H 0.48005 0.82654 0.55113 0.0
H169 H 0.48107 0.74535 0.44828 0.0
H170 H 0.48073 0.85268 0.4473 0.0
H171 H 0.4814 0.77291 0.34622 0.0
H172 H 0.57253 0.81822 0.69302 0.0
H173 H 0.50611 0.88373 0.72033 0.0
H174 H 0.38166 0.75642 0.36948 0.0
H175 H 0.3891 0.84341 0.44675 0.0
Li176 Li 0.27862 0.96702 0.85456 0.0
Li177 Li 0.26304 0.93401 0.93998 0.0
Li178 Li 0.24324 0.92964 0.8307 0.0
Li179 Li 0.22924 0.97004 0.90057 0.0
C180 C 0.31235 0.92117 0.84225 0.0
N181 N 0.37045 0.91732 0.80829 0.0
C182 C 0.33352 0.91602 0.88896 0.0
C183 C 0.32072 0.92431 0.77826 0.0
C184 C 0.36278 0.91413 0.87081 0.0
C185 C 0.35021 0.92234 0.76208 0.0
C186 C 0.26151 1.00195 0.97477 0.0
C187 C 0.23805 0.0283 0.06039 0.0
N188 N 0.24726 0.05376 0.03416 0.0
C189 C 0.27076 0.02838 0.94867 0.0
C190 C 0.24506 1.00188 0.03116 0.0
C191 C 0.26335 0.05433 0.97945 0.0
C192 C 0.31058 1.00403 0.76936 0.0
N193 N 0.31112 0.98958 0.82606 0.0
C194 C 0.35777 0.00986 0.85126 0.0
C195 C 0.3341 0.99209 0.86678 0.0
C196 C 0.35778 0.02539 0.79333 0.0
C197 C 0.33383 0.02206 0.75185 0.0
H198 H 0.29187 1.00201 0.73827 0.0
H199 H 0.33369 0.98075 0.9121 0.0
C200 C 0.27947 0.88441 0.01438 0.0
N201 N 0.27652 0.91384 0.01439 0.0
C202 C 0.29001 0.8701 0.06872 0.0
C203 C 0.29457 0.91666 0.12156 0.0
C204 C 0.284 0.93002 0.06635 0.0
C205 C 0.29772 0.88629 0.12337 0.0
H206 H 0.27378 0.87208 0.97205 0.0
H207 H 0.28218 0.9534 0.06469 0.0
C208 C 0.22691 0.9711 0.75265 0.0
N209 N 0.19696 0.96656 0.63833 0.0
C210 C 0.19685 0.97591 0.75088 0.0
C211 C 0.24177 0.96411 0.69625 0.0
C212 C 0.1821 0.97352 0.69259 0.0
C213 C 0.22622 0.96185 0.63895 0.0
C214 C 0.21349 0.90632 0.95322 0.0
C215 C 0.212 0.87777 0.93036 0.0
C216 C 0.20753 0.91203 0.01769 0.0
C217 C 0.20452 0.85538 0.97245 0.0
C218 C 0.20021 0.88902 0.05828 0.0
N219 N 0.19885 0.86141 0.035 0.0
C220 C 0.24439 0.88961 0.7239 0.0
C221 C 0.19792 0.90268 0.76417 0.0
C222 C 0.23147 0.87297 0.67533 0.0
N223 N 0.22748 0.90423 0.76665 0.0
C224 C 0.18414 0.88637 0.7166 0.0
C225 C 0.2009 0.8713 0.67105 0.0
H226 H 0.26785 0.89113 0.72697 0.0
H227 H 0.18502 0.91464 0.79862 0.0
C228 C 0.19907 0.02343 0.89663 0.0
N229 N 0.19837 0.99622 0.92189 0.0
C230 C 0.17712 0.04339 0.91115 0.0
C231 C 0.15394 0.00688 0.97697 0.0
C232 C 0.17633 0.98761 0.96108 0.0
C233 C 0.15413 0.03525 0.95196 0.0
H234 H 0.21671 0.02958 0.865 0.0
H235 H 0.17614 0.96579 0.9801 0.0
O236 O 0.28361 0.92322 0.8591 0.0
O237 O 0.26786 0.97633 0.94446 0.0
O238 O 0.24161 0.97255 0.80954 0.0
O239 O 0.22102 0.92853 0.9129 0.0
H240 H 0.32747 0.91364 0.93874 0.0
H241 H 0.30466 0.92859 0.74159 0.0
H242 H 0.3794 0.91017 0.90645 0.0
H243 H 0.35701 0.92485 0.71279 0.0
H244 H 0.22516 0.02857 0.10378 0.0
H245 H 0.28323 0.02892 0.90474 0.0
H246 H 0.23735 0.98166 0.05153 0.0
H247 H 0.27028 0.07494 0.95966 0.0
H248 H 0.37546 0.01209 0.88524 0.0
H249 H 0.333 0.03336 0.70645 0.0
H250 H 0.29195 0.84664 0.06805 0.0
H251 H 0.30083 0.93009 0.16194 0.0
H252 H 0.18494 0.98105 0.79413 0.0
H253 H 0.26497 0.95998 0.69688 0.0
H254 H 0.15881 0.97704 0.69055 0.0
H255 H 0.2374 0.95623 0.59504 0.0
H256 H 0.2168 0.87289 0.8808 0.0
H257 H 0.20898 0.93392 0.03644 0.0
H258 H 0.20332 0.83318 0.95543 0.0
H259 H 0.19568 0.8931 0.10833 0.0
H260 H 0.24526 0.86147 0.6417 0.0
H261 H 0.16055 0.88616 0.71471 0.0
H262 H 0.17796 0.06483 0.88988 0.0
H263 H 0.13685 0.99971 0.0091 0.0
Li264 Li 0.03749 0.77896 0.10429 0.0
Li265 Li 0.07554 0.76525 0.18407 0.0
Li266 Li 0.07654 0.74586 0.07097 0.0
Li267 Li 0.03988 0.73082 0.14551 0.0
C268 C 0.08777 0.81545 0.11358 0.0
N269 N 0.10259 0.87241 0.14075 0.0
C270 C 0.07267 0.83085 0.16085 0.0
C271 C 0.1104 0.82902 0.08012 0.0
C272 C 0.08051 0.85962 0.17391 0.0
C273 C 0.11755 0.85785 0.09452 0.0
C274 C 0.01691 0.75619 0.24516 0.0
C275 C 0.01455 0.73044 0.3456 0.0
N276 N 0.98499 0.73251 0.3446 0.0
C277 C 0.98651 0.75818 0.2453 0.0
C278 C 0.03106 0.74224 0.29577 0.0
C279 C 0.97076 0.74602 0.29592 0.0
C280 C 0.98215 0.80058 0.08032 0.0
N281 N 0.01071 0.80817 0.07586 0.0
C282 C 0.99777 0.85443 0.03201 0.0
C283 C 0.01887 0.83431 0.05111 0.0
C284 C 0.96802 0.84745 0.03767 0.0
C285 C 0.96037 0.81998 0.06188 0.0
H286 H 0.9763 0.77928 0.09795 0.0
H287 H 0.04167 0.83954 0.0455 0.0
C288 C 0.12817 0.77495 0.2533 0.0
N289 N 0.09886 0.77933 0.25349 0.0
C290 C 0.14546 0.78605 0.3029 0.0
C291 C 0.10205 0.80579 0.35191 0.0
C292 C 0.08568 0.79454 0.30127 0.0
C293 C 0.13238 0.80166 0.3532 0.0
H294 H 0.1381 0.76296 0.21441 0.0
H295 H 0.06242 0.79821 0.29973 0.0
C296 C 0.02899 0.74884 0.99231 0.0
N297 N 0.0189 0.76185 0.86504 0.0
C298 C 0.00957 0.732 0.9563 0.0
C299 C 0.04337 0.77223 0.96337 0.0
C300 C 1.00475 0.73894 0.89208 0.0
C301 C 0.03794 0.77848 0.89906 0.0
C302 C 0.08779 0.69819 0.17608 0.0
C303 C 0.08304 0.67395 0.137 0.0
C304 C 0.09788 0.69439 0.23863 0.0
C305 C 0.0881 0.64617 0.16158 0.0
C306 C 0.10269 0.66627 0.2614 0.0
N307 N 0.09772 0.64294 0.22276 0.0
C308 C 0.126 0.74678 0.98679 0.0
C309 C 0.09097 0.70981 0.96795 0.0
C310 C 0.14299 0.73676 0.93558 0.0
N311 N 0.10056 0.73318 1.00185 0.0
C312 C 0.1072 0.6991 0.91662 0.0
C313 C 0.13369 0.71248 0.89992 0.0
H314 H 0.13316 0.76528 0.01472 0.0
H315 H 0.07057 0.69952 0.98073 0.0
C316 C 0.99055 0.69621 0.13008 0.0
N317 N 0.01456 0.69878 0.16779 0.0
C318 C 0.97024 0.67412 0.14081 0.0
C319 C 0.99916 0.65794 0.23045 0.0
C320 C 0.01902 0.68035 0.21777 0.0
C321 C 0.97444 0.6545 0.19139 0.0
H322 H 0.98698 0.71159 0.09187 0.0
H323 H 0.0378 0.68306 0.24828 0.0
O324 O 0.08078 0.78713 0.10045 0.0
O325 O 0.03276 0.76738 0.19534 0.0
O326 O 0.03397 0.74206 0.05523 0.0
O327 O 0.08315 0.72556 0.15297 0.0
H328 H 0.05496 0.82079 0.18688 0.0
H329 H 0.12231 0.81743 0.04337 0.0
H330 H 0.06901 0.87179 0.21035 0.0
H331 H 0.13496 0.86865 0.06891 0.0
H332 H 0.02523 0.71944 0.38483 0.0
H333 H 0.97514 0.76894 0.20682 0.0
H334 H 0.05452 0.74009 0.29606 0.0
H335 H 0.94722 0.74732 0.29651 0.0
H336 H 1.0047 0.87506 0.01218 0.0
H337 H 0.93777 0.8136 0.06731 0.0
H338 H 0.16876 0.78229 0.30216 0.0
H339 H 0.09113 0.81813 0.38902 0.0
H340 H 0.99842 0.71366 0.97762 0.0
H341 H 0.05861 0.78547 0.98996 0.0
H342 H 0.98977 0.72608 0.86371 0.0
H343 H 0.0489 0.79653 0.87617 0.0
H344 H 0.07524 0.67655 0.08849 0.0
H345 H 0.10187 0.71297 0.26929 0.0
H346 H 0.08435 0.62718 0.13206 0.0
H347 H 0.11035 0.663 0.30982 0.0
H348 H 0.16338 0.7476 0.92473 0.0
H349 H 0.0989 0.68066 0.8899 0.0
H350 H 0.95118 0.67272 0.11037 0.0
H351 H 1.00328 0.64331 0.26997 0.0
Li352 Li 0.74707 0.07842 0.93292 0.0
Li353 Li 0.7326 0.04281 0.85035 0.0
Li354 Li 0.78311 0.04163 0.90232 0.0
Li355 Li 0.7705 0.07944 0.82405 0.0
C356 C 0.72956 0.03033 0.9973 0.0
N357 N 0.70026 0.02122 0.11117 0.0
C358 C 0.69915 0.02857 0.99802 0.0
C359 C 0.7451 0.02696 0.05433 0.0
C360 C 0.68472 0.0241 0.05611 0.0
C361 C 0.72988 0.0225 0.11145 0.0
C362 C 0.70756 0.09638 0.80825 0.0
C363 C 0.68415 0.09783 0.70491 0.0
N364 N 0.66435 0.11711 0.72829 0.0
C365 C 0.68703 0.11626 0.83121 0.0
C366 C 0.70618 0.08716 0.74456 0.0
C367 C 0.66536 0.12648 0.79005 0.0
C368 C 0.7476 0.11583 0.04379 0.0
N369 N 0.73079 0.10074 1.00159 0.0
C370 C 0.68745 0.11567 0.05609 0.0
C371 C 0.70125 0.10061 0.00661 0.0
C372 C 0.70421 0.13121 0.10091 0.0
C373 C 0.7347 0.13119 0.09423 0.0
H374 H 0.77098 0.11609 0.03835 0.0
H375 H 0.68836 0.08859 0.9722 0.0
C376 C 0.70793 0.99174 0.79991 0.0
N377 N 0.70137 0.01916 0.81943 0.0
C378 C 0.68583 0.97277 0.78028 0.0
C379 C 0.65061 0.01068 0.80068 0.0
C380 C 0.67338 0.02888 0.8202 0.0
C381 C 0.65667 0.9821 0.78088 0.0
H382 H 0.73035 0.9845 0.80032 0.0
H383 H 0.66862 0.05054 0.83737 0.0
C384 C 0.81316 0.09042 0.94522 0.0
N385 N 0.86278 0.10174 0.01616 0.0
C386 C 0.8356 0.10738 0.91945 0.0
C387 C 0.81592 0.07938 0.0072 0.0
C388 C 0.86052 0.11283 0.95605 0.0
C389 C 0.84118 0.08528 0.04226 0.0
C390 C 0.78314 0.02909 0.75303 0.0
C391 C 0.81313 0.02463 0.74665 0.0
C392 C 0.76498 0.02514 0.69999 0.0
C393 C 0.82458 0.01721 0.68683 0.0
C394 C 0.77724 0.01766 0.64099 0.0
N395 N 0.80655 0.01395 0.63565 0.0
C396 C 0.8064 0.9908 0.95794 0.0
C397 C 0.84202 0.02376 0.9192 0.0
C398 C 0.82808 0.97119 0.97622 0.0
N399 N 0.81369 0.01648 0.92998 0.0
C400 C 0.8644 1.00493 0.93719 0.0
C401 C 0.85755 0.97813 0.96575 0.0
H402 H 0.78368 0.98543 0.96541 0.0
H403 H 0.84727 0.04402 0.89567 0.0
C404 C 0.77314 0.12321 0.72453 0.0
N405 N 0.7879 0.10262 0.75808 0.0
C406 C 0.78723 0.13915 0.67652 0.0
C407 C 0.83155 0.11293 0.69964 0.0
C408 C 0.81664 0.09757 0.74699 0.0
C409 C 0.81687 0.13406 0.66349 0.0
H410 H 0.75055 0.12756 0.73525 0.0
H411 H 0.8281 0.08166 0.77543 0.0
O412 O 0.74403 0.03504 0.94096 0.0
O413 O 0.72869 0.08589 0.84825 0.0
O414 O 0.78872 0.08462 0.90978 0.0
O415 O 0.77154 0.03633 0.81133 0.0
H416 H 0.68678 0.03099 0.95432 0.0
H417 H 0.76865 0.02759 0.05451 0.0
H418 H 0.66117 0.02296 0.05743 0.0
H419 H 0.74163 0.01997 0.15598 0.0
H420 H 0.68285 0.09085 0.65551 0.0
H421 H 0.68789 0.12386 0.8802 0.0
H422 H 0.72208 0.07212 0.72589 0.0
H423 H 0.6494 0.14191 0.80719 0.0
H424 H 0.66392 0.11479 0.05971 0.0
H425 H 0.74844 0.14323 0.12711 0.0
H426 H 0.69153 0.95102 0.7648 0.0
H427 H 0.62842 0.01863 0.80279 0.0
H428 H 0.83374 0.11639 0.87185 0.0
H429 H 0.79874 0.06636 0.02793 0.0
H430 H 0.87804 0.12592 0.93671 0.0
H431 H 0.84361 0.07677 0.09022 0.0
H432 H 0.82747 0.02711 0.78731 0.0
H433 H 0.74163 0.02747 0.70434 0.0
H434 H 0.84779 0.014 0.68114 0.0
H435 H 0.76344 0.01467 0.59951 0.0
H436 H 0.82186 0.95086 0.99853 0.0
H437 H 0.8868 0.01096 0.92741 0.0
H438 H 0.77518 0.15559 0.65065 0.0
H439 H 0.85431 0.10806 0.69109 0.0
Li440 Li 0.93974 0.24838 0.18281 0.0
Li441 Li 0.97715 0.23603 0.10225 0.0
Li442 Li 0.97473 0.28687 0.14906 0.0
Li443 Li 0.93866 0.26904 0.0717 0.0
C444 C 0.99572 0.24462 0.24984 0.0
N445 N 0.02254 0.23552 0.36661 0.0
C446 C 0.00885 0.2179 0.26325 0.0
C447 C 0.99672 0.26687 0.29547 0.0
C448 C 0.02213 0.21366 0.32266 0.0
C449 C 0.01026 0.26181 0.35429 0.0
C450 C 0.93267 0.19971 0.07866 0.0
C451 C 0.93837 0.16365 0.99559 0.0
N452 N 0.92949 0.1427 0.03717 0.0
C453 C 0.92349 0.17784 0.1205 0.0
C454 C 0.94005 0.19261 0.0156 0.0
C455 C 0.92205 0.14914 0.09862 0.0
C456 C 0.88946 0.24257 0.26153 0.0
N457 N 0.91722 0.23309 0.25224 0.0
C458 C 0.91303 0.20054 0.34093 0.0
C459 C 0.92904 0.21228 0.29031 0.0
C460 C 0.8844 0.21006 0.35218 0.0
C461 C 0.87257 0.2313 0.3115 0.0
H462 H 0.88043 0.25888 0.23003 0.0
H463 H 0.95072 0.20436 0.28074 0.0
C464 C 0.02489 0.21436 0.0322 0.0
N465 N 1.00395 0.20669 0.07505 0.0
C466 C 0.04622 0.19439 0.01379 0.0
C467 C 0.02387 0.15879 0.08329 0.0
C468 C 1.003 0.1795 0.1005 0.0
C469 C 0.04608 0.16624 0.03989 0.0
H470 H 0.02535 0.23619 0.01312 0.0
H471 H 0.9864 0.17406 0.13525 0.0
C472 C 0.92118 0.30988 0.19669 0.0
N473 N 0.90056 0.35142 0.28113 0.0
C474 C 0.90557 0.33384 0.174 0.0
C475 C 0.92595 0.3069 0.26243 0.0
C476 C 0.89543 0.35466 0.21741 0.0
C477 C 0.91544 0.32816 0.30431 0.0
C478 C 0.98286 0.28812 1.00174 0.0
C479 C 0.98681 0.31824 0.99958 0.0
C480 C 0.97985 0.27242 0.94477 0.0
C481 C 0.9873 0.33224 0.94027 0.0
C482 C 0.9804 0.28723 0.88643 0.0
N483 N 0.98406 0.31659 0.88541 0.0
C484 C 0.02775 0.3127 0.18002 0.0
C485 C 0.98856 0.3461 0.1843 0.0
C486 C 0.04762 0.33464 0.19551 0.0
N487 N 0.99887 0.31872 0.17479 0.0
C488 C 0.00767 0.36873 0.20012 0.0
C489 C 0.03772 0.36319 0.20565 0.0
H490 H 0.03539 0.29081 0.17126 0.0
H491 H 0.96562 0.35057 0.17872 0.0
C492 C 0.90049 0.26222 0.96439 0.0
N493 N 0.91462 0.28168 1.00244 0.0
C494 C 0.88457 0.27179 0.91137 0.0
C495 C 0.89762 0.32123 0.93854 0.0
C496 C 0.91322 0.31071 0.99093 0.0
C497 C 0.88313 0.30168 0.89762 0.0
H498 H 0.90176 0.23926 0.9748 0.0
H499 H 0.92484 0.32569 0.02167 0.0
O500 O 0.98284 0.24917 0.19157 0.0
O501 O 0.93403 0.22796 0.09914 0.0
O502 O 0.93125 0.28932 0.15468 0.0
O503 O 0.98169 0.27411 0.05939 0.0
H504 H 0.00858 0.20052 0.22838 0.0
H505 H 0.9875 0.28797 0.28549 0.0
H506 H 0.03216 0.19301 0.3338 0.0
H507 H 0.01112 0.27883 0.39005 0.0
H508 H 0.94414 0.15784 0.94701 0.0
H509 H 0.91748 0.18295 0.16929 0.0
H510 H 0.94718 0.20925 0.98259 0.0
H511 H 0.915 0.13198 0.13049 0.0
H512 H 0.92278 0.18374 0.37016 0.0
H513 H 0.85062 0.2393 0.31857 0.0
H514 H 0.06273 0.20099 0.97965 0.0
H515 H 0.02313 0.13749 0.10525 0.0
H516 H 0.90136 0.33638 0.12338 0.0
H517 H 0.9373 0.28821 0.28106 0.0
H518 H 0.88344 0.37336 0.20047 0.0
H519 H 0.91902 0.3261 0.35529 0.0
H520 H 0.98916 0.33072 0.04323 0.0
H521 H 0.9769 0.24909 0.94562 0.0
H522 H 0.99016 0.35557 0.93787 0.0
H523 H 0.97788 0.27539 0.84197 0.0
H524 H 0.07058 0.32937 0.19799 0.0
H525 H 0.99898 0.39032 0.20796 0.0
H526 H 0.87346 0.25598 0.88161 0.0
H527 H 0.89755 0.34439 0.92932 0.0
Li528 Li 0.77966 0.47337 0.3569 0.0
Li529 Li 0.76597 0.43616 0.43718 0.0
Li530 Li 0.74645 0.43554 0.32471 0.0
Li531 Li 0.72954 0.47189 0.40087 0.0
C532 C 0.81591 0.42939 0.33728 0.0
N533 N 0.87408 0.42809 0.30302 0.0
C534 C 0.83714 0.42258 0.38279 0.0
C535 C 0.82424 0.43541 0.27429 0.0
C536 C 0.86645 0.42205 0.36452 0.0
C537 C 0.85377 0.43471 0.25795 0.0
C538 C 0.76239 0.50343 0.48182 0.0
C539 C 0.74588 0.5273 0.57814 0.0
N540 N 0.75136 0.55357 0.55078 0.0
C541 C 0.768 0.53066 0.45479 0.0
C542 C 0.75138 0.50171 0.54413 0.0
C543 C 0.76223 0.55575 0.49038 0.0
C544 C 0.80949 0.5159 0.28139 0.0
N545 N 0.81115 0.49851 0.33382 0.0
C546 C 0.85729 0.51905 0.36226 0.0
C547 C 0.83441 0.4997 0.37401 0.0
C548 C 0.85611 0.53763 0.30894 0.0
C549 C 0.83187 0.53566 0.2679 0.0
H550 H 0.79047 0.51495 0.25094 0.0
H551 H 0.83495 0.48588 0.41584 0.0
C552 C 0.77578 0.38605 0.5166 0.0
N553 N 0.78019 0.4151 0.50905 0.0
C554 C 0.7864 0.37186 0.57109 0.0
C555 C 0.80588 0.41775 0.60832 0.0
C556 C 0.79508 0.43094 0.55322 0.0
C557 C 0.80148 0.38785 0.61807 0.0
H558 H 0.76386 0.37399 0.48059 0.0
H559 H 0.7986 0.45393 0.54557 0.0
C560 C 0.7289 0.47923 0.25348 0.0
N561 N 0.70106 0.47901 0.13622 0.0
C562 C 0.69881 0.48368 0.25005 0.0
C563 C 0.74486 0.47486 0.19727 0.0
C564 C 0.68514 0.48348 0.19029 0.0
C565 C 0.73037 0.47473 0.13846 0.0
C566 C 0.7067 0.41626 0.44961 0.0
C567 C 0.68537 0.39674 0.42843 0.0
C568 C 0.70939 0.4221 0.51504 0.0
C569 C 0.66684 0.38366 0.47308 0.0
C570 C 0.69049 0.40854 0.5582 0.0
N571 N 0.66977 0.38978 0.53649 0.0
C572 C 0.75196 0.39713 0.21683 0.0
C573 C 0.70385 0.41028 0.24604 0.0
C574 C 0.7415 0.38117 0.16451 0.0
N575 N 0.7331 0.41147 0.25588 0.0
C576 C 0.69247 0.39478 0.19426 0.0
C577 C 0.71134 0.38001 0.15233 0.0
H578 H 0.77512 0.39826 0.22592 0.0
H579 H 0.68936 0.42199 0.27773 0.0
C580 C 0.6987 0.52437 0.40484 0.0
N581 N 0.69743 0.49637 0.42555 0.0
C582 C 0.6766 0.54401 0.42037 0.0
C583 C 0.65173 0.50556 0.47711 0.0
C584 C 0.67439 0.48669 0.46066 0.0
C585 C 0.65268 0.53469 0.45708 0.0
H586 H 0.71689 0.53142 0.37575 0.0
H587 H 0.67332 0.46437 0.47582 0.0
O588 O 0.78711 0.42997 0.35426 0.0
O589 O 0.7674 0.47861 0.44733 0.0
O590 O 0.74259 0.47876 0.31162 0.0
O591 O 0.72526 0.42893 0.40651 0.0
H592 H 0.83108 0.41779 0.43172 0.0
H593 H 0.80811 0.44081 0.23853 0.0
H594 H 0.88312 0.41685 0.39924 0.0
H595 H 0.86054 0.43943 0.20944 0.0
H596 H 0.73727 0.52628 0.62631 0.0
H597 H 0.77627 0.53248 0.40649 0.0
H598 H 0.7471 0.48087 0.56607 0.0
H599 H 0.76629 0.57696 0.46988 0.0
H600 H 0.87564 0.51952 0.39483 0.0
H601 H 0.82975 0.54986 0.22686 0.0
H602 H 0.78244 0.34879 0.57694 0.0
H603 H 0.81783 0.43079 0.64267 0.0
H604 H 0.68607 0.48689 0.29308 0.0
H605 H 0.76813 0.47123 0.1991 0.0
H606 H 0.66184 0.48674 0.18693 0.0
H607 H 0.74242 0.47116 0.09462 0.0
H608 H 0.68315 0.39173 0.37804 0.0
H609 H 0.72576 0.43708 0.53225 0.0
H610 H 0.65018 0.36858 0.45733 0.0
H611 H 0.69229 0.41295 0.60893 0.0
H612 H 0.75686 0.36983 0.13408 0.0
H613 H 0.66914 0.39498 0.18638 0.0
H614 H 0.678 0.56612 0.40288 0.0
H615 H 0.6338 0.49746 0.50576 0.0
Li616 Li 0.54092 0.27252 0.60653 0.0
Li617 Li 0.57517 0.25881 0.69668 0.0
Li618 Li 0.57951 0.23777 0.58454 0.0
Li619 Li 0.54031 0.22376 0.65183 0.0
C620 C 0.58899 0.30689 0.59465 0.0
N621 N 0.59844 0.36375 0.55724 0.0
C622 C 0.59989 0.32722 0.63838 0.0
C623 C 0.58294 0.31547 0.53188 0.0
C624 C 0.60454 0.35586 0.61851 0.0
C625 C 0.58782 0.34433 0.51393 0.0
C626 C 0.50828 0.25472 0.73132 0.0
C627 C 0.48618 0.23717 0.82865 0.0
N628 N 0.45952 0.23859 0.80035 0.0
C629 C 0.48068 0.25615 0.70325 0.0
C630 C 0.51112 0.24523 0.79453 0.0
C631 C 0.45629 0.24783 0.73892 0.0
C632 C 0.495 0.29591 0.53387 0.0
N633 N 0.51644 0.30308 0.57592 0.0
C634 C 0.50018 0.35248 0.57822 0.0
C635 C 0.5191 0.33063 0.59896 0.0
C636 C 0.47784 0.34577 0.53445 0.0
C637 C 0.47543 0.31695 0.51239 0.0
H638 H 0.49267 0.27363 0.51807 0.0
H639 H 0.53578 0.33564 0.63383 0.0
C640 C 0.62366 0.26918 0.77924 0.0
N641 N 0.59471 0.27391 0.77002 0.0
C642 C 0.63773 0.28073 0.83307 0.0
C643 C 0.59195 0.30185 0.86639 0.0
C644 C 0.57885 0.2901 0.81186 0.0
C645 C 0.62176 0.29717 0.87771 0.0
H646 H 0.63577 0.25637 0.74486 0.0
H647 H 0.55601 0.29401 0.80266 0.0
C648 C 0.54002 0.22311 0.50187 0.0
N649 N 0.54698 0.19867 0.38191 0.0
C650 C 0.54379 0.1931 0.49538 0.0
C651 C 0.53956 0.24067 0.44732 0.0
C652 C 0.54736 0.18117 0.43433 0.0
C653 C 0.54314 0.2279 0.38709 0.0
C654 C 0.58344 0.19287 0.70498 0.0
C655 C 0.57951 0.16582 0.67551 0.0
C656 C 0.58843 0.19426 0.77096 0.0
C657 C 0.5805 0.1406 0.71265 0.0
C658 C 0.58924 0.16854 0.80642 0.0
N659 N 0.58529 0.14247 0.77678 0.0
C660 C 0.61996 0.19833 0.52961 0.0
C661 C 0.61087 0.24003 0.46642 0.0
C662 C 0.63725 0.18634 0.48124 0.0
N663 N 0.60669 0.22443 0.52093 0.0
C664 C 0.62786 0.22882 0.41667 0.0
C665 C 0.64095 0.2014 0.4233 0.0
H666 H 0.61657 0.18644 0.57348 0.0
H667 H 0.60026 0.26076 0.46058 0.0
C668 C 0.49207 0.18788 0.62761 0.0
N669 N 0.5128 0.19325 0.67265 0.0
C670 C 0.46999 0.16762 0.639 0.0
C671 C 0.4908 0.1585 0.74319 0.0
C672 C 0.51239 0.17917 0.72996 0.0
C673 C 0.4691 0.15266 0.6975 0.0
H674 H 0.49228 0.19979 0.58308 0.0
H675 H 0.52831 0.18444 0.76619 0.0
O676 O 0.5845 0.27871 0.61322 0.0
O677 O 0.53247 0.26195 0.69654 0.0
O678 O 0.53732 0.23526 0.56143 0.0
O679 O 0.58292 0.21783 0.66941 0.0
H680 H 0.60478 0.32096 0.6871 0.0
H681 H 0.57398 0.30021 0.49775 0.0
H682 H 0.61301 0.37181 0.65181 0.0
H683 H 0.58307 0.35131 0.46562 0.0
H684 H 0.48804 0.22961 0.87749 0.0
H685 H 0.47818 0.26325 0.6542 0.0
H686 H 0.53238 0.24365 0.81666 0.0
H687 H 0.4348 0.24863 0.71771 0.0
H688 H 0.50309 0.37436 0.59633 0.0
H689 H 0.45816 0.31048 0.48003 0.0
H690 H 0.66072 0.27651 0.84014 0.0
H691 H 0.57894 0.31482 0.89893 0.0
H692 H 0.54418 0.17921 0.5371 0.0
H693 H 0.53694 0.26397 0.45144 0.0
H694 H 0.55049 0.158 0.42864 0.0
H695 H 0.54304 0.24124 0.34449 0.0
H696 H 0.57548 0.16429 0.62464 0.0
H697 H 0.59143 0.21494 0.79469 0.0
H698 H 0.5774 0.11954 0.6905 0.0
H699 H 0.593 0.1693 0.85752 0.0
H700 H 0.64677 0.16506 0.48834 0.0
H701 H 0.63048 0.24138 0.37322 0.0
H702 H 0.45375 0.16373 0.60236 0.0
H703 H 0.49059 0.14785 0.7894 0.0
H704 H 0.4026 0.68851 0.96734 0.0
H705 H 0.32028 0.70977 0.87889 0.0
H706 H 0.29436 0.68581 0.96622 0.0
H707 H 0.29507 0.65781 0.06675 0.0
H708 H 0.3776 0.64047 0.15851 0.0
H709 H 0.40322 0.66425 0.07108 0.0
C710 C 0.37898 0.68854 0.96745 0.0
C711 C 0.36359 0.70099 0.91599 0.0
C712 C 0.36413 0.67525 0.01847 0.0
C713 C 0.33289 0.69998 0.91694 0.0
C714 C 0.31797 0.68643 0.96723 0.0
C715 C 0.31862 0.65958 0.06825 0.0
C716 C 0.33426 0.64686 0.11909 0.0
C717 C 0.33337 0.67384 0.01813 0.0
C718 C 0.36488 0.64926 0.11946 0.0
C719 C 0.37963 0.6631 0.0696 0.0
H720 H 0.3411 0.84311 0.39446 0.0
H721 H 0.39288 0.78649 0.27525 0.0
H722 H 0.37012 0.80667 0.17949 0.0
H723 H 0.33702 0.84189 0.12925 0.0
H724 H 0.28522 0.89848 0.24858 0.0
H725 H 0.3068 0.87717 0.34437 0.0
C726 C 0.34749 0.83528 0.34751 0.0
C727 C 0.3687 0.81334 0.34214 0.0
C728 C 0.33443 0.8471 0.29255 0.0
C729 C 0.37638 0.80312 0.28089 0.0
C730 C 0.3635 0.81478 0.22603 0.0
C731 C 0.33014 0.84929 0.17621 0.0
C732 C 0.30963 0.8719 0.18155 0.0
C733 C 0.34262 0.8369 0.23124 0.0
C734 C 0.30129 0.88144 0.24292 0.0
C735 C 0.31353 0.86918 0.29781 0.0
H736 H 0.12033 0.80056 0.48065 0.0
H737 H 0.18428 0.83085 0.34466 0.0
H738 H 0.21194 0.85388 0.43115 0.0
H739 H 0.21641 0.86776 0.54478 0.0
H740 H 0.15248 0.83683 0.68044 0.0
H741 H 0.12619 0.81214 0.59464 0.0
C742 C 0.14031 0.81225 0.46994 0.0
C743 C 0.15011 0.81413 0.40623 0.0
C744 C 0.156 0.82553 0.51981 0.0
C745 C 0.17633 0.8289 0.39331 0.0
C746 C 0.19207 0.84222 0.44272 0.0
C747 C 0.19698 0.85525 0.55578 0.0
C748 C 0.18634 0.85445 0.61906 0.0
C749 C 0.18195 0.84094 0.5061 0.0
C750 C 0.16091 0.83834 0.63211 0.0
C751 C 0.14591 0.82406 0.58308 0.0
H752 H 0.14444 0.65585 0.87133 0.0
H753 H 0.1629 0.74306 0.80702 0.0
H754 H 0.19051 0.72369 0.71624 0.0
H755 H 0.20842 0.68173 0.65353 0.0
H756 H 0.18824 0.59476 0.71751 0.0
H757 H 0.1623 0.61431 0.80969 0.0
C758 C 0.1543 0.67066 0.83722 0.0
C759 C 0.15141 0.70087 0.84586 0.0
C760 C 0.1699 0.6594 0.78497 0.0
C761 C 0.16494 0.71971 0.80189 0.0
C762 C 0.18059 0.70865 0.74971 0.0
C763 C 0.19823 0.66709 0.68752 0.0
C764 C 0.20047 0.63679 0.6786 0.0
C765 C 0.18305 0.6785 0.74049 0.0
C766 C 0.18737 0.61814 0.72359 0.0
C767 C 0.17231 0.62929 0.77619 0.0
H768 H 0.79706 0.14923 0.54478 0.0
H769 H 0.87214 0.15621 0.66842 0.0
H770 H 0.89928 0.18069 0.58374 0.0
H771 H 0.90225 0.19911 0.47381 0.0
H772 H 0.82733 0.19258 0.34988 0.0
H773 H 0.79938 0.16964 0.43588 0.0
C774 C 0.81922 0.15645 0.55351 0.0
C775 C 0.83258 0.15059 0.6128 0.0
C776 C 0.83475 0.17066 0.50456 0.0
C777 C 0.86146 0.15989 0.62292 0.0
C778 C 0.87698 0.17405 0.57462 0.0
C779 C 0.87983 0.19257 0.46556 0.0
C780 C 0.86696 0.19741 0.40539 0.0
C781 C 0.86396 0.17926 0.51504 0.0
C782 C 0.8377 0.18931 0.39587 0.0
C783 C 0.82176 0.17604 0.44492 0.0
H784 H 0.8486 0.34958 0.88897 0.0
H785 H 0.88209 0.2781 0.77706 0.0
H786 H 0.85825 0.29734 0.68154 0.0
H787 H 0.83028 0.33616 0.62832 0.0
H788 H 0.79795 0.40809 0.74051 0.0
H789 H 0.81932 0.38723 0.83699 0.0
C790 C 0.85081 0.33825 0.84364 0.0
C791 C 0.86726 0.31251 0.84027 0.0
C792 C 0.83741 0.34965 0.78874 0.0
C793 C 0.86935 0.29781 0.7813 0.0
C794 C 0.85588 0.30891 0.72648 0.0
C795 C 0.8276 0.34705 0.67405 0.0
C796 C 0.81274 0.37376 0.67708 0.0
C797 C 0.84013 0.335 0.72946 0.0
C798 C 0.80968 0.38773 0.73666 0.0
C799 C 0.8218 0.37578 0.79192 0.0
H800 H 0.66174 0.34731 0.14546 0.0
H801 H 0.73436 0.37699 0.03124 0.0
H802 H 0.71399 0.35271 0.93729 0.0
H803 H 0.6742 0.32508 0.88605 0.0
H804 H 0.60091 0.29701 0.99999 0.0
H805 H 0.62259 0.31916 0.09505 0.0
C806 C 0.67306 0.34869 0.09997 0.0
C807 C 0.69955 0.3641 0.09567 0.0
C808 C 0.66096 0.33513 0.0458 0.0
C809 C 0.71414 0.36503 0.0364 0.0
C810 C 0.70238 0.35132 0.98241 0.0
C811 C 0.66316 0.32354 0.93185 0.0
C812 C 0.6359 0.30952 0.93581 0.0
C813 C 0.67567 0.33652 0.98639 0.0
C814 C 0.62171 0.308 0.99542 0.0
C815 C 0.63415 0.32056 0.04988 0.0
H816 H 0.721 0.13399 0.22609 0.0
H817 H 0.65497 0.16444 0.09538 0.0
H818 H 0.63004 0.18919 0.18309 0.0
H819 H 0.62618 0.20111 0.29727 0.0
H820 H 0.69237 0.1713 0.4282 0.0
H821 H 0.71807 0.14747 0.34004 0.0
C822 C 0.70136 0.14634 0.21665 0.0
C823 C 0.68984 0.14723 0.15421 0.0
C824 C 0.68709 0.16056 0.26739 0.0
C825 C 0.66411 0.16301 0.14308 0.0
C826 C 0.6499 0.17731 0.19317 0.0
C827 C 0.64646 0.18977 0.30641 0.0
C828 C 0.65733 0.18804 0.36929 0.0
C829 C 0.66108 0.17608 0.25556 0.0
C830 C 0.68335 0.17274 0.3804 0.0
C831 C 0.69812 0.15919 0.32996 0.0
H832 H 0.38564 0.4295 0.40516 0.0
H833 H 0.38757 0.46824 0.59328 0.0
H834 H 0.42411 0.43289 0.62752 0.0
H835 H 0.45426 0.39004 0.60499 0.0
H836 H 0.45377 0.35251 0.41528 0.0
H837 H 0.41751 0.38793 0.38122 0.0
C838 C 0.39401 0.4301 0.4537 0.0
C839 C 0.38384 0.45136 0.4967 0.0
C840 C 0.41512 0.40982 0.47294 0.0
C841 C 0.3952 0.4522 0.55917 0.0
C842 C 0.416 0.43192 0.57884 0.0
C843 C 0.44662 0.38982 0.55588 0.0
C844 C 0.45673 0.36838 0.51303 0.0
C845 C 0.42604 0.41056 0.53619 0.0
C846 C 0.44606 0.36831 0.44983 0.0
C847 C 0.42543 0.38871 0.43008 0.0
H848 H 0.65043 0.92533 0.81436 0.0
H849 H 0.60887 0.99361 0.70665 0.0
H850 H 0.56951 0.96034 0.67658 0.0
H851 H 0.5475 0.91139 0.67882 0.0
H852 H 0.58919 0.84351 0.7878 0.0
H853 H 0.62808 0.87693 0.81836 0.0
C854 C 0.6329 0.93288 0.78382 0.0
C855 C 0.6327 0.96189 0.76254 0.0
C856 C 0.61038 0.91365 0.76669 0.0
C857 C 0.60947 0.97145 0.72407 0.0
C858 C 0.58701 0.9524 0.70664 0.0
C859 C 0.56492 0.904 0.70981 0.0
C860 C 0.56545 0.87487 0.73054 0.0
C861 C 0.58725 0.92342 0.72758 0.0
C862 C 0.58843 0.86563 0.77015 0.0
C863 C 0.61064 0.88477 0.78799 0.0
H864 H 0.04064 0.10818 0.01492 0.0
H865 H 0.10443 0.177 0.02874 0.0
H866 H 0.14324 0.14277 1.00259 0.0
H867 H 0.15927 0.0932 0.9775 0.0
H868 H 0.09558 0.02432 0.96251 0.0
H869 H 0.05673 0.05849 0.98905 0.0
C870 C 0.06306 0.11564 0.01262 0.0
C871 C 0.06954 0.14517 0.02356 0.0
C872 C 0.08536 0.09579 0.9978 0.0
C873 C 0.09871 0.15452 0.01959 0.0
C874 C 0.12098 0.13491 1.00505 0.0
C875 C 0.13687 0.08569 0.97935 0.0
C876 C 0.13045 0.05617 0.96802 0.0
C877 C 0.11456 0.10551 0.99402 0.0
C878 C 0.10128 0.0468 0.97185 0.0
C879 C 0.07898 0.06637 0.98662 0.0
H880 H 0.95266 0.63623 0.3061 0.0
H881 H 0.94784 0.61955 0.10301 0.0
H882 H 0.91121 0.58188 0.12129 0.0
H883 H 0.88023 0.55385 0.1948 0.0
H884 H 0.88446 0.57111 0.39779 0.0
H885 H 0.92207 0.60775 0.37976 0.0
C886 C 0.94384 0.62413 0.26591 0.0
C887 C 0.95295 0.63081 0.20327 0.0
C888 C 0.92272 0.60247 0.27673 0.0
C889 C 0.94096 0.61515 0.15166 0.0
C890 C 0.92009 0.59349 0.16208 0.0
C891 C 0.88922 0.56574 0.23509 0.0
C892 C 0.87948 0.5596 0.29757 0.0
C893 C 0.91066 0.58709 0.22436 0.0
C894 C 0.89178 0.57499 0.34925 0.0
C895 C 0.91319 0.59614 0.33897 0.0
H896 H 0.35416 0.07903 0.73854 0.0
H897 H 0.41629 0.01744 0.8132 0.0
H898 H 0.45603 0.05145 0.79152 0.0
H899 H 0.47325 0.09878 0.75105 0.0
H900 H 0.41104 0.1598 0.67473 0.0
H901 H 0.37136 0.12571 0.69624 0.0
C902 C 0.37642 0.07283 0.74928 0.0
C903 C 0.38213 0.04565 0.77755 0.0
C904 C 0.39921 0.09241 0.7363 0.0
C905 C 0.41114 0.03832 0.7922 0.0
C906 C 0.43393 0.05771 0.77954 0.0
C907 C 0.45098 0.10464 0.73949 0.0
C908 C 0.44513 0.13177 0.71121 0.0
C909 C 0.42822 0.08488 0.75187 0.0
C910 C 0.41619 0.13892 0.69581 0.0
C911 C 0.39346 0.1195 0.70836 0.0
H912 H 0.85876 0.91977 0.94474 0.0
H913 H 0.90914 0.99001 0.02586 0.0
H914 H 0.94796 0.95601 0.0541 0.0
H915 H 0.96717 0.90614 0.05752 0.0
H916 H 0.91702 0.83612 0.97437 0.0
H917 H 0.87837 0.87012 0.94623 0.0
C918 C 0.87813 0.92759 0.96908 0.0
C919 C 0.881 0.95736 0.98336 0.0
C920 C 0.90038 0.90794 0.98503 0.0
C921 C 0.90649 0.96723 0.01389 0.0
C922 C 0.92864 0.94779 0.03027 0.0
C923 C 0.94795 0.89835 0.03259 0.0
C924 C 0.94502 0.86853 0.01846 0.0
C925 C 0.92583 0.91808 0.01606 0.0
C926 C 0.91971 0.85883 0.98686 0.0
C927 C 0.89763 0.8783 0.97039 0.0
H928 H 0.08572 0.36086 0.28252 0.0
H929 H 0.03712 0.41934 0.16161 0.0
H930 H 0.07216 0.4581 0.18355 0.0
H931 H 0.11757 0.47505 0.23443 0.0
H932 H 0.1665 0.41607 0.35342 0.0
H933 H 0.13081 0.37773 0.33342 0.0
C934 C 0.08288 0.38199 0.26046 0.0
C935 C 0.05874 0.38705 0.22041 0.0
C936 C 0.10336 0.40409 0.27247 0.0
C937 C 0.0552 0.41484 0.19334 0.0
C938 C 0.07539 0.437 0.20546 0.0
C939 C 0.1203 0.45387 0.25634 0.0
C940 C 0.14481 0.44844 0.29505 0.0
C941 C 0.09963 0.43185 0.24472 0.0
C942 C 0.14813 0.42074 0.32256 0.0
C943 C 0.12762 0.39883 0.3115 0.0
H944 H 0.53812 0.6065 0.51581 0.0
H945 H 0.60195 0.6731 0.55643 0.0
H946 H 0.6412 0.63947 0.52988 0.0
H947 H 0.65757 0.59104 0.496 0.0
H948 H 0.59392 0.52428 0.45576 0.0
H949 H 0.55456 0.55784 0.48278 0.0
C950 C 0.56062 0.61359 0.51941 0.0
C951 C 0.56699 0.64238 0.5378 0.0
C952 C 0.58318 0.59405 0.50446 0.0
C953 C 0.59633 0.65125 0.54139 0.0
C954 C 0.61884 0.63196 0.52661 0.0
C955 C 0.63508 0.5839 0.49262 0.0
C956 C 0.62876 0.55517 0.47382 0.0
C957 C 0.61253 0.60335 0.50791 0.0
C958 C 0.59947 0.54615 0.4708 0.0
C959 C 0.57691 0.56539 0.48589 0.0
loop_
_geom_bond_atom_site_label_1
_geom_bond_atom_site_label_2
_geom_bond_distance
_geom_bond_site_symmetry_2
_ccdc_geom_bond_type
Li0 N17 1.990 . S
Li0 O60 1.956 . S
Li0 O61 1.970 . S
Li0 O62 1.961 . S
Li1 N25 1.990 . S
Li1 O60 1.970 . S
Li1 O61 1.956 . S
Li1 O63 1.961 . S
Li2 N47 1.990 . S
Li2 O60 1.961 . S
Li2 O62 1.956 . S
Li2 O63 1.970 . S
Li3 N53 1.990 . S
Li3 O61 1.961 . S
Li3 O62 1.970 . S
Li3 O63 1.956 . S
C4 C6 1.348 . S
C4 C7 1.356 . S
C4 O60 1.325 . S
N5 C8 1.314 . S
N5 C9 1.279 . S
C6 C4 1.348 . S
C6 C8 1.353 . S
C6 H64 0.929 . S
C7 C4 1.356 . S
C7 C9 1.358 . S
C7 H65 0.930 . S
C8 N5 1.314 . S
C8 C6 1.353 . S
C8 H66 0.930 . S
C9 N5 1.279 . S
C9 C7 1.358 . S
C9 H67 0.930 . S
C10 C13 1.348 . S
C10 C14 1.356 . S
C10 O61 1.325 . S
C11 N12 1.279 . S
C11 C14 1.358 . S
C11 H68 0.930 . S
N12 C11 1.279 . S
N12 C15 1.314 . S
C13 C10 1.348 . S
C13 C15 1.353 . S
C13 H69 0.929 . S
C14 C10 1.356 . S
C14 C11 1.358 . S
C14 H70 0.930 . S
C15 N12 1.314 . S
C15 C13 1.353 . S
C15 H71 0.930 . S
C16 N17 1.314 . S
C16 C21 1.353 . S
C16 H22 0.930 . S
N17 Li0 1.990 . S
N17 C16 1.314 . S
N17 C19 1.279 . S
C18 C19 1.358 . S
C18 C20 1.356 . S
C18 H72 0.930 . S
C19 N17 1.279 . S
C19 C18 1.358 . S
C19 H23 0.930 . S
C20 C18 1.356 . S
C20 C21 1.348 . S
C21 C16 1.353 . S
C21 C20 1.348 . S
C21 H73 0.929 . S
H22 C16 0.930 . S
H23 C19 0.930 . S
C24 N25 1.314 . S
C24 C26 1.353 . S
C24 H30 0.930 . S
N25 Li1 1.990 . S
N25 C24 1.314 . S
N25 C28 1.279 . S
C26 C24 1.353 . S
C26 C29 1.348 . S
C26 H74 0.929 . S
C27 C28 1.358 . S
C27 C29 1.356 . S
C27 H75 0.930 . S
C28 N25 1.279 . S
C28 C27 1.358 . S
C28 H31 0.930 . S
C29 C26 1.348 . S
C29 C27 1.356 . S
H30 C24 0.930 . S
H31 C28 0.930 . S
C32 C34 1.348 . S
C32 C35 1.356 . S
C32 O62 1.325 . S
N33 C36 1.314 . S
N33 C37 1.279 . S
C34 C32 1.348 . S
C34 C36 1.353 . S
C34 H76 0.929 . S
C35 C32 1.356 . S
C35 C37 1.358 . S
C35 H77 0.930 . S
C36 N33 1.314 . S
C36 C34 1.353 . S
C36 H78 0.930 . S
C37 N33 1.279 . S
C37 C35 1.358 . S
C37 H79 0.930 . S
C38 C39 1.348 . S
C38 C40 1.356 . S
C38 O63 1.325 . S
C39 C38 1.348 . S
C39 C41 1.353 . S
C39 H80 0.929 . S
C40 C38 1.356 . S
C40 C42 1.358 . S
C40 H81 0.930 . S
C41 C39 1.353 . S
C41 N43 1.314 . S
C41 H82 0.930 . S
C42 C40 1.358 . S
C42 N43 1.279 . S
C42 H83 0.930 . S
N43 C41 1.314 . S
N43 C42 1.279 . S
C44 C46 1.353 . S
C44 N47 1.314 . S
C44 H50 0.930 . S
C45 N47 1.279 . S
C45 C48 1.358 . S
C45 H51 0.930 . S
C46 C44 1.353 . S
C46 C49 1.348 . S
C46 H84 0.929 . S
N47 Li2 1.990 . S
N47 C44 1.314 . S
N47 C45 1.279 . S
C48 C45 1.358 . S
C48 C49 1.356 . S
C48 H85 0.930 . S
C49 C46 1.348 . S
C49 C48 1.356 . S
H50 C44 0.930 . S
H51 C45 0.930 . S
C52 N53 1.314 . S
C52 C54 1.353 . S
C52 H58 0.930 . S
N53 Li3 1.990 . S
N53 C52 1.314 . S
N53 C56 1.279 . S
C54 C52 1.353 . S
C54 C57 1.348 . S
C54 H86 0.929 . S
C55 C56 1.358 . S
C55 C57 1.356 . S
C55 H87 0.930 . S
C56 N53 1.279 . S
C56 C55 1.358 . S
C56 H59 0.930 . S
C57 C54 1.348 . S
C57 C55 1.356 . S
H58 C52 0.930 . S
H59 C56 0.930 . S
O60 Li0 1.956 . S
O60 Li1 1.970 . S
O60 Li2 1.961 . S
O60 C4 1.325 . S
O61 Li0 1.970 . S
O61 Li1 1.956 . S
O61 Li3 1.961 . S
O61 C10 1.325 . S
O62 Li0 1.961 . S
O62 Li2 1.956 . S
O62 Li3 1.970 . S
O62 C32 1.325 . S
O63 Li1 1.961 . S
O63 Li2 1.970 . S
O63 Li3 1.956 . S
O63 C38 1.325 . S
H64 C6 0.929 . S
H65 C7 0.930 . S
H66 C8 0.930 . S
H67 C9 0.930 . S
H68 C11 0.930 . S
H69 C13 0.929 . S
H70 C14 0.930 . S
H71 C15 0.930 . S
H72 C18 0.930 . S
H73 C21 0.929 . S
H74 C26 0.929 . S
H75 C27 0.930 . S
H76 C34 0.929 . S
H77 C35 0.930 . S
H78 C36 0.930 . S
H79 C37 0.930 . S
H80 C39 0.929 . S
H81 C40 0.930 . S
H82 C41 0.930 . S
H83 C42 0.930 . S
H84 C46 0.929 . S
H85 C48 0.930 . S
H86 C54 0.929 . S
H87 C55 0.930 . S
Li88 N105 1.990 . S
Li88 O148 1.956 . S
Li88 O149 1.970 . S
Li88 O150 1.961 . S
Li89 N113 1.990 . S
Li89 O148 1.970 . S
Li89 O149 1.956 . S
Li89 O151 1.961 . S
Li90 N135 1.990 . S
Li90 O148 1.961 . S
Li90 O150 1.956 . S
Li90 O151 1.970 . S
Li91 N141 1.990 . S
Li91 O149 1.961 . S
Li91 O150 1.970 . S
Li91 O151 1.956 . S
C92 C94 1.348 . S
C92 C95 1.356 . S
C92 O148 1.325 . S
N93 C96 1.314 . S
N93 C97 1.279 . S
C94 C92 1.348 . S
C94 C96 1.353 . S
C94 H152 0.929 . S
C95 C92 1.356 . S
C95 C97 1.358 . S
C95 H153 0.930 . S
C96 N93 1.314 . S
C96 C94 1.353 . S
C96 H154 0.930 . S
C97 N93 1.279 . S
C97 C95 1.358 . S
C97 H155 0.930 . S
C98 C101 1.348 . S
C98 C102 1.356 . S
C98 O149 1.325 . S
C99 N100 1.279 . S
C99 C102 1.358 . S
C99 H156 0.930 . S
N100 C99 1.279 . S
N100 C103 1.314 . S
C101 C98 1.348 . S
C101 C103 1.353 . S
C101 H157 0.929 . S
C102 C98 1.356 . S
C102 C99 1.358 . S
C102 H158 0.930 . S
C103 N100 1.314 . S
C103 C101 1.353 . S
C103 H159 0.930 . S
C104 N105 1.314 . S
C104 C109 1.353 . S
C104 H110 0.930 . S
N105 Li88 1.990 . S
N105 C104 1.314 . S
N105 C107 1.279 . S
C106 C107 1.358 . S
C106 C108 1.356 . S
C106 H160 0.930 . S
C107 N105 1.279 . S
C107 C106 1.358 . S
C107 H111 0.930 . S
C108 C106 1.356 . S
C108 C109 1.348 . S
C109 C104 1.353 . S
C109 C108 1.348 . S
C109 H161 0.929 . S
H110 C104 0.930 . S
H111 C107 0.930 . S
C112 N113 1.314 . S
C112 C114 1.353 . S
C112 H118 0.930 . S
N113 Li89 1.990 . S
N113 C112 1.314 . S
N113 C116 1.279 . S
C114 C112 1.353 . S
C114 C117 1.348 . S
C114 H162 0.929 . S
C115 C116 1.358 . S
C115 C117 1.356 . S
C115 H163 0.930 . S
C116 N113 1.279 . S
C116 C115 1.358 . S
C116 H119 0.930 . S
C117 C114 1.348 . S
C117 C115 1.356 . S
H118 C112 0.930 . S
H119 C116 0.930 . S
C120 C122 1.348 . S
C120 C123 1.356 . S
C120 O150 1.325 . S
N121 C124 1.314 . S
N121 C125 1.279 . S
C122 C120 1.348 . S
C122 C124 1.353 . S
C122 H164 0.929 . S
C123 C120 1.356 . S
C123 C125 1.358 . S
C123 H165 0.930 . S
C124 N121 1.314 . S
C124 C122 1.353 . S
C124 H166 0.930 . S
C125 N121 1.279 . S
C125 C123 1.358 . S
C125 H167 0.930 . S
C126 C127 1.348 . S
C126 C128 1.356 . S
C126 O151 1.325 . S
C127 C126 1.348 . S
C127 C129 1.353 . S
C127 H168 0.929 . S
C128 C126 1.356 . S
C128 C130 1.358 . S
C128 H169 0.930 . S
C129 C127 1.353 . S
C129 N131 1.314 . S
C129 H170 0.930 . S
C130 C128 1.358 . S
C130 N131 1.279 . S
C130 H171 0.930 . S
N131 C129 1.314 . S
N131 C130 1.279 . S
C132 C134 1.353 . S
C132 N135 1.314 . S
C132 H138 0.930 . S
C133 N135 1.279 . S
C133 C136 1.358 . S
C133 H139 0.930 . S
C134 C132 1.353 . S
C134 C137 1.348 . S
C134 H172 0.929 . S
N135 Li90 1.990 . S
N135 C132 1.314 . S
N135 C133 1.279 . S
C136 C133 1.358 . S
C136 C137 1.356 . S
C136 H173 0.930 . S
C137 C134 1.348 . S
C137 C136 1.356 . S
H138 C132 0.930 . S
H139 C133 0.930 . S
C140 N141 1.314 . S
C140 C142 1.353 . S
C140 H146 0.930 . S
N141 Li91 1.990 . S
N141 C140 1.314 . S
N141 C144 1.279 . S
C142 C140 1.353 . S
C142 C145 1.348 . S
C142 H174 0.929 . S
C143 C144 1.358 . S
C143 C145 1.356 . S
C143 H175 0.930 . S
C144 N141 1.279 . S
C144 C143 1.358 . S
C144 H147 0.930 . S
C145 C142 1.348 . S
C145 C143 1.356 . S
H146 C140 0.930 . S
H147 C144 0.930 . S
O148 Li88 1.956 . S
O148 Li89 1.970 . S
O148 Li90 1.961 . S
O148 C92 1.325 . S
O149 Li88 1.970 . S
O149 Li89 1.956 . S
O149 Li91 1.961 . S
O149 C98 1.325 . S
O150 Li88 1.961 . S
O150 Li90 1.956 . S
O150 Li91 1.970 . S
O150 C120 1.325 . S
O151 Li89 1.961 . S
O151 Li90 1.970 . S
O151 Li91 1.956 . S
O151 C126 1.325 . S
H152 C94 0.929 . S
H153 C95 0.930 . S
H154 C96 0.930 . S
H155 C97 0.930 . S
H156 C99 0.930 . S
H157 C101 0.929 . S
H158 C102 0.930 . S
H159 C103 0.930 . S
H160 C106 0.930 . S
H161 C109 0.929 . S
H162 C114 0.929 . S
H163 C115 0.930 . S
H164 C122 0.929 . S
H165 C123 0.930 . S
H166 C124 0.930 . S
H167 C125 0.930 . S
H168 C127 0.929 . S
H169 C128 0.930 . S
H170 C129 0.930 . S
H171 C130 0.930 . S
H172 C134 0.929 . S
H173 C136 0.930 . S
H174 C142 0.929 . S
H175 C143 0.930 . S
Li176 N193 1.990 . S
Li176 O236 1.956 . S
Li176 O237 1.970 . S
Li176 O238 1.961 . S
Li177 N201 1.990 1_556 S
Li177 O236 1.970 . S
Li177 O237 1.956 . S
Li177 O239 1.961 . S
Li178 N223 1.990 . S
Li178 O236 1.961 . S
Li178 O238 1.956 . S
Li178 O239 1.970 . S
Li179 N229 1.990 . S
Li179 O237 1.961 . S
Li179 O238 1.970 . S
Li179 O239 1.956 . S
C180 C182 1.348 . S
C180 C183 1.356 . S
C180 O236 1.325 . S
N181 C184 1.314 . S
N181 C185 1.279 . S
C182 C180 1.348 . S
C182 C184 1.353 . S
C182 H240 0.929 . S
C183 C180 1.356 . S
C183 C185 1.358 . S
C183 H241 0.930 . S
C184 N181 1.314 . S
C184 C182 1.353 . S
C184 H242 0.930 . S
C185 N181 1.279 . S
C185 C183 1.358 . S
C185 H243 0.930 . S
C186 C189 1.348 . S
C186 C190 1.356 1_556 S
C186 O237 1.325 . S
C187 N188 1.279 . S
C187 C190 1.358 1_545 S
C187 H244 0.930 . S
N188 C187 1.279 . S
N188 C191 1.314 . S
C189 C186 1.348 . S
C189 C191 1.353 1_566 S
C189 H245 0.929 . S
C190 C186 1.356 1_554 S
C190 C187 1.358 1_565 S
C190 H246 0.930 . S
C191 N188 1.314 . S
C191 C189 1.353 1_544 S
C191 H247 0.930 . S
C192 N193 1.314 1_545 S
C192 C197 1.353 . S
C192 H198 0.930 . S
N193 Li176 1.990 . S
N193 C192 1.314 1_565 S
N193 C195 1.279 . S
C194 C195 1.358 . S
C194 C196 1.356 1_565 S
C194 H248 0.930 . S
C195 N193 1.279 . S
C195 C194 1.358 . S
C195 H199 0.930 . S
C196 C194 1.356 1_545 S
C196 C197 1.348 . S
C197 C192 1.353 . S
C197 C196 1.348 . S
C197 H249 0.929 . S
H198 C192 0.930 . S
H199 C195 0.930 . S
C200 N201 1.314 . S
C200 C202 1.353 . S
C200 H206 0.930 1_554 S
N201 Li177 1.990 1_554 S
N201 C200 1.314 . S
N201 C204 1.279 . S
C202 C200 1.353 . S
C202 C205 1.348 . S
C202 H250 0.929 . S
C203 C204 1.358 . S
C203 C205 1.356 . S
C203 H251 0.930 . S
C204 N201 1.279 . S
C204 C203 1.358 . S
C204 H207 0.930 . S
C205 C202 1.348 . S
C205 C203 1.356 . S
H206 C200 0.930 1_556 S
H207 C204 0.930 . S
C208 C210 1.348 . S
C208 C211 1.356 . S
C208 O238 1.325 . S
N209 C212 1.314 . S
N209 C213 1.279 . S
C210 C208 1.348 . S
C210 C212 1.353 1_565 S
C210 H252 0.929 . S
C211 C208 1.356 . S
C211 C213 1.358 1_565 S
C211 H253 0.930 . S
C212 N209 1.314 . S
C212 C210 1.353 1_545 S
C212 H254 0.930 . S
C213 N209 1.279 . S
C213 C211 1.358 1_545 S
C213 H255 0.930 . S
C214 C215 1.348 . S
C214 C216 1.356 . S
C214 O239 1.325 . S
C215 C214 1.348 . S
C215 C217 1.353 . S
C215 H256 0.929 . S
C216 C214 1.356 . S
C216 C218 1.358 1_556 S
C216 H257 0.930 1_556 S
C217 C215 1.353 . S
C217 N219 1.314 . S
C217 H258 0.930 . S
C218 C216 1.358 1_554 S
C218 N219 1.279 1_554 S
C218 H259 0.930 . S
N219 C217 1.314 . S
N219 C218 1.279 1_556 S
C220 C222 1.353 . S
C220 N223 1.314 . S
C220 H226 0.930 . S
C221 N223 1.279 . S
C221 C224 1.358 . S
C221 H227 0.930 . S
C222 C220 1.353 . S
C222 C225 1.348 . S
C222 H260 0.929 . S
N223 Li178 1.990 . S
N223 C220 1.314 . S
N223 C221 1.279 . S
C224 C221 1.358 . S
C224 C225 1.356 . S
C224 H261 0.930 . S
C225 C222 1.348 . S
C225 C224 1.356 . S
H226 C220 0.930 . S
H227 C221 0.930 . S
C228 N229 1.314 1_545 S
C228 C230 1.353 . S
C228 H234 0.930 . S
N229 Li179 1.990 . S
N229 C228 1.314 1_565 S
N229 C232 1.279 . S
C230 C228 1.353 . S
C230 C233 1.348 . S
C230 H262 0.929 . S
C231 C232 1.358 . S
C231 C233 1.356 1_565 S
C231 H263 0.930 . S
C232 N229 1.279 . S
C232 C231 1.358 . S
C232 H235 0.930 . S
C233 C230 1.348 . S
C233 C231 1.356 1_545 S
H234 C228 0.930 . S
H235 C232 0.930 . S
O236 Li176 1.956 . S
O236 Li177 1.970 . S
O236 Li178 1.961 . S
O236 C180 1.325 . S
O237 Li176 1.970 . S
O237 Li177 1.956 . S
O237 Li179 1.961 . S
O237 C186 1.325 . S
O238 Li176 1.961 . S
O238 Li178 1.956 . S
O238 Li179 1.970 . S
O238 C208 1.325 . S
O239 Li177 1.961 . S
O239 Li178 1.970 . S
O239 Li179 1.956 . S
O239 C214 1.325 . S
H240 C182 0.929 . S
H241 C183 0.930 . S
H242 C184 0.930 . S
H243 C185 0.930 . S
H244 C187 0.930 . S
H245 C189 0.929 . S
H246 C190 0.930 . S
H247 C191 0.930 . S
H248 C194 0.930 . S
H249 C197 0.929 . S
H250 C202 0.929 . S
H251 C203 0.930 . S
H252 C210 0.929 . S
H253 C211 0.930 . S
H254 C212 0.930 . S
H255 C213 0.930 . S
H256 C215 0.929 . S
H257 C216 0.930 1_554 S
H258 C217 0.930 . S
H259 C218 0.930 . S
H260 C222 0.929 . S
H261 C224 0.930 . S
H262 C230 0.929 . S
H263 C231 0.930 . S
Li264 N281 1.990 . S
Li264 O324 1.956 . S
Li264 O325 1.970 . S
Li264 O326 1.961 . S
Li265 N289 1.990 . S
Li265 O324 1.970 . S
Li265 O325 1.956 . S
Li265 O327 1.961 . S
Li266 N311 1.990 1_554 S
Li266 O324 1.961 . S
Li266 O326 1.956 . S
Li266 O327 1.970 . S
Li267 N317 1.990 . S
Li267 O325 1.961 . S
Li267 O326 1.970 . S
Li267 O327 1.956 . S
C268 C270 1.348 . S
C268 C271 1.356 . S
C268 O324 1.325 . S
N269 C272 1.314 . S
N269 C273 1.279 1_554 S
C270 C268 1.348 . S
C270 C272 1.353 . S
C270 H328 0.929 . S
C271 C268 1.356 . S
C271 C273 1.358 1_554 S
C271 H329 0.930 1_554 S
C272 N269 1.314 . S
C272 C270 1.353 . S
C272 H330 0.930 . S
C273 N269 1.279 1_556 S
C273 C271 1.358 1_556 S
C273 H331 0.930 . S
C274 C277 1.348 . S
C274 C278 1.356 . S
C274 O325 1.325 . S
C275 N276 1.279 . S
C275 C278 1.358 1_655 S
C275 H332 0.930 . S
N276 C275 1.279 . S
N276 C279 1.314 . S
C277 C274 1.348 . S
C277 C279 1.353 1_455 S
C277 H333 0.929 . S
C278 C274 1.356 . S
C278 C275 1.358 1_455 S
C278 H334 0.930 . S
C279 N276 1.314 . S
C279 C277 1.353 1_655 S
C279 H335 0.930 . S
C280 N281 1.314 1_655 S
C280 C285 1.353 . S
C280 H286 0.930 . S
N281 Li264 1.990 . S
N281 C280 1.314 1_455 S
N281 C283 1.279 . S
C282 C283 1.358 . S
C282 C284 1.356 1_455 S
C282 H336 0.930 . S
C283 N281 1.279 . S
C283 C282 1.358 . S
C283 H287 0.930 . S
C284 C282 1.356 1_655 S
C284 C285 1.348 . S
C285 C280 1.353 . S
C285 C284 1.348 . S
C285 H337 0.929 . S
H286 C280 0.930 . S
H287 C283 0.930 . S
C288 N289 1.314 . S
C288 C290 1.353 . S
C288 H294 0.930 . S
N289 Li265 1.990 . S
N289 C288 1.314 . S
N289 C292 1.279 . S
C290 C288 1.353 . S
C290 C293 1.348 . S
C290 H338 0.929 . S
C291 C292 1.358 . S
C291 C293 1.356 . S
C291 H339 0.930 . S
C292 N289 1.279 . S
C292 C291 1.358 . S
C292 H295 0.930 . S
C293 C290 1.348 . S
C293 C291 1.356 . S
H294 C288 0.930 . S
H295 C292 0.930 . S
C296 C298 1.348 . S
C296 C299 1.356 1_554 S
C296 O326 1.325 . S
N297 C300 1.314 . S
N297 C301 1.279 . S
C298 C296 1.348 . S
C298 C300 1.353 1_454 S
C298 H340 0.929 . S
C299 C296 1.356 1_556 S
C299 C301 1.358 1_455 S
C299 H341 0.930 . S
C300 N297 1.314 . S
C300 C298 1.353 1_656 S
C300 H342 0.930 . S
C301 N297 1.279 . S
C301 C299 1.358 1_655 S
C301 H343 0.930 . S
C302 C303 1.348 . S
C302 C304 1.356 . S
C302 O327 1.325 . S
C303 C302 1.348 . S
C303 C305 1.353 . S
C303 H344 0.929 . S
C304 C302 1.356 . S
C304 C306 1.358 . S
C304 H345 0.930 . S
C305 C303 1.353 . S
C305 N307 1.314 . S
C305 H346 0.930 . S
C306 C304 1.358 . S
C306 N307 1.279 . S
C306 H347 0.930 . S
N307 C305 1.314 . S
N307 C306 1.279 . S
C308 C310 1.353 . S
C308 N311 1.314 . S
C308 H314 0.930 1_556 S
C309 N311 1.279 . S
C309 C312 1.358 . S
C309 H315 0.930 . S
C310 C308 1.353 . S
C310 C313 1.348 . S
C310 H348 0.929 . S
N311 Li266 1.990 1_556 S
N311 C308 1.314 . S
N311 C309 1.279 . S
C312 C309 1.358 . S
C312 C313 1.356 . S
C312 H349 0.930 . S
C313 C310 1.348 . S
C313 C312 1.356 . S
H314 C308 0.930 1_554 S
H315 C309 0.930 . S
C316 N317 1.314 1_655 S
C316 C318 1.353 . S
C316 H322 0.930 . S
N317 Li267 1.990 . S
N317 C316 1.314 1_455 S
N317 C320 1.279 . S
C318 C316 1.353 . S
C318 C321 1.348 . S
C318 H350 0.929 . S
C319 C320 1.358 . S
C319 C321 1.356 1_455 S
C319 H351 0.930 . S
C320 N317 1.279 . S
C320 C319 1.358 . S
C320 H323 0.930 . S
C321 C318 1.348 . S
C321 C319 1.356 1_655 S
H322 C316 0.930 . S
H323 C320 0.930 . S
O324 Li264 1.956 . S
O324 Li265 1.970 . S
O324 Li266 1.961 . S
O324 C268 1.325 . S
O325 Li264 1.970 . S
O325 Li265 1.956 . S
O325 Li267 1.961 . S
O325 C274 1.325 . S
O326 Li264 1.961 . S
O326 Li266 1.956 . S
O326 Li267 1.970 . S
O326 C296 1.325 . S
O327 Li265 1.961 . S
O327 Li266 1.970 . S
O327 Li267 1.956 . S
O327 C302 1.325 . S
H328 C270 0.929 . S
H329 C271 0.930 1_556 S
H330 C272 0.930 . S
H331 C273 0.930 . S
H332 C275 0.930 . S
H333 C277 0.929 . S
H334 C278 0.930 . S
H335 C279 0.930 . S
H336 C282 0.930 . S
H337 C285 0.929 . S
H338 C290 0.929 . S
H339 C291 0.930 . S
H340 C298 0.929 . S
H341 C299 0.930 . S
H342 C300 0.930 . S
H343 C301 0.930 . S
H344 C303 0.929 . S
H345 C304 0.930 . S
H346 C305 0.930 . S
H347 C306 0.930 . S
H348 C310 0.929 . S
H349 C312 0.930 . S
H350 C318 0.929 . S
H351 C319 0.930 . S
Li352 N369 1.990 1_556 S
Li352 O412 1.956 . S
Li352 O413 1.970 . S
Li352 O414 1.961 . S
Li353 N377 1.990 . S
Li353 O412 1.970 . S
Li353 O413 1.956 . S
Li353 O415 1.961 . S
Li354 N399 1.990 . S
Li354 O412 1.961 . S
Li354 O414 1.956 . S
Li354 O415 1.970 . S
Li355 N405 1.990 . S
Li355 O413 1.961 . S
Li355 O414 1.970 . S
Li355 O415 1.956 . S
C356 C358 1.348 . S
C356 C359 1.356 1_556 S
C356 O412 1.325 . S
N357 C360 1.314 . S
N357 C361 1.279 . S
C358 C356 1.348 . S
C358 C360 1.353 1_546 S
C358 H416 0.929 . S
C359 C356 1.356 1_554 S
C359 C361 1.358 1_545 S
C359 H417 0.930 . S
C360 N357 1.314 . S
C360 C358 1.353 1_564 S
C360 H418 0.930 . S
C361 N357 1.279 . S
C361 C359 1.358 1_565 S
C361 H419 0.930 . S
C362 C365 1.348 . S
C362 C366 1.356 . S
C362 O413 1.325 . S
C363 N364 1.279 . S
C363 C366 1.358 . S
C363 H420 0.930 . S
N364 C363 1.279 . S
N364 C367 1.314 . S
C365 C362 1.348 . S
C365 C367 1.353 . S
C365 H421 0.929 . S
C366 C362 1.356 . S
C366 C363 1.358 . S
C366 H422 0.930 . S
C367 N364 1.314 . S
C367 C365 1.353 . S
C367 H423 0.930 . S
C368 N369 1.314 . S
C368 C373 1.353 . S
C368 H374 0.930 1_554 S
N369 Li352 1.990 1_554 S
N369 C368 1.314 . S
N369 C371 1.279 . S
C370 C371 1.358 . S
C370 C372 1.356 . S
C370 H424 0.930 . S
C371 N369 1.279 . S
C371 C370 1.358 . S
C371 H375 0.930 . S
C372 C370 1.356 . S
C372 C373 1.348 . S
C373 C368 1.353 . S
C373 C372 1.348 . S
C373 H425 0.929 . S
H374 C368 0.930 1_556 S
H375 C371 0.930 . S
C376 N377 1.314 1_565 S
C376 C378 1.353 . S
C376 H382 0.930 . S
N377 Li353 1.990 . S
N377 C376 1.314 1_545 S
N377 C380 1.279 . S
C378 C376 1.353 . S
C378 C381 1.348 . S
C378 H426 0.929 . S
C379 C380 1.358 . S
C379 C381 1.356 1_545 S
C379 H427 0.930 . S
C380 N377 1.279 . S
C380 C379 1.358 . S
C380 H383 0.930 . S
C381 C378 1.348 . S
C381 C379 1.356 1_565 S
H382 C376 0.930 . S
H383 C380 0.930 . S
C384 C386 1.348 . S
C384 C387 1.356 . S
C384 O414 1.325 . S
N385 C388 1.314 . S
N385 C389 1.279 1_556 S
C386 C384 1.348 . S
C386 C388 1.353 . S
C386 H428 0.929 . S
C387 C384 1.356 . S
C387 C389 1.358 1_556 S
C387 H429 0.930 1_556 S
C388 N385 1.314 . S
C388 C386 1.353 . S
C388 H430 0.930 . S
C389 N385 1.279 1_554 S
C389 C387 1.358 1_554 S
C389 H431 0.930 . S
C390 C391 1.348 . S
C390 C392 1.356 . S
C390 O415 1.325 . S
C391 C390 1.348 . S
C391 C393 1.353 1_545 S
C391 H432 0.929 . S
C392 C390 1.356 . S
C392 C394 1.358 1_545 S
C392 H433 0.930 . S
C393 C391 1.353 1_565 S
C393 N395 1.314 . S
C393 H434 0.930 . S
C394 C392 1.358 1_565 S
C394 N395 1.279 . S
C394 H435 0.930 . S
N395 C393 1.314 . S
N395 C394 1.279 . S
C396 C398 1.353 . S
C396 N399 1.314 1_565 S
C396 H402 0.930 . S
C397 N399 1.279 . S
C397 C400 1.358 . S
C397 H403 0.930 . S
C398 C396 1.353 . S
C398 C401 1.348 . S
C398 H436 0.929 . S
N399 Li354 1.990 . S
N399 C396 1.314 1_545 S
N399 C397 1.279 . S
C400 C397 1.358 . S
C400 C401 1.356 1_545 S
C400 H437 0.930 . S
C401 C398 1.348 . S
C401 C400 1.356 1_565 S
H402 C396 0.930 . S
H403 C397 0.930 . S
C404 N405 1.314 . S
C404 C406 1.353 . S
C404 H410 0.930 . S
N405 Li355 1.990 . S
N405 C404 1.314 . S
N405 C408 1.279 . S
C406 C404 1.353 . S
C406 C409 1.348 . S
C406 H438 0.929 . S
C407 C408 1.358 . S
C407 C409 1.356 . S
C407 H439 0.930 . S
C408 N405 1.279 . S
C408 C407 1.358 . S
C408 H411 0.930 . S
C409 C406 1.348 . S
C409 C407 1.356 . S
H410 C404 0.930 . S
H411 C408 0.930 . S
O412 Li352 1.956 . S
O412 Li353 1.970 . S
O412 Li354 1.961 . S
O412 C356 1.325 . S
O413 Li352 1.970 . S
O413 Li353 1.956 . S
O413 Li355 1.961 . S
O413 C362 1.325 . S
O414 Li352 1.961 . S
O414 Li354 1.956 . S
O414 Li355 1.970 . S
O414 C384 1.325 . S
O415 Li353 1.961 . S
O415 Li354 1.970 . S
O415 Li355 1.956 . S
O415 C390 1.325 . S
H416 C358 0.929 . S
H417 C359 0.930 . S
H418 C360 0.930 . S
H419 C361 0.930 . S
H420 C363 0.930 . S
H421 C365 0.929 . S
H422 C366 0.930 . S
H423 C367 0.930 . S
H424 C370 0.930 . S
H425 C373 0.929 . S
H426 C378 0.929 . S
H427 C379 0.930 . S
H428 C386 0.929 . S
H429 C387 0.930 1_554 S
H430 C388 0.930 . S
H431 C389 0.930 . S
H432 C391 0.929 . S
H433 C392 0.930 . S
H434 C393 0.930 . S
H435 C394 0.930 . S
H436 C398 0.929 . S
H437 C400 0.930 . S
H438 C406 0.929 . S
H439 C407 0.930 . S
Li440 N457 1.990 . S
Li440 O500 1.956 . S
Li440 O501 1.970 . S
Li440 O502 1.961 . S
Li441 N465 1.990 . S
Li441 O500 1.970 . S
Li441 O501 1.956 . S
Li441 O503 1.961 . S
Li442 N487 1.990 . S
Li442 O500 1.961 . S
Li442 O502 1.956 . S
Li442 O503 1.970 . S
Li443 N493 1.990 1_554 S
Li443 O501 1.961 . S
Li443 O502 1.970 . S
Li443 O503 1.956 . S
C444 C446 1.348 . S
C444 C447 1.356 . S
C444 O500 1.325 . S
N445 C448 1.314 . S
N445 C449 1.279 . S
C446 C444 1.348 . S
C446 C448 1.353 1_655 S
C446 H504 0.929 . S
C447 C444 1.356 . S
C447 C449 1.358 1_655 S
C447 H505 0.930 . S
C448 N445 1.314 . S
C448 C446 1.353 1_455 S
C448 H506 0.930 . S
C449 N445 1.279 . S
C449 C447 1.358 1_455 S
C449 H507 0.930 . S
C450 C453 1.348 . S
C450 C454 1.356 . S
C450 O501 1.325 . S
C451 N452 1.279 1_556 S
C451 C454 1.358 1_556 S
C451 H508 0.930 . S
N452 C451 1.279 1_554 S
N452 C455 1.314 . S
C453 C450 1.348 . S
C453 C455 1.353 . S
C453 H509 0.929 . S
C454 C450 1.356 . S
C454 C451 1.358 1_554 S
C454 H510 0.930 1_554 S
C455 N452 1.314 . S
C455 C453 1.353 . S
C455 H511 0.930 . S
C456 N457 1.314 . S
C456 C461 1.353 . S
C456 H462 0.930 . S
N457 Li440 1.990 . S
N457 C456 1.314 . S
N457 C459 1.279 . S
C458 C459 1.358 . S
C458 C460 1.356 . S
C458 H512 0.930 . S
C459 N457 1.279 . S
C459 C458 1.358 . S
C459 H463 0.930 . S
C460 C458 1.356 . S
C460 C461 1.348 . S
C461 C456 1.353 . S
C461 C460 1.348 . S
C461 H513 0.929 . S
H462 C456 0.930 . S
H463 C459 0.930 . S
C464 N465 1.314 1_455 S
C464 C466 1.353 . S
C464 H470 0.930 . S
N465 Li441 1.990 . S
N465 C464 1.314 1_655 S
N465 C468 1.279 . S
C466 C464 1.353 . S
C466 C469 1.348 . S
C466 H514 0.929 . S
C467 C468 1.358 . S
C467 C469 1.356 1_655 S
C467 H515 0.930 . S
C468 N465 1.279 . S
C468 C467 1.358 . S
C468 H471 0.930 . S
C469 C466 1.348 . S
C469 C467 1.356 1_455 S
H470 C464 0.930 . S
H471 C468 0.930 . S
C472 C474 1.348 . S
C472 C475 1.356 . S
C472 O502 1.325 . S
N473 C476 1.314 . S
N473 C477 1.279 . S
C474 C472 1.348 . S
C474 C476 1.353 . S
C474 H516 0.929 . S
C475 C472 1.356 . S
C475 C477 1.358 . S
C475 H517 0.930 . S
C476 N473 1.314 . S
C476 C474 1.353 . S
C476 H518 0.930 . S
C477 N473 1.279 . S
C477 C475 1.358 . S
C477 H519 0.930 . S
C478 C479 1.348 . S
C478 C480 1.356 1_554 S
C478 O503 1.325 . S
C479 C478 1.348 . S
C479 C481 1.353 1_654 S
C479 H520 0.929 . S
C480 C478 1.356 1_556 S
C480 C482 1.358 1_655 S
C480 H521 0.930 . S
C481 C479 1.353 1_456 S
C481 N483 1.314 . S
C481 H522 0.930 . S
C482 C480 1.358 1_455 S
C482 N483 1.279 . S
C482 H523 0.930 . S
N483 C481 1.314 . S
N483 C482 1.279 . S
C484 C486 1.353 . S
C484 N487 1.314 1_455 S
C484 H490 0.930 . S
C485 N487 1.279 . S
C485 C488 1.358 . S
C485 H491 0.930 . S
C486 C484 1.353 . S
C486 C489 1.348 . S
C486 H524 0.929 . S
N487 Li442 1.990 . S
N487 C484 1.314 1_655 S
N487 C485 1.279 . S
C488 C485 1.358 . S
C488 C489 1.356 1_655 S
C488 H525 0.930 . S
C489 C486 1.348 . S
C489 C488 1.356 1_455 S
H490 C484 0.930 . S
H491 C485 0.930 . S
C492 N493 1.314 . S
C492 C494 1.353 . S
C492 H498 0.930 1_556 S
N493 Li443 1.990 1_556 S
N493 C492 1.314 . S
N493 C496 1.279 . S
C494 C492 1.353 . S
C494 C497 1.348 . S
C494 H526 0.929 . S
C495 C496 1.358 . S
C495 C497 1.356 . S
C495 H527 0.930 . S
C496 N493 1.279 . S
C496 C495 1.358 . S
C496 H499 0.930 . S
C497 C494 1.348 . S
C497 C495 1.356 . S
H498 C492 0.930 1_554 S
H499 C496 0.930 . S
O500 Li440 1.956 . S
O500 Li441 1.970 . S
O500 Li442 1.961 . S
O500 C444 1.325 . S
O501 Li440 1.970 . S
O501 Li441 1.956 . S
O501 Li443 1.961 . S
O501 C450 1.325 . S
O502 Li440 1.961 . S
O502 Li442 1.956 . S
O502 Li443 1.970 . S
O502 C472 1.325 . S
O503 Li441 1.961 . S
O503 Li442 1.970 . S
O503 Li443 1.956 . S
O503 C478 1.325 . S
H504 C446 0.929 . S
H505 C447 0.930 . S
H506 C448 0.930 . S
H507 C449 0.930 . S
H508 C451 0.930 . S
H509 C453 0.929 . S
H510 C454 0.930 1_556 S
H511 C455 0.930 . S
H512 C458 0.930 . S
H513 C461 0.929 . S
H514 C466 0.929 . S
H515 C467 0.930 . S
H516 C474 0.929 . S
H517 C475 0.930 . S
H518 C476 0.930 . S
H519 C477 0.930 . S
H520 C479 0.929 . S
H521 C480 0.930 . S
H522 C481 0.930 . S
H523 C482 0.930 . S
H524 C486 0.929 . S
H525 C488 0.930 . S
H526 C494 0.929 . S
H527 C495 0.930 . S
Li528 N545 1.990 . S
Li528 O588 1.956 . S
Li528 O589 1.970 . S
Li528 O590 1.961 . S
Li529 N553 1.990 . S
Li529 O588 1.970 . S
Li529 O589 1.956 . S
Li529 O591 1.961 . S
Li530 N575 1.990 . S
Li530 O588 1.961 . S
Li530 O590 1.956 . S
Li530 O591 1.970 . S
Li531 N581 1.990 . S
Li531 O589 1.961 . S
Li531 O590 1.970 . S
Li531 O591 1.956 . S
C532 C534 1.348 . S
C532 C535 1.356 . S
C532 O588 1.325 . S
N533 C536 1.314 . S
N533 C537 1.279 . S
C534 C532 1.348 . S
C534 C536 1.353 . S
C534 H592 0.929 . S
C535 C532 1.356 . S
C535 C537 1.358 . S
C535 H593 0.930 . S
C536 N533 1.314 . S
C536 C534 1.353 . S
C536 H594 0.930 . S
C537 N533 1.279 . S
C537 C535 1.358 . S
C537 H595 0.930 . S
C538 C541 1.348 . S
C538 C542 1.356 . S
C538 O589 1.325 . S
C539 N540 1.279 . S
C539 C542 1.358 . S
C539 H596 0.930 . S
N540 C539 1.279 . S
N540 C543 1.314 . S
C541 C538 1.348 . S
C541 C543 1.353 . S
C541 H597 0.929 . S
C542 C538 1.356 . S
C542 C539 1.358 . S
C542 H598 0.930 . S
C543 N540 1.314 . S
C543 C541 1.353 . S
C543 H599 0.930 . S
C544 N545 1.314 . S
C544 C549 1.353 . S
C544 H550 0.930 . S
N545 Li528 1.990 . S
N545 C544 1.314 . S
N545 C547 1.279 . S
C546 C547 1.358 . S
C546 C548 1.356 . S
C546 H600 0.930 . S
C547 N545 1.279 . S
C547 C546 1.358 . S
C547 H551 0.930 . S
C548 C546 1.356 . S
C548 C549 1.348 . S
C549 C544 1.353 . S
C549 C548 1.348 . S
C549 H601 0.929 . S
H550 C544 0.930 . S
H551 C547 0.930 . S
C552 N553 1.314 . S
C552 C554 1.353 . S
C552 H558 0.930 . S
N553 Li529 1.990 . S
N553 C552 1.314 . S
N553 C556 1.279 . S
C554 C552 1.353 . S
C554 C557 1.348 . S
C554 H602 0.929 . S
C555 C556 1.358 . S
C555 C557 1.356 . S
C555 H603 0.930 . S
C556 N553 1.279 . S
C556 C555 1.358 . S
C556 H559 0.930 . S
C557 C554 1.348 . S
C557 C555 1.356 . S
H558 C552 0.930 . S
H559 C556 0.930 . S
C560 C562 1.348 . S
C560 C563 1.356 . S
C560 O590 1.325 . S
N561 C564 1.314 . S
N561 C565 1.279 . S
C562 C560 1.348 . S
C562 C564 1.353 . S
C562 H604 0.929 . S
C563 C560 1.356 . S
C563 C565 1.358 . S
C563 H605 0.930 . S
C564 N561 1.314 . S
C564 C562 1.353 . S
C564 H606 0.930 . S
C565 N561 1.279 . S
C565 C563 1.358 . S
C565 H607 0.930 . S
C566 C567 1.348 . S
C566 C568 1.356 . S
C566 O591 1.325 . S
C567 C566 1.348 . S
C567 C569 1.353 . S
C567 H608 0.929 . S
C568 C566 1.356 . S
C568 C570 1.358 . S
C568 H609 0.930 . S
C569 C567 1.353 . S
C569 N571 1.314 . S
C569 H610 0.930 . S
C570 C568 1.358 . S
C570 N571 1.279 . S
C570 H611 0.930 . S
N571 C569 1.314 . S
N571 C570 1.279 . S
C572 C574 1.353 . S
C572 N575 1.314 . S
C572 H578 0.930 . S
C573 N575 1.279 . S
C573 C576 1.358 . S
C573 H579 0.930 . S
C574 C572 1.353 . S
C574 C577 1.348 . S
C574 H612 0.929 . S
N575 Li530 1.990 . S
N575 C572 1.314 . S
N575 C573 1.279 . S
C576 C573 1.358 . S
C576 C577 1.356 . S
C576 H613 0.930 . S
C577 C574 1.348 . S
C577 C576 1.356 . S
H578 C572 0.930 . S
H579 C573 0.930 . S
C580 N581 1.314 . S
C580 C582 1.353 . S
C580 H586 0.930 . S
N581 Li531 1.990 . S
N581 C580 1.314 . S
N581 C584 1.279 . S
C582 C580 1.353 . S
C582 C585 1.348 . S
C582 H614 0.929 . S
C583 C584 1.358 . S
C583 C585 1.356 . S
C583 H615 0.930 . S
C584 N581 1.279 . S
C584 C583 1.358 . S
C584 H587 0.930 . S
C585 C582 1.348 . S
C585 C583 1.356 . S
H586 C580 0.930 . S
H587 C584 0.930 . S
O588 Li528 1.956 . S
O588 Li529 1.970 . S
O588 Li530 1.961 . S
O588 C532 1.325 . S
O589 Li528 1.970 . S
O589 Li529 1.956 . S
O589 Li531 1.961 . S
O589 C538 1.325 . S
O590 Li528 1.961 . S
O590 Li530 1.956 . S
O590 Li531 1.970 . S
O590 C560 1.325 . S
O591 Li529 1.961 . S
O591 Li530 1.970 . S
O591 Li531 1.956 . S
O591 C566 1.325 . S
H592 C534 0.929 . S
H593 C535 0.930 . S
H594 C536 0.930 . S
H595 C537 0.930 . S
H596 C539 0.930 . S
H597 C541 0.929 . S
H598 C542 0.930 . S
H599 C543 0.930 . S
H600 C546 0.930 . S
H601 C549 0.929 . S
H602 C554 0.929 . S
H603 C555 0.930 . S
H604 C562 0.929 . S
H605 C563 0.930 . S
H606 C564 0.930 . S
H607 C565 0.930 . S
H608 C567 0.929 . S
H609 C568 0.930 . S
H610 C569 0.930 . S
H611 C570 0.930 . S
H612 C574 0.929 . S
H613 C576 0.930 . S
H614 C582 0.929 . S
H615 C583 0.930 . S
Li616 N633 1.990 . S
Li616 O676 1.956 . S
Li616 O677 1.970 . S
Li616 O678 1.961 . S
Li617 N641 1.990 . S
Li617 O676 1.970 . S
Li617 O677 1.956 . S
Li617 O679 1.961 . S
Li618 N663 1.990 . S
Li618 O676 1.961 . S
Li618 O678 1.956 . S
Li618 O679 1.970 . S
Li619 N669 1.990 . S
Li619 O677 1.961 . S
Li619 O678 1.970 . S
Li619 O679 1.956 . S
C620 C622 1.348 . S
C620 C623 1.356 . S
C620 O676 1.325 . S
N621 C624 1.314 . S
N621 C625 1.279 . S
C622 C620 1.348 . S
C622 C624 1.353 . S
C622 H680 0.929 . S
C623 C620 1.356 . S
C623 C625 1.358 . S
C623 H681 0.930 . S
C624 N621 1.314 . S
C624 C622 1.353 . S
C624 H682 0.930 . S
C625 N621 1.279 . S
C625 C623 1.358 . S
C625 H683 0.930 . S
C626 C629 1.348 . S
C626 C630 1.356 . S
C626 O677 1.325 . S
C627 N628 1.279 . S
C627 C630 1.358 . S
C627 H684 0.930 . S
N628 C627 1.279 . S
N628 C631 1.314 . S
C629 C626 1.348 . S
C629 C631 1.353 . S
C629 H685 0.929 . S
C630 C626 1.356 . S
C630 C627 1.358 . S
C630 H686 0.930 . S
C631 N628 1.314 . S
C631 C629 1.353 . S
C631 H687 0.930 . S
C632 N633 1.314 . S
C632 C637 1.353 . S
C632 H638 0.930 . S
N633 Li616 1.990 . S
N633 C632 1.314 . S
N633 C635 1.279 . S
C634 C635 1.358 . S
C634 C636 1.356 . S
C634 H688 0.930 . S
C635 N633 1.279 . S
C635 C634 1.358 . S
C635 H639 0.930 . S
C636 C634 1.356 . S
C636 C637 1.348 . S
C637 C632 1.353 . S
C637 C636 1.348 . S
C637 H689 0.929 . S
H638 C632 0.930 . S
H639 C635 0.930 . S
C640 N641 1.314 . S
C640 C642 1.353 . S
C640 H646 0.930 . S
N641 Li617 1.990 . S
N641 C640 1.314 . S
N641 C644 1.279 . S
C642 C640 1.353 . S
C642 C645 1.348 . S
C642 H690 0.929 . S
C643 C644 1.358 . S
C643 C645 1.356 . S
C643 H691 0.930 . S
C644 N641 1.279 . S
C644 C643 1.358 . S
C644 H647 0.930 . S
C645 C642 1.348 . S
C645 C643 1.356 . S
H646 C640 0.930 . S
H647 C644 0.930 . S
C648 C650 1.348 . S
C648 C651 1.356 . S
C648 O678 1.325 . S
N649 C652 1.314 . S
N649 C653 1.279 . S
C650 C648 1.348 . S
C650 C652 1.353 . S
C650 H692 0.929 . S
C651 C648 1.356 . S
C651 C653 1.358 . S
C651 H693 0.930 . S
C652 N649 1.314 . S
C652 C650 1.353 . S
C652 H694 0.930 . S
C653 N649 1.279 . S
C653 C651 1.358 . S
C653 H695 0.930 . S
C654 C655 1.348 . S
C654 C656 1.356 . S
C654 O679 1.325 . S
C655 C654 1.348 . S
C655 C657 1.353 . S
C655 H696 0.929 . S
C656 C654 1.356 . S
C656 C658 1.358 . S
C656 H697 0.930 . S
C657 C655 1.353 . S
C657 N659 1.314 . S
C657 H698 0.930 . S
C658 C656 1.358 . S
C658 N659 1.279 . S
C658 H699 0.930 . S
N659 C657 1.314 . S
N659 C658 1.279 . S
C660 C662 1.353 . S
C660 N663 1.314 . S
C660 H666 0.930 . S
C661 N663 1.279 . S
C661 C664 1.358 . S
C661 H667 0.930 . S
C662 C660 1.353 . S
C662 C665 1.348 . S
C662 H700 0.929 . S
N663 Li618 1.990 . S
N663 C660 1.314 . S
N663 C661 1.279 . S
C664 C661 1.358 . S
C664 C665 1.356 . S
C664 H701 0.930 . S
C665 C662 1.348 . S
C665 C664 1.356 . S
H666 C660 0.930 . S
H667 C661 0.930 . S
C668 N669 1.314 . S
C668 C670 1.353 . S
C668 H674 0.930 . S
N669 Li619 1.990 . S
N669 C668 1.314 . S
N669 C672 1.279 . S
C670 C668 1.353 . S
C670 C673 1.348 . S
C670 H702 0.929 . S
C671 C672 1.358 . S
C671 C673 1.356 . S
C671 H703 0.930 . S
C672 N669 1.279 . S
C672 C671 1.358 . S
C672 H675 0.930 . S
C673 C670 1.348 . S
C673 C671 1.356 . S
H674 C668 0.930 . S
H675 C672 0.930 . S
O676 Li616 1.956 . S
O676 Li617 1.970 . S
O676 Li618 1.961 . S
O676 C620 1.325 . S
O677 Li616 1.970 . S
O677 Li617 1.956 . S
O677 Li619 1.961 . S
O677 C626 1.325 . S
O678 Li616 1.961 . S
O678 Li618 1.956 . S
O678 Li619 1.970 . S
O678 C648 1.325 . S
O679 Li617 1.961 . S
O679 Li618 1.970 . S
O679 Li619 1.956 . S
O679 C654 1.325 . S
H680 C622 0.929 . S
H681 C623 0.930 . S
H682 C624 0.930 . S
H683 C625 0.930 . S
H684 C627 0.930 . S
H685 C629 0.929 . S
H686 C630 0.930 . S
H687 C631 0.930 . S
H688 C634 0.930 . S
H689 C637 0.929 . S
H690 C642 0.929 . S
H691 C643 0.930 . S
H692 C650 0.929 . S
H693 C651 0.930 . S
H694 C652 0.930 . S
H695 C653 0.930 . S
H696 C655 0.929 . S
H697 C656 0.930 . S
H698 C657 0.930 . S
H699 C658 0.930 . S
H700 C662 0.929 . S
H701 C664 0.930 . S
H702 C670 0.929 . S
H703 C671 0.930 . S
H704 C710 0.930 . S
H705 C713 0.930 . S
H706 C714 0.930 . S
H707 C715 0.930 . S
H708 C718 0.930 . S
H709 C719 0.930 . S
C710 H704 0.930 . S
C710 C711 1.355 . S
C710 C712 1.415 . S
C711 C710 1.355 . S
C711 C713 1.419 . S
C712 C710 1.415 . S
C712 C717 1.425 1_556 S
C712 C719 1.409 1_556 S
C713 H705 0.930 . S
C713 C711 1.419 . S
C713 C714 1.362 . S
C714 H706 0.930 . S
C714 C713 1.362 . S
C714 C717 1.409 1_556 S
C715 H707 0.930 . S
C715 C716 1.355 . S
C715 C717 1.415 . S
C716 C715 1.355 . S
C716 C718 1.419 . S
C717 C712 1.425 1_554 S
C717 C714 1.409 1_554 S
C717 C715 1.415 . S
C718 H708 0.930 . S
C718 C716 1.419 . S
C718 C719 1.362 . S
C719 H709 0.930 . S
C719 C712 1.409 1_554 S
C719 C718 1.362 . S
H720 C726 0.930 . S
H721 C729 0.930 . S
H722 C730 0.930 . S
H723 C731 0.930 . S
H724 C734 0.930 . S
H725 C735 0.930 . S
C726 H720 0.930 . S
C726 C727 1.355 . S
C726 C728 1.415 . S
C727 C726 1.355 . S
C727 C729 1.419 . S
C728 C726 1.415 . S
C728 C733 1.425 . S
C728 C735 1.409 . S
C729 H721 0.930 . S
C729 C727 1.419 . S
C729 C730 1.362 . S
C730 H722 0.930 . S
C730 C729 1.362 . S
C730 C733 1.409 . S
C731 H723 0.930 . S
C731 C732 1.355 . S
C731 C733 1.415 . S
C732 C731 1.355 . S
C732 C734 1.419 . S
C733 C728 1.425 . S
C733 C730 1.409 . S
C733 C731 1.415 . S
C734 H724 0.930 . S
C734 C732 1.419 . S
C734 C735 1.362 . S
C735 H725 0.930 . S
C735 C728 1.409 . S
C735 C734 1.362 . S
H736 C742 0.930 . S
H737 C745 0.930 . S
H738 C746 0.930 . S
H739 C747 0.930 . S
H740 C750 0.930 . S
H741 C751 0.930 . S
C742 H736 0.930 . S
C742 C743 1.355 . S
C742 C744 1.415 . S
C743 C742 1.355 . S
C743 C745 1.419 . S
C744 C742 1.415 . S
C744 C749 1.425 . S
C744 C751 1.409 . S
C745 H737 0.930 . S
C745 C743 1.419 . S
C745 C746 1.362 . S
C746 H738 0.930 . S
C746 C745 1.362 . S
C746 C749 1.409 . S
C747 H739 0.930 . S
C747 C748 1.355 . S
C747 C749 1.415 . S
C748 C747 1.355 . S
C748 C750 1.419 . S
C749 C744 1.425 . S
C749 C746 1.409 . S
C749 C747 1.415 . S
C750 H740 0.930 . S
C750 C748 1.419 . S
C750 C751 1.362 . S
C751 H741 0.930 . S
C751 C744 1.409 . S
C751 C750 1.362 . S
H752 C758 0.930 . S
H753 C761 0.930 . S
H754 C762 0.930 . S
H755 C763 0.930 . S
H756 C766 0.930 . S
H757 C767 0.930 . S
C758 H752 0.930 . S
C758 C759 1.355 . S
C758 C760 1.415 . S
C759 C758 1.355 . S
C759 C761 1.419 . S
C760 C758 1.415 . S
C760 C765 1.425 . S
C760 C767 1.409 . S
C761 H753 0.930 . S
C761 C759 1.419 . S
C761 C762 1.362 . S
C762 H754 0.930 . S
C762 C761 1.362 . S
C762 C765 1.409 . S
C763 H755 0.930 . S
C763 C764 1.355 . S
C763 C765 1.415 . S
C764 C763 1.355 . S
C764 C766 1.419 . S
C765 C760 1.425 . S
C765 C762 1.409 . S
C765 C763 1.415 . S
C766 H756 0.930 . S
C766 C764 1.419 . S
C766 C767 1.362 . S
C767 H757 0.930 . S
C767 C760 1.409 . S
C767 C766 1.362 . S
H768 C774 0.930 . S
H769 C777 0.930 . S
H770 C778 0.930 . S
H771 C779 0.930 . S
H772 C782 0.930 . S
H773 C783 0.930 . S
C774 H768 0.930 . S
C774 C775 1.355 . S
C774 C776 1.415 . S
C775 C774 1.355 . S
C775 C777 1.419 . S
C776 C774 1.415 . S
C776 C781 1.425 . S
C776 C783 1.409 . S
C777 H769 0.930 . S
C777 C775 1.419 . S
C777 C778 1.362 . S
C778 H770 0.930 . S
C778 C777 1.362 . S
C778 C781 1.409 . S
C779 H771 0.930 . S
C779 C780 1.355 . S
C779 C781 1.415 . S
C780 C779 1.355 . S
C780 C782 1.419 . S
C781 C776 1.425 . S
C781 C778 1.409 . S
C781 C779 1.415 . S
C782 H772 0.930 . S
C782 C780 1.419 . S
C782 C783 1.362 . S
C783 H773 0.930 . S
C783 C776 1.409 . S
C783 C782 1.362 . S
H784 C790 0.930 . S
H785 C793 0.930 . S
H786 C794 0.930 . S
H787 C795 0.930 . S
H788 C798 0.930 . S
H789 C799 0.930 . S
C790 H784 0.930 . S
C790 C791 1.355 . S
C790 C792 1.415 . S
C791 C790 1.355 . S
C791 C793 1.419 . S
C792 C790 1.415 . S
C792 C797 1.425 . S
C792 C799 1.409 . S
C793 H785 0.930 . S
C793 C791 1.419 . S
C793 C794 1.362 . S
C794 H786 0.930 . S
C794 C793 1.362 . S
C794 C797 1.409 . S
C795 H787 0.930 . S
C795 C796 1.355 . S
C795 C797 1.415 . S
C796 C795 1.355 . S
C796 C798 1.419 . S
C797 C792 1.425 . S
C797 C794 1.409 . S
C797 C795 1.415 . S
C798 H788 0.930 . S
C798 C796 1.419 . S
C798 C799 1.362 . S
C799 H789 0.930 . S
C799 C792 1.409 . S
C799 C798 1.362 . S
H800 C806 0.930 . S
H801 C809 0.930 . S
H802 C810 0.930 . S
H803 C811 0.930 . S
H804 C814 0.930 . S
H805 C815 0.930 . S
C806 H800 0.930 . S
C806 C807 1.355 . S
C806 C808 1.415 . S
C807 C806 1.355 . S
C807 C809 1.419 . S
C808 C806 1.415 . S
C808 C813 1.425 1_554 S
C808 C815 1.409 . S
C809 H801 0.930 . S
C809 C807 1.419 . S
C809 C810 1.362 1_554 S
C810 H802 0.930 . S
C810 C809 1.362 1_556 S
C810 C813 1.409 . S
C811 H803 0.930 . S
C811 C812 1.355 . S
C811 C813 1.415 . S
C812 C811 1.355 . S
C812 C814 1.419 . S
C813 C808 1.425 1_556 S
C813 C810 1.409 . S
C813 C811 1.415 . S
C814 H804 0.930 . S
C814 C812 1.419 . S
C814 C815 1.362 1_556 S
C815 H805 0.930 . S
C815 C808 1.409 . S
C815 C814 1.362 1_554 S
H816 C822 0.930 . S
H817 C825 0.930 . S
H818 C826 0.930 . S
H819 C827 0.930 . S
H820 C830 0.930 . S
H821 C831 0.930 . S
C822 H816 0.930 . S
C822 C823 1.355 . S
C822 C824 1.415 . S
C823 C822 1.355 . S
C823 C825 1.419 . S
C824 C822 1.415 . S
C824 C829 1.425 . S
C824 C831 1.409 . S
C825 H817 0.930 . S
C825 C823 1.419 . S
C825 C826 1.362 . S
C826 H818 0.930 . S
C826 C825 1.362 . S
C826 C829 1.409 . S
C827 H819 0.930 . S
C827 C828 1.355 . S
C827 C829 1.415 . S
C828 C827 1.355 . S
C828 C830 1.419 . S
C829 C824 1.425 . S
C829 C826 1.409 . S
C829 C827 1.415 . S
C830 H820 0.930 . S
C830 C828 1.419 . S
C830 C831 1.362 . S
C831 H821 0.930 . S
C831 C824 1.409 . S
C831 C830 1.362 . S
H832 C838 0.930 . S
H833 C841 0.930 . S
H834 C842 0.930 . S
H835 C843 0.930 . S
H836 C846 0.930 . S
H837 C847 0.930 . S
C838 H832 0.930 . S
C838 C839 1.355 . S
C838 C840 1.415 . S
C839 C838 1.355 . S
C839 C841 1.419 . S
C840 C838 1.415 . S
C840 C845 1.425 . S
C840 C847 1.409 . S
C841 H833 0.930 . S
C841 C839 1.419 . S
C841 C842 1.362 . S
C842 H834 0.930 . S
C842 C841 1.362 . S
C842 C845 1.409 . S
C843 H835 0.930 . S
C843 C844 1.355 . S
C843 C845 1.415 . S
C844 C843 1.355 . S
C844 C846 1.419 . S
C845 C840 1.425 . S
C845 C842 1.409 . S
C845 C843 1.415 . S
C846 H836 0.930 . S
C846 C844 1.419 . S
C846 C847 1.362 . S
C847 H837 0.930 . S
C847 C840 1.409 . S
C847 C846 1.362 . S
H848 C854 0.930 . S
H849 C857 0.930 . S
H850 C858 0.930 . S
H851 C859 0.930 . S
H852 C862 0.930 . S
H853 C863 0.930 . S
C854 H848 0.930 . S
C854 C855 1.355 . S
C854 C856 1.415 . S
C855 C854 1.355 . S
C855 C857 1.419 . S
C856 C854 1.415 . S
C856 C861 1.425 . S
C856 C863 1.409 . S
C857 H849 0.930 . S
C857 C855 1.419 . S
C857 C858 1.362 . S
C858 H850 0.930 . S
C858 C857 1.362 . S
C858 C861 1.409 . S
C859 H851 0.930 . S
C859 C860 1.355 . S
C859 C861 1.415 . S
C860 C859 1.355 . S
C860 C862 1.419 . S
C861 C856 1.425 . S
C861 C858 1.409 . S
C861 C859 1.415 . S
C862 H852 0.930 . S
C862 C860 1.419 . S
C862 C863 1.362 . S
C863 H853 0.930 . S
C863 C856 1.409 . S
C863 C862 1.362 . S
H864 C870 0.930 . S
H865 C873 0.930 . S
H866 C874 0.930 . S
H867 C875 0.930 . S
H868 C878 0.930 . S
H869 C879 0.930 . S
C870 H864 0.930 . S
C870 C871 1.355 1_556 S
C870 C872 1.415 . S
C871 C870 1.355 1_554 S
C871 C873 1.419 . S
C872 C870 1.415 . S
C872 C877 1.425 1_556 S
C872 C879 1.409 . S
C873 H865 0.930 . S
C873 C871 1.419 . S
C873 C874 1.362 . S
C874 H866 0.930 . S
C874 C873 1.362 . S
C874 C877 1.409 . S
C875 H867 0.930 . S
C875 C876 1.355 1_554 S
C875 C877 1.415 . S
C876 C875 1.355 1_556 S
C876 C878 1.419 . S
C877 C872 1.425 1_554 S
C877 C874 1.409 . S
C877 C875 1.415 . S
C878 H868 0.930 . S
C878 C876 1.419 . S
C878 C879 1.362 . S
C879 H869 0.930 . S
C879 C872 1.409 . S
C879 C878 1.362 . S
H880 C886 0.930 . S
H881 C889 0.930 . S
H882 C890 0.930 . S
H883 C891 0.930 . S
H884 C894 0.930 . S
H885 C895 0.930 . S
C886 H880 0.930 . S
C886 C887 1.355 . S
C886 C888 1.415 . S
C887 C886 1.355 . S
C887 C889 1.419 . S
C888 C886 1.415 . S
C888 C893 1.425 . S
C888 C895 1.409 . S
C889 H881 0.930 . S
C889 C887 1.419 . S
C889 C890 1.362 . S
C890 H882 0.930 . S
C890 C889 1.362 . S
C890 C893 1.409 . S
C891 H883 0.930 . S
C891 C892 1.355 . S
C891 C893 1.415 . S
C892 C891 1.355 . S
C892 C894 1.419 . S
C893 C888 1.425 . S
C893 C890 1.409 . S
C893 C891 1.415 . S
C894 H884 0.930 . S
C894 C892 1.419 . S
C894 C895 1.362 . S
C895 H885 0.930 . S
C895 C888 1.409 . S
C895 C894 1.362 . S
H896 C902 0.930 . S
H897 C905 0.930 . S
H898 C906 0.930 . S
H899 C907 0.930 . S
H900 C910 0.930 . S
H901 C911 0.930 . S
C902 H896 0.930 . S
C902 C903 1.355 . S
C902 C904 1.415 . S
C903 C902 1.355 . S
C903 C905 1.419 . S
C904 C902 1.415 . S
C904 C909 1.425 . S
C904 C911 1.409 . S
C905 H897 0.930 . S
C905 C903 1.419 . S
C905 C906 1.362 . S
C906 H898 0.930 . S
C906 C905 1.362 . S
C906 C909 1.409 . S
C907 H899 0.930 . S
C907 C908 1.355 . S
C907 C909 1.415 . S
C908 C907 1.355 . S
C908 C910 1.419 . S
C909 C904 1.425 . S
C909 C906 1.409 . S
C909 C907 1.415 . S
C910 H900 0.930 . S
C910 C908 1.419 . S
C910 C911 1.362 . S
C911 H901 0.930 . S
C911 C904 1.409 . S
C911 C910 1.362 . S
H912 C918 0.930 . S
H913 C921 0.930 . S
H914 C922 0.930 . S
H915 C923 0.930 . S
H916 C926 0.930 . S
H917 C927 0.930 . S
C918 H912 0.930 . S
C918 C919 1.349 1_556 S
C918 C920 1.415 . S
C919 C918 1.349 1_554 S
C919 C921 1.427 . S
C920 C918 1.415 . S
C920 C925 1.425 1_556 S
C920 C927 1.409 . S
C921 H913 0.930 . S
C921 C919 1.427 . S
C921 C922 1.362 . S
C922 H914 0.930 . S
C922 C921 1.362 . S
C922 C925 1.409 . S
C923 H915 0.930 . S
C923 C924 1.349 1_554 S
C923 C925 1.415 . S
C924 C923 1.349 1_556 S
C924 C926 1.427 . S
C925 C920 1.425 1_554 S
C925 C922 1.409 . S
C925 C923 1.415 . S
C926 H916 0.930 . S
C926 C924 1.427 . S
C926 C927 1.362 . S
C927 H917 0.930 . S
C927 C920 1.409 . S
C927 C926 1.362 . S
H928 C934 0.930 . S
H929 C937 0.930 . S
H930 C938 0.930 . S
H931 C939 0.930 . S
H932 C942 0.930 . S
H933 C943 0.930 . S
C934 H928 0.930 . S
C934 C935 1.355 . S
C934 C936 1.415 . S
C935 C934 1.355 . S
C935 C937 1.419 . S
C936 C934 1.415 . S
C936 C941 1.425 . S
C936 C943 1.409 . S
C937 H929 0.930 . S
C937 C935 1.419 . S
C937 C938 1.362 . S
C938 H930 0.930 . S
C938 C937 1.362 . S
C938 C941 1.409 . S
C939 H931 0.930 . S
C939 C940 1.355 . S
C939 C941 1.415 . S
C940 C939 1.355 . S
C940 C942 1.419 . S
C941 C936 1.425 . S
C941 C938 1.409 . S
C941 C939 1.415 . S
C942 H932 0.930 . S
C942 C940 1.419 . S
C942 C943 1.362 . S
C943 H933 0.930 . S
C943 C936 1.409 . S
C943 C942 1.362 . S
H944 C950 0.930 . S
H945 C953 0.930 . S
H946 C954 0.930 . S
H947 C955 0.930 . S
H948 C958 0.930 . S
H949 C959 0.930 . S
C950 H944 0.930 . S
C950 C951 1.355 . S
C950 C952 1.415 . S
C951 C950 1.355 . S
C951 C953 1.419 . S
C952 C950 1.415 . S
C952 C957 1.425 . S
C952 C959 1.409 . S
C953 H945 0.930 . S
C953 C951 1.419 . S
C953 C954 1.362 . S
C954 H946 0.930 . S
C954 C953 1.362 . S
C954 C957 1.409 . S
C955 H947 0.930 . S
C955 C956 1.355 . S
C955 C957 1.415 . S
C956 C955 1.355 . S
C956 C958 1.419 . S
C957 C952 1.425 . S
C957 C954 1.409 . S
C957 C955 1.415 . S
C958 H948 0.930 . S
C958 C956 1.419 . S
C958 C959 1.362 . S
C959 H949 0.930 . S
C959 C952 1.409 . S
C959 C958 1.362 . S
C711 C108 1.394 . S
C716 C57 1.375 . S
C727 C145 1.382 . S
C732 C205 1.359 . S
C743 C293 1.395 . S
C748 C225 1.378 . S
C759 C313 1.388 . S
C764 C20 1.363 . S
C775 C409 1.371 . S
C780 C460 1.393 . S
C791 C497 1.376 . S
C796 C557 1.357 . S
C807 C577 1.374 . S
C812 C645 1.357 . S
C823 C372 1.364 . S
C828 C665 1.389 . S
C839 C49 1.552 . S
C844 C636 1.546 . S
C855 C381 1.550 . S
C860 C137 1.552 . S
C871 C469 1.514 . S
C876 C233 1.518 . S
C887 C321 1.517 . S
C892 C548 1.515 . S
C903 C196 1.547 . S
C908 C673 1.537 . S
C919 C401 1.549 1_554 S
C924 C284 1.549 1_556 S
C935 C489 1.543 . S
C940 C29 1.531 . S
C951 C117 1.518 . S
C956 C585 1.527 . S
