# Generated by pormake.
# Topology lhb, (8)-cn, num edge types: 1
# Building blocks:
#     Node 0, Type 0, BuildingBlock: AJUNOK_clean_sbu_0, # of connection points: 8
#     Node 1, Type 0, BuildingBlock: AJUNOK_clean_sbu_0, # of connection points: 8
#     Node 2, Type 0, BuildingBlock: AJUNOK_clean_sbu_0, # of connection points: 8
#     Node 3, Type 0, BuildingBlock: AJUNOK_clean_sbu_0, # of connection points: 8
#     Node 4, Type 0, BuildingBlock: AJUNOK_clean_sbu_0, # of connection points: 8
#     Node 5, Type 0, BuildingBlock: AJUNOK_clean_sbu_0, # of connection points: 8
#     Node 6, Type 0, BuildingBlock: AJUNOK_clean_sbu_0, # of connection points: 8
#     Node 7, Type 0, BuildingBlock: AJUNOK_clean_sbu_0, # of connection points: 8
#     Edge 8, Type (0, 0), BuildingBlock: CIFDUS_clean_linker_0, # of connection points: 2
#     Edge 9, Type (0, 0), BuildingBlock: CIFDUS_clean_linker_0, # of connection points: 2
#     Edge 10, Type (0, 0), BuildingBlock: CIFDUS_clean_linker_0, # of connection points: 2
#     Edge 11, Type (0, 0), BuildingBlock: CIFDUS_clean_linker_0, # of connection points: 2
#     Edge 12, Type (0, 0), BuildingBlock: CIFDUS_clean_linker_0, # of connection points: 2
#     Edge 13, Type (0, 0), BuildingBlock: CIFDUS_clean_linker_0, # of connection points: 2
#     Edge 14, Type (0, 0), BuildingBlock: CIFDUS_clean_linker_0, # of connection points: 2
#     Edge 15, Type (0, 0), BuildingBlock: CIFDUS_clean_linker_0, # of connection points: 2
#     Edge 16, Type (0, 0), BuildingBlock: CIFDUS_clean_linker_0, # of connection points: 2
#     Edge 17, Type (0, 0), BuildingBlock: CIFDUS_clean_linker_0, # of connection points: 2
#     Edge 18, Type (0, 0), BuildingBlock: CIFDUS_clean_linker_0, # of connection points: 2
#     Edge 19, Type (0, 0), BuildingBlock: CIFDUS_clean_linker_0, # of connection points: 2
#     Edge 20, Type (0, 0), BuildingBlock: CIFDUS_clean_linker_0, # of connection points: 2
#     Edge 21, Type (0, 0), BuildingBlock: CIFDUS_clean_linker_0, # of connection points: 2
#     Edge 22, Type (0, 0), BuildingBlock: CIFDUS_clean_linker_0, # of connection points: 2
#     Edge 23, Type (0, 0), BuildingBlock: CIFDUS_clean_linker_0, # of connection points: 2
#     Edge 24, Type (0, 0), BuildingBlock: CIFDUS_clean_linker_0, # of connection points: 2
#     Edge 25, Type (0, 0), BuildingBlock: CIFDUS_clean_linker_0, # of connection points: 2
#     Edge 26, Type (0, 0), BuildingBlock: CIFDUS_clean_linker_0, # of connection points: 2
#     Edge 27, Type (0, 0), BuildingBlock: CIFDUS_clean_linker_0, # of connection points: 2
#     Edge 28, Type (0, 0), BuildingBlock: CIFDUS_clean_linker_0, # of connection points: 2
#     Edge 29, Type (0, 0), BuildingBlock: CIFDUS_clean_linker_0, # of connection points: 2
#     Edge 30, Type (0, 0), BuildingBlock: CIFDUS_clean_linker_0, # of connection points: 2
#     Edge 31, Type (0, 0), BuildingBlock: CIFDUS_clean_linker_0, # of connection points: 2
#     Edge 32, Type (0, 0), BuildingBlock: CIFDUS_clean_linker_0, # of connection points: 2
#     Edge 33, Type (0, 0), BuildingBlock: CIFDUS_clean_linker_0, # of connection points: 2
#     Edge 34, Type (0, 0), BuildingBlock: CIFDUS_clean_linker_0, # of connection points: 2
#     Edge 35, Type (0, 0), BuildingBlock: CIFDUS_clean_linker_0, # of connection points: 2
#     Edge 36, Type (0, 0), BuildingBlock: CIFDUS_clean_linker_0, # of connection points: 2
#     Edge 37, Type (0, 0), BuildingBlock: CIFDUS_clean_linker_0, # of connection points: 2
#     Edge 38, Type (0, 0), BuildingBlock: CIFDUS_clean_linker_0, # of connection points: 2
#     Edge 39, Type (0, 0), BuildingBlock: CIFDUS_clean_linker_0, # of connection points: 2
# Relax obj value: 0.067
# Max RMSD: 0.157
# Mean RMSD: 0.157
data_MOF--net-lhb--node1-AJUNOK_clean_sbu_0--edge1-CIFDUS_clean_linker_0
_symmetry_space_group_name_H-M    P1
_symmetry_Int_Tables_number       1
_symmetry_cell_setting            triclinic
loop_
_symmetry_equiv_pos_as_xyz
'x, y, z'
_cell_length_a     30.554107
_cell_length_b     11.650427
_cell_length_c     68.748402
_cell_angle_alpha  89.863528
_cell_angle_beta   89.859293
_cell_angle_gamma 89.72516
loop_
_atom_site_label
_atom_site_type_symbol
_atom_site_fract_x
_atom_site_fract_y
_atom_site_fract_z
_atom_type_partial_charge
Cd0 Cd 0.06543 0.85344 0.02189 0.0
Cd1 Cd 0.92633 0.72055 0.01875 0.0
C2 C 0.06803 0.7558 0.97851 0.0
N3 N 0.0519 0.84681 0.98859 0.0
C4 C 0.0353 0.94616 0.95901 0.0
C5 C 0.05337 0.85519 0.94818 0.0
C6 C 0.06885 0.75789 0.95822 0.0
C7 C 0.03508 0.94035 0.97934 0.0
H8 H 0.08234 0.684 0.98623 0.0
H9 H 0.02334 0.01261 0.98775 0.0
C10 C 0.95498 0.96433 0.02269 0.0
C11 C 0.87008 0.81412 0.05537 0.0
C12 C 0.85519 0.82431 0.0745 0.0
C13 C 0.88022 0.77855 0.0898 0.0
C14 C 0.92075 0.72697 0.08537 0.0
C15 C 0.93419 0.71747 0.06594 0.0
N16 N 0.90847 0.7592 0.05141 0.0
H17 H 0.85028 0.84689 0.04357 0.0
H18 H 0.96444 0.67352 0.0624 0.0
C19 C 0.88558 0.86429 0.98205 0.0
N20 N 0.91971 0.79442 0.98689 0.0
C21 C 0.9404 0.77848 0.95337 0.0
C22 C 0.9052 0.84988 0.94784 0.0
C23 C 0.87818 0.89467 0.96264 0.0
C24 C 0.94708 0.75202 0.97302 0.0
H25 H 0.86314 0.89367 0.99318 0.0
H26 H 0.97301 0.69341 0.97715 0.0
C27 C 0.0356 0.60719 0.02423 0.0
C28 C 0.14119 -0.02083 1.01401 0.0
N29 N 0.06848 0.88317 0.05555 0.0
C30 C 0.10869 0.86482 0.0634 0.0
C31 C 0.11637 0.88771 0.08299 0.0
C32 C 0.08237 0.93045 0.09475 0.0
C33 C 0.04072 0.94571 0.08637 0.0
C34 C 0.03446 0.92146 0.06662 0.0
C35 C 0.8518 0.58556 1.01217 0.0
O36 O 0.98645 0.89309 0.0222 0.0
O37 O 0.91661 0.925 0.02159 0.0
O38 O 0.00445 0.67766 0.02181 0.0
O39 O 0.07399 0.64721 0.02525 0.0
O40 O 0.10439 0.02831 0.01658 0.0
O41 O 0.14254 0.87039 1.01528 0.0
O42 O 0.87949 0.59996 0.99868 0.0
O43 O 0.86541 0.60419 0.02923 0.0
H44 H 0.13509 0.83368 0.05431 0.0
H45 H 0.00273 0.93544 0.0601 0.0
H46 H 0.02258 0.02222 0.95188 0.0
H47 H 0.08374 0.6866 0.95055 0.0
H48 H 0.8241 0.86631 0.07728 0.0
H49 H 0.94099 0.69013 0.09672 0.0
H50 H 0.96165 0.73941 0.94262 0.0
H51 H 0.85096 0.95109 0.9593 0.0
H52 H 0.14872 0.87202 0.08885 0.0
H53 H 0.01354 -0.02109 0.09482 0.0
Cd54 Cd 0.314 0.08724 0.26637 0.0
Cd55 Cd 0.17423 0.22595 0.27262 0.0
C56 C 0.36193 0.25041 0.23332 0.0
N57 N 0.32573 0.18547 0.23679 0.0
C58 C 0.30609 0.19386 0.20316 0.0
C59 C 0.34357 0.25879 0.19908 0.0
C60 C 0.37113 0.28979 0.21448 0.0
C61 C 0.29767 0.1584 0.22221 0.0
H62 H 0.38476 0.26714 0.24496 0.0
H63 H 0.27002 0.10353 0.22524 0.0
C64 C 0.2069 -0.01575 0.27866 0.0
C65 C 0.14982 0.38229 0.30923 0.0
C66 C 0.14226 0.41915 0.32819 0.0
C67 C 0.15435 0.349 0.3439 0.0
C68 C 0.17454 0.24271 0.33996 0.0
C69 C 0.18201 0.20956 0.3206 0.0
N70 N 0.16942 0.27937 0.30569 0.0
H71 H 0.13915 0.43552 0.29732 0.0
H72 H 0.19714 0.12748 0.31748 0.0
C73 C 0.15758 0.06437 0.23511 0.0
N74 N 0.17662 0.16546 0.24006 0.0
C75 C 0.18595 0.21427 0.20646 0.0
C76 C 0.16555 0.11137 0.20092 0.0
C77 C 0.15214 0.03507 0.2156 0.0
C78 C 0.19098 0.23994 0.22621 0.0
H79 H 0.14491 0.00803 0.24624 0.0
H80 H 0.205 0.32107 0.23052 0.0
C81 C 0.28497 0.33619 0.27298 0.0
C82 C 0.36511 0.91132 0.24962 0.0
N83 N 0.34464 0.08436 0.29742 0.0
C84 C 0.38432 0.13368 0.30034 0.0
C85 C 0.40354 0.13137 0.31877 0.0
C86 C 0.38174 0.07751 0.33431 0.0
C87 C 0.34073 0.02741 0.3308 0.0
C88 C 0.32266 0.03207 0.31216 0.0
C89 C 0.09991 0.35429 0.26336 0.0
O90 O 0.23684 0.05385 0.27391 0.0
O91 O 0.16878 0.0249 0.28121 0.0
O92 O 0.25279 0.26828 0.27194 0.0
O93 O 0.32295 0.29301 0.27161 0.0
O94 O 0.32872 0.93814 0.242 0.0
O95 O 0.37395 0.95594 0.26594 0.0
O96 O 0.1377 0.39749 0.26084 0.0
O97 O 0.0978 0.25229 0.26987 0.0
H98 H 0.40112 0.17426 0.2883 0.0
H99 H 0.29104 -0.00592 0.30943 0.0
H100 H 0.28426 0.16776 0.19163 0.0
H101 H 0.40075 0.33811 0.2118 0.0
H102 H 0.12597 0.50079 0.33051 0.0
H103 H 0.1845 0.18622 0.35169 0.0
H104 H 0.1964 0.27634 0.19568 0.0
H105 H 0.13671 0.95429 0.21206 0.0
H106 H 0.43536 0.17011 0.32077 0.0
H107 H 0.32248 -0.01345 0.34241 0.0
Cd108 Cd 0.66322 0.92065 0.25759 0.0
Cd109 Cd 0.79388 0.78374 0.27672 0.0
C110 C 0.63575 0.75938 0.22165 0.0
N111 N 0.66937 0.82708 0.22755 0.0
C112 C 0.69721 0.83657 0.195 0.0
C113 C 0.66154 0.77195 0.18853 0.0
C114 C 0.63141 0.73002 0.20214 0.0
C115 C 0.70042 0.86383 0.21477 0.0
H116 H 0.61019 0.73551 0.23172 0.0
H117 H 0.72563 0.92182 0.21966 0.0
C118 C 0.7658 0.03171 0.27396 0.0
C119 C 0.82061 0.7984 0.32159 0.0
C120 C 0.82101 0.7806 0.34171 0.0
C121 C 0.7848 0.72999 0.35098 0.0
C122 C 0.74825 0.70196 0.33951 0.0
C123 C 0.74924 0.72148 0.31937 0.0
N124 N 0.78538 0.76743 0.3108 0.0
H125 H 0.84909 0.83385 0.31444 0.0
H126 H 0.72153 0.69735 0.31056 0.0
C127 C 0.82448 0.89747 0.23605 0.0
N128 N 0.80079 0.80745 0.2429 0.0
C129 C 0.79893 0.72386 0.2111 0.0
C130 C 0.8245 0.81428 0.20376 0.0
C131 C 0.8364 0.90305 0.21646 0.0
C132 C 0.7876 0.7218 0.23086 0.0
H133 H 0.83595 0.96259 0.24593 0.0
H134 H 0.76982 0.64954 0.23678 0.0
C135 C 0.68474 0.67641 0.26841 0.0
C136 C 0.5962 0.06142 0.24182 0.0
N137 N 0.63644 0.89793 0.28913 0.0
C138 C 0.59399 0.8694 0.29263 0.0
C139 C 0.57883 0.85789 0.31173 0.0
C140 C 0.60789 0.87436 0.32725 0.0
C141 C 0.65159 0.90232 0.32315 0.0
C142 C 0.66516 0.91422 0.30391 0.0
C143 C 0.8671 0.64113 0.27395 0.0
O144 O 0.73799 0.96103 0.26759 0.0
O145 O 0.80189 -0.00894 0.27995 0.0
O146 O 0.71654 0.74499 0.27032 0.0
O147 O 0.64831 0.7187 0.26331 0.0
O148 O 0.6006 0.04788 0.25999 0.0
O149 O 0.62905 0.03428 0.23162 0.0
O150 O 0.87053 0.74867 0.27649 0.0
O151 O 0.82887 0.59866 0.27366 0.0
H152 H 0.57189 0.85602 0.2806 0.0
H153 H 0.69868 0.93674 0.30078 0.0
H154 H 0.7202 0.8732 0.18474 0.0
H155 H 0.60297 0.68219 0.1975 0.0
H156 H 0.85025 0.80198 0.34978 0.0
H157 H 0.71943 0.6638 0.34598 0.0
H158 H 0.78938 0.65307 0.20188 0.0
H159 H 0.85581 0.97479 0.21141 0.0
H160 H 0.54492 0.83581 0.31434 0.0
H161 H 0.67488 0.91728 0.33472 0.0
Cd162 Cd 0.06822 0.56985 0.5267 0.0
Cd163 Cd 0.92165 0.41465 0.52127 0.0
C164 C 0.03804 0.47574 0.4837 0.0
N165 N 0.06889 0.54083 0.49262 0.0
C166 C 0.11114 0.54798 0.46326 0.0
C167 C 0.08068 0.4778 0.45379 0.0
C168 C 0.04325 0.44315 0.4642 0.0
C169 C 0.10465 0.57823 0.48267 0.0
H170 H 0.01016 0.44588 0.49187 0.0
H171 H 0.12941 0.62767 0.48991 0.0
C172 C 0.95712 0.67265 0.52598 0.0
C173 C 0.84213 0.36515 0.55269 0.0
C174 C 0.82276 0.33276 0.57041 0.0
C175 C 0.84941 0.29983 0.58612 0.0
C176 C 0.89503 0.3027 0.58371 0.0
C177 C 0.91292 0.33774 0.56595 0.0
N178 N 0.8865 0.36671 0.5508 0.0
H179 H 0.82179 0.38853 0.54043 0.0
H180 H 0.94809 0.34103 0.5642 0.0
C181 C 0.84329 0.49705 0.49107 0.0
N182 N 0.88638 0.51197 0.49537 0.0
C183 C 0.89642 0.62422 0.46649 0.0
C184 C 0.85225 0.60972 0.46148 0.0
C185 C 0.82546 0.54534 0.47408 0.0
C186 C 0.91289 0.57357 0.48338 0.0
H187 H 0.82309 0.44492 0.5005 0.0
H188 H 0.94728 0.58129 0.48672 0.0
C189 C 0.03139 0.3251 0.53127 0.0
C190 C 0.15026 0.67549 0.52724 0.0
N191 N 0.05452 0.63417 0.55843 0.0
C192 C 0.04413 0.55788 0.57268 0.0
C193 C 0.04463 0.59176 0.5922 0.0
C194 C 0.05598 0.70513 0.59702 0.0
C195 C 0.06398 0.78333 0.58189 0.0
C196 C 0.06342 0.74567 0.56265 0.0
C197 C 0.9161 0.22463 0.49627 0.0
O198 O 0.98977 0.60598 0.52514 0.0
O199 O 0.91947 0.62729 0.52569 0.0
O200 O 0.00039 0.39658 0.52876 0.0
O201 O 0.06983 0.3646 0.53295 0.0
O202 O 0.11628 0.73134 0.52202 0.0
O203 O 0.14545 0.57092 0.53213 0.0
O204 O 0.94682 0.29635 0.49395 0.0
O205 O 0.89013 0.23989 0.51056 0.0
H206 H 0.03765 0.4694 0.56899 0.0
H207 H 0.07257 0.80441 0.55121 0.0
H208 H 0.14089 0.57525 0.45605 0.0
H209 H 0.01862 0.3899 0.45747 0.0
H210 H 0.78743 0.3316 0.57172 0.0
H211 H 0.91668 0.27953 0.59555 0.0
H212 H 0.91858 0.67079 0.45705 0.0
H213 H 0.79127 0.53156 0.47074 0.0
H214 H 0.03792 0.52887 0.60343 0.0
H215 H 0.07351 0.87092 0.5849 0.0
Cd216 Cd 0.15223 0.89491 0.76734 0.0
Cd217 Cd 0.31415 0.81403 0.7625 0.0
C218 C 0.09208 0.01219 0.73405 0.0
N219 N 0.13445 -0.0121 0.73856 0.0
C220 C 0.15357 0.97463 0.70499 0.0
C221 C 0.10935 -0.01195 0.69992 0.0
C222 C 0.07877 0.01382 0.71458 0.0
C223 C 0.16548 0.97475 0.72455 0.0
H224 H 0.06782 0.01794 0.74549 0.0
H225 H 0.19851 0.95113 0.72862 0.0
C226 C 0.25559 0.02532 0.76726 0.0
C227 C 0.35255 0.86298 0.80492 0.0
C228 C 0.3582 0.8516 0.82497 0.0
C229 C 0.32714 0.79106 0.83602 0.0
C230 C 0.2902 0.74645 0.82657 0.0
C231 C 0.28603 0.75922 0.80645 0.0
N232 N 0.31719 0.8158 0.79613 0.0
H233 H 0.377 0.90644 0.79624 0.0
H234 H 0.25876 0.72068 0.79893 0.0
C235 C 0.35934 0.96813 0.72901 0.0
N236 N 0.327 0.88991 0.7318 0.0
C237 C 0.31961 0.86292 0.69759 0.0
C238 C 0.35478 0.93766 0.69429 0.0
C239 C 0.37365 -0.00581 0.71019 0.0
C240 C 0.30611 0.84026 0.71659 0.0
H241 H 0.37572 0.00503 0.74143 0.0
H242 H 0.28063 0.77815 0.71927 0.0
C243 C 0.21188 0.67705 0.75118 0.0
C244 C 0.08051 0.75772 0.77624 0.0
N245 N 0.14894 0.95595 0.79961 0.0
C246 C 0.16653 0.88048 0.81254 0.0
C247 C 0.15661 0.88902 0.83229 0.0
C248 C 0.12828 0.97613 0.83878 0.0
C249 C 0.11249 0.05689 0.82528 0.0
C250 C 0.12283 0.04421 0.80554 0.0
C251 C 0.38616 0.66934 0.75776 0.0
O252 O 0.23126 0.93853 0.77 0.0
O253 O 0.29681 0.01099 0.76701 0.0
O254 O 0.24189 0.7451 0.75591 0.0
O255 O 0.17267 0.70953 0.75339 0.0
O256 O 0.07707 0.86654 0.77489 0.0
O257 O 0.11782 0.71176 0.77349 0.0
O258 O 0.34753 0.62915 0.75819 0.0
O259 O 0.39079 0.77669 0.76027 0.0
H260 H 0.18584 0.80894 0.80729 0.0
H261 H 0.10784 0.10021 0.79487 0.0
H262 H 0.17799 0.95442 0.69405 0.0
H263 H 0.04433 0.02327 0.71119 0.0
H264 H 0.38686 0.88846 0.83172 0.0
H265 H 0.26571 0.69823 0.83449 0.0
H266 H 0.30402 0.81862 0.68565 0.0
H267 H 0.40104 0.05175 0.70819 0.0
H268 H 0.16954 0.82546 0.8423 0.0
H269 H 0.09019 0.12444 0.82975 0.0
Cd270 Cd 0.647 0.07922 0.76729 0.0
Cd271 Cd 0.78626 0.94124 0.76502 0.0
C272 C 0.66379 -0.00239 0.72274 0.0
N273 N 0.67013 0.08873 0.73472 0.0
C274 C 0.68849 0.20829 0.70759 0.0
C275 C 0.67982 0.11771 0.69475 0.0
C276 C 0.66875 0.01008 0.70258 0.0
C277 C 0.68329 0.19197 0.72759 0.0
H278 H 0.65261 0.91694 0.72872 0.0
H279 H 0.68755 0.2636 0.73731 0.0
C280 C 0.75729 0.18457 0.77297 0.0
C281 C 0.83259 -0.00682 0.80616 0.0
C282 C 0.84194 -0.00961 0.82607 0.0
C283 C 0.81309 0.93558 0.83906 0.0
C284 C 0.77448 0.88803 0.83138 0.0
C285 C 0.7661 0.89447 0.81139 0.0
N286 N 0.79535 0.94493 0.79918 0.0
H287 H 0.85546 0.03282 0.7962 0.0
H288 H 0.73662 0.85686 0.80564 0.0
C289 C 0.79823 0.11508 0.72659 0.0
N290 N 0.78665 0.00686 0.73212 0.0
C291 C 0.78257 0.94935 0.69869 0.0
C292 C 0.79552 0.05935 0.69263 0.0
C293 C 0.80237 0.14346 0.70686 0.0
C294 C 0.77811 0.92513 0.71856 0.0
H295 H 0.80583 0.17923 0.73731 0.0
H296 H 0.76906 0.83971 0.72321 0.0
C297 C 0.67645 0.83083 0.77082 0.0
C298 C 0.57088 0.19708 0.75629 0.0
N299 N 0.6379 0.13334 0.8002 0.0
C300 C 0.59671 0.11817 0.80722 0.0
C301 C 0.58489 0.15997 0.82554 0.0
C302 C 0.61544 0.22077 0.83678 0.0
C303 C 0.65835 0.2311 0.82941 0.0
C304 C 0.66903 0.18523 0.81118 0.0
C305 C 0.85024 0.76879 0.76065 0.0
O306 O 0.7262 0.11434 0.7704 0.0
O307 O 0.79592 0.14477 0.77219 0.0
O308 O 0.70804 0.89928 0.76813 0.0
O309 O 0.63821 0.87322 0.77104 0.0
O310 O 0.6069 0.24729 0.75947 0.0
O311 O 0.57008 0.08844 0.7581 0.0
O312 O 0.81097 0.74487 0.75645 0.0
O313 O 0.85886 0.8709 0.76563 0.0
H314 H 0.57257 0.07556 0.79835 0.0
H315 H 0.70185 0.19452 0.80567 0.0
H316 H 0.6977 0.29219 0.70219 0.0
H317 H 0.66151 0.93815 0.6932 0.0
H318 H 0.8716 0.03077 0.83114 0.0
H319 H 0.75134 0.84336 0.84058 0.0
H320 H 0.77659 0.88215 0.68819 0.0
H321 H 0.81286 0.22897 0.70284 0.0
H322 H 0.55185 0.14556 0.83065 0.0
H323 H 0.6833 0.27742 0.83725 0.0
Cd324 Cd 0.62621 0.03888 0.50805 0.0
Cd325 Cd 0.47954 0.97452 0.51809 0.0
C326 C 0.6029 0.84706 0.47599 0.0
N327 N 0.59702 0.96025 0.48005 0.0
C328 C 0.5788 0.00028 0.44699 0.0
C329 C 0.58736 0.88523 0.44208 0.0
C330 C 0.59774 0.80725 0.45701 0.0
C331 C 0.584 0.03617 0.46618 0.0
H332 H 0.61467 0.7891 0.48712 0.0
H333 H 0.58094 0.12625 0.46974 0.0
C334 C 0.52756 0.19383 0.51431 0.0
C335 C 0.44085 0.10129 0.55562 0.0
C336 C 0.43112 0.12083 0.57518 0.0
C337 C 0.45617 0.06617 0.58957 0.0
C338 C 0.49258 3e-05 0.58396 0.0
C339 C 0.50148 -0.01591 0.56422 0.0
N340 N 0.47471 0.03117 0.55056 0.0
H341 H 0.41997 0.13725 0.54445 0.0
H342 H 0.52845 0.92966 0.55986 0.0
C343 C 0.45925 0.07766 0.47549 0.0
N344 N 0.47694 -0.01695 0.48408 0.0
C345 C 0.47856 0.8848 0.45356 0.0
C346 C 0.45963 -0.01916 0.44433 0.0
C347 C 0.45064 0.07872 0.45557 0.0
C348 C 0.48688 0.88771 0.47357 0.0
H349 H 0.44981 0.15074 0.48419 0.0
H350 H 0.50001 0.81268 0.48084 0.0
C351 C 0.58398 0.83275 0.5268 0.0
C352 C 0.70225 0.08187 0.48634 0.0
N353 N 0.64494 0.09503 0.53964 0.0
C354 C 0.68777 0.08579 0.54476 0.0
C355 C 0.70016 0.09475 0.56427 0.0
C356 C 0.66811 0.11374 0.5786 0.0
C357 C 0.62437 0.12852 0.57275 0.0
C358 C 0.61338 0.11771 0.5531 0.0
C359 C 0.39963 0.85839 0.52083 0.0
O360 O 0.55084 0.10786 0.50995 0.0
O361 O 0.48684 0.17881 0.51642 0.0
O362 O 0.55544 0.90656 0.52203 0.0
O363 O 0.62381 0.85547 0.52347 0.0
O364 O 0.67481 0.163 0.48927 0.0
O365 O 0.69463 -0.0142 0.49439 0.0
O366 O 0.43524 0.80181 0.52239 0.0
O367 O 0.4024 0.9655 0.51777 0.0
H368 H 0.71207 0.06563 0.53381 0.0
H369 H 0.57945 0.12155 0.54874 0.0
H370 H 0.57128 0.06373 0.43594 0.0
H371 H 0.60427 0.71774 0.45387 0.0
H372 H 0.40258 0.17158 0.57899 0.0
H373 H 0.51274 0.95715 0.59472 0.0
H374 H 0.48647 0.80781 0.44547 0.0
H375 H 0.43504 0.15368 0.44927 0.0
H376 H 0.73423 0.08332 0.56819 0.0
H377 H 0.59857 0.14153 0.58336 0.0
Cd378 Cd 0.54751 0.6963 1.00844 0.0
Cd379 Cd 0.40603 0.56393 0.01777 0.0
C380 C 0.59262 0.52403 0.97765 0.0
N381 N 0.55934 0.60192 0.97849 0.0
C382 C 0.54787 0.58365 0.94417 0.0
C383 C 0.5816 0.50098 0.94292 0.0
C384 C 0.60356 0.47063 0.96016 0.0
C385 C 0.53706 0.63266 0.96218 0.0
H386 H 0.61146 0.50452 0.99054 0.0
H387 H 0.51182 0.69793 0.96304 0.0
C388 C 0.43867 0.80894 0.01941 0.0
C389 C 0.42378 0.60266 0.06453 0.0
C390 C 0.42065 0.5814 0.08458 0.0
C391 C 0.39679 0.48613 0.09142 0.0
C392 C 0.37726 0.41401 0.07757 0.0
C393 C 0.38193 0.43723 0.05777 0.0
N394 N 0.40472 0.53041 0.05159 0.0
H395 H 0.44088 0.67767 0.05932 0.0
H396 H 0.3666 0.38144 0.04732 0.0
C397 C 0.38493 0.70111 0.97864 0.0
N398 N 0.41003 0.61162 0.98481 0.0
C399 C 0.4286 0.56405 0.95197 0.0
C400 C 0.40228 0.65508 0.94517 0.0
C401 C 0.38103 0.72529 0.95886 0.0
C402 C 0.43196 0.54361 0.972 0.0
H403 H 0.36666 0.75177 0.98903 0.0
H404 H 0.45087 0.47129 0.97729 0.0
C405 C 0.51643 0.45363 0.01831 0.0
C406 C 0.61702 0.84729 1.00125 0.0
N407 N 0.57782 0.66021 0.03892 0.0
C408 C 0.54975 0.66487 0.0542 0.0
C409 C 0.56555 0.6607 0.07318 0.0
C410 C 0.61093 0.65463 0.07652 0.0
C411 C 0.6391 0.64458 0.06038 0.0
C412 C 0.62168 0.64686 0.04158 0.0
C413 C 0.33184 0.43271 1.01026 0.0
O414 O 0.46908 0.73941 1.01474 0.0
O415 O 0.40097 0.76805 0.02271 0.0
O416 O 0.48432 0.52238 0.01725 0.0
O417 O 0.55436 0.49473 1.01629 0.0
O418 O 0.59555 0.8535 0.01703 0.0
O419 O 0.59841 0.79522 0.98743 0.0
O420 O 0.36989 0.38842 1.00879 0.0
O421 O 0.32908 0.53734 1.01531 0.0
H422 H 0.51518 0.67562 0.05156 0.0
H423 H 0.64326 0.64319 0.0291 0.0
H424 H 0.53083 0.61303 0.93133 0.0
H425 H 0.62934 0.40665 0.96026 0.0
H426 H 0.43672 0.63926 0.09453 0.0
H427 H 0.3575 0.34139 0.08189 0.0
H428 H 0.4452 0.50691 0.94195 0.0
H429 H 0.36088 0.79725 0.95435 0.0
H430 H 0.5424 0.66539 0.08511 0.0
H431 H 0.67426 0.64031 0.06219 0.0
H432 H 0.15457 0.03343 0.10998 0.0
H433 H 0.02896 0.89434 0.1263 0.0
H434 H 0.04336 0.9398 0.16034 0.0
H435 H 0.0919 0.01685 0.18552 0.0
H436 H 0.21856 0.14964 0.16933 0.0
H437 H 0.20344 0.10837 0.13519 0.0
C438 C 0.13048 0.0118 0.12098 0.0
C439 C 0.09078 0.9599 0.11551 0.0
C440 C 0.13916 0.03703 0.14057 0.0
C441 C 0.05959 0.93523 0.12999 0.0
C442 C 0.06793 0.96054 0.14951 0.0
C443 C 0.11649 0.03552 0.17458 0.0
C444 C 0.15649 0.08569 0.18008 0.0
C445 C 0.10768 0.01091 0.15497 0.0
C446 C 0.18741 0.11183 0.16557 0.0
C447 C 0.17886 0.08776 0.14603 0.0
H448 H 0.92434 0.8325 0.12297 0.0
H449 H 0.79749 0.72825 0.10222 0.0
H450 H 0.769 0.72945 0.13545 0.0
H451 H 0.78019 0.75853 0.17055 0.0
H452 H 0.90689 0.86519 0.19117 0.0
H453 H 0.93527 0.86372 0.15798 0.0
C454 C 0.89053 0.80944 0.12575 0.0
C455 C 0.86314 0.7805 0.11011 0.0
C456 C 0.87425 0.81066 0.14491 0.0
C457 C 0.8192 0.7522 0.11394 0.0
C458 C 0.80291 0.75217 0.13297 0.0
C459 C 0.81398 0.78145 0.16778 0.0
C460 C 0.84116 0.813 0.18337 0.0
C461 C 0.83012 0.78115 0.14858 0.0
C462 C 0.88494 0.84252 0.17946 0.0
C463 C 0.90134 0.84107 0.16047 0.0
H464 H 0.116 0.59857 0.42362 0.0
H465 H 0.06607 0.26381 0.43855 0.0
H466 H 0.08548 0.19312 0.4062 0.0
H467 H 0.11783 0.22577 0.37364 0.0
H468 H 0.16901 0.56011 0.35937 0.0
H469 H 0.14884 0.6305 0.39158 0.0
C470 C 0.10957 0.50986 0.41988 0.0
C471 C 0.08961 0.43683 0.4336 0.0
C472 C 0.12147 0.46922 0.40138 0.0
C473 C 0.0808 0.32269 0.42826 0.0
C474 C 0.09233 0.28174 0.4098 0.0
C475 C 0.12502 0.31355 0.3777 0.0
C476 C 0.14492 0.38751 0.36411 0.0
C477 C 0.11299 0.35399 0.39627 0.0
C478 C 0.15344 0.50162 0.3695 0.0
C479 C 0.14192 0.54201 0.38792 0.0
H480 H 0.81988 0.85523 0.38073 0.0
H481 H 0.7545 0.53539 0.36897 0.0
H482 H 0.76536 0.47503 0.40264 0.0
H483 H 0.80031 0.50413 0.43458 0.0
H484 H 0.86731 0.82197 0.44596 0.0
H485 H 0.8493 0.8911 0.41339 0.0
C486 C 0.80789 0.77235 0.38551 0.0
C487 C 0.78678 0.69973 0.37214 0.0
C488 C 0.81496 0.73706 0.40487 0.0
C489 C 0.77061 0.59374 0.37884 0.0
C490 C 0.77713 0.55856 0.39812 0.0
C491 C 0.81022 0.58939 0.43008 0.0
C492 C 0.83561 0.65709 0.44268 0.0
C493 C 0.80017 0.62831 0.41115 0.0
C494 C 0.84838 0.76721 0.43649 0.0
C495 C 0.83804 0.80694 0.41784 0.0
H496 H 0.03314 0.90462 0.61559 0.0
H497 H 0.10005 0.58135 0.62429 0.0
H498 H 0.12232 0.64143 0.65668 0.0
H499 H 0.12572 0.78798 0.682 0.0
H500 H 0.05816 0.11027 0.67435 0.0
H501 H 0.03352 0.04923 0.64198 0.0
C502 C 0.05241 0.84727 0.62464 0.0
C503 C 0.06481 0.73846 0.6175 0.0
C504 C 0.06546 0.88278 0.6433 0.0
C505 C 0.08943 0.66467 0.62948 0.0
C506 C 0.10261 0.69943 0.64795 0.0
C507 C 0.1059 0.84521 0.67314 0.0
C508 C 0.09448 0.9543 0.68027 0.0
C509 C 0.09136 0.8087 0.65487 0.0
C510 C 0.0677 0.02643 0.66899 0.0
C511 C 0.05361 -0.00861 0.65055 0.0
H512 H 0.77009 0.24483 0.67074 0.0
H513 H 0.84334 0.92797 0.66769 0.0
H514 H 0.86464 0.97129 0.63423 0.0
H515 H 0.86633 0.10475 0.60644 0.0
H516 H 0.7897 0.41589 0.6084 0.0
H517 H 0.76504 0.36839 0.64143 0.0
C518 C 0.79056 0.18519 0.66269 0.0
C519 C 0.80531 0.08356 0.67177 0.0
C520 C 0.80199 0.20955 0.64324 0.0
C521 C 0.83127 0.00631 0.66104 0.0
C522 C 0.84363 0.03124 0.64191 0.0
C523 C 0.84401 0.16169 0.61409 0.0
C524 C 0.83036 0.26447 0.60515 0.0
C525 C 0.82974 0.13332 0.63296 0.0
C526 C 0.80076 0.33647 0.61502 0.0
C527 C 0.7869 0.30967 0.63394 0.0
H528 H 0.09265 0.79883 0.85853 0.0
H529 H 0.12801 0.15461 0.86453 0.0
H530 H 0.10486 0.15118 0.89872 0.0
H531 H 0.07916 0.04275 0.92732 0.0
H532 H 0.04183 0.68801 0.92082 0.0
H533 H 0.06115 0.69527 0.88637 0.0
C534 C 0.09531 0.87549 0.86738 0.0
C535 C 0.11264 0.97634 0.8592 0.0
C536 C 0.08165 0.87293 0.88688 0.0
C537 C 0.11499 0.07593 0.8706 0.0
C538 C 0.10181 0.07384 0.89011 0.0
C539 C 0.07439 0.96762 0.9183 0.0
C540 C 0.05954 0.8645 0.92675 0.0
C541 C 0.08558 0.97236 0.89847 0.0
C542 C 0.05402 0.76777 0.91482 0.0
C543 C 0.06494 0.77191 0.89509 0.0
H544 H 0.89383 0.91356 0.85636 0.0
H545 H 0.75592 0.93677 0.87006 0.0
H546 H 0.77219 0.9109 0.90442 0.0
H547 H 0.82497 0.87681 0.93056 0.0
H548 H 0.9633 0.87352 0.91742 0.0
H549 H 0.9472 0.897 0.88293 0.0
C550 C 0.8672 0.91524 0.8668 0.0
C551 C 0.82352 0.92606 0.86032 0.0
C552 C 0.87681 0.90324 0.88673 0.0
C553 C 0.78976 0.92576 0.87432 0.0
C554 C 0.79905 0.91196 0.89409 0.0
C555 C 0.85183 0.88356 0.9203 0.0
C556 C 0.89542 0.87229 0.92682 0.0
C557 C 0.84241 0.89992 0.90046 0.0
C558 C 0.92941 0.87907 0.91298 0.0
C559 C 0.92023 0.89349 0.89319 0.0
H560 H 0.7129 -0.01658 0.66555 0.0
H561 H 0.64232 0.29899 0.67597 0.0
H562 H 0.63463 0.32965 0.64104 0.0
H563 H 0.64392 0.26096 0.60745 0.0
H564 H 0.71741 0.95048 0.59684 0.0
H565 H 0.72892 0.92532 0.63178 0.0
C566 C 0.69601 0.05906 0.66016 0.0
C567 C 0.67817 0.13856 0.67339 0.0
C568 C 0.69231 0.07735 0.63998 0.0
C569 C 0.65682 0.23696 0.66614 0.0
C570 C 0.65219 0.25438 0.64614 0.0
C571 C 0.66265 0.18823 0.61282 0.0
C572 C 0.67933 0.10711 0.5996 0.0
C573 C 0.66925 0.17438 0.63293 0.0
C574 C 0.70426 0.01432 0.60672 0.0
C575 C 0.71056 -0.00069 0.62671 0.0
H576 H 0.4407 0.87992 0.61152 0.0
H577 H 0.43516 0.24937 0.61279 0.0
H578 H 0.40407 0.24336 0.64576 0.0
H579 H 0.37636 0.13094 0.67386 0.0
H580 H 0.3787 0.76108 0.67108 0.0
H581 H 0.41299 0.76895 0.63905 0.0
C582 C 0.4333 0.95909 0.61917 0.0
C583 C 0.44072 0.06489 0.60998 0.0
C584 C 0.41441 0.95464 0.63774 0.0
C585 C 0.42994 0.16699 0.61974 0.0
C586 C 0.4121 0.16346 0.63851 0.0
C587 C 0.3845 0.05244 0.66618 0.0
C588 C 0.37476 0.94564 0.6747 0.0
C589 C 0.4038 0.05759 0.6476 0.0
C590 C 0.38528 0.84426 0.66466 0.0
C591 C 0.40514 0.84864 0.64641 0.0
H592 H 0.52999 0.45537 0.91109 0.0
H593 H 0.66362 0.42974 0.93127 0.0
H594 H 0.6848 0.33591 0.90119 0.0
H595 H 0.66592 0.25935 0.86922 0.0
H596 H 0.53478 0.30882 0.84715 0.0
H597 H 0.51262 0.3943 0.87785 0.0
C598 C 0.56393 0.43111 0.90891 0.0
C599 C 0.59474 0.44852 0.92386 0.0
C600 C 0.57654 0.38029 0.89117 0.0
C601 C 0.63851 0.41466 0.92052 0.0
C602 C 0.65094 0.36175 0.90314 0.0
C603 C 0.63262 0.29019 0.87086 0.0
C604 C 0.6022 0.27531 0.85568 0.0
C605 C 0.62023 0.3437 0.88838 0.0
C606 C 0.55896 0.315 0.85857 0.0
C607 C 0.5462 0.36552 0.87614 0.0
H608 H 0.32637 0.71348 0.92694 0.0
H609 H 0.46254 0.63888 0.91564 0.0
H610 H 0.45126 0.67397 0.88099 0.0
H611 H 0.4028 0.72796 0.85393 0.0
H612 H 0.26697 0.80609 0.86541 0.0
H613 H 0.27816 0.76851 0.90003 0.0
C614 C 0.35379 0.70635 0.91696 0.0
C615 C 0.39543 0.67473 0.92399 0.0
C616 C 0.34711 0.72748 0.89709 0.0
C617 C 0.43017 0.66262 0.9107 0.0
C618 C 0.42378 0.6833 0.89087 0.0
C619 C 0.37577 0.73808 0.86405 0.0
C620 C 0.33416 0.77043 0.85711 0.0
C621 C 0.38244 0.71636 0.88392 0.0
C622 C 0.29924 0.78062 0.87035 0.0
C623 C 0.30565 0.75953 0.89015 0.0
H624 H 0.58028 0.79375 0.10501 0.0
H625 H 0.68176 0.54443 0.09319 0.0
H626 H 0.70896 0.5645 0.12648 0.0
H627 H 0.70129 0.64711 0.15974 0.0
H628 H 0.59636 0.88643 0.17113 0.0
H629 H 0.57266 0.87487 0.13731 0.0
C630 C 0.60793 0.74213 0.10971 0.0
C631 C 0.62841 0.66632 0.09663 0.0
C632 C 0.62275 0.75237 0.12888 0.0
C633 C 0.6653 0.60363 0.10291 0.0
C634 C 0.68076 0.61464 0.12199 0.0
C635 C 0.6735 0.69692 0.15464 0.0
C636 C 0.6504 0.76738 0.16771 0.0
C637 C 0.65947 0.68802 0.13519 0.0
C638 C 0.61436 0.83159 0.16118 0.0
C639 C 0.60082 0.8249 0.14191 0.0
H640 H 0.36097 0.46741 0.1826 0.0
H641 H 0.35353 0.10601 0.16983 0.0
H642 H 0.37247 0.14344 0.13586 0.0
H643 H 0.38981 0.27809 0.10977 0.0
H644 H 0.39037 0.6423 0.12145 0.0
H645 H 0.37703 0.60429 0.15585 0.0
C646 C 0.36369 0.39723 0.17233 0.0
C647 C 0.35572 0.28422 0.17862 0.0
C648 C 0.3737 0.41971 0.15265 0.0
C649 C 0.35911 0.19377 0.16523 0.0
C650 C 0.37008 0.21509 0.14584 0.0
C651 C 0.38644 0.3498 0.11968 0.0
C652 C 0.39093 0.46316 0.11274 0.0
C653 C 0.37704 0.32776 0.13935 0.0
C654 C 0.38777 0.55395 0.12619 0.0
C655 C 0.37965 0.53241 0.14593 0.0
H656 H 0.53475 0.94812 0.41186 0.0
H657 H 0.65008 0.74911 0.42562 0.0
H658 H 0.66395 0.71786 0.39115 0.0
H659 H 0.64786 0.76447 0.35713 0.0
H660 H 0.53424 0.96949 0.34315 0.0
H661 H 0.51492 -0.01992 0.37761 0.0
C662 C 0.56248 0.89658 0.40731 0.0
C663 C 0.59123 0.8513 0.42134 0.0
C664 C 0.57077 0.88073 0.38741 0.0
C665 C 0.627 0.78384 0.4152 0.0
C666 C 0.63525 0.7668 0.39545 0.0
C667 C 0.61867 0.81064 0.36165 0.0
C668 C 0.59283 0.86728 0.3477 0.0
C669 C 0.60805 0.81751 0.38145 0.0
C670 C 0.5546 0.92495 0.35365 0.0
C671 C 0.54365 0.93157 0.37335 0.0
H672 H 0.46532 0.15268 0.41734 0.0
H673 H 0.42453 0.80062 0.42425 0.0
H674 H 0.39873 0.79804 0.39072 0.0
H675 H 0.38436 0.89832 0.35986 0.0
H676 H 0.42315 0.25193 0.35327 0.0
H677 H 0.45274 0.25136 0.38624 0.0
C678 C 0.45046 0.07559 0.41159 0.0
C679 C 0.44665 -0.02268 0.42345 0.0
C680 C 0.43498 0.07514 0.39236 0.0
C681 C 0.42839 0.87726 0.41549 0.0
C682 C 0.41322 0.87594 0.39632 0.0
C683 C 0.39908 0.97545 0.36568 0.0
C684 C 0.40123 0.07522 0.35413 0.0
C685 C 0.4158 0.97481 0.38471 0.0
C686 C 0.42129 0.17369 0.36177 0.0
C687 C 0.43799 0.17368 0.38068 0.0
H688 H 0.95839 0.50099 0.01958 0.0
H689 H 0.0946 0.43837 0.03277 0.0
H690 H 0.08078 0.23247 0.03464 0.0
H691 H 0.03042 0.0709 0.03117 0.0
H692 H 0.89518 0.13404 0.01674 0.0
H693 H 0.90807 0.34046 0.01686 0.0
C694 C 0.98504 0.44232 0.02289 0.0
C695 C 0.02739 0.48408 0.02594 0.0
C696 C 0.97708 0.32472 0.02362 0.0
C697 C 0.06169 0.40759 0.03027 0.0
C698 C 0.05388 0.2901 0.0313 0.0
C699 C 0.00404 0.12998 0.0279 0.0
C700 C 0.96232 0.08804 0.02366 0.0
C701 C 0.01182 0.24785 0.02774 0.0
C702 C 0.92775 0.16487 0.01997 0.0
C703 C 0.93506 0.28261 0.01998 0.0
H704 H 0.20881 0.44682 0.27884 0.0
H705 H 0.34739 0.50338 0.27269 0.0
H706 H 0.33578 0.71054 0.27518 0.0
H707 H 0.28546 0.87518 0.27737 0.0
H708 H 0.14661 0.8161 0.28318 0.0
H709 H 0.15898 0.61006 0.2825 0.0
C710 C 0.23636 0.50447 0.27816 0.0
C711 C 0.27863 0.46032 0.27551 0.0
C712 C 0.22939 0.6227 0.2795 0.0
C713 C 0.31439 0.53565 0.27471 0.0
C714 C 0.3078 0.65396 0.27609 0.0
C715 C 0.25803 0.817 0.27868 0.0
C716 C 0.21525 0.8605 0.28024 0.0
C717 C 0.26534 0.69837 0.27825 0.0
C718 C 0.17992 0.78452 0.28203 0.0
C719 C 0.18692 0.66656 0.28162 0.0
H720 H 0.69209 0.14005 0.26215 0.0
H721 H 0.81589 0.19695 0.29066 0.0
H722 H 0.79942 0.40138 0.29318 0.0
H723 H 0.75197 0.56489 0.28539 0.0
H724 H 0.62973 0.50944 0.2558 0.0
H725 H 0.64308 0.30262 0.25584 0.0
C726 C 0.71541 0.19718 0.26894 0.0
C727 C 0.75524 0.15403 0.27604 0.0
C728 C 0.70609 0.31456 0.27008 0.0
C729 C 0.78511 0.2286 0.28493 0.0
C730 C 0.77579 0.34539 0.28636 0.0
C731 C 0.72849 0.50743 0.2789 0.0
C732 C 0.69054 0.55189 0.2703 0.0
C733 C 0.73677 0.38942 0.27866 0.0
C734 C 0.65941 0.47681 0.26244 0.0
C735 C 0.66709 0.3588 0.26237 0.0
H736 H 0.03126 0.7904 0.51998 0.0
H737 H 0.89558 0.83471 0.53571 0.0
H738 H 0.9066 0.042 0.53892 0.0
H739 H 0.9553 0.20978 0.53696 0.0
H740 H 0.0918 0.16084 0.52306 0.0
H741 H 0.08023 0.95518 0.51966 0.0
C742 C 0.00426 0.84517 0.52439 0.0
C743 C 0.96296 0.79746 0.52791 0.0
C744 C 0.01104 0.96301 0.52652 0.0
C745 C 0.92785 0.86961 0.53307 0.0
C746 C 0.93415 -0.01213 0.53496 0.0
C747 C 0.98245 0.15391 0.53337 0.0
C748 C 0.02421 0.20037 0.53028 0.0
C749 C 0.97567 0.03539 0.5317 0.0
C750 C 0.0593 0.12706 0.5256 0.0
C751 C 0.05272 0.00953 0.52357 0.0
H752 H 0.29807 0.19647 0.7492 0.0
H753 H 0.17188 0.10268 0.77223 0.0
H754 H 0.14411 0.29581 0.76586 0.0
H755 H 0.15959 0.49641 0.75794 0.0
H756 H 0.28577 0.58956 0.73474 0.0
H757 H 0.30987 0.38938 0.73653 0.0
C758 C 0.26446 0.21821 0.75283 0.0
C759 C 0.23737 0.13748 0.76199 0.0
C760 C 0.24897 0.32856 0.74901 0.0
C761 C 0.19353 0.16499 0.76585 0.0
C762 C 0.17766 0.27495 0.76204 0.0
C763 C 0.19197 0.47237 0.75281 0.0
C764 C 0.22177 0.55697 0.74699 0.0
C765 C 0.2056 0.35827 0.75423 0.0
C766 C 0.26324 0.52538 0.74006 0.0
C767 C 0.27686 0.41142 0.74103 0.0
H768 H 0.67944 0.2931 0.77243 0.0
H769 H 0.81724 0.35317 0.78001 0.0
H770 H 0.80349 0.55959 0.78225 0.0
H771 H 0.75223 0.72303 0.77979 0.0
H772 H 0.61554 0.66136 0.76904 0.0
H773 H 0.62827 0.45501 0.77112 0.0
C774 C 0.70635 0.3514 0.77443 0.0
C775 C 0.74913 0.30828 0.77564 0.0
C776 C 0.6983 0.46937 0.77512 0.0
C777 C 0.78392 0.38445 0.77877 0.0
C778 C 0.77611 0.5024 0.78001 0.0
C779 C 0.72564 0.66416 0.77733 0.0
C780 C 0.68357 0.70693 0.77346 0.0
C781 C 0.73352 0.54579 0.7777 0.0
C782 C 0.64849 0.63034 0.77167 0.0
C783 C 0.65575 0.51237 0.77272 0.0
H784 H 0.63332 0.64352 0.52419 0.0
H785 H 0.50595 0.76563 0.54206 0.0
H786 H 0.47817 0.56979 0.5421 0.0
H787 H 0.4871 0.37277 0.53114 0.0
H788 H 0.61249 0.2557 0.50977 0.0
H789 H 0.64452 0.4419 0.51696 0.0
C790 C 0.59982 0.62685 0.52862 0.0
C791 C 0.57116 0.7178 0.5326 0.0
C792 C 0.58368 0.51588 0.52748 0.0
C793 C 0.52808 0.69607 0.53854 0.0
C794 C 0.51222 0.5846 0.53845 0.0
C795 C 0.52147 0.38797 0.52811 0.0
C796 C 0.54735 0.30268 0.51948 0.0
C797 C 0.53913 0.49526 0.53184 0.0
C798 C 0.59199 0.32163 0.51609 0.0
C799 C 0.61027 0.42751 0.52028 0.0
H800 H 0.51553 0.91756 1.01503 0.0
H801 H 0.37967 0.97493 0.0294 0.0
H802 H 0.39272 0.1807 0.03192 0.0
H803 H 0.442 0.34442 0.02809 0.0
H804 H 0.57759 0.28641 1.01332 0.0
H805 H 0.56572 0.07986 1.0133 0.0
C806 C 0.48901 0.975 0.01893 0.0
C807 C 0.44692 0.93167 0.02198 0.0
C808 C 0.49667 0.09265 0.02027 0.0
C809 C 0.41249 0.00668 0.02693 0.0
C810 C 0.41986 0.12419 0.02836 0.0
C811 C 0.46883 0.28632 0.02496 0.0
C812 C 0.51025 0.3299 0.02048 0.0
C813 C 0.46168 0.16809 0.02476 0.0
C814 C 0.54525 0.25436 0.01678 0.0
C815 C 0.5385 0.13641 0.01668 0.0
H816 H 0.32703 0.20185 1.00686 0.0
H817 H 0.24799 0.51014 1.00823 0.0
H818 H 0.18152 0.39534 1.00796 0.0
H819 H 0.14635 0.20874 1.01 0.0
H820 H 0.2249 0.89959 1.01002 0.0
H821 H 0.29139 0.01393 1.00692 0.0
C822 C 0.29525 0.24379 1.00685 0.0
C823 C 0.29226 0.36384 1.00775 0.0
C824 C 0.25725 0.17743 1.00708 0.0
C825 C 0.25099 0.4175 1.0077 0.0
C826 C 0.21302 0.35212 1.00756 0.0
C827 C 0.17798 0.16626 1.0092 0.0
C828 C 0.18089 0.04636 1.01047 0.0
C829 C 0.21585 0.23217 1.00771 0.0
C830 C 0.22198 -0.00782 1.00921 0.0
C831 C 0.25994 0.05733 1.00745 0.0
H832 H 0.79647 0.70962 0.03412 0.0
H833 H 0.80521 0.52808 0.97961 0.0
H834 H 0.73548 0.61429 0.96933 0.0
H835 H 0.67286 0.74116 0.97618 0.0
H836 H 0.66884 0.93338 0.02984 0.0
H837 H 0.73908 0.85082 0.03934 0.0
C838 C 0.78309 0.68749 0.02005 0.0
C839 C 0.80555 0.61051 1.00779 0.0
C840 C 0.74529 0.74389 1.01372 0.0
C841 C 0.78788 0.58466 0.9895 0.0
C842 C 0.74865 0.63592 0.98347 0.0
C843 C 0.68795 0.76826 0.98967 0.0
C844 C 0.66517 0.84204 1.00246 0.0
C845 C 0.7275 0.71706 0.99538 0.0
C846 C 0.68557 0.87674 0.01976 0.0
C847 C 0.72521 0.82748 0.0254 0.0
H848 H 0.01716 0.27705 0.26498 0.0
H849 H 0.09335 0.58511 0.25712 0.0
H850 H 0.02678 0.70154 0.2591 0.0
H851 H 0.94838 0.71563 0.26587 0.0
H852 H 0.87246 0.40753 0.27416 0.0
H853 H 0.93807 0.29031 0.26935 0.0
C854 C 0.01916 0.36961 0.26348 0.0
C855 C 0.05994 0.42286 0.26116 0.0
C856 C 0.98111 0.4356 0.26501 0.0
C857 C 0.06218 0.54248 0.25897 0.0
C858 C 0.02425 0.60898 0.26024 0.0
C859 C 0.94622 0.6228 0.26665 0.0
C860 C 0.90603 0.56997 0.27072 0.0
C861 C 0.98381 0.55645 0.26379 0.0
C862 C 0.9033 0.44982 0.27128 0.0
C863 C 0.94068 0.38294 0.26848 0.0
H864 H 0.32154 0.96419 0.51796 0.0
H865 H 0.38098 0.63254 0.52822 0.0
H866 H 0.30831 0.54698 0.53178 0.0
H867 H 0.22826 0.56741 0.53159 0.0
H868 H 0.16984 0.89995 0.52089 0.0
H869 H 0.24238 -0.01505 0.51802 0.0
C870 C 0.31873 0.87306 0.52097 0.0
C871 C 0.35645 0.80453 0.52278 0.0
C872 C 0.27722 0.82508 0.52298 0.0
C873 C 0.35229 0.6868 0.52671 0.0
C874 C 0.31085 0.63807 0.52878 0.0
C875 C 0.23143 0.65861 0.52875 0.0
C876 C 0.19388 0.7275 0.52645 0.0
C877 C 0.27314 0.70656 0.52692 0.0
C878 C 0.19834 0.8453 0.52268 0.0
C879 C 0.23973 0.89385 0.52101 0.0
H880 H 0.8771 0.29559 0.46419 0.0
H881 H 0.91957 -0.01066 0.49356 0.0
H882 H 0.84977 0.89719 0.48658 0.0
H883 H 0.77132 0.93718 0.48486 0.0
H884 H 0.72593 0.2667 0.46407 0.0
H885 H 0.80068 0.31795 0.45502 0.0
C886 C 0.87174 0.20616 0.46799 0.0
C887 C 0.90154 0.15124 0.48043 0.0
C888 C 0.82946 0.16166 0.46653 0.0
C889 C 0.89584 0.03462 0.48471 0.0
C890 C 0.8555 -0.01675 0.48113 0.0
C891 C 0.7776 0.01901 0.47785 0.0
C892 C 0.74371 0.10033 0.47591 0.0
C893 C 0.82081 0.05111 0.47415 0.0
C894 C 0.75192 0.20452 0.46632 0.0
C895 C 0.79461 0.23367 0.46111 0.0
H896 H 0.889 0.69168 0.79242 0.0
H897 H 0.89053 0.6652 0.73004 0.0
H898 H 0.96856 0.61681 0.73064 0.0
H899 H 0.03748 0.65251 0.74787 0.0
H900 H 0.03546 0.71914 0.80942 0.0
H901 H 0.95705 0.67867 0.81065 0.0
C902 C 0.90618 0.66871 0.77912 0.0
C903 C 0.88507 0.68323 0.76123 0.0
C904 C 0.9514 0.65155 0.77957 0.0
C905 C 0.90668 0.65417 0.74394 0.0
C906 C 0.95139 0.62865 0.7443 0.0
C907 C 0.01999 0.65205 0.76164 0.0
C908 C 0.04127 0.68891 0.77852 0.0
C909 C 0.97456 0.63757 0.76186 0.0
C910 C 0.01909 0.6905 0.79634 0.0
C911 C 0.97434 0.66847 0.79697 0.0
H912 H 0.56715 0.42315 0.7491 0.0
H913 H 0.48592 0.12286 0.75496 0.0
H914 H 0.42025 0.24418 0.75422 0.0
H915 H 0.38719 0.43697 0.75572 0.0
H916 H 0.47026 0.73553 0.75217 0.0
H917 H 0.53443 0.61275 0.74854 0.0
C918 C 0.53511 0.38394 0.75013 0.0
C919 C 0.53125 0.26489 0.75249 0.0
C920 C 0.49804 0.4539 0.75044 0.0
C921 C 0.48957 0.2148 0.75329 0.0
C922 C 0.45213 0.28405 0.75301 0.0
C923 C 0.41932 0.47497 0.75402 0.0
C924 C 0.42421 0.59476 0.7545 0.0
C925 C 0.45615 0.40394 0.75224 0.0
C926 C 0.46585 0.64331 0.75212 0.0
C927 C 0.5025 0.57337 0.74997 0.0
H928 H 0.5571 0.86271 0.24545 0.0
H929 H 0.53967 0.19961 0.22072 0.0
H930 H 0.46284 0.15395 0.21323 0.0
H931 H 0.39889 0.03535 0.22111 0.0
H932 H 0.41611 0.72018 0.25303 0.0
H933 H 0.49539 0.73312 0.2488 0.0
C934 C 0.53661 0.92497 0.238 0.0
C935 C 0.55303 0.03478 0.23395 0.0
C936 C 0.49275 0.89977 0.23472 0.0
C937 C 0.52701 0.11529 0.22418 0.0
C938 C 0.48337 0.08883 0.21991 0.0
C939 C 0.4201 0.96692 0.22626 0.0
C940 C 0.40225 0.8777 0.23755 0.0
C941 C 0.46545 -0.01649 0.22606 0.0
C942 C 0.42941 0.789 0.24422 0.0
C943 C 0.47469 0.79829 0.24224 0.0
loop_
_geom_bond_atom_site_label_1
_geom_bond_atom_site_label_2
_geom_bond_distance
_geom_bond_site_symmetry_2
_ccdc_geom_bond_type
Cd0 N3 2.316 1_554 S
Cd0 N29 2.322 . S
Cd0 O36 2.267 1_554 S
Cd0 O39 2.273 1_545 S
Cd0 O40 2.416 1_554 S
Cd0 O41 2.330 1_545 S
Cd1 N16 2.322 . S
Cd1 N20 2.316 1_554 S
Cd1 O37 2.273 1_565 S
Cd1 O38 2.267 1_554 S
Cd1 O42 2.416 1_554 S
Cd1 O43 2.330 1_565 S
C2 N3 1.332 1_565 S
C2 C6 1.381 . S
C2 H8 0.931 . S
N3 Cd0 2.316 1_556 S
N3 C2 1.332 1_545 S
N3 C7 1.328 . S
C4 C5 1.396 . S
C4 C7 1.378 . S
C4 H46 0.931 . S
C5 C4 1.396 . S
C5 C6 1.382 1_545 S
C6 C2 1.381 . S
C6 C5 1.382 1_565 S
C6 H47 0.930 . S
C7 N3 1.328 . S
C7 C4 1.378 . S
C7 H9 0.930 . S
H8 C2 0.931 . S
H9 C7 0.930 . S
C10 O36 1.238 1_654 S
C10 O37 1.253 . S
C11 C12 1.379 . S
C11 N16 1.337 1_545 S
C11 H17 0.929 . S
C12 C11 1.379 . S
C12 C13 1.380 1_545 S
C12 H48 0.929 . S
C13 C12 1.380 1_565 S
C13 C14 1.399 . S
C14 C13 1.399 . S
C14 C15 1.376 . S
C14 H49 0.931 . S
C15 C14 1.376 . S
C15 N16 1.338 . S
C15 H18 0.930 . S
N16 Cd1 2.322 . S
N16 C11 1.337 1_565 S
N16 C15 1.338 . S
H17 C11 0.929 . S
H18 C15 0.930 . S
C19 N20 1.332 1_545 S
C19 C23 1.381 . S
C19 H25 0.931 . S
N20 Cd1 2.316 1_556 S
N20 C19 1.332 1_565 S
N20 C24 1.328 . S
C21 C22 1.396 . S
C21 C24 1.378 . S
C21 H50 0.931 . S
C22 C21 1.396 . S
C22 C23 1.382 1_565 S
C23 C19 1.381 . S
C23 C22 1.382 1_545 S
C23 H51 0.930 . S
C24 N20 1.328 . S
C24 C21 1.378 . S
C24 H26 0.930 . S
H25 C19 0.931 . S
H26 C24 0.930 . S
C27 O38 1.238 1_454 S
C27 O39 1.253 . S
C28 O40 1.240 . S
C28 O41 1.227 1_546 S
N29 Cd0 2.322 . S
N29 C30 1.337 1_545 S
N29 C34 1.338 . S
C30 N29 1.337 1_565 S
C30 C31 1.379 . S
C30 H44 0.929 . S
C31 C30 1.379 . S
C31 C32 1.380 1_565 S
C31 H52 0.929 . S
C32 C31 1.380 1_545 S
C32 C33 1.399 . S
C33 C32 1.399 . S
C33 C34 1.376 . S
C33 H53 0.931 . S
C34 N29 1.338 . S
C34 C33 1.376 . S
C34 H45 0.930 . S
C35 O42 1.240 . S
C35 O43 1.227 1_566 S
O36 Cd0 2.267 1_556 S
O36 C10 1.238 1_456 S
O37 Cd1 2.273 1_545 S
O37 C10 1.253 . S
O38 Cd1 2.267 1_556 S
O38 C27 1.238 1_656 S
O39 Cd0 2.273 1_565 S
O39 C27 1.253 . S
O40 Cd0 2.416 1_556 S
O40 C28 1.240 . S
O41 Cd0 2.330 1_565 S
O41 C28 1.227 1_564 S
O42 Cd1 2.416 1_556 S
O42 C35 1.240 . S
O43 Cd1 2.330 1_545 S
O43 C35 1.227 1_544 S
H44 C30 0.929 . S
H45 C34 0.930 . S
H46 C4 0.931 . S
H47 C6 0.930 . S
H48 C12 0.929 . S
H49 C14 0.931 . S
H50 C21 0.931 . S
H51 C23 0.930 . S
H52 C31 0.929 . S
H53 C33 0.931 . S
Cd54 N57 2.334 . S
Cd54 N83 2.304 . S
Cd54 O90 2.268 . S
Cd54 O93 2.273 . S
Cd54 O94 2.417 . S
Cd54 O95 2.330 . S
Cd55 N70 2.304 . S
Cd55 N74 2.334 . S
Cd55 O91 2.273 . S
Cd55 O92 2.268 . S
Cd55 O96 2.417 . S
Cd55 O97 2.330 . S
C56 N57 1.332 . S
C56 C60 1.381 . S
C56 H62 0.931 . S
N57 Cd54 2.334 . S
N57 C56 1.332 . S
N57 C61 1.328 . S
C58 C59 1.396 . S
C58 C61 1.378 . S
C58 H100 0.931 . S
C59 C58 1.396 . S
C59 C60 1.382 . S
C60 C56 1.381 . S
C60 C59 1.382 . S
C60 H101 0.930 . S
C61 N57 1.328 . S
C61 C58 1.378 . S
C61 H63 0.930 . S
H62 C56 0.931 . S
H63 C61 0.930 . S
C64 O90 1.238 . S
C64 O91 1.253 . S
C65 C66 1.379 . S
C65 N70 1.337 . S
C65 H71 0.929 . S
C66 C65 1.379 . S
C66 C67 1.380 . S
C66 H102 0.929 . S
C67 C66 1.380 . S
C67 C68 1.399 . S
C68 C67 1.399 . S
C68 C69 1.376 . S
C68 H103 0.931 . S
C69 C68 1.376 . S
C69 N70 1.338 . S
C69 H72 0.930 . S
N70 Cd55 2.304 . S
N70 C65 1.337 . S
N70 C69 1.338 . S
H71 C65 0.929 . S
H72 C69 0.930 . S
C73 N74 1.332 . S
C73 C77 1.381 . S
C73 H79 0.931 . S
N74 Cd55 2.334 . S
N74 C73 1.332 . S
N74 C78 1.328 . S
C75 C76 1.396 . S
C75 C78 1.378 . S
C75 H104 0.931 . S
C76 C75 1.396 . S
C76 C77 1.382 . S
C77 C73 1.381 . S
C77 C76 1.382 . S
C77 H105 0.930 . S
C78 N74 1.328 . S
C78 C75 1.378 . S
C78 H80 0.930 . S
H79 C73 0.931 . S
H80 C78 0.930 . S
C81 O92 1.238 . S
C81 O93 1.253 . S
C82 O94 1.239 . S
C82 O95 1.230 . S
N83 Cd54 2.304 . S
N83 C84 1.337 . S
N83 C88 1.338 . S
C84 N83 1.337 . S
C84 C85 1.379 . S
C84 H98 0.929 . S
C85 C84 1.379 . S
C85 C86 1.380 . S
C85 H106 0.929 . S
C86 C85 1.380 . S
C86 C87 1.399 . S
C87 C86 1.399 . S
C87 C88 1.376 . S
C87 H107 0.931 . S
C88 N83 1.338 . S
C88 C87 1.376 . S
C88 H99 0.930 . S
C89 O96 1.239 . S
C89 O97 1.230 . S
O90 Cd54 2.268 . S
O90 C64 1.238 . S
O91 Cd55 2.273 . S
O91 C64 1.253 . S
O92 Cd55 2.268 . S
O92 C81 1.238 . S
O93 Cd54 2.273 . S
O93 C81 1.253 . S
O94 Cd54 2.417 . S
O94 C82 1.239 . S
O95 Cd54 2.330 . S
O95 C82 1.230 . S
O96 Cd55 2.417 . S
O96 C89 1.239 . S
O97 Cd55 2.330 . S
O97 C89 1.230 . S
H98 C84 0.929 . S
H99 C88 0.930 . S
H100 C58 0.931 . S
H101 C60 0.930 . S
H102 C66 0.929 . S
H103 C68 0.931 . S
H104 C75 0.931 . S
H105 C77 0.930 . S
H106 C85 0.929 . S
H107 C87 0.931 . S
Cd108 N111 2.334 . S
Cd108 N137 2.304 . S
Cd108 O144 2.268 . S
Cd108 O147 2.273 . S
Cd108 O148 2.417 . S
Cd108 O149 2.330 . S
Cd109 N124 2.304 . S
Cd109 N128 2.334 . S
Cd109 O145 2.273 . S
Cd109 O146 2.268 . S
Cd109 O150 2.417 . S
Cd109 O151 2.330 . S
C110 N111 1.332 . S
C110 C114 1.381 . S
C110 H116 0.931 . S
N111 Cd108 2.334 . S
N111 C110 1.332 . S
N111 C115 1.328 . S
C112 C113 1.396 . S
C112 C115 1.378 . S
C112 H154 0.931 . S
C113 C112 1.396 . S
C113 C114 1.382 . S
C114 C110 1.381 . S
C114 C113 1.382 . S
C114 H155 0.930 . S
C115 N111 1.328 . S
C115 C112 1.378 . S
C115 H117 0.930 . S
H116 C110 0.931 . S
H117 C115 0.930 . S
C118 O144 1.238 . S
C118 O145 1.253 . S
C119 C120 1.379 . S
C119 N124 1.337 . S
C119 H125 0.929 . S
C120 C119 1.379 . S
C120 C121 1.380 . S
C120 H156 0.929 . S
C121 C120 1.380 . S
C121 C122 1.399 . S
C122 C121 1.399 . S
C122 C123 1.376 . S
C122 H157 0.931 . S
C123 C122 1.376 . S
C123 N124 1.338 . S
C123 H126 0.930 . S
N124 Cd109 2.304 . S
N124 C119 1.337 . S
N124 C123 1.338 . S
H125 C119 0.929 . S
H126 C123 0.930 . S
C127 N128 1.332 . S
C127 C131 1.381 . S
C127 H133 0.931 . S
N128 Cd109 2.334 . S
N128 C127 1.332 . S
N128 C132 1.328 . S
C129 C130 1.396 . S
C129 C132 1.378 . S
C129 H158 0.931 . S
C130 C129 1.396 . S
C130 C131 1.382 . S
C131 C127 1.381 . S
C131 C130 1.382 . S
C131 H159 0.930 . S
C132 N128 1.328 . S
C132 C129 1.378 . S
C132 H134 0.930 . S
H133 C127 0.931 . S
H134 C132 0.930 . S
C135 O146 1.238 . S
C135 O147 1.253 . S
C136 O148 1.239 . S
C136 O149 1.230 . S
N137 Cd108 2.304 . S
N137 C138 1.337 . S
N137 C142 1.338 . S
C138 N137 1.337 . S
C138 C139 1.379 . S
C138 H152 0.929 . S
C139 C138 1.379 . S
C139 C140 1.380 . S
C139 H160 0.929 . S
C140 C139 1.380 . S
C140 C141 1.399 . S
C141 C140 1.399 . S
C141 C142 1.376 . S
C141 H161 0.931 . S
C142 N137 1.338 . S
C142 C141 1.376 . S
C142 H153 0.930 . S
C143 O150 1.239 . S
C143 O151 1.230 . S
O144 Cd108 2.268 . S
O144 C118 1.238 . S
O145 Cd109 2.273 . S
O145 C118 1.253 . S
O146 Cd109 2.268 . S
O146 C135 1.238 . S
O147 Cd108 2.273 . S
O147 C135 1.253 . S
O148 Cd108 2.417 . S
O148 C136 1.239 . S
O149 Cd108 2.330 . S
O149 C136 1.230 . S
O150 Cd109 2.417 . S
O150 C143 1.239 . S
O151 Cd109 2.330 . S
O151 C143 1.230 . S
H152 C138 0.929 . S
H153 C142 0.930 . S
H154 C112 0.931 . S
H155 C114 0.930 . S
H156 C120 0.929 . S
H157 C122 0.931 . S
H158 C129 0.931 . S
H159 C131 0.930 . S
H160 C139 0.929 . S
H161 C141 0.931 . S
Cd162 N165 2.334 . S
Cd162 N191 2.304 . S
Cd162 O198 2.268 . S
Cd162 O201 2.273 . S
Cd162 O202 2.417 . S
Cd162 O203 2.330 . S
Cd163 N178 2.304 . S
Cd163 N182 2.334 . S
Cd163 O199 2.273 . S
Cd163 O200 2.268 . S
Cd163 O204 2.417 . S
Cd163 O205 2.330 . S
C164 N165 1.332 . S
C164 C168 1.381 . S
C164 H170 0.931 . S
N165 Cd162 2.334 . S
N165 C164 1.332 . S
N165 C169 1.328 . S
C166 C167 1.396 . S
C166 C169 1.378 . S
C166 H208 0.931 . S
C167 C166 1.396 . S
C167 C168 1.382 . S
C168 C164 1.381 . S
C168 C167 1.382 . S
C168 H209 0.930 . S
C169 N165 1.328 . S
C169 C166 1.378 . S
C169 H171 0.930 . S
H170 C164 0.931 . S
H171 C169 0.930 . S
C172 O198 1.238 1_655 S
C172 O199 1.253 . S
C173 C174 1.379 . S
C173 N178 1.337 . S
C173 H179 0.929 . S
C174 C173 1.379 . S
C174 C175 1.380 . S
C174 H210 0.929 . S
C175 C174 1.380 . S
C175 C176 1.399 . S
C176 C175 1.399 . S
C176 C177 1.376 . S
C176 H211 0.931 . S
C177 C176 1.376 . S
C177 N178 1.338 . S
C177 H180 0.930 . S
N178 Cd163 2.304 . S
N178 C173 1.337 . S
N178 C177 1.338 . S
H179 C173 0.929 . S
H180 C177 0.930 . S
C181 N182 1.332 . S
C181 C185 1.381 . S
C181 H187 0.931 . S
N182 Cd163 2.334 . S
N182 C181 1.332 . S
N182 C186 1.328 . S
C183 C184 1.396 . S
C183 C186 1.378 . S
C183 H212 0.931 . S
C184 C183 1.396 . S
C184 C185 1.382 . S
C185 C181 1.381 . S
C185 C184 1.382 . S
C185 H213 0.930 . S
C186 N182 1.328 . S
C186 C183 1.378 . S
C186 H188 0.930 . S
H187 C181 0.931 . S
H188 C186 0.930 . S
C189 O200 1.238 1_455 S
C189 O201 1.253 . S
C190 O202 1.239 . S
C190 O203 1.230 . S
N191 Cd162 2.304 . S
N191 C192 1.337 . S
N191 C196 1.338 . S
C192 N191 1.337 . S
C192 C193 1.379 . S
C192 H206 0.929 . S
C193 C192 1.379 . S
C193 C194 1.380 . S
C193 H214 0.929 . S
C194 C193 1.380 . S
C194 C195 1.399 . S
C195 C194 1.399 . S
C195 C196 1.376 . S
C195 H215 0.931 . S
C196 N191 1.338 . S
C196 C195 1.376 . S
C196 H207 0.930 . S
C197 O204 1.239 . S
C197 O205 1.230 . S
O198 Cd162 2.268 . S
O198 C172 1.238 1_455 S
O199 Cd163 2.273 . S
O199 C172 1.253 . S
O200 Cd163 2.268 . S
O200 C189 1.238 1_655 S
O201 Cd162 2.273 . S
O201 C189 1.253 . S
O202 Cd162 2.417 . S
O202 C190 1.239 . S
O203 Cd162 2.330 . S
O203 C190 1.230 . S
O204 Cd163 2.417 . S
O204 C197 1.239 . S
O205 Cd163 2.330 . S
O205 C197 1.230 . S
H206 C192 0.929 . S
H207 C196 0.930 . S
H208 C166 0.931 . S
H209 C168 0.930 . S
H210 C174 0.929 . S
H211 C176 0.931 . S
H212 C183 0.931 . S
H213 C185 0.930 . S
H214 C193 0.929 . S
H215 C195 0.931 . S
Cd216 N219 2.334 . S
Cd216 N245 2.304 . S
Cd216 O252 2.268 . S
Cd216 O255 2.273 . S
Cd216 O256 2.417 . S
Cd216 O257 2.330 . S
Cd217 N232 2.304 . S
Cd217 N236 2.334 . S
Cd217 O253 2.273 . S
Cd217 O254 2.268 . S
Cd217 O258 2.417 . S
Cd217 O259 2.330 . S
C218 N219 1.332 . S
C218 C222 1.381 . S
C218 H224 0.931 . S
N219 Cd216 2.334 . S
N219 C218 1.332 . S
N219 C223 1.328 . S
C220 C221 1.396 . S
C220 C223 1.378 . S
C220 H262 0.931 . S
C221 C220 1.396 . S
C221 C222 1.382 . S
C222 C218 1.381 . S
C222 C221 1.382 . S
C222 H263 0.930 . S
C223 N219 1.328 . S
C223 C220 1.378 . S
C223 H225 0.930 . S
H224 C218 0.931 . S
H225 C223 0.930 . S
C226 O252 1.238 . S
C226 O253 1.253 . S
C227 C228 1.379 . S
C227 N232 1.337 . S
C227 H233 0.929 . S
C228 C227 1.379 . S
C228 C229 1.380 . S
C228 H264 0.929 . S
C229 C228 1.380 . S
C229 C230 1.399 . S
C230 C229 1.399 . S
C230 C231 1.376 . S
C230 H265 0.931 . S
C231 C230 1.376 . S
C231 N232 1.338 . S
C231 H234 0.930 . S
N232 Cd217 2.304 . S
N232 C227 1.337 . S
N232 C231 1.338 . S
H233 C227 0.929 . S
H234 C231 0.930 . S
C235 N236 1.332 . S
C235 C239 1.381 . S
C235 H241 0.931 . S
N236 Cd217 2.334 . S
N236 C235 1.332 . S
N236 C240 1.328 . S
C237 C238 1.396 . S
C237 C240 1.378 . S
C237 H266 0.931 . S
C238 C237 1.396 . S
C238 C239 1.382 . S
C239 C235 1.381 . S
C239 C238 1.382 . S
C239 H267 0.930 . S
C240 N236 1.328 . S
C240 C237 1.378 . S
C240 H242 0.930 . S
H241 C235 0.931 . S
H242 C240 0.930 . S
C243 O254 1.238 . S
C243 O255 1.253 . S
C244 O256 1.239 . S
C244 O257 1.230 . S
N245 Cd216 2.304 . S
N245 C246 1.337 . S
N245 C250 1.338 . S
C246 N245 1.337 . S
C246 C247 1.379 . S
C246 H260 0.929 . S
C247 C246 1.379 . S
C247 C248 1.380 . S
C247 H268 0.929 . S
C248 C247 1.380 . S
C248 C249 1.399 . S
C249 C248 1.399 . S
C249 C250 1.376 . S
C249 H269 0.931 . S
C250 N245 1.338 . S
C250 C249 1.376 . S
C250 H261 0.930 . S
C251 O258 1.239 . S
C251 O259 1.230 . S
O252 Cd216 2.268 . S
O252 C226 1.238 . S
O253 Cd217 2.273 . S
O253 C226 1.253 . S
O254 Cd217 2.268 . S
O254 C243 1.238 . S
O255 Cd216 2.273 . S
O255 C243 1.253 . S
O256 Cd216 2.417 . S
O256 C244 1.239 . S
O257 Cd216 2.330 . S
O257 C244 1.230 . S
O258 Cd217 2.417 . S
O258 C251 1.239 . S
O259 Cd217 2.330 . S
O259 C251 1.230 . S
H260 C246 0.929 . S
H261 C250 0.930 . S
H262 C220 0.931 . S
H263 C222 0.930 . S
H264 C228 0.929 . S
H265 C230 0.931 . S
H266 C237 0.931 . S
H267 C239 0.930 . S
H268 C247 0.929 . S
H269 C249 0.931 . S
Cd270 N273 2.334 . S
Cd270 N299 2.304 . S
Cd270 O306 2.268 . S
Cd270 O309 2.273 . S
Cd270 O310 2.417 . S
Cd270 O311 2.330 . S
Cd271 N286 2.304 . S
Cd271 N290 2.334 . S
Cd271 O307 2.273 . S
Cd271 O308 2.268 . S
Cd271 O312 2.417 . S
Cd271 O313 2.330 . S
C272 N273 1.332 . S
C272 C276 1.381 . S
C272 H278 0.931 . S
N273 Cd270 2.334 . S
N273 C272 1.332 . S
N273 C277 1.328 . S
C274 C275 1.396 . S
C274 C277 1.378 . S
C274 H316 0.931 . S
C275 C274 1.396 . S
C275 C276 1.382 . S
C276 C272 1.381 . S
C276 C275 1.382 . S
C276 H317 0.930 . S
C277 N273 1.328 . S
C277 C274 1.378 . S
C277 H279 0.930 . S
H278 C272 0.931 . S
H279 C277 0.930 . S
C280 O306 1.238 . S
C280 O307 1.253 . S
C281 C282 1.379 . S
C281 N286 1.337 . S
C281 H287 0.929 . S
C282 C281 1.379 . S
C282 C283 1.380 . S
C282 H318 0.929 . S
C283 C282 1.380 . S
C283 C284 1.399 . S
C284 C283 1.399 . S
C284 C285 1.376 . S
C284 H319 0.931 . S
C285 C284 1.376 . S
C285 N286 1.338 . S
C285 H288 0.930 . S
N286 Cd271 2.304 . S
N286 C281 1.337 . S
N286 C285 1.338 . S
H287 C281 0.929 . S
H288 C285 0.930 . S
C289 N290 1.332 . S
C289 C293 1.381 . S
C289 H295 0.931 . S
N290 Cd271 2.334 . S
N290 C289 1.332 . S
N290 C294 1.328 . S
C291 C292 1.396 . S
C291 C294 1.378 . S
C291 H320 0.931 . S
C292 C291 1.396 . S
C292 C293 1.382 . S
C293 C289 1.381 . S
C293 C292 1.382 . S
C293 H321 0.930 . S
C294 N290 1.328 . S
C294 C291 1.378 . S
C294 H296 0.930 . S
H295 C289 0.931 . S
H296 C294 0.930 . S
C297 O308 1.238 . S
C297 O309 1.253 . S
C298 O310 1.239 . S
C298 O311 1.230 . S
N299 Cd270 2.304 . S
N299 C300 1.337 . S
N299 C304 1.338 . S
C300 N299 1.337 . S
C300 C301 1.379 . S
C300 H314 0.929 . S
C301 C300 1.379 . S
C301 C302 1.380 . S
C301 H322 0.929 . S
C302 C301 1.380 . S
C302 C303 1.399 . S
C303 C302 1.399 . S
C303 C304 1.376 . S
C303 H323 0.931 . S
C304 N299 1.338 . S
C304 C303 1.376 . S
C304 H315 0.930 . S
C305 O312 1.239 . S
C305 O313 1.230 . S
O306 Cd270 2.268 . S
O306 C280 1.238 . S
O307 Cd271 2.273 . S
O307 C280 1.253 . S
O308 Cd271 2.268 . S
O308 C297 1.238 . S
O309 Cd270 2.273 . S
O309 C297 1.253 . S
O310 Cd270 2.417 . S
O310 C298 1.239 . S
O311 Cd270 2.330 . S
O311 C298 1.230 . S
O312 Cd271 2.417 . S
O312 C305 1.239 . S
O313 Cd271 2.330 . S
O313 C305 1.230 . S
H314 C300 0.929 . S
H315 C304 0.930 . S
H316 C274 0.931 . S
H317 C276 0.930 . S
H318 C282 0.929 . S
H319 C284 0.931 . S
H320 C291 0.931 . S
H321 C293 0.930 . S
H322 C301 0.929 . S
H323 C303 0.931 . S
Cd324 N327 2.334 . S
Cd324 N353 2.304 . S
Cd324 O360 2.268 . S
Cd324 O363 2.273 1_545 S
Cd324 O364 2.417 . S
Cd324 O365 2.330 1_545 S
Cd325 N340 2.304 . S
Cd325 N344 2.334 . S
Cd325 O361 2.273 1_565 S
Cd325 O362 2.268 . S
Cd325 O366 2.417 . S
Cd325 O367 2.330 1_565 S
C326 N327 1.332 1_565 S
C326 C330 1.381 . S
C326 H332 0.931 . S
N327 Cd324 2.334 . S
N327 C326 1.332 1_545 S
N327 C331 1.328 . S
C328 C329 1.396 . S
C328 C331 1.378 . S
C328 H370 0.931 . S
C329 C328 1.396 . S
C329 C330 1.382 1_545 S
C330 C326 1.381 . S
C330 C329 1.382 1_565 S
C330 H371 0.930 . S
C331 N327 1.328 . S
C331 C328 1.378 . S
C331 H333 0.930 . S
H332 C326 0.931 . S
H333 C331 0.930 . S
C334 O360 1.238 . S
C334 O361 1.253 . S
C335 C336 1.379 . S
C335 N340 1.337 1_545 S
C335 H341 0.929 . S
C336 C335 1.379 . S
C336 C337 1.380 1_545 S
C336 H372 0.929 . S
C337 C336 1.380 1_565 S
C337 C338 1.399 . S
C338 C337 1.399 . S
C338 C339 1.376 . S
C338 H373 0.931 . S
C339 C338 1.376 . S
C339 N340 1.338 . S
C339 H342 0.930 . S
N340 Cd325 2.304 . S
N340 C335 1.337 1_565 S
N340 C339 1.338 . S
H341 C335 0.929 . S
H342 C339 0.930 . S
C343 N344 1.332 1_545 S
C343 C347 1.381 . S
C343 H349 0.931 . S
N344 Cd325 2.334 . S
N344 C343 1.332 1_565 S
N344 C348 1.328 . S
C345 C346 1.396 . S
C345 C348 1.378 . S
C345 H374 0.931 . S
C346 C345 1.396 . S
C346 C347 1.382 1_565 S
C347 C343 1.381 . S
C347 C346 1.382 1_545 S
C347 H375 0.930 . S
C348 N344 1.328 . S
C348 C345 1.378 . S
C348 H350 0.930 . S
H349 C343 0.931 . S
H350 C348 0.930 . S
C351 O362 1.238 . S
C351 O363 1.253 . S
C352 O364 1.239 . S
C352 O365 1.230 1_545 S
N353 Cd324 2.304 . S
N353 C354 1.337 1_545 S
N353 C358 1.338 . S
C354 N353 1.337 1_565 S
C354 C355 1.379 . S
C354 H368 0.929 . S
C355 C354 1.379 . S
C355 C356 1.380 1_565 S
C355 H376 0.929 . S
C356 C355 1.380 1_545 S
C356 C357 1.399 . S
C357 C356 1.399 . S
C357 C358 1.376 . S
C357 H377 0.931 . S
C358 N353 1.338 . S
C358 C357 1.376 . S
C358 H369 0.930 . S
C359 O366 1.239 . S
C359 O367 1.230 1_565 S
O360 Cd324 2.268 . S
O360 C334 1.238 . S
O361 Cd325 2.273 1_545 S
O361 C334 1.253 . S
O362 Cd325 2.268 . S
O362 C351 1.238 . S
O363 Cd324 2.273 1_565 S
O363 C351 1.253 . S
O364 Cd324 2.417 . S
O364 C352 1.239 . S
O365 Cd324 2.330 1_565 S
O365 C352 1.230 1_565 S
O366 Cd325 2.417 . S
O366 C359 1.239 . S
O367 Cd325 2.330 1_545 S
O367 C359 1.230 1_545 S
H368 C354 0.929 . S
H369 C358 0.930 . S
H370 C328 0.931 . S
H371 C330 0.930 . S
H372 C336 0.929 . S
H373 C338 0.931 . S
H374 C345 0.931 . S
H375 C347 0.930 . S
H376 C355 0.929 . S
H377 C357 0.931 . S
Cd378 N381 2.316 1_554 S
Cd378 N407 2.322 . S
Cd378 O414 2.267 1_554 S
Cd378 O417 2.273 . S
Cd378 O418 2.416 1_554 S
Cd378 O419 2.330 . S
Cd379 N394 2.322 . S
Cd379 N398 2.316 1_554 S
Cd379 O415 2.273 . S
Cd379 O416 2.267 1_554 S
Cd379 O420 2.416 1_554 S
Cd379 O421 2.330 . S
C380 N381 1.332 . S
C380 C384 1.381 . S
C380 H386 0.931 . S
N381 Cd378 2.316 1_556 S
N381 C380 1.332 . S
N381 C385 1.328 . S
C382 C383 1.396 . S
C382 C385 1.378 . S
C382 H424 0.931 . S
C383 C382 1.396 . S
C383 C384 1.382 . S
C384 C380 1.381 . S
C384 C383 1.382 . S
C384 H425 0.930 . S
C385 N381 1.328 . S
C385 C382 1.378 . S
C385 H387 0.930 . S
H386 C380 0.931 . S
H387 C385 0.930 . S
C388 O414 1.238 1_554 S
C388 O415 1.253 . S
C389 C390 1.379 . S
C389 N394 1.337 . S
C389 H395 0.929 . S
C390 C389 1.379 . S
C390 C391 1.380 . S
C390 H426 0.929 . S
C391 C390 1.380 . S
C391 C392 1.399 . S
C392 C391 1.399 . S
C392 C393 1.376 . S
C392 H427 0.931 . S
C393 C392 1.376 . S
C393 N394 1.338 . S
C393 H396 0.930 . S
N394 Cd379 2.322 . S
N394 C389 1.337 . S
N394 C393 1.338 . S
H395 C389 0.929 . S
H396 C393 0.930 . S
C397 N398 1.332 . S
C397 C401 1.381 . S
C397 H403 0.931 . S
N398 Cd379 2.316 1_556 S
N398 C397 1.332 . S
N398 C402 1.328 . S
C399 C400 1.396 . S
C399 C402 1.378 . S
C399 H428 0.931 . S
C400 C399 1.396 . S
C400 C401 1.382 . S
C401 C397 1.381 . S
C401 C400 1.382 . S
C401 H429 0.930 . S
C402 N398 1.328 . S
C402 C399 1.378 . S
C402 H404 0.930 . S
H403 C397 0.931 . S
H404 C402 0.930 . S
C405 O416 1.238 1_554 S
C405 O417 1.253 . S
C406 O418 1.240 . S
C406 O419 1.227 1_556 S
N407 Cd378 2.322 . S
N407 C408 1.337 . S
N407 C412 1.338 . S
C408 N407 1.337 . S
C408 C409 1.379 . S
C408 H422 0.929 . S
C409 C408 1.379 . S
C409 C410 1.380 . S
C409 H430 0.929 . S
C410 C409 1.380 . S
C410 C411 1.399 . S
C411 C410 1.399 . S
C411 C412 1.376 . S
C411 H431 0.931 . S
C412 N407 1.338 . S
C412 C411 1.376 . S
C412 H423 0.930 . S
C413 O420 1.240 . S
C413 O421 1.227 1_556 S
O414 Cd378 2.267 1_556 S
O414 C388 1.238 1_556 S
O415 Cd379 2.273 . S
O415 C388 1.253 . S
O416 Cd379 2.267 1_556 S
O416 C405 1.238 1_556 S
O417 Cd378 2.273 . S
O417 C405 1.253 . S
O418 Cd378 2.416 1_556 S
O418 C406 1.240 . S
O419 Cd378 2.330 . S
O419 C406 1.227 1_554 S
O420 Cd379 2.416 1_556 S
O420 C413 1.240 . S
O421 Cd379 2.330 . S
O421 C413 1.227 1_554 S
H422 C408 0.929 . S
H423 C412 0.930 . S
H424 C382 0.931 . S
H425 C384 0.930 . S
H426 C390 0.929 . S
H427 C392 0.931 . S
H428 C399 0.931 . S
H429 C401 0.930 . S
H430 C409 0.929 . S
H431 C411 0.931 . S
H432 C438 0.930 . S
H433 C441 0.930 . S
H434 C442 0.930 . S
H435 C443 0.930 . S
H436 C446 0.930 . S
H437 C447 0.930 . S
C438 H432 0.930 . S
C438 C439 1.355 . S
C438 C440 1.415 . S
C439 C438 1.355 . S
C439 C441 1.419 . S
C440 C438 1.415 . S
C440 C445 1.425 . S
C440 C447 1.409 . S
C441 H433 0.930 . S
C441 C439 1.419 . S
C441 C442 1.362 . S
C442 H434 0.930 . S
C442 C441 1.362 . S
C442 C445 1.409 . S
C443 H435 0.930 . S
C443 C444 1.355 . S
C443 C445 1.415 . S
C444 C443 1.355 . S
C444 C446 1.419 . S
C445 C440 1.425 . S
C445 C442 1.409 . S
C445 C443 1.415 . S
C446 H436 0.930 . S
C446 C444 1.419 . S
C446 C447 1.362 . S
C447 H437 0.930 . S
C447 C440 1.409 . S
C447 C446 1.362 . S
H448 C454 0.930 . S
H449 C457 0.930 . S
H450 C458 0.930 . S
H451 C459 0.930 . S
H452 C462 0.930 . S
H453 C463 0.930 . S
C454 H448 0.930 . S
C454 C455 1.355 . S
C454 C456 1.415 . S
C455 C454 1.355 . S
C455 C457 1.419 . S
C456 C454 1.415 . S
C456 C461 1.425 . S
C456 C463 1.409 . S
C457 H449 0.930 . S
C457 C455 1.419 . S
C457 C458 1.362 . S
C458 H450 0.930 . S
C458 C457 1.362 . S
C458 C461 1.409 . S
C459 H451 0.930 . S
C459 C460 1.355 . S
C459 C461 1.415 . S
C460 C459 1.355 . S
C460 C462 1.419 . S
C461 C456 1.425 . S
C461 C458 1.409 . S
C461 C459 1.415 . S
C462 H452 0.930 . S
C462 C460 1.419 . S
C462 C463 1.362 . S
C463 H453 0.930 . S
C463 C456 1.409 . S
C463 C462 1.362 . S
H464 C470 0.930 . S
H465 C473 0.930 . S
H466 C474 0.930 . S
H467 C475 0.930 . S
H468 C478 0.930 . S
H469 C479 0.930 . S
C470 H464 0.930 . S
C470 C471 1.355 . S
C470 C472 1.415 . S
C471 C470 1.355 . S
C471 C473 1.419 . S
C472 C470 1.415 . S
C472 C477 1.425 . S
C472 C479 1.409 . S
C473 H465 0.930 . S
C473 C471 1.419 . S
C473 C474 1.362 . S
C474 H466 0.930 . S
C474 C473 1.362 . S
C474 C477 1.409 . S
C475 H467 0.930 . S
C475 C476 1.355 . S
C475 C477 1.415 . S
C476 C475 1.355 . S
C476 C478 1.419 . S
C477 C472 1.425 . S
C477 C474 1.409 . S
C477 C475 1.415 . S
C478 H468 0.930 . S
C478 C476 1.419 . S
C478 C479 1.362 . S
C479 H469 0.930 . S
C479 C472 1.409 . S
C479 C478 1.362 . S
H480 C486 0.930 . S
H481 C489 0.930 . S
H482 C490 0.930 . S
H483 C491 0.930 . S
H484 C494 0.930 . S
H485 C495 0.930 . S
C486 H480 0.930 . S
C486 C487 1.355 . S
C486 C488 1.415 . S
C487 C486 1.355 . S
C487 C489 1.419 . S
C488 C486 1.415 . S
C488 C493 1.425 . S
C488 C495 1.409 . S
C489 H481 0.930 . S
C489 C487 1.419 . S
C489 C490 1.362 . S
C490 H482 0.930 . S
C490 C489 1.362 . S
C490 C493 1.409 . S
C491 H483 0.930 . S
C491 C492 1.355 . S
C491 C493 1.415 . S
C492 C491 1.355 . S
C492 C494 1.419 . S
C493 C488 1.425 . S
C493 C490 1.409 . S
C493 C491 1.415 . S
C494 H484 0.930 . S
C494 C492 1.419 . S
C494 C495 1.362 . S
C495 H485 0.930 . S
C495 C488 1.409 . S
C495 C494 1.362 . S
H496 C502 0.930 . S
H497 C505 0.930 . S
H498 C506 0.930 . S
H499 C507 0.930 . S
H500 C510 0.930 . S
H501 C511 0.930 . S
C502 H496 0.930 . S
C502 C503 1.355 . S
C502 C504 1.415 . S
C503 C502 1.355 . S
C503 C505 1.419 . S
C504 C502 1.415 . S
C504 C509 1.425 . S
C504 C511 1.409 . S
C505 H497 0.930 . S
C505 C503 1.419 . S
C505 C506 1.362 . S
C506 H498 0.930 . S
C506 C505 1.362 . S
C506 C509 1.409 . S
C507 H499 0.930 . S
C507 C508 1.355 . S
C507 C509 1.415 . S
C508 C507 1.355 . S
C508 C510 1.419 . S
C509 C504 1.425 . S
C509 C506 1.409 . S
C509 C507 1.415 . S
C510 H500 0.930 . S
C510 C508 1.419 . S
C510 C511 1.362 . S
C511 H501 0.930 . S
C511 C504 1.409 . S
C511 C510 1.362 . S
H512 C518 0.930 . S
H513 C521 0.930 . S
H514 C522 0.930 . S
H515 C523 0.930 . S
H516 C526 0.930 . S
H517 C527 0.930 . S
C518 H512 0.930 . S
C518 C519 1.355 . S
C518 C520 1.415 . S
C519 C518 1.355 . S
C519 C521 1.419 . S
C520 C518 1.415 . S
C520 C525 1.425 . S
C520 C527 1.409 . S
C521 H513 0.930 . S
C521 C519 1.419 . S
C521 C522 1.362 . S
C522 H514 0.930 . S
C522 C521 1.362 . S
C522 C525 1.409 . S
C523 H515 0.930 . S
C523 C524 1.355 . S
C523 C525 1.415 . S
C524 C523 1.355 . S
C524 C526 1.419 . S
C525 C520 1.425 . S
C525 C522 1.409 . S
C525 C523 1.415 . S
C526 H516 0.930 . S
C526 C524 1.419 . S
C526 C527 1.362 . S
C527 H517 0.930 . S
C527 C520 1.409 . S
C527 C526 1.362 . S
H528 C534 0.930 . S
H529 C537 0.930 . S
H530 C538 0.930 . S
H531 C539 0.930 1_545 S
H532 C542 0.930 . S
H533 C543 0.930 . S
C534 H528 0.930 . S
C534 C535 1.355 . S
C534 C536 1.415 . S
C535 C534 1.355 . S
C535 C537 1.419 . S
C536 C534 1.415 . S
C536 C541 1.425 . S
C536 C543 1.409 . S
C537 H529 0.930 . S
C537 C535 1.419 . S
C537 C538 1.362 . S
C538 H530 0.930 . S
C538 C537 1.362 . S
C538 C541 1.409 . S
C539 H531 0.930 1_565 S
C539 C540 1.355 . S
C539 C541 1.415 . S
C540 C539 1.355 . S
C540 C542 1.419 . S
C541 C536 1.425 . S
C541 C538 1.409 . S
C541 C539 1.415 . S
C542 H532 0.930 . S
C542 C540 1.419 . S
C542 C543 1.362 . S
C543 H533 0.930 . S
C543 C536 1.409 . S
C543 C542 1.362 . S
H544 C550 0.930 . S
H545 C553 0.930 . S
H546 C554 0.930 . S
H547 C555 0.930 . S
H548 C558 0.930 . S
H549 C559 0.930 . S
C550 H544 0.930 . S
C550 C551 1.355 . S
C550 C552 1.415 . S
C551 C550 1.355 . S
C551 C553 1.419 . S
C552 C550 1.415 . S
C552 C557 1.425 . S
C552 C559 1.409 . S
C553 H545 0.930 . S
C553 C551 1.419 . S
C553 C554 1.362 . S
C554 H546 0.930 . S
C554 C553 1.362 . S
C554 C557 1.409 . S
C555 H547 0.930 . S
C555 C556 1.355 . S
C555 C557 1.415 . S
C556 C555 1.355 . S
C556 C558 1.419 . S
C557 C552 1.425 . S
C557 C554 1.409 . S
C557 C555 1.415 . S
C558 H548 0.930 . S
C558 C556 1.419 . S
C558 C559 1.362 . S
C559 H549 0.930 . S
C559 C552 1.409 . S
C559 C558 1.362 . S
H560 C566 0.930 . S
H561 C569 0.930 . S
H562 C570 0.930 . S
H563 C571 0.930 . S
H564 C574 0.930 . S
H565 C575 0.930 . S
C566 H560 0.930 . S
C566 C567 1.355 . S
C566 C568 1.415 . S
C567 C566 1.355 . S
C567 C569 1.419 . S
C568 C566 1.415 . S
C568 C573 1.425 . S
C568 C575 1.409 1_545 S
C569 H561 0.930 . S
C569 C567 1.419 . S
C569 C570 1.362 . S
C570 H562 0.930 . S
C570 C569 1.362 . S
C570 C573 1.409 . S
C571 H563 0.930 . S
C571 C572 1.355 . S
C571 C573 1.415 . S
C572 C571 1.355 . S
C572 C574 1.419 1_545 S
C573 C568 1.425 . S
C573 C570 1.409 . S
C573 C571 1.415 . S
C574 H564 0.930 . S
C574 C572 1.419 1_565 S
C574 C575 1.362 . S
C575 H565 0.930 . S
C575 C568 1.409 1_565 S
C575 C574 1.362 . S
H576 C582 0.930 . S
H577 C585 0.930 . S
H578 C586 0.930 . S
H579 C587 0.930 . S
H580 C590 0.930 . S
H581 C591 0.930 . S
C582 H576 0.930 . S
C582 C583 1.355 . S
C582 C584 1.415 . S
C583 C582 1.355 . S
C583 C585 1.419 1_565 S
C584 C582 1.415 . S
C584 C589 1.425 . S
C584 C591 1.409 . S
C585 H577 0.930 . S
C585 C583 1.419 1_545 S
C585 C586 1.362 . S
C586 H578 0.930 . S
C586 C585 1.362 . S
C586 C589 1.409 1_545 S
C587 H579 0.930 . S
C587 C588 1.355 . S
C587 C589 1.415 . S
C588 C587 1.355 . S
C588 C590 1.419 . S
C589 C584 1.425 . S
C589 C586 1.409 1_565 S
C589 C587 1.415 . S
C590 H580 0.930 . S
C590 C588 1.419 . S
C590 C591 1.362 . S
C591 H581 0.930 . S
C591 C584 1.409 . S
C591 C590 1.362 . S
H592 C598 0.930 . S
H593 C601 0.930 . S
H594 C602 0.930 . S
H595 C603 0.930 . S
H596 C606 0.930 . S
H597 C607 0.930 . S
C598 H592 0.930 . S
C598 C599 1.355 . S
C598 C600 1.415 . S
C599 C598 1.355 . S
C599 C601 1.419 . S
C600 C598 1.415 . S
C600 C605 1.425 . S
C600 C607 1.409 . S
C601 H593 0.930 . S
C601 C599 1.419 . S
C601 C602 1.362 . S
C602 H594 0.930 . S
C602 C601 1.362 . S
C602 C605 1.409 . S
C603 H595 0.930 . S
C603 C604 1.355 . S
C603 C605 1.415 . S
C604 C603 1.355 . S
C604 C606 1.419 . S
C605 C600 1.425 . S
C605 C602 1.409 . S
C605 C603 1.415 . S
C606 H596 0.930 . S
C606 C604 1.419 . S
C606 C607 1.362 . S
C607 H597 0.930 . S
C607 C600 1.409 . S
C607 C606 1.362 . S
H608 C614 0.930 . S
H609 C617 0.930 . S
H610 C618 0.930 . S
H611 C619 0.930 . S
H612 C622 0.930 . S
H613 C623 0.930 . S
C614 H608 0.930 . S
C614 C615 1.355 . S
C614 C616 1.415 . S
C615 C614 1.355 . S
C615 C617 1.419 . S
C616 C614 1.415 . S
C616 C621 1.425 . S
C616 C623 1.409 . S
C617 H609 0.930 . S
C617 C615 1.419 . S
C617 C618 1.362 . S
C618 H610 0.930 . S
C618 C617 1.362 . S
C618 C621 1.409 . S
C619 H611 0.930 . S
C619 C620 1.355 . S
C619 C621 1.415 . S
C620 C619 1.355 . S
C620 C622 1.419 . S
C621 C616 1.425 . S
C621 C618 1.409 . S
C621 C619 1.415 . S
C622 H612 0.930 . S
C622 C620 1.419 . S
C622 C623 1.362 . S
C623 H613 0.930 . S
C623 C616 1.409 . S
C623 C622 1.362 . S
H624 C630 0.930 . S
H625 C633 0.930 . S
H626 C634 0.930 . S
H627 C635 0.930 . S
H628 C638 0.930 . S
H629 C639 0.930 . S
C630 H624 0.930 . S
C630 C631 1.355 . S
C630 C632 1.415 . S
C631 C630 1.355 . S
C631 C633 1.419 . S
C632 C630 1.415 . S
C632 C637 1.425 . S
C632 C639 1.409 . S
C633 H625 0.930 . S
C633 C631 1.419 . S
C633 C634 1.362 . S
C634 H626 0.930 . S
C634 C633 1.362 . S
C634 C637 1.409 . S
C635 H627 0.930 . S
C635 C636 1.355 . S
C635 C637 1.415 . S
C636 C635 1.355 . S
C636 C638 1.419 . S
C637 C632 1.425 . S
C637 C634 1.409 . S
C637 C635 1.415 . S
C638 H628 0.930 . S
C638 C636 1.419 . S
C638 C639 1.362 . S
C639 H629 0.930 . S
C639 C632 1.409 . S
C639 C638 1.362 . S
H640 C646 0.930 . S
H641 C649 0.930 . S
H642 C650 0.930 . S
H643 C651 0.930 . S
H644 C654 0.930 . S
H645 C655 0.930 . S
C646 H640 0.930 . S
C646 C647 1.355 . S
C646 C648 1.415 . S
C647 C646 1.355 . S
C647 C649 1.419 . S
C648 C646 1.415 . S
C648 C653 1.425 . S
C648 C655 1.409 . S
C649 H641 0.930 . S
C649 C647 1.419 . S
C649 C650 1.362 . S
C650 H642 0.930 . S
C650 C649 1.362 . S
C650 C653 1.409 . S
C651 H643 0.930 . S
C651 C652 1.355 . S
C651 C653 1.415 . S
C652 C651 1.355 . S
C652 C654 1.419 . S
C653 C648 1.425 . S
C653 C650 1.409 . S
C653 C651 1.415 . S
C654 H644 0.930 . S
C654 C652 1.419 . S
C654 C655 1.362 . S
C655 H645 0.930 . S
C655 C648 1.409 . S
C655 C654 1.362 . S
H656 C662 0.930 . S
H657 C665 0.930 . S
H658 C666 0.930 . S
H659 C667 0.930 . S
H660 C670 0.930 . S
H661 C671 0.930 . S
C662 H656 0.930 . S
C662 C663 1.355 . S
C662 C664 1.415 . S
C663 C662 1.355 . S
C663 C665 1.419 . S
C664 C662 1.415 . S
C664 C669 1.425 . S
C664 C671 1.409 . S
C665 H657 0.930 . S
C665 C663 1.419 . S
C665 C666 1.362 . S
C666 H658 0.930 . S
C666 C665 1.362 . S
C666 C669 1.409 . S
C667 H659 0.930 . S
C667 C668 1.355 . S
C667 C669 1.415 . S
C668 C667 1.355 . S
C668 C670 1.419 . S
C669 C664 1.425 . S
C669 C666 1.409 . S
C669 C667 1.415 . S
C670 H660 0.930 . S
C670 C668 1.419 . S
C670 C671 1.362 . S
C671 H661 0.930 . S
C671 C664 1.409 . S
C671 C670 1.362 . S
H672 C678 0.930 . S
H673 C681 0.930 . S
H674 C682 0.930 . S
H675 C683 0.930 . S
H676 C686 0.930 . S
H677 C687 0.930 . S
C678 H672 0.930 . S
C678 C679 1.355 . S
C678 C680 1.415 . S
C679 C678 1.355 . S
C679 C681 1.419 1_545 S
C680 C678 1.415 . S
C680 C685 1.425 . S
C680 C687 1.409 . S
C681 H673 0.930 . S
C681 C679 1.419 1_565 S
C681 C682 1.362 . S
C682 H674 0.930 . S
C682 C681 1.362 . S
C682 C685 1.409 1_565 S
C683 H675 0.930 . S
C683 C684 1.355 . S
C683 C685 1.415 . S
C684 C683 1.355 . S
C684 C686 1.419 . S
C685 C680 1.425 . S
C685 C682 1.409 1_545 S
C685 C683 1.415 . S
C686 H676 0.930 . S
C686 C684 1.419 . S
C686 C687 1.362 . S
C687 H677 0.930 . S
C687 C680 1.409 . S
C687 C686 1.362 . S
H688 C694 0.929 1_556 S
H689 C697 0.930 . S
H690 C698 0.930 . S
H691 C699 0.929 . S
H692 C702 0.930 . S
H693 C703 0.930 . S
C694 H688 0.929 1_554 S
C694 C695 1.353 1_655 S
C694 C696 1.414 1_554 S
C695 C694 1.353 1_455 S
C695 C697 1.424 . S
C696 C694 1.414 1_556 S
C696 C701 1.423 1_656 S
C696 C703 1.410 . S
C697 H689 0.930 . S
C697 C695 1.424 . S
C697 C698 1.362 . S
C698 H690 0.930 . S
C698 C697 1.362 . S
C698 C701 1.413 . S
C699 H691 0.929 . S
C699 C700 1.353 1_454 S
C699 C701 1.414 . S
C700 C699 1.353 1_656 S
C700 C702 1.421 . S
C701 C696 1.423 1_454 S
C701 C698 1.413 . S
C701 C699 1.414 . S
C702 H692 0.930 . S
C702 C700 1.421 . S
C702 C703 1.362 . S
C703 H693 0.930 . S
C703 C696 1.410 . S
C703 C702 1.362 . S
H704 C710 0.930 . S
H705 C713 0.930 . S
H706 C714 0.930 . S
H707 C715 0.930 . S
H708 C718 0.930 . S
H709 C719 0.930 . S
C710 H704 0.930 . S
C710 C711 1.355 . S
C710 C712 1.415 . S
C711 C710 1.355 . S
C711 C713 1.419 . S
C712 C710 1.415 . S
C712 C717 1.425 . S
C712 C719 1.409 . S
C713 H705 0.930 . S
C713 C711 1.419 . S
C713 C714 1.362 . S
C714 H706 0.930 . S
C714 C713 1.362 . S
C714 C717 1.409 . S
C715 H707 0.930 . S
C715 C716 1.355 . S
C715 C717 1.415 . S
C716 C715 1.355 . S
C716 C718 1.419 . S
C717 C712 1.425 . S
C717 C714 1.409 . S
C717 C715 1.415 . S
C718 H708 0.930 . S
C718 C716 1.419 . S
C718 C719 1.362 . S
C719 H709 0.930 . S
C719 C712 1.409 . S
C719 C718 1.362 . S
H720 C726 0.930 . S
H721 C729 0.930 . S
H722 C730 0.930 . S
H723 C731 0.930 . S
H724 C734 0.930 . S
H725 C735 0.930 . S
C726 H720 0.930 . S
C726 C727 1.355 . S
C726 C728 1.415 . S
C727 C726 1.355 . S
C727 C729 1.419 . S
C728 C726 1.415 . S
C728 C733 1.425 . S
C728 C735 1.409 . S
C729 H721 0.930 . S
C729 C727 1.419 . S
C729 C730 1.362 . S
C730 H722 0.930 . S
C730 C729 1.362 . S
C730 C733 1.409 . S
C731 H723 0.930 . S
C731 C732 1.355 . S
C731 C733 1.415 . S
C732 C731 1.355 . S
C732 C734 1.419 . S
C733 C728 1.425 . S
C733 C730 1.409 . S
C733 C731 1.415 . S
C734 H724 0.930 . S
C734 C732 1.419 . S
C734 C735 1.362 . S
C735 H725 0.930 . S
C735 C728 1.409 . S
C735 C734 1.362 . S
H736 C742 0.930 . S
H737 C745 0.930 . S
H738 C746 0.930 1_545 S
H739 C747 0.930 . S
H740 C750 0.930 . S
H741 C751 0.930 1_565 S
C742 H736 0.930 . S
C742 C743 1.355 1_455 S
C742 C744 1.415 . S
C743 C742 1.355 1_655 S
C743 C745 1.419 . S
C744 C742 1.415 . S
C744 C749 1.425 1_465 S
C744 C751 1.409 1_565 S
C745 H737 0.930 . S
C745 C743 1.419 . S
C745 C746 1.362 . S
C746 H738 0.930 1_565 S
C746 C745 1.362 . S
C746 C749 1.409 1_565 S
C747 H739 0.930 . S
C747 C748 1.355 1_655 S
C747 C749 1.415 . S
C748 C747 1.355 1_455 S
C748 C750 1.419 . S
C749 C744 1.425 1_645 S
C749 C746 1.409 1_545 S
C749 C747 1.415 . S
C750 H740 0.930 . S
C750 C748 1.419 . S
C750 C751 1.362 . S
C751 H741 0.930 1_545 S
C751 C744 1.409 1_545 S
C751 C750 1.362 . S
H752 C758 0.930 . S
H753 C761 0.930 1_565 S
H754 C762 0.930 . S
H755 C763 0.930 . S
H756 C766 0.930 . S
H757 C767 0.930 . S
C758 H752 0.930 . S
C758 C759 1.355 . S
C758 C760 1.415 . S
C759 C758 1.355 . S
C759 C761 1.419 . S
C760 C758 1.415 . S
C760 C765 1.425 . S
C760 C767 1.409 . S
C761 H753 0.930 1_545 S
C761 C759 1.419 . S
C761 C762 1.362 . S
C762 H754 0.930 . S
C762 C761 1.362 . S
C762 C765 1.409 . S
C763 H755 0.930 . S
C763 C764 1.355 . S
C763 C765 1.415 . S
C764 C763 1.355 . S
C764 C766 1.419 . S
C765 C760 1.425 . S
C765 C762 1.409 . S
C765 C763 1.415 . S
C766 H756 0.930 . S
C766 C764 1.419 . S
C766 C767 1.362 . S
C767 H757 0.930 . S
C767 C760 1.409 . S
C767 C766 1.362 . S
H768 C774 0.930 . S
H769 C777 0.930 . S
H770 C778 0.930 . S
H771 C779 0.930 . S
H772 C782 0.930 . S
H773 C783 0.930 . S
C774 H768 0.930 . S
C774 C775 1.355 . S
C774 C776 1.415 . S
C775 C774 1.355 . S
C775 C777 1.419 . S
C776 C774 1.415 . S
C776 C781 1.425 . S
C776 C783 1.409 . S
C777 H769 0.930 . S
C777 C775 1.419 . S
C777 C778 1.362 . S
C778 H770 0.930 . S
C778 C777 1.362 . S
C778 C781 1.409 . S
C779 H771 0.930 . S
C779 C780 1.355 . S
C779 C781 1.415 . S
C780 C779 1.355 . S
C780 C782 1.419 . S
C781 C776 1.425 . S
C781 C778 1.409 . S
C781 C779 1.415 . S
C782 H772 0.930 . S
C782 C780 1.419 . S
C782 C783 1.362 . S
C783 H773 0.930 . S
C783 C776 1.409 . S
C783 C782 1.362 . S
H784 C790 0.930 . S
H785 C793 0.930 . S
H786 C794 0.930 . S
H787 C795 0.930 . S
H788 C798 0.930 . S
H789 C799 0.930 . S
C790 H784 0.930 . S
C790 C791 1.355 . S
C790 C792 1.415 . S
C791 C790 1.355 . S
C791 C793 1.419 . S
C792 C790 1.415 . S
C792 C797 1.425 . S
C792 C799 1.409 . S
C793 H785 0.930 . S
C793 C791 1.419 . S
C793 C794 1.362 . S
C794 H786 0.930 . S
C794 C793 1.362 . S
C794 C797 1.409 . S
C795 H787 0.930 . S
C795 C796 1.355 . S
C795 C797 1.415 . S
C796 C795 1.355 . S
C796 C798 1.419 . S
C797 C792 1.425 . S
C797 C794 1.409 . S
C797 C795 1.415 . S
C798 H788 0.930 . S
C798 C796 1.419 . S
C798 C799 1.362 . S
C799 H789 0.930 . S
C799 C792 1.409 . S
C799 C798 1.362 . S
H800 C806 0.930 . S
H801 C809 0.930 . S
H802 C810 0.930 . S
H803 C811 0.930 . S
H804 C814 0.930 . S
H805 C815 0.930 . S
C806 H800 0.930 . S
C806 C807 1.355 1_556 S
C806 C808 1.415 . S
C807 C806 1.355 1_554 S
C807 C809 1.419 . S
C808 C806 1.415 . S
C808 C813 1.425 1_566 S
C808 C815 1.409 1_565 S
C809 H801 0.930 . S
C809 C807 1.419 . S
C809 C810 1.362 . S
C810 H802 0.930 . S
C810 C809 1.362 . S
C810 C813 1.409 1_565 S
C811 H803 0.930 . S
C811 C812 1.355 1_554 S
C811 C813 1.415 . S
C812 C811 1.355 1_556 S
C812 C814 1.419 . S
C813 C808 1.425 1_544 S
C813 C810 1.409 1_545 S
C813 C811 1.415 . S
C814 H804 0.930 . S
C814 C812 1.419 . S
C814 C815 1.362 . S
C815 H805 0.930 . S
C815 C808 1.409 1_545 S
C815 C814 1.362 . S
H816 C822 0.930 . S
H817 C825 0.930 . S
H818 C826 0.930 . S
H819 C827 0.930 . S
H820 C830 0.930 . S
H821 C831 0.930 . S
C822 H816 0.930 . S
C822 C823 1.355 1_554 S
C822 C824 1.415 . S
C823 C822 1.355 1_556 S
C823 C825 1.419 . S
C824 C822 1.415 . S
C824 C829 1.425 1_554 S
C824 C831 1.409 . S
C825 H817 0.930 . S
C825 C823 1.419 . S
C825 C826 1.362 . S
C826 H818 0.930 . S
C826 C825 1.362 . S
C826 C829 1.409 . S
C827 H819 0.930 . S
C827 C828 1.355 1_556 S
C827 C829 1.415 . S
C828 C827 1.355 1_554 S
C828 C830 1.419 . S
C829 C824 1.425 1_556 S
C829 C826 1.409 . S
C829 C827 1.415 . S
C830 H820 0.930 . S
C830 C828 1.419 . S
C830 C831 1.362 . S
C831 H821 0.930 . S
C831 C824 1.409 . S
C831 C830 1.362 . S
H832 C838 0.929 . S
H833 C841 0.930 . S
H834 C842 0.930 . S
H835 C843 0.929 1_554 S
H836 C846 0.930 . S
H837 C847 0.930 . S
C838 H832 0.929 . S
C838 C839 1.353 1_556 S
C838 C840 1.414 . S
C839 C838 1.353 1_554 S
C839 C841 1.421 . S
C840 C838 1.414 . S
C840 C845 1.423 1_556 S
C840 C847 1.413 . S
C841 H833 0.930 . S
C841 C839 1.421 . S
C841 C842 1.362 . S
C842 H834 0.930 . S
C842 C841 1.362 . S
C842 C845 1.410 . S
C843 H835 0.929 1_556 S
C843 C844 1.353 . S
C843 C845 1.414 1_556 S
C844 C843 1.353 . S
C844 C846 1.423 . S
C845 C840 1.423 1_554 S
C845 C842 1.410 . S
C845 C843 1.414 1_554 S
C846 H836 0.930 . S
C846 C844 1.423 . S
C846 C847 1.362 . S
C847 H837 0.930 . S
C847 C840 1.413 . S
C847 C846 1.362 . S
H848 C854 0.930 . S
H849 C857 0.930 . S
H850 C858 0.930 . S
H851 C859 0.930 . S
H852 C862 0.930 . S
H853 C863 0.930 . S
C854 H848 0.930 . S
C854 C855 1.355 . S
C854 C856 1.415 1_455 S
C855 C854 1.355 . S
C855 C857 1.419 . S
C856 C854 1.415 1_655 S
C856 C861 1.425 1_655 S
C856 C863 1.409 . S
C857 H849 0.930 . S
C857 C855 1.419 . S
C857 C858 1.362 . S
C858 H850 0.930 . S
C858 C857 1.362 . S
C858 C861 1.409 . S
C859 H851 0.930 . S
C859 C860 1.355 . S
C859 C861 1.415 1_655 S
C860 C859 1.355 . S
C860 C862 1.419 . S
C861 C856 1.425 1_455 S
C861 C858 1.409 . S
C861 C859 1.415 1_455 S
C862 H852 0.930 . S
C862 C860 1.419 . S
C862 C863 1.362 . S
C863 H853 0.930 . S
C863 C856 1.409 . S
C863 C862 1.362 . S
H864 C870 0.930 . S
H865 C873 0.930 . S
H866 C874 0.930 . S
H867 C875 0.930 . S
H868 C878 0.930 . S
H869 C879 0.930 . S
C870 H864 0.930 . S
C870 C871 1.355 . S
C870 C872 1.415 . S
C871 C870 1.355 . S
C871 C873 1.419 . S
C872 C870 1.415 . S
C872 C877 1.425 . S
C872 C879 1.409 . S
C873 H865 0.930 . S
C873 C871 1.419 . S
C873 C874 1.362 . S
C874 H866 0.930 . S
C874 C873 1.362 . S
C874 C877 1.409 . S
C875 H867 0.930 . S
C875 C876 1.355 . S
C875 C877 1.415 . S
C876 C875 1.355 . S
C876 C878 1.419 . S
C877 C872 1.425 . S
C877 C874 1.409 . S
C877 C875 1.415 . S
C878 H868 0.930 . S
C878 C876 1.419 . S
C878 C879 1.362 . S
C879 H869 0.930 . S
C879 C872 1.409 . S
C879 C878 1.362 . S
H880 C886 0.930 . S
H881 C889 0.930 . S
H882 C890 0.930 . S
H883 C891 0.930 . S
H884 C894 0.930 . S
H885 C895 0.930 . S
C886 H880 0.930 . S
C886 C887 1.355 . S
C886 C888 1.415 . S
C887 C886 1.355 . S
C887 C889 1.419 . S
C888 C886 1.415 . S
C888 C893 1.425 . S
C888 C895 1.409 . S
C889 H881 0.930 . S
C889 C887 1.419 . S
C889 C890 1.362 . S
C890 H882 0.930 . S
C890 C889 1.362 . S
C890 C893 1.409 . S
C891 H883 0.930 . S
C891 C892 1.355 . S
C891 C893 1.415 . S
C892 C891 1.355 . S
C892 C894 1.419 . S
C893 C888 1.425 . S
C893 C890 1.409 . S
C893 C891 1.415 . S
C894 H884 0.930 . S
C894 C892 1.419 . S
C894 C895 1.362 . S
C895 H885 0.930 . S
C895 C888 1.409 . S
C895 C894 1.362 . S
H896 C902 0.930 1_565 S
H897 C905 0.930 . S
H898 C906 0.930 . S
H899 C907 0.930 1_545 S
H900 C910 0.930 . S
H901 C911 0.930 . S
C902 H896 0.930 1_545 S
C902 C903 1.355 . S
C902 C904 1.415 1_545 S
C903 C902 1.355 . S
C903 C905 1.419 . S
C904 C902 1.415 1_565 S
C904 C909 1.425 1_665 S
C904 C911 1.409 . S
C905 H897 0.930 . S
C905 C903 1.419 . S
C905 C906 1.362 1_655 S
C906 H898 0.930 . S
C906 C905 1.362 1_455 S
C906 C909 1.409 . S
C907 H899 0.930 1_565 S
C907 C908 1.355 . S
C907 C909 1.415 1_565 S
C908 C907 1.355 . S
C908 C910 1.419 . S
C909 C904 1.425 1_445 S
C909 C906 1.409 . S
C909 C907 1.415 1_545 S
C910 H900 0.930 . S
C910 C908 1.419 . S
C910 C911 1.362 1_455 S
C911 H901 0.930 . S
C911 C904 1.409 . S
C911 C910 1.362 1_655 S
H912 C918 0.930 . S
H913 C921 0.930 . S
H914 C922 0.930 . S
H915 C923 0.930 . S
H916 C926 0.930 . S
H917 C927 0.930 . S
C918 H912 0.930 . S
C918 C919 1.355 . S
C918 C920 1.415 . S
C919 C918 1.355 . S
C919 C921 1.419 . S
C920 C918 1.415 . S
C920 C925 1.425 . S
C920 C927 1.409 . S
C921 H913 0.930 . S
C921 C919 1.419 . S
C921 C922 1.362 . S
C922 H914 0.930 . S
C922 C921 1.362 . S
C922 C925 1.409 . S
C923 H915 0.930 . S
C923 C924 1.355 . S
C923 C925 1.415 . S
C924 C923 1.355 . S
C924 C926 1.419 . S
C925 C920 1.425 . S
C925 C922 1.409 . S
C925 C923 1.415 . S
C926 H916 0.930 . S
C926 C924 1.419 . S
C926 C927 1.362 . S
C927 H917 0.930 . S
C927 C920 1.409 . S
C927 C926 1.362 . S
H928 C934 0.930 . S
H929 C937 0.930 1_545 S
H930 C938 0.930 . S
H931 C939 0.930 . S
H932 C942 0.930 1_565 S
H933 C943 0.930 . S
C934 H928 0.930 . S
C934 C935 1.355 . S
C934 C936 1.415 . S
C935 C934 1.355 . S
C935 C937 1.419 . S
C936 C934 1.415 . S
C936 C941 1.425 1_565 S
C936 C943 1.409 . S
C937 H929 0.930 1_565 S
C937 C935 1.419 . S
C937 C938 1.362 1_565 S
C938 H930 0.930 . S
C938 C937 1.362 1_545 S
C938 C941 1.409 . S
C939 H931 0.930 . S
C939 C940 1.355 . S
C939 C941 1.415 . S
C940 C939 1.355 . S
C940 C942 1.419 . S
C941 C936 1.425 1_545 S
C941 C938 1.409 . S
C941 C939 1.415 . S
C942 H932 0.930 1_545 S
C942 C940 1.419 . S
C942 C943 1.362 1_545 S
C943 H933 0.930 . S
C943 C936 1.409 . S
C943 C942 1.362 1_565 S
C439 C32 1.996 . S
C444 C76 1.997 . S
C455 C13 1.930 . S
C460 C130 1.936 . S
C471 C167 1.937 . S
C476 C67 1.929 . S
C487 C121 1.938 . S
C492 C184 1.946 . S
C503 C194 1.931 . S
C508 C221 1.937 . S
C519 C292 1.999 . S
C524 C175 1.996 . S
C535 C248 1.968 . S
C540 C5 1.977 1_565 S
C551 C283 1.974 . S
C556 C22 1.983 1_545 S
C567 C275 1.997 . S
C572 C356 1.992 . S
C583 C337 1.980 . S
C588 C238 1.985 . S
C599 C383 1.940 . S
C604 C302 1.936 . S
C615 C400 1.999 . S
C620 C229 1.996 . S
C631 C410 1.936 . S
C636 C113 1.941 . S
C647 C59 1.951 . S
C652 C391 1.944 . S
C663 C329 1.936 1_565 S
C668 C140 1.930 . S
C679 C346 1.967 1_545 S
C684 C86 1.962 . S
C695 C27 0.617 . S
C700 C10 0.617 1_556 S
C711 C81 0.619 . S
C716 C64 0.619 1_565 S
C727 C118 0.618 1_545 S
C732 C135 0.618 . S
C743 C172 0.619 . S
C748 C189 0.618 . S
C759 C226 0.613 1_545 S
C764 C243 0.613 . S
C775 C280 0.618 . S
C780 C297 0.619 1_565 S
C791 C351 0.615 . S
C796 C334 0.616 . S
C807 C388 0.616 . S
C812 C405 0.613 1_556 S
C823 C413 0.985 . S
C828 C28 0.981 1_554 S
C839 C35 0.936 1_554 S
C844 C406 0.939 . S
C855 C89 0.934 . S
C860 C143 0.934 . S
C871 C359 0.965 . S
C876 C190 0.960 . S
C887 C197 0.957 . S
C892 C352 0.957 . S
C903 C305 1.006 . S
C908 C244 1.004 . S
C919 C298 1.007 . S
C924 C251 1.006 . S
C935 C136 0.938 . S
C940 C82 0.940 . S
