# Generated by pormake.
# Topology wni, (7)-cn, num edge types: 1
# Building blocks:
#     Node 0, Type 0, BuildingBlock: HICVOG_clean_sbu_0, # of connection points: 7
#     Node 1, Type 0, BuildingBlock: HICVOG_clean_sbu_0, # of connection points: 7
#     Node 2, Type 0, BuildingBlock: HICVOG_clean_sbu_0, # of connection points: 7
#     Node 3, Type 0, BuildingBlock: HICVOG_clean_sbu_0, # of connection points: 7
#     Node 4, Type 0, BuildingBlock: HICVOG_clean_sbu_0, # of connection points: 7
#     Node 5, Type 0, BuildingBlock: HICVOG_clean_sbu_0, # of connection points: 7
#     Edge 6, Type (0, 0), BuildingBlock: TEMPAE_clean_linker_10, # of connection points: 2
#     Edge 7, Type (0, 0), BuildingBlock: TEMPAE_clean_linker_10, # of connection points: 2
#     Edge 8, Type (0, 0), BuildingBlock: TEMPAE_clean_linker_10, # of connection points: 2
#     Edge 9, Type (0, 0), BuildingBlock: TEMPAE_clean_linker_10, # of connection points: 2
#     Edge 10, Type (0, 0), BuildingBlock: TEMPAE_clean_linker_10, # of connection points: 2
#     Edge 11, Type (0, 0), BuildingBlock: TEMPAE_clean_linker_10, # of connection points: 2
#     Edge 12, Type (0, 0), BuildingBlock: TEMPAE_clean_linker_10, # of connection points: 2
#     Edge 13, Type (0, 0), BuildingBlock: TEMPAE_clean_linker_10, # of connection points: 2
#     Edge 14, Type (0, 0), BuildingBlock: TEMPAE_clean_linker_10, # of connection points: 2
#     Edge 15, Type (0, 0), BuildingBlock: TEMPAE_clean_linker_10, # of connection points: 2
#     Edge 16, Type (0, 0), BuildingBlock: TEMPAE_clean_linker_10, # of connection points: 2
#     Edge 17, Type (0, 0), BuildingBlock: TEMPAE_clean_linker_10, # of connection points: 2
#     Edge 18, Type (0, 0), BuildingBlock: TEMPAE_clean_linker_10, # of connection points: 2
#     Edge 19, Type (0, 0), BuildingBlock: TEMPAE_clean_linker_10, # of connection points: 2
#     Edge 20, Type (0, 0), BuildingBlock: TEMPAE_clean_linker_10, # of connection points: 2
#     Edge 21, Type (0, 0), BuildingBlock: TEMPAE_clean_linker_10, # of connection points: 2
#     Edge 22, Type (0, 0), BuildingBlock: TEMPAE_clean_linker_10, # of connection points: 2
#     Edge 23, Type (0, 0), BuildingBlock: TEMPAE_clean_linker_10, # of connection points: 2
#     Edge 24, Type (0, 0), BuildingBlock: TEMPAE_clean_linker_10, # of connection points: 2
#     Edge 25, Type (0, 0), BuildingBlock: TEMPAE_clean_linker_10, # of connection points: 2
#     Edge 26, Type (0, 0), BuildingBlock: TEMPAE_clean_linker_10, # of connection points: 2
# Relax obj value: 0.264
# Max RMSD: 0.178
# Mean RMSD: 0.178
data_MOF--net-wni--node1-HICVOG_clean_sbu_0--edge1-TEMPAE_clean_linker_10
_symmetry_space_group_name_H-M    P1
_symmetry_Int_Tables_number       1
_symmetry_cell_setting            triclinic
loop_
_symmetry_equiv_pos_as_xyz
'x, y, z'
_cell_length_a     27.24123
_cell_length_b     27.373951
_cell_length_c     32.51248
_cell_angle_alpha  89.805401
_cell_angle_beta   89.982086
_cell_angle_gamma 119.8609
loop_
_atom_site_label
_atom_site_type_symbol
_atom_site_fract_x
_atom_site_fract_y
_atom_site_fract_z
_atom_type_partial_charge
Zn0 Zn 0.10459 0.47035 0.15521 0.0
C1 C 1.06257 0.46648 1.03422 0.0
N2 N 1.02239 0.47695 0.04961 0.0
C3 C 1.02928 0.47853 0.09076 0.0
N4 N 1.0736 0.47007 0.10038 0.0
N5 N 0.09465 0.46262 0.06547 0.0
C6 C 0.17185 0.35574 0.07288 0.0
O7 O 0.16561 0.36099 0.11238 0.0
O8 O 0.08503 0.51924 0.18801 0.0
Zn9 Zn 0.16992 0.46402 0.06327 0.0
N10 N 1.06579 0.39393 0.17449 0.0
C11 C 0.99614 0.29705 0.16859 0.0
C12 C 1.02183 0.35216 0.15351 0.0
C13 C 0.08583 0.38287 0.20925 0.0
N14 N 1.01545 0.2861 0.204 0.0
C15 C 1.06027 0.32765 0.22453 0.0
O16 O 0.23127 0.49568 0.11116 0.0
C17 C 0.23574 0.50915 0.14919 0.0
O18 O 0.19201 0.50364 0.16801 0.0
H19 H 1.00678 0.36149 0.12545 0.0
H20 H 0.12039 0.41739 0.22538 0.0
C21 C 0.23017 0.49496 0.99035 0.0
C22 C 0.24869 0.52237 0.95251 0.0
C23 C 0.22141 0.58855 0.9733 0.0
C24 C 0.2014 0.55974 1.0105 0.0
N25 N 0.20582 0.51318 1.01783 0.0
N26 N 0.24459 0.56926 0.94518 0.0
H27 H 0.23483 0.45922 0.99827 0.0
C28 C 0.10313 0.56512 0.16818 0.0
O29 O 0.13226 0.57249 0.13421 0.0
O30 O 0.16772 0.38934 0.04759 0.0
H31 H 0.18108 0.57321 1.03274 0.0
H32 H 0.9608 0.26335 0.15251 0.0
H33 H 0.21801 0.62548 0.9666 0.0
Zn34 Zn 0.64658 0.73378 0.7236 0.0
C35 C 0.65469 0.59144 0.75425 0.0
N36 N 0.65778 0.58605 0.7133 0.0
C37 C 0.6634 0.63429 0.69696 0.0
N38 N 0.66257 0.66876 0.72745 0.0
N39 N 0.65795 0.64197 0.76291 0.0
C40 C 0.5609 0.57192 0.83036 0.0
O41 O 0.55422 0.59085 0.79488 0.0
O42 O 0.7089 0.80805 0.69724 0.0
Zn43 Zn 0.65885 0.67079 0.81855 0.0
N44 N 0.5767 0.7002 0.69323 0.0
C45 C 0.47825 0.6326 0.69311 0.0
C46 C 0.52982 0.66138 0.71372 0.0
C47 C 0.57422 0.71143 0.65292 0.0
N48 N 0.47552 0.64416 0.65282 0.0
C49 C 0.5224 0.68243 0.63195 0.0
O50 O 0.63341 0.73034 0.83351 0.0
C51 C 0.62386 0.76566 0.81438 0.0
O52 O 0.62809 0.76844 0.77521 0.0
H53 H 0.53264 0.65294 0.74585 0.0
H54 H 0.61185 0.74378 0.63781 0.0
C55 C 0.74821 0.69739 0.87558 0.0
C56 C 0.80471 0.71727 0.88732 0.0
C57 C 0.83357 0.74233 0.81798 0.0
C58 C 0.77749 0.72244 0.80656 0.0
N59 N 0.73603 0.7004 0.83562 0.0
N60 N 0.84596 0.73963 0.85806 0.0
H61 H 0.71405 0.68079 0.89778 0.0
C62 C 0.74956 0.84108 0.72071 0.0
O63 O 0.75395 0.82213 0.75691 0.0
O64 O 0.60578 0.60192 0.85082 0.0
H65 H 0.76709 0.72448 0.77475 0.0
H66 H 0.44058 0.60177 0.70912 0.0
H67 H 0.86705 0.7601 0.79524 0.0
Zn68 Zn 0.48841 1.01317 0.48685 0.0
C69 C 0.51159 0.06739 0.36632 0.0
N70 N 0.56175 0.10764 0.38179 0.0
C71 C 0.56023 0.09664 0.4223 0.0
N72 N 0.50918 0.05006 0.43201 0.0
N73 N 0.47849 1.03113 0.3975 0.0
C74 C 0.29503 0.95677 0.39773 0.0
O75 O 0.3066 0.96867 0.43686 0.0
O76 O 0.55415 1.00374 0.50388 0.0
Zn77 Zn 0.4043 0.95495 0.39677 0.0
N78 N 0.47174 0.05963 0.52223 0.0
C79 C 0.46355 0.14084 0.53509 0.0
C80 C 0.47839 0.10985 0.5091 0.0
C81 C 0.44838 1.03792 0.55944 0.0
N82 N 0.44079 0.11941 0.57252 0.0
C83 C 0.43198 0.06819 0.58515 0.0
O84 O 0.36846 0.89675 0.44641 0.0
C85 C 0.37875 0.89115 0.48391 0.0
O86 O 0.42245 0.93142 0.50051 0.0
H87 H 0.49544 0.12592 0.47888 0.0
H88 H 0.44271 0.99743 0.56879 0.0
C89 C 0.3735 0.87728 0.33654 0.0
C90 C 0.37938 0.85283 0.30086 0.0
C91 C 0.47685 0.89051 0.31547 0.0
C92 C 0.47143 0.91884 0.34936 0.0
N93 N 0.41967 0.91196 0.3585 0.0
N94 N 0.43088 0.85896 0.29141 0.0
H95 H 0.3329 0.87167 0.34575 0.0
C96 C 0.57516 0.98739 0.47568 0.0
O97 O 0.5699 0.99835 0.43719 0.0
O98 O 0.33251 0.95586 0.37449 0.0
H99 H 0.50807 0.94712 0.36726 0.0
H100 H 0.46955 0.18132 0.52546 0.0
H101 H 0.51758 0.89536 0.30743 0.0
Zn102 Zn 0.51098 0.16715 1.01752 0.0
C103 C 0.53518 1.03352 0.98814 0.0
N104 N 0.53462 1.02609 1.02933 0.0
C105 C 0.5218 0.06412 0.04547 0.0
N106 N 0.51581 0.09538 1.01463 0.0
N107 N 0.52419 0.0761 0.97921 0.0
C108 C 0.58925 0.0822 0.87884 0.0
O109 O 0.62367 0.10676 0.90989 0.0
O110 O 0.43229 0.15925 1.03137 0.0
Zn111 Zn 0.51089 0.10212 0.92628 0.0
N112 N 0.55783 0.20312 0.06381 0.0
C113 C 0.63709 0.22405 0.10596 0.0
C114 C 0.60802 0.20452 0.06894 0.0
C115 C 0.53587 0.22097 0.09351 0.0
N116 N 0.61452 0.24109 0.13613 0.0
C117 C 0.56404 0.23938 0.13105 0.0
O118 O 0.54524 0.18905 0.91212 0.0
C119 C 0.55357 0.23314 0.93154 0.0
O120 O 0.54288 0.22923 0.97015 0.0
H121 H 0.62436 0.18917 0.04497 0.0
H122 H 0.49666 0.2205 0.08764 0.0
C123 C 0.41222 1.04194 0.88129 0.0
C124 C 0.35442 1.00812 0.87337 0.0
C125 C 0.33425 1.02123 0.94192 0.0
C126 C 0.39233 0.05307 0.9501 0.0
N127 N 0.43003 0.06342 0.91926 0.0
N128 N 0.31643 0.99939 0.90368 0.0
H129 H 0.4431 0.05109 0.85727 0.0
C130 C 0.40492 0.17119 1.00498 0.0
O131 O 0.42166 0.17901 0.96644 0.0
O132 O 0.53925 0.07382 0.88092 0.0
H133 H 0.40714 0.06885 0.98067 0.0
H134 H 0.67694 0.22523 0.11084 0.0
H135 H 0.30365 1.01332 0.96594 0.0
Zn136 Zn 0.98097 0.37303 0.68138 0.0
C137 C 0.12204 0.52933 0.65989 0.0
N138 N 0.12868 0.53236 0.70102 0.0
C139 C 0.08788 0.48143 0.71548 0.0
N140 N 1.0556 0.44758 0.68356 0.0
N141 N 0.0778 0.47776 0.6493 0.0
C142 C 1.04459 0.54509 0.5865 0.0
O143 O 1.01218 0.5155 0.61742 0.0
O144 O 0.97634 0.30118 0.70647 0.0
Zn145 Zn 1.05353 0.45347 0.59237 0.0
N146 N 0.92553 0.38549 0.7074 0.0
C147 C 0.88197 0.43904 0.72538 0.0
C148 C 0.9307 0.43627 0.71633 0.0
C149 C 0.87448 0.33803 0.70654 0.0
N150 N 0.8304 0.39137 0.72353 0.0
C151 C 0.82524 0.34074 0.71337 0.0
O152 O 0.96972 0.39636 0.57404 0.0
C153 C 0.92985 0.35133 0.5899 0.0
O154 O 0.93444 0.33939 0.62706 0.0
H155 H 0.97164 0.47418 0.71499 0.0
H156 H 0.87296 0.29881 0.69921 0.0
C157 C 0.10089 0.41455 0.53191 0.0
C158 C 0.13455 0.39277 0.51708 0.0
C159 C 0.1688 0.39587 0.5846 0.0
C160 C 0.13539 0.41756 0.5991 0.0
N161 N 0.10224 0.42657 0.57239 0.0
N162 N 0.16746 0.38373 0.54404 0.0
H163 H 1.07254 0.42057 0.51196 0.0
C164 C 0.97784 0.26656 0.68086 0.0
O165 O 0.99592 0.28453 0.64334 0.0
O166 O 1.06896 0.52463 0.56501 0.0
H167 H 0.13559 0.42662 0.63143 0.0
H168 H 0.88494 0.47893 0.73277 0.0
H169 H 0.19526 0.38831 0.60546 0.0
Zn170 Zn 0.6816 0.62611 0.2571 0.0
C171 C 0.65172 0.64411 0.37757 0.0
N172 N 0.60074 0.6332 0.36246 0.0
C173 C 0.60445 0.62833 0.32148 0.0
N174 N 0.65656 0.63518 0.31175 0.0
N175 N 0.68661 0.64544 0.34627 0.0
C176 C 0.87337 0.7482 0.33284 0.0
O177 O 0.8605 0.73355 0.2942 0.0
O178 O 0.60969 0.56979 0.23047 0.0
Zn179 Zn 0.76174 0.64544 0.34807 0.0
N180 N 0.71589 0.69881 0.23151 0.0
C181 C 0.74329 0.79601 0.23004 0.0
C182 C 0.71431 0.74315 0.24885 0.0
C183 C 0.74649 0.70536 0.19707 0.0
N184 N 0.77316 0.80238 0.19501 0.0
C185 C 0.77618 0.7584 0.17835 0.0
O186 O 0.78932 0.61092 0.30094 0.0
C187 C 0.77767 0.59286 0.26399 0.0
O188 O 0.73678 0.59409 0.2457 0.0
H189 H 0.6911 0.7377 0.27706 0.0
H190 H 0.74675 0.66909 0.18415 0.0
C191 C 0.79398 0.61669 0.42146 0.0
C192 C 0.78601 0.588 0.45865 0.0
C193 C 0.69232 0.52177 0.43836 0.0
C194 C 0.70026 0.55134 0.40168 0.0
N195 N 0.75085 0.59843 0.39437 0.0
N196 N 0.7353 0.54072 0.46597 0.0
H197 H 0.83396 0.65335 0.4138 0.0
C198 C 0.58466 0.52778 0.25467 0.0
O199 O 0.6102 0.52707 0.28878 0.0
O200 O 0.83552 0.7218 0.3604 0.0
H201 H 0.66619 0.53777 0.37967 0.0
H202 H 0.74202 0.83165 0.24311 0.0
H203 H 0.65229 0.48439 0.44501 0.0
C204 C 0.55478 0.63961 0.25659 0.0
C205 C 0.55295 0.61057 0.29304 0.0
C206 C 0.50515 0.62489 0.23255 0.0
C207 C 0.45112 0.57865 0.24389 0.0
C208 C 0.44957 0.54844 0.28013 0.0
C209 C 0.49929 0.56529 0.30428 0.0
C210 C 0.51045 0.65999 0.19523 0.0
C211 C 0.39497 0.49758 0.29356 0.0
C212 C 0.30721 0.56457 0.20703 0.0
C213 C 0.29188 0.5287 0.17252 0.0
C214 C 0.35873 0.58221 0.22926 0.0
C215 C 0.39656 0.56228 0.21856 0.0
C216 C 0.38082 0.52534 0.18408 0.0
C217 C 0.33009 0.5101 0.16143 0.0
C218 C 0.37271 0.6227 0.26448 0.0
C219 C 0.41684 0.50015 0.17174 0.0
H220 H 0.59485 0.67507 0.24726 0.0
H221 H 0.49626 0.54201 0.3321 0.0
H222 H 0.49693 0.63322 0.16736 0.0
H223 H 0.48197 0.67788 0.19853 0.0
H224 H 0.55444 0.69504 0.19049 0.0
H225 H 0.40084 0.47601 0.32054 0.0
H226 H 0.36341 0.51033 0.30164 0.0
H227 H 0.37705 0.46704 0.26789 0.0
H228 H 0.27901 0.5797 0.21651 0.0
H229 H 0.31942 0.48184 0.1355 0.0
H230 H 0.41614 0.65906 0.26066 0.0
H231 H 0.37181 0.60148 0.29381 0.0
H232 H 0.34252 0.63874 0.26686 0.0
H233 H 0.46124 0.53381 0.1665 0.0
H234 H 0.40103 0.47423 0.14347 0.0
H235 H 0.41731 0.47315 0.19711 0.0
C236 C 0.58213 0.79087 0.87682 0.0
C237 C 0.6089 0.80528 0.83796 0.0
C238 C 0.56795 0.82733 0.89886 0.0
C239 C 0.58225 0.88158 0.88308 0.0
C240 C 0.60984 0.89658 0.84401 0.0
C241 C 0.6217 0.85845 0.82195 0.0
C242 C 0.5371 0.80738 0.93933 0.0
C243 C 0.62807 0.9538 0.82564 0.0
C244 C 0.51012 0.96402 0.92743 0.0
C245 C 0.54814 0.9982 0.9582 0.0
C246 C 0.52049 0.92669 0.90284 0.0
C247 C 0.57066 0.92297 0.90817 0.0
C248 C 0.60951 0.95845 0.93867 0.0
C249 C 0.59739 0.99411 0.96341 0.0
C250 C 0.47694 0.89044 0.87143 0.0
C251 C 0.66446 0.9588 0.94538 0.0
H252 H 0.57127 0.75026 0.88994 0.0
H253 H 0.64258 0.87113 0.7923 0.0
H254 H 0.56434 0.83434 0.96461 0.0
H255 H 0.49838 0.81119 0.93895 0.0
H256 H 0.52479 0.76295 0.94622 0.0
H257 H 0.65218 0.96111 0.79654 0.0
H258 H 0.59042 0.9581 0.8193 0.0
H259 H 0.65486 0.98725 0.84785 0.0
H260 H 0.4714 0.96545 0.92318 0.0
H261 H 0.62712 1.01944 0.9871 0.0
H262 H 0.46607 0.84582 0.87506 0.0
H263 H 0.49457 0.90418 0.84007 0.0
H264 H 0.43758 0.89296 0.87393 0.0
H265 H 0.69222 0.99128 0.96791 0.0
H266 H 0.68768 0.96684 0.91582 0.0
H267 H 0.65574 0.91699 0.95676 0.0
C268 C 0.35424 0.82772 0.54856 0.0
C269 C 0.33957 0.83724 0.50879 0.0
C270 C 0.31911 0.77774 0.57187 0.0
C271 C 0.26606 0.73491 0.55628 0.0
C272 C 0.25031 0.74495 0.51658 0.0
C273 C 0.28687 0.7948 0.49354 0.0
C274 C 0.33941 0.77081 0.6135 0.0
C275 C 0.19344 0.70372 0.49879 0.0
C276 C 0.19225 0.57998 0.59984 0.0
C277 C 0.15703 0.58027 0.63153 0.0
C278 C 0.22736 0.62902 0.57551 0.0
C279 C 0.22722 0.68072 0.58157 0.0
C280 C 0.1903 0.6804 0.61282 0.0
C281 C 0.15772 0.63163 0.63783 0.0
C282 C 0.26646 0.62564 0.54429 0.0
C283 C 0.18426 0.73163 0.61964 0.0
H284 H 0.39406 0.85938 0.56159 0.0
H285 H 0.27351 0.80085 0.46348 0.0
H286 H 0.3137 0.77547 0.63795 0.0
H287 H 0.33422 0.72809 0.61664 0.0
H288 H 0.38452 0.8026 0.61885 0.0
H289 H 0.18907 0.71371 0.46632 0.0
H290 H 0.18617 0.66012 0.50041 0.0
H291 H 0.15983 0.70489 0.5173 0.0
H292 H 0.19378 0.54169 0.59477 0.0
H293 H 0.13119 0.63328 0.66201 0.0
H294 H 0.30984 0.64593 0.55723 0.0
H295 H 0.26813 0.64831 0.51553 0.0
H296 H 0.25356 0.58132 0.53664 0.0
H297 H 0.22383 0.76611 0.63289 0.0
H298 H 0.14872 0.72278 0.6408 0.0
H299 H 0.17695 0.74698 0.58989 0.0
C300 C 0.67142 0.54768 0.82028 0.0
C301 C 0.64099 0.54227 0.78386 0.0
C302 C 0.65926 0.50021 0.84594 0.0
C303 C 0.61514 0.44474 0.83573 0.0
C304 C 0.58415 0.4395 0.79916 0.0
C305 C 0.59776 0.48732 0.77388 0.0
C306 C 0.69486 0.50937 0.88368 0.0
C307 C 0.53617 0.38281 0.78643 0.0
C308 C 0.61016 0.30664 0.8749 0.0
C309 C 0.57193 0.28887 0.90835 0.0
C310 C 0.62638 0.35779 0.85274 0.0
C311 C 0.60209 0.39218 0.86213 0.0
C312 C 0.56317 0.37421 0.89574 0.0
C313 C 0.54963 0.32418 0.91855 0.0
C314 C 0.66949 0.37457 0.81871 0.0
C315 C 0.53423 0.40711 0.907 0.0
H316 H 0.70572 0.58895 0.82839 0.0
H317 H 0.57368 0.48164 0.74601 0.0
H318 H 0.66747 0.49373 0.91138 0.0
H319 H 0.71715 0.48486 0.88101 0.0
H320 H 0.72673 0.55449 0.88824 0.0
H321 H 0.5139 0.38552 0.75865 0.0
H322 H 0.55268 0.35387 0.77993 0.0
H323 H 0.50505 0.36397 0.8119 0.0
H324 H 0.62833 0.2808 0.86629 0.0
H325 H 0.51967 0.31159 0.94377 0.0
H326 H 0.69797 0.42089 0.8176 0.0
H327 H 0.64725 0.3613 0.78875 0.0
H328 H 0.69586 0.35435 0.82251 0.0
H329 H 0.5661 0.45182 0.91275 0.0
H330 H 0.50693 0.38977 0.93469 0.0
H331 H 0.50765 0.40648 0.88091 0.0
C332 C 0.61316 0.13262 0.49276 0.0
C333 C 0.61345 0.13018 0.44944 0.0
C334 C 0.66268 0.1681 0.51629 0.0
C335 C 0.71667 0.20076 0.49688 0.0
C336 C 0.71783 0.19594 0.45327 0.0
C337 C 0.66707 0.16271 0.43059 0.0
C338 C 0.65548 0.17015 0.56216 0.0
C339 C 0.7728 0.22574 0.42963 0.0
C340 C 0.84959 0.33495 0.54023 0.0
C341 C 0.87586 0.31297 0.56572 0.0
C342 C 0.79758 0.2997 0.51938 0.0
C343 C 0.77127 0.23964 0.52143 0.0
C344 C 0.79868 0.21736 0.54648 0.0
C345 C 0.8488 0.25376 0.56898 0.0
C346 C 0.77115 0.32809 0.49557 0.0
C347 C 0.77574 0.15469 0.54955 0.0
H348 H 0.57422 0.10751 0.50892 0.0
H349 H 0.66996 0.16171 0.39739 0.0
H350 H 0.65016 0.13083 0.57629 0.0
H351 H 0.69168 0.20675 0.57703 0.0
H352 H 0.6163 0.17167 0.56899 0.0
H353 H 0.77108 0.20169 0.40168 0.0
H354 H 0.78 0.26745 0.4193 0.0
H355 H 0.80947 0.23212 0.44848 0.0
H356 H 0.86879 0.38032 0.53756 0.0
H357 H 0.8678 0.23551 0.58849 0.0
H358 H 0.72493 0.30034 0.49119 0.0
H359 H 0.79175 0.34102 0.46497 0.0
H360 H 0.77837 0.36698 0.51148 0.0
H361 H 0.80911 0.14487 0.55891 0.0
H362 H 0.75739 0.13343 0.5199 0.0
H363 H 0.74193 0.13674 0.57321 0.0
C364 C 0.98756 0.54101 0.10975 0.0
C365 C 0.99488 0.49474 0.11962 0.0
C366 C 0.95416 0.55678 0.13421 0.0
C367 C 0.92438 0.52475 0.16953 0.0
C368 C 0.93123 0.47757 0.17956 0.0
C369 C 0.96622 0.46353 0.15501 0.0
C370 C 0.95085 0.60827 0.12201 0.0
C371 C 0.90047 0.4409 0.21603 0.0
C372 C 0.87093 0.59151 0.2525 0.0
C373 C 0.81434 0.57322 0.241 0.0
C374 C 0.90656 0.57636 0.23002 0.0
C375 C 0.88583 0.54023 0.1951 0.0
C376 C 0.82833 0.52068 0.18392 0.0
C377 C 0.79415 0.53781 0.20623 0.0
C378 C 0.96735 0.60053 0.24314 0.0
C379 C 0.80258 0.48145 0.14794 0.0
H380 H 1.00889 0.56581 0.0827 0.0
H381 H 0.97017 0.42725 0.16315 0.0
H382 H 0.90661 0.59602 0.11405 0.0
H383 H 0.96349 0.6379 0.14827 0.0
H384 H 0.97847 0.63071 0.09529 0.0
H385 H 0.9092 0.40561 0.21999 0.0
H386 H 0.9131 0.46647 0.2445 0.0
H387 H 0.85418 0.42324 0.21228 0.0
H388 H 0.88821 0.61932 0.2787 0.0
H389 H 0.75097 0.52287 0.19645 0.0
H390 H 0.99582 0.62687 0.21792 0.0
H391 H 0.97676 0.56613 0.24912 0.0
H392 H 0.97738 0.6268 0.27121 0.0
H393 H 0.82377 0.50361 0.11906 0.0
H394 H 0.75647 0.46576 0.14503 0.0
H395 H 0.80928 0.44481 0.15124 0.0
C396 C 0.31924 0.1802 0.98973 0.0
C397 C 0.36111 0.18594 1.0177 0.0
C398 C 0.28282 0.20172 0.99841 0.0
C399 C 0.28936 0.23162 0.03542 0.0
C400 C 0.33096 0.2367 0.06405 0.0
C401 C 0.36536 0.21277 0.05532 0.0
C402 C 0.23861 0.1942 0.96723 0.0
C403 C 0.34086 0.26923 0.1034 0.0
C404 C 0.24587 0.34496 1.03466 0.0
C405 C 0.19718 0.32094 0.05948 0.0
C406 C 0.27615 0.31648 1.02699 0.0
C407 C 0.25597 0.26129 0.04265 0.0
C408 C 0.20565 0.23608 0.06658 0.0
C409 C 0.17768 0.26664 0.07549 0.0
C410 C 0.33184 0.34689 1.00434 0.0
C411 C 0.18216 0.17734 0.08368 0.0
H412 H 0.3156 0.15964 0.96054 0.0
H413 H 0.39789 0.21808 0.077 0.0
H414 H 0.19684 0.17797 0.98248 0.0
H415 H 0.24998 0.23554 0.95321 0.0
H416 H 0.23451 0.16478 0.94227 0.0
H417 H 0.3835 0.28268 0.11579 0.0
H418 H 0.33694 0.30734 0.09887 0.0
H419 H 0.30899 0.24203 0.12661 0.0
H420 H 0.26227 0.38753 1.02319 0.0
H421 H 0.14058 0.24812 0.09518 0.0
H422 H 0.33147 0.32212 0.97731 0.0
H423 H 0.36651 0.35164 1.02484 0.0
H424 H 0.34142 0.38929 0.99389 0.0
H425 H 0.17944 0.14808 0.05906 0.0
H426 H 0.13952 0.16117 0.09752 0.0
H427 H 0.21105 0.17725 0.10767 0.0
C428 C 0.91074 0.17957 0.72182 0.0
C429 C 0.95003 0.20465 0.68964 0.0
C430 C 0.87904 0.12033 0.72649 0.0
C431 C 0.88639 0.08497 0.69825 0.0
C432 C 0.92705 0.11021 0.66642 0.0
C433 C 0.95803 0.16933 0.66247 0.0
C434 C 0.83626 0.09575 0.7609 0.0
C435 C 0.93731 0.07464 0.63603 0.0
C436 C 0.83857 0.93346 0.7316 0.0
C437 C 0.78671 0.90229 0.71103 0.0
C438 C 0.8716 0.9924 0.72716 0.0
C439 C 0.85216 1.02172 0.70207 0.0
C440 C 0.8001 0.99045 0.68077 0.0
C441 C 0.76835 0.93119 0.68516 0.0
C442 C 0.92686 1.02352 0.75016 0.0
C443 C 0.77699 1.01982 0.65441 0.0
H444 H 0.90329 0.20609 0.74261 0.0
H445 H 0.98806 0.18796 0.6374 0.0
H446 H 0.79326 0.08052 0.74818 0.0
H447 H 0.83665 0.05928 0.77551 0.0
H448 H 0.84428 0.12746 0.78502 0.0
H449 H 0.97161 0.10056 0.61382 0.0
H450 H 0.94874 1.0462 0.65259 0.0
H451 H 0.89797 1.04769 0.61857 0.0
H452 H 0.85315 0.9117 0.75177 0.0
H453 H 0.72798 0.90777 0.66964 0.0
H454 H 0.92463 0.05289 0.77253 0.0
H455 H 0.96187 0.04921 0.72844 0.0
H456 H 0.93729 0.99454 0.76708 0.0
H457 H 0.76858 1.04809 0.67386 0.0
H458 H 0.73713 0.98965 0.63862 0.0
H459 H 0.80864 1.04649 0.63087 0.0
C460 C 0.97195 0.8257 0.3147 0.0
C461 C 0.93416 0.78737 0.34391 0.0
C462 C 1.03077 0.85762 0.32231 0.0
C463 C 1.05329 0.85027 0.35965 0.0
C464 C 1.01526 0.81187 0.38931 0.0
C465 C 0.95636 0.78198 0.38153 0.0
C466 C 1.06912 0.89816 0.28982 0.0
C467 C 1.03641 0.80072 0.42905 0.0
C468 C 0.20802 0.88346 0.36103 0.0
C469 C 0.23522 0.93376 0.38355 0.0
C470 C 0.14913 0.856 0.35334 0.0
C471 C 0.11657 0.88039 0.36676 0.0
C472 C 0.14421 0.93197 0.3886 0.0
C473 C 0.20271 0.95737 0.39735 0.0
C474 C 0.12091 0.799 0.33308 0.0
C475 C 0.11153 0.95941 0.40393 0.0
H476 H 0.95556 0.83021 0.28542 0.0
H477 H 0.92801 0.75214 0.40423 0.0
H478 H 0.09635 0.94035 0.30348 0.0
H479 H 0.09751 0.88341 0.27756 0.0
H480 H 1.04503 0.90238 0.26381 0.0
H481 H 0.07853 0.80415 0.42566 0.0
H482 H 1.03997 0.83186 0.45232 0.0
H483 H 1.0064 0.75793 0.44062 0.0
H484 H 0.2322 0.86381 0.35141 0.0
H485 H 0.22303 0.99562 0.41543 0.0
H486 H 0.09828 0.79977 0.30495 0.0
H487 H 0.08894 0.76711 0.35424 0.0
H488 H 0.15175 0.78547 0.32482 0.0
H489 H 0.08688 0.96376 0.37842 0.0
H490 H 0.13963 1.00165 0.41729 0.0
H491 H 0.08089 0.93231 0.42786 0.0
C492 C 0.12497 0.40916 0.44274 0.0
C493 C 0.13297 0.37769 0.47335 0.0
C494 C 0.11811 0.39242 0.40164 0.0
C495 C 0.12026 0.34345 0.39077 0.0
C496 C 0.13164 0.31329 0.42107 0.0
C497 C 0.13776 0.33076 0.4622 0.0
C498 C 0.10673 0.42627 0.37008 0.0
C499 C 0.13525 0.26155 0.4104 0.0
C500 C 1.03556 0.2861 0.29441 0.0
C501 C 0.07722 0.31655 0.2649 0.0
C502 C 1.04989 0.28927 0.33605 0.0
C503 C 0.1072 0.32313 0.34788 0.0
C504 C 0.15006 0.34741 0.31754 0.0
C505 C 0.13446 0.34406 0.27619 0.0
C506 C 1.003 0.26232 0.36754 0.0
C507 C 0.21178 0.38236 0.32887 0.0
H508 H 0.12342 0.44671 0.45093 0.0
H509 H 0.14443 0.30659 0.48579 0.0
H510 H 0.13891 0.44074 0.34521 0.0
H511 H 1.06471 0.39948 0.35575 0.0
H512 H 0.10732 0.46375 0.38365 0.0
H513 H 0.15424 0.24912 0.43571 0.0
H514 H 0.09214 0.2259 0.40438 0.0
H515 H 0.16064 0.26865 0.38203 0.0
H516 H 0.99133 0.26439 0.28555 0.0
H517 H 0.16681 0.36632 0.25304 0.0
H518 H 0.99596 0.29526 0.38156 0.0
H519 H 1.01463 0.24243 0.39259 0.0
H520 H 0.96259 0.22997 0.35357 0.0
H521 H 0.22092 0.42505 0.33814 0.0
H522 H 0.23984 0.38701 0.30254 0.0
H523 H 0.22228 0.36343 0.35525 0.0
C524 C 0.87061 0.76408 0.94588 0.0
C525 C 0.82004 0.71889 0.93106 0.0
C526 C 0.87994 0.77309 0.98827 0.0
C527 C 0.83723 0.7366 1.01593 0.0
C528 C 0.78943 0.68725 1.00118 0.0
C529 C 0.78182 0.67861 0.9588 0.0
C530 C 0.93304 0.82421 1.0032 0.0
C531 C 0.74344 0.64643 1.02982 0.0
C532 C 0.83633 0.73774 0.13171 0.0
C533 C 0.8049 0.76481 0.13878 0.0
C534 C 0.85285 0.73306 0.09179 0.0
C535 C 0.8361 0.7548 0.05851 0.0
C536 C 0.80894 0.78664 0.06608 0.0
C537 C 0.79428 0.79183 0.10637 0.0
C538 C 0.88402 0.70102 0.08531 0.0
C539 C 0.79017 0.81042 1.03137 0.0
H540 H 0.90115 0.79459 0.92452 0.0
H541 H 0.7442 0.64185 0.94745 0.0
H542 H 0.92372 0.85843 1.01008 0.0
H543 H 0.94862 0.81455 1.03192 0.0
H544 H 0.96717 0.83998 0.97965 0.0
H545 H 0.71132 0.60806 1.01364 0.0
H546 H 0.76191 0.63342 0.05502 0.0
H547 H 0.72168 0.66735 0.04404 0.0
H548 H 0.84571 0.71795 0.15713 0.0
H549 H 0.77021 0.81296 0.11203 0.0
H550 H 0.91113 0.71568 0.05741 0.0
H551 H 0.85293 0.65559 0.08159 0.0
H552 H 0.9108 0.70525 0.11235 0.0
H553 H 0.82594 0.83576 1.01019 0.0
H554 H 0.77323 0.83739 0.04269 0.0
H555 H 0.75656 0.77535 1.01333 0.0
C556 C 0.36505 0.96104 0.81208 0.0
C557 C 0.3366 0.98528 0.83175 0.0
C558 C 0.36773 0.96028 0.76918 0.0
C559 C 0.33964 0.98274 0.74587 0.0
C560 C 0.30255 0.9975 0.76573 0.0
C561 C 0.30196 0.99931 0.80884 0.0
C562 C 0.40459 0.93993 0.74949 0.0
C563 C 0.26888 1.01782 0.74157 0.0
C564 C 0.42647 0.08116 0.65991 0.0
C565 C 0.40649 1.04596 0.62568 0.0
C566 C 0.40464 0.06079 0.69912 0.0
C567 C 0.36019 1.0043 0.70385 0.0
C568 C 0.33889 0.96883 0.66914 0.0
C569 C 0.36288 0.98997 0.63035 0.0
C570 C 0.43054 0.09936 0.73562 0.0
C571 C 0.29198 0.90845 0.67299 0.0
H572 H 0.3901 0.94817 0.83026 0.0
H573 H 0.27906 1.01701 0.82421 0.0
H574 H 0.37744 0.89535 0.74024 0.0
H575 H 0.4266 0.96443 0.72157 0.0
H576 H 0.43692 0.94178 0.77126 0.0
H577 H 0.23283 1.0144 0.75986 0.0
H578 H 0.29666 0.0627 0.733 0.0
H579 H 0.25243 0.99335 0.71276 0.0
H580 H 0.46054 0.12425 0.65614 0.0
H581 H 0.34724 0.96289 0.60363 0.0
H582 H 0.46674 0.14102 0.72671 0.0
H583 H 0.44571 0.07964 0.75846 0.0
H584 H 0.39823 0.10634 0.75102 0.0
H585 H 0.3094 0.88267 0.68585 0.0
H586 H 0.27254 0.89044 0.64273 0.0
H587 H 0.25848 0.90493 0.69428 0.0
C588 C 0.26601 0.44781 0.92267 0.0
C589 C 0.27708 0.50381 0.92286 0.0
C590 C 0.30357 0.43384 0.90391 0.0
C591 C 0.35196 0.4767 0.88399 0.0
C592 C 0.35789 0.53086 0.87826 0.0
C593 C 0.32039 0.54385 0.8981 0.0
C594 C 0.29256 0.3742 0.90727 0.0
C595 C 0.40696 0.57702 0.85457 0.0
C596 C 0.50233 0.52031 0.89029 0.0
C597 C 0.5123 0.52223 0.84807 0.0
C598 C 0.44664 0.49415 0.9048 0.0
C599 C 0.4017 0.47018 0.87597 0.0
C600 C 0.41237 0.45984 0.83543 0.0
C601 C 0.46844 0.48628 0.82173 0.0
C602 C 0.43709 0.50313 0.94913 0.0
C603 C 0.36522 0.43057 0.80473 0.0
H604 H 0.22989 0.41537 0.93921 0.0
H605 H 0.32788 0.58661 0.89681 0.0
H606 H 0.33234 0.37278 0.91078 0.0
H607 H 0.26394 0.3513 0.93344 0.0
H608 H 0.27145 0.35123 0.87876 0.0
H609 H 0.40071 0.61346 0.84825 0.0
H610 H 0.4465 0.59237 0.8726 0.0
H611 H 0.41282 0.5609 0.8248 0.0
H612 H 0.53675 0.54619 0.911 0.0
H613 H 0.477 0.48539 0.78923 0.0
H614 H 0.39361 0.47286 0.9595 0.0
H615 H 0.44385 0.54638 0.95269 0.0
H616 H 0.46789 0.49927 0.96933 0.0
H617 H 0.32836 0.39384 0.81909 0.0
H618 H 0.3792 0.41614 0.77754 0.0
H619 H 0.35122 0.46022 0.794 0.0
C620 C 0.59538 0.92877 0.52303 0.0
C621 C 0.57926 0.93699 0.48409 0.0
C622 C 0.5843 0.87528 0.53532 0.0
C623 C 0.55494 0.82904 0.50821 0.0
C624 C 0.54307 0.83812 0.46757 0.0
C625 C 0.55607 0.89241 0.4558 0.0
C626 C 0.60023 0.8677 0.57847 0.0
C627 C 0.5121 0.79054 0.43749 0.0
C628 C 0.56059 0.71302 0.56115 0.0
C629 C 0.51734 0.69941 0.58993 0.0
C630 C 0.5678 0.74856 0.52792 0.0
C631 C 0.53188 0.77157 0.52487 0.0
C632 C 0.48172 0.74865 0.54855 0.0
C633 C 0.47496 0.71258 0.58133 0.0
C634 C 0.61819 0.76789 0.49988 0.0
C635 C 0.43982 0.76885 0.54344 0.0
H636 H 0.61369 0.96349 0.54461 0.0
H637 H 0.54329 0.89855 0.42551 0.0
H638 H 0.56134 0.84286 0.59712 0.0
H639 H 0.62367 0.8442 0.57782 0.0
H640 H 0.627 0.9086 0.59411 0.0
H641 H 0.52812 0.80464 0.40574 0.0
H642 H 0.51588 0.75301 0.44505 0.0
H643 H 0.46653 0.77781 0.43772 0.0
H644 H 0.5914 0.69998 0.56667 0.0
H645 H 0.44023 0.70045 0.60278 0.0
H646 H 0.65479 0.80579 0.5132 0.0
H647 H 0.60991 0.77936 0.46895 0.0
H648 H 0.62957 0.73454 0.4963 0.0
H649 H 0.45442 0.80806 0.56143 0.0
H650 H 0.39744 0.73684 0.55484 0.0
H651 H 0.43611 0.77831 0.51076 0.0
C652 C 0.10413 0.61919 0.22868 0.0
C653 C 0.10271 0.61377 0.18599 0.0
C654 C 0.13795 0.67215 0.2461 0.0
C655 C 0.17006 0.71857 0.21956 0.0
C656 C 0.15573 0.71486 0.17754 0.0
C657 C 0.12054 0.66155 0.1611 0.0
C658 C 0.14805 0.67514 0.29185 0.0
C659 C 0.18511 0.76482 0.14896 0.0
C660 C 0.29248 0.84391 0.26859 0.0
C661 C 0.33071 0.82382 0.27319 0.0
C662 C 0.24117 0.81232 0.24818 0.0
C663 C 0.22816 0.7595 0.23217 0.0
C664 C 0.26951 0.74216 0.2325 0.0
C665 C 0.32045 0.77467 0.25332 0.0
C666 C 0.20161 0.83579 0.24437 0.0
C667 C 0.25903 0.6878 0.21289 0.0
H668 H 0.08713 0.58203 0.24816 0.0
H669 H 0.11534 0.65679 0.12801 0.0
H670 H 0.1734 0.71894 0.30303 0.0
H671 H 0.10686 0.65403 0.30838 0.0
H672 H 0.17074 0.65206 0.29965 0.0
H673 H 0.1701 0.75399 0.11674 0.0
H674 H 0.17711 0.79874 0.15936 0.0
H675 H 0.23155 0.78162 0.14948 0.0
H676 H 0.3017 0.88365 0.28219 0.0
H677 H 0.35074 0.76006 0.25596 0.0
H678 H 0.20718 0.8644 0.27027 0.0
H679 H 0.15654 0.80231 0.24273 0.0
H680 H 0.21222 0.8614 0.21583 0.0
H681 H 0.23004 0.65168 0.23263 0.0
H682 H 0.29883 0.68638 0.20901 0.0
H683 H 0.23898 0.68225 0.18228 0.0
C684 C 0.48358 0.24162 0.16682 0.0
C685 C 0.5419 0.26123 0.16313 0.0
C686 C 0.46365 0.27064 0.19051 0.0
C687 C 0.50327 0.32142 0.20926 0.0
C688 C 0.5614 0.33691 0.2104 0.0
C689 C 0.57991 0.30614 0.18742 0.0
C690 C 0.40077 0.24827 0.19396 0.0
C691 C 0.60523 0.38927 0.23223 0.0
C692 C 0.52454 0.46302 0.20047 0.0
C693 C 0.53397 0.47594 0.2422 0.0
C694 C 0.50139 0.40706 0.18806 0.0
C695 C 0.48827 0.36508 0.21854 0.0
C696 C 0.48304 0.37678 0.25995 0.0
C697 C 0.50629 0.4331 0.27158 0.0
C698 C 0.50347 0.39561 0.14296 0.0
C699 C 0.46372 0.33183 0.29267 0.0
H700 H 0.45351 0.20528 0.14962 0.0
H701 H 0.62482 0.32044 0.18567 0.0
H702 H 0.3903 0.28246 0.19116 0.0
H703 H 0.37665 0.21545 0.17057 0.0
H704 H 0.38623 0.22867 0.22473 0.0
H705 H 0.64673 0.39091 0.23447 0.0
H706 H 0.61181 0.42724 0.21516 0.0
H707 H 0.59086 0.39125 0.26377 0.0
H708 H 0.54327 0.49637 0.17763 0.0
H709 H 0.51044 0.44354 0.30402 0.0
H710 H 0.47211 0.35164 0.13507 0.0
H711 H 0.54625 0.40268 0.13526 0.0
H712 H 0.49558 0.42463 0.12373 0.0
H713 H 0.42772 0.29178 0.28145 0.0
H714 H 0.45076 0.34474 0.32117 0.0
H715 H 0.49891 0.32402 0.3004 0.0
C716 C 0.72781 0.28295 0.74117 0.0
C717 C 0.76938 0.28849 0.71336 0.0
C718 C 0.68398 0.22948 0.75241 0.0
C719 C 0.68325 0.18105 0.73608 0.0
C720 C 0.7182 0.18695 0.70221 0.0
C721 C 0.76064 0.24106 0.69071 0.0
C722 C 0.64441 0.22536 0.78651 0.0
C723 C 0.71628 0.13688 0.68144 0.0
C724 C 0.67079 0.10654 0.83299 0.0
C725 C 0.61219 0.08124 0.83798 0.0
C726 C 0.69578 0.13172 0.79548 0.0
C727 C 0.66073 0.13052 0.76281 0.0
C728 C 0.60183 0.09313 0.76485 0.0
C729 C 0.57775 0.06881 0.80294 0.0
C730 C 0.75938 0.16823 0.79367 0.0
C731 C 0.56383 0.08636 0.72905 0.0
H732 H 0.73266 0.31963 0.75741 0.0
H733 H 0.78991 0.2454 0.66648 0.0
H734 H 0.60115 0.18949 0.7818 0.0
H735 H 0.66042 0.21917 0.81635 0.0
H736 H 0.6414 0.26419 0.78845 0.0
H737 H 0.71875 0.14295 0.64756 0.0
H738 H 0.75378 0.13369 0.69083 0.0
H739 H 0.67743 0.09673 0.68914 0.0
H740 H 0.69751 0.11343 0.85955 0.0
H741 H 0.53204 1.04623 0.80613 0.0
H742 H 0.77118 0.21303 0.79765 0.0
H743 H 0.77584 0.16424 0.76345 0.0
H744 H 0.78037 0.15711 0.81832 0.0
H745 H 0.55505 0.12181 0.72855 0.0
H746 H 0.52278 1.0465 0.73151 0.0
H747 H 0.58447 0.08701 0.69946 0.0
C748 C 1.04767 0.61044 0.53299 0.0
C749 C 1.045 0.5967 0.57456 0.0
C750 C 1.01897 0.63766 0.51906 0.0
C751 C 0.98721 0.64959 0.5478 0.0
C752 C 0.99807 0.64976 0.59017 0.0
C753 C 1.02712 0.62258 0.60336 0.0
C754 C 1.01266 0.64199 0.47336 0.0
C755 C 0.96947 0.66763 0.62154 0.0
C756 C 0.87478 0.66332 0.49179 0.0
C757 C 0.83279 0.60634 0.48831 0.0
C758 C 0.92274 0.67954 0.51607 0.0
C759 C 0.93041 0.63744 0.53483 0.0
C760 C 0.886 0.58038 0.53436 0.0
C761 C 0.83729 0.56581 0.51152 0.0
C762 C 0.96526 0.74125 0.52121 0.0
C763 C 0.89122 0.53372 0.55528 0.0
H764 H 1.06429 0.59276 0.51087 0.0
H765 H 1.02846 0.61467 0.63594 0.0
H766 H 0.97341 0.60419 0.46278 0.0
H767 H 1.00926 0.67963 0.46582 0.0
H768 H 1.04906 0.64426 0.45624 0.0
H769 H 0.99122 0.67642 0.65177 0.0
H770 H 0.96871 0.70576 0.61094 0.0
H771 H 0.92503 0.63344 0.62585 0.0
H772 H 0.87112 0.69535 0.47488 0.0
H773 H 0.80456 0.52193 0.50949 0.0
H774 H 0.9565 0.76823 0.50036 0.0
H775 H 1.00905 0.74968 0.51597 0.0
H776 H 0.9631 0.75387 0.55321 0.0
H777 H 0.92458 0.52834 0.53993 0.0
H778 H 0.85114 0.49266 0.55424 0.0
H779 H 0.90326 0.54424 0.58797 0.0
C780 C 1.03529 0.42503 0.78159 0.0
C781 C 0.08267 0.46942 0.76186 0.0
C782 C 1.03168 0.41964 0.82553 0.0
C783 C 0.0769 0.45865 0.85111 0.0
C784 C 0.1255 0.50184 0.83103 0.0
C785 C 0.12762 0.5066 0.78757 0.0
C786 C 0.97861 0.3728 0.84466 0.0
C787 C 0.17595 0.54376 0.85551 0.0
C788 C 1.05043 0.49304 0.9617 0.0
C789 C 1.06986 0.46474 0.98764 0.0
C790 C 1.05151 0.4903 0.91816 0.0
C791 C 1.07234 0.45805 0.8984 0.0
C792 C 0.09211 0.42914 0.92425 0.0
C793 C 0.09053 0.43265 0.96815 0.0
C794 C 1.03069 0.52288 0.89313 0.0
C795 C 0.11474 0.39411 0.90542 0.0
H796 H 1.00048 0.39511 0.76296 0.0
H797 H 0.16541 0.54059 0.77363 0.0
H798 H 0.98944 0.34826 0.86637 0.0
H799 H 0.95695 0.39096 0.86266 0.0
H800 H 0.94871 0.34377 0.82125 0.0
H801 H 0.20852 0.57796 0.83602 0.0
H802 H 0.16271 0.56304 0.87993 0.0
H803 H 0.19561 0.52146 0.87069 0.0
H804 H 1.03413 0.51803 0.97561 0.0
H805 H 0.10462 0.40944 0.98715 0.0
H806 H 0.99743 0.49434 0.87136 0.0
H807 H 1.06608 0.55559 0.87457 0.0
H808 H 1.01315 0.5438 0.91265 0.0
H809 H 0.08295 0.36259 0.8842 0.0
H810 H 0.12571 0.37173 0.92904 0.0
H811 H 0.15303 0.42146 0.8869 0.0
C812 C 0.65693 0.59739 0.62446 0.0
C813 C 0.66742 0.64299 0.65027 0.0
C814 C 0.66235 0.60239 0.58106 0.0
C815 C 0.6766 0.65405 0.56096 0.0
C816 C 0.69018 0.70136 0.58702 0.0
C817 C 0.68553 0.6951 0.63077 0.0
C818 C 0.65251 0.55134 0.55682 0.0
C819 C 0.71068 0.7597 0.57011 0.0
C820 C 0.71479 0.67678 0.44329 0.0
C821 C 0.66145 0.64769 0.42418 0.0
C822 C 0.72061 0.68041 0.48719 0.0
C823 C 0.67206 0.6554 0.51361 0.0
C824 C 0.61819 0.62674 0.49399 0.0
C825 C 0.61391 0.62342 0.45053 0.0
C826 C 0.77921 0.70938 0.50518 0.0
C827 C 0.56326 0.5988 0.51789 0.0
H828 H 0.64449 0.55674 0.63823 0.0
H829 H 0.69674 0.7315 0.64964 0.0
H830 H 0.60776 0.52781 0.54669 0.0
H831 H 0.68001 0.56358 0.52915 0.0
H832 H 0.66072 0.52231 0.57576 0.0
H833 H 0.68486 0.77729 0.58267 0.0
H834 H 0.75467 0.78788 0.58078 0.0
H835 H 0.71028 0.76128 0.53616 0.0
H836 H 0.75212 0.69701 0.42396 0.0
H837 H 0.57199 0.60096 0.43712 0.0
H838 H 0.7859 0.67806 0.5223 0.0
H839 H 0.7847 0.74209 0.52744 0.0
H840 H 0.81213 0.7301 0.48109 0.0
H841 H 0.54093 0.55278 0.51197 0.0
H842 H 0.53517 0.6145 0.50651 0.0
H843 H 0.56837 0.60563 0.55152 0.0
C844 C 0.47958 0.08349 0.11121 0.0
C845 C 0.51675 0.06844 0.09225 0.0
C846 C 0.47247 0.08171 0.15503 0.0
C847 C 0.50337 0.06502 0.18154 0.0
C848 C 0.53971 0.04854 0.1623 0.0
C849 C 0.54596 0.05064 0.11877 0.0
C850 C 0.43025 0.09589 0.17308 0.0
C851 C 0.57116 1.02691 0.18785 0.0
C852 C 0.54348 0.11114 0.29512 0.0
C853 C 0.50246 0.0658 0.3192 0.0
C854 C 0.54216 0.11239 0.25145 0.0
C855 C 0.49977 0.06628 0.22905 0.0
C856 C 0.45649 1.02132 0.25276 0.0
C857 C 0.45758 1.02228 0.29697 0.0
C858 C 0.5863 0.16417 0.22913 0.0
C859 C 0.40891 0.97091 0.23203 0.0
H860 H 0.45482 0.09525 0.09179 0.0
H861 H 0.57399 1.03759 0.1053 0.0
H862 H 0.39712 0.05902 0.19013 0.0
H863 H 0.45159 0.13059 0.19561 0.0
H864 H 0.40911 0.10782 0.1491 0.0
H865 H 0.5936 1.01069 0.16861 0.0
H866 H 0.6027 0.06113 0.20757 0.0
H867 H 0.54114 0.99258 0.20853 0.0
H868 H 0.57775 0.14686 0.31051 0.0
H869 H 0.42321 0.98874 0.31376 0.0
H870 H 0.6153 0.19779 0.25048 0.0
H871 H 0.56489 0.18113 0.20954 0.0
H872 H 0.61186 0.15324 0.20858 0.0
H873 H 0.36792 0.96295 0.24502 0.0
H874 H 0.41341 0.93357 0.23834 0.0
H875 H 0.40776 0.9754 0.19824 0.0
loop_
_geom_bond_atom_site_label_1
_geom_bond_atom_site_label_2
_geom_bond_distance
_geom_bond_site_symmetry_2
_ccdc_geom_bond_type
Zn0 N4 2.020 . S
Zn0 O8 2.019 . S
Zn0 N10 2.119 . S
Zn0 O18 1.975 . S
C1 N2 1.334 . S
C1 N5 1.336 . S
N2 C1 1.334 . S
N2 C3 1.334 . S
C3 N2 1.334 . S
C3 N4 1.336 . S
N4 Zn0 2.020 . S
N4 C3 1.336 . S
N4 N5 1.354 . S
N5 C1 1.336 . S
N5 N4 1.354 . S
N5 Zn9 2.020 . S
C6 O7 1.244 . S
C6 O30 1.257 . S
O7 C6 1.244 . S
O8 Zn0 2.019 . S
O8 C28 1.257 . S
Zn9 N5 2.020 . S
Zn9 O16 1.975 . S
Zn9 N25 2.119 . S
Zn9 O30 2.019 . S
N10 Zn0 2.119 . S
N10 C12 1.334 . S
N10 C13 1.328 . S
C11 C12 1.391 . S
C11 N14 1.329 . S
C11 H32 0.930 . S
C12 N10 1.334 . S
C12 C11 1.391 . S
C12 H19 0.930 . S
C13 N10 1.328 . S
C13 C15 1.392 . S
C13 H20 0.930 . S
N14 C11 1.329 . S
N14 C15 1.331 . S
C15 C13 1.392 . S
C15 N14 1.331 . S
O16 Zn9 1.975 . S
O16 C17 1.252 . S
C17 O16 1.252 . S
C17 O18 1.252 . S
O18 Zn0 1.975 . S
O18 C17 1.252 . S
H19 C12 0.930 . S
H20 C13 0.930 . S
C21 C22 1.392 . S
C21 N25 1.328 1_556 S
C21 H27 0.930 . S
C22 C21 1.392 . S
C22 N26 1.331 . S
C23 C24 1.391 . S
C23 N26 1.329 1_554 S
C23 H33 0.930 . S
C24 C23 1.391 . S
C24 N25 1.334 . S
C24 H31 0.930 . S
N25 Zn9 2.119 . S
N25 C21 1.328 1_554 S
N25 C24 1.334 . S
N26 C22 1.331 . S
N26 C23 1.329 1_556 S
H27 C21 0.930 . S
C28 O8 1.257 . S
C28 O29 1.244 . S
O29 C28 1.244 . S
O30 C6 1.257 . S
O30 Zn9 2.019 . S
H31 C24 0.930 . S
H32 C11 0.930 . S
H33 C23 0.930 . S
Zn34 N38 2.020 . S
Zn34 O42 2.019 . S
Zn34 N44 2.119 . S
Zn34 O52 1.975 . S
C35 N36 1.334 . S
C35 N39 1.336 . S
N36 C35 1.334 . S
N36 C37 1.334 . S
C37 N36 1.334 . S
C37 N38 1.336 . S
N38 Zn34 2.020 . S
N38 C37 1.336 . S
N38 N39 1.354 . S
N39 C35 1.336 . S
N39 N38 1.354 . S
N39 Zn43 2.020 . S
C40 O41 1.244 . S
C40 O64 1.257 . S
O41 C40 1.244 . S
O42 Zn34 2.019 . S
O42 C62 1.257 . S
Zn43 N39 2.020 . S
Zn43 O50 1.975 . S
Zn43 N59 2.119 . S
Zn43 O64 2.019 . S
N44 Zn34 2.119 . S
N44 C46 1.334 . S
N44 C47 1.328 . S
C45 C46 1.391 . S
C45 N48 1.329 . S
C45 H66 0.930 . S
C46 N44 1.334 . S
C46 C45 1.391 . S
C46 H53 0.930 . S
C47 N44 1.328 . S
C47 C49 1.392 . S
C47 H54 0.930 . S
N48 C45 1.329 . S
N48 C49 1.331 . S
C49 C47 1.392 . S
C49 N48 1.331 . S
O50 Zn43 1.975 . S
O50 C51 1.252 . S
C51 O50 1.252 . S
C51 O52 1.252 . S
O52 Zn34 1.975 . S
O52 C51 1.252 . S
H53 C46 0.930 . S
H54 C47 0.930 . S
C55 C56 1.392 . S
C55 N59 1.328 . S
C55 H61 0.930 . S
C56 C55 1.392 . S
C56 N60 1.331 . S
C57 C58 1.391 . S
C57 N60 1.329 . S
C57 H67 0.930 . S
C58 C57 1.391 . S
C58 N59 1.334 . S
C58 H65 0.930 . S
N59 Zn43 2.119 . S
N59 C55 1.328 . S
N59 C58 1.334 . S
N60 C56 1.331 . S
N60 C57 1.329 . S
H61 C55 0.930 . S
C62 O42 1.257 . S
C62 O63 1.244 . S
O63 C62 1.244 . S
O64 C40 1.257 . S
O64 Zn43 2.019 . S
H65 C58 0.930 . S
H66 C45 0.930 . S
H67 C57 0.930 . S
Zn68 N72 2.020 . S
Zn68 O76 2.019 . S
Zn68 N78 2.119 . S
Zn68 O86 1.975 . S
C69 N70 1.334 . S
C69 N73 1.336 . S
N70 C69 1.334 . S
N70 C71 1.334 . S
C71 N70 1.334 . S
C71 N72 1.336 . S
N72 Zn68 2.020 . S
N72 C71 1.336 . S
N72 N73 1.354 . S
N73 C69 1.336 . S
N73 N72 1.354 . S
N73 Zn77 2.020 . S
C74 O75 1.244 . S
C74 O98 1.257 . S
O75 C74 1.244 . S
O76 Zn68 2.019 . S
O76 C96 1.257 . S
Zn77 N73 2.020 . S
Zn77 O84 1.975 . S
Zn77 N93 2.119 . S
Zn77 O98 2.019 . S
N78 Zn68 2.119 . S
N78 C80 1.334 . S
N78 C81 1.328 . S
C79 C80 1.391 . S
C79 N82 1.329 . S
C79 H100 0.930 . S
C80 N78 1.334 . S
C80 C79 1.391 . S
C80 H87 0.930 . S
C81 N78 1.328 . S
C81 C83 1.392 . S
C81 H88 0.930 . S
N82 C79 1.329 . S
N82 C83 1.331 . S
C83 C81 1.392 . S
C83 N82 1.331 . S
O84 Zn77 1.975 . S
O84 C85 1.252 . S
C85 O84 1.252 . S
C85 O86 1.252 . S
O86 Zn68 1.975 . S
O86 C85 1.252 . S
H87 C80 0.930 . S
H88 C81 0.930 . S
C89 C90 1.392 . S
C89 N93 1.328 . S
C89 H95 0.930 . S
C90 C89 1.392 . S
C90 N94 1.331 . S
C91 C92 1.391 . S
C91 N94 1.329 . S
C91 H101 0.930 . S
C92 C91 1.391 . S
C92 N93 1.334 . S
C92 H99 0.930 . S
N93 Zn77 2.119 . S
N93 C89 1.328 . S
N93 C92 1.334 . S
N94 C90 1.331 . S
N94 C91 1.329 . S
H95 C89 0.930 . S
C96 O76 1.257 . S
C96 O97 1.244 . S
O97 C96 1.244 . S
O98 C74 1.257 . S
O98 Zn77 2.019 . S
H99 C92 0.930 . S
H100 C79 0.930 . S
H101 C91 0.930 . S
Zn102 N106 2.020 . S
Zn102 O110 2.019 . S
Zn102 N112 2.119 . S
Zn102 O120 1.975 . S
C103 N104 1.334 . S
C103 N107 1.336 . S
N104 C103 1.334 . S
N104 C105 1.334 . S
C105 N104 1.334 . S
C105 N106 1.336 . S
N106 Zn102 2.020 . S
N106 C105 1.336 . S
N106 N107 1.354 . S
N107 C103 1.336 . S
N107 N106 1.354 . S
N107 Zn111 2.020 . S
C108 O109 1.244 . S
C108 O132 1.257 . S
O109 C108 1.244 . S
O110 Zn102 2.019 . S
O110 C130 1.257 . S
Zn111 N107 2.020 . S
Zn111 O118 1.975 . S
Zn111 N127 2.119 . S
Zn111 O132 2.019 . S
N112 Zn102 2.119 . S
N112 C114 1.334 . S
N112 C115 1.328 1_556 S
C113 C114 1.391 . S
C113 N116 1.329 1_556 S
C113 H134 0.930 . S
C114 N112 1.334 . S
C114 C113 1.391 . S
C114 H121 0.930 . S
C115 N112 1.328 1_554 S
C115 C117 1.392 . S
C115 H122 0.930 . S
N116 C113 1.329 1_554 S
N116 C117 1.331 . S
C117 C115 1.392 . S
C117 N116 1.331 . S
O118 Zn111 1.975 . S
O118 C119 1.252 . S
C119 O118 1.252 . S
C119 O120 1.252 . S
O120 Zn102 1.975 . S
O120 C119 1.252 . S
H121 C114 0.930 . S
H122 C115 0.930 . S
C123 C124 1.392 . S
C123 N127 1.328 . S
C123 H129 0.930 . S
C124 C123 1.392 . S
C124 N128 1.331 . S
C125 C126 1.391 . S
C125 N128 1.329 . S
C125 H135 0.930 . S
C126 C125 1.391 . S
C126 N127 1.334 . S
C126 H133 0.930 . S
N127 Zn111 2.119 . S
N127 C123 1.328 . S
N127 C126 1.334 . S
N128 C124 1.331 . S
N128 C125 1.329 . S
H129 C123 0.930 . S
C130 O110 1.257 . S
C130 O131 1.244 . S
O131 C130 1.244 . S
O132 C108 1.257 . S
O132 Zn111 2.019 . S
H133 C126 0.930 . S
H134 C113 0.930 . S
H135 C125 0.930 . S
Zn136 N140 2.020 . S
Zn136 O144 2.019 . S
Zn136 N146 2.119 . S
Zn136 O154 1.975 . S
C137 N138 1.334 . S
C137 N141 1.336 . S
N138 C137 1.334 . S
N138 C139 1.334 . S
C139 N138 1.334 . S
C139 N140 1.336 . S
N140 Zn136 2.020 . S
N140 C139 1.336 . S
N140 N141 1.354 . S
N141 C137 1.336 . S
N141 N140 1.354 . S
N141 Zn145 2.020 . S
C142 O143 1.244 . S
C142 O166 1.257 . S
O143 C142 1.244 . S
O144 Zn136 2.019 . S
O144 C164 1.257 . S
Zn145 N141 2.020 . S
Zn145 O152 1.975 . S
Zn145 N161 2.119 . S
Zn145 O166 2.019 . S
N146 Zn136 2.119 . S
N146 C148 1.334 . S
N146 C149 1.328 . S
C147 C148 1.391 . S
C147 N150 1.329 . S
C147 H168 0.930 . S
C148 N146 1.334 . S
C148 C147 1.391 . S
C148 H155 0.930 . S
C149 N146 1.328 . S
C149 C151 1.392 . S
C149 H156 0.930 . S
N150 C147 1.329 . S
N150 C151 1.331 . S
C151 C149 1.392 . S
C151 N150 1.331 . S
O152 Zn145 1.975 . S
O152 C153 1.252 . S
C153 O152 1.252 . S
C153 O154 1.252 . S
O154 Zn136 1.975 . S
O154 C153 1.252 . S
H155 C148 0.930 . S
H156 C149 0.930 . S
C157 C158 1.392 . S
C157 N161 1.328 . S
C157 H163 0.930 . S
C158 C157 1.392 . S
C158 N162 1.331 . S
C159 C160 1.391 . S
C159 N162 1.329 . S
C159 H169 0.930 . S
C160 C159 1.391 . S
C160 N161 1.334 . S
C160 H167 0.930 . S
N161 Zn145 2.119 . S
N161 C157 1.328 . S
N161 C160 1.334 . S
N162 C158 1.331 . S
N162 C159 1.329 . S
H163 C157 0.930 . S
C164 O144 1.257 . S
C164 O165 1.244 . S
O165 C164 1.244 . S
O166 C142 1.257 . S
O166 Zn145 2.019 . S
H167 C160 0.930 . S
H168 C147 0.930 . S
H169 C159 0.930 . S
Zn170 N174 2.020 . S
Zn170 O178 2.019 . S
Zn170 N180 2.119 . S
Zn170 O188 1.975 . S
C171 N172 1.334 . S
C171 N175 1.336 . S
N172 C171 1.334 . S
N172 C173 1.334 . S
C173 N172 1.334 . S
C173 N174 1.336 . S
N174 Zn170 2.020 . S
N174 C173 1.336 . S
N174 N175 1.354 . S
N175 C171 1.336 . S
N175 N174 1.354 . S
N175 Zn179 2.020 . S
C176 O177 1.244 . S
C176 O200 1.257 . S
O177 C176 1.244 . S
O178 Zn170 2.019 . S
O178 C198 1.257 . S
Zn179 N175 2.020 . S
Zn179 O186 1.975 . S
Zn179 N195 2.119 . S
Zn179 O200 2.019 . S
N180 Zn170 2.119 . S
N180 C182 1.334 . S
N180 C183 1.328 . S
C181 C182 1.391 . S
C181 N184 1.329 . S
C181 H202 0.930 . S
C182 N180 1.334 . S
C182 C181 1.391 . S
C182 H189 0.930 . S
C183 N180 1.328 . S
C183 C185 1.392 . S
C183 H190 0.930 . S
N184 C181 1.329 . S
N184 C185 1.331 . S
C185 C183 1.392 . S
C185 N184 1.331 . S
O186 Zn179 1.975 . S
O186 C187 1.252 . S
C187 O186 1.252 . S
C187 O188 1.252 . S
O188 Zn170 1.975 . S
O188 C187 1.252 . S
H189 C182 0.930 . S
H190 C183 0.930 . S
C191 C192 1.392 . S
C191 N195 1.328 . S
C191 H197 0.930 . S
C192 C191 1.392 . S
C192 N196 1.331 . S
C193 C194 1.391 . S
C193 N196 1.329 . S
C193 H203 0.930 . S
C194 C193 1.391 . S
C194 N195 1.334 . S
C194 H201 0.930 . S
N195 Zn179 2.119 . S
N195 C191 1.328 . S
N195 C194 1.334 . S
N196 C192 1.331 . S
N196 C193 1.329 . S
H197 C191 0.930 . S
C198 O178 1.257 . S
C198 O199 1.244 . S
O199 C198 1.244 . S
O200 C176 1.257 . S
O200 Zn179 2.019 . S
H201 C194 0.930 . S
H202 C181 0.930 . S
H203 C193 0.930 . S
C204 C205 1.391 . S
C204 C206 1.394 . S
C204 H220 0.931 . S
C205 C204 1.391 . S
C205 C209 1.376 . S
C206 C204 1.394 . S
C206 C207 1.369 . S
C206 C210 1.531 . S
C207 C206 1.369 . S
C207 C208 1.410 . S
C207 C215 1.503 . S
C208 C207 1.410 . S
C208 C209 1.392 . S
C208 C211 1.511 . S
C209 C205 1.376 . S
C209 C208 1.392 . S
C209 H221 0.929 . S
C210 C206 1.531 . S
C210 H222 0.960 . S
C210 H223 0.962 . S
C210 H224 0.960 . S
C211 C208 1.511 . S
C211 H225 0.961 . S
C211 H226 0.961 . S
C211 H227 0.961 . S
C212 C213 1.370 . S
C212 C214 1.363 . S
C212 H228 0.931 . S
C213 C212 1.370 . S
C213 C217 1.408 . S
C214 C212 1.363 . S
C214 C215 1.370 . S
C214 C218 1.524 . S
C215 C207 1.503 . S
C215 C214 1.370 . S
C215 C216 1.403 . S
C216 C215 1.403 . S
C216 C217 1.404 . S
C216 C219 1.539 . S
C217 C213 1.408 . S
C217 C216 1.404 . S
C217 H229 0.930 . S
C218 C214 1.524 . S
C218 H230 0.956 . S
C218 H231 0.961 . S
C218 H232 0.961 . S
C219 C216 1.539 . S
C219 H233 0.958 . S
C219 H234 0.961 . S
C219 H235 0.960 . S
H220 C204 0.931 . S
H221 C209 0.929 . S
H222 C210 0.960 . S
H223 C210 0.962 . S
H224 C210 0.960 . S
H225 C211 0.961 . S
H226 C211 0.961 . S
H227 C211 0.961 . S
H228 C212 0.931 . S
H229 C217 0.930 . S
H230 C218 0.956 . S
H231 C218 0.961 . S
H232 C218 0.961 . S
H233 C219 0.958 . S
H234 C219 0.961 . S
H235 C219 0.960 . S
C236 C237 1.391 . S
C236 C238 1.394 . S
C236 H252 0.931 . S
C237 C236 1.391 . S
C237 C241 1.376 . S
C238 C236 1.394 . S
C238 C239 1.369 . S
C238 C242 1.531 . S
C239 C238 1.369 . S
C239 C240 1.410 . S
C239 C247 1.503 . S
C240 C239 1.410 . S
C240 C241 1.392 . S
C240 C243 1.511 . S
C241 C237 1.376 . S
C241 C240 1.392 . S
C241 H253 0.929 . S
C242 C238 1.531 . S
C242 H254 0.960 . S
C242 H255 0.962 . S
C242 H256 0.960 . S
C243 C240 1.511 . S
C243 H257 0.961 . S
C243 H258 0.961 . S
C243 H259 0.961 . S
C244 C245 1.370 . S
C244 C246 1.363 . S
C244 H260 0.931 . S
C245 C244 1.370 . S
C245 C249 1.408 1_565 S
C246 C244 1.363 . S
C246 C247 1.370 . S
C246 C250 1.524 . S
C247 C239 1.503 . S
C247 C246 1.370 . S
C247 C248 1.403 . S
C248 C247 1.403 . S
C248 C249 1.404 1_565 S
C248 C251 1.539 1_565 S
C249 C245 1.408 1_545 S
C249 C248 1.404 1_545 S
C249 H261 0.930 . S
C250 C246 1.524 . S
C250 H262 0.956 . S
C250 H263 0.961 . S
C250 H264 0.961 . S
C251 C248 1.539 1_545 S
C251 H265 0.958 . S
C251 H266 0.961 . S
C251 H267 0.960 . S
H252 C236 0.931 . S
H253 C241 0.929 . S
H254 C242 0.960 . S
H255 C242 0.962 . S
H256 C242 0.960 . S
H257 C243 0.961 . S
H258 C243 0.961 . S
H259 C243 0.961 . S
H260 C244 0.931 . S
H261 C249 0.930 . S
H262 C250 0.956 . S
H263 C250 0.961 . S
H264 C250 0.961 . S
H265 C251 0.958 . S
H266 C251 0.961 . S
H267 C251 0.960 . S
C268 C269 1.391 . S
C268 C270 1.394 . S
C268 H284 0.931 . S
C269 C268 1.391 . S
C269 C273 1.376 . S
C270 C268 1.394 . S
C270 C271 1.369 . S
C270 C274 1.531 . S
C271 C270 1.369 . S
C271 C272 1.410 . S
C271 C279 1.503 . S
C272 C271 1.410 . S
C272 C273 1.392 . S
C272 C275 1.511 . S
C273 C269 1.376 . S
C273 C272 1.392 . S
C273 H285 0.929 . S
C274 C270 1.531 . S
C274 H286 0.960 . S
C274 H287 0.962 . S
C274 H288 0.960 . S
C275 C272 1.511 . S
C275 H289 0.961 . S
C275 H290 0.961 . S
C275 H291 0.961 . S
C276 C277 1.370 . S
C276 C278 1.363 . S
C276 H292 0.931 . S
C277 C276 1.370 . S
C277 C281 1.408 1_455 S
C278 C276 1.363 . S
C278 C279 1.370 . S
C278 C282 1.524 . S
C279 C271 1.503 . S
C279 C278 1.370 . S
C279 C280 1.403 . S
C280 C279 1.403 . S
C280 C281 1.404 1_455 S
C280 C283 1.539 1_455 S
C281 C277 1.408 1_655 S
C281 C280 1.404 1_655 S
C281 H293 0.930 . S
C282 C278 1.524 . S
C282 H294 0.956 . S
C282 H295 0.961 . S
C282 H296 0.961 . S
C283 C280 1.539 1_655 S
C283 H297 0.958 1_655 S
C283 H298 0.961 . S
C283 H299 0.960 1_655 S
H284 C268 0.931 . S
H285 C273 0.929 . S
H286 C274 0.960 . S
H287 C274 0.962 . S
H288 C274 0.960 . S
H289 C275 0.961 . S
H290 C275 0.961 . S
H291 C275 0.961 . S
H292 C276 0.931 . S
H293 C281 0.930 . S
H294 C282 0.956 . S
H295 C282 0.961 . S
H296 C282 0.961 . S
H297 C283 0.958 1_455 S
H298 C283 0.961 . S
H299 C283 0.960 1_455 S
C300 C301 1.391 . S
C300 C302 1.394 . S
C300 H316 0.931 . S
C301 C300 1.391 . S
C301 C305 1.376 . S
C302 C300 1.394 . S
C302 C303 1.369 . S
C302 C306 1.531 . S
C303 C302 1.369 . S
C303 C304 1.410 . S
C303 C311 1.503 . S
C304 C303 1.410 . S
C304 C305 1.392 . S
C304 C307 1.511 . S
C305 C301 1.376 . S
C305 C304 1.392 . S
C305 H317 0.929 . S
C306 C302 1.531 . S
C306 H318 0.960 . S
C306 H319 0.962 . S
C306 H320 0.960 . S
C307 C304 1.511 . S
C307 H321 0.961 . S
C307 H322 0.961 . S
C307 H323 0.961 . S
C308 C309 1.370 . S
C308 C310 1.363 . S
C308 H324 0.931 . S
C309 C308 1.370 . S
C309 C313 1.408 . S
C310 C308 1.363 . S
C310 C311 1.370 . S
C310 C314 1.524 . S
C311 C303 1.503 . S
C311 C310 1.370 . S
C311 C312 1.403 . S
C312 C311 1.403 . S
C312 C313 1.404 . S
C312 C315 1.539 . S
C313 C309 1.408 . S
C313 C312 1.404 . S
C313 H325 0.930 . S
C314 C310 1.524 . S
C314 H326 0.956 . S
C314 H327 0.961 . S
C314 H328 0.961 . S
C315 C312 1.539 . S
C315 H329 0.958 . S
C315 H330 0.961 . S
C315 H331 0.960 . S
H316 C300 0.931 . S
H317 C305 0.929 . S
H318 C306 0.960 . S
H319 C306 0.962 . S
H320 C306 0.960 . S
H321 C307 0.961 . S
H322 C307 0.961 . S
H323 C307 0.961 . S
H324 C308 0.931 . S
H325 C313 0.930 . S
H326 C314 0.956 . S
H327 C314 0.961 . S
H328 C314 0.961 . S
H329 C315 0.958 . S
H330 C315 0.961 . S
H331 C315 0.960 . S
C332 C333 1.391 . S
C332 C334 1.394 . S
C332 H348 0.931 . S
C333 C332 1.391 . S
C333 C337 1.376 . S
C334 C332 1.394 . S
C334 C335 1.369 . S
C334 C338 1.531 . S
C335 C334 1.369 . S
C335 C336 1.410 . S
C335 C343 1.503 . S
C336 C335 1.410 . S
C336 C337 1.392 . S
C336 C339 1.511 . S
C337 C333 1.376 . S
C337 C336 1.392 . S
C337 H349 0.929 1_545 S
C338 C334 1.531 . S
C338 H350 0.960 . S
C338 H351 0.962 . S
C338 H352 0.960 . S
C339 C336 1.511 . S
C339 H353 0.961 . S
C339 H354 0.961 . S
C339 H355 0.961 . S
C340 C341 1.370 . S
C340 C342 1.363 . S
C340 H356 0.931 . S
C341 C340 1.370 . S
C341 C345 1.408 . S
C342 C340 1.363 . S
C342 C343 1.370 . S
C342 C346 1.524 . S
C343 C335 1.503 . S
C343 C342 1.370 . S
C343 C344 1.403 . S
C344 C343 1.403 . S
C344 C345 1.404 . S
C344 C347 1.539 . S
C345 C341 1.408 . S
C345 C344 1.404 . S
C345 H357 0.930 . S
C346 C342 1.524 . S
C346 H358 0.956 . S
C346 H359 0.961 . S
C346 H360 0.961 . S
C347 C344 1.539 . S
C347 H361 0.958 1_545 S
C347 H362 0.961 1_545 S
C347 H363 0.960 1_545 S
H348 C332 0.931 . S
H349 C337 0.929 1_565 S
H350 C338 0.960 . S
H351 C338 0.962 . S
H352 C338 0.960 . S
H353 C339 0.961 . S
H354 C339 0.961 . S
H355 C339 0.961 . S
H356 C340 0.931 . S
H357 C345 0.930 . S
H358 C346 0.956 . S
H359 C346 0.961 . S
H360 C346 0.961 . S
H361 C347 0.958 1_565 S
H362 C347 0.961 1_565 S
H363 C347 0.960 1_565 S
C364 C365 1.391 . S
C364 C366 1.394 . S
C364 H380 0.931 . S
C365 C364 1.391 . S
C365 C369 1.376 . S
C366 C364 1.394 . S
C366 C367 1.369 . S
C366 C370 1.531 . S
C367 C366 1.369 . S
C367 C368 1.410 . S
C367 C375 1.503 . S
C368 C367 1.410 . S
C368 C369 1.392 . S
C368 C371 1.511 . S
C369 C365 1.376 . S
C369 C368 1.392 . S
C369 H381 0.929 1_655 S
C370 C366 1.531 . S
C370 H382 0.960 . S
C370 H383 0.962 . S
C370 H384 0.960 . S
C371 C368 1.511 . S
C371 H385 0.961 1_655 S
C371 H386 0.961 . S
C371 H387 0.961 . S
C372 C373 1.370 . S
C372 C374 1.363 . S
C372 H388 0.931 . S
C373 C372 1.370 . S
C373 C377 1.408 . S
C374 C372 1.363 . S
C374 C375 1.370 . S
C374 C378 1.524 . S
C375 C367 1.503 . S
C375 C374 1.370 . S
C375 C376 1.403 . S
C376 C375 1.403 . S
C376 C377 1.404 . S
C376 C379 1.539 . S
C377 C373 1.408 . S
C377 C376 1.404 . S
C377 H389 0.930 . S
C378 C374 1.524 . S
C378 H390 0.956 . S
C378 H391 0.961 . S
C378 H392 0.961 . S
C379 C376 1.539 . S
C379 H393 0.958 . S
C379 H394 0.961 . S
C379 H395 0.960 . S
H380 C364 0.931 . S
H381 C369 0.929 1_455 S
H382 C370 0.960 . S
H383 C370 0.962 . S
H384 C370 0.960 . S
H385 C371 0.961 1_455 S
H386 C371 0.961 . S
H387 C371 0.961 . S
H388 C372 0.931 . S
H389 C377 0.930 . S
H390 C378 0.956 . S
H391 C378 0.961 . S
H392 C378 0.961 . S
H393 C379 0.958 . S
H394 C379 0.961 . S
H395 C379 0.960 . S
C396 C397 1.391 1_554 S
C396 C398 1.394 . S
C396 H412 0.931 . S
C397 C396 1.391 1_556 S
C397 C401 1.376 . S
C398 C396 1.394 . S
C398 C399 1.369 . S
C398 C402 1.531 . S
C399 C398 1.369 . S
C399 C400 1.410 1_554 S
C399 C407 1.503 . S
C400 C399 1.410 1_556 S
C400 C401 1.392 . S
C400 C403 1.511 . S
C401 C397 1.376 . S
C401 C400 1.392 . S
C401 H413 0.929 . S
C402 C398 1.531 . S
C402 H414 0.960 . S
C402 H415 0.962 . S
C402 H416 0.960 . S
C403 C400 1.511 . S
C403 H417 0.961 . S
C403 H418 0.961 . S
C403 H419 0.961 1_556 S
C404 C405 1.370 1_556 S
C404 C406 1.363 . S
C404 H420 0.931 . S
C405 C404 1.370 1_554 S
C405 C409 1.408 . S
C406 C404 1.363 . S
C406 C407 1.370 1_556 S
C406 C410 1.524 . S
C407 C399 1.503 . S
C407 C406 1.370 1_554 S
C407 C408 1.403 . S
C408 C407 1.403 . S
C408 C409 1.404 . S
C408 C411 1.539 . S
C409 C405 1.408 . S
C409 C408 1.404 . S
C409 H421 0.930 . S
C410 C406 1.524 . S
C410 H422 0.956 . S
C410 H423 0.961 . S
C410 H424 0.961 . S
C411 C408 1.539 . S
C411 H425 0.958 . S
C411 H426 0.961 . S
C411 H427 0.960 . S
H412 C396 0.931 . S
H413 C401 0.929 . S
H414 C402 0.960 . S
H415 C402 0.962 . S
H416 C402 0.960 . S
H417 C403 0.961 . S
H418 C403 0.961 . S
H419 C403 0.961 1_554 S
H420 C404 0.931 . S
H421 C409 0.930 . S
H422 C410 0.956 . S
H423 C410 0.961 . S
H424 C410 0.961 . S
H425 C411 0.958 . S
H426 C411 0.961 . S
H427 C411 0.960 . S
C428 C429 1.391 . S
C428 C430 1.394 . S
C428 H444 0.931 . S
C429 C428 1.391 . S
C429 C433 1.376 . S
C430 C428 1.394 . S
C430 C431 1.369 . S
C430 C434 1.531 . S
C431 C430 1.369 . S
C431 C432 1.410 . S
C431 C439 1.503 1_545 S
C432 C431 1.410 . S
C432 C433 1.392 . S
C432 C435 1.511 . S
C433 C429 1.376 . S
C433 C432 1.392 . S
C433 H445 0.929 . S
C434 C430 1.531 . S
C434 H446 0.960 1_545 S
C434 H447 0.962 . S
C434 H448 0.960 . S
C435 C432 1.511 . S
C435 H449 0.961 . S
C435 H450 0.961 1_545 S
C435 H451 0.961 . S
C436 C437 1.370 . S
C436 C438 1.363 . S
C436 H452 0.931 . S
C437 C436 1.370 . S
C437 C441 1.408 . S
C438 C436 1.363 . S
C438 C439 1.370 . S
C438 C442 1.524 . S
C439 C431 1.503 1_565 S
C439 C438 1.370 . S
C439 C440 1.403 . S
C440 C439 1.403 . S
C440 C441 1.404 . S
C440 C443 1.539 . S
C441 C437 1.408 . S
C441 C440 1.404 . S
C441 H453 0.930 . S
C442 C438 1.524 . S
C442 H454 0.956 1_565 S
C442 H455 0.961 1_565 S
C442 H456 0.961 . S
C443 C440 1.539 . S
C443 H457 0.958 . S
C443 H458 0.961 . S
C443 H459 0.960 . S
H444 C428 0.931 . S
H445 C433 0.929 . S
H446 C434 0.960 1_565 S
H447 C434 0.962 . S
H448 C434 0.960 . S
H449 C435 0.961 . S
H450 C435 0.961 1_565 S
H451 C435 0.961 . S
H452 C436 0.931 . S
H453 C441 0.930 . S
H454 C442 0.956 1_545 S
H455 C442 0.961 1_545 S
H456 C442 0.961 . S
H457 C443 0.958 . S
H458 C443 0.961 . S
H459 C443 0.960 . S
C460 C461 1.391 . S
C460 C462 1.394 . S
C460 H476 0.931 . S
C461 C460 1.391 . S
C461 C465 1.376 . S
C462 C460 1.394 . S
C462 C463 1.369 . S
C462 C466 1.531 . S
C463 C462 1.369 . S
C463 C464 1.410 . S
C463 C471 1.503 1_655 S
C464 C463 1.410 . S
C464 C465 1.392 . S
C464 C467 1.511 . S
C465 C461 1.376 . S
C465 C464 1.392 . S
C465 H477 0.929 . S
C466 C462 1.531 . S
C466 H478 0.960 1_655 S
C466 H479 0.962 . S
C466 H480 0.960 . S
C467 C464 1.511 . S
C467 H481 0.961 . S
C467 H482 0.961 1_655 S
C467 H483 0.961 . S
C468 C469 1.370 . S
C468 C470 1.363 . S
C468 H484 0.931 . S
C469 C468 1.370 . S
C469 C473 1.408 . S
C470 C468 1.363 . S
C470 C471 1.370 . S
C470 C474 1.524 . S
C471 C463 1.503 1_455 S
C471 C470 1.370 . S
C471 C472 1.403 . S
C472 C471 1.403 . S
C472 C473 1.404 . S
C472 C475 1.539 . S
C473 C469 1.408 . S
C473 C472 1.404 . S
C473 H485 0.930 . S
C474 C470 1.524 . S
C474 H486 0.956 . S
C474 H487 0.961 . S
C474 H488 0.961 . S
C475 C472 1.539 . S
C475 H489 0.958 . S
C475 H490 0.961 . S
C475 H491 0.960 1_455 S
H476 C460 0.931 . S
H477 C465 0.929 . S
H478 C466 0.960 1_455 S
H479 C466 0.962 . S
H480 C466 0.960 . S
H481 C467 0.961 . S
H482 C467 0.961 1_455 S
H483 C467 0.961 . S
H484 C468 0.931 . S
H485 C473 0.930 . S
H486 C474 0.956 . S
H487 C474 0.961 . S
H488 C474 0.961 . S
H489 C475 0.958 . S
H490 C475 0.961 . S
H491 C475 0.960 1_655 S
C492 C493 1.391 . S
C492 C494 1.394 . S
C492 H508 0.931 . S
C493 C492 1.391 . S
C493 C497 1.376 . S
C494 C492 1.394 . S
C494 C495 1.369 1_655 S
C494 C498 1.531 . S
C495 C494 1.369 1_455 S
C495 C496 1.409 . S
C495 C503 1.503 . S
C496 C495 1.409 . S
C496 C497 1.392 1_455 S
C496 C499 1.512 . S
C497 C493 1.376 . S
C497 C496 1.392 1_655 S
C497 H509 0.929 . S
C498 C494 1.531 . S
C498 H510 0.960 1_655 S
C498 H511 0.962 . S
C498 H512 0.960 . S
C499 C496 1.512 . S
C499 H513 0.961 . S
C499 H514 0.961 . S
C499 H515 0.961 . S
C500 C501 1.370 1_655 S
C500 C502 1.363 . S
C500 H516 0.931 . S
C501 C500 1.370 1_455 S
C501 C505 1.408 . S
C502 C500 1.363 . S
C502 C503 1.370 1_655 S
C502 C506 1.524 . S
C503 C495 1.503 . S
C503 C502 1.370 1_455 S
C503 C504 1.403 . S
C504 C503 1.403 . S
C504 C505 1.404 . S
C504 C507 1.539 . S
C505 C501 1.408 . S
C505 C504 1.404 . S
C505 H517 0.930 . S
C506 C502 1.524 . S
C506 H518 0.956 . S
C506 H519 0.961 . S
C506 H520 0.961 . S
C507 C504 1.539 . S
C507 H521 0.958 . S
C507 H522 0.961 . S
C507 H523 0.960 . S
H508 C492 0.931 . S
H509 C497 0.929 . S
H510 C498 0.960 1_455 S
H511 C498 0.962 . S
H512 C498 0.960 . S
H513 C499 0.961 . S
H514 C499 0.961 . S
H515 C499 0.961 . S
H516 C500 0.931 . S
H517 C505 0.930 . S
H518 C506 0.956 . S
H519 C506 0.961 . S
H520 C506 0.961 . S
H521 C507 0.958 . S
H522 C507 0.961 . S
H523 C507 0.960 . S
C524 C525 1.391 . S
C524 C526 1.394 . S
C524 H540 0.931 . S
C525 C524 1.391 . S
C525 C529 1.376 . S
C526 C524 1.394 . S
C526 C527 1.369 . S
C526 C530 1.531 . S
C527 C526 1.369 . S
C527 C528 1.410 . S
C527 C535 1.503 1_556 S
C528 C527 1.410 . S
C528 C529 1.392 . S
C528 C531 1.511 . S
C529 C525 1.376 . S
C529 C528 1.392 . S
C529 H541 0.929 . S
C530 C526 1.531 . S
C530 H542 0.957 . S
C530 H543 0.962 . S
C530 H544 0.960 . S
C531 C528 1.511 . S
C531 H545 0.961 . S
C531 H546 0.961 1_556 S
C531 H547 0.961 1_556 S
C532 C533 1.370 . S
C532 C534 1.363 . S
C532 H548 0.931 . S
C533 C532 1.370 . S
C533 C537 1.408 . S
C534 C532 1.363 . S
C534 C535 1.370 . S
C534 C538 1.524 1_554 S
C535 C527 1.503 1_554 S
C535 C534 1.370 . S
C535 C536 1.403 . S
C536 C535 1.403 . S
C536 C537 1.404 . S
C536 C539 1.539 . S
C537 C533 1.408 . S
C537 C536 1.404 . S
C537 H549 0.930 . S
C538 C534 1.524 1_556 S
C538 H550 0.956 . S
C538 H551 0.961 . S
C538 H552 0.961 1_556 S
C539 C536 1.539 . S
C539 H553 0.958 . S
C539 H554 0.961 . S
C539 H555 0.960 . S
H540 C524 0.931 . S
H541 C529 0.929 . S
H542 C530 0.957 . S
H543 C530 0.962 . S
H544 C530 0.960 . S
H545 C531 0.961 . S
H546 C531 0.961 1_554 S
H547 C531 0.961 1_554 S
H548 C532 0.931 . S
H549 C537 0.930 . S
H550 C538 0.956 . S
H551 C538 0.961 . S
H552 C538 0.961 1_554 S
H553 C539 0.958 . S
H554 C539 0.961 . S
H555 C539 0.960 . S
C556 C557 1.391 . S
C556 C558 1.394 1_545 S
C556 H572 0.931 1_545 S
C557 C556 1.391 . S
C557 C561 1.376 . S
C558 C556 1.394 1_565 S
C558 C559 1.381 . S
C558 C562 1.531 . S
C559 C558 1.381 . S
C559 C560 1.392 1_565 S
C559 C567 1.508 . S
C560 C559 1.392 1_545 S
C560 C561 1.392 . S
C560 C563 1.511 . S
C561 C557 1.376 . S
C561 C560 1.392 . S
C561 H573 0.929 . S
C562 C558 1.531 . S
C562 H574 0.960 . S
C562 H575 0.962 . S
C562 H576 0.960 . S
C563 C560 1.511 . S
C563 H577 0.961 . S
C563 H578 0.961 . S
C563 H579 0.961 . S
C564 C565 1.370 . S
C564 C566 1.363 1_565 S
C564 H580 0.931 1_565 S
C565 C564 1.370 . S
C565 C569 1.408 . S
C566 C564 1.363 1_545 S
C566 C567 1.370 1_545 S
C566 C570 1.524 . S
C567 C559 1.508 . S
C567 C566 1.370 1_565 S
C567 C568 1.403 . S
C568 C567 1.403 . S
C568 C569 1.404 . S
C568 C571 1.539 . S
C569 C565 1.408 . S
C569 C568 1.404 . S
C569 H581 0.930 . S
C570 C566 1.524 . S
C570 H582 0.956 . S
C570 H583 0.961 . S
C570 H584 0.961 . S
C571 C568 1.539 . S
C571 H585 0.958 . S
C571 H586 0.961 . S
C571 H587 0.960 . S
H572 C556 0.931 1_565 S
H573 C561 0.929 . S
H574 C562 0.960 . S
H575 C562 0.962 . S
H576 C562 0.960 . S
H577 C563 0.961 . S
H578 C563 0.961 . S
H579 C563 0.961 . S
H580 C564 0.931 1_545 S
H581 C569 0.930 . S
H582 C570 0.956 . S
H583 C570 0.961 . S
H584 C570 0.961 . S
H585 C571 0.958 . S
H586 C571 0.961 . S
H587 C571 0.960 . S
C588 C589 1.391 . S
C588 C590 1.394 . S
C588 H604 0.931 . S
C589 C588 1.391 . S
C589 C593 1.376 . S
C590 C588 1.394 . S
C590 C591 1.369 . S
C590 C594 1.531 . S
C591 C590 1.369 . S
C591 C592 1.410 . S
C591 C599 1.503 . S
C592 C591 1.410 . S
C592 C593 1.392 . S
C592 C595 1.511 . S
C593 C589 1.376 . S
C593 C592 1.392 . S
C593 H605 0.929 . S
C594 C590 1.531 . S
C594 H606 0.960 . S
C594 H607 0.962 . S
C594 H608 0.960 . S
C595 C592 1.511 . S
C595 H609 0.961 . S
C595 H610 0.961 . S
C595 H611 0.961 . S
C596 C597 1.370 . S
C596 C598 1.363 . S
C596 H612 0.931 . S
C597 C596 1.370 . S
C597 C601 1.408 . S
C598 C596 1.363 . S
C598 C599 1.370 . S
C598 C602 1.524 . S
C599 C591 1.503 . S
C599 C598 1.370 . S
C599 C600 1.403 . S
C600 C599 1.403 . S
C600 C601 1.404 . S
C600 C603 1.539 . S
C601 C597 1.408 . S
C601 C600 1.404 . S
C601 H613 0.930 . S
C602 C598 1.524 . S
C602 H614 0.956 . S
C602 H615 0.961 . S
C602 H616 0.961 . S
C603 C600 1.539 . S
C603 H617 0.958 . S
C603 H618 0.961 . S
C603 H619 0.960 . S
H604 C588 0.931 . S
H605 C593 0.929 . S
H606 C594 0.960 . S
H607 C594 0.962 . S
H608 C594 0.960 . S
H609 C595 0.961 . S
H610 C595 0.961 . S
H611 C595 0.961 . S
H612 C596 0.931 . S
H613 C601 0.930 . S
H614 C602 0.956 . S
H615 C602 0.961 . S
H616 C602 0.961 . S
H617 C603 0.958 . S
H618 C603 0.961 . S
H619 C603 0.960 . S
C620 C621 1.391 . S
C620 C622 1.394 . S
C620 H636 0.931 . S
C621 C620 1.391 . S
C621 C625 1.376 . S
C622 C620 1.394 . S
C622 C623 1.369 . S
C622 C626 1.531 . S
C623 C622 1.369 . S
C623 C624 1.410 . S
C623 C631 1.503 . S
C624 C623 1.410 . S
C624 C625 1.392 . S
C624 C627 1.511 . S
C625 C621 1.376 . S
C625 C624 1.392 . S
C625 H637 0.929 . S
C626 C622 1.531 . S
C626 H638 0.960 . S
C626 H639 0.962 . S
C626 H640 0.960 . S
C627 C624 1.511 . S
C627 H641 0.961 . S
C627 H642 0.961 . S
C627 H643 0.961 . S
C628 C629 1.370 . S
C628 C630 1.363 . S
C628 H644 0.931 . S
C629 C628 1.370 . S
C629 C633 1.408 . S
C630 C628 1.363 . S
C630 C631 1.370 . S
C630 C634 1.524 . S
C631 C623 1.503 . S
C631 C630 1.370 . S
C631 C632 1.403 . S
C632 C631 1.403 . S
C632 C633 1.404 . S
C632 C635 1.539 . S
C633 C629 1.408 . S
C633 C632 1.404 . S
C633 H645 0.930 . S
C634 C630 1.524 . S
C634 H646 0.956 . S
C634 H647 0.961 . S
C634 H648 0.961 . S
C635 C632 1.539 . S
C635 H649 0.958 . S
C635 H650 0.961 . S
C635 H651 0.960 . S
H636 C620 0.931 . S
H637 C625 0.929 . S
H638 C626 0.960 . S
H639 C626 0.962 . S
H640 C626 0.960 . S
H641 C627 0.961 . S
H642 C627 0.961 . S
H643 C627 0.961 . S
H644 C628 0.931 . S
H645 C633 0.930 . S
H646 C634 0.956 . S
H647 C634 0.961 . S
H648 C634 0.961 . S
H649 C635 0.958 . S
H650 C635 0.961 . S
H651 C635 0.960 . S
C652 C653 1.391 . S
C652 C654 1.394 . S
C652 H668 0.931 . S
C653 C652 1.391 . S
C653 C657 1.376 . S
C654 C652 1.394 . S
C654 C655 1.369 . S
C654 C658 1.531 . S
C655 C654 1.369 . S
C655 C656 1.410 . S
C655 C663 1.503 . S
C656 C655 1.410 . S
C656 C657 1.392 . S
C656 C659 1.511 . S
C657 C653 1.376 . S
C657 C656 1.392 . S
C657 H669 0.929 . S
C658 C654 1.531 . S
C658 H670 0.960 . S
C658 H671 0.962 . S
C658 H672 0.960 . S
C659 C656 1.511 . S
C659 H673 0.961 . S
C659 H674 0.961 . S
C659 H675 0.961 . S
C660 C661 1.370 . S
C660 C662 1.363 . S
C660 H676 0.931 . S
C661 C660 1.370 . S
C661 C665 1.408 . S
C662 C660 1.363 . S
C662 C663 1.370 . S
C662 C666 1.524 . S
C663 C655 1.503 . S
C663 C662 1.370 . S
C663 C664 1.403 . S
C664 C663 1.403 . S
C664 C665 1.404 . S
C664 C667 1.539 . S
C665 C661 1.408 . S
C665 C664 1.404 . S
C665 H677 0.930 . S
C666 C662 1.524 . S
C666 H678 0.956 . S
C666 H679 0.961 . S
C666 H680 0.961 . S
C667 C664 1.539 . S
C667 H681 0.958 . S
C667 H682 0.961 . S
C667 H683 0.960 . S
H668 C652 0.931 . S
H669 C657 0.929 . S
H670 C658 0.960 . S
H671 C658 0.962 . S
H672 C658 0.960 . S
H673 C659 0.961 . S
H674 C659 0.961 . S
H675 C659 0.961 . S
H676 C660 0.931 . S
H677 C665 0.930 . S
H678 C666 0.956 . S
H679 C666 0.961 . S
H680 C666 0.961 . S
H681 C667 0.958 . S
H682 C667 0.961 . S
H683 C667 0.960 . S
C684 C685 1.391 . S
C684 C686 1.394 . S
C684 H700 0.931 . S
C685 C684 1.391 . S
C685 C689 1.376 . S
C686 C684 1.394 . S
C686 C687 1.369 . S
C686 C690 1.531 . S
C687 C686 1.369 . S
C687 C688 1.410 . S
C687 C695 1.503 . S
C688 C687 1.410 . S
C688 C689 1.392 . S
C688 C691 1.511 . S
C689 C685 1.376 . S
C689 C688 1.392 . S
C689 H701 0.929 . S
C690 C686 1.531 . S
C690 H702 0.960 . S
C690 H703 0.962 . S
C690 H704 0.960 . S
C691 C688 1.511 . S
C691 H705 0.961 . S
C691 H706 0.961 . S
C691 H707 0.961 . S
C692 C693 1.370 . S
C692 C694 1.363 . S
C692 H708 0.931 . S
C693 C692 1.370 . S
C693 C697 1.408 . S
C694 C692 1.363 . S
C694 C695 1.370 . S
C694 C698 1.524 . S
C695 C687 1.503 . S
C695 C694 1.370 . S
C695 C696 1.403 . S
C696 C695 1.403 . S
C696 C697 1.404 . S
C696 C699 1.539 . S
C697 C693 1.408 . S
C697 C696 1.404 . S
C697 H709 0.930 . S
C698 C694 1.524 . S
C698 H710 0.956 . S
C698 H711 0.961 . S
C698 H712 0.961 . S
C699 C696 1.539 . S
C699 H713 0.958 . S
C699 H714 0.961 . S
C699 H715 0.960 . S
H700 C684 0.931 . S
H701 C689 0.929 . S
H702 C690 0.960 . S
H703 C690 0.962 . S
H704 C690 0.960 . S
H705 C691 0.961 . S
H706 C691 0.961 . S
H707 C691 0.961 . S
H708 C692 0.931 . S
H709 C697 0.930 . S
H710 C698 0.956 . S
H711 C698 0.961 . S
H712 C698 0.961 . S
H713 C699 0.958 . S
H714 C699 0.961 . S
H715 C699 0.960 . S
C716 C717 1.391 . S
C716 C718 1.394 . S
C716 H732 0.931 . S
C717 C716 1.391 . S
C717 C721 1.376 . S
C718 C716 1.394 . S
C718 C719 1.369 . S
C718 C722 1.531 . S
C719 C718 1.369 . S
C719 C720 1.410 . S
C719 C727 1.503 . S
C720 C719 1.410 . S
C720 C721 1.392 . S
C720 C723 1.511 . S
C721 C717 1.376 . S
C721 C720 1.392 . S
C721 H733 0.929 . S
C722 C718 1.531 . S
C722 H734 0.960 . S
C722 H735 0.962 . S
C722 H736 0.960 . S
C723 C720 1.511 . S
C723 H737 0.961 . S
C723 H738 0.961 . S
C723 H739 0.961 . S
C724 C725 1.370 . S
C724 C726 1.363 . S
C724 H740 0.931 . S
C725 C724 1.370 . S
C725 C729 1.408 . S
C726 C724 1.363 . S
C726 C727 1.370 . S
C726 C730 1.524 . S
C727 C719 1.503 . S
C727 C726 1.370 . S
C727 C728 1.403 . S
C728 C727 1.403 . S
C728 C729 1.404 . S
C728 C731 1.539 . S
C729 C725 1.408 . S
C729 C728 1.404 . S
C729 H741 0.930 . S
C730 C726 1.524 . S
C730 H742 0.956 . S
C730 H743 0.961 . S
C730 H744 0.961 . S
C731 C728 1.539 . S
C731 H745 0.958 . S
C731 H746 0.961 . S
C731 H747 0.960 . S
H732 C716 0.931 . S
H733 C721 0.929 . S
H734 C722 0.960 . S
H735 C722 0.962 . S
H736 C722 0.960 . S
H737 C723 0.961 . S
H738 C723 0.961 . S
H739 C723 0.961 . S
H740 C724 0.931 . S
H741 C729 0.930 . S
H742 C730 0.956 . S
H743 C730 0.961 . S
H744 C730 0.961 . S
H745 C731 0.958 . S
H746 C731 0.961 . S
H747 C731 0.960 . S
C748 C749 1.391 . S
C748 C750 1.394 . S
C748 H764 0.931 . S
C749 C748 1.391 . S
C749 C753 1.376 . S
C750 C748 1.394 . S
C750 C751 1.369 . S
C750 C754 1.531 . S
C751 C750 1.369 . S
C751 C752 1.410 . S
C751 C759 1.503 . S
C752 C751 1.410 . S
C752 C753 1.392 . S
C752 C755 1.511 . S
C753 C749 1.376 . S
C753 C752 1.392 . S
C753 H765 0.929 . S
C754 C750 1.531 . S
C754 H766 0.960 . S
C754 H767 0.962 . S
C754 H768 0.960 . S
C755 C752 1.511 . S
C755 H769 0.961 . S
C755 H770 0.961 . S
C755 H771 0.961 . S
C756 C757 1.370 . S
C756 C758 1.363 . S
C756 H772 0.931 . S
C757 C756 1.370 . S
C757 C761 1.408 . S
C758 C756 1.363 . S
C758 C759 1.370 . S
C758 C762 1.524 . S
C759 C751 1.503 . S
C759 C758 1.370 . S
C759 C760 1.403 . S
C760 C759 1.403 . S
C760 C761 1.404 . S
C760 C763 1.539 . S
C761 C757 1.408 . S
C761 C760 1.404 . S
C761 H773 0.930 . S
C762 C758 1.524 . S
C762 H774 0.956 . S
C762 H775 0.961 . S
C762 H776 0.961 . S
C763 C760 1.539 . S
C763 H777 0.958 . S
C763 H778 0.961 . S
C763 H779 0.960 . S
H764 C748 0.931 . S
H765 C753 0.929 . S
H766 C754 0.960 . S
H767 C754 0.962 . S
H768 C754 0.960 . S
H769 C755 0.961 . S
H770 C755 0.961 . S
H771 C755 0.961 . S
H772 C756 0.931 . S
H773 C761 0.930 . S
H774 C762 0.956 . S
H775 C762 0.961 . S
H776 C762 0.961 . S
H777 C763 0.958 . S
H778 C763 0.961 . S
H779 C763 0.960 . S
C780 C781 1.391 . S
C780 C782 1.394 . S
C780 H796 0.931 . S
C781 C780 1.391 . S
C781 C785 1.376 1_655 S
C782 C780 1.394 . S
C782 C783 1.369 . S
C782 C786 1.531 . S
C783 C782 1.369 . S
C783 C784 1.410 1_655 S
C783 C791 1.503 1_655 S
C784 C783 1.410 1_455 S
C784 C785 1.392 . S
C784 C787 1.511 . S
C785 C781 1.376 1_455 S
C785 C784 1.392 . S
C785 H797 0.929 . S
C786 C782 1.531 . S
C786 H798 0.960 . S
C786 H799 0.962 . S
C786 H800 0.960 . S
C787 C784 1.511 . S
C787 H801 0.961 . S
C787 H802 0.961 . S
C787 H803 0.961 . S
C788 C789 1.370 . S
C788 C790 1.363 . S
C788 H804 0.931 . S
C789 C788 1.370 . S
C789 C793 1.408 . S
C790 C788 1.363 . S
C790 C791 1.370 . S
C790 C794 1.524 . S
C791 C783 1.503 1_455 S
C791 C790 1.370 . S
C791 C792 1.403 1_455 S
C792 C791 1.403 1_655 S
C792 C793 1.404 1_655 S
C792 C795 1.539 . S
C793 C789 1.408 . S
C793 C792 1.404 1_455 S
C793 H805 0.930 1_455 S
C794 C790 1.524 . S
C794 H806 0.956 . S
C794 H807 0.961 . S
C794 H808 0.961 . S
C795 C792 1.539 . S
C795 H809 0.958 . S
C795 H810 0.961 . S
C795 H811 0.960 . S
H796 C780 0.931 . S
H797 C785 0.929 . S
H798 C786 0.960 . S
H799 C786 0.962 . S
H800 C786 0.960 . S
H801 C787 0.961 . S
H802 C787 0.961 . S
H803 C787 0.961 . S
H804 C788 0.931 . S
H805 C793 0.930 1_655 S
H806 C794 0.956 . S
H807 C794 0.961 . S
H808 C794 0.961 . S
H809 C795 0.958 . S
H810 C795 0.961 . S
H811 C795 0.960 . S
C812 C813 1.391 . S
C812 C814 1.394 . S
C812 H828 0.931 . S
C813 C812 1.391 . S
C813 C817 1.376 . S
C814 C812 1.394 . S
C814 C815 1.369 . S
C814 C818 1.531 . S
C815 C814 1.369 . S
C815 C816 1.410 . S
C815 C823 1.503 . S
C816 C815 1.410 . S
C816 C817 1.392 . S
C816 C819 1.511 . S
C817 C813 1.376 . S
C817 C816 1.392 . S
C817 H829 0.929 . S
C818 C814 1.531 . S
C818 H830 0.960 . S
C818 H831 0.962 . S
C818 H832 0.960 . S
C819 C816 1.511 . S
C819 H833 0.961 . S
C819 H834 0.961 . S
C819 H835 0.961 . S
C820 C821 1.370 . S
C820 C822 1.363 . S
C820 H836 0.931 . S
C821 C820 1.370 . S
C821 C825 1.408 . S
C822 C820 1.363 . S
C822 C823 1.370 . S
C822 C826 1.524 . S
C823 C815 1.503 . S
C823 C822 1.370 . S
C823 C824 1.403 . S
C824 C823 1.403 . S
C824 C825 1.404 . S
C824 C827 1.539 . S
C825 C821 1.408 . S
C825 C824 1.404 . S
C825 H837 0.930 . S
C826 C822 1.524 . S
C826 H838 0.956 . S
C826 H839 0.961 . S
C826 H840 0.961 . S
C827 C824 1.539 . S
C827 H841 0.958 . S
C827 H842 0.961 . S
C827 H843 0.960 . S
H828 C812 0.931 . S
H829 C817 0.929 . S
H830 C818 0.960 . S
H831 C818 0.962 . S
H832 C818 0.960 . S
H833 C819 0.961 . S
H834 C819 0.961 . S
H835 C819 0.961 . S
H836 C820 0.931 . S
H837 C825 0.930 . S
H838 C826 0.956 . S
H839 C826 0.961 . S
H840 C826 0.961 . S
H841 C827 0.958 . S
H842 C827 0.961 . S
H843 C827 0.960 . S
C844 C845 1.391 . S
C844 C846 1.394 1_545 S
C844 H860 0.931 1_545 S
C845 C844 1.391 . S
C845 C849 1.376 . S
C846 C844 1.394 1_565 S
C846 C847 1.369 . S
C846 C850 1.531 . S
C847 C846 1.369 . S
C847 C848 1.410 1_565 S
C847 C855 1.503 . S
C848 C847 1.410 1_545 S
C848 C849 1.392 . S
C848 C851 1.511 . S
C849 C845 1.376 . S
C849 C848 1.392 . S
C849 H861 0.929 . S
C850 C846 1.531 . S
C850 H862 0.960 . S
C850 H863 0.962 . S
C850 H864 0.960 . S
C851 C848 1.511 . S
C851 H865 0.961 . S
C851 H866 0.961 . S
C851 H867 0.961 . S
C852 C853 1.370 1_545 S
C852 C854 1.363 . S
C852 H868 0.931 . S
C853 C852 1.370 1_565 S
C853 C857 1.408 . S
C854 C852 1.363 . S
C854 C855 1.370 1_545 S
C854 C858 1.524 . S
C855 C847 1.503 . S
C855 C854 1.370 1_565 S
C855 C856 1.403 . S
C856 C855 1.403 . S
C856 C857 1.404 . S
C856 C859 1.539 . S
C857 C853 1.408 . S
C857 C856 1.404 . S
C857 H869 0.930 . S
C858 C854 1.524 . S
C858 H870 0.956 . S
C858 H871 0.961 . S
C858 H872 0.961 . S
C859 C856 1.539 . S
C859 H873 0.958 . S
C859 H874 0.961 . S
C859 H875 0.960 . S
H860 C844 0.931 1_565 S
H861 C849 0.929 . S
H862 C850 0.960 . S
H863 C850 0.962 . S
H864 C850 0.960 . S
H865 C851 0.961 . S
H866 C851 0.961 . S
H867 C851 0.961 . S
H868 C852 0.931 . S
H869 C857 0.930 . S
H870 C858 0.956 . S
H871 C858 0.961 . S
H872 C858 0.961 . S
H873 C859 0.958 . S
H874 C859 0.961 . S
H875 C859 0.960 . S
C205 C173 2.545 . S
C213 C17 2.547 . S
C237 C51 2.549 . S
C245 C103 2.543 1_565 S
C269 C85 2.552 . S
C277 C137 2.539 1_455 S
C301 C35 2.536 . S
C309 C119 2.553 . S
C333 C71 2.538 1_545 S
C341 C153 2.552 . S
C365 C3 2.540 1_655 S
C373 C187 2.546 . S
C397 C130 0.594 . S
C405 C6 0.503 . S
C429 C164 0.496 . S
C437 C62 0.582 . S
C461 C176 0.610 . S
C469 C74 0.506 . S
C493 C158 0.583 . S
C501 C15 0.561 . S
C525 C56 0.543 . S
C533 C185 0.565 . S
C557 C124 0.554 . S
C565 C83 0.552 . S
C589 C22 0.506 . S
C597 C40 0.192 . S
C621 C96 0.251 . S
C629 C49 0.375 . S
C653 C28 0.184 . S
C661 C90 0.363 . S
C685 C117 0.373 . S
C693 C198 0.159 . S
C717 C151 0.343 . S
C725 C108 0.162 . S
C749 C142 0.114 . S
C757 C192 0.383 . S
C781 C139 3.406 . S
C789 C1 3.403 1_556 S
C813 C37 3.382 . S
C821 C171 3.395 . S
C845 C105 3.384 1_554 S
C853 C69 3.399 . S
