# Generated by pormake.
# Topology wka, (5)-cn, num edge types: 1
# Building blocks:
#     Node 0, Type 0, BuildingBlock: BEQFEK_clean_sbu_0, # of connection points: 5
#     Node 1, Type 0, BuildingBlock: BEQFEK_clean_sbu_0, # of connection points: 5
#     Node 2, Type 0, BuildingBlock: BEQFEK_clean_sbu_0, # of connection points: 5
#     Node 3, Type 0, BuildingBlock: BEQFEK_clean_sbu_0, # of connection points: 5
#     Node 4, Type 0, BuildingBlock: BEQFEK_clean_sbu_0, # of connection points: 5
#     Node 5, Type 0, BuildingBlock: BEQFEK_clean_sbu_0, # of connection points: 5
#     Node 6, Type 0, BuildingBlock: BEQFEK_clean_sbu_0, # of connection points: 5
#     Node 7, Type 0, BuildingBlock: BEQFEK_clean_sbu_0, # of connection points: 5
#     Node 8, Type 0, BuildingBlock: BEQFEK_clean_sbu_0, # of connection points: 5
#     Node 9, Type 0, BuildingBlock: BEQFEK_clean_sbu_0, # of connection points: 5
#     Node 10, Type 0, BuildingBlock: BEQFEK_clean_sbu_0, # of connection points: 5
#     Node 11, Type 0, BuildingBlock: BEQFEK_clean_sbu_0, # of connection points: 5
#     Edge 12, Type (0, 0), BuildingBlock: TEMPAE_clean_linker_10, # of connection points: 2
#     Edge 13, Type (0, 0), BuildingBlock: TEMPAE_clean_linker_10, # of connection points: 2
#     Edge 14, Type (0, 0), BuildingBlock: TEMPAE_clean_linker_10, # of connection points: 2
#     Edge 15, Type (0, 0), BuildingBlock: TEMPAE_clean_linker_10, # of connection points: 2
#     Edge 16, Type (0, 0), BuildingBlock: TEMPAE_clean_linker_10, # of connection points: 2
#     Edge 17, Type (0, 0), BuildingBlock: TEMPAE_clean_linker_10, # of connection points: 2
#     Edge 18, Type (0, 0), BuildingBlock: TEMPAE_clean_linker_10, # of connection points: 2
#     Edge 19, Type (0, 0), BuildingBlock: TEMPAE_clean_linker_10, # of connection points: 2
#     Edge 20, Type (0, 0), BuildingBlock: TEMPAE_clean_linker_10, # of connection points: 2
#     Edge 21, Type (0, 0), BuildingBlock: TEMPAE_clean_linker_10, # of connection points: 2
#     Edge 22, Type (0, 0), BuildingBlock: TEMPAE_clean_linker_10, # of connection points: 2
#     Edge 23, Type (0, 0), BuildingBlock: TEMPAE_clean_linker_10, # of connection points: 2
#     Edge 24, Type (0, 0), BuildingBlock: TEMPAE_clean_linker_10, # of connection points: 2
#     Edge 25, Type (0, 0), BuildingBlock: TEMPAE_clean_linker_10, # of connection points: 2
#     Edge 26, Type (0, 0), BuildingBlock: TEMPAE_clean_linker_10, # of connection points: 2
#     Edge 27, Type (0, 0), BuildingBlock: TEMPAE_clean_linker_10, # of connection points: 2
#     Edge 28, Type (0, 0), BuildingBlock: TEMPAE_clean_linker_10, # of connection points: 2
#     Edge 29, Type (0, 0), BuildingBlock: TEMPAE_clean_linker_10, # of connection points: 2
#     Edge 30, Type (0, 0), BuildingBlock: TEMPAE_clean_linker_10, # of connection points: 2
#     Edge 31, Type (0, 0), BuildingBlock: TEMPAE_clean_linker_10, # of connection points: 2
#     Edge 32, Type (0, 0), BuildingBlock: TEMPAE_clean_linker_10, # of connection points: 2
#     Edge 33, Type (0, 0), BuildingBlock: TEMPAE_clean_linker_10, # of connection points: 2
#     Edge 34, Type (0, 0), BuildingBlock: TEMPAE_clean_linker_10, # of connection points: 2
#     Edge 35, Type (0, 0), BuildingBlock: TEMPAE_clean_linker_10, # of connection points: 2
#     Edge 36, Type (0, 0), BuildingBlock: TEMPAE_clean_linker_10, # of connection points: 2
#     Edge 37, Type (0, 0), BuildingBlock: TEMPAE_clean_linker_10, # of connection points: 2
#     Edge 38, Type (0, 0), BuildingBlock: TEMPAE_clean_linker_10, # of connection points: 2
#     Edge 39, Type (0, 0), BuildingBlock: TEMPAE_clean_linker_10, # of connection points: 2
#     Edge 40, Type (0, 0), BuildingBlock: TEMPAE_clean_linker_10, # of connection points: 2
#     Edge 41, Type (0, 0), BuildingBlock: TEMPAE_clean_linker_10, # of connection points: 2
# Relax obj value: 0.389
# Max RMSD: 0.234
# Mean RMSD: 0.234
data_MOF--net-wka--node1-BEQFEK_clean_sbu_0--edge1-TEMPAE_clean_linker_10
_symmetry_space_group_name_H-M    P1
_symmetry_Int_Tables_number       1
_symmetry_cell_setting            triclinic
loop_
_symmetry_equiv_pos_as_xyz
'x, y, z'
_cell_length_a     68.978563
_cell_length_b     68.919089
_cell_length_c     17.937919
_cell_angle_alpha  89.987024
_cell_angle_beta   90.052133
_cell_angle_gamma 120.01015
loop_
_atom_site_label
_atom_site_type_symbol
_atom_site_fract_x
_atom_site_fract_y
_atom_site_fract_z
_atom_type_partial_charge
Co0 Co 0.11417 0.44624 0.9792 0.0
Co1 Co 0.08904 0.43641 0.13068 0.0
C2 C 0.06498 0.41235 0.99566 0.0
O3 O 0.0828 0.42405 0.95923 0.0
O4 O 0.06439 0.41449 0.06575 0.0
C5 C 0.1204 0.42543 0.8605 0.0
O6 O 0.11029 0.40905 0.90892 0.0
C7 C 0.0755 0.41383 0.27409 0.0
C8 C 0.07232 0.43886 0.34163 0.0
C9 C 0.07231 0.41875 0.34656 0.0
N10 N 0.07811 0.43065 0.22962 0.0
N11 N 0.07553 0.44524 0.26984 0.0
C12 C 0.07588 0.3935 0.24662 0.0
H13 H 0.09337 0.39708 0.24164 0.0
H14 H 0.06672 0.37921 0.28546 0.0
H15 H 0.06826 0.38893 0.19024 0.0
C16 C 0.14533 0.4378 0.0703 0.0
N17 N 0.12579 0.43751 0.06033 0.0
N18 N 0.11648 0.436 0.12566 0.0
C19 C 0.13077 0.43737 0.17952 0.0
C20 C 0.14907 0.43758 0.1465 0.0
C21 C 0.16065 0.43955 0.00829 0.0
H22 H 0.17135 0.45741 0.99256 0.0
H23 H 0.15098 0.43026 0.95885 0.0
H24 H 0.17141 0.43257 0.025 0.0
O25 O 0.11652 0.47614 0.00167 0.0
O26 O 0.09605 0.46671 0.10523 0.0
H27 H 0.14752 0.45628 0.27821 0.0
H28 H 0.12277 0.4301 0.29531 0.0
C29 C 0.13029 0.44475 0.25782 0.0
H30 H 0.12058 0.45355 0.26089 0.0
H31 H 0.07735 0.46021 0.24916 0.0
O32 O 0.12746 0.44546 0.88245 0.0
C33 C 0.10747 0.48103 0.05532 0.0
Co34 Co 0.66751 0.1177 0.14117 0.0
Co35 Co 0.65509 0.09259 0.29306 0.0
C36 C 0.65077 0.06768 0.15884 0.0
O37 O 0.6556 0.08557 0.12429 0.0
O38 O 0.65145 0.06729 0.2296 0.0
C39 C 0.69406 0.12229 0.02373 0.0
O40 O 0.70086 0.1134 0.07503 0.0
C41 C 0.65876 0.07491 0.43897 0.0
C42 C 0.63596 0.08166 0.50597 0.0
C43 C 0.65119 0.07419 0.51123 0.0
N44 N 0.64888 0.083 0.39395 0.0
N45 N 0.63481 0.0864 0.4341 0.0
C46 C 0.67437 0.06722 0.41217 0.0
H47 H 0.68226 0.07551 0.3587 0.0
H48 H 0.68731 0.0702 0.45439 0.0
H49 H 0.66454 0.04889 0.40202 0.0
C50 C 0.70821 0.14871 0.22358 0.0
N51 N 0.68883 0.12916 0.21847 0.0
N52 N 0.68391 0.11898 0.28357 0.0
C53 C 0.70011 0.13205 0.33261 0.0
C54 C 0.71604 0.15118 0.29601 0.0
C55 C 0.71751 0.16581 0.16264 0.0
H56 H 0.70368 0.16528 0.1294 0.0
H57 H 0.72782 0.16183 0.12511 0.0
H58 H 0.7282 0.18293 0.18538 0.0
O59 O 0.64199 0.12198 0.1647 0.0
O60 O 0.63189 0.10061 0.2661 0.0
H61 H 0.6838 0.12258 0.43887 0.0
H62 H 0.71376 0.14078 0.4449 0.0
C63 C 0.70008 0.12679 0.41351 0.0
H64 H 0.70265 0.11226 0.4185 0.0
H65 H 0.6253 0.09312 0.4132 0.0
O66 O 0.68107 0.12953 0.04314 0.0
C67 C 0.62849 0.11238 0.21865 0.0
Co68 Co 0.55452 0.67024 0.28843 0.0
Co69 Co 0.56166 0.65365 0.44181 0.0
C70 C 0.58858 0.65561 0.31206 0.0
O71 O 0.57761 0.66206 0.27288 0.0
O72 O 0.58483 0.65189 0.38132 0.0
C73 C 0.57604 0.69813 0.17148 0.0
O74 O 0.59234 0.70441 0.22024 0.0
C75 C 0.58319 0.66142 0.5862 0.0
C76 C 0.55707 0.63406 0.65367 0.0
C77 C 0.57782 0.65343 0.65866 0.0
N78 N 0.5661 0.64786 0.54154 0.0
N79 N 0.5508 0.63117 0.5817 0.0
C80 C 0.60414 0.68151 0.55894 0.0
H81 H 0.60883 0.67783 0.50378 0.0
H82 H 0.60123 0.69581 0.55131 0.0
H83 H 0.61809 0.68638 0.59906 0.0
C84 C 0.56066 0.70872 0.3798 0.0
N85 N 0.56112 0.68953 0.37096 0.0
N86 N 0.56201 0.68157 0.43675 0.0
C87 C 0.56059 0.69469 0.48979 0.0
C88 C 0.56041 0.71267 0.45565 0.0
C89 C 0.55955 0.72236 0.31666 0.0
H90 H 0.54267 0.71332 0.29089 0.0
H91 H 0.57197 0.72467 0.27364 0.0
H92 H 0.5632 0.7392 0.33512 0.0
O93 O 0.52486 0.64213 0.30364 0.0
O94 O 0.53207 0.63001 0.40945 0.0
H95 H 0.54521 0.66922 0.57438 0.0
H96 H 0.54318 0.69389 0.59066 0.0
C97 C 0.55419 0.68769 0.56924 0.0
H98 H 0.56937 0.69505 0.60442 0.0
H99 H 0.53552 0.61857 0.56078 0.0
O100 O 0.55603 0.68499 0.19279 0.0
C101 C 0.51903 0.62748 0.35536 0.0
Co102 Co 0.88408 0.55266 0.48034 0.0
Co103 Co 0.90755 0.56395 0.63551 0.0
C104 C 0.93274 0.58847 0.50401 0.0
O105 O 0.91541 0.57626 0.46559 0.0
O106 O 0.93279 0.58637 0.57435 0.0
C107 C 0.87618 0.57301 0.36378 0.0
O108 O 0.8842 0.5889 0.41453 0.0
C109 C 0.92348 0.58582 0.78079 0.0
C110 C 0.91832 0.5571 0.84975 0.0
C111 C 0.92427 0.57948 0.8537 0.0
N112 N 0.91673 0.56782 0.73665 0.0
N113 N 0.9143 0.55088 0.77792 0.0
C114 C 0.92968 0.60866 0.75258 0.0
H115 H 0.92041 0.60735 0.70046 0.0
H116 H 0.92676 0.61859 0.79505 0.0
H117 H 0.9478 0.61775 0.73912 0.0
C118 C 0.85036 0.5582 0.56267 0.0
N119 N 0.87056 0.55974 0.55836 0.0
N120 N 0.88019 0.56466 0.62442 0.0
C121 C 0.86608 0.56617 0.67323 0.0
C122 C 0.84689 0.56229 0.63551 0.0
C123 C 0.83374 0.55043 0.5002 0.0
H124 H 0.8352 0.53786 0.46577 0.0
H125 H 0.83735 0.56497 0.46431 0.0
H126 H 0.81637 0.54305 0.52154 0.0
O127 O 0.88273 0.52366 0.50108 0.0
O128 O 0.90146 0.53362 0.60815 0.0
H129 H 0.87605 0.55963 0.77918 0.0
H130 H 0.85592 0.56902 0.78567 0.0
C131 C 0.87062 0.57089 0.75461 0.0
H132 H 0.88409 0.58848 0.76106 0.0
H133 H 0.90868 0.53473 0.75772 0.0
O134 O 0.87128 0.55329 0.38305 0.0
C135 C 0.89142 0.51926 0.55675 0.0
Co136 Co 0.33009 0.87651 0.62544 0.0
Co137 Co 0.34273 0.90175 0.77646 0.0
C138 C 0.34743 0.92636 0.64015 0.0
O139 O 0.34286 0.90853 0.60597 0.0
O140 O 0.34618 0.92661 0.7107 0.0
C141 C 0.30484 0.87328 0.50645 0.0
O142 O 0.2991 0.88326 0.55706 0.0
C143 C 0.33543 0.9175 0.91988 0.0
C144 C 0.36314 0.91912 0.98645 0.0
C145 C 0.34416 0.92112 0.99164 0.0
N146 N 0.34828 0.91288 0.87546 0.0
N147 N 0.36516 0.91451 0.91514 0.0
C148 C 0.3157 0.91907 0.89294 0.0
H149 H 0.30127 0.90213 0.88282 0.0
H150 H 0.31085 0.92791 0.9341 0.0
H151 H 0.31986 0.9281 0.83887 0.0
C152 C 0.28883 0.84608 0.70815 0.0
N153 N 0.30829 0.86561 0.70235 0.0
N154 N 0.31439 0.87491 0.76867 0.0
C155 C 0.29971 0.86078 0.81963 0.0
C156 C 0.28272 0.84241 0.7828 0.0
C157 C 0.27726 0.83064 0.64396 0.0
H158 H 0.2869 0.82242 0.62709 0.0
H159 H 0.27651 0.84022 0.59581 0.0
H160 H 0.25986 0.81772 0.65805 0.0
O161 O 0.35546 0.87177 0.65297 0.0
O162 O 0.36577 0.89358 0.75359 0.0
H163 H 0.2984 0.8445 0.92374 0.0
H164 H 0.29552 0.86874 0.93174 0.0
C165 C 0.30451 0.86163 0.9015 0.0
H166 H 0.32267 0.87174 0.91268 0.0
H167 H 0.37742 0.91132 0.89447 0.0
O168 O 0.31677 0.86483 0.52661 0.0
C169 C 0.36886 0.8813 0.70751 0.0
Co170 Co 0.44683 0.33021 0.80832 0.0
Co171 Co 0.43271 0.34204 0.95877 0.0
C172 C 0.41329 0.34677 0.82268 0.0
O173 O 0.42675 0.34213 0.79002 0.0
O174 O 0.4114 0.3457 0.89328 0.0
C175 C 0.42538 0.3038 0.6901 0.0
O176 O 0.40964 0.29678 0.74114 0.0
C177 C 0.41118 0.33814 0.1049 0.0
C178 C 0.44068 0.36155 0.17123 0.0
C179 C 0.41811 0.34594 0.17702 0.0
N180 N 0.42904 0.34825 0.0595 0.0
N181 N 0.44645 0.36268 0.09928 0.0
C182 C 0.38791 0.32216 0.07866 0.0
H183 H 0.38831 0.31466 0.02432 0.0
H184 H 0.37841 0.30891 0.12045 0.0
H185 H 0.37893 0.3316 0.07054 0.0
C186 C 0.43666 0.28929 0.89027 0.0
N187 N 0.43648 0.30867 0.88502 0.0
N188 N 0.43067 0.31334 0.94955 0.0
C189 C 0.42727 0.297 -0.00157 0.0
C190 C 0.43078 0.28122 0.96221 0.0
C191 C 0.44488 0.28018 0.83007 0.0
H192 H 0.45832 0.29411 0.79763 0.0
H193 H 0.43082 0.26985 0.79164 0.0
H194 H 0.45124 0.2695 0.85349 0.0
O195 O 0.47642 0.35587 0.83404 0.0
O196 O 0.46394 0.36548 0.9335 0.0
H197 H 0.43333 0.31318 0.10479 0.0
H198 H 0.4222 0.28331 0.11062 0.0
C199 C 0.42164 0.29681 0.07898 0.0
H200 H 0.40436 0.29377 0.08301 0.0
H201 H 0.46259 0.37243 0.07816 0.0
O202 O 0.44556 0.3169 0.71 0.0
C203 C 0.4796 0.36925 0.88782 0.0
Co204 Co 0.54805 0.87769 0.86428 0.0
Co205 Co 0.56039 0.90313 0.71373 0.0
C206 C 0.58056 0.92759 0.84984 0.0
O207 O 0.56733 0.90973 0.88394 0.0
O208 O 0.58198 0.92791 0.77926 0.0
C209 C 0.57011 0.87437 0.98314 0.0
O210 O 0.58586 0.88436 0.93264 0.0
C211 C 0.583 0.91908 0.56985 0.0
C212 C 0.55647 0.9201 0.50401 0.0
C213 C 0.57758 0.92244 0.49821 0.0
N214 N 0.56558 0.91426 0.61476 0.0
N215 N 0.55005 0.91553 0.57553 0.0
C216 C 0.6045 0.92099 0.59619 0.0
H217 H 0.6022 0.90415 0.60685 0.0
H218 H 0.61802 0.92979 0.55448 0.0
H219 H 0.60948 0.93022 0.6499 0.0
C220 C 0.55872 0.84735 0.78046 0.0
N221 N 0.55881 0.86688 0.78679 0.0
N222 N 0.56194 0.87627 0.72065 0.0
C223 C 0.56252 0.86223 0.66933 0.0
C224 C 0.56115 0.8438 0.70571 0.0
C225 C 0.55478 0.83178 0.84426 0.0
H226 H 0.56535 0.84123 0.89221 0.0
H227 H 0.55888 0.81863 0.82945 0.0
H228 H 0.537 0.82385 0.86183 0.0
O229 O 0.51791 0.87289 0.83751 0.0
O230 O 0.5293 0.89513 0.73793 0.0
H231 H 0.54782 0.84618 0.56467 0.0
H232 H 0.57487 0.87052 0.55761 0.0
C233 C 0.55871 0.86326 0.58746 0.0
H234 H 0.55056 0.8733 0.57646 0.0
H235 H 0.53456 0.91208 0.59666 0.0
O236 O 0.54975 0.86589 0.96278 0.0
C237 C 0.51401 0.88271 0.78399 0.0
Co238 Co 0.6652 0.54985 0.01456 0.0
Co239 Co 0.65246 0.56003 0.85872 0.0
C240 C 0.65306 0.58598 0.98819 0.0
O241 O 0.65813 0.57394 0.0278 0.0
O242 O 0.65039 0.58313 0.91821 0.0
C243 C 0.69346 0.57035 0.13132 0.0
O244 O 0.70144 0.58626 0.08066 0.0
C245 C 0.6584 0.58191 0.71407 0.0
C246 C 0.63468 0.55345 0.64446 0.0
C247 C 0.6512 0.57581 0.6411 0.0
N248 N 0.64708 0.56381 0.75768 0.0
N249 N 0.63249 0.54702 0.7161 0.0
C250 C 0.67521 0.6046 0.74293 0.0
H251 H 0.68381 0.60302 0.79291 0.0
H252 H 0.68751 0.61495 0.69963 0.0
H253 H 0.66619 0.6134 0.76039 0.0
C254 C 0.70433 0.55501 0.93192 0.0
N255 N 0.68547 0.55619 0.936 0.0
N256 N 0.68041 0.56048 0.8695 0.0
C257 C 0.69594 0.56185 0.82062 0.0
C258 C 0.71163 0.55864 0.85879 0.0
C259 C 0.71386 0.54832 0.99532 0.0
H260 H 0.70018 0.5358 0.03092 0.0
H261 H 0.72457 0.56332 0.02974 0.0
H262 H 0.72424 0.54127 0.97489 0.0
O263 O 0.63726 0.52093 -0.00416 0.0
O264 O 0.62803 0.53 0.88791 0.0
H265 H 0.7082 0.56349 0.70771 0.0
H266 H 0.70043 0.58376 0.73125 0.0
C267 C 0.69584 0.56607 0.73894 0.0
H268 H 0.67895 0.55502 0.71548 0.0
H269 H 0.62187 0.53085 0.73595 0.0
O270 O 0.67869 0.55065 0.11183 0.0
C271 C 0.62391 0.51611 0.94072 0.0
Co272 Co 0.11385 0.66747 0.18786 0.0
Co273 Co 0.08939 0.65305 0.03502 0.0
C274 C 0.06496 0.65304 0.1689 0.0
O275 O 0.08253 0.65872 0.20637 0.0
O276 O 0.06465 0.65054 0.09874 0.0
C277 C 0.12045 0.69479 0.30577 0.0
O278 O 0.11062 0.70122 0.25675 0.0
C279 C 0.07592 0.66214 0.89144 0.0
C280 C 0.07303 0.6341 0.82361 0.0
C281 C 0.07271 0.65403 0.81897 0.0
N282 N 0.07878 0.64806 0.93573 0.0
N283 N 0.07639 0.63099 0.89533 0.0
C284 C 0.07596 0.68267 0.91911 0.0
H285 H 0.06788 0.67929 0.97473 0.0
H286 H 0.09337 0.69661 0.92595 0.0
H287 H 0.06706 0.68792 0.87957 0.0
C288 C 0.14596 0.70695 0.10033 0.0
N289 N 0.12608 0.68794 0.10791 0.0
N290 N 0.11703 0.68084 0.04174 0.0
C291 C 0.1317 0.69424 0.98948 0.0
C292 C 0.15012 0.71161 0.02479 0.0
C293 C 0.16101 0.7196 0.16423 0.0
H294 H 0.15136 0.72242 0.20769 0.0
H295 H 0.17487 0.73623 0.14712 0.0
H296 H 0.1679 0.70955 0.18904 0.0
O297 O 0.11598 0.6399 0.16529 0.0
O298 O 0.09585 0.6293 0.06078 0.0
H299 H 0.14831 0.69312 0.88911 0.0
H300 H 0.1244 0.69618 0.87461 0.0
C301 C 0.13115 0.68771 0.90945 0.0
H302 H 0.12081 0.66934 0.9024 0.0
H303 H 0.07837 0.61792 0.91589 0.0
O304 O 0.1271 0.68143 0.28467 0.0
C305 C 0.10695 0.62612 0.11121 0.0
Co306 Co 0.44855 0.11628 0.34636 0.0
Co307 Co 0.43619 0.091 0.19475 0.0
C308 C 0.41597 0.06609 0.32926 0.0
O309 O 0.42884 0.0841 0.3636 0.0
O310 O 0.41481 0.06562 0.2585 0.0
C311 C 0.42636 0.12039 0.46398 0.0
O312 O 0.41067 0.11123 0.4128 0.0
C313 C 0.41497 0.07306 0.04885 0.0
C314 C 0.44461 0.07993 0.98216 0.0
C315 C 0.4219 0.07235 0.97667 0.0
N316 N 0.43293 0.08129 0.094 0.0
N317 N 0.45045 0.08475 0.05406 0.0
C318 C 0.39164 0.06525 0.07549 0.0
H319 H 0.39196 0.07377 0.12837 0.0
H320 H 0.38153 0.06783 0.03279 0.0
H321 H 0.38338 0.047 0.08681 0.0
C322 C 0.4378 0.14656 0.26381 0.0
N323 N 0.43827 0.12732 0.26896 0.0
N324 N 0.43327 0.11714 0.20384 0.0
C325 C 0.42977 0.12994 0.1547 0.0
C326 C 0.43235 0.14883 0.19133 0.0
C327 C 0.44503 0.16359 0.32486 0.0
H328 H 0.45866 0.16365 0.35794 0.0
H329 H 0.43063 0.15903 0.36253 0.0
H330 H 0.45079 0.1806 0.30226 0.0
O331 O 0.47856 0.12107 0.32278 0.0
O332 O 0.4675 0.09948 0.22183 0.0
H333 H 0.43696 0.12042 0.04903 0.0
H334 H 0.42544 0.1388 0.04196 0.0
C335 C 0.42487 0.12473 0.07363 0.0
H336 H 0.40774 0.1103 0.06798 0.0
H337 H 0.46667 0.09157 0.07509 0.0
O338 O 0.44663 0.12802 0.44436 0.0
C339 C 0.48262 0.11149 0.26912 0.0
Co340 Co 0.33527 0.45622 0.52269 0.0
Co341 Co 0.34081 0.43827 0.3679 0.0
C342 C 0.34934 0.42111 0.50532 0.0
O343 O 0.34637 0.4355 0.53921 0.0
O344 O 0.34639 0.41846 0.43534 0.0
C345 C 0.31486 0.4392 0.65448 0.0
O346 O 0.30583 0.42187 0.60924 0.0
C347 C 0.33088 0.40788 0.24859 0.0
C348 C 0.34185 0.42315 0.2375 0.0
C349 C 0.33714 0.40509 0.1813 0.0
N350 N 0.34195 0.42903 0.26678 0.0
N351 N 0.35357 0.44497 0.21603 0.0
C352 C 0.31511 0.38739 0.30199 0.0
H353 H 0.30782 0.39302 0.34636 0.0
H354 H 0.30161 0.37364 0.26893 0.0
H355 H 0.32521 0.38082 0.3286 0.0
C356 C 0.29117 0.44445 0.45719 0.0
N357 N 0.31066 0.44433 0.45582 0.0
N358 N 0.31316 0.4374 0.38994 0.0
C359 C 0.29557 0.43348 0.34681 0.0
C360 C 0.28089 0.43751 0.38801 0.0
C361 C 0.28329 0.45239 0.52195 0.0
H362 H 0.28654 0.44639 0.5749 0.0
H363 H 0.26508 0.4463 0.51831 0.0
H364 H 0.29264 0.47098 0.52305 0.0
O365 O 0.36027 0.48435 0.48233 0.0
O366 O 0.36553 0.46993 0.37847 0.0
H367 H 0.28297 0.4337 0.23598 0.0
H368 H 0.28935 0.41175 0.25484 0.0
C369 C 0.29471 0.42962 0.26473 0.0
H370 H 0.31153 0.44034 0.24057 0.0
H371 H 0.36002 0.46065 0.24093 0.0
O372 O 0.32708 0.45862 0.62663 0.0
C373 C 0.37115 0.48645 0.42249 0.0
Co374 Co 0.88453 0.33274 0.6793 0.0
Co375 Co 0.9082 0.34559 0.52462 0.0
C376 C 0.93335 0.34619 0.65621 0.0
O377 O 0.91593 0.34082 0.69434 0.0
O378 O 0.93348 0.34849 0.58591 0.0
C379 C 0.87698 0.30457 0.79598 0.0
O380 O 0.88535 0.29696 0.74561 0.0
C381 C 0.92442 0.34026 0.3792 0.0
C382 C 0.91881 0.36363 0.31078 0.0
C383 C 0.92504 0.34742 0.3064 0.0
N384 N 0.91746 0.35126 0.42364 0.0
N385 N 0.91479 0.36568 0.38272 0.0
C386 C 0.93094 0.32383 0.40707 0.0
H387 H 0.94893 0.33318 0.42249 0.0
H388 H 0.92134 0.31533 0.45809 0.0
H389 H 0.92874 0.31142 0.36381 0.0
C390 C 0.85147 0.29309 0.59607 0.0
N391 N 0.87131 0.3122 0.60073 0.0
N392 N 0.88097 0.31727 0.53476 0.0
C393 C 0.86718 0.3015 0.48565 0.0
C394 C 0.84825 0.28564 0.52311 0.0
C395 C 0.83496 0.28347 0.65854 0.0
H396 H 0.83576 0.29713 0.69348 0.0
H397 H 0.83924 0.27294 0.69392 0.0
H398 H 0.81766 0.27287 0.63715 0.0
O399 O 0.88288 0.36028 0.65927 0.0
O400 O 0.90193 0.36961 0.55291 0.0
H401 H 0.87732 0.31834 0.38035 0.0
H402 H 0.85711 0.28889 0.37275 0.0
C403 C 0.87181 0.30157 0.40429 0.0
H404 H 0.88521 0.29738 0.39774 0.0
H405 H 0.90897 0.37601 0.4032 0.0
O406 O 0.87173 0.31909 0.77633 0.0
C407 C 0.8917 0.37363 0.60432 0.0
C408 C 0.12585 0.60396 0.14347 0.0
C409 C 0.10941 0.60602 0.10403 0.0
C410 C 0.12834 0.58504 0.13386 0.0
C411 C 0.11386 0.56774 0.08449 0.0
C412 C 0.0974 0.56988 0.04422 0.0
C413 C 0.09544 0.58895 0.05428 0.0
C414 C 0.14619 0.58336 0.17731 0.0
C415 C 0.08133 0.55167 0.99206 0.0
C416 C 0.12418 0.52141 0.0152 0.0
C417 C 0.11016 0.50372 0.06264 0.0
C418 C 0.12638 0.54276 0.02347 0.0
C419 C 0.11416 0.54634 0.08005 0.0
C420 C 0.10036 0.52867 0.12878 0.0
C421 C 0.09857 0.50769 0.11956 0.0
C422 C 0.14135 0.56132 0.97076 0.0
C423 C 0.08681 0.53164 0.18927 0.0
H424 H 0.13686 0.61717 0.18134 0.0
H425 H 0.08262 0.5903 0.02356 0.0
H426 H 0.13824 0.56933 0.21769 0.0
H427 H 0.15656 0.57964 0.13914 0.0
H428 H 0.1573 0.599 0.20842 0.0
H429 H 0.07029 0.55647 0.96187 0.0
H430 H 0.09069 0.54766 0.95047 0.0
H431 H 0.07064 0.53615 0.02417 0.0
H432 H 0.13333 0.51858 0.97153 0.0
H433 H 0.0877 0.49424 0.15686 0.0
H434 H 0.15301 0.57656 0.00258 0.0
H435 H 0.13104 0.56577 0.9349 0.0
H436 H 0.15126 0.55648 0.93436 0.0
H437 H 0.09782 0.54618 0.22502 0.0
H438 H 0.0779 0.51657 0.22524 0.0
H439 H 0.07423 0.53515 0.16368 0.0
C440 C 0.50848 0.10075 0.20853 0.0
C441 C 0.50513 0.11396 0.26081 0.0
C442 C 0.52934 0.10216 0.2008 0.0
C443 C 0.54744 0.11727 0.24604 0.0
C444 C 0.54441 0.13108 0.29767 0.0
C445 C 0.52323 0.12917 0.30476 0.0
C446 C 0.53182 0.08698 0.14559 0.0
C447 C 0.56342 0.14753 0.34634 0.0
C448 C 0.592 0.10151 0.28024 0.0
C449 C 0.6083 0.11459 0.22716 0.0
C450 C 0.57242 0.10269 0.28816 0.0
C451 C 0.56905 0.11744 0.24228 0.0
C452 C 0.58565 0.13114 0.18987 0.0
C453 C 0.60506 0.12948 0.18264 0.0
C454 C 0.55503 0.08763 0.34422 0.0
C455 C 0.58269 0.14721 0.14048 0.0
H456 H 0.49463 0.08892 0.17428 0.0
H457 H 0.52085 0.13955 0.34491 0.0
H458 H 0.54581 0.09703 0.10667 0.0
H459 H 0.53596 0.07544 0.17561 0.0
H460 H 0.51634 0.07682 0.11248 0.0
H461 H 0.55877 0.15814 0.37983 0.0
H462 H 0.56856 0.13834 0.38496 0.0
H463 H 0.57819 0.15856 0.31157 0.0
H464 H 0.59429 0.08994 0.31496 0.0
H465 H 0.61762 0.13976 0.14188 0.0
H466 H 0.53934 0.07576 0.31485 0.0
H467 H 0.55097 0.09772 0.38258 0.0
H468 H 0.56065 0.07782 0.37789 0.0
H469 H 0.56832 0.13769 0.10227 0.0
H470 H 0.59783 0.15784 0.10653 0.0
H471 H 0.5788 0.15823 0.17475 0.0
C472 C 0.40455 0.50999 0.34252 0.0
C473 C 0.3911 0.50829 0.40374 0.0
C474 C 0.42437 0.53001 0.32687 0.0
C475 C 0.43087 0.54888 0.37322 0.0
C476 C 0.41685 0.54765 0.43286 0.0
C477 C 0.39717 0.52733 0.44763 0.0
C478 C 0.43893 0.53058 0.26309 0.0
C479 C 0.42315 0.56749 0.48317 0.0
C480 C 0.49283 0.58885 0.40014 0.0
C481 C 0.49662 0.60707 0.35503 0.0
C482 C 0.4716 0.56979 0.40549 0.0
C483 C 0.45354 0.56888 0.36515 0.0
C484 C 0.45723 0.58699 0.31835 0.0
C485 C 0.47883 0.60589 0.3135 0.0
C486 C 0.46847 0.55072 0.45522 0.0
C487 C 0.4383 0.58657 0.27477 0.0
H488 H 0.39998 0.49544 0.30787 0.0
H489 H 0.38679 0.52628 0.49451 0.0
H490 H 0.44393 0.54555 0.22773 0.0
H491 H 0.4545 0.53181 0.28555 0.0
H492 H 0.43038 0.51537 0.22754 0.0
H493 H 0.40933 0.56464 0.5215 0.0
H494 H 0.43797 0.57085 0.51712 0.0
H495 H 0.42783 0.58273 0.44957 0.0
H496 H 0.50652 0.5895 0.43192 0.0
H497 H 0.48163 0.61993 0.27879 0.0
H498 H 0.46144 0.53496 0.4226 0.0
H499 H 0.45635 0.54808 0.50016 0.0
H500 H 0.48439 0.55386 0.48132 0.0
H501 H 0.43012 0.57141 0.23903 0.0
H502 H 0.44407 0.60162 0.23897 0.0
H503 H 0.4254 0.58566 0.31376 0.0
C504 C 0.9039 0.411 0.54743 0.0
C505 C 0.89018 0.39427 0.59842 0.0
C506 C 0.90288 0.43069 0.53992 0.0
C507 C 0.88758 0.4337 0.58389 0.0
C508 C 0.87343 0.41679 0.6348 0.0
C509 C 0.875 0.3973 0.64187 0.0
C510 C 0.91851 0.44847 0.48585 0.0
C511 C 0.85678 0.41939 0.68209 0.0
C512 C 0.90277 0.49391 0.61768 0.0
C513 C 0.88989 0.49711 0.56359 0.0
C514 C 0.90178 0.47323 0.62579 0.0
C515 C 0.88742 0.45515 0.57914 0.0
C516 C 0.87406 0.45807 0.52524 0.0
C517 C 0.87555 0.47908 0.51777 0.0
C518 C 0.91654 0.47091 0.68324 0.0
C519 C 0.85842 0.43907 0.47495 0.0
H520 H 0.91575 0.40888 0.51374 0.0
H521 H 0.86423 0.38438 0.68094 0.0
H522 H 0.90878 0.45238 0.44534 0.0
H523 H 0.92969 0.46416 0.5165 0.0
H524 H 0.92904 0.44327 0.45445 0.0
H525 H 0.84619 0.40423 0.71608 0.0
H526 H 0.86575 0.43391 0.72013 0.0
H527 H 0.84575 0.42284 0.64614 0.0
H528 H 0.91395 0.50772 0.65335 0.0
H529 H 0.86542 0.48135 0.47629 0.0
H530 H 0.92852 0.46702 0.65513 0.0
H531 H 0.90625 0.4568 0.72149 0.0
H532 H 0.92619 0.48638 0.71692 0.0
H533 H 0.8682 0.43412 0.43849 0.0
H534 H 0.84816 0.44364 0.43917 0.0
H535 H 0.84704 0.42418 0.50877 0.0
C536 C 0.40316 0.88945 0.77901 0.0
C537 C 0.38849 0.87827 0.71953 0.0
C538 C 0.42228 0.88772 0.79102 0.0
C539 C 0.42696 0.87442 0.74251 0.0
C540 C 0.41192 0.86247 0.68376 0.0
C541 C 0.39284 0.86458 0.67277 0.0
C542 C 0.43795 0.90089 0.85399 0.0
C543 C 0.41634 0.84802 0.63125 0.0
C544 C 0.48865 0.89404 0.72353 0.0
C545 C 0.4914 0.8798 0.773 0.0
C546 C 0.46764 0.89193 0.71146 0.0
C547 C 0.44874 0.87504 0.74935 0.0
C548 C 0.45121 0.86024 0.79814 0.0
C549 C 0.47258 0.86288 0.80982 0.0
C550 C 0.46582 0.90829 0.65982 0.0
C551 C 0.43136 0.84192 0.83896 0.0
H552 H 0.40001 0.90001 0.81585 0.0
H553 H 0.38154 0.85575 0.62708 0.0
H554 H 0.44134 0.88974 0.88951 0.0
H555 H 0.45422 0.91393 0.83083 0.0
H556 H 0.43112 0.90923 0.8897 0.0
H557 H 0.40196 0.83803 0.59343 0.0
H558 H 0.43129 0.85876 0.59681 0.0
H559 H 0.42 0.83643 0.66318 0.0
H560 H 0.50305 0.90721 0.69485 0.0
H561 H 0.47453 0.85168 0.84754 0.0
H562 H 0.46046 0.91857 0.69186 0.0
H563 H 0.45294 0.89913 0.61649 0.0
H564 H 0.48193 0.91973 0.63175 0.0
H565 H 0.42481 0.84944 0.87927 0.0
H566 H 0.43571 0.83063 0.8698 0.0
H567 H 0.41766 0.83177 0.7991 0.0
C568 C 0.60012 0.47612 0.98222 0.0
C569 C 0.60329 0.49389 0.93596 0.0
C570 C 0.5808 0.45491 0.9758 0.0
C571 C 0.56423 0.45152 0.92252 0.0
C572 C 0.56733 0.46941 0.87593 0.0
C573 C 0.58682 0.4903 0.88299 0.0
C574 C 0.57809 0.43614 0.02606 0.0
C575 C 0.5499 0.46658 0.81913 0.0
C576 C 0.52037 0.39347 0.85631 0.0
C577 C 0.50168 0.38976 0.8983 0.0
C578 C 0.54113 0.41319 0.86543 0.0
C579 C 0.54311 0.42962 0.91718 0.0
C580 C 0.52441 0.42579 0.96051 0.0
C581 C 0.50399 0.40592 0.95073 0.0
C582 C 0.56079 0.41667 0.81867 0.0
C583 C 0.52577 0.44299 0.01568 0.0
H584 H 0.61282 0.47871 0.02291 0.0
H585 H 0.58905 0.50392 0.84711 0.0
H586 H 0.56305 0.43045 0.0616 0.0
H587 H 0.57546 0.42156 0.99206 0.0
H588 H 0.59286 0.44126 0.0627 0.0
H589 H 0.55505 0.48209 0.7864 0.0
H590 H 0.54669 0.45284 0.77995 0.0
H591 H 0.53386 0.46185 0.84758 0.0
H592 H 0.51879 0.38103 0.81607 0.0
H593 H 0.48967 0.40329 0.98343 0.0
H594 H 0.57542 0.42084 0.85487 0.0
H595 H 0.56574 0.43103 0.78037 0.0
H596 H 0.55695 0.40164 0.78494 0.0
H597 H 0.53967 0.44747 0.0556 0.0
H598 H 0.51 0.43696 0.04768 0.0
H599 H 0.5294 0.45855 0.98577 0.0
C600 C 0.02496 0.39829 0.96511 0.0
C601 C 0.04459 0.39751 0.95322 0.0
C602 C 0.00698 0.38795 0.91489 0.0
C603 C 0.0085 0.376 0.85296 0.0
C604 C 0.0278 0.37402 0.8436 0.0
C605 C 0.0458 0.38516 0.89313 0.0
C606 C 0.98708 0.39122 0.92525 0.0
C607 C 0.02979 0.36092 0.77956 0.0
C608 C 0.9531 0.33834 0.75708 0.0
C609 C 0.95399 0.35175 0.69697 0.0
C610 C 0.97133 0.34542 0.80577 0.0
C611 C 0.99048 0.36679 0.79571 0.0
C612 C 0.99171 0.38006 0.73349 0.0
C613 C 0.97353 0.37218 0.68403 0.0
C614 C 0.96964 0.33054 0.8701 0.0
C615 C 0.01144 0.4033 0.72222 0.0
H616 H 0.02426 0.40824 0.01073 0.0
H617 H 0.0611 0.38469 0.88389 0.0
H618 H 0.9712 0.37521 0.9175 0.0
H619 H 0.987 0.39812 0.98113 0.0
H620 H 0.98757 0.40306 0.88237 0.0
H621 H 0.04517 0.35963 0.7835 0.0
H622 H 0.01501 0.34378 0.77814 0.0
H623 H 0.03007 0.36912 0.72603 0.0
H624 H 0.93786 0.32256 0.76717 0.0
H625 H 0.97398 0.38273 0.6384 0.0
H626 H 0.96832 0.33807 0.92313 0.0
H627 H 0.98495 0.32913 0.87355 0.0
H628 H 0.95485 0.31347 0.8649 0.0
H629 H 0.01056 0.41484 0.76344 0.0
H630 H 0.01161 0.40982 0.66544 0.0
H631 H 0.02744 0.40355 0.73171 0.0
C632 C 0.58386 0.95028 0.96123 0.0
C633 C 0.59327 0.94815 0.89464 0.0
C634 C 0.59495 0.96953 0.00526 0.0
C635 C 0.61635 0.98689 0.98338 0.0
C636 C 0.62637 0.98455 0.91753 0.0
C637 C 0.6145 0.9653 0.87302 0.0
C638 C 0.58319 0.97172 0.0731 0.0
C639 C 0.64943 0.00253 0.89361 0.0
C640 C 0.63119 0.0449 0.04788 0.0
C641 C 0.64289 0.04709 0.11424 0.0
C642 C 0.62293 0.02559 0.00407 0.0
C643 C 0.62704 0.00826 0.02586 0.0
C644 C 0.63955 0.01066 0.09149 0.0
C645 C 0.64701 0.02996 0.13586 0.0
C646 C 0.60883 0.02334 0.93651 0.0
C647 C 0.64471 0.99272 0.11525 0.0
H648 H 0.56736 0.93709 0.97791 0.0
H649 H 0.6219 0.96353 0.82201 0.0
H650 H 0.59424 0.97657 0.12268 0.0
H651 H 0.57909 0.98517 0.06347 0.0
H652 H 0.56744 0.95593 0.08588 0.0
H653 H 0.65598 0.99697 0.84666 0.0
H654 H 0.64892 0.01768 0.87577 0.0
H655 H 0.66129 0.00748 0.94113 0.0
H656 H 0.62784 0.05807 0.03126 0.0
H657 H 0.65628 0.03178 0.18671 0.0
H658 H 0.59135 0.00975 0.94619 0.0
H659 H 0.61505 0.01865 0.88667 0.0
H660 H 0.60865 0.03905 0.92412 0.0
H661 H 0.6291 0.9775 0.13282 0.0
H662 H 0.6568 0.99826 0.16231 0.0
H663 H 0.65169 0.98788 0.06768 0.0
C664 C 0.60299 0.62967 0.2872 0.0
C665 C 0.60396 0.6501 0.27318 0.0
C666 C 0.6135 0.62173 0.23914 0.0
C667 C 0.62586 0.63494 0.1773 0.0
C668 C 0.62825 0.65636 0.16637 0.0
C669 C 0.61688 0.66351 0.21368 0.0
C670 C 0.60987 0.59846 0.25128 0.0
C671 C 0.64185 0.67122 0.10259 0.0
C672 C 0.66193 0.6145 0.08671 0.0
C673 C 0.64838 0.602 0.02681 0.0
C674 C 0.65557 0.62669 0.13325 0.0
C675 C 0.63474 0.62551 0.12127 0.0
C676 C 0.62143 0.61361 0.05893 0.0
C677 C 0.62864 0.60226 0.01158 0.0
C678 C 0.67057 0.63985 0.19741 0.0
C679 C 0.59877 0.61134 0.0455 0.0
H680 H 0.59263 0.61916 0.33243 0.0
H681 H 0.61754 0.67931 0.20285 0.0
H682 H 0.59863 0.58716 0.20708 0.0
H683 H 0.62588 0.59844 0.24707 0.0
H684 H 0.60218 0.59148 0.30635 0.0
H685 H 0.64445 0.68843 0.10775 0.0
H686 H 0.65842 0.67227 0.09992 0.0
H687 H 0.63313 0.66394 0.04914 0.0
H688 H 0.67723 0.61422 0.09837 0.0
H689 H 0.61803 0.59227 0.96591 0.0
H690 H 0.66289 0.63128 0.25067 0.0
H691 H 0.67249 0.65681 0.19992 0.0
H692 H 0.68743 0.64159 0.19281 0.0
H693 H 0.58693 0.60031 0.08892 0.0
H694 H 0.59185 0.60401 0.98994 0.0
H695 H 0.5997 0.62781 0.0499 0.0
C696 C 0.95261 0.61604 0.40313 0.0
C697 C 0.95342 0.6036 0.46361 0.0
C698 C 0.97091 0.62718 0.35482 0.0
C699 C 0.99005 0.62499 0.36564 0.0
C700 C 0.99121 0.61304 0.42825 0.0
C701 C 0.97296 0.60278 0.47733 0.0
C702 C 0.96934 0.64035 0.29021 0.0
C703 C 0.01093 0.60958 0.44033 0.0
C704 C 0.02474 0.6275 0.19775 0.0
C705 C 0.04449 0.6478 0.21013 0.0
C706 C 0.00662 0.62009 0.24717 0.0
C707 C 0.00814 0.6337 0.30873 0.0
C708 C 0.02755 0.6549 0.31838 0.0
C709 C 0.04569 0.66151 0.26972 0.0
C710 C 0.98659 0.59699 0.23656 0.0
C711 C 0.02956 0.67013 0.382 0.0
H712 H 0.93737 0.61652 0.39246 0.0
H713 H 0.97335 0.59274 0.52327 0.0
H714 H 0.98457 0.65717 0.28758 0.0
H715 H 0.96838 0.63165 0.23716 0.0
H716 H 0.95442 0.64243 0.2944 0.0
H717 H 0.01031 0.59738 0.39868 0.0
H718 H 0.02694 0.62542 0.43206 0.0
H719 H 0.01086 0.603 0.49692 0.0
H720 H 0.02404 0.61674 0.15251 0.0
H721 H 0.06108 0.6772 0.27932 0.0
H722 H 0.97078 0.5973 0.24341 0.0
H723 H 0.98683 0.58562 0.27988 0.0
H724 H 0.98657 0.5899 0.18093 0.0
H725 H 0.01471 0.67236 0.38349 0.0
H726 H 0.04487 0.68686 0.37755 0.0
H727 H 0.03006 0.66241 0.43571 0.0
C728 C 0.3823 0.02827 0.35332 0.0
C729 C 0.40358 0.04552 0.3741 0.0
C730 C 0.37074 0.00904 0.39813 0.0
C731 C 0.38113 0.00683 0.46334 0.0
C732 C 0.40261 0.02427 0.48423 0.0
C733 C 0.41339 0.0435 0.44 0.0
C734 C 0.34759 0.99097 0.37531 0.0
C735 C 0.41477 0.02222 0.55126 0.0
C736 C 0.35121 0.96409 0.61717 0.0
C737 C 0.35527 0.94692 0.59543 0.0
C738 C 0.35848 0.9833 0.57251 0.0
C739 C 0.37068 0.98556 0.50632 0.0
C740 C 0.37473 0.9682 0.48439 0.0
C741 C 0.36671 0.94901 0.52863 0.0
C742 C 0.35345 0.0013 0.5966 0.0
C743 C 0.38849 0.97031 0.41615 0.0
H744 H 0.37462 0.02996 0.30283 0.0
H745 H 0.42994 0.05677 0.45595 0.0
H746 H 0.34799 0.9757 0.35827 0.0
H747 H 0.33592 0.9863 0.42322 0.0
H748 H 0.34087 0.9963 0.32816 0.0
H749 H 0.43054 0.03806 0.56341 0.0
H750 H 0.40397 0.01736 0.60143 0.0
H751 H 0.4189 0.00882 0.54104 0.0
H752 H 0.34214 0.96237 0.66834 0.0
H753 H 0.37001 0.93582 0.51186 0.0
H754 H 0.34634 0.00613 0.54935 0.0
H755 H 0.36916 0.0165 0.61376 0.0
H756 H 0.34153 0.99583 0.64405 0.0
H757 H 0.38225 0.97522 0.36683 0.0
H758 H 0.38835 0.95447 0.40311 0.0
H759 H 0.40609 0.98368 0.42551 0.0
C760 C 0.41178 0.36716 0.71132 0.0
C761 C 0.40131 0.35507 0.77616 0.0
C762 C 0.40153 0.37588 0.66577 0.0
C763 C 0.37992 0.3719 0.68421 0.0
C764 C 0.36883 0.35898 0.74817 0.0
C765 C 0.37986 0.35101 0.79437 0.0
C766 C 0.41444 0.39043 0.60031 0.0
C767 C 0.34551 0.3539 0.76822 0.0
C768 C 0.36748 0.4166 0.61827 0.0
C769 C 0.35655 0.40783 0.55013 0.0
C770 C 0.37453 0.40475 0.66331 0.0
C771 C 0.37018 0.3833 0.64056 0.0
C772 C 0.35857 0.37397 0.57286 0.0
C773 C 0.35213 0.38652 0.52772 0.0
C774 C 0.38752 0.41568 0.73367 0.0
C775 C 0.35332 0.35096 0.54762 0.0
H776 H 0.42846 0.37049 0.69733 0.0
H777 H 0.37166 0.34143 0.84398 0.0
H778 H 0.40393 0.38539 0.54937 0.0
H779 H 0.41932 0.40808 0.61244 0.0
H780 H 0.42986 0.38969 0.58846 0.0
H781 H 0.33836 0.3418 0.81507 0.0
H782 H 0.34578 0.36956 0.78441 0.0
H783 H 0.33429 0.34694 0.71913 0.0
H784 H 0.37103 0.43311 0.63586 0.0
H785 H 0.34344 0.37958 0.47559 0.0
H786 H 0.40497 0.41913 0.72761 0.0
H787 H 0.38009 0.40432 0.78206 0.0
H788 H 0.388 0.4317 0.74624 0.0
H789 H 0.36902 0.35129 0.53182 0.0
H790 H 0.34181 0.34498 0.49895 0.0
H791 H 0.34564 0.33873 0.59384 0.0
C792 C 0.16476 0.42587 0.25127 0.0
C793 C 0.1684 0.43834 0.18573 0.0
C794 C 0.18259 0.42624 0.28994 0.0
C795 C 0.20444 0.43837 0.26004 0.0
C796 C 0.20825 0.4509 0.19367 0.0
C797 C 0.19028 0.45133 0.15874 0.0
C798 C 0.17802 0.41363 0.36264 0.0
C799 C 0.23121 0.46347 0.15866 0.0
C800 C 0.25644 0.4547 0.37555 0.0
C801 C 0.2604 0.43704 0.36028 0.0
C802 C 0.23763 0.45479 0.3463 0.0
C803 C 0.22324 0.4375 0.297 0.0
C804 C 0.22722 0.41968 0.28109 0.0
C805 C 0.24538 0.41934 0.31477 0.0
C806 C 0.23337 0.47355 0.36733 0.0
C807 C 0.2128 0.40141 0.22644 0.0
H808 H 0.14788 0.41565 0.27228 0.0
H809 H 0.19344 0.46181 0.11018 0.0
H810 H 0.18121 0.39947 0.35629 0.0
H811 H 0.1895 0.42481 0.40664 0.0
H812 H 0.16049 0.40688 0.38171 0.0
H813 H 0.23099 0.47102 0.10416 0.0
H814 H 0.24293 0.47703 0.19639 0.0
H815 H 0.23794 0.45199 0.15004 0.0
H816 H 0.26826 0.46872 0.40913 0.0
H817 H 0.24826 0.40553 0.30359 0.0
H818 H 0.21557 0.46671 0.38327 0.0
H819 H 0.23672 0.48477 0.31886 0.0
H820 H 0.24415 0.48373 0.41437 0.0
H821 H 0.19523 0.39219 0.24621 0.0
H822 H 0.21869 0.38922 0.21816 0.0
H823 H 0.21282 0.40893 0.17168 0.0
C824 C 0.73191 0.18231 0.38844 0.0
C825 C 0.73523 0.17117 0.32891 0.0
C826 C 0.75001 0.20106 0.42133 0.0
C827 C 0.77185 0.20896 0.3931 0.0
C828 C 0.77519 0.19801 0.33179 0.0
C829 C 0.75676 0.1792 0.30024 0.0
C830 C 0.74579 0.21236 0.48638 0.0
C831 C 0.79824 0.20608 0.29992 0.0
C832 C 0.81631 0.26901 0.43384 0.0
C833 C 0.82832 0.26612 0.49143 0.0
C834 C 0.79786 0.25052 0.40119 0.0
C835 C 0.7912 0.22872 0.42767 0.0
C836 C 0.803 0.22581 0.48722 0.0
C837 C 0.82147 0.24463 0.51858 0.0
C838 C 0.78561 0.25429 0.33806 0.0
C839 C 0.79627 0.20281 0.51721 0.0
H840 H 0.7151 0.17629 0.40927 0.0
H841 H 0.75915 0.17058 0.2537 0.0
H842 H 0.75545 0.21225 0.53569 0.0
H843 H 0.75163 0.23014 0.47269 0.0
H844 H 0.72779 0.20404 0.50169 0.0
H845 H 0.79793 0.19583 0.25166 0.0
H846 H 0.80571 0.22378 0.28171 0.0
H847 H 0.80937 0.20552 0.3435 0.0
H848 H 0.82146 0.28578 0.41412 0.0
H849 H 0.83079 0.24255 0.56357 0.0
H850 H 0.76774 0.24736 0.35292 0.0
H851 H 0.78613 0.2453 0.28746 0.0
H852 H 0.79292 0.27233 0.32426 0.0
H853 H 0.77861 0.19436 0.5363 0.0
H854 H 0.80701 0.20348 0.56445 0.0
H855 H 0.79735 0.19233 0.47229 0.0
C856 C 0.57534 0.82691 0.61357 0.0
C857 C 0.56014 0.82394 0.67019 0.0
C858 C 0.57455 0.80848 0.5777 0.0
C859 C 0.55852 0.78655 0.60055 0.0
C860 C 0.54313 0.78343 0.65783 0.0
C861 C 0.54383 0.8022 0.69096 0.0
C862 C 0.59088 0.81247 0.51551 0.0
C863 C 0.52608 0.76029 0.68459 0.0
C864 C 0.54466 0.73836 0.4683 0.0
C865 C 0.55925 0.73115 0.49337 0.0
C866 C 0.54427 0.75646 0.50251 0.0
C867 C 0.55816 0.76693 0.56507 0.0
C868 C 0.57222 0.75906 0.59255 0.0
C869 C 0.57283 0.74148 0.55562 0.0
C870 C 0.52934 0.76465 0.4709 0.0
C871 C 0.5868 0.76937 0.6604 0.0
H872 H 0.58795 0.84373 0.59745 0.0
H873 H 0.53155 0.79985 0.73289 0.0
H874 H 0.60208 0.80596 0.53177 0.0
H875 H 0.5817 0.80327 0.46468 0.0
H876 H 0.60135 0.83053 0.50149 0.0
H877 H 0.51575 0.7608 0.73122 0.0
H878 H 0.5148 0.75049 0.63815 0.0
H879 H 0.53468 0.7512 0.70354 0.0
H880 H 0.53357 0.72989 0.42181 0.0
H881 H 0.58414 0.73592 0.57508 0.0
H882 H 0.5396 0.78251 0.45448 0.0
H883 H 0.51733 0.76365 0.51387 0.0
H884 H 0.51976 0.75481 0.42145 0.0
H885 H 0.59972 0.78696 0.64829 0.0
H886 H 0.59535 0.76008 0.67811 0.0
H887 H 0.5766 0.76972 0.70761 0.0
C888 C 0.75251 0.57243 0.85548 0.0
C889 C 0.73104 0.55792 0.82793 0.0
C890 C 0.77127 0.57261 0.82469 0.0
C891 C 0.76832 0.55787 0.76517 0.0
C892 C 0.74654 0.54279 0.73849 0.0
C893 C 0.7281 0.54289 0.77071 0.0
C894 C 0.79424 0.58876 0.855 0.0
C895 C 0.74276 0.52678 0.67533 0.0
C896 C 0.81809 0.57393 0.63858 0.0
C897 C 0.82638 0.56061 0.66704 0.0
C898 C 0.79901 0.57304 0.66957 0.0
C899 C 0.78808 0.55844 0.73023 0.0
C900 C 0.79617 0.54459 0.75798 0.0
C901 C 0.81517 0.54572 0.72552 0.0
C902 C 0.7907 0.58789 0.63811 0.0
C903 C 0.78492 0.52879 0.82245 0.0
H904 H 0.75462 0.58391 0.90023 0.0
H905 H 0.71135 0.53135 0.7508 0.0
H906 H 0.80273 0.57951 0.87329 0.0
H907 H 0.80468 0.60054 0.81047 0.0
H908 H 0.79357 0.59864 0.90285 0.0
H909 H 0.72472 0.51593 0.66193 0.0
H910 H 0.75156 0.53633 0.6246 0.0
H911 H 0.74986 0.51595 0.68982 0.0
H912 H 0.82677 0.58529 0.59285 0.0
H913 H 0.82141 0.53507 0.74614 0.0
H914 H 0.79134 0.59959 0.68179 0.0
H915 H 0.77297 0.57759 0.62045 0.0
H916 H 0.80076 0.59784 0.58959 0.0
H917 H 0.78513 0.5384 0.87237 0.0
H918 H 0.79322 0.51901 0.8368 0.0
H919 H 0.76712 0.51694 0.80881 0.0
C920 C 0.25791 0.80079 0.79553 0.0
C921 C 0.26372 0.82253 0.81772 0.0
C922 C 0.23951 0.78204 0.82731 0.0
C923 C 0.22735 0.78515 0.88504 0.0
C924 C 0.23372 0.80704 0.9097 0.0
C925 C 0.25161 0.82549 0.87483 0.0
C926 C 0.23288 0.75896 0.79838 0.0
C927 C 0.22159 0.81101 0.97268 0.0
C928 C 0.1674 0.7411 0.92732 0.0
C929 C 0.17013 0.72994 0.98815 0.0
C930 C 0.18595 0.7586 0.89152 0.0
C931 C 0.2077 0.76557 0.91896 0.0
C932 C 0.21059 0.75424 0.98003 0.0
C933 C 0.19175 0.73616 0.01274 0.0
C934 C 0.18223 0.76976 0.82492 0.0
C935 C 0.23351 0.76151 0.0118 0.0
H936 H 0.26775 0.7984 0.75336 0.0
H937 H 0.25607 0.84229 0.89206 0.0
H938 H 0.23394 0.7486 0.84373 0.0
H939 H 0.21522 0.75043 0.77902 0.0
H940 H 0.24365 0.75951 0.75149 0.0
H941 H 0.2297 0.82896 0.98873 0.0
H942 H 0.20405 0.80528 0.95604 0.0
H943 H 0.22099 0.80112 0.02235 0.0
H944 H 0.15068 0.73628 0.90811 0.0
H945 H 0.19396 0.72698 0.0578 0.0
H946 H 0.19282 0.77027 0.77757 0.0
H947 H 0.18723 0.78733 0.8389 0.0
H948 H 0.16446 0.76098 0.80652 0.0
H949 H 0.24437 0.76041 0.9685 0.0
H950 H 0.2328 0.75116 0.06034 0.0
H951 H 0.24156 0.77929 0.0297 0.0
C952 C 0.44714 0.1803 0.10035 0.0
C953 C 0.4324 0.16846 0.15846 0.0
C954 C 0.4471 0.19872 0.06746 0.0
C955 C 0.43209 0.2055 0.09406 0.0
C956 C 0.41744 0.19379 0.15381 0.0
C957 C 0.41783 0.17538 0.18557 0.0
C958 C 0.46307 0.21088 0.00423 0.0
C959 C 0.40129 0.20063 0.18381 0.0
C960 C 0.44559 0.26504 0.0551 0.0
C961 C 0.43129 0.26188 0.99522 0.0
C962 C 0.44597 0.2468 0.08807 0.0
C963 C 0.43186 0.22498 0.05968 0.0
C964 C 0.41768 0.22179 -0.00187 0.0
C965 C 0.41762 0.24038 0.96639 0.0
C966 C 0.46141 0.25087 0.15327 0.0
C967 C 0.4025 0.19877 0.96618 0.0
H968 H 0.4587 0.17509 0.08067 0.0
H969 H 0.40659 0.16621 0.231 0.0
H970 H 0.45357 0.21052 0.95382 0.0
H971 H 0.47421 0.22873 0.01928 0.0
H972 H 0.47361 0.2034 0.99007 0.0
H973 H 0.39109 0.18981 0.23069 0.0
H974 H 0.4106 0.21825 0.20346 0.0
H975 H 0.38985 0.19977 0.13877 0.0
H976 H 0.45648 0.28183 0.07612 0.0
H977 H 0.40672 0.23811 0.91959 0.0
H978 H 0.47322 0.24488 0.13964 0.0
H979 H 0.45157 0.24122 0.20246 0.0
H980 H 0.47123 0.26887 0.16874 0.0
H981 H 0.41256 0.19116 0.94774 0.0
H982 H 0.39257 0.19919 0.91805 0.0
H983 H 0.3908 0.18768 0.00978 0.0
C984 C 0.09224 0.40379 0.42347 0.0
C985 C 0.07579 0.41003 0.41754 0.0
C986 C 0.10078 0.40254 0.49317 0.0
C987 C 0.09238 0.40737 0.55813 0.0
C988 C 0.07418 0.41134 0.55283 0.0
C989 C 0.06617 0.41272 0.48249 0.0
C990 C 0.12019 0.39826 0.49595 0.0
C991 C 0.06441 0.41609 0.62099 0.0
C992 C 0.10375 0.39794 0.75658 0.0
C993 C 0.118 0.4201 0.7801 0.0
C994 C 0.09654 0.39316 0.68237 0.0
C995 C 0.10397 0.41093 0.63071 0.0
C996 C 0.12022 0.43294 0.65232 0.0
C997 C 0.12697 0.43731 0.72707 0.0
C998 C 0.07962 0.36943 0.66061 0.0
C999 C 0.12909 0.45221 0.59785 0.0
H1000 H 0.09988 0.40165 0.37404 0.0
H1001 H 0.05335 0.41739 0.47813 0.0
H1002 H 0.13608 0.41455 0.49484 0.0
H1003 H 0.12004 0.38933 0.54756 0.0
H1004 H 0.1201 0.38834 0.44698 0.0
H1005 H 0.04866 0.41607 0.60801 0.0
H1006 H 0.06101 0.4035 0.66508 0.0
H1007 H 0.07664 0.43278 0.64387 0.0
H1008 H 0.09694 0.38445 0.79702 0.0
H1009 H 0.13825 0.4544 0.74467 0.0
H1010 H 0.08512 0.36453 0.60942 0.0
H1011 H 0.06336 0.36833 0.64777 0.0
H1012 H 0.07697 0.35724 0.70552 0.0
H1013 H 0.13421 0.44763 0.54511 0.0
H1014 H 0.14364 0.46759 0.62071 0.0
H1015 H 0.11568 0.45606 0.58417 0.0
C1016 C 0.68748 0.12594 0.88904 0.0
C1017 C 0.69535 0.11728 0.9444 0.0
C1018 C 0.68379 0.11746 0.81623 0.0
C1019 C 0.68796 0.09982 0.79866 0.0
C1020 C 0.69743 0.09213 0.85284 0.0
C1021 C 0.70113 0.10106 0.92511 0.0
C1022 C 0.67404 0.1264 0.75943 0.0
C1023 C 0.70216 0.07342 0.83625 0.0
C1024 C 0.64892 0.06465 0.6451 0.0
C1025 C 0.66219 0.0747 0.58221 0.0
C1026 C 0.65781 0.07111 0.71701 0.0
C1027 C 0.68039 0.08829 0.72569 0.0
C1028 C 0.69441 0.09682 0.66251 0.0
C1029 C 0.68509 0.08994 0.5913 0.0
C1030 C 0.64244 0.06121 0.78324 0.0
C1031 C 0.71862 0.11496 0.66945 0.0
H1032 H 0.68316 0.13858 0.90347 0.0
H1033 H 0.70724 0.09424 0.96756 0.0
H1034 H 0.68401 0.13103 0.70729 0.0
H1035 H 0.65674 0.11318 0.74521 0.0
H1036 H 0.67351 0.14131 0.78018 0.0
H1037 H 0.71334 0.07241 0.87875 0.0
H1038 H 0.68617 0.05722 0.83587 0.0
H1039 H 0.70993 0.0756 0.78049 0.0
H1040 H 0.63117 0.053 0.638 0.0
H1041 H 0.69534 0.0982 0.54314 0.0
H1042 H 0.63842 0.07374 0.80617 0.0
H1043 H 0.65071 0.0569 0.82812 0.0
H1044 H 0.6265 0.04592 0.76801 0.0
H1045 H 0.7195 0.13126 0.6798 0.0
H1046 H 0.7282 0.11652 0.61786 0.0
H1047 H 0.72679 0.11165 0.71718 0.0
C1048 C 0.58444 0.65313 0.79434 0.0
C1049 C 0.58723 0.6655 0.72938 0.0
C1050 C 0.58711 0.66294 0.8647 0.0
C1051 C 0.59236 0.68557 0.86989 0.0
C1052 C 0.59721 0.69869 0.80468 0.0
C1053 C 0.59468 0.6885 0.73502 0.0
C1054 C 0.58235 0.64851 0.93322 0.0
C1055 C 0.6029 0.72288 0.80762 0.0
C1056 C 0.56413 0.69299 0.03837 0.0
C1057 C 0.58136 0.7006 0.09118 0.0
C1058 C 0.56801 0.68977 0.96399 0.0
C1059 C 0.58959 0.69416 0.94243 0.0
C1060 C 0.60751 0.70387 0.99376 0.0
C1061 C 0.60321 0.70711 0.0677 0.0
C1062 C 0.54857 0.67989 0.9101 0.0
C1063 C 0.6308 0.70917 0.97212 0.0
H1064 H 0.57882 0.63539 0.79013 0.0
H1065 H 0.59679 0.69827 0.68552 0.0
H1066 H 0.59555 0.65737 0.97588 0.0
H1067 H 0.56619 0.64504 0.95804 0.0
H1068 H 0.5813 0.63226 0.92017 0.0
H1069 H 0.61167 0.73206 0.75621 0.0
H1070 H 0.58721 0.72354 0.81259 0.0
H1071 H 0.61352 0.73166 0.85659 0.0
H1072 H 0.54731 0.68824 0.05602 0.0
H1073 H 0.6167 0.71321 0.10807 0.0
H1074 H 0.5439 0.66233 0.89718 0.0
H1075 H 0.55334 0.68937 0.85691 0.0
H1076 H 0.53364 0.67993 0.93305 0.0
H1077 H 0.63093 0.69334 0.96232 0.0
H1078 H 0.64334 0.71888 0.01596 0.0
H1079 H 0.63597 0.71883 0.91932 0.0
C1080 C 0.9326 0.58741 0.98782 0.0
C1081 C 0.9225 0.58973 0.92347 0.0
C1082 C 0.92527 0.58952 0.05855 0.0
C1083 C 0.90719 0.59368 0.06459 0.0
C1084 C 0.89845 0.59823 -0.00011 0.0
C1085 C 0.90626 0.5962 0.92988 0.0
C1086 C 0.93533 0.58494 0.12637 0.0
C1087 C 0.87917 0.6027 0.00358 0.0
C1088 C 0.87126 0.56241 0.22953 0.0
C1089 C 0.87957 0.57917 0.28412 0.0
C1090 C 0.8789 0.56734 0.15588 0.0
C1091 C 0.89535 0.58953 0.13684 0.0
C1092 C 0.90228 0.60687 0.19001 0.0
C1093 C 0.8942 0.6015 0.26321 0.0
C1094 C 0.87065 0.54846 0.09997 0.0
C1095 C 0.91941 0.63075 0.17094 0.0
H1096 H 0.94504 0.58225 0.98281 0.0
H1097 H 0.89801 0.59755 0.88061 0.0
H1098 H 0.9383 0.59721 0.17118 0.0
H1099 H 0.92347 0.56801 0.14832 0.0
H1100 H 0.95137 0.5856 0.11311 0.0
H1101 H 0.87849 0.61168 0.95307 0.0
H1102 H 0.86324 0.58649 0.00695 0.0
H1103 H 0.88028 0.61266 0.05359 0.0
H1104 H 0.85974 0.54519 0.24524 0.0
H1105 H 0.90061 0.61461 0.30502 0.0
H1106 H 0.88435 0.54502 0.0866 0.0
H1107 H 0.86567 0.55323 0.0473 0.0
H1108 H 0.85614 0.53278 0.12127 0.0
H1109 H 0.93572 0.63189 0.15869 0.0
H1110 H 0.92183 0.64254 0.21696 0.0
H1111 H 0.91429 0.63617 0.12001 0.0
C1112 C 0.31086 0.86886 0.37173 0.0
C1113 C 0.30266 0.87726 0.42677 0.0
C1114 C 0.31354 0.87664 0.29815 0.0
C1115 C 0.30799 0.89327 0.27958 0.0
C1116 C 0.29805 0.90048 0.33348 0.0
C1117 C 0.29539 0.89229 0.40648 0.0
C1118 C 0.32383 0.86822 0.24162 0.0
C1119 C 0.29186 0.91813 0.3159 0.0
C1120 C 0.34586 0.92979 0.12621 0.0
C1121 C 0.33282 0.9193 0.06315 0.0
C1122 C 0.33719 0.92281 0.19799 0.0
C1123 C 0.31506 0.90472 0.20645 0.0
C1124 C 0.30109 0.8957 0.14326 0.0
C1125 C 0.31015 0.90318 0.07209 0.0
C1126 C 0.35245 0.93331 0.26426 0.0
C1127 C 0.2773 0.87662 0.15009 0.0
H1128 H 0.3163 0.85711 0.38688 0.0
H1129 H 0.28889 0.89881 0.44859 0.0
H1130 H 0.31377 0.86307 0.1896 0.0
H1131 H 0.34088 0.88191 0.22705 0.0
H1132 H 0.32514 0.85377 0.26288 0.0
H1133 H 0.28018 0.91839 0.35798 0.0
H1134 H 0.30724 0.93486 0.31555 0.0
H1135 H 0.28404 0.91538 0.25997 0.0
H1136 H 0.36337 0.94233 0.11933 0.0
H1137 H 0.29996 0.89488 0.02384 0.0
H1138 H 0.3573 0.92139 0.28725 0.0
H1139 H 0.34373 0.93703 0.30912 0.0
H1140 H 0.36795 0.94906 0.24908 0.0
H1141 H 0.27743 0.86082 0.16055 0.0
H1142 H 0.26751 0.87448 0.09847 0.0
H1143 H 0.26868 0.87932 0.19778 0.0
C1144 C 0.43567 0.31078 0.55545 0.0
C1145 C 0.41913 0.30256 0.61068 0.0
C1146 C 0.43076 0.31435 0.48261 0.0
C1147 C 0.40881 0.30973 0.46492 0.0
C1148 C 0.3917 0.29999 0.51902 0.0
C1149 C 0.39703 0.29638 0.59126 0.0
C1150 C 0.44941 0.3244 0.42588 0.0
C1151 C 0.36814 0.29487 0.50236 0.0
C1152 C 0.4113 0.3482 0.31122 0.0
C1153 C 0.40805 0.3349 0.24834 0.0
C1154 C 0.40947 0.3395 0.38315 0.0
C1155 C 0.40461 0.31708 0.3919 0.0
C1156 C 0.39913 0.30298 0.32884 0.0
C1157 C 0.40096 0.3121 0.25759 0.0
C1158 C 0.41502 0.35499 0.44916 0.0
C1159 C 0.39366 0.27894 0.33582 0.0
H1160 H 0.45271 0.31543 0.56997 0.0
H1161 H 0.38409 0.29001 0.63358 0.0
H1162 H 0.44421 0.31444 0.37365 0.0
H1163 H 0.45321 0.34163 0.41182 0.0
H1164 H 0.46499 0.32523 0.44661 0.0
H1165 H 0.35608 0.28389 0.54549 0.0
H1166 H 0.36774 0.31076 0.50047 0.0
H1167 H 0.36251 0.28667 0.44716 0.0
H1168 H 0.41698 0.36587 0.30401 0.0
H1169 H 0.399 0.30185 0.20942 0.0
H1170 H 0.43197 0.35975 0.47018 0.0
H1171 H 0.40302 0.34653 0.49533 0.0
H1172 H 0.41485 0.37055 0.43422 0.0
H1173 H 0.40933 0.27853 0.34597 0.0
H1174 H 0.38571 0.2692 0.28436 0.0
H1175 H 0.38234 0.2706 0.38372 0.0
C1176 C 0.55954 0.86992 0.11773 0.0
C1177 C 0.57618 0.87858 0.06286 0.0
C1178 C 0.5644 0.8778 0.19125 0.0
C1179 C 0.5864 0.89483 0.20995 0.0
C1180 C 0.60363 0.90238 0.15624 0.0
C1181 C 0.59833 0.89406 0.0833 0.0
C1182 C 0.54564 0.86903 0.24758 0.0
C1183 C 0.62727 0.92046 0.17396 0.0
C1184 C 0.58408 0.93089 0.36333 0.0
C1185 C 0.58703 0.92068 0.42642 0.0
C1186 C 0.5859 0.92398 0.29155 0.0
C1187 C 0.59048 0.90624 0.28312 0.0
C1188 C 0.59575 0.89749 0.34631 0.0
C1189 C 0.59403 0.9049 0.41747 0.0
C1190 C 0.58081 0.93421 0.22525 0.0
C1191 C 0.60101 0.87877 0.33951 0.0
H1192 H 0.54245 0.85783 0.10246 0.0
H1193 H 0.61137 0.9008 0.04133 0.0
H1194 H 0.5507 0.8641 0.29972 0.0
H1195 H 0.54186 0.88246 0.26196 0.0
H1196 H 0.53008 0.85436 0.22624 0.0
H1197 H 0.63939 0.9211 0.13191 0.0
H1198 H 0.62813 0.93697 0.17445 0.0
H1199 H 0.63248 0.91788 0.22988 0.0
H1200 H 0.57877 0.94318 0.37021 0.0
H1201 H 0.59622 0.8968 0.46571 0.0
H1202 H 0.5642 0.92195 0.20196 0.0
H1203 H 0.59339 0.93831 0.1806 0.0
H1204 H 0.58051 0.94968 0.24044 0.0
H1205 H 0.58529 0.86278 0.32881 0.0
H1206 H 0.60875 0.87681 0.39121 0.0
H1207 H 0.61244 0.88174 0.29197 0.0
C1208 C 0.7037 0.5988 0.23201 0.0
C1209 C 0.69599 0.57647 0.211 0.0
C1210 C 0.70083 0.60415 0.30508 0.0
C1211 C 0.69021 0.58677 0.35799 0.0
C1212 C 0.68439 0.56456 0.33885 0.0
C1213 C 0.68731 0.55967 0.26538 0.0
C1214 C 0.70769 0.62806 0.3243 0.0
C1215 C 0.67351 0.54562 0.39447 0.0
C1216 C 0.68593 0.5928 0.56506 0.0
C1217 C 0.66322 0.5863 0.57157 0.0
C1218 C 0.69581 0.59515 0.495 0.0
C1219 C 0.68258 0.59093 0.43033 0.0
C1220 C 0.66037 0.58686 0.43657 0.0
C1221 C 0.65087 0.58436 0.50738 0.0
C1222 C 0.71953 0.59955 0.49109 0.0
C1223 C 0.64587 0.58278 0.36872 0.0
H1224 H 0.71058 0.61195 0.19034 0.0
H1225 H 0.6816 0.54245 0.24961 0.0
H1226 H 0.69256 0.62936 0.33527 0.0
H1227 H 0.7179 0.6333 0.37597 0.0
H1228 H 0.71743 0.63988 0.27883 0.0
H1229 H 0.67211 0.52986 0.37296 0.0
H1230 H 0.68321 0.55021 0.44722 0.0
H1231 H 0.65644 0.54242 0.40777 0.0
H1232 H 0.69548 0.59391 0.61419 0.0
H1233 H 0.63327 0.57922 0.51246 0.0
H1234 H 0.72844 0.60971 0.4415 0.0
H1235 H 0.7192 0.58332 0.48675 0.0
H1236 H 0.72917 0.60828 0.54193 0.0
H1237 H 0.65529 0.59529 0.32468 0.0
H1238 H 0.63053 0.5835 0.38227 0.0
H1239 H 0.64072 0.56595 0.34557 0.0
C1240 C 0.10382 0.70594 0.40875 0.0
C1241 C 0.11801 0.6979 0.38595 0.0
C1242 C 0.09653 0.70364 0.48279 0.0
C1243 C 0.10383 0.69331 0.53499 0.0
C1244 C 0.11998 0.68738 0.51404 0.0
C1245 C 0.12683 0.68965 0.43948 0.0
C1246 C 0.07965 0.71055 0.50372 0.0
C1247 C 0.12862 0.67685 0.56892 0.0
C1248 C 0.09247 0.6889 0.74219 0.0
C1249 C 0.07595 0.66623 0.74819 0.0
C1250 C 0.10082 0.69867 0.6724 0.0
C1251 C 0.0922 0.68544 0.60749 0.0
C1252 C 0.07389 0.6633 0.61295 0.0
C1253 C 0.06606 0.65393 0.68338 0.0
C1254 C 0.12033 0.72234 0.66926 0.0
C1255 C 0.06388 0.64878 0.54482 0.0
H1256 H 0.0971 0.71259 0.36787 0.0
H1257 H 0.13804 0.68373 0.4224 0.0
H1258 H 0.08494 0.72078 0.55535 0.0
H1259 H 0.07732 0.72029 0.45877 0.0
H1260 H 0.06326 0.69541 0.51539 0.0
H1261 H 0.14311 0.67587 0.54651 0.0
H1262 H 0.13374 0.68655 0.62169 0.0
H1263 H 0.11507 0.65963 0.58242 0.0
H1264 H 0.1003 0.69862 0.79164 0.0
H1265 H 0.0532 0.63644 0.68787 0.0
H1266 H 0.11952 0.73132 0.61912 0.0
H1267 H 0.13614 0.72184 0.66649 0.0
H1268 H 0.12103 0.73203 0.7197 0.0
H1269 H 0.06046 0.65802 0.50098 0.0
H1270 H 0.0481 0.6331 0.55797 0.0
H1271 H 0.07598 0.64423 0.52152 0.0
C1272 C 0.3983 0.09876 0.56272 0.0
C1273 C 0.42017 0.11526 0.54334 0.0
C1274 C 0.39326 0.0898 0.63495 0.0
C1275 C 0.41045 0.09772 0.689 0.0
C1276 C 0.43211 0.1156 0.67135 0.0
C1277 C 0.43673 0.12411 0.59859 0.0
C1278 C 0.36997 0.07082 0.65168 0.0
C1279 C 0.45084 0.12479 0.72804 0.0
C1280 C 0.40347 0.08777 0.89636 0.0
C1281 C 0.41144 0.07276 0.90551 0.0
C1282 C 0.40098 0.0946 0.82514 0.0
C1283 C 0.4067 0.08625 0.762 0.0
C1284 C 0.41244 0.06931 0.7707 0.0
C1285 C 0.41492 0.06289 0.84262 0.0
C1286 C 0.39458 0.11251 0.81822 0.0
C1287 C 0.4182 0.05962 0.70451 0.0
H1288 H 0.38535 0.09179 0.52037 0.0
H1289 H 0.4536 0.13696 0.58408 0.0
H1290 H 0.37015 0.05482 0.65345 0.0
H1291 H 0.3642 0.07312 0.70695 0.0
H1292 H 0.3577 0.06931 0.60863 0.0
H1293 H 0.46614 0.13984 0.70724 0.0
H1294 H 0.44541 0.12928 0.78025 0.0
H1295 H 0.45521 0.11175 0.74213 0.0
H1296 H 0.40129 0.09591 0.9445 0.0
H1297 H 0.42124 0.05142 0.84975 0.0
H1298 H 0.38311 0.10909 0.77037 0.0
H1299 H 0.40987 0.12892 0.80809 0.0
H1300 H 0.38642 0.1139 0.86974 0.0
H1301 H 0.40571 0.05526 0.6593 0.0
H1302 H 0.419 0.0444 0.71967 0.0
H1303 H 0.43474 0.0723 0.68206 0.0
C1304 C 0.32954 0.45231 0.78343 0.0
C1305 C 0.31458 0.43528 0.73561 0.0
C1306 C 0.33221 0.44755 0.85761 0.0
C1307 C 0.31959 0.42528 0.88432 0.0
C1308 C 0.30367 0.40829 0.8374 0.0
C1309 C 0.30133 0.41351 0.76369 0.0
C1310 C 0.34921 0.46613 0.90645 0.0
C1311 C 0.28986 0.38435 0.86388 0.0
C1312 C 0.34368 0.40801 0.04476 0.0
C1313 C 0.3317 0.40941 0.10532 0.0
C1314 C 0.33985 0.41303 0.97224 0.0
C1315 C 0.32359 0.41957 0.96047 0.0
C1316 C 0.31101 0.42039 0.02128 0.0
C1317 C 0.31505 0.41505 0.09279 0.0
C1318 C 0.35336 0.41162 0.90842 0.0
C1319 C 0.29336 0.42703 0.01096 0.0
H1320 H 0.33989 0.46915 0.76207 0.0
H1321 H 0.28966 0.40025 0.72717 0.0
H1322 H 0.34136 0.46681 0.9596 0.0
H1323 H 0.3629 0.46274 0.92062 0.0
H1324 H 0.35662 0.48277 0.87891 0.0
H1325 H 0.27706 0.37349 0.8223 0.0
H1326 H 0.30099 0.37736 0.87497 0.0
H1327 H 0.28129 0.38365 0.91693 0.0
H1328 H 0.35634 0.40335 0.05438 0.0
H1329 H 0.30518 0.41527 0.1388 0.0
H1330 H 0.36353 0.42839 0.88265 0.0
H1331 H 0.34204 0.40024 0.86455 0.0
H1332 H 0.36475 0.40548 0.92653 0.0
H1333 H 0.30097 0.44401 0.98596 0.0
H1334 H 0.28523 0.42708 0.06436 0.0
H1335 H 0.28028 0.4153 0.97182 0.0
C1336 C 0.90741 0.31261 0.23025 0.0
C1337 C 0.92329 0.33547 0.23641 0.0
C1338 C 0.89954 0.30263 0.16042 0.0
C1339 C 0.90788 0.31591 0.09556 0.0
C1340 C 0.9256 0.33837 0.10126 0.0
C1341 C 0.93298 0.34794 0.17185 0.0
C1342 C 0.8806 0.27868 0.15719 0.0
C1343 C 0.93525 0.35297 0.03321 0.0
C1344 C 0.89532 0.29471 0.89727 0.0
C1345 C 0.88037 0.30195 0.87579 0.0
C1346 C 0.90335 0.29766 0.97063 0.0
C1347 C 0.89606 0.30783 0.02337 0.0
C1348 C 0.87926 0.31302 0.00381 0.0
C1349 C 0.87167 0.3101 0.93001 0.0
C1350 C 0.9208 0.2914 0.99038 0.0
C1351 C 0.87056 0.3233 0.05936 0.0
H1352 H 0.89948 0.30294 0.27965 0.0
H1353 H 0.94513 0.36566 0.17664 0.0
H1354 H 0.86445 0.27854 0.15519 0.0
H1355 H 0.88162 0.26994 0.10674 0.0
H1356 H 0.88044 0.26913 0.20734 0.0
H1357 H 0.9509 0.36881 0.04634 0.0
H1358 H 0.93879 0.34392 0.98902 0.0
H1359 H 0.92289 0.35725 0.01047 0.0
H1360 H 0.90201 0.28822 0.85577 0.0
H1361 H 0.85988 0.3154 0.91388 0.0
H1362 H 0.92352 0.28216 0.94463 0.0
H1363 H 0.91578 0.28088 0.04132 0.0
H1364 H 0.93692 0.30678 0.00292 0.0
H1365 H 0.86586 0.31366 0.11222 0.0
H1366 H 0.85577 0.32392 0.03784 0.0
H1367 H 0.88393 0.34065 0.07243 0.0
loop_
_geom_bond_atom_site_label_1
_geom_bond_atom_site_label_2
_geom_bond_distance
_geom_bond_site_symmetry_2
_ccdc_geom_bond_type
Co0 O3 1.970 . S
Co0 N17 1.989 1_556 S
Co0 O25 1.967 1_556 S
Co0 O32 1.920 . S
Co1 O4 1.966 . S
Co1 N10 2.022 . S
Co1 N18 1.993 . S
Co1 O26 1.941 . S
C2 O3 1.258 1_554 S
C2 O4 1.263 . S
O3 Co0 1.970 . S
O3 C2 1.258 1_556 S
O4 Co1 1.966 . S
O4 C2 1.263 . S
C5 O6 1.235 . S
C5 O32 1.289 . S
O6 C5 1.235 . S
C7 C9 1.400 . S
C7 N10 1.351 . S
C7 C12 1.501 . S
C8 C9 1.387 . S
C8 N11 1.341 . S
C9 C7 1.400 . S
C9 C8 1.387 . S
N10 Co1 2.022 . S
N10 C7 1.351 . S
N10 N11 1.365 . S
N11 C8 1.341 . S
N11 N10 1.365 . S
N11 H31 0.862 . S
C12 C7 1.501 . S
C12 H13 0.961 . S
C12 H14 0.961 . S
C12 H15 0.960 . S
H13 C12 0.961 . S
H14 C12 0.961 . S
H15 C12 0.960 . S
C16 N17 1.342 . S
C16 C20 1.401 . S
C16 C21 1.499 1_554 S
N17 Co0 1.989 1_554 S
N17 C16 1.342 . S
N17 N18 1.388 . S
N18 Co1 1.993 . S
N18 N17 1.388 . S
N18 C19 1.346 . S
C19 N18 1.346 . S
C19 C20 1.396 . S
C19 C29 1.510 . S
C20 C16 1.401 . S
C20 C19 1.396 . S
C21 C16 1.499 1_556 S
C21 H22 0.959 . S
C21 H23 0.960 . S
C21 H24 0.961 . S
H22 C21 0.959 . S
H23 C21 0.960 . S
H24 C21 0.961 . S
O25 Co0 1.967 1_554 S
O25 C33 1.258 . S
O26 Co1 1.941 . S
O26 C33 1.266 . S
H27 C29 0.959 . S
H28 C29 0.961 . S
C29 C19 1.510 . S
C29 H27 0.959 . S
C29 H28 0.961 . S
C29 H30 0.960 . S
H30 C29 0.960 . S
H31 N11 0.862 . S
O32 Co0 1.920 . S
O32 C5 1.289 . S
C33 O25 1.258 . S
C33 O26 1.266 . S
Co34 O37 1.970 . S
Co34 N51 1.989 . S
Co34 O59 1.967 . S
Co34 O66 1.920 . S
Co35 O38 1.966 . S
Co35 N44 2.022 . S
Co35 N52 1.993 . S
Co35 O60 1.941 . S
C36 O37 1.258 . S
C36 O38 1.263 . S
O37 Co34 1.970 . S
O37 C36 1.258 . S
O38 Co35 1.966 . S
O38 C36 1.263 . S
C39 O40 1.235 . S
C39 O66 1.289 . S
O40 C39 1.235 . S
C41 C43 1.400 . S
C41 N44 1.351 . S
C41 C46 1.501 . S
C42 C43 1.387 . S
C42 N45 1.341 . S
C43 C41 1.400 . S
C43 C42 1.387 . S
N44 Co35 2.022 . S
N44 C41 1.351 . S
N44 N45 1.365 . S
N45 C42 1.341 . S
N45 N44 1.365 . S
N45 H65 0.862 . S
C46 C41 1.501 . S
C46 H47 0.961 . S
C46 H48 0.961 . S
C46 H49 0.960 . S
H47 C46 0.961 . S
H48 C46 0.961 . S
H49 C46 0.960 . S
C50 N51 1.342 . S
C50 C54 1.401 . S
C50 C55 1.499 . S
N51 Co34 1.989 . S
N51 C50 1.342 . S
N51 N52 1.388 . S
N52 Co35 1.993 . S
N52 N51 1.388 . S
N52 C53 1.346 . S
C53 N52 1.346 . S
C53 C54 1.396 . S
C53 C63 1.510 . S
C54 C50 1.401 . S
C54 C53 1.396 . S
C55 C50 1.499 . S
C55 H56 0.959 . S
C55 H57 0.960 . S
C55 H58 0.961 . S
H56 C55 0.959 . S
H57 C55 0.960 . S
H58 C55 0.961 . S
O59 Co34 1.967 . S
O59 C67 1.258 . S
O60 Co35 1.941 . S
O60 C67 1.266 . S
H61 C63 0.959 . S
H62 C63 0.961 . S
C63 C53 1.510 . S
C63 H61 0.959 . S
C63 H62 0.961 . S
C63 H64 0.960 . S
H64 C63 0.960 . S
H65 N45 0.862 . S
O66 Co34 1.920 . S
O66 C39 1.289 . S
C67 O59 1.258 . S
C67 O60 1.266 . S
Co68 O71 1.970 . S
Co68 N85 1.989 . S
Co68 O93 1.967 . S
Co68 O100 1.920 . S
Co69 O72 1.966 . S
Co69 N78 2.022 . S
Co69 N86 1.993 . S
Co69 O94 1.941 . S
C70 O71 1.258 . S
C70 O72 1.263 . S
O71 Co68 1.970 . S
O71 C70 1.258 . S
O72 Co69 1.966 . S
O72 C70 1.263 . S
C73 O74 1.235 . S
C73 O100 1.289 . S
O74 C73 1.235 . S
C75 C77 1.400 . S
C75 N78 1.351 . S
C75 C80 1.501 . S
C76 C77 1.387 . S
C76 N79 1.341 . S
C77 C75 1.400 . S
C77 C76 1.387 . S
N78 Co69 2.022 . S
N78 C75 1.351 . S
N78 N79 1.365 . S
N79 C76 1.341 . S
N79 N78 1.365 . S
N79 H99 0.862 . S
C80 C75 1.501 . S
C80 H81 0.961 . S
C80 H82 0.961 . S
C80 H83 0.960 . S
H81 C80 0.961 . S
H82 C80 0.961 . S
H83 C80 0.960 . S
C84 N85 1.342 . S
C84 C88 1.401 . S
C84 C89 1.499 . S
N85 Co68 1.989 . S
N85 C84 1.342 . S
N85 N86 1.388 . S
N86 Co69 1.993 . S
N86 N85 1.388 . S
N86 C87 1.346 . S
C87 N86 1.346 . S
C87 C88 1.396 . S
C87 C97 1.510 . S
C88 C84 1.401 . S
C88 C87 1.396 . S
C89 C84 1.499 . S
C89 H90 0.959 . S
C89 H91 0.960 . S
C89 H92 0.961 . S
H90 C89 0.959 . S
H91 C89 0.960 . S
H92 C89 0.961 . S
O93 Co68 1.967 . S
O93 C101 1.258 . S
O94 Co69 1.941 . S
O94 C101 1.266 . S
H95 C97 0.959 . S
H96 C97 0.961 . S
C97 C87 1.510 . S
C97 H95 0.959 . S
C97 H96 0.961 . S
C97 H98 0.960 . S
H98 C97 0.960 . S
H99 N79 0.862 . S
O100 Co68 1.920 . S
O100 C73 1.289 . S
C101 O93 1.258 . S
C101 O94 1.266 . S
Co102 O105 1.970 . S
Co102 N119 1.989 . S
Co102 O127 1.967 . S
Co102 O134 1.920 . S
Co103 O106 1.966 . S
Co103 N112 2.022 . S
Co103 N120 1.993 . S
Co103 O128 1.941 . S
C104 O105 1.258 . S
C104 O106 1.263 . S
O105 Co102 1.970 . S
O105 C104 1.258 . S
O106 Co103 1.966 . S
O106 C104 1.263 . S
C107 O108 1.235 . S
C107 O134 1.289 . S
O108 C107 1.235 . S
C109 C111 1.400 . S
C109 N112 1.351 . S
C109 C114 1.501 . S
C110 C111 1.387 . S
C110 N113 1.341 . S
C111 C109 1.400 . S
C111 C110 1.387 . S
N112 Co103 2.022 . S
N112 C109 1.351 . S
N112 N113 1.365 . S
N113 C110 1.341 . S
N113 N112 1.365 . S
N113 H133 0.862 . S
C114 C109 1.501 . S
C114 H115 0.961 . S
C114 H116 0.961 . S
C114 H117 0.960 . S
H115 C114 0.961 . S
H116 C114 0.961 . S
H117 C114 0.960 . S
C118 N119 1.342 . S
C118 C122 1.401 . S
C118 C123 1.499 . S
N119 Co102 1.989 . S
N119 C118 1.342 . S
N119 N120 1.388 . S
N120 Co103 1.993 . S
N120 N119 1.388 . S
N120 C121 1.346 . S
C121 N120 1.346 . S
C121 C122 1.396 . S
C121 C131 1.510 . S
C122 C118 1.401 . S
C122 C121 1.396 . S
C123 C118 1.499 . S
C123 H124 0.959 . S
C123 H125 0.960 . S
C123 H126 0.961 . S
H124 C123 0.959 . S
H125 C123 0.960 . S
H126 C123 0.961 . S
O127 Co102 1.967 . S
O127 C135 1.258 . S
O128 Co103 1.941 . S
O128 C135 1.266 . S
H129 C131 0.959 . S
H130 C131 0.961 . S
C131 C121 1.510 . S
C131 H129 0.959 . S
C131 H130 0.961 . S
C131 H132 0.960 . S
H132 C131 0.960 . S
H133 N113 0.862 . S
O134 Co102 1.920 . S
O134 C107 1.289 . S
C135 O127 1.258 . S
C135 O128 1.266 . S
Co136 O139 1.970 . S
Co136 N153 1.989 . S
Co136 O161 1.967 . S
Co136 O168 1.920 . S
Co137 O140 1.966 . S
Co137 N146 2.022 . S
Co137 N154 1.993 . S
Co137 O162 1.941 . S
C138 O139 1.258 . S
C138 O140 1.263 . S
O139 Co136 1.970 . S
O139 C138 1.258 . S
O140 Co137 1.966 . S
O140 C138 1.263 . S
C141 O142 1.235 . S
C141 O168 1.289 . S
O142 C141 1.235 . S
C143 C145 1.400 1_556 S
C143 N146 1.351 . S
C143 C148 1.501 . S
C144 C145 1.387 . S
C144 N147 1.341 1_554 S
C145 C143 1.400 1_554 S
C145 C144 1.387 . S
N146 Co137 2.022 . S
N146 C143 1.351 . S
N146 N147 1.365 . S
N147 C144 1.341 1_556 S
N147 N146 1.365 . S
N147 H167 0.862 . S
C148 C143 1.501 . S
C148 H149 0.961 . S
C148 H150 0.961 . S
C148 H151 0.960 . S
H149 C148 0.961 . S
H150 C148 0.961 . S
H151 C148 0.960 . S
C152 N153 1.342 . S
C152 C156 1.401 . S
C152 C157 1.499 . S
N153 Co136 1.989 . S
N153 C152 1.342 . S
N153 N154 1.388 . S
N154 Co137 1.993 . S
N154 N153 1.388 . S
N154 C155 1.346 . S
C155 N154 1.346 . S
C155 C156 1.396 . S
C155 C165 1.510 . S
C156 C152 1.401 . S
C156 C155 1.396 . S
C157 C152 1.499 . S
C157 H158 0.959 . S
C157 H159 0.960 . S
C157 H160 0.961 . S
H158 C157 0.959 . S
H159 C157 0.960 . S
H160 C157 0.961 . S
O161 Co136 1.967 . S
O161 C169 1.258 . S
O162 Co137 1.941 . S
O162 C169 1.266 . S
H163 C165 0.959 . S
H164 C165 0.961 . S
C165 C155 1.510 . S
C165 H163 0.959 . S
C165 H164 0.961 . S
C165 H166 0.960 . S
H166 C165 0.960 . S
H167 N147 0.862 . S
O168 Co136 1.920 . S
O168 C141 1.289 . S
C169 O161 1.258 . S
C169 O162 1.266 . S
Co170 O173 1.970 . S
Co170 N187 1.989 . S
Co170 O195 1.967 . S
Co170 O202 1.920 . S
Co171 O174 1.966 . S
Co171 N180 2.022 1_556 S
Co171 N188 1.993 . S
Co171 O196 1.941 . S
C172 O173 1.258 . S
C172 O174 1.263 . S
O173 Co170 1.970 . S
O173 C172 1.258 . S
O174 Co171 1.966 . S
O174 C172 1.263 . S
C175 O176 1.235 . S
C175 O202 1.289 . S
O176 C175 1.235 . S
C177 C179 1.400 . S
C177 N180 1.351 . S
C177 C182 1.501 . S
C178 C179 1.387 . S
C178 N181 1.341 . S
C179 C177 1.400 . S
C179 C178 1.387 . S
N180 Co171 2.022 1_554 S
N180 C177 1.351 . S
N180 N181 1.365 . S
N181 C178 1.341 . S
N181 N180 1.365 . S
N181 H201 0.862 . S
C182 C177 1.501 . S
C182 H183 0.961 . S
C182 H184 0.961 . S
C182 H185 0.960 . S
H183 C182 0.961 . S
H184 C182 0.961 . S
H185 C182 0.960 . S
C186 N187 1.342 . S
C186 C190 1.401 . S
C186 C191 1.499 . S
N187 Co170 1.989 . S
N187 C186 1.342 . S
N187 N188 1.388 . S
N188 Co171 1.993 . S
N188 N187 1.388 . S
N188 C189 1.346 1_556 S
C189 N188 1.346 1_554 S
C189 C190 1.396 1_554 S
C189 C199 1.510 . S
C190 C186 1.401 . S
C190 C189 1.396 1_556 S
C191 C186 1.499 . S
C191 H192 0.959 . S
C191 H193 0.960 . S
C191 H194 0.961 . S
H192 C191 0.959 . S
H193 C191 0.960 . S
H194 C191 0.961 . S
O195 Co170 1.967 . S
O195 C203 1.258 . S
O196 Co171 1.941 . S
O196 C203 1.266 . S
H197 C199 0.959 . S
H198 C199 0.961 . S
C199 C189 1.510 . S
C199 H197 0.959 . S
C199 H198 0.961 . S
C199 H200 0.960 . S
H200 C199 0.960 . S
H201 N181 0.862 . S
O202 Co170 1.920 . S
O202 C175 1.289 . S
C203 O195 1.258 . S
C203 O196 1.266 . S
Co204 O207 1.970 . S
Co204 N221 1.989 . S
Co204 O229 1.967 . S
Co204 O236 1.920 . S
Co205 O208 1.966 . S
Co205 N214 2.022 . S
Co205 N222 1.993 . S
Co205 O230 1.941 . S
C206 O207 1.258 . S
C206 O208 1.263 . S
O207 Co204 1.970 . S
O207 C206 1.258 . S
O208 Co205 1.966 . S
O208 C206 1.263 . S
C209 O210 1.235 . S
C209 O236 1.289 . S
O210 C209 1.235 . S
C211 C213 1.400 . S
C211 N214 1.351 . S
C211 C216 1.501 . S
C212 C213 1.387 . S
C212 N215 1.341 . S
C213 C211 1.400 . S
C213 C212 1.387 . S
N214 Co205 2.022 . S
N214 C211 1.351 . S
N214 N215 1.365 . S
N215 C212 1.341 . S
N215 N214 1.365 . S
N215 H235 0.862 . S
C216 C211 1.501 . S
C216 H217 0.961 . S
C216 H218 0.961 . S
C216 H219 0.960 . S
H217 C216 0.961 . S
H218 C216 0.961 . S
H219 C216 0.960 . S
C220 N221 1.342 . S
C220 C224 1.401 . S
C220 C225 1.499 . S
N221 Co204 1.989 . S
N221 C220 1.342 . S
N221 N222 1.388 . S
N222 Co205 1.993 . S
N222 N221 1.388 . S
N222 C223 1.346 . S
C223 N222 1.346 . S
C223 C224 1.396 . S
C223 C233 1.510 . S
C224 C220 1.401 . S
C224 C223 1.396 . S
C225 C220 1.499 . S
C225 H226 0.959 . S
C225 H227 0.960 . S
C225 H228 0.961 . S
H226 C225 0.959 . S
H227 C225 0.960 . S
H228 C225 0.961 . S
O229 Co204 1.967 . S
O229 C237 1.258 . S
O230 Co205 1.941 . S
O230 C237 1.266 . S
H231 C233 0.959 . S
H232 C233 0.961 . S
C233 C223 1.510 . S
C233 H231 0.959 . S
C233 H232 0.961 . S
C233 H234 0.960 . S
H234 C233 0.960 . S
H235 N215 0.862 . S
O236 Co204 1.920 . S
O236 C209 1.289 . S
C237 O229 1.258 . S
C237 O230 1.266 . S
Co238 O241 1.970 . S
Co238 N255 1.989 1_554 S
Co238 O263 1.967 1_554 S
Co238 O270 1.920 . S
Co239 O242 1.966 . S
Co239 N248 2.022 . S
Co239 N256 1.993 . S
Co239 O264 1.941 . S
C240 O241 1.258 1_556 S
C240 O242 1.263 . S
O241 Co238 1.970 . S
O241 C240 1.258 1_554 S
O242 Co239 1.966 . S
O242 C240 1.263 . S
C243 O244 1.235 . S
C243 O270 1.289 . S
O244 C243 1.235 . S
C245 C247 1.400 . S
C245 N248 1.351 . S
C245 C250 1.501 . S
C246 C247 1.387 . S
C246 N249 1.341 . S
C247 C245 1.400 . S
C247 C246 1.387 . S
N248 Co239 2.022 . S
N248 C245 1.351 . S
N248 N249 1.365 . S
N249 C246 1.341 . S
N249 N248 1.365 . S
N249 H269 0.862 . S
C250 C245 1.501 . S
C250 H251 0.961 . S
C250 H252 0.961 . S
C250 H253 0.960 . S
H251 C250 0.961 . S
H252 C250 0.961 . S
H253 C250 0.960 . S
C254 N255 1.342 . S
C254 C258 1.401 . S
C254 C259 1.499 1_556 S
N255 Co238 1.989 1_556 S
N255 C254 1.342 . S
N255 N256 1.388 . S
N256 Co239 1.993 . S
N256 N255 1.388 . S
N256 C257 1.346 . S
C257 N256 1.346 . S
C257 C258 1.396 . S
C257 C267 1.510 . S
C258 C254 1.401 . S
C258 C257 1.396 . S
C259 C254 1.499 1_554 S
C259 H260 0.959 . S
C259 H261 0.960 . S
C259 H262 0.961 . S
H260 C259 0.959 . S
H261 C259 0.960 . S
H262 C259 0.961 . S
O263 Co238 1.967 1_556 S
O263 C271 1.258 . S
O264 Co239 1.941 . S
O264 C271 1.266 . S
H265 C267 0.959 . S
H266 C267 0.961 . S
C267 C257 1.510 . S
C267 H265 0.959 . S
C267 H266 0.961 . S
C267 H268 0.960 . S
H268 C267 0.960 . S
H269 N249 0.862 . S
O270 Co238 1.920 . S
O270 C243 1.289 . S
C271 O263 1.258 . S
C271 O264 1.266 . S
Co272 O275 1.970 . S
Co272 N289 1.989 . S
Co272 O297 1.967 . S
Co272 O304 1.920 . S
Co273 O276 1.966 . S
Co273 N282 2.022 1_554 S
Co273 N290 1.993 . S
Co273 O298 1.941 . S
C274 O275 1.258 . S
C274 O276 1.263 . S
O275 Co272 1.970 . S
O275 C274 1.258 . S
O276 Co273 1.966 . S
O276 C274 1.263 . S
C277 O278 1.235 . S
C277 O304 1.289 . S
O278 C277 1.235 . S
C279 C281 1.400 . S
C279 N282 1.351 . S
C279 C284 1.501 . S
C280 C281 1.387 . S
C280 N283 1.341 . S
C281 C279 1.400 . S
C281 C280 1.387 . S
N282 Co273 2.022 1_556 S
N282 C279 1.351 . S
N282 N283 1.365 . S
N283 C280 1.341 . S
N283 N282 1.365 . S
N283 H303 0.862 . S
C284 C279 1.501 . S
C284 H285 0.961 . S
C284 H286 0.961 . S
C284 H287 0.960 . S
H285 C284 0.961 . S
H286 C284 0.961 . S
H287 C284 0.960 . S
C288 N289 1.342 . S
C288 C292 1.401 . S
C288 C293 1.499 . S
N289 Co272 1.989 . S
N289 C288 1.342 . S
N289 N290 1.388 . S
N290 Co273 1.993 . S
N290 N289 1.388 . S
N290 C291 1.346 1_554 S
C291 N290 1.346 1_556 S
C291 C292 1.396 1_556 S
C291 C301 1.510 . S
C292 C288 1.401 . S
C292 C291 1.396 1_554 S
C293 C288 1.499 . S
C293 H294 0.959 . S
C293 H295 0.960 . S
C293 H296 0.961 . S
H294 C293 0.959 . S
H295 C293 0.960 . S
H296 C293 0.961 . S
O297 Co272 1.967 . S
O297 C305 1.258 . S
O298 Co273 1.941 . S
O298 C305 1.266 . S
H299 C301 0.959 . S
H300 C301 0.961 . S
C301 C291 1.510 . S
C301 H299 0.959 . S
C301 H300 0.961 . S
C301 H302 0.960 . S
H302 C301 0.960 . S
H303 N283 0.862 . S
O304 Co272 1.920 . S
O304 C277 1.289 . S
C305 O297 1.258 . S
C305 O298 1.266 . S
Co306 O309 1.970 . S
Co306 N323 1.989 . S
Co306 O331 1.967 . S
Co306 O338 1.920 . S
Co307 O310 1.966 . S
Co307 N316 2.022 . S
Co307 N324 1.993 . S
Co307 O332 1.941 . S
C308 O309 1.258 . S
C308 O310 1.263 . S
O309 Co306 1.970 . S
O309 C308 1.258 . S
O310 Co307 1.966 . S
O310 C308 1.263 . S
C311 O312 1.235 . S
C311 O338 1.289 . S
O312 C311 1.235 . S
C313 C315 1.400 1_554 S
C313 N316 1.351 . S
C313 C318 1.501 . S
C314 C315 1.387 . S
C314 N317 1.341 1_556 S
C315 C313 1.400 1_556 S
C315 C314 1.387 . S
N316 Co307 2.022 . S
N316 C313 1.351 . S
N316 N317 1.365 . S
N317 C314 1.341 1_554 S
N317 N316 1.365 . S
N317 H337 0.862 . S
C318 C313 1.501 . S
C318 H319 0.961 . S
C318 H320 0.961 . S
C318 H321 0.960 . S
H319 C318 0.961 . S
H320 C318 0.961 . S
H321 C318 0.960 . S
C322 N323 1.342 . S
C322 C326 1.401 . S
C322 C327 1.499 . S
N323 Co306 1.989 . S
N323 C322 1.342 . S
N323 N324 1.388 . S
N324 Co307 1.993 . S
N324 N323 1.388 . S
N324 C325 1.346 . S
C325 N324 1.346 . S
C325 C326 1.396 . S
C325 C335 1.510 . S
C326 C322 1.401 . S
C326 C325 1.396 . S
C327 C322 1.499 . S
C327 H328 0.959 . S
C327 H329 0.960 . S
C327 H330 0.961 . S
H328 C327 0.959 . S
H329 C327 0.960 . S
H330 C327 0.961 . S
O331 Co306 1.967 . S
O331 C339 1.258 . S
O332 Co307 1.941 . S
O332 C339 1.266 . S
H333 C335 0.959 . S
H334 C335 0.961 . S
C335 C325 1.510 . S
C335 H333 0.959 . S
C335 H334 0.961 . S
C335 H336 0.960 . S
H336 C335 0.960 . S
H337 N317 0.862 . S
O338 Co306 1.920 . S
O338 C311 1.289 . S
C339 O331 1.258 . S
C339 O332 1.266 . S
Co340 O343 1.970 . S
Co340 N357 1.989 . S
Co340 O365 1.967 . S
Co340 O372 1.920 . S
Co341 O344 1.966 . S
Co341 N350 2.022 . S
Co341 N358 1.993 . S
Co341 O366 1.941 . S
C342 O343 1.258 . S
C342 O344 1.263 . S
O343 Co340 1.970 . S
O343 C342 1.258 . S
O344 Co341 1.966 . S
O344 C342 1.263 . S
C345 O346 1.235 . S
C345 O372 1.289 . S
O346 C345 1.235 . S
C347 C349 1.400 . S
C347 N350 1.351 . S
C347 C352 1.501 . S
C348 C349 1.387 . S
C348 N351 1.341 . S
C349 C347 1.400 . S
C349 C348 1.387 . S
N350 Co341 2.022 . S
N350 C347 1.351 . S
N350 N351 1.365 . S
N351 C348 1.341 . S
N351 N350 1.365 . S
N351 H371 0.862 . S
C352 C347 1.501 . S
C352 H353 0.961 . S
C352 H354 0.961 . S
C352 H355 0.960 . S
H353 C352 0.961 . S
H354 C352 0.961 . S
H355 C352 0.960 . S
C356 N357 1.342 . S
C356 C360 1.401 . S
C356 C361 1.499 . S
N357 Co340 1.989 . S
N357 C356 1.342 . S
N357 N358 1.388 . S
N358 Co341 1.993 . S
N358 N357 1.388 . S
N358 C359 1.346 . S
C359 N358 1.346 . S
C359 C360 1.396 . S
C359 C369 1.510 . S
C360 C356 1.401 . S
C360 C359 1.396 . S
C361 C356 1.499 . S
C361 H362 0.959 . S
C361 H363 0.960 . S
C361 H364 0.961 . S
H362 C361 0.959 . S
H363 C361 0.960 . S
H364 C361 0.961 . S
O365 Co340 1.967 . S
O365 C373 1.258 . S
O366 Co341 1.941 . S
O366 C373 1.266 . S
H367 C369 0.959 . S
H368 C369 0.961 . S
C369 C359 1.510 . S
C369 H367 0.959 . S
C369 H368 0.961 . S
C369 H370 0.960 . S
H370 C369 0.960 . S
H371 N351 0.862 . S
O372 Co340 1.920 . S
O372 C345 1.289 . S
C373 O365 1.258 . S
C373 O366 1.266 . S
Co374 O377 1.970 . S
Co374 N391 1.989 . S
Co374 O399 1.967 . S
Co374 O406 1.920 . S
Co375 O378 1.966 . S
Co375 N384 2.022 . S
Co375 N392 1.993 . S
Co375 O400 1.941 . S
C376 O377 1.258 . S
C376 O378 1.263 . S
O377 Co374 1.970 . S
O377 C376 1.258 . S
O378 Co375 1.966 . S
O378 C376 1.263 . S
C379 O380 1.235 . S
C379 O406 1.289 . S
O380 C379 1.235 . S
C381 C383 1.400 . S
C381 N384 1.351 . S
C381 C386 1.501 . S
C382 C383 1.387 . S
C382 N385 1.341 . S
C383 C381 1.400 . S
C383 C382 1.387 . S
N384 Co375 2.022 . S
N384 C381 1.351 . S
N384 N385 1.365 . S
N385 C382 1.341 . S
N385 N384 1.365 . S
N385 H405 0.862 . S
C386 C381 1.501 . S
C386 H387 0.961 . S
C386 H388 0.961 . S
C386 H389 0.960 . S
H387 C386 0.961 . S
H388 C386 0.961 . S
H389 C386 0.960 . S
C390 N391 1.342 . S
C390 C394 1.401 . S
C390 C395 1.499 . S
N391 Co374 1.989 . S
N391 C390 1.342 . S
N391 N392 1.388 . S
N392 Co375 1.993 . S
N392 N391 1.388 . S
N392 C393 1.346 . S
C393 N392 1.346 . S
C393 C394 1.396 . S
C393 C403 1.510 . S
C394 C390 1.401 . S
C394 C393 1.396 . S
C395 C390 1.499 . S
C395 H396 0.959 . S
C395 H397 0.960 . S
C395 H398 0.961 . S
H396 C395 0.959 . S
H397 C395 0.960 . S
H398 C395 0.961 . S
O399 Co374 1.967 . S
O399 C407 1.258 . S
O400 Co375 1.941 . S
O400 C407 1.266 . S
H401 C403 0.959 . S
H402 C403 0.961 . S
C403 C393 1.510 . S
C403 H401 0.959 . S
C403 H402 0.961 . S
C403 H404 0.960 . S
H404 C403 0.960 . S
H405 N385 0.862 . S
O406 Co374 1.920 . S
O406 C379 1.289 . S
C407 O399 1.258 . S
C407 O400 1.266 . S
C408 C409 1.391 . S
C408 C410 1.394 . S
C408 H424 0.931 . S
C409 C408 1.391 . S
C409 C413 1.376 . S
C410 C408 1.394 . S
C410 C411 1.369 . S
C410 C414 1.531 . S
C411 C410 1.369 . S
C411 C412 1.410 . S
C411 C419 1.503 . S
C412 C411 1.410 . S
C412 C413 1.392 . S
C412 C415 1.511 . S
C413 C409 1.376 . S
C413 C412 1.392 . S
C413 H425 0.929 . S
C414 C410 1.531 . S
C414 H426 0.960 . S
C414 H427 0.962 . S
C414 H428 0.960 . S
C415 C412 1.511 . S
C415 H429 0.961 . S
C415 H430 0.961 . S
C415 H431 0.961 . S
C416 C417 1.370 . S
C416 C418 1.363 . S
C416 H432 0.931 1_554 S
C417 C416 1.370 . S
C417 C421 1.408 . S
C418 C416 1.363 . S
C418 C419 1.370 . S
C418 C422 1.524 1_554 S
C419 C411 1.503 . S
C419 C418 1.370 . S
C419 C420 1.403 . S
C420 C419 1.403 . S
C420 C421 1.404 . S
C420 C423 1.539 . S
C421 C417 1.408 . S
C421 C420 1.404 . S
C421 H433 0.930 . S
C422 C418 1.524 1_556 S
C422 H434 0.956 . S
C422 H435 0.961 . S
C422 H436 0.961 . S
C423 C420 1.539 . S
C423 H437 0.958 . S
C423 H438 0.961 . S
C423 H439 0.960 . S
H424 C408 0.931 . S
H425 C413 0.929 . S
H426 C414 0.960 . S
H427 C414 0.962 . S
H428 C414 0.960 . S
H429 C415 0.961 . S
H430 C415 0.961 . S
H431 C415 0.961 . S
H432 C416 0.931 1_556 S
H433 C421 0.930 . S
H434 C422 0.956 . S
H435 C422 0.961 . S
H436 C422 0.961 . S
H437 C423 0.958 . S
H438 C423 0.961 . S
H439 C423 0.960 . S
C440 C441 1.391 . S
C440 C442 1.394 . S
C440 H456 0.931 . S
C441 C440 1.391 . S
C441 C445 1.376 . S
C442 C440 1.394 . S
C442 C443 1.369 . S
C442 C446 1.531 . S
C443 C442 1.369 . S
C443 C444 1.410 . S
C443 C451 1.503 . S
C444 C443 1.410 . S
C444 C445 1.392 . S
C444 C447 1.511 . S
C445 C441 1.376 . S
C445 C444 1.392 . S
C445 H457 0.929 . S
C446 C442 1.531 . S
C446 H458 0.960 . S
C446 H459 0.962 . S
C446 H460 0.960 . S
C447 C444 1.511 . S
C447 H461 0.961 . S
C447 H462 0.961 . S
C447 H463 0.961 . S
C448 C449 1.370 . S
C448 C450 1.363 . S
C448 H464 0.931 . S
C449 C448 1.370 . S
C449 C453 1.408 . S
C450 C448 1.363 . S
C450 C451 1.370 . S
C450 C454 1.524 . S
C451 C443 1.503 . S
C451 C450 1.370 . S
C451 C452 1.403 . S
C452 C451 1.403 . S
C452 C453 1.404 . S
C452 C455 1.539 . S
C453 C449 1.408 . S
C453 C452 1.404 . S
C453 H465 0.930 . S
C454 C450 1.524 . S
C454 H466 0.956 . S
C454 H467 0.961 . S
C454 H468 0.961 . S
C455 C452 1.539 . S
C455 H469 0.958 . S
C455 H470 0.961 . S
C455 H471 0.960 . S
H456 C440 0.931 . S
H457 C445 0.929 . S
H458 C446 0.960 . S
H459 C446 0.962 . S
H460 C446 0.960 . S
H461 C447 0.961 . S
H462 C447 0.961 . S
H463 C447 0.961 . S
H464 C448 0.931 . S
H465 C453 0.930 . S
H466 C454 0.956 . S
H467 C454 0.961 . S
H468 C454 0.961 . S
H469 C455 0.958 . S
H470 C455 0.961 . S
H471 C455 0.960 . S
C472 C473 1.391 . S
C472 C474 1.394 . S
C472 H488 0.931 . S
C473 C472 1.391 . S
C473 C477 1.376 . S
C474 C472 1.394 . S
C474 C475 1.369 . S
C474 C478 1.531 . S
C475 C474 1.369 . S
C475 C476 1.410 . S
C475 C483 1.503 . S
C476 C475 1.410 . S
C476 C477 1.392 . S
C476 C479 1.511 . S
C477 C473 1.376 . S
C477 C476 1.392 . S
C477 H489 0.929 . S
C478 C474 1.531 . S
C478 H490 0.960 . S
C478 H491 0.962 . S
C478 H492 0.960 . S
C479 C476 1.511 . S
C479 H493 0.961 . S
C479 H494 0.961 . S
C479 H495 0.961 . S
C480 C481 1.370 . S
C480 C482 1.363 . S
C480 H496 0.931 . S
C481 C480 1.370 . S
C481 C485 1.408 . S
C482 C480 1.363 . S
C482 C483 1.370 . S
C482 C486 1.524 . S
C483 C475 1.503 . S
C483 C482 1.370 . S
C483 C484 1.403 . S
C484 C483 1.403 . S
C484 C485 1.404 . S
C484 C487 1.539 . S
C485 C481 1.408 . S
C485 C484 1.404 . S
C485 H497 0.930 . S
C486 C482 1.524 . S
C486 H498 0.956 . S
C486 H499 0.961 . S
C486 H500 0.961 . S
C487 C484 1.539 . S
C487 H501 0.958 . S
C487 H502 0.961 . S
C487 H503 0.960 . S
H488 C472 0.931 . S
H489 C477 0.929 . S
H490 C478 0.960 . S
H491 C478 0.962 . S
H492 C478 0.960 . S
H493 C479 0.961 . S
H494 C479 0.961 . S
H495 C479 0.961 . S
H496 C480 0.931 . S
H497 C485 0.930 . S
H498 C486 0.956 . S
H499 C486 0.961 . S
H500 C486 0.961 . S
H501 C487 0.958 . S
H502 C487 0.961 . S
H503 C487 0.960 . S
C504 C505 1.391 . S
C504 C506 1.394 . S
C504 H520 0.931 . S
C505 C504 1.391 . S
C505 C509 1.376 . S
C506 C504 1.394 . S
C506 C507 1.369 . S
C506 C510 1.531 . S
C507 C506 1.369 . S
C507 C508 1.410 . S
C507 C515 1.503 . S
C508 C507 1.410 . S
C508 C509 1.392 . S
C508 C511 1.511 . S
C509 C505 1.376 . S
C509 C508 1.392 . S
C509 H521 0.929 . S
C510 C506 1.531 . S
C510 H522 0.960 . S
C510 H523 0.962 . S
C510 H524 0.960 . S
C511 C508 1.511 . S
C511 H525 0.961 . S
C511 H526 0.961 . S
C511 H527 0.961 . S
C512 C513 1.370 . S
C512 C514 1.363 . S
C512 H528 0.931 . S
C513 C512 1.370 . S
C513 C517 1.408 . S
C514 C512 1.363 . S
C514 C515 1.370 . S
C514 C518 1.524 . S
C515 C507 1.503 . S
C515 C514 1.370 . S
C515 C516 1.403 . S
C516 C515 1.403 . S
C516 C517 1.404 . S
C516 C519 1.539 . S
C517 C513 1.408 . S
C517 C516 1.404 . S
C517 H529 0.930 . S
C518 C514 1.524 . S
C518 H530 0.956 . S
C518 H531 0.961 . S
C518 H532 0.961 . S
C519 C516 1.539 . S
C519 H533 0.958 . S
C519 H534 0.961 . S
C519 H535 0.960 . S
H520 C504 0.931 . S
H521 C509 0.929 . S
H522 C510 0.960 . S
H523 C510 0.962 . S
H524 C510 0.960 . S
H525 C511 0.961 . S
H526 C511 0.961 . S
H527 C511 0.961 . S
H528 C512 0.931 . S
H529 C517 0.930 . S
H530 C518 0.956 . S
H531 C518 0.961 . S
H532 C518 0.961 . S
H533 C519 0.958 . S
H534 C519 0.961 . S
H535 C519 0.960 . S
C536 C537 1.391 . S
C536 C538 1.394 . S
C536 H552 0.931 . S
C537 C536 1.391 . S
C537 C541 1.376 . S
C538 C536 1.394 . S
C538 C539 1.369 . S
C538 C542 1.531 . S
C539 C538 1.369 . S
C539 C540 1.410 . S
C539 C547 1.503 . S
C540 C539 1.410 . S
C540 C541 1.392 . S
C540 C543 1.511 . S
C541 C537 1.376 . S
C541 C540 1.392 . S
C541 H553 0.929 . S
C542 C538 1.531 . S
C542 H554 0.960 . S
C542 H555 0.962 . S
C542 H556 0.960 . S
C543 C540 1.511 . S
C543 H557 0.961 . S
C543 H558 0.961 . S
C543 H559 0.961 . S
C544 C545 1.370 . S
C544 C546 1.363 . S
C544 H560 0.931 . S
C545 C544 1.370 . S
C545 C549 1.408 . S
C546 C544 1.363 . S
C546 C547 1.370 . S
C546 C550 1.524 . S
C547 C539 1.503 . S
C547 C546 1.370 . S
C547 C548 1.403 . S
C548 C547 1.403 . S
C548 C549 1.404 . S
C548 C551 1.539 . S
C549 C545 1.408 . S
C549 C548 1.404 . S
C549 H561 0.930 . S
C550 C546 1.524 . S
C550 H562 0.956 . S
C550 H563 0.961 . S
C550 H564 0.961 . S
C551 C548 1.539 . S
C551 H565 0.958 . S
C551 H566 0.961 . S
C551 H567 0.960 . S
H552 C536 0.931 . S
H553 C541 0.929 . S
H554 C542 0.960 . S
H555 C542 0.962 . S
H556 C542 0.960 . S
H557 C543 0.961 . S
H558 C543 0.961 . S
H559 C543 0.961 . S
H560 C544 0.931 . S
H561 C549 0.930 . S
H562 C550 0.956 . S
H563 C550 0.961 . S
H564 C550 0.961 . S
H565 C551 0.958 . S
H566 C551 0.961 . S
H567 C551 0.960 . S
C568 C569 1.391 . S
C568 C570 1.394 . S
C568 H584 0.931 . S
C569 C568 1.391 . S
C569 C573 1.376 . S
C570 C568 1.394 . S
C570 C571 1.369 . S
C570 C574 1.531 . S
C571 C570 1.369 . S
C571 C572 1.410 . S
C571 C579 1.503 . S
C572 C571 1.410 . S
C572 C573 1.392 . S
C572 C575 1.511 . S
C573 C569 1.376 . S
C573 C572 1.392 . S
C573 H585 0.929 . S
C574 C570 1.531 . S
C574 H586 0.960 1_556 S
C574 H587 0.962 . S
C574 H588 0.960 1_556 S
C575 C572 1.511 . S
C575 H589 0.961 . S
C575 H590 0.961 . S
C575 H591 0.961 . S
C576 C577 1.370 . S
C576 C578 1.363 . S
C576 H592 0.931 . S
C577 C576 1.370 . S
C577 C581 1.408 . S
C578 C576 1.363 . S
C578 C579 1.370 . S
C578 C582 1.524 . S
C579 C571 1.503 . S
C579 C578 1.370 . S
C579 C580 1.403 . S
C580 C579 1.403 . S
C580 C581 1.404 . S
C580 C583 1.539 1_556 S
C581 C577 1.408 . S
C581 C580 1.404 . S
C581 H593 0.930 1_556 S
C582 C578 1.524 . S
C582 H594 0.956 . S
C582 H595 0.961 . S
C582 H596 0.961 . S
C583 C580 1.539 1_554 S
C583 H597 0.958 . S
C583 H598 0.961 . S
C583 H599 0.960 . S
H584 C568 0.931 . S
H585 C573 0.929 . S
H586 C574 0.960 1_554 S
H587 C574 0.962 . S
H588 C574 0.960 1_554 S
H589 C575 0.961 . S
H590 C575 0.961 . S
H591 C575 0.961 . S
H592 C576 0.931 . S
H593 C581 0.930 1_554 S
H594 C582 0.956 . S
H595 C582 0.961 . S
H596 C582 0.961 . S
H597 C583 0.958 . S
H598 C583 0.961 . S
H599 C583 0.960 . S
C600 C601 1.391 . S
C600 C602 1.394 . S
C600 H616 0.931 . S
C601 C600 1.391 . S
C601 C605 1.376 . S
C602 C600 1.394 . S
C602 C603 1.369 . S
C602 C606 1.531 . S
C603 C602 1.369 . S
C603 C604 1.410 . S
C603 C611 1.503 1_455 S
C604 C603 1.410 . S
C604 C605 1.392 . S
C604 C607 1.511 . S
C605 C601 1.376 . S
C605 C604 1.392 . S
C605 H617 0.929 . S
C606 C602 1.531 . S
C606 H618 0.960 . S
C606 H619 0.962 1_455 S
C606 H620 0.960 . S
C607 C604 1.511 . S
C607 H621 0.961 . S
C607 H622 0.961 . S
C607 H623 0.961 . S
C608 C609 1.370 . S
C608 C610 1.363 . S
C608 H624 0.931 . S
C609 C608 1.370 . S
C609 C613 1.408 . S
C610 C608 1.363 . S
C610 C611 1.370 . S
C610 C614 1.524 . S
C611 C603 1.503 1_655 S
C611 C610 1.370 . S
C611 C612 1.403 1_655 S
C612 C611 1.403 1_455 S
C612 C613 1.404 1_455 S
C612 C615 1.539 . S
C613 C609 1.408 . S
C613 C612 1.404 1_655 S
C613 H625 0.930 . S
C614 C610 1.524 . S
C614 H626 0.956 . S
C614 H627 0.961 . S
C614 H628 0.961 . S
C615 C612 1.539 . S
C615 H629 0.958 . S
C615 H630 0.961 . S
C615 H631 0.960 . S
H616 C600 0.931 . S
H617 C605 0.929 . S
H618 C606 0.960 . S
H619 C606 0.962 1_655 S
H620 C606 0.960 . S
H621 C607 0.961 . S
H622 C607 0.961 . S
H623 C607 0.961 . S
H624 C608 0.931 . S
H625 C613 0.930 . S
H626 C614 0.956 . S
H627 C614 0.961 . S
H628 C614 0.961 . S
H629 C615 0.958 . S
H630 C615 0.961 . S
H631 C615 0.960 . S
C632 C633 1.391 . S
C632 C634 1.394 . S
C632 H648 0.931 . S
C633 C632 1.391 . S
C633 C637 1.376 . S
C634 C632 1.394 . S
C634 C635 1.369 . S
C634 C638 1.531 1_556 S
C635 C634 1.369 . S
C635 C636 1.410 . S
C635 C643 1.503 1_566 S
C636 C635 1.410 . S
C636 C637 1.392 . S
C636 C639 1.511 1_565 S
C637 C633 1.376 . S
C637 C636 1.392 . S
C637 H649 0.929 . S
C638 C634 1.531 1_554 S
C638 H650 0.960 . S
C638 H651 0.962 . S
C638 H652 0.960 . S
C639 C636 1.511 1_545 S
C639 H653 0.961 . S
C639 H654 0.961 . S
C639 H655 0.961 . S
C640 C641 1.370 . S
C640 C642 1.363 . S
C640 H656 0.931 . S
C641 C640 1.370 . S
C641 C645 1.408 . S
C642 C640 1.363 . S
C642 C643 1.370 . S
C642 C646 1.524 1_554 S
C643 C635 1.503 1_544 S
C643 C642 1.370 . S
C643 C644 1.403 . S
C644 C643 1.403 . S
C644 C645 1.404 . S
C644 C647 1.539 1_545 S
C645 C641 1.408 . S
C645 C644 1.404 . S
C645 H657 0.930 . S
C646 C642 1.524 1_556 S
C646 H658 0.956 . S
C646 H659 0.961 . S
C646 H660 0.961 . S
C647 C644 1.539 1_565 S
C647 H661 0.958 . S
C647 H662 0.961 . S
C647 H663 0.960 . S
H648 C632 0.931 . S
H649 C637 0.929 . S
H650 C638 0.960 . S
H651 C638 0.962 . S
H652 C638 0.960 . S
H653 C639 0.961 . S
H654 C639 0.961 . S
H655 C639 0.961 . S
H656 C640 0.931 . S
H657 C645 0.930 . S
H658 C646 0.956 . S
H659 C646 0.961 . S
H660 C646 0.961 . S
H661 C647 0.958 . S
H662 C647 0.961 . S
H663 C647 0.960 . S
C664 C665 1.391 . S
C664 C666 1.394 . S
C664 H680 0.931 . S
C665 C664 1.391 . S
C665 C669 1.376 . S
C666 C664 1.394 . S
C666 C667 1.369 . S
C666 C670 1.531 . S
C667 C666 1.369 . S
C667 C668 1.410 . S
C667 C675 1.503 . S
C668 C667 1.410 . S
C668 C669 1.392 . S
C668 C671 1.511 . S
C669 C665 1.376 . S
C669 C668 1.392 . S
C669 H681 0.929 . S
C670 C666 1.531 . S
C670 H682 0.960 . S
C670 H683 0.962 . S
C670 H684 0.960 . S
C671 C668 1.511 . S
C671 H685 0.961 . S
C671 H686 0.961 . S
C671 H687 0.961 . S
C672 C673 1.370 . S
C672 C674 1.363 . S
C672 H688 0.931 . S
C673 C672 1.370 . S
C673 C677 1.408 . S
C674 C672 1.363 . S
C674 C675 1.370 . S
C674 C678 1.524 . S
C675 C667 1.503 . S
C675 C674 1.370 . S
C675 C676 1.403 . S
C676 C675 1.403 . S
C676 C677 1.404 . S
C676 C679 1.539 . S
C677 C673 1.408 . S
C677 C676 1.404 . S
C677 H689 0.930 1_554 S
C678 C674 1.524 . S
C678 H690 0.956 . S
C678 H691 0.961 . S
C678 H692 0.961 . S
C679 C676 1.539 . S
C679 H693 0.958 . S
C679 H694 0.961 . S
C679 H695 0.960 . S
H680 C664 0.931 . S
H681 C669 0.929 . S
H682 C670 0.960 . S
H683 C670 0.962 . S
H684 C670 0.960 . S
H685 C671 0.961 . S
H686 C671 0.961 . S
H687 C671 0.961 . S
H688 C672 0.931 . S
H689 C677 0.930 1_556 S
H690 C678 0.956 . S
H691 C678 0.961 . S
H692 C678 0.961 . S
H693 C679 0.958 . S
H694 C679 0.961 . S
H695 C679 0.960 . S
C696 C697 1.391 . S
C696 C698 1.394 . S
C696 H712 0.931 . S
C697 C696 1.391 . S
C697 C701 1.376 . S
C698 C696 1.394 . S
C698 C699 1.369 . S
C698 C702 1.531 . S
C699 C698 1.369 . S
C699 C700 1.410 1_655 S
C699 C707 1.503 1_655 S
C700 C699 1.410 1_455 S
C700 C701 1.393 1_455 S
C700 C703 1.510 . S
C701 C697 1.376 . S
C701 C700 1.393 1_655 S
C701 H713 0.929 . S
C702 C698 1.531 . S
C702 H714 0.960 . S
C702 H715 0.962 . S
C702 H716 0.960 . S
C703 C700 1.510 . S
C703 H717 0.961 . S
C703 H718 0.961 . S
C703 H719 0.961 . S
C704 C705 1.370 . S
C704 C706 1.363 . S
C704 H720 0.931 . S
C705 C704 1.370 . S
C705 C709 1.408 . S
C706 C704 1.363 . S
C706 C707 1.370 . S
C706 C710 1.524 1_455 S
C707 C699 1.503 1_455 S
C707 C706 1.370 . S
C707 C708 1.403 . S
C708 C707 1.403 . S
C708 C709 1.404 . S
C708 C711 1.539 . S
C709 C705 1.408 . S
C709 C708 1.404 . S
C709 H721 0.930 . S
C710 C706 1.524 1_655 S
C710 H722 0.956 . S
C710 H723 0.961 . S
C710 H724 0.961 . S
C711 C708 1.539 . S
C711 H725 0.958 . S
C711 H726 0.961 . S
C711 H727 0.960 . S
H712 C696 0.931 . S
H713 C701 0.929 . S
H714 C702 0.960 . S
H715 C702 0.962 . S
H716 C702 0.960 . S
H717 C703 0.961 . S
H718 C703 0.961 . S
H719 C703 0.961 . S
H720 C704 0.931 . S
H721 C709 0.930 . S
H722 C710 0.956 . S
H723 C710 0.961 . S
H724 C710 0.961 . S
H725 C711 0.958 . S
H726 C711 0.961 . S
H727 C711 0.960 . S
C728 C729 1.391 . S
C728 C730 1.394 . S
C728 H744 0.931 . S
C729 C728 1.391 . S
C729 C733 1.376 . S
C730 C728 1.394 . S
C730 C731 1.369 . S
C730 C734 1.531 1_545 S
C731 C730 1.369 . S
C731 C732 1.410 . S
C731 C739 1.503 1_545 S
C732 C731 1.410 . S
C732 C733 1.392 . S
C732 C735 1.511 . S
C733 C729 1.376 . S
C733 C732 1.392 . S
C733 H745 0.929 . S
C734 C730 1.531 1_565 S
C734 H746 0.960 . S
C734 H747 0.962 . S
C734 H748 0.960 . S
C735 C732 1.511 . S
C735 H749 0.961 . S
C735 H750 0.961 . S
C735 H751 0.961 . S
C736 C737 1.370 . S
C736 C738 1.363 . S
C736 H752 0.931 . S
C737 C736 1.370 . S
C737 C741 1.408 . S
C738 C736 1.363 . S
C738 C739 1.370 . S
C738 C742 1.524 1_565 S
C739 C731 1.503 1_565 S
C739 C738 1.370 . S
C739 C740 1.403 . S
C740 C739 1.403 . S
C740 C741 1.404 . S
C740 C743 1.539 . S
C741 C737 1.408 . S
C741 C740 1.404 . S
C741 H753 0.930 . S
C742 C738 1.524 1_545 S
C742 H754 0.956 . S
C742 H755 0.961 . S
C742 H756 0.961 . S
C743 C740 1.539 . S
C743 H757 0.958 . S
C743 H758 0.961 . S
C743 H759 0.960 . S
H744 C728 0.931 . S
H745 C733 0.929 . S
H746 C734 0.960 . S
H747 C734 0.962 . S
H748 C734 0.960 . S
H749 C735 0.961 . S
H750 C735 0.961 . S
H751 C735 0.961 . S
H752 C736 0.931 . S
H753 C741 0.930 . S
H754 C742 0.956 . S
H755 C742 0.961 . S
H756 C742 0.961 . S
H757 C743 0.958 . S
H758 C743 0.961 . S
H759 C743 0.960 . S
C760 C761 1.391 . S
C760 C762 1.394 . S
C760 H776 0.931 . S
C761 C760 1.391 . S
C761 C765 1.376 . S
C762 C760 1.394 . S
C762 C763 1.369 . S
C762 C766 1.531 . S
C763 C762 1.369 . S
C763 C764 1.410 . S
C763 C771 1.503 . S
C764 C763 1.410 . S
C764 C765 1.392 . S
C764 C767 1.511 . S
C765 C761 1.376 . S
C765 C764 1.392 . S
C765 H777 0.929 . S
C766 C762 1.531 . S
C766 H778 0.960 . S
C766 H779 0.962 . S
C766 H780 0.960 . S
C767 C764 1.511 . S
C767 H781 0.961 . S
C767 H782 0.961 . S
C767 H783 0.961 . S
C768 C769 1.370 . S
C768 C770 1.363 . S
C768 H784 0.931 . S
C769 C768 1.370 . S
C769 C773 1.408 . S
C770 C768 1.363 . S
C770 C771 1.370 . S
C770 C774 1.524 . S
C771 C763 1.503 . S
C771 C770 1.370 . S
C771 C772 1.403 . S
C772 C771 1.403 . S
C772 C773 1.404 . S
C772 C775 1.539 . S
C773 C769 1.408 . S
C773 C772 1.404 . S
C773 H785 0.930 . S
C774 C770 1.524 . S
C774 H786 0.956 . S
C774 H787 0.961 . S
C774 H788 0.961 . S
C775 C772 1.539 . S
C775 H789 0.958 . S
C775 H790 0.961 . S
C775 H791 0.960 . S
H776 C760 0.931 . S
H777 C765 0.929 . S
H778 C766 0.960 . S
H779 C766 0.962 . S
H780 C766 0.960 . S
H781 C767 0.961 . S
H782 C767 0.961 . S
H783 C767 0.961 . S
H784 C768 0.931 . S
H785 C773 0.930 . S
H786 C774 0.956 . S
H787 C774 0.961 . S
H788 C774 0.961 . S
H789 C775 0.958 . S
H790 C775 0.961 . S
H791 C775 0.960 . S
C792 C793 1.391 . S
C792 C794 1.394 . S
C792 H808 0.931 . S
C793 C792 1.391 . S
C793 C797 1.376 . S
C794 C792 1.394 . S
C794 C795 1.369 . S
C794 C798 1.531 . S
C795 C794 1.369 . S
C795 C796 1.410 . S
C795 C803 1.503 . S
C796 C795 1.410 . S
C796 C797 1.392 . S
C796 C799 1.511 . S
C797 C793 1.376 . S
C797 C796 1.392 . S
C797 H809 0.929 . S
C798 C794 1.531 . S
C798 H810 0.960 . S
C798 H811 0.962 . S
C798 H812 0.960 . S
C799 C796 1.511 . S
C799 H813 0.961 . S
C799 H814 0.961 . S
C799 H815 0.961 . S
C800 C801 1.370 . S
C800 C802 1.363 . S
C800 H816 0.931 . S
C801 C800 1.370 . S
C801 C805 1.408 . S
C802 C800 1.363 . S
C802 C803 1.370 . S
C802 C806 1.524 . S
C803 C795 1.503 . S
C803 C802 1.370 . S
C803 C804 1.403 . S
C804 C803 1.403 . S
C804 C805 1.404 . S
C804 C807 1.539 . S
C805 C801 1.408 . S
C805 C804 1.404 . S
C805 H817 0.930 . S
C806 C802 1.524 . S
C806 H818 0.956 . S
C806 H819 0.961 . S
C806 H820 0.961 . S
C807 C804 1.539 . S
C807 H821 0.958 . S
C807 H822 0.961 . S
C807 H823 0.960 . S
H808 C792 0.931 . S
H809 C797 0.929 . S
H810 C798 0.960 . S
H811 C798 0.962 . S
H812 C798 0.960 . S
H813 C799 0.961 . S
H814 C799 0.961 . S
H815 C799 0.961 . S
H816 C800 0.931 . S
H817 C805 0.930 . S
H818 C806 0.956 . S
H819 C806 0.961 . S
H820 C806 0.961 . S
H821 C807 0.958 . S
H822 C807 0.961 . S
H823 C807 0.960 . S
C824 C825 1.391 . S
C824 C826 1.394 . S
C824 H840 0.931 . S
C825 C824 1.391 . S
C825 C829 1.376 . S
C826 C824 1.394 . S
C826 C827 1.369 . S
C826 C830 1.531 . S
C827 C826 1.369 . S
C827 C828 1.410 . S
C827 C835 1.503 . S
C828 C827 1.410 . S
C828 C829 1.392 . S
C828 C831 1.511 . S
C829 C825 1.376 . S
C829 C828 1.392 . S
C829 H841 0.929 . S
C830 C826 1.531 . S
C830 H842 0.960 . S
C830 H843 0.962 . S
C830 H844 0.960 . S
C831 C828 1.511 . S
C831 H845 0.961 . S
C831 H846 0.961 . S
C831 H847 0.961 . S
C832 C833 1.370 . S
C832 C834 1.363 . S
C832 H848 0.931 . S
C833 C832 1.370 . S
C833 C837 1.408 . S
C834 C832 1.363 . S
C834 C835 1.370 . S
C834 C838 1.524 . S
C835 C827 1.503 . S
C835 C834 1.370 . S
C835 C836 1.403 . S
C836 C835 1.403 . S
C836 C837 1.404 . S
C836 C839 1.539 . S
C837 C833 1.408 . S
C837 C836 1.404 . S
C837 H849 0.930 . S
C838 C834 1.524 . S
C838 H850 0.956 . S
C838 H851 0.961 . S
C838 H852 0.961 . S
C839 C836 1.539 . S
C839 H853 0.958 . S
C839 H854 0.961 . S
C839 H855 0.960 . S
H840 C824 0.931 . S
H841 C829 0.929 . S
H842 C830 0.960 . S
H843 C830 0.962 . S
H844 C830 0.960 . S
H845 C831 0.961 . S
H846 C831 0.961 . S
H847 C831 0.961 . S
H848 C832 0.931 . S
H849 C837 0.930 . S
H850 C838 0.956 . S
H851 C838 0.961 . S
H852 C838 0.961 . S
H853 C839 0.958 . S
H854 C839 0.961 . S
H855 C839 0.960 . S
C856 C857 1.391 . S
C856 C858 1.394 . S
C856 H872 0.931 . S
C857 C856 1.391 . S
C857 C861 1.376 . S
C858 C856 1.394 . S
C858 C859 1.369 . S
C858 C862 1.531 . S
C859 C858 1.369 . S
C859 C860 1.410 . S
C859 C867 1.503 . S
C860 C859 1.410 . S
C860 C861 1.392 . S
C860 C863 1.511 . S
C861 C857 1.376 . S
C861 C860 1.392 . S
C861 H873 0.929 . S
C862 C858 1.531 . S
C862 H874 0.960 . S
C862 H875 0.962 . S
C862 H876 0.960 . S
C863 C860 1.511 . S
C863 H877 0.961 . S
C863 H878 0.961 . S
C863 H879 0.961 . S
C864 C865 1.370 . S
C864 C866 1.363 . S
C864 H880 0.931 . S
C865 C864 1.370 . S
C865 C869 1.408 . S
C866 C864 1.363 . S
C866 C867 1.370 . S
C866 C870 1.524 . S
C867 C859 1.503 . S
C867 C866 1.370 . S
C867 C868 1.403 . S
C868 C867 1.403 . S
C868 C869 1.404 . S
C868 C871 1.539 . S
C869 C865 1.408 . S
C869 C868 1.404 . S
C869 H881 0.930 . S
C870 C866 1.524 . S
C870 H882 0.956 . S
C870 H883 0.961 . S
C870 H884 0.961 . S
C871 C868 1.539 . S
C871 H885 0.958 . S
C871 H886 0.961 . S
C871 H887 0.960 . S
H872 C856 0.931 . S
H873 C861 0.929 . S
H874 C862 0.960 . S
H875 C862 0.962 . S
H876 C862 0.960 . S
H877 C863 0.961 . S
H878 C863 0.961 . S
H879 C863 0.961 . S
H880 C864 0.931 . S
H881 C869 0.930 . S
H882 C870 0.956 . S
H883 C870 0.961 . S
H884 C870 0.961 . S
H885 C871 0.958 . S
H886 C871 0.961 . S
H887 C871 0.960 . S
C888 C889 1.391 . S
C888 C890 1.394 . S
C888 H904 0.931 . S
C889 C888 1.391 . S
C889 C893 1.376 . S
C890 C888 1.394 . S
C890 C891 1.369 . S
C890 C894 1.531 . S
C891 C890 1.369 . S
C891 C892 1.410 . S
C891 C899 1.503 . S
C892 C891 1.410 . S
C892 C893 1.392 . S
C892 C895 1.511 . S
C893 C889 1.376 . S
C893 C892 1.392 . S
C893 H905 0.929 . S
C894 C890 1.531 . S
C894 H906 0.960 . S
C894 H907 0.962 . S
C894 H908 0.960 . S
C895 C892 1.511 . S
C895 H909 0.961 . S
C895 H910 0.961 . S
C895 H911 0.961 . S
C896 C897 1.370 . S
C896 C898 1.363 . S
C896 H912 0.931 . S
C897 C896 1.370 . S
C897 C901 1.408 . S
C898 C896 1.363 . S
C898 C899 1.370 . S
C898 C902 1.524 . S
C899 C891 1.503 . S
C899 C898 1.370 . S
C899 C900 1.403 . S
C900 C899 1.403 . S
C900 C901 1.404 . S
C900 C903 1.539 . S
C901 C897 1.408 . S
C901 C900 1.404 . S
C901 H913 0.930 . S
C902 C898 1.524 . S
C902 H914 0.956 . S
C902 H915 0.961 . S
C902 H916 0.961 . S
C903 C900 1.539 . S
C903 H917 0.958 . S
C903 H918 0.961 . S
C903 H919 0.960 . S
H904 C888 0.931 . S
H905 C893 0.929 . S
H906 C894 0.960 . S
H907 C894 0.962 . S
H908 C894 0.960 . S
H909 C895 0.961 . S
H910 C895 0.961 . S
H911 C895 0.961 . S
H912 C896 0.931 . S
H913 C901 0.930 . S
H914 C902 0.956 . S
H915 C902 0.961 . S
H916 C902 0.961 . S
H917 C903 0.958 . S
H918 C903 0.961 . S
H919 C903 0.960 . S
C920 C921 1.391 . S
C920 C922 1.394 . S
C920 H936 0.931 . S
C921 C920 1.391 . S
C921 C925 1.376 . S
C922 C920 1.394 . S
C922 C923 1.369 . S
C922 C926 1.531 . S
C923 C922 1.369 . S
C923 C924 1.410 . S
C923 C931 1.503 . S
C924 C923 1.410 . S
C924 C925 1.392 . S
C924 C927 1.511 . S
C925 C921 1.376 . S
C925 C924 1.392 . S
C925 H937 0.929 . S
C926 C922 1.531 . S
C926 H938 0.960 . S
C926 H939 0.962 . S
C926 H940 0.960 . S
C927 C924 1.511 . S
C927 H941 0.961 . S
C927 H942 0.961 . S
C927 H943 0.961 1_556 S
C928 C929 1.370 1_556 S
C928 C930 1.363 . S
C928 H944 0.931 . S
C929 C928 1.370 1_554 S
C929 C933 1.408 . S
C930 C928 1.363 . S
C930 C931 1.370 . S
C930 C934 1.524 . S
C931 C923 1.503 . S
C931 C930 1.370 . S
C931 C932 1.403 1_556 S
C932 C931 1.403 1_554 S
C932 C933 1.404 . S
C932 C935 1.539 . S
C933 C929 1.408 . S
C933 C932 1.404 . S
C933 H945 0.930 . S
C934 C930 1.524 . S
C934 H946 0.956 . S
C934 H947 0.961 . S
C934 H948 0.961 . S
C935 C932 1.539 . S
C935 H949 0.958 . S
C935 H950 0.961 . S
C935 H951 0.960 . S
H936 C920 0.931 . S
H937 C925 0.929 . S
H938 C926 0.960 . S
H939 C926 0.962 . S
H940 C926 0.960 . S
H941 C927 0.961 . S
H942 C927 0.961 . S
H943 C927 0.961 1_554 S
H944 C928 0.931 . S
H945 C933 0.930 . S
H946 C934 0.956 . S
H947 C934 0.961 . S
H948 C934 0.961 . S
H949 C935 0.958 . S
H950 C935 0.961 . S
H951 C935 0.960 . S
C952 C953 1.391 . S
C952 C954 1.394 . S
C952 H968 0.931 . S
C953 C952 1.391 . S
C953 C957 1.376 . S
C954 C952 1.394 . S
C954 C955 1.369 . S
C954 C958 1.531 . S
C955 C954 1.369 . S
C955 C956 1.410 . S
C955 C963 1.503 . S
C956 C955 1.410 . S
C956 C957 1.392 . S
C956 C959 1.511 . S
C957 C953 1.376 . S
C957 C956 1.392 . S
C957 H969 0.929 . S
C958 C954 1.531 . S
C958 H970 0.960 1_554 S
C958 H971 0.962 . S
C958 H972 0.960 . S
C959 C956 1.511 . S
C959 H973 0.961 . S
C959 H974 0.961 . S
C959 H975 0.961 . S
C960 C961 1.370 1_554 S
C960 C962 1.363 . S
C960 H976 0.931 . S
C961 C960 1.370 1_556 S
C961 C965 1.408 . S
C962 C960 1.363 . S
C962 C963 1.370 . S
C962 C966 1.524 . S
C963 C955 1.503 . S
C963 C962 1.370 . S
C963 C964 1.403 1_554 S
C964 C963 1.403 1_556 S
C964 C965 1.404 . S
C964 C967 1.539 . S
C965 C961 1.408 . S
C965 C964 1.404 . S
C965 H977 0.930 . S
C966 C962 1.524 . S
C966 H978 0.956 . S
C966 H979 0.961 . S
C966 H980 0.961 . S
C967 C964 1.539 . S
C967 H981 0.958 . S
C967 H982 0.961 . S
C967 H983 0.960 . S
H968 C952 0.931 . S
H969 C957 0.929 . S
H970 C958 0.960 1_556 S
H971 C958 0.962 . S
H972 C958 0.960 . S
H973 C959 0.961 . S
H974 C959 0.961 . S
H975 C959 0.961 . S
H976 C960 0.931 . S
H977 C965 0.930 . S
H978 C966 0.956 . S
H979 C966 0.961 . S
H980 C966 0.961 . S
H981 C967 0.958 . S
H982 C967 0.961 . S
H983 C967 0.960 . S
C984 C985 1.391 . S
C984 C986 1.394 . S
C984 H1000 0.931 . S
C985 C984 1.391 . S
C985 C989 1.376 . S
C986 C984 1.394 . S
C986 C987 1.369 . S
C986 C990 1.531 . S
C987 C986 1.369 . S
C987 C988 1.410 . S
C987 C995 1.503 . S
C988 C987 1.410 . S
C988 C989 1.392 . S
C988 C991 1.511 . S
C989 C985 1.376 . S
C989 C988 1.392 . S
C989 H1001 0.929 . S
C990 C986 1.531 . S
C990 H1002 0.960 . S
C990 H1003 0.962 . S
C990 H1004 0.960 . S
C991 C988 1.511 . S
C991 H1005 0.961 . S
C991 H1006 0.961 . S
C991 H1007 0.961 . S
C992 C993 1.370 . S
C992 C994 1.363 . S
C992 H1008 0.931 . S
C993 C992 1.370 . S
C993 C997 1.408 . S
C994 C992 1.363 . S
C994 C995 1.370 . S
C994 C998 1.524 . S
C995 C987 1.503 . S
C995 C994 1.370 . S
C995 C996 1.403 . S
C996 C995 1.403 . S
C996 C997 1.404 . S
C996 C999 1.539 . S
C997 C993 1.408 . S
C997 C996 1.404 . S
C997 H1009 0.930 . S
C998 C994 1.524 . S
C998 H1010 0.956 . S
C998 H1011 0.961 . S
C998 H1012 0.961 . S
C999 C996 1.539 . S
C999 H1013 0.958 . S
C999 H1014 0.961 . S
C999 H1015 0.960 . S
H1000 C984 0.931 . S
H1001 C989 0.929 . S
H1002 C990 0.960 . S
H1003 C990 0.962 . S
H1004 C990 0.960 . S
H1005 C991 0.961 . S
H1006 C991 0.961 . S
H1007 C991 0.961 . S
H1008 C992 0.931 . S
H1009 C997 0.930 . S
H1010 C998 0.956 . S
H1011 C998 0.961 . S
H1012 C998 0.961 . S
H1013 C999 0.958 . S
H1014 C999 0.961 . S
H1015 C999 0.960 . S
C1016 C1017 1.391 . S
C1016 C1018 1.394 . S
C1016 H1032 0.931 . S
C1017 C1016 1.391 . S
C1017 C1021 1.376 . S
C1018 C1016 1.394 . S
C1018 C1019 1.369 . S
C1018 C1022 1.531 . S
C1019 C1018 1.369 . S
C1019 C1020 1.410 . S
C1019 C1027 1.503 . S
C1020 C1019 1.410 . S
C1020 C1021 1.392 . S
C1020 C1023 1.511 . S
C1021 C1017 1.376 . S
C1021 C1020 1.392 . S
C1021 H1033 0.929 . S
C1022 C1018 1.531 . S
C1022 H1034 0.960 . S
C1022 H1035 0.962 . S
C1022 H1036 0.960 . S
C1023 C1020 1.511 . S
C1023 H1037 0.961 . S
C1023 H1038 0.961 . S
C1023 H1039 0.961 . S
C1024 C1025 1.370 . S
C1024 C1026 1.363 . S
C1024 H1040 0.931 . S
C1025 C1024 1.370 . S
C1025 C1029 1.408 . S
C1026 C1024 1.363 . S
C1026 C1027 1.370 . S
C1026 C1030 1.524 . S
C1027 C1019 1.503 . S
C1027 C1026 1.370 . S
C1027 C1028 1.403 . S
C1028 C1027 1.403 . S
C1028 C1029 1.404 . S
C1028 C1031 1.539 . S
C1029 C1025 1.408 . S
C1029 C1028 1.404 . S
C1029 H1041 0.930 . S
C1030 C1026 1.524 . S
C1030 H1042 0.956 . S
C1030 H1043 0.961 . S
C1030 H1044 0.961 . S
C1031 C1028 1.539 . S
C1031 H1045 0.958 . S
C1031 H1046 0.961 . S
C1031 H1047 0.960 . S
H1032 C1016 0.931 . S
H1033 C1021 0.929 . S
H1034 C1022 0.960 . S
H1035 C1022 0.962 . S
H1036 C1022 0.960 . S
H1037 C1023 0.961 . S
H1038 C1023 0.961 . S
H1039 C1023 0.961 . S
H1040 C1024 0.931 . S
H1041 C1029 0.930 . S
H1042 C1030 0.956 . S
H1043 C1030 0.961 . S
H1044 C1030 0.961 . S
H1045 C1031 0.958 . S
H1046 C1031 0.961 . S
H1047 C1031 0.960 . S
C1048 C1049 1.391 . S
C1048 C1050 1.394 . S
C1048 H1064 0.931 . S
C1049 C1048 1.391 . S
C1049 C1053 1.376 . S
C1050 C1048 1.394 . S
C1050 C1051 1.369 . S
C1050 C1054 1.531 . S
C1051 C1050 1.369 . S
C1051 C1052 1.410 . S
C1051 C1059 1.503 . S
C1052 C1051 1.410 . S
C1052 C1053 1.392 . S
C1052 C1055 1.511 . S
C1053 C1049 1.376 . S
C1053 C1052 1.392 . S
C1053 H1065 0.929 . S
C1054 C1050 1.531 . S
C1054 H1066 0.960 . S
C1054 H1067 0.962 . S
C1054 H1068 0.960 . S
C1055 C1052 1.511 . S
C1055 H1069 0.961 . S
C1055 H1070 0.961 . S
C1055 H1071 0.961 . S
C1056 C1057 1.370 . S
C1056 C1058 1.363 1_554 S
C1056 H1072 0.931 . S
C1057 C1056 1.370 . S
C1057 C1061 1.408 . S
C1058 C1056 1.363 1_556 S
C1058 C1059 1.370 . S
C1058 C1062 1.524 . S
C1059 C1051 1.503 . S
C1059 C1058 1.370 . S
C1059 C1060 1.403 1_556 S
C1060 C1059 1.403 1_554 S
C1060 C1061 1.404 . S
C1060 C1063 1.539 . S
C1061 C1057 1.408 . S
C1061 C1060 1.404 . S
C1061 H1073 0.930 . S
C1062 C1058 1.524 . S
C1062 H1074 0.956 . S
C1062 H1075 0.961 . S
C1062 H1076 0.961 . S
C1063 C1060 1.539 . S
C1063 H1077 0.958 . S
C1063 H1078 0.961 . S
C1063 H1079 0.960 1_554 S
H1064 C1048 0.931 . S
H1065 C1053 0.929 . S
H1066 C1054 0.960 . S
H1067 C1054 0.962 . S
H1068 C1054 0.960 . S
H1069 C1055 0.961 . S
H1070 C1055 0.961 . S
H1071 C1055 0.961 . S
H1072 C1056 0.931 . S
H1073 C1061 0.930 . S
H1074 C1062 0.956 . S
H1075 C1062 0.961 . S
H1076 C1062 0.961 . S
H1077 C1063 0.958 . S
H1078 C1063 0.961 . S
H1079 C1063 0.960 1_556 S
C1080 C1081 1.391 . S
C1080 C1082 1.394 1_556 S
C1080 H1096 0.931 . S
C1081 C1080 1.391 . S
C1081 C1085 1.376 . S
C1082 C1080 1.394 1_554 S
C1082 C1083 1.369 . S
C1082 C1086 1.531 . S
C1083 C1082 1.369 . S
C1083 C1084 1.410 . S
C1083 C1091 1.503 . S
C1084 C1083 1.410 . S
C1084 C1085 1.392 1_554 S
C1084 C1087 1.511 . S
C1085 C1081 1.376 . S
C1085 C1084 1.392 1_556 S
C1085 H1097 0.929 . S
C1086 C1082 1.531 . S
C1086 H1098 0.960 . S
C1086 H1099 0.962 . S
C1086 H1100 0.960 . S
C1087 C1084 1.511 . S
C1087 H1101 0.961 1_554 S
C1087 H1102 0.961 . S
C1087 H1103 0.961 . S
C1088 C1089 1.370 . S
C1088 C1090 1.363 . S
C1088 H1104 0.931 . S
C1089 C1088 1.370 . S
C1089 C1093 1.408 . S
C1090 C1088 1.363 . S
C1090 C1091 1.370 . S
C1090 C1094 1.524 . S
C1091 C1083 1.503 . S
C1091 C1090 1.370 . S
C1091 C1092 1.403 . S
C1092 C1091 1.403 . S
C1092 C1093 1.404 . S
C1092 C1095 1.539 . S
C1093 C1089 1.408 . S
C1093 C1092 1.404 . S
C1093 H1105 0.930 . S
C1094 C1090 1.524 . S
C1094 H1106 0.956 . S
C1094 H1107 0.961 . S
C1094 H1108 0.961 . S
C1095 C1092 1.539 . S
C1095 H1109 0.958 . S
C1095 H1110 0.961 . S
C1095 H1111 0.960 . S
H1096 C1080 0.931 . S
H1097 C1085 0.929 . S
H1098 C1086 0.960 . S
H1099 C1086 0.962 . S
H1100 C1086 0.960 . S
H1101 C1087 0.961 1_556 S
H1102 C1087 0.961 . S
H1103 C1087 0.961 . S
H1104 C1088 0.931 . S
H1105 C1093 0.930 . S
H1106 C1094 0.956 . S
H1107 C1094 0.961 . S
H1108 C1094 0.961 . S
H1109 C1095 0.958 . S
H1110 C1095 0.961 . S
H1111 C1095 0.960 . S
C1112 C1113 1.391 . S
C1112 C1114 1.394 . S
C1112 H1128 0.931 . S
C1113 C1112 1.391 . S
C1113 C1117 1.376 . S
C1114 C1112 1.394 . S
C1114 C1115 1.369 . S
C1114 C1118 1.531 . S
C1115 C1114 1.369 . S
C1115 C1116 1.410 . S
C1115 C1123 1.503 . S
C1116 C1115 1.410 . S
C1116 C1117 1.392 . S
C1116 C1119 1.511 . S
C1117 C1113 1.376 . S
C1117 C1116 1.392 . S
C1117 H1129 0.929 . S
C1118 C1114 1.531 . S
C1118 H1130 0.960 . S
C1118 H1131 0.962 . S
C1118 H1132 0.960 . S
C1119 C1116 1.511 . S
C1119 H1133 0.961 . S
C1119 H1134 0.961 . S
C1119 H1135 0.961 . S
C1120 C1121 1.370 . S
C1120 C1122 1.363 . S
C1120 H1136 0.931 . S
C1121 C1120 1.370 . S
C1121 C1125 1.408 . S
C1122 C1120 1.363 . S
C1122 C1123 1.370 . S
C1122 C1126 1.524 . S
C1123 C1115 1.503 . S
C1123 C1122 1.370 . S
C1123 C1124 1.403 . S
C1124 C1123 1.403 . S
C1124 C1125 1.404 . S
C1124 C1127 1.539 . S
C1125 C1121 1.408 . S
C1125 C1124 1.404 . S
C1125 H1137 0.930 . S
C1126 C1122 1.524 . S
C1126 H1138 0.956 . S
C1126 H1139 0.961 . S
C1126 H1140 0.961 . S
C1127 C1124 1.539 . S
C1127 H1141 0.958 . S
C1127 H1142 0.961 . S
C1127 H1143 0.960 . S
H1128 C1112 0.931 . S
H1129 C1117 0.929 . S
H1130 C1118 0.960 . S
H1131 C1118 0.962 . S
H1132 C1118 0.960 . S
H1133 C1119 0.961 . S
H1134 C1119 0.961 . S
H1135 C1119 0.961 . S
H1136 C1120 0.931 . S
H1137 C1125 0.930 . S
H1138 C1126 0.956 . S
H1139 C1126 0.961 . S
H1140 C1126 0.961 . S
H1141 C1127 0.958 . S
H1142 C1127 0.961 . S
H1143 C1127 0.960 . S
C1144 C1145 1.391 . S
C1144 C1146 1.394 . S
C1144 H1160 0.931 . S
C1145 C1144 1.391 . S
C1145 C1149 1.376 . S
C1146 C1144 1.394 . S
C1146 C1147 1.369 . S
C1146 C1150 1.531 . S
C1147 C1146 1.369 . S
C1147 C1148 1.410 . S
C1147 C1155 1.503 . S
C1148 C1147 1.410 . S
C1148 C1149 1.392 . S
C1148 C1151 1.511 . S
C1149 C1145 1.376 . S
C1149 C1148 1.392 . S
C1149 H1161 0.929 . S
C1150 C1146 1.531 . S
C1150 H1162 0.960 . S
C1150 H1163 0.962 . S
C1150 H1164 0.960 . S
C1151 C1148 1.511 . S
C1151 H1165 0.961 . S
C1151 H1166 0.961 . S
C1151 H1167 0.961 . S
C1152 C1153 1.370 . S
C1152 C1154 1.363 . S
C1152 H1168 0.931 . S
C1153 C1152 1.370 . S
C1153 C1157 1.408 . S
C1154 C1152 1.363 . S
C1154 C1155 1.370 . S
C1154 C1158 1.524 . S
C1155 C1147 1.503 . S
C1155 C1154 1.370 . S
C1155 C1156 1.403 . S
C1156 C1155 1.403 . S
C1156 C1157 1.404 . S
C1156 C1159 1.539 . S
C1157 C1153 1.408 . S
C1157 C1156 1.404 . S
C1157 H1169 0.930 . S
C1158 C1154 1.524 . S
C1158 H1170 0.956 . S
C1158 H1171 0.961 . S
C1158 H1172 0.961 . S
C1159 C1156 1.539 . S
C1159 H1173 0.958 . S
C1159 H1174 0.961 . S
C1159 H1175 0.960 . S
H1160 C1144 0.931 . S
H1161 C1149 0.929 . S
H1162 C1150 0.960 . S
H1163 C1150 0.962 . S
H1164 C1150 0.960 . S
H1165 C1151 0.961 . S
H1166 C1151 0.961 . S
H1167 C1151 0.961 . S
H1168 C1152 0.931 . S
H1169 C1157 0.930 . S
H1170 C1158 0.956 . S
H1171 C1158 0.961 . S
H1172 C1158 0.961 . S
H1173 C1159 0.958 . S
H1174 C1159 0.961 . S
H1175 C1159 0.960 . S
C1176 C1177 1.391 . S
C1176 C1178 1.394 . S
C1176 H1192 0.931 . S
C1177 C1176 1.391 . S
C1177 C1181 1.376 . S
C1178 C1176 1.394 . S
C1178 C1179 1.369 . S
C1178 C1182 1.531 . S
C1179 C1178 1.369 . S
C1179 C1180 1.410 . S
C1179 C1187 1.503 . S
C1180 C1179 1.410 . S
C1180 C1181 1.392 . S
C1180 C1183 1.511 . S
C1181 C1177 1.376 . S
C1181 C1180 1.392 . S
C1181 H1193 0.929 . S
C1182 C1178 1.531 . S
C1182 H1194 0.960 . S
C1182 H1195 0.962 . S
C1182 H1196 0.960 . S
C1183 C1180 1.511 . S
C1183 H1197 0.961 . S
C1183 H1198 0.961 . S
C1183 H1199 0.961 . S
C1184 C1185 1.370 . S
C1184 C1186 1.363 . S
C1184 H1200 0.931 . S
C1185 C1184 1.370 . S
C1185 C1189 1.408 . S
C1186 C1184 1.363 . S
C1186 C1187 1.370 . S
C1186 C1190 1.524 . S
C1187 C1179 1.503 . S
C1187 C1186 1.370 . S
C1187 C1188 1.403 . S
C1188 C1187 1.403 . S
C1188 C1189 1.404 . S
C1188 C1191 1.539 . S
C1189 C1185 1.408 . S
C1189 C1188 1.404 . S
C1189 H1201 0.930 . S
C1190 C1186 1.524 . S
C1190 H1202 0.956 . S
C1190 H1203 0.961 . S
C1190 H1204 0.961 . S
C1191 C1188 1.539 . S
C1191 H1205 0.958 . S
C1191 H1206 0.961 . S
C1191 H1207 0.960 . S
H1192 C1176 0.931 . S
H1193 C1181 0.929 . S
H1194 C1182 0.960 . S
H1195 C1182 0.962 . S
H1196 C1182 0.960 . S
H1197 C1183 0.961 . S
H1198 C1183 0.961 . S
H1199 C1183 0.961 . S
H1200 C1184 0.931 . S
H1201 C1189 0.930 . S
H1202 C1190 0.956 . S
H1203 C1190 0.961 . S
H1204 C1190 0.961 . S
H1205 C1191 0.958 . S
H1206 C1191 0.961 . S
H1207 C1191 0.960 . S
C1208 C1209 1.391 . S
C1208 C1210 1.394 . S
C1208 H1224 0.931 . S
C1209 C1208 1.391 . S
C1209 C1213 1.376 . S
C1210 C1208 1.394 . S
C1210 C1211 1.369 . S
C1210 C1214 1.531 . S
C1211 C1210 1.369 . S
C1211 C1212 1.410 . S
C1211 C1219 1.503 . S
C1212 C1211 1.410 . S
C1212 C1213 1.392 . S
C1212 C1215 1.511 . S
C1213 C1209 1.376 . S
C1213 C1212 1.392 . S
C1213 H1225 0.929 . S
C1214 C1210 1.531 . S
C1214 H1226 0.960 . S
C1214 H1227 0.962 . S
C1214 H1228 0.960 . S
C1215 C1212 1.511 . S
C1215 H1229 0.961 . S
C1215 H1230 0.961 . S
C1215 H1231 0.961 . S
C1216 C1217 1.370 . S
C1216 C1218 1.363 . S
C1216 H1232 0.931 . S
C1217 C1216 1.370 . S
C1217 C1221 1.408 . S
C1218 C1216 1.363 . S
C1218 C1219 1.370 . S
C1218 C1222 1.524 . S
C1219 C1211 1.503 . S
C1219 C1218 1.370 . S
C1219 C1220 1.403 . S
C1220 C1219 1.403 . S
C1220 C1221 1.404 . S
C1220 C1223 1.539 . S
C1221 C1217 1.408 . S
C1221 C1220 1.404 . S
C1221 H1233 0.930 . S
C1222 C1218 1.524 . S
C1222 H1234 0.956 . S
C1222 H1235 0.961 . S
C1222 H1236 0.961 . S
C1223 C1220 1.539 . S
C1223 H1237 0.958 . S
C1223 H1238 0.961 . S
C1223 H1239 0.960 . S
H1224 C1208 0.931 . S
H1225 C1213 0.929 . S
H1226 C1214 0.960 . S
H1227 C1214 0.962 . S
H1228 C1214 0.960 . S
H1229 C1215 0.961 . S
H1230 C1215 0.961 . S
H1231 C1215 0.961 . S
H1232 C1216 0.931 . S
H1233 C1221 0.930 . S
H1234 C1222 0.956 . S
H1235 C1222 0.961 . S
H1236 C1222 0.961 . S
H1237 C1223 0.958 . S
H1238 C1223 0.961 . S
H1239 C1223 0.960 . S
C1240 C1241 1.391 . S
C1240 C1242 1.394 . S
C1240 H1256 0.931 . S
C1241 C1240 1.391 . S
C1241 C1245 1.376 . S
C1242 C1240 1.394 . S
C1242 C1243 1.369 . S
C1242 C1246 1.531 . S
C1243 C1242 1.369 . S
C1243 C1244 1.410 . S
C1243 C1251 1.503 . S
C1244 C1243 1.410 . S
C1244 C1245 1.392 . S
C1244 C1247 1.511 . S
C1245 C1241 1.376 . S
C1245 C1244 1.392 . S
C1245 H1257 0.929 . S
C1246 C1242 1.531 . S
C1246 H1258 0.960 . S
C1246 H1259 0.962 . S
C1246 H1260 0.960 . S
C1247 C1244 1.511 . S
C1247 H1261 0.961 . S
C1247 H1262 0.961 . S
C1247 H1263 0.961 . S
C1248 C1249 1.370 . S
C1248 C1250 1.363 . S
C1248 H1264 0.931 . S
C1249 C1248 1.370 . S
C1249 C1253 1.408 . S
C1250 C1248 1.363 . S
C1250 C1251 1.370 . S
C1250 C1254 1.524 . S
C1251 C1243 1.503 . S
C1251 C1250 1.370 . S
C1251 C1252 1.403 . S
C1252 C1251 1.403 . S
C1252 C1253 1.404 . S
C1252 C1255 1.539 . S
C1253 C1249 1.408 . S
C1253 C1252 1.404 . S
C1253 H1265 0.930 . S
C1254 C1250 1.524 . S
C1254 H1266 0.956 . S
C1254 H1267 0.961 . S
C1254 H1268 0.961 . S
C1255 C1252 1.539 . S
C1255 H1269 0.958 . S
C1255 H1270 0.961 . S
C1255 H1271 0.960 . S
H1256 C1240 0.931 . S
H1257 C1245 0.929 . S
H1258 C1246 0.960 . S
H1259 C1246 0.962 . S
H1260 C1246 0.960 . S
H1261 C1247 0.961 . S
H1262 C1247 0.961 . S
H1263 C1247 0.961 . S
H1264 C1248 0.931 . S
H1265 C1253 0.930 . S
H1266 C1254 0.956 . S
H1267 C1254 0.961 . S
H1268 C1254 0.961 . S
H1269 C1255 0.958 . S
H1270 C1255 0.961 . S
H1271 C1255 0.960 . S
C1272 C1273 1.391 . S
C1272 C1274 1.394 . S
C1272 H1288 0.931 . S
C1273 C1272 1.391 . S
C1273 C1277 1.376 . S
C1274 C1272 1.394 . S
C1274 C1275 1.369 . S
C1274 C1278 1.531 . S
C1275 C1274 1.369 . S
C1275 C1276 1.410 . S
C1275 C1283 1.503 . S
C1276 C1275 1.410 . S
C1276 C1277 1.392 . S
C1276 C1279 1.511 . S
C1277 C1273 1.376 . S
C1277 C1276 1.392 . S
C1277 H1289 0.929 . S
C1278 C1274 1.531 . S
C1278 H1290 0.960 . S
C1278 H1291 0.962 . S
C1278 H1292 0.960 . S
C1279 C1276 1.511 . S
C1279 H1293 0.961 . S
C1279 H1294 0.961 . S
C1279 H1295 0.961 . S
C1280 C1281 1.370 . S
C1280 C1282 1.363 . S
C1280 H1296 0.931 . S
C1281 C1280 1.370 . S
C1281 C1285 1.408 . S
C1282 C1280 1.363 . S
C1282 C1283 1.370 . S
C1282 C1286 1.524 . S
C1283 C1275 1.503 . S
C1283 C1282 1.370 . S
C1283 C1284 1.403 . S
C1284 C1283 1.403 . S
C1284 C1285 1.404 . S
C1284 C1287 1.539 . S
C1285 C1281 1.408 . S
C1285 C1284 1.404 . S
C1285 H1297 0.930 . S
C1286 C1282 1.524 . S
C1286 H1298 0.956 . S
C1286 H1299 0.961 . S
C1286 H1300 0.961 . S
C1287 C1284 1.539 . S
C1287 H1301 0.958 . S
C1287 H1302 0.961 . S
C1287 H1303 0.960 . S
H1288 C1272 0.931 . S
H1289 C1277 0.929 . S
H1290 C1278 0.960 . S
H1291 C1278 0.962 . S
H1292 C1278 0.960 . S
H1293 C1279 0.961 . S
H1294 C1279 0.961 . S
H1295 C1279 0.961 . S
H1296 C1280 0.931 . S
H1297 C1285 0.930 . S
H1298 C1286 0.956 . S
H1299 C1286 0.961 . S
H1300 C1286 0.961 . S
H1301 C1287 0.958 . S
H1302 C1287 0.961 . S
H1303 C1287 0.960 . S
C1304 C1305 1.391 . S
C1304 C1306 1.394 . S
C1304 H1320 0.931 . S
C1305 C1304 1.391 . S
C1305 C1309 1.376 . S
C1306 C1304 1.394 . S
C1306 C1307 1.369 . S
C1306 C1310 1.531 . S
C1307 C1306 1.369 . S
C1307 C1308 1.410 . S
C1307 C1315 1.503 . S
C1308 C1307 1.410 . S
C1308 C1309 1.392 . S
C1308 C1311 1.511 . S
C1309 C1305 1.376 . S
C1309 C1308 1.392 . S
C1309 H1321 0.929 . S
C1310 C1306 1.531 . S
C1310 H1322 0.960 . S
C1310 H1323 0.962 . S
C1310 H1324 0.960 . S
C1311 C1308 1.511 . S
C1311 H1325 0.961 . S
C1311 H1326 0.961 . S
C1311 H1327 0.961 . S
C1312 C1313 1.370 . S
C1312 C1314 1.363 1_554 S
C1312 H1328 0.931 . S
C1313 C1312 1.370 . S
C1313 C1317 1.408 . S
C1314 C1312 1.363 1_556 S
C1314 C1315 1.370 . S
C1314 C1318 1.524 . S
C1315 C1307 1.503 . S
C1315 C1314 1.370 . S
C1315 C1316 1.403 . S
C1316 C1315 1.403 . S
C1316 C1317 1.404 1_556 S
C1316 C1319 1.539 . S
C1317 C1313 1.408 . S
C1317 C1316 1.404 1_554 S
C1317 H1329 0.930 . S
C1318 C1314 1.524 . S
C1318 H1330 0.956 . S
C1318 H1331 0.961 . S
C1318 H1332 0.961 . S
C1319 C1316 1.539 . S
C1319 H1333 0.958 . S
C1319 H1334 0.961 1_556 S
C1319 H1335 0.960 . S
H1320 C1304 0.931 . S
H1321 C1309 0.929 . S
H1322 C1310 0.960 . S
H1323 C1310 0.962 . S
H1324 C1310 0.960 . S
H1325 C1311 0.961 . S
H1326 C1311 0.961 . S
H1327 C1311 0.961 . S
H1328 C1312 0.931 . S
H1329 C1317 0.930 . S
H1330 C1318 0.956 . S
H1331 C1318 0.961 . S
H1332 C1318 0.961 . S
H1333 C1319 0.958 . S
H1334 C1319 0.961 1_554 S
H1335 C1319 0.960 . S
C1336 C1337 1.391 . S
C1336 C1338 1.394 . S
C1336 H1352 0.931 . S
C1337 C1336 1.391 . S
C1337 C1341 1.376 . S
C1338 C1336 1.394 . S
C1338 C1339 1.369 . S
C1338 C1342 1.531 . S
C1339 C1338 1.369 . S
C1339 C1340 1.410 . S
C1339 C1347 1.503 . S
C1340 C1339 1.410 . S
C1340 C1341 1.392 . S
C1340 C1343 1.511 . S
C1341 C1337 1.376 . S
C1341 C1340 1.392 . S
C1341 H1353 0.929 . S
C1342 C1338 1.531 . S
C1342 H1354 0.960 . S
C1342 H1355 0.962 . S
C1342 H1356 0.960 . S
C1343 C1340 1.511 . S
C1343 H1357 0.961 . S
C1343 H1358 0.961 . S
C1343 H1359 0.961 . S
C1344 C1345 1.370 . S
C1344 C1346 1.363 . S
C1344 H1360 0.931 . S
C1345 C1344 1.370 . S
C1345 C1349 1.408 . S
C1346 C1344 1.363 . S
C1346 C1347 1.370 1_556 S
C1346 C1350 1.524 . S
C1347 C1339 1.503 . S
C1347 C1346 1.370 1_554 S
C1347 C1348 1.403 . S
C1348 C1347 1.403 . S
C1348 C1349 1.404 1_554 S
C1348 C1351 1.539 . S
C1349 C1345 1.408 . S
C1349 C1348 1.404 1_556 S
C1349 H1361 0.930 . S
C1350 C1346 1.524 . S
C1350 H1362 0.956 1_556 S
C1350 H1363 0.961 1_556 S
C1350 H1364 0.961 . S
C1351 C1348 1.539 . S
C1351 H1365 0.958 . S
C1351 H1366 0.961 . S
C1351 H1367 0.960 . S
H1352 C1336 0.931 . S
H1353 C1341 0.929 . S
H1354 C1342 0.960 . S
H1355 C1342 0.962 . S
H1356 C1342 0.960 . S
H1357 C1343 0.961 . S
H1358 C1343 0.961 . S
H1359 C1343 0.961 . S
H1360 C1344 0.931 . S
H1361 C1349 0.930 . S
H1362 C1350 0.956 1_554 S
H1363 C1350 0.961 1_554 S
H1364 C1350 0.961 . S
H1365 C1351 0.958 . S
H1366 C1351 0.961 . S
H1367 C1351 0.960 . S
C409 C305 1.539 . S
C417 C33 1.529 . S
C441 C339 1.523 . S
C449 C67 1.539 . S
C473 C373 1.522 . S
C481 C101 1.539 . S
C505 C407 1.524 . S
C513 C135 1.539 . S
C537 C169 1.539 . S
C545 C237 1.533 . S
C569 C271 1.539 . S
C577 C203 1.529 . S
C601 C2 1.675 1_556 S
C609 C376 1.728 . S
C633 C206 1.687 . S
C641 C36 1.724 . S
C665 C70 1.689 . S
C673 C240 1.721 1_554 S
C697 C104 1.734 . S
C705 C274 1.705 . S
C729 C308 1.727 . S
C737 C138 1.704 . S
C761 C172 1.696 . S
C769 C342 1.722 . S
C793 C20 1.605 . S
C801 C360 1.592 . S
C825 C54 1.580 . S
C833 C394 1.598 . S
C857 C224 1.598 . S
C865 C88 1.593 . S
C889 C258 1.606 . S
C897 C122 1.593 . S
C921 C156 1.582 . S
C929 C292 1.601 . S
C953 C326 1.580 . S
C961 C190 1.601 . S
C985 C9 0.812 . S
C993 C5 0.907 . S
C1017 C39 0.940 1_556 S
C1025 C43 0.859 . S
C1049 C77 0.888 . S
C1057 C73 0.888 . S
C1081 C111 0.918 . S
C1089 C107 0.906 . S
C1113 C141 0.962 . S
C1121 C145 0.841 . S
C1145 C175 0.912 . S
C1153 C179 0.876 . S
C1177 C209 0.957 1_554 S
C1185 C213 0.846 . S
C1209 C243 0.846 . S
C1217 C247 0.892 . S
C1241 C277 0.923 . S
C1249 C281 0.827 . S
C1273 C311 0.863 . S
C1281 C315 0.863 . S
C1305 C345 0.967 . S
C1313 C349 0.817 . S
C1337 C383 0.831 . S
C1345 C379 0.930 . S
