# Generated by pormake.
# Topology ecv, (8)-cn, num edge types: 1
# Building blocks:
#     Node 0, Type 0, BuildingBlock: TAGTUT_clean_sbu_1, # of connection points: 8
#     Node 1, Type 0, BuildingBlock: TAGTUT_clean_sbu_1, # of connection points: 8
#     Node 2, Type 0, BuildingBlock: TAGTUT_clean_sbu_1, # of connection points: 8
#     Node 3, Type 0, BuildingBlock: TAGTUT_clean_sbu_1, # of connection points: 8
#     Node 4, Type 0, BuildingBlock: TAGTUT_clean_sbu_1, # of connection points: 8
#     Node 5, Type 0, BuildingBlock: TAGTUT_clean_sbu_1, # of connection points: 8
#     Node 6, Type 0, BuildingBlock: TAGTUT_clean_sbu_1, # of connection points: 8
#     Node 7, Type 0, BuildingBlock: TAGTUT_clean_sbu_1, # of connection points: 8
#     Node 8, Type 0, BuildingBlock: TAGTUT_clean_sbu_1, # of connection points: 8
#     Node 9, Type 0, BuildingBlock: TAGTUT_clean_sbu_1, # of connection points: 8
#     Node 10, Type 0, BuildingBlock: TAGTUT_clean_sbu_1, # of connection points: 8
#     Node 11, Type 0, BuildingBlock: TAGTUT_clean_sbu_1, # of connection points: 8
#     Node 12, Type 0, BuildingBlock: TAGTUT_clean_sbu_1, # of connection points: 8
#     Node 13, Type 0, BuildingBlock: TAGTUT_clean_sbu_1, # of connection points: 8
#     Node 14, Type 0, BuildingBlock: TAGTUT_clean_sbu_1, # of connection points: 8
#     Node 15, Type 0, BuildingBlock: TAGTUT_clean_sbu_1, # of connection points: 8
#     Edge 16, Type (0, 0), BuildingBlock: XIVTED_clean_linker_0, # of connection points: 2
#     Edge 17, Type (0, 0), BuildingBlock: XIVTED_clean_linker_0, # of connection points: 2
#     Edge 18, Type (0, 0), BuildingBlock: XIVTED_clean_linker_0, # of connection points: 2
#     Edge 19, Type (0, 0), BuildingBlock: XIVTED_clean_linker_0, # of connection points: 2
#     Edge 20, Type (0, 0), BuildingBlock: XIVTED_clean_linker_0, # of connection points: 2
#     Edge 21, Type (0, 0), BuildingBlock: XIVTED_clean_linker_0, # of connection points: 2
#     Edge 22, Type (0, 0), BuildingBlock: XIVTED_clean_linker_0, # of connection points: 2
#     Edge 23, Type (0, 0), BuildingBlock: XIVTED_clean_linker_0, # of connection points: 2
#     Edge 24, Type (0, 0), BuildingBlock: XIVTED_clean_linker_0, # of connection points: 2
#     Edge 25, Type (0, 0), BuildingBlock: XIVTED_clean_linker_0, # of connection points: 2
#     Edge 26, Type (0, 0), BuildingBlock: XIVTED_clean_linker_0, # of connection points: 2
#     Edge 27, Type (0, 0), BuildingBlock: XIVTED_clean_linker_0, # of connection points: 2
#     Edge 28, Type (0, 0), BuildingBlock: XIVTED_clean_linker_0, # of connection points: 2
#     Edge 29, Type (0, 0), BuildingBlock: XIVTED_clean_linker_0, # of connection points: 2
#     Edge 30, Type (0, 0), BuildingBlock: XIVTED_clean_linker_0, # of connection points: 2
#     Edge 31, Type (0, 0), BuildingBlock: XIVTED_clean_linker_0, # of connection points: 2
#     Edge 32, Type (0, 0), BuildingBlock: XIVTED_clean_linker_0, # of connection points: 2
#     Edge 33, Type (0, 0), BuildingBlock: XIVTED_clean_linker_0, # of connection points: 2
#     Edge 34, Type (0, 0), BuildingBlock: XIVTED_clean_linker_0, # of connection points: 2
#     Edge 35, Type (0, 0), BuildingBlock: XIVTED_clean_linker_0, # of connection points: 2
#     Edge 36, Type (0, 0), BuildingBlock: XIVTED_clean_linker_0, # of connection points: 2
#     Edge 37, Type (0, 0), BuildingBlock: XIVTED_clean_linker_0, # of connection points: 2
#     Edge 38, Type (0, 0), BuildingBlock: XIVTED_clean_linker_0, # of connection points: 2
#     Edge 39, Type (0, 0), BuildingBlock: XIVTED_clean_linker_0, # of connection points: 2
#     Edge 40, Type (0, 0), BuildingBlock: XIVTED_clean_linker_0, # of connection points: 2
#     Edge 41, Type (0, 0), BuildingBlock: XIVTED_clean_linker_0, # of connection points: 2
#     Edge 42, Type (0, 0), BuildingBlock: XIVTED_clean_linker_0, # of connection points: 2
#     Edge 43, Type (0, 0), BuildingBlock: XIVTED_clean_linker_0, # of connection points: 2
#     Edge 44, Type (0, 0), BuildingBlock: XIVTED_clean_linker_0, # of connection points: 2
#     Edge 45, Type (0, 0), BuildingBlock: XIVTED_clean_linker_0, # of connection points: 2
#     Edge 46, Type (0, 0), BuildingBlock: XIVTED_clean_linker_0, # of connection points: 2
#     Edge 47, Type (0, 0), BuildingBlock: XIVTED_clean_linker_0, # of connection points: 2
#     Edge 48, Type (0, 0), BuildingBlock: XIVTED_clean_linker_0, # of connection points: 2
#     Edge 49, Type (0, 0), BuildingBlock: XIVTED_clean_linker_0, # of connection points: 2
#     Edge 50, Type (0, 0), BuildingBlock: XIVTED_clean_linker_0, # of connection points: 2
#     Edge 51, Type (0, 0), BuildingBlock: XIVTED_clean_linker_0, # of connection points: 2
#     Edge 52, Type (0, 0), BuildingBlock: XIVTED_clean_linker_0, # of connection points: 2
#     Edge 53, Type (0, 0), BuildingBlock: XIVTED_clean_linker_0, # of connection points: 2
#     Edge 54, Type (0, 0), BuildingBlock: XIVTED_clean_linker_0, # of connection points: 2
#     Edge 55, Type (0, 0), BuildingBlock: XIVTED_clean_linker_0, # of connection points: 2
#     Edge 56, Type (0, 0), BuildingBlock: XIVTED_clean_linker_0, # of connection points: 2
#     Edge 57, Type (0, 0), BuildingBlock: XIVTED_clean_linker_0, # of connection points: 2
#     Edge 58, Type (0, 0), BuildingBlock: XIVTED_clean_linker_0, # of connection points: 2
#     Edge 59, Type (0, 0), BuildingBlock: XIVTED_clean_linker_0, # of connection points: 2
#     Edge 60, Type (0, 0), BuildingBlock: XIVTED_clean_linker_0, # of connection points: 2
#     Edge 61, Type (0, 0), BuildingBlock: XIVTED_clean_linker_0, # of connection points: 2
#     Edge 62, Type (0, 0), BuildingBlock: XIVTED_clean_linker_0, # of connection points: 2
#     Edge 63, Type (0, 0), BuildingBlock: XIVTED_clean_linker_0, # of connection points: 2
#     Edge 64, Type (0, 0), BuildingBlock: XIVTED_clean_linker_0, # of connection points: 2
#     Edge 65, Type (0, 0), BuildingBlock: XIVTED_clean_linker_0, # of connection points: 2
#     Edge 66, Type (0, 0), BuildingBlock: XIVTED_clean_linker_0, # of connection points: 2
#     Edge 67, Type (0, 0), BuildingBlock: XIVTED_clean_linker_0, # of connection points: 2
#     Edge 68, Type (0, 0), BuildingBlock: XIVTED_clean_linker_0, # of connection points: 2
#     Edge 69, Type (0, 0), BuildingBlock: XIVTED_clean_linker_0, # of connection points: 2
#     Edge 70, Type (0, 0), BuildingBlock: XIVTED_clean_linker_0, # of connection points: 2
#     Edge 71, Type (0, 0), BuildingBlock: XIVTED_clean_linker_0, # of connection points: 2
#     Edge 72, Type (0, 0), BuildingBlock: XIVTED_clean_linker_0, # of connection points: 2
#     Edge 73, Type (0, 0), BuildingBlock: XIVTED_clean_linker_0, # of connection points: 2
#     Edge 74, Type (0, 0), BuildingBlock: XIVTED_clean_linker_0, # of connection points: 2
#     Edge 75, Type (0, 0), BuildingBlock: XIVTED_clean_linker_0, # of connection points: 2
#     Edge 76, Type (0, 0), BuildingBlock: XIVTED_clean_linker_0, # of connection points: 2
#     Edge 77, Type (0, 0), BuildingBlock: XIVTED_clean_linker_0, # of connection points: 2
#     Edge 78, Type (0, 0), BuildingBlock: XIVTED_clean_linker_0, # of connection points: 2
#     Edge 79, Type (0, 0), BuildingBlock: XIVTED_clean_linker_0, # of connection points: 2
# Relax obj value: 0.109
# Max RMSD: 0.179
# Mean RMSD: 0.179
data_MOF--net-ecv--node1-TAGTUT_clean_sbu_1--edge1-XIVTED_clean_linker_0
_symmetry_space_group_name_H-M    P1
_symmetry_Int_Tables_number       1
_symmetry_cell_setting            triclinic
loop_
_symmetry_equiv_pos_as_xyz
'x, y, z'
_cell_length_a     19.863409
_cell_length_b     26.599345
_cell_length_c     117.71756
_cell_angle_alpha  94.176782
_cell_angle_beta   89.989917
_cell_angle_gamma 90.055578
loop_
_atom_site_label
_atom_site_type_symbol
_atom_site_fract_x
_atom_site_fract_y
_atom_site_fract_z
_atom_type_partial_charge
C0 C 0.08529 0.06638 0.4778 0.0
C1 C 0.09422 0.0229 0.44587 0.0
C2 C 0.36013 0.07664 0.44589 0.0
Mg3 Mg 0.07078 0.12337 0.45573 0.0
O4 O 0.16456 0.12695 0.4584 0.0
Mg5 Mg 0.22019 0.06345 0.46047 0.0
Mg6 Mg 0.22275 0.15352 0.44671 0.0
O7 O 0.27958 0.17851 0.4346 0.0
Mg8 Mg 0.37005 0.18834 0.43849 0.0
Mg9 Mg 0.22436 0.23877 0.43066 0.0
C10 C 0.09026 0.2356 0.44794 0.0
C11 C 0.14142 0.13777 0.42251 0.0
O12 O 0.14304 0.05048 0.47427 0.0
O13 O 0.04894 0.0964 0.47233 0.0
O14 O 0.15747 0.0161 0.44693 0.0
O15 O 0.07484 0.06446 0.44232 0.0
O16 O 0.05145 0.20164 0.45164 0.0
O17 O 0.1535 0.22611 0.44608 0.0
C18 C 0.2868 0.1654 0.47249 0.0
O19 O 0.27691 0.18768 0.46323 0.0
O20 O 0.27529 0.11812 0.47298 0.0
O21 O 0.30216 0.24203 0.41556 0.0
O22 O 0.40064 0.21461 0.42247 0.0
O23 O 0.29434 0.29208 0.44105 0.0
C24 C 0.3657 0.23251 0.41455 0.0
O25 O 0.36392 0.24855 0.45125 0.0
O26 O 0.39785 0.11262 0.4429 0.0
C27 C 0.34435 0.29038 0.44783 0.0
O28 O 0.29573 0.0835 0.44694 0.0
O29 O 0.16259 0.11781 0.43141 0.0
O30 O 0.15659 0.18298 0.42048 0.0
C31 C 0.07807 0.20487 0.79979 0.0
C32 C 0.11808 0.23179 0.83611 0.0
C33 C 0.36613 0.17919 0.82779 0.0
Mg34 Mg 0.07557 0.13908 0.82037 0.0
O35 O 0.16652 0.133 0.81633 0.0
Mg36 Mg 0.22205 0.19577 0.81459 0.0
Mg37 Mg 0.22711 0.10341 0.82718 0.0
O38 O 0.28665 0.0756 0.83845 0.0
Mg39 Mg 0.37661 0.0665 0.83409 0.0
Mg40 Mg 0.23118 0.01566 0.84225 0.0
C41 C 0.09117 0.02476 0.82654 0.0
C42 C 0.15405 0.11601 0.85226 0.0
O43 O 0.13902 0.21651 0.8024 0.0
O44 O 0.04326 0.17399 0.80528 0.0
O45 O 0.16807 0.23841 0.8295 0.0
O46 O 0.07795 0.19435 0.83443 0.0
O47 O 0.0524 0.06028 0.82358 0.0
O48 O 0.15515 0.0328 0.82788 0.0
C49 C 0.28218 0.09522 0.80085 0.0
O50 O 0.27572 0.0716 0.81001 0.0
O51 O 0.26993 0.14266 0.80078 0.0
O52 O 0.31353 0.00791 0.85651 0.0
O53 O 0.41058 0.03812 0.84969 0.0
O54 O 0.29304 0.96548 0.82971 0.0
C55 C 0.37691 0.01809 0.85748 0.0
O56 O 0.37118 0.00812 0.82082 0.0
O57 O 0.40481 0.14315 0.83038 0.0
C58 C 0.33886 0.96748 0.82212 0.0
O59 O 0.30197 0.1715 0.8268 0.0
O60 O 0.17266 0.13689 0.84331 0.0
O61 O 0.16886 0.07022 0.85384 0.0
C62 C 0.62695 0.76471 0.60734 0.0
C63 C 0.67264 0.71785 0.57159 0.0
C64 C 0.9184 0.77617 0.57798 0.0
Mg65 Mg 0.63035 0.81503 0.5842 0.0
O66 O 0.71975 0.82399 0.58893 0.0
Mg67 Mg 0.77518 0.76403 0.59271 0.0
Mg68 Mg 0.78122 0.85371 0.57825 0.0
O69 O 0.8441 0.88534 0.56805 0.0
Mg70 Mg 0.93365 0.89206 0.57298 0.0
Mg71 Mg 0.78827 0.94796 0.5664 0.0
C72 C 0.64121 0.92857 0.57845 0.0
C73 C 0.73187 0.84825 0.55165 0.0
O74 O 0.69031 0.75441 0.60648 0.0
O75 O 0.59421 0.78546 0.59956 0.0
O76 O 0.71705 0.715 0.57939 0.0
O77 O 0.63838 0.75791 0.57068 0.0
O78 O 0.60238 0.89197 0.58067 0.0
O79 O 0.70562 0.92145 0.57781 0.0
C80 C 0.84918 0.86386 0.60372 0.0
O81 O 0.83188 0.88556 0.59481 0.0
O82 O 0.83472 0.81769 0.60496 0.0
O83 O 0.87435 0.97161 0.55517 0.0
O84 O 0.97013 0.9302 0.55861 0.0
O85 O 0.83789 0.98937 0.58195 0.0
C86 C 0.93642 0.96161 0.55311 0.0
O87 O 0.9271 0.94567 0.58735 0.0
O88 O 0.95735 0.81278 0.57569 0.0
C89 C 0.88622 0.98267 0.58889 0.0
O90 O 0.854 0.78339 0.57893 0.0
O91 O 0.73621 0.82367 0.5607 0.0
O92 O 0.74449 0.89578 0.5519 0.0
C93 C 0.63526 0.99369 0.1667 0.0
C94 C 0.6718 0.04292 0.20231 0.0
C95 C 0.91909 0.98592 0.19818 0.0
Mg96 Mg 0.63397 0.94436 0.18998 0.0
O97 O 0.72419 0.93542 0.18578 0.0
Mg98 Mg 0.78009 0.9955 0.18219 0.0
Mg99 Mg 0.78294 0.90721 0.19711 0.0
O100 O 0.84267 0.8774 0.20806 0.0
Mg101 Mg 0.9341 0.8717 0.2044 0.0
Mg102 Mg 0.78703 0.81461 0.20966 0.0
C103 C 0.64392 0.83151 0.19622 0.0
C104 C 0.72646 0.9151 0.22333 0.0
O105 O 0.69849 1.00403 0.16785 0.0
O106 O 0.60104 0.97318 0.17436 0.0
O107 O 0.7181 0.0454 0.19481 0.0
O108 O 0.63881 1.00233 0.20334 0.0
O109 O 0.60546 0.86764 0.1936 0.0
O110 O 0.70808 0.83902 0.19727 0.0
C111 C 0.85694 0.89509 0.17213 0.0
O112 O 0.83796 0.87408 0.18104 0.0
O113 O 0.84248 0.94098 0.17058 0.0
O114 O 0.86877 0.79369 0.22208 0.0
O115 O 0.96464 0.83658 0.21956 0.0
O116 O 0.84232 0.77236 0.19481 0.0
C117 C 0.92932 0.80553 0.22492 0.0
O118 O 0.93272 0.81701 0.19024 0.0
O119 O 0.95759 0.9506 0.20132 0.0
C120 C 0.8928 0.77958 0.18835 0.0
O121 O 0.85539 0.97754 0.19657 0.0
O122 O 0.73356 0.93878 0.21419 0.0
O123 O 0.73822 0.86759 0.22339 0.0
C124 C 0.07486 0.55522 0.97402 0.0
C125 C 0.11768 0.52829 0.93765 0.0
C126 C 0.36426 0.58078 0.94627 0.0
Mg127 Mg 0.07355 0.6206 0.95335 0.0
O128 O 0.1642 0.62717 0.95758 0.0
Mg129 Mg 0.21968 0.56451 0.95942 0.0
Mg130 Mg 0.22546 0.65696 0.94684 0.0
O131 O 0.28562 0.68476 0.93566 0.0
Mg132 Mg 0.37566 0.69347 0.94004 0.0
Mg133 Mg 0.23061 0.7447 0.93179 0.0
C134 C 0.08932 0.73511 0.9472 0.0
C135 C 0.15361 0.64447 0.92164 0.0
O136 O 0.13594 0.54369 0.9715 0.0
O137 O 0.04028 0.58582 0.96842 0.0
O138 O 0.16703 0.52178 0.94439 0.0
O139 O 0.07712 0.56543 0.93928 0.0
O140 O 0.05061 0.69926 0.95004 0.0
O141 O 0.15354 0.7276 0.94604 0.0
C142 C 0.27921 0.66513 0.97326 0.0
O143 O 0.2734 0.68872 0.96409 0.0
O144 O 0.26668 0.61771 0.97332 0.0
O145 O 0.31374 0.75245 0.91762 0.0
O146 O 0.41032 0.72185 0.92447 0.0
O147 O 0.29199 0.79459 0.94448 0.0
C148 C 0.37705 0.74207 0.91668 0.0
O149 O 0.37026 0.75184 0.95331 0.0
O150 O 0.40332 0.61662 0.94366 0.0
C151 C 0.33759 0.79239 0.95211 0.0
O152 O 0.30024 0.5889 0.94733 0.0
O153 O 0.1717 0.62356 0.93061 0.0
O154 O 0.16865 0.69027 0.92009 0.0
C155 C 0.0742 0.70659 0.30108 0.0
C156 C 0.12031 0.73422 0.3372 0.0
C157 C 0.36684 0.6819 0.32779 0.0
Mg158 Mg 0.07526 0.64126 0.32173 0.0
O159 O 0.16559 0.63488 0.3173 0.0
Mg160 Mg 0.22061 0.69762 0.3152 0.0
Mg161 Mg 0.22821 0.60591 0.32796 0.0
O162 O 0.28974 0.57909 0.33906 0.0
Mg163 Mg 0.37918 0.57001 0.33442 0.0
Mg164 Mg 0.23534 0.51978 0.3435 0.0
C165 C 0.09248 0.52712 0.32812 0.0
C166 C 0.16 0.62099 0.35349 0.0
O167 O 0.13551 0.71813 0.30343 0.0
O168 O 0.04025 0.67571 0.30671 0.0
O169 O 0.1692 0.74057 0.33034 0.0
O170 O 0.07977 0.69691 0.33573 0.0
O171 O 0.05338 0.56253 0.3252 0.0
O172 O 0.1566 0.53525 0.3293 0.0
C173 C 0.27927 0.59675 0.30131 0.0
O174 O 0.27415 0.57328 0.31053 0.0
O175 O 0.26648 0.64413 0.30124 0.0
O176 O 0.32072 0.5139 0.35747 0.0
O177 O 0.41622 0.54355 0.35 0.0
O178 O 0.29471 0.46871 0.33077 0.0
C179 C 0.38416 0.52447 0.35809 0.0
O180 O 0.37173 0.51067 0.32143 0.0
O181 O 0.40624 0.64627 0.33035 0.0
C182 C 0.33889 0.47041 0.32289 0.0
O183 O 0.3027 0.6738 0.32701 0.0
O184 O 0.1768 0.64066 0.34429 0.0
O185 O 0.17498 0.57541 0.35524 0.0
C186 C 0.62963 0.26559 0.10692 0.0
C187 C 0.67243 0.21804 0.07114 0.0
C188 C 0.91919 0.27421 0.07679 0.0
Mg189 Mg 0.63244 0.31573 0.08377 0.0
O190 O 0.72223 0.32421 0.08833 0.0
Mg191 Mg 0.77703 0.26381 0.09202 0.0
Mg192 Mg 0.78291 0.35271 0.07733 0.0
O193 O 0.84452 0.3829 0.0667 0.0
Mg194 Mg 0.93525 0.38889 0.07088 0.0
Mg195 Mg 0.78939 0.44574 0.06493 0.0
C196 C 0.64409 0.42891 0.07782 0.0
C197 C 0.73006 0.34554 0.05086 0.0
O198 O 0.69288 0.25498 0.10598 0.0
O199 O 0.59675 0.28648 0.09918 0.0
O200 O 0.71732 0.21489 0.07886 0.0
O201 O 0.63867 0.25837 0.07029 0.0
O202 O 0.60507 0.39274 0.08024 0.0
O203 O 0.70831 0.4212 0.07694 0.0
C204 C 0.85343 0.36355 0.10264 0.0
O205 O 0.83605 0.38504 0.0937 0.0
O206 O 0.83805 0.31764 0.10403 0.0
O207 O 0.87338 0.46685 0.05293 0.0
O208 O 0.9688 0.42431 0.05592 0.0
O209 O 0.84196 0.48766 0.08012 0.0
C210 C 0.93441 0.45525 0.05039 0.0
O211 O 0.93139 0.44311 0.08511 0.0
O212 O 0.95802 0.31 0.07397 0.0
C213 C 0.89102 0.48029 0.08686 0.0
O214 O 0.85508 0.28208 0.07804 0.0
O215 O 0.73554 0.32172 0.06 0.0
O216 O 0.74261 0.393 0.05088 0.0
C217 C 0.6312 0.49071 0.66598 0.0
C218 C 0.66945 0.54171 0.7016 0.0
C219 C 0.91693 0.48447 0.69706 0.0
Mg220 Mg 0.63077 0.44281 0.68942 0.0
O221 O 0.72105 0.43393 0.68522 0.0
Mg222 Mg 0.77664 0.49379 0.6814 0.0
Mg223 Mg 0.7805 0.40618 0.69651 0.0
O224 O 0.84113 0.37659 0.70736 0.0
Mg225 Mg 0.93196 0.37013 0.70326 0.0
Mg226 Mg 0.78542 0.314 0.70918 0.0
C227 C 0.64123 0.33035 0.69594 0.0
C228 C 0.72592 0.41503 0.72288 0.0
O229 O 0.69436 0.5014 0.66709 0.0
O230 O 0.59724 0.47051 0.6737 0.0
O231 O 0.71543 0.54391 0.69403 0.0
O232 O 0.63579 0.50143 0.70264 0.0
O233 O 0.60267 0.36628 0.69325 0.0
O234 O 0.70541 0.33803 0.69696 0.0
C235 C 0.85359 0.39343 0.67142 0.0
O236 O 0.83498 0.37255 0.68037 0.0
O237 O 0.83871 0.43919 0.66982 0.0
O238 O 0.8686 0.29325 0.72134 0.0
O239 O 0.96455 0.33535 0.71835 0.0
O240 O 0.83886 0.27091 0.69427 0.0
C241 C 0.92968 0.30468 0.72389 0.0
O242 O 0.92899 0.31468 0.68924 0.0
O243 O 0.95548 0.44878 0.69998 0.0
C244 C 0.88867 0.27734 0.68761 0.0
O245 O 0.85286 0.47664 0.69574 0.0
O246 O 0.732 0.43836 0.71368 0.0
O247 O 0.73817 0.3676 0.723 0.0
C248 C 0.57663 0.05563 0.97372 0.0
C249 C 0.61939 0.03021 0.93738 0.0
C250 C 0.86677 0.08138 0.94612 0.0
Mg251 Mg 0.5762 0.12207 0.95327 0.0
O252 O 0.66687 0.12793 0.95751 0.0
Mg253 Mg 0.72178 0.06493 0.95922 0.0
Mg254 Mg 0.72834 0.15801 0.94685 0.0
O255 O 0.78866 0.18633 0.93576 0.0
Mg256 Mg 0.8788 0.19447 0.94013 0.0
Mg257 Mg 0.73393 0.24689 0.93217 0.0
C258 C 0.59258 0.23673 0.94747 0.0
C259 C 0.65655 0.14743 0.92167 0.0
O260 O 0.63771 0.04399 0.97122 0.0
O261 O 0.54239 0.08661 0.96818 0.0
O262 O 0.66864 0.02298 0.9441 0.0
O263 O 0.57941 0.06764 0.93908 0.0
O264 O 0.55351 0.20097 0.95021 0.0
O265 O 0.65668 0.22883 0.94626 0.0
C266 C 0.78183 0.16498 0.97327 0.0
O267 O 0.77639 0.18883 0.96413 0.0
O268 O 0.76898 0.11757 0.97325 0.0
O269 O 0.81699 0.25572 0.91808 0.0
O270 O 0.91349 0.22389 0.92466 0.0
O271 O 0.79496 0.29556 0.94519 0.0
C272 C 0.88013 0.24504 0.91701 0.0
O273 O 0.87371 0.25171 0.95364 0.0
O274 O 0.90586 0.11731 0.94357 0.0
C275 C 0.84045 0.29228 0.9528 0.0
O276 O 0.80273 0.08949 0.94719 0.0
O277 O 0.67449 0.12584 0.93056 0.0
O278 O 0.6719 0.19333 0.92027 0.0
C279 C 0.58668 0.20587 0.29927 0.0
C280 C 0.62496 0.23075 0.3358 0.0
C281 C 0.87231 0.17911 0.32812 0.0
Mg282 Mg 0.58291 0.13936 0.31969 0.0
O283 O 0.67391 0.13333 0.31574 0.0
Mg284 Mg 0.72971 0.1962 0.31431 0.0
Mg285 Mg 0.73346 0.10254 0.32655 0.0
O286 O 0.79177 0.07338 0.3378 0.0
Mg287 Mg 0.88266 0.06549 0.3339 0.0
Mg288 Mg 0.73573 0.01264 0.34089 0.0
C289 C 0.59691 0.02464 0.32537 0.0
C290 C 0.65804 0.11177 0.35139 0.0
O291 O 0.64753 0.21755 0.30196 0.0
O292 O 0.55158 0.1751 0.30473 0.0
O293 O 0.67498 0.23812 0.32925 0.0
O294 O 0.58498 0.19337 0.33393 0.0
O295 O 0.55845 0.06064 0.32261 0.0
O296 O 0.66101 0.0321 0.32666 0.0
C297 C 0.79018 0.09626 0.30036 0.0
O298 O 0.78328 0.07215 0.30943 0.0
O299 O 0.77825 0.14378 0.30041 0.0
O300 O 0.81578 1.00207 0.35525 0.0
O301 O 0.91383 0.03457 0.34943 0.0
O302 O 0.79868 0.96469 0.32803 0.0
C303 C 0.8787 0.0125 0.35673 0.0
O304 O 0.8795 0.009 0.32019 0.0
O305 O 0.91074 0.14313 0.33084 0.0
C306 C 0.84587 0.96833 0.32072 0.0
O307 O 0.80852 0.17091 0.32665 0.0
O308 O 0.6777 0.134 0.34268 0.0
O309 O 0.6725 0.06563 0.35268 0.0
C310 C 0.13586 0.76816 0.10782 0.0
C311 C 0.17314 0.71703 0.0724 0.0
C312 C 0.42078 0.77508 0.0767 0.0
Mg313 Mg 0.13492 0.81617 0.08437 0.0
O314 O 0.22507 0.82542 0.08859 0.0
Mg315 Mg 0.28101 0.76576 0.09243 0.0
Mg316 Mg 0.28419 0.85328 0.07728 0.0
O317 O 0.34459 0.88287 0.0664 0.0
Mg318 Mg 0.4355 0.88932 0.07047 0.0
Mg319 Mg 0.28897 0.94544 0.0646 0.0
C320 C 0.14485 0.92887 0.07792 0.0
C321 C 0.22885 0.84451 0.05096 0.0
O322 O 0.19912 0.75792 0.10674 0.0
O323 O 0.10177 0.78815 0.10008 0.0
O324 O 0.21929 0.71523 0.07994 0.0
O325 O 0.14018 0.75743 0.07118 0.0
O326 O 0.10645 0.89272 0.08058 0.0
O327 O 0.20907 0.92144 0.0769 0.0
C328 C 0.35747 0.86662 0.10233 0.0
O329 O 0.33856 0.88717 0.09336 0.0
O330 O 0.34315 0.82078 0.10396 0.0
O331 O 0.37202 0.96585 0.05235 0.0
O332 O 0.46792 0.92389 0.05536 0.0
O333 O 0.34294 0.9886 0.07945 0.0
C334 C 0.43303 0.9543 0.04978 0.0
O335 O 0.43295 0.94481 0.08447 0.0
O336 O 0.45932 0.81079 0.07376 0.0
C337 C 0.39283 0.98222 0.08609 0.0
O338 O 0.35673 0.78287 0.07802 0.0
O339 O 0.23536 0.82107 0.06014 0.0
O340 O 0.24109 0.89196 0.05085 0.0
C341 C 0.12857 0.99483 0.66769 0.0
C342 C 0.17002 0.04226 0.70322 0.0
C343 C 0.41666 0.98483 0.69793 0.0
Mg344 Mg 0.13044 0.94432 0.69081 0.0
O345 O 0.22001 0.93535 0.68618 0.0
Mg346 Mg 0.27551 0.99561 0.68256 0.0
Mg347 Mg 0.28003 0.90654 0.69722 0.0
O348 O 0.3409 0.87612 0.7079 0.0
Mg349 Mg 0.43181 0.8702 0.70387 0.0
Mg350 Mg 0.28527 0.81332 0.70954 0.0
C351 C 0.14075 0.83086 0.69658 0.0
C352 C 0.22595 0.91335 0.72361 0.0
O353 O 0.19202 1.00485 0.66857 0.0
O354 O 0.09542 0.97417 0.67545 0.0
O355 O 0.2152 0.04496 0.69553 0.0
O356 O 0.13708 1.00168 0.70429 0.0
O357 O 0.10206 0.8673 0.69424 0.0
O358 O 0.20503 0.83827 0.69746 0.0
C359 C 0.35144 0.89558 0.67199 0.0
O360 O 0.33349 0.87412 0.6809 0.0
O361 O 0.33662 0.94157 0.6706 0.0
O362 O 0.36844 0.79188 0.72164 0.0
O363 O 0.46412 0.83464 0.71887 0.0
O364 O 0.3385 0.77154 0.69442 0.0
C365 C 0.42932 0.80353 0.72429 0.0
O366 O 0.42849 0.81607 0.68962 0.0
O367 O 0.45524 0.94906 0.70081 0.0
C368 C 0.38807 0.77893 0.68777 0.0
O369 O 0.35261 0.97697 0.69662 0.0
O370 O 0.23229 0.9374 0.71452 0.0
O371 O 0.23795 0.86583 0.72355 0.0
C372 C 0.58437 0.5539 0.47302 0.0
C373 C 0.63663 0.53157 0.43678 0.0
C374 C 0.87775 0.58544 0.44671 0.0
Mg375 Mg 0.58592 0.62113 0.45266 0.0
O376 O 0.67531 0.62899 0.45751 0.0
Mg377 Mg 0.73191 0.56692 0.45944 0.0
Mg378 Mg 0.73829 0.66173 0.44748 0.0
O379 O 0.80088 0.69254 0.43705 0.0
Mg380 Mg 0.89146 0.6997 0.44151 0.0
Mg381 Mg 0.74604 0.75342 0.43381 0.0
C382 C 0.59985 0.73718 0.44752 0.0
C383 C 0.6725 0.6547 0.4218 0.0
O384 O 0.6463 0.54357 0.4709 0.0
O385 O 0.55029 0.58426 0.46729 0.0
O386 O 0.6839 0.52474 0.44389 0.0
O387 O 0.59452 0.56773 0.43829 0.0
O388 O 0.56176 0.6999 0.4497 0.0
O389 O 0.66464 0.73137 0.4469 0.0
C390 C 0.78685 0.66693 0.47419 0.0
O391 O 0.78214 0.69137 0.46514 0.0
O392 O 0.77498 0.61933 0.47395 0.0
O393 O 0.83211 0.76574 0.4203 0.0
O394 O 0.92778 0.73112 0.42642 0.0
O395 O 0.80029 0.79911 0.44853 0.0
C396 C 0.89491 0.75423 0.41904 0.0
O397 O 0.88361 0.75399 0.45559 0.0
O398 O 0.91729 0.6214 0.44434 0.0
C399 C 0.84423 0.79195 0.45623 0.0
O400 O 0.81389 0.59396 0.44789 0.0
O401 O 0.68817 0.63159 0.43062 0.0
O402 O 0.68821 0.70102 0.42089 0.0
C403 C 0.57402 0.70678 0.80058 0.0
C404 C 0.61989 0.73086 0.83687 0.0
C405 C 0.86527 0.67952 0.82769 0.0
Mg406 Mg 0.57442 0.63967 0.82092 0.0
O407 O 0.66468 0.63332 0.81647 0.0
Mg408 Mg 0.72001 0.69623 0.81474 0.0
Mg409 Mg 0.72667 0.60281 0.82699 0.0
O410 O 0.78746 0.57433 0.83797 0.0
Mg411 Mg 0.87765 0.56647 0.83361 0.0
Mg412 Mg 0.73274 0.51391 0.84167 0.0
C413 C 0.59049 0.52475 0.82665 0.0
C414 C 0.6562 0.6133 0.85231 0.0
O415 O 0.63533 0.71811 0.80299 0.0
O416 O 0.5399 0.67558 0.80609 0.0
O417 O 0.6687 0.73805 0.83006 0.0
O418 O 0.57918 0.6938 0.83516 0.0
O419 O 0.55163 0.56081 0.82403 0.0
O420 O 0.65482 0.5321 0.82766 0.0
C421 C 0.77832 0.59615 0.80045 0.0
O422 O 0.77353 0.57215 0.80958 0.0
O423 O 0.76561 0.64359 0.80054 0.0
O424 O 0.81631 0.50515 0.8557 0.0
O425 O 0.91261 0.5372 0.84907 0.0
O426 O 0.79336 0.46531 0.82859 0.0
C427 C 0.87946 0.51598 0.85673 0.0
O428 O 0.87229 0.5091 0.82012 0.0
O429 O 0.90462 0.64382 0.83024 0.0
C430 C 0.83885 0.46856 0.82096 0.0
O431 O 0.80138 0.67098 0.82656 0.0
O432 O 0.67389 0.63492 0.8434 0.0
O433 O 0.67131 0.56735 0.85367 0.0
C434 C 0.12958 0.26757 0.60662 0.0
C435 C 0.16499 0.21655 0.57137 0.0
C436 C 0.41541 0.27311 0.57568 0.0
Mg437 Mg 0.12985 0.31626 0.58324 0.0
O438 O 0.22016 0.32456 0.58744 0.0
Mg439 Mg 0.2749 0.26433 0.59127 0.0
Mg440 Mg 0.27989 0.3522 0.57617 0.0
O441 O 0.34074 0.38156 0.56532 0.0
Mg442 Mg 0.43172 0.38715 0.56932 0.0
Mg443 Mg 0.28616 0.44467 0.56352 0.0
C444 C 0.14176 0.42917 0.57694 0.0
C445 C 0.22513 0.34443 0.54978 0.0
O446 O 0.19275 0.25694 0.60558 0.0
O447 O 0.09602 0.28808 0.5989 0.0
O448 O 0.21151 0.21438 0.57884 0.0
O449 O 0.1338 0.25758 0.57 0.0
O450 O 0.10284 0.39325 0.57956 0.0
O451 O 0.20584 0.42118 0.57585 0.0
C452 C 0.35309 0.36446 0.60127 0.0
O453 O 0.33456 0.3854 0.59232 0.0
O454 O 0.33801 0.31868 0.60284 0.0
O455 O 0.36948 0.46431 0.55119 0.0
O456 O 0.46454 0.42129 0.55418 0.0
O457 O 0.34079 0.48721 0.5784 0.0
C458 C 0.43019 0.45196 0.54857 0.0
O459 O 0.42997 0.44236 0.58335 0.0
O460 O 0.45425 0.3086 0.57271 0.0
C461 C 0.39047 0.48009 0.58503 0.0
O462 O 0.35131 0.28106 0.57691 0.0
O463 O 0.23133 0.32065 0.55892 0.0
O464 O 0.23746 0.39188 0.54975 0.0
C465 C 0.13035 0.49246 0.16736 0.0
C466 C 0.17323 0.54203 0.2029 0.0
C467 C 0.42078 0.4854 0.19704 0.0
Mg468 Mg 0.13355 0.4435 0.19068 0.0
O469 O 0.22334 0.43519 0.18613 0.0
Mg470 Mg 0.27796 0.49526 0.18216 0.0
Mg471 Mg 0.28479 0.40708 0.19707 0.0
O472 O 0.34762 0.37704 0.2075 0.0
Mg473 Mg 0.4375 0.37067 0.20276 0.0
Mg474 Mg 0.2927 0.31414 0.2094 0.0
C475 C 0.14625 0.33059 0.19678 0.0
C476 C 0.23414 0.41409 0.22371 0.0
O477 O 0.19358 0.50324 0.16823 0.0
O478 O 0.09766 0.47185 0.17518 0.0
O479 O 0.21814 0.54457 0.19516 0.0
O480 O 0.13994 0.50162 0.20401 0.0
O481 O 0.10686 0.36642 0.19431 0.0
O482 O 0.21036 0.33876 0.19767 0.0
C483 C 0.35387 0.39544 0.17162 0.0
O484 O 0.33665 0.37432 0.18061 0.0
O485 O 0.33875 0.44129 0.17017 0.0
O486 O 0.37851 0.29313 0.22102 0.0
O487 O 0.47364 0.33529 0.21751 0.0
O488 O 0.34341 0.27197 0.19408 0.0
C489 C 0.44008 0.30451 0.22322 0.0
O490 O 0.43226 0.31596 0.18862 0.0
O491 O 0.46004 0.44945 0.19957 0.0
C492 C 0.39169 0.27871 0.18713 0.0
O493 O 0.35647 0.47776 0.19613 0.0
O494 O 0.2388 0.43816 0.21458 0.0
O495 O 0.24719 0.36671 0.22361 0.0
H496 H 0.48071 0.27741 0.44912 0.0
H497 H 0.5366 0.5279 0.4206 0.0
H498 H 0.32866 0.38448 0.4405 0.0
H499 H 0.69779 0.439 0.4332 0.0
H500 H 0.46582 0.45353 0.41903 0.0
H501 H 0.56243 0.32151 0.43814 0.0
C502 C 0.46473 0.31101 0.4452 0.0
C503 C 0.39727 0.32701 0.44566 0.0
C504 C 0.51747 0.44979 0.42181 0.0
C505 C 0.49028 0.37623 0.4327 0.0
C506 C 0.55845 0.4922 0.42253 0.0
C507 C 0.62009 0.49024 0.42829 0.0
C508 C 0.5395 0.40674 0.42694 0.0
C509 C 0.64767 0.44268 0.42974 0.0
C510 C 0.5111 0.33519 0.43864 0.0
C511 C 0.37998 0.37071 0.44035 0.0
N512 N 0.60556 0.40268 0.42978 0.0
N513 N 0.4261 0.39354 0.43401 0.0
H514 H 0.96499 0.05001 0.45166 0.0
H515 H 0.93751 0.79435 0.47351 0.0
H516 H 0.12465 0.94865 0.45999 0.0
H517 H 0.77607 0.8813 0.46028 0.0
H518 H 0.99018 0.8721 0.48118 0.0
H519 H 0.89211 0.01175 0.46519 0.0
C520 C 0.985 0.01991 0.45638 0.0
C521 C 0.05077 1.00176 0.45448 0.0
C522 C 0.9419 0.87418 0.47696 0.0
C523 C 0.96659 0.95708 0.46981 0.0
C524 C 0.91204 0.82973 0.47248 0.0
C525 C 0.85641 0.83225 0.46521 0.0
C526 C 0.91732 0.92017 0.47351 0.0
C527 C 0.8226 0.87831 0.46497 0.0
C528 C 0.94361 0.99871 0.46427 0.0
C529 C 0.07395 0.96318 0.46098 0.0
N530 N 0.855 0.92117 0.4687 0.0
N531 N 0.03151 0.94162 0.46822 0.0
H532 H 0.29521 0.87042 0.82447 0.0
H533 H 0.67555 0.82639 0.84065 0.0
H534 H 0.46285 0.95281 0.81192 0.0
H535 H 0.51296 0.73731 0.85222 0.0
H536 H 0.59482 0.88654 0.83409 0.0
H537 H 0.3732 0.82011 0.83484 0.0
C538 C 0.34879 0.87662 0.82349 0.0
C539 C 0.37269 0.91978 0.81859 0.0
C540 C 0.57646 0.85409 0.8382 0.0
C541 C 0.46114 0.8631 0.83022 0.0
C542 C 0.62255 0.82049 0.8423 0.0
C543 C 0.59882 0.77302 0.84489 0.0
C544 C 0.50795 0.84079 0.83804 0.0
C545 C 0.5319 0.77085 0.84861 0.0
C546 C 0.393 0.84914 0.82977 0.0
C547 C 0.44213 0.92284 0.8166 0.0
N548 N 0.48693 0.80216 0.84415 0.0
N549 N 0.48447 0.89681 0.823 0.0
H550 H 0.00935 0.23902 0.85105 0.0
H551 H 0.95792 0.45449 0.80904 0.0
H552 H 0.16963 0.32903 0.83903 0.0
H553 H 0.79478 0.37073 0.82254 0.0
H554 H 0.03757 0.40324 0.81877 0.0
H555 H 0.92766 0.29574 0.84338 0.0
C556 C 0.02766 0.27227 0.84722 0.0
C557 C 0.09478 0.27506 0.8436 0.0
C558 C 0.98422 0.39589 0.8196 0.0
C559 C 1.00439 0.34012 0.83542 0.0
C560 C 0.93866 0.42386 0.8137 0.0
C561 C 0.87009 0.42112 0.81645 0.0
C562 C 0.9594 0.36266 0.82734 0.0
C563 C 0.848 0.37736 0.8213 0.0
C564 C 0.98084 0.30358 0.84249 0.0
C565 C 0.1166 0.32204 0.84038 0.0
N566 N 0.89256 0.35143 0.82731 0.0
N567 N 0.07129 0.35133 0.83538 0.0
H568 H 0.33878 0.57687 0.58824 0.0
H569 H 0.7208 0.62091 0.57273 0.0
H570 H 0.49974 0.48651 0.59987 0.0
H571 H 0.55448 0.70175 0.55948 0.0
H572 H 0.64184 0.56826 0.58233 0.0
H573 H 0.42075 0.63499 0.58116 0.0
C574 C 0.39174 0.57028 0.58977 0.0
C575 C 0.41423 0.52289 0.59262 0.0
C576 C 0.62248 0.59741 0.57727 0.0
C577 C 0.50659 0.58839 0.58514 0.0
C578 C 0.66735 0.62628 0.57142 0.0
C579 C 0.64344 0.67009 0.56681 0.0
C580 C 0.55407 0.61057 0.5774 0.0
C581 C 0.57472 0.6716 0.56416 0.0
C582 C 0.43846 0.60261 0.58536 0.0
C583 C 0.48149 0.5199 0.59612 0.0
N584 N 0.5315 0.64443 0.57016 0.0
N585 N 0.52697 0.55006 0.59138 0.0
H586 H 0.99336 0.99095 0.60419 0.0
H587 H 0.04001 0.20362 0.5614 0.0
H588 H 0.83107 0.07887 0.59229 0.0
H589 H 0.20393 0.11902 0.57444 0.0
H590 H 0.96137 0.1554 0.5721 0.0
H591 H 0.0737 0.04895 0.59661 0.0
C592 C 0.97423 0.02404 0.60042 0.0
C593 C 0.90719 0.02573 0.5967 0.0
C594 C 0.01465 0.14725 0.57261 0.0
C595 C 0.99598 0.09235 0.58866 0.0
C596 C 0.05955 0.17348 0.56617 0.0
C597 C 0.12882 0.16926 0.56825 0.0
C598 C 0.04018 0.11446 0.58037 0.0
C599 C 0.15069 0.12648 0.5735 0.0
C600 C 0.02036 0.05613 0.59574 0.0
C601 C 0.88427 0.07263 0.59363 0.0
N602 N 0.10668 0.10226 0.57999 0.0
N603 N 0.92884 0.10266 0.58863 0.0
H604 H 0.55124 0.05722 0.21372 0.0
H605 H 0.49749 0.27139 0.17158 0.0
H606 H 0.71346 0.14044 0.19973 0.0
H607 H 0.33762 0.18217 0.18398 0.0
H608 H 0.57934 0.21359 0.17875 0.0
H609 H 0.471 0.10694 0.20372 0.0
C610 C 0.57014 0.08739 0.20889 0.0
C611 C 0.63877 0.09054 0.20621 0.0
C612 C 0.5262 0.20609 0.17982 0.0
C613 C 0.54865 0.14715 0.19495 0.0
C614 C 0.47917 0.23807 0.17537 0.0
C615 C 0.41263 0.23579 0.17931 0.0
C616 C 0.50311 0.16951 0.18693 0.0
C617 C 0.39056 0.18873 0.18244 0.0
C618 C 0.52427 0.11446 0.20284 0.0
C619 C 0.66033 0.13359 0.20102 0.0
N620 N 0.4361 0.15881 0.1872 0.0
N621 N 0.61538 0.15864 0.19489 0.0
H622 H 0.84025 0.68313 0.18474 0.0
H623 H 0.22012 0.63908 0.20146 0.0
H624 H 1.00291 0.77359 0.17368 0.0
H625 H 0.05183 0.55761 0.21399 0.0
H626 H 0.14259 0.69102 0.1914 0.0
H627 H 0.92111 0.62424 0.19179 0.0
C628 C 0.89337 0.68959 0.18332 0.0
C629 C 0.91656 0.73711 0.18066 0.0
C630 C 0.1225 0.66187 0.19641 0.0
C631 C 0.0077 0.67079 0.18811 0.0
C632 C 0.1665 0.63343 0.20252 0.0
C633 C 0.14202 0.58983 0.20716 0.0
C634 C 0.05416 0.64845 0.19598 0.0
C635 C 0.07279 0.58774 0.20938 0.0
C636 C 0.93946 0.65678 0.18771 0.0
C637 C 0.98407 0.74002 0.17729 0.0
N638 N 0.03054 0.61457 0.20314 0.0
N639 N 0.02891 0.70941 0.18202 0.0
H640 H 0.67319 0.93416 0.93379 0.0
H641 H 0.29282 0.88943 0.95012 0.0
H642 H 0.51061 0.02366 0.92243 0.0
H643 H 0.46058 0.80746 0.96266 0.0
H644 H 0.37077 0.94081 0.93998 0.0
H645 H 0.59232 0.87457 0.94061 0.0
C646 C 0.62013 0.94026 0.93225 0.0
C647 C 0.59673 0.98769 0.92959 0.0
C648 C 0.39062 0.91167 0.945 0.0
C649 C 0.50562 0.92057 0.93677 0.0
C650 C 0.34639 0.88354 0.95115 0.0
C651 C 0.37048 0.84017 0.95593 0.0
C652 C 0.45886 0.89808 0.94459 0.0
C653 C 0.43981 0.83757 0.95803 0.0
C654 C 0.574 0.90703 0.9365 0.0
C655 C 0.52948 0.99016 0.92606 0.0
N656 N 0.4822 0.86417 0.95175 0.0
N657 N 0.48455 0.95916 0.93066 0.0
H658 H 0.95976 0.30629 0.96468 0.0
H659 H 0.01036 0.52064 0.92238 0.0
H660 H 0.79676 0.39021 0.95129 0.0
H661 H 0.17112 0.43162 0.93445 0.0
H662 H 0.92901 0.46348 0.93 0.0
H663 H 0.03942 0.35676 0.9547 0.0
C664 C 0.94058 0.33681 0.95999 0.0
C665 C 0.87193 0.33967 0.95731 0.0
C666 C 0.98222 0.45593 0.93091 0.0
C667 C 0.96117 0.39734 0.94618 0.0
C668 C 0.0289 0.48749 0.92621 0.0
C669 C 0.09585 0.48523 0.92993 0.0
C670 C 0.00596 0.41961 0.93802 0.0
C671 C 0.11805 0.43828 0.93308 0.0
C672 C 0.9861 0.3643 0.95395 0.0
C673 C 0.84998 0.3834 0.95245 0.0
N674 N 0.07293 0.40872 0.93808 0.0
N675 N 0.89445 0.40889 0.94631 0.0
H676 H 0.51766 0.23479 0.35092 0.0
H677 H 0.45649 0.45465 0.31073 0.0
H678 H 0.67456 0.3282 0.33886 0.0
H679 H 0.29573 0.37365 0.32581 0.0
H680 H 0.53776 0.40273 0.31989 0.0
H681 H 0.43411 0.29338 0.34469 0.0
C682 C 0.53502 0.26915 0.34746 0.0
C683 C 0.60135 0.27314 0.3435 0.0
C684 C 0.48458 0.39618 0.32119 0.0
C685 C 0.50844 0.33981 0.33673 0.0
C686 C 0.43798 0.42453 0.31562 0.0
C687 C 0.37007 0.42238 0.31882 0.0
C688 C 0.4614 0.36341 0.32916 0.0
C689 C 0.34863 0.37954 0.3241 0.0
C690 C 0.48695 0.30166 0.34353 0.0
C691 C 0.62202 0.3208 0.34056 0.0
N692 N 0.39445 0.3532 0.32976 0.0
N693 N 0.57519 0.35114 0.33627 0.0
H694 H 0.80055 0.8704 0.32155 0.0
H695 H 0.17703 0.82981 0.34068 0.0
H696 H 0.96912 0.95448 0.31004 0.0
H697 H 0.01123 0.74407 0.35217 0.0
H698 H 0.09859 0.88767 0.33259 0.0
H699 H 0.87717 0.82004 0.33218 0.0
C700 C 0.85421 0.87698 0.32085 0.0
C701 C 0.87846 0.92109 0.3164 0.0
C702 C 0.07892 0.85638 0.33697 0.0
C703 C 0.96539 0.86413 0.32816 0.0
C704 C 0.12358 0.82423 0.34196 0.0
C705 C 0.09892 0.7775 0.34489 0.0
C706 C 0.01045 0.84303 0.33645 0.0
C707 C 0.03119 0.7764 0.34819 0.0
C708 C 0.89757 0.84947 0.32729 0.0
C709 C 0.94804 0.92409 0.31455 0.0
N710 N 0.98759 0.80622 0.34294 0.0
N711 N 0.98967 0.89819 0.32111 0.0
H712 H 0.50108 0.98978 0.10113 0.0
H713 H 0.5551 0.20334 0.05872 0.0
H714 H 0.34174 0.07959 0.08882 0.0
H715 H 0.71736 0.12032 0.07259 0.0
H716 H 0.47483 0.1522 0.06839 0.0
H717 H 0.58335 0.04586 0.09337 0.0
C718 C 0.48309 0.02289 0.09722 0.0
C719 C 0.41608 0.02566 0.09355 0.0
C720 C 0.52812 0.14499 0.06931 0.0
C721 C 0.50713 0.09001 0.08525 0.0
C722 C 0.57406 0.17286 0.06344 0.0
C723 C 0.64236 0.17052 0.06639 0.0
C724 C 0.5525 0.11209 0.07715 0.0
C725 C 0.6642 0.1268 0.07125 0.0
C726 C 0.53025 0.0538 0.09244 0.0
C727 C 0.39468 0.07253 0.09022 0.0
N728 N 0.61933 0.10095 0.07724 0.0
N729 N 0.44033 0.10141 0.08515 0.0
H730 H 0.83652 0.57605 0.09067 0.0
H731 H 0.21752 0.62021 0.0748 0.0
H732 H 0.99806 0.48609 0.10219 0.0
H733 H 0.05009 0.70143 0.0619 0.0
H734 H 0.13931 0.56963 0.08509 0.0
H735 H 0.91794 0.63599 0.08416 0.0
C736 C 0.88945 0.56991 0.09232 0.0
C737 C 0.91265 0.52231 0.09488 0.0
C738 C 0.1196 0.59845 0.07996 0.0
C739 C 1.00429 0.58977 0.08808 0.0
C740 C 0.16397 0.6261 0.07373 0.0
C741 C 0.14004 0.66909 0.06877 0.0
C742 C 0.05137 0.61206 0.08029 0.0
C743 C 0.07073 0.67164 0.06665 0.0
C744 C 0.93592 0.60337 0.08824 0.0
C745 C 0.97954 0.51976 0.09859 0.0
N746 N 0.02821 0.64549 0.073 0.0
N747 N 0.02488 0.55094 0.09415 0.0
H748 H 0.33424 0.68287 0.68401 0.0
H749 H 0.71553 0.63861 0.69969 0.0
H750 H 0.49565 0.77337 0.67255 0.0
H751 H 0.54825 0.55754 0.71272 0.0
H752 H 0.63717 0.69018 0.68972 0.0
H753 H 0.41579 0.62359 0.6907 0.0
C754 C 0.3872 0.68927 0.68242 0.0
C755 C 0.41019 0.7369 0.67981 0.0
C756 C 0.61751 0.6612 0.69481 0.0
C757 C 0.502 0.67013 0.6868 0.0
C758 C 0.662 0.63296 0.70087 0.0
C759 C 0.63792 0.58962 0.70567 0.0
C760 C 0.54916 0.64781 0.69456 0.0
C761 C 0.56883 0.58751 0.70801 0.0
C762 C 0.43371 0.65621 0.6866 0.0
C763 C 0.47721 0.7397 0.67617 0.0
N764 N 0.52611 0.61416 0.70182 0.0
N765 N 0.52257 0.70889 0.6807 0.0
H766 H 0.99645 0.2699 0.67248 0.0
H767 H 0.05033 0.05664 0.71492 0.0
H768 H 0.83697 0.1801 0.68484 0.0
H769 H 0.21265 0.13994 0.70101 0.0
H770 H 0.97017 0.10664 0.70499 0.0
H771 H 0.07863 0.21323 0.68002 0.0
C772 C 0.97839 0.23669 0.67635 0.0
C773 C 0.91151 0.23397 0.6801 0.0
C774 C 0.02344 0.11414 0.70411 0.0
C775 C 1.00244 0.16899 0.68815 0.0
C776 C 0.0693 0.08692 0.71013 0.0
C777 C 0.13787 0.08987 0.70739 0.0
C778 C 0.04786 0.14689 0.69624 0.0
C779 C 0.1595 0.13316 0.7023 0.0
C780 C 0.02552 0.20539 0.681 0.0
C781 C 0.88991 0.18704 0.68338 0.0
N782 N 0.11461 0.15837 0.69619 0.0
N783 N 0.93556 0.1578 0.68832 0.0
H784 H 0.49497 0.05815 0.44826 0.0
H785 H 0.46489 0.75596 0.44525 0.0
H786 H 0.30464 0.97988 0.44656 0.0
H787 H 0.65508 0.83435 0.44768 0.0
H788 H 0.40657 0.83667 0.44551 0.0
H789 H 0.55327 0.97752 0.4483 0.0
C790 C 0.46498 0.02406 0.44799 0.0
C791 C 0.39403 0.0266 0.44741 0.0
C792 C 0.46102 0.83648 0.44595 0.0
C793 C 0.46217 0.93243 0.44731 0.0
C794 C 0.49486 0.79008 0.44576 0.0
C795 C 0.56578 0.78754 0.44644 0.0
C796 C 0.49758 0.88179 0.44684 0.0
C797 C 0.60072 0.83379 0.44707 0.0
C798 C 0.4988 0.97771 0.44797 0.0
C799 C 0.35903 0.98042 0.44709 0.0
N800 N 0.56641 0.87868 0.44729 0.0
N801 N 0.39331 0.93555 0.44699 0.0
H802 H 0.95631 0.2608 0.44778 0.0
H803 H 0.01181 0.56004 0.44667 0.0
H804 H 0.15251 0.32875 0.44539 0.0
H805 H 0.81553 0.49161 0.44842 0.0
H806 H 0.06329 0.47671 0.44636 0.0
H807 H 0.90484 0.34404 0.44778 0.0
C808 C 0.98896 0.29311 0.44716 0.0
C809 C 0.05953 0.28692 0.44658 0.0
C810 C 0.009 0.47969 0.44685 0.0
C811 C 0.99947 0.38414 0.44671 0.0
C812 C 0.97911 0.52762 0.44708 0.0
C813 C 0.90851 0.53375 0.44761 0.0
C814 C 0.96864 0.43643 0.44713 0.0
C815 C 0.86988 0.48947 0.44808 0.0
C816 C 0.95911 0.34099 0.4472 0.0
C817 C 0.09815 0.331 0.44579 0.0
N818 N 0.90029 0.44305 0.44781 0.0
N819 N 0.06778 0.37742 0.44593 0.0
H820 H 0.50065 0.2015 0.82639 0.0
H821 H 0.45591 0.50237 0.82795 0.0
H822 H 0.30664 0.27423 0.82683 0.0
H823 H 0.64993 0.42963 0.82751 0.0
H824 H 0.4014 0.42009 0.82773 0.0
H825 H 0.55516 0.28376 0.82655 0.0
C826 C 0.46909 0.23468 0.82642 0.0
C827 C 0.39825 0.23013 0.82658 0.0
C828 C 0.45586 0.42188 0.82772 0.0
C829 C 0.46186 0.32613 0.8269 0.0
C830 C 0.48747 0.46918 0.82789 0.0
C831 C 0.55831 0.47374 0.82775 0.0
C832 C 0.4947 0.37772 0.82738 0.0
C833 C 0.59547 0.42862 0.82769 0.0
C834 C 0.5007 0.28198 0.82656 0.0
C835 C 0.36109 0.27524 0.82663 0.0
N836 N 0.56337 0.38282 0.82746 0.0
N837 N 0.39319 0.32103 0.82684 0.0
H838 H 0.80327 0.77288 0.82563 0.0
H839 H 0.15241 0.93153 0.82893 0.0
H840 H 0.99941 0.70472 0.82769 0.0
H841 H 0.95677 0.99988 0.82627 0.0
H842 H 0.09738 0.84846 0.82883 0.0
H843 H 0.85802 0.85612 0.82575 0.0
C844 C 0.85766 0.7751 0.82598 0.0
C845 C 0.89623 0.73101 0.82662 0.0
C846 C 0.06645 0.8817 0.82832 0.0
C847 C 0.9599 0.82708 0.82693 0.0
C848 C 0.09804 0.92938 0.82845 0.0
C849 C 0.05972 0.97347 0.82762 0.0
C850 C 0.9957 0.87754 0.82737 0.0
C851 C 0.98905 0.96746 0.82691 0.0
C852 C 0.88909 0.82286 0.82613 0.0
C853 C 0.96692 0.73712 0.82718 0.0
N854 N 0.95975 0.92091 0.82678 0.0
N855 N 0.99604 0.78372 0.82735 0.0
H856 H 0.54997 0.25113 0.57705 0.0
H857 H 0.50651 0.95042 0.57702 0.0
H858 H 0.35612 0.17804 0.57719 0.0
H859 H 0.70016 0.02396 0.57739 0.0
H860 H 0.45161 0.03237 0.57686 0.0
H861 H 0.60469 0.1692 0.57733 0.0
C862 C 0.51846 0.21794 0.57722 0.0
C863 C 0.4476 0.22232 0.57709 0.0
C864 C 0.50607 0.03083 0.57693 0.0
C865 C 0.51155 0.1266 0.57732 0.0
C866 C 0.53794 0.9837 0.57698 0.0
C867 C 0.60882 0.97943 0.5772 0.0
C868 C 0.54465 0.07514 0.57712 0.0
C869 C 0.64572 0.0247 0.57716 0.0
C870 C 0.55022 0.17082 0.57735 0.0
C871 C 0.41058 0.17718 0.57734 0.0
N872 N 0.61336 0.07031 0.57715 0.0
N873 N 0.44284 0.13153 0.57739 0.0
H874 H 0.0074 0.45198 0.57554 0.0
H875 H 0.05301 0.7534 0.57911 0.0
H876 H 0.20172 0.52456 0.57651 0.0
H877 H 0.85883 0.68059 0.57816 0.0
H878 H 0.10733 0.67095 0.57831 0.0
H879 H 0.95326 0.53444 0.57619 0.0
C880 C 0.03913 0.48518 0.57579 0.0
C881 C 0.10996 0.48045 0.57594 0.0
C882 C 0.05287 0.67275 0.57832 0.0
C883 C 0.04669 0.57679 0.57684 0.0
C884 C 0.02135 0.72016 0.57883 0.0
C885 C 0.9505 0.72481 0.57873 0.0
C886 C 0.01397 0.62852 0.57768 0.0
C887 C 0.91328 0.67956 0.57833 0.0
C888 C 0.00771 0.5326 0.57621 0.0
C889 C 0.14728 0.52565 0.57629 0.0
N890 N 0.9453 0.63369 0.57778 0.0
N891 N 0.11535 0.57156 0.57677 0.0
H892 H 0.55509 0.50821 0.19556 0.0
H893 H 0.50927 0.80907 0.19742 0.0
H894 H 0.36066 0.58041 0.19635 0.0
H895 H 0.70338 0.73653 0.19718 0.0
H896 H 0.45487 0.72669 0.19716 0.0
H897 H 0.60912 0.59065 0.19585 0.0
C898 C 0.52333 0.54132 0.19571 0.0
C899 C 0.45252 0.53656 0.19592 0.0
C900 C 0.50933 0.72856 0.19722 0.0
C901 C 0.51561 0.63278 0.19637 0.0
C902 C 0.54086 0.77591 0.19741 0.0
C903 C 0.6117 0.78054 0.19735 0.0
C904 C 0.54825 0.68445 0.19691 0.0
C905 C 0.64892 0.73547 0.19731 0.0
C906 C 0.55467 0.58872 0.19591 0.0
C907 C 0.4151 0.58159 0.1961 0.0
N908 N 0.6169 0.68964 0.19705 0.0
N909 N 0.44696 0.6275 0.19636 0.0
H910 H 0.20795 0.23707 0.19876 0.0
H911 H 0.85818 0.07916 0.19561 0.0
H912 H 0.012 0.30577 0.19698 0.0
H913 H 0.05349 0.01061 0.19854 0.0
H914 H 0.91352 0.16213 0.19565 0.0
H915 H 0.15285 0.15398 0.1987 0.0
C916 C 0.15353 0.235 0.19848 0.0
C917 C 0.11513 0.2792 0.19791 0.0
C918 C 0.9443 0.12886 0.19624 0.0
C919 C 0.05104 0.18329 0.19766 0.0
C920 C 0.91254 0.08124 0.19614 0.0
C921 C 0.95068 0.03714 0.19706 0.0
C922 C 0.01504 0.13292 0.19725 0.0
C923 C 0.02134 0.04305 0.19783 0.0
C924 C 0.1219 0.18732 0.19837 0.0
C925 C 0.04438 0.27329 0.19744 0.0
N926 N 0.05081 0.08953 0.19793 0.0
N927 N 0.01506 0.22675 0.19729 0.0
H928 H 0.30305 0.48698 0.94821 0.0
H929 H 0.65368 0.33053 0.94549 0.0
H930 H 0.49865 0.55659 0.94655 0.0
H931 H 0.45814 0.26098 0.94738 0.0
H932 H 0.59814 0.41339 0.94563 0.0
H933 H 0.35857 0.40413 0.94813 0.0
C934 C 0.35748 0.48516 0.94796 0.0
C935 C 0.39566 0.52954 0.94742 0.0
C936 C 0.56737 0.37992 0.94597 0.0
C937 C 0.46025 0.4339 0.94715 0.0
C938 C 0.59925 0.33237 0.94582 0.0
C939 C 0.5611 0.28801 0.94641 0.0
C940 C 0.49649 0.38365 0.94671 0.0
C941 C 0.49033 0.29362 0.94692 0.0
C942 C 0.38936 0.43761 0.94783 0.0
C943 C 0.46644 0.52395 0.94698 0.0
N944 N 0.46075 0.34003 0.94708 0.0
N945 N 0.49602 0.47754 0.94683 0.0
H946 H 0.95466 0.75768 0.94617 0.0
H947 H 1.00112 0.05845 0.94731 0.0
H948 H 0.14896 0.83009 0.946 0.0
H949 H 0.80652 0.98637 0.94712 0.0
H950 H 0.05497 0.97605 0.94709 0.0
H951 H 0.90047 0.84003 0.94636 0.0
C952 C 0.98635 0.7908 0.94609 0.0
C953 C 0.05719 0.78612 0.94606 0.0
C954 C 1.00052 0.97799 0.94715 0.0
C955 C 0.99393 0.88225 0.9464 0.0
C956 C 0.96927 0.02539 0.94732 0.0
C957 C 0.89845 0.03021 0.94726 0.0
C958 C 0.96138 0.93395 0.94688 0.0
C959 C 0.86096 0.98519 0.94725 0.0
C960 C 0.95492 0.83815 0.94623 0.0
C961 C 0.0945 0.83117 0.94595 0.0
N962 N 0.89274 0.93928 0.94703 0.0
N963 N 0.06257 0.87701 0.94617 0.0
H964 H 0.3055 0.77554 0.32584 0.0
H965 H 0.65701 0.93098 0.32762 0.0
H966 H 0.5011 0.70576 0.32692 0.0
H967 H 0.46217 1.001 0.32536 0.0
H968 H 0.60079 0.84845 0.32775 0.0
H969 H 0.36128 0.85827 0.32557 0.0
C970 C 0.35996 0.7773 0.32589 0.0
C971 C 0.39811 0.73294 0.32638 0.0
C972 C 0.57031 0.88194 0.32726 0.0
C973 C 0.46294 0.82835 0.32625 0.0
C974 C 0.60257 0.92929 0.32726 0.0
C975 C 0.56481 0.97365 0.32649 0.0
C976 C 0.49944 0.87843 0.3265 0.0
C977 C 0.49402 0.9683 0.32595 0.0
C978 C 0.39198 0.82476 0.32581 0.0
C979 C 0.46893 0.73841 0.32655 0.0
N980 N 0.46403 0.92205 0.32595 0.0
N981 N 0.49862 0.78472 0.32652 0.0
H982 H 0.95812 0.50337 0.32896 0.0
H983 H 0.0069 0.20278 0.32783 0.0
H984 H 0.1532 0.4325 0.32935 0.0
H985 H 0.81217 0.2738 0.32677 0.0
H986 H 0.0604 0.28554 0.32833 0.0
H987 H 0.90487 0.42057 0.32853 0.0
C988 C 0.99019 0.47049 0.32906 0.0
C989 C 0.06097 0.47578 0.32921 0.0
C990 C 0.00601 0.28327 0.32794 0.0
C991 C 0.99876 0.37906 0.32859 0.0
C992 C 0.97498 0.23568 0.32761 0.0
C993 C 0.90421 0.23046 0.32722 0.0
C994 C 0.96666 0.32711 0.32794 0.0
C995 C 0.8666 0.27527 0.32698 0.0
C996 C 0.95929 0.42287 0.32876 0.0
C997 C 0.09875 0.43098 0.32931 0.0
N998 N 0.89813 0.32136 0.32739 0.0
N999 N 0.06733 0.38485 0.32896 0.0
H1000 H 0.55544 0.75253 0.07765 0.0
H1001 H 0.50961 0.45166 0.07661 0.0
H1002 H 0.36124 0.68008 0.07804 0.0
H1003 H 0.704 0.52407 0.07688 0.0
H1004 H 0.45553 0.53401 0.07684 0.0
H1005 H 0.60973 0.67022 0.07749 0.0
C1006 C 0.52379 0.7194 0.07779 0.0
C1007 C 0.45295 0.72408 0.07787 0.0
C1008 C 0.50998 0.53215 0.0768 0.0
C1009 C 0.51633 0.62796 0.07756 0.0
C1010 C 0.54137 0.48478 0.07663 0.0
C1011 C 0.61221 0.48006 0.0767 0.0
C1012 C 0.54899 0.57627 0.07708 0.0
C1013 C 0.64955 0.52516 0.07673 0.0
C1014 C 0.55528 0.67207 0.07766 0.0
C1015 C 0.41571 0.67901 0.07805 0.0
N1016 N 0.61765 0.57103 0.07696 0.0
N1017 N 0.44768 0.63318 0.07784 0.0
H1018 H 0.01007 0.95082 0.07675 0.0
H1019 H 0.05375 0.25189 0.07795 0.0
H1020 H 0.20372 0.02423 0.0768 0.0
H1021 H 0.85981 0.17887 0.07785 0.0
H1022 H 0.10836 0.16976 0.07773 0.0
H1023 H 0.95515 0.0329 0.07693 0.0
C1024 C 0.04148 0.9841 0.0767 0.0
C1025 C 0.11237 0.97976 0.07674 0.0
C1026 C 0.0539 0.17143 0.0778 0.0
C1027 C 0.04822 0.07562 0.07708 0.0
C1028 C 0.0222 0.21867 0.07797 0.0
C1029 C 0.95133 0.22316 0.07792 0.0
C1030 C 0.01517 0.12718 0.07757 0.0
C1031 C 0.91427 0.17795 0.07796 0.0
C1032 C 0.00962 0.03131 0.07685 0.0
C1033 C 0.14926 0.02503 0.07669 0.0
N1034 N 0.94647 0.13219 0.07773 0.0
N1035 N 0.11692 0.07071 0.07691 0.0
H1036 H 0.55136 0.00745 0.69714 0.0
H1037 H 0.50653 0.30791 0.69699 0.0
H1038 H 0.35731 0.07968 0.69635 0.0
H1039 H 0.70054 0.23547 0.69745 0.0
H1040 H 0.45203 0.2257 0.69703 0.0
H1041 H 0.60579 0.08968 0.69713 0.0
C1042 C 0.51977 0.04051 0.69689 0.0
C1043 C 0.44892 0.0358 0.69674 0.0
C1044 C 0.50648 0.22754 0.69717 0.0
C1045 C 0.5125 0.13184 0.69684 0.0
C1046 C 0.5381 0.27482 0.69719 0.0
C1047 C 0.60896 0.27946 0.69723 0.0
C1048 C 0.54531 0.18346 0.69717 0.0
C1049 C 0.64608 0.23443 0.69749 0.0
C1050 C 0.55135 0.0878 0.69692 0.0
C1051 C 0.41177 0.08078 0.6964 0.0
N1052 N 0.61397 0.18865 0.6974 0.0
N1053 N 0.44385 0.12659 0.69651 0.0
H1054 H 0.05154 0.50719 0.69607 0.0
H1055 H 0.00609 0.80812 0.69761 0.0
H1056 H 0.85735 0.57945 0.69588 0.0
H1057 H 0.20026 0.73569 0.69742 0.0
H1058 H 0.95176 0.72571 0.69721 0.0
H1059 H 0.10583 0.58959 0.69637 0.0
C1060 C 0.0199 0.54029 0.696 0.0
C1061 C 0.94906 0.53555 0.69594 0.0
C1062 C 0.00622 0.72759 0.69731 0.0
C1063 C 0.01244 0.63176 0.69642 0.0
C1064 C 0.03773 0.77499 0.69758 0.0
C1065 C 0.10858 0.7797 0.69758 0.0
C1066 C 0.04514 0.68347 0.69699 0.0
C1067 C 0.1458 0.73459 0.69751 0.0
C1068 C 0.05139 0.58768 0.69622 0.0
C1069 C 0.91181 0.58059 0.69586 0.0
N1070 N 0.11379 0.68872 0.69718 0.0
N1071 N 0.94379 0.62647 0.69614 0.0
H1072 H 0.31757 0.19885 0.39369 0.0
H1073 H 0.67502 0.20504 0.36251 0.0
H1074 H 0.49204 0.26655 0.41037 0.0
H1075 H 0.53743 0.0796 0.35871 0.0
H1076 H 0.59769 0.24747 0.37655 0.0
H1077 H 0.38655 0.17713 0.37672 0.0
C1078 C 0.36967 0.21092 0.39361 0.0
C1079 C 0.39938 0.2343 0.40342 0.0
C1080 C 0.58446 0.21083 0.37255 0.0
C1081 C 0.47825 0.20923 0.3842 0.0
C1082 C 0.62841 0.18668 0.36462 0.0
C1083 C 0.61268 0.1386 0.35965 0.0
C1084 C 0.52368 0.18725 0.37519 0.0
C1085 C 0.55159 0.11638 0.36252 0.0
C1086 C 0.40913 0.19794 0.384 0.0
C1087 C 0.46748 0.2483 0.40296 0.0
N1088 N 0.50911 0.14097 0.37006 0.0
N1089 N 0.5049 0.23517 0.39353 0.0
H1090 H 0.00663 0.98301 0.36156 0.0
H1091 H 0.02573 0.17052 0.41342 0.0
H1092 H 0.82233 0.03722 0.37742 0.0
H1093 H 0.15434 0.04013 0.41354 0.0
H1094 H 0.95375 0.12511 0.39921 0.0
H1095 H 0.06607 1.00266 0.37964 0.0
C1096 C 0.97832 0.99742 0.36896 0.0
C1097 C 0.90955 0.00851 0.36803 0.0
C1098 C 0.99721 0.1062 0.40247 0.0
C1099 C 0.97748 0.03293 0.38845 0.0
C1100 C 0.03848 0.13217 0.41047 0.0
C1101 C 0.09604 0.109 0.41455 0.0
C1102 C 0.01488 0.05734 0.39822 0.0
C1103 C 0.11028 0.05915 0.41055 0.0
C1104 C 0.01223 0.00872 0.37924 0.0
C1105 C 0.87524 0.02775 0.37782 0.0
N1106 N 0.07075 0.03521 0.40237 0.0
N1107 N 0.90998 0.0408 0.38754 0.0
H1108 H 0.53825 0.18009 0.91355 0.0
H1109 H 0.50482 0.98679 0.8616 0.0
H1110 H 0.67318 0.05302 0.91102 0.0
H1111 H 0.32782 0.04955 0.87837 0.0
H1112 H 0.57058 0.00962 0.87887 0.0
H1113 H 0.46342 0.13542 0.89966 0.0
C1114 C 0.55207 0.14277 0.91001 0.0
C1115 C 0.612 0.12024 0.9133 0.0
C1116 C 0.51697 0.01704 0.87887 0.0
C1117 C 0.52722 0.06921 0.89739 0.0
C1118 C 0.47941 1.00381 0.86906 0.0
C1119 C 0.4108 0.01618 0.8686 0.0
C1120 C 0.4861 0.04438 0.88809 0.0
C1121 C 0.38042 0.0389 0.87843 0.0
C1122 C 0.50912 0.11712 0.90221 0.0
C1123 C 0.62742 0.0716 0.90861 0.0
N1124 N 0.41866 0.05354 0.88768 0.0
N1125 N 0.58583 0.04793 0.90071 0.0
H1126 H 0.00918 0.27415 0.91288 0.0
H1127 H 0.0346 0.08505 0.86031 0.0
H1128 H 0.82908 0.21723 0.89604 0.0
H1129 H 0.17267 0.21041 0.86283 0.0
H1130 H 0.96129 0.13033 0.87433 0.0
H1131 H 0.07327 0.25219 0.89539 0.0
C1132 C 0.98279 0.25862 0.90537 0.0
C1133 C 0.91374 0.24759 0.90587 0.0
C1134 C 0.0073 0.14816 0.87174 0.0
C1135 C 0.98707 0.2204 0.88611 0.0
C1136 C 0.04936 0.12217 0.86385 0.0
C1137 C 0.10979 0.14398 0.86055 0.0
C1138 C 0.02685 0.19565 0.87662 0.0
C1139 C 0.12649 0.19237 0.86526 0.0
C1140 C 0.01939 0.24591 0.89543 0.0
C1141 C 0.88207 0.2268 0.89597 0.0
N1142 N 0.08581 0.21632 0.87326 0.0
N1143 N 0.91932 0.21255 0.88658 0.0
H1144 H 0.47094 0.92646 0.66391 0.0
H1145 H 0.4972 0.7365 0.61127 0.0
H1146 H 0.33147 0.80201 0.66109 0.0
H1147 H 0.67666 0.79308 0.62837 0.0
H1148 H 0.43203 0.75959 0.62859 0.0
H1149 H 0.54397 0.88121 0.64983 0.0
C1150 C 0.45576 0.88959 0.66027 0.0
C1151 C 0.39508 0.86798 0.66353 0.0
C1152 C 0.48598 0.76558 0.62865 0.0
C1153 C 0.47775 0.81633 0.6474 0.0
C1154 C 0.5232 0.75219 0.61881 0.0
C1155 C 0.59243 0.76275 0.61842 0.0
C1156 C 0.51788 0.79128 0.63799 0.0
C1157 C 0.62356 0.78382 0.62836 0.0
C1158 C 0.49766 0.86361 0.65235 0.0
C1159 C 0.37785 0.8199 0.6587 0.0
N1160 N 0.58575 0.79868 0.63764 0.0
N1161 N 0.41844 0.79594 0.65069 0.0
H1162 H 0.96893 0.833 0.61158 0.0
H1163 H 0.99985 0.02515 0.66386 0.0
H1164 H 0.82911 0.95696 0.61481 0.0
H1165 H 0.1772 0.96542 0.64665 0.0
H1166 H 0.9334 1.00191 0.6467 0.0
H1167 H 0.04317 0.87849 0.62543 0.0
C1168 C 0.95387 0.86977 0.61528 0.0
C1169 C 0.89279 0.8912 0.6122 0.0
C1170 C 0.9872 0.99527 0.64657 0.0
C1171 C 0.97692 0.94321 0.62804 0.0
C1172 C 0.02516 0.00877 0.65632 0.0
C1173 C 0.09408 0.99725 0.65664 0.0
C1174 C 0.01807 0.96857 0.63727 0.0
C1175 C 0.12434 0.97537 0.64672 0.0
C1176 C 0.99647 0.89592 0.62306 0.0
C1177 C 0.87576 0.9392 0.61708 0.0
N1178 N 0.08579 0.96044 0.63753 0.0
N1179 N 0.91713 0.96337 0.62494 0.0
H1180 H 0.68792 0.96624 0.14582 0.0
H1181 H 0.33677 0.96097 0.1127 0.0
H1182 H 0.5064 0.02234 0.16232 0.0
H1183 H 0.47749 0.83745 0.11053 0.0
H1184 H 0.40988 0.00591 0.12707 0.0
H1185 H 0.62257 0.94362 0.12849 0.0
C1186 C 0.63492 0.97576 0.14564 0.0
C1187 C 0.60236 0.99603 0.1555 0.0
C1188 C 0.42477 0.96918 0.12333 0.0
C1189 C 0.5277 0.97004 0.13582 0.0
C1190 C 0.38325 0.94361 0.1152 0.0
C1191 C 0.40097 0.89529 0.11063 0.0
C1192 C 0.4852 0.94678 0.12654 0.0
C1193 C 0.46179 0.87438 0.11403 0.0
C1194 C 0.59761 0.96225 0.13581 0.0
C1195 C 0.53323 0.00664 0.15488 0.0
N1196 N 0.50193 0.90033 0.12175 0.0
N1197 N 0.49794 0.99313 0.14523 0.0
H1198 H 0.83711 0.80055 0.16182 0.0
H1199 H 0.18802 0.7968 0.12868 0.0
H1200 H 0.97623 0.92528 0.16378 0.0
H1201 H 0.00701 0.7393 0.1122 0.0
H1202 H 0.12236 0.81971 0.14595 0.0
H1203 H 0.91051 0.75597 0.14746 0.0
C1204 C 0.8833 0.81826 0.15926 0.0
C1205 C 0.90049 0.8668 0.16379 0.0
C1206 C 0.09759 0.80073 0.13864 0.0
C1207 C 0.98504 0.81573 0.14788 0.0
C1208 C 0.13507 0.78706 0.12885 0.0
C1209 C 0.10274 0.76628 0.11901 0.0
C1210 C 0.02774 0.79256 0.13863 0.0
C1211 C 0.03366 0.7554 0.11963 0.0
C1212 C 0.92497 0.79289 0.15114 0.0
C1213 C 0.96094 0.88817 0.16033 0.0
N1214 N 0.99821 0.76903 0.12925 0.0
N1215 N 1.00125 0.86242 0.15261 0.0
H1216 H 0.53634 0.58175 0.86005 0.0
H1217 H 0.50563 0.77248 0.91269 0.0
H1218 H 0.67515 0.70651 0.86345 0.0
H1219 H 0.32814 0.71158 0.8957 0.0
H1220 H 0.57155 0.74976 0.89544 0.0
H1221 H 0.46204 0.62625 0.87404 0.0
C1222 C 0.55111 0.61854 0.8638 0.0
C1223 C 0.61196 0.64045 0.86073 0.0
C1224 C 0.51783 0.74271 0.89539 0.0
C1225 C 0.5278 0.69128 0.87675 0.0
C1226 C 0.48017 0.75589 0.90519 0.0
C1227 C 0.41134 0.74402 0.90559 0.0
C1228 C 0.48682 0.71594 0.8861 0.0
C1229 C 0.38091 0.72184 0.8957 0.0
C1230 C 0.50849 0.6441 0.87166 0.0
C1231 C 0.62866 0.68839 0.86569 0.0
N1232 N 0.4192 0.70727 0.88645 0.0
N1233 N 0.58731 0.71196 0.87364 0.0
H1234 H 0.03347 0.67486 0.9138 0.0
H1235 H 0.0088 0.48748 0.86077 0.0
H1236 H 0.17325 0.55086 0.91073 0.0
H1237 H 0.82872 0.5433 0.87776 0.0
H1238 H 0.07312 0.50939 0.87825 0.0
H1239 H 0.96034 0.62982 0.8997 0.0
C1240 C 0.04863 0.63809 0.91012 0.0
C1241 C 0.10949 0.61659 0.9133 0.0
C1242 C 0.01921 0.51546 0.87824 0.0
C1243 C 0.02676 0.5652 0.89712 0.0
C1244 C 0.98247 0.50277 0.86831 0.0
C1245 C 0.91334 0.51348 0.86785 0.0
C1246 C 0.98694 0.54062 0.88761 0.0
C1247 C 0.88177 0.53397 0.8778 0.0
C1248 C 0.0067 0.61222 0.90218 0.0
C1249 C 0.12673 0.56865 0.90841 0.0
N1250 N 0.91913 0.54818 0.88718 0.0
N1251 N 0.08613 0.54484 0.90037 0.0
H1252 H 0.51281 0.49351 0.36173 0.0
H1253 H 0.55331 0.68786 0.41415 0.0
H1254 H 0.33963 0.55942 0.37908 0.0
H1255 H 0.69119 0.56297 0.40994 0.0
H1256 H 0.47765 0.64455 0.40018 0.0
H1257 H 0.58213 0.51824 0.37848 0.0
C1258 C 0.48899 0.51168 0.36922 0.0
C1259 C 0.42031 0.52416 0.36906 0.0
C1260 C 0.52431 0.62649 0.40234 0.0
C1261 C 0.49979 0.55465 0.38797 0.0
C1262 C 0.56774 0.6514 0.41019 0.0
C1263 C 0.62861 0.62903 0.41307 0.0
C1264 C 0.54272 0.57944 0.39708 0.0
C1265 C 0.64475 0.58148 0.40785 0.0
C1266 C 0.52863 0.52607 0.37873 0.0
C1267 C 0.39214 0.5485 0.37891 0.0
N1268 N 0.60251 0.5585 0.39994 0.0
N1269 N 0.43232 0.56409 0.38786 0.0
H1270 H 0.8394 0.73089 0.39818 0.0
H1271 H 0.18496 0.7154 0.36354 0.0
H1272 H 0.02572 0.77811 0.41444 0.0
H1273 H 0.04099 0.5939 0.36256 0.0
H1274 H 0.11613 0.7619 0.3783 0.0
H1275 H 0.90211 0.70633 0.38068 0.0
C1276 C 0.89302 0.73822 0.39792 0.0
C1277 C 0.92746 0.7566 0.40777 0.0
C1278 C 0.09957 0.72528 0.37474 0.0
C1279 C 0.99917 0.72834 0.38785 0.0
C1280 C 0.13865 0.69881 0.36638 0.0
C1281 C 0.11883 0.65059 0.36201 0.0
C1282 C 0.03935 0.70393 0.37839 0.0
C1283 C 0.0583 0.63072 0.36586 0.0
C1284 C 0.92879 0.72354 0.38799 0.0
C1285 C 0.99733 0.76414 0.40702 0.0
N1286 N 0.02048 0.65756 0.3738 0.0
N1287 N 0.03107 0.74964 0.39725 0.0
H1288 H 0.47411 0.42585 0.16379 0.0
H1289 H 0.50014 0.23695 0.11086 0.0
H1290 H 0.33334 0.30232 0.16051 0.0
H1291 H 0.67939 0.29393 0.12797 0.0
H1292 H 0.43495 0.25966 0.1282 0.0
H1293 H 0.54729 0.38079 0.1497 0.0
C1294 C 0.45868 0.38921 0.16005 0.0
C1295 C 0.39758 0.36783 0.16318 0.0
C1296 C 0.48887 0.26583 0.12826 0.0
C1297 C 0.48043 0.31638 0.14703 0.0
C1298 C 0.52611 0.25266 0.1184 0.0
C1299 C 0.59527 0.26345 0.11801 0.0
C1300 C 0.52067 0.29153 0.13761 0.0
C1301 C 0.62634 0.28451 0.12795 0.0
C1302 C 0.50066 0.36332 0.15213 0.0
C1303 C 0.38003 0.32004 0.15822 0.0
N1304 N 0.58851 0.29914 0.13725 0.0
N1305 N 0.42073 0.29618 0.15021 0.0
H1306 H 1.00078 0.52088 0.16347 0.0
H1307 H 0.97278 0.33215 0.11059 0.0
H1308 H 0.17967 0.4637 0.14632 0.0
H1309 H 0.83426 0.45695 0.11367 0.0
H1310 H 0.04628 0.37674 0.12471 0.0
H1311 H 0.93539 0.49831 0.14614 0.0
C1312 C 0.02662 0.50512 0.15592 0.0
C1313 C 0.09573 0.49428 0.15629 0.0
C1314 C 1.00008 0.39457 0.12223 0.0
C1315 C 0.02093 0.46638 0.13671 0.0
C1316 C 0.95792 0.36897 0.11429 0.0
C1317 C 0.89736 0.39086 0.11109 0.0
C1318 C 0.98056 0.44176 0.12727 0.0
C1319 C 0.88053 0.43885 0.116 0.0
C1320 C 0.98927 0.49205 0.14607 0.0
C1321 C 0.12666 0.47316 0.14634 0.0
N1322 N 0.92138 0.46245 0.12404 0.0
N1323 N 0.08872 0.45863 0.13705 0.0
H1324 H 0.33423 0.45927 0.61154 0.0
H1325 H 0.68357 0.46187 0.64514 0.0
H1326 H 0.47162 0.33367 0.60978 0.0
H1327 H 0.50224 0.51903 0.66152 0.0
H1328 H 0.61823 0.4389 0.62781 0.0
H1329 H 0.4073 0.5033 0.62605 0.0
C1330 C 0.37999 0.44126 0.61416 0.0
C1331 C 0.39674 0.39262 0.60964 0.0
C1332 C 0.59332 0.45782 0.63511 0.0
C1333 C 0.48097 0.44307 0.62575 0.0
C1334 C 0.63062 0.47152 0.64493 0.0
C1335 C 0.59815 0.49231 0.65476 0.0
C1336 C 0.52349 0.46597 0.63507 0.0
C1337 C 0.52904 0.503 0.6541 0.0
C1338 C 0.42148 0.4663 0.62238 0.0
C1339 C 0.45665 0.37087 0.61321 0.0
N1340 N 0.49379 0.4894 0.64445 0.0
N1341 N 0.49681 0.39632 0.62102 0.0
H1342 H 1.00077 0.23785 0.61068 0.0
H1343 H 0.97365 0.42462 0.66372 0.0
H1344 H 0.18008 0.29568 0.62763 0.0
H1345 H 0.83543 0.29944 0.66058 0.0
H1346 H 0.04758 0.38021 0.64968 0.0
H1347 H 0.93634 0.25883 0.62819 0.0
C1348 C 0.02692 0.25344 0.61822 0.0
C1349 C 0.09581 0.26501 0.61775 0.0
C1350 C 1.00142 0.3622 0.65214 0.0
C1351 C 0.02211 0.29097 0.63754 0.0
C1352 C 0.95902 0.3877 0.66004 0.0
C1353 C 0.89834 0.36571 0.66318 0.0
C1354 C 0.982 0.31503 0.64706 0.0
C1355 C 0.8818 0.3176 0.65829 0.0
C1356 C 0.99013 0.26555 0.62817 0.0
C1357 C 0.1272 0.28575 0.62768 0.0
N1358 N 0.92284 0.29414 0.65027 0.0
N1359 N 0.08975 0.29936 0.63709 0.0
H1360 H 0.195 0.38083 0.52916 0.0
H1361 H 0.32461 0.13231 0.49305 0.0
H1362 H 0.24966 0.24356 0.54425 0.0
H1363 H 0.25911 0.26615 0.47763 0.0
H1364 H 0.30346 0.17432 0.51184 0.0
H1365 H 0.21719 0.33965 0.51031 0.0
C1366 C 0.21019 0.34162 0.52852 0.0
C1367 C 0.22032 0.31578 0.53841 0.0
C1368 C 0.29443 0.19482 0.50437 0.0
C1369 C 0.24792 0.2686 0.51668 0.0
C1370 C 0.30738 0.17104 0.49359 0.0
C1371 C 0.29372 0.19555 0.48364 0.0
C1372 C 0.26738 0.24369 0.50532 0.0
C1373 C 0.27102 0.24572 0.48499 0.0
C1374 C 0.22363 0.31828 0.51772 0.0
C1375 C 0.24052 0.26505 0.53694 0.0
N1376 N 0.25793 0.26785 0.49559 0.0
N1377 N 0.2543 0.2434 0.52632 0.0
H1378 H 0.89296 0.04377 0.54275 0.0
H1379 H 0.1364 0.99056 0.48949 0.0
H1380 H 0.0474 0.92925 0.54088 0.0
H1381 H 0.9824 0.1055 0.49124 0.0
H1382 H 0.10619 0.96926 0.50853 0.0
H1383 H 0.93008 0.07079 0.52446 0.0
C1384 C 0.93527 0.02466 0.53854 0.0
C1385 C 0.96664 0.98371 0.54324 0.0
C1386 C 0.07898 0.99916 0.50477 0.0
C1387 C 0.0087 0.0141 0.52227 0.0
C1388 C 0.09602 0.01131 0.49387 0.0
C1389 C 0.06217 0.05024 0.48881 0.0
C1390 C 0.0277 0.02608 0.51067 0.0
C1391 C 0.00978 0.07528 0.49483 0.0
C1392 C 0.95622 0.04003 0.52808 0.0
C1393 C 0.02171 0.96084 0.53753 0.0
N1394 N 0.99428 0.06288 0.5055 0.0
N1395 N 0.04056 0.97603 0.52724 0.0
H1396 H 0.20156 0.87598 0.74435 0.0
H1397 H 0.30849 0.13174 0.78011 0.0
H1398 H 0.24287 0.01528 0.72902 0.0
H1399 H 0.26402 0.99329 0.79557 0.0
H1400 H 0.28866 0.08887 0.76137 0.0
H1401 H 0.22151 0.91863 0.76312 0.0
C1402 C 0.21343 0.91584 0.74491 0.0
C1403 C 0.22055 0.94188 0.73498 0.0
C1404 C 0.28388 0.06764 0.76883 0.0
C1405 C 0.24534 0.9909 0.75662 0.0
C1406 C 0.29597 0.09199 0.77958 0.0
C1407 C 0.28792 0.06628 0.78953 0.0
C1408 C 0.26327 0.01699 0.76792 0.0
C1409 C 0.2713 0.01476 0.7882 0.0
C1410 C 0.22557 0.94007 0.75567 0.0
C1411 C 0.23635 0.99353 0.73636 0.0
N1412 N 0.25893 0.99204 0.77763 0.0
N1413 N 0.24883 0.01611 0.74694 0.0
H1414 H 0.12657 0.28259 0.78835 0.0
H1415 H 0.88148 0.22683 0.73531 0.0
H1416 H 0.9694 0.16994 0.78721 0.0
H1417 H 0.03844 0.33964 0.73645 0.0
H1418 H 0.91486 0.20417 0.75413 0.0
H1419 H 0.09336 0.30517 0.76951 0.0
C1420 C 0.08455 0.2629 0.78418 0.0
C1421 C 0.05101 0.22397 0.78931 0.0
C1422 C 0.94226 0.2337 0.75026 0.0
C1423 C 0.01337 0.24932 0.76767 0.0
C1424 C 0.92349 0.24654 0.73948 0.0
C1425 C 0.95691 0.28554 0.73435 0.0
C1426 C 0.99474 0.26011 0.75597 0.0
C1427 C 0.01132 0.30937 0.7401 0.0
C1428 C 0.06588 0.2757 0.77339 0.0
C1429 C 0.99661 0.20016 0.78356 0.0
N1430 N 0.02823 0.29652 0.75067 0.0
N1431 N 0.97979 0.21297 0.77298 0.0
H1432 H 0.8073 0.62872 0.49496 0.0
H1433 H 0.7131 0.88693 0.53089 0.0
H1434 H 0.77168 0.76889 0.47968 0.0
H1435 H 0.74428 0.74602 0.54612 0.0
H1436 H 0.73213 0.84407 0.51213 0.0
H1437 H 0.78822 0.67161 0.51374 0.0
C1438 C 0.79685 0.66878 0.49554 0.0
C1439 C 0.79133 0.69508 0.48562 0.0
C1440 C 0.7342 0.82235 0.51955 0.0
C1441 C 0.76766 0.74445 0.50726 0.0
C1442 C 0.72263 0.84673 0.53031 0.0
C1443 C 0.72707 0.82024 0.54021 0.0
C1444 C 0.75071 0.77089 0.51857 0.0
C1445 C 0.73991 0.76815 0.5388 0.0
C1446 C 0.78524 0.69318 0.5063 0.0
C1447 C 0.77724 0.74699 0.48702 0.0
N1448 N 0.75185 0.74538 0.52822 0.0
N1449 N 0.76539 0.76977 0.49759 0.0
H1450 H 0.70074 0.87874 0.24411 0.0
H1451 H 0.81427 0.13347 0.2796 0.0
H1452 H 0.74558 0.01692 0.22856 0.0
H1453 H 0.77247 0.99443 0.29501 0.0
H1454 H 0.79227 0.09101 0.26088 0.0
H1455 H 0.72273 0.92139 0.2628 0.0
C1456 C 0.71374 0.9184 0.24461 0.0
C1457 C 0.72135 0.94407 0.23464 0.0
C1458 C 0.78858 0.06958 0.26833 0.0
C1459 C 0.74853 0.99307 0.25618 0.0
C1460 C 0.80194 0.09368 0.27906 0.0
C1461 C 0.79519 0.06769 0.28899 0.0
C1462 C 0.76797 0.01893 0.26743 0.0
C1463 C 0.77872 0.01615 0.28765 0.0
C1464 C 0.72711 0.94261 0.25532 0.0
C1465 C 0.73864 0.99547 0.23594 0.0
N1466 N 0.76504 0.9937 0.27711 0.0
N1467 N 0.75227 0.01805 0.24647 0.0
H1468 H 0.11806 0.78695 0.29012 0.0
H1469 H 0.87902 0.72835 0.23638 0.0
H1470 H 0.96739 0.66944 0.28829 0.0
H1471 H 0.03672 0.8406 0.23779 0.0
H1472 H 0.91019 0.7063 0.25537 0.0
H1473 H 0.08473 0.80968 0.2713 0.0
C1474 C 0.07736 0.76625 0.2858 0.0
C1475 C 0.04583 0.72588 0.29072 0.0
C1476 C 0.93823 0.73555 0.25151 0.0
C1477 C 0.00809 0.75136 0.26909 0.0
C1478 C 0.92073 0.74804 0.24064 0.0
C1479 C 0.95508 0.78668 0.23553 0.0
C1480 C 0.99031 0.76197 0.25734 0.0
C1481 C 0.00895 0.81058 0.24141 0.0
C1482 C 0.05864 0.77911 0.27502 0.0
C1483 C 0.99299 0.7008 0.2848 0.0
N1484 N 0.02459 0.79807 0.25206 0.0
N1485 N 0.97612 0.71369 0.27422 0.0
H1486 H 0.24065 0.74186 0.04591 0.0
H1487 H 0.26786 0.76777 0.97836 0.0
H1488 H 0.208 0.88106 0.03004 0.0
H1489 H 0.29899 0.62826 0.99418 0.0
H1490 H 0.24956 0.81049 0.99726 0.0
H1491 H 0.25879 0.69904 0.02701 0.0
C1492 C 0.23566 0.76327 0.03847 0.0
C1493 C 0.22282 0.81537 0.03966 0.0
C1494 C 0.26103 0.7706 0.9966 0.0
C1495 C 0.24565 0.76663 0.01792 0.0
C1496 C 0.27247 0.74626 0.98579 0.0
C1497 C 0.28495 0.69412 0.98459 0.0
C1498 C 0.26197 0.74275 1.00633 0.0
C1499 C 0.28939 0.6684 0.99461 0.0
C1500 C 0.247 0.73888 0.02766 0.0
C1501 C 0.2179 0.84095 0.02962 0.0
N1502 N 0.2774 0.69278 1.00499 0.0
N1503 N 0.22985 0.81654 0.01925 0.0
H1504 H 0.96388 0.58901 0.98616 0.0
H1505 H 0.04562 0.42178 0.03827 0.0
H1506 H 0.12511 0.48004 0.98605 0.0
H1507 H 0.8841 0.53051 0.03837 0.0
H1508 H 0.07767 0.44439 0.01927 0.0
H1509 H 0.93188 0.56653 1.00518 0.0
C1510 C 0.99187 0.55986 0.99005 0.0
C1511 C 0.04756 0.5367 0.98456 0.0
C1512 C 0.03544 0.46346 0.02349 0.0
C1513 C 0.01219 0.51153 1.00634 0.0
C1514 C 0.01758 0.45091 0.03438 0.0
C1515 C 0.96179 0.47395 0.03987 0.0
C1516 C 0.99722 0.49927 0.0181 0.0
C1517 C 0.92706 0.51135 0.03441 0.0
C1518 C 0.97404 0.54738 1.00095 0.0
C1519 C 0.08223 0.49929 0.99002 0.0
N1520 N 0.94508 0.52259 0.02379 0.0
N1521 N 0.06425 0.48812 1.00065 0.0
H1522 H 0.30538 0.63363 0.28061 0.0
H1523 H 0.21066 0.37606 0.2444 0.0
H1524 H 0.26302 0.49452 0.29593 0.0
H1525 H 0.24858 0.51628 0.22925 0.0
H1526 H 0.22746 0.41889 0.26325 0.0
H1527 H 0.28875 0.59049 0.2618 0.0
C1528 C 0.29387 0.59371 0.28004 0.0
C1529 C 0.28562 0.56787 0.28998 0.0
C1530 C 0.23149 0.44048 0.25583 0.0
C1531 C 0.26477 0.51817 0.26826 0.0
C1532 C 0.22121 0.41612 0.24501 0.0
C1533 C 0.22813 0.44241 0.23511 0.0
C1534 C 0.24922 0.49173 0.25687 0.0
C1535 C 0.24222 0.49432 0.23657 0.0
C1536 C 0.28368 0.56918 0.26925 0.0
C1537 C 0.27042 0.51612 0.28858 0.0
N1538 N 0.25285 0.51706 0.2472 0.0
N1539 N 0.25994 0.49318 0.27796 0.0
H1540 H 0.77452 0.26785 0.97835 0.0
H1541 H 0.73772 0.24267 0.04578 0.0
H1542 H 0.79734 0.12767 0.99426 0.0
H1543 H 0.71468 0.38279 0.02986 0.0
H1544 H 0.75625 0.19945 0.02695 0.0
H1545 H 0.75613 0.31106 0.99719 0.0
C1546 C 0.77724 0.24624 0.98579 0.0
C1547 C 0.78744 0.19381 0.98462 0.0
C1548 C 0.74652 0.2396 0.02757 0.0
C1549 C 0.76437 0.24308 1.0063 0.0
C1550 C 0.73499 0.26426 0.03834 0.0
C1551 C 0.72467 0.31668 0.03951 0.0
C1552 C 0.7479 0.2674 0.01784 0.0
C1553 C 0.72254 0.34244 0.02947 0.0
C1554 C 0.76579 0.2709 0.99657 0.0
C1555 C 0.78956 0.16803 0.99466 0.0
N1556 N 0.7346 0.31773 0.01913 0.0
N1557 N 0.77758 0.19274 1.005 0.0
H1558 H 0.77071 0.49333 0.79531 0.0
H1559 H 0.73571 0.51797 0.72782 0.0
H1560 H 0.79269 0.63374 0.77946 0.0
H1561 H 0.70797 0.37871 0.74391 0.0
H1562 H 0.7541 0.56149 0.74664 0.0
H1563 H 0.75197 0.45024 0.77647 0.0
C1564 C 0.77314 0.51502 0.78788 0.0
C1565 C 0.78328 0.56747 0.78907 0.0
C1566 C 0.74333 0.52148 0.74605 0.0
C1567 C 0.75987 0.51831 0.76738 0.0
C1568 C 0.73188 0.49666 0.73529 0.0
C1569 C 0.7203 0.44436 0.73418 0.0
C1570 C 0.74342 0.49395 0.75583 0.0
C1571 C 0.71685 0.41895 0.74426 0.0
C1572 C 0.7615 0.49043 0.7771 0.0
C1573 C 0.78501 0.59336 0.77904 0.0
N1574 N 0.7289 0.44378 0.75459 0.0
N1575 N 0.77292 0.56869 0.76869 0.0
H1576 H 0.46443 0.08844 0.98563 0.0
H1577 H 0.545 0.92149 0.03781 0.0
H1578 H 0.62681 0.98047 0.98577 0.0
H1579 H 0.38146 0.02843 0.03757 0.0
H1580 H 0.57765 0.9442 0.01884 0.0
H1581 H 0.43118 0.06529 1.00453 0.0
C1582 C 0.49244 0.05937 0.98955 0.0
C1583 C 0.54881 0.03671 0.98417 0.0
C1584 C 0.53481 0.96284 0.02298 0.0
C1585 C 0.51196 0.01076 1.00581 0.0
C1586 C 0.51658 0.95022 0.03384 0.0
C1587 C 0.46013 0.97277 0.03922 0.0
C1588 C 0.4963 0.99824 0.01751 0.0
C1589 C 0.42495 0.00967 0.03368 0.0
C1590 C 0.47386 0.0465 1.00038 0.0
C1591 C 0.58343 0.99936 0.98966 0.0
N1592 N 0.44338 0.02102 0.02309 0.0
N1593 N 0.56471 0.98781 1.00022 0.0
H1594 H 0.47309 0.17466 0.28758 0.0
H1595 H 0.55314 0.33808 0.23481 0.0
H1596 H 0.64099 0.27775 0.28662 0.0
H1597 H 0.39238 0.22869 0.23531 0.0
H1598 H 0.58798 0.31548 0.25369 0.0
H1599 H 0.4406 0.19639 0.26857 0.0
C1600 C 0.50257 0.20235 0.28345 0.0
C1601 C 0.5601 0.22411 0.28865 0.0
C1602 C 0.54537 0.29623 0.24961 0.0
C1603 C 0.52401 0.24845 0.26687 0.0
C1604 C 0.52588 0.30878 0.2388 0.0
C1605 C 0.46937 0.28563 0.23355 0.0
C1606 C 0.50797 0.26036 0.25514 0.0
C1607 C 0.43576 0.24799 0.23911 0.0
C1608 C 0.48441 0.21439 0.27255 0.0
C1609 C 0.59656 0.25968 0.28289 0.0
N1610 N 0.45526 0.23683 0.24965 0.0
N1611 N 0.57809 0.27053 0.27226 0.0
H1612 H 0.61958 0.78625 0.78943 0.0
H1613 H 0.38074 0.72583 0.73574 0.0
H1614 H 0.46623 0.67069 0.78794 0.0
H1615 H 0.53669 0.83943 0.73707 0.0
H1616 H 0.41208 0.70454 0.75478 0.0
H1617 H 0.58672 0.8084 0.77054 0.0
C1618 C 0.57838 0.76589 0.78518 0.0
C1619 C 0.54597 0.72618 0.79021 0.0
C1620 C 0.43973 0.73392 0.75089 0.0
C1621 C 0.50885 0.75094 0.7685 0.0
C1622 C 0.42216 0.74594 0.73999 0.0
C1623 C 0.45589 0.78477 0.73485 0.0
C1624 C 0.49129 0.76099 0.75671 0.0
C1625 C 0.50942 0.80922 0.74071 0.0
C1626 C 0.55994 0.7784 0.77436 0.0
C1627 C 0.49256 0.70151 0.78436 0.0
N1628 N 0.52515 0.79717 0.75139 0.0
N1629 N 0.47603 0.71401 0.77374 0.0
H1630 H 0.54484 0.42068 0.53714 0.0
H1631 H 0.46785 0.58348 0.4841 0.0
H1632 H 0.37696 0.52324 0.53568 0.0
H1633 H 0.63529 0.48053 0.48555 0.0
H1634 H 0.43122 0.5596 0.50277 0.0
H1635 H 0.57971 0.44298 0.51826 0.0
C1636 C 0.51581 0.44831 0.53292 0.0
C1637 C 0.45768 0.46985 0.53796 0.0
C1638 C 0.47575 0.54205 0.49896 0.0
C1639 C 0.49654 0.49488 0.51633 0.0
C1640 C 0.49631 0.55534 0.48826 0.0
C1641 C 0.55501 0.53432 0.48331 0.0
C1642 C 0.51422 0.50755 0.5047 0.0
C1643 C 0.59008 0.49813 0.48909 0.0
C1644 C 0.53538 0.46072 0.52211 0.0
C1645 C 0.42184 0.50534 0.53208 0.0
N1646 N 0.56939 0.48617 0.49952 0.0
N1647 N 0.44167 0.51654 0.52155 0.0
loop_
_geom_bond_atom_site_label_1
_geom_bond_atom_site_label_2
_geom_bond_distance
_geom_bond_site_symmetry_2
_ccdc_geom_bond_type
C0 O12 1.241 . S
C0 O13 1.280 . S
C1 O14 1.277 . S
C1 O15 1.245 . S
C2 O26 1.247 . S
C2 O28 1.289 . S
Mg3 O4 1.926 . S
Mg3 O13 1.984 . S
Mg3 O15 1.988 . S
Mg3 O16 2.061 . S
O4 Mg3 1.926 . S
O4 Mg5 1.986 . S
O4 Mg6 1.917 . S
Mg5 O4 1.986 . S
Mg5 O12 2.042 . S
Mg5 O14 2.042 . S
Mg5 O20 2.038 . S
Mg5 O28 2.238 . S
Mg6 O4 1.917 . S
Mg6 O7 1.917 . S
Mg6 O17 2.106 . S
Mg6 O19 2.079 . S
Mg6 O28 2.106 . S
Mg6 O29 2.079 . S
O7 Mg6 1.917 . S
O7 Mg8 1.926 . S
O7 Mg9 1.986 . S
Mg8 O7 1.926 . S
Mg8 O22 1.984 . S
Mg8 O25 1.988 . S
Mg8 O26 2.061 . S
Mg9 O7 1.986 . S
Mg9 O17 2.238 . S
Mg9 O21 2.042 . S
Mg9 O23 2.041 . S
Mg9 O30 2.038 . S
C10 O16 1.247 . S
C10 O17 1.289 . S
C11 O29 1.245 . S
C11 O30 1.274 . S
O12 C0 1.241 . S
O12 Mg5 2.042 . S
O13 C0 1.280 . S
O13 Mg3 1.984 . S
O14 C1 1.277 . S
O14 Mg5 2.042 . S
O15 C1 1.245 . S
O15 Mg3 1.988 . S
O16 Mg3 2.061 . S
O16 C10 1.247 . S
O17 Mg6 2.106 . S
O17 Mg9 2.238 . S
O17 C10 1.289 . S
C18 O19 1.245 . S
C18 O20 1.274 . S
O19 Mg6 2.079 . S
O19 C18 1.245 . S
O20 Mg5 2.038 . S
O20 C18 1.274 . S
O21 Mg9 2.042 . S
O21 C24 1.241 . S
O22 Mg8 1.984 . S
O22 C24 1.280 . S
O23 Mg9 2.041 . S
O23 C27 1.277 . S
C24 O21 1.241 . S
C24 O22 1.280 . S
O25 Mg8 1.988 . S
O25 C27 1.245 . S
O26 C2 1.247 . S
O26 Mg8 2.061 . S
C27 O23 1.277 . S
C27 O25 1.245 . S
O28 C2 1.289 . S
O28 Mg5 2.238 . S
O28 Mg6 2.106 . S
O29 Mg6 2.079 . S
O29 C11 1.245 . S
O30 Mg9 2.038 . S
O30 C11 1.274 . S
C31 O43 1.241 . S
C31 O44 1.280 . S
C32 O45 1.277 . S
C32 O46 1.245 . S
C33 O57 1.247 . S
C33 O59 1.289 . S
Mg34 O35 1.926 . S
Mg34 O44 1.984 . S
Mg34 O46 1.988 . S
Mg34 O47 2.061 . S
O35 Mg34 1.926 . S
O35 Mg36 1.986 . S
O35 Mg37 1.917 . S
Mg36 O35 1.986 . S
Mg36 O43 2.042 . S
Mg36 O45 2.041 . S
Mg36 O51 2.038 . S
Mg36 O59 2.238 . S
Mg37 O35 1.917 . S
Mg37 O38 1.917 . S
Mg37 O48 2.106 . S
Mg37 O50 2.079 . S
Mg37 O59 2.106 . S
Mg37 O60 2.079 . S
O38 Mg37 1.917 . S
O38 Mg39 1.926 . S
O38 Mg40 1.986 . S
Mg39 O38 1.926 . S
Mg39 O53 1.984 . S
Mg39 O56 1.988 . S
Mg39 O57 2.061 . S
Mg40 O38 1.986 . S
Mg40 O48 2.238 . S
Mg40 O52 2.042 . S
Mg40 O54 2.041 1_545 S
Mg40 O61 2.038 . S
C41 O47 1.247 . S
C41 O48 1.289 . S
C42 O60 1.245 . S
C42 O61 1.274 . S
O43 C31 1.241 . S
O43 Mg36 2.042 . S
O44 C31 1.280 . S
O44 Mg34 1.984 . S
O45 C32 1.277 . S
O45 Mg36 2.041 . S
O46 C32 1.245 . S
O46 Mg34 1.988 . S
O47 Mg34 2.061 . S
O47 C41 1.247 . S
O48 Mg37 2.106 . S
O48 Mg40 2.238 . S
O48 C41 1.289 . S
C49 O50 1.245 . S
C49 O51 1.274 . S
O50 Mg37 2.079 . S
O50 C49 1.245 . S
O51 Mg36 2.038 . S
O51 C49 1.274 . S
O52 Mg40 2.042 . S
O52 C55 1.241 . S
O53 Mg39 1.984 . S
O53 C55 1.280 . S
O54 Mg40 2.041 1_565 S
O54 C58 1.277 . S
C55 O52 1.241 . S
C55 O53 1.280 . S
O56 Mg39 1.988 . S
O56 C58 1.245 1_545 S
O57 C33 1.247 . S
O57 Mg39 2.061 . S
C58 O54 1.277 . S
C58 O56 1.245 1_565 S
O59 C33 1.289 . S
O59 Mg36 2.238 . S
O59 Mg37 2.106 . S
O60 Mg37 2.079 . S
O60 C42 1.245 . S
O61 Mg40 2.038 . S
O61 C42 1.274 . S
C62 O74 1.241 . S
C62 O75 1.280 . S
C63 O76 1.277 . S
C63 O77 1.245 . S
C64 O88 1.247 . S
C64 O90 1.289 . S
Mg65 O66 1.926 . S
Mg65 O75 1.984 . S
Mg65 O77 1.988 . S
Mg65 O78 2.061 . S
O66 Mg65 1.926 . S
O66 Mg67 1.986 . S
O66 Mg68 1.917 . S
Mg67 O66 1.986 . S
Mg67 O74 2.042 . S
Mg67 O76 2.041 . S
Mg67 O82 2.038 . S
Mg67 O90 2.238 . S
Mg68 O66 1.917 . S
Mg68 O69 1.917 . S
Mg68 O79 2.106 . S
Mg68 O81 2.079 . S
Mg68 O90 2.106 . S
Mg68 O91 2.079 . S
O69 Mg68 1.917 . S
O69 Mg70 1.926 . S
O69 Mg71 1.986 . S
Mg70 O69 1.926 . S
Mg70 O84 1.984 . S
Mg70 O87 1.988 . S
Mg70 O88 2.061 . S
Mg71 O69 1.986 . S
Mg71 O79 2.238 . S
Mg71 O83 2.042 . S
Mg71 O85 2.042 . S
Mg71 O92 2.038 . S
C72 O78 1.247 . S
C72 O79 1.289 . S
C73 O91 1.245 . S
C73 O92 1.274 . S
O74 C62 1.241 . S
O74 Mg67 2.042 . S
O75 C62 1.280 . S
O75 Mg65 1.984 . S
O76 C63 1.277 . S
O76 Mg67 2.041 . S
O77 C63 1.245 . S
O77 Mg65 1.988 . S
O78 Mg65 2.061 . S
O78 C72 1.247 . S
O79 Mg68 2.106 . S
O79 Mg71 2.238 . S
O79 C72 1.289 . S
C80 O81 1.245 . S
C80 O82 1.274 . S
O81 Mg68 2.079 . S
O81 C80 1.245 . S
O82 Mg67 2.038 . S
O82 C80 1.274 . S
O83 Mg71 2.042 . S
O83 C86 1.241 . S
O84 Mg70 1.984 . S
O84 C86 1.280 . S
O85 Mg71 2.042 . S
O85 C89 1.277 . S
C86 O83 1.241 . S
C86 O84 1.280 . S
O87 Mg70 1.988 . S
O87 C89 1.245 . S
O88 C64 1.247 . S
O88 Mg70 2.061 . S
C89 O85 1.277 . S
C89 O87 1.245 . S
O90 C64 1.289 . S
O90 Mg67 2.238 . S
O90 Mg68 2.106 . S
O91 Mg68 2.079 . S
O91 C73 1.245 . S
O92 Mg71 2.038 . S
O92 C73 1.274 . S
C93 O105 1.241 . S
C93 O106 1.280 . S
C94 O107 1.277 . S
C94 O108 1.245 1_545 S
C95 O119 1.247 . S
C95 O121 1.289 . S
Mg96 O97 1.926 . S
Mg96 O106 1.984 . S
Mg96 O108 1.988 . S
Mg96 O109 2.061 . S
O97 Mg96 1.926 . S
O97 Mg98 1.986 . S
O97 Mg99 1.917 . S
Mg98 O97 1.986 . S
Mg98 O105 2.042 . S
Mg98 O107 2.041 1_565 S
Mg98 O113 2.038 . S
Mg98 O121 2.238 . S
Mg99 O97 1.917 . S
Mg99 O100 1.917 . S
Mg99 O110 2.106 . S
Mg99 O112 2.079 . S
Mg99 O121 2.106 . S
Mg99 O122 2.079 . S
O100 Mg99 1.917 . S
O100 Mg101 1.926 . S
O100 Mg102 1.986 . S
Mg101 O100 1.926 . S
Mg101 O115 1.984 . S
Mg101 O118 1.988 . S
Mg101 O119 2.061 . S
Mg102 O100 1.986 . S
Mg102 O110 2.238 . S
Mg102 O114 2.042 . S
Mg102 O116 2.041 . S
Mg102 O123 2.038 . S
C103 O109 1.247 . S
C103 O110 1.289 . S
C104 O122 1.245 . S
C104 O123 1.274 . S
O105 C93 1.241 . S
O105 Mg98 2.042 . S
O106 C93 1.280 . S
O106 Mg96 1.984 . S
O107 C94 1.277 . S
O107 Mg98 2.041 1_545 S
O108 C94 1.245 1_565 S
O108 Mg96 1.988 . S
O109 Mg96 2.061 . S
O109 C103 1.247 . S
O110 Mg99 2.106 . S
O110 Mg102 2.238 . S
O110 C103 1.289 . S
C111 O112 1.245 . S
C111 O113 1.274 . S
O112 Mg99 2.079 . S
O112 C111 1.245 . S
O113 Mg98 2.038 . S
O113 C111 1.274 . S
O114 Mg102 2.042 . S
O114 C117 1.241 . S
O115 Mg101 1.984 . S
O115 C117 1.280 . S
O116 Mg102 2.041 . S
O116 C120 1.277 . S
C117 O114 1.241 . S
C117 O115 1.280 . S
O118 Mg101 1.988 . S
O118 C120 1.245 . S
O119 C95 1.247 . S
O119 Mg101 2.061 . S
C120 O116 1.277 . S
C120 O118 1.245 . S
O121 C95 1.289 . S
O121 Mg98 2.238 . S
O121 Mg99 2.106 . S
O122 Mg99 2.079 . S
O122 C104 1.245 . S
O123 Mg102 2.038 . S
O123 C104 1.274 . S
C124 O136 1.241 . S
C124 O137 1.280 . S
C125 O138 1.277 . S
C125 O139 1.245 . S
C126 O150 1.247 . S
C126 O152 1.289 . S
Mg127 O128 1.926 . S
Mg127 O137 1.984 . S
Mg127 O139 1.988 . S
Mg127 O140 2.061 . S
O128 Mg127 1.926 . S
O128 Mg129 1.986 . S
O128 Mg130 1.917 . S
Mg129 O128 1.986 . S
Mg129 O136 2.042 . S
Mg129 O138 2.041 . S
Mg129 O144 2.038 . S
Mg129 O152 2.238 . S
Mg130 O128 1.917 . S
Mg130 O131 1.917 . S
Mg130 O141 2.106 . S
Mg130 O143 2.079 . S
Mg130 O152 2.106 . S
Mg130 O153 2.079 . S
O131 Mg130 1.917 . S
O131 Mg132 1.926 . S
O131 Mg133 1.986 . S
Mg132 O131 1.926 . S
Mg132 O146 1.984 . S
Mg132 O149 1.988 . S
Mg132 O150 2.061 . S
Mg133 O131 1.986 . S
Mg133 O141 2.238 . S
Mg133 O145 2.042 . S
Mg133 O147 2.041 . S
Mg133 O154 2.038 . S
C134 O140 1.247 . S
C134 O141 1.289 . S
C135 O153 1.245 . S
C135 O154 1.274 . S
O136 C124 1.241 . S
O136 Mg129 2.042 . S
O137 C124 1.280 . S
O137 Mg127 1.984 . S
O138 C125 1.277 . S
O138 Mg129 2.041 . S
O139 C125 1.245 . S
O139 Mg127 1.988 . S
O140 Mg127 2.061 . S
O140 C134 1.247 . S
O141 Mg130 2.106 . S
O141 Mg133 2.238 . S
O141 C134 1.289 . S
C142 O143 1.245 . S
C142 O144 1.274 . S
O143 Mg130 2.079 . S
O143 C142 1.245 . S
O144 Mg129 2.038 . S
O144 C142 1.274 . S
O145 Mg133 2.042 . S
O145 C148 1.241 . S
O146 Mg132 1.984 . S
O146 C148 1.280 . S
O147 Mg133 2.041 . S
O147 C151 1.277 . S
C148 O145 1.241 . S
C148 O146 1.280 . S
O149 Mg132 1.988 . S
O149 C151 1.245 . S
O150 C126 1.247 . S
O150 Mg132 2.061 . S
C151 O147 1.277 . S
C151 O149 1.245 . S
O152 C126 1.289 . S
O152 Mg129 2.238 . S
O152 Mg130 2.106 . S
O153 Mg130 2.079 . S
O153 C135 1.245 . S
O154 Mg133 2.038 . S
O154 C135 1.274 . S
C155 O167 1.241 . S
C155 O168 1.280 . S
C156 O169 1.277 . S
C156 O170 1.245 . S
C157 O181 1.247 . S
C157 O183 1.289 . S
Mg158 O159 1.926 . S
Mg158 O168 1.984 . S
Mg158 O170 1.988 . S
Mg158 O171 2.061 . S
O159 Mg158 1.926 . S
O159 Mg160 1.986 . S
O159 Mg161 1.917 . S
Mg160 O159 1.986 . S
Mg160 O167 2.042 . S
Mg160 O169 2.041 . S
Mg160 O175 2.038 . S
Mg160 O183 2.238 . S
Mg161 O159 1.917 . S
Mg161 O162 1.917 . S
Mg161 O172 2.106 . S
Mg161 O174 2.079 . S
Mg161 O183 2.106 . S
Mg161 O184 2.079 . S
O162 Mg161 1.917 . S
O162 Mg163 1.926 . S
O162 Mg164 1.986 . S
Mg163 O162 1.926 . S
Mg163 O177 1.984 . S
Mg163 O180 1.988 . S
Mg163 O181 2.061 . S
Mg164 O162 1.986 . S
Mg164 O172 2.238 . S
Mg164 O176 2.042 . S
Mg164 O178 2.041 . S
Mg164 O185 2.038 . S
C165 O171 1.247 . S
C165 O172 1.289 . S
C166 O184 1.245 . S
C166 O185 1.274 . S
O167 C155 1.241 . S
O167 Mg160 2.042 . S
O168 C155 1.280 . S
O168 Mg158 1.984 . S
O169 C156 1.277 . S
O169 Mg160 2.041 . S
O170 C156 1.245 . S
O170 Mg158 1.988 . S
O171 Mg158 2.061 . S
O171 C165 1.247 . S
O172 Mg161 2.106 . S
O172 Mg164 2.238 . S
O172 C165 1.289 . S
C173 O174 1.245 . S
C173 O175 1.274 . S
O174 Mg161 2.079 . S
O174 C173 1.245 . S
O175 Mg160 2.038 . S
O175 C173 1.274 . S
O176 Mg164 2.042 . S
O176 C179 1.241 . S
O177 Mg163 1.984 . S
O177 C179 1.280 . S
O178 Mg164 2.041 . S
O178 C182 1.277 . S
C179 O176 1.241 . S
C179 O177 1.280 . S
O180 Mg163 1.988 . S
O180 C182 1.245 . S
O181 C157 1.247 . S
O181 Mg163 2.061 . S
C182 O178 1.277 . S
C182 O180 1.245 . S
O183 C157 1.289 . S
O183 Mg160 2.238 . S
O183 Mg161 2.106 . S
O184 Mg161 2.079 . S
O184 C166 1.245 . S
O185 Mg164 2.038 . S
O185 C166 1.274 . S
C186 O198 1.241 . S
C186 O199 1.280 . S
C187 O200 1.277 . S
C187 O201 1.245 . S
C188 O212 1.247 . S
C188 O214 1.289 . S
Mg189 O190 1.926 . S
Mg189 O199 1.984 . S
Mg189 O201 1.988 . S
Mg189 O202 2.061 . S
O190 Mg189 1.926 . S
O190 Mg191 1.986 . S
O190 Mg192 1.917 . S
Mg191 O190 1.986 . S
Mg191 O198 2.042 . S
Mg191 O200 2.041 . S
Mg191 O206 2.038 . S
Mg191 O214 2.238 . S
Mg192 O190 1.917 . S
Mg192 O193 1.917 . S
Mg192 O203 2.106 . S
Mg192 O205 2.079 . S
Mg192 O214 2.106 . S
Mg192 O215 2.079 . S
O193 Mg192 1.917 . S
O193 Mg194 1.926 . S
O193 Mg195 1.986 . S
Mg194 O193 1.926 . S
Mg194 O208 1.984 . S
Mg194 O211 1.988 . S
Mg194 O212 2.061 . S
Mg195 O193 1.986 . S
Mg195 O203 2.238 . S
Mg195 O207 2.042 . S
Mg195 O209 2.041 . S
Mg195 O216 2.038 . S
C196 O202 1.247 . S
C196 O203 1.289 . S
C197 O215 1.245 . S
C197 O216 1.274 . S
O198 C186 1.241 . S
O198 Mg191 2.042 . S
O199 C186 1.280 . S
O199 Mg189 1.984 . S
O200 C187 1.277 . S
O200 Mg191 2.041 . S
O201 C187 1.245 . S
O201 Mg189 1.988 . S
O202 Mg189 2.061 . S
O202 C196 1.247 . S
O203 Mg192 2.106 . S
O203 Mg195 2.238 . S
O203 C196 1.289 . S
C204 O205 1.245 . S
C204 O206 1.274 . S
O205 Mg192 2.079 . S
O205 C204 1.245 . S
O206 Mg191 2.038 . S
O206 C204 1.274 . S
O207 Mg195 2.042 . S
O207 C210 1.241 . S
O208 Mg194 1.984 . S
O208 C210 1.280 . S
O209 Mg195 2.041 . S
O209 C213 1.277 . S
C210 O207 1.241 . S
C210 O208 1.280 . S
O211 Mg194 1.988 . S
O211 C213 1.245 . S
O212 C188 1.247 . S
O212 Mg194 2.061 . S
C213 O209 1.277 . S
C213 O211 1.245 . S
O214 C188 1.289 . S
O214 Mg191 2.238 . S
O214 Mg192 2.106 . S
O215 Mg192 2.079 . S
O215 C197 1.245 . S
O216 Mg195 2.038 . S
O216 C197 1.274 . S
C217 O229 1.241 . S
C217 O230 1.280 . S
C218 O231 1.277 . S
C218 O232 1.245 . S
C219 O243 1.247 . S
C219 O245 1.289 . S
Mg220 O221 1.926 . S
Mg220 O230 1.984 . S
Mg220 O232 1.988 . S
Mg220 O233 2.061 . S
O221 Mg220 1.926 . S
O221 Mg222 1.986 . S
O221 Mg223 1.917 . S
Mg222 O221 1.986 . S
Mg222 O229 2.042 . S
Mg222 O231 2.041 . S
Mg222 O237 2.038 . S
Mg222 O245 2.238 . S
Mg223 O221 1.917 . S
Mg223 O224 1.917 . S
Mg223 O234 2.106 . S
Mg223 O236 2.079 . S
Mg223 O245 2.106 . S
Mg223 O246 2.079 . S
O224 Mg223 1.917 . S
O224 Mg225 1.926 . S
O224 Mg226 1.986 . S
Mg225 O224 1.926 . S
Mg225 O239 1.984 . S
Mg225 O242 1.988 . S
Mg225 O243 2.061 . S
Mg226 O224 1.986 . S
Mg226 O234 2.238 . S
Mg226 O238 2.042 . S
Mg226 O240 2.041 . S
Mg226 O247 2.038 . S
C227 O233 1.247 . S
C227 O234 1.289 . S
C228 O246 1.245 . S
C228 O247 1.274 . S
O229 C217 1.241 . S
O229 Mg222 2.042 . S
O230 C217 1.280 . S
O230 Mg220 1.984 . S
O231 C218 1.277 . S
O231 Mg222 2.041 . S
O232 C218 1.245 . S
O232 Mg220 1.988 . S
O233 Mg220 2.061 . S
O233 C227 1.247 . S
O234 Mg223 2.106 . S
O234 Mg226 2.238 . S
O234 C227 1.289 . S
C235 O236 1.245 . S
C235 O237 1.274 . S
O236 Mg223 2.079 . S
O236 C235 1.245 . S
O237 Mg222 2.038 . S
O237 C235 1.274 . S
O238 Mg226 2.042 . S
O238 C241 1.241 . S
O239 Mg225 1.984 . S
O239 C241 1.280 . S
O240 Mg226 2.041 . S
O240 C244 1.277 . S
C241 O238 1.241 . S
C241 O239 1.280 . S
O242 Mg225 1.988 . S
O242 C244 1.245 . S
O243 C219 1.247 . S
O243 Mg225 2.061 . S
C244 O240 1.277 . S
C244 O242 1.245 . S
O245 C219 1.289 . S
O245 Mg222 2.238 . S
O245 Mg223 2.106 . S
O246 Mg223 2.079 . S
O246 C228 1.245 . S
O247 Mg226 2.038 . S
O247 C228 1.274 . S
C248 O260 1.241 . S
C248 O261 1.280 . S
C249 O262 1.277 . S
C249 O263 1.245 . S
C250 O274 1.247 . S
C250 O276 1.289 . S
Mg251 O252 1.926 . S
Mg251 O261 1.984 . S
Mg251 O263 1.988 . S
Mg251 O264 2.061 . S
O252 Mg251 1.926 . S
O252 Mg253 1.986 . S
O252 Mg254 1.917 . S
Mg253 O252 1.986 . S
Mg253 O260 2.042 . S
Mg253 O262 2.042 . S
Mg253 O268 2.038 . S
Mg253 O276 2.238 . S
Mg254 O252 1.917 . S
Mg254 O255 1.917 . S
Mg254 O265 2.106 . S
Mg254 O267 2.079 . S
Mg254 O276 2.106 . S
Mg254 O277 2.079 . S
O255 Mg254 1.917 . S
O255 Mg256 1.926 . S
O255 Mg257 1.986 . S
Mg256 O255 1.926 . S
Mg256 O270 1.984 . S
Mg256 O273 1.988 . S
Mg256 O274 2.061 . S
Mg257 O255 1.986 . S
Mg257 O265 2.238 . S
Mg257 O269 2.042 . S
Mg257 O271 2.041 . S
Mg257 O278 2.038 . S
C258 O264 1.247 . S
C258 O265 1.289 . S
C259 O277 1.245 . S
C259 O278 1.274 . S
O260 C248 1.241 . S
O260 Mg253 2.042 . S
O261 C248 1.280 . S
O261 Mg251 1.984 . S
O262 C249 1.277 . S
O262 Mg253 2.042 . S
O263 C249 1.245 . S
O263 Mg251 1.988 . S
O264 Mg251 2.061 . S
O264 C258 1.247 . S
O265 Mg254 2.106 . S
O265 Mg257 2.238 . S
O265 C258 1.289 . S
C266 O267 1.245 . S
C266 O268 1.274 . S
O267 Mg254 2.079 . S
O267 C266 1.245 . S
O268 Mg253 2.038 . S
O268 C266 1.274 . S
O269 Mg257 2.042 . S
O269 C272 1.241 . S
O270 Mg256 1.984 . S
O270 C272 1.280 . S
O271 Mg257 2.041 . S
O271 C275 1.277 . S
C272 O269 1.241 . S
C272 O270 1.280 . S
O273 Mg256 1.988 . S
O273 C275 1.245 . S
O274 C250 1.247 . S
O274 Mg256 2.061 . S
C275 O271 1.277 . S
C275 O273 1.245 . S
O276 C250 1.289 . S
O276 Mg253 2.238 . S
O276 Mg254 2.106 . S
O277 Mg254 2.079 . S
O277 C259 1.245 . S
O278 Mg257 2.038 . S
O278 C259 1.274 . S
C279 O291 1.241 . S
C279 O292 1.280 . S
C280 O293 1.277 . S
C280 O294 1.245 . S
C281 O305 1.247 . S
C281 O307 1.289 . S
Mg282 O283 1.926 . S
Mg282 O292 1.984 . S
Mg282 O294 1.988 . S
Mg282 O295 2.061 . S
O283 Mg282 1.926 . S
O283 Mg284 1.986 . S
O283 Mg285 1.917 . S
Mg284 O283 1.986 . S
Mg284 O291 2.042 . S
Mg284 O293 2.041 . S
Mg284 O299 2.038 . S
Mg284 O307 2.238 . S
Mg285 O283 1.917 . S
Mg285 O286 1.917 . S
Mg285 O296 2.106 . S
Mg285 O298 2.079 . S
Mg285 O307 2.106 . S
Mg285 O308 2.079 . S
O286 Mg285 1.917 . S
O286 Mg287 1.926 . S
O286 Mg288 1.986 . S
Mg287 O286 1.926 . S
Mg287 O301 1.984 . S
Mg287 O304 1.988 . S
Mg287 O305 2.061 . S
Mg288 O286 1.986 . S
Mg288 O296 2.238 . S
Mg288 O300 2.042 . S
Mg288 O302 2.041 1_545 S
Mg288 O309 2.038 . S
C289 O295 1.247 . S
C289 O296 1.289 . S
C290 O308 1.245 . S
C290 O309 1.274 . S
O291 C279 1.241 . S
O291 Mg284 2.042 . S
O292 C279 1.280 . S
O292 Mg282 1.984 . S
O293 C280 1.277 . S
O293 Mg284 2.041 . S
O294 C280 1.245 . S
O294 Mg282 1.988 . S
O295 Mg282 2.061 . S
O295 C289 1.247 . S
O296 Mg285 2.106 . S
O296 Mg288 2.238 . S
O296 C289 1.289 . S
C297 O298 1.245 . S
C297 O299 1.274 . S
O298 Mg285 2.079 . S
O298 C297 1.245 . S
O299 Mg284 2.038 . S
O299 C297 1.274 . S
O300 Mg288 2.042 . S
O300 C303 1.241 . S
O301 Mg287 1.984 . S
O301 C303 1.280 . S
O302 Mg288 2.041 1_565 S
O302 C306 1.277 . S
C303 O300 1.241 . S
C303 O301 1.280 . S
O304 Mg287 1.988 . S
O304 C306 1.245 1_545 S
O305 C281 1.247 . S
O305 Mg287 2.061 . S
C306 O302 1.277 . S
C306 O304 1.245 1_565 S
O307 C281 1.289 . S
O307 Mg284 2.238 . S
O307 Mg285 2.106 . S
O308 Mg285 2.079 . S
O308 C290 1.245 . S
O309 Mg288 2.038 . S
O309 C290 1.274 . S
C310 O322 1.241 . S
C310 O323 1.280 . S
C311 O324 1.277 . S
C311 O325 1.245 . S
C312 O336 1.247 . S
C312 O338 1.289 . S
Mg313 O314 1.926 . S
Mg313 O323 1.984 . S
Mg313 O325 1.988 . S
Mg313 O326 2.061 . S
O314 Mg313 1.926 . S
O314 Mg315 1.986 . S
O314 Mg316 1.917 . S
Mg315 O314 1.986 . S
Mg315 O322 2.042 . S
Mg315 O324 2.041 . S
Mg315 O330 2.038 . S
Mg315 O338 2.238 . S
Mg316 O314 1.917 . S
Mg316 O317 1.917 . S
Mg316 O327 2.106 . S
Mg316 O329 2.079 . S
Mg316 O338 2.106 . S
Mg316 O339 2.079 . S
O317 Mg316 1.917 . S
O317 Mg318 1.926 . S
O317 Mg319 1.986 . S
Mg318 O317 1.926 . S
Mg318 O332 1.984 . S
Mg318 O335 1.988 . S
Mg318 O336 2.061 . S
Mg319 O317 1.986 . S
Mg319 O327 2.238 . S
Mg319 O331 2.042 . S
Mg319 O333 2.042 . S
Mg319 O340 2.038 . S
C320 O326 1.247 . S
C320 O327 1.289 . S
C321 O339 1.245 . S
C321 O340 1.274 . S
O322 C310 1.241 . S
O322 Mg315 2.042 . S
O323 C310 1.280 . S
O323 Mg313 1.984 . S
O324 C311 1.277 . S
O324 Mg315 2.041 . S
O325 C311 1.245 . S
O325 Mg313 1.988 . S
O326 Mg313 2.061 . S
O326 C320 1.247 . S
O327 Mg316 2.106 . S
O327 Mg319 2.238 . S
O327 C320 1.289 . S
C328 O329 1.245 . S
C328 O330 1.274 . S
O329 Mg316 2.079 . S
O329 C328 1.245 . S
O330 Mg315 2.038 . S
O330 C328 1.274 . S
O331 Mg319 2.042 . S
O331 C334 1.241 . S
O332 Mg318 1.984 . S
O332 C334 1.280 . S
O333 Mg319 2.042 . S
O333 C337 1.277 . S
C334 O331 1.241 . S
C334 O332 1.280 . S
O335 Mg318 1.988 . S
O335 C337 1.245 . S
O336 C312 1.247 . S
O336 Mg318 2.061 . S
C337 O333 1.277 . S
C337 O335 1.245 . S
O338 C312 1.289 . S
O338 Mg315 2.238 . S
O338 Mg316 2.106 . S
O339 Mg316 2.079 . S
O339 C321 1.245 . S
O340 Mg319 2.038 . S
O340 C321 1.274 . S
C341 O353 1.241 . S
C341 O354 1.280 . S
C342 O355 1.277 . S
C342 O356 1.245 1_545 S
C343 O367 1.247 . S
C343 O369 1.289 . S
Mg344 O345 1.926 . S
Mg344 O354 1.984 . S
Mg344 O356 1.988 . S
Mg344 O357 2.061 . S
O345 Mg344 1.926 . S
O345 Mg346 1.986 . S
O345 Mg347 1.917 . S
Mg346 O345 1.986 . S
Mg346 O353 2.042 . S
Mg346 O355 2.041 1_565 S
Mg346 O361 2.038 . S
Mg346 O369 2.238 . S
Mg347 O345 1.917 . S
Mg347 O348 1.917 . S
Mg347 O358 2.106 . S
Mg347 O360 2.079 . S
Mg347 O369 2.106 . S
Mg347 O370 2.079 . S
O348 Mg347 1.917 . S
O348 Mg349 1.926 . S
O348 Mg350 1.986 . S
Mg349 O348 1.926 . S
Mg349 O363 1.984 . S
Mg349 O366 1.988 . S
Mg349 O367 2.061 . S
Mg350 O348 1.986 . S
Mg350 O358 2.238 . S
Mg350 O362 2.042 . S
Mg350 O364 2.041 . S
Mg350 O371 2.038 . S
C351 O357 1.247 . S
C351 O358 1.289 . S
C352 O370 1.245 . S
C352 O371 1.274 . S
O353 C341 1.241 . S
O353 Mg346 2.042 . S
O354 C341 1.280 . S
O354 Mg344 1.984 . S
O355 C342 1.277 . S
O355 Mg346 2.041 1_545 S
O356 C342 1.245 1_565 S
O356 Mg344 1.988 . S
O357 Mg344 2.061 . S
O357 C351 1.247 . S
O358 Mg347 2.106 . S
O358 Mg350 2.238 . S
O358 C351 1.289 . S
C359 O360 1.245 . S
C359 O361 1.274 . S
O360 Mg347 2.079 . S
O360 C359 1.245 . S
O361 Mg346 2.038 . S
O361 C359 1.274 . S
O362 Mg350 2.042 . S
O362 C365 1.241 . S
O363 Mg349 1.984 . S
O363 C365 1.280 . S
O364 Mg350 2.041 . S
O364 C368 1.277 . S
C365 O362 1.241 . S
C365 O363 1.280 . S
O366 Mg349 1.988 . S
O366 C368 1.245 . S
O367 C343 1.247 . S
O367 Mg349 2.061 . S
C368 O364 1.277 . S
C368 O366 1.245 . S
O369 C343 1.289 . S
O369 Mg346 2.238 . S
O369 Mg347 2.106 . S
O370 Mg347 2.079 . S
O370 C352 1.245 . S
O371 Mg350 2.038 . S
O371 C352 1.274 . S
C372 O384 1.241 . S
C372 O385 1.280 . S
C373 O386 1.277 . S
C373 O387 1.245 . S
C374 O398 1.247 . S
C374 O400 1.289 . S
Mg375 O376 1.926 . S
Mg375 O385 1.984 . S
Mg375 O387 1.988 . S
Mg375 O388 2.061 . S
O376 Mg375 1.926 . S
O376 Mg377 1.986 . S
O376 Mg378 1.917 . S
Mg377 O376 1.986 . S
Mg377 O384 2.042 . S
Mg377 O386 2.041 . S
Mg377 O392 2.038 . S
Mg377 O400 2.238 . S
Mg378 O376 1.917 . S
Mg378 O379 1.917 . S
Mg378 O389 2.106 . S
Mg378 O391 2.079 . S
Mg378 O400 2.106 . S
Mg378 O401 2.079 . S
O379 Mg378 1.917 . S
O379 Mg380 1.926 . S
O379 Mg381 1.986 . S
Mg380 O379 1.926 . S
Mg380 O394 1.984 . S
Mg380 O397 1.988 . S
Mg380 O398 2.061 . S
Mg381 O379 1.986 . S
Mg381 O389 2.238 . S
Mg381 O393 2.042 . S
Mg381 O395 2.041 . S
Mg381 O402 2.038 . S
C382 O388 1.247 . S
C382 O389 1.289 . S
C383 O401 1.245 . S
C383 O402 1.274 . S
O384 C372 1.241 . S
O384 Mg377 2.042 . S
O385 C372 1.280 . S
O385 Mg375 1.984 . S
O386 C373 1.277 . S
O386 Mg377 2.041 . S
O387 C373 1.245 . S
O387 Mg375 1.988 . S
O388 Mg375 2.061 . S
O388 C382 1.247 . S
O389 Mg378 2.106 . S
O389 Mg381 2.238 . S
O389 C382 1.289 . S
C390 O391 1.245 . S
C390 O392 1.274 . S
O391 Mg378 2.079 . S
O391 C390 1.245 . S
O392 Mg377 2.038 . S
O392 C390 1.274 . S
O393 Mg381 2.042 . S
O393 C396 1.241 . S
O394 Mg380 1.984 . S
O394 C396 1.280 . S
O395 Mg381 2.041 . S
O395 C399 1.277 . S
C396 O393 1.241 . S
C396 O394 1.280 . S
O397 Mg380 1.988 . S
O397 C399 1.245 . S
O398 C374 1.247 . S
O398 Mg380 2.061 . S
C399 O395 1.277 . S
C399 O397 1.245 . S
O400 C374 1.289 . S
O400 Mg377 2.238 . S
O400 Mg378 2.106 . S
O401 Mg378 2.079 . S
O401 C383 1.245 . S
O402 Mg381 2.038 . S
O402 C383 1.274 . S
C403 O415 1.241 . S
C403 O416 1.280 . S
C404 O417 1.277 . S
C404 O418 1.245 . S
C405 O429 1.247 . S
C405 O431 1.289 . S
Mg406 O407 1.926 . S
Mg406 O416 1.984 . S
Mg406 O418 1.988 . S
Mg406 O419 2.061 . S
O407 Mg406 1.926 . S
O407 Mg408 1.986 . S
O407 Mg409 1.917 . S
Mg408 O407 1.986 . S
Mg408 O415 2.042 . S
Mg408 O417 2.041 . S
Mg408 O423 2.038 . S
Mg408 O431 2.238 . S
Mg409 O407 1.917 . S
Mg409 O410 1.917 . S
Mg409 O420 2.106 . S
Mg409 O422 2.079 . S
Mg409 O431 2.106 . S
Mg409 O432 2.079 . S
O410 Mg409 1.917 . S
O410 Mg411 1.926 . S
O410 Mg412 1.986 . S
Mg411 O410 1.926 . S
Mg411 O425 1.984 . S
Mg411 O428 1.988 . S
Mg411 O429 2.061 . S
Mg412 O410 1.986 . S
Mg412 O420 2.238 . S
Mg412 O424 2.042 . S
Mg412 O426 2.041 . S
Mg412 O433 2.038 . S
C413 O419 1.247 . S
C413 O420 1.289 . S
C414 O432 1.245 . S
C414 O433 1.274 . S
O415 C403 1.241 . S
O415 Mg408 2.042 . S
O416 C403 1.280 . S
O416 Mg406 1.984 . S
O417 C404 1.277 . S
O417 Mg408 2.041 . S
O418 C404 1.245 . S
O418 Mg406 1.988 . S
O419 Mg406 2.061 . S
O419 C413 1.247 . S
O420 Mg409 2.106 . S
O420 Mg412 2.238 . S
O420 C413 1.289 . S
C421 O422 1.245 . S
C421 O423 1.274 . S
O422 Mg409 2.079 . S
O422 C421 1.245 . S
O423 Mg408 2.038 . S
O423 C421 1.274 . S
O424 Mg412 2.042 . S
O424 C427 1.241 . S
O425 Mg411 1.984 . S
O425 C427 1.280 . S
O426 Mg412 2.041 . S
O426 C430 1.277 . S
C427 O424 1.241 . S
C427 O425 1.280 . S
O428 Mg411 1.988 . S
O428 C430 1.245 . S
O429 C405 1.247 . S
O429 Mg411 2.061 . S
C430 O426 1.277 . S
C430 O428 1.245 . S
O431 C405 1.289 . S
O431 Mg408 2.238 . S
O431 Mg409 2.106 . S
O432 Mg409 2.079 . S
O432 C414 1.245 . S
O433 Mg412 2.038 . S
O433 C414 1.274 . S
C434 O446 1.241 . S
C434 O447 1.280 . S
C435 O448 1.277 . S
C435 O449 1.245 . S
C436 O460 1.247 . S
C436 O462 1.289 . S
Mg437 O438 1.926 . S
Mg437 O447 1.984 . S
Mg437 O449 1.988 . S
Mg437 O450 2.061 . S
O438 Mg437 1.926 . S
O438 Mg439 1.986 . S
O438 Mg440 1.917 . S
Mg439 O438 1.986 . S
Mg439 O446 2.042 . S
Mg439 O448 2.041 . S
Mg439 O454 2.038 . S
Mg439 O462 2.238 . S
Mg440 O438 1.917 . S
Mg440 O441 1.917 . S
Mg440 O451 2.106 . S
Mg440 O453 2.079 . S
Mg440 O462 2.106 . S
Mg440 O463 2.079 . S
O441 Mg440 1.917 . S
O441 Mg442 1.926 . S
O441 Mg443 1.986 . S
Mg442 O441 1.926 . S
Mg442 O456 1.984 . S
Mg442 O459 1.988 . S
Mg442 O460 2.061 . S
Mg443 O441 1.986 . S
Mg443 O451 2.238 . S
Mg443 O455 2.042 . S
Mg443 O457 2.041 . S
Mg443 O464 2.038 . S
C444 O450 1.247 . S
C444 O451 1.289 . S
C445 O463 1.245 . S
C445 O464 1.274 . S
O446 C434 1.241 . S
O446 Mg439 2.042 . S
O447 C434 1.280 . S
O447 Mg437 1.984 . S
O448 C435 1.277 . S
O448 Mg439 2.041 . S
O449 C435 1.245 . S
O449 Mg437 1.988 . S
O450 Mg437 2.061 . S
O450 C444 1.247 . S
O451 Mg440 2.106 . S
O451 Mg443 2.238 . S
O451 C444 1.289 . S
C452 O453 1.245 . S
C452 O454 1.274 . S
O453 Mg440 2.079 . S
O453 C452 1.245 . S
O454 Mg439 2.038 . S
O454 C452 1.274 . S
O455 Mg443 2.042 . S
O455 C458 1.241 . S
O456 Mg442 1.984 . S
O456 C458 1.280 . S
O457 Mg443 2.041 . S
O457 C461 1.277 . S
C458 O455 1.241 . S
C458 O456 1.280 . S
O459 Mg442 1.988 . S
O459 C461 1.245 . S
O460 C436 1.247 . S
O460 Mg442 2.061 . S
C461 O457 1.277 . S
C461 O459 1.245 . S
O462 C436 1.289 . S
O462 Mg439 2.238 . S
O462 Mg440 2.106 . S
O463 Mg440 2.079 . S
O463 C445 1.245 . S
O464 Mg443 2.038 . S
O464 C445 1.274 . S
C465 O477 1.241 . S
C465 O478 1.280 . S
C466 O479 1.277 . S
C466 O480 1.245 . S
C467 O491 1.247 . S
C467 O493 1.289 . S
Mg468 O469 1.926 . S
Mg468 O478 1.984 . S
Mg468 O480 1.988 . S
Mg468 O481 2.061 . S
O469 Mg468 1.926 . S
O469 Mg470 1.986 . S
O469 Mg471 1.917 . S
Mg470 O469 1.986 . S
Mg470 O477 2.042 . S
Mg470 O479 2.041 . S
Mg470 O485 2.038 . S
Mg470 O493 2.238 . S
Mg471 O469 1.917 . S
Mg471 O472 1.917 . S
Mg471 O482 2.106 . S
Mg471 O484 2.079 . S
Mg471 O493 2.106 . S
Mg471 O494 2.079 . S
O472 Mg471 1.917 . S
O472 Mg473 1.926 . S
O472 Mg474 1.986 . S
Mg473 O472 1.926 . S
Mg473 O487 1.984 . S
Mg473 O490 1.988 . S
Mg473 O491 2.061 . S
Mg474 O472 1.986 . S
Mg474 O482 2.238 . S
Mg474 O486 2.042 . S
Mg474 O488 2.041 . S
Mg474 O495 2.038 . S
C475 O481 1.247 . S
C475 O482 1.289 . S
C476 O494 1.245 . S
C476 O495 1.274 . S
O477 C465 1.241 . S
O477 Mg470 2.042 . S
O478 C465 1.280 . S
O478 Mg468 1.984 . S
O479 C466 1.277 . S
O479 Mg470 2.041 . S
O480 C466 1.245 . S
O480 Mg468 1.988 . S
O481 Mg468 2.061 . S
O481 C475 1.247 . S
O482 Mg471 2.106 . S
O482 Mg474 2.238 . S
O482 C475 1.289 . S
C483 O484 1.245 . S
C483 O485 1.274 . S
O484 Mg471 2.079 . S
O484 C483 1.245 . S
O485 Mg470 2.038 . S
O485 C483 1.274 . S
O486 Mg474 2.042 . S
O486 C489 1.241 . S
O487 Mg473 1.984 . S
O487 C489 1.280 . S
O488 Mg474 2.041 . S
O488 C492 1.277 . S
C489 O486 1.241 . S
C489 O487 1.280 . S
O490 Mg473 1.988 . S
O490 C492 1.245 . S
O491 C467 1.247 . S
O491 Mg473 2.061 . S
C492 O488 1.277 . S
C492 O490 1.245 . S
O493 C467 1.289 . S
O493 Mg470 2.238 . S
O493 Mg471 2.106 . S
O494 Mg471 2.079 . S
O494 C476 1.245 . S
O495 Mg474 2.038 . S
O495 C476 1.274 . S
H496 C502 0.930 . S
H497 C506 0.930 . S
H498 C511 0.929 . S
H499 C509 0.929 . S
H500 C504 0.929 . S
H501 C510 0.929 . S
C502 H496 0.930 . S
C502 C503 1.367 . S
C502 C510 1.378 . S
C503 C502 1.367 . S
C503 C511 1.433 . S
C504 H500 0.929 . S
C504 C506 1.378 . S
C504 C508 1.350 . S
C505 C508 1.463 . S
C505 C510 1.350 . S
C505 N513 1.427 . S
C506 H497 0.930 . S
C506 C504 1.378 . S
C506 C507 1.367 . S
C507 C506 1.367 . S
C507 C509 1.433 . S
C508 C504 1.350 . S
C508 C505 1.463 . S
C508 N512 1.427 . S
C509 H499 0.929 . S
C509 C507 1.433 . S
C509 N512 1.384 . S
C510 H501 0.929 . S
C510 C502 1.378 . S
C510 C505 1.350 . S
C511 H498 0.929 . S
C511 C503 1.433 . S
C511 N513 1.384 . S
N512 C508 1.427 . S
N512 C509 1.384 . S
N513 C505 1.427 . S
N513 C511 1.384 . S
H514 C520 0.930 . S
H515 C524 0.930 . S
H516 C529 0.929 . S
H517 C527 0.929 . S
H518 C522 0.929 . S
H519 C528 0.929 . S
C520 H514 0.930 . S
C520 C521 1.367 . S
C520 C528 1.378 1_455 S
C521 C520 1.367 . S
C521 C529 1.433 . S
C522 H518 0.929 . S
C522 C524 1.378 . S
C522 C526 1.350 . S
C523 C526 1.463 . S
C523 C528 1.350 . S
C523 N531 1.427 1_655 S
C524 H515 0.930 . S
C524 C522 1.378 . S
C524 C525 1.367 . S
C525 C524 1.367 . S
C525 C527 1.433 . S
C526 C522 1.350 . S
C526 C523 1.463 . S
C526 N530 1.427 . S
C527 H517 0.929 . S
C527 C525 1.433 . S
C527 N530 1.384 . S
C528 H519 0.929 . S
C528 C520 1.378 1_655 S
C528 C523 1.350 . S
C529 H516 0.929 . S
C529 C521 1.433 . S
C529 N531 1.384 . S
N530 C526 1.427 . S
N530 C527 1.384 . S
N531 C523 1.427 1_455 S
N531 C529 1.384 . S
H532 C538 0.930 . S
H533 C542 0.930 . S
H534 C547 0.930 . S
H535 C545 0.929 . S
H536 C540 0.929 . S
H537 C546 0.929 . S
C538 H532 0.930 . S
C538 C539 1.367 . S
C538 C546 1.378 . S
C539 C538 1.367 . S
C539 C547 1.433 . S
C540 H536 0.929 . S
C540 C542 1.378 . S
C540 C544 1.350 . S
C541 C544 1.463 . S
C541 C546 1.350 . S
C541 N549 1.427 . S
C542 H533 0.930 . S
C542 C540 1.378 . S
C542 C543 1.367 . S
C543 C542 1.367 . S
C543 C545 1.433 . S
C544 C540 1.350 . S
C544 C541 1.463 . S
C544 N548 1.427 . S
C545 H535 0.929 . S
C545 C543 1.433 . S
C545 N548 1.384 . S
C546 H537 0.929 . S
C546 C538 1.378 . S
C546 C541 1.350 . S
C547 H534 0.930 . S
C547 C539 1.433 . S
C547 N549 1.384 . S
N548 C544 1.427 . S
N548 C545 1.384 . S
N549 C541 1.427 . S
N549 C547 1.384 . S
H550 C556 0.930 . S
H551 C560 0.930 . S
H552 C565 0.929 . S
H553 C563 0.929 . S
H554 C558 0.929 . S
H555 C564 0.929 . S
C556 H550 0.930 . S
C556 C557 1.367 . S
C556 C564 1.378 1_455 S
C557 C556 1.367 . S
C557 C565 1.433 . S
C558 H554 0.929 . S
C558 C560 1.378 . S
C558 C562 1.350 . S
C559 C562 1.463 . S
C559 C564 1.350 . S
C559 N567 1.427 1_655 S
C560 H551 0.930 . S
C560 C558 1.378 . S
C560 C561 1.367 . S
C561 C560 1.367 . S
C561 C563 1.433 . S
C562 C558 1.350 . S
C562 C559 1.463 . S
C562 N566 1.427 . S
C563 H553 0.929 . S
C563 C561 1.433 . S
C563 N566 1.384 . S
C564 H555 0.929 . S
C564 C556 1.378 1_655 S
C564 C559 1.350 . S
C565 H552 0.929 . S
C565 C557 1.433 . S
C565 N567 1.384 . S
N566 C562 1.427 . S
N566 C563 1.384 . S
N567 C559 1.427 1_455 S
N567 C565 1.384 . S
H568 C574 0.930 . S
H569 C578 0.930 . S
H570 C583 0.929 . S
H571 C581 0.929 . S
H572 C576 0.929 . S
H573 C582 0.929 . S
C574 H568 0.930 . S
C574 C575 1.367 . S
C574 C582 1.378 . S
C575 C574 1.367 . S
C575 C583 1.433 . S
C576 H572 0.929 . S
C576 C578 1.378 . S
C576 C580 1.350 . S
C577 C580 1.463 . S
C577 C582 1.350 . S
C577 N585 1.427 . S
C578 H569 0.930 . S
C578 C576 1.378 . S
C578 C579 1.367 . S
C579 C578 1.367 . S
C579 C581 1.433 . S
C580 C576 1.350 . S
C580 C577 1.463 . S
C580 N584 1.427 . S
C581 H571 0.929 . S
C581 C579 1.433 . S
C581 N584 1.384 . S
C582 H573 0.929 . S
C582 C574 1.378 . S
C582 C577 1.350 . S
C583 H570 0.929 . S
C583 C575 1.433 . S
C583 N585 1.384 . S
N584 C580 1.427 . S
N584 C581 1.384 . S
N585 C577 1.427 . S
N585 C583 1.384 . S
H586 C592 0.930 1_565 S
H587 C596 0.930 . S
H588 C601 0.929 . S
H589 C599 0.929 . S
H590 C594 0.929 . S
H591 C600 0.929 . S
C592 H586 0.930 1_545 S
C592 C593 1.367 . S
C592 C600 1.378 1_655 S
C593 C592 1.367 . S
C593 C601 1.433 . S
C594 H590 0.929 . S
C594 C596 1.378 . S
C594 C598 1.350 . S
C595 C598 1.463 . S
C595 C600 1.350 . S
C595 N603 1.427 1_455 S
C596 H587 0.930 . S
C596 C594 1.378 . S
C596 C597 1.367 . S
C597 C596 1.367 . S
C597 C599 1.433 . S
C598 C594 1.350 . S
C598 C595 1.463 . S
C598 N602 1.427 . S
C599 H589 0.929 . S
C599 C597 1.433 . S
C599 N602 1.384 . S
C600 H591 0.929 . S
C600 C592 1.378 1_455 S
C600 C595 1.350 . S
C601 H588 0.929 . S
C601 C593 1.433 . S
C601 N603 1.384 . S
N602 C598 1.427 . S
N602 C599 1.384 . S
N603 C595 1.427 1_655 S
N603 C601 1.384 . S
H604 C610 0.930 . S
H605 C614 0.930 . S
H606 C619 0.929 . S
H607 C617 0.929 . S
H608 C612 0.929 . S
H609 C618 0.929 . S
C610 H604 0.930 . S
C610 C611 1.367 . S
C610 C618 1.378 . S
C611 C610 1.367 . S
C611 C619 1.433 . S
C612 H608 0.929 . S
C612 C614 1.378 . S
C612 C616 1.350 . S
C613 C616 1.463 . S
C613 C618 1.350 . S
C613 N621 1.427 . S
C614 H605 0.930 . S
C614 C612 1.378 . S
C614 C615 1.367 . S
C615 C614 1.367 . S
C615 C617 1.433 . S
C616 C612 1.350 . S
C616 C613 1.463 . S
C616 N620 1.427 . S
C617 H607 0.929 . S
C617 C615 1.433 . S
C617 N620 1.384 . S
C618 H609 0.929 . S
C618 C610 1.378 . S
C618 C613 1.350 . S
C619 H606 0.929 . S
C619 C611 1.433 . S
C619 N621 1.384 . S
N620 C616 1.427 . S
N620 C617 1.384 . S
N621 C613 1.427 . S
N621 C619 1.384 . S
H622 C628 0.930 . S
H623 C632 0.930 . S
H624 C637 0.929 . S
H625 C635 0.929 . S
H626 C630 0.929 . S
H627 C636 0.932 . S
C628 H622 0.930 . S
C628 C629 1.367 . S
C628 C636 1.368 1_655 S
C629 C628 1.367 . S
C629 C637 1.433 . S
C630 H626 0.929 . S
C630 C632 1.378 . S
C630 C634 1.350 . S
C631 C634 1.463 . S
C631 C636 1.357 . S
C631 N639 1.427 . S
C632 H623 0.930 . S
C632 C630 1.378 . S
C632 C633 1.367 . S
C633 C632 1.367 . S
C633 C635 1.433 . S
C634 C630 1.350 . S
C634 C631 1.463 . S
C634 N638 1.427 . S
C635 H625 0.929 . S
C635 C633 1.433 . S
C635 N638 1.384 . S
C636 H627 0.932 . S
C636 C628 1.368 1_455 S
C636 C631 1.357 . S
C637 H624 0.929 . S
C637 C629 1.433 . S
C637 N639 1.384 1_655 S
N638 C634 1.427 . S
N638 C635 1.384 . S
N639 C631 1.427 . S
N639 C637 1.384 1_455 S
H640 C646 0.930 . S
H641 C650 0.930 . S
H642 C655 0.929 . S
H643 C653 0.929 . S
H644 C648 0.929 . S
H645 C654 0.929 . S
C646 H640 0.930 . S
C646 C647 1.367 . S
C646 C654 1.378 . S
C647 C646 1.367 . S
C647 C655 1.433 . S
C648 H644 0.929 . S
C648 C650 1.378 . S
C648 C652 1.350 . S
C649 C652 1.463 . S
C649 C654 1.350 . S
C649 N657 1.427 . S
C650 H641 0.930 . S
C650 C648 1.378 . S
C650 C651 1.367 . S
C651 C650 1.367 . S
C651 C653 1.433 . S
C652 C648 1.350 . S
C652 C649 1.463 . S
C652 N656 1.427 . S
C653 H643 0.929 . S
C653 C651 1.433 . S
C653 N656 1.384 . S
C654 H645 0.929 . S
C654 C646 1.378 . S
C654 C649 1.350 . S
C655 H642 0.929 . S
C655 C647 1.433 . S
C655 N657 1.384 . S
N656 C652 1.427 . S
N656 C653 1.384 . S
N657 C649 1.427 . S
N657 C655 1.384 . S
H658 C664 0.930 . S
H659 C668 0.930 . S
H660 C673 0.929 . S
H661 C671 0.929 . S
H662 C666 0.929 . S
H663 C672 0.929 . S
C664 H658 0.930 . S
C664 C665 1.367 . S
C664 C672 1.378 . S
C665 C664 1.367 . S
C665 C673 1.433 . S
C666 H662 0.929 . S
C666 C668 1.378 1_655 S
C666 C670 1.350 . S
C667 C670 1.463 . S
C667 C672 1.350 . S
C667 N675 1.427 . S
C668 H659 0.930 . S
C668 C666 1.378 1_455 S
C668 C669 1.367 . S
C669 C668 1.367 . S
C669 C671 1.433 . S
C670 C666 1.350 . S
C670 C667 1.463 . S
C670 N674 1.427 1_655 S
C671 H661 0.929 . S
C671 C669 1.433 . S
C671 N674 1.384 . S
C672 H663 0.929 . S
C672 C664 1.378 . S
C672 C667 1.350 . S
C673 H660 0.929 . S
C673 C665 1.433 . S
C673 N675 1.384 . S
N674 C670 1.427 1_455 S
N674 C671 1.384 . S
N675 C667 1.427 . S
N675 C673 1.384 . S
H676 C682 0.930 . S
H677 C686 0.930 . S
H678 C691 0.929 . S
H679 C689 0.929 . S
H680 C684 0.929 . S
H681 C690 0.929 . S
C682 H676 0.930 . S
C682 C683 1.367 . S
C682 C690 1.378 . S
C683 C682 1.367 . S
C683 C691 1.433 . S
C684 H680 0.929 . S
C684 C686 1.378 . S
C684 C688 1.350 . S
C685 C688 1.463 . S
C685 C690 1.350 . S
C685 N693 1.427 . S
C686 H677 0.930 . S
C686 C684 1.378 . S
C686 C687 1.367 . S
C687 C686 1.367 . S
C687 C689 1.433 . S
C688 C684 1.350 . S
C688 C685 1.463 . S
C688 N692 1.427 . S
C689 H679 0.929 . S
C689 C687 1.433 . S
C689 N692 1.384 . S
C690 H681 0.929 . S
C690 C682 1.378 . S
C690 C685 1.350 . S
C691 H678 0.929 . S
C691 C683 1.433 . S
C691 N693 1.384 . S
N692 C688 1.427 . S
N692 C689 1.384 . S
N693 C685 1.427 . S
N693 C691 1.384 . S
H694 C700 0.930 . S
H695 C704 0.930 . S
H696 C709 0.929 . S
H697 C707 0.929 . S
H698 C702 0.929 1_655 S
H699 C708 0.929 . S
C700 H694 0.930 . S
C700 C701 1.367 . S
C700 C708 1.378 . S
C701 C700 1.367 . S
C701 C709 1.433 . S
C702 H698 0.929 1_455 S
C702 C704 1.378 . S
C702 C706 1.350 1_455 S
C703 C706 1.463 . S
C703 C708 1.350 . S
C703 N711 1.427 . S
C704 H695 0.930 . S
C704 C702 1.378 . S
C704 C705 1.367 . S
C705 C704 1.367 . S
C705 C707 1.433 . S
C706 C702 1.350 1_655 S
C706 C703 1.463 . S
C706 N710 1.427 . S
C707 H697 0.929 . S
C707 C705 1.433 . S
C707 N710 1.384 1_455 S
C708 H699 0.929 . S
C708 C700 1.378 . S
C708 C703 1.350 . S
C709 H696 0.929 . S
C709 C701 1.433 . S
C709 N711 1.384 . S
N710 C706 1.427 . S
N710 C707 1.384 1_655 S
N711 C703 1.427 . S
N711 C709 1.384 . S
H712 C718 0.930 1_565 S
H713 C722 0.930 . S
H714 C727 0.929 . S
H715 C725 0.929 . S
H716 C720 0.929 . S
H717 C726 0.929 . S
C718 H712 0.930 1_545 S
C718 C719 1.367 . S
C718 C726 1.378 . S
C719 C718 1.367 . S
C719 C727 1.433 . S
C720 H716 0.929 . S
C720 C722 1.378 . S
C720 C724 1.350 . S
C721 C724 1.463 . S
C721 C726 1.350 . S
C721 N729 1.427 . S
C722 H713 0.930 . S
C722 C720 1.378 . S
C722 C723 1.367 . S
C723 C722 1.367 . S
C723 C725 1.433 . S
C724 C720 1.350 . S
C724 C721 1.463 . S
C724 N728 1.427 . S
C725 H715 0.929 . S
C725 C723 1.433 . S
C725 N728 1.384 . S
C726 H717 0.929 . S
C726 C718 1.378 . S
C726 C721 1.350 . S
C727 H714 0.929 . S
C727 C719 1.433 . S
C727 N729 1.384 . S
N728 C724 1.427 . S
N728 C725 1.384 . S
N729 C721 1.427 . S
N729 C727 1.384 . S
H730 C736 0.930 . S
H731 C740 0.930 . S
H732 C745 0.929 . S
H733 C743 0.929 . S
H734 C738 0.929 . S
H735 C744 0.929 . S
C736 H730 0.930 . S
C736 C737 1.367 . S
C736 C744 1.378 . S
C737 C736 1.367 . S
C737 C745 1.433 . S
C738 H734 0.929 . S
C738 C740 1.378 . S
C738 C742 1.350 . S
C739 C742 1.463 . S
C739 C744 1.350 1_455 S
C739 N747 1.427 . S
C740 H731 0.930 . S
C740 C738 1.378 . S
C740 C741 1.367 . S
C741 C740 1.367 . S
C741 C743 1.433 . S
C742 C738 1.350 . S
C742 C739 1.463 . S
C742 N746 1.427 . S
C743 H733 0.929 . S
C743 C741 1.433 . S
C743 N746 1.384 . S
C744 H735 0.929 . S
C744 C736 1.378 . S
C744 C739 1.350 1_655 S
C745 H732 0.929 . S
C745 C737 1.433 . S
C745 N747 1.384 1_655 S
N746 C742 1.427 . S
N746 C743 1.384 . S
N747 C739 1.427 . S
N747 C745 1.384 1_455 S
H748 C754 0.930 . S
H749 C758 0.930 . S
H750 C763 0.929 . S
H751 C761 0.929 . S
H752 C756 0.929 . S
H753 C762 0.929 . S
C754 H748 0.930 . S
C754 C755 1.367 . S
C754 C762 1.378 . S
C755 C754 1.367 . S
C755 C763 1.433 . S
C756 H752 0.929 . S
C756 C758 1.378 . S
C756 C760 1.350 . S
C757 C760 1.463 . S
C757 C762 1.350 . S
C757 N765 1.427 . S
C758 H749 0.930 . S
C758 C756 1.378 . S
C758 C759 1.367 . S
C759 C758 1.367 . S
C759 C761 1.433 . S
C760 C756 1.350 . S
C760 C757 1.463 . S
C760 N764 1.427 . S
C761 H751 0.929 . S
C761 C759 1.433 . S
C761 N764 1.384 . S
C762 H753 0.929 . S
C762 C754 1.378 . S
C762 C757 1.350 . S
C763 H750 0.929 . S
C763 C755 1.433 . S
C763 N765 1.384 . S
N764 C760 1.427 . S
N764 C761 1.384 . S
N765 C757 1.427 . S
N765 C763 1.384 . S
H766 C772 0.930 . S
H767 C776 0.930 . S
H768 C781 0.929 . S
H769 C779 0.929 . S
H770 C774 0.929 . S
H771 C780 0.929 . S
C772 H766 0.930 . S
C772 C773 1.367 . S
C772 C780 1.378 1_655 S
C773 C772 1.367 . S
C773 C781 1.433 . S
C774 H770 0.929 . S
C774 C776 1.378 . S
C774 C778 1.350 . S
C775 C778 1.463 . S
C775 C780 1.350 . S
C775 N783 1.427 1_455 S
C776 H767 0.930 . S
C776 C774 1.378 . S
C776 C777 1.367 . S
C777 C776 1.367 . S
C777 C779 1.433 . S
C778 C774 1.350 . S
C778 C775 1.463 . S
C778 N782 1.427 . S
C779 H769 0.929 . S
C779 C777 1.433 . S
C779 N782 1.384 . S
C780 H771 0.929 . S
C780 C772 1.378 1_455 S
C780 C775 1.350 . S
C781 H768 0.929 . S
C781 C773 1.433 . S
C781 N783 1.384 . S
N782 C778 1.427 . S
N782 C779 1.384 . S
N783 C775 1.427 1_655 S
N783 C781 1.384 . S
H784 C790 0.930 1_545 S
H785 C794 0.930 . S
H786 C799 0.929 . S
H787 C797 0.929 . S
H788 C792 0.929 . S
H789 C798 0.929 . S
C790 H784 0.930 1_565 S
C790 C791 1.367 . S
C790 C798 1.378 . S
C791 C790 1.367 . S
C791 C799 1.433 . S
C792 H788 0.929 . S
C792 C794 1.378 . S
C792 C796 1.350 . S
C793 C796 1.463 . S
C793 C798 1.350 . S
C793 N801 1.427 . S
C794 H785 0.930 . S
C794 C792 1.378 . S
C794 C795 1.367 . S
C795 C794 1.367 . S
C795 C797 1.433 . S
C796 C792 1.350 . S
C796 C793 1.463 . S
C796 N800 1.427 . S
C797 H787 0.929 . S
C797 C795 1.433 . S
C797 N800 1.384 . S
C798 H789 0.929 . S
C798 C790 1.378 . S
C798 C793 1.350 . S
C799 H786 0.929 . S
C799 C791 1.433 . S
C799 N801 1.384 . S
N800 C796 1.427 . S
N800 C797 1.384 . S
N801 C793 1.427 . S
N801 C799 1.384 . S
H802 C808 0.929 1_655 S
H803 C812 0.930 . S
H804 C817 0.929 . S
H805 C815 0.929 . S
H806 C810 0.929 . S
H807 C816 0.929 . S
C808 H802 0.929 1_455 S
C808 C809 1.375 . S
C808 C816 1.371 1_455 S
C809 C808 1.375 . S
C809 C817 1.433 . S
C810 H806 0.929 . S
C810 C812 1.378 . S
C810 C814 1.350 . S
C811 C814 1.463 . S
C811 C816 1.350 . S
C811 N819 1.427 1_655 S
C812 H803 0.930 . S
C812 C810 1.378 . S
C812 C813 1.367 . S
C813 C812 1.367 . S
C813 C815 1.433 . S
C814 C810 1.350 . S
C814 C811 1.463 . S
C814 N818 1.427 . S
C815 H805 0.929 . S
C815 C813 1.433 . S
C815 N818 1.384 . S
C816 H807 0.929 . S
C816 C808 1.371 1_655 S
C816 C811 1.350 . S
C817 H804 0.929 . S
C817 C809 1.433 . S
C817 N819 1.384 . S
N818 C814 1.427 . S
N818 C815 1.384 . S
N819 C811 1.427 1_455 S
N819 C817 1.384 . S
H820 C826 0.930 . S
H821 C830 0.930 . S
H822 C835 0.929 . S
H823 C833 0.929 . S
H824 C828 0.929 . S
H825 C834 0.929 . S
C826 H820 0.930 . S
C826 C827 1.367 . S
C826 C834 1.378 . S
C827 C826 1.367 . S
C827 C835 1.433 . S
C828 H824 0.929 . S
C828 C830 1.378 . S
C828 C832 1.350 . S
C829 C832 1.463 . S
C829 C834 1.350 . S
C829 N837 1.427 . S
C830 H821 0.930 . S
C830 C828 1.378 . S
C830 C831 1.367 . S
C831 C830 1.367 . S
C831 C833 1.433 . S
C832 C828 1.350 . S
C832 C829 1.463 . S
C832 N836 1.427 . S
C833 H823 0.929 . S
C833 C831 1.433 . S
C833 N836 1.384 . S
C834 H825 0.929 . S
C834 C826 1.378 . S
C834 C829 1.350 . S
C835 H822 0.929 . S
C835 C827 1.433 . S
C835 N837 1.384 . S
N836 C832 1.427 . S
N836 C833 1.384 . S
N837 C829 1.427 . S
N837 C835 1.384 . S
H838 C844 0.930 . S
H839 C848 0.930 . S
H840 C853 0.929 . S
H841 C851 0.929 . S
H842 C846 0.929 . S
H843 C852 0.929 . S
C844 H838 0.930 . S
C844 C845 1.367 . S
C844 C852 1.378 . S
C845 C844 1.367 . S
C845 C853 1.433 . S
C846 H842 0.929 . S
C846 C848 1.378 1_655 S
C846 C850 1.350 . S
C847 C850 1.463 . S
C847 C852 1.350 . S
C847 N855 1.427 . S
C848 H839 0.930 . S
C848 C846 1.378 1_455 S
C848 C849 1.367 . S
C849 C848 1.367 . S
C849 C851 1.433 . S
C850 C846 1.350 . S
C850 C847 1.463 . S
C850 N854 1.427 1_655 S
C851 H841 0.929 . S
C851 C849 1.433 . S
C851 N854 1.384 . S
C852 H843 0.929 . S
C852 C844 1.378 . S
C852 C847 1.350 . S
C853 H840 0.929 . S
C853 C845 1.433 . S
C853 N855 1.384 . S
N854 C850 1.427 1_455 S
N854 C851 1.384 . S
N855 C847 1.427 . S
N855 C853 1.384 . S
H856 C862 0.930 . S
H857 C866 0.930 . S
H858 C871 0.929 . S
H859 C869 0.929 . S
H860 C864 0.929 . S
H861 C870 0.929 . S
C862 H856 0.930 . S
C862 C863 1.367 . S
C862 C870 1.378 . S
C863 C862 1.367 . S
C863 C871 1.433 . S
C864 H860 0.929 . S
C864 C866 1.378 . S
C864 C868 1.350 . S
C865 C868 1.463 . S
C865 C870 1.350 . S
C865 N873 1.427 . S
C866 H857 0.930 . S
C866 C864 1.378 . S
C866 C867 1.367 . S
C867 C866 1.367 . S
C867 C869 1.433 . S
C868 C864 1.350 . S
C868 C865 1.463 . S
C868 N872 1.427 . S
C869 H859 0.929 . S
C869 C867 1.433 . S
C869 N872 1.384 . S
C870 H861 0.929 . S
C870 C862 1.378 . S
C870 C865 1.350 . S
C871 H858 0.929 . S
C871 C863 1.433 . S
C871 N873 1.384 . S
N872 C868 1.427 . S
N872 C869 1.384 . S
N873 C865 1.427 . S
N873 C871 1.384 . S
H874 C880 0.930 . S
H875 C884 0.930 . S
H876 C889 0.929 . S
H877 C887 0.929 . S
H878 C882 0.929 . S
H879 C888 0.929 . S
C880 H874 0.930 . S
C880 C881 1.367 . S
C880 C888 1.378 . S
C881 C880 1.367 . S
C881 C889 1.433 . S
C882 H878 0.929 . S
C882 C884 1.378 . S
C882 C886 1.350 . S
C883 C886 1.463 . S
C883 C888 1.350 . S
C883 N891 1.427 . S
C884 H875 0.930 . S
C884 C882 1.378 . S
C884 C885 1.367 1_455 S
C885 C884 1.367 1_655 S
C885 C887 1.433 . S
C886 C882 1.350 . S
C886 C883 1.463 . S
C886 N890 1.427 1_455 S
C887 H877 0.929 . S
C887 C885 1.433 . S
C887 N890 1.384 . S
C888 H879 0.929 . S
C888 C880 1.378 . S
C888 C883 1.350 . S
C889 H876 0.929 . S
C889 C881 1.433 . S
C889 N891 1.384 . S
N890 C886 1.427 1_655 S
N890 C887 1.384 . S
N891 C883 1.427 . S
N891 C889 1.384 . S
H892 C898 0.930 . S
H893 C902 0.930 . S
H894 C907 0.929 . S
H895 C905 0.929 . S
H896 C900 0.929 . S
H897 C906 0.929 . S
C898 H892 0.930 . S
C898 C899 1.367 . S
C898 C906 1.378 . S
C899 C898 1.367 . S
C899 C907 1.433 . S
C900 H896 0.929 . S
C900 C902 1.378 . S
C900 C904 1.350 . S
C901 C904 1.463 . S
C901 C906 1.350 . S
C901 N909 1.427 . S
C902 H893 0.930 . S
C902 C900 1.378 . S
C902 C903 1.367 . S
C903 C902 1.367 . S
C903 C905 1.433 . S
C904 C900 1.350 . S
C904 C901 1.463 . S
C904 N908 1.427 . S
C905 H895 0.929 . S
C905 C903 1.433 . S
C905 N908 1.384 . S
C906 H897 0.929 . S
C906 C898 1.378 . S
C906 C901 1.350 . S
C907 H894 0.929 . S
C907 C899 1.433 . S
C907 N909 1.384 . S
N908 C904 1.427 . S
N908 C905 1.384 . S
N909 C901 1.427 . S
N909 C907 1.384 . S
H910 C916 0.930 . S
H911 C920 0.930 . S
H912 C925 0.929 . S
H913 C923 0.928 1_455 S
H914 C918 0.929 . S
H915 C924 0.929 . S
C916 H910 0.930 . S
C916 C917 1.367 . S
C916 C924 1.378 . S
C917 C916 1.367 . S
C917 C925 1.433 . S
C918 H914 0.929 . S
C918 C920 1.378 . S
C918 C922 1.350 1_655 S
C919 C922 1.463 . S
C919 C924 1.350 . S
C919 N927 1.427 . S
C920 H911 0.930 . S
C920 C918 1.378 . S
C920 C921 1.367 . S
C921 C920 1.367 . S
C921 C923 1.433 . S
C922 C918 1.350 1_455 S
C922 C919 1.463 . S
C922 N926 1.427 . S
C923 H913 0.928 1_655 S
C923 C921 1.433 . S
C923 N926 1.384 1_655 S
C924 H915 0.929 . S
C924 C916 1.378 . S
C924 C919 1.350 . S
C925 H912 0.929 . S
C925 C917 1.433 . S
C925 N927 1.384 . S
N926 C922 1.427 . S
N926 C923 1.384 1_455 S
N927 C919 1.427 . S
N927 C925 1.384 . S
H928 C934 0.930 . S
H929 C938 0.930 . S
H930 C943 0.929 . S
H931 C941 0.929 . S
H932 C936 0.929 . S
H933 C942 0.929 . S
C934 H928 0.930 . S
C934 C935 1.367 . S
C934 C942 1.378 . S
C935 C934 1.367 . S
C935 C943 1.433 . S
C936 H932 0.929 . S
C936 C938 1.378 . S
C936 C940 1.350 . S
C937 C940 1.463 . S
C937 C942 1.350 . S
C937 N945 1.427 . S
C938 H929 0.930 . S
C938 C936 1.378 . S
C938 C939 1.367 . S
C939 C938 1.367 . S
C939 C941 1.433 . S
C940 C936 1.350 . S
C940 C937 1.463 . S
C940 N944 1.427 . S
C941 H931 0.929 . S
C941 C939 1.433 . S
C941 N944 1.384 . S
C942 H933 0.929 . S
C942 C934 1.378 . S
C942 C937 1.350 . S
C943 H930 0.929 . S
C943 C935 1.433 . S
C943 N945 1.384 . S
N944 C940 1.427 . S
N944 C941 1.384 . S
N945 C937 1.427 . S
N945 C943 1.384 . S
H946 C952 0.930 . S
H947 C956 0.930 1_545 S
H948 C961 0.929 . S
H949 C959 0.929 . S
H950 C954 0.929 . S
H951 C960 0.929 . S
C952 H946 0.930 . S
C952 C953 1.367 1_655 S
C952 C960 1.378 . S
C953 C952 1.367 1_455 S
C953 C961 1.433 . S
C954 H950 0.929 . S
C954 C956 1.378 . S
C954 C958 1.350 . S
C955 C958 1.463 . S
C955 C960 1.350 . S
C955 N963 1.427 1_655 S
C956 H947 0.930 1_565 S
C956 C954 1.378 . S
C956 C957 1.367 . S
C957 C956 1.367 . S
C957 C959 1.433 . S
C958 C954 1.350 . S
C958 C955 1.463 . S
C958 N962 1.427 . S
C959 H949 0.929 . S
C959 C957 1.433 . S
C959 N962 1.384 . S
C960 H951 0.929 . S
C960 C952 1.378 . S
C960 C955 1.350 . S
C961 H948 0.929 . S
C961 C953 1.433 . S
C961 N963 1.384 . S
N962 C958 1.427 . S
N962 C959 1.384 . S
N963 C955 1.427 1_455 S
N963 C961 1.384 . S
H964 C970 0.930 . S
H965 C974 0.930 . S
H966 C979 0.929 . S
H967 C977 0.929 . S
H968 C972 0.929 . S
H969 C978 0.929 . S
C970 H964 0.930 . S
C970 C971 1.367 . S
C970 C978 1.378 . S
C971 C970 1.367 . S
C971 C979 1.433 . S
C972 H968 0.929 . S
C972 C974 1.378 . S
C972 C976 1.350 . S
C973 C976 1.463 . S
C973 C978 1.350 . S
C973 N981 1.427 . S
C974 H965 0.930 . S
C974 C972 1.378 . S
C974 C975 1.367 . S
C975 C974 1.367 . S
C975 C977 1.433 . S
C976 C972 1.350 . S
C976 C973 1.463 . S
C976 N980 1.427 . S
C977 H967 0.929 . S
C977 C975 1.433 . S
C977 N980 1.384 . S
C978 H969 0.929 . S
C978 C970 1.378 . S
C978 C973 1.350 . S
C979 H966 0.929 . S
C979 C971 1.433 . S
C979 N981 1.384 . S
N980 C976 1.427 . S
N980 C977 1.384 . S
N981 C973 1.427 . S
N981 C979 1.384 . S
H982 C988 0.930 . S
H983 C992 0.930 . S
H984 C997 0.929 . S
H985 C995 0.929 . S
H986 C990 0.929 . S
H987 C996 0.929 . S
C988 H982 0.930 . S
C988 C989 1.367 1_655 S
C988 C996 1.378 . S
C989 C988 1.367 1_455 S
C989 C997 1.433 . S
C990 H986 0.929 . S
C990 C992 1.378 . S
C990 C994 1.350 . S
C991 C994 1.463 . S
C991 C996 1.350 . S
C991 N999 1.427 1_655 S
C992 H983 0.930 . S
C992 C990 1.378 . S
C992 C993 1.367 . S
C993 C992 1.367 . S
C993 C995 1.433 . S
C994 C990 1.350 . S
C994 C991 1.463 . S
C994 N998 1.427 . S
C995 H985 0.929 . S
C995 C993 1.433 . S
C995 N998 1.384 . S
C996 H987 0.929 . S
C996 C988 1.378 . S
C996 C991 1.350 . S
C997 H984 0.929 . S
C997 C989 1.433 . S
C997 N999 1.384 . S
N998 C994 1.427 . S
N998 C995 1.384 . S
N999 C991 1.427 1_455 S
N999 C997 1.384 . S
H1000 C1006 0.930 . S
H1001 C1010 0.930 . S
H1002 C1015 0.929 . S
H1003 C1013 0.929 . S
H1004 C1008 0.929 . S
H1005 C1014 0.929 . S
C1006 H1000 0.930 . S
C1006 C1007 1.367 . S
C1006 C1014 1.378 . S
C1007 C1006 1.367 . S
C1007 C1015 1.433 . S
C1008 H1004 0.929 . S
C1008 C1010 1.378 . S
C1008 C1012 1.350 . S
C1009 C1012 1.463 . S
C1009 C1014 1.350 . S
C1009 N1017 1.427 . S
C1010 H1001 0.930 . S
C1010 C1008 1.378 . S
C1010 C1011 1.367 . S
C1011 C1010 1.367 . S
C1011 C1013 1.433 . S
C1012 C1008 1.350 . S
C1012 C1009 1.463 . S
C1012 N1016 1.427 . S
C1013 H1003 0.929 . S
C1013 C1011 1.433 . S
C1013 N1016 1.384 . S
C1014 H1005 0.929 . S
C1014 C1006 1.378 . S
C1014 C1009 1.350 . S
C1015 H1002 0.929 . S
C1015 C1007 1.433 . S
C1015 N1017 1.384 . S
N1016 C1012 1.427 . S
N1016 C1013 1.384 . S
N1017 C1009 1.427 . S
N1017 C1015 1.384 . S
H1018 C1024 0.930 1_565 S
H1019 C1028 0.930 1_455 S
H1020 C1033 0.929 . S
H1021 C1031 0.929 . S
H1022 C1026 0.929 . S
H1023 C1032 0.929 . S
C1024 H1018 0.930 1_545 S
C1024 C1025 1.367 . S
C1024 C1032 1.378 . S
C1025 C1024 1.367 . S
C1025 C1033 1.433 . S
C1026 H1022 0.929 . S
C1026 C1028 1.378 1_455 S
C1026 C1030 1.350 . S
C1027 C1030 1.463 . S
C1027 C1032 1.350 . S
C1027 N1035 1.427 . S
C1028 H1019 0.930 1_655 S
C1028 C1026 1.378 1_655 S
C1028 C1029 1.367 . S
C1029 C1028 1.367 . S
C1029 C1031 1.433 . S
C1030 C1026 1.350 . S
C1030 C1027 1.463 . S
C1030 N1034 1.427 1_455 S
C1031 H1021 0.929 . S
C1031 C1029 1.433 . S
C1031 N1034 1.384 . S
C1032 H1023 0.929 . S
C1032 C1024 1.378 . S
C1032 C1027 1.350 . S
C1033 H1020 0.929 . S
C1033 C1025 1.433 . S
C1033 N1035 1.384 . S
N1034 C1030 1.427 1_655 S
N1034 C1031 1.384 . S
N1035 C1027 1.427 . S
N1035 C1033 1.384 . S
H1036 C1042 0.930 . S
H1037 C1046 0.930 . S
H1038 C1051 0.929 . S
H1039 C1049 0.929 . S
H1040 C1044 0.929 . S
H1041 C1050 0.929 . S
C1042 H1036 0.930 . S
C1042 C1043 1.367 . S
C1042 C1050 1.378 . S
C1043 C1042 1.367 . S
C1043 C1051 1.433 . S
C1044 H1040 0.929 . S
C1044 C1046 1.378 . S
C1044 C1048 1.350 . S
C1045 C1048 1.463 . S
C1045 C1050 1.350 . S
C1045 N1053 1.427 . S
C1046 H1037 0.930 . S
C1046 C1044 1.378 . S
C1046 C1047 1.367 . S
C1047 C1046 1.367 . S
C1047 C1049 1.433 . S
C1048 C1044 1.350 . S
C1048 C1045 1.463 . S
C1048 N1052 1.427 . S
C1049 H1039 0.929 . S
C1049 C1047 1.433 . S
C1049 N1052 1.384 . S
C1050 H1041 0.929 . S
C1050 C1042 1.378 . S
C1050 C1045 1.350 . S
C1051 H1038 0.929 . S
C1051 C1043 1.433 . S
C1051 N1053 1.384 . S
N1052 C1048 1.427 . S
N1052 C1049 1.384 . S
N1053 C1045 1.427 . S
N1053 C1051 1.384 . S
H1054 C1060 0.930 . S
H1055 C1064 0.930 . S
H1056 C1069 0.929 . S
H1057 C1067 0.929 . S
H1058 C1062 0.929 . S
H1059 C1068 0.929 . S
C1060 H1054 0.930 . S
C1060 C1061 1.367 1_455 S
C1060 C1068 1.378 . S
C1061 C1060 1.367 1_655 S
C1061 C1069 1.433 . S
C1062 H1058 0.929 . S
C1062 C1064 1.378 . S
C1062 C1066 1.350 . S
C1063 C1066 1.463 . S
C1063 C1068 1.350 . S
C1063 N1071 1.427 1_455 S
C1064 H1055 0.930 . S
C1064 C1062 1.378 . S
C1064 C1065 1.367 . S
C1065 C1064 1.367 . S
C1065 C1067 1.433 . S
C1066 C1062 1.350 . S
C1066 C1063 1.463 . S
C1066 N1070 1.427 . S
C1067 H1057 0.929 . S
C1067 C1065 1.433 . S
C1067 N1070 1.384 . S
C1068 H1059 0.929 . S
C1068 C1060 1.378 . S
C1068 C1063 1.350 . S
C1069 H1056 0.929 . S
C1069 C1061 1.433 . S
C1069 N1071 1.384 . S
N1070 C1066 1.427 . S
N1070 C1067 1.384 . S
N1071 C1063 1.427 1_655 S
N1071 C1069 1.384 . S
H1072 C1078 0.930 . S
H1073 C1082 0.930 . S
H1074 C1087 0.929 . S
H1075 C1085 0.929 . S
H1076 C1080 0.929 . S
H1077 C1086 0.929 . S
C1078 H1072 0.930 . S
C1078 C1079 1.367 . S
C1078 C1086 1.378 . S
C1079 C1078 1.367 . S
C1079 C1087 1.433 . S
C1080 H1076 0.929 . S
C1080 C1082 1.378 . S
C1080 C1084 1.350 . S
C1081 C1084 1.463 . S
C1081 C1086 1.350 . S
C1081 N1089 1.427 . S
C1082 H1073 0.930 . S
C1082 C1080 1.378 . S
C1082 C1083 1.367 . S
C1083 C1082 1.367 . S
C1083 C1085 1.433 . S
C1084 C1080 1.350 . S
C1084 C1081 1.463 . S
C1084 N1088 1.427 . S
C1085 H1075 0.929 . S
C1085 C1083 1.433 . S
C1085 N1088 1.384 . S
C1086 H1077 0.929 . S
C1086 C1078 1.378 . S
C1086 C1081 1.350 . S
C1087 H1074 0.929 . S
C1087 C1079 1.433 . S
C1087 N1089 1.384 . S
N1088 C1084 1.427 . S
N1088 C1085 1.384 . S
N1089 C1081 1.427 . S
N1089 C1087 1.384 . S
H1090 C1096 0.930 . S
H1091 C1100 0.930 . S
H1092 C1105 0.929 . S
H1093 C1103 0.929 . S
H1094 C1098 0.929 1_655 S
H1095 C1104 0.929 . S
C1096 H1090 0.930 . S
C1096 C1097 1.367 . S
C1096 C1104 1.378 . S
C1097 C1096 1.367 . S
C1097 C1105 1.433 . S
C1098 H1094 0.929 1_455 S
C1098 C1100 1.378 . S
C1098 C1102 1.350 . S
C1099 C1102 1.463 1_655 S
C1099 C1104 1.350 . S
C1099 N1107 1.427 . S
C1100 H1091 0.930 . S
C1100 C1098 1.378 . S
C1100 C1101 1.367 . S
C1101 C1100 1.367 . S
C1101 C1103 1.433 . S
C1102 C1098 1.350 . S
C1102 C1099 1.463 1_455 S
C1102 N1106 1.427 . S
C1103 H1093 0.929 . S
C1103 C1101 1.433 . S
C1103 N1106 1.384 . S
C1104 H1095 0.929 . S
C1104 C1096 1.378 . S
C1104 C1099 1.350 . S
C1105 H1092 0.929 . S
C1105 C1097 1.433 . S
C1105 N1107 1.384 . S
N1106 C1102 1.427 . S
N1106 C1103 1.384 . S
N1107 C1099 1.427 . S
N1107 C1105 1.384 . S
H1108 C1114 0.930 . S
H1109 C1118 0.930 . S
H1110 C1123 0.929 . S
H1111 C1121 0.929 . S
H1112 C1116 0.929 . S
H1113 C1122 0.929 . S
C1114 H1108 0.930 . S
C1114 C1115 1.367 . S
C1114 C1122 1.378 . S
C1115 C1114 1.367 . S
C1115 C1123 1.433 . S
C1116 H1112 0.929 . S
C1116 C1118 1.378 . S
C1116 C1120 1.350 . S
C1117 C1120 1.463 . S
C1117 C1122 1.350 . S
C1117 N1125 1.427 . S
C1118 H1109 0.930 . S
C1118 C1116 1.378 . S
C1118 C1119 1.367 . S
C1119 C1118 1.367 . S
C1119 C1121 1.433 . S
C1120 C1116 1.350 . S
C1120 C1117 1.463 . S
C1120 N1124 1.427 . S
C1121 H1111 0.929 . S
C1121 C1119 1.433 . S
C1121 N1124 1.384 . S
C1122 H1113 0.929 . S
C1122 C1114 1.378 . S
C1122 C1117 1.350 . S
C1123 H1110 0.929 . S
C1123 C1115 1.433 . S
C1123 N1125 1.384 . S
N1124 C1120 1.427 . S
N1124 C1121 1.384 . S
N1125 C1117 1.427 . S
N1125 C1123 1.384 . S
H1126 C1132 0.930 . S
H1127 C1136 0.930 . S
H1128 C1141 0.929 . S
H1129 C1139 0.929 . S
H1130 C1134 0.928 . S
H1131 C1140 0.929 1_455 S
C1132 H1126 0.930 . S
C1132 C1133 1.367 . S
C1132 C1140 1.378 . S
C1133 C1132 1.367 . S
C1133 C1141 1.433 . S
C1134 H1130 0.928 . S
C1134 C1136 1.378 1_655 S
C1134 C1138 1.350 1_655 S
C1135 C1138 1.463 1_655 S
C1135 C1140 1.350 . S
C1135 N1143 1.427 . S
C1136 H1127 0.930 . S
C1136 C1134 1.378 1_455 S
C1136 C1137 1.367 . S
C1137 C1136 1.367 . S
C1137 C1139 1.433 . S
C1138 C1134 1.350 1_455 S
C1138 C1135 1.463 1_455 S
C1138 N1142 1.427 . S
C1139 H1129 0.929 . S
C1139 C1137 1.433 . S
C1139 N1142 1.384 . S
C1140 H1131 0.929 1_655 S
C1140 C1132 1.378 . S
C1140 C1135 1.350 . S
C1141 H1128 0.929 . S
C1141 C1133 1.433 . S
C1141 N1143 1.384 . S
N1142 C1138 1.427 . S
N1142 C1139 1.384 . S
N1143 C1135 1.427 . S
N1143 C1141 1.384 . S
H1144 C1150 0.930 . S
H1145 C1154 0.930 . S
H1146 C1159 0.929 . S
H1147 C1157 0.929 . S
H1148 C1152 0.929 . S
H1149 C1158 0.929 . S
C1150 H1144 0.930 . S
C1150 C1151 1.367 . S
C1150 C1158 1.378 . S
C1151 C1150 1.367 . S
C1151 C1159 1.433 . S
C1152 H1148 0.929 . S
C1152 C1154 1.378 . S
C1152 C1156 1.350 . S
C1153 C1156 1.463 . S
C1153 C1158 1.350 . S
C1153 N1161 1.427 . S
C1154 H1145 0.930 . S
C1154 C1152 1.378 . S
C1154 C1155 1.367 . S
C1155 C1154 1.367 . S
C1155 C1157 1.433 . S
C1156 C1152 1.350 . S
C1156 C1153 1.463 . S
C1156 N1160 1.427 . S
C1157 H1147 0.929 . S
C1157 C1155 1.433 . S
C1157 N1160 1.384 . S
C1158 H1149 0.929 . S
C1158 C1150 1.378 . S
C1158 C1153 1.350 . S
C1159 H1146 0.929 . S
C1159 C1151 1.433 . S
C1159 N1161 1.384 . S
N1160 C1156 1.427 . S
N1160 C1157 1.384 . S
N1161 C1153 1.427 . S
N1161 C1159 1.384 . S
H1162 C1168 0.930 . S
H1163 C1172 0.930 . S
H1164 C1177 0.929 . S
H1165 C1175 0.929 . S
H1166 C1170 0.929 . S
H1167 C1176 0.929 1_455 S
C1168 H1162 0.930 . S
C1168 C1169 1.367 . S
C1168 C1176 1.378 . S
C1169 C1168 1.367 . S
C1169 C1177 1.433 . S
C1170 H1166 0.929 . S
C1170 C1172 1.378 . S
C1170 C1174 1.350 . S
C1171 C1174 1.463 1_655 S
C1171 C1176 1.350 . S
C1171 N1179 1.427 . S
C1172 H1163 0.930 . S
C1172 C1170 1.378 . S
C1172 C1173 1.367 . S
C1173 C1172 1.367 . S
C1173 C1175 1.433 . S
C1174 C1170 1.350 . S
C1174 C1171 1.463 1_455 S
C1174 N1178 1.427 . S
C1175 H1165 0.929 . S
C1175 C1173 1.433 . S
C1175 N1178 1.384 . S
C1176 H1167 0.929 1_655 S
C1176 C1168 1.378 . S
C1176 C1171 1.350 . S
C1177 H1164 0.929 . S
C1177 C1169 1.433 . S
C1177 N1179 1.384 . S
N1178 C1174 1.427 . S
N1178 C1175 1.384 . S
N1179 C1171 1.427 . S
N1179 C1177 1.384 . S
H1180 C1186 0.930 . S
H1181 C1190 0.930 . S
H1182 C1195 0.929 . S
H1183 C1193 0.929 . S
H1184 C1188 0.929 . S
H1185 C1194 0.929 . S
C1186 H1180 0.930 . S
C1186 C1187 1.367 . S
C1186 C1194 1.378 . S
C1187 C1186 1.367 . S
C1187 C1195 1.433 . S
C1188 H1184 0.929 . S
C1188 C1190 1.378 . S
C1188 C1192 1.350 . S
C1189 C1192 1.463 . S
C1189 C1194 1.350 . S
C1189 N1197 1.427 . S
C1190 H1181 0.930 . S
C1190 C1188 1.378 . S
C1190 C1191 1.367 . S
C1191 C1190 1.367 . S
C1191 C1193 1.433 . S
C1192 C1188 1.350 . S
C1192 C1189 1.463 . S
C1192 N1196 1.427 . S
C1193 H1183 0.929 . S
C1193 C1191 1.433 . S
C1193 N1196 1.384 . S
C1194 H1185 0.929 . S
C1194 C1186 1.378 . S
C1194 C1189 1.350 . S
C1195 H1182 0.929 . S
C1195 C1187 1.433 . S
C1195 N1197 1.384 . S
N1196 C1192 1.427 . S
N1196 C1193 1.384 . S
N1197 C1189 1.427 . S
N1197 C1195 1.384 . S
H1198 C1204 0.930 . S
H1199 C1208 0.930 . S
H1200 C1213 0.929 . S
H1201 C1211 0.929 . S
H1202 C1206 0.929 . S
H1203 C1212 0.929 . S
C1204 H1198 0.930 . S
C1204 C1205 1.367 . S
C1204 C1212 1.378 . S
C1205 C1204 1.367 . S
C1205 C1213 1.433 . S
C1206 H1202 0.929 . S
C1206 C1208 1.378 . S
C1206 C1210 1.350 . S
C1207 C1210 1.463 1_655 S
C1207 C1212 1.350 . S
C1207 N1215 1.427 1_655 S
C1208 H1199 0.930 . S
C1208 C1206 1.378 . S
C1208 C1209 1.367 . S
C1209 C1208 1.367 . S
C1209 C1211 1.433 . S
C1210 C1206 1.350 . S
C1210 C1207 1.463 1_455 S
C1210 N1214 1.427 . S
C1211 H1201 0.929 . S
C1211 C1209 1.433 . S
C1211 N1214 1.384 . S
C1212 H1203 0.929 . S
C1212 C1204 1.378 . S
C1212 C1207 1.350 . S
C1213 H1200 0.929 . S
C1213 C1205 1.433 . S
C1213 N1215 1.384 1_655 S
N1214 C1210 1.427 . S
N1214 C1211 1.384 . S
N1215 C1207 1.427 1_455 S
N1215 C1213 1.384 1_455 S
H1216 C1222 0.930 . S
H1217 C1226 0.930 . S
H1218 C1231 0.929 . S
H1219 C1229 0.929 . S
H1220 C1224 0.929 . S
H1221 C1230 0.929 . S
C1222 H1216 0.930 . S
C1222 C1223 1.367 . S
C1222 C1230 1.378 . S
C1223 C1222 1.367 . S
C1223 C1231 1.433 . S
C1224 H1220 0.929 . S
C1224 C1226 1.378 . S
C1224 C1228 1.350 . S
C1225 C1228 1.463 . S
C1225 C1230 1.350 . S
C1225 N1233 1.427 . S
C1226 H1217 0.930 . S
C1226 C1224 1.378 . S
C1226 C1227 1.367 . S
C1227 C1226 1.367 . S
C1227 C1229 1.433 . S
C1228 C1224 1.350 . S
C1228 C1225 1.463 . S
C1228 N1232 1.427 . S
C1229 H1219 0.929 . S
C1229 C1227 1.433 . S
C1229 N1232 1.384 . S
C1230 H1221 0.929 . S
C1230 C1222 1.378 . S
C1230 C1225 1.350 . S
C1231 H1218 0.929 . S
C1231 C1223 1.433 . S
C1231 N1233 1.384 . S
N1232 C1228 1.427 . S
N1232 C1229 1.384 . S
N1233 C1225 1.427 . S
N1233 C1231 1.384 . S
H1234 C1240 0.930 . S
H1235 C1244 0.930 . S
H1236 C1249 0.929 . S
H1237 C1247 0.929 . S
H1238 C1242 0.929 1_455 S
H1239 C1248 0.929 1_655 S
C1240 H1234 0.930 . S
C1240 C1241 1.367 . S
C1240 C1248 1.378 . S
C1241 C1240 1.367 . S
C1241 C1249 1.433 . S
C1242 H1238 0.929 1_655 S
C1242 C1244 1.378 . S
C1242 C1246 1.350 . S
C1243 C1246 1.463 1_455 S
C1243 C1248 1.350 . S
C1243 N1251 1.427 . S
C1244 H1235 0.930 . S
C1244 C1242 1.378 . S
C1244 C1245 1.367 . S
C1245 C1244 1.367 . S
C1245 C1247 1.433 . S
C1246 C1242 1.350 . S
C1246 C1243 1.463 1_655 S
C1246 N1250 1.427 . S
C1247 H1237 0.929 . S
C1247 C1245 1.433 . S
C1247 N1250 1.384 . S
C1248 H1239 0.929 1_455 S
C1248 C1240 1.378 . S
C1248 C1243 1.350 . S
C1249 H1236 0.929 . S
C1249 C1241 1.433 . S
C1249 N1251 1.384 . S
N1250 C1246 1.427 . S
N1250 C1247 1.384 . S
N1251 C1243 1.427 . S
N1251 C1249 1.384 . S
H1252 C1258 0.930 . S
H1253 C1262 0.930 . S
H1254 C1267 0.929 . S
H1255 C1265 0.929 . S
H1256 C1260 0.929 . S
H1257 C1266 0.929 . S
C1258 H1252 0.930 . S
C1258 C1259 1.367 . S
C1258 C1266 1.378 . S
C1259 C1258 1.367 . S
C1259 C1267 1.433 . S
C1260 H1256 0.929 . S
C1260 C1262 1.378 . S
C1260 C1264 1.350 . S
C1261 C1264 1.463 . S
C1261 C1266 1.350 . S
C1261 N1269 1.427 . S
C1262 H1253 0.930 . S
C1262 C1260 1.378 . S
C1262 C1263 1.367 . S
C1263 C1262 1.367 . S
C1263 C1265 1.433 . S
C1264 C1260 1.350 . S
C1264 C1261 1.463 . S
C1264 N1268 1.427 . S
C1265 H1255 0.929 . S
C1265 C1263 1.433 . S
C1265 N1268 1.384 . S
C1266 H1257 0.929 . S
C1266 C1258 1.378 . S
C1266 C1261 1.350 . S
C1267 H1254 0.929 . S
C1267 C1259 1.433 . S
C1267 N1269 1.384 . S
N1268 C1264 1.427 . S
N1268 C1265 1.384 . S
N1269 C1261 1.427 . S
N1269 C1267 1.384 . S
H1270 C1276 0.930 . S
H1271 C1280 0.930 . S
H1272 C1285 0.929 . S
H1273 C1283 0.929 . S
H1274 C1278 0.929 . S
H1275 C1284 0.929 . S
C1276 H1270 0.930 . S
C1276 C1277 1.367 . S
C1276 C1284 1.378 . S
C1277 C1276 1.367 . S
C1277 C1285 1.433 . S
C1278 H1274 0.929 . S
C1278 C1280 1.378 . S
C1278 C1282 1.350 . S
C1279 C1282 1.463 1_655 S
C1279 C1284 1.350 . S
C1279 N1287 1.427 . S
C1280 H1271 0.930 . S
C1280 C1278 1.378 . S
C1280 C1281 1.367 . S
C1281 C1280 1.367 . S
C1281 C1283 1.433 . S
C1282 C1278 1.350 . S
C1282 C1279 1.463 1_455 S
C1282 N1286 1.427 . S
C1283 H1273 0.929 . S
C1283 C1281 1.433 . S
C1283 N1286 1.384 . S
C1284 H1275 0.929 . S
C1284 C1276 1.378 . S
C1284 C1279 1.350 . S
C1285 H1272 0.929 . S
C1285 C1277 1.433 . S
C1285 N1287 1.384 . S
N1286 C1282 1.427 . S
N1286 C1283 1.384 . S
N1287 C1279 1.427 . S
N1287 C1285 1.384 . S
H1288 C1294 0.930 . S
H1289 C1298 0.930 . S
H1290 C1303 0.929 . S
H1291 C1301 0.929 . S
H1292 C1296 0.929 . S
H1293 C1302 0.929 . S
C1294 H1288 0.930 . S
C1294 C1295 1.367 . S
C1294 C1302 1.378 . S
C1295 C1294 1.367 . S
C1295 C1303 1.433 . S
C1296 H1292 0.929 . S
C1296 C1298 1.378 . S
C1296 C1300 1.350 . S
C1297 C1300 1.463 . S
C1297 C1302 1.350 . S
C1297 N1305 1.427 . S
C1298 H1289 0.930 . S
C1298 C1296 1.378 . S
C1298 C1299 1.367 . S
C1299 C1298 1.367 . S
C1299 C1301 1.433 . S
C1300 C1296 1.350 . S
C1300 C1297 1.463 . S
C1300 N1304 1.427 . S
C1301 H1291 0.929 . S
C1301 C1299 1.433 . S
C1301 N1304 1.384 . S
C1302 H1293 0.929 . S
C1302 C1294 1.378 . S
C1302 C1297 1.350 . S
C1303 H1290 0.929 . S
C1303 C1295 1.433 . S
C1303 N1305 1.384 . S
N1304 C1300 1.427 . S
N1304 C1301 1.384 . S
N1305 C1297 1.427 . S
N1305 C1303 1.384 . S
H1306 C1312 0.930 . S
H1307 C1316 0.930 . S
H1308 C1321 0.929 . S
H1309 C1319 0.929 . S
H1310 C1314 0.932 . S
H1311 C1320 0.929 . S
C1312 H1306 0.930 . S
C1312 C1313 1.367 . S
C1312 C1320 1.378 . S
C1313 C1312 1.367 . S
C1313 C1321 1.433 . S
C1314 H1310 0.932 . S
C1314 C1316 1.378 . S
C1314 C1318 1.350 . S
C1315 C1318 1.463 1_455 S
C1315 C1320 1.350 . S
C1315 N1323 1.427 . S
C1316 H1307 0.930 . S
C1316 C1314 1.378 . S
C1316 C1317 1.367 . S
C1317 C1316 1.367 . S
C1317 C1319 1.433 . S
C1318 C1314 1.350 . S
C1318 C1315 1.463 1_655 S
C1318 N1322 1.427 . S
C1319 H1309 0.929 . S
C1319 C1317 1.433 . S
C1319 N1322 1.384 . S
C1320 H1311 0.929 . S
C1320 C1312 1.378 . S
C1320 C1315 1.350 . S
C1321 H1308 0.929 . S
C1321 C1313 1.433 . S
C1321 N1323 1.384 . S
N1322 C1318 1.427 . S
N1322 C1319 1.384 . S
N1323 C1315 1.427 . S
N1323 C1321 1.384 . S
H1324 C1330 0.930 . S
H1325 C1334 0.930 . S
H1326 C1339 0.929 . S
H1327 C1337 0.929 . S
H1328 C1332 0.929 . S
H1329 C1338 0.929 . S
C1330 H1324 0.930 . S
C1330 C1331 1.367 . S
C1330 C1338 1.378 . S
C1331 C1330 1.367 . S
C1331 C1339 1.433 . S
C1332 H1328 0.929 . S
C1332 C1334 1.378 . S
C1332 C1336 1.350 . S
C1333 C1336 1.463 . S
C1333 C1338 1.350 . S
C1333 N1341 1.427 . S
C1334 H1325 0.930 . S
C1334 C1332 1.378 . S
C1334 C1335 1.367 . S
C1335 C1334 1.367 . S
C1335 C1337 1.433 . S
C1336 C1332 1.350 . S
C1336 C1333 1.463 . S
C1336 N1340 1.427 . S
C1337 H1327 0.929 . S
C1337 C1335 1.433 . S
C1337 N1340 1.384 . S
C1338 H1329 0.929 . S
C1338 C1330 1.378 . S
C1338 C1333 1.350 . S
C1339 H1326 0.929 . S
C1339 C1331 1.433 . S
C1339 N1341 1.384 . S
N1340 C1336 1.427 . S
N1340 C1337 1.384 . S
N1341 C1333 1.427 . S
N1341 C1339 1.384 . S
H1342 C1348 0.930 . S
H1343 C1352 0.930 . S
H1344 C1357 0.929 . S
H1345 C1355 0.929 . S
H1346 C1350 0.929 . S
H1347 C1356 0.929 . S
C1348 H1342 0.930 . S
C1348 C1349 1.367 . S
C1348 C1356 1.378 . S
C1349 C1348 1.367 . S
C1349 C1357 1.433 . S
C1350 H1346 0.929 . S
C1350 C1352 1.378 . S
C1350 C1354 1.350 . S
C1351 C1354 1.463 1_455 S
C1351 C1356 1.350 . S
C1351 N1359 1.427 . S
C1352 H1343 0.930 . S
C1352 C1350 1.378 . S
C1352 C1353 1.367 . S
C1353 C1352 1.367 . S
C1353 C1355 1.433 . S
C1354 C1350 1.350 . S
C1354 C1351 1.463 1_655 S
C1354 N1358 1.427 . S
C1355 H1345 0.929 . S
C1355 C1353 1.433 . S
C1355 N1358 1.384 . S
C1356 H1347 0.929 . S
C1356 C1348 1.378 . S
C1356 C1351 1.350 . S
C1357 H1344 0.929 . S
C1357 C1349 1.433 . S
C1357 N1359 1.384 . S
N1358 C1354 1.427 . S
N1358 C1355 1.384 . S
N1359 C1351 1.427 . S
N1359 C1357 1.384 . S
H1360 C1366 0.930 . S
H1361 C1370 0.930 . S
H1362 C1375 0.929 . S
H1363 C1373 0.929 . S
H1364 C1368 0.929 . S
H1365 C1374 0.929 . S
C1366 H1360 0.930 . S
C1366 C1367 1.367 . S
C1366 C1374 1.378 . S
C1367 C1366 1.367 . S
C1367 C1375 1.433 . S
C1368 H1364 0.929 . S
C1368 C1370 1.378 . S
C1368 C1372 1.350 . S
C1369 C1372 1.463 . S
C1369 C1374 1.350 . S
C1369 N1377 1.427 . S
C1370 H1361 0.930 . S
C1370 C1368 1.378 . S
C1370 C1371 1.367 . S
C1371 C1370 1.367 . S
C1371 C1373 1.433 . S
C1372 C1368 1.350 . S
C1372 C1369 1.463 . S
C1372 N1376 1.427 . S
C1373 H1363 0.929 . S
C1373 C1371 1.433 . S
C1373 N1376 1.384 . S
C1374 H1365 0.929 . S
C1374 C1366 1.378 . S
C1374 C1369 1.350 . S
C1375 H1362 0.929 . S
C1375 C1367 1.433 . S
C1375 N1377 1.384 . S
N1376 C1372 1.427 . S
N1376 C1373 1.384 . S
N1377 C1369 1.427 . S
N1377 C1375 1.384 . S
H1378 C1384 0.930 . S
H1379 C1388 0.930 . S
H1380 C1393 0.929 . S
H1381 C1391 0.929 . S
H1382 C1386 0.929 . S
H1383 C1392 0.929 . S
C1384 H1378 0.930 . S
C1384 C1385 1.367 . S
C1384 C1392 1.378 . S
C1385 C1384 1.367 . S
C1385 C1393 1.433 1_655 S
C1386 H1382 0.929 . S
C1386 C1388 1.378 . S
C1386 C1390 1.350 . S
C1387 C1390 1.463 1_665 S
C1387 C1392 1.350 . S
C1387 N1395 1.427 1_655 S
C1388 H1379 0.930 . S
C1388 C1386 1.378 . S
C1388 C1389 1.367 . S
C1389 C1388 1.367 . S
C1389 C1391 1.433 1_455 S
C1390 C1386 1.350 . S
C1390 C1387 1.463 1_445 S
C1390 N1394 1.427 1_455 S
C1391 H1381 0.929 . S
C1391 C1389 1.433 1_655 S
C1391 N1394 1.384 . S
C1392 H1383 0.929 . S
C1392 C1384 1.378 . S
C1392 C1387 1.350 . S
C1393 H1380 0.929 . S
C1393 C1385 1.433 1_455 S
C1393 N1395 1.384 . S
N1394 C1390 1.427 1_655 S
N1394 C1391 1.384 . S
N1395 C1387 1.427 1_455 S
N1395 C1393 1.384 . S
H1396 C1402 0.930 . S
H1397 C1406 0.930 . S
H1398 C1411 0.929 . S
H1399 C1409 0.929 . S
H1400 C1404 0.929 . S
H1401 C1410 0.929 . S
C1402 H1396 0.930 . S
C1402 C1403 1.367 . S
C1402 C1410 1.378 . S
C1403 C1402 1.367 . S
C1403 C1411 1.433 . S
C1404 H1400 0.929 . S
C1404 C1406 1.378 . S
C1404 C1408 1.350 . S
C1405 C1408 1.463 1_565 S
C1405 C1410 1.350 . S
C1405 N1413 1.430 . S
C1406 H1397 0.930 . S
C1406 C1404 1.378 . S
C1406 C1407 1.367 . S
C1407 C1406 1.367 . S
C1407 C1409 1.433 . S
C1408 C1404 1.350 . S
C1408 C1405 1.463 1_545 S
C1408 N1412 1.430 . S
C1409 H1399 0.929 . S
C1409 C1407 1.433 . S
C1409 N1412 1.388 . S
C1410 H1401 0.929 . S
C1410 C1402 1.378 . S
C1410 C1405 1.350 . S
C1411 H1398 0.929 . S
C1411 C1403 1.433 . S
C1411 N1413 1.388 . S
N1412 C1408 1.430 . S
N1412 C1409 1.388 . S
N1413 C1405 1.430 . S
N1413 C1411 1.388 . S
H1414 C1420 0.930 . S
H1415 C1424 0.930 . S
H1416 C1429 0.929 . S
H1417 C1427 0.929 . S
H1418 C1422 0.929 . S
H1419 C1428 0.929 . S
C1420 H1414 0.930 . S
C1420 C1421 1.367 . S
C1420 C1428 1.378 . S
C1421 C1420 1.367 . S
C1421 C1429 1.433 . S
C1422 H1418 0.929 . S
C1422 C1424 1.378 . S
C1422 C1426 1.350 . S
C1423 C1426 1.463 1_455 S
C1423 C1428 1.350 . S
C1423 N1431 1.427 . S
C1424 H1415 0.930 . S
C1424 C1422 1.378 . S
C1424 C1425 1.367 . S
C1425 C1424 1.367 . S
C1425 C1427 1.433 . S
C1426 C1422 1.350 . S
C1426 C1423 1.463 1_655 S
C1426 N1430 1.427 . S
C1427 H1417 0.929 . S
C1427 C1425 1.433 . S
C1427 N1430 1.384 . S
C1428 H1419 0.929 . S
C1428 C1420 1.378 . S
C1428 C1423 1.350 . S
C1429 H1416 0.929 . S
C1429 C1421 1.433 . S
C1429 N1431 1.384 . S
N1430 C1426 1.427 . S
N1430 C1427 1.384 . S
N1431 C1423 1.427 . S
N1431 C1429 1.384 . S
H1432 C1438 0.930 . S
H1433 C1442 0.930 . S
H1434 C1447 0.929 . S
H1435 C1445 0.929 . S
H1436 C1440 0.929 . S
H1437 C1446 0.929 . S
C1438 H1432 0.930 . S
C1438 C1439 1.367 . S
C1438 C1446 1.378 . S
C1439 C1438 1.367 . S
C1439 C1447 1.433 . S
C1440 H1436 0.929 . S
C1440 C1442 1.378 . S
C1440 C1444 1.350 . S
C1441 C1444 1.463 . S
C1441 C1446 1.350 . S
C1441 N1449 1.427 . S
C1442 H1433 0.930 . S
C1442 C1440 1.378 . S
C1442 C1443 1.367 . S
C1443 C1442 1.367 . S
C1443 C1445 1.433 . S
C1444 C1440 1.350 . S
C1444 C1441 1.463 . S
C1444 N1448 1.427 . S
C1445 H1435 0.929 . S
C1445 C1443 1.433 . S
C1445 N1448 1.384 . S
C1446 H1437 0.929 . S
C1446 C1438 1.378 . S
C1446 C1441 1.350 . S
C1447 H1434 0.929 . S
C1447 C1439 1.433 . S
C1447 N1449 1.384 . S
N1448 C1444 1.427 . S
N1448 C1445 1.384 . S
N1449 C1441 1.427 . S
N1449 C1447 1.384 . S
H1450 C1456 0.930 . S
H1451 C1460 0.930 . S
H1452 C1465 0.929 . S
H1453 C1463 0.929 . S
H1454 C1458 0.929 . S
H1455 C1464 0.929 . S
C1456 H1450 0.930 . S
C1456 C1457 1.367 . S
C1456 C1464 1.378 . S
C1457 C1456 1.367 . S
C1457 C1465 1.433 . S
C1458 H1454 0.929 . S
C1458 C1460 1.378 . S
C1458 C1462 1.350 . S
C1459 C1462 1.463 1_565 S
C1459 C1464 1.350 . S
C1459 N1467 1.427 . S
C1460 H1451 0.930 . S
C1460 C1458 1.378 . S
C1460 C1461 1.367 . S
C1461 C1460 1.367 . S
C1461 C1463 1.433 . S
C1462 C1458 1.350 . S
C1462 C1459 1.463 1_545 S
C1462 N1466 1.427 . S
C1463 H1453 0.929 . S
C1463 C1461 1.433 . S
C1463 N1466 1.384 . S
C1464 H1455 0.929 . S
C1464 C1456 1.378 . S
C1464 C1459 1.350 . S
C1465 H1452 0.929 . S
C1465 C1457 1.433 . S
C1465 N1467 1.384 . S
N1466 C1462 1.427 . S
N1466 C1463 1.384 . S
N1467 C1459 1.427 . S
N1467 C1465 1.384 . S
H1468 C1474 0.930 . S
H1469 C1478 0.930 . S
H1470 C1483 0.929 1_655 S
H1471 C1481 0.929 1_455 S
H1472 C1476 0.929 . S
H1473 C1482 0.929 . S
C1474 H1468 0.930 . S
C1474 C1475 1.367 . S
C1474 C1482 1.378 . S
C1475 C1474 1.367 . S
C1475 C1483 1.433 . S
C1476 H1472 0.929 . S
C1476 C1478 1.378 . S
C1476 C1480 1.350 . S
C1477 C1480 1.463 1_455 S
C1477 C1482 1.350 . S
C1477 N1485 1.427 1_455 S
C1478 H1469 0.930 . S
C1478 C1476 1.378 . S
C1478 C1479 1.367 . S
C1479 C1478 1.367 . S
C1479 C1481 1.433 . S
C1480 C1476 1.350 . S
C1480 C1477 1.463 1_655 S
C1480 N1484 1.427 1_655 S
C1481 H1471 0.929 1_655 S
C1481 C1479 1.433 . S
C1481 N1484 1.384 1_655 S
C1482 H1473 0.929 . S
C1482 C1474 1.378 . S
C1482 C1477 1.350 . S
C1483 H1470 0.929 1_455 S
C1483 C1475 1.433 . S
C1483 N1485 1.384 1_455 S
N1484 C1480 1.427 1_455 S
N1484 C1481 1.384 1_455 S
N1485 C1477 1.427 1_655 S
N1485 C1483 1.384 1_655 S
H1486 C1492 0.930 . S
H1487 C1496 0.930 . S
H1488 C1501 0.929 . S
H1489 C1499 0.929 . S
H1490 C1494 0.929 . S
H1491 C1500 0.929 . S
C1492 H1486 0.930 . S
C1492 C1493 1.367 . S
C1492 C1500 1.378 . S
C1493 C1492 1.367 . S
C1493 C1501 1.433 . S
C1494 H1490 0.929 . S
C1494 C1496 1.378 . S
C1494 C1498 1.350 . S
C1495 C1498 1.463 1_554 S
C1495 C1500 1.350 . S
C1495 N1503 1.427 . S
C1496 H1487 0.930 . S
C1496 C1494 1.378 . S
C1496 C1497 1.367 . S
C1497 C1496 1.367 . S
C1497 C1499 1.433 . S
C1498 C1494 1.350 . S
C1498 C1495 1.463 1_556 S
C1498 N1502 1.427 . S
C1499 H1489 0.929 . S
C1499 C1497 1.433 . S
C1499 N1502 1.384 . S
C1500 H1491 0.929 . S
C1500 C1492 1.378 . S
C1500 C1495 1.350 . S
C1501 H1488 0.929 . S
C1501 C1493 1.433 . S
C1501 N1503 1.384 . S
N1502 C1498 1.427 . S
N1502 C1499 1.384 . S
N1503 C1495 1.427 . S
N1503 C1501 1.384 . S
H1504 C1510 0.930 . S
H1505 C1514 0.930 . S
H1506 C1519 0.929 . S
H1507 C1517 0.929 . S
H1508 C1512 0.929 1_456 S
H1509 C1518 0.929 1_654 S
C1510 H1504 0.930 . S
C1510 C1511 1.367 . S
C1510 C1518 1.378 . S
C1511 C1510 1.367 . S
C1511 C1519 1.433 . S
C1512 H1508 0.929 1_654 S
C1512 C1514 1.378 . S
C1512 C1516 1.350 . S
C1513 C1516 1.463 1_456 S
C1513 C1518 1.350 . S
C1513 N1521 1.427 . S
C1514 H1505 0.930 . S
C1514 C1512 1.378 . S
C1514 C1515 1.367 . S
C1515 C1514 1.367 . S
C1515 C1517 1.433 . S
C1516 C1512 1.350 . S
C1516 C1513 1.463 1_654 S
C1516 N1520 1.427 . S
C1517 H1507 0.929 . S
C1517 C1515 1.433 . S
C1517 N1520 1.384 . S
C1518 H1509 0.929 1_456 S
C1518 C1510 1.378 . S
C1518 C1513 1.350 . S
C1519 H1506 0.929 . S
C1519 C1511 1.433 . S
C1519 N1521 1.384 . S
N1520 C1516 1.427 . S
N1520 C1517 1.384 . S
N1521 C1513 1.427 . S
N1521 C1519 1.384 . S
H1522 C1528 0.930 . S
H1523 C1532 0.930 . S
H1524 C1537 0.929 . S
H1525 C1535 0.929 . S
H1526 C1530 0.929 . S
H1527 C1536 0.929 . S
C1528 H1522 0.930 . S
C1528 C1529 1.367 . S
C1528 C1536 1.378 . S
C1529 C1528 1.367 . S
C1529 C1537 1.433 . S
C1530 H1526 0.929 . S
C1530 C1532 1.378 . S
C1530 C1534 1.350 . S
C1531 C1534 1.463 . S
C1531 C1536 1.350 . S
C1531 N1539 1.427 . S
C1532 H1523 0.930 . S
C1532 C1530 1.378 . S
C1532 C1533 1.367 . S
C1533 C1532 1.367 . S
C1533 C1535 1.433 . S
C1534 C1530 1.350 . S
C1534 C1531 1.463 . S
C1534 N1538 1.427 . S
C1535 H1525 0.929 . S
C1535 C1533 1.433 . S
C1535 N1538 1.384 . S
C1536 H1527 0.929 . S
C1536 C1528 1.378 . S
C1536 C1531 1.350 . S
C1537 H1524 0.929 . S
C1537 C1529 1.433 . S
C1537 N1539 1.384 . S
N1538 C1534 1.427 . S
N1538 C1535 1.384 . S
N1539 C1531 1.427 . S
N1539 C1537 1.384 . S
H1540 C1546 0.930 . S
H1541 C1550 0.930 . S
H1542 C1555 0.929 . S
H1543 C1553 0.929 . S
H1544 C1548 0.929 . S
H1545 C1554 0.929 . S
C1546 H1540 0.930 . S
C1546 C1547 1.367 . S
C1546 C1554 1.378 . S
C1547 C1546 1.367 . S
C1547 C1555 1.433 . S
C1548 H1544 0.929 . S
C1548 C1550 1.378 . S
C1548 C1552 1.350 . S
C1549 C1552 1.463 1_556 S
C1549 C1554 1.350 . S
C1549 N1557 1.427 . S
C1550 H1541 0.930 . S
C1550 C1548 1.378 . S
C1550 C1551 1.367 . S
C1551 C1550 1.367 . S
C1551 C1553 1.433 . S
C1552 C1548 1.350 . S
C1552 C1549 1.463 1_554 S
C1552 N1556 1.427 . S
C1553 H1543 0.929 . S
C1553 C1551 1.433 . S
C1553 N1556 1.384 . S
C1554 H1545 0.929 . S
C1554 C1546 1.378 . S
C1554 C1549 1.350 . S
C1555 H1542 0.929 . S
C1555 C1547 1.433 . S
C1555 N1557 1.384 . S
N1556 C1552 1.427 . S
N1556 C1553 1.384 . S
N1557 C1549 1.427 . S
N1557 C1555 1.384 . S
H1558 C1564 0.930 . S
H1559 C1568 0.930 . S
H1560 C1573 0.929 . S
H1561 C1571 0.929 . S
H1562 C1566 0.929 . S
H1563 C1572 0.929 . S
C1564 H1558 0.930 . S
C1564 C1565 1.367 . S
C1564 C1572 1.378 . S
C1565 C1564 1.367 . S
C1565 C1573 1.433 . S
C1566 H1562 0.929 . S
C1566 C1568 1.378 . S
C1566 C1570 1.350 . S
C1567 C1570 1.463 . S
C1567 C1572 1.350 . S
C1567 N1575 1.427 . S
C1568 H1559 0.930 . S
C1568 C1566 1.378 . S
C1568 C1569 1.367 . S
C1569 C1568 1.367 . S
C1569 C1571 1.433 . S
C1570 C1566 1.350 . S
C1570 C1567 1.463 . S
C1570 N1574 1.427 . S
C1571 H1561 0.929 . S
C1571 C1569 1.433 . S
C1571 N1574 1.384 . S
C1572 H1563 0.929 . S
C1572 C1564 1.378 . S
C1572 C1567 1.350 . S
C1573 H1560 0.929 . S
C1573 C1565 1.433 . S
C1573 N1575 1.384 . S
N1574 C1570 1.427 . S
N1574 C1571 1.384 . S
N1575 C1567 1.427 . S
N1575 C1573 1.384 . S
H1576 C1582 0.930 . S
H1577 C1586 0.930 . S
H1578 C1591 0.929 . S
H1579 C1589 0.929 . S
H1580 C1584 0.929 1_556 S
H1581 C1590 0.929 1_554 S
C1582 H1576 0.930 . S
C1582 C1583 1.367 . S
C1582 C1590 1.378 . S
C1583 C1582 1.367 . S
C1583 C1591 1.433 . S
C1584 H1580 0.929 1_554 S
C1584 C1586 1.378 . S
C1584 C1588 1.350 . S
C1585 C1588 1.463 1_546 S
C1585 C1590 1.350 . S
C1585 N1593 1.427 1_545 S
C1586 H1577 0.930 . S
C1586 C1584 1.378 . S
C1586 C1587 1.367 . S
C1587 C1586 1.367 . S
C1587 C1589 1.433 . S
C1588 C1584 1.350 . S
C1588 C1585 1.463 1_564 S
C1588 N1592 1.427 1_565 S
C1589 H1579 0.929 . S
C1589 C1587 1.433 . S
C1589 N1592 1.384 1_565 S
C1590 H1581 0.929 1_556 S
C1590 C1582 1.378 . S
C1590 C1585 1.350 . S
C1591 H1578 0.929 . S
C1591 C1583 1.433 . S
C1591 N1593 1.384 1_545 S
N1592 C1588 1.427 1_545 S
N1592 C1589 1.384 1_545 S
N1593 C1585 1.427 1_565 S
N1593 C1591 1.384 1_565 S
H1594 C1600 0.930 . S
H1595 C1604 0.930 . S
H1596 C1609 0.929 . S
H1597 C1607 0.929 . S
H1598 C1602 0.929 . S
H1599 C1608 0.929 . S
C1600 H1594 0.930 . S
C1600 C1601 1.367 . S
C1600 C1608 1.378 . S
C1601 C1600 1.367 . S
C1601 C1609 1.433 . S
C1602 H1598 0.929 . S
C1602 C1604 1.378 . S
C1602 C1606 1.350 . S
C1603 C1606 1.463 . S
C1603 C1608 1.350 . S
C1603 N1611 1.427 . S
C1604 H1595 0.930 . S
C1604 C1602 1.378 . S
C1604 C1605 1.367 . S
C1605 C1604 1.367 . S
C1605 C1607 1.433 . S
C1606 C1602 1.350 . S
C1606 C1603 1.463 . S
C1606 N1610 1.427 . S
C1607 H1597 0.929 . S
C1607 C1605 1.433 . S
C1607 N1610 1.384 . S
C1608 H1599 0.929 . S
C1608 C1600 1.378 . S
C1608 C1603 1.350 . S
C1609 H1596 0.929 . S
C1609 C1601 1.433 . S
C1609 N1611 1.384 . S
N1610 C1606 1.427 . S
N1610 C1607 1.384 . S
N1611 C1603 1.427 . S
N1611 C1609 1.384 . S
H1612 C1618 0.930 . S
H1613 C1622 0.930 . S
H1614 C1627 0.929 . S
H1615 C1625 0.929 . S
H1616 C1620 0.929 . S
H1617 C1626 0.929 . S
C1618 H1612 0.930 . S
C1618 C1619 1.367 . S
C1618 C1626 1.378 . S
C1619 C1618 1.367 . S
C1619 C1627 1.433 . S
C1620 H1616 0.929 . S
C1620 C1622 1.378 . S
C1620 C1624 1.350 . S
C1621 C1624 1.463 . S
C1621 C1626 1.350 . S
C1621 N1629 1.427 . S
C1622 H1613 0.930 . S
C1622 C1620 1.378 . S
C1622 C1623 1.367 . S
C1623 C1622 1.367 . S
C1623 C1625 1.433 . S
C1624 C1620 1.350 . S
C1624 C1621 1.463 . S
C1624 N1628 1.427 . S
C1625 H1615 0.929 . S
C1625 C1623 1.433 . S
C1625 N1628 1.384 . S
C1626 H1617 0.929 . S
C1626 C1618 1.378 . S
C1626 C1621 1.350 . S
C1627 H1614 0.929 . S
C1627 C1619 1.433 . S
C1627 N1629 1.384 . S
N1628 C1624 1.427 . S
N1628 C1625 1.384 . S
N1629 C1621 1.427 . S
N1629 C1627 1.384 . S
H1630 C1636 0.930 . S
H1631 C1640 0.930 . S
H1632 C1645 0.929 . S
H1633 C1643 0.929 . S
H1634 C1638 0.929 . S
H1635 C1644 0.929 . S
C1636 H1630 0.930 . S
C1636 C1637 1.367 . S
C1636 C1644 1.378 . S
C1637 C1636 1.367 . S
C1637 C1645 1.433 . S
C1638 H1634 0.929 . S
C1638 C1640 1.378 . S
C1638 C1642 1.350 . S
C1639 C1642 1.463 . S
C1639 C1644 1.350 . S
C1639 N1647 1.427 . S
C1640 H1631 0.930 . S
C1640 C1638 1.378 . S
C1640 C1641 1.367 . S
C1641 C1640 1.367 . S
C1641 C1643 1.433 . S
C1642 C1638 1.350 . S
C1642 C1639 1.463 . S
C1642 N1646 1.427 . S
C1643 H1633 0.929 . S
C1643 C1641 1.433 . S
C1643 N1646 1.384 . S
C1644 H1635 0.929 . S
C1644 C1636 1.378 . S
C1644 C1639 1.350 . S
C1645 H1632 0.929 . S
C1645 C1637 1.433 . S
C1645 N1647 1.384 . S
N1646 C1642 1.427 . S
N1646 C1643 1.384 . S
N1647 C1639 1.427 . S
N1647 C1645 1.384 . S
C503 C27 0.720 . S
C507 C373 0.720 . S
C521 C1 0.707 1_565 S
C525 C399 0.707 . S
C539 C58 0.720 . S
C543 C404 0.720 . S
C557 C32 0.706 . S
C561 C430 0.706 . S
C575 C461 0.723 . S
C579 C63 0.723 . S
C593 C89 0.724 1_545 S
C597 C435 0.724 . S
C611 C94 0.722 . S
C615 C492 0.722 . S
C629 C120 0.711 . S
C633 C466 0.711 . S
C647 C249 0.735 1_565 S
C651 C151 0.735 . S
C665 C275 0.730 . S
C669 C125 0.730 . S
C683 C280 0.712 . S
C687 C182 0.712 . S
C701 C306 0.712 . S
C705 C156 0.712 . S
C719 C337 0.721 1_545 S
C723 C187 0.721 . S
C737 C213 0.736 . S
C741 C311 0.736 . S
C755 C368 0.726 . S
C759 C218 0.726 . S
C773 C244 0.729 . S
C777 C342 0.729 . S
C791 C2 1.956 1_565 S
C795 C382 1.956 . S
C809 C10 1.955 . S
C813 C374 1.955 . S
C827 C33 1.957 . S
C831 C413 1.957 . S
C845 C405 1.960 . S
C849 C41 1.960 1_565 S
C863 C436 1.958 . S
C867 C72 1.958 1_545 S
C881 C444 1.954 . S
C885 C64 1.954 . S
C899 C467 1.954 . S
C903 C103 1.954 . S
C917 C475 1.965 . S
C921 C95 1.965 1_545 S
C935 C126 1.962 . S
C939 C258 1.962 . S
C953 C134 1.954 . S
C957 C250 1.954 1_565 S
C971 C157 1.960 . S
C975 C289 1.960 1_565 S
C989 C165 1.955 . S
C993 C281 1.955 . S
C1007 C312 1.955 . S
C1011 C196 1.955 . S
C1025 C320 1.955 1_545 S
C1029 C188 1.955 . S
C1043 C343 1.960 1_545 S
C1047 C227 1.960 . S
C1061 C219 1.958 . S
C1065 C351 1.958 . S
C1079 C24 1.846 . S
C1083 C290 1.803 . S
C1097 C303 1.839 . S
C1101 C11 1.789 . S
C1115 C259 1.789 . S
C1119 C55 1.840 . S
C1133 C272 1.838 . S
C1137 C42 1.789 . S
C1151 C359 1.789 . S
C1155 C62 1.841 . S
C1169 C80 1.789 . S
C1173 C341 1.839 . S
C1187 C93 1.843 . S
C1191 C328 1.801 . S
C1205 C111 1.801 . S
C1209 C310 1.848 . S
C1223 C414 1.790 . S
C1227 C148 1.842 . S
C1241 C135 1.801 . S
C1245 C427 1.843 . S
C1259 C179 1.838 . S
C1263 C383 1.789 . S
C1277 C396 1.846 . S
C1281 C166 1.803 . S
C1295 C483 1.793 . S
C1299 C186 1.838 . S
C1313 C465 1.839 . S
C1317 C204 1.789 . S
C1331 C452 1.791 . S
C1335 C217 1.843 . S
C1349 C434 1.840 . S
C1353 C235 1.789 . S
C1367 C445 2.100 . S
C1371 C18 2.100 . S
C1385 C86 1.227 . S
C1389 C0 1.227 . S
C1403 C352 2.097 . S
C1407 C49 2.097 . S
C1421 C31 1.205 . S
C1425 C241 1.205 . S
C1439 C390 2.098 . S
C1443 C73 2.098 . S
C1457 C104 2.100 . S
C1461 C297 2.100 . S
C1475 C155 1.206 . S
C1479 C117 1.206 . S
C1493 C321 2.100 . S
C1497 C142 2.100 . S
C1511 C124 1.233 . S
C1515 C210 1.233 . S
C1529 C173 2.091 . S
C1533 C476 2.091 . S
C1547 C266 2.095 . S
C1551 C197 2.095 . S
C1565 C421 2.100 . S
C1569 C228 2.100 . S
C1583 C248 1.232 . S
C1587 C334 1.232 . S
C1601 C279 1.228 . S
C1605 C489 1.228 . S
C1619 C403 1.205 . S
C1623 C365 1.205 . S
C1637 C458 1.233 . S
C1641 C372 1.233 . S
