# Generated by pormake.
# Topology tfs, (6)-cn, num edge types: 1
# Building blocks:
#     Node 0, Type 0, BuildingBlock: PAMTUU_clean_sbu_0, # of connection points: 6
#     Node 1, Type 0, BuildingBlock: PAMTUU_clean_sbu_0, # of connection points: 6
#     Node 2, Type 0, BuildingBlock: PAMTUU_clean_sbu_0, # of connection points: 6
#     Node 3, Type 0, BuildingBlock: PAMTUU_clean_sbu_0, # of connection points: 6
#     Node 4, Type 0, BuildingBlock: PAMTUU_clean_sbu_0, # of connection points: 6
#     Node 5, Type 0, BuildingBlock: PAMTUU_clean_sbu_0, # of connection points: 6
#     Edge 6, Type (0, 0), BuildingBlock: TEMPAE_clean_linker_10, # of connection points: 2
#     Edge 7, Type (0, 0), BuildingBlock: TEMPAE_clean_linker_10, # of connection points: 2
#     Edge 8, Type (0, 0), BuildingBlock: TEMPAE_clean_linker_10, # of connection points: 2
#     Edge 9, Type (0, 0), BuildingBlock: TEMPAE_clean_linker_10, # of connection points: 2
#     Edge 10, Type (0, 0), BuildingBlock: TEMPAE_clean_linker_10, # of connection points: 2
#     Edge 11, Type (0, 0), BuildingBlock: TEMPAE_clean_linker_10, # of connection points: 2
#     Edge 12, Type (0, 0), BuildingBlock: TEMPAE_clean_linker_10, # of connection points: 2
#     Edge 13, Type (0, 0), BuildingBlock: TEMPAE_clean_linker_10, # of connection points: 2
#     Edge 14, Type (0, 0), BuildingBlock: TEMPAE_clean_linker_10, # of connection points: 2
#     Edge 15, Type (0, 0), BuildingBlock: TEMPAE_clean_linker_10, # of connection points: 2
#     Edge 16, Type (0, 0), BuildingBlock: TEMPAE_clean_linker_10, # of connection points: 2
#     Edge 17, Type (0, 0), BuildingBlock: TEMPAE_clean_linker_10, # of connection points: 2
#     Edge 18, Type (0, 0), BuildingBlock: TEMPAE_clean_linker_10, # of connection points: 2
#     Edge 19, Type (0, 0), BuildingBlock: TEMPAE_clean_linker_10, # of connection points: 2
#     Edge 20, Type (0, 0), BuildingBlock: TEMPAE_clean_linker_10, # of connection points: 2
#     Edge 21, Type (0, 0), BuildingBlock: TEMPAE_clean_linker_10, # of connection points: 2
#     Edge 22, Type (0, 0), BuildingBlock: TEMPAE_clean_linker_10, # of connection points: 2
#     Edge 23, Type (0, 0), BuildingBlock: TEMPAE_clean_linker_10, # of connection points: 2
# Relax obj value: 0.385
# Max RMSD: 0.384
# Mean RMSD: 0.314
data_MOF--net-tfs--node1-PAMTUU_clean_sbu_0--edge1-TEMPAE_clean_linker_10
_symmetry_space_group_name_H-M    P1
_symmetry_Int_Tables_number       1
_symmetry_cell_setting            triclinic
loop_
_symmetry_equiv_pos_as_xyz
'x, y, z'
_cell_length_a     60.351918
_cell_length_b     52.440572
_cell_length_c     14.491255
_cell_angle_alpha  79.030858
_cell_angle_beta   98.75066
_cell_angle_gamma 134.67458
loop_
_atom_site_label
_atom_site_type_symbol
_atom_site_fract_x
_atom_site_fract_y
_atom_site_fract_z
_atom_type_partial_charge
Tb0 Tb 0.23856 0.53875 0.01624 0.0
Tb1 Tb 0.26225 0.49583 0.07644 0.0
C2 C 0.26568 0.53766 0.21343 0.0
C3 C 0.22605 0.60129 0.9692 0.0
C4 C 0.23406 0.65962 -0.00824 0.0
C5 C 0.25056 0.65264 0.05041 0.0
C6 C 0.24659 0.62369 0.03921 0.0
C7 C 0.21065 0.60909 0.9081 0.0
C8 C 0.21462 0.638 0.9191 0.0
C9 C 0.21779 0.56767 0.96465 0.0
O10 O 0.2874 0.57896 0.97693 0.0
O11 O 0.30486 0.55317 0.06034 0.0
O12 O 0.26663 0.5138 0.92877 0.0
O13 O 0.223 0.50274 0.91775 0.0
O14 O 0.28915 0.48822 0.16053 0.0
O15 O 0.26163 0.45823 0.04127 0.0
O16 O 0.21139 0.45377 0.08318 0.0
O17 O 0.20273 0.4888 0.10211 0.0
O18 O 0.26605 0.55805 0.14402 0.0
O19 O 0.25685 0.50725 0.20205 0.0
C20 C 0.30994 0.58065 0.01065 0.0
O21 O 0.23439 0.56922 0.91139 0.0
O22 O 0.21175 0.54778 0.04465 0.0
C23 C 0.24464 0.50927 0.87745 0.0
C24 C 0.27488 0.4324 0.16144 0.0
C25 C 0.27674 0.38087 0.24915 0.0
C26 C 0.27205 0.38437 0.15127 0.0
C27 C 0.27119 0.40986 0.10806 0.0
C28 C 0.27795 0.42775 0.2598 0.0
C29 C 0.27877 0.40215 0.3032 0.0
C30 C 0.2804 0.46376 0.11161 0.0
C31 C 0.19356 0.45724 0.10788 0.0
H32 H 0.26602 0.6691 0.1062 0.0
H33 H 0.25872 0.61808 0.08707 0.0
H34 H 0.19456 0.59192 0.85405 0.0
H35 H 0.20132 0.64235 0.87339 0.0
H36 H 0.27081 0.36887 0.10718 0.0
H37 H 0.26925 0.41324 0.03203 0.0
H38 H 0.28099 0.44483 0.30292 0.0
H39 H 0.28194 0.39977 0.3789 0.0
Tb40 Tb 0.83997 0.16727 0.49833 0.0
Tb41 Tb 0.7637 0.11839 0.46142 0.0
C42 C 0.79329 0.12268 0.65749 0.0
C43 C 0.92559 0.22148 0.484 0.0
C44 C 0.9816 0.26093 0.39151 0.0
C45 C 0.98211 0.2652 0.48506 0.0
C46 C 0.95442 0.24565 0.53068 0.0
C47 C 0.92468 0.21673 0.39092 0.0
C48 C 0.95248 0.23627 0.34506 0.0
C49 C 0.89711 0.2028 0.53333 0.0
O50 O 0.82225 0.12697 0.40775 0.0
O51 O 0.7733 0.08541 0.46592 0.0
O52 O 0.78407 0.13854 0.32479 0.0
O53 O 0.83592 0.18773 0.35945 0.0
O54 O 0.71842 0.06963 0.49913 0.0
O55 O 0.72607 0.10914 0.38936 0.0
O56 O 0.78546 0.17282 0.46757 0.0
O57 O 0.83002 0.19437 0.55407 0.0
O58 O 0.81344 0.12657 0.61602 0.0
O59 O 0.77433 0.1246 0.60875 0.0
C60 C 0.7943 0.09405 0.41459 0.0
O61 O 0.88577 0.21713 0.51469 0.0
O62 O 0.87524 0.16769 0.53764 0.0
C63 C 0.81224 0.16925 0.2999 0.0
C64 C 0.68426 0.07734 0.48854 0.0
C65 C 0.64356 0.07538 0.57026 0.0
C66 C 0.6327 0.0535 0.4995 0.0
C67 C 0.65293 0.0545 0.459 0.0
C68 C 0.69517 0.09882 0.55999 0.0
C69 C 0.67498 0.09781 0.60064 0.0
C70 C 0.70568 0.07931 0.44366 0.0
C71 C 0.80971 0.19644 0.51997 0.0
H72 H 1.00397 0.28445 0.52254 0.0
H73 H 0.95556 0.24987 0.60228 0.0
H74 H 0.90256 0.19824 0.35362 0.0
H75 H 0.95117 0.23209 0.27331 0.0
H76 H 0.60877 0.03634 0.47357 0.0
H77 H 0.64421 0.03783 0.40373 0.0
H78 H 0.71937 0.11659 0.58367 0.0
H79 H 0.68399 0.11468 0.65563 0.0
Tb80 Tb 0.59666 0.87895 0.96971 0.0
Tb81 Tb 0.60331 0.81892 -0.00991 0.0
C82 C 0.61844 0.87092 0.81108 0.0
C83 C 0.56705 0.92315 0.96725 0.0
C84 C 0.52498 0.92979 0.97855 0.0
C85 C 0.51936 0.90869 0.91415 0.0
C86 C 0.54015 0.9053 0.90868 0.0
C87 C 0.57252 0.94399 0.0319 0.0
C88 C 0.55168 0.94718 0.03778 0.0
C89 C 0.59076 0.92256 0.95846 0.0
O90 O 0.55302 0.83121 0.9129 0.0
O91 O 0.55371 0.7878 0.97758 0.0
O92 O 0.60591 0.83049 0.12833 0.0
O93 O 0.57421 0.84057 0.09341 0.0
O94 O 0.62162 0.80265 0.93574 0.0
O95 O 0.58923 0.76983 0.05012 0.0
O96 O 0.65069 0.86954 0.0169 0.0
O97 O 0.64273 0.90615 0.03106 0.0
O98 O 0.62505 0.89443 0.85825 0.0
O99 O 0.60142 0.83707 0.84542 0.0
C100 C 0.53907 0.79733 0.93624 0.0
O101 O 0.59929 0.91348 0.03549 0.0
O102 O 0.58809 0.90875 0.88655 0.0
C103 C 0.58856 0.8342 0.15439 0.0
C104 C 0.62441 0.76413 0.039 0.0
C105 C 0.65426 0.7412 0.1215 0.0
C106 C 0.65535 0.7636 0.16675 0.0
C107 C 0.64046 0.77495 0.12582 0.0
C108 C 0.62404 0.74269 -0.00722 0.0
C109 C 0.63881 0.73135 0.03344 0.0
C110 C 0.60687 0.77346 -0.00433 0.0
C111 C 0.66042 0.89969 0.03642 0.0
H112 H 0.49881 0.89468 0.86828 0.0
H113 H 0.53529 0.88906 0.85799 0.0
H114 H 0.59326 0.95832 0.07705 0.0
H115 H 0.55685 0.96396 0.08734 0.0
H116 H 0.66695 0.7715 0.23484 0.0
H117 H 0.64104 0.79161 0.16245 0.0
H118 H 0.61191 0.73425 0.92547 0.0
H119 H 0.638 0.71469 -0.00403 0.0
Tb120 Tb 0.75264 0.51543 0.58973 0.0
Tb121 Tb 0.77746 0.47341 0.64608 0.0
C122 C 0.77002 0.50135 0.78779 0.0
C123 C 0.73898 0.57783 0.50086 0.0
C124 C 0.73429 0.62702 0.41411 0.0
C125 C 0.74543 0.62879 0.5075 0.0
C126 C 0.74767 0.60443 0.55039 0.0
C127 C 0.72963 0.5774 0.40569 0.0
C128 C 0.72743 0.60187 0.36265 0.0
C129 C 0.7345 0.54747 0.55395 0.0
O130 O 0.80349 0.55742 0.58292 0.0
O131 O 0.81108 0.5225 0.55401 0.0
O132 O 0.74891 0.45246 0.52087 0.0
O133 O 0.75492 0.50124 0.46326 0.0
O134 O 0.78356 0.44457 0.75028 0.0
O135 O 0.80637 0.46739 0.61662 0.0
O136 O 0.72788 0.4303 0.67706 0.0
O137 O 0.71049 0.45881 0.62406 0.0
O138 O 0.74836 0.49764 0.73726 0.0
O139 O 0.79176 0.50827 0.74684 0.0
C140 C 0.82083 0.55417 0.55279 0.0
O141 O 0.72435 0.52146 0.50873 0.0
O142 O 0.75473 0.55463 0.62095 0.0
C143 C 0.74703 0.47129 0.45244 0.0
C144 C 0.79968 0.41915 0.69916 0.0
C145 C 0.80099 0.36743 0.68423 0.0
C146 C 0.77521 0.36235 0.6485 0.0
C147 C 0.77465 0.38824 0.65534 0.0
C148 C 0.82469 0.4234 0.73814 0.0
C149 C 0.82541 0.39787 0.7306 0.0
C150 C 0.80226 0.44919 0.69824 0.0
C151 C 0.70565 0.43017 0.66001 0.0
H152 H 0.75129 0.64817 0.54862 0.0
H153 H 0.75463 0.60519 0.62406 0.0
H154 H 0.72244 0.55701 0.36575 0.0
H155 H 0.71857 0.59962 0.29078 0.0
H156 H 0.75617 0.3392 0.61192 0.0
H157 H 0.75527 0.38473 0.62421 0.0
H158 H 0.84425 0.44718 0.77195 0.0
H159 H 0.84538 0.40227 0.7595 0.0
Tb160 Tb 0.25875 0.91074 0.16534 0.0
Tb161 Tb 0.18125 0.84305 0.18803 0.0
C162 C 0.22694 0.86694 0.35259 0.0
C163 C 0.33951 0.96192 0.1101 0.0
C164 C 0.38086 0.95998 0.05197 0.0
C165 C 0.3908 0.98356 0.11641 0.0
C166 C 0.37032 0.98454 0.14495 0.0
C167 C 0.32963 0.93907 0.04392 0.0
C168 C 0.35017 0.93831 0.01457 0.0
C169 C 0.31717 0.95975 0.14997 0.0
O170 O 0.24788 0.86142 0.16772 0.0
O171 O 0.1952 0.82091 0.12855 0.0
O172 O 0.18979 0.87247 0.05015 0.0
O173 O 0.23762 0.89355 0.02927 0.0
O174 O 0.14497 0.80305 0.2812 0.0
O175 O 0.13503 0.80779 0.1328 0.0
O176 O 0.19535 0.88987 0.23698 0.0
O177 O 0.24041 0.93488 0.15421 0.0
O178 O 0.24673 0.89979 0.30979 0.0
O179 O 0.20663 0.83983 0.30351 0.0
C180 C 0.22235 0.8307 0.13754 0.0
O181 O 0.29776 0.95821 0.0907 0.0
O182 O 0.30316 0.93624 0.22426 0.0
C183 C 0.21174 0.88457 -0.0039 0.0
C184 C 0.09483 0.78095 0.23857 0.0
C185 C 0.03686 0.74941 0.29982 0.0
C186 C 0.0386 0.74047 0.21734 0.0
C187 C 0.06725 0.75603 0.18726 0.0
C188 C 0.0935 0.79157 0.31805 0.0
C189 C 0.06478 0.77596 0.34831 0.0
C190 C 0.12335 0.79095 0.21571 0.0
C191 C 0.21849 0.92421 0.20601 0.0
H192 H 0.41402 1.00021 0.14798 0.0
H193 H 0.37822 1.00208 0.19681 0.0
H194 H 0.3058 0.92114 0.01674 0.0
H195 H 0.34179 0.92026 0.96378 0.0
H196 H 0.01764 0.71984 0.17882 0.0
H197 H 0.06763 0.74713 0.12638 0.0
H198 H 0.11442 0.81076 0.3591 0.0
H199 H 0.06435 0.78384 0.41137 0.0
Tb200 Tb 0.40741 0.18611 0.65215 0.0
Tb201 Tb 0.41793 0.1301 0.70688 0.0
C202 C 0.42333 0.16458 0.50662 0.0
C203 C 0.37892 0.23342 0.58412 0.0
C204 C 0.34559 0.25216 0.50372 0.0
C205 C 0.35523 0.24243 0.44734 0.0
C206 C 0.37177 0.23315 0.48716 0.0
C207 C 0.3685 0.24204 0.6406 0.0
C208 C 0.35203 0.25126 0.60105 0.0
C209 C 0.39943 0.22819 0.62795 0.0
O210 O 0.36093 0.13248 0.6339 0.0
O211 O 0.37342 0.09963 0.63262 0.0
O212 O 0.3877 0.11982 0.80031 0.0
O213 O 0.41594 0.17854 0.79973 0.0
O214 O 0.41382 0.08968 0.67493 0.0
O215 O 0.43057 0.10835 0.81248 0.0
O216 O 0.46166 0.18277 0.74462 0.0
O217 O 0.45753 0.2203 0.6511 0.0
O218 O 0.40644 0.1703 0.52399 0.0
O219 O 0.43817 0.16038 0.57306 0.0
C220 C 0.35369 0.10334 0.61753 0.0
O221 O 0.38824 0.20265 0.69821 0.0
O222 O 0.41633 0.23049 0.57368 0.0
C223 C 0.40011 0.14642 0.84579 0.0
C224 C 0.45087 0.08967 0.75198 0.0
C225 C 0.4956 0.08823 0.73219 0.0
C226 C 0.47152 0.06256 0.79646 0.0
C227 C 0.44925 0.06324 0.80609 0.0
C228 C 0.47546 0.11608 0.69008 0.0
C229 C 0.49761 0.11529 0.68002 0.0
C230 C 0.42579 0.08808 0.75616 0.0
C231 C 0.47421 0.21479 0.70168 0.0
H232 H 0.35036 0.24248 0.37226 0.0
H233 H 0.37953 0.2266 0.44189 0.0
H234 H 0.37401 0.24279 0.71539 0.0
H235 H 0.34548 0.25914 0.64647 0.0
H236 H 0.46927 0.04122 0.83663 0.0
H237 H 0.43032 0.0426 0.85399 0.0
H238 H 0.47709 0.13676 0.64797 0.0
H239 H 0.51614 0.13559 0.63071 0.0
C240 C 0.30667 0.25632 0.50738 0.0
C241 C 0.33077 0.26557 0.46144 0.0
C242 C 0.29495 0.27201 0.47405 0.0
C243 C 0.30752 0.2975 0.39253 0.0
C244 C 0.33092 0.30584 0.34363 0.0
C245 C 0.34229 0.28984 0.3787 0.0
C246 C 0.26991 0.26229 0.52801 0.0
C247 C 0.34487 0.33279 0.25622 0.0
C248 C 0.26537 0.32402 0.26173 0.0
C249 C 0.28229 0.35755 0.29276 0.0
C250 C 0.27278 0.30371 0.29515 0.0
C251 C 0.29766 0.31716 0.36145 0.0
C252 C 0.31412 0.35036 0.39546 0.0
C253 C 0.3063 0.37014 0.36062 0.0
C254 C 0.2546 0.26838 0.25747 0.0
C255 C 0.34074 0.36562 0.46641 0.0
H256 H 0.29728 0.23717 0.57052 0.0
H257 H 0.36114 0.29752 0.34328 0.0
H258 H 0.27935 0.28632 0.55835 0.0
H259 H 0.25007 0.25393 0.48021 0.0
H260 H 0.26105 0.24014 0.58607 0.0
H261 H 0.36129 0.33443 0.22278 0.0
H262 H 0.32618 0.32544 0.20415 0.0
H263 H 0.35761 0.35996 0.27433 0.0
H264 H 0.24653 0.31384 0.21021 0.0
H265 H 0.31986 0.39623 0.38403 0.0
H266 H 0.2454 0.24645 0.31629 0.0
H267 H 0.27024 0.2705 0.21759 0.0
H268 H 0.2348 0.26064 0.21036 0.0
H269 H 0.33302 0.34547 0.52912 0.0
H270 H 0.35006 0.39075 0.48957 0.0
H271 H 0.35994 0.3717 0.43537 0.0
C272 C 0.14675 0.38998 0.13245 0.0
C273 C 0.16234 0.42508 0.14685 0.0
C274 C 0.1167 0.35988 0.1675 0.0
C275 C 0.10221 0.36505 0.21921 0.0
C276 C 0.11813 0.40039 0.23516 0.0
C277 C 0.1478 0.42985 0.19847 0.0
C278 C 0.10033 0.32263 0.14838 0.0
C279 C 0.10383 0.40717 0.29113 0.0
C280 C 0.0148 0.29905 0.24882 0.0
C281 C 0.0115 0.28355 0.34231 0.0
C282 C 0.04388 0.32394 0.20565 0.0
C283 C 0.07041 0.33387 0.25735 0.0
C284 C 0.06693 0.31691 0.34993 0.0
C285 C 0.03754 0.29185 0.39099 0.0
C286 C 0.04652 0.34115 0.10649 0.0
C287 C 0.09458 0.32677 0.40773 0.0
H288 H 0.15777 0.38607 0.09246 0.0
H289 H 0.15973 0.4568 0.21103 0.0
H290 H 0.09423 0.30494 0.21561 0.0
H291 H 0.07818 0.31029 0.10843 0.0
H292 H 0.11481 0.32309 0.10772 0.0
H293 H 0.11953 0.43625 0.29865 0.0
H294 H 0.0817 0.3974 0.25643 0.0
H295 H 0.09816 0.39193 0.36239 0.0
H296 H 0.99498 0.2931 0.2106 0.0
H297 H 0.03514 0.27942 0.46246 0.0
H298 H 0.06008 0.34089 0.06351 0.0
H299 H 0.05921 0.36979 0.10765 0.0
H300 H 0.02333 0.32723 0.07173 0.0
H301 H 0.10813 0.32582 0.36722 0.0
H302 H 0.08752 0.30855 0.47459 0.0
H303 H 0.11035 0.35485 0.42482 0.0
C304 C 0.80127 0.06373 0.32306 0.0
C305 C 0.78317 0.06891 0.34749 0.0
C306 C 0.78882 0.03778 0.26274 0.0
C307 C 0.75801 0.01743 0.22547 0.0
C308 C 0.74085 0.02491 0.24449 0.0
C309 C 0.75345 0.05011 0.30603 0.0
C310 C 0.80838 0.032 0.23905 0.0
C311 C 0.70907 1.0064 0.19956 0.0
C312 C 0.71372 0.96098 0.02618 0.0
C313 C 0.69189 0.92683 0.07666 0.0
C314 C 0.7392 0.9909 0.0725 0.0
C315 C 0.74204 0.98648 0.17183 0.0
C316 C 0.72217 0.95112 0.22101 0.0
C317 C 0.69718 0.92161 0.17259 0.0
C318 C 0.76078 0.02735 0.01483 0.0
C319 C 0.72453 0.94498 0.3266 0.0
H320 H 0.82462 0.07906 0.35309 0.0
H321 H 0.73995 0.05528 0.32145 0.0
H322 H 0.79737 1.00409 0.26606 0.0
H323 H 0.80957 0.03505 0.16153 0.0
H324 H 0.83245 0.05131 0.26929 0.0
H325 H 0.69781 0.01319 0.22762 0.0
H326 H 0.71149 0.0148 0.12257 0.0
H327 H 0.69342 0.97667 0.21045 0.0
H328 H 0.70962 0.96487 0.95158 0.0
H329 H 0.68003 0.89511 0.21151 0.0
H330 H 0.74713 0.03324 0.9771 0.0
H331 H 0.77134 0.0266 0.96031 0.0
H332 H 0.77978 0.04957 0.05712 0.0
H333 H 0.7111 0.91615 0.35215 0.0
H334 H 0.71518 0.95323 0.35927 0.0
H335 H 0.7492 0.96167 0.3506 0.0
C336 C 0.73389 0.6652 0.2805 0.0
C337 C 0.72691 0.64873 0.37377 0.0
C338 C 0.72456 0.68311 0.23998 0.0
C339 C 0.70758 0.68426 0.29372 0.0
C340 C 0.70123 0.66855 0.38865 0.0
C341 C 0.711 0.65106 0.42748 0.0
C342 C 0.73201 0.6998 0.13876 0.0
C343 C 0.68295 0.66886 0.44816 0.0
C344 C 0.69782 0.74945 0.21049 0.0
C345 C 0.66818 0.72698 0.16652 0.0
C346 C 0.71115 0.73609 0.25146 0.0
C347 C 0.69435 0.69937 0.24892 0.0
C348 C 0.66437 0.67657 0.20515 0.0
C349 C 0.65169 0.69063 0.16459 0.0
C350 C 0.74321 0.76124 0.29727 0.0
C351 C 0.64551 0.63717 0.20172 0.0
H352 H 0.74641 0.66377 0.23891 0.0
H353 H 0.70506 0.63791 0.49912 0.0
H354 H 0.7101 0.68504 0.09564 0.0
H355 H 0.74343 0.72826 0.13265 0.0
H356 H 0.74748 0.69914 0.10895 0.0
H357 H 0.68183 0.65769 0.52248 0.0
H358 H 0.69353 0.69679 0.44666 0.0
H359 H 0.65881 0.65258 0.41898 0.0
H360 H 0.71078 0.77762 0.21155 0.0
H361 H 0.62856 0.67295 0.13215 0.0
H362 H 0.75909 0.76211 0.26358 0.0
H363 H 0.74209 0.75103 0.37256 0.0
H364 H 0.75339 0.78915 0.29232 0.0
H365 H 0.6587 0.63453 0.16582 0.0
H366 H 0.62267 0.62315 0.16428 0.0
H367 H 0.64126 0.62317 0.27418 0.0
C368 C 0.98042 0.71742 0.28017 0.0
C369 C 1.00586 0.72836 0.33946 0.0
C370 C 0.9501 0.69281 0.31481 0.0
C371 C 0.94504 0.67876 0.41113 0.0
C372 C 0.97088 0.6915 0.47243 0.0
C373 C 1.00091 0.71606 0.43591 0.0
C374 C 0.92327 0.68013 0.24706 0.0
C375 C 0.96658 0.67729 0.57558 0.0
C376 C 0.86568 0.62174 0.51769 0.0
C377 C 0.85221 0.5866 0.51469 0.0
C378 C 0.89577 0.65216 0.48336 0.0
C379 C 0.91269 0.64729 0.44507 0.0
C380 C 0.89899 0.6119 0.44074 0.0
C381 C 0.86908 0.58215 0.47548 0.0
C382 C 0.90961 0.68948 0.48903 0.0
C383 C 0.91606 0.60534 0.40018 0.0
H384 H 0.98406 0.72724 0.20587 0.0
H385 H 0.02026 0.72397 0.48234 0.0
H386 H 0.90938 0.65185 0.23575 0.0
H387 H 0.90754 0.68044 0.27647 0.0
H388 H 0.93136 0.69706 0.1778 0.0
H389 H 0.98911 0.69321 0.61588 0.0
H390 H 0.95111 0.67762 0.60674 0.0
H391 H 0.95524 0.64882 0.58382 0.0
H392 H 0.85288 0.62552 0.54765 0.0
H393 H 0.85898 0.55523 0.47204 0.0
H394 H 0.91661 0.70523 0.41827 0.0
H395 H 0.93097 0.7041 0.53467 0.0
H396 H 0.89308 0.68876 0.51756 0.0
H397 H 0.92253 0.61857 0.32674 0.0
H398 H 0.90191 0.57614 0.40045 0.0
H399 H 0.93799 0.61745 0.44126 0.0
C400 C 0.25106 0.98905 0.219 0.0
C401 C 0.22489 0.95264 0.24779 0.0
C402 C 0.26525 0.01562 0.27804 0.0
C403 C 0.2526 1.00555 0.36711 0.0
C404 C 0.22297 0.97036 0.38816 0.0
C405 C 0.20949 0.944 0.3284 0.0
C406 C 0.29621 0.05318 0.2507 0.0
C407 C 0.20672 0.95985 0.47697 0.0
C408 C 0.31682 0.04446 0.55261 0.0
C409 C 0.32377 0.07505 0.56865 0.0
C410 C 0.29278 0.02089 0.49041 0.0
C411 C 0.27429 0.02722 0.44467 0.0
C412 C 0.2793 0.05619 0.46642 0.0
C413 C 0.30424 0.08007 0.5278 0.0
C414 C 0.28923 0.99115 0.46757 0.0
C415 C 0.2592 0.06276 0.42181 0.0
H416 H 0.26249 0.99636 0.1548 0.0
H417 H 0.18847 0.91619 0.34928 0.0
H418 H 0.29822 0.07392 0.27244 0.0
H419 H 0.31533 0.05605 0.28692 0.0
H420 H 0.29961 0.05868 0.1737 0.0
H421 H 0.18775 0.93011 0.49361 0.0
H422 H 0.22324 0.97119 0.53805 0.0
H423 H 0.19626 0.97109 0.46722 0.0
H424 H 0.33137 0.03986 0.58454 0.0
H425 H 0.30921 0.10342 0.54036 0.0
H426 H 0.29886 0.99886 0.39726 0.0
H427 H 0.2644 0.96541 0.46484 0.0
H428 H 0.30184 0.98631 0.5195 0.0
H429 H 0.26561 0.08594 0.44758 0.0
H430 H 0.23438 0.03823 0.43719 0.0
H431 H 0.26131 0.06809 0.34428 0.0
C432 C 0.19799 0.77169 0.09043 0.0
C433 C 0.22476 0.80671 0.11147 0.0
C434 C 0.20022 0.74874 0.06727 0.0
C435 C 0.22992 0.76117 0.06452 0.0
C436 C 0.25706 0.79677 0.08345 0.0
C437 C 0.25415 0.81904 0.10689 0.0
C438 C 0.17075 0.71095 0.04722 0.0
C439 C 0.28918 0.81122 0.08019 0.0
C440 C 0.23345 0.69041 0.10256 0.0
C441 C 0.23521 0.6875 0.01022 0.0
C442 C 0.23211 0.71459 0.12112 0.0
C443 C 0.23252 0.73645 0.04556 0.0
C444 C 0.23491 0.73421 0.9523 0.0
C445 C 0.2362 0.70974 0.93573 0.0
C446 C 0.22957 0.71618 0.22157 0.0
C447 C 0.23564 0.75728 0.86997 0.0
H448 H 0.17522 0.76198 0.09318 0.0
H449 H 0.27506 0.84623 0.12168 0.0
H450 H 0.17172 0.70631 0.977 0.0
H451 H 0.1686 0.69096 0.09978 0.0
H452 H 0.14954 0.70581 0.04922 0.0
H453 H 0.30797 0.83997 0.09326 0.0
H454 H 0.29151 0.795 0.13383 0.0
H455 H 0.29267 0.80876 0.0106 0.0
H456 H 0.23216 0.67294 0.16037 0.0
H457 H 0.23787 0.70789 0.8643 0.0
H458 H 0.2074 0.70836 0.22984 0.0
H459 H 0.24886 0.7442 0.23963 0.0
H460 H 0.23031 0.69804 0.2725 0.0
H461 H 0.21374 0.751 0.86599 0.0
H462 H 0.23844 0.75304 0.80204 0.0
H463 H 0.2551 0.78627 0.87975 0.0
C464 C 0.52366 0.08756 0.62435 0.0
C465 C 0.51769 0.0858 0.71619 0.0
C466 C 0.54411 0.08478 0.60747 0.0
C467 C 0.55899 0.08018 0.68439 0.0
C468 C 0.55295 0.07821 0.77743 0.0
C469 C 0.53238 0.08114 0.79216 0.0
C470 C 0.54978 0.08677 0.50722 0.0
C471 C 0.56822 0.07308 0.86121 0.0
C472 C 0.59146 0.04405 0.62809 0.0
C473 C 0.62255 0.07607 0.60872 0.0
C474 C 0.57076 0.04479 0.6569 0.0
C475 C 0.58141 0.07835 0.66637 0.0
C476 C 0.61307 0.11059 0.65087 0.0
C477 C 0.63323 0.10907 0.62199 0.0
C478 C 0.53722 0.00982 0.67358 0.0
C479 C 0.62537 0.14688 0.66107 0.0
H480 H 0.512 0.09071 0.56555 0.0
H481 H 0.52812 0.08036 0.86304 0.0
H482 H 0.57486 0.10997 0.49186 0.0
H483 H 0.54367 0.06195 0.49721 0.0
H484 H 0.53599 0.08985 0.45547 0.0
H485 H 0.56235 0.07408 0.92865 0.0
H486 H 0.5606 0.04659 0.86376 0.0
H487 H 0.59393 0.09423 0.85462 0.0
H488 H 0.5832 0.01839 0.61958 0.0
H489 H 0.65713 0.13397 0.60637 0.0
H490 H 0.52963 0.00808 0.74145 0.0
H491 H 0.53349 0.98582 0.67407 0.0
H492 H 0.52206 0.00896 0.6174 0.0
H493 H 0.61449 0.15328 0.60592 0.0
H494 H 0.6511 0.16896 0.65468 0.0
H495 H 0.6191 0.1462 0.7302 0.0
C496 C 0.48634 0.77365 0.94743 0.0
C497 C 0.50479 0.76857 0.92579 0.0
C498 C 0.45383 0.74468 0.95383 0.0
C499 C 0.43943 0.71015 0.93519 0.0
C500 C 0.45784 0.70563 0.90674 0.0
C501 C 0.49038 0.73473 0.9042 0.0
C502 C 0.43523 0.7505 -0.01331 0.0
C503 C 0.44333 0.66964 0.88304 0.0
C504 C 0.36591 0.62518 0.06067 0.0
C505 C 0.34264 0.61486 -0.00779 0.0
C506 C 0.3973 0.6568 0.04389 0.0
C507 C 0.40581 0.678 0.95512 0.0
C508 C 0.38235 0.66776 0.88569 0.0
C509 C 0.35092 0.6366 0.90574 0.0
C510 C 0.42141 0.66732 0.12106 0.0
C511 C 0.39049 0.68889 0.7892 0.0
H512 H 0.4975 0.79973 0.96514 0.0
H513 H 0.50464 0.73085 0.88693 0.0
H514 H 0.41473 0.73973 0.93919 0.0
H515 H 0.4263 0.73553 0.05771 0.0
H516 H 0.44939 0.77949 -0.00969 0.0
H517 H 0.46012 0.67185 0.84974 0.0
H518 H 0.43501 0.65036 0.94809 0.0
H519 H 0.42283 0.6581 0.83475 0.0
H520 H 0.35949 0.6086 0.12798 0.0
H521 H 0.33294 0.62857 0.85258 0.0
H522 H 0.43578 0.69561 0.13361 0.0
H523 H 0.43734 0.66588 0.09949 0.0
H524 H 0.41069 0.6495 0.18823 0.0
H525 H 0.40593 0.71801 0.79459 0.0
H526 H 0.36946 0.67922 0.74597 0.0
H527 H 0.40349 0.68628 0.75201 0.0
C528 C 0.83098 0.35667 0.63053 0.0
C529 C 0.80366 0.34257 0.66805 0.0
C530 C 0.83384 0.33386 0.61142 0.0
C531 C 0.80892 0.29601 0.63148 0.0
C532 C 0.78157 0.28162 0.67189 0.0
C533 C 0.77913 0.3051 0.68879 0.0
C534 C 0.86312 0.35026 0.56673 0.0
C535 C 0.75471 0.24142 0.69568 0.0
C536 C 0.79937 0.2356 0.48655 0.0
C537 C 0.81204 0.22406 0.547 0.0
C538 C 0.79867 0.25937 0.51288 0.0
C539 C 0.81045 0.27148 0.60275 0.0
C540 C 0.82365 0.26027 0.66394 0.0
C541 C 0.82451 0.23684 0.63499 0.0
C542 C 0.78504 0.27127 0.44465 0.0
C543 C 0.83602 0.27219 0.76081 0.0
H544 H 0.84987 0.38564 0.61358 0.0
H545 H 0.75812 0.2942 0.71862 0.0
H546 H 0.87338 0.34049 0.60886 0.0
H547 H 0.85733 0.34165 0.49568 0.0
H548 H 0.88097 0.38025 0.5599 0.0
H549 H 0.73615 0.23473 0.73326 0.0
H550 H 0.74434 0.22817 0.63029 0.0
H551 H 0.76312 0.22979 0.74017 0.0
H552 H 0.78982 0.22587 0.41829 0.0
H553 H 0.83392 0.22754 0.68244 0.0
H554 H 0.8023 0.30119 0.43163 0.0
H555 H 0.76433 0.26208 0.47519 0.0
H556 H 0.77793 0.26043 0.37617 0.0
H557 H 0.84776 0.26349 0.79677 0.0
H558 H 0.81649 0.26061 0.8044 0.0
H559 H 0.85279 0.302 0.75676 0.0
C560 C 0.43402 0.98651 0.02141 0.0
C561 C 0.40176 0.95636 0.02891 0.0
C562 C 0.45419 0.98278 0.00848 0.0
C563 C 0.44182 0.94821 0.00108 0.0
C564 C 0.40923 0.91789 0.0049 0.0
C565 C 0.38964 0.92227 0.0195 0.0
C566 C 0.48885 0.01564 0.00615 0.0
C567 C 0.39509 0.8806 -0.0036 0.0
C568 C 0.49203 0.94121 0.90152 0.0
C569 C 0.50329 0.93399 -0.01625 0.0
C570 C 0.4721 0.94607 0.90586 0.0
C571 C 0.46308 0.94339 -0.00542 0.0
C572 C 0.4743 0.93599 0.07775 0.0
C573 C 0.49429 0.93144 0.07131 0.0
C574 C 0.46113 0.95462 0.81564 0.0
C575 C 0.4652 0.93288 0.1737 0.0
H576 H 0.44363 0.01307 0.02677 0.0
H577 H 0.36488 0.89865 0.02662 0.0
H578 H 0.49879 0.01761 0.94379 0.0
H579 H 0.4946 0.04101 0.00473 0.0
H580 H 0.50039 0.01307 0.06925 0.0
H581 H 0.36919 0.86019 -0.00469 0.0
H582 H 0.40285 0.88092 0.93114 0.0
H583 H 0.40323 0.87205 0.05646 0.0
H584 H 0.49924 0.94366 0.83373 0.0
H585 H 0.50268 0.92552 0.13502 0.0
H586 H 0.47182 0.98274 0.81068 0.0
H587 H 0.43547 0.93651 0.81488 0.0
H588 H 0.46746 0.95191 0.75254 0.0
H589 H 0.47216 0.95825 0.18303 0.0
H590 H 0.47616 0.92731 0.23149 0.0
H591 H 0.43952 0.91084 0.18004 0.0
C592 C 0.65432 0.39727 0.72409 0.0
C593 C 0.67317 0.39629 0.68249 0.0
C594 C 0.6225 0.36634 0.73741 0.0
C595 C 0.60895 0.3339 0.70542 0.0
C596 C 0.62816 0.33248 0.66606 0.0
C597 C 0.66022 0.36365 0.65632 0.0
C598 C 0.60316 0.36883 0.78229 0.0
C599 C 0.61457 0.2987 0.62931 0.0
C600 C 0.52676 0.24618 0.77962 0.0
C601 C 0.50861 0.24529 0.7046 0.0
C602 C 0.55946 0.27488 0.78134 0.0
C603 C 0.57437 0.30278 0.70503 0.0
C604 C 0.5561 0.30162 0.62855 0.0
C605 C 0.5235 0.2732 0.62985 0.0
C606 C 0.57803 0.27562 0.86524 0.0
C607 C 0.57101 0.33039 0.54489 0.0
H608 H 0.66445 0.42248 0.74528 0.0
H609 H 0.6748 0.363 0.62362 0.0
H610 H 0.58721 0.36738 0.72856 0.0
H611 H 0.58854 0.34578 0.83773 0.0
H612 H 0.61782 0.3944 0.81398 0.0
H613 H 0.63289 0.30105 0.60768 0.0
H614 H 0.60024 0.27504 0.68344 0.0
H615 H 0.59896 0.29329 0.56761 0.0
H616 H 0.51535 0.22471 0.83767 0.0
H617 H 0.50967 0.27243 0.57101 0.0
H618 H 0.5917 0.30074 0.89801 0.0
H619 H 0.59492 0.27585 0.84258 0.0
H620 H 0.56294 0.25206 0.91922 0.0
H621 H 0.58373 0.35696 0.56746 0.0
H622 H 0.55364 0.32457 0.48899 0.0
H623 H 0.58829 0.33279 0.51447 0.0
C624 C 0.2818 0.5544 0.75246 0.0
C625 C 0.25092 0.52462 0.7795 0.0
C626 C 0.28877 0.56794 0.65814 0.0
C627 C 0.2643 0.55014 0.59042 0.0
C628 C 0.23284 0.52237 0.61805 0.0
C629 C 0.22647 0.51008 0.71341 0.0
C630 C 0.32242 0.5988 0.63065 0.0
C631 C 0.20618 0.50306 0.54684 0.0
C632 C 0.272 0.57212 0.32848 0.0
C633 C 0.2718 0.54678 0.30888 0.0
C634 C 0.27204 0.57587 0.42139 0.0
C635 C 0.27152 0.55345 0.4945 0.0
C636 C 0.27421 0.53028 0.47503 0.0
C637 C 0.27456 0.52747 0.382 0.0
C638 C 0.2703 0.60175 0.44024 0.0
C639 C 0.27422 0.50628 0.55185 0.0
H640 H 0.30064 0.56649 0.80469 0.0
H641 H 0.2026 0.48766 0.73566 0.0
H642 H 0.33084 0.58803 0.60664 0.0
H643 H 0.32484 0.61749 0.57162 0.0
H644 H 0.33763 0.61425 0.69063 0.0
H645 H 0.18323 0.48561 0.57967 0.0
H646 H 0.20894 0.52275 0.49104 0.0
H647 H 0.20618 0.48583 0.51265 0.0
H648 H 0.2704 0.58758 0.2717 0.0
H649 H 0.27532 0.50865 0.36667 0.0
H650 H 0.28219 0.61296 0.5078 0.0
H651 H 0.2455 0.58723 0.4443 0.0
H652 H 0.28085 0.62442 0.38268 0.0
H653 H 0.29295 0.52263 0.60497 0.0
H654 H 0.2777 0.49097 0.5242 0.0
H655 H 0.25167 0.48661 0.58829 0.0
C656 C 0.80744 0.18501 0.13138 0.0
C657 C 0.8196 0.17557 0.20295 0.0
C658 C 0.80775 0.18183 0.03809 0.0
C659 C 0.81848 0.16655 0.01899 0.0
C660 C 0.83216 0.15871 0.09112 0.0
C661 C 0.83341 0.16446 0.18235 0.0
C662 C 0.79441 0.19217 0.96179 0.0
C663 C 0.84281 0.14117 0.07392 0.0
C664 C 0.77682 0.10951 0.81912 0.0
C665 C 0.80036 0.13098 0.75356 0.0
C666 C 0.78262 0.12066 0.90715 0.0
C667 C 0.81214 0.15472 0.92667 0.0
C668 C 0.83573 0.17673 0.85957 0.0
C669 C 0.82981 0.16402 0.77438 0.0
C670 C 0.75724 0.09629 0.97881 0.0
C671 C 0.86662 0.21416 0.87613 0.0
H672 H 0.79666 0.19342 0.14869 0.0
H673 H 0.84266 0.1571 0.23889 0.0
H674 H 0.80541 0.20113 0.89331 0.0
H675 H 0.76905 0.16848 0.95295 0.0
H676 H 0.79752 0.21411 -0.01933 0.0
H677 H 0.85172 0.13551 0.13917 0.0
H678 H 0.82313 0.11535 0.0445 0.0
H679 H 0.86147 0.15878 0.02157 0.0
H680 H 0.75397 0.08427 0.80118 0.0
H681 H 0.84767 0.18086 0.72186 0.0
H682 H 0.76571 0.09007 0.04413 0.0
H683 H 0.73575 0.07054 0.95246 0.0
H684 H 0.75104 0.11009 -0.0021 0.0
H685 H 0.88103 0.22921 0.81239 0.0
H686 H 0.88 0.21245 0.93387 0.0
H687 H 0.86268 0.22986 0.89807 0.0
C688 C 0.60112 0.88009 0.65679 0.0
C689 C 0.62206 0.87965 0.7109 0.0
C690 C 0.59784 0.87813 0.5605 0.0
C691 C 0.61653 0.87649 0.5193 0.0
C692 C 0.64012 0.88014 0.57256 0.0
C693 C 0.64217 0.88087 0.66928 0.0
C694 C 0.57246 0.87425 0.5051 0.0
C695 C 0.66129 0.8801 0.52904 0.0
C696 C 0.58137 0.81816 0.32513 0.0
C697 C 0.59422 0.8442 0.24717 0.0
C698 C 0.5879 0.82842 0.41482 0.0
C699 C 0.60833 0.86555 0.42494 0.0
C700 C 0.62119 0.89185 0.34567 0.0
C701 C 0.61382 0.88071 0.25699 0.0
C702 C 0.57315 0.79967 0.49857 0.0
C703 C 0.64348 0.93167 0.35416 0.0
H704 H 0.58555 0.87889 0.69099 0.0
H705 H 0.65826 0.88051 0.71285 0.0
H706 H 0.55347 0.84622 0.48671 0.0
H707 H 0.56243 0.88005 0.54538 0.0
H708 H 0.58153 0.89264 0.43832 0.0
H709 H 0.64833 0.85211 0.51783 0.0
H710 H 0.66909 0.89674 0.45954 0.0
H711 H 0.6821 0.89053 0.57475 0.0
H712 H 0.56627 0.78999 0.31575 0.0
H713 H 0.62393 0.90065 0.19544 0.0
H714 H 0.56091 0.80209 0.54064 0.0
H715 H 0.59147 0.8034 0.54481 0.0
H716 H 0.55621 0.77197 0.4775 0.0
H717 H 0.6444 0.94684 0.28737 0.0
H718 H 0.66718 0.94258 0.37147 0.0
H719 H 0.63703 0.93674 0.41106 0.0
C720 C 0.73621 0.47985 0.2844 0.0
C721 C 0.74046 0.46177 0.35706 0.0
C722 C 0.73698 0.47764 0.19102 0.0
C723 C 0.74164 0.45636 0.17075 0.0
C724 C 0.74239 0.43482 0.24338 0.0
C725 C 0.74192 0.4379 0.33658 0.0
C726 C 0.73555 0.50059 0.11472 0.0
C727 C 0.74619 0.41085 0.22353 0.0
C728 C 0.73307 0.45524 0.91195 0.0
C729 C 0.7638 0.48606 0.88577 0.0
C730 C 0.7258 0.44201 0.00628 0.0
C731 C 0.74979 0.46098 0.07484 0.0
C732 C 0.78129 0.49009 0.04832 0.0
C733 C 0.788 0.50213 0.95299 0.0
C734 C 0.69218 0.40994 0.03232 0.0
C735 C 0.80746 0.51078 0.12036 0.0
H736 H 0.73416 0.49749 0.30032 0.0
H737 H 0.74463 0.42331 0.39287 0.0
H738 H 0.75831 0.52186 0.07965 0.0
H739 H 0.71759 0.4839 0.0604 0.0
H740 H 0.73008 0.51392 0.14265 0.0
H741 H 0.73757 0.38897 0.28222 0.0
H742 H 0.73365 0.39856 0.15754 0.0
H743 H 0.77127 0.42725 0.21526 0.0
H744 H 0.71452 0.44208 0.85888 0.0
H745 H 0.81178 0.52548 0.93144 0.0
H746 H 0.68202 0.41958 0.05011 0.0
H747 H 0.69028 0.39262 0.09482 0.0
H748 H 0.67805 0.39334 0.97325 0.0
H749 H 0.80566 0.52671 0.15333 0.0
H750 H 0.83075 0.52965 0.08861 0.0
H751 H 0.80571 0.49197 0.17698 0.0
C752 C 0.19316 0.85656 0.4607 0.0
C753 C 0.21901 0.86245 0.44769 0.0
C754 C 0.18734 0.85755 0.54878 0.0
C755 C 0.20729 0.86315 0.62556 0.0
C756 C 0.23246 0.86704 0.61357 0.0
C757 C 0.23847 0.86745 0.52354 0.0
C758 C 0.16059 0.85385 0.55865 0.0
C759 C 0.25359 0.87198 0.69502 0.0
C760 C 0.22257 0.90878 0.82991 0.0
C761 C 0.2043 0.87916 0.8979 0.0
C762 C 0.22199 0.90366 0.73829 0.0
C763 C 0.20367 0.86819 0.71663 0.0
C764 C 0.18395 0.83807 0.78437 0.0
C765 C 0.18423 0.84399 0.8747 0.0
C766 C 0.24266 0.93632 0.66691 0.0
C767 C 0.16489 0.80002 0.7644 0.0
H768 H 0.17828 0.85284 0.40111 0.0
H769 H 0.25847 0.87209 0.51214 0.0
H770 H 0.15112 0.85635 0.48929 0.0
H771 H 0.1415 0.82702 0.59668 0.0
H772 H 0.16798 0.87461 0.60017 0.0
H773 H 0.26939 0.86989 0.67601 0.0
H774 H 0.26806 0.89893 0.7183 0.0
H775 H 0.2396 0.85142 0.75564 0.0
H776 H 0.23843 0.93589 0.84962 0.0
H777 H 0.17083 0.82132 0.92926 0.0
H778 H 0.23075 0.93092 0.59692 0.0
H779 H 0.26419 0.94257 0.66057 0.0
H780 H 0.24952 0.96048 0.68745 0.0
H781 H 0.15162 0.79466 0.69685 0.0
H782 H 0.1483 0.77953 0.82113 0.0
H783 H 0.18077 0.79662 0.75789 0.0
C784 C 0.39958 0.15262 0.34765 0.0
C785 C 0.42058 0.15572 0.41379 0.0
C786 C 0.39554 0.14292 0.2597 0.0
C787 C 0.41327 0.13659 0.23775 0.0
C788 C 0.43293 0.13722 0.30595 0.0
C789 C 0.4366 0.14715 0.39375 0.0
C790 C 0.37408 0.14222 0.18825 0.0
C791 C 0.45135 0.12949 0.28485 0.0
C792 C 0.38735 0.10861 -0.00176 0.0
C793 C 0.40593 0.14282 0.94605 0.0
C794 C 0.3921 0.10527 0.09521 0.0
C795 C 0.41565 0.13699 0.13894 0.0
C796 C 0.4366 0.17111 0.08508 0.0
C797 C 0.43126 0.17364 -0.01126 0.0
C798 C 0.37001 0.06839 0.15103 0.0
C799 C 0.46249 0.20546 0.12988 0.0
H800 H 0.38647 0.15821 0.36385 0.0
H801 H 0.45226 0.14857 0.44594 0.0
H802 H 0.35887 0.11768 0.15184 0.0
H803 H 0.35902 0.14292 0.22084 0.0
H804 H 0.3882 0.16602 0.13424 0.0
H805 H 0.45766 0.12053 0.3502 0.0
H806 H 0.43817 0.10849 0.23636 0.0
H807 H 0.47327 0.15447 0.25038 0.0
H808 H 0.36832 0.08465 0.96414 0.0
H809 H 0.44645 0.19995 0.94747 0.0
H810 H 0.34987 0.06288 0.17141 0.0
H811 H 0.38142 0.0667 0.21624 0.0
H812 H 0.36086 0.04696 0.10852 0.0
H813 H 0.45233 0.21231 0.16476 0.0
H814 H 0.4793 0.22866 0.07739 0.0
H815 H 0.47542 0.2019 0.18432 0.0
loop_
_geom_bond_atom_site_label_1
_geom_bond_atom_site_label_2
_geom_bond_distance
_geom_bond_site_symmetry_2
_ccdc_geom_bond_type
Tb0 C9 2.764 1_554 S
Tb0 O10 2.325 . S
Tb0 O13 2.303 1_554 S
Tb0 O17 2.322 . S
Tb0 O18 2.349 . S
Tb0 O21 2.415 1_554 S
Tb0 O22 2.399 . S
Tb1 O11 2.322 . S
Tb1 O12 2.349 1_554 S
Tb1 O14 2.415 . S
Tb1 O15 2.399 . S
Tb1 O16 2.325 . S
Tb1 O19 2.303 . S
Tb1 C30 2.764 . S
C2 O18 1.261 . S
C2 O19 1.257 . S
C3 C6 1.358 1_556 S
C3 C7 1.332 . S
C3 C9 1.504 . S
C4 C5 1.373 . S
C4 C8 1.308 . S
C5 C4 1.373 . S
C5 C6 1.429 1_556 S
C5 H32 0.932 1_556 S
C6 C3 1.358 1_554 S
C6 C5 1.429 1_554 S
C6 H33 0.930 . S
C7 C3 1.332 . S
C7 C8 1.394 . S
C7 H34 0.932 . S
C8 C4 1.308 . S
C8 C7 1.394 . S
C8 H35 0.929 . S
C9 Tb0 2.764 1_556 S
C9 C3 1.504 . S
C9 O21 1.239 . S
C9 O22 1.263 1_556 S
O10 Tb0 2.325 . S
O10 C20 1.236 . S
O11 Tb1 2.322 . S
O11 C20 1.257 . S
O12 Tb1 2.349 1_556 S
O12 C23 1.261 . S
O13 Tb0 2.303 1_556 S
O13 C23 1.257 . S
O14 Tb1 2.415 . S
O14 C30 1.239 . S
O15 Tb1 2.399 . S
O15 C30 1.263 . S
O16 Tb1 2.325 . S
O16 C31 1.236 . S
O17 Tb0 2.322 . S
O17 C31 1.257 . S
O18 Tb0 2.349 . S
O18 C2 1.261 . S
O19 Tb1 2.303 . S
O19 C2 1.257 . S
C20 O10 1.236 . S
C20 O11 1.257 . S
O21 Tb0 2.415 1_556 S
O21 C9 1.239 . S
O22 Tb0 2.399 . S
O22 C9 1.263 1_554 S
C23 O12 1.261 . S
C23 O13 1.257 . S
C24 C27 1.358 . S
C24 C28 1.332 . S
C24 C30 1.504 . S
C25 C26 1.373 . S
C25 C29 1.308 . S
C26 C25 1.373 . S
C26 C27 1.429 . S
C26 H36 0.932 . S
C27 C24 1.358 . S
C27 C26 1.429 . S
C27 H37 0.930 . S
C28 C24 1.332 . S
C28 C29 1.394 . S
C28 H38 0.932 . S
C29 C25 1.308 . S
C29 C28 1.394 . S
C29 H39 0.929 . S
C30 Tb1 2.764 . S
C30 O14 1.239 . S
C30 O15 1.263 . S
C30 C24 1.504 . S
C31 O16 1.236 . S
C31 O17 1.257 . S
H32 C5 0.932 1_554 S
H33 C6 0.930 . S
H34 C7 0.932 . S
H35 C8 0.929 . S
H36 C26 0.932 . S
H37 C27 0.930 . S
H38 C28 0.932 . S
H39 C29 0.929 . S
Tb40 C49 2.764 . S
Tb40 O50 2.325 . S
Tb40 O53 2.303 . S
Tb40 O57 2.322 . S
Tb40 O58 2.349 . S
Tb40 O61 2.415 . S
Tb40 O62 2.399 . S
Tb41 O51 2.322 . S
Tb41 O52 2.349 . S
Tb41 O54 2.415 . S
Tb41 O55 2.399 . S
Tb41 O56 2.325 . S
Tb41 O59 2.303 . S
Tb41 C70 2.764 . S
C42 O58 1.261 . S
C42 O59 1.257 . S
C43 C46 1.358 . S
C43 C47 1.332 . S
C43 C49 1.504 . S
C44 C45 1.373 . S
C44 C48 1.308 . S
C45 C44 1.373 . S
C45 C46 1.429 . S
C45 H72 0.932 . S
C46 C43 1.358 . S
C46 C45 1.429 . S
C46 H73 0.930 . S
C47 C43 1.332 . S
C47 C48 1.394 . S
C47 H74 0.932 . S
C48 C44 1.308 . S
C48 C47 1.394 . S
C48 H75 0.929 . S
C49 Tb40 2.764 . S
C49 C43 1.504 . S
C49 O61 1.239 . S
C49 O62 1.263 . S
O50 Tb40 2.325 . S
O50 C60 1.236 . S
O51 Tb41 2.322 . S
O51 C60 1.257 . S
O52 Tb41 2.349 . S
O52 C63 1.261 . S
O53 Tb40 2.303 . S
O53 C63 1.257 . S
O54 Tb41 2.415 . S
O54 C70 1.239 . S
O55 Tb41 2.399 . S
O55 C70 1.263 . S
O56 Tb41 2.325 . S
O56 C71 1.236 . S
O57 Tb40 2.322 . S
O57 C71 1.257 . S
O58 Tb40 2.349 . S
O58 C42 1.261 . S
O59 Tb41 2.303 . S
O59 C42 1.257 . S
C60 O50 1.236 . S
C60 O51 1.257 . S
O61 Tb40 2.415 . S
O61 C49 1.239 . S
O62 Tb40 2.399 . S
O62 C49 1.263 . S
C63 O52 1.261 . S
C63 O53 1.257 . S
C64 C67 1.358 . S
C64 C68 1.332 . S
C64 C70 1.504 . S
C65 C66 1.373 . S
C65 C69 1.308 . S
C66 C65 1.373 . S
C66 C67 1.429 . S
C66 H76 0.932 . S
C67 C64 1.358 . S
C67 C66 1.429 . S
C67 H77 0.930 . S
C68 C64 1.332 . S
C68 C69 1.394 . S
C68 H78 0.932 . S
C69 C65 1.308 . S
C69 C68 1.394 . S
C69 H79 0.929 . S
C70 Tb41 2.764 . S
C70 O54 1.239 . S
C70 O55 1.263 . S
C70 C64 1.504 . S
C71 O56 1.236 . S
C71 O57 1.257 . S
H72 C45 0.932 . S
H73 C46 0.930 . S
H74 C47 0.932 . S
H75 C48 0.929 . S
H76 C66 0.932 . S
H77 C67 0.930 . S
H78 C68 0.932 . S
H79 C69 0.929 . S
Tb80 C89 2.764 . S
Tb80 O90 2.325 . S
Tb80 O93 2.303 1_556 S
Tb80 O97 2.322 . S
Tb80 O98 2.349 . S
Tb80 O101 2.415 1_556 S
Tb80 O102 2.399 . S
Tb81 O91 2.322 . S
Tb81 O92 2.349 . S
Tb81 O94 2.415 1_554 S
Tb81 O95 2.399 . S
Tb81 O96 2.325 . S
Tb81 O99 2.303 1_554 S
Tb81 C110 2.764 . S
C82 O98 1.261 . S
C82 O99 1.257 . S
C83 C86 1.358 . S
C83 C87 1.332 1_556 S
C83 C89 1.504 . S
C84 C85 1.373 . S
C84 C88 1.308 . S
C85 C84 1.373 . S
C85 C86 1.429 . S
C85 H112 0.932 . S
C86 C83 1.358 . S
C86 C85 1.429 . S
C86 H113 0.930 . S
C87 C83 1.332 1_554 S
C87 C88 1.394 1_554 S
C87 H114 0.932 . S
C88 C84 1.308 . S
C88 C87 1.394 1_556 S
C88 H115 0.929 1_556 S
C89 Tb80 2.764 . S
C89 C83 1.504 . S
C89 O101 1.239 1_556 S
C89 O102 1.263 . S
O90 Tb80 2.325 . S
O90 C100 1.236 . S
O91 Tb81 2.322 . S
O91 C100 1.257 1_554 S
O92 Tb81 2.349 . S
O92 C103 1.261 . S
O93 Tb80 2.303 1_554 S
O93 C103 1.257 . S
O94 Tb81 2.415 1_556 S
O94 C110 1.239 1_556 S
O95 Tb81 2.399 . S
O95 C110 1.263 . S
O96 Tb81 2.325 . S
O96 C111 1.236 . S
O97 Tb80 2.322 . S
O97 C111 1.257 1_556 S
O98 Tb80 2.349 . S
O98 C82 1.261 . S
O99 Tb81 2.303 1_556 S
O99 C82 1.257 . S
C100 O90 1.236 . S
C100 O91 1.257 1_556 S
O101 Tb80 2.415 1_554 S
O101 C89 1.239 1_554 S
O102 Tb80 2.399 . S
O102 C89 1.263 . S
C103 O92 1.261 . S
C103 O93 1.257 . S
C104 C107 1.358 . S
C104 C108 1.332 . S
C104 C110 1.504 . S
C105 C106 1.373 . S
C105 C109 1.308 . S
C106 C105 1.373 . S
C106 C107 1.429 . S
C106 H116 0.932 . S
C107 C104 1.358 . S
C107 C106 1.429 . S
C107 H117 0.930 . S
C108 C104 1.332 . S
C108 C109 1.394 . S
C108 H118 0.932 1_554 S
C109 C105 1.308 . S
C109 C108 1.394 . S
C109 H119 0.929 1_554 S
C110 Tb81 2.764 . S
C110 O94 1.239 1_554 S
C110 O95 1.263 . S
C110 C104 1.504 . S
C111 O96 1.236 . S
C111 O97 1.257 1_554 S
H112 C85 0.932 . S
H113 C86 0.930 . S
H114 C87 0.932 . S
H115 C88 0.929 1_554 S
H116 C106 0.932 . S
H117 C107 0.930 . S
H118 C108 0.932 1_556 S
H119 C109 0.929 1_556 S
Tb120 C129 2.764 . S
Tb120 O130 2.325 . S
Tb120 O133 2.303 . S
Tb120 O137 2.322 . S
Tb120 O138 2.349 . S
Tb120 O141 2.415 . S
Tb120 O142 2.399 . S
Tb121 O131 2.322 . S
Tb121 O132 2.349 . S
Tb121 O134 2.415 . S
Tb121 O135 2.399 . S
Tb121 O136 2.325 . S
Tb121 O139 2.303 . S
Tb121 C150 2.764 . S
C122 O138 1.261 . S
C122 O139 1.257 . S
C123 C126 1.358 . S
C123 C127 1.332 . S
C123 C129 1.504 . S
C124 C125 1.373 . S
C124 C128 1.308 . S
C125 C124 1.373 . S
C125 C126 1.429 . S
C125 H152 0.932 . S
C126 C123 1.358 . S
C126 C125 1.429 . S
C126 H153 0.930 . S
C127 C123 1.332 . S
C127 C128 1.394 . S
C127 H154 0.932 . S
C128 C124 1.308 . S
C128 C127 1.394 . S
C128 H155 0.929 . S
C129 Tb120 2.764 . S
C129 C123 1.504 . S
C129 O141 1.239 . S
C129 O142 1.263 . S
O130 Tb120 2.325 . S
O130 C140 1.236 . S
O131 Tb121 2.322 . S
O131 C140 1.257 . S
O132 Tb121 2.349 . S
O132 C143 1.261 . S
O133 Tb120 2.303 . S
O133 C143 1.257 . S
O134 Tb121 2.415 . S
O134 C150 1.239 . S
O135 Tb121 2.399 . S
O135 C150 1.263 . S
O136 Tb121 2.325 . S
O136 C151 1.236 . S
O137 Tb120 2.322 . S
O137 C151 1.257 . S
O138 Tb120 2.349 . S
O138 C122 1.261 . S
O139 Tb121 2.303 . S
O139 C122 1.257 . S
C140 O130 1.236 . S
C140 O131 1.257 . S
O141 Tb120 2.415 . S
O141 C129 1.239 . S
O142 Tb120 2.399 . S
O142 C129 1.263 . S
C143 O132 1.261 . S
C143 O133 1.257 . S
C144 C147 1.358 . S
C144 C148 1.332 . S
C144 C150 1.504 . S
C145 C146 1.373 . S
C145 C149 1.308 . S
C146 C145 1.373 . S
C146 C147 1.429 . S
C146 H156 0.932 . S
C147 C144 1.358 . S
C147 C146 1.429 . S
C147 H157 0.930 . S
C148 C144 1.332 . S
C148 C149 1.394 . S
C148 H158 0.932 . S
C149 C145 1.308 . S
C149 C148 1.394 . S
C149 H159 0.929 . S
C150 Tb121 2.764 . S
C150 O134 1.239 . S
C150 O135 1.263 . S
C150 C144 1.504 . S
C151 O136 1.236 . S
C151 O137 1.257 . S
H152 C125 0.932 . S
H153 C126 0.930 . S
H154 C127 0.932 . S
H155 C128 0.929 . S
H156 C146 0.932 . S
H157 C147 0.930 . S
H158 C148 0.932 . S
H159 C149 0.929 . S
Tb160 C169 2.764 . S
Tb160 O170 2.325 . S
Tb160 O173 2.303 1_554 S
Tb160 O177 2.322 . S
Tb160 O178 2.349 . S
Tb160 O181 2.415 1_554 S
Tb160 O182 2.399 . S
Tb161 O171 2.322 . S
Tb161 O172 2.349 1_554 S
Tb161 O174 2.415 . S
Tb161 O175 2.399 1_554 S
Tb161 O176 2.325 . S
Tb161 O179 2.303 . S
Tb161 C190 2.764 . S
C162 O178 1.261 . S
C162 O179 1.257 . S
C163 C166 1.358 1_556 S
C163 C167 1.332 . S
C163 C169 1.504 1_556 S
C164 C165 1.373 1_556 S
C164 C168 1.308 . S
C165 C164 1.373 1_554 S
C165 C166 1.429 . S
C165 H192 0.932 . S
C166 C163 1.358 1_554 S
C166 C165 1.429 . S
C166 H193 0.930 . S
C167 C163 1.332 . S
C167 C168 1.394 . S
C167 H194 0.932 . S
C168 C164 1.308 . S
C168 C167 1.394 . S
C168 H195 0.929 . S
C169 Tb160 2.764 . S
C169 C163 1.504 1_554 S
C169 O181 1.239 1_554 S
C169 O182 1.263 . S
O170 Tb160 2.325 . S
O170 C180 1.236 . S
O171 Tb161 2.322 . S
O171 C180 1.257 . S
O172 Tb161 2.349 1_556 S
O172 C183 1.261 . S
O173 Tb160 2.303 1_556 S
O173 C183 1.257 . S
O174 Tb161 2.415 . S
O174 C190 1.239 . S
O175 Tb161 2.399 1_556 S
O175 C190 1.263 1_556 S
O176 Tb161 2.325 . S
O176 C191 1.236 . S
O177 Tb160 2.322 . S
O177 C191 1.257 . S
O178 Tb160 2.349 . S
O178 C162 1.261 . S
O179 Tb161 2.303 . S
O179 C162 1.257 . S
C180 O170 1.236 . S
C180 O171 1.257 . S
O181 Tb160 2.415 1_556 S
O181 C169 1.239 1_556 S
O182 Tb160 2.399 . S
O182 C169 1.263 . S
C183 O172 1.261 . S
C183 O173 1.257 . S
C184 C187 1.358 . S
C184 C188 1.332 . S
C184 C190 1.504 . S
C185 C186 1.373 . S
C185 C189 1.308 . S
C186 C185 1.373 . S
C186 C187 1.429 . S
C186 H196 0.932 . S
C187 C184 1.358 . S
C187 C186 1.429 . S
C187 H197 0.930 1_554 S
C188 C184 1.332 . S
C188 C189 1.394 . S
C188 H198 0.932 . S
C189 C185 1.308 . S
C189 C188 1.394 . S
C189 H199 0.929 . S
C190 Tb161 2.764 . S
C190 O174 1.239 . S
C190 O175 1.263 1_554 S
C190 C184 1.504 . S
C191 O176 1.236 . S
C191 O177 1.257 . S
H192 C165 0.932 . S
H193 C166 0.930 . S
H194 C167 0.932 . S
H195 C168 0.929 . S
H196 C186 0.932 . S
H197 C187 0.930 1_556 S
H198 C188 0.932 . S
H199 C189 0.929 . S
Tb200 C209 2.764 . S
Tb200 O210 2.325 . S
Tb200 O213 2.303 . S
Tb200 O217 2.322 . S
Tb200 O218 2.349 . S
Tb200 O221 2.415 . S
Tb200 O222 2.399 . S
Tb201 O211 2.322 . S
Tb201 O212 2.349 . S
Tb201 O214 2.415 . S
Tb201 O215 2.399 . S
Tb201 O216 2.325 . S
Tb201 O219 2.303 . S
Tb201 C230 2.764 . S
C202 O218 1.261 . S
C202 O219 1.257 . S
C203 C206 1.358 . S
C203 C207 1.332 . S
C203 C209 1.504 . S
C204 C205 1.373 . S
C204 C208 1.308 . S
C205 C204 1.373 . S
C205 C206 1.429 . S
C205 H232 0.932 . S
C206 C203 1.358 . S
C206 C205 1.429 . S
C206 H233 0.930 . S
C207 C203 1.332 . S
C207 C208 1.394 . S
C207 H234 0.932 . S
C208 C204 1.308 . S
C208 C207 1.394 . S
C208 H235 0.929 . S
C209 Tb200 2.764 . S
C209 C203 1.504 . S
C209 O221 1.239 . S
C209 O222 1.263 . S
O210 Tb200 2.325 . S
O210 C220 1.236 . S
O211 Tb201 2.322 . S
O211 C220 1.257 . S
O212 Tb201 2.349 . S
O212 C223 1.261 . S
O213 Tb200 2.303 . S
O213 C223 1.257 . S
O214 Tb201 2.415 . S
O214 C230 1.239 . S
O215 Tb201 2.399 . S
O215 C230 1.263 . S
O216 Tb201 2.325 . S
O216 C231 1.236 . S
O217 Tb200 2.322 . S
O217 C231 1.257 . S
O218 Tb200 2.349 . S
O218 C202 1.261 . S
O219 Tb201 2.303 . S
O219 C202 1.257 . S
C220 O210 1.236 . S
C220 O211 1.257 . S
O221 Tb200 2.415 . S
O221 C209 1.239 . S
O222 Tb200 2.399 . S
O222 C209 1.263 . S
C223 O212 1.261 . S
C223 O213 1.257 . S
C224 C227 1.358 . S
C224 C228 1.332 . S
C224 C230 1.504 . S
C225 C226 1.373 . S
C225 C229 1.308 . S
C226 C225 1.373 . S
C226 C227 1.429 . S
C226 H236 0.932 . S
C227 C224 1.358 . S
C227 C226 1.429 . S
C227 H237 0.930 . S
C228 C224 1.332 . S
C228 C229 1.394 . S
C228 H238 0.932 . S
C229 C225 1.308 . S
C229 C228 1.394 . S
C229 H239 0.929 . S
C230 Tb201 2.764 . S
C230 O214 1.239 . S
C230 O215 1.263 . S
C230 C224 1.504 . S
C231 O216 1.236 . S
C231 O217 1.257 . S
H232 C205 0.932 . S
H233 C206 0.930 . S
H234 C207 0.932 . S
H235 C208 0.929 . S
H236 C226 0.932 . S
H237 C227 0.930 . S
H238 C228 0.932 . S
H239 C229 0.929 . S
C240 C241 1.391 . S
C240 C242 1.394 . S
C240 H256 0.931 . S
C241 C240 1.391 . S
C241 C245 1.376 . S
C242 C240 1.394 . S
C242 C243 1.369 . S
C242 C246 1.531 . S
C243 C242 1.369 . S
C243 C244 1.410 . S
C243 C251 1.503 . S
C244 C243 1.410 . S
C244 C245 1.392 . S
C244 C247 1.511 . S
C245 C241 1.376 . S
C245 C244 1.392 . S
C245 H257 0.929 . S
C246 C242 1.531 . S
C246 H258 0.960 . S
C246 H259 0.962 . S
C246 H260 0.960 . S
C247 C244 1.511 . S
C247 H261 0.961 . S
C247 H262 0.961 . S
C247 H263 0.961 . S
C248 C249 1.370 . S
C248 C250 1.363 . S
C248 H264 0.931 . S
C249 C248 1.370 . S
C249 C253 1.408 . S
C250 C248 1.363 . S
C250 C251 1.370 . S
C250 C254 1.524 . S
C251 C243 1.503 . S
C251 C250 1.370 . S
C251 C252 1.403 . S
C252 C251 1.403 . S
C252 C253 1.404 . S
C252 C255 1.539 . S
C253 C249 1.408 . S
C253 C252 1.404 . S
C253 H265 0.930 . S
C254 C250 1.524 . S
C254 H266 0.956 . S
C254 H267 0.961 . S
C254 H268 0.961 . S
C255 C252 1.539 . S
C255 H269 0.958 . S
C255 H270 0.961 . S
C255 H271 0.960 . S
H256 C240 0.931 . S
H257 C245 0.929 . S
H258 C246 0.960 . S
H259 C246 0.962 . S
H260 C246 0.960 . S
H261 C247 0.961 . S
H262 C247 0.961 . S
H263 C247 0.961 . S
H264 C248 0.931 . S
H265 C253 0.930 . S
H266 C254 0.956 . S
H267 C254 0.961 . S
H268 C254 0.961 . S
H269 C255 0.958 . S
H270 C255 0.961 . S
H271 C255 0.960 . S
C272 C273 1.391 . S
C272 C274 1.394 . S
C272 H288 0.931 . S
C273 C272 1.391 . S
C273 C277 1.376 . S
C274 C272 1.394 . S
C274 C275 1.369 . S
C274 C278 1.531 . S
C275 C274 1.369 . S
C275 C276 1.410 . S
C275 C283 1.503 . S
C276 C275 1.410 . S
C276 C277 1.392 . S
C276 C279 1.511 . S
C277 C273 1.376 . S
C277 C276 1.392 . S
C277 H289 0.929 . S
C278 C274 1.531 . S
C278 H290 0.960 . S
C278 H291 0.962 . S
C278 H292 0.960 . S
C279 C276 1.511 . S
C279 H293 0.961 . S
C279 H294 0.961 . S
C279 H295 0.961 . S
C280 C281 1.370 . S
C280 C282 1.363 . S
C280 H296 0.931 1_455 S
C281 C280 1.370 . S
C281 C285 1.408 . S
C282 C280 1.363 . S
C282 C283 1.370 . S
C282 C286 1.524 . S
C283 C275 1.503 . S
C283 C282 1.370 . S
C283 C284 1.403 . S
C284 C283 1.403 . S
C284 C285 1.404 . S
C284 C287 1.539 . S
C285 C281 1.408 . S
C285 C284 1.404 . S
C285 H297 0.930 . S
C286 C282 1.524 . S
C286 H298 0.956 . S
C286 H299 0.961 . S
C286 H300 0.961 . S
C287 C284 1.539 . S
C287 H301 0.958 . S
C287 H302 0.961 . S
C287 H303 0.960 . S
H288 C272 0.931 . S
H289 C277 0.929 . S
H290 C278 0.960 . S
H291 C278 0.962 . S
H292 C278 0.960 . S
H293 C279 0.961 . S
H294 C279 0.961 . S
H295 C279 0.961 . S
H296 C280 0.931 1_655 S
H297 C285 0.930 . S
H298 C286 0.956 . S
H299 C286 0.961 . S
H300 C286 0.961 . S
H301 C287 0.958 . S
H302 C287 0.961 . S
H303 C287 0.960 . S
C304 C305 1.391 1_565 S
C304 C306 1.394 . S
C304 H320 0.931 . S
C305 C304 1.391 1_545 S
C305 C309 1.376 . S
C306 C304 1.394 . S
C306 C307 1.369 1_565 S
C306 C310 1.531 . S
C307 C306 1.369 1_545 S
C307 C308 1.410 . S
C307 C315 1.503 1_545 S
C308 C307 1.410 . S
C308 C309 1.392 . S
C308 C311 1.511 . S
C309 C305 1.376 . S
C309 C308 1.392 . S
C309 H321 0.929 . S
C310 C306 1.531 . S
C310 H322 0.960 . S
C310 H323 0.962 . S
C310 H324 0.960 . S
C311 C308 1.511 . S
C311 H325 0.961 . S
C311 H326 0.961 . S
C311 H327 0.961 . S
C312 C313 1.370 1_545 S
C312 C314 1.363 . S
C312 H328 0.931 . S
C313 C312 1.370 1_565 S
C313 C317 1.408 . S
C314 C312 1.363 . S
C314 C315 1.370 1_545 S
C314 C318 1.524 . S
C315 C307 1.503 1_565 S
C315 C314 1.370 1_565 S
C315 C316 1.403 . S
C316 C315 1.403 . S
C316 C317 1.404 . S
C316 C319 1.539 . S
C317 C313 1.408 . S
C317 C316 1.404 . S
C317 H329 0.930 . S
C318 C314 1.524 . S
C318 H330 0.956 . S
C318 H331 0.961 . S
C318 H332 0.961 . S
C319 C316 1.539 . S
C319 H333 0.958 . S
C319 H334 0.961 . S
C319 H335 0.960 . S
H320 C304 0.931 . S
H321 C309 0.929 . S
H322 C310 0.960 . S
H323 C310 0.962 . S
H324 C310 0.960 . S
H325 C311 0.961 . S
H326 C311 0.961 . S
H327 C311 0.961 . S
H328 C312 0.931 . S
H329 C317 0.930 . S
H330 C318 0.956 . S
H331 C318 0.961 . S
H332 C318 0.961 . S
H333 C319 0.958 . S
H334 C319 0.961 . S
H335 C319 0.960 . S
C336 C337 1.391 . S
C336 C338 1.394 . S
C336 H352 0.931 . S
C337 C336 1.391 . S
C337 C341 1.376 . S
C338 C336 1.394 . S
C338 C339 1.369 . S
C338 C342 1.531 . S
C339 C338 1.369 . S
C339 C340 1.410 . S
C339 C347 1.503 . S
C340 C339 1.410 . S
C340 C341 1.392 . S
C340 C343 1.511 . S
C341 C337 1.376 . S
C341 C340 1.392 . S
C341 H353 0.929 . S
C342 C338 1.531 . S
C342 H354 0.960 . S
C342 H355 0.962 . S
C342 H356 0.960 . S
C343 C340 1.511 . S
C343 H357 0.961 . S
C343 H358 0.961 . S
C343 H359 0.961 . S
C344 C345 1.370 . S
C344 C346 1.363 . S
C344 H360 0.931 . S
C345 C344 1.370 . S
C345 C349 1.408 . S
C346 C344 1.363 . S
C346 C347 1.370 . S
C346 C350 1.524 . S
C347 C339 1.503 . S
C347 C346 1.370 . S
C347 C348 1.403 . S
C348 C347 1.403 . S
C348 C349 1.404 . S
C348 C351 1.539 . S
C349 C345 1.408 . S
C349 C348 1.404 . S
C349 H361 0.930 . S
C350 C346 1.524 . S
C350 H362 0.956 . S
C350 H363 0.961 . S
C350 H364 0.961 . S
C351 C348 1.539 . S
C351 H365 0.958 . S
C351 H366 0.961 1_554 S
C351 H367 0.960 . S
H352 C336 0.931 . S
H353 C341 0.929 . S
H354 C342 0.960 . S
H355 C342 0.962 . S
H356 C342 0.960 . S
H357 C343 0.961 . S
H358 C343 0.961 . S
H359 C343 0.961 . S
H360 C344 0.931 . S
H361 C349 0.930 . S
H362 C350 0.956 . S
H363 C350 0.961 . S
H364 C350 0.961 . S
H365 C351 0.958 . S
H366 C351 0.961 1_556 S
H367 C351 0.960 . S
C368 C369 1.391 . S
C368 C370 1.394 . S
C368 H384 0.931 . S
C369 C368 1.391 . S
C369 C373 1.376 . S
C370 C368 1.394 . S
C370 C371 1.369 . S
C370 C374 1.531 . S
C371 C370 1.369 . S
C371 C372 1.410 . S
C371 C379 1.503 . S
C372 C371 1.410 . S
C372 C373 1.392 . S
C372 C375 1.511 . S
C373 C369 1.376 . S
C373 C372 1.392 . S
C373 H385 0.929 1_655 S
C374 C370 1.531 . S
C374 H386 0.960 . S
C374 H387 0.962 . S
C374 H388 0.960 . S
C375 C372 1.511 . S
C375 H389 0.961 . S
C375 H390 0.961 . S
C375 H391 0.961 . S
C376 C377 1.370 . S
C376 C378 1.363 . S
C376 H392 0.931 . S
C377 C376 1.370 . S
C377 C381 1.408 . S
C378 C376 1.363 . S
C378 C379 1.370 . S
C378 C382 1.524 . S
C379 C371 1.503 . S
C379 C378 1.370 . S
C379 C380 1.403 . S
C380 C379 1.403 . S
C380 C381 1.404 . S
C380 C383 1.539 . S
C381 C377 1.408 . S
C381 C380 1.404 . S
C381 H393 0.930 . S
C382 C378 1.524 . S
C382 H394 0.956 . S
C382 H395 0.961 . S
C382 H396 0.961 . S
C383 C380 1.539 . S
C383 H397 0.958 . S
C383 H398 0.961 . S
C383 H399 0.960 . S
H384 C368 0.931 . S
H385 C373 0.929 1_455 S
H386 C374 0.960 . S
H387 C374 0.962 . S
H388 C374 0.960 . S
H389 C375 0.961 . S
H390 C375 0.961 . S
H391 C375 0.961 . S
H392 C376 0.931 . S
H393 C381 0.930 . S
H394 C382 0.956 . S
H395 C382 0.961 . S
H396 C382 0.961 . S
H397 C383 0.958 . S
H398 C383 0.961 . S
H399 C383 0.960 . S
C400 C401 1.391 1_545 S
C400 C402 1.394 . S
C400 H416 0.931 . S
C401 C400 1.391 1_565 S
C401 C405 1.376 . S
C402 C400 1.394 . S
C402 C403 1.368 . S
C402 C406 1.531 . S
C403 C402 1.368 . S
C403 C404 1.409 1_545 S
C403 C411 1.504 . S
C404 C403 1.409 1_565 S
C404 C405 1.392 . S
C404 C407 1.511 . S
C405 C401 1.376 . S
C405 C404 1.392 . S
C405 H417 0.929 . S
C406 C402 1.531 . S
C406 H418 0.960 . S
C406 H419 0.962 . S
C406 H420 0.960 . S
C407 C404 1.511 . S
C407 H421 0.961 . S
C407 H422 0.961 . S
C407 H423 0.961 . S
C408 C409 1.370 1_565 S
C408 C410 1.363 . S
C408 H424 0.931 . S
C409 C408 1.370 1_545 S
C409 C413 1.408 . S
C410 C408 1.363 . S
C410 C411 1.370 1_565 S
C410 C414 1.524 . S
C411 C403 1.504 . S
C411 C410 1.370 1_545 S
C411 C412 1.403 . S
C412 C411 1.403 . S
C412 C413 1.404 . S
C412 C415 1.539 . S
C413 C409 1.408 . S
C413 C412 1.404 . S
C413 H425 0.930 . S
C414 C410 1.524 . S
C414 H426 0.956 . S
C414 H427 0.961 . S
C414 H428 0.961 . S
C415 C412 1.539 . S
C415 H429 0.958 . S
C415 H430 0.961 . S
C415 H431 0.960 . S
H416 C400 0.931 . S
H417 C405 0.929 . S
H418 C406 0.960 . S
H419 C406 0.962 . S
H420 C406 0.960 . S
H421 C407 0.961 . S
H422 C407 0.961 . S
H423 C407 0.961 . S
H424 C408 0.931 . S
H425 C413 0.930 . S
H426 C414 0.956 . S
H427 C414 0.961 . S
H428 C414 0.961 . S
H429 C415 0.958 . S
H430 C415 0.961 . S
H431 C415 0.960 . S
C432 C433 1.391 . S
C432 C434 1.394 . S
C432 H448 0.931 . S
C433 C432 1.391 . S
C433 C437 1.376 1_556 S
C434 C432 1.394 . S
C434 C435 1.369 . S
C434 C438 1.531 . S
C435 C434 1.369 . S
C435 C436 1.410 1_556 S
C435 C443 1.503 . S
C436 C435 1.410 1_554 S
C436 C437 1.392 . S
C436 C439 1.511 . S
C437 C433 1.376 1_554 S
C437 C436 1.392 . S
C437 H449 0.929 . S
C438 C434 1.531 . S
C438 H450 0.960 . S
C438 H451 0.962 . S
C438 H452 0.960 . S
C439 C436 1.511 . S
C439 H453 0.961 . S
C439 H454 0.961 . S
C439 H455 0.961 . S
C440 C441 1.370 . S
C440 C442 1.363 . S
C440 H456 0.931 . S
C441 C440 1.370 . S
C441 C445 1.408 . S
C442 C440 1.363 . S
C442 C443 1.370 . S
C442 C446 1.524 1_556 S
C443 C435 1.503 . S
C443 C442 1.370 . S
C443 C444 1.403 . S
C444 C443 1.403 . S
C444 C445 1.404 . S
C444 C447 1.539 . S
C445 C441 1.408 . S
C445 C444 1.404 . S
C445 H457 0.930 . S
C446 C442 1.524 1_554 S
C446 H458 0.953 1_554 S
C446 H459 0.961 . S
C446 H460 0.961 . S
C447 C444 1.539 . S
C447 H461 0.958 . S
C447 H462 0.961 . S
C447 H463 0.960 . S
H448 C432 0.931 . S
H449 C437 0.929 . S
H450 C438 0.960 . S
H451 C438 0.962 . S
H452 C438 0.960 . S
H453 C439 0.961 . S
H454 C439 0.961 . S
H455 C439 0.961 . S
H456 C440 0.931 . S
H457 C445 0.930 . S
H458 C446 0.953 1_556 S
H459 C446 0.961 . S
H460 C446 0.961 . S
H461 C447 0.958 . S
H462 C447 0.961 . S
H463 C447 0.960 . S
C464 C465 1.391 . S
C464 C466 1.394 . S
C464 H480 0.931 . S
C465 C464 1.391 . S
C465 C469 1.376 . S
C466 C464 1.394 . S
C466 C467 1.369 . S
C466 C470 1.531 . S
C467 C466 1.369 . S
C467 C468 1.410 . S
C467 C475 1.503 . S
C468 C467 1.410 . S
C468 C469 1.392 . S
C468 C471 1.511 . S
C469 C465 1.376 . S
C469 C468 1.392 . S
C469 H481 0.929 . S
C470 C466 1.531 . S
C470 H482 0.960 . S
C470 H483 0.962 . S
C470 H484 0.960 . S
C471 C468 1.511 . S
C471 H485 0.961 1_556 S
C471 H486 0.961 . S
C471 H487 0.961 . S
C472 C473 1.368 1_565 S
C472 C474 1.346 1_565 S
C472 H488 0.950 . S
C473 C472 1.368 1_545 S
C473 C477 1.408 . S
C474 C472 1.346 1_545 S
C474 C475 1.370 . S
C474 C478 1.524 1_545 S
C475 C467 1.503 . S
C475 C474 1.370 . S
C475 C476 1.403 . S
C476 C475 1.403 . S
C476 C477 1.404 . S
C476 C479 1.539 . S
C477 C473 1.408 . S
C477 C476 1.404 . S
C477 H489 0.930 . S
C478 C474 1.524 1_565 S
C478 H490 0.956 . S
C478 H491 0.961 . S
C478 H492 0.961 . S
C479 C476 1.539 . S
C479 H493 0.958 . S
C479 H494 0.961 . S
C479 H495 0.960 . S
H480 C464 0.931 . S
H481 C469 0.929 . S
H482 C470 0.960 . S
H483 C470 0.962 . S
H484 C470 0.960 . S
H485 C471 0.961 1_554 S
H486 C471 0.961 . S
H487 C471 0.961 . S
H488 C472 0.950 . S
H489 C477 0.930 . S
H490 C478 0.956 . S
H491 C478 0.961 . S
H492 C478 0.961 . S
H493 C479 0.958 . S
H494 C479 0.961 . S
H495 C479 0.960 . S
C496 C497 1.391 . S
C496 C498 1.394 . S
C496 H512 0.931 . S
C497 C496 1.391 . S
C497 C501 1.376 1_556 S
C498 C496 1.394 . S
C498 C499 1.369 . S
C498 C502 1.531 . S
C499 C498 1.369 . S
C499 C500 1.410 1_556 S
C499 C507 1.503 . S
C500 C499 1.410 1_554 S
C500 C501 1.392 . S
C500 C503 1.511 . S
C501 C497 1.376 1_554 S
C501 C500 1.392 . S
C501 H513 0.929 . S
C502 C498 1.531 . S
C502 H514 0.960 . S
C502 H515 0.962 . S
C502 H516 0.960 . S
C503 C500 1.511 . S
C503 H517 0.961 . S
C503 H518 0.961 . S
C503 H519 0.961 1_554 S
C504 C505 1.370 . S
C504 C506 1.363 . S
C504 H520 0.931 . S
C505 C504 1.370 . S
C505 C509 1.408 1_554 S
C506 C504 1.363 . S
C506 C507 1.370 1_554 S
C506 C510 1.524 . S
C507 C499 1.503 . S
C507 C506 1.370 1_556 S
C507 C508 1.403 . S
C508 C507 1.403 . S
C508 C509 1.404 . S
C508 C511 1.539 . S
C509 C505 1.408 1_556 S
C509 C508 1.404 . S
C509 H521 0.930 . S
C510 C506 1.524 . S
C510 H522 0.956 . S
C510 H523 0.961 . S
C510 H524 0.961 . S
C511 C508 1.539 . S
C511 H525 0.958 . S
C511 H526 0.961 . S
C511 H527 0.960 . S
H512 C496 0.931 . S
H513 C501 0.929 . S
H514 C502 0.960 . S
H515 C502 0.962 . S
H516 C502 0.960 . S
H517 C503 0.961 . S
H518 C503 0.961 . S
H519 C503 0.961 1_556 S
H520 C504 0.931 . S
H521 C509 0.930 . S
H522 C510 0.956 . S
H523 C510 0.961 . S
H524 C510 0.961 . S
H525 C511 0.958 . S
H526 C511 0.961 . S
H527 C511 0.960 . S
C528 C529 1.391 . S
C528 C530 1.394 . S
C528 H544 0.931 . S
C529 C528 1.391 . S
C529 C533 1.376 . S
C530 C528 1.394 . S
C530 C531 1.369 . S
C530 C534 1.531 . S
C531 C530 1.369 . S
C531 C532 1.410 . S
C531 C539 1.503 . S
C532 C531 1.410 . S
C532 C533 1.392 . S
C532 C535 1.511 . S
C533 C529 1.376 . S
C533 C532 1.392 . S
C533 H545 0.929 . S
C534 C530 1.531 . S
C534 H546 0.960 . S
C534 H547 0.962 . S
C534 H548 0.960 . S
C535 C532 1.511 . S
C535 H549 0.961 . S
C535 H550 0.961 . S
C535 H551 0.961 . S
C536 C537 1.370 . S
C536 C538 1.363 . S
C536 H552 0.931 . S
C537 C536 1.370 . S
C537 C541 1.408 . S
C538 C536 1.363 . S
C538 C539 1.370 . S
C538 C542 1.524 . S
C539 C531 1.503 . S
C539 C538 1.370 . S
C539 C540 1.403 . S
C540 C539 1.403 . S
C540 C541 1.404 . S
C540 C543 1.539 . S
C541 C537 1.408 . S
C541 C540 1.404 . S
C541 H553 0.930 . S
C542 C538 1.524 . S
C542 H554 0.956 . S
C542 H555 0.961 . S
C542 H556 0.961 . S
C543 C540 1.539 . S
C543 H557 0.958 . S
C543 H558 0.961 . S
C543 H559 0.960 . S
H544 C528 0.931 . S
H545 C533 0.929 . S
H546 C534 0.960 . S
H547 C534 0.962 . S
H548 C534 0.960 . S
H549 C535 0.961 . S
H550 C535 0.961 . S
H551 C535 0.961 . S
H552 C536 0.931 . S
H553 C541 0.930 . S
H554 C542 0.956 . S
H555 C542 0.961 . S
H556 C542 0.961 . S
H557 C543 0.958 . S
H558 C543 0.961 . S
H559 C543 0.960 . S
C560 C561 1.391 . S
C560 C562 1.394 . S
C560 H576 0.935 1_565 S
C561 C560 1.391 . S
C561 C565 1.376 . S
C562 C560 1.394 . S
C562 C563 1.369 . S
C562 C566 1.531 1_566 S
C563 C562 1.369 . S
C563 C564 1.410 . S
C563 C571 1.503 . S
C564 C563 1.410 . S
C564 C565 1.392 . S
C564 C567 1.511 . S
C565 C561 1.376 . S
C565 C564 1.392 . S
C565 H577 0.929 . S
C566 C562 1.531 1_544 S
C566 H578 0.960 . S
C566 H579 0.962 1_554 S
C566 H580 0.960 . S
C567 C564 1.511 . S
C567 H581 0.961 . S
C567 H582 0.961 . S
C567 H583 0.961 . S
C568 C569 1.370 . S
C568 C570 1.363 . S
C568 H584 0.931 . S
C569 C568 1.370 . S
C569 C573 1.408 1_556 S
C570 C568 1.363 . S
C570 C571 1.370 . S
C570 C574 1.524 . S
C571 C563 1.503 . S
C571 C570 1.370 . S
C571 C572 1.403 1_556 S
C572 C571 1.403 1_554 S
C572 C573 1.404 . S
C572 C575 1.539 . S
C573 C569 1.408 1_554 S
C573 C572 1.404 . S
C573 H585 0.930 . S
C574 C570 1.524 . S
C574 H586 0.956 1_565 S
C574 H587 0.961 . S
C574 H588 0.948 . S
C575 C572 1.539 . S
C575 H589 0.958 . S
C575 H590 0.961 . S
C575 H591 0.960 . S
H576 C560 0.935 1_545 S
H577 C565 0.929 . S
H578 C566 0.960 . S
H579 C566 0.962 1_556 S
H580 C566 0.960 . S
H581 C567 0.961 . S
H582 C567 0.961 . S
H583 C567 0.961 . S
H584 C568 0.931 . S
H585 C573 0.930 . S
H586 C574 0.956 1_545 S
H587 C574 0.961 . S
H588 C574 0.948 . S
H589 C575 0.958 . S
H590 C575 0.961 . S
H591 C575 0.960 . S
C592 C593 1.391 . S
C592 C594 1.394 . S
C592 H608 0.931 . S
C593 C592 1.391 . S
C593 C597 1.376 . S
C594 C592 1.394 . S
C594 C595 1.369 . S
C594 C598 1.531 . S
C595 C594 1.369 . S
C595 C596 1.410 . S
C595 C603 1.503 . S
C596 C595 1.410 . S
C596 C597 1.392 . S
C596 C599 1.511 . S
C597 C593 1.376 . S
C597 C596 1.392 . S
C597 H609 0.929 . S
C598 C594 1.531 . S
C598 H610 0.960 . S
C598 H611 0.962 . S
C598 H612 0.960 . S
C599 C596 1.511 . S
C599 H613 0.961 . S
C599 H614 0.961 . S
C599 H615 0.961 . S
C600 C601 1.370 . S
C600 C602 1.363 . S
C600 H616 0.931 . S
C601 C600 1.370 . S
C601 C605 1.408 . S
C602 C600 1.363 . S
C602 C603 1.370 . S
C602 C606 1.524 . S
C603 C595 1.503 . S
C603 C602 1.370 . S
C603 C604 1.403 . S
C604 C603 1.403 . S
C604 C605 1.404 . S
C604 C607 1.539 . S
C605 C601 1.408 . S
C605 C604 1.404 . S
C605 H617 0.930 . S
C606 C602 1.524 . S
C606 H618 0.956 . S
C606 H619 0.961 . S
C606 H620 0.961 . S
C607 C604 1.539 . S
C607 H621 0.958 . S
C607 H622 0.961 . S
C607 H623 0.960 . S
H608 C592 0.931 . S
H609 C597 0.929 . S
H610 C598 0.960 . S
H611 C598 0.962 . S
H612 C598 0.960 . S
H613 C599 0.961 . S
H614 C599 0.961 . S
H615 C599 0.961 . S
H616 C600 0.931 . S
H617 C605 0.930 . S
H618 C606 0.956 . S
H619 C606 0.961 . S
H620 C606 0.961 . S
H621 C607 0.958 . S
H622 C607 0.961 . S
H623 C607 0.960 . S
C624 C625 1.391 . S
C624 C626 1.394 . S
C624 H640 0.931 . S
C625 C624 1.391 . S
C625 C629 1.376 . S
C626 C624 1.394 . S
C626 C627 1.369 . S
C626 C630 1.531 . S
C627 C626 1.369 . S
C627 C628 1.410 . S
C627 C635 1.503 . S
C628 C627 1.410 . S
C628 C629 1.392 . S
C628 C631 1.511 . S
C629 C625 1.376 . S
C629 C628 1.392 . S
C629 H641 0.929 . S
C630 C626 1.531 . S
C630 H642 0.960 . S
C630 H643 0.962 . S
C630 H644 0.960 . S
C631 C628 1.511 . S
C631 H645 0.961 . S
C631 H646 0.961 . S
C631 H647 0.961 . S
C632 C633 1.370 . S
C632 C634 1.363 . S
C632 H648 0.931 . S
C633 C632 1.370 . S
C633 C637 1.408 . S
C634 C632 1.363 . S
C634 C635 1.370 . S
C634 C638 1.524 . S
C635 C627 1.503 . S
C635 C634 1.370 . S
C635 C636 1.403 . S
C636 C635 1.403 . S
C636 C637 1.404 . S
C636 C639 1.539 . S
C637 C633 1.408 . S
C637 C636 1.404 . S
C637 H649 0.930 . S
C638 C634 1.524 . S
C638 H650 0.956 . S
C638 H651 0.961 . S
C638 H652 0.961 . S
C639 C636 1.539 . S
C639 H653 0.958 . S
C639 H654 0.961 . S
C639 H655 0.960 . S
H640 C624 0.931 . S
H641 C629 0.929 . S
H642 C630 0.960 . S
H643 C630 0.962 . S
H644 C630 0.960 . S
H645 C631 0.961 . S
H646 C631 0.961 . S
H647 C631 0.961 . S
H648 C632 0.931 . S
H649 C637 0.930 . S
H650 C638 0.956 . S
H651 C638 0.961 . S
H652 C638 0.961 . S
H653 C639 0.958 . S
H654 C639 0.961 . S
H655 C639 0.960 . S
C656 C657 1.391 . S
C656 C658 1.394 . S
C656 H672 0.931 . S
C657 C656 1.391 . S
C657 C661 1.376 . S
C658 C656 1.394 . S
C658 C659 1.369 . S
C658 C662 1.531 . S
C659 C658 1.369 . S
C659 C660 1.410 . S
C659 C667 1.503 . S
C660 C659 1.410 . S
C660 C661 1.392 . S
C660 C663 1.511 . S
C661 C657 1.376 . S
C661 C660 1.392 . S
C661 H673 0.929 . S
C662 C658 1.531 . S
C662 H674 0.960 . S
C662 H675 0.962 . S
C662 H676 0.960 . S
C663 C660 1.511 . S
C663 H677 0.961 . S
C663 H678 0.961 . S
C663 H679 0.961 . S
C664 C665 1.370 . S
C664 C666 1.363 1_556 S
C664 H680 0.931 . S
C665 C664 1.370 . S
C665 C669 1.408 . S
C666 C664 1.363 1_554 S
C666 C667 1.370 . S
C666 C670 1.524 . S
C667 C659 1.503 . S
C667 C666 1.370 . S
C667 C668 1.403 . S
C668 C667 1.403 . S
C668 C669 1.404 1_554 S
C668 C671 1.539 . S
C669 C665 1.408 . S
C669 C668 1.404 1_556 S
C669 H681 0.930 . S
C670 C666 1.524 . S
C670 H682 0.956 . S
C670 H683 0.961 . S
C670 H684 0.961 . S
C671 C668 1.539 . S
C671 H685 0.958 . S
C671 H686 0.961 . S
C671 H687 0.960 . S
H672 C656 0.931 . S
H673 C661 0.929 . S
H674 C662 0.960 . S
H675 C662 0.962 . S
H676 C662 0.960 . S
H677 C663 0.961 . S
H678 C663 0.961 . S
H679 C663 0.961 . S
H680 C664 0.931 . S
H681 C669 0.930 . S
H682 C670 0.956 . S
H683 C670 0.961 . S
H684 C670 0.961 . S
H685 C671 0.958 . S
H686 C671 0.961 . S
H687 C671 0.960 . S
C688 C689 1.391 . S
C688 C690 1.394 . S
C688 H704 0.931 . S
C689 C688 1.391 . S
C689 C693 1.376 . S
C690 C688 1.394 . S
C690 C691 1.369 . S
C690 C694 1.531 . S
C691 C690 1.369 . S
C691 C692 1.410 . S
C691 C699 1.503 . S
C692 C691 1.410 . S
C692 C693 1.392 . S
C692 C695 1.511 . S
C693 C689 1.376 . S
C693 C692 1.392 . S
C693 H705 0.929 . S
C694 C690 1.531 . S
C694 H706 0.960 . S
C694 H707 0.962 . S
C694 H708 0.960 . S
C695 C692 1.511 . S
C695 H709 0.961 . S
C695 H710 0.961 . S
C695 H711 0.961 . S
C696 C697 1.370 . S
C696 C698 1.363 . S
C696 H712 0.931 . S
C697 C696 1.370 . S
C697 C701 1.408 . S
C698 C696 1.363 . S
C698 C699 1.370 . S
C698 C702 1.524 . S
C699 C691 1.503 . S
C699 C698 1.370 . S
C699 C700 1.403 . S
C700 C699 1.403 . S
C700 C701 1.404 . S
C700 C703 1.539 . S
C701 C697 1.408 . S
C701 C700 1.404 . S
C701 H713 0.930 . S
C702 C698 1.524 . S
C702 H714 0.956 . S
C702 H715 0.961 . S
C702 H716 0.961 . S
C703 C700 1.539 . S
C703 H717 0.958 . S
C703 H718 0.961 . S
C703 H719 0.960 . S
H704 C688 0.931 . S
H705 C693 0.929 . S
H706 C694 0.960 . S
H707 C694 0.962 . S
H708 C694 0.960 . S
H709 C695 0.961 . S
H710 C695 0.961 . S
H711 C695 0.961 . S
H712 C696 0.931 . S
H713 C701 0.930 . S
H714 C702 0.956 . S
H715 C702 0.961 . S
H716 C702 0.961 . S
H717 C703 0.958 . S
H718 C703 0.961 . S
H719 C703 0.960 . S
C720 C721 1.391 . S
C720 C722 1.394 . S
C720 H736 0.931 . S
C721 C720 1.391 . S
C721 C725 1.376 . S
C722 C720 1.394 . S
C722 C723 1.369 . S
C722 C726 1.531 . S
C723 C722 1.369 . S
C723 C724 1.410 . S
C723 C731 1.503 . S
C724 C723 1.410 . S
C724 C725 1.392 . S
C724 C727 1.511 . S
C725 C721 1.376 . S
C725 C724 1.392 . S
C725 H737 0.929 . S
C726 C722 1.531 . S
C726 H738 0.960 . S
C726 H739 0.962 . S
C726 H740 0.960 . S
C727 C724 1.511 . S
C727 H741 0.961 . S
C727 H742 0.961 . S
C727 H743 0.961 . S
C728 C729 1.370 . S
C728 C730 1.363 1_556 S
C728 H744 0.931 . S
C729 C728 1.370 . S
C729 C733 1.408 . S
C730 C728 1.363 1_554 S
C730 C731 1.370 . S
C730 C734 1.524 . S
C731 C723 1.503 . S
C731 C730 1.370 . S
C731 C732 1.403 . S
C732 C731 1.403 . S
C732 C733 1.404 1_554 S
C732 C735 1.539 . S
C733 C729 1.408 . S
C733 C732 1.404 1_556 S
C733 H745 0.930 . S
C734 C730 1.524 . S
C734 H746 0.956 . S
C734 H747 0.961 . S
C734 H748 0.961 . S
C735 C732 1.539 . S
C735 H749 0.958 . S
C735 H750 0.961 . S
C735 H751 0.960 . S
H736 C720 0.931 . S
H737 C725 0.929 . S
H738 C726 0.960 . S
H739 C726 0.962 . S
H740 C726 0.960 . S
H741 C727 0.961 . S
H742 C727 0.961 . S
H743 C727 0.961 . S
H744 C728 0.931 . S
H745 C733 0.930 . S
H746 C734 0.956 . S
H747 C734 0.961 . S
H748 C734 0.961 . S
H749 C735 0.958 . S
H750 C735 0.961 . S
H751 C735 0.960 . S
C752 C753 1.391 . S
C752 C754 1.394 . S
C752 H768 0.931 . S
C753 C752 1.391 . S
C753 C757 1.376 . S
C754 C752 1.394 . S
C754 C755 1.369 . S
C754 C758 1.531 . S
C755 C754 1.369 . S
C755 C756 1.410 . S
C755 C763 1.503 . S
C756 C755 1.410 . S
C756 C757 1.392 . S
C756 C759 1.511 . S
C757 C753 1.376 . S
C757 C756 1.392 . S
C757 H769 0.929 . S
C758 C754 1.531 . S
C758 H770 0.960 . S
C758 H771 0.962 . S
C758 H772 0.960 . S
C759 C756 1.511 . S
C759 H773 0.961 . S
C759 H774 0.961 . S
C759 H775 0.961 . S
C760 C761 1.370 . S
C760 C762 1.363 . S
C760 H776 0.931 . S
C761 C760 1.370 . S
C761 C765 1.408 . S
C762 C760 1.363 . S
C762 C763 1.370 . S
C762 C766 1.524 . S
C763 C755 1.503 . S
C763 C762 1.370 . S
C763 C764 1.403 . S
C764 C763 1.403 . S
C764 C765 1.404 . S
C764 C767 1.539 . S
C765 C761 1.408 . S
C765 C764 1.404 . S
C765 H777 0.930 . S
C766 C762 1.524 . S
C766 H778 0.956 . S
C766 H779 0.961 . S
C766 H780 0.961 . S
C767 C764 1.539 . S
C767 H781 0.958 . S
C767 H782 0.961 . S
C767 H783 0.960 . S
H768 C752 0.931 . S
H769 C757 0.929 . S
H770 C758 0.960 . S
H771 C758 0.962 . S
H772 C758 0.960 . S
H773 C759 0.961 . S
H774 C759 0.961 . S
H775 C759 0.961 . S
H776 C760 0.931 . S
H777 C765 0.930 . S
H778 C766 0.956 . S
H779 C766 0.961 . S
H780 C766 0.961 . S
H781 C767 0.958 . S
H782 C767 0.961 . S
H783 C767 0.960 . S
C784 C785 1.391 . S
C784 C786 1.394 . S
C784 H800 0.931 . S
C785 C784 1.391 . S
C785 C789 1.376 . S
C786 C784 1.394 . S
C786 C787 1.369 . S
C786 C790 1.531 . S
C787 C786 1.369 . S
C787 C788 1.410 . S
C787 C795 1.503 . S
C788 C787 1.410 . S
C788 C789 1.392 . S
C788 C791 1.511 . S
C789 C785 1.376 . S
C789 C788 1.392 . S
C789 H801 0.929 . S
C790 C786 1.531 . S
C790 H802 0.960 . S
C790 H803 0.962 . S
C790 H804 0.960 . S
C791 C788 1.511 . S
C791 H805 0.961 . S
C791 H806 0.961 . S
C791 H807 0.961 . S
C792 C793 1.370 1_554 S
C792 C794 1.363 . S
C792 H808 0.931 1_554 S
C793 C792 1.370 1_556 S
C793 C797 1.408 . S
C794 C792 1.363 . S
C794 C795 1.370 . S
C794 C798 1.524 . S
C795 C787 1.503 . S
C795 C794 1.370 . S
C795 C796 1.403 . S
C796 C795 1.403 . S
C796 C797 1.404 1_554 S
C796 C799 1.539 . S
C797 C793 1.408 . S
C797 C796 1.404 1_556 S
C797 H809 0.930 . S
C798 C794 1.524 . S
C798 H810 0.956 . S
C798 H811 0.961 . S
C798 H812 0.961 . S
C799 C796 1.539 . S
C799 H813 0.958 . S
C799 H814 0.961 . S
C799 H815 0.960 . S
H800 C784 0.931 . S
H801 C789 0.929 . S
H802 C790 0.960 . S
H803 C790 0.962 . S
H804 C790 0.960 . S
H805 C791 0.961 . S
H806 C791 0.961 . S
H807 C791 0.961 . S
H808 C792 0.931 1_556 S
H809 C797 0.930 . S
H810 C798 0.956 . S
H811 C798 0.961 . S
H812 C798 0.961 . S
H813 C799 0.958 . S
H814 C799 0.961 . S
H815 C799 0.960 . S
C241 C204 2.506 . S
C249 C25 2.611 . S
C273 C31 3.353 . S
C281 C44 3.071 1_455 S
C305 C60 1.213 . S
C313 C111 1.169 . S
C337 C124 2.601 . S
C345 C105 2.511 . S
C369 C185 3.034 1_655 S
C377 C140 3.367 . S
C401 C191 1.296 . S
C409 C220 1.199 . S
C433 C180 2.166 1_556 S
C441 C4 2.128 . S
C465 C225 1.547 . S
C473 C65 1.531 . S
C497 C100 2.626 . S
C505 C20 2.593 . S
C529 C145 2.133 . S
C537 C71 2.179 . S
C561 C164 1.523 . S
C569 C84 1.551 . S
C593 C151 2.579 . S
C601 C231 2.631 . S
C625 C23 0.873 . S
C633 C2 0.945 . S
C657 C63 1.052 . S
C665 C42 1.010 . S
C689 C82 1.029 . S
C697 C103 0.996 . S
C721 C143 0.916 . S
C729 C122 0.931 . S
C753 C162 1.041 . S
C761 C183 1.011 . S
C785 C202 1.029 . S
C793 C223 0.996 . S
