# Generated by pormake.
# Topology cab, (5)-cn, num edge types: 1
# Building blocks:
#     Node 0, Type 0, BuildingBlock: XOMCOT_clean_sbu_0, # of connection points: 5
#     Node 1, Type 0, BuildingBlock: XOMCOT_clean_sbu_0, # of connection points: 5
#     Node 2, Type 0, BuildingBlock: XOMCOT_clean_sbu_0, # of connection points: 5
#     Node 3, Type 0, BuildingBlock: XOMCOT_clean_sbu_0, # of connection points: 5
#     Node 4, Type 0, BuildingBlock: XOMCOT_clean_sbu_0, # of connection points: 5
#     Node 5, Type 0, BuildingBlock: XOMCOT_clean_sbu_0, # of connection points: 5
#     Edge 6, Type (0, 0), BuildingBlock: FUNLAD_clean_linker_1, # of connection points: 2
#     Edge 7, Type (0, 0), BuildingBlock: FUNLAD_clean_linker_1, # of connection points: 2
#     Edge 8, Type (0, 0), BuildingBlock: FUNLAD_clean_linker_1, # of connection points: 2
#     Edge 9, Type (0, 0), BuildingBlock: FUNLAD_clean_linker_1, # of connection points: 2
#     Edge 10, Type (0, 0), BuildingBlock: FUNLAD_clean_linker_1, # of connection points: 2
#     Edge 11, Type (0, 0), BuildingBlock: FUNLAD_clean_linker_1, # of connection points: 2
#     Edge 12, Type (0, 0), BuildingBlock: FUNLAD_clean_linker_1, # of connection points: 2
#     Edge 13, Type (0, 0), BuildingBlock: FUNLAD_clean_linker_1, # of connection points: 2
#     Edge 14, Type (0, 0), BuildingBlock: FUNLAD_clean_linker_1, # of connection points: 2
#     Edge 15, Type (0, 0), BuildingBlock: FUNLAD_clean_linker_1, # of connection points: 2
#     Edge 16, Type (0, 0), BuildingBlock: FUNLAD_clean_linker_1, # of connection points: 2
#     Edge 17, Type (0, 0), BuildingBlock: FUNLAD_clean_linker_1, # of connection points: 2
#     Edge 18, Type (0, 0), BuildingBlock: FUNLAD_clean_linker_1, # of connection points: 2
#     Edge 19, Type (0, 0), BuildingBlock: FUNLAD_clean_linker_1, # of connection points: 2
#     Edge 20, Type (0, 0), BuildingBlock: FUNLAD_clean_linker_1, # of connection points: 2
# Relax obj value: 0.835
# Max RMSD: 0.225
# Mean RMSD: 0.222
data_MOF--net-cab--node1-XOMCOT_clean_sbu_0--edge1-FUNLAD_clean_linker_1
_symmetry_space_group_name_H-M    P1
_symmetry_Int_Tables_number       1
_symmetry_cell_setting            triclinic
loop_
_symmetry_equiv_pos_as_xyz
'x, y, z'
_cell_length_a     37.413781
_cell_length_b     37.546313
_cell_length_c     37.591362
_cell_angle_alpha  78.782722
_cell_angle_beta   77.740997
_cell_angle_gamma 79.468772
loop_
_atom_site_label
_atom_site_type_symbol
_atom_site_fract_x
_atom_site_fract_y
_atom_site_fract_z
_atom_type_partial_charge
Co0 Co 0.99578 0.01089 0.34879 0.0
C1 C 0.00684 0.93266 0.38305 0.0
C2 C 0.94949 0.95258 0.38387 0.0
C3 C 0.9534 0.91539 0.39615 0.0
N4 N 0.98302 0.96376 0.37614 0.0
N5 N 0.98954 0.90276 0.39507 0.0
H6 H 0.0365 0.93149 0.37633 0.0
H7 H 0.92418 0.96894 0.37744 0.0
C8 C 0.9172 0.03733 0.38382 0.0
O9 O 0.92289 0.0239 0.41743 0.0
N10 N 0.00777 0.05718 0.32057 0.0
C11 C 0.03874 0.07186 0.31774 0.0
C12 C 0.0381 0.10284 0.29115 0.0
C13 C 0.98869 0.07923 0.29596 0.0
N14 N 0.00678 0.10705 0.2775 0.0
C15 C 0.02603 0.00391 0.41386 0.0
C16 C 0.99553 0.0728 0.43057 0.0
C17 C 0.01901 0.04995 0.45272 0.0
C18 C 0.03453 0.01509 0.4439 0.0
C19 C 0.9878 0.06052 0.40069 0.0
N20 N 0.00238 0.0261 0.39312 0.0
H21 H 0.03991 0.97798 0.40637 0.0
H22 H 0.97072 0.07904 0.3831 0.0
H23 H 0.06059 0.06031 0.33324 0.0
H24 H 0.96292 0.07417 0.29054 0.0
O25 O 0.04594 0.98894 0.33264 0.0
O26 O 0.99982 0.99316 0.30275 0.0
O27 O 0.9424 0.03324 0.35555 0.0
C28 C 0.03494 0.98376 0.30369 0.0
H29 H 0.93186 0.89833 0.40113 0.0
H30 H 0.05893 0.12087 0.28246 0.0
H31 H 0.9838 0.10029 0.43586 0.0
H32 H 0.05441 0.99702 0.45873 0.0
Co33 Co 0.16843 0.15111 0.75496 0.0
C34 C 0.10244 0.17515 0.80957 0.0
C35 C 0.09061 0.13817 0.77832 0.0
C36 C 0.06023 0.1453 0.80518 0.0
N37 N 0.11708 0.15733 0.78055 0.0
N38 N 0.06782 0.16851 0.82483 0.0
H39 H 0.11734 0.19086 0.82102 0.0
H40 H 0.09386 0.11814 0.76033 0.0
C41 C 0.17268 0.09401 0.8191 0.0
O42 O 0.16975 0.12127 0.83724 0.0
N43 N 0.21935 0.14412 0.73052 0.0
C44 C 0.23558 0.16356 0.69906 0.0
C45 C 0.27347 0.15338 0.69516 0.0
C46 C 0.24713 0.1222 0.74493 0.0
N47 N 0.28026 0.12732 0.72407 0.0
C48 C 0.13068 0.15555 0.69575 0.0
C49 C 0.15749 0.08516 0.68116 0.0
C50 C 0.13192 0.10741 0.66091 0.0
C51 C 0.11858 0.14319 0.66837 0.0
C52 C 0.16878 0.09858 0.70841 0.0
N53 N 0.1546 0.133 0.71595 0.0
H54 H 0.11973 0.18284 0.70183 0.0
H55 H 0.18883 0.08125 0.72351 0.0
H56 H 0.22109 0.1848 0.68118 0.0
H57 H 0.24351 0.1046 0.77149 0.0
O58 O 0.16379 0.20275 0.73442 0.0
O59 O 0.1822 0.17818 0.78728 0.0
O60 O 0.17423 0.10037 0.7843 0.0
C61 C 0.17445 0.20741 0.76365 0.0
H62 H 0.0358 0.13197 0.81156 0.0
H63 H 0.29431 0.16491 0.67358 0.0
H64 H 0.16859 0.0575 0.67605 0.0
H65 H 0.0982 0.16133 0.65428 0.0
Co66 Co 0.34969 0.01576 0.0323 0.0
C67 C 0.38775 0.03615 0.95443 0.0
C68 C 0.36697 0.985 0.96384 0.0
C69 C 0.38041 0.99369 0.92683 0.0
N70 N 0.3723 0.01112 0.98151 0.0
N71 N 0.39316 0.02602 0.92098 0.0
H72 H 0.39129 0.063 0.95803 0.0
H73 H 0.35192 0.96238 0.97652 0.0
C74 C 0.38318 0.93626 0.03741 0.0
O75 O 0.41399 0.94494 0.01591 0.0
N76 N 0.32544 0.01949 0.08237 0.0
C77 C 0.33069 0.04122 0.1048 0.0
C78 C 0.30433 0.03741 0.1366 0.0
C79 C 0.29598 0.00314 0.10043 0.0
N80 N 0.28242 0.01375 0.13358 0.0
C81 C 0.41281 0.04992 0.02861 0.0
C82 C 0.44583 0.99847 0.07964 0.0
C83 C 0.46351 0.02881 0.06165 0.0
C84 C 0.44622 0.05478 0.03622 0.0
C85 C 0.41219 0.99462 0.07103 0.0
N86 N 0.39692 0.01936 0.04449 0.0
H87 H 0.39925 0.07157 0.01067 0.0
H88 H 0.39817 0.97212 0.08634 0.0
H89 H 0.3514 0.05935 0.09809 0.0
H90 H 0.2843 0.98461 0.08893 0.0
O91 O 0.33335 0.06727 0.01766 0.0
O92 O 0.30153 0.02264 0.01851 0.0
O93 O 0.35632 0.96094 0.04668 0.0
C94 C 0.30345 0.05762 0.01249 0.0
H95 H 0.37869 0.97854 0.90566 0.0
H96 H 0.30062 0.05198 0.15962 0.0
H97 H 0.45735 0.97795 0.10024 0.0
H98 H 0.45815 0.07924 0.0226 0.0
Co99 Co 0.01916 0.35319 0.00951 0.0
C100 C 0.93837 0.37465 0.01476 0.0
C101 C 0.96567 0.3788 0.95838 0.0
C102 C 0.92819 0.38405 0.95939 0.0
N103 N 0.97234 0.37331 0.99316 0.0
N104 N 0.91115 0.38074 0.99483 0.0
H105 H 0.93369 0.36882 0.04453 0.0
H106 H 0.98593 0.37531 0.93384 0.0
C107 C 0.05226 0.38488 0.93151 0.0
O108 O 0.03695 0.41858 0.93544 0.0
N109 N 0.06508 0.33164 0.02564 0.0
C110 C 0.07662 0.33637 0.05579 0.0
C111 C 0.10907 0.31284 0.05903 0.0
C112 C 0.09002 0.30506 0.01135 0.0
N113 N 0.11716 0.29308 0.03129 0.0
C114 C 0.00076 0.42464 0.03198 0.0
C115 C 0.07049 0.44437 0.00581 0.0
C116 C 0.04295 0.46882 0.02356 0.0
C117 C 0.00754 0.45872 0.03679 0.0
C118 C 0.06268 0.41073 0.00185 0.0
N119 N 0.02798 0.40144 0.01408 0.0
H120 H 0.97379 0.41673 0.0431 0.0
H121 H 0.08471 0.3921 0.9886 0.0
H122 H 0.06194 0.35491 0.07455 0.0
H123 H 0.08769 0.29425 0.98743 0.0
O124 O 0.99382 0.33823 0.05908 0.0
O125 O 0.00741 0.30438 0.01431 0.0
O126 O 0.04657 0.35763 0.95718 0.0
C127 C 0.99406 0.30696 0.04875 0.0
H128 H 0.9147 0.38617 0.93611 0.0
H129 H 0.1248 0.30947 0.08084 0.0
H130 H 0.09825 0.45095 0.9955 0.0
H131 H 0.9852 0.47672 0.05057 0.0
Co132 Co 0.81518 0.14189 0.09309 0.0
C133 C 0.75604 0.20802 0.08855 0.0
C134 C 0.79923 0.2142 0.11531 0.0
C135 C 0.77436 0.2461 0.11431 0.0
N136 N 0.78775 0.19017 0.0993 0.0
N137 N 0.74755 0.2421 0.09714 0.0
H138 H 0.73968 0.19743 0.07385 0.0
H139 H 0.82407 0.20878 0.12703 0.0
C140 C 0.78976 0.1391 0.17375 0.0
O141 O 0.75667 0.15376 0.16723 0.0
N142 N 0.84369 0.09446 0.087 0.0
C143 C 0.83955 0.07268 0.06407 0.0
C144 C 0.86606 0.04211 0.06633 0.0
C145 C 0.87293 0.07724 0.10257 0.0
N146 N 0.88705 0.04507 0.09031 0.0
C147 C 0.74974 0.12811 0.0725 0.0
C148 C 0.73114 0.07524 0.13266 0.0
C149 C 0.70817 0.08558 0.10638 0.0
C150 C 0.7181 0.1121 0.07563 0.0
C151 C 0.76267 0.09179 0.12824 0.0
N152 N 0.77031 0.11976 0.09977 0.0
H153 H 0.75774 0.14728 0.0479 0.0
H154 H 0.78123 0.08146 0.14751 0.0
H155 H 0.81885 0.07875 0.04673 0.0
H156 H 0.88343 0.08804 0.12234 0.0
O157 O 0.8234 0.15622 0.04022 0.0
O158 O 0.86013 0.16356 0.07667 0.0
O159 O 0.81616 0.1312 0.14741 0.0
C160 C 0.85353 0.16687 0.04347 0.0
H161 H 0.77584 0.27026 0.12531 0.0
H162 H 0.86985 0.01941 0.05134 0.0
H163 H 0.72514 0.054 0.15616 0.0
H164 H 0.70153 0.12094 0.05429 0.0
Co165 Co 0.14515 0.80398 0.11744 0.0
C166 C 0.1369 0.77474 0.19795 0.0
C167 C 0.19221 0.78384 0.17374 0.0
C168 C 0.19006 0.77431 0.21122 0.0
N169 N 0.15905 0.78334 0.1651 0.0
N170 N 0.15541 0.76818 0.22628 0.0
H171 H 0.10712 0.77794 0.20182 0.0
H172 H 0.21555 0.79399 0.15482 0.0
C173 C 0.22126 0.76356 0.09481 0.0
O174 O 0.21146 0.73326 0.11558 0.0
N175 N 0.13273 0.82597 0.07014 0.0
C176 C 0.10169 0.82581 0.05746 0.0
C177 C 0.10186 0.85056 0.02503 0.0
C178 C 0.15117 0.85058 0.04573 0.0
N179 N 0.13301 0.86611 0.01801 0.0
C180 C 0.10753 0.74112 0.13631 0.0
C181 C 0.13761 0.7118 0.07266 0.0
C182 C 0.1112 0.69433 0.09931 0.0
C183 C 0.09641 0.70923 0.1315 0.0
C184 C 0.14828 0.74356 0.07879 0.0
N185 N 0.13401 0.75731 0.11083 0.0
H186 H 0.09348 0.75354 0.15986 0.0
H187 H 0.1675 0.75755 0.0574 0.0
H188 H 0.07974 0.81023 0.07169 0.0
H189 H 0.17637 0.8586 0.04939 0.0
O190 O 0.09646 0.82388 0.14051 0.0
O191 O 0.14555 0.85273 0.12734 0.0
O192 O 0.19817 0.7932 0.09257 0.0
C193 C 0.11017 0.85357 0.13953 0.0
H194 H 0.21123 0.77525 0.22654 0.0
H195 H 0.07998 0.85764 0.00904 0.0
H196 H 0.15 0.70124 0.04733 0.0
H197 H 0.07537 0.69701 0.15235 0.0
H198 H 0.99319 0.24764 0.06578 0.0
C199 C 0.98668 0.27382 0.07572 0.0
H200 H 0.97501 0.30055 0.12204 0.0
H201 H 0.96815 0.12259 0.19256 0.0
H202 H 0.91615 0.12723 0.16199 0.0
H203 H 0.8955 0.18461 0.12252 0.0
H204 H 0.92796 0.23717 0.11168 0.0
C205 C 0.97985 0.27443 0.11214 0.0
C206 C 0.98949 0.24069 0.13853 0.0
C207 C 0.96889 0.21106 0.14622 0.0
C208 C 0.97937 0.17878 0.17095 0.0
C209 C 0.96017 0.14849 0.17574 0.0
C210 C 0.9304 0.15067 0.15816 0.0
C211 C 0.91895 0.1829 0.13567 0.0
C212 C 0.93788 0.21283 0.12962 0.0
H213 H 0.96627 0.14792 0.25219 0.0
C214 C 0.99501 0.13508 0.24876 0.0
H215 H 0.04721 0.13109 0.21452 0.0
H216 H 0.03795 0.2905 0.12615 0.0
H217 H 0.09062 0.28555 0.15548 0.0
H218 H 0.10603 0.23173 0.20183 0.0
H219 H 0.06922 0.18236 0.2186 0.0
C220 C 0.01888 0.14498 0.2178 0.0
C221 C 0.00913 0.17714 0.18956 0.0
C222 C 0.03029 0.20646 0.18108 0.0
C223 C 0.02074 0.23801 0.15523 0.0
C224 C 0.04327 0.26624 0.14623 0.0
C225 C 0.07375 0.26374 0.16279 0.0
C226 C 0.08246 0.23342 0.1888 0.0
C227 C 0.06106 0.20514 0.19806 0.0
H228 H 0.77185 0.11633 0.23207 0.0
C229 C 0.79486 0.12618 0.21195 0.0
H230 H 0.85023 0.13503 0.20118 0.0
H231 H 0.80335 0.08409 0.38517 0.0
H232 H 0.75642 0.13823 0.38468 0.0
H233 H 0.74659 0.17814 0.32609 0.0
H234 H 0.78306 0.16389 0.26773 0.0
C235 C 0.82767 0.12462 0.22156 0.0
C236 C 0.83589 0.10374 0.25748 0.0
C237 C 0.81508 0.11332 0.29142 0.0
C238 C 0.8219 0.09135 0.32532 0.0
C239 C 0.79993 0.10058 0.35876 0.0
C240 C 0.77287 0.13145 0.35884 0.0
C241 C 0.76723 0.15384 0.32585 0.0
C242 C 0.78811 0.14511 0.29247 0.0
H243 H 0.87952 0.08682 0.37131 0.0
C244 C 0.88126 0.05709 0.37701 0.0
H245 H 0.8649 0.0112 0.36475 0.0
H246 H 0.88193 0.07836 0.19728 0.0
H247 H 0.9331 0.02891 0.19843 0.0
H248 H 0.94572 0.9914 0.25706 0.0
H249 H 0.90835 0.00441 0.31503 0.0
C250 C 0.86169 0.04102 0.36034 0.0
C251 C 0.85054 0.06095 0.32528 0.0
C252 C 0.87198 0.05187 0.29135 0.0
C253 C 0.86467 0.07334 0.25745 0.0
C254 C 0.88668 0.06379 0.22401 0.0
C255 C 0.91595 0.03501 0.22413 0.0
C256 C 0.92317 0.01405 0.25717 0.0
C257 C 0.90141 0.02202 0.29039 0.0
H258 H 0.9865 0.84456 0.40087 0.0
C259 C 0.00524 0.86492 0.39388 0.0
H260 H 0.05902 0.87521 0.36726 0.0
H261 H 0.13702 0.72107 0.33685 0.0
H262 H 0.15928 0.72012 0.39359 0.0
H263 H 0.13087 0.76611 0.43415 0.0
H264 H 0.08008 0.81325 0.41835 0.0
C265 C 0.0394 0.85587 0.37503 0.0
C266 C 0.04944 0.82291 0.35676 0.0
C267 C 0.07828 0.79525 0.36693 0.0
C268 C 0.09476 0.76894 0.34356 0.0
C269 C 0.12408 0.74194 0.35369 0.0
C270 C 0.13688 0.74104 0.38613 0.0
C271 C 0.12086 0.76693 0.40898 0.0
C272 C 0.09188 0.79385 0.3996 0.0
H273 H 0.14998 0.7841 0.27976 0.0
C274 C 0.13907 0.76816 0.26436 0.0
H275 H 0.0969 0.73853 0.26363 0.0
H276 H 0.99282 0.87142 0.32908 0.0
H277 H 0.96778 0.86813 0.27634 0.0
H278 H 0.99341 0.81901 0.23878 0.0
H279 H 0.0451 0.77369 0.25387 0.0
C280 C 0.10743 0.75458 0.2791 0.0
C281 C 0.08241 0.7706 0.31015 0.0
C282 C 0.05019 0.79485 0.30269 0.0
C283 C 0.03437 0.82202 0.32529 0.0
C284 C 0.00504 0.84889 0.31444 0.0
C285 C 0.99048 0.84759 0.28368 0.0
C286 C 0.005 0.82011 0.26252 0.0
C287 C 0.03476 0.79423 0.27152 0.0
H288 H 0.24548 0.01292 0.18686 0.0
C289 C 0.2498 0.0049 0.1598 0.0
H290 H 0.22649 0.98195 0.1244 0.0
H291 H 0.11161 0.9048 0.25232 0.0
H292 H 0.14648 0.85314 0.22353 0.0
H293 H 0.20085 0.8615 0.17406 0.0
H294 H 0.22048 0.92138 0.15267 0.0
C295 C 0.22306 0.99014 0.15118 0.0
C296 C 0.18764 0.98548 0.1778 0.0
C297 C 0.17664 0.95019 0.18994 0.0
C298 C 0.14554 0.94521 0.21885 0.0
C299 C 0.1352 0.9098 0.23068 0.0
C300 C 0.15492 0.88002 0.21439 0.0
C301 C 0.1855 0.88474 0.18647 0.0
C302 C 0.19648 0.91929 0.17441 0.0
H303 H 0.05199 0.97652 0.24516 0.0
C304 C 0.06189 0.97423 0.2708 0.0
H305 H 0.10838 0.96862 0.29593 0.0
H306 H 0.19324 0.05821 0.15277 0.0
H307 H 0.15708 0.10996 0.18024 0.0
H308 H 0.10691 0.10071 0.23349 0.0
H309 H 0.09152 0.03977 0.25934 0.0
C310 C 0.09844 0.9697 0.27055 0.0
C311 C 0.12586 0.97537 0.23571 0.0
C312 C 0.13494 0.01109 0.22149 0.0
C313 C 0.16514 0.01628 0.19182 0.0
C314 C 0.17203 0.05252 0.17668 0.0
C315 C 0.15118 0.0825 0.19178 0.0
C316 C 0.12276 0.07729 0.22179 0.0
C317 C 0.11441 0.04213 0.23644 0.0
H318 H 0.16889 0.90679 0.99122 0.0
C319 C 0.14388 0.89633 0.99028 0.0
H320 H 0.09803 0.9044 0.96349 0.0
H321 H 0.10569 0.07427 0.91325 0.0
H322 H 0.04902 0.07486 0.95845 0.0
H323 H 0.0296 0.01719 0.99473 0.0
H324 H 0.06776 0.95865 0.98722 0.0
C325 C 0.12377 0.91321 0.96452 0.0
C326 C 0.13402 0.94737 0.93994 0.0
C327 C 0.11118 0.98133 0.94448 0.0
C328 C 0.12229 0.01457 0.92345 0.0
C329 C 0.09896 0.04814 0.92871 0.0
C330 C 0.06612 0.0489 0.95442 0.0
C331 C 0.05528 0.01645 0.97494 0.0
C332 C 0.07746 0.983 0.97026 0.0
H333 H 0.16614 0.03584 0.8244 0.0
C334 C 0.16935 0.05669 0.83942 0.0
H335 H 0.16953 0.06996 0.89139 0.0
H336 H 0.1822 0.88665 0.92155 0.0
H337 H 0.24123 0.88619 0.87955 0.0
H338 H 0.26263 0.94413 0.84635 0.0
H339 H 0.22491 0.00277 0.85452 0.0
C340 C 0.16727 0.04889 0.87618 0.0
C341 C 0.1562 0.01377 0.89785 0.0
C342 C 0.17916 0.9798 0.89346 0.0
C343 C 0.16764 0.9465 0.91391 0.0
C344 C 0.1903 0.91284 0.90783 0.0
C345 C 0.22413 0.91216 0.8836 0.0
C346 C 0.23611 0.94478 0.86482 0.0
C347 C 0.21403 0.97827 0.86957 0.0
H348 H 0.41951 0.07045 0.88448 0.0
C349 C 0.40249 0.04938 0.88624 0.0
H350 H 0.36882 0.02808 0.85981 0.0
H351 H 0.3369 0.18769 0.76493 0.0
H352 H 0.32132 0.21373 0.82167 0.0
H353 H 0.33572 0.17656 0.88003 0.0
H354 H 0.36569 0.11381 0.88214 0.0
C355 C 0.38624 0.0488 0.85784 0.0
C356 C 0.38916 0.07583 0.82317 0.0
C357 C 0.37157 0.11278 0.82301 0.0
C358 C 0.36228 0.134 0.78965 0.0
C359 C 0.34405 0.17047 0.78978 0.0
C360 C 0.33509 0.1857 0.82205 0.0
C361 C 0.34325 0.16478 0.85489 0.0
C362 C 0.3608 0.12863 0.85564 0.0
H363 H 0.31525 0.08472 0.75349 0.0
C364 C 0.31475 0.11101 0.7351 0.0
H365 H 0.34113 0.15804 0.71602 0.0
H366 H 0.43203 0.01042 0.81224 0.0
H367 H 0.45063 0.98666 0.75405 0.0
H368 H 0.43217 0.02316 0.69694 0.0
H369 H 0.39503 0.08388 0.69772 0.0
C370 C 0.34257 0.13034 0.73141 0.0
C371 C 0.36871 0.11758 0.7576 0.0
C372 C 0.39136 0.08322 0.75649 0.0
C373 C 0.40172 0.06227 0.78936 0.0
C374 C 0.42317 0.02724 0.78791 0.0
C375 C 0.43407 0.01344 0.75476 0.0
C376 C 0.42368 0.03401 0.72259 0.0
C377 C 0.4024 0.06854 0.72333 0.0
H378 H 0.15064 0.26531 0.75977 0.0
C379 C 0.16939 0.2441 0.77351 0.0
H380 H 0.19757 0.22753 0.81805 0.0
H381 H 0.09711 0.3969 0.82297 0.0
H382 H 0.13929 0.41788 0.76737 0.0
H383 H 0.19024 0.37463 0.73892 0.0
H384 H 0.19883 0.30991 0.76565 0.0
C385 C 0.17897 0.24896 0.80443 0.0
C386 C 0.15529 0.27647 0.82609 0.0
C387 C 0.15186 0.31439 0.81127 0.0
C388 C 0.12351 0.33954 0.82856 0.0
C389 C 0.11906 0.37685 0.81177 0.0
C390 C 0.14295 0.3892 0.77972 0.0
C391 C 0.17156 0.36483 0.76363 0.0
C392 C 0.17607 0.3278 0.77909 0.0
H393 H 0.10429 0.38515 0.89167 0.0
C394 C 0.0769 0.37719 0.89728 0.0
H395 H 0.04218 0.34389 0.88726 0.0
H396 H 0.15546 0.2054 0.86329 0.0
H397 H 0.11638 0.18531 0.92083 0.0
H398 H 0.06982 0.22957 0.95292 0.0
H399 H 0.06207 0.294 0.92731 0.0
C400 C 0.06958 0.35206 0.88006 0.0
C401 C 0.09988 0.32682 0.86157 0.0
C402 C 0.10493 0.28921 0.87776 0.0
C403 C 0.13238 0.26391 0.8598 0.0
C404 C 0.13558 0.22621 0.87578 0.0
C405 C 0.11325 0.21414 0.90899 0.0
C406 C 0.08706 0.23901 0.92701 0.0
C407 C 0.08285 0.27606 0.91179 0.0
H408 H 0.87359 0.17811 0.9838 0.0
C409 C 0.8809 0.17724 0.01048 0.0
H410 H 0.92424 0.17804 0.03849 0.0
H411 H 0.00648 0.10797 0.88881 0.0
H412 H 0.9857 0.05241 0.92551 0.0
H413 H 0.94744 0.05329 0.98759 0.0
H414 H 0.92908 0.10994 0.01293 0.0
C415 C 0.91587 0.1796 0.0122 0.0
C416 C 0.94487 0.17806 0.9785 0.0
C417 C 0.95631 0.14452 0.96456 0.0
C418 C 0.97889 0.14394 0.92913 0.0
C419 C 0.98907 0.11016 0.91547 0.0
C420 C 0.97746 0.07798 0.93632 0.0
C421 C 0.95595 0.07846 0.97126 0.0
C422 C 0.94544 0.11122 0.98538 0.0
H423 H 0.0617 0.185 0.87865 0.0
C424 C 0.04711 0.17798 0.85949 0.0
H425 H 0.99608 0.16895 0.85053 0.0
H426 H 0.9328 0.24496 0.00047 0.0
H427 H 0.95582 0.30034 0.9654 0.0
H428 H 0.99483 0.29987 0.9036 0.0
H429 H 0.01127 0.24404 0.87654 0.0
C430 C 0.01077 0.17613 0.86949 0.0
C431 C 0.99088 0.17674 0.90814 0.0
C432 C 0.98189 0.2097 0.92344 0.0
C433 C 0.95894 0.21023 0.95886 0.0
C434 C 0.9499 0.24335 0.97354 0.0
C435 C 0.96298 0.27524 0.95373 0.0
C436 C 0.98499 0.27493 0.91896 0.0
C437 C 0.99431 0.24266 0.90377 0.0
H438 H 0.2453 0.07584 0.00606 0.0
C439 C 0.27157 0.08514 0.00431 0.0
H440 H 0.29952 0.13089 0.99716 0.0
H441 H 0.17271 0.24822 0.93687 0.0
H442 H 0.21234 0.23891 0.87835 0.0
H443 H 0.2631 0.18705 0.87469 0.0
H444 H 0.27653 0.14544 0.93011 0.0
C445 C 0.27337 0.12122 -0.00074 0.0
C446 C 0.23952 0.14899 0.00059 0.0
C447 C 0.23148 0.17223 0.96791 0.0
C448 C 0.20108 0.20119 0.96981 0.0
C449 C 0.19489 0.22525 0.93696 0.0
C450 C 0.21739 0.22021 0.90316 0.0
C451 C 0.24621 0.19113 0.90115 0.0
C452 C 0.25351 0.16745 0.93309 0.0
H453 H 0.16971 0.2613 0.04174 0.0
C454 C 0.14744 0.2637 0.02655 0.0
H455 H 0.12586 0.23923 0.99106 0.0
H456 H 0.2492 0.11153 0.06914 0.0
H457 H 0.20872 0.11958 0.12721 0.0
H458 H 0.15122 0.16427 0.12947 0.0
H459 H 0.13548 0.20273 0.07372 0.0
C460 C 0.14772 0.23765 0.00643 0.0
C461 C 0.17817 0.20606 0.00428 0.0
C462 C 0.18503 0.18142 0.03672 0.0
C463 C 0.21658 0.15382 0.03508 0.0
C464 C 0.22478 0.13195 0.06841 0.0
C465 C 0.20166 0.1362 0.10206 0.0
C466 C 0.16954 0.16154 0.10335 0.0
C467 C 0.16105 0.18379 0.07113 0.0
H468 H 0.35214 0.89303 0.06875 0.0
C469 C 0.37625 0.8981 0.04751 0.0
H470 H 0.41523 0.8771 0.00428 0.0
H471 H 0.30265 0.76708 0.12341 0.0
H472 H 0.34332 0.76395 0.16646 0.0
H473 H 0.39951 0.79377 0.14776 0.0
H474 H 0.41476 0.82768 0.08548 0.0
C475 C 0.39294 0.87172 0.02744 0.0
C476 C 0.37403 0.83917 0.0316 0.0
C477 C 0.36703 0.81709 0.06665 0.0
C478 C 0.33526 0.79904 0.07688 0.0
C479 C 0.32686 0.78048 0.11353 0.0
C480 C 0.35 0.77856 0.13865 0.0
C481 C 0.38161 0.7954 0.12816 0.0
C482 C 0.39003 0.81471 0.09261 0.0
H483 H 0.2802 0.73973 0.08 0.0
C484 C 0.26051 0.76487 0.0781 0.0
H485 H 0.25246 0.82224 0.0614 0.0
H486 H 0.38674 0.87011 0.95881 0.0
H487 H 0.34943 0.86919 0.91338 0.0
H488 H 0.29517 0.83644 0.93034 0.0
H489 H 0.27787 0.80448 0.99298 0.0
C490 C 0.27232 0.79725 0.0639 0.0
C491 C 0.31173 0.80204 0.05103 0.0
C492 C 0.32272 0.81861 0.01403 0.0
C493 C 0.35407 0.83721 0.00421 0.0
C494 C 0.36313 0.85558 0.96762 0.0
C495 C 0.34203 0.85513 0.94131 0.0
C496 C 0.31148 0.83669 0.95086 0.0
C497 C 0.30177 0.81862 0.9868 0.0
H498 H 0.68951 0.25926 0.09298 0.0
C499 C 0.71619 0.26849 0.08877 0.0
H500 H 0.69409 0.32203 0.06808 0.0
H501 H 0.82659 0.39618 0.08752 0.0
H502 H 0.77614 0.42159 0.13211 0.0
H503 H 0.71555 0.39985 0.14576 0.0
H504 H 0.70488 0.35285 0.11476 0.0
C505 C 0.71905 0.30356 0.07328 0.0
C506 C 0.75484 0.31842 0.06296 0.0
C507 C 0.7605 0.346 0.08129 0.0
C508 C 0.79553 0.35826 0.07376 0.0
C509 C 0.80053 0.3858 0.0924 0.0
C510 C 0.77183 0.40059 0.11804 0.0
C511 C 0.73771 0.38836 0.12572 0.0
C512 C 0.73196 0.36137 0.10769 0.0
H513 H 0.85456 0.38359 0.98735 0.0
C514 C 0.8731 0.37551 0.00719 0.0
H515 H 0.8791 0.34622 0.06035 0.0
H516 H 0.75163 0.27 0.018 0.0
H517 H 0.80314 0.2417 0.97662 0.0
H518 H 0.86552 0.25837 0.96841 0.0
H519 H 0.87653 0.30389 0.00093 0.0
C520 C 0.86131 0.35569 0.04005 0.0
C521 C 0.82478 0.34282 0.04808 0.0
C522 C 0.81927 0.31504 0.02991 0.0
C523 C 0.78386 0.30388 0.03625 0.0
C524 C 0.77843 0.27805 0.01572 0.0
C525 C 0.80769 0.26184 0.99161 0.0
C526 C 0.84277 0.27129 0.9869 0.0
C527 C 0.84864 0.29765 0.00563 0.0
H528 H 0.09687 0.91011 0.15298 0.0
C529 C 0.08577 0.88831 0.14561 0.0
H530 H 0.04155 0.8726 0.12883 0.0
H531 H 0.90504 0.98341 0.17437 0.0
H532 H 0.89037 0.92825 0.21662 0.0
H533 H 0.93765 0.87352 0.22337 0.0
H534 H 1.00032 0.87404 0.18887 0.0
C535 C 0.05184 0.89459 0.13685 0.0
C536 C 0.02631 0.93014 0.13744 0.0
C537 C 0.9902 0.93 0.15894 0.0
C538 C 0.96276 0.9614 0.15478 0.0
C539 C 0.92679 0.96014 0.17613 0.0
C540 C 0.91804 0.92872 0.20061 0.0
C541 C 0.94471 0.89797 0.20452 0.0
C542 C 0.98048 0.89854 0.18429 0.0
H543 H 0.92055 0.9912 0.09151 0.0
C544 C 0.91709 0.01769 0.10047 0.0
H545 H 0.93998 0.04984 0.12792 0.0
H546 H 0.09192 0.94004 0.08939 0.0
H547 H 0.10638 0.99591 0.04894 0.0
H548 H 0.05994 0.05169 0.04574 0.0
H549 H 0.99812 0.05136 0.08234 0.0
C550 C 0.94122 0.02329 0.11999 0.0
C551 C 0.97141 0.99312 0.12929 0.0
C552 C 0.00808 0.99436 0.10972 0.0
C553 C 0.03539 0.96256 0.11293 0.0
C554 C 0.07061 0.96365 0.0899 0.0
C555 C 0.07925 0.99559 0.06617 0.0
C556 C 0.05306 0.02697 0.06427 0.0
C557 C 0.01772 0.02641 0.08541 0.0
H558 H 0.12328 0.06206 0.63549 0.0
C559 C 0.11878 0.09179 0.63357 0.0
H560 H 0.09721 0.14194 0.60302 0.0
H561 H 0.11296 0.02351 0.48879 0.0
H562 H 0.17914 0.021 0.48303 0.0
H563 H 0.20416 0.05287 0.52172 0.0
H564 H 0.16316 0.08722 0.56652 0.0
C565 C 0.10207 0.11221 0.60653 0.0
C566 C 0.08738 0.09454 0.58181 0.0
C567 C 0.11185 0.07497 0.55549 0.0
C568 C 0.09744 0.05715 0.5328 0.0
C569 C 0.12241 0.03765 0.50674 0.0
C570 C 0.16048 0.03602 0.50309 0.0
C571 C 0.17456 0.05391 0.52491 0.0
C572 C 0.15068 0.07333 0.55072 0.0
H573 H 0.02502 0.09412 0.48124 0.0
C574 C 0.02922 0.06448 0.48253 0.0
H575 H 0.04842 0.01342 0.51322 0.0
H576 H 0.03306 0.12999 0.62955 0.0
H577 H 0.96686 0.13248 0.63523 0.0
H578 H 0.94189 0.10119 0.596 0.0
H579 H 0.983 0.0673 0.55078 0.0
C580 C 0.04406 0.04312 0.51037 0.0
C581 C 0.05867 0.05972 0.53595 0.0
C582 C 0.0342 0.07916 0.56234 0.0
C583 C 0.04861 0.09684 0.58516 0.0
C584 C 0.02362 0.11608 0.6114 0.0
C585 C 0.98555 0.11768 0.61501 0.0
C586 C 0.97149 0.1001 0.5929 0.0
C587 C 0.99539 0.08092 0.5669 0.0
H588 H 0.66175 0.05817 0.14043 0.0
C589 C 0.67384 0.06895 0.11231 0.0
H590 H 0.66967 0.07459 0.05611 0.0
H591 H 0.56212 0.9571 0.08153 0.0
H592 H 0.6204 0.91876 0.06329 0.0
H593 H 0.67982 0.94069 0.05837 0.0
H594 H 0.68134 0.0012 0.07151 0.0
C595 C 0.65717 0.06655 0.0847 0.0
C596 C 0.62164 0.0517 0.09203 0.0
C597 C 0.62124 0.01615 0.08476 0.0
C598 C 0.58699 0.00339 0.08788 0.0
C599 C 0.58737 0.96806 0.07972 0.0
C600 C 0.62061 0.94578 0.06925 0.0
C601 C 0.65408 0.95814 0.06646 0.0
C602 C 0.65457 0.99292 0.07402 0.0
H603 H 0.5112 0.0587 0.05087 0.0
C604 C 0.49929 0.0355 0.06843 0.0
H605 H 0.508 0.99209 0.11278 0.0
H606 H 0.61253 0.12095 0.1092 0.0
H607 H 0.55446 0.1576 0.13102 0.0
H608 H 0.4953 0.13403 0.13958 0.0
H609 H 0.49391 0.07378 0.12581 0.0
C610 C 0.51769 0.01596 0.09469 0.0
C611 C 0.55327 0.02633 0.0981 0.0
C612 C 0.55377 0.0608 0.108 0.0
C613 C 0.58796 0.07382 0.10432 0.0
C614 C 0.58747 0.10925 0.11237 0.0
C615 C 0.55429 0.13065 0.12484 0.0
C616 C 0.52098 0.11743 0.12956 0.0
C617 C 0.52055 0.08293 0.12132 0.0
H618 H 0.0859 0.6437 0.11947 0.0
C619 C 0.09807 0.6609 0.09469 0.0
H620 H 0.10745 0.66981 0.03629 0.0
H621 H 0.08773 0.49268 0.08738 0.0
H622 H 0.14589 0.48517 0.10867 0.0
H623 H 0.17635 0.53878 0.10642 0.0
H624 H 0.14851 0.6002 0.08346 0.0
C625 C 0.09832 0.65194 0.06175 0.0
C626 C 0.0822 0.61927 0.0595 0.0
C627 C 0.09961 0.58346 0.07179 0.0
C628 C 0.0829 0.55245 0.07157 0.0
C629 C 0.09992 0.5171 0.08565 0.0
C630 C 0.1332 0.51241 0.09818 0.0
C631 C 0.15027 0.54259 0.09704 0.0
C632 C 0.13384 0.57775 0.084 0.0
H633 H 0.07849 0.51213 0.01073 0.0
C634 C 0.05298 0.50398 0.02778 0.0
H635 H 0.00932 0.51788 0.07141 0.0
H636 H 0.04145 0.68416 0.03446 0.0
H637 H 0.98411 0.69138 0.01165 0.0
H638 H 0.95626 0.63734 0.00939 0.0
H639 H 0.98549 0.57568 0.03018 0.0
C640 C 0.03465 0.52464 0.05321 0.0
C641 C 0.04975 0.55722 0.05746 0.0
C642 C 0.03234 0.59296 0.04524 0.0
C643 C 0.0486 0.62406 0.04623 0.0
C644 C 0.03049 0.65953 0.03404 0.0
C645 C 0.99754 0.66407 0.02091 0.0
C646 C 0.98185 0.63364 0.01964 0.0
C647 C 0.99892 0.59842 0.03162 0.0
loop_
_geom_bond_atom_site_label_1
_geom_bond_atom_site_label_2
_geom_bond_distance
_geom_bond_site_symmetry_2
_ccdc_geom_bond_type
Co0 N4 2.148 1_545 S
Co0 N10 2.128 . S
Co0 N20 2.194 . S
Co0 O25 2.351 . S
Co0 O26 2.155 . S
Co0 O27 2.096 1_455 S
C1 N4 1.301 . S
C1 N5 1.328 . S
C1 H6 0.930 . S
C2 C3 1.333 1_655 S
C2 N4 1.311 1_655 S
C2 H7 0.936 . S
C3 C2 1.333 1_455 S
C3 N5 1.350 . S
C3 H29 0.931 1_455 S
N4 Co0 2.148 1_565 S
N4 C1 1.301 . S
N4 C2 1.311 1_455 S
N5 C1 1.328 . S
N5 C3 1.350 . S
H6 C1 0.930 . S
H7 C2 0.936 . S
C8 O9 1.224 . S
C8 O27 1.247 . S
O9 C8 1.224 . S
N10 Co0 2.128 . S
N10 C11 1.355 . S
N10 C13 1.311 . S
C11 N10 1.355 . S
C11 C12 1.363 . S
C11 H23 0.929 . S
C12 C11 1.363 . S
C12 N14 1.375 . S
C12 H30 0.931 . S
C13 N10 1.311 . S
C13 N14 1.347 . S
C13 H24 0.929 1_455 S
N14 C12 1.375 . S
N14 C13 1.347 . S
C15 C18 1.365 . S
C15 N20 1.328 . S
C15 H21 0.929 1_545 S
C16 C17 1.353 1_655 S
C16 C19 1.385 1_655 S
C16 H31 0.936 . S
C17 C16 1.353 1_455 S
C17 C18 1.366 . S
C18 C15 1.365 . S
C18 C17 1.366 . S
C18 H32 0.930 . S
C19 C16 1.385 1_455 S
C19 N20 1.335 . S
C19 H22 0.903 1_455 S
N20 Co0 2.194 . S
N20 C15 1.328 . S
N20 C19 1.335 . S
H21 C15 0.929 1_565 S
H22 C19 0.903 1_655 S
H23 C11 0.929 . S
H24 C13 0.929 1_655 S
O25 Co0 2.351 . S
O25 C28 1.244 . S
O26 Co0 2.155 . S
O26 C28 1.240 . S
O27 Co0 2.096 1_655 S
O27 C8 1.247 . S
C28 O25 1.244 . S
C28 O26 1.240 . S
H29 C3 0.931 1_655 S
H30 C12 0.931 . S
H31 C16 0.936 . S
H32 C18 0.930 . S
Co33 N37 2.148 . S
Co33 N43 2.128 . S
Co33 N53 2.194 . S
Co33 O58 2.351 . S
Co33 O59 2.155 . S
Co33 O60 2.096 . S
C34 N37 1.301 . S
C34 N38 1.328 . S
C34 H39 0.930 . S
C35 C36 1.333 . S
C35 N37 1.317 . S
C35 H40 0.930 . S
C36 C35 1.333 . S
C36 N38 1.350 . S
C36 H62 0.931 . S
N37 Co33 2.148 . S
N37 C34 1.301 . S
N37 C35 1.317 . S
N38 C34 1.328 . S
N38 C36 1.350 . S
H39 C34 0.930 . S
H40 C35 0.930 . S
C41 O42 1.224 . S
C41 O60 1.247 . S
O42 C41 1.224 . S
N43 Co33 2.128 . S
N43 C44 1.355 . S
N43 C46 1.311 . S
C44 N43 1.355 . S
C44 C45 1.363 . S
C44 H56 0.929 . S
C45 C44 1.363 . S
C45 N47 1.375 . S
C45 H63 0.931 . S
C46 N43 1.311 . S
C46 N47 1.347 . S
C46 H57 0.929 . S
N47 C45 1.375 . S
N47 C46 1.347 . S
C48 C51 1.365 . S
C48 N53 1.328 . S
C48 H54 0.929 . S
C49 C50 1.362 . S
C49 C52 1.378 . S
C49 H64 0.929 . S
C50 C49 1.362 . S
C50 C51 1.366 . S
C51 C48 1.365 . S
C51 C50 1.366 . S
C51 H65 0.930 . S
C52 C49 1.378 . S
C52 N53 1.315 . S
C52 H55 0.930 . S
N53 Co33 2.194 . S
N53 C48 1.328 . S
N53 C52 1.315 . S
H54 C48 0.929 . S
H55 C52 0.930 . S
H56 C44 0.929 . S
H57 C46 0.929 . S
O58 Co33 2.351 . S
O58 C61 1.244 . S
O59 Co33 2.155 . S
O59 C61 1.240 . S
O60 Co33 2.096 . S
O60 C41 1.247 . S
C61 O58 1.244 . S
C61 O59 1.240 . S
H62 C36 0.931 . S
H63 C45 0.931 . S
H64 C49 0.929 . S
H65 C51 0.930 . S
Co66 N70 2.148 1_554 S
Co66 N76 2.128 . S
Co66 N86 2.194 . S
Co66 O91 2.351 1_554 S
Co66 O92 2.155 . S
Co66 O93 2.096 1_545 S
C67 N70 1.301 . S
C67 N71 1.328 . S
C67 H72 0.930 . S
C68 C69 1.333 . S
C68 N70 1.317 . S
C68 H73 0.930 1_545 S
C69 C68 1.333 . S
C69 N71 1.350 . S
C69 H95 0.925 1_545 S
N70 Co66 2.148 1_556 S
N70 C67 1.301 . S
N70 C68 1.317 . S
N71 C67 1.328 . S
N71 C69 1.350 . S
H72 C67 0.930 . S
H73 C68 0.930 1_565 S
C74 O75 1.224 . S
C74 O93 1.247 . S
O75 C74 1.224 . S
N76 Co66 2.128 . S
N76 C77 1.355 . S
N76 C79 1.311 . S
C77 N76 1.355 . S
C77 C78 1.363 . S
C77 H89 0.929 . S
C78 C77 1.363 . S
C78 N80 1.375 . S
C78 H96 0.931 . S
C79 N76 1.311 . S
C79 N80 1.347 . S
C79 H90 0.929 1_545 S
N80 C78 1.375 . S
N80 C79 1.347 . S
C81 C84 1.357 1_556 S
C81 N86 1.328 1_556 S
C81 H87 0.929 . S
C82 C83 1.362 . S
C82 C85 1.378 . S
C82 H97 0.929 1_545 S
C83 C82 1.362 . S
C83 C84 1.374 . S
C84 C81 1.357 1_554 S
C84 C83 1.374 . S
C84 H98 0.932 1_554 S
C85 C82 1.378 . S
C85 N86 1.315 . S
C85 H88 0.930 1_545 S
N86 Co66 2.194 . S
N86 C81 1.328 1_554 S
N86 C85 1.315 . S
H87 C81 0.929 . S
H88 C85 0.930 1_565 S
H89 C77 0.929 . S
H90 C79 0.929 1_565 S
O91 Co66 2.351 1_556 S
O91 C94 1.244 . S
O92 Co66 2.155 . S
O92 C94 1.240 1_554 S
O93 Co66 2.096 1_565 S
O93 C74 1.247 . S
C94 O91 1.244 . S
C94 O92 1.240 1_556 S
H95 C69 0.925 1_565 S
H96 C78 0.931 . S
H97 C82 0.929 1_565 S
H98 C84 0.932 1_556 S
Co99 N103 2.148 1_455 S
Co99 N109 2.128 . S
Co99 N119 2.194 . S
Co99 O124 2.351 . S
Co99 O125 2.155 . S
Co99 O126 2.096 1_554 S
C100 N103 1.301 . S
C100 N104 1.328 . S
C100 H105 0.930 . S
C101 C102 1.333 1_556 S
C101 N103 1.317 1_556 S
C101 H106 0.930 . S
C102 C101 1.333 1_554 S
C102 N104 1.350 . S
C102 H128 0.931 1_554 S
N103 Co99 2.148 1_655 S
N103 C100 1.301 . S
N103 C101 1.317 1_554 S
N104 C100 1.328 . S
N104 C102 1.350 . S
H105 C100 0.930 . S
H106 C101 0.930 . S
C107 O108 1.224 . S
C107 O126 1.247 . S
O108 C107 1.224 . S
N109 Co99 2.128 . S
N109 C110 1.355 . S
N109 C112 1.311 . S
C110 N109 1.355 . S
C110 C111 1.363 . S
C110 H122 0.929 . S
C111 C110 1.363 . S
C111 N113 1.375 . S
C111 H129 0.931 . S
C112 N109 1.311 . S
C112 N113 1.347 . S
C112 H123 0.929 1_554 S
N113 C111 1.375 . S
N113 C112 1.347 . S
C114 C117 1.365 . S
C114 N119 1.328 . S
C114 H120 0.929 . S
C115 C116 1.362 1_556 S
C115 C118 1.378 . S
C115 H130 0.929 . S
C116 C115 1.362 1_554 S
C116 C117 1.366 . S
C117 C114 1.365 . S
C117 C116 1.366 . S
C117 H131 0.930 . S
C118 C115 1.378 . S
C118 N119 1.315 1_556 S
C118 H121 0.930 . S
N119 Co99 2.194 . S
N119 C114 1.328 . S
N119 C118 1.315 1_554 S
H120 C114 0.929 . S
H121 C118 0.930 . S
H122 C110 0.929 . S
H123 C112 0.929 1_556 S
O124 Co99 2.351 . S
O124 C127 1.244 . S
O125 Co99 2.155 . S
O125 C127 1.240 . S
O126 Co99 2.096 1_556 S
O126 C107 1.247 . S
C127 O124 1.244 . S
C127 O125 1.240 . S
H128 C102 0.931 1_556 S
H129 C111 0.931 . S
H130 C115 0.929 . S
H131 C117 0.930 . S
Co132 N136 2.148 . S
Co132 N142 2.128 . S
Co132 N152 2.194 . S
Co132 O157 2.351 . S
Co132 O158 2.155 . S
Co132 O159 2.096 . S
C133 N136 1.301 . S
C133 N137 1.328 . S
C133 H138 0.930 . S
C134 C135 1.333 . S
C134 N136 1.317 . S
C134 H139 0.930 . S
C135 C134 1.333 . S
C135 N137 1.350 . S
C135 H161 0.931 . S
N136 Co132 2.148 . S
N136 C133 1.301 . S
N136 C134 1.317 . S
N137 C133 1.328 . S
N137 C135 1.350 . S
H138 C133 0.930 . S
H139 C134 0.930 . S
C140 O141 1.224 . S
C140 O159 1.247 . S
O141 C140 1.224 . S
N142 Co132 2.128 . S
N142 C143 1.355 . S
N142 C145 1.311 . S
C143 N142 1.355 . S
C143 C144 1.363 . S
C143 H155 0.929 . S
C144 C143 1.363 . S
C144 N146 1.375 . S
C144 H162 0.931 . S
C145 N142 1.311 . S
C145 N146 1.347 . S
C145 H156 0.929 . S
N146 C144 1.375 . S
N146 C145 1.347 . S
C147 C150 1.365 . S
C147 N152 1.328 . S
C147 H153 0.929 . S
C148 C149 1.362 . S
C148 C151 1.378 . S
C148 H163 0.929 . S
C149 C148 1.362 . S
C149 C150 1.366 . S
C150 C147 1.365 . S
C150 C149 1.366 . S
C150 H164 0.930 . S
C151 C148 1.378 . S
C151 N152 1.315 . S
C151 H154 0.930 . S
N152 Co132 2.194 . S
N152 C147 1.328 . S
N152 C151 1.315 . S
H153 C147 0.929 . S
H154 C151 0.930 . S
H155 C143 0.929 . S
H156 C145 0.929 . S
O157 Co132 2.351 . S
O157 C160 1.244 . S
O158 Co132 2.155 . S
O158 C160 1.240 . S
O159 Co132 2.096 . S
O159 C140 1.247 . S
C160 O157 1.244 . S
C160 O158 1.240 . S
H161 C135 0.931 . S
H162 C144 0.931 . S
H163 C148 0.929 . S
H164 C150 0.930 . S
Co165 N169 2.148 . S
Co165 N175 2.128 . S
Co165 N185 2.194 . S
Co165 O190 2.351 . S
Co165 O191 2.155 . S
Co165 O192 2.096 . S
C166 N169 1.301 . S
C166 N170 1.328 . S
C166 H171 0.930 . S
C167 C168 1.333 . S
C167 N169 1.317 . S
C167 H172 0.930 . S
C168 C167 1.333 . S
C168 N170 1.350 . S
C168 H194 0.931 . S
N169 Co165 2.148 . S
N169 C166 1.301 . S
N169 C167 1.317 . S
N170 C166 1.328 . S
N170 C168 1.350 . S
H171 C166 0.930 . S
H172 C167 0.930 . S
C173 O174 1.224 . S
C173 O192 1.247 . S
O174 C173 1.224 . S
N175 Co165 2.128 . S
N175 C176 1.355 . S
N175 C178 1.311 . S
C176 N175 1.355 . S
C176 C177 1.363 . S
C176 H188 0.929 . S
C177 C176 1.363 . S
C177 N179 1.375 . S
C177 H195 0.931 1_554 S
C178 N175 1.311 . S
C178 N179 1.347 . S
C178 H189 0.929 . S
N179 C177 1.375 . S
N179 C178 1.347 . S
C180 C183 1.365 . S
C180 N185 1.328 . S
C180 H186 0.929 . S
C181 C182 1.362 . S
C181 C184 1.378 . S
C181 H196 0.929 . S
C182 C181 1.362 . S
C182 C183 1.366 . S
C183 C180 1.365 . S
C183 C182 1.366 . S
C183 H197 0.930 . S
C184 C181 1.378 . S
C184 N185 1.315 . S
C184 H187 0.930 . S
N185 Co165 2.194 . S
N185 C180 1.328 . S
N185 C184 1.315 . S
H186 C180 0.929 . S
H187 C184 0.930 . S
H188 C176 0.929 . S
H189 C178 0.929 . S
O190 Co165 2.351 . S
O190 C193 1.244 . S
O191 Co165 2.155 . S
O191 C193 1.240 . S
O192 Co165 2.096 . S
O192 C173 1.247 . S
C193 O190 1.244 . S
C193 O191 1.240 . S
H194 C168 0.931 . S
H195 C177 0.931 1_556 S
H196 C181 0.929 . S
H197 C183 0.930 . S
H198 C199 0.951 . S
C199 H198 0.951 . S
C199 C205 1.265 1_455 S
H200 C205 0.950 . S
H201 C209 0.949 . S
H202 C210 0.950 . S
H203 C211 0.951 . S
H204 C212 0.951 . S
C205 C199 1.265 1_655 S
C205 H200 0.950 . S
C205 C206 1.478 . S
C206 C205 1.478 . S
C206 C207 1.397 . S
C206 C223 1.394 1_655 S
C207 C206 1.397 . S
C207 C208 1.438 . S
C207 C212 1.429 . S
C208 C207 1.438 . S
C208 C209 1.428 . S
C208 C221 1.394 1_655 S
C209 H201 0.949 . S
C209 C208 1.428 . S
C209 C210 1.345 . S
C210 H202 0.950 . S
C210 C209 1.345 . S
C210 C211 1.424 . S
C211 H203 0.951 . S
C211 C210 1.424 . S
C211 C212 1.347 . S
C212 H204 0.951 . S
C212 C207 1.429 . S
C212 C211 1.347 . S
H213 C214 0.951 . S
C214 H213 0.951 . S
C214 C220 1.265 1_655 S
H215 C220 0.950 . S
H216 C224 0.949 . S
H217 C225 0.950 . S
H218 C226 0.951 . S
H219 C227 0.951 . S
C220 C214 1.265 1_455 S
C220 H215 0.950 . S
C220 C221 1.478 . S
C221 C208 1.394 1_455 S
C221 C220 1.478 . S
C221 C222 1.397 . S
C222 C221 1.397 . S
C222 C223 1.438 . S
C222 C227 1.429 . S
C223 C206 1.394 1_455 S
C223 C222 1.438 . S
C223 C224 1.428 . S
C224 H216 0.949 . S
C224 C223 1.428 . S
C224 C225 1.345 . S
C225 H217 0.950 . S
C225 C224 1.345 . S
C225 C226 1.424 . S
C226 H218 0.951 . S
C226 C225 1.424 . S
C226 C227 1.347 . S
C227 H219 0.951 . S
C227 C222 1.429 . S
C227 C226 1.347 . S
H228 C229 0.951 . S
C229 H228 0.951 . S
C229 C235 1.265 . S
H230 C235 0.950 . S
H231 C239 0.949 . S
H232 C240 0.950 . S
H233 C241 0.951 . S
H234 C242 0.951 . S
C235 C229 1.265 . S
C235 H230 0.950 . S
C235 C236 1.478 . S
C236 C235 1.478 . S
C236 C237 1.397 . S
C236 C253 1.394 . S
C237 C236 1.397 . S
C237 C238 1.438 . S
C237 C242 1.429 . S
C238 C237 1.438 . S
C238 C239 1.428 . S
C238 C251 1.394 . S
C239 H231 0.949 . S
C239 C238 1.428 . S
C239 C240 1.345 . S
C240 H232 0.950 . S
C240 C239 1.345 . S
C240 C241 1.424 . S
C241 H233 0.951 . S
C241 C240 1.424 . S
C241 C242 1.347 . S
C242 H234 0.951 . S
C242 C237 1.429 . S
C242 C241 1.347 . S
H243 C244 0.951 . S
C244 H243 0.951 . S
C244 C250 1.265 . S
H245 C250 0.950 . S
H246 C254 0.949 . S
H247 C255 0.950 . S
H248 C256 0.951 1_565 S
H249 C257 0.951 . S
C250 C244 1.265 . S
C250 H245 0.950 . S
C250 C251 1.478 . S
C251 C238 1.394 . S
C251 C250 1.478 . S
C251 C252 1.397 . S
C252 C251 1.397 . S
C252 C253 1.438 . S
C252 C257 1.429 . S
C253 C236 1.394 . S
C253 C252 1.438 . S
C253 C254 1.428 . S
C254 H246 0.949 . S
C254 C253 1.428 . S
C254 C255 1.345 . S
C255 H247 0.950 . S
C255 C254 1.345 . S
C255 C256 1.424 . S
C256 H248 0.951 1_545 S
C256 C255 1.424 . S
C256 C257 1.347 . S
C257 H249 0.951 . S
C257 C252 1.429 . S
C257 C256 1.347 . S
H258 C259 0.951 . S
C259 H258 0.951 . S
C259 C265 1.265 . S
H260 C265 0.950 . S
H261 C269 0.949 . S
H262 C270 0.950 . S
H263 C271 0.951 . S
H264 C272 0.951 . S
C265 C259 1.265 . S
C265 H260 0.950 . S
C265 C266 1.478 . S
C266 C265 1.478 . S
C266 C267 1.397 . S
C266 C283 1.394 . S
C267 C266 1.397 . S
C267 C268 1.438 . S
C267 C272 1.429 . S
C268 C267 1.438 . S
C268 C269 1.428 . S
C268 C281 1.394 . S
C269 H261 0.949 . S
C269 C268 1.428 . S
C269 C270 1.345 . S
C270 H262 0.950 . S
C270 C269 1.345 . S
C270 C271 1.424 . S
C271 H263 0.951 . S
C271 C270 1.424 . S
C271 C272 1.347 . S
C272 H264 0.951 . S
C272 C267 1.429 . S
C272 C271 1.347 . S
H273 C274 0.951 . S
C274 H273 0.951 . S
C274 C280 1.265 . S
H275 C280 0.950 . S
H276 C284 0.949 . S
H277 C285 0.950 1_655 S
H278 C286 0.960 . S
H279 C287 0.951 . S
C280 C274 1.265 . S
C280 H275 0.950 . S
C280 C281 1.478 . S
C281 C268 1.394 . S
C281 C280 1.478 . S
C281 C282 1.397 . S
C282 C281 1.397 . S
C282 C283 1.438 . S
C282 C287 1.429 . S
C283 C266 1.394 . S
C283 C282 1.438 . S
C283 C284 1.428 . S
C284 H276 0.949 . S
C284 C283 1.428 . S
C284 C285 1.345 . S
C285 H277 0.950 1_455 S
C285 C284 1.345 . S
C285 C286 1.424 . S
C286 H278 0.960 . S
C286 C285 1.424 . S
C286 C287 1.347 . S
C287 H279 0.951 . S
C287 C282 1.429 . S
C287 C286 1.347 . S
H288 C289 0.948 . S
C289 H288 0.948 . S
C289 C295 1.265 . S
H290 C295 0.950 . S
H291 C299 0.949 . S
H292 C300 0.950 . S
H293 C301 0.951 . S
H294 C302 0.951 . S
C295 C289 1.265 . S
C295 H290 0.950 . S
C295 C296 1.478 . S
C296 C295 1.478 . S
C296 C297 1.397 1_545 S
C296 C313 1.394 . S
C297 C296 1.397 1_565 S
C297 C298 1.438 . S
C297 C302 1.429 . S
C298 C297 1.438 . S
C298 C299 1.428 . S
C298 C311 1.375 1_565 S
C299 H291 0.949 . S
C299 C298 1.428 . S
C299 C300 1.345 . S
C300 H292 0.950 . S
C300 C299 1.345 . S
C300 C301 1.424 . S
C301 H293 0.951 . S
C301 C300 1.424 . S
C301 C302 1.347 . S
C302 H294 0.951 . S
C302 C297 1.429 . S
C302 C301 1.347 . S
H303 C304 0.948 . S
C304 H303 0.948 . S
C304 C310 1.268 1_545 S
H305 C310 0.950 . S
H306 C314 0.949 . S
H307 C315 0.950 . S
H308 C316 0.951 . S
H309 C317 0.951 . S
C310 C304 1.268 1_565 S
C310 H305 0.950 . S
C310 C311 1.478 1_565 S
C311 C298 1.375 1_545 S
C311 C310 1.478 1_545 S
C311 C312 1.417 . S
C312 C311 1.417 . S
C312 C313 1.438 . S
C312 C317 1.429 . S
C313 C296 1.394 . S
C313 C312 1.438 . S
C313 C314 1.428 . S
C314 H306 0.949 . S
C314 C313 1.428 . S
C314 C315 1.345 . S
C315 H307 0.950 . S
C315 C314 1.345 . S
C315 C316 1.424 . S
C316 H308 0.951 . S
C316 C315 1.424 . S
C316 C317 1.347 . S
C317 H309 0.951 . S
C317 C312 1.429 . S
C317 C316 1.347 . S
H318 C319 0.951 . S
C319 H318 0.951 . S
C319 C325 1.265 . S
H320 C325 0.950 . S
H321 C329 0.949 1_545 S
H322 C330 0.950 1_545 S
H323 C331 0.951 . S
H324 C332 0.951 . S
C325 C319 1.265 . S
C325 H320 0.950 . S
C325 C326 1.478 . S
C326 C325 1.478 . S
C326 C327 1.397 . S
C326 C343 1.394 . S
C327 C326 1.397 . S
C327 C328 1.438 . S
C327 C332 1.429 . S
C328 C327 1.438 . S
C328 C329 1.428 . S
C328 C341 1.394 . S
C329 H321 0.949 1_565 S
C329 C328 1.428 . S
C329 C330 1.345 . S
C330 H322 0.950 1_565 S
C330 C329 1.345 . S
C330 C331 1.424 . S
C331 H323 0.951 . S
C331 C330 1.424 . S
C331 C332 1.347 . S
C332 H324 0.951 . S
C332 C327 1.429 . S
C332 C331 1.347 . S
H333 C334 0.951 . S
C334 H333 0.951 . S
C334 C340 1.265 1_545 S
H335 C340 0.950 1_545 S
H336 C344 0.949 . S
H337 C345 0.950 . S
H338 C346 0.951 . S
H339 C347 0.951 . S
C340 C334 1.265 1_565 S
C340 H335 0.950 1_565 S
C340 C341 1.478 . S
C341 C328 1.394 . S
C341 C340 1.478 . S
C341 C342 1.397 . S
C342 C341 1.397 . S
C342 C343 1.438 . S
C342 C347 1.429 . S
C343 C326 1.394 . S
C343 C342 1.438 . S
C343 C344 1.428 . S
C344 H336 0.949 . S
C344 C343 1.428 . S
C344 C345 1.345 . S
C345 H337 0.950 . S
C345 C344 1.345 . S
C345 C346 1.424 . S
C346 H338 0.951 . S
C346 C345 1.424 . S
C346 C347 1.347 . S
C347 H339 0.951 . S
C347 C342 1.429 . S
C347 C346 1.347 . S
H348 C349 0.951 . S
C349 H348 0.951 . S
C349 C355 1.265 . S
H350 C355 0.950 . S
H351 C359 0.949 . S
H352 C360 0.950 . S
H353 C361 0.951 . S
H354 C362 0.951 . S
C355 C349 1.265 . S
C355 H350 0.950 . S
C355 C356 1.478 . S
C356 C355 1.478 . S
C356 C357 1.397 . S
C356 C373 1.394 . S
C357 C356 1.397 . S
C357 C358 1.438 . S
C357 C362 1.429 . S
C358 C357 1.438 . S
C358 C359 1.428 . S
C358 C371 1.394 . S
C359 H351 0.949 . S
C359 C358 1.428 . S
C359 C360 1.345 . S
C360 H352 0.950 . S
C360 C359 1.345 . S
C360 C361 1.424 . S
C361 H353 0.951 . S
C361 C360 1.424 . S
C361 C362 1.347 . S
C362 H354 0.951 . S
C362 C357 1.429 . S
C362 C361 1.347 . S
H363 C364 0.951 . S
C364 H363 0.951 . S
C364 C370 1.265 . S
H365 C370 0.950 . S
H366 C374 0.949 . S
H367 C375 0.950 . S
H368 C376 0.951 1_565 S
H369 C377 0.951 . S
C370 C364 1.265 . S
C370 H365 0.950 . S
C370 C371 1.478 . S
C371 C358 1.394 . S
C371 C370 1.478 . S
C371 C372 1.397 . S
C372 C371 1.397 . S
C372 C373 1.438 . S
C372 C377 1.429 . S
C373 C356 1.394 . S
C373 C372 1.438 . S
C373 C374 1.428 . S
C374 H366 0.949 . S
C374 C373 1.428 . S
C374 C375 1.345 1_545 S
C375 H367 0.950 . S
C375 C374 1.345 1_565 S
C375 C376 1.424 1_565 S
C376 H368 0.951 1_545 S
C376 C375 1.424 1_545 S
C376 C377 1.347 . S
C377 H369 0.951 . S
C377 C372 1.429 . S
C377 C376 1.347 . S
H378 C379 0.951 . S
C379 H378 0.951 . S
C379 C385 1.265 . S
H380 C385 0.950 . S
H381 C389 0.949 . S
H382 C390 0.950 . S
H383 C391 0.951 . S
H384 C392 0.951 . S
C385 C379 1.265 . S
C385 H380 0.950 . S
C385 C386 1.478 . S
C386 C385 1.478 . S
C386 C387 1.397 . S
C386 C403 1.394 . S
C387 C386 1.397 . S
C387 C388 1.438 . S
C387 C392 1.429 . S
C388 C387 1.438 . S
C388 C389 1.428 . S
C388 C401 1.394 . S
C389 H381 0.949 . S
C389 C388 1.428 . S
C389 C390 1.345 . S
C390 H382 0.950 . S
C390 C389 1.345 . S
C390 C391 1.424 . S
C391 H383 0.951 . S
C391 C390 1.424 . S
C391 C392 1.347 . S
C392 H384 0.951 . S
C392 C387 1.429 . S
C392 C391 1.347 . S
H393 C394 0.951 . S
C394 H393 0.951 . S
C394 C400 1.265 . S
H395 C400 0.950 . S
H396 C404 0.949 . S
H397 C405 0.950 . S
H398 C406 0.951 . S
H399 C407 0.951 . S
C400 C394 1.265 . S
C400 H395 0.950 . S
C400 C401 1.478 . S
C401 C388 1.394 . S
C401 C400 1.478 . S
C401 C402 1.397 . S
C402 C401 1.397 . S
C402 C403 1.438 . S
C402 C407 1.429 . S
C403 C386 1.394 . S
C403 C402 1.438 . S
C403 C404 1.428 . S
C404 H396 0.949 . S
C404 C403 1.428 . S
C404 C405 1.345 . S
C405 H397 0.950 . S
C405 C404 1.345 . S
C405 C406 1.424 . S
C406 H398 0.951 . S
C406 C405 1.424 . S
C406 C407 1.347 . S
C407 H399 0.951 . S
C407 C402 1.429 . S
C407 C406 1.347 . S
H408 C409 0.938 1_556 S
C409 H408 0.938 1_554 S
C409 C415 1.262 1_554 S
H410 C415 0.950 1_554 S
H411 C419 0.949 . S
H412 C420 0.950 1_455 S
H413 C421 0.951 . S
H414 C422 0.951 . S
C415 C409 1.262 1_556 S
C415 H410 0.950 1_556 S
C415 C416 1.478 . S
C416 C415 1.478 . S
C416 C417 1.397 . S
C416 C433 1.394 . S
C417 C416 1.397 . S
C417 C418 1.438 . S
C417 C422 1.429 . S
C418 C417 1.438 . S
C418 C419 1.428 . S
C418 C431 1.394 . S
C419 H411 0.949 . S
C419 C418 1.428 . S
C419 C420 1.345 . S
C420 H412 0.950 1_655 S
C420 C419 1.345 . S
C420 C421 1.424 . S
C421 H413 0.951 . S
C421 C420 1.424 . S
C421 C422 1.347 . S
C422 H414 0.951 . S
C422 C417 1.429 . S
C422 C421 1.347 . S
H423 C424 0.951 . S
C424 H423 0.951 . S
C424 C430 1.265 1_455 S
H425 C430 0.950 . S
H426 C434 0.949 . S
H427 C435 0.950 . S
H428 C436 0.951 . S
H429 C437 0.951 . S
C430 C424 1.265 1_655 S
C430 H425 0.950 . S
C430 C431 1.478 . S
C431 C418 1.394 . S
C431 C430 1.478 . S
C431 C432 1.397 . S
C432 C431 1.397 . S
C432 C433 1.438 . S
C432 C437 1.429 . S
C433 C416 1.394 . S
C433 C432 1.438 . S
C433 C434 1.428 . S
C434 H426 0.949 . S
C434 C433 1.428 . S
C434 C435 1.345 . S
C435 H427 0.950 . S
C435 C434 1.345 . S
C435 C436 1.424 . S
C436 H428 0.951 . S
C436 C435 1.424 . S
C436 C437 1.347 . S
C437 H429 0.951 . S
C437 C432 1.429 . S
C437 C436 1.347 . S
H438 C439 0.951 1_554 S
C439 H438 0.951 1_556 S
C439 C445 1.265 . S
H440 C445 0.950 . S
H441 C449 0.949 . S
H442 C450 0.950 . S
H443 C451 0.951 . S
H444 C452 0.951 . S
C445 C439 1.265 . S
C445 H440 0.950 . S
C445 C446 1.478 . S
C446 C445 1.478 . S
C446 C447 1.397 . S
C446 C463 1.394 1_556 S
C447 C446 1.397 . S
C447 C448 1.438 . S
C447 C452 1.429 . S
C448 C447 1.438 . S
C448 C449 1.428 . S
C448 C461 1.394 . S
C449 H441 0.949 . S
C449 C448 1.428 . S
C449 C450 1.345 . S
C450 H442 0.950 . S
C450 C449 1.345 . S
C450 C451 1.424 . S
C451 H443 0.951 . S
C451 C450 1.424 . S
C451 C452 1.347 . S
C452 H444 0.951 . S
C452 C447 1.429 . S
C452 C451 1.347 . S
H453 C454 0.951 . S
C454 H453 0.951 . S
C454 C460 1.265 1_556 S
H455 C460 0.950 . S
H456 C464 0.949 . S
H457 C465 0.950 . S
H458 C466 0.951 . S
H459 C467 0.951 . S
C460 C454 1.265 1_554 S
C460 H455 0.950 . S
C460 C461 1.478 1_554 S
C461 C448 1.394 . S
C461 C460 1.478 1_556 S
C461 C462 1.397 1_556 S
C462 C461 1.397 1_554 S
C462 C463 1.438 . S
C462 C467 1.429 . S
C463 C446 1.394 1_554 S
C463 C462 1.438 . S
C463 C464 1.428 . S
C464 H456 0.949 . S
C464 C463 1.428 . S
C464 C465 1.345 . S
C465 H457 0.950 . S
C465 C464 1.345 . S
C465 C466 1.424 . S
C466 H458 0.951 . S
C466 C465 1.424 . S
C466 C467 1.347 . S
C467 H459 0.951 . S
C467 C462 1.429 . S
C467 C466 1.347 . S
H468 C469 0.951 . S
C469 H468 0.951 . S
C469 C475 1.265 . S
H470 C475 0.950 . S
H471 C479 0.949 . S
H472 C480 0.950 . S
H473 C481 0.951 . S
H474 C482 0.951 . S
C475 C469 1.265 . S
C475 H470 0.950 . S
C475 C476 1.478 . S
C476 C475 1.478 . S
C476 C477 1.397 . S
C476 C493 1.394 . S
C477 C476 1.397 . S
C477 C478 1.438 . S
C477 C482 1.429 . S
C478 C477 1.438 . S
C478 C479 1.428 . S
C478 C491 1.394 . S
C479 H471 0.949 . S
C479 C478 1.428 . S
C479 C480 1.345 . S
C480 H472 0.950 . S
C480 C479 1.345 . S
C480 C481 1.424 . S
C481 H473 0.951 . S
C481 C480 1.424 . S
C481 C482 1.347 . S
C482 H474 0.951 . S
C482 C477 1.429 . S
C482 C481 1.347 . S
H483 C484 0.951 . S
C484 H483 0.951 . S
C484 C490 1.265 . S
H485 C490 0.950 . S
H486 C494 0.954 . S
H487 C495 0.950 1_556 S
H488 C496 0.951 . S
H489 C497 0.951 . S
C490 C484 1.265 . S
C490 H485 0.950 . S
C490 C491 1.478 . S
C491 C478 1.394 . S
C491 C490 1.478 . S
C491 C492 1.397 . S
C492 C491 1.397 . S
C492 C493 1.438 . S
C492 C497 1.429 . S
C493 C476 1.394 . S
C493 C492 1.438 . S
C493 C494 1.428 . S
C494 H486 0.954 . S
C494 C493 1.428 . S
C494 C495 1.345 . S
C495 H487 0.950 1_554 S
C495 C494 1.345 . S
C495 C496 1.424 . S
C496 H488 0.951 . S
C496 C495 1.424 . S
C496 C497 1.347 . S
C497 H489 0.951 . S
C497 C492 1.429 . S
C497 C496 1.347 . S
H498 C499 0.951 . S
C499 H498 0.951 . S
C499 C505 1.265 . S
H500 C505 0.950 . S
H501 C509 0.949 . S
H502 C510 0.950 . S
H503 C511 0.951 . S
H504 C512 0.951 . S
C505 C499 1.265 . S
C505 H500 0.950 . S
C505 C506 1.478 . S
C506 C505 1.478 . S
C506 C507 1.397 . S
C506 C523 1.394 . S
C507 C506 1.397 . S
C507 C508 1.438 . S
C507 C512 1.429 . S
C508 C507 1.438 . S
C508 C509 1.428 . S
C508 C521 1.394 . S
C509 H501 0.949 . S
C509 C508 1.428 . S
C509 C510 1.345 . S
C510 H502 0.950 . S
C510 C509 1.345 . S
C510 C511 1.424 . S
C511 H503 0.951 . S
C511 C510 1.424 . S
C511 C512 1.347 . S
C512 H504 0.951 . S
C512 C507 1.429 . S
C512 C511 1.347 . S
H513 C514 0.951 . S
C514 H513 0.951 . S
C514 C520 1.265 . S
H515 C520 0.950 . S
H516 C524 0.949 . S
H517 C525 0.950 . S
H518 C526 0.951 . S
H519 C527 0.951 . S
C520 C514 1.265 . S
C520 H515 0.950 . S
C520 C521 1.478 . S
C521 C508 1.394 . S
C521 C520 1.478 . S
C521 C522 1.397 . S
C522 C521 1.397 . S
C522 C523 1.438 . S
C522 C527 1.429 1_554 S
C523 C506 1.394 . S
C523 C522 1.438 . S
C523 C524 1.428 . S
C524 H516 0.949 . S
C524 C523 1.428 . S
C524 C525 1.345 1_554 S
C525 H517 0.950 . S
C525 C524 1.345 1_556 S
C525 C526 1.424 . S
C526 H518 0.951 . S
C526 C525 1.424 . S
C526 C527 1.347 . S
C527 H519 0.951 . S
C527 C522 1.429 1_556 S
C527 C526 1.347 . S
H528 C529 0.951 . S
C529 H528 0.951 . S
C529 C535 1.265 1_455 S
H530 C535 0.950 . S
H531 C539 0.949 . S
H532 C540 0.950 . S
H533 C541 0.951 . S
H534 C542 0.951 . S
C535 C529 1.265 1_655 S
C535 H530 0.950 . S
C535 C536 1.478 . S
C536 C535 1.478 . S
C536 C537 1.397 . S
C536 C553 1.394 . S
C537 C536 1.397 . S
C537 C538 1.438 . S
C537 C542 1.429 . S
C538 C537 1.438 . S
C538 C539 1.428 . S
C538 C551 1.394 . S
C539 H531 0.949 . S
C539 C538 1.428 . S
C539 C540 1.345 . S
C540 H532 0.950 . S
C540 C539 1.345 . S
C540 C541 1.424 . S
C541 H533 0.951 . S
C541 C540 1.424 . S
C541 C542 1.347 . S
C542 H534 0.951 . S
C542 C537 1.429 . S
C542 C541 1.347 . S
H543 C544 0.951 . S
C544 H543 0.951 . S
C544 C550 1.265 . S
H545 C550 0.950 1_545 S
H546 C554 0.949 1_455 S
H547 C555 0.950 1_455 S
H548 C556 0.951 1_545 S
H549 C557 0.951 1_545 S
C550 C544 1.265 . S
C550 H545 0.950 1_565 S
C550 C551 1.478 . S
C551 C538 1.394 . S
C551 C550 1.478 . S
C551 C552 1.397 . S
C552 C551 1.397 . S
C552 C553 1.438 . S
C552 C557 1.429 . S
C553 C536 1.394 . S
C553 C552 1.438 . S
C553 C554 1.428 . S
C554 H546 0.949 1_655 S
C554 C553 1.428 . S
C554 C555 1.345 . S
C555 H547 0.950 1_655 S
C555 C554 1.345 . S
C555 C556 1.424 . S
C556 H548 0.951 1_565 S
C556 C555 1.424 . S
C556 C557 1.347 . S
C557 H549 0.951 1_565 S
C557 C552 1.429 . S
C557 C556 1.347 . S
H558 C559 0.951 . S
C559 H558 0.951 . S
C559 C565 1.265 . S
H560 C565 0.950 . S
H561 C569 0.949 . S
H562 C570 0.950 . S
H563 C571 0.951 . S
H564 C572 0.951 . S
C565 C559 1.265 . S
C565 H560 0.950 . S
C565 C566 1.478 . S
C566 C565 1.478 . S
C566 C567 1.397 . S
C566 C583 1.394 . S
C567 C566 1.397 . S
C567 C568 1.438 . S
C567 C572 1.429 . S
C568 C567 1.438 . S
C568 C569 1.428 . S
C568 C581 1.394 . S
C569 H561 0.949 . S
C569 C568 1.428 . S
C569 C570 1.345 . S
C570 H562 0.950 . S
C570 C569 1.345 . S
C570 C571 1.424 . S
C571 H563 0.951 . S
C571 C570 1.424 . S
C571 C572 1.347 . S
C572 H564 0.951 . S
C572 C567 1.429 . S
C572 C571 1.347 . S
H573 C574 0.951 . S
C574 H573 0.951 . S
C574 C580 1.265 . S
H575 C580 0.950 . S
H576 C584 0.949 . S
H577 C585 0.950 . S
H578 C586 0.951 . S
H579 C587 0.951 1_655 S
C580 C574 1.265 . S
C580 H575 0.950 . S
C580 C581 1.478 . S
C581 C568 1.394 . S
C581 C580 1.478 . S
C581 C582 1.397 . S
C582 C581 1.397 . S
C582 C583 1.438 . S
C582 C587 1.429 . S
C583 C566 1.394 . S
C583 C582 1.438 . S
C583 C584 1.428 . S
C584 H576 0.949 . S
C584 C583 1.428 . S
C584 C585 1.345 . S
C585 H577 0.950 . S
C585 C584 1.345 . S
C585 C586 1.424 1_455 S
C586 H578 0.951 . S
C586 C585 1.424 1_655 S
C586 C587 1.347 1_655 S
C587 H579 0.951 1_455 S
C587 C582 1.429 . S
C587 C586 1.347 1_455 S
H588 C589 0.951 . S
C589 H588 0.951 . S
C589 C595 1.265 . S
H590 C595 0.950 . S
H591 C599 0.949 . S
H592 C600 0.950 . S
H593 C601 0.951 . S
H594 C602 0.951 . S
C595 C589 1.265 . S
C595 H590 0.950 . S
C595 C596 1.478 . S
C596 C595 1.478 . S
C596 C597 1.397 . S
C596 C613 1.394 . S
C597 C596 1.397 . S
C597 C598 1.438 . S
C597 C602 1.429 . S
C598 C597 1.438 . S
C598 C599 1.428 . S
C598 C611 1.394 . S
C599 H591 0.949 . S
C599 C598 1.428 . S
C599 C600 1.345 1_545 S
C600 H592 0.950 . S
C600 C599 1.345 1_565 S
C600 C601 1.424 . S
C601 H593 0.951 . S
C601 C600 1.424 . S
C601 C602 1.347 1_565 S
C602 H594 0.951 . S
C602 C597 1.429 . S
C602 C601 1.347 1_545 S
H603 C604 0.951 . S
C604 H603 0.951 . S
C604 C610 1.265 . S
H605 C610 0.950 . S
H606 C614 0.949 . S
H607 C615 0.950 . S
H608 C616 0.951 1_556 S
H609 C617 0.951 . S
C610 C604 1.265 . S
C610 H605 0.950 . S
C610 C611 1.478 . S
C611 C598 1.394 . S
C611 C610 1.478 . S
C611 C612 1.397 . S
C612 C611 1.397 . S
C612 C613 1.438 . S
C612 C617 1.429 . S
C613 C596 1.394 . S
C613 C612 1.438 . S
C613 C614 1.428 . S
C614 H606 0.949 . S
C614 C613 1.428 . S
C614 C615 1.345 . S
C615 H607 0.950 . S
C615 C614 1.345 . S
C615 C616 1.424 . S
C616 H608 0.951 1_554 S
C616 C615 1.424 . S
C616 C617 1.347 . S
C617 H609 0.951 . S
C617 C612 1.429 . S
C617 C616 1.347 . S
H618 C619 0.951 . S
C619 H618 0.951 . S
C619 C625 1.265 . S
H620 C625 0.950 . S
H621 C629 0.949 . S
H622 C630 0.950 . S
H623 C631 0.951 . S
H624 C632 0.951 . S
C625 C619 1.265 . S
C625 H620 0.950 . S
C625 C626 1.478 . S
C626 C625 1.478 . S
C626 C627 1.397 . S
C626 C643 1.394 . S
C627 C626 1.397 . S
C627 C628 1.438 . S
C627 C632 1.429 . S
C628 C627 1.438 . S
C628 C629 1.428 . S
C628 C641 1.394 . S
C629 H621 0.949 . S
C629 C628 1.428 . S
C629 C630 1.345 . S
C630 H622 0.950 . S
C630 C629 1.345 . S
C630 C631 1.424 . S
C631 H623 0.951 . S
C631 C630 1.424 . S
C631 C632 1.347 . S
C632 H624 0.951 . S
C632 C627 1.429 . S
C632 C631 1.347 . S
H633 C634 0.951 . S
C634 H633 0.951 . S
C634 C640 1.265 . S
H635 C640 0.950 . S
H636 C644 0.949 . S
H637 C645 0.950 1_655 S
H638 C646 0.951 . S
H639 C647 0.963 . S
C640 C634 1.265 . S
C640 H635 0.950 . S
C640 C641 1.478 . S
C641 C628 1.394 . S
C641 C640 1.478 . S
C641 C642 1.397 . S
C642 C641 1.397 . S
C642 C643 1.438 . S
C642 C647 1.413 1_455 S
C643 C626 1.394 . S
C643 C642 1.438 . S
C643 C644 1.428 . S
C644 H636 0.949 . S
C644 C643 1.428 . S
C644 C645 1.345 . S
C645 H637 0.950 1_455 S
C645 C644 1.345 . S
C645 C646 1.424 1_455 S
C646 H638 0.951 . S
C646 C645 1.424 1_655 S
C646 C647 1.351 . S
C647 H639 0.963 . S
C647 C642 1.413 1_655 S
C647 C646 1.351 . S
C199 C127 1.468 . S
C214 N14 1.428 1_655 S
C229 C140 0.720 . S
C244 C8 0.694 . S
C259 N5 0.650 . S
C274 N170 0.541 . S
C289 N80 1.446 . S
C304 C28 1.506 . S
C319 N179 1.455 1_556 S
C334 C41 1.516 . S
C349 N71 0.827 . S
C364 N47 0.390 . S
C379 C61 0.693 . S
C394 C107 0.722 . S
C409 C160 1.485 . S
C424 N38 1.168 . S
C439 C94 1.469 . S
C454 N113 1.426 1_556 S
C469 C74 0.550 . S
C484 C173 0.670 . S
C499 N137 0.535 . S
C514 N104 0.833 . S
C529 C193 1.521 . S
C544 N146 1.452 1_565 S
C559 C50 1.075 . S
C574 C17 1.102 . S
C589 C149 1.078 . S
C604 C83 1.079 . S
C619 C182 1.036 . S
C634 C116 1.057 . S
