# Generated by pormake.
# Topology rkf, (6)-cn, num edge types: 1
# Building blocks:
#     Node 0, Type 0, BuildingBlock: CUWYAW_clean_sbu_0, # of connection points: 6
#     Node 1, Type 0, BuildingBlock: CUWYAW_clean_sbu_0, # of connection points: 6
#     Node 2, Type 0, BuildingBlock: CUWYAW_clean_sbu_0, # of connection points: 6
#     Node 3, Type 0, BuildingBlock: CUWYAW_clean_sbu_0, # of connection points: 6
#     Node 4, Type 0, BuildingBlock: CUWYAW_clean_sbu_0, # of connection points: 6
#     Node 5, Type 0, BuildingBlock: CUWYAW_clean_sbu_0, # of connection points: 6
#     Edge 6, Type (0, 0), BuildingBlock: FUNLAD_clean_linker_0, # of connection points: 2
#     Edge 7, Type (0, 0), BuildingBlock: FUNLAD_clean_linker_0, # of connection points: 2
#     Edge 8, Type (0, 0), BuildingBlock: FUNLAD_clean_linker_0, # of connection points: 2
#     Edge 9, Type (0, 0), BuildingBlock: FUNLAD_clean_linker_0, # of connection points: 2
#     Edge 10, Type (0, 0), BuildingBlock: FUNLAD_clean_linker_0, # of connection points: 2
#     Edge 11, Type (0, 0), BuildingBlock: FUNLAD_clean_linker_0, # of connection points: 2
#     Edge 12, Type (0, 0), BuildingBlock: FUNLAD_clean_linker_0, # of connection points: 2
#     Edge 13, Type (0, 0), BuildingBlock: FUNLAD_clean_linker_0, # of connection points: 2
#     Edge 14, Type (0, 0), BuildingBlock: FUNLAD_clean_linker_0, # of connection points: 2
#     Edge 15, Type (0, 0), BuildingBlock: FUNLAD_clean_linker_0, # of connection points: 2
#     Edge 16, Type (0, 0), BuildingBlock: FUNLAD_clean_linker_0, # of connection points: 2
#     Edge 17, Type (0, 0), BuildingBlock: FUNLAD_clean_linker_0, # of connection points: 2
#     Edge 18, Type (0, 0), BuildingBlock: FUNLAD_clean_linker_0, # of connection points: 2
#     Edge 19, Type (0, 0), BuildingBlock: FUNLAD_clean_linker_0, # of connection points: 2
#     Edge 20, Type (0, 0), BuildingBlock: FUNLAD_clean_linker_0, # of connection points: 2
#     Edge 21, Type (0, 0), BuildingBlock: FUNLAD_clean_linker_0, # of connection points: 2
#     Edge 22, Type (0, 0), BuildingBlock: FUNLAD_clean_linker_0, # of connection points: 2
#     Edge 23, Type (0, 0), BuildingBlock: FUNLAD_clean_linker_0, # of connection points: 2
# Relax obj value: 0.632
# Max RMSD: 0.261
# Mean RMSD: 0.261
data_MOF--net-rkf--node1-CUWYAW_clean_sbu_0--edge1-FUNLAD_clean_linker_0
_symmetry_space_group_name_H-M    P1
_symmetry_Int_Tables_number       1
_symmetry_cell_setting            triclinic
loop_
_symmetry_equiv_pos_as_xyz
'x, y, z'
_cell_length_a     28.524419
_cell_length_b     28.465731
_cell_length_c     52.321926
_cell_angle_alpha  89.911099
_cell_angle_beta   89.926214
_cell_angle_gamma 120.65702
loop_
_atom_site_label
_atom_site_type_symbol
_atom_site_fract_x
_atom_site_fract_y
_atom_site_fract_z
_atom_type_partial_charge
C0 C 0.40453 0.25042 1.106 0.0
Eu1 Eu 0.33976 0.14967 0.12021 0.0
C2 C 0.42108 0.28903 1.08479 0.0
C3 C 0.46504 0.3421 1.08839 0.0
C4 C 0.4822 0.38022 1.06861 0.0
C5 C 0.45563 0.36567 1.04489 0.0
C6 C 0.41156 0.31213 1.04133 0.0
C7 C 0.39431 0.27398 1.0612 0.0
C8 C 0.38117 0.08737 0.13723 0.0
C9 C 0.27809 0.0618 1.07287 0.0
C10 C 0.20714 0.93133 0.1476 0.0
Eu11 Eu 0.25566 0.0333 0.1335 0.0
C12 C 0.21202 0.89672 0.16682 0.0
C13 C 0.24406 0.91927 0.18867 0.0
C14 C 0.25117 0.88573 0.20582 0.0
C15 C 0.22671 0.82927 0.20121 0.0
C16 C 0.19528 0.80723 0.17903 0.0
C17 C 0.18803 0.84075 0.162 0.0
C18 C 0.21384 0.09236 0.11465 0.0
C19 C 0.30142 0.12656 0.1796 0.0
O20 O 0.35604 0.23273 0.11569 0.0
O21 O 0.41709 0.21235 1.10418 0.0
O22 O 0.39856 0.1371 0.14431 0.0
O23 O 0.34215 0.0728 0.12196 0.0
O24 O 0.30748 0.11419 1.0797 0.0
O25 O 0.25822 0.02283 1.09049 0.0
O26 O 0.24727 0.95344 0.1312 0.0
O27 O 0.19151 0.96507 0.15525 0.0
O28 O 0.19108 0.03997 0.11147 0.0
O29 O 0.25312 0.10887 0.12989 0.0
O30 O 0.27685 0.07352 0.17383 0.0
O31 O 0.32529 0.16405 0.1615 0.0
H32 H 0.48614 0.35407 1.10655 0.0
H33 H 0.51649 0.42095 1.07182 0.0
H34 H 0.38986 0.30006 1.02333 0.0
H35 H 0.36014 0.23304 1.05824 0.0
H36 H 0.2636 0.96267 0.19241 0.0
H37 H 0.27484 0.90387 0.22294 0.0
H38 H 0.17637 0.7641 0.17481 0.0
H39 H 0.16407 0.82302 0.14488 0.0
C40 C 0.23556 0.44971 0.42358 0.0
Eu41 Eu 0.26769 0.38624 0.44273 0.0
C42 C 0.21171 0.4609 0.40138 0.0
C43 C 0.19977 0.50278 0.4031 0.0
C44 C 0.17422 0.51284 0.38291 0.0
C45 C 0.16021 0.48104 0.36064 0.0
C46 C 0.17358 0.43986 0.35874 0.0
C47 C 0.19919 0.42981 0.37902 0.0
C48 C 0.36889 0.42956 0.4631 0.0
C49 C 0.28901 0.31012 0.40086 0.0
C50 C 0.34521 0.2594 0.48407 0.0
Eu51 Eu 0.29455 0.3032 0.46247 0.0
C52 C 0.38693 0.27764 0.50399 0.0
C53 C 0.39476 0.23948 0.51722 0.0
C54 C 0.43364 0.25662 0.53662 0.0
C55 C 0.46552 0.31235 0.543 0.0
C56 C 0.45841 0.3506 0.52911 0.0
C57 C 0.41922 0.33334 0.50987 0.0
C58 C 0.18924 0.25887 0.44725 0.0
C59 C 0.25267 0.36086 0.50368 0.0
O60 O 0.2037 0.40529 0.43655 0.0
O61 O 0.28521 0.45899 0.42118 0.0
O62 O 0.33704 0.44887 0.46655 0.0
O63 O 0.34631 0.38837 0.44866 0.0
O64 O 0.27212 0.34534 0.40502 0.0
O65 O 0.30421 0.29089 0.42019 0.0
O66 O 0.36131 0.28743 0.4628 0.0
O67 O 0.29692 0.24903 0.49141 0.0
O68 O 0.21585 0.23301 0.44646 0.0
O69 O 0.21793 0.30401 0.45801 0.0
O70 O 0.28329 0.33853 0.50014 0.0
O71 O 0.23601 0.37726 0.4837 0.0
H72 H 0.20947 0.52723 0.42028 0.0
H73 H 0.16496 0.54515 0.3848 0.0
H74 H 0.16266 0.41424 0.34193 0.0
H75 H 0.2083 0.39735 0.37743 0.0
H76 H 0.37013 0.19635 0.51287 0.0
H77 H 0.43716 0.2259 0.54725 0.0
H78 H 0.48249 0.39379 0.53337 0.0
H79 H 0.41368 0.3634 0.49977 0.0
C80 C 0.93449 0.32825 0.76669 0.0
Eu81 Eu 0.03388 0.36325 0.78195 0.0
C82 C 0.89927 0.30036 0.74484 0.0
C83 C 0.84263 0.2743 0.74784 0.0
C84 C 0.80818 0.24562 0.72753 0.0
C85 C 0.83005 0.24285 0.70389 0.0
C86 C 0.88701 0.26965 0.70091 0.0
C87 C 0.92138 0.29807 0.72127 0.0
C88 C 0.0997 0.46657 0.7991 0.0
C89 C 0.12017 0.38406 0.7344 0.0
C90 C 0.25079 0.44308 0.80883 0.0
Eu91 Eu 0.14974 0.39316 0.79413 0.0
C92 C 0.28392 0.47128 0.83123 0.0
C93 C 0.26392 0.45436 0.85607 0.0
C94 C 0.2975 0.48002 0.87704 0.0
C95 C 0.35145 0.5233 0.87349 0.0
C96 C 0.37027 0.54168 0.84854 0.0
C97 C 0.33674 0.51574 0.82759 0.0
C98 C 0.08364 0.28976 0.77823 0.0
C99 C 0.05907 0.34877 0.84097 0.0
O100 O 0.94847 0.29908 0.7805 0.0
O101 O 0.97495 0.37798 0.76271 0.0
O102 O 0.04917 0.43604 0.80573 0.0
O103 O 0.1127 0.44192 0.78326 0.0
O104 O 0.06814 0.36067 0.74175 0.0
O105 O 0.15973 0.40628 0.75146 0.0
O106 O 0.22863 0.46768 0.79721 0.0
O107 O 0.2181 0.39007 0.8106 0.0
O108 O 0.13541 0.31704 0.7729 0.0
O109 O 0.0714 0.31625 0.79309 0.0
O110 O 0.11158 0.37881 0.83457 0.0
O111 O 0.02073 0.3327 0.82322 0.0
H112 H 0.82505 0.27569 0.766 0.0
H113 H 0.76449 0.22557 0.7303 0.0
H114 H 0.905 0.26741 0.68304 0.0
H115 H 0.96508 0.31763 0.71873 0.0
H116 H 0.22293 0.42046 0.85924 0.0
H117 H 0.2819 0.46424 0.89595 0.0
H118 H 0.4113 0.57528 0.84519 0.0
H119 H 0.35244 0.52973 0.80848 0.0
C120 C 0.90821 0.98513 1.08933 0.0
Eu121 Eu 0.88383 0.05594 1.10671 0.0
C122 C 0.88826 0.93973 1.07086 0.0
C123 C 0.86226 0.88558 1.07979 0.0
C124 C 0.84662 0.84233 1.06278 0.0
C125 C 0.85706 0.85234 1.03648 0.0
C126 C 0.8822 0.90651 1.02752 0.0
C127 C 0.89767 0.94974 1.04451 0.0
C128 C 0.77864 0.03346 1.10916 0.0
C129 C 0.89632 0.14377 1.06233 0.0
C130 C 0.82293 0.20461 0.13857 0.0
Eu131 Eu 0.86773 0.15015 0.12223 0.0
C132 C 0.82484 0.23452 0.16167 0.0
C133 C 0.83739 0.22087 0.18542 0.0
C134 C 0.84727 0.25466 0.20648 0.0
C135 C 0.84531 0.30287 0.20404 0.0
C136 C 0.83015 0.31493 0.1805 0.0
C137 C 0.8199 0.28088 0.15947 0.0
C138 C 0.97336 0.18091 0.11702 0.0
C139 C 0.88264 0.07526 0.16717 0.0
O140 O 0.92922 0.03471 1.08026 0.0
O141 O 0.87813 0.97689 1.10959 0.0
O142 O 0.79373 -8e-05 0.11662 0.0
O143 O 0.81876 0.07545 1.1001 0.0
O144 O 0.90576 0.10456 1.06937 0.0
O145 O 0.87453 0.16332 1.07862 0.0
O146 O 0.79969 0.15144 0.14056 0.0
O147 O 0.86827 0.22654 0.12543 0.0
O148 O 0.95557 0.21476 0.1164 0.0
O149 O 0.93613 0.13526 0.12551 0.0
O150 O 0.86308 0.10774 0.16121 0.0
O151 O 0.90265 0.0581 0.14899 0.0
H152 H 0.85484 0.87669 1.10002 0.0
H153 H 0.8269 0.80109 1.07027 0.0
H154 H 0.89175 0.9158 1.00744 0.0
H155 H 0.91807 -0.00899 1.03702 0.0
H156 H 0.84196 0.18553 0.18742 0.0
H157 H 0.85973 0.24473 0.22426 0.0
H158 H 0.82814 0.35168 0.17813 0.0
H159 H 0.81043 0.29202 0.1412 0.0
C160 C 0.01115 0.82465 0.42585 0.0
Eu161 Eu 0.94962 0.86413 0.43801 0.0
C162 C 0.04747 0.81553 0.40938 0.0
C163 C 0.09786 0.82692 0.41931 0.0
C164 C 0.13092 0.81272 0.40574 0.0
C165 C 0.11405 0.78661 0.38198 0.0
C166 C 0.06385 0.77598 0.37183 0.0
C167 C 0.03074 0.79023 0.38545 0.0
C168 C 0.84647 0.79912 0.4561 0.0
C169 C 0.89511 0.89736 0.39014 0.0
C170 C 0.82493 0.95517 0.46515 0.0
Eu171 Eu 0.89061 0.92296 0.44956 0.0
C172 C 0.796 0.95524 0.4883 0.0
C173 C 0.81887 0.96062 0.51259 0.0
C174 C 0.79263 0.96525 0.53414 0.0
C175 C 0.7429 0.96417 0.53177 0.0
C176 C 0.71893 0.95599 0.50749 0.0
C177 C 0.74539 0.95171 0.48593 0.0
C178 C -0.00976 0.98719 0.42815 0.0
C179 C 0.9498 0.89702 0.49722 0.0
O180 O 0.02996 0.8724 0.43658 0.0
O181 O 0.959 0.79984 0.42076 0.0
O182 O 0.88738 0.79401 0.46255 0.0
O183 O 0.86146 0.83712 0.44007 0.0
O184 O 0.93199 0.88415 0.39723 0.0
O185 O 0.86762 0.9071 0.40764 0.0
O186 O 0.80812 0.90756 0.45463 0.0
O187 O 0.87812 0.98639 0.46525 0.0
O188 O 0.94833 -0.00774 0.42398 0.0
O189 O -0.02078 0.95109 0.44499 0.0
O190 O 0.9109 0.90691 0.49023 0.0
O191 O 0.97586 0.88548 0.47968 0.0
H192 H 0.11108 0.84556 0.43796 0.0
H193 H 0.16914 0.82113 0.41411 0.0
H194 H 0.05028 0.75684 0.35331 0.0
H195 H -0.00815 0.7807 0.37747 0.0
H196 H 0.85776 0.96294 0.51482 0.0
H197 H 0.81265 0.97221 0.55248 0.0
H198 H 0.68033 0.95415 0.50506 0.0
H199 H 0.72694 0.94694 0.4673 0.0
C200 C 0.22161 0.08829 0.77117 0.0
Eu201 Eu 0.16283 0.98393 0.78038 0.0
C202 C 0.27053 0.12115 0.75564 0.0
C203 C 0.30712 0.17556 0.76225 0.0
C204 C 0.35643 0.20557 0.74906 0.0
C205 C 0.36988 0.18143 0.7291 0.0
C206 C 0.33281 0.12676 0.72257 0.0
C207 C 0.28372 0.09683 0.73581 0.0
C208 C 0.21311 0.92401 0.77637 0.0
C209 C 0.09816 0.91487 0.72905 0.0
C210 C 0.05363 0.76318 0.79742 0.0
Eu211 Eu 0.09188 0.86548 0.78572 0.0
C212 C 0.03431 0.73251 0.82154 0.0
C213 C 0.06002 0.75666 0.84469 0.0
C214 C 0.03472 0.73328 0.8679 0.0
C215 C -0.01682 0.68523 0.86844 0.0
C216 C 0.95971 0.65878 0.84523 0.0
C217 C -0.01493 0.68236 0.82196 0.0
C218 C 0.03482 0.9163 0.78608 0.0
C219 C 0.14194 0.94426 0.83765 0.0
O220 O 0.17654 0.05572 0.75889 0.0
O221 O 0.22916 0.06458 0.79076 0.0
O222 O 0.23117 0.96696 0.79043 0.0
O223 O 0.16975 0.91449 0.76609 0.0
O224 O 0.1227 0.96288 0.74078 0.0
O225 O 0.08754 0.86997 0.74183 0.0
O226 O 0.10578 0.79903 0.79568 0.0
O227 O 0.02351 0.78209 0.78877 0.0
O228 O 0.01733 0.86868 0.77606 0.0
O229 O 0.08003 0.93398 0.7973 0.0
O230 O 0.12607 0.89546 0.82735 0.0
O231 O 0.14716 0.9837 0.82254 0.0
H232 H 0.29794 0.19454 0.77788 0.0
H233 H 0.38425 0.24744 0.75466 0.0
H234 H 0.34133 0.10723 0.70697 0.0
H235 H 0.25627 0.0545 0.73072 0.0
H236 H 0.09803 0.79538 0.84492 0.0
H237 H 0.05383 0.75525 0.8853 0.0
H238 H 0.92045 0.62134 0.845 0.0
H239 H 0.96463 0.66308 0.80427 0.0
C240 C 0.02634 0.14519 1.09492 0.0
C241 C 0.01598 0.18764 1.09897 0.0
C242 C 0.05956 0.14811 1.07465 0.0
C243 C 0.0844 0.19441 1.05872 0.0
C244 C 0.07631 0.23807 1.06348 0.0
C245 C 0.04199 0.23457 1.08336 0.0
C246 C 0.12338 0.19862 1.03907 0.0
C247 C 0.17596 0.22594 1.046 0.0
C248 C 0.19626 0.19534 1.06073 0.0
C249 C 0.2222 0.21654 1.08425 0.0
C250 C 0.22838 0.18312 1.1018 0.0
C251 C 0.20856 0.12807 1.0961 0.0
H252 H 0.16211 0.1242 1.03599 0.0
C253 C 0.18596 0.1078 1.07197 0.0
C254 C 0.18082 0.14141 1.05423 0.0
H255 H 0.17187 0.06582 1.06683 0.0
H256 H 0.0078 0.10932 1.10706 0.0
H257 H 0.06673 0.11462 1.07167 0.0
H258 H 0.09612 0.27453 1.05172 0.0
H259 H 0.03486 0.26813 1.08609 0.0
H260 H 0.10884 0.16057 1.02878 0.0
H261 H 0.19161 0.26763 1.0525 0.0
H262 H 0.23456 0.25795 1.08975 0.0
H263 H 0.2467 0.19972 0.1202 0.0
C264 C 0.08929 0.05288 0.42025 0.0
C265 C 0.03824 0.01265 0.41108 0.0
C266 C 0.12661 0.09343 0.4035 0.0
C267 C 0.11207 0.09427 0.37779 0.0
C268 C 0.06615 0.04832 0.36796 0.0
C269 C 0.0292 0.00852 0.3846 0.0
C270 C 0.13163 0.14788 0.3652 0.0
C271 C 0.09467 0.16413 0.36294 0.0
C272 C 0.09257 0.19558 0.38482 0.0
C273 C 0.07183 0.167 0.40791 0.0
C274 C 0.09932 0.19064 0.43058 0.0
C275 C 0.14284 0.24461 0.43038 0.0
H276 H 0.14172 0.27563 0.36801 0.0
C277 C 0.15048 0.27724 0.40884 0.0
C278 C 0.12751 0.2522 0.38554 0.0
H279 H 0.17993 0.32026 0.40899 0.0
H280 H 0.09738 0.05729 0.44059 0.0
H281 H 0.16232 0.12846 0.41151 0.0
H282 H 0.05453 0.04742 0.34817 0.0
H283 H -0.00916 0.97855 0.37683 0.0
H284 H 0.17257 0.17899 0.37092 0.0
H285 H 0.05442 0.1344 0.3559 0.0
H286 H 0.04245 0.12358 0.40777 0.0
H287 H 0.09128 0.16494 0.44725 0.0
C288 C 0.01361 0.98422 0.80402 0.0
C289 C 0.00249 0.94292 0.78637 0.0
C290 C -0.0147 0.01212 0.80272 0.0
C291 C 0.94676 1e-05 0.78336 0.0
C292 C 0.93357 0.95674 0.76655 0.0
C293 C 0.961 0.92799 0.76822 0.0
C294 C 0.92946 0.03973 0.77835 0.0
C295 C 0.94283 0.06615 0.75576 0.0
C296 C 0.97129 0.12631 0.75579 0.0
C297 C 0.02269 0.15512 0.74398 0.0
C298 C 0.05901 0.20942 0.75046 0.0
C299 C 0.04391 0.23544 0.7686 0.0
H300 H 0.91452 0.13303 0.78091 0.0
C301 C -0.00942 0.2083 0.77839 0.0
C302 C 0.95429 0.15419 0.77188 0.0
H303 H 0.97783 0.22773 0.79228 0.0
H304 H 0.04505 -0.00413 0.81833 0.0
H305 H -0.00367 0.0458 0.8157 0.0
H306 H 0.90406 0.947 0.75146 0.0
H307 H 0.95163 0.8959 0.75451 0.0
H308 H 0.92544 0.05986 0.79515 0.0
H309 H 0.95089 0.0474 0.73954 0.0
H310 H 0.03657 0.13433 0.73147 0.0
H311 H 0.09963 0.23004 0.7423 0.0
C312 C 0.48359 0.45965 1.02929 0.0
C313 C 0.47283 0.40658 1.02415 0.0
C314 C 0.49467 0.49659 1.00935 0.0
C315 C 0.49493 0.48088 0.98391 0.0
C316 C 0.48795 0.42921 0.97902 0.0
C317 C 0.47665 0.39226 0.99891 0.0
C318 C 0.49621 0.5141 0.96181 0.0
C319 C 0.47385 0.54592 0.9627 0.0
C320 C 0.45132 0.55679 0.93942 0.0
C321 C 0.40162 0.55549 0.94149 0.0
C322 C 0.37075 0.54919 0.91972 0.0
C323 C 0.3893 0.54435 0.89552 0.0
H324 H 0.51239 0.56254 0.9127 0.0
C325 C 0.44212 0.55261 0.89324 0.0
C326 C 0.4731 0.55923 0.915 0.0
H327 H 0.45798 0.54966 0.87488 0.0
H328 H 0.48125 0.47191 1.04861 0.0
H329 H 0.50148 0.53667 1.01389 0.0
H330 H 0.48843 0.41625 0.95961 0.0
H331 H 0.46976 0.35206 0.99448 0.0
H332 H 0.50525 0.50299 0.94338 0.0
H333 H 0.46068 0.55346 0.98093 0.0
H334 H 0.3844 0.55462 0.96008 0.0
H335 H 0.3309 0.54467 0.922 0.0
C336 C 0.14067 0.48598 0.31436 0.0
C337 C 0.12861 0.48831 0.34018 0.0
C338 C 0.10659 0.48581 0.29521 0.0
C339 C 0.05944 0.48717 0.30151 0.0
C340 C 0.04957 0.49365 0.32722 0.0
C341 C 0.08382 0.49409 0.34638 0.0
C342 C 0.01894 0.47559 0.28114 0.0
C343 C 0.96484 0.44611 0.28561 0.0
C344 C 0.92576 0.41505 0.26495 0.0
C345 C 0.9346 0.43387 0.23955 0.0
C346 C 0.90506 0.39824 0.21973 0.0
C347 C 0.86614 0.34338 0.225 0.0
H348 H 0.87469 0.34686 0.28984 0.0
C349 C 0.85345 0.32635 0.25055 0.0
C350 C 0.88279 0.36207 0.27037 0.0
H351 H 0.82294 0.28455 0.25515 0.0
H352 H 0.17559 0.48269 0.309 0.0
H353 H 0.11544 0.48142 0.2755 0.0
H354 H 0.01448 0.49649 0.33267 0.0
H355 H 0.07361 0.49622 0.36612 0.0
H356 H 0.03383 0.482 0.26158 0.0
H357 H 0.95003 0.43524 0.30511 0.0
H358 H 0.96628 0.47511 0.23484 0.0
H359 H 0.91562 0.41263 0.20021 0.0
C360 C 0.74995 0.15687 0.68727 0.0
C361 C 0.79394 0.20989 0.68271 0.0
C362 C 0.72065 0.12298 0.66686 0.0
C363 C 0.73509 0.1416 0.64154 0.0
C364 C 0.77616 0.19599 0.63718 0.0
C365 C 0.80555 0.22973 0.65753 0.0
C366 C 0.71272 0.10468 0.61922 0.0
C367 C 0.69713 0.05134 0.62045 0.0
C368 C 0.69603 0.0203 0.59747 0.0
C369 C 0.68728 0.03392 0.5728 0.0
C370 C 0.69931 0.01289 0.55133 0.0
C371 C 0.7195 0.97724 0.55412 0.0
H372 H 0.71697 0.96854 0.61901 0.0
C373 C 0.72262 0.95925 0.57874 0.0
C374 C 0.71086 0.98051 0.6002 0.0
H375 H 0.7366 0.93065 0.58149 0.0
H376 H 0.73988 0.14062 0.70652 0.0
H377 H 0.688 0.08187 0.67099 0.0
H378 H 0.78766 0.21159 0.61787 0.0
H379 H 0.83848 0.27084 0.65352 0.0
H380 H 0.71897 0.12425 0.60069 0.0
H381 H 0.69532 0.03289 0.63888 0.0
H382 H 0.67366 0.06274 0.56994 0.0
H383 H 0.69607 0.02744 0.53266 0.0
C384 C 0.85691 0.7664 1.0255 0.0
C385 C 0.84534 0.8072 1.01857 0.0
C386 C 0.85319 0.7284 1.00751 0.0
C387 C 0.83839 0.73086 0.9821 0.0
C388 C 0.82281 0.76895 0.97579 0.0
C389 C 0.82634 0.80677 0.99377 0.0
C390 C 0.8436 0.69874 0.96104 0.0
C391 C 0.87729 0.67849 0.962 0.0
C392 C 0.89797 0.66551 0.93855 0.0
C393 C 0.86961 0.65228 0.91522 0.0
C394 C 0.89612 0.65417 0.89245 0.0
C395 C 0.95118 0.66848 0.89259 0.0
H396 H 0.97319 0.68253 0.95674 0.0
C397 C 0.97716 0.67497 0.91623 0.0
C398 C 0.95074 0.67343 0.93898 0.0
H399 H 0.01908 0.68457 0.91705 0.0
H400 H 0.87143 0.76536 1.04448 0.0
H401 H 0.86352 0.69843 1.0135 0.0
H402 H 0.81043 0.77135 0.95649 0.0
H403 H 0.81575 0.83676 0.98801 0.0
H404 H 0.82597 0.69993 0.94286 0.0
H405 H 0.89802 0.68063 0.9797 0.0
H406 H 0.82797 0.64334 0.91422 0.0
H407 H 0.87458 0.6485 0.87464 0.0
C408 C 0.12674 0.7223 0.35416 0.0
C409 C 0.14937 0.77201 0.36738 0.0
C410 C 0.15864 0.71203 0.33742 0.0
C411 C 0.21395 0.75177 0.33339 0.0
C412 C 0.23747 0.79902 0.34859 0.0
C413 C 0.20557 0.80917 0.36533 0.0
C414 C 0.24515 0.75184 0.31052 0.0
C415 C 0.22245 0.71587 0.29121 0.0
C416 C 0.23025 0.7358 0.26444 0.0
C417 C 0.18385 0.71486 0.24889 0.0
C418 C 0.18378 0.74344 0.22724 0.0
C419 C 0.23047 0.79317 0.22055 0.0
H420 H 0.31609 0.79783 0.26697 0.0
C421 C 0.27889 0.81046 0.23428 0.0
C422 C 0.27892 0.78184 0.256 0.0
H423 H 0.31604 0.84762 0.22901 0.0
H424 H 0.08381 0.69212 0.35602 0.0
H425 H 0.1385 0.67433 0.3268 0.0
H426 H 0.2799 0.83031 0.34612 0.0
H427 H 0.22433 0.84776 0.37539 0.0
H428 H 0.28227 0.79041 0.30673 0.0
H429 H 0.18663 0.67629 0.2948 0.0
H430 H 0.14592 0.67921 0.25481 0.0
H431 H 0.14583 0.72874 0.21704 0.0
C432 C 0.44989 0.18946 0.70503 0.0
C433 C 0.42066 0.21367 0.71401 0.0
C434 C 0.49122 0.21617 0.68688 0.0
C435 C 0.50442 0.26769 0.67743 0.0
C436 C 0.47844 0.29391 0.68819 0.0
C437 C 0.43707 0.26714 0.70628 0.0
C438 C 0.53501 0.28641 0.65292 0.0
C439 C 0.5521 0.33606 0.64272 0.0
C440 C 0.54657 0.34205 0.61491 0.0
C441 C 0.55244 0.30909 0.59669 0.0
C442 C 0.52985 0.30268 0.57236 0.0
C443 C 0.5013 0.32924 0.56585 0.0
H444 H 0.5197 0.39989 0.62087 0.0
C445 C 0.50151 0.36725 0.58304 0.0
C446 C 0.52434 0.37386 0.60727 0.0
H447 H 0.48004 0.38854 0.57872 0.0
H448 H 0.43905 0.14873 0.71109 0.0
H449 H 0.51039 0.19491 0.67896 0.0
H450 H 0.48621 0.33306 0.68129 0.0
H451 H 0.41524 0.28687 0.71271 0.0
H452 H 0.53254 0.25422 0.64085 0.0
H453 H 0.55604 0.36869 0.65492 0.0
H454 H 0.57132 0.28561 0.60168 0.0
H455 H 0.53206 0.27458 0.55917 0.0
C456 C 0.46368 0.08592 0.15239 0.0
C457 C 0.41796 0.06499 0.13632 0.0
C458 C 0.50375 0.07204 0.1485 0.0
C459 C 0.49906 0.03744 0.12823 0.0
C460 C 0.45217 0.01472 0.11293 0.0
C461 C 0.41165 0.02772 0.11713 0.0
C462 C 0.54496 0.02968 0.12073 0.0
C463 C 0.58052 0.02921 0.13749 0.0
C464 C 0.62933 0.02737 0.12903 0.0
C465 C 0.64687 -0.00289 0.14309 0.0
C466 C 0.69435 -0.0028 0.13604 0.0
C467 C 0.726 0.02905 0.11531 0.0
H468 H 0.64876 0.08311 1.09711 0.0
C469 C 0.70864 0.05954 1.10133 0.0
C470 C 0.66053 0.05834 1.10796 0.0
H471 H 0.73263 0.0848 1.08541 0.0
H472 H 0.46963 0.11486 0.16727 0.0
H473 H 0.53979 0.09102 0.16039 0.0
H474 H 0.44765 0.98812 1.09715 0.0
H475 H 0.37694 0.01101 1.10438 0.0
H476 H 0.54959 0.02414 1.10052 0.0
H477 H 0.57341 0.02936 0.15789 0.0
H478 H 0.62383 0.97341 0.15955 0.0
H479 H 0.70724 0.97384 0.1473 0.0
C480 C 0.44857 0.51151 0.48191 0.0
C481 C 0.42813 0.46293 0.46788 0.0
C482 C 0.50458 0.54787 0.4837 0.0
C483 C 0.54157 0.53654 0.47142 0.0
C484 C 0.52132 0.48614 0.45891 0.0
C485 C 0.46498 0.44969 0.45701 0.0
C486 C 0.60102 0.57739 0.47077 0.0
C487 C 0.62006 0.63159 0.46976 0.0
C488 C 0.67864 0.67394 0.467 0.0
C489 C 0.69235 0.72347 0.45495 0.0
C490 C 0.74683 0.76429 0.45164 0.0
C491 C 0.78889 0.75696 0.46081 0.0
H492 H 0.71163 0.62974 0.48649 0.0
C493 C 0.77534 0.70807 0.47353 0.0
C494 C 0.72072 0.66679 0.47652 0.0
H495 H 0.80697 0.7014 0.48088 0.0
H496 H 0.42116 0.52236 0.49091 0.0
H497 H 0.51873 0.58524 0.49439 0.0
H498 H 0.54901 0.47601 0.44965 0.0
H499 H 0.45031 0.41223 0.44631 0.0
H500 H 0.6291 0.56245 0.46888 0.0
H501 H 0.59115 0.64571 0.469 0.0
H502 H 0.66077 0.73025 0.44761 0.0
H503 H 0.75598 0.80135 0.44165 0.0
C504 C 0.11176 0.55002 0.82074 0.0
C505 C 0.1316 0.52595 0.80381 0.0
C506 C 0.13799 0.60679 0.82295 0.0
C507 C 0.18417 0.64065 0.80806 0.0
C508 C 0.20607 0.61642 0.79231 0.0
C509 C 0.17994 0.55954 0.79021 0.0
C510 C 0.20555 0.70048 0.80809 0.0
C511 C 0.22784 0.73184 0.78716 0.0
C512 C 0.23372 0.78649 0.78436 0.0
C513 C 0.22285 0.80095 0.76039 0.0
C514 C 0.21935 0.84778 0.75761 0.0
C515 C 0.2283 0.88199 0.77856 0.0
H516 H 0.2553 0.81282 0.82371 0.0
C517 C 0.24343 0.87013 0.80214 0.0
C518 C 0.24571 0.82236 0.8051 0.0
H519 H 0.25002 0.89578 0.81861 0.0
H520 H 0.07489 0.52505 0.83167 0.0
H521 H 0.12054 0.6243 0.83541 0.0
H522 H 0.24263 0.6412 0.78118 0.0
H523 H 0.19647 0.54199 0.77723 0.0
H524 H 0.19497 0.71712 0.8243 0.0
H525 H 0.23348 0.71378 0.77002 0.0
H526 H 0.21375 0.77422 0.7441 0.0
H527 H 0.20741 0.85611 0.73928 0.0
C528 C 0.25805 0.1203 0.22375 0.0
C529 C 0.30306 0.146 0.20685 0.0
C530 C 0.25962 0.1421 0.24843 0.0
C531 C 0.30687 0.18946 0.25735 0.0
C532 C 0.35195 0.21411 0.2406 0.0
C533 C 0.34973 0.19359 0.21578 0.0
C534 C 0.31264 0.21211 0.28435 0.0
C535 C 0.27415 0.21791 0.29716 0.0
C536 C 0.28175 0.2441 0.32349 0.0
C537 C 0.25494 0.27293 0.32948 0.0
C538 C 0.25899 0.29589 0.35396 0.0
C539 C 0.28838 0.28929 0.37392 0.0
H540 H 0.33307 0.21618 0.3398 0.0
C541 C 0.31509 0.2602 0.36799 0.0
C542 C 0.31241 0.23863 0.34322 0.0
H543 H 0.33811 0.25379 0.38261 0.0
H544 H 0.2211 0.08393 0.21768 0.0
H545 H 0.22424 0.12116 0.26074 0.0
H546 H 0.38927 0.25014 0.24666 0.0
H547 H 0.38526 0.2149 0.20356 0.0
H548 H 0.3524 0.22874 0.29321 0.0
H549 H 0.23623 0.20604 0.28728 0.0
H550 H 0.23067 0.27797 0.31504 0.0
H551 H 0.23795 0.31794 0.35737 0.0
C552 C 0.25299 0.35156 0.55248 0.0
C553 C 0.23383 0.36488 0.53033 0.0
C554 C 0.23343 0.35356 0.57715 0.0
C555 C 0.19362 0.36866 0.58058 0.0
C556 C 0.17459 0.38176 0.55839 0.0
C557 C 0.19446 0.3803 0.53386 0.0
C558 C 0.16945 0.36966 0.60647 0.0
C559 C 0.19314 0.3733 0.62953 0.0
C560 C 0.17146 0.37709 0.65561 0.0
C561 C 0.20826 0.39735 0.67617 0.0
C562 C 0.19135 0.40032 0.70105 0.0
C563 C 0.13638 0.38241 0.70685 0.0
H564 H 0.08606 0.34289 0.64606 0.0
C565 C 0.09896 0.36194 0.68634 0.0
C566 C 0.11625 0.35958 0.66107 0.0
H567 H 0.05626 0.34735 0.68981 0.0
H568 H 0.28296 0.33912 0.55079 0.0
H569 H 0.24886 0.34204 0.59338 0.0
H570 H 0.14393 0.39331 0.55998 0.0
H571 H 0.17811 0.3906 0.51753 0.0
H572 H 0.13158 0.37003 0.60625 0.0
H573 H 0.23276 0.3766 0.6295 0.0
H574 H 0.25091 0.41106 0.67303 0.0
H575 H 0.22192 0.41614 0.71594 0.0
C576 C -0.00969 0.28574 0.87445 0.0
C577 C 0.0426 0.33025 0.86841 0.0
C578 C 0.975 0.26745 0.89993 0.0
C579 C 0.01113 0.29355 0.92046 0.0
C580 C 0.06307 0.33846 0.91443 0.0
C581 C 0.0788 0.35602 0.88891 0.0
C582 C -0.00448 0.27687 0.94826 0.0
C583 C 0.95926 0.2252 0.95636 0.0
C584 C 0.94493 0.20701 0.98404 0.0
C585 C 0.92929 0.15292 0.99064 0.0
C586 C 0.91374 0.13303 1.01577 0.0
C587 C 0.91139 0.1658 1.03532 0.0
H588 H 0.9542 0.28198 0.99941 0.0
C589 C 0.9263 0.21988 1.02878 0.0
C590 C 0.94335 0.24038 1.00361 0.0
H591 H 0.92568 0.24674 1.04324 0.0
H592 H 0.96106 0.26449 0.85937 0.0
H593 H 0.93431 0.23348 0.9035 0.0
H594 H 0.09203 0.36 0.92958 0.0
H595 H 0.1193 0.39034 0.8853 0.0
H596 H 0.01718 0.30799 0.96267 0.0
H597 H 0.94129 0.19324 0.94203 0.0
H598 H 0.92952 0.12574 0.97624 0.0
H599 H 0.9029 0.09134 1.01982 0.0
C600 C 0.90276 0.02221 0.20055 0.0
C601 C 0.88256 0.05716 0.19458 0.0
C602 C 0.90129 0.00329 0.22576 0.0
C603 C 0.87947 0.01853 0.24622 0.0
C604 C 0.8596 0.05376 0.2402 0.0
C605 C 0.86106 0.07266 0.21498 0.0
C606 C 0.87599 -0.00098 0.27384 0.0
C607 C 0.89418 0.96593 0.28285 0.0
C608 C 0.89115 0.94678 0.31048 0.0
C609 C 0.91818 0.91844 0.31719 0.0
C610 C 0.91781 0.90057 0.34249 0.0
C611 C 0.89008 0.91001 0.3623 0.0
H612 H 0.84012 0.97584 0.3264 0.0
C613 C 0.86182 0.93711 0.35552 0.0
C614 C 0.86232 0.95515 0.33021 0.0
H615 H 0.84014 0.94579 0.37 0.0
H616 H 0.91959 0.00885 0.18561 0.0
H617 H 0.91715 0.97645 0.22887 0.0
H618 H 0.84244 0.06675 0.25516 0.0
H619 H 0.84488 0.0992 0.21149 0.0
H620 H 0.85757 0.01361 0.2874 0.0
H621 H 0.91358 0.95219 0.26942 0.0
H622 H 0.94066 0.91067 0.30277 0.0
H623 H 0.94048 0.88042 0.34663 0.0
C624 C 0.01305 0.9018 0.53331 0.0
C625 C 0.96357 0.89745 0.52537 0.0
C626 C 0.02533 0.90125 0.55956 0.0
C627 C -0.01194 0.8952 0.57893 0.0
C628 C 0.93856 0.89049 0.57092 0.0
C629 C 0.92687 0.89236 0.54478 0.0
C630 C -0.00235 0.89064 0.60732 0.0
C631 C 0.04731 0.91519 0.61902 0.0
C632 C 0.05725 0.91345 0.64758 0.0
C633 C 0.10222 0.95886 0.65903 0.0
C634 C 0.11472 0.95899 0.68515 0.0
C635 C 0.08393 0.91296 0.70091 0.0
H636 H -0.0087 0.8311 0.65537 0.0
C637 C 0.03928 0.86688 0.68947 0.0
C638 C 0.02573 0.86734 0.66334 0.0
H639 H 0.01425 0.83066 0.70083 0.0
H640 H 0.0426 0.90572 0.51916 0.0
H641 H 0.0635 0.90411 0.56457 0.0
H642 H 0.90852 0.88544 0.58505 0.0
H643 H 0.88829 0.88863 0.53978 0.0
H644 H 0.96172 0.86851 0.61932 0.0
H645 H 0.08288 0.94126 0.60739 0.0
H646 H 0.12789 -0.00502 0.64771 0.0
H647 H 0.14942 -0.00468 0.69294 0.0
C648 C 0.15888 0.92202 0.88375 0.0
C649 C 0.15533 0.95749 0.86591 0.0
C650 C 0.17519 0.9384 0.90955 0.0
C651 C 0.1885 -0.00907 0.91839 0.0
C652 C 0.18403 0.02546 0.9005 0.0
C653 C 0.16793 0.0093 0.87506 0.0
C654 C 0.20787 0.01309 0.94541 0.0
C655 C 0.21186 0.98553 0.96588 0.0
C656 C 0.23038 0.00827 0.9929 0.0
C657 C 0.22341 0.97166 1.01275 0.0
C658 C 0.23936 -0.01066 1.03811 0.0
C659 C 0.26375 0.04486 1.04502 0.0
H660 H 0.26221 0.09456 0.98535 0.0
C661 C 0.27154 0.08209 1.02523 0.0
C662 C 0.25509 0.0642 0.99967 0.0
H663 H 0.28976 0.12511 1.02953 0.0
H664 H 0.14993 0.88191 0.87771 0.0
H665 H 0.17788 0.90995 0.9223 0.0
H666 H 0.19353 0.06598 0.90615 0.0
H667 H 0.16598 0.03837 0.8624 0.0
H668 H 0.2187 0.05511 0.94849 0.0
H669 H 0.19965 0.94303 0.96312 0.0
H670 H 0.20496 0.92849 1.00869 0.0
H671 H 0.23232 0.95889 1.05242 0.0
loop_
_geom_bond_atom_site_label_1
_geom_bond_atom_site_label_2
_geom_bond_distance
_geom_bond_site_symmetry_2
_ccdc_geom_bond_type
C0 Eu1 2.835 . S
C0 C2 1.500 . S
C0 O20 1.257 . S
C0 O21 1.260 . S
Eu1 C0 2.835 . S
Eu1 O20 2.473 . S
Eu1 O21 2.480 . S
Eu1 O22 2.430 . S
Eu1 O23 2.670 1_556 S
Eu1 O24 2.394 . S
Eu1 O29 2.356 . S
Eu1 O31 2.374 1_556 S
C2 C0 1.500 . S
C2 C3 1.377 . S
C2 C7 1.377 . S
C3 C2 1.377 . S
C3 C4 1.395 . S
C3 H32 0.931 . S
C4 C3 1.395 . S
C4 C5 1.383 . S
C4 H33 0.931 . S
C5 C4 1.383 . S
C5 C6 1.394 . S
C6 C5 1.394 . S
C6 C7 1.378 . S
C6 H34 0.931 . S
C7 C2 1.377 . S
C7 C6 1.378 . S
C7 H35 0.931 . S
C8 O22 1.259 1_554 S
C8 O23 1.270 . S
C9 O24 1.251 . S
C9 O25 1.251 . S
C10 Eu11 2.835 . S
C10 C12 1.500 . S
C10 O26 1.257 . S
C10 O27 1.260 . S
Eu11 C10 2.835 . S
Eu11 O23 2.355 . S
Eu11 O25 2.374 1_554 S
Eu11 O26 2.473 . S
Eu11 O27 2.480 . S
Eu11 O28 2.430 . S
Eu11 O29 2.667 1_554 S
Eu11 O30 2.394 . S
C12 C10 1.500 . S
C12 C13 1.377 . S
C12 C17 1.377 . S
C13 C12 1.377 . S
C13 C14 1.395 . S
C13 H36 0.931 . S
C14 C13 1.395 . S
C14 C15 1.383 . S
C14 H37 0.931 . S
C15 C14 1.383 . S
C15 C16 1.394 . S
C16 C15 1.394 . S
C16 C17 1.378 . S
C16 H38 0.931 . S
C17 C12 1.377 . S
C17 C16 1.378 . S
C17 H39 0.931 . S
C18 O28 1.259 . S
C18 O29 1.268 1_554 S
C19 O30 1.251 . S
C19 O31 1.251 . S
O20 C0 1.257 . S
O20 Eu1 2.473 . S
O21 C0 1.260 . S
O21 Eu1 2.480 . S
O22 Eu1 2.430 . S
O22 C8 1.259 1_556 S
O23 Eu1 2.670 1_554 S
O23 C8 1.270 . S
O23 Eu11 2.355 . S
O24 Eu1 2.394 . S
O24 C9 1.251 . S
O25 C9 1.251 . S
O25 Eu11 2.374 1_556 S
O26 C10 1.257 . S
O26 Eu11 2.473 . S
O27 C10 1.260 . S
O27 Eu11 2.480 . S
O28 Eu11 2.430 . S
O28 C18 1.259 . S
O29 Eu1 2.356 . S
O29 Eu11 2.667 1_556 S
O29 C18 1.268 1_556 S
O30 Eu11 2.394 . S
O30 C19 1.251 . S
O31 Eu1 2.374 1_554 S
O31 C19 1.251 . S
H32 C3 0.931 . S
H33 C4 0.931 . S
H34 C6 0.931 . S
H35 C7 0.931 . S
H36 C13 0.931 . S
H37 C14 0.931 . S
H38 C16 0.931 . S
H39 C17 0.931 . S
C40 Eu41 2.835 . S
C40 C42 1.500 . S
C40 O60 1.257 . S
C40 O61 1.260 . S
Eu41 C40 2.835 . S
Eu41 O60 2.473 . S
Eu41 O61 2.480 . S
Eu41 O62 2.430 . S
Eu41 O63 2.670 . S
Eu41 O64 2.394 . S
Eu41 O69 2.355 . S
Eu41 O71 2.374 . S
C42 C40 1.500 . S
C42 C43 1.377 . S
C42 C47 1.377 . S
C43 C42 1.377 . S
C43 C44 1.395 . S
C43 H72 0.931 . S
C44 C43 1.395 . S
C44 C45 1.383 . S
C44 H73 0.931 . S
C45 C44 1.383 . S
C45 C46 1.394 . S
C46 C45 1.394 . S
C46 C47 1.378 . S
C46 H74 0.931 . S
C47 C42 1.377 . S
C47 C46 1.378 . S
C47 H75 0.931 . S
C48 O62 1.259 . S
C48 O63 1.270 . S
C49 O64 1.251 . S
C49 O65 1.251 . S
C50 Eu51 2.835 . S
C50 C52 1.500 . S
C50 O66 1.257 . S
C50 O67 1.260 . S
Eu51 C50 2.835 . S
Eu51 O63 2.355 . S
Eu51 O65 2.374 . S
Eu51 O66 2.473 . S
Eu51 O67 2.480 . S
Eu51 O68 2.430 . S
Eu51 O69 2.670 . S
Eu51 O70 2.394 . S
C52 C50 1.500 . S
C52 C53 1.377 . S
C52 C57 1.377 . S
C53 C52 1.377 . S
C53 C54 1.395 . S
C53 H76 0.931 . S
C54 C53 1.395 . S
C54 C55 1.383 . S
C54 H77 0.931 . S
C55 C54 1.383 . S
C55 C56 1.394 . S
C56 C55 1.394 . S
C56 C57 1.378 . S
C56 H78 0.931 . S
C57 C52 1.377 . S
C57 C56 1.378 . S
C57 H79 0.931 . S
C58 O68 1.259 . S
C58 O69 1.270 . S
C59 O70 1.251 . S
C59 O71 1.251 . S
O60 C40 1.257 . S
O60 Eu41 2.473 . S
O61 C40 1.260 . S
O61 Eu41 2.480 . S
O62 Eu41 2.430 . S
O62 C48 1.259 . S
O63 Eu41 2.670 . S
O63 C48 1.270 . S
O63 Eu51 2.355 . S
O64 Eu41 2.394 . S
O64 C49 1.251 . S
O65 C49 1.251 . S
O65 Eu51 2.374 . S
O66 C50 1.257 . S
O66 Eu51 2.473 . S
O67 C50 1.260 . S
O67 Eu51 2.480 . S
O68 Eu51 2.430 . S
O68 C58 1.259 . S
O69 Eu41 2.355 . S
O69 Eu51 2.670 . S
O69 C58 1.270 . S
O70 Eu51 2.394 . S
O70 C59 1.251 . S
O71 Eu41 2.374 . S
O71 C59 1.251 . S
H72 C43 0.931 . S
H73 C44 0.931 . S
H74 C46 0.931 . S
H75 C47 0.931 . S
H76 C53 0.931 . S
H77 C54 0.931 . S
H78 C56 0.931 . S
H79 C57 0.931 . S
C80 Eu81 2.835 . S
C80 C82 1.500 . S
C80 O100 1.257 . S
C80 O101 1.260 . S
Eu81 C80 2.835 . S
Eu81 O100 2.473 . S
Eu81 O101 2.480 . S
Eu81 O102 2.430 . S
Eu81 O103 2.670 1_655 S
Eu81 O104 2.394 1_655 S
Eu81 O109 2.355 1_655 S
Eu81 O111 2.374 . S
C82 C80 1.500 . S
C82 C83 1.377 . S
C82 C87 1.377 . S
C83 C82 1.377 . S
C83 C84 1.395 . S
C83 H112 0.931 . S
C84 C83 1.395 . S
C84 C85 1.383 . S
C84 H113 0.931 . S
C85 C84 1.383 . S
C85 C86 1.394 . S
C86 C85 1.394 . S
C86 C87 1.378 . S
C86 H114 0.931 . S
C87 C82 1.377 . S
C87 C86 1.378 . S
C87 H115 0.931 . S
C88 O102 1.259 . S
C88 O103 1.270 1_655 S
C89 O104 1.251 . S
C89 O105 1.251 . S
C90 Eu91 2.835 . S
C90 C92 1.500 . S
C90 O106 1.257 . S
C90 O107 1.260 . S
Eu91 C90 2.835 . S
Eu91 O103 2.355 . S
Eu91 O105 2.374 . S
Eu91 O106 2.473 . S
Eu91 O107 2.480 . S
Eu91 O108 2.430 . S
Eu91 O109 2.670 . S
Eu91 O110 2.394 . S
C92 C90 1.500 . S
C92 C93 1.377 . S
C92 C97 1.377 . S
C93 C92 1.377 . S
C93 C94 1.395 . S
C93 H116 0.931 . S
C94 C93 1.395 . S
C94 C95 1.383 . S
C94 H117 0.931 . S
C95 C94 1.383 . S
C95 C96 1.394 . S
C96 C95 1.394 . S
C96 C97 1.378 . S
C96 H118 0.931 . S
C97 C92 1.377 . S
C97 C96 1.378 . S
C97 H119 0.931 . S
C98 O108 1.259 . S
C98 O109 1.270 . S
C99 O110 1.251 1_655 S
C99 O111 1.251 . S
O100 C80 1.257 . S
O100 Eu81 2.473 . S
O101 C80 1.260 . S
O101 Eu81 2.480 . S
O102 Eu81 2.430 . S
O102 C88 1.259 . S
O103 Eu81 2.670 1_455 S
O103 C88 1.270 1_455 S
O103 Eu91 2.355 . S
O104 Eu81 2.394 1_455 S
O104 C89 1.251 . S
O105 C89 1.251 . S
O105 Eu91 2.374 . S
O106 C90 1.257 . S
O106 Eu91 2.473 . S
O107 C90 1.260 . S
O107 Eu91 2.480 . S
O108 Eu91 2.430 . S
O108 C98 1.259 . S
O109 Eu81 2.355 1_455 S
O109 Eu91 2.670 . S
O109 C98 1.270 . S
O110 Eu91 2.394 . S
O110 C99 1.251 1_455 S
O111 Eu81 2.374 . S
O111 C99 1.251 . S
H112 C83 0.931 . S
H113 C84 0.931 . S
H114 C86 0.931 . S
H115 C87 0.931 . S
H116 C93 0.931 . S
H117 C94 0.931 . S
H118 C96 0.931 . S
H119 C97 0.931 . S
C120 Eu121 2.835 . S
C120 C122 1.500 . S
C120 O140 1.257 . S
C120 O141 1.260 . S
Eu121 C120 2.835 . S
Eu121 O140 2.473 . S
Eu121 O141 2.480 . S
Eu121 O142 2.430 . S
Eu121 O143 2.670 1_566 S
Eu121 O144 2.394 1_565 S
Eu121 O149 2.356 1_565 S
Eu121 O151 2.374 1_556 S
C122 C120 1.500 . S
C122 C123 1.377 . S
C122 C127 1.377 . S
C123 C122 1.377 . S
C123 C124 1.395 . S
C123 H152 0.931 . S
C124 C123 1.395 . S
C124 C125 1.383 . S
C124 H153 0.931 . S
C125 C124 1.383 . S
C125 C126 1.394 . S
C126 C125 1.394 . S
C126 C127 1.378 . S
C126 H154 0.931 . S
C127 C122 1.377 . S
C127 C126 1.378 . S
C127 H155 0.931 . S
C128 O142 1.259 1_554 S
C128 O143 1.270 1_565 S
C129 O144 1.251 . S
C129 O145 1.251 . S
C130 Eu131 2.835 . S
C130 C132 1.500 . S
C130 O146 1.257 . S
C130 O147 1.260 . S
Eu131 C130 2.835 . S
Eu131 O143 2.355 . S
Eu131 O145 2.374 1_554 S
Eu131 O146 2.473 . S
Eu131 O147 2.480 . S
Eu131 O148 2.430 . S
Eu131 O149 2.667 1_554 S
Eu131 O150 2.394 . S
C132 C130 1.500 . S
C132 C133 1.377 . S
C132 C137 1.377 . S
C133 C132 1.377 . S
C133 C134 1.395 . S
C133 H156 0.931 . S
C134 C133 1.395 . S
C134 C135 1.383 . S
C134 H157 0.931 . S
C135 C134 1.383 . S
C135 C136 1.394 . S
C136 C135 1.394 . S
C136 C137 1.378 . S
C136 H158 0.931 . S
C137 C132 1.377 . S
C137 C136 1.378 . S
C137 H159 0.931 . S
C138 O148 1.259 . S
C138 O149 1.268 1_554 S
C139 O150 1.251 1_565 S
C139 O151 1.251 . S
O140 C120 1.257 . S
O140 Eu121 2.473 . S
O141 C120 1.260 . S
O141 Eu121 2.480 . S
O142 Eu121 2.430 . S
O142 C128 1.259 1_556 S
O143 Eu121 2.670 1_544 S
O143 C128 1.270 1_545 S
O143 Eu131 2.355 . S
O144 Eu121 2.394 1_545 S
O144 C129 1.251 . S
O145 C129 1.251 . S
O145 Eu131 2.374 1_556 S
O146 C130 1.257 . S
O146 Eu131 2.473 . S
O147 C130 1.260 . S
O147 Eu131 2.480 . S
O148 Eu131 2.430 . S
O148 C138 1.259 . S
O149 Eu121 2.356 1_545 S
O149 Eu131 2.667 1_556 S
O149 C138 1.268 1_556 S
O150 Eu131 2.394 . S
O150 C139 1.251 1_545 S
O151 Eu121 2.374 1_554 S
O151 C139 1.251 . S
H152 C123 0.931 . S
H153 C124 0.931 . S
H154 C126 0.931 . S
H155 C127 0.931 . S
H156 C133 0.931 . S
H157 C134 0.931 . S
H158 C136 0.931 . S
H159 C137 0.931 . S
C160 Eu161 2.835 1_455 S
C160 C162 1.500 . S
C160 O180 1.257 . S
C160 O181 1.260 1_455 S
Eu161 C160 2.835 1_655 S
Eu161 O180 2.473 1_655 S
Eu161 O181 2.480 . S
Eu161 O182 2.430 . S
Eu161 O183 2.670 . S
Eu161 O184 2.394 . S
Eu161 O189 2.355 1_655 S
Eu161 O191 2.374 1_655 S
C162 C160 1.500 . S
C162 C163 1.377 . S
C162 C167 1.377 . S
C163 C162 1.377 . S
C163 C164 1.395 . S
C163 H192 0.931 . S
C164 C163 1.395 . S
C164 C165 1.383 . S
C164 H193 0.931 . S
C165 C164 1.383 . S
C165 C166 1.394 . S
C166 C165 1.394 . S
C166 C167 1.378 . S
C166 H194 0.931 . S
C167 C162 1.377 . S
C167 C166 1.378 . S
C167 H195 0.931 . S
C168 O182 1.259 . S
C168 O183 1.270 . S
C169 O184 1.251 . S
C169 O185 1.251 . S
C170 Eu171 2.835 . S
C170 C172 1.500 . S
C170 O186 1.257 . S
C170 O187 1.260 . S
Eu171 C170 2.835 . S
Eu171 O183 2.355 . S
Eu171 O185 2.374 . S
Eu171 O186 2.473 . S
Eu171 O187 2.480 . S
Eu171 O188 2.430 1_655 S
Eu171 O189 2.670 1_655 S
Eu171 O190 2.394 . S
C172 C170 1.500 . S
C172 C173 1.377 . S
C172 C177 1.377 . S
C173 C172 1.377 . S
C173 C174 1.395 . S
C173 H196 0.931 . S
C174 C173 1.395 . S
C174 C175 1.383 . S
C174 H197 0.931 . S
C175 C174 1.383 . S
C175 C176 1.394 . S
C176 C175 1.394 . S
C176 C177 1.378 . S
C176 H198 0.931 . S
C177 C172 1.377 . S
C177 C176 1.378 . S
C177 H199 0.931 . S
C178 O188 1.259 . S
C178 O189 1.270 . S
C179 O190 1.251 1_455 S
C179 O191 1.251 . S
O180 C160 1.257 . S
O180 Eu161 2.473 1_455 S
O181 C160 1.260 1_655 S
O181 Eu161 2.480 . S
O182 Eu161 2.430 . S
O182 C168 1.259 . S
O183 Eu161 2.670 . S
O183 C168 1.270 . S
O183 Eu171 2.355 . S
O184 Eu161 2.394 . S
O184 C169 1.251 . S
O185 C169 1.251 . S
O185 Eu171 2.374 . S
O186 C170 1.257 . S
O186 Eu171 2.473 . S
O187 C170 1.260 . S
O187 Eu171 2.480 . S
O188 Eu171 2.430 1_455 S
O188 C178 1.259 . S
O189 Eu161 2.355 1_455 S
O189 Eu171 2.670 1_455 S
O189 C178 1.270 . S
O190 Eu171 2.394 . S
O190 C179 1.251 1_655 S
O191 Eu161 2.374 1_455 S
O191 C179 1.251 . S
H192 C163 0.931 . S
H193 C164 0.931 . S
H194 C166 0.931 . S
H195 C167 0.931 . S
H196 C173 0.931 . S
H197 C174 0.931 . S
H198 C176 0.931 . S
H199 C177 0.931 . S
C200 Eu201 2.835 . S
C200 C202 1.500 . S
C200 O220 1.257 . S
C200 O221 1.260 . S
Eu201 C200 2.835 . S
Eu201 O220 2.473 . S
Eu201 O221 2.480 . S
Eu201 O222 2.430 1_545 S
Eu201 O223 2.670 1_545 S
Eu201 O224 2.394 1_545 S
Eu201 O229 2.355 . S
Eu201 O231 2.374 . S
C202 C200 1.500 . S
C202 C203 1.377 . S
C202 C207 1.377 . S
C203 C202 1.377 . S
C203 C204 1.395 . S
C203 H232 0.931 . S
C204 C203 1.395 . S
C204 C205 1.383 . S
C204 H233 0.931 . S
C205 C204 1.383 . S
C205 C206 1.394 . S
C206 C205 1.394 . S
C206 C207 1.378 . S
C206 H234 0.931 . S
C207 C202 1.377 . S
C207 C206 1.378 . S
C207 H235 0.931 . S
C208 O222 1.259 . S
C208 O223 1.270 . S
C209 O224 1.251 . S
C209 O225 1.251 . S
C210 Eu211 2.835 . S
C210 C212 1.500 . S
C210 O226 1.257 . S
C210 O227 1.260 . S
Eu211 C210 2.835 . S
Eu211 O223 2.355 . S
Eu211 O225 2.374 . S
Eu211 O226 2.473 . S
Eu211 O227 2.480 . S
Eu211 O228 2.430 1_565 S
Eu211 O229 2.670 1_565 S
Eu211 O230 2.394 . S
C212 C210 1.500 . S
C212 C213 1.377 . S
C212 C217 1.377 . S
C213 C212 1.377 . S
C213 C214 1.395 . S
C213 H236 0.931 . S
C214 C213 1.395 . S
C214 C215 1.383 . S
C214 H237 0.931 . S
C215 C214 1.383 . S
C215 C216 1.394 . S
C216 C215 1.394 . S
C216 C217 1.378 . S
C216 H238 0.931 . S
C217 C212 1.377 . S
C217 C216 1.378 . S
C217 H239 0.931 . S
C218 O228 1.259 . S
C218 O229 1.270 . S
C219 O230 1.251 1_545 S
C219 O231 1.251 . S
O220 C200 1.257 . S
O220 Eu201 2.473 . S
O221 C200 1.260 . S
O221 Eu201 2.480 . S
O222 Eu201 2.430 1_565 S
O222 C208 1.259 . S
O223 Eu201 2.670 1_565 S
O223 C208 1.270 . S
O223 Eu211 2.355 . S
O224 Eu201 2.394 1_565 S
O224 C209 1.251 . S
O225 C209 1.251 . S
O225 Eu211 2.374 . S
O226 C210 1.257 . S
O226 Eu211 2.473 . S
O227 C210 1.260 . S
O227 Eu211 2.480 . S
O228 Eu211 2.430 1_545 S
O228 C218 1.259 . S
O229 Eu201 2.355 . S
O229 Eu211 2.670 1_545 S
O229 C218 1.270 . S
O230 Eu211 2.394 . S
O230 C219 1.251 1_565 S
O231 Eu201 2.374 . S
O231 C219 1.251 . S
H232 C203 0.931 . S
H233 C204 0.931 . S
H234 C206 0.931 . S
H235 C207 0.931 . S
H236 C213 0.931 . S
H237 C214 0.931 . S
H238 C216 0.931 . S
H239 C217 0.931 . S
C240 C241 1.386 . S
C240 C242 1.383 1_655 S
C240 H256 0.951 1_545 S
C241 C240 1.386 . S
C241 C245 1.383 1_554 S
C242 C240 1.383 1_455 S
C242 C243 1.402 1_554 S
C242 H257 0.951 . S
C243 C242 1.402 1_556 S
C243 C244 1.375 . S
C243 C246 1.481 . S
C244 C243 1.375 . S
C244 C245 1.367 1_455 S
C244 H258 0.951 . S
C245 C241 1.383 1_556 S
C245 C244 1.367 1_655 S
C245 H259 0.950 . S
C246 C243 1.481 . S
C246 C247 1.297 1_556 S
C246 H260 0.950 . S
C247 C246 1.297 1_554 S
C247 C248 1.482 . S
C247 H261 0.950 . S
C248 C247 1.482 . S
C248 C249 1.397 . S
C248 C254 1.384 1_554 S
C249 C248 1.397 . S
C249 C250 1.369 . S
C249 H262 0.950 . S
C250 C249 1.369 . S
C250 C251 1.392 . S
C250 H263 0.951 . S
C251 C250 1.392 . S
C251 C253 1.384 1_554 S
H252 C254 0.949 . S
C253 C251 1.384 1_556 S
C253 C254 1.385 . S
C253 H255 0.950 . S
C254 C248 1.384 1_556 S
C254 H252 0.949 . S
C254 C253 1.385 . S
H255 C253 0.950 . S
H256 C240 0.951 1_565 S
H257 C242 0.951 . S
H258 C244 0.951 . S
H259 C245 0.950 . S
H260 C246 0.950 . S
H261 C247 0.950 . S
H262 C249 0.950 . S
H263 C250 0.951 . S
C264 C265 1.386 . S
C264 C266 1.383 1_565 S
C264 H280 0.951 . S
C265 C264 1.386 . S
C265 C269 1.383 . S
C266 C264 1.383 1_545 S
C266 C267 1.402 . S
C266 H281 0.951 . S
C267 C266 1.402 . S
C267 C268 1.375 . S
C267 C270 1.481 . S
C268 C267 1.375 . S
C268 C269 1.367 1_545 S
C268 H282 0.951 . S
C269 C265 1.383 . S
C269 C268 1.367 1_565 S
C269 H283 0.950 . S
C270 C267 1.481 . S
C270 C271 1.297 . S
C270 H284 0.950 . S
C271 C270 1.297 . S
C271 C272 1.479 . S
C271 H285 0.950 . S
C272 C271 1.479 . S
C272 C273 1.375 . S
C272 C278 1.404 . S
C273 C272 1.375 . S
C273 C274 1.369 . S
C273 H286 0.950 . S
C274 C273 1.369 . S
C274 C275 1.392 . S
C274 H287 0.951 . S
C275 C274 1.392 . S
C275 C277 1.384 . S
H276 C278 0.949 . S
C277 C275 1.384 . S
C277 C278 1.385 . S
C277 H279 0.950 . S
C278 C272 1.404 . S
C278 H276 0.949 . S
C278 C277 1.385 . S
H279 C277 0.950 . S
H280 C264 0.951 . S
H281 C266 0.951 . S
H282 C268 0.951 . S
H283 C269 0.950 . S
H284 C270 0.950 . S
H285 C271 0.950 . S
H286 C273 0.950 . S
H287 C274 0.951 . S
C288 C289 1.386 . S
C288 C290 1.383 . S
C288 H304 0.951 . S
C289 C288 1.386 . S
C289 C293 1.383 . S
C290 C288 1.383 . S
C290 C291 1.402 . S
C290 H305 0.951 . S
C291 C290 1.402 . S
C291 C292 1.375 . S
C291 C294 1.481 . S
C292 C291 1.375 . S
C292 C293 1.367 . S
C292 H306 0.951 . S
C293 C289 1.383 . S
C293 C292 1.367 . S
C293 H307 0.950 . S
C294 C291 1.481 . S
C294 C295 1.297 . S
C294 H308 0.950 . S
C295 C294 1.297 . S
C295 C296 1.479 . S
C295 H309 0.950 . S
C296 C295 1.479 . S
C296 C297 1.375 . S
C296 C302 1.404 . S
C297 C296 1.375 . S
C297 C298 1.369 . S
C297 H310 0.950 . S
C298 C297 1.369 . S
C298 C299 1.392 1_455 S
C298 H311 0.951 . S
C299 C298 1.392 1_655 S
C299 C301 1.384 . S
H300 C302 0.949 . S
C301 C299 1.384 . S
C301 C302 1.385 1_655 S
C301 H303 0.950 . S
C302 C296 1.404 . S
C302 H300 0.949 . S
C302 C301 1.385 1_455 S
H303 C301 0.950 . S
H304 C288 0.951 . S
H305 C290 0.951 . S
H306 C292 0.951 . S
H307 C293 0.950 . S
H308 C294 0.950 . S
H309 C295 0.950 . S
H310 C297 0.950 . S
H311 C298 0.951 . S
C312 C313 1.386 . S
C312 C314 1.383 . S
C312 H328 0.951 . S
C313 C312 1.386 . S
C313 C317 1.383 . S
C314 C312 1.383 . S
C314 C315 1.402 . S
C314 H329 0.951 . S
C315 C314 1.402 . S
C315 C316 1.375 . S
C315 C318 1.481 . S
C316 C315 1.375 . S
C316 C317 1.367 . S
C316 H330 0.951 . S
C317 C313 1.383 . S
C317 C316 1.367 . S
C317 H331 0.950 . S
C318 C315 1.481 . S
C318 C319 1.297 . S
C318 H332 0.950 . S
C319 C318 1.297 . S
C319 C320 1.479 . S
C319 H333 0.950 . S
C320 C319 1.479 . S
C320 C321 1.375 . S
C320 C326 1.404 . S
C321 C320 1.375 . S
C321 C322 1.369 . S
C321 H334 0.950 . S
C322 C321 1.369 . S
C322 C323 1.392 . S
C322 H335 0.951 . S
C323 C322 1.392 . S
C323 C325 1.384 . S
H324 C326 0.949 . S
C325 C323 1.384 . S
C325 C326 1.385 . S
C325 H327 0.950 . S
C326 C320 1.404 . S
C326 H324 0.949 . S
C326 C325 1.385 . S
H327 C325 0.950 . S
H328 C312 0.951 . S
H329 C314 0.951 . S
H330 C316 0.951 . S
H331 C317 0.950 . S
H332 C318 0.950 . S
H333 C319 0.950 . S
H334 C321 0.950 . S
H335 C322 0.951 . S
C336 C337 1.386 . S
C336 C338 1.383 . S
C336 H352 0.951 . S
C337 C336 1.386 . S
C337 C341 1.383 . S
C338 C336 1.383 . S
C338 C339 1.402 . S
C338 H353 0.951 . S
C339 C338 1.402 . S
C339 C340 1.375 . S
C339 C342 1.481 . S
C340 C339 1.375 . S
C340 C341 1.367 . S
C340 H354 0.951 . S
C341 C337 1.383 . S
C341 C340 1.367 . S
C341 H355 0.950 . S
C342 C339 1.481 . S
C342 C343 1.297 . S
C342 H356 0.950 . S
C343 C342 1.297 . S
C343 C344 1.479 1_455 S
C343 H357 0.950 . S
C344 C343 1.479 1_655 S
C344 C345 1.375 . S
C344 C350 1.404 . S
C345 C344 1.375 . S
C345 C346 1.369 . S
C345 H358 0.950 . S
C346 C345 1.369 . S
C346 C347 1.392 . S
C346 H359 0.951 . S
C347 C346 1.392 . S
C347 C349 1.384 . S
H348 C350 0.949 . S
C349 C347 1.384 . S
C349 C350 1.385 . S
C349 H351 0.950 . S
C350 C344 1.404 . S
C350 H348 0.949 . S
C350 C349 1.385 . S
H351 C349 0.950 . S
H352 C336 0.951 . S
H353 C338 0.951 . S
H354 C340 0.951 . S
H355 C341 0.950 . S
H356 C342 0.950 . S
H357 C343 0.950 . S
H358 C345 0.950 . S
H359 C346 0.951 . S
C360 C361 1.386 . S
C360 C362 1.383 . S
C360 H376 0.951 . S
C361 C360 1.386 . S
C361 C365 1.383 . S
C362 C360 1.383 . S
C362 C363 1.402 . S
C362 H377 0.951 . S
C363 C362 1.402 . S
C363 C364 1.375 . S
C363 C366 1.481 . S
C364 C363 1.375 . S
C364 C365 1.367 . S
C364 H378 0.951 . S
C365 C361 1.383 . S
C365 C364 1.367 . S
C365 H379 0.950 . S
C366 C363 1.481 . S
C366 C367 1.297 . S
C366 H380 0.950 . S
C367 C366 1.297 . S
C367 C368 1.479 1_545 S
C367 H381 0.950 . S
C368 C367 1.479 1_565 S
C368 C369 1.375 . S
C368 C374 1.404 . S
C369 C368 1.375 . S
C369 C370 1.369 . S
C369 H382 0.950 . S
C370 C369 1.369 . S
C370 C371 1.392 . S
C370 H383 0.951 . S
C371 C370 1.392 . S
C371 C373 1.384 . S
H372 C374 0.949 1_545 S
C373 C371 1.384 . S
C373 C374 1.385 . S
C373 H375 0.950 . S
C374 C368 1.404 . S
C374 H372 0.949 1_565 S
C374 C373 1.385 . S
H375 C373 0.950 . S
H376 C360 0.951 . S
H377 C362 0.951 . S
H378 C364 0.951 . S
H379 C365 0.950 . S
H380 C366 0.950 . S
H381 C367 0.950 . S
H382 C369 0.950 . S
H383 C370 0.951 . S
C384 C385 1.386 . S
C384 C386 1.383 . S
C384 H400 0.951 . S
C385 C384 1.386 . S
C385 C389 1.383 . S
C386 C384 1.383 . S
C386 C387 1.402 . S
C386 H401 0.951 . S
C387 C386 1.402 . S
C387 C388 1.375 . S
C387 C390 1.481 . S
C388 C387 1.375 . S
C388 C389 1.367 . S
C388 H402 0.951 . S
C389 C385 1.383 . S
C389 C388 1.367 . S
C389 H403 0.950 . S
C390 C387 1.481 . S
C390 C391 1.297 . S
C390 H404 0.950 . S
C391 C390 1.297 . S
C391 C392 1.479 . S
C391 H405 0.950 . S
C392 C391 1.479 . S
C392 C393 1.375 . S
C392 C398 1.404 1_655 S
C393 C392 1.375 . S
C393 C394 1.369 1_655 S
C393 H406 0.950 . S
C394 C393 1.369 1_455 S
C394 C395 1.392 . S
C394 H407 0.951 . S
C395 C394 1.392 . S
C395 C397 1.384 . S
H396 C398 0.959 . S
C397 C395 1.384 . S
C397 C398 1.385 . S
C397 H399 0.950 . S
C398 C392 1.404 1_455 S
C398 H396 0.959 . S
C398 C397 1.385 . S
H399 C397 0.950 . S
H400 C384 0.951 . S
H401 C386 0.951 . S
H402 C388 0.951 . S
H403 C389 0.950 . S
H404 C390 0.950 . S
H405 C391 0.950 . S
H406 C393 0.950 . S
H407 C394 0.951 . S
C408 C409 1.386 . S
C408 C410 1.383 . S
C408 H424 0.951 . S
C409 C408 1.386 . S
C409 C413 1.383 . S
C410 C408 1.383 . S
C410 C411 1.402 . S
C410 H425 0.951 . S
C411 C410 1.402 . S
C411 C412 1.375 . S
C411 C414 1.481 . S
C412 C411 1.375 . S
C412 C413 1.367 . S
C412 H426 0.951 . S
C413 C409 1.383 . S
C413 C412 1.367 . S
C413 H427 0.950 . S
C414 C411 1.481 . S
C414 C415 1.297 . S
C414 H428 0.950 . S
C415 C414 1.297 . S
C415 C416 1.479 1_565 S
C415 H429 0.950 . S
C416 C415 1.479 1_545 S
C416 C417 1.380 . S
C416 C422 1.404 . S
C417 C416 1.380 . S
C417 C418 1.376 . S
C417 H430 0.938 1_545 S
C418 C417 1.376 . S
C418 C419 1.392 . S
C418 H431 0.951 . S
C419 C418 1.392 . S
C419 C421 1.384 . S
H420 C422 0.949 . S
C421 C419 1.384 . S
C421 C422 1.385 . S
C421 H423 0.950 . S
C422 C416 1.404 . S
C422 H420 0.949 . S
C422 C421 1.385 . S
H423 C421 0.950 . S
H424 C408 0.951 . S
H425 C410 0.951 . S
H426 C412 0.951 . S
H427 C413 0.950 . S
H428 C414 0.950 . S
H429 C415 0.950 . S
H430 C417 0.938 1_565 S
H431 C418 0.951 . S
C432 C433 1.386 . S
C432 C434 1.383 . S
C432 H448 0.951 . S
C433 C432 1.386 . S
C433 C437 1.383 . S
C434 C432 1.383 . S
C434 C435 1.402 . S
C434 H449 0.951 . S
C435 C434 1.402 . S
C435 C436 1.375 . S
C435 C438 1.481 . S
C436 C435 1.375 . S
C436 C437 1.367 . S
C436 H450 0.951 . S
C437 C433 1.383 . S
C437 C436 1.367 . S
C437 H451 0.950 . S
C438 C435 1.481 . S
C438 C439 1.297 . S
C438 H452 0.950 . S
C439 C438 1.297 . S
C439 C440 1.479 . S
C439 H453 0.950 . S
C440 C439 1.479 . S
C440 C441 1.375 . S
C440 C446 1.404 . S
C441 C440 1.375 . S
C441 C442 1.369 . S
C441 H454 0.950 . S
C442 C441 1.369 . S
C442 C443 1.392 . S
C442 H455 0.951 . S
C443 C442 1.392 . S
C443 C445 1.384 . S
H444 C446 0.949 . S
C445 C443 1.384 . S
C445 C446 1.385 . S
C445 H447 0.950 . S
C446 C440 1.404 . S
C446 H444 0.949 . S
C446 C445 1.385 . S
H447 C445 0.950 . S
H448 C432 0.951 . S
H449 C434 0.951 . S
H450 C436 0.951 . S
H451 C437 0.950 . S
H452 C438 0.950 . S
H453 C439 0.950 . S
H454 C441 0.950 . S
H455 C442 0.951 . S
C456 C457 1.386 . S
C456 C458 1.383 . S
C456 H472 0.951 . S
C457 C456 1.386 . S
C457 C461 1.383 1_554 S
C458 C456 1.383 . S
C458 C459 1.402 . S
C458 H473 0.951 . S
C459 C458 1.402 . S
C459 C460 1.375 1_554 S
C459 C462 1.481 1_554 S
C460 C459 1.375 1_556 S
C460 C461 1.367 . S
C460 H474 0.951 . S
C461 C457 1.383 1_556 S
C461 C460 1.367 . S
C461 H475 0.950 . S
C462 C459 1.481 1_556 S
C462 C463 1.297 1_556 S
C462 H476 0.950 . S
C463 C462 1.297 1_554 S
C463 C464 1.479 . S
C463 H477 0.950 . S
C464 C463 1.479 . S
C464 C465 1.375 . S
C464 C470 1.404 1_554 S
C465 C464 1.375 . S
C465 C466 1.369 . S
C465 H478 0.950 . S
C466 C465 1.369 . S
C466 C467 1.392 . S
C466 H479 0.951 1_545 S
C467 C466 1.392 . S
C467 C469 1.384 1_554 S
H468 C470 0.949 . S
C469 C467 1.384 1_556 S
C469 C470 1.385 . S
C469 H471 0.950 . S
C470 C464 1.404 1_556 S
C470 H468 0.949 . S
C470 C469 1.385 . S
H471 C469 0.950 . S
H472 C456 0.951 . S
H473 C458 0.951 . S
H474 C460 0.951 . S
H475 C461 0.950 . S
H476 C462 0.950 . S
H477 C463 0.950 . S
H478 C465 0.950 . S
H479 C466 0.951 1_565 S
C480 C481 1.386 . S
C480 C482 1.383 . S
C480 H496 0.951 . S
C481 C480 1.386 . S
C481 C485 1.383 . S
C482 C480 1.383 . S
C482 C483 1.402 . S
C482 H497 0.951 . S
C483 C482 1.402 . S
C483 C484 1.375 . S
C483 C486 1.481 . S
C484 C483 1.375 . S
C484 C485 1.367 . S
C484 H498 0.951 . S
C485 C481 1.383 . S
C485 C484 1.367 . S
C485 H499 0.950 . S
C486 C483 1.481 . S
C486 C487 1.297 . S
C486 H500 0.950 . S
C487 C486 1.297 . S
C487 C488 1.479 . S
C487 H501 0.950 . S
C488 C487 1.479 . S
C488 C489 1.375 . S
C488 C494 1.404 . S
C489 C488 1.375 . S
C489 C490 1.369 . S
C489 H502 0.950 . S
C490 C489 1.369 . S
C490 C491 1.392 . S
C490 H503 0.951 . S
C491 C490 1.392 . S
C491 C493 1.384 . S
H492 C494 0.949 . S
C493 C491 1.384 . S
C493 C494 1.385 . S
C493 H495 0.950 . S
C494 C488 1.404 . S
C494 H492 0.949 . S
C494 C493 1.385 . S
H495 C493 0.950 . S
H496 C480 0.951 . S
H497 C482 0.951 . S
H498 C484 0.951 . S
H499 C485 0.950 . S
H500 C486 0.950 . S
H501 C487 0.950 . S
H502 C489 0.950 . S
H503 C490 0.951 . S
C504 C505 1.386 1_655 S
C504 C506 1.383 1_655 S
C504 H520 0.951 . S
C505 C504 1.386 1_455 S
C505 C509 1.383 . S
C506 C504 1.383 1_455 S
C506 C507 1.402 . S
C506 H521 0.951 . S
C507 C506 1.402 . S
C507 C508 1.375 . S
C507 C510 1.481 . S
C508 C507 1.375 . S
C508 C509 1.367 . S
C508 H522 0.951 . S
C509 C505 1.383 . S
C509 C508 1.367 . S
C509 H523 0.950 . S
C510 C507 1.481 . S
C510 C511 1.297 . S
C510 H524 0.950 . S
C511 C510 1.297 . S
C511 C512 1.479 . S
C511 H525 0.950 . S
C512 C511 1.479 . S
C512 C513 1.375 . S
C512 C518 1.404 . S
C513 C512 1.375 . S
C513 C514 1.369 . S
C513 H526 0.950 . S
C514 C513 1.369 . S
C514 C515 1.392 . S
C514 H527 0.951 . S
C515 C514 1.392 . S
C515 C517 1.384 . S
H516 C518 0.949 . S
C517 C515 1.384 . S
C517 C518 1.385 . S
C517 H519 0.950 . S
C518 C512 1.404 . S
C518 H516 0.949 . S
C518 C517 1.385 . S
H519 C517 0.950 . S
H520 C504 0.951 . S
H521 C506 0.951 . S
H522 C508 0.951 . S
H523 C509 0.950 . S
H524 C510 0.950 . S
H525 C511 0.950 . S
H526 C513 0.950 . S
H527 C514 0.951 . S
C528 C529 1.386 . S
C528 C530 1.383 . S
C528 H544 0.951 . S
C529 C528 1.386 . S
C529 C533 1.383 . S
C530 C528 1.383 . S
C530 C531 1.402 . S
C530 H545 0.951 . S
C531 C530 1.402 . S
C531 C532 1.375 . S
C531 C534 1.481 . S
C532 C531 1.375 . S
C532 C533 1.367 . S
C532 H546 0.951 . S
C533 C529 1.383 . S
C533 C532 1.367 . S
C533 H547 0.950 . S
C534 C531 1.481 . S
C534 C535 1.297 . S
C534 H548 0.950 . S
C535 C534 1.297 . S
C535 C536 1.479 . S
C535 H549 0.950 . S
C536 C535 1.479 . S
C536 C537 1.375 . S
C536 C542 1.404 . S
C537 C536 1.375 . S
C537 C538 1.369 . S
C537 H550 0.950 . S
C538 C537 1.369 . S
C538 C539 1.392 . S
C538 H551 0.951 . S
C539 C538 1.392 . S
C539 C541 1.384 . S
H540 C542 0.949 . S
C541 C539 1.384 . S
C541 C542 1.385 . S
C541 H543 0.950 . S
C542 C536 1.404 . S
C542 H540 0.949 . S
C542 C541 1.385 . S
H543 C541 0.950 . S
H544 C528 0.951 . S
H545 C530 0.951 . S
H546 C532 0.951 . S
H547 C533 0.950 . S
H548 C534 0.950 . S
H549 C535 0.950 . S
H550 C537 0.950 . S
H551 C538 0.951 . S
C552 C553 1.386 . S
C552 C554 1.383 . S
C552 H568 0.951 . S
C553 C552 1.386 . S
C553 C557 1.383 . S
C554 C552 1.383 . S
C554 C555 1.402 . S
C554 H569 0.951 . S
C555 C554 1.402 . S
C555 C556 1.375 . S
C555 C558 1.481 . S
C556 C555 1.375 . S
C556 C557 1.367 . S
C556 H570 0.951 . S
C557 C553 1.383 . S
C557 C556 1.367 . S
C557 H571 0.950 . S
C558 C555 1.481 . S
C558 C559 1.297 . S
C558 H572 0.950 . S
C559 C558 1.297 . S
C559 C560 1.479 . S
C559 H573 0.950 . S
C560 C559 1.479 . S
C560 C561 1.375 . S
C560 C566 1.404 . S
C561 C560 1.375 . S
C561 C562 1.369 . S
C561 H574 0.950 . S
C562 C561 1.369 . S
C562 C563 1.392 . S
C562 H575 0.951 . S
C563 C562 1.392 . S
C563 C565 1.384 . S
H564 C566 0.949 . S
C565 C563 1.384 . S
C565 C566 1.385 . S
C565 H567 0.950 . S
C566 C560 1.404 . S
C566 H564 0.949 . S
C566 C565 1.385 . S
H567 C565 0.950 . S
H568 C552 0.951 . S
H569 C554 0.951 . S
H570 C556 0.951 . S
H571 C557 0.950 . S
H572 C558 0.950 . S
H573 C559 0.950 . S
H574 C561 0.950 . S
H575 C562 0.951 . S
C576 C577 1.386 . S
C576 C578 1.383 . S
C576 H592 0.951 . S
C577 C576 1.386 . S
C577 C581 1.383 . S
C578 C576 1.383 . S
C578 C579 1.402 . S
C578 H593 0.951 . S
C579 C578 1.402 . S
C579 C580 1.375 . S
C579 C582 1.481 . S
C580 C579 1.375 . S
C580 C581 1.367 . S
C580 H594 0.951 . S
C581 C577 1.383 . S
C581 C580 1.367 . S
C581 H595 0.950 . S
C582 C579 1.481 . S
C582 C583 1.297 . S
C582 H596 0.950 . S
C583 C582 1.297 . S
C583 C584 1.479 . S
C583 H597 0.950 . S
C584 C583 1.479 . S
C584 C585 1.375 . S
C584 C590 1.404 . S
C585 C584 1.375 . S
C585 C586 1.369 . S
C585 H598 0.950 . S
C586 C585 1.369 . S
C586 C587 1.392 . S
C586 H599 0.951 . S
C587 C586 1.392 . S
C587 C589 1.384 . S
H588 C590 0.949 . S
C589 C587 1.384 . S
C589 C590 1.385 . S
C589 H591 0.950 . S
C590 C584 1.404 . S
C590 H588 0.949 . S
C590 C589 1.385 . S
H591 C589 0.950 . S
H592 C576 0.951 . S
H593 C578 0.951 . S
H594 C580 0.951 . S
H595 C581 0.950 . S
H596 C582 0.950 . S
H597 C583 0.950 . S
H598 C585 0.950 . S
H599 C586 0.951 . S
C600 C601 1.386 . S
C600 C602 1.383 . S
C600 H616 0.951 . S
C601 C600 1.386 . S
C601 C605 1.383 . S
C602 C600 1.383 . S
C602 C603 1.402 . S
C602 H617 0.951 . S
C603 C602 1.402 . S
C603 C604 1.375 . S
C603 C606 1.481 . S
C604 C603 1.375 . S
C604 C605 1.367 . S
C604 H618 0.951 . S
C605 C601 1.383 . S
C605 C604 1.367 . S
C605 H619 0.950 . S
C606 C603 1.481 . S
C606 C607 1.297 . S
C606 H620 0.950 . S
C607 C606 1.297 . S
C607 C608 1.479 . S
C607 H621 0.950 . S
C608 C607 1.479 . S
C608 C609 1.375 . S
C608 C614 1.404 . S
C609 C608 1.375 . S
C609 C610 1.369 . S
C609 H622 0.950 . S
C610 C609 1.369 . S
C610 C611 1.392 . S
C610 H623 0.951 . S
C611 C610 1.392 . S
C611 C613 1.384 . S
H612 C614 0.949 . S
C613 C611 1.384 . S
C613 C614 1.385 . S
C613 H615 0.950 . S
C614 C608 1.404 . S
C614 H612 0.949 . S
C614 C613 1.385 . S
H615 C613 0.950 . S
H616 C600 0.951 . S
H617 C602 0.951 . S
H618 C604 0.951 . S
H619 C605 0.950 . S
H620 C606 0.950 . S
H621 C607 0.950 . S
H622 C609 0.950 . S
H623 C610 0.951 . S
C624 C625 1.386 . S
C624 C626 1.383 . S
C624 H640 0.951 . S
C625 C624 1.386 . S
C625 C629 1.383 . S
C626 C624 1.383 . S
C626 C627 1.402 . S
C626 H641 0.951 . S
C627 C626 1.402 . S
C627 C628 1.375 . S
C627 C630 1.481 . S
C628 C627 1.375 . S
C628 C629 1.367 . S
C628 H642 0.951 . S
C629 C625 1.383 . S
C629 C628 1.367 . S
C629 H643 0.950 1_455 S
C630 C627 1.481 . S
C630 C631 1.297 . S
C630 H644 0.950 . S
C631 C630 1.297 . S
C631 C632 1.479 . S
C631 H645 0.950 . S
C632 C631 1.479 . S
C632 C633 1.375 . S
C632 C638 1.404 . S
C633 C632 1.375 . S
C633 C634 1.369 . S
C633 H646 0.950 . S
C634 C633 1.369 . S
C634 C635 1.392 . S
C634 H647 0.951 . S
C635 C634 1.392 . S
C635 C637 1.384 . S
H636 C638 0.949 . S
C637 C635 1.384 . S
C637 C638 1.385 . S
C637 H639 0.950 . S
C638 C632 1.404 . S
C638 H636 0.949 . S
C638 C637 1.385 . S
H639 C637 0.950 . S
H640 C624 0.951 . S
H641 C626 0.951 . S
H642 C628 0.951 . S
H643 C629 0.950 1_655 S
H644 C630 0.950 . S
H645 C631 0.950 . S
H646 C633 0.950 . S
H647 C634 0.951 . S
C648 C649 1.386 . S
C648 C650 1.383 . S
C648 H664 0.951 1_545 S
C649 C648 1.386 . S
C649 C653 1.383 . S
C650 C648 1.383 . S
C650 C651 1.402 . S
C650 H665 0.951 . S
C651 C650 1.402 . S
C651 C652 1.375 . S
C651 C654 1.481 . S
C652 C651 1.375 . S
C652 C653 1.367 . S
C652 H666 0.951 . S
C653 C649 1.383 . S
C653 C652 1.367 . S
C653 H667 0.950 . S
C654 C651 1.481 . S
C654 C655 1.297 . S
C654 H668 0.950 . S
C655 C654 1.297 . S
C655 C656 1.479 . S
C655 H669 0.950 . S
C656 C655 1.479 . S
C656 C657 1.375 . S
C656 C662 1.404 . S
C657 C656 1.375 . S
C657 C658 1.369 . S
C657 H670 0.950 . S
C658 C657 1.369 . S
C658 C659 1.392 . S
C658 H671 0.951 . S
C659 C658 1.392 . S
C659 C661 1.384 . S
H660 C662 0.949 . S
C661 C659 1.384 . S
C661 C662 1.385 . S
C661 H663 0.950 . S
C662 C656 1.404 . S
C662 H660 0.949 . S
C662 C661 1.385 . S
H663 C661 0.950 . S
H664 C648 0.951 1_565 S
H665 C650 0.951 . S
H666 C652 0.951 . S
H667 C653 0.950 . S
H668 C654 0.950 . S
H669 C655 0.950 . S
H670 C657 0.950 . S
H671 C658 0.951 . S
C241 C138 0.732 . S
C251 C18 0.624 . S
C265 C178 0.761 . S
C275 C58 0.582 . S
C289 C218 0.612 . S
C299 C98 0.884 1_655 S
C313 C5 0.748 . S
C323 C95 0.777 . S
C337 C45 0.564 . S
C347 C135 0.548 . S
C361 C85 0.640 . S
C371 C175 0.501 . S
C385 C125 0.706 . S
C395 C215 0.583 . S
C409 C165 0.566 . S
C419 C15 0.538 . S
C433 C205 0.578 . S
C443 C55 0.651 . S
C457 C8 1.506 . S
C467 C128 1.527 1_545 S
C481 C48 1.511 . S
C491 C168 1.533 . S
C505 C88 1.518 1_455 S
C515 C208 1.519 . S
C529 C19 3.915 . S
C539 C49 3.961 . S
C553 C59 3.915 . S
C563 C89 3.949 . S
C577 C99 3.909 . S
C587 C129 3.958 . S
C601 C139 3.909 . S
C611 C169 3.958 . S
C625 C179 3.902 . S
C635 C209 3.953 . S
C649 C219 3.911 . S
C659 C9 3.947 . S
