# Generated by pormake.
# Topology whk, (6)-cn, num edge types: 1
# Building blocks:
#     Node 0, Type 0, BuildingBlock: OJICUG_clean_sbu_0, # of connection points: 6
#     Node 1, Type 0, BuildingBlock: OJICUG_clean_sbu_0, # of connection points: 6
#     Node 2, Type 0, BuildingBlock: OJICUG_clean_sbu_0, # of connection points: 6
#     Node 3, Type 0, BuildingBlock: OJICUG_clean_sbu_0, # of connection points: 6
#     Node 4, Type 0, BuildingBlock: OJICUG_clean_sbu_0, # of connection points: 6
#     Node 5, Type 0, BuildingBlock: OJICUG_clean_sbu_0, # of connection points: 6
#     Node 6, Type 0, BuildingBlock: OJICUG_clean_sbu_0, # of connection points: 6
#     Node 7, Type 0, BuildingBlock: OJICUG_clean_sbu_0, # of connection points: 6
#     Node 8, Type 0, BuildingBlock: OJICUG_clean_sbu_0, # of connection points: 6
#     Node 9, Type 0, BuildingBlock: OJICUG_clean_sbu_0, # of connection points: 6
#     Node 10, Type 0, BuildingBlock: OJICUG_clean_sbu_0, # of connection points: 6
#     Node 11, Type 0, BuildingBlock: OJICUG_clean_sbu_0, # of connection points: 6
#     Node 12, Type 0, BuildingBlock: OJICUG_clean_sbu_0, # of connection points: 6
#     Node 13, Type 0, BuildingBlock: OJICUG_clean_sbu_0, # of connection points: 6
#     Node 14, Type 0, BuildingBlock: OJICUG_clean_sbu_0, # of connection points: 6
#     Node 15, Type 0, BuildingBlock: OJICUG_clean_sbu_0, # of connection points: 6
#     Edge 16, Type (0, 0), BuildingBlock: OJICUG_clean_linker_0, # of connection points: 2
#     Edge 17, Type (0, 0), BuildingBlock: OJICUG_clean_linker_0, # of connection points: 2
#     Edge 18, Type (0, 0), BuildingBlock: OJICUG_clean_linker_0, # of connection points: 2
#     Edge 19, Type (0, 0), BuildingBlock: OJICUG_clean_linker_0, # of connection points: 2
#     Edge 20, Type (0, 0), BuildingBlock: OJICUG_clean_linker_0, # of connection points: 2
#     Edge 21, Type (0, 0), BuildingBlock: OJICUG_clean_linker_0, # of connection points: 2
#     Edge 22, Type (0, 0), BuildingBlock: OJICUG_clean_linker_0, # of connection points: 2
#     Edge 23, Type (0, 0), BuildingBlock: OJICUG_clean_linker_0, # of connection points: 2
#     Edge 24, Type (0, 0), BuildingBlock: OJICUG_clean_linker_0, # of connection points: 2
#     Edge 25, Type (0, 0), BuildingBlock: OJICUG_clean_linker_0, # of connection points: 2
#     Edge 26, Type (0, 0), BuildingBlock: OJICUG_clean_linker_0, # of connection points: 2
#     Edge 27, Type (0, 0), BuildingBlock: OJICUG_clean_linker_0, # of connection points: 2
#     Edge 28, Type (0, 0), BuildingBlock: OJICUG_clean_linker_0, # of connection points: 2
#     Edge 29, Type (0, 0), BuildingBlock: OJICUG_clean_linker_0, # of connection points: 2
#     Edge 30, Type (0, 0), BuildingBlock: OJICUG_clean_linker_0, # of connection points: 2
#     Edge 31, Type (0, 0), BuildingBlock: OJICUG_clean_linker_0, # of connection points: 2
#     Edge 32, Type (0, 0), BuildingBlock: OJICUG_clean_linker_0, # of connection points: 2
#     Edge 33, Type (0, 0), BuildingBlock: OJICUG_clean_linker_0, # of connection points: 2
#     Edge 34, Type (0, 0), BuildingBlock: OJICUG_clean_linker_0, # of connection points: 2
#     Edge 35, Type (0, 0), BuildingBlock: OJICUG_clean_linker_0, # of connection points: 2
#     Edge 36, Type (0, 0), BuildingBlock: OJICUG_clean_linker_0, # of connection points: 2
#     Edge 37, Type (0, 0), BuildingBlock: OJICUG_clean_linker_0, # of connection points: 2
#     Edge 38, Type (0, 0), BuildingBlock: OJICUG_clean_linker_0, # of connection points: 2
#     Edge 39, Type (0, 0), BuildingBlock: OJICUG_clean_linker_0, # of connection points: 2
#     Edge 40, Type (0, 0), BuildingBlock: OJICUG_clean_linker_0, # of connection points: 2
#     Edge 41, Type (0, 0), BuildingBlock: OJICUG_clean_linker_0, # of connection points: 2
#     Edge 42, Type (0, 0), BuildingBlock: OJICUG_clean_linker_0, # of connection points: 2
#     Edge 43, Type (0, 0), BuildingBlock: OJICUG_clean_linker_0, # of connection points: 2
#     Edge 44, Type (0, 0), BuildingBlock: OJICUG_clean_linker_0, # of connection points: 2
#     Edge 45, Type (0, 0), BuildingBlock: OJICUG_clean_linker_0, # of connection points: 2
#     Edge 46, Type (0, 0), BuildingBlock: OJICUG_clean_linker_0, # of connection points: 2
#     Edge 47, Type (0, 0), BuildingBlock: OJICUG_clean_linker_0, # of connection points: 2
#     Edge 48, Type (0, 0), BuildingBlock: OJICUG_clean_linker_0, # of connection points: 2
#     Edge 49, Type (0, 0), BuildingBlock: OJICUG_clean_linker_0, # of connection points: 2
#     Edge 50, Type (0, 0), BuildingBlock: OJICUG_clean_linker_0, # of connection points: 2
#     Edge 51, Type (0, 0), BuildingBlock: OJICUG_clean_linker_0, # of connection points: 2
#     Edge 52, Type (0, 0), BuildingBlock: OJICUG_clean_linker_0, # of connection points: 2
#     Edge 53, Type (0, 0), BuildingBlock: OJICUG_clean_linker_0, # of connection points: 2
#     Edge 54, Type (0, 0), BuildingBlock: OJICUG_clean_linker_0, # of connection points: 2
#     Edge 55, Type (0, 0), BuildingBlock: OJICUG_clean_linker_0, # of connection points: 2
#     Edge 56, Type (0, 0), BuildingBlock: OJICUG_clean_linker_0, # of connection points: 2
#     Edge 57, Type (0, 0), BuildingBlock: OJICUG_clean_linker_0, # of connection points: 2
#     Edge 58, Type (0, 0), BuildingBlock: OJICUG_clean_linker_0, # of connection points: 2
#     Edge 59, Type (0, 0), BuildingBlock: OJICUG_clean_linker_0, # of connection points: 2
#     Edge 60, Type (0, 0), BuildingBlock: OJICUG_clean_linker_0, # of connection points: 2
#     Edge 61, Type (0, 0), BuildingBlock: OJICUG_clean_linker_0, # of connection points: 2
#     Edge 62, Type (0, 0), BuildingBlock: OJICUG_clean_linker_0, # of connection points: 2
#     Edge 63, Type (0, 0), BuildingBlock: OJICUG_clean_linker_0, # of connection points: 2
# Relax obj value: 0.277
# Max RMSD: 0.215
# Mean RMSD: 0.215
data_MOF--net-whk--node1-OJICUG_clean_sbu_0--edge1-OJICUG_clean_linker_0
_symmetry_space_group_name_H-M    P1
_symmetry_Int_Tables_number       1
_symmetry_cell_setting            triclinic
loop_
_symmetry_equiv_pos_as_xyz
'x, y, z'
_cell_length_a     27.66527
_cell_length_b     27.668285
_cell_length_c     39.806337
_cell_angle_alpha  89.898464
_cell_angle_beta   89.92076
_cell_angle_gamma 89.91807
loop_
_atom_site_label
_atom_site_type_symbol
_atom_site_fract_x
_atom_site_fract_y
_atom_site_fract_z
_atom_type_partial_charge
Sc0 Sc 0.58325 0.13538 0.39891 0.0
Sc1 Sc 0.5857 0.2534 0.36999 0.0
Sc2 Sc 0.50373 0.21847 0.43179 0.0
O3 O 0.55539 0.20249 0.39919 0.0
C4 C 0.47241 0.11915 0.3954 0.0
C5 C 0.59431 0.16807 0.3216 0.0
C6 C 0.47737 0.29235 0.37655 0.0
C7 C 0.66854 0.20327 0.40218 0.0
C8 C 0.56029 0.14297 0.47553 0.0
C9 C 0.57642 0.30775 0.43985 0.0
O10 O 0.51381 0.10809 0.38319 0.0
O11 O 0.57365 0.20941 0.32499 0.0
O12 O 0.46364 0.256 0.39368 0.0
O13 O 0.64974 0.16757 0.4175 0.0
O14 O 0.54221 0.18502 0.47339 0.0
O15 O 0.60224 0.2975 0.41412 0.0
O16 O 0.56556 0.11666 0.44984 0.0
O17 O 0.65242 0.2156 0.37383 0.0
O18 O 0.53769 0.28503 0.44706 0.0
O19 O 0.60517 0.14187 0.34688 0.0
O20 O 0.46607 0.15301 0.41695 0.0
O21 O 0.52039 0.2962 0.36536 0.0
Sc22 Sc 0.3593 0.57789 0.41363 0.0
Sc23 Sc 0.2447 0.5723 0.37984 0.0
Sc24 Sc 0.27702 0.49836 0.44728 0.0
O25 O 0.29349 0.54742 0.41278 0.0
C26 C 0.3775 0.46704 0.41309 0.0
C27 C 0.33391 0.58303 0.33513 0.0
C28 C 0.21077 0.46272 0.38871 0.0
C29 C 0.28711 0.65971 0.4119 0.0
C30 C 0.34835 0.5597 0.49073 0.0
C31 C 0.18368 0.56708 0.44768 0.0
O32 O 0.38827 0.50811 0.40017 0.0
O33 O 0.29397 0.55978 0.3377 0.0
O34 O 0.24265 0.45293 0.41074 0.0
O35 O 0.32287 0.6442 0.42898 0.0
O36 O 0.30664 0.54121 0.48813 0.0
O37 O 0.19431 0.58925 0.42045 0.0
O38 O 0.37583 0.56352 0.46547 0.0
O39 O 0.27785 0.6413 0.38366 0.0
O40 O 0.20848 0.5317 0.45894 0.0
O41 O 0.35666 0.59751 0.36099 0.0
O42 O 0.34457 0.46155 0.43553 0.0
O43 O 0.20739 0.50413 0.37482 0.0
Sc44 Sc 0.92447 0.35714 0.42116 0.0
Sc45 Sc 0.91345 0.23843 0.39376 0.0
Sc46 Sc -0.00462 0.26891 0.45668 0.0
O47 O 0.94538 0.28744 0.42302 0.0
C48 C 0.03543 0.36147 0.41621 0.0
C49 C 0.8988 0.32596 0.34607 0.0
C50 C 0.02295 0.2021 0.39445 0.0
C51 C 0.83064 0.29939 0.4294 0.0
C52 C 0.94329 0.34965 0.49681 0.0
C53 C 0.92314 0.17957 0.46267 0.0
O54 O -0.00458 0.37405 0.40267 0.0
O55 O 0.9173 0.2839 0.34897 0.0
O56 O 0.0342 0.22681 0.42029 0.0
O57 O 0.85523 0.33505 0.4403 0.0
O58 O 0.95612 0.30575 0.49636 0.0
O59 O 0.90249 0.18801 0.43474 0.0
O60 O 0.94863 0.37548 0.4709 0.0
O61 O 0.84539 0.26953 0.40721 0.0
O62 O 0.95807 0.20495 0.47353 0.0
O63 O 0.89509 0.35402 0.37106 0.0
O64 O 0.03801 0.33132 0.44071 0.0
O65 O 0.98089 0.20279 0.38123 0.0
Sc66 Sc 0.22691 0.98957 0.44178 0.0
Sc67 Sc 0.2585 0.89991 0.38418 0.0
Sc68 Sc 0.13765 0.92155 0.40567 0.0
O69 O 0.20837 0.93833 0.40914 0.0
C70 C 0.14217 0.9424 0.48113 0.0
C71 C 0.31132 0.91294 0.45472 0.0
C72 C 0.18985 0.82483 0.41934 0.0
C73 C 0.30127 0.00761 0.3827 0.0
C74 C 0.1362 0.03205 0.39985 0.0
C75 C 0.17458 0.89138 0.33215 0.0
O76 O 0.18643 0.95398 0.48143 0.0
O77 O 0.30274 0.88823 0.42849 0.0
O78 O 0.15478 0.85235 0.42738 0.0
O79 O 0.27235 0.02364 0.40508 0.0
O80 O 0.12343 0.99243 0.38606 0.0
O81 O 0.21886 0.90259 0.33679 0.0
O82 O 0.16708 0.03402 0.4238 0.0
O83 O 0.3009 0.96389 0.37227 0.0
O84 O 0.14349 0.89277 0.35558 0.0
O85 O 0.28845 0.95153 0.46159 0.0
O86 O 0.11765 0.94758 0.45464 0.0
O87 O 0.22124 0.83498 0.39698 0.0
Sc88 Sc 0.06588 0.84978 0.13552 0.0
Sc89 Sc 0.08739 0.72894 0.15704 0.0
Sc90 Sc -0.0022 0.76061 0.09939 0.0
O91 O 0.04902 0.7791 0.13206 0.0
C92 C 0.95535 0.85142 0.14119 0.0
C93 C 0.09573 0.81274 0.20911 0.0
C94 C 0.97969 0.68609 0.15831 0.0
C95 C 0.16256 0.7975 0.12203 0.0
C96 C 0.04511 0.84526 0.06002 0.0
C97 C 0.07447 0.67622 0.08651 0.0
O98 O -0.00504 0.86414 0.15503 0.0
O99 O 0.08446 0.76849 0.20445 0.0
O100 O 0.96361 0.71525 0.13609 0.0
O101 O 0.13508 0.83254 0.11388 0.0
O102 O 0.03348 0.80102 0.05975 0.0
O103 O 0.09928 0.68489 0.11269 0.0
O104 O 0.04001 0.86982 0.0865 0.0
O105 O 0.15237 0.7663 0.14451 0.0
O106 O 0.0358 0.699 0.07968 0.0
O107 O 0.09451 0.84383 0.18567 0.0
O108 O 0.95339 0.8205 0.11727 0.0
O109 O 0.02343 0.68638 0.16872 0.0
Sc110 Sc 0.71868 0.99221 0.08358 0.0
Sc111 Sc 0.74906 0.07443 0.14632 0.0
Sc112 Sc 0.63036 0.06314 0.11891 0.0
O113 O 0.70009 0.04232 0.11712 0.0
C114 C 0.63788 0.04403 0.04333 0.0
C115 C 0.80796 0.06449 0.07745 0.0
C116 C 0.688 0.15699 0.11042 0.0
C117 C 0.78546 0.96496 0.14593 0.0
C118 C 0.62617 0.95223 0.12414 0.0
C119 C 0.66147 0.08922 0.19393 0.0
O120 O 0.68181 0.03129 0.0438 0.0
O121 O 0.7995 0.08524 0.10534 0.0
O122 O 0.65236 0.13232 0.09957 0.0
O123 O 0.76081 0.95359 0.12008 0.0
O124 O 0.61355 0.99228 0.13759 0.0
O125 O 0.70356 0.07076 0.19109 0.0
O126 O 0.6563 0.94958 0.09963 0.0
O127 O 0.78473 0.00708 0.15905 0.0
O128 O 0.63342 0.0928 0.16892 0.0
O129 O 0.7826 0.02951 0.06666 0.0
O130 O 0.61207 0.03865 0.06924 0.0
O131 O 0.71789 0.14237 0.13265 0.0
Sc132 Sc 0.48925 0.7106 0.0936 0.0
Sc133 Sc 0.41554 0.74295 0.16114 0.0
Sc134 Sc 0.40992 0.62831 0.12745 0.0
O135 O 0.44034 0.69413 0.1282 0.0
C136 C 0.42779 0.63917 0.05031 0.0
C137 C 0.42046 0.80389 0.09325 0.0
C138 C 0.32802 0.70042 0.12926 0.0
C139 C 0.52509 0.77693 0.15205 0.0
C140 C 0.52078 0.61017 0.12779 0.0
C141 C 0.40499 0.6538 0.20594 0.0
O142 O 0.44626 0.68089 0.05284 0.0
O143 O 0.3984 0.79326 0.12053 0.0
O144 O 0.3435 0.66466 0.11219 0.0
O145 O 0.5348 0.74504 0.13004 0.0
O146 O 0.47978 0.59939 0.1408 0.0
O147 O 0.42821 0.69375 0.20332 0.0
O148 O 0.52616 0.6431 0.10533 0.0
O149 O 0.48373 0.78029 0.16602 0.0
O150 O 0.3905 0.631 0.18011 0.0
O151 O 0.4558 0.7791 0.08194 0.0
O152 O 0.42409 0.61173 0.07561 0.0
O153 O 0.34654 0.70976 0.15746 0.0
Sc154 Sc 0.7693 0.48358 0.10819 0.0
Sc155 Sc 0.73441 0.40155 0.16997 0.0
Sc156 Sc 0.85237 0.40393 0.14098 0.0
O157 O 0.78528 0.43186 0.14075 0.0
C158 C 0.8447 0.42706 0.06439 0.0
C159 C 0.6799 0.41103 0.10015 0.0
C160 C 0.78437 0.31876 0.13763 0.0
C161 C 0.69558 0.50995 0.16358 0.0
C162 C 0.86863 0.51475 0.14464 0.0
C163 C 0.81986 0.39276 0.21829 0.0
O164 O 0.80266 0.44515 0.06656 0.0
O165 O 0.69013 0.3852 0.12588 0.0
O166 O 0.82009 0.33753 0.12231 0.0
O167 O 0.7318 0.52366 0.14631 0.0
O168 O 0.8797 0.47331 0.15679 0.0
O169 O 0.77853 0.41347 0.21493 0.0
O170 O 0.83481 0.52116 0.12307 0.0
O171 O 0.69175 0.46691 0.17474 0.0
O172 O 0.84597 0.38184 0.19299 0.0
O173 O 0.70269 0.4497 0.09291 0.0
O174 O 0.87106 0.42178 0.09007 0.0
O175 O 0.77211 0.3348 0.16601 0.0
Sc176 Sc 0.48379 0.76891 0.60877 0.0
Sc177 Sc 0.40182 0.73397 0.67057 0.0
Sc178 Sc 0.40427 0.85199 0.64165 0.0
O179 O 0.43213 0.78488 0.64137 0.0
C180 C 0.51511 0.86823 0.64516 0.0
C181 C 0.51016 0.69503 0.66401 0.0
C182 C 0.39321 0.81931 0.71896 0.0
C183 C 0.41111 0.67962 0.60072 0.0
C184 C 0.42723 0.8444 0.56503 0.0
C185 C 0.31898 0.7841 0.6384 0.0
O186 O 0.52145 0.83437 0.62362 0.0
O187 O 0.46714 0.69118 0.6752 0.0
O188 O 0.38235 0.8455 0.69369 0.0
O189 O 0.44984 0.70234 0.5935 0.0
O190 O 0.42195 0.8707 0.59072 0.0
O191 O 0.3351 0.77176 0.66674 0.0
O192 O 0.44531 0.80235 0.56717 0.0
O193 O 0.38529 0.68987 0.62645 0.0
O194 O 0.33778 0.81979 0.62306 0.0
O195 O 0.52389 0.73139 0.64689 0.0
O196 O 0.47371 0.87929 0.65737 0.0
O197 O 0.41388 0.77796 0.71558 0.0
Sc198 Sc 0.62821 0.40948 0.62695 0.0
Sc199 Sc 0.74282 0.41505 0.66073 0.0
Sc200 Sc 0.71051 0.489 0.5933 0.0
O201 O 0.69402 0.43994 0.62779 0.0
C202 C 0.63918 0.42766 0.54984 0.0
C203 C 0.70038 0.32764 0.62869 0.0
C204 C 0.80384 0.42026 0.5929 0.0
C205 C 0.6536 0.40436 0.70544 0.0
C206 C 0.61002 0.52033 0.62747 0.0
C207 C 0.77676 0.52463 0.65186 0.0
O208 O 0.61169 0.42384 0.5751 0.0
O209 O 0.70964 0.34606 0.65692 0.0
O210 O 0.77905 0.45565 0.58164 0.0
O211 O 0.63085 0.38988 0.67958 0.0
O212 O 0.64295 0.52581 0.60503 0.0
O213 O 0.78014 0.48321 0.66574 0.0
O214 O 0.59925 0.47927 0.64039 0.0
O215 O 0.69355 0.42759 0.70287 0.0
O216 O 0.74487 0.53442 0.62985 0.0
O217 O 0.66464 0.34316 0.6116 0.0
O218 O 0.68089 0.44615 0.55244 0.0
O219 O 0.79319 0.39808 0.62012 0.0
Sc220 Sc 0.06305 0.63023 0.61941 0.0
Sc221 Sc 0.07407 0.74894 0.6468 0.0
Sc222 Sc 0.99214 0.71844 0.58388 0.0
O223 O 0.04214 0.69992 0.61755 0.0
C224 C 0.04422 0.63769 0.54376 0.0
C225 C 0.15688 0.68798 0.61116 0.0
C226 C 0.06439 0.80778 0.57788 0.0
C227 C 0.08871 0.66142 0.69449 0.0
C228 C 0.9521 0.62589 0.62436 0.0
C229 C 0.96457 0.78528 0.6461 0.0
O230 O 0.03888 0.61187 0.56967 0.0
O231 O 0.14212 0.71782 0.63336 0.0
O232 O 0.02945 0.7824 0.56702 0.0
O233 O 0.09243 0.63336 0.66951 0.0
O234 O 0.9495 0.65604 0.59986 0.0
O235 O 0.00663 0.78459 0.65932 0.0
O236 O 0.99211 0.61331 0.6379 0.0
O237 O 0.07021 0.70348 0.69159 0.0
O238 O 0.95331 0.76056 0.62026 0.0
O239 O 0.13229 0.65231 0.60026 0.0
O240 O 0.03139 0.68159 0.5442 0.0
O241 O 0.08504 0.79934 0.60581 0.0
Sc242 Sc 0.84987 0.06583 0.63489 0.0
Sc243 Sc 0.72902 0.08746 0.65637 0.0
Sc244 Sc 0.76062 -0.00219 0.59878 0.0
O245 O 0.77916 0.04905 0.63142 0.0
C246 C 0.84535 0.04496 0.55943 0.0
C247 C 0.79768 0.16255 0.62123 0.0
C248 C 0.67621 0.07443 0.58584 0.0
C249 C 0.81293 0.09599 0.70841 0.0
C250 C 0.85132 0.95533 0.64072 0.0
C251 C 0.68625 0.97977 0.65786 0.0
O252 O 0.86988 0.0398 0.58592 0.0
O253 O 0.76628 0.15239 0.64358 0.0
O254 O 0.69908 0.03584 0.57897 0.0
O255 O 0.84403 0.09461 0.68499 0.0
O256 O 0.82045 0.95336 0.61676 0.0
O257 O 0.68662 0.02349 0.66828 0.0
O258 O 0.86409 -0.00506 0.65451 0.0
O259 O 0.76866 0.08478 0.70376 0.0
O260 O 0.71518 0.96374 0.63549 0.0
O261 O 0.83274 0.13503 0.61318 0.0
O262 O 0.8011 0.03339 0.55913 0.0
O263 O 0.68479 0.09915 0.61207 0.0
Sc264 Sc 0.92163 0.13762 0.90504 0.0
Sc265 Sc 0.9001 0.25846 0.88351 0.0
Sc266 Sc 0.98971 0.22681 0.94116 0.0
O267 O 0.93849 0.2083 0.9085 0.0
C268 C 0.94241 0.14216 0.98054 0.0
C269 C 0.82496 0.1899 0.91853 0.0
C270 C 0.91302 0.31118 0.95404 0.0
C271 C 0.89178 0.17466 0.83145 0.0
C272 C 0.03215 0.13599 0.89937 0.0
C273 C 0.0078 0.30133 0.88224 0.0
O274 O 0.94751 0.11759 0.95406 0.0
O275 O 0.83513 0.22108 0.89603 0.0
O276 O 0.9517 0.28842 0.96086 0.0
O277 O 0.89299 0.14357 0.8549 0.0
O278 O 0.03411 0.1669 0.92329 0.0
O279 O 0.96406 0.30103 0.87184 0.0
O280 O 0.99255 0.12327 0.88553 0.0
O281 O 0.90306 0.2189 0.8361 0.0
O282 O 0.02389 0.27215 0.90446 0.0
O283 O 0.85243 0.15487 0.92669 0.0
O284 O 0.95402 0.1864 0.9808 0.0
O285 O 0.88821 0.3025 0.92787 0.0
Sc286 Sc 0.35715 0.92426 0.92165 0.0
Sc287 Sc 0.23845 0.91299 0.89423 0.0
Sc288 Sc 0.26883 -0.0048 0.95698 0.0
O289 O 0.28742 0.94509 0.92343 0.0
C290 C 0.34962 0.94337 0.99723 0.0
C291 C 0.29949 0.83043 0.93015 0.0
C292 C 0.17954 0.92292 0.96311 0.0
C293 C 0.32605 0.89819 0.84663 0.0
C294 C 0.36134 0.03518 0.91643 0.0
C295 C 0.20205 0.02245 0.89463 0.0
O296 O 0.37544 0.94874 0.97133 0.0
O297 O 0.26962 0.84505 0.9079 0.0
O298 O 0.2049 0.9579 0.9739 0.0
O299 O 0.3541 0.89462 0.87164 0.0
O300 O 0.33121 0.03783 0.94093 0.0
O301 O 0.20278 0.98034 0.88151 0.0
O302 O 0.37397 -0.00487 0.90297 0.0
O303 O 0.28396 0.91665 0.84947 0.0
O304 O 0.2267 0.03382 0.92048 0.0
O305 O 0.33514 0.85509 0.94098 0.0
O306 O 0.3057 0.95612 0.99676 0.0
O307 O 0.188 0.90218 0.93522 0.0
Sc308 Sc 0.57758 0.35911 0.91313 0.0
Sc309 Sc 0.57196 0.24447 0.87944 0.0
Sc310 Sc 0.49825 0.27681 0.94697 0.0
O311 O 0.54716 0.29328 0.91238 0.0
C312 C 0.5597 0.34824 0.99027 0.0
C313 C 0.65949 0.287 0.91131 0.0
C314 C 0.56704 0.18352 0.94732 0.0
C315 C 0.58251 0.33362 0.83464 0.0
C316 C 0.46672 0.37725 0.91279 0.0
C317 C 0.46242 0.21048 0.88852 0.0
O318 O 0.56341 0.37568 0.96498 0.0
O319 O 0.64097 0.27766 0.88312 0.0
O320 O 0.53169 0.20831 0.95863 0.0
O321 O 0.597 0.35642 0.86047 0.0
O322 O 0.46135 0.34432 0.93525 0.0
O323 O 0.50378 0.20712 0.87456 0.0
O324 O 0.50773 0.38802 0.89978 0.0
O325 O 0.55929 0.29367 0.83726 0.0
O326 O 0.4527 0.24239 0.91053 0.0
O327 O 0.644 0.32275 0.92838 0.0
O328 O 0.54123 0.30651 0.98774 0.0
O329 O 0.58911 0.19416 0.92005 0.0
Sc330 Sc 0.2182 0.50381 0.93237 0.0
Sc331 Sc 0.2531 0.58585 0.8706 0.0
Sc332 Sc 0.13513 0.58347 0.89959 0.0
O333 O 0.20222 0.55554 0.89982 0.0
C334 C 0.11886 0.47266 0.89592 0.0
C335 C 0.29192 0.47746 0.87699 0.0
C336 C 0.16765 0.59463 0.82228 0.0
C337 C 0.30759 0.57637 0.94043 0.0
C338 C 0.14279 0.56032 0.97617 0.0
C339 C 0.20312 0.66865 0.90293 0.0
O340 O 0.15269 0.46623 0.91748 0.0
O341 O 0.29576 0.5205 0.86584 0.0
O342 O 0.14154 0.60556 0.84757 0.0
O343 O 0.2848 0.53769 0.94766 0.0
O344 O 0.11643 0.56562 0.95049 0.0
O345 O 0.21539 0.65261 0.87456 0.0
O346 O 0.18482 0.54223 0.974 0.0
O347 O 0.29736 0.6022 0.9147 0.0
O348 O 0.16741 0.64987 0.91825 0.0
O349 O 0.25569 0.46374 0.89425 0.0
O350 O 0.10779 0.5141 0.88377 0.0
O351 O 0.20898 0.57393 0.82564 0.0
C352 C 0.65098 0.11744 0.28722 0.0
C353 C 0.61166 0.15012 0.28833 0.0
H354 H 0.69763 0.07303 0.25714 0.0
C355 C 0.58947 0.16314 0.25798 0.0
H356 H 0.66948 0.10684 0.31004 0.0
C357 C 0.60544 0.14293 0.2275 0.0
C358 C 0.64453 0.10987 0.22655 0.0
H359 H 0.55925 0.18807 0.25785 0.0
H360 H 0.58724 0.15354 0.20457 0.0
C361 C 0.66739 0.09793 0.25683 0.0
C362 C 0.40673 0.65289 0.26954 0.0
C363 C 0.38865 0.63473 0.23924 0.0
H364 H 0.40424 0.65056 0.32314 0.0
C365 C 0.35283 0.59826 0.24073 0.0
H366 H 0.43412 0.68083 0.26949 0.0
C367 C 0.33507 0.58108 0.27155 0.0
C368 C 0.35306 0.59933 0.30185 0.0
H369 H 0.33762 0.58334 0.21795 0.0
H370 H 0.30721 0.55362 0.27159 0.0
C371 C 0.38946 0.63523 0.30036 0.0
C372 C 0.84496 0.38176 0.31241 0.0
C373 C 0.8782 0.34283 0.31341 0.0
H374 H 0.79965 0.42773 0.28201 0.0
C375 C 0.89033 0.32006 0.28315 0.0
H376 H 0.8342 0.3999 0.33533 0.0
C377 C 0.87081 0.33638 0.25273 0.0
C378 C 0.83792 0.37553 0.25158 0.0
H379 H 0.91538 0.28994 0.28287 0.0
H380 H 0.88155 0.31794 0.22992 0.0
C381 C 0.82474 0.39764 0.28191 0.0
C382 C 0.11545 0.89296 0.28483 0.0
C383 C 0.1574 0.87312 0.29921 0.0
H384 H 0.06321 0.88929 0.24509 0.0
C385 C 0.17733 0.83113 0.28485 0.0
H386 H 0.09872 0.92468 0.29578 0.0
C387 C 0.15556 0.80945 0.25668 0.0
C388 C 0.11398 0.82988 0.24207 0.0
H389 H 0.20888 0.81432 0.29598 0.0
H390 H 0.172 0.77758 0.24575 0.0
C391 C 0.09462 0.8722 0.25623 0.0
C392 C 0.32012 0.88944 0.78373 0.0
C393 C 0.34299 0.87753 0.81401 0.0
H394 H 0.31801 0.8805 0.73052 0.0
C395 C 0.38209 0.84449 0.81306 0.0
H396 H 0.28985 0.91432 0.78341 0.0
C397 C 0.39806 0.82427 0.78258 0.0
C398 C 0.37586 0.83726 0.75224 0.0
H399 H 0.4003 0.8339 0.83599 0.0
H400 H 0.42829 0.79936 0.78272 0.0
C401 C 0.33652 0.86993 0.75334 0.0
C402 C 0.63469 0.38914 0.79984 0.0
C403 C 0.59886 0.35269 0.80134 0.0
H404 H 0.68031 0.43377 0.76898 0.0
C405 C 0.58076 0.33452 0.77104 0.0
H406 H 0.6499 0.40406 0.82262 0.0
C407 C 0.59804 0.35218 0.74022 0.0
C408 C 0.63444 0.38807 0.73873 0.0
H409 H 0.55337 0.3066 0.77109 0.0
H410 H 0.58325 0.33685 0.71744 0.0
C411 C 0.65244 0.40632 0.76903 0.0
C412 C 0.09718 0.66733 0.75741 0.0
C413 C 0.10932 0.64455 0.72716 0.0
H414 H 0.10596 0.66945 0.81064 0.0
C415 C 0.14256 0.60562 0.72816 0.0
H416 H 0.07214 0.69745 0.75769 0.0
C417 C 0.16278 0.58975 0.75866 0.0
C418 C 0.14959 0.61186 0.78899 0.0
H419 H 0.15332 0.58749 0.70524 0.0
H420 H 0.18787 0.55966 0.75856 0.0
C421 C 0.1167 0.65101 0.78784 0.0
C422 C 0.81027 0.15635 0.75564 0.0
C423 C 0.83011 0.11427 0.74135 0.0
H424 H 0.81568 0.20996 0.7947 0.0
C425 C 0.87197 0.09434 0.75579 0.0
H426 H 0.77879 0.17322 0.74447 0.0
C427 C 0.89281 0.11509 0.78439 0.0
C428 C 0.87354 0.1575 0.79849 0.0
H429 H 0.88863 0.06254 0.74488 0.0
H430 H 0.92415 0.09794 0.79557 0.0
C431 C 0.83205 0.17802 0.78381 0.0
C432 C 0.38334 0.11456 0.38728 0.0
C433 C 0.4289 0.09232 0.38459 0.0
H434 H 0.30673 0.10554 0.38698 0.0
C435 C 0.43151 0.04423 0.37347 0.0
H436 H 0.38012 0.15207 0.39476 0.0
C437 C 0.38906 0.01743 0.36876 0.0
C438 C 0.34352 0.0385 0.375 0.0
H439 H 0.46616 0.0264 0.37068 0.0
H440 H 0.39216 0.97925 0.36318 0.0
C441 C 0.34118 0.08806 0.38237 0.0
C442 C 0.38008 0.37739 0.40608 0.0
C443 C 0.40154 0.42275 0.40036 0.0
H444 H 0.38573 0.30081 0.40144 0.0
C445 C 0.44441 0.42489 0.38145 0.0
H446 H 0.34621 0.37436 0.41959 0.0
C447 C 0.46712 0.38229 0.37071 0.0
C448 C 0.44721 0.33672 0.37849 0.0
H449 H 0.46134 0.4593 0.376 0.0
H450 H 0.50168 0.38511 0.35805 0.0
C451 C 0.4024 0.33505 0.39511 0.0
C452 C 0.12577 0.36332 0.41356 0.0
C453 C 0.08108 0.38311 0.4038 0.0
H454 H 0.20244 0.37161 0.41486 0.0
C455 C 0.08082 0.42382 0.38264 0.0
H456 H 0.12743 0.33105 0.42896 0.0
C457 C 0.12414 0.44695 0.3742 0.0
C458 C 0.16856 0.42982 0.3868 0.0
H459 H 0.04707 0.43937 0.37405 0.0
H460 H 0.12228 0.48035 0.36002 0.0
C461 C 0.16898 0.38623 0.40501 0.0
C462 C 0.13169 0.12213 0.39967 0.0
C463 C 0.11177 0.07755 0.39006 0.0
H464 H 0.11969 0.19761 0.40707 0.0
C465 C 0.06653 0.07709 0.37405 0.0
H466 H 0.16711 0.12394 0.41118 0.0
C467 C 0.03932 0.11963 0.37146 0.0
C468 C 0.057 0.16317 0.3849 0.0
H469 H 0.05053 0.0434 0.36586 0.0
H470 H 0.00276 0.11731 0.3619 0.0
C471 C 0.10468 0.16452 0.39699 0.0
C472 C 0.86528 0.85607 0.14124 0.0
C473 C 0.90987 0.87599 0.15084 0.0
H474 H 0.78983 0.86815 0.13369 0.0
C475 C 0.91038 0.92135 0.16668 0.0
H476 H 0.86344 0.82057 0.12988 0.0
C477 C 0.86787 0.94865 0.16908 0.0
C478 C 0.82433 0.93093 0.15565 0.0
H479 H 0.94408 0.93734 0.17484 0.0
H480 H 0.87023 0.98527 0.1785 0.0
C481 C 0.82293 0.88317 0.14375 0.0
C482 C 0.54084 0.86361 0.16639 0.0
C483 C 0.55797 0.81916 0.15386 0.0
H484 H 0.54836 0.94067 0.16639 0.0
C485 C 0.60152 0.81871 0.13561 0.0
H486 H 0.50747 0.86549 0.18059 0.0
C487 C 0.62439 0.8619 0.12697 0.0
C488 C 0.60459 0.9066 0.13666 0.0
H489 H 0.61615 0.78522 0.12582 0.0
H490 H 0.65663 0.86021 0.11154 0.0
C491 C 0.56393 0.90691 0.15785 0.0
C492 C 0.61048 0.60749 0.13455 0.0
C493 C 0.56514 0.58607 0.14039 0.0
H494 H 0.6871 0.60171 0.1389 0.0
C495 C 0.56308 0.54316 0.15926 0.0
H496 H 0.61346 0.6414 0.12106 0.0
C497 C 0.60572 0.52036 0.16982 0.0
C498 C 0.65127 0.54021 0.16189 0.0
H499 H 0.52868 0.52627 0.16481 0.0
H500 H 0.60295 0.48576 0.18243 0.0
C501 C 0.65288 0.58508 0.14533 0.0
C502 C 0.89935 0.64594 0.15825 0.0
C503 C 0.94888 0.64367 0.16575 0.0
H504 H 0.8355 0.60695 0.14553 0.0
C505 C 0.97006 0.59813 0.17182 0.0
H506 H 0.88178 0.68038 0.15377 0.0
C507 C 0.94339 0.55566 0.16685 0.0
C508 C 0.89534 0.55824 0.15562 0.0
H509 H 0.00822 0.59508 0.17749 0.0
H510 H 0.96131 0.52104 0.16955 0.0
C511 C 0.87299 0.60376 0.15308 0.0
C512 C 0.59846 0.96995 0.67179 0.0
C513 C 0.644 0.94888 0.66556 0.0
H514 H 0.52136 0.96099 0.66987 0.0
C515 C 0.64634 0.89932 0.65819 0.0
H516 H 0.59536 0.00814 0.67737 0.0
C517 C 0.60418 0.87282 0.65328 0.0
C518 C 0.55862 0.89506 0.65597 0.0
H519 H 0.68079 0.88184 0.6536 0.0
H520 H 0.6074 0.83531 0.64581 0.0
C521 C 0.55601 0.94315 0.66709 0.0
C522 C 0.54311 0.56249 0.65912 0.0
C523 C 0.58597 0.56462 0.6402 0.0
H524 H 0.48585 0.60226 0.68252 0.0
C525 C 0.60743 0.60998 0.63448 0.0
H526 H 0.52619 0.52808 0.66458 0.0
C527 C 0.58512 0.65233 0.64544 0.0
C528 C 0.54031 0.65066 0.66208 0.0
H529 H 0.6413 0.61301 0.62095 0.0
H530 H 0.60178 0.68657 0.6391 0.0
C531 C 0.52041 0.60509 0.66986 0.0
C532 C 0.86175 0.62403 0.62702 0.0
C533 C 0.90644 0.60424 0.63677 0.0
H534 H 0.78508 0.61575 0.62572 0.0
C535 C 0.90671 0.56353 0.65793 0.0
H536 H 0.86009 0.65631 0.61162 0.0
C537 C 0.8634 0.54039 0.66637 0.0
C538 C 0.81897 0.55752 0.65377 0.0
H539 H 0.94046 0.54797 0.66651 0.0
H540 H 0.86526 0.50699 0.68054 0.0
C541 C 0.81855 0.60112 0.63556 0.0
C542 C 0.85583 0.86525 0.64089 0.0
C543 C 0.87576 0.90983 0.6505 0.0
H544 H 0.86783 0.78977 0.63349 0.0
C545 C 0.921 0.91029 0.66651 0.0
H546 H 0.82041 0.86344 0.62939 0.0
C547 C 0.94821 0.86775 0.66909 0.0
C548 C 0.93052 0.8242 0.65565 0.0
H549 H 0.937 0.94397 0.6747 0.0
H550 H 0.98477 0.87006 0.67865 0.0
C551 C 0.88284 0.82286 0.64357 0.0
C552 C 0.07713 0.06607 0.87387 0.0
C553 C 0.07764 0.11142 0.88972 0.0
H554 H 0.11728 0.00215 0.86205 0.0
C555 C 0.12222 0.13134 0.89932 0.0
H556 H 0.04343 0.05008 0.8657 0.0
C557 C 0.16458 0.10423 0.89681 0.0
C558 C 0.16318 0.05648 0.88491 0.0
H559 H 0.12407 0.16684 0.91069 0.0
H560 H 0.19767 0.11926 0.90688 0.0
C561 C 0.11964 0.03877 0.87147 0.0
C562 C 0.36313 0.12551 0.9136 0.0
C563 C 0.38293 0.0808 0.90391 0.0
H564 H 0.37136 0.20218 0.91474 0.0
C565 C 0.4236 0.0805 0.88272 0.0
H566 H 0.33088 0.1272 0.92902 0.0
C567 C 0.44668 0.1238 0.87418 0.0
C568 C 0.42955 0.16825 0.88671 0.0
H569 H 0.43916 0.04674 0.87418 0.0
H570 H 0.48005 0.12192 0.85998 0.0
C571 C 0.38599 0.1687 0.90495 0.0
C572 C 0.42443 0.44425 0.88132 0.0
C573 C 0.42237 0.40134 0.90019 0.0
H574 H 0.38456 0.50165 0.85814 0.0
C575 C 0.37703 0.37992 0.90602 0.0
H576 H 0.45883 0.46115 0.87577 0.0
C577 C 0.33462 0.40234 0.89524 0.0
C578 C 0.33624 0.4472 0.87868 0.0
H579 H 0.37405 0.34602 0.91952 0.0
H580 H 0.3004 0.38571 0.90167 0.0
C581 C 0.38179 0.46705 0.87075 0.0
C582 C 0.04409 0.43175 0.87371 0.0
C583 C 0.09215 0.42917 0.88493 0.0
H584 H 0.97926 0.39234 0.86309 0.0
C585 C 0.1145 0.38365 0.88746 0.0
H586 H 0.02618 0.46638 0.87103 0.0
C587 C 0.08814 0.34147 0.88228 0.0
C588 C 0.0386 0.34374 0.8748 0.0
H589 H 0.15199 0.38046 0.895 0.0
H590 H 0.10571 0.30703 0.88676 0.0
C591 C 0.01743 0.38928 0.86874 0.0
C592 C 0.73068 0.22167 0.44622 0.0
C593 C 0.70311 0.23595 0.41844 0.0
H594 H 0.79493 0.23565 0.47443 0.0
C595 C 0.71011 0.28232 0.40459 0.0
H596 H 0.72526 0.18667 0.45786 0.0
C597 C 0.74775 0.31133 0.41545 0.0
C598 C 0.78055 0.29312 0.43878 0.0
H599 H 0.6885 0.29523 0.38374 0.0
H600 H 0.7558 0.34406 0.40149 0.0
C601 C 0.76947 0.25042 0.45644 0.0
C602 C 0.20729 0.69963 0.40916 0.0
C603 C 0.25305 0.69616 0.42454 0.0
H604 H 0.14614 0.7442 0.3991 0.0
C605 C 0.26588 0.72976 0.44919 0.0
H606 H 0.19556 0.67354 0.39065 0.0
C607 C 0.23667 0.77043 0.4541 0.0
C608 C 0.19519 0.77735 0.43417 0.0
H609 H 0.30036 0.7273 0.46194 0.0
H610 H 0.25049 0.79977 0.46932 0.0
C611 C 0.17795 0.73946 0.41466 0.0
C612 C 0.25766 0.72136 0.09217 0.0
C613 C 0.29139 0.73435 0.11669 0.0
H614 H 0.18748 0.73653 0.07221 0.0
C615 C 0.28791 0.78013 0.13201 0.0
H616 H 0.26011 0.68685 0.07947 0.0
C617 C 0.24796 0.80935 0.1266 0.0
C618 C 0.21 0.79199 0.10719 0.0
H619 H 0.31412 0.79198 0.15042 0.0
H620 H 0.24325 0.8412 0.14211 0.0
C621 C 0.21689 0.75045 0.08733 0.0
C622 C 0.76574 0.2568 0.0935 0.0
C623 C 0.75158 0.28431 0.12133 0.0
H624 H 0.75158 0.19266 0.06524 0.0
C625 C 0.70521 0.27737 0.1352 0.0
H626 H 0.80074 0.26218 0.08186 0.0
C627 C 0.67608 0.23985 0.1243 0.0
C628 C 0.6942 0.20705 0.10094 0.0
H629 H 0.69239 0.29894 0.15608 0.0
H630 H 0.64336 0.23184 0.13826 0.0
C631 C 0.73689 0.2181 0.08326 0.0
C632 C 0.21803 0.73694 0.58415 0.0
C633 C 0.20698 0.69423 0.6018 0.0
H634 H 0.26222 0.80069 0.58272 0.0
C635 C 0.23979 0.67602 0.62513 0.0
H636 H 0.19256 0.75167 0.56616 0.0
C637 C 0.27743 0.70503 0.63598 0.0
C638 C 0.28441 0.75141 0.62213 0.0
H639 H 0.23174 0.64328 0.63907 0.0
H640 H 0.29905 0.69213 0.65682 0.0
C641 C 0.25683 0.76568 0.59435 0.0
C642 C 0.80954 0.24789 0.62594 0.0
C643 C 0.79232 0.21002 0.60639 0.0
H644 H 0.79192 0.31378 0.64998 0.0
C645 C 0.75087 0.21698 0.58644 0.0
H646 H 0.84135 0.24311 0.64149 0.0
C647 C 0.72166 0.25765 0.59137 0.0
C648 C 0.73446 0.2912 0.61605 0.0
H649 H 0.73709 0.18766 0.57119 0.0
H650 H 0.68719 0.26011 0.5786 0.0
C651 C 0.7802 0.28771 0.63145 0.0
C652 C 0.73955 0.17808 0.91397 0.0
C653 C 0.77751 0.19543 0.93337 0.0
H654 H 0.67338 0.19543 0.89016 0.0
C655 C 0.77064 0.23697 0.95323 0.0
H656 H 0.74427 0.14622 0.89848 0.0
C657 C 0.72986 0.26606 0.9484 0.0
C658 C 0.69612 0.25307 0.92389 0.0
H659 H 0.80006 0.25087 0.96835 0.0
H660 H 0.72742 0.30057 0.9611 0.0
C661 C 0.69959 0.20729 0.90857 0.0
C662 C 0.25059 0.76934 0.95727 0.0
C663 C 0.2933 0.78036 0.9396 0.0
H664 H 0.18674 0.72528 0.95869 0.0
C665 C 0.31143 0.74753 0.91627 0.0
H666 H 0.23593 0.7948 0.97529 0.0
C667 C 0.2823 0.71001 0.90538 0.0
C668 C 0.23592 0.70309 0.91923 0.0
H669 H 0.34417 0.75554 0.90232 0.0
H670 H 0.29513 0.68842 0.8845 0.0
C671 C 0.22175 0.73063 0.94705 0.0
C672 C 0.59255 0.07576 0.51085 0.0
C673 C 0.58127 0.1251 0.50757 0.0
H674 H 0.63074 0.02129 0.53805 0.0
C675 C 0.59676 0.15716 0.53278 0.0
H676 H 0.58086 0.04993 0.49213 0.0
C677 C 0.62573 0.14054 0.5594 0.0
C678 C 0.63978 0.09165 0.56115 0.0
H679 H 0.58896 0.19544 0.53089 0.0
H680 H 0.63916 0.16639 0.57753 0.0
C681 C 0.62142 0.05931 0.53719 0.0
C682 C 0.34699 0.62635 0.57435 0.0
C683 C 0.39536 0.6417 0.57654 0.0
H684 H 0.29372 0.58807 0.54549 0.0
C685 C 0.42875 0.62366 0.553 0.0
H686 H 0.32051 0.639 0.5922 0.0
C687 C 0.4137 0.59429 0.52657 0.0
C688 C 0.36474 0.58199 0.52275 0.0
H689 H 0.46654 0.63372 0.55417 0.0
H690 H 0.44035 0.58297 0.50822 0.0
C691 C 0.33173 0.59687 0.54764 0.0
C692 C 0.89852 0.41762 0.52417 0.0
C693 C 0.91509 0.36957 0.52548 0.0
H694 H 0.85095 0.47106 0.54428 0.0
C695 C 0.89899 0.3398 0.55194 0.0
H696 H 0.91035 0.44187 0.50443 0.0
C697 C 0.86479 0.3569 0.57519 0.0
C698 C 0.84548 0.40377 0.57214 0.0
H699 H 0.91104 0.30263 0.5538 0.0
H700 H 0.85194 0.33268 0.5945 0.0
C701 C 0.86411 0.43437 0.54704 0.0
C702 C 0.0535 0.86646 0.53057 0.0
C703 C 0.08273 0.84753 0.55626 0.0
H704 H 0.04875 0.91229 0.48753 0.0
C705 C 0.13027 0.86495 0.55961 0.0
H706 H 0.01653 0.85438 0.52754 0.0
C707 C 0.14901 0.8983 0.53643 0.0
C708 C 0.12044 0.91518 0.50961 0.0
H709 H 0.15375 0.85109 0.57914 0.0
H710 H 0.18652 0.90901 0.5386 0.0
C711 C 0.07199 0.89999 0.5077 0.0
C712 C 0.12243 0.85705 0.98149 0.0
C713 C 0.13982 0.90461 0.98476 0.0
H714 H 0.07843 0.80083 1.00258 0.0
C715 C 0.12092 0.93387 1.01043 0.0
H716 H 0.13627 0.83354 0.96197 0.0
C717 C 0.08744 0.91541 0.03335 0.0
C718 C 0.07227 0.86695 0.0315 0.0
H719 H 0.13298 0.97085 1.01341 0.0
H720 H 0.07516 0.93868 0.05349 0.0
C721 C 0.08912 0.83834 1.00471 0.0
C722 C 0.56983 0.08869 1.01595 0.0
C723 C 0.61792 0.07224 1.01467 0.0
H724 H 0.5163 0.13619 0.99585 0.0
C725 C 0.64768 0.08847 0.98824 0.0
H726 H 0.54558 0.07676 0.03567 0.0
C727 C 0.63053 0.12269 0.96502 0.0
C728 C 0.5836 0.14188 0.96805 0.0
H729 H 0.68489 0.07652 0.98641 0.0
H730 H 0.65475 0.13567 0.94575 0.0
C731 C 0.55302 0.12312 0.99311 0.0
C732 C 0.36125 0.64033 0.96662 0.0
C733 C 0.34555 0.59205 0.9646 0.0
H734 H 0.39985 0.69356 0.9953 0.0
C735 C 0.36333 0.55874 0.98831 0.0
H736 H 0.34885 0.66673 0.94863 0.0
C737 C 0.39277 0.57379 1.0147 0.0
C738 C 0.4054 0.6227 1.01834 0.0
H739 H 0.35302 0.52101 0.98728 0.0
H740 H 0.40389 0.5472 0.03316 0.0
C741 C 0.39077 0.6556 0.99331 0.0
C742 C 0.83037 0.39058 1.00717 0.0
C743 C 0.8625 0.40609 0.03234 0.0
H744 H 0.82104 0.34819 0.96244 0.0
C745 C 0.91184 0.39485 0.029 0.0
H746 H 0.79209 0.39836 1.0091 0.0
C747 C 0.92823 0.366 1.00266 0.0
C748 C 0.89583 0.34761 0.97873 0.0
H749 H 0.93772 0.40656 0.04769 0.0
H750 H 0.96627 0.35672 1.00175 0.0
C751 C 0.84693 0.36163 0.98054 0.0
C752 C 0.39497 0.91161 0.52971 0.0
C753 C 0.40625 0.86227 0.53299 0.0
H754 H 0.35679 0.96609 0.50251 0.0
C755 C 0.39076 0.83021 0.50778 0.0
H756 H 0.40666 0.93744 0.54843 0.0
C757 C 0.3618 0.84683 0.48116 0.0
C758 C 0.34775 0.89572 0.47941 0.0
H759 H 0.39857 0.79193 0.50967 0.0
H760 H 0.34837 0.82099 0.46303 0.0
C761 C 0.36611 0.92806 0.50337 0.0
C762 C 0.57383 0.39308 0.51399 0.0
C763 C 0.62279 0.40538 0.51782 0.0
H764 H 0.52099 0.35366 0.48639 0.0
C765 C 0.6558 0.39048 0.49294 0.0
H766 H 0.54718 0.40441 0.53234 0.0
C767 C 0.64054 0.36101 0.46622 0.0
C768 C 0.59217 0.34566 0.46402 0.0
H769 H 0.69381 0.39929 0.49509 0.0
H770 H 0.66702 0.34835 0.44838 0.0
C771 C 0.55878 0.36372 0.48756 0.0
C772 C 0.12342 0.55297 0.49355 0.0
C773 C 0.14202 0.58356 0.46844 0.0
H774 H 0.0772 0.54548 0.53617 0.0
C775 C 0.12269 0.63042 0.46537 0.0
H776 H 0.1366 0.51629 0.49632 0.0
C777 C 0.08849 0.64752 0.48862 0.0
C778 C 0.07242 0.61776 0.51509 0.0
H779 H 0.13553 0.65463 0.44605 0.0
H780 H 0.07643 0.68468 0.48674 0.0
C781 C 0.08901 0.56972 0.51641 0.0
C782 C 0.91554 0.08736 0.53286 0.0
C783 C 0.86709 0.07217 0.53094 0.0
H784 H 0.971 0.13297 0.51301 0.0
C785 C 0.83851 0.08905 0.50413 0.0
H786 H 0.93878 0.07505 0.55302 0.0
C787 C 0.85726 0.1224 0.48095 0.0
C788 C 0.9048 0.13982 0.48429 0.0
H789 H 0.80101 0.07835 0.50195 0.0
H790 H 0.83377 0.13626 0.46141 0.0
C791 C 0.93403 0.12089 0.50998 0.0
C792 C 0.89838 0.14908 0.03584 0.0
C793 C 0.91524 0.12047 1.00906 0.0
H794 H 0.85123 0.15388 0.07858 0.0
C795 C 0.90007 0.07201 1.00721 0.0
H796 H 0.90907 0.18659 0.03797 0.0
C797 C 0.86659 0.05354 0.03013 0.0
C798 C 0.84768 0.08281 0.05579 0.0
H799 H 0.91236 0.04874 0.98707 0.0
H800 H 0.85452 0.01657 0.02715 0.0
C801 C 0.86507 0.13036 0.05907 0.0
C802 C 0.41768 0.89872 0.02462 0.0
C803 C 0.36958 0.91516 0.0259 0.0
H804 H 0.47121 0.85123 0.04473 0.0
C805 C 0.33981 0.89893 0.05232 0.0
H806 H 0.44193 0.91065 1.0049 0.0
C807 C 0.35697 0.86471 0.07554 0.0
C808 C 0.4039 0.84554 0.07252 0.0
H809 H 0.30261 0.91088 0.05415 0.0
H810 H 0.33274 0.85173 0.09481 0.0
C811 C 0.43448 0.8643 0.04746 0.0
C812 C 0.62625 0.34706 0.07396 0.0
C813 C 0.64193 0.39534 0.07598 0.0
H814 H 0.58767 0.29383 0.04527 0.0
C815 C 0.62413 0.42866 0.05229 0.0
H816 H 0.63866 0.32065 0.09194 0.0
C817 C 0.5947 0.41361 0.02589 0.0
C818 C 0.58209 0.3647 0.02224 0.0
H819 H 0.63443 0.46639 0.05332 0.0
H820 H 0.58357 0.4402 1.00744 0.0
C821 C 0.59673 0.33179 0.04727 0.0
C822 C 0.14055 0.62576 0.06002 0.0
C823 C 0.09166 0.63979 0.06182 0.0
H824 H 0.1954 0.58902 0.03147 0.0
C825 C 0.05925 0.6214 0.0379 0.0
H826 H 0.16644 0.6392 0.07812 0.0
C827 C 0.07565 0.59254 1.01156 0.0
C828 C 0.12499 0.58129 1.00823 0.0
H829 H 0.02122 0.63069 0.0388 0.0
H830 H 0.04977 0.58083 0.99286 0.0
C831 C 0.15711 0.5968 0.0334 0.0
loop_
_geom_bond_atom_site_label_1
_geom_bond_atom_site_label_2
_geom_bond_distance
_geom_bond_site_symmetry_2
_ccdc_geom_bond_type
Sc0 O3 2.025 . S
Sc0 O10 2.105 . S
Sc0 O13 2.105 . S
Sc0 O16 2.105 . S
Sc0 O19 2.105 . S
Sc1 O3 2.025 . S
Sc1 O11 2.105 . S
Sc1 O15 2.105 . S
Sc1 O17 2.105 . S
Sc1 O21 2.105 . S
Sc2 O3 2.025 . S
Sc2 O12 2.105 . S
Sc2 O14 2.105 . S
Sc2 O18 2.105 . S
Sc2 O20 2.105 . S
O3 Sc0 2.025 . S
O3 Sc1 2.025 . S
O3 Sc2 2.025 . S
C4 O10 1.268 . S
C4 O20 1.268 . S
C5 O11 1.268 . S
C5 O19 1.268 . S
C6 O12 1.268 . S
C6 O21 1.268 . S
C7 O13 1.268 . S
C7 O17 1.268 . S
C8 O14 1.268 . S
C8 O16 1.268 . S
C9 O15 1.268 . S
C9 O18 1.268 . S
O10 Sc0 2.105 . S
O10 C4 1.268 . S
O11 Sc1 2.105 . S
O11 C5 1.268 . S
O12 Sc2 2.105 . S
O12 C6 1.268 . S
O13 Sc0 2.105 . S
O13 C7 1.268 . S
O14 Sc2 2.105 . S
O14 C8 1.268 . S
O15 Sc1 2.105 . S
O15 C9 1.268 . S
O16 Sc0 2.105 . S
O16 C8 1.268 . S
O17 Sc1 2.105 . S
O17 C7 1.268 . S
O18 Sc2 2.105 . S
O18 C9 1.268 . S
O19 Sc0 2.105 . S
O19 C5 1.268 . S
O20 Sc2 2.105 . S
O20 C4 1.268 . S
O21 Sc1 2.105 . S
O21 C6 1.268 . S
Sc22 O25 2.025 . S
Sc22 O32 2.105 . S
Sc22 O35 2.105 . S
Sc22 O38 2.105 . S
Sc22 O41 2.105 . S
Sc23 O25 2.025 . S
Sc23 O33 2.105 . S
Sc23 O37 2.105 . S
Sc23 O39 2.105 . S
Sc23 O43 2.105 . S
Sc24 O25 2.025 . S
Sc24 O34 2.105 . S
Sc24 O36 2.105 . S
Sc24 O40 2.105 . S
Sc24 O42 2.105 . S
O25 Sc22 2.025 . S
O25 Sc23 2.025 . S
O25 Sc24 2.025 . S
C26 O32 1.268 . S
C26 O42 1.268 . S
C27 O33 1.268 . S
C27 O41 1.268 . S
C28 O34 1.268 . S
C28 O43 1.268 . S
C29 O35 1.268 . S
C29 O39 1.268 . S
C30 O36 1.268 . S
C30 O38 1.268 . S
C31 O37 1.268 . S
C31 O40 1.268 . S
O32 Sc22 2.105 . S
O32 C26 1.268 . S
O33 Sc23 2.105 . S
O33 C27 1.268 . S
O34 Sc24 2.105 . S
O34 C28 1.268 . S
O35 Sc22 2.105 . S
O35 C29 1.268 . S
O36 Sc24 2.105 . S
O36 C30 1.268 . S
O37 Sc23 2.105 . S
O37 C31 1.268 . S
O38 Sc22 2.105 . S
O38 C30 1.268 . S
O39 Sc23 2.105 . S
O39 C29 1.268 . S
O40 Sc24 2.105 . S
O40 C31 1.268 . S
O41 Sc22 2.105 . S
O41 C27 1.268 . S
O42 Sc24 2.105 . S
O42 C26 1.268 . S
O43 Sc23 2.105 . S
O43 C28 1.268 . S
Sc44 O47 2.025 . S
Sc44 O54 2.105 . S
Sc44 O57 2.105 . S
Sc44 O60 2.105 . S
Sc44 O63 2.105 . S
Sc45 O47 2.025 . S
Sc45 O55 2.105 . S
Sc45 O59 2.105 . S
Sc45 O61 2.105 . S
Sc45 O65 2.105 . S
Sc46 O47 2.025 . S
Sc46 O56 2.105 1_655 S
Sc46 O58 2.105 . S
Sc46 O62 2.105 . S
Sc46 O64 2.105 1_655 S
O47 Sc44 2.025 . S
O47 Sc45 2.025 . S
O47 Sc46 2.025 . S
C48 O54 1.268 1_455 S
C48 O64 1.268 . S
C49 O55 1.268 . S
C49 O63 1.268 . S
C50 O56 1.268 . S
C50 O65 1.268 1_455 S
C51 O57 1.268 . S
C51 O61 1.268 . S
C52 O58 1.268 . S
C52 O60 1.268 . S
C53 O59 1.268 . S
C53 O62 1.268 . S
O54 Sc44 2.105 . S
O54 C48 1.268 1_655 S
O55 Sc45 2.105 . S
O55 C49 1.268 . S
O56 Sc46 2.105 1_455 S
O56 C50 1.268 . S
O57 Sc44 2.105 . S
O57 C51 1.268 . S
O58 Sc46 2.105 . S
O58 C52 1.268 . S
O59 Sc45 2.105 . S
O59 C53 1.268 . S
O60 Sc44 2.105 . S
O60 C52 1.268 . S
O61 Sc45 2.105 . S
O61 C51 1.268 . S
O62 Sc46 2.105 . S
O62 C53 1.268 . S
O63 Sc44 2.105 . S
O63 C49 1.268 . S
O64 Sc46 2.105 1_455 S
O64 C48 1.268 . S
O65 Sc45 2.105 . S
O65 C50 1.268 1_655 S
Sc66 O69 2.025 . S
Sc66 O76 2.105 . S
Sc66 O79 2.105 1_565 S
Sc66 O82 2.105 1_565 S
Sc66 O85 2.105 . S
Sc67 O69 2.025 . S
Sc67 O77 2.105 . S
Sc67 O81 2.105 . S
Sc67 O83 2.105 . S
Sc67 O87 2.105 . S
Sc68 O69 2.025 . S
Sc68 O78 2.105 . S
Sc68 O80 2.105 . S
Sc68 O84 2.105 . S
Sc68 O86 2.105 . S
O69 Sc66 2.025 . S
O69 Sc67 2.025 . S
O69 Sc68 2.025 . S
C70 O76 1.268 . S
C70 O86 1.268 . S
C71 O77 1.268 . S
C71 O85 1.268 . S
C72 O78 1.268 . S
C72 O87 1.268 . S
C73 O79 1.268 . S
C73 O83 1.268 1_545 S
C74 O80 1.268 1_545 S
C74 O82 1.268 . S
C75 O81 1.268 . S
C75 O84 1.268 . S
O76 Sc66 2.105 . S
O76 C70 1.268 . S
O77 Sc67 2.105 . S
O77 C71 1.268 . S
O78 Sc68 2.105 . S
O78 C72 1.268 . S
O79 Sc66 2.105 1_545 S
O79 C73 1.268 . S
O80 Sc68 2.105 . S
O80 C74 1.268 1_565 S
O81 Sc67 2.105 . S
O81 C75 1.268 . S
O82 Sc66 2.105 1_545 S
O82 C74 1.268 . S
O83 Sc67 2.105 . S
O83 C73 1.268 1_565 S
O84 Sc68 2.105 . S
O84 C75 1.268 . S
O85 Sc66 2.105 . S
O85 C71 1.268 . S
O86 Sc68 2.105 . S
O86 C70 1.268 . S
O87 Sc67 2.105 . S
O87 C72 1.268 . S
Sc88 O91 2.025 . S
Sc88 O98 2.105 . S
Sc88 O101 2.105 . S
Sc88 O104 2.105 . S
Sc88 O107 2.105 . S
Sc89 O91 2.025 . S
Sc89 O99 2.105 . S
Sc89 O103 2.105 . S
Sc89 O105 2.105 . S
Sc89 O109 2.105 . S
Sc90 O91 2.025 . S
Sc90 O100 2.105 1_455 S
Sc90 O102 2.105 . S
Sc90 O106 2.105 . S
Sc90 O108 2.105 1_455 S
O91 Sc88 2.025 . S
O91 Sc89 2.025 . S
O91 Sc90 2.025 . S
C92 O98 1.268 1_655 S
C92 O108 1.268 . S
C93 O99 1.268 . S
C93 O107 1.268 . S
C94 O100 1.268 . S
C94 O109 1.268 1_655 S
C95 O101 1.268 . S
C95 O105 1.268 . S
C96 O102 1.268 . S
C96 O104 1.268 . S
C97 O103 1.268 . S
C97 O106 1.268 . S
O98 Sc88 2.105 . S
O98 C92 1.268 1_455 S
O99 Sc89 2.105 . S
O99 C93 1.268 . S
O100 Sc90 2.105 1_655 S
O100 C94 1.268 . S
O101 Sc88 2.105 . S
O101 C95 1.268 . S
O102 Sc90 2.105 . S
O102 C96 1.268 . S
O103 Sc89 2.105 . S
O103 C97 1.268 . S
O104 Sc88 2.105 . S
O104 C96 1.268 . S
O105 Sc89 2.105 . S
O105 C95 1.268 . S
O106 Sc90 2.105 . S
O106 C97 1.268 . S
O107 Sc88 2.105 . S
O107 C93 1.268 . S
O108 Sc90 2.105 1_655 S
O108 C92 1.268 . S
O109 Sc89 2.105 . S
O109 C94 1.268 1_455 S
Sc110 O113 2.025 . S
Sc110 O120 2.105 . S
Sc110 O123 2.105 1_545 S
Sc110 O126 2.105 1_545 S
Sc110 O129 2.105 . S
Sc111 O113 2.025 . S
Sc111 O121 2.105 . S
Sc111 O125 2.105 . S
Sc111 O127 2.105 . S
Sc111 O131 2.105 . S
Sc112 O113 2.025 . S
Sc112 O122 2.105 . S
Sc112 O124 2.105 . S
Sc112 O128 2.105 . S
Sc112 O130 2.105 . S
O113 Sc110 2.025 . S
O113 Sc111 2.025 . S
O113 Sc112 2.025 . S
C114 O120 1.268 . S
C114 O130 1.268 . S
C115 O121 1.268 . S
C115 O129 1.268 . S
C116 O122 1.268 . S
C116 O131 1.268 . S
C117 O123 1.268 . S
C117 O127 1.268 1_565 S
C118 O124 1.268 1_565 S
C118 O126 1.268 . S
C119 O125 1.268 . S
C119 O128 1.268 . S
O120 Sc110 2.105 . S
O120 C114 1.268 . S
O121 Sc111 2.105 . S
O121 C115 1.268 . S
O122 Sc112 2.105 . S
O122 C116 1.268 . S
O123 Sc110 2.105 1_565 S
O123 C117 1.268 . S
O124 Sc112 2.105 . S
O124 C118 1.268 1_545 S
O125 Sc111 2.105 . S
O125 C119 1.268 . S
O126 Sc110 2.105 1_565 S
O126 C118 1.268 . S
O127 Sc111 2.105 . S
O127 C117 1.268 1_545 S
O128 Sc112 2.105 . S
O128 C119 1.268 . S
O129 Sc110 2.105 . S
O129 C115 1.268 . S
O130 Sc112 2.105 . S
O130 C114 1.268 . S
O131 Sc111 2.105 . S
O131 C116 1.268 . S
Sc132 O135 2.025 . S
Sc132 O142 2.105 . S
Sc132 O145 2.105 . S
Sc132 O148 2.105 . S
Sc132 O151 2.105 . S
Sc133 O135 2.025 . S
Sc133 O143 2.105 . S
Sc133 O147 2.105 . S
Sc133 O149 2.105 . S
Sc133 O153 2.105 . S
Sc134 O135 2.025 . S
Sc134 O144 2.105 . S
Sc134 O146 2.105 . S
Sc134 O150 2.105 . S
Sc134 O152 2.105 . S
O135 Sc132 2.025 . S
O135 Sc133 2.025 . S
O135 Sc134 2.025 . S
C136 O142 1.268 . S
C136 O152 1.268 . S
C137 O143 1.268 . S
C137 O151 1.268 . S
C138 O144 1.268 . S
C138 O153 1.268 . S
C139 O145 1.268 . S
C139 O149 1.268 . S
C140 O146 1.268 . S
C140 O148 1.268 . S
C141 O147 1.268 . S
C141 O150 1.268 . S
O142 Sc132 2.105 . S
O142 C136 1.268 . S
O143 Sc133 2.105 . S
O143 C137 1.268 . S
O144 Sc134 2.105 . S
O144 C138 1.268 . S
O145 Sc132 2.105 . S
O145 C139 1.268 . S
O146 Sc134 2.105 . S
O146 C140 1.268 . S
O147 Sc133 2.105 . S
O147 C141 1.268 . S
O148 Sc132 2.105 . S
O148 C140 1.268 . S
O149 Sc133 2.105 . S
O149 C139 1.268 . S
O150 Sc134 2.105 . S
O150 C141 1.268 . S
O151 Sc132 2.105 . S
O151 C137 1.268 . S
O152 Sc134 2.105 . S
O152 C136 1.268 . S
O153 Sc133 2.105 . S
O153 C138 1.268 . S
Sc154 O157 2.025 . S
Sc154 O164 2.105 . S
Sc154 O167 2.105 . S
Sc154 O170 2.105 . S
Sc154 O173 2.105 . S
Sc155 O157 2.025 . S
Sc155 O165 2.105 . S
Sc155 O169 2.105 . S
Sc155 O171 2.105 . S
Sc155 O175 2.105 . S
Sc156 O157 2.025 . S
Sc156 O166 2.105 . S
Sc156 O168 2.105 . S
Sc156 O172 2.105 . S
Sc156 O174 2.105 . S
O157 Sc154 2.025 . S
O157 Sc155 2.025 . S
O157 Sc156 2.025 . S
C158 O164 1.268 . S
C158 O174 1.268 . S
C159 O165 1.268 . S
C159 O173 1.268 . S
C160 O166 1.268 . S
C160 O175 1.268 . S
C161 O167 1.268 . S
C161 O171 1.268 . S
C162 O168 1.268 . S
C162 O170 1.268 . S
C163 O169 1.268 . S
C163 O172 1.268 . S
O164 Sc154 2.105 . S
O164 C158 1.268 . S
O165 Sc155 2.105 . S
O165 C159 1.268 . S
O166 Sc156 2.105 . S
O166 C160 1.268 . S
O167 Sc154 2.105 . S
O167 C161 1.268 . S
O168 Sc156 2.105 . S
O168 C162 1.268 . S
O169 Sc155 2.105 . S
O169 C163 1.268 . S
O170 Sc154 2.105 . S
O170 C162 1.268 . S
O171 Sc155 2.105 . S
O171 C161 1.268 . S
O172 Sc156 2.105 . S
O172 C163 1.268 . S
O173 Sc154 2.105 . S
O173 C159 1.268 . S
O174 Sc156 2.105 . S
O174 C158 1.268 . S
O175 Sc155 2.105 . S
O175 C160 1.268 . S
Sc176 O179 2.025 . S
Sc176 O186 2.105 . S
Sc176 O189 2.105 . S
Sc176 O192 2.105 . S
Sc176 O195 2.105 . S
Sc177 O179 2.025 . S
Sc177 O187 2.105 . S
Sc177 O191 2.105 . S
Sc177 O193 2.105 . S
Sc177 O197 2.105 . S
Sc178 O179 2.025 . S
Sc178 O188 2.105 . S
Sc178 O190 2.105 . S
Sc178 O194 2.105 . S
Sc178 O196 2.105 . S
O179 Sc176 2.025 . S
O179 Sc177 2.025 . S
O179 Sc178 2.025 . S
C180 O186 1.268 . S
C180 O196 1.268 . S
C181 O187 1.268 . S
C181 O195 1.268 . S
C182 O188 1.268 . S
C182 O197 1.268 . S
C183 O189 1.268 . S
C183 O193 1.268 . S
C184 O190 1.268 . S
C184 O192 1.268 . S
C185 O191 1.268 . S
C185 O194 1.268 . S
O186 Sc176 2.105 . S
O186 C180 1.268 . S
O187 Sc177 2.105 . S
O187 C181 1.268 . S
O188 Sc178 2.105 . S
O188 C182 1.268 . S
O189 Sc176 2.105 . S
O189 C183 1.268 . S
O190 Sc178 2.105 . S
O190 C184 1.268 . S
O191 Sc177 2.105 . S
O191 C185 1.268 . S
O192 Sc176 2.105 . S
O192 C184 1.268 . S
O193 Sc177 2.105 . S
O193 C183 1.268 . S
O194 Sc178 2.105 . S
O194 C185 1.268 . S
O195 Sc176 2.105 . S
O195 C181 1.268 . S
O196 Sc178 2.105 . S
O196 C180 1.268 . S
O197 Sc177 2.105 . S
O197 C182 1.268 . S
Sc198 O201 2.025 . S
Sc198 O208 2.105 . S
Sc198 O211 2.105 . S
Sc198 O214 2.105 . S
Sc198 O217 2.105 . S
Sc199 O201 2.025 . S
Sc199 O209 2.105 . S
Sc199 O213 2.105 . S
Sc199 O215 2.105 . S
Sc199 O219 2.105 . S
Sc200 O201 2.025 . S
Sc200 O210 2.105 . S
Sc200 O212 2.105 . S
Sc200 O216 2.105 . S
Sc200 O218 2.105 . S
O201 Sc198 2.025 . S
O201 Sc199 2.025 . S
O201 Sc200 2.025 . S
C202 O208 1.268 . S
C202 O218 1.268 . S
C203 O209 1.268 . S
C203 O217 1.268 . S
C204 O210 1.268 . S
C204 O219 1.268 . S
C205 O211 1.268 . S
C205 O215 1.268 . S
C206 O212 1.268 . S
C206 O214 1.268 . S
C207 O213 1.268 . S
C207 O216 1.268 . S
O208 Sc198 2.105 . S
O208 C202 1.268 . S
O209 Sc199 2.105 . S
O209 C203 1.268 . S
O210 Sc200 2.105 . S
O210 C204 1.268 . S
O211 Sc198 2.105 . S
O211 C205 1.268 . S
O212 Sc200 2.105 . S
O212 C206 1.268 . S
O213 Sc199 2.105 . S
O213 C207 1.268 . S
O214 Sc198 2.105 . S
O214 C206 1.268 . S
O215 Sc199 2.105 . S
O215 C205 1.268 . S
O216 Sc200 2.105 . S
O216 C207 1.268 . S
O217 Sc198 2.105 . S
O217 C203 1.268 . S
O218 Sc200 2.105 . S
O218 C202 1.268 . S
O219 Sc199 2.105 . S
O219 C204 1.268 . S
Sc220 O223 2.025 . S
Sc220 O230 2.105 . S
Sc220 O233 2.105 . S
Sc220 O236 2.105 . S
Sc220 O239 2.105 . S
Sc221 O223 2.025 . S
Sc221 O231 2.105 . S
Sc221 O235 2.105 . S
Sc221 O237 2.105 . S
Sc221 O241 2.105 . S
Sc222 O223 2.025 . S
Sc222 O232 2.105 . S
Sc222 O234 2.105 1_455 S
Sc222 O238 2.105 1_455 S
Sc222 O240 2.105 . S
O223 Sc220 2.025 . S
O223 Sc221 2.025 . S
O223 Sc222 2.025 . S
C224 O230 1.268 . S
C224 O240 1.268 . S
C225 O231 1.268 . S
C225 O239 1.268 . S
C226 O232 1.268 . S
C226 O241 1.268 . S
C227 O233 1.268 . S
C227 O237 1.268 . S
C228 O234 1.268 . S
C228 O236 1.268 1_655 S
C229 O235 1.268 1_655 S
C229 O238 1.268 . S
O230 Sc220 2.105 . S
O230 C224 1.268 . S
O231 Sc221 2.105 . S
O231 C225 1.268 . S
O232 Sc222 2.105 . S
O232 C226 1.268 . S
O233 Sc220 2.105 . S
O233 C227 1.268 . S
O234 Sc222 2.105 1_655 S
O234 C228 1.268 . S
O235 Sc221 2.105 . S
O235 C229 1.268 1_455 S
O236 Sc220 2.105 . S
O236 C228 1.268 1_455 S
O237 Sc221 2.105 . S
O237 C227 1.268 . S
O238 Sc222 2.105 1_655 S
O238 C229 1.268 . S
O239 Sc220 2.105 . S
O239 C225 1.268 . S
O240 Sc222 2.105 . S
O240 C224 1.268 . S
O241 Sc221 2.105 . S
O241 C226 1.268 . S
Sc242 O245 2.025 . S
Sc242 O252 2.105 . S
Sc242 O255 2.105 . S
Sc242 O258 2.105 . S
Sc242 O261 2.105 . S
Sc243 O245 2.025 . S
Sc243 O253 2.105 . S
Sc243 O257 2.105 . S
Sc243 O259 2.105 . S
Sc243 O263 2.105 . S
Sc244 O245 2.025 . S
Sc244 O254 2.105 . S
Sc244 O256 2.105 1_545 S
Sc244 O260 2.105 1_545 S
Sc244 O262 2.105 . S
O245 Sc242 2.025 . S
O245 Sc243 2.025 . S
O245 Sc244 2.025 . S
C246 O252 1.268 . S
C246 O262 1.268 . S
C247 O253 1.268 . S
C247 O261 1.268 . S
C248 O254 1.268 . S
C248 O263 1.268 . S
C249 O255 1.268 . S
C249 O259 1.268 . S
C250 O256 1.268 . S
C250 O258 1.268 1_565 S
C251 O257 1.268 1_565 S
C251 O260 1.268 . S
O252 Sc242 2.105 . S
O252 C246 1.268 . S
O253 Sc243 2.105 . S
O253 C247 1.268 . S
O254 Sc244 2.105 . S
O254 C248 1.268 . S
O255 Sc242 2.105 . S
O255 C249 1.268 . S
O256 Sc244 2.105 1_565 S
O256 C250 1.268 . S
O257 Sc243 2.105 . S
O257 C251 1.268 1_545 S
O258 Sc242 2.105 . S
O258 C250 1.268 1_545 S
O259 Sc243 2.105 . S
O259 C249 1.268 . S
O260 Sc244 2.105 1_565 S
O260 C251 1.268 . S
O261 Sc242 2.105 . S
O261 C247 1.268 . S
O262 Sc244 2.105 . S
O262 C246 1.268 . S
O263 Sc243 2.105 . S
O263 C248 1.268 . S
Sc264 O267 2.025 . S
Sc264 O274 2.105 . S
Sc264 O277 2.105 . S
Sc264 O280 2.105 . S
Sc264 O283 2.105 . S
Sc265 O267 2.025 . S
Sc265 O275 2.105 . S
Sc265 O279 2.105 . S
Sc265 O281 2.105 . S
Sc265 O285 2.105 . S
Sc266 O267 2.025 . S
Sc266 O276 2.105 . S
Sc266 O278 2.105 1_655 S
Sc266 O282 2.105 1_655 S
Sc266 O284 2.105 . S
O267 Sc264 2.025 . S
O267 Sc265 2.025 . S
O267 Sc266 2.025 . S
C268 O274 1.268 . S
C268 O284 1.268 . S
C269 O275 1.268 . S
C269 O283 1.268 . S
C270 O276 1.268 . S
C270 O285 1.268 . S
C271 O277 1.268 . S
C271 O281 1.268 . S
C272 O278 1.268 . S
C272 O280 1.268 1_455 S
C273 O279 1.268 1_455 S
C273 O282 1.268 . S
O274 Sc264 2.105 . S
O274 C268 1.268 . S
O275 Sc265 2.105 . S
O275 C269 1.268 . S
O276 Sc266 2.105 . S
O276 C270 1.268 . S
O277 Sc264 2.105 . S
O277 C271 1.268 . S
O278 Sc266 2.105 1_455 S
O278 C272 1.268 . S
O279 Sc265 2.105 . S
O279 C273 1.268 1_655 S
O280 Sc264 2.105 . S
O280 C272 1.268 1_655 S
O281 Sc265 2.105 . S
O281 C271 1.268 . S
O282 Sc266 2.105 1_455 S
O282 C273 1.268 . S
O283 Sc264 2.105 . S
O283 C269 1.268 . S
O284 Sc266 2.105 . S
O284 C268 1.268 . S
O285 Sc265 2.105 . S
O285 C270 1.268 . S
Sc286 O289 2.025 . S
Sc286 O296 2.105 . S
Sc286 O299 2.105 . S
Sc286 O302 2.105 . S
Sc286 O305 2.105 . S
Sc287 O289 2.025 . S
Sc287 O297 2.105 . S
Sc287 O301 2.105 . S
Sc287 O303 2.105 . S
Sc287 O307 2.105 . S
Sc288 O289 2.025 . S
Sc288 O298 2.105 . S
Sc288 O300 2.105 1_565 S
Sc288 O304 2.105 1_565 S
Sc288 O306 2.105 . S
O289 Sc286 2.025 . S
O289 Sc287 2.025 . S
O289 Sc288 2.025 . S
C290 O296 1.268 . S
C290 O306 1.268 . S
C291 O297 1.268 . S
C291 O305 1.268 . S
C292 O298 1.268 . S
C292 O307 1.268 . S
C293 O299 1.268 . S
C293 O303 1.268 . S
C294 O300 1.268 . S
C294 O302 1.268 1_545 S
C295 O301 1.268 1_545 S
C295 O304 1.268 . S
O296 Sc286 2.105 . S
O296 C290 1.268 . S
O297 Sc287 2.105 . S
O297 C291 1.268 . S
O298 Sc288 2.105 . S
O298 C292 1.268 . S
O299 Sc286 2.105 . S
O299 C293 1.268 . S
O300 Sc288 2.105 1_545 S
O300 C294 1.268 . S
O301 Sc287 2.105 . S
O301 C295 1.268 1_565 S
O302 Sc286 2.105 . S
O302 C294 1.268 1_565 S
O303 Sc287 2.105 . S
O303 C293 1.268 . S
O304 Sc288 2.105 1_545 S
O304 C295 1.268 . S
O305 Sc286 2.105 . S
O305 C291 1.268 . S
O306 Sc288 2.105 . S
O306 C290 1.268 . S
O307 Sc287 2.105 . S
O307 C292 1.268 . S
Sc308 O311 2.025 . S
Sc308 O318 2.105 . S
Sc308 O321 2.105 . S
Sc308 O324 2.105 . S
Sc308 O327 2.105 . S
Sc309 O311 2.025 . S
Sc309 O319 2.105 . S
Sc309 O323 2.105 . S
Sc309 O325 2.105 . S
Sc309 O329 2.105 . S
Sc310 O311 2.025 . S
Sc310 O320 2.105 . S
Sc310 O322 2.105 . S
Sc310 O326 2.105 . S
Sc310 O328 2.105 . S
O311 Sc308 2.025 . S
O311 Sc309 2.025 . S
O311 Sc310 2.025 . S
C312 O318 1.268 . S
C312 O328 1.268 . S
C313 O319 1.268 . S
C313 O327 1.268 . S
C314 O320 1.268 . S
C314 O329 1.268 . S
C315 O321 1.268 . S
C315 O325 1.268 . S
C316 O322 1.268 . S
C316 O324 1.268 . S
C317 O323 1.268 . S
C317 O326 1.268 . S
O318 Sc308 2.105 . S
O318 C312 1.268 . S
O319 Sc309 2.105 . S
O319 C313 1.268 . S
O320 Sc310 2.105 . S
O320 C314 1.268 . S
O321 Sc308 2.105 . S
O321 C315 1.268 . S
O322 Sc310 2.105 . S
O322 C316 1.268 . S
O323 Sc309 2.105 . S
O323 C317 1.268 . S
O324 Sc308 2.105 . S
O324 C316 1.268 . S
O325 Sc309 2.105 . S
O325 C315 1.268 . S
O326 Sc310 2.105 . S
O326 C317 1.268 . S
O327 Sc308 2.105 . S
O327 C313 1.268 . S
O328 Sc310 2.105 . S
O328 C312 1.268 . S
O329 Sc309 2.105 . S
O329 C314 1.268 . S
Sc330 O333 2.025 . S
Sc330 O340 2.105 . S
Sc330 O343 2.105 . S
Sc330 O346 2.105 . S
Sc330 O349 2.105 . S
Sc331 O333 2.025 . S
Sc331 O341 2.105 . S
Sc331 O345 2.105 . S
Sc331 O347 2.105 . S
Sc331 O351 2.105 . S
Sc332 O333 2.025 . S
Sc332 O342 2.105 . S
Sc332 O344 2.105 . S
Sc332 O348 2.105 . S
Sc332 O350 2.105 . S
O333 Sc330 2.025 . S
O333 Sc331 2.025 . S
O333 Sc332 2.025 . S
C334 O340 1.268 . S
C334 O350 1.268 . S
C335 O341 1.268 . S
C335 O349 1.268 . S
C336 O342 1.268 . S
C336 O351 1.268 . S
C337 O343 1.268 . S
C337 O347 1.268 . S
C338 O344 1.268 . S
C338 O346 1.268 . S
C339 O345 1.268 . S
C339 O348 1.268 . S
O340 Sc330 2.105 . S
O340 C334 1.268 . S
O341 Sc331 2.105 . S
O341 C335 1.268 . S
O342 Sc332 2.105 . S
O342 C336 1.268 . S
O343 Sc330 2.105 . S
O343 C337 1.268 . S
O344 Sc332 2.105 . S
O344 C338 1.268 . S
O345 Sc331 2.105 . S
O345 C339 1.268 . S
O346 Sc330 2.105 . S
O346 C338 1.268 . S
O347 Sc331 2.105 . S
O347 C337 1.268 . S
O348 Sc332 2.105 . S
O348 C339 1.268 . S
O349 Sc330 2.105 . S
O349 C335 1.268 . S
O350 Sc332 2.105 . S
O350 C334 1.268 . S
O351 Sc331 2.105 . S
O351 C336 1.268 . S
C352 C353 1.387 . S
C352 H356 0.950 . S
C352 C361 1.390 . S
C353 C352 1.387 . S
C353 C355 1.387 . S
H354 C361 0.950 . S
C355 C353 1.387 . S
C355 C357 1.390 . S
C355 H359 0.950 . S
H356 C352 0.950 . S
C357 C355 1.390 . S
C357 C358 1.387 . S
C357 H360 0.950 . S
C358 C357 1.387 . S
C358 C361 1.387 . S
H359 C355 0.950 . S
H360 C357 0.950 . S
C361 C352 1.390 . S
C361 H354 0.950 . S
C361 C358 1.387 . S
C362 C363 1.387 . S
C362 H366 0.950 . S
C362 C371 1.390 . S
C363 C362 1.387 . S
C363 C365 1.387 . S
H364 C371 0.950 . S
C365 C363 1.387 . S
C365 C367 1.390 . S
C365 H369 0.950 . S
H366 C362 0.950 . S
C367 C365 1.390 . S
C367 C368 1.387 . S
C367 H370 0.950 . S
C368 C367 1.387 . S
C368 C371 1.387 . S
H369 C365 0.950 . S
H370 C367 0.950 . S
C371 C362 1.390 . S
C371 H364 0.950 . S
C371 C368 1.387 . S
C372 C373 1.387 . S
C372 H376 0.950 . S
C372 C381 1.390 . S
C373 C372 1.387 . S
C373 C375 1.387 . S
H374 C381 0.950 . S
C375 C373 1.387 . S
C375 C377 1.390 . S
C375 H379 0.950 . S
H376 C372 0.950 . S
C377 C375 1.390 . S
C377 C378 1.387 . S
C377 H380 0.950 . S
C378 C377 1.387 . S
C378 C381 1.387 . S
H379 C375 0.950 . S
H380 C377 0.950 . S
C381 C372 1.390 . S
C381 H374 0.950 . S
C381 C378 1.387 . S
C382 C383 1.387 . S
C382 H386 0.950 . S
C382 C391 1.390 . S
C383 C382 1.387 . S
C383 C385 1.387 . S
H384 C391 0.950 . S
C385 C383 1.387 . S
C385 C387 1.390 . S
C385 H389 0.950 . S
H386 C382 0.950 . S
C387 C385 1.390 . S
C387 C388 1.387 . S
C387 H390 0.950 . S
C388 C387 1.387 . S
C388 C391 1.387 . S
H389 C385 0.950 . S
H390 C387 0.950 . S
C391 C382 1.390 . S
C391 H384 0.950 . S
C391 C388 1.387 . S
C392 C393 1.387 . S
C392 H396 0.950 . S
C392 C401 1.390 . S
C393 C392 1.387 . S
C393 C395 1.387 . S
H394 C401 0.950 . S
C395 C393 1.387 . S
C395 C397 1.390 . S
C395 H399 0.950 . S
H396 C392 0.950 . S
C397 C395 1.390 . S
C397 C398 1.387 . S
C397 H400 0.950 . S
C398 C397 1.387 . S
C398 C401 1.387 . S
H399 C395 0.950 . S
H400 C397 0.950 . S
C401 C392 1.390 . S
C401 H394 0.950 . S
C401 C398 1.387 . S
C402 C403 1.387 . S
C402 H406 0.950 . S
C402 C411 1.390 . S
C403 C402 1.387 . S
C403 C405 1.387 . S
H404 C411 0.950 . S
C405 C403 1.387 . S
C405 C407 1.390 . S
C405 H409 0.950 . S
H406 C402 0.950 . S
C407 C405 1.390 . S
C407 C408 1.387 . S
C407 H410 0.950 . S
C408 C407 1.387 . S
C408 C411 1.387 . S
H409 C405 0.950 . S
H410 C407 0.950 . S
C411 C402 1.390 . S
C411 H404 0.950 . S
C411 C408 1.387 . S
C412 C413 1.387 . S
C412 H416 0.950 . S
C412 C421 1.390 . S
C413 C412 1.387 . S
C413 C415 1.387 . S
H414 C421 0.950 . S
C415 C413 1.387 . S
C415 C417 1.390 . S
C415 H419 0.950 . S
H416 C412 0.950 . S
C417 C415 1.390 . S
C417 C418 1.387 . S
C417 H420 0.950 . S
C418 C417 1.387 . S
C418 C421 1.387 . S
H419 C415 0.950 . S
H420 C417 0.950 . S
C421 C412 1.390 . S
C421 H414 0.950 . S
C421 C418 1.387 . S
C422 C423 1.387 . S
C422 H426 0.950 . S
C422 C431 1.390 . S
C423 C422 1.387 . S
C423 C425 1.387 . S
H424 C431 0.950 . S
C425 C423 1.387 . S
C425 C427 1.390 . S
C425 H429 0.950 . S
H426 C422 0.950 . S
C427 C425 1.390 . S
C427 C428 1.387 . S
C427 H430 0.950 . S
C428 C427 1.387 . S
C428 C431 1.387 . S
H429 C425 0.950 . S
H430 C427 0.950 . S
C431 C422 1.390 . S
C431 H424 0.950 . S
C431 C428 1.387 . S
C432 C433 1.387 . S
C432 H436 0.950 . S
C432 C441 1.390 . S
C433 C432 1.387 . S
C433 C435 1.387 . S
H434 C441 0.950 . S
C435 C433 1.387 . S
C435 C437 1.390 . S
C435 H439 0.950 . S
H436 C432 0.950 . S
C437 C435 1.390 . S
C437 C438 1.387 . S
C437 H440 0.950 . S
C438 C437 1.387 . S
C438 C441 1.387 . S
H439 C435 0.950 . S
H440 C437 0.950 . S
C441 C432 1.390 . S
C441 H434 0.950 . S
C441 C438 1.387 . S
C442 C443 1.387 . S
C442 H446 0.950 . S
C442 C451 1.390 . S
C443 C442 1.387 . S
C443 C445 1.387 . S
H444 C451 0.950 . S
C445 C443 1.387 . S
C445 C447 1.390 . S
C445 H449 0.950 . S
H446 C442 0.950 . S
C447 C445 1.390 . S
C447 C448 1.387 . S
C447 H450 0.950 . S
C448 C447 1.387 . S
C448 C451 1.387 . S
H449 C445 0.950 . S
H450 C447 0.950 . S
C451 C442 1.390 . S
C451 H444 0.950 . S
C451 C448 1.387 . S
C452 C453 1.387 . S
C452 H456 0.950 . S
C452 C461 1.390 . S
C453 C452 1.387 . S
C453 C455 1.387 . S
H454 C461 0.950 . S
C455 C453 1.387 . S
C455 C457 1.390 . S
C455 H459 0.950 . S
H456 C452 0.950 . S
C457 C455 1.390 . S
C457 C458 1.387 . S
C457 H460 0.950 . S
C458 C457 1.387 . S
C458 C461 1.387 . S
H459 C455 0.950 . S
H460 C457 0.950 . S
C461 C452 1.390 . S
C461 H454 0.950 . S
C461 C458 1.387 . S
C462 C463 1.387 . S
C462 H466 0.950 . S
C462 C471 1.390 . S
C463 C462 1.387 . S
C463 C465 1.387 . S
H464 C471 0.950 . S
C465 C463 1.387 . S
C465 C467 1.390 . S
C465 H469 0.950 . S
H466 C462 0.950 . S
C467 C465 1.390 . S
C467 C468 1.387 . S
C467 H470 0.950 . S
C468 C467 1.387 . S
C468 C471 1.387 . S
H469 C465 0.950 . S
H470 C467 0.950 . S
C471 C462 1.390 . S
C471 H464 0.950 . S
C471 C468 1.387 . S
C472 C473 1.387 . S
C472 H476 0.950 . S
C472 C481 1.390 . S
C473 C472 1.387 . S
C473 C475 1.387 . S
H474 C481 0.950 . S
C475 C473 1.387 . S
C475 C477 1.390 . S
C475 H479 0.950 . S
H476 C472 0.950 . S
C477 C475 1.390 . S
C477 C478 1.387 . S
C477 H480 0.950 . S
C478 C477 1.387 . S
C478 C481 1.387 . S
H479 C475 0.950 . S
H480 C477 0.950 . S
C481 C472 1.390 . S
C481 H474 0.950 . S
C481 C478 1.387 . S
C482 C483 1.387 . S
C482 H486 0.950 . S
C482 C491 1.390 . S
C483 C482 1.387 . S
C483 C485 1.387 . S
H484 C491 0.950 . S
C485 C483 1.387 . S
C485 C487 1.390 . S
C485 H489 0.950 . S
H486 C482 0.950 . S
C487 C485 1.390 . S
C487 C488 1.387 . S
C487 H490 0.950 . S
C488 C487 1.387 . S
C488 C491 1.387 . S
H489 C485 0.950 . S
H490 C487 0.950 . S
C491 C482 1.390 . S
C491 H484 0.950 . S
C491 C488 1.387 . S
C492 C493 1.387 . S
C492 H496 0.950 . S
C492 C501 1.390 . S
C493 C492 1.387 . S
C493 C495 1.387 . S
H494 C501 0.950 . S
C495 C493 1.387 . S
C495 C497 1.390 . S
C495 H499 0.950 . S
H496 C492 0.950 . S
C497 C495 1.390 . S
C497 C498 1.387 . S
C497 H500 0.950 . S
C498 C497 1.387 . S
C498 C501 1.387 . S
H499 C495 0.950 . S
H500 C497 0.950 . S
C501 C492 1.390 . S
C501 H494 0.950 . S
C501 C498 1.387 . S
C502 C503 1.387 . S
C502 H506 0.950 . S
C502 C511 1.390 . S
C503 C502 1.387 . S
C503 C505 1.387 . S
H504 C511 0.950 . S
C505 C503 1.387 . S
C505 C507 1.390 . S
C505 H509 0.950 . S
H506 C502 0.950 . S
C507 C505 1.390 . S
C507 C508 1.387 . S
C507 H510 0.950 . S
C508 C507 1.387 . S
C508 C511 1.387 . S
H509 C505 0.950 . S
H510 C507 0.950 . S
C511 C502 1.390 . S
C511 H504 0.950 . S
C511 C508 1.387 . S
C512 C513 1.387 . S
C512 H516 0.950 . S
C512 C521 1.390 . S
C513 C512 1.387 . S
C513 C515 1.387 . S
H514 C521 0.950 . S
C515 C513 1.387 . S
C515 C517 1.390 . S
C515 H519 0.950 . S
H516 C512 0.950 . S
C517 C515 1.390 . S
C517 C518 1.387 . S
C517 H520 0.950 . S
C518 C517 1.387 . S
C518 C521 1.387 . S
H519 C515 0.950 . S
H520 C517 0.950 . S
C521 C512 1.390 . S
C521 H514 0.950 . S
C521 C518 1.387 . S
C522 C523 1.387 . S
C522 H526 0.950 . S
C522 C531 1.390 . S
C523 C522 1.387 . S
C523 C525 1.387 . S
H524 C531 0.950 . S
C525 C523 1.387 . S
C525 C527 1.390 . S
C525 H529 0.950 . S
H526 C522 0.950 . S
C527 C525 1.390 . S
C527 C528 1.387 . S
C527 H530 0.950 . S
C528 C527 1.387 . S
C528 C531 1.387 . S
H529 C525 0.950 . S
H530 C527 0.950 . S
C531 C522 1.390 . S
C531 H524 0.950 . S
C531 C528 1.387 . S
C532 C533 1.387 . S
C532 H536 0.950 . S
C532 C541 1.390 . S
C533 C532 1.387 . S
C533 C535 1.387 . S
H534 C541 0.950 . S
C535 C533 1.387 . S
C535 C537 1.390 . S
C535 H539 0.950 . S
H536 C532 0.950 . S
C537 C535 1.390 . S
C537 C538 1.387 . S
C537 H540 0.950 . S
C538 C537 1.387 . S
C538 C541 1.387 . S
H539 C535 0.950 . S
H540 C537 0.950 . S
C541 C532 1.390 . S
C541 H534 0.950 . S
C541 C538 1.387 . S
C542 C543 1.387 . S
C542 H546 0.950 . S
C542 C551 1.390 . S
C543 C542 1.387 . S
C543 C545 1.387 . S
H544 C551 0.950 . S
C545 C543 1.387 . S
C545 C547 1.390 . S
C545 H549 0.950 . S
H546 C542 0.950 . S
C547 C545 1.390 . S
C547 C548 1.387 . S
C547 H550 0.950 . S
C548 C547 1.387 . S
C548 C551 1.387 . S
H549 C545 0.950 . S
H550 C547 0.950 . S
C551 C542 1.390 . S
C551 H544 0.950 . S
C551 C548 1.387 . S
C552 C553 1.387 . S
C552 H556 0.950 . S
C552 C561 1.390 . S
C553 C552 1.387 . S
C553 C555 1.387 . S
H554 C561 0.950 . S
C555 C553 1.387 . S
C555 C557 1.390 . S
C555 H559 0.950 . S
H556 C552 0.950 . S
C557 C555 1.390 . S
C557 C558 1.387 . S
C557 H560 0.950 . S
C558 C557 1.387 . S
C558 C561 1.387 . S
H559 C555 0.950 . S
H560 C557 0.950 . S
C561 C552 1.390 . S
C561 H554 0.950 . S
C561 C558 1.387 . S
C562 C563 1.387 . S
C562 H566 0.950 . S
C562 C571 1.390 . S
C563 C562 1.387 . S
C563 C565 1.387 . S
H564 C571 0.950 . S
C565 C563 1.387 . S
C565 C567 1.390 . S
C565 H569 0.950 . S
H566 C562 0.950 . S
C567 C565 1.390 . S
C567 C568 1.387 . S
C567 H570 0.950 . S
C568 C567 1.387 . S
C568 C571 1.387 . S
H569 C565 0.950 . S
H570 C567 0.950 . S
C571 C562 1.390 . S
C571 H564 0.950 . S
C571 C568 1.387 . S
C572 C573 1.387 . S
C572 H576 0.950 . S
C572 C581 1.390 . S
C573 C572 1.387 . S
C573 C575 1.387 . S
H574 C581 0.950 . S
C575 C573 1.387 . S
C575 C577 1.390 . S
C575 H579 0.950 . S
H576 C572 0.950 . S
C577 C575 1.390 . S
C577 C578 1.387 . S
C577 H580 0.950 . S
C578 C577 1.387 . S
C578 C581 1.387 . S
H579 C575 0.950 . S
H580 C577 0.950 . S
C581 C572 1.390 . S
C581 H574 0.950 . S
C581 C578 1.387 . S
C582 C583 1.387 . S
C582 H586 0.950 . S
C582 C591 1.390 . S
C583 C582 1.387 . S
C583 C585 1.387 . S
H584 C591 0.950 . S
C585 C583 1.387 . S
C585 C587 1.390 . S
C585 H589 0.950 . S
H586 C582 0.950 . S
C587 C585 1.390 . S
C587 C588 1.387 . S
C587 H590 0.950 . S
C588 C587 1.387 . S
C588 C591 1.387 . S
H589 C585 0.950 . S
H590 C587 0.950 . S
C591 C582 1.390 . S
C591 H584 0.950 . S
C591 C588 1.387 . S
C592 C593 1.387 . S
C592 H596 0.950 . S
C592 C601 1.390 . S
C593 C592 1.387 . S
C593 C595 1.387 . S
H594 C601 0.950 . S
C595 C593 1.387 . S
C595 C597 1.390 . S
C595 H599 0.950 . S
H596 C592 0.950 . S
C597 C595 1.390 . S
C597 C598 1.387 . S
C597 H600 0.950 . S
C598 C597 1.387 . S
C598 C601 1.387 . S
H599 C595 0.950 . S
H600 C597 0.950 . S
C601 C592 1.390 . S
C601 H594 0.950 . S
C601 C598 1.387 . S
C602 C603 1.387 . S
C602 H606 0.950 . S
C602 C611 1.390 . S
C603 C602 1.387 . S
C603 C605 1.387 . S
H604 C611 0.950 . S
C605 C603 1.387 . S
C605 C607 1.390 . S
C605 H609 0.950 . S
H606 C602 0.950 . S
C607 C605 1.390 . S
C607 C608 1.387 . S
C607 H610 0.950 . S
C608 C607 1.387 . S
C608 C611 1.387 . S
H609 C605 0.950 . S
H610 C607 0.950 . S
C611 C602 1.390 . S
C611 H604 0.950 . S
C611 C608 1.387 . S
C612 C613 1.387 . S
C612 H616 0.950 . S
C612 C621 1.390 . S
C613 C612 1.387 . S
C613 C615 1.387 . S
H614 C621 0.950 . S
C615 C613 1.387 . S
C615 C617 1.390 . S
C615 H619 0.950 . S
H616 C612 0.950 . S
C617 C615 1.390 . S
C617 C618 1.387 . S
C617 H620 0.950 . S
C618 C617 1.387 . S
C618 C621 1.387 . S
H619 C615 0.950 . S
H620 C617 0.950 . S
C621 C612 1.390 . S
C621 H614 0.950 . S
C621 C618 1.387 . S
C622 C623 1.387 . S
C622 H626 0.950 . S
C622 C631 1.390 . S
C623 C622 1.387 . S
C623 C625 1.387 . S
H624 C631 0.950 . S
C625 C623 1.387 . S
C625 C627 1.390 . S
C625 H629 0.950 . S
H626 C622 0.950 . S
C627 C625 1.390 . S
C627 C628 1.387 . S
C627 H630 0.950 . S
C628 C627 1.387 . S
C628 C631 1.387 . S
H629 C625 0.950 . S
H630 C627 0.950 . S
C631 C622 1.390 . S
C631 H624 0.950 . S
C631 C628 1.387 . S
C632 C633 1.387 . S
C632 H636 0.950 . S
C632 C641 1.390 . S
C633 C632 1.387 . S
C633 C635 1.387 . S
H634 C641 0.950 . S
C635 C633 1.387 . S
C635 C637 1.390 . S
C635 H639 0.950 . S
H636 C632 0.950 . S
C637 C635 1.390 . S
C637 C638 1.387 . S
C637 H640 0.950 . S
C638 C637 1.387 . S
C638 C641 1.387 . S
H639 C635 0.950 . S
H640 C637 0.950 . S
C641 C632 1.390 . S
C641 H634 0.950 . S
C641 C638 1.387 . S
C642 C643 1.387 . S
C642 H646 0.950 . S
C642 C651 1.390 . S
C643 C642 1.387 . S
C643 C645 1.387 . S
H644 C651 0.950 . S
C645 C643 1.387 . S
C645 C647 1.390 . S
C645 H649 0.950 . S
H646 C642 0.950 . S
C647 C645 1.390 . S
C647 C648 1.387 . S
C647 H650 0.950 . S
C648 C647 1.387 . S
C648 C651 1.387 . S
H649 C645 0.950 . S
H650 C647 0.950 . S
C651 C642 1.390 . S
C651 H644 0.950 . S
C651 C648 1.387 . S
C652 C653 1.387 . S
C652 H656 0.950 . S
C652 C661 1.390 . S
C653 C652 1.387 . S
C653 C655 1.387 . S
H654 C661 0.950 . S
C655 C653 1.387 . S
C655 C657 1.390 . S
C655 H659 0.950 . S
H656 C652 0.950 . S
C657 C655 1.390 . S
C657 C658 1.387 . S
C657 H660 0.950 . S
C658 C657 1.387 . S
C658 C661 1.387 . S
H659 C655 0.950 . S
H660 C657 0.950 . S
C661 C652 1.390 . S
C661 H654 0.950 . S
C661 C658 1.387 . S
C662 C663 1.387 . S
C662 H666 0.950 . S
C662 C671 1.390 . S
C663 C662 1.387 . S
C663 C665 1.387 . S
H664 C671 0.950 . S
C665 C663 1.387 . S
C665 C667 1.390 . S
C665 H669 0.950 . S
H666 C662 0.950 . S
C667 C665 1.390 . S
C667 C668 1.387 . S
C667 H670 0.950 . S
C668 C667 1.387 . S
C668 C671 1.387 . S
H669 C665 0.950 . S
H670 C667 0.950 . S
C671 C662 1.390 . S
C671 H664 0.950 . S
C671 C668 1.387 . S
C672 C673 1.387 . S
C672 H676 0.950 . S
C672 C681 1.390 . S
C673 C672 1.387 . S
C673 C675 1.387 . S
H674 C681 0.950 . S
C675 C673 1.387 . S
C675 C677 1.390 . S
C675 H679 0.950 . S
H676 C672 0.950 . S
C677 C675 1.390 . S
C677 C678 1.387 . S
C677 H680 0.950 . S
C678 C677 1.387 . S
C678 C681 1.387 . S
H679 C675 0.950 . S
H680 C677 0.950 . S
C681 C672 1.390 . S
C681 H674 0.950 . S
C681 C678 1.387 . S
C682 C683 1.387 . S
C682 H686 0.950 . S
C682 C691 1.390 . S
C683 C682 1.387 . S
C683 C685 1.387 . S
H684 C691 0.950 . S
C685 C683 1.387 . S
C685 C687 1.390 . S
C685 H689 0.950 . S
H686 C682 0.950 . S
C687 C685 1.390 . S
C687 C688 1.387 . S
C687 H690 0.950 . S
C688 C687 1.387 . S
C688 C691 1.387 . S
H689 C685 0.950 . S
H690 C687 0.950 . S
C691 C682 1.390 . S
C691 H684 0.950 . S
C691 C688 1.387 . S
C692 C693 1.387 . S
C692 H696 0.950 . S
C692 C701 1.390 . S
C693 C692 1.387 . S
C693 C695 1.387 . S
H694 C701 0.950 . S
C695 C693 1.387 . S
C695 C697 1.390 . S
C695 H699 0.950 . S
H696 C692 0.950 . S
C697 C695 1.390 . S
C697 C698 1.387 . S
C697 H700 0.950 . S
C698 C697 1.387 . S
C698 C701 1.387 . S
H699 C695 0.950 . S
H700 C697 0.950 . S
C701 C692 1.390 . S
C701 H694 0.950 . S
C701 C698 1.387 . S
C702 C703 1.387 . S
C702 H706 0.950 . S
C702 C711 1.390 . S
C703 C702 1.387 . S
C703 C705 1.387 . S
H704 C711 0.950 . S
C705 C703 1.387 . S
C705 C707 1.390 . S
C705 H709 0.950 . S
H706 C702 0.950 . S
C707 C705 1.390 . S
C707 C708 1.387 . S
C707 H710 0.950 . S
C708 C707 1.387 . S
C708 C711 1.387 . S
H709 C705 0.950 . S
H710 C707 0.950 . S
C711 C702 1.390 . S
C711 H704 0.950 . S
C711 C708 1.387 . S
C712 C713 1.387 . S
C712 H716 0.950 . S
C712 C721 1.390 1_556 S
C713 C712 1.387 . S
C713 C715 1.387 . S
H714 C721 0.950 . S
C715 C713 1.387 . S
C715 C717 1.390 1_556 S
C715 H719 0.950 . S
H716 C712 0.950 . S
C717 C715 1.390 1_554 S
C717 C718 1.387 . S
C717 H720 0.950 . S
C718 C717 1.387 . S
C718 C721 1.387 . S
H719 C715 0.950 . S
H720 C717 0.950 . S
C721 C712 1.390 1_554 S
C721 H714 0.950 . S
C721 C718 1.387 . S
C722 C723 1.387 . S
C722 H726 0.950 . S
C722 C731 1.390 1_554 S
C723 C722 1.387 . S
C723 C725 1.387 1_554 S
H724 C731 0.950 . S
C725 C723 1.387 1_556 S
C725 C727 1.390 . S
C725 H729 0.950 . S
H726 C722 0.950 . S
C727 C725 1.390 . S
C727 C728 1.387 . S
C727 H730 0.950 . S
C728 C727 1.387 . S
C728 C731 1.387 . S
H729 C725 0.950 . S
H730 C727 0.950 . S
C731 C722 1.390 1_556 S
C731 H724 0.950 . S
C731 C728 1.387 . S
C732 C733 1.387 . S
C732 H736 0.950 . S
C732 C741 1.390 1_556 S
C733 C732 1.387 . S
C733 C735 1.387 . S
H734 C741 0.950 . S
C735 C733 1.387 . S
C735 C737 1.390 1_556 S
C735 H739 0.950 . S
H736 C732 0.950 . S
C737 C735 1.390 1_554 S
C737 C738 1.387 . S
C737 H740 0.950 . S
C738 C737 1.387 . S
C738 C741 1.387 . S
H739 C735 0.950 . S
H740 C737 0.950 . S
C741 C732 1.390 1_554 S
C741 H734 0.950 . S
C741 C738 1.387 . S
C742 C743 1.387 1_556 S
C742 H746 0.950 1_556 S
C742 C751 1.390 . S
C743 C742 1.387 1_554 S
C743 C745 1.387 . S
H744 C751 0.950 . S
C745 C743 1.387 . S
C745 C747 1.390 1_554 S
C745 H749 0.950 . S
H746 C742 0.950 1_554 S
C747 C745 1.390 1_556 S
C747 C748 1.387 . S
C747 H750 0.950 . S
C748 C747 1.387 . S
C748 C751 1.387 . S
H749 C745 0.950 . S
H750 C747 0.950 . S
C751 C742 1.390 . S
C751 H744 0.950 . S
C751 C748 1.387 . S
C752 C753 1.387 . S
C752 H756 0.950 . S
C752 C761 1.390 . S
C753 C752 1.387 . S
C753 C755 1.387 . S
H754 C761 0.950 . S
C755 C753 1.387 . S
C755 C757 1.390 . S
C755 H759 0.950 . S
H756 C752 0.950 . S
C757 C755 1.390 . S
C757 C758 1.387 . S
C757 H760 0.950 . S
C758 C757 1.387 . S
C758 C761 1.387 . S
H759 C755 0.950 . S
H760 C757 0.950 . S
C761 C752 1.390 . S
C761 H754 0.950 . S
C761 C758 1.387 . S
C762 C763 1.387 . S
C762 H766 0.950 . S
C762 C771 1.390 . S
C763 C762 1.387 . S
C763 C765 1.387 . S
H764 C771 0.950 . S
C765 C763 1.387 . S
C765 C767 1.390 . S
C765 H769 0.950 . S
H766 C762 0.950 . S
C767 C765 1.390 . S
C767 C768 1.387 . S
C767 H770 0.950 . S
C768 C767 1.387 . S
C768 C771 1.387 . S
H769 C765 0.950 . S
H770 C767 0.950 . S
C771 C762 1.390 . S
C771 H764 0.950 . S
C771 C768 1.387 . S
C772 C773 1.387 . S
C772 H776 0.950 . S
C772 C781 1.390 . S
C773 C772 1.387 . S
C773 C775 1.387 . S
H774 C781 0.950 . S
C775 C773 1.387 . S
C775 C777 1.390 . S
C775 H779 0.950 . S
H776 C772 0.950 . S
C777 C775 1.390 . S
C777 C778 1.387 . S
C777 H780 0.950 . S
C778 C777 1.387 . S
C778 C781 1.387 . S
H779 C775 0.950 . S
H780 C777 0.950 . S
C781 C772 1.390 . S
C781 H774 0.950 . S
C781 C778 1.387 . S
C782 C783 1.387 . S
C782 H786 0.950 . S
C782 C791 1.390 . S
C783 C782 1.387 . S
C783 C785 1.387 . S
H784 C791 0.950 . S
C785 C783 1.387 . S
C785 C787 1.390 . S
C785 H789 0.950 . S
H786 C782 0.950 . S
C787 C785 1.390 . S
C787 C788 1.387 . S
C787 H790 0.950 . S
C788 C787 1.387 . S
C788 C791 1.387 . S
H789 C785 0.950 . S
H790 C787 0.950 . S
C791 C782 1.390 . S
C791 H784 0.950 . S
C791 C788 1.387 . S
C792 C793 1.387 1_554 S
C792 H796 0.951 . S
C792 C801 1.390 . S
C793 C792 1.387 1_556 S
C793 C795 1.387 . S
H794 C801 0.950 . S
C795 C793 1.387 . S
C795 C797 1.390 1_556 S
C795 H799 0.950 . S
H796 C792 0.951 . S
C797 C795 1.390 1_554 S
C797 C798 1.387 . S
C797 H800 0.950 . S
C798 C797 1.387 . S
C798 C801 1.387 . S
H799 C795 0.950 . S
H800 C797 0.950 . S
C801 C792 1.390 . S
C801 H794 0.950 . S
C801 C798 1.387 . S
C802 C803 1.387 . S
C802 H806 0.950 . S
C802 C811 1.390 1_556 S
C803 C802 1.387 . S
C803 C805 1.387 1_556 S
H804 C811 0.950 . S
C805 C803 1.387 1_554 S
C805 C807 1.390 . S
C805 H809 0.950 . S
H806 C802 0.950 . S
C807 C805 1.390 . S
C807 C808 1.387 . S
C807 H810 0.950 . S
C808 C807 1.387 . S
C808 C811 1.387 . S
H809 C805 0.950 . S
H810 C807 0.950 . S
C811 C802 1.390 1_554 S
C811 H804 0.950 . S
C811 C808 1.387 . S
C812 C813 1.387 . S
C812 H816 0.950 . S
C812 C821 1.390 1_554 S
C813 C812 1.387 . S
C813 C815 1.387 . S
H814 C821 0.950 . S
C815 C813 1.387 . S
C815 C817 1.390 1_554 S
C815 H819 0.950 . S
H816 C812 0.950 . S
C817 C815 1.390 1_556 S
C817 C818 1.387 . S
C817 H820 0.950 . S
C818 C817 1.387 . S
C818 C821 1.387 . S
H819 C815 0.950 . S
H820 C817 0.950 . S
C821 C812 1.390 1_556 S
C821 H814 0.950 . S
C821 C818 1.387 . S
C822 C823 1.387 . S
C822 H826 0.950 . S
C822 C831 1.390 . S
C823 C822 1.387 . S
C823 C825 1.387 . S
H824 C831 0.950 . S
C825 C823 1.387 . S
C825 C827 1.390 1_554 S
C825 H829 0.950 . S
H826 C822 0.950 . S
C827 C825 1.390 1_556 S
C827 C828 1.387 . S
C827 H830 0.950 . S
C828 C827 1.387 . S
C828 C831 1.387 1_556 S
H829 C825 0.950 . S
H830 C827 0.950 . S
C831 C822 1.390 . S
C831 H824 0.950 . S
C831 C828 1.387 1_554 S
C353 C5 2.236 . S
C358 C119 2.236 . S
C363 C141 2.235 . S
C368 C27 2.234 . S
C373 C49 2.233 . S
C378 C163 2.234 . S
C383 C75 2.233 . S
C388 C93 2.233 . S
C393 C293 2.233 . S
C398 C182 2.234 . S
C403 C315 2.235 . S
C408 C205 2.234 . S
C413 C227 2.234 . S
C418 C336 2.235 . S
C423 C249 2.233 . S
C428 C271 2.233 . S
C433 C4 1.662 . S
C438 C73 1.523 . S
C443 C26 1.662 . S
C448 C6 1.523 . S
C453 C48 1.662 . S
C458 C28 1.522 . S
C463 C74 1.662 . S
C468 C50 1.523 . S
C473 C92 1.661 . S
C478 C117 1.520 . S
C483 C139 1.519 . S
C488 C118 1.662 . S
C493 C140 1.662 . S
C498 C161 1.523 . S
C503 C94 1.523 . S
C508 C162 1.662 . S
C513 C251 1.522 . S
C518 C180 1.662 . S
C523 C206 1.662 . S
C528 C181 1.523 . S
C533 C228 1.662 . S
C538 C207 1.522 . S
C543 C250 1.661 . S
C548 C229 1.520 . S
C553 C272 1.661 . S
C558 C295 1.520 . S
C563 C294 1.661 . S
C568 C317 1.520 . S
C573 C316 1.662 . S
C578 C335 1.522 . S
C583 C334 1.662 . S
C588 C273 1.523 . S
C593 C7 0.635 . S
C598 C51 0.635 . S
C603 C29 0.643 . S
C608 C72 0.643 . S
C613 C138 0.635 . S
C618 C95 0.635 . S
C623 C160 0.635 . S
C628 C116 0.635 . S
C633 C225 0.643 . S
C638 C185 0.643 . S
C643 C247 0.635 . S
C648 C203 0.635 . S
C653 C269 0.635 . S
C658 C313 0.635 . S
C663 C291 0.643 . S
C668 C339 0.643 . S
C673 C8 1.349 . S
C678 C248 1.337 . S
C683 C183 1.336 . S
C688 C30 1.348 . S
C693 C52 1.348 . S
C698 C204 1.337 . S
C703 C226 1.338 . S
C708 C70 1.349 . S
C713 C292 1.337 . S
C718 C96 1.349 . S
C723 C114 1.348 . S
C728 C314 1.337 . S
C733 C337 1.337 . S
C738 C136 1.349 . S
C743 C158 1.348 . S
C748 C270 1.336 . S
C753 C184 1.349 . S
C758 C71 1.337 . S
C763 C202 1.349 . S
C768 C9 1.337 . S
C773 C31 1.337 . S
C778 C224 1.349 . S
C783 C246 1.349 . S
C788 C53 1.337 . S
C793 C268 1.349 . S
C798 C115 1.338 . S
C803 C290 1.348 . S
C808 C137 1.336 . S
C813 C159 1.336 . S
C818 C312 1.348 . S
C823 C97 1.337 . S
C828 C338 1.349 . S
