# Generated by pormake.
# Topology rob, (6)-cn, num edge types: 1
# Building blocks:
#     Node 0, Type 0, BuildingBlock: BETDEL_clean_sbu_0, # of connection points: 6
#     Node 1, Type 0, BuildingBlock: BETDEL_clean_sbu_0, # of connection points: 6
#     Node 2, Type 0, BuildingBlock: BETDEL_clean_sbu_0, # of connection points: 6
#     Node 3, Type 0, BuildingBlock: BETDEL_clean_sbu_0, # of connection points: 6
#     Edge 4, Type (0, 0), BuildingBlock: ZUJKAS_clean_linker_0, # of connection points: 2
#     Edge 5, Type (0, 0), BuildingBlock: ZUJKAS_clean_linker_0, # of connection points: 2
#     Edge 6, Type (0, 0), BuildingBlock: ZUJKAS_clean_linker_0, # of connection points: 2
#     Edge 7, Type (0, 0), BuildingBlock: ZUJKAS_clean_linker_0, # of connection points: 2
#     Edge 8, Type (0, 0), BuildingBlock: ZUJKAS_clean_linker_0, # of connection points: 2
#     Edge 9, Type (0, 0), BuildingBlock: ZUJKAS_clean_linker_0, # of connection points: 2
#     Edge 10, Type (0, 0), BuildingBlock: ZUJKAS_clean_linker_0, # of connection points: 2
#     Edge 11, Type (0, 0), BuildingBlock: ZUJKAS_clean_linker_0, # of connection points: 2
#     Edge 12, Type (0, 0), BuildingBlock: ZUJKAS_clean_linker_0, # of connection points: 2
#     Edge 13, Type (0, 0), BuildingBlock: ZUJKAS_clean_linker_0, # of connection points: 2
#     Edge 14, Type (0, 0), BuildingBlock: ZUJKAS_clean_linker_0, # of connection points: 2
#     Edge 15, Type (0, 0), BuildingBlock: ZUJKAS_clean_linker_0, # of connection points: 2
# Relax obj value: 0.070
# Max RMSD: 0.159
# Mean RMSD: 0.159
data_MOF--net-rob--node1-BETDEL_clean_sbu_0--edge1-ZUJKAS_clean_linker_0
_symmetry_space_group_name_H-M    P1
_symmetry_Int_Tables_number       1
_symmetry_cell_setting            triclinic
loop_
_symmetry_equiv_pos_as_xyz
'x, y, z'
_cell_length_a     16.498649
_cell_length_b     33.609153
_cell_length_c     37.720292
_cell_angle_alpha  89.954635
_cell_angle_beta   102.5196
_cell_angle_gamma 90.140151
loop_
_atom_site_label
_atom_site_type_symbol
_atom_site_fract_x
_atom_site_fract_y
_atom_site_fract_z
_atom_type_partial_charge
Dy0 Dy 0.15866 0.2736 0.01998 0.0
C1 C 0.39252 0.26411 0.92184 0.0
C2 C 0.06084 0.255 0.06744 0.0
Dy3 Dy 0.3026 0.26229 0.97469 0.0
O4 O 0.05314 0.28702 0.04744 0.0
O5 O 0.11872 0.23251 0.05981 0.0
O6 O 0.18624 0.33921 0.0336 0.0
O7 O 0.25945 0.30614 0.00732 0.0
C8 C 0.25069 0.34039 0.01895 0.0
C9 C 0.22107 0.19696 0.98902 0.0
O10 O 0.38114 0.26096 0.03074 0.0
O11 O 0.26938 0.24803 0.05839 0.0
O12 O 0.33576 0.23816 0.92438 0.0
O13 O 0.40209 0.28898 0.94891 0.0
O14 O 0.29853 0.19688 0.98658 0.0
O15 O 0.19014 0.23101 0.98144 0.0
O16 O 0.08438 0.28039 0.96324 0.0
O17 O 0.19922 0.29569 0.93846 0.0
C18 C 0.35005 0.25017 0.05896 0.0
C19 C 0.11792 0.29415 0.93661 0.0
Dy20 Dy 0.68166 0.77244 0.02534 0.0
C21 C 0.91309 0.77541 0.92874 0.0
C22 C 0.6022 0.77512 0.08159 0.0
Dy23 Dy 0.81911 0.75757 0.9778 0.0
O24 O 0.65959 0.79953 0.07651 0.0
O25 O 0.58594 0.74937 0.05516 0.0
O26 O 0.68208 0.83667 0.00904 0.0
O27 O 0.79134 0.8031 0.01462 0.0
C28 C 0.75872 0.8365 0.00546 0.0
C29 C 0.73011 0.69113 0.98353 0.0
O30 O 0.89839 0.75175 0.03364 0.0
O31 O 0.78646 0.73983 0.06126 0.0
O32 O 0.92071 0.74318 0.94847 0.0
O33 O 0.85707 0.79843 0.93728 0.0
O34 O 0.79101 0.69174 0.9666 0.0
O35 O 0.72365 0.72549 0.9955 0.0
O36 O 0.59685 0.76909 0.9709 0.0
O37 O 0.70304 0.77704 0.93885 0.0
C38 C 0.86706 0.73987 0.0615 0.0
C39 C 0.62358 0.77531 0.94063 0.0
Dy40 Dy 0.31133 0.77641 0.48142 0.0
C41 C 0.07344 0.76665 0.57131 0.0
C42 C 0.41319 0.76699 0.43375 0.0
Dy43 Dy 0.17143 0.76278 0.52133 0.0
O44 O 0.3999 0.80042 0.44876 0.0
O45 O 0.3736 0.73857 0.44605 0.0
O46 O 0.30303 0.84234 0.48891 0.0
O47 O 0.1953 0.8073 0.48294 0.0
C48 C 0.22483 0.84179 0.48985 0.0
C49 C 0.25818 0.69781 0.51164 0.0
O50 O 0.0934 0.75798 0.46518 0.0
O51 O 0.20864 0.7486 0.4399 0.0
O52 O 0.10536 0.73453 0.56115 0.0
O53 O 0.09164 0.79666 0.55269 0.0
O54 O 0.17923 0.69726 0.5111 0.0
O55 O 0.28755 0.7321 0.51974 0.0
O56 O 0.38739 0.77923 0.53795 0.0
O57 O 0.27214 0.79394 0.56132 0.0
C58 C 0.12749 0.74749 0.43785 0.0
C59 C 0.35359 0.79251 0.56445 0.0
Dy60 Dy 0.80949 0.27559 0.4764 0.0
C61 C 0.57967 0.27527 0.57029 0.0
C62 C 0.90284 0.26382 0.42545 0.0
Dy63 Dy 0.67311 0.26538 0.51917 0.0
O64 O 0.89269 0.29777 0.44031 0.0
O65 O 0.86551 0.23612 0.43989 0.0
O66 O 0.80332 0.34194 0.48231 0.0
O67 O 0.69532 0.30769 0.47873 0.0
C68 C 0.72574 0.34213 0.4843 0.0
C69 C 0.7572 0.19896 0.51093 0.0
O70 O 0.59162 0.26153 0.46375 0.0
O71 O 0.70312 0.24646 0.43775 0.0
O72 O 0.59337 0.24156 0.55588 0.0
O73 O 0.61348 0.30381 0.55529 0.0
O74 O 0.67937 0.19911 0.51247 0.0
O75 O 0.78741 0.23339 0.51689 0.0
O76 O 0.89019 0.27986 0.53215 0.0
O77 O 0.77815 0.29532 0.55765 0.0
C78 C 0.62229 0.24795 0.43643 0.0
C79 C 0.85901 0.29375 0.55925 0.0
H80 H 0.59727 0.68638 0.01608 0.0
H81 H 0.51621 0.62675 0.0237 0.0
H82 H 0.66963 0.55663 0.96858 0.0
H83 H 0.75107 0.61584 0.96144 0.0
H84 H 0.42626 0.57621 0.96912 0.0
H85 H 0.67592 0.49338 0.06206 0.0
H86 H 0.68283 0.54604 0.05359 0.0
H87 H 0.70389 0.51045 0.0212 0.0
C88 C 0.61398 0.65816 0.00596 0.0
C89 C 0.68084 0.65563 0.98854 0.0
C90 C 0.5676 0.62417 0.01019 0.0
C91 C 0.58778 0.58709 0.99725 0.0
C92 C 0.65407 0.5847 0.9795 0.0
H93 H 0.38932 0.34641 0.99049 0.0
H94 H 0.46901 0.40676 0.98407 0.0
C95 C 0.70025 0.61861 0.97526 0.0
C96 C 0.53822 0.55104 0.00123 0.0
H97 H 0.55282 0.45726 0.03709 0.0
C98 C 0.4537 0.55029 0.98419 0.0
C99 C 0.57431 0.51717 0.02073 0.0
C100 C 0.66404 0.51677 0.04073 0.0
C101 C 0.40466 0.51627 0.98544 0.0
C102 C 0.44077 0.48234 0.0049 0.0
C103 C 0.52525 0.48319 0.02207 0.0
C104 C 0.39176 0.44585 0.00817 0.0
C105 C 0.3152 0.51664 0.96507 0.0
C106 C 0.32263 0.44758 0.02422 0.0
C107 C 0.27679 0.41323 0.02746 0.0
C108 C 0.29958 0.3764 0.01501 0.0
C109 C 0.3696 0.37449 -0.0004 0.0
C110 C 0.41535 0.40891 0.99618 0.0
H111 H 0.30394 0.53982 0.94355 0.0
H112 H 0.29644 0.4873 0.95236 0.0
H113 H 0.27484 0.52332 0.98431 0.0
H114 H 0.3045 0.47547 0.03457 0.0
H115 H 0.22363 0.41552 0.03989 0.0
H116 H 0.20212 0.62202 0.49818 0.0
H117 H 0.28372 0.56223 0.49378 0.0
H118 H 0.50702 0.6332 0.51092 0.0
H119 H 0.42567 0.69312 0.51607 0.0
H120 H 0.38297 0.5434 0.44622 0.0
H121 H 0.5687 0.54678 0.58779 0.0
H122 H 0.47744 0.57705 0.57292 0.0
H123 H 0.57466 0.59162 0.56256 0.0
C124 C 0.26866 0.62486 0.5011 0.0
C125 C 0.30771 0.66213 0.50777 0.0
C126 C 0.31518 0.59069 0.49853 0.0
C127 C 0.40167 0.59308 0.50266 0.0
C128 C 0.44062 0.63048 0.50849 0.0
H129 H 0.78391 0.41802 0.49449 0.0
H130 H 0.70437 0.47866 0.49857 0.0
C131 C 0.39407 0.66471 0.51118 0.0
C132 C 0.45053 0.5564 0.5005 0.0
H133 H 0.60622 0.49841 0.54857 0.0
C134 C 0.43162 0.53349 0.46863 0.0
C135 C 0.51393 0.54346 0.5298 0.0
C136 C 0.53458 0.56576 0.56534 0.0
C137 C 0.47514 0.49835 0.46505 0.0
C138 C 0.53847 0.48544 0.49434 0.0
C139 C 0.55761 0.50837 0.52617 0.0
C140 C 0.58624 0.4484 0.49235 0.0
C141 C 0.4541 0.47576 0.42968 0.0
C142 C 0.54643 0.41116 0.48812 0.0
C143 C 0.59177 0.37646 0.48577 0.0
C144 C 0.67773 0.37845 0.48775 0.0
C145 C 0.71765 0.41564 0.49268 0.0
C146 C 0.67235 0.45028 0.49507 0.0
H147 H 0.41891 0.4944 0.40723 0.0
H148 H 0.51121 0.46474 0.42189 0.0
H149 H 0.41502 0.44965 0.43288 0.0
H150 H 0.4803 0.40893 0.48669 0.0
H151 H 0.55952 0.34815 0.48222 0.0
H152 H 0.2793 0.12139 0.00078 0.0
H153 H 0.19889 0.06049 0.00311 0.0
H154 H 0.97461 0.12978 0.98976 0.0
H155 H 0.05474 0.19086 0.98689 0.0
H156 H 0.09684 0.03753 0.04977 0.0
H157 H 0.91796 0.04817 0.90727 0.0
H158 H 0.00932 0.0779 0.92437 0.0
H159 H 0.91151 0.09129 0.93462 0.0
C160 C 0.21287 0.12365 -0.00154 0.0
C161 C 0.17309 0.16078 0.99333 0.0
C162 C 0.16704 0.08885 -0.00019 0.0
C163 C 0.08056 0.0905 0.99589 0.0
C164 C 0.04103 0.12773 0.99201 0.0
H165 H 0.69864 0.9117 0.99251 0.0
H166 H 0.77787 0.97288 0.98962 0.0
C167 C 0.08689 0.1626 0.99064 0.0
C168 C 0.03211 0.05316 0.9957 0.0
H169 H 0.87987 0.9965 0.94321 0.0
C170 C 0.04956 0.02848 0.02645 0.0
C171 C 0.97052 0.04139 0.96521 0.0
C172 C 0.95148 0.06583 0.93084 0.0
C173 C 0.00614 0.99268 0.02778 0.0
C174 C 0.94469 0.98086 0.99725 0.0
C175 C 0.92712 1.00557 0.96653 0.0
C176 C 0.89674 0.94335 0.997 0.0
C177 C 0.02512 0.96829 0.06218 0.0
C178 C 0.93694 0.90629 0.00106 0.0
C179 C 0.89178 0.87128 0.00276 0.0
C180 C 0.80559 0.87276 0.0002 0.0
C181 C 0.76507 0.90969 0.99471 0.0
C182 C 0.81023 0.94466 0.99306 0.0
H183 H 0.05811 0.98606 0.08578 0.0
H184 H 0.96734 0.95601 0.06852 0.0
H185 H 0.06563 0.94299 0.05854 0.0
H186 H 0.0034 0.90449 0.00332 0.0
H187 H 0.92454 0.84318 0.00679 0.0
H188 H 0.69943 0.12301 0.50125 0.0
H189 H 0.77932 0.06231 0.49801 0.0
H190 H 0.0032 0.13214 0.50956 0.0
H191 H 0.9236 0.193 0.51327 0.0
H192 H 0.87709 0.04125 0.44891 0.0
H193 H 0.06531 0.04831 0.58996 0.0
H194 H 0.9733 0.07802 0.57478 0.0
H195 H 0.06961 0.09239 0.56347 0.0
C196 C 0.76572 0.12541 0.50316 0.0
C197 C 0.80549 0.16265 0.50781 0.0
C198 C 0.81124 0.09073 0.50125 0.0
C199 C 0.89741 0.09261 0.50415 0.0
C200 C 0.93704 0.1299 0.50804 0.0
H201 H 0.28088 0.91789 0.50057 0.0
H202 H 0.19956 0.97808 0.50369 0.0
C203 C 0.89149 0.16465 0.50994 0.0
C204 C 0.94537 0.0555 0.50277 0.0
H205 H 0.10129 0.99842 0.5518 0.0
C206 C 0.92591 0.03177 0.47144 0.0
C207 C 0.00896 0.04318 0.53223 0.0
C208 C 0.03027 0.06656 0.56717 0.0
C209 C 0.96946 0.99647 0.46846 0.0
C210 C 0.03313 0.98417 0.49791 0.0
C211 C 0.05244 1.00786 0.52927 0.0
C212 C 0.08178 0.94728 0.49644 0.0
C213 C 0.94832 0.97321 0.43345 0.0
C214 C 0.04282 0.90983 0.49192 0.0
C215 C 0.08922 0.87535 0.49001 0.0
C216 C 0.17542 0.87777 0.49284 0.0
C217 C 0.21447 0.91515 0.49812 0.0
C218 C 0.16811 0.94955 0.49996 0.0
H219 H 0.91353 0.99155 0.41068 0.0
H220 H 0.00532 0.96171 0.42589 0.0
H221 H 0.90875 0.94741 0.43701 0.0
H222 H 0.97654 0.90725 0.48993 0.0
H223 H 0.05763 0.84688 0.48615 0.0
H224 H 0.63157 0.18316 0.39584 0.0
H225 H 0.58043 0.17844 0.33014 0.0
H226 H 0.44815 0.28888 0.33101 0.0
H227 H 0.49799 0.29318 0.39721 0.0
H228 H 0.36676 0.23301 0.27857 0.0
H229 H 0.69631 0.25689 0.27282 0.0
H230 H 0.68083 0.2135 0.29836 0.0
H231 H 0.65938 0.262 0.3142 0.0
C232 C 0.58866 0.20549 0.38215 0.0
C233 C 0.56849 0.23852 0.40124 0.0
C234 C 0.56037 0.20303 0.34468 0.0
C235 C 0.51288 0.23395 0.32579 0.0
C236 C 0.48553 0.26494 0.34524 0.0
H237 H 0.46437 0.29935 0.09957 0.0
H238 H 0.51279 0.29445 0.1658 0.0
C239 C 0.51317 0.26719 0.38297 0.0
C240 C 0.49961 0.23589 0.28586 0.0
H241 H 0.60365 0.24094 0.21691 0.0
C242 C 0.41836 0.23478 0.26503 0.0
C243 C 0.56731 0.23925 0.26845 0.0
C244 C 0.65582 0.24339 0.2896 0.0
C245 C 0.40294 0.23573 0.227 0.0
C246 C 0.47089 0.23692 0.20957 0.0
C247 C 0.552 0.23925 0.23043 0.0
C248 C 0.45814 0.23637 0.16962 0.0
C249 C 0.31398 0.23601 0.20587 0.0
C250 C 0.41701 0.20417 0.14993 0.0
C251 C 0.38965 0.20696 0.11242 0.0
C252 C 0.40462 0.24163 0.09411 0.0
C253 C 0.45363 0.27208 0.11321 0.0
C254 C 0.48031 0.26947 0.15096 0.0
H255 H 0.27064 0.24572 0.22296 0.0
H256 H 0.30635 0.256 0.18193 0.0
H257 H 0.2958 0.20548 0.19603 0.0
H258 H 0.40118 0.17801 0.16384 0.0
H259 H 0.35125 0.18332 0.09807 0.0
H260 H 0.5144 0.71551 0.10593 0.0
H261 H 0.48272 0.7102 0.16649 0.0
H262 H 0.59126 0.82603 0.19418 0.0
H263 H 0.62425 0.83107 0.13431 0.0
H264 H 0.65199 0.77121 0.24569 0.0
H265 H 0.30829 0.76522 0.21025 0.0
H266 H 0.35553 0.7262 0.18931 0.0
H267 H 0.36893 0.77726 0.17731 0.0
C268 C 0.5299 0.74008 0.12477 0.0
C269 C 0.57152 0.77373 0.11549 0.0
C270 C 0.51185 0.73705 0.15931 0.0
C271 C 0.53437 0.76781 0.18483 0.0
C272 C 0.57353 0.80191 0.17501 0.0
H273 H 0.48818 0.82519 0.40193 0.0
H274 H 0.52394 0.82253 0.34222 0.0
C275 C 0.59195 0.80483 0.14072 0.0
C276 C 0.52138 0.76401 0.22241 0.0
H277 H 0.37255 0.75261 0.27204 0.0
C278 C 0.59083 0.76719 0.25142 0.0
C279 C 0.44163 0.75871 0.22989 0.0
C280 C 0.36426 0.75701 0.20005 0.0
C281 C 0.58255 0.76542 0.28765 0.0
C282 C 0.50291 0.76032 0.29504 0.0
C283 C 0.43364 0.75636 0.26616 0.0
C284 C 0.4896 0.76065 0.33259 0.0
C285 C 0.65887 0.76896 0.31784 0.0
C286 C 0.45964 0.7266 0.34707 0.0
C287 C 0.43986 0.72797 0.38126 0.0
C288 C 0.44873 0.7636 0.40124 0.0
C289 C 0.48146 0.79728 0.38723 0.0
C290 C 0.50176 0.7958 0.35315 0.0
H291 H 0.7167 0.76436 0.30793 0.0
H292 H 0.66129 0.79917 0.32987 0.0
H293 H 0.65681 0.74702 0.33967 0.0
H294 H 0.44971 0.69925 0.33153 0.0
H295 H 0.4141 0.70165 0.39129 0.0
H296 H 0.57017 0.71588 0.89409 0.0
H297 H 0.52199 0.7239 0.8284 0.0
H298 H 0.50449 0.85077 0.8425 0.0
H299 H 0.55528 0.84272 0.90828 0.0
H300 H 0.39031 0.75708 0.78 0.0
H301 H 0.68192 0.84178 0.78283 0.0
H302 H 0.66528 0.8131 0.82111 0.0
H303 H 0.61754 0.86106 0.81142 0.0
C304 C 0.55227 0.7452 0.88319 0.0
C305 C 0.56487 0.77866 0.90586 0.0
C306 C 0.52574 0.74983 0.84574 0.0
C307 C 0.51211 0.78803 0.83064 0.0
C308 C 0.51672 0.82115 0.85367 0.0
H309 H 0.32554 0.85045 0.60954 0.0
H310 H 0.37903 0.85249 0.67516 0.0
C311 C 0.544 0.81652 0.89117 0.0
C312 C 0.50093 0.79317 0.79098 0.0
H313 H 0.59021 0.83434 0.72572 0.0
C314 C 0.43395 0.77397 0.76816 0.0
C315 C 0.55924 0.81454 0.77567 0.0
C316 C 0.63554 0.8335 0.79893 0.0
C317 C 0.42277 0.77623 0.73034 0.0
C318 C 0.47934 0.79866 0.71515 0.0
C319 C 0.54696 0.81743 0.73776 0.0
C320 C 0.46533 0.80414 0.67562 0.0
C321 C 0.35048 0.75472 0.70665 0.0
C322 C 0.50002 0.77767 0.65429 0.0
C323 C 0.46994 0.77662 0.61663 0.0
C324 C 0.40455 0.80177 0.60042 0.0
C325 C 0.3759 0.83072 0.62156 0.0
C326 C 0.40627 0.83194 0.65895 0.0
H327 H 0.31859 0.73453 0.72259 0.0
H328 H 0.30498 0.77679 0.69234 0.0
H329 H 0.37196 0.73693 0.68567 0.0
H330 H 0.54553 0.75593 0.66699 0.0
H331 H 0.4922 0.75381 0.60085 0.0
H332 H 0.5757 0.34242 0.61057 0.0
H333 H 0.55437 0.34605 0.67289 0.0
H334 H 0.50206 0.2202 0.67054 0.0
H335 H 0.52406 0.2163 0.60852 0.0
H336 H 0.41934 0.32512 0.70424 0.0
H337 H 0.69633 0.23292 0.7592 0.0
H338 H 0.67867 0.25593 0.71492 0.0
H339 H 0.62608 0.21044 0.72144 0.0
C340 C 0.55817 0.31569 0.62315 0.0
C341 C 0.55175 0.27904 0.60479 0.0
C342 C 0.5465 0.31777 0.65879 0.0
C343 C 0.52871 0.28322 0.67662 0.0
C344 C 0.51777 0.24704 0.65757 0.0
H345 H 0.3866 0.20966 0.86849 0.0
H346 H 0.43066 0.21814 0.8111 0.0
C347 C 0.52941 0.24493 0.62201 0.0
C348 C 0.5226 0.28463 0.71528 0.0
H349 H 0.60189 0.2431 0.79826 0.0
C350 C 0.45998 0.3077 0.72494 0.0
C351 C 0.57653 0.26227 0.74233 0.0
C352 C 0.64877 0.2393 0.73413 0.0
C353 C 0.447 0.30726 0.76055 0.0
C354 C 0.49803 0.2832 0.78705 0.0
C355 C 0.56268 0.26136 0.77777 0.0
C356 C 0.47979 0.27742 0.82345 0.0
C357 C 0.37658 0.33108 0.76937 0.0
C358 C 0.49506 0.30761 0.84981 0.0
C359 C 0.4705 0.3027 0.88289 0.0
C360 C 0.42993 0.26765 0.8898 0.0
C361 C 0.41772 0.23699 0.86387 0.0
C362 C 0.44278 0.24177 0.83108 0.0
H363 H 0.33971 0.34651 0.74514 0.0
H364 H 0.33478 0.31129 0.78087 0.0
H365 H 0.40177 0.35378 0.79023 0.0
H366 H 0.52405 0.33525 0.8444 0.0
H367 H 0.48027 0.32684 0.90237 0.0
H368 H 0.99453 0.7826 0.10165 0.0
H369 H 0.04603 0.77538 0.1674 0.0
H370 H 0.90802 0.66587 0.16531 0.0
H371 H 0.85501 0.67365 0.10001 0.0
H372 H 0.86227 0.72429 0.20875 0.0
H373 H 0.20554 0.70617 0.24019 0.0
H374 H 0.16466 0.74449 0.20805 0.0
H375 H 0.1412 0.69335 0.1965 0.0
C376 C 0.97883 0.75603 0.11503 0.0
C377 C 0.92146 0.72853 0.09605 0.0
C378 C 0.00788 0.75198 0.15258 0.0
C379 C 0.98066 0.72007 0.17118 0.0
C380 C 0.92965 0.69067 0.15145 0.0
H381 H 0.13928 0.67997 0.4015 0.0
H382 H 0.09119 0.67007 0.33612 0.0
C383 C 0.9 0.69495 0.11418 0.0
C384 C 0.99381 0.72049 0.21121 0.0
H385 H 0.14239 0.72009 0.28954 0.0
C386 C 0.9235 0.72295 0.22649 0.0
C387 C 0.07359 0.71894 0.23412 0.0
C388 C 0.15076 0.71526 0.21905 0.0
C389 C 0.93084 0.72412 0.26419 0.0
C390 C 0.01072 0.72333 0.28716 0.0
C391 C 0.08106 0.7206 0.27185 0.0
C392 C 0.02373 0.72561 0.3272 0.0
C393 C 0.85302 0.72615 0.27895 0.0
C394 C -0.00188 0.75918 0.34412 0.0
C395 C 0.02397 0.76436 0.38171 0.0
C396 C 0.07662 0.73632 0.40248 0.0
C397 C 0.09753 0.70161 0.38592 0.0
C398 C 0.07087 0.69617 0.3486 0.0
H399 H 0.79796 0.71502 0.25897 0.0
H400 H 0.85952 0.70876 0.30444 0.0
H401 H 0.84132 0.75767 0.28492 0.0
H402 H 0.96311 0.78264 0.32806 0.0
H403 H 0.00918 0.79183 0.3939 0.0
H404 H 0.89164 0.19779 0.38289 0.0
H405 H 0.91833 0.19319 0.32161 0.0
H406 H 0.00309 0.31496 0.32882 0.0
H407 H 0.97591 0.31987 0.3901 0.0
H408 H 0.8401 0.24528 0.26222 0.0
H409 H 0.18506 0.25136 0.29057 0.0
H410 H 0.12843 0.23732 0.32465 0.0
H411 H 0.13509 0.28867 0.31248 0.0
C412 C 0.91771 0.22332 0.37174 0.0
C413 C 0.93223 0.25914 0.39134 0.0
C414 C 0.93241 0.2207 0.33666 0.0
C415 C 0.96299 0.25366 0.32074 0.0
C416 C 0.98038 0.28903 0.34076 0.0
H417 H 0.95723 0.30496 0.09397 0.0
H418 H 0.926 0.30286 0.15469 0.0
C419 C 0.96498 0.29178 0.37576 0.0
C420 C 0.97185 0.25173 0.28246 0.0
H421 H 0.11428 0.255 0.22898 0.0
C422 C 0.89998 0.24733 0.2549 0.0
C423 C 0.05011 0.2542 0.27307 0.0
C424 C 0.12935 0.25785 0.30166 0.0
C425 C 0.90422 0.24585 0.21809 0.0
C426 C 0.98241 0.24887 0.20867 0.0
C427 C 0.05435 0.25279 0.23628 0.0
C428 C 0.99162 0.24774 0.17039 0.0
C429 C 0.82528 0.24058 0.1896 0.0
C430 C 0.03759 0.21716 0.15887 0.0
C431 C 0.05493 0.21817 0.12421 0.0
C432 C 0.02746 0.25006 0.10054 0.0
C433 C 0.97845 0.27983 0.11149 0.0
C434 C 0.96067 0.27868 0.14618 0.0
H435 H 0.77284 0.23049 0.20157 0.0
H436 H 0.80788 0.26946 0.17578 0.0
H437 H 0.83436 0.21874 0.16874 0.0
H438 H 0.06223 0.19309 0.17714 0.0
H439 H 0.09335 0.19494 0.11666 0.0
H440 H 0.84921 0.36005 0.59762 0.0
H441 H 0.89766 0.3671 0.66324 0.0
H442 H 0.02793 0.25549 0.66694 0.0
H443 H 0.98046 0.2488 0.60085 0.0
H444 H 0.8466 0.31084 0.70745 0.0
H445 H 0.18973 0.32579 0.73842 0.0
H446 H 0.12709 0.33395 0.6935 0.0
H447 H 0.15086 0.28416 0.70989 0.0
C448 C 0.89146 0.338 0.61228 0.0
C449 C 0.91201 0.3041 0.59442 0.0
C450 C 0.91831 0.34183 0.64973 0.0
C451 C 0.96579 0.31171 0.66992 0.0
C452 C 0.99212 0.2793 0.65175 0.0
H453 H 0.9936 0.25037 0.89549 0.0
H454 H 0.94411 0.25711 0.82961 0.0
C455 C 0.96568 0.27562 0.61403 0.0
C456 C 0.97842 0.31203 0.70993 0.0
H457 H 0.12683 0.31316 0.78826 0.0
C458 C 0.90786 0.31165 0.72521 0.0
C459 C 0.05822 0.31299 0.73285 0.0
C460 C 0.13587 0.31458 0.71789 0.0
C461 C 0.91504 0.31228 0.76295 0.0
C462 C 0.99499 0.31274 0.78591 0.0
C463 C 0.06547 0.31301 0.77056 0.0
C464 C 0.00825 0.31282 0.826 0.0
C465 C 0.83716 0.31302 0.7778 0.0
C466 C 0.05823 0.34249 0.84591 0.0
C467 C 0.08705 0.33839 0.88325 0.0
C468 C 0.06554 0.30481 0.90135 0.0
C469 C 0.00937 0.27693 0.88213 0.0
C470 C 0.98141 0.28073 0.8445 0.0
H471 H 0.7826 0.32328 0.7571 0.0
H472 H 0.82362 0.28249 0.78616 0.0
H473 H 0.84494 0.33268 0.80194 0.0
H474 H 0.07946 0.36751 0.83218 0.0
H475 H 0.13101 0.36001 0.8976 0.0
H476 H 0.02277 0.83348 0.60183 0.0
H477 H 0.99503 0.83939 0.6631 0.0
H478 H 0.03039 0.71306 0.67878 0.0
H479 H 0.05727 0.70683 0.61773 0.0
H480 H 0.87208 0.7898 0.69853 0.0
H481 H 0.20853 0.77473 0.76132 0.0
H482 H 0.17136 0.79204 0.71531 0.0
H483 H 0.1647 0.74023 0.72577 0.0
C484 C 0.02275 0.80689 0.61807 0.0
C485 C 0.04214 0.7697 0.60506 0.0
C486 C 0.00733 0.81033 0.65305 0.0
C487 C 0.01184 0.77672 0.67551 0.0
C488 C 0.02737 0.73936 0.66192 0.0
H489 H -0.00012 0.72168 0.89742 0.0
H490 H 0.02691 0.72502 0.83611 0.0
C491 C 0.04219 0.73585 0.62697 0.0
C492 C 0.00394 0.78062 0.71371 0.0
H493 H 0.11586 0.77497 0.80108 0.0
C494 C 0.92525 0.78689 0.72103 0.0
C495 C 0.07358 0.77667 0.74284 0.0
C496 C 0.15963 0.77078 0.73619 0.0
C497 C 0.91394 0.78818 0.75689 0.0
C498 C 0.98369 0.78401 0.78616 0.0
C499 C 0.06255 0.77825 0.7787 0.0
C500 C 0.97549 0.78402 0.82463 0.0
C501 C 0.82704 0.79278 0.76301 0.0
C502 C 0.94122 0.81678 0.83917 0.0
C503 C 0.92569 0.81489 0.87414 0.0
C504 C 0.94508 0.78039 0.89534 0.0
C505 C 0.98453 0.74868 0.88172 0.0
C506 C -0.00038 0.7505 0.84664 0.0
H507 H 0.77924 0.7852 0.73833 0.0
H508 H 0.81712 0.77371 0.78575 0.0
H509 H 0.81757 0.82422 0.77002 0.0
H510 H 0.92423 0.84338 0.82309 0.0
H511 H 0.89542 0.83984 0.884 0.0
loop_
_geom_bond_atom_site_label_1
_geom_bond_atom_site_label_2
_geom_bond_distance
_geom_bond_site_symmetry_2
_ccdc_geom_bond_type
Dy0 O4 2.398 . S
Dy0 O5 2.491 . S
Dy0 O6 2.403 . S
Dy0 O7 2.664 1_554 S
Dy0 O11 2.326 . S
Dy0 O15 2.310 . S
Dy0 O16 2.351 1_554 S
C1 O12 1.185 . S
C1 O13 1.355 . S
C2 O4 1.185 . S
C2 O5 1.355 . S
Dy3 O7 2.310 . S
Dy3 O10 2.351 1_556 S
Dy3 O12 2.398 . S
Dy3 O13 2.491 . S
Dy3 O14 2.403 . S
Dy3 O15 2.664 1_556 S
Dy3 O17 2.326 . S
O4 Dy0 2.398 . S
O4 C2 1.185 . S
O5 Dy0 2.491 . S
O5 C2 1.355 . S
O6 Dy0 2.403 . S
O6 C8 1.254 . S
O7 Dy0 2.664 1_556 S
O7 Dy3 2.310 . S
O7 C8 1.268 1_556 S
C8 O6 1.254 . S
C8 O7 1.268 1_554 S
C9 O14 1.254 1_554 S
C9 O15 1.268 . S
O10 Dy3 2.351 1_554 S
O10 C18 1.249 . S
O11 Dy0 2.326 . S
O11 C18 1.267 . S
O12 C1 1.185 . S
O12 Dy3 2.398 . S
O13 C1 1.355 . S
O13 Dy3 2.491 . S
O14 Dy3 2.403 . S
O14 C9 1.254 1_556 S
O15 Dy0 2.310 . S
O15 Dy3 2.664 1_554 S
O15 C9 1.268 . S
O16 Dy0 2.351 1_556 S
O16 C19 1.249 . S
O17 Dy3 2.326 . S
O17 C19 1.267 . S
C18 O10 1.249 . S
C18 O11 1.267 . S
C19 O16 1.249 . S
C19 O17 1.267 . S
Dy20 O24 2.398 . S
Dy20 O25 2.491 . S
Dy20 O26 2.403 . S
Dy20 O27 2.664 1_554 S
Dy20 O31 2.326 . S
Dy20 O35 2.310 . S
Dy20 O36 2.351 1_554 S
C21 O32 1.185 . S
C21 O33 1.355 . S
C22 O24 1.185 . S
C22 O25 1.355 . S
Dy23 O27 2.310 . S
Dy23 O30 2.351 1_556 S
Dy23 O32 2.398 . S
Dy23 O33 2.491 . S
Dy23 O34 2.403 . S
Dy23 O35 2.664 1_556 S
Dy23 O37 2.326 . S
O24 Dy20 2.398 . S
O24 C22 1.185 . S
O25 Dy20 2.491 . S
O25 C22 1.355 . S
O26 Dy20 2.403 . S
O26 C28 1.254 . S
O27 Dy20 2.664 1_556 S
O27 Dy23 2.310 . S
O27 C28 1.268 1_556 S
C28 O26 1.254 . S
C28 O27 1.268 1_554 S
C29 O34 1.254 1_554 S
C29 O35 1.268 . S
O30 Dy23 2.351 1_554 S
O30 C38 1.249 . S
O31 Dy20 2.326 . S
O31 C38 1.267 . S
O32 C21 1.185 . S
O32 Dy23 2.398 . S
O33 C21 1.355 . S
O33 Dy23 2.491 . S
O34 Dy23 2.403 . S
O34 C29 1.254 1_556 S
O35 Dy20 2.310 . S
O35 Dy23 2.664 1_554 S
O35 C29 1.268 . S
O36 Dy20 2.351 1_556 S
O36 C39 1.249 . S
O37 Dy23 2.326 . S
O37 C39 1.267 . S
C38 O30 1.249 . S
C38 O31 1.267 . S
C39 O36 1.249 . S
C39 O37 1.267 . S
Dy40 O44 2.398 . S
Dy40 O45 2.491 . S
Dy40 O46 2.403 . S
Dy40 O47 2.664 . S
Dy40 O51 2.326 . S
Dy40 O55 2.310 . S
Dy40 O56 2.351 . S
C41 O52 1.185 . S
C41 O53 1.355 . S
C42 O44 1.185 . S
C42 O45 1.355 . S
Dy43 O47 2.310 . S
Dy43 O50 2.351 . S
Dy43 O52 2.398 . S
Dy43 O53 2.491 . S
Dy43 O54 2.403 . S
Dy43 O55 2.664 . S
Dy43 O57 2.326 . S
O44 Dy40 2.398 . S
O44 C42 1.185 . S
O45 Dy40 2.491 . S
O45 C42 1.355 . S
O46 Dy40 2.403 . S
O46 C48 1.254 . S
O47 Dy40 2.664 . S
O47 Dy43 2.310 . S
O47 C48 1.268 . S
C48 O46 1.254 . S
C48 O47 1.268 . S
C49 O54 1.254 . S
C49 O55 1.268 . S
O50 Dy43 2.351 . S
O50 C58 1.249 . S
O51 Dy40 2.326 . S
O51 C58 1.267 . S
O52 C41 1.185 . S
O52 Dy43 2.398 . S
O53 C41 1.355 . S
O53 Dy43 2.491 . S
O54 Dy43 2.403 . S
O54 C49 1.254 . S
O55 Dy40 2.310 . S
O55 Dy43 2.664 . S
O55 C49 1.268 . S
O56 Dy40 2.351 . S
O56 C59 1.249 . S
O57 Dy43 2.326 . S
O57 C59 1.267 . S
C58 O50 1.249 . S
C58 O51 1.267 . S
C59 O56 1.249 . S
C59 O57 1.267 . S
Dy60 O64 2.398 . S
Dy60 O65 2.491 . S
Dy60 O66 2.403 . S
Dy60 O67 2.664 . S
Dy60 O71 2.326 . S
Dy60 O75 2.310 . S
Dy60 O76 2.351 . S
C61 O72 1.185 . S
C61 O73 1.355 . S
C62 O64 1.185 . S
C62 O65 1.355 . S
Dy63 O67 2.310 . S
Dy63 O70 2.351 . S
Dy63 O72 2.398 . S
Dy63 O73 2.491 . S
Dy63 O74 2.403 . S
Dy63 O75 2.664 . S
Dy63 O77 2.326 . S
O64 Dy60 2.398 . S
O64 C62 1.185 . S
O65 Dy60 2.491 . S
O65 C62 1.355 . S
O66 Dy60 2.403 . S
O66 C68 1.254 . S
O67 Dy60 2.664 . S
O67 Dy63 2.310 . S
O67 C68 1.268 . S
C68 O66 1.254 . S
C68 O67 1.268 . S
C69 O74 1.254 . S
C69 O75 1.268 . S
O70 Dy63 2.351 . S
O70 C78 1.249 . S
O71 Dy60 2.326 . S
O71 C78 1.267 . S
O72 C61 1.185 . S
O72 Dy63 2.398 . S
O73 C61 1.355 . S
O73 Dy63 2.491 . S
O74 Dy63 2.403 . S
O74 C69 1.254 . S
O75 Dy60 2.310 . S
O75 Dy63 2.664 . S
O75 C69 1.268 . S
O76 Dy60 2.351 . S
O76 C79 1.249 . S
O77 Dy63 2.326 . S
O77 C79 1.267 . S
C78 O70 1.249 . S
C78 O71 1.267 . S
C79 O76 1.249 . S
C79 O77 1.267 . S
H80 C88 0.929 . S
H81 C90 0.930 . S
H82 C92 0.930 . S
H83 C95 0.929 . S
H84 C98 0.930 . S
H85 C100 0.960 . S
H86 C100 0.960 . S
H87 C100 0.960 . S
C88 H80 0.929 . S
C88 C89 1.377 . S
C88 C90 1.384 . S
C89 C88 1.377 . S
C89 C95 1.390 1_554 S
C90 H81 0.930 . S
C90 C88 1.384 . S
C90 C91 1.372 . S
C91 C90 1.372 . S
C91 C92 1.400 1_554 S
C91 C96 1.490 . S
C92 H82 0.930 . S
C92 C91 1.400 1_556 S
C92 C95 1.386 . S
H93 C109 0.930 . S
H94 C110 0.931 . S
C95 H83 0.929 . S
C95 C89 1.390 1_556 S
C95 C92 1.386 . S
C96 C91 1.490 . S
C96 C98 1.395 1_554 S
C96 C99 1.403 . S
H97 C103 0.930 . S
C98 H84 0.930 . S
C98 C96 1.395 1_556 S
C98 C101 1.403 . S
C99 C96 1.403 . S
C99 C100 1.524 . S
C99 C103 1.400 . S
C100 H85 0.960 . S
C100 H86 0.960 . S
C100 H87 0.960 . S
C100 C99 1.524 . S
C101 C98 1.403 . S
C101 C102 1.393 . S
C101 C105 1.495 . S
C102 C101 1.393 . S
C102 C103 1.385 1_556 S
C102 C104 1.477 . S
C103 H97 0.930 . S
C103 C99 1.400 . S
C103 C102 1.385 1_554 S
C104 C102 1.477 . S
C104 C106 1.381 1_556 S
C104 C110 1.383 . S
C105 C101 1.495 . S
C105 H111 0.959 . S
C105 H112 0.961 . S
C105 H113 0.960 . S
C106 C104 1.381 1_554 S
C106 C107 1.394 . S
C106 H114 0.930 . S
C107 C106 1.394 . S
C107 C108 1.364 1_554 S
C107 H115 0.929 . S
C108 C107 1.364 1_556 S
C108 C109 1.399 . S
C109 H93 0.930 . S
C109 C108 1.399 . S
C109 C110 1.379 . S
C110 H94 0.931 . S
C110 C104 1.383 . S
C110 C109 1.379 . S
H111 C105 0.959 . S
H112 C105 0.961 . S
H113 C105 0.960 . S
H114 C106 0.930 . S
H115 C107 0.929 . S
H116 C124 0.929 . S
H117 C126 0.930 . S
H118 C128 0.930 . S
H119 C131 0.929 . S
H120 C134 0.930 . S
H121 C136 0.960 . S
H122 C136 0.960 . S
H123 C136 0.960 . S
C124 H116 0.929 . S
C124 C125 1.377 . S
C124 C126 1.384 . S
C125 C124 1.377 . S
C125 C131 1.390 . S
C126 H117 0.930 . S
C126 C124 1.384 . S
C126 C127 1.372 . S
C127 C126 1.372 . S
C127 C128 1.400 . S
C127 C132 1.490 . S
C128 H118 0.930 . S
C128 C127 1.400 . S
C128 C131 1.386 . S
H129 C145 0.930 . S
H130 C146 0.931 . S
C131 H119 0.929 . S
C131 C125 1.390 . S
C131 C128 1.386 . S
C132 C127 1.490 . S
C132 C134 1.395 . S
C132 C135 1.403 . S
H133 C139 0.930 . S
C134 H120 0.930 . S
C134 C132 1.395 . S
C134 C137 1.403 . S
C135 C132 1.403 . S
C135 C136 1.524 . S
C135 C139 1.400 . S
C136 H121 0.960 . S
C136 H122 0.960 . S
C136 H123 0.960 . S
C136 C135 1.524 . S
C137 C134 1.403 . S
C137 C138 1.392 . S
C137 C141 1.495 . S
C138 C137 1.392 . S
C138 C139 1.385 . S
C138 C140 1.478 . S
C139 H133 0.930 . S
C139 C135 1.400 . S
C139 C138 1.385 . S
C140 C138 1.478 . S
C140 C142 1.381 . S
C140 C146 1.383 . S
C141 C137 1.495 . S
C141 H147 0.959 . S
C141 H148 0.961 . S
C141 H149 0.960 . S
C142 C140 1.381 . S
C142 C143 1.394 . S
C142 H150 0.930 . S
C143 C142 1.394 . S
C143 C144 1.383 . S
C143 H151 0.929 . S
C144 C143 1.383 . S
C144 C145 1.377 . S
C145 H129 0.930 . S
C145 C144 1.377 . S
C145 C146 1.379 . S
C146 H130 0.931 . S
C146 C140 1.383 . S
C146 C145 1.379 . S
H147 C141 0.959 . S
H148 C141 0.961 . S
H149 C141 0.960 . S
H150 C142 0.930 . S
H151 C143 0.929 . S
H152 C160 0.929 . S
H153 C162 0.930 . S
H154 C164 0.930 . S
H155 C167 0.929 . S
H156 C170 0.930 . S
H157 C172 0.960 1_565 S
H158 C172 0.960 . S
H159 C172 0.960 . S
C160 H152 0.929 . S
C160 C161 1.377 . S
C160 C162 1.384 . S
C161 C160 1.377 . S
C161 C167 1.390 1_554 S
C162 H153 0.930 . S
C162 C160 1.384 . S
C162 C163 1.372 . S
C163 C162 1.372 . S
C163 C164 1.400 1_554 S
C163 C168 1.490 . S
C164 H154 0.930 . S
C164 C163 1.400 1_556 S
C164 C167 1.386 . S
H165 C181 0.930 . S
H166 C182 0.931 . S
C167 H155 0.929 . S
C167 C161 1.390 1_556 S
C167 C164 1.386 . S
C168 C163 1.490 . S
C168 C170 1.395 . S
C168 C171 1.403 1_554 S
H169 C175 0.930 . S
C170 H156 0.930 . S
C170 C168 1.395 . S
C170 C173 1.403 1_445 S
C171 C168 1.403 1_556 S
C171 C172 1.524 . S
C171 C175 1.400 1_445 S
C172 H157 0.960 1_545 S
C172 H158 0.960 . S
C172 H159 0.960 . S
C172 C171 1.524 . S
C173 C170 1.403 1_665 S
C173 C174 1.392 . S
C173 C177 1.495 . S
C174 C173 1.392 . S
C174 C175 1.385 1_554 S
C174 C176 1.478 . S
C175 H169 0.930 . S
C175 C171 1.400 1_665 S
C175 C174 1.385 1_556 S
C176 C174 1.478 . S
C176 C178 1.381 . S
C176 C182 1.383 1_554 S
C177 C173 1.495 . S
C177 H183 0.959 1_565 S
C177 H184 0.961 . S
C177 H185 0.960 . S
C178 C176 1.381 . S
C178 C179 1.394 . S
C178 H186 0.930 1_655 S
C179 C178 1.394 . S
C179 C180 1.383 . S
C179 H187 0.929 . S
C180 C179 1.383 . S
C180 C181 1.377 1_554 S
C181 H165 0.930 . S
C181 C180 1.377 1_556 S
C181 C182 1.379 . S
C182 H166 0.931 . S
C182 C176 1.383 1_556 S
C182 C181 1.379 . S
H183 C177 0.959 1_545 S
H184 C177 0.961 . S
H185 C177 0.960 . S
H186 C178 0.930 1_455 S
H187 C179 0.929 . S
H188 C196 0.929 . S
H189 C198 0.930 . S
H190 C200 0.930 1_455 S
H191 C203 0.929 . S
H192 C206 0.930 . S
H193 C208 0.960 . S
H194 C208 0.960 . S
H195 C208 0.960 . S
C196 H188 0.929 . S
C196 C197 1.377 . S
C196 C198 1.384 . S
C197 C196 1.377 . S
C197 C203 1.390 . S
C198 H189 0.930 . S
C198 C196 1.384 . S
C198 C199 1.372 . S
C199 C198 1.372 . S
C199 C200 1.400 . S
C199 C204 1.490 . S
C200 H190 0.930 1_655 S
C200 C199 1.400 . S
C200 C203 1.386 . S
H201 C217 0.930 . S
H202 C218 0.931 . S
C203 H191 0.929 . S
C203 C197 1.390 . S
C203 C200 1.386 . S
C204 C199 1.490 . S
C204 C206 1.395 . S
C204 C207 1.403 1_655 S
H205 C211 0.930 . S
C206 H192 0.930 . S
C206 C204 1.395 . S
C206 C209 1.403 1_545 S
C207 C204 1.403 1_455 S
C207 C208 1.524 . S
C207 C211 1.400 1_545 S
C208 H193 0.960 . S
C208 H194 0.960 . S
C208 H195 0.960 . S
C208 C207 1.524 . S
C209 C206 1.403 1_565 S
C209 C210 1.392 1_655 S
C209 C213 1.495 . S
C210 C209 1.392 1_455 S
C210 C211 1.385 . S
C210 C212 1.478 . S
C211 H205 0.930 . S
C211 C207 1.400 1_565 S
C211 C210 1.385 . S
C212 C210 1.478 . S
C212 C214 1.381 . S
C212 C218 1.383 . S
C213 C209 1.495 . S
C213 H219 0.959 . S
C213 H220 0.961 . S
C213 H221 0.960 . S
C214 C212 1.381 . S
C214 C215 1.394 . S
C214 H222 0.930 1_455 S
C215 C214 1.394 . S
C215 C216 1.383 . S
C215 H223 0.929 . S
C216 C215 1.383 . S
C216 C217 1.377 . S
C217 H201 0.930 . S
C217 C216 1.377 . S
C217 C218 1.379 . S
C218 H202 0.931 . S
C218 C212 1.383 . S
C218 C217 1.379 . S
H219 C213 0.959 . S
H220 C213 0.961 . S
H221 C213 0.960 . S
H222 C214 0.930 1_655 S
H223 C215 0.929 . S
H224 C232 0.929 . S
H225 C234 0.930 . S
H226 C236 0.930 . S
H227 C239 0.929 . S
H228 C242 0.930 . S
H229 C244 0.960 . S
H230 C244 0.960 . S
H231 C244 0.960 . S
C232 H224 0.929 . S
C232 C233 1.377 . S
C232 C234 1.384 . S
C233 C232 1.377 . S
C233 C239 1.390 . S
C234 H225 0.930 . S
C234 C232 1.384 . S
C234 C235 1.372 . S
C235 C234 1.372 . S
C235 C236 1.400 . S
C235 C240 1.490 . S
C236 H226 0.930 . S
C236 C235 1.400 . S
C236 C239 1.386 . S
H237 C253 0.930 . S
H238 C254 0.931 . S
C239 H227 0.929 . S
C239 C233 1.390 . S
C239 C236 1.386 . S
C240 C235 1.490 . S
C240 C242 1.395 . S
C240 C243 1.403 . S
H241 C247 0.930 . S
C242 H228 0.930 . S
C242 C240 1.395 . S
C242 C245 1.403 . S
C243 C240 1.403 . S
C243 C244 1.524 . S
C243 C247 1.400 . S
C244 H229 0.960 . S
C244 H230 0.960 . S
C244 H231 0.960 . S
C244 C243 1.524 . S
C245 C242 1.403 . S
C245 C246 1.392 . S
C245 C249 1.495 . S
C246 C245 1.392 . S
C246 C247 1.385 . S
C246 C248 1.478 . S
C247 H241 0.930 . S
C247 C243 1.400 . S
C247 C246 1.385 . S
C248 C246 1.478 . S
C248 C250 1.381 . S
C248 C254 1.383 . S
C249 C245 1.495 . S
C249 H255 0.959 . S
C249 H256 0.961 . S
C249 H257 0.960 . S
C250 C248 1.381 . S
C250 C251 1.394 . S
C250 H258 0.930 . S
C251 C250 1.394 . S
C251 C252 1.383 . S
C251 H259 0.929 . S
C252 C251 1.383 . S
C252 C253 1.377 . S
C253 H237 0.930 . S
C253 C252 1.377 . S
C253 C254 1.379 . S
C254 H238 0.931 . S
C254 C248 1.383 . S
C254 C253 1.379 . S
H255 C249 0.959 . S
H256 C249 0.961 . S
H257 C249 0.960 . S
H258 C250 0.930 . S
H259 C251 0.929 . S
H260 C268 0.929 . S
H261 C270 0.930 . S
H262 C272 0.930 . S
H263 C275 0.929 . S
H264 C278 0.930 . S
H265 C280 0.960 . S
H266 C280 0.960 . S
H267 C280 0.960 . S
C268 H260 0.929 . S
C268 C269 1.377 . S
C268 C270 1.384 . S
C269 C268 1.377 . S
C269 C275 1.390 . S
C270 H261 0.930 . S
C270 C268 1.384 . S
C270 C271 1.372 . S
C271 C270 1.372 . S
C271 C272 1.400 . S
C271 C276 1.490 . S
C272 H262 0.930 . S
C272 C271 1.400 . S
C272 C275 1.386 . S
H273 C289 0.930 . S
H274 C290 0.931 . S
C275 H263 0.929 . S
C275 C269 1.390 . S
C275 C272 1.386 . S
C276 C271 1.490 . S
C276 C278 1.395 . S
C276 C279 1.403 . S
H277 C283 0.930 . S
C278 H264 0.930 . S
C278 C276 1.395 . S
C278 C281 1.403 . S
C279 C276 1.403 . S
C279 C280 1.524 . S
C279 C283 1.400 . S
C280 H265 0.960 . S
C280 H266 0.960 . S
C280 H267 0.960 . S
C280 C279 1.524 . S
C281 C278 1.403 . S
C281 C282 1.392 . S
C281 C285 1.495 . S
C282 C281 1.392 . S
C282 C283 1.385 . S
C282 C284 1.478 . S
C283 H277 0.930 . S
C283 C279 1.400 . S
C283 C282 1.385 . S
C284 C282 1.478 . S
C284 C286 1.381 . S
C284 C290 1.383 . S
C285 C281 1.495 . S
C285 H291 0.959 . S
C285 H292 0.961 . S
C285 H293 0.960 . S
C286 C284 1.381 . S
C286 C287 1.394 . S
C286 H294 0.930 . S
C287 C286 1.394 . S
C287 C288 1.383 . S
C287 H295 0.929 . S
C288 C287 1.383 . S
C288 C289 1.377 . S
C289 H273 0.930 . S
C289 C288 1.377 . S
C289 C290 1.379 . S
C290 H274 0.931 . S
C290 C284 1.383 . S
C290 C289 1.379 . S
H291 C285 0.959 . S
H292 C285 0.961 . S
H293 C285 0.960 . S
H294 C286 0.930 . S
H295 C287 0.929 . S
H296 C304 0.929 . S
H297 C306 0.930 . S
H298 C308 0.930 . S
H299 C311 0.929 . S
H300 C314 0.930 . S
H301 C316 0.960 . S
H302 C316 0.960 . S
H303 C316 0.960 . S
C304 H296 0.929 . S
C304 C305 1.377 . S
C304 C306 1.384 . S
C305 C304 1.377 . S
C305 C311 1.390 . S
C306 H297 0.930 . S
C306 C304 1.384 . S
C306 C307 1.372 . S
C307 C306 1.372 . S
C307 C308 1.400 . S
C307 C312 1.490 . S
C308 H298 0.930 . S
C308 C307 1.400 . S
C308 C311 1.386 . S
H309 C325 0.930 . S
H310 C326 0.931 . S
C311 H299 0.929 . S
C311 C305 1.390 . S
C311 C308 1.386 . S
C312 C307 1.490 . S
C312 C314 1.395 . S
C312 C315 1.403 . S
H313 C319 0.930 . S
C314 H300 0.930 . S
C314 C312 1.395 . S
C314 C317 1.403 . S
C315 C312 1.403 . S
C315 C316 1.524 . S
C315 C319 1.400 . S
C316 H301 0.960 . S
C316 H302 0.960 . S
C316 H303 0.960 . S
C316 C315 1.524 . S
C317 C314 1.403 . S
C317 C318 1.392 . S
C317 C321 1.495 . S
C318 C317 1.392 . S
C318 C319 1.385 . S
C318 C320 1.478 . S
C319 H313 0.930 . S
C319 C315 1.400 . S
C319 C318 1.385 . S
C320 C318 1.478 . S
C320 C322 1.381 . S
C320 C326 1.383 . S
C321 C317 1.495 . S
C321 H327 0.959 . S
C321 H328 0.961 . S
C321 H329 0.960 . S
C322 C320 1.381 . S
C322 C323 1.394 . S
C322 H330 0.930 . S
C323 C322 1.394 . S
C323 C324 1.383 . S
C323 H331 0.929 . S
C324 C323 1.383 . S
C324 C325 1.377 . S
C325 H309 0.930 . S
C325 C324 1.377 . S
C325 C326 1.379 . S
C326 H310 0.931 . S
C326 C320 1.383 . S
C326 C325 1.379 . S
H327 C321 0.959 . S
H328 C321 0.961 . S
H329 C321 0.960 . S
H330 C322 0.930 . S
H331 C323 0.929 . S
H332 C340 0.929 . S
H333 C342 0.930 . S
H334 C344 0.930 . S
H335 C347 0.929 . S
H336 C350 0.930 . S
H337 C352 0.960 . S
H338 C352 0.960 . S
H339 C352 0.960 . S
C340 H332 0.929 . S
C340 C341 1.377 . S
C340 C342 1.384 . S
C341 C340 1.377 . S
C341 C347 1.390 . S
C342 H333 0.930 . S
C342 C340 1.384 . S
C342 C343 1.372 . S
C343 C342 1.372 . S
C343 C344 1.400 . S
C343 C348 1.490 . S
C344 H334 0.930 . S
C344 C343 1.400 . S
C344 C347 1.386 . S
H345 C361 0.930 . S
H346 C362 0.931 . S
C347 H335 0.929 . S
C347 C341 1.390 . S
C347 C344 1.386 . S
C348 C343 1.490 . S
C348 C350 1.395 . S
C348 C351 1.403 . S
H349 C355 0.930 . S
C350 H336 0.930 . S
C350 C348 1.395 . S
C350 C353 1.403 . S
C351 C348 1.403 . S
C351 C352 1.524 . S
C351 C355 1.400 . S
C352 H337 0.960 . S
C352 H338 0.960 . S
C352 H339 0.960 . S
C352 C351 1.524 . S
C353 C350 1.403 . S
C353 C354 1.392 . S
C353 C357 1.495 . S
C354 C353 1.392 . S
C354 C355 1.385 . S
C354 C356 1.478 . S
C355 H349 0.930 . S
C355 C351 1.400 . S
C355 C354 1.385 . S
C356 C354 1.478 . S
C356 C358 1.381 . S
C356 C362 1.383 . S
C357 C353 1.495 . S
C357 H363 0.959 . S
C357 H364 0.961 . S
C357 H365 0.960 . S
C358 C356 1.381 . S
C358 C359 1.394 . S
C358 H366 0.930 . S
C359 C358 1.394 . S
C359 C360 1.383 . S
C359 H367 0.929 . S
C360 C359 1.383 . S
C360 C361 1.377 . S
C361 H345 0.930 . S
C361 C360 1.377 . S
C361 C362 1.379 . S
C362 H346 0.931 . S
C362 C356 1.383 . S
C362 C361 1.379 . S
H363 C357 0.959 . S
H364 C357 0.961 . S
H365 C357 0.960 . S
H366 C358 0.930 . S
H367 C359 0.929 . S
H368 C376 0.929 . S
H369 C378 0.930 1_455 S
H370 C380 0.930 . S
H371 C383 0.929 . S
H372 C386 0.930 . S
H373 C388 0.960 . S
H374 C388 0.960 1_455 S
H375 C388 0.960 . S
C376 H368 0.929 . S
C376 C377 1.377 . S
C376 C378 1.384 . S
C377 C376 1.377 . S
C377 C383 1.390 . S
C378 H369 0.930 1_655 S
C378 C376 1.384 . S
C378 C379 1.372 . S
C379 C378 1.372 . S
C379 C380 1.400 . S
C379 C384 1.490 . S
C380 H370 0.930 . S
C380 C379 1.400 . S
C380 C383 1.386 . S
H381 C397 0.930 . S
H382 C398 0.931 1_655 S
C383 H371 0.929 . S
C383 C377 1.390 . S
C383 C380 1.386 . S
C384 C379 1.490 . S
C384 C386 1.395 . S
C384 C387 1.403 . S
H385 C391 0.930 . S
C386 H372 0.930 . S
C386 C384 1.395 . S
C386 C389 1.403 1_655 S
C387 C384 1.403 . S
C387 C388 1.524 . S
C387 C391 1.400 1_655 S
C388 H373 0.960 . S
C388 H374 0.960 1_655 S
C388 H375 0.960 . S
C388 C387 1.524 . S
C389 C386 1.403 1_455 S
C389 C390 1.392 . S
C389 C393 1.495 . S
C390 C389 1.392 . S
C390 C391 1.385 . S
C390 C392 1.478 . S
C391 H385 0.930 . S
C391 C387 1.400 1_455 S
C391 C390 1.385 . S
C392 C390 1.478 . S
C392 C394 1.381 . S
C392 C398 1.383 . S
C393 C389 1.495 . S
C393 H399 0.959 . S
C393 H400 0.961 . S
C393 H401 0.960 . S
C394 C392 1.381 . S
C394 C395 1.394 . S
C394 H402 0.930 . S
C395 C394 1.394 . S
C395 C396 1.383 . S
C395 H403 0.929 . S
C396 C395 1.383 . S
C396 C397 1.377 . S
C397 H381 0.930 . S
C397 C396 1.377 . S
C397 C398 1.379 . S
C398 H382 0.931 1_455 S
C398 C392 1.383 . S
C398 C397 1.379 . S
H399 C393 0.959 . S
H400 C393 0.961 . S
H401 C393 0.960 . S
H402 C394 0.930 . S
H403 C395 0.929 . S
H404 C412 0.929 . S
H405 C414 0.930 . S
H406 C416 0.930 1_455 S
H407 C419 0.931 . S
H408 C422 0.930 . S
H409 C424 0.960 . S
H410 C424 0.960 . S
H411 C424 0.960 . S
C412 H404 0.929 . S
C412 C413 1.377 . S
C412 C414 1.384 . S
C413 C412 1.377 . S
C413 C419 1.390 . S
C414 H405 0.930 . S
C414 C412 1.384 . S
C414 C415 1.372 . S
C415 C414 1.372 . S
C415 C416 1.400 . S
C415 C420 1.490 . S
C416 H406 0.930 1_655 S
C416 C415 1.400 . S
C416 C419 1.386 . S
H417 C433 0.930 . S
H418 C434 0.931 . S
C419 H407 0.931 . S
C419 C413 1.390 . S
C419 C416 1.386 . S
C420 C415 1.490 . S
C420 C422 1.395 . S
C420 C423 1.403 1_655 S
H421 C427 0.930 . S
C422 H408 0.930 . S
C422 C420 1.395 . S
C422 C425 1.403 . S
C423 C420 1.403 1_455 S
C423 C424 1.524 . S
C423 C427 1.400 . S
C424 H409 0.960 . S
C424 H410 0.960 . S
C424 H411 0.960 . S
C424 C423 1.524 . S
C425 C422 1.403 . S
C425 C426 1.392 1_655 S
C425 C429 1.495 . S
C426 C425 1.392 1_455 S
C426 C427 1.385 . S
C426 C428 1.478 . S
C427 H421 0.930 . S
C427 C423 1.400 . S
C427 C426 1.385 . S
C428 C426 1.478 . S
C428 C430 1.380 1_455 S
C428 C434 1.383 . S
C429 C425 1.495 . S
C429 H435 0.959 . S
C429 H436 0.961 . S
C429 H437 0.960 . S
C430 C428 1.380 1_655 S
C430 C431 1.393 1_655 S
C430 H438 0.932 . S
C431 C430 1.393 1_455 S
C431 C432 1.383 . S
C431 H439 0.929 . S
C432 C431 1.383 . S
C432 C433 1.377 . S
C433 H417 0.930 . S
C433 C432 1.377 . S
C433 C434 1.379 . S
C434 H418 0.931 . S
C434 C428 1.383 . S
C434 C433 1.379 . S
H435 C429 0.959 . S
H436 C429 0.961 . S
H437 C429 0.960 . S
H438 C430 0.932 . S
H439 C431 0.929 . S
H440 C448 0.929 . S
H441 C450 0.930 . S
H442 C452 0.930 . S
H443 C455 0.929 . S
H444 C458 0.930 . S
H445 C460 0.960 . S
H446 C460 0.960 . S
H447 C460 0.960 . S
C448 H440 0.929 . S
C448 C449 1.377 . S
C448 C450 1.384 . S
C449 C448 1.377 . S
C449 C455 1.390 . S
C450 H441 0.930 . S
C450 C448 1.384 . S
C450 C451 1.372 . S
C451 C450 1.372 . S
C451 C452 1.400 . S
C451 C456 1.490 . S
C452 H442 0.930 . S
C452 C451 1.400 . S
C452 C455 1.386 . S
H453 C469 0.930 . S
H454 C470 0.931 . S
C455 H443 0.929 . S
C455 C449 1.390 . S
C455 C452 1.386 . S
C456 C451 1.490 . S
C456 C458 1.395 . S
C456 C459 1.403 1_655 S
H457 C463 0.930 . S
C458 H444 0.930 . S
C458 C456 1.395 . S
C458 C461 1.403 . S
C459 C456 1.403 1_455 S
C459 C460 1.524 . S
C459 C463 1.400 . S
C460 H445 0.960 . S
C460 H446 0.960 . S
C460 H447 0.960 . S
C460 C459 1.524 . S
C461 C458 1.403 . S
C461 C462 1.392 1_655 S
C461 C465 1.495 . S
C462 C461 1.392 1_455 S
C462 C463 1.385 . S
C462 C464 1.478 . S
C463 H457 0.930 . S
C463 C459 1.400 . S
C463 C462 1.385 . S
C464 C462 1.478 . S
C464 C466 1.381 . S
C464 C470 1.383 . S
C465 C461 1.495 . S
C465 H471 0.959 . S
C465 H472 0.961 . S
C465 H473 0.960 . S
C466 C464 1.381 . S
C466 C467 1.394 . S
C466 H474 0.930 . S
C467 C466 1.394 . S
C467 C468 1.383 . S
C467 H475 0.929 . S
C468 C467 1.383 . S
C468 C469 1.377 . S
C469 H453 0.930 . S
C469 C468 1.377 . S
C469 C470 1.379 . S
C470 H454 0.931 . S
C470 C464 1.383 . S
C470 C469 1.379 . S
H471 C465 0.959 . S
H472 C465 0.961 . S
H473 C465 0.960 . S
H474 C466 0.930 . S
H475 C467 0.929 . S
H476 C484 0.929 . S
H477 C486 0.930 1_655 S
H478 C488 0.930 . S
H479 C491 0.929 . S
H480 C494 0.930 . S
H481 C496 0.960 . S
H482 C496 0.960 . S
H483 C496 0.960 . S
C484 H476 0.929 . S
C484 C485 1.377 . S
C484 C486 1.384 . S
C485 C484 1.377 . S
C485 C491 1.390 . S
C486 H477 0.930 1_455 S
C486 C484 1.384 . S
C486 C487 1.372 . S
C487 C486 1.372 . S
C487 C488 1.400 . S
C487 C492 1.490 . S
C488 H478 0.930 . S
C488 C487 1.400 . S
C488 C491 1.386 . S
H489 C505 0.930 . S
H490 C506 0.931 . S
C491 H479 0.929 . S
C491 C485 1.390 . S
C491 C488 1.386 . S
C492 C487 1.490 . S
C492 C494 1.395 1_455 S
C492 C495 1.403 . S
H493 C499 0.930 . S
C494 H480 0.930 . S
C494 C492 1.395 1_655 S
C494 C497 1.403 . S
C495 C492 1.403 . S
C495 C496 1.524 . S
C495 C499 1.400 . S
C496 H481 0.960 . S
C496 H482 0.960 . S
C496 H483 0.960 . S
C496 C495 1.524 . S
C497 C494 1.403 . S
C497 C498 1.392 . S
C497 C501 1.495 . S
C498 C497 1.392 . S
C498 C499 1.385 1_655 S
C498 C500 1.478 . S
C499 H493 0.930 . S
C499 C495 1.400 . S
C499 C498 1.385 1_455 S
C500 C498 1.478 . S
C500 C502 1.381 . S
C500 C506 1.383 . S
C501 C497 1.495 . S
C501 H507 0.959 . S
C501 H508 0.961 . S
C501 H509 0.960 . S
C502 C500 1.381 . S
C502 C503 1.394 . S
C502 H510 0.930 . S
C503 C502 1.394 . S
C503 C504 1.383 . S
C503 H511 0.929 . S
C504 C503 1.383 . S
C504 C505 1.377 . S
C505 H489 0.930 . S
C505 C504 1.377 . S
C505 C506 1.379 . S
C506 H490 0.931 . S
C506 C500 1.383 . S
C506 C505 1.379 . S
H507 C501 0.959 . S
H508 C501 0.961 . S
H509 C501 0.960 . S
H510 C502 0.930 . S
H511 C503 0.929 . S
C89 C29 1.512 . S
C108 C8 1.492 1_556 S
C125 C49 1.509 . S
C144 C68 1.514 . S
C161 C9 1.508 . S
C180 C28 1.494 . S
C197 C69 1.508 . S
C216 C48 1.511 . S
C233 C78 1.101 . S
C252 C18 1.112 . S
C269 C22 1.105 . S
C288 C42 1.098 . S
C305 C39 1.098 . S
C324 C59 1.085 . S
C341 C61 1.105 . S
C360 C1 1.108 . S
C377 C38 1.102 . S
C396 C58 1.076 . S
C413 C62 1.105 . S
C432 C2 1.098 . S
C449 C79 1.103 . S
C468 C19 1.106 . S
C485 C41 1.105 . S
C504 C21 1.107 . S
