# Generated by pormake.
# Topology wio, (6)-cn, num edge types: 1
# Building blocks:
#     Node 0, Type 0, BuildingBlock: JUFBIX_clean_sbu_0, # of connection points: 6
#     Node 1, Type 0, BuildingBlock: JUFBIX_clean_sbu_0, # of connection points: 6
#     Node 2, Type 0, BuildingBlock: JUFBIX_clean_sbu_0, # of connection points: 6
#     Node 3, Type 0, BuildingBlock: JUFBIX_clean_sbu_0, # of connection points: 6
#     Node 4, Type 0, BuildingBlock: JUFBIX_clean_sbu_0, # of connection points: 6
#     Node 5, Type 0, BuildingBlock: JUFBIX_clean_sbu_0, # of connection points: 6
#     Node 6, Type 0, BuildingBlock: JUFBIX_clean_sbu_0, # of connection points: 6
#     Node 7, Type 0, BuildingBlock: JUFBIX_clean_sbu_0, # of connection points: 6
#     Node 8, Type 0, BuildingBlock: JUFBIX_clean_sbu_0, # of connection points: 6
#     Node 9, Type 0, BuildingBlock: JUFBIX_clean_sbu_0, # of connection points: 6
#     Node 10, Type 0, BuildingBlock: JUFBIX_clean_sbu_0, # of connection points: 6
#     Node 11, Type 0, BuildingBlock: JUFBIX_clean_sbu_0, # of connection points: 6
#     Node 12, Type 0, BuildingBlock: JUFBIX_clean_sbu_0, # of connection points: 6
#     Node 13, Type 0, BuildingBlock: JUFBIX_clean_sbu_0, # of connection points: 6
#     Node 14, Type 0, BuildingBlock: JUFBIX_clean_sbu_0, # of connection points: 6
#     Node 15, Type 0, BuildingBlock: JUFBIX_clean_sbu_0, # of connection points: 6
#     Node 16, Type 0, BuildingBlock: JUFBIX_clean_sbu_0, # of connection points: 6
#     Node 17, Type 0, BuildingBlock: JUFBIX_clean_sbu_0, # of connection points: 6
#     Node 18, Type 0, BuildingBlock: JUFBIX_clean_sbu_0, # of connection points: 6
#     Node 19, Type 0, BuildingBlock: JUFBIX_clean_sbu_0, # of connection points: 6
#     Node 20, Type 0, BuildingBlock: JUFBIX_clean_sbu_0, # of connection points: 6
#     Node 21, Type 0, BuildingBlock: JUFBIX_clean_sbu_0, # of connection points: 6
#     Node 22, Type 0, BuildingBlock: JUFBIX_clean_sbu_0, # of connection points: 6
#     Node 23, Type 0, BuildingBlock: JUFBIX_clean_sbu_0, # of connection points: 6
#     Node 24, Type 0, BuildingBlock: JUFBIX_clean_sbu_0, # of connection points: 6
#     Node 25, Type 0, BuildingBlock: JUFBIX_clean_sbu_0, # of connection points: 6
#     Node 26, Type 0, BuildingBlock: JUFBIX_clean_sbu_0, # of connection points: 6
#     Node 27, Type 0, BuildingBlock: JUFBIX_clean_sbu_0, # of connection points: 6
#     Node 28, Type 0, BuildingBlock: JUFBIX_clean_sbu_0, # of connection points: 6
#     Node 29, Type 0, BuildingBlock: JUFBIX_clean_sbu_0, # of connection points: 6
#     Node 30, Type 0, BuildingBlock: JUFBIX_clean_sbu_0, # of connection points: 6
#     Node 31, Type 0, BuildingBlock: JUFBIX_clean_sbu_0, # of connection points: 6
#     Edge 32, Type (0, 0), None
#     Edge 33, Type (0, 0), None
#     Edge 34, Type (0, 0), None
#     Edge 35, Type (0, 0), None
#     Edge 36, Type (0, 0), None
#     Edge 37, Type (0, 0), None
#     Edge 38, Type (0, 0), None
#     Edge 39, Type (0, 0), None
#     Edge 40, Type (0, 0), None
#     Edge 41, Type (0, 0), None
#     Edge 42, Type (0, 0), None
#     Edge 43, Type (0, 0), None
#     Edge 44, Type (0, 0), None
#     Edge 45, Type (0, 0), None
#     Edge 46, Type (0, 0), None
#     Edge 47, Type (0, 0), None
#     Edge 48, Type (0, 0), None
#     Edge 49, Type (0, 0), None
#     Edge 50, Type (0, 0), None
#     Edge 51, Type (0, 0), None
#     Edge 52, Type (0, 0), None
#     Edge 53, Type (0, 0), None
#     Edge 54, Type (0, 0), None
#     Edge 55, Type (0, 0), None
#     Edge 56, Type (0, 0), None
#     Edge 57, Type (0, 0), None
#     Edge 58, Type (0, 0), None
#     Edge 59, Type (0, 0), None
#     Edge 60, Type (0, 0), None
#     Edge 61, Type (0, 0), None
#     Edge 62, Type (0, 0), None
#     Edge 63, Type (0, 0), None
#     Edge 64, Type (0, 0), None
#     Edge 65, Type (0, 0), None
#     Edge 66, Type (0, 0), None
#     Edge 67, Type (0, 0), None
#     Edge 68, Type (0, 0), None
#     Edge 69, Type (0, 0), None
#     Edge 70, Type (0, 0), None
#     Edge 71, Type (0, 0), None
#     Edge 72, Type (0, 0), None
#     Edge 73, Type (0, 0), None
#     Edge 74, Type (0, 0), None
#     Edge 75, Type (0, 0), None
#     Edge 76, Type (0, 0), None
#     Edge 77, Type (0, 0), None
#     Edge 78, Type (0, 0), None
#     Edge 79, Type (0, 0), None
#     Edge 80, Type (0, 0), None
#     Edge 81, Type (0, 0), None
#     Edge 82, Type (0, 0), None
#     Edge 83, Type (0, 0), None
#     Edge 84, Type (0, 0), None
#     Edge 85, Type (0, 0), None
#     Edge 86, Type (0, 0), None
#     Edge 87, Type (0, 0), None
#     Edge 88, Type (0, 0), None
#     Edge 89, Type (0, 0), None
#     Edge 90, Type (0, 0), None
#     Edge 91, Type (0, 0), None
#     Edge 92, Type (0, 0), None
#     Edge 93, Type (0, 0), None
#     Edge 94, Type (0, 0), None
#     Edge 95, Type (0, 0), None
#     Edge 96, Type (0, 0), None
#     Edge 97, Type (0, 0), None
#     Edge 98, Type (0, 0), None
#     Edge 99, Type (0, 0), None
#     Edge 100, Type (0, 0), None
#     Edge 101, Type (0, 0), None
#     Edge 102, Type (0, 0), None
#     Edge 103, Type (0, 0), None
#     Edge 104, Type (0, 0), None
#     Edge 105, Type (0, 0), None
#     Edge 106, Type (0, 0), None
#     Edge 107, Type (0, 0), None
#     Edge 108, Type (0, 0), None
#     Edge 109, Type (0, 0), None
#     Edge 110, Type (0, 0), None
#     Edge 111, Type (0, 0), None
#     Edge 112, Type (0, 0), None
#     Edge 113, Type (0, 0), None
#     Edge 114, Type (0, 0), None
#     Edge 115, Type (0, 0), None
#     Edge 116, Type (0, 0), None
#     Edge 117, Type (0, 0), None
#     Edge 118, Type (0, 0), None
#     Edge 119, Type (0, 0), None
#     Edge 120, Type (0, 0), None
#     Edge 121, Type (0, 0), None
#     Edge 122, Type (0, 0), None
#     Edge 123, Type (0, 0), None
#     Edge 124, Type (0, 0), None
#     Edge 125, Type (0, 0), None
#     Edge 126, Type (0, 0), None
#     Edge 127, Type (0, 0), None
# Relax obj value: 0.676
# Max RMSD: 0.283
# Mean RMSD: 0.269
data_MOF--net-wio--node1-JUFBIX_clean_sbu_0--edge1-none
_symmetry_space_group_name_H-M    P1
_symmetry_Int_Tables_number       1
_symmetry_cell_setting            triclinic
loop_
_symmetry_equiv_pos_as_xyz
'x, y, z'
_cell_length_a     26.474729
_cell_length_b     24.675308
_cell_length_c     22.900013
_cell_angle_alpha  83.759871
_cell_angle_beta   87.882842
_cell_angle_gamma 91.596504
loop_
_atom_site_label
_atom_site_type_symbol
_atom_site_fract_x
_atom_site_fract_y
_atom_site_fract_z
_atom_type_partial_charge
Co0 Co 0.20781 0.07448 0.3309 0.0
C1 C 0.18738 0.16283 0.39691 0.0
Co2 Co 0.12964 0.08345 0.35644 0.0
C3 C 0.28578 0.06402 0.24756 0.0
C4 C 0.31274 0.10574 0.31847 0.0
N5 N 0.27339 0.0757 0.30242 0.0
N6 N 0.32929 0.08912 0.22716 0.0
C7 C 0.34657 0.11539 0.27143 0.0
H8 H 0.25935 0.04636 0.21937 0.0
H9 H 0.31382 0.12526 0.35846 0.0
C10 C 0.1512 0.99737 0.29258 0.0
N11 N 0.06505 0.0785 0.38068 0.0
C12 C 0.0453 0.09709 0.42905 0.0
C13 C 1.02851 0.04649 0.36108 0.0
N14 N 0.99838 0.07716 0.44028 0.0
C15 C 0.98817 0.04395 0.39904 0.0
C16 C 0.14424 0.1345 0.24583 0.0
O17 O 0.19666 1.01136 0.29667 0.0
O18 O 0.11726 0.02289 0.31577 0.0
O19 O 0.1122 0.12952 0.28868 0.0
O20 O 0.18853 0.11655 0.25513 0.0
O21 O 0.14183 0.14575 0.39768 0.0
H22 H 1.03038 0.02554 0.32206 0.0
H23 H 0.06438 0.12448 0.45548 0.0
O24 O 0.22036 0.13939 0.36757 0.0
O25 O 0.22475 0.03045 0.40387 0.0
O26 O 0.14407 0.03503 0.42524 0.0
C27 C 0.18679 0.01644 0.4388 0.0
H28 H 0.37901 0.14347 0.26814 0.0
H29 H 0.95279 0.022 0.39452 0.0
Co30 Co 0.20362 0.91308 0.59564 0.0
C31 C 0.26235 0.85868 0.53441 0.0
Co32 Co 0.15762 0.86732 0.54496 0.0
C33 C 0.20789 0.95014 0.70323 0.0
C34 C 0.27669 0.97587 0.65515 0.0
N35 N 0.23099 0.95294 0.64959 0.0
N36 N 0.23905 0.96208 0.74474 0.0
C37 C 0.28146 0.98238 0.71364 0.0
H38 H 0.17216 0.92845 0.71409 0.0
H39 H 0.30646 0.98045 0.62121 0.0
C40 C 0.10389 0.92791 0.60886 0.0
N41 N 0.1201 0.82715 0.50125 0.0
C42 C 0.13339 0.77936 0.48372 0.0
C43 C 0.0712 0.83203 0.48851 0.0
N44 N 0.09774 0.75827 0.45186 0.0
C45 C 0.05691 0.78864 0.46013 0.0
C46 C 0.17267 0.80421 0.64716 0.0
O47 O 0.14751 0.9463 0.6119 0.0
O48 O 0.0967 0.88646 0.58246 0.0
O49 O 0.1579 0.80327 0.59622 0.0
O50 O 0.1905 0.84975 0.66049 0.0
O51 O 0.22145 0.84945 0.50852 0.0
H52 H 0.04812 0.86615 0.49654 0.0
H53 H 0.17187 0.76563 0.48441 0.0
O54 O 0.26173 0.88315 0.57975 0.0
O55 O 0.21719 0.97205 0.53098 0.0
O56 O 0.15611 0.93136 0.48825 0.0
C57 C 0.18802 0.97119 0.48769 0.0
H58 H 0.31663 0.99271 0.73255 0.0
H59 H 1.02276 0.78689 0.43604 0.0
Co60 Co 0.3714 0.8739 0.84059 0.0
C61 C 0.40016 0.77161 0.89676 0.0
Co62 Co 0.45061 0.86999 0.85451 0.0
C63 C 0.28171 0.92779 0.82959 0.0
C64 C 0.26919 0.84328 0.82022 0.0
N65 N 0.30351 0.87909 0.83604 0.0
N66 N 0.24071 0.92657 0.7974 0.0
C67 C 0.22951 0.87233 0.79811 0.0
H68 H 0.30141 0.96564 0.83574 0.0
H69 H 0.27577 0.80074 0.81671 0.0
C70 C 0.42158 0.96864 0.79375 0.0
N71 N 0.51838 0.87093 0.86226 0.0
C72 C 0.53871 0.85772 0.91435 0.0
C73 C 0.55013 0.90953 0.83331 0.0
N74 N 0.57743 0.89176 0.92179 0.0
C75 C 0.58563 0.92404 0.87104 0.0
C76 C 0.42456 0.8386 0.74578 0.0
O77 O 0.38 0.94286 0.7952 0.0
O78 O 0.45724 0.94636 0.82126 0.0
O79 O 0.46052 0.84732 0.779 0.0
O80 O 0.37905 0.84262 0.76558 0.0
O81 O 0.44399 0.7944 0.88782 0.0
H82 H 0.54441 0.93044 0.79015 0.0
H83 H 0.52122 0.82941 0.94926 0.0
O84 O 0.36209 0.8007 0.88433 0.0
O85 O 0.36435 0.91068 0.91251 0.0
O86 O 0.4422 0.89369 0.93164 0.0
C87 C 0.40121 0.91499 0.94572 0.0
H88 H 0.20035 0.85493 0.77338 0.0
H89 H 0.61573 0.95478 0.8617 0.0
Co90 Co 0.37623 0.09156 0.06177 0.0
C91 C 0.4585 0.13616 0.11769 0.0
Co92 Co 0.37784 0.17999 0.07599 0.0
C93 C 0.37296 0.99169 0.99784 0.0
C94 C 0.42346 0.98583 0.06883 0.0
N95 N 0.38815 0.01836 0.04379 0.0
N96 N 0.39902 0.94553 0.99236 0.0
C97 C 0.43093 0.94234 1.03692 0.0
H98 H 0.34732 1.00876 0.96546 0.0
H99 H 0.44508 0.99454 0.10601 0.0
C100 C 0.29374 0.13778 1.02328 0.0
N101 N 0.36429 0.2501 0.09946 0.0
C102 C 0.39337 0.28541 0.12665 0.0
C103 C 0.31646 0.26615 0.10968 0.0
N104 N 0.36503 0.32094 0.15405 0.0
C105 C 0.31687 0.30881 0.14295 0.0
C106 C 0.41698 0.16863 0.97086 0.0
O107 O 0.31623 0.09324 1.02152 0.0
O108 O 0.31285 0.176 0.04828 0.0
O109 O 0.40239 0.20667 1.00051 0.0
O110 O 0.41107 0.1188 0.99195 0.0
O111 O 0.44201 0.18276 0.10157 0.0
H112 H 0.28212 0.24596 0.09822 0.0
H113 H 0.43387 0.28239 0.13042 0.0
O114 O 0.43605 0.09327 0.10416 0.0
O115 O 0.34097 0.06638 0.13355 0.0
O116 O 0.35554 0.15107 0.15216 0.0
C117 C 0.34177 0.10219 0.1697 0.0
H118 H 0.45908 0.91162 0.04478 0.0
H119 H 0.28392 0.32867 0.15887 0.0
Co120 Co 0.16538 0.89566 0.16631 0.0
C121 C 0.13889 0.95281 0.26085 0.0
Co122 Co 0.13879 0.85008 0.24861 0.0
C123 C 0.15744 0.98173 0.07722 0.0
C124 C 0.21314 0.92737 0.05111 0.0
N125 N 0.18347 0.93839 0.09751 0.0
N126 N 0.16905 0.99835 1.02024 0.0
C127 C 0.20417 0.96436 1.00311 0.0
H128 H 0.12953 1.00041 0.10376 0.0
H129 H 0.23835 0.8936 0.05146 0.0
C130 C 0.16569 0.79128 0.15817 0.0
N131 N 0.11839 0.79843 0.30707 0.0
C132 C 0.13657 0.79079 0.36032 0.0
C133 C 0.08418 0.757 0.30492 0.0
N134 N 0.11162 0.74982 0.39437 0.0
C135 C 0.07991 0.727 0.35893 0.0
C136 C 0.0574 0.87515 0.17396 0.0
O137 O 0.17678 0.8348 0.12613 0.0
O138 O 0.15152 0.79228 0.21039 0.0
O139 O 0.06838 0.85138 0.22358 0.0
O140 O 0.0942 0.89547 0.14032 0.0
O141 O 0.12601 0.90755 0.28976 0.0
H142 H 0.06223 0.75043 0.26726 0.0
H143 H 0.1619 0.82036 0.37668 0.0
O144 O 0.15407 0.95608 0.20719 0.0
O145 O 0.23659 0.89867 0.19466 0.0
O146 O 0.20975 0.85235 0.27742 0.0
C147 C 0.24565 0.88025 0.24799 0.0
H148 H 0.22354 0.96757 0.96032 0.0
H149 H 0.05133 0.69578 0.37336 0.0
Co150 Co 0.38341 0.89487 0.42284 0.0
C151 C 0.31126 0.85707 0.5064 0.0
Co152 Co 0.41514 0.86404 0.51181 0.0
C153 C 0.30459 0.88217 0.33147 0.0
C154 C 0.3635 0.93699 0.29377 0.0
N155 N 0.34934 0.90761 0.34532 0.0
N156 N 0.29039 0.89465 0.27459 0.0
C157 C 0.32811 0.92935 0.25121 0.0
H158 H 0.28245 0.85429 0.36281 0.0
H159 H 0.39765 0.96237 0.28699 0.0
C160 C 0.49415 0.89708 0.42667 0.0
N161 N 0.43555 0.84289 0.58915 0.0
C162 C 0.40828 0.84417 0.64071 0.0
C163 C 0.48166 0.82711 0.60576 0.0
N164 N 0.43601 0.83118 0.68843 0.0
C165 C 0.48226 0.82066 0.66629 0.0
C166 C 0.39951 0.78465 0.44564 0.0
O167 O 0.45666 0.90762 0.39235 0.0
O168 O 0.48412 0.87891 0.48058 0.0
O169 O 0.41706 0.79303 0.49459 0.0
O170 O 0.38708 0.82356 0.40873 0.0
O171 O 0.34851 0.84975 0.53898 0.0
H172 H 0.51351 0.8226 0.57592 0.0
H173 H 0.37014 0.85872 0.64334 0.0
O174 O 0.31813 0.87993 0.45474 0.0
O175 O 0.37946 0.97036 0.44627 0.0
O176 O 0.4116 0.93528 0.52952 0.0
C177 C 0.39411 0.97591 0.49879 0.0
H178 H 0.32987 0.94899 0.20649 0.0
H179 H 0.51494 0.81087 0.69208 0.0
Co180 Co 0.40755 0.10642 0.67055 0.0
C181 C 0.42652 0.02412 0.76314 0.0
Co182 Co 0.43258 0.13527 0.75409 0.0
C183 C 0.40483 0.03026 0.57995 0.0
C184 C 0.36465 0.10154 0.55299 0.0
N185 N 0.3905 0.07799 0.59856 0.0
N186 N 0.389 0.02284 0.52532 0.0
C187 C 0.36383 0.06798 0.50797 0.0
H188 H 0.42657 1.00101 0.6064 0.0
H189 H 0.3473 0.14077 0.55223 0.0
C190 C 0.41044 0.21688 0.66523 0.0
N191 N 0.44847 0.16671 0.82116 0.0
C192 C 0.43842 0.14296 0.87599 0.0
C193 C 0.45447 0.2206 0.82711 0.0
N194 N 0.43527 0.1798 0.91506 0.0
C195 C 0.44523 0.22882 0.88485 0.0
C196 C 0.51752 0.12196 0.6792 0.0
O197 O 0.40289 0.17913 0.63286 0.0
O198 O 0.42423 0.20516 0.71692 0.0
O199 O 0.50432 0.1373 0.72881 0.0
O200 O 0.482 0.10746 0.64649 0.0
O201 O 0.43978 0.06348 0.79117 0.0
H202 H 0.46064 0.25288 0.79148 0.0
H203 H 0.42704 0.10038 0.88609 0.0
O204 O 0.41158 0.03376 0.71075 0.0
O205 O 0.33407 0.10708 0.69851 0.0
O206 O 0.36094 0.13325 0.78071 0.0
C207 C 0.3237 0.12069 0.75036 0.0
H208 H 0.34494 0.07551 0.46687 0.0
H209 H 0.44255 0.26771 0.90232 0.0
Co210 Co 0.17317 0.13889 0.91814 0.0
C211 C 0.24484 0.14515 0.9996 0.0
Co212 Co 0.14199 0.15606 1.00931 0.0
C213 C 0.25908 0.13679 0.82731 0.0
C214 C 0.19057 0.11072 0.79174 0.0
N215 N 0.2078 0.13027 0.84053 0.0
N216 N 0.27431 0.12158 0.77389 0.0
C217 C 0.23062 0.10581 0.75119 0.0
H218 H 0.28574 0.15182 0.85687 0.0
H219 H 0.15149 0.09897 0.78637 0.0
C220 C 0.06391 0.14662 0.92916 0.0
N221 N 0.12351 0.16171 0.09057 0.0
C222 C 0.152 0.14551 0.13777 0.0
C223 C 0.08116 0.18009 0.1152 0.0
N224 N 0.12922 0.15272 0.19024 0.0
C225 C 0.08431 0.17415 0.17593 0.0
C226 C 0.16142 0.24949 0.93935 0.0
O227 O 0.1013 0.1394 0.89263 0.0
O228 O 0.07308 0.15318 0.98279 0.0
O229 O 0.1451 0.23155 0.99094 0.0
O230 O 0.17577 0.21679 0.9025 0.0
O231 O 0.20884 0.15811 1.03211 0.0
H232 H 0.04948 0.19572 0.0908 0.0
H233 H 0.18781 0.12576 0.13417 0.0
O234 O 0.23777 0.13779 0.94715 0.0
O235 O 0.17036 0.06226 0.93954 0.0
O236 O 0.13985 0.08166 1.02571 0.0
C237 C 0.1568 0.04729 0.99317 0.0
H238 H 0.22767 0.09024 0.709 0.0
H239 H 0.05511 0.18383 0.20718 0.0
Co240 Co 0.9374 0.94031 0.7275 0.0
C241 C 0.91584 0.02639 0.79135 0.0
Co242 Co 0.85924 0.94928 0.75303 0.0
C243 C 1.02178 0.92659 0.65496 0.0
C244 C 0.03854 0.97728 0.72286 0.0
N245 N 1.00199 0.94525 0.70327 0.0
N246 N 0.06872 0.94645 0.6438 0.0
C247 C 0.07891 0.97974 0.68496 0.0
H248 H 1.00271 0.89919 0.62854 0.0
H249 H 0.03664 0.9983 0.76184 0.0
C250 C 0.87966 0.86094 0.68702 0.0
N251 N 0.79365 0.94808 0.7815 0.0
C252 C 0.78126 0.95976 0.83636 0.0
C253 C 0.7543 0.91803 0.76545 0.0
N254 N 0.73775 0.93467 0.85676 0.0
C255 C 0.72046 0.9084 0.81249 0.0
C256 C 0.88026 1.00732 0.64513 0.0
O257 O 0.92521 0.87801 0.68624 0.0
O258 O 0.84668 0.88437 0.71637 0.0
O259 O 0.8423 0.99331 0.68005 0.0
O260 O 0.92299 0.98873 0.6587 0.0
O261 O 0.87038 0.01241 0.78726 0.0
H262 H 0.75321 0.89852 0.72547 0.0
H263 H 0.8077 0.97742 0.86455 0.0
O264 O 0.94978 1.00086 0.76817 0.0
O265 O 0.95483 0.89423 0.79525 0.0
O266 O 0.87851 0.90721 0.82881 0.0
C267 C 0.92279 0.88925 0.8381 0.0
H268 H 0.11428 1.00172 0.68946 0.0
H269 H 0.68802 0.88032 0.81578 0.0
Co270 Co 0.90947 0.15642 0.53897 0.0
C271 C 0.96319 0.09579 0.47512 0.0
Co272 Co 0.86345 0.11068 0.48829 0.0
C273 C 0.93369 0.24439 0.60021 0.0
C274 C 0.99588 0.19172 0.59544 0.0
N275 N 0.94698 0.19659 0.5827 0.0
N276 N 0.96933 0.26549 0.63208 0.0
C277 C 1.01016 0.23511 0.62382 0.0
H278 H 0.89521 0.25812 0.59951 0.0
H279 H 1.01896 0.1576 0.58742 0.0
C280 C 0.80472 0.16508 0.54951 0.0
N281 N 0.83608 0.07081 0.43433 0.0
C282 C 0.85919 0.07362 0.38069 0.0
C283 C 0.79039 0.04787 0.42876 0.0
N284 N 0.82804 0.06167 0.33917 0.0
C285 C 0.78563 0.04136 0.37027 0.0
C286 C 0.87904 0.05257 0.59624 0.0
O287 O 0.84563 0.17432 0.57538 0.0
O288 O 0.80533 0.1406 0.50417 0.0
O289 O 0.84988 0.0517 0.55295 0.0
O290 O 0.91094 0.0924 0.5957 0.0
O291 O 0.91955 0.07746 0.47202 0.0
H292 H 0.76062 0.04328 0.4627 0.0
H293 H 0.89492 0.09531 0.36984 0.0
O294 O 0.9704 0.13724 0.50153 0.0
O295 O 0.90922 0.22046 0.4877 0.0
O296 O 0.87655 0.17401 0.42345 0.0
C297 C 0.89442 0.21954 0.43676 0.0
H298 H 0.04431 0.23686 0.64792 0.0
H299 H 0.75047 0.03101 0.35136 0.0
Co300 Co 0.61648 0.15376 0.22942 0.0
C301 C 0.64551 0.05511 0.29019 0.0
Co302 Co 0.69568 0.14986 0.24336 0.0
C303 C 0.52834 0.16607 0.16963 0.0
C304 C 0.51697 0.1142 0.25064 0.0
N305 N 0.54871 0.1528 0.22168 0.0
N306 N 0.48956 0.1321 0.16224 0.0
C307 C 0.48141 0.09975 0.21294 0.0
H308 H 0.54583 0.19437 0.13471 0.0
H309 H 0.52272 0.09325 0.29377 0.0
C310 C 0.66692 0.25215 0.18718 0.0
N311 N 0.76357 0.14467 0.24791 0.0
C312 C 0.78537 0.09597 0.25434 0.0
C313 C 0.7979 0.18048 0.26371 0.0
N314 N 0.82638 0.09718 0.28652 0.0
C315 C 0.83759 0.15143 0.28581 0.0
C316 C 0.66587 0.10878 0.13822 0.0
O317 O 0.62309 0.22936 0.19613 0.0
O318 O 0.70499 0.22305 0.19961 0.0
O319 O 0.70272 0.11307 0.17145 0.0
O320 O 0.62488 0.13009 0.15228 0.0
O321 O 0.68709 0.08091 0.28878 0.0
H322 H 0.79132 0.22302 0.26723 0.0
H323 H 0.76566 0.05812 0.24819 0.0
O324 O 0.60987 0.07739 0.26264 0.0
O325 O 0.60658 0.17642 0.30494 0.0
O326 O 0.68804 0.18115 0.31837 0.0
C327 C 0.64252 0.18516 0.33815 0.0
H328 H 0.45132 0.069 0.22228 0.0
H329 H 0.86675 0.16882 0.31053 0.0
Co330 Co 0.68921 0.84379 1.00793 0.0
C331 C 0.77333 0.88598 0.06064 0.0
Co332 Co 0.69084 0.93222 1.02216 0.0
C333 C 0.67367 0.73836 0.95727 0.0
C334 C 0.75058 0.75763 0.97423 0.0
N335 N 0.70275 0.77369 0.98445 0.0
N336 N 0.70201 0.70283 0.92987 0.0
C337 C 0.75017 0.71497 0.94096 0.0
H338 H 0.63317 0.74138 0.95351 0.0
H339 H 0.78492 0.77783 0.98567 0.0
C340 C 0.60854 0.88765 0.96629 0.0
N341 N 0.67894 1.00542 1.04014 0.0
C342 C 0.69412 0.03207 0.08612 0.0
C343 C 0.64366 0.03797 1.01508 0.0
N344 N 0.66807 0.07825 0.09158 0.0
C345 C 0.63619 0.08146 0.04699 0.0
C346 C 0.72527 0.92159 0.91422 0.0
O347 O 0.62504 0.84104 0.98234 0.0
O348 O 0.631 0.93053 0.97982 0.0
O349 O 0.72607 0.95741 0.95037 0.0
O350 O 0.7115 0.87272 0.93176 0.0
O351 O 0.75085 0.93054 0.06239 0.0
H352 H 0.62206 0.02928 0.97787 0.0
H353 H 0.71973 0.01499 0.11852 0.0
O354 O 0.7542 0.84776 1.03564 0.0
O355 O 0.66465 0.81712 0.08341 0.0
O356 O 0.65601 0.90498 0.09199 0.0
C357 C 0.65009 0.85516 0.11308 0.0
H358 H 0.78312 0.69511 0.92503 0.0
H359 H 0.60806 0.1122 1.03911 0.0
Co360 Co 0.92827 0.17368 0.83533 0.0
C361 C 0.90139 0.23248 0.92576 0.0
Co362 Co 0.90168 0.12811 0.91762 0.0
C363 C 0.93049 0.23298 0.72361 0.0
C364 C 0.98288 0.26676 0.77901 0.0
N365 N 0.94867 0.22534 0.77686 0.0
N366 N 0.95545 0.27394 0.68956 0.0
C367 C 0.98715 0.29676 0.725 0.0
H368 H 0.90516 0.2034 0.70725 0.0
H369 H 1.00483 0.27333 0.81668 0.0
C370 C 0.92816 0.07095 0.82309 0.0
N371 N 0.88359 0.08537 0.98642 0.0
C372 C 0.90962 0.04203 1.00671 0.0
C373 C 0.85393 0.09639 1.03282 0.0
N374 N 0.89801 0.02541 0.06369 0.0
C375 C 0.8629 0.0594 0.08082 0.0
C376 C 0.82142 0.14352 0.83595 0.0
O377 O 0.94104 0.11621 0.79417 0.0
O378 O 0.91299 0.06768 0.87675 0.0
O379 O 0.83047 0.1251 0.88927 0.0
O380 O 0.85731 0.17142 0.80652 0.0
O381 O 0.89029 0.18897 0.9578 0.0
H382 H 0.82872 0.13017 1.03248 0.0
H383 H 0.93752 0.02334 0.98017 0.0
O384 O 0.91555 0.23148 0.87355 0.0
O385 O 0.99868 0.17238 0.86035 0.0
O386 O 0.97287 0.12829 0.9436 0.0
C387 C 1.00966 0.14861 0.90997 0.0
H388 H 1.01574 0.32798 0.71057 0.0
H389 H 0.84352 0.05619 0.12362 0.0
Co390 Co 0.65194 0.15972 0.57212 0.0
C391 C 0.57293 0.12668 0.65726 0.0
Co392 Co 0.68367 0.12889 0.66109 0.0
C393 C 0.6588 0.1796 0.44323 0.0
C394 C 0.58541 0.19664 0.47817 0.0
N395 N 0.63152 0.18087 0.49478 0.0
N396 N 0.63107 0.19258 0.39551 0.0
C397 C 0.58482 0.20308 0.41764 0.0
H398 H 0.69695 0.16506 0.4406 0.0
H399 H 0.55356 0.20114 0.50801 0.0
C400 C 0.75581 0.16669 0.57752 0.0
N401 N 0.71773 0.11616 0.73861 0.0
C402 C 0.76248 0.1416 0.75247 0.0
C403 C 0.70356 0.08678 0.79016 0.0
N404 N 0.77667 0.12912 0.80935 0.0
C405 C 0.73895 0.09442 0.83272 0.0
C406 C 0.67297 0.04786 0.58514 0.0
O407 O 0.71857 0.17402 0.54496 0.0
O408 O 0.74896 0.14384 0.62919 0.0
O409 O 0.68762 0.0534 0.63766 0.0
O410 O 0.65548 0.08848 0.55442 0.0
O411 O 0.61041 0.11614 0.69158 0.0
H412 H 0.66942 0.0614 0.79694 0.0
H413 H 0.78462 0.16947 0.72113 0.0
O414 O 0.58296 0.14485 0.60336 0.0
O415 O 0.65001 0.23074 0.58934 0.0
O416 O 0.68 0.2002 0.6752 0.0
C417 C 0.66756 0.23911 0.63829 0.0
H418 H 0.55214 0.21286 0.39185 0.0
H419 H 0.73719 0.07478 0.87744 0.0
Co420 Co 0.63449 0.88849 0.32985 0.0
C421 C 0.65663 0.80688 0.4187 0.0
Co422 Co 0.65953 0.91734 0.41339 0.0
C423 C 0.62866 0.88081 0.20794 0.0
C424 C 0.6126 0.80317 0.25682 0.0
N425 N 0.6186 0.85706 0.26277 0.0
N426 N 0.6318 0.84398 0.16887 0.0
C427 C 0.62184 0.79496 0.19907 0.0
H428 H 0.64005 0.92339 0.19785 0.0
H429 H 0.60643 0.77089 0.29244 0.0
C430 C 0.64057 0.99964 0.3208 0.0
N431 N 0.67658 0.94577 0.48538 0.0
C432 C 0.66225 0.9935 0.50398 0.0
C433 C 0.70243 0.92221 0.53095 0.0
N434 N 0.67807 1.00092 0.55862 0.0
C435 C 0.70325 0.95578 0.57596 0.0
C436 C 0.74338 0.90306 0.33358 0.0
O437 O 0.6273 0.96028 0.29277 0.0
O438 O 0.65551 0.99 0.37319 0.0
O439 O 0.733 0.91667 0.38543 0.0
O440 O 0.70613 0.89051 0.30322 0.0
O441 O 0.66419 0.84463 0.45107 0.0
H442 H 0.71977 0.88298 0.53171 0.0
H443 H 0.64051 0.02275 0.47753 0.0
O444 O 0.64284 0.8186 0.36701 0.0
O445 O 0.56275 0.88647 0.35512 0.0
O446 O 0.58508 0.9163 0.43744 0.0
C447 C 0.54956 0.9018 0.40474 0.0
H448 H 0.62452 0.75606 0.1816 0.0
H449 H 0.72214 0.94825 0.61707 0.0
Co450 Co 0.92508 0.8677 0.07462 0.0
C451 C 1.00316 0.87714 0.15477 0.0
Co452 Co 0.89389 0.88487 0.16579 0.0
C453 C 0.91505 0.87825 0.94617 0.0
C454 C 0.98589 0.84365 0.96872 0.0
N455 N 0.94355 0.86204 0.99335 0.0
N456 N 0.93782 0.87103 0.89369 0.0
C457 C 0.98273 0.8496 0.90799 0.0
H458 H 0.87925 0.89801 0.94977 0.0
H459 H 1.01756 0.82801 0.99311 0.0
C460 C 0.82222 0.8786 0.08432 0.0
N461 N 0.85927 0.89348 0.2434 0.0
C462 C 0.80799 0.88697 0.25662 0.0
C463 C 0.8765 0.91302 0.29219 0.0
N464 N 0.79276 0.90217 0.31005 0.0
C465 C 0.83645 0.91794 0.33274 0.0
C466 C 0.91025 0.97647 0.09076 0.0
O467 O 0.85822 0.86564 0.05182 0.0
O468 O 0.82929 0.88597 0.13678 0.0
O469 O 0.89671 0.9615 0.14439 0.0
O470 O 0.9272 0.9421 0.05821 0.0
O471 O 0.96576 0.88435 0.19129 0.0
H472 H 0.91559 0.92477 0.29755 0.0
H473 H 0.78133 0.87194 0.22706 0.0
O474 O 0.99399 0.87057 0.10113 0.0
O475 O 0.92196 0.7922 0.09299 0.0
O476 O 0.89129 0.80696 0.18142 0.0
C477 C 0.90565 0.77427 0.14458 0.0
H478 H 1.01192 0.83991 0.87674 0.0
H479 H 0.83941 0.9335 0.37494 0.0
Co480 Co 0.70781 0.57448 0.8309 0.0
C481 C 0.68738 0.66283 0.89691 0.0
Co482 Co 0.62964 0.58345 0.85643 0.0
C483 C 0.78578 0.56402 0.74756 0.0
C484 C 0.81274 0.60575 0.81847 0.0
N485 N 0.77339 0.5757 0.80242 0.0
N486 N 0.82929 0.58912 0.72716 0.0
C487 C 0.84657 0.61539 0.77143 0.0
H488 H 0.75935 0.54636 0.71937 0.0
H489 H 0.81382 0.62526 0.85846 0.0
C490 C 0.6512 0.49738 0.79258 0.0
N491 N 0.56505 0.5785 0.88068 0.0
C492 C 0.5453 0.59709 0.92905 0.0
C493 C 0.52851 0.54648 0.86109 0.0
N494 N 0.49838 0.57716 0.94028 0.0
C495 C 0.48818 0.54394 0.89905 0.0
C496 C 0.64424 0.63451 0.74583 0.0
O497 O 0.69666 0.51137 0.79667 0.0
O498 O 0.61726 0.5229 0.81576 0.0
O499 O 0.6122 0.62953 0.78868 0.0
O500 O 0.68853 0.61656 0.75513 0.0
O501 O 0.64183 0.64575 0.89769 0.0
H502 H 0.53038 0.52553 0.82206 0.0
H503 H 0.56438 0.62449 0.95547 0.0
O504 O 0.72036 0.63939 0.86757 0.0
O505 O 0.72475 0.53045 0.90387 0.0
O506 O 0.64407 0.53503 0.92523 0.0
C507 C 0.68679 0.51644 0.9388 0.0
H508 H 0.87901 0.64347 0.76814 0.0
H509 H 0.4528 0.52199 0.89453 0.0
Co510 Co 0.70361 0.41309 0.09564 0.0
C511 C 0.76235 0.35868 1.03441 0.0
Co512 Co 0.65762 0.36732 0.04496 0.0
C513 C 0.70789 0.45015 0.20323 0.0
C514 C 0.7767 0.47588 0.15515 0.0
N515 N 0.73099 0.45295 0.14958 0.0
N516 N 0.73905 0.46208 0.24474 0.0
C517 C 0.78146 0.48238 0.21364 0.0
H518 H 0.67216 0.42846 0.21408 0.0
H519 H 0.80646 0.48045 0.12121 0.0
C520 C 0.60389 0.42792 0.10886 0.0
N521 N 0.6201 0.32715 1.00125 0.0
C522 C 0.63339 0.27936 0.98372 0.0
C523 C 0.5712 0.33203 0.98852 0.0
N524 N 0.59774 0.25827 0.95186 0.0
C525 C 0.55691 0.28864 0.96013 0.0
C526 C 0.67267 0.30421 0.14717 0.0
O527 O 0.64751 0.44631 0.1119 0.0
O528 O 0.5967 0.38646 0.08246 0.0
O529 O 0.65791 0.30327 0.09622 0.0
O530 O 0.6905 0.34976 0.16049 0.0
O531 O 0.72145 0.34945 1.00852 0.0
H532 H 0.54812 0.36614 0.99655 0.0
H533 H 0.67187 0.26563 0.98441 0.0
O534 O 0.76173 0.38315 0.07975 0.0
O535 O 0.71719 0.47206 1.03097 0.0
O536 O 0.65611 0.43136 0.98825 0.0
C537 C 0.68802 0.47119 0.98769 0.0
H538 H 0.81663 0.49271 0.23255 0.0
H539 H 0.52276 0.28689 0.93605 0.0
Co540 Co 0.87139 0.3739 0.3406 0.0
C541 C 0.90016 0.27162 0.39678 0.0
Co542 Co 0.95061 0.36999 0.35451 0.0
C543 C 0.78171 0.4278 0.32959 0.0
C544 C 0.76918 0.34329 0.32022 0.0
N545 N 0.80351 0.37909 0.33603 0.0
N546 N 0.74071 0.42658 0.2974 0.0
C547 C 0.7295 0.37233 0.29811 0.0
H548 H 0.80141 0.46564 0.33574 0.0
H549 H 0.77576 0.30074 0.31671 0.0
C550 C 0.92159 0.46864 0.29375 0.0
N551 N 1.01838 0.37093 0.36226 0.0
C552 C 0.03871 0.35772 0.41435 0.0
C553 C 0.05013 0.40953 0.33331 0.0
N554 N 0.07743 0.39176 0.42179 0.0
C555 C 0.08563 0.42404 0.37104 0.0
C556 C 0.92456 0.3386 0.24579 0.0
O557 O 0.88 0.44286 0.2952 0.0
O558 O 0.95724 0.44636 0.32126 0.0
O559 O 0.96052 0.34732 0.279 0.0
O560 O 0.87905 0.34262 0.26558 0.0
O561 O 0.94399 0.2944 0.38782 0.0
H562 H 0.04441 0.43044 0.29015 0.0
H563 H 1.02122 0.32941 0.44926 0.0
O564 O 0.86208 0.3007 0.38433 0.0
O565 O 0.86435 0.41068 0.41251 0.0
O566 O 0.9422 0.39369 0.43164 0.0
C567 C 0.90121 0.41499 0.44572 0.0
H568 H 0.70034 0.35493 0.27338 0.0
H569 H 0.11573 0.45478 0.3617 0.0
Co570 Co 0.87623 0.59156 0.56177 0.0
C571 C 0.9585 0.63616 0.61769 0.0
Co572 Co 0.87784 0.67999 0.57598 0.0
C573 C 0.87295 0.49169 0.49784 0.0
C574 C 0.92346 0.48583 0.56883 0.0
N575 N 0.88815 0.51836 0.54379 0.0
N576 N 0.89902 0.44553 0.49236 0.0
C577 C 0.93093 0.44234 0.53692 0.0
H578 H 0.84732 0.50876 0.46546 0.0
H579 H 0.94508 0.49454 0.60601 0.0
C580 C 0.79374 0.63778 0.52328 0.0
N581 N 0.86429 0.7501 0.59946 0.0
C582 C 0.89337 0.78541 0.62666 0.0
C583 C 0.81646 0.76616 0.60966 0.0
N584 N 0.86503 0.82094 0.65406 0.0
C585 C 0.81687 0.80881 0.64294 0.0
C586 C 0.91698 0.66863 0.47085 0.0
O587 O 0.81623 0.59324 0.52152 0.0
O588 O 0.81285 0.676 0.54828 0.0
O589 O 0.90239 0.70666 0.5005 0.0
O590 O 0.91107 0.6188 0.49195 0.0
O591 O 0.94201 0.68276 0.60157 0.0
H592 H 0.78212 0.74598 0.59819 0.0
H593 H 0.93387 0.78238 0.63043 0.0
O594 O 0.93605 0.59327 0.60416 0.0
O595 O 0.84097 0.56638 0.63355 0.0
O596 O 0.85554 0.65107 0.65216 0.0
C597 C 0.84177 0.60219 0.6697 0.0
H598 H 0.95908 0.41162 0.54478 0.0
H599 H 0.78392 0.82868 0.65886 0.0
Co600 Co 0.66538 0.39566 0.66631 0.0
C601 C 0.63889 0.45282 0.76084 0.0
Co602 Co 0.63879 0.35009 0.74861 0.0
C603 C 0.65744 0.48173 0.57722 0.0
C604 C 0.71313 0.42737 0.55111 0.0
N605 N 0.68347 0.43839 0.59751 0.0
N606 N 0.66905 0.49835 0.52024 0.0
C607 C 0.70417 0.46436 0.50311 0.0
H608 H 0.62953 0.50041 0.60376 0.0
H609 H 0.73835 0.39359 0.55146 0.0
C610 C 0.66568 0.29128 0.65818 0.0
N611 N 0.61839 0.29843 0.80707 0.0
C612 C 0.63657 0.29079 0.86033 0.0
C613 C 0.58418 0.257 0.80493 0.0
N614 N 0.61162 0.24982 0.89437 0.0
C615 C 0.57991 0.227 0.85893 0.0
C616 C 0.5574 0.37515 0.67396 0.0
O617 O 0.67677 0.33479 0.62613 0.0
O618 O 0.65152 0.29229 0.71039 0.0
O619 O 0.56838 0.35138 0.72358 0.0
O620 O 0.5942 0.39547 0.64033 0.0
O621 O 0.62601 0.40755 0.78976 0.0
H622 H 0.56223 0.25043 0.76726 0.0
H623 H 0.6619 0.32037 0.87668 0.0
O624 O 0.65407 0.45608 0.70719 0.0
O625 O 0.73659 0.39867 0.69466 0.0
O626 O 0.70975 0.35235 0.77742 0.0
C627 C 0.74565 0.38025 0.74799 0.0
H628 H 0.72354 0.46757 0.46032 0.0
H629 H 0.55132 0.19578 0.87336 0.0
Co630 Co 0.8834 0.39487 0.92284 0.0
C631 C 0.81126 0.35707 1.0064 0.0
Co632 Co 0.91514 0.36404 1.01182 0.0
C633 C 0.80459 0.38217 0.83147 0.0
C634 C 0.8635 0.43699 0.79377 0.0
N635 N 0.84934 0.40761 0.84532 0.0
N636 N 0.79039 0.39465 0.77459 0.0
C637 C 0.82812 0.42935 0.75121 0.0
H638 H 0.78245 0.35429 0.86281 0.0
H639 H 0.89765 0.46236 0.78699 0.0
C640 C 0.99415 0.39708 0.92667 0.0
N641 N 0.93555 0.34289 0.08915 0.0
C642 C 0.90828 0.34417 0.14071 0.0
C643 C 0.98166 0.32711 0.10576 0.0
N644 N 0.93601 0.33117 0.18843 0.0
C645 C 0.98226 0.32066 0.16629 0.0
C646 C 0.8995 0.28465 0.94565 0.0
O647 O 0.95666 0.40762 0.89235 0.0
O648 O 0.98412 0.3789 0.98058 0.0
O649 O 0.91706 0.29302 0.99459 0.0
O650 O 0.88708 0.32356 0.90873 0.0
O651 O 0.8485 0.34975 1.03898 0.0
H652 H 1.01351 0.32259 0.07592 0.0
H653 H 0.87014 0.35872 0.14334 0.0
O654 O 0.81812 0.37993 0.95474 0.0
O655 O 0.87946 0.47036 0.94627 0.0
O656 O 0.9116 0.43528 1.02952 0.0
C657 C 0.89411 0.4759 0.99879 0.0
H658 H 0.82987 0.44899 0.70649 0.0
H659 H 1.01494 0.31087 0.19208 0.0
Co660 Co 0.90755 0.60642 0.17055 0.0
C661 C 0.92652 0.52412 0.26314 0.0
Co662 Co 0.93258 0.63527 0.25409 0.0
C663 C 0.90483 0.53026 0.07995 0.0
C664 C 0.86465 0.60154 0.05299 0.0
N665 N 0.8905 0.57799 0.09856 0.0
N666 N 0.88901 0.52284 1.02531 0.0
C667 C 0.86383 0.56798 1.00797 0.0
H668 H 0.92658 0.50101 0.1064 0.0
H669 H 0.8473 0.64077 0.05223 0.0
C670 C 0.91044 0.71688 0.16523 0.0
N671 N 0.94847 0.66671 0.32116 0.0
C672 C 0.93842 0.64296 0.37599 0.0
C673 C 0.95447 0.7206 0.32711 0.0
N674 N 0.93527 0.6798 0.41506 0.0
C675 C 0.94523 0.72882 0.38485 0.0
C676 C 1.01752 0.62196 0.1792 0.0
O677 O 0.90289 0.67912 0.13286 0.0
O678 O 0.92423 0.70516 0.21693 0.0
O679 O 1.00433 0.63729 0.22881 0.0
O680 O 0.982 0.60746 0.14649 0.0
O681 O 0.93978 0.56348 0.29117 0.0
H682 H 0.96064 0.75287 0.29148 0.0
H683 H 0.92703 0.60038 0.38609 0.0
O684 O 0.91158 0.53376 0.21075 0.0
O685 O 0.83407 0.60708 0.19851 0.0
O686 O 0.86094 0.63324 0.28071 0.0
C687 C 0.8237 0.62069 0.25036 0.0
H688 H 0.84494 0.57551 0.96687 0.0
H689 H 0.94255 0.76771 0.40232 0.0
Co690 Co 0.67317 0.63889 0.41814 0.0
C691 C 0.74484 0.64515 0.4996 0.0
Co692 Co 0.64198 0.65606 0.50931 0.0
C693 C 0.75908 0.63679 0.32731 0.0
C694 C 0.69057 0.61072 0.29174 0.0
N695 N 0.7078 0.63027 0.34053 0.0
N696 N 0.77431 0.62158 0.27389 0.0
C697 C 0.73063 0.60581 0.25119 0.0
H698 H 0.78574 0.65182 0.35687 0.0
H699 H 0.65149 0.59897 0.28637 0.0
C700 C 0.56391 0.64662 0.42916 0.0
N701 N 0.62351 0.66172 0.59057 0.0
C702 C 0.652 0.64551 0.63777 0.0
C703 C 0.58116 0.68009 0.6152 0.0
N704 N 0.62922 0.65272 0.69024 0.0
C705 C 0.58431 0.67415 0.67593 0.0
C706 C 0.66143 0.74949 0.43935 0.0
O707 O 0.6013 0.6394 0.39263 0.0
O708 O 0.57308 0.65318 0.48279 0.0
O709 O 0.6451 0.73155 0.49094 0.0
O710 O 0.67577 0.71679 0.4025 0.0
O711 O 0.70884 0.65811 0.53211 0.0
H712 H 0.54948 0.69573 0.5908 0.0
H713 H 0.68781 0.62576 0.63417 0.0
O714 O 0.73777 0.63779 0.44715 0.0
O715 O 0.67036 0.56226 0.43954 0.0
O716 O 0.63985 0.58166 0.52571 0.0
C717 C 0.6568 0.54729 0.49317 0.0
H718 H 0.72767 0.59024 0.20899 0.0
H719 H 0.55511 0.68383 0.70718 0.0
Co720 Co 0.4374 0.44031 0.2275 0.0
C721 C 0.41584 0.52638 0.29136 0.0
Co722 Co 0.35924 0.44928 0.25303 0.0
C723 C 0.52178 0.42659 0.15497 0.0
C724 C 0.53854 0.47729 0.22285 0.0
N725 N 0.502 0.44525 0.20327 0.0
N726 N 0.56872 0.44646 0.14379 0.0
C727 C 0.5789 0.47975 0.18495 0.0
H728 H 0.50271 0.39918 0.12854 0.0
H729 H 0.53664 0.49831 0.26183 0.0
C730 C 0.37966 0.36094 0.18702 0.0
N731 N 0.29365 0.44808 0.2815 0.0
C732 C 0.28126 0.45976 0.33636 0.0
C733 C 0.2543 0.41803 0.26545 0.0
N734 N 0.23775 0.43467 0.35676 0.0
C735 C 0.22046 0.4084 0.31249 0.0
C736 C 0.38026 0.50732 0.14513 0.0
O737 O 0.42521 0.37802 0.18624 0.0
O738 O 0.34668 0.38437 0.21637 0.0
O739 O 0.3423 0.49331 0.18005 0.0
O740 O 0.42299 0.48873 0.1587 0.0
O741 O 0.37038 0.51241 0.28726 0.0
H742 H 0.25322 0.39852 0.22547 0.0
H743 H 0.3077 0.47742 0.36455 0.0
O744 O 0.44978 0.50085 0.26818 0.0
O745 O 0.45483 0.39423 0.29525 0.0
O746 O 0.37851 0.40721 0.32881 0.0
C747 C 0.42279 0.38925 0.3381 0.0
H748 H 0.61428 0.50173 0.18945 0.0
H749 H 0.18802 0.38032 0.31578 0.0
Co750 Co 0.40947 0.65642 1.03897 0.0
C751 C 0.46319 0.59579 0.97512 0.0
Co752 Co 0.36345 0.61067 0.98829 0.0
C753 C 0.43369 0.74439 0.10021 0.0
C754 C 0.49588 0.69172 0.09544 0.0
N755 N 0.44698 0.69659 0.08269 0.0
N756 N 0.46933 0.76549 0.13207 0.0
C757 C 0.51016 0.73511 0.12382 0.0
H758 H 0.39521 0.75812 0.09951 0.0
H759 H 0.51896 0.6576 0.08742 0.0
C760 C 0.30472 0.66508 0.04951 0.0
N761 N 0.33608 0.57081 0.93434 0.0
C762 C 0.35919 0.57361 0.8807 0.0
C763 C 0.29038 0.54787 0.92877 0.0
N764 N 0.32804 0.56167 0.83918 0.0
C765 C 0.28563 0.54136 0.87027 0.0
C766 C 0.37904 0.55257 0.09624 0.0
O767 O 0.34563 0.67432 0.07538 0.0
O768 O 0.30533 0.6406 1.00417 0.0
O769 O 0.34988 0.5517 0.05295 0.0
O770 O 0.41094 0.5924 0.0957 0.0
O771 O 0.41955 0.57745 0.97203 0.0
H772 H 0.26062 0.54328 0.9627 0.0
H773 H 0.39492 0.5953 0.86985 0.0
O774 O 0.4704 0.63724 1.00152 0.0
O775 O 0.40922 0.72046 0.9877 0.0
O776 O 0.37656 0.674 0.92344 0.0
C777 C 0.39442 0.71953 0.93676 0.0
H778 H 0.54431 0.73687 0.14791 0.0
H779 H 0.25046 0.53101 0.85136 0.0
Co780 Co 0.11648 0.65377 0.72941 0.0
C781 C 0.14551 0.55512 0.79019 0.0
Co782 Co 0.19569 0.64986 0.74336 0.0
C783 C 1.02834 0.66607 0.66963 0.0
C784 C 1.01697 0.6142 0.75064 0.0
N785 N 0.04871 0.6528 0.72168 0.0
N786 N 0.98956 0.6321 0.66224 0.0
C787 C 0.98141 0.59975 0.71294 0.0
H788 H 0.04583 0.69437 0.63471 0.0
H789 H 1.02272 0.59325 0.79377 0.0
C790 C 0.16692 0.75214 0.68716 0.0
N791 N 0.26357 0.64467 0.74791 0.0
C792 C 0.28537 0.59596 0.75434 0.0
C793 C 0.29791 0.68047 0.76372 0.0
N794 N 0.32638 0.59718 0.78652 0.0
C795 C 0.33759 0.65142 0.78581 0.0
C796 C 0.16587 0.60878 0.63822 0.0
O797 O 0.12309 0.72936 0.69612 0.0
O798 O 0.205 0.72305 0.69961 0.0
O799 O 0.20272 0.61307 0.67145 0.0
O800 O 0.12488 0.63009 0.65228 0.0
O801 O 0.18709 0.58091 0.78877 0.0
H802 H 0.29133 0.72301 0.76723 0.0
H803 H 0.26566 0.55812 0.74819 0.0
O804 O 0.10987 0.57739 0.76265 0.0
O805 O 0.10658 0.67642 0.80494 0.0
O806 O 0.18804 0.68115 0.81837 0.0
C807 C 0.14252 0.68516 0.83815 0.0
H808 H 0.95132 0.569 0.72228 0.0
H809 H 0.36676 0.66881 0.81054 0.0
Co810 Co 0.18921 0.34379 0.50793 0.0
C811 C 0.27333 0.38598 0.56064 0.0
Co812 Co 0.19084 0.43222 0.52217 0.0
C813 C 0.17367 0.23837 0.45726 0.0
C814 C 0.25058 0.25762 0.47424 0.0
N815 N 0.20275 0.27368 0.48445 0.0
N816 N 0.20201 0.20283 0.42986 0.0
C817 C 0.25017 0.21497 0.44097 0.0
H818 H 0.13317 0.24139 0.4535 0.0
H819 H 0.28492 0.27782 0.48569 0.0
C820 C 0.10854 0.38765 0.46629 0.0
N821 N 0.17894 0.50543 0.54014 0.0
C822 C 0.19412 0.53207 0.58612 0.0
C823 C 0.14366 0.53797 0.51508 0.0
N824 N 0.16808 0.57825 0.59157 0.0
C825 C 0.13619 0.58146 0.54699 0.0
C826 C 0.22527 0.42159 0.41422 0.0
O827 O 0.12504 0.34104 0.48234 0.0
O828 O 0.131 0.43053 0.47982 0.0
O829 O 0.22607 0.45741 0.45037 0.0
O830 O 0.2115 0.37272 0.43176 0.0
O831 O 0.25085 0.43054 0.56239 0.0
H832 H 0.12206 0.52928 0.47787 0.0
H833 H 0.21973 0.51499 0.61852 0.0
O834 O 0.2542 0.34776 0.53564 0.0
O835 O 0.16465 0.31712 0.58341 0.0
O836 O 0.15602 0.40498 0.59199 0.0
C837 C 0.15009 0.35516 0.61308 0.0
H838 H 0.28312 0.1951 0.42505 0.0
H839 H 0.10806 0.6122 0.53911 0.0
Co840 Co 0.42827 0.67367 0.33532 0.0
C841 C 0.40139 0.73248 0.42575 0.0
Co842 Co 0.40169 0.62811 0.41762 0.0
C843 C 0.43049 0.73297 0.22361 0.0
C844 C 0.48288 0.76676 0.279 0.0
N845 N 0.44868 0.72533 0.27686 0.0
N846 N 0.45545 0.77394 0.18956 0.0
C847 C 0.48715 0.79676 0.225 0.0
H848 H 0.40516 0.7034 0.20725 0.0
H849 H 0.50483 0.77333 0.31667 0.0
C850 C 0.42816 0.57095 0.32309 0.0
N851 N 0.38359 0.58537 0.48642 0.0
C852 C 0.40962 0.54203 0.50671 0.0
C853 C 0.35393 0.59639 0.53282 0.0
N854 N 0.39801 0.52541 0.56369 0.0
C855 C 0.3629 0.5594 0.58082 0.0
C856 C 0.32142 0.64352 0.33595 0.0
O857 O 0.44105 0.61621 0.29417 0.0
O858 O 0.41299 0.56768 0.37675 0.0
O859 O 0.33047 0.6251 0.38927 0.0
O860 O 0.35731 0.67142 0.30652 0.0
O861 O 0.39029 0.68897 0.4578 0.0
H862 H 0.32872 0.63017 0.53249 0.0
H863 H 0.43752 0.52334 0.48017 0.0
O864 O 0.41555 0.73147 0.37354 0.0
O865 O 0.49869 0.67238 0.36035 0.0
O866 O 0.47287 0.62829 0.4436 0.0
C867 C 0.50966 0.64861 0.40997 0.0
H868 H 0.51574 0.82798 0.21057 0.0
H869 H 0.34353 0.55619 0.62362 0.0
Co870 Co 0.15194 0.65972 0.07212 0.0
C871 C 0.07293 0.62668 0.15726 0.0
Co872 Co 0.18367 0.62889 0.16109 0.0
C873 C 0.1588 0.6796 0.94323 0.0
C874 C 0.08541 0.69664 0.97817 0.0
N875 N 0.13152 0.68087 0.99478 0.0
N876 N 0.13107 0.69259 0.8955 0.0
C877 C 0.08482 0.70309 0.91764 0.0
H878 H 0.19695 0.66506 0.9406 0.0
H879 H 0.05356 0.70114 1.00801 0.0
C880 C 0.25581 0.66669 0.07752 0.0
N881 N 0.21773 0.61616 0.23861 0.0
C882 C 0.26249 0.64159 0.25246 0.0
C883 C 0.20356 0.58678 0.29016 0.0
N884 N 0.27667 0.62912 0.30935 0.0
C885 C 0.23895 0.59442 0.33272 0.0
C886 C 0.17297 0.54786 0.08514 0.0
O887 O 0.21857 0.67402 0.04495 0.0
O888 O 0.24896 0.64384 0.12919 0.0
O889 O 0.18762 0.5534 0.13766 0.0
O890 O 0.15548 0.58848 0.05442 0.0
O891 O 0.11042 0.61615 0.19158 0.0
H892 H 0.16942 0.56141 0.29694 0.0
H893 H 0.28462 0.66947 0.22113 0.0
O894 O 0.08296 0.64486 0.10336 0.0
O895 O 0.15001 0.73074 0.08934 0.0
O896 O 0.18 0.70021 0.1752 0.0
C897 C 0.16758 0.73911 0.13828 0.0
H898 H 0.05214 0.71287 0.89185 0.0
H899 H 0.23719 0.57478 0.37744 0.0
Co900 Co 0.13449 0.38849 0.82985 0.0
C901 C 0.15663 0.30688 0.9187 0.0
Co902 Co 0.15953 0.41734 0.91339 0.0
C903 C 0.12866 0.38082 0.70794 0.0
C904 C 0.1126 0.30317 0.75682 0.0
N905 N 0.1186 0.35706 0.76277 0.0
N906 N 0.1318 0.34398 0.66887 0.0
C907 C 0.12184 0.29496 0.69907 0.0
H908 H 0.14005 0.42339 0.69785 0.0
H909 H 0.10642 0.27089 0.79244 0.0
C910 C 0.14057 0.49964 0.8208 0.0
N911 N 0.17657 0.44577 0.98538 0.0
C912 C 0.16225 0.4935 1.00398 0.0
C913 C 0.20243 0.42222 1.03095 0.0
N914 N 0.17807 0.50092 0.05862 0.0
C915 C 0.20324 0.45578 0.07596 0.0
C916 C 0.24338 0.40306 0.83358 0.0
O917 O 0.1273 0.46028 0.79277 0.0
O918 O 0.15551 0.49 0.87319 0.0
O919 O 0.233 0.41667 0.88543 0.0
O920 O 0.20613 0.39052 0.80322 0.0
O921 O 0.16418 0.34463 0.95107 0.0
H922 H 0.21977 0.38298 1.03171 0.0
H923 H 0.1405 0.52275 0.97753 0.0
O924 O 0.14284 0.3186 0.86701 0.0
O925 O 0.06275 0.38647 0.85512 0.0
O926 O 0.08508 0.4163 0.93744 0.0
C927 C 0.04956 0.4018 0.90474 0.0
H928 H 0.12452 0.25606 0.6816 0.0
H929 H 0.22214 0.44825 0.11707 0.0
Co930 Co 0.42508 0.3677 0.57462 0.0
C931 C 0.50316 0.37714 0.65477 0.0
Co932 Co 0.39389 0.38487 0.66579 0.0
C933 C 0.41505 0.37825 0.44617 0.0
C934 C 0.48589 0.34365 0.46872 0.0
N935 N 0.44355 0.36204 0.49335 0.0
N936 N 0.43782 0.37103 0.39369 0.0
C937 C 0.48273 0.34959 0.40799 0.0
H938 H 0.37925 0.39801 0.44977 0.0
H939 H 0.51756 0.32801 0.49312 0.0
C940 C 0.32222 0.37859 0.58432 0.0
N941 N 0.35927 0.39348 0.7434 0.0
C942 C 0.30799 0.38697 0.75662 0.0
C943 C 0.3765 0.41302 0.79219 0.0
N944 N 0.29276 0.40218 0.81005 0.0
C945 C 0.33645 0.41793 0.83274 0.0
C946 C 0.41025 0.47647 0.59076 0.0
O947 O 0.35822 0.36564 0.55182 0.0
O948 O 0.32929 0.38597 0.63678 0.0
O949 O 0.39671 0.4615 0.64439 0.0
O950 O 0.4272 0.4421 0.55821 0.0
O951 O 0.46576 0.38435 0.69129 0.0
H952 H 0.41559 0.42477 0.79756 0.0
H953 H 0.28132 0.37194 0.72706 0.0
O954 O 0.49399 0.37058 0.60113 0.0
O955 O 0.42196 0.2922 0.59299 0.0
O956 O 0.39129 0.30696 0.68143 0.0
C957 C 0.40564 0.27427 0.64458 0.0
H958 H 0.51192 0.3399 0.37674 0.0
H959 H 0.33941 0.4335 0.87494 0.0
loop_
_geom_bond_atom_site_label_1
_geom_bond_atom_site_label_2
_geom_bond_distance
_geom_bond_site_symmetry_2
_ccdc_geom_bond_type
Co0 N5 2.057 . S
Co0 O17 2.021 1_545 S
Co0 O20 2.062 . S
Co0 O24 2.117 . S
Co0 O25 2.020 . S
C1 O21 1.259 . S
C1 O24 1.258 . S
Co2 N11 2.057 . S
Co2 O18 2.117 1_545 S
Co2 O19 2.020 . S
Co2 O21 2.021 . S
Co2 O26 2.062 . S
C3 N5 1.316 . S
C3 N6 1.347 . S
C3 H8 0.947 . S
C4 N5 1.375 . S
C4 C7 1.350 . S
C4 H9 0.930 . S
N5 Co0 2.057 . S
N5 C3 1.316 . S
N5 C4 1.375 . S
N6 C3 1.347 . S
N6 C7 1.373 . S
C7 C4 1.350 . S
C7 N6 1.373 . S
C7 H28 0.931 . S
H8 C3 0.947 . S
H9 C4 0.930 . S
C10 O17 1.259 . S
C10 O18 1.258 . S
N11 Co2 2.057 . S
N11 C12 1.316 1_455 S
N11 C13 1.375 1_455 S
C12 N11 1.316 1_655 S
C12 N14 1.347 . S
C12 H23 0.931 . S
C13 N11 1.375 1_655 S
C13 C15 1.350 . S
C13 H22 0.930 1_545 S
N14 C12 1.347 . S
N14 C15 1.373 . S
C15 C13 1.350 . S
C15 N14 1.373 . S
C15 H29 0.931 1_545 S
C16 O19 1.256 . S
C16 O20 1.255 . S
O17 Co0 2.021 1_565 S
O17 C10 1.259 . S
O18 Co2 2.117 1_565 S
O18 C10 1.258 . S
O19 Co2 2.020 . S
O19 C16 1.256 . S
O20 Co0 2.062 . S
O20 C16 1.255 . S
O21 C1 1.259 . S
O21 Co2 2.021 . S
H22 C13 0.930 1_565 S
H23 C12 0.931 . S
O24 Co0 2.117 . S
O24 C1 1.258 . S
O25 Co0 2.020 . S
O25 C27 1.256 . S
O26 Co2 2.062 . S
O26 C27 1.259 . S
C27 O25 1.256 . S
C27 O26 1.259 . S
H28 C7 0.931 . S
H29 C15 0.931 1_565 S
Co30 N35 2.057 . S
Co30 O47 2.021 . S
Co30 O50 2.062 . S
Co30 O54 2.117 . S
Co30 O55 2.020 . S
C31 O51 1.259 . S
C31 O54 1.258 . S
Co32 N41 2.057 . S
Co32 O48 2.117 . S
Co32 O49 2.020 . S
Co32 O51 2.021 . S
Co32 O56 2.062 . S
C33 N35 1.316 . S
C33 N36 1.347 . S
C33 H38 0.931 . S
C34 N35 1.375 . S
C34 C37 1.350 . S
C34 H39 0.930 . S
N35 Co30 2.057 . S
N35 C33 1.316 . S
N35 C34 1.375 . S
N36 C33 1.347 . S
N36 C37 1.373 . S
C37 C34 1.350 . S
C37 N36 1.373 . S
C37 H58 0.931 . S
H38 C33 0.931 . S
H39 C34 0.930 . S
C40 O47 1.259 . S
C40 O48 1.258 . S
N41 Co32 2.057 . S
N41 C42 1.316 . S
N41 C43 1.375 . S
C42 N41 1.316 . S
C42 N44 1.347 . S
C42 H53 0.931 . S
C43 N41 1.375 . S
C43 C45 1.350 . S
C43 H52 0.930 . S
N44 C42 1.347 . S
N44 C45 1.373 . S
C45 C43 1.350 . S
C45 N44 1.373 . S
C45 H59 0.931 1_455 S
C46 O49 1.256 . S
C46 O50 1.255 . S
O47 Co30 2.021 . S
O47 C40 1.259 . S
O48 Co32 2.117 . S
O48 C40 1.258 . S
O49 Co32 2.020 . S
O49 C46 1.256 . S
O50 Co30 2.062 . S
O50 C46 1.255 . S
O51 C31 1.259 . S
O51 Co32 2.021 . S
H52 C43 0.930 . S
H53 C42 0.931 . S
O54 Co30 2.117 . S
O54 C31 1.258 . S
O55 Co30 2.020 . S
O55 C57 1.256 . S
O56 Co32 2.062 . S
O56 C57 1.255 . S
C57 O55 1.256 . S
C57 O56 1.255 . S
H58 C37 0.931 . S
H59 C45 0.931 1_655 S
Co60 N65 2.057 . S
Co60 O77 2.021 . S
Co60 O80 2.062 . S
Co60 O84 2.117 . S
Co60 O85 2.020 . S
C61 O81 1.259 . S
C61 O84 1.258 . S
Co62 N71 2.057 . S
Co62 O78 2.117 . S
Co62 O79 2.020 . S
Co62 O81 2.021 . S
Co62 O86 2.062 . S
C63 N65 1.316 . S
C63 N66 1.347 . S
C63 H68 0.931 . S
C64 N65 1.375 . S
C64 C67 1.350 . S
C64 H69 0.930 . S
N65 Co60 2.057 . S
N65 C63 1.316 . S
N65 C64 1.375 . S
N66 C63 1.347 . S
N66 C67 1.373 . S
C67 C64 1.350 . S
C67 N66 1.373 . S
C67 H88 0.931 . S
H68 C63 0.931 . S
H69 C64 0.930 . S
C70 O77 1.259 . S
C70 O78 1.258 . S
N71 Co62 2.057 . S
N71 C72 1.316 . S
N71 C73 1.375 . S
C72 N71 1.316 . S
C72 N74 1.347 . S
C72 H83 0.931 . S
C73 N71 1.375 . S
C73 C75 1.350 . S
C73 H82 0.930 . S
N74 C72 1.347 . S
N74 C75 1.373 . S
C75 C73 1.350 . S
C75 N74 1.373 . S
C75 H89 0.931 . S
C76 O79 1.256 . S
C76 O80 1.255 . S
O77 Co60 2.021 . S
O77 C70 1.259 . S
O78 Co62 2.117 . S
O78 C70 1.258 . S
O79 Co62 2.020 . S
O79 C76 1.256 . S
O80 Co60 2.062 . S
O80 C76 1.255 . S
O81 C61 1.259 . S
O81 Co62 2.021 . S
H82 C73 0.930 . S
H83 C72 0.931 . S
O84 Co60 2.117 . S
O84 C61 1.258 . S
O85 Co60 2.020 . S
O85 C87 1.256 . S
O86 Co62 2.062 . S
O86 C87 1.255 . S
C87 O85 1.256 . S
C87 O86 1.255 . S
H88 C67 0.931 . S
H89 C75 0.931 . S
Co90 N95 2.057 . S
Co90 O107 2.021 1_554 S
Co90 O110 2.062 1_554 S
Co90 O114 2.117 . S
Co90 O115 2.020 . S
C91 O111 1.259 . S
C91 O114 1.258 . S
Co92 N101 2.057 . S
Co92 O108 2.117 . S
Co92 O109 2.020 1_554 S
Co92 O111 2.021 . S
Co92 O116 2.062 . S
C93 N95 1.316 1_566 S
C93 N96 1.347 . S
C93 H98 0.931 . S
C94 N95 1.375 1_565 S
C94 C97 1.350 1_554 S
C94 H99 0.930 . S
N95 Co90 2.057 . S
N95 C93 1.316 1_544 S
N95 C94 1.375 1_545 S
N96 C93 1.347 . S
N96 C97 1.373 . S
C97 C94 1.350 1_556 S
C97 N96 1.373 . S
C97 H118 0.931 . S
H98 C93 0.931 . S
H99 C94 0.930 . S
C100 O107 1.259 . S
C100 O108 1.258 1_556 S
N101 Co92 2.057 . S
N101 C102 1.316 . S
N101 C103 1.375 . S
C102 N101 1.316 . S
C102 N104 1.347 . S
C102 H113 0.931 . S
C103 N101 1.375 . S
C103 C105 1.350 . S
C103 H112 0.930 . S
N104 C102 1.347 . S
N104 C105 1.373 . S
C105 C103 1.350 . S
C105 N104 1.373 . S
C105 H119 0.931 . S
C106 O109 1.256 . S
C106 O110 1.255 . S
O107 Co90 2.021 1_556 S
O107 C100 1.259 . S
O108 Co92 2.117 . S
O108 C100 1.258 1_554 S
O109 Co92 2.020 1_556 S
O109 C106 1.256 . S
O110 Co90 2.062 1_556 S
O110 C106 1.255 . S
O111 C91 1.259 . S
O111 Co92 2.021 . S
H112 C103 0.930 . S
H113 C102 0.931 . S
O114 Co90 2.117 . S
O114 C91 1.258 . S
O115 Co90 2.020 . S
O115 C117 1.256 . S
O116 Co92 2.062 . S
O116 C117 1.255 . S
C117 O115 1.256 . S
C117 O116 1.255 . S
H118 C97 0.931 . S
H119 C105 0.931 . S
Co120 N125 2.057 . S
Co120 O137 2.021 . S
Co120 O140 2.062 . S
Co120 O144 2.117 . S
Co120 O145 2.020 . S
C121 O141 1.259 . S
C121 O144 1.258 . S
Co122 N131 2.057 . S
Co122 O138 2.117 . S
Co122 O139 2.020 . S
Co122 O141 2.021 . S
Co122 O146 2.062 . S
C123 N125 1.316 1_556 S
C123 N126 1.347 . S
C123 H128 0.931 . S
C124 N125 1.375 1_545 S
C124 C127 1.350 1_554 S
C124 H129 0.930 . S
N125 Co120 2.057 . S
N125 C123 1.316 1_554 S
N125 C124 1.375 1_565 S
N126 C123 1.347 . S
N126 C127 1.373 1_565 S
C127 C124 1.350 1_556 S
C127 N126 1.373 1_545 S
C127 H148 0.931 . S
H128 C123 0.931 . S
H129 C124 0.930 . S
C130 O137 1.259 . S
C130 O138 1.258 . S
N131 Co122 2.057 . S
N131 C132 1.316 . S
N131 C133 1.375 . S
C132 N131 1.316 . S
C132 N134 1.347 . S
C132 H143 0.931 . S
C133 N131 1.375 . S
C133 C135 1.350 . S
C133 H142 0.930 . S
N134 C132 1.347 . S
N134 C135 1.373 . S
C135 C133 1.350 . S
C135 N134 1.373 . S
C135 H149 0.931 . S
C136 O139 1.256 . S
C136 O140 1.255 . S
O137 Co120 2.021 . S
O137 C130 1.259 . S
O138 Co122 2.117 . S
O138 C130 1.258 . S
O139 Co122 2.020 . S
O139 C136 1.256 . S
O140 Co120 2.062 . S
O140 C136 1.255 . S
O141 C121 1.259 . S
O141 Co122 2.021 . S
H142 C133 0.930 . S
H143 C132 0.931 . S
O144 Co120 2.117 . S
O144 C121 1.258 . S
O145 Co120 2.020 . S
O145 C147 1.256 . S
O146 Co122 2.062 . S
O146 C147 1.255 . S
C147 O145 1.256 . S
C147 O146 1.255 . S
H148 C127 0.931 . S
H149 C135 0.931 . S
Co150 N155 2.057 . S
Co150 O167 2.021 . S
Co150 O170 2.062 . S
Co150 O174 2.117 . S
Co150 O175 2.020 . S
C151 O171 1.259 . S
C151 O174 1.258 . S
Co152 N161 2.057 . S
Co152 O168 2.117 . S
Co152 O169 2.020 . S
Co152 O171 2.021 . S
Co152 O176 2.062 . S
C153 N155 1.316 . S
C153 N156 1.347 . S
C153 H158 0.931 . S
C154 N155 1.375 . S
C154 C157 1.350 . S
C154 H159 0.930 . S
N155 Co150 2.057 . S
N155 C153 1.316 . S
N155 C154 1.375 . S
N156 C153 1.347 . S
N156 C157 1.373 . S
C157 C154 1.350 . S
C157 N156 1.373 . S
C157 H178 0.931 . S
H158 C153 0.931 . S
H159 C154 0.930 . S
C160 O167 1.259 . S
C160 O168 1.258 . S
N161 Co152 2.057 . S
N161 C162 1.316 . S
N161 C163 1.375 . S
C162 N161 1.316 . S
C162 N164 1.347 . S
C162 H173 0.931 . S
C163 N161 1.375 . S
C163 C165 1.350 . S
C163 H172 0.930 . S
N164 C162 1.347 . S
N164 C165 1.373 . S
C165 C163 1.350 . S
C165 N164 1.373 . S
C165 H179 0.931 . S
C166 O169 1.256 . S
C166 O170 1.255 . S
O167 Co150 2.021 . S
O167 C160 1.259 . S
O168 Co152 2.117 . S
O168 C160 1.258 . S
O169 Co152 2.020 . S
O169 C166 1.256 . S
O170 Co150 2.062 . S
O170 C166 1.255 . S
O171 C151 1.259 . S
O171 Co152 2.021 . S
H172 C163 0.930 . S
H173 C162 0.931 . S
O174 Co150 2.117 . S
O174 C151 1.258 . S
O175 Co150 2.020 . S
O175 C177 1.256 . S
O176 Co152 2.062 . S
O176 C177 1.255 . S
C177 O175 1.256 . S
C177 O176 1.255 . S
H178 C157 0.931 . S
H179 C165 0.931 . S
Co180 N185 2.057 . S
Co180 O197 2.021 . S
Co180 O200 2.062 . S
Co180 O204 2.117 . S
Co180 O205 2.020 . S
C181 O201 1.259 . S
C181 O204 1.258 . S
Co182 N191 2.057 . S
Co182 O198 2.117 . S
Co182 O199 2.020 . S
Co182 O201 2.021 . S
Co182 O206 2.062 . S
C183 N185 1.316 . S
C183 N186 1.347 . S
C183 H188 0.931 . S
C184 N185 1.375 1_565 S
C184 C187 1.350 . S
C184 H189 0.930 . S
N185 Co180 2.057 . S
N185 C183 1.316 . S
N185 C184 1.375 1_545 S
N186 C183 1.347 . S
N186 C187 1.373 1_545 S
C187 C184 1.350 . S
C187 N186 1.373 1_565 S
C187 H208 0.931 . S
H188 C183 0.931 . S
H189 C184 0.930 . S
C190 O197 1.259 . S
C190 O198 1.258 . S
N191 Co182 2.057 . S
N191 C192 1.316 . S
N191 C193 1.375 . S
C192 N191 1.316 . S
C192 N194 1.347 . S
C192 H203 0.931 . S
C193 N191 1.375 . S
C193 C195 1.350 . S
C193 H202 0.930 . S
N194 C192 1.347 . S
N194 C195 1.373 . S
C195 C193 1.350 . S
C195 N194 1.373 . S
C195 H209 0.931 . S
C196 O199 1.256 . S
C196 O200 1.255 . S
O197 Co180 2.021 . S
O197 C190 1.259 . S
O198 Co182 2.117 . S
O198 C190 1.258 . S
O199 Co182 2.020 . S
O199 C196 1.256 . S
O200 Co180 2.062 . S
O200 C196 1.255 . S
O201 C181 1.259 . S
O201 Co182 2.021 . S
H202 C193 0.930 . S
H203 C192 0.931 . S
O204 Co180 2.117 . S
O204 C181 1.258 . S
O205 Co180 2.020 . S
O205 C207 1.256 . S
O206 Co182 2.062 . S
O206 C207 1.255 . S
C207 O205 1.256 . S
C207 O206 1.255 . S
H208 C187 0.931 . S
H209 C195 0.931 . S
Co210 N215 2.057 . S
Co210 O227 2.021 . S
Co210 O230 2.062 . S
Co210 O234 2.117 . S
Co210 O235 2.020 . S
C211 O231 1.259 1_556 S
C211 O234 1.258 . S
Co212 N221 2.057 1_556 S
Co212 O228 2.117 . S
Co212 O229 2.020 . S
Co212 O231 2.021 1_556 S
Co212 O236 2.062 . S
C213 N215 1.316 . S
C213 N216 1.347 . S
C213 H218 0.931 . S
C214 N215 1.375 . S
C214 C217 1.350 . S
C214 H219 0.930 . S
N215 Co210 2.057 . S
N215 C213 1.316 . S
N215 C214 1.375 . S
N216 C213 1.347 . S
N216 C217 1.373 . S
C217 C214 1.350 . S
C217 N216 1.373 . S
C217 H238 0.931 . S
H218 C213 0.931 . S
H219 C214 0.930 . S
C220 O227 1.259 . S
C220 O228 1.258 . S
N221 Co212 2.057 1_554 S
N221 C222 1.316 . S
N221 C223 1.375 . S
C222 N221 1.316 . S
C222 N224 1.347 . S
C222 H233 0.931 . S
C223 N221 1.375 . S
C223 C225 1.350 . S
C223 H232 0.930 . S
N224 C222 1.347 . S
N224 C225 1.373 . S
C225 C223 1.350 . S
C225 N224 1.373 . S
C225 H239 0.931 1_455 S
C226 O229 1.256 . S
C226 O230 1.255 . S
O227 Co210 2.021 . S
O227 C220 1.259 . S
O228 Co212 2.117 . S
O228 C220 1.258 . S
O229 Co212 2.020 . S
O229 C226 1.256 . S
O230 Co210 2.062 . S
O230 C226 1.255 . S
O231 C211 1.259 1_554 S
O231 Co212 2.021 1_554 S
H232 C223 0.930 . S
H233 C222 0.931 . S
O234 Co210 2.117 . S
O234 C211 1.258 . S
O235 Co210 2.020 . S
O235 C237 1.256 . S
O236 Co212 2.062 . S
O236 C237 1.255 . S
C237 O235 1.256 . S
C237 O236 1.255 . S
H238 C217 0.931 . S
H239 C225 0.931 1_655 S
Co240 N245 2.057 . S
Co240 O257 2.021 . S
Co240 O260 2.062 . S
Co240 O264 2.117 1_565 S
Co240 O265 2.020 . S
C241 O261 1.259 . S
C241 O264 1.258 . S
Co242 N251 2.057 . S
Co242 O258 2.117 . S
Co242 O259 2.020 . S
Co242 O261 2.021 1_565 S
Co242 O266 2.062 . S
C243 N245 1.316 1_455 S
C243 N246 1.347 . S
C243 H248 0.931 . S
C244 N245 1.375 1_455 S
C244 C247 1.350 . S
C244 H249 0.930 1_565 S
N245 Co240 2.057 . S
N245 C243 1.316 1_655 S
N245 C244 1.375 1_655 S
N246 C243 1.347 . S
N246 C247 1.373 . S
C247 C244 1.350 . S
C247 N246 1.373 . S
C247 H268 0.931 1_565 S
H248 C243 0.931 . S
H249 C244 0.930 1_545 S
C250 O257 1.259 . S
C250 O258 1.258 . S
N251 Co242 2.057 . S
N251 C252 1.316 . S
N251 C253 1.375 . S
C252 N251 1.316 . S
C252 N254 1.347 . S
C252 H263 0.947 . S
C253 N251 1.375 . S
C253 C255 1.350 . S
C253 H262 0.930 . S
N254 C252 1.347 . S
N254 C255 1.373 . S
C255 C253 1.350 . S
C255 N254 1.373 . S
C255 H269 0.931 . S
C256 O259 1.256 . S
C256 O260 1.259 . S
O257 Co240 2.021 . S
O257 C250 1.259 . S
O258 Co242 2.117 . S
O258 C250 1.258 . S
O259 Co242 2.020 . S
O259 C256 1.256 . S
O260 Co240 2.062 . S
O260 C256 1.259 . S
O261 C241 1.259 . S
O261 Co242 2.021 1_545 S
H262 C253 0.930 . S
H263 C252 0.947 . S
O264 Co240 2.117 1_545 S
O264 C241 1.258 . S
O265 Co240 2.020 . S
O265 C267 1.256 . S
O266 Co242 2.062 . S
O266 C267 1.255 . S
C267 O265 1.256 . S
C267 O266 1.255 . S
H268 C247 0.931 1_545 S
H269 C255 0.931 . S
Co270 N275 2.057 . S
Co270 O287 2.021 . S
Co270 O290 2.062 . S
Co270 O294 2.117 . S
Co270 O295 2.020 . S
C271 O291 1.259 . S
C271 O294 1.258 . S
Co272 N281 2.057 . S
Co272 O288 2.117 . S
Co272 O289 2.020 . S
Co272 O291 2.021 . S
Co272 O296 2.062 . S
C273 N275 1.316 . S
C273 N276 1.347 . S
C273 H278 0.931 . S
C274 N275 1.375 . S
C274 C277 1.350 . S
C274 H279 0.930 . S
N275 Co270 2.057 . S
N275 C273 1.316 . S
N275 C274 1.375 . S
N276 C273 1.347 . S
N276 C277 1.373 . S
C277 C274 1.350 . S
C277 N276 1.373 . S
C277 H298 0.931 1_655 S
H278 C273 0.931 . S
H279 C274 0.930 . S
C280 O287 1.259 . S
C280 O288 1.258 . S
N281 Co272 2.057 . S
N281 C282 1.316 . S
N281 C283 1.375 . S
C282 N281 1.316 . S
C282 N284 1.347 . S
C282 H293 0.931 . S
C283 N281 1.375 . S
C283 C285 1.350 . S
C283 H292 0.930 . S
N284 C282 1.347 . S
N284 C285 1.373 . S
C285 C283 1.350 . S
C285 N284 1.373 . S
C285 H299 0.931 . S
C286 O289 1.256 . S
C286 O290 1.255 . S
O287 Co270 2.021 . S
O287 C280 1.259 . S
O288 Co272 2.117 . S
O288 C280 1.258 . S
O289 Co272 2.020 . S
O289 C286 1.256 . S
O290 Co270 2.062 . S
O290 C286 1.255 . S
O291 C271 1.259 . S
O291 Co272 2.021 . S
H292 C283 0.930 . S
H293 C282 0.931 . S
O294 Co270 2.117 . S
O294 C271 1.258 . S
O295 Co270 2.020 . S
O295 C297 1.256 . S
O296 Co272 2.062 . S
O296 C297 1.255 . S
C297 O295 1.256 . S
C297 O296 1.255 . S
H298 C277 0.931 1_455 S
H299 C285 0.931 . S
Co300 N305 2.057 . S
Co300 O317 2.021 . S
Co300 O320 2.062 . S
Co300 O324 2.117 . S
Co300 O325 2.020 . S
C301 O321 1.259 . S
C301 O324 1.258 . S
Co302 N311 2.057 . S
Co302 O318 2.117 . S
Co302 O319 2.020 . S
Co302 O321 2.021 . S
Co302 O326 2.062 . S
C303 N305 1.316 . S
C303 N306 1.347 . S
C303 H308 0.931 . S
C304 N305 1.375 . S
C304 C307 1.350 . S
C304 H309 0.930 . S
N305 Co300 2.057 . S
N305 C303 1.316 . S
N305 C304 1.375 . S
N306 C303 1.347 . S
N306 C307 1.373 . S
C307 C304 1.350 . S
C307 N306 1.373 . S
C307 H328 0.931 . S
H308 C303 0.931 . S
H309 C304 0.930 . S
C310 O317 1.259 . S
C310 O318 1.258 . S
N311 Co302 2.057 . S
N311 C312 1.316 . S
N311 C313 1.375 . S
C312 N311 1.316 . S
C312 N314 1.347 . S
C312 H323 0.931 . S
C313 N311 1.375 . S
C313 C315 1.350 . S
C313 H322 0.930 . S
N314 C312 1.347 . S
N314 C315 1.373 . S
C315 C313 1.350 . S
C315 N314 1.373 . S
C315 H329 0.931 . S
C316 O319 1.256 . S
C316 O320 1.255 . S
O317 Co300 2.021 . S
O317 C310 1.259 . S
O318 Co302 2.117 . S
O318 C310 1.258 . S
O319 Co302 2.020 . S
O319 C316 1.256 . S
O320 Co300 2.062 . S
O320 C316 1.255 . S
O321 C301 1.259 . S
O321 Co302 2.021 . S
H322 C313 0.930 . S
H323 C312 0.931 . S
O324 Co300 2.117 . S
O324 C301 1.258 . S
O325 Co300 2.020 . S
O325 C327 1.256 . S
O326 Co302 2.062 . S
O326 C327 1.255 . S
C327 O325 1.256 . S
C327 O326 1.255 . S
H328 C307 0.931 . S
H329 C315 0.931 . S
Co330 N335 2.057 . S
Co330 O347 2.021 . S
Co330 O350 2.062 . S
Co330 O354 2.117 . S
Co330 O355 2.020 1_556 S
C331 O351 1.259 . S
C331 O354 1.258 1_554 S
Co332 N341 2.057 . S
Co332 O348 2.117 . S
Co332 O349 2.020 . S
Co332 O351 2.021 1_556 S
Co332 O356 2.062 1_556 S
C333 N335 1.316 . S
C333 N336 1.347 . S
C333 H338 0.931 . S
C334 N335 1.375 . S
C334 C337 1.350 . S
C334 H339 0.930 . S
N335 Co330 2.057 . S
N335 C333 1.316 . S
N335 C334 1.375 . S
N336 C333 1.347 . S
N336 C337 1.373 . S
C337 C334 1.350 . S
C337 N336 1.373 . S
C337 H358 0.931 . S
H338 C333 0.931 . S
H339 C334 0.930 . S
C340 O347 1.259 . S
C340 O348 1.258 . S
N341 Co332 2.057 . S
N341 C342 1.316 1_566 S
N341 C343 1.375 1_565 S
C342 N341 1.316 1_544 S
C342 N344 1.347 . S
C342 H353 0.931 . S
C343 N341 1.375 1_545 S
C343 C345 1.350 1_556 S
C343 H352 0.930 . S
N344 C342 1.347 . S
N344 C345 1.373 . S
C345 C343 1.350 1_554 S
C345 N344 1.373 . S
C345 H359 0.931 . S
C346 O349 1.256 . S
C346 O350 1.255 . S
O347 Co330 2.021 . S
O347 C340 1.259 . S
O348 Co332 2.117 . S
O348 C340 1.258 . S
O349 Co332 2.020 . S
O349 C346 1.256 . S
O350 Co330 2.062 . S
O350 C346 1.255 . S
O351 C331 1.259 . S
O351 Co332 2.021 1_554 S
H352 C343 0.930 . S
H353 C342 0.931 . S
O354 Co330 2.117 . S
O354 C331 1.258 1_556 S
O355 Co330 2.020 1_554 S
O355 C357 1.256 . S
O356 Co332 2.062 1_554 S
O356 C357 1.255 . S
C357 O355 1.256 . S
C357 O356 1.255 . S
H358 C337 0.931 . S
H359 C345 0.931 . S
Co360 N365 2.057 . S
Co360 O377 2.021 . S
Co360 O380 2.062 . S
Co360 O384 2.117 . S
Co360 O385 2.020 . S
C361 O381 1.259 . S
C361 O384 1.258 . S
Co362 N371 2.057 . S
Co362 O378 2.117 . S
Co362 O379 2.020 . S
Co362 O381 2.021 . S
Co362 O386 2.062 . S
C363 N365 1.316 . S
C363 N366 1.347 . S
C363 H368 0.931 . S
C364 N365 1.375 . S
C364 C367 1.350 . S
C364 H369 0.930 . S
N365 Co360 2.057 . S
N365 C363 1.316 . S
N365 C364 1.375 . S
N366 C363 1.347 . S
N366 C367 1.373 . S
C367 C364 1.350 . S
C367 N366 1.373 . S
C367 H388 0.931 . S
H368 C363 0.931 . S
H369 C364 0.930 . S
C370 O377 1.259 . S
C370 O378 1.258 . S
N371 Co362 2.057 . S
N371 C372 1.316 1_556 S
N371 C373 1.375 1_545 S
C372 N371 1.316 1_554 S
C372 N374 1.347 . S
C372 H383 0.931 . S
C373 N371 1.375 1_565 S
C373 C375 1.350 1_556 S
C373 H382 0.930 . S
N374 C372 1.347 . S
N374 C375 1.373 1_545 S
C375 C373 1.350 1_554 S
C375 N374 1.373 1_565 S
C375 H389 0.931 . S
C376 O379 1.256 . S
C376 O380 1.255 . S
O377 Co360 2.021 . S
O377 C370 1.259 . S
O378 Co362 2.117 . S
O378 C370 1.258 . S
O379 Co362 2.020 . S
O379 C376 1.256 . S
O380 Co360 2.062 . S
O380 C376 1.255 . S
O381 C361 1.259 . S
O381 Co362 2.021 . S
H382 C373 0.930 . S
H383 C372 0.931 . S
O384 Co360 2.117 . S
O384 C361 1.258 . S
O385 Co360 2.020 . S
O385 C387 1.256 . S
O386 Co362 2.062 . S
O386 C387 1.255 . S
C387 O385 1.256 . S
C387 O386 1.255 . S
H388 C367 0.931 . S
H389 C375 0.931 . S
Co390 N395 2.057 . S
Co390 O407 2.021 . S
Co390 O410 2.062 . S
Co390 O414 2.117 . S
Co390 O415 2.020 . S
C391 O411 1.259 . S
C391 O414 1.258 . S
Co392 N401 2.057 . S
Co392 O408 2.117 . S
Co392 O409 2.020 . S
Co392 O411 2.021 . S
Co392 O416 2.062 . S
C393 N395 1.316 . S
C393 N396 1.347 . S
C393 H398 0.931 . S
C394 N395 1.375 . S
C394 C397 1.350 . S
C394 H399 0.930 . S
N395 Co390 2.057 . S
N395 C393 1.316 . S
N395 C394 1.375 . S
N396 C393 1.347 . S
N396 C397 1.373 . S
C397 C394 1.350 . S
C397 N396 1.373 . S
C397 H418 0.931 . S
H398 C393 0.931 . S
H399 C394 0.930 . S
C400 O407 1.259 . S
C400 O408 1.258 . S
N401 Co392 2.057 . S
N401 C402 1.316 . S
N401 C403 1.375 . S
C402 N401 1.316 . S
C402 N404 1.347 . S
C402 H413 0.931 . S
C403 N401 1.375 . S
C403 C405 1.350 . S
C403 H412 0.930 . S
N404 C402 1.347 . S
N404 C405 1.373 . S
C405 C403 1.350 . S
C405 N404 1.373 . S
C405 H419 0.931 . S
C406 O409 1.256 . S
C406 O410 1.255 . S
O407 Co390 2.021 . S
O407 C400 1.259 . S
O408 Co392 2.117 . S
O408 C400 1.258 . S
O409 Co392 2.020 . S
O409 C406 1.256 . S
O410 Co390 2.062 . S
O410 C406 1.255 . S
O411 C391 1.259 . S
O411 Co392 2.021 . S
H412 C403 0.930 . S
H413 C402 0.931 . S
O414 Co390 2.117 . S
O414 C391 1.258 . S
O415 Co390 2.020 . S
O415 C417 1.256 . S
O416 Co392 2.062 . S
O416 C417 1.255 . S
C417 O415 1.256 . S
C417 O416 1.255 . S
H418 C397 0.931 . S
H419 C405 0.931 . S
Co420 N425 2.057 . S
Co420 O437 2.021 . S
Co420 O440 2.062 . S
Co420 O444 2.117 . S
Co420 O445 2.020 . S
C421 O441 1.259 . S
C421 O444 1.258 . S
Co422 N431 2.057 . S
Co422 O438 2.117 . S
Co422 O439 2.020 . S
Co422 O441 2.021 . S
Co422 O446 2.062 . S
C423 N425 1.316 . S
C423 N426 1.347 . S
C423 H428 0.931 . S
C424 N425 1.375 . S
C424 C427 1.350 . S
C424 H429 0.930 . S
N425 Co420 2.057 . S
N425 C423 1.316 . S
N425 C424 1.375 . S
N426 C423 1.347 . S
N426 C427 1.373 . S
C427 C424 1.350 . S
C427 N426 1.373 . S
C427 H448 0.931 . S
H428 C423 0.931 . S
H429 C424 0.930 . S
C430 O437 1.259 . S
C430 O438 1.258 . S
N431 Co422 2.057 . S
N431 C432 1.316 . S
N431 C433 1.375 1_565 S
C432 N431 1.316 . S
C432 N434 1.347 . S
C432 H443 0.931 . S
C433 N431 1.375 1_545 S
C433 C435 1.350 . S
C433 H442 0.930 . S
N434 C432 1.347 . S
N434 C435 1.373 1_565 S
C435 C433 1.350 . S
C435 N434 1.373 1_545 S
C435 H449 0.931 . S
C436 O439 1.256 . S
C436 O440 1.255 . S
O437 Co420 2.021 . S
O437 C430 1.259 . S
O438 Co422 2.117 . S
O438 C430 1.258 . S
O439 Co422 2.020 . S
O439 C436 1.256 . S
O440 Co420 2.062 . S
O440 C436 1.255 . S
O441 C421 1.259 . S
O441 Co422 2.021 . S
H442 C433 0.930 . S
H443 C432 0.931 . S
O444 Co420 2.117 . S
O444 C421 1.258 . S
O445 Co420 2.020 . S
O445 C447 1.256 . S
O446 Co422 2.062 . S
O446 C447 1.255 . S
C447 O445 1.256 . S
C447 O446 1.255 . S
H448 C427 0.931 . S
H449 C435 0.931 . S
Co450 N455 2.057 1_554 S
Co450 O467 2.021 1_554 S
Co450 O470 2.062 . S
Co450 O474 2.117 . S
Co450 O475 2.020 . S
C451 O471 1.259 . S
C451 O474 1.258 . S
Co452 N461 2.057 . S
Co452 O468 2.117 . S
Co452 O469 2.020 . S
Co452 O471 2.021 . S
Co452 O476 2.062 . S
C453 N455 1.316 . S
C453 N456 1.347 . S
C453 H458 0.931 . S
C454 N455 1.375 . S
C454 C457 1.350 . S
C454 H459 0.930 . S
N455 Co450 2.057 1_556 S
N455 C453 1.316 . S
N455 C454 1.375 . S
N456 C453 1.347 . S
N456 C457 1.373 . S
C457 C454 1.350 . S
C457 N456 1.373 . S
C457 H478 0.931 1_655 S
H458 C453 0.931 . S
H459 C454 0.930 . S
C460 O467 1.259 1_554 S
C460 O468 1.258 . S
N461 Co452 2.057 . S
N461 C462 1.316 . S
N461 C463 1.375 . S
C462 N461 1.316 . S
C462 N464 1.347 . S
C462 H473 0.931 . S
C463 N461 1.375 . S
C463 C465 1.350 . S
C463 H472 0.930 . S
N464 C462 1.347 . S
N464 C465 1.373 . S
C465 C463 1.350 . S
C465 N464 1.373 . S
C465 H479 0.931 . S
C466 O469 1.256 . S
C466 O470 1.255 . S
O467 Co450 2.021 1_556 S
O467 C460 1.259 1_556 S
O468 Co452 2.117 . S
O468 C460 1.258 . S
O469 Co452 2.020 . S
O469 C466 1.256 . S
O470 Co450 2.062 . S
O470 C466 1.255 . S
O471 C451 1.259 . S
O471 Co452 2.021 . S
H472 C463 0.930 . S
H473 C462 0.931 . S
O474 Co450 2.117 . S
O474 C451 1.258 . S
O475 Co450 2.020 . S
O475 C477 1.256 . S
O476 Co452 2.062 . S
O476 C477 1.255 . S
C477 O475 1.256 . S
C477 O476 1.255 . S
H478 C457 0.931 1_455 S
H479 C465 0.931 . S
Co480 N485 2.057 . S
Co480 O497 2.021 . S
Co480 O500 2.062 . S
Co480 O504 2.117 . S
Co480 O505 2.020 . S
C481 O501 1.259 . S
C481 O504 1.258 . S
Co482 N491 2.057 . S
Co482 O498 2.117 . S
Co482 O499 2.020 . S
Co482 O501 2.021 . S
Co482 O506 2.062 . S
C483 N485 1.316 . S
C483 N486 1.347 . S
C483 H488 0.931 . S
C484 N485 1.375 . S
C484 C487 1.350 . S
C484 H489 0.930 . S
N485 Co480 2.057 . S
N485 C483 1.316 . S
N485 C484 1.375 . S
N486 C483 1.347 . S
N486 C487 1.373 . S
C487 C484 1.350 . S
C487 N486 1.373 . S
C487 H508 0.931 . S
H488 C483 0.931 . S
H489 C484 0.930 . S
C490 O497 1.259 . S
C490 O498 1.258 . S
N491 Co482 2.057 . S
N491 C492 1.316 . S
N491 C493 1.375 . S
C492 N491 1.316 . S
C492 N494 1.347 . S
C492 H503 0.931 . S
C493 N491 1.375 . S
C493 C495 1.350 . S
C493 H502 0.930 . S
N494 C492 1.347 . S
N494 C495 1.373 . S
C495 C493 1.350 . S
C495 N494 1.373 . S
C495 H509 0.931 . S
C496 O499 1.256 . S
C496 O500 1.255 . S
O497 Co480 2.021 . S
O497 C490 1.259 . S
O498 Co482 2.117 . S
O498 C490 1.258 . S
O499 Co482 2.020 . S
O499 C496 1.256 . S
O500 Co480 2.062 . S
O500 C496 1.255 . S
O501 C481 1.259 . S
O501 Co482 2.021 . S
H502 C493 0.930 . S
H503 C492 0.931 . S
O504 Co480 2.117 . S
O504 C481 1.258 . S
O505 Co480 2.020 . S
O505 C507 1.256 . S
O506 Co482 2.062 . S
O506 C507 1.255 . S
C507 O505 1.256 . S
C507 O506 1.255 . S
H508 C487 0.931 . S
H509 C495 0.931 . S
Co510 N515 2.057 . S
Co510 O527 2.021 . S
Co510 O530 2.062 . S
Co510 O534 2.117 . S
Co510 O535 2.020 . S
C511 O531 1.259 . S
C511 O534 1.258 1_556 S
Co512 N521 2.057 . S
Co512 O528 2.117 1_556 S
Co512 O529 2.020 1_556 S
Co512 O531 2.021 . S
Co512 O536 2.062 . S
C513 N515 1.316 . S
C513 N516 1.347 . S
C513 H518 0.931 . S
C514 N515 1.375 . S
C514 C517 1.350 . S
C514 H519 0.930 . S
N515 Co510 2.057 . S
N515 C513 1.316 . S
N515 C514 1.375 . S
N516 C513 1.347 . S
N516 C517 1.373 . S
C517 C514 1.350 . S
C517 N516 1.373 . S
C517 H538 0.931 . S
H518 C513 0.931 . S
H519 C514 0.930 . S
C520 O527 1.259 . S
C520 O528 1.258 . S
N521 Co512 2.057 . S
N521 C522 1.316 . S
N521 C523 1.375 . S
C522 N521 1.316 . S
C522 N524 1.347 . S
C522 H533 0.931 . S
C523 N521 1.375 . S
C523 C525 1.350 . S
C523 H532 0.930 . S
N524 C522 1.347 . S
N524 C525 1.373 . S
C525 C523 1.350 . S
C525 N524 1.373 . S
C525 H539 0.931 . S
C526 O529 1.256 . S
C526 O530 1.255 . S
O527 Co510 2.021 . S
O527 C520 1.259 . S
O528 Co512 2.117 1_554 S
O528 C520 1.258 . S
O529 Co512 2.020 1_554 S
O529 C526 1.256 . S
O530 Co510 2.062 . S
O530 C526 1.255 . S
O531 C511 1.259 . S
O531 Co512 2.021 . S
H532 C523 0.930 . S
H533 C522 0.931 . S
O534 Co510 2.117 . S
O534 C511 1.258 1_554 S
O535 Co510 2.020 . S
O535 C537 1.256 1_554 S
O536 Co512 2.062 . S
O536 C537 1.255 . S
C537 O535 1.256 1_556 S
C537 O536 1.255 . S
H538 C517 0.931 . S
H539 C525 0.931 . S
Co540 N545 2.057 . S
Co540 O557 2.021 . S
Co540 O560 2.062 . S
Co540 O564 2.117 . S
Co540 O565 2.020 . S
C541 O561 1.259 . S
C541 O564 1.258 . S
Co542 N551 2.057 1_655 S
Co542 O558 2.117 . S
Co542 O559 2.020 . S
Co542 O561 2.021 . S
Co542 O566 2.062 . S
C543 N545 1.316 . S
C543 N546 1.347 . S
C543 H548 0.931 . S
C544 N545 1.375 . S
C544 C547 1.350 . S
C544 H549 0.930 . S
N545 Co540 2.057 . S
N545 C543 1.316 . S
N545 C544 1.375 . S
N546 C543 1.347 . S
N546 C547 1.373 . S
C547 C544 1.350 . S
C547 N546 1.373 . S
C547 H568 0.931 . S
H548 C543 0.931 . S
H549 C544 0.930 . S
C550 O557 1.259 . S
C550 O558 1.258 . S
N551 Co542 2.057 1_455 S
N551 C552 1.316 . S
N551 C553 1.375 . S
C552 N551 1.316 . S
C552 N554 1.347 . S
C552 H563 0.931 . S
C553 N551 1.375 . S
C553 C555 1.350 . S
C553 H562 0.930 . S
N554 C552 1.347 . S
N554 C555 1.373 . S
C555 C553 1.350 . S
C555 N554 1.373 . S
C555 H569 0.931 . S
C556 O559 1.256 . S
C556 O560 1.255 . S
O557 Co540 2.021 . S
O557 C550 1.259 . S
O558 Co542 2.117 . S
O558 C550 1.258 . S
O559 Co542 2.020 . S
O559 C556 1.256 . S
O560 Co540 2.062 . S
O560 C556 1.255 . S
O561 C541 1.259 . S
O561 Co542 2.021 . S
H562 C553 0.930 . S
H563 C552 0.931 . S
O564 Co540 2.117 . S
O564 C541 1.258 . S
O565 Co540 2.020 . S
O565 C567 1.256 . S
O566 Co542 2.062 . S
O566 C567 1.255 . S
C567 O565 1.256 . S
C567 O566 1.255 . S
H568 C547 0.931 . S
H569 C555 0.931 . S
Co570 N575 2.057 . S
Co570 O587 2.021 . S
Co570 O590 2.062 . S
Co570 O594 2.117 . S
Co570 O595 2.020 . S
C571 O591 1.259 . S
C571 O594 1.258 . S
Co572 N581 2.057 . S
Co572 O588 2.117 . S
Co572 O589 2.020 . S
Co572 O591 2.021 . S
Co572 O596 2.062 . S
C573 N575 1.316 . S
C573 N576 1.347 . S
C573 H578 0.931 . S
C574 N575 1.375 . S
C574 C577 1.350 . S
C574 H579 0.930 . S
N575 Co570 2.057 . S
N575 C573 1.316 . S
N575 C574 1.375 . S
N576 C573 1.347 . S
N576 C577 1.373 . S
C577 C574 1.350 . S
C577 N576 1.373 . S
C577 H598 0.931 . S
H578 C573 0.931 . S
H579 C574 0.930 . S
C580 O587 1.259 . S
C580 O588 1.258 . S
N581 Co572 2.057 . S
N581 C582 1.316 . S
N581 C583 1.375 . S
C582 N581 1.316 . S
C582 N584 1.347 . S
C582 H593 0.931 . S
C583 N581 1.375 . S
C583 C585 1.350 . S
C583 H592 0.930 . S
N584 C582 1.347 . S
N584 C585 1.373 . S
C585 C583 1.350 . S
C585 N584 1.373 . S
C585 H599 0.931 . S
C586 O589 1.256 . S
C586 O590 1.255 . S
O587 Co570 2.021 . S
O587 C580 1.259 . S
O588 Co572 2.117 . S
O588 C580 1.258 . S
O589 Co572 2.020 . S
O589 C586 1.256 . S
O590 Co570 2.062 . S
O590 C586 1.255 . S
O591 C571 1.259 . S
O591 Co572 2.021 . S
H592 C583 0.930 . S
H593 C582 0.931 . S
O594 Co570 2.117 . S
O594 C571 1.258 . S
O595 Co570 2.020 . S
O595 C597 1.256 . S
O596 Co572 2.062 . S
O596 C597 1.255 . S
C597 O595 1.256 . S
C597 O596 1.255 . S
H598 C577 0.931 . S
H599 C585 0.931 . S
Co600 N605 2.057 . S
Co600 O617 2.021 . S
Co600 O620 2.062 . S
Co600 O624 2.117 . S
Co600 O625 2.020 . S
C601 O621 1.259 . S
C601 O624 1.258 . S
Co602 N611 2.057 . S
Co602 O618 2.117 . S
Co602 O619 2.020 . S
Co602 O621 2.021 . S
Co602 O626 2.062 . S
C603 N605 1.316 . S
C603 N606 1.347 . S
C603 H608 0.931 . S
C604 N605 1.375 . S
C604 C607 1.350 . S
C604 H609 0.930 . S
N605 Co600 2.057 . S
N605 C603 1.316 . S
N605 C604 1.375 . S
N606 C603 1.347 . S
N606 C607 1.373 . S
C607 C604 1.350 . S
C607 N606 1.373 . S
C607 H628 0.931 . S
H608 C603 0.931 . S
H609 C604 0.930 . S
C610 O617 1.259 . S
C610 O618 1.258 . S
N611 Co602 2.057 . S
N611 C612 1.316 . S
N611 C613 1.375 . S
C612 N611 1.316 . S
C612 N614 1.347 . S
C612 H623 0.931 . S
C613 N611 1.375 . S
C613 C615 1.350 . S
C613 H622 0.930 . S
N614 C612 1.347 . S
N614 C615 1.373 . S
C615 C613 1.350 . S
C615 N614 1.373 . S
C615 H629 0.931 . S
C616 O619 1.256 . S
C616 O620 1.255 . S
O617 Co600 2.021 . S
O617 C610 1.259 . S
O618 Co602 2.117 . S
O618 C610 1.258 . S
O619 Co602 2.020 . S
O619 C616 1.256 . S
O620 Co600 2.062 . S
O620 C616 1.255 . S
O621 C601 1.259 . S
O621 Co602 2.021 . S
H622 C613 0.930 . S
H623 C612 0.931 . S
O624 Co600 2.117 . S
O624 C601 1.258 . S
O625 Co600 2.020 . S
O625 C627 1.256 . S
O626 Co602 2.062 . S
O626 C627 1.255 . S
C627 O625 1.256 . S
C627 O626 1.255 . S
H628 C607 0.931 . S
H629 C615 0.931 . S
Co630 N635 2.057 . S
Co630 O647 2.021 . S
Co630 O650 2.062 . S
Co630 O654 2.117 . S
Co630 O655 2.020 . S
C631 O651 1.259 1_556 S
C631 O654 1.258 . S
Co632 N641 2.057 1_556 S
Co632 O648 2.117 . S
Co632 O649 2.020 . S
Co632 O651 2.021 1_556 S
Co632 O656 2.062 . S
C633 N635 1.316 . S
C633 N636 1.347 . S
C633 H638 0.931 . S
C634 N635 1.375 . S
C634 C637 1.350 . S
C634 H639 0.930 . S
N635 Co630 2.057 . S
N635 C633 1.316 . S
N635 C634 1.375 . S
N636 C633 1.347 . S
N636 C637 1.373 . S
C637 C634 1.350 . S
C637 N636 1.373 . S
C637 H658 0.931 . S
H638 C633 0.931 . S
H639 C634 0.930 . S
C640 O647 1.259 . S
C640 O648 1.258 . S
N641 Co632 2.057 1_554 S
N641 C642 1.316 . S
N641 C643 1.375 . S
C642 N641 1.316 . S
C642 N644 1.347 . S
C642 H653 0.931 . S
C643 N641 1.375 . S
C643 C645 1.350 . S
C643 H652 0.930 . S
N644 C642 1.347 . S
N644 C645 1.373 . S
C645 C643 1.350 . S
C645 N644 1.373 . S
C645 H659 0.931 1_655 S
C646 O649 1.256 . S
C646 O650 1.255 . S
O647 Co630 2.021 . S
O647 C640 1.259 . S
O648 Co632 2.117 . S
O648 C640 1.258 . S
O649 Co632 2.020 . S
O649 C646 1.256 . S
O650 Co630 2.062 . S
O650 C646 1.255 . S
O651 C631 1.259 1_554 S
O651 Co632 2.021 1_554 S
H652 C643 0.930 . S
H653 C642 0.931 . S
O654 Co630 2.117 . S
O654 C631 1.258 . S
O655 Co630 2.020 . S
O655 C657 1.256 . S
O656 Co632 2.062 . S
O656 C657 1.255 . S
C657 O655 1.256 . S
C657 O656 1.255 . S
H658 C637 0.931 . S
H659 C645 0.931 1_455 S
Co660 N665 2.057 . S
Co660 O677 2.021 . S
Co660 O680 2.062 . S
Co660 O684 2.117 . S
Co660 O685 2.020 . S
C661 O681 1.259 . S
C661 O684 1.258 . S
Co662 N671 2.057 . S
Co662 O678 2.117 . S
Co662 O679 2.020 . S
Co662 O681 2.021 . S
Co662 O686 2.062 . S
C663 N665 1.316 . S
C663 N666 1.347 1_554 S
C663 H668 0.931 1_554 S
C664 N665 1.375 . S
C664 C667 1.350 . S
C664 H669 0.930 . S
N665 Co660 2.057 . S
N665 C663 1.316 . S
N665 C664 1.375 . S
N666 C663 1.347 1_556 S
N666 C667 1.373 1_556 S
C667 C664 1.350 . S
C667 N666 1.373 1_554 S
C667 H688 0.931 . S
H668 C663 0.931 1_556 S
H669 C664 0.930 . S
C670 O677 1.259 . S
C670 O678 1.258 . S
N671 Co662 2.057 . S
N671 C672 1.316 . S
N671 C673 1.375 . S
C672 N671 1.316 . S
C672 N674 1.347 . S
C672 H683 0.931 . S
C673 N671 1.375 . S
C673 C675 1.350 . S
C673 H682 0.930 . S
N674 C672 1.347 . S
N674 C675 1.373 . S
C675 C673 1.350 . S
C675 N674 1.373 . S
C675 H689 0.931 . S
C676 O679 1.256 . S
C676 O680 1.255 . S
O677 Co660 2.021 . S
O677 C670 1.259 . S
O678 Co662 2.117 . S
O678 C670 1.258 . S
O679 Co662 2.020 . S
O679 C676 1.256 . S
O680 Co660 2.062 . S
O680 C676 1.255 . S
O681 C661 1.259 . S
O681 Co662 2.021 . S
H682 C673 0.930 . S
H683 C672 0.931 . S
O684 Co660 2.117 . S
O684 C661 1.258 . S
O685 Co660 2.020 . S
O685 C687 1.256 . S
O686 Co662 2.062 . S
O686 C687 1.255 . S
C687 O685 1.256 . S
C687 O686 1.255 . S
H688 C667 0.931 . S
H689 C675 0.931 . S
Co690 N695 2.057 . S
Co690 O707 2.021 . S
Co690 O710 2.062 . S
Co690 O714 2.117 . S
Co690 O715 2.020 . S
C691 O711 1.259 . S
C691 O714 1.258 . S
Co692 N701 2.057 . S
Co692 O708 2.117 . S
Co692 O709 2.020 . S
Co692 O711 2.021 . S
Co692 O716 2.062 . S
C693 N695 1.316 . S
C693 N696 1.347 . S
C693 H698 0.931 . S
C694 N695 1.375 . S
C694 C697 1.350 . S
C694 H699 0.930 . S
N695 Co690 2.057 . S
N695 C693 1.316 . S
N695 C694 1.375 . S
N696 C693 1.347 . S
N696 C697 1.373 . S
C697 C694 1.350 . S
C697 N696 1.373 . S
C697 H718 0.931 . S
H698 C693 0.931 . S
H699 C694 0.930 . S
C700 O707 1.259 . S
C700 O708 1.258 . S
N701 Co692 2.057 . S
N701 C702 1.316 . S
N701 C703 1.375 . S
C702 N701 1.316 . S
C702 N704 1.347 . S
C702 H713 0.931 . S
C703 N701 1.375 . S
C703 C705 1.350 . S
C703 H712 0.930 . S
N704 C702 1.347 . S
N704 C705 1.373 . S
C705 C703 1.350 . S
C705 N704 1.373 . S
C705 H719 0.931 . S
C706 O709 1.256 . S
C706 O710 1.255 . S
O707 Co690 2.021 . S
O707 C700 1.259 . S
O708 Co692 2.117 . S
O708 C700 1.258 . S
O709 Co692 2.020 . S
O709 C706 1.256 . S
O710 Co690 2.062 . S
O710 C706 1.255 . S
O711 C691 1.259 . S
O711 Co692 2.021 . S
H712 C703 0.930 . S
H713 C702 0.931 . S
O714 Co690 2.117 . S
O714 C691 1.258 . S
O715 Co690 2.020 . S
O715 C717 1.256 . S
O716 Co692 2.062 . S
O716 C717 1.255 . S
C717 O715 1.256 . S
C717 O716 1.255 . S
H718 C697 0.931 . S
H719 C705 0.931 . S
Co720 N725 2.057 . S
Co720 O737 2.021 . S
Co720 O740 2.062 . S
Co720 O744 2.117 . S
Co720 O745 2.020 . S
C721 O741 1.259 . S
C721 O744 1.258 . S
Co722 N731 2.057 . S
Co722 O738 2.117 . S
Co722 O739 2.020 . S
Co722 O741 2.021 . S
Co722 O746 2.062 . S
C723 N725 1.316 . S
C723 N726 1.347 . S
C723 H728 0.931 . S
C724 N725 1.375 . S
C724 C727 1.350 . S
C724 H729 0.930 . S
N725 Co720 2.057 . S
N725 C723 1.316 . S
N725 C724 1.375 . S
N726 C723 1.347 . S
N726 C727 1.373 . S
C727 C724 1.350 . S
C727 N726 1.373 . S
C727 H748 0.931 . S
H728 C723 0.931 . S
H729 C724 0.930 . S
C730 O737 1.259 . S
C730 O738 1.258 . S
N731 Co722 2.057 . S
N731 C732 1.316 . S
N731 C733 1.375 . S
C732 N731 1.316 . S
C732 N734 1.347 . S
C732 H743 0.931 . S
C733 N731 1.375 . S
C733 C735 1.350 . S
C733 H742 0.930 . S
N734 C732 1.347 . S
N734 C735 1.373 . S
C735 C733 1.350 . S
C735 N734 1.373 . S
C735 H749 0.931 . S
C736 O739 1.256 . S
C736 O740 1.255 . S
O737 Co720 2.021 . S
O737 C730 1.259 . S
O738 Co722 2.117 . S
O738 C730 1.258 . S
O739 Co722 2.020 . S
O739 C736 1.256 . S
O740 Co720 2.062 . S
O740 C736 1.255 . S
O741 C721 1.259 . S
O741 Co722 2.021 . S
H742 C733 0.930 . S
H743 C732 0.931 . S
O744 Co720 2.117 . S
O744 C721 1.258 . S
O745 Co720 2.020 . S
O745 C747 1.256 . S
O746 Co722 2.062 . S
O746 C747 1.255 . S
C747 O745 1.256 . S
C747 O746 1.255 . S
H748 C727 0.931 . S
H749 C735 0.931 . S
Co750 N755 2.057 . S
Co750 O767 2.021 . S
Co750 O770 2.062 . S
Co750 O774 2.117 1_554 S
Co750 O775 2.020 1_554 S
C751 O771 1.259 . S
C751 O774 1.258 . S
Co752 N761 2.057 . S
Co752 O768 2.117 . S
Co752 O769 2.020 . S
Co752 O771 2.021 . S
Co752 O776 2.062 . S
C753 N755 1.316 . S
C753 N756 1.347 . S
C753 H758 0.931 . S
C754 N755 1.375 . S
C754 C757 1.350 . S
C754 H759 0.930 . S
N755 Co750 2.057 . S
N755 C753 1.316 . S
N755 C754 1.375 . S
N756 C753 1.347 . S
N756 C757 1.373 . S
C757 C754 1.350 . S
C757 N756 1.373 . S
C757 H778 0.931 . S
H758 C753 0.931 . S
H759 C754 0.930 . S
C760 O767 1.259 . S
C760 O768 1.258 1_554 S
N761 Co752 2.057 . S
N761 C762 1.316 . S
N761 C763 1.375 . S
C762 N761 1.316 . S
C762 N764 1.347 . S
C762 H773 0.931 . S
C763 N761 1.375 . S
C763 C765 1.350 . S
C763 H772 0.930 . S
N764 C762 1.347 . S
N764 C765 1.373 . S
C765 C763 1.350 . S
C765 N764 1.373 . S
C765 H779 0.931 . S
C766 O769 1.256 1_554 S
C766 O770 1.255 . S
O767 Co750 2.021 . S
O767 C760 1.259 . S
O768 Co752 2.117 . S
O768 C760 1.258 1_556 S
O769 Co752 2.020 . S
O769 C766 1.256 1_556 S
O770 Co750 2.062 . S
O770 C766 1.255 . S
O771 C751 1.259 . S
O771 Co752 2.021 . S
H772 C763 0.930 . S
H773 C762 0.931 . S
O774 Co750 2.117 1_556 S
O774 C751 1.258 . S
O775 Co750 2.020 1_556 S
O775 C777 1.256 . S
O776 Co752 2.062 . S
O776 C777 1.255 . S
C777 O775 1.256 . S
C777 O776 1.255 . S
H778 C757 0.931 . S
H779 C765 0.931 . S
Co780 N785 2.057 1_455 S
Co780 O797 2.021 . S
Co780 O800 2.062 . S
Co780 O804 2.117 . S
Co780 O805 2.020 . S
C781 O801 1.259 . S
C781 O804 1.258 . S
Co782 N791 2.057 . S
Co782 O798 2.117 . S
Co782 O799 2.020 . S
Co782 O801 2.021 . S
Co782 O806 2.062 . S
C783 N785 1.316 . S
C783 N786 1.347 . S
C783 H788 0.931 . S
C784 N785 1.375 . S
C784 C787 1.350 . S
C784 H789 0.930 . S
N785 Co780 2.057 1_655 S
N785 C783 1.316 . S
N785 C784 1.375 . S
N786 C783 1.347 . S
N786 C787 1.373 . S
C787 C784 1.350 . S
C787 N786 1.373 . S
C787 H808 0.931 . S
H788 C783 0.931 . S
H789 C784 0.930 . S
C790 O797 1.259 . S
C790 O798 1.258 . S
N791 Co782 2.057 . S
N791 C792 1.316 . S
N791 C793 1.375 . S
C792 N791 1.316 . S
C792 N794 1.347 . S
C792 H803 0.931 . S
C793 N791 1.375 . S
C793 C795 1.350 . S
C793 H802 0.930 . S
N794 C792 1.347 . S
N794 C795 1.373 . S
C795 C793 1.350 . S
C795 N794 1.373 . S
C795 H809 0.931 . S
C796 O799 1.256 . S
C796 O800 1.255 . S
O797 Co780 2.021 . S
O797 C790 1.259 . S
O798 Co782 2.117 . S
O798 C790 1.258 . S
O799 Co782 2.020 . S
O799 C796 1.256 . S
O800 Co780 2.062 . S
O800 C796 1.255 . S
O801 C781 1.259 . S
O801 Co782 2.021 . S
H802 C793 0.930 . S
H803 C792 0.931 . S
O804 Co780 2.117 . S
O804 C781 1.258 . S
O805 Co780 2.020 . S
O805 C807 1.256 . S
O806 Co782 2.062 . S
O806 C807 1.255 . S
C807 O805 1.256 . S
C807 O806 1.255 . S
H808 C787 0.931 . S
H809 C795 0.931 . S
Co810 N815 2.057 . S
Co810 O827 2.021 . S
Co810 O830 2.062 . S
Co810 O834 2.117 . S
Co810 O835 2.020 . S
C811 O831 1.259 . S
C811 O834 1.258 . S
Co812 N821 2.057 . S
Co812 O828 2.117 . S
Co812 O829 2.020 . S
Co812 O831 2.021 . S
Co812 O836 2.062 . S
C813 N815 1.316 . S
C813 N816 1.347 . S
C813 H818 0.931 . S
C814 N815 1.375 . S
C814 C817 1.350 . S
C814 H819 0.930 . S
N815 Co810 2.057 . S
N815 C813 1.316 . S
N815 C814 1.375 . S
N816 C813 1.347 . S
N816 C817 1.373 . S
C817 C814 1.350 . S
C817 N816 1.373 . S
C817 H838 0.931 . S
H818 C813 0.931 . S
H819 C814 0.930 . S
C820 O827 1.259 . S
C820 O828 1.258 . S
N821 Co812 2.057 . S
N821 C822 1.316 . S
N821 C823 1.375 . S
C822 N821 1.316 . S
C822 N824 1.347 . S
C822 H833 0.931 . S
C823 N821 1.375 . S
C823 C825 1.350 . S
C823 H832 0.930 . S
N824 C822 1.347 . S
N824 C825 1.373 . S
C825 C823 1.350 . S
C825 N824 1.373 . S
C825 H839 0.931 . S
C826 O829 1.256 . S
C826 O830 1.255 . S
O827 Co810 2.021 . S
O827 C820 1.259 . S
O828 Co812 2.117 . S
O828 C820 1.258 . S
O829 Co812 2.020 . S
O829 C826 1.256 . S
O830 Co810 2.062 . S
O830 C826 1.255 . S
O831 C811 1.259 . S
O831 Co812 2.021 . S
H832 C823 0.930 . S
H833 C822 0.931 . S
O834 Co810 2.117 . S
O834 C811 1.258 . S
O835 Co810 2.020 . S
O835 C837 1.256 . S
O836 Co812 2.062 . S
O836 C837 1.255 . S
C837 O835 1.256 . S
C837 O836 1.255 . S
H838 C817 0.931 . S
H839 C825 0.931 . S
Co840 N845 2.057 . S
Co840 O857 2.021 . S
Co840 O860 2.062 . S
Co840 O864 2.117 . S
Co840 O865 2.020 . S
C841 O861 1.259 . S
C841 O864 1.258 . S
Co842 N851 2.057 . S
Co842 O858 2.117 . S
Co842 O859 2.020 . S
Co842 O861 2.021 . S
Co842 O866 2.062 . S
C843 N845 1.316 . S
C843 N846 1.347 . S
C843 H848 0.931 . S
C844 N845 1.375 . S
C844 C847 1.350 . S
C844 H849 0.930 . S
N845 Co840 2.057 . S
N845 C843 1.316 . S
N845 C844 1.375 . S
N846 C843 1.347 . S
N846 C847 1.373 . S
C847 C844 1.350 . S
C847 N846 1.373 . S
C847 H868 0.931 . S
H848 C843 0.931 . S
H849 C844 0.930 . S
C850 O857 1.259 . S
C850 O858 1.258 . S
N851 Co842 2.057 . S
N851 C852 1.316 . S
N851 C853 1.375 . S
C852 N851 1.316 . S
C852 N854 1.347 . S
C852 H863 0.931 . S
C853 N851 1.375 . S
C853 C855 1.350 . S
C853 H862 0.930 . S
N854 C852 1.347 . S
N854 C855 1.373 . S
C855 C853 1.350 . S
C855 N854 1.373 . S
C855 H869 0.931 . S
C856 O859 1.256 . S
C856 O860 1.255 . S
O857 Co840 2.021 . S
O857 C850 1.259 . S
O858 Co842 2.117 . S
O858 C850 1.258 . S
O859 Co842 2.020 . S
O859 C856 1.256 . S
O860 Co840 2.062 . S
O860 C856 1.255 . S
O861 C841 1.259 . S
O861 Co842 2.021 . S
H862 C853 0.930 . S
H863 C852 0.931 . S
O864 Co840 2.117 . S
O864 C841 1.258 . S
O865 Co840 2.020 . S
O865 C867 1.256 . S
O866 Co842 2.062 . S
O866 C867 1.255 . S
C867 O865 1.256 . S
C867 O866 1.255 . S
H868 C847 0.931 . S
H869 C855 0.931 . S
Co870 N875 2.057 1_554 S
Co870 O887 2.021 1_554 S
Co870 O890 2.062 . S
Co870 O894 2.117 . S
Co870 O895 2.020 . S
C871 O891 1.259 . S
C871 O894 1.258 . S
Co872 N881 2.057 . S
Co872 O888 2.117 . S
Co872 O889 2.020 . S
Co872 O891 2.021 . S
Co872 O896 2.062 . S
C873 N875 1.316 . S
C873 N876 1.347 . S
C873 H878 0.931 . S
C874 N875 1.375 . S
C874 C877 1.350 . S
C874 H879 0.930 . S
N875 Co870 2.057 1_556 S
N875 C873 1.316 . S
N875 C874 1.375 . S
N876 C873 1.347 . S
N876 C877 1.373 . S
C877 C874 1.350 . S
C877 N876 1.373 . S
C877 H898 0.931 1_455 S
H878 C873 0.931 . S
H879 C874 0.930 . S
C880 O887 1.259 1_554 S
C880 O888 1.258 . S
N881 Co872 2.057 . S
N881 C882 1.316 . S
N881 C883 1.375 . S
C882 N881 1.316 . S
C882 N884 1.347 . S
C882 H893 0.931 . S
C883 N881 1.375 . S
C883 C885 1.350 . S
C883 H892 0.930 . S
N884 C882 1.347 . S
N884 C885 1.373 . S
C885 C883 1.350 . S
C885 N884 1.373 . S
C885 H899 0.931 . S
C886 O889 1.256 . S
C886 O890 1.255 . S
O887 Co870 2.021 1_556 S
O887 C880 1.259 1_556 S
O888 Co872 2.117 . S
O888 C880 1.258 . S
O889 Co872 2.020 . S
O889 C886 1.256 . S
O890 Co870 2.062 . S
O890 C886 1.255 . S
O891 C871 1.259 . S
O891 Co872 2.021 . S
H892 C883 0.930 . S
H893 C882 0.931 . S
O894 Co870 2.117 . S
O894 C871 1.258 . S
O895 Co870 2.020 . S
O895 C897 1.256 . S
O896 Co872 2.062 . S
O896 C897 1.255 . S
C897 O895 1.256 . S
C897 O896 1.255 . S
H898 C877 0.931 1_655 S
H899 C885 0.931 . S
Co900 N905 2.057 . S
Co900 O917 2.021 . S
Co900 O920 2.062 . S
Co900 O924 2.117 . S
Co900 O925 2.020 . S
C901 O921 1.259 . S
C901 O924 1.258 . S
Co902 N911 2.057 . S
Co902 O918 2.117 . S
Co902 O919 2.020 . S
Co902 O921 2.021 . S
Co902 O926 2.062 . S
C903 N905 1.316 . S
C903 N906 1.347 . S
C903 H908 0.931 . S
C904 N905 1.375 . S
C904 C907 1.350 . S
C904 H909 0.930 . S
N905 Co900 2.057 . S
N905 C903 1.316 . S
N905 C904 1.375 . S
N906 C903 1.347 . S
N906 C907 1.373 . S
C907 C904 1.350 . S
C907 N906 1.373 . S
C907 H928 0.931 . S
H908 C903 0.931 . S
H909 C904 0.930 . S
C910 O917 1.259 . S
C910 O918 1.258 . S
N911 Co902 2.057 . S
N911 C912 1.316 . S
N911 C913 1.375 . S
C912 N911 1.316 . S
C912 N914 1.347 1_556 S
C912 H923 0.931 1_556 S
C913 N911 1.375 . S
C913 C915 1.350 . S
C913 H922 0.930 . S
N914 C912 1.347 1_554 S
N914 C915 1.373 1_554 S
C915 C913 1.350 . S
C915 N914 1.373 1_556 S
C915 H929 0.931 . S
C916 O919 1.256 . S
C916 O920 1.255 . S
O917 Co900 2.021 . S
O917 C910 1.259 . S
O918 Co902 2.117 . S
O918 C910 1.258 . S
O919 Co902 2.020 . S
O919 C916 1.256 . S
O920 Co900 2.062 . S
O920 C916 1.255 . S
O921 C901 1.259 . S
O921 Co902 2.021 . S
H922 C913 0.930 . S
H923 C912 0.931 1_554 S
O924 Co900 2.117 . S
O924 C901 1.258 . S
O925 Co900 2.020 . S
O925 C927 1.256 . S
O926 Co902 2.062 . S
O926 C927 1.255 . S
C927 O925 1.256 . S
C927 O926 1.255 . S
H928 C907 0.931 . S
H929 C915 0.931 . S
Co930 N935 2.057 . S
Co930 O947 2.021 . S
Co930 O950 2.062 . S
Co930 O954 2.117 . S
Co930 O955 2.020 . S
C931 O951 1.259 . S
C931 O954 1.258 . S
Co932 N941 2.057 . S
Co932 O948 2.117 . S
Co932 O949 2.020 . S
Co932 O951 2.021 . S
Co932 O956 2.062 . S
C933 N935 1.316 . S
C933 N936 1.347 . S
C933 H938 0.931 . S
C934 N935 1.375 . S
C934 C937 1.350 . S
C934 H939 0.930 . S
N935 Co930 2.057 . S
N935 C933 1.316 . S
N935 C934 1.375 . S
N936 C933 1.347 . S
N936 C937 1.373 . S
C937 C934 1.350 . S
C937 N936 1.373 . S
C937 H958 0.931 . S
H938 C933 0.931 . S
H939 C934 0.930 . S
C940 O947 1.259 . S
C940 O948 1.258 . S
N941 Co932 2.057 . S
N941 C942 1.316 . S
N941 C943 1.375 . S
C942 N941 1.316 . S
C942 N944 1.347 . S
C942 H953 0.931 . S
C943 N941 1.375 . S
C943 C945 1.350 . S
C943 H952 0.930 . S
N944 C942 1.347 . S
N944 C945 1.373 . S
C945 C943 1.350 . S
C945 N944 1.373 . S
C945 H959 0.931 . S
C946 O949 1.256 . S
C946 O950 1.255 . S
O947 Co930 2.021 . S
O947 C940 1.259 . S
O948 Co932 2.117 . S
O948 C940 1.258 . S
O949 Co932 2.020 . S
O949 C946 1.256 . S
O950 Co930 2.062 . S
O950 C946 1.255 . S
O951 C931 1.259 . S
O951 Co932 2.021 . S
H952 C943 0.930 . S
H953 C942 0.931 . S
O954 Co930 2.117 . S
O954 C931 1.258 . S
O955 Co930 2.020 . S
O955 C957 1.256 . S
O956 Co932 2.062 . S
O956 C957 1.255 . S
C957 O955 1.256 . S
C957 O956 1.255 . S
H958 C937 0.931 . S
H959 C945 0.931 . S
N6 C117 2.433 . S
C27 C57 2.715 1_545 S
N66 N36 0.858 . S
C87 N96 1.530 . S
N156 C147 3.018 . S
C177 N186 1.969 1_565 S
N216 C207 2.375 . S
N126 C237 1.557 1_565 S
N254 C346 2.433 . S
C286 C256 2.715 1_545 S
N314 N284 0.858 . S
N344 C316 1.530 . S
C376 N404 3.018 . S
C406 N434 1.969 1_545 S
N464 C436 2.375 . S
N374 C466 1.557 1_545 S
N486 C597 2.433 . S
C507 C537 2.722 . S
N516 N546 0.858 . S
N576 C567 1.530 . S
C627 N636 3.018 . S
N666 C657 1.969 . S
C687 N696 2.375 . S
N606 C717 1.557 . S
C826 N734 2.433 . S
C736 C766 2.722 . S
N794 N764 0.858 . S
C796 N824 1.530 . S
N884 C856 3.018 . S
N914 C886 1.969 . S
N944 C916 2.375 . S
C946 N854 1.557 . S
N816 C1 1.892 . S
C40 N246 2.181 . S
C61 C777 1.478 . S
C91 N306 0.937 . S
C130 C897 1.375 . S
C447 C160 2.242 . S
C957 C190 1.257 . S
C220 C387 2.142 1_455 S
C250 N584 1.892 . S
N14 C271 2.181 . S
C526 C310 1.478 . S
N74 C340 0.937 . S
C646 C361 1.375 . S
C196 C391 2.242 . S
C421 C706 1.257 . S
C451 C136 2.142 1_655 S
C481 N336 1.892 . S
C520 N726 2.181 . S
C541 C297 1.478 . S
C571 N786 0.936 . S
C610 C417 1.375 . S
C640 C927 2.242 1_655 S
C477 C670 1.257 . S
C700 C867 2.142 . S
N104 C730 1.892 . S
N494 C751 2.181 . S
C46 C790 1.478 . S
N554 C820 0.936 . S
C166 C841 1.375 . S
C871 C676 2.242 1_455 S
C901 C226 1.257 . S
C616 C931 2.142 . S
C10 C121 1.630 . S
C31 C151 1.656 . S
C70 C181 1.497 1_565 S
C211 C100 1.119 . S
C370 C241 1.630 . S
C400 C280 1.656 . S
C301 C430 1.497 1_545 S
C331 C460 1.119 . S
C490 C601 1.630 . S
C631 C511 1.656 . S
C661 C550 1.497 . S
C691 C580 1.119 . S
C850 C721 1.630 . S
C760 C880 1.656 . S
C910 C781 1.497 . S
C811 C940 1.119 . S
N224 C16 3.185 . S
N44 N134 0.746 . S
C76 N164 2.767 . S
N194 C106 2.551 . S
C267 N456 3.185 . S
N366 N276 0.746 . S
N396 C327 2.767 . S
C357 N426 2.551 . S
C496 N704 3.185 . S
N614 N524 0.746 . S
N644 C556 2.767 . S
N674 C586 2.551 . S
C747 N936 3.185 . S
N846 N756 0.746 . S
C807 N876 2.767 . S
N906 C837 2.551 . S
