# Generated by pormake.
# Topology vby, (6)-cn, num edge types: 1
# Building blocks:
#     Node 0, Type 0, BuildingBlock: MIDCAF_clean_sbu_0, # of connection points: 6
#     Node 1, Type 0, BuildingBlock: MIDCAF_clean_sbu_0, # of connection points: 6
#     Node 2, Type 0, BuildingBlock: MIDCAF_clean_sbu_0, # of connection points: 6
#     Node 3, Type 0, BuildingBlock: MIDCAF_clean_sbu_0, # of connection points: 6
#     Node 4, Type 0, BuildingBlock: MIDCAF_clean_sbu_0, # of connection points: 6
#     Node 5, Type 0, BuildingBlock: MIDCAF_clean_sbu_0, # of connection points: 6
#     Node 6, Type 0, BuildingBlock: MIDCAF_clean_sbu_0, # of connection points: 6
#     Node 7, Type 0, BuildingBlock: MIDCAF_clean_sbu_0, # of connection points: 6
#     Edge 8, Type (0, 0), BuildingBlock: AJUNOK_clean_linker_0, # of connection points: 2
#     Edge 9, Type (0, 0), BuildingBlock: AJUNOK_clean_linker_0, # of connection points: 2
#     Edge 10, Type (0, 0), BuildingBlock: AJUNOK_clean_linker_0, # of connection points: 2
#     Edge 11, Type (0, 0), BuildingBlock: AJUNOK_clean_linker_0, # of connection points: 2
#     Edge 12, Type (0, 0), BuildingBlock: AJUNOK_clean_linker_0, # of connection points: 2
#     Edge 13, Type (0, 0), BuildingBlock: AJUNOK_clean_linker_0, # of connection points: 2
#     Edge 14, Type (0, 0), BuildingBlock: AJUNOK_clean_linker_0, # of connection points: 2
#     Edge 15, Type (0, 0), BuildingBlock: AJUNOK_clean_linker_0, # of connection points: 2
#     Edge 16, Type (0, 0), BuildingBlock: AJUNOK_clean_linker_0, # of connection points: 2
#     Edge 17, Type (0, 0), BuildingBlock: AJUNOK_clean_linker_0, # of connection points: 2
#     Edge 18, Type (0, 0), BuildingBlock: AJUNOK_clean_linker_0, # of connection points: 2
#     Edge 19, Type (0, 0), BuildingBlock: AJUNOK_clean_linker_0, # of connection points: 2
#     Edge 20, Type (0, 0), BuildingBlock: AJUNOK_clean_linker_0, # of connection points: 2
#     Edge 21, Type (0, 0), BuildingBlock: AJUNOK_clean_linker_0, # of connection points: 2
#     Edge 22, Type (0, 0), BuildingBlock: AJUNOK_clean_linker_0, # of connection points: 2
#     Edge 23, Type (0, 0), BuildingBlock: AJUNOK_clean_linker_0, # of connection points: 2
#     Edge 24, Type (0, 0), BuildingBlock: AJUNOK_clean_linker_0, # of connection points: 2
#     Edge 25, Type (0, 0), BuildingBlock: AJUNOK_clean_linker_0, # of connection points: 2
#     Edge 26, Type (0, 0), BuildingBlock: AJUNOK_clean_linker_0, # of connection points: 2
#     Edge 27, Type (0, 0), BuildingBlock: AJUNOK_clean_linker_0, # of connection points: 2
#     Edge 28, Type (0, 0), BuildingBlock: AJUNOK_clean_linker_0, # of connection points: 2
#     Edge 29, Type (0, 0), BuildingBlock: AJUNOK_clean_linker_0, # of connection points: 2
#     Edge 30, Type (0, 0), BuildingBlock: AJUNOK_clean_linker_0, # of connection points: 2
#     Edge 31, Type (0, 0), BuildingBlock: AJUNOK_clean_linker_0, # of connection points: 2
# Relax obj value: 0.138
# Max RMSD: 0.180
# Mean RMSD: 0.180
data_MOF--net-vby--node1-MIDCAF_clean_sbu_0--edge1-AJUNOK_clean_linker_0
_symmetry_space_group_name_H-M    P1
_symmetry_Int_Tables_number       1
_symmetry_cell_setting            triclinic
loop_
_symmetry_equiv_pos_as_xyz
'x, y, z'
_cell_length_a     11.241124
_cell_length_b     43.842383
_cell_length_c     22.771403
_cell_angle_alpha  90.097892
_cell_angle_beta   90.055048
_cell_angle_gamma 89.936389
loop_
_atom_site_label
_atom_site_type_symbol
_atom_site_fract_x
_atom_site_fract_y
_atom_site_fract_z
_atom_type_partial_charge
Zn0 Zn 0.98124 0.34989 0.0696 0.0
Zn1 Zn 0.21236 0.42295 0.97089 0.0
Zn2 Zn 0.09471 0.38037 0.00689 0.0
C3 C 0.12361 0.45302 0.05575 0.0
C4 C 0.04878 0.40562 0.88224 0.0
O5 O 0.19671 0.33778 0.01916 0.0
O6 O 0.10413 0.32286 0.09921 0.0
C7 C 0.97929 0.39532 0.13807 0.0
O8 O 0.08198 0.4255 0.05689 0.0
O9 O 0.20387 0.45954 0.01939 0.0
O10 O 0.12894 0.42455 0.89536 0.0
O11 O 0.01197 0.38639 0.92073 0.0
O12 O 0.90528 0.37403 0.13188 0.0
O13 O 0.05558 0.40053 0.09671 0.0
O14 O 0.92816 0.36823 0.95833 0.0
O15 O 0.8744 0.32996 0.01425 0.0
C16 C 0.85528 0.34626 0.96986 0.0
O17 O 0.27724 0.36086 0.98574 0.0
O18 O 0.36473 0.40404 0.96177 0.0
C19 C 0.18193 0.31818 0.06058 0.0
C20 C 0.36953 0.3755 0.96694 0.0
Zn21 Zn 0.7956 0.58964 0.96578 0.0
Zn22 Zn 0.01874 0.66681 0.06751 0.0
Zn23 Zn 0.91397 0.63234 0.00337 0.0
C24 C 0.15664 0.66615 0.96926 0.0
C25 C 0.02233 0.61901 0.13538 0.0
O26 O 0.73226 0.65089 0.97962 0.0
O27 O 0.64618 0.60879 0.9479 0.0
C28 C 0.96666 0.60553 0.88061 0.0
O29 O 0.08304 0.64446 0.95669 0.0
O30 O 0.13563 0.68301 0.01283 0.0
O31 O 0.08355 0.643 0.1333 0.0
O32 O 0.95346 0.6122 0.09186 0.0
O33 O 0.89061 0.58566 0.89427 0.0
O34 O -0.0026 0.6261 0.91795 0.0
O35 O 0.92152 0.58744 0.05417 0.0
O36 O 0.79292 0.55451 0.01804 0.0
C37 C 0.87378 0.56056 0.05449 0.0
O38 O 0.80098 0.67341 0.01372 0.0
O39 O 0.89315 0.69553 0.0881 0.0
C40 C 0.64237 0.63716 0.95593 0.0
C41 C 0.80962 0.69533 0.05128 0.0
Zn42 Zn 0.19401 0.58774 0.54187 0.0
Zn43 Zn 0.96326 0.66392 0.44422 0.0
Zn44 Zn 0.07642 0.63127 0.50676 0.0
C45 C 0.83123 0.66444 0.5427 0.0
C46 C 0.9695 0.61792 0.37372 0.0
O47 O 0.25838 0.64925 0.53119 0.0
O48 O 0.34537 0.60624 0.55746 0.0
C49 C 0.02794 0.60485 0.62957 0.0
O50 O 0.90799 0.64341 0.55505 0.0
O51 O 0.84706 0.68059 0.49781 0.0
O52 O 0.90107 0.64059 0.37707 0.0
O53 O 0.04005 0.61178 0.41697 0.0
O54 O 0.10355 0.58492 0.61521 0.0
O55 O 0.99497 0.62521 0.59237 0.0
O56 O 0.06306 0.58636 0.45637 0.0
O57 O 0.18968 0.55226 0.49007 0.0
C58 C 0.10668 0.55903 0.45527 0.0
O59 O 0.19129 0.67167 0.4953 0.0
O60 O 0.08606 0.69288 0.42437 0.0
C61 C 0.34881 0.63481 0.55275 0.0
C62 C 0.1753 0.6932 0.45772 0.0
Zn63 Zn 0.01856 0.3488 0.44492 0.0
Zn64 Zn 0.79088 0.4227 0.5497 0.0
Zn65 Zn 0.90804 0.38042 0.50843 0.0
C66 C 0.86123 0.45187 0.45881 0.0
C67 C 0.96441 0.40618 0.6326 0.0
O68 O 0.7998 0.33905 0.49611 0.0
O69 O 0.892 0.32213 0.41711 0.0
C70 C 0.02346 0.39588 0.37838 0.0
O71 O 0.90923 0.42504 0.45785 0.0
O72 O 0.78515 0.45799 0.49762 0.0
O73 O 0.88757 0.42624 0.62084 0.0
O74 O 0.99351 0.38612 0.59389 0.0
O75 O 0.09373 0.37365 0.38314 0.0
O76 O 0.94681 0.401 0.41956 0.0
O77 O 0.07915 0.36825 0.55427 0.0
O78 O 0.12749 0.32892 0.49937 0.0
C79 C 0.15095 0.34603 0.54224 0.0
O80 O 0.7279 0.36085 0.53137 0.0
O81 O 0.64316 0.4024 0.56654 0.0
C82 C 0.81078 0.31923 0.45468 0.0
C83 C 0.63864 0.37422 0.55633 0.0
Zn84 Zn 0.34564 0.83054 0.07551 0.0
Zn85 Zn 0.70836 0.92271 0.9705 0.0
Zn86 Zn 0.59041 0.88033 0.99204 0.0
C87 C 0.57471 0.94903 0.04839 0.0
C88 C 0.59657 0.90412 0.86525 0.0
O89 O 0.68897 0.83937 0.01021 0.0
O90 O 0.52317 0.82235 0.05005 0.0
C91 C 0.43214 0.88894 0.12406 0.0
O92 O 0.54481 0.92067 0.04807 0.0
O93 O 0.65481 0.95803 0.01402 0.0
O94 O 0.67585 0.9217 0.88511 0.0
O95 O 0.53746 0.88702 0.90057 0.0
O96 O 0.35416 0.86787 0.1273 0.0
O97 O 0.50507 0.89132 0.07989 0.0
O98 O 0.44641 0.87014 0.93053 0.0
O99 O 0.42471 0.83744 0.99917 0.0
C100 C 0.37766 0.85155 0.95711 0.0
O101 O 0.78141 0.86291 0.98649 0.0
O102 O 0.86498 0.90823 0.99026 0.0
C103 C 0.63055 0.8177 0.03448 0.0
C104 C 0.87591 0.87973 0.98636 0.0
Zn105 Zn 0.24108 0.08957 0.96055 0.0
Zn106 Zn 0.48284 0.15778 0.06398 0.0
Zn107 Zn 0.37999 0.12775 0.99972 0.0
C108 C 0.61289 0.1644 0.96834 0.0
C109 C 0.50129 0.11005 0.12605 0.0
O110 O 0.20422 0.15092 0.98312 0.0
O111 O 0.09402 0.11189 0.95444 0.0
C112 C 0.40731 0.10558 0.87181 0.0
O113 O 0.55375 0.13988 0.95654 0.0
O114 O 0.57227 0.18227 0.00665 0.0
O115 O 0.57442 0.13146 0.11855 0.0
O116 O 0.41921 0.10562 0.08711 0.0
O117 O 0.31945 0.08901 0.88426 0.0
O118 O 0.45852 0.1215 0.91219 0.0
O119 O 0.37503 0.08232 0.04823 0.0
O120 O 0.24316 0.0521 0.00671 0.0
C121 C 0.32256 0.05609 0.04497 0.0
O122 O 0.28554 0.1717 0.01561 0.0
O123 O 0.35954 0.18207 0.1026 0.0
C124 C 0.10465 0.14 0.96422 0.0
C125 C 0.29313 0.18959 0.06047 0.0
Zn126 Zn 0.70848 0.09169 0.5414 0.0
Zn127 Zn 0.47858 0.16136 0.43177 0.0
Zn128 Zn 0.57603 0.13079 0.49784 0.0
C129 C 0.34166 0.16749 0.52617 0.0
C130 C 0.46279 0.11394 0.36811 0.0
O131 O 0.7539 0.15278 0.51718 0.0
O132 O 0.8569 0.11317 0.5491 0.0
C133 C 0.53119 0.10785 0.62467 0.0
O134 O 0.40188 0.14333 0.53951 0.0
O135 O 0.38152 0.18486 0.48709 0.0
O136 O 0.39264 0.1362 0.37329 0.0
O137 O 0.54006 0.10897 0.40915 0.0
O138 O 0.62263 0.09181 0.61593 0.0
O139 O 0.48641 0.12397 0.58283 0.0
O140 O 0.58286 0.08633 0.44802 0.0
O141 O 0.70521 0.05476 0.49303 0.0
C142 C 0.63251 0.05981 0.45207 0.0
O143 O 0.67196 0.17457 0.48592 0.0
O144 O 0.60325 0.1869 0.39877 0.0
C145 C 0.85119 0.14122 0.53779 0.0
C146 C 0.66636 0.19349 0.4427 0.0
Zn147 Zn 0.58193 0.84655 0.4225 0.0
Zn148 Zn 0.35771 0.91885 0.53662 0.0
Zn149 Zn 0.4714 0.87653 0.49251 0.0
C150 C 0.41993 0.94862 0.44617 0.0
C151 C 0.54 0.9038 0.61439 0.0
O152 O 0.36359 0.83468 0.48308 0.0
O153 O 0.46856 0.81397 0.41154 0.0
C154 C 0.55038 0.89271 0.35493 0.0
O155 O 0.47028 0.92205 0.4445 0.0
O156 O 0.34071 0.95374 0.48398 0.0
O157 O 0.46437 0.9243 0.60368 0.0
O158 O 0.56222 0.8829 0.5762 0.0
O159 O 0.61965 0.87019 0.35232 0.0
O160 O 0.49159 0.89781 0.40272 0.0
O161 O 0.64431 0.86439 0.53738 0.0
O162 O 0.71442 0.83365 0.46927 0.0
C163 C 0.72605 0.84599 0.5188 0.0
O164 O 0.2947 0.85674 0.51794 0.0
O165 O 0.2154 0.89749 0.55913 0.0
C166 C 0.38283 0.8126 0.44691 0.0
C167 C 0.20899 0.86959 0.54659 0.0
C168 C 0.56797 0.37887 0.91864 0.0
C169 C 0.4856 0.36125 0.95122 0.0
C170 C 0.68891 0.37137 0.91646 0.0
C171 C 0.73201 0.34572 0.9462 0.0
H172 H 0.541 0.40017 0.89854 0.0
H173 H 0.74985 0.38753 0.8968 0.0
S174 S 0.54762 0.28606 0.0182 0.0
N175 N 0.45196 0.31317 1.00071 0.0
N176 N 0.67801 0.29781 0.99383 0.0
C177 C 0.64746 0.32496 0.96922 0.0
C178 C 0.52443 0.3331 0.97276 0.0
C179 C 0.36646 0.68431 0.97772 0.0
C180 C 0.28084 0.66682 0.94662 0.0
C181 C 0.48773 0.67689 0.97627 0.0
C182 C 0.52795 0.6524 0.94223 0.0
H183 H 0.33907 0.70177 0.00861 0.0
H184 H 0.54738 0.6884 0.00625 0.0
S185 S 0.34847 0.60803 0.83462 0.0
N186 N 0.25043 0.62971 0.86893 0.0
N187 N 0.47898 0.6168 0.86339 0.0
C188 C 0.44671 0.6386 0.90287 0.0
C189 C 0.32285 0.64562 0.90556 0.0
C190 C 0.62234 0.68358 0.53943 0.0
C191 C 0.70868 0.66489 0.5673 0.0
C192 C 0.50151 0.67575 0.53925 0.0
C193 C 0.46263 0.64968 0.56878 0.0
H194 H 0.64917 0.70238 0.51164 0.0
H195 H 0.4413 0.68838 0.51131 0.0
S196 S 0.64358 0.60154 0.6695 0.0
N197 N 0.74069 0.62483 0.63895 0.0
N198 N 0.51281 0.61113 0.64199 0.0
C199 C 0.54418 0.63457 0.60618 0.0
C200 C 0.66762 0.64204 0.60494 0.0
C201 C 0.48274 0.33514 0.53356 0.0
C202 C 0.52372 0.35901 0.56901 0.0
C203 C 0.36111 0.32806 0.5316 0.0
C204 C 0.27601 0.34517 0.56387 0.0
H205 H 0.54233 0.32386 0.50314 0.0
H206 H 0.33312 0.31116 0.49972 0.0
S207 S 0.3452 0.40231 0.67868 0.0
N208 N 0.47545 0.39364 0.64957 0.0
N209 N 0.24671 0.38128 0.64327 0.0
C210 C 0.31869 0.36574 0.60589 0.0
C211 C 0.44272 0.37245 0.60899 0.0
C212 C 0.07649 0.88931 0.94459 0.0
C213 C -0.00175 0.86864 0.97256 0.0
C214 C 0.1969 0.88273 0.93611 0.0
C215 C 0.24577 0.8551 0.95526 0.0
H216 H 0.04535 0.91149 0.9303 0.0
H217 H 0.25303 0.90019 0.91711 0.0
S218 S 0.07672 0.79062 0.02085 0.0
N219 N 0.97582 0.81772 0.01242 0.0
N220 N 0.20312 0.8048 0.99581 0.0
C221 C 0.16719 0.83306 0.97901 0.0
C222 C 0.04332 0.8399 0.9877 0.0
C223 C 0.93857 0.16807 0.00941 0.0
C224 C -0.00443 0.15818 0.95829 0.0
C225 C 0.81489 0.17192 0.01033 0.0
C226 C 0.74383 0.16609 0.96014 0.0
H227 H 0.98755 0.16963 0.05033 0.0
H228 H 0.77392 0.17717 0.05221 0.0
S229 S 0.85755 0.14888 0.81143 0.0
N230 N 0.97719 0.14845 0.85364 0.0
N231 N 0.74463 0.15726 0.8551 0.0
C232 C 0.80208 0.16004 0.90715 0.0
C233 C 0.92819 0.15586 0.9063 0.0
C234 C 0.16285 0.15621 0.58843 0.0
C235 C 0.21233 0.17034 0.53925 0.0
C236 C 0.04033 0.15028 0.59128 0.0
C237 C 0.96302 0.15851 0.54498 0.0
H238 H 0.22012 0.14842 0.62325 0.0
H239 H 0.00728 0.13692 0.62778 0.0
S240 S 0.04318 0.2029 0.41297 0.0
N241 N 0.16992 0.19816 0.44843 0.0
N242 N 0.94143 0.18602 0.45361 0.0
C243 C 0.00865 0.17626 0.49945 0.0
C244 C 0.13315 0.18251 0.49663 0.0
C245 C 0.93196 0.825 0.51655 0.0
C246 C 0.84598 0.84317 0.54586 0.0
C247 C 0.05375 0.831 0.52183 0.0
C248 C 0.09364 0.85453 0.55833 0.0
H249 H 0.90526 0.80833 0.48395 0.0
H250 H 0.11466 0.81939 0.49259 0.0
S251 S 0.90965 0.89892 0.66394 0.0
N252 N 0.81245 0.87911 0.62518 0.0
N253 N 0.04175 0.88901 0.6386 0.0
C254 C 0.01058 0.86833 0.59674 0.0
C255 C 0.88628 0.86293 0.58984 0.0
C256 C 0.0565 0.53453 0.09042 0.0
C257 C 0.93183 0.53469 0.08517 0.0
C258 C 0.11998 0.50694 0.09026 0.0
C259 C 0.06084 0.47872 0.08502 0.0
H260 H 0.10632 0.55558 0.08679 0.0
H261 H 0.21609 0.50793 0.08715 0.0
S262 S 0.73382 0.46724 0.09032 0.0
N263 N 0.751 0.50462 0.09091 0.0
N264 N 0.86951 0.45285 0.0889 0.0
C265 C 0.93608 0.47867 0.09032 0.0
C266 C 0.87165 0.50676 0.09088 0.0
C267 C 0.04016 0.47793 0.41942 0.0
C268 C 0.91592 0.47766 0.42673 0.0
C269 C 0.10297 0.50554 0.41879 0.0
C270 C 0.04347 0.53365 0.42542 0.0
H271 H 0.09086 0.45697 0.42239 0.0
H272 H 0.19924 0.50463 0.42062 0.0
S273 S 0.71613 0.5449 0.42426 0.0
N274 N 0.73404 0.50752 0.42362 0.0
N275 N 0.85153 0.55943 0.42365 0.0
C276 C 0.91848 0.53364 0.42149 0.0
C277 C 0.85468 0.50551 0.42187 0.0
C278 C 0.55843 1.00088 0.09068 0.0
C279 C 0.50277 0.97289 0.07775 0.0
C280 C 0.49489 0.02838 0.08884 0.0
C281 C 0.37318 0.02874 0.07446 0.0
H282 H 0.65443 1.00198 0.09469 0.0
H283 H 0.54513 0.04937 0.09112 0.0
S284 S 0.17916 0.96083 0.05717 0.0
N285 N 0.31446 0.94663 0.06445 0.0
N286 N 0.19387 0.99819 0.06312 0.0
C287 C 0.31302 1.00053 0.07233 0.0
C288 C 0.37816 0.97252 0.07361 0.0
C289 C 0.46033 0.03088 0.41301 0.0
C290 C 0.58434 0.03333 0.41959 0.0
C291 C 0.40547 1.00218 0.41141 0.0
C292 C 0.47315 0.97522 0.41594 0.0
H293 H 0.40417 0.05085 0.4174 0.0
H294 H 0.30932 1.00123 0.41428 0.0
S295 S 0.8025 0.97011 0.41173 0.0
N296 N 0.77411 0.00706 0.41406 0.0
N297 N 0.67158 0.95308 0.4106 0.0
C298 C 0.59755 0.9776 0.41084 0.0
C299 C 0.65322 0.00681 0.41296 0.0
C300 C 0.24285 0.27061 0.10999 0.0
C301 C 0.22712 0.28666 0.05722 0.0
C302 C 0.25557 0.23895 0.1105 0.0
C303 C 0.2537 0.2218 0.05819 0.0
H304 H 0.24191 0.28261 0.15165 0.0
H305 H 0.26879 0.22786 0.15249 0.0
S306 S 0.21376 0.25293 0.90788 0.0
N307 N 0.20734 0.28318 0.95111 0.0
N308 N 0.23569 0.22344 0.95165 0.0
C309 C 0.23805 0.23753 0.00482 0.0
C310 C 0.22447 0.26999 0.00441 0.0
C311 C 0.7222 0.77144 0.98964 0.0
C312 C 0.6779 0.78658 0.03947 0.0
C313 C 0.75363 0.74046 0.99217 0.0
C314 C 0.74328 0.72394 0.04483 0.0
H315 H 0.7313 0.78352 0.94842 0.0
H316 H 0.79206 0.72982 0.9536 0.0
S317 S 0.63129 0.75322 0.18708 0.0
N318 N 0.62167 0.78267 0.14215 0.0
N319 N 0.68602 0.72488 0.14753 0.0
C320 C 0.69803 0.73881 0.09459 0.0
C321 C 0.66396 0.77005 0.09175 0.0
C322 C 0.25811 0.73902 0.50783 0.0
C323 C 0.24641 0.7212 0.45669 0.0
C324 C 0.29484 0.76964 0.50453 0.0
C325 C 0.32014 0.7832 0.44998 0.0
H326 H 0.23431 0.72961 0.55018 0.0
H327 H 0.30583 0.78253 0.5448 0.0
S328 S 0.30237 0.74597 0.3037 0.0
N329 N 0.2634 0.7191 0.35054 0.0
N330 N 0.33054 0.77643 0.34405 0.0
C331 C 0.30869 0.76543 0.39883 0.0
C332 C 0.27277 0.73448 0.40228 0.0
C333 C 0.72155 0.27578 0.40257 0.0
C334 C 0.75199 0.2894 0.45626 0.0
C335 C 0.69987 0.24453 0.39855 0.0
C336 C 0.70778 0.22544 0.44812 0.0
H337 H 0.71931 0.28925 0.36271 0.0
H338 H 0.67672 0.23531 0.35587 0.0
S339 S 0.78657 0.25011 0.59929 0.0
N340 N 0.79095 0.28178 0.56015 0.0
N341 N 0.74771 0.22276 0.55315 0.0
C342 C 0.73697 0.23886 0.50249 0.0
C343 C 0.75883 0.27092 0.50651 0.0
C344 C 0.8881 0.41116 0.23277 0.0
C345 C 0.98911 0.41008 0.1963 0.0
C346 C 0.89966 0.41178 0.29408 0.0
C347 C 0.01262 0.41065 0.32047 0.0
H348 H 0.80012 0.40821 0.21412 0.0
H349 H 0.82023 0.40902 0.32047 0.0
S350 S 0.30287 0.41679 0.24465 0.0
N351 N 0.20412 0.41541 0.19095 0.0
N352 N 0.22568 0.41549 0.3063 0.0
C353 C 0.11311 0.41437 0.28462 0.0
C354 C 0.10132 0.41441 0.22223 0.0
C355 C 0.11194 0.60295 0.22999 0.0
C356 C 0.01237 0.60338 0.19249 0.0
C357 C 0.09789 0.60235 0.29115 0.0
C358 C 0.98377 0.60296 0.31621 0.0
H359 H 0.20023 0.60659 0.21228 0.0
H360 H 0.17586 0.60565 0.31845 0.0
S361 S 0.69719 0.59545 0.23732 0.0
N362 N 0.79808 0.59704 0.18473 0.0
N363 N 0.7717 0.59723 0.29979 0.0
C364 C 0.88507 0.59867 0.27935 0.0
C365 C 0.89948 0.59849 0.21714 0.0
C366 C -4e-05 0.57942 0.78609 0.0
C367 C -0.00169 0.60692 0.8179 0.0
C368 C -1e-05 0.57921 0.72488 0.0
C369 C -0.00145 0.60649 0.69255 0.0
H370 H -0.00168 0.55773 0.80883 0.0
H371 H 0.00343 0.55737 0.70256 0.0
S372 S 0.99501 0.68476 0.75449 0.0
N373 N 0.99422 0.6623 0.8127 0.0
N374 N -0.00223 0.66191 0.69671 0.0
C375 C -0.00274 0.63427 0.72354 0.0
C376 C -0.00273 0.63448 0.7864 0.0
C377 C 0.01239 0.43158 0.72626 0.0
C378 C 0.00106 0.40423 0.69459 0.0
C379 C 0.01905 0.43166 0.78739 0.0
C380 C 0.01414 0.40441 0.81979 0.0
H381 H 0.01354 0.45328 0.70352 0.0
H382 H 0.03001 0.45338 0.80956 0.0
S383 S 0.98438 0.3265 0.758 0.0
N384 N 0.98358 0.34903 0.69986 0.0
N385 N -0.00126 0.34914 0.81569 0.0
C386 C 0.00268 0.37677 0.78891 0.0
C387 C -0.00365 0.37668 0.72609 0.0
C388 C 0.57755 0.90912 0.196 0.0
C389 C 0.45794 0.90595 0.1788 0.0
C390 C 0.60848 0.91001 0.25559 0.0
C391 C 0.52066 0.90833 0.29943 0.0
H392 H 0.6484 0.90654 0.16414 0.0
H393 H 0.70167 0.90813 0.26731 0.0
S394 S 0.19468 0.9115 0.27596 0.0
N395 N 0.25135 0.9097 0.20913 0.0
N396 N 0.30947 0.91197 0.32131 0.0
C397 C 0.40104 0.91131 0.28242 0.0
C398 C 0.36952 0.90993 0.22175 0.0
C399 C 0.3797 0.09613 0.2126 0.0
C400 C 0.49197 0.09662 0.18542 0.0
C401 C 0.36961 0.0976 0.27396 0.0
C402 C 0.47135 0.09884 0.31001 0.0
H403 H 0.29957 0.09857 0.18653 0.0
H404 H 0.28213 0.10094 0.29287 0.0
S405 S 0.78404 0.09143 0.26024 0.0
N406 N 0.70536 0.09193 0.19893 0.0
N407 N 0.68659 0.09357 0.31433 0.0
C408 C 0.58298 0.09421 0.28357 0.0
C409 C 0.59328 0.09342 0.22106 0.0
C410 C 0.55359 0.11249 0.79 0.0
C411 C 0.43651 0.10836 0.8086 0.0
C412 C 0.58118 0.11393 0.73006 0.0
C413 C 0.4928 0.11041 0.68638 0.0
H414 H 0.62445 0.11295 0.8219 0.0
H415 H 0.67357 0.11677 0.71768 0.0
S416 S 0.17391 0.09511 0.71195 0.0
N417 N 0.23052 0.09982 0.77826 0.0
N418 N 0.28625 0.0992 0.66597 0.0
C419 C 0.37586 0.10532 0.7042 0.0
C420 C 0.34685 0.10492 0.76522 0.0
C421 C 0.60325 0.92848 0.70657 0.0
C422 C 0.57825 0.90144 0.6759 0.0
C423 C 0.60618 0.92904 0.76784 0.0
C424 C 0.58187 0.90272 0.80097 0.0
H425 H 0.61617 0.94966 0.68295 0.0
H426 H 0.62562 0.9505 0.7895 0.0
S427 S 0.51708 0.82575 0.74157 0.0
N428 N 0.53311 0.84735 0.68271 0.0
N429 N 0.53836 0.84843 0.79864 0.0
C430 C 0.55959 0.8753 0.77095 0.0
C431 C 0.55845 0.87462 0.7082 0.0
loop_
_geom_bond_atom_site_label_1
_geom_bond_atom_site_label_2
_geom_bond_distance
_geom_bond_site_symmetry_2
_ccdc_geom_bond_type
Zn0 O6 1.920 1_655 S
Zn0 O12 1.898 . S
Zn0 O15 1.905 . S
Zn1 O9 1.905 . S
Zn1 O10 1.898 . S
Zn1 O18 1.920 . S
Zn2 O5 2.080 1_554 S
Zn2 O8 2.114 1_554 S
Zn2 O11 2.120 1_554 S
Zn2 O13 2.120 . S
Zn2 O14 2.114 1_455 S
Zn2 O17 2.080 . S
C3 O8 1.167 . S
C3 O9 1.194 . S
C4 O10 1.167 . S
C4 O11 1.299 . S
O5 Zn2 2.080 1_556 S
O5 C19 1.305 1_556 S
O6 Zn0 1.920 1_455 S
O6 C19 1.234 . S
C7 O12 1.167 1_455 S
C7 O13 1.299 . S
O8 Zn2 2.114 1_556 S
O8 C3 1.167 . S
O9 Zn1 1.905 . S
O9 C3 1.194 . S
O10 Zn1 1.898 . S
O10 C4 1.167 . S
O11 Zn2 2.120 1_556 S
O11 C4 1.299 . S
O12 Zn0 1.898 . S
O12 C7 1.167 1_655 S
O13 Zn2 2.120 . S
O13 C7 1.299 . S
O14 Zn2 2.114 1_655 S
O14 C16 1.166 . S
O15 Zn0 1.905 . S
O15 C16 1.182 . S
C16 O14 1.166 . S
C16 O15 1.182 . S
O17 Zn2 2.080 . S
O17 C20 1.305 1_554 S
O18 Zn1 1.920 . S
O18 C20 1.234 . S
C19 O5 1.305 1_554 S
C19 O6 1.234 . S
C20 O17 1.305 1_556 S
C20 O18 1.234 . S
Zn21 O27 1.920 . S
Zn21 O33 1.898 . S
Zn21 O36 1.905 . S
Zn22 O30 1.905 . S
Zn22 O31 1.898 . S
Zn22 O39 1.920 1_455 S
Zn23 O26 2.080 . S
Zn23 O29 2.114 1_655 S
Zn23 O32 2.120 . S
Zn23 O34 2.120 1_554 S
Zn23 O35 2.114 1_554 S
Zn23 O38 2.080 1_554 S
C24 O29 1.166 . S
C24 O30 1.182 . S
C25 O31 1.167 1_655 S
C25 O32 1.299 . S
O26 Zn23 2.080 . S
O26 C40 1.305 1_554 S
O27 Zn21 1.920 . S
O27 C40 1.234 . S
C28 O33 1.167 . S
C28 O34 1.299 . S
O29 Zn23 2.114 1_455 S
O29 C24 1.166 . S
O30 Zn22 1.905 . S
O30 C24 1.182 . S
O31 Zn22 1.898 . S
O31 C25 1.167 1_455 S
O32 Zn23 2.120 . S
O32 C25 1.299 . S
O33 Zn21 1.898 . S
O33 C28 1.167 . S
O34 Zn23 2.120 1_556 S
O34 C28 1.299 . S
O35 Zn23 2.114 1_556 S
O35 C37 1.167 . S
O36 Zn21 1.905 . S
O36 C37 1.194 . S
C37 O35 1.167 . S
C37 O36 1.194 . S
O38 Zn23 2.080 1_556 S
O38 C41 1.305 1_556 S
O39 Zn22 1.920 1_655 S
O39 C41 1.234 . S
C40 O26 1.305 1_556 S
C40 O27 1.234 . S
C41 O38 1.305 1_554 S
C41 O39 1.234 . S
Zn42 O48 1.920 . S
Zn42 O54 1.898 . S
Zn42 O57 1.905 . S
Zn43 O51 1.905 . S
Zn43 O52 1.898 . S
Zn43 O60 1.920 1_655 S
Zn44 O47 2.080 . S
Zn44 O50 2.114 1_455 S
Zn44 O53 2.120 . S
Zn44 O55 2.120 . S
Zn44 O56 2.114 . S
Zn44 O59 2.080 . S
C45 O50 1.166 . S
C45 O51 1.182 . S
C46 O52 1.167 1_455 S
C46 O53 1.299 . S
O47 Zn44 2.080 . S
O47 C61 1.305 . S
O48 Zn42 1.920 . S
O48 C61 1.234 . S
C49 O54 1.167 . S
C49 O55 1.299 . S
O50 Zn44 2.114 1_655 S
O50 C45 1.166 . S
O51 Zn43 1.905 . S
O51 C45 1.182 . S
O52 Zn43 1.898 . S
O52 C46 1.167 1_655 S
O53 Zn44 2.120 . S
O53 C46 1.299 . S
O54 Zn42 1.898 . S
O54 C49 1.167 . S
O55 Zn44 2.120 . S
O55 C49 1.299 . S
O56 Zn44 2.114 . S
O56 C58 1.166 . S
O57 Zn42 1.905 . S
O57 C58 1.182 . S
C58 O56 1.166 . S
C58 O57 1.182 . S
O59 Zn44 2.080 . S
O59 C62 1.305 . S
O60 Zn43 1.920 1_455 S
O60 C62 1.234 . S
C61 O47 1.305 . S
C61 O48 1.234 . S
C62 O59 1.305 . S
C62 O60 1.234 . S
Zn63 O69 1.920 1_455 S
Zn63 O75 1.898 . S
Zn63 O78 1.905 . S
Zn64 O72 1.905 . S
Zn64 O73 1.898 . S
Zn64 O81 1.920 . S
Zn65 O68 2.080 . S
Zn65 O71 2.114 . S
Zn65 O74 2.120 . S
Zn65 O76 2.120 . S
Zn65 O77 2.114 1_655 S
Zn65 O80 2.080 . S
C66 O71 1.166 . S
C66 O72 1.182 . S
C67 O73 1.167 . S
C67 O74 1.299 . S
O68 Zn65 2.080 . S
O68 C82 1.305 . S
O69 Zn63 1.920 1_655 S
O69 C82 1.234 . S
C70 O75 1.167 1_655 S
C70 O76 1.299 . S
O71 Zn65 2.114 . S
O71 C66 1.166 . S
O72 Zn64 1.905 . S
O72 C66 1.182 . S
O73 Zn64 1.898 . S
O73 C67 1.167 . S
O74 Zn65 2.120 . S
O74 C67 1.299 . S
O75 Zn63 1.898 . S
O75 C70 1.167 1_455 S
O76 Zn65 2.120 . S
O76 C70 1.299 . S
O77 Zn65 2.114 1_455 S
O77 C79 1.166 . S
O78 Zn63 1.905 . S
O78 C79 1.182 . S
C79 O77 1.166 . S
C79 O78 1.182 . S
O80 Zn65 2.080 . S
O80 C83 1.305 . S
O81 Zn64 1.920 . S
O81 C83 1.234 . S
C82 O68 1.305 . S
C82 O69 1.234 . S
C83 O80 1.305 . S
C83 O81 1.234 . S
Zn84 O90 1.920 . S
Zn84 O96 1.898 . S
Zn84 O99 1.905 . S
Zn85 O93 1.905 . S
Zn85 O94 1.898 . S
Zn85 O102 1.920 . S
Zn86 O89 2.080 1_554 S
Zn86 O92 2.114 1_554 S
Zn86 O95 2.120 1_554 S
Zn86 O97 2.120 . S
Zn86 O98 2.114 . S
Zn86 O101 2.080 . S
C87 O92 1.167 . S
C87 O93 1.194 . S
C88 O94 1.167 . S
C88 O95 1.299 . S
O89 Zn86 2.080 1_556 S
O89 C103 1.305 1_556 S
O90 Zn84 1.920 . S
O90 C103 1.234 . S
C91 O96 1.167 . S
C91 O97 1.299 . S
O92 Zn86 2.114 1_556 S
O92 C87 1.167 . S
O93 Zn85 1.905 . S
O93 C87 1.194 . S
O94 Zn85 1.898 . S
O94 C88 1.167 . S
O95 Zn86 2.120 1_556 S
O95 C88 1.299 . S
O96 Zn84 1.898 . S
O96 C91 1.167 . S
O97 Zn86 2.120 . S
O97 C91 1.299 . S
O98 Zn86 2.114 . S
O98 C100 1.166 . S
O99 Zn84 1.905 . S
O99 C100 1.182 . S
C100 O98 1.166 . S
C100 O99 1.182 . S
O101 Zn86 2.080 . S
O101 C104 1.305 1_554 S
O102 Zn85 1.920 . S
O102 C104 1.234 . S
C103 O89 1.305 1_554 S
C103 O90 1.234 . S
C104 O101 1.305 1_556 S
C104 O102 1.234 . S
Zn105 O111 1.920 . S
Zn105 O117 1.898 . S
Zn105 O120 1.905 . S
Zn106 O114 1.905 . S
Zn106 O115 1.898 . S
Zn106 O123 1.920 . S
Zn107 O110 2.080 . S
Zn107 O113 2.114 . S
Zn107 O116 2.120 . S
Zn107 O118 2.120 1_554 S
Zn107 O119 2.114 1_554 S
Zn107 O122 2.080 1_554 S
C108 O113 1.166 . S
C108 O114 1.182 . S
C109 O115 1.167 . S
C109 O116 1.299 . S
O110 Zn107 2.080 . S
O110 C124 1.305 1_554 S
O111 Zn105 1.920 . S
O111 C124 1.234 . S
C112 O117 1.167 . S
C112 O118 1.299 . S
O113 Zn107 2.114 . S
O113 C108 1.166 . S
O114 Zn106 1.905 . S
O114 C108 1.182 . S
O115 Zn106 1.898 . S
O115 C109 1.167 . S
O116 Zn107 2.120 . S
O116 C109 1.299 . S
O117 Zn105 1.898 . S
O117 C112 1.167 . S
O118 Zn107 2.120 1_556 S
O118 C112 1.299 . S
O119 Zn107 2.114 1_556 S
O119 C121 1.167 . S
O120 Zn105 1.905 . S
O120 C121 1.194 . S
C121 O119 1.167 . S
C121 O120 1.194 . S
O122 Zn107 2.080 1_556 S
O122 C125 1.305 1_556 S
O123 Zn106 1.920 . S
O123 C125 1.234 . S
C124 O110 1.305 1_556 S
C124 O111 1.234 . S
C125 O122 1.305 1_554 S
C125 O123 1.234 . S
Zn126 O132 1.920 . S
Zn126 O138 1.898 . S
Zn126 O141 1.905 . S
Zn127 O135 1.905 . S
Zn127 O136 1.898 . S
Zn127 O144 1.920 . S
Zn128 O131 2.080 . S
Zn128 O134 2.114 . S
Zn128 O137 2.120 . S
Zn128 O139 2.120 . S
Zn128 O140 2.114 . S
Zn128 O143 2.080 . S
C129 O134 1.166 . S
C129 O135 1.182 . S
C130 O136 1.167 . S
C130 O137 1.299 . S
O131 Zn128 2.080 . S
O131 C145 1.305 . S
O132 Zn126 1.920 . S
O132 C145 1.234 . S
C133 O138 1.167 . S
C133 O139 1.299 . S
O134 Zn128 2.114 . S
O134 C129 1.166 . S
O135 Zn127 1.905 . S
O135 C129 1.182 . S
O136 Zn127 1.898 . S
O136 C130 1.167 . S
O137 Zn128 2.120 . S
O137 C130 1.299 . S
O138 Zn126 1.898 . S
O138 C133 1.167 . S
O139 Zn128 2.120 . S
O139 C133 1.299 . S
O140 Zn128 2.114 . S
O140 C142 1.166 . S
O141 Zn126 1.905 . S
O141 C142 1.182 . S
C142 O140 1.166 . S
C142 O141 1.182 . S
O143 Zn128 2.080 . S
O143 C146 1.305 . S
O144 Zn127 1.920 . S
O144 C146 1.234 . S
C145 O131 1.305 . S
C145 O132 1.234 . S
C146 O143 1.305 . S
C146 O144 1.234 . S
Zn147 O153 1.920 . S
Zn147 O159 1.898 . S
Zn147 O162 1.905 . S
Zn148 O156 1.905 . S
Zn148 O157 1.898 . S
Zn148 O165 1.920 . S
Zn149 O152 2.080 . S
Zn149 O155 2.114 . S
Zn149 O158 2.120 . S
Zn149 O160 2.120 . S
Zn149 O161 2.114 . S
Zn149 O164 2.080 . S
C150 O155 1.166 . S
C150 O156 1.182 . S
C151 O157 1.167 . S
C151 O158 1.299 . S
O152 Zn149 2.080 . S
O152 C166 1.305 . S
O153 Zn147 1.920 . S
O153 C166 1.234 . S
C154 O159 1.167 . S
C154 O160 1.299 . S
O155 Zn149 2.114 . S
O155 C150 1.166 . S
O156 Zn148 1.905 . S
O156 C150 1.182 . S
O157 Zn148 1.898 . S
O157 C151 1.167 . S
O158 Zn149 2.120 . S
O158 C151 1.299 . S
O159 Zn147 1.898 . S
O159 C154 1.167 . S
O160 Zn149 2.120 . S
O160 C154 1.299 . S
O161 Zn149 2.114 . S
O161 C163 1.166 . S
O162 Zn147 1.905 . S
O162 C163 1.182 . S
C163 O161 1.166 . S
C163 O162 1.182 . S
O164 Zn149 2.080 . S
O164 C167 1.305 . S
O165 Zn148 1.920 . S
O165 C167 1.234 . S
C166 O152 1.305 . S
C166 O153 1.234 . S
C167 O164 1.305 . S
C167 O165 1.234 . S
C168 C169 1.369 . S
C168 C170 1.419 . S
C168 H172 0.930 . S
C169 C168 1.369 . S
C169 C178 1.429 1_556 S
C170 C168 1.419 . S
C170 C171 1.363 . S
C170 H173 0.929 . S
C171 C170 1.363 . S
C171 C177 1.428 1_556 S
H172 C168 0.930 . S
H173 C170 0.929 . S
S174 N175 1.613 . S
S174 N176 1.610 . S
N175 S174 1.613 . S
N175 C178 1.350 . S
N176 S174 1.610 . S
N176 C177 1.351 . S
C177 C171 1.428 1_554 S
C177 N176 1.351 . S
C177 C178 1.434 . S
C178 C169 1.429 1_554 S
C178 N175 1.350 . S
C178 C177 1.434 . S
C179 C180 1.369 1_554 S
C179 C181 1.419 . S
C179 H183 0.930 . S
C180 C179 1.369 1_556 S
C180 C189 1.429 . S
C181 C179 1.419 . S
C181 C182 1.363 1_554 S
C181 H184 0.929 . S
C182 C181 1.363 1_556 S
C182 C188 1.428 . S
H183 C179 0.930 . S
H184 C181 0.929 . S
S185 N186 1.613 . S
S185 N187 1.610 . S
N186 S185 1.613 . S
N186 C189 1.350 . S
N187 S185 1.610 . S
N187 C188 1.351 . S
C188 C182 1.428 . S
C188 N187 1.351 . S
C188 C189 1.434 . S
C189 C180 1.429 . S
C189 N186 1.350 . S
C189 C188 1.434 . S
C190 C191 1.369 . S
C190 C192 1.419 . S
C190 H194 0.930 . S
C191 C190 1.369 . S
C191 C200 1.429 . S
C192 C190 1.419 . S
C192 C193 1.363 . S
C192 H195 0.929 . S
C193 C192 1.363 . S
C193 C199 1.428 . S
H194 C190 0.930 . S
H195 C192 0.929 . S
S196 N197 1.613 . S
S196 N198 1.610 . S
N197 S196 1.613 . S
N197 C200 1.350 . S
N198 S196 1.610 . S
N198 C199 1.351 . S
C199 C193 1.428 . S
C199 N198 1.351 . S
C199 C200 1.434 . S
C200 C191 1.429 . S
C200 N197 1.350 . S
C200 C199 1.434 . S
C201 C202 1.369 . S
C201 C203 1.419 . S
C201 H205 0.930 . S
C202 C201 1.369 . S
C202 C211 1.429 . S
C203 C201 1.419 . S
C203 C204 1.363 . S
C203 H206 0.929 . S
C204 C203 1.363 . S
C204 C210 1.428 . S
H205 C201 0.930 . S
H206 C203 0.929 . S
S207 N208 1.613 . S
S207 N209 1.610 . S
N208 S207 1.613 . S
N208 C211 1.350 . S
N209 S207 1.610 . S
N209 C210 1.351 . S
C210 C204 1.428 . S
C210 N209 1.351 . S
C210 C211 1.434 . S
C211 C202 1.429 . S
C211 N208 1.350 . S
C211 C210 1.434 . S
C212 C213 1.369 1_455 S
C212 C214 1.419 . S
C212 H216 0.930 . S
C213 C212 1.369 1_655 S
C213 C222 1.429 1_656 S
C214 C212 1.419 . S
C214 C215 1.363 . S
C214 H217 0.929 . S
C215 C214 1.363 . S
C215 C221 1.428 1_556 S
H216 C212 0.930 . S
H217 C214 0.929 . S
S218 N219 1.613 1_455 S
S218 N220 1.610 . S
N219 S218 1.613 1_655 S
N219 C222 1.350 1_655 S
N220 S218 1.610 . S
N220 C221 1.351 . S
C221 C215 1.428 1_554 S
C221 N220 1.351 . S
C221 C222 1.434 . S
C222 C213 1.429 1_454 S
C222 N219 1.350 1_455 S
C222 C221 1.434 . S
C223 C224 1.369 1_654 S
C223 C225 1.419 . S
C223 H227 0.930 1_655 S
C224 C223 1.369 1_456 S
C224 C233 1.429 1_455 S
C225 C223 1.419 . S
C225 C226 1.363 1_554 S
C225 H228 0.929 . S
C226 C225 1.363 1_556 S
C226 C232 1.428 . S
H227 C223 0.930 1_455 S
H228 C225 0.929 . S
S229 N230 1.613 1_655 S
S229 N231 1.610 . S
N230 S229 1.613 1_455 S
N230 C233 1.350 1_455 S
N231 S229 1.610 . S
N231 C232 1.351 . S
C232 C226 1.428 . S
C232 N231 1.351 . S
C232 C233 1.434 . S
C233 C224 1.429 1_655 S
C233 N230 1.350 1_655 S
C233 C232 1.434 . S
C234 C235 1.369 . S
C234 C236 1.419 . S
C234 H238 0.930 . S
C235 C234 1.369 . S
C235 C244 1.429 . S
C236 C234 1.419 . S
C236 C237 1.363 1_455 S
C236 H239 0.929 1_455 S
C237 C236 1.363 1_655 S
C237 C243 1.428 1_655 S
H238 C234 0.930 . S
H239 C236 0.929 1_655 S
S240 N241 1.613 . S
S240 N242 1.610 1_455 S
N241 S240 1.613 . S
N241 C244 1.350 . S
N242 S240 1.610 1_655 S
N242 C243 1.351 1_655 S
C243 C237 1.428 1_455 S
C243 N242 1.351 1_455 S
C243 C244 1.434 . S
C244 C235 1.429 . S
C244 N241 1.350 . S
C244 C243 1.434 . S
C245 C246 1.369 . S
C245 C247 1.419 . S
C245 H249 0.930 . S
C246 C245 1.369 . S
C246 C255 1.429 . S
C247 C245 1.419 . S
C247 C248 1.363 1_655 S
C247 H250 0.929 1_655 S
C248 C247 1.363 1_455 S
C248 C254 1.428 1_455 S
H249 C245 0.930 . S
H250 C247 0.929 1_455 S
S251 N252 1.613 . S
S251 N253 1.610 . S
N252 S251 1.613 . S
N252 C255 1.350 . S
N253 S251 1.610 . S
N253 C254 1.351 . S
C254 C248 1.428 1_655 S
C254 N253 1.351 . S
C254 C255 1.434 . S
C255 C246 1.429 . S
C255 N252 1.350 . S
C255 C254 1.434 . S
C256 C257 1.369 1_456 S
C256 C258 1.419 . S
C256 H260 0.930 . S
C257 C256 1.369 1_654 S
C257 C266 1.429 . S
C258 C256 1.419 . S
C258 C259 1.363 1_556 S
C258 H261 0.929 . S
C259 C258 1.363 1_554 S
C259 C265 1.428 1_455 S
H260 C256 0.930 . S
H261 C258 0.929 . S
S262 N263 1.613 . S
S262 N264 1.610 . S
N263 S262 1.613 . S
N263 C266 1.350 . S
N264 S262 1.610 . S
N264 C265 1.351 . S
C265 C259 1.428 1_655 S
C265 N264 1.351 . S
C265 C266 1.434 . S
C266 C257 1.429 . S
C266 N263 1.350 . S
C266 C265 1.434 . S
C267 C268 1.369 1_455 S
C267 C269 1.419 . S
C267 H271 0.930 . S
C268 C267 1.369 1_655 S
C268 C277 1.429 . S
C269 C267 1.419 . S
C269 C270 1.363 . S
C269 H272 0.929 . S
C270 C269 1.363 . S
C270 C276 1.428 1_455 S
H271 C267 0.930 . S
H272 C269 0.929 . S
S273 N274 1.613 . S
S273 N275 1.610 . S
N274 S273 1.613 . S
N274 C277 1.350 . S
N275 S273 1.610 . S
N275 C276 1.351 . S
C276 C270 1.428 1_655 S
C276 N275 1.351 . S
C276 C277 1.434 . S
C277 C268 1.429 . S
C277 N274 1.350 . S
C277 C276 1.434 . S
C278 C279 1.369 . S
C278 C280 1.419 1_565 S
C278 H282 0.930 . S
C279 C278 1.369 . S
C279 C288 1.429 1_554 S
C280 C278 1.419 1_545 S
C280 C281 1.363 . S
C280 H283 0.929 . S
C281 C280 1.363 . S
C281 C287 1.428 1_554 S
H282 C278 0.930 . S
H283 C280 0.929 . S
S284 N285 1.613 . S
S284 N286 1.610 1_565 S
N285 S284 1.613 . S
N285 C288 1.350 . S
N286 S284 1.610 1_545 S
N286 C287 1.351 . S
C287 C281 1.428 1_556 S
C287 N286 1.351 . S
C287 C288 1.434 1_545 S
C288 C279 1.429 1_556 S
C288 N285 1.350 . S
C288 C287 1.434 1_565 S
C289 C290 1.369 . S
C289 C291 1.419 1_545 S
C289 H293 0.930 . S
C290 C289 1.369 . S
C290 C299 1.429 . S
C291 C289 1.419 1_565 S
C291 C292 1.363 . S
C291 H294 0.929 . S
C292 C291 1.363 . S
C292 C298 1.428 . S
H293 C289 0.930 . S
H294 C291 0.929 . S
S295 N296 1.613 1_565 S
S295 N297 1.610 . S
N296 S295 1.613 1_545 S
N296 C299 1.350 . S
N297 S295 1.610 . S
N297 C298 1.351 . S
C298 C292 1.428 . S
C298 N297 1.351 . S
C298 C299 1.434 1_565 S
C299 C290 1.429 . S
C299 N296 1.350 . S
C299 C298 1.434 1_545 S
C300 C301 1.369 . S
C300 C302 1.419 . S
C300 H304 0.930 . S
C301 C300 1.369 . S
C301 C310 1.429 . S
C302 C300 1.419 . S
C302 C303 1.363 . S
C302 H305 0.929 . S
C303 C302 1.363 . S
C303 C309 1.428 . S
H304 C300 0.930 . S
H305 C302 0.929 . S
S306 N307 1.613 . S
S306 N308 1.610 . S
N307 S306 1.613 . S
N307 C310 1.350 1_556 S
N308 S306 1.610 . S
N308 C309 1.351 1_556 S
C309 C303 1.428 . S
C309 N308 1.351 1_554 S
C309 C310 1.434 . S
C310 C301 1.429 . S
C310 N307 1.350 1_554 S
C310 C309 1.434 . S
C311 C312 1.369 1_556 S
C311 C313 1.419 . S
C311 H315 0.930 . S
C312 C311 1.369 1_554 S
C312 C321 1.429 . S
C313 C311 1.419 . S
C313 C314 1.363 1_556 S
C313 H316 0.929 . S
C314 C313 1.363 1_554 S
C314 C320 1.428 . S
H315 C311 0.930 . S
H316 C313 0.929 . S
S317 N318 1.613 . S
S317 N319 1.610 . S
N318 S317 1.613 . S
N318 C321 1.350 . S
N319 S317 1.610 . S
N319 C320 1.351 . S
C320 C314 1.428 . S
C320 N319 1.351 . S
C320 C321 1.434 . S
C321 C312 1.429 . S
C321 N318 1.350 . S
C321 C320 1.434 . S
C322 C323 1.369 . S
C322 C324 1.419 . S
C322 H326 0.930 . S
C323 C322 1.369 . S
C323 C332 1.429 . S
C324 C322 1.419 . S
C324 C325 1.363 . S
C324 H327 0.929 . S
C325 C324 1.363 . S
C325 C331 1.428 . S
H326 C322 0.930 . S
H327 C324 0.929 . S
S328 N329 1.613 . S
S328 N330 1.610 . S
N329 S328 1.613 . S
N329 C332 1.350 . S
N330 S328 1.610 . S
N330 C331 1.351 . S
C331 C325 1.428 . S
C331 N330 1.351 . S
C331 C332 1.434 . S
C332 C323 1.429 . S
C332 N329 1.350 . S
C332 C331 1.434 . S
C333 C334 1.369 . S
C333 C335 1.419 . S
C333 H337 0.930 . S
C334 C333 1.369 . S
C334 C343 1.429 . S
C335 C333 1.419 . S
C335 C336 1.363 . S
C335 H338 0.929 . S
C336 C335 1.363 . S
C336 C342 1.428 . S
H337 C333 0.930 . S
H338 C335 0.929 . S
S339 N340 1.613 1_455 S
S339 N341 1.610 1_455 S
N340 S339 1.613 1_655 S
N340 C343 1.350 . S
N341 S339 1.610 1_655 S
N341 C342 1.351 . S
C342 C336 1.428 . S
C342 N341 1.351 . S
C342 C343 1.434 . S
C343 C334 1.429 . S
C343 N340 1.350 . S
C343 C342 1.434 . S
C344 C345 1.369 1_655 S
C344 C346 1.419 . S
C344 H348 0.930 . S
C345 C344 1.369 1_455 S
C345 C354 1.429 . S
C346 C344 1.419 . S
C346 C347 1.363 . S
C346 H349 0.929 . S
C347 C346 1.363 . S
C347 C353 1.428 1_655 S
H348 C344 0.930 . S
H349 C346 0.929 . S
S350 N351 1.613 . S
S350 N352 1.610 . S
N351 S350 1.613 . S
N351 C354 1.350 . S
N352 S350 1.610 . S
N352 C353 1.351 . S
C353 C347 1.428 1_455 S
C353 N352 1.351 . S
C353 C354 1.434 . S
C354 C345 1.429 . S
C354 N351 1.350 . S
C354 C353 1.434 . S
C355 C356 1.369 1_455 S
C355 C357 1.419 . S
C355 H359 0.930 . S
C356 C355 1.369 1_655 S
C356 C365 1.429 . S
C357 C355 1.419 . S
C357 C358 1.363 . S
C357 H360 0.929 . S
C358 C357 1.363 . S
C358 C364 1.428 1_455 S
H359 C355 0.930 . S
H360 C357 0.929 . S
S361 N362 1.613 . S
S361 N363 1.610 . S
N362 S361 1.613 . S
N362 C365 1.350 . S
N363 S361 1.610 . S
N363 C364 1.351 . S
C364 C358 1.428 1_655 S
C364 N363 1.351 . S
C364 C365 1.434 . S
C365 C356 1.429 . S
C365 N362 1.350 . S
C365 C364 1.434 . S
C366 C367 1.369 . S
C366 C368 1.419 . S
C366 H370 0.930 . S
C367 C366 1.369 . S
C367 C376 1.429 1_655 S
C368 C366 1.419 . S
C368 C369 1.363 1_655 S
C368 H371 0.929 . S
C369 C368 1.363 1_455 S
C369 C375 1.428 . S
H370 C366 0.930 . S
H371 C368 0.929 . S
S372 N373 1.613 . S
S372 N374 1.610 . S
N373 S372 1.613 . S
N373 C376 1.350 . S
N374 S372 1.610 . S
N374 C375 1.351 . S
C375 C369 1.428 . S
C375 N374 1.351 . S
C375 C376 1.434 . S
C376 C367 1.429 1_455 S
C376 N373 1.350 . S
C376 C375 1.434 . S
C377 C378 1.369 1_455 S
C377 C379 1.419 . S
C377 H381 0.930 . S
C378 C377 1.369 1_655 S
C378 C387 1.429 . S
C379 C377 1.419 . S
C379 C380 1.363 . S
C379 H382 0.929 . S
C380 C379 1.363 . S
C380 C386 1.428 1_455 S
H381 C377 0.930 . S
H382 C379 0.929 . S
S383 N384 1.613 . S
S383 N385 1.610 . S
N384 S383 1.613 . S
N384 C387 1.350 . S
N385 S383 1.610 . S
N385 C386 1.351 . S
C386 C380 1.428 1_655 S
C386 N385 1.351 . S
C386 C387 1.434 . S
C387 C378 1.429 . S
C387 N384 1.350 . S
C387 C386 1.434 . S
C388 C389 1.369 . S
C388 C390 1.419 . S
C388 H392 0.930 . S
C389 C388 1.369 . S
C389 C398 1.429 . S
C390 C388 1.419 . S
C390 C391 1.363 . S
C390 H393 0.929 . S
C391 C390 1.363 . S
C391 C397 1.428 . S
H392 C388 0.930 . S
H393 C390 0.929 . S
S394 N395 1.613 . S
S394 N396 1.610 . S
N395 S394 1.613 . S
N395 C398 1.350 . S
N396 S394 1.610 . S
N396 C397 1.351 . S
C397 C391 1.428 . S
C397 N396 1.351 . S
C397 C398 1.434 . S
C398 C389 1.429 . S
C398 N395 1.350 . S
C398 C397 1.434 . S
C399 C400 1.369 . S
C399 C401 1.419 . S
C399 H403 0.930 . S
C400 C399 1.369 . S
C400 C409 1.429 . S
C401 C399 1.419 . S
C401 C402 1.363 . S
C401 H404 0.929 . S
C402 C401 1.363 . S
C402 C408 1.428 . S
H403 C399 0.930 . S
H404 C401 0.929 . S
S405 N406 1.613 . S
S405 N407 1.610 . S
N406 S405 1.613 . S
N406 C409 1.350 . S
N407 S405 1.610 . S
N407 C408 1.351 . S
C408 C402 1.428 . S
C408 N407 1.351 . S
C408 C409 1.434 . S
C409 C400 1.429 . S
C409 N406 1.350 . S
C409 C408 1.434 . S
C410 C411 1.369 . S
C410 C412 1.419 . S
C410 H414 0.930 . S
C411 C410 1.369 . S
C411 C420 1.429 . S
C412 C410 1.419 . S
C412 C413 1.363 . S
C412 H415 0.929 . S
C413 C412 1.363 . S
C413 C419 1.428 . S
H414 C410 0.930 . S
H415 C412 0.929 . S
S416 N417 1.613 . S
S416 N418 1.610 . S
N417 S416 1.613 . S
N417 C420 1.350 . S
N418 S416 1.610 . S
N418 C419 1.351 . S
C419 C413 1.428 . S
C419 N418 1.351 . S
C419 C420 1.434 . S
C420 C411 1.429 . S
C420 N417 1.350 . S
C420 C419 1.434 . S
C421 C422 1.369 . S
C421 C423 1.419 . S
C421 H425 0.930 . S
C422 C421 1.369 . S
C422 C431 1.429 . S
C423 C421 1.419 . S
C423 C424 1.363 . S
C423 H426 0.929 . S
C424 C423 1.363 . S
C424 C430 1.428 . S
H425 C421 0.930 . S
H426 C423 0.929 . S
S427 N428 1.613 . S
S427 N429 1.610 . S
N428 S427 1.613 . S
N428 C431 1.350 . S
N429 S427 1.610 . S
N429 C430 1.351 . S
C430 C424 1.428 . S
C430 N429 1.351 . S
C430 C431 1.434 . S
C431 C422 1.429 . S
C431 N428 1.350 . S
C431 C430 1.434 . S
C169 C20 1.339 . S
C171 C16 1.288 1_556 S
C180 C24 1.300 1_556 S
C182 C40 1.333 . S
C191 C45 1.295 . S
C193 C61 1.333 . S
C202 C83 1.331 . S
C204 C79 1.296 . S
C213 C104 1.342 . S
C215 C100 1.289 1_556 S
C224 C124 1.336 . S
C226 C108 1.298 1_556 S
C235 C129 1.286 . S
C237 C145 1.340 . S
C246 C163 1.290 . S
C248 C167 1.335 . S
C257 C37 1.438 1_554 S
C259 C3 1.438 1_554 S
C268 C66 1.440 . S
C270 C58 1.442 . S
C279 C87 1.429 1_554 S
C281 C121 1.429 1_554 S
C290 C142 1.443 . S
C292 C150 1.444 . S
C301 C19 1.419 . S
C303 C125 1.411 . S
C312 C103 1.413 . S
C314 C41 1.410 . S
C323 C62 1.416 . S
C325 C166 1.409 . S
C334 C82 1.409 . S
C336 C146 1.417 . S
C345 C7 1.325 . S
C347 C70 1.318 . S
C356 C25 1.324 . S
C358 C46 1.317 . S
C367 C28 1.351 . S
C369 C49 1.346 . S
C378 C67 1.344 . S
C380 C4 1.352 . S
C389 C91 1.320 . S
C391 C154 1.320 . S
C400 C109 1.324 . S
C402 C130 1.321 . S
C411 C112 1.337 . S
C413 C133 1.349 . S
C422 C151 1.350 . S
C424 C88 1.347 . S
