# Generated by pormake.
# Topology vba, (4)-cn, num edge types: 1
# Building blocks:
#     Node 0, Type 0, BuildingBlock: QUQFOY_clean_sbu_1, # of connection points: 4
#     Node 1, Type 0, BuildingBlock: QUQFOY_clean_sbu_1, # of connection points: 4
#     Node 2, Type 0, BuildingBlock: QUQFOY_clean_sbu_1, # of connection points: 4
#     Node 3, Type 0, BuildingBlock: QUQFOY_clean_sbu_1, # of connection points: 4
#     Node 4, Type 0, BuildingBlock: QUQFOY_clean_sbu_1, # of connection points: 4
#     Node 5, Type 0, BuildingBlock: QUQFOY_clean_sbu_1, # of connection points: 4
#     Node 6, Type 0, BuildingBlock: QUQFOY_clean_sbu_1, # of connection points: 4
#     Node 7, Type 0, BuildingBlock: QUQFOY_clean_sbu_1, # of connection points: 4
#     Node 8, Type 0, BuildingBlock: QUQFOY_clean_sbu_1, # of connection points: 4
#     Node 9, Type 0, BuildingBlock: QUQFOY_clean_sbu_1, # of connection points: 4
#     Node 10, Type 0, BuildingBlock: QUQFOY_clean_sbu_1, # of connection points: 4
#     Node 11, Type 0, BuildingBlock: QUQFOY_clean_sbu_1, # of connection points: 4
#     Node 12, Type 0, BuildingBlock: QUQFOY_clean_sbu_1, # of connection points: 4
#     Node 13, Type 0, BuildingBlock: QUQFOY_clean_sbu_1, # of connection points: 4
#     Node 14, Type 0, BuildingBlock: QUQFOY_clean_sbu_1, # of connection points: 4
#     Node 15, Type 0, BuildingBlock: QUQFOY_clean_sbu_1, # of connection points: 4
#     Node 16, Type 0, BuildingBlock: QUQFOY_clean_sbu_1, # of connection points: 4
#     Node 17, Type 0, BuildingBlock: QUQFOY_clean_sbu_1, # of connection points: 4
#     Node 18, Type 0, BuildingBlock: QUQFOY_clean_sbu_1, # of connection points: 4
#     Node 19, Type 0, BuildingBlock: QUQFOY_clean_sbu_1, # of connection points: 4
#     Node 20, Type 0, BuildingBlock: QUQFOY_clean_sbu_1, # of connection points: 4
#     Node 21, Type 0, BuildingBlock: QUQFOY_clean_sbu_1, # of connection points: 4
#     Node 22, Type 0, BuildingBlock: QUQFOY_clean_sbu_1, # of connection points: 4
#     Node 23, Type 0, BuildingBlock: QUQFOY_clean_sbu_1, # of connection points: 4
#     Node 24, Type 0, BuildingBlock: QUQFOY_clean_sbu_1, # of connection points: 4
#     Node 25, Type 0, BuildingBlock: QUQFOY_clean_sbu_1, # of connection points: 4
#     Node 26, Type 0, BuildingBlock: QUQFOY_clean_sbu_1, # of connection points: 4
#     Node 27, Type 0, BuildingBlock: QUQFOY_clean_sbu_1, # of connection points: 4
#     Node 28, Type 0, BuildingBlock: QUQFOY_clean_sbu_1, # of connection points: 4
#     Node 29, Type 0, BuildingBlock: QUQFOY_clean_sbu_1, # of connection points: 4
#     Node 30, Type 0, BuildingBlock: QUQFOY_clean_sbu_1, # of connection points: 4
#     Node 31, Type 0, BuildingBlock: QUQFOY_clean_sbu_1, # of connection points: 4
#     Edge 32, Type (0, 0), BuildingBlock: CIFDUS_clean_linker_0, # of connection points: 2
#     Edge 33, Type (0, 0), BuildingBlock: CIFDUS_clean_linker_0, # of connection points: 2
#     Edge 34, Type (0, 0), BuildingBlock: CIFDUS_clean_linker_0, # of connection points: 2
#     Edge 35, Type (0, 0), BuildingBlock: CIFDUS_clean_linker_0, # of connection points: 2
#     Edge 36, Type (0, 0), BuildingBlock: CIFDUS_clean_linker_0, # of connection points: 2
#     Edge 37, Type (0, 0), BuildingBlock: CIFDUS_clean_linker_0, # of connection points: 2
#     Edge 38, Type (0, 0), BuildingBlock: CIFDUS_clean_linker_0, # of connection points: 2
#     Edge 39, Type (0, 0), BuildingBlock: CIFDUS_clean_linker_0, # of connection points: 2
#     Edge 40, Type (0, 0), BuildingBlock: CIFDUS_clean_linker_0, # of connection points: 2
#     Edge 41, Type (0, 0), BuildingBlock: CIFDUS_clean_linker_0, # of connection points: 2
#     Edge 42, Type (0, 0), BuildingBlock: CIFDUS_clean_linker_0, # of connection points: 2
#     Edge 43, Type (0, 0), BuildingBlock: CIFDUS_clean_linker_0, # of connection points: 2
#     Edge 44, Type (0, 0), BuildingBlock: CIFDUS_clean_linker_0, # of connection points: 2
#     Edge 45, Type (0, 0), BuildingBlock: CIFDUS_clean_linker_0, # of connection points: 2
#     Edge 46, Type (0, 0), BuildingBlock: CIFDUS_clean_linker_0, # of connection points: 2
#     Edge 47, Type (0, 0), BuildingBlock: CIFDUS_clean_linker_0, # of connection points: 2
#     Edge 48, Type (0, 0), BuildingBlock: CIFDUS_clean_linker_0, # of connection points: 2
#     Edge 49, Type (0, 0), BuildingBlock: CIFDUS_clean_linker_0, # of connection points: 2
#     Edge 50, Type (0, 0), BuildingBlock: CIFDUS_clean_linker_0, # of connection points: 2
#     Edge 51, Type (0, 0), BuildingBlock: CIFDUS_clean_linker_0, # of connection points: 2
#     Edge 52, Type (0, 0), BuildingBlock: CIFDUS_clean_linker_0, # of connection points: 2
#     Edge 53, Type (0, 0), BuildingBlock: CIFDUS_clean_linker_0, # of connection points: 2
#     Edge 54, Type (0, 0), BuildingBlock: CIFDUS_clean_linker_0, # of connection points: 2
#     Edge 55, Type (0, 0), BuildingBlock: CIFDUS_clean_linker_0, # of connection points: 2
#     Edge 56, Type (0, 0), BuildingBlock: CIFDUS_clean_linker_0, # of connection points: 2
#     Edge 57, Type (0, 0), BuildingBlock: CIFDUS_clean_linker_0, # of connection points: 2
#     Edge 58, Type (0, 0), BuildingBlock: CIFDUS_clean_linker_0, # of connection points: 2
#     Edge 59, Type (0, 0), BuildingBlock: CIFDUS_clean_linker_0, # of connection points: 2
#     Edge 60, Type (0, 0), BuildingBlock: CIFDUS_clean_linker_0, # of connection points: 2
#     Edge 61, Type (0, 0), BuildingBlock: CIFDUS_clean_linker_0, # of connection points: 2
#     Edge 62, Type (0, 0), BuildingBlock: CIFDUS_clean_linker_0, # of connection points: 2
#     Edge 63, Type (0, 0), BuildingBlock: CIFDUS_clean_linker_0, # of connection points: 2
#     Edge 64, Type (0, 0), BuildingBlock: CIFDUS_clean_linker_0, # of connection points: 2
#     Edge 65, Type (0, 0), BuildingBlock: CIFDUS_clean_linker_0, # of connection points: 2
#     Edge 66, Type (0, 0), BuildingBlock: CIFDUS_clean_linker_0, # of connection points: 2
#     Edge 67, Type (0, 0), BuildingBlock: CIFDUS_clean_linker_0, # of connection points: 2
#     Edge 68, Type (0, 0), BuildingBlock: CIFDUS_clean_linker_0, # of connection points: 2
#     Edge 69, Type (0, 0), BuildingBlock: CIFDUS_clean_linker_0, # of connection points: 2
#     Edge 70, Type (0, 0), BuildingBlock: CIFDUS_clean_linker_0, # of connection points: 2
#     Edge 71, Type (0, 0), BuildingBlock: CIFDUS_clean_linker_0, # of connection points: 2
#     Edge 72, Type (0, 0), BuildingBlock: CIFDUS_clean_linker_0, # of connection points: 2
#     Edge 73, Type (0, 0), BuildingBlock: CIFDUS_clean_linker_0, # of connection points: 2
#     Edge 74, Type (0, 0), BuildingBlock: CIFDUS_clean_linker_0, # of connection points: 2
#     Edge 75, Type (0, 0), BuildingBlock: CIFDUS_clean_linker_0, # of connection points: 2
#     Edge 76, Type (0, 0), BuildingBlock: CIFDUS_clean_linker_0, # of connection points: 2
#     Edge 77, Type (0, 0), BuildingBlock: CIFDUS_clean_linker_0, # of connection points: 2
#     Edge 78, Type (0, 0), BuildingBlock: CIFDUS_clean_linker_0, # of connection points: 2
#     Edge 79, Type (0, 0), BuildingBlock: CIFDUS_clean_linker_0, # of connection points: 2
#     Edge 80, Type (0, 0), BuildingBlock: CIFDUS_clean_linker_0, # of connection points: 2
#     Edge 81, Type (0, 0), BuildingBlock: CIFDUS_clean_linker_0, # of connection points: 2
#     Edge 82, Type (0, 0), BuildingBlock: CIFDUS_clean_linker_0, # of connection points: 2
#     Edge 83, Type (0, 0), BuildingBlock: CIFDUS_clean_linker_0, # of connection points: 2
#     Edge 84, Type (0, 0), BuildingBlock: CIFDUS_clean_linker_0, # of connection points: 2
#     Edge 85, Type (0, 0), BuildingBlock: CIFDUS_clean_linker_0, # of connection points: 2
#     Edge 86, Type (0, 0), BuildingBlock: CIFDUS_clean_linker_0, # of connection points: 2
#     Edge 87, Type (0, 0), BuildingBlock: CIFDUS_clean_linker_0, # of connection points: 2
#     Edge 88, Type (0, 0), BuildingBlock: CIFDUS_clean_linker_0, # of connection points: 2
#     Edge 89, Type (0, 0), BuildingBlock: CIFDUS_clean_linker_0, # of connection points: 2
#     Edge 90, Type (0, 0), BuildingBlock: CIFDUS_clean_linker_0, # of connection points: 2
#     Edge 91, Type (0, 0), BuildingBlock: CIFDUS_clean_linker_0, # of connection points: 2
#     Edge 92, Type (0, 0), BuildingBlock: CIFDUS_clean_linker_0, # of connection points: 2
#     Edge 93, Type (0, 0), BuildingBlock: CIFDUS_clean_linker_0, # of connection points: 2
#     Edge 94, Type (0, 0), BuildingBlock: CIFDUS_clean_linker_0, # of connection points: 2
#     Edge 95, Type (0, 0), BuildingBlock: CIFDUS_clean_linker_0, # of connection points: 2
# Relax obj value: 0.119
# Max RMSD: 0.330
# Mean RMSD: 0.330
data_MOF--net-vba--node1-QUQFOY_clean_sbu_1--edge1-CIFDUS_clean_linker_0
_symmetry_space_group_name_H-M    P1
_symmetry_Int_Tables_number       1
_symmetry_cell_setting            triclinic
loop_
_symmetry_equiv_pos_as_xyz
'x, y, z'
_cell_length_a     14.781746
_cell_length_b     93.241918
_cell_length_c     49.476127
_cell_angle_alpha  89.985932
_cell_angle_beta   89.933159
_cell_angle_gamma 89.971111
loop_
_atom_site_label
_atom_site_type_symbol
_atom_site_fract_x
_atom_site_fract_y
_atom_site_fract_z
_atom_type_partial_charge
O0 O 0.34028 0.07777 0.97436 0.0
Cd1 Cd 0.34362 0.07529 0.01443 0.0
Cd2 Cd 0.17351 0.07197 0.01422 0.0
O3 O 0.21535 0.06476 0.97478 0.0
O4 O 0.45087 0.06293 0.02512 0.0
O5 O 0.31178 0.05462 0.01952 0.0
C6 C 0.39559 0.05216 0.02431 0.0
C7 C 0.13905 0.06173 0.05691 0.0
C8 C 0.28289 0.07014 0.96192 0.0
C9 C 0.22203 0.09988 0.03048 0.0
O10 O 0.16228 0.09336 0.01677 0.0
O11 O 0.29744 0.09369 0.03587 0.0
O12 O 0.07987 0.06168 0.0376 0.0
O13 O 0.21785 0.06678 0.05155 0.0
O14 O 0.90668 0.19842 0.97893 0.0
Cd15 Cd 0.89604 0.20119 0.01893 0.0
Cd16 Cd 0.06399 0.20677 0.0196 0.0
O17 O 0.02204 0.21346 0.98015 0.0
O18 O 0.78018 0.2118 0.02805 0.0
O19 O 0.91353 0.22225 0.0233 0.0
C20 C 0.82769 0.22347 0.02661 0.0
C21 C 0.09634 0.21808 0.06123 0.0
C22 C 0.95981 0.20696 0.96682 0.0
C23 C 0.02487 0.17821 0.03609 0.0
O24 O 0.08262 0.18543 0.02282 0.0
O25 O 0.94706 0.18362 0.04129 0.0
O26 O 0.15589 0.21784 0.04198 0.0
O27 O 0.01797 0.21273 0.05623 0.0
O28 O 0.32979 0.20248 0.30278 0.0
Cd29 Cd 0.33413 0.20414 0.26249 0.0
Cd30 Cd 0.16608 0.20865 0.26272 0.0
O31 O 0.21015 0.21666 0.30115 0.0
O32 O 0.44823 0.21465 0.25152 0.0
O33 O 0.31514 0.22518 0.25643 0.0
C34 C 0.40075 0.22634 0.25247 0.0
C35 C 0.13297 0.219 0.2202 0.0
C36 C 0.27593 0.21108 0.31444 0.0
C37 C 0.20824 0.17988 0.24838 0.0
O38 O 0.14967 0.18713 0.2613 0.0
O39 O 0.28473 0.18557 0.24243 0.0
O40 O 0.07363 0.21916 0.23949 0.0
O41 O 0.2113 0.21373 0.22552 0.0
O42 O 0.91174 0.07627 0.30214 0.0
Cd43 Cd 0.90035 0.07516 0.262 0.0
Cd44 Cd 0.07105 0.07137 0.25983 0.0
O45 O 0.03183 0.06233 0.2981 0.0
O46 O 0.78889 0.0632 0.25344 0.0
O47 O 0.92868 0.0547 0.25366 0.0
C48 C 0.84342 0.05233 0.25191 0.0
C49 C 0.10481 0.06192 0.21645 0.0
C50 C 0.9672 0.06748 0.31249 0.0
C51 C 0.02031 0.10016 0.24783 0.0
O52 O 0.08157 0.09296 0.25967 0.0
O53 O 0.94392 0.09428 0.2424 0.0
O54 O 0.16463 0.06171 0.23556 0.0
O55 O 0.02599 0.06685 0.22226 0.0
O56 O 0.65469 0.9514 0.05014 0.0
Cd57 Cd 0.63933 0.95157 1.01008 0.0
Cd58 Cd 0.80722 0.95746 1.00484 0.0
O59 O 0.76611 0.96677 0.0431 0.0
O60 O 0.52368 0.96227 1.00014 0.0
O61 O 0.65984 0.97211 1.00048 0.0
C62 C 0.5742 0.97356 0.99769 0.0
C63 C 0.8187 0.96611 0.95954 0.0
C64 C 0.70714 0.96106 0.0589 0.0
C65 C 0.77176 0.92797 0.99617 0.0
O66 O 0.83128 0.93615 1.00645 0.0
O67 O 0.69197 0.9328 0.99144 0.0
O68 O 0.88305 0.96837 0.97676 0.0
O69 O 0.74842 0.95939 0.96805 0.0
O70 O 0.09295 0.82581 0.05405 0.0
Cd71 Cd 0.09974 0.82463 0.01381 0.0
Cd72 Cd 0.93023 0.82057 0.0127 0.0
O73 O 0.97206 0.81196 0.05125 0.0
O74 O 0.20973 0.81272 1.00354 0.0
O75 O 0.0704 0.80411 1.00617 0.0
C76 C 0.15521 0.80185 1.0028 0.0
C77 C 0.89715 0.81151 0.96885 0.0
C78 C 0.03769 0.81723 0.06509 0.0
C79 C 0.97598 0.84929 1.00024 0.0
O80 O 0.91665 0.84203 0.01281 0.0
O81 O 0.05247 0.84357 0.99429 0.0
O82 O 0.83779 0.81082 0.98811 0.0
O83 O 0.97544 0.81659 0.97477 0.0
O84 O 0.67075 0.82742 0.72355 0.0
Cd85 Cd 0.66514 0.82657 0.76381 0.0
Cd86 Cd 0.83456 0.82206 0.76494 0.0
O87 O 0.79113 0.81344 0.72652 0.0
O88 O 0.55467 0.81494 0.77479 0.0
O89 O 0.69326 0.80606 0.7718 0.0
C90 C 0.60849 0.80396 0.77558 0.0
C91 C 0.86634 0.81278 0.80876 0.0
C92 C 0.72553 0.81871 0.71264 0.0
C93 C 0.79196 0.85106 0.77645 0.0
O94 O 0.85116 0.84348 0.76451 0.0
O95 O 0.71466 0.84562 0.7824 0.0
O96 O 0.92528 0.81182 0.78944 0.0
O97 O 0.78929 0.81838 0.80302 0.0
O98 O 0.13397 0.95246 0.72015 0.0
Cd99 Cd 0.12995 0.95387 0.7602 0.0
Cd100 Cd 0.96057 0.95836 0.75909 0.0
O101 O 0.01343 0.96652 0.72096 0.0
O102 O 0.23551 0.96595 0.77396 0.0
O103 O 0.09912 0.97466 0.76572 0.0
C104 C 0.1816 0.97689 0.77243 0.0
C105 C 0.93981 0.96766 0.80374 0.0
C106 C 0.08166 0.96118 0.70826 0.0
C107 C 0.99686 0.9296 0.77208 0.0
O108 O 0.9395 0.93706 0.7591 0.0
O109 O 0.07386 0.93503 0.77845 0.0
O110 O 0.87875 0.96964 0.78535 0.0
O111 O 0.01182 0.96094 0.79679 0.0
O112 O 0.3443 0.5755 0.47222 0.0
Cd113 Cd 0.35486 0.57376 0.51216 0.0
Cd114 Cd 0.18758 0.56841 0.51485 0.0
O115 O 0.22806 0.56069 0.47572 0.0
O116 O 0.47066 0.56317 0.52186 0.0
O117 O 0.33792 0.55255 0.51734 0.0
C118 C 0.42379 0.55143 0.52067 0.0
C119 C 0.17607 0.55832 0.55869 0.0
C120 C 0.29047 0.5666 0.46148 0.0
C121 C 0.22373 0.59744 0.52744 0.0
O122 O 0.16448 0.58971 0.51592 0.0
O123 O 0.3026 0.59226 0.53228 0.0
O124 O 0.1103 0.55699 0.54159 0.0
O125 O 0.24794 0.56476 0.55064 0.0
O126 O 0.90465 0.69971 0.47032 0.0
Cd127 Cd 0.89476 0.70088 0.51033 0.0
Cd128 Cd 0.06389 0.70534 0.51372 0.0
O129 O 0.02499 0.71359 0.47471 0.0
O130 O 0.78355 0.71265 0.52069 0.0
O131 O 0.92139 0.72168 0.51717 0.0
C132 C 0.83658 0.72372 0.52102 0.0
C133 C 0.07521 0.7152 0.55786 0.0
C134 C 0.96122 0.70836 0.4601 0.0
C135 C 0.02311 0.67646 0.52525 0.0
O136 O 0.08443 0.68403 0.51425 0.0
O137 O 0.94445 0.68188 0.52965 0.0
O138 O 0.14033 0.71681 0.54058 0.0
O139 O 0.00449 0.7084 0.55002 0.0
O140 O 0.37447 0.70213 0.79795 0.0
Cd141 Cd 0.37755 0.70295 0.75785 0.0
Cd142 Cd 0.20811 0.70817 0.75751 0.0
O143 O 0.25852 0.71703 0.79493 0.0
O144 O 0.48894 0.71415 0.74574 0.0
O145 O 0.35287 0.72373 0.75051 0.0
C146 C 0.43731 0.72539 0.74562 0.0
C147 C 0.19077 0.71734 0.71295 0.0
C148 C 0.32373 0.71152 0.80858 0.0
C149 C 0.24364 0.67903 0.74622 0.0
O150 O 0.18621 0.68686 0.7584 0.0
O151 O 0.32165 0.68411 0.73993 0.0
O152 O 0.12867 0.71949 0.73098 0.0
O153 O 0.26141 0.71035 0.72017 0.0
O154 O 0.90421 0.57909 0.80171 0.0
Cd155 Cd 0.89294 0.57803 0.76165 0.0
Cd156 Cd 0.0605 0.57179 0.75817 0.0
O157 O 0.01814 0.56389 0.79707 0.0
O158 O 0.77681 0.56775 0.75108 0.0
O159 O 0.90921 0.557 0.75554 0.0
C160 C 0.82361 0.55599 0.75179 0.0
C161 C 0.06898 0.56152 0.71431 0.0
C162 C 0.95672 0.56976 0.81176 0.0
C163 C 0.02874 0.60104 0.74634 0.0
O164 O 0.08741 0.59298 0.75735 0.0
O165 O 0.94863 0.59629 0.74189 0.0
O166 O 0.13406 0.55969 0.73148 0.0
O167 O 0.99988 0.56876 0.72214 0.0
O168 O 0.66295 0.44547 0.54752 0.0
Cd169 Cd 0.64868 0.44759 0.50748 0.0
Cd170 Cd 0.8147 0.45505 0.5042 0.0
O171 O 0.77268 0.46151 0.54392 0.0
O172 O 0.53057 0.458 0.49831 0.0
O173 O 0.66127 0.46896 0.50393 0.0
C174 C 0.57561 0.46987 0.50037 0.0
C175 C 0.82059 0.46666 0.46151 0.0
C176 C 0.71362 0.45486 0.55827 0.0
C177 C 0.79174 0.42626 0.4885 0.0
O178 O 0.84758 0.43418 0.50099 0.0
O179 O 0.71018 0.43055 0.48464 0.0
O180 O 0.88581 0.4682 0.47872 0.0
O181 O 0.75259 0.45899 0.46868 0.0
O182 O 0.12945 0.32645 0.54667 0.0
Cd183 Cd 0.15018 0.32618 0.50626 0.0
Cd184 Cd 0.95643 0.32844 0.50529 0.0
O185 O 0.97883 0.32415 0.54677 0.0
O186 O 0.25491 0.31401 0.4934 0.0
O187 O 0.11522 0.30611 0.49853 0.0
C188 C 0.19904 0.30333 0.4941 0.0
C189 C 0.88331 0.31548 0.47126 0.0
C190 C 0.05513 0.3245 0.55924 0.0
C191 C 0.06739 0.35461 0.47648 0.0
O192 O 0.05908 0.34228 0.48723 0.0
O193 O 0.06238 0.34224 0.48722 0.0
O194 O 0.84468 0.32662 0.48179 0.0
O195 O 0.95562 0.31081 0.48266 0.0
O196 O 0.65706 0.32837 0.22038 0.0
Cd197 Cd 0.63559 0.32908 0.26 0.0
Cd198 Cd 0.79628 0.32014 0.26801 0.0
O199 O 0.75729 0.31137 0.22931 0.0
O200 O 0.5129 0.31991 0.26873 0.0
O201 O 0.64233 0.30813 0.26904 0.0
C202 C 0.55577 0.30779 0.27015 0.0
C203 C 0.78225 0.31382 0.31455 0.0
C204 C 0.70429 0.31778 0.21265 0.0
C205 C 0.7871 0.35006 0.27397 0.0
O206 O 0.84028 0.34041 0.26518 0.0
O207 O 0.70292 0.34718 0.27774 0.0
O208 O 0.84809 0.30876 0.30009 0.0
O209 O 0.72317 0.32157 0.30245 0.0
O210 O 0.07474 0.45254 0.21869 0.0
Cd211 Cd 0.07985 0.45309 0.2589 0.0
Cd212 Cd 0.9168 0.46206 0.26079 0.0
O213 O 0.96914 0.46929 0.22232 0.0
O214 O 0.19745 0.46242 0.27188 0.0
O215 O 0.0706 0.47429 0.26481 0.0
C216 C 0.15519 0.47458 0.27033 0.0
C217 C 0.91325 0.4713 0.30565 0.0
C218 C 0.02908 0.46263 0.20824 0.0
C219 C 0.92419 0.43253 0.2715 0.0
O220 O 0.87372 0.44171 0.26002 0.0
O221 O 0.00681 0.43567 0.27701 0.0
O222 O 0.85164 0.47491 0.28833 0.0
O223 O 0.9765 0.46291 0.29753 0.0
O224 O 0.83908 0.07434 0.47257 0.0
Cd225 Cd 0.8504 0.07312 0.5127 0.0
Cd226 Cd 0.68215 0.06819 0.51439 0.0
O227 O 0.72382 0.0594 0.47616 0.0
O228 O 0.96444 0.06175 0.52102 0.0
O229 O 0.82664 0.05246 0.52078 0.0
C230 C 0.91241 0.05058 0.52238 0.0
C231 C 0.65129 0.0596 0.55857 0.0
C232 C 0.78671 0.06519 0.46194 0.0
C233 C 0.72307 0.09717 0.52625 0.0
O234 O 0.66563 0.08959 0.51362 0.0
O235 O 0.80046 0.09184 0.53241 0.0
O236 O 0.59138 0.05853 0.53957 0.0
O237 O 0.72924 0.06465 0.55213 0.0
O238 O 0.39448 0.19766 0.47254 0.0
Cd239 Cd 0.37013 0.19808 0.51211 0.0
Cd240 Cd 0.53564 0.20425 0.51989 0.0
O241 O 0.5029 0.21337 0.48093 0.0
O242 O 0.25241 0.20906 0.51861 0.0
O243 O 0.38828 0.21886 0.52048 0.0
C244 C 0.30214 0.2205 0.51998 0.0
C245 C 0.5312 0.21136 0.56614 0.0
C246 C 0.44709 0.20749 0.46441 0.0
C247 C 0.50329 0.17476 0.52762 0.0
O248 O 0.56307 0.18314 0.51805 0.0
O249 O 0.42217 0.17932 0.53141 0.0
O250 O 0.59968 0.2147 0.55103 0.0
O251 O 0.46426 0.20505 0.55472 0.0
O252 O 0.89637 0.2007 0.79929 0.0
Cd253 Cd 0.91666 0.20063 0.75879 0.0
Cd254 Cd 0.7223 0.19973 0.75755 0.0
O255 O 0.74679 0.20445 0.79892 0.0
O256 O 0.01906 0.21301 0.74485 0.0
O257 O 0.87961 0.22064 0.75151 0.0
C258 C 0.96247 0.22357 0.7461 0.0
C259 C 0.64862 0.21194 0.72256 0.0
C260 C 0.82262 0.20353 0.81161 0.0
C261 C 0.82265 0.17286 0.72878 0.0
O262 O 0.82148 0.18516 0.73989 0.0
O263 O 0.82481 0.18517 0.7399 0.0
O264 O 0.60957 0.20119 0.73433 0.0
O265 O 0.72158 0.21681 0.73331 0.0
O266 O 0.4061 0.08199 0.79841 0.0
Cd267 Cd 0.40516 0.07958 0.75796 0.0
Cd268 Cd 0.57559 0.07671 0.76005 0.0
O269 O 0.52973 0.06867 0.79821 0.0
O270 O 0.30051 0.06665 0.74665 0.0
O271 O 0.43997 0.05892 0.75353 0.0
C272 C 0.35712 0.05607 0.7482 0.0
C273 C 0.61469 0.06624 0.71773 0.0
C274 C 0.46141 0.07393 0.81083 0.0
C275 C 0.52767 0.1042 0.74264 0.0
O276 O 0.58345 0.09827 0.75858 0.0
O277 O 0.45627 0.09744 0.73523 0.0
O278 O 0.67237 0.06654 0.73741 0.0
O279 O 0.53549 0.07134 0.7223 0.0
O280 O 0.15374 0.9501 0.53928 0.0
Cd281 Cd 0.16626 0.9517 0.49933 0.0
Cd282 Cd 0.32846 0.95952 0.50454 0.0
O283 O 0.26066 0.9666 0.54131 0.0
O284 O 0.05542 0.96196 0.4839 0.0
O285 O 0.18347 0.97289 0.49428 0.0
C286 C 0.10119 0.97374 0.48643 0.0
C287 C 0.36049 0.96952 0.46102 0.0
C288 C 0.19444 0.95982 0.55239 0.0
C289 C 0.3186 0.93015 0.49151 0.0
O290 O 0.36532 0.93878 0.50561 0.0
O291 O 0.24032 0.93398 0.48281 0.0
O292 O 0.41206 0.9722 0.48157 0.0
O293 O 0.29051 0.96167 0.46516 0.0
O294 O 0.58442 0.82587 0.55153 0.0
Cd295 Cd 0.58138 0.82451 0.51122 0.0
Cd296 Cd 0.41434 0.81845 0.51261 0.0
O297 O 0.46691 0.8112 0.55106 0.0
O298 O 0.69043 0.81322 0.49725 0.0
O299 O 0.55702 0.80352 0.50582 0.0
C300 C 0.63985 0.8019 0.49886 0.0
C301 C 0.3868 0.80843 0.4691 0.0
C302 C 0.53328 0.81706 0.56371 0.0
C303 C 0.43883 0.84732 0.49859 0.0
O304 O 0.38539 0.83943 0.5121 0.0
O305 O 0.51799 0.84268 0.49229 0.0
O306 O 0.32959 0.80663 0.48868 0.0
O307 O 0.45998 0.81529 0.47437 0.0
O308 O 0.17724 0.82623 0.22546 0.0
Cd309 Cd 0.17496 0.82534 0.26581 0.0
Cd310 Cd 0.3419 0.81853 0.26601 0.0
O311 O 0.29126 0.8109 0.22761 0.0
O312 O 0.06184 0.81469 0.27842 0.0
O313 O 0.19542 0.80445 0.27264 0.0
C314 C 0.11112 0.80319 0.2781 0.0
C315 C 0.36827 0.80859 0.30964 0.0
C316 C 0.22724 0.81694 0.21417 0.0
C317 C 0.31805 0.84776 0.27869 0.0
O318 O 0.37187 0.83951 0.26609 0.0
O319 O 0.23784 0.84347 0.28459 0.0
O320 O 0.42592 0.80674 0.2902 0.0
O321 O 0.29535 0.8155 0.30417 0.0
O322 O 0.62197 0.94836 0.22959 0.0
Cd323 Cd 0.59972 0.95157 0.26872 0.0
Cd324 Cd 0.4396 0.95894 0.25943 0.0
O325 O 0.51529 0.96452 0.22283 0.0
O326 O 0.7029 0.96283 0.28647 0.0
O327 O 0.57987 0.97298 0.2698 0.0
C328 C 0.65759 0.97435 0.28084 0.0
C329 C 0.40457 0.96964 0.30229 0.0
C330 C 0.58373 0.95731 0.21405 0.0
C331 C 0.44478 0.93023 0.2761 0.0
O332 O 0.40136 0.93831 0.25999 0.0
O333 O 0.52123 0.93438 0.28569 0.0
O334 O 0.35526 0.97224 0.28121 0.0
O335 O 0.47404 0.96159 0.29902 0.0
O336 O 0.82244 0.57666 0.97109 0.0
Cd337 Cd 0.82704 0.57584 1.01117 0.0
Cd338 Cd 0.66083 0.56848 0.01327 0.0
O339 O 0.7093 0.5612 0.9744 0.0
O340 O 0.94155 0.56567 0.0241 0.0
O341 O 0.81062 0.55474 0.0175 0.0
C342 C 0.89464 0.55393 0.02357 0.0
C343 C 0.65566 0.55871 0.05764 0.0
C344 C 0.77169 0.5673 0.96039 0.0
C345 C 0.67945 0.59779 0.02478 0.0
O346 O 0.62471 0.58918 0.01351 0.0
O347 O 0.76131 0.5939 0.02956 0.0
O348 O 0.59307 0.55568 0.04027 0.0
O349 O 0.72027 0.56692 0.0499 0.0
O350 O 0.38549 0.70046 0.97628 0.0
Cd351 Cd 0.39794 0.70167 0.01606 0.0
Cd352 Cd 0.56175 0.70999 0.01197 0.0
O353 O 0.49382 0.71681 0.97514 0.0
O354 O 0.28867 0.71173 0.03314 0.0
O355 O 0.41382 0.72296 0.02085 0.0
C356 C 0.33323 0.72359 0.0302 0.0
C357 C 0.57467 0.71949 0.0567 0.0
C358 C 0.4275 0.71025 0.96372 0.0
C359 C 0.55592 0.68062 0.02395 0.0
O360 O 0.60368 0.68955 1.01077 0.0
O361 O 0.47574 0.68406 0.03173 0.0
O362 O 0.63036 0.72347 0.03793 0.0
O363 O 0.5131 0.71046 0.05027 0.0
O364 O 0.85161 0.70116 0.29852 0.0
Cd365 Cd 0.86154 0.70278 0.2586 0.0
Cd366 Cd 0.69307 0.70775 0.25549 0.0
O367 O 0.73304 0.71548 0.2948 0.0
O368 O 0.97393 0.71433 0.24881 0.0
O369 O 0.83682 0.72368 0.2525 0.0
C370 C 0.92184 0.72552 0.2488 0.0
C371 C 0.68166 0.71815 0.21176 0.0
C372 C 0.79625 0.70987 0.30915 0.0
C373 C 0.7318 0.67882 0.24323 0.0
O374 O 0.67119 0.68648 0.25435 0.0
O375 O 0.81079 0.68407 0.23878 0.0
O376 O 0.61683 0.71963 0.22918 0.0
O377 O 0.75204 0.71111 0.21918 0.0
O378 O 0.41275 0.57877 0.30196 0.0
Cd379 Cd 0.3955 0.57724 0.26215 0.0
Cd380 Cd 0.56182 0.57094 0.25726 0.0
O381 O 0.52362 0.56311 0.29649 0.0
O382 O 0.27578 0.5675 0.25407 0.0
O383 O 0.40665 0.55607 0.25634 0.0
C384 C 0.32017 0.55549 0.25431 0.0
C385 C 0.56684 0.56024 0.21383 0.0
C386 C 0.46477 0.56927 0.31166 0.0
C387 C 0.52754 0.60015 0.24467 0.0
O388 O 0.58728 0.59224 0.25556 0.0
O389 O 0.44736 0.59528 0.24094 0.0
O390 O 0.6342 0.55885 0.23034 0.0
O391 O 0.49748 0.56727 0.22212 0.0
O392 O 0.1681 0.45307 0.05091 0.0
Cd393 Cd 0.15739 0.45401 1.01095 0.0
Cd394 Cd 0.3264 0.45881 1.00734 0.0
O395 O 0.28631 0.46737 0.04608 0.0
O396 O 0.04405 0.46517 1.00085 0.0
O397 O 0.18069 0.4748 1.00333 0.0
C398 C 0.09537 0.47643 0.99986 0.0
C399 C 0.3366 0.46841 0.9629 0.0
C400 C 0.22324 0.46201 0.06085 0.0
C401 C 0.28582 0.42974 0.99661 0.0
O402 O 0.3468 0.43745 1.00738 0.0
O403 O 0.20714 0.43504 0.99196 0.0
O404 O 0.40209 0.47017 0.97994 0.0
O405 O 0.2665 0.46155 0.97109 0.0
O406 O 0.59115 0.32778 0.05398 0.0
Cd407 Cd 0.61058 0.32691 0.01407 0.0
Cd408 Cd 0.44224 0.32127 1.00911 0.0
O409 O 0.47825 0.31259 0.04775 0.0
O410 O 0.72965 0.31686 1.00623 0.0
O411 O 0.59658 0.30604 1.0066 0.0
C412 C 0.68314 0.30508 1.0054 0.0
C413 C 0.429 0.31131 0.9653 0.0
C414 C 0.5377 0.31834 0.06321 0.0
C415 C 0.48295 0.35051 0.99772 0.0
O416 O 0.42231 0.34274 1.00856 0.0
O417 O 0.56219 0.34535 0.99353 0.0
O418 O 0.36283 0.31034 0.98238 0.0
O419 O 0.5021 0.31738 0.97337 0.0
O420 O 0.13939 0.33267 0.72586 0.0
Cd421 Cd 0.12473 0.32956 0.76547 0.0
Cd422 Cd 0.29328 0.32366 0.76811 0.0
O423 O 0.25351 0.31737 0.7281 0.0
O424 O 0.01114 0.31774 0.77338 0.0
O425 O 0.14755 0.30851 0.76809 0.0
C426 C 0.06227 0.30651 0.77084 0.0
C427 C 0.30686 0.31233 0.81075 0.0
C428 C 0.19289 0.32398 0.71427 0.0
C429 C 0.25746 0.35223 0.78369 0.0
O430 O 0.31623 0.34475 0.77136 0.0
O431 O 0.17801 0.34713 0.78795 0.0
O432 O 0.3717 0.31148 0.79317 0.0
O433 O 0.23447 0.31899 0.80378 0.0
O434 O 0.59774 0.4492 0.72055 0.0
Cd435 Cd 0.61028 0.4517 0.76033 0.0
Cd436 Cd 0.44355 0.45796 0.76369 0.0
O437 O 0.48271 0.46434 0.72351 0.0
O438 O 0.72596 0.46236 0.76985 0.0
O439 O 0.59373 0.47294 0.76375 0.0
C440 C 0.67915 0.47408 0.76779 0.0
C441 C 0.43697 0.46898 0.80688 0.0
C442 C 0.54357 0.45793 0.70939 0.0
C443 C 0.47489 0.42932 0.77899 0.0
O444 O 0.4163 0.43693 0.76688 0.0
O445 O 0.55514 0.4342 0.78263 0.0
O446 O 0.3707 0.47041 0.78997 0.0
O447 O 0.50679 0.46195 0.79897 0.0
H448 H 0.25669 0.05702 0.09804 0.0
H449 H 0.97144 0.05794 0.07966 0.0
H450 H 0.93589 0.05637 0.12792 0.0
H451 H 0.9862 0.05786 0.17524 0.0
H452 H 0.27159 0.0576 0.19356 0.0
H453 H 0.30674 0.05563 0.14535 0.0
C454 C 0.18661 0.05663 0.10453 0.0
C455 C 0.11672 0.05777 0.08523 0.0
C456 C 0.16681 0.05599 0.13231 0.0
C457 C 0.02646 0.05709 0.09401 0.0
C458 C 0.00616 0.0563 0.12165 0.0
C459 C 0.05618 0.05715 0.16875 0.0
C460 C 0.1263 0.05806 0.18802 0.0
C461 C 0.07582 0.05623 0.14098 0.0
C462 C 0.21639 0.05695 0.17923 0.0
C463 C 0.23649 0.05591 0.15163 0.0
H464 H 0.25066 0.22347 0.17885 0.0
H465 H 0.96565 0.22334 0.19784 0.0
H466 H 0.92943 0.22504 0.1497 0.0
H467 H 0.97871 0.22317 0.10232 0.0
H468 H 0.26371 0.22266 0.08334 0.0
H469 H 0.29997 0.22484 0.13141 0.0
C470 C 0.18053 0.22407 0.17252 0.0
C471 C 0.11086 0.22308 0.19195 0.0
C472 C 0.16029 0.22481 0.14478 0.0
C473 C 0.02053 0.22405 0.18338 0.0
C474 C 0.99981 0.22493 0.15581 0.0
C475 C 0.04885 0.22381 0.10863 0.0
C476 C 0.11849 0.22256 0.08924 0.0
C477 C 0.06911 0.2248 0.13633 0.0
C478 C 0.20885 0.22357 0.09777 0.0
C479 C 0.22959 0.22471 0.1253 0.0
H480 H 0.78281 0.97013 0.83284 0.0
H481 H 0.07256 0.97397 0.83943 0.0
H482 H 0.06081 0.97562 0.8885 0.0
H483 H 0.97014 0.97273 0.93001 0.0
H484 H 0.68081 0.96792 0.92346 0.0
H485 H 0.69033 0.97005 0.87444 0.0
C486 C 0.84296 0.97172 0.845 0.0
C487 C 0.92835 0.97183 0.83249 0.0
C488 C 0.83602 0.97227 0.87345 0.0
C489 C 0.00592 0.97374 0.84858 0.0
C490 C 0.99938 0.97464 0.87671 0.0
C491 C 0.90909 0.97246 0.91789 0.0
C492 C 0.82516 0.96999 0.93045 0.0
C493 C 0.91509 0.9734 0.88947 0.0
C494 C 0.74663 0.96963 0.91435 0.0
C495 C 0.75188 0.97084 0.88623 0.0
H496 H 0.74682 0.80892 0.84992 0.0
H497 H 0.03244 0.80832 0.83189 0.0
H498 H 0.06665 0.80627 0.88014 0.0
H499 H 0.01574 0.80747 0.92752 0.0
H500 H 0.73015 0.80829 0.94557 0.0
H501 H 0.69557 0.80723 0.89723 0.0
C502 C 0.81662 0.80813 0.8565 0.0
C503 C 0.8871 0.80894 0.83727 0.0
C504 C 0.83572 0.80709 0.8843 0.0
C505 C 0.97697 0.80773 0.84617 0.0
C506 C 0.99653 0.80665 0.87381 0.0
C507 C 0.94581 0.80719 0.92092 0.0
C508 C 0.87555 0.80812 0.9402 0.0
C509 C 0.92653 0.80674 0.89308 0.0
C510 C 0.78547 0.80758 0.93126 0.0
C511 C 0.76572 0.80708 0.90357 0.0
H512 H 0.02296 0.5548 0.58892 0.0
H513 H 0.31405 0.55295 0.59335 0.0
H514 H 0.30688 0.55165 0.64253 0.0
H515 H 0.21905 0.55476 0.6845 0.0
H516 H 0.92828 0.55772 0.67993 0.0
H517 H 0.9341 0.55466 0.63105 0.0
C518 C 0.08456 0.5537 0.60063 0.0
C519 C 0.16879 0.55412 0.5875 0.0
C520 C 0.08016 0.55337 0.62908 0.0
C521 C 0.2482 0.55279 0.60299 0.0
C522 C 0.24428 0.5521 0.63117 0.0
C523 C 0.15698 0.55437 0.67286 0.0
C524 C 0.07361 0.55666 0.68582 0.0
C525 C 0.16082 0.55296 0.64451 0.0
C526 C 0.99362 0.55617 0.67042 0.0
C527 C 0.99677 0.55444 0.64239 0.0
H528 H 0.22698 0.7215 0.58707 0.0
H529 H 0.9363 0.71899 0.59306 0.0
H530 H 0.94472 0.72167 0.64198 0.0
H531 H 0.03582 0.72114 0.68369 0.0
H532 H 0.32668 0.72266 0.67767 0.0
H533 H 0.31701 0.72423 0.62858 0.0
C534 C 0.1655 0.7219 0.59903 0.0
C535 C 0.08141 0.71983 0.58645 0.0
C536 C 0.17081 0.72312 0.62737 0.0
C537 C 0.0022 0.72035 0.60227 0.0
C538 C 0.00682 0.72187 0.63032 0.0
C539 C 0.09678 0.72222 0.67164 0.0
C540 C 0.1817 0.72161 0.68427 0.0
C541 C 0.09092 0.72273 0.64322 0.0
C542 C 0.26034 0.72293 0.66838 0.0
C543 C 0.25499 0.72379 0.64026 0.0
H544 H 0.765 0.4763 0.33724 0.0
H545 H 0.05635 0.47474 0.33908 0.0
H546 H 0.05465 0.47551 0.38837 0.0
H547 H 0.96984 0.4727 0.43095 0.0
H548 H 0.67826 0.47271 0.42895 0.0
H549 H 0.68045 0.47668 0.38022 0.0
C550 C 0.82798 0.47658 0.34845 0.0
C551 C 0.91052 0.47537 0.33456 0.0
C552 C 0.82648 0.47652 0.37695 0.0
C553 C 0.99177 0.47556 0.34936 0.0
C554 C 0.99093 0.47594 0.37758 0.0
C555 C 0.90697 0.47398 0.41993 0.0
C556 C 0.82416 0.47228 0.4335 0.0
C557 C 0.90862 0.47583 0.39165 0.0
C558 C 0.74307 0.47384 0.41891 0.0
C559 C 0.74416 0.47608 0.39099 0.0
H560 H 0.89296 0.2984 0.34868 0.0
H561 H 0.65859 0.32607 0.34786 0.0
H562 H 0.66096 0.32751 0.39681 0.0
H563 H 0.74102 0.32363 0.43958 0.0
H564 H 0.9725 0.29543 0.44117 0.0
H565 H 0.95818 0.29129 0.39276 0.0
C566 C 0.84153 0.30452 0.35925 0.0
C567 C 0.77696 0.31231 0.34443 0.0
C568 C 0.8427 0.30531 0.38775 0.0
C569 C 0.71006 0.32007 0.35857 0.0
C570 C 0.71119 0.32094 0.3867 0.0
C571 C 0.78684 0.31627 0.4295 0.0
C572 C 0.85837 0.31005 0.44403 0.0
C573 C 0.77887 0.31399 0.40147 0.0
C574 C 0.91686 0.30047 0.43056 0.0
C575 C 0.90929 0.29816 0.40272 0.0
H576 H 0.77009 0.05786 0.60035 0.0
H577 H 0.48512 0.05551 0.58198 0.0
H578 H 0.44962 0.05573 0.6303 0.0
H579 H 0.49869 0.05956 0.67723 0.0
H580 H 0.78335 0.06247 0.69561 0.0
H581 H 0.81993 0.05888 0.64778 0.0
C582 C 0.70017 0.05715 0.60689 0.0
C583 C 0.63021 0.05683 0.58749 0.0
C584 C 0.68028 0.05752 0.6347 0.0
C585 C 0.54022 0.05577 0.59639 0.0
C586 C 0.51989 0.056 0.62405 0.0
C587 C 0.5689 0.05921 0.67086 0.0
C588 C 0.63828 0.06146 0.68996 0.0
C589 C 0.58923 0.05733 0.64331 0.0
C590 C 0.72875 0.06078 0.68139 0.0
C591 C 0.74959 0.05881 0.65399 0.0
H592 H 0.65034 0.22632 0.59839 0.0
H593 H 0.4107 0.19991 0.60142 0.0
H594 H 0.41864 0.19913 0.65041 0.0
H595 H 0.50324 0.2035 0.6923 0.0
H596 H 0.73935 0.23066 0.68998 0.0
H597 H 0.72175 0.23379 0.6414 0.0
C598 C 0.59915 0.2206 0.60981 0.0
C599 C 0.53098 0.21303 0.59605 0.0
C600 C 0.60336 0.22025 0.63833 0.0
C601 C 0.46454 0.20579 0.61129 0.0
C602 C 0.46893 0.20528 0.63945 0.0
C603 C 0.54949 0.2104 0.68131 0.0
C604 C 0.62301 0.21666 0.69488 0.0
C605 C 0.53938 0.21214 0.65318 0.0
C606 C 0.68209 0.22563 0.68019 0.0
C607 C 0.67261 0.22735 0.65224 0.0
H608 H 0.24377 0.97365 0.41939 0.0
H609 H 0.52749 0.97495 0.43944 0.0
H610 H 0.56582 0.97702 0.39141 0.0
H611 H 0.51919 0.97499 0.34371 0.0
H612 H 0.23562 0.974 0.32354 0.0
H613 H 0.19644 0.97555 0.37162 0.0
C614 C 0.31396 0.97468 0.41327 0.0
C615 C 0.38288 0.97396 0.43296 0.0
C616 C 0.33537 0.97582 0.3856 0.0
C617 C 0.4733 0.97548 0.42476 0.0
C618 C 0.4952 0.97656 0.39726 0.0
C619 C 0.44873 0.97546 0.34981 0.0
C620 C 0.38028 0.97425 0.33009 0.0
C621 C 0.42694 0.97624 0.37748 0.0
C622 C 0.28944 0.97498 0.33826 0.0
C623 C 0.26712 0.97572 0.36579 0.0
H624 H 0.50869 0.80369 0.42907 0.0
H625 H 0.22192 0.8042 0.44523 0.0
H626 H 0.19086 0.80256 0.3967 0.0
H627 H 0.24561 0.8043 0.3497 0.0
H628 H 0.53243 0.80379 0.33357 0.0
H629 H 0.56318 0.8019 0.38207 0.0
C630 C 0.43932 0.80317 0.422 0.0
C631 C 0.36759 0.80424 0.44073 0.0
C632 C 0.42213 0.80236 0.39406 0.0
C633 C 0.27824 0.80337 0.43129 0.0
C634 C 0.26053 0.80255 0.40351 0.0
C635 C 0.31489 0.80351 0.35677 0.0
C636 C 0.38678 0.80437 0.33805 0.0
C637 C 0.33194 0.80254 0.3847 0.0
C638 C 0.47598 0.80315 0.3475 0.0
C639 C 0.49354 0.80218 0.37527 0.0
H640 H 0.5077 0.55332 0.08912 0.0
H641 H 0.79921 0.5543 0.09047 0.0
H642 H 0.79857 0.5525 0.13964 0.0
H643 H 0.71496 0.55463 0.18252 0.0
H644 H 0.42329 0.55505 0.18117 0.0
H645 H 0.42412 0.55211 0.13221 0.0
C646 C 0.5709 0.5527 0.10017 0.0
C647 C 0.6532 0.55407 0.08623 0.0
C648 C 0.57007 0.55214 0.12864 0.0
C649 C 0.7348 0.55339 0.10081 0.0
C650 C 0.73458 0.55242 0.12897 0.0
C651 C 0.65174 0.55368 0.17156 0.0
C652 C 0.56937 0.55523 0.18543 0.0
C653 C 0.6526 0.55239 0.14319 0.0
C654 C 0.48782 0.55405 0.17092 0.0
C655 C 0.48811 0.5524 0.14286 0.0
H656 H 0.52964 0.72332 0.18207 0.0
H657 H 0.82091 0.72382 0.17762 0.0
H658 H 0.81427 0.72688 0.12869 0.0
H659 H 0.72589 0.72549 0.08642 0.0
H660 H 0.43506 0.72323 0.09112 0.0
H661 H 0.44108 0.72512 0.14018 0.0
C662 C 0.59146 0.7245 0.17045 0.0
C663 C 0.67545 0.72317 0.18341 0.0
C664 C 0.58727 0.72582 0.14211 0.0
C665 C 0.75519 0.72463 0.16805 0.0
C666 C 0.75156 0.72635 0.14002 0.0
C667 C 0.66399 0.72588 0.09819 0.0
C668 C 0.58031 0.72421 0.08518 0.0
C669 C 0.66804 0.72638 0.12666 0.0
C670 C 0.50045 0.7245 0.1007 0.0
C671 C 0.50377 0.72549 0.12882 0.0
H672 H 0.28638 0.47401 0.83752 0.0
H673 H 0.57789 0.47399 0.84066 0.0
H674 H 0.5735 0.47594 0.88978 0.0
H675 H 0.48701 0.47386 0.93226 0.0
H676 H 0.19553 0.47288 0.929 0.0
H677 H 0.19974 0.47532 0.87998 0.0
C678 C 0.34879 0.47486 0.84892 0.0
C679 C 0.43217 0.4737 0.83546 0.0
C680 C 0.34589 0.47558 0.87736 0.0
C681 C 0.51262 0.47471 0.85056 0.0
C682 C 0.51028 0.47577 0.87871 0.0
C683 C 0.42455 0.47455 0.92085 0.0
C684 C 0.34129 0.47298 0.93423 0.0
C685 C 0.42735 0.47563 0.89244 0.0
C686 C 0.26075 0.47386 0.91915 0.0
C687 C 0.26297 0.47524 0.89105 0.0
H688 H 0.46202 0.30726 0.83915 0.0
H689 H 0.1712 0.30676 0.84622 0.0
H690 H 0.1828 0.30425 0.89513 0.0
H691 H 0.27507 0.30598 0.9364 0.0
H692 H 0.56583 0.30742 0.92935 0.0
H693 H 0.55475 0.30556 0.88035 0.0
C694 C 0.40135 0.3062 0.85134 0.0
C695 C 0.31603 0.30738 0.83908 0.0
C696 C 0.40838 0.30513 0.87967 0.0
C697 C 0.23789 0.30604 0.85519 0.0
C698 C 0.24435 0.30466 0.88322 0.0
C699 C 0.33596 0.30552 0.92418 0.0
C700 C 0.42094 0.30705 0.93653 0.0
C701 C 0.32917 0.30477 0.89581 0.0
C702 C 0.49932 0.30645 0.92035 0.0
C703 C 0.49317 0.30541 0.89226 0.0
H704 H 0.5308 0.04031 0.99544 0.0
H705 H 0.32065 0.03046 0.05285 0.0
H706 H 0.34898 1.00475 0.04715 0.0
H707 H 0.43382 0.98503 0.02548 0.0
H708 H 0.64155 0.99504 0.9673 0.0
H709 H 0.61183 0.02066 0.97273 0.0
C710 C 0.49308 0.0325 1.00717 0.0
C711 C 0.42585 0.03717 0.02514 0.0
C712 C 0.50703 0.01777 1.00286 0.0
C713 C 0.37444 0.02702 0.03943 0.0
C714 C 0.38966 1.01235 0.03587 0.0
C715 C 0.47027 0.99284 0.0134 0.0
C716 C 0.53834 0.98822 0.99562 0.0
C717 C 0.45491 1.00758 0.01733 0.0
C718 C 0.58759 0.99841 0.98073 0.0
C719 C 0.57165 1.01305 0.98414 0.0
H720 H 0.59732 0.27977 0.01246 0.0
H721 H 0.86359 0.29809 1.00252 0.0
H722 H 0.93137 0.27442 1.00985 0.0
H723 H 0.91446 0.24878 0.01966 0.0
H724 H 0.64794 0.23059 0.02997 0.0
H725 H 0.58045 0.25425 0.0226 0.0
C726 C 0.67029 0.27862 0.01159 0.0
C727 C 0.72543 0.2907 1.0067 0.0
C728 C 0.70851 0.26511 0.01641 0.0
C729 C 0.8197 0.28897 1.00599 0.0
C730 C 0.85837 0.27547 1.01039 0.0
C731 C 0.84152 0.24997 0.02057 0.0
C732 C 0.7862 0.23791 0.02549 0.0
C733 C 0.80337 0.26351 0.01586 0.0
C734 C 0.69199 0.23968 0.02643 0.0
C735 C 0.65344 0.25318 0.022 0.0
H736 H 0.3158 0.25203 0.25843 0.0
H737 H 0.58024 0.23308 0.24783 0.0
H738 H 0.65016 0.2566 0.25404 0.0
H739 H 0.63664 0.28212 0.26354 0.0
H740 H 0.3734 0.30155 0.27332 0.0
H741 H 0.30217 0.27799 0.26702 0.0
C742 C 0.38876 0.25304 0.25716 0.0
C743 C 0.4428 0.24077 0.25256 0.0
C744 C 0.42852 0.26656 0.26115 0.0
C745 C 0.5371 0.24231 0.25115 0.0
C746 C 0.57709 0.25574 0.25492 0.0
C747 C 0.56354 0.28127 0.26458 0.0
C748 C 0.51036 0.29361 0.26923 0.0
C749 C 0.5235 0.26786 0.26027 0.0
C750 C 0.41587 0.29223 0.27009 0.0
C751 C 0.37527 0.27879 0.26627 0.0
H752 H 0.80364 0.98518 0.2556 0.0
H753 H 0.58434 0.99626 0.30896 0.0
H754 H 0.61633 0.02182 0.30266 0.0
H755 H 0.70297 0.04108 0.28018 0.0
H756 H 0.92061 0.02988 0.22612 0.0
H757 H 0.89146 1.00438 0.23363 0.0
C758 C 0.76527 0.99322 0.26656 0.0
C759 C 0.69401 0.98893 0.28347 0.0
C760 C 0.7814 1.00788 0.2618 0.0
C761 C 0.64155 0.99939 0.29658 0.0
C762 C 0.65872 1.01398 0.29256 0.0
C763 C 0.7423 0.03302 0.26956 0.0
C764 C 0.81234 0.03731 0.25213 0.0
C765 C 0.72709 0.01837 0.2747 0.0
C766 C 0.86511 0.02679 0.23922 0.0
C767 C 0.84934 1.01223 0.2438 0.0
H768 H 0.19497 0.73477 1.00197 0.0
H769 H 0.39289 0.74467 0.06291 0.0
H770 H 0.36228 0.7703 0.05775 0.0
H771 H 0.28485 0.79001 0.03395 0.0
H772 H 0.08741 0.78017 0.97276 0.0
H773 H 0.11428 0.75447 0.97905 0.0
C774 C 0.22849 0.74255 0.01482 0.0
C775 C 0.29345 0.73789 0.03352 0.0
C776 C 0.21369 0.7573 1.01074 0.0
C777 C 0.3401 0.74805 0.04914 0.0
C778 C 0.32405 0.7627 0.04576 0.0
C779 C 0.24975 0.78221 0.02153 0.0
C780 C 0.18656 0.78689 1.00232 0.0
C781 C 0.26283 0.76747 0.02609 0.0
C782 C 0.13829 0.77673 0.98713 0.0
C783 C 0.15252 0.76207 0.99104 0.0
H784 H 0.47569 0.79227 0.74546 0.0
H785 H 0.67744 0.78225 0.8053 0.0
H786 H 0.65121 0.75656 0.79866 0.0
H787 H 0.57222 0.73691 0.77513 0.0
H788 H 0.3709 0.74696 0.71519 0.0
H789 H 0.39782 0.77263 0.72164 0.0
C790 C 0.51172 0.78443 0.75757 0.0
C791 C 0.5763 0.78906 0.77641 0.0
C792 C 0.49903 0.7697 0.75278 0.0
C793 C 0.62562 0.77885 0.7912 0.0
C794 C 0.61175 0.7642 0.78709 0.0
C795 C 0.53669 0.74475 0.76289 0.0
C796 C 0.4718 0.74014 0.74414 0.0
C797 C 0.54985 0.75949 0.76756 0.0
C798 C 0.42303 0.75035 0.7292 0.0
C799 C 0.43722 0.765 0.73323 0.0
H800 H 0.3311 0.98876 0.7501 0.0
H801 H 0.09422 0.99857 0.79742 0.0
H802 H 0.12163 0.02425 0.79171 0.0
H803 H 0.2105 0.044 0.77188 0.0
H804 H 0.44768 0.03421 0.72467 0.0
H805 H 0.42137 1.00852 0.73086 0.0
C806 C 0.28734 0.99656 0.75981 0.0
C807 C 0.21207 0.99185 0.77465 0.0
C808 C 0.30167 1.01131 0.75558 0.0
C809 C 0.15368 1.00201 0.78634 0.0
C810 C 0.16852 0.01668 0.78275 0.0
C811 C 0.25487 0.0362 0.76242 0.0
C812 C 0.32955 0.04091 0.74733 0.0
C813 C 0.24118 0.02146 0.76692 0.0
C814 C 0.38868 0.03076 0.73595 0.0
C815 C 0.37439 0.01609 0.73978 0.0
H816 H 0.65863 0.49529 0.50928 0.0
H817 H 0.3952 0.47672 0.49536 0.0
H818 H 0.32524 0.50031 0.50201 0.0
H819 H 0.33939 0.526 0.5122 0.0
H820 H 0.60321 0.54443 0.52617 0.0
H821 H 0.67271 0.52084 0.51969 0.0
C822 C 0.58582 0.49635 0.50747 0.0
C823 C 0.53218 0.48421 0.50163 0.0
C824 C 0.54627 0.50984 0.51178 0.0
C825 C 0.43806 0.48586 0.49959 0.0
C826 C 0.39811 0.49933 0.50359 0.0
C827 C 0.41213 0.52488 0.51412 0.0
C828 C 0.46608 0.537 0.51985 0.0
C829 C 0.45158 0.51135 0.5099 0.0
C830 C 0.56012 0.5353 0.522 0.0
C831 C 0.59986 0.52183 0.5181 0.0
H832 H 0.78979 0.79076 0.5221 0.0
H833 H 0.56106 0.77994 0.47229 0.0
H834 H 0.59558 0.75439 0.47698 0.0
H835 H 0.68867 0.73501 0.49651 0.0
H836 H 0.91654 0.74588 0.54671 0.0
H837 H 0.88317 0.77142 0.54146 0.0
C838 C 0.7494 0.78279 0.51166 0.0
C839 C 0.67454 0.78716 0.49632 0.0
C840 C 0.76754 0.7681 0.51537 0.0
C841 C 0.62031 0.77676 0.48371 0.0
C842 C 0.63918 0.76216 0.48672 0.0
C843 C 0.72936 0.74299 0.50682 0.0
C844 C 0.80366 0.73862 0.52243 0.0
C845 C 0.71153 0.75768 0.50297 0.0
C846 C 0.85796 0.74904 0.53497 0.0
C847 C 0.83967 0.76364 0.53169 0.0
H848 H 0.90959 0.53064 0.75834 0.0
H849 H 0.64416 0.5489 0.74608 0.0
H850 H 0.57649 0.52507 0.75132 0.0
H851 H 0.59304 0.49938 0.76034 0.0
H852 H 0.85851 0.4812 0.77297 0.0
H853 H 0.92616 0.50499 0.7673 0.0
C854 C 0.83686 0.52946 0.75654 0.0
C855 C 0.78189 0.54156 0.75166 0.0
C856 C 0.79862 0.51584 0.76015 0.0
C857 C 0.68793 0.53977 0.7496 0.0
C858 C 0.6493 0.52617 0.75281 0.0
C859 C 0.66578 0.50058 0.76208 0.0
C860 C 0.72077 0.4885 0.76722 0.0
C861 C 0.70401 0.51419 0.75838 0.0
C862 C 0.81473 0.49031 0.76924 0.0
C863 C 0.85336 0.50388 0.7658 0.0
H864 H 0.09752 0.27934 0.50211 0.0
H865 H 0.37185 0.29343 0.48784 0.0
H866 H 0.42662 0.26909 0.49591 0.0
H867 H 0.39784 0.24434 0.50885 0.0
H868 H 0.12463 0.22969 0.52262 0.0
H869 H 0.06802 0.25399 0.51348 0.0
C870 C 0.16925 0.27707 0.50036 0.0
C871 C 0.2306 0.28824 0.49431 0.0
C872 C 0.20044 0.26309 0.50553 0.0
C873 C 0.32318 0.28507 0.49229 0.0
C874 C 0.35458 0.27118 0.49715 0.0
C875 C 0.32575 0.24641 0.51017 0.0
C876 C 0.26552 0.23522 0.51688 0.0
C877 C 0.29401 0.26021 0.50427 0.0
C878 C 0.17242 0.23812 0.51787 0.0
C879 C 0.14015 0.25199 0.51244 0.0
H880 H 0.07597 0.50056 0.266 0.0
H881 H 0.33706 0.48037 0.27553 0.0
H882 H 0.41078 0.50377 0.27022 0.0
H883 H 0.40042 0.52962 0.26125 0.0
H884 H 0.13881 0.54956 0.25105 0.0
H885 H 0.06549 0.52627 0.25748 0.0
C886 C 0.14912 0.50121 0.26718 0.0
C887 C 0.20106 0.48869 0.27123 0.0
C888 C 0.19068 0.51456 0.26341 0.0
C889 C 0.29557 0.48983 0.27266 0.0
C890 C 0.33762 0.50318 0.26936 0.0
C891 C 0.32729 0.5289 0.26018 0.0
C892 C 0.27504 0.54134 0.25543 0.0
C893 C 0.28578 0.51555 0.26431 0.0
C894 C 0.18051 0.54017 0.25441 0.0
C895 C 0.13866 0.52688 0.2583 0.0
H896 H 0.96294 0.98373 0.51632 0.0
H897 H 0.15881 0.99605 0.45621 0.0
H898 H 0.125 0.02142 0.46418 0.0
H899 H 0.04428 0.04016 0.48993 0.0
H900 H 0.84946 0.02777 0.5504 0.0
H901 H 0.88033 1.00242 0.54148 0.0
C902 C 0.99547 0.992 0.5043 0.0
C903 C 0.06076 0.9881 0.48504 0.0
C904 C 0.97878 1.00654 0.50997 0.0
C905 C 0.10603 0.99887 0.47048 0.0
C906 C 0.08803 1.01335 0.47543 0.0
C907 C 0.01067 0.03188 0.50163 0.0
C908 C 0.94677 0.03576 0.52134 0.0
C909 C 0.02622 0.01733 0.49562 0.0
C910 C 0.90067 0.02498 0.53561 0.0
C911 C 0.91721 1.0105 0.53021 0.0
H912 H 0.86066 0.24723 0.75642 0.0
H913 H 0.13244 0.23389 0.7363 0.0
H914 H 0.18621 0.25839 0.74321 0.0
H915 H 0.15771 0.28303 0.7569 0.0
H916 H 0.88702 0.29682 0.77709 0.0
H917 H 0.83111 0.27242 0.76877 0.0
C918 C 0.93152 0.2497 0.75314 0.0
C919 C 0.99257 0.23871 0.74577 0.0
C920 C 0.96225 0.26374 0.75773 0.0
C921 C 0.08406 0.24212 0.7418 0.0
C922 C 0.11491 0.2561 0.74598 0.0
C923 C 0.08635 0.28076 0.75971 0.0
C924 C 0.02665 0.29174 0.76795 0.0
C925 C 0.0549 0.26689 0.75442 0.0
C926 C 0.93445 0.28855 0.77106 0.0
C927 C 0.90253 0.27464 0.76612 0.0
H928 H 0.9701 0.79243 0.25009 0.0
H929 H 0.17691 0.7812 0.30758 0.0
H930 H 0.14401 0.7557 0.30127 0.0
H931 H 0.05962 0.7365 0.27807 0.0
H932 H 0.85305 0.74773 0.22049 0.0
H933 H 0.88449 0.77325 0.22728 0.0
C934 C 0.00563 0.78438 0.26184 0.0
C935 C 0.07388 0.78861 0.27983 0.0
C936 C 0.98895 0.76973 0.25722 0.0
C937 C 0.12238 0.77812 0.29415 0.0
C938 C 0.1047 0.76355 0.2902 0.0
C939 C 0.02354 0.74457 0.2665 0.0
C940 C 0.95605 0.74032 0.24826 0.0
C941 C 0.03956 0.75921 0.27132 0.0
C942 C 0.9069 0.75082 0.23415 0.0
C943 C 0.92384 0.76539 0.23834 0.0
H944 H 0.95599 0.48755 0.02833 0.0
H945 H 0.16272 0.49835 0.97038 0.0
H946 H 0.12766 0.52387 0.97539 0.0
H947 H 0.0383 0.54318 0.99662 0.0
H948 H 0.83144 0.53233 0.05447 0.0
H949 H 0.86842 0.50686 0.05008 0.0
C950 C 0.9914 0.4955 0.0163 0.0
C951 C 0.05992 0.49114 0.99847 0.0
C952 C 0.97324 0.51017 0.02009 0.0
C953 C 0.10814 0.50152 0.98376 0.0
C954 C 0.08909 0.5161 0.98692 0.0
C955 C 0.00367 0.53523 1.00887 0.0
C956 C 0.93418 0.53956 0.02639 0.0
C957 C 0.02275 0.52057 1.00535 0.0
C958 C 0.88688 0.52919 0.04138 0.0
C959 C 0.9069 0.51464 0.03853 0.0
H960 H 0.4435 0.06629 0.93723 0.0
H961 H 0.1573 0.06875 0.92122 0.0
H962 H 0.18799 0.0693 0.87242 0.0
H963 H 0.29745 0.07162 0.83491 0.0
H964 H 0.58342 0.06835 0.85105 0.0
H965 H 0.55175 0.06549 0.89941 0.0
C966 C 0.38774 0.06673 0.92301 0.0
C967 C 0.29821 0.06766 0.93273 0.0
C968 C 0.4061 0.06706 0.89516 0.0
C969 C 0.22657 0.06801 0.91419 0.0
C970 C 0.24429 0.06844 0.88634 0.0
C971 C 0.35283 0.07017 0.84902 0.0
C972 C 0.44289 0.07046 0.83954 0.0
C973 C 0.3339 0.06839 0.87668 0.0
C974 C 0.51378 0.06824 0.85789 0.0
C975 C 0.4956 0.06666 0.88552 0.0
H976 H 0.80504 0.20292 0.93878 0.0
H977 H 0.08268 0.21628 0.92907 0.0
H978 H 0.06165 0.21736 0.87996 0.0
H979 H 0.96798 0.21259 0.83997 0.0
H980 H 0.68986 0.19948 0.8497 0.0
H981 H 0.7072 0.20036 0.89895 0.0
C982 C 0.86099 0.20614 0.92594 0.0
C983 C 0.94595 0.20928 0.9375 0.0
C984 C 0.84826 0.20673 0.89786 0.0
C985 C 0.01697 0.21374 0.92067 0.0
C986 C 0.00496 0.21431 0.89262 0.0
C987 C 0.91086 0.20999 0.85286 0.0
C988 C 0.828 0.20573 0.84121 0.0
C989 C 0.92151 0.21051 0.88102 0.0
C990 C 0.75424 0.20273 0.85815 0.0
C991 C 0.76437 0.20317 0.88628 0.0
H992 H 0.28942 0.21425 0.44098 0.0
H993 H 0.57564 0.2115 0.42521 0.0
H994 H 0.54705 0.214 0.37652 0.0
H995 H 0.43868 0.21343 0.33865 0.0
H996 H 0.15233 0.21631 0.35454 0.0
H997 H 0.18261 0.21749 0.40324 0.0
C998 C 0.34562 0.21454 0.42685 0.0
C999 C 0.43449 0.21257 0.43644 0.0
C1000 C 0.32831 0.21582 0.39907 0.0
C1001 C 0.50695 0.21307 0.4182 0.0
C1002 C 0.49036 0.21436 0.39041 0.0
C1003 C 0.38297 0.21454 0.35279 0.0
C1004 C 0.29318 0.21452 0.34315 0.0
C1005 C 0.4011 0.21518 0.38062 0.0
C1006 C 0.22175 0.21625 0.36153 0.0
C1007 C 0.23915 0.21684 0.38933 0.0
H1008 H 0.94927 0.06138 0.43856 0.0
H1009 H 0.66337 0.06067 0.4215 0.0
H1010 H 0.69595 0.05962 0.37286 0.0
H1011 H 0.80564 0.06234 0.33563 0.0
H1012 H 0.09158 0.06291 0.35267 0.0
H1013 H 0.05946 0.06038 0.40115 0.0
C1014 C 0.89412 0.06072 0.42416 0.0
C1015 C 0.80393 0.0613 0.43344 0.0
C1016 C 0.9136 0.06024 0.39639 0.0
C1017 C 0.73308 0.06022 0.41477 0.0
C1018 C 0.75184 0.05975 0.38701 0.0
C1019 C 0.86097 0.06167 0.34997 0.0
C1020 C 0.95091 0.06304 0.34077 0.0
C1021 C 0.84174 0.06028 0.37764 0.0
C1022 C 0.02205 0.0619 0.35934 0.0
C1023 C 0.00352 0.06055 0.38701 0.0
H1024 H 0.79883 0.95387 0.10396 0.0
H1025 H 0.57099 0.97826 0.07557 0.0
H1026 H 0.51285 0.98036 0.12185 0.0
H1027 H 0.51727 0.97242 0.1699 0.0
H1028 H 0.74526 0.94713 0.19671 0.0
H1029 H 0.81198 0.94828 0.15213 0.0
C1030 C 0.73852 0.96013 0.10815 0.0
C1031 C 0.69043 0.96619 0.08663 0.0
C1032 C 0.70383 0.96081 0.13463 0.0
C1033 C 0.61033 0.97382 0.09205 0.0
C1034 C 0.57637 0.97483 0.11846 0.0
C1035 C 0.58189 0.9673 0.16602 0.0
C1036 C 0.62464 0.95947 0.18674 0.0
C1037 C 0.62083 0.96791 0.13987 0.0
C1038 C 0.70912 0.95302 0.18124 0.0
C1039 C 0.74815 0.95371 0.15564 0.0
H1040 H 0.19913 0.81154 0.08785 0.0
H1041 H 0.91476 0.81462 0.10634 0.0
H1042 H 0.94913 0.81338 0.15485 0.0
H1043 H 0.06178 0.81455 0.1916 0.0
H1044 H 0.34596 0.81093 0.17308 0.0
H1045 H 0.31018 0.80906 0.12477 0.0
C1046 C 0.14457 0.81166 0.10254 0.0
C1047 C 0.05451 0.81334 0.09365 0.0
C1048 C 0.16509 0.81099 0.13024 0.0
C1049 C 0.98434 0.8133 0.11273 0.0
C1050 C 0.0042 0.81272 0.14043 0.0
C1051 C 0.11581 0.81314 0.17698 0.0
C1052 C 0.20662 0.81311 0.18577 0.0
C1053 C 0.0945 0.81205 0.14937 0.0
C1054 C 0.27581 0.81101 0.16678 0.0
C1055 C 0.25526 0.81003 0.13918 0.0
H1056 H 0.56355 0.81301 0.69026 0.0
H1057 H 0.84767 0.81573 0.67127 0.0
H1058 H 0.81248 0.81413 0.62285 0.0
H1059 H 0.69927 0.815 0.58621 0.0
H1060 H 0.41533 0.81168 0.60528 0.0
H1061 H 0.45187 0.81031 0.65359 0.0
C1062 C 0.61787 0.81299 0.67549 0.0
C1063 C 0.70811 0.81465 0.6842 0.0
C1064 C 0.59689 0.8121 0.64784 0.0
C1065 C 0.77796 0.81442 0.66501 0.0
C1066 C 0.75763 0.81363 0.63737 0.0
C1067 C 0.64544 0.81377 0.60096 0.0
C1068 C 0.55449 0.81368 0.59229 0.0
C1069 C 0.66717 0.81294 0.62858 0.0
C1070 C 0.48559 0.81181 0.61147 0.0
C1071 C 0.50657 0.81111 0.63907 0.0
H1072 H 0.28561 0.96868 0.59789 0.0
H1073 H 0.01912 0.95912 0.56753 0.0
H1074 H 0.95602 0.96096 0.61288 0.0
H1075 H 0.97948 0.96194 0.66221 0.0
H1076 H 0.24694 0.97013 0.69294 0.0
H1077 H 0.3058 0.97244 0.64701 0.0
C1078 C 0.21359 0.96732 0.6012 0.0
C1079 C 0.15761 0.96355 0.57943 0.0
C1080 C 0.17758 0.96805 0.62764 0.0
C1081 C 0.06417 0.96178 0.58405 0.0
C1082 C 0.02775 0.96285 0.61001 0.0
C1083 C 0.04989 0.96465 0.65875 0.0
C1084 C 0.10874 0.96585 0.68084 0.0
C1085 C 0.08415 0.96548 0.63215 0.0
C1086 C 0.20037 0.96913 0.67614 0.0
C1087 C 0.23427 0.97039 0.64987 0.0
H1088 H 0.45125 0.56236 0.43746 0.0
H1089 H 0.16464 0.56301 0.42149 0.0
H1090 H 0.1949 0.56225 0.37269 0.0
H1091 H 0.30349 0.56482 0.33517 0.0
H1092 H 0.59007 0.56391 0.35111 0.0
H1093 H 0.55962 0.56115 0.39965 0.0
C1094 C 0.39543 0.56206 0.42324 0.0
C1095 C 0.30582 0.56296 0.43284 0.0
C1096 C 0.4136 0.56172 0.39542 0.0
C1097 C 0.23394 0.56233 0.41445 0.0
C1098 C 0.25139 0.56202 0.38663 0.0
C1099 C 0.35921 0.56378 0.3493 0.0
C1100 C 0.44894 0.56481 0.33985 0.0
C1101 C 0.34095 0.56224 0.37696 0.0
C1102 C 0.5207 0.56318 0.35806 0.0
C1103 C 0.50315 0.5617 0.38574 0.0
H1104 H 0.95634 0.71352 0.33392 0.0
H1105 H 0.66876 0.71445 0.34849 0.0
H1106 H 0.69626 0.71578 0.39737 0.0
H1107 H 0.80205 0.71333 0.43556 0.0
H1108 H 0.08962 0.71255 0.42094 0.0
H1109 H 0.06253 0.7147 0.37216 0.0
C1110 C 0.8997 0.71424 0.34783 0.0
C1111 C 0.81053 0.71364 0.3378 0.0
C1112 C 0.91625 0.71491 0.3757 0.0
C1113 C 0.73773 0.71487 0.35582 0.0
C1114 C 0.75359 0.71552 0.3837 0.0
C1115 C 0.85881 0.71387 0.42167 0.0
C1116 C 0.94775 0.71255 0.43163 0.0
C1117 C 0.84247 0.71504 0.39383 0.0
C1118 C 0.02081 0.71353 0.41365 0.0
C1119 C 0.00517 0.71465 0.38582 0.0
H1120 H 0.52168 0.71923 0.91902 0.0
H1121 H 0.25265 0.71037 0.94832 0.0
H1122 H 0.19191 0.71259 0.90279 0.0
H1123 H 0.21855 0.71322 0.85367 0.0
H1124 H 0.48847 0.72057 0.82395 0.0
H1125 H 0.5449 0.72308 0.8701 0.0
C1126 C 0.44965 0.71813 0.91543 0.0
C1127 C 0.39214 0.71438 0.93686 0.0
C1128 C 0.41512 0.71904 0.88892 0.0
C1129 C 0.2987 0.71298 0.93199 0.0
C1130 C 0.26369 0.71426 0.90595 0.0
C1131 C 0.28893 0.71584 0.8574 0.0
C1132 C 0.34933 0.71668 0.83565 0.0
C1133 C 0.32164 0.71673 0.88408 0.0
C1134 C 0.44088 0.71985 0.84059 0.0
C1135 C 0.47334 0.7212 0.86695 0.0
H1136 H 0.79454 0.56464 0.83428 0.0
H1137 H 0.07989 0.56506 0.85209 0.0
H1138 H 0.04638 0.56246 0.90048 0.0
H1139 H 0.93506 0.56352 0.93758 0.0
H1140 H 0.64974 0.56278 0.91971 0.0
H1141 H 0.68373 0.56179 0.87116 0.0
C1142 C 0.84936 0.5639 0.84878 0.0
C1143 C 0.93954 0.56527 0.83988 0.0
C1144 C 0.82935 0.56245 0.87637 0.0
C1145 C 0.01018 0.56406 0.8586 0.0
C1146 C 0.99087 0.56268 0.8862 0.0
C1147 C 0.8804 0.56286 0.92301 0.0
C1148 C 0.78997 0.56344 0.932 0.0
C1149 C 0.90067 0.56238 0.89531 0.0
C1150 C 0.71964 0.56235 0.91316 0.0
C1151 C 0.73919 0.56191 0.88546 0.0
H1152 H 0.55156 0.45733 0.58274 0.0
H1153 H 0.83804 0.4609 0.59753 0.0
H1154 H 0.80877 0.46373 0.6461 0.0
H1155 H 0.70237 0.46242 0.68441 0.0
H1156 H 0.41563 0.4597 0.66959 0.0
H1157 H 0.44381 0.45957 0.62064 0.0
C1158 C 0.60748 0.45888 0.59663 0.0
C1159 C 0.69701 0.45863 0.58682 0.0
C1160 C 0.58987 0.46063 0.62432 0.0
C1161 C 0.76882 0.46097 0.60474 0.0
C1162 C 0.75199 0.46253 0.63244 0.0
C1163 C 0.64602 0.46206 0.67038 0.0
C1164 C 0.55708 0.4609 0.68039 0.0
C1165 C 0.66298 0.46198 0.64247 0.0
C1166 C 0.48444 0.46063 0.66223 0.0
C1167 C 0.50073 0.46043 0.63433 0.0
H1168 H 0.19962 0.31554 0.58809 0.0
H1169 H 0.92297 0.32965 0.59702 0.0
H1170 H 0.94079 0.32978 0.64626 0.0
H1171 H 0.03875 0.32787 0.68605 0.0
H1172 H 0.31527 0.31371 0.67724 0.0
H1173 H 0.29353 0.31153 0.62827 0.0
C1174 C 0.1429 0.31858 0.6008 0.0
C1175 C 0.06038 0.32283 0.58893 0.0
C1176 C 0.15393 0.3187 0.62893 0.0
C1177 C 0.98709 0.3264 0.60566 0.0
C1178 C 0.9975 0.32654 0.63376 0.0
C1179 C 0.09439 0.32427 0.67345 0.0
C1180 C 0.17923 0.32122 0.68514 0.0
C1181 C 0.08125 0.32305 0.6455 0.0
C1182 C 0.24974 0.31622 0.66867 0.0
C1183 C 0.23729 0.31501 0.64072 0.0
H1184 H 0.69679 0.3128 0.08716 0.0
H1185 H 0.40959 0.31372 0.10223 0.0
H1186 H 0.43735 0.31128 0.15094 0.0
H1187 H 0.54436 0.31285 0.18901 0.0
H1188 H 0.83149 0.31202 0.17395 0.0
H1189 H 0.80322 0.31014 0.12517 0.0
C1190 C 0.6403 0.31217 0.10114 0.0
C1191 C 0.55129 0.31367 0.09138 0.0
C1192 C 0.65706 0.31086 0.12894 0.0
C1193 C 0.47845 0.31261 0.10941 0.0
C1194 C 0.49448 0.31132 0.13719 0.0
C1195 C 0.60061 0.31187 0.17501 0.0
C1196 C 0.6899 0.31271 0.1848 0.0
C1197 C 0.58356 0.31101 0.14718 0.0
C1198 C 0.76245 0.31133 0.16676 0.0
C1199 C 0.74612 0.31041 0.13893 0.0
H1200 H 0.19581 0.46436 0.18666 0.0
H1201 H 0.91393 0.47034 0.1674 0.0
H1202 H 0.95261 0.47277 0.11934 0.0
H1203 H 0.06431 0.46963 0.08276 0.0
H1204 H 0.34619 0.4638 0.10202 0.0
H1205 H 0.31043 0.46515 0.15044 0.0
C1206 C 0.14305 0.46643 0.17193 0.0
C1207 C 0.05192 0.46691 0.18032 0.0
C1208 C 0.16598 0.46778 0.14451 0.0
C1209 C 0.98428 0.46988 0.16131 0.0
C1210 C 0.00646 0.47118 0.13388 0.0
C1211 C 0.1181 0.469 0.09763 0.0
C1212 C 0.20764 0.46647 0.08905 0.0
C1213 C 0.09666 0.46963 0.12523 0.0
C1214 C 0.27706 0.4658 0.10826 0.0
C1215 C 0.25634 0.46643 0.13587 0.0
H1216 H 0.1918 0.16663 0.04186 0.0
H1217 H 0.9079 0.156 0.04526 0.0
H1218 H 0.94581 0.13047 0.04717 0.0
H1219 H 0.05851 0.11133 0.04152 0.0
H1220 H 0.34234 0.12186 0.03782 0.0
H1221 H 0.30571 0.14737 0.04275 0.0
C1222 C 0.13821 0.15873 0.04348 0.0
C1223 C 0.04704 0.16317 0.04297 0.0
C1224 C 0.16056 0.1441 0.04427 0.0
C1225 C 0.97845 0.15286 0.04555 0.0
C1226 C 1.00014 0.13826 0.04644 0.0
C1227 C 0.11247 0.1192 0.04223 0.0
C1228 C 0.20295 0.11479 0.03886 0.0
C1229 C 0.09076 0.13378 0.04483 0.0
C1230 C 0.2723 0.12502 0.04031 0.0
C1231 C 0.25125 0.13959 0.04294 0.0
H1232 H 0.04266 0.16755 0.24351 0.0
H1233 H 0.32795 0.15797 0.23934 0.0
H1234 H 0.29373 0.13234 0.23625 0.0
H1235 H 0.18351 0.11265 0.23966 0.0
H1236 H 0.89812 0.12216 0.24319 0.0
H1237 H 0.93153 0.14788 0.24124 0.0
C1238 C 0.0974 0.15986 0.24159 0.0
C1239 C 0.18792 0.16466 0.24204 0.0
C1240 C 0.07713 0.14516 0.23986 0.0
C1241 C 0.25787 0.15459 0.23909 0.0
C1242 C 0.23828 0.13992 0.23748 0.0
C1243 C 0.12847 0.12035 0.23965 0.0
C1244 C 0.03838 0.1155 0.24195 0.0
C1245 C 0.1483 0.13508 0.2386 0.0
C1246 C 0.96788 0.12559 0.24146 0.0
C1247 C 0.98708 0.1403 0.24053 0.0
H1248 H 0.81029 0.8608 0.99255 0.0
H1249 H 0.09376 0.87175 0.9935 0.0
H1250 H 0.05494 0.89726 0.99002 0.0
H1251 H 0.93985 0.91639 0.99146 0.0
H1252 H 0.65646 0.90525 0.99018 0.0
H1253 H 0.69596 0.87979 0.98878 0.0
C1254 C 0.86373 0.86876 0.99169 0.0
C1255 C 0.95484 0.86442 0.99367 0.0
C1256 C 0.84081 0.88334 0.98982 0.0
C1257 C 0.02325 0.87482 0.99204 0.0
C1258 C 0.00097 0.8894 0.99023 0.0
C1259 C 0.88664 0.90839 0.99058 0.0
C1260 C 0.79516 0.91272 0.99132 0.0
C1261 C 0.90992 0.89378 0.98985 0.0
C1262 C 0.72722 0.90223 0.98972 0.0
C1263 C 0.74982 0.88767 0.98905 0.0
H1264 H 0.95782 0.86268 0.78373 0.0
H1265 H 0.67458 0.87372 0.7806 0.0
H1266 H 0.71366 0.89926 0.78122 0.0
H1267 H 0.82897 0.91824 0.77767 0.0
H1268 H 0.11212 0.90715 0.78139 0.0
H1269 H 0.07239 0.88176 0.78578 0.0
C1270 C 0.90451 0.87068 0.78355 0.0
C1271 C 0.81337 0.86633 0.78175 0.0
C1272 C 0.92759 0.88529 0.78379 0.0
C1273 C 0.74509 0.87679 0.78198 0.0
C1274 C 0.76753 0.89139 0.78214 0.0
C1275 C 0.88204 0.91028 0.77973 0.0
C1276 C 0.97354 0.91455 0.77878 0.0
C1277 C 0.85861 0.89573 0.78225 0.0
C1278 C 0.04137 0.90415 0.78198 0.0
C1279 C 0.01861 0.88963 0.78436 0.0
H1280 H 0.18854 0.66466 0.53349 0.0
H1281 H 0.9047 0.654 0.53063 0.0
H1282 H 0.94225 0.62846 0.53364 0.0
H1283 H 0.05635 0.60922 0.53224 0.0
H1284 H 0.34016 0.61993 0.53533 0.0
H1285 H 0.30188 0.64545 0.53743 0.0
C1286 C 0.13471 0.65676 0.53385 0.0
C1287 C 0.04385 0.66123 0.53146 0.0
C1288 C 0.15691 0.64212 0.53547 0.0
C1289 C 0.97502 0.65087 0.5324 0.0
C1290 C 0.99657 0.63626 0.53396 0.0
C1291 C 0.10994 0.61712 0.53371 0.0
C1292 C 0.2012 0.61266 0.53325 0.0
C1293 C 0.08736 0.63177 0.53476 0.0
C1294 C 0.26956 0.62304 0.53559 0.0
C1295 C 0.24764 0.63764 0.53663 0.0
H1296 H 0.07515 0.66804 0.74053 0.0
H1297 H 0.35709 0.65606 0.73938 0.0
H1298 H 0.31462 0.6307 0.73688 0.0
H1299 H 0.19743 0.612 0.73969 0.0
H1300 H 0.9155 0.62405 0.7403 0.0
H1301 H 0.95798 0.64939 0.738 0.0
C1302 C 0.1274 0.65988 0.73943 0.0
C1303 C 0.21925 0.66391 0.74053 0.0
C1304 C 0.10242 0.64537 0.73804 0.0
C1305 C 0.28605 0.65325 0.73862 0.0
C1306 C 0.26172 0.63875 0.73734 0.0
C1307 C 0.14517 0.62017 0.73899 0.0
C1308 C 0.05333 0.61615 0.74054 0.0
C1309 C 0.17015 0.63469 0.73775 0.0
C1310 C 0.98654 0.62684 0.73918 0.0
C1311 C 0.01086 0.64133 0.73802 0.0
H1312 H 0.75704 0.39873 0.50411 0.0
H1313 H 0.91256 0.42412 0.44815 0.0
H1314 H 0.00555 0.40328 0.43681 0.0
H1315 H 0.0573 0.37894 0.44802 0.0
H1316 H 0.90622 0.35369 0.50541 0.0
H1317 H 0.79692 0.37309 0.51071 0.0
C1318 C 0.80909 0.39949 0.48871 0.0
C1319 C 0.82732 0.41285 0.47666 0.0
C1320 C 0.86432 0.38751 0.48289 0.0
C1321 C 0.89664 0.41387 0.45733 0.0
C1322 C 0.9504 0.40199 0.45106 0.0
C1323 C 0.99907 0.37756 0.46114 0.0
C1324 C 0.99017 0.36484 0.47612 0.0
C1325 C 0.93714 0.38891 0.46448 0.0
C1326 C 0.91465 0.36325 0.49328 0.0
C1327 C 0.85223 0.37444 0.49653 0.0
H1328 H 0.69613 0.37553 0.27851 0.0
H1329 H 0.96412 0.35718 0.28033 0.0
H1330 H 0.03071 0.38102 0.28262 0.0
H1331 H 0.01413 0.40724 0.27964 0.0
H1332 H 0.74637 0.42558 0.27611 0.0
H1333 H 0.67924 0.40179 0.27928 0.0
C1334 C 0.76895 0.37675 0.27984 0.0
C1335 C 0.82478 0.36457 0.27894 0.0
C1336 C 0.80735 0.39057 0.28065 0.0
C1337 C 0.91926 0.36637 0.28064 0.0
C1338 C 0.95769 0.38002 0.28197 0.0
C1339 C 0.94117 0.40603 0.28004 0.0
C1340 C 0.88563 0.41817 0.27736 0.0
C1341 C 0.90259 0.39223 0.2813 0.0
C1342 C 0.79099 0.4164 0.27782 0.0
C1343 C 0.75229 0.40278 0.27962 0.0
H1344 H 0.55458 0.10785 0.53274 0.0
H1345 H 0.83573 0.12023 0.53373 0.0
H1346 H 0.79138 0.14553 0.53669 0.0
H1347 H 0.67271 0.16403 0.53412 0.0
H1348 H 0.39163 0.1515 0.53303 0.0
H1349 H 0.4361 0.12624 0.53526 0.0
C1350 C 0.60631 0.11607 0.53391 0.0
C1351 C 0.69844 0.1122 0.53261 0.0
C1352 C 0.58023 0.13052 0.5354 0.0
C1353 C 0.76452 0.12294 0.53464 0.0
C1354 C 0.73908 0.1374 0.53616 0.0
C1355 C 0.62101 0.15578 0.53464 0.0
C1356 C 0.52882 0.15964 0.53299 0.0
C1357 C 0.64716 0.14131 0.53578 0.0
C1358 C 0.46286 0.14884 0.53418 0.0
C1359 C 0.48834 0.1344 0.53533 0.0
H1360 H 0.51218 0.13089 0.76342 0.0
H1361 H 0.61642 0.10732 0.69541 0.0
H1362 H 0.71209 0.1277 0.68282 0.0
H1363 H 0.78489 0.15052 0.69614 0.0
H1364 H 0.67893 0.17403 0.76425 0.0
H1365 H 0.56459 0.15565 0.77152 0.0
C1366 C 0.55282 0.13052 0.74516 0.0
C1367 C 0.55642 0.11777 0.73007 0.0
C1368 C 0.60878 0.14221 0.73837 0.0
C1369 C 0.61119 0.11718 0.70691 0.0
C1370 C 0.66687 0.12876 0.69996 0.0
C1371 C 0.73498 0.1518 0.71205 0.0
C1372 C 0.74075 0.16365 0.72952 0.0
C1373 C 0.66916 0.14108 0.71626 0.0
C1374 C 0.6758 0.16515 0.7502 0.0
C1375 C 0.6106 0.15454 0.75458 0.0
H1376 H 0.22599 0.90522 0.48263 0.0
H1377 H 0.49561 0.92239 0.49007 0.0
H1378 H 0.55897 0.89824 0.48949 0.0
H1379 H 0.53679 0.87203 0.49218 0.0
H1380 H 0.26616 0.85498 0.48761 0.0
H1381 H 0.20494 0.87904 0.48144 0.0
C1382 C 0.29865 0.90366 0.48354 0.0
C1383 C 0.35573 0.91559 0.48657 0.0
C1384 C 0.33476 0.88967 0.48399 0.0
C1385 C 0.44989 0.91338 0.48797 0.0
C1386 C 0.48637 0.89955 0.48768 0.0
C1387 C 0.46475 0.87359 0.48927 0.0
C1388 C 0.40621 0.86175 0.49056 0.0
C1389 C 0.42936 0.88757 0.4865 0.0
C1390 C 0.31273 0.86395 0.48698 0.0
C1391 C 0.27748 0.87772 0.48347 0.0
H1392 H 0.53372 0.90558 0.28987 0.0
H1393 H 0.26713 0.92293 0.27632 0.0
H1394 H 0.20142 0.89901 0.27969 0.0
H1395 H 0.22154 0.87275 0.28094 0.0
H1396 H 0.4895 0.85536 0.29136 0.0
H1397 H 0.55208 0.87947 0.29515 0.0
C1398 C 0.46114 0.90414 0.28823 0.0
C1399 C 0.40567 0.916 0.28264 0.0
C1400 C 0.42379 0.89024 0.28938 0.0
C1401 C 0.31161 0.91394 0.28035 0.0
C1402 C 0.27381 0.90025 0.28225 0.0
C1403 C 0.2932 0.87428 0.28466 0.0
C1404 C 0.35075 0.8623 0.28571 0.0
C1405 C 0.32945 0.88825 0.28594 0.0
C1406 C 0.44379 0.86443 0.29025 0.0
C1407 C 0.47979 0.87823 0.29237 0.0
H1408 H 0.46537 0.65585 0.03577 0.0
H1409 H 0.73348 0.67295 0.02359 0.0
H1410 H 0.79765 0.64892 0.02615 0.0
H1411 H 0.7763 0.62271 0.027 0.0
H1412 H 0.50719 0.60559 0.03657 0.0
H1413 H 0.44548 0.62977 0.04026 0.0
C1414 C 0.53792 0.65433 0.03415 0.0
C1415 C 0.59421 0.66618 0.02924 0.0
C1416 C 0.57449 0.64039 0.03499 0.0
C1417 C 0.68825 0.664 0.02707 0.0
C1418 C 0.72523 0.65024 0.02854 0.0
C1419 C 0.70451 0.6243 0.03045 0.0
C1420 C 0.64647 0.61239 0.03132 0.0
C1421 C 0.66884 0.63829 0.03177 0.0
C1422 C 0.55332 0.61461 0.03557 0.0
C1423 C 0.51781 0.62844 0.03764 0.0
H1424 H 0.56568 0.6672 0.2358 0.0
H1425 H 0.84917 0.65621 0.23775 0.0
H1426 H 0.81039 0.63069 0.23584 0.0
H1427 H 0.69549 0.61162 0.23868 0.0
H1428 H 0.41205 0.62272 0.23664 0.0
H1429 H 0.45139 0.64813 0.23325 0.0
C1430 C 0.61915 0.65923 0.23546 0.0
C1431 C 0.71027 0.6636 0.23729 0.0
C1432 C 0.59627 0.64462 0.23455 0.0
C1433 C 0.77864 0.65315 0.23639 0.0
C1434 C 0.7564 0.63855 0.23548 0.0
C1435 C 0.64222 0.61958 0.23716 0.0
C1436 C 0.5508 0.61527 0.2383 0.0
C1437 C 0.66539 0.63417 0.23534 0.0
C1438 C 0.4828 0.62572 0.23589 0.0
C1439 C 0.50531 0.64026 0.23409 0.0
H1440 H 0.45149 0.41771 0.99011 0.0
H1441 H 0.16698 0.40738 0.99106 0.0
H1442 H 0.20357 0.38178 0.98909 0.0
H1443 H 0.31654 0.36244 0.99178 0.0
H1444 H 0.60103 0.37282 0.9906 0.0
H1445 H 0.56419 0.39836 0.98767 0.0
C1446 C 0.39735 0.40987 0.98958 0.0
C1447 C 0.30654 0.41444 0.99111 0.0
C1448 C 0.41895 0.39521 0.98857 0.0
C1449 C 0.2373 0.40416 0.98996 0.0
C1450 C 0.25827 0.38952 0.98898 0.0
C1451 C 0.37059 0.37028 0.99059 0.0
C1452 C 0.46154 0.36573 0.99179 0.0
C1453 C 0.34886 0.38493 0.98902 0.0
C1454 C 0.53061 0.37601 0.98977 0.0
C1455 C 0.50953 0.39063 0.98824 0.0
H1456 H 0.30587 0.41894 0.78735 0.0
H1457 H 0.58713 0.40651 0.78853 0.0
H1458 H 0.54314 0.38137 0.79385 0.0
H1459 H 0.42512 0.36288 0.79213 0.0
H1460 H 0.14385 0.37522 0.79022 0.0
H1461 H 0.18752 0.40054 0.79175 0.0
C1462 C 0.35765 0.41075 0.78915 0.0
C1463 C 0.44973 0.41456 0.78708 0.0
C1464 C 0.33179 0.39634 0.79195 0.0
C1465 C 0.51594 0.40387 0.78994 0.0
C1466 C 0.49075 0.38949 0.79284 0.0
C1467 C 0.37323 0.37111 0.79251 0.0
C1468 C 0.28133 0.3672 0.79065 0.0
C1469 C 0.39894 0.38559 0.79296 0.0
C1470 C 0.21491 0.37795 0.79161 0.0
C1471 C 0.23996 0.39242 0.79226 0.0
loop_
_geom_bond_atom_site_label_1
_geom_bond_atom_site_label_2
_geom_bond_distance
_geom_bond_site_symmetry_2
_ccdc_geom_bond_type
O0 Cd1 2.223 . S
O0 C8 1.315 . S
Cd1 O0 2.223 . S
Cd1 O4 2.297 . S
Cd1 O5 2.439 1_556 S
Cd1 O11 2.240 1_556 S
Cd2 O3 2.244 . S
Cd2 O10 2.224 . S
Cd2 O12 2.293 1_556 S
Cd2 O13 2.434 1_556 S
O3 Cd2 2.244 . S
O3 C8 1.279 . S
O4 Cd1 2.297 . S
O4 C6 1.247 . S
O5 Cd1 2.439 1_554 S
O5 C6 1.208 1_554 S
C6 O4 1.247 . S
C6 O5 1.208 1_556 S
C7 O12 1.247 . S
C7 O13 1.208 . S
C8 O0 1.315 . S
C8 O3 1.279 . S
C9 O10 1.315 . S
C9 O11 1.279 1_556 S
O10 Cd2 2.224 . S
O10 C9 1.315 . S
O11 Cd1 2.240 1_554 S
O11 C9 1.279 1_554 S
O12 Cd2 2.293 1_554 S
O12 C7 1.247 . S
O13 Cd2 2.434 1_554 S
O13 C7 1.208 . S
O14 Cd15 2.223 . S
O14 C22 1.315 . S
Cd15 O14 2.223 . S
Cd15 O18 2.297 . S
Cd15 O19 2.439 1_556 S
Cd15 O25 2.240 1_556 S
Cd16 O17 2.244 1_455 S
Cd16 O24 2.224 . S
Cd16 O26 2.293 1_556 S
Cd16 O27 2.434 1_456 S
O17 Cd16 2.244 1_655 S
O17 C22 1.279 . S
O18 Cd15 2.297 . S
O18 C20 1.247 . S
O19 Cd15 2.439 1_554 S
O19 C20 1.208 1_554 S
C20 O18 1.247 . S
C20 O19 1.208 1_556 S
C21 O26 1.247 . S
C21 O27 1.208 1_455 S
C22 O14 1.315 . S
C22 O17 1.279 . S
C23 O24 1.315 1_655 S
C23 O25 1.279 1_556 S
O24 Cd16 2.224 . S
O24 C23 1.315 1_455 S
O25 Cd15 2.240 1_554 S
O25 C23 1.279 1_554 S
O26 Cd16 2.293 1_554 S
O26 C21 1.247 . S
O27 Cd16 2.434 1_654 S
O27 C21 1.208 1_655 S
O28 Cd29 2.223 . S
O28 C36 1.315 . S
Cd29 O28 2.223 . S
Cd29 O32 2.297 . S
Cd29 O33 2.439 . S
Cd29 O39 2.240 . S
Cd30 O31 2.240 . S
Cd30 O38 2.223 . S
Cd30 O40 2.297 . S
Cd30 O41 2.439 . S
O31 Cd30 2.240 . S
O31 C36 1.279 . S
O32 Cd29 2.297 . S
O32 C34 1.247 . S
O33 Cd29 2.439 . S
O33 C34 1.208 . S
C34 O32 1.247 . S
C34 O33 1.208 . S
C35 O40 1.247 . S
C35 O41 1.208 . S
C36 O28 1.315 . S
C36 O31 1.279 . S
C37 O38 1.315 . S
C37 O39 1.279 . S
O38 Cd30 2.223 . S
O38 C37 1.315 . S
O39 Cd29 2.240 . S
O39 C37 1.279 . S
O40 Cd30 2.297 . S
O40 C35 1.247 . S
O41 Cd30 2.439 . S
O41 C35 1.208 . S
O42 Cd43 2.223 . S
O42 C50 1.315 . S
Cd43 O42 2.223 . S
Cd43 O46 2.297 . S
Cd43 O47 2.439 . S
Cd43 O53 2.240 . S
Cd44 O45 2.240 1_455 S
Cd44 O52 2.223 . S
Cd44 O54 2.297 . S
Cd44 O55 2.439 1_455 S
O45 Cd44 2.240 1_655 S
O45 C50 1.279 . S
O46 Cd43 2.297 . S
O46 C48 1.247 . S
O47 Cd43 2.439 . S
O47 C48 1.208 . S
C48 O46 1.247 . S
C48 O47 1.208 . S
C49 O54 1.247 . S
C49 O55 1.208 1_455 S
C50 O42 1.315 . S
C50 O45 1.279 . S
C51 O52 1.315 1_655 S
C51 O53 1.279 . S
O52 Cd44 2.223 . S
O52 C51 1.315 1_455 S
O53 Cd43 2.240 . S
O53 C51 1.279 . S
O54 Cd44 2.297 . S
O54 C49 1.247 . S
O55 Cd44 2.439 1_655 S
O55 C49 1.208 1_655 S
O56 Cd57 2.223 . S
O56 C64 1.315 . S
Cd57 O56 2.223 . S
Cd57 O60 2.297 . S
Cd57 O61 2.439 1_554 S
Cd57 O67 2.240 1_554 S
Cd58 O59 2.244 . S
Cd58 O66 2.224 . S
Cd58 O68 2.293 1_554 S
Cd58 O69 2.434 1_554 S
O59 Cd58 2.244 . S
O59 C64 1.279 . S
O60 Cd57 2.297 . S
O60 C62 1.247 . S
O61 Cd57 2.439 1_556 S
O61 C62 1.208 1_556 S
C62 O60 1.247 . S
C62 O61 1.208 1_554 S
C63 O68 1.247 . S
C63 O69 1.208 . S
C64 O56 1.315 . S
C64 O59 1.279 . S
C65 O66 1.315 . S
C65 O67 1.279 1_554 S
O66 Cd58 2.224 . S
O66 C65 1.315 . S
O67 Cd57 2.240 1_556 S
O67 C65 1.279 1_556 S
O68 Cd58 2.293 1_556 S
O68 C63 1.247 . S
O69 Cd58 2.434 1_556 S
O69 C63 1.208 . S
O70 Cd71 2.223 . S
O70 C78 1.315 . S
Cd71 O70 2.223 . S
Cd71 O74 2.297 . S
Cd71 O75 2.439 1_554 S
Cd71 O81 2.240 1_554 S
Cd72 O73 2.244 1_655 S
Cd72 O80 2.224 . S
Cd72 O82 2.293 1_554 S
Cd72 O83 2.434 1_654 S
O73 Cd72 2.244 1_455 S
O73 C78 1.279 . S
O74 Cd71 2.297 . S
O74 C76 1.247 . S
O75 Cd71 2.439 1_556 S
O75 C76 1.208 1_556 S
C76 O74 1.247 . S
C76 O75 1.208 1_554 S
C77 O82 1.247 . S
C77 O83 1.208 1_655 S
C78 O70 1.315 . S
C78 O73 1.279 . S
C79 O80 1.315 1_455 S
C79 O81 1.279 1_554 S
O80 Cd72 2.224 . S
O80 C79 1.315 1_655 S
O81 Cd71 2.240 1_556 S
O81 C79 1.279 1_556 S
O82 Cd72 2.293 1_556 S
O82 C77 1.247 . S
O83 Cd72 2.434 1_456 S
O83 C77 1.208 1_455 S
O84 Cd85 2.223 . S
O84 C92 1.315 . S
Cd85 O84 2.223 . S
Cd85 O88 2.297 . S
Cd85 O89 2.439 . S
Cd85 O95 2.240 . S
Cd86 O87 2.240 . S
Cd86 O94 2.223 . S
Cd86 O96 2.297 . S
Cd86 O97 2.439 . S
O87 Cd86 2.240 . S
O87 C92 1.279 . S
O88 Cd85 2.297 . S
O88 C90 1.247 . S
O89 Cd85 2.439 . S
O89 C90 1.208 . S
C90 O88 1.247 . S
C90 O89 1.208 . S
C91 O96 1.247 . S
C91 O97 1.208 . S
C92 O84 1.315 . S
C92 O87 1.279 . S
C93 O94 1.315 . S
C93 O95 1.279 . S
O94 Cd86 2.223 . S
O94 C93 1.315 . S
O95 Cd85 2.240 . S
O95 C93 1.279 . S
O96 Cd86 2.297 . S
O96 C91 1.247 . S
O97 Cd86 2.439 . S
O97 C91 1.208 . S
O98 Cd99 2.223 . S
O98 C106 1.315 . S
Cd99 O98 2.223 . S
Cd99 O102 2.297 . S
Cd99 O103 2.439 . S
Cd99 O109 2.240 . S
Cd100 O101 2.240 1_655 S
Cd100 O108 2.223 . S
Cd100 O110 2.297 . S
Cd100 O111 2.439 1_655 S
O101 Cd100 2.240 1_455 S
O101 C106 1.279 . S
O102 Cd99 2.297 . S
O102 C104 1.247 . S
O103 Cd99 2.439 . S
O103 C104 1.208 . S
C104 O102 1.247 . S
C104 O103 1.208 . S
C105 O110 1.247 . S
C105 O111 1.208 1_655 S
C106 O98 1.315 . S
C106 O101 1.279 . S
C107 O108 1.315 1_455 S
C107 O109 1.279 . S
O108 Cd100 2.223 . S
O108 C107 1.315 1_655 S
O109 Cd99 2.240 . S
O109 C107 1.279 . S
O110 Cd100 2.297 . S
O110 C105 1.247 . S
O111 Cd100 2.439 1_455 S
O111 C105 1.208 1_455 S
O112 Cd113 2.223 . S
O112 C120 1.315 . S
Cd113 O112 2.223 . S
Cd113 O116 2.297 . S
Cd113 O117 2.439 . S
Cd113 O123 2.240 . S
Cd114 O115 2.240 . S
Cd114 O122 2.223 . S
Cd114 O124 2.297 . S
Cd114 O125 2.439 . S
O115 Cd114 2.240 . S
O115 C120 1.279 . S
O116 Cd113 2.297 . S
O116 C118 1.247 . S
O117 Cd113 2.439 . S
O117 C118 1.208 . S
C118 O116 1.247 . S
C118 O117 1.208 . S
C119 O124 1.247 . S
C119 O125 1.208 . S
C120 O112 1.315 . S
C120 O115 1.279 . S
C121 O122 1.315 . S
C121 O123 1.279 . S
O122 Cd114 2.223 . S
O122 C121 1.315 . S
O123 Cd113 2.240 . S
O123 C121 1.279 . S
O124 Cd114 2.297 . S
O124 C119 1.247 . S
O125 Cd114 2.439 . S
O125 C119 1.208 . S
O126 Cd127 2.223 . S
O126 C134 1.315 . S
Cd127 O126 2.223 . S
Cd127 O130 2.297 . S
Cd127 O131 2.439 . S
Cd127 O137 2.240 . S
Cd128 O129 2.240 1_455 S
Cd128 O136 2.223 . S
Cd128 O138 2.297 . S
Cd128 O139 2.439 1_455 S
O129 Cd128 2.240 1_655 S
O129 C134 1.279 . S
O130 Cd127 2.297 . S
O130 C132 1.247 . S
O131 Cd127 2.439 . S
O131 C132 1.208 . S
C132 O130 1.247 . S
C132 O131 1.208 . S
C133 O138 1.247 . S
C133 O139 1.208 1_455 S
C134 O126 1.315 . S
C134 O129 1.279 . S
C135 O136 1.315 1_655 S
C135 O137 1.279 . S
O136 Cd128 2.223 . S
O136 C135 1.315 1_455 S
O137 Cd127 2.240 . S
O137 C135 1.279 . S
O138 Cd128 2.297 . S
O138 C133 1.247 . S
O139 Cd128 2.439 1_655 S
O139 C133 1.208 1_655 S
O140 Cd141 2.223 . S
O140 C148 1.315 . S
Cd141 O140 2.223 . S
Cd141 O144 2.297 . S
Cd141 O145 2.439 . S
Cd141 O151 2.240 . S
Cd142 O143 2.240 . S
Cd142 O150 2.223 . S
Cd142 O152 2.297 . S
Cd142 O153 2.439 . S
O143 Cd142 2.240 . S
O143 C148 1.279 . S
O144 Cd141 2.297 . S
O144 C146 1.247 . S
O145 Cd141 2.439 . S
O145 C146 1.208 . S
C146 O144 1.247 . S
C146 O145 1.208 . S
C147 O152 1.247 . S
C147 O153 1.208 . S
C148 O140 1.315 . S
C148 O143 1.279 . S
C149 O150 1.315 . S
C149 O151 1.279 . S
O150 Cd142 2.223 . S
O150 C149 1.315 . S
O151 Cd141 2.240 . S
O151 C149 1.279 . S
O152 Cd142 2.297 . S
O152 C147 1.247 . S
O153 Cd142 2.439 . S
O153 C147 1.208 . S
O154 Cd155 2.223 . S
O154 C162 1.315 . S
Cd155 O154 2.223 . S
Cd155 O158 2.297 . S
Cd155 O159 2.439 . S
Cd155 O165 2.240 . S
Cd156 O157 2.240 1_455 S
Cd156 O164 2.223 . S
Cd156 O166 2.297 . S
Cd156 O167 2.439 1_455 S
O157 Cd156 2.240 1_655 S
O157 C162 1.279 . S
O158 Cd155 2.297 . S
O158 C160 1.247 . S
O159 Cd155 2.439 . S
O159 C160 1.208 . S
C160 O158 1.247 . S
C160 O159 1.208 . S
C161 O166 1.247 . S
C161 O167 1.208 1_455 S
C162 O154 1.315 . S
C162 O157 1.279 . S
C163 O164 1.315 1_655 S
C163 O165 1.279 . S
O164 Cd156 2.223 . S
O164 C163 1.315 1_455 S
O165 Cd155 2.240 . S
O165 C163 1.279 . S
O166 Cd156 2.297 . S
O166 C161 1.247 . S
O167 Cd156 2.439 1_655 S
O167 C161 1.208 1_655 S
O168 Cd169 2.223 . S
O168 C176 1.315 . S
Cd169 O168 2.223 . S
Cd169 O172 2.297 . S
Cd169 O173 2.439 . S
Cd169 O179 2.240 . S
Cd170 O171 2.240 . S
Cd170 O178 2.223 . S
Cd170 O180 2.297 . S
Cd170 O181 2.439 . S
O171 Cd170 2.240 . S
O171 C176 1.279 . S
O172 Cd169 2.297 . S
O172 C174 1.247 . S
O173 Cd169 2.439 . S
O173 C174 1.208 . S
C174 O172 1.247 . S
C174 O173 1.208 . S
C175 O180 1.247 . S
C175 O181 1.208 . S
C176 O168 1.315 . S
C176 O171 1.279 . S
C177 O178 1.315 . S
C177 O179 1.279 . S
O178 Cd170 2.223 . S
O178 C177 1.315 . S
O179 Cd169 2.240 . S
O179 C177 1.279 . S
O180 Cd170 2.297 . S
O180 C175 1.247 . S
O181 Cd170 2.439 . S
O181 C175 1.208 . S
O182 Cd183 2.223 . S
O182 C190 1.315 . S
Cd183 O182 2.223 . S
Cd183 O186 2.297 . S
Cd183 O187 2.439 . S
Cd183 O193 2.240 . S
Cd184 O185 2.240 1_655 S
Cd184 O192 2.223 . S
Cd184 O194 2.297 . S
Cd184 O195 2.439 1_655 S
O185 Cd184 2.240 1_455 S
O185 C190 1.279 . S
O186 Cd183 2.297 . S
O186 C188 1.247 . S
O187 Cd183 2.439 . S
O187 C188 1.208 . S
C188 O186 1.247 . S
C188 O187 1.208 . S
C189 O194 1.247 . S
C189 O195 1.208 1_655 S
C190 O182 1.315 . S
C190 O185 1.279 . S
C191 O192 1.315 1_455 S
C191 O193 1.279 . S
O192 Cd184 2.223 . S
O192 C191 1.315 1_655 S
O193 Cd183 2.240 . S
O193 C191 1.279 . S
O194 Cd184 2.297 . S
O194 C189 1.247 . S
O195 Cd184 2.439 1_455 S
O195 C189 1.208 1_455 S
O196 Cd197 2.223 . S
O196 C204 1.315 . S
Cd197 O196 2.223 . S
Cd197 O200 2.297 . S
Cd197 O201 2.439 . S
Cd197 O207 2.240 . S
Cd198 O199 2.240 . S
Cd198 O206 2.223 . S
Cd198 O208 2.297 . S
Cd198 O209 2.439 . S
O199 Cd198 2.240 . S
O199 C204 1.279 . S
O200 Cd197 2.297 . S
O200 C202 1.247 . S
O201 Cd197 2.439 . S
O201 C202 1.208 . S
C202 O200 1.247 . S
C202 O201 1.208 . S
C203 O208 1.247 . S
C203 O209 1.208 . S
C204 O196 1.315 . S
C204 O199 1.279 . S
C205 O206 1.315 . S
C205 O207 1.279 . S
O206 Cd198 2.223 . S
O206 C205 1.315 . S
O207 Cd197 2.240 . S
O207 C205 1.279 . S
O208 Cd198 2.297 . S
O208 C203 1.247 . S
O209 Cd198 2.439 . S
O209 C203 1.208 . S
O210 Cd211 2.223 . S
O210 C218 1.315 . S
Cd211 O210 2.223 . S
Cd211 O214 2.297 . S
Cd211 O215 2.439 . S
Cd211 O221 2.240 . S
Cd212 O213 2.240 1_655 S
Cd212 O220 2.223 . S
Cd212 O222 2.297 . S
Cd212 O223 2.439 1_655 S
O213 Cd212 2.240 1_455 S
O213 C218 1.279 . S
O214 Cd211 2.297 . S
O214 C216 1.247 . S
O215 Cd211 2.439 . S
O215 C216 1.208 . S
C216 O214 1.247 . S
C216 O215 1.208 . S
C217 O222 1.247 . S
C217 O223 1.208 1_655 S
C218 O210 1.315 . S
C218 O213 1.279 . S
C219 O220 1.315 1_455 S
C219 O221 1.279 . S
O220 Cd212 2.223 . S
O220 C219 1.315 1_655 S
O221 Cd211 2.240 . S
O221 C219 1.279 . S
O222 Cd212 2.297 . S
O222 C217 1.247 . S
O223 Cd212 2.439 1_455 S
O223 C217 1.208 1_455 S
O224 Cd225 2.223 . S
O224 C232 1.315 . S
Cd225 O224 2.223 . S
Cd225 O228 2.297 1_655 S
Cd225 O229 2.439 . S
Cd225 O235 2.240 . S
Cd226 O227 2.240 . S
Cd226 O234 2.223 . S
Cd226 O236 2.297 . S
Cd226 O237 2.439 . S
O227 Cd226 2.240 . S
O227 C232 1.279 . S
O228 Cd225 2.297 1_455 S
O228 C230 1.247 . S
O229 Cd225 2.439 . S
O229 C230 1.208 1_655 S
C230 O228 1.247 . S
C230 O229 1.208 1_455 S
C231 O236 1.247 . S
C231 O237 1.208 . S
C232 O224 1.315 . S
C232 O227 1.279 . S
C233 O234 1.315 . S
C233 O235 1.279 . S
O234 Cd226 2.223 . S
O234 C233 1.315 . S
O235 Cd225 2.240 . S
O235 C233 1.279 . S
O236 Cd226 2.297 . S
O236 C231 1.247 . S
O237 Cd226 2.439 . S
O237 C231 1.208 . S
O238 Cd239 2.223 . S
O238 C246 1.315 . S
Cd239 O238 2.223 . S
Cd239 O242 2.297 . S
Cd239 O243 2.439 . S
Cd239 O249 2.240 . S
Cd240 O241 2.240 . S
Cd240 O248 2.223 . S
Cd240 O250 2.297 . S
Cd240 O251 2.439 . S
O241 Cd240 2.240 . S
O241 C246 1.279 . S
O242 Cd239 2.297 . S
O242 C244 1.247 . S
O243 Cd239 2.439 . S
O243 C244 1.208 . S
C244 O242 1.247 . S
C244 O243 1.208 . S
C245 O250 1.247 . S
C245 O251 1.208 . S
C246 O238 1.315 . S
C246 O241 1.279 . S
C247 O248 1.315 . S
C247 O249 1.279 . S
O248 Cd240 2.223 . S
O248 C247 1.315 . S
O249 Cd239 2.240 . S
O249 C247 1.279 . S
O250 Cd240 2.297 . S
O250 C245 1.247 . S
O251 Cd240 2.439 . S
O251 C245 1.208 . S
O252 Cd253 2.223 . S
O252 C260 1.315 . S
Cd253 O252 2.223 . S
Cd253 O256 2.297 1_655 S
Cd253 O257 2.439 . S
Cd253 O263 2.240 . S
Cd254 O255 2.240 . S
Cd254 O262 2.223 . S
Cd254 O264 2.297 . S
Cd254 O265 2.439 . S
O255 Cd254 2.240 . S
O255 C260 1.279 . S
O256 Cd253 2.297 1_455 S
O256 C258 1.247 . S
O257 Cd253 2.439 . S
O257 C258 1.208 1_655 S
C258 O256 1.247 . S
C258 O257 1.208 1_455 S
C259 O264 1.247 . S
C259 O265 1.208 . S
C260 O252 1.315 . S
C260 O255 1.279 . S
C261 O262 1.315 . S
C261 O263 1.279 . S
O262 Cd254 2.223 . S
O262 C261 1.315 . S
O263 Cd253 2.240 . S
O263 C261 1.279 . S
O264 Cd254 2.297 . S
O264 C259 1.247 . S
O265 Cd254 2.439 . S
O265 C259 1.208 . S
O266 Cd267 2.223 . S
O266 C274 1.315 . S
Cd267 O266 2.223 . S
Cd267 O270 2.297 . S
Cd267 O271 2.439 . S
Cd267 O277 2.240 . S
Cd268 O269 2.240 . S
Cd268 O276 2.223 . S
Cd268 O278 2.297 . S
Cd268 O279 2.439 . S
O269 Cd268 2.240 . S
O269 C274 1.279 . S
O270 Cd267 2.297 . S
O270 C272 1.247 . S
O271 Cd267 2.439 . S
O271 C272 1.208 . S
C272 O270 1.247 . S
C272 O271 1.208 . S
C273 O278 1.247 . S
C273 O279 1.208 . S
C274 O266 1.315 . S
C274 O269 1.279 . S
C275 O276 1.315 . S
C275 O277 1.279 . S
O276 Cd268 2.223 . S
O276 C275 1.315 . S
O277 Cd267 2.240 . S
O277 C275 1.279 . S
O278 Cd268 2.297 . S
O278 C273 1.247 . S
O279 Cd268 2.439 . S
O279 C273 1.208 . S
O280 Cd281 2.223 . S
O280 C288 1.315 . S
Cd281 O280 2.223 . S
Cd281 O284 2.297 1_455 S
Cd281 O285 2.439 . S
Cd281 O291 2.240 . S
Cd282 O283 2.240 . S
Cd282 O290 2.223 . S
Cd282 O292 2.297 . S
Cd282 O293 2.439 . S
O283 Cd282 2.240 . S
O283 C288 1.279 . S
O284 Cd281 2.297 1_655 S
O284 C286 1.247 . S
O285 Cd281 2.439 . S
O285 C286 1.208 1_455 S
C286 O284 1.247 . S
C286 O285 1.208 1_655 S
C287 O292 1.247 . S
C287 O293 1.208 . S
C288 O280 1.315 . S
C288 O283 1.279 . S
C289 O290 1.315 . S
C289 O291 1.279 . S
O290 Cd282 2.223 . S
O290 C289 1.315 . S
O291 Cd281 2.240 . S
O291 C289 1.279 . S
O292 Cd282 2.297 . S
O292 C287 1.247 . S
O293 Cd282 2.439 . S
O293 C287 1.208 . S
O294 Cd295 2.223 . S
O294 C302 1.315 . S
Cd295 O294 2.223 . S
Cd295 O298 2.297 . S
Cd295 O299 2.439 . S
Cd295 O305 2.240 . S
Cd296 O297 2.240 . S
Cd296 O304 2.223 . S
Cd296 O306 2.297 . S
Cd296 O307 2.439 . S
O297 Cd296 2.240 . S
O297 C302 1.279 . S
O298 Cd295 2.297 . S
O298 C300 1.247 . S
O299 Cd295 2.439 . S
O299 C300 1.208 . S
C300 O298 1.247 . S
C300 O299 1.208 . S
C301 O306 1.247 . S
C301 O307 1.208 . S
C302 O294 1.315 . S
C302 O297 1.279 . S
C303 O304 1.315 . S
C303 O305 1.279 . S
O304 Cd296 2.223 . S
O304 C303 1.315 . S
O305 Cd295 2.240 . S
O305 C303 1.279 . S
O306 Cd296 2.297 . S
O306 C301 1.247 . S
O307 Cd296 2.439 . S
O307 C301 1.208 . S
O308 Cd309 2.223 . S
O308 C316 1.315 . S
Cd309 O308 2.223 . S
Cd309 O312 2.297 1_455 S
Cd309 O313 2.439 . S
Cd309 O319 2.240 . S
Cd310 O311 2.240 . S
Cd310 O318 2.223 . S
Cd310 O320 2.297 . S
Cd310 O321 2.439 . S
O311 Cd310 2.240 . S
O311 C316 1.279 . S
O312 Cd309 2.297 1_655 S
O312 C314 1.247 . S
O313 Cd309 2.439 . S
O313 C314 1.208 1_455 S
C314 O312 1.247 . S
C314 O313 1.208 1_655 S
C315 O320 1.247 . S
C315 O321 1.208 . S
C316 O308 1.315 . S
C316 O311 1.279 . S
C317 O318 1.315 . S
C317 O319 1.279 . S
O318 Cd310 2.223 . S
O318 C317 1.315 . S
O319 Cd309 2.240 . S
O319 C317 1.279 . S
O320 Cd310 2.297 . S
O320 C315 1.247 . S
O321 Cd310 2.439 . S
O321 C315 1.208 . S
O322 Cd323 2.223 . S
O322 C330 1.315 . S
Cd323 O322 2.223 . S
Cd323 O326 2.297 . S
Cd323 O327 2.439 . S
Cd323 O333 2.240 . S
Cd324 O325 2.240 . S
Cd324 O332 2.223 . S
Cd324 O334 2.297 . S
Cd324 O335 2.439 . S
O325 Cd324 2.240 . S
O325 C330 1.279 . S
O326 Cd323 2.297 . S
O326 C328 1.247 . S
O327 Cd323 2.439 . S
O327 C328 1.208 . S
C328 O326 1.247 . S
C328 O327 1.208 . S
C329 O334 1.247 . S
C329 O335 1.208 . S
C330 O322 1.315 . S
C330 O325 1.279 . S
C331 O332 1.315 . S
C331 O333 1.279 . S
O332 Cd324 2.223 . S
O332 C331 1.315 . S
O333 Cd323 2.240 . S
O333 C331 1.279 . S
O334 Cd324 2.297 . S
O334 C329 1.247 . S
O335 Cd324 2.439 . S
O335 C329 1.208 . S
O336 Cd337 2.223 . S
O336 C344 1.315 . S
Cd337 O336 2.223 . S
Cd337 O340 2.297 1_655 S
Cd337 O341 2.439 1_556 S
Cd337 O347 2.240 1_556 S
Cd338 O339 2.243 . S
Cd338 O346 2.224 . S
Cd338 O348 2.293 1_556 S
Cd338 O349 2.434 1_556 S
O339 Cd338 2.243 . S
O339 C344 1.279 . S
O340 Cd337 2.297 1_455 S
O340 C342 1.247 . S
O341 Cd337 2.439 1_554 S
O341 C342 1.208 1_654 S
C342 O340 1.247 . S
C342 O341 1.208 1_456 S
C343 O348 1.247 . S
C343 O349 1.208 . S
C344 O336 1.315 . S
C344 O339 1.279 . S
C345 O346 1.315 . S
C345 O347 1.279 1_556 S
O346 Cd338 2.224 . S
O346 C345 1.315 . S
O347 Cd337 2.240 1_554 S
O347 C345 1.279 1_554 S
O348 Cd338 2.293 1_554 S
O348 C343 1.247 . S
O349 Cd338 2.434 1_554 S
O349 C343 1.208 . S
O350 Cd351 2.223 . S
O350 C358 1.315 . S
Cd351 O350 2.223 . S
Cd351 O354 2.297 . S
Cd351 O355 2.439 1_556 S
Cd351 O361 2.240 1_556 S
Cd352 O353 2.243 . S
Cd352 O360 2.224 . S
Cd352 O362 2.293 1_556 S
Cd352 O363 2.434 1_556 S
O353 Cd352 2.243 . S
O353 C358 1.279 . S
O354 Cd351 2.297 . S
O354 C356 1.247 . S
O355 Cd351 2.439 1_554 S
O355 C356 1.208 1_554 S
C356 O354 1.247 . S
C356 O355 1.208 1_556 S
C357 O362 1.247 . S
C357 O363 1.208 . S
C358 O350 1.315 . S
C358 O353 1.279 . S
C359 O360 1.315 . S
C359 O361 1.279 1_556 S
O360 Cd352 2.224 . S
O360 C359 1.315 . S
O361 Cd351 2.240 1_554 S
O361 C359 1.279 1_554 S
O362 Cd352 2.293 1_554 S
O362 C357 1.247 . S
O363 Cd352 2.434 1_554 S
O363 C357 1.208 . S
O364 Cd365 2.223 . S
O364 C372 1.315 . S
Cd365 O364 2.223 . S
Cd365 O368 2.297 1_655 S
Cd365 O369 2.439 . S
Cd365 O375 2.240 . S
Cd366 O367 2.240 . S
Cd366 O374 2.223 . S
Cd366 O376 2.297 . S
Cd366 O377 2.439 . S
O367 Cd366 2.240 . S
O367 C372 1.279 . S
O368 Cd365 2.297 1_455 S
O368 C370 1.247 . S
O369 Cd365 2.439 . S
O369 C370 1.208 1_655 S
C370 O368 1.247 . S
C370 O369 1.208 1_455 S
C371 O376 1.247 . S
C371 O377 1.208 . S
C372 O364 1.315 . S
C372 O367 1.279 . S
C373 O374 1.315 . S
C373 O375 1.279 . S
O374 Cd366 2.223 . S
O374 C373 1.315 . S
O375 Cd365 2.240 . S
O375 C373 1.279 . S
O376 Cd366 2.297 . S
O376 C371 1.247 . S
O377 Cd366 2.439 . S
O377 C371 1.208 . S
O378 Cd379 2.223 . S
O378 C386 1.315 . S
Cd379 O378 2.223 . S
Cd379 O382 2.297 . S
Cd379 O383 2.439 . S
Cd379 O389 2.240 . S
Cd380 O381 2.240 . S
Cd380 O388 2.223 . S
Cd380 O390 2.297 . S
Cd380 O391 2.439 . S
O381 Cd380 2.240 . S
O381 C386 1.279 . S
O382 Cd379 2.297 . S
O382 C384 1.247 . S
O383 Cd379 2.439 . S
O383 C384 1.208 . S
C384 O382 1.247 . S
C384 O383 1.208 . S
C385 O390 1.247 . S
C385 O391 1.208 . S
C386 O378 1.315 . S
C386 O381 1.279 . S
C387 O388 1.315 . S
C387 O389 1.279 . S
O388 Cd380 2.223 . S
O388 C387 1.315 . S
O389 Cd379 2.240 . S
O389 C387 1.279 . S
O390 Cd380 2.297 . S
O390 C385 1.247 . S
O391 Cd380 2.439 . S
O391 C385 1.208 . S
O392 Cd393 2.223 . S
O392 C400 1.315 . S
Cd393 O392 2.223 . S
Cd393 O396 2.297 1_455 S
Cd393 O397 2.439 1_554 S
Cd393 O403 2.240 1_554 S
Cd394 O395 2.243 . S
Cd394 O402 2.224 . S
Cd394 O404 2.293 1_554 S
Cd394 O405 2.434 1_554 S
O395 Cd394 2.243 . S
O395 C400 1.279 . S
O396 Cd393 2.297 1_655 S
O396 C398 1.247 . S
O397 Cd393 2.439 1_556 S
O397 C398 1.208 1_456 S
C398 O396 1.247 . S
C398 O397 1.208 1_654 S
C399 O404 1.247 . S
C399 O405 1.208 . S
C400 O392 1.315 . S
C400 O395 1.279 . S
C401 O402 1.315 . S
C401 O403 1.279 1_554 S
O402 Cd394 2.224 . S
O402 C401 1.315 . S
O403 Cd393 2.240 1_556 S
O403 C401 1.279 1_556 S
O404 Cd394 2.293 1_556 S
O404 C399 1.247 . S
O405 Cd394 2.434 1_556 S
O405 C399 1.208 . S
O406 Cd407 2.223 . S
O406 C414 1.315 . S
Cd407 O406 2.223 . S
Cd407 O410 2.297 . S
Cd407 O411 2.439 1_554 S
Cd407 O417 2.240 1_554 S
Cd408 O409 2.243 . S
Cd408 O416 2.224 . S
Cd408 O418 2.293 1_554 S
Cd408 O419 2.434 1_554 S
O409 Cd408 2.243 . S
O409 C414 1.279 . S
O410 Cd407 2.297 . S
O410 C412 1.247 . S
O411 Cd407 2.439 1_556 S
O411 C412 1.208 1_556 S
C412 O410 1.247 . S
C412 O411 1.208 1_554 S
C413 O418 1.247 . S
C413 O419 1.208 . S
C414 O406 1.315 . S
C414 O409 1.279 . S
C415 O416 1.315 . S
C415 O417 1.279 1_554 S
O416 Cd408 2.224 . S
O416 C415 1.315 . S
O417 Cd407 2.240 1_556 S
O417 C415 1.279 1_556 S
O418 Cd408 2.293 1_556 S
O418 C413 1.247 . S
O419 Cd408 2.434 1_556 S
O419 C413 1.208 . S
O420 Cd421 2.223 . S
O420 C428 1.315 . S
Cd421 O420 2.223 . S
Cd421 O424 2.297 1_455 S
Cd421 O425 2.439 . S
Cd421 O431 2.240 . S
Cd422 O423 2.240 . S
Cd422 O430 2.223 . S
Cd422 O432 2.297 . S
Cd422 O433 2.439 . S
O423 Cd422 2.240 . S
O423 C428 1.279 . S
O424 Cd421 2.297 1_655 S
O424 C426 1.247 . S
O425 Cd421 2.439 . S
O425 C426 1.208 1_455 S
C426 O424 1.247 . S
C426 O425 1.208 1_655 S
C427 O432 1.247 . S
C427 O433 1.208 . S
C428 O420 1.315 . S
C428 O423 1.279 . S
C429 O430 1.315 . S
C429 O431 1.279 . S
O430 Cd422 2.223 . S
O430 C429 1.315 . S
O431 Cd421 2.240 . S
O431 C429 1.279 . S
O432 Cd422 2.297 . S
O432 C427 1.247 . S
O433 Cd422 2.439 . S
O433 C427 1.208 . S
O434 Cd435 2.223 . S
O434 C442 1.315 . S
Cd435 O434 2.223 . S
Cd435 O438 2.297 . S
Cd435 O439 2.439 . S
Cd435 O445 2.240 . S
Cd436 O437 2.240 . S
Cd436 O444 2.223 . S
Cd436 O446 2.297 . S
Cd436 O447 2.439 . S
O437 Cd436 2.240 . S
O437 C442 1.279 . S
O438 Cd435 2.297 . S
O438 C440 1.247 . S
O439 Cd435 2.439 . S
O439 C440 1.208 . S
C440 O438 1.247 . S
C440 O439 1.208 . S
C441 O446 1.247 . S
C441 O447 1.208 . S
C442 O434 1.315 . S
C442 O437 1.279 . S
C443 O444 1.315 . S
C443 O445 1.279 . S
O444 Cd436 2.223 . S
O444 C443 1.315 . S
O445 Cd435 2.240 . S
O445 C443 1.279 . S
O446 Cd436 2.297 . S
O446 C441 1.247 . S
O447 Cd436 2.439 . S
O447 C441 1.208 . S
H448 C454 0.930 . S
H449 C457 0.930 . S
H450 C458 0.930 1_655 S
H451 C459 0.930 . S
H452 C462 0.930 . S
H453 C463 0.930 . S
C454 H448 0.930 . S
C454 C455 1.355 . S
C454 C456 1.415 . S
C455 C454 1.355 . S
C455 C457 1.419 . S
C456 C454 1.415 . S
C456 C461 1.425 . S
C456 C463 1.409 . S
C457 H449 0.930 . S
C457 C455 1.419 . S
C457 C458 1.362 . S
C458 H450 0.930 1_455 S
C458 C457 1.362 . S
C458 C461 1.409 . S
C459 H451 0.930 . S
C459 C460 1.355 . S
C459 C461 1.415 . S
C460 C459 1.355 . S
C460 C462 1.419 . S
C461 C456 1.425 . S
C461 C458 1.409 . S
C461 C459 1.415 . S
C462 H452 0.930 . S
C462 C460 1.419 . S
C462 C463 1.362 . S
C463 H453 0.930 . S
C463 C456 1.409 . S
C463 C462 1.362 . S
H464 C470 0.930 . S
H465 C473 0.930 . S
H466 C474 0.930 . S
H467 C475 0.930 . S
H468 C478 0.930 . S
H469 C479 0.930 . S
C470 H464 0.930 . S
C470 C471 1.355 . S
C470 C472 1.415 . S
C471 C470 1.355 . S
C471 C473 1.419 . S
C472 C470 1.415 . S
C472 C477 1.425 . S
C472 C479 1.409 . S
C473 H465 0.930 . S
C473 C471 1.419 . S
C473 C474 1.362 . S
C474 H466 0.930 . S
C474 C473 1.362 . S
C474 C477 1.409 . S
C475 H467 0.930 . S
C475 C476 1.355 . S
C475 C477 1.415 . S
C476 C475 1.355 . S
C476 C478 1.419 . S
C477 C472 1.425 . S
C477 C474 1.409 . S
C477 C475 1.415 . S
C478 H468 0.930 . S
C478 C476 1.419 . S
C478 C479 1.362 . S
C479 H469 0.930 . S
C479 C472 1.409 . S
C479 C478 1.362 . S
H480 C486 0.930 . S
H481 C489 0.930 . S
H482 C490 0.930 . S
H483 C491 0.930 . S
H484 C494 0.930 . S
H485 C495 0.930 . S
C486 H480 0.930 . S
C486 C487 1.355 . S
C486 C488 1.415 . S
C487 C486 1.355 . S
C487 C489 1.419 . S
C488 C486 1.415 . S
C488 C493 1.425 . S
C488 C495 1.409 . S
C489 H481 0.930 . S
C489 C487 1.419 . S
C489 C490 1.362 . S
C490 H482 0.930 . S
C490 C489 1.362 . S
C490 C493 1.409 . S
C491 H483 0.930 . S
C491 C492 1.355 . S
C491 C493 1.415 . S
C492 C491 1.355 . S
C492 C494 1.419 . S
C493 C488 1.425 . S
C493 C490 1.409 . S
C493 C491 1.415 . S
C494 H484 0.930 . S
C494 C492 1.419 . S
C494 C495 1.362 . S
C495 H485 0.930 . S
C495 C488 1.409 . S
C495 C494 1.362 . S
H496 C502 0.930 . S
H497 C505 0.930 . S
H498 C506 0.930 1_455 S
H499 C507 0.930 1_455 S
H500 C510 0.930 . S
H501 C511 0.930 . S
C502 H496 0.930 . S
C502 C503 1.355 . S
C502 C504 1.415 . S
C503 C502 1.355 . S
C503 C505 1.419 . S
C504 C502 1.415 . S
C504 C509 1.425 . S
C504 C511 1.409 . S
C505 H497 0.930 . S
C505 C503 1.419 . S
C505 C506 1.362 . S
C506 H498 0.930 1_655 S
C506 C505 1.362 . S
C506 C509 1.409 . S
C507 H499 0.930 1_655 S
C507 C508 1.355 . S
C507 C509 1.415 . S
C508 C507 1.355 . S
C508 C510 1.419 . S
C509 C504 1.425 . S
C509 C506 1.409 . S
C509 C507 1.415 . S
C510 H500 0.930 . S
C510 C508 1.419 . S
C510 C511 1.362 . S
C511 H501 0.930 . S
C511 C504 1.409 . S
C511 C510 1.362 . S
H512 C518 0.930 . S
H513 C521 0.930 . S
H514 C522 0.930 . S
H515 C523 0.930 . S
H516 C526 0.930 . S
H517 C527 0.930 . S
C518 H512 0.930 . S
C518 C519 1.355 . S
C518 C520 1.415 . S
C519 C518 1.355 . S
C519 C521 1.419 . S
C520 C518 1.415 . S
C520 C525 1.425 . S
C520 C527 1.409 . S
C521 H513 0.930 . S
C521 C519 1.419 . S
C521 C522 1.362 . S
C522 H514 0.930 . S
C522 C521 1.362 . S
C522 C525 1.409 . S
C523 H515 0.930 . S
C523 C524 1.355 . S
C523 C525 1.415 . S
C524 C523 1.355 . S
C524 C526 1.419 . S
C525 C520 1.425 . S
C525 C522 1.409 . S
C525 C523 1.415 . S
C526 H516 0.930 . S
C526 C524 1.419 . S
C526 C527 1.362 . S
C527 H517 0.930 . S
C527 C520 1.409 . S
C527 C526 1.362 . S
H528 C534 0.930 . S
H529 C537 0.930 . S
H530 C538 0.930 . S
H531 C539 0.930 . S
H532 C542 0.930 . S
H533 C543 0.930 . S
C534 H528 0.930 . S
C534 C535 1.355 . S
C534 C536 1.415 . S
C535 C534 1.355 . S
C535 C537 1.419 . S
C536 C534 1.415 . S
C536 C541 1.425 . S
C536 C543 1.409 . S
C537 H529 0.930 . S
C537 C535 1.419 . S
C537 C538 1.362 . S
C538 H530 0.930 . S
C538 C537 1.362 . S
C538 C541 1.409 . S
C539 H531 0.930 . S
C539 C540 1.355 . S
C539 C541 1.415 . S
C540 C539 1.355 . S
C540 C542 1.419 . S
C541 C536 1.425 . S
C541 C538 1.409 . S
C541 C539 1.415 . S
C542 H532 0.930 . S
C542 C540 1.419 . S
C542 C543 1.362 . S
C543 H533 0.930 . S
C543 C536 1.409 . S
C543 C542 1.362 . S
H544 C550 0.930 . S
H545 C553 0.930 1_455 S
H546 C554 0.930 1_455 S
H547 C555 0.930 . S
H548 C558 0.930 . S
H549 C559 0.930 . S
C550 H544 0.930 . S
C550 C551 1.355 . S
C550 C552 1.415 . S
C551 C550 1.355 . S
C551 C553 1.419 . S
C552 C550 1.415 . S
C552 C557 1.425 . S
C552 C559 1.409 . S
C553 H545 0.930 1_655 S
C553 C551 1.419 . S
C553 C554 1.362 . S
C554 H546 0.930 1_655 S
C554 C553 1.362 . S
C554 C557 1.409 . S
C555 H547 0.930 . S
C555 C556 1.355 . S
C555 C557 1.415 . S
C556 C555 1.355 . S
C556 C558 1.419 . S
C557 C552 1.425 . S
C557 C554 1.409 . S
C557 C555 1.415 . S
C558 H548 0.930 . S
C558 C556 1.419 . S
C558 C559 1.362 . S
C559 H549 0.930 . S
C559 C552 1.409 . S
C559 C558 1.362 . S
H560 C566 0.930 . S
H561 C569 0.930 . S
H562 C570 0.930 . S
H563 C571 0.930 . S
H564 C574 0.930 1_455 S
H565 C575 0.930 . S
C566 H560 0.930 . S
C566 C567 1.355 . S
C566 C568 1.415 . S
C567 C566 1.355 . S
C567 C569 1.419 . S
C568 C566 1.415 . S
C568 C573 1.425 . S
C568 C575 1.409 . S
C569 H561 0.930 . S
C569 C567 1.419 . S
C569 C570 1.362 . S
C570 H562 0.930 . S
C570 C569 1.362 . S
C570 C573 1.409 . S
C571 H563 0.930 . S
C571 C572 1.355 . S
C571 C573 1.415 . S
C572 C571 1.355 . S
C572 C574 1.419 . S
C573 C568 1.425 . S
C573 C570 1.409 . S
C573 C571 1.415 . S
C574 H564 0.930 1_655 S
C574 C572 1.419 . S
C574 C575 1.362 . S
C575 H565 0.930 . S
C575 C568 1.409 . S
C575 C574 1.362 . S
H576 C582 0.930 . S
H577 C585 0.930 . S
H578 C586 0.930 . S
H579 C587 0.930 . S
H580 C590 0.930 . S
H581 C591 0.930 . S
C582 H576 0.930 . S
C582 C583 1.355 . S
C582 C584 1.415 . S
C583 C582 1.355 . S
C583 C585 1.419 . S
C584 C582 1.415 . S
C584 C589 1.425 . S
C584 C591 1.409 . S
C585 H577 0.930 . S
C585 C583 1.419 . S
C585 C586 1.362 . S
C586 H578 0.930 . S
C586 C585 1.362 . S
C586 C589 1.409 . S
C587 H579 0.930 . S
C587 C588 1.355 . S
C587 C589 1.415 . S
C588 C587 1.355 . S
C588 C590 1.419 . S
C589 C584 1.425 . S
C589 C586 1.409 . S
C589 C587 1.415 . S
C590 H580 0.930 . S
C590 C588 1.419 . S
C590 C591 1.362 . S
C591 H581 0.930 . S
C591 C584 1.409 . S
C591 C590 1.362 . S
H592 C598 0.930 . S
H593 C601 0.930 . S
H594 C602 0.930 . S
H595 C603 0.930 . S
H596 C606 0.930 . S
H597 C607 0.930 . S
C598 H592 0.930 . S
C598 C599 1.355 . S
C598 C600 1.415 . S
C599 C598 1.355 . S
C599 C601 1.419 . S
C600 C598 1.415 . S
C600 C605 1.425 . S
C600 C607 1.409 . S
C601 H593 0.930 . S
C601 C599 1.419 . S
C601 C602 1.362 . S
C602 H594 0.930 . S
C602 C601 1.362 . S
C602 C605 1.409 . S
C603 H595 0.930 . S
C603 C604 1.355 . S
C603 C605 1.415 . S
C604 C603 1.355 . S
C604 C606 1.419 . S
C605 C600 1.425 . S
C605 C602 1.409 . S
C605 C603 1.415 . S
C606 H596 0.930 . S
C606 C604 1.419 . S
C606 C607 1.362 . S
C607 H597 0.930 . S
C607 C600 1.409 . S
C607 C606 1.362 . S
H608 C614 0.930 . S
H609 C617 0.930 . S
H610 C618 0.930 . S
H611 C619 0.930 . S
H612 C622 0.930 . S
H613 C623 0.930 . S
C614 H608 0.930 . S
C614 C615 1.355 . S
C614 C616 1.415 . S
C615 C614 1.355 . S
C615 C617 1.419 . S
C616 C614 1.415 . S
C616 C621 1.425 . S
C616 C623 1.409 . S
C617 H609 0.930 . S
C617 C615 1.419 . S
C617 C618 1.362 . S
C618 H610 0.930 . S
C618 C617 1.362 . S
C618 C621 1.409 . S
C619 H611 0.930 . S
C619 C620 1.355 . S
C619 C621 1.415 . S
C620 C619 1.355 . S
C620 C622 1.419 . S
C621 C616 1.425 . S
C621 C618 1.409 . S
C621 C619 1.415 . S
C622 H612 0.930 . S
C622 C620 1.419 . S
C622 C623 1.362 . S
C623 H613 0.930 . S
C623 C616 1.409 . S
C623 C622 1.362 . S
H624 C630 0.930 . S
H625 C633 0.930 . S
H626 C634 0.930 . S
H627 C635 0.930 . S
H628 C638 0.930 . S
H629 C639 0.930 . S
C630 H624 0.930 . S
C630 C631 1.355 . S
C630 C632 1.415 . S
C631 C630 1.355 . S
C631 C633 1.419 . S
C632 C630 1.415 . S
C632 C637 1.425 . S
C632 C639 1.409 . S
C633 H625 0.930 . S
C633 C631 1.419 . S
C633 C634 1.362 . S
C634 H626 0.930 . S
C634 C633 1.362 . S
C634 C637 1.409 . S
C635 H627 0.930 . S
C635 C636 1.355 . S
C635 C637 1.415 . S
C636 C635 1.355 . S
C636 C638 1.419 . S
C637 C632 1.425 . S
C637 C634 1.409 . S
C637 C635 1.415 . S
C638 H628 0.930 . S
C638 C636 1.419 . S
C638 C639 1.362 . S
C639 H629 0.930 . S
C639 C632 1.409 . S
C639 C638 1.362 . S
H640 C646 0.930 . S
H641 C649 0.930 . S
H642 C650 0.930 . S
H643 C651 0.930 . S
H644 C654 0.930 . S
H645 C655 0.930 . S
C646 H640 0.930 . S
C646 C647 1.355 . S
C646 C648 1.415 . S
C647 C646 1.355 . S
C647 C649 1.419 . S
C648 C646 1.415 . S
C648 C653 1.425 . S
C648 C655 1.409 . S
C649 H641 0.930 . S
C649 C647 1.419 . S
C649 C650 1.362 . S
C650 H642 0.930 . S
C650 C649 1.362 . S
C650 C653 1.409 . S
C651 H643 0.930 . S
C651 C652 1.355 . S
C651 C653 1.415 . S
C652 C651 1.355 . S
C652 C654 1.419 . S
C653 C648 1.425 . S
C653 C650 1.409 . S
C653 C651 1.415 . S
C654 H644 0.930 . S
C654 C652 1.419 . S
C654 C655 1.362 . S
C655 H645 0.930 . S
C655 C648 1.409 . S
C655 C654 1.362 . S
H656 C662 0.930 . S
H657 C665 0.930 . S
H658 C666 0.930 . S
H659 C667 0.930 . S
H660 C670 0.930 . S
H661 C671 0.930 . S
C662 H656 0.930 . S
C662 C663 1.355 . S
C662 C664 1.415 . S
C663 C662 1.355 . S
C663 C665 1.419 . S
C664 C662 1.415 . S
C664 C669 1.425 . S
C664 C671 1.409 . S
C665 H657 0.930 . S
C665 C663 1.419 . S
C665 C666 1.362 . S
C666 H658 0.930 . S
C666 C665 1.362 . S
C666 C669 1.409 . S
C667 H659 0.930 . S
C667 C668 1.355 . S
C667 C669 1.415 . S
C668 C667 1.355 . S
C668 C670 1.419 . S
C669 C664 1.425 . S
C669 C666 1.409 . S
C669 C667 1.415 . S
C670 H660 0.930 . S
C670 C668 1.419 . S
C670 C671 1.362 . S
C671 H661 0.930 . S
C671 C664 1.409 . S
C671 C670 1.362 . S
H672 C678 0.930 . S
H673 C681 0.930 . S
H674 C682 0.930 . S
H675 C683 0.930 . S
H676 C686 0.930 . S
H677 C687 0.930 . S
C678 H672 0.930 . S
C678 C679 1.355 . S
C678 C680 1.415 . S
C679 C678 1.355 . S
C679 C681 1.419 . S
C680 C678 1.415 . S
C680 C685 1.425 . S
C680 C687 1.409 . S
C681 H673 0.930 . S
C681 C679 1.419 . S
C681 C682 1.362 . S
C682 H674 0.930 . S
C682 C681 1.362 . S
C682 C685 1.409 . S
C683 H675 0.930 . S
C683 C684 1.355 . S
C683 C685 1.415 . S
C684 C683 1.355 . S
C684 C686 1.419 . S
C685 C680 1.425 . S
C685 C682 1.409 . S
C685 C683 1.415 . S
C686 H676 0.930 . S
C686 C684 1.419 . S
C686 C687 1.362 . S
C687 H677 0.930 . S
C687 C680 1.409 . S
C687 C686 1.362 . S
H688 C694 0.930 . S
H689 C697 0.930 . S
H690 C698 0.930 . S
H691 C699 0.930 . S
H692 C702 0.930 . S
H693 C703 0.930 . S
C694 H688 0.930 . S
C694 C695 1.355 . S
C694 C696 1.415 . S
C695 C694 1.355 . S
C695 C697 1.419 . S
C696 C694 1.415 . S
C696 C701 1.425 . S
C696 C703 1.409 . S
C697 H689 0.930 . S
C697 C695 1.419 . S
C697 C698 1.362 . S
C698 H690 0.930 . S
C698 C697 1.362 . S
C698 C701 1.409 . S
C699 H691 0.930 . S
C699 C700 1.355 . S
C699 C701 1.415 . S
C700 C699 1.355 . S
C700 C702 1.419 . S
C701 C696 1.425 . S
C701 C698 1.409 . S
C701 C699 1.415 . S
C702 H692 0.930 . S
C702 C700 1.419 . S
C702 C703 1.362 . S
C703 H693 0.930 . S
C703 C696 1.409 . S
C703 C702 1.362 . S
H704 C710 0.930 . S
H705 C713 0.930 . S
H706 C714 0.930 . S
H707 C715 0.930 . S
H708 C718 0.930 . S
H709 C719 0.930 . S
C710 H704 0.930 . S
C710 C711 1.339 1_556 S
C710 C712 1.415 . S
C711 C710 1.339 1_554 S
C711 C713 1.439 . S
C712 C710 1.415 . S
C712 C717 1.425 1_546 S
C712 C719 1.409 1_545 S
C713 H705 0.930 . S
C713 C711 1.439 . S
C713 C714 1.362 . S
C714 H706 0.930 . S
C714 C713 1.362 . S
C714 C717 1.409 1_545 S
C715 H707 0.930 . S
C715 C716 1.339 1_554 S
C715 C717 1.415 . S
C716 C715 1.339 1_556 S
C716 C718 1.439 . S
C717 C712 1.425 1_564 S
C717 C714 1.409 1_565 S
C717 C715 1.415 . S
C718 H708 0.930 . S
C718 C716 1.439 . S
C718 C719 1.362 . S
C719 H709 0.930 . S
C719 C712 1.409 1_565 S
C719 C718 1.362 . S
H720 C726 0.930 . S
H721 C729 0.930 . S
H722 C730 0.930 . S
H723 C731 0.930 . S
H724 C734 0.930 . S
H725 C735 0.930 . S
C726 H720 0.930 . S
C726 C727 1.355 1_554 S
C726 C728 1.415 . S
C727 C726 1.355 1_556 S
C727 C729 1.419 . S
C728 C726 1.415 . S
C728 C733 1.425 1_554 S
C728 C735 1.409 . S
C729 H721 0.930 . S
C729 C727 1.419 . S
C729 C730 1.362 . S
C730 H722 0.930 . S
C730 C729 1.362 . S
C730 C733 1.409 . S
C731 H723 0.930 . S
C731 C732 1.355 1_556 S
C731 C733 1.415 . S
C732 C731 1.355 1_554 S
C732 C734 1.419 . S
C733 C728 1.425 1_556 S
C733 C730 1.409 . S
C733 C731 1.415 . S
C734 H724 0.930 . S
C734 C732 1.419 . S
C734 C735 1.362 . S
C735 H725 0.930 . S
C735 C728 1.409 . S
C735 C734 1.362 . S
H736 C742 0.930 . S
H737 C745 0.930 . S
H738 C746 0.930 . S
H739 C747 0.930 . S
H740 C750 0.930 . S
H741 C751 0.930 . S
C742 H736 0.930 . S
C742 C743 1.355 . S
C742 C744 1.415 . S
C743 C742 1.355 . S
C743 C745 1.419 . S
C744 C742 1.415 . S
C744 C749 1.425 . S
C744 C751 1.409 . S
C745 H737 0.930 . S
C745 C743 1.419 . S
C745 C746 1.362 . S
C746 H738 0.930 . S
C746 C745 1.362 . S
C746 C749 1.409 . S
C747 H739 0.930 . S
C747 C748 1.355 . S
C747 C749 1.415 . S
C748 C747 1.355 . S
C748 C750 1.419 . S
C749 C744 1.425 . S
C749 C746 1.409 . S
C749 C747 1.415 . S
C750 H740 0.930 . S
C750 C748 1.419 . S
C750 C751 1.362 . S
C751 H741 0.930 . S
C751 C744 1.409 . S
C751 C750 1.362 . S
H752 C758 0.930 . S
H753 C761 0.930 . S
H754 C762 0.930 . S
H755 C763 0.930 . S
H756 C766 0.930 . S
H757 C767 0.930 . S
C758 H752 0.930 . S
C758 C759 1.355 . S
C758 C760 1.415 . S
C759 C758 1.355 . S
C759 C761 1.419 . S
C760 C758 1.415 . S
C760 C765 1.425 1_565 S
C760 C767 1.409 1_565 S
C761 H753 0.930 . S
C761 C759 1.419 . S
C761 C762 1.362 . S
C762 H754 0.930 . S
C762 C761 1.362 . S
C762 C765 1.409 1_565 S
C763 H755 0.930 . S
C763 C764 1.355 . S
C763 C765 1.415 . S
C764 C763 1.355 . S
C764 C766 1.419 . S
C765 C760 1.425 1_545 S
C765 C762 1.409 1_545 S
C765 C763 1.415 . S
C766 H756 0.930 . S
C766 C764 1.419 . S
C766 C767 1.362 . S
C767 H757 0.930 . S
C767 C760 1.409 1_545 S
C767 C766 1.362 . S
H768 C774 0.930 . S
H769 C777 0.930 . S
H770 C778 0.930 . S
H771 C779 0.930 . S
H772 C782 0.930 . S
H773 C783 0.930 . S
C774 H768 0.930 . S
C774 C775 1.355 1_556 S
C774 C776 1.415 . S
C775 C774 1.355 1_554 S
C775 C777 1.419 . S
C776 C774 1.415 . S
C776 C781 1.425 1_556 S
C776 C783 1.409 . S
C777 H769 0.930 . S
C777 C775 1.419 . S
C777 C778 1.362 . S
C778 H770 0.930 . S
C778 C777 1.362 . S
C778 C781 1.409 . S
C779 H771 0.930 . S
C779 C780 1.355 1_554 S
C779 C781 1.415 . S
C780 C779 1.355 1_556 S
C780 C782 1.419 . S
C781 C776 1.425 1_554 S
C781 C778 1.409 . S
C781 C779 1.415 . S
C782 H772 0.930 . S
C782 C780 1.419 . S
C782 C783 1.362 . S
C783 H773 0.930 . S
C783 C776 1.409 . S
C783 C782 1.362 . S
H784 C790 0.930 . S
H785 C793 0.930 . S
H786 C794 0.930 . S
H787 C795 0.930 . S
H788 C798 0.930 . S
H789 C799 0.930 . S
C790 H784 0.930 . S
C790 C791 1.355 . S
C790 C792 1.415 . S
C791 C790 1.355 . S
C791 C793 1.419 . S
C792 C790 1.415 . S
C792 C797 1.425 . S
C792 C799 1.409 . S
C793 H785 0.930 . S
C793 C791 1.419 . S
C793 C794 1.362 . S
C794 H786 0.930 . S
C794 C793 1.362 . S
C794 C797 1.409 . S
C795 H787 0.930 . S
C795 C796 1.355 . S
C795 C797 1.415 . S
C796 C795 1.355 . S
C796 C798 1.419 . S
C797 C792 1.425 . S
C797 C794 1.409 . S
C797 C795 1.415 . S
C798 H788 0.930 . S
C798 C796 1.419 . S
C798 C799 1.362 . S
C799 H789 0.930 . S
C799 C792 1.409 . S
C799 C798 1.362 . S
H800 C806 0.930 . S
H801 C809 0.930 . S
H802 C810 0.930 . S
H803 C811 0.930 . S
H804 C814 0.930 . S
H805 C815 0.930 . S
C806 H800 0.930 . S
C806 C807 1.355 . S
C806 C808 1.415 . S
C807 C806 1.355 . S
C807 C809 1.419 . S
C808 C806 1.415 . S
C808 C813 1.425 1_565 S
C808 C815 1.409 1_565 S
C809 H801 0.930 . S
C809 C807 1.419 . S
C809 C810 1.362 . S
C810 H802 0.930 . S
C810 C809 1.362 . S
C810 C813 1.409 1_565 S
C811 H803 0.930 . S
C811 C812 1.355 . S
C811 C813 1.415 . S
C812 C811 1.355 . S
C812 C814 1.419 . S
C813 C808 1.425 1_545 S
C813 C810 1.409 1_545 S
C813 C811 1.415 . S
C814 H804 0.930 . S
C814 C812 1.419 . S
C814 C815 1.362 . S
C815 H805 0.930 . S
C815 C808 1.409 1_545 S
C815 C814 1.362 . S
H816 C822 0.930 . S
H817 C825 0.930 . S
H818 C826 0.930 . S
H819 C827 0.930 . S
H820 C830 0.930 . S
H821 C831 0.930 . S
C822 H816 0.930 . S
C822 C823 1.355 . S
C822 C824 1.415 . S
C823 C822 1.355 . S
C823 C825 1.419 . S
C824 C822 1.415 . S
C824 C829 1.425 . S
C824 C831 1.409 . S
C825 H817 0.930 . S
C825 C823 1.419 . S
C825 C826 1.362 . S
C826 H818 0.930 . S
C826 C825 1.362 . S
C826 C829 1.409 . S
C827 H819 0.930 . S
C827 C828 1.355 . S
C827 C829 1.415 . S
C828 C827 1.355 . S
C828 C830 1.419 . S
C829 C824 1.425 . S
C829 C826 1.409 . S
C829 C827 1.415 . S
C830 H820 0.930 . S
C830 C828 1.419 . S
C830 C831 1.362 . S
C831 H821 0.930 . S
C831 C824 1.409 . S
C831 C830 1.362 . S
H832 C838 0.930 . S
H833 C841 0.930 . S
H834 C842 0.930 . S
H835 C843 0.930 . S
H836 C846 0.930 . S
H837 C847 0.930 . S
C838 H832 0.930 . S
C838 C839 1.355 . S
C838 C840 1.415 . S
C839 C838 1.355 . S
C839 C841 1.419 . S
C840 C838 1.415 . S
C840 C845 1.425 . S
C840 C847 1.409 . S
C841 H833 0.930 . S
C841 C839 1.419 . S
C841 C842 1.362 . S
C842 H834 0.930 . S
C842 C841 1.362 . S
C842 C845 1.409 . S
C843 H835 0.930 . S
C843 C844 1.355 . S
C843 C845 1.415 . S
C844 C843 1.355 . S
C844 C846 1.419 . S
C845 C840 1.425 . S
C845 C842 1.409 . S
C845 C843 1.415 . S
C846 H836 0.930 . S
C846 C844 1.419 . S
C846 C847 1.362 . S
C847 H837 0.930 . S
C847 C840 1.409 . S
C847 C846 1.362 . S
H848 C854 0.930 . S
H849 C857 0.930 . S
H850 C858 0.930 . S
H851 C859 0.930 . S
H852 C862 0.930 . S
H853 C863 0.930 . S
C854 H848 0.930 . S
C854 C855 1.355 . S
C854 C856 1.415 . S
C855 C854 1.355 . S
C855 C857 1.419 . S
C856 C854 1.415 . S
C856 C861 1.425 . S
C856 C863 1.409 . S
C857 H849 0.930 . S
C857 C855 1.419 . S
C857 C858 1.362 . S
C858 H850 0.930 . S
C858 C857 1.362 . S
C858 C861 1.409 . S
C859 H851 0.930 . S
C859 C860 1.355 . S
C859 C861 1.415 . S
C860 C859 1.355 . S
C860 C862 1.419 . S
C861 C856 1.425 . S
C861 C858 1.409 . S
C861 C859 1.415 . S
C862 H852 0.930 . S
C862 C860 1.419 . S
C862 C863 1.362 . S
C863 H853 0.930 . S
C863 C856 1.409 . S
C863 C862 1.362 . S
H864 C870 0.930 . S
H865 C873 0.930 . S
H866 C874 0.930 . S
H867 C875 0.930 . S
H868 C878 0.930 . S
H869 C879 0.930 . S
C870 H864 0.930 . S
C870 C871 1.355 . S
C870 C872 1.415 . S
C871 C870 1.355 . S
C871 C873 1.419 . S
C872 C870 1.415 . S
C872 C877 1.425 . S
C872 C879 1.409 . S
C873 H865 0.930 . S
C873 C871 1.419 . S
C873 C874 1.362 . S
C874 H866 0.930 . S
C874 C873 1.362 . S
C874 C877 1.409 . S
C875 H867 0.930 . S
C875 C876 1.355 . S
C875 C877 1.415 . S
C876 C875 1.355 . S
C876 C878 1.419 . S
C877 C872 1.425 . S
C877 C874 1.409 . S
C877 C875 1.415 . S
C878 H868 0.930 . S
C878 C876 1.419 . S
C878 C879 1.362 . S
C879 H869 0.930 . S
C879 C872 1.409 . S
C879 C878 1.362 . S
H880 C886 0.930 . S
H881 C889 0.930 . S
H882 C890 0.930 . S
H883 C891 0.930 . S
H884 C894 0.930 . S
H885 C895 0.930 . S
C886 H880 0.930 . S
C886 C887 1.355 . S
C886 C888 1.415 . S
C887 C886 1.355 . S
C887 C889 1.419 . S
C888 C886 1.415 . S
C888 C893 1.425 . S
C888 C895 1.409 . S
C889 H881 0.930 . S
C889 C887 1.419 . S
C889 C890 1.362 . S
C890 H882 0.930 . S
C890 C889 1.362 . S
C890 C893 1.409 . S
C891 H883 0.930 . S
C891 C892 1.355 . S
C891 C893 1.415 . S
C892 C891 1.355 . S
C892 C894 1.419 . S
C893 C888 1.425 . S
C893 C890 1.409 . S
C893 C891 1.415 . S
C894 H884 0.930 . S
C894 C892 1.419 . S
C894 C895 1.362 . S
C895 H885 0.930 . S
C895 C888 1.409 . S
C895 C894 1.362 . S
H896 C902 0.930 . S
H897 C905 0.930 . S
H898 C906 0.930 . S
H899 C907 0.930 . S
H900 C910 0.930 . S
H901 C911 0.930 . S
C902 H896 0.930 . S
C902 C903 1.355 . S
C902 C904 1.415 . S
C903 C902 1.355 . S
C903 C905 1.419 1_655 S
C904 C902 1.415 . S
C904 C909 1.425 1_665 S
C904 C911 1.409 1_565 S
C905 H897 0.930 . S
C905 C903 1.419 1_455 S
C905 C906 1.362 . S
C906 H898 0.930 . S
C906 C905 1.362 . S
C906 C909 1.409 1_565 S
C907 H899 0.930 . S
C907 C908 1.355 . S
C907 C909 1.415 . S
C908 C907 1.355 . S
C908 C910 1.419 1_455 S
C909 C904 1.425 1_445 S
C909 C906 1.409 1_545 S
C909 C907 1.415 . S
C910 H900 0.930 . S
C910 C908 1.419 1_655 S
C910 C911 1.362 . S
C911 H901 0.930 . S
C911 C904 1.409 1_545 S
C911 C910 1.362 . S
H912 C918 0.930 . S
H913 C921 0.930 . S
H914 C922 0.930 . S
H915 C923 0.930 . S
H916 C926 0.930 . S
H917 C927 0.930 . S
C918 H912 0.930 . S
C918 C919 1.355 1_655 S
C918 C920 1.415 . S
C919 C918 1.355 1_455 S
C919 C921 1.419 . S
C920 C918 1.415 . S
C920 C925 1.425 1_655 S
C920 C927 1.409 . S
C921 H913 0.930 . S
C921 C919 1.419 . S
C921 C922 1.362 . S
C922 H914 0.930 . S
C922 C921 1.362 . S
C922 C925 1.409 . S
C923 H915 0.930 . S
C923 C924 1.355 1_455 S
C923 C925 1.415 . S
C924 C923 1.355 1_655 S
C924 C926 1.419 . S
C925 C920 1.425 1_455 S
C925 C922 1.409 . S
C925 C923 1.415 . S
C926 H916 0.930 . S
C926 C924 1.419 . S
C926 C927 1.362 . S
C927 H917 0.930 . S
C927 C920 1.409 . S
C927 C926 1.362 . S
H928 C934 0.930 . S
H929 C937 0.930 . S
H930 C938 0.930 . S
H931 C939 0.930 . S
H932 C942 0.930 . S
H933 C943 0.930 . S
C934 H928 0.930 . S
C934 C935 1.355 . S
C934 C936 1.415 . S
C935 C934 1.355 . S
C935 C937 1.419 1_655 S
C936 C934 1.415 . S
C936 C941 1.425 1_655 S
C936 C943 1.409 . S
C937 H929 0.930 . S
C937 C935 1.419 1_455 S
C937 C938 1.362 . S
C938 H930 0.930 . S
C938 C937 1.362 . S
C938 C941 1.409 . S
C939 H931 0.930 . S
C939 C940 1.355 . S
C939 C941 1.415 . S
C940 C939 1.355 . S
C940 C942 1.419 1_455 S
C941 C936 1.425 1_455 S
C941 C938 1.409 . S
C941 C939 1.415 . S
C942 H932 0.930 . S
C942 C940 1.419 1_655 S
C942 C943 1.362 . S
C943 H933 0.930 . S
C943 C936 1.409 . S
C943 C942 1.362 . S
H944 C950 0.930 . S
H945 C953 0.930 . S
H946 C954 0.930 . S
H947 C955 0.930 . S
H948 C958 0.930 . S
H949 C959 0.930 . S
C950 H944 0.930 . S
C950 C951 1.357 . S
C950 C952 1.415 . S
C951 C950 1.357 . S
C951 C953 1.416 1_656 S
C952 C950 1.415 . S
C952 C957 1.425 1_656 S
C952 C959 1.409 . S
C953 H945 0.930 . S
C953 C951 1.416 1_454 S
C953 C954 1.362 . S
C954 H946 0.930 . S
C954 C953 1.362 . S
C954 C957 1.409 . S
C955 H947 0.930 . S
C955 C956 1.357 . S
C955 C957 1.415 . S
C956 C955 1.357 . S
C956 C958 1.416 1_454 S
C957 C952 1.425 1_454 S
C957 C954 1.409 . S
C957 C955 1.415 . S
C958 H948 0.930 . S
C958 C956 1.416 1_656 S
C958 C959 1.362 . S
C959 H949 0.930 . S
C959 C952 1.409 . S
C959 C958 1.362 . S
H960 C966 0.930 . S
H961 C969 0.930 . S
H962 C970 0.930 . S
H963 C971 0.930 . S
H964 C974 0.930 . S
H965 C975 0.930 . S
C966 H960 0.930 . S
C966 C967 1.355 . S
C966 C968 1.415 . S
C967 C966 1.355 . S
C967 C969 1.419 . S
C968 C966 1.415 . S
C968 C973 1.425 . S
C968 C975 1.409 . S
C969 H961 0.930 . S
C969 C967 1.419 . S
C969 C970 1.362 . S
C970 H962 0.930 . S
C970 C969 1.362 . S
C970 C973 1.409 . S
C971 H963 0.930 . S
C971 C972 1.355 . S
C971 C973 1.415 . S
C972 C971 1.355 . S
C972 C974 1.419 . S
C973 C968 1.425 . S
C973 C970 1.409 . S
C973 C971 1.415 . S
C974 H964 0.930 . S
C974 C972 1.419 . S
C974 C975 1.362 . S
C975 H965 0.930 . S
C975 C968 1.409 . S
C975 C974 1.362 . S
H976 C982 0.930 . S
H977 C985 0.930 1_455 S
H978 C986 0.930 1_455 S
H979 C987 0.930 . S
H980 C990 0.930 . S
H981 C991 0.930 . S
C982 H976 0.930 . S
C982 C983 1.355 . S
C982 C984 1.415 . S
C983 C982 1.355 . S
C983 C985 1.419 . S
C984 C982 1.415 . S
C984 C989 1.425 . S
C984 C991 1.409 . S
C985 H977 0.930 1_655 S
C985 C983 1.419 . S
C985 C986 1.362 . S
C986 H978 0.930 1_655 S
C986 C985 1.362 . S
C986 C989 1.409 . S
C987 H979 0.930 . S
C987 C988 1.355 . S
C987 C989 1.415 . S
C988 C987 1.355 . S
C988 C990 1.419 . S
C989 C984 1.425 . S
C989 C986 1.409 . S
C989 C987 1.415 . S
C990 H980 0.930 . S
C990 C988 1.419 . S
C990 C991 1.362 . S
C991 H981 0.930 . S
C991 C984 1.409 . S
C991 C990 1.362 . S
H992 C998 0.930 . S
H993 C1001 0.930 . S
H994 C1002 0.930 . S
H995 C1003 0.930 . S
H996 C1006 0.930 . S
H997 C1007 0.930 . S
C998 H992 0.930 . S
C998 C999 1.355 . S
C998 C1000 1.415 . S
C999 C998 1.355 . S
C999 C1001 1.419 . S
C1000 C998 1.415 . S
C1000 C1005 1.425 . S
C1000 C1007 1.409 . S
C1001 H993 0.930 . S
C1001 C999 1.419 . S
C1001 C1002 1.362 . S
C1002 H994 0.930 . S
C1002 C1001 1.362 . S
C1002 C1005 1.409 . S
C1003 H995 0.930 . S
C1003 C1004 1.355 . S
C1003 C1005 1.415 . S
C1004 C1003 1.355 . S
C1004 C1006 1.419 . S
C1005 C1000 1.425 . S
C1005 C1002 1.409 . S
C1005 C1003 1.415 . S
C1006 H996 0.930 . S
C1006 C1004 1.419 . S
C1006 C1007 1.362 . S
C1007 H997 0.930 . S
C1007 C1000 1.409 . S
C1007 C1006 1.362 . S
H1008 C1014 0.930 . S
H1009 C1017 0.930 . S
H1010 C1018 0.930 . S
H1011 C1019 0.930 . S
H1012 C1022 0.930 . S
H1013 C1023 0.930 1_455 S
C1014 H1008 0.930 . S
C1014 C1015 1.355 . S
C1014 C1016 1.415 . S
C1015 C1014 1.355 . S
C1015 C1017 1.419 . S
C1016 C1014 1.415 . S
C1016 C1021 1.425 . S
C1016 C1023 1.409 . S
C1017 H1009 0.930 . S
C1017 C1015 1.419 . S
C1017 C1018 1.362 . S
C1018 H1010 0.930 . S
C1018 C1017 1.362 . S
C1018 C1021 1.409 . S
C1019 H1011 0.930 . S
C1019 C1020 1.355 . S
C1019 C1021 1.415 . S
C1020 C1019 1.355 . S
C1020 C1022 1.419 1_655 S
C1021 C1016 1.425 . S
C1021 C1018 1.409 . S
C1021 C1019 1.415 . S
C1022 H1012 0.930 . S
C1022 C1020 1.419 1_455 S
C1022 C1023 1.362 1_455 S
C1023 H1013 0.930 1_655 S
C1023 C1016 1.409 . S
C1023 C1022 1.362 1_655 S
H1024 C1030 0.930 . S
H1025 C1033 0.930 . S
H1026 C1034 0.930 . S
H1027 C1035 0.930 . S
H1028 C1038 0.930 . S
H1029 C1039 0.930 . S
C1030 H1024 0.930 . S
C1030 C1031 1.355 . S
C1030 C1032 1.415 . S
C1031 C1030 1.355 . S
C1031 C1033 1.419 . S
C1032 C1030 1.415 . S
C1032 C1037 1.425 . S
C1032 C1039 1.409 . S
C1033 H1025 0.930 . S
C1033 C1031 1.419 . S
C1033 C1034 1.362 . S
C1034 H1026 0.930 . S
C1034 C1033 1.362 . S
C1034 C1037 1.409 . S
C1035 H1027 0.930 . S
C1035 C1036 1.355 . S
C1035 C1037 1.415 . S
C1036 C1035 1.355 . S
C1036 C1038 1.419 . S
C1037 C1032 1.425 . S
C1037 C1034 1.409 . S
C1037 C1035 1.415 . S
C1038 H1028 0.930 . S
C1038 C1036 1.419 . S
C1038 C1039 1.362 . S
C1039 H1029 0.930 . S
C1039 C1032 1.409 . S
C1039 C1038 1.362 . S
H1040 C1046 0.930 . S
H1041 C1049 0.930 1_655 S
H1042 C1050 0.930 1_655 S
H1043 C1051 0.930 . S
H1044 C1054 0.930 . S
H1045 C1055 0.930 . S
C1046 H1040 0.930 . S
C1046 C1047 1.355 . S
C1046 C1048 1.415 . S
C1047 C1046 1.355 . S
C1047 C1049 1.419 . S
C1048 C1046 1.415 . S
C1048 C1053 1.425 . S
C1048 C1055 1.409 . S
C1049 H1041 0.930 1_455 S
C1049 C1047 1.419 . S
C1049 C1050 1.362 . S
C1050 H1042 0.930 1_455 S
C1050 C1049 1.362 . S
C1050 C1053 1.409 . S
C1051 H1043 0.930 . S
C1051 C1052 1.355 . S
C1051 C1053 1.415 . S
C1052 C1051 1.355 . S
C1052 C1054 1.419 . S
C1053 C1048 1.425 . S
C1053 C1050 1.409 . S
C1053 C1051 1.415 . S
C1054 H1044 0.930 . S
C1054 C1052 1.419 . S
C1054 C1055 1.362 . S
C1055 H1045 0.930 . S
C1055 C1048 1.409 . S
C1055 C1054 1.362 . S
H1056 C1062 0.930 . S
H1057 C1065 0.930 . S
H1058 C1066 0.930 . S
H1059 C1067 0.930 . S
H1060 C1070 0.930 . S
H1061 C1071 0.930 . S
C1062 H1056 0.930 . S
C1062 C1063 1.355 . S
C1062 C1064 1.415 . S
C1063 C1062 1.355 . S
C1063 C1065 1.419 . S
C1064 C1062 1.415 . S
C1064 C1069 1.425 . S
C1064 C1071 1.409 . S
C1065 H1057 0.930 . S
C1065 C1063 1.419 . S
C1065 C1066 1.362 . S
C1066 H1058 0.930 . S
C1066 C1065 1.362 . S
C1066 C1069 1.409 . S
C1067 H1059 0.930 . S
C1067 C1068 1.355 . S
C1067 C1069 1.415 . S
C1068 C1067 1.355 . S
C1068 C1070 1.419 . S
C1069 C1064 1.425 . S
C1069 C1066 1.409 . S
C1069 C1067 1.415 . S
C1070 H1060 0.930 . S
C1070 C1068 1.419 . S
C1070 C1071 1.362 . S
C1071 H1061 0.930 . S
C1071 C1064 1.409 . S
C1071 C1070 1.362 . S
H1072 C1078 0.930 . S
H1073 C1081 0.930 . S
H1074 C1082 0.930 1_655 S
H1075 C1083 0.930 1_655 S
H1076 C1086 0.930 . S
H1077 C1087 0.930 . S
C1078 H1072 0.930 . S
C1078 C1079 1.355 . S
C1078 C1080 1.415 . S
C1079 C1078 1.355 . S
C1079 C1081 1.419 . S
C1080 C1078 1.415 . S
C1080 C1085 1.425 . S
C1080 C1087 1.409 . S
C1081 H1073 0.930 . S
C1081 C1079 1.419 . S
C1081 C1082 1.362 . S
C1082 H1074 0.930 1_455 S
C1082 C1081 1.362 . S
C1082 C1085 1.409 . S
C1083 H1075 0.930 1_455 S
C1083 C1084 1.355 . S
C1083 C1085 1.415 . S
C1084 C1083 1.355 . S
C1084 C1086 1.419 . S
C1085 C1080 1.425 . S
C1085 C1082 1.409 . S
C1085 C1083 1.415 . S
C1086 H1076 0.930 . S
C1086 C1084 1.419 . S
C1086 C1087 1.362 . S
C1087 H1077 0.930 . S
C1087 C1080 1.409 . S
C1087 C1086 1.362 . S
H1088 C1094 0.930 . S
H1089 C1097 0.930 . S
H1090 C1098 0.930 . S
H1091 C1099 0.930 . S
H1092 C1102 0.930 . S
H1093 C1103 0.930 . S
C1094 H1088 0.930 . S
C1094 C1095 1.355 . S
C1094 C1096 1.415 . S
C1095 C1094 1.355 . S
C1095 C1097 1.419 . S
C1096 C1094 1.415 . S
C1096 C1101 1.425 . S
C1096 C1103 1.409 . S
C1097 H1089 0.930 . S
C1097 C1095 1.419 . S
C1097 C1098 1.362 . S
C1098 H1090 0.930 . S
C1098 C1097 1.362 . S
C1098 C1101 1.409 . S
C1099 H1091 0.930 . S
C1099 C1100 1.355 . S
C1099 C1101 1.415 . S
C1100 C1099 1.355 . S
C1100 C1102 1.419 . S
C1101 C1096 1.425 . S
C1101 C1098 1.409 . S
C1101 C1099 1.415 . S
C1102 H1092 0.930 . S
C1102 C1100 1.419 . S
C1102 C1103 1.362 . S
C1103 H1093 0.930 . S
C1103 C1096 1.409 . S
C1103 C1102 1.362 . S
H1104 C1110 0.930 . S
H1105 C1113 0.930 . S
H1106 C1114 0.930 1_455 S
H1107 C1115 0.930 1_455 S
H1108 C1118 0.930 . S
H1109 C1119 0.930 . S
C1110 H1104 0.930 . S
C1110 C1111 1.355 . S
C1110 C1112 1.415 . S
C1111 C1110 1.355 . S
C1111 C1113 1.419 . S
C1112 C1110 1.415 . S
C1112 C1117 1.425 . S
C1112 C1119 1.409 . S
C1113 H1105 0.930 . S
C1113 C1111 1.419 . S
C1113 C1114 1.362 . S
C1114 H1106 0.930 1_655 S
C1114 C1113 1.362 . S
C1114 C1117 1.409 . S
C1115 H1107 0.930 1_655 S
C1115 C1116 1.355 . S
C1115 C1117 1.415 . S
C1116 C1115 1.355 . S
C1116 C1118 1.419 . S
C1117 C1112 1.425 . S
C1117 C1114 1.409 . S
C1117 C1115 1.415 . S
C1118 H1108 0.930 . S
C1118 C1116 1.419 . S
C1118 C1119 1.362 . S
C1119 H1109 0.930 . S
C1119 C1112 1.409 . S
C1119 C1118 1.362 . S
H1120 C1126 0.930 . S
H1121 C1129 0.930 . S
H1122 C1130 0.930 . S
H1123 C1131 0.930 . S
H1124 C1134 0.930 . S
H1125 C1135 0.930 . S
C1126 H1120 0.930 . S
C1126 C1127 1.355 . S
C1126 C1128 1.415 . S
C1127 C1126 1.355 . S
C1127 C1129 1.419 . S
C1128 C1126 1.415 . S
C1128 C1133 1.425 . S
C1128 C1135 1.409 . S
C1129 H1121 0.930 . S
C1129 C1127 1.419 . S
C1129 C1130 1.362 . S
C1130 H1122 0.930 . S
C1130 C1129 1.362 . S
C1130 C1133 1.409 . S
C1131 H1123 0.930 . S
C1131 C1132 1.355 . S
C1131 C1133 1.415 . S
C1132 C1131 1.355 . S
C1132 C1134 1.419 . S
C1133 C1128 1.425 . S
C1133 C1130 1.409 . S
C1133 C1131 1.415 . S
C1134 H1124 0.930 . S
C1134 C1132 1.419 . S
C1134 C1135 1.362 . S
C1135 H1125 0.930 . S
C1135 C1128 1.409 . S
C1135 C1134 1.362 . S
H1136 C1142 0.930 . S
H1137 C1145 0.930 . S
H1138 C1146 0.930 . S
H1139 C1147 0.930 . S
H1140 C1150 0.930 . S
H1141 C1151 0.930 . S
C1142 H1136 0.930 . S
C1142 C1143 1.355 . S
C1142 C1144 1.415 . S
C1143 C1142 1.355 . S
C1143 C1145 1.419 . S
C1144 C1142 1.415 . S
C1144 C1149 1.425 . S
C1144 C1151 1.409 . S
C1145 H1137 0.930 . S
C1145 C1143 1.419 . S
C1145 C1146 1.362 . S
C1146 H1138 0.930 . S
C1146 C1145 1.362 . S
C1146 C1149 1.409 . S
C1147 H1139 0.930 . S
C1147 C1148 1.355 . S
C1147 C1149 1.415 . S
C1148 C1147 1.355 . S
C1148 C1150 1.419 . S
C1149 C1144 1.425 . S
C1149 C1146 1.409 . S
C1149 C1147 1.415 . S
C1150 H1140 0.930 . S
C1150 C1148 1.419 . S
C1150 C1151 1.362 . S
C1151 H1141 0.930 . S
C1151 C1144 1.409 . S
C1151 C1150 1.362 . S
H1152 C1158 0.930 . S
H1153 C1161 0.930 . S
H1154 C1162 0.930 . S
H1155 C1163 0.930 . S
H1156 C1166 0.930 . S
H1157 C1167 0.930 . S
C1158 H1152 0.930 . S
C1158 C1159 1.355 . S
C1158 C1160 1.415 . S
C1159 C1158 1.355 . S
C1159 C1161 1.419 . S
C1160 C1158 1.415 . S
C1160 C1165 1.425 . S
C1160 C1167 1.409 . S
C1161 H1153 0.930 . S
C1161 C1159 1.419 . S
C1161 C1162 1.362 . S
C1162 H1154 0.930 . S
C1162 C1161 1.362 . S
C1162 C1165 1.409 . S
C1163 H1155 0.930 . S
C1163 C1164 1.355 . S
C1163 C1165 1.415 . S
C1164 C1163 1.355 . S
C1164 C1166 1.419 . S
C1165 C1160 1.425 . S
C1165 C1162 1.409 . S
C1165 C1163 1.415 . S
C1166 H1156 0.930 . S
C1166 C1164 1.419 . S
C1166 C1167 1.362 . S
C1167 H1157 0.930 . S
C1167 C1160 1.409 . S
C1167 C1166 1.362 . S
H1168 C1174 0.930 . S
H1169 C1177 0.930 1_655 S
H1170 C1178 0.930 1_655 S
H1171 C1179 0.930 . S
H1172 C1182 0.930 . S
H1173 C1183 0.930 . S
C1174 H1168 0.930 . S
C1174 C1175 1.355 . S
C1174 C1176 1.415 . S
C1175 C1174 1.355 . S
C1175 C1177 1.419 . S
C1176 C1174 1.415 . S
C1176 C1181 1.425 . S
C1176 C1183 1.409 . S
C1177 H1169 0.930 1_455 S
C1177 C1175 1.419 . S
C1177 C1178 1.362 . S
C1178 H1170 0.930 1_455 S
C1178 C1177 1.362 . S
C1178 C1181 1.409 . S
C1179 H1171 0.930 . S
C1179 C1180 1.355 . S
C1179 C1181 1.415 . S
C1180 C1179 1.355 . S
C1180 C1182 1.419 . S
C1181 C1176 1.425 . S
C1181 C1178 1.409 . S
C1181 C1179 1.415 . S
C1182 H1172 0.930 . S
C1182 C1180 1.419 . S
C1182 C1183 1.362 . S
C1183 H1173 0.930 . S
C1183 C1176 1.409 . S
C1183 C1182 1.362 . S
H1184 C1190 0.930 . S
H1185 C1193 0.930 . S
H1186 C1194 0.930 . S
H1187 C1195 0.930 . S
H1188 C1198 0.930 . S
H1189 C1199 0.930 . S
C1190 H1184 0.930 . S
C1190 C1191 1.355 . S
C1190 C1192 1.415 . S
C1191 C1190 1.355 . S
C1191 C1193 1.419 . S
C1192 C1190 1.415 . S
C1192 C1197 1.425 . S
C1192 C1199 1.409 . S
C1193 H1185 0.930 . S
C1193 C1191 1.419 . S
C1193 C1194 1.362 . S
C1194 H1186 0.930 . S
C1194 C1193 1.362 . S
C1194 C1197 1.409 . S
C1195 H1187 0.930 . S
C1195 C1196 1.355 . S
C1195 C1197 1.415 . S
C1196 C1195 1.355 . S
C1196 C1198 1.419 . S
C1197 C1192 1.425 . S
C1197 C1194 1.409 . S
C1197 C1195 1.415 . S
C1198 H1188 0.930 . S
C1198 C1196 1.419 . S
C1198 C1199 1.362 . S
C1199 H1189 0.930 . S
C1199 C1192 1.409 . S
C1199 C1198 1.362 . S
H1200 C1206 0.930 . S
H1201 C1209 0.930 . S
H1202 C1210 0.930 . S
H1203 C1211 0.930 . S
H1204 C1214 0.930 . S
H1205 C1215 0.930 . S
C1206 H1200 0.930 . S
C1206 C1207 1.355 . S
C1206 C1208 1.415 . S
C1207 C1206 1.355 . S
C1207 C1209 1.419 . S
C1208 C1206 1.415 . S
C1208 C1213 1.425 . S
C1208 C1215 1.409 . S
C1209 H1201 0.930 . S
C1209 C1207 1.419 . S
C1209 C1210 1.362 . S
C1210 H1202 0.930 . S
C1210 C1209 1.362 . S
C1210 C1213 1.409 . S
C1211 H1203 0.930 . S
C1211 C1212 1.355 . S
C1211 C1213 1.415 . S
C1212 C1211 1.355 . S
C1212 C1214 1.419 . S
C1213 C1208 1.425 . S
C1213 C1210 1.409 . S
C1213 C1211 1.415 . S
C1214 H1204 0.930 . S
C1214 C1212 1.419 . S
C1214 C1215 1.362 . S
C1215 H1205 0.930 . S
C1215 C1208 1.409 . S
C1215 C1214 1.362 . S
H1216 C1222 0.930 . S
H1217 C1225 0.930 . S
H1218 C1226 0.930 . S
H1219 C1227 0.930 . S
H1220 C1230 0.930 . S
H1221 C1231 0.930 . S
C1222 H1216 0.930 . S
C1222 C1223 1.355 1_455 S
C1222 C1224 1.415 . S
C1223 C1222 1.355 1_655 S
C1223 C1225 1.419 1_556 S
C1224 C1222 1.415 . S
C1224 C1229 1.425 1_556 S
C1224 C1231 1.409 . S
C1225 H1217 0.930 . S
C1225 C1223 1.419 1_554 S
C1225 C1226 1.362 1_655 S
C1226 H1218 0.930 . S
C1226 C1225 1.362 1_455 S
C1226 C1229 1.409 . S
C1227 H1219 0.930 . S
C1227 C1228 1.355 1_554 S
C1227 C1229 1.415 . S
C1228 C1227 1.355 1_556 S
C1228 C1230 1.419 . S
C1229 C1224 1.425 1_554 S
C1229 C1226 1.409 . S
C1229 C1227 1.415 . S
C1230 H1220 0.930 . S
C1230 C1228 1.419 . S
C1230 C1231 1.362 . S
C1231 H1221 0.930 . S
C1231 C1224 1.409 . S
C1231 C1230 1.362 . S
H1232 C1238 0.930 . S
H1233 C1241 0.930 . S
H1234 C1242 0.930 . S
H1235 C1243 0.930 . S
H1236 C1246 0.930 . S
H1237 C1247 0.930 . S
C1238 H1232 0.930 . S
C1238 C1239 1.355 . S
C1238 C1240 1.415 . S
C1239 C1238 1.355 . S
C1239 C1241 1.419 . S
C1240 C1238 1.415 . S
C1240 C1245 1.425 . S
C1240 C1247 1.409 . S
C1241 H1233 0.930 . S
C1241 C1239 1.419 . S
C1241 C1242 1.362 . S
C1242 H1234 0.930 . S
C1242 C1241 1.362 . S
C1242 C1245 1.409 . S
C1243 H1235 0.930 . S
C1243 C1244 1.355 1_455 S
C1243 C1245 1.415 . S
C1244 C1243 1.355 1_655 S
C1244 C1246 1.419 . S
C1245 C1240 1.425 . S
C1245 C1242 1.409 . S
C1245 C1243 1.415 . S
C1246 H1236 0.930 . S
C1246 C1244 1.419 . S
C1246 C1247 1.362 1_655 S
C1247 H1237 0.930 . S
C1247 C1240 1.409 . S
C1247 C1246 1.362 1_455 S
H1248 C1254 0.930 1_455 S
H1249 C1257 0.930 . S
H1250 C1258 0.930 . S
H1251 C1259 0.930 . S
H1252 C1262 0.930 . S
H1253 C1263 0.930 . S
C1254 H1248 0.930 1_655 S
C1254 C1255 1.355 1_655 S
C1254 C1256 1.415 . S
C1255 C1254 1.355 1_455 S
C1255 C1257 1.419 1_454 S
C1256 C1254 1.415 . S
C1256 C1261 1.425 1_554 S
C1256 C1263 1.409 . S
C1257 H1249 0.930 . S
C1257 C1255 1.419 1_656 S
C1257 C1258 1.362 . S
C1258 H1250 0.930 . S
C1258 C1257 1.362 . S
C1258 C1261 1.409 . S
C1259 H1251 0.930 . S
C1259 C1260 1.355 1_556 S
C1259 C1261 1.415 . S
C1260 C1259 1.355 1_554 S
C1260 C1262 1.419 . S
C1261 C1256 1.425 1_556 S
C1261 C1258 1.409 . S
C1261 C1259 1.415 . S
C1262 H1252 0.930 . S
C1262 C1260 1.419 . S
C1262 C1263 1.362 . S
C1263 H1253 0.930 . S
C1263 C1256 1.409 . S
C1263 C1262 1.362 . S
H1264 C1270 0.930 . S
H1265 C1273 0.930 . S
H1266 C1274 0.930 . S
H1267 C1275 0.930 . S
H1268 C1278 0.930 . S
H1269 C1279 0.930 . S
C1270 H1264 0.930 . S
C1270 C1271 1.355 . S
C1270 C1272 1.415 . S
C1271 C1270 1.355 . S
C1271 C1273 1.419 . S
C1272 C1270 1.415 . S
C1272 C1277 1.425 . S
C1272 C1279 1.409 . S
C1273 H1265 0.930 . S
C1273 C1271 1.419 . S
C1273 C1274 1.362 . S
C1274 H1266 0.930 . S
C1274 C1273 1.362 . S
C1274 C1277 1.409 . S
C1275 H1267 0.930 . S
C1275 C1276 1.355 1_655 S
C1275 C1277 1.415 . S
C1276 C1275 1.355 1_455 S
C1276 C1278 1.419 . S
C1277 C1272 1.425 . S
C1277 C1274 1.409 . S
C1277 C1275 1.415 . S
C1278 H1268 0.930 . S
C1278 C1276 1.419 . S
C1278 C1279 1.362 1_455 S
C1279 H1269 0.930 . S
C1279 C1272 1.409 . S
C1279 C1278 1.362 1_655 S
H1280 C1286 0.930 . S
H1281 C1289 0.930 . S
H1282 C1290 0.930 . S
H1283 C1291 0.930 . S
H1284 C1294 0.930 . S
H1285 C1295 0.930 . S
C1286 H1280 0.930 . S
C1286 C1287 1.355 1_455 S
C1286 C1288 1.415 . S
C1287 C1286 1.355 1_655 S
C1287 C1289 1.419 . S
C1288 C1286 1.415 . S
C1288 C1293 1.425 . S
C1288 C1295 1.409 . S
C1289 H1281 0.930 . S
C1289 C1287 1.419 . S
C1289 C1290 1.362 1_655 S
C1290 H1282 0.930 . S
C1290 C1289 1.362 1_455 S
C1290 C1293 1.409 . S
C1291 H1283 0.930 . S
C1291 C1292 1.355 . S
C1291 C1293 1.415 . S
C1292 C1291 1.355 . S
C1292 C1294 1.419 . S
C1293 C1288 1.425 . S
C1293 C1290 1.409 . S
C1293 C1291 1.415 . S
C1294 H1284 0.930 . S
C1294 C1292 1.419 . S
C1294 C1295 1.362 . S
C1295 H1285 0.930 . S
C1295 C1288 1.409 . S
C1295 C1294 1.362 . S
H1296 C1302 0.930 . S
H1297 C1305 0.930 . S
H1298 C1306 0.930 . S
H1299 C1307 0.930 . S
H1300 C1310 0.930 . S
H1301 C1311 0.930 . S
C1302 H1296 0.930 . S
C1302 C1303 1.355 . S
C1302 C1304 1.415 . S
C1303 C1302 1.355 . S
C1303 C1305 1.419 . S
C1304 C1302 1.415 . S
C1304 C1309 1.425 . S
C1304 C1311 1.409 . S
C1305 H1297 0.930 . S
C1305 C1303 1.419 . S
C1305 C1306 1.362 . S
C1306 H1298 0.930 . S
C1306 C1305 1.362 . S
C1306 C1309 1.409 . S
C1307 H1299 0.930 . S
C1307 C1308 1.355 1_455 S
C1307 C1309 1.415 . S
C1308 C1307 1.355 1_655 S
C1308 C1310 1.419 . S
C1309 C1304 1.425 . S
C1309 C1306 1.409 . S
C1309 C1307 1.415 . S
C1310 H1300 0.930 . S
C1310 C1308 1.419 . S
C1310 C1311 1.362 1_655 S
C1311 H1301 0.930 . S
C1311 C1304 1.409 . S
C1311 C1310 1.362 1_455 S
H1312 C1318 0.930 . S
H1313 C1321 0.930 . S
H1314 C1322 0.930 . S
H1315 C1323 0.930 1_455 S
H1316 C1326 0.930 . S
H1317 C1327 0.930 . S
C1318 H1312 0.930 . S
C1318 C1319 1.355 . S
C1318 C1320 1.415 . S
C1319 C1318 1.355 . S
C1319 C1321 1.419 . S
C1320 C1318 1.415 . S
C1320 C1325 1.425 . S
C1320 C1327 1.409 . S
C1321 H1313 0.930 . S
C1321 C1319 1.419 . S
C1321 C1322 1.362 . S
C1322 H1314 0.930 . S
C1322 C1321 1.362 . S
C1322 C1325 1.409 . S
C1323 H1315 0.930 1_655 S
C1323 C1324 1.355 1_655 S
C1323 C1325 1.415 . S
C1324 C1323 1.355 1_455 S
C1324 C1326 1.419 1_455 S
C1325 C1320 1.425 . S
C1325 C1322 1.409 . S
C1325 C1323 1.415 . S
C1326 H1316 0.930 . S
C1326 C1324 1.419 1_655 S
C1326 C1327 1.362 . S
C1327 H1317 0.930 . S
C1327 C1320 1.409 . S
C1327 C1326 1.362 . S
H1328 C1334 0.930 . S
H1329 C1337 0.930 . S
H1330 C1338 0.930 . S
H1331 C1339 0.939 . S
H1332 C1342 0.930 . S
H1333 C1343 0.930 . S
C1334 H1328 0.930 . S
C1334 C1335 1.355 . S
C1334 C1336 1.415 . S
C1335 C1334 1.355 . S
C1335 C1337 1.419 . S
C1336 C1334 1.415 . S
C1336 C1341 1.425 . S
C1336 C1343 1.409 . S
C1337 H1329 0.930 . S
C1337 C1335 1.419 . S
C1337 C1338 1.362 . S
C1338 H1330 0.930 . S
C1338 C1337 1.362 . S
C1338 C1341 1.409 . S
C1339 H1331 0.939 . S
C1339 C1340 1.357 . S
C1339 C1341 1.403 1_455 S
C1340 C1339 1.357 . S
C1340 C1342 1.419 1_455 S
C1341 C1336 1.425 . S
C1341 C1338 1.409 . S
C1341 C1339 1.403 1_655 S
C1342 H1332 0.930 . S
C1342 C1340 1.419 1_655 S
C1342 C1343 1.362 . S
C1343 H1333 0.930 . S
C1343 C1336 1.409 . S
C1343 C1342 1.362 . S
H1344 C1350 0.930 . S
H1345 C1353 0.930 . S
H1346 C1354 0.930 . S
H1347 C1355 0.930 . S
H1348 C1358 0.930 . S
H1349 C1359 0.930 . S
C1350 H1344 0.930 . S
C1350 C1351 1.355 . S
C1350 C1352 1.415 . S
C1351 C1350 1.355 . S
C1351 C1353 1.419 . S
C1352 C1350 1.415 . S
C1352 C1357 1.425 . S
C1352 C1359 1.409 . S
C1353 H1345 0.930 . S
C1353 C1351 1.419 . S
C1353 C1354 1.362 . S
C1354 H1346 0.930 . S
C1354 C1353 1.362 . S
C1354 C1357 1.409 . S
C1355 H1347 0.930 . S
C1355 C1356 1.355 . S
C1355 C1357 1.415 . S
C1356 C1355 1.355 . S
C1356 C1358 1.419 . S
C1357 C1352 1.425 . S
C1357 C1354 1.409 . S
C1357 C1355 1.415 . S
C1358 H1348 0.930 . S
C1358 C1356 1.419 . S
C1358 C1359 1.362 . S
C1359 H1349 0.930 . S
C1359 C1352 1.409 . S
C1359 C1358 1.362 . S
H1360 C1366 0.930 . S
H1361 C1369 0.930 . S
H1362 C1370 0.930 . S
H1363 C1371 0.930 . S
H1364 C1374 0.930 . S
H1365 C1375 0.930 . S
C1366 H1360 0.930 . S
C1366 C1367 1.355 . S
C1366 C1368 1.415 . S
C1367 C1366 1.355 . S
C1367 C1369 1.419 . S
C1368 C1366 1.415 . S
C1368 C1373 1.425 . S
C1368 C1375 1.409 . S
C1369 H1361 0.930 . S
C1369 C1367 1.419 . S
C1369 C1370 1.362 . S
C1370 H1362 0.930 . S
C1370 C1369 1.362 . S
C1370 C1373 1.409 . S
C1371 H1363 0.930 . S
C1371 C1372 1.355 . S
C1371 C1373 1.415 . S
C1372 C1371 1.355 . S
C1372 C1374 1.419 . S
C1373 C1368 1.425 . S
C1373 C1370 1.409 . S
C1373 C1371 1.415 . S
C1374 H1364 0.930 . S
C1374 C1372 1.419 . S
C1374 C1375 1.362 . S
C1375 H1365 0.930 . S
C1375 C1368 1.409 . S
C1375 C1374 1.362 . S
H1376 C1382 0.930 . S
H1377 C1385 0.930 . S
H1378 C1386 0.930 . S
H1379 C1387 0.930 . S
H1380 C1390 0.930 . S
H1381 C1391 0.930 . S
C1382 H1376 0.930 . S
C1382 C1383 1.355 . S
C1382 C1384 1.415 . S
C1383 C1382 1.355 . S
C1383 C1385 1.419 . S
C1384 C1382 1.415 . S
C1384 C1389 1.425 . S
C1384 C1391 1.409 . S
C1385 H1377 0.930 . S
C1385 C1383 1.419 . S
C1385 C1386 1.362 . S
C1386 H1378 0.930 . S
C1386 C1385 1.362 . S
C1386 C1389 1.409 . S
C1387 H1379 0.930 . S
C1387 C1388 1.355 . S
C1387 C1389 1.415 . S
C1388 C1387 1.355 . S
C1388 C1390 1.419 . S
C1389 C1384 1.425 . S
C1389 C1386 1.409 . S
C1389 C1387 1.415 . S
C1390 H1380 0.930 . S
C1390 C1388 1.419 . S
C1390 C1391 1.362 . S
C1391 H1381 0.930 . S
C1391 C1384 1.409 . S
C1391 C1390 1.362 . S
H1392 C1398 0.930 . S
H1393 C1401 0.930 . S
H1394 C1402 0.930 . S
H1395 C1403 0.930 . S
H1396 C1406 0.930 . S
H1397 C1407 0.930 . S
C1398 H1392 0.930 . S
C1398 C1399 1.355 . S
C1398 C1400 1.415 . S
C1399 C1398 1.355 . S
C1399 C1401 1.419 . S
C1400 C1398 1.415 . S
C1400 C1405 1.425 . S
C1400 C1407 1.409 . S
C1401 H1393 0.930 . S
C1401 C1399 1.419 . S
C1401 C1402 1.362 . S
C1402 H1394 0.930 . S
C1402 C1401 1.362 . S
C1402 C1405 1.409 . S
C1403 H1395 0.930 . S
C1403 C1404 1.355 . S
C1403 C1405 1.415 . S
C1404 C1403 1.355 . S
C1404 C1406 1.419 . S
C1405 C1400 1.425 . S
C1405 C1402 1.409 . S
C1405 C1403 1.415 . S
C1406 H1396 0.930 . S
C1406 C1404 1.419 . S
C1406 C1407 1.362 . S
C1407 H1397 0.930 . S
C1407 C1400 1.409 . S
C1407 C1406 1.362 . S
H1408 C1414 0.930 . S
H1409 C1417 0.930 . S
H1410 C1418 0.930 . S
H1411 C1419 0.929 . S
H1412 C1422 0.930 . S
H1413 C1423 0.930 . S
C1414 H1408 0.930 . S
C1414 C1415 1.355 . S
C1414 C1416 1.415 . S
C1415 C1414 1.355 . S
C1415 C1417 1.419 1_556 S
C1416 C1414 1.415 . S
C1416 C1421 1.426 1_556 S
C1416 C1423 1.409 . S
C1417 H1409 0.930 . S
C1417 C1415 1.419 1_554 S
C1417 C1418 1.362 . S
C1418 H1410 0.930 . S
C1418 C1417 1.362 . S
C1418 C1421 1.408 . S
C1419 H1411 0.929 . S
C1419 C1420 1.355 1_554 S
C1419 C1421 1.415 . S
C1420 C1419 1.355 1_556 S
C1420 C1422 1.419 . S
C1421 C1416 1.426 1_554 S
C1421 C1418 1.408 . S
C1421 C1419 1.415 . S
C1422 H1412 0.930 . S
C1422 C1420 1.419 . S
C1422 C1423 1.362 . S
C1423 H1413 0.930 . S
C1423 C1416 1.409 . S
C1423 C1422 1.362 . S
H1424 C1430 0.930 . S
H1425 C1433 0.930 . S
H1426 C1434 0.930 . S
H1427 C1435 0.930 . S
H1428 C1438 0.930 . S
H1429 C1439 0.930 . S
C1430 H1424 0.930 . S
C1430 C1431 1.355 . S
C1430 C1432 1.415 . S
C1431 C1430 1.355 . S
C1431 C1433 1.419 . S
C1432 C1430 1.415 . S
C1432 C1437 1.425 . S
C1432 C1439 1.409 . S
C1433 H1425 0.930 . S
C1433 C1431 1.419 . S
C1433 C1434 1.362 . S
C1434 H1426 0.930 . S
C1434 C1433 1.362 . S
C1434 C1437 1.409 . S
C1435 H1427 0.930 . S
C1435 C1436 1.355 . S
C1435 C1437 1.415 . S
C1436 C1435 1.355 . S
C1436 C1438 1.419 . S
C1437 C1432 1.425 . S
C1437 C1434 1.409 . S
C1437 C1435 1.415 . S
C1438 H1428 0.930 . S
C1438 C1436 1.419 . S
C1438 C1439 1.362 . S
C1439 H1429 0.930 . S
C1439 C1432 1.409 . S
C1439 C1438 1.362 . S
H1440 C1446 0.930 . S
H1441 C1449 0.930 . S
H1442 C1450 0.930 . S
H1443 C1451 0.930 . S
H1444 C1454 0.930 . S
H1445 C1455 0.930 . S
C1446 H1440 0.930 . S
C1446 C1447 1.355 . S
C1446 C1448 1.415 . S
C1447 C1446 1.355 . S
C1447 C1449 1.419 1_554 S
C1448 C1446 1.415 . S
C1448 C1453 1.425 1_554 S
C1448 C1455 1.409 . S
C1449 H1441 0.930 . S
C1449 C1447 1.419 1_556 S
C1449 C1450 1.362 . S
C1450 H1442 0.930 . S
C1450 C1449 1.362 . S
C1450 C1453 1.409 . S
C1451 H1443 0.930 . S
C1451 C1452 1.355 1_556 S
C1451 C1453 1.415 . S
C1452 C1451 1.355 1_554 S
C1452 C1454 1.419 . S
C1453 C1448 1.425 1_556 S
C1453 C1450 1.409 . S
C1453 C1451 1.415 . S
C1454 H1444 0.930 . S
C1454 C1452 1.419 . S
C1454 C1455 1.362 . S
C1455 H1445 0.930 . S
C1455 C1448 1.409 . S
C1455 C1454 1.362 . S
H1456 C1462 0.930 . S
H1457 C1465 0.930 . S
H1458 C1466 0.930 . S
H1459 C1467 0.930 . S
H1460 C1470 0.930 . S
H1461 C1471 0.930 . S
C1462 H1456 0.930 . S
C1462 C1463 1.355 . S
C1462 C1464 1.415 . S
C1463 C1462 1.355 . S
C1463 C1465 1.419 . S
C1464 C1462 1.415 . S
C1464 C1469 1.425 . S
C1464 C1471 1.409 . S
C1465 H1457 0.930 . S
C1465 C1463 1.419 . S
C1465 C1466 1.362 . S
C1466 H1458 0.930 . S
C1466 C1465 1.362 . S
C1466 C1469 1.409 . S
C1467 H1459 0.930 . S
C1467 C1468 1.355 . S
C1467 C1469 1.415 . S
C1468 C1467 1.355 . S
C1468 C1470 1.419 . S
C1469 C1464 1.425 . S
C1469 C1466 1.409 . S
C1469 C1467 1.415 . S
C1470 H1460 0.930 . S
C1470 C1468 1.419 . S
C1470 C1471 1.362 . S
C1471 H1461 0.930 . S
C1471 C1464 1.409 . S
C1471 C1470 1.362 . S
C455 C7 1.286 . S
C460 C49 1.295 . S
C471 C35 1.276 . S
C476 C21 1.299 . S
C487 C105 1.298 . S
C492 C63 1.274 . S
C503 C91 1.292 . S
C508 C77 1.288 . S
C519 C119 1.293 . S
C524 C161 1.275 . S
C535 C133 1.274 . S
C540 C147 1.298 . S
C551 C217 1.293 . S
C556 C175 1.275 . S
C567 C203 1.277 . S
C572 C189 1.289 . S
C583 C231 1.298 . S
C588 C273 1.280 . S
C599 C245 1.283 . S
C604 C259 1.282 . S
C615 C287 1.295 . S
C620 C329 1.285 . S
C631 C301 1.274 . S
C636 C315 1.298 . S
C647 C343 1.281 . S
C652 C385 1.284 . S
C663 C371 1.280 . S
C668 C357 1.286 . S
C679 C441 1.285 . S
C684 C399 1.281 . S
C695 C427 1.275 . S
C700 C413 1.292 . S
C711 C6 2.028 1_554 S
C716 C62 2.028 1_556 S
C727 C412 2.075 1_556 S
C732 C20 2.075 1_554 S
C743 C34 2.047 . S
C748 C202 2.047 . S
C759 C328 2.032 . S
C764 C48 2.032 . S
C775 C356 2.037 1_554 S
C780 C76 2.037 1_556 S
C791 C90 2.040 . S
C796 C146 2.040 . S
C807 C104 2.029 . S
C812 C272 2.029 . S
C823 C174 2.054 . S
C828 C118 2.054 . S
C839 C300 2.045 . S
C844 C132 2.045 . S
C855 C160 2.057 . S
C860 C440 2.057 . S
C871 C188 2.069 . S
C876 C244 2.069 . S
C887 C216 2.082 . S
C892 C384 2.082 . S
C903 C286 2.036 . S
C908 C230 2.036 . S
C919 C258 2.079 . S
C924 C426 2.079 . S
C935 C314 2.049 . S
C940 C370 2.049 . S
C951 C398 2.029 1_556 S
C956 C342 2.029 1_554 S
C967 C8 1.454 . S
C972 C274 1.453 . S
C983 C22 1.434 . S
C988 C260 1.432 . S
C999 C246 1.382 . S
C1004 C36 1.380 . S
C1015 C232 1.457 . S
C1020 C50 1.457 . S
C1031 C64 1.363 . S
C1036 C330 1.363 . S
C1047 C78 1.442 . S
C1052 C316 1.444 . S
C1063 C92 1.453 . S
C1068 C302 1.452 . S
C1079 C288 1.365 . S
C1084 C106 1.365 . S
C1095 C120 1.373 . S
C1100 C386 1.371 . S
C1111 C372 1.378 . S
C1116 C134 1.380 . S
C1127 C358 1.367 . S
C1132 C148 1.369 . S
C1143 C162 1.446 . S
C1148 C344 1.447 . S
C1159 C176 1.375 . S
C1164 C442 1.377 . S
C1175 C190 1.457 . S
C1180 C428 1.457 . S
C1191 C414 1.430 . S
C1196 C204 1.428 . S
C1207 C218 1.394 . S
C1212 C400 1.396 . S
C1223 C23 1.582 . S
C1228 C9 1.585 . S
C1239 C37 1.588 . S
C1244 C51 1.587 . S
C1255 C79 1.460 . S
C1260 C65 1.467 . S
C1271 C93 1.585 . S
C1276 C107 1.588 . S
C1287 C135 1.562 . S
C1292 C121 1.552 . S
C1303 C149 1.585 . S
C1308 C163 1.581 . S
C1319 C177 1.456 . S
C1324 C191 1.455 . S
C1335 C205 1.463 . S
C1340 C219 1.459 . S
C1351 C233 1.587 . S
C1356 C247 1.584 . S
C1367 C275 1.467 . S
C1372 C261 1.475 . S
C1383 C289 1.457 . S
C1388 C303 1.456 . S
C1399 C331 1.460 . S
C1404 C317 1.457 . S
C1415 C359 1.463 . S
C1420 C345 1.469 . S
C1431 C373 1.501 . S
C1436 C387 1.489 . S
C1447 C401 1.457 . S
C1452 C415 1.460 . S
C1463 C443 1.546 . S
C1468 C429 1.557 . S
