# Generated by pormake.
# Topology smc, (6)-cn, num edge types: 1
# Building blocks:
#     Node 0, Type 0, BuildingBlock: PAMTOO_clean_sbu_0, # of connection points: 6
#     Node 1, Type 0, BuildingBlock: PAMTOO_clean_sbu_0, # of connection points: 6
#     Node 2, Type 0, BuildingBlock: PAMTOO_clean_sbu_0, # of connection points: 6
#     Node 3, Type 0, BuildingBlock: PAMTOO_clean_sbu_0, # of connection points: 6
#     Node 4, Type 0, BuildingBlock: PAMTOO_clean_sbu_0, # of connection points: 6
#     Node 5, Type 0, BuildingBlock: PAMTOO_clean_sbu_0, # of connection points: 6
#     Node 6, Type 0, BuildingBlock: PAMTOO_clean_sbu_0, # of connection points: 6
#     Node 7, Type 0, BuildingBlock: PAMTOO_clean_sbu_0, # of connection points: 6
#     Node 8, Type 0, BuildingBlock: PAMTOO_clean_sbu_0, # of connection points: 6
#     Edge 9, Type (0, 0), BuildingBlock: UVAHIK_clean_linker_0, # of connection points: 2
#     Edge 10, Type (0, 0), BuildingBlock: UVAHIK_clean_linker_0, # of connection points: 2
#     Edge 11, Type (0, 0), BuildingBlock: UVAHIK_clean_linker_0, # of connection points: 2
#     Edge 12, Type (0, 0), BuildingBlock: UVAHIK_clean_linker_0, # of connection points: 2
#     Edge 13, Type (0, 0), BuildingBlock: UVAHIK_clean_linker_0, # of connection points: 2
#     Edge 14, Type (0, 0), BuildingBlock: UVAHIK_clean_linker_0, # of connection points: 2
#     Edge 15, Type (0, 0), BuildingBlock: UVAHIK_clean_linker_0, # of connection points: 2
#     Edge 16, Type (0, 0), BuildingBlock: UVAHIK_clean_linker_0, # of connection points: 2
#     Edge 17, Type (0, 0), BuildingBlock: UVAHIK_clean_linker_0, # of connection points: 2
#     Edge 18, Type (0, 0), BuildingBlock: UVAHIK_clean_linker_0, # of connection points: 2
#     Edge 19, Type (0, 0), BuildingBlock: UVAHIK_clean_linker_0, # of connection points: 2
#     Edge 20, Type (0, 0), BuildingBlock: UVAHIK_clean_linker_0, # of connection points: 2
#     Edge 21, Type (0, 0), BuildingBlock: UVAHIK_clean_linker_0, # of connection points: 2
#     Edge 22, Type (0, 0), BuildingBlock: UVAHIK_clean_linker_0, # of connection points: 2
#     Edge 23, Type (0, 0), BuildingBlock: UVAHIK_clean_linker_0, # of connection points: 2
#     Edge 24, Type (0, 0), BuildingBlock: UVAHIK_clean_linker_0, # of connection points: 2
#     Edge 25, Type (0, 0), BuildingBlock: UVAHIK_clean_linker_0, # of connection points: 2
#     Edge 26, Type (0, 0), BuildingBlock: UVAHIK_clean_linker_0, # of connection points: 2
#     Edge 27, Type (0, 0), BuildingBlock: UVAHIK_clean_linker_0, # of connection points: 2
#     Edge 28, Type (0, 0), BuildingBlock: UVAHIK_clean_linker_0, # of connection points: 2
#     Edge 29, Type (0, 0), BuildingBlock: UVAHIK_clean_linker_0, # of connection points: 2
#     Edge 30, Type (0, 0), BuildingBlock: UVAHIK_clean_linker_0, # of connection points: 2
#     Edge 31, Type (0, 0), BuildingBlock: UVAHIK_clean_linker_0, # of connection points: 2
#     Edge 32, Type (0, 0), BuildingBlock: UVAHIK_clean_linker_0, # of connection points: 2
#     Edge 33, Type (0, 0), BuildingBlock: UVAHIK_clean_linker_0, # of connection points: 2
#     Edge 34, Type (0, 0), BuildingBlock: UVAHIK_clean_linker_0, # of connection points: 2
#     Edge 35, Type (0, 0), BuildingBlock: UVAHIK_clean_linker_0, # of connection points: 2
# Relax obj value: 0.235
# Max RMSD: 0.320
# Mean RMSD: 0.291
data_MOF--net-smc--node1-PAMTOO_clean_sbu_0--edge1-UVAHIK_clean_linker_0
_symmetry_space_group_name_H-M    P1
_symmetry_Int_Tables_number       1
_symmetry_cell_setting            triclinic
loop_
_symmetry_equiv_pos_as_xyz
'x, y, z'
_cell_length_a     51.845358
_cell_length_b     40.708807
_cell_length_c     51.865982
_cell_angle_alpha  90.642997
_cell_angle_beta   90.251759
_cell_angle_gamma 119.58093
loop_
_atom_site_label
_atom_site_type_symbol
_atom_site_fract_x
_atom_site_fract_y
_atom_site_fract_z
_atom_type_partial_charge
Dy0 Dy 0.06861 0.41076 1.0097 0.0
Dy1 Dy 0.04275 0.46419 0.02986 0.0
C2 C 0.07985 0.44075 0.0676 0.0
O3 O 1.02023 0.37 0.0143 0.0
O4 O 1.01034 0.40611 0.04268 0.0
O5 O 0.08396 0.3705 0.01562 0.0
O6 O 0.08797 0.39563 0.97829 0.0
O7 O 1.01488 0.43583 0.99428 0.0
O8 O 0.04633 0.41869 0.97503 0.0
O9 O 0.08164 0.5011 1.00573 0.0
O10 O 0.10714 0.47006 1.01305 0.0
O11 O 1.03077 0.50733 0.02401 0.0
O12 O 1.02874 0.48512 0.06218 0.0
C13 C 1.00259 0.37394 0.03066 0.0
O14 O 0.07183 0.41093 0.05272 0.0
O15 O 0.07641 0.46895 0.05965 0.0
C16 C 0.13069 0.39926 0.99516 0.0
C17 C 0.18672 0.46442 0.99222 0.0
C18 C 0.17268 0.45275 0.01611 0.0
C19 C 0.14492 0.42043 0.01758 0.0
C20 C 0.14657 0.40792 0.97206 0.0
C21 C 0.17435 0.4404 0.97056 0.0
C22 C 0.09807 0.37947 0.99374 0.0
C23 C 1.02273 0.42283 0.97416 0.0
C24 C 0.10671 0.50077 1.00643 0.0
C25 C 0.99384 0.50366 0.05192 0.0
C26 C 0.93865 0.49904 0.06009 0.0
C27 C 0.94109 0.47399 0.0427 0.0
C28 C 0.96853 0.47617 0.03873 0.0
C29 C 0.99144 0.52833 0.06947 0.0
C30 C 0.96405 0.52604 0.07356 0.0
C31 C 1.02284 0.50673 0.0479 0.0
H32 H 0.1817 0.4704 0.03322 0.0
H33 H 0.13329 0.4147 0.03572 0.0
H34 H 0.13608 0.39215 0.95451 0.0
H35 H 0.18518 0.44806 0.95205 0.0
H36 H 0.92181 0.45275 0.03222 0.0
H37 H 0.97004 0.45661 0.0253 0.0
H38 H 1.01082 0.54958 0.07985 0.0
H39 H 0.9629 0.54604 0.08679 0.0
Dy40 Dy 0.60798 0.62293 0.02774 0.0
Dy41 Dy 0.54801 0.59269 0.99576 0.0
C42 C 0.61048 0.61765 0.96578 0.0
O43 O 0.5962 0.67141 0.02943 0.0
O44 O 0.56704 0.65514 0.9934 0.0
O45 O 0.65526 0.65828 0.03303 0.0
O46 O 0.62835 0.62599 0.06483 0.0
O47 O 0.54366 0.61064 0.03694 0.0
O48 O 0.56987 0.58555 0.05157 0.0
O49 O 0.54795 0.53806 1.00405 0.0
O50 O 0.59611 0.56147 0.01792 0.0
O51 O 0.50015 0.56126 0.99657 0.0
O52 O 0.52276 0.58976 0.96178 0.0
C53 C 0.58108 0.67944 1.01214 0.0
O54 O 0.62473 0.63079 0.98771 0.0
O55 O 0.58115 0.59975 0.9645 0.0
C56 C 0.67455 0.62988 0.05987 0.0
C57 C 0.71225 0.5991 0.06553 0.0
C58 C 0.6885 0.58315 0.04777 0.0
C59 C 0.66989 0.59847 0.04493 0.0
C60 C 0.69785 0.64564 0.07792 0.0
C61 C 0.71662 0.63032 0.08077 0.0
C62 C 0.65513 0.64604 0.05613 0.0
C63 C 0.55267 0.59922 0.05688 0.0
C64 C 0.56994 0.53228 1.01097 0.0
C65 C 0.48149 0.59467 0.97363 0.0
C66 C 0.45162 0.6365 0.97235 0.0
C67 C 0.47306 0.64392 0.99156 0.0
C68 C 0.48796 0.62327 0.99212 0.0
C69 C 0.46081 0.58793 0.954 0.0
C70 C 0.44595 0.6087 0.95335 0.0
C71 C 0.49774 0.57371 0.97408 0.0
H72 H 0.68425 0.55875 0.03605 0.0
H73 H 0.65197 0.58596 0.03089 0.0
H74 H 0.70168 0.66992 0.08958 0.0
H75 H 0.7349 0.64338 0.09446 0.0
H76 H 0.47793 0.66526 1.00635 0.0
H77 H 0.50441 0.62944 1.00713 0.0
H78 H 0.45593 0.56637 0.93937 0.0
H79 H 0.42918 0.60197 0.93856 0.0
Dy80 Dy 0.4727 0.03658 1.01263 0.0
Dy81 Dy 0.53861 0.08372 0.03888 0.0
C82 C 0.48018 1.03651 0.07485 0.0
O83 O 0.48557 0.10075 1.01166 0.0
O84 O 0.52634 0.129 0.03876 0.0
O85 O 0.42518 1.01447 0.01445 0.0
O86 O 0.44478 1.00855 0.97931 0.0
O87 O 0.53968 0.10161 0.99711 0.0
O88 O 0.5059 0.04356 0.98359 0.0
O89 O 0.53185 1.02485 0.03315 0.0
O90 O 0.48386 0.98915 0.01858 0.0
O91 O 0.58071 0.08599 0.04005 0.0
O92 O 0.57506 0.12778 0.06166 0.0
C93 C 0.5064 0.1314 0.02441 0.0
O94 O 0.46384 1.02302 0.05396 0.0
O95 O 0.50888 0.06124 0.07399 0.0
C96 C 0.39785 0.95724 0.99084 0.0
C97 C 0.35438 0.87933 0.9905 0.0
C98 C 0.34618 0.90751 0.99277 0.0
C99 C 0.36764 0.94593 0.99289 0.0
C100 C 0.40625 0.92934 0.98877 0.0
C101 C 0.38478 0.89088 0.9885 0.0
C102 C 0.42026 0.99802 0.99187 0.0
C103 C 0.52599 0.07767 0.97797 0.0
C104 C 0.50944 0.99198 0.02591 0.0
C105 C 0.6242 0.14483 0.04744 0.0
C106 C 0.68619 0.18952 0.04059 0.0
C107 C 0.66853 0.1609 0.02261 0.0
C108 C 0.63794 0.13897 0.02592 0.0
C109 C 0.64143 0.17471 0.06462 0.0
C110 C 0.67206 0.19703 0.06114 0.0
C111 C 0.59351 0.11652 0.05432 0.0
H112 H 0.32314 0.89995 0.99486 0.0
H113 H 0.36063 0.96687 0.99482 0.0
H114 H 0.42943 0.93722 0.98739 0.0
H115 H 0.39206 0.87023 0.98643 0.0
H116 H 0.67843 0.15383 1.0067 0.0
H117 H 0.62539 0.1161 1.01229 0.0
H118 H 0.63144 0.17976 0.08141 0.0
H119 H 0.68477 0.21938 0.07505 0.0
Dy120 Dy 0.72748 0.78348 0.3458 0.0
Dy121 Dy 0.67584 0.81247 0.36126 0.0
C122 C 0.71188 0.79357 0.40557 0.0
O123 O 0.68348 0.72812 0.35162 0.0
O124 O 0.65088 0.75022 0.36355 0.0
O125 O 0.77398 0.80965 0.35554 0.0
O126 O 0.7552 0.76005 0.32994 0.0
O127 O 0.66986 0.79415 0.31863 0.0
O128 O 0.70208 0.77097 0.30905 0.0
O129 O 0.72126 0.86159 0.36404 0.0
O130 O 0.73937 0.84115 0.33185 0.0
O131 O 0.65959 0.85073 0.351 0.0
O132 O 0.63976 0.81261 0.38299 0.0
C133 C 0.65677 0.72286 0.35848 0.0
O134 O 0.72057 0.77749 0.38817 0.0
O135 O 0.69729 0.81164 0.3996 0.0
C136 C 0.81044 0.79158 0.34118 0.0
C137 C 0.87208 0.80855 0.33907 0.0
C138 C 0.86149 0.822 0.35939 0.0
C139 C 0.83161 0.81397 0.3603 0.0
C140 C 0.82068 0.77742 0.32104 0.0
C141 C 0.85084 0.7859 0.31992 0.0
C142 C 0.77922 0.78685 0.34145 0.0
C143 C 0.68019 0.77733 0.30283 0.0
C144 C 0.74147 0.86843 0.34684 0.0
C145 C 0.61155 0.84111 0.36533 0.0
C146 C 0.56171 0.85399 0.36009 0.0
C147 C 0.57591 0.84909 0.33826 0.0
C148 C 0.60046 0.84298 0.34083 0.0
C149 C 0.59721 0.84538 0.38702 0.0
C150 C 0.57295 0.85179 0.38451 0.0
C151 C 0.63972 0.83928 0.36918 0.0
H152 H 0.87656 0.83985 0.37447 0.0
H153 H 0.82517 0.82594 0.37608 0.0
H154 H 0.80554 0.76049 0.3057 0.0
H155 H 0.85746 0.77447 0.30396 0.0
H156 H 0.56812 0.84993 0.31903 0.0
H157 H 0.61099 0.84021 0.3236 0.0
H158 H 0.60539 0.84491 0.4062 0.0
H159 H 0.56365 0.85613 0.40198 0.0
Dy160 Dy 0.26253 0.95631 0.33114 0.0
Dy161 Dy 0.23384 0.86717 0.33504 0.0
C162 C 0.24218 0.91608 0.38702 0.0
O163 O 0.30225 0.94492 0.33384 0.0
O164 O 0.27925 0.88433 0.34884 0.0
O165 O 0.29314 1.01185 0.34652 0.0
O166 O 0.26964 1.00577 0.31061 0.0
O167 O 0.26361 0.88676 0.2999 0.0
O168 O 0.26017 0.93821 0.29029 0.0
O169 O 0.1932 0.87386 0.33489 0.0
O170 O 0.21271 0.93765 0.33079 0.0
O171 O 0.20409 0.81808 0.31253 0.0
O172 O 0.22538 0.812 0.34692 0.0
C173 C 0.30358 0.91525 0.34289 0.0
O174 O 0.25044 0.94568 0.37244 0.0
O175 O 0.2351 0.88246 0.3773 0.0
C176 C 0.27468 0.05384 0.33879 0.0
C177 C 0.24426 0.09189 0.35443 0.0
C178 C 0.25227 0.07297 0.37255 0.0
C179 C 0.26716 0.0539 0.36479 0.0
C180 C 0.26818 0.07443 0.32097 0.0
C181 C 0.25294 0.09302 0.32864 0.0
C182 C 0.28548 1.02865 0.32928 0.0
C183 C 0.26844 0.91385 0.28386 0.0
C184 C 0.18941 0.90336 0.33292 0.0
C185 C 0.22574 0.77955 0.30858 0.0
C186 C 0.25647 0.75589 0.27505 0.0
C187 C 0.23213 0.75887 0.266 0.0
C188 C 0.21684 0.77034 0.28261 0.0
C189 C 0.25019 0.77684 0.31759 0.0
C190 C 0.2653 0.7651 0.30106 0.0
C191 C 0.21215 0.79678 0.32492 0.0
H192 H 0.24652 0.07222 0.39267 0.0
H193 H 0.27179 0.03814 0.379 0.0
H194 H 0.27359 0.07454 0.30079 0.0
H195 H 0.24685 0.10685 0.31405 0.0
H196 H 0.22468 0.75193 0.24613 0.0
H197 H 0.1983 0.77261 0.275 0.0
H198 H 0.25786 0.784 0.33739 0.0
H199 H 0.28334 0.76203 0.30901 0.0
Dy200 Dy 0.11727 0.39265 0.36746 0.0
Dy201 Dy 0.18988 0.43147 0.38574 0.0
C202 C 0.13598 0.41491 0.42528 0.0
O203 O 0.14177 0.45112 0.35199 0.0
O204 O 0.17363 0.47269 0.38581 0.0
O205 O 0.07154 0.3728 0.3769 0.0
O206 O 0.08367 0.37106 0.33722 0.0
O207 O 0.18709 0.43211 0.34176 0.0
O208 O 0.14204 0.379 0.33844 0.0
O209 O 0.17249 0.36996 0.38007 0.0
O210 O 0.12228 0.34689 0.38631 0.0
O211 O 0.23298 0.48195 0.38878 0.0
O212 O 0.22782 0.42926 0.40246 0.0
C213 C 0.16432 0.47929 0.36401 0.0
O214 O 0.12308 0.4209 0.40552 0.0
O215 O 0.16097 0.41371 0.42211 0.0
C216 C 0.03775 0.32082 0.35098 0.0
C217 C 0.99033 0.24606 0.34594 0.0
C218 C 1.00735 0.25833 0.36879 0.0
C219 C 1.03093 0.29526 0.37125 0.0
C220 C 1.02103 0.30849 0.32802 0.0
C221 C 0.99761 0.27136 0.32546 0.0
C222 C 0.06204 0.36028 0.35356 0.0
C223 C 0.16543 0.40594 0.3273 0.0
C224 C 0.14588 0.34264 0.38606 0.0
C225 C 0.2776 0.47719 0.39073 0.0
C226 C 0.33985 0.50787 0.38117 0.0
C227 C 0.32211 0.51758 0.36576 0.0
C228 C 0.29156 0.50262 0.3705 0.0
C229 C 0.29505 0.46683 0.40573 0.0
C230 C 0.32554 0.4818 0.40106 0.0
C231 C 0.2463 0.46496 0.39866 0.0
H232 H 1.00247 0.23928 0.38475 0.0
H233 H 0.04366 0.30378 0.38908 0.0
H234 H 1.02597 0.32768 0.31213 0.0
H235 H 0.98474 0.2627 0.30769 0.0
H236 H 0.33181 0.53697 0.34999 0.0
H237 H 0.27904 0.51163 0.3586 0.0
H238 H 0.28526 0.44792 0.42176 0.0
H239 H 0.33808 0.47381 0.41375 0.0
Dy240 Dy 0.39298 0.06632 0.67829 0.0
Dy241 Dy 0.36897 0.12342 0.6924 0.0
C242 C 0.40192 0.09987 0.73434 0.0
O243 O 0.34351 1.02816 0.6807 0.0
O244 O 0.33484 0.06745 0.70695 0.0
O245 O 0.40951 1.02871 0.68917 0.0
O246 O 0.40849 0.04193 0.64917 0.0
O247 O 0.34371 0.09109 0.65644 0.0
O248 O 0.38186 0.0844 0.64144 0.0
O249 O 0.41039 0.15724 0.67023 0.0
O250 O 0.43318 0.12444 0.68253 0.0
O251 O 0.35786 0.16589 0.68133 0.0
O252 O 0.35504 0.1497 0.72138 0.0
C253 C 0.32595 1.03429 0.69594 0.0
O254 O 0.39129 0.06822 0.72108 0.0
O255 O 0.40091 0.12885 0.7244 0.0
C256 C 0.45419 0.05343 0.66577 0.0
C257 C 0.50875 0.12063 0.66086 0.0
C258 C 0.49688 0.10769 0.68536 0.0
C259 C 0.47001 0.07427 0.68782 0.0
C260 C 0.46812 0.06352 0.64171 0.0
C261 C 0.49513 0.09696 0.63926 0.0
C262 C 0.42143 1.03196 0.66656 0.0
C263 C 0.35631 0.08274 0.63741 0.0
C264 C 0.43468 0.15555 0.67393 0.0
C265 C 0.32247 0.1707 0.70739 0.0
C266 C 0.27039 0.17533 0.713 0.0
C267 C 0.27133 0.14967 0.69515 0.0
C268 C 0.29719 0.14723 0.69244 0.0
C269 C 0.32148 0.19598 0.72533 0.0
C270 C 0.29569 0.19828 0.72816 0.0
C271 C 0.35024 0.16976 0.70463 0.0
H272 H 0.50683 0.12491 0.70249 0.0
H273 H 0.46017 0.06732 0.70676 0.0
H274 H 0.45658 0.04791 0.62441 0.0
H275 H 0.50435 0.10544 0.62021 0.0
H276 H 0.25208 0.13143 0.68338 0.0
H277 H 0.2975 0.12729 0.67861 0.0
H278 H 0.34083 0.21427 0.73702 0.0
H279 H 0.29579 0.21868 0.7418 0.0
Dy280 Dy 0.92938 0.2901 0.70316 0.0
Dy281 Dy 0.86927 0.26138 0.67201 0.0
C282 C 0.93138 0.28529 0.64128 0.0
O283 O 0.91737 0.33867 0.70553 0.0
O284 O 0.88901 0.32369 0.66916 0.0
O285 O 0.97598 0.32943 0.70918 0.0
O286 O 0.95126 0.28883 0.73842 0.0
O287 O 0.86578 0.27847 0.7138 0.0
O288 O 0.89199 0.25278 0.72759 0.0
O289 O 0.86876 0.20628 0.67922 0.0
O290 O 0.91697 0.22865 0.69255 0.0
O291 O 0.82146 0.23239 0.67394 0.0
O292 O 0.84342 0.25705 0.63812 0.0
C293 C 0.9029 0.34758 0.68807 0.0
O294 O 0.94582 0.29551 0.66327 0.0
O295 O 0.90218 0.27021 0.64004 0.0
C296 C 0.99957 0.30102 0.73043 0.0
C297 C 0.04225 0.27742 0.72951 0.0
C298 C 1.0178 0.26118 0.71245 0.0
C299 C 0.99669 0.27291 0.71289 0.0
C300 C 1.0237 0.31718 0.74764 0.0
C301 C 0.04493 0.30545 0.74722 0.0
C302 C 0.97743 0.31346 0.73033 0.0
C303 C 0.87462 0.26597 0.7333 0.0
C304 C 0.89055 0.19988 0.68566 0.0
C305 C 0.80278 0.26409 0.64899 0.0
C306 C 0.77217 0.30484 0.64537 0.0
C307 C 0.7939 0.31409 0.66464 0.0
C308 C 0.80925 0.29403 0.66633 0.0
C309 C 0.78188 0.25563 0.62924 0.0
C310 C 0.7667 0.2759 0.6274 0.0
C311 C 0.81874 0.24284 0.65085 0.0
H312 H 1.01484 0.23914 0.69886 0.0
H313 H 0.97812 0.26011 0.69947 0.0
H314 H 1.02622 0.33899 0.76125 0.0
H315 H 0.06366 0.31874 0.76043 0.0
H316 H 0.79855 0.3363 0.67868 0.0
H317 H 0.82585 0.3015 0.68139 0.0
H318 H 0.77698 0.233 0.6155 0.0
H319 H 0.74973 0.26778 0.6126 0.0
Dy320 Dy 0.78941 0.7013 0.68524 0.0
Dy321 Dy 0.85847 0.75206 0.70277 0.0
C322 C 0.80585 0.70986 0.74501 0.0
O323 O 0.79991 0.76512 0.68704 0.0
O324 O 0.84827 0.79863 0.7022 0.0
O325 O 0.74256 0.67628 0.69388 0.0
O326 O 0.75629 0.67111 0.65556 0.0
O327 O 0.85221 0.76852 0.662 0.0
O328 O 0.81611 0.71043 0.65027 0.0
O329 O 0.85141 0.69274 0.70067 0.0
O330 O 0.80311 0.65557 0.68774 0.0
O331 O 0.90172 0.76193 0.69268 0.0
O332 O 0.89662 0.78935 0.72713 0.0
C333 C 0.82383 0.79793 0.69457 0.0
O334 O 0.78923 0.68736 0.72643 0.0
O335 O 0.83226 0.7391 0.74027 0.0
C336 C 0.71334 0.61817 0.67145 0.0
C337 C 0.67331 0.53901 0.6707 0.0
C338 C 0.66293 0.56504 0.66839 0.0
C339 C 0.68272 0.60411 0.66876 0.0
C340 C 0.72383 0.59244 0.67402 0.0
C341 C 0.70409 0.55338 0.67363 0.0
C342 C 0.73415 0.65948 0.6714 0.0
C343 C 0.83495 0.74481 0.64386 0.0
C344 C 0.8292 0.65932 0.69425 0.0
C345 C 0.94615 0.81357 0.70999 0.0
C346 C 1.00864 0.85548 0.70519 0.0
C347 C 0.99 0.84668 0.68334 0.0
C348 C 0.95907 0.82586 0.68571 0.0
C349 C 0.96459 0.82428 0.73192 0.0
C350 C 0.99545 0.84496 0.72959 0.0
C351 C 0.91478 0.784 0.71257 0.0
H352 H 0.63942 0.55525 0.66653 0.0
H353 H 0.67408 0.62338 0.66689 0.0
H354 H 0.74735 0.60252 0.6761 0.0
H355 H 0.71306 0.53444 0.67516 0.0
H356 H 0.9993 0.85491 0.6643 0.0
H357 H 0.94538 0.81786 0.66842 0.0
H358 H 0.9552 0.81466 0.75081 0.0
H359 H 1.00893 0.85076 0.74685 0.0
C360 C 0.42413 0.66575 0.95168 0.0
C361 C 0.43234 0.65371 0.97396 0.0
C362 C 0.39995 0.67202 0.95209 0.0
C363 C 0.33697 0.65931 0.99498 0.0
H364 H 0.29118 0.59191 0.93872 0.0
C365 C 0.23458 0.51898 1.00849 0.0
C366 C 0.21229 0.50304 0.98942 0.0
C367 C 0.25867 0.55521 1.00559 0.0
C368 C 0.3034 0.61156 0.95429 0.0
H369 H 0.42424 0.64339 0.0148 0.0
H370 H 0.38174 0.65258 0.01543 0.0
H371 H 0.34398 0.63061 0.93459 0.0
H372 H 0.1965 0.51394 0.95341 0.0
H373 H 0.23927 0.57678 0.94794 0.0
H374 H 0.29606 0.63644 0.0156 0.0
C375 C 0.3939 0.6581 0.99762 0.0
C376 C 0.33398 0.63412 0.95192 0.0
C377 C 0.41832 0.65248 0.99728 0.0
C378 C 0.21389 0.52489 0.968 0.0
C379 C 0.23807 0.56108 0.96505 0.0
C380 C 0.30632 0.63627 0.99748 0.0
C381 C 0.38309 0.66527 0.97462 0.0
C382 C 0.35145 0.6558 0.97307 0.0
C383 C 0.26104 0.57625 0.98352 0.0
C384 C 0.28974 0.61012 0.97785 0.0
H385 H 0.43514 0.66783 0.93357 0.0
H386 H 0.39291 0.67884 0.93422 0.0
H387 H 0.3496 0.67689 1.01126 0.0
H388 H 0.23396 0.50296 0.02523 0.0
H389 H 0.27632 0.56582 0.01993 0.0
C390 C 0.49714 0.92448 1.01138 0.0
C391 C 0.51457 0.95796 0.0259 0.0
C392 C 0.5041 0.89467 1.01043 0.0
C393 C 0.56586 0.87159 0.02914 0.0
H394 H 0.50664 0.76986 1.00931 0.0
C395 C 0.58819 0.74121 0.0343 0.0
C396 C 0.57591 0.71338 0.01449 0.0
C397 C 0.58115 0.77092 0.0363 0.0
C398 C 0.52374 0.79811 0.01476 0.0
H399 H 0.55281 0.9845 0.05155 0.0
H400 H 0.5639 0.93331 0.05093 0.0
H401 H 0.4933 0.81936 1.01152 0.0
H402 H 0.54608 0.69642 0.98133 0.0
H403 H 0.53385 0.74655 0.98505 0.0
H404 H 0.59607 0.84974 0.03286 0.0
C405 C 0.54541 0.92992 0.03924 0.0
C406 C 0.51601 0.82708 0.01595 0.0
C407 C 0.53874 0.95972 0.03986 0.0
C408 C 0.55632 0.71677 0.99696 0.0
C409 C 0.54897 0.74582 0.99919 0.0
C410 C 0.57345 0.84248 0.0283 0.0
C411 C 0.52863 0.89662 0.02424 0.0
C412 C 0.53686 0.86482 0.02308 0.0
C413 C 0.56108 0.77368 0.0189 0.0
C414 C 0.55266 0.80501 0.02091 0.0
H415 H 0.47848 0.92162 1.00013 0.0
H416 H 0.49037 0.87039 0.99828 0.0
H417 H 0.58331 0.89975 0.03417 0.0
H418 H 0.60306 0.7399 0.04845 0.0
H419 H 0.59101 0.79132 0.05194 0.0
C420 C 0.30357 0.8257 0.97815 0.0
C421 C 0.33132 0.83823 0.99022 0.0
C422 C 0.28176 0.78748 0.97821 0.0
C423 C 0.25901 0.69741 1.01249 0.0
H424 H 0.20505 0.65459 0.95411 0.0
C425 C 0.16241 0.54134 1.00981 0.0
C426 C 0.13483 0.5364 1.00149 0.0
C427 C 0.18848 0.57613 1.00683 0.0
C428 C 0.21984 0.66611 0.97064 0.0
H429 H 0.35754 0.81958 1.01188 0.0
H430 H 0.31989 0.7529 1.01128 0.0
H431 H 0.24654 0.71879 0.95201 0.0
H432 H 0.11327 0.56401 0.98288 0.0
H433 H 0.15845 0.62416 0.97748 0.0
H434 H 0.23206 0.64454 0.0311 0.0
C435 C 0.31483 0.77282 1.00208 0.0
C436 C 0.24365 0.70309 0.96948 0.0
C437 C 0.33664 0.81115 1.00213 0.0
C438 C 0.13408 0.56673 0.98952 0.0
C439 C 0.1601 0.60125 0.98626 0.0
C440 C 0.23523 0.66027 1.01358 0.0
C441 C 0.28699 0.7604 0.99017 0.0
C442 C 0.26321 0.71968 0.99062 0.0
C443 C 0.18764 0.60662 0.99509 0.0
C444 C 0.21491 0.64444 0.99289 0.0
H445 H 0.29864 0.84539 0.96844 0.0
H446 H 0.26054 0.77934 0.96916 0.0
H447 H 0.27338 0.70909 0.02925 0.0
H448 H 0.16378 0.51869 0.01929 0.0
H449 H 0.20929 0.57919 1.01379 0.0
C450 C 0.4916 0.18035 1.0072 0.0
C451 C 0.5102 0.17135 0.02205 0.0
C452 C 0.49719 0.21841 1.00528 0.0
C453 C 0.55851 0.32144 0.0165 0.0
H454 H 0.49501 0.34506 1.0121 0.0
C455 C 0.58425 0.48103 0.02187 0.0
C456 C 0.56406 0.49128 1.0113 0.0
C457 C 0.57763 0.4426 0.02272 0.0
C458 C 0.5134 0.33961 1.01292 0.0
H459 H 0.54967 0.19776 0.04651 0.0
H460 H 0.55898 0.26184 0.04318 0.0
H461 H 0.4835 0.27932 1.01338 0.0
H462 H 0.52073 0.46698 0.99294 0.0
H463 H 0.50977 0.40171 0.99368 0.0
H464 H 0.58848 0.38133 0.01567 0.0
C465 C 0.54013 0.23996 0.03266 0.0
C466 C 0.50659 0.30114 1.01373 0.0
C467 C 0.53445 0.20233 0.03476 0.0
C468 C 0.53713 0.46112 1.00142 0.0
C469 C 0.53061 0.42289 1.00208 0.0
C470 C 0.56534 0.35982 0.01549 0.0
C471 C 0.52186 0.24934 0.01781 0.0
C472 C 0.52894 0.29092 0.01576 0.0
C473 C 0.55052 0.41224 1.01288 0.0
C474 C 0.54303 0.37025 1.0138 0.0
H475 H 0.47278 0.15806 0.99689 0.0
H476 H 0.48236 0.22362 0.99347 0.0
H477 H 0.57681 0.31579 0.01753 0.0
H478 H 0.60517 0.50275 0.0299 0.0
H479 H 0.59387 0.43688 0.03162 0.0
C480 C 0.73673 0.21805 0.0616 0.0
C481 C 0.71923 0.20898 0.03902 0.0
C482 C 0.76743 0.23307 0.06023 0.0
C483 C 0.83119 0.27772 0.01513 0.0
H484 H 0.86984 0.24938 0.06758 0.0
C485 C 0.95558 0.32322 1.0108 0.0
C486 C 0.97136 0.34403 0.03279 0.0
C487 C 0.92459 0.30175 1.01114 0.0
C488 C 0.85928 0.25739 0.05277 0.0
H489 H 0.72091 0.21018 0.9972 0.0
H490 H 0.77404 0.23454 0.99482 0.0
H491 H 0.81622 0.22343 0.06861 0.0
H492 H 0.9675 0.35686 0.07275 0.0
H493 H 0.91349 0.31824 0.07363 0.0
H494 H 0.87443 0.31125 0.99917 0.0
C495 C 0.76414 0.23069 1.01367 0.0
C496 C 0.82859 0.24287 0.05347 0.0
C497 C 0.73347 0.21619 0.01504 0.0
C498 C 0.95585 0.34088 0.0556 0.0
C499 C 0.92498 0.31882 0.05609 0.0
C500 C 0.86181 0.29173 0.01423 0.0
C501 C 0.78154 0.23896 0.03625 0.0
C502 C 0.81414 0.25329 0.03488 0.0
C503 C 0.90899 0.30013 0.03363 0.0
C504 C 0.87619 0.28209 0.03322 0.0
H505 H 0.72669 0.21252 0.08045 0.0
H506 H 0.78005 0.23985 0.07808 0.0
H507 H 0.82108 0.28694 1.00071 0.0
H508 H 0.96696 0.32565 0.99284 0.0
H509 H 0.91274 0.28744 0.99361 0.0
C510 C 0.90079 0.50266 0.08794 0.0
C511 C 0.91013 0.49856 0.06332 0.0
C512 C 0.87568 0.50658 0.09072 0.0
C513 C 0.80951 0.49693 0.05601 0.0
H514 H 0.821 0.58011 0.10085 0.0
C515 C 0.7421 0.57306 0.04514 0.0
C516 C 0.73266 0.58356 0.06756 0.0
C517 C 0.76106 0.55806 0.0468 0.0
C518 C 0.81722 0.55639 0.0886 0.0
H519 H 0.90004 0.49402 0.0224 0.0
H520 H 0.85637 0.5012 0.02719 0.0
H521 H 0.85832 0.56038 0.1 0.0
H522 H 0.73554 0.58636 0.10932 0.0
H523 H 0.76906 0.56035 0.11222 0.0
H524 H 0.7688 0.49381 0.04403 0.0
C525 C 0.86813 0.50082 0.0444 0.0
C526 C 0.83856 0.54502 0.08812 0.0
C527 C 0.89317 0.49676 0.04163 0.0
C528 C 0.74272 0.5789 0.09171 0.0
C529 C 0.76179 0.56393 0.09337 0.0
C530 C 0.78819 0.50837 0.05644 0.0
C531 C 0.8595 0.50661 0.06893 0.0
C532 C 0.83521 0.51563 0.07147 0.0
C533 C 0.7711 0.55332 0.07092 0.0
C534 C 0.79213 0.53869 0.07237 0.0
H535 H 0.91322 0.50352 0.10502 0.0
H536 H 0.86927 0.51033 0.1099 0.0
H537 H 0.80609 0.47381 0.04328 0.0
H538 H 0.7352 0.57699 0.02622 0.0
H539 H 0.76838 0.55092 0.02914 0.0
C540 C 0.92161 0.82266 0.3607 0.0
C541 C 0.90491 0.81852 0.338 0.0
C542 C 0.95198 0.83254 0.35995 0.0
C543 C 1.02047 0.87511 0.31742 0.0
H544 H 0.05095 0.83306 0.3678 0.0
C545 C 0.1495 0.92396 0.32728 0.0
C546 C 0.15743 0.89631 0.33347 0.0
C547 C 0.11935 0.91574 0.32751 0.0
C548 C 0.04311 0.84519 0.35338 0.0
H549 H 0.90894 0.8225 0.29643 0.0
H550 H 0.96136 0.83967 0.29513 0.0
H551 H 0.9988 0.81604 0.36836 0.0
H552 H 0.13831 0.83786 0.34498 0.0
H553 H 0.08707 0.82406 0.34561 0.0
H554 H 0.06498 0.90421 0.30245 0.0
C555 C 0.95089 0.83526 0.31375 0.0
C556 C 1.0128 0.83557 0.35388 0.0
C557 C 0.92034 0.82488 0.31448 0.0
C558 C 0.1338 0.86034 0.34007 0.0
C559 C 0.10394 0.85233 0.34061 0.0
C560 C 0.05096 0.88513 0.31712 0.0
C561 C 0.96753 0.83929 0.33648 0.0
C562 C 1.00056 0.85009 0.33586 0.0
C563 C 0.09578 0.87968 0.33432 0.0
C564 C 0.06306 0.8702 0.335 0.0
H565 H 0.91113 0.81785 0.37933 0.0
H566 H 0.96341 0.83546 0.37807 0.0
H567 H 1.01261 0.88751 0.30323 0.0
H568 H 0.16659 0.952 0.32205 0.0
H569 H 0.1146 0.93802 0.32266 0.0
C570 C 0.16603 0.30379 0.40401 0.0
C571 C 0.1427 0.30556 0.39156 0.0
C572 C 0.16568 0.26952 0.40592 0.0
C573 C 0.14467 0.18909 0.36615 0.0
H574 H 0.17928 0.15989 0.42167 0.0
C575 C 0.23007 0.14226 0.35042 0.0
C576 C 0.22576 0.10889 0.362 0.0
C577 C 0.21158 0.15702 0.35629 0.0
C578 C 0.16903 0.16714 0.40614 0.0
H579 H 0.09978 0.27298 0.37283 0.0
H580 H 0.09969 0.21267 0.37528 0.0
H581 H 0.15864 0.20141 0.4309 0.0
H582 H 0.19858 0.06508 0.38906 0.0
H583 H 0.16721 0.09231 0.40021 0.0
H584 H 0.15724 0.15737 0.34107 0.0
C585 C 0.11796 0.23781 0.3839 0.0
C586 C 0.15728 0.19081 0.4114 0.0
C587 C 0.11802 0.27216 0.38249 0.0
C588 C 0.20288 0.09115 0.38008 0.0
C589 C 0.18469 0.10639 0.38629 0.0
C590 C 0.15676 0.16588 0.36086 0.0
C591 C 0.14222 0.2365 0.39499 0.0
C592 C 0.14618 0.20327 0.39124 0.0
C593 C 0.18871 0.13914 0.37415 0.0
C594 C 0.17015 0.1561 0.38064 0.0
H595 H 0.18515 0.32921 0.41137 0.0
H596 H 0.18484 0.26944 0.41426 0.0
H597 H 0.13652 0.19855 0.35022 0.0
H598 H 0.24783 0.15717 0.33689 0.0
H599 H 0.21548 0.18286 0.34714 0.0
C600 C 0.96024 0.18459 0.32184 0.0
C601 C 0.96459 0.20729 0.34385 0.0
C602 C 0.93593 0.14797 0.32011 0.0
C603 C 0.86102 0.08876 0.34512 0.0
H604 H 0.87193 1.00404 0.32616 0.0
C605 C 0.77021 0.93569 0.36198 0.0
C606 C 0.76632 0.90748 0.34401 0.0
C607 C 0.79405 0.97233 0.36003 0.0
C608 C 0.86836 1.02741 0.33105 0.0
H609 H 0.94674 0.20977 0.38108 0.0
H610 H 0.90423 0.14602 0.37798 0.0
H611 H 0.91429 0.06809 0.32602 0.0
H612 H 0.78439 0.89576 0.30973 0.0
H613 H 0.82572 0.96011 0.30594 0.0
H614 H 0.8152 0.04852 0.34998 0.0
C615 C 0.91962 0.15645 0.36211 0.0
C616 C 0.89267 0.06408 0.33104 0.0
C617 C 0.94407 0.19279 0.36398 0.0
C618 C 0.78676 0.91685 0.3239 0.0
C619 C 0.81057 0.95369 0.32183 0.0
C620 C 0.8367 0.05224 0.34489 0.0
C621 C 0.9153 0.13365 0.34018 0.0
C622 C 0.8893 0.09503 0.33848 0.0
C623 C 0.81454 0.98189 0.33992 0.0
C624 C 0.84012 1.02099 0.33829 0.0
H625 H 0.97583 0.195 0.30612 0.0
H626 H 0.93305 0.13103 0.30295 0.0
H627 H 0.8577 0.11218 0.35052 0.0
H628 H 0.75507 0.92941 0.37787 0.0
H629 H 0.79669 0.993 0.37464 0.0
C630 C 0.25055 0.70401 0.24538 0.0
C631 C 0.26952 0.73732 0.25916 0.0
C632 C 0.25899 0.67682 0.24111 0.0
C633 C 0.26849 0.61304 0.25458 0.0
H634 H 0.27817 0.62965 0.32849 0.0
C635 C 0.17968 0.51341 0.3222 0.0
C636 C 0.18601 0.51073 0.34819 0.0
C637 C 0.20205 0.53806 0.30587 0.0
C638 C 0.27586 0.62375 0.30796 0.0
H639 H 0.31495 0.77307 0.27221 0.0
H640 H 0.3293 0.72498 0.26544 0.0
H641 H 0.30447 0.68166 0.30053 0.0
H642 H 0.22048 0.5336 0.37771 0.0
H643 H 0.2597 0.57442 0.34909 0.0
H644 H 0.23845 0.55496 0.26251 0.0
C645 C 0.30767 0.71926 0.25864 0.0
C646 C 0.29134 0.65402 0.29163 0.0
C647 C 0.29929 0.74664 0.26288 0.0
C648 C 0.21491 0.53436 0.35768 0.0
C649 C 0.23748 0.55806 0.34119 0.0
C650 C 0.25329 0.58244 0.27098 0.0
C651 C 0.28603 0.68231 0.25142 0.0
C652 C 0.28519 0.64981 0.26495 0.0
C653 C 0.23143 0.56019 0.31499 0.0
C654 C 0.25468 0.5883 0.29789 0.0
H655 H 0.22771 0.69625 0.24137 0.0
H656 H 0.24204 0.64922 0.23429 0.0
H657 H 0.26412 0.60863 0.23403 0.0
H658 H 0.15762 0.49572 0.31423 0.0
H659 H 0.19609 0.53979 0.2861 0.0
C660 C 0.38814 0.50525 0.3821 0.0
C661 C 0.37305 0.52546 0.3771 0.0
C662 C 0.4191 0.52198 0.37911 0.0
C663 C 0.48463 0.60371 0.34821 0.0
H664 H 0.53048 0.58094 0.39673 0.0
C665 C 0.61235 0.67026 0.3367 0.0
C666 C 0.62965 0.68491 0.35931 0.0
C667 C 0.58143 0.64572 0.33791 0.0
C668 C 0.51816 0.58778 0.38296 0.0
H669 H 0.37996 0.58009 0.3651 0.0
H670 H 0.43337 0.60885 0.35971 0.0
H671 H 0.47669 0.55058 0.40088 0.0
H672 H 0.62766 0.68409 0.40092 0.0
H673 H 0.57441 0.64059 0.40317 0.0
H674 H 0.5261 0.64164 0.33069 0.0
C675 C 0.42119 0.5797 0.36566 0.0
C676 C 0.48704 0.56997 0.3852 0.0
C677 C 0.39024 0.56302 0.36874 0.0
C678 C 0.61537 0.67221 0.38311 0.0
C679 C 0.58454 0.64753 0.38435 0.0
C680 C 0.51571 0.62136 0.34589 0.0
C681 C 0.43628 0.55959 0.37089 0.0
C682 C 0.46965 0.57782 0.36801 0.0
C683 C 0.56675 0.6351 0.3618 0.0
C684 C 0.53316 0.61399 0.36332 0.0
H685 H 0.37602 0.47613 0.3881 0.0
H686 H 0.42951 0.50509 0.38295 0.0
H687 H 0.47232 0.61038 0.33432 0.0
H688 H 0.62226 0.68051 0.31806 0.0
H689 H 0.56886 0.63646 0.32002 0.0
C690 C 0.36078 0.94483 0.34292 0.0
C691 C 0.33203 0.91317 0.34401 0.0
C692 C 0.38644 0.94064 0.34436 0.0
C693 C 0.4096 0.86819 0.36268 0.0
H694 H 0.4834 0.93631 0.32958 0.0
C695 C 0.51405 0.85076 0.37703 0.0
C696 C 0.53576 0.86177 0.35767 0.0
C697 C 0.49051 0.85871 0.37536 0.0
C698 C 0.46295 0.91657 0.33879 0.0
H699 H 0.30862 0.85191 0.34612 0.0
H700 H 0.35195 0.84479 0.34772 0.0
H701 H 0.44116 0.94714 0.32628 0.0
H702 H 0.54854 0.89047 0.32102 0.0
H703 H 0.50716 0.90272 0.3176 0.0
H704 H 0.43053 0.83668 0.37433 0.0
C705 C 0.35534 0.8732 0.34696 0.0
C706 C 0.43858 0.92321 0.33719 0.0
C707 C 0.33005 0.87738 0.34584 0.0
C708 C 0.53247 0.88085 0.33636 0.0
C709 C 0.50868 0.88853 0.33457 0.0
C710 C 0.43373 0.8614 0.36409 0.0
C711 C 0.38422 0.90461 0.34669 0.0
C712 C 0.41122 0.89897 0.34897 0.0
C713 C 0.48709 0.87765 0.35406 0.0
C714 C 0.46106 0.88536 0.35223 0.0
H715 H 0.3635 0.97286 0.34131 0.0
H716 H 0.40802 0.96582 0.34409 0.0
H717 H 0.38956 0.84899 0.37266 0.0
H718 H 0.5149 0.8355 0.39366 0.0
H719 H 0.47512 0.85016 0.3912 0.0
C720 C 0.74386 0.33176 0.62314 0.0
C721 C 0.75222 0.32114 0.64599 0.0
C722 C 0.71892 0.33648 0.62262 0.0
C723 C 0.65392 0.32095 0.66389 0.0
H724 H 0.61096 0.25199 0.60741 0.0
C725 C 0.55647 0.17646 0.67619 0.0
C726 C 0.53349 0.15988 0.65773 0.0
C727 C 0.57948 0.21342 0.67333 0.0
C728 C 0.62238 0.27205 0.62299 0.0
H729 H 0.74352 0.31182 0.68682 0.0
H730 H 0.69971 0.31823 0.68587 0.0
H731 H 0.66364 0.29312 0.60409 0.0
H732 H 0.51572 0.17029 0.62267 0.0
H733 H 0.55699 0.23434 0.61703 0.0
H734 H 0.61248 0.29585 0.68382 0.0
C735 C 0.7123 0.32384 0.6683 0.0
C736 C 0.65288 0.29599 0.62111 0.0
C737 C 0.73749 0.31985 0.66889 0.0
C738 C 0.5336 0.1817 0.63679 0.0
C739 C 0.55687 0.21859 0.63377 0.0
C740 C 0.6234 0.29644 0.66592 0.0
C741 C 0.70143 0.32949 0.64477 0.0
C742 C 0.66943 0.31831 0.64245 0.0
C743 C 0.58024 0.23456 0.65183 0.0
C744 C 0.60796 0.26978 0.64624 0.0
H745 H 0.75535 0.33379 0.60533 0.0
H746 H 0.7119 0.34225 0.60435 0.0
H747 H 0.66573 0.33901 0.68025 0.0
H748 H 0.55721 0.16053 0.69248 0.0
H749 H 0.59759 0.2247 0.68725 0.0
C750 C 0.90436 0.40495 0.71245 0.0
C751 C 0.89829 0.38205 0.69006 0.0
C752 C 0.89666 0.43415 0.71395 0.0
C753 C 0.84918 0.46998 0.67962 0.0
H754 H 0.89317 0.55861 0.72304 0.0
C755 C 0.81328 0.58801 0.68888 0.0
C756 C 0.83513 0.62581 0.69445 0.0
C757 C 0.82002 0.55796 0.68917 0.0
C758 C 0.88056 0.53441 0.71046 0.0
H759 H 0.8793 0.37377 0.65155 0.0
H760 H 0.8669 0.42369 0.65389 0.0
H761 H 0.9072 0.5097 0.72183 0.0
H762 H 0.88177 0.66019 0.70452 0.0
H763 H 0.89332 0.60938 0.70455 0.0
H764 H 0.82301 0.49505 0.66775 0.0
C765 C 0.877 0.41911 0.67075 0.0
C766 C 0.88852 0.50559 0.71006 0.0
C767 C 0.88461 0.39021 0.66929 0.0
C768 C 0.86391 0.6319 0.70025 0.0
C769 C 0.87063 0.60213 0.70048 0.0
C770 C 0.84125 0.49881 0.67999 0.0
C771 C 0.88243 0.44176 0.69317 0.0
C772 C 0.87325 0.47263 0.69445 0.0
C773 C 0.84896 0.5642 0.69503 0.0
C774 C 0.85684 0.53209 0.69525 0.0
H775 H 0.91441 0.39976 0.72912 0.0
H776 H 0.90129 0.45016 0.73181 0.0
H777 H 0.83601 0.44527 0.66762 0.0
H778 H 0.79082 0.58149 0.68433 0.0
H779 H 0.80221 0.52962 0.68507 0.0
C780 C 0.62737 0.48172 0.65307 0.0
C781 C 0.65219 0.49721 0.66979 0.0
C782 C 0.6075 0.44274 0.65222 0.0
C783 C 0.58128 0.35546 0.69046 0.0
H784 H 0.5432 0.30648 0.6258 0.0
C785 C 0.48917 0.19705 0.6844 0.0
C786 C 0.46374 0.1904 0.67033 0.0
C787 C 0.51544 0.23208 0.68308 0.0
C788 C 0.55355 0.31971 0.64406 0.0
H789 H 0.67524 0.4831 0.69883 0.0
H790 H 0.64089 0.41515 0.69703 0.0
H791 H 0.58263 0.37227 0.62614 0.0
H792 H 0.44641 0.21478 0.64305 0.0
H793 H 0.49198 0.27513 0.64041 0.0
H794 H 0.55176 0.30294 0.70838 0.0
C795 C 0.63667 0.4333 0.6847 0.0
C796 C 0.57616 0.35756 0.64427 0.0
C797 C 0.65659 0.47236 0.68553 0.0
C798 C 0.46556 0.21893 0.65416 0.0
C799 C 0.49184 0.25355 0.65252 0.0
C800 C 0.55866 0.31752 0.69023 0.0
C801 C 0.61177 0.41788 0.66805 0.0
C802 C 0.58984 0.37635 0.66756 0.0
C803 C 0.51702 0.26094 0.66727 0.0
C804 C 0.54392 0.29943 0.66711 0.0
H805 H 0.62334 0.49969 0.64039 0.0
H806 H 0.58844 0.43218 0.6394 0.0
H807 H 0.59112 0.36886 0.7088 0.0
H808 H 0.48845 0.17577 0.69718 0.0
H809 H 0.53445 0.23667 0.69459 0.0
C810 C 0.85 0.86782 0.70711 0.0
C811 C 0.82597 0.83711 0.69398 0.0
C812 C 0.85564 0.90542 0.70548 0.0
C813 C 0.82334 0.96795 0.68695 0.0
H814 H 0.90582 0.04649 0.68856 0.0
C815 C 0.8568 0.1291 0.6756 0.0
C816 C 0.88402 0.15861 0.68555 0.0
C817 C 0.84956 0.09059 0.67598 0.0
C818 C 0.88254 1.02546 0.68849 0.0
H819 H 0.78857 0.82419 0.6689 0.0
H820 H 0.79804 0.88992 0.66635 0.0
H821 H 0.89301 0.98055 0.69003 0.0
H822 H 0.92484 0.16862 0.70396 0.0
H823 H 0.9123 0.10224 0.70519 0.0
H824 H 0.8128 1.01282 0.68577 0.0
C825 C 0.81278 0.88441 0.67806 0.0
C826 C 0.87504 0.98685 0.68928 0.0
C827 C 0.80717 0.84626 0.67957 0.0
C828 C 0.90374 0.14743 0.69588 0.0
C829 C 0.8964 0.10871 0.69645 0.0
C830 C 0.83084 1.00668 0.68636 0.0
C831 C 0.83758 0.91513 0.69067 0.0
C832 C 0.84524 0.95691 0.68868 0.0
C833 C 0.86899 0.07901 0.68655 0.0
C834 C 0.86071 0.03674 0.68717 0.0
H835 H 0.86518 0.86305 0.71877 0.0
H836 H 0.87444 0.92706 0.71619 0.0
H837 H 0.80013 0.94658 0.68669 0.0
H838 H 0.84072 0.13568 0.6673 0.0
H839 H 0.82853 0.06994 0.66756 0.0
C840 C 0.05372 0.8621 0.68214 0.0
C841 C 0.04151 0.8729 0.70256 0.0
C842 C 0.08435 0.87594 0.68085 0.0
C843 C 0.15148 0.91592 0.72224 0.0
H844 H 0.1944 0.95032 0.65822 0.0
C845 C 0.27825 1.00869 0.71951 0.0
C846 C 0.29417 1.00574 0.69861 0.0
C847 C 0.24736 0.98728 0.72005 0.0
C848 C 0.18271 0.94014 0.67618 0.0
H849 H 0.05246 0.90815 0.73703 0.0
H850 H 0.10572 0.93192 0.73488 0.0
H851 H 0.14075 0.92498 0.65844 0.0
H852 H 0.29015 0.97673 0.66227 0.0
H853 H 0.23589 0.93859 0.66337 0.0
H854 H 0.19326 0.93112 0.74007 0.0
C855 C 0.09149 0.91225 0.72008 0.0
C856 C 0.15194 0.92579 0.67632 0.0
C857 C 0.0609 0.89862 0.72129 0.0
C858 C 0.27854 0.97935 0.67879 0.0
C859 C 0.24743 0.95791 0.67926 0.0
C860 C 0.18215 0.93004 0.72209 0.0
C861 C 0.10357 0.90073 0.70003 0.0
C862 C 0.13604 0.91415 0.69945 0.0
C863 C 0.23142 0.96227 0.69966 0.0
C864 C 0.1983 0.94304 0.69916 0.0
H865 H 0.03953 0.84189 0.66758 0.0
H866 H 0.09289 0.86627 0.66526 0.0
H867 H 0.13983 0.90641 0.74029 0.0
H868 H 0.2896 1.02882 0.73508 0.0
H869 H 0.23594 0.99185 0.73593 0.0
C870 C 0.23373 0.18342 0.73977 0.0
C871 C 0.2436 0.17938 0.71537 0.0
C872 C 0.21018 0.19067 0.742 0.0
C873 C 0.14735 0.1882 0.70603 0.0
H874 H 0.15772 0.26608 0.75551 0.0
C875 C 0.07448 0.2586 0.70477 0.0
C876 C 0.06488 0.2652 0.7286 0.0
C877 C 0.09529 0.24635 0.70378 0.0
C878 C 0.1543 0.24394 0.74184 0.0
H879 H 0.23609 0.17888 0.67419 0.0
H880 H 0.19501 0.19174 0.67805 0.0
H881 H 0.19512 0.24658 0.75266 0.0
H882 H 0.06954 0.26392 0.77009 0.0
H883 H 0.10608 0.24267 0.76836 0.0
H884 H 0.10668 0.18599 0.695 0.0
C885 C 0.20524 0.18884 0.69548 0.0
C886 C 0.17571 0.23271 0.74022 0.0
C887 C 0.22877 0.18147 0.69325 0.0
C888 C 0.07677 0.25956 0.75143 0.0
C889 C 0.09765 0.24733 0.75045 0.0
C890 C 0.12595 0.19948 0.70763 0.0
C891 C 0.196 0.19414 0.71988 0.0
C892 C 0.17257 0.20485 0.72222 0.0
C893 C 0.10705 0.24048 0.7266 0.0
C894 C 0.12929 0.22764 0.72545 0.0
H895 H 0.24443 0.18132 0.75717 0.0
H896 H 0.20321 0.19385 0.76108 0.0
H897 H 0.14408 0.1663 0.69221 0.0
H898 H 0.06614 0.26334 0.68682 0.0
H899 H 0.10251 0.24201 0.68512 0.0
C900 C 0.1842 0.44305 0.28573 0.0
C901 C 0.16311 0.41092 0.29891 0.0
C902 C 0.17878 0.4497 0.26011 0.0
C903 C 0.11704 0.43124 0.21668 0.0
H904 H 0.16862 0.44627 0.15884 0.0
C905 C 0.09235 0.46559 0.11357 0.0
C906 C 0.09305 0.44231 0.09363 0.0
C907 C 0.10341 0.46533 0.13836 0.0
C908 C 0.15404 0.44229 0.17483 0.0
H909 H 0.12026 0.3599 0.29459 0.0
H910 H 0.11093 0.37187 0.25077 0.0
H911 H 0.18403 0.43955 0.2025 0.0
H912 H 0.107 0.40148 0.08411 0.0
H913 H 0.1269 0.40182 0.12703 0.0
H914 H 0.08705 0.43397 0.18924 0.0
C915 C 0.13157 0.39199 0.26016 0.0
C916 C 0.16297 0.43869 0.19984 0.0
C917 C 0.13712 0.38508 0.28538 0.0
C918 C 0.10592 0.41964 0.09898 0.0
C919 C 0.11753 0.42 0.12358 0.0
C920 C 0.10842 0.43566 0.19184 0.0
C921 C 0.15198 0.42463 0.2473 0.0
C922 C 0.14431 0.43242 0.22102 0.0
C923 C 0.11609 0.44245 0.14374 0.0
C924 C 0.12654 0.44062 0.17047 0.0
H925 H 0.20436 0.46371 0.29546 0.0
H926 H 0.19499 0.47515 0.25071 0.0
H927 H 0.10217 0.42655 0.23257 0.0
H928 H 0.0826 0.48337 0.11021 0.0
H929 H 0.10204 0.4831 0.15338 0.0
C930 C 0.66986 0.73549 0.2636 0.0
C931 C 0.66545 0.76256 0.277 0.0
C932 C 0.65549 0.71985 0.24001 0.0
C933 C 0.59301 0.70829 0.19631 0.0
H934 H 0.63239 0.67419 0.14844 0.0
C935 C 0.5557 0.64955 0.0884 0.0
C936 C 0.55559 0.61533 0.08353 0.0
C937 C 0.56608 0.66884 0.11232 0.0
C938 C 0.62103 0.68352 0.16159 0.0
H939 H 0.64191 0.79411 0.27558 0.0
H940 H 0.61766 0.76796 0.23381 0.0
H941 H 0.65765 0.70689 0.188 0.0
H942 H 0.56457 0.57368 0.10077 0.0
H943 H 0.58271 0.60717 0.1418 0.0
H944 H 0.55667 0.68548 0.16884 0.0
C945 C 0.63189 0.75816 0.24189 0.0
C946 C 0.63544 0.70208 0.18457 0.0
C947 C 0.64605 0.77351 0.26587 0.0
C948 C 0.56432 0.59991 0.10371 0.0
C949 C 0.57495 0.61925 0.12725 0.0
C950 C 0.57876 0.69022 0.17291 0.0
C951 C 0.63641 0.73103 0.22847 0.0
C952 C 0.62149 0.71403 0.20277 0.0
C953 C 0.57685 0.65449 0.13167 0.0
C954 C 0.59239 0.67688 0.15552 0.0
H955 H 0.68405 0.72554 0.2716 0.0
H956 H 0.65907 0.69829 0.23111 0.0
H957 H 0.58123 0.71667 0.20963 0.0
H958 H 0.54958 0.66259 0.07325 0.0
H959 H 0.56729 0.69597 0.11511 0.0
C960 C 0.4383 0.98669 0.09998 0.0
C961 C 0.46403 1.02251 0.09975 0.0
C962 C 0.41966 0.97445 0.12137 0.0
C963 C 0.39784 1.01054 0.17866 0.0
H964 H 0.35318 0.9041 0.19485 0.0
C965 C 0.29438 0.95165 0.24453 0.0
C966 C 0.28892 0.92218 0.26149 0.0
C967 C 0.31651 0.9632 0.22572 0.0
C968 C 0.36554 0.93401 0.19089 0.0
H969 H 0.49061 0.07311 0.12265 0.0
H970 H 0.45806 0.05158 0.16045 0.0
H971 H 0.39204 0.92579 0.16275 0.0
H972 H 0.30265 0.88146 0.27141 0.0
H973 H 0.34121 0.9016 0.23888 0.0
H974 H 0.37163 1.01882 0.20714 0.0
C975 C 0.45223 1.03303 0.14372 0.0
C976 C 0.38778 0.9465 0.17213 0.0
C977 C 0.47117 0.04527 0.12217 0.0
C978 C 0.30583 0.90394 0.25857 0.0
C979 C 0.3281 0.91561 0.2398 0.0
C980 C 0.37559 0.99804 0.19747 0.0
C981 C 0.42588 0.99755 0.14349 0.0
C982 C 0.40407 0.98492 0.16538 0.0
C983 C 0.33416 0.94586 0.22327 0.0
C984 C 0.35874 0.95945 0.20372 0.0
H985 H 0.43196 0.96823 0.08314 0.0
H986 H 0.3996 0.94727 0.12002 0.0
H987 H 0.40957 0.04025 0.17403 0.0
H988 H 0.28191 0.96648 0.24609 0.0
H989 H 0.31978 0.98594 0.21312 0.0
C990 C 0.51671 0.06349 0.93095 0.0
C991 C 0.52483 0.09001 0.95127 0.0
C992 C 0.50683 0.06941 0.90723 0.0
C993 C 0.49999 0.13813 0.86513 0.0
H994 H 0.42858 0.04836 0.8418 0.0
C995 C 0.42874 0.13546 0.77544 0.0
C996 C 0.41667 0.1026 0.75978 0.0
C997 C 0.44302 0.13716 0.79905 0.0
C998 C 0.4487 0.07367 0.84771 0.0
H999 H 0.53048 0.14478 0.96198 0.0
H1000 H 0.51347 0.15546 0.92019 0.0
H1001 H 0.45343 0.0466 0.88105 0.0
H1002 H 0.41098 0.04615 0.75673 0.0
H1003 H 0.43581 0.04931 0.79699 0.0
H1004 H 0.49522 0.165 0.83137 0.0
C1005 C 0.51489 0.13003 0.92269 0.0
C1006 C 0.46301 0.07264 0.87037 0.0
C1007 C 0.5249 0.12407 0.9466 0.0
C1008 C 0.41954 0.07182 0.76827 0.0
C1009 C 0.43376 0.07356 0.79162 0.0
C1010 C 0.48568 0.13911 0.84219 0.0
C1011 C 0.50455 0.10198 0.90308 0.0
C1012 C 0.48914 0.10458 0.87925 0.0
C1013 C 0.44555 0.10605 0.80758 0.0
C1014 C 0.46005 0.10662 0.83291 0.0
H1015 H 0.51631 0.03693 0.93391 0.0
H1016 H 0.49978 0.0476 0.89243 0.0
H1017 H 0.52 0.16331 0.87141 0.0
H1018 H 0.42713 0.1598 0.7695 0.0
H1019 H 0.45167 0.16265 0.81079 0.0
C1020 C 0.98448 0.4233 0.94339 0.0
C1021 C 1.00352 0.40932 0.9504 0.0
C1022 C 0.96642 0.4096 0.92102 0.0
C1023 C 0.92608 0.32591 0.88067 0.0
H1024 H 0.9372 0.38885 0.8216 0.0
C1025 C 0.88186 0.25972 0.78009 0.0
C1026 C 0.87676 0.27958 0.76055 0.0
C1027 C 0.89252 0.27603 0.80447 0.0
C1028 C 0.93313 0.3708 0.83801 0.0
H1029 H 1.01771 0.36916 0.93947 0.0
H1030 H 0.9856 0.34455 0.90137 0.0
H1031 H 0.96516 0.41716 0.86158 0.0
H1032 H 0.87755 0.332 0.75208 0.0
H1033 H 0.89487 0.36013 0.7952 0.0
H1034 H 0.89371 0.27972 0.85793 0.0
C1035 C 0.98512 0.36666 0.91281 0.0
C1036 C 0.9494 0.38717 0.86094 0.0
C1037 C 1.00365 0.38097 0.93464 0.0
C1038 C 0.88077 0.31558 0.76673 0.0
C1039 C 0.89135 0.332 0.79142 0.0
C1040 C 0.90936 0.3097 0.85806 0.0
C1041 C 0.96634 0.38081 0.90562 0.0
C1042 C 0.9466 0.36472 0.88232 0.0
C1043 C 0.89828 0.31291 0.81053 0.0
C1044 C 0.91318 0.33154 0.83593 0.0
H1045 H 0.98372 0.44502 0.95507 0.0
H1046 H 0.95209 0.42096 0.91602 0.0
H1047 H 0.92318 0.30791 0.8969 0.0
H1048 H 0.87941 0.23215 0.77597 0.0
H1049 H 0.89786 0.26019 0.818 0.0
C1050 C 0.77366 0.6646 0.77869 0.0
C1051 C 0.79214 0.70225 0.7712 0.0
C1052 C 0.75537 0.6559 0.80035 0.0
C1053 C 0.71562 0.69232 0.84037 0.0
H1054 H 0.70475 0.61278 0.88696 0.0
C1055 C 0.62034 0.6281 0.91744 0.0
C1056 C 0.62918 0.62373 0.9423 0.0
C1057 C 0.63993 0.6376 0.8964 0.0
C1058 C 0.70744 0.63509 0.87418 0.0
H1059 H 0.80573 0.76038 0.78106 0.0
H1060 H 0.77358 0.74525 0.81897 0.0
H1061 H 0.74095 0.63111 0.85242 0.0
H1062 H 0.66549 0.62489 0.96402 0.0
H1063 H 0.69882 0.64026 0.9277 0.0
H1064 H 0.6818 0.69596 0.86214 0.0
C1065 C 0.77349 0.72237 0.80805 0.0
C1066 C 0.72821 0.64554 0.85422 0.0
C1067 C 0.79232 0.73114 0.78653 0.0
C1068 C 0.65775 0.62803 0.94526 0.0
C1069 C 0.67697 0.63676 0.9243 0.0
C1070 C 0.69444 0.68142 0.86015 0.0
C1071 C 0.75438 0.68452 0.81507 0.0
C1072 C 0.73278 0.67443 0.83701 0.0
C1073 C 0.66862 0.64215 0.89954 0.0
C1074 C 0.69011 0.65274 0.87749 0.0
H1075 H 0.77255 0.64156 0.76716 0.0
H1076 H 0.74095 0.62647 0.80487 0.0
H1077 H 0.71817 0.71436 0.8274 0.0
H1078 H 0.59866 0.62531 0.9144 0.0
H1079 H 0.63257 0.64124 0.87761 0.0
C1080 C 0.73114 0.82119 0.45058 0.0
C1081 C 0.72027 0.7907 0.43283 0.0
C1082 C 0.74479 0.82005 0.47402 0.0
C1083 C 0.78278 0.77039 0.5022 0.0
H1084 H 0.77561 0.81093 0.56801 0.0
C1085 C 0.81819 0.73108 0.59765 0.0
C1086 C 0.83028 0.75751 0.61812 0.0
C1087 C 0.80766 0.73929 0.57504 0.0
C1088 C 0.77825 0.79991 0.54971 0.0
H1089 H 0.71355 0.73423 0.42684 0.0
H1090 H 0.73618 0.73184 0.46728 0.0
H1091 H 0.75012 0.81667 0.52979 0.0
H1092 H 0.84091 0.81385 0.63046 0.0
H1093 H 0.82278 0.8285 0.59073 0.0
H1094 H 0.81061 0.75341 0.52183 0.0
C1095 C 0.73524 0.75722 0.46306 0.0
C1096 C 0.76351 0.80316 0.52772 0.0
C1097 C 0.72187 0.75843 0.43984 0.0
C1098 C 0.83235 0.79307 0.61492 0.0
C1099 C 0.82145 0.80121 0.59226 0.0
C1100 C 0.79742 0.76717 0.52403 0.0
C1101 C 0.74788 0.7884 0.48022 0.0
C1102 C 0.76504 0.78772 0.50367 0.0
C1103 C 0.80852 0.77418 0.57206 0.0
C1104 C 0.79501 0.78119 0.54832 0.0
H1105 H 0.73064 0.84668 0.44574 0.0
H1106 H 0.75413 0.84465 0.48668 0.0
H1107 H 0.78541 0.75911 0.48401 0.0
H1108 H 0.81579 0.70322 0.59951 0.0
H1109 H 0.7976 0.71741 0.5603 0.0
C1110 C 0.25069 0.90308 0.43314 0.0
C1111 C 0.24362 0.92344 0.41545 0.0
C1112 C 0.25823 0.91586 0.45892 0.0
C1113 C 0.25849 0.98571 0.50773 0.0
H1114 H 0.32623 0.9822 0.53622 0.0
C1115 C 0.30979 0.04992 0.60949 0.0
C1116 C 0.34079 0.06667 0.61221 0.0
C1117 C 0.29532 1.03031 0.5866 0.0
C1118 C 0.30741 0.98377 0.52855 0.0
H1119 H 0.2372 0.97196 0.41161 0.0
H1120 H 0.25022 0.99396 0.45583 0.0
H1121 H 0.30462 0.95034 0.49535 0.0
H1122 H 0.38083 0.07707 0.59241 0.0
H1123 H 0.356 0.04422 0.55275 0.0
H1124 H 0.26209 1.02046 0.54049 0.0
C1125 C 0.24992 0.96808 0.4502 0.0
C1126 C 0.29464 0.96482 0.50517 0.0
C1127 C 0.24254 0.95546 0.4246 0.0
C1128 C 0.35692 0.06439 0.59117 0.0
C1129 C 0.34257 0.04507 0.56839 0.0
C1130 C 0.27132 1.00475 0.53112 0.0
C1131 C 0.25871 0.94918 0.46768 0.0
C1132 C 0.27025 0.96596 0.4941 0.0
C1133 C 0.31147 1.02699 0.56584 0.0
C1134 C 0.29636 1.00468 0.5417 0.0
H1135 H 0.25199 0.87851 0.42677 0.0
H1136 H 0.26439 0.9001 0.47183 0.0
H1137 H 0.23947 0.9869 0.50017 0.0
H1138 H 0.2966 0.05067 0.62538 0.0
H1139 H 0.27136 1.0167 0.58555 0.0
C1140 C 0.97683 0.29195 0.61943 0.0
C1141 C 0.94985 0.29232 0.61761 0.0
C1142 C 0.99679 0.30332 0.59887 0.0
C1143 C 1.00507 0.32826 0.5282 0.0
H1144 H 0.08897 0.37648 0.54525 0.0
C1145 C 0.09478 0.41163 0.45246 0.0
C1146 C 0.11922 0.4055 0.45023 0.0
C1147 C 0.07527 0.39764 0.47323 0.0
C1148 C 0.06565 0.36276 0.54007 0.0
H1149 H 0.92272 0.30463 0.59211 0.0
H1150 H 0.95777 0.32555 0.55634 0.0
H1151 H 0.05247 0.35254 0.57954 0.0
H1152 H 0.14257 0.38069 0.46935 0.0
H1153 H 0.10872 0.35697 0.50629 0.0
H1154 H 1.01855 0.33977 0.48873 0.0
C1155 C 0.96336 0.31556 0.57357 0.0
C1156 C 0.04446 0.34873 0.55983 0.0
C1157 C 0.94306 0.30349 0.59415 0.0
C1158 C 0.12426 0.38634 0.47039 0.0
C1159 C 0.1047 0.37254 0.49152 0.0
C1160 C 1.02627 0.34273 0.50851 0.0
C1161 C 0.99091 0.31631 0.57569 0.0
C1162 C 1.01368 0.33117 0.55433 0.0
C1163 C 0.07942 0.37716 0.49287 0.0
C1164 C 0.05694 0.36037 0.51409 0.0
H1165 H 0.98282 0.28324 0.63709 0.0
H1166 H 1.01701 0.30207 0.60137 0.0
H1167 H 0.98185 0.31442 0.52275 0.0
H1168 H 0.09002 0.42644 0.43761 0.0
H1169 H 0.05661 0.40265 0.47375 0.0
loop_
_geom_bond_atom_site_label_1
_geom_bond_atom_site_label_2
_geom_bond_distance
_geom_bond_site_symmetry_2
_ccdc_geom_bond_type
Dy0 O3 2.307 1_456 S
Dy0 O5 2.395 1_556 S
Dy0 O6 2.378 . S
Dy0 O8 2.338 . S
Dy0 O10 2.298 . S
Dy0 O14 2.276 1_556 S
Dy0 C22 2.738 1_556 S
Dy1 O4 2.298 . S
Dy1 O7 2.275 1_554 S
Dy1 O9 2.307 1_655 S
Dy1 O11 2.395 1_554 S
Dy1 O12 2.379 . S
Dy1 O15 2.339 . S
Dy1 C31 2.738 . S
C2 O14 1.254 . S
C2 O15 1.257 1_455 S
O3 Dy0 2.307 1_654 S
O3 C13 1.266 . S
O4 Dy1 2.298 . S
O4 C13 1.236 . S
O5 Dy0 2.395 1_554 S
O5 C22 1.255 . S
O6 Dy0 2.378 . S
O6 C22 1.250 1_556 S
O7 Dy1 2.275 1_556 S
O7 C23 1.254 . S
O8 Dy0 2.338 . S
O8 C23 1.257 1_455 S
O9 Dy1 2.307 1_455 S
O9 C24 1.266 . S
O10 Dy0 2.298 . S
O10 C24 1.236 1_556 S
O11 Dy1 2.395 1_556 S
O11 C31 1.255 1_556 S
O12 Dy1 2.379 . S
O12 C31 1.249 . S
C13 O3 1.266 . S
C13 O4 1.236 . S
O14 Dy0 2.276 1_554 S
O14 C2 1.254 . S
O15 Dy1 2.339 . S
O15 C2 1.257 1_655 S
C16 C19 1.361 . S
C16 C20 1.311 1_554 S
C16 C22 1.516 . S
C17 C18 1.304 . S
C17 C21 1.323 1_554 S
C18 C17 1.304 . S
C18 C19 1.371 . S
C18 H32 0.930 . S
C19 C16 1.361 . S
C19 C18 1.371 . S
C19 H33 0.931 . S
C20 C16 1.311 1_556 S
C20 C21 1.433 . S
C20 H34 0.931 . S
C21 C17 1.323 1_556 S
C21 C20 1.433 . S
C21 H35 0.933 . S
C22 Dy0 2.738 1_554 S
C22 O5 1.255 . S
C22 O6 1.250 1_554 S
C22 C16 1.516 . S
C23 O7 1.254 . S
C23 O8 1.257 1_655 S
C24 O9 1.266 . S
C24 O10 1.236 1_554 S
C25 C28 1.344 1_554 S
C25 C29 1.328 . S
C25 C31 1.516 . S
C26 C27 1.304 1_554 S
C26 C30 1.323 . S
C27 C26 1.304 1_556 S
C27 C28 1.371 . S
C27 H36 0.930 . S
C28 C25 1.344 1_556 S
C28 C27 1.371 . S
C28 H37 0.931 . S
C29 C25 1.328 . S
C29 C30 1.433 . S
C29 H38 0.931 . S
C30 C26 1.323 . S
C30 C29 1.433 . S
C30 H39 0.933 . S
C31 Dy1 2.738 . S
C31 O11 1.255 1_554 S
C31 O12 1.249 . S
C31 C25 1.516 . S
H32 C18 0.930 . S
H33 C19 0.931 . S
H34 C20 0.931 . S
H35 C21 0.933 . S
H36 C27 0.930 . S
H37 C28 0.931 . S
H38 C29 0.931 . S
H39 C30 0.933 . S
Dy40 O43 2.307 . S
Dy40 O45 2.395 1_554 S
Dy40 O46 2.379 . S
Dy40 O48 2.339 . S
Dy40 O50 2.298 . S
Dy40 O54 2.275 1_554 S
Dy40 C62 2.738 . S
Dy41 O44 2.298 . S
Dy41 O47 2.275 1_556 S
Dy41 O49 2.307 . S
Dy41 O51 2.395 1_556 S
Dy41 O52 2.379 . S
Dy41 O55 2.339 . S
Dy41 C71 2.738 . S
C42 O54 1.254 . S
C42 O55 1.257 . S
O43 Dy40 2.307 . S
O43 C53 1.266 1_554 S
O44 Dy41 2.298 . S
O44 C53 1.236 . S
O45 Dy40 2.395 1_556 S
O45 C62 1.255 1_556 S
O46 Dy40 2.379 . S
O46 C62 1.249 . S
O47 Dy41 2.275 1_554 S
O47 C63 1.254 . S
O48 Dy40 2.339 . S
O48 C63 1.257 . S
O49 Dy41 2.307 . S
O49 C64 1.266 1_556 S
O50 Dy40 2.298 . S
O50 C64 1.236 . S
O51 Dy41 2.395 1_554 S
O51 C71 1.255 1_554 S
O52 Dy41 2.379 . S
O52 C71 1.249 . S
C53 O43 1.266 1_556 S
C53 O44 1.236 . S
O54 Dy40 2.275 1_556 S
O54 C42 1.254 . S
O55 Dy41 2.339 . S
O55 C42 1.257 . S
C56 C59 1.344 1_554 S
C56 C60 1.328 . S
C56 C62 1.516 . S
C57 C58 1.304 1_554 S
C57 C61 1.323 . S
C58 C57 1.304 1_556 S
C58 C59 1.371 . S
C58 H72 0.930 . S
C59 C56 1.344 1_556 S
C59 C58 1.371 . S
C59 H73 0.931 . S
C60 C56 1.328 . S
C60 C61 1.433 . S
C60 H74 0.931 . S
C61 C57 1.323 . S
C61 C60 1.433 . S
C61 H75 0.933 . S
C62 Dy40 2.738 . S
C62 O45 1.255 1_554 S
C62 O46 1.249 . S
C62 C56 1.516 . S
C63 O47 1.254 . S
C63 O48 1.257 . S
C64 O49 1.266 1_554 S
C64 O50 1.236 . S
C65 C68 1.344 1_556 S
C65 C69 1.328 . S
C65 C71 1.516 . S
C66 C67 1.304 1_556 S
C66 C70 1.323 . S
C67 C66 1.304 1_554 S
C67 C68 1.371 . S
C67 H76 0.930 . S
C68 C65 1.344 1_554 S
C68 C67 1.371 . S
C68 H77 0.931 . S
C69 C65 1.328 . S
C69 C70 1.433 . S
C69 H78 0.931 . S
C70 C66 1.323 . S
C70 C69 1.433 . S
C70 H79 0.933 . S
C71 Dy41 2.738 . S
C71 O51 1.255 1_556 S
C71 O52 1.249 . S
C71 C65 1.516 . S
H72 C58 0.930 . S
H73 C59 0.931 . S
H74 C60 0.931 . S
H75 C61 0.933 . S
H76 C67 0.930 . S
H77 C68 0.931 . S
H78 C69 0.931 . S
H79 C70 0.933 . S
Dy80 O83 2.306 1_566 S
Dy80 O85 2.380 1_556 S
Dy80 O86 2.392 . S
Dy80 O88 2.369 . S
Dy80 O90 2.301 . S
Dy80 O94 2.249 1_556 S
Dy80 C102 2.737 . S
Dy81 O84 2.298 . S
Dy81 O87 2.275 1_554 S
Dy81 O89 2.307 1_545 S
Dy81 O91 2.395 1_554 S
Dy81 O92 2.379 . S
Dy81 O95 2.339 . S
Dy81 C111 2.738 . S
C82 O94 1.254 . S
C82 O95 1.257 1_565 S
O83 Dy80 2.306 1_544 S
O83 C93 1.266 . S
O84 Dy81 2.298 . S
O84 C93 1.236 . S
O85 Dy80 2.380 1_554 S
O85 C102 1.244 1_554 S
O86 Dy80 2.392 . S
O86 C102 1.261 . S
O87 Dy81 2.275 1_556 S
O87 C103 1.254 . S
O88 Dy80 2.369 . S
O88 C103 1.257 1_565 S
O89 Dy81 2.307 1_565 S
O89 C104 1.266 . S
O90 Dy80 2.301 . S
O90 C104 1.236 1_556 S
O91 Dy81 2.395 1_556 S
O91 C111 1.255 1_556 S
O92 Dy81 2.379 . S
O92 C111 1.249 . S
C93 O83 1.266 . S
C93 O84 1.236 . S
O94 Dy80 2.249 1_554 S
O94 C82 1.254 . S
O95 Dy81 2.339 . S
O95 C82 1.257 1_545 S
C96 C99 1.347 . S
C96 C100 1.325 1_554 S
C96 C102 1.515 1_554 S
C97 C98 1.304 . S
C97 C101 1.323 1_554 S
C98 C97 1.304 . S
C98 C99 1.371 . S
C98 H112 0.930 . S
C99 C96 1.347 . S
C99 C98 1.371 . S
C99 H113 0.931 . S
C100 C96 1.325 1_556 S
C100 C101 1.433 . S
C100 H114 0.931 . S
C101 C97 1.323 1_556 S
C101 C100 1.433 . S
C101 H115 0.933 . S
C102 Dy80 2.737 . S
C102 O85 1.244 1_556 S
C102 O86 1.261 . S
C102 C96 1.515 1_556 S
C103 O87 1.254 . S
C103 O88 1.257 1_545 S
C104 O89 1.266 . S
C104 O90 1.236 1_554 S
C105 C108 1.344 1_554 S
C105 C109 1.328 . S
C105 C111 1.516 . S
C106 C107 1.304 1_554 S
C106 C110 1.323 . S
C107 C106 1.304 1_556 S
C107 C108 1.371 . S
C107 H116 0.930 . S
C108 C105 1.344 1_556 S
C108 C107 1.371 . S
C108 H117 0.931 . S
C109 C105 1.328 . S
C109 C110 1.433 . S
C109 H118 0.931 . S
C110 C106 1.323 . S
C110 C109 1.433 . S
C110 H119 0.933 . S
C111 Dy81 2.738 . S
C111 O91 1.255 1_554 S
C111 O92 1.249 . S
C111 C105 1.516 . S
H112 C98 0.930 . S
H113 C99 0.931 . S
H114 C100 0.931 . S
H115 C101 0.933 . S
H116 C107 0.930 . S
H117 C108 0.931 . S
H118 C109 0.931 . S
H119 C110 0.933 . S
Dy120 O123 2.307 . S
Dy120 O125 2.395 . S
Dy120 O126 2.379 . S
Dy120 O128 2.339 . S
Dy120 O130 2.298 . S
Dy120 O134 2.275 . S
Dy120 C142 2.738 . S
Dy121 O124 2.298 . S
Dy121 O127 2.275 . S
Dy121 O129 2.307 . S
Dy121 O131 2.395 . S
Dy121 O132 2.379 . S
Dy121 O135 2.339 . S
Dy121 C151 2.738 . S
C122 O134 1.254 . S
C122 O135 1.257 . S
O123 Dy120 2.307 . S
O123 C133 1.266 . S
O124 Dy121 2.298 . S
O124 C133 1.236 . S
O125 Dy120 2.395 . S
O125 C142 1.255 . S
O126 Dy120 2.379 . S
O126 C142 1.249 . S
O127 Dy121 2.275 . S
O127 C143 1.254 . S
O128 Dy120 2.339 . S
O128 C143 1.257 . S
O129 Dy121 2.307 . S
O129 C144 1.266 . S
O130 Dy120 2.298 . S
O130 C144 1.236 . S
O131 Dy121 2.395 . S
O131 C151 1.255 . S
O132 Dy121 2.379 . S
O132 C151 1.249 . S
C133 O123 1.266 . S
C133 O124 1.236 . S
O134 Dy120 2.275 . S
O134 C122 1.254 . S
O135 Dy121 2.339 . S
O135 C122 1.257 . S
C136 C139 1.344 . S
C136 C140 1.328 . S
C136 C142 1.516 . S
C137 C138 1.304 . S
C137 C141 1.323 . S
C138 C137 1.304 . S
C138 C139 1.371 . S
C138 H152 0.930 . S
C139 C136 1.344 . S
C139 C138 1.371 . S
C139 H153 0.931 . S
C140 C136 1.328 . S
C140 C141 1.433 . S
C140 H154 0.931 . S
C141 C137 1.323 . S
C141 C140 1.433 . S
C141 H155 0.933 . S
C142 Dy120 2.738 . S
C142 O125 1.255 . S
C142 O126 1.249 . S
C142 C136 1.516 . S
C143 O127 1.254 . S
C143 O128 1.257 . S
C144 O129 1.266 . S
C144 O130 1.236 . S
C145 C148 1.344 . S
C145 C149 1.328 . S
C145 C151 1.516 . S
C146 C147 1.304 . S
C146 C150 1.323 . S
C147 C146 1.304 . S
C147 C148 1.371 . S
C147 H156 0.930 . S
C148 C145 1.344 . S
C148 C147 1.371 . S
C148 H157 0.931 . S
C149 C145 1.328 . S
C149 C150 1.433 . S
C149 H158 0.931 . S
C150 C146 1.323 . S
C150 C149 1.433 . S
C150 H159 0.933 . S
C151 Dy121 2.738 . S
C151 O131 1.255 . S
C151 O132 1.249 . S
C151 C145 1.516 . S
H152 C138 0.930 . S
H153 C139 0.931 . S
H154 C140 0.931 . S
H155 C141 0.933 . S
H156 C147 0.930 . S
H157 C148 0.931 . S
H158 C149 0.931 . S
H159 C150 0.933 . S
Dy160 O163 2.307 . S
Dy160 O165 2.395 . S
Dy160 O166 2.379 . S
Dy160 O168 2.339 . S
Dy160 O170 2.298 . S
Dy160 O174 2.275 . S
Dy160 C182 2.738 . S
Dy161 O164 2.298 . S
Dy161 O167 2.275 . S
Dy161 O169 2.307 . S
Dy161 O171 2.395 . S
Dy161 O172 2.379 . S
Dy161 O175 2.339 . S
Dy161 C191 2.738 . S
C162 O174 1.254 . S
C162 O175 1.257 . S
O163 Dy160 2.307 . S
O163 C173 1.266 . S
O164 Dy161 2.298 . S
O164 C173 1.236 . S
O165 Dy160 2.395 . S
O165 C182 1.255 . S
O166 Dy160 2.379 . S
O166 C182 1.249 . S
O167 Dy161 2.275 . S
O167 C183 1.254 . S
O168 Dy160 2.339 . S
O168 C183 1.257 . S
O169 Dy161 2.307 . S
O169 C184 1.266 . S
O170 Dy160 2.298 . S
O170 C184 1.236 . S
O171 Dy161 2.395 . S
O171 C191 1.255 . S
O172 Dy161 2.379 . S
O172 C191 1.249 . S
C173 O163 1.266 . S
C173 O164 1.236 . S
O174 Dy160 2.275 . S
O174 C162 1.254 . S
O175 Dy161 2.339 . S
O175 C162 1.257 . S
C176 C179 1.344 . S
C176 C180 1.328 . S
C176 C182 1.516 1_545 S
C177 C178 1.304 . S
C177 C181 1.323 . S
C178 C177 1.304 . S
C178 C179 1.371 . S
C178 H192 0.930 . S
C179 C176 1.344 . S
C179 C178 1.371 . S
C179 H193 0.931 . S
C180 C176 1.328 . S
C180 C181 1.433 . S
C180 H194 0.931 . S
C181 C177 1.323 . S
C181 C180 1.433 . S
C181 H195 0.933 . S
C182 Dy160 2.738 . S
C182 O165 1.255 . S
C182 O166 1.249 . S
C182 C176 1.516 1_565 S
C183 O167 1.254 . S
C183 O168 1.257 . S
C184 O169 1.266 . S
C184 O170 1.236 . S
C185 C188 1.344 . S
C185 C189 1.328 . S
C185 C191 1.516 . S
C186 C187 1.304 . S
C186 C190 1.323 . S
C187 C186 1.304 . S
C187 C188 1.371 . S
C187 H196 0.930 . S
C188 C185 1.344 . S
C188 C187 1.371 . S
C188 H197 0.931 . S
C189 C185 1.328 . S
C189 C190 1.433 . S
C189 H198 0.931 . S
C190 C186 1.323 . S
C190 C189 1.433 . S
C190 H199 0.933 . S
C191 Dy161 2.738 . S
C191 O171 1.255 . S
C191 O172 1.249 . S
C191 C185 1.516 . S
H192 C178 0.930 . S
H193 C179 0.931 . S
H194 C180 0.931 . S
H195 C181 0.933 . S
H196 C187 0.930 . S
H197 C188 0.931 . S
H198 C189 0.931 . S
H199 C190 0.933 . S
Dy200 O203 2.307 . S
Dy200 O205 2.395 . S
Dy200 O206 2.379 . S
Dy200 O208 2.339 . S
Dy200 O210 2.298 . S
Dy200 O214 2.275 . S
Dy200 C222 2.738 . S
Dy201 O204 2.298 . S
Dy201 O207 2.275 . S
Dy201 O209 2.307 . S
Dy201 O211 2.395 . S
Dy201 O212 2.379 . S
Dy201 O215 2.339 . S
Dy201 C231 2.738 . S
C202 O214 1.254 . S
C202 O215 1.257 . S
O203 Dy200 2.307 . S
O203 C213 1.266 . S
O204 Dy201 2.298 . S
O204 C213 1.236 . S
O205 Dy200 2.395 . S
O205 C222 1.255 . S
O206 Dy200 2.379 . S
O206 C222 1.249 . S
O207 Dy201 2.275 . S
O207 C223 1.254 . S
O208 Dy200 2.339 . S
O208 C223 1.257 . S
O209 Dy201 2.307 . S
O209 C224 1.266 . S
O210 Dy200 2.298 . S
O210 C224 1.236 . S
O211 Dy201 2.395 . S
O211 C231 1.255 . S
O212 Dy201 2.379 . S
O212 C231 1.249 . S
C213 O203 1.266 . S
C213 O204 1.236 . S
O214 Dy200 2.275 . S
O214 C202 1.254 . S
O215 Dy201 2.339 . S
O215 C202 1.257 . S
C216 C219 1.344 . S
C216 C220 1.328 1_455 S
C216 C222 1.516 . S
C217 C218 1.304 . S
C217 C221 1.323 . S
C218 C217 1.304 . S
C218 C219 1.371 1_655 S
C218 H232 0.930 . S
C219 C216 1.344 . S
C219 C218 1.371 1_455 S
C219 H233 0.931 . S
C220 C216 1.328 1_655 S
C220 C221 1.433 . S
C220 H234 0.931 . S
C221 C217 1.323 . S
C221 C220 1.433 . S
C221 H235 0.933 . S
C222 Dy200 2.738 . S
C222 O205 1.255 . S
C222 O206 1.249 . S
C222 C216 1.516 . S
C223 O207 1.254 . S
C223 O208 1.257 . S
C224 O209 1.266 . S
C224 O210 1.236 . S
C225 C228 1.344 . S
C225 C229 1.328 . S
C225 C231 1.516 . S
C226 C227 1.304 . S
C226 C230 1.323 . S
C227 C226 1.304 . S
C227 C228 1.371 . S
C227 H236 0.930 . S
C228 C225 1.344 . S
C228 C227 1.371 . S
C228 H237 0.931 . S
C229 C225 1.328 . S
C229 C230 1.433 . S
C229 H238 0.931 . S
C230 C226 1.323 . S
C230 C229 1.433 . S
C230 H239 0.933 . S
C231 Dy201 2.738 . S
C231 O211 1.255 . S
C231 O212 1.249 . S
C231 C225 1.516 . S
H232 C218 0.930 . S
H233 C219 0.931 . S
H234 C220 0.931 . S
H235 C221 0.933 . S
H236 C227 0.930 . S
H237 C228 0.931 . S
H238 C229 0.931 . S
H239 C230 0.933 . S
Dy240 O243 2.307 . S
Dy240 O245 2.395 . S
Dy240 O246 2.379 . S
Dy240 O248 2.339 . S
Dy240 O250 2.298 . S
Dy240 O254 2.275 . S
Dy240 C262 2.738 . S
Dy241 O244 2.298 . S
Dy241 O247 2.275 . S
Dy241 O249 2.307 . S
Dy241 O251 2.395 . S
Dy241 O252 2.379 . S
Dy241 O255 2.339 . S
Dy241 C271 2.738 . S
C242 O254 1.254 . S
C242 O255 1.257 . S
O243 Dy240 2.307 . S
O243 C253 1.266 . S
O244 Dy241 2.298 . S
O244 C253 1.236 . S
O245 Dy240 2.395 . S
O245 C262 1.255 . S
O246 Dy240 2.379 . S
O246 C262 1.249 . S
O247 Dy241 2.275 . S
O247 C263 1.254 . S
O248 Dy240 2.339 . S
O248 C263 1.257 . S
O249 Dy241 2.307 . S
O249 C264 1.266 . S
O250 Dy240 2.298 . S
O250 C264 1.236 . S
O251 Dy241 2.395 . S
O251 C271 1.255 . S
O252 Dy241 2.379 . S
O252 C271 1.249 . S
C253 O243 1.266 . S
C253 O244 1.236 . S
O254 Dy240 2.275 . S
O254 C242 1.254 . S
O255 Dy241 2.339 . S
O255 C242 1.257 . S
C256 C259 1.344 . S
C256 C260 1.328 . S
C256 C262 1.516 . S
C257 C258 1.304 . S
C257 C261 1.323 . S
C258 C257 1.304 . S
C258 C259 1.371 . S
C258 H272 0.930 . S
C259 C256 1.344 . S
C259 C258 1.371 . S
C259 H273 0.931 . S
C260 C256 1.328 . S
C260 C261 1.433 . S
C260 H274 0.931 . S
C261 C257 1.323 . S
C261 C260 1.433 . S
C261 H275 0.933 . S
C262 Dy240 2.738 . S
C262 O245 1.255 . S
C262 O246 1.249 . S
C262 C256 1.516 . S
C263 O247 1.254 . S
C263 O248 1.257 . S
C264 O249 1.266 . S
C264 O250 1.236 . S
C265 C268 1.344 . S
C265 C269 1.328 . S
C265 C271 1.516 . S
C266 C267 1.304 . S
C266 C270 1.323 . S
C267 C266 1.304 . S
C267 C268 1.371 . S
C267 H276 0.930 . S
C268 C265 1.344 . S
C268 C267 1.371 . S
C268 H277 0.931 . S
C269 C265 1.328 . S
C269 C270 1.433 . S
C269 H278 0.931 . S
C270 C266 1.323 . S
C270 C269 1.433 . S
C270 H279 0.933 . S
C271 Dy241 2.738 . S
C271 O251 1.255 . S
C271 O252 1.249 . S
C271 C265 1.516 . S
H272 C258 0.930 . S
H273 C259 0.931 . S
H274 C260 0.931 . S
H275 C261 0.933 . S
H276 C267 0.930 . S
H277 C268 0.931 . S
H278 C269 0.931 . S
H279 C270 0.933 . S
Dy280 O283 2.307 . S
Dy280 O285 2.395 . S
Dy280 O286 2.379 . S
Dy280 O288 2.339 . S
Dy280 O290 2.298 . S
Dy280 O294 2.275 . S
Dy280 C302 2.738 . S
Dy281 O284 2.298 . S
Dy281 O287 2.275 . S
Dy281 O289 2.307 . S
Dy281 O291 2.395 . S
Dy281 O292 2.379 . S
Dy281 O295 2.339 . S
Dy281 C311 2.738 . S
C282 O294 1.254 . S
C282 O295 1.257 . S
O283 Dy280 2.307 . S
O283 C293 1.266 . S
O284 Dy281 2.298 . S
O284 C293 1.236 . S
O285 Dy280 2.395 . S
O285 C302 1.255 . S
O286 Dy280 2.379 . S
O286 C302 1.249 . S
O287 Dy281 2.275 . S
O287 C303 1.254 . S
O288 Dy280 2.339 . S
O288 C303 1.257 . S
O289 Dy281 2.307 . S
O289 C304 1.266 . S
O290 Dy280 2.298 . S
O290 C304 1.236 . S
O291 Dy281 2.395 . S
O291 C311 1.255 . S
O292 Dy281 2.379 . S
O292 C311 1.249 . S
C293 O283 1.266 . S
C293 O284 1.236 . S
O294 Dy280 2.275 . S
O294 C282 1.254 . S
O295 Dy281 2.339 . S
O295 C282 1.257 . S
C296 C299 1.344 1_655 S
C296 C300 1.328 1_655 S
C296 C302 1.516 . S
C297 C298 1.304 . S
C297 C301 1.323 . S
C298 C297 1.304 . S
C298 C299 1.371 . S
C298 H312 0.930 . S
C299 C296 1.344 1_455 S
C299 C298 1.371 . S
C299 H313 0.931 1_455 S
C300 C296 1.328 1_455 S
C300 C301 1.433 . S
C300 H314 0.931 . S
C301 C297 1.323 . S
C301 C300 1.433 . S
C301 H315 0.933 . S
C302 Dy280 2.738 . S
C302 O285 1.255 . S
C302 O286 1.249 . S
C302 C296 1.516 . S
C303 O287 1.254 . S
C303 O288 1.257 . S
C304 O289 1.266 . S
C304 O290 1.236 . S
C305 C308 1.344 . S
C305 C309 1.328 . S
C305 C311 1.516 . S
C306 C307 1.304 . S
C306 C310 1.323 . S
C307 C306 1.304 . S
C307 C308 1.371 . S
C307 H316 0.930 . S
C308 C305 1.344 . S
C308 C307 1.371 . S
C308 H317 0.931 . S
C309 C305 1.328 . S
C309 C310 1.433 . S
C309 H318 0.931 . S
C310 C306 1.323 . S
C310 C309 1.433 . S
C310 H319 0.933 . S
C311 Dy281 2.738 . S
C311 O291 1.255 . S
C311 O292 1.249 . S
C311 C305 1.516 . S
H312 C298 0.930 . S
H313 C299 0.931 1_655 S
H314 C300 0.931 . S
H315 C301 0.933 . S
H316 C307 0.930 . S
H317 C308 0.931 . S
H318 C309 0.931 . S
H319 C310 0.933 . S
Dy320 O323 2.307 . S
Dy320 O325 2.395 . S
Dy320 O326 2.379 . S
Dy320 O328 2.339 . S
Dy320 O330 2.298 . S
Dy320 O334 2.275 . S
Dy320 C342 2.738 . S
Dy321 O324 2.298 . S
Dy321 O327 2.275 . S
Dy321 O329 2.307 . S
Dy321 O331 2.395 . S
Dy321 O332 2.379 . S
Dy321 O335 2.339 . S
Dy321 C351 2.738 . S
C322 O334 1.254 . S
C322 O335 1.257 . S
O323 Dy320 2.307 . S
O323 C333 1.266 . S
O324 Dy321 2.298 . S
O324 C333 1.236 . S
O325 Dy320 2.395 . S
O325 C342 1.255 . S
O326 Dy320 2.379 . S
O326 C342 1.249 . S
O327 Dy321 2.275 . S
O327 C343 1.254 . S
O328 Dy320 2.339 . S
O328 C343 1.257 . S
O329 Dy321 2.307 . S
O329 C344 1.266 . S
O330 Dy320 2.298 . S
O330 C344 1.236 . S
O331 Dy321 2.395 . S
O331 C351 1.255 . S
O332 Dy321 2.379 . S
O332 C351 1.249 . S
C333 O323 1.266 . S
C333 O324 1.236 . S
O334 Dy320 2.275 . S
O334 C322 1.254 . S
O335 Dy321 2.339 . S
O335 C322 1.257 . S
C336 C339 1.344 . S
C336 C340 1.328 . S
C336 C342 1.516 . S
C337 C338 1.304 . S
C337 C341 1.323 . S
C338 C337 1.304 . S
C338 C339 1.371 . S
C338 H352 0.930 . S
C339 C336 1.344 . S
C339 C338 1.371 . S
C339 H353 0.931 . S
C340 C336 1.328 . S
C340 C341 1.433 . S
C340 H354 0.931 . S
C341 C337 1.323 . S
C341 C340 1.433 . S
C341 H355 0.933 . S
C342 Dy320 2.738 . S
C342 O325 1.255 . S
C342 O326 1.249 . S
C342 C336 1.516 . S
C343 O327 1.254 . S
C343 O328 1.257 . S
C344 O329 1.266 . S
C344 O330 1.236 . S
C345 C348 1.344 . S
C345 C349 1.328 . S
C345 C351 1.516 . S
C346 C347 1.304 . S
C346 C350 1.323 . S
C347 C346 1.304 . S
C347 C348 1.371 . S
C347 H356 0.930 . S
C348 C345 1.344 . S
C348 C347 1.371 . S
C348 H357 0.931 . S
C349 C345 1.328 . S
C349 C350 1.433 . S
C349 H358 0.931 . S
C350 C346 1.323 . S
C350 C349 1.433 . S
C350 H359 0.933 . S
C351 Dy321 2.738 . S
C351 O331 1.255 . S
C351 O332 1.249 . S
C351 C345 1.516 . S
H352 C338 0.930 . S
H353 C339 0.931 . S
H354 C340 0.931 . S
H355 C341 0.933 . S
H356 C347 0.930 . S
H357 C348 0.931 . S
H358 C349 0.931 . S
H359 C350 0.933 . S
C360 C361 1.349 . S
C360 C362 1.327 . S
C360 H385 0.950 . S
C361 C360 1.349 . S
C361 C377 1.349 1_556 S
C362 C360 1.327 . S
C362 C381 1.429 . S
C362 H386 0.950 . S
C363 C380 1.574 . S
C363 C382 1.368 1_554 S
C363 H387 0.949 . S
H364 C368 0.949 . S
C365 C366 1.349 . S
C365 C367 1.327 . S
C365 H388 0.950 . S
C366 C365 1.349 . S
C366 C378 1.349 1_554 S
C367 C365 1.327 . S
C367 C383 1.419 1_554 S
C367 H389 0.950 . S
C368 H364 0.949 . S
C368 C376 1.574 . S
C368 C384 1.368 . S
H369 C377 0.950 . S
H370 C375 0.950 . S
H371 C376 0.949 . S
H372 C378 0.950 . S
H373 C379 0.950 . S
H374 C380 0.949 . S
C375 H370 0.950 . S
C375 C377 1.327 . S
C375 C381 1.429 1_554 S
C376 C368 1.574 . S
C376 H371 0.949 . S
C376 C382 1.368 . S
C377 C361 1.349 1_554 S
C377 H369 0.950 . S
C377 C375 1.327 . S
C378 C366 1.349 1_556 S
C378 H372 0.950 . S
C378 C379 1.327 . S
C379 H373 0.950 . S
C379 C378 1.327 . S
C379 C383 1.437 . S
C380 C363 1.574 . S
C380 H374 0.949 . S
C380 C384 1.368 1_554 S
C381 C362 1.429 . S
C381 C375 1.429 1_556 S
C381 C382 1.523 . S
C382 C363 1.368 1_556 S
C382 C376 1.368 . S
C382 C381 1.523 . S
C383 C367 1.419 1_556 S
C383 C379 1.437 . S
C383 C384 1.524 . S
C384 C368 1.368 . S
C384 C380 1.368 1_556 S
C384 C383 1.524 . S
H385 C360 0.950 . S
H386 C362 0.950 . S
H387 C363 0.949 . S
H388 C365 0.950 . S
H389 C367 0.950 . S
C390 C391 1.349 . S
C390 C392 1.327 . S
C390 H415 0.950 . S
C391 C390 1.349 . S
C391 C407 1.349 1_554 S
C392 C390 1.327 . S
C392 C411 1.429 . S
C392 H416 0.950 . S
C393 C410 1.574 . S
C393 C412 1.368 1_556 S
C393 H417 0.949 . S
H394 C398 0.949 . S
C395 C396 1.362 . S
C395 C397 1.327 . S
C395 H418 0.950 . S
C396 C395 1.362 . S
C396 C408 1.335 1_556 S
C397 C395 1.327 . S
C397 C413 1.416 1_556 S
C397 H419 0.950 . S
C398 H394 0.949 . S
C398 C406 1.574 . S
C398 C414 1.402 . S
H399 C407 0.950 . S
H400 C405 0.950 . S
H401 C406 0.949 . S
H402 C408 0.950 . S
H403 C409 0.950 . S
H404 C410 0.949 . S
C405 H400 0.950 . S
C405 C407 1.327 . S
C405 C411 1.429 1_556 S
C406 C398 1.574 . S
C406 H401 0.949 . S
C406 C412 1.368 . S
C407 C391 1.349 1_556 S
C407 H399 0.950 . S
C407 C405 1.327 . S
C408 C396 1.335 1_554 S
C408 H402 0.950 . S
C408 C409 1.327 . S
C409 H403 0.950 . S
C409 C408 1.327 . S
C409 C413 1.441 . S
C410 C393 1.574 . S
C410 H404 0.949 . S
C410 C414 1.335 1_556 S
C411 C392 1.429 . S
C411 C405 1.429 1_554 S
C411 C412 1.523 . S
C412 C393 1.368 1_554 S
C412 C406 1.368 . S
C412 C411 1.523 . S
C413 C397 1.416 1_554 S
C413 C409 1.441 . S
C413 C414 1.523 . S
C414 C398 1.402 . S
C414 C410 1.335 1_554 S
C414 C413 1.523 . S
H415 C390 0.950 . S
H416 C392 0.950 . S
H417 C393 0.949 . S
H418 C395 0.950 . S
H419 C397 0.950 . S
C420 C421 1.349 . S
C420 C422 1.327 . S
C420 H445 0.950 . S
C421 C420 1.349 . S
C421 C437 1.349 1_554 S
C422 C420 1.327 . S
C422 C441 1.429 . S
C422 H446 0.950 . S
C423 C440 1.574 . S
C423 C442 1.368 1_556 S
C423 H447 0.949 . S
H424 C428 0.949 . S
C425 C426 1.349 1_556 S
C425 C427 1.327 . S
C425 H448 0.950 . S
C426 C425 1.349 1_554 S
C426 C438 1.349 . S
C427 C425 1.327 . S
C427 C443 1.429 1_556 S
C427 H449 0.950 . S
C428 H424 0.949 . S
C428 C436 1.574 . S
C428 C444 1.368 . S
H429 C437 0.950 . S
H430 C435 0.950 . S
H431 C436 0.949 . S
H432 C438 0.950 . S
H433 C439 0.950 . S
H434 C440 0.949 . S
C435 H430 0.950 . S
C435 C437 1.327 . S
C435 C441 1.429 1_556 S
C436 C428 1.574 . S
C436 H431 0.949 . S
C436 C442 1.368 . S
C437 C421 1.349 1_556 S
C437 H429 0.950 . S
C437 C435 1.327 . S
C438 C426 1.349 . S
C438 H432 0.950 . S
C438 C439 1.327 . S
C439 H433 0.950 . S
C439 C438 1.327 . S
C439 C443 1.429 . S
C440 C423 1.574 . S
C440 H434 0.949 . S
C440 C444 1.368 1_556 S
C441 C422 1.429 . S
C441 C435 1.429 1_554 S
C441 C442 1.523 . S
C442 C423 1.368 1_554 S
C442 C436 1.368 . S
C442 C441 1.523 . S
C443 C427 1.429 1_554 S
C443 C439 1.429 . S
C443 C444 1.523 . S
C444 C428 1.368 . S
C444 C440 1.368 1_554 S
C444 C443 1.523 . S
H445 C420 0.950 . S
H446 C422 0.950 . S
H447 C423 0.949 . S
H448 C425 0.950 . S
H449 C427 0.950 . S
C450 C451 1.349 1_556 S
C450 C452 1.327 . S
C450 H475 0.950 . S
C451 C450 1.349 1_554 S
C451 C467 1.349 . S
C452 C450 1.327 . S
C452 C471 1.429 1_556 S
C452 H476 0.950 . S
C453 C470 1.574 . S
C453 C472 1.368 . S
C453 H477 0.949 . S
H454 C458 0.949 . S
C455 C456 1.349 . S
C455 C457 1.327 . S
C455 H478 0.950 . S
C456 C455 1.349 . S
C456 C468 1.349 1_554 S
C457 C455 1.327 . S
C457 C473 1.429 . S
C457 H479 0.950 . S
C458 H454 0.949 . S
C458 C466 1.574 . S
C458 C474 1.368 1_556 S
H459 C467 0.950 . S
H460 C465 0.950 . S
H461 C466 0.949 . S
H462 C468 0.950 . S
H463 C469 0.950 . S
H464 C470 0.949 . S
C465 H460 0.950 . S
C465 C467 1.327 . S
C465 C471 1.429 . S
C466 C458 1.574 . S
C466 H461 0.949 . S
C466 C472 1.368 1_556 S
C467 C451 1.349 . S
C467 H459 0.950 . S
C467 C465 1.327 . S
C468 C456 1.349 1_556 S
C468 H462 0.950 . S
C468 C469 1.327 . S
C469 H463 0.950 . S
C469 C468 1.327 . S
C469 C473 1.429 1_556 S
C470 C453 1.574 . S
C470 H464 0.949 . S
C470 C474 1.368 . S
C471 C452 1.429 1_554 S
C471 C465 1.429 . S
C471 C472 1.523 . S
C472 C453 1.368 . S
C472 C466 1.368 1_554 S
C472 C471 1.523 . S
C473 C457 1.429 . S
C473 C469 1.429 1_554 S
C473 C474 1.523 . S
C474 C458 1.368 1_554 S
C474 C470 1.368 . S
C474 C473 1.523 . S
H475 C450 0.950 . S
H476 C452 0.950 . S
H477 C453 0.949 . S
H478 C455 0.950 . S
H479 C457 0.950 . S
C480 C481 1.349 . S
C480 C482 1.327 . S
C480 H505 0.950 . S
C481 C480 1.349 . S
C481 C497 1.349 1_554 S
C482 C480 1.327 . S
C482 C501 1.429 . S
C482 H506 0.950 . S
C483 C500 1.574 . S
C483 C502 1.368 1_556 S
C483 H507 0.949 . S
H484 C488 0.949 . S
C485 C486 1.349 1_556 S
C485 C487 1.327 . S
C485 H508 0.950 . S
C486 C485 1.349 1_554 S
C486 C498 1.349 . S
C487 C485 1.327 . S
C487 C503 1.429 1_556 S
C487 H509 0.950 . S
C488 H484 0.949 . S
C488 C496 1.574 . S
C488 C504 1.368 . S
H489 C497 0.950 . S
H490 C495 0.950 . S
H491 C496 0.949 . S
H492 C498 0.950 . S
H493 C499 0.950 . S
H494 C500 0.949 . S
C495 H490 0.950 . S
C495 C497 1.327 . S
C495 C501 1.429 1_556 S
C496 C488 1.574 . S
C496 H491 0.949 . S
C496 C502 1.368 . S
C497 C481 1.349 1_556 S
C497 H489 0.950 . S
C497 C495 1.327 . S
C498 C486 1.349 . S
C498 H492 0.950 . S
C498 C499 1.327 . S
C499 H493 0.950 . S
C499 C498 1.327 . S
C499 C503 1.429 . S
C500 C483 1.574 . S
C500 H494 0.949 . S
C500 C504 1.368 1_556 S
C501 C482 1.429 . S
C501 C495 1.429 1_554 S
C501 C502 1.523 . S
C502 C483 1.368 1_554 S
C502 C496 1.368 . S
C502 C501 1.523 . S
C503 C487 1.429 1_554 S
C503 C499 1.429 . S
C503 C504 1.523 . S
C504 C488 1.368 . S
C504 C500 1.368 1_554 S
C504 C503 1.523 . S
H505 C480 0.950 . S
H506 C482 0.950 . S
H507 C483 0.949 . S
H508 C485 0.950 . S
H509 C487 0.950 . S
C510 C511 1.349 . S
C510 C512 1.327 . S
C510 H535 0.950 . S
C511 C510 1.349 . S
C511 C527 1.349 1_554 S
C512 C510 1.327 . S
C512 C531 1.429 . S
C512 H536 0.950 . S
C513 C530 1.574 . S
C513 C532 1.368 1_556 S
C513 H537 0.949 . S
H514 C518 0.949 . S
C515 C516 1.349 1_556 S
C515 C517 1.327 . S
C515 H538 0.950 . S
C516 C515 1.349 1_554 S
C516 C528 1.349 . S
C517 C515 1.327 . S
C517 C533 1.429 1_556 S
C517 H539 0.950 . S
C518 H514 0.949 . S
C518 C526 1.574 . S
C518 C534 1.368 . S
H519 C527 0.950 . S
H520 C525 0.950 . S
H521 C526 0.949 . S
H522 C528 0.950 . S
H523 C529 0.950 . S
H524 C530 0.949 . S
C525 H520 0.950 . S
C525 C527 1.327 . S
C525 C531 1.429 1_556 S
C526 C518 1.574 . S
C526 H521 0.949 . S
C526 C532 1.368 . S
C527 C511 1.349 1_556 S
C527 H519 0.950 . S
C527 C525 1.327 . S
C528 C516 1.349 . S
C528 H522 0.950 . S
C528 C529 1.327 . S
C529 H523 0.950 . S
C529 C528 1.327 . S
C529 C533 1.429 . S
C530 C513 1.574 . S
C530 H524 0.949 . S
C530 C534 1.368 1_556 S
C531 C512 1.429 . S
C531 C525 1.429 1_554 S
C531 C532 1.523 . S
C532 C513 1.368 1_554 S
C532 C526 1.368 . S
C532 C531 1.523 . S
C533 C517 1.429 1_554 S
C533 C529 1.429 . S
C533 C534 1.523 . S
C534 C518 1.368 . S
C534 C530 1.368 1_554 S
C534 C533 1.523 . S
H535 C510 0.950 . S
H536 C512 0.950 . S
H537 C513 0.949 . S
H538 C515 0.950 . S
H539 C517 0.950 . S
C540 C541 1.349 . S
C540 C542 1.327 . S
C540 H565 0.950 . S
C541 C540 1.349 . S
C541 C557 1.349 . S
C542 C540 1.327 . S
C542 C561 1.429 . S
C542 H566 0.950 . S
C543 C560 1.574 1_655 S
C543 C562 1.368 . S
C543 H567 0.949 . S
H544 C548 0.949 . S
C545 C546 1.349 . S
C545 C547 1.327 . S
C545 H568 0.950 . S
C546 C545 1.349 . S
C546 C558 1.349 . S
C547 C545 1.327 . S
C547 C563 1.429 . S
C547 H569 0.950 . S
C548 H544 0.949 . S
C548 C556 1.574 1_455 S
C548 C564 1.368 . S
H549 C557 0.950 . S
H550 C555 0.950 . S
H551 C556 0.949 . S
H552 C558 0.950 . S
H553 C559 0.950 . S
H554 C560 0.949 . S
C555 H550 0.950 . S
C555 C557 1.327 . S
C555 C561 1.429 . S
C556 C548 1.574 1_655 S
C556 H551 0.949 . S
C556 C562 1.368 . S
C557 C541 1.349 . S
C557 H549 0.950 . S
C557 C555 1.327 . S
C558 C546 1.349 . S
C558 H552 0.950 . S
C558 C559 1.327 . S
C559 H553 0.950 . S
C559 C558 1.327 . S
C559 C563 1.429 . S
C560 C543 1.574 1_455 S
C560 H554 0.949 . S
C560 C564 1.368 . S
C561 C542 1.429 . S
C561 C555 1.429 . S
C561 C562 1.523 . S
C562 C543 1.368 . S
C562 C556 1.368 . S
C562 C561 1.523 . S
C563 C547 1.429 . S
C563 C559 1.429 . S
C563 C564 1.523 . S
C564 C548 1.368 . S
C564 C560 1.368 . S
C564 C563 1.523 . S
H565 C540 0.950 . S
H566 C542 0.950 . S
H567 C543 0.949 . S
H568 C545 0.950 . S
H569 C547 0.950 . S
C570 C571 1.349 . S
C570 C572 1.327 . S
C570 H595 0.950 . S
C571 C570 1.349 . S
C571 C587 1.349 . S
C572 C570 1.327 . S
C572 C591 1.429 . S
C572 H596 0.950 . S
C573 C590 1.574 . S
C573 C592 1.368 . S
C573 H597 0.949 . S
H574 C578 0.949 . S
C575 C576 1.349 . S
C575 C577 1.327 . S
C575 H598 0.950 . S
C576 C575 1.349 . S
C576 C588 1.349 . S
C577 C575 1.327 . S
C577 C593 1.429 . S
C577 H599 0.950 . S
C578 H574 0.949 . S
C578 C586 1.574 . S
C578 C594 1.368 . S
H579 C587 0.950 . S
H580 C585 0.950 . S
H581 C586 0.949 . S
H582 C588 0.950 . S
H583 C589 0.950 . S
H584 C590 0.949 . S
C585 H580 0.950 . S
C585 C587 1.327 . S
C585 C591 1.429 . S
C586 C578 1.574 . S
C586 H581 0.949 . S
C586 C592 1.368 . S
C587 C571 1.349 . S
C587 H579 0.950 . S
C587 C585 1.327 . S
C588 C576 1.349 . S
C588 H582 0.950 . S
C588 C589 1.327 . S
C589 H583 0.950 . S
C589 C588 1.327 . S
C589 C593 1.429 . S
C590 C573 1.574 . S
C590 H584 0.949 . S
C590 C594 1.368 . S
C591 C572 1.429 . S
C591 C585 1.429 . S
C591 C592 1.523 . S
C592 C573 1.368 . S
C592 C586 1.368 . S
C592 C591 1.523 . S
C593 C577 1.429 . S
C593 C589 1.429 . S
C593 C594 1.523 . S
C594 C578 1.368 . S
C594 C590 1.368 . S
C594 C593 1.523 . S
H595 C570 0.950 . S
H596 C572 0.950 . S
H597 C573 0.949 . S
H598 C575 0.950 . S
H599 C577 0.950 . S
C600 C601 1.349 . S
C600 C602 1.327 . S
C600 H625 0.950 . S
C601 C600 1.349 . S
C601 C617 1.349 . S
C602 C600 1.327 . S
C602 C621 1.429 . S
C602 H626 0.950 . S
C603 C620 1.574 1_545 S
C603 C622 1.368 . S
C603 H627 0.949 . S
H604 C608 0.949 . S
C605 C606 1.349 . S
C605 C607 1.327 . S
C605 H628 0.950 . S
C606 C605 1.349 . S
C606 C618 1.349 . S
C607 C605 1.327 . S
C607 C623 1.429 . S
C607 H629 0.950 . S
C608 H604 0.949 . S
C608 C616 1.574 1_565 S
C608 C624 1.368 . S
H609 C617 0.950 . S
H610 C615 0.950 . S
H611 C616 0.949 . S
H612 C618 0.950 . S
H613 C619 0.950 . S
H614 C620 0.949 . S
C615 H610 0.950 . S
C615 C617 1.327 . S
C615 C621 1.429 . S
C616 C608 1.574 1_545 S
C616 H611 0.949 . S
C616 C622 1.368 . S
C617 C601 1.349 . S
C617 H609 0.950 . S
C617 C615 1.327 . S
C618 C606 1.349 . S
C618 H612 0.950 . S
C618 C619 1.327 . S
C619 H613 0.950 . S
C619 C618 1.327 . S
C619 C623 1.429 . S
C620 C603 1.574 1_565 S
C620 H614 0.949 . S
C620 C624 1.368 . S
C621 C602 1.429 . S
C621 C615 1.429 . S
C621 C622 1.523 . S
C622 C603 1.368 . S
C622 C616 1.368 . S
C622 C621 1.523 . S
C623 C607 1.429 . S
C623 C619 1.429 . S
C623 C624 1.523 . S
C624 C608 1.368 . S
C624 C620 1.368 . S
C624 C623 1.523 . S
H625 C600 0.950 . S
H626 C602 0.950 . S
H627 C603 0.949 . S
H628 C605 0.950 . S
H629 C607 0.950 . S
C630 C631 1.349 . S
C630 C632 1.327 . S
C630 H655 0.950 . S
C631 C630 1.349 . S
C631 C647 1.349 . S
C632 C630 1.327 . S
C632 C651 1.429 . S
C632 H656 0.950 . S
C633 C650 1.574 . S
C633 C652 1.368 . S
C633 H657 0.949 . S
H634 C638 0.949 . S
C635 C636 1.349 . S
C635 C637 1.327 . S
C635 H658 0.950 . S
C636 C635 1.349 . S
C636 C648 1.349 . S
C637 C635 1.327 . S
C637 C653 1.429 . S
C637 H659 0.950 . S
C638 H634 0.949 . S
C638 C646 1.574 . S
C638 C654 1.368 . S
H639 C647 0.950 . S
H640 C645 0.950 . S
H641 C646 0.949 . S
H642 C648 0.950 . S
H643 C649 0.950 . S
H644 C650 0.949 . S
C645 H640 0.950 . S
C645 C647 1.327 . S
C645 C651 1.429 . S
C646 C638 1.574 . S
C646 H641 0.949 . S
C646 C652 1.368 . S
C647 C631 1.349 . S
C647 H639 0.950 . S
C647 C645 1.327 . S
C648 C636 1.349 . S
C648 H642 0.950 . S
C648 C649 1.327 . S
C649 H643 0.950 . S
C649 C648 1.327 . S
C649 C653 1.429 . S
C650 C633 1.574 . S
C650 H644 0.949 . S
C650 C654 1.368 . S
C651 C632 1.429 . S
C651 C645 1.429 . S
C651 C652 1.523 . S
C652 C633 1.368 . S
C652 C646 1.368 . S
C652 C651 1.523 . S
C653 C637 1.429 . S
C653 C649 1.429 . S
C653 C654 1.523 . S
C654 C638 1.368 . S
C654 C650 1.368 . S
C654 C653 1.523 . S
H655 C630 0.950 . S
H656 C632 0.950 . S
H657 C633 0.949 . S
H658 C635 0.950 . S
H659 C637 0.950 . S
C660 C661 1.349 . S
C660 C662 1.327 . S
C660 H685 0.950 . S
C661 C660 1.349 . S
C661 C677 1.349 . S
C662 C660 1.327 . S
C662 C681 1.429 . S
C662 H686 0.950 . S
C663 C680 1.574 . S
C663 C682 1.368 . S
C663 H687 0.949 . S
H664 C668 0.949 . S
C665 C666 1.349 . S
C665 C667 1.327 . S
C665 H688 0.950 . S
C666 C665 1.349 . S
C666 C678 1.349 . S
C667 C665 1.327 . S
C667 C683 1.429 . S
C667 H689 0.950 . S
C668 H664 0.949 . S
C668 C676 1.574 . S
C668 C684 1.368 . S
H669 C677 0.950 . S
H670 C675 0.950 . S
H671 C676 0.949 . S
H672 C678 0.950 . S
H673 C679 0.950 . S
H674 C680 0.949 . S
C675 H670 0.950 . S
C675 C677 1.327 . S
C675 C681 1.429 . S
C676 C668 1.574 . S
C676 H671 0.949 . S
C676 C682 1.368 . S
C677 C661 1.349 . S
C677 H669 0.950 . S
C677 C675 1.327 . S
C678 C666 1.349 . S
C678 H672 0.950 . S
C678 C679 1.327 . S
C679 H673 0.950 . S
C679 C678 1.327 . S
C679 C683 1.429 . S
C680 C663 1.574 . S
C680 H674 0.949 . S
C680 C684 1.368 . S
C681 C662 1.429 . S
C681 C675 1.429 . S
C681 C682 1.523 . S
C682 C663 1.368 . S
C682 C676 1.368 . S
C682 C681 1.523 . S
C683 C667 1.429 . S
C683 C679 1.429 . S
C683 C684 1.523 . S
C684 C668 1.368 . S
C684 C680 1.368 . S
C684 C683 1.523 . S
H685 C660 0.950 . S
H686 C662 0.950 . S
H687 C663 0.949 . S
H688 C665 0.950 . S
H689 C667 0.950 . S
C690 C691 1.349 . S
C690 C692 1.327 . S
C690 H715 0.950 . S
C691 C690 1.349 . S
C691 C707 1.349 . S
C692 C690 1.327 . S
C692 C711 1.429 . S
C692 H716 0.950 . S
C693 C710 1.574 . S
C693 C712 1.368 . S
C693 H717 0.949 . S
H694 C698 0.949 . S
C695 C696 1.349 . S
C695 C697 1.327 . S
C695 H718 0.950 . S
C696 C695 1.349 . S
C696 C708 1.349 . S
C697 C695 1.327 . S
C697 C713 1.429 . S
C697 H719 0.950 . S
C698 H694 0.949 . S
C698 C706 1.574 . S
C698 C714 1.368 . S
H699 C707 0.950 . S
H700 C705 0.950 . S
H701 C706 0.949 . S
H702 C708 0.950 . S
H703 C709 0.950 . S
H704 C710 0.949 . S
C705 H700 0.950 . S
C705 C707 1.327 . S
C705 C711 1.429 . S
C706 C698 1.574 . S
C706 H701 0.949 . S
C706 C712 1.368 . S
C707 C691 1.349 . S
C707 H699 0.950 . S
C707 C705 1.327 . S
C708 C696 1.349 . S
C708 H702 0.950 . S
C708 C709 1.327 . S
C709 H703 0.950 . S
C709 C708 1.327 . S
C709 C713 1.429 . S
C710 C693 1.574 . S
C710 H704 0.949 . S
C710 C714 1.368 . S
C711 C692 1.429 . S
C711 C705 1.429 . S
C711 C712 1.523 . S
C712 C693 1.368 . S
C712 C706 1.368 . S
C712 C711 1.523 . S
C713 C697 1.429 . S
C713 C709 1.429 . S
C713 C714 1.523 . S
C714 C698 1.368 . S
C714 C710 1.368 . S
C714 C713 1.523 . S
H715 C690 0.950 . S
H716 C692 0.950 . S
H717 C693 0.949 . S
H718 C695 0.950 . S
H719 C697 0.950 . S
C720 C721 1.349 . S
C720 C722 1.327 . S
C720 H745 0.950 . S
C721 C720 1.349 . S
C721 C737 1.349 . S
C722 C720 1.327 . S
C722 C741 1.429 . S
C722 H746 0.950 . S
C723 C740 1.574 . S
C723 C742 1.368 . S
C723 H747 0.949 . S
H724 C728 0.949 . S
C725 C726 1.349 . S
C725 C727 1.327 . S
C725 H748 0.950 . S
C726 C725 1.349 . S
C726 C738 1.349 . S
C727 C725 1.327 . S
C727 C743 1.429 . S
C727 H749 0.950 . S
C728 H724 0.949 . S
C728 C736 1.574 . S
C728 C744 1.368 . S
H729 C737 0.950 . S
H730 C735 0.950 . S
H731 C736 0.949 . S
H732 C738 0.950 . S
H733 C739 0.950 . S
H734 C740 0.949 . S
C735 H730 0.950 . S
C735 C737 1.327 . S
C735 C741 1.429 . S
C736 C728 1.574 . S
C736 H731 0.949 . S
C736 C742 1.368 . S
C737 C721 1.349 . S
C737 H729 0.950 . S
C737 C735 1.327 . S
C738 C726 1.349 . S
C738 H732 0.950 . S
C738 C739 1.327 . S
C739 H733 0.950 . S
C739 C738 1.327 . S
C739 C743 1.429 . S
C740 C723 1.574 . S
C740 H734 0.949 . S
C740 C744 1.368 . S
C741 C722 1.429 . S
C741 C735 1.429 . S
C741 C742 1.523 . S
C742 C723 1.368 . S
C742 C736 1.368 . S
C742 C741 1.523 . S
C743 C727 1.429 . S
C743 C739 1.429 . S
C743 C744 1.523 . S
C744 C728 1.368 . S
C744 C740 1.368 . S
C744 C743 1.523 . S
H745 C720 0.950 . S
H746 C722 0.950 . S
H747 C723 0.949 . S
H748 C725 0.950 . S
H749 C727 0.950 . S
C750 C751 1.349 . S
C750 C752 1.327 . S
C750 H775 0.950 . S
C751 C750 1.349 . S
C751 C767 1.349 . S
C752 C750 1.327 . S
C752 C771 1.429 . S
C752 H776 0.950 . S
C753 C770 1.574 . S
C753 C772 1.368 . S
C753 H777 0.949 . S
H754 C758 0.949 . S
C755 C756 1.349 . S
C755 C757 1.327 . S
C755 H778 0.950 . S
C756 C755 1.349 . S
C756 C768 1.349 . S
C757 C755 1.327 . S
C757 C773 1.429 . S
C757 H779 0.950 . S
C758 H754 0.949 . S
C758 C766 1.574 . S
C758 C774 1.368 . S
H759 C767 0.950 . S
H760 C765 0.950 . S
H761 C766 0.949 . S
H762 C768 0.950 . S
H763 C769 0.950 . S
H764 C770 0.949 . S
C765 H760 0.950 . S
C765 C767 1.327 . S
C765 C771 1.429 . S
C766 C758 1.574 . S
C766 H761 0.949 . S
C766 C772 1.368 . S
C767 C751 1.349 . S
C767 H759 0.950 . S
C767 C765 1.327 . S
C768 C756 1.349 . S
C768 H762 0.950 . S
C768 C769 1.327 . S
C769 H763 0.950 . S
C769 C768 1.327 . S
C769 C773 1.429 . S
C770 C753 1.574 . S
C770 H764 0.949 . S
C770 C774 1.368 . S
C771 C752 1.429 . S
C771 C765 1.429 . S
C771 C772 1.523 . S
C772 C753 1.368 . S
C772 C766 1.368 . S
C772 C771 1.523 . S
C773 C757 1.429 . S
C773 C769 1.429 . S
C773 C774 1.523 . S
C774 C758 1.368 . S
C774 C770 1.368 . S
C774 C773 1.523 . S
H775 C750 0.950 . S
H776 C752 0.950 . S
H777 C753 0.949 . S
H778 C755 0.950 . S
H779 C757 0.950 . S
C780 C781 1.349 . S
C780 C782 1.327 . S
C780 H805 0.950 . S
C781 C780 1.349 . S
C781 C797 1.349 . S
C782 C780 1.327 . S
C782 C801 1.429 . S
C782 H806 0.950 . S
C783 C800 1.574 . S
C783 C802 1.368 . S
C783 H807 0.949 . S
H784 C788 0.949 . S
C785 C786 1.349 . S
C785 C787 1.327 . S
C785 H808 0.950 . S
C786 C785 1.349 . S
C786 C798 1.349 . S
C787 C785 1.327 . S
C787 C803 1.429 . S
C787 H809 0.950 . S
C788 H784 0.949 . S
C788 C796 1.574 . S
C788 C804 1.368 . S
H789 C797 0.950 . S
H790 C795 0.950 . S
H791 C796 0.949 . S
H792 C798 0.950 . S
H793 C799 0.950 . S
H794 C800 0.949 . S
C795 H790 0.950 . S
C795 C797 1.327 . S
C795 C801 1.429 . S
C796 C788 1.574 . S
C796 H791 0.949 . S
C796 C802 1.368 . S
C797 C781 1.349 . S
C797 H789 0.950 . S
C797 C795 1.327 . S
C798 C786 1.349 . S
C798 H792 0.950 . S
C798 C799 1.327 . S
C799 H793 0.950 . S
C799 C798 1.327 . S
C799 C803 1.429 . S
C800 C783 1.574 . S
C800 H794 0.949 . S
C800 C804 1.368 . S
C801 C782 1.429 . S
C801 C795 1.429 . S
C801 C802 1.523 . S
C802 C783 1.368 . S
C802 C796 1.368 . S
C802 C801 1.523 . S
C803 C787 1.429 . S
C803 C799 1.429 . S
C803 C804 1.523 . S
C804 C788 1.368 . S
C804 C800 1.368 . S
C804 C803 1.523 . S
H805 C780 0.950 . S
H806 C782 0.950 . S
H807 C783 0.949 . S
H808 C785 0.950 . S
H809 C787 0.950 . S
C810 C811 1.349 . S
C810 C812 1.327 . S
C810 H835 0.950 . S
C811 C810 1.349 . S
C811 C827 1.349 . S
C812 C810 1.327 . S
C812 C831 1.429 . S
C812 H836 0.950 . S
C813 C830 1.574 . S
C813 C832 1.368 . S
C813 H837 0.949 . S
H814 C818 0.949 . S
C815 C816 1.349 . S
C815 C817 1.327 . S
C815 H838 0.950 . S
C816 C815 1.349 . S
C816 C828 1.349 . S
C817 C815 1.327 . S
C817 C833 1.429 . S
C817 H839 0.950 . S
C818 H814 0.949 . S
C818 C826 1.574 . S
C818 C834 1.368 . S
H819 C827 0.950 . S
H820 C825 0.950 . S
H821 C826 0.949 . S
H822 C828 0.950 . S
H823 C829 0.950 . S
H824 C830 0.949 . S
C825 H820 0.950 . S
C825 C827 1.327 . S
C825 C831 1.429 . S
C826 C818 1.574 . S
C826 H821 0.949 . S
C826 C832 1.368 . S
C827 C811 1.349 . S
C827 H819 0.950 . S
C827 C825 1.327 . S
C828 C816 1.349 . S
C828 H822 0.950 . S
C828 C829 1.327 . S
C829 H823 0.950 . S
C829 C828 1.327 . S
C829 C833 1.429 . S
C830 C813 1.574 . S
C830 H824 0.949 . S
C830 C834 1.368 . S
C831 C812 1.429 . S
C831 C825 1.429 . S
C831 C832 1.523 . S
C832 C813 1.368 . S
C832 C826 1.368 . S
C832 C831 1.523 . S
C833 C817 1.429 . S
C833 C829 1.429 . S
C833 C834 1.523 1_545 S
C834 C818 1.368 . S
C834 C830 1.368 . S
C834 C833 1.523 1_565 S
H835 C810 0.950 . S
H836 C812 0.950 . S
H837 C813 0.949 . S
H838 C815 0.950 . S
H839 C817 0.950 . S
C840 C841 1.349 . S
C840 C842 1.327 . S
C840 H865 0.950 . S
C841 C840 1.349 . S
C841 C857 1.349 . S
C842 C840 1.327 . S
C842 C861 1.429 . S
C842 H866 0.950 . S
C843 C860 1.574 . S
C843 C862 1.368 . S
C843 H867 0.949 . S
H844 C848 0.949 . S
C845 C846 1.349 . S
C845 C847 1.327 . S
C845 H868 0.950 . S
C846 C845 1.349 . S
C846 C858 1.349 . S
C847 C845 1.327 . S
C847 C863 1.429 1_545 S
C847 H869 0.950 1_545 S
C848 H844 0.949 . S
C848 C856 1.574 . S
C848 C864 1.368 . S
H849 C857 0.950 . S
H850 C855 0.950 . S
H851 C856 0.949 . S
H852 C858 0.950 . S
H853 C859 0.950 . S
H854 C860 0.949 . S
C855 H850 0.950 . S
C855 C857 1.327 . S
C855 C861 1.429 . S
C856 C848 1.574 . S
C856 H851 0.949 . S
C856 C862 1.368 . S
C857 C841 1.349 . S
C857 H849 0.950 . S
C857 C855 1.327 . S
C858 C846 1.349 . S
C858 H852 0.950 . S
C858 C859 1.327 . S
C859 H853 0.950 . S
C859 C858 1.327 . S
C859 C863 1.429 1_545 S
C860 C843 1.574 . S
C860 H854 0.949 . S
C860 C864 1.368 . S
C861 C842 1.429 . S
C861 C855 1.429 . S
C861 C862 1.523 . S
C862 C843 1.368 . S
C862 C856 1.368 . S
C862 C861 1.523 . S
C863 C847 1.429 1_565 S
C863 C859 1.429 1_565 S
C863 C864 1.523 . S
C864 C848 1.368 . S
C864 C860 1.368 . S
C864 C863 1.523 . S
H865 C840 0.950 . S
H866 C842 0.950 . S
H867 C843 0.949 . S
H868 C845 0.950 . S
H869 C847 0.950 1_565 S
C870 C871 1.349 . S
C870 C872 1.327 . S
C870 H895 0.950 . S
C871 C870 1.349 . S
C871 C887 1.349 . S
C872 C870 1.327 . S
C872 C891 1.429 . S
C872 H896 0.950 . S
C873 C890 1.574 . S
C873 C892 1.368 . S
C873 H897 0.949 . S
H874 C878 0.949 . S
C875 C876 1.349 . S
C875 C877 1.327 . S
C875 H898 0.950 . S
C876 C875 1.349 . S
C876 C888 1.349 . S
C877 C875 1.327 . S
C877 C893 1.429 . S
C877 H899 0.950 . S
C878 H874 0.949 . S
C878 C886 1.574 . S
C878 C894 1.368 . S
H879 C887 0.950 . S
H880 C885 0.950 . S
H881 C886 0.949 . S
H882 C888 0.950 . S
H883 C889 0.950 . S
H884 C890 0.949 . S
C885 H880 0.950 . S
C885 C887 1.327 . S
C885 C891 1.429 . S
C886 C878 1.574 . S
C886 H881 0.949 . S
C886 C892 1.368 . S
C887 C871 1.349 . S
C887 H879 0.950 . S
C887 C885 1.327 . S
C888 C876 1.349 . S
C888 H882 0.950 . S
C888 C889 1.327 . S
C889 H883 0.950 . S
C889 C888 1.327 . S
C889 C893 1.429 . S
C890 C873 1.574 . S
C890 H884 0.949 . S
C890 C894 1.368 . S
C891 C872 1.429 . S
C891 C885 1.429 . S
C891 C892 1.523 . S
C892 C873 1.368 . S
C892 C886 1.368 . S
C892 C891 1.523 . S
C893 C877 1.429 . S
C893 C889 1.429 . S
C893 C894 1.523 . S
C894 C878 1.368 . S
C894 C890 1.368 . S
C894 C893 1.523 . S
H895 C870 0.950 . S
H896 C872 0.950 . S
H897 C873 0.949 . S
H898 C875 0.950 . S
H899 C877 0.950 . S
C900 C901 1.349 . S
C900 C902 1.327 . S
C900 H925 0.950 . S
C901 C900 1.349 . S
C901 C917 1.349 . S
C902 C900 1.327 . S
C902 C921 1.429 . S
C902 H926 0.950 . S
C903 C920 1.574 . S
C903 C922 1.368 . S
C903 H927 0.949 . S
H904 C908 0.949 . S
C905 C906 1.349 . S
C905 C907 1.327 . S
C905 H928 0.950 1_455 S
C906 C905 1.349 . S
C906 C918 1.349 . S
C907 C905 1.327 . S
C907 C923 1.429 . S
C907 H929 0.950 . S
C908 H904 0.949 . S
C908 C916 1.574 . S
C908 C924 1.368 . S
H909 C917 0.950 . S
H910 C915 0.950 . S
H911 C916 0.949 . S
H912 C918 0.950 . S
H913 C919 0.950 . S
H914 C920 0.949 . S
C915 H910 0.950 . S
C915 C917 1.327 . S
C915 C921 1.429 . S
C916 C908 1.574 . S
C916 H911 0.949 . S
C916 C922 1.368 . S
C917 C901 1.349 . S
C917 H909 0.950 . S
C917 C915 1.327 . S
C918 C906 1.349 . S
C918 H912 0.950 . S
C918 C919 1.327 . S
C919 H913 0.950 . S
C919 C918 1.327 . S
C919 C923 1.429 . S
C920 C903 1.574 . S
C920 H914 0.949 . S
C920 C924 1.368 . S
C921 C902 1.429 . S
C921 C915 1.429 . S
C921 C922 1.523 . S
C922 C903 1.368 . S
C922 C916 1.368 . S
C922 C921 1.523 . S
C923 C907 1.429 . S
C923 C919 1.429 . S
C923 C924 1.523 . S
C924 C908 1.368 . S
C924 C920 1.368 . S
C924 C923 1.523 . S
H925 C900 0.950 . S
H926 C902 0.950 . S
H927 C903 0.949 . S
H928 C905 0.950 1_655 S
H929 C907 0.950 . S
C930 C931 1.349 . S
C930 C932 1.327 . S
C930 H955 0.950 . S
C931 C930 1.349 . S
C931 C947 1.349 . S
C932 C930 1.327 . S
C932 C951 1.429 . S
C932 H956 0.950 . S
C933 C950 1.574 . S
C933 C952 1.368 . S
C933 H957 0.949 . S
H934 C938 0.949 . S
C935 C936 1.349 . S
C935 C937 1.327 . S
C935 H958 0.950 . S
C936 C935 1.349 . S
C936 C948 1.349 . S
C937 C935 1.327 . S
C937 C953 1.429 . S
C937 H959 0.950 . S
C938 H934 0.949 . S
C938 C946 1.574 . S
C938 C954 1.368 . S
H939 C947 0.950 . S
H940 C945 0.950 . S
H941 C946 0.949 . S
H942 C948 0.950 . S
H943 C949 0.950 . S
H944 C950 0.949 . S
C945 H940 0.950 . S
C945 C947 1.327 . S
C945 C951 1.429 . S
C946 C938 1.574 . S
C946 H941 0.949 . S
C946 C952 1.368 . S
C947 C931 1.349 . S
C947 H939 0.950 . S
C947 C945 1.327 . S
C948 C936 1.349 . S
C948 H942 0.950 . S
C948 C949 1.327 . S
C949 H943 0.950 . S
C949 C948 1.327 . S
C949 C953 1.429 . S
C950 C933 1.574 . S
C950 H944 0.949 . S
C950 C954 1.368 . S
C951 C932 1.429 . S
C951 C945 1.429 . S
C951 C952 1.523 . S
C952 C933 1.368 . S
C952 C946 1.368 . S
C952 C951 1.523 . S
C953 C937 1.429 . S
C953 C949 1.429 . S
C953 C954 1.523 . S
C954 C938 1.368 . S
C954 C950 1.368 . S
C954 C953 1.523 . S
H955 C930 0.950 . S
H956 C932 0.950 . S
H957 C933 0.949 . S
H958 C935 0.950 . S
H959 C937 0.950 . S
C960 C961 1.349 . S
C960 C962 1.327 . S
C960 H985 0.950 . S
C961 C960 1.349 . S
C961 C977 1.349 . S
C962 C960 1.327 . S
C962 C981 1.429 . S
C962 H986 0.950 . S
C963 C980 1.574 . S
C963 C982 1.368 . S
C963 H987 0.949 . S
H964 C968 0.949 . S
C965 C966 1.349 . S
C965 C967 1.327 . S
C965 H988 0.950 . S
C966 C965 1.349 . S
C966 C978 1.349 . S
C967 C965 1.327 . S
C967 C983 1.429 . S
C967 H989 0.950 . S
C968 H964 0.949 . S
C968 C976 1.574 . S
C968 C984 1.368 . S
H969 C977 0.950 1_545 S
H970 C975 0.946 1_545 S
H971 C976 0.949 . S
H972 C978 0.950 . S
H973 C979 0.950 . S
H974 C980 0.949 . S
C975 H970 0.946 1_565 S
C975 C977 1.327 . S
C975 C981 1.429 . S
C976 C968 1.574 . S
C976 H971 0.949 . S
C976 C982 1.368 . S
C977 C961 1.349 . S
C977 H969 0.950 1_565 S
C977 C975 1.327 . S
C978 C966 1.349 . S
C978 H972 0.950 . S
C978 C979 1.327 . S
C979 H973 0.950 . S
C979 C978 1.327 . S
C979 C983 1.429 . S
C980 C963 1.574 . S
C980 H974 0.949 . S
C980 C984 1.368 . S
C981 C962 1.429 . S
C981 C975 1.429 . S
C981 C982 1.523 . S
C982 C963 1.368 . S
C982 C976 1.368 . S
C982 C981 1.523 . S
C983 C967 1.429 . S
C983 C979 1.429 . S
C983 C984 1.523 . S
C984 C968 1.368 . S
C984 C980 1.368 . S
C984 C983 1.523 . S
H985 C960 0.950 . S
H986 C962 0.950 . S
H987 C963 0.949 . S
H988 C965 0.950 . S
H989 C967 0.950 . S
C990 C991 1.349 . S
C990 C992 1.327 . S
C990 H1015 0.950 1_545 S
C991 C990 1.349 . S
C991 C1007 1.349 . S
C992 C990 1.327 . S
C992 C1011 1.429 . S
C992 H1016 0.950 . S
C993 C1010 1.574 . S
C993 C1012 1.368 . S
C993 H1017 0.949 . S
H994 C998 0.949 . S
C995 C996 1.349 . S
C995 C997 1.327 . S
C995 H1018 0.950 . S
C996 C995 1.349 . S
C996 C1008 1.349 . S
C997 C995 1.327 . S
C997 C1013 1.429 . S
C997 H1019 0.950 . S
C998 H994 0.949 . S
C998 C1006 1.574 . S
C998 C1014 1.368 . S
H999 C1007 0.950 . S
H1000 C1005 0.950 . S
H1001 C1006 0.949 . S
H1002 C1008 0.950 . S
H1003 C1009 0.950 . S
H1004 C1010 0.949 . S
C1005 H1000 0.950 . S
C1005 C1007 1.327 . S
C1005 C1011 1.429 . S
C1006 C998 1.574 . S
C1006 H1001 0.949 . S
C1006 C1012 1.368 . S
C1007 C991 1.349 . S
C1007 H999 0.950 . S
C1007 C1005 1.327 . S
C1008 C996 1.349 . S
C1008 H1002 0.950 . S
C1008 C1009 1.327 . S
C1009 H1003 0.950 . S
C1009 C1008 1.327 . S
C1009 C1013 1.429 . S
C1010 C993 1.574 . S
C1010 H1004 0.949 . S
C1010 C1014 1.368 . S
C1011 C992 1.429 . S
C1011 C1005 1.429 . S
C1011 C1012 1.523 . S
C1012 C993 1.368 . S
C1012 C1006 1.368 . S
C1012 C1011 1.523 . S
C1013 C997 1.429 . S
C1013 C1009 1.429 . S
C1013 C1014 1.523 . S
C1014 C998 1.368 . S
C1014 C1010 1.368 . S
C1014 C1013 1.523 . S
H1015 C990 0.950 1_565 S
H1016 C992 0.950 . S
H1017 C993 0.949 . S
H1018 C995 0.950 . S
H1019 C997 0.950 . S
C1020 C1021 1.349 . S
C1020 C1022 1.327 . S
C1020 H1045 0.950 . S
C1021 C1020 1.349 . S
C1021 C1037 1.349 . S
C1022 C1020 1.327 . S
C1022 C1041 1.429 . S
C1022 H1046 0.950 . S
C1023 C1040 1.574 . S
C1023 C1042 1.368 . S
C1023 H1047 0.949 . S
H1024 C1028 0.949 . S
C1025 C1026 1.349 . S
C1025 C1027 1.327 . S
C1025 H1048 0.950 . S
C1026 C1025 1.349 . S
C1026 C1038 1.349 . S
C1027 C1025 1.327 . S
C1027 C1043 1.429 . S
C1027 H1049 0.950 . S
C1028 H1024 0.949 . S
C1028 C1036 1.574 . S
C1028 C1044 1.368 . S
H1029 C1037 0.950 . S
H1030 C1035 0.950 . S
H1031 C1036 0.949 . S
H1032 C1038 0.950 . S
H1033 C1039 0.950 . S
H1034 C1040 0.949 . S
C1035 H1030 0.950 . S
C1035 C1037 1.327 . S
C1035 C1041 1.429 . S
C1036 C1028 1.574 . S
C1036 H1031 0.949 . S
C1036 C1042 1.368 . S
C1037 C1021 1.349 . S
C1037 H1029 0.950 . S
C1037 C1035 1.327 . S
C1038 C1026 1.349 . S
C1038 H1032 0.950 . S
C1038 C1039 1.327 . S
C1039 H1033 0.950 . S
C1039 C1038 1.327 . S
C1039 C1043 1.429 . S
C1040 C1023 1.574 . S
C1040 H1034 0.949 . S
C1040 C1044 1.368 . S
C1041 C1022 1.429 . S
C1041 C1035 1.429 . S
C1041 C1042 1.523 . S
C1042 C1023 1.368 . S
C1042 C1036 1.368 . S
C1042 C1041 1.523 . S
C1043 C1027 1.429 . S
C1043 C1039 1.429 . S
C1043 C1044 1.523 . S
C1044 C1028 1.368 . S
C1044 C1040 1.368 . S
C1044 C1043 1.523 . S
H1045 C1020 0.950 . S
H1046 C1022 0.950 . S
H1047 C1023 0.949 . S
H1048 C1025 0.950 . S
H1049 C1027 0.950 . S
C1050 C1051 1.349 . S
C1050 C1052 1.327 . S
C1050 H1075 0.950 . S
C1051 C1050 1.349 . S
C1051 C1067 1.349 . S
C1052 C1050 1.327 . S
C1052 C1071 1.429 . S
C1052 H1076 0.950 . S
C1053 C1070 1.574 . S
C1053 C1072 1.368 . S
C1053 H1077 0.949 . S
H1054 C1058 0.949 . S
C1055 C1056 1.349 . S
C1055 C1057 1.327 . S
C1055 H1078 0.950 . S
C1056 C1055 1.349 . S
C1056 C1068 1.349 . S
C1057 C1055 1.327 . S
C1057 C1073 1.429 . S
C1057 H1079 0.950 . S
C1058 H1054 0.949 . S
C1058 C1066 1.574 . S
C1058 C1074 1.368 . S
H1059 C1067 0.950 . S
H1060 C1065 0.950 . S
H1061 C1066 0.949 . S
H1062 C1068 0.950 . S
H1063 C1069 0.950 . S
H1064 C1070 0.949 . S
C1065 H1060 0.950 . S
C1065 C1067 1.327 . S
C1065 C1071 1.429 . S
C1066 C1058 1.574 . S
C1066 H1061 0.949 . S
C1066 C1072 1.368 . S
C1067 C1051 1.349 . S
C1067 H1059 0.950 . S
C1067 C1065 1.327 . S
C1068 C1056 1.349 . S
C1068 H1062 0.950 . S
C1068 C1069 1.327 . S
C1069 H1063 0.950 . S
C1069 C1068 1.327 . S
C1069 C1073 1.429 . S
C1070 C1053 1.574 . S
C1070 H1064 0.949 . S
C1070 C1074 1.368 . S
C1071 C1052 1.429 . S
C1071 C1065 1.429 . S
C1071 C1072 1.523 . S
C1072 C1053 1.368 . S
C1072 C1066 1.368 . S
C1072 C1071 1.523 . S
C1073 C1057 1.429 . S
C1073 C1069 1.429 . S
C1073 C1074 1.523 . S
C1074 C1058 1.368 . S
C1074 C1070 1.368 . S
C1074 C1073 1.523 . S
H1075 C1050 0.950 . S
H1076 C1052 0.950 . S
H1077 C1053 0.949 . S
H1078 C1055 0.950 . S
H1079 C1057 0.950 . S
C1080 C1081 1.349 . S
C1080 C1082 1.327 . S
C1080 H1105 0.950 . S
C1081 C1080 1.349 . S
C1081 C1097 1.349 . S
C1082 C1080 1.327 . S
C1082 C1101 1.429 . S
C1082 H1106 0.950 . S
C1083 C1100 1.574 . S
C1083 C1102 1.368 . S
C1083 H1107 0.949 . S
H1084 C1088 0.949 . S
C1085 C1086 1.349 . S
C1085 C1087 1.327 . S
C1085 H1108 0.950 . S
C1086 C1085 1.349 . S
C1086 C1098 1.349 . S
C1087 C1085 1.327 . S
C1087 C1103 1.429 . S
C1087 H1109 0.950 . S
C1088 H1084 0.949 . S
C1088 C1096 1.574 . S
C1088 C1104 1.368 . S
H1089 C1097 0.950 . S
H1090 C1095 0.950 . S
H1091 C1096 0.949 . S
H1092 C1098 0.950 . S
H1093 C1099 0.950 . S
H1094 C1100 0.949 . S
C1095 H1090 0.950 . S
C1095 C1097 1.327 . S
C1095 C1101 1.429 . S
C1096 C1088 1.574 . S
C1096 H1091 0.949 . S
C1096 C1102 1.368 . S
C1097 C1081 1.349 . S
C1097 H1089 0.950 . S
C1097 C1095 1.327 . S
C1098 C1086 1.349 . S
C1098 H1092 0.950 . S
C1098 C1099 1.327 . S
C1099 H1093 0.950 . S
C1099 C1098 1.327 . S
C1099 C1103 1.429 . S
C1100 C1083 1.574 . S
C1100 H1094 0.949 . S
C1100 C1104 1.368 . S
C1101 C1082 1.429 . S
C1101 C1095 1.429 . S
C1101 C1102 1.523 . S
C1102 C1083 1.368 . S
C1102 C1096 1.368 . S
C1102 C1101 1.523 . S
C1103 C1087 1.429 . S
C1103 C1099 1.429 . S
C1103 C1104 1.523 . S
C1104 C1088 1.368 . S
C1104 C1100 1.368 . S
C1104 C1103 1.523 . S
H1105 C1080 0.950 . S
H1106 C1082 0.950 . S
H1107 C1083 0.949 . S
H1108 C1085 0.950 . S
H1109 C1087 0.950 . S
C1110 C1111 1.349 . S
C1110 C1112 1.327 . S
C1110 H1135 0.950 . S
C1111 C1110 1.349 . S
C1111 C1127 1.349 . S
C1112 C1110 1.327 . S
C1112 C1131 1.429 . S
C1112 H1136 0.950 . S
C1113 C1130 1.574 . S
C1113 C1132 1.368 1_545 S
C1113 H1137 0.949 . S
H1114 C1118 0.939 . S
C1115 C1116 1.349 . S
C1115 C1117 1.327 . S
C1115 H1138 0.950 . S
C1116 C1115 1.349 . S
C1116 C1128 1.349 . S
C1117 C1115 1.327 . S
C1117 C1133 1.429 . S
C1117 H1139 0.950 . S
C1118 H1114 0.939 . S
C1118 C1126 1.579 . S
C1118 C1134 1.358 1_565 S
H1119 C1127 0.950 . S
H1120 C1125 0.950 . S
H1121 C1126 0.949 . S
H1122 C1128 0.950 . S
H1123 C1129 0.950 . S
H1124 C1130 0.949 . S
C1125 H1120 0.950 . S
C1125 C1127 1.327 . S
C1125 C1131 1.429 . S
C1126 C1118 1.579 . S
C1126 H1121 0.949 . S
C1126 C1132 1.368 . S
C1127 C1111 1.349 . S
C1127 H1119 0.950 . S
C1127 C1125 1.327 . S
C1128 C1116 1.349 . S
C1128 H1122 0.950 . S
C1128 C1129 1.327 . S
C1129 H1123 0.950 . S
C1129 C1128 1.327 . S
C1129 C1133 1.429 . S
C1130 C1113 1.574 . S
C1130 H1124 0.949 . S
C1130 C1134 1.368 . S
C1131 C1112 1.429 . S
C1131 C1125 1.429 . S
C1131 C1132 1.523 . S
C1132 C1113 1.368 1_565 S
C1132 C1126 1.368 . S
C1132 C1131 1.523 . S
C1133 C1117 1.429 . S
C1133 C1129 1.429 . S
C1133 C1134 1.523 . S
C1134 C1118 1.358 1_545 S
C1134 C1130 1.368 . S
C1134 C1133 1.523 . S
H1135 C1110 0.950 . S
H1136 C1112 0.950 . S
H1137 C1113 0.949 . S
H1138 C1115 0.950 . S
H1139 C1117 0.950 . S
C1140 C1141 1.349 . S
C1140 C1142 1.327 . S
C1140 H1165 0.950 . S
C1141 C1140 1.349 . S
C1141 C1157 1.349 . S
C1142 C1140 1.327 . S
C1142 C1161 1.429 . S
C1142 H1166 0.950 . S
C1143 C1160 1.574 1_655 S
C1143 C1162 1.368 . S
C1143 H1167 0.949 . S
H1144 C1148 0.949 . S
C1145 C1146 1.349 . S
C1145 C1147 1.327 . S
C1145 H1168 0.950 . S
C1146 C1145 1.349 . S
C1146 C1158 1.349 . S
C1147 C1145 1.327 . S
C1147 C1163 1.429 . S
C1147 H1169 0.950 . S
C1148 H1144 0.949 . S
C1148 C1156 1.574 . S
C1148 C1164 1.368 . S
H1149 C1157 0.950 . S
H1150 C1155 0.950 . S
H1151 C1156 0.949 . S
H1152 C1158 0.950 . S
H1153 C1159 0.950 . S
H1154 C1160 0.949 . S
C1155 H1150 0.950 . S
C1155 C1157 1.327 . S
C1155 C1161 1.429 . S
C1156 C1148 1.574 . S
C1156 H1151 0.949 . S
C1156 C1162 1.368 1_455 S
C1157 C1141 1.349 . S
C1157 H1149 0.950 . S
C1157 C1155 1.327 . S
C1158 C1146 1.349 . S
C1158 H1152 0.950 . S
C1158 C1159 1.327 . S
C1159 H1153 0.950 . S
C1159 C1158 1.327 . S
C1159 C1163 1.429 . S
C1160 C1143 1.574 1_455 S
C1160 H1154 0.949 . S
C1160 C1164 1.368 . S
C1161 C1142 1.429 . S
C1161 C1155 1.429 . S
C1161 C1162 1.523 . S
C1162 C1143 1.368 . S
C1162 C1156 1.368 1_655 S
C1162 C1161 1.523 . S
C1163 C1147 1.429 . S
C1163 C1159 1.429 . S
C1163 C1164 1.523 . S
C1164 C1148 1.368 . S
C1164 C1160 1.368 . S
C1164 C1163 1.523 . S
H1165 C1140 0.950 . S
H1166 C1142 0.950 . S
H1167 C1143 0.949 . S
H1168 C1145 0.950 . S
H1169 C1147 0.950 . S
C361 C66 0.342 . S
C366 C17 0.470 . S
C391 C104 3.237 . S
C396 C53 3.259 . S
C421 C97 0.905 . S
C426 C24 0.906 . S
C451 C93 2.925 . S
C456 C64 2.911 . S
C481 C106 1.798 . S
C486 C13 1.793 . S
C511 C26 0.618 . S
C516 C57 0.708 . S
C541 C137 2.708 . S
C546 C184 2.736 . S
C571 C224 0.626 . S
C576 C177 0.623 . S
C601 C217 0.772 . S
C606 C144 0.772 . S
C631 C186 0.259 . S
C636 C213 0.233 . S
C661 C226 1.898 . S
C666 C133 1.893 . S
C691 C173 2.227 . S
C696 C146 2.231 . S
C721 C306 0.356 . S
C726 C257 0.488 . S
C751 C293 3.299 . S
C756 C344 3.277 . S
C781 C337 0.919 . S
C786 C264 0.921 . S
C811 C333 2.863 . S
C816 C304 2.849 . S
C841 C346 1.810 1_455 S
C846 C253 1.805 . S
C871 C266 0.590 . S
C876 C297 0.680 . S
C901 C223 2.355 . S
C906 C2 2.579 . S
C931 C143 2.077 . S
C936 C63 2.050 . S
C961 C82 2.928 . S
C966 C183 2.751 . S
C991 C103 2.365 . S
C996 C242 2.587 . S
C1021 C23 2.038 . S
C1026 C303 2.010 . S
C1051 C322 2.923 . S
C1056 C42 2.937 . S
C1081 C122 2.625 . S
C1086 C343 2.401 . S
C1111 C162 2.186 . S
C1116 C263 2.052 . S
C1141 C282 2.895 . S
C1146 C202 2.880 . S
