# Generated by pormake.
# Topology pem, (4)-cn, num edge types: 1
# Building blocks:
#     Node 0, Type 0, BuildingBlock: AZAVOO_clean_sbu_0, # of connection points: 4
#     Node 1, Type 0, BuildingBlock: AZAVOO_clean_sbu_0, # of connection points: 4
#     Node 2, Type 0, BuildingBlock: AZAVOO_clean_sbu_0, # of connection points: 4
#     Node 3, Type 0, BuildingBlock: AZAVOO_clean_sbu_0, # of connection points: 4
#     Node 4, Type 0, BuildingBlock: AZAVOO_clean_sbu_0, # of connection points: 4
#     Node 5, Type 0, BuildingBlock: AZAVOO_clean_sbu_0, # of connection points: 4
#     Node 6, Type 0, BuildingBlock: AZAVOO_clean_sbu_0, # of connection points: 4
#     Node 7, Type 0, BuildingBlock: AZAVOO_clean_sbu_0, # of connection points: 4
#     Node 8, Type 0, BuildingBlock: AZAVOO_clean_sbu_0, # of connection points: 4
#     Node 9, Type 0, BuildingBlock: AZAVOO_clean_sbu_0, # of connection points: 4
#     Node 10, Type 0, BuildingBlock: AZAVOO_clean_sbu_0, # of connection points: 4
#     Node 11, Type 0, BuildingBlock: AZAVOO_clean_sbu_0, # of connection points: 4
#     Node 12, Type 0, BuildingBlock: AZAVOO_clean_sbu_0, # of connection points: 4
#     Node 13, Type 0, BuildingBlock: AZAVOO_clean_sbu_0, # of connection points: 4
#     Node 14, Type 0, BuildingBlock: AZAVOO_clean_sbu_0, # of connection points: 4
#     Node 15, Type 0, BuildingBlock: AZAVOO_clean_sbu_0, # of connection points: 4
#     Node 16, Type 0, BuildingBlock: AZAVOO_clean_sbu_0, # of connection points: 4
#     Node 17, Type 0, BuildingBlock: AZAVOO_clean_sbu_0, # of connection points: 4
#     Node 18, Type 0, BuildingBlock: AZAVOO_clean_sbu_0, # of connection points: 4
#     Node 19, Type 0, BuildingBlock: AZAVOO_clean_sbu_0, # of connection points: 4
#     Node 20, Type 0, BuildingBlock: AZAVOO_clean_sbu_0, # of connection points: 4
#     Node 21, Type 0, BuildingBlock: AZAVOO_clean_sbu_0, # of connection points: 4
#     Node 22, Type 0, BuildingBlock: AZAVOO_clean_sbu_0, # of connection points: 4
#     Node 23, Type 0, BuildingBlock: AZAVOO_clean_sbu_0, # of connection points: 4
#     Node 24, Type 0, BuildingBlock: AZAVOO_clean_sbu_0, # of connection points: 4
#     Node 25, Type 0, BuildingBlock: AZAVOO_clean_sbu_0, # of connection points: 4
#     Node 26, Type 0, BuildingBlock: AZAVOO_clean_sbu_0, # of connection points: 4
#     Node 27, Type 0, BuildingBlock: AZAVOO_clean_sbu_0, # of connection points: 4
#     Node 28, Type 0, BuildingBlock: AZAVOO_clean_sbu_0, # of connection points: 4
#     Node 29, Type 0, BuildingBlock: AZAVOO_clean_sbu_0, # of connection points: 4
#     Node 30, Type 0, BuildingBlock: AZAVOO_clean_sbu_0, # of connection points: 4
#     Node 31, Type 0, BuildingBlock: AZAVOO_clean_sbu_0, # of connection points: 4
#     Edge 32, Type (0, 0), BuildingBlock: OJICUG_clean_linker_0, # of connection points: 2
#     Edge 33, Type (0, 0), BuildingBlock: OJICUG_clean_linker_0, # of connection points: 2
#     Edge 34, Type (0, 0), BuildingBlock: OJICUG_clean_linker_0, # of connection points: 2
#     Edge 35, Type (0, 0), BuildingBlock: OJICUG_clean_linker_0, # of connection points: 2
#     Edge 36, Type (0, 0), BuildingBlock: OJICUG_clean_linker_0, # of connection points: 2
#     Edge 37, Type (0, 0), BuildingBlock: OJICUG_clean_linker_0, # of connection points: 2
#     Edge 38, Type (0, 0), BuildingBlock: OJICUG_clean_linker_0, # of connection points: 2
#     Edge 39, Type (0, 0), BuildingBlock: OJICUG_clean_linker_0, # of connection points: 2
#     Edge 40, Type (0, 0), BuildingBlock: OJICUG_clean_linker_0, # of connection points: 2
#     Edge 41, Type (0, 0), BuildingBlock: OJICUG_clean_linker_0, # of connection points: 2
#     Edge 42, Type (0, 0), BuildingBlock: OJICUG_clean_linker_0, # of connection points: 2
#     Edge 43, Type (0, 0), BuildingBlock: OJICUG_clean_linker_0, # of connection points: 2
#     Edge 44, Type (0, 0), BuildingBlock: OJICUG_clean_linker_0, # of connection points: 2
#     Edge 45, Type (0, 0), BuildingBlock: OJICUG_clean_linker_0, # of connection points: 2
#     Edge 46, Type (0, 0), BuildingBlock: OJICUG_clean_linker_0, # of connection points: 2
#     Edge 47, Type (0, 0), BuildingBlock: OJICUG_clean_linker_0, # of connection points: 2
#     Edge 48, Type (0, 0), BuildingBlock: OJICUG_clean_linker_0, # of connection points: 2
#     Edge 49, Type (0, 0), BuildingBlock: OJICUG_clean_linker_0, # of connection points: 2
#     Edge 50, Type (0, 0), BuildingBlock: OJICUG_clean_linker_0, # of connection points: 2
#     Edge 51, Type (0, 0), BuildingBlock: OJICUG_clean_linker_0, # of connection points: 2
#     Edge 52, Type (0, 0), BuildingBlock: OJICUG_clean_linker_0, # of connection points: 2
#     Edge 53, Type (0, 0), BuildingBlock: OJICUG_clean_linker_0, # of connection points: 2
#     Edge 54, Type (0, 0), BuildingBlock: OJICUG_clean_linker_0, # of connection points: 2
#     Edge 55, Type (0, 0), BuildingBlock: OJICUG_clean_linker_0, # of connection points: 2
#     Edge 56, Type (0, 0), BuildingBlock: OJICUG_clean_linker_0, # of connection points: 2
#     Edge 57, Type (0, 0), BuildingBlock: OJICUG_clean_linker_0, # of connection points: 2
#     Edge 58, Type (0, 0), BuildingBlock: OJICUG_clean_linker_0, # of connection points: 2
#     Edge 59, Type (0, 0), BuildingBlock: OJICUG_clean_linker_0, # of connection points: 2
#     Edge 60, Type (0, 0), BuildingBlock: OJICUG_clean_linker_0, # of connection points: 2
#     Edge 61, Type (0, 0), BuildingBlock: OJICUG_clean_linker_0, # of connection points: 2
#     Edge 62, Type (0, 0), BuildingBlock: OJICUG_clean_linker_0, # of connection points: 2
#     Edge 63, Type (0, 0), BuildingBlock: OJICUG_clean_linker_0, # of connection points: 2
#     Edge 64, Type (0, 0), BuildingBlock: OJICUG_clean_linker_0, # of connection points: 2
#     Edge 65, Type (0, 0), BuildingBlock: OJICUG_clean_linker_0, # of connection points: 2
#     Edge 66, Type (0, 0), BuildingBlock: OJICUG_clean_linker_0, # of connection points: 2
#     Edge 67, Type (0, 0), BuildingBlock: OJICUG_clean_linker_0, # of connection points: 2
#     Edge 68, Type (0, 0), BuildingBlock: OJICUG_clean_linker_0, # of connection points: 2
#     Edge 69, Type (0, 0), BuildingBlock: OJICUG_clean_linker_0, # of connection points: 2
#     Edge 70, Type (0, 0), BuildingBlock: OJICUG_clean_linker_0, # of connection points: 2
#     Edge 71, Type (0, 0), BuildingBlock: OJICUG_clean_linker_0, # of connection points: 2
#     Edge 72, Type (0, 0), BuildingBlock: OJICUG_clean_linker_0, # of connection points: 2
#     Edge 73, Type (0, 0), BuildingBlock: OJICUG_clean_linker_0, # of connection points: 2
#     Edge 74, Type (0, 0), BuildingBlock: OJICUG_clean_linker_0, # of connection points: 2
#     Edge 75, Type (0, 0), BuildingBlock: OJICUG_clean_linker_0, # of connection points: 2
#     Edge 76, Type (0, 0), BuildingBlock: OJICUG_clean_linker_0, # of connection points: 2
#     Edge 77, Type (0, 0), BuildingBlock: OJICUG_clean_linker_0, # of connection points: 2
#     Edge 78, Type (0, 0), BuildingBlock: OJICUG_clean_linker_0, # of connection points: 2
#     Edge 79, Type (0, 0), BuildingBlock: OJICUG_clean_linker_0, # of connection points: 2
#     Edge 80, Type (0, 0), BuildingBlock: OJICUG_clean_linker_0, # of connection points: 2
#     Edge 81, Type (0, 0), BuildingBlock: OJICUG_clean_linker_0, # of connection points: 2
#     Edge 82, Type (0, 0), BuildingBlock: OJICUG_clean_linker_0, # of connection points: 2
#     Edge 83, Type (0, 0), BuildingBlock: OJICUG_clean_linker_0, # of connection points: 2
#     Edge 84, Type (0, 0), BuildingBlock: OJICUG_clean_linker_0, # of connection points: 2
#     Edge 85, Type (0, 0), BuildingBlock: OJICUG_clean_linker_0, # of connection points: 2
#     Edge 86, Type (0, 0), BuildingBlock: OJICUG_clean_linker_0, # of connection points: 2
#     Edge 87, Type (0, 0), BuildingBlock: OJICUG_clean_linker_0, # of connection points: 2
#     Edge 88, Type (0, 0), BuildingBlock: OJICUG_clean_linker_0, # of connection points: 2
#     Edge 89, Type (0, 0), BuildingBlock: OJICUG_clean_linker_0, # of connection points: 2
#     Edge 90, Type (0, 0), BuildingBlock: OJICUG_clean_linker_0, # of connection points: 2
#     Edge 91, Type (0, 0), BuildingBlock: OJICUG_clean_linker_0, # of connection points: 2
#     Edge 92, Type (0, 0), BuildingBlock: OJICUG_clean_linker_0, # of connection points: 2
#     Edge 93, Type (0, 0), BuildingBlock: OJICUG_clean_linker_0, # of connection points: 2
#     Edge 94, Type (0, 0), BuildingBlock: OJICUG_clean_linker_0, # of connection points: 2
#     Edge 95, Type (0, 0), BuildingBlock: OJICUG_clean_linker_0, # of connection points: 2
# Relax obj value: 0.054
# Max RMSD: 0.043
# Mean RMSD: 0.039
data_MOF--net-pem--node1-AZAVOO_clean_sbu_0--edge1-OJICUG_clean_linker_0
_symmetry_space_group_name_H-M    P1
_symmetry_Int_Tables_number       1
_symmetry_cell_setting            triclinic
loop_
_symmetry_equiv_pos_as_xyz
'x, y, z'
_cell_length_a     31.15557
_cell_length_b     32.665581
_cell_length_c     32.178901
_cell_angle_alpha  90.012945
_cell_angle_beta   90.283206
_cell_angle_gamma 90.170735
loop_
_atom_site_label
_atom_site_type_symbol
_atom_site_fract_x
_atom_site_fract_y
_atom_site_fract_z
_atom_type_partial_charge
Mg0 Mg 0.08888 0.10609 0.1043 0.0
O1 O 0.03576 0.06571 0.08087 0.0
O2 O 0.99573 0.04904 0.13639 0.0
Mg3 Mg 0.02213 0.07924 0.19464 0.0
C4 C 0.00432 0.04693 0.09762 0.0
C5 C 0.15202 0.12104 0.03502 0.0
O6 O 0.17437 0.11182 0.06829 0.0
O7 O 0.03831 0.15794 0.10873 0.0
O8 O 0.00338 0.14192 0.16712 0.0
O9 O 0.12846 0.04985 0.11555 0.0
O10 O 0.08233 0.07461 0.16065 0.0
C11 C 0.01012 0.16576 0.13639 0.0
C12 C 0.10711 0.045 0.14947 0.0
O13 O 0.11126 0.12271 0.03791 0.0
Mg14 Mg 0.14168 0.85217 0.3139 0.0
O15 O 0.1899 0.82432 0.27167 0.0
O16 O 0.23644 0.87383 0.25308 0.0
Mg17 Mg 0.21938 0.9331 0.28313 0.0
C18 C 0.2229 0.83695 0.25215 0.0
C19 C 0.11254 0.77036 0.36724 0.0
O20 O 0.13377 0.78661 0.39844 0.0
O21 O 0.19467 0.85017 0.36486 0.0
O22 O 0.23719 0.90167 0.34446 0.0
O23 O 0.10063 0.87223 0.25823 0.0
O24 O 0.15558 0.90688 0.2824 0.0
C25 C 0.22786 0.87299 0.36986 0.0
C26 C 0.1261 0.90334 0.25481 0.0
O27 O 0.11256 0.78851 0.33207 0.0
Mg28 Mg 0.39144 0.89411 0.58758 0.0
O29 O 0.43437 0.94338 0.56331 0.0
O30 O 0.47675 0.96572 0.61526 0.0
Mg31 Mg 0.46102 0.93074 0.67361 0.0
C32 C 0.46352 0.96693 0.5777 0.0
C33 C 0.3436 0.85092 0.50984 0.0
O34 O 0.33775 0.8201 0.53529 0.0
O35 O 0.45027 0.84948 0.58688 0.0
O36 O 0.4851 0.87243 0.64333 0.0
O37 O 0.34373 0.94338 0.6066 0.0
O38 O 0.39849 0.92301 0.6445 0.0
C39 C 0.48098 0.84695 0.61355 0.0
C40 C 0.36754 0.94835 0.63915 0.0
O41 O 0.36731 0.88072 0.52123 0.0
Mg42 Mg 0.34228 0.1146 0.83226 0.0
O43 O 0.29705 0.14795 0.78931 0.0
O44 O 0.24825 0.10164 0.76764 0.0
Mg45 Mg 0.25664 0.04201 0.80186 0.0
C46 C 0.26493 0.1374 0.76696 0.0
C47 C 0.38697 0.19791 0.87717 0.0
O48 O 0.36383 0.19415 0.91095 0.0
O49 O 0.29212 0.1215 0.88458 0.0
O50 O 0.24229 0.07729 0.86196 0.0
O51 O 0.37814 0.09539 0.77593 0.0
O52 O 0.32388 0.06011 0.80123 0.0
C53 C 0.25544 0.10395 0.88816 0.0
C54 C 0.35099 0.06578 0.77156 0.0
O55 O 0.38107 0.17341 0.84687 0.0
Mg56 Mg 0.12729 0.90047 0.41035 0.0
O57 O 0.07405 0.94432 0.42672 0.0
O58 O 0.03998 0.95749 0.36627 0.0
Mg59 Mg 0.06905 0.92564 0.31286 0.0
C60 C 0.04457 0.96177 0.40536 0.0
C61 C 0.16983 0.85702 0.48999 0.0
O62 O 0.17381 0.82663 0.4637 0.0
O63 O 0.07196 0.85066 0.40554 0.0
O64 O 0.04406 0.86815 0.34381 0.0
O65 O 0.17207 0.95462 0.39555 0.0
O66 O 0.12533 0.92818 0.35223 0.0
C67 C 0.04497 0.84495 0.37562 0.0
C68 C 0.15251 0.95672 0.3602 0.0
O69 O 0.14763 0.88808 0.47915 0.0
Mg70 Mg 0.38227 0.84722 0.67695 0.0
O71 O 0.34295 0.81113 0.72111 0.0
O72 O 0.29051 0.85088 0.7461 0.0
Mg73 Mg 0.30009 0.91566 0.72342 0.0
C74 C 0.30939 0.81641 0.74278 0.0
C75 C 0.41523 0.76613 0.61999 0.0
O76 O 0.39409 0.78015 0.5877 0.0
O77 O 0.32336 0.84461 0.63088 0.0
O78 O 0.27979 0.89153 0.65899 0.0
O79 O 0.42795 0.86988 0.72854 0.0
O80 O 0.36659 0.89868 0.71354 0.0
C81 C 0.28881 0.86612 0.63011 0.0
C82 C 0.40026 0.89815 0.73646 0.0
O83 O 0.41431 0.78593 0.65427 0.0
Mg84 Mg 0.43165 0.10704 0.88327 0.0
O85 O 0.47475 0.06671 0.91839 0.0
O86 O 0.5229 0.03574 0.87789 0.0
Mg87 Mg 0.5155 0.06499 0.81408 0.0
C88 C 0.50498 0.04144 0.91303 0.0
C89 C 0.38937 0.09768 0.97044 0.0
O90 O 0.39636 0.05988 0.9584 0.0
O91 O 0.48613 0.15586 0.88553 0.0
O92 O 0.53289 0.12795 0.84134 0.0
O93 O 0.39231 0.05116 0.86829 0.0
O94 O 0.44723 0.07035 0.83022 0.0
C95 C 0.52177 0.15674 0.86582 0.0
C96 C 0.41917 0.04254 0.83917 0.0
O97 O 0.40088 0.12685 0.94647 0.0
Mg98 Mg 0.18859 0.11386 0.15864 0.0
O99 O 0.21247 0.16162 0.20049 0.0
O100 O 0.26513 0.13917 0.24154 0.0
Mg101 Mg 0.27942 0.07373 0.21969 0.0
C102 C 0.23879 0.16685 0.23 0.0
C103 C 0.16283 0.20162 0.12003 0.0
O104 O 0.20386 0.20883 0.12623 0.0
O105 O 0.24702 0.1224 0.11481 0.0
O106 O 0.29864 0.09316 0.1529 0.0
O107 O 0.14724 0.09479 0.21216 0.0
O108 O 0.21106 0.06815 0.20202 0.0
C109 C 0.28575 0.11018 0.1193 0.0
C110 C 0.17752 0.07109 0.22518 0.0
O111 O 0.14812 0.16587 0.1274 0.0
Mg112 Mg 0.5992 0.38114 0.89938 0.0
O113 O 0.53958 0.41579 0.91274 0.0
O114 O 0.50361 0.42735 0.85295 0.0
Mg115 Mg 0.54035 0.39785 0.80031 0.0
C116 C 0.50769 0.43001 0.89241 0.0
C117 C 0.65444 0.37493 0.97856 0.0
O118 O 0.68093 0.38475 0.94864 0.0
O119 O 0.55159 0.32603 0.89422 0.0
O120 O 0.52119 0.33849 0.83238 0.0
O121 O 0.63417 0.44112 0.88748 0.0
O122 O 0.59549 0.40884 0.84052 0.0
C123 C 0.52516 0.31664 0.86499 0.0
C124 C 0.61562 0.44164 0.85152 0.0
O125 O 0.61477 0.37015 0.9697 0.0
Mg126 Mg 0.84196 0.37677 0.18167 0.0
O127 O 0.81391 0.32594 0.21681 0.0
O128 O 0.75518 0.34567 0.25065 0.0
Mg129 Mg 0.74507 0.4134 0.23483 0.0
C130 C 0.78261 0.31853 0.24047 0.0
C131 C 0.88309 0.29424 0.13618 0.0
O132 O 0.84439 0.28407 0.12343 0.0
O133 O 0.78705 0.3688 0.13323 0.0
O134 O 0.73075 0.39574 0.1664 0.0
O135 O 0.87841 0.39554 0.23815 0.0
O136 O 0.81445 0.42021 0.22315 0.0
C137 C 0.74746 0.37955 0.13411 0.0
C138 C 0.84643 0.41831 0.24869 0.0
O139 O 0.88877 0.3277 0.15586 0.0
Mg140 Mg 0.8914 0.60437 0.41645 0.0
O141 O 0.92652 0.55708 0.4507 0.0
O142 O 0.96971 0.52076 0.40951 0.0
Mg143 Mg 0.96388 0.54862 0.34476 0.0
C144 C 0.95265 0.52804 0.44475 0.0
C145 C 0.83789 0.65244 0.48919 0.0
O146 O 0.82601 0.67825 0.46014 0.0
O147 O 0.95452 0.64448 0.41481 0.0
O148 O 0.99098 0.60964 0.36668 0.0
O149 O 0.84178 0.55486 0.40181 0.0
O150 O 0.89944 0.56622 0.36446 0.0
C151 C 0.98711 0.64034 0.39079 0.0
C152 C 0.86686 0.54327 0.37231 0.0
O153 O 0.86607 0.62553 0.48074 0.0
Mg154 Mg 0.88084 0.6317 0.31853 0.0
O155 O 0.84346 0.66337 0.26764 0.0
O156 O 0.79585 0.61673 0.24436 0.0
Mg157 Mg 0.80076 0.55687 0.27791 0.0
C158 C 0.81293 0.65224 0.24364 0.0
C159 C 0.91601 0.71556 0.3688 0.0
O160 O 0.89226 0.70585 0.40093 0.0
O161 O 0.82093 0.64061 0.3614 0.0
O162 O 0.77833 0.59074 0.33662 0.0
O163 O 0.92811 0.60282 0.2725 0.0
O164 O 0.86631 0.57555 0.28881 0.0
C165 C 0.78611 0.61942 0.36264 0.0
C166 C 0.90052 0.57369 0.26711 0.0
O167 O 0.91488 0.69311 0.3363 0.0
Mg168 Mg 0.68669 0.37355 0.83589 0.0
O169 O 0.73214 0.34032 0.79614 0.0
O170 O 0.7839 0.3822 0.77297 0.0
Mg171 Mg 0.7736 0.44378 0.80377 0.0
C172 C 0.76567 0.34718 0.77498 0.0
C173 C 0.64354 0.29096 0.88229 0.0
O174 O 0.65822 0.30294 0.91858 0.0
O175 O 0.73794 0.36733 0.88751 0.0
O176 O 0.78814 0.41152 0.8662 0.0
O177 O 0.65111 0.39131 0.77837 0.0
O178 O 0.70498 0.42772 0.80312 0.0
C179 C 0.7744 0.38503 0.89222 0.0
C180 C 0.67764 0.42129 0.77343 0.0
O181 O 0.6518 0.31204 0.84995 0.0
Mg182 Mg 0.87383 0.89467 0.91799 0.0
O183 O 0.9171 0.9267 0.96391 0.0
O184 O 0.92241 0.88496 0.01927 0.0
Mg185 Mg 0.89196 0.82367 0.0057 0.0
C186 C 0.92955 0.91896 0.00092 0.0
C187 C 0.85237 0.96998 0.86084 0.0
O188 O 0.81866 0.9688 0.88513 0.0
O189 O 0.93224 0.85512 0.89556 0.0
O190 O 0.93871 0.81622 0.95216 0.0
O191 O 0.81843 0.91975 0.95529 0.0
O192 O 0.84878 0.86044 0.96814 0.0
C193 C 0.95146 0.82692 0.91617 0.0
C194 C 0.82193 0.88823 0.97922 0.0
O195 O 0.88296 0.94467 0.86726 0.0
Mg196 Mg 0.83288 0.12911 0.6402 0.0
O197 O 0.80154 0.18535 0.66821 0.0
O198 O 0.80984 0.23544 0.62072 0.0
Mg199 Mg 0.83268 0.21128 0.5603 0.0
C200 C 0.79949 0.22285 0.65681 0.0
C201 C 0.85113 0.07341 0.71392 0.0
O202 O 0.88824 0.0826 0.6972 0.0
O203 O 0.76964 0.11587 0.60268 0.0
O204 O 0.77456 0.17003 0.56066 0.0
O205 O 0.8937 0.15711 0.66389 0.0
O206 O 0.86655 0.17068 0.60213 0.0
C207 C 0.7541 0.13905 0.57418 0.0
C208 C 0.89275 0.18036 0.63157 0.0
O209 O 0.81704 0.08744 0.69683 0.0
Mg210 Mg 0.57751 0.1052 0.38478 0.0
O211 O 0.53502 0.08274 0.43605 0.0
O212 O 0.53817 0.12778 0.48901 0.0
Mg213 Mg 0.57177 0.18499 0.46703 0.0
C214 C 0.52603 0.0938 0.47305 0.0
C215 C 0.59371 0.02491 0.33587 0.0
O216 O 0.63039 0.03409 0.35377 0.0
O217 O 0.51893 0.14546 0.36276 0.0
O218 O 0.51993 0.18694 0.41792 0.0
O219 O 0.63166 0.07915 0.42348 0.0
O220 O 0.60838 0.14212 0.43051 0.0
C221 C 0.50256 0.17454 0.38431 0.0
C222 C 0.63145 0.11259 0.44471 0.0
O223 O 0.56182 0.04884 0.34177 0.0
Mg224 Mg 0.61798 0.82085 0.15814 0.0
O225 O 0.67299 0.77794 0.17656 0.0
O226 O 0.68189 0.73639 0.12133 0.0
Mg227 Mg 0.6396 0.75337 0.06801 0.0
C228 C 0.69201 0.74848 0.15783 0.0
C229 C 0.5896 0.88189 0.22724 0.0
O230 O 0.5529 0.86887 0.21182 0.0
O231 O 0.67137 0.85591 0.12222 0.0
O232 O 0.68157 0.80918 0.07261 0.0
O233 O 0.56842 0.77251 0.17787 0.0
O234 O 0.59856 0.77527 0.11667 0.0
C235 C 0.69176 0.84247 0.09067 0.0
C236 C 0.57415 0.75587 0.14187 0.0
O237 O 0.62429 0.86589 0.21383 0.0
Mg238 Mg 0.88822 0.09847 0.57288 0.0
O239 O 0.92237 0.06592 0.52292 0.0
O240 O 0.92386 0.10537 0.46581 0.0
Mg241 Mg 0.89616 0.1668 0.48156 0.0
C242 C 0.93207 0.07217 0.48514 0.0
C243 C 0.88524 0.01324 0.61343 0.0
O244 O 0.86433 0.00786 0.57833 0.0
O245 O 0.95207 0.13326 0.58433 0.0
O246 O 0.95265 0.17214 0.52712 0.0
O247 O 0.82704 0.07561 0.54468 0.0
O248 O 0.85791 0.13366 0.52648 0.0
C249 C 0.9701 0.15983 0.56088 0.0
C250 C 0.82934 0.10607 0.51925 0.0
O251 O 0.90387 0.04742 0.61991 0.0
Mg252 Mg 0.65312 0.11975 0.32661 0.0
O253 O 0.70168 0.15574 0.29273 0.0
O254 O 0.76545 0.12459 0.28944 0.0
Mg255 Mg 0.75258 0.05995 0.31371 0.0
C256 C 0.74124 0.15547 0.28371 0.0
C257 C 0.61308 0.2061 0.32437 0.0
O258 O 0.65138 0.21095 0.34074 0.0
O259 O 0.63945 0.08115 0.26863 0.0
O260 O 0.70107 0.04653 0.26372 0.0
O261 O 0.68403 0.14524 0.3828 0.0
O262 O 0.7039 0.08622 0.35552 0.0
C263 C 0.66331 0.05482 0.25051 0.0
C264 C 0.71004 0.11459 0.38278 0.0
O265 O 0.60234 0.17045 0.31162 0.0
Mg266 Mg 0.58797 0.86009 0.07299 0.0
O267 O 0.54704 0.90162 0.03819 0.0
O268 O 0.48714 0.92041 0.07068 0.0
Mg269 Mg 0.49122 0.88731 0.13286 0.0
C270 C 0.51222 0.92126 0.0395 0.0
C271 C 0.64563 0.84428 -0.00517 0.0
O272 O 0.6237 0.80992 -0.00373 0.0
O273 O 0.60929 0.91559 0.11268 0.0
O274 O 0.54854 0.92922 0.14685 0.0
O275 O 0.54911 0.80845 0.0476 0.0
O276 O 0.53398 0.8407 0.10614 0.0
C277 C 0.58774 0.9371 0.13847 0.0
C278 C 0.52339 0.81398 0.07853 0.0
O279 O 0.63876 0.87164 0.02217 0.0
Mg280 Mg 0.85198 0.85368 0.83423 0.0
O281 O 0.7983 0.82207 0.80088 0.0
O282 O 0.73719 0.8585 0.80217 0.0
Mg283 Mg 0.75705 0.92089 0.82555 0.0
C284 C 0.75812 0.82591 0.79463 0.0
C285 C 0.88565 0.76514 0.82532 0.0
O286 O 0.84792 0.76124 0.84276 0.0
O287 O 0.86676 0.89195 0.7761 0.0
O288 O 0.80531 0.92687 0.7719 0.0
O289 O 0.82267 0.82749 0.89076 0.0
O290 O 0.80267 0.88695 0.86459 0.0
C291 C 0.84197 0.91706 0.75738 0.0
C292 C 0.79505 0.85689 0.88956 0.0
O293 O 0.89833 0.80104 0.81542 0.0
Mg294 Mg 0.37732 0.57578 0.07533 0.0
O295 O 0.41266 0.54051 0.02658 0.0
O296 O 0.42115 0.58306 0.97229 0.0
Mg297 Mg 0.40355 0.64706 0.98977 0.0
C298 C 0.42336 0.54777 0.98908 0.0
C299 C 0.34129 0.51168 0.13216 0.0
O300 O 0.30948 0.53122 0.11419 0.0
O301 O 0.44158 0.60476 0.09793 0.0
O302 O 0.45294 0.64409 0.04244 0.0
O303 O 0.31869 0.56035 0.03801 0.0
O304 O 0.3567 0.61631 0.02804 0.0
C305 C 0.46484 0.63019 0.07772 0.0
C306 C 0.32658 0.59227 0.01572 0.0
O307 O 0.37946 0.52209 0.12258 0.0
Mg308 Mg 0.13703 0.64388 0.84602 0.0
O309 O 0.18278 0.67653 0.8053 0.0
O310 O 0.24066 0.63784 0.79371 0.0
Mg311 Mg 0.22607 0.57447 0.81801 0.0
C312 C 0.2203 0.67155 0.7909 0.0
C313 C 0.09679 0.73092 0.86074 0.0
O314 O 0.13352 0.73418 0.88064 0.0
O315 O 0.10986 0.60862 0.78972 0.0
O316 O 0.16748 0.57046 0.77555 0.0
O317 O 0.17976 0.66316 0.89852 0.0
O318 O 0.18713 0.60467 0.86491 0.0
C319 C 0.12931 0.58213 0.76737 0.0
C320 C 0.2015 0.63016 0.89204 0.0
O321 O 0.089 0.69812 0.84051 0.0
Mg322 Mg 0.06188 0.37269 0.61533 0.0
O323 O 0.01467 0.40572 0.57831 0.0
O324 O 0.95231 0.41549 0.61078 0.0
Mg325 Mg 0.96368 0.39017 0.67592 0.0
C326 C 0.97639 0.41843 0.57897 0.0
C327 C 0.11013 0.36738 0.53052 0.0
O328 O 0.0787 0.34109 0.52483 0.0
O329 O 0.07499 0.43236 0.64971 0.0
O330 O 0.01388 0.4416 0.68467 0.0
O331 O 0.02964 0.31787 0.59149 0.0
O332 O 0.0115 0.34686 0.65105 0.0
C333 C 0.05128 0.4536 0.67378 0.0
C334 C 0.00461 0.31916 0.62323 0.0
O335 O 0.1124 0.38699 0.56473 0.0
Mg336 Mg 0.15253 0.33204 0.62545 0.0
O337 O 0.19479 0.28286 0.65292 0.0
O338 O 0.19868 0.23249 0.60539 0.0
Mg339 Mg 0.17095 0.25338 0.54437 0.0
C340 C 0.20625 0.24709 0.64152 0.0
C341 C 0.12869 0.37725 0.70757 0.0
O342 O 0.09529 0.35362 0.70061 0.0
O343 O 0.21232 0.3577 0.59072 0.0
O344 O 0.21979 0.30464 0.5475 0.0
O345 O 0.09728 0.29178 0.64432 0.0
O346 O 0.1283 0.28809 0.58324 0.0
C347 C 0.23305 0.3385 0.56251 0.0
C348 C 0.10164 0.27292 0.60936 0.0
O349 O 0.16059 0.37505 0.68281 0.0
Mg350 Mg 0.34185 0.63635 0.1238 0.0
O351 O 0.30695 0.68938 0.1513 0.0
O352 O 0.30664 0.7399 0.10361 0.0
Mg353 Mg 0.32831 0.71581 0.04246 0.0
C354 C 0.29916 0.72601 0.13991 0.0
C355 C 0.36996 0.58454 0.19768 0.0
O356 O 0.40513 0.59587 0.17855 0.0
O357 O 0.27693 0.61756 0.09295 0.0
O358 O 0.27314 0.6707 0.04944 0.0
O359 O 0.40092 0.67068 0.14124 0.0
O360 O 0.36878 0.67784 0.0806 0.0
C361 C 0.25658 0.63888 0.06585 0.0
C362 C 0.39698 0.69052 0.10681 0.0
O363 O 0.33388 0.59627 0.18285 0.0
Mg364 Mg 0.62738 0.58685 0.58327 0.0
O365 O 0.58742 0.53578 0.55564 0.0
O366 O 0.54618 0.51039 0.60659 0.0
Mg367 Mg 0.55853 0.54438 0.66673 0.0
C368 C 0.55933 0.51068 0.56907 0.0
C369 C 0.66843 0.63509 0.50152 0.0
O370 O 0.66515 0.66972 0.52188 0.0
O371 O 0.56555 0.62888 0.58235 0.0
O372 O 0.53138 0.6025 0.63731 0.0
O373 O 0.67805 0.54035 0.60452 0.0
O374 O 0.62119 0.557 0.64053 0.0
C375 C 0.53428 0.62913 0.60842 0.0
C376 C 0.65428 0.53407 0.63662 0.0
O377 O 0.65327 0.60237 0.51745 0.0
Mg378 Mg 0.94131 0.37244 0.11164 0.0
O379 O 0.97659 0.42151 0.07899 0.0
O380 O 0.02137 0.45448 0.12207 0.0
Mg381 Mg 0.02179 0.41801 0.18224 0.0
C382 C 0.00297 0.45013 0.08682 0.0
C383 C 0.87252 0.35481 0.04189 0.0
O384 O 0.84801 0.35828 0.0746 0.0
O385 O 1e-05 0.32892 0.10466 0.0
O386 O 0.04496 0.36039 0.1484 0.0
O387 O 0.89647 0.4218 0.13316 0.0
O388 O 0.95388 0.40424 0.16894 0.0
C389 C 0.03666 0.33157 0.12276 0.0
C390 C 0.92259 0.42956 0.16349 0.0
O391 O 0.9131 0.35647 0.04665 0.0
Mg392 Mg 0.63213 0.62868 0.67603 0.0
O393 O 0.66083 0.67084 0.72122 0.0
O394 O 0.71799 0.64291 0.75222 0.0
Mg395 Mg 0.72416 0.57797 0.72726 0.0
C396 C 0.69204 0.67259 0.74644 0.0
C397 C 0.598 0.70946 0.62245 0.0
O398 O 0.62759 0.70263 0.59447 0.0
O399 O 0.68983 0.64103 0.63221 0.0
O400 O 0.74208 0.60499 0.66299 0.0
O401 O 0.58986 0.60085 0.72618 0.0
O402 O 0.65538 0.58017 0.71324 0.0
C403 C 0.72835 0.62729 0.63307 0.0
C404 C 0.62158 0.57715 0.73569 0.0
O405 O 0.59401 0.68525 0.6533 0.0
Mg406 Mg 0.40731 0.38898 0.38165 0.0
O407 O 0.45823 0.4115 0.42751 0.0
O408 O 0.46386 0.36262 0.47646 0.0
Mg409 Mg 0.42447 0.30723 0.45924 0.0
C410 C 0.47376 0.39765 0.46161 0.0
C411 C 0.38374 0.46723 0.33259 0.0
O412 O 0.35026 0.46057 0.35626 0.0
O413 O 0.4603 0.34814 0.35072 0.0
O414 O 0.46761 0.30336 0.40276 0.0
O415 O 0.3576 0.4145 0.42533 0.0
O416 O 0.38311 0.35208 0.42987 0.0
C417 C 0.47871 0.31707 0.36733 0.0
C418 C 0.36042 0.38082 0.446 0.0
O419 O 0.41602 0.44332 0.33588 0.0
Mg420 Mg 0.0862 0.58048 0.88179 0.0
O421 O 0.03781 0.55867 0.92925 0.0
O422 O 0.03195 0.60949 0.97605 0.0
Mg423 Mg 0.06532 0.66636 0.95373 0.0
C424 C 0.02431 0.57299 0.96381 0.0
C425 C 0.11535 0.50562 0.83195 0.0
O426 O 0.15043 0.52047 0.84907 0.0
O427 O 0.03213 0.61699 0.84799 0.0
O428 O 0.02235 0.66521 0.8964 0.0
O429 O 0.13622 0.55925 0.92726 0.0
O430 O 0.1085 0.62118 0.92768 0.0
C431 C 0.01253 0.64855 0.86183 0.0
C432 C 0.13181 0.59396 0.94595 0.0
O433 O 0.0796 0.52307 0.83975 0.0
Mg434 Mg 0.31137 0.36414 0.36198 0.0
O435 O 0.26743 0.32177 0.33143 0.0
O436 O 0.20139 0.34417 0.31801 0.0
Mg437 Mg 0.20637 0.41115 0.3395 0.0
C438 C 0.22969 0.31609 0.31821 0.0
C439 C 0.35708 0.27992 0.36606 0.0
O440 O 0.32255 0.27481 0.3887 0.0
O441 O 0.32321 0.39596 0.29892 0.0
O442 O 0.25774 0.42213 0.28961 0.0
O443 O 0.28062 0.34284 0.42048 0.0
O444 O 0.25685 0.39654 0.38593 0.0
C445 C 0.2962 0.41636 0.27722 0.0
C446 C 0.25228 0.37124 0.41627 0.0
O447 O 0.36387 0.31493 0.34974 0.0
C448 C 0.98358 0.01815 0.02897 0.0
C449 C 0.98137 0.01675 0.07251 0.0
H450 H 0.96904 0.98763 0.97183 0.0
C451 C 0.96158 0.98341 0.09213 0.0
H452 H -0.00118 0.0436 0.01321 0.0
C453 C 0.94555 0.95122 0.06866 0.0
C454 C 0.94848 0.95216 0.02519 0.0
H455 H 0.95987 0.98136 0.12569 0.0
H456 H 0.93063 0.92573 0.08464 0.0
C457 C 0.96692 0.98612 0.0054 0.0
C458 C 0.28861 0.79602 0.16542 0.0
C459 C 0.28165 0.75393 0.17014 0.0
H460 H 0.27549 0.85561 0.1884 0.0
C461 C 0.25759 0.7389 0.20348 0.0
H462 H 0.30777 0.80805 0.14016 0.0
C463 C 0.23908 0.76607 0.23105 0.0
C464 C 0.245 0.80827 0.22558 0.0
H465 H 0.25213 0.70638 0.20757 0.0
H466 H 0.21975 0.7541 0.25621 0.0
C467 C 0.27052 0.8231 0.19316 0.0
C468 C 0.47232 -0.00261 0.50786 0.0
C469 C 0.47933 -0.00054 0.55089 0.0
H470 H 0.48095 0.02654 0.44926 0.0
C471 C 0.49892 0.03413 0.56842 0.0
H472 H 0.45685 0.97107 0.4937 0.0
C473 C 0.51207 0.06608 0.54312 0.0
C474 C 0.5062 0.06347 0.49997 0.0
H475 H 0.50393 0.03675 0.60166 0.0
H476 H 0.52813 0.09208 0.55726 0.0
C477 C 0.48578 0.02918 0.48253 0.0
C478 C 0.2559 0.20831 0.74046 0.0
C479 C 0.24956 0.16604 0.73564 0.0
H480 H 0.24703 0.26767 0.71378 0.0
C481 C 0.23078 0.15071 0.69915 0.0
H482 H 0.27066 0.22064 0.76836 0.0
C483 C 0.21833 0.17724 0.66786 0.0
C484 C 0.22382 0.21957 0.67285 0.0
H485 H 0.22626 0.11813 0.69443 0.0
H486 H 0.20337 0.16454 0.64023 0.0
C487 C 0.24268 0.23504 0.70931 0.0
C488 C 0.99087 0.01672 0.40215 0.0
C489 C 0.01436 0.98847 0.42593 0.0
H490 H 0.94556 0.06528 0.40252 0.0
C491 C 0.00835 0.98587 0.46887 0.0
H492 H 0.99496 0.01918 0.36882 0.0
C493 C 0.97979 0.01209 0.48805 0.0
C494 C 0.95751 0.04135 0.4644 0.0
H495 H 0.0258 0.96387 0.48759 0.0
H496 H 0.97635 0.01033 0.52149 0.0
C497 C 0.96263 0.04308 0.42131 0.0
C498 C 0.24489 0.78191 0.77034 0.0
C499 C 0.28802 0.77985 0.75855 0.0
H500 H 0.18913 0.74903 0.78819 0.0
C501 C 0.3087 0.74173 0.75656 0.0
H502 H 0.22798 0.81082 0.77163 0.0
C503 C 0.28628 0.70609 0.76562 0.0
C504 C 0.24294 0.70815 0.77684 0.0
H505 H 0.34199 0.73931 0.74733 0.0
H506 H 0.30302 0.67711 0.76419 0.0
C507 C 0.22246 0.74636 0.77915 0.0
C508 C 0.52634 0.9728 0.93739 0.0
C509 C 0.51127 0.01207 0.94651 0.0
H510 H 0.53602 0.91212 0.95976 0.0
C511 C 0.49408 0.02049 0.98598 0.0
H512 H 0.53884 0.96528 0.90698 0.0
C513 C 0.49108 0.9898 0.01559 0.0
C514 C 0.50601 0.95062 0.00631 0.0
H515 H 0.48207 0.05063 -0.00628 0.0
H516 H 0.47872 -0.00288 0.04612 0.0
C517 C 0.52364 0.94223 0.96712 0.0
C518 C 0.2043 0.27309 0.26013 0.0
C519 C 0.22185 0.27607 0.29997 0.0
H520 H 0.19723 0.23599 0.20617 0.0
C521 C 0.24256 0.24215 0.31791 0.0
H522 H 0.18884 0.29914 0.2456 0.0
C523 C 0.24898 0.20674 0.29497 0.0
C524 C 0.23389 0.20453 0.25406 0.0
H525 H 0.25597 0.24395 0.34896 0.0
H526 H 0.26594 0.18137 0.30913 0.0
C527 C 0.2102 0.2374 0.23734 0.0
C528 C 0.45391 0.47838 0.98251 0.0
C529 C 0.43835 0.51404 0.96367 0.0
H530 H 0.48786 0.42256 0.9737 0.0
C531 C 0.4386 0.51794 0.92023 0.0
H532 H 0.4532 0.47441 0.01593 0.0
C533 C 0.45792 0.48817 0.89612 0.0
C534 C 0.47741 0.45463 0.91544 0.0
H535 H 0.42553 0.54475 0.90497 0.0
H536 H 0.46044 0.49304 0.86291 0.0
C537 C 0.47352 0.44878 0.95843 0.0
C538 C 0.79142 0.24393 0.22854 0.0
C539 C 0.77715 0.27628 0.25399 0.0
H540 H 0.79098 0.17893 0.21816 0.0
C541 C 0.75693 0.26779 0.2916 0.0
H542 H 0.80752 0.24998 0.19941 0.0
C543 C 0.74889 0.22751 0.30258 0.0
C544 C 0.75974 0.19544 0.27554 0.0
H545 H 0.74675 0.2922 0.31209 0.0
H546 H 0.7326 0.22139 0.33158 0.0
C547 C 0.78245 0.20346 0.2392 0.0
C548 C 0.93917 0.47763 0.54867 0.0
C549 C 0.96311 0.44205 0.54306 0.0
H550 H 0.91867 0.53384 0.52224 0.0
C551 C 0.98229 0.43383 0.50453 0.0
H552 H 0.92477 0.48472 0.57839 0.0
C553 C 0.97964 0.46212 0.47254 0.0
C554 C 0.95761 0.49885 0.47873 0.0
H555 H 0.00102 0.40631 0.4998 0.0
H556 H 0.99515 0.45536 0.44328 0.0
C557 C 0.93662 0.50602 0.51676 0.0
C558 C 0.77754 0.6707 0.17851 0.0
C559 C 0.79168 0.68246 0.21797 0.0
H560 H 0.73469 0.68232 0.12862 0.0
C561 C 0.7767 0.71871 0.23608 0.0
H562 H 0.78882 0.64262 0.16436 0.0
C563 C 0.74472 0.74121 0.21616 0.0
C564 C 0.72809 0.72764 0.17793 0.0
H565 H 0.78709 0.72775 0.26695 0.0
H566 H 0.73196 0.7681 0.23137 0.0
C567 C 0.74615 0.69322 0.15849 0.0
C568 C 0.77195 0.24396 0.72562 0.0
C569 C 0.79179 0.25402 0.68809 0.0
H570 H 0.74902 0.26611 0.78365 0.0
C571 C 0.80744 0.2939 0.68149 0.0
H572 H 0.76049 0.21319 0.73163 0.0
C573 C 0.80163 0.32386 0.71129 0.0
C574 C 0.7797 0.31438 0.74783 0.0
H575 H 0.82418 0.30213 0.65325 0.0
H576 H 0.81251 0.35474 0.70482 0.0
C577 C 0.76581 0.27408 0.75535 0.0
C578 C 0.74576 0.75346 0.80951 0.0
C579 C 0.73479 0.78841 0.78649 0.0
H580 H 0.74052 0.68854 0.81475 0.0
C581 C 0.7038 0.78622 0.7552 0.0
H582 H 0.76782 0.75535 0.83549 0.0
C583 C 0.68716 0.74822 0.74412 0.0
C584 C 0.70182 0.7125 0.76425 0.0
H585 H 0.69449 0.81325 0.73788 0.0
H586 H 0.66515 0.74664 0.71798 0.0
C587 C 0.72975 0.71552 0.79816 0.0
C588 C 0.50643 0.41525 0.52964 0.0
C589 C 0.5005 0.42463 0.48741 0.0
H590 H 0.52951 0.43557 0.58863 0.0
C591 C 0.5171 0.46138 0.47144 0.0
H592 H 0.49411 0.38713 0.54292 0.0
C593 C 0.5378 0.48905 0.49779 0.0
C594 C 0.54139 0.48046 0.54039 0.0
H595 H 0.51315 0.46921 0.43894 0.0
H596 H 0.54943 0.51774 0.4852 0.0
C597 C 0.52639 0.44308 0.55595 0.0
C598 C 0.00028 0.50326 0.98357 0.0
C599 C 0.01046 0.5435 -0.00479 0.0
H600 H 0.99112 0.44166 0.00376 0.0
C601 C 0.01654 0.55303 0.03748 0.0
H602 H 0.99558 0.49509 0.95122 0.0
C603 C 0.01539 0.52234 0.06726 0.0
C604 C 0.0072 0.48189 0.05533 0.0
H605 H 0.02472 0.58376 0.04748 0.0
H606 H 0.0208 0.5303 0.09956 0.0
C607 C -0.00153 0.47267 0.01348 0.0
C608 C 0.15036 0.98621 0.17635 0.0
C609 C 0.1107 0.00645 0.17353 0.0
H610 H 0.18659 0.9382 0.20543 0.0
C611 C 0.07508 0.98969 0.19414 0.0
H612 H 0.17824 -0.00185 0.16038 0.0
C613 C 0.07945 0.95419 0.21829 0.0
C614 C 0.1198 0.93571 0.22335 0.0
H615 H 0.04397 0.00413 0.19193 0.0
H616 H 0.05176 0.94247 0.23471 0.0
C617 C 0.15513 0.95184 0.20193 0.0
C618 C 0.31392 0.89265 0.45116 0.0
C619 C 0.31646 0.8549 0.47194 0.0
H620 H 0.28353 0.92803 0.40366 0.0
C621 C 0.28997 0.82251 0.45831 0.0
H622 H 0.33355 0.91839 0.46085 0.0
C623 C 0.26105 0.82809 0.4252 0.0
C624 C 0.25774 0.86627 0.40533 0.0
H625 H 0.2911 0.79301 0.47362 0.0
H626 H 0.24128 0.80256 0.41522 0.0
C627 C 0.28496 0.89825 0.41841 0.0
C628 C 0.39307 0.03237 0.71575 0.0
C629 C 0.35319 0.03878 0.73471 0.0
H630 H 0.42873 -0.00129 0.67099 0.0
C631 C 0.31678 0.01873 0.71851 0.0
H632 H 0.42163 0.04782 0.7271 0.0
C633 C 0.32072 -0.00841 0.68487 0.0
C634 C 0.36135 0.98259 0.66855 0.0
H635 H 0.28545 0.02384 0.73181 0.0
H636 H 0.29242 0.97599 0.6732 0.0
C637 C 0.39721 0.00407 0.68362 0.0
C638 C 0.1839 0.09983 0.92402 0.0
C639 C 0.2269 0.11365 0.9238 0.0
H640 H 0.12587 0.09238 0.95909 0.0
C641 C 0.24243 0.13501 0.95861 0.0
H642 H 0.17052 0.0838 0.89747 0.0
C643 C 0.2168 0.13958 -0.00606 0.0
C644 C 0.17479 0.12375 -0.0051 0.0
H645 H 0.27488 0.14679 0.95913 0.0
H646 H 0.23018 0.15449 0.02111 0.0
C647 C 0.15801 0.10511 0.9591 0.0
C648 C 0.20703 0.03198 0.28708 0.0
C649 C 0.1719 0.04635 0.26366 0.0
H650 H 0.22823 -0.00587 0.33798 0.0
C651 C 0.13034 0.03515 0.27614 0.0
H652 H 0.23943 0.04064 0.27886 0.0
C653 C 0.12416 0.00716 0.30845 0.0
C654 C 0.15923 -0.00897 0.33049 0.0
H655 H 0.10247 0.04636 0.25949 0.0
H656 H 0.09178 -0.00226 0.3157 0.0
C657 C 0.2006 0.00558 0.32109 0.0
C658 C 0.25123 0.82588 0.57323 0.0
C659 C 0.25762 0.86275 0.59489 0.0
H660 H 0.21821 0.79492 0.52362 0.0
C661 C 0.23241 0.8968 0.58369 0.0
H662 H 0.2692 0.79879 0.58175 0.0
C663 C 0.20277 0.89454 0.55083 0.0
C664 C 0.1973 0.85807 0.5282 0.0
H665 H 0.23618 0.92567 0.59991 0.0
H666 H 0.18497 0.92178 0.54248 0.0
C667 C 0.22157 0.8236 0.54022 0.0
C668 C 0.37854 0.9793 0.8177 0.0
C669 C 0.41682 0.00236 0.81704 0.0
H670 H 0.34293 0.92893 0.79189 0.0
C671 C 0.45145 0.9873 0.7937 0.0
H672 H 0.35139 0.98939 0.83586 0.0
C673 C 0.44714 0.95138 0.77002 0.0
C674 C 0.40767 0.93055 0.76801 0.0
H675 H 0.48163 0.00356 0.7929 0.0
H676 H 0.47397 0.94132 0.7514 0.0
C677 C 0.37365 0.9445 0.79262 0.0
C678 C 0.34227 0.13994 0.01827 0.0
C679 C 0.36676 0.1046 0.01056 0.0
H680 H 0.29664 0.16943 0.05858 0.0
C681 C 0.36693 0.07336 0.04062 0.0
H682 H 0.34182 0.16475 -0.00402 0.0
C683 C 0.34201 0.0764 0.07648 0.0
C684 C 0.31535 0.11036 0.08306 0.0
H685 H 0.3858 0.04592 0.03608 0.0
H686 H 0.34227 0.05114 0.09831 0.0
C687 C 0.31624 0.14251 0.05392 0.0
C688 C 0.92001 0.23527 0.10065 0.0
C689 C 0.91901 0.26448 0.13278 0.0
H690 H 0.95093 0.18178 0.07582 0.0
C691 C 0.95109 0.2631 0.1637 0.0
H692 H 0.89582 0.23558 0.07637 0.0
C693 C 0.98188 0.23189 0.16384 0.0
C694 C 0.98218 0.20216 0.13235 0.0
H695 H 0.95121 0.28503 0.18896 0.0
H696 H 0.0049 0.2304 0.18914 0.0
C697 C 0.95166 0.20469 0.10017 0.0
C698 C 0.47724 0.26333 0.83413 0.0
C699 C 0.4937 0.28274 0.86983 0.0
H700 H 0.43099 0.22194 0.80842 0.0
C701 C 0.47513 0.27363 0.90851 0.0
H702 H 0.49072 0.26974 0.80384 0.0
C703 C 0.44 0.24658 0.9111 0.0
C704 C 0.42309 0.22783 0.87509 0.0
H705 H 0.48672 0.28852 0.93649 0.0
H706 H 0.42615 0.24034 0.94124 0.0
C707 C 0.44269 0.23612 0.83674 0.0
C708 C 0.03661 0.68155 0.34664 0.0
C709 C 0.02001 0.67318 0.38642 0.0
H710 H 0.07826 0.71856 0.30941 0.0
C711 C 0.03605 0.69547 0.42044 0.0
H712 H 0.0249 0.66497 0.31969 0.0
C713 C 0.0678 0.72569 0.41458 0.0
C714 C 0.08317 0.73497 0.37443 0.0
H715 H 0.02416 0.68953 0.45143 0.0
H716 H 0.07902 0.74292 0.44127 0.0
C717 C 0.06734 0.71224 0.34067 0.0
C718 C 0.06312 0.26396 0.09321 0.0
C719 C 0.07051 0.29986 0.11644 0.0
H720 H 0.08793 0.20538 0.07416 0.0
C721 C 0.11082 0.30474 0.13596 0.0
H722 H 0.03303 0.25954 0.07682 0.0
C723 C 0.14155 0.27373 0.13477 0.0
C724 C 0.13288 0.23659 0.11448 0.0
H725 H 0.11841 0.33219 0.15343 0.0
H726 H 0.17145 0.2783 0.15143 0.0
C727 C 0.09416 0.23269 0.09218 0.0
C728 C 0.55797 0.76247 0.58006 0.0
C729 C 0.56906 0.74533 0.61885 0.0
H730 H 0.5199 0.8074 0.54744 0.0
C731 C 0.55128 0.76214 0.65495 0.0
H732 H 0.5711 0.74997 0.55167 0.0
C733 C 0.52307 0.79509 0.65255 0.0
C734 C 0.51089 0.81168 0.61393 0.0
H735 H 0.55925 0.74983 0.68527 0.0
H736 H 0.50998 0.80714 0.68118 0.0
C737 C 0.52851 0.79503 0.57755 0.0
C738 C 0.96064 0.76666 0.41009 0.0
C739 C 0.9479 0.74967 0.37158 0.0
H740 H 0.00233 0.80928 0.44212 0.0
C741 C 0.9679 0.76398 0.33538 0.0
H742 H 0.94616 0.75608 0.43868 0.0
C743 C -0.00038 0.79422 0.33742 0.0
C744 C 0.01303 0.81085 0.37575 0.0
H745 H 0.95919 0.75166 0.30524 0.0
H746 H 0.01412 0.80433 0.30864 0.0
C747 C 0.99316 0.79675 0.4122 0.0
C748 C 0.57494 0.20588 0.83612 0.0
C749 C 0.55204 0.19162 0.87079 0.0
H750 H 0.62128 0.2483 0.81247 0.0
C751 C 0.56051 0.20925 0.90982 0.0
H752 H 0.56922 0.19277 0.80566 0.0
C753 C 0.59143 0.24047 0.91399 0.0
C754 C 0.61368 0.25534 0.87902 0.0
H755 H 0.54366 0.19857 0.93712 0.0
H756 H 0.59703 0.25373 0.94439 0.0
C757 C 0.60493 0.23762 0.84007 0.0
C758 C 0.88961 0.03188 0.76787 0.0
C759 C 0.85071 0.04774 0.75214 0.0
H760 H 0.92068 -0.00547 0.81377 0.0
C761 C 0.81264 0.03908 0.77355 0.0
H762 H 0.91974 0.03804 0.75241 0.0
C763 C 0.81349 0.01482 0.80954 0.0
C764 C 0.85229 -0.00205 0.82441 0.0
H765 H 0.78223 0.05097 0.76254 0.0
H766 H 0.78347 0.00835 0.82509 0.0
C767 C 0.89033 0.00691 0.80319 0.0
C768 C 0.67847 0.08352 0.50166 0.0
C769 C 0.65701 0.11708 0.48353 0.0
H770 H 0.7259 0.06376 0.54621 0.0
C771 C 0.66213 0.15586 0.50158 0.0
H772 H 0.67496 0.05314 0.48859 0.0
C773 C 0.69022 0.1616 0.53488 0.0
C774 C 0.7145 0.1289 0.55079 0.0
H775 H 0.64655 0.18246 0.48848 0.0
H776 H 0.69549 0.1925 0.54616 0.0
C777 C 0.70705 0.08938 0.53514 0.0
C778 C 0.55224 0.93955 0.26474 0.0
C779 C 0.59013 0.91741 0.25648 0.0
H780 H 0.52337 -0.00908 0.2957 0.0
C781 C 0.62855 0.93075 0.27499 0.0
H782 H 0.52203 0.93043 0.25072 0.0
C783 C 0.62915 0.9652 0.30093 0.0
C784 C 0.59147 0.98776 0.30881 0.0
H785 H 0.65833 0.91477 0.26921 0.0
H786 H 0.65961 0.97448 0.31434 0.0
C787 C 0.55293 0.9744 0.29044 0.0
C788 C 0.76093 0.91052 0.02526 0.0
C789 C 0.79416 0.88273 0.01612 0.0
H790 H 0.70162 0.92008 0.05797 0.0
C791 C 0.79771 0.84698 0.03997 0.0
H792 H 0.75752 0.93856 0.00763 0.0
C793 C 0.7666 0.83712 0.06914 0.0
C794 C 0.73076 0.86237 0.0748 0.0
H795 H 0.8226 0.82484 0.03415 0.0
H796 H 0.76836 0.80758 0.08441 0.0
C797 C 0.7292 0.9003 0.05442 0.0
C798 C 0.90851 0.97461 0.67761 0.0
C799 C 0.87678 0.98495 0.64828 0.0
H800 H 0.92278 0.94306 0.73477 0.0
C801 C 0.83492 0.9699 0.65352 0.0
H802 H 0.94099 0.98599 0.67425 0.0
C803 C 0.8243 0.94678 0.68838 0.0
C804 C 0.85555 0.93701 0.71829 0.0
H805 H 0.80974 0.97762 0.63156 0.0
H806 H 0.79126 0.93713 0.69233 0.0
C807 C 0.89815 0.94993 0.71197 0.0
C808 C 0.78579 0.07197 0.46365 0.0
C809 C 0.80177 0.10801 0.48195 0.0
H810 H 0.74494 0.04583 0.4167 0.0
C811 C 0.79035 0.14601 0.46493 0.0
H812 H 0.79447 0.04227 0.47601 0.0
C813 C 0.76133 0.14805 0.43179 0.0
C814 C 0.74448 0.11207 0.41416 0.0
H815 H 0.80248 0.17423 0.47829 0.0
H816 H 0.75155 0.17781 0.42037 0.0
C817 C 0.75781 0.07397 0.42958 0.0
C818 C 0.65302 0.97187 0.16833 0.0
C819 C 0.60849 0.97108 0.16162 0.0
H820 H 0.70541 -0.00085 0.2016 0.0
C821 C 0.58299 0.00125 0.18051 0.0
H822 H 0.6735 0.94904 0.15426 0.0
C823 C 0.60117 0.03013 0.20739 0.0
C824 C 0.6453 0.02932 0.21637 0.0
H825 H 0.54855 0.0017 0.17571 0.0
H826 H 0.5802 0.05168 0.22277 0.0
C827 C 0.67122 0.00059 0.19557 0.0
C828 C 0.69355 0.88568 0.94805 0.0
C829 C 0.68223 0.84796 0.96599 0.0
H830 H 0.73766 0.91805 0.90869 0.0
C831 C 0.70693 0.81326 0.95702 0.0
H832 H 0.6749 0.91286 0.95449 0.0
C833 C 0.74309 0.81634 0.93178 0.0
C834 C 0.75498 0.85404 0.91415 0.0
H835 H 0.69904 0.78384 0.97056 0.0
H836 H 0.76197 0.78907 0.92635 0.0
C837 C 0.72928 0.88857 0.92177 0.0
C838 C 0.01708 0.78505 0.92871 0.0
C839 C 0.99047 0.80576 0.90014 0.0
H840 H 0.07123 0.74616 0.9384 0.0
C841 C 0.00106 0.804 0.85768 0.0
H842 H 0.01076 0.78616 0.96176 0.0
C843 C 0.03598 0.78001 0.84418 0.0
C844 C 0.06118 0.75827 0.87306 0.0
H845 H 0.98172 0.81999 0.8349 0.0
H846 H 0.04299 0.77813 0.81131 0.0
C847 C 0.05201 0.76208 0.9154 0.0
C848 C 0.53036 0.67269 0.0718 0.0
C849 C 0.50142 0.65203 0.09771 0.0
H850 H 0.5736 0.7221 0.06461 0.0
C851 C 0.50189 0.66117 0.14051 0.0
H852 H 0.53106 0.66641 0.03873 0.0
C853 C 0.52725 0.69368 0.15587 0.0
C854 C 0.55279 0.71706 0.12871 0.0
H855 H 0.4801 0.64572 0.16142 0.0
H856 H 0.5249 0.70197 0.18836 0.0
C857 C 0.5552 0.70489 0.0869 0.0
C858 C 0.94929 0.27458 0.59123 0.0
C859 C 0.97017 0.2888 0.62712 0.0
H860 H 0.90763 0.22976 0.56466 0.0
C861 C 0.9623 0.26972 0.66534 0.0
H862 H 0.95495 0.28898 0.56142 0.0
C863 C 0.93635 0.23476 0.66698 0.0
C864 C 0.9173 0.21908 0.63056 0.0
H865 H 0.97839 0.28014 0.69334 0.0
H866 H 0.93224 0.21939 0.69652 0.0
C867 C 0.92236 0.24054 0.59311 0.0
C868 C 0.93578 0.66476 0.85693 0.0
C869 C 0.97662 0.66762 0.83916 0.0
H870 H 0.87495 0.69299 0.86602 0.0
C871 C 0.98467 0.69896 0.81029 0.0
H872 H 0.92898 0.64127 0.87978 0.0
C873 C 0.95397 0.72967 0.80311 0.0
C874 C 0.9148 0.72917 0.82461 0.0
H875 H 0.01606 0.70194 0.79632 0.0
H876 H 0.96203 0.75511 0.78302 0.0
C877 C 0.90505 0.69492 0.84944 0.0
C878 C 0.39834 0.22752 0.40461 0.0
C879 C 0.39053 0.24779 0.36699 0.0
H880 H 0.43979 0.18819 0.439 0.0
C881 C 0.41531 0.23742 0.33204 0.0
H882 H 0.37938 0.23424 0.4319 0.0
C883 C 0.44931 0.20913 0.33573 0.0
C884 C 0.46011 0.19291 0.3748 0.0
H885 H 0.40905 0.25182 0.30233 0.0
H886 H 0.46886 0.20236 0.30892 0.0
C887 C 0.43291 0.20091 0.40858 0.0
C888 C 0.01989 0.1869 0.61642 0.0
C889 C 0.01 0.181 0.57418 0.0
H890 H 0.05641 0.22167 0.661 0.0
C891 C 0.03526 0.20079 0.54413 0.0
H892 H 0.00119 0.17185 0.64027 0.0
C893 C 0.06725 0.22843 0.55589 0.0
C894 C 0.07427 0.2375 0.598 0.0
H895 H 0.02887 0.19647 0.51129 0.0
H896 H 0.08442 0.24474 0.5318 0.0
C897 C 0.05139 0.21546 0.62827 0.0
C898 C 0.43594 0.73645 0.05767 0.0
C899 C 0.42348 0.72687 0.0984 0.0
H900 H 0.47884 0.77114 0.01936 0.0
C901 C 0.43915 0.75053 0.13153 0.0
H902 H 0.42344 0.71925 0.0315 0.0
C903 C 0.46916 0.78144 0.12439 0.0
C904 C 0.48519 0.78802 0.08422 0.0
H905 H 0.42934 0.74419 0.16314 0.0
H906 H 0.48206 0.79807 0.15079 0.0
C907 C 0.46741 0.7662 0.0507 0.0
C908 C 0.63492 0.44947 0.71432 0.0
C909 C 0.67426 0.44769 0.73586 0.0
H910 H 0.59798 0.478 0.6663 0.0
C911 C 0.70871 0.47167 0.72144 0.0
H912 H 0.60771 0.43135 0.72438 0.0
C913 C 0.70335 0.4976 0.68685 0.0
C914 C 0.66305 0.5012 0.6673 0.0
H915 H 0.73955 0.47067 0.73698 0.0
H916 H 0.73002 0.51642 0.67679 0.0
C917 C 0.62922 0.47631 0.68098 0.0
C918 C 0.8166 0.33332 0.99028 0.0
C919 C 0.85235 0.35774 0.00029 0.0
H920 H 0.76504 0.32167 0.94733 0.0
C921 C 0.86428 0.38922 0.973 0.0
H922 H 0.80708 0.30854 0.01062 0.0
C923 C 0.83938 0.39766 0.93762 0.0
C924 C 0.80224 0.37448 0.92851 0.0
H925 H 0.89146 0.40879 0.98024 0.0
H926 H 0.84862 0.42317 0.91809 0.0
C927 C 0.79221 0.34121 0.95443 0.0
C928 C 0.87463 0.52577 0.21144 0.0
C929 C 0.90768 0.53926 0.23797 0.0
H930 H 0.85394 0.48152 0.16631 0.0
C931 C 0.94624 0.51722 0.23916 0.0
H932 H 0.84446 0.5421 0.21005 0.0
C933 C 0.95109 0.48152 0.21539 0.0
C934 C 0.91811 0.46782 0.18865 0.0
H935 H 0.97193 0.52655 0.25993 0.0
H936 H 0.98055 0.46458 0.2186 0.0
C937 C 0.88012 0.49101 0.18642 0.0
C938 C 0.74581 0.6635 0.41419 0.0
C939 C 0.75469 0.62497 0.39689 0.0
H940 H 0.71112 0.69722 0.46046 0.0
C941 C 0.73253 0.59061 0.41224 0.0
H942 H 0.76166 0.69065 0.40242 0.0
C943 C 0.70357 0.59426 0.44507 0.0
C944 C 0.6956 0.63248 0.46352 0.0
H945 H 0.73839 0.56044 0.39948 0.0
H946 H 0.68818 0.56677 0.4566 0.0
C947 C 0.71657 0.66723 0.44718 0.0
C948 C 0.65162 0.50517 0.8239 0.0
C949 C 0.61557 0.47914 0.82514 0.0
H950 H 0.68247 0.55587 0.79349 0.0
C951 C 0.58007 0.48856 0.79977 0.0
H952 H 0.67929 0.49909 0.84342 0.0
C953 C 0.58123 0.52198 0.77251 0.0
C954 C 0.61842 0.54603 0.76904 0.0
H955 H 0.55135 0.47007 0.80064 0.0
H956 H 0.55375 0.52774 0.75262 0.0
C957 C 0.65348 0.53762 0.79532 0.0
C958 C 0.7322 0.34767 0.06432 0.0
C959 C 0.72002 0.37441 0.09628 0.0
H960 H 0.71886 0.32516 0.003 0.0
C961 C 0.68181 0.39708 0.09119 0.0
H962 H 0.7605 0.32882 0.06769 0.0
C963 C 0.65815 0.39508 0.0539 0.0
C964 C 0.67208 0.37018 0.02115 0.0
H965 H 0.67117 0.41778 0.11529 0.0
H966 H 0.63047 0.4147 0.04985 0.0
C967 C 0.7084 0.34554 0.02733 0.0
C968 C 0.89449 0.48169 0.33514 0.0
C969 C 0.85939 0.50505 0.34834 0.0
H970 H 0.91771 0.43551 0.29418 0.0
C971 C 0.81821 0.49434 0.33396 0.0
H972 H 0.92627 0.48738 0.34723 0.0
C973 C 0.81321 0.46495 0.30236 0.0
C974 C 0.84915 0.44431 0.28645 0.0
H975 H 0.79032 0.51094 0.34457 0.0
H976 H 0.78158 0.45957 0.28942 0.0
C977 C 0.88941 0.45146 0.3049 0.0
C978 C 0.82036 0.61674 0.55639 0.0
C979 C 0.81293 0.64925 0.52861 0.0
H980 H 0.79964 0.58429 0.61054 0.0
C981 C 0.77876 0.67613 0.53704 0.0
H982 H 0.84626 0.59534 0.5511 0.0
C983 C 0.75171 0.66961 0.57126 0.0
C984 C 0.75814 0.63608 0.59795 0.0
H985 H 0.77224 0.70174 0.51663 0.0
H986 H 0.72559 0.6907 0.5767 0.0
C987 C 0.79344 0.61031 0.59056 0.0
C988 C 0.4889 0.68436 0.57373 0.0
C989 C 0.50242 0.66326 0.60952 0.0
H990 H 0.44982 0.7328 0.54874 0.0
C991 C 0.4853 0.67519 0.64816 0.0
H992 H 0.50131 0.67596 0.54355 0.0
C993 C 0.45669 0.70795 0.65128 0.0
C994 C 0.44341 0.72944 0.61577 0.0
H995 H 0.49508 0.65989 0.67652 0.0
H996 H 0.44528 0.71673 0.68175 0.0
C997 C 0.45919 0.71673 0.57677 0.0
C998 C 0.41327 0.538 0.2434 0.0
C999 C 0.37351 0.5564 0.23385 0.0
H1000 H 0.44777 0.49535 0.28161 0.0
C1001 C 0.33788 0.54684 0.25852 0.0
H1002 H 0.44149 0.54458 0.22503 0.0
C1003 C 0.3418 0.51905 0.29151 0.0
C1004 C 0.38124 0.49955 0.30011 0.0
H1005 H 0.30689 0.56043 0.25208 0.0
H1006 H 0.31342 0.51186 0.3094 0.0
C1007 C 0.41701 0.50971 0.2759 0.0
C1008 C 0.18835 0.65438 0.02951 0.0
C1009 C 0.21583 0.62477 0.04682 0.0
H1010 H 0.14044 0.66795 0.98407 0.0
C1011 C 0.20912 0.58344 0.03673 0.0
H1012 H 0.19248 0.6865 0.03704 0.0
C1013 C 0.17919 0.57273 0.00578 0.0
C1014 C 0.15541 0.6032 0.98497 0.0
H1015 H 0.22978 0.55997 0.04955 0.0
H1016 H 0.17702 0.54104 -0.00394 0.0
C1017 C 0.15848 0.64374 -0.00103 0.0
C1018 C 0.15824 0.46418 0.78134 0.0
C1019 C 0.11891 0.47162 0.80144 0.0
H1020 H 0.19222 0.4292 0.73564 0.0
C1021 C 0.0836 0.44667 0.79168 0.0
H1022 H 0.18613 0.48297 0.78805 0.0
C1023 C 0.08746 0.41516 0.76236 0.0
C1024 C 0.12641 0.40856 0.74118 0.0
H1025 H 0.05296 0.45149 0.80665 0.0
H1026 H 0.05937 0.39674 0.75542 0.0
C1027 C 0.16183 0.43334 0.75126 0.0
C1028 C 0.30452 0.32568 0.53284 0.0
C1029 C 0.27332 0.35437 0.54455 0.0
H1030 H 0.35624 0.31137 0.49265 0.0
C1031 C 0.27708 0.39481 0.53038 0.0
H1032 H 0.3027 0.29433 0.54377 0.0
C1033 C 0.30824 0.40477 0.50054 0.0
C1034 C 0.33604 0.3744 0.48501 0.0
H1035 H 0.25351 0.41751 0.53907 0.0
H1036 H 0.30816 0.43521 0.48723 0.0
C1037 C 0.33546 0.33552 0.50343 0.0
C1038 C 0.27727 0.45475 0.21286 0.0
C1039 C 0.30898 0.43574 0.23724 0.0
H1040 H 0.26253 0.49261 0.16114 0.0
C1041 C 0.35201 0.43809 0.22405 0.0
H1042 H 0.24369 0.45312 0.22129 0.0
C1043 C 0.36312 0.46157 0.18893 0.0
C1044 C 0.33126 0.4825 0.16625 0.0
H1045 H 0.37722 0.42345 0.24186 0.0
H1046 H 0.39658 0.46448 0.18048 0.0
C1047 C 0.28819 0.47757 0.17801 0.0
C1048 C 0.27813 0.56981 0.95818 0.0
C1049 C 0.30118 0.6012 0.97808 0.0
H1050 H 0.22915 0.55458 0.91396 0.0
C1051 C 0.29626 0.64172 0.96429 0.0
H1052 H 0.28195 0.53821 0.96769 0.0
C1053 C 0.26463 0.65131 0.935 0.0
C1054 C 0.2394 0.62017 0.91737 0.0
H1055 H 0.31462 0.66636 0.97825 0.0
H1056 H 0.25902 0.68309 0.92709 0.0
C1057 C 0.24801 0.57919 0.92743 0.0
C1058 C 0.11083 0.50433 0.68351 0.0
C1059 C 0.06843 0.49222 0.69161 0.0
H1060 H 0.163 0.5435 0.7005 0.0
C1061 C 0.04368 0.51589 0.71914 0.0
H1062 H 0.13066 0.48728 0.66209 0.0
C1063 C 0.06221 0.54863 0.74093 0.0
C1064 C 0.10585 0.55795 0.73575 0.0
H1065 H 0.01067 0.50778 0.72566 0.0
H1066 H 0.04339 0.56424 0.76426 0.0
C1067 C 0.12931 0.5368 0.70536 0.0
C1068 C 0.15754 0.33406 0.47849 0.0
C1069 C 0.14494 0.36975 0.4995 0.0
H1070 H 0.20245 0.30648 0.43676 0.0
C1071 C 0.16628 0.40673 0.49092 0.0
H1072 H 0.1416 0.30514 0.48444 0.0
C1073 C 0.19983 0.40781 0.46195 0.0
C1074 C 0.21384 0.37157 0.44285 0.0
H1075 H 0.15697 0.4347 0.50651 0.0
H1076 H 0.21618 0.43651 0.456 0.0
C1077 C 0.1923 0.33477 0.45125 0.0
C1078 C 0.51589 0.27648 0.31098 0.0
C1079 C 0.51713 0.29758 0.34907 0.0
H1080 H 0.54448 0.22885 0.27367 0.0
C1081 C 0.55271 0.29211 0.37535 0.0
H1082 H 0.48881 0.28021 0.29012 0.0
C1083 C 0.58453 0.26387 0.36571 0.0
C1084 C 0.58128 0.23943 0.32993 0.0
H1085 H 0.5546 0.30801 0.40488 0.0
H1086 H 0.61037 0.25938 0.3879 0.0
C1087 C 0.54737 0.2468 0.30185 0.0
loop_
_geom_bond_atom_site_label_1
_geom_bond_atom_site_label_2
_geom_bond_distance
_geom_bond_site_symmetry_2
_ccdc_geom_bond_type
Mg0 O1 2.028 . S
Mg0 O7 1.986 . S
Mg0 O9 2.114 . S
Mg0 O10 2.251 . S
Mg0 O13 2.010 . S
O1 Mg0 2.028 . S
O1 C4 1.250 . S
O2 Mg3 2.028 . S
O2 C4 1.248 . S
Mg3 O2 2.028 . S
Mg3 O8 2.032 . S
Mg3 O10 2.079 . S
C4 O1 1.250 . S
C4 O2 1.248 . S
C5 O6 1.264 . S
C5 O13 1.249 . S
O6 C5 1.264 . S
O7 Mg0 1.986 . S
O7 C11 1.246 . S
O8 Mg3 2.032 . S
O8 C11 1.259 . S
O9 Mg0 2.114 . S
O9 C12 1.252 . S
O10 Mg0 2.251 . S
O10 Mg3 2.079 . S
O10 C12 1.273 . S
C11 O7 1.246 . S
C11 O8 1.259 . S
C12 O9 1.252 . S
C12 O10 1.273 . S
O13 Mg0 2.010 . S
O13 C5 1.249 . S
Mg14 O15 2.028 . S
Mg14 O21 1.986 . S
Mg14 O23 2.114 . S
Mg14 O24 2.251 . S
Mg14 O27 2.010 . S
O15 Mg14 2.028 . S
O15 C18 1.250 . S
O16 Mg17 2.028 . S
O16 C18 1.248 . S
Mg17 O16 2.028 . S
Mg17 O22 2.032 . S
Mg17 O24 2.079 . S
C18 O15 1.250 . S
C18 O16 1.248 . S
C19 O20 1.264 . S
C19 O27 1.249 . S
O20 C19 1.264 . S
O21 Mg14 1.986 . S
O21 C25 1.246 . S
O22 Mg17 2.032 . S
O22 C25 1.259 . S
O23 Mg14 2.114 . S
O23 C26 1.252 . S
O24 Mg14 2.251 . S
O24 Mg17 2.079 . S
O24 C26 1.273 . S
C25 O21 1.246 . S
C25 O22 1.259 . S
C26 O23 1.252 . S
C26 O24 1.273 . S
O27 Mg14 2.010 . S
O27 C19 1.249 . S
Mg28 O29 2.028 . S
Mg28 O35 1.986 . S
Mg28 O37 2.114 . S
Mg28 O38 2.251 . S
Mg28 O41 2.010 . S
O29 Mg28 2.028 . S
O29 C32 1.250 . S
O30 Mg31 2.028 . S
O30 C32 1.248 . S
Mg31 O30 2.028 . S
Mg31 O36 2.032 . S
Mg31 O38 2.079 . S
C32 O29 1.250 . S
C32 O30 1.248 . S
C33 O34 1.264 . S
C33 O41 1.249 . S
O34 C33 1.264 . S
O35 Mg28 1.986 . S
O35 C39 1.246 . S
O36 Mg31 2.032 . S
O36 C39 1.259 . S
O37 Mg28 2.114 . S
O37 C40 1.252 . S
O38 Mg28 2.251 . S
O38 Mg31 2.079 . S
O38 C40 1.273 . S
C39 O35 1.246 . S
C39 O36 1.259 . S
C40 O37 1.252 . S
C40 O38 1.273 . S
O41 Mg28 2.010 . S
O41 C33 1.249 . S
Mg42 O43 2.028 . S
Mg42 O49 1.986 . S
Mg42 O51 2.114 . S
Mg42 O52 2.251 . S
Mg42 O55 2.010 . S
O43 Mg42 2.028 . S
O43 C46 1.250 . S
O44 Mg45 2.028 . S
O44 C46 1.248 . S
Mg45 O44 2.028 . S
Mg45 O50 2.032 . S
Mg45 O52 2.079 . S
C46 O43 1.250 . S
C46 O44 1.248 . S
C47 O48 1.264 . S
C47 O55 1.249 . S
O48 C47 1.264 . S
O49 Mg42 1.986 . S
O49 C53 1.246 . S
O50 Mg45 2.032 . S
O50 C53 1.259 . S
O51 Mg42 2.114 . S
O51 C54 1.252 . S
O52 Mg42 2.251 . S
O52 Mg45 2.079 . S
O52 C54 1.273 . S
C53 O49 1.246 . S
C53 O50 1.259 . S
C54 O51 1.252 . S
C54 O52 1.273 . S
O55 Mg42 2.010 . S
O55 C47 1.249 . S
Mg56 O57 2.028 . S
Mg56 O63 1.986 . S
Mg56 O65 2.114 . S
Mg56 O66 2.251 . S
Mg56 O69 2.010 . S
O57 Mg56 2.028 . S
O57 C60 1.250 . S
O58 Mg59 2.028 . S
O58 C60 1.248 . S
Mg59 O58 2.028 . S
Mg59 O64 2.032 . S
Mg59 O66 2.079 . S
C60 O57 1.250 . S
C60 O58 1.248 . S
C61 O62 1.264 . S
C61 O69 1.249 . S
O62 C61 1.264 . S
O63 Mg56 1.986 . S
O63 C67 1.246 . S
O64 Mg59 2.032 . S
O64 C67 1.259 . S
O65 Mg56 2.114 . S
O65 C68 1.252 . S
O66 Mg56 2.251 . S
O66 Mg59 2.079 . S
O66 C68 1.273 . S
C67 O63 1.246 . S
C67 O64 1.259 . S
C68 O65 1.252 . S
C68 O66 1.273 . S
O69 Mg56 2.010 . S
O69 C61 1.249 . S
Mg70 O71 2.028 . S
Mg70 O77 1.986 . S
Mg70 O79 2.114 . S
Mg70 O80 2.251 . S
Mg70 O83 2.010 . S
O71 Mg70 2.028 . S
O71 C74 1.250 . S
O72 Mg73 2.028 . S
O72 C74 1.248 . S
Mg73 O72 2.028 . S
Mg73 O78 2.032 . S
Mg73 O80 2.079 . S
C74 O71 1.250 . S
C74 O72 1.248 . S
C75 O76 1.264 . S
C75 O83 1.249 . S
O76 C75 1.264 . S
O77 Mg70 1.986 . S
O77 C81 1.246 . S
O78 Mg73 2.032 . S
O78 C81 1.259 . S
O79 Mg70 2.114 . S
O79 C82 1.252 . S
O80 Mg70 2.251 . S
O80 Mg73 2.079 . S
O80 C82 1.273 . S
C81 O77 1.246 . S
C81 O78 1.259 . S
C82 O79 1.252 . S
C82 O80 1.273 . S
O83 Mg70 2.010 . S
O83 C75 1.249 . S
Mg84 O85 2.028 . S
Mg84 O91 1.986 . S
Mg84 O93 2.114 . S
Mg84 O94 2.251 . S
Mg84 O97 2.010 . S
O85 Mg84 2.028 . S
O85 C88 1.250 . S
O86 Mg87 2.028 . S
O86 C88 1.248 . S
Mg87 O86 2.028 . S
Mg87 O92 2.032 . S
Mg87 O94 2.079 . S
C88 O85 1.250 . S
C88 O86 1.248 . S
C89 O90 1.264 . S
C89 O97 1.249 . S
O90 C89 1.264 . S
O91 Mg84 1.986 . S
O91 C95 1.246 . S
O92 Mg87 2.032 . S
O92 C95 1.259 . S
O93 Mg84 2.114 . S
O93 C96 1.252 . S
O94 Mg84 2.251 . S
O94 Mg87 2.079 . S
O94 C96 1.273 . S
C95 O91 1.246 . S
C95 O92 1.259 . S
C96 O93 1.252 . S
C96 O94 1.273 . S
O97 Mg84 2.010 . S
O97 C89 1.249 . S
Mg98 O99 2.028 . S
Mg98 O105 1.986 . S
Mg98 O107 2.114 . S
Mg98 O108 2.251 . S
Mg98 O111 2.010 . S
O99 Mg98 2.028 . S
O99 C102 1.250 . S
O100 Mg101 2.028 . S
O100 C102 1.248 . S
Mg101 O100 2.028 . S
Mg101 O106 2.032 . S
Mg101 O108 2.079 . S
C102 O99 1.250 . S
C102 O100 1.248 . S
C103 O104 1.264 . S
C103 O111 1.249 . S
O104 C103 1.264 . S
O105 Mg98 1.986 . S
O105 C109 1.246 . S
O106 Mg101 2.032 . S
O106 C109 1.259 . S
O107 Mg98 2.114 . S
O107 C110 1.252 . S
O108 Mg98 2.251 . S
O108 Mg101 2.079 . S
O108 C110 1.273 . S
C109 O105 1.246 . S
C109 O106 1.259 . S
C110 O107 1.252 . S
C110 O108 1.273 . S
O111 Mg98 2.010 . S
O111 C103 1.249 . S
Mg112 O113 2.028 . S
Mg112 O119 1.986 . S
Mg112 O121 2.114 . S
Mg112 O122 2.251 . S
Mg112 O125 2.010 . S
O113 Mg112 2.028 . S
O113 C116 1.250 . S
O114 Mg115 2.028 . S
O114 C116 1.248 . S
Mg115 O114 2.028 . S
Mg115 O120 2.032 . S
Mg115 O122 2.079 . S
C116 O113 1.250 . S
C116 O114 1.248 . S
C117 O118 1.264 . S
C117 O125 1.249 . S
O118 C117 1.264 . S
O119 Mg112 1.986 . S
O119 C123 1.246 . S
O120 Mg115 2.032 . S
O120 C123 1.259 . S
O121 Mg112 2.114 . S
O121 C124 1.252 . S
O122 Mg112 2.251 . S
O122 Mg115 2.079 . S
O122 C124 1.273 . S
C123 O119 1.246 . S
C123 O120 1.259 . S
C124 O121 1.252 . S
C124 O122 1.273 . S
O125 Mg112 2.010 . S
O125 C117 1.249 . S
Mg126 O127 2.028 . S
Mg126 O133 1.986 . S
Mg126 O135 2.114 . S
Mg126 O136 2.251 . S
Mg126 O139 2.010 . S
O127 Mg126 2.028 . S
O127 C130 1.250 . S
O128 Mg129 2.028 . S
O128 C130 1.248 . S
Mg129 O128 2.028 . S
Mg129 O134 2.032 . S
Mg129 O136 2.079 . S
C130 O127 1.250 . S
C130 O128 1.248 . S
C131 O132 1.264 . S
C131 O139 1.249 . S
O132 C131 1.264 . S
O133 Mg126 1.986 . S
O133 C137 1.246 . S
O134 Mg129 2.032 . S
O134 C137 1.259 . S
O135 Mg126 2.114 . S
O135 C138 1.252 . S
O136 Mg126 2.251 . S
O136 Mg129 2.079 . S
O136 C138 1.273 . S
C137 O133 1.246 . S
C137 O134 1.259 . S
C138 O135 1.252 . S
C138 O136 1.273 . S
O139 Mg126 2.010 . S
O139 C131 1.249 . S
Mg140 O141 2.028 . S
Mg140 O147 1.986 . S
Mg140 O149 2.114 . S
Mg140 O150 2.251 . S
Mg140 O153 2.010 . S
O141 Mg140 2.028 . S
O141 C144 1.250 . S
O142 Mg143 2.028 . S
O142 C144 1.248 . S
Mg143 O142 2.028 . S
Mg143 O148 2.032 . S
Mg143 O150 2.079 . S
C144 O141 1.250 . S
C144 O142 1.248 . S
C145 O146 1.264 . S
C145 O153 1.249 . S
O146 C145 1.264 . S
O147 Mg140 1.986 . S
O147 C151 1.246 . S
O148 Mg143 2.032 . S
O148 C151 1.259 . S
O149 Mg140 2.114 . S
O149 C152 1.252 . S
O150 Mg140 2.251 . S
O150 Mg143 2.079 . S
O150 C152 1.273 . S
C151 O147 1.246 . S
C151 O148 1.259 . S
C152 O149 1.252 . S
C152 O150 1.273 . S
O153 Mg140 2.010 . S
O153 C145 1.249 . S
Mg154 O155 2.028 . S
Mg154 O161 1.986 . S
Mg154 O163 2.114 . S
Mg154 O164 2.251 . S
Mg154 O167 2.010 . S
O155 Mg154 2.028 . S
O155 C158 1.250 . S
O156 Mg157 2.028 . S
O156 C158 1.248 . S
Mg157 O156 2.028 . S
Mg157 O162 2.032 . S
Mg157 O164 2.079 . S
C158 O155 1.250 . S
C158 O156 1.248 . S
C159 O160 1.264 . S
C159 O167 1.249 . S
O160 C159 1.264 . S
O161 Mg154 1.986 . S
O161 C165 1.246 . S
O162 Mg157 2.032 . S
O162 C165 1.259 . S
O163 Mg154 2.114 . S
O163 C166 1.252 . S
O164 Mg154 2.251 . S
O164 Mg157 2.079 . S
O164 C166 1.273 . S
C165 O161 1.246 . S
C165 O162 1.259 . S
C166 O163 1.252 . S
C166 O164 1.273 . S
O167 Mg154 2.010 . S
O167 C159 1.249 . S
Mg168 O169 2.028 . S
Mg168 O175 1.986 . S
Mg168 O177 2.114 . S
Mg168 O178 2.251 . S
Mg168 O181 2.010 . S
O169 Mg168 2.028 . S
O169 C172 1.250 . S
O170 Mg171 2.028 . S
O170 C172 1.248 . S
Mg171 O170 2.028 . S
Mg171 O176 2.032 . S
Mg171 O178 2.079 . S
C172 O169 1.250 . S
C172 O170 1.248 . S
C173 O174 1.264 . S
C173 O181 1.249 . S
O174 C173 1.264 . S
O175 Mg168 1.986 . S
O175 C179 1.246 . S
O176 Mg171 2.032 . S
O176 C179 1.259 . S
O177 Mg168 2.114 . S
O177 C180 1.252 . S
O178 Mg168 2.251 . S
O178 Mg171 2.079 . S
O178 C180 1.273 . S
C179 O175 1.246 . S
C179 O176 1.259 . S
C180 O177 1.252 . S
C180 O178 1.273 . S
O181 Mg168 2.010 . S
O181 C173 1.249 . S
Mg182 O183 2.028 . S
Mg182 O189 1.986 . S
Mg182 O191 2.114 . S
Mg182 O192 2.251 . S
Mg182 O195 2.010 . S
O183 Mg182 2.028 . S
O183 C186 1.250 . S
O184 Mg185 2.028 . S
O184 C186 1.248 . S
Mg185 O184 2.028 . S
Mg185 O190 2.032 . S
Mg185 O192 2.079 . S
C186 O183 1.250 . S
C186 O184 1.248 . S
C187 O188 1.264 . S
C187 O195 1.249 . S
O188 C187 1.264 . S
O189 Mg182 1.986 . S
O189 C193 1.246 . S
O190 Mg185 2.032 . S
O190 C193 1.259 . S
O191 Mg182 2.114 . S
O191 C194 1.252 . S
O192 Mg182 2.251 . S
O192 Mg185 2.079 . S
O192 C194 1.273 . S
C193 O189 1.246 . S
C193 O190 1.259 . S
C194 O191 1.252 . S
C194 O192 1.273 . S
O195 Mg182 2.010 . S
O195 C187 1.249 . S
Mg196 O197 2.028 . S
Mg196 O203 1.986 . S
Mg196 O205 2.114 . S
Mg196 O206 2.251 . S
Mg196 O209 2.010 . S
O197 Mg196 2.028 . S
O197 C200 1.250 . S
O198 Mg199 2.028 . S
O198 C200 1.248 . S
Mg199 O198 2.028 . S
Mg199 O204 2.032 . S
Mg199 O206 2.079 . S
C200 O197 1.250 . S
C200 O198 1.248 . S
C201 O202 1.264 . S
C201 O209 1.249 . S
O202 C201 1.264 . S
O203 Mg196 1.986 . S
O203 C207 1.246 . S
O204 Mg199 2.032 . S
O204 C207 1.259 . S
O205 Mg196 2.114 . S
O205 C208 1.252 . S
O206 Mg196 2.251 . S
O206 Mg199 2.079 . S
O206 C208 1.273 . S
C207 O203 1.246 . S
C207 O204 1.259 . S
C208 O205 1.252 . S
C208 O206 1.273 . S
O209 Mg196 2.010 . S
O209 C201 1.249 . S
Mg210 O211 2.028 . S
Mg210 O217 1.986 . S
Mg210 O219 2.114 . S
Mg210 O220 2.251 . S
Mg210 O223 2.010 . S
O211 Mg210 2.028 . S
O211 C214 1.250 . S
O212 Mg213 2.028 . S
O212 C214 1.248 . S
Mg213 O212 2.028 . S
Mg213 O218 2.032 . S
Mg213 O220 2.079 . S
C214 O211 1.250 . S
C214 O212 1.248 . S
C215 O216 1.264 . S
C215 O223 1.249 . S
O216 C215 1.264 . S
O217 Mg210 1.986 . S
O217 C221 1.246 . S
O218 Mg213 2.032 . S
O218 C221 1.259 . S
O219 Mg210 2.114 . S
O219 C222 1.252 . S
O220 Mg210 2.251 . S
O220 Mg213 2.079 . S
O220 C222 1.273 . S
C221 O217 1.246 . S
C221 O218 1.259 . S
C222 O219 1.252 . S
C222 O220 1.273 . S
O223 Mg210 2.010 . S
O223 C215 1.249 . S
Mg224 O225 2.028 . S
Mg224 O231 1.986 . S
Mg224 O233 2.114 . S
Mg224 O234 2.251 . S
Mg224 O237 2.010 . S
O225 Mg224 2.028 . S
O225 C228 1.250 . S
O226 Mg227 2.028 . S
O226 C228 1.248 . S
Mg227 O226 2.028 . S
Mg227 O232 2.032 . S
Mg227 O234 2.079 . S
C228 O225 1.250 . S
C228 O226 1.248 . S
C229 O230 1.264 . S
C229 O237 1.249 . S
O230 C229 1.264 . S
O231 Mg224 1.986 . S
O231 C235 1.246 . S
O232 Mg227 2.032 . S
O232 C235 1.259 . S
O233 Mg224 2.114 . S
O233 C236 1.252 . S
O234 Mg224 2.251 . S
O234 Mg227 2.079 . S
O234 C236 1.273 . S
C235 O231 1.246 . S
C235 O232 1.259 . S
C236 O233 1.252 . S
C236 O234 1.273 . S
O237 Mg224 2.010 . S
O237 C229 1.249 . S
Mg238 O239 2.028 . S
Mg238 O245 1.986 . S
Mg238 O247 2.114 . S
Mg238 O248 2.251 . S
Mg238 O251 2.010 . S
O239 Mg238 2.028 . S
O239 C242 1.250 . S
O240 Mg241 2.028 . S
O240 C242 1.248 . S
Mg241 O240 2.028 . S
Mg241 O246 2.032 . S
Mg241 O248 2.079 . S
C242 O239 1.250 . S
C242 O240 1.248 . S
C243 O244 1.264 . S
C243 O251 1.249 . S
O244 C243 1.264 . S
O245 Mg238 1.986 . S
O245 C249 1.246 . S
O246 Mg241 2.032 . S
O246 C249 1.259 . S
O247 Mg238 2.114 . S
O247 C250 1.252 . S
O248 Mg238 2.251 . S
O248 Mg241 2.079 . S
O248 C250 1.273 . S
C249 O245 1.246 . S
C249 O246 1.259 . S
C250 O247 1.252 . S
C250 O248 1.273 . S
O251 Mg238 2.010 . S
O251 C243 1.249 . S
Mg252 O253 2.028 . S
Mg252 O259 1.986 . S
Mg252 O261 2.114 . S
Mg252 O262 2.251 . S
Mg252 O265 2.010 . S
O253 Mg252 2.028 . S
O253 C256 1.250 . S
O254 Mg255 2.028 . S
O254 C256 1.248 . S
Mg255 O254 2.028 . S
Mg255 O260 2.032 . S
Mg255 O262 2.079 . S
C256 O253 1.250 . S
C256 O254 1.248 . S
C257 O258 1.264 . S
C257 O265 1.249 . S
O258 C257 1.264 . S
O259 Mg252 1.986 . S
O259 C263 1.246 . S
O260 Mg255 2.032 . S
O260 C263 1.259 . S
O261 Mg252 2.114 . S
O261 C264 1.252 . S
O262 Mg252 2.251 . S
O262 Mg255 2.079 . S
O262 C264 1.273 . S
C263 O259 1.246 . S
C263 O260 1.259 . S
C264 O261 1.252 . S
C264 O262 1.273 . S
O265 Mg252 2.010 . S
O265 C257 1.249 . S
Mg266 O267 2.028 . S
Mg266 O273 1.986 . S
Mg266 O275 2.114 . S
Mg266 O276 2.251 . S
Mg266 O279 2.010 . S
O267 Mg266 2.028 . S
O267 C270 1.250 . S
O268 Mg269 2.028 . S
O268 C270 1.248 . S
Mg269 O268 2.028 . S
Mg269 O274 2.032 . S
Mg269 O276 2.079 . S
C270 O267 1.250 . S
C270 O268 1.248 . S
C271 O272 1.264 . S
C271 O279 1.249 . S
O272 C271 1.264 . S
O273 Mg266 1.986 . S
O273 C277 1.246 . S
O274 Mg269 2.032 . S
O274 C277 1.259 . S
O275 Mg266 2.114 . S
O275 C278 1.252 . S
O276 Mg266 2.251 . S
O276 Mg269 2.079 . S
O276 C278 1.273 . S
C277 O273 1.246 . S
C277 O274 1.259 . S
C278 O275 1.252 . S
C278 O276 1.273 . S
O279 Mg266 2.010 . S
O279 C271 1.249 . S
Mg280 O281 2.028 . S
Mg280 O287 1.986 . S
Mg280 O289 2.114 . S
Mg280 O290 2.251 . S
Mg280 O293 2.010 . S
O281 Mg280 2.028 . S
O281 C284 1.250 . S
O282 Mg283 2.028 . S
O282 C284 1.248 . S
Mg283 O282 2.028 . S
Mg283 O288 2.032 . S
Mg283 O290 2.079 . S
C284 O281 1.250 . S
C284 O282 1.248 . S
C285 O286 1.264 . S
C285 O293 1.249 . S
O286 C285 1.264 . S
O287 Mg280 1.986 . S
O287 C291 1.246 . S
O288 Mg283 2.032 . S
O288 C291 1.259 . S
O289 Mg280 2.114 . S
O289 C292 1.252 . S
O290 Mg280 2.251 . S
O290 Mg283 2.079 . S
O290 C292 1.273 . S
C291 O287 1.246 . S
C291 O288 1.259 . S
C292 O289 1.252 . S
C292 O290 1.273 . S
O293 Mg280 2.010 . S
O293 C285 1.249 . S
Mg294 O295 2.028 . S
Mg294 O301 1.986 . S
Mg294 O303 2.114 . S
Mg294 O304 2.251 . S
Mg294 O307 2.010 . S
O295 Mg294 2.028 . S
O295 C298 1.250 . S
O296 Mg297 2.028 . S
O296 C298 1.248 . S
Mg297 O296 2.028 . S
Mg297 O302 2.032 . S
Mg297 O304 2.079 . S
C298 O295 1.250 . S
C298 O296 1.248 . S
C299 O300 1.264 . S
C299 O307 1.249 . S
O300 C299 1.264 . S
O301 Mg294 1.986 . S
O301 C305 1.246 . S
O302 Mg297 2.032 . S
O302 C305 1.259 . S
O303 Mg294 2.114 . S
O303 C306 1.252 . S
O304 Mg294 2.251 . S
O304 Mg297 2.079 . S
O304 C306 1.273 . S
C305 O301 1.246 . S
C305 O302 1.259 . S
C306 O303 1.252 . S
C306 O304 1.273 . S
O307 Mg294 2.010 . S
O307 C299 1.249 . S
Mg308 O309 2.028 . S
Mg308 O315 1.986 . S
Mg308 O317 2.114 . S
Mg308 O318 2.251 . S
Mg308 O321 2.010 . S
O309 Mg308 2.028 . S
O309 C312 1.250 . S
O310 Mg311 2.028 . S
O310 C312 1.248 . S
Mg311 O310 2.028 . S
Mg311 O316 2.032 . S
Mg311 O318 2.079 . S
C312 O309 1.250 . S
C312 O310 1.248 . S
C313 O314 1.264 . S
C313 O321 1.249 . S
O314 C313 1.264 . S
O315 Mg308 1.986 . S
O315 C319 1.246 . S
O316 Mg311 2.032 . S
O316 C319 1.259 . S
O317 Mg308 2.114 . S
O317 C320 1.252 . S
O318 Mg308 2.251 . S
O318 Mg311 2.079 . S
O318 C320 1.273 . S
C319 O315 1.246 . S
C319 O316 1.259 . S
C320 O317 1.252 . S
C320 O318 1.273 . S
O321 Mg308 2.010 . S
O321 C313 1.249 . S
Mg322 O323 2.028 . S
Mg322 O329 1.986 . S
Mg322 O331 2.114 . S
Mg322 O332 2.251 . S
Mg322 O335 2.010 . S
O323 Mg322 2.028 . S
O323 C326 1.250 . S
O324 Mg325 2.028 . S
O324 C326 1.248 . S
Mg325 O324 2.028 . S
Mg325 O330 2.032 . S
Mg325 O332 2.079 . S
C326 O323 1.250 . S
C326 O324 1.248 . S
C327 O328 1.264 . S
C327 O335 1.249 . S
O328 C327 1.264 . S
O329 Mg322 1.986 . S
O329 C333 1.246 . S
O330 Mg325 2.032 . S
O330 C333 1.259 . S
O331 Mg322 2.114 . S
O331 C334 1.252 . S
O332 Mg322 2.251 . S
O332 Mg325 2.079 . S
O332 C334 1.273 . S
C333 O329 1.246 . S
C333 O330 1.259 . S
C334 O331 1.252 . S
C334 O332 1.273 . S
O335 Mg322 2.010 . S
O335 C327 1.249 . S
Mg336 O337 2.028 . S
Mg336 O343 1.986 . S
Mg336 O345 2.114 . S
Mg336 O346 2.251 . S
Mg336 O349 2.010 . S
O337 Mg336 2.028 . S
O337 C340 1.250 . S
O338 Mg339 2.028 . S
O338 C340 1.248 . S
Mg339 O338 2.028 . S
Mg339 O344 2.032 . S
Mg339 O346 2.079 . S
C340 O337 1.250 . S
C340 O338 1.248 . S
C341 O342 1.264 . S
C341 O349 1.249 . S
O342 C341 1.264 . S
O343 Mg336 1.986 . S
O343 C347 1.246 . S
O344 Mg339 2.032 . S
O344 C347 1.259 . S
O345 Mg336 2.114 . S
O345 C348 1.252 . S
O346 Mg336 2.251 . S
O346 Mg339 2.079 . S
O346 C348 1.273 . S
C347 O343 1.246 . S
C347 O344 1.259 . S
C348 O345 1.252 . S
C348 O346 1.273 . S
O349 Mg336 2.010 . S
O349 C341 1.249 . S
Mg350 O351 2.028 . S
Mg350 O357 1.986 . S
Mg350 O359 2.114 . S
Mg350 O360 2.251 . S
Mg350 O363 2.010 . S
O351 Mg350 2.028 . S
O351 C354 1.250 . S
O352 Mg353 2.028 . S
O352 C354 1.248 . S
Mg353 O352 2.028 . S
Mg353 O358 2.032 . S
Mg353 O360 2.079 . S
C354 O351 1.250 . S
C354 O352 1.248 . S
C355 O356 1.264 . S
C355 O363 1.249 . S
O356 C355 1.264 . S
O357 Mg350 1.986 . S
O357 C361 1.246 . S
O358 Mg353 2.032 . S
O358 C361 1.259 . S
O359 Mg350 2.114 . S
O359 C362 1.252 . S
O360 Mg350 2.251 . S
O360 Mg353 2.079 . S
O360 C362 1.273 . S
C361 O357 1.246 . S
C361 O358 1.259 . S
C362 O359 1.252 . S
C362 O360 1.273 . S
O363 Mg350 2.010 . S
O363 C355 1.249 . S
Mg364 O365 2.028 . S
Mg364 O371 1.986 . S
Mg364 O373 2.114 . S
Mg364 O374 2.251 . S
Mg364 O377 2.010 . S
O365 Mg364 2.028 . S
O365 C368 1.250 . S
O366 Mg367 2.028 . S
O366 C368 1.248 . S
Mg367 O366 2.028 . S
Mg367 O372 2.032 . S
Mg367 O374 2.079 . S
C368 O365 1.250 . S
C368 O366 1.248 . S
C369 O370 1.264 . S
C369 O377 1.249 . S
O370 C369 1.264 . S
O371 Mg364 1.986 . S
O371 C375 1.246 . S
O372 Mg367 2.032 . S
O372 C375 1.259 . S
O373 Mg364 2.114 . S
O373 C376 1.252 . S
O374 Mg364 2.251 . S
O374 Mg367 2.079 . S
O374 C376 1.273 . S
C375 O371 1.246 . S
C375 O372 1.259 . S
C376 O373 1.252 . S
C376 O374 1.273 . S
O377 Mg364 2.010 . S
O377 C369 1.249 . S
Mg378 O379 2.028 . S
Mg378 O385 1.986 . S
Mg378 O387 2.114 . S
Mg378 O388 2.251 . S
Mg378 O391 2.010 . S
O379 Mg378 2.028 . S
O379 C382 1.250 . S
O380 Mg381 2.028 . S
O380 C382 1.248 . S
Mg381 O380 2.028 . S
Mg381 O386 2.032 . S
Mg381 O388 2.079 . S
C382 O379 1.250 . S
C382 O380 1.248 . S
C383 O384 1.264 . S
C383 O391 1.249 . S
O384 C383 1.264 . S
O385 Mg378 1.986 . S
O385 C389 1.246 . S
O386 Mg381 2.032 . S
O386 C389 1.259 . S
O387 Mg378 2.114 . S
O387 C390 1.252 . S
O388 Mg378 2.251 . S
O388 Mg381 2.079 . S
O388 C390 1.273 . S
C389 O385 1.246 . S
C389 O386 1.259 . S
C390 O387 1.252 . S
C390 O388 1.273 . S
O391 Mg378 2.010 . S
O391 C383 1.249 . S
Mg392 O393 2.028 . S
Mg392 O399 1.986 . S
Mg392 O401 2.114 . S
Mg392 O402 2.251 . S
Mg392 O405 2.010 . S
O393 Mg392 2.028 . S
O393 C396 1.250 . S
O394 Mg395 2.028 . S
O394 C396 1.248 . S
Mg395 O394 2.028 . S
Mg395 O400 2.032 . S
Mg395 O402 2.079 . S
C396 O393 1.250 . S
C396 O394 1.248 . S
C397 O398 1.264 . S
C397 O405 1.249 . S
O398 C397 1.264 . S
O399 Mg392 1.986 . S
O399 C403 1.246 . S
O400 Mg395 2.032 . S
O400 C403 1.259 . S
O401 Mg392 2.114 . S
O401 C404 1.252 . S
O402 Mg392 2.251 . S
O402 Mg395 2.079 . S
O402 C404 1.273 . S
C403 O399 1.246 . S
C403 O400 1.259 . S
C404 O401 1.252 . S
C404 O402 1.273 . S
O405 Mg392 2.010 . S
O405 C397 1.249 . S
Mg406 O407 2.028 . S
Mg406 O413 1.986 . S
Mg406 O415 2.114 . S
Mg406 O416 2.251 . S
Mg406 O419 2.010 . S
O407 Mg406 2.028 . S
O407 C410 1.250 . S
O408 Mg409 2.028 . S
O408 C410 1.248 . S
Mg409 O408 2.028 . S
Mg409 O414 2.032 . S
Mg409 O416 2.079 . S
C410 O407 1.250 . S
C410 O408 1.248 . S
C411 O412 1.264 . S
C411 O419 1.249 . S
O412 C411 1.264 . S
O413 Mg406 1.986 . S
O413 C417 1.246 . S
O414 Mg409 2.032 . S
O414 C417 1.259 . S
O415 Mg406 2.114 . S
O415 C418 1.252 . S
O416 Mg406 2.251 . S
O416 Mg409 2.079 . S
O416 C418 1.273 . S
C417 O413 1.246 . S
C417 O414 1.259 . S
C418 O415 1.252 . S
C418 O416 1.273 . S
O419 Mg406 2.010 . S
O419 C411 1.249 . S
Mg420 O421 2.028 . S
Mg420 O427 1.986 . S
Mg420 O429 2.114 . S
Mg420 O430 2.251 . S
Mg420 O433 2.010 . S
O421 Mg420 2.028 . S
O421 C424 1.250 . S
O422 Mg423 2.028 . S
O422 C424 1.248 . S
Mg423 O422 2.028 . S
Mg423 O428 2.032 . S
Mg423 O430 2.079 . S
C424 O421 1.250 . S
C424 O422 1.248 . S
C425 O426 1.264 . S
C425 O433 1.249 . S
O426 C425 1.264 . S
O427 Mg420 1.986 . S
O427 C431 1.246 . S
O428 Mg423 2.032 . S
O428 C431 1.259 . S
O429 Mg420 2.114 . S
O429 C432 1.252 . S
O430 Mg420 2.251 . S
O430 Mg423 2.079 . S
O430 C432 1.273 . S
C431 O427 1.246 . S
C431 O428 1.259 . S
C432 O429 1.252 . S
C432 O430 1.273 . S
O433 Mg420 2.010 . S
O433 C425 1.249 . S
Mg434 O435 2.028 . S
Mg434 O441 1.986 . S
Mg434 O443 2.114 . S
Mg434 O444 2.251 . S
Mg434 O447 2.010 . S
O435 Mg434 2.028 . S
O435 C438 1.250 . S
O436 Mg437 2.028 . S
O436 C438 1.248 . S
Mg437 O436 2.028 . S
Mg437 O442 2.032 . S
Mg437 O444 2.079 . S
C438 O435 1.250 . S
C438 O436 1.248 . S
C439 O440 1.264 . S
C439 O447 1.249 . S
O440 C439 1.264 . S
O441 Mg434 1.986 . S
O441 C445 1.246 . S
O442 Mg437 2.032 . S
O442 C445 1.259 . S
O443 Mg434 2.114 . S
O443 C446 1.252 . S
O444 Mg434 2.251 . S
O444 Mg437 2.079 . S
O444 C446 1.273 . S
C445 O441 1.246 . S
C445 O442 1.259 . S
C446 O443 1.252 . S
C446 O444 1.273 . S
O447 Mg434 2.010 . S
O447 C439 1.249 . S
C448 C449 1.387 1_556 S
C448 H452 0.950 . S
C448 C457 1.392 . S
C449 C448 1.387 1_554 S
C449 C451 1.387 1_545 S
H450 C457 0.949 1_655 S
C451 C449 1.387 1_565 S
C451 C453 1.390 1_455 S
C451 H455 0.950 . S
H452 C448 0.950 . S
C453 C451 1.390 1_655 S
C453 C454 1.387 1_554 S
C453 H456 0.950 . S
C454 C453 1.387 1_556 S
C454 C457 1.386 1_665 S
H455 C451 0.950 . S
H456 C453 0.950 . S
C457 C448 1.392 . S
C457 H450 0.949 1_455 S
C457 C454 1.386 1_445 S
C458 C459 1.387 . S
C458 H462 0.950 . S
C458 C467 1.390 . S
C459 C458 1.387 . S
C459 C461 1.387 . S
H460 C467 0.950 . S
C461 C459 1.387 . S
C461 C463 1.390 . S
C461 H465 0.950 . S
H462 C458 0.950 . S
C463 C461 1.390 . S
C463 C464 1.387 . S
C463 H466 0.950 . S
C464 C463 1.387 . S
C464 C467 1.387 . S
H465 C461 0.950 . S
H466 C463 0.950 . S
C467 C458 1.390 . S
C467 H460 0.950 . S
C467 C464 1.387 . S
C468 C469 1.387 . S
C468 H472 0.950 . S
C468 C477 1.390 . S
C469 C468 1.387 . S
C469 C471 1.387 1_565 S
H470 C477 0.950 . S
C471 C469 1.387 1_545 S
C471 C473 1.390 . S
C471 H475 0.950 . S
H472 C468 0.950 . S
C473 C471 1.390 . S
C473 C474 1.387 . S
C473 H476 0.950 . S
C474 C473 1.387 . S
C474 C477 1.387 1_545 S
H475 C471 0.950 . S
H476 C473 0.950 . S
C477 C468 1.390 . S
C477 H470 0.950 . S
C477 C474 1.387 1_565 S
C478 C479 1.387 . S
C478 H482 0.950 . S
C478 C487 1.390 . S
C479 C478 1.387 . S
C479 C481 1.387 . S
H480 C487 0.950 . S
C481 C479 1.387 . S
C481 C483 1.390 . S
C481 H485 0.950 . S
H482 C478 0.950 . S
C483 C481 1.390 . S
C483 C484 1.387 . S
C483 H486 0.950 . S
C484 C483 1.387 . S
C484 C487 1.387 . S
H485 C481 0.950 . S
H486 C483 0.950 . S
C487 C478 1.390 . S
C487 H480 0.950 . S
C487 C484 1.387 . S
C488 C489 1.387 1_545 S
C488 H492 0.950 . S
C488 C497 1.390 1_455 S
C489 C488 1.387 1_565 S
C489 C491 1.387 . S
H490 C497 0.950 . S
C491 C489 1.387 . S
C491 C493 1.384 1_565 S
C491 H495 0.950 . S
H492 C488 0.950 . S
C493 C491 1.384 1_545 S
C493 C494 1.394 1_455 S
C493 H496 0.949 1_545 S
C494 C493 1.394 1_655 S
C494 C497 1.387 . S
H495 C491 0.950 . S
H496 C493 0.949 1_565 S
C497 C488 1.390 1_655 S
C497 H490 0.950 . S
C497 C494 1.387 . S
C498 C499 1.387 . S
C498 H502 0.950 . S
C498 C507 1.390 . S
C499 C498 1.387 . S
C499 C501 1.387 . S
H500 C507 0.950 . S
C501 C499 1.387 . S
C501 C503 1.390 . S
C501 H505 0.950 . S
H502 C498 0.950 . S
C503 C501 1.390 . S
C503 C504 1.387 . S
C503 H506 0.950 . S
C504 C503 1.387 . S
C504 C507 1.387 . S
H505 C501 0.950 . S
H506 C503 0.950 . S
C507 C498 1.390 . S
C507 H500 0.950 . S
C507 C504 1.387 . S
C508 C509 1.387 . S
C508 H512 0.950 . S
C508 C517 1.390 1_556 S
C509 C508 1.387 . S
C509 C511 1.387 1_545 S
H510 C517 0.950 . S
C511 C509 1.387 1_565 S
C511 C513 1.390 1_556 S
C511 H515 0.950 . S
H512 C508 0.950 . S
C513 C511 1.390 1_554 S
C513 C514 1.387 . S
C513 H516 0.950 . S
C514 C513 1.387 . S
C514 C517 1.387 1_565 S
H515 C511 0.950 . S
H516 C513 0.950 . S
C517 C508 1.390 1_554 S
C517 H510 0.950 . S
C517 C514 1.387 1_545 S
C518 C519 1.387 . S
C518 H522 0.950 . S
C518 C527 1.390 . S
C519 C518 1.387 . S
C519 C521 1.387 . S
H520 C527 0.950 . S
C521 C519 1.387 . S
C521 C523 1.390 . S
C521 H525 0.950 . S
H522 C518 0.950 . S
C523 C521 1.390 . S
C523 C524 1.387 . S
C523 H526 0.950 . S
C524 C523 1.387 . S
C524 C527 1.387 . S
H525 C521 0.950 . S
H526 C523 0.950 . S
C527 C518 1.390 . S
C527 H520 0.950 . S
C527 C524 1.387 . S
C528 C529 1.387 . S
C528 H532 0.950 . S
C528 C537 1.390 . S
C529 C528 1.387 . S
C529 C531 1.387 1_554 S
H530 C537 0.950 . S
C531 C529 1.387 1_556 S
C531 C533 1.390 . S
C531 H535 0.950 . S
H532 C528 0.950 . S
C533 C531 1.390 . S
C533 C534 1.387 . S
C533 H536 0.950 . S
C534 C533 1.387 . S
C534 C537 1.387 1_556 S
H535 C531 0.950 . S
H536 C533 0.950 . S
C537 C528 1.390 . S
C537 H530 0.950 . S
C537 C534 1.387 1_554 S
C538 C539 1.387 . S
C538 H542 0.950 . S
C538 C547 1.390 . S
C539 C538 1.387 . S
C539 C541 1.387 . S
H540 C547 0.950 . S
C541 C539 1.387 . S
C541 C543 1.390 . S
C541 H545 0.950 . S
H542 C538 0.950 . S
C543 C541 1.390 . S
C543 C544 1.387 . S
C543 H546 0.950 . S
C544 C543 1.387 . S
C544 C547 1.387 . S
H545 C541 0.950 . S
H546 C543 0.950 . S
C547 C538 1.390 . S
C547 H540 0.950 . S
C547 C544 1.387 . S
C548 C549 1.387 1_655 S
C548 H552 0.950 . S
C548 C557 1.390 . S
C549 C548 1.387 1_455 S
C549 C551 1.387 . S
H550 C557 0.950 . S
C551 C549 1.387 . S
C551 C553 1.390 1_455 S
C551 H555 0.950 . S
H552 C548 0.950 . S
C553 C551 1.390 1_655 S
C553 C554 1.387 . S
C553 H556 0.950 . S
C554 C553 1.387 . S
C554 C557 1.387 . S
H555 C551 0.950 . S
H556 C553 0.950 . S
C557 C548 1.390 . S
C557 H550 0.950 . S
C557 C554 1.387 . S
C558 C559 1.387 . S
C558 H562 0.950 . S
C558 C567 1.390 . S
C559 C558 1.387 . S
C559 C561 1.387 . S
H560 C567 0.950 . S
C561 C559 1.387 . S
C561 C563 1.390 . S
C561 H565 0.950 . S
H562 C558 0.950 . S
C563 C561 1.390 . S
C563 C564 1.387 . S
C563 H566 0.950 . S
C564 C563 1.387 . S
C564 C567 1.387 . S
H565 C561 0.950 . S
H566 C563 0.950 . S
C567 C558 1.390 . S
C567 H560 0.950 . S
C567 C564 1.387 . S
C568 C569 1.387 . S
C568 H572 0.950 . S
C568 C577 1.390 . S
C569 C568 1.387 . S
C569 C571 1.387 . S
H570 C577 0.950 . S
C571 C569 1.387 . S
C571 C573 1.390 . S
C571 H575 0.950 . S
H572 C568 0.950 . S
C573 C571 1.390 . S
C573 C574 1.387 . S
C573 H576 0.950 . S
C574 C573 1.387 . S
C574 C577 1.387 . S
H575 C571 0.950 . S
H576 C573 0.950 . S
C577 C568 1.390 . S
C577 H570 0.950 . S
C577 C574 1.387 . S
C578 C579 1.387 . S
C578 H582 0.950 . S
C578 C587 1.390 . S
C579 C578 1.387 . S
C579 C581 1.387 . S
H580 C587 0.950 . S
C581 C579 1.387 . S
C581 C583 1.390 . S
C581 H585 0.950 . S
H582 C578 0.950 . S
C583 C581 1.390 . S
C583 C584 1.387 . S
C583 H586 0.950 . S
C584 C583 1.387 . S
C584 C587 1.387 . S
H585 C581 0.950 . S
H586 C583 0.950 . S
C587 C578 1.390 . S
C587 H580 0.950 . S
C587 C584 1.387 . S
C588 C589 1.387 . S
C588 H592 0.950 . S
C588 C597 1.390 . S
C589 C588 1.387 . S
C589 C591 1.387 . S
H590 C597 0.950 . S
C591 C589 1.387 . S
C591 C593 1.390 . S
C591 H595 0.950 . S
H592 C588 0.950 . S
C593 C591 1.390 . S
C593 C594 1.387 . S
C593 H596 0.950 . S
C594 C593 1.387 . S
C594 C597 1.387 . S
H595 C591 0.950 . S
H596 C593 0.950 . S
C597 C588 1.390 . S
C597 H590 0.950 . S
C597 C594 1.387 . S
C598 C599 1.387 . S
C598 H602 0.950 . S
C598 C607 1.390 1_556 S
C599 C598 1.387 . S
C599 C601 1.403 1_455 S
H600 C607 0.950 . S
C601 C599 1.403 1_655 S
C601 C603 1.374 1_556 S
C601 H605 0.951 . S
H602 C598 0.950 . S
C603 C601 1.374 1_554 S
C603 C604 1.387 . S
C603 H606 0.950 . S
C604 C603 1.387 . S
C604 C607 1.387 1_655 S
H605 C601 0.951 . S
H606 C603 0.950 . S
C607 C598 1.390 1_554 S
C607 H600 0.950 . S
C607 C604 1.387 1_455 S
C608 C609 1.387 1_565 S
C608 H612 0.950 . S
C608 C617 1.390 . S
C609 C608 1.387 1_545 S
C609 C611 1.387 1_545 S
H610 C617 0.950 . S
C611 C609 1.387 1_565 S
C611 C613 1.390 . S
C611 H615 0.950 1_565 S
H612 C608 0.950 . S
C613 C611 1.390 . S
C613 C614 1.387 . S
C613 H616 0.950 . S
C614 C613 1.387 . S
C614 C617 1.387 . S
H615 C611 0.950 1_545 S
H616 C613 0.950 . S
C617 C608 1.390 . S
C617 H610 0.950 . S
C617 C614 1.387 . S
C618 C619 1.387 . S
C618 H622 0.950 . S
C618 C627 1.390 . S
C619 C618 1.387 . S
C619 C621 1.387 . S
H620 C627 0.950 . S
C621 C619 1.387 . S
C621 C623 1.390 . S
C621 H625 0.950 . S
H622 C618 0.950 . S
C623 C621 1.390 . S
C623 C624 1.387 . S
C623 H626 0.950 . S
C624 C623 1.387 . S
C624 C627 1.387 . S
H625 C621 0.950 . S
H626 C623 0.950 . S
C627 C618 1.390 . S
C627 H620 0.950 . S
C627 C624 1.387 . S
C628 C629 1.387 . S
C628 H632 0.950 . S
C628 C637 1.390 . S
C629 C628 1.387 . S
C629 C631 1.387 . S
H630 C637 0.950 1_565 S
C631 C629 1.387 . S
C631 C633 1.390 . S
C631 H635 0.950 . S
H632 C628 0.950 . S
C633 C631 1.390 . S
C633 C634 1.387 1_545 S
C633 H636 0.950 . S
C634 C633 1.387 1_565 S
C634 C637 1.387 1_565 S
H635 C631 0.950 . S
H636 C633 0.950 . S
C637 C628 1.390 . S
C637 H630 0.950 1_545 S
C637 C634 1.387 1_545 S
C638 C639 1.387 . S
C638 H642 0.950 . S
C638 C647 1.390 . S
C639 C638 1.387 . S
C639 C641 1.387 . S
H640 C647 0.950 . S
C641 C639 1.387 . S
C641 C643 1.390 . S
C641 H645 0.950 . S
H642 C638 0.950 . S
C643 C641 1.390 . S
C643 C644 1.387 1_556 S
C643 H646 0.942 1_556 S
C644 C643 1.387 1_554 S
C644 C647 1.387 1_554 S
H645 C641 0.950 . S
H646 C643 0.942 1_554 S
C647 C638 1.390 . S
C647 H640 0.950 . S
C647 C644 1.387 1_556 S
C648 C649 1.387 . S
C648 H652 0.950 . S
C648 C657 1.390 . S
C649 C648 1.387 . S
C649 C651 1.387 . S
H650 C657 0.950 . S
C651 C649 1.387 . S
C651 C653 1.390 . S
C651 H655 0.950 . S
H652 C648 0.950 . S
C653 C651 1.390 . S
C653 C654 1.387 1_545 S
C653 H656 0.950 1_545 S
C654 C653 1.387 1_565 S
C654 C657 1.387 1_565 S
H655 C651 0.950 . S
H656 C653 0.950 1_565 S
C657 C648 1.390 . S
C657 H650 0.950 . S
C657 C654 1.387 1_545 S
C658 C659 1.387 . S
C658 H662 0.950 . S
C658 C667 1.390 . S
C659 C658 1.387 . S
C659 C661 1.387 . S
H660 C667 0.950 . S
C661 C659 1.387 . S
C661 C663 1.390 . S
C661 H665 0.950 . S
H662 C658 0.950 . S
C663 C661 1.390 . S
C663 C664 1.387 . S
C663 H666 0.950 . S
C664 C663 1.387 . S
C664 C667 1.387 . S
H665 C661 0.950 . S
H666 C663 0.950 . S
C667 C658 1.390 . S
C667 H660 0.950 . S
C667 C664 1.387 . S
C668 C669 1.387 1_565 S
C668 H672 0.950 . S
C668 C677 1.390 . S
C669 C668 1.387 1_545 S
C669 C671 1.387 1_545 S
H670 C677 0.950 . S
C671 C669 1.387 1_565 S
C671 C673 1.390 . S
C671 H675 0.950 . S
H672 C668 0.950 . S
C673 C671 1.390 . S
C673 C674 1.387 . S
C673 H676 0.950 . S
C674 C673 1.387 . S
C674 C677 1.387 . S
H675 C671 0.950 . S
H676 C673 0.950 . S
C677 C668 1.390 . S
C677 H670 0.950 . S
C677 C674 1.387 . S
C678 C679 1.387 1_554 S
C678 H682 0.950 1_554 S
C678 C687 1.390 . S
C679 C678 1.387 1_556 S
C679 C681 1.387 1_556 S
H680 C687 0.950 . S
C681 C679 1.387 1_554 S
C681 C683 1.390 . S
C681 H685 0.950 . S
H682 C678 0.950 1_556 S
C683 C681 1.390 . S
C683 C684 1.387 . S
C683 H686 0.950 . S
C684 C683 1.387 . S
C684 C687 1.387 . S
H685 C681 0.950 . S
H686 C683 0.950 . S
C687 C678 1.390 . S
C687 H680 0.950 . S
C687 C684 1.387 . S
C688 C689 1.387 . S
C688 H692 0.950 . S
C688 C697 1.390 . S
C689 C688 1.387 . S
C689 C691 1.380 1_655 S
H690 C697 0.950 . S
C691 C689 1.380 1_455 S
C691 C693 1.395 . S
C691 H695 0.952 . S
H692 C688 0.950 . S
C693 C691 1.395 . S
C693 C694 1.387 . S
C693 H696 0.950 . S
C694 C693 1.387 . S
C694 C697 1.387 1_455 S
H695 C691 0.952 . S
H696 C693 0.950 . S
C697 C688 1.390 . S
C697 H690 0.950 . S
C697 C694 1.387 1_655 S
C698 C699 1.387 . S
C698 H702 0.950 . S
C698 C707 1.390 . S
C699 C698 1.387 . S
C699 C701 1.387 . S
H700 C707 0.950 . S
C701 C699 1.387 . S
C701 C703 1.390 . S
C701 H705 0.950 . S
H702 C698 0.950 . S
C703 C701 1.390 . S
C703 C704 1.387 . S
C703 H706 0.950 . S
C704 C703 1.387 . S
C704 C707 1.387 . S
H705 C701 0.950 . S
H706 C703 0.950 . S
C707 C698 1.390 . S
C707 H700 0.950 . S
C707 C704 1.387 . S
C708 C709 1.387 . S
C708 H712 0.950 . S
C708 C717 1.390 1_655 S
C709 C708 1.387 . S
C709 C711 1.387 . S
H710 C717 0.950 . S
C711 C709 1.387 . S
C711 C713 1.390 1_655 S
C711 H715 0.950 . S
H712 C708 0.950 . S
C713 C711 1.390 1_455 S
C713 C714 1.387 . S
C713 H716 0.950 . S
C714 C713 1.387 . S
C714 C717 1.387 . S
H715 C711 0.950 . S
H716 C713 0.950 . S
C717 C708 1.390 1_455 S
C717 H710 0.950 . S
C717 C714 1.387 . S
C718 C719 1.387 . S
C718 H722 0.950 . S
C718 C727 1.390 1_655 S
C719 C718 1.387 . S
C719 C721 1.387 1_655 S
H720 C727 0.950 . S
C721 C719 1.387 1_455 S
C721 C723 1.390 . S
C721 H725 0.950 1_455 S
H722 C718 0.950 . S
C723 C721 1.390 . S
C723 C724 1.387 . S
C723 H726 0.950 . S
C724 C723 1.387 . S
C724 C727 1.387 . S
H725 C721 0.950 1_655 S
H726 C723 0.950 . S
C727 C718 1.390 1_455 S
C727 H720 0.950 . S
C727 C724 1.387 . S
C728 C729 1.387 . S
C728 H732 0.950 . S
C728 C737 1.390 . S
C729 C728 1.387 . S
C729 C731 1.387 . S
H730 C737 0.950 . S
C731 C729 1.387 . S
C731 C733 1.390 . S
C731 H735 0.950 . S
H732 C728 0.950 . S
C733 C731 1.390 . S
C733 C734 1.387 . S
C733 H736 0.950 . S
C734 C733 1.387 . S
C734 C737 1.387 . S
H735 C731 0.950 . S
H736 C733 0.950 . S
C737 C728 1.390 . S
C737 H730 0.950 . S
C737 C734 1.387 . S
C738 C739 1.387 . S
C738 H742 0.950 . S
C738 C747 1.390 . S
C739 C738 1.387 . S
C739 C741 1.387 . S
H740 C747 0.950 1_455 S
C741 C739 1.387 . S
C741 C743 1.390 1_655 S
C741 H745 0.950 . S
H742 C738 0.950 . S
C743 C741 1.390 1_455 S
C743 C744 1.387 . S
C743 H746 0.950 . S
C744 C743 1.387 . S
C744 C747 1.387 1_455 S
H745 C741 0.950 . S
H746 C743 0.950 . S
C747 C738 1.390 . S
C747 H740 0.950 1_655 S
C747 C744 1.387 1_655 S
C748 C749 1.387 . S
C748 H752 0.950 . S
C748 C757 1.390 . S
C749 C748 1.387 . S
C749 C751 1.387 . S
H750 C757 0.950 . S
C751 C749 1.387 . S
C751 C753 1.390 . S
C751 H755 0.950 . S
H752 C748 0.950 . S
C753 C751 1.390 . S
C753 C754 1.387 . S
C753 H756 0.950 . S
C754 C753 1.387 . S
C754 C757 1.387 . S
H755 C751 0.950 . S
H756 C753 0.950 . S
C757 C748 1.390 . S
C757 H750 0.950 . S
C757 C754 1.387 . S
C758 C759 1.387 . S
C758 H762 0.950 . S
C758 C767 1.390 . S
C759 C758 1.387 . S
C759 C761 1.387 . S
H760 C767 0.950 1_565 S
C761 C759 1.387 . S
C761 C763 1.390 . S
C761 H765 0.950 . S
H762 C758 0.950 . S
C763 C761 1.390 . S
C763 C764 1.387 1_545 S
C763 H766 0.950 . S
C764 C763 1.387 1_565 S
C764 C767 1.387 1_565 S
H765 C761 0.950 . S
H766 C763 0.950 . S
C767 C758 1.390 . S
C767 H760 0.950 1_545 S
C767 C764 1.387 1_545 S
C768 C769 1.387 . S
C768 H772 0.950 . S
C768 C777 1.390 . S
C769 C768 1.387 . S
C769 C771 1.387 . S
H770 C777 0.950 . S
C771 C769 1.387 . S
C771 C773 1.390 . S
C771 H775 0.950 . S
H772 C768 0.950 . S
C773 C771 1.390 . S
C773 C774 1.387 . S
C773 H776 0.950 . S
C774 C773 1.387 . S
C774 C777 1.387 . S
H775 C771 0.950 . S
H776 C773 0.950 . S
C777 C768 1.390 . S
C777 H770 0.950 . S
C777 C774 1.387 . S
C778 C779 1.387 . S
C778 H782 0.950 . S
C778 C787 1.390 . S
C779 C778 1.387 . S
C779 C781 1.387 . S
H780 C787 0.946 1_545 S
C781 C779 1.387 . S
C781 C783 1.390 . S
C781 H785 0.950 . S
H782 C778 0.950 . S
C783 C781 1.390 . S
C783 C784 1.387 1_565 S
C783 H786 0.946 1_565 S
C784 C783 1.387 1_545 S
C784 C787 1.387 1_545 S
H785 C781 0.950 . S
H786 C783 0.946 1_545 S
C787 C778 1.390 . S
C787 H780 0.946 1_565 S
C787 C784 1.387 1_565 S
C788 C789 1.387 1_554 S
C788 H792 0.950 1_554 S
C788 C797 1.390 . S
C789 C788 1.387 1_556 S
C789 C791 1.387 1_556 S
H790 C797 0.950 . S
C791 C789 1.387 1_554 S
C791 C793 1.390 . S
C791 H795 0.950 1_554 S
H792 C788 0.950 1_556 S
C793 C791 1.390 . S
C793 C794 1.387 . S
C793 H796 0.950 . S
C794 C793 1.387 . S
C794 C797 1.387 . S
H795 C791 0.950 1_556 S
H796 C793 0.950 . S
C797 C788 1.390 . S
C797 H790 0.950 . S
C797 C794 1.387 . S
C798 C799 1.387 . S
C798 H802 0.950 . S
C798 C807 1.390 1_545 S
C799 C798 1.387 . S
C799 C801 1.387 1_545 S
H800 C807 0.950 . S
C801 C799 1.387 1_565 S
C801 C803 1.390 . S
C801 H805 0.950 . S
H802 C798 0.950 . S
C803 C801 1.390 . S
C803 C804 1.387 . S
C803 H806 0.950 . S
C804 C803 1.387 . S
C804 C807 1.387 . S
H805 C801 0.950 . S
H806 C803 0.950 . S
C807 C798 1.390 1_565 S
C807 H800 0.950 . S
C807 C804 1.387 . S
C808 C809 1.387 . S
C808 H812 0.950 . S
C808 C817 1.390 . S
C809 C808 1.387 . S
C809 C811 1.387 . S
H810 C817 0.950 . S
C811 C809 1.387 . S
C811 C813 1.390 . S
C811 H815 0.950 . S
H812 C808 0.950 . S
C813 C811 1.390 . S
C813 C814 1.387 . S
C813 H816 0.950 . S
C814 C813 1.387 . S
C814 C817 1.387 . S
H815 C811 0.950 . S
H816 C813 0.950 . S
C817 C808 1.390 . S
C817 H810 0.950 . S
C817 C814 1.387 . S
C818 C819 1.387 . S
C818 H822 0.950 . S
C818 C827 1.390 1_565 S
C819 C818 1.387 . S
C819 C821 1.387 1_565 S
H820 C827 0.950 . S
C821 C819 1.387 1_545 S
C821 C823 1.390 . S
C821 H825 0.950 . S
H822 C818 0.950 . S
C823 C821 1.390 . S
C823 C824 1.387 . S
C823 H826 0.950 . S
C824 C823 1.387 . S
C824 C827 1.387 . S
H825 C821 0.950 . S
H826 C823 0.950 . S
C827 C818 1.390 1_545 S
C827 H820 0.950 . S
C827 C824 1.387 . S
C828 C829 1.387 1_556 S
C828 H832 0.950 . S
C828 C837 1.390 . S
C829 C828 1.387 1_554 S
C829 C831 1.387 1_554 S
H830 C837 0.950 . S
C831 C829 1.387 1_556 S
C831 C833 1.390 . S
C831 H835 0.950 1_556 S
H832 C828 0.950 . S
C833 C831 1.390 . S
C833 C834 1.387 . S
C833 H836 0.950 . S
C834 C833 1.387 . S
C834 C837 1.387 . S
H835 C831 0.950 1_554 S
H836 C833 0.950 . S
C837 C828 1.390 . S
C837 H830 0.950 . S
C837 C834 1.387 . S
C838 C839 1.387 1_455 S
C838 H842 0.950 1_455 S
C838 C847 1.390 . S
C839 C838 1.387 1_655 S
C839 C841 1.387 1_655 S
H840 C847 0.950 . S
C841 C839 1.387 1_455 S
C841 C843 1.390 . S
C841 H845 0.950 1_455 S
H842 C838 0.950 1_655 S
C843 C841 1.390 . S
C843 C844 1.387 . S
C843 H846 0.950 . S
C844 C843 1.387 . S
C844 C847 1.387 . S
H845 C841 0.950 1_655 S
H846 C843 0.950 . S
C847 C838 1.390 . S
C847 H840 0.950 . S
C847 C844 1.387 . S
C848 C849 1.387 . S
C848 H852 0.950 . S
C848 C857 1.390 . S
C849 C848 1.387 . S
C849 C851 1.387 . S
H850 C857 0.950 . S
C851 C849 1.387 . S
C851 C853 1.390 . S
C851 H855 0.950 . S
H852 C848 0.950 . S
C853 C851 1.390 . S
C853 C854 1.387 . S
C853 H856 0.950 . S
C854 C853 1.387 . S
C854 C857 1.387 . S
H855 C851 0.950 . S
H856 C853 0.950 . S
C857 C848 1.390 . S
C857 H850 0.950 . S
C857 C854 1.387 . S
C858 C859 1.387 1_655 S
C858 H862 0.950 . S
C858 C867 1.390 . S
C859 C858 1.387 1_455 S
C859 C861 1.387 1_455 S
H860 C867 0.950 . S
C861 C859 1.387 1_655 S
C861 C863 1.390 . S
C861 H865 0.959 . S
H862 C858 0.950 . S
C863 C861 1.390 . S
C863 C864 1.387 . S
C863 H866 0.950 . S
C864 C863 1.387 . S
C864 C867 1.387 . S
H865 C861 0.959 . S
H866 C863 0.950 . S
C867 C858 1.390 . S
C867 H860 0.950 . S
C867 C864 1.387 . S
C868 C869 1.387 1_655 S
C868 H872 0.950 . S
C868 C877 1.390 . S
C869 C868 1.387 1_455 S
C869 C871 1.387 . S
H870 C877 0.950 . S
C871 C869 1.387 . S
C871 C873 1.390 1_455 S
C871 H875 0.950 . S
H872 C868 0.950 . S
C873 C871 1.390 1_655 S
C873 C874 1.387 . S
C873 H876 0.950 . S
C874 C873 1.387 . S
C874 C877 1.387 . S
H875 C871 0.950 . S
H876 C873 0.950 . S
C877 C868 1.390 . S
C877 H870 0.950 . S
C877 C874 1.387 . S
C878 C879 1.387 . S
C878 H882 0.950 . S
C878 C887 1.390 . S
C879 C878 1.387 . S
C879 C881 1.387 . S
H880 C887 0.950 . S
C881 C879 1.387 . S
C881 C883 1.390 . S
C881 H885 0.950 . S
H882 C878 0.950 . S
C883 C881 1.390 . S
C883 C884 1.387 . S
C883 H886 0.950 . S
C884 C883 1.387 . S
C884 C887 1.387 . S
H885 C881 0.950 . S
H886 C883 0.950 . S
C887 C878 1.390 . S
C887 H880 0.950 . S
C887 C884 1.387 . S
C888 C889 1.387 1_455 S
C888 H892 0.950 . S
C888 C897 1.390 . S
C889 C888 1.387 1_655 S
C889 C891 1.387 1_655 S
H890 C897 0.950 . S
C891 C889 1.387 1_455 S
C891 C893 1.390 . S
C891 H895 0.943 1_455 S
H892 C888 0.950 . S
C893 C891 1.390 . S
C893 C894 1.387 . S
C893 H896 0.950 . S
C894 C893 1.387 . S
C894 C897 1.387 . S
H895 C891 0.943 1_655 S
H896 C893 0.950 . S
C897 C888 1.390 . S
C897 H890 0.950 . S
C897 C894 1.387 . S
C898 C899 1.387 . S
C898 H902 0.950 . S
C898 C907 1.390 . S
C899 C898 1.387 . S
C899 C901 1.387 . S
H900 C907 0.950 . S
C901 C899 1.387 . S
C901 C903 1.390 . S
C901 H905 0.950 . S
H902 C898 0.950 . S
C903 C901 1.390 . S
C903 C904 1.387 . S
C903 H906 0.950 . S
C904 C903 1.387 . S
C904 C907 1.387 . S
H905 C901 0.950 . S
H906 C903 0.950 . S
C907 C898 1.390 . S
C907 H900 0.950 . S
C907 C904 1.387 . S
C908 C909 1.387 . S
C908 H912 0.950 . S
C908 C917 1.390 . S
C909 C908 1.387 . S
C909 C911 1.387 . S
H910 C917 0.950 . S
C911 C909 1.387 . S
C911 C913 1.390 . S
C911 H915 0.950 . S
H912 C908 0.950 . S
C913 C911 1.390 . S
C913 C914 1.387 . S
C913 H916 0.950 . S
C914 C913 1.387 . S
C914 C917 1.387 . S
H915 C911 0.950 . S
H916 C913 0.950 . S
C917 C908 1.390 . S
C917 H910 0.950 . S
C917 C914 1.387 . S
C918 C919 1.387 1_556 S
C918 H922 0.950 1_556 S
C918 C927 1.390 . S
C919 C918 1.387 1_554 S
C919 C921 1.387 1_554 S
H920 C927 0.950 . S
C921 C919 1.387 1_556 S
C921 C923 1.390 . S
C921 H925 0.950 . S
H922 C918 0.950 1_554 S
C923 C921 1.390 . S
C923 C924 1.387 . S
C923 H926 0.950 . S
C924 C923 1.387 . S
C924 C927 1.387 . S
H925 C921 0.950 . S
H926 C923 0.950 . S
C927 C918 1.390 . S
C927 H920 0.950 . S
C927 C924 1.387 . S
C928 C929 1.387 . S
C928 H932 0.950 . S
C928 C937 1.390 . S
C929 C928 1.387 . S
C929 C931 1.387 . S
H930 C937 0.950 . S
C931 C929 1.387 . S
C931 C933 1.390 . S
C931 H935 0.950 . S
H932 C928 0.950 . S
C933 C931 1.390 . S
C933 C934 1.387 . S
C933 H936 0.950 . S
C934 C933 1.387 . S
C934 C937 1.387 . S
H935 C931 0.950 . S
H936 C933 0.950 . S
C937 C928 1.390 . S
C937 H930 0.950 . S
C937 C934 1.387 . S
C938 C939 1.387 . S
C938 H942 0.950 . S
C938 C947 1.390 . S
C939 C938 1.387 . S
C939 C941 1.387 . S
H940 C947 0.950 . S
C941 C939 1.387 . S
C941 C943 1.390 . S
C941 H945 0.950 . S
H942 C938 0.950 . S
C943 C941 1.390 . S
C943 C944 1.387 . S
C943 H946 0.950 . S
C944 C943 1.387 . S
C944 C947 1.387 . S
H945 C941 0.950 . S
H946 C943 0.950 . S
C947 C938 1.390 . S
C947 H940 0.950 . S
C947 C944 1.387 . S
C948 C949 1.387 . S
C948 H952 0.950 . S
C948 C957 1.390 . S
C949 C948 1.387 . S
C949 C951 1.387 . S
H950 C957 0.950 . S
C951 C949 1.387 . S
C951 C953 1.390 . S
C951 H955 0.950 . S
H952 C948 0.950 . S
C953 C951 1.390 . S
C953 C954 1.387 . S
C953 H956 0.950 . S
C954 C953 1.387 . S
C954 C957 1.387 . S
H955 C951 0.950 . S
H956 C953 0.950 . S
C957 C948 1.390 . S
C957 H950 0.950 . S
C957 C954 1.387 . S
C958 C959 1.387 . S
C958 H962 0.950 . S
C958 C967 1.390 . S
C959 C958 1.387 . S
C959 C961 1.387 . S
H960 C967 0.940 1_556 S
C961 C959 1.387 . S
C961 C963 1.390 . S
C961 H965 0.950 . S
H962 C958 0.950 . S
C963 C961 1.390 . S
C963 C964 1.387 1_554 S
C963 H966 0.950 . S
C964 C963 1.387 1_556 S
C964 C967 1.387 1_556 S
H965 C961 0.950 . S
H966 C963 0.950 . S
C967 C958 1.390 . S
C967 H960 0.940 1_554 S
C967 C964 1.387 1_554 S
C968 C969 1.387 . S
C968 H972 0.950 . S
C968 C977 1.390 . S
C969 C968 1.387 . S
C969 C971 1.387 . S
H970 C977 0.950 . S
C971 C969 1.387 . S
C971 C973 1.390 . S
C971 H975 0.950 . S
H972 C968 0.950 . S
C973 C971 1.390 . S
C973 C974 1.387 . S
C973 H976 0.950 . S
C974 C973 1.387 . S
C974 C977 1.387 . S
H975 C971 0.950 . S
H976 C973 0.950 . S
C977 C968 1.390 . S
C977 H970 0.950 . S
C977 C974 1.387 . S
C978 C979 1.387 . S
C978 H982 0.950 . S
C978 C987 1.390 . S
C979 C978 1.387 . S
C979 C981 1.387 . S
H980 C987 0.950 . S
C981 C979 1.387 . S
C981 C983 1.390 . S
C981 H985 0.950 . S
H982 C978 0.950 . S
C983 C981 1.390 . S
C983 C984 1.387 . S
C983 H986 0.950 . S
C984 C983 1.387 . S
C984 C987 1.387 . S
H985 C981 0.950 . S
H986 C983 0.950 . S
C987 C978 1.390 . S
C987 H980 0.950 . S
C987 C984 1.387 . S
C988 C989 1.387 . S
C988 H992 0.950 . S
C988 C997 1.390 . S
C989 C988 1.387 . S
C989 C991 1.387 . S
H990 C997 0.950 . S
C991 C989 1.387 . S
C991 C993 1.390 . S
C991 H995 0.950 . S
H992 C988 0.950 . S
C993 C991 1.390 . S
C993 C994 1.387 . S
C993 H996 0.950 . S
C994 C993 1.387 . S
C994 C997 1.387 . S
H995 C991 0.950 . S
H996 C993 0.950 . S
C997 C988 1.390 . S
C997 H990 0.950 . S
C997 C994 1.387 . S
C998 C999 1.387 . S
C998 H1002 0.950 . S
C998 C1007 1.390 . S
C999 C998 1.387 . S
C999 C1001 1.387 . S
H1000 C1007 0.950 . S
C1001 C999 1.387 . S
C1001 C1003 1.390 . S
C1001 H1005 0.950 . S
H1002 C998 0.950 . S
C1003 C1001 1.390 . S
C1003 C1004 1.387 . S
C1003 H1006 0.950 . S
C1004 C1003 1.387 . S
C1004 C1007 1.387 . S
H1005 C1001 0.950 . S
H1006 C1003 0.950 . S
C1007 C998 1.390 . S
C1007 H1000 0.950 . S
C1007 C1004 1.387 . S
C1008 C1009 1.387 . S
C1008 H1012 0.950 . S
C1008 C1017 1.390 . S
C1009 C1008 1.387 . S
C1009 C1011 1.387 . S
H1010 C1017 0.950 1_556 S
C1011 C1009 1.387 . S
C1011 C1013 1.390 . S
C1011 H1015 0.950 . S
H1012 C1008 0.950 . S
C1013 C1011 1.390 . S
C1013 C1014 1.387 1_554 S
C1013 H1016 0.950 . S
C1014 C1013 1.387 1_556 S
C1014 C1017 1.387 1_556 S
H1015 C1011 0.950 . S
H1016 C1013 0.950 . S
C1017 C1008 1.390 . S
C1017 H1010 0.950 1_554 S
C1017 C1014 1.387 1_554 S
C1018 C1019 1.387 . S
C1018 H1022 0.950 . S
C1018 C1027 1.390 . S
C1019 C1018 1.387 . S
C1019 C1021 1.387 . S
H1020 C1027 0.950 . S
C1021 C1019 1.387 . S
C1021 C1023 1.390 . S
C1021 H1025 0.950 . S
H1022 C1018 0.950 . S
C1023 C1021 1.390 . S
C1023 C1024 1.387 . S
C1023 H1026 0.950 . S
C1024 C1023 1.387 . S
C1024 C1027 1.387 . S
H1025 C1021 0.950 . S
H1026 C1023 0.950 . S
C1027 C1018 1.390 . S
C1027 H1020 0.950 . S
C1027 C1024 1.387 . S
C1028 C1029 1.387 . S
C1028 H1032 0.950 . S
C1028 C1037 1.390 . S
C1029 C1028 1.387 . S
C1029 C1031 1.387 . S
H1030 C1037 0.950 . S
C1031 C1029 1.387 . S
C1031 C1033 1.390 . S
C1031 H1035 0.950 . S
H1032 C1028 0.950 . S
C1033 C1031 1.390 . S
C1033 C1034 1.387 . S
C1033 H1036 0.950 . S
C1034 C1033 1.387 . S
C1034 C1037 1.387 . S
H1035 C1031 0.950 . S
H1036 C1033 0.950 . S
C1037 C1028 1.390 . S
C1037 H1030 0.950 . S
C1037 C1034 1.387 . S
C1038 C1039 1.387 . S
C1038 H1042 0.950 . S
C1038 C1047 1.390 . S
C1039 C1038 1.387 . S
C1039 C1041 1.387 . S
H1040 C1047 0.950 . S
C1041 C1039 1.387 . S
C1041 C1043 1.390 . S
C1041 H1045 0.950 . S
H1042 C1038 0.950 . S
C1043 C1041 1.390 . S
C1043 C1044 1.387 . S
C1043 H1046 0.950 . S
C1044 C1043 1.387 . S
C1044 C1047 1.387 . S
H1045 C1041 0.950 . S
H1046 C1043 0.950 . S
C1047 C1038 1.390 . S
C1047 H1040 0.950 . S
C1047 C1044 1.387 . S
C1048 C1049 1.387 1_556 S
C1048 H1052 0.950 1_556 S
C1048 C1057 1.390 . S
C1049 C1048 1.387 1_554 S
C1049 C1051 1.387 1_554 S
H1050 C1057 0.950 . S
C1051 C1049 1.387 1_556 S
C1051 C1053 1.390 . S
C1051 H1055 0.950 . S
H1052 C1048 0.950 1_554 S
C1053 C1051 1.390 . S
C1053 C1054 1.387 . S
C1053 H1056 0.950 . S
C1054 C1053 1.387 . S
C1054 C1057 1.387 . S
H1055 C1051 0.950 . S
H1056 C1053 0.950 . S
C1057 C1048 1.390 . S
C1057 H1050 0.950 . S
C1057 C1054 1.387 . S
C1058 C1059 1.387 . S
C1058 H1062 0.950 . S
C1058 C1067 1.390 . S
C1059 C1058 1.387 . S
C1059 C1061 1.387 . S
H1060 C1067 0.950 . S
C1061 C1059 1.387 . S
C1061 C1063 1.390 . S
C1061 H1065 0.950 . S
H1062 C1058 0.950 . S
C1063 C1061 1.390 . S
C1063 C1064 1.387 . S
C1063 H1066 0.950 . S
C1064 C1063 1.387 . S
C1064 C1067 1.387 . S
H1065 C1061 0.950 . S
H1066 C1063 0.950 . S
C1067 C1058 1.390 . S
C1067 H1060 0.950 . S
C1067 C1064 1.387 . S
C1068 C1069 1.387 . S
C1068 H1072 0.950 . S
C1068 C1077 1.390 . S
C1069 C1068 1.387 . S
C1069 C1071 1.387 . S
H1070 C1077 0.950 . S
C1071 C1069 1.387 . S
C1071 C1073 1.390 . S
C1071 H1075 0.950 . S
H1072 C1068 0.950 . S
C1073 C1071 1.390 . S
C1073 C1074 1.387 . S
C1073 H1076 0.950 . S
C1074 C1073 1.387 . S
C1074 C1077 1.387 . S
H1075 C1071 0.950 . S
H1076 C1073 0.950 . S
C1077 C1068 1.390 . S
C1077 H1070 0.950 . S
C1077 C1074 1.387 . S
C1078 C1079 1.387 . S
C1078 H1082 0.950 . S
C1078 C1087 1.390 . S
C1079 C1078 1.387 . S
C1079 C1081 1.387 . S
H1080 C1087 0.950 . S
C1081 C1079 1.387 . S
C1081 C1083 1.390 . S
C1081 H1085 0.950 . S
H1082 C1078 0.950 . S
C1083 C1081 1.390 . S
C1083 C1084 1.387 . S
C1083 H1086 0.950 . S
C1084 C1083 1.387 . S
C1084 C1087 1.387 . S
H1085 C1081 0.950 . S
H1086 C1083 0.950 . S
C1087 C1078 1.390 . S
C1087 H1080 0.950 . S
C1087 C1084 1.387 . S
C449 C4 1.297 . S
C454 C186 1.293 . S
C459 C354 1.277 . S
C464 C18 1.274 . S
C469 C32 1.330 . S
C474 C214 1.326 . S
C479 C46 1.317 . S
C484 C340 1.309 . S
C489 C60 1.285 . S
C494 C242 1.289 . S
C499 C74 1.318 . S
C504 C312 1.318 . S
C509 C88 1.288 . S
C514 C270 1.287 . S
C519 C438 1.298 . S
C524 C102 1.298 . S
C529 C298 1.288 . S
C534 C116 1.283 . S
C539 C130 1.316 . S
C544 C256 1.316 . S
C549 C326 1.288 . S
C554 C144 1.289 . S
C559 C158 1.317 . S
C564 C228 1.311 . S
C569 C200 1.276 . S
C574 C172 1.273 . S
C579 C284 1.300 . S
C584 C396 1.301 . S
C589 C410 1.294 . S
C594 C368 1.300 . S
C599 C424 1.326 . S
C604 C382 1.330 . S
C609 C12 1.534 . S
C614 C26 1.534 . S
C619 C33 1.378 . S
C624 C25 1.484 . S
C629 C54 1.536 . S
C634 C40 1.537 . S
C639 C53 1.511 . S
C644 C5 1.406 . S
C649 C110 1.521 . S
C654 C68 1.518 . S
C659 C81 1.513 . S
C664 C61 1.401 . S
C669 C96 1.504 . S
C674 C82 1.507 . S
C679 C89 1.405 . S
C684 C109 1.517 . S
C689 C131 1.410 . S
C694 C11 1.516 . S
C699 C123 1.465 . S
C704 C47 1.362 . S
C709 C151 1.502 . S
C714 C19 1.395 . S
C719 C389 1.526 . S
C724 C103 1.421 . S
C729 C397 1.421 . S
C734 C39 1.526 . S
C739 C159 1.367 . S
C744 C67 1.468 . S
C749 C95 1.502 . S
C754 C173 1.395 . S
C759 C201 1.351 . S
C764 C187 1.387 . S
C769 C222 1.483 . S
C774 C207 1.434 . S
C779 C229 1.361 . S
C784 C215 1.374 . S
C789 C194 1.488 . S
C794 C235 1.433 . S
C799 C243 1.368 . S
C804 C291 1.463 . S
C809 C250 1.581 . S
C814 C264 1.577 . S
C819 C277 1.514 . S
C824 C263 1.510 . S
C829 C271 1.393 . S
C834 C292 1.526 . S
C839 C193 1.453 . S
C844 C313 1.381 . S
C849 C305 1.463 . S
C854 C236 1.522 . S
C859 C334 1.550 . S
C864 C208 1.554 . S
C869 C431 1.407 . S
C874 C285 1.330 . S
C879 C439 1.330 . S
C884 C221 1.406 . S
C889 C249 1.464 . S
C894 C348 1.521 . S
C899 C362 1.554 . S
C904 C278 1.550 . S
C909 C180 1.534 . S
C914 C376 1.535 . S
C919 C383 1.382 . S
C924 C179 1.487 . S
C929 C166 1.537 . S
C934 C390 1.536 . S
C939 C165 1.514 . S
C944 C369 1.410 . S
C949 C124 1.518 . S
C954 C404 1.521 . S
C959 C137 1.513 . S
C964 C117 1.401 . S
C969 C152 1.505 . S
C974 C138 1.506 . S
C979 C145 1.401 . S
C984 C403 1.514 . S
C989 C375 1.517 . S
C994 C75 1.411 . S
C999 C355 1.350 . S
C1004 C411 1.387 . S
C1009 C361 1.433 . S
C1014 C432 1.484 . S
C1019 C425 1.369 . S
C1024 C341 1.366 . S
C1029 C347 1.433 . S
C1034 C418 1.489 . S
C1039 C445 1.463 . S
C1044 C299 1.363 . S
C1049 C306 1.581 . S
C1054 C320 1.577 . S
C1059 C333 1.516 . S
C1064 C319 1.513 . S
C1069 C327 1.389 . S
C1074 C446 1.525 . S
C1079 C417 1.454 . S
C1084 C257 1.385 . S
