# Generated by pormake.
# Topology fcg, (5)-cn, num edge types: 1
# Building blocks:
#     Node 0, Type 0, BuildingBlock: XOMCOT_clean_sbu_1, # of connection points: 5
#     Node 1, Type 0, BuildingBlock: XOMCOT_clean_sbu_1, # of connection points: 5
#     Node 2, Type 0, BuildingBlock: XOMCOT_clean_sbu_1, # of connection points: 5
#     Node 3, Type 0, BuildingBlock: XOMCOT_clean_sbu_1, # of connection points: 5
#     Node 4, Type 0, BuildingBlock: XOMCOT_clean_sbu_1, # of connection points: 5
#     Node 5, Type 0, BuildingBlock: XOMCOT_clean_sbu_1, # of connection points: 5
#     Node 6, Type 0, BuildingBlock: XOMCOT_clean_sbu_1, # of connection points: 5
#     Node 7, Type 0, BuildingBlock: XOMCOT_clean_sbu_1, # of connection points: 5
#     Node 8, Type 0, BuildingBlock: XOMCOT_clean_sbu_1, # of connection points: 5
#     Node 9, Type 0, BuildingBlock: XOMCOT_clean_sbu_1, # of connection points: 5
#     Node 10, Type 0, BuildingBlock: XOMCOT_clean_sbu_1, # of connection points: 5
#     Node 11, Type 0, BuildingBlock: XOMCOT_clean_sbu_1, # of connection points: 5
#     Node 12, Type 0, BuildingBlock: XOMCOT_clean_sbu_1, # of connection points: 5
#     Node 13, Type 0, BuildingBlock: XOMCOT_clean_sbu_1, # of connection points: 5
#     Node 14, Type 0, BuildingBlock: XOMCOT_clean_sbu_1, # of connection points: 5
#     Node 15, Type 0, BuildingBlock: XOMCOT_clean_sbu_1, # of connection points: 5
#     Node 16, Type 0, BuildingBlock: XOMCOT_clean_sbu_1, # of connection points: 5
#     Node 17, Type 0, BuildingBlock: XOMCOT_clean_sbu_1, # of connection points: 5
#     Node 18, Type 0, BuildingBlock: XOMCOT_clean_sbu_1, # of connection points: 5
#     Node 19, Type 0, BuildingBlock: XOMCOT_clean_sbu_1, # of connection points: 5
#     Node 20, Type 0, BuildingBlock: XOMCOT_clean_sbu_1, # of connection points: 5
#     Node 21, Type 0, BuildingBlock: XOMCOT_clean_sbu_1, # of connection points: 5
#     Node 22, Type 0, BuildingBlock: XOMCOT_clean_sbu_1, # of connection points: 5
#     Node 23, Type 0, BuildingBlock: XOMCOT_clean_sbu_1, # of connection points: 5
#     Node 24, Type 0, BuildingBlock: XOMCOT_clean_sbu_1, # of connection points: 5
#     Node 25, Type 0, BuildingBlock: XOMCOT_clean_sbu_1, # of connection points: 5
#     Node 26, Type 0, BuildingBlock: XOMCOT_clean_sbu_1, # of connection points: 5
#     Node 27, Type 0, BuildingBlock: XOMCOT_clean_sbu_1, # of connection points: 5
#     Node 28, Type 0, BuildingBlock: XOMCOT_clean_sbu_1, # of connection points: 5
#     Node 29, Type 0, BuildingBlock: XOMCOT_clean_sbu_1, # of connection points: 5
#     Node 30, Type 0, BuildingBlock: XOMCOT_clean_sbu_1, # of connection points: 5
#     Node 31, Type 0, BuildingBlock: XOMCOT_clean_sbu_1, # of connection points: 5
#     Node 32, Type 0, BuildingBlock: XOMCOT_clean_sbu_1, # of connection points: 5
#     Node 33, Type 0, BuildingBlock: XOMCOT_clean_sbu_1, # of connection points: 5
#     Node 34, Type 0, BuildingBlock: XOMCOT_clean_sbu_1, # of connection points: 5
#     Node 35, Type 0, BuildingBlock: XOMCOT_clean_sbu_1, # of connection points: 5
#     Node 36, Type 0, BuildingBlock: XOMCOT_clean_sbu_1, # of connection points: 5
#     Node 37, Type 0, BuildingBlock: XOMCOT_clean_sbu_1, # of connection points: 5
#     Node 38, Type 0, BuildingBlock: XOMCOT_clean_sbu_1, # of connection points: 5
#     Node 39, Type 0, BuildingBlock: XOMCOT_clean_sbu_1, # of connection points: 5
#     Node 40, Type 0, BuildingBlock: XOMCOT_clean_sbu_1, # of connection points: 5
#     Node 41, Type 0, BuildingBlock: XOMCOT_clean_sbu_1, # of connection points: 5
#     Node 42, Type 0, BuildingBlock: XOMCOT_clean_sbu_1, # of connection points: 5
#     Node 43, Type 0, BuildingBlock: XOMCOT_clean_sbu_1, # of connection points: 5
#     Node 44, Type 0, BuildingBlock: XOMCOT_clean_sbu_1, # of connection points: 5
#     Node 45, Type 0, BuildingBlock: XOMCOT_clean_sbu_1, # of connection points: 5
#     Node 46, Type 0, BuildingBlock: XOMCOT_clean_sbu_1, # of connection points: 5
#     Node 47, Type 0, BuildingBlock: XOMCOT_clean_sbu_1, # of connection points: 5
#     Edge 48, Type (0, 0), BuildingBlock: XIVTED_clean_linker_0, # of connection points: 2
#     Edge 49, Type (0, 0), BuildingBlock: XIVTED_clean_linker_0, # of connection points: 2
#     Edge 50, Type (0, 0), BuildingBlock: XIVTED_clean_linker_0, # of connection points: 2
#     Edge 51, Type (0, 0), BuildingBlock: XIVTED_clean_linker_0, # of connection points: 2
#     Edge 52, Type (0, 0), BuildingBlock: XIVTED_clean_linker_0, # of connection points: 2
#     Edge 53, Type (0, 0), BuildingBlock: XIVTED_clean_linker_0, # of connection points: 2
#     Edge 54, Type (0, 0), BuildingBlock: XIVTED_clean_linker_0, # of connection points: 2
#     Edge 55, Type (0, 0), BuildingBlock: XIVTED_clean_linker_0, # of connection points: 2
#     Edge 56, Type (0, 0), BuildingBlock: XIVTED_clean_linker_0, # of connection points: 2
#     Edge 57, Type (0, 0), BuildingBlock: XIVTED_clean_linker_0, # of connection points: 2
#     Edge 58, Type (0, 0), BuildingBlock: XIVTED_clean_linker_0, # of connection points: 2
#     Edge 59, Type (0, 0), BuildingBlock: XIVTED_clean_linker_0, # of connection points: 2
#     Edge 60, Type (0, 0), BuildingBlock: XIVTED_clean_linker_0, # of connection points: 2
#     Edge 61, Type (0, 0), BuildingBlock: XIVTED_clean_linker_0, # of connection points: 2
#     Edge 62, Type (0, 0), BuildingBlock: XIVTED_clean_linker_0, # of connection points: 2
#     Edge 63, Type (0, 0), BuildingBlock: XIVTED_clean_linker_0, # of connection points: 2
#     Edge 64, Type (0, 0), BuildingBlock: XIVTED_clean_linker_0, # of connection points: 2
#     Edge 65, Type (0, 0), BuildingBlock: XIVTED_clean_linker_0, # of connection points: 2
#     Edge 66, Type (0, 0), BuildingBlock: XIVTED_clean_linker_0, # of connection points: 2
#     Edge 67, Type (0, 0), BuildingBlock: XIVTED_clean_linker_0, # of connection points: 2
#     Edge 68, Type (0, 0), BuildingBlock: XIVTED_clean_linker_0, # of connection points: 2
#     Edge 69, Type (0, 0), BuildingBlock: XIVTED_clean_linker_0, # of connection points: 2
#     Edge 70, Type (0, 0), BuildingBlock: XIVTED_clean_linker_0, # of connection points: 2
#     Edge 71, Type (0, 0), BuildingBlock: XIVTED_clean_linker_0, # of connection points: 2
#     Edge 72, Type (0, 0), BuildingBlock: XIVTED_clean_linker_0, # of connection points: 2
#     Edge 73, Type (0, 0), BuildingBlock: XIVTED_clean_linker_0, # of connection points: 2
#     Edge 74, Type (0, 0), BuildingBlock: XIVTED_clean_linker_0, # of connection points: 2
#     Edge 75, Type (0, 0), BuildingBlock: XIVTED_clean_linker_0, # of connection points: 2
#     Edge 76, Type (0, 0), BuildingBlock: XIVTED_clean_linker_0, # of connection points: 2
#     Edge 77, Type (0, 0), BuildingBlock: XIVTED_clean_linker_0, # of connection points: 2
#     Edge 78, Type (0, 0), BuildingBlock: XIVTED_clean_linker_0, # of connection points: 2
#     Edge 79, Type (0, 0), BuildingBlock: XIVTED_clean_linker_0, # of connection points: 2
#     Edge 80, Type (0, 0), BuildingBlock: XIVTED_clean_linker_0, # of connection points: 2
#     Edge 81, Type (0, 0), BuildingBlock: XIVTED_clean_linker_0, # of connection points: 2
#     Edge 82, Type (0, 0), BuildingBlock: XIVTED_clean_linker_0, # of connection points: 2
#     Edge 83, Type (0, 0), BuildingBlock: XIVTED_clean_linker_0, # of connection points: 2
#     Edge 84, Type (0, 0), BuildingBlock: XIVTED_clean_linker_0, # of connection points: 2
#     Edge 85, Type (0, 0), BuildingBlock: XIVTED_clean_linker_0, # of connection points: 2
#     Edge 86, Type (0, 0), BuildingBlock: XIVTED_clean_linker_0, # of connection points: 2
#     Edge 87, Type (0, 0), BuildingBlock: XIVTED_clean_linker_0, # of connection points: 2
#     Edge 88, Type (0, 0), BuildingBlock: XIVTED_clean_linker_0, # of connection points: 2
#     Edge 89, Type (0, 0), BuildingBlock: XIVTED_clean_linker_0, # of connection points: 2
#     Edge 90, Type (0, 0), BuildingBlock: XIVTED_clean_linker_0, # of connection points: 2
#     Edge 91, Type (0, 0), BuildingBlock: XIVTED_clean_linker_0, # of connection points: 2
#     Edge 92, Type (0, 0), BuildingBlock: XIVTED_clean_linker_0, # of connection points: 2
#     Edge 93, Type (0, 0), BuildingBlock: XIVTED_clean_linker_0, # of connection points: 2
#     Edge 94, Type (0, 0), BuildingBlock: XIVTED_clean_linker_0, # of connection points: 2
#     Edge 95, Type (0, 0), BuildingBlock: XIVTED_clean_linker_0, # of connection points: 2
#     Edge 96, Type (0, 0), BuildingBlock: XIVTED_clean_linker_0, # of connection points: 2
#     Edge 97, Type (0, 0), BuildingBlock: XIVTED_clean_linker_0, # of connection points: 2
#     Edge 98, Type (0, 0), BuildingBlock: XIVTED_clean_linker_0, # of connection points: 2
#     Edge 99, Type (0, 0), BuildingBlock: XIVTED_clean_linker_0, # of connection points: 2
#     Edge 100, Type (0, 0), BuildingBlock: XIVTED_clean_linker_0, # of connection points: 2
#     Edge 101, Type (0, 0), BuildingBlock: XIVTED_clean_linker_0, # of connection points: 2
#     Edge 102, Type (0, 0), BuildingBlock: XIVTED_clean_linker_0, # of connection points: 2
#     Edge 103, Type (0, 0), BuildingBlock: XIVTED_clean_linker_0, # of connection points: 2
#     Edge 104, Type (0, 0), BuildingBlock: XIVTED_clean_linker_0, # of connection points: 2
#     Edge 105, Type (0, 0), BuildingBlock: XIVTED_clean_linker_0, # of connection points: 2
#     Edge 106, Type (0, 0), BuildingBlock: XIVTED_clean_linker_0, # of connection points: 2
#     Edge 107, Type (0, 0), BuildingBlock: XIVTED_clean_linker_0, # of connection points: 2
#     Edge 108, Type (0, 0), BuildingBlock: XIVTED_clean_linker_0, # of connection points: 2
#     Edge 109, Type (0, 0), BuildingBlock: XIVTED_clean_linker_0, # of connection points: 2
#     Edge 110, Type (0, 0), BuildingBlock: XIVTED_clean_linker_0, # of connection points: 2
#     Edge 111, Type (0, 0), BuildingBlock: XIVTED_clean_linker_0, # of connection points: 2
#     Edge 112, Type (0, 0), BuildingBlock: XIVTED_clean_linker_0, # of connection points: 2
#     Edge 113, Type (0, 0), BuildingBlock: XIVTED_clean_linker_0, # of connection points: 2
#     Edge 114, Type (0, 0), BuildingBlock: XIVTED_clean_linker_0, # of connection points: 2
#     Edge 115, Type (0, 0), BuildingBlock: XIVTED_clean_linker_0, # of connection points: 2
#     Edge 116, Type (0, 0), BuildingBlock: XIVTED_clean_linker_0, # of connection points: 2
#     Edge 117, Type (0, 0), BuildingBlock: XIVTED_clean_linker_0, # of connection points: 2
#     Edge 118, Type (0, 0), BuildingBlock: XIVTED_clean_linker_0, # of connection points: 2
#     Edge 119, Type (0, 0), BuildingBlock: XIVTED_clean_linker_0, # of connection points: 2
#     Edge 120, Type (0, 0), BuildingBlock: XIVTED_clean_linker_0, # of connection points: 2
#     Edge 121, Type (0, 0), BuildingBlock: XIVTED_clean_linker_0, # of connection points: 2
#     Edge 122, Type (0, 0), BuildingBlock: XIVTED_clean_linker_0, # of connection points: 2
#     Edge 123, Type (0, 0), BuildingBlock: XIVTED_clean_linker_0, # of connection points: 2
#     Edge 124, Type (0, 0), BuildingBlock: XIVTED_clean_linker_0, # of connection points: 2
#     Edge 125, Type (0, 0), BuildingBlock: XIVTED_clean_linker_0, # of connection points: 2
#     Edge 126, Type (0, 0), BuildingBlock: XIVTED_clean_linker_0, # of connection points: 2
#     Edge 127, Type (0, 0), BuildingBlock: XIVTED_clean_linker_0, # of connection points: 2
#     Edge 128, Type (0, 0), BuildingBlock: XIVTED_clean_linker_0, # of connection points: 2
#     Edge 129, Type (0, 0), BuildingBlock: XIVTED_clean_linker_0, # of connection points: 2
#     Edge 130, Type (0, 0), BuildingBlock: XIVTED_clean_linker_0, # of connection points: 2
#     Edge 131, Type (0, 0), BuildingBlock: XIVTED_clean_linker_0, # of connection points: 2
#     Edge 132, Type (0, 0), BuildingBlock: XIVTED_clean_linker_0, # of connection points: 2
#     Edge 133, Type (0, 0), BuildingBlock: XIVTED_clean_linker_0, # of connection points: 2
#     Edge 134, Type (0, 0), BuildingBlock: XIVTED_clean_linker_0, # of connection points: 2
#     Edge 135, Type (0, 0), BuildingBlock: XIVTED_clean_linker_0, # of connection points: 2
#     Edge 136, Type (0, 0), BuildingBlock: XIVTED_clean_linker_0, # of connection points: 2
#     Edge 137, Type (0, 0), BuildingBlock: XIVTED_clean_linker_0, # of connection points: 2
#     Edge 138, Type (0, 0), BuildingBlock: XIVTED_clean_linker_0, # of connection points: 2
#     Edge 139, Type (0, 0), BuildingBlock: XIVTED_clean_linker_0, # of connection points: 2
#     Edge 140, Type (0, 0), BuildingBlock: XIVTED_clean_linker_0, # of connection points: 2
#     Edge 141, Type (0, 0), BuildingBlock: XIVTED_clean_linker_0, # of connection points: 2
#     Edge 142, Type (0, 0), BuildingBlock: XIVTED_clean_linker_0, # of connection points: 2
#     Edge 143, Type (0, 0), BuildingBlock: XIVTED_clean_linker_0, # of connection points: 2
#     Edge 144, Type (0, 0), BuildingBlock: XIVTED_clean_linker_0, # of connection points: 2
#     Edge 145, Type (0, 0), BuildingBlock: XIVTED_clean_linker_0, # of connection points: 2
#     Edge 146, Type (0, 0), BuildingBlock: XIVTED_clean_linker_0, # of connection points: 2
#     Edge 147, Type (0, 0), BuildingBlock: XIVTED_clean_linker_0, # of connection points: 2
#     Edge 148, Type (0, 0), BuildingBlock: XIVTED_clean_linker_0, # of connection points: 2
#     Edge 149, Type (0, 0), BuildingBlock: XIVTED_clean_linker_0, # of connection points: 2
#     Edge 150, Type (0, 0), BuildingBlock: XIVTED_clean_linker_0, # of connection points: 2
#     Edge 151, Type (0, 0), BuildingBlock: XIVTED_clean_linker_0, # of connection points: 2
#     Edge 152, Type (0, 0), BuildingBlock: XIVTED_clean_linker_0, # of connection points: 2
#     Edge 153, Type (0, 0), BuildingBlock: XIVTED_clean_linker_0, # of connection points: 2
#     Edge 154, Type (0, 0), BuildingBlock: XIVTED_clean_linker_0, # of connection points: 2
#     Edge 155, Type (0, 0), BuildingBlock: XIVTED_clean_linker_0, # of connection points: 2
#     Edge 156, Type (0, 0), BuildingBlock: XIVTED_clean_linker_0, # of connection points: 2
#     Edge 157, Type (0, 0), BuildingBlock: XIVTED_clean_linker_0, # of connection points: 2
#     Edge 158, Type (0, 0), BuildingBlock: XIVTED_clean_linker_0, # of connection points: 2
#     Edge 159, Type (0, 0), BuildingBlock: XIVTED_clean_linker_0, # of connection points: 2
#     Edge 160, Type (0, 0), BuildingBlock: XIVTED_clean_linker_0, # of connection points: 2
#     Edge 161, Type (0, 0), BuildingBlock: XIVTED_clean_linker_0, # of connection points: 2
#     Edge 162, Type (0, 0), BuildingBlock: XIVTED_clean_linker_0, # of connection points: 2
#     Edge 163, Type (0, 0), BuildingBlock: XIVTED_clean_linker_0, # of connection points: 2
#     Edge 164, Type (0, 0), BuildingBlock: XIVTED_clean_linker_0, # of connection points: 2
#     Edge 165, Type (0, 0), BuildingBlock: XIVTED_clean_linker_0, # of connection points: 2
#     Edge 166, Type (0, 0), BuildingBlock: XIVTED_clean_linker_0, # of connection points: 2
#     Edge 167, Type (0, 0), BuildingBlock: XIVTED_clean_linker_0, # of connection points: 2
# Relax obj value: 0.360
# Max RMSD: 0.248
# Mean RMSD: 0.248
data_MOF--net-fcg--node1-XOMCOT_clean_sbu_1--edge1-XIVTED_clean_linker_0
_symmetry_space_group_name_H-M    P1
_symmetry_Int_Tables_number       1
_symmetry_cell_setting            triclinic
loop_
_symmetry_equiv_pos_as_xyz
'x, y, z'
_cell_length_a     66.83304
_cell_length_b     66.771737
_cell_length_c     66.778968
_cell_angle_alpha  90.0142
_cell_angle_beta   90.005422
_cell_angle_gamma 89.99269
loop_
_atom_site_label
_atom_site_type_symbol
_atom_site_fract_x
_atom_site_fract_y
_atom_site_fract_z
_atom_type_partial_charge
C0 C 0.13956 0.27301 0.13437 0.0
C1 C 0.15729 0.26549 0.12687 0.0
N2 N 0.15539 0.24548 0.12495 0.0
N3 N 0.12665 0.25776 0.13715 0.0
C4 C 0.13669 0.24126 0.13121 0.0
H5 H 0.13616 0.28859 0.13721 0.0
Co6 Co 0.09996 0.25858 0.14487 0.0
C7 C 0.09421 0.21627 0.15729 0.0
O8 O 0.07821 0.21368 0.14616 0.0
N9 N 0.073 0.25913 0.15256 0.0
C10 C 0.04433 0.25427 0.16883 0.0
C11 C 0.06488 0.25298 0.17004 0.0
C12 C 0.05716 0.26455 0.14124 0.0
N13 N 0.03958 0.26155 0.15065 0.0
O14 O 0.09308 0.24657 0.11992 0.0
H15 H 0.07334 0.24737 0.18266 0.0
H16 H 0.0583 0.26996 0.12607 0.0
O17 O 0.1032 0.23304 0.1574 0.0
C18 C 0.09167 0.26087 0.10743 0.0
O19 O 0.09395 0.27933 0.11389 0.0
N20 N 0.10703 0.27183 0.16839 0.0
C21 C 0.11972 0.29616 0.1997 0.0
C22 C 0.12284 0.27542 0.20039 0.0
C23 C 0.11658 0.26349 0.18443 0.0
C24 C 0.10337 0.29188 0.16773 0.0
C25 C 0.10972 0.3044 0.18321 0.0
H26 H 0.12003 0.24775 0.18488 0.0
H27 H 0.09602 0.29823 0.15477 0.0
H28 H 0.13009 0.22647 0.13071 0.0
H29 H 0.17048 0.27409 0.1231 0.0
H30 H 0.03375 0.25007 0.18035 0.0
H31 H 0.13081 0.26859 0.21275 0.0
H32 H 0.10706 0.32037 0.18219 0.0
C33 C 0.70894 0.13787 0.11761 0.0
C34 C 0.71804 0.15468 0.10998 0.0
N35 N 0.737 0.15531 0.11682 0.0
N36 N 0.72193 0.12801 0.12949 0.0
C37 C 0.73892 0.139 0.12866 0.0
H38 H 0.69423 0.13246 0.1136 0.0
Co39 Co 0.718 0.10189 0.13861 0.0
C40 C 0.76091 0.09606 0.1508 0.0
O41 O 0.76635 0.0855 0.13513 0.0
N42 N 0.71399 0.07548 0.14708 0.0
C43 C 0.69822 0.04737 0.15529 0.0
C44 C 0.69734 0.06795 0.15567 0.0
C45 C 0.72485 0.0592 0.14187 0.0
N46 N 0.7155 0.04194 0.14647 0.0
O47 O 0.72993 0.09293 0.11454 0.0
H48 H 0.68459 0.07673 0.16039 0.0
H49 H 0.73821 0.05987 0.13279 0.0
O50 O 0.74311 0.10258 0.15237 0.0
C51 C 0.71737 0.08667 0.10168 0.0
O52 O 0.69878 0.0837 0.10735 0.0
N53 N 0.70513 0.11142 0.16159 0.0
C54 C 0.68397 0.12784 0.1935 0.0
C55 C 0.70211 0.11781 0.19678 0.0
C56 C 0.71241 0.10953 0.18062 0.0
C57 C 0.68699 0.1201 0.15831 0.0
C58 C 0.67623 0.12862 0.17402 0.0
H59 H 0.72612 0.10152 0.18355 0.0
H60 H 0.68076 0.12037 0.1434 0.0
H61 H 0.75292 0.1344 0.1353 0.0
H62 H 0.71139 0.16516 0.09957 0.0
H63 H 0.68638 0.03722 0.15968 0.0
H64 H 0.70851 0.11669 0.21164 0.0
H65 H 0.66196 0.13565 0.17095 0.0
C66 C 0.87747 0.71345 0.12852 0.0
C67 C 0.85954 0.72231 0.1232 0.0
N68 N 0.86101 0.74204 0.12706 0.0
N69 N 0.88997 0.72767 0.13557 0.0
C70 C 0.87955 0.74488 0.13427 0.0
H71 H 0.88125 0.69777 0.12712 0.0
Co72 Co 0.91648 0.72515 0.14322 0.0
C73 C 0.92556 0.7652 0.16088 0.0
O74 O 0.94341 0.76645 0.15274 0.0
N75 N 0.94331 0.72268 0.15086 0.0
C76 C 0.97121 0.72024 0.1689 0.0
C77 C 0.95082 0.72303 0.16966 0.0
C78 C 0.95941 0.71983 0.139 0.0
N79 N 0.9765 0.71837 0.14957 0.0
O80 O 0.92358 0.73904 0.11943 0.0
H81 H 0.94205 0.72517 0.18309 0.0
H82 H 0.95876 0.71839 0.12291 0.0
O83 O 0.91464 0.7499 0.15783 0.0
C84 C 0.92431 0.72684 0.10481 0.0
O85 O 0.92386 0.70753 0.10866 0.0
N86 N 0.90853 0.7105 0.16559 0.0
C87 C 0.89409 0.68506 0.19521 0.0
C88 C 0.89094 0.70577 0.19647 0.0
C89 C 0.89803 0.71825 0.18134 0.0
C90 C 0.91204 0.69045 0.16427 0.0
C91 C 0.90488 0.67739 0.17893 0.0
H92 H 0.89439 0.73397 0.18206 0.0
H93 H 0.91999 0.68456 0.15144 0.0
H94 H 0.88557 0.75947 0.13783 0.0
H95 H 0.84644 0.71488 0.11722 0.0
H96 H 0.98135 0.71972 0.18153 0.0
H97 H 0.88225 0.71217 0.20858 0.0
H98 H 0.90749 0.66145 0.17743 0.0
C99 C 0.28873 0.84476 0.11306 0.0
C100 C 0.28154 0.82736 0.10453 0.0
N101 N 0.26164 0.8294 0.10184 0.0
N102 N 0.27339 0.85759 0.11571 0.0
C103 C 0.25721 0.84791 0.10852 0.0
H104 H 0.30405 0.84778 0.11733 0.0
Co105 Co 0.27362 0.88305 0.12682 0.0
C106 C 0.2307 0.89005 0.13494 0.0
O107 O 0.23078 0.90747 0.12579 0.0
N108 N 0.27339 0.90875 0.13816 0.0
C109 C 0.26848 0.93348 0.15993 0.0
C110 C 0.26816 0.91312 0.15723 0.0
C111 C 0.27669 0.92676 0.12955 0.0
N112 N 0.27374 0.94202 0.14248 0.0
O113 O 0.26532 0.89327 0.10163 0.0
H114 H 0.26378 0.90223 0.16837 0.0
H115 H 0.28101 0.92876 0.11409 0.0
O116 O 0.24654 0.87952 0.13558 0.0
C117 C 0.28102 0.89503 0.09098 0.0
O118 O 0.29847 0.89315 0.09989 0.0
N119 N 0.28323 0.87242 0.15069 0.0
C120 C 0.30055 0.85738 0.18547 0.0
C121 C 0.28105 0.85185 0.17992 0.0
C122 C 0.27281 0.85924 0.16228 0.0
C123 C 0.30228 0.87773 0.15554 0.0
C124 C 0.31126 0.87041 0.17291 0.0
H125 H 0.25813 0.85417 0.15795 0.0
H126 H 0.31053 0.88771 0.1458 0.0
H127 H 0.24238 0.85438 0.1081 0.0
H128 H 0.29016 0.81406 0.10114 0.0
H129 H 0.2645 0.94142 0.1735 0.0
H130 H 0.27211 0.84196 0.18913 0.0
H131 H 0.32651 0.8747 0.17626 0.0
C132 C 0.12597 0.71064 0.88746 0.0
C133 C 0.14316 0.7207 0.89282 0.0
N134 N 0.14415 0.73767 0.88196 0.0
N135 N 0.11612 0.72134 0.87345 0.0
C136 C 0.12777 0.73754 0.8702 0.0
H137 H 0.12034 0.69707 0.89426 0.0
Co138 Co 0.08983 0.71671 0.86547 0.0
C139 C 0.08182 0.76136 0.85929 0.0
O140 O 0.07203 0.76557 0.87581 0.0
N141 N 0.06341 0.71203 0.8579 0.0
C142 C 0.03594 0.69599 0.84839 0.0
C143 C 0.05648 0.69603 0.8477 0.0
C144 C 0.04687 0.72157 0.8645 0.0
N145 N 0.02995 0.712 0.85912 0.0
O146 O 0.08161 0.72388 0.89179 0.0
H147 H 0.06576 0.68439 0.84132 0.0
H148 H 0.04725 0.73417 0.87468 0.0
O149 O 0.08795 0.74365 0.85591 0.0
C150 C 0.07707 0.70842 0.90199 0.0
O151 O 0.07487 0.6913 0.89252 0.0
N152 N 0.09861 0.70839 0.84038 0.0
C153 C 0.11233 0.69246 0.80446 0.0
C154 C 0.10016 0.70958 0.80456 0.0
C155 C 0.09325 0.71722 0.82273 0.0
C156 C 0.11008 0.69154 0.84054 0.0
C157 C 0.11719 0.68336 0.82273 0.0
H158 H 0.08324 0.72992 0.82254 0.0
H159 H 0.11362 0.68435 0.8546 0.0
H160 H 0.12367 0.74986 0.86057 0.0
H161 H 0.15359 0.71633 0.90442 0.0
H162 H 0.02622 0.68444 0.84251 0.0
H163 H 0.09571 0.71676 0.79072 0.0
H164 H 0.12659 0.67015 0.8233 0.0
C165 C 0.28688 0.15009 0.86734 0.0
C166 C 0.27632 0.16629 0.87442 0.0
N167 N 0.25706 0.16077 0.87663 0.0
N168 N 0.27427 0.1345 0.86506 0.0
C169 C 0.25621 0.14146 0.87081 0.0
H170 H 0.30287 0.14941 0.86507 0.0
Co171 Co 0.28162 0.10835 0.86022 0.0
C172 C 0.2497 0.09079 0.83494 0.0
O173 O 0.263 0.07911 0.82635 0.0
N174 N 0.28939 0.08146 0.85622 0.0
C175 C 0.30692 0.05338 0.85235 0.0
C176 C 0.30661 0.07367 0.84895 0.0
C177 C 0.27952 0.06548 0.86384 0.0
N178 N 0.28987 0.04832 0.86175 0.0
O179 O 0.27222 0.10158 0.88628 0.0
H180 H 0.3188 0.08201 0.84252 0.0
H181 H 0.26544 0.06656 0.87177 0.0
O182 O 0.25518 0.10295 0.8487 0.0
C183 C 0.28652 0.09885 0.89853 0.0
O184 O 0.30503 0.10004 0.89198 0.0
N185 N 0.29214 0.1163 0.83537 0.0
C186 C 0.31171 0.133 0.80249 0.0
C187 C 0.29091 0.13034 0.8023 0.0
C188 C 0.28133 0.12244 0.8191 0.0
C189 C 0.31227 0.11949 0.83601 0.0
C190 C 0.32241 0.12754 0.81966 0.0
H191 H 0.26523 0.12239 0.81921 0.0
H192 H 0.32044 0.11619 0.8496 0.0
H193 H 0.24301 0.13216 0.87215 0.0
H194 H 0.28245 0.18079 0.87831 0.0
H195 H 0.31906 0.04323 0.84882 0.0
H196 H 0.28202 0.13525 0.78965 0.0
H197 H 0.33845 0.1297 0.82057 0.0
C198 C 0.8565 0.28008 0.87648 0.0
C199 C 0.84152 0.26733 0.88259 0.0
N200 N 0.84797 0.24842 0.88 0.0
N201 N 0.87224 0.26918 0.87011 0.0
C202 C 0.86661 0.24992 0.87247 0.0
H203 H 0.85631 0.29625 0.87745 0.0
Co204 Co 0.89709 0.27969 0.86435 0.0
C205 C 0.91807 0.25021 0.83818 0.0
O206 O 0.92894 0.26465 0.83047 0.0
N207 N 0.92261 0.29094 0.85933 0.0
C208 C 0.94793 0.31125 0.85175 0.0
C209 C 0.92786 0.30771 0.84922 0.0
C210 C 0.93994 0.28455 0.86768 0.0
N211 N 0.95545 0.2967 0.86344 0.0
O212 O 0.90575 0.27114 0.89015 0.0
H213 H 0.91795 0.31732 0.84092 0.0
H214 H 0.94104 0.27162 0.87738 0.0
O215 O 0.90537 0.25419 0.85201 0.0
C216 C 0.90577 0.28621 0.90184 0.0
O217 O 0.90172 0.30395 0.89433 0.0
N218 N 0.88696 0.2894 0.84015 0.0
C219 C 0.86975 0.30847 0.80737 0.0
C220 C 0.87457 0.28805 0.80651 0.0
C221 C 0.88276 0.27865 0.82326 0.0
C222 C 0.88097 0.30884 0.8417 0.0
C223 C 0.87268 0.3188 0.82538 0.0
H224 H 0.88505 0.26271 0.82262 0.0
H225 H 0.88319 0.3168 0.85563 0.0
H226 H 0.87637 0.23725 0.87005 0.0
H227 H 0.8272 0.27159 0.88885 0.0
H228 H 0.95625 0.32382 0.84581 0.0
H229 H 0.8716 0.27931 0.79317 0.0
H230 H 0.86893 0.33452 0.82679 0.0
C231 C 0.69908 0.86083 0.86455 0.0
C232 C 0.71083 0.84543 0.87173 0.0
N233 N 0.7301 0.85033 0.86855 0.0
N234 N 0.711 0.87525 0.85696 0.0
C235 C 0.72978 0.86841 0.8597 0.0
H236 H 0.68302 0.86203 0.86607 0.0
Co237 Co 0.70399 0.90131 0.85076 0.0
C238 C 0.73622 0.91644 0.82281 0.0
O239 O 0.72684 0.93321 0.81871 0.0
N240 N 0.6966 0.92812 0.84526 0.0
C241 C 0.6799 0.9556 0.83631 0.0
C242 C 0.68154 0.93524 0.83372 0.0
C243 C 0.70404 0.94464 0.85438 0.0
N244 N 0.69405 0.96142 0.84939 0.0
O245 O 0.71736 0.90931 0.87453 0.0
H246 H 0.67179 0.92637 0.82439 0.0
H247 H 0.71609 0.94441 0.86518 0.0
O248 O 0.72864 0.90397 0.8352 0.0
C249 C 0.70531 0.91099 0.88918 0.0
O250 O 0.68599 0.90979 0.88565 0.0
N251 N 0.68969 0.89207 0.82851 0.0
C252 C 0.66442 0.87666 0.79918 0.0
C253 C 0.68448 0.88087 0.79482 0.0
C254 C 0.69699 0.88831 0.80977 0.0
C255 C 0.67028 0.88777 0.83308 0.0
C256 C 0.65733 0.88006 0.81862 0.0
H257 H 0.71247 0.89052 0.8061 0.0
H258 H 0.66482 0.89052 0.84808 0.0
H259 H 0.74305 0.87728 0.85711 0.0
H260 H 0.70569 0.83213 0.87945 0.0
H261 H 0.66881 0.96527 0.82953 0.0
H262 H 0.69063 0.87788 0.78011 0.0
H263 H 0.64193 0.87692 0.82257 0.0
C264 C 0.1457 0.10752 0.29321 0.0
C265 C 0.14084 0.12574 0.28461 0.0
N266 N 0.13447 0.12224 0.26581 0.0
N267 N 0.14266 0.09284 0.27962 0.0
C268 C 0.13588 0.10236 0.26318 0.0
H269 H 0.15085 0.10516 0.30837 0.0
Co270 Co 0.14496 0.06516 0.2808 0.0
C271 C 0.17192 0.05497 0.24688 0.0
O272 O 0.17834 0.0389 0.25621 0.0
N273 N 0.14667 0.03685 0.28135 0.0
C274 C 0.15219 0.00447 0.28764 0.0
C275 C 0.15693 0.02382 0.29306 0.0
C276 C 0.13609 0.0249 0.26889 0.0
N277 N 0.13896 0.00535 0.27254 0.0
O278 O 0.11955 0.06354 0.26827 0.0
H279 H 0.16709 0.0278 0.30495 0.0
H280 H 0.12622 0.03028 0.25724 0.0
O281 O 0.15839 0.06585 0.2549 0.0
C282 C 0.10533 0.06109 0.28066 0.0
O283 O 0.10974 0.05736 0.29948 0.0
N284 N 0.169 0.06794 0.29481 0.0
C285 C 0.19993 0.07805 0.32087 0.0
C286 C 0.20199 0.08094 0.30018 0.0
C287 C 0.18619 0.07618 0.28742 0.0
C288 C 0.16669 0.06522 0.31491 0.0
C289 C 0.18206 0.06993 0.32821 0.0
H290 H 0.18744 0.08049 0.27193 0.0
H291 H 0.15254 0.05985 0.32065 0.0
H292 H 0.13197 0.09478 0.2494 0.0
H293 H 0.14147 0.14029 0.29174 0.0
H294 H 0.15733 0.99087 0.29481 0.0
H295 H 0.21522 0.08799 0.29401 0.0
H296 H 0.17978 0.06772 0.34412 0.0
C297 C 0.87185 0.13263 0.28886 0.0
C298 C 0.85273 0.12803 0.28234 0.0
N299 N 0.85429 0.11821 0.26477 0.0
N300 N 0.88516 0.12605 0.27517 0.0
C301 C 0.87397 0.11721 0.26092 0.0
H302 H 0.87569 0.141 0.30219 0.0
Co303 Co 0.91268 0.12924 0.2722 0.0
C304 C 0.91432 0.13674 0.22781 0.0
O305 O 0.92991 0.12545 0.22381 0.0
N306 N 0.94015 0.13241 0.26852 0.0
C307 C 0.96983 0.14391 0.25884 0.0
C308 C 0.94974 0.14819 0.26028 0.0
C309 C 0.95469 0.11892 0.27221 0.0
N310 N 0.97285 0.12544 0.26635 0.0
O311 O 0.91412 0.10209 0.26366 0.0
H312 H 0.94251 0.16175 0.25517 0.0
H313 H 0.952 0.10426 0.27844 0.0
O314 O 0.90789 0.13839 0.24562 0.0
C315 C 0.91432 0.09132 0.27938 0.0
O316 O 0.91662 0.10028 0.29677 0.0
N317 N 0.91092 0.15522 0.28205 0.0
C318 C 0.90575 0.19122 0.30225 0.0
C319 C 0.89798 0.18862 0.28292 0.0
C320 C 0.90057 0.1704 0.2731 0.0
C321 C 0.91912 0.15766 0.30055 0.0
C322 C 0.91674 0.1756 0.31095 0.0
H323 H 0.89338 0.16829 0.2588 0.0
H324 H 0.92697 0.14532 0.30752 0.0
H325 H 0.88016 0.11115 0.24721 0.0
H326 H 0.83883 0.13207 0.28961 0.0
H327 H 0.98127 0.15358 0.25268 0.0
H328 H 0.889 0.20015 0.27588 0.0
H329 H 0.92298 0.17706 0.32585 0.0
C330 C 0.86631 0.86367 0.29926 0.0
C331 C 0.875 0.84843 0.28845 0.0
N332 N 0.87054 0.85121 0.26899 0.0
N333 N 0.85648 0.87594 0.28661 0.0
C334 C 0.85918 0.86788 0.26828 0.0
H335 H 0.86844 0.86657 0.31505 0.0
Co336 Co 0.84898 0.90177 0.29284 0.0
C337 C 0.81405 0.91161 0.26776 0.0
O338 O 0.80626 0.92127 0.28302 0.0
N339 N 0.84231 0.92864 0.29933 0.0
C340 C 0.83439 0.95714 0.31481 0.0
C341 C 0.83296 0.93663 0.31546 0.0
C342 C 0.84862 0.94481 0.28887 0.0
N343 N 0.84442 0.96221 0.29813 0.0
O344 O 0.87046 0.91046 0.2766 0.0
H345 H 0.82596 0.92842 0.32743 0.0
H346 H 0.85735 0.94395 0.27527 0.0
O347 O 0.83099 0.90285 0.26967 0.0
C348 C 0.88656 0.91334 0.28628 0.0
O349 O 0.88555 0.915 0.30587 0.0
N350 N 0.82923 0.8914 0.30968 0.0
C351 C 0.80689 0.869 0.33674 0.0
C352 C 0.80224 0.86878 0.31629 0.0
C353 C 0.81382 0.87978 0.30295 0.0
C354 C 0.83426 0.89134 0.32949 0.0
C355 C 0.82293 0.88066 0.34342 0.0
H356 H 0.81112 0.87772 0.28717 0.0
H357 H 0.84754 0.89922 0.33438 0.0
H358 H 0.85475 0.87519 0.25451 0.0
H359 H 0.88471 0.83683 0.29428 0.0
H360 H 0.82927 0.96747 0.32621 0.0
H361 H 0.79016 0.85961 0.31056 0.0
H362 H 0.82726 0.88072 0.35905 0.0
C363 C 0.11408 0.84158 0.26468 0.0
C364 C 0.13266 0.84663 0.25709 0.0
N365 N 0.13001 0.85396 0.2385 0.0
N366 N 0.10003 0.84538 0.25066 0.0
C367 C 0.11024 0.85298 0.23502 0.0
H368 H 0.11109 0.8352 0.27926 0.0
Co369 Co 0.07253 0.84108 0.25032 0.0
C370 C 0.06658 0.82719 0.20783 0.0
O371 O 0.04874 0.83492 0.20498 0.0
N372 N 0.0449 0.83687 0.2497 0.0
C373 C 0.01428 0.82427 0.24593 0.0
C374 C 0.0345 0.82025 0.24469 0.0
C375 C 0.03079 0.85051 0.2543 0.0
N376 N 0.01209 0.84336 0.25205 0.0
O377 O 0.06941 0.86693 0.2387 0.0
H378 H 0.04119 0.8062 0.24017 0.0
H379 H 0.03402 0.86563 0.25889 0.0
O380 O 0.07555 0.82917 0.22448 0.0
C381 C 0.06963 0.88039 0.25219 0.0
O382 O 0.06931 0.87484 0.27107 0.0
N383 N 0.07614 0.81644 0.26284 0.0
C384 C 0.08591 0.78376 0.2867 0.0
C385 C 0.09143 0.78422 0.26644 0.0
C386 C 0.08653 0.8008 0.25475 0.0
C387 C 0.06994 0.81593 0.28225 0.0
C388 C 0.07465 0.79968 0.29449 0.0
H389 H 0.09215 0.80145 0.23961 0.0
H390 H 0.06205 0.82864 0.28846 0.0
H391 H 0.10333 0.8572 0.22097 0.0
H392 H 0.14693 0.84505 0.26459 0.0
H393 H 0.0022 0.81395 0.24276 0.0
H394 H 0.10049 0.77243 0.25996 0.0
H395 H 0.07003 0.79985 0.31003 0.0
C396 C 0.11138 0.86603 0.71485 0.0
C397 C 0.11002 0.84932 0.72681 0.0
N398 N 0.10787 0.85537 0.74594 0.0
N399 N 0.11039 0.88252 0.72644 0.0
C400 C 0.10809 0.87556 0.74528 0.0
H401 H 0.11251 0.86613 0.6987 0.0
Co402 Co 0.1097 0.90889 0.718 0.0
C403 C 0.1377 0.93049 0.74483 0.0
O404 O 0.14249 0.94265 0.73012 0.0
N405 N 0.10817 0.93578 0.7094 0.0
C406 C 0.1043 0.96328 0.69097 0.0
C407 C 0.11 0.94356 0.69078 0.0
C408 C 0.10125 0.95123 0.72059 0.0
N409 N 0.09877 0.96801 0.70971 0.0
O410 O 0.085 0.91181 0.7318 0.0
H411 H 0.11413 0.93554 0.67744 0.0
H412 H 0.09718 0.94991 0.73623 0.0
O413 O 0.1245 0.91691 0.74198 0.0
C414 C 0.06952 0.91391 0.72095 0.0
O415 O 0.07167 0.91669 0.7016 0.0
N416 N 0.13343 0.90445 0.70349 0.0
C417 C 0.16562 0.89331 0.67935 0.0
C418 C 0.16796 0.89525 0.70011 0.0
C419 C 0.15158 0.90032 0.71196 0.0
C420 C 0.13062 0.9013 0.68352 0.0
C421 C 0.14658 0.89621 0.67107 0.0
H422 H 0.15345 0.8997 0.72796 0.0
H423 H 0.11571 0.90215 0.67729 0.0
H424 H 0.10631 0.88515 0.75823 0.0
H425 H 0.10994 0.83393 0.72172 0.0
H426 H 0.10374 0.97325 0.6782 0.0
H427 H 0.1821 0.89191 0.7073 0.0
H428 H 0.14394 0.89424 0.65519 0.0
C429 C 0.12787 0.13504 0.71247 0.0
C430 C 0.1448 0.1283 0.72203 0.0
N431 N 0.1416 0.12922 0.74194 0.0
N432 N 0.11416 0.14028 0.7263 0.0
C433 C 0.12293 0.13656 0.74412 0.0
H434 H 0.12541 0.13534 0.69647 0.0
Co435 Co 0.08791 0.14689 0.72102 0.0
C436 C 0.07588 0.17683 0.75118 0.0
O437 O 0.06396 0.18497 0.73783 0.0
N438 N 0.0607 0.15281 0.71542 0.0
C439 C 0.03164 0.15835 0.70007 0.0
C440 C 0.05196 0.16125 0.6992 0.0
C441 C 0.04513 0.14554 0.72618 0.0
N442 N 0.02744 0.14827 0.71698 0.0
O443 O 0.08014 0.12244 0.73345 0.0
H444 H 0.05958 0.16802 0.68672 0.0
H445 H 0.04683 0.13679 0.73971 0.0
O446 O 0.08613 0.16131 0.74655 0.0
C447 C 0.0753 0.10954 0.7203 0.0
O448 O 0.07512 0.1149 0.70136 0.0
N449 N 0.09689 0.16964 0.70738 0.0
C450 C 0.11593 0.19776 0.6832 0.0
C451 C 0.11576 0.19999 0.70407 0.0
C452 C 0.1065 0.18555 0.71595 0.0
C453 C 0.09757 0.16693 0.68716 0.0
C454 C 0.10658 0.18104 0.67472 0.0
H455 H 0.10822 0.18671 0.73194 0.0
H456 H 0.0915 0.15337 0.6807 0.0
H457 H 0.11535 0.13803 0.75836 0.0
H458 H 0.15824 0.12274 0.7149 0.0
H459 H 0.02095 0.16203 0.68846 0.0
H460 H 0.12323 0.21249 0.71121 0.0
H461 H 0.10702 0.1784 0.65872 0.0
C462 C 0.87852 0.12484 0.71476 0.0
C463 C 0.88584 0.14235 0.72299 0.0
N464 N 0.88479 0.14081 0.7431 0.0
N465 N 0.87291 0.11247 0.72967 0.0
C466 C 0.87701 0.12256 0.74667 0.0
H467 H 0.87766 0.1212 0.699 0.0
Co468 Co 0.86398 0.08624 0.72836 0.0
C469 C 0.84784 0.08016 0.76901 0.0
O470 O 0.85864 0.06395 0.77178 0.0
N471 N 0.8549 0.05968 0.72747 0.0
C472 C 0.83536 0.03283 0.73012 0.0
C473 C 0.8359 0.05341 0.73041 0.0
C474 C 0.86555 0.04265 0.72521 0.0
N475 N 0.85407 0.02614 0.72687 0.0
O476 O 0.88745 0.07864 0.74245 0.0
H477 H 0.82327 0.0632 0.73306 0.0
H478 H 0.88155 0.04219 0.72305 0.0
O479 O 0.84932 0.08997 0.75275 0.0
C480 C 0.90128 0.07641 0.72956 0.0
O481 O 0.89619 0.07566 0.71054 0.0
N482 N 0.842 0.09443 0.71334 0.0
C483 C 0.81112 0.10675 0.68838 0.0
C484 C 0.81245 0.11395 0.70805 0.0
C485 C 0.82819 0.10782 0.72022 0.0
C486 C 0.8412 0.08756 0.69414 0.0
C487 C 0.82581 0.09355 0.68133 0.0
H488 H 0.82949 0.11423 0.73498 0.0
H489 H 0.85265 0.07744 0.68877 0.0
H490 H 0.8751 0.11627 0.76148 0.0
H491 H 0.89148 0.15516 0.71483 0.0
H492 H 0.82224 0.02354 0.73214 0.0
H493 H 0.80167 0.12462 0.7138 0.0
H494 H 0.82531 0.0878 0.66617 0.0
C495 C 0.84101 0.84966 0.69093 0.0
C496 C 0.82344 0.85576 0.6999 0.0
N497 N 0.82658 0.85702 0.71981 0.0
N498 N 0.85506 0.8471 0.70518 0.0
C499 C 0.84579 0.85156 0.72256 0.0
H500 H 0.84372 0.84852 0.67501 0.0
Co501 Co 0.88242 0.84463 0.70191 0.0
C502 C 0.89573 0.81536 0.73221 0.0
O503 O 0.90882 0.80835 0.71932 0.0
N504 N 0.91056 0.84289 0.69899 0.0
C505 C 0.94232 0.83826 0.68978 0.0
C506 C 0.92262 0.83458 0.68496 0.0
C507 C 0.92343 0.8514 0.71212 0.0
N508 N 0.94265 0.84897 0.7068 0.0
O509 O 0.88529 0.86946 0.71554 0.0
H510 H 0.9178 0.82651 0.67185 0.0
H511 H 0.91886 0.85941 0.72543 0.0
O512 O 0.88419 0.82982 0.72718 0.0
C513 C 0.88858 0.8839 0.70358 0.0
O514 O 0.89123 0.87999 0.68447 0.0
N515 N 0.87837 0.82135 0.6869 0.0
C516 C 0.86951 0.79082 0.65995 0.0
C517 C 0.867 0.7879 0.68059 0.0
C518 C 0.87102 0.80357 0.69383 0.0
C519 C 0.87992 0.82471 0.66684 0.0
C520 C 0.8759 0.80956 0.65308 0.0
H521 H 0.86737 0.80154 0.70942 0.0
H522 H 0.88434 0.83937 0.66152 0.0
H523 H 0.85353 0.8526 0.73677 0.0
H524 H 0.80974 0.85985 0.69228 0.0
H525 H 0.95532 0.8342 0.681 0.0
H526 H 0.86111 0.77395 0.68639 0.0
H527 H 0.8776 0.81255 0.63723 0.0
C528 C 0.29782 0.13246 0.14413 0.0
C529 C 0.28768 0.12954 0.16185 0.0
N530 N 0.26872 0.12422 0.15746 0.0
N531 N 0.28526 0.12894 0.12873 0.0
C532 C 0.26763 0.1242 0.13732 0.0
H533 H 0.31367 0.13535 0.14255 0.0
Co534 Co 0.29199 0.12441 0.10214 0.0
C535 C 0.26235 0.15081 0.08222 0.0
O536 O 0.27637 0.15791 0.07038 0.0
N537 N 0.29892 0.1184 0.07567 0.0
C538 C 0.31559 0.10202 0.05194 0.0
C539 C 0.31595 0.1084 0.07141 0.0
C540 C 0.28795 0.11695 0.05867 0.0
N541 N 0.29791 0.10733 0.04393 0.0
O542 O 0.28012 0.09855 0.10383 0.0
H543 H 0.32741 0.10469 0.08221 0.0
H544 H 0.27241 0.12123 0.05747 0.0
O545 O 0.26652 0.13656 0.09432 0.0
C546 C 0.29209 0.08679 0.11287 0.0
O547 O 0.30948 0.0938 0.11883 0.0
N548 N 0.3052 0.14955 0.10135 0.0
C549 C 0.32828 0.18394 0.10732 0.0
C550 C 0.30778 0.18397 0.11173 0.0
C551 C 0.29657 0.16655 0.1089 0.0
C552 C 0.32509 0.14951 0.09675 0.0
C553 C 0.33676 0.16659 0.09922 0.0
H554 H 0.28124 0.1664 0.11403 0.0
H555 H 0.33254 0.13596 0.09246 0.0
H556 H 0.25488 0.11867 0.12898 0.0
H557 H 0.29409 0.12993 0.17673 0.0
H558 H 0.32721 0.09355 0.04449 0.0
H559 H 0.30073 0.19685 0.11863 0.0
H560 H 0.35258 0.16584 0.09577 0.0
C561 C 0.27904 0.88562 0.84678 0.0
C562 C 0.26841 0.89355 0.83094 0.0
N563 N 0.24886 0.89372 0.83592 0.0
N564 N 0.26615 0.88083 0.86154 0.0
C565 C 0.24798 0.88603 0.85453 0.0
H566 H 0.29509 0.88377 0.84765 0.0
Co567 Co 0.2716 0.87156 0.88703 0.0
C568 C 0.23253 0.85637 0.90084 0.0
O569 O 0.23394 0.86591 0.91799 0.0
N570 N 0.27685 0.86208 0.91322 0.0
C571 C 0.28141 0.84205 0.93957 0.0
C572 C 0.27928 0.84282 0.9191 0.0
C573 C 0.27725 0.87261 0.93053 0.0
N574 N 0.27993 0.86082 0.94662 0.0
O575 O 0.26057 0.89583 0.89714 0.0
H576 H 0.27887 0.82995 0.9093 0.0
H577 H 0.27515 0.88859 0.93165 0.0
O578 O 0.24619 0.85816 0.8877 0.0
C579 C 0.27514 0.9081 0.89801 0.0
O580 O 0.29331 0.90129 0.8947 0.0
N581 N 0.28381 0.84904 0.87608 0.0
C582 C 0.30582 0.81769 0.85979 0.0
C583 C 0.28497 0.8184 0.85747 0.0
C584 C 0.27421 0.83438 0.86555 0.0
C585 C 0.30408 0.84883 0.87811 0.0
C586 C 0.31541 0.83322 0.87015 0.0
H587 H 0.25827 0.83503 0.86304 0.0
H588 H 0.31144 0.86087 0.88608 0.0
H589 H 0.23438 0.88491 0.86326 0.0
H590 H 0.27459 0.89876 0.81689 0.0
H591 H 0.28309 0.82872 0.94864 0.0
H592 H 0.2771 0.80693 0.84913 0.0
H593 H 0.33147 0.83321 0.87228 0.0
C594 C 0.13409 0.29944 0.86956 0.0
C595 C 0.12988 0.29039 0.85151 0.0
N596 N 0.12623 0.27085 0.85496 0.0
N597 N 0.13311 0.28561 0.88421 0.0
C598 C 0.1283 0.26836 0.87487 0.0
H599 H 0.13675 0.31524 0.87194 0.0
Co600 Co 0.13376 0.29006 0.91149 0.0
C601 C 0.15708 0.25628 0.92818 0.0
O602 O 0.16418 0.26819 0.94214 0.0
N603 N 0.13348 0.29462 0.9393 0.0
C604 C 0.13223 0.30845 0.96961 0.0
C605 C 0.13802 0.31118 0.95006 0.0
C606 C 0.12486 0.28213 0.95274 0.0
N607 N 0.12402 0.29016 0.97118 0.0
O608 O 0.10704 0.28052 0.91306 0.0
H609 H 0.14423 0.32487 0.94427 0.0
H610 H 0.11853 0.26771 0.94887 0.0
O611 O 0.14446 0.26308 0.91548 0.0
C612 C 0.09537 0.29557 0.9129 0.0
O613 O 0.10332 0.31358 0.91334 0.0
N614 N 0.15941 0.30109 0.90867 0.0
C615 C 0.19352 0.32232 0.89733 0.0
C616 C 0.19348 0.30133 0.89727 0.0
C617 C 0.17612 0.29098 0.90255 0.0
C618 C 0.15913 0.32149 0.90833 0.0
C619 C 0.1761 0.33241 0.90319 0.0
H620 H 0.17588 0.27504 0.90018 0.0
H621 H 0.14524 0.32935 0.911 0.0
H622 H 0.12495 0.25457 0.88268 0.0
H623 H 0.12893 0.29773 0.8371 0.0
H624 H 0.13351 0.31924 0.98164 0.0
H625 H 0.20629 0.29296 0.8919 0.0
H626 H 0.17532 0.34861 0.90306 0.0
C627 C 0.70155 0.13203 0.86131 0.0
C628 C 0.71008 0.12499 0.84383 0.0
N629 N 0.72735 0.11572 0.8486 0.0
N630 N 0.71372 0.12753 0.8768 0.0
C631 C 0.72908 0.11742 0.86856 0.0
H632 H 0.68784 0.14055 0.86253 0.0
Co633 Co 0.71283 0.13437 0.90369 0.0
C634 C 0.75571 0.13882 0.91353 0.0
O635 O 0.75403 0.12829 0.93005 0.0
N636 N 0.7125 0.14131 0.93089 0.0
C637 C 0.7195 0.15733 0.95925 0.0
C638 C 0.71796 0.15913 0.93882 0.0
C639 C 0.71047 0.12908 0.94685 0.0
N640 N 0.71495 0.13834 0.96421 0.0
O641 O 0.7195 0.10736 0.90983 0.0
H642 H 0.72194 0.17227 0.93025 0.0
H643 H 0.70735 0.11325 0.94577 0.0
O644 O 0.74057 0.14176 0.90237 0.0
C645 C 0.70362 0.09686 0.90942 0.0
O646 O 0.68632 0.10621 0.90873 0.0
N647 N 0.70488 0.16017 0.89684 0.0
C648 C 0.68767 0.19541 0.88278 0.0
C649 C 0.70815 0.19162 0.87998 0.0
C650 C 0.71645 0.17376 0.88688 0.0
C651 C 0.6852 0.16391 0.90046 0.0
C652 C 0.67625 0.18145 0.89356 0.0
H653 H 0.73192 0.17065 0.88347 0.0
H654 H 0.67622 0.15274 0.90802 0.0
H655 H 0.74195 0.11231 0.87698 0.0
H656 H 0.70436 0.12699 0.8288 0.0
H657 H 0.72443 0.16886 0.96952 0.0
H658 H 0.71761 0.20207 0.87198 0.0
H659 H 0.66034 0.18353 0.8958 0.0
C660 C 0.85811 0.70939 0.87462 0.0
C661 C 0.86184 0.71428 0.85489 0.0
N662 N 0.86445 0.73426 0.85377 0.0
N663 N 0.85842 0.72625 0.88573 0.0
C664 C 0.86249 0.74106 0.87264 0.0
H665 H 0.85541 0.69455 0.88051 0.0
Co666 Co 0.85508 0.72901 0.91315 0.0
C667 C 0.84584 0.77241 0.91798 0.0
O668 O 0.85617 0.77451 0.93458 0.0
N669 N 0.85171 0.73194 0.9409 0.0
C670 C 0.83927 0.73977 0.97082 0.0
C671 C 0.83493 0.73737 0.95081 0.0
C672 C 0.8659 0.73084 0.95526 0.0
N673 N 0.85882 0.7357 0.97353 0.0
O674 O 0.88191 0.73849 0.91465 0.0
H675 H 0.8206 0.74016 0.94382 0.0
H676 H 0.88139 0.72738 0.95236 0.0
O677 O 0.84501 0.75558 0.9091 0.0
C678 C 0.89318 0.72312 0.91506 0.0
O679 O 0.88476 0.70542 0.91698 0.0
N680 N 0.8295 0.71821 0.9108 0.0
C681 C 0.79619 0.69558 0.90039 0.0
C682 C 0.7974 0.71586 0.89505 0.0
C683 C 0.81432 0.72691 0.90022 0.0
C684 C 0.82807 0.69889 0.91715 0.0
C685 C 0.8115 0.68724 0.91208 0.0
H686 H 0.81568 0.74195 0.89447 0.0
H687 H 0.84046 0.69216 0.92511 0.0
H688 H 0.86454 0.75655 0.87694 0.0
H689 H 0.8624 0.70401 0.84236 0.0
H690 H 0.8289 0.74435 0.98239 0.0
H691 H 0.78607 0.72274 0.88572 0.0
H692 H 0.81106 0.67165 0.91652 0.0
C693 C 0.70543 0.87498 0.12704 0.0
C694 C 0.71028 0.88039 0.14642 0.0
N695 N 0.72977 0.88541 0.14686 0.0
N696 N 0.72192 0.87641 0.11538 0.0
C697 C 0.7362 0.88344 0.12788 0.0
H698 H 0.69089 0.86997 0.12217 0.0
Co699 Co 0.72753 0.87089 0.08815 0.0
C700 C 0.75469 0.84454 0.11137 0.0
O701 O 0.74025 0.84146 0.12438 0.0
N702 N 0.73347 0.86615 0.06125 0.0
C703 C 0.74624 0.85435 0.03285 0.0
C704 C 0.74479 0.85147 0.05318 0.0
C705 C 0.72805 0.8776 0.04551 0.0
N706 N 0.73575 0.87087 0.02807 0.0
O707 O 0.74214 0.89549 0.08726 0.0
H708 H 0.75168 0.83943 0.06141 0.0
H709 H 0.719 0.89093 0.04682 0.0
O710 O 0.75167 0.85578 0.09612 0.0
C711 C 0.72919 0.90922 0.08451 0.0
O712 O 0.71057 0.90385 0.08109 0.0
N713 N 0.71137 0.84789 0.08833 0.0
C714 C 0.68274 0.81768 0.09071 0.0
C715 C 0.70317 0.81296 0.08978 0.0
C716 C 0.71727 0.82829 0.08819 0.0
C717 C 0.69159 0.85256 0.08697 0.0
C718 C 0.67698 0.83774 0.08848 0.0
H719 H 0.73282 0.8242 0.08713 0.0
H720 H 0.68713 0.86807 0.08558 0.0
H721 H 0.75144 0.8863 0.12322 0.0
H722 H 0.70045 0.87984 0.15929 0.0
H723 H 0.75427 0.8449 0.02243 0.0
H724 H 0.70834 0.79764 0.09103 0.0
H725 H 0.66134 0.84201 0.08835 0.0
C726 C 0.14468 0.68432 0.13325 0.0
C727 C 0.13814 0.69671 0.14842 0.0
N728 N 0.13693 0.71546 0.14111 0.0
N729 N 0.14735 0.69531 0.11652 0.0
C730 C 0.14266 0.71421 0.12185 0.0
H731 H 0.14552 0.66815 0.13382 0.0
Co732 Co 0.1482 0.68583 0.09056 0.0
C733 C 0.17282 0.71529 0.06816 0.0
O734 O 0.17999 0.70081 0.05692 0.0
N735 N 0.14795 0.67633 0.06415 0.0
C736 C 0.14631 0.65798 0.03636 0.0
C737 C 0.15247 0.65833 0.05605 0.0
C738 C 0.13916 0.68655 0.04907 0.0
N739 N 0.13794 0.6758 0.03209 0.0
O740 O 0.12186 0.6959 0.08704 0.0
H741 H 0.15892 0.6458 0.06391 0.0
H742 H 0.1328 0.70136 0.05083 0.0
O743 O 0.15982 0.71125 0.08164 0.0
C744 C 0.10937 0.68273 0.09276 0.0
O745 O 0.11608 0.66469 0.09689 0.0
N746 N 0.17342 0.67475 0.09582 0.0
C747 C 0.20615 0.65597 0.11373 0.0
C748 C 0.20677 0.67641 0.10902 0.0
C749 C 0.19007 0.68563 0.1006 0.0
C750 C 0.17266 0.65481 0.10012 0.0
C751 C 0.18896 0.64503 0.10877 0.0
H752 H 0.1902 0.70172 0.09961 0.0
H753 H 0.15877 0.64674 0.0982 0.0
H754 H 0.14107 0.72637 0.11127 0.0
H755 H 0.1333 0.69211 0.1632 0.0
H756 H 0.14738 0.64541 0.02618 0.0
H757 H 0.21963 0.68551 0.11285 0.0
H758 H 0.18752 0.62939 0.11282 0.0
C759 C 0.86048 0.2869 0.14585 0.0
C760 C 0.86379 0.27282 0.16063 0.0
N761 N 0.86985 0.25573 0.15178 0.0
N762 N 0.86418 0.27849 0.12784 0.0
C763 C 0.86988 0.25959 0.13203 0.0
H764 H 0.85594 0.30226 0.14818 0.0
Co765 Co 0.86353 0.28871 0.10203 0.0
C766 C 0.83721 0.25956 0.08002 0.0
O767 O 0.83189 0.27284 0.06652 0.0
N768 N 0.86352 0.29871 0.07565 0.0
C769 C 0.86405 0.31862 0.04893 0.0
C770 C 0.85871 0.31713 0.06871 0.0
C771 C 0.87172 0.28933 0.05965 0.0
N772 N 0.87229 0.30114 0.04331 0.0
O773 O 0.88896 0.2766 0.09741 0.0
H774 H 0.85254 0.32924 0.07737 0.0
H775 H 0.878 0.2744 0.06021 0.0
O776 O 0.84961 0.26441 0.09375 0.0
C777 C 0.9032 0.2892 0.09856 0.0
O778 O 0.8988 0.30833 0.10001 0.0
N779 N 0.83953 0.30202 0.10796 0.0
C780 C 0.80805 0.3263 0.12072 0.0
C781 C 0.80472 0.30614 0.1158 0.0
C782 C 0.82076 0.29411 0.10978 0.0
C783 C 0.84308 0.32133 0.11345 0.0
C784 C 0.82757 0.33384 0.11949 0.0
H785 H 0.81799 0.27841 0.1075 0.0
H786 H 0.85823 0.32705 0.1131 0.0
H787 H 0.87403 0.24877 0.1207 0.0
H788 H 0.86238 0.27513 0.17662 0.0
H789 H 0.86245 0.33172 0.03953 0.0
H790 H 0.79002 0.2995 0.11736 0.0
H791 H 0.8309 0.34925 0.12329 0.0
C792 C 0.62166 0.78581 0.62462 0.0
C793 C 0.63953 0.77905 0.61663 0.0
N794 N 0.63611 0.76113 0.60804 0.0
N795 N 0.6074 0.77185 0.62143 0.0
C796 C 0.61669 0.7572 0.61119 0.0
H797 H 0.61947 0.79951 0.63299 0.0
Co798 Co 0.58114 0.76937 0.63011 0.0
C799 C 0.58111 0.7257 0.63941 0.0
O800 O 0.56521 0.72173 0.62854 0.0
N801 N 0.55494 0.76644 0.63876 0.0
C802 C 0.52745 0.75805 0.6555 0.0
C803 C 0.54805 0.75762 0.65561 0.0
C804 C 0.53843 0.77248 0.62895 0.0
N805 N 0.52153 0.76745 0.63868 0.0
O806 O 0.57436 0.75821 0.60467 0.0
H807 H 0.5574 0.75112 0.66713 0.0
H808 H 0.5387 0.78007 0.61469 0.0
O809 O 0.58772 0.74352 0.64061 0.0
C810 C 0.57143 0.77199 0.59187 0.0
O811 O 0.5718 0.79073 0.59793 0.0
N812 N 0.58768 0.7815 0.65435 0.0
C813 C 0.59701 0.80356 0.68839 0.0
C814 C 0.60496 0.78433 0.68562 0.0
C815 C 0.60025 0.77358 0.66837 0.0
C816 C 0.57971 0.80011 0.65682 0.0
C817 C 0.58419 0.81145 0.67378 0.0
H818 H 0.60725 0.75922 0.6661 0.0
H819 H 0.57005 0.80626 0.64537 0.0
H820 H 0.60959 0.74319 0.60716 0.0
H821 H 0.65394 0.78639 0.61757 0.0
H822 H 0.51762 0.75206 0.6669 0.0
H823 H 0.61532 0.77793 0.69634 0.0
H824 H 0.57779 0.82627 0.67539 0.0
C825 C 0.1965 0.65106 0.61624 0.0
C826 C 0.20264 0.66713 0.60483 0.0
N827 N 0.21923 0.66176 0.59468 0.0
N828 N 0.20942 0.63577 0.61362 0.0
C829 C 0.22239 0.64245 0.59964 0.0
H830 H 0.18402 0.65099 0.62655 0.0
Co831 Co 0.21075 0.61081 0.62646 0.0
C832 C 0.25168 0.62868 0.63721 0.0
O833 O 0.24851 0.64672 0.63011 0.0
N834 N 0.21224 0.58568 0.63902 0.0
C835 C 0.21801 0.56179 0.66159 0.0
C836 C 0.21665 0.5821 0.65846 0.0
C837 C 0.21113 0.56728 0.63067 0.0
N838 N 0.2147 0.55258 0.644 0.0
O839 O 0.22035 0.59966 0.60202 0.0
H840 H 0.21929 0.59354 0.66962 0.0
H841 H 0.20799 0.5645 0.61507 0.0
O842 O 0.23806 0.6153 0.63611 0.0
C843 C 0.20517 0.59536 0.59132 0.0
O844 O 0.18734 0.59647 0.59957 0.0
N845 N 0.1996 0.62178 0.64969 0.0
C846 C 0.17832 0.63722 0.68199 0.0
C847 C 0.19762 0.64416 0.67764 0.0
C848 C 0.20801 0.6363 0.66137 0.0
C849 C 0.18079 0.61496 0.6536 0.0
C850 C 0.16991 0.62234 0.66981 0.0
H851 H 0.22247 0.64239 0.65802 0.0
H852 H 0.17416 0.6038 0.64391 0.0
H853 H 0.23506 0.63377 0.59452 0.0
H854 H 0.1963 0.68204 0.60528 0.0
H855 H 0.22184 0.55441 0.67551 0.0
H856 H 0.20464 0.65561 0.68674 0.0
H857 H 0.15493 0.6168 0.67251 0.0
C858 C 0.36373 0.22488 0.61542 0.0
C859 C 0.34735 0.23446 0.60727 0.0
N860 N 0.35104 0.25432 0.6072 0.0
N861 N 0.37753 0.23871 0.62043 0.0
C862 C 0.36945 0.25641 0.6151 0.0
H863 H 0.36553 0.20892 0.61749 0.0
Co864 Co 0.40285 0.23473 0.63082 0.0
C865 C 0.41475 0.27492 0.64496 0.0
O866 O 0.43278 0.27337 0.6373 0.0
N867 N 0.42869 0.23089 0.64144 0.0
C868 C 0.45447 0.22929 0.66256 0.0
C869 C 0.43413 0.23194 0.66094 0.0
C870 C 0.44605 0.22774 0.63157 0.0
N871 N 0.46187 0.22683 0.64401 0.0
O872 O 0.41345 0.24502 0.60644 0.0
H873 H 0.42404 0.23497 0.67323 0.0
H874 H 0.44735 0.22623 0.61554 0.0
O875 O 0.40213 0.26084 0.64278 0.0
C876 C 0.41501 0.23019 0.59458 0.0
O877 O 0.41183 0.21209 0.60164 0.0
N878 N 0.3916 0.22334 0.65364 0.0
C879 C 0.37494 0.20267 0.68569 0.0
C880 C 0.37175 0.22331 0.6835 0.0
C881 C 0.38002 0.23338 0.66718 0.0
C882 C 0.3946 0.20324 0.65534 0.0
C883 C 0.38643 0.19258 0.67132 0.0
H884 H 0.37682 0.24912 0.66534 0.0
H885 H 0.40342 0.19549 0.64418 0.0
H886 H 0.37713 0.2706 0.61651 0.0
H887 H 0.33372 0.22741 0.60207 0.0
H888 H 0.46321 0.22973 0.6762 0.0
H889 H 0.36258 0.23151 0.69406 0.0
H890 H 0.38923 0.17664 0.6725 0.0
C891 C 0.78949 0.35286 0.62351 0.0
C892 C 0.78025 0.33537 0.61773 0.0
N893 N 0.76072 0.33928 0.61456 0.0
N894 N 0.77581 0.36766 0.62406 0.0
C895 C 0.75842 0.35896 0.61856 0.0
H896 H 0.8053 0.35485 0.62632 0.0
Co897 Co 0.78123 0.39462 0.62721 0.0
C898 C 0.74881 0.41138 0.65184 0.0
O899 O 0.7621 0.42359 0.65962 0.0
N900 N 0.78682 0.42237 0.62947 0.0
C901 C 0.79757 0.45322 0.63643 0.0
C902 C 0.80084 0.43309 0.63948 0.0
C903 C 0.77558 0.43643 0.62018 0.0
N904 N 0.78169 0.45516 0.62425 0.0
O905 O 0.77266 0.3987 0.60033 0.0
H906 H 0.8126 0.42708 0.64871 0.0
H907 H 0.76259 0.43304 0.61111 0.0
O908 O 0.75408 0.39914 0.63799 0.0
C909 C 0.78832 0.40006 0.58959 0.0
O910 O 0.80586 0.39963 0.59851 0.0
N911 N 0.7913 0.38912 0.65281 0.0
C912 C 0.81015 0.37572 0.68751 0.0
C913 C 0.78928 0.37494 0.68573 0.0
C914 C 0.78019 0.38121 0.66806 0.0
C915 C 0.81166 0.38906 0.65394 0.0
C916 C 0.82141 0.38282 0.67131 0.0
H917 H 0.76438 0.37853 0.66637 0.0
H918 H 0.8204 0.39351 0.64105 0.0
H919 H 0.74462 0.36714 0.61632 0.0
H920 H 0.78744 0.32101 0.61557 0.0
H921 H 0.80629 0.46547 0.6425 0.0
H922 H 0.78012 0.36852 0.69748 0.0
H923 H 0.8376 0.38323 0.67189 0.0
C924 C 0.63571 0.21728 0.37903 0.0
C925 C 0.65409 0.22409 0.38546 0.0
N926 N 0.65382 0.24428 0.38523 0.0
N927 N 0.62398 0.23312 0.37477 0.0
C928 C 0.63535 0.24932 0.37884 0.0
H929 H 0.63122 0.20181 0.37737 0.0
Co930 Co 0.59782 0.23234 0.3655 0.0
C931 C 0.58888 0.27414 0.35498 0.0
O932 O 0.57163 0.27361 0.36439 0.0
N933 N 0.57131 0.2317 0.35592 0.0
C934 C 0.54499 0.23407 0.33558 0.0
C935 C 0.56544 0.23554 0.33691 0.0
C936 C 0.55406 0.2281 0.36586 0.0
N937 N 0.53791 0.22951 0.35386 0.0
O938 O 0.58932 0.24178 0.39096 0.0
H939 H 0.5754 0.23948 0.32477 0.0
H940 H 0.55316 0.22436 0.38156 0.0
O941 O 0.60041 0.25899 0.35519 0.0
C942 C 0.5869 0.22624 0.40173 0.0
O943 O 0.58809 0.20858 0.39309 0.0
N944 N 0.60685 0.22156 0.34151 0.0
C945 C 0.62081 0.20123 0.30801 0.0
C946 C 0.62646 0.22117 0.31153 0.0
C947 C 0.61944 0.23106 0.32853 0.0
C948 C 0.60129 0.2022 0.33842 0.0
C949 C 0.608 0.19176 0.32166 0.0
H950 H 0.62457 0.24611 0.33147 0.0
H951 H 0.59169 0.19481 0.34917 0.0
H952 H 0.63013 0.26458 0.37735 0.0
H953 H 0.66679 0.21489 0.38955 0.0
H954 H 0.53599 0.2365 0.32233 0.0
H955 H 0.63671 0.22884 0.30159 0.0
H956 H 0.60324 0.17641 0.31945 0.0
C957 C 0.77484 0.63305 0.35673 0.0
C958 C 0.76546 0.64952 0.36502 0.0
N959 N 0.74552 0.64661 0.36398 0.0
N960 N 0.7608 0.61994 0.35058 0.0
C961 C 0.74317 0.62865 0.35514 0.0
H962 H 0.79078 0.63032 0.35621 0.0
Co963 Co 0.76372 0.5935 0.34269 0.0
C964 C 0.72448 0.58587 0.32315 0.0
O965 O 0.72182 0.56836 0.33169 0.0
N966 N 0.76647 0.56675 0.33497 0.0
C967 C 0.76638 0.53791 0.31824 0.0
C968 C 0.76384 0.55836 0.31674 0.0
C969 C 0.77109 0.55128 0.34707 0.0
N970 N 0.77097 0.53361 0.33739 0.0
O971 O 0.74837 0.58596 0.36545 0.0
H972 H 0.75994 0.56654 0.30331 0.0
H973 H 0.774 0.55273 0.36289 0.0
O974 O 0.74013 0.5961 0.32668 0.0
C975 C 0.75987 0.58522 0.38061 0.0
O976 O 0.77922 0.58748 0.3779 0.0
N977 N 0.77984 0.60136 0.32142 0.0
C978 C 0.80759 0.61347 0.29288 0.0
C979 C 0.78726 0.61814 0.29061 0.0
C980 C 0.77359 0.61215 0.30522 0.0
C981 C 0.7995 0.59658 0.32381 0.0
C982 C 0.81369 0.60252 0.30971 0.0
H983 H 0.75815 0.61665 0.30365 0.0
H984 H 0.80418 0.58834 0.33695 0.0
H985 H 0.72887 0.62125 0.35344 0.0
H986 H 0.77274 0.66229 0.37184 0.0
H987 H 0.76497 0.5271 0.30624 0.0
H988 H 0.78208 0.62696 0.27802 0.0
H989 H 0.82927 0.59867 0.31197 0.0
C990 C 0.34929 0.78631 0.38568 0.0
C991 C 0.33209 0.77759 0.393 0.0
N992 N 0.3343 0.75752 0.39223 0.0
N993 N 0.36221 0.7718 0.38031 0.0
C994 C 0.35277 0.75447 0.38465 0.0
H995 H 0.35213 0.80218 0.3841 0.0
Co996 Co 0.38744 0.77525 0.36933 0.0
C997 C 0.39968 0.73427 0.35901 0.0
O998 O 0.41618 0.73607 0.36956 0.0
N999 N 0.41311 0.77849 0.35796 0.0
C1000 C 0.43793 0.77813 0.33567 0.0
C1001 C 0.41766 0.77627 0.33833 0.0
C1002 C 0.43103 0.78145 0.36691 0.0
N1003 N 0.44629 0.78124 0.3537 0.0
O1004 O 0.39843 0.7665 0.39402 0.0
H1005 H 0.40702 0.77272 0.32666 0.0
H1006 H 0.4331 0.78325 0.38284 0.0
O1007 O 0.38702 0.7485 0.35866 0.0
C1008 C 0.40059 0.78197 0.40494 0.0
O1009 O 0.39821 0.79967 0.39666 0.0
N1010 N 0.37573 0.78528 0.34617 0.0
C1011 C 0.35882 0.80316 0.31257 0.0
C1012 C 0.35523 0.7829 0.31693 0.0
C1013 C 0.36352 0.77435 0.33401 0.0
C1014 C 0.379 0.80508 0.34259 0.0
C1015 C 0.37073 0.81434 0.32581 0.0
H1016 H 0.35993 0.75901 0.33749 0.0
H1017 H 0.38816 0.81366 0.35283 0.0
H1018 H 0.35935 0.73986 0.38239 0.0
H1019 H 0.31881 0.78542 0.39795 0.0
H1020 H 0.446 0.77636 0.32173 0.0
H1021 H 0.34623 0.7736 0.30718 0.0
H1022 H 0.37349 0.83013 0.32339 0.0
C1023 C 0.21385 0.35049 0.37568 0.0
C1024 C 0.22149 0.33263 0.38274 0.0
N1025 N 0.24155 0.33438 0.38392 0.0
N1026 N 0.22907 0.36332 0.37246 0.0
C1027 C 0.24568 0.35314 0.37773 0.0
H1028 H 0.19824 0.35394 0.37315 0.0
Co1029 Co 0.22787 0.38973 0.36394 0.0
C1030 C 0.26952 0.39762 0.35104 0.0
O1031 O 0.27027 0.41508 0.36008 0.0
N1032 N 0.22684 0.41648 0.35531 0.0
C1033 C 0.23056 0.44425 0.33724 0.0
C1034 C 0.23132 0.42365 0.33692 0.0
C1035 C 0.22299 0.43297 0.36635 0.0
N1036 N 0.22535 0.45003 0.35583 0.0
O1037 O 0.23898 0.3977 0.38904 0.0
H1038 H 0.23555 0.4145 0.32424 0.0
H1039 H 0.21926 0.43269 0.38205 0.0
O1040 O 0.25384 0.3869 0.35206 0.0
C1041 C 0.22429 0.39918 0.40109 0.0
O1042 O 0.20612 0.39625 0.39412 0.0
N1043 N 0.2155 0.38155 0.34037 0.0
C1044 C 0.19236 0.36801 0.30854 0.0
C1045 C 0.21285 0.36359 0.30943 0.0
C1046 C 0.22418 0.37029 0.32566 0.0
C1047 C 0.1957 0.38624 0.33959 0.0
C1048 C 0.1838 0.37959 0.3238 0.0
H1049 H 0.2397 0.3659 0.32662 0.0
H1050 H 0.18905 0.39485 0.3516 0.0
H1051 H 0.26055 0.35954 0.37753 0.0
H1052 H 0.21297 0.31937 0.3865 0.0
H1053 H 0.23376 0.45418 0.32484 0.0
H1054 H 0.21988 0.35435 0.29809 0.0
H1055 H 0.16802 0.38329 0.32361 0.0
C1056 C 0.64036 0.63865 0.78516 0.0
C1057 C 0.63603 0.65406 0.77212 0.0
N1058 N 0.63092 0.64599 0.75435 0.0
N1059 N 0.63827 0.62103 0.77547 0.0
C1060 C 0.6324 0.62605 0.75681 0.0
H1061 H 0.64447 0.64026 0.80073 0.0
Co1062 Co 0.64109 0.5949 0.78447 0.0
C1063 C 0.66898 0.57611 0.7552 0.0
O1064 O 0.67619 0.56413 0.76904 0.0
N1065 N 0.64335 0.56809 0.79325 0.0
C1066 C 0.64593 0.54026 0.81141 0.0
C1067 C 0.65014 0.56037 0.81071 0.0
C1068 C 0.63536 0.55217 0.78354 0.0
N1069 N 0.63655 0.53519 0.79434 0.0
O1070 O 0.61566 0.589 0.77284 0.0
H1071 H 0.65697 0.56863 0.82275 0.0
H1072 H 0.62781 0.55321 0.76924 0.0
O1073 O 0.65501 0.58842 0.75963 0.0
C1074 C 0.60256 0.58917 0.78668 0.0
O1075 O 0.60869 0.59072 0.80532 0.0
N1076 N 0.66478 0.60218 0.79758 0.0
C1077 C 0.69436 0.61917 0.82161 0.0
C1078 C 0.69799 0.61535 0.80126 0.0
C1079 C 0.68281 0.60722 0.78934 0.0
C1080 C 0.66099 0.60617 0.81722 0.0
C1081 C 0.67561 0.61433 0.82957 0.0
H1082 H 0.68534 0.60612 0.77345 0.0
H1083 H 0.64622 0.60336 0.82322 0.0
H1084 H 0.62921 0.6152 0.74519 0.0
H1085 H 0.63612 0.6699 0.77557 0.0
H1086 H 0.64891 0.53026 0.82382 0.0
H1087 H 0.71206 0.61957 0.79441 0.0
H1088 H 0.67211 0.61717 0.84515 0.0
C1089 C 0.36403 0.63676 0.77663 0.0
C1090 C 0.34707 0.63242 0.76568 0.0
N1091 N 0.3521 0.63223 0.74615 0.0
N1092 N 0.37953 0.63939 0.76397 0.0
C1093 C 0.37183 0.6362 0.7456 0.0
H1094 H 0.365 0.6379 0.79275 0.0
Co1095 Co 0.40598 0.64485 0.77023 0.0
C1096 C 0.42274 0.66694 0.73455 0.0
O1097 O 0.43911 0.67224 0.74402 0.0
N1098 N 0.43312 0.64985 0.77696 0.0
C1099 C 0.46098 0.65985 0.79234 0.0
C1100 C 0.44082 0.66316 0.79019 0.0
C1101 C 0.44918 0.63895 0.77101 0.0
N1102 N 0.46616 0.6446 0.78029 0.0
O1103 O 0.41242 0.61841 0.76177 0.0
H1104 H 0.43252 0.67433 0.79834 0.0
H1105 H 0.44842 0.62648 0.76071 0.0
O1106 O 0.40991 0.65569 0.74324 0.0
C1107 C 0.41336 0.60744 0.77734 0.0
O1108 O 0.41231 0.61612 0.79498 0.0
N1109 N 0.39802 0.66983 0.78017 0.0
C1110 C 0.38083 0.70263 0.79937 0.0
C1111 C 0.38477 0.70318 0.77876 0.0
C1112 C 0.39308 0.68648 0.76934 0.0
C1113 C 0.39419 0.66905 0.8002 0.0
C1114 C 0.38578 0.68534 0.81015 0.0
H1115 H 0.39451 0.68685 0.75332 0.0
H1116 H 0.39752 0.6555 0.80842 0.0
H1117 H 0.3806 0.63627 0.73202 0.0
H1118 H 0.33218 0.63 0.77158 0.0
H1119 H 0.47099 0.66769 0.80241 0.0
H1120 H 0.38058 0.71604 0.7698 0.0
H1121 H 0.38295 0.68429 0.82608 0.0
C1122 C 0.37142 0.36849 0.79254 0.0
C1123 C 0.37703 0.35236 0.78091 0.0
N1124 N 0.37421 0.35733 0.76157 0.0
N1125 N 0.3652 0.38344 0.78049 0.0
C1126 C 0.3671 0.37617 0.76175 0.0
H1127 H 0.37297 0.36971 0.80862 0.0
Co1128 Co 0.36118 0.40984 0.78764 0.0
C1129 C 0.33332 0.42666 0.75705 0.0
O1130 O 0.32629 0.43969 0.77002 0.0
N1131 N 0.35796 0.43696 0.79501 0.0
C1132 C 0.35394 0.4654 0.81194 0.0
C1133 C 0.35022 0.44518 0.81183 0.0
C1134 C 0.36604 0.45269 0.78507 0.0
N1135 N 0.36399 0.47004 0.79514 0.0
O1136 O 0.38611 0.41578 0.77558 0.0
H1137 H 0.34301 0.4372 0.82384 0.0
H1138 H 0.37425 0.4513 0.77117 0.0
O1139 O 0.34722 0.41461 0.76231 0.0
C1140 C 0.40006 0.41742 0.78841 0.0
O1141 O 0.39531 0.41831 0.80749 0.0
N1142 N 0.33762 0.40235 0.80077 0.0
C1143 C 0.30666 0.38745 0.82436 0.0
C1144 C 0.30417 0.38974 0.80364 0.0
C1145 C 0.32001 0.39679 0.79202 0.0
C1146 C 0.34061 0.39918 0.82071 0.0
C1147 C 0.32524 0.39207 0.83287 0.0
H1148 H 0.31817 0.3968 0.77602 0.0
H1149 H 0.35512 0.40231 0.82719 0.0
H1150 H 0.36503 0.38505 0.74838 0.0
H1151 H 0.38337 0.3384 0.78618 0.0
H1152 H 0.35014 0.47578 0.82381 0.0
H1153 H 0.29035 0.3854 0.79636 0.0
H1154 H 0.3279 0.39023 0.84876 0.0
C1155 C 0.63568 0.36831 0.78521 0.0
C1156 C 0.6534 0.37409 0.77621 0.0
N1157 N 0.6501 0.37567 0.75637 0.0
N1158 N 0.62148 0.36641 0.77099 0.0
C1159 C 0.6307 0.37122 0.75372 0.0
H1160 H 0.63328 0.36575 0.80102 0.0
Co1161 Co 0.59461 0.35984 0.77293 0.0
C1162 C 0.58652 0.34728 0.73032 0.0
O1163 O 0.56927 0.35644 0.72808 0.0
N1164 N 0.5675 0.35317 0.77438 0.0
C1165 C 0.5384 0.33755 0.77008 0.0
C1166 C 0.5589 0.33549 0.76958 0.0
C1167 C 0.55198 0.36553 0.77814 0.0
N1168 N 0.53417 0.35651 0.77544 0.0
O1169 O 0.58846 0.38564 0.76237 0.0
H1170 H 0.567 0.32221 0.76509 0.0
H1171 H 0.55354 0.38119 0.78175 0.0
O1172 O 0.59595 0.34834 0.7468 0.0
C1173 C 0.58865 0.39757 0.77725 0.0
O1174 O 0.59037 0.38995 0.79533 0.0
N1175 N 0.60148 0.33552 0.78469 0.0
C1176 C 0.61722 0.30399 0.8069 0.0
C1177 C 0.61899 0.3043 0.78597 0.0
C1178 C 0.61125 0.32033 0.77515 0.0
C1179 C 0.59864 0.33501 0.80487 0.0
C1180 C 0.60641 0.31935 0.81633 0.0
H1181 H 0.61403 0.32078 0.75928 0.0
H1182 H 0.59121 0.3474 0.81221 0.0
H1183 H 0.6232 0.37202 0.73938 0.0
H1184 H 0.66759 0.37671 0.78359 0.0
H1185 H 0.52751 0.32614 0.76636 0.0
H1186 H 0.6269 0.29258 0.77803 0.0
H1187 H 0.60485 0.31984 0.83246 0.0
C1188 C 0.62263 0.37788 0.21069 0.0
C1189 C 0.61649 0.36043 0.22001 0.0
N1190 N 0.62152 0.36176 0.23947 0.0
N1191 N 0.63124 0.38998 0.2244 0.0
C1192 C 0.63021 0.37973 0.24171 0.0
H1193 H 0.6201 0.38192 0.19521 0.0
Co1194 Co 0.63834 0.41666 0.22188 0.0
C1195 C 0.65618 0.42586 0.26195 0.0
O1196 O 0.64749 0.44342 0.26376 0.0
N1197 N 0.64519 0.44364 0.21938 0.0
C1198 C 0.66138 0.47275 0.21967 0.0
C1199 C 0.66329 0.45232 0.22184 0.0
C1200 C 0.6327 0.45896 0.21533 0.0
N1201 N 0.64209 0.47681 0.21556 0.0
O1202 O 0.61475 0.42316 0.23638 0.0
H1203 H 0.67692 0.44433 0.22539 0.0
H1204 H 0.61685 0.45726 0.21284 0.0
O1205 O 0.65331 0.41517 0.24645 0.0
C1206 C 0.59903 0.42336 0.22567 0.0
O1207 O 0.60095 0.42316 0.20608 0.0
N1208 N 0.66092 0.40928 0.2072 0.0
C1209 C 0.69326 0.39748 0.1838 0.0
C1210 C 0.69173 0.39133 0.20378 0.0
C1211 C 0.67533 0.39716 0.21516 0.0
C1212 C 0.6619 0.41515 0.18767 0.0
C1213 C 0.67802 0.40937 0.17562 0.0
H1214 H 0.67409 0.39148 0.23024 0.0
H1215 H 0.65005 0.42426 0.18143 0.0
H1216 H 0.63416 0.38587 0.25613 0.0
H1217 H 0.60857 0.34804 0.2132 0.0
H1218 H 0.67322 0.48373 0.22102 0.0
H1219 H 0.70288 0.38161 0.21044 0.0
H1220 H 0.67864 0.41423 0.16016 0.0
C1221 C 0.62977 0.64273 0.18039 0.0
C1222 C 0.64725 0.63683 0.18967 0.0
N1223 N 0.64525 0.64021 0.20945 0.0
N1224 N 0.61691 0.64957 0.19436 0.0
C1225 C 0.62684 0.64795 0.21186 0.0
H1226 H 0.62599 0.64045 0.16481 0.0
Co1227 Co 0.58961 0.65202 0.19129 0.0
C1228 C 0.57611 0.67867 0.22436 0.0
O1229 O 0.56216 0.68654 0.21292 0.0
N1230 N 0.56168 0.65348 0.1882 0.0
C1231 C 0.53084 0.65335 0.17566 0.0
C1232 C 0.55039 0.65874 0.17224 0.0
C1233 C 0.54849 0.64523 0.20118 0.0
N1234 N 0.52975 0.64478 0.19384 0.0
O1235 O 0.58705 0.6267 0.20377 0.0
H1236 H 0.55588 0.66487 0.15837 0.0
H1237 H 0.55281 0.63826 0.21516 0.0
O1238 O 0.58761 0.6651 0.21735 0.0
C1239 C 0.58516 0.61203 0.1918 0.0
O1240 O 0.58219 0.6157 0.17269 0.0
N1241 N 0.59359 0.67626 0.17772 0.0
C1242 C 0.60481 0.70823 0.15329 0.0
C1243 C 0.60549 0.70997 0.1742 0.0
C1244 C 0.60029 0.69366 0.18616 0.0
C1245 C 0.59353 0.67411 0.15743 0.0
C1246 C 0.59874 0.68998 0.1449 0.0
H1247 H 0.60291 0.69486 0.20201 0.0
H1248 H 0.58989 0.65972 0.15093 0.0
H1249 H 0.61999 0.65014 0.22636 0.0
H1250 H 0.65986 0.62945 0.18267 0.0
H1251 H 0.51858 0.65459 0.16513 0.0
H1252 H 0.61109 0.72345 0.18128 0.0
H1253 H 0.59841 0.68785 0.12883 0.0
C1254 C 0.37155 0.62133 0.22071 0.0
C1255 C 0.37646 0.64005 0.22805 0.0
N1256 N 0.38377 0.63774 0.24671 0.0
N1257 N 0.37536 0.60753 0.23497 0.0
C1258 C 0.38306 0.61798 0.25041 0.0
H1259 H 0.36475 0.61814 0.20637 0.0
Co1260 Co 0.36961 0.58037 0.2362 0.0
C1261 C 0.35971 0.57464 0.2792 0.0
O1262 O 0.36958 0.5577 0.28074 0.0
N1263 N 0.36367 0.55295 0.23796 0.0
C1264 C 0.34802 0.52428 0.24458 0.0
C1265 C 0.34593 0.54472 0.24316 0.0
C1266 C 0.37618 0.53719 0.23611 0.0
N1267 N 0.3671 0.51963 0.24017 0.0
O1268 O 0.39612 0.57612 0.24577 0.0
H1269 H 0.33247 0.55308 0.24641 0.0
H1270 H 0.39189 0.53849 0.23267 0.0
O1271 O 0.35942 0.58417 0.26273 0.0
C1272 C 0.40711 0.57459 0.23027 0.0
O1273 O 0.39831 0.57286 0.21274 0.0
N1274 N 0.34447 0.58522 0.22525 0.0
C1275 C 0.31103 0.5964 0.20315 0.0
C1276 C 0.31297 0.60215 0.22328 0.0
C1277 C 0.32993 0.59656 0.23406 0.0
C1278 C 0.34247 0.57875 0.20602 0.0
C1279 C 0.32581 0.58412 0.19468 0.0
H1280 H 0.33174 0.60225 0.24909 0.0
H1281 H 0.35438 0.57015 0.1992 0.0
H1282 H 0.38696 0.61131 0.26466 0.0
H1283 H 0.37422 0.65424 0.22054 0.0
H1284 H 0.33644 0.51372 0.24868 0.0
H1285 H 0.30182 0.61148 0.23045 0.0
H1286 H 0.3251 0.57959 0.17912 0.0
C1287 C 0.37474 0.3532 0.21118 0.0
C1288 C 0.35676 0.35816 0.22007 0.0
N1289 N 0.3582 0.35407 0.23976 0.0
N1290 N 0.38734 0.34619 0.22531 0.0
C1291 C 0.3768 0.34689 0.2425 0.0
H1292 H 0.37889 0.35599 0.19577 0.0
Co1293 Co 0.41478 0.34347 0.22322 0.0
C1294 C 0.42686 0.31484 0.25546 0.0
O1295 O 0.44309 0.30966 0.24569 0.0
N1296 N 0.44301 0.3415 0.22117 0.0
C1297 C 0.47459 0.33601 0.21176 0.0
C1298 C 0.45484 0.33122 0.20828 0.0
C1299 C 0.45609 0.35212 0.23242 0.0
N1300 N 0.4752 0.34931 0.22684 0.0
O1301 O 0.41705 0.36789 0.23747 0.0
H1302 H 0.4497 0.32118 0.19672 0.0
H1303 H 0.45182 0.3622 0.24435 0.0
O1304 O 0.41518 0.32815 0.24819 0.0
C1305 C 0.41986 0.38248 0.22556 0.0
O1306 O 0.42309 0.37866 0.20652 0.0
N1307 N 0.41105 0.32057 0.20767 0.0
C1308 C 0.40032 0.2913 0.18005 0.0
C1309 C 0.39953 0.28735 0.20065 0.0
C1310 C 0.40453 0.30235 0.21426 0.0
C1311 C 0.4117 0.32471 0.18769 0.0
C1312 C 0.40651 0.31024 0.17357 0.0
H1313 H 0.402 0.29945 0.2299 0.0
H1314 H 0.41593 0.33956 0.18276 0.0
H1315 H 0.3832 0.34427 0.25712 0.0
H1316 H 0.34406 0.3652 0.21288 0.0
H1317 H 0.48737 0.33102 0.20315 0.0
H1318 H 0.39405 0.27313 0.2062 0.0
H1319 H 0.40703 0.31391 0.15778 0.0
C1320 C 0.77933 0.61662 0.61698 0.0
C1321 C 0.77374 0.6108 0.63603 0.0
N1322 N 0.7536 0.61129 0.63714 0.0
N1323 N 0.76274 0.62072 0.60627 0.0
C1324 C 0.74739 0.61729 0.61891 0.0
H1325 H 0.79441 0.61733 0.61116 0.0
Co1326 Co 0.76034 0.62678 0.57931 0.0
C1327 C 0.71915 0.64213 0.57666 0.0
O1328 O 0.71472 0.62986 0.56193 0.0
N1329 N 0.75751 0.63294 0.55202 0.0
C1330 C 0.75075 0.6494 0.52384 0.0
C1331 C 0.75406 0.65124 0.54408 0.0
C1332 C 0.75645 0.62032 0.53626 0.0
N1333 N 0.7522 0.62989 0.519 0.0
O1334 O 0.74569 0.60262 0.57619 0.0
H1335 H 0.75332 0.66501 0.55258 0.0
H1336 H 0.75794 0.60429 0.5374 0.0
O1337 O 0.73639 0.64159 0.58469 0.0
C1338 C 0.75768 0.58818 0.57308 0.0
O1339 O 0.77667 0.59217 0.56984 0.0
N1340 N 0.77591 0.64961 0.583 0.0
C1341 C 0.80195 0.68146 0.58886 0.0
C1342 C 0.78284 0.68165 0.59743 0.0
C1343 C 0.77014 0.6654 0.59461 0.0
C1344 C 0.79448 0.64911 0.57457 0.0
C1345 C 0.80787 0.66492 0.57742 0.0
H1346 H 0.75596 0.66539 0.60227 0.0
H1347 H 0.79897 0.6362 0.56586 0.0
H1348 H 0.73184 0.61821 0.61449 0.0
H1349 H 0.78371 0.60642 0.64802 0.0
H1350 H 0.74743 0.66147 0.51354 0.0
H1351 H 0.77804 0.69394 0.60688 0.0
H1352 H 0.82268 0.66422 0.57085 0.0
C1353 C 0.80456 0.37073 0.34744 0.0
C1354 C 0.79257 0.37759 0.33213 0.0
N1355 N 0.77337 0.37558 0.33788 0.0
N1356 N 0.79289 0.36451 0.36268 0.0
C1357 C 0.77397 0.36756 0.35636 0.0
H1358 H 0.82068 0.37185 0.34809 0.0
Co1359 Co 0.80115 0.36099 0.38876 0.0
C1360 C 0.77259 0.33217 0.40734 0.0
O1361 O 0.78678 0.32525 0.41906 0.0
N1362 N 0.80976 0.35844 0.41548 0.0
C1363 C 0.82812 0.35575 0.44314 0.0
C1364 C 0.82757 0.35229 0.42289 0.0
C1365 C 0.79977 0.36547 0.43166 0.0
N1366 N 0.81065 0.3641 0.44857 0.0
O1367 O 0.78821 0.38544 0.39501 0.0
H1368 H 0.83989 0.3464 0.41434 0.0
H1369 H 0.78512 0.37233 0.4309 0.0
O1370 O 0.77654 0.3461 0.39479 0.0
C1371 C 0.80007 0.40029 0.3957 0.0
O1372 O 0.81945 0.39691 0.39574 0.0
N1373 N 0.81498 0.33789 0.38102 0.0
C1374 C 0.83957 0.3076 0.36644 0.0
C1375 C 0.81916 0.30408 0.36973 0.0
C1376 C 0.80698 0.31961 0.37657 0.0
C1377 C 0.83455 0.34181 0.37683 0.0
C1378 C 0.84721 0.32681 0.36979 0.0
H1379 H 0.79113 0.31691 0.37744 0.0
H1380 H 0.84036 0.35675 0.37914 0.0
H1381 H 0.76097 0.36605 0.3659 0.0
H1382 H 0.79754 0.38454 0.31836 0.0
H1383 H 0.84063 0.35286 0.45303 0.0
H1384 H 0.81254 0.28966 0.36638 0.0
H1385 H 0.86282 0.33022 0.36708 0.0
C1386 C 0.64252 0.78299 0.35563 0.0
C1387 C 0.64014 0.77488 0.33685 0.0
N1388 N 0.63036 0.75734 0.33874 0.0
N1389 N 0.63432 0.77058 0.36925 0.0
C1390 C 0.62713 0.75501 0.35854 0.0
H1391 H 0.64874 0.79755 0.35903 0.0
Co1392 Co 0.62926 0.77691 0.3958 0.0
C1393 C 0.6453 0.74146 0.41708 0.0
O1394 O 0.65216 0.75325 0.43129 0.0
N1395 N 0.6229 0.78413 0.4221 0.0
C1396 C 0.60991 0.80366 0.44577 0.0
C1397 C 0.61894 0.80325 0.42736 0.0
C1398 C 0.61511 0.77311 0.43726 0.0
N1399 N 0.60751 0.78468 0.45196 0.0
O1400 O 0.60176 0.77129 0.39175 0.0
H1401 H 0.62056 0.81607 0.41765 0.0
H1402 H 0.61339 0.75702 0.43684 0.0
O1403 O 0.63444 0.74894 0.40316 0.0
C1404 C 0.59242 0.78544 0.3831 0.0
O1405 O 0.60236 0.8016 0.37788 0.0
N1406 N 0.65672 0.78349 0.39912 0.0
C1407 C 0.69685 0.79553 0.39819 0.0
C1408 C 0.69149 0.77561 0.39432 0.0
C1409 C 0.67141 0.77017 0.394 0.0
C1410 C 0.66168 0.80289 0.40308 0.0
C1411 C 0.68159 0.80919 0.40285 0.0
H1412 H 0.66774 0.75545 0.38845 0.0
H1413 H 0.65026 0.81405 0.40489 0.0
H1414 H 0.61821 0.74309 0.36495 0.0
H1415 H 0.6444 0.78179 0.32282 0.0
H1416 H 0.60463 0.81687 0.45356 0.0
H1417 H 0.70257 0.76443 0.39048 0.0
H1418 H 0.68474 0.82495 0.40498 0.0
C1419 C 0.20121 0.61914 0.34838 0.0
C1420 C 0.21552 0.61403 0.33439 0.0
N1421 N 0.23365 0.61752 0.34247 0.0
N1422 N 0.21042 0.62568 0.36511 0.0
C1423 C 0.23014 0.62454 0.36101 0.0
H1424 H 0.18526 0.61679 0.34702 0.0
Co1425 Co 0.19928 0.6284 0.39021 0.0
C1426 C 0.2237 0.6594 0.41096 0.0
O1427 O 0.20779 0.66578 0.4206 0.0
N1428 N 0.18811 0.63025 0.41603 0.0
C1429 C 0.16788 0.63055 0.44249 0.0
C1430 C 0.16923 0.63405 0.42225 0.0
C1431 C 0.19786 0.62456 0.43284 0.0
N1432 N 0.18592 0.62452 0.44906 0.0
O1433 O 0.2127 0.6044 0.39768 0.0
H1434 H 0.15683 0.63824 0.41284 0.0
H1435 H 0.21328 0.61961 0.43298 0.0
O1436 O 0.22216 0.64474 0.39871 0.0
C1437 C 0.20074 0.58958 0.39806 0.0
O1438 O 0.18148 0.59292 0.39591 0.0
N1439 N 0.18495 0.65071 0.3812 0.0
C1440 C 0.16019 0.67904 0.36317 0.0
C1441 C 0.18015 0.68367 0.36775 0.0
C1442 C 0.19246 0.6691 0.37634 0.0
C1443 C 0.16589 0.64573 0.37598 0.0
C1444 C 0.15313 0.65974 0.3673 0.0
H1445 H 0.20812 0.67249 0.3781 0.0
H1446 H 0.16064 0.6306 0.37841 0.0
H1447 H 0.24175 0.62679 0.37205 0.0
H1448 H 0.21287 0.60732 0.31987 0.0
H1449 H 0.15452 0.63186 0.45157 0.0
H1450 H 0.18644 0.69812 0.36392 0.0
H1451 H 0.13792 0.65542 0.36373 0.0
C1452 C 0.35842 0.18491 0.36067 0.0
C1453 C 0.36208 0.19442 0.34274 0.0
N1454 N 0.36534 0.21398 0.34651 0.0
N1455 N 0.35939 0.19846 0.37561 0.0
C1456 C 0.36341 0.21602 0.36649 0.0
H1457 H 0.35672 0.16895 0.36277 0.0
Co1458 Co 0.36148 0.19375 0.40291 0.0
C1459 C 0.33471 0.22399 0.42139 0.0
O1460 O 0.32965 0.21122 0.43548 0.0
N1461 N 0.3645 0.18923 0.43053 0.0
C1462 C 0.36999 0.17562 0.46045 0.0
C1463 C 0.36291 0.17224 0.44144 0.0
C1464 C 0.37258 0.20268 0.44338 0.0
N1465 N 0.3761 0.19475 0.46157 0.0
O1466 O 0.38652 0.20724 0.40275 0.0
H1467 H 0.35788 0.1579 0.43606 0.0
H1468 H 0.37677 0.21777 0.43916 0.0
O1469 O 0.34733 0.2188 0.40797 0.0
C1470 C 0.39983 0.19499 0.39682 0.0
O1471 O 0.39464 0.17627 0.39363 0.0
N1472 N 0.33774 0.17888 0.40181 0.0
C1473 C 0.30707 0.15214 0.39244 0.0
C1474 C 0.30345 0.17284 0.39298 0.0
C1475 C 0.31911 0.18602 0.3973 0.0
C1476 C 0.34149 0.15885 0.40099 0.0
C1477 C 0.32633 0.1452 0.39686 0.0
H1478 H 0.31642 0.20182 0.3955 0.0
H1479 H 0.35669 0.15349 0.40252 0.0
H1480 H 0.36688 0.22965 0.37456 0.0
H1481 H 0.3634 0.1873 0.32824 0.0
H1482 H 0.37109 0.16469 0.47237 0.0
H1483 H 0.28902 0.1789 0.38877 0.0
H1484 H 0.32991 0.12939 0.39631 0.0
C1485 C 0.21074 0.36072 0.64335 0.0
C1486 C 0.22129 0.36405 0.66071 0.0
N1487 N 0.23906 0.37221 0.65583 0.0
N1488 N 0.22186 0.36673 0.62761 0.0
C1489 C 0.2391 0.37352 0.63568 0.0
H1490 H 0.19546 0.35552 0.6424 0.0
Co1491 Co 0.21297 0.37029 0.60149 0.0
C1492 C 0.24448 0.35146 0.57666 0.0
O1493 O 0.23066 0.34499 0.56424 0.0
N1494 N 0.20379 0.37493 0.57529 0.0
C1495 C 0.18484 0.38078 0.5485 0.0
C1496 C 0.18508 0.3735 0.56773 0.0
C1497 C 0.21443 0.38385 0.5605 0.0
N1498 N 0.20336 0.38717 0.54399 0.0
O1499 O 0.22088 0.39752 0.60284 0.0
H1500 H 0.17206 0.36822 0.5756 0.0
H1501 H 0.22997 0.38816 0.56193 0.0
O1502 O 0.23941 0.3623 0.59165 0.0
C1503 C 0.20746 0.40736 0.6121 0.0
O1504 O 0.19122 0.39791 0.61793 0.0
N1505 N 0.20379 0.34362 0.60147 0.0
C1506 C 0.18701 0.30628 0.60995 0.0
C1507 C 0.20772 0.30836 0.60747 0.0
C1508 C 0.21585 0.32723 0.60386 0.0
C1509 C 0.18366 0.34183 0.60414 0.0
C1510 C 0.1749 0.32329 0.60796 0.0
H1511 H 0.23188 0.32865 0.60465 0.0
H1512 H 0.17451 0.3551 0.60519 0.0
H1513 H 0.25069 0.38089 0.62709 0.0
H1514 H 0.2159 0.3616 0.6758 0.0
H1515 H 0.17206 0.38127 0.53856 0.0
H1516 H 0.2177 0.29573 0.60945 0.0
H1517 H 0.15898 0.32261 0.61087 0.0
C1518 C 0.64629 0.20309 0.64016 0.0
C1519 C 0.64269 0.216 0.65592 0.0
N1520 N 0.63489 0.23301 0.64842 0.0
N1521 N 0.64103 0.2122 0.6229 0.0
C1522 C 0.6342 0.23035 0.62849 0.0
H1523 H 0.65191 0.18795 0.6413 0.0
Co1524 Co 0.64024 0.20316 0.59663 0.0
C1525 C 0.6645 0.2335 0.57476 0.0
O1526 O 0.67093 0.21985 0.56213 0.0
N1527 N 0.63861 0.1945 0.56994 0.0
C1528 C 0.63563 0.17686 0.54182 0.0
C1529 C 0.64203 0.17646 0.56138 0.0
C1530 C 0.63006 0.20549 0.55523 0.0
N1531 N 0.62811 0.19515 0.53805 0.0
O1532 O 0.61389 0.21365 0.59444 0.0
H1533 H 0.64796 0.16341 0.56877 0.0
H1534 H 0.62457 0.22059 0.55736 0.0
O1535 O 0.652 0.22861 0.58839 0.0
C1536 C 0.60199 0.20037 0.60112 0.0
O1537 O 0.60939 0.18278 0.60595 0.0
N1538 N 0.66531 0.19117 0.60019 0.0
C1539 C 0.69815 0.16898 0.61321 0.0
C1540 C 0.69991 0.18962 0.60975 0.0
C1541 C 0.68316 0.20057 0.60364 0.0
C1542 C 0.66339 0.17119 0.60377 0.0
C1543 C 0.67966 0.15973 0.60985 0.0
H1544 H 0.68438 0.21664 0.6032 0.0
H1545 H 0.64879 0.16427 0.60286 0.0
H1546 H 0.62849 0.24137 0.61807 0.0
H1547 H 0.64494 0.21286 0.67167 0.0
H1548 H 0.63608 0.16452 0.5313 0.0
H1549 H 0.71372 0.19746 0.61302 0.0
H1550 H 0.67755 0.14389 0.61266 0.0
C1551 C 0.33978 0.79506 0.64176 0.0
C1552 C 0.34562 0.78303 0.65744 0.0
N1553 N 0.35099 0.76506 0.65001 0.0
N1554 N 0.34142 0.78467 0.62453 0.0
C1555 C 0.34803 0.76636 0.63007 0.0
H1556 H 0.33632 0.81084 0.64272 0.0
Co1557 Co 0.34241 0.79535 0.5989 0.0
C1558 C 0.31615 0.77015 0.57412 0.0
O1559 O 0.31057 0.78635 0.56444 0.0
N1560 N 0.34461 0.8061 0.57283 0.0
C1561 C 0.34925 0.82565 0.54621 0.0
C1562 C 0.3423 0.82488 0.56558 0.0
C1563 C 0.35298 0.79585 0.55748 0.0
N1564 N 0.35602 0.80736 0.54123 0.0
O1565 O 0.36785 0.78337 0.59568 0.0
H1566 H 0.33692 0.83767 0.57377 0.0
H1567 H 0.35774 0.78039 0.55857 0.0
O1568 O 0.32908 0.77149 0.58823 0.0
C1569 C 0.38164 0.7961 0.5987 0.0
O1570 O 0.37671 0.81491 0.60178 0.0
N1571 N 0.31798 0.80834 0.60357 0.0
C1572 C 0.28479 0.83073 0.61529 0.0
C1573 C 0.28325 0.80997 0.61249 0.0
C1574 C 0.30015 0.79896 0.60707 0.0
C1575 C 0.31996 0.82825 0.60746 0.0
C1576 C 0.3035 0.83985 0.61278 0.0
H1577 H 0.29897 0.78286 0.60673 0.0
H1578 H 0.33463 0.83508 0.60703 0.0
H1579 H 0.35272 0.75499 0.6195 0.0
H1580 H 0.34716 0.78761 0.67292 0.0
H1581 H 0.34979 0.83879 0.53674 0.0
H1582 H 0.26937 0.80213 0.61537 0.0
H1583 H 0.30554 0.85575 0.61526 0.0
H1584 H 0.12738 0.25218 0.98492 0.0
H1585 H 0.06658 0.2812 0.08343 0.0
H1586 H 0.0994 0.30908 0.99673 0.0
H1587 H 0.11088 0.23432 0.08281 0.0
H1588 H 0.06941 0.28406 0.04713 0.0
H1589 H 0.11356 0.23924 0.01665 0.0
C1590 C 0.11807 0.26178 0.9941 0.0
C1591 C 0.11471 0.28176 0.98857 0.0
C1592 C 0.07819 0.27281 0.05482 0.0
C1593 C 0.09868 0.26714 0.02423 0.0
C1594 C 0.07646 0.27108 0.07548 0.0
C1595 C 0.08869 0.25768 0.08595 0.0
C1596 C 0.09256 0.26134 0.04467 0.0
C1597 C 0.10122 0.24482 0.07511 0.0
C1598 C 0.11024 0.25444 0.01208 0.0
C1599 C 0.10259 0.29371 0.00076 0.0
N1600 N 0.10322 0.24728 0.05496 0.0
N1601 N 0.09507 0.28623 0.01805 0.0
H1602 H 0.69675 0.06996 0.07077 0.0
H1603 H 0.74137 0.14848 0.99334 0.0
H1604 H 0.74733 0.10802 0.08372 0.0
H1605 H 0.6947 0.10634 0.97863 0.0
H1606 H 0.74569 0.13194 0.02562 0.0
H1607 H 0.69856 0.08005 0.03571 0.0
C1608 C 0.70854 0.08009 0.06611 0.0
C1609 C 0.72175 0.08837 0.08016 0.0
C1610 C 0.73458 0.12622 0.0153 0.0
C1611 C 0.7236 0.10036 0.04024 0.0
C1612 C 0.73193 0.13583 -0.00303 0.0
C1613 C 0.71746 0.12892 0.9834 0.0
C1614 C 0.72257 0.10967 0.02016 0.0
C1615 C 0.70602 0.11212 0.98866 0.0
C1616 C 0.7095 0.08593 0.04612 0.0
C1617 C 0.73681 0.10132 0.07336 0.0
N1618 N 0.70871 0.10316 0.00669 0.0
N1619 N 0.73709 0.10722 0.05391 0.0
H1620 H 0.93739 0.70928 0.07071 0.0
H1621 H 0.85138 0.75967 0.00565 0.0
H1622 H 0.9014 0.75836 0.09223 0.0
H1623 H 0.89254 0.71527 0.98308 0.0
H1624 H 0.87097 0.76153 0.03657 0.0
H1625 H 0.9237 0.71424 0.03722 0.0
C1626 C 0.92698 0.72147 0.0682 0.0
C1627 C 0.92048 0.73341 0.08416 0.0
C1628 C 0.8758 0.75152 0.02476 0.0
C1629 C 0.90415 0.73876 0.04609 0.0
C1630 C 0.8645 0.75029 0.00719 0.0
C1631 C 0.87024 0.73718 0.99178 0.0
C1632 C 0.89288 0.73946 0.02697 0.0
C1633 C 0.88761 0.72568 0.99446 0.0
C1634 C 0.91904 0.72422 0.04913 0.0
C1635 C 0.9069 0.74894 0.08023 0.0
N1636 N 0.8982 0.72699 0.01174 0.0
N1637 N 0.89886 0.75093 0.06162 0.0
H1638 H 0.30483 0.84821 0.97566 0.0
H1639 H 0.24787 0.89675 0.06641 0.0
H1640 H 0.25485 0.88729 0.96414 0.0
H1641 H 0.31227 0.89122 0.06532 0.0
H1642 H 0.24729 0.8899 0.03017 0.0
H1643 H 0.3049 0.85927 0.01072 0.0
C1644 C 0.29386 0.85906 0.98062 0.0
C1645 C 0.27991 0.86698 0.96718 0.0
C1646 C 0.26149 0.89049 0.03796 0.0
C1647 C 0.27969 0.87947 0.00695 0.0
C1648 C 0.26185 0.89442 0.05854 0.0
C1649 C 0.28012 0.89441 0.06891 0.0
C1650 C 0.27946 0.8861 0.02798 0.0
C1651 C 0.29781 0.89126 0.05801 0.0
C1652 C 0.29396 0.86545 0.00047 0.0
C1653 C 0.26596 0.88107 0.97415 0.0
N1654 N 0.29701 0.8869 0.03822 0.0
N1655 N 0.26605 0.88678 0.9937 0.0
H1656 H 0.11634 0.65184 0.00763 0.0
H1657 H 0.0976 0.73532 0.92542 0.0
H1658 H 0.13542 0.71295 0.01605 0.0
H1659 H 0.06492 0.67962 0.92793 0.0
H1660 H 0.11063 0.72865 0.95906 0.0
H1661 H 0.09763 0.66213 0.97795 0.0
C1662 C 0.11669 0.6674 0.00311 0.0
C1663 C 0.12751 0.68155 0.01418 0.0
C1664 C 0.10027 0.71811 0.95239 0.0
C1665 C 0.10597 0.69354 0.98041 0.0
C1666 C 0.09267 0.72201 0.93328 0.0
C1667 C 0.08036 0.70786 0.92381 0.0
C1668 C 0.09561 0.69991 0.96188 0.0
C1669 C 0.0746 0.69079 0.93459 0.0
C1670 C 0.10581 0.67334 0.98633 0.0
C1671 C 0.12717 0.70162 0.00791 0.0
N1672 N 0.08254 0.68712 0.95291 0.0
N1673 N 0.1167 0.70702 0.99132 0.0
H1674 H 0.3076 0.07449 0.9229 0.0
H1675 H 0.27164 0.12861 0.02131 0.0
H1676 H 0.25788 0.11561 0.92261 0.0
H1677 H 0.30835 0.07547 0.02111 0.0
H1678 H 0.26388 0.12283 0.98587 0.0
H1679 H 0.30587 0.07299 0.95929 0.0
C1680 C 0.2961 0.08296 0.93058 0.0
C1681 C 0.28296 0.09528 0.91991 0.0
C1682 C 0.27338 0.11228 0.9937 0.0
C1683 C 0.28115 0.0941 0.96157 0.0
C1684 C 0.27779 0.11557 0.01391 0.0
C1685 C 0.29104 0.10277 0.02402 0.0
C1686 C 0.28239 0.09615 0.98362 0.0
C1687 C 0.29859 0.08609 0.01374 0.0
C1688 C 0.29507 0.08211 0.95135 0.0
C1689 C 0.26824 0.10591 0.93044 0.0
N1690 N 0.29437 0.08341 0.99408 0.0
N1691 N 0.26797 0.10541 0.95082 0.0
H1692 H 0.89361 0.32664 0.02054 0.0
H1693 H 0.89455 0.25466 0.92575 0.0
H1694 H 0.87221 0.26583 0.02317 0.0
H1695 H 0.92065 0.31369 0.92744 0.0
H1696 H 0.89045 0.25594 0.96233 0.0
H1697 H 0.90726 0.32017 0.98739 0.0
C1698 C 0.8918 0.31189 0.01405 0.0
C1699 C 0.88151 0.29685 0.02437 0.0
C1700 C 0.89748 0.26841 0.95472 0.0
C1701 C 0.89707 0.2892 0.98633 0.0
C1702 C 0.89995 0.2676 0.93391 0.0
C1703 C 0.9077 0.28421 0.92367 0.0
C1704 C 0.90281 0.28594 0.96513 0.0
C1705 C 0.91432 0.3007 0.9348 0.0
C1706 C 0.89973 0.30811 0.99518 0.0
C1707 C 0.88 0.27782 0.01556 0.0
N1708 N 0.9115 0.30124 0.95487 0.0
N1709 N 0.88744 0.27459 0.99685 0.0
H1710 H 0.76104 0.86775 0.99634 0.0
H1711 H 0.68493 0.92239 0.92248 0.0
H1712 H 0.70512 0.89416 0.01499 0.0
H1713 H 0.74164 0.8982 0.90328 0.0
H1714 H 0.69415 0.91576 0.95716 0.0
H1715 H 0.75593 0.8815 0.96284 0.0
C1716 C 0.74768 0.87642 0.99341 0.0
C1717 C 0.73338 0.87962 0.00849 0.0
C1718 C 0.70473 0.91213 0.94543 0.0
C1719 C 0.72757 0.89563 0.97022 0.0
C1720 C 0.69949 0.91598 0.92562 0.0
C1721 C 0.71248 0.91068 0.91002 0.0
C1722 C 0.723 0.90266 0.94967 0.0
C1723 C 0.7312 0.90253 0.9149 0.0
C1724 C 0.74486 0.88442 0.97431 0.0
C1725 C 0.71659 0.89137 0.00392 0.0
N1726 N 0.7358 0.89847 0.93432 0.0
N1727 N 0.71408 0.89881 0.98517 0.0
H1728 H 0.09219 0.08067 0.24708 0.0
H1729 H 0.98278 0.0963 0.29273 0.0
H1730 H 0.07147 0.05373 0.30205 0.0
H1731 H 0.00497 0.12906 0.24165 0.0
H1732 H 0.01379 0.07721 0.2936 0.0
H1733 H 0.05877 0.09469 0.2418 0.0
C1734 C 0.08051 0.07739 0.25783 0.0
C1735 C 0.08463 0.06626 0.27517 0.0
C1736 C 0.01188 0.08853 0.28215 0.0
C1737 C 0.04654 0.08232 0.26932 0.0
C1738 C 0.99413 0.0994 0.2816 0.0
C1739 C 0.99128 0.11435 0.26713 0.0
C1740 C 0.02698 0.09262 0.26813 0.0
C1741 C 0.00666 0.11789 0.25325 0.0
C1742 C 0.06149 0.0855 0.25488 0.0
C1743 C 0.06898 0.06244 0.2886 0.0
N1744 N 0.02389 0.10712 0.25412 0.0
N1745 N 0.05067 0.0706 0.28548 0.0
H1746 H 0.85185 0.97818 0.26152 0.0
H1747 H 0.91972 0.06399 0.30873 0.0
H1748 H 0.85851 0.98905 0.32482 0.0
H1749 H 0.89383 0.07095 0.24992 0.0
H1750 H 0.90285 0.03189 0.31206 0.0
H1751 H 0.87126 0.00878 0.25467 0.0
C1752 C 0.85724 0.98712 0.27392 0.0
C1753 C 0.8535 0.9812 0.29375 0.0
C1754 C 0.90099 0.04033 0.29834 0.0
C1755 C 0.87595 0.0156 0.2861 0.0
C1756 C 0.91074 0.05858 0.29635 0.0
C1757 C 0.90797 0.07022 0.27913 0.0
C1758 C 0.88836 0.03361 0.28298 0.0
C1759 C 0.89633 0.06239 0.26346 0.0
C1760 C 0.86829 0.00446 0.27002 0.0
C1761 C 0.86077 0.99322 0.30933 0.0
N1762 N 0.88672 0.04456 0.26583 0.0
N1763 N 0.87179 0.00973 0.30517 0.0
H1764 H 0.97609 0.83805 0.2337 0.0
H1765 H 0.92369 0.92239 0.30014 0.0
H1766 H 0.00655 0.87404 0.2779 0.0
H1767 H 0.89335 0.89169 0.25205 0.0
H1768 H 0.95498 0.90672 0.28988 0.0
H1769 H 0.9458 0.85816 0.23897 0.0
C1770 C 0.9764 0.85012 0.24452 0.0
C1771 C 0.9939 0.85442 0.25531 0.0
C1772 C 0.94155 0.90359 0.28136 0.0
C1773 C 0.95958 0.87764 0.26115 0.0
C1774 C 0.92372 0.91267 0.28715 0.0
C1775 C 0.9059 0.90818 0.27707 0.0
C1776 C 0.94151 0.88968 0.26557 0.0
C1777 C 0.90676 0.89551 0.26029 0.0
C1778 C 0.95921 0.86173 0.24736 0.0
C1779 C 0.99355 0.87037 0.26899 0.0
N1780 N 0.92424 0.8864 0.25526 0.0
N1781 N 0.97669 0.88133 0.27153 0.0
H1782 H 0.09512 0.89407 0.22346 0.0
H1783 H 0.09914 0.00485 0.26676 0.0
H1784 H 0.05637 0.91377 0.2711 0.0
H1785 H 0.15252 0.96929 0.26001 0.0
H1786 H 0.07903 0.97619 0.25555 0.0
H1787 H 0.11164 0.92702 0.22382 0.0
C1788 C 0.08969 0.90556 0.23348 0.0
C1789 C 0.07473 0.90124 0.24753 0.0
C1790 C 0.09517 0.97486 0.25615 0.0
C1791 C 0.09292 0.93867 0.24764 0.0
C1792 C 0.1066 0.99109 0.2625 0.0
C1793 C 0.12742 0.98921 0.26438 0.0
C1794 C 0.10472 0.95686 0.2512 0.0
C1795 C 0.13646 0.9711 0.2589 0.0
C1796 C 0.09912 0.92421 0.23374 0.0
C1797 C 0.06802 0.91657 0.26017 0.0
N1798 N 0.12502 0.95552 0.25253 0.0
N1799 N 0.07727 0.93465 0.26003 0.0
H1800 H 0.94435 0.88697 0.72025 0.0
H1801 H 0.06097 0.8817 0.74425 0.0
H1802 H 0.97938 0.83327 0.71304 0.0
H1803 H 0.03367 0.93127 0.71316 0.0
H1804 H 0.02795 0.8658 0.7471 0.0
H1805 H 0.97446 0.90477 0.73149 0.0
C1806 C 0.95832 0.87885 0.72151 0.0
C1807 C 0.95959 0.85873 0.7156 0.0
C1808 C 0.02918 0.88047 0.74027 0.0
C1809 C 0.99369 0.87876 0.72867 0.0
C1810 C 0.04789 0.88962 0.73881 0.0
C1811 C 0.04986 0.90773 0.72838 0.0
C1812 C 0.01249 0.88979 0.73161 0.0
C1813 C 0.03263 0.91725 0.72125 0.0
C1814 C 0.9754 0.88898 0.72787 0.0
C1815 C 0.97799 0.84885 0.71727 0.0
N1816 N 0.01459 0.90807 0.72285 0.0
N1817 N 0.99443 0.85901 0.72361 0.0
H1818 H 0.04979 0.08406 0.70204 0.0
H1819 H 0.10648 0.98797 0.74418 0.0
H1820 H 0.0934 0.08713 0.74952 0.0
H1821 H 0.07197 0.9904 0.68976 0.0
H1822 H 0.0951 0.0221 0.75245 0.0
H1823 H 0.05021 0.04765 0.70433 0.0
C1824 C 0.05916 0.07699 0.71325 0.0
C1825 C 0.07184 0.08844 0.72537 0.0
C1826 C 0.08979 0.01499 0.73888 0.0
C1827 C 0.07288 0.04684 0.72769 0.0
C1828 C 0.09623 0.99561 0.73421 0.0
C1829 C 0.0904 0.98671 0.71611 0.0
C1830 C 0.07727 0.02525 0.72542 0.0
C1831 C 0.07712 -0.00298 0.70363 0.0
C1832 C 0.05946 0.05623 0.71452 0.0
C1833 C 0.08349 0.07869 0.73985 0.0
N1834 N 0.07112 0.01578 0.70844 0.0
N1835 N 0.0841 0.05832 0.74032 0.0
H1836 H 0.00561 0.12771 0.69017 0.0
H1837 H 0.91608 0.10016 0.75972 0.0
H1838 H 0.00949 0.14236 0.7529 0.0
H1839 H 0.93393 0.06381 0.70937 0.0
H1840 H 0.94909 0.11636 0.75917 0.0
H1841 H 0.97704 0.10617 0.6972 0.0
C1842 C 0.00019 0.12659 0.70541 0.0
C1843 C 0.00962 0.13699 0.72096 0.0
C1844 C 0.94593 0.1044 0.74868 0.0
C1845 C 0.97718 0.11212 0.72922 0.0
C1846 C 0.92721 0.09502 0.74909 0.0
C1847 C 0.92227 0.08084 0.73436 0.0
C1848 C 0.95946 0.09959 0.73332 0.0
C1849 C 0.9371 0.07488 0.7208 0.0
C1850 C 0.98412 0.11406 0.70949 0.0
C1851 C 0.00239 0.13463 0.74055 0.0
N1852 N 0.95488 0.08459 0.72032 0.0
N1853 N 0.98636 0.12256 0.74417 0.0
H1854 H 0.83802 0.994 0.74586 0.0
H1855 H 0.90543 0.9164 0.68599 0.0
H1856 H 0.8852 0.01155 0.70543 0.0
H1857 H 0.8683 0.89896 0.73587 0.0
H1858 H 0.89899 0.95148 0.69383 0.0
H1859 H 0.84902 0.95914 0.74296 0.0
C1860 C 0.85067 0.99051 0.73637 0.0
C1861 C 0.86064 0.00566 0.72576 0.0
C1862 C 0.89243 0.94003 0.70325 0.0
C1863 C 0.87339 0.96594 0.7225 0.0
C1864 C 0.89611 0.92001 0.69878 0.0
C1865 C 0.88727 0.90485 0.71025 0.0
C1866 C 0.87952 0.94492 0.7191 0.0
C1867 C 0.87543 0.91027 0.72671 0.0
C1868 C 0.85706 0.97066 0.73487 0.0
C1869 C 0.87717 0.00037 0.71396 0.0
N1870 N 0.87164 0.92993 0.73048 0.0
N1871 N 0.88292 0.98094 0.71252 0.0
H1872 H 0.26607 0.06179 0.09297 0.0
H1873 H 0.28541 0.97082 0.16829 0.0
H1874 H 0.30625 0.06448 0.14347 0.0
H1875 H 0.26515 0.9613 0.10772 0.0
H1876 H 0.2876 0.00669 0.16159 0.0
H1877 H 0.26005 0.02611 0.10035 0.0
C1878 C 0.27343 0.05491 0.10568 0.0
C1879 C 0.28678 0.06594 0.11755 0.0
C1880 C 0.28266 0.99676 0.14975 0.0
C1881 C 0.27993 0.02562 0.12609 0.0
C1882 C 0.28134 0.97633 0.1536 0.0
C1883 C 0.27521 0.96312 0.1385 0.0
C1884 C 0.27763 0.0041 0.13071 0.0
C1885 C 0.27023 0.971 0.11965 0.0
C1886 C 0.2701 0.03463 0.1098 0.0
C1887 C 0.29602 0.05643 0.13381 0.0
N1888 N 0.2715 0.99105 0.11627 0.0
N1889 N 0.2924 0.03684 0.13761 0.0
H1890 H 0.25344 0.03059 0.86368 0.0
H1891 H 0.29994 0.93394 0.91658 0.0
H1892 H 0.31537 0.02293 0.8799 0.0
H1893 H 0.24468 0.93145 0.88334 0.0
H1894 H 0.30094 0.97009 0.91176 0.0
H1895 H 0.24604 -0.00266 0.87793 0.0
C1896 C 0.26539 0.02193 0.87037 0.0
C1897 C 0.28508 0.02924 0.87039 0.0
C1898 C 0.28838 0.96174 0.90581 0.0
C1899 C 0.27676 0.99177 0.88694 0.0
C1900 C 0.28773 0.94115 0.90869 0.0
C1901 C 0.27233 0.9298 0.90015 0.0
C1902 C 0.27368 0.97102 0.89403 0.0
C1903 C 0.25679 0.93979 0.89017 0.0
C1904 C 0.26119 0.00307 0.87846 0.0
C1905 C 0.30009 0.01761 0.87923 0.0
N1906 N 0.25805 0.95991 0.88701 0.0
N1907 N 0.29562 -0.00053 0.88714 0.0
H1908 H 0.07423 0.26216 0.90107 0.0
H1909 H 0.97889 0.32796 0.8736 0.0
H1910 H 0.06724 0.32453 0.91663 0.0
H1911 H 0.97687 0.26342 0.87271 0.0
H1912 H 0.01218 0.32646 0.88826 0.0
H1913 H 0.039 0.26139 0.89049 0.0
C1914 C 0.06521 0.27555 0.90259 0.0
C1915 C 0.07369 0.2935 0.90951 0.0
C1916 C 0.00449 0.31257 0.88494 0.0
C1917 C 0.03377 0.2928 0.89723 0.0
C1918 C 0.98557 0.31345 0.87636 0.0
C1919 C 0.97523 0.29579 0.87181 0.0
C1920 C 0.01331 0.29388 0.88884 0.0
C1921 C 0.9844 0.27736 0.8761 0.0
C1922 C 0.04518 0.27513 0.89648 0.0
C1923 C 0.0614 0.31044 0.91113 0.0
N1924 N 0.00305 0.27685 0.88426 0.0
N1925 N 0.04216 0.30972 0.90484 0.0
H1926 H 0.66444 0.9876 0.85791 0.0
H1927 H 0.73581 0.07391 0.89777 0.0
H1928 H 0.72823 0.97903 0.86243 0.0
H1929 H 0.67259 0.0707 0.91064 0.0
H1930 H 0.73428 0.03978 0.88416 0.0
H1931 H 0.66779 0.01951 0.87533 0.0
C1932 C 0.67919 0.99257 0.86239 0.0
C1933 C 0.6961 0.98074 0.85865 0.0
C1934 C 0.72085 0.04649 0.89028 0.0
C1935 C 0.70006 0.01714 0.87886 0.0
C1936 C 0.72174 0.06588 0.89816 0.0
C1937 C 0.70425 0.07519 0.90519 0.0
C1938 C 0.70233 0.03656 0.88929 0.0
C1939 C 0.68639 0.06418 0.90519 0.0
C1940 C 0.68108 0.01066 0.87256 0.0
C1941 C 0.71484 0.98772 0.86514 0.0
N1942 N 0.68584 0.04557 0.89712 0.0
N1943 N 0.71636 0.00556 0.87485 0.0
H1944 H 0.01229 0.74768 0.86734 0.0
H1945 H 0.92072 0.69428 0.92203 0.0
H1946 H 0.00334 0.68381 0.87043 0.0
H1947 H 0.91473 0.75406 0.89817 0.0
H1948 H 0.95482 0.69296 0.90948 0.0
H1949 H 0.97953 0.75261 0.88362 0.0
C1950 C 0.00338 0.73476 0.87136 0.0
C1951 C 0.01037 0.71532 0.86738 0.0
C1952 C 0.94613 0.70645 0.9071 0.0
C1953 C 0.97348 0.72078 0.88624 0.0
C1954 C 0.92669 0.70727 0.91436 0.0
C1955 C 0.91481 0.72421 0.91088 0.0
C1956 C 0.95385 0.72267 0.89626 0.0
C1957 C 0.92343 0.7407 0.90109 0.0
C1958 C 0.98479 0.73756 0.8806 0.0
C1959 C -0.00163 0.69903 0.87288 0.0
N1960 N 0.94247 0.73946 0.89389 0.0
N1961 N 0.9806 0.70213 0.88213 0.0
H1962 H 0.70948 0.94116 0.06975 0.0
H1963 H 0.7517 0.02368 0.14427 0.0
H1964 H 0.75685 0.92532 0.11067 0.0
H1965 H 0.68961 0.01705 0.12821 0.0
H1966 H 0.75915 0.99193 0.12666 0.0
H1967 H 0.70855 0.97464 0.08422 0.0
C1968 C 0.72005 0.94492 0.08147 0.0
C1969 C 0.73308 0.93042 0.08922 0.0
C1970 C 0.74393 -0.00252 0.12716 0.0
C1971 C 0.73185 0.9686 0.10603 0.0
C1972 C 0.73969 0.01543 0.13717 0.0
C1973 C 0.71999 0.02273 0.13787 0.0
C1974 C 0.72842 0.9873 0.11732 0.0
C1975 C 0.7049 0.01173 0.12834 0.0
C1976 C 0.71939 0.96395 0.08981 0.0
C1977 C 0.74659 0.93612 0.1043 0.0
N1978 N 0.70946 0.99469 0.11831 0.0
N1979 N 0.74545 0.9548 0.1125 0.0
H1980 H 0.08891 0.71769 0.08499 0.0
H1981 H 0.00498 0.6948 0.16584 0.0
H1982 H 0.08367 0.66082 0.11535 0.0
H1983 H 0.99245 0.73293 0.1153 0.0
H1984 H 0.03752 0.68658 0.15109 0.0
H1985 H 0.05623 0.72748 0.09891 0.0
C1986 C 0.08083 0.70722 0.09438 0.0
C1987 C 0.08896 0.68839 0.09896 0.0
C1988 C 0.02765 0.69679 0.14327 0.0
C1989 C 0.05218 0.69966 0.11522 0.0
C1990 C 0.00922 0.70158 0.15175 0.0
C1991 C 0.99609 0.71445 0.14168 0.0
C1992 C 0.03308 0.7052 0.12479 0.0
C1993 C 0.00215 0.72276 0.12335 0.0
C1994 C 0.06228 0.71283 0.10232 0.0
C1995 C 0.07796 0.67544 0.11131 0.0
N1996 N 0.02031 0.71806 0.11547 0.0
N1997 N 0.06024 0.6814 0.11918 0.0
H1998 H 0.0058 0.2404 0.15877 0.0
H1999 H 0.93702 0.31042 0.09116 0.0
H2000 H 0.02861 0.28912 0.12305 0.0
H2001 H 0.91655 0.25378 0.11449 0.0
H2002 H 0.9708 0.30252 0.10248 0.0
H2003 H 0.97281 0.24514 0.1434 0.0
C2004 C 0.00384 0.25215 0.14779 0.0
C2005 C 0.01995 0.26442 0.14222 0.0
C2006 C 0.95902 0.29166 0.10492 0.0
C2007 C 0.98242 0.26979 0.12444 0.0
C2008 C 0.93974 0.29615 0.0984 0.0
C2009 C 0.92401 0.28275 0.10195 0.0
C2010 C 0.96255 0.27379 0.1154 0.0
C2011 C 0.92832 0.26447 0.11138 0.0
C2012 C 0.98509 0.25471 0.13886 0.0
C2013 C 0.01667 0.27921 0.12766 0.0
N2014 N 0.94717 0.26063 0.11807 0.0
N2015 N -0.00173 0.28155 0.11938 0.0
H2016 H 0.58964 0.74159 0.57106 0.0
H2017 H 0.57525 0.80183 0.46915 0.0
H2018 H 0.55205 0.79355 0.56364 0.0
H2019 H 0.61695 0.75304 0.47555 0.0
H2020 H 0.56129 0.7939 0.50189 0.0
H2021 H 0.59441 0.74036 0.53459 0.0
C2022 C 0.58193 0.75235 0.56169 0.0
C2023 C 0.57064 0.76785 0.57026 0.0
C2024 C 0.57337 0.78474 0.49614 0.0
C2025 C 0.57613 0.76668 0.52885 0.0
C2026 C 0.58138 0.78935 0.47748 0.0
C2027 C 0.59752 0.77832 0.46991 0.0
C2028 C 0.58176 0.76917 0.50752 0.0
C2029 C 0.60458 0.76195 0.48102 0.0
C2030 C 0.58476 0.75174 0.54093 0.0
C2031 C 0.56109 0.78153 0.55758 0.0
N2032 N 0.59688 0.75805 0.49949 0.0
N2033 N 0.56422 0.78075 0.53755 0.0
H2034 H 0.2218 0.62723 0.46784 0.0
H2035 H 0.17849 0.5768 0.56717 0.0
H2036 H 0.16161 0.60508 0.47489 0.0
H2037 H 0.23455 0.60878 0.56582 0.0
H2038 H 0.17591 0.58031 0.53098 0.0
H2039 H 0.22982 0.61504 0.50159 0.0
C2040 C 0.21034 0.61969 0.47646 0.0
C2041 C 0.19095 0.61736 0.46872 0.0
C2042 C 0.18893 0.58634 0.53851 0.0
C2043 C 0.20001 0.60327 0.50704 0.0
C2044 C 0.19047 0.58422 0.55916 0.0
C2045 C 0.20657 0.59284 0.56948 0.0
C2046 C 0.20348 0.59736 0.52812 0.0
C2047 C 0.22181 0.60207 0.55839 0.0
C2048 C 0.21491 0.61276 0.49566 0.0
C2049 C 0.17661 0.60756 0.48046 0.0
N2050 N 0.21972 0.60444 0.53826 0.0
N2051 N 0.18142 0.60091 0.49903 0.0
H2052 H 0.37166 0.23282 0.47498 0.0
H2053 H 0.43887 0.20838 0.57047 0.0
H2054 H 0.40373 0.17785 0.48552 0.0
H2055 H 0.39557 0.25618 0.56968 0.0
H2056 H 0.43423 0.20386 0.53453 0.0
H2057 H 0.38717 0.24721 0.50523 0.0
C2058 C 0.38218 0.22393 0.48354 0.0
C2059 C 0.3862 0.20404 0.47811 0.0
C2060 C 0.42607 0.21568 0.54206 0.0
C2061 C 0.40412 0.22033 0.51219 0.0
C2062 C 0.42888 0.21838 0.56251 0.0
C2063 C 0.41748 0.23255 0.57291 0.0
C2064 C 0.41138 0.22692 0.53207 0.0
C2065 C 0.40467 0.24513 0.56205 0.0
C2066 C 0.39099 0.23211 0.50071 0.0
C2067 C 0.39992 0.19308 0.48953 0.0
N2068 N 0.40157 0.24171 0.54218 0.0
N2069 N 0.4083 0.20133 0.50606 0.0
H2070 H 0.75908 0.38502 0.56472 0.0
H2071 H 0.83579 0.38255 0.47407 0.0
H2072 H 0.8164 0.41471 0.56454 0.0
H2073 H 0.77433 0.36443 0.46675 0.0
H2074 H 0.82784 0.39545 0.50718 0.0
H2075 H 0.76257 0.37912 0.52851 0.0
C2076 C 0.77213 0.39071 0.55697 0.0
C2077 C 0.78764 0.40008 0.56758 0.0
C2078 C 0.81598 0.38878 0.49837 0.0
C2079 C 0.79184 0.3932 0.5266 0.0
C2080 C 0.8206 0.38124 0.47954 0.0
C2081 C 0.80575 0.3722 0.46786 0.0
C2082 C 0.79638 0.38703 0.50579 0.0
C2083 C 0.78617 0.37129 0.47542 0.0
C2084 C 0.77417 0.38726 0.53638 0.0
C2085 C 0.80427 0.40711 0.55695 0.0
N2086 N 0.78206 0.3784 0.49409 0.0
N2087 N 0.80603 0.40332 0.53712 0.0
H2088 H 0.60495 0.1731 0.51342 0.0
H2089 H 0.60404 0.25386 0.4269 0.0
H2090 H 0.62908 0.23235 0.52188 0.0
H2091 H 0.56878 0.19979 0.4263 0.0
H2092 H 0.61057 0.24867 0.46273 0.0
H2093 H 0.58964 0.18408 0.48218 0.0
C2094 C 0.60702 0.18844 0.50862 0.0
C2095 C 0.61847 0.20178 0.52002 0.0
C2096 C 0.60099 0.23823 0.45485 0.0
C2097 C 0.60097 0.2146 0.4843 0.0
C2098 C 0.59711 0.2413 0.43448 0.0
C2099 C 0.58608 0.22706 0.4237 0.0
C2100 C 0.59383 0.22078 0.46423 0.0
C2101 C 0.57761 0.21094 0.43408 0.0
C2102 C 0.59813 0.19481 0.49089 0.0
C2103 C 0.62036 0.22165 0.51341 0.0
N2104 N 0.58192 0.20806 0.45368 0.0
N2105 N 0.61193 0.22742 0.49578 0.0
H2106 H 0.77449 0.56491 0.41228 0.0
H2107 H 0.72943 0.64387 0.48826 0.0
H2108 H 0.72891 0.60734 0.39544 0.0
H2109 H 0.76818 0.59512 0.50549 0.0
H2110 H 0.72606 0.62886 0.455 0.0
H2111 H 0.7685 0.57277 0.44743 0.0
C2112 C 0.76278 0.57548 0.41612 0.0
C2113 C 0.75216 0.58552 0.40112 0.0
C2114 C 0.73509 0.62133 0.46616 0.0
C2115 C 0.74579 0.59528 0.44114 0.0
C2116 C 0.73721 0.63001 0.48507 0.0
C2117 C 0.7493 0.62086 0.49963 0.0
C2118 C 0.74528 0.60347 0.46175 0.0
C2119 C 0.75865 0.60268 0.49482 0.0
C2120 C 0.75944 0.58008 0.43615 0.0
C2121 C 0.73726 0.59919 0.40669 0.0
N2122 N 0.7566 0.59471 0.47625 0.0
N2123 N 0.73479 0.60403 0.42633 0.0
H2124 H 0.38042 0.83053 0.51883 0.0
H2125 H 0.3856 0.75259 0.42937 0.0
H2126 H 0.35533 0.77119 0.52282 0.0
H2127 H 0.41667 0.80918 0.43023 0.0
H2128 H 0.37846 0.75647 0.4652 0.0
H2129 H 0.39694 0.82112 0.4877 0.0
C2130 C 0.37835 0.81551 0.51307 0.0
C2131 C 0.36626 0.80171 0.52319 0.0
C2132 C 0.38727 0.7678 0.45765 0.0
C2133 C 0.38523 0.79069 0.4876 0.0
C2134 C 0.39151 0.76547 0.43727 0.0
C2135 C 0.4015 0.78074 0.42689 0.0
C2136 C 0.39302 0.78552 0.46748 0.0
C2137 C 0.40867 0.79722 0.43769 0.0
C2138 C 0.38796 0.81005 0.49541 0.0
C2139 C 0.3645 0.78227 0.51538 0.0
N2140 N 0.40402 0.79933 0.45732 0.0
N2141 N 0.37368 0.77738 0.49787 0.0
H2142 H 0.18298 0.41156 0.51918 0.0
H2143 H 0.25407 0.38741 0.42696 0.0
H2144 H 0.23875 0.37985 0.5256 0.0
H2145 H 0.19953 0.42171 0.42354 0.0
H2146 H 0.25256 0.38957 0.46374 0.0
H2147 H 0.19225 0.42045 0.48501 0.0
C2148 C 0.19729 0.40665 0.51336 0.0
C2149 C 0.21 0.39476 0.52501 0.0
C2150 C 0.24118 0.39699 0.4549 0.0
C2151 C 0.2207 0.40455 0.48581 0.0
C2152 C 0.24214 0.39586 0.43397 0.0
C2153 C 0.22673 0.40413 0.42239 0.0
C2154 C 0.22473 0.40647 0.46405 0.0
C2155 C 0.21151 0.41483 0.43204 0.0
C2156 C 0.20265 0.41175 0.49389 0.0
C2157 C 0.22855 0.38903 0.51699 0.0
N2158 N 0.21076 0.41548 0.45229 0.0
N2159 N 0.23322 0.39366 0.4977 0.0
H2160 H 0.48936 0.63609 0.81203 0.0
H2161 H 0.58428 0.60161 0.75178 0.0
H2162 H 0.48563 0.62956 0.74795 0.0
H2163 H 0.57192 0.58261 0.81229 0.0
H2164 H 0.54927 0.6127 0.74867 0.0
H2165 H 0.52136 0.61853 0.81171 0.0
C2166 C 0.49542 0.63102 0.79787 0.0
C2167 C 0.48504 0.63436 0.77998 0.0
C2168 C 0.5542 0.60569 0.76243 0.0
C2169 C 0.5216 0.6142 0.77942 0.0
C2170 C 0.5741 0.59927 0.76418 0.0
C2171 C 0.58102 0.59145 0.78243 0.0
C2172 C 0.54146 0.60442 0.77912 0.0
C2173 C 0.56728 0.58887 0.79808 0.0
C2174 C 0.51355 0.62082 0.79768 0.0
C2175 C 0.49331 0.6272 0.76202 0.0
N2176 N 0.54828 0.59564 0.79618 0.0
N2177 N 0.51132 0.61763 0.76213 0.0
H2178 H 0.42578 0.58118 0.8055 0.0
H2179 H 0.36915 0.48682 0.75848 0.0
H2180 H 0.39767 0.58383 0.74741 0.0
H2181 H 0.38076 0.49575 0.82134 0.0
H2182 H 0.38554 0.51911 0.75132 0.0
H2183 H 0.41662 0.54599 0.80806 0.0
C2184 C 0.418 0.57421 0.79309 0.0
C2185 C 0.41223 0.58544 0.77634 0.0
C2186 C 0.38452 0.51389 0.76664 0.0
C2187 C 0.40131 0.54526 0.77935 0.0
C2188 C 0.37522 0.49556 0.77071 0.0
C2189 C 0.37341 0.48883 0.79054 0.0
C2190 C 0.39235 0.52524 0.78251 0.0
C2191 C 0.38149 0.5006 0.8059 0.0
C2192 C 0.41266 0.55416 0.79461 0.0
C2193 C 0.40236 0.57563 0.76059 0.0
N2194 N 0.39062 0.51819 0.80156 0.0
N2195 N 0.39689 0.55608 0.7626 0.0
H2196 H 0.50141 0.34772 0.75303 0.0
H2197 H 0.43351 0.42848 0.8086 0.0
H2198 H 0.5232 0.38755 0.79899 0.0
H2199 H 0.41382 0.3959 0.75639 0.0
H2200 H 0.46712 0.41505 0.80389 0.0
H2201 H 0.46936 0.36551 0.75341 0.0
C2202 C 0.49939 0.36011 0.76329 0.0
C2203 C 0.51494 0.36614 0.77605 0.0
C2204 C 0.45556 0.41107 0.79325 0.0
C2205 C 0.47855 0.38673 0.77635 0.0
C2206 C 0.43641 0.41882 0.79589 0.0
C2207 C 0.42093 0.41323 0.7829 0.0
C2208 C 0.45916 0.39734 0.77772 0.0
C2209 C 0.42541 0.40067 0.76667 0.0
C2210 C 0.48121 0.37041 0.76333 0.0
C2211 C 0.51167 0.38252 0.78879 0.0
N2212 N 0.44409 0.39286 0.76471 0.0
N2213 N 0.49383 0.39218 0.78867 0.0
H2214 H 0.6056 0.41957 0.74686 0.0
H2215 H 0.61735 0.51142 0.82058 0.0
H2216 H 0.57451 0.42508 0.80317 0.0
H2217 H 0.63342 0.51662 0.7583 0.0
H2218 H 0.60125 0.47952 0.81352 0.0
H2219 H 0.6146 0.45527 0.7489 0.0
C2220 C 0.60013 0.42846 0.75928 0.0
C2221 C 0.58951 0.41945 0.775 0.0
C2222 C 0.60816 0.48761 0.8013 0.0
C2223 C 0.60004 0.45978 0.77766 0.0
C2224 C 0.61755 0.50572 0.8054 0.0
C2225 C 0.62692 0.51645 0.79005 0.0
C2226 C 0.60837 0.47993 0.7817 0.0
C2227 C 0.62636 0.50866 0.77052 0.0
C2228 C 0.6054 0.44873 0.76054 0.0
C2229 C 0.58296 0.43145 0.79089 0.0
N2230 N 0.61745 0.49067 0.76691 0.0
N2231 N 0.58857 0.4509 0.79195 0.0
H2232 H 0.59238 0.3952 0.25442 0.0
H2233 H 0.4754 0.38921 0.2329 0.0
H2234 H 0.56206 0.43644 0.21508 0.0
H2235 H 0.51309 0.33684 0.23378 0.0
H2236 H 0.50487 0.41019 0.23918 0.0
H2237 H 0.56061 0.37764 0.25994 0.0
C2238 C 0.5789 0.40103 0.24759 0.0
C2239 C 0.57974 0.41718 0.23417 0.0
C2240 C 0.50657 0.39407 0.2384 0.0
C2241 C 0.54364 0.39744 0.24059 0.0
C2242 C 0.48984 0.38213 0.23489 0.0
C2243 C 0.49198 0.36133 0.23275 0.0
C2244 C 0.52542 0.38509 0.24018 0.0
C2245 C 0.51099 0.35285 0.23518 0.0
C2246 C 0.56088 0.39092 0.25061 0.0
C2247 C 0.56193 0.42402 0.2255 0.0
N2248 N 0.52708 0.36479 0.23875 0.0
N2249 N 0.54455 0.41402 0.22877 0.0
H2250 H 0.61025 0.48552 0.19215 0.0
H2251 H 0.60718 0.6008 0.22445 0.0
H2252 H 0.65278 0.51197 0.23292 0.0
H2253 H 0.57568 0.57697 0.1733 0.0
H2254 H 0.62021 0.56727 0.23154 0.0
H2255 H 0.59401 0.51805 0.1885 0.0
C2256 C 0.61612 0.49819 0.2004 0.0
C2257 C 0.6329 0.49608 0.21283 0.0
C2258 C 0.61027 0.56936 0.21891 0.0
C2259 C 0.6144 0.53336 0.20873 0.0
C2260 C 0.60266 0.58843 0.21498 0.0
C2261 C 0.59035 0.5916 0.19824 0.0
C2262 C 0.60535 0.55341 0.20612 0.0
C2263 C 0.58519 0.57514 0.1863 0.0
C2264 C 0.60689 0.51676 0.19826 0.0
C2265 C 0.64003 0.51303 0.22299 0.0
N2266 N 0.59277 0.55675 0.19043 0.0
N2267 N 0.6307 0.53099 0.22075 0.0
H2268 H 0.43507 0.56053 0.20477 0.0
H2269 H 0.51772 0.64221 0.23253 0.0
H2270 H 0.42769 0.59953 0.25573 0.0
H2271 H 0.50521 0.62049 0.17307 0.0
H2272 H 0.49023 0.6212 0.24552 0.0
H2273 H 0.46763 0.57564 0.19828 0.0
C2274 C 0.44061 0.57191 0.21494 0.0
C2275 C 0.42865 0.57899 0.23064 0.0
C2276 C 0.49361 0.62107 0.22966 0.0
C2277 C 0.4656 0.59668 0.22301 0.0
C2278 C 0.50916 0.63302 0.22228 0.0
C2279 C 0.51342 0.63324 0.2017 0.0
C2280 C 0.48276 0.60894 0.21637 0.0
C2281 C 0.5021 0.62104 0.18896 0.0
C2282 C 0.45908 0.58064 0.21112 0.0
C2283 C 0.43652 0.59368 0.24346 0.0
N2284 N 0.48735 0.60934 0.19651 0.0
N2285 N 0.45445 0.60237 0.23914 0.0
H2286 H 0.35631 0.48744 0.26262 0.0
H2287 H 0.43506 0.41606 0.20862 0.0
H2288 H 0.39914 0.50739 0.21857 0.0
H2289 H 0.39644 0.396 0.25633 0.0
H2290 H 0.42427 0.45039 0.21468 0.0
H2291 H 0.37213 0.4544 0.26246 0.0
C2292 C 0.369 0.48487 0.2529 0.0
C2293 C 0.37633 0.50017 0.24049 0.0
C2294 C 0.41833 0.43857 0.22405 0.0
C2295 C 0.39466 0.46255 0.24044 0.0
C2296 C 0.42454 0.41898 0.22062 0.0
C2297 C 0.4165 0.40326 0.23191 0.0
C2298 C 0.40371 0.4424 0.23866 0.0
C2299 C 0.40302 0.40779 0.24734 0.0
C2300 C 0.37815 0.46607 0.25296 0.0
C2301 C 0.39307 0.49612 0.22849 0.0
N2302 N 0.39677 0.42697 0.25007 0.0
N2303 N 0.40157 0.47769 0.22867 0.0
H2304 H 0.77604 0.48965 0.64461 0.0
H2305 H 0.76564 0.55543 0.55062 0.0
H2306 H 0.76768 0.46185 0.58698 0.0
H2307 H 0.73876 0.5742 0.60619 0.0
H2308 H 0.76597 0.52084 0.56281 0.0
H2309 H 0.76286 0.52113 0.63093 0.0
C2310 C 0.77132 0.49023 0.62911 0.0
C2311 C 0.77306 0.47335 0.61679 0.0
C2312 C 0.75943 0.53242 0.5721 0.0
C2313 C 0.75813 0.509 0.60111 0.0
C2314 C 0.75916 0.55207 0.56512 0.0
C2315 C 0.75206 0.56747 0.57743 0.0
C2316 C 0.75329 0.52842 0.59179 0.0
C2317 C 0.74414 0.56259 0.59623 0.0
C2318 C 0.76361 0.50803 0.62139 0.0
C2319 C 0.76653 0.47463 0.59688 0.0
N2320 N 0.74547 0.54349 0.60311 0.0
N2321 N 0.75968 0.4923 0.58951 0.0
H2322 H 0.81801 0.43549 0.40526 0.0
H2323 H 0.75375 0.49829 0.32693 0.0
H2324 H 0.76635 0.41109 0.37515 0.0
H2325 H 0.79545 0.52497 0.36839 0.0
H2326 H 0.75857 0.46589 0.34361 0.0
H2327 H 0.8097 0.46854 0.39203 0.0
C2328 C 0.80469 0.43721 0.39617 0.0
C2329 C 0.79283 0.42062 0.39131 0.0
C2330 C 0.76657 0.47889 0.3491 0.0
C2331 C 0.78353 0.4582 0.37564 0.0
C2332 C 0.764 0.49728 0.33945 0.0
C2333 C 0.77422 0.51429 0.34631 0.0
C2334 C 0.77963 0.47753 0.36554 0.0
C2335 C 0.78712 0.51227 0.36276 0.0
C2336 C 0.79999 0.45603 0.38855 0.0
C2337 C 0.77577 0.42357 0.3794 0.0
N2338 N 0.78951 0.49423 0.37175 0.0
N2339 N 0.77178 0.44199 0.37171 0.0
H2340 H 0.56499 0.7596 0.39937 0.0
H2341 H 0.47507 0.79794 0.33079 0.0
H2342 H 0.57084 0.80808 0.35703 0.0
H2343 H 0.46537 0.76649 0.38633 0.0
H2344 H 0.51102 0.79848 0.3378 0.0
H2345 H 0.52895 0.75847 0.39237 0.0
C2346 C 0.5587 0.76992 0.38856 0.0
C2347 C 0.57085 0.78398 0.3788 0.0
C2348 C 0.50101 0.79153 0.34849 0.0
C2349 C 0.5299 0.78272 0.37069 0.0
C2350 C 0.48056 0.79116 0.34445 0.0
C2351 C 0.46731 0.78225 0.35805 0.0
C2352 C 0.50827 0.78265 0.36611 0.0
C2353 C 0.4751 0.77375 0.37561 0.0
C2354 C 0.53818 0.76934 0.38466 0.0
C2355 C 0.56199 0.79708 0.36498 0.0
N2356 N 0.49513 0.77405 0.3791 0.0
N2357 N 0.54206 0.79608 0.36128 0.0
H2358 H 0.24572 0.48301 0.34346 0.0
H2359 H 0.18233 0.55643 0.41231 0.0
H2360 H 0.2014 0.46287 0.38589 0.0
H2361 H 0.23498 0.57572 0.38037 0.0
H2362 H 0.19034 0.52176 0.40408 0.0
H2363 H 0.2427 0.51696 0.35705 0.0
C2364 C 0.23532 0.48575 0.35557 0.0
C2365 C 0.22371 0.47012 0.36348 0.0
C2366 C 0.20038 0.53349 0.39913 0.0
C2367 C 0.22036 0.50878 0.37924 0.0
C2368 C 0.19584 0.55326 0.40391 0.0
C2369 C 0.20802 0.56885 0.39699 0.0
C2370 C 0.217 0.52931 0.38696 0.0
C2371 C 0.22531 0.56404 0.38611 0.0
C2372 C 0.23377 0.50506 0.36347 0.0
C2373 C 0.21073 0.47442 0.37943 0.0
N2374 N 0.22913 0.54465 0.38112 0.0
N2375 N 0.20931 0.49335 0.38667 0.0
H2376 H 0.50911 0.2123 0.33139 0.0
H2377 H 0.42098 0.22773 0.41021 0.0
H2378 H 0.52008 0.23958 0.38887 0.0
H2379 H 0.42398 0.17777 0.36929 0.0
H2380 H 0.45471 0.23798 0.39926 0.0
H2381 H 0.47458 0.20558 0.34157 0.0
C2382 C 0.50415 0.21704 0.34607 0.0
C2383 C 0.5174 0.22635 0.35939 0.0
C2384 C 0.44787 0.2248 0.39276 0.0
C2385 C 0.47808 0.21883 0.37108 0.0
C2386 C 0.42872 0.219 0.39894 0.0
C2387 C 0.41987 0.20179 0.39077 0.0
C2388 C 0.45781 0.21356 0.37801 0.0
C2389 C 0.43039 0.19098 0.37617 0.0
C2390 C 0.48454 0.21312 0.35192 0.0
C2391 C 0.51032 0.2321 0.37833 0.0
N2392 N 0.44875 0.19711 0.37018 0.0
N2393 N 0.49106 0.22828 0.38365 0.0
H2394 H 0.22812 0.53477 0.61015 0.0
H2395 H 0.18867 0.42758 0.64183 0.0
H2396 H 0.20361 0.52239 0.66857 0.0
H2397 H 0.23259 0.43511 0.59506 0.0
H2398 H 0.19223 0.46282 0.65052 0.0
H2399 H 0.22825 0.49881 0.60292 0.0
C2400 C 0.22274 0.52445 0.62143 0.0
C2401 C 0.21566 0.53149 0.63992 0.0
C2402 C 0.20119 0.45677 0.63843 0.0
C2403 C 0.2158 0.49052 0.63179 0.0
C2404 C 0.19908 0.43669 0.63337 0.0
C2405 C 0.21026 0.4285 0.6176 0.0
C2406 C 0.21433 0.46887 0.62745 0.0
C2407 C 0.22369 0.44091 0.6073 0.0
C2408 C 0.22298 0.50397 0.61736 0.0
C2409 C 0.20921 0.51752 0.65417 0.0
N2410 N 0.22521 0.46061 0.61227 0.0
N2411 N 0.20923 0.49768 0.64973 0.0
H2412 H 0.57942 0.233 0.58983 0.0
H2413 H 0.49011 0.20609 0.66412 0.0
H2414 H 0.57724 0.17868 0.62485 0.0
H2415 H 0.48036 0.24169 0.61116 0.0
H2416 H 0.52476 0.20051 0.65351 0.0
H2417 H 0.54503 0.24066 0.60064 0.0
C2418 C 0.5717 0.22269 0.59969 0.0
C2419 C 0.58111 0.20514 0.60636 0.0
C2420 C 0.51502 0.20957 0.64424 0.0
C2421 C 0.54231 0.21397 0.61902 0.0
C2422 C 0.49536 0.21284 0.65035 0.0
C2423 C 0.48243 0.22419 0.6384 0.0
C2424 C 0.52184 0.218 0.62621 0.0
C2425 C 0.48986 0.23258 0.6206 0.0
C2426 C 0.55217 0.22706 0.60583 0.0
C2427 C 0.57053 0.19231 0.6192 0.0
N2428 N 0.50915 0.22936 0.61504 0.0
N2429 N 0.55176 0.19705 0.62521 0.0
H2430 H 0.5087 0.79865 0.61645 0.0
H2431 H 0.39601 0.7592 0.60935 0.0
H2432 H 0.48875 0.74438 0.64524 0.0
H2433 H 0.41462 0.8192 0.59419 0.0
H2434 H 0.43079 0.75104 0.61795 0.0
H2435 H 0.47494 0.8041 0.60388 0.0
C2436 C 0.49719 0.78783 0.62005 0.0
C2437 C 0.50148 0.77105 0.6319 0.0
C2438 C 0.42723 0.76591 0.61256 0.0
C2439 C 0.46276 0.77721 0.61765 0.0
C2440 C 0.40749 0.77051 0.60749 0.0
C2441 C 0.40256 0.78991 0.60115 0.0
C2442 C 0.442 0.7808 0.61103 0.0
C2443 C 0.41784 0.80411 0.59917 0.0
C2444 C 0.47791 0.79098 0.61294 0.0
C2445 C 0.48596 0.75763 0.63635 0.0
N2446 N 0.43688 0.79928 0.60416 0.0
N2447 N 0.46722 0.76099 0.62919 0.0
H2448 H 0.15677 0.34841 0.31235 0.0
H2449 H 0.14252 0.32973 0.19508 0.0
H2450 H 0.19945 0.36834 0.26819 0.0
H2451 H 0.11613 0.29186 0.24024 0.0
H2452 H 0.15877 0.34931 0.22153 0.0
H2453 H 0.13703 0.33279 0.28568 0.0
C2454 C 0.16184 0.34968 0.29699 0.0
C2455 C 0.17976 0.3596 0.29241 0.0
C2456 C 0.1493 0.3368 0.22562 0.0
C2457 C 0.15733 0.34184 0.26196 0.0
C2458 C 0.13993 0.32574 0.21059 0.0
C2459 C 0.12805 0.30916 0.21556 0.0
C2460 C 0.14654 0.33137 0.24573 0.0
C2461 C 0.12533 0.30446 0.23584 0.0
C2462 C 0.15066 0.34068 0.28184 0.0
C2463 C 0.1858 0.36066 0.27232 0.0
N2464 N 0.13451 0.31552 0.25022 0.0
N2465 N 0.17458 0.35189 0.25779 0.0
H2466 H 0.6252 0.21452 0.26947 0.0
H2467 H 0.67794 0.11379 0.2316 0.0
H2468 H 0.63481 0.16276 0.30697 0.0
H2469 H 0.666 0.16459 0.19345 0.0
H2470 H 0.66159 0.13125 0.25929 0.0
H2471 H 0.63958 0.19623 0.24122 0.0
C2472 C 0.63036 0.19931 0.27175 0.0
C2473 C 0.62884 0.19015 0.29058 0.0
C2474 C 0.66248 0.13855 0.24484 0.0
C2475 C 0.64521 0.1691 0.25836 0.0
C2476 C 0.67189 0.12863 0.22907 0.0
C2477 C 0.67337 0.13779 0.21022 0.0
C2478 C 0.65458 0.1578 0.24177 0.0
C2479 C 0.66501 0.1569 0.20768 0.0
C2480 C 0.63847 0.18884 0.25561 0.0
C2481 C 0.6355 0.17032 0.29265 0.0
N2482 N 0.65605 0.16631 0.22331 0.0
N2483 N 0.64347 0.16048 0.27675 0.0
H2484 H 0.89509 0.68807 0.23599 0.0
H2485 H 0.80585 0.6117 0.25201 0.0
H2486 H 0.87144 0.65184 0.18804 0.0
H2487 H 0.84294 0.63242 0.30065 0.0
H2488 H 0.82942 0.62655 0.22818 0.0
H2489 H 0.87604 0.66803 0.26006 0.0
C2490 C 0.88603 0.67574 0.2306 0.0
C2491 C 0.88474 0.67159 0.21006 0.0
C2492 C 0.83251 0.62765 0.24406 0.0
C2493 C 0.86277 0.64884 0.23734 0.0
C2494 C 0.81903 0.61929 0.25763 0.0
C2495 C 0.82245 0.62094 0.27828 0.0
C2496 C 0.84934 0.63802 0.25123 0.0
C2497 C 0.83983 0.63074 0.28483 0.0
C2498 C 0.87523 0.66429 0.2443 0.0
C2499 C 0.87291 0.65542 0.20378 0.0
N2500 N 0.85252 0.63913 0.27134 0.0
N2501 N 0.86214 0.64478 0.21736 0.0
H2502 H 0.37547 0.83198 0.28826 0.0
H2503 H 0.29556 0.82015 0.20216 0.0
H2504 H 0.32241 0.79559 0.29511 0.0
H2505 H 0.32641 0.87631 0.21141 0.0
H2506 H 0.30932 0.80789 0.23361 0.0
H2507 H 0.36133 0.84594 0.25751 0.0
C2508 C 0.36081 0.82703 0.28347 0.0
C2509 C 0.3502 0.81243 0.29431 0.0
C2510 C 0.31301 0.82291 0.22871 0.0
C2511 C 0.33435 0.82794 0.25889 0.0
C2512 C 0.30508 0.83 0.21081 0.0
C2513 C 0.3096 0.84943 0.20415 0.0
C2514 C 0.32587 0.83514 0.23988 0.0
C2515 C 0.32265 0.86117 0.21578 0.0
C2516 C 0.35285 0.83493 0.26586 0.0
C2517 C 0.33141 0.80638 0.28707 0.0
N2518 N 0.3304 0.85381 0.23308 0.0
N2519 N 0.32417 0.81403 0.26972 0.0
H2520 H 0.11412 0.65317 0.793 0.0
H2521 H 0.17478 0.67656 0.69264 0.0
H2522 H 0.12814 0.71291 0.77274 0.0
H2523 H 0.15605 0.61718 0.70992 0.0
H2524 H 0.15717 0.69021 0.72162 0.0
H2525 H 0.12876 0.63968 0.76231 0.0
C2526 C 0.12029 0.66343 0.78207 0.0
C2527 C 0.12006 0.68417 0.78545 0.0
C2528 C 0.15682 0.6742 0.71904 0.0
C2529 C 0.13673 0.66888 0.7503 0.0
C2530 C 0.16697 0.6664 0.70258 0.0
C2531 C 0.16698 0.6457 0.699 0.0
C2532 C 0.1467 0.6612 0.73209 0.0
C2533 C 0.15633 0.63324 0.71211 0.0
C2534 C 0.12854 0.65574 0.76452 0.0
C2535 C 0.12792 0.69683 0.77066 0.0
N2536 N 0.14671 0.64117 0.72817 0.0
N2537 N 0.13607 0.68897 0.75378 0.0
H2538 H 0.35513 0.16682 0.68504 0.0
H2539 H 0.33966 0.16282 0.80364 0.0
H2540 H 0.37469 0.21357 0.72512 0.0
H2541 H 0.30689 0.12528 0.76252 0.0
H2542 H 0.35577 0.17928 0.77521 0.0
H2543 H 0.34036 0.1491 0.71353 0.0
C2544 C 0.3564 0.17328 0.69987 0.0
C2545 C 0.3661 0.19168 0.70277 0.0
C2546 C 0.34508 0.16742 0.77241 0.0
C2547 C 0.34927 0.17157 0.73533 0.0
C2548 C 0.336 0.15793 0.78861 0.0
C2549 C 0.32196 0.14265 0.78539 0.0
C2550 C 0.34021 0.16149 0.75284 0.0
C2551 C 0.31753 0.1371 0.76562 0.0
C2552 C 0.34788 0.16324 0.71607 0.0
C2553 C 0.36716 0.19952 0.72223 0.0
N2554 N 0.32667 0.14649 0.75006 0.0
N2555 N 0.35889 0.18938 0.73779 0.0
H2556 H 0.7994 0.38113 0.72666 0.0
H2557 H 0.88189 0.30506 0.76844 0.0
H2558 H 0.84318 0.35161 0.6894 0.0
H2559 H 0.83909 0.33566 0.80598 0.0
H2560 H 0.8683 0.32252 0.73934 0.0
H2561 H 0.8144 0.36543 0.7561 0.0
C2562 C 0.81222 0.37139 0.72471 0.0
C2563 C 0.82004 0.36763 0.70558 0.0
C2564 C 0.86191 0.32546 0.75394 0.0
C2565 C 0.83726 0.34962 0.73913 0.0
C2566 C 0.86956 0.31539 0.77053 0.0
C2567 C 0.86157 0.31889 0.78963 0.0
C2568 C 0.8461 0.33908 0.75647 0.0
C2569 C 0.84583 0.33267 0.79154 0.0
C2570 C 0.8208 0.36248 0.7415 0.0
C2571 C 0.83681 0.3551 0.70389 0.0
N2572 N 0.83857 0.34222 0.77515 0.0
N2573 N 0.84479 0.34645 0.72045 0.0
H2574 H 0.66005 0.88895 0.76045 0.0
H2575 H 0.5995 0.79194 0.72759 0.0
H2576 H 0.63912 0.84468 0.80256 0.0
H2577 H 0.60882 0.8427 0.68873 0.0
H2578 H 0.61308 0.81132 0.75556 0.0
H2579 H 0.64056 0.87264 0.73412 0.0
C2580 C 0.65124 0.87584 0.76414 0.0
C2581 C 0.65128 0.86803 0.78362 0.0
C2582 C 0.61193 0.8183 0.74097 0.0
C2583 C 0.62903 0.84927 0.75365 0.0
C2584 C 0.60428 0.80722 0.72502 0.0
C2585 C 0.60317 0.81572 0.70584 0.0
C2586 C 0.61876 0.83791 0.73764 0.0
C2587 C 0.60933 0.83564 0.70332 0.0
C2588 C 0.64004 0.86661 0.74916 0.0
C2589 C 0.63942 0.85119 0.78772 0.0
N2590 N 0.61708 0.84599 0.71899 0.0
N2591 N 0.62894 0.84222 0.77279 0.0
H2592 H 0.19505 0.0995 0.35544 0.0
H2593 H 0.31201 0.12068 0.36674 0.0
H2594 H 0.24046 0.07353 0.31753 0.0
H2595 H 0.26678 0.1519 0.40076 0.0
H2596 H 0.28619 0.09945 0.35236 0.0
H2597 H 0.22128 0.11482 0.37584 0.0
C2598 C 0.21055 0.09672 0.35163 0.0
C2599 C 0.21562 0.08534 0.3347 0.0
C2600 C 0.28189 0.11081 0.36311 0.0
C2601 C 0.24563 0.10304 0.35776 0.0
C2602 C 0.29667 0.12286 0.37148 0.0
C2603 C 0.29156 0.13813 0.385 0.0
C2604 C 0.26178 0.11407 0.36816 0.0
C2605 C 0.27135 0.14048 0.39021 0.0
C2606 C 0.2255 0.1056 0.36318 0.0
C2607 C 0.23592 0.08244 0.33029 0.0
N2608 N 0.25716 0.12865 0.38168 0.0
N2609 N 0.25019 0.09135 0.34168 0.0
H2610 H 0.86692 0.30973 0.33604 0.0
H2611 H 0.89308 0.19307 0.34103 0.0
H2612 H 0.84174 0.26886 0.37927 0.0
H2613 H 0.9061 0.23034 0.28987 0.0
H2614 H 0.88013 0.22236 0.35865 0.0
H2615 H 0.88687 0.28226 0.32226 0.0
C2616 C 0.86578 0.29502 0.34277 0.0
C2617 C 0.85258 0.29147 0.35871 0.0
C2618 C 0.88602 0.22417 0.34365 0.0
C2619 C 0.87524 0.26009 0.34303 0.0
C2620 C 0.89358 0.2075 0.33365 0.0
C2621 C 0.90055 0.2093 0.31392 0.0
C2622 C 0.88547 0.24276 0.33385 0.0
C2623 C 0.9006 0.22831 0.30498 0.0
C2624 C 0.87708 0.27936 0.33485 0.0
C2625 C 0.85154 0.27212 0.36678 0.0
N2626 N 0.89303 0.24431 0.31498 0.0
N2627 N 0.86268 0.25712 0.35881 0.0
H2628 H 0.72355 0.78145 0.37028 0.0
H2629 H 0.78975 0.87908 0.37265 0.0
H2630 H 0.71764 0.82618 0.41677 0.0
H2631 H 0.79876 0.82945 0.33231 0.0
H2632 H 0.76703 0.85818 0.39262 0.0
H2633 H 0.75482 0.79632 0.36033 0.0
C2634 C 0.72896 0.79411 0.37882 0.0
C2635 C 0.7176 0.80264 0.39433 0.0
C2636 C 0.77425 0.85178 0.37959 0.0
C2637 C 0.75341 0.82048 0.38215 0.0
C2638 C 0.78718 0.86368 0.36824 0.0
C2639 C 0.79564 0.85605 0.35061 0.0
C2640 C 0.76988 0.83221 0.37314 0.0
C2641 C 0.79204 0.83603 0.34553 0.0
C2642 C 0.74689 0.80278 0.37291 0.0
C2643 C 0.72553 0.81939 0.40435 0.0
N2644 N 0.77924 0.82489 0.3566 0.0
N2645 N 0.74277 0.82801 0.39783 0.0
H2646 H 0.13456 0.67282 0.33183 0.0
H2647 H 0.10197 0.78778 0.32411 0.0
H2648 H 0.1562 0.71899 0.37156 0.0
H2649 H 0.08784 0.74342 0.27927 0.0
H2650 H 0.11802 0.76182 0.34423 0.0
H2651 H 0.11383 0.69765 0.31483 0.0
C2652 C 0.13479 0.68816 0.33711 0.0
C2653 C 0.14714 0.69388 0.35312 0.0
C2654 C 0.11127 0.75773 0.33007 0.0
C2655 C 0.12358 0.72239 0.33361 0.0
C2656 C 0.10194 0.7725 0.31866 0.0
C2657 C 0.09361 0.76774 0.29996 0.0
C2658 C 0.11226 0.73805 0.32275 0.0
C2659 C 0.09429 0.74776 0.29349 0.0
C2660 C 0.12304 0.70234 0.32732 0.0
C2661 C 0.14707 0.71401 0.35913 0.0
N2662 N 0.10355 0.73365 0.30484 0.0
N2663 N 0.13548 0.72756 0.34934 0.0
H2664 H 0.28426 0.86099 0.643 0.0
H2665 H 0.16546 0.86609 0.64858 0.0
H2666 H 0.24551 0.82711 0.60385 0.0
H2667 H 0.20465 0.90536 0.68176 0.0
H2668 H 0.19437 0.85313 0.63041 0.0
H2669 H 0.25522 0.87879 0.65585 0.0
C2670 C 0.26968 0.85748 0.63686 0.0
C2671 C 0.26734 0.84248 0.62232 0.0
C2672 C 0.19662 0.86473 0.64153 0.0
C2673 C 0.23389 0.86257 0.63734 0.0
C2674 C 0.1801 0.87223 0.65182 0.0
C2675 C 0.18267 0.88673 0.66683 0.0
C2676 C 0.21585 0.87169 0.64636 0.0
C2677 C 0.20204 0.89392 0.67058 0.0
C2678 C 0.25306 0.86759 0.64432 0.0
C2679 C 0.24798 0.83834 0.61528 0.0
N2680 N 0.2179 0.8862 0.66053 0.0
N2681 N 0.23198 0.84824 0.62296 0.0
H2682 H 0.10406 0.21437 0.6476 0.0
H2683 H 0.20267 0.28133 0.63833 0.0
H2684 H 0.1531 0.2133 0.68963 0.0
H2685 H 0.15146 0.2884 0.59952 0.0
H2686 H 0.18648 0.2528 0.65403 0.0
H2687 H 0.12269 0.2384 0.62707 0.0
C2688 C 0.11878 0.21914 0.65244 0.0
C2689 C 0.12697 0.21207 0.67045 0.0
C2690 C 0.17883 0.26045 0.64195 0.0
C2691 C 0.1483 0.23938 0.64711 0.0
C2692 C 0.18818 0.27664 0.63279 0.0
C2693 C 0.17838 0.28733 0.61759 0.0
C2694 C 0.15947 0.25493 0.63599 0.0
C2695 C 0.15942 0.28074 0.61137 0.0
C2696 C 0.12937 0.23285 0.64076 0.0
C2697 C 0.14606 0.21871 0.67607 0.0
N2698 N 0.15049 0.26503 0.62072 0.0
N2699 N 0.15605 0.23203 0.66447 0.0
H2700 H 0.81329 0.12109 0.65002 0.0
H2701 H 0.69575 0.14235 0.64401 0.0
H2702 H 0.77144 0.10768 0.69731 0.0
H2703 H 0.73822 0.16996 0.6039 0.0
H2704 H 0.72309 0.12487 0.66052 0.0
H2705 H 0.78563 0.13452 0.62986 0.0
C2706 C 0.79824 0.12078 0.65602 0.0
C2707 C 0.79457 0.11342 0.67535 0.0
C2708 C 0.72645 0.13465 0.64804 0.0
C2709 C 0.76308 0.12867 0.65256 0.0
C2710 C 0.71083 0.14452 0.63848 0.0
C2711 C 0.71472 0.15758 0.6225 0.0
C2712 C 0.74618 0.13783 0.64162 0.0
C2713 C 0.73462 0.16013 0.61627 0.0
C2714 C 0.78253 0.12853 0.64461 0.0
C2715 C 0.77489 0.11344 0.68256 0.0
N2716 N 0.74966 0.15034 0.62588 0.0
N2717 N 0.75988 0.12098 0.67117 0.0
H2718 H 0.79587 0.72132 0.58325 0.0
H2719 H 0.87885 0.75096 0.66158 0.0
H2720 H 0.83916 0.67888 0.60534 0.0
H2721 H 0.84713 0.79452 0.62595 0.0
H2722 H 0.86618 0.72441 0.63971 0.0
H2723 H 0.81615 0.74864 0.59674 0.0
C2724 C 0.80989 0.71786 0.59063 0.0
C2725 C 0.81588 0.69795 0.59336 0.0
C2726 C 0.86226 0.73981 0.63648 0.0
C2727 C 0.83888 0.72891 0.60919 0.0
C2728 C 0.86937 0.75492 0.64903 0.0
C2729 C 0.86386 0.7749 0.64564 0.0
C2730 C 0.84929 0.74472 0.62068 0.0
C2731 C 0.85178 0.7793 0.62905 0.0
C2732 C 0.82146 0.7334 0.59832 0.0
C2733 C 0.83412 0.69411 0.60295 0.0
N2734 N 0.84465 0.7643 0.61735 0.0
N2735 N 0.84485 0.70947 0.61088 0.0
H2736 H 0.41004 0.25169 0.17846 0.0
H2737 H 0.32116 0.22441 0.10418 0.0
H2738 H 0.37391 0.29654 0.14926 0.0
H2739 H 0.36466 0.18169 0.12564 0.0
H2740 H 0.34127 0.25147 0.11868 0.0
H2741 H 0.39482 0.22608 0.15727 0.0
C2742 C 0.39902 0.25612 0.16742 0.0
C2743 C 0.3931 0.27616 0.16565 0.0
C2744 C 0.34653 0.23618 0.11992 0.0
C2745 C 0.37544 0.24702 0.1415 0.0
C2746 C 0.33503 0.22076 0.11174 0.0
C2747 C 0.34121 0.20078 0.11373 0.0
C2748 C 0.36418 0.23152 0.13037 0.0
C2749 C 0.3594 0.19687 0.12352 0.0
C2750 C 0.39037 0.24154 0.15528 0.0
C2751 C 0.37891 0.28122 0.151 0.0
N2752 N 0.37011 0.21207 0.13163 0.0
N2753 N 0.37034 0.26668 0.13965 0.0
H2754 H 0.34112 0.81957 0.83909 0.0
H2755 H 0.35001 0.70082 0.82618 0.0
H2756 H 0.29716 0.77771 0.86117 0.0
H2757 H 0.38789 0.74282 0.79496 0.0
H2758 H 0.33227 0.72881 0.8416 0.0
H2759 H 0.36018 0.79158 0.82512 0.0
C2760 C 0.33555 0.80447 0.84108 0.0
C2761 C 0.31754 0.80092 0.85127 0.0
C2762 C 0.34449 0.73192 0.83141 0.0
C2763 C 0.33918 0.7689 0.83529 0.0
C2764 C 0.35472 0.71595 0.82272 0.0
C2765 C 0.37047 0.71953 0.80931 0.0
C2766 C 0.35009 0.75163 0.82672 0.0
C2767 C 0.37572 0.73943 0.8051 0.0
C2768 C 0.34636 0.78853 0.83301 0.0
C2769 C 0.31086 0.7811 0.85322 0.0
N2770 N 0.36556 0.75476 0.8138 0.0
N2771 N 0.32171 0.76583 0.84533 0.0
H2772 H 0.26706 0.39743 0.82276 0.0
H2773 H 0.23357 0.31532 0.90325 0.0
H2774 H 0.30874 0.3594 0.85425 0.0
H2775 H 0.19268 0.35458 0.8722 0.0
H2776 H 0.2616 0.33247 0.88704 0.0
H2777 H 0.23977 0.38304 0.84229 0.0
C2778 C 0.27045 0.38604 0.83381 0.0
C2779 C 0.29016 0.37952 0.83683 0.0
C2780 C 0.24649 0.33743 0.88393 0.0
C2781 C 0.25904 0.36302 0.85931 0.0
C2782 C 0.23051 0.32762 0.89313 0.0
C2783 C 0.21077 0.33354 0.88909 0.0
C2784 C 0.24267 0.35318 0.87052 0.0
C2785 C 0.20764 0.34968 0.876 0.0
C2786 C 0.25489 0.3779 0.84503 0.0
C2787 C 0.29377 0.36496 0.85156 0.0
N2788 N 0.22341 0.35884 0.8671 0.0
N2789 N 0.27833 0.3571 0.86217 0.0
H2790 H 0.65443 0.28858 0.8 0.0
H2791 H 0.65694 0.21899 0.89707 0.0
H2792 H 0.60476 0.2847 0.84121 0.0
H2793 H 0.69592 0.21142 0.846 0.0
H2794 H 0.63974 0.24607 0.87929 0.0
H2795 H 0.67198 0.26321 0.81927 0.0
C2796 C 0.64709 0.28224 0.81299 0.0
C2797 C 0.62791 0.28857 0.81879 0.0
C2798 C 0.65214 0.23849 0.87209 0.0
C2799 C 0.64826 0.25977 0.84126 0.0
C2800 C 0.66193 0.22301 0.88218 0.0
C2801 C 0.67796 0.21288 0.87306 0.0
C2802 C 0.65851 0.24394 0.85283 0.0
C2803 C 0.68394 0.21899 0.85385 0.0
C2804 C 0.65722 0.26784 0.82408 0.0
C2805 C 0.61952 0.28029 0.83621 0.0
N2806 N 0.67421 0.23408 0.8444 0.0
N2807 N 0.62975 0.26625 0.84684 0.0
H2808 H 0.75607 0.70356 0.89762 0.0
H2809 H 0.73463 0.61164 0.82407 0.0
H2810 H 0.80033 0.65889 0.88286 0.0
H2811 H 0.68836 0.64997 0.84781 0.0
H2812 H 0.75915 0.62901 0.84512 0.0
H2813 H 0.73095 0.68406 0.87947 0.0
C2814 C 0.76043 0.68954 0.89072 0.0
C2815 C 0.78027 0.68282 0.89174 0.0
C2816 C 0.74361 0.63352 0.8458 0.0
C2817 C 0.75175 0.66055 0.87078 0.0
C2818 C 0.72966 0.62371 0.8337 0.0
C2819 C 0.70946 0.62934 0.83426 0.0
C2820 C 0.7373 0.6492 0.85836 0.0
C2821 C 0.70376 0.64497 0.84712 0.0
C2822 C 0.74611 0.67841 0.88038 0.0
C2823 C 0.78513 0.6645 0.88263 0.0
N2824 N 0.71762 0.65441 0.85858 0.0
N2825 N 0.77101 0.65409 0.87236 0.0
H2826 H 0.68093 0.77877 0.07717 0.0
H2827 H 0.59759 0.74838 0.15724 0.0
H2828 H 0.65055 0.82086 0.11572 0.0
H2829 H 0.6292 0.70571 0.12042 0.0
H2830 H 0.61339 0.77561 0.13862 0.0
H2831 H 0.65873 0.7523 0.08928 0.0
C2832 C 0.66949 0.78249 0.08805 0.0
C2833 C 0.66775 0.80204 0.09559 0.0
C2834 C 0.61671 0.76029 0.13445 0.0
C2835 C 0.64229 0.77185 0.10947 0.0
C2836 C 0.60774 0.74476 0.14512 0.0
C2837 C 0.61224 0.72477 0.1405 0.0
C2838 C 0.63042 0.75581 0.11915 0.0
C2839 C 0.62523 0.7209 0.12443 0.0
C2840 C 0.65678 0.76739 0.09489 0.0
C2841 C 0.6524 0.80606 0.10937 0.0
N2842 N 0.63405 0.73629 0.11448 0.0
N2843 N 0.64042 0.79106 0.11602 0.0
H2844 H 0.29603 0.63442 0.20359 0.0
H2845 H 0.22244 0.61822 0.11052 0.0
H2846 H 0.28932 0.57751 0.17361 0.0
H2847 H 0.22596 0.67258 0.14539 0.0
H2848 H 0.24755 0.60304 0.13255 0.0
H2849 H 0.27066 0.64859 0.18173 0.0
C2850 C 0.28901 0.62479 0.19259 0.0
C2851 C 0.29473 0.60468 0.19056 0.0
C2852 C 0.24286 0.61832 0.13528 0.0
C2853 C 0.26589 0.62101 0.16503 0.0
C2854 C 0.22853 0.62698 0.12274 0.0
C2855 C 0.22221 0.64677 0.12599 0.0
C2856 C 0.25084 0.62954 0.15119 0.0
C2857 C 0.23067 0.65745 0.14199 0.0
C2858 C 0.27463 0.63297 0.17995 0.0
C2859 C 0.28547 0.59312 0.17561 0.0
N2860 N 0.2445 0.6487 0.15396 0.0
N2861 N 0.27151 0.60147 0.16338 0.0
H2862 H 0.80931 0.35314 0.15159 0.0
H2863 H 0.69289 0.3805 0.14643 0.0
H2864 H 0.76926 0.32855 0.10722 0.0
H2865 H 0.73266 0.39875 0.19392 0.0
H2866 H 0.72138 0.36519 0.12897 0.0
H2867 H 0.78205 0.37351 0.16452 0.0
C2868 C 0.79481 0.35218 0.1444 0.0
C2869 C 0.79157 0.3391 0.12828 0.0
C2870 C 0.72388 0.37273 0.14312 0.0
C2871 C 0.7601 0.36224 0.14327 0.0
C2872 C 0.70769 0.38157 0.15298 0.0
C2873 C 0.71048 0.3907 0.17169 0.0
C2874 C 0.74292 0.37315 0.15205 0.0
C2875 C 0.72987 0.39159 0.17964 0.0
C2876 C 0.77919 0.36375 0.15188 0.0
C2877 C 0.77234 0.33825 0.11983 0.0
N2878 N 0.74531 0.38282 0.16984 0.0
N2879 N 0.75729 0.34963 0.12747 0.0
H2880 H 0.10374 0.11683 0.24021 0.0
H2881 H 0.1299 0.21421 0.17683 0.0
H2882 H 0.14896 0.15926 0.25792 0.0
H2883 H 0.07335 0.18352 0.17107 0.0
H2884 H 0.13896 0.19183 0.20415 0.0
H2885 H 0.09375 0.13917 0.21295 0.0
C2886 C 0.11149 0.13093 0.23835 0.0
C2887 C 0.12726 0.13624 0.25118 0.0
C2888 C 0.12456 0.19 0.19695 0.0
C2889 C 0.11609 0.16172 0.22001 0.0
C2890 C 0.11935 0.20276 0.18133 0.0
C2891 C 0.10065 0.20097 0.1719 0.0
C2892 C 0.11111 0.17511 0.20307 0.0
C2893 C 0.08788 0.18546 0.17796 0.0
C2894 C 0.10577 0.14367 0.22286 0.0
C2895 C 0.13668 0.15474 0.24837 0.0
N2896 N 0.09333 0.17312 0.19324 0.0
N2897 N 0.13109 0.16677 0.23292 0.0
H2898 H 0.85462 0.08667 0.23954 0.0
H2899 H 0.75732 0.12371 0.18061 0.0
H2900 H 0.81912 0.13736 0.25784 0.0
H2901 H 0.79589 0.0763 0.15958 0.0
H2902 H 0.77857 0.12765 0.20999 0.0
H2903 H 0.83155 0.08078 0.2118 0.0
C2904 C 0.8418 0.09643 0.2378 0.0
C2905 C 0.83884 0.11264 0.25085 0.0
C2906 C 0.78242 0.11639 0.19897 0.0
C2907 C 0.81244 0.10611 0.21907 0.0
C2908 C 0.7703 0.11412 0.18216 0.0
C2909 C 0.77479 0.09955 0.16766 0.0
C2910 C 0.79919 0.10401 0.20138 0.0
C2911 C 0.79192 0.08775 0.17035 0.0
C2912 C 0.82868 0.09311 0.22194 0.0
C2913 C 0.82186 0.12466 0.24816 0.0
N2914 N 0.80347 0.09019 0.18695 0.0
N2915 N 0.80938 0.12126 0.23243 0.0
H2916 H 0.94749 0.7921 0.18305 0.0
H2917 H 0.85148 0.84123 0.23488 0.0
H2918 H 0.88694 0.77317 0.17094 0.0
H2919 H 0.90854 0.83778 0.26473 0.0
H2920 H 0.86558 0.82251 0.20654 0.0
H2921 H 0.93455 0.81527 0.20865 0.0
C2922 C 0.9315 0.79304 0.18553 0.0
C2923 C 0.91826 0.78069 0.17487 0.0
C2924 C 0.87501 0.8259 0.21929 0.0
C2925 C 0.90348 0.80708 0.20379 0.0
C2926 C 0.86699 0.83656 0.23536 0.0
C2927 C 0.87879 0.84065 0.25219 0.0
C2928 C 0.89507 0.81967 0.21994 0.0
C2929 C 0.89887 0.83445 0.25216 0.0
C2930 C 0.92417 0.80613 0.20017 0.0
C2931 C 0.89769 0.78238 0.17878 0.0
N2932 N 0.90643 0.82426 0.23624 0.0
N2933 N 0.89094 0.79533 0.19288 0.0
H2934 H 0.22348 0.8532 0.15096 0.0
H2935 H 0.12762 0.88559 0.21355 0.0
H2936 H 0.19951 0.91319 0.14854 0.0
H2937 H 0.16581 0.83662 0.23086 0.0
H2938 H 0.15118 0.89436 0.18695 0.0
H2939 H 0.19921 0.84484 0.17689 0.0
C2940 C 0.21307 0.86462 0.15584 0.0
C2941 C 0.21381 0.88407 0.14787 0.0
C2942 C 0.15448 0.88178 0.19663 0.0
C2943 C 0.18581 0.87446 0.17739 0.0
C2944 C 0.14105 0.87677 0.21177 0.0
C2945 C 0.14483 0.86038 0.22433 0.0
C2946 C 0.17166 0.87006 0.19382 0.0
C2947 C 0.1625 0.84947 0.22155 0.0
C2948 C 0.19925 0.85982 0.17067 0.0
C2949 C 0.19953 0.89804 0.15433 0.0
N2950 N 0.17521 0.85438 0.20643 0.0
N2951 N 0.18613 0.89299 0.16881 0.0
H2952 H 0.06653 0.79977 0.85591 0.0
H2953 H 0.12275 0.81821 0.75154 0.0
H2954 H 0.10781 0.7585 0.8281 0.0
H2955 H 0.08677 0.86377 0.77982 0.0
H2956 H 0.11711 0.79639 0.78015 0.0
H2957 H 0.07363 0.824 0.82902 0.0
C2958 C 0.07711 0.79583 0.84427 0.0
C2959 C 0.08637 0.77695 0.84416 0.0
C2960 C 0.11046 0.81118 0.78022 0.0
C2961 C 0.0945 0.80443 0.81351 0.0
C2962 C 0.11361 0.8236 0.76379 0.0
C2963 C 0.10516 0.84278 0.76324 0.0
C2964 C 0.09862 0.81787 0.79629 0.0
C2965 C 0.0937 0.84913 0.77972 0.0
C2966 C 0.08113 0.80963 0.82894 0.0
C2967 C 0.1 0.77267 0.82873 0.0
N2968 N 0.09065 0.83665 0.79556 0.0
N2969 N 0.10355 0.78621 0.81408 0.0
H2970 H 0.14539 0.144 0.77959 0.0
H2971 H 0.23288 0.06681 0.80654 0.0
H2972 H 0.16751 0.09819 0.73981 0.0
H2973 H 0.2219 0.12069 0.8406 0.0
H2974 H 0.20391 0.07444 0.78578 0.0
H2975 H 0.16885 0.13234 0.80541 0.0
C2976 C 0.15508 0.13141 0.77638 0.0
C2977 C 0.15472 0.12219 0.75749 0.0
C2978 C 0.20769 0.0845 0.79792 0.0
C2979 C 0.18134 0.10873 0.78683 0.0
C2980 C 0.2242 0.08011 0.80986 0.0
C2981 C 0.23003 0.0933 0.82514 0.0
C2982 C 0.19691 0.10222 0.80123 0.0
C2983 C 0.21803 0.11017 0.82889 0.0
C2984 C 0.16846 0.1248 0.79105 0.0
C2985 C 0.16759 0.10597 0.75402 0.0
N2986 N 0.20215 0.1143 0.81682 0.0
N2987 N 0.18038 0.09979 0.76853 0.0
H2988 H 0.86964 0.14543 0.78046 0.0
H2989 H 0.94092 0.23795 0.80651 0.0
H2990 H 0.91395 0.16901 0.73983 0.0
H2991 H 0.89173 0.21899 0.84388 0.0
H2992 H 0.93438 0.20978 0.78422 0.0
H2993 H 0.88026 0.16964 0.80566 0.0
C2994 C 0.88172 0.15561 0.77688 0.0
C2995 C 0.89091 0.1552 0.75797 0.0
C2996 C 0.92513 0.21167 0.7974 0.0
C2997 C 0.90308 0.1831 0.78679 0.0
C2998 C 0.92892 0.22771 0.81024 0.0
C2999 C 0.91667 0.23107 0.82701 0.0
C3000 C 0.909 0.19883 0.80134 0.0
C3001 C 0.90146 0.21715 0.83109 0.0
C3002 C 0.88773 0.16949 0.79127 0.0
C3003 C 0.90628 0.16897 0.7541 0.0
N3004 N 0.89793 0.20177 0.81822 0.0
N3005 N 0.91188 0.18238 0.76838 0.0
H3006 H 0.76133 0.88426 0.82774 0.0
H3007 H 0.79907 0.88646 0.71448 0.0
H3008 H 0.74764 0.93234 0.78677 0.0
H3009 H 0.82488 0.84774 0.75924 0.0
H3010 H 0.77864 0.90226 0.74045 0.0
H3011 H 0.78403 0.87003 0.80288 0.0
C3012 C 0.76326 0.89198 0.81364 0.0
C3013 C 0.75243 0.90949 0.80935 0.0
C3014 C 0.78878 0.89031 0.7446 0.0
C3015 C 0.77819 0.89305 0.78064 0.0
C3016 C 0.80027 0.88114 0.72974 0.0
C3017 C 0.81361 0.86569 0.73471 0.0
C3018 C 0.79048 0.88387 0.76456 0.0
C3019 C 0.81484 0.85966 0.75481 0.0
C3020 C 0.77621 0.8838 0.79941 0.0
C3021 C 0.75565 0.91884 0.79079 0.0
N3022 N 0.80337 0.8687 0.76899 0.0
N3023 N 0.76805 0.91038 0.77704 0.0
H3024 H 0.27632 0.0999 0.18889 0.0
H3025 H 0.16338 0.08734 0.22295 0.0
H3026 H 0.2284 0.12744 0.15562 0.0
H3027 H 0.20884 0.04279 0.23428 0.0
H3028 H 0.18663 0.10467 0.20042 0.0
H3029 H 0.25163 0.08202 0.20912 0.0
C3030 C 0.26057 0.10242 0.18609 0.0
C3031 C 0.25433 0.11524 0.1707 0.0
C3032 C 0.19135 0.09096 0.20768 0.0
C3033 C 0.22602 0.09467 0.19355 0.0
C3034 C 0.1781 0.08102 0.22047 0.0
C3035 C 0.18419 0.0636 0.23059 0.0
C3036 C 0.21089 0.08361 0.20534 0.0
C3037 C 0.20346 0.05614 0.22684 0.0
C3038 C 0.2465 0.09203 0.19744 0.0
C3039 C 0.23373 0.11766 0.16739 0.0
N3040 N 0.21621 0.06634 0.21475 0.0
N3041 N 0.22024 0.10753 0.17881 0.0
H3042 H 0.89839 0.22986 0.13917 0.0
H3043 H 0.87701 0.15264 0.2278 0.0
H3044 H 0.85457 0.23941 0.18558 0.0
H3045 H 0.93203 0.15225 0.19397 0.0
H3046 H 0.86507 0.18055 0.20759 0.0
H3047 H 0.9078 0.19815 0.15495 0.0
C3048 C 0.89067 0.2252 0.15262 0.0
C3049 C 0.87568 0.23725 0.16113 0.0
C3050 C 0.87968 0.17426 0.20444 0.0
C3051 C 0.88628 0.20102 0.17914 0.0
C3052 C 0.88649 0.15828 0.2159 0.0
C3053 C 0.9057 0.15039 0.21276 0.0
C3054 C 0.89211 0.1824 0.18964 0.0
C3055 C 0.91716 0.15798 0.19691 0.0
C3056 C 0.89609 0.20716 0.16163 0.0
C3057 C 0.86633 0.23065 0.17869 0.0
N3058 N 0.91027 0.17379 0.18603 0.0
N3059 N 0.87174 0.21293 0.18709 0.0
H3060 H 0.76887 0.87593 0.15173 0.0
H3061 H 0.77631 0.92556 0.2604 0.0
H3062 H 0.7188 0.90383 0.18145 0.0
H3063 H 0.82394 0.89118 0.23342 0.0
H3064 H 0.7557 0.91954 0.23088 0.0
H3065 H 0.78976 0.88309 0.18074 0.0
C3066 C 0.7623 0.88377 0.1643 0.0
C3067 C 0.74208 0.88952 0.16408 0.0
C3068 C 0.77066 0.91333 0.23139 0.0
C3069 C 0.76594 0.89753 0.19756 0.0
C3070 C 0.7825 0.91681 0.24824 0.0
C3071 C 0.80192 0.90883 0.24943 0.0
C3072 C 0.77828 0.90185 0.21554 0.0
C3073 C 0.80908 0.89761 0.23317 0.0
C3074 C 0.77423 0.88772 0.18094 0.0
C3075 C 0.73428 0.89912 0.18104 0.0
N3076 N 0.79725 0.89445 0.21691 0.0
N3077 N 0.74625 0.9029 0.19709 0.0
H3078 H 0.04823 0.79699 0.18723 0.0
H3079 H 0.14924 0.75379 0.14039 0.0
H3080 H 0.10544 0.82531 0.19667 0.0
H3081 H 0.10157 0.71547 0.16074 0.0
H3082 H 0.13101 0.78294 0.15361 0.0
H3083 H 0.06522 0.7697 0.16915 0.0
C3084 C 0.06426 0.79774 0.18494 0.0
C3085 C 0.07552 0.81334 0.19328 0.0
C3086 C 0.12459 0.76813 0.1552 0.0
C3087 C 0.09487 0.78244 0.17297 0.0
C3088 C 0.13498 0.75161 0.14778 0.0
C3089 C 0.127 0.73233 0.14992 0.0
C3090 C 0.10587 0.76534 0.16431 0.0
C3091 C 0.10835 0.73011 0.15928 0.0
C3092 C 0.07394 0.78211 0.17491 0.0
C3093 C 0.09629 0.8135 0.19036 0.0
N3094 N 0.09832 0.74647 0.16607 0.0
N3095 N 0.10534 0.79825 0.18043 0.0
H3096 H 0.13554 0.90425 0.7764 0.0
H3097 H 0.24918 0.92304 0.80774 0.0
H3098 H 0.17178 0.95199 0.75216 0.0
H3099 H 0.21048 0.88078 0.8375 0.0
H3100 H 0.22061 0.93474 0.78804 0.0
H3101 H 0.162 0.89696 0.80052 0.0
C3102 C 0.14889 0.91344 0.77636 0.0
C3103 C 0.15152 0.9286 0.76204 0.0
C3104 C 0.21834 0.92299 0.79898 0.0
C3105 C 0.18204 0.92009 0.7894 0.0
C3106 C 0.23469 0.9162 0.81009 0.0
C3107 C 0.23222 0.90088 0.82423 0.0
C3108 C 0.19942 0.91427 0.80192 0.0
C3109 C 0.21303 0.89275 0.8269 0.0
C3110 C 0.16406 0.9092 0.79009 0.0
C3111 C 0.16914 0.94005 0.76279 0.0
N3112 N 0.19741 0.89945 0.81577 0.0
N3113 N 0.18384 0.93537 0.77604 0.0
H3114 H 0.05834 0.21132 0.76409 0.0
H3115 H 0.13356 0.23093 0.85485 0.0
H3116 H 0.10497 0.16925 0.77949 0.0
H3117 H 0.10171 0.27748 0.82346 0.0
H3118 H 0.11974 0.20616 0.83136 0.0
H3119 H 0.06997 0.23344 0.79059 0.0
C3120 C 0.07089 0.20658 0.7732 0.0
C3121 C 0.08085 0.18848 0.76936 0.0
C3122 C 0.11583 0.22181 0.82965 0.0
C3123 C 0.0943 0.21391 0.79974 0.0
C3124 C 0.12366 0.23589 0.84302 0.0
C3125 C 0.11885 0.25626 0.84096 0.0
C3126 C 0.10285 0.22816 0.8144 0.0
C3127 C 0.10603 0.26198 0.82537 0.0
C3128 C 0.07759 0.21931 0.78827 0.0
C3129 C 0.09691 0.18311 0.78184 0.0
N3130 N 0.0984 0.248 0.81276 0.0
N3131 N 0.10325 0.19587 0.79643 0.0
H3132 H 0.83112 0.05697 0.79863 0.0
H3133 H 0.73844 0.13134 0.81292 0.0
H3134 H 0.82653 0.1149 0.7703 0.0
H3135 H 0.75179 0.08417 0.8549 0.0
H3136 H 0.76831 0.1222 0.79374 0.0
H3137 H 0.80045 0.06433 0.81745 0.0
C3138 C 0.82381 0.07129 0.79652 0.0
C3139 C 0.83124 0.08523 0.78267 0.0
C3140 C 0.76463 0.11376 0.80708 0.0
C3141 C 0.79606 0.0935 0.80369 0.0
C3142 C 0.74747 0.11881 0.81784 0.0
C3143 C 0.74279 0.10853 0.8355 0.0
C3144 C 0.77705 0.09822 0.81397 0.0
C3145 C 0.7551 0.09256 0.84143 0.0
C3146 C 0.80625 0.07541 0.80713 0.0
C3147 C 0.82112 0.10353 0.78048 0.0
N3148 N 0.77173 0.08791 0.83073 0.0
N3149 N 0.80398 0.10705 0.79073 0.0
H3150 H 0.914 0.78099 0.74466 0.0
H3151 H 0.85265 0.77239 0.84681 0.0
H3152 H 0.86927 0.82416 0.7625 0.0
H3153 H 0.88572 0.72333 0.82096 0.0
H3154 H 0.86086 0.79294 0.81766 0.0
H3155 H 0.90638 0.76127 0.77437 0.0
C3156 C 0.90265 0.78643 0.75489 0.0
C3157 C 0.89221 0.80426 0.75103 0.0
C3158 C 0.86629 0.77767 0.81834 0.0
C3159 C 0.88339 0.78162 0.78511 0.0
C3160 C 0.86171 0.76598 0.83501 0.0
C3161 C 0.8686 0.74616 0.83631 0.0
C3162 C 0.87803 0.76956 0.80293 0.0
C3163 C 0.88 0.73848 0.82046 0.0
C3164 C 0.89825 0.77507 0.77181 0.0
C3165 C 0.87767 0.8105 0.76486 0.0
N3166 N 0.88446 0.75024 0.80446 0.0
N3167 N 0.87369 0.79917 0.78131 0.0
H3168 H 0.1849 0.25257 0.09786 0.0
H3169 H 0.23099 0.14255 0.10747 0.0
H3170 H 0.15894 0.20614 0.13448 0.0
H3171 H 0.25167 0.18626 0.06456 0.0
H3172 H 0.20366 0.16506 0.11658 0.0
H3173 H 0.20923 0.22832 0.08512 0.0
C3174 C 0.18436 0.23731 0.10327 0.0
C3175 C 0.16988 0.23141 0.11729 0.0
C3176 C 0.21404 0.16963 0.105 0.0
C3177 C 0.19758 0.20349 0.10267 0.0
C3178 C 0.22962 0.15673 0.09972 0.0
C3179 C 0.24378 0.16254 0.08531 0.0
C3180 C 0.21266 0.18858 0.09594 0.0
C3181 C 0.24119 0.18113 0.0758 0.0
C3182 C 0.19814 0.22341 0.09587 0.0
C3183 C 0.1697 0.21132 0.12355 0.0
N3184 N 0.2261 0.19356 0.08144 0.0
N3185 N 0.18339 0.19813 0.11629 0.0
H3186 H 0.21938 0.84094 0.86544 0.0
H3187 H 0.16165 0.74975 0.91659 0.0
H3188 H 0.21127 0.83593 0.92935 0.0
H3189 H 0.15656 0.764 0.85381 0.0
H3190 H 0.18198 0.77987 0.92141 0.0
H3191 H 0.19764 0.81193 0.86072 0.0
C3192 C 0.21283 0.83384 0.87848 0.0
C3193 C 0.21716 0.8408 0.89782 0.0
C3194 C 0.17643 0.77639 0.90658 0.0
C3195 C 0.19253 0.8074 0.89255 0.0
C3196 C 0.16504 0.75908 0.90378 0.0
C3197 C 0.15749 0.75436 0.88475 0.0
C3198 C 0.18044 0.78894 0.89019 0.0
C3199 C 0.16201 0.76718 0.86874 0.0
C3200 C 0.20045 0.81727 0.87577 0.0
C3201 C 0.20823 0.83111 0.91418 0.0
N3202 N 0.17324 0.78385 0.8718 0.0
N3203 N 0.1965 0.81474 0.91118 0.0
H3204 H 0.26063 0.18692 0.90725 0.0
H3205 H 0.15118 0.23018 0.89681 0.0
H3206 H 0.21766 0.16035 0.86711 0.0
H3207 H 0.18831 0.23993 0.94885 0.0
H3208 H 0.17428 0.20397 0.88577 0.0
H3209 H 0.23392 0.20676 0.92234 0.0
C3210 C 0.24553 0.18535 0.90158 0.0
C3211 C 0.24132 0.1722 0.8858 0.0
C3212 C 0.17714 0.21163 0.89978 0.0
C3213 C 0.21062 0.19474 0.90302 0.0
C3214 C 0.16393 0.22656 0.90614 0.0
C3215 C 0.16799 0.23754 0.92362 0.0
C3216 C 0.19458 0.20786 0.91088 0.0
C3217 C 0.1847 0.23209 0.93513 0.0
C3218 C 0.23025 0.1965 0.91032 0.0
C3219 C 0.22144 0.17038 0.87927 0.0
N3220 N 0.19755 0.21789 0.92838 0.0
N3221 N 0.20681 0.18174 0.88775 0.0
H3222 H 0.78037 0.15686 0.94065 0.0
H3223 H 0.84624 0.21395 0.85894 0.0
H3224 H 0.77147 0.14832 0.87724 0.0
H3225 H 0.82661 0.2419 0.91367 0.0
H3226 H 0.82701 0.18379 0.86788 0.0
H3227 H 0.80618 0.18199 0.9332 0.0
C3228 C 0.78427 0.15987 0.92519 0.0
C3229 C 0.77384 0.15063 0.90951 0.0
C3230 C 0.82711 0.19649 0.87798 0.0
C3231 C 0.80312 0.1791 0.90097 0.0
C3232 C 0.83804 0.21358 0.87292 0.0
C3233 C 0.83771 0.23037 0.88551 0.0
C3234 C 0.81629 0.19611 0.89598 0.0
C3235 C 0.82691 0.2293 0.90347 0.0
C3236 C 0.79881 0.17429 0.92097 0.0
C3237 C 0.77919 0.15523 0.88972 0.0
N3238 N 0.81663 0.21241 0.90822 0.0
N3239 N 0.79347 0.16921 0.88599 0.0
H3240 H 0.76489 0.84592 0.84876 0.0
H3241 H 0.82278 0.79711 0.94104 0.0
H3242 H 0.73539 0.83235 0.90449 0.0
H3243 H 0.83647 0.78218 0.87973 0.0
H3244 H 0.79481 0.81797 0.92921 0.0
H3245 H 0.79536 0.82967 0.86135 0.0
C3246 C 0.76491 0.83947 0.86365 0.0
C3247 C 0.74766 0.84016 0.87556 0.0
C3248 C 0.80419 0.81035 0.9184 0.0
C3249 C 0.78236 0.82216 0.89018 0.0
C3250 C 0.82024 0.7987 0.92509 0.0
C3251 C 0.83189 0.78805 0.91128 0.0
C3252 C 0.80018 0.81158 0.89779 0.0
C3253 C 0.8278 0.79023 0.8908 0.0
C3254 C 0.78221 0.83028 0.8708 0.0
C3255 C 0.74833 0.83175 0.89478 0.0
N3256 N 0.81226 0.80177 0.88465 0.0
N3257 N 0.76548 0.82315 0.90158 0.0
H3258 H 0.85213 0.77093 0.15354 0.0
H3259 H 0.77899 0.83062 0.08121 0.0
H3260 H 0.83643 0.74799 0.09534 0.0
H3261 H 0.77156 0.8302 0.14538 0.0
H3262 H 0.80576 0.80566 0.08457 0.0
H3263 H 0.82774 0.79798 0.14922 0.0
C3264 C 0.84349 0.77168 0.13984 0.0
C3265 C 0.84609 0.75728 0.1248 0.0
C3266 C 0.79831 0.8112 0.09787 0.0
C3267 C 0.81859 0.7882 0.11959 0.0
C3268 C 0.78317 0.82552 0.09599 0.0
C3269 C 0.77292 0.83227 0.11304 0.0
C3270 C 0.80347 0.80407 0.11694 0.0
C3271 C 0.77898 0.82521 0.13186 0.0
C3272 C 0.82963 0.78702 0.13739 0.0
C3273 C 0.83459 0.75875 0.10732 0.0
N3274 N 0.79389 0.8115 0.13332 0.0
N3275 N 0.82136 0.77409 0.10509 0.0
H3276 H 0.20643 0.72631 0.04745 0.0
H3277 H 0.22243 0.82601 0.11176 0.0
H3278 H 0.16408 0.74829 0.09107 0.0
H3279 H 0.26876 0.79888 0.07584 0.0
H3280 H 0.19907 0.80041 0.10041 0.0
H3281 H 0.22726 0.75575 0.05345 0.0
C3282 C 0.20132 0.73746 0.05806 0.0
C3283 C 0.18357 0.73466 0.06897 0.0
C3284 C 0.21431 0.8001 0.0949 0.0
C3285 C 0.20748 0.76832 0.076 0.0
C3286 C 0.22766 0.81481 0.10128 0.0
C3287 C 0.24763 0.81461 0.09474 0.0
C3288 C 0.22091 0.78503 0.08182 0.0
C3289 C 0.25359 0.79946 0.08144 0.0
C3290 C 0.21331 0.75421 0.06156 0.0
C3291 C 0.17772 0.74969 0.08246 0.0
N3292 N 0.24029 0.78525 0.07544 0.0
N3293 N 0.18974 0.76578 0.08572 0.0
H3294 H 0.77101 0.1646 0.13719 0.0
H3295 H 0.80629 0.24599 0.05662 0.0
H3296 H 0.73898 0.17726 0.0825 0.0
H3297 H 0.83972 0.23161 0.11006 0.0
H3298 H 0.78282 0.21911 0.0646 0.0
H3299 H 0.79733 0.18767 0.12659 0.0
C3300 C 0.76952 0.17213 0.12292 0.0
C3301 C 0.75261 0.16902 0.11082 0.0
C3302 C 0.79541 0.22171 0.07448 0.0
C3303 C 0.78273 0.1956 0.09859 0.0
C3304 C 0.80889 0.23701 0.06987 0.0
C3305 C 0.82495 0.24124 0.08276 0.0
C3306 C 0.7979 0.21056 0.09216 0.0
C3307 C 0.82753 0.22902 0.09971 0.0
C3308 C 0.78456 0.18535 0.11688 0.0
C3309 C 0.75148 0.17941 0.09254 0.0
N3310 N 0.81404 0.2144 0.10401 0.0
N3311 N 0.76628 0.19224 0.08703 0.0
H3312 H 0.56416 0.69088 0.65353 0.0
H3313 H 0.64427 0.68174 0.74095 0.0
H3314 H 0.61817 0.72621 0.65612 0.0
H3315 H 0.60338 0.63373 0.7272 0.0
H3316 H 0.63345 0.69916 0.7106 0.0
H3317 H 0.57735 0.66966 0.68054 0.0
C3318 C 0.57889 0.69397 0.65954 0.0
C3319 C 0.58991 0.71057 0.6529 0.0
C3320 C 0.62692 0.68475 0.71413 0.0
C3321 C 0.60485 0.68673 0.68385 0.0
C3322 C 0.63298 0.67493 0.73153 0.0
C3323 C 0.6247 0.65633 0.73653 0.0
C3324 C 0.61223 0.67605 0.70182 0.0
C3325 C 0.61025 0.64798 0.72372 0.0
C3326 C 0.58636 0.68195 0.675 0.0
C3327 C 0.60892 0.71391 0.66119 0.0
N3328 N 0.60433 0.65799 0.70701 0.0
N3329 N 0.61566 0.70229 0.6764 0.0
H3330 H 0.35602 0.64937 0.70971 0.0
H3331 H 0.25702 0.59916 0.66533 0.0
H3332 H 0.31857 0.60935 0.74382 0.0
H3333 H 0.28552 0.65133 0.63995 0.0
H3334 H 0.28305 0.59791 0.69105 0.0
H3335 H 0.33368 0.64557 0.68113 0.0
C3336 C 0.34321 0.63958 0.7111 0.0
C3337 C 0.33914 0.62963 0.72915 0.0
C3338 C 0.28367 0.6095 0.67972 0.0
C3339 C 0.31337 0.62535 0.69652 0.0
C3340 C 0.2689 0.61016 0.66496 0.0
C3341 C 0.26895 0.62556 0.65063 0.0
C3342 C 0.29869 0.62419 0.67998 0.0
C3343 C 0.28477 0.63935 0.65085 0.0
C3344 C 0.33039 0.63751 0.69482 0.0
C3345 C 0.3221 0.61742 0.73023 0.0
N3346 N 0.29894 0.63841 0.66538 0.0
N3347 N 0.30979 0.61562 0.7141 0.0
H3348 H 0.44031 0.29413 0.67051 0.0
H3349 H 0.35448 0.35554 0.72645 0.0
H3350 H 0.37823 0.29084 0.65312 0.0
H3351 H 0.40743 0.3346 0.75674 0.0
H3352 H 0.36523 0.33784 0.69609 0.0
H3353 H 0.43081 0.31572 0.69874 0.0
C3354 C 0.42477 0.29836 0.67236 0.0
C3355 C 0.41 0.29075 0.65954 0.0
C3356 C 0.37447 0.33712 0.7094 0.0
C3357 C 0.39911 0.31517 0.69164 0.0
C3358 C 0.36836 0.34717 0.72664 0.0
C3359 C 0.38001 0.34628 0.74407 0.0
C3360 C 0.39257 0.32647 0.7095 0.0
C3361 C 0.3979 0.33531 0.74366 0.0
C3362 C 0.41935 0.31045 0.68856 0.0
C3363 C 0.39004 0.2964 0.66273 0.0
N3364 N 0.40372 0.32589 0.72657 0.0
N3365 N 0.38516 0.30827 0.67849 0.0
H3366 H 0.7226 0.37956 0.64984 0.0
H3367 H 0.67977 0.40319 0.75822 0.0
H3368 H 0.73321 0.43539 0.68073 0.0
H3369 H 0.65153 0.36044 0.71896 0.0
H3370 H 0.70162 0.41347 0.73053 0.0
H3371 H 0.69711 0.37118 0.67489 0.0
C3372 C 0.71926 0.39025 0.66157 0.0
C3373 C 0.73023 0.40808 0.66335 0.0
C3374 C 0.69058 0.40187 0.72797 0.0
C3375 C 0.70165 0.39835 0.69223 0.0
C3376 C 0.67832 0.3959 0.74381 0.0
C3377 C 0.66388 0.38103 0.74078 0.0
C3378 C 0.68855 0.39266 0.70913 0.0
C3379 C 0.66239 0.37212 0.72178 0.0
C3380 C 0.70485 0.38539 0.67595 0.0
C3381 C 0.72533 0.42134 0.67893 0.0
N3382 N 0.67465 0.37798 0.70668 0.0
N3383 N 0.71165 0.41606 0.69295 0.0
H3384 H 0.56218 0.29683 0.33373 0.0
H3385 H 0.64657 0.35084 0.26879 0.0
H3386 H 0.62536 0.28653 0.3421 0.0
H3387 H 0.58639 0.34298 0.24714 0.0
H3388 H 0.63829 0.33105 0.29846 0.0
H3389 H 0.56993 0.31844 0.305 0.0
C3390 C 0.57767 0.2995 0.3298 0.0
C3391 C 0.59319 0.28997 0.34028 0.0
C3392 C 0.62691 0.33349 0.28717 0.0
C3393 C 0.60207 0.31428 0.30748 0.0
C3394 C 0.63165 0.34469 0.27028 0.0
C3395 C 0.61718 0.34824 0.25555 0.0
C3396 C 0.60742 0.32606 0.28952 0.0
C3397 C 0.59799 0.34018 0.25809 0.0
C3398 C 0.58206 0.31157 0.31328 0.0
C3399 C 0.61299 0.29361 0.33439 0.0
N3400 N 0.59358 0.32953 0.2749 0.0
N3401 N 0.61686 0.30547 0.31837 0.0
H3402 H 0.70161 0.56406 0.29691 0.0
H3403 H 0.65454 0.65973 0.24336 0.0
H3404 H 0.71656 0.62459 0.3139 0.0
H3405 H 0.66306 0.6039 0.21219 0.0
H3406 H 0.67277 0.64609 0.27217 0.0
H3407 H 0.68214 0.57735 0.26859 0.0
C3408 C 0.7005 0.58012 0.29486 0.0
C3409 C 0.71065 0.59328 0.30768 0.0
C3410 C 0.67079 0.63687 0.25896 0.0
C3411 C 0.68866 0.60845 0.27556 0.0
C3412 C 0.6605 0.64467 0.24259 0.0
C3413 C 0.65766 0.63299 0.22541 0.0
C3414 C 0.67789 0.6171 0.25829 0.0
C3415 C 0.66536 0.61345 0.22508 0.0
C3416 C 0.68962 0.58766 0.27864 0.0
C3417 C 0.70899 0.61395 0.30428 0.0
N3418 N 0.67502 0.60601 0.24139 0.0
N3419 N 0.69817 0.6209 0.28858 0.0
H3420 H 0.42775 0.70654 0.34723 0.0
H3421 H 0.36401 0.67266 0.25217 0.0
H3422 H 0.36665 0.72482 0.33687 0.0
H3423 H 0.41252 0.63684 0.27509 0.0
H3424 H 0.36816 0.69571 0.28042 0.0
H3425 H 0.42501 0.68323 0.31896 0.0
C3426 C 0.41371 0.70553 0.33919 0.0
C3427 C 0.3975 0.71792 0.34424 0.0
C3428 C 0.37799 0.68286 0.27919 0.0
C3429 C 0.3945 0.69175 0.31171 0.0
C3430 C 0.37578 0.6699 0.26296 0.0
C3431 C 0.38794 0.65289 0.26139 0.0
C3432 C 0.3926 0.67887 0.29379 0.0
C3433 C 0.40279 0.64977 0.27593 0.0
C3434 C 0.41222 0.69233 0.323 0.0
C3435 C 0.37969 0.71596 0.33325 0.0
N3436 N 0.40473 0.66265 0.29157 0.0
N3437 N 0.37874 0.70332 0.31738 0.0
H3438 H 0.29324 0.42181 0.32799 0.0
H3439 H 0.34898 0.3323 0.27233 0.0
H3440 H 0.2804 0.3598 0.34076 0.0
H3441 H 0.33768 0.38884 0.24343 0.0
H3442 H 0.32856 0.34316 0.30088 0.0
H3443 H 0.31515 0.4111 0.30043 0.0
C3444 C 0.29538 0.40596 0.32525 0.0
C3445 C 0.28509 0.39164 0.33663 0.0
C3446 C 0.33044 0.35313 0.28823 0.0
C3447 C 0.30985 0.37939 0.30528 0.0
C3448 C 0.342 0.34693 0.272 0.0
C3449 C 0.34471 0.35963 0.25552 0.0
C3450 C 0.32196 0.37236 0.28815 0.0
C3451 C 0.33559 0.37854 0.25575 0.0
C3452 C 0.30764 0.39989 0.30942 0.0
C3453 C 0.28808 0.37129 0.3323 0.0
N3454 N 0.32472 0.38444 0.27193 0.0
N3455 N 0.30023 0.36576 0.31698 0.0
H3456 H 0.7031 0.55686 0.74296 0.0
H3457 H 0.71645 0.62525 0.64542 0.0
H3458 H 0.66038 0.60159 0.72416 0.0
H3459 H 0.76179 0.58451 0.66674 0.0
H3460 H 0.69472 0.61492 0.67286 0.0
H3461 H 0.72348 0.56457 0.71358 0.0
C3462 C 0.69786 0.56813 0.73255 0.0
C3463 C 0.68002 0.57867 0.73614 0.0
C3464 C 0.7094 0.6082 0.67156 0.0
C3465 C 0.70343 0.5877 0.70254 0.0
C3466 C 0.72181 0.61404 0.65583 0.0
C3467 C 0.74098 0.6057 0.65374 0.0
C3468 C 0.71614 0.59385 0.68536 0.0
C3469 C 0.74723 0.59148 0.6679 0.0
C3470 C 0.70958 0.5726 0.71582 0.0
C3471 C 0.67403 0.59312 0.72208 0.0
N3472 N 0.73483 0.58598 0.6831 0.0
N3473 N 0.68576 0.59727 0.70599 0.0
H3474 H 0.43712 0.70319 0.7222 0.0
H3475 H 0.3487 0.7249 0.64441 0.0
H3476 H 0.39259 0.65871 0.70771 0.0
H3477 H 0.37933 0.77043 0.67836 0.0
H3478 H 0.36868 0.69915 0.66173 0.0
H3479 H 0.42085 0.72643 0.69922 0.0
C3480 C 0.42417 0.6981 0.71387 0.0
C3481 C 0.41598 0.67904 0.71721 0.0
C3482 C 0.37099 0.71479 0.66532 0.0
C3483 C 0.39714 0.70576 0.69102 0.0
C3484 C 0.35962 0.72942 0.6555 0.0
C3485 C 0.36218 0.74973 0.66023 0.0
C3486 C 0.3853 0.72065 0.67958 0.0
C3487 C 0.3766 0.75491 0.67459 0.0
C3488 C 0.41476 0.7115 0.70091 0.0
C3489 C 0.39914 0.67339 0.70593 0.0
N3490 N 0.38764 0.74048 0.6837 0.0
N3491 N 0.39013 0.68676 0.69346 0.0
H3492 H 0.34346 0.40248 0.72525 0.0
H3493 H 0.23085 0.39182 0.69022 0.0
H3494 H 0.29578 0.43986 0.74774 0.0
H3495 H 0.27944 0.37346 0.65195 0.0
H3496 H 0.25488 0.4075 0.71284 0.0
H3497 H 0.32097 0.39035 0.69892 0.0
C3498 C 0.32838 0.40834 0.72452 0.0
C3499 C 0.32144 0.42203 0.73891 0.0
C3500 C 0.26033 0.40011 0.69947 0.0
C3501 C 0.29564 0.40803 0.70903 0.0
C3502 C 0.24663 0.39097 0.68669 0.0
C3503 C 0.25323 0.38119 0.66933 0.0
C3504 C 0.28085 0.39923 0.69506 0.0
C3505 C 0.27383 0.38088 0.66522 0.0
C3506 C 0.31558 0.40142 0.70947 0.0
C3507 C 0.3018 0.42926 0.73707 0.0
N3508 N 0.28698 0.38961 0.67812 0.0
N3509 N 0.28952 0.42194 0.72263 0.0
H3510 H 0.6027 0.25581 0.63922 0.0
H3511 H 0.62472 0.334 0.72661 0.0
H3512 H 0.65061 0.24935 0.68196 0.0
H3513 H 0.56636 0.3287 0.69942 0.0
H3514 H 0.63673 0.30684 0.70559 0.0
H3515 H 0.59119 0.28574 0.65709 0.0
C3516 C 0.61084 0.26079 0.65233 0.0
C3517 C 0.62767 0.2502 0.65916 0.0
C3518 C 0.62133 0.31166 0.70412 0.0
C3519 C 0.61469 0.28434 0.67949 0.0
C3520 C 0.61444 0.32723 0.71607 0.0
C3521 C 0.59438 0.33338 0.71503 0.0
C3522 C 0.60814 0.30219 0.69085 0.0
C3523 C 0.5819 0.32434 0.70077 0.0
C3524 C 0.60422 0.27777 0.66253 0.0
C3525 C 0.63751 0.25704 0.67634 0.0
N3526 N 0.58896 0.30902 0.68929 0.0
N3527 N 0.63094 0.27377 0.68587 0.0
H3528 H 0.77 0.41123 0.31892 0.0
H3529 H 0.66482 0.3875 0.27235 0.0
H3530 H 0.73707 0.35829 0.33543 0.0
H3531 H 0.68244 0.44857 0.28387 0.0
H3532 H 0.69255 0.37583 0.29292 0.0
H3533 H 0.7397 0.42474 0.303 0.0
C3534 C 0.7564 0.40243 0.31901 0.0
C3535 C 0.75595 0.38354 0.32818 0.0
C3536 C 0.69019 0.39179 0.29119 0.0
C3537 C 0.72149 0.39879 0.31023 0.0
C3538 C 0.67435 0.39848 0.27947 0.0
C3539 C 0.67126 0.41904 0.27652 0.0
C3540 C 0.70342 0.40574 0.29957 0.0
C3541 C 0.68422 0.43259 0.28596 0.0
C3542 C 0.73912 0.41021 0.31019 0.0
C3543 C 0.73792 0.37286 0.32838 0.0
N3544 N 0.70002 0.42569 0.29684 0.0
N3545 N 0.72144 0.38052 0.31929 0.0
H3546 H 0.5996 0.66416 0.25477 0.0
H3547 H 0.61459 0.77096 0.3041 0.0
H3548 H 0.56554 0.71612 0.23694 0.0
H3549 H 0.62648 0.71696 0.33739 0.0
H3550 H 0.59956 0.75089 0.27745 0.0
H3551 H 0.61203 0.68285 0.28385 0.0
C3552 C 0.59458 0.67941 0.25708 0.0
C3553 C 0.5816 0.68863 0.24335 0.0
C3554 C 0.60541 0.74341 0.29059 0.0
C3555 C 0.59598 0.71009 0.2763 0.0
C3556 C 0.61417 0.75483 0.30568 0.0
C3557 C 0.6219 0.74554 0.32285 0.0
C3558 C 0.60464 0.72249 0.2925 0.0
C3559 C 0.62064 0.72462 0.32435 0.0
C3560 C 0.60165 0.69002 0.27367 0.0
C3561 C 0.5755 0.70839 0.24713 0.0
N3562 N 0.61233 0.71372 0.30926 0.0
N3563 N 0.58295 0.71853 0.26309 0.0
H3564 H 0.26806 0.63836 0.34489 0.0
H3565 H 0.33477 0.55 0.30003 0.0
H3566 H 0.24289 0.58294 0.32353 0.0
H3567 H 0.34952 0.6122 0.2909 0.0
H3568 H 0.30426 0.56031 0.3178 0.0
H3569 H 0.30119 0.6274 0.33315 0.0
C3570 C 0.26959 0.62391 0.33767 0.0
C3571 C 0.25283 0.61162 0.33483 0.0
C3572 C 0.31443 0.57165 0.31224 0.0
C3573 C 0.29043 0.5988 0.32205 0.0
C3574 C 0.33192 0.5658 0.3024 0.0
C3575 C 0.34461 0.58031 0.29414 0.0
C3576 C 0.30991 0.5921 0.31407 0.0
C3577 C 0.34007 0.6006 0.29716 0.0
C3578 C 0.28839 0.61767 0.33107 0.0
C3579 C 0.25545 0.59296 0.32559 0.0
N3580 N 0.32302 0.60593 0.30685 0.0
N3581 N 0.27396 0.58703 0.3196 0.0
H3582 H 0.39592 0.32168 0.28173 0.0
H3583 H 0.39086 0.20747 0.3157 0.0
H3584 H 0.44031 0.27757 0.26555 0.0
H3585 H 0.35915 0.25405 0.34721 0.0
H3586 H 0.40683 0.23291 0.29485 0.0
H3587 H 0.3806 0.29728 0.30441 0.0
C3588 C 0.40257 0.30696 0.28308 0.0
C3589 C 0.41934 0.30163 0.27158 0.0
C3590 C 0.39635 0.23759 0.3063 0.0
C3591 C 0.40175 0.27362 0.29725 0.0
C3592 C 0.38705 0.22305 0.31803 0.0
C3593 C 0.37358 0.22869 0.33311 0.0
C3594 C 0.39201 0.25792 0.30952 0.0
C3595 C 0.3695 0.24915 0.33576 0.0
C3596 C 0.39381 0.29305 0.29602 0.0
C3597 C 0.42741 0.28239 0.27409 0.0
N3598 N 0.37863 0.26305 0.32402 0.0
N3599 N 0.4184 0.26902 0.28646 0.0
H3600 H 0.72088 0.66617 0.60959 0.0
H3601 H 0.63106 0.73702 0.5762 0.0
H3602 H 0.68768 0.65708 0.55489 0.0
H3603 H 0.67252 0.75208 0.62323 0.0
H3604 H 0.6515 0.70779 0.5678 0.0
H3605 H 0.70241 0.69707 0.61538 0.0
C3606 C 0.70966 0.67066 0.5988 0.0
C3607 C 0.70597 0.65914 0.5816 0.0
C3608 C 0.65633 0.71762 0.57977 0.0
C3609 C 0.6847 0.69454 0.58819 0.0
C3610 C 0.64474 0.73431 0.58447 0.0
C3611 C 0.65019 0.74684 0.60041 0.0
C3612 C 0.67333 0.71331 0.59131 0.0
C3613 C 0.66797 0.74282 0.61073 0.0
C3614 C 0.69916 0.68836 0.60209 0.0
C3615 C 0.69097 0.66548 0.56836 0.0
N3616 N 0.6788 0.72621 0.60617 0.0
N3617 N 0.68089 0.68281 0.57191 0.0
H3618 H 0.68454 0.23774 0.41101 0.0
H3619 H 0.74038 0.33992 0.3829 0.0
H3620 H 0.66025 0.28154 0.37021 0.0
H3621 H 0.76104 0.29912 0.4286 0.0
H3622 H 0.71042 0.31934 0.37869 0.0
H3623 H 0.71246 0.26034 0.41799 0.0
C3624 C 0.68509 0.2521 0.40351 0.0
C3625 C 0.67004 0.25771 0.38998 0.0
C3626 C 0.72145 0.31498 0.38975 0.0
C3627 C 0.70192 0.28375 0.39796 0.0
C3628 C 0.73856 0.32676 0.39218 0.0
C3629 C 0.75336 0.32119 0.40603 0.0
C3630 C 0.71914 0.29745 0.40116 0.0
C3631 C 0.75011 0.30397 0.41767 0.0
C3632 C 0.70096 0.26506 0.40759 0.0
C3633 C 0.67138 0.27665 0.38091 0.0
N3634 N 0.73346 0.29265 0.41486 0.0
N3635 N 0.68709 0.28893 0.38497 0.0
H3636 H 0.70755 0.65037 0.35043 0.0
H3637 H 0.6757 0.72463 0.43883 0.0
H3638 H 0.74745 0.66993 0.39726 0.0
H3639 H 0.64036 0.71556 0.38544 0.0
H3640 H 0.69925 0.69935 0.42705 0.0
H3641 H 0.68057 0.66983 0.36577 0.0
C3642 C 0.7106 0.65873 0.36398 0.0
C3643 C 0.7298 0.65865 0.37252 0.0
C3644 C 0.6862 0.7027 0.41805 0.0
C3645 C 0.69898 0.68083 0.39023 0.0
C3646 C 0.67259 0.71701 0.42485 0.0
C3647 C 0.65614 0.72252 0.41296 0.0
C3648 C 0.68331 0.69373 0.39926 0.0
C3649 C 0.65291 0.71197 0.39504 0.0
C3650 C 0.69522 0.66983 0.37272 0.0
C3651 C 0.73298 0.66985 0.39001 0.0
N3652 N 0.66653 0.69828 0.3886 0.0
N3653 N 0.71772 0.68047 0.3983 0.0
H3654 H 0.3035 0.76072 0.41864 0.0
H3655 H 0.25868 0.65328 0.39019 0.0
H3656 H 0.33147 0.7198 0.37716 0.0
H3657 H 0.23068 0.69392 0.43197 0.0
H3658 H 0.28697 0.67622 0.38749 0.0
H3659 H 0.27792 0.73549 0.42558 0.0
C3660 C 0.30429 0.74645 0.411 0.0
C3661 C 0.31965 0.74246 0.39723 0.0
C3662 C 0.27471 0.68005 0.39737 0.0
C3663 C 0.29047 0.7134 0.4052 0.0
C3664 C 0.25854 0.66691 0.39896 0.0
C3665 C 0.24212 0.67175 0.41115 0.0
C3666 C 0.27449 0.69821 0.40802 0.0
C3667 C 0.24291 0.68961 0.42225 0.0
C3668 C 0.28974 0.73199 0.41505 0.0
C3669 C 0.32008 0.72353 0.38803 0.0
N3670 N 0.25872 0.70226 0.42029 0.0
N3671 N 0.30565 0.70978 0.39209 0.0
H3672 H 0.27994 0.33028 0.37149 0.0
H3673 H 0.30141 0.23591 0.44213 0.0
H3674 H 0.23575 0.30447 0.41085 0.0
H3675 H 0.34019 0.25371 0.39357 0.0
H3676 H 0.27922 0.26386 0.43412 0.0
H3677 H 0.30397 0.30497 0.38242 0.0
C3678 C 0.27533 0.31937 0.38255 0.0
C3679 C 0.25579 0.31948 0.39028 0.0
C3680 C 0.29266 0.26171 0.42531 0.0
C3681 C 0.28323 0.2904 0.40282 0.0
C3682 C 0.30542 0.24583 0.42994 0.0
C3683 C 0.32265 0.24235 0.41842 0.0
C3684 C 0.2972 0.27432 0.40911 0.0
C3685 C 0.32703 0.25573 0.4028 0.0
C3686 C 0.28903 0.30486 0.38871 0.0
C3687 C 0.25057 0.30479 0.40436 0.0
N3688 N 0.31434 0.27106 0.39855 0.0
N3689 N 0.26422 0.29086 0.4102 0.0
H3690 H 0.34946 0.29222 0.62159 0.0
H3691 H 0.25827 0.32295 0.55067 0.0
H3692 H 0.323 0.25275 0.57783 0.0
H3693 H 0.27519 0.35605 0.60362 0.0
H3694 H 0.28678 0.30075 0.55587 0.0
H3695 H 0.32673 0.3188 0.61095 0.0
C3696 C 0.33901 0.28921 0.60959 0.0
C3697 C 0.33805 0.2702 0.60063 0.0
C3698 C 0.28439 0.31303 0.56619 0.0
C3699 C 0.31195 0.30056 0.58843 0.0
C3700 C 0.26819 0.32583 0.56318 0.0
C3701 C 0.2641 0.3412 0.57694 0.0
C3702 C 0.29666 0.31567 0.58303 0.0
C3703 C 0.27762 0.34427 0.59274 0.0
C3704 C 0.32599 0.30437 0.60358 0.0
C3705 C 0.32403 0.26708 0.58532 0.0
N3706 N 0.29316 0.33144 0.5955 0.0
N3707 N 0.31149 0.2821 0.57972 0.0
H3708 H 0.76665 0.30878 0.58852 0.0
H3709 H 0.65688 0.2648 0.60035 0.0
H3710 H 0.72092 0.33902 0.62258 0.0
H3711 H 0.6983 0.24518 0.55476 0.0
H3712 H 0.67934 0.29263 0.60823 0.0
H3713 H 0.74152 0.28536 0.57605 0.0
C3714 C 0.7513 0.31043 0.59342 0.0
C3715 C 0.74588 0.32573 0.60675 0.0
C3716 C 0.68335 0.2824 0.5963 0.0
C3717 C 0.71694 0.29903 0.59245 0.0
C3718 C 0.67051 0.26652 0.59175 0.0
C3719 C 0.67579 0.25247 0.577 0.0
C3720 C 0.7017 0.2841 0.58621 0.0
C3721 C 0.69363 0.25553 0.56633 0.0
C3722 C 0.73691 0.29718 0.58616 0.0
C3723 C 0.72569 0.32744 0.6123 0.0
N3724 N 0.70606 0.27083 0.57134 0.0
N3725 N 0.71196 0.31411 0.60528 0.0
H3726 H 0.21192 0.69746 0.57655 0.0
H3727 H 0.32333 0.73304 0.59022 0.0
H3728 H 0.25968 0.65687 0.59238 0.0
H3729 H 0.28133 0.76542 0.55324 0.0
H3730 H 0.30041 0.70448 0.59043 0.0
H3731 H 0.23702 0.72238 0.56691 0.0
C3732 C 0.22762 0.69368 0.57777 0.0
C3733 C 0.23358 0.67513 0.58562 0.0
C3734 C 0.29637 0.71773 0.582 0.0
C3735 C 0.26236 0.70355 0.5748 0.0
C3736 C 0.30945 0.73403 0.5819 0.0
C3737 C 0.30416 0.7517 0.57187 0.0
C3738 C 0.27776 0.71927 0.57231 0.0
C3739 C 0.28599 0.75214 0.56128 0.0
C3740 C 0.24194 0.70786 0.5722 0.0
C3741 C 0.2542 0.67092 0.58655 0.0
N3742 N 0.27328 0.7363 0.56206 0.0
N3743 N 0.26781 0.68514 0.58157 0.0
loop_
_geom_bond_atom_site_label_1
_geom_bond_atom_site_label_2
_geom_bond_distance
_geom_bond_site_symmetry_2
_ccdc_geom_bond_type
C0 C1 1.351 . S
C0 N3 1.368 . S
C0 H5 0.931 . S
C1 C0 1.351 . S
C1 N2 1.373 . S
C1 H29 0.930 . S
N2 C1 1.373 . S
N2 C4 1.340 . S
N3 C0 1.368 . S
N3 C4 1.321 . S
N3 Co6 2.135 . S
C4 N2 1.340 . S
C4 N3 1.321 . S
C4 H28 0.930 . S
H5 C0 0.931 . S
Co6 N3 2.135 . S
Co6 N9 2.121 . S
Co6 O14 2.055 . S
Co6 O17 2.039 . S
Co6 N20 2.140 . S
C7 O8 1.227 . S
C7 O17 1.265 . S
O8 C7 1.227 . S
N9 Co6 2.121 . S
N9 C11 1.375 . S
N9 C12 1.313 . S
C10 C11 1.338 . S
C10 N13 1.377 . S
C10 H30 0.930 . S
C11 N9 1.375 . S
C11 C10 1.338 . S
C11 H15 0.931 . S
C12 N9 1.313 . S
C12 N13 1.344 . S
C12 H16 0.930 . S
N13 C10 1.377 . S
N13 C12 1.344 . S
O14 Co6 2.055 . S
O14 C18 1.253 . S
H15 C11 0.931 . S
H16 C12 0.930 . S
O17 Co6 2.039 . S
O17 C7 1.265 . S
C18 O14 1.253 . S
C18 O19 1.227 . S
O19 C18 1.227 . S
N20 Co6 2.140 . S
N20 C23 1.346 . S
N20 C24 1.345 . S
C21 C22 1.387 . S
C21 C25 1.391 . S
C22 C21 1.387 . S
C22 C23 1.369 . S
C22 H31 0.929 . S
C23 N20 1.346 . S
C23 C22 1.369 . S
C23 H26 0.928 . S
C24 N20 1.345 . S
C24 C25 1.371 . S
C24 H27 0.931 . S
C25 C21 1.391 . S
C25 C24 1.371 . S
C25 H32 0.930 . S
H26 C23 0.928 . S
H27 C24 0.931 . S
H28 C4 0.930 . S
H29 C1 0.930 . S
H30 C10 0.930 . S
H31 C22 0.929 . S
H32 C25 0.930 . S
C33 C34 1.351 . S
C33 N36 1.368 . S
C33 H38 0.931 . S
C34 C33 1.351 . S
C34 N35 1.373 . S
C34 H62 0.930 . S
N35 C34 1.373 . S
N35 C37 1.340 . S
N36 C33 1.368 . S
N36 C37 1.321 . S
N36 Co39 2.135 . S
C37 N35 1.340 . S
C37 N36 1.321 . S
C37 H61 0.930 . S
H38 C33 0.931 . S
Co39 N36 2.135 . S
Co39 N42 2.121 . S
Co39 O47 2.055 . S
Co39 O50 2.039 . S
Co39 N53 2.140 . S
C40 O41 1.227 . S
C40 O50 1.265 . S
O41 C40 1.227 . S
N42 Co39 2.121 . S
N42 C44 1.375 . S
N42 C45 1.313 . S
C43 C44 1.338 . S
C43 N46 1.377 . S
C43 H63 0.930 . S
C44 N42 1.375 . S
C44 C43 1.338 . S
C44 H48 0.931 . S
C45 N42 1.313 . S
C45 N46 1.344 . S
C45 H49 0.930 . S
N46 C43 1.377 . S
N46 C45 1.344 . S
O47 Co39 2.055 . S
O47 C51 1.253 . S
H48 C44 0.931 . S
H49 C45 0.930 . S
O50 Co39 2.039 . S
O50 C40 1.265 . S
C51 O47 1.253 . S
C51 O52 1.227 . S
O52 C51 1.227 . S
N53 Co39 2.140 . S
N53 C56 1.346 . S
N53 C57 1.345 . S
C54 C55 1.387 . S
C54 C58 1.391 . S
C55 C54 1.387 . S
C55 C56 1.369 . S
C55 H64 0.929 . S
C56 N53 1.346 . S
C56 C55 1.369 . S
C56 H59 0.928 . S
C57 N53 1.345 . S
C57 C58 1.371 . S
C57 H60 0.931 . S
C58 C54 1.391 . S
C58 C57 1.371 . S
C58 H65 0.930 . S
H59 C56 0.928 . S
H60 C57 0.931 . S
H61 C37 0.930 . S
H62 C34 0.930 . S
H63 C43 0.930 . S
H64 C55 0.929 . S
H65 C58 0.930 . S
C66 C67 1.351 . S
C66 N69 1.368 . S
C66 H71 0.931 . S
C67 C66 1.351 . S
C67 N68 1.373 . S
C67 H95 0.930 . S
N68 C67 1.373 . S
N68 C70 1.340 . S
N69 C66 1.368 . S
N69 C70 1.321 . S
N69 Co72 2.135 . S
C70 N68 1.340 . S
C70 N69 1.321 . S
C70 H94 0.930 . S
H71 C66 0.931 . S
Co72 N69 2.135 . S
Co72 N75 2.121 . S
Co72 O80 2.055 . S
Co72 O83 2.039 . S
Co72 N86 2.140 . S
C73 O74 1.227 . S
C73 O83 1.265 . S
O74 C73 1.227 . S
N75 Co72 2.121 . S
N75 C77 1.375 . S
N75 C78 1.313 . S
C76 C77 1.338 . S
C76 N79 1.377 . S
C76 H96 0.930 . S
C77 N75 1.375 . S
C77 C76 1.338 . S
C77 H81 0.931 . S
C78 N75 1.313 . S
C78 N79 1.344 . S
C78 H82 0.930 . S
N79 C76 1.377 . S
N79 C78 1.344 . S
O80 Co72 2.055 . S
O80 C84 1.253 . S
H81 C77 0.931 . S
H82 C78 0.930 . S
O83 Co72 2.039 . S
O83 C73 1.265 . S
C84 O80 1.253 . S
C84 O85 1.227 . S
O85 C84 1.227 . S
N86 Co72 2.140 . S
N86 C89 1.346 . S
N86 C90 1.345 . S
C87 C88 1.387 . S
C87 C91 1.391 . S
C88 C87 1.387 . S
C88 C89 1.369 . S
C88 H97 0.929 . S
C89 N86 1.346 . S
C89 C88 1.369 . S
C89 H92 0.928 . S
C90 N86 1.345 . S
C90 C91 1.371 . S
C90 H93 0.931 . S
C91 C87 1.391 . S
C91 C90 1.371 . S
C91 H98 0.930 . S
H92 C89 0.928 . S
H93 C90 0.931 . S
H94 C70 0.930 . S
H95 C67 0.930 . S
H96 C76 0.930 . S
H97 C88 0.929 . S
H98 C91 0.930 . S
C99 C100 1.351 . S
C99 N102 1.368 . S
C99 H104 0.931 . S
C100 C99 1.351 . S
C100 N101 1.373 . S
C100 H128 0.930 . S
N101 C100 1.373 . S
N101 C103 1.340 . S
N102 C99 1.368 . S
N102 C103 1.321 . S
N102 Co105 2.135 . S
C103 N101 1.340 . S
C103 N102 1.321 . S
C103 H127 0.930 . S
H104 C99 0.931 . S
Co105 N102 2.135 . S
Co105 N108 2.121 . S
Co105 O113 2.055 . S
Co105 O116 2.039 . S
Co105 N119 2.140 . S
C106 O107 1.227 . S
C106 O116 1.265 . S
O107 C106 1.227 . S
N108 Co105 2.121 . S
N108 C110 1.375 . S
N108 C111 1.313 . S
C109 C110 1.338 . S
C109 N112 1.377 . S
C109 H129 0.930 . S
C110 N108 1.375 . S
C110 C109 1.338 . S
C110 H114 0.931 . S
C111 N108 1.313 . S
C111 N112 1.344 . S
C111 H115 0.930 . S
N112 C109 1.377 . S
N112 C111 1.344 . S
O113 Co105 2.055 . S
O113 C117 1.253 . S
H114 C110 0.931 . S
H115 C111 0.930 . S
O116 Co105 2.039 . S
O116 C106 1.265 . S
C117 O113 1.253 . S
C117 O118 1.227 . S
O118 C117 1.227 . S
N119 Co105 2.140 . S
N119 C122 1.346 . S
N119 C123 1.345 . S
C120 C121 1.387 . S
C120 C124 1.391 . S
C121 C120 1.387 . S
C121 C122 1.369 . S
C121 H130 0.929 . S
C122 N119 1.346 . S
C122 C121 1.369 . S
C122 H125 0.928 . S
C123 N119 1.345 . S
C123 C124 1.371 . S
C123 H126 0.931 . S
C124 C120 1.391 . S
C124 C123 1.371 . S
C124 H131 0.930 . S
H125 C122 0.928 . S
H126 C123 0.931 . S
H127 C103 0.930 . S
H128 C100 0.930 . S
H129 C109 0.930 . S
H130 C121 0.929 . S
H131 C124 0.930 . S
C132 C133 1.351 . S
C132 N135 1.368 . S
C132 H137 0.931 . S
C133 C132 1.351 . S
C133 N134 1.373 . S
C133 H161 0.930 . S
N134 C133 1.373 . S
N134 C136 1.340 . S
N135 C132 1.368 . S
N135 C136 1.321 . S
N135 Co138 2.135 . S
C136 N134 1.340 . S
C136 N135 1.321 . S
C136 H160 0.930 . S
H137 C132 0.931 . S
Co138 N135 2.135 . S
Co138 N141 2.121 . S
Co138 O146 2.055 . S
Co138 O149 2.039 . S
Co138 N152 2.140 . S
C139 O140 1.227 . S
C139 O149 1.265 . S
O140 C139 1.227 . S
N141 Co138 2.121 . S
N141 C143 1.375 . S
N141 C144 1.313 . S
C142 C143 1.338 . S
C142 N145 1.377 . S
C142 H162 0.930 . S
C143 N141 1.375 . S
C143 C142 1.338 . S
C143 H147 0.931 . S
C144 N141 1.313 . S
C144 N145 1.344 . S
C144 H148 0.930 . S
N145 C142 1.377 . S
N145 C144 1.344 . S
O146 Co138 2.055 . S
O146 C150 1.253 . S
H147 C143 0.931 . S
H148 C144 0.930 . S
O149 Co138 2.039 . S
O149 C139 1.265 . S
C150 O146 1.253 . S
C150 O151 1.227 . S
O151 C150 1.227 . S
N152 Co138 2.140 . S
N152 C155 1.346 . S
N152 C156 1.345 . S
C153 C154 1.387 . S
C153 C157 1.391 . S
C154 C153 1.387 . S
C154 C155 1.369 . S
C154 H163 0.929 . S
C155 N152 1.346 . S
C155 C154 1.369 . S
C155 H158 0.928 . S
C156 N152 1.345 . S
C156 C157 1.371 . S
C156 H159 0.931 . S
C157 C153 1.391 . S
C157 C156 1.371 . S
C157 H164 0.930 . S
H158 C155 0.928 . S
H159 C156 0.931 . S
H160 C136 0.930 . S
H161 C133 0.930 . S
H162 C142 0.930 . S
H163 C154 0.929 . S
H164 C157 0.930 . S
C165 C166 1.351 . S
C165 N168 1.368 . S
C165 H170 0.931 . S
C166 C165 1.351 . S
C166 N167 1.373 . S
C166 H194 0.930 . S
N167 C166 1.373 . S
N167 C169 1.340 . S
N168 C165 1.368 . S
N168 C169 1.321 . S
N168 Co171 2.135 . S
C169 N167 1.340 . S
C169 N168 1.321 . S
C169 H193 0.930 . S
H170 C165 0.931 . S
Co171 N168 2.135 . S
Co171 N174 2.121 . S
Co171 O179 2.055 . S
Co171 O182 2.039 . S
Co171 N185 2.140 . S
C172 O173 1.227 . S
C172 O182 1.265 . S
O173 C172 1.227 . S
N174 Co171 2.121 . S
N174 C176 1.375 . S
N174 C177 1.313 . S
C175 C176 1.338 . S
C175 N178 1.377 . S
C175 H195 0.930 . S
C176 N174 1.375 . S
C176 C175 1.338 . S
C176 H180 0.931 . S
C177 N174 1.313 . S
C177 N178 1.344 . S
C177 H181 0.930 . S
N178 C175 1.377 . S
N178 C177 1.344 . S
O179 Co171 2.055 . S
O179 C183 1.253 . S
H180 C176 0.931 . S
H181 C177 0.930 . S
O182 Co171 2.039 . S
O182 C172 1.265 . S
C183 O179 1.253 . S
C183 O184 1.227 . S
O184 C183 1.227 . S
N185 Co171 2.140 . S
N185 C188 1.346 . S
N185 C189 1.345 . S
C186 C187 1.387 . S
C186 C190 1.391 . S
C187 C186 1.387 . S
C187 C188 1.369 . S
C187 H196 0.929 . S
C188 N185 1.346 . S
C188 C187 1.369 . S
C188 H191 0.928 . S
C189 N185 1.345 . S
C189 C190 1.371 . S
C189 H192 0.931 . S
C190 C186 1.391 . S
C190 C189 1.371 . S
C190 H197 0.930 . S
H191 C188 0.928 . S
H192 C189 0.931 . S
H193 C169 0.930 . S
H194 C166 0.930 . S
H195 C175 0.930 . S
H196 C187 0.929 . S
H197 C190 0.930 . S
C198 C199 1.351 . S
C198 N201 1.368 . S
C198 H203 0.931 . S
C199 C198 1.351 . S
C199 N200 1.373 . S
C199 H227 0.930 . S
N200 C199 1.373 . S
N200 C202 1.340 . S
N201 C198 1.368 . S
N201 C202 1.321 . S
N201 Co204 2.135 . S
C202 N200 1.340 . S
C202 N201 1.321 . S
C202 H226 0.930 . S
H203 C198 0.931 . S
Co204 N201 2.135 . S
Co204 N207 2.121 . S
Co204 O212 2.055 . S
Co204 O215 2.039 . S
Co204 N218 2.140 . S
C205 O206 1.227 . S
C205 O215 1.265 . S
O206 C205 1.227 . S
N207 Co204 2.121 . S
N207 C209 1.375 . S
N207 C210 1.313 . S
C208 C209 1.338 . S
C208 N211 1.377 . S
C208 H228 0.930 . S
C209 N207 1.375 . S
C209 C208 1.338 . S
C209 H213 0.931 . S
C210 N207 1.313 . S
C210 N211 1.344 . S
C210 H214 0.930 . S
N211 C208 1.377 . S
N211 C210 1.344 . S
O212 Co204 2.055 . S
O212 C216 1.253 . S
H213 C209 0.931 . S
H214 C210 0.930 . S
O215 Co204 2.039 . S
O215 C205 1.265 . S
C216 O212 1.253 . S
C216 O217 1.227 . S
O217 C216 1.227 . S
N218 Co204 2.140 . S
N218 C221 1.346 . S
N218 C222 1.345 . S
C219 C220 1.387 . S
C219 C223 1.391 . S
C220 C219 1.387 . S
C220 C221 1.369 . S
C220 H229 0.929 . S
C221 N218 1.346 . S
C221 C220 1.369 . S
C221 H224 0.928 . S
C222 N218 1.345 . S
C222 C223 1.371 . S
C222 H225 0.931 . S
C223 C219 1.391 . S
C223 C222 1.371 . S
C223 H230 0.930 . S
H224 C221 0.928 . S
H225 C222 0.931 . S
H226 C202 0.930 . S
H227 C199 0.930 . S
H228 C208 0.930 . S
H229 C220 0.929 . S
H230 C223 0.930 . S
C231 C232 1.351 . S
C231 N234 1.368 . S
C231 H236 0.931 . S
C232 C231 1.351 . S
C232 N233 1.373 . S
C232 H260 0.930 . S
N233 C232 1.373 . S
N233 C235 1.340 . S
N234 C231 1.368 . S
N234 C235 1.321 . S
N234 Co237 2.135 . S
C235 N233 1.340 . S
C235 N234 1.321 . S
C235 H259 0.930 . S
H236 C231 0.931 . S
Co237 N234 2.135 . S
Co237 N240 2.121 . S
Co237 O245 2.055 . S
Co237 O248 2.039 . S
Co237 N251 2.140 . S
C238 O239 1.227 . S
C238 O248 1.265 . S
O239 C238 1.227 . S
N240 Co237 2.121 . S
N240 C242 1.375 . S
N240 C243 1.313 . S
C241 C242 1.338 . S
C241 N244 1.377 . S
C241 H261 0.930 . S
C242 N240 1.375 . S
C242 C241 1.338 . S
C242 H246 0.931 . S
C243 N240 1.313 . S
C243 N244 1.344 . S
C243 H247 0.930 . S
N244 C241 1.377 . S
N244 C243 1.344 . S
O245 Co237 2.055 . S
O245 C249 1.253 . S
H246 C242 0.931 . S
H247 C243 0.930 . S
O248 Co237 2.039 . S
O248 C238 1.265 . S
C249 O245 1.253 . S
C249 O250 1.227 . S
O250 C249 1.227 . S
N251 Co237 2.140 . S
N251 C254 1.346 . S
N251 C255 1.345 . S
C252 C253 1.387 . S
C252 C256 1.391 . S
C253 C252 1.387 . S
C253 C254 1.369 . S
C253 H262 0.929 . S
C254 N251 1.346 . S
C254 C253 1.369 . S
C254 H257 0.928 . S
C255 N251 1.345 . S
C255 C256 1.371 . S
C255 H258 0.931 . S
C256 C252 1.391 . S
C256 C255 1.371 . S
C256 H263 0.930 . S
H257 C254 0.928 . S
H258 C255 0.931 . S
H259 C235 0.930 . S
H260 C232 0.930 . S
H261 C241 0.930 . S
H262 C253 0.929 . S
H263 C256 0.930 . S
C264 C265 1.351 . S
C264 N267 1.368 . S
C264 H269 0.931 . S
C265 C264 1.351 . S
C265 N266 1.373 . S
C265 H293 0.930 . S
N266 C265 1.373 . S
N266 C268 1.340 . S
N267 C264 1.368 . S
N267 C268 1.321 . S
N267 Co270 2.135 . S
C268 N266 1.340 . S
C268 N267 1.321 . S
C268 H292 0.930 . S
H269 C264 0.931 . S
Co270 N267 2.135 . S
Co270 N273 2.121 . S
Co270 O278 2.055 . S
Co270 O281 2.039 . S
Co270 N284 2.140 . S
C271 O272 1.227 . S
C271 O281 1.265 . S
O272 C271 1.227 . S
N273 Co270 2.121 . S
N273 C275 1.375 . S
N273 C276 1.313 . S
C274 C275 1.338 . S
C274 N277 1.377 . S
C274 H294 0.930 . S
C275 N273 1.375 . S
C275 C274 1.338 . S
C275 H279 0.931 . S
C276 N273 1.313 . S
C276 N277 1.344 . S
C276 H280 0.930 . S
N277 C274 1.377 . S
N277 C276 1.344 . S
O278 Co270 2.055 . S
O278 C282 1.253 . S
H279 C275 0.931 . S
H280 C276 0.930 . S
O281 Co270 2.039 . S
O281 C271 1.265 . S
C282 O278 1.253 . S
C282 O283 1.227 . S
O283 C282 1.227 . S
N284 Co270 2.140 . S
N284 C287 1.346 . S
N284 C288 1.345 . S
C285 C286 1.387 . S
C285 C289 1.391 . S
C286 C285 1.387 . S
C286 C287 1.369 . S
C286 H295 0.929 . S
C287 N284 1.346 . S
C287 C286 1.369 . S
C287 H290 0.928 . S
C288 N284 1.345 . S
C288 C289 1.371 . S
C288 H291 0.931 . S
C289 C285 1.391 . S
C289 C288 1.371 . S
C289 H296 0.930 . S
H290 C287 0.928 . S
H291 C288 0.931 . S
H292 C268 0.930 . S
H293 C265 0.930 . S
H294 C274 0.930 . S
H295 C286 0.929 . S
H296 C289 0.930 . S
C297 C298 1.351 . S
C297 N300 1.368 . S
C297 H302 0.931 . S
C298 C297 1.351 . S
C298 N299 1.373 . S
C298 H326 0.930 . S
N299 C298 1.373 . S
N299 C301 1.340 . S
N300 C297 1.368 . S
N300 C301 1.321 . S
N300 Co303 2.135 . S
C301 N299 1.340 . S
C301 N300 1.321 . S
C301 H325 0.930 . S
H302 C297 0.931 . S
Co303 N300 2.135 . S
Co303 N306 2.121 . S
Co303 O311 2.055 . S
Co303 O314 2.039 . S
Co303 N317 2.140 . S
C304 O305 1.227 . S
C304 O314 1.265 . S
O305 C304 1.227 . S
N306 Co303 2.121 . S
N306 C308 1.375 . S
N306 C309 1.313 . S
C307 C308 1.338 . S
C307 N310 1.377 . S
C307 H327 0.930 . S
C308 N306 1.375 . S
C308 C307 1.338 . S
C308 H312 0.931 . S
C309 N306 1.313 . S
C309 N310 1.344 . S
C309 H313 0.930 . S
N310 C307 1.377 . S
N310 C309 1.344 . S
O311 Co303 2.055 . S
O311 C315 1.253 . S
H312 C308 0.931 . S
H313 C309 0.930 . S
O314 Co303 2.039 . S
O314 C304 1.265 . S
C315 O311 1.253 . S
C315 O316 1.227 . S
O316 C315 1.227 . S
N317 Co303 2.140 . S
N317 C320 1.346 . S
N317 C321 1.345 . S
C318 C319 1.387 . S
C318 C322 1.391 . S
C319 C318 1.387 . S
C319 C320 1.369 . S
C319 H328 0.929 . S
C320 N317 1.346 . S
C320 C319 1.369 . S
C320 H323 0.928 . S
C321 N317 1.345 . S
C321 C322 1.371 . S
C321 H324 0.931 . S
C322 C318 1.391 . S
C322 C321 1.371 . S
C322 H329 0.930 . S
H323 C320 0.928 . S
H324 C321 0.931 . S
H325 C301 0.930 . S
H326 C298 0.930 . S
H327 C307 0.930 . S
H328 C319 0.929 . S
H329 C322 0.930 . S
C330 C331 1.351 . S
C330 N333 1.368 . S
C330 H335 0.931 . S
C331 C330 1.351 . S
C331 N332 1.373 . S
C331 H359 0.930 . S
N332 C331 1.373 . S
N332 C334 1.340 . S
N333 C330 1.368 . S
N333 C334 1.321 . S
N333 Co336 2.135 . S
C334 N332 1.340 . S
C334 N333 1.321 . S
C334 H358 0.930 . S
H335 C330 0.931 . S
Co336 N333 2.135 . S
Co336 N339 2.121 . S
Co336 O344 2.055 . S
Co336 O347 2.039 . S
Co336 N350 2.140 . S
C337 O338 1.227 . S
C337 O347 1.265 . S
O338 C337 1.227 . S
N339 Co336 2.121 . S
N339 C341 1.375 . S
N339 C342 1.313 . S
C340 C341 1.338 . S
C340 N343 1.377 . S
C340 H360 0.930 . S
C341 N339 1.375 . S
C341 C340 1.338 . S
C341 H345 0.931 . S
C342 N339 1.313 . S
C342 N343 1.344 . S
C342 H346 0.930 . S
N343 C340 1.377 . S
N343 C342 1.344 . S
O344 Co336 2.055 . S
O344 C348 1.253 . S
H345 C341 0.931 . S
H346 C342 0.930 . S
O347 Co336 2.039 . S
O347 C337 1.265 . S
C348 O344 1.253 . S
C348 O349 1.227 . S
O349 C348 1.227 . S
N350 Co336 2.140 . S
N350 C353 1.346 . S
N350 C354 1.345 . S
C351 C352 1.387 . S
C351 C355 1.391 . S
C352 C351 1.387 . S
C352 C353 1.369 . S
C352 H361 0.929 . S
C353 N350 1.346 . S
C353 C352 1.369 . S
C353 H356 0.928 . S
C354 N350 1.345 . S
C354 C355 1.371 . S
C354 H357 0.931 . S
C355 C351 1.391 . S
C355 C354 1.371 . S
C355 H362 0.930 . S
H356 C353 0.928 . S
H357 C354 0.931 . S
H358 C334 0.930 . S
H359 C331 0.930 . S
H360 C340 0.930 . S
H361 C352 0.929 . S
H362 C355 0.930 . S
C363 C364 1.351 . S
C363 N366 1.368 . S
C363 H368 0.931 . S
C364 C363 1.351 . S
C364 N365 1.373 . S
C364 H392 0.930 . S
N365 C364 1.373 . S
N365 C367 1.340 . S
N366 C363 1.368 . S
N366 C367 1.321 . S
N366 Co369 2.135 . S
C367 N365 1.340 . S
C367 N366 1.321 . S
C367 H391 0.930 . S
H368 C363 0.931 . S
Co369 N366 2.135 . S
Co369 N372 2.121 . S
Co369 O377 2.055 . S
Co369 O380 2.039 . S
Co369 N383 2.140 . S
C370 O371 1.227 . S
C370 O380 1.265 . S
O371 C370 1.227 . S
N372 Co369 2.121 . S
N372 C374 1.375 . S
N372 C375 1.313 . S
C373 C374 1.338 . S
C373 N376 1.377 . S
C373 H393 0.930 . S
C374 N372 1.375 . S
C374 C373 1.338 . S
C374 H378 0.931 . S
C375 N372 1.313 . S
C375 N376 1.344 . S
C375 H379 0.930 . S
N376 C373 1.377 . S
N376 C375 1.344 . S
O377 Co369 2.055 . S
O377 C381 1.253 . S
H378 C374 0.931 . S
H379 C375 0.930 . S
O380 Co369 2.039 . S
O380 C370 1.265 . S
C381 O377 1.253 . S
C381 O382 1.227 . S
O382 C381 1.227 . S
N383 Co369 2.140 . S
N383 C386 1.346 . S
N383 C387 1.345 . S
C384 C385 1.387 . S
C384 C388 1.391 . S
C385 C384 1.387 . S
C385 C386 1.369 . S
C385 H394 0.929 . S
C386 N383 1.346 . S
C386 C385 1.369 . S
C386 H389 0.928 . S
C387 N383 1.345 . S
C387 C388 1.371 . S
C387 H390 0.931 . S
C388 C384 1.391 . S
C388 C387 1.371 . S
C388 H395 0.930 . S
H389 C386 0.928 . S
H390 C387 0.931 . S
H391 C367 0.930 . S
H392 C364 0.930 . S
H393 C373 0.930 . S
H394 C385 0.929 . S
H395 C388 0.930 . S
C396 C397 1.351 . S
C396 N399 1.368 . S
C396 H401 0.931 . S
C397 C396 1.351 . S
C397 N398 1.373 . S
C397 H425 0.930 . S
N398 C397 1.373 . S
N398 C400 1.340 . S
N399 C396 1.368 . S
N399 C400 1.321 . S
N399 Co402 2.135 . S
C400 N398 1.340 . S
C400 N399 1.321 . S
C400 H424 0.930 . S
H401 C396 0.931 . S
Co402 N399 2.135 . S
Co402 N405 2.121 . S
Co402 O410 2.055 . S
Co402 O413 2.039 . S
Co402 N416 2.140 . S
C403 O404 1.227 . S
C403 O413 1.265 . S
O404 C403 1.227 . S
N405 Co402 2.121 . S
N405 C407 1.375 . S
N405 C408 1.313 . S
C406 C407 1.338 . S
C406 N409 1.377 . S
C406 H426 0.930 . S
C407 N405 1.375 . S
C407 C406 1.338 . S
C407 H411 0.931 . S
C408 N405 1.313 . S
C408 N409 1.344 . S
C408 H412 0.930 . S
N409 C406 1.377 . S
N409 C408 1.344 . S
O410 Co402 2.055 . S
O410 C414 1.253 . S
H411 C407 0.931 . S
H412 C408 0.930 . S
O413 Co402 2.039 . S
O413 C403 1.265 . S
C414 O410 1.253 . S
C414 O415 1.227 . S
O415 C414 1.227 . S
N416 Co402 2.140 . S
N416 C419 1.346 . S
N416 C420 1.345 . S
C417 C418 1.387 . S
C417 C421 1.391 . S
C418 C417 1.387 . S
C418 C419 1.369 . S
C418 H427 0.929 . S
C419 N416 1.346 . S
C419 C418 1.369 . S
C419 H422 0.928 . S
C420 N416 1.345 . S
C420 C421 1.371 . S
C420 H423 0.931 . S
C421 C417 1.391 . S
C421 C420 1.371 . S
C421 H428 0.930 . S
H422 C419 0.928 . S
H423 C420 0.931 . S
H424 C400 0.930 . S
H425 C397 0.930 . S
H426 C406 0.930 . S
H427 C418 0.929 . S
H428 C421 0.930 . S
C429 C430 1.351 . S
C429 N432 1.368 . S
C429 H434 0.931 . S
C430 C429 1.351 . S
C430 N431 1.373 . S
C430 H458 0.930 . S
N431 C430 1.373 . S
N431 C433 1.340 . S
N432 C429 1.368 . S
N432 C433 1.321 . S
N432 Co435 2.135 . S
C433 N431 1.340 . S
C433 N432 1.321 . S
C433 H457 0.930 . S
H434 C429 0.931 . S
Co435 N432 2.135 . S
Co435 N438 2.121 . S
Co435 O443 2.055 . S
Co435 O446 2.039 . S
Co435 N449 2.140 . S
C436 O437 1.227 . S
C436 O446 1.265 . S
O437 C436 1.227 . S
N438 Co435 2.121 . S
N438 C440 1.375 . S
N438 C441 1.313 . S
C439 C440 1.338 . S
C439 N442 1.377 . S
C439 H459 0.930 . S
C440 N438 1.375 . S
C440 C439 1.338 . S
C440 H444 0.931 . S
C441 N438 1.313 . S
C441 N442 1.344 . S
C441 H445 0.930 . S
N442 C439 1.377 . S
N442 C441 1.344 . S
O443 Co435 2.055 . S
O443 C447 1.253 . S
H444 C440 0.931 . S
H445 C441 0.930 . S
O446 Co435 2.039 . S
O446 C436 1.265 . S
C447 O443 1.253 . S
C447 O448 1.227 . S
O448 C447 1.227 . S
N449 Co435 2.140 . S
N449 C452 1.346 . S
N449 C453 1.345 . S
C450 C451 1.387 . S
C450 C454 1.391 . S
C451 C450 1.387 . S
C451 C452 1.369 . S
C451 H460 0.929 . S
C452 N449 1.346 . S
C452 C451 1.369 . S
C452 H455 0.928 . S
C453 N449 1.345 . S
C453 C454 1.371 . S
C453 H456 0.931 . S
C454 C450 1.391 . S
C454 C453 1.371 . S
C454 H461 0.930 . S
H455 C452 0.928 . S
H456 C453 0.931 . S
H457 C433 0.930 . S
H458 C430 0.930 . S
H459 C439 0.930 . S
H460 C451 0.929 . S
H461 C454 0.930 . S
C462 C463 1.351 . S
C462 N465 1.368 . S
C462 H467 0.931 . S
C463 C462 1.351 . S
C463 N464 1.373 . S
C463 H491 0.930 . S
N464 C463 1.373 . S
N464 C466 1.340 . S
N465 C462 1.368 . S
N465 C466 1.321 . S
N465 Co468 2.135 . S
C466 N464 1.340 . S
C466 N465 1.321 . S
C466 H490 0.930 . S
H467 C462 0.931 . S
Co468 N465 2.135 . S
Co468 N471 2.121 . S
Co468 O476 2.055 . S
Co468 O479 2.039 . S
Co468 N482 2.140 . S
C469 O470 1.227 . S
C469 O479 1.265 . S
O470 C469 1.227 . S
N471 Co468 2.121 . S
N471 C473 1.375 . S
N471 C474 1.313 . S
C472 C473 1.338 . S
C472 N475 1.377 . S
C472 H492 0.930 . S
C473 N471 1.375 . S
C473 C472 1.338 . S
C473 H477 0.931 . S
C474 N471 1.313 . S
C474 N475 1.344 . S
C474 H478 0.930 . S
N475 C472 1.377 . S
N475 C474 1.344 . S
O476 Co468 2.055 . S
O476 C480 1.253 . S
H477 C473 0.931 . S
H478 C474 0.930 . S
O479 Co468 2.039 . S
O479 C469 1.265 . S
C480 O476 1.253 . S
C480 O481 1.227 . S
O481 C480 1.227 . S
N482 Co468 2.140 . S
N482 C485 1.346 . S
N482 C486 1.345 . S
C483 C484 1.387 . S
C483 C487 1.391 . S
C484 C483 1.387 . S
C484 C485 1.369 . S
C484 H493 0.929 . S
C485 N482 1.346 . S
C485 C484 1.369 . S
C485 H488 0.928 . S
C486 N482 1.345 . S
C486 C487 1.371 . S
C486 H489 0.931 . S
C487 C483 1.391 . S
C487 C486 1.371 . S
C487 H494 0.930 . S
H488 C485 0.928 . S
H489 C486 0.931 . S
H490 C466 0.930 . S
H491 C463 0.930 . S
H492 C472 0.930 . S
H493 C484 0.929 . S
H494 C487 0.930 . S
C495 C496 1.351 . S
C495 N498 1.368 . S
C495 H500 0.931 . S
C496 C495 1.351 . S
C496 N497 1.373 . S
C496 H524 0.930 . S
N497 C496 1.373 . S
N497 C499 1.340 . S
N498 C495 1.368 . S
N498 C499 1.321 . S
N498 Co501 2.135 . S
C499 N497 1.340 . S
C499 N498 1.321 . S
C499 H523 0.930 . S
H500 C495 0.931 . S
Co501 N498 2.135 . S
Co501 N504 2.121 . S
Co501 O509 2.055 . S
Co501 O512 2.039 . S
Co501 N515 2.140 . S
C502 O503 1.227 . S
C502 O512 1.265 . S
O503 C502 1.227 . S
N504 Co501 2.121 . S
N504 C506 1.375 . S
N504 C507 1.313 . S
C505 C506 1.338 . S
C505 N508 1.377 . S
C505 H525 0.930 . S
C506 N504 1.375 . S
C506 C505 1.338 . S
C506 H510 0.931 . S
C507 N504 1.313 . S
C507 N508 1.344 . S
C507 H511 0.930 . S
N508 C505 1.377 . S
N508 C507 1.344 . S
O509 Co501 2.055 . S
O509 C513 1.253 . S
H510 C506 0.931 . S
H511 C507 0.930 . S
O512 Co501 2.039 . S
O512 C502 1.265 . S
C513 O509 1.253 . S
C513 O514 1.227 . S
O514 C513 1.227 . S
N515 Co501 2.140 . S
N515 C518 1.346 . S
N515 C519 1.345 . S
C516 C517 1.387 . S
C516 C520 1.391 . S
C517 C516 1.387 . S
C517 C518 1.369 . S
C517 H526 0.929 . S
C518 N515 1.346 . S
C518 C517 1.369 . S
C518 H521 0.928 . S
C519 N515 1.345 . S
C519 C520 1.371 . S
C519 H522 0.931 . S
C520 C516 1.391 . S
C520 C519 1.371 . S
C520 H527 0.930 . S
H521 C518 0.928 . S
H522 C519 0.931 . S
H523 C499 0.930 . S
H524 C496 0.930 . S
H525 C505 0.930 . S
H526 C517 0.929 . S
H527 C520 0.930 . S
C528 C529 1.351 . S
C528 N531 1.368 . S
C528 H533 0.931 . S
C529 C528 1.351 . S
C529 N530 1.373 . S
C529 H557 0.930 . S
N530 C529 1.373 . S
N530 C532 1.340 . S
N531 C528 1.368 . S
N531 C532 1.321 . S
N531 Co534 2.135 . S
C532 N530 1.340 . S
C532 N531 1.321 . S
C532 H556 0.930 . S
H533 C528 0.931 . S
Co534 N531 2.135 . S
Co534 N537 2.121 . S
Co534 O542 2.055 . S
Co534 O545 2.039 . S
Co534 N548 2.140 . S
C535 O536 1.227 . S
C535 O545 1.265 . S
O536 C535 1.227 . S
N537 Co534 2.121 . S
N537 C539 1.375 . S
N537 C540 1.313 . S
C538 C539 1.338 . S
C538 N541 1.377 . S
C538 H558 0.930 . S
C539 N537 1.375 . S
C539 C538 1.338 . S
C539 H543 0.931 . S
C540 N537 1.313 . S
C540 N541 1.344 . S
C540 H544 0.930 . S
N541 C538 1.377 . S
N541 C540 1.344 . S
O542 Co534 2.055 . S
O542 C546 1.253 . S
H543 C539 0.931 . S
H544 C540 0.930 . S
O545 Co534 2.039 . S
O545 C535 1.265 . S
C546 O542 1.253 . S
C546 O547 1.227 . S
O547 C546 1.227 . S
N548 Co534 2.140 . S
N548 C551 1.346 . S
N548 C552 1.345 . S
C549 C550 1.387 . S
C549 C553 1.391 . S
C550 C549 1.387 . S
C550 C551 1.369 . S
C550 H559 0.929 . S
C551 N548 1.346 . S
C551 C550 1.369 . S
C551 H554 0.928 . S
C552 N548 1.345 . S
C552 C553 1.371 . S
C552 H555 0.931 . S
C553 C549 1.391 . S
C553 C552 1.371 . S
C553 H560 0.930 . S
H554 C551 0.928 . S
H555 C552 0.931 . S
H556 C532 0.930 . S
H557 C529 0.930 . S
H558 C538 0.930 . S
H559 C550 0.929 . S
H560 C553 0.930 . S
C561 C562 1.351 . S
C561 N564 1.368 . S
C561 H566 0.931 . S
C562 C561 1.351 . S
C562 N563 1.373 . S
C562 H590 0.930 . S
N563 C562 1.373 . S
N563 C565 1.340 . S
N564 C561 1.368 . S
N564 C565 1.321 . S
N564 Co567 2.135 . S
C565 N563 1.340 . S
C565 N564 1.321 . S
C565 H589 0.930 . S
H566 C561 0.931 . S
Co567 N564 2.135 . S
Co567 N570 2.121 . S
Co567 O575 2.055 . S
Co567 O578 2.039 . S
Co567 N581 2.140 . S
C568 O569 1.227 . S
C568 O578 1.265 . S
O569 C568 1.227 . S
N570 Co567 2.121 . S
N570 C572 1.375 . S
N570 C573 1.313 . S
C571 C572 1.338 . S
C571 N574 1.377 . S
C571 H591 0.930 . S
C572 N570 1.375 . S
C572 C571 1.338 . S
C572 H576 0.931 . S
C573 N570 1.313 . S
C573 N574 1.344 . S
C573 H577 0.930 . S
N574 C571 1.377 . S
N574 C573 1.344 . S
O575 Co567 2.055 . S
O575 C579 1.253 . S
H576 C572 0.931 . S
H577 C573 0.930 . S
O578 Co567 2.039 . S
O578 C568 1.265 . S
C579 O575 1.253 . S
C579 O580 1.227 . S
O580 C579 1.227 . S
N581 Co567 2.140 . S
N581 C584 1.346 . S
N581 C585 1.345 . S
C582 C583 1.387 . S
C582 C586 1.391 . S
C583 C582 1.387 . S
C583 C584 1.369 . S
C583 H592 0.929 . S
C584 N581 1.346 . S
C584 C583 1.369 . S
C584 H587 0.928 . S
C585 N581 1.345 . S
C585 C586 1.371 . S
C585 H588 0.931 . S
C586 C582 1.391 . S
C586 C585 1.371 . S
C586 H593 0.930 . S
H587 C584 0.928 . S
H588 C585 0.931 . S
H589 C565 0.930 . S
H590 C562 0.930 . S
H591 C571 0.930 . S
H592 C583 0.929 . S
H593 C586 0.930 . S
C594 C595 1.351 . S
C594 N597 1.368 . S
C594 H599 0.931 . S
C595 C594 1.351 . S
C595 N596 1.373 . S
C595 H623 0.930 . S
N596 C595 1.373 . S
N596 C598 1.340 . S
N597 C594 1.368 . S
N597 C598 1.321 . S
N597 Co600 2.135 . S
C598 N596 1.340 . S
C598 N597 1.321 . S
C598 H622 0.930 . S
H599 C594 0.931 . S
Co600 N597 2.135 . S
Co600 N603 2.121 . S
Co600 O608 2.055 . S
Co600 O611 2.039 . S
Co600 N614 2.140 . S
C601 O602 1.227 . S
C601 O611 1.265 . S
O602 C601 1.227 . S
N603 Co600 2.121 . S
N603 C605 1.375 . S
N603 C606 1.313 . S
C604 C605 1.338 . S
C604 N607 1.377 . S
C604 H624 0.930 . S
C605 N603 1.375 . S
C605 C604 1.338 . S
C605 H609 0.931 . S
C606 N603 1.313 . S
C606 N607 1.344 . S
C606 H610 0.930 . S
N607 C604 1.377 . S
N607 C606 1.344 . S
O608 Co600 2.055 . S
O608 C612 1.253 . S
H609 C605 0.931 . S
H610 C606 0.930 . S
O611 Co600 2.039 . S
O611 C601 1.265 . S
C612 O608 1.253 . S
C612 O613 1.227 . S
O613 C612 1.227 . S
N614 Co600 2.140 . S
N614 C617 1.346 . S
N614 C618 1.345 . S
C615 C616 1.387 . S
C615 C619 1.391 . S
C616 C615 1.387 . S
C616 C617 1.369 . S
C616 H625 0.929 . S
C617 N614 1.346 . S
C617 C616 1.369 . S
C617 H620 0.928 . S
C618 N614 1.345 . S
C618 C619 1.371 . S
C618 H621 0.931 . S
C619 C615 1.391 . S
C619 C618 1.371 . S
C619 H626 0.930 . S
H620 C617 0.928 . S
H621 C618 0.931 . S
H622 C598 0.930 . S
H623 C595 0.930 . S
H624 C604 0.930 . S
H625 C616 0.929 . S
H626 C619 0.930 . S
C627 C628 1.351 . S
C627 N630 1.368 . S
C627 H632 0.931 . S
C628 C627 1.351 . S
C628 N629 1.373 . S
C628 H656 0.930 . S
N629 C628 1.373 . S
N629 C631 1.340 . S
N630 C627 1.368 . S
N630 C631 1.321 . S
N630 Co633 2.135 . S
C631 N629 1.340 . S
C631 N630 1.321 . S
C631 H655 0.930 . S
H632 C627 0.931 . S
Co633 N630 2.135 . S
Co633 N636 2.121 . S
Co633 O641 2.055 . S
Co633 O644 2.039 . S
Co633 N647 2.140 . S
C634 O635 1.227 . S
C634 O644 1.265 . S
O635 C634 1.227 . S
N636 Co633 2.121 . S
N636 C638 1.375 . S
N636 C639 1.313 . S
C637 C638 1.338 . S
C637 N640 1.377 . S
C637 H657 0.930 . S
C638 N636 1.375 . S
C638 C637 1.338 . S
C638 H642 0.931 . S
C639 N636 1.313 . S
C639 N640 1.344 . S
C639 H643 0.930 . S
N640 C637 1.377 . S
N640 C639 1.344 . S
O641 Co633 2.055 . S
O641 C645 1.253 . S
H642 C638 0.931 . S
H643 C639 0.930 . S
O644 Co633 2.039 . S
O644 C634 1.265 . S
C645 O641 1.253 . S
C645 O646 1.227 . S
O646 C645 1.227 . S
N647 Co633 2.140 . S
N647 C650 1.346 . S
N647 C651 1.345 . S
C648 C649 1.387 . S
C648 C652 1.391 . S
C649 C648 1.387 . S
C649 C650 1.369 . S
C649 H658 0.929 . S
C650 N647 1.346 . S
C650 C649 1.369 . S
C650 H653 0.928 . S
C651 N647 1.345 . S
C651 C652 1.371 . S
C651 H654 0.931 . S
C652 C648 1.391 . S
C652 C651 1.371 . S
C652 H659 0.930 . S
H653 C650 0.928 . S
H654 C651 0.931 . S
H655 C631 0.930 . S
H656 C628 0.930 . S
H657 C637 0.930 . S
H658 C649 0.929 . S
H659 C652 0.930 . S
C660 C661 1.351 . S
C660 N663 1.368 . S
C660 H665 0.931 . S
C661 C660 1.351 . S
C661 N662 1.373 . S
C661 H689 0.930 . S
N662 C661 1.373 . S
N662 C664 1.340 . S
N663 C660 1.368 . S
N663 C664 1.321 . S
N663 Co666 2.135 . S
C664 N662 1.340 . S
C664 N663 1.321 . S
C664 H688 0.930 . S
H665 C660 0.931 . S
Co666 N663 2.135 . S
Co666 N669 2.121 . S
Co666 O674 2.055 . S
Co666 O677 2.039 . S
Co666 N680 2.140 . S
C667 O668 1.227 . S
C667 O677 1.265 . S
O668 C667 1.227 . S
N669 Co666 2.121 . S
N669 C671 1.375 . S
N669 C672 1.313 . S
C670 C671 1.338 . S
C670 N673 1.377 . S
C670 H690 0.930 . S
C671 N669 1.375 . S
C671 C670 1.338 . S
C671 H675 0.931 . S
C672 N669 1.313 . S
C672 N673 1.344 . S
C672 H676 0.930 . S
N673 C670 1.377 . S
N673 C672 1.344 . S
O674 Co666 2.055 . S
O674 C678 1.253 . S
H675 C671 0.931 . S
H676 C672 0.930 . S
O677 Co666 2.039 . S
O677 C667 1.265 . S
C678 O674 1.253 . S
C678 O679 1.227 . S
O679 C678 1.227 . S
N680 Co666 2.140 . S
N680 C683 1.346 . S
N680 C684 1.345 . S
C681 C682 1.387 . S
C681 C685 1.391 . S
C682 C681 1.387 . S
C682 C683 1.369 . S
C682 H691 0.929 . S
C683 N680 1.346 . S
C683 C682 1.369 . S
C683 H686 0.928 . S
C684 N680 1.345 . S
C684 C685 1.371 . S
C684 H687 0.931 . S
C685 C681 1.391 . S
C685 C684 1.371 . S
C685 H692 0.930 . S
H686 C683 0.928 . S
H687 C684 0.931 . S
H688 C664 0.930 . S
H689 C661 0.930 . S
H690 C670 0.930 . S
H691 C682 0.929 . S
H692 C685 0.930 . S
C693 C694 1.351 . S
C693 N696 1.368 . S
C693 H698 0.931 . S
C694 C693 1.351 . S
C694 N695 1.373 . S
C694 H722 0.930 . S
N695 C694 1.373 . S
N695 C697 1.340 . S
N696 C693 1.368 . S
N696 C697 1.321 . S
N696 Co699 2.135 . S
C697 N695 1.340 . S
C697 N696 1.321 . S
C697 H721 0.930 . S
H698 C693 0.931 . S
Co699 N696 2.135 . S
Co699 N702 2.121 . S
Co699 O707 2.055 . S
Co699 O710 2.039 . S
Co699 N713 2.140 . S
C700 O701 1.227 . S
C700 O710 1.265 . S
O701 C700 1.227 . S
N702 Co699 2.121 . S
N702 C704 1.375 . S
N702 C705 1.313 . S
C703 C704 1.338 . S
C703 N706 1.377 . S
C703 H723 0.930 . S
C704 N702 1.375 . S
C704 C703 1.338 . S
C704 H708 0.931 . S
C705 N702 1.313 . S
C705 N706 1.344 . S
C705 H709 0.930 . S
N706 C703 1.377 . S
N706 C705 1.344 . S
O707 Co699 2.055 . S
O707 C711 1.253 . S
H708 C704 0.931 . S
H709 C705 0.930 . S
O710 Co699 2.039 . S
O710 C700 1.265 . S
C711 O707 1.253 . S
C711 O712 1.227 . S
O712 C711 1.227 . S
N713 Co699 2.140 . S
N713 C716 1.346 . S
N713 C717 1.345 . S
C714 C715 1.387 . S
C714 C718 1.391 . S
C715 C714 1.387 . S
C715 C716 1.369 . S
C715 H724 0.929 . S
C716 N713 1.346 . S
C716 C715 1.369 . S
C716 H719 0.928 . S
C717 N713 1.345 . S
C717 C718 1.371 . S
C717 H720 0.931 . S
C718 C714 1.391 . S
C718 C717 1.371 . S
C718 H725 0.930 . S
H719 C716 0.928 . S
H720 C717 0.931 . S
H721 C697 0.930 . S
H722 C694 0.930 . S
H723 C703 0.930 . S
H724 C715 0.929 . S
H725 C718 0.930 . S
C726 C727 1.351 . S
C726 N729 1.368 . S
C726 H731 0.931 . S
C727 C726 1.351 . S
C727 N728 1.373 . S
C727 H755 0.930 . S
N728 C727 1.373 . S
N728 C730 1.340 . S
N729 C726 1.368 . S
N729 C730 1.321 . S
N729 Co732 2.135 . S
C730 N728 1.340 . S
C730 N729 1.321 . S
C730 H754 0.930 . S
H731 C726 0.931 . S
Co732 N729 2.135 . S
Co732 N735 2.121 . S
Co732 O740 2.055 . S
Co732 O743 2.039 . S
Co732 N746 2.140 . S
C733 O734 1.227 . S
C733 O743 1.265 . S
O734 C733 1.227 . S
N735 Co732 2.121 . S
N735 C737 1.375 . S
N735 C738 1.313 . S
C736 C737 1.338 . S
C736 N739 1.377 . S
C736 H756 0.930 . S
C737 N735 1.375 . S
C737 C736 1.338 . S
C737 H741 0.931 . S
C738 N735 1.313 . S
C738 N739 1.344 . S
C738 H742 0.930 . S
N739 C736 1.377 . S
N739 C738 1.344 . S
O740 Co732 2.055 . S
O740 C744 1.253 . S
H741 C737 0.931 . S
H742 C738 0.930 . S
O743 Co732 2.039 . S
O743 C733 1.265 . S
C744 O740 1.253 . S
C744 O745 1.227 . S
O745 C744 1.227 . S
N746 Co732 2.140 . S
N746 C749 1.346 . S
N746 C750 1.345 . S
C747 C748 1.387 . S
C747 C751 1.391 . S
C748 C747 1.387 . S
C748 C749 1.369 . S
C748 H757 0.929 . S
C749 N746 1.346 . S
C749 C748 1.369 . S
C749 H752 0.928 . S
C750 N746 1.345 . S
C750 C751 1.371 . S
C750 H753 0.931 . S
C751 C747 1.391 . S
C751 C750 1.371 . S
C751 H758 0.930 . S
H752 C749 0.928 . S
H753 C750 0.931 . S
H754 C730 0.930 . S
H755 C727 0.930 . S
H756 C736 0.930 . S
H757 C748 0.929 . S
H758 C751 0.930 . S
C759 C760 1.351 . S
C759 N762 1.368 . S
C759 H764 0.931 . S
C760 C759 1.351 . S
C760 N761 1.373 . S
C760 H788 0.930 . S
N761 C760 1.373 . S
N761 C763 1.340 . S
N762 C759 1.368 . S
N762 C763 1.321 . S
N762 Co765 2.135 . S
C763 N761 1.340 . S
C763 N762 1.321 . S
C763 H787 0.930 . S
H764 C759 0.931 . S
Co765 N762 2.135 . S
Co765 N768 2.121 . S
Co765 O773 2.055 . S
Co765 O776 2.039 . S
Co765 N779 2.140 . S
C766 O767 1.227 . S
C766 O776 1.265 . S
O767 C766 1.227 . S
N768 Co765 2.121 . S
N768 C770 1.375 . S
N768 C771 1.313 . S
C769 C770 1.338 . S
C769 N772 1.377 . S
C769 H789 0.930 . S
C770 N768 1.375 . S
C770 C769 1.338 . S
C770 H774 0.931 . S
C771 N768 1.313 . S
C771 N772 1.344 . S
C771 H775 0.930 . S
N772 C769 1.377 . S
N772 C771 1.344 . S
O773 Co765 2.055 . S
O773 C777 1.253 . S
H774 C770 0.931 . S
H775 C771 0.930 . S
O776 Co765 2.039 . S
O776 C766 1.265 . S
C777 O773 1.253 . S
C777 O778 1.227 . S
O778 C777 1.227 . S
N779 Co765 2.140 . S
N779 C782 1.346 . S
N779 C783 1.345 . S
C780 C781 1.387 . S
C780 C784 1.391 . S
C781 C780 1.387 . S
C781 C782 1.369 . S
C781 H790 0.929 . S
C782 N779 1.346 . S
C782 C781 1.369 . S
C782 H785 0.928 . S
C783 N779 1.345 . S
C783 C784 1.371 . S
C783 H786 0.931 . S
C784 C780 1.391 . S
C784 C783 1.371 . S
C784 H791 0.930 . S
H785 C782 0.928 . S
H786 C783 0.931 . S
H787 C763 0.930 . S
H788 C760 0.930 . S
H789 C769 0.930 . S
H790 C781 0.929 . S
H791 C784 0.930 . S
C792 C793 1.351 . S
C792 N795 1.368 . S
C792 H797 0.931 . S
C793 C792 1.351 . S
C793 N794 1.373 . S
C793 H821 0.930 . S
N794 C793 1.373 . S
N794 C796 1.340 . S
N795 C792 1.368 . S
N795 C796 1.321 . S
N795 Co798 2.135 . S
C796 N794 1.340 . S
C796 N795 1.321 . S
C796 H820 0.930 . S
H797 C792 0.931 . S
Co798 N795 2.135 . S
Co798 N801 2.121 . S
Co798 O806 2.055 . S
Co798 O809 2.039 . S
Co798 N812 2.140 . S
C799 O800 1.227 . S
C799 O809 1.265 . S
O800 C799 1.227 . S
N801 Co798 2.121 . S
N801 C803 1.375 . S
N801 C804 1.313 . S
C802 C803 1.338 . S
C802 N805 1.377 . S
C802 H822 0.930 . S
C803 N801 1.375 . S
C803 C802 1.338 . S
C803 H807 0.931 . S
C804 N801 1.313 . S
C804 N805 1.344 . S
C804 H808 0.930 . S
N805 C802 1.377 . S
N805 C804 1.344 . S
O806 Co798 2.055 . S
O806 C810 1.253 . S
H807 C803 0.931 . S
H808 C804 0.930 . S
O809 Co798 2.039 . S
O809 C799 1.265 . S
C810 O806 1.253 . S
C810 O811 1.227 . S
O811 C810 1.227 . S
N812 Co798 2.140 . S
N812 C815 1.346 . S
N812 C816 1.345 . S
C813 C814 1.387 . S
C813 C817 1.391 . S
C814 C813 1.387 . S
C814 C815 1.369 . S
C814 H823 0.929 . S
C815 N812 1.346 . S
C815 C814 1.369 . S
C815 H818 0.928 . S
C816 N812 1.345 . S
C816 C817 1.371 . S
C816 H819 0.931 . S
C817 C813 1.391 . S
C817 C816 1.371 . S
C817 H824 0.930 . S
H818 C815 0.928 . S
H819 C816 0.931 . S
H820 C796 0.930 . S
H821 C793 0.930 . S
H822 C802 0.930 . S
H823 C814 0.929 . S
H824 C817 0.930 . S
C825 C826 1.351 . S
C825 N828 1.368 . S
C825 H830 0.931 . S
C826 C825 1.351 . S
C826 N827 1.373 . S
C826 H854 0.930 . S
N827 C826 1.373 . S
N827 C829 1.340 . S
N828 C825 1.368 . S
N828 C829 1.321 . S
N828 Co831 2.135 . S
C829 N827 1.340 . S
C829 N828 1.321 . S
C829 H853 0.930 . S
H830 C825 0.931 . S
Co831 N828 2.135 . S
Co831 N834 2.121 . S
Co831 O839 2.055 . S
Co831 O842 2.039 . S
Co831 N845 2.140 . S
C832 O833 1.227 . S
C832 O842 1.265 . S
O833 C832 1.227 . S
N834 Co831 2.121 . S
N834 C836 1.375 . S
N834 C837 1.313 . S
C835 C836 1.338 . S
C835 N838 1.377 . S
C835 H855 0.930 . S
C836 N834 1.375 . S
C836 C835 1.338 . S
C836 H840 0.931 . S
C837 N834 1.313 . S
C837 N838 1.344 . S
C837 H841 0.930 . S
N838 C835 1.377 . S
N838 C837 1.344 . S
O839 Co831 2.055 . S
O839 C843 1.253 . S
H840 C836 0.931 . S
H841 C837 0.930 . S
O842 Co831 2.039 . S
O842 C832 1.265 . S
C843 O839 1.253 . S
C843 O844 1.227 . S
O844 C843 1.227 . S
N845 Co831 2.140 . S
N845 C848 1.346 . S
N845 C849 1.345 . S
C846 C847 1.387 . S
C846 C850 1.391 . S
C847 C846 1.387 . S
C847 C848 1.369 . S
C847 H856 0.929 . S
C848 N845 1.346 . S
C848 C847 1.369 . S
C848 H851 0.928 . S
C849 N845 1.345 . S
C849 C850 1.371 . S
C849 H852 0.931 . S
C850 C846 1.391 . S
C850 C849 1.371 . S
C850 H857 0.930 . S
H851 C848 0.928 . S
H852 C849 0.931 . S
H853 C829 0.930 . S
H854 C826 0.930 . S
H855 C835 0.930 . S
H856 C847 0.929 . S
H857 C850 0.930 . S
C858 C859 1.351 . S
C858 N861 1.368 . S
C858 H863 0.931 . S
C859 C858 1.351 . S
C859 N860 1.373 . S
C859 H887 0.930 . S
N860 C859 1.373 . S
N860 C862 1.340 . S
N861 C858 1.368 . S
N861 C862 1.321 . S
N861 Co864 2.135 . S
C862 N860 1.340 . S
C862 N861 1.321 . S
C862 H886 0.930 . S
H863 C858 0.931 . S
Co864 N861 2.135 . S
Co864 N867 2.121 . S
Co864 O872 2.055 . S
Co864 O875 2.039 . S
Co864 N878 2.140 . S
C865 O866 1.227 . S
C865 O875 1.265 . S
O866 C865 1.227 . S
N867 Co864 2.121 . S
N867 C869 1.375 . S
N867 C870 1.313 . S
C868 C869 1.338 . S
C868 N871 1.377 . S
C868 H888 0.930 . S
C869 N867 1.375 . S
C869 C868 1.338 . S
C869 H873 0.931 . S
C870 N867 1.313 . S
C870 N871 1.344 . S
C870 H874 0.930 . S
N871 C868 1.377 . S
N871 C870 1.344 . S
O872 Co864 2.055 . S
O872 C876 1.253 . S
H873 C869 0.931 . S
H874 C870 0.930 . S
O875 Co864 2.039 . S
O875 C865 1.265 . S
C876 O872 1.253 . S
C876 O877 1.227 . S
O877 C876 1.227 . S
N878 Co864 2.140 . S
N878 C881 1.346 . S
N878 C882 1.345 . S
C879 C880 1.387 . S
C879 C883 1.391 . S
C880 C879 1.387 . S
C880 C881 1.369 . S
C880 H889 0.929 . S
C881 N878 1.346 . S
C881 C880 1.369 . S
C881 H884 0.928 . S
C882 N878 1.345 . S
C882 C883 1.371 . S
C882 H885 0.931 . S
C883 C879 1.391 . S
C883 C882 1.371 . S
C883 H890 0.930 . S
H884 C881 0.928 . S
H885 C882 0.931 . S
H886 C862 0.930 . S
H887 C859 0.930 . S
H888 C868 0.930 . S
H889 C880 0.929 . S
H890 C883 0.930 . S
C891 C892 1.351 . S
C891 N894 1.368 . S
C891 H896 0.931 . S
C892 C891 1.351 . S
C892 N893 1.373 . S
C892 H920 0.930 . S
N893 C892 1.373 . S
N893 C895 1.340 . S
N894 C891 1.368 . S
N894 C895 1.321 . S
N894 Co897 2.135 . S
C895 N893 1.340 . S
C895 N894 1.321 . S
C895 H919 0.930 . S
H896 C891 0.931 . S
Co897 N894 2.135 . S
Co897 N900 2.121 . S
Co897 O905 2.055 . S
Co897 O908 2.039 . S
Co897 N911 2.140 . S
C898 O899 1.227 . S
C898 O908 1.265 . S
O899 C898 1.227 . S
N900 Co897 2.121 . S
N900 C902 1.375 . S
N900 C903 1.313 . S
C901 C902 1.338 . S
C901 N904 1.377 . S
C901 H921 0.930 . S
C902 N900 1.375 . S
C902 C901 1.338 . S
C902 H906 0.931 . S
C903 N900 1.313 . S
C903 N904 1.344 . S
C903 H907 0.930 . S
N904 C901 1.377 . S
N904 C903 1.344 . S
O905 Co897 2.055 . S
O905 C909 1.253 . S
H906 C902 0.931 . S
H907 C903 0.930 . S
O908 Co897 2.039 . S
O908 C898 1.265 . S
C909 O905 1.253 . S
C909 O910 1.227 . S
O910 C909 1.227 . S
N911 Co897 2.140 . S
N911 C914 1.346 . S
N911 C915 1.345 . S
C912 C913 1.387 . S
C912 C916 1.391 . S
C913 C912 1.387 . S
C913 C914 1.369 . S
C913 H922 0.929 . S
C914 N911 1.346 . S
C914 C913 1.369 . S
C914 H917 0.928 . S
C915 N911 1.345 . S
C915 C916 1.371 . S
C915 H918 0.931 . S
C916 C912 1.391 . S
C916 C915 1.371 . S
C916 H923 0.930 . S
H917 C914 0.928 . S
H918 C915 0.931 . S
H919 C895 0.930 . S
H920 C892 0.930 . S
H921 C901 0.930 . S
H922 C913 0.929 . S
H923 C916 0.930 . S
C924 C925 1.351 . S
C924 N927 1.368 . S
C924 H929 0.931 . S
C925 C924 1.351 . S
C925 N926 1.373 . S
C925 H953 0.930 . S
N926 C925 1.373 . S
N926 C928 1.340 . S
N927 C924 1.368 . S
N927 C928 1.321 . S
N927 Co930 2.135 . S
C928 N926 1.340 . S
C928 N927 1.321 . S
C928 H952 0.930 . S
H929 C924 0.931 . S
Co930 N927 2.135 . S
Co930 N933 2.121 . S
Co930 O938 2.055 . S
Co930 O941 2.039 . S
Co930 N944 2.140 . S
C931 O932 1.227 . S
C931 O941 1.265 . S
O932 C931 1.227 . S
N933 Co930 2.121 . S
N933 C935 1.375 . S
N933 C936 1.313 . S
C934 C935 1.338 . S
C934 N937 1.377 . S
C934 H954 0.930 . S
C935 N933 1.375 . S
C935 C934 1.338 . S
C935 H939 0.931 . S
C936 N933 1.313 . S
C936 N937 1.344 . S
C936 H940 0.930 . S
N937 C934 1.377 . S
N937 C936 1.344 . S
O938 Co930 2.055 . S
O938 C942 1.253 . S
H939 C935 0.931 . S
H940 C936 0.930 . S
O941 Co930 2.039 . S
O941 C931 1.265 . S
C942 O938 1.253 . S
C942 O943 1.227 . S
O943 C942 1.227 . S
N944 Co930 2.140 . S
N944 C947 1.346 . S
N944 C948 1.345 . S
C945 C946 1.387 . S
C945 C949 1.391 . S
C946 C945 1.387 . S
C946 C947 1.369 . S
C946 H955 0.929 . S
C947 N944 1.346 . S
C947 C946 1.369 . S
C947 H950 0.928 . S
C948 N944 1.345 . S
C948 C949 1.371 . S
C948 H951 0.931 . S
C949 C945 1.391 . S
C949 C948 1.371 . S
C949 H956 0.930 . S
H950 C947 0.928 . S
H951 C948 0.931 . S
H952 C928 0.930 . S
H953 C925 0.930 . S
H954 C934 0.930 . S
H955 C946 0.929 . S
H956 C949 0.930 . S
C957 C958 1.351 . S
C957 N960 1.368 . S
C957 H962 0.931 . S
C958 C957 1.351 . S
C958 N959 1.373 . S
C958 H986 0.930 . S
N959 C958 1.373 . S
N959 C961 1.340 . S
N960 C957 1.368 . S
N960 C961 1.321 . S
N960 Co963 2.135 . S
C961 N959 1.340 . S
C961 N960 1.321 . S
C961 H985 0.930 . S
H962 C957 0.931 . S
Co963 N960 2.135 . S
Co963 N966 2.121 . S
Co963 O971 2.055 . S
Co963 O974 2.039 . S
Co963 N977 2.140 . S
C964 O965 1.227 . S
C964 O974 1.265 . S
O965 C964 1.227 . S
N966 Co963 2.121 . S
N966 C968 1.375 . S
N966 C969 1.313 . S
C967 C968 1.338 . S
C967 N970 1.377 . S
C967 H987 0.930 . S
C968 N966 1.375 . S
C968 C967 1.338 . S
C968 H972 0.931 . S
C969 N966 1.313 . S
C969 N970 1.344 . S
C969 H973 0.930 . S
N970 C967 1.377 . S
N970 C969 1.344 . S
O971 Co963 2.055 . S
O971 C975 1.253 . S
H972 C968 0.931 . S
H973 C969 0.930 . S
O974 Co963 2.039 . S
O974 C964 1.265 . S
C975 O971 1.253 . S
C975 O976 1.227 . S
O976 C975 1.227 . S
N977 Co963 2.140 . S
N977 C980 1.346 . S
N977 C981 1.345 . S
C978 C979 1.387 . S
C978 C982 1.391 . S
C979 C978 1.387 . S
C979 C980 1.369 . S
C979 H988 0.929 . S
C980 N977 1.346 . S
C980 C979 1.369 . S
C980 H983 0.928 . S
C981 N977 1.345 . S
C981 C982 1.371 . S
C981 H984 0.931 . S
C982 C978 1.391 . S
C982 C981 1.371 . S
C982 H989 0.930 . S
H983 C980 0.928 . S
H984 C981 0.931 . S
H985 C961 0.930 . S
H986 C958 0.930 . S
H987 C967 0.930 . S
H988 C979 0.929 . S
H989 C982 0.930 . S
C990 C991 1.351 . S
C990 N993 1.368 . S
C990 H995 0.931 . S
C991 C990 1.351 . S
C991 N992 1.373 . S
C991 H1019 0.930 . S
N992 C991 1.373 . S
N992 C994 1.340 . S
N993 C990 1.368 . S
N993 C994 1.321 . S
N993 Co996 2.135 . S
C994 N992 1.340 . S
C994 N993 1.321 . S
C994 H1018 0.930 . S
H995 C990 0.931 . S
Co996 N993 2.135 . S
Co996 N999 2.121 . S
Co996 O1004 2.055 . S
Co996 O1007 2.039 . S
Co996 N1010 2.140 . S
C997 O998 1.227 . S
C997 O1007 1.265 . S
O998 C997 1.227 . S
N999 Co996 2.121 . S
N999 C1001 1.375 . S
N999 C1002 1.313 . S
C1000 C1001 1.338 . S
C1000 N1003 1.377 . S
C1000 H1020 0.930 . S
C1001 N999 1.375 . S
C1001 C1000 1.338 . S
C1001 H1005 0.931 . S
C1002 N999 1.313 . S
C1002 N1003 1.344 . S
C1002 H1006 0.930 . S
N1003 C1000 1.377 . S
N1003 C1002 1.344 . S
O1004 Co996 2.055 . S
O1004 C1008 1.253 . S
H1005 C1001 0.931 . S
H1006 C1002 0.930 . S
O1007 Co996 2.039 . S
O1007 C997 1.265 . S
C1008 O1004 1.253 . S
C1008 O1009 1.227 . S
O1009 C1008 1.227 . S
N1010 Co996 2.140 . S
N1010 C1013 1.346 . S
N1010 C1014 1.345 . S
C1011 C1012 1.387 . S
C1011 C1015 1.391 . S
C1012 C1011 1.387 . S
C1012 C1013 1.369 . S
C1012 H1021 0.929 . S
C1013 N1010 1.346 . S
C1013 C1012 1.369 . S
C1013 H1016 0.928 . S
C1014 N1010 1.345 . S
C1014 C1015 1.371 . S
C1014 H1017 0.931 . S
C1015 C1011 1.391 . S
C1015 C1014 1.371 . S
C1015 H1022 0.930 . S
H1016 C1013 0.928 . S
H1017 C1014 0.931 . S
H1018 C994 0.930 . S
H1019 C991 0.930 . S
H1020 C1000 0.930 . S
H1021 C1012 0.929 . S
H1022 C1015 0.930 . S
C1023 C1024 1.351 . S
C1023 N1026 1.368 . S
C1023 H1028 0.931 . S
C1024 C1023 1.351 . S
C1024 N1025 1.373 . S
C1024 H1052 0.930 . S
N1025 C1024 1.373 . S
N1025 C1027 1.340 . S
N1026 C1023 1.368 . S
N1026 C1027 1.321 . S
N1026 Co1029 2.135 . S
C1027 N1025 1.340 . S
C1027 N1026 1.321 . S
C1027 H1051 0.930 . S
H1028 C1023 0.931 . S
Co1029 N1026 2.135 . S
Co1029 N1032 2.121 . S
Co1029 O1037 2.055 . S
Co1029 O1040 2.039 . S
Co1029 N1043 2.140 . S
C1030 O1031 1.227 . S
C1030 O1040 1.265 . S
O1031 C1030 1.227 . S
N1032 Co1029 2.121 . S
N1032 C1034 1.375 . S
N1032 C1035 1.313 . S
C1033 C1034 1.338 . S
C1033 N1036 1.377 . S
C1033 H1053 0.930 . S
C1034 N1032 1.375 . S
C1034 C1033 1.338 . S
C1034 H1038 0.931 . S
C1035 N1032 1.313 . S
C1035 N1036 1.344 . S
C1035 H1039 0.930 . S
N1036 C1033 1.377 . S
N1036 C1035 1.344 . S
O1037 Co1029 2.055 . S
O1037 C1041 1.253 . S
H1038 C1034 0.931 . S
H1039 C1035 0.930 . S
O1040 Co1029 2.039 . S
O1040 C1030 1.265 . S
C1041 O1037 1.253 . S
C1041 O1042 1.227 . S
O1042 C1041 1.227 . S
N1043 Co1029 2.140 . S
N1043 C1046 1.346 . S
N1043 C1047 1.345 . S
C1044 C1045 1.387 . S
C1044 C1048 1.391 . S
C1045 C1044 1.387 . S
C1045 C1046 1.369 . S
C1045 H1054 0.929 . S
C1046 N1043 1.346 . S
C1046 C1045 1.369 . S
C1046 H1049 0.928 . S
C1047 N1043 1.345 . S
C1047 C1048 1.371 . S
C1047 H1050 0.931 . S
C1048 C1044 1.391 . S
C1048 C1047 1.371 . S
C1048 H1055 0.930 . S
H1049 C1046 0.928 . S
H1050 C1047 0.931 . S
H1051 C1027 0.930 . S
H1052 C1024 0.930 . S
H1053 C1033 0.930 . S
H1054 C1045 0.929 . S
H1055 C1048 0.930 . S
C1056 C1057 1.351 . S
C1056 N1059 1.368 . S
C1056 H1061 0.931 . S
C1057 C1056 1.351 . S
C1057 N1058 1.373 . S
C1057 H1085 0.930 . S
N1058 C1057 1.373 . S
N1058 C1060 1.340 . S
N1059 C1056 1.368 . S
N1059 C1060 1.321 . S
N1059 Co1062 2.135 . S
C1060 N1058 1.340 . S
C1060 N1059 1.321 . S
C1060 H1084 0.930 . S
H1061 C1056 0.931 . S
Co1062 N1059 2.135 . S
Co1062 N1065 2.121 . S
Co1062 O1070 2.055 . S
Co1062 O1073 2.039 . S
Co1062 N1076 2.140 . S
C1063 O1064 1.227 . S
C1063 O1073 1.265 . S
O1064 C1063 1.227 . S
N1065 Co1062 2.121 . S
N1065 C1067 1.375 . S
N1065 C1068 1.313 . S
C1066 C1067 1.338 . S
C1066 N1069 1.377 . S
C1066 H1086 0.930 . S
C1067 N1065 1.375 . S
C1067 C1066 1.338 . S
C1067 H1071 0.931 . S
C1068 N1065 1.313 . S
C1068 N1069 1.344 . S
C1068 H1072 0.930 . S
N1069 C1066 1.377 . S
N1069 C1068 1.344 . S
O1070 Co1062 2.055 . S
O1070 C1074 1.253 . S
H1071 C1067 0.931 . S
H1072 C1068 0.930 . S
O1073 Co1062 2.039 . S
O1073 C1063 1.265 . S
C1074 O1070 1.253 . S
C1074 O1075 1.227 . S
O1075 C1074 1.227 . S
N1076 Co1062 2.140 . S
N1076 C1079 1.346 . S
N1076 C1080 1.345 . S
C1077 C1078 1.387 . S
C1077 C1081 1.391 . S
C1078 C1077 1.387 . S
C1078 C1079 1.369 . S
C1078 H1087 0.929 . S
C1079 N1076 1.346 . S
C1079 C1078 1.369 . S
C1079 H1082 0.928 . S
C1080 N1076 1.345 . S
C1080 C1081 1.371 . S
C1080 H1083 0.931 . S
C1081 C1077 1.391 . S
C1081 C1080 1.371 . S
C1081 H1088 0.930 . S
H1082 C1079 0.928 . S
H1083 C1080 0.931 . S
H1084 C1060 0.930 . S
H1085 C1057 0.930 . S
H1086 C1066 0.930 . S
H1087 C1078 0.929 . S
H1088 C1081 0.930 . S
C1089 C1090 1.351 . S
C1089 N1092 1.368 . S
C1089 H1094 0.931 . S
C1090 C1089 1.351 . S
C1090 N1091 1.373 . S
C1090 H1118 0.930 . S
N1091 C1090 1.373 . S
N1091 C1093 1.340 . S
N1092 C1089 1.368 . S
N1092 C1093 1.321 . S
N1092 Co1095 2.135 . S
C1093 N1091 1.340 . S
C1093 N1092 1.321 . S
C1093 H1117 0.930 . S
H1094 C1089 0.931 . S
Co1095 N1092 2.135 . S
Co1095 N1098 2.121 . S
Co1095 O1103 2.055 . S
Co1095 O1106 2.039 . S
Co1095 N1109 2.140 . S
C1096 O1097 1.227 . S
C1096 O1106 1.265 . S
O1097 C1096 1.227 . S
N1098 Co1095 2.121 . S
N1098 C1100 1.375 . S
N1098 C1101 1.313 . S
C1099 C1100 1.338 . S
C1099 N1102 1.377 . S
C1099 H1119 0.930 . S
C1100 N1098 1.375 . S
C1100 C1099 1.338 . S
C1100 H1104 0.931 . S
C1101 N1098 1.313 . S
C1101 N1102 1.344 . S
C1101 H1105 0.930 . S
N1102 C1099 1.377 . S
N1102 C1101 1.344 . S
O1103 Co1095 2.055 . S
O1103 C1107 1.253 . S
H1104 C1100 0.931 . S
H1105 C1101 0.930 . S
O1106 Co1095 2.039 . S
O1106 C1096 1.265 . S
C1107 O1103 1.253 . S
C1107 O1108 1.227 . S
O1108 C1107 1.227 . S
N1109 Co1095 2.140 . S
N1109 C1112 1.346 . S
N1109 C1113 1.345 . S
C1110 C1111 1.387 . S
C1110 C1114 1.391 . S
C1111 C1110 1.387 . S
C1111 C1112 1.369 . S
C1111 H1120 0.929 . S
C1112 N1109 1.346 . S
C1112 C1111 1.369 . S
C1112 H1115 0.928 . S
C1113 N1109 1.345 . S
C1113 C1114 1.371 . S
C1113 H1116 0.931 . S
C1114 C1110 1.391 . S
C1114 C1113 1.371 . S
C1114 H1121 0.930 . S
H1115 C1112 0.928 . S
H1116 C1113 0.931 . S
H1117 C1093 0.930 . S
H1118 C1090 0.930 . S
H1119 C1099 0.930 . S
H1120 C1111 0.929 . S
H1121 C1114 0.930 . S
C1122 C1123 1.351 . S
C1122 N1125 1.368 . S
C1122 H1127 0.931 . S
C1123 C1122 1.351 . S
C1123 N1124 1.373 . S
C1123 H1151 0.930 . S
N1124 C1123 1.373 . S
N1124 C1126 1.340 . S
N1125 C1122 1.368 . S
N1125 C1126 1.321 . S
N1125 Co1128 2.135 . S
C1126 N1124 1.340 . S
C1126 N1125 1.321 . S
C1126 H1150 0.930 . S
H1127 C1122 0.931 . S
Co1128 N1125 2.135 . S
Co1128 N1131 2.121 . S
Co1128 O1136 2.055 . S
Co1128 O1139 2.039 . S
Co1128 N1142 2.140 . S
C1129 O1130 1.227 . S
C1129 O1139 1.265 . S
O1130 C1129 1.227 . S
N1131 Co1128 2.121 . S
N1131 C1133 1.375 . S
N1131 C1134 1.313 . S
C1132 C1133 1.338 . S
C1132 N1135 1.377 . S
C1132 H1152 0.930 . S
C1133 N1131 1.375 . S
C1133 C1132 1.338 . S
C1133 H1137 0.931 . S
C1134 N1131 1.313 . S
C1134 N1135 1.344 . S
C1134 H1138 0.930 . S
N1135 C1132 1.377 . S
N1135 C1134 1.344 . S
O1136 Co1128 2.055 . S
O1136 C1140 1.253 . S
H1137 C1133 0.931 . S
H1138 C1134 0.930 . S
O1139 Co1128 2.039 . S
O1139 C1129 1.265 . S
C1140 O1136 1.253 . S
C1140 O1141 1.227 . S
O1141 C1140 1.227 . S
N1142 Co1128 2.140 . S
N1142 C1145 1.346 . S
N1142 C1146 1.345 . S
C1143 C1144 1.387 . S
C1143 C1147 1.391 . S
C1144 C1143 1.387 . S
C1144 C1145 1.369 . S
C1144 H1153 0.929 . S
C1145 N1142 1.346 . S
C1145 C1144 1.369 . S
C1145 H1148 0.928 . S
C1146 N1142 1.345 . S
C1146 C1147 1.371 . S
C1146 H1149 0.931 . S
C1147 C1143 1.391 . S
C1147 C1146 1.371 . S
C1147 H1154 0.930 . S
H1148 C1145 0.928 . S
H1149 C1146 0.931 . S
H1150 C1126 0.930 . S
H1151 C1123 0.930 . S
H1152 C1132 0.930 . S
H1153 C1144 0.929 . S
H1154 C1147 0.930 . S
C1155 C1156 1.351 . S
C1155 N1158 1.368 . S
C1155 H1160 0.931 . S
C1156 C1155 1.351 . S
C1156 N1157 1.373 . S
C1156 H1184 0.930 . S
N1157 C1156 1.373 . S
N1157 C1159 1.340 . S
N1158 C1155 1.368 . S
N1158 C1159 1.321 . S
N1158 Co1161 2.135 . S
C1159 N1157 1.340 . S
C1159 N1158 1.321 . S
C1159 H1183 0.930 . S
H1160 C1155 0.931 . S
Co1161 N1158 2.135 . S
Co1161 N1164 2.121 . S
Co1161 O1169 2.055 . S
Co1161 O1172 2.039 . S
Co1161 N1175 2.140 . S
C1162 O1163 1.227 . S
C1162 O1172 1.265 . S
O1163 C1162 1.227 . S
N1164 Co1161 2.121 . S
N1164 C1166 1.375 . S
N1164 C1167 1.313 . S
C1165 C1166 1.338 . S
C1165 N1168 1.377 . S
C1165 H1185 0.930 . S
C1166 N1164 1.375 . S
C1166 C1165 1.338 . S
C1166 H1170 0.931 . S
C1167 N1164 1.313 . S
C1167 N1168 1.344 . S
C1167 H1171 0.930 . S
N1168 C1165 1.377 . S
N1168 C1167 1.344 . S
O1169 Co1161 2.055 . S
O1169 C1173 1.253 . S
H1170 C1166 0.931 . S
H1171 C1167 0.930 . S
O1172 Co1161 2.039 . S
O1172 C1162 1.265 . S
C1173 O1169 1.253 . S
C1173 O1174 1.227 . S
O1174 C1173 1.227 . S
N1175 Co1161 2.140 . S
N1175 C1178 1.346 . S
N1175 C1179 1.345 . S
C1176 C1177 1.387 . S
C1176 C1180 1.391 . S
C1177 C1176 1.387 . S
C1177 C1178 1.369 . S
C1177 H1186 0.929 . S
C1178 N1175 1.346 . S
C1178 C1177 1.369 . S
C1178 H1181 0.928 . S
C1179 N1175 1.345 . S
C1179 C1180 1.371 . S
C1179 H1182 0.931 . S
C1180 C1176 1.391 . S
C1180 C1179 1.371 . S
C1180 H1187 0.930 . S
H1181 C1178 0.928 . S
H1182 C1179 0.931 . S
H1183 C1159 0.930 . S
H1184 C1156 0.930 . S
H1185 C1165 0.930 . S
H1186 C1177 0.929 . S
H1187 C1180 0.930 . S
C1188 C1189 1.351 . S
C1188 N1191 1.368 . S
C1188 H1193 0.931 . S
C1189 C1188 1.351 . S
C1189 N1190 1.373 . S
C1189 H1217 0.930 . S
N1190 C1189 1.373 . S
N1190 C1192 1.340 . S
N1191 C1188 1.368 . S
N1191 C1192 1.321 . S
N1191 Co1194 2.135 . S
C1192 N1190 1.340 . S
C1192 N1191 1.321 . S
C1192 H1216 0.930 . S
H1193 C1188 0.931 . S
Co1194 N1191 2.135 . S
Co1194 N1197 2.121 . S
Co1194 O1202 2.055 . S
Co1194 O1205 2.039 . S
Co1194 N1208 2.140 . S
C1195 O1196 1.227 . S
C1195 O1205 1.265 . S
O1196 C1195 1.227 . S
N1197 Co1194 2.121 . S
N1197 C1199 1.375 . S
N1197 C1200 1.313 . S
C1198 C1199 1.338 . S
C1198 N1201 1.377 . S
C1198 H1218 0.930 . S
C1199 N1197 1.375 . S
C1199 C1198 1.338 . S
C1199 H1203 0.931 . S
C1200 N1197 1.313 . S
C1200 N1201 1.344 . S
C1200 H1204 0.930 . S
N1201 C1198 1.377 . S
N1201 C1200 1.344 . S
O1202 Co1194 2.055 . S
O1202 C1206 1.253 . S
H1203 C1199 0.931 . S
H1204 C1200 0.930 . S
O1205 Co1194 2.039 . S
O1205 C1195 1.265 . S
C1206 O1202 1.253 . S
C1206 O1207 1.227 . S
O1207 C1206 1.227 . S
N1208 Co1194 2.140 . S
N1208 C1211 1.346 . S
N1208 C1212 1.345 . S
C1209 C1210 1.387 . S
C1209 C1213 1.391 . S
C1210 C1209 1.387 . S
C1210 C1211 1.369 . S
C1210 H1219 0.929 . S
C1211 N1208 1.346 . S
C1211 C1210 1.369 . S
C1211 H1214 0.928 . S
C1212 N1208 1.345 . S
C1212 C1213 1.371 . S
C1212 H1215 0.931 . S
C1213 C1209 1.391 . S
C1213 C1212 1.371 . S
C1213 H1220 0.930 . S
H1214 C1211 0.928 . S
H1215 C1212 0.931 . S
H1216 C1192 0.930 . S
H1217 C1189 0.930 . S
H1218 C1198 0.930 . S
H1219 C1210 0.929 . S
H1220 C1213 0.930 . S
C1221 C1222 1.351 . S
C1221 N1224 1.368 . S
C1221 H1226 0.931 . S
C1222 C1221 1.351 . S
C1222 N1223 1.373 . S
C1222 H1250 0.930 . S
N1223 C1222 1.373 . S
N1223 C1225 1.340 . S
N1224 C1221 1.368 . S
N1224 C1225 1.321 . S
N1224 Co1227 2.135 . S
C1225 N1223 1.340 . S
C1225 N1224 1.321 . S
C1225 H1249 0.930 . S
H1226 C1221 0.931 . S
Co1227 N1224 2.135 . S
Co1227 N1230 2.121 . S
Co1227 O1235 2.055 . S
Co1227 O1238 2.039 . S
Co1227 N1241 2.140 . S
C1228 O1229 1.227 . S
C1228 O1238 1.265 . S
O1229 C1228 1.227 . S
N1230 Co1227 2.121 . S
N1230 C1232 1.375 . S
N1230 C1233 1.313 . S
C1231 C1232 1.338 . S
C1231 N1234 1.377 . S
C1231 H1251 0.930 . S
C1232 N1230 1.375 . S
C1232 C1231 1.338 . S
C1232 H1236 0.931 . S
C1233 N1230 1.313 . S
C1233 N1234 1.344 . S
C1233 H1237 0.930 . S
N1234 C1231 1.377 . S
N1234 C1233 1.344 . S
O1235 Co1227 2.055 . S
O1235 C1239 1.253 . S
H1236 C1232 0.931 . S
H1237 C1233 0.930 . S
O1238 Co1227 2.039 . S
O1238 C1228 1.265 . S
C1239 O1235 1.253 . S
C1239 O1240 1.227 . S
O1240 C1239 1.227 . S
N1241 Co1227 2.140 . S
N1241 C1244 1.346 . S
N1241 C1245 1.345 . S
C1242 C1243 1.387 . S
C1242 C1246 1.391 . S
C1243 C1242 1.387 . S
C1243 C1244 1.369 . S
C1243 H1252 0.929 . S
C1244 N1241 1.346 . S
C1244 C1243 1.369 . S
C1244 H1247 0.928 . S
C1245 N1241 1.345 . S
C1245 C1246 1.371 . S
C1245 H1248 0.931 . S
C1246 C1242 1.391 . S
C1246 C1245 1.371 . S
C1246 H1253 0.930 . S
H1247 C1244 0.928 . S
H1248 C1245 0.931 . S
H1249 C1225 0.930 . S
H1250 C1222 0.930 . S
H1251 C1231 0.930 . S
H1252 C1243 0.929 . S
H1253 C1246 0.930 . S
C1254 C1255 1.351 . S
C1254 N1257 1.368 . S
C1254 H1259 0.931 . S
C1255 C1254 1.351 . S
C1255 N1256 1.373 . S
C1255 H1283 0.930 . S
N1256 C1255 1.373 . S
N1256 C1258 1.340 . S
N1257 C1254 1.368 . S
N1257 C1258 1.321 . S
N1257 Co1260 2.135 . S
C1258 N1256 1.340 . S
C1258 N1257 1.321 . S
C1258 H1282 0.930 . S
H1259 C1254 0.931 . S
Co1260 N1257 2.135 . S
Co1260 N1263 2.121 . S
Co1260 O1268 2.055 . S
Co1260 O1271 2.039 . S
Co1260 N1274 2.140 . S
C1261 O1262 1.227 . S
C1261 O1271 1.265 . S
O1262 C1261 1.227 . S
N1263 Co1260 2.121 . S
N1263 C1265 1.375 . S
N1263 C1266 1.313 . S
C1264 C1265 1.338 . S
C1264 N1267 1.377 . S
C1264 H1284 0.930 . S
C1265 N1263 1.375 . S
C1265 C1264 1.338 . S
C1265 H1269 0.931 . S
C1266 N1263 1.313 . S
C1266 N1267 1.344 . S
C1266 H1270 0.930 . S
N1267 C1264 1.377 . S
N1267 C1266 1.344 . S
O1268 Co1260 2.055 . S
O1268 C1272 1.253 . S
H1269 C1265 0.931 . S
H1270 C1266 0.930 . S
O1271 Co1260 2.039 . S
O1271 C1261 1.265 . S
C1272 O1268 1.253 . S
C1272 O1273 1.227 . S
O1273 C1272 1.227 . S
N1274 Co1260 2.140 . S
N1274 C1277 1.346 . S
N1274 C1278 1.345 . S
C1275 C1276 1.387 . S
C1275 C1279 1.391 . S
C1276 C1275 1.387 . S
C1276 C1277 1.369 . S
C1276 H1285 0.929 . S
C1277 N1274 1.346 . S
C1277 C1276 1.369 . S
C1277 H1280 0.928 . S
C1278 N1274 1.345 . S
C1278 C1279 1.371 . S
C1278 H1281 0.931 . S
C1279 C1275 1.391 . S
C1279 C1278 1.371 . S
C1279 H1286 0.930 . S
H1280 C1277 0.928 . S
H1281 C1278 0.931 . S
H1282 C1258 0.930 . S
H1283 C1255 0.930 . S
H1284 C1264 0.930 . S
H1285 C1276 0.929 . S
H1286 C1279 0.930 . S
C1287 C1288 1.351 . S
C1287 N1290 1.368 . S
C1287 H1292 0.931 . S
C1288 C1287 1.351 . S
C1288 N1289 1.373 . S
C1288 H1316 0.930 . S
N1289 C1288 1.373 . S
N1289 C1291 1.340 . S
N1290 C1287 1.368 . S
N1290 C1291 1.321 . S
N1290 Co1293 2.135 . S
C1291 N1289 1.340 . S
C1291 N1290 1.321 . S
C1291 H1315 0.930 . S
H1292 C1287 0.931 . S
Co1293 N1290 2.135 . S
Co1293 N1296 2.121 . S
Co1293 O1301 2.055 . S
Co1293 O1304 2.039 . S
Co1293 N1307 2.140 . S
C1294 O1295 1.227 . S
C1294 O1304 1.265 . S
O1295 C1294 1.227 . S
N1296 Co1293 2.121 . S
N1296 C1298 1.375 . S
N1296 C1299 1.313 . S
C1297 C1298 1.338 . S
C1297 N1300 1.377 . S
C1297 H1317 0.930 . S
C1298 N1296 1.375 . S
C1298 C1297 1.338 . S
C1298 H1302 0.931 . S
C1299 N1296 1.313 . S
C1299 N1300 1.344 . S
C1299 H1303 0.930 . S
N1300 C1297 1.377 . S
N1300 C1299 1.344 . S
O1301 Co1293 2.055 . S
O1301 C1305 1.253 . S
H1302 C1298 0.931 . S
H1303 C1299 0.930 . S
O1304 Co1293 2.039 . S
O1304 C1294 1.265 . S
C1305 O1301 1.253 . S
C1305 O1306 1.227 . S
O1306 C1305 1.227 . S
N1307 Co1293 2.140 . S
N1307 C1310 1.346 . S
N1307 C1311 1.345 . S
C1308 C1309 1.387 . S
C1308 C1312 1.391 . S
C1309 C1308 1.387 . S
C1309 C1310 1.369 . S
C1309 H1318 0.929 . S
C1310 N1307 1.346 . S
C1310 C1309 1.369 . S
C1310 H1313 0.928 . S
C1311 N1307 1.345 . S
C1311 C1312 1.371 . S
C1311 H1314 0.931 . S
C1312 C1308 1.391 . S
C1312 C1311 1.371 . S
C1312 H1319 0.930 . S
H1313 C1310 0.928 . S
H1314 C1311 0.931 . S
H1315 C1291 0.930 . S
H1316 C1288 0.930 . S
H1317 C1297 0.930 . S
H1318 C1309 0.929 . S
H1319 C1312 0.930 . S
C1320 C1321 1.351 . S
C1320 N1323 1.368 . S
C1320 H1325 0.931 . S
C1321 C1320 1.351 . S
C1321 N1322 1.373 . S
C1321 H1349 0.930 . S
N1322 C1321 1.373 . S
N1322 C1324 1.340 . S
N1323 C1320 1.368 . S
N1323 C1324 1.321 . S
N1323 Co1326 2.135 . S
C1324 N1322 1.340 . S
C1324 N1323 1.321 . S
C1324 H1348 0.930 . S
H1325 C1320 0.931 . S
Co1326 N1323 2.135 . S
Co1326 N1329 2.121 . S
Co1326 O1334 2.055 . S
Co1326 O1337 2.039 . S
Co1326 N1340 2.140 . S
C1327 O1328 1.227 . S
C1327 O1337 1.265 . S
O1328 C1327 1.227 . S
N1329 Co1326 2.121 . S
N1329 C1331 1.375 . S
N1329 C1332 1.313 . S
C1330 C1331 1.338 . S
C1330 N1333 1.377 . S
C1330 H1350 0.930 . S
C1331 N1329 1.375 . S
C1331 C1330 1.338 . S
C1331 H1335 0.931 . S
C1332 N1329 1.313 . S
C1332 N1333 1.344 . S
C1332 H1336 0.930 . S
N1333 C1330 1.377 . S
N1333 C1332 1.344 . S
O1334 Co1326 2.055 . S
O1334 C1338 1.253 . S
H1335 C1331 0.931 . S
H1336 C1332 0.930 . S
O1337 Co1326 2.039 . S
O1337 C1327 1.265 . S
C1338 O1334 1.253 . S
C1338 O1339 1.227 . S
O1339 C1338 1.227 . S
N1340 Co1326 2.140 . S
N1340 C1343 1.346 . S
N1340 C1344 1.345 . S
C1341 C1342 1.387 . S
C1341 C1345 1.391 . S
C1342 C1341 1.387 . S
C1342 C1343 1.369 . S
C1342 H1351 0.929 . S
C1343 N1340 1.346 . S
C1343 C1342 1.369 . S
C1343 H1346 0.928 . S
C1344 N1340 1.345 . S
C1344 C1345 1.371 . S
C1344 H1347 0.931 . S
C1345 C1341 1.391 . S
C1345 C1344 1.371 . S
C1345 H1352 0.930 . S
H1346 C1343 0.928 . S
H1347 C1344 0.931 . S
H1348 C1324 0.930 . S
H1349 C1321 0.930 . S
H1350 C1330 0.930 . S
H1351 C1342 0.929 . S
H1352 C1345 0.930 . S
C1353 C1354 1.351 . S
C1353 N1356 1.368 . S
C1353 H1358 0.931 . S
C1354 C1353 1.351 . S
C1354 N1355 1.373 . S
C1354 H1382 0.930 . S
N1355 C1354 1.373 . S
N1355 C1357 1.340 . S
N1356 C1353 1.368 . S
N1356 C1357 1.321 . S
N1356 Co1359 2.135 . S
C1357 N1355 1.340 . S
C1357 N1356 1.321 . S
C1357 H1381 0.930 . S
H1358 C1353 0.931 . S
Co1359 N1356 2.135 . S
Co1359 N1362 2.121 . S
Co1359 O1367 2.055 . S
Co1359 O1370 2.039 . S
Co1359 N1373 2.140 . S
C1360 O1361 1.227 . S
C1360 O1370 1.265 . S
O1361 C1360 1.227 . S
N1362 Co1359 2.121 . S
N1362 C1364 1.375 . S
N1362 C1365 1.313 . S
C1363 C1364 1.338 . S
C1363 N1366 1.377 . S
C1363 H1383 0.930 . S
C1364 N1362 1.375 . S
C1364 C1363 1.338 . S
C1364 H1368 0.931 . S
C1365 N1362 1.313 . S
C1365 N1366 1.344 . S
C1365 H1369 0.930 . S
N1366 C1363 1.377 . S
N1366 C1365 1.344 . S
O1367 Co1359 2.055 . S
O1367 C1371 1.253 . S
H1368 C1364 0.931 . S
H1369 C1365 0.930 . S
O1370 Co1359 2.039 . S
O1370 C1360 1.265 . S
C1371 O1367 1.253 . S
C1371 O1372 1.227 . S
O1372 C1371 1.227 . S
N1373 Co1359 2.140 . S
N1373 C1376 1.346 . S
N1373 C1377 1.345 . S
C1374 C1375 1.387 . S
C1374 C1378 1.391 . S
C1375 C1374 1.387 . S
C1375 C1376 1.369 . S
C1375 H1384 0.929 . S
C1376 N1373 1.346 . S
C1376 C1375 1.369 . S
C1376 H1379 0.928 . S
C1377 N1373 1.345 . S
C1377 C1378 1.371 . S
C1377 H1380 0.931 . S
C1378 C1374 1.391 . S
C1378 C1377 1.371 . S
C1378 H1385 0.930 . S
H1379 C1376 0.928 . S
H1380 C1377 0.931 . S
H1381 C1357 0.930 . S
H1382 C1354 0.930 . S
H1383 C1363 0.930 . S
H1384 C1375 0.929 . S
H1385 C1378 0.930 . S
C1386 C1387 1.351 . S
C1386 N1389 1.368 . S
C1386 H1391 0.931 . S
C1387 C1386 1.351 . S
C1387 N1388 1.373 . S
C1387 H1415 0.930 . S
N1388 C1387 1.373 . S
N1388 C1390 1.340 . S
N1389 C1386 1.368 . S
N1389 C1390 1.321 . S
N1389 Co1392 2.135 . S
C1390 N1388 1.340 . S
C1390 N1389 1.321 . S
C1390 H1414 0.930 . S
H1391 C1386 0.931 . S
Co1392 N1389 2.135 . S
Co1392 N1395 2.121 . S
Co1392 O1400 2.055 . S
Co1392 O1403 2.039 . S
Co1392 N1406 2.140 . S
C1393 O1394 1.227 . S
C1393 O1403 1.265 . S
O1394 C1393 1.227 . S
N1395 Co1392 2.121 . S
N1395 C1397 1.375 . S
N1395 C1398 1.313 . S
C1396 C1397 1.338 . S
C1396 N1399 1.377 . S
C1396 H1416 0.930 . S
C1397 N1395 1.375 . S
C1397 C1396 1.338 . S
C1397 H1401 0.931 . S
C1398 N1395 1.313 . S
C1398 N1399 1.344 . S
C1398 H1402 0.930 . S
N1399 C1396 1.377 . S
N1399 C1398 1.344 . S
O1400 Co1392 2.055 . S
O1400 C1404 1.253 . S
H1401 C1397 0.931 . S
H1402 C1398 0.930 . S
O1403 Co1392 2.039 . S
O1403 C1393 1.265 . S
C1404 O1400 1.253 . S
C1404 O1405 1.227 . S
O1405 C1404 1.227 . S
N1406 Co1392 2.140 . S
N1406 C1409 1.346 . S
N1406 C1410 1.345 . S
C1407 C1408 1.387 . S
C1407 C1411 1.391 . S
C1408 C1407 1.387 . S
C1408 C1409 1.369 . S
C1408 H1417 0.929 . S
C1409 N1406 1.346 . S
C1409 C1408 1.369 . S
C1409 H1412 0.928 . S
C1410 N1406 1.345 . S
C1410 C1411 1.371 . S
C1410 H1413 0.931 . S
C1411 C1407 1.391 . S
C1411 C1410 1.371 . S
C1411 H1418 0.930 . S
H1412 C1409 0.928 . S
H1413 C1410 0.931 . S
H1414 C1390 0.930 . S
H1415 C1387 0.930 . S
H1416 C1396 0.930 . S
H1417 C1408 0.929 . S
H1418 C1411 0.930 . S
C1419 C1420 1.351 . S
C1419 N1422 1.368 . S
C1419 H1424 0.931 . S
C1420 C1419 1.351 . S
C1420 N1421 1.373 . S
C1420 H1448 0.930 . S
N1421 C1420 1.373 . S
N1421 C1423 1.340 . S
N1422 C1419 1.368 . S
N1422 C1423 1.321 . S
N1422 Co1425 2.135 . S
C1423 N1421 1.340 . S
C1423 N1422 1.321 . S
C1423 H1447 0.930 . S
H1424 C1419 0.931 . S
Co1425 N1422 2.135 . S
Co1425 N1428 2.121 . S
Co1425 O1433 2.055 . S
Co1425 O1436 2.039 . S
Co1425 N1439 2.140 . S
C1426 O1427 1.227 . S
C1426 O1436 1.265 . S
O1427 C1426 1.227 . S
N1428 Co1425 2.121 . S
N1428 C1430 1.375 . S
N1428 C1431 1.313 . S
C1429 C1430 1.338 . S
C1429 N1432 1.377 . S
C1429 H1449 0.930 . S
C1430 N1428 1.375 . S
C1430 C1429 1.338 . S
C1430 H1434 0.931 . S
C1431 N1428 1.313 . S
C1431 N1432 1.344 . S
C1431 H1435 0.930 . S
N1432 C1429 1.377 . S
N1432 C1431 1.344 . S
O1433 Co1425 2.055 . S
O1433 C1437 1.253 . S
H1434 C1430 0.931 . S
H1435 C1431 0.930 . S
O1436 Co1425 2.039 . S
O1436 C1426 1.265 . S
C1437 O1433 1.253 . S
C1437 O1438 1.227 . S
O1438 C1437 1.227 . S
N1439 Co1425 2.140 . S
N1439 C1442 1.346 . S
N1439 C1443 1.345 . S
C1440 C1441 1.387 . S
C1440 C1444 1.391 . S
C1441 C1440 1.387 . S
C1441 C1442 1.369 . S
C1441 H1450 0.929 . S
C1442 N1439 1.346 . S
C1442 C1441 1.369 . S
C1442 H1445 0.928 . S
C1443 N1439 1.345 . S
C1443 C1444 1.371 . S
C1443 H1446 0.931 . S
C1444 C1440 1.391 . S
C1444 C1443 1.371 . S
C1444 H1451 0.930 . S
H1445 C1442 0.928 . S
H1446 C1443 0.931 . S
H1447 C1423 0.930 . S
H1448 C1420 0.930 . S
H1449 C1429 0.930 . S
H1450 C1441 0.929 . S
H1451 C1444 0.930 . S
C1452 C1453 1.351 . S
C1452 N1455 1.368 . S
C1452 H1457 0.931 . S
C1453 C1452 1.351 . S
C1453 N1454 1.373 . S
C1453 H1481 0.930 . S
N1454 C1453 1.373 . S
N1454 C1456 1.340 . S
N1455 C1452 1.368 . S
N1455 C1456 1.321 . S
N1455 Co1458 2.135 . S
C1456 N1454 1.340 . S
C1456 N1455 1.321 . S
C1456 H1480 0.930 . S
H1457 C1452 0.931 . S
Co1458 N1455 2.135 . S
Co1458 N1461 2.121 . S
Co1458 O1466 2.055 . S
Co1458 O1469 2.039 . S
Co1458 N1472 2.140 . S
C1459 O1460 1.227 . S
C1459 O1469 1.265 . S
O1460 C1459 1.227 . S
N1461 Co1458 2.121 . S
N1461 C1463 1.375 . S
N1461 C1464 1.313 . S
C1462 C1463 1.338 . S
C1462 N1465 1.377 . S
C1462 H1482 0.930 . S
C1463 N1461 1.375 . S
C1463 C1462 1.338 . S
C1463 H1467 0.931 . S
C1464 N1461 1.313 . S
C1464 N1465 1.344 . S
C1464 H1468 0.930 . S
N1465 C1462 1.377 . S
N1465 C1464 1.344 . S
O1466 Co1458 2.055 . S
O1466 C1470 1.253 . S
H1467 C1463 0.931 . S
H1468 C1464 0.930 . S
O1469 Co1458 2.039 . S
O1469 C1459 1.265 . S
C1470 O1466 1.253 . S
C1470 O1471 1.227 . S
O1471 C1470 1.227 . S
N1472 Co1458 2.140 . S
N1472 C1475 1.346 . S
N1472 C1476 1.345 . S
C1473 C1474 1.387 . S
C1473 C1477 1.391 . S
C1474 C1473 1.387 . S
C1474 C1475 1.369 . S
C1474 H1483 0.929 . S
C1475 N1472 1.346 . S
C1475 C1474 1.369 . S
C1475 H1478 0.928 . S
C1476 N1472 1.345 . S
C1476 C1477 1.371 . S
C1476 H1479 0.931 . S
C1477 C1473 1.391 . S
C1477 C1476 1.371 . S
C1477 H1484 0.930 . S
H1478 C1475 0.928 . S
H1479 C1476 0.931 . S
H1480 C1456 0.930 . S
H1481 C1453 0.930 . S
H1482 C1462 0.930 . S
H1483 C1474 0.929 . S
H1484 C1477 0.930 . S
C1485 C1486 1.351 . S
C1485 N1488 1.368 . S
C1485 H1490 0.931 . S
C1486 C1485 1.351 . S
C1486 N1487 1.373 . S
C1486 H1514 0.930 . S
N1487 C1486 1.373 . S
N1487 C1489 1.340 . S
N1488 C1485 1.368 . S
N1488 C1489 1.321 . S
N1488 Co1491 2.135 . S
C1489 N1487 1.340 . S
C1489 N1488 1.321 . S
C1489 H1513 0.930 . S
H1490 C1485 0.931 . S
Co1491 N1488 2.135 . S
Co1491 N1494 2.121 . S
Co1491 O1499 2.055 . S
Co1491 O1502 2.039 . S
Co1491 N1505 2.140 . S
C1492 O1493 1.227 . S
C1492 O1502 1.265 . S
O1493 C1492 1.227 . S
N1494 Co1491 2.121 . S
N1494 C1496 1.375 . S
N1494 C1497 1.313 . S
C1495 C1496 1.338 . S
C1495 N1498 1.377 . S
C1495 H1515 0.930 . S
C1496 N1494 1.375 . S
C1496 C1495 1.338 . S
C1496 H1500 0.931 . S
C1497 N1494 1.313 . S
C1497 N1498 1.344 . S
C1497 H1501 0.930 . S
N1498 C1495 1.377 . S
N1498 C1497 1.344 . S
O1499 Co1491 2.055 . S
O1499 C1503 1.253 . S
H1500 C1496 0.931 . S
H1501 C1497 0.930 . S
O1502 Co1491 2.039 . S
O1502 C1492 1.265 . S
C1503 O1499 1.253 . S
C1503 O1504 1.227 . S
O1504 C1503 1.227 . S
N1505 Co1491 2.140 . S
N1505 C1508 1.346 . S
N1505 C1509 1.345 . S
C1506 C1507 1.387 . S
C1506 C1510 1.391 . S
C1507 C1506 1.387 . S
C1507 C1508 1.369 . S
C1507 H1516 0.929 . S
C1508 N1505 1.346 . S
C1508 C1507 1.369 . S
C1508 H1511 0.928 . S
C1509 N1505 1.345 . S
C1509 C1510 1.371 . S
C1509 H1512 0.931 . S
C1510 C1506 1.391 . S
C1510 C1509 1.371 . S
C1510 H1517 0.930 . S
H1511 C1508 0.928 . S
H1512 C1509 0.931 . S
H1513 C1489 0.930 . S
H1514 C1486 0.930 . S
H1515 C1495 0.930 . S
H1516 C1507 0.929 . S
H1517 C1510 0.930 . S
C1518 C1519 1.351 . S
C1518 N1521 1.368 . S
C1518 H1523 0.931 . S
C1519 C1518 1.351 . S
C1519 N1520 1.373 . S
C1519 H1547 0.930 . S
N1520 C1519 1.373 . S
N1520 C1522 1.340 . S
N1521 C1518 1.368 . S
N1521 C1522 1.321 . S
N1521 Co1524 2.135 . S
C1522 N1520 1.340 . S
C1522 N1521 1.321 . S
C1522 H1546 0.930 . S
H1523 C1518 0.931 . S
Co1524 N1521 2.135 . S
Co1524 N1527 2.121 . S
Co1524 O1532 2.055 . S
Co1524 O1535 2.039 . S
Co1524 N1538 2.140 . S
C1525 O1526 1.227 . S
C1525 O1535 1.265 . S
O1526 C1525 1.227 . S
N1527 Co1524 2.121 . S
N1527 C1529 1.375 . S
N1527 C1530 1.313 . S
C1528 C1529 1.338 . S
C1528 N1531 1.377 . S
C1528 H1548 0.930 . S
C1529 N1527 1.375 . S
C1529 C1528 1.338 . S
C1529 H1533 0.931 . S
C1530 N1527 1.313 . S
C1530 N1531 1.344 . S
C1530 H1534 0.930 . S
N1531 C1528 1.377 . S
N1531 C1530 1.344 . S
O1532 Co1524 2.055 . S
O1532 C1536 1.253 . S
H1533 C1529 0.931 . S
H1534 C1530 0.930 . S
O1535 Co1524 2.039 . S
O1535 C1525 1.265 . S
C1536 O1532 1.253 . S
C1536 O1537 1.227 . S
O1537 C1536 1.227 . S
N1538 Co1524 2.140 . S
N1538 C1541 1.346 . S
N1538 C1542 1.345 . S
C1539 C1540 1.387 . S
C1539 C1543 1.391 . S
C1540 C1539 1.387 . S
C1540 C1541 1.369 . S
C1540 H1549 0.929 . S
C1541 N1538 1.346 . S
C1541 C1540 1.369 . S
C1541 H1544 0.928 . S
C1542 N1538 1.345 . S
C1542 C1543 1.371 . S
C1542 H1545 0.931 . S
C1543 C1539 1.391 . S
C1543 C1542 1.371 . S
C1543 H1550 0.930 . S
H1544 C1541 0.928 . S
H1545 C1542 0.931 . S
H1546 C1522 0.930 . S
H1547 C1519 0.930 . S
H1548 C1528 0.930 . S
H1549 C1540 0.929 . S
H1550 C1543 0.930 . S
C1551 C1552 1.351 . S
C1551 N1554 1.368 . S
C1551 H1556 0.931 . S
C1552 C1551 1.351 . S
C1552 N1553 1.373 . S
C1552 H1580 0.930 . S
N1553 C1552 1.373 . S
N1553 C1555 1.340 . S
N1554 C1551 1.368 . S
N1554 C1555 1.321 . S
N1554 Co1557 2.135 . S
C1555 N1553 1.340 . S
C1555 N1554 1.321 . S
C1555 H1579 0.930 . S
H1556 C1551 0.931 . S
Co1557 N1554 2.135 . S
Co1557 N1560 2.121 . S
Co1557 O1565 2.055 . S
Co1557 O1568 2.039 . S
Co1557 N1571 2.140 . S
C1558 O1559 1.227 . S
C1558 O1568 1.265 . S
O1559 C1558 1.227 . S
N1560 Co1557 2.121 . S
N1560 C1562 1.375 . S
N1560 C1563 1.313 . S
C1561 C1562 1.338 . S
C1561 N1564 1.377 . S
C1561 H1581 0.930 . S
C1562 N1560 1.375 . S
C1562 C1561 1.338 . S
C1562 H1566 0.931 . S
C1563 N1560 1.313 . S
C1563 N1564 1.344 . S
C1563 H1567 0.930 . S
N1564 C1561 1.377 . S
N1564 C1563 1.344 . S
O1565 Co1557 2.055 . S
O1565 C1569 1.253 . S
H1566 C1562 0.931 . S
H1567 C1563 0.930 . S
O1568 Co1557 2.039 . S
O1568 C1558 1.265 . S
C1569 O1565 1.253 . S
C1569 O1570 1.227 . S
O1570 C1569 1.227 . S
N1571 Co1557 2.140 . S
N1571 C1574 1.346 . S
N1571 C1575 1.345 . S
C1572 C1573 1.387 . S
C1572 C1576 1.391 . S
C1573 C1572 1.387 . S
C1573 C1574 1.369 . S
C1573 H1582 0.929 . S
C1574 N1571 1.346 . S
C1574 C1573 1.369 . S
C1574 H1577 0.928 . S
C1575 N1571 1.345 . S
C1575 C1576 1.371 . S
C1575 H1578 0.931 . S
C1576 C1572 1.391 . S
C1576 C1575 1.371 . S
C1576 H1583 0.930 . S
H1577 C1574 0.928 . S
H1578 C1575 0.931 . S
H1579 C1555 0.930 . S
H1580 C1552 0.930 . S
H1581 C1561 0.930 . S
H1582 C1573 0.929 . S
H1583 C1576 0.930 . S
H1584 C1590 0.930 . S
H1585 C1594 0.930 . S
H1586 C1599 0.929 . S
H1587 C1597 0.929 . S
H1588 C1592 0.929 . S
H1589 C1598 0.929 . S
C1590 H1584 0.930 . S
C1590 C1591 1.367 . S
C1590 C1598 1.378 1_556 S
C1591 C1590 1.367 . S
C1591 C1599 1.433 . S
C1592 H1588 0.929 . S
C1592 C1594 1.378 . S
C1592 C1596 1.350 . S
C1593 C1596 1.463 . S
C1593 C1598 1.350 . S
C1593 N1601 1.427 . S
C1594 H1585 0.930 . S
C1594 C1592 1.378 . S
C1594 C1595 1.367 . S
C1595 C1594 1.367 . S
C1595 C1597 1.433 . S
C1596 C1592 1.350 . S
C1596 C1593 1.463 . S
C1596 N1600 1.427 . S
C1597 H1587 0.929 . S
C1597 C1595 1.433 . S
C1597 N1600 1.384 . S
C1598 H1589 0.929 . S
C1598 C1590 1.378 1_554 S
C1598 C1593 1.350 . S
C1599 H1586 0.929 . S
C1599 C1591 1.433 . S
C1599 N1601 1.384 1_556 S
N1600 C1596 1.427 . S
N1600 C1597 1.384 . S
N1601 C1593 1.427 . S
N1601 C1599 1.384 1_554 S
H1602 C1608 0.930 . S
H1603 C1612 0.930 . S
H1604 C1617 0.929 . S
H1605 C1615 0.929 . S
H1606 C1610 0.929 . S
H1607 C1616 0.929 . S
C1608 H1602 0.930 . S
C1608 C1609 1.367 . S
C1608 C1616 1.378 . S
C1609 C1608 1.367 . S
C1609 C1617 1.433 . S
C1610 H1606 0.929 . S
C1610 C1612 1.378 1_554 S
C1610 C1614 1.350 . S
C1611 C1614 1.463 . S
C1611 C1616 1.350 . S
C1611 N1619 1.427 . S
C1612 H1603 0.930 . S
C1612 C1610 1.378 1_556 S
C1612 C1613 1.367 . S
C1613 C1612 1.367 . S
C1613 C1615 1.433 . S
C1614 C1610 1.350 . S
C1614 C1611 1.463 . S
C1614 N1618 1.427 . S
C1615 H1605 0.929 . S
C1615 C1613 1.433 . S
C1615 N1618 1.384 1_556 S
C1616 H1607 0.929 . S
C1616 C1608 1.378 . S
C1616 C1611 1.350 . S
C1617 H1604 0.929 . S
C1617 C1609 1.433 . S
C1617 N1619 1.384 . S
N1618 C1614 1.427 . S
N1618 C1615 1.384 1_554 S
N1619 C1611 1.427 . S
N1619 C1617 1.384 . S
H1620 C1626 0.930 . S
H1621 C1630 0.930 . S
H1622 C1635 0.929 . S
H1623 C1633 0.929 . S
H1624 C1628 0.929 . S
H1625 C1634 0.929 . S
C1626 H1620 0.930 . S
C1626 C1627 1.367 . S
C1626 C1634 1.378 . S
C1627 C1626 1.367 . S
C1627 C1635 1.433 . S
C1628 H1624 0.929 . S
C1628 C1630 1.378 1_554 S
C1628 C1632 1.350 . S
C1629 C1632 1.463 . S
C1629 C1634 1.350 . S
C1629 N1637 1.427 . S
C1630 H1621 0.930 . S
C1630 C1628 1.378 1_556 S
C1630 C1631 1.367 . S
C1631 C1630 1.367 . S
C1631 C1633 1.433 . S
C1632 C1628 1.350 . S
C1632 C1629 1.463 . S
C1632 N1636 1.427 . S
C1633 H1623 0.929 . S
C1633 C1631 1.433 . S
C1633 N1636 1.384 1_556 S
C1634 H1625 0.929 . S
C1634 C1626 1.378 . S
C1634 C1629 1.350 . S
C1635 H1622 0.929 . S
C1635 C1627 1.433 . S
C1635 N1637 1.384 . S
N1636 C1632 1.427 . S
N1636 C1633 1.384 1_554 S
N1637 C1629 1.427 . S
N1637 C1635 1.384 . S
H1638 C1644 0.930 . S
H1639 C1648 0.930 . S
H1640 C1653 0.929 . S
H1641 C1651 0.929 . S
H1642 C1646 0.929 . S
H1643 C1652 0.929 . S
C1644 H1638 0.930 . S
C1644 C1645 1.367 . S
C1644 C1652 1.378 1_556 S
C1645 C1644 1.367 . S
C1645 C1653 1.433 . S
C1646 H1642 0.929 . S
C1646 C1648 1.378 . S
C1646 C1650 1.350 . S
C1647 C1650 1.463 . S
C1647 C1652 1.350 . S
C1647 N1655 1.463 . S
C1648 H1639 0.930 . S
C1648 C1646 1.378 . S
C1648 C1649 1.367 . S
C1649 C1648 1.367 . S
C1649 C1651 1.433 . S
C1650 C1646 1.350 . S
C1650 C1647 1.463 . S
C1650 N1654 1.427 . S
C1651 H1641 0.929 . S
C1651 C1649 1.433 . S
C1651 N1654 1.384 . S
C1652 H1643 0.929 . S
C1652 C1644 1.378 1_554 S
C1652 C1647 1.350 . S
C1653 H1640 0.929 . S
C1653 C1645 1.433 . S
C1653 N1655 1.332 1_556 S
N1654 C1650 1.427 . S
N1654 C1651 1.384 . S
N1655 C1647 1.463 . S
N1655 C1653 1.332 1_554 S
H1656 C1662 0.930 . S
H1657 C1666 0.930 . S
H1658 C1671 0.929 . S
H1659 C1669 0.929 . S
H1660 C1664 0.929 . S
H1661 C1670 0.929 . S
C1662 H1656 0.930 . S
C1662 C1663 1.367 . S
C1662 C1670 1.378 1_554 S
C1663 C1662 1.367 . S
C1663 C1671 1.433 . S
C1664 H1660 0.929 . S
C1664 C1666 1.378 . S
C1664 C1668 1.350 . S
C1665 C1668 1.463 . S
C1665 C1670 1.350 . S
C1665 N1673 1.427 . S
C1666 H1657 0.930 . S
C1666 C1664 1.378 . S
C1666 C1667 1.367 . S
C1667 C1666 1.367 . S
C1667 C1669 1.433 . S
C1668 C1664 1.350 . S
C1668 C1665 1.463 . S
C1668 N1672 1.427 . S
C1669 H1659 0.929 . S
C1669 C1667 1.433 . S
C1669 N1672 1.384 . S
C1670 H1661 0.929 . S
C1670 C1662 1.378 1_556 S
C1670 C1665 1.350 . S
C1671 H1658 0.929 . S
C1671 C1663 1.433 . S
C1671 N1673 1.384 1_554 S
N1672 C1668 1.427 . S
N1672 C1669 1.384 . S
N1673 C1665 1.427 . S
N1673 C1671 1.384 1_556 S
H1674 C1680 0.930 . S
H1675 C1684 0.930 . S
H1676 C1689 0.929 . S
H1677 C1687 0.929 . S
H1678 C1682 0.929 . S
H1679 C1688 0.929 . S
C1680 H1674 0.930 . S
C1680 C1681 1.367 . S
C1680 C1688 1.378 . S
C1681 C1680 1.367 . S
C1681 C1689 1.433 . S
C1682 H1678 0.929 . S
C1682 C1684 1.378 1_556 S
C1682 C1686 1.350 . S
C1683 C1686 1.463 . S
C1683 C1688 1.350 . S
C1683 N1691 1.427 . S
C1684 H1675 0.930 . S
C1684 C1682 1.378 1_554 S
C1684 C1685 1.367 . S
C1685 C1684 1.367 . S
C1685 C1687 1.433 . S
C1686 C1682 1.350 . S
C1686 C1683 1.463 . S
C1686 N1690 1.427 . S
C1687 H1677 0.929 . S
C1687 C1685 1.433 . S
C1687 N1690 1.384 1_554 S
C1688 H1679 0.929 . S
C1688 C1680 1.378 . S
C1688 C1683 1.350 . S
C1689 H1676 0.929 . S
C1689 C1681 1.433 . S
C1689 N1691 1.384 . S
N1690 C1686 1.427 . S
N1690 C1687 1.384 1_556 S
N1691 C1683 1.427 . S
N1691 C1689 1.384 . S
H1692 C1698 0.930 . S
H1693 C1702 0.930 . S
H1694 C1707 0.929 . S
H1695 C1705 0.929 . S
H1696 C1700 0.929 . S
H1697 C1706 0.929 . S
C1698 H1692 0.930 . S
C1698 C1699 1.367 . S
C1698 C1706 1.378 1_554 S
C1699 C1698 1.367 . S
C1699 C1707 1.433 . S
C1700 H1696 0.929 . S
C1700 C1702 1.378 . S
C1700 C1704 1.350 . S
C1701 C1704 1.463 . S
C1701 C1706 1.350 . S
C1701 N1709 1.427 . S
C1702 H1693 0.930 . S
C1702 C1700 1.378 . S
C1702 C1703 1.367 . S
C1703 C1702 1.367 . S
C1703 C1705 1.433 . S
C1704 C1700 1.350 . S
C1704 C1701 1.463 . S
C1704 N1708 1.427 . S
C1705 H1695 0.929 . S
C1705 C1703 1.433 . S
C1705 N1708 1.384 . S
C1706 H1697 0.929 . S
C1706 C1698 1.378 1_556 S
C1706 C1701 1.350 . S
C1707 H1694 0.929 . S
C1707 C1699 1.433 . S
C1707 N1709 1.384 1_554 S
N1708 C1704 1.427 . S
N1708 C1705 1.384 . S
N1709 C1701 1.427 . S
N1709 C1707 1.384 1_556 S
H1710 C1716 0.930 . S
H1711 C1720 0.930 . S
H1712 C1725 0.929 . S
H1713 C1723 0.929 . S
H1714 C1718 0.929 . S
H1715 C1724 0.929 . S
C1716 H1710 0.930 . S
C1716 C1717 1.367 . S
C1716 C1724 1.378 1_554 S
C1717 C1716 1.367 . S
C1717 C1725 1.433 . S
C1718 H1714 0.929 . S
C1718 C1720 1.378 . S
C1718 C1722 1.350 . S
C1719 C1722 1.463 . S
C1719 C1724 1.350 . S
C1719 N1727 1.427 . S
C1720 H1711 0.930 . S
C1720 C1718 1.378 . S
C1720 C1721 1.367 . S
C1721 C1720 1.367 . S
C1721 C1723 1.433 . S
C1722 C1718 1.350 . S
C1722 C1719 1.463 . S
C1722 N1726 1.427 . S
C1723 H1713 0.929 . S
C1723 C1721 1.433 . S
C1723 N1726 1.384 . S
C1724 H1715 0.929 . S
C1724 C1716 1.378 1_556 S
C1724 C1719 1.350 . S
C1725 H1712 0.929 . S
C1725 C1717 1.433 . S
C1725 N1727 1.384 1_554 S
N1726 C1722 1.427 . S
N1726 C1723 1.384 . S
N1727 C1719 1.427 . S
N1727 C1725 1.384 1_556 S
H1728 C1734 0.930 . S
H1729 C1738 0.930 . S
H1730 C1743 0.929 . S
H1731 C1741 0.929 . S
H1732 C1736 0.929 . S
H1733 C1742 0.929 . S
C1734 H1728 0.930 . S
C1734 C1735 1.367 . S
C1734 C1742 1.378 . S
C1735 C1734 1.367 . S
C1735 C1743 1.433 . S
C1736 H1732 0.929 . S
C1736 C1738 1.378 1_455 S
C1736 C1740 1.350 . S
C1737 C1740 1.463 . S
C1737 C1742 1.350 . S
C1737 N1745 1.427 . S
C1738 H1729 0.930 . S
C1738 C1736 1.378 1_655 S
C1738 C1739 1.367 . S
C1739 C1738 1.367 . S
C1739 C1741 1.433 . S
C1740 C1736 1.350 . S
C1740 C1737 1.463 . S
C1740 N1744 1.427 . S
C1741 H1731 0.929 . S
C1741 C1739 1.433 . S
C1741 N1744 1.384 1_655 S
C1742 H1733 0.929 . S
C1742 C1734 1.378 . S
C1742 C1737 1.350 . S
C1743 H1730 0.929 . S
C1743 C1735 1.433 . S
C1743 N1745 1.384 . S
N1744 C1740 1.427 . S
N1744 C1741 1.384 1_455 S
N1745 C1737 1.427 . S
N1745 C1743 1.384 . S
H1746 C1752 0.930 . S
H1747 C1756 0.930 . S
H1748 C1761 0.929 . S
H1749 C1759 0.929 . S
H1750 C1754 0.929 . S
H1751 C1760 0.929 . S
C1752 H1746 0.930 . S
C1752 C1753 1.367 . S
C1752 C1760 1.378 1_565 S
C1753 C1752 1.367 . S
C1753 C1761 1.433 . S
C1754 H1750 0.929 . S
C1754 C1756 1.378 . S
C1754 C1758 1.350 . S
C1755 C1758 1.463 . S
C1755 C1760 1.350 . S
C1755 N1763 1.427 . S
C1756 H1747 0.930 . S
C1756 C1754 1.378 . S
C1756 C1757 1.367 . S
C1757 C1756 1.367 . S
C1757 C1759 1.433 . S
C1758 C1754 1.350 . S
C1758 C1755 1.463 . S
C1758 N1762 1.427 . S
C1759 H1749 0.929 . S
C1759 C1757 1.433 . S
C1759 N1762 1.384 . S
C1760 H1751 0.929 . S
C1760 C1752 1.378 1_545 S
C1760 C1755 1.350 . S
C1761 H1748 0.929 . S
C1761 C1753 1.433 . S
C1761 N1763 1.384 1_565 S
N1762 C1758 1.427 . S
N1762 C1759 1.384 . S
N1763 C1755 1.427 . S
N1763 C1761 1.384 1_545 S
H1764 C1770 0.930 . S
H1765 C1774 0.930 . S
H1766 C1779 0.929 . S
H1767 C1777 0.929 . S
H1768 C1772 0.929 . S
H1769 C1778 0.929 . S
C1770 H1764 0.930 . S
C1770 C1771 1.367 . S
C1770 C1778 1.378 1_455 S
C1771 C1770 1.367 . S
C1771 C1779 1.433 . S
C1772 H1768 0.929 . S
C1772 C1774 1.378 . S
C1772 C1776 1.350 . S
C1773 C1776 1.463 . S
C1773 C1778 1.350 . S
C1773 N1781 1.427 . S
C1774 H1765 0.930 . S
C1774 C1772 1.378 . S
C1774 C1775 1.367 . S
C1775 C1774 1.367 . S
C1775 C1777 1.433 . S
C1776 C1772 1.350 . S
C1776 C1773 1.463 . S
C1776 N1780 1.427 . S
C1777 H1767 0.929 . S
C1777 C1775 1.433 . S
C1777 N1780 1.384 . S
C1778 H1769 0.929 . S
C1778 C1770 1.378 1_655 S
C1778 C1773 1.350 . S
C1779 H1766 0.929 . S
C1779 C1771 1.433 . S
C1779 N1781 1.384 1_455 S
N1780 C1776 1.427 . S
N1780 C1777 1.384 . S
N1781 C1773 1.427 . S
N1781 C1779 1.384 1_655 S
H1782 C1788 0.930 . S
H1783 C1792 0.930 . S
H1784 C1797 0.929 . S
H1785 C1795 0.929 . S
H1786 C1790 0.929 . S
H1787 C1796 0.929 . S
C1788 H1782 0.930 . S
C1788 C1789 1.367 . S
C1788 C1796 1.378 . S
C1789 C1788 1.367 . S
C1789 C1797 1.433 . S
C1790 H1786 0.929 . S
C1790 C1792 1.378 1_565 S
C1790 C1794 1.350 . S
C1791 C1794 1.463 . S
C1791 C1796 1.350 . S
C1791 N1799 1.427 . S
C1792 H1783 0.930 . S
C1792 C1790 1.378 1_545 S
C1792 C1793 1.367 . S
C1793 C1792 1.367 . S
C1793 C1795 1.433 . S
C1794 C1790 1.350 . S
C1794 C1791 1.463 . S
C1794 N1798 1.427 . S
C1795 H1785 0.929 . S
C1795 C1793 1.433 . S
C1795 N1798 1.384 1_545 S
C1796 H1787 0.929 . S
C1796 C1788 1.378 . S
C1796 C1791 1.350 . S
C1797 H1784 0.929 . S
C1797 C1789 1.433 . S
C1797 N1799 1.384 . S
N1798 C1794 1.427 . S
N1798 C1795 1.384 1_565 S
N1799 C1791 1.427 . S
N1799 C1797 1.384 . S
H1800 C1806 0.930 . S
H1801 C1810 0.930 . S
H1802 C1815 0.929 . S
H1803 C1813 0.929 . S
H1804 C1808 0.929 . S
H1805 C1814 0.945 . S
C1806 H1800 0.930 . S
C1806 C1807 1.367 . S
C1806 C1814 1.325 1_655 S
C1807 C1806 1.367 . S
C1807 C1815 1.433 . S
C1808 H1804 0.929 . S
C1808 C1810 1.378 . S
C1808 C1812 1.350 . S
C1809 C1812 1.463 . S
C1809 C1814 1.388 . S
C1809 N1817 1.427 . S
C1810 H1801 0.930 . S
C1810 C1808 1.378 . S
C1810 C1811 1.367 . S
C1811 C1810 1.367 . S
C1811 C1813 1.433 . S
C1812 C1808 1.350 . S
C1812 C1809 1.463 . S
C1812 N1816 1.427 . S
C1813 H1803 0.929 . S
C1813 C1811 1.433 . S
C1813 N1816 1.384 . S
C1814 H1805 0.945 . S
C1814 C1806 1.325 1_455 S
C1814 C1809 1.388 . S
C1815 H1802 0.929 . S
C1815 C1807 1.433 . S
C1815 N1817 1.384 1_655 S
N1816 C1812 1.427 . S
N1816 C1813 1.384 . S
N1817 C1809 1.427 . S
N1817 C1815 1.384 1_455 S
H1818 C1824 0.930 . S
H1819 C1828 0.930 . S
H1820 C1833 0.929 . S
H1821 C1831 0.929 . S
H1822 C1826 0.929 . S
H1823 C1832 0.929 . S
C1824 H1818 0.930 . S
C1824 C1825 1.367 . S
C1824 C1832 1.378 . S
C1825 C1824 1.367 . S
C1825 C1833 1.433 . S
C1826 H1822 0.929 . S
C1826 C1828 1.378 1_545 S
C1826 C1830 1.350 . S
C1827 C1830 1.463 . S
C1827 C1832 1.350 . S
C1827 N1835 1.427 . S
C1828 H1819 0.930 . S
C1828 C1826 1.378 1_565 S
C1828 C1829 1.367 . S
C1829 C1828 1.367 . S
C1829 C1831 1.433 . S
C1830 C1826 1.350 . S
C1830 C1827 1.463 . S
C1830 N1834 1.427 . S
C1831 H1821 0.929 . S
C1831 C1829 1.433 . S
C1831 N1834 1.384 1_565 S
C1832 H1823 0.929 . S
C1832 C1824 1.378 . S
C1832 C1827 1.350 . S
C1833 H1820 0.929 . S
C1833 C1825 1.433 . S
C1833 N1835 1.384 . S
N1834 C1830 1.427 . S
N1834 C1831 1.384 1_545 S
N1835 C1827 1.427 . S
N1835 C1833 1.384 . S
H1836 C1842 0.930 . S
H1837 C1846 0.930 . S
H1838 C1851 0.929 . S
H1839 C1849 0.929 . S
H1840 C1844 0.929 . S
H1841 C1850 0.929 . S
C1842 H1836 0.930 . S
C1842 C1843 1.367 . S
C1842 C1850 1.378 1_455 S
C1843 C1842 1.367 . S
C1843 C1851 1.433 . S
C1844 H1840 0.929 . S
C1844 C1846 1.378 . S
C1844 C1848 1.350 . S
C1845 C1848 1.463 . S
C1845 C1850 1.350 . S
C1845 N1853 1.427 . S
C1846 H1837 0.930 . S
C1846 C1844 1.378 . S
C1846 C1847 1.367 . S
C1847 C1846 1.367 . S
C1847 C1849 1.433 . S
C1848 C1844 1.350 . S
C1848 C1845 1.463 . S
C1848 N1852 1.427 . S
C1849 H1839 0.929 . S
C1849 C1847 1.433 . S
C1849 N1852 1.384 . S
C1850 H1841 0.929 . S
C1850 C1842 1.378 1_655 S
C1850 C1845 1.350 . S
C1851 H1838 0.929 . S
C1851 C1843 1.433 . S
C1851 N1853 1.384 1_455 S
N1852 C1848 1.427 . S
N1852 C1849 1.384 . S
N1853 C1845 1.427 . S
N1853 C1851 1.384 1_655 S
H1854 C1860 0.930 . S
H1855 C1864 0.930 . S
H1856 C1869 0.929 . S
H1857 C1867 0.929 . S
H1858 C1862 0.929 . S
H1859 C1868 0.929 . S
C1860 H1854 0.930 . S
C1860 C1861 1.367 . S
C1860 C1868 1.378 1_545 S
C1861 C1860 1.367 . S
C1861 C1869 1.433 . S
C1862 H1858 0.929 . S
C1862 C1864 1.378 . S
C1862 C1866 1.350 . S
C1863 C1866 1.463 . S
C1863 C1868 1.350 . S
C1863 N1871 1.444 . S
C1864 H1855 0.930 . S
C1864 C1862 1.378 . S
C1864 C1865 1.367 . S
C1865 C1864 1.367 . S
C1865 C1867 1.433 . S
C1866 C1862 1.350 . S
C1866 C1863 1.463 . S
C1866 N1870 1.427 . S
C1867 H1857 0.929 . S
C1867 C1865 1.433 . S
C1867 N1870 1.384 . S
C1868 H1859 0.929 . S
C1868 C1860 1.378 1_565 S
C1868 C1863 1.350 . S
C1869 H1856 0.929 . S
C1869 C1861 1.433 . S
C1869 N1871 1.360 1_545 S
N1870 C1866 1.427 . S
N1870 C1867 1.384 . S
N1871 C1863 1.444 . S
N1871 C1869 1.360 1_565 S
H1872 C1878 0.930 . S
H1873 C1882 0.930 . S
H1874 C1887 0.929 . S
H1875 C1885 0.929 . S
H1876 C1880 0.929 . S
H1877 C1886 0.929 . S
C1878 H1872 0.930 . S
C1878 C1879 1.367 . S
C1878 C1886 1.378 . S
C1879 C1878 1.367 . S
C1879 C1887 1.433 . S
C1880 H1876 0.929 . S
C1880 C1882 1.378 1_545 S
C1880 C1884 1.350 . S
C1881 C1884 1.463 . S
C1881 C1886 1.350 . S
C1881 N1889 1.427 . S
C1882 H1873 0.930 . S
C1882 C1880 1.378 1_565 S
C1882 C1883 1.367 . S
C1883 C1882 1.367 . S
C1883 C1885 1.433 . S
C1884 C1880 1.350 . S
C1884 C1881 1.463 . S
C1884 N1888 1.442 . S
C1885 H1875 0.929 . S
C1885 C1883 1.433 . S
C1885 N1888 1.362 1_565 S
C1886 H1877 0.929 . S
C1886 C1878 1.378 . S
C1886 C1881 1.350 . S
C1887 H1874 0.929 . S
C1887 C1879 1.433 . S
C1887 N1889 1.384 . S
N1888 C1884 1.442 . S
N1888 C1885 1.362 1_545 S
N1889 C1881 1.427 . S
N1889 C1887 1.384 . S
H1890 C1896 0.930 . S
H1891 C1900 0.930 . S
H1892 C1905 0.929 . S
H1893 C1903 0.929 . S
H1894 C1898 0.929 . S
H1895 C1904 0.946 . S
C1896 H1890 0.930 . S
C1896 C1897 1.367 . S
C1896 C1904 1.323 1_545 S
C1897 C1896 1.367 . S
C1897 C1905 1.433 . S
C1898 H1894 0.929 . S
C1898 C1900 1.378 . S
C1898 C1902 1.350 . S
C1899 C1902 1.463 . S
C1899 C1904 1.389 . S
C1899 N1907 1.427 . S
C1900 H1891 0.930 . S
C1900 C1898 1.378 . S
C1900 C1901 1.367 . S
C1901 C1900 1.367 . S
C1901 C1903 1.433 . S
C1902 C1898 1.350 . S
C1902 C1899 1.463 . S
C1902 N1906 1.427 . S
C1903 H1893 0.929 . S
C1903 C1901 1.433 . S
C1903 N1906 1.384 . S
C1904 H1895 0.946 . S
C1904 C1896 1.323 1_565 S
C1904 C1899 1.389 . S
C1905 H1892 0.929 . S
C1905 C1897 1.433 . S
C1905 N1907 1.384 1_545 S
N1906 C1902 1.427 . S
N1906 C1903 1.384 . S
N1907 C1899 1.427 . S
N1907 C1905 1.384 1_565 S
H1908 C1914 0.930 . S
H1909 C1918 0.930 . S
H1910 C1923 0.929 . S
H1911 C1921 0.929 . S
H1912 C1916 0.929 . S
H1913 C1922 0.929 . S
C1914 H1908 0.930 . S
C1914 C1915 1.367 . S
C1914 C1922 1.378 . S
C1915 C1914 1.367 . S
C1915 C1923 1.433 . S
C1916 H1912 0.929 . S
C1916 C1918 1.378 1_455 S
C1916 C1920 1.350 . S
C1917 C1920 1.463 . S
C1917 C1922 1.350 . S
C1917 N1925 1.427 . S
C1918 H1909 0.930 . S
C1918 C1916 1.378 1_655 S
C1918 C1919 1.367 . S
C1919 C1918 1.367 . S
C1919 C1921 1.433 . S
C1920 C1916 1.350 . S
C1920 C1917 1.463 . S
C1920 N1924 1.427 . S
C1921 H1911 0.929 . S
C1921 C1919 1.433 . S
C1921 N1924 1.384 1_655 S
C1922 H1913 0.929 . S
C1922 C1914 1.378 . S
C1922 C1917 1.350 . S
C1923 H1910 0.929 . S
C1923 C1915 1.433 . S
C1923 N1925 1.384 . S
N1924 C1920 1.427 . S
N1924 C1921 1.384 1_455 S
N1925 C1917 1.427 . S
N1925 C1923 1.384 . S
H1926 C1932 0.930 . S
H1927 C1936 0.930 . S
H1928 C1941 0.929 . S
H1929 C1939 0.929 . S
H1930 C1934 0.929 . S
H1931 C1940 0.929 . S
C1932 H1926 0.930 . S
C1932 C1933 1.367 . S
C1932 C1940 1.378 1_565 S
C1933 C1932 1.367 . S
C1933 C1941 1.433 . S
C1934 H1930 0.929 . S
C1934 C1936 1.378 . S
C1934 C1938 1.350 . S
C1935 C1938 1.463 . S
C1935 C1940 1.350 . S
C1935 N1943 1.427 . S
C1936 H1927 0.930 . S
C1936 C1934 1.378 . S
C1936 C1937 1.367 . S
C1937 C1936 1.367 . S
C1937 C1939 1.433 . S
C1938 C1934 1.350 . S
C1938 C1935 1.463 . S
C1938 N1942 1.427 . S
C1939 H1929 0.929 . S
C1939 C1937 1.433 . S
C1939 N1942 1.384 . S
C1940 H1931 0.929 . S
C1940 C1932 1.378 1_545 S
C1940 C1935 1.350 . S
C1941 H1928 0.929 . S
C1941 C1933 1.433 . S
C1941 N1943 1.384 1_565 S
N1942 C1938 1.427 . S
N1942 C1939 1.384 . S
N1943 C1935 1.427 . S
N1943 C1941 1.384 1_545 S
H1944 C1950 0.930 . S
H1945 C1954 0.930 . S
H1946 C1959 0.929 . S
H1947 C1957 0.929 . S
H1948 C1952 0.929 . S
H1949 C1958 0.929 . S
C1950 H1944 0.930 . S
C1950 C1951 1.367 . S
C1950 C1958 1.378 1_455 S
C1951 C1950 1.367 . S
C1951 C1959 1.433 . S
C1952 H1948 0.929 . S
C1952 C1954 1.378 . S
C1952 C1956 1.350 . S
C1953 C1956 1.463 . S
C1953 C1958 1.350 . S
C1953 N1961 1.427 . S
C1954 H1945 0.930 . S
C1954 C1952 1.378 . S
C1954 C1955 1.367 . S
C1955 C1954 1.367 . S
C1955 C1957 1.433 . S
C1956 C1952 1.350 . S
C1956 C1953 1.463 . S
C1956 N1960 1.427 . S
C1957 H1947 0.929 . S
C1957 C1955 1.433 . S
C1957 N1960 1.384 . S
C1958 H1949 0.929 . S
C1958 C1950 1.378 1_655 S
C1958 C1953 1.350 . S
C1959 H1946 0.929 . S
C1959 C1951 1.433 . S
C1959 N1961 1.384 1_455 S
N1960 C1956 1.427 . S
N1960 C1957 1.384 . S
N1961 C1953 1.427 . S
N1961 C1959 1.384 1_655 S
H1962 C1968 0.930 . S
H1963 C1972 0.930 . S
H1964 C1977 0.929 . S
H1965 C1975 0.929 . S
H1966 C1970 0.929 . S
H1967 C1976 0.929 . S
C1968 H1962 0.930 . S
C1968 C1969 1.367 . S
C1968 C1976 1.378 . S
C1969 C1968 1.367 . S
C1969 C1977 1.433 . S
C1970 H1966 0.929 . S
C1970 C1972 1.378 1_565 S
C1970 C1974 1.350 . S
C1971 C1974 1.463 . S
C1971 C1976 1.350 . S
C1971 N1979 1.427 . S
C1972 H1963 0.930 . S
C1972 C1970 1.378 1_545 S
C1972 C1973 1.367 . S
C1973 C1972 1.367 . S
C1973 C1975 1.433 . S
C1974 C1970 1.350 . S
C1974 C1971 1.463 . S
C1974 N1978 1.427 . S
C1975 H1965 0.929 . S
C1975 C1973 1.433 . S
C1975 N1978 1.384 1_545 S
C1976 H1967 0.929 . S
C1976 C1968 1.378 . S
C1976 C1971 1.350 . S
C1977 H1964 0.929 . S
C1977 C1969 1.433 . S
C1977 N1979 1.384 . S
N1978 C1974 1.427 . S
N1978 C1975 1.384 1_565 S
N1979 C1971 1.427 . S
N1979 C1977 1.384 . S
H1980 C1986 0.930 . S
H1981 C1990 0.930 . S
H1982 C1995 0.929 . S
H1983 C1993 0.929 . S
H1984 C1988 0.929 . S
H1985 C1994 0.929 . S
C1986 H1980 0.930 . S
C1986 C1987 1.367 . S
C1986 C1994 1.378 . S
C1987 C1986 1.367 . S
C1987 C1995 1.433 . S
C1988 H1984 0.929 . S
C1988 C1990 1.378 1_455 S
C1988 C1992 1.350 . S
C1989 C1992 1.463 . S
C1989 C1994 1.350 . S
C1989 N1997 1.427 . S
C1990 H1981 0.930 . S
C1990 C1988 1.378 1_655 S
C1990 C1991 1.367 . S
C1991 C1990 1.367 . S
C1991 C1993 1.433 . S
C1992 C1988 1.350 . S
C1992 C1989 1.463 . S
C1992 N1996 1.427 . S
C1993 H1983 0.929 . S
C1993 C1991 1.433 . S
C1993 N1996 1.384 1_655 S
C1994 H1985 0.929 . S
C1994 C1986 1.378 . S
C1994 C1989 1.350 . S
C1995 H1982 0.929 . S
C1995 C1987 1.433 . S
C1995 N1997 1.384 . S
N1996 C1992 1.427 . S
N1996 C1993 1.384 1_455 S
N1997 C1989 1.427 . S
N1997 C1995 1.384 . S
H1998 C2004 0.930 . S
H1999 C2008 0.930 . S
H2000 C2013 0.929 . S
H2001 C2011 0.929 . S
H2002 C2006 0.929 . S
H2003 C2012 0.929 . S
C2004 H1998 0.930 . S
C2004 C2005 1.367 . S
C2004 C2012 1.378 1_455 S
C2005 C2004 1.367 . S
C2005 C2013 1.433 . S
C2006 H2002 0.929 . S
C2006 C2008 1.378 . S
C2006 C2010 1.350 . S
C2007 C2010 1.463 . S
C2007 C2012 1.350 . S
C2007 N2015 1.433 . S
C2008 H1999 0.930 . S
C2008 C2006 1.378 . S
C2008 C2009 1.367 . S
C2009 C2008 1.367 . S
C2009 C2011 1.433 . S
C2010 C2006 1.350 . S
C2010 C2007 1.463 . S
C2010 N2014 1.427 . S
C2011 H2001 0.929 . S
C2011 C2009 1.433 . S
C2011 N2014 1.384 . S
C2012 H2003 0.929 . S
C2012 C2004 1.378 1_655 S
C2012 C2007 1.350 . S
C2013 H2000 0.929 . S
C2013 C2005 1.433 . S
C2013 N2015 1.376 1_455 S
N2014 C2010 1.427 . S
N2014 C2011 1.384 . S
N2015 C2007 1.433 . S
N2015 C2013 1.376 1_655 S
H2016 C2022 0.930 . S
H2017 C2026 0.930 . S
H2018 C2031 0.929 . S
H2019 C2029 0.929 . S
H2020 C2024 0.929 . S
H2021 C2030 0.929 . S
C2022 H2016 0.930 . S
C2022 C2023 1.367 . S
C2022 C2030 1.378 . S
C2023 C2022 1.367 . S
C2023 C2031 1.433 . S
C2024 H2020 0.929 . S
C2024 C2026 1.378 . S
C2024 C2028 1.350 . S
C2025 C2028 1.463 . S
C2025 C2030 1.350 . S
C2025 N2033 1.427 . S
C2026 H2017 0.930 . S
C2026 C2024 1.378 . S
C2026 C2027 1.367 . S
C2027 C2026 1.367 . S
C2027 C2029 1.433 . S
C2028 C2024 1.350 . S
C2028 C2025 1.463 . S
C2028 N2032 1.427 . S
C2029 H2019 0.929 . S
C2029 C2027 1.433 . S
C2029 N2032 1.384 . S
C2030 H2021 0.929 . S
C2030 C2022 1.378 . S
C2030 C2025 1.350 . S
C2031 H2018 0.929 . S
C2031 C2023 1.433 . S
C2031 N2033 1.384 . S
N2032 C2028 1.427 . S
N2032 C2029 1.384 . S
N2033 C2025 1.427 . S
N2033 C2031 1.384 . S
H2034 C2040 0.930 . S
H2035 C2044 0.930 . S
H2036 C2049 0.929 . S
H2037 C2047 0.929 . S
H2038 C2042 0.929 . S
H2039 C2048 0.929 . S
C2040 H2034 0.930 . S
C2040 C2041 1.367 . S
C2040 C2048 1.378 . S
C2041 C2040 1.367 . S
C2041 C2049 1.433 . S
C2042 H2038 0.929 . S
C2042 C2044 1.378 . S
C2042 C2046 1.350 . S
C2043 C2046 1.463 . S
C2043 C2048 1.350 . S
C2043 N2051 1.427 . S
C2044 H2035 0.930 . S
C2044 C2042 1.378 . S
C2044 C2045 1.367 . S
C2045 C2044 1.367 . S
C2045 C2047 1.433 . S
C2046 C2042 1.350 . S
C2046 C2043 1.463 . S
C2046 N2050 1.427 . S
C2047 H2037 0.929 . S
C2047 C2045 1.433 . S
C2047 N2050 1.384 . S
C2048 H2039 0.929 . S
C2048 C2040 1.378 . S
C2048 C2043 1.350 . S
C2049 H2036 0.929 . S
C2049 C2041 1.433 . S
C2049 N2051 1.384 . S
N2050 C2046 1.427 . S
N2050 C2047 1.384 . S
N2051 C2043 1.427 . S
N2051 C2049 1.384 . S
H2052 C2058 0.930 . S
H2053 C2062 0.930 . S
H2054 C2067 0.929 . S
H2055 C2065 0.929 . S
H2056 C2060 0.929 . S
H2057 C2066 0.929 . S
C2058 H2052 0.930 . S
C2058 C2059 1.367 . S
C2058 C2066 1.378 . S
C2059 C2058 1.367 . S
C2059 C2067 1.433 . S
C2060 H2056 0.929 . S
C2060 C2062 1.378 . S
C2060 C2064 1.350 . S
C2061 C2064 1.463 . S
C2061 C2066 1.350 . S
C2061 N2069 1.427 . S
C2062 H2053 0.930 . S
C2062 C2060 1.378 . S
C2062 C2063 1.367 . S
C2063 C2062 1.367 . S
C2063 C2065 1.433 . S
C2064 C2060 1.350 . S
C2064 C2061 1.463 . S
C2064 N2068 1.427 . S
C2065 H2055 0.929 . S
C2065 C2063 1.433 . S
C2065 N2068 1.384 . S
C2066 H2057 0.929 . S
C2066 C2058 1.378 . S
C2066 C2061 1.350 . S
C2067 H2054 0.929 . S
C2067 C2059 1.433 . S
C2067 N2069 1.384 . S
N2068 C2064 1.427 . S
N2068 C2065 1.384 . S
N2069 C2061 1.427 . S
N2069 C2067 1.384 . S
H2070 C2076 0.930 . S
H2071 C2080 0.930 . S
H2072 C2085 0.929 . S
H2073 C2083 0.929 . S
H2074 C2078 0.929 . S
H2075 C2084 0.929 . S
C2076 H2070 0.930 . S
C2076 C2077 1.367 . S
C2076 C2084 1.378 . S
C2077 C2076 1.367 . S
C2077 C2085 1.433 . S
C2078 H2074 0.929 . S
C2078 C2080 1.378 . S
C2078 C2082 1.350 . S
C2079 C2082 1.463 . S
C2079 C2084 1.350 . S
C2079 N2087 1.427 . S
C2080 H2071 0.930 . S
C2080 C2078 1.378 . S
C2080 C2081 1.367 . S
C2081 C2080 1.367 . S
C2081 C2083 1.433 . S
C2082 C2078 1.350 . S
C2082 C2079 1.463 . S
C2082 N2086 1.427 . S
C2083 H2073 0.929 . S
C2083 C2081 1.433 . S
C2083 N2086 1.384 . S
C2084 H2075 0.929 . S
C2084 C2076 1.378 . S
C2084 C2079 1.350 . S
C2085 H2072 0.929 . S
C2085 C2077 1.433 . S
C2085 N2087 1.384 . S
N2086 C2082 1.427 . S
N2086 C2083 1.384 . S
N2087 C2079 1.427 . S
N2087 C2085 1.384 . S
H2088 C2094 0.930 . S
H2089 C2098 0.930 . S
H2090 C2103 0.929 . S
H2091 C2101 0.929 . S
H2092 C2096 0.929 . S
H2093 C2102 0.929 . S
C2094 H2088 0.930 . S
C2094 C2095 1.367 . S
C2094 C2102 1.378 . S
C2095 C2094 1.367 . S
C2095 C2103 1.433 . S
C2096 H2092 0.929 . S
C2096 C2098 1.378 . S
C2096 C2100 1.350 . S
C2097 C2100 1.463 . S
C2097 C2102 1.350 . S
C2097 N2105 1.427 . S
C2098 H2089 0.930 . S
C2098 C2096 1.378 . S
C2098 C2099 1.367 . S
C2099 C2098 1.367 . S
C2099 C2101 1.433 . S
C2100 C2096 1.350 . S
C2100 C2097 1.463 . S
C2100 N2104 1.427 . S
C2101 H2091 0.929 . S
C2101 C2099 1.433 . S
C2101 N2104 1.384 . S
C2102 H2093 0.929 . S
C2102 C2094 1.378 . S
C2102 C2097 1.350 . S
C2103 H2090 0.929 . S
C2103 C2095 1.433 . S
C2103 N2105 1.384 . S
N2104 C2100 1.427 . S
N2104 C2101 1.384 . S
N2105 C2097 1.427 . S
N2105 C2103 1.384 . S
H2106 C2112 0.930 . S
H2107 C2116 0.930 . S
H2108 C2121 0.929 . S
H2109 C2119 0.929 . S
H2110 C2114 0.929 . S
H2111 C2120 0.929 . S
C2112 H2106 0.930 . S
C2112 C2113 1.367 . S
C2112 C2120 1.378 . S
C2113 C2112 1.367 . S
C2113 C2121 1.433 . S
C2114 H2110 0.929 . S
C2114 C2116 1.378 . S
C2114 C2118 1.350 . S
C2115 C2118 1.463 . S
C2115 C2120 1.350 . S
C2115 N2123 1.427 . S
C2116 H2107 0.930 . S
C2116 C2114 1.378 . S
C2116 C2117 1.367 . S
C2117 C2116 1.367 . S
C2117 C2119 1.433 . S
C2118 C2114 1.350 . S
C2118 C2115 1.463 . S
C2118 N2122 1.427 . S
C2119 H2109 0.929 . S
C2119 C2117 1.433 . S
C2119 N2122 1.384 . S
C2120 H2111 0.929 . S
C2120 C2112 1.378 . S
C2120 C2115 1.350 . S
C2121 H2108 0.929 . S
C2121 C2113 1.433 . S
C2121 N2123 1.384 . S
N2122 C2118 1.427 . S
N2122 C2119 1.384 . S
N2123 C2115 1.427 . S
N2123 C2121 1.384 . S
H2124 C2130 0.930 . S
H2125 C2134 0.930 . S
H2126 C2139 0.929 . S
H2127 C2137 0.929 . S
H2128 C2132 0.929 . S
H2129 C2138 0.929 . S
C2130 H2124 0.930 . S
C2130 C2131 1.367 . S
C2130 C2138 1.378 . S
C2131 C2130 1.367 . S
C2131 C2139 1.433 . S
C2132 H2128 0.929 . S
C2132 C2134 1.378 . S
C2132 C2136 1.350 . S
C2133 C2136 1.463 . S
C2133 C2138 1.350 . S
C2133 N2141 1.427 . S
C2134 H2125 0.930 . S
C2134 C2132 1.378 . S
C2134 C2135 1.367 . S
C2135 C2134 1.367 . S
C2135 C2137 1.433 . S
C2136 C2132 1.350 . S
C2136 C2133 1.463 . S
C2136 N2140 1.427 . S
C2137 H2127 0.929 . S
C2137 C2135 1.433 . S
C2137 N2140 1.384 . S
C2138 H2129 0.929 . S
C2138 C2130 1.378 . S
C2138 C2133 1.350 . S
C2139 H2126 0.929 . S
C2139 C2131 1.433 . S
C2139 N2141 1.384 . S
N2140 C2136 1.427 . S
N2140 C2137 1.384 . S
N2141 C2133 1.427 . S
N2141 C2139 1.384 . S
H2142 C2148 0.930 . S
H2143 C2152 0.930 . S
H2144 C2157 0.929 . S
H2145 C2155 0.929 . S
H2146 C2150 0.929 . S
H2147 C2156 0.929 . S
C2148 H2142 0.930 . S
C2148 C2149 1.367 . S
C2148 C2156 1.378 . S
C2149 C2148 1.367 . S
C2149 C2157 1.433 . S
C2150 H2146 0.929 . S
C2150 C2152 1.378 . S
C2150 C2154 1.350 . S
C2151 C2154 1.463 . S
C2151 C2156 1.350 . S
C2151 N2159 1.427 . S
C2152 H2143 0.930 . S
C2152 C2150 1.378 . S
C2152 C2153 1.367 . S
C2153 C2152 1.367 . S
C2153 C2155 1.433 . S
C2154 C2150 1.350 . S
C2154 C2151 1.463 . S
C2154 N2158 1.427 . S
C2155 H2145 0.929 . S
C2155 C2153 1.433 . S
C2155 N2158 1.384 . S
C2156 H2147 0.929 . S
C2156 C2148 1.378 . S
C2156 C2151 1.350 . S
C2157 H2144 0.929 . S
C2157 C2149 1.433 . S
C2157 N2159 1.384 . S
N2158 C2154 1.427 . S
N2158 C2155 1.384 . S
N2159 C2151 1.427 . S
N2159 C2157 1.384 . S
H2160 C2166 0.930 . S
H2161 C2170 0.930 . S
H2162 C2175 0.929 . S
H2163 C2173 0.929 . S
H2164 C2168 0.929 . S
H2165 C2174 0.929 . S
C2166 H2160 0.930 . S
C2166 C2167 1.367 . S
C2166 C2174 1.378 . S
C2167 C2166 1.367 . S
C2167 C2175 1.433 . S
C2168 H2164 0.929 . S
C2168 C2170 1.378 . S
C2168 C2172 1.350 . S
C2169 C2172 1.463 . S
C2169 C2174 1.350 . S
C2169 N2177 1.427 . S
C2170 H2161 0.930 . S
C2170 C2168 1.378 . S
C2170 C2171 1.367 . S
C2171 C2170 1.367 . S
C2171 C2173 1.433 . S
C2172 C2168 1.350 . S
C2172 C2169 1.463 . S
C2172 N2176 1.427 . S
C2173 H2163 0.929 . S
C2173 C2171 1.433 . S
C2173 N2176 1.384 . S
C2174 H2165 0.929 . S
C2174 C2166 1.378 . S
C2174 C2169 1.350 . S
C2175 H2162 0.929 . S
C2175 C2167 1.433 . S
C2175 N2177 1.384 . S
N2176 C2172 1.427 . S
N2176 C2173 1.384 . S
N2177 C2169 1.427 . S
N2177 C2175 1.384 . S
H2178 C2184 0.930 . S
H2179 C2188 0.930 . S
H2180 C2193 0.929 . S
H2181 C2191 0.929 . S
H2182 C2186 0.929 . S
H2183 C2192 0.929 . S
C2184 H2178 0.930 . S
C2184 C2185 1.367 . S
C2184 C2192 1.378 . S
C2185 C2184 1.367 . S
C2185 C2193 1.433 . S
C2186 H2182 0.929 . S
C2186 C2188 1.378 . S
C2186 C2190 1.350 . S
C2187 C2190 1.463 . S
C2187 C2192 1.350 . S
C2187 N2195 1.427 . S
C2188 H2179 0.930 . S
C2188 C2186 1.378 . S
C2188 C2189 1.367 . S
C2189 C2188 1.367 . S
C2189 C2191 1.433 . S
C2190 C2186 1.350 . S
C2190 C2187 1.463 . S
C2190 N2194 1.427 . S
C2191 H2181 0.929 . S
C2191 C2189 1.433 . S
C2191 N2194 1.384 . S
C2192 H2183 0.929 . S
C2192 C2184 1.378 . S
C2192 C2187 1.350 . S
C2193 H2180 0.929 . S
C2193 C2185 1.433 . S
C2193 N2195 1.384 . S
N2194 C2190 1.427 . S
N2194 C2191 1.384 . S
N2195 C2187 1.427 . S
N2195 C2193 1.384 . S
H2196 C2202 0.930 . S
H2197 C2206 0.930 . S
H2198 C2211 0.929 . S
H2199 C2209 0.929 . S
H2200 C2204 0.929 . S
H2201 C2210 0.929 . S
C2202 H2196 0.930 . S
C2202 C2203 1.367 . S
C2202 C2210 1.378 . S
C2203 C2202 1.367 . S
C2203 C2211 1.433 . S
C2204 H2200 0.929 . S
C2204 C2206 1.378 . S
C2204 C2208 1.350 . S
C2205 C2208 1.463 . S
C2205 C2210 1.350 . S
C2205 N2213 1.427 . S
C2206 H2197 0.930 . S
C2206 C2204 1.378 . S
C2206 C2207 1.367 . S
C2207 C2206 1.367 . S
C2207 C2209 1.433 . S
C2208 C2204 1.350 . S
C2208 C2205 1.463 . S
C2208 N2212 1.427 . S
C2209 H2199 0.929 . S
C2209 C2207 1.433 . S
C2209 N2212 1.384 . S
C2210 H2201 0.929 . S
C2210 C2202 1.378 . S
C2210 C2205 1.350 . S
C2211 H2198 0.929 . S
C2211 C2203 1.433 . S
C2211 N2213 1.384 . S
N2212 C2208 1.427 . S
N2212 C2209 1.384 . S
N2213 C2205 1.427 . S
N2213 C2211 1.384 . S
H2214 C2220 0.930 . S
H2215 C2224 0.930 . S
H2216 C2229 0.929 . S
H2217 C2227 0.929 . S
H2218 C2222 0.929 . S
H2219 C2228 0.929 . S
C2220 H2214 0.930 . S
C2220 C2221 1.367 . S
C2220 C2228 1.378 . S
C2221 C2220 1.367 . S
C2221 C2229 1.433 . S
C2222 H2218 0.929 . S
C2222 C2224 1.378 . S
C2222 C2226 1.350 . S
C2223 C2226 1.463 . S
C2223 C2228 1.350 . S
C2223 N2231 1.427 . S
C2224 H2215 0.930 . S
C2224 C2222 1.378 . S
C2224 C2225 1.367 . S
C2225 C2224 1.367 . S
C2225 C2227 1.433 . S
C2226 C2222 1.350 . S
C2226 C2223 1.463 . S
C2226 N2230 1.427 . S
C2227 H2217 0.929 . S
C2227 C2225 1.433 . S
C2227 N2230 1.384 . S
C2228 H2219 0.929 . S
C2228 C2220 1.378 . S
C2228 C2223 1.350 . S
C2229 H2216 0.929 . S
C2229 C2221 1.433 . S
C2229 N2231 1.384 . S
N2230 C2226 1.427 . S
N2230 C2227 1.384 . S
N2231 C2223 1.427 . S
N2231 C2229 1.384 . S
H2232 C2238 0.930 . S
H2233 C2242 0.930 . S
H2234 C2247 0.929 . S
H2235 C2245 0.929 . S
H2236 C2240 0.929 . S
H2237 C2246 0.929 . S
C2238 H2232 0.930 . S
C2238 C2239 1.367 . S
C2238 C2246 1.378 . S
C2239 C2238 1.367 . S
C2239 C2247 1.433 . S
C2240 H2236 0.929 . S
C2240 C2242 1.378 . S
C2240 C2244 1.350 . S
C2241 C2244 1.463 . S
C2241 C2246 1.350 . S
C2241 N2249 1.427 . S
C2242 H2233 0.930 . S
C2242 C2240 1.378 . S
C2242 C2243 1.367 . S
C2243 C2242 1.367 . S
C2243 C2245 1.433 . S
C2244 C2240 1.350 . S
C2244 C2241 1.463 . S
C2244 N2248 1.427 . S
C2245 H2235 0.929 . S
C2245 C2243 1.433 . S
C2245 N2248 1.384 . S
C2246 H2237 0.929 . S
C2246 C2238 1.378 . S
C2246 C2241 1.350 . S
C2247 H2234 0.929 . S
C2247 C2239 1.433 . S
C2247 N2249 1.384 . S
N2248 C2244 1.427 . S
N2248 C2245 1.384 . S
N2249 C2241 1.427 . S
N2249 C2247 1.384 . S
H2250 C2256 0.930 . S
H2251 C2260 0.930 . S
H2252 C2265 0.929 . S
H2253 C2263 0.929 . S
H2254 C2258 0.929 . S
H2255 C2264 0.929 . S
C2256 H2250 0.930 . S
C2256 C2257 1.367 . S
C2256 C2264 1.378 . S
C2257 C2256 1.367 . S
C2257 C2265 1.433 . S
C2258 H2254 0.929 . S
C2258 C2260 1.378 . S
C2258 C2262 1.350 . S
C2259 C2262 1.463 . S
C2259 C2264 1.350 . S
C2259 N2267 1.427 . S
C2260 H2251 0.930 . S
C2260 C2258 1.378 . S
C2260 C2261 1.367 . S
C2261 C2260 1.367 . S
C2261 C2263 1.433 . S
C2262 C2258 1.350 . S
C2262 C2259 1.463 . S
C2262 N2266 1.427 . S
C2263 H2253 0.929 . S
C2263 C2261 1.433 . S
C2263 N2266 1.384 . S
C2264 H2255 0.929 . S
C2264 C2256 1.378 . S
C2264 C2259 1.350 . S
C2265 H2252 0.929 . S
C2265 C2257 1.433 . S
C2265 N2267 1.384 . S
N2266 C2262 1.427 . S
N2266 C2263 1.384 . S
N2267 C2259 1.427 . S
N2267 C2265 1.384 . S
H2268 C2274 0.930 . S
H2269 C2278 0.930 . S
H2270 C2283 0.929 . S
H2271 C2281 0.929 . S
H2272 C2276 0.929 . S
H2273 C2282 0.929 . S
C2274 H2268 0.930 . S
C2274 C2275 1.367 . S
C2274 C2282 1.378 . S
C2275 C2274 1.367 . S
C2275 C2283 1.433 . S
C2276 H2272 0.929 . S
C2276 C2278 1.378 . S
C2276 C2280 1.350 . S
C2277 C2280 1.463 . S
C2277 C2282 1.350 . S
C2277 N2285 1.427 . S
C2278 H2269 0.930 . S
C2278 C2276 1.378 . S
C2278 C2279 1.367 . S
C2279 C2278 1.367 . S
C2279 C2281 1.433 . S
C2280 C2276 1.350 . S
C2280 C2277 1.463 . S
C2280 N2284 1.427 . S
C2281 H2271 0.929 . S
C2281 C2279 1.433 . S
C2281 N2284 1.384 . S
C2282 H2273 0.929 . S
C2282 C2274 1.378 . S
C2282 C2277 1.350 . S
C2283 H2270 0.929 . S
C2283 C2275 1.433 . S
C2283 N2285 1.384 . S
N2284 C2280 1.427 . S
N2284 C2281 1.384 . S
N2285 C2277 1.427 . S
N2285 C2283 1.384 . S
H2286 C2292 0.930 . S
H2287 C2296 0.930 . S
H2288 C2301 0.929 . S
H2289 C2299 0.929 . S
H2290 C2294 0.929 . S
H2291 C2300 0.929 . S
C2292 H2286 0.930 . S
C2292 C2293 1.367 . S
C2292 C2300 1.378 . S
C2293 C2292 1.367 . S
C2293 C2301 1.433 . S
C2294 H2290 0.929 . S
C2294 C2296 1.378 . S
C2294 C2298 1.350 . S
C2295 C2298 1.463 . S
C2295 C2300 1.350 . S
C2295 N2303 1.427 . S
C2296 H2287 0.930 . S
C2296 C2294 1.378 . S
C2296 C2297 1.367 . S
C2297 C2296 1.367 . S
C2297 C2299 1.433 . S
C2298 C2294 1.350 . S
C2298 C2295 1.463 . S
C2298 N2302 1.427 . S
C2299 H2289 0.929 . S
C2299 C2297 1.433 . S
C2299 N2302 1.384 . S
C2300 H2291 0.929 . S
C2300 C2292 1.378 . S
C2300 C2295 1.350 . S
C2301 H2288 0.929 . S
C2301 C2293 1.433 . S
C2301 N2303 1.384 . S
N2302 C2298 1.427 . S
N2302 C2299 1.384 . S
N2303 C2295 1.427 . S
N2303 C2301 1.384 . S
H2304 C2310 0.930 . S
H2305 C2314 0.930 . S
H2306 C2319 0.929 . S
H2307 C2317 0.929 . S
H2308 C2312 0.929 . S
H2309 C2318 0.929 . S
C2310 H2304 0.930 . S
C2310 C2311 1.367 . S
C2310 C2318 1.378 . S
C2311 C2310 1.367 . S
C2311 C2319 1.433 . S
C2312 H2308 0.929 . S
C2312 C2314 1.378 . S
C2312 C2316 1.350 . S
C2313 C2316 1.463 . S
C2313 C2318 1.350 . S
C2313 N2321 1.427 . S
C2314 H2305 0.930 . S
C2314 C2312 1.378 . S
C2314 C2315 1.367 . S
C2315 C2314 1.367 . S
C2315 C2317 1.433 . S
C2316 C2312 1.350 . S
C2316 C2313 1.463 . S
C2316 N2320 1.427 . S
C2317 H2307 0.929 . S
C2317 C2315 1.433 . S
C2317 N2320 1.384 . S
C2318 H2309 0.929 . S
C2318 C2310 1.378 . S
C2318 C2313 1.350 . S
C2319 H2306 0.929 . S
C2319 C2311 1.433 . S
C2319 N2321 1.384 . S
N2320 C2316 1.427 . S
N2320 C2317 1.384 . S
N2321 C2313 1.427 . S
N2321 C2319 1.384 . S
H2322 C2328 0.930 . S
H2323 C2332 0.930 . S
H2324 C2337 0.929 . S
H2325 C2335 0.929 . S
H2326 C2330 0.929 . S
H2327 C2336 0.929 . S
C2328 H2322 0.930 . S
C2328 C2329 1.367 . S
C2328 C2336 1.378 . S
C2329 C2328 1.367 . S
C2329 C2337 1.433 . S
C2330 H2326 0.929 . S
C2330 C2332 1.378 . S
C2330 C2334 1.350 . S
C2331 C2334 1.463 . S
C2331 C2336 1.350 . S
C2331 N2339 1.427 . S
C2332 H2323 0.930 . S
C2332 C2330 1.378 . S
C2332 C2333 1.367 . S
C2333 C2332 1.367 . S
C2333 C2335 1.433 . S
C2334 C2330 1.350 . S
C2334 C2331 1.463 . S
C2334 N2338 1.427 . S
C2335 H2325 0.929 . S
C2335 C2333 1.433 . S
C2335 N2338 1.384 . S
C2336 H2327 0.929 . S
C2336 C2328 1.378 . S
C2336 C2331 1.350 . S
C2337 H2324 0.929 . S
C2337 C2329 1.433 . S
C2337 N2339 1.384 . S
N2338 C2334 1.427 . S
N2338 C2335 1.384 . S
N2339 C2331 1.427 . S
N2339 C2337 1.384 . S
H2340 C2346 0.930 . S
H2341 C2350 0.930 . S
H2342 C2355 0.929 . S
H2343 C2353 0.929 . S
H2344 C2348 0.929 . S
H2345 C2354 0.929 . S
C2346 H2340 0.930 . S
C2346 C2347 1.367 . S
C2346 C2354 1.378 . S
C2347 C2346 1.367 . S
C2347 C2355 1.433 . S
C2348 H2344 0.929 . S
C2348 C2350 1.378 . S
C2348 C2352 1.350 . S
C2349 C2352 1.463 . S
C2349 C2354 1.350 . S
C2349 N2357 1.427 . S
C2350 H2341 0.930 . S
C2350 C2348 1.378 . S
C2350 C2351 1.367 . S
C2351 C2350 1.367 . S
C2351 C2353 1.433 . S
C2352 C2348 1.350 . S
C2352 C2349 1.463 . S
C2352 N2356 1.427 . S
C2353 H2343 0.929 . S
C2353 C2351 1.433 . S
C2353 N2356 1.384 . S
C2354 H2345 0.929 . S
C2354 C2346 1.378 . S
C2354 C2349 1.350 . S
C2355 H2342 0.929 . S
C2355 C2347 1.433 . S
C2355 N2357 1.384 . S
N2356 C2352 1.427 . S
N2356 C2353 1.384 . S
N2357 C2349 1.427 . S
N2357 C2355 1.384 . S
H2358 C2364 0.930 . S
H2359 C2368 0.930 . S
H2360 C2373 0.929 . S
H2361 C2371 0.929 . S
H2362 C2366 0.929 . S
H2363 C2372 0.929 . S
C2364 H2358 0.930 . S
C2364 C2365 1.367 . S
C2364 C2372 1.378 . S
C2365 C2364 1.367 . S
C2365 C2373 1.433 . S
C2366 H2362 0.929 . S
C2366 C2368 1.378 . S
C2366 C2370 1.350 . S
C2367 C2370 1.463 . S
C2367 C2372 1.350 . S
C2367 N2375 1.427 . S
C2368 H2359 0.930 . S
C2368 C2366 1.378 . S
C2368 C2369 1.367 . S
C2369 C2368 1.367 . S
C2369 C2371 1.433 . S
C2370 C2366 1.350 . S
C2370 C2367 1.463 . S
C2370 N2374 1.427 . S
C2371 H2361 0.929 . S
C2371 C2369 1.433 . S
C2371 N2374 1.384 . S
C2372 H2363 0.929 . S
C2372 C2364 1.378 . S
C2372 C2367 1.350 . S
C2373 H2360 0.929 . S
C2373 C2365 1.433 . S
C2373 N2375 1.384 . S
N2374 C2370 1.427 . S
N2374 C2371 1.384 . S
N2375 C2367 1.427 . S
N2375 C2373 1.384 . S
H2376 C2382 0.930 . S
H2377 C2386 0.930 . S
H2378 C2391 0.929 . S
H2379 C2389 0.929 . S
H2380 C2384 0.929 . S
H2381 C2390 0.929 . S
C2382 H2376 0.930 . S
C2382 C2383 1.367 . S
C2382 C2390 1.378 . S
C2383 C2382 1.367 . S
C2383 C2391 1.433 . S
C2384 H2380 0.929 . S
C2384 C2386 1.378 . S
C2384 C2388 1.350 . S
C2385 C2388 1.463 . S
C2385 C2390 1.350 . S
C2385 N2393 1.427 . S
C2386 H2377 0.930 . S
C2386 C2384 1.378 . S
C2386 C2387 1.367 . S
C2387 C2386 1.367 . S
C2387 C2389 1.433 . S
C2388 C2384 1.350 . S
C2388 C2385 1.463 . S
C2388 N2392 1.427 . S
C2389 H2379 0.929 . S
C2389 C2387 1.433 . S
C2389 N2392 1.384 . S
C2390 H2381 0.929 . S
C2390 C2382 1.378 . S
C2390 C2385 1.350 . S
C2391 H2378 0.929 . S
C2391 C2383 1.433 . S
C2391 N2393 1.384 . S
N2392 C2388 1.427 . S
N2392 C2389 1.384 . S
N2393 C2385 1.427 . S
N2393 C2391 1.384 . S
H2394 C2400 0.930 . S
H2395 C2404 0.930 . S
H2396 C2409 0.929 . S
H2397 C2407 0.929 . S
H2398 C2402 0.929 . S
H2399 C2408 0.929 . S
C2400 H2394 0.930 . S
C2400 C2401 1.367 . S
C2400 C2408 1.378 . S
C2401 C2400 1.367 . S
C2401 C2409 1.433 . S
C2402 H2398 0.929 . S
C2402 C2404 1.378 . S
C2402 C2406 1.350 . S
C2403 C2406 1.463 . S
C2403 C2408 1.350 . S
C2403 N2411 1.427 . S
C2404 H2395 0.930 . S
C2404 C2402 1.378 . S
C2404 C2405 1.367 . S
C2405 C2404 1.367 . S
C2405 C2407 1.433 . S
C2406 C2402 1.350 . S
C2406 C2403 1.463 . S
C2406 N2410 1.427 . S
C2407 H2397 0.929 . S
C2407 C2405 1.433 . S
C2407 N2410 1.384 . S
C2408 H2399 0.929 . S
C2408 C2400 1.378 . S
C2408 C2403 1.350 . S
C2409 H2396 0.929 . S
C2409 C2401 1.433 . S
C2409 N2411 1.384 . S
N2410 C2406 1.427 . S
N2410 C2407 1.384 . S
N2411 C2403 1.427 . S
N2411 C2409 1.384 . S
H2412 C2418 0.930 . S
H2413 C2422 0.930 . S
H2414 C2427 0.929 . S
H2415 C2425 0.929 . S
H2416 C2420 0.929 . S
H2417 C2426 0.929 . S
C2418 H2412 0.930 . S
C2418 C2419 1.367 . S
C2418 C2426 1.378 . S
C2419 C2418 1.367 . S
C2419 C2427 1.433 . S
C2420 H2416 0.929 . S
C2420 C2422 1.378 . S
C2420 C2424 1.350 . S
C2421 C2424 1.463 . S
C2421 C2426 1.350 . S
C2421 N2429 1.427 . S
C2422 H2413 0.930 . S
C2422 C2420 1.378 . S
C2422 C2423 1.367 . S
C2423 C2422 1.367 . S
C2423 C2425 1.433 . S
C2424 C2420 1.350 . S
C2424 C2421 1.463 . S
C2424 N2428 1.427 . S
C2425 H2415 0.929 . S
C2425 C2423 1.433 . S
C2425 N2428 1.384 . S
C2426 H2417 0.929 . S
C2426 C2418 1.378 . S
C2426 C2421 1.350 . S
C2427 H2414 0.929 . S
C2427 C2419 1.433 . S
C2427 N2429 1.384 . S
N2428 C2424 1.427 . S
N2428 C2425 1.384 . S
N2429 C2421 1.427 . S
N2429 C2427 1.384 . S
H2430 C2436 0.930 . S
H2431 C2440 0.930 . S
H2432 C2445 0.929 . S
H2433 C2443 0.929 . S
H2434 C2438 0.929 . S
H2435 C2444 0.929 . S
C2436 H2430 0.930 . S
C2436 C2437 1.367 . S
C2436 C2444 1.378 . S
C2437 C2436 1.367 . S
C2437 C2445 1.433 . S
C2438 H2434 0.929 . S
C2438 C2440 1.378 . S
C2438 C2442 1.350 . S
C2439 C2442 1.463 . S
C2439 C2444 1.350 . S
C2439 N2447 1.427 . S
C2440 H2431 0.930 . S
C2440 C2438 1.378 . S
C2440 C2441 1.367 . S
C2441 C2440 1.367 . S
C2441 C2443 1.433 . S
C2442 C2438 1.350 . S
C2442 C2439 1.463 . S
C2442 N2446 1.427 . S
C2443 H2433 0.929 . S
C2443 C2441 1.433 . S
C2443 N2446 1.384 . S
C2444 H2435 0.929 . S
C2444 C2436 1.378 . S
C2444 C2439 1.350 . S
C2445 H2432 0.929 . S
C2445 C2437 1.433 . S
C2445 N2447 1.384 . S
N2446 C2442 1.427 . S
N2446 C2443 1.384 . S
N2447 C2439 1.427 . S
N2447 C2445 1.384 . S
H2448 C2454 0.930 . S
H2449 C2458 0.930 . S
H2450 C2463 0.929 . S
H2451 C2461 0.929 . S
H2452 C2456 0.929 . S
H2453 C2462 0.929 . S
C2454 H2448 0.930 . S
C2454 C2455 1.367 . S
C2454 C2462 1.378 . S
C2455 C2454 1.367 . S
C2455 C2463 1.433 . S
C2456 H2452 0.929 . S
C2456 C2458 1.378 . S
C2456 C2460 1.350 . S
C2457 C2460 1.463 . S
C2457 C2462 1.350 . S
C2457 N2465 1.427 . S
C2458 H2449 0.930 . S
C2458 C2456 1.378 . S
C2458 C2459 1.367 . S
C2459 C2458 1.367 . S
C2459 C2461 1.433 . S
C2460 C2456 1.350 . S
C2460 C2457 1.463 . S
C2460 N2464 1.427 . S
C2461 H2451 0.929 . S
C2461 C2459 1.433 . S
C2461 N2464 1.384 . S
C2462 H2453 0.929 . S
C2462 C2454 1.378 . S
C2462 C2457 1.350 . S
C2463 H2450 0.929 . S
C2463 C2455 1.433 . S
C2463 N2465 1.384 . S
N2464 C2460 1.427 . S
N2464 C2461 1.384 . S
N2465 C2457 1.427 . S
N2465 C2463 1.384 . S
H2466 C2472 0.930 . S
H2467 C2476 0.930 . S
H2468 C2481 0.929 . S
H2469 C2479 0.929 . S
H2470 C2474 0.929 . S
H2471 C2480 0.929 . S
C2472 H2466 0.930 . S
C2472 C2473 1.367 . S
C2472 C2480 1.378 . S
C2473 C2472 1.367 . S
C2473 C2481 1.433 . S
C2474 H2470 0.929 . S
C2474 C2476 1.378 . S
C2474 C2478 1.350 . S
C2475 C2478 1.463 . S
C2475 C2480 1.350 . S
C2475 N2483 1.427 . S
C2476 H2467 0.930 . S
C2476 C2474 1.378 . S
C2476 C2477 1.367 . S
C2477 C2476 1.367 . S
C2477 C2479 1.433 . S
C2478 C2474 1.350 . S
C2478 C2475 1.463 . S
C2478 N2482 1.427 . S
C2479 H2469 0.929 . S
C2479 C2477 1.433 . S
C2479 N2482 1.384 . S
C2480 H2471 0.929 . S
C2480 C2472 1.378 . S
C2480 C2475 1.350 . S
C2481 H2468 0.929 . S
C2481 C2473 1.433 . S
C2481 N2483 1.384 . S
N2482 C2478 1.427 . S
N2482 C2479 1.384 . S
N2483 C2475 1.427 . S
N2483 C2481 1.384 . S
H2484 C2490 0.930 . S
H2485 C2494 0.930 . S
H2486 C2499 0.929 . S
H2487 C2497 0.929 . S
H2488 C2492 0.929 . S
H2489 C2498 0.929 . S
C2490 H2484 0.930 . S
C2490 C2491 1.367 . S
C2490 C2498 1.378 . S
C2491 C2490 1.367 . S
C2491 C2499 1.433 . S
C2492 H2488 0.929 . S
C2492 C2494 1.378 . S
C2492 C2496 1.350 . S
C2493 C2496 1.463 . S
C2493 C2498 1.350 . S
C2493 N2501 1.427 . S
C2494 H2485 0.930 . S
C2494 C2492 1.378 . S
C2494 C2495 1.367 . S
C2495 C2494 1.367 . S
C2495 C2497 1.433 . S
C2496 C2492 1.350 . S
C2496 C2493 1.463 . S
C2496 N2500 1.427 . S
C2497 H2487 0.929 . S
C2497 C2495 1.433 . S
C2497 N2500 1.384 . S
C2498 H2489 0.929 . S
C2498 C2490 1.378 . S
C2498 C2493 1.350 . S
C2499 H2486 0.929 . S
C2499 C2491 1.433 . S
C2499 N2501 1.384 . S
N2500 C2496 1.427 . S
N2500 C2497 1.384 . S
N2501 C2493 1.427 . S
N2501 C2499 1.384 . S
H2502 C2508 0.930 . S
H2503 C2512 0.930 . S
H2504 C2517 0.929 . S
H2505 C2515 0.929 . S
H2506 C2510 0.929 . S
H2507 C2516 0.929 . S
C2508 H2502 0.930 . S
C2508 C2509 1.367 . S
C2508 C2516 1.378 . S
C2509 C2508 1.367 . S
C2509 C2517 1.433 . S
C2510 H2506 0.929 . S
C2510 C2512 1.378 . S
C2510 C2514 1.350 . S
C2511 C2514 1.463 . S
C2511 C2516 1.350 . S
C2511 N2519 1.427 . S
C2512 H2503 0.930 . S
C2512 C2510 1.378 . S
C2512 C2513 1.367 . S
C2513 C2512 1.367 . S
C2513 C2515 1.433 . S
C2514 C2510 1.350 . S
C2514 C2511 1.463 . S
C2514 N2518 1.427 . S
C2515 H2505 0.929 . S
C2515 C2513 1.433 . S
C2515 N2518 1.384 . S
C2516 H2507 0.929 . S
C2516 C2508 1.378 . S
C2516 C2511 1.350 . S
C2517 H2504 0.929 . S
C2517 C2509 1.433 . S
C2517 N2519 1.384 . S
N2518 C2514 1.427 . S
N2518 C2515 1.384 . S
N2519 C2511 1.427 . S
N2519 C2517 1.384 . S
H2520 C2526 0.930 . S
H2521 C2530 0.930 . S
H2522 C2535 0.929 . S
H2523 C2533 0.929 . S
H2524 C2528 0.929 . S
H2525 C2534 0.929 . S
C2526 H2520 0.930 . S
C2526 C2527 1.367 . S
C2526 C2534 1.378 . S
C2527 C2526 1.367 . S
C2527 C2535 1.433 . S
C2528 H2524 0.929 . S
C2528 C2530 1.378 . S
C2528 C2532 1.350 . S
C2529 C2532 1.463 . S
C2529 C2534 1.350 . S
C2529 N2537 1.427 . S
C2530 H2521 0.930 . S
C2530 C2528 1.378 . S
C2530 C2531 1.367 . S
C2531 C2530 1.367 . S
C2531 C2533 1.433 . S
C2532 C2528 1.350 . S
C2532 C2529 1.463 . S
C2532 N2536 1.427 . S
C2533 H2523 0.929 . S
C2533 C2531 1.433 . S
C2533 N2536 1.384 . S
C2534 H2525 0.929 . S
C2534 C2526 1.378 . S
C2534 C2529 1.350 . S
C2535 H2522 0.929 . S
C2535 C2527 1.433 . S
C2535 N2537 1.384 . S
N2536 C2532 1.427 . S
N2536 C2533 1.384 . S
N2537 C2529 1.427 . S
N2537 C2535 1.384 . S
H2538 C2544 0.930 . S
H2539 C2548 0.930 . S
H2540 C2553 0.929 . S
H2541 C2551 0.929 . S
H2542 C2546 0.929 . S
H2543 C2552 0.929 . S
C2544 H2538 0.930 . S
C2544 C2545 1.367 . S
C2544 C2552 1.378 . S
C2545 C2544 1.367 . S
C2545 C2553 1.433 . S
C2546 H2542 0.929 . S
C2546 C2548 1.378 . S
C2546 C2550 1.350 . S
C2547 C2550 1.463 . S
C2547 C2552 1.350 . S
C2547 N2555 1.427 . S
C2548 H2539 0.930 . S
C2548 C2546 1.378 . S
C2548 C2549 1.367 . S
C2549 C2548 1.367 . S
C2549 C2551 1.433 . S
C2550 C2546 1.350 . S
C2550 C2547 1.463 . S
C2550 N2554 1.427 . S
C2551 H2541 0.929 . S
C2551 C2549 1.433 . S
C2551 N2554 1.384 . S
C2552 H2543 0.929 . S
C2552 C2544 1.378 . S
C2552 C2547 1.350 . S
C2553 H2540 0.929 . S
C2553 C2545 1.433 . S
C2553 N2555 1.384 . S
N2554 C2550 1.427 . S
N2554 C2551 1.384 . S
N2555 C2547 1.427 . S
N2555 C2553 1.384 . S
H2556 C2562 0.930 . S
H2557 C2566 0.930 . S
H2558 C2571 0.929 . S
H2559 C2569 0.929 . S
H2560 C2564 0.929 . S
H2561 C2570 0.929 . S
C2562 H2556 0.930 . S
C2562 C2563 1.367 . S
C2562 C2570 1.378 . S
C2563 C2562 1.367 . S
C2563 C2571 1.433 . S
C2564 H2560 0.929 . S
C2564 C2566 1.378 . S
C2564 C2568 1.350 . S
C2565 C2568 1.463 . S
C2565 C2570 1.350 . S
C2565 N2573 1.427 . S
C2566 H2557 0.930 . S
C2566 C2564 1.378 . S
C2566 C2567 1.367 . S
C2567 C2566 1.367 . S
C2567 C2569 1.433 . S
C2568 C2564 1.350 . S
C2568 C2565 1.463 . S
C2568 N2572 1.427 . S
C2569 H2559 0.929 . S
C2569 C2567 1.433 . S
C2569 N2572 1.384 . S
C2570 H2561 0.929 . S
C2570 C2562 1.378 . S
C2570 C2565 1.350 . S
C2571 H2558 0.929 . S
C2571 C2563 1.433 . S
C2571 N2573 1.384 . S
N2572 C2568 1.427 . S
N2572 C2569 1.384 . S
N2573 C2565 1.427 . S
N2573 C2571 1.384 . S
H2574 C2580 0.930 . S
H2575 C2584 0.930 . S
H2576 C2589 0.929 . S
H2577 C2587 0.929 . S
H2578 C2582 0.929 . S
H2579 C2588 0.929 . S
C2580 H2574 0.930 . S
C2580 C2581 1.367 . S
C2580 C2588 1.378 . S
C2581 C2580 1.367 . S
C2581 C2589 1.433 . S
C2582 H2578 0.929 . S
C2582 C2584 1.378 . S
C2582 C2586 1.350 . S
C2583 C2586 1.463 . S
C2583 C2588 1.350 . S
C2583 N2591 1.427 . S
C2584 H2575 0.930 . S
C2584 C2582 1.378 . S
C2584 C2585 1.367 . S
C2585 C2584 1.367 . S
C2585 C2587 1.433 . S
C2586 C2582 1.350 . S
C2586 C2583 1.463 . S
C2586 N2590 1.427 . S
C2587 H2577 0.929 . S
C2587 C2585 1.433 . S
C2587 N2590 1.384 . S
C2588 H2579 0.929 . S
C2588 C2580 1.378 . S
C2588 C2583 1.350 . S
C2589 H2576 0.929 . S
C2589 C2581 1.433 . S
C2589 N2591 1.384 . S
N2590 C2586 1.427 . S
N2590 C2587 1.384 . S
N2591 C2583 1.427 . S
N2591 C2589 1.384 . S
H2592 C2598 0.930 . S
H2593 C2602 0.930 . S
H2594 C2607 0.929 . S
H2595 C2605 0.929 . S
H2596 C2600 0.929 . S
H2597 C2606 0.929 . S
C2598 H2592 0.930 . S
C2598 C2599 1.367 . S
C2598 C2606 1.378 . S
C2599 C2598 1.367 . S
C2599 C2607 1.433 . S
C2600 H2596 0.929 . S
C2600 C2602 1.378 . S
C2600 C2604 1.350 . S
C2601 C2604 1.463 . S
C2601 C2606 1.350 . S
C2601 N2609 1.427 . S
C2602 H2593 0.930 . S
C2602 C2600 1.378 . S
C2602 C2603 1.367 . S
C2603 C2602 1.367 . S
C2603 C2605 1.433 . S
C2604 C2600 1.350 . S
C2604 C2601 1.463 . S
C2604 N2608 1.427 . S
C2605 H2595 0.929 . S
C2605 C2603 1.433 . S
C2605 N2608 1.384 . S
C2606 H2597 0.929 . S
C2606 C2598 1.378 . S
C2606 C2601 1.350 . S
C2607 H2594 0.929 . S
C2607 C2599 1.433 . S
C2607 N2609 1.384 . S
N2608 C2604 1.427 . S
N2608 C2605 1.384 . S
N2609 C2601 1.427 . S
N2609 C2607 1.384 . S
H2610 C2616 0.930 . S
H2611 C2620 0.930 . S
H2612 C2625 0.929 . S
H2613 C2623 0.929 . S
H2614 C2618 0.929 . S
H2615 C2624 0.929 . S
C2616 H2610 0.930 . S
C2616 C2617 1.367 . S
C2616 C2624 1.378 . S
C2617 C2616 1.367 . S
C2617 C2625 1.433 . S
C2618 H2614 0.929 . S
C2618 C2620 1.378 . S
C2618 C2622 1.350 . S
C2619 C2622 1.463 . S
C2619 C2624 1.350 . S
C2619 N2627 1.427 . S
C2620 H2611 0.930 . S
C2620 C2618 1.378 . S
C2620 C2621 1.367 . S
C2621 C2620 1.367 . S
C2621 C2623 1.433 . S
C2622 C2618 1.350 . S
C2622 C2619 1.463 . S
C2622 N2626 1.427 . S
C2623 H2613 0.929 . S
C2623 C2621 1.433 . S
C2623 N2626 1.384 . S
C2624 H2615 0.929 . S
C2624 C2616 1.378 . S
C2624 C2619 1.350 . S
C2625 H2612 0.929 . S
C2625 C2617 1.433 . S
C2625 N2627 1.384 . S
N2626 C2622 1.427 . S
N2626 C2623 1.384 . S
N2627 C2619 1.427 . S
N2627 C2625 1.384 . S
H2628 C2634 0.930 . S
H2629 C2638 0.930 . S
H2630 C2643 0.929 . S
H2631 C2641 0.929 . S
H2632 C2636 0.929 . S
H2633 C2642 0.929 . S
C2634 H2628 0.930 . S
C2634 C2635 1.367 . S
C2634 C2642 1.378 . S
C2635 C2634 1.367 . S
C2635 C2643 1.433 . S
C2636 H2632 0.929 . S
C2636 C2638 1.378 . S
C2636 C2640 1.350 . S
C2637 C2640 1.463 . S
C2637 C2642 1.350 . S
C2637 N2645 1.427 . S
C2638 H2629 0.930 . S
C2638 C2636 1.378 . S
C2638 C2639 1.367 . S
C2639 C2638 1.367 . S
C2639 C2641 1.433 . S
C2640 C2636 1.350 . S
C2640 C2637 1.463 . S
C2640 N2644 1.427 . S
C2641 H2631 0.929 . S
C2641 C2639 1.433 . S
C2641 N2644 1.384 . S
C2642 H2633 0.929 . S
C2642 C2634 1.378 . S
C2642 C2637 1.350 . S
C2643 H2630 0.929 . S
C2643 C2635 1.433 . S
C2643 N2645 1.384 . S
N2644 C2640 1.427 . S
N2644 C2641 1.384 . S
N2645 C2637 1.427 . S
N2645 C2643 1.384 . S
H2646 C2652 0.930 . S
H2647 C2656 0.930 . S
H2648 C2661 0.929 . S
H2649 C2659 0.929 . S
H2650 C2654 0.929 . S
H2651 C2660 0.929 . S
C2652 H2646 0.930 . S
C2652 C2653 1.367 . S
C2652 C2660 1.378 . S
C2653 C2652 1.367 . S
C2653 C2661 1.433 . S
C2654 H2650 0.929 . S
C2654 C2656 1.378 . S
C2654 C2658 1.350 . S
C2655 C2658 1.463 . S
C2655 C2660 1.350 . S
C2655 N2663 1.427 . S
C2656 H2647 0.930 . S
C2656 C2654 1.378 . S
C2656 C2657 1.367 . S
C2657 C2656 1.367 . S
C2657 C2659 1.433 . S
C2658 C2654 1.350 . S
C2658 C2655 1.463 . S
C2658 N2662 1.427 . S
C2659 H2649 0.929 . S
C2659 C2657 1.433 . S
C2659 N2662 1.384 . S
C2660 H2651 0.929 . S
C2660 C2652 1.378 . S
C2660 C2655 1.350 . S
C2661 H2648 0.929 . S
C2661 C2653 1.433 . S
C2661 N2663 1.384 . S
N2662 C2658 1.427 . S
N2662 C2659 1.384 . S
N2663 C2655 1.427 . S
N2663 C2661 1.384 . S
H2664 C2670 0.930 . S
H2665 C2674 0.930 . S
H2666 C2679 0.929 . S
H2667 C2677 0.929 . S
H2668 C2672 0.929 . S
H2669 C2678 0.929 . S
C2670 H2664 0.930 . S
C2670 C2671 1.367 . S
C2670 C2678 1.378 . S
C2671 C2670 1.367 . S
C2671 C2679 1.433 . S
C2672 H2668 0.929 . S
C2672 C2674 1.378 . S
C2672 C2676 1.350 . S
C2673 C2676 1.463 . S
C2673 C2678 1.350 . S
C2673 N2681 1.427 . S
C2674 H2665 0.930 . S
C2674 C2672 1.378 . S
C2674 C2675 1.367 . S
C2675 C2674 1.367 . S
C2675 C2677 1.433 . S
C2676 C2672 1.350 . S
C2676 C2673 1.463 . S
C2676 N2680 1.427 . S
C2677 H2667 0.929 . S
C2677 C2675 1.433 . S
C2677 N2680 1.384 . S
C2678 H2669 0.929 . S
C2678 C2670 1.378 . S
C2678 C2673 1.350 . S
C2679 H2666 0.929 . S
C2679 C2671 1.433 . S
C2679 N2681 1.384 . S
N2680 C2676 1.427 . S
N2680 C2677 1.384 . S
N2681 C2673 1.427 . S
N2681 C2679 1.384 . S
H2682 C2688 0.930 . S
H2683 C2692 0.930 . S
H2684 C2697 0.929 . S
H2685 C2695 0.929 . S
H2686 C2690 0.929 . S
H2687 C2696 0.929 . S
C2688 H2682 0.930 . S
C2688 C2689 1.367 . S
C2688 C2696 1.378 . S
C2689 C2688 1.367 . S
C2689 C2697 1.433 . S
C2690 H2686 0.929 . S
C2690 C2692 1.378 . S
C2690 C2694 1.350 . S
C2691 C2694 1.463 . S
C2691 C2696 1.350 . S
C2691 N2699 1.427 . S
C2692 H2683 0.930 . S
C2692 C2690 1.378 . S
C2692 C2693 1.367 . S
C2693 C2692 1.367 . S
C2693 C2695 1.433 . S
C2694 C2690 1.350 . S
C2694 C2691 1.463 . S
C2694 N2698 1.427 . S
C2695 H2685 0.929 . S
C2695 C2693 1.433 . S
C2695 N2698 1.384 . S
C2696 H2687 0.929 . S
C2696 C2688 1.378 . S
C2696 C2691 1.350 . S
C2697 H2684 0.929 . S
C2697 C2689 1.433 . S
C2697 N2699 1.384 . S
N2698 C2694 1.427 . S
N2698 C2695 1.384 . S
N2699 C2691 1.427 . S
N2699 C2697 1.384 . S
H2700 C2706 0.930 . S
H2701 C2710 0.930 . S
H2702 C2715 0.929 . S
H2703 C2713 0.929 . S
H2704 C2708 0.929 . S
H2705 C2714 0.929 . S
C2706 H2700 0.930 . S
C2706 C2707 1.367 . S
C2706 C2714 1.378 . S
C2707 C2706 1.367 . S
C2707 C2715 1.433 . S
C2708 H2704 0.929 . S
C2708 C2710 1.378 . S
C2708 C2712 1.350 . S
C2709 C2712 1.463 . S
C2709 C2714 1.350 . S
C2709 N2717 1.427 . S
C2710 H2701 0.930 . S
C2710 C2708 1.378 . S
C2710 C2711 1.367 . S
C2711 C2710 1.367 . S
C2711 C2713 1.433 . S
C2712 C2708 1.350 . S
C2712 C2709 1.463 . S
C2712 N2716 1.427 . S
C2713 H2703 0.929 . S
C2713 C2711 1.433 . S
C2713 N2716 1.384 . S
C2714 H2705 0.929 . S
C2714 C2706 1.378 . S
C2714 C2709 1.350 . S
C2715 H2702 0.929 . S
C2715 C2707 1.433 . S
C2715 N2717 1.384 . S
N2716 C2712 1.427 . S
N2716 C2713 1.384 . S
N2717 C2709 1.427 . S
N2717 C2715 1.384 . S
H2718 C2724 0.930 . S
H2719 C2728 0.930 . S
H2720 C2733 0.929 . S
H2721 C2731 0.929 . S
H2722 C2726 0.929 . S
H2723 C2732 0.929 . S
C2724 H2718 0.930 . S
C2724 C2725 1.367 . S
C2724 C2732 1.378 . S
C2725 C2724 1.367 . S
C2725 C2733 1.433 . S
C2726 H2722 0.929 . S
C2726 C2728 1.378 . S
C2726 C2730 1.350 . S
C2727 C2730 1.463 . S
C2727 C2732 1.350 . S
C2727 N2735 1.427 . S
C2728 H2719 0.930 . S
C2728 C2726 1.378 . S
C2728 C2729 1.367 . S
C2729 C2728 1.367 . S
C2729 C2731 1.433 . S
C2730 C2726 1.350 . S
C2730 C2727 1.463 . S
C2730 N2734 1.427 . S
C2731 H2721 0.929 . S
C2731 C2729 1.433 . S
C2731 N2734 1.384 . S
C2732 H2723 0.929 . S
C2732 C2724 1.378 . S
C2732 C2727 1.350 . S
C2733 H2720 0.929 . S
C2733 C2725 1.433 . S
C2733 N2735 1.384 . S
N2734 C2730 1.427 . S
N2734 C2731 1.384 . S
N2735 C2727 1.427 . S
N2735 C2733 1.384 . S
H2736 C2742 0.930 . S
H2737 C2746 0.930 . S
H2738 C2751 0.929 . S
H2739 C2749 0.929 . S
H2740 C2744 0.929 . S
H2741 C2750 0.929 . S
C2742 H2736 0.930 . S
C2742 C2743 1.367 . S
C2742 C2750 1.378 . S
C2743 C2742 1.367 . S
C2743 C2751 1.433 . S
C2744 H2740 0.929 . S
C2744 C2746 1.378 . S
C2744 C2748 1.350 . S
C2745 C2748 1.463 . S
C2745 C2750 1.350 . S
C2745 N2753 1.427 . S
C2746 H2737 0.930 . S
C2746 C2744 1.378 . S
C2746 C2747 1.367 . S
C2747 C2746 1.367 . S
C2747 C2749 1.433 . S
C2748 C2744 1.350 . S
C2748 C2745 1.463 . S
C2748 N2752 1.427 . S
C2749 H2739 0.929 . S
C2749 C2747 1.433 . S
C2749 N2752 1.384 . S
C2750 H2741 0.929 . S
C2750 C2742 1.378 . S
C2750 C2745 1.350 . S
C2751 H2738 0.929 . S
C2751 C2743 1.433 . S
C2751 N2753 1.384 . S
N2752 C2748 1.427 . S
N2752 C2749 1.384 . S
N2753 C2745 1.427 . S
N2753 C2751 1.384 . S
H2754 C2760 0.930 . S
H2755 C2764 0.930 . S
H2756 C2769 0.929 . S
H2757 C2767 0.929 . S
H2758 C2762 0.929 . S
H2759 C2768 0.929 . S
C2760 H2754 0.930 . S
C2760 C2761 1.367 . S
C2760 C2768 1.378 . S
C2761 C2760 1.367 . S
C2761 C2769 1.433 . S
C2762 H2758 0.929 . S
C2762 C2764 1.378 . S
C2762 C2766 1.350 . S
C2763 C2766 1.463 . S
C2763 C2768 1.350 . S
C2763 N2771 1.427 . S
C2764 H2755 0.930 . S
C2764 C2762 1.378 . S
C2764 C2765 1.367 . S
C2765 C2764 1.367 . S
C2765 C2767 1.433 . S
C2766 C2762 1.350 . S
C2766 C2763 1.463 . S
C2766 N2770 1.427 . S
C2767 H2757 0.929 . S
C2767 C2765 1.433 . S
C2767 N2770 1.384 . S
C2768 H2759 0.929 . S
C2768 C2760 1.378 . S
C2768 C2763 1.350 . S
C2769 H2756 0.929 . S
C2769 C2761 1.433 . S
C2769 N2771 1.384 . S
N2770 C2766 1.427 . S
N2770 C2767 1.384 . S
N2771 C2763 1.427 . S
N2771 C2769 1.384 . S
H2772 C2778 0.930 . S
H2773 C2782 0.930 . S
H2774 C2787 0.929 . S
H2775 C2785 0.929 . S
H2776 C2780 0.929 . S
H2777 C2786 0.929 . S
C2778 H2772 0.930 . S
C2778 C2779 1.367 . S
C2778 C2786 1.378 . S
C2779 C2778 1.367 . S
C2779 C2787 1.433 . S
C2780 H2776 0.929 . S
C2780 C2782 1.378 . S
C2780 C2784 1.350 . S
C2781 C2784 1.463 . S
C2781 C2786 1.350 . S
C2781 N2789 1.427 . S
C2782 H2773 0.930 . S
C2782 C2780 1.378 . S
C2782 C2783 1.367 . S
C2783 C2782 1.367 . S
C2783 C2785 1.433 . S
C2784 C2780 1.350 . S
C2784 C2781 1.463 . S
C2784 N2788 1.427 . S
C2785 H2775 0.929 . S
C2785 C2783 1.433 . S
C2785 N2788 1.384 . S
C2786 H2777 0.929 . S
C2786 C2778 1.378 . S
C2786 C2781 1.350 . S
C2787 H2774 0.929 . S
C2787 C2779 1.433 . S
C2787 N2789 1.384 . S
N2788 C2784 1.427 . S
N2788 C2785 1.384 . S
N2789 C2781 1.427 . S
N2789 C2787 1.384 . S
H2790 C2796 0.930 . S
H2791 C2800 0.930 . S
H2792 C2805 0.929 . S
H2793 C2803 0.929 . S
H2794 C2798 0.929 . S
H2795 C2804 0.929 . S
C2796 H2790 0.930 . S
C2796 C2797 1.367 . S
C2796 C2804 1.378 . S
C2797 C2796 1.367 . S
C2797 C2805 1.433 . S
C2798 H2794 0.929 . S
C2798 C2800 1.378 . S
C2798 C2802 1.350 . S
C2799 C2802 1.463 . S
C2799 C2804 1.350 . S
C2799 N2807 1.427 . S
C2800 H2791 0.930 . S
C2800 C2798 1.378 . S
C2800 C2801 1.367 . S
C2801 C2800 1.367 . S
C2801 C2803 1.433 . S
C2802 C2798 1.350 . S
C2802 C2799 1.463 . S
C2802 N2806 1.427 . S
C2803 H2793 0.929 . S
C2803 C2801 1.433 . S
C2803 N2806 1.384 . S
C2804 H2795 0.929 . S
C2804 C2796 1.378 . S
C2804 C2799 1.350 . S
C2805 H2792 0.929 . S
C2805 C2797 1.433 . S
C2805 N2807 1.384 . S
N2806 C2802 1.427 . S
N2806 C2803 1.384 . S
N2807 C2799 1.427 . S
N2807 C2805 1.384 . S
H2808 C2814 0.930 . S
H2809 C2818 0.930 . S
H2810 C2823 0.929 . S
H2811 C2821 0.929 . S
H2812 C2816 0.929 . S
H2813 C2822 0.929 . S
C2814 H2808 0.930 . S
C2814 C2815 1.367 . S
C2814 C2822 1.378 . S
C2815 C2814 1.367 . S
C2815 C2823 1.433 . S
C2816 H2812 0.929 . S
C2816 C2818 1.378 . S
C2816 C2820 1.350 . S
C2817 C2820 1.463 . S
C2817 C2822 1.350 . S
C2817 N2825 1.427 . S
C2818 H2809 0.930 . S
C2818 C2816 1.378 . S
C2818 C2819 1.367 . S
C2819 C2818 1.367 . S
C2819 C2821 1.433 . S
C2820 C2816 1.350 . S
C2820 C2817 1.463 . S
C2820 N2824 1.427 . S
C2821 H2811 0.929 . S
C2821 C2819 1.433 . S
C2821 N2824 1.384 . S
C2822 H2813 0.929 . S
C2822 C2814 1.378 . S
C2822 C2817 1.350 . S
C2823 H2810 0.929 . S
C2823 C2815 1.433 . S
C2823 N2825 1.384 . S
N2824 C2820 1.427 . S
N2824 C2821 1.384 . S
N2825 C2817 1.427 . S
N2825 C2823 1.384 . S
H2826 C2832 0.930 . S
H2827 C2836 0.930 . S
H2828 C2841 0.929 . S
H2829 C2839 0.929 . S
H2830 C2834 0.929 . S
H2831 C2840 0.929 . S
C2832 H2826 0.930 . S
C2832 C2833 1.367 . S
C2832 C2840 1.378 . S
C2833 C2832 1.367 . S
C2833 C2841 1.433 . S
C2834 H2830 0.929 . S
C2834 C2836 1.378 . S
C2834 C2838 1.350 . S
C2835 C2838 1.463 . S
C2835 C2840 1.350 . S
C2835 N2843 1.427 . S
C2836 H2827 0.930 . S
C2836 C2834 1.378 . S
C2836 C2837 1.367 . S
C2837 C2836 1.367 . S
C2837 C2839 1.433 . S
C2838 C2834 1.350 . S
C2838 C2835 1.463 . S
C2838 N2842 1.427 . S
C2839 H2829 0.929 . S
C2839 C2837 1.433 . S
C2839 N2842 1.384 . S
C2840 H2831 0.929 . S
C2840 C2832 1.378 . S
C2840 C2835 1.350 . S
C2841 H2828 0.929 . S
C2841 C2833 1.433 . S
C2841 N2843 1.384 . S
N2842 C2838 1.427 . S
N2842 C2839 1.384 . S
N2843 C2835 1.427 . S
N2843 C2841 1.384 . S
H2844 C2850 0.930 . S
H2845 C2854 0.930 . S
H2846 C2859 0.929 . S
H2847 C2857 0.929 . S
H2848 C2852 0.929 . S
H2849 C2858 0.929 . S
C2850 H2844 0.930 . S
C2850 C2851 1.367 . S
C2850 C2858 1.378 . S
C2851 C2850 1.367 . S
C2851 C2859 1.433 . S
C2852 H2848 0.929 . S
C2852 C2854 1.378 . S
C2852 C2856 1.350 . S
C2853 C2856 1.463 . S
C2853 C2858 1.350 . S
C2853 N2861 1.427 . S
C2854 H2845 0.930 . S
C2854 C2852 1.378 . S
C2854 C2855 1.367 . S
C2855 C2854 1.367 . S
C2855 C2857 1.433 . S
C2856 C2852 1.350 . S
C2856 C2853 1.463 . S
C2856 N2860 1.427 . S
C2857 H2847 0.929 . S
C2857 C2855 1.433 . S
C2857 N2860 1.384 . S
C2858 H2849 0.929 . S
C2858 C2850 1.378 . S
C2858 C2853 1.350 . S
C2859 H2846 0.929 . S
C2859 C2851 1.433 . S
C2859 N2861 1.384 . S
N2860 C2856 1.427 . S
N2860 C2857 1.384 . S
N2861 C2853 1.427 . S
N2861 C2859 1.384 . S
H2862 C2868 0.930 . S
H2863 C2872 0.930 . S
H2864 C2877 0.929 . S
H2865 C2875 0.929 . S
H2866 C2870 0.929 . S
H2867 C2876 0.929 . S
C2868 H2862 0.930 . S
C2868 C2869 1.367 . S
C2868 C2876 1.378 . S
C2869 C2868 1.367 . S
C2869 C2877 1.433 . S
C2870 H2866 0.929 . S
C2870 C2872 1.378 . S
C2870 C2874 1.350 . S
C2871 C2874 1.463 . S
C2871 C2876 1.350 . S
C2871 N2879 1.427 . S
C2872 H2863 0.930 . S
C2872 C2870 1.378 . S
C2872 C2873 1.367 . S
C2873 C2872 1.367 . S
C2873 C2875 1.433 . S
C2874 C2870 1.350 . S
C2874 C2871 1.463 . S
C2874 N2878 1.427 . S
C2875 H2865 0.929 . S
C2875 C2873 1.433 . S
C2875 N2878 1.384 . S
C2876 H2867 0.929 . S
C2876 C2868 1.378 . S
C2876 C2871 1.350 . S
C2877 H2864 0.929 . S
C2877 C2869 1.433 . S
C2877 N2879 1.384 . S
N2878 C2874 1.427 . S
N2878 C2875 1.384 . S
N2879 C2871 1.427 . S
N2879 C2877 1.384 . S
H2880 C2886 0.930 . S
H2881 C2890 0.930 . S
H2882 C2895 0.929 . S
H2883 C2893 0.929 . S
H2884 C2888 0.929 . S
H2885 C2894 0.929 . S
C2886 H2880 0.930 . S
C2886 C2887 1.367 . S
C2886 C2894 1.378 . S
C2887 C2886 1.367 . S
C2887 C2895 1.433 . S
C2888 H2884 0.929 . S
C2888 C2890 1.378 . S
C2888 C2892 1.350 . S
C2889 C2892 1.463 . S
C2889 C2894 1.350 . S
C2889 N2897 1.427 . S
C2890 H2881 0.930 . S
C2890 C2888 1.378 . S
C2890 C2891 1.367 . S
C2891 C2890 1.367 . S
C2891 C2893 1.433 . S
C2892 C2888 1.350 . S
C2892 C2889 1.463 . S
C2892 N2896 1.427 . S
C2893 H2883 0.929 . S
C2893 C2891 1.433 . S
C2893 N2896 1.384 . S
C2894 H2885 0.929 . S
C2894 C2886 1.378 . S
C2894 C2889 1.350 . S
C2895 H2882 0.929 . S
C2895 C2887 1.433 . S
C2895 N2897 1.384 . S
N2896 C2892 1.427 . S
N2896 C2893 1.384 . S
N2897 C2889 1.427 . S
N2897 C2895 1.384 . S
H2898 C2904 0.930 . S
H2899 C2908 0.930 . S
H2900 C2913 0.929 . S
H2901 C2911 0.929 . S
H2902 C2906 0.929 . S
H2903 C2912 0.929 . S
C2904 H2898 0.930 . S
C2904 C2905 1.367 . S
C2904 C2912 1.378 . S
C2905 C2904 1.367 . S
C2905 C2913 1.433 . S
C2906 H2902 0.929 . S
C2906 C2908 1.378 . S
C2906 C2910 1.350 . S
C2907 C2910 1.463 . S
C2907 C2912 1.350 . S
C2907 N2915 1.427 . S
C2908 H2899 0.930 . S
C2908 C2906 1.378 . S
C2908 C2909 1.367 . S
C2909 C2908 1.367 . S
C2909 C2911 1.433 . S
C2910 C2906 1.350 . S
C2910 C2907 1.463 . S
C2910 N2914 1.427 . S
C2911 H2901 0.929 . S
C2911 C2909 1.433 . S
C2911 N2914 1.384 . S
C2912 H2903 0.929 . S
C2912 C2904 1.378 . S
C2912 C2907 1.350 . S
C2913 H2900 0.929 . S
C2913 C2905 1.433 . S
C2913 N2915 1.384 . S
N2914 C2910 1.427 . S
N2914 C2911 1.384 . S
N2915 C2907 1.427 . S
N2915 C2913 1.384 . S
H2916 C2922 0.930 . S
H2917 C2926 0.930 . S
H2918 C2931 0.929 . S
H2919 C2929 0.929 . S
H2920 C2924 0.929 . S
H2921 C2930 0.929 . S
C2922 H2916 0.930 . S
C2922 C2923 1.367 . S
C2922 C2930 1.378 . S
C2923 C2922 1.367 . S
C2923 C2931 1.433 . S
C2924 H2920 0.929 . S
C2924 C2926 1.378 . S
C2924 C2928 1.350 . S
C2925 C2928 1.463 . S
C2925 C2930 1.350 . S
C2925 N2933 1.427 . S
C2926 H2917 0.930 . S
C2926 C2924 1.378 . S
C2926 C2927 1.367 . S
C2927 C2926 1.367 . S
C2927 C2929 1.433 . S
C2928 C2924 1.350 . S
C2928 C2925 1.463 . S
C2928 N2932 1.427 . S
C2929 H2919 0.929 . S
C2929 C2927 1.433 . S
C2929 N2932 1.384 . S
C2930 H2921 0.929 . S
C2930 C2922 1.378 . S
C2930 C2925 1.350 . S
C2931 H2918 0.929 . S
C2931 C2923 1.433 . S
C2931 N2933 1.384 . S
N2932 C2928 1.427 . S
N2932 C2929 1.384 . S
N2933 C2925 1.427 . S
N2933 C2931 1.384 . S
H2934 C2940 0.930 . S
H2935 C2944 0.930 . S
H2936 C2949 0.929 . S
H2937 C2947 0.929 . S
H2938 C2942 0.929 . S
H2939 C2948 0.929 . S
C2940 H2934 0.930 . S
C2940 C2941 1.367 . S
C2940 C2948 1.378 . S
C2941 C2940 1.367 . S
C2941 C2949 1.433 . S
C2942 H2938 0.929 . S
C2942 C2944 1.378 . S
C2942 C2946 1.350 . S
C2943 C2946 1.463 . S
C2943 C2948 1.350 . S
C2943 N2951 1.427 . S
C2944 H2935 0.930 . S
C2944 C2942 1.378 . S
C2944 C2945 1.367 . S
C2945 C2944 1.367 . S
C2945 C2947 1.433 . S
C2946 C2942 1.350 . S
C2946 C2943 1.463 . S
C2946 N2950 1.427 . S
C2947 H2937 0.929 . S
C2947 C2945 1.433 . S
C2947 N2950 1.384 . S
C2948 H2939 0.929 . S
C2948 C2940 1.378 . S
C2948 C2943 1.350 . S
C2949 H2936 0.929 . S
C2949 C2941 1.433 . S
C2949 N2951 1.384 . S
N2950 C2946 1.427 . S
N2950 C2947 1.384 . S
N2951 C2943 1.427 . S
N2951 C2949 1.384 . S
H2952 C2958 0.930 . S
H2953 C2962 0.930 . S
H2954 C2967 0.929 . S
H2955 C2965 0.929 . S
H2956 C2960 0.929 . S
H2957 C2966 0.929 . S
C2958 H2952 0.930 . S
C2958 C2959 1.367 . S
C2958 C2966 1.378 . S
C2959 C2958 1.367 . S
C2959 C2967 1.433 . S
C2960 H2956 0.929 . S
C2960 C2962 1.378 . S
C2960 C2964 1.350 . S
C2961 C2964 1.463 . S
C2961 C2966 1.350 . S
C2961 N2969 1.427 . S
C2962 H2953 0.930 . S
C2962 C2960 1.378 . S
C2962 C2963 1.367 . S
C2963 C2962 1.367 . S
C2963 C2965 1.433 . S
C2964 C2960 1.350 . S
C2964 C2961 1.463 . S
C2964 N2968 1.427 . S
C2965 H2955 0.929 . S
C2965 C2963 1.433 . S
C2965 N2968 1.384 . S
C2966 H2957 0.929 . S
C2966 C2958 1.378 . S
C2966 C2961 1.350 . S
C2967 H2954 0.929 . S
C2967 C2959 1.433 . S
C2967 N2969 1.384 . S
N2968 C2964 1.427 . S
N2968 C2965 1.384 . S
N2969 C2961 1.427 . S
N2969 C2967 1.384 . S
H2970 C2976 0.930 . S
H2971 C2980 0.930 . S
H2972 C2985 0.929 . S
H2973 C2983 0.929 . S
H2974 C2978 0.929 . S
H2975 C2984 0.929 . S
C2976 H2970 0.930 . S
C2976 C2977 1.367 . S
C2976 C2984 1.378 . S
C2977 C2976 1.367 . S
C2977 C2985 1.433 . S
C2978 H2974 0.929 . S
C2978 C2980 1.378 . S
C2978 C2982 1.350 . S
C2979 C2982 1.463 . S
C2979 C2984 1.350 . S
C2979 N2987 1.427 . S
C2980 H2971 0.930 . S
C2980 C2978 1.378 . S
C2980 C2981 1.367 . S
C2981 C2980 1.367 . S
C2981 C2983 1.433 . S
C2982 C2978 1.350 . S
C2982 C2979 1.463 . S
C2982 N2986 1.427 . S
C2983 H2973 0.929 . S
C2983 C2981 1.433 . S
C2983 N2986 1.384 . S
C2984 H2975 0.929 . S
C2984 C2976 1.378 . S
C2984 C2979 1.350 . S
C2985 H2972 0.929 . S
C2985 C2977 1.433 . S
C2985 N2987 1.384 . S
N2986 C2982 1.427 . S
N2986 C2983 1.384 . S
N2987 C2979 1.427 . S
N2987 C2985 1.384 . S
H2988 C2994 0.930 . S
H2989 C2998 0.930 . S
H2990 C3003 0.929 . S
H2991 C3001 0.929 . S
H2992 C2996 0.929 . S
H2993 C3002 0.929 . S
C2994 H2988 0.930 . S
C2994 C2995 1.367 . S
C2994 C3002 1.378 . S
C2995 C2994 1.367 . S
C2995 C3003 1.433 . S
C2996 H2992 0.929 . S
C2996 C2998 1.378 . S
C2996 C3000 1.350 . S
C2997 C3000 1.463 . S
C2997 C3002 1.350 . S
C2997 N3005 1.427 . S
C2998 H2989 0.930 . S
C2998 C2996 1.378 . S
C2998 C2999 1.367 . S
C2999 C2998 1.367 . S
C2999 C3001 1.433 . S
C3000 C2996 1.350 . S
C3000 C2997 1.463 . S
C3000 N3004 1.427 . S
C3001 H2991 0.929 . S
C3001 C2999 1.433 . S
C3001 N3004 1.384 . S
C3002 H2993 0.929 . S
C3002 C2994 1.378 . S
C3002 C2997 1.350 . S
C3003 H2990 0.929 . S
C3003 C2995 1.433 . S
C3003 N3005 1.384 . S
N3004 C3000 1.427 . S
N3004 C3001 1.384 . S
N3005 C2997 1.427 . S
N3005 C3003 1.384 . S
H3006 C3012 0.930 . S
H3007 C3016 0.930 . S
H3008 C3021 0.929 . S
H3009 C3019 0.929 . S
H3010 C3014 0.929 . S
H3011 C3020 0.929 . S
C3012 H3006 0.930 . S
C3012 C3013 1.367 . S
C3012 C3020 1.378 . S
C3013 C3012 1.367 . S
C3013 C3021 1.433 . S
C3014 H3010 0.929 . S
C3014 C3016 1.378 . S
C3014 C3018 1.350 . S
C3015 C3018 1.463 . S
C3015 C3020 1.350 . S
C3015 N3023 1.427 . S
C3016 H3007 0.930 . S
C3016 C3014 1.378 . S
C3016 C3017 1.367 . S
C3017 C3016 1.367 . S
C3017 C3019 1.433 . S
C3018 C3014 1.350 . S
C3018 C3015 1.463 . S
C3018 N3022 1.427 . S
C3019 H3009 0.929 . S
C3019 C3017 1.433 . S
C3019 N3022 1.384 . S
C3020 H3011 0.929 . S
C3020 C3012 1.378 . S
C3020 C3015 1.350 . S
C3021 H3008 0.929 . S
C3021 C3013 1.433 . S
C3021 N3023 1.384 . S
N3022 C3018 1.427 . S
N3022 C3019 1.384 . S
N3023 C3015 1.427 . S
N3023 C3021 1.384 . S
H3024 C3030 0.930 . S
H3025 C3034 0.930 . S
H3026 C3039 0.929 . S
H3027 C3037 0.929 . S
H3028 C3032 0.929 . S
H3029 C3038 0.929 . S
C3030 H3024 0.930 . S
C3030 C3031 1.367 . S
C3030 C3038 1.378 . S
C3031 C3030 1.367 . S
C3031 C3039 1.433 . S
C3032 H3028 0.929 . S
C3032 C3034 1.378 . S
C3032 C3036 1.350 . S
C3033 C3036 1.463 . S
C3033 C3038 1.350 . S
C3033 N3041 1.427 . S
C3034 H3025 0.930 . S
C3034 C3032 1.378 . S
C3034 C3035 1.367 . S
C3035 C3034 1.367 . S
C3035 C3037 1.433 . S
C3036 C3032 1.350 . S
C3036 C3033 1.463 . S
C3036 N3040 1.427 . S
C3037 H3027 0.929 . S
C3037 C3035 1.433 . S
C3037 N3040 1.384 . S
C3038 H3029 0.929 . S
C3038 C3030 1.378 . S
C3038 C3033 1.350 . S
C3039 H3026 0.929 . S
C3039 C3031 1.433 . S
C3039 N3041 1.384 . S
N3040 C3036 1.427 . S
N3040 C3037 1.384 . S
N3041 C3033 1.427 . S
N3041 C3039 1.384 . S
H3042 C3048 0.930 . S
H3043 C3052 0.930 . S
H3044 C3057 0.929 . S
H3045 C3055 0.929 . S
H3046 C3050 0.929 . S
H3047 C3056 0.929 . S
C3048 H3042 0.930 . S
C3048 C3049 1.367 . S
C3048 C3056 1.378 . S
C3049 C3048 1.367 . S
C3049 C3057 1.433 . S
C3050 H3046 0.929 . S
C3050 C3052 1.378 . S
C3050 C3054 1.350 . S
C3051 C3054 1.463 . S
C3051 C3056 1.350 . S
C3051 N3059 1.427 . S
C3052 H3043 0.930 . S
C3052 C3050 1.378 . S
C3052 C3053 1.367 . S
C3053 C3052 1.367 . S
C3053 C3055 1.433 . S
C3054 C3050 1.350 . S
C3054 C3051 1.463 . S
C3054 N3058 1.427 . S
C3055 H3045 0.929 . S
C3055 C3053 1.433 . S
C3055 N3058 1.384 . S
C3056 H3047 0.929 . S
C3056 C3048 1.378 . S
C3056 C3051 1.350 . S
C3057 H3044 0.929 . S
C3057 C3049 1.433 . S
C3057 N3059 1.384 . S
N3058 C3054 1.427 . S
N3058 C3055 1.384 . S
N3059 C3051 1.427 . S
N3059 C3057 1.384 . S
H3060 C3066 0.930 . S
H3061 C3070 0.930 . S
H3062 C3075 0.929 . S
H3063 C3073 0.929 . S
H3064 C3068 0.929 . S
H3065 C3074 0.929 . S
C3066 H3060 0.930 . S
C3066 C3067 1.367 . S
C3066 C3074 1.378 . S
C3067 C3066 1.367 . S
C3067 C3075 1.433 . S
C3068 H3064 0.929 . S
C3068 C3070 1.378 . S
C3068 C3072 1.350 . S
C3069 C3072 1.463 . S
C3069 C3074 1.350 . S
C3069 N3077 1.427 . S
C3070 H3061 0.930 . S
C3070 C3068 1.378 . S
C3070 C3071 1.367 . S
C3071 C3070 1.367 . S
C3071 C3073 1.433 . S
C3072 C3068 1.350 . S
C3072 C3069 1.463 . S
C3072 N3076 1.427 . S
C3073 H3063 0.929 . S
C3073 C3071 1.433 . S
C3073 N3076 1.384 . S
C3074 H3065 0.929 . S
C3074 C3066 1.378 . S
C3074 C3069 1.350 . S
C3075 H3062 0.929 . S
C3075 C3067 1.433 . S
C3075 N3077 1.384 . S
N3076 C3072 1.427 . S
N3076 C3073 1.384 . S
N3077 C3069 1.427 . S
N3077 C3075 1.384 . S
H3078 C3084 0.930 . S
H3079 C3088 0.930 . S
H3080 C3093 0.929 . S
H3081 C3091 0.929 . S
H3082 C3086 0.929 . S
H3083 C3092 0.929 . S
C3084 H3078 0.930 . S
C3084 C3085 1.367 . S
C3084 C3092 1.378 . S
C3085 C3084 1.367 . S
C3085 C3093 1.433 . S
C3086 H3082 0.929 . S
C3086 C3088 1.378 . S
C3086 C3090 1.350 . S
C3087 C3090 1.463 . S
C3087 C3092 1.350 . S
C3087 N3095 1.427 . S
C3088 H3079 0.930 . S
C3088 C3086 1.378 . S
C3088 C3089 1.367 . S
C3089 C3088 1.367 . S
C3089 C3091 1.433 . S
C3090 C3086 1.350 . S
C3090 C3087 1.463 . S
C3090 N3094 1.427 . S
C3091 H3081 0.929 . S
C3091 C3089 1.433 . S
C3091 N3094 1.384 . S
C3092 H3083 0.929 . S
C3092 C3084 1.378 . S
C3092 C3087 1.350 . S
C3093 H3080 0.929 . S
C3093 C3085 1.433 . S
C3093 N3095 1.384 . S
N3094 C3090 1.427 . S
N3094 C3091 1.384 . S
N3095 C3087 1.427 . S
N3095 C3093 1.384 . S
H3096 C3102 0.930 . S
H3097 C3106 0.930 . S
H3098 C3111 0.929 . S
H3099 C3109 0.929 . S
H3100 C3104 0.929 . S
H3101 C3110 0.929 . S
C3102 H3096 0.930 . S
C3102 C3103 1.367 . S
C3102 C3110 1.378 . S
C3103 C3102 1.367 . S
C3103 C3111 1.433 . S
C3104 H3100 0.929 . S
C3104 C3106 1.378 . S
C3104 C3108 1.350 . S
C3105 C3108 1.463 . S
C3105 C3110 1.350 . S
C3105 N3113 1.427 . S
C3106 H3097 0.930 . S
C3106 C3104 1.378 . S
C3106 C3107 1.367 . S
C3107 C3106 1.367 . S
C3107 C3109 1.433 . S
C3108 C3104 1.350 . S
C3108 C3105 1.463 . S
C3108 N3112 1.427 . S
C3109 H3099 0.929 . S
C3109 C3107 1.433 . S
C3109 N3112 1.384 . S
C3110 H3101 0.929 . S
C3110 C3102 1.378 . S
C3110 C3105 1.350 . S
C3111 H3098 0.929 . S
C3111 C3103 1.433 . S
C3111 N3113 1.384 . S
N3112 C3108 1.427 . S
N3112 C3109 1.384 . S
N3113 C3105 1.427 . S
N3113 C3111 1.384 . S
H3114 C3120 0.930 . S
H3115 C3124 0.930 . S
H3116 C3129 0.929 . S
H3117 C3127 0.929 . S
H3118 C3122 0.929 . S
H3119 C3128 0.929 . S
C3120 H3114 0.930 . S
C3120 C3121 1.367 . S
C3120 C3128 1.378 . S
C3121 C3120 1.367 . S
C3121 C3129 1.433 . S
C3122 H3118 0.929 . S
C3122 C3124 1.378 . S
C3122 C3126 1.350 . S
C3123 C3126 1.463 . S
C3123 C3128 1.350 . S
C3123 N3131 1.427 . S
C3124 H3115 0.930 . S
C3124 C3122 1.378 . S
C3124 C3125 1.367 . S
C3125 C3124 1.367 . S
C3125 C3127 1.433 . S
C3126 C3122 1.350 . S
C3126 C3123 1.463 . S
C3126 N3130 1.427 . S
C3127 H3117 0.929 . S
C3127 C3125 1.433 . S
C3127 N3130 1.384 . S
C3128 H3119 0.929 . S
C3128 C3120 1.378 . S
C3128 C3123 1.350 . S
C3129 H3116 0.929 . S
C3129 C3121 1.433 . S
C3129 N3131 1.384 . S
N3130 C3126 1.427 . S
N3130 C3127 1.384 . S
N3131 C3123 1.427 . S
N3131 C3129 1.384 . S
H3132 C3138 0.930 . S
H3133 C3142 0.930 . S
H3134 C3147 0.929 . S
H3135 C3145 0.929 . S
H3136 C3140 0.929 . S
H3137 C3146 0.929 . S
C3138 H3132 0.930 . S
C3138 C3139 1.367 . S
C3138 C3146 1.378 . S
C3139 C3138 1.367 . S
C3139 C3147 1.433 . S
C3140 H3136 0.929 . S
C3140 C3142 1.378 . S
C3140 C3144 1.350 . S
C3141 C3144 1.463 . S
C3141 C3146 1.350 . S
C3141 N3149 1.427 . S
C3142 H3133 0.930 . S
C3142 C3140 1.378 . S
C3142 C3143 1.367 . S
C3143 C3142 1.367 . S
C3143 C3145 1.433 . S
C3144 C3140 1.350 . S
C3144 C3141 1.463 . S
C3144 N3148 1.427 . S
C3145 H3135 0.929 . S
C3145 C3143 1.433 . S
C3145 N3148 1.384 . S
C3146 H3137 0.929 . S
C3146 C3138 1.378 . S
C3146 C3141 1.350 . S
C3147 H3134 0.929 . S
C3147 C3139 1.433 . S
C3147 N3149 1.384 . S
N3148 C3144 1.427 . S
N3148 C3145 1.384 . S
N3149 C3141 1.427 . S
N3149 C3147 1.384 . S
H3150 C3156 0.930 . S
H3151 C3160 0.930 . S
H3152 C3165 0.929 . S
H3153 C3163 0.929 . S
H3154 C3158 0.929 . S
H3155 C3164 0.929 . S
C3156 H3150 0.930 . S
C3156 C3157 1.367 . S
C3156 C3164 1.378 . S
C3157 C3156 1.367 . S
C3157 C3165 1.433 . S
C3158 H3154 0.929 . S
C3158 C3160 1.378 . S
C3158 C3162 1.350 . S
C3159 C3162 1.463 . S
C3159 C3164 1.350 . S
C3159 N3167 1.427 . S
C3160 H3151 0.930 . S
C3160 C3158 1.378 . S
C3160 C3161 1.367 . S
C3161 C3160 1.367 . S
C3161 C3163 1.433 . S
C3162 C3158 1.350 . S
C3162 C3159 1.463 . S
C3162 N3166 1.427 . S
C3163 H3153 0.929 . S
C3163 C3161 1.433 . S
C3163 N3166 1.384 . S
C3164 H3155 0.929 . S
C3164 C3156 1.378 . S
C3164 C3159 1.350 . S
C3165 H3152 0.929 . S
C3165 C3157 1.433 . S
C3165 N3167 1.384 . S
N3166 C3162 1.427 . S
N3166 C3163 1.384 . S
N3167 C3159 1.427 . S
N3167 C3165 1.384 . S
H3168 C3174 0.930 . S
H3169 C3178 0.930 . S
H3170 C3183 0.929 . S
H3171 C3181 0.929 . S
H3172 C3176 0.929 . S
H3173 C3182 0.929 . S
C3174 H3168 0.930 . S
C3174 C3175 1.367 . S
C3174 C3182 1.378 . S
C3175 C3174 1.367 . S
C3175 C3183 1.433 . S
C3176 H3172 0.929 . S
C3176 C3178 1.378 . S
C3176 C3180 1.350 . S
C3177 C3180 1.463 . S
C3177 C3182 1.350 . S
C3177 N3185 1.427 . S
C3178 H3169 0.930 . S
C3178 C3176 1.378 . S
C3178 C3179 1.367 . S
C3179 C3178 1.367 . S
C3179 C3181 1.433 . S
C3180 C3176 1.350 . S
C3180 C3177 1.463 . S
C3180 N3184 1.427 . S
C3181 H3171 0.929 . S
C3181 C3179 1.433 . S
C3181 N3184 1.384 . S
C3182 H3173 0.929 . S
C3182 C3174 1.378 . S
C3182 C3177 1.350 . S
C3183 H3170 0.929 . S
C3183 C3175 1.433 . S
C3183 N3185 1.384 . S
N3184 C3180 1.427 . S
N3184 C3181 1.384 . S
N3185 C3177 1.427 . S
N3185 C3183 1.384 . S
H3186 C3192 0.930 . S
H3187 C3196 0.930 . S
H3188 C3201 0.929 . S
H3189 C3199 0.929 . S
H3190 C3194 0.929 . S
H3191 C3200 0.929 . S
C3192 H3186 0.930 . S
C3192 C3193 1.367 . S
C3192 C3200 1.378 . S
C3193 C3192 1.367 . S
C3193 C3201 1.433 . S
C3194 H3190 0.929 . S
C3194 C3196 1.378 . S
C3194 C3198 1.350 . S
C3195 C3198 1.463 . S
C3195 C3200 1.350 . S
C3195 N3203 1.427 . S
C3196 H3187 0.930 . S
C3196 C3194 1.378 . S
C3196 C3197 1.367 . S
C3197 C3196 1.367 . S
C3197 C3199 1.433 . S
C3198 C3194 1.350 . S
C3198 C3195 1.463 . S
C3198 N3202 1.427 . S
C3199 H3189 0.929 . S
C3199 C3197 1.433 . S
C3199 N3202 1.384 . S
C3200 H3191 0.929 . S
C3200 C3192 1.378 . S
C3200 C3195 1.350 . S
C3201 H3188 0.929 . S
C3201 C3193 1.433 . S
C3201 N3203 1.384 . S
N3202 C3198 1.427 . S
N3202 C3199 1.384 . S
N3203 C3195 1.427 . S
N3203 C3201 1.384 . S
H3204 C3210 0.930 . S
H3205 C3214 0.930 . S
H3206 C3219 0.929 . S
H3207 C3217 0.929 . S
H3208 C3212 0.929 . S
H3209 C3218 0.929 . S
C3210 H3204 0.930 . S
C3210 C3211 1.367 . S
C3210 C3218 1.378 . S
C3211 C3210 1.367 . S
C3211 C3219 1.433 . S
C3212 H3208 0.929 . S
C3212 C3214 1.378 . S
C3212 C3216 1.350 . S
C3213 C3216 1.463 . S
C3213 C3218 1.350 . S
C3213 N3221 1.427 . S
C3214 H3205 0.930 . S
C3214 C3212 1.378 . S
C3214 C3215 1.367 . S
C3215 C3214 1.367 . S
C3215 C3217 1.433 . S
C3216 C3212 1.350 . S
C3216 C3213 1.463 . S
C3216 N3220 1.427 . S
C3217 H3207 0.929 . S
C3217 C3215 1.433 . S
C3217 N3220 1.384 . S
C3218 H3209 0.929 . S
C3218 C3210 1.378 . S
C3218 C3213 1.350 . S
C3219 H3206 0.929 . S
C3219 C3211 1.433 . S
C3219 N3221 1.384 . S
N3220 C3216 1.427 . S
N3220 C3217 1.384 . S
N3221 C3213 1.427 . S
N3221 C3219 1.384 . S
H3222 C3228 0.930 . S
H3223 C3232 0.930 . S
H3224 C3237 0.929 . S
H3225 C3235 0.929 . S
H3226 C3230 0.929 . S
H3227 C3236 0.929 . S
C3228 H3222 0.930 . S
C3228 C3229 1.367 . S
C3228 C3236 1.378 . S
C3229 C3228 1.367 . S
C3229 C3237 1.433 . S
C3230 H3226 0.929 . S
C3230 C3232 1.378 . S
C3230 C3234 1.350 . S
C3231 C3234 1.463 . S
C3231 C3236 1.350 . S
C3231 N3239 1.427 . S
C3232 H3223 0.930 . S
C3232 C3230 1.378 . S
C3232 C3233 1.367 . S
C3233 C3232 1.367 . S
C3233 C3235 1.433 . S
C3234 C3230 1.350 . S
C3234 C3231 1.463 . S
C3234 N3238 1.427 . S
C3235 H3225 0.929 . S
C3235 C3233 1.433 . S
C3235 N3238 1.384 . S
C3236 H3227 0.929 . S
C3236 C3228 1.378 . S
C3236 C3231 1.350 . S
C3237 H3224 0.929 . S
C3237 C3229 1.433 . S
C3237 N3239 1.384 . S
N3238 C3234 1.427 . S
N3238 C3235 1.384 . S
N3239 C3231 1.427 . S
N3239 C3237 1.384 . S
H3240 C3246 0.930 . S
H3241 C3250 0.930 . S
H3242 C3255 0.929 . S
H3243 C3253 0.929 . S
H3244 C3248 0.929 . S
H3245 C3254 0.929 . S
C3246 H3240 0.930 . S
C3246 C3247 1.367 . S
C3246 C3254 1.378 . S
C3247 C3246 1.367 . S
C3247 C3255 1.433 . S
C3248 H3244 0.929 . S
C3248 C3250 1.378 . S
C3248 C3252 1.350 . S
C3249 C3252 1.463 . S
C3249 C3254 1.350 . S
C3249 N3257 1.427 . S
C3250 H3241 0.930 . S
C3250 C3248 1.378 . S
C3250 C3251 1.367 . S
C3251 C3250 1.367 . S
C3251 C3253 1.433 . S
C3252 C3248 1.350 . S
C3252 C3249 1.463 . S
C3252 N3256 1.427 . S
C3253 H3243 0.929 . S
C3253 C3251 1.433 . S
C3253 N3256 1.384 . S
C3254 H3245 0.929 . S
C3254 C3246 1.378 . S
C3254 C3249 1.350 . S
C3255 H3242 0.929 . S
C3255 C3247 1.433 . S
C3255 N3257 1.384 . S
N3256 C3252 1.427 . S
N3256 C3253 1.384 . S
N3257 C3249 1.427 . S
N3257 C3255 1.384 . S
H3258 C3264 0.930 . S
H3259 C3268 0.930 . S
H3260 C3273 0.929 . S
H3261 C3271 0.929 . S
H3262 C3266 0.929 . S
H3263 C3272 0.929 . S
C3264 H3258 0.930 . S
C3264 C3265 1.367 . S
C3264 C3272 1.378 . S
C3265 C3264 1.367 . S
C3265 C3273 1.433 . S
C3266 H3262 0.929 . S
C3266 C3268 1.378 . S
C3266 C3270 1.350 . S
C3267 C3270 1.463 . S
C3267 C3272 1.350 . S
C3267 N3275 1.427 . S
C3268 H3259 0.930 . S
C3268 C3266 1.378 . S
C3268 C3269 1.367 . S
C3269 C3268 1.367 . S
C3269 C3271 1.433 . S
C3270 C3266 1.350 . S
C3270 C3267 1.463 . S
C3270 N3274 1.427 . S
C3271 H3261 0.929 . S
C3271 C3269 1.433 . S
C3271 N3274 1.384 . S
C3272 H3263 0.929 . S
C3272 C3264 1.378 . S
C3272 C3267 1.350 . S
C3273 H3260 0.929 . S
C3273 C3265 1.433 . S
C3273 N3275 1.384 . S
N3274 C3270 1.427 . S
N3274 C3271 1.384 . S
N3275 C3267 1.427 . S
N3275 C3273 1.384 . S
H3276 C3282 0.930 . S
H3277 C3286 0.930 . S
H3278 C3291 0.929 . S
H3279 C3289 0.929 . S
H3280 C3284 0.929 . S
H3281 C3290 0.929 . S
C3282 H3276 0.930 . S
C3282 C3283 1.367 . S
C3282 C3290 1.378 . S
C3283 C3282 1.367 . S
C3283 C3291 1.433 . S
C3284 H3280 0.929 . S
C3284 C3286 1.378 . S
C3284 C3288 1.350 . S
C3285 C3288 1.463 . S
C3285 C3290 1.350 . S
C3285 N3293 1.427 . S
C3286 H3277 0.930 . S
C3286 C3284 1.378 . S
C3286 C3287 1.367 . S
C3287 C3286 1.367 . S
C3287 C3289 1.433 . S
C3288 C3284 1.350 . S
C3288 C3285 1.463 . S
C3288 N3292 1.427 . S
C3289 H3279 0.929 . S
C3289 C3287 1.433 . S
C3289 N3292 1.384 . S
C3290 H3281 0.929 . S
C3290 C3282 1.378 . S
C3290 C3285 1.350 . S
C3291 H3278 0.929 . S
C3291 C3283 1.433 . S
C3291 N3293 1.384 . S
N3292 C3288 1.427 . S
N3292 C3289 1.384 . S
N3293 C3285 1.427 . S
N3293 C3291 1.384 . S
H3294 C3300 0.930 . S
H3295 C3304 0.930 . S
H3296 C3309 0.929 . S
H3297 C3307 0.929 . S
H3298 C3302 0.929 . S
H3299 C3308 0.929 . S
C3300 H3294 0.930 . S
C3300 C3301 1.367 . S
C3300 C3308 1.378 . S
C3301 C3300 1.367 . S
C3301 C3309 1.433 . S
C3302 H3298 0.929 . S
C3302 C3304 1.378 . S
C3302 C3306 1.350 . S
C3303 C3306 1.463 . S
C3303 C3308 1.350 . S
C3303 N3311 1.427 . S
C3304 H3295 0.930 . S
C3304 C3302 1.378 . S
C3304 C3305 1.367 . S
C3305 C3304 1.367 . S
C3305 C3307 1.433 . S
C3306 C3302 1.350 . S
C3306 C3303 1.463 . S
C3306 N3310 1.427 . S
C3307 H3297 0.929 . S
C3307 C3305 1.433 . S
C3307 N3310 1.384 . S
C3308 H3299 0.929 . S
C3308 C3300 1.378 . S
C3308 C3303 1.350 . S
C3309 H3296 0.929 . S
C3309 C3301 1.433 . S
C3309 N3311 1.384 . S
N3310 C3306 1.427 . S
N3310 C3307 1.384 . S
N3311 C3303 1.427 . S
N3311 C3309 1.384 . S
H3312 C3318 0.930 . S
H3313 C3322 0.930 . S
H3314 C3327 0.929 . S
H3315 C3325 0.929 . S
H3316 C3320 0.929 . S
H3317 C3326 0.929 . S
C3318 H3312 0.930 . S
C3318 C3319 1.367 . S
C3318 C3326 1.378 . S
C3319 C3318 1.367 . S
C3319 C3327 1.433 . S
C3320 H3316 0.929 . S
C3320 C3322 1.378 . S
C3320 C3324 1.350 . S
C3321 C3324 1.463 . S
C3321 C3326 1.350 . S
C3321 N3329 1.427 . S
C3322 H3313 0.930 . S
C3322 C3320 1.378 . S
C3322 C3323 1.367 . S
C3323 C3322 1.367 . S
C3323 C3325 1.433 . S
C3324 C3320 1.350 . S
C3324 C3321 1.463 . S
C3324 N3328 1.427 . S
C3325 H3315 0.929 . S
C3325 C3323 1.433 . S
C3325 N3328 1.384 . S
C3326 H3317 0.929 . S
C3326 C3318 1.378 . S
C3326 C3321 1.350 . S
C3327 H3314 0.929 . S
C3327 C3319 1.433 . S
C3327 N3329 1.384 . S
N3328 C3324 1.427 . S
N3328 C3325 1.384 . S
N3329 C3321 1.427 . S
N3329 C3327 1.384 . S
H3330 C3336 0.930 . S
H3331 C3340 0.930 . S
H3332 C3345 0.929 . S
H3333 C3343 0.929 . S
H3334 C3338 0.929 . S
H3335 C3344 0.929 . S
C3336 H3330 0.930 . S
C3336 C3337 1.367 . S
C3336 C3344 1.378 . S
C3337 C3336 1.367 . S
C3337 C3345 1.433 . S
C3338 H3334 0.929 . S
C3338 C3340 1.378 . S
C3338 C3342 1.350 . S
C3339 C3342 1.463 . S
C3339 C3344 1.350 . S
C3339 N3347 1.427 . S
C3340 H3331 0.930 . S
C3340 C3338 1.378 . S
C3340 C3341 1.367 . S
C3341 C3340 1.367 . S
C3341 C3343 1.433 . S
C3342 C3338 1.350 . S
C3342 C3339 1.463 . S
C3342 N3346 1.427 . S
C3343 H3333 0.929 . S
C3343 C3341 1.433 . S
C3343 N3346 1.384 . S
C3344 H3335 0.929 . S
C3344 C3336 1.378 . S
C3344 C3339 1.350 . S
C3345 H3332 0.929 . S
C3345 C3337 1.433 . S
C3345 N3347 1.384 . S
N3346 C3342 1.427 . S
N3346 C3343 1.384 . S
N3347 C3339 1.427 . S
N3347 C3345 1.384 . S
H3348 C3354 0.930 . S
H3349 C3358 0.930 . S
H3350 C3363 0.929 . S
H3351 C3361 0.929 . S
H3352 C3356 0.929 . S
H3353 C3362 0.929 . S
C3354 H3348 0.930 . S
C3354 C3355 1.367 . S
C3354 C3362 1.378 . S
C3355 C3354 1.367 . S
C3355 C3363 1.433 . S
C3356 H3352 0.929 . S
C3356 C3358 1.378 . S
C3356 C3360 1.350 . S
C3357 C3360 1.463 . S
C3357 C3362 1.350 . S
C3357 N3365 1.427 . S
C3358 H3349 0.930 . S
C3358 C3356 1.378 . S
C3358 C3359 1.367 . S
C3359 C3358 1.367 . S
C3359 C3361 1.433 . S
C3360 C3356 1.350 . S
C3360 C3357 1.463 . S
C3360 N3364 1.427 . S
C3361 H3351 0.929 . S
C3361 C3359 1.433 . S
C3361 N3364 1.384 . S
C3362 H3353 0.929 . S
C3362 C3354 1.378 . S
C3362 C3357 1.350 . S
C3363 H3350 0.929 . S
C3363 C3355 1.433 . S
C3363 N3365 1.384 . S
N3364 C3360 1.427 . S
N3364 C3361 1.384 . S
N3365 C3357 1.427 . S
N3365 C3363 1.384 . S
H3366 C3372 0.930 . S
H3367 C3376 0.930 . S
H3368 C3381 0.929 . S
H3369 C3379 0.929 . S
H3370 C3374 0.929 . S
H3371 C3380 0.929 . S
C3372 H3366 0.930 . S
C3372 C3373 1.367 . S
C3372 C3380 1.378 . S
C3373 C3372 1.367 . S
C3373 C3381 1.433 . S
C3374 H3370 0.929 . S
C3374 C3376 1.378 . S
C3374 C3378 1.350 . S
C3375 C3378 1.463 . S
C3375 C3380 1.350 . S
C3375 N3383 1.427 . S
C3376 H3367 0.930 . S
C3376 C3374 1.378 . S
C3376 C3377 1.367 . S
C3377 C3376 1.367 . S
C3377 C3379 1.433 . S
C3378 C3374 1.350 . S
C3378 C3375 1.463 . S
C3378 N3382 1.427 . S
C3379 H3369 0.929 . S
C3379 C3377 1.433 . S
C3379 N3382 1.384 . S
C3380 H3371 0.929 . S
C3380 C3372 1.378 . S
C3380 C3375 1.350 . S
C3381 H3368 0.929 . S
C3381 C3373 1.433 . S
C3381 N3383 1.384 . S
N3382 C3378 1.427 . S
N3382 C3379 1.384 . S
N3383 C3375 1.427 . S
N3383 C3381 1.384 . S
H3384 C3390 0.930 . S
H3385 C3394 0.930 . S
H3386 C3399 0.929 . S
H3387 C3397 0.929 . S
H3388 C3392 0.929 . S
H3389 C3398 0.929 . S
C3390 H3384 0.930 . S
C3390 C3391 1.367 . S
C3390 C3398 1.378 . S
C3391 C3390 1.367 . S
C3391 C3399 1.433 . S
C3392 H3388 0.929 . S
C3392 C3394 1.378 . S
C3392 C3396 1.350 . S
C3393 C3396 1.463 . S
C3393 C3398 1.350 . S
C3393 N3401 1.427 . S
C3394 H3385 0.930 . S
C3394 C3392 1.378 . S
C3394 C3395 1.367 . S
C3395 C3394 1.367 . S
C3395 C3397 1.433 . S
C3396 C3392 1.350 . S
C3396 C3393 1.463 . S
C3396 N3400 1.427 . S
C3397 H3387 0.929 . S
C3397 C3395 1.433 . S
C3397 N3400 1.384 . S
C3398 H3389 0.929 . S
C3398 C3390 1.378 . S
C3398 C3393 1.350 . S
C3399 H3386 0.929 . S
C3399 C3391 1.433 . S
C3399 N3401 1.384 . S
N3400 C3396 1.427 . S
N3400 C3397 1.384 . S
N3401 C3393 1.427 . S
N3401 C3399 1.384 . S
H3402 C3408 0.930 . S
H3403 C3412 0.930 . S
H3404 C3417 0.929 . S
H3405 C3415 0.929 . S
H3406 C3410 0.929 . S
H3407 C3416 0.929 . S
C3408 H3402 0.930 . S
C3408 C3409 1.367 . S
C3408 C3416 1.378 . S
C3409 C3408 1.367 . S
C3409 C3417 1.433 . S
C3410 H3406 0.929 . S
C3410 C3412 1.378 . S
C3410 C3414 1.350 . S
C3411 C3414 1.463 . S
C3411 C3416 1.350 . S
C3411 N3419 1.427 . S
C3412 H3403 0.930 . S
C3412 C3410 1.378 . S
C3412 C3413 1.367 . S
C3413 C3412 1.367 . S
C3413 C3415 1.433 . S
C3414 C3410 1.350 . S
C3414 C3411 1.463 . S
C3414 N3418 1.427 . S
C3415 H3405 0.929 . S
C3415 C3413 1.433 . S
C3415 N3418 1.384 . S
C3416 H3407 0.929 . S
C3416 C3408 1.378 . S
C3416 C3411 1.350 . S
C3417 H3404 0.929 . S
C3417 C3409 1.433 . S
C3417 N3419 1.384 . S
N3418 C3414 1.427 . S
N3418 C3415 1.384 . S
N3419 C3411 1.427 . S
N3419 C3417 1.384 . S
H3420 C3426 0.930 . S
H3421 C3430 0.930 . S
H3422 C3435 0.929 . S
H3423 C3433 0.929 . S
H3424 C3428 0.929 . S
H3425 C3434 0.929 . S
C3426 H3420 0.930 . S
C3426 C3427 1.367 . S
C3426 C3434 1.378 . S
C3427 C3426 1.367 . S
C3427 C3435 1.433 . S
C3428 H3424 0.929 . S
C3428 C3430 1.378 . S
C3428 C3432 1.350 . S
C3429 C3432 1.463 . S
C3429 C3434 1.350 . S
C3429 N3437 1.427 . S
C3430 H3421 0.930 . S
C3430 C3428 1.378 . S
C3430 C3431 1.367 . S
C3431 C3430 1.367 . S
C3431 C3433 1.433 . S
C3432 C3428 1.350 . S
C3432 C3429 1.463 . S
C3432 N3436 1.427 . S
C3433 H3423 0.929 . S
C3433 C3431 1.433 . S
C3433 N3436 1.384 . S
C3434 H3425 0.929 . S
C3434 C3426 1.378 . S
C3434 C3429 1.350 . S
C3435 H3422 0.929 . S
C3435 C3427 1.433 . S
C3435 N3437 1.384 . S
N3436 C3432 1.427 . S
N3436 C3433 1.384 . S
N3437 C3429 1.427 . S
N3437 C3435 1.384 . S
H3438 C3444 0.930 . S
H3439 C3448 0.930 . S
H3440 C3453 0.929 . S
H3441 C3451 0.929 . S
H3442 C3446 0.929 . S
H3443 C3452 0.929 . S
C3444 H3438 0.930 . S
C3444 C3445 1.367 . S
C3444 C3452 1.378 . S
C3445 C3444 1.367 . S
C3445 C3453 1.433 . S
C3446 H3442 0.929 . S
C3446 C3448 1.378 . S
C3446 C3450 1.350 . S
C3447 C3450 1.463 . S
C3447 C3452 1.350 . S
C3447 N3455 1.427 . S
C3448 H3439 0.930 . S
C3448 C3446 1.378 . S
C3448 C3449 1.367 . S
C3449 C3448 1.367 . S
C3449 C3451 1.433 . S
C3450 C3446 1.350 . S
C3450 C3447 1.463 . S
C3450 N3454 1.427 . S
C3451 H3441 0.929 . S
C3451 C3449 1.433 . S
C3451 N3454 1.384 . S
C3452 H3443 0.929 . S
C3452 C3444 1.378 . S
C3452 C3447 1.350 . S
C3453 H3440 0.929 . S
C3453 C3445 1.433 . S
C3453 N3455 1.384 . S
N3454 C3450 1.427 . S
N3454 C3451 1.384 . S
N3455 C3447 1.427 . S
N3455 C3453 1.384 . S
H3456 C3462 0.930 . S
H3457 C3466 0.930 . S
H3458 C3471 0.929 . S
H3459 C3469 0.929 . S
H3460 C3464 0.929 . S
H3461 C3470 0.929 . S
C3462 H3456 0.930 . S
C3462 C3463 1.367 . S
C3462 C3470 1.378 . S
C3463 C3462 1.367 . S
C3463 C3471 1.433 . S
C3464 H3460 0.929 . S
C3464 C3466 1.378 . S
C3464 C3468 1.350 . S
C3465 C3468 1.463 . S
C3465 C3470 1.350 . S
C3465 N3473 1.427 . S
C3466 H3457 0.930 . S
C3466 C3464 1.378 . S
C3466 C3467 1.367 . S
C3467 C3466 1.367 . S
C3467 C3469 1.433 . S
C3468 C3464 1.350 . S
C3468 C3465 1.463 . S
C3468 N3472 1.427 . S
C3469 H3459 0.929 . S
C3469 C3467 1.433 . S
C3469 N3472 1.384 . S
C3470 H3461 0.929 . S
C3470 C3462 1.378 . S
C3470 C3465 1.350 . S
C3471 H3458 0.929 . S
C3471 C3463 1.433 . S
C3471 N3473 1.384 . S
N3472 C3468 1.427 . S
N3472 C3469 1.384 . S
N3473 C3465 1.427 . S
N3473 C3471 1.384 . S
H3474 C3480 0.930 . S
H3475 C3484 0.930 . S
H3476 C3489 0.929 . S
H3477 C3487 0.929 . S
H3478 C3482 0.929 . S
H3479 C3488 0.929 . S
C3480 H3474 0.930 . S
C3480 C3481 1.367 . S
C3480 C3488 1.378 . S
C3481 C3480 1.367 . S
C3481 C3489 1.433 . S
C3482 H3478 0.929 . S
C3482 C3484 1.378 . S
C3482 C3486 1.350 . S
C3483 C3486 1.463 . S
C3483 C3488 1.350 . S
C3483 N3491 1.427 . S
C3484 H3475 0.930 . S
C3484 C3482 1.378 . S
C3484 C3485 1.367 . S
C3485 C3484 1.367 . S
C3485 C3487 1.433 . S
C3486 C3482 1.350 . S
C3486 C3483 1.463 . S
C3486 N3490 1.427 . S
C3487 H3477 0.929 . S
C3487 C3485 1.433 . S
C3487 N3490 1.384 . S
C3488 H3479 0.929 . S
C3488 C3480 1.378 . S
C3488 C3483 1.350 . S
C3489 H3476 0.929 . S
C3489 C3481 1.433 . S
C3489 N3491 1.384 . S
N3490 C3486 1.427 . S
N3490 C3487 1.384 . S
N3491 C3483 1.427 . S
N3491 C3489 1.384 . S
H3492 C3498 0.930 . S
H3493 C3502 0.930 . S
H3494 C3507 0.929 . S
H3495 C3505 0.929 . S
H3496 C3500 0.929 . S
H3497 C3506 0.929 . S
C3498 H3492 0.930 . S
C3498 C3499 1.367 . S
C3498 C3506 1.378 . S
C3499 C3498 1.367 . S
C3499 C3507 1.433 . S
C3500 H3496 0.929 . S
C3500 C3502 1.378 . S
C3500 C3504 1.350 . S
C3501 C3504 1.463 . S
C3501 C3506 1.350 . S
C3501 N3509 1.427 . S
C3502 H3493 0.930 . S
C3502 C3500 1.378 . S
C3502 C3503 1.367 . S
C3503 C3502 1.367 . S
C3503 C3505 1.433 . S
C3504 C3500 1.350 . S
C3504 C3501 1.463 . S
C3504 N3508 1.427 . S
C3505 H3495 0.929 . S
C3505 C3503 1.433 . S
C3505 N3508 1.384 . S
C3506 H3497 0.929 . S
C3506 C3498 1.378 . S
C3506 C3501 1.350 . S
C3507 H3494 0.929 . S
C3507 C3499 1.433 . S
C3507 N3509 1.384 . S
N3508 C3504 1.427 . S
N3508 C3505 1.384 . S
N3509 C3501 1.427 . S
N3509 C3507 1.384 . S
H3510 C3516 0.930 . S
H3511 C3520 0.930 . S
H3512 C3525 0.929 . S
H3513 C3523 0.929 . S
H3514 C3518 0.929 . S
H3515 C3524 0.929 . S
C3516 H3510 0.930 . S
C3516 C3517 1.367 . S
C3516 C3524 1.378 . S
C3517 C3516 1.367 . S
C3517 C3525 1.433 . S
C3518 H3514 0.929 . S
C3518 C3520 1.378 . S
C3518 C3522 1.350 . S
C3519 C3522 1.463 . S
C3519 C3524 1.350 . S
C3519 N3527 1.427 . S
C3520 H3511 0.930 . S
C3520 C3518 1.378 . S
C3520 C3521 1.367 . S
C3521 C3520 1.367 . S
C3521 C3523 1.433 . S
C3522 C3518 1.350 . S
C3522 C3519 1.463 . S
C3522 N3526 1.427 . S
C3523 H3513 0.929 . S
C3523 C3521 1.433 . S
C3523 N3526 1.384 . S
C3524 H3515 0.929 . S
C3524 C3516 1.378 . S
C3524 C3519 1.350 . S
C3525 H3512 0.929 . S
C3525 C3517 1.433 . S
C3525 N3527 1.384 . S
N3526 C3522 1.427 . S
N3526 C3523 1.384 . S
N3527 C3519 1.427 . S
N3527 C3525 1.384 . S
H3528 C3534 0.930 . S
H3529 C3538 0.930 . S
H3530 C3543 0.929 . S
H3531 C3541 0.929 . S
H3532 C3536 0.929 . S
H3533 C3542 0.929 . S
C3534 H3528 0.930 . S
C3534 C3535 1.367 . S
C3534 C3542 1.378 . S
C3535 C3534 1.367 . S
C3535 C3543 1.433 . S
C3536 H3532 0.929 . S
C3536 C3538 1.378 . S
C3536 C3540 1.350 . S
C3537 C3540 1.463 . S
C3537 C3542 1.350 . S
C3537 N3545 1.427 . S
C3538 H3529 0.930 . S
C3538 C3536 1.378 . S
C3538 C3539 1.367 . S
C3539 C3538 1.367 . S
C3539 C3541 1.433 . S
C3540 C3536 1.350 . S
C3540 C3537 1.463 . S
C3540 N3544 1.427 . S
C3541 H3531 0.929 . S
C3541 C3539 1.433 . S
C3541 N3544 1.384 . S
C3542 H3533 0.929 . S
C3542 C3534 1.378 . S
C3542 C3537 1.350 . S
C3543 H3530 0.929 . S
C3543 C3535 1.433 . S
C3543 N3545 1.384 . S
N3544 C3540 1.427 . S
N3544 C3541 1.384 . S
N3545 C3537 1.427 . S
N3545 C3543 1.384 . S
H3546 C3552 0.930 . S
H3547 C3556 0.930 . S
H3548 C3561 0.929 . S
H3549 C3559 0.929 . S
H3550 C3554 0.929 . S
H3551 C3560 0.929 . S
C3552 H3546 0.930 . S
C3552 C3553 1.367 . S
C3552 C3560 1.378 . S
C3553 C3552 1.367 . S
C3553 C3561 1.433 . S
C3554 H3550 0.929 . S
C3554 C3556 1.378 . S
C3554 C3558 1.350 . S
C3555 C3558 1.463 . S
C3555 C3560 1.350 . S
C3555 N3563 1.427 . S
C3556 H3547 0.930 . S
C3556 C3554 1.378 . S
C3556 C3557 1.367 . S
C3557 C3556 1.367 . S
C3557 C3559 1.433 . S
C3558 C3554 1.350 . S
C3558 C3555 1.463 . S
C3558 N3562 1.427 . S
C3559 H3549 0.929 . S
C3559 C3557 1.433 . S
C3559 N3562 1.384 . S
C3560 H3551 0.929 . S
C3560 C3552 1.378 . S
C3560 C3555 1.350 . S
C3561 H3548 0.929 . S
C3561 C3553 1.433 . S
C3561 N3563 1.384 . S
N3562 C3558 1.427 . S
N3562 C3559 1.384 . S
N3563 C3555 1.427 . S
N3563 C3561 1.384 . S
H3564 C3570 0.930 . S
H3565 C3574 0.930 . S
H3566 C3579 0.929 . S
H3567 C3577 0.929 . S
H3568 C3572 0.929 . S
H3569 C3578 0.929 . S
C3570 H3564 0.930 . S
C3570 C3571 1.367 . S
C3570 C3578 1.378 . S
C3571 C3570 1.367 . S
C3571 C3579 1.433 . S
C3572 H3568 0.929 . S
C3572 C3574 1.378 . S
C3572 C3576 1.350 . S
C3573 C3576 1.463 . S
C3573 C3578 1.350 . S
C3573 N3581 1.427 . S
C3574 H3565 0.930 . S
C3574 C3572 1.378 . S
C3574 C3575 1.367 . S
C3575 C3574 1.367 . S
C3575 C3577 1.433 . S
C3576 C3572 1.350 . S
C3576 C3573 1.463 . S
C3576 N3580 1.427 . S
C3577 H3567 0.929 . S
C3577 C3575 1.433 . S
C3577 N3580 1.384 . S
C3578 H3569 0.929 . S
C3578 C3570 1.378 . S
C3578 C3573 1.350 . S
C3579 H3566 0.929 . S
C3579 C3571 1.433 . S
C3579 N3581 1.384 . S
N3580 C3576 1.427 . S
N3580 C3577 1.384 . S
N3581 C3573 1.427 . S
N3581 C3579 1.384 . S
H3582 C3588 0.930 . S
H3583 C3592 0.930 . S
H3584 C3597 0.929 . S
H3585 C3595 0.929 . S
H3586 C3590 0.929 . S
H3587 C3596 0.929 . S
C3588 H3582 0.930 . S
C3588 C3589 1.367 . S
C3588 C3596 1.378 . S
C3589 C3588 1.367 . S
C3589 C3597 1.433 . S
C3590 H3586 0.929 . S
C3590 C3592 1.378 . S
C3590 C3594 1.350 . S
C3591 C3594 1.463 . S
C3591 C3596 1.350 . S
C3591 N3599 1.427 . S
C3592 H3583 0.930 . S
C3592 C3590 1.378 . S
C3592 C3593 1.367 . S
C3593 C3592 1.367 . S
C3593 C3595 1.433 . S
C3594 C3590 1.350 . S
C3594 C3591 1.463 . S
C3594 N3598 1.427 . S
C3595 H3585 0.929 . S
C3595 C3593 1.433 . S
C3595 N3598 1.384 . S
C3596 H3587 0.929 . S
C3596 C3588 1.378 . S
C3596 C3591 1.350 . S
C3597 H3584 0.929 . S
C3597 C3589 1.433 . S
C3597 N3599 1.384 . S
N3598 C3594 1.427 . S
N3598 C3595 1.384 . S
N3599 C3591 1.427 . S
N3599 C3597 1.384 . S
H3600 C3606 0.930 . S
H3601 C3610 0.930 . S
H3602 C3615 0.929 . S
H3603 C3613 0.929 . S
H3604 C3608 0.929 . S
H3605 C3614 0.929 . S
C3606 H3600 0.930 . S
C3606 C3607 1.367 . S
C3606 C3614 1.378 . S
C3607 C3606 1.367 . S
C3607 C3615 1.433 . S
C3608 H3604 0.929 . S
C3608 C3610 1.378 . S
C3608 C3612 1.350 . S
C3609 C3612 1.463 . S
C3609 C3614 1.350 . S
C3609 N3617 1.427 . S
C3610 H3601 0.930 . S
C3610 C3608 1.378 . S
C3610 C3611 1.367 . S
C3611 C3610 1.367 . S
C3611 C3613 1.433 . S
C3612 C3608 1.350 . S
C3612 C3609 1.463 . S
C3612 N3616 1.427 . S
C3613 H3603 0.929 . S
C3613 C3611 1.433 . S
C3613 N3616 1.384 . S
C3614 H3605 0.929 . S
C3614 C3606 1.378 . S
C3614 C3609 1.350 . S
C3615 H3602 0.929 . S
C3615 C3607 1.433 . S
C3615 N3617 1.384 . S
N3616 C3612 1.427 . S
N3616 C3613 1.384 . S
N3617 C3609 1.427 . S
N3617 C3615 1.384 . S
H3618 C3624 0.930 . S
H3619 C3628 0.930 . S
H3620 C3633 0.929 . S
H3621 C3631 0.929 . S
H3622 C3626 0.929 . S
H3623 C3632 0.929 . S
C3624 H3618 0.930 . S
C3624 C3625 1.367 . S
C3624 C3632 1.378 . S
C3625 C3624 1.367 . S
C3625 C3633 1.433 . S
C3626 H3622 0.929 . S
C3626 C3628 1.378 . S
C3626 C3630 1.350 . S
C3627 C3630 1.463 . S
C3627 C3632 1.350 . S
C3627 N3635 1.427 . S
C3628 H3619 0.930 . S
C3628 C3626 1.378 . S
C3628 C3629 1.367 . S
C3629 C3628 1.367 . S
C3629 C3631 1.433 . S
C3630 C3626 1.350 . S
C3630 C3627 1.463 . S
C3630 N3634 1.427 . S
C3631 H3621 0.929 . S
C3631 C3629 1.433 . S
C3631 N3634 1.384 . S
C3632 H3623 0.929 . S
C3632 C3624 1.378 . S
C3632 C3627 1.350 . S
C3633 H3620 0.929 . S
C3633 C3625 1.433 . S
C3633 N3635 1.384 . S
N3634 C3630 1.427 . S
N3634 C3631 1.384 . S
N3635 C3627 1.427 . S
N3635 C3633 1.384 . S
H3636 C3642 0.930 . S
H3637 C3646 0.930 . S
H3638 C3651 0.929 . S
H3639 C3649 0.929 . S
H3640 C3644 0.929 . S
H3641 C3650 0.929 . S
C3642 H3636 0.930 . S
C3642 C3643 1.367 . S
C3642 C3650 1.378 . S
C3643 C3642 1.367 . S
C3643 C3651 1.433 . S
C3644 H3640 0.929 . S
C3644 C3646 1.378 . S
C3644 C3648 1.350 . S
C3645 C3648 1.463 . S
C3645 C3650 1.350 . S
C3645 N3653 1.427 . S
C3646 H3637 0.930 . S
C3646 C3644 1.378 . S
C3646 C3647 1.367 . S
C3647 C3646 1.367 . S
C3647 C3649 1.433 . S
C3648 C3644 1.350 . S
C3648 C3645 1.463 . S
C3648 N3652 1.427 . S
C3649 H3639 0.929 . S
C3649 C3647 1.433 . S
C3649 N3652 1.384 . S
C3650 H3641 0.929 . S
C3650 C3642 1.378 . S
C3650 C3645 1.350 . S
C3651 H3638 0.929 . S
C3651 C3643 1.433 . S
C3651 N3653 1.384 . S
N3652 C3648 1.427 . S
N3652 C3649 1.384 . S
N3653 C3645 1.427 . S
N3653 C3651 1.384 . S
H3654 C3660 0.930 . S
H3655 C3664 0.930 . S
H3656 C3669 0.929 . S
H3657 C3667 0.929 . S
H3658 C3662 0.929 . S
H3659 C3668 0.929 . S
C3660 H3654 0.930 . S
C3660 C3661 1.367 . S
C3660 C3668 1.378 . S
C3661 C3660 1.367 . S
C3661 C3669 1.433 . S
C3662 H3658 0.929 . S
C3662 C3664 1.378 . S
C3662 C3666 1.350 . S
C3663 C3666 1.463 . S
C3663 C3668 1.350 . S
C3663 N3671 1.427 . S
C3664 H3655 0.930 . S
C3664 C3662 1.378 . S
C3664 C3665 1.367 . S
C3665 C3664 1.367 . S
C3665 C3667 1.433 . S
C3666 C3662 1.350 . S
C3666 C3663 1.463 . S
C3666 N3670 1.427 . S
C3667 H3657 0.929 . S
C3667 C3665 1.433 . S
C3667 N3670 1.384 . S
C3668 H3659 0.929 . S
C3668 C3660 1.378 . S
C3668 C3663 1.350 . S
C3669 H3656 0.929 . S
C3669 C3661 1.433 . S
C3669 N3671 1.384 . S
N3670 C3666 1.427 . S
N3670 C3667 1.384 . S
N3671 C3663 1.427 . S
N3671 C3669 1.384 . S
H3672 C3678 0.930 . S
H3673 C3682 0.930 . S
H3674 C3687 0.929 . S
H3675 C3685 0.929 . S
H3676 C3680 0.929 . S
H3677 C3686 0.929 . S
C3678 H3672 0.930 . S
C3678 C3679 1.367 . S
C3678 C3686 1.378 . S
C3679 C3678 1.367 . S
C3679 C3687 1.433 . S
C3680 H3676 0.929 . S
C3680 C3682 1.378 . S
C3680 C3684 1.350 . S
C3681 C3684 1.463 . S
C3681 C3686 1.350 . S
C3681 N3689 1.427 . S
C3682 H3673 0.930 . S
C3682 C3680 1.378 . S
C3682 C3683 1.367 . S
C3683 C3682 1.367 . S
C3683 C3685 1.433 . S
C3684 C3680 1.350 . S
C3684 C3681 1.463 . S
C3684 N3688 1.427 . S
C3685 H3675 0.929 . S
C3685 C3683 1.433 . S
C3685 N3688 1.384 . S
C3686 H3677 0.929 . S
C3686 C3678 1.378 . S
C3686 C3681 1.350 . S
C3687 H3674 0.929 . S
C3687 C3679 1.433 . S
C3687 N3689 1.384 . S
N3688 C3684 1.427 . S
N3688 C3685 1.384 . S
N3689 C3681 1.427 . S
N3689 C3687 1.384 . S
H3690 C3696 0.930 . S
H3691 C3700 0.930 . S
H3692 C3705 0.929 . S
H3693 C3703 0.929 . S
H3694 C3698 0.929 . S
H3695 C3704 0.929 . S
C3696 H3690 0.930 . S
C3696 C3697 1.367 . S
C3696 C3704 1.378 . S
C3697 C3696 1.367 . S
C3697 C3705 1.433 . S
C3698 H3694 0.929 . S
C3698 C3700 1.378 . S
C3698 C3702 1.350 . S
C3699 C3702 1.463 . S
C3699 C3704 1.350 . S
C3699 N3707 1.427 . S
C3700 H3691 0.930 . S
C3700 C3698 1.378 . S
C3700 C3701 1.367 . S
C3701 C3700 1.367 . S
C3701 C3703 1.433 . S
C3702 C3698 1.350 . S
C3702 C3699 1.463 . S
C3702 N3706 1.427 . S
C3703 H3693 0.929 . S
C3703 C3701 1.433 . S
C3703 N3706 1.384 . S
C3704 H3695 0.929 . S
C3704 C3696 1.378 . S
C3704 C3699 1.350 . S
C3705 H3692 0.929 . S
C3705 C3697 1.433 . S
C3705 N3707 1.384 . S
N3706 C3702 1.427 . S
N3706 C3703 1.384 . S
N3707 C3699 1.427 . S
N3707 C3705 1.384 . S
H3708 C3714 0.930 . S
H3709 C3718 0.930 . S
H3710 C3723 0.929 . S
H3711 C3721 0.929 . S
H3712 C3716 0.929 . S
H3713 C3722 0.929 . S
C3714 H3708 0.930 . S
C3714 C3715 1.367 . S
C3714 C3722 1.378 . S
C3715 C3714 1.367 . S
C3715 C3723 1.433 . S
C3716 H3712 0.929 . S
C3716 C3718 1.378 . S
C3716 C3720 1.350 . S
C3717 C3720 1.463 . S
C3717 C3722 1.350 . S
C3717 N3725 1.427 . S
C3718 H3709 0.930 . S
C3718 C3716 1.378 . S
C3718 C3719 1.367 . S
C3719 C3718 1.367 . S
C3719 C3721 1.433 . S
C3720 C3716 1.350 . S
C3720 C3717 1.463 . S
C3720 N3724 1.427 . S
C3721 H3711 0.929 . S
C3721 C3719 1.433 . S
C3721 N3724 1.384 . S
C3722 H3713 0.929 . S
C3722 C3714 1.378 . S
C3722 C3717 1.350 . S
C3723 H3710 0.929 . S
C3723 C3715 1.433 . S
C3723 N3725 1.384 . S
N3724 C3720 1.427 . S
N3724 C3721 1.384 . S
N3725 C3717 1.427 . S
N3725 C3723 1.384 . S
H3726 C3732 0.930 . S
H3727 C3736 0.930 . S
H3728 C3741 0.929 . S
H3729 C3739 0.929 . S
H3730 C3734 0.929 . S
H3731 C3740 0.929 . S
C3732 H3726 0.930 . S
C3732 C3733 1.367 . S
C3732 C3740 1.378 . S
C3733 C3732 1.367 . S
C3733 C3741 1.433 . S
C3734 H3730 0.929 . S
C3734 C3736 1.378 . S
C3734 C3738 1.350 . S
C3735 C3738 1.463 . S
C3735 C3740 1.350 . S
C3735 N3743 1.427 . S
C3736 H3727 0.930 . S
C3736 C3734 1.378 . S
C3736 C3737 1.367 . S
C3737 C3736 1.367 . S
C3737 C3739 1.433 . S
C3738 C3734 1.350 . S
C3738 C3735 1.463 . S
C3738 N3742 1.427 . S
C3739 H3729 0.929 . S
C3739 C3737 1.433 . S
C3739 N3742 1.384 . S
C3740 H3731 0.929 . S
C3740 C3732 1.378 . S
C3740 C3735 1.350 . S
C3741 H3728 0.929 . S
C3741 C3733 1.433 . S
C3741 N3743 1.384 . S
N3742 C3738 1.427 . S
N3742 C3739 1.384 . S
N3743 C3735 1.427 . S
N3743 C3741 1.384 . S
C1591 N607 1.481 . S
C1595 C18 1.530 . S
C1609 C51 1.528 . S
C1613 N640 1.482 . S
C1627 C84 1.532 . S
C1631 N673 1.483 . S
C1645 N574 1.493 . S
C1649 C117 1.531 . S
C1663 N739 1.497 . S
C1667 C150 1.526 . S
C1681 C183 1.533 . S
C1685 N541 1.484 . S
C1699 N772 1.497 . S
C1703 C216 1.526 . S
C1717 N706 1.482 . S
C1721 C249 1.531 . S
C1735 C282 1.524 . S
C1739 N310 1.496 . S
C1753 N343 1.481 . S
C1757 C315 1.531 . S
C1771 N376 1.482 . S
C1775 C348 1.531 . S
C1789 C381 1.524 . S
C1793 N277 1.495 . S
C1807 N508 1.493 . S
C1811 C414 1.523 . S
C1825 C447 1.527 . S
C1829 N409 1.483 . S
C1843 N442 1.496 . S
C1847 C480 1.528 . S
C1861 N475 1.487 . S
C1865 C513 1.533 . S
C1879 C546 1.532 . S
C1883 N112 1.491 . S
C1897 N178 1.485 . S
C1901 C579 1.525 . S
C1915 C612 1.530 . S
C1919 N211 1.494 . S
C1933 N244 1.497 . S
C1937 C645 1.526 . S
C1951 N145 1.481 . S
C1955 C678 1.530 . S
C1969 C711 1.526 . S
C1973 N46 1.483 . S
C1987 C744 1.525 . S
C1991 N79 1.497 . S
C2005 N13 1.489 . S
C2009 C777 1.532 . S
C2023 C810 1.530 . S
C2027 N1399 1.494 . S
C2041 N1432 1.484 . S
C2045 C843 1.526 . S
C2059 N1465 1.483 . S
C2063 C876 1.532 . S
C2077 C909 1.526 . S
C2081 N1366 1.497 . S
C2095 N1531 1.497 . S
C2099 C942 1.527 . S
C2113 C975 1.532 . S
C2117 N1333 1.483 . S
C2131 N1564 1.496 . S
C2135 C1008 1.528 . S
C2149 N1498 1.496 . S
C2153 C1041 1.528 . S
C2167 N1102 1.497 . S
C2171 C1074 1.525 . S
C2185 C1107 1.525 . S
C2189 N1135 1.485 . S
C2203 N1168 1.487 . S
C2207 C1140 1.533 . S
C2221 C1173 1.528 . S
C2225 N1069 1.496 . S
C2239 C1206 1.530 . S
C2243 N1300 1.495 . S
C2257 N1201 1.496 . S
C2261 C1239 1.525 . S
C2275 C1272 1.527 . S
C2279 N1234 1.483 . S
C2293 N1267 1.490 . S
C2297 C1305 1.532 . S
C2311 N904 1.487 . S
C2315 C1338 1.533 . S
C2329 C1371 1.533 . S
C2333 N970 1.484 . S
C2347 C1404 1.529 . S
C2351 N1003 1.495 . S
C2365 N1036 1.489 . S
C2369 C1437 1.533 . S
C2383 N937 1.493 . S
C2387 C1470 1.531 . S
C2401 N838 1.488 . S
C2405 C1503 1.524 . S
C2419 C1536 1.528 . S
C2423 N871 1.496 . S
C2437 N805 1.489 . S
C2441 C1569 1.524 . S
C2455 C1044 1.464 . S
C2459 C21 1.466 . S
C2473 C945 1.449 . S
C2477 C54 1.457 . S
C2491 C87 1.456 . S
C2495 C978 1.448 . S
C2509 C1011 1.463 . S
C2513 C120 1.454 . S
C2527 C153 1.463 . S
C2531 C846 1.454 . S
C2545 C879 1.466 . S
C2549 C186 1.464 . S
C2563 C912 1.448 . S
C2567 C219 1.452 . S
C2581 C252 1.451 . S
C2585 C813 1.448 . S
C2599 C285 1.457 . S
C2603 C1473 1.465 . S
C2617 C1374 1.466 . S
C2621 C318 1.464 . S
C2635 C1407 1.453 . S
C2639 C351 1.463 . S
C2653 C1440 1.461 . S
C2657 C384 1.467 . S
C2671 C1572 1.460 . S
C2675 C417 1.466 . S
C2689 C450 1.463 . S
C2693 C1506 1.454 . S
C2707 C483 1.458 . S
C2711 C1539 1.466 . S
C2725 C1341 1.451 . S
C2729 C516 1.448 . S
C2743 C1308 1.458 . S
C2747 C549 1.449 . S
C2761 C582 1.465 . S
C2765 C1110 1.466 . S
C2779 C1143 1.459 . S
C2783 C615 1.450 . S
C2797 C1176 1.451 . S
C2801 C648 1.461 . S
C2815 C681 1.455 . S
C2819 C1077 1.448 . S
C2833 C714 1.450 . S
C2837 C1242 1.448 . S
C2851 C1275 1.452 . S
C2855 C747 1.462 . S
C2869 C780 1.467 . S
C2873 C1209 1.461 . S
C2887 N266 1.126 . S
C2891 C7 1.123 . S
C2905 N299 1.122 . S
C2909 C40 1.120 . S
C2923 C73 1.129 . S
C2927 N332 1.132 . S
C2941 C106 1.120 . S
C2945 N365 1.121 . S
C2959 C139 1.147 . S
C2963 N398 1.149 . S
C2977 N431 1.135 . S
C2981 C172 1.131 . S
C2995 N464 1.131 . S
C2999 C205 1.128 . S
C3013 C238 1.125 . S
C3017 N497 1.124 . S
C3031 N530 1.133 . S
C3035 C271 1.134 . S
C3049 N761 1.121 . S
C3053 C304 1.121 . S
C3067 N695 1.145 . S
C3071 C337 1.142 . S
C3085 C370 1.129 . S
C3089 N728 1.133 . S
C3103 C403 1.129 . S
C3107 N563 1.128 . S
C3121 C436 1.129 . S
C3125 N596 1.132 . S
C3139 C469 1.147 . S
C3143 N629 1.149 . S
C3157 C502 1.140 . S
C3161 N662 1.143 . S
C3175 N2 1.125 . S
C3179 C535 1.126 . S
C3193 C568 1.124 . S
C3197 N134 1.124 . S
C3211 N167 1.133 . S
C3215 C601 1.134 . S
C3229 C634 1.146 . S
C3233 N200 1.148 . S
C3247 N233 1.148 . S
C3251 C667 1.146 . S
C3265 N68 1.128 . S
C3269 C700 1.125 . S
C3283 C733 1.133 . S
C3287 N101 1.136 . S
C3301 N35 1.123 . S
C3305 C766 1.121 . S
C3319 C799 1.147 . S
C3323 N1058 1.149 . S
C3337 N1091 1.127 . S
C3341 C832 1.124 . S
C3355 C865 1.132 . S
C3359 N1124 1.136 . S
C3373 C898 1.143 . S
C3377 N1157 1.143 . S
C3391 C931 1.130 . S
C3395 N1190 1.133 . S
C3409 C964 1.144 . S
C3413 N1223 1.146 . S
C3427 C997 1.147 . S
C3431 N1256 1.149 . S
C3445 C1030 1.128 . S
C3449 N1289 1.131 . S
C3463 C1063 1.122 . S
C3467 N1322 1.125 . S
C3481 C1096 1.130 . S
C3485 N1553 1.134 . S
C3499 C1129 1.143 . S
C3503 N1487 1.142 . S
C3517 N1520 1.121 . S
C3521 C1162 1.120 . S
C3535 N1355 1.148 . S
C3539 C1195 1.147 . S
C3553 C1228 1.139 . S
C3557 N1388 1.138 . S
C3571 N1421 1.147 . S
C3575 C1261 1.145 . S
C3589 C1294 1.147 . S
C3593 N1454 1.147 . S
C3607 C1327 1.121 . S
C3611 N794 1.121 . S
C3625 N926 1.135 . S
C3629 C1360 1.136 . S
C3643 N959 1.146 . S
C3647 C1393 1.143 . S
C3661 N992 1.135 . S
C3665 C1426 1.136 . S
C3679 N1025 1.146 . S
C3683 C1459 1.144 . S
C3697 N860 1.147 . S
C3701 C1492 1.145 . S
C3715 N893 1.145 . S
C3719 C1525 1.145 . S
C3733 N827 1.125 . S
C3737 C1558 1.125 . S
