# Generated by pormake.
# Topology whw, (6)-cn, num edge types: 1
# Building blocks:
#     Node 0, Type 0, BuildingBlock: PAMTUU_clean_sbu_0, # of connection points: 6
#     Node 1, Type 0, BuildingBlock: PAMTUU_clean_sbu_0, # of connection points: 6
#     Node 2, Type 0, BuildingBlock: PAMTUU_clean_sbu_0, # of connection points: 6
#     Node 3, Type 0, BuildingBlock: PAMTUU_clean_sbu_0, # of connection points: 6
#     Node 4, Type 0, BuildingBlock: PAMTUU_clean_sbu_0, # of connection points: 6
#     Node 5, Type 0, BuildingBlock: PAMTUU_clean_sbu_0, # of connection points: 6
#     Node 6, Type 0, BuildingBlock: PAMTUU_clean_sbu_0, # of connection points: 6
#     Node 7, Type 0, BuildingBlock: PAMTUU_clean_sbu_0, # of connection points: 6
#     Node 8, Type 0, BuildingBlock: PAMTUU_clean_sbu_0, # of connection points: 6
#     Node 9, Type 0, BuildingBlock: PAMTUU_clean_sbu_0, # of connection points: 6
#     Node 10, Type 0, BuildingBlock: PAMTUU_clean_sbu_0, # of connection points: 6
#     Node 11, Type 0, BuildingBlock: PAMTUU_clean_sbu_0, # of connection points: 6
#     Node 12, Type 0, BuildingBlock: PAMTUU_clean_sbu_0, # of connection points: 6
#     Node 13, Type 0, BuildingBlock: PAMTUU_clean_sbu_0, # of connection points: 6
#     Node 14, Type 0, BuildingBlock: PAMTUU_clean_sbu_0, # of connection points: 6
#     Node 15, Type 0, BuildingBlock: PAMTUU_clean_sbu_0, # of connection points: 6
#     Edge 16, Type (0, 0), BuildingBlock: XIVTED_clean_linker_0, # of connection points: 2
#     Edge 17, Type (0, 0), BuildingBlock: XIVTED_clean_linker_0, # of connection points: 2
#     Edge 18, Type (0, 0), BuildingBlock: XIVTED_clean_linker_0, # of connection points: 2
#     Edge 19, Type (0, 0), BuildingBlock: XIVTED_clean_linker_0, # of connection points: 2
#     Edge 20, Type (0, 0), BuildingBlock: XIVTED_clean_linker_0, # of connection points: 2
#     Edge 21, Type (0, 0), BuildingBlock: XIVTED_clean_linker_0, # of connection points: 2
#     Edge 22, Type (0, 0), BuildingBlock: XIVTED_clean_linker_0, # of connection points: 2
#     Edge 23, Type (0, 0), BuildingBlock: XIVTED_clean_linker_0, # of connection points: 2
#     Edge 24, Type (0, 0), BuildingBlock: XIVTED_clean_linker_0, # of connection points: 2
#     Edge 25, Type (0, 0), BuildingBlock: XIVTED_clean_linker_0, # of connection points: 2
#     Edge 26, Type (0, 0), BuildingBlock: XIVTED_clean_linker_0, # of connection points: 2
#     Edge 27, Type (0, 0), BuildingBlock: XIVTED_clean_linker_0, # of connection points: 2
#     Edge 28, Type (0, 0), BuildingBlock: XIVTED_clean_linker_0, # of connection points: 2
#     Edge 29, Type (0, 0), BuildingBlock: XIVTED_clean_linker_0, # of connection points: 2
#     Edge 30, Type (0, 0), BuildingBlock: XIVTED_clean_linker_0, # of connection points: 2
#     Edge 31, Type (0, 0), BuildingBlock: XIVTED_clean_linker_0, # of connection points: 2
#     Edge 32, Type (0, 0), BuildingBlock: XIVTED_clean_linker_0, # of connection points: 2
#     Edge 33, Type (0, 0), BuildingBlock: XIVTED_clean_linker_0, # of connection points: 2
#     Edge 34, Type (0, 0), BuildingBlock: XIVTED_clean_linker_0, # of connection points: 2
#     Edge 35, Type (0, 0), BuildingBlock: XIVTED_clean_linker_0, # of connection points: 2
#     Edge 36, Type (0, 0), BuildingBlock: XIVTED_clean_linker_0, # of connection points: 2
#     Edge 37, Type (0, 0), BuildingBlock: XIVTED_clean_linker_0, # of connection points: 2
#     Edge 38, Type (0, 0), BuildingBlock: XIVTED_clean_linker_0, # of connection points: 2
#     Edge 39, Type (0, 0), BuildingBlock: XIVTED_clean_linker_0, # of connection points: 2
#     Edge 40, Type (0, 0), BuildingBlock: XIVTED_clean_linker_0, # of connection points: 2
#     Edge 41, Type (0, 0), BuildingBlock: XIVTED_clean_linker_0, # of connection points: 2
#     Edge 42, Type (0, 0), BuildingBlock: XIVTED_clean_linker_0, # of connection points: 2
#     Edge 43, Type (0, 0), BuildingBlock: XIVTED_clean_linker_0, # of connection points: 2
#     Edge 44, Type (0, 0), BuildingBlock: XIVTED_clean_linker_0, # of connection points: 2
#     Edge 45, Type (0, 0), BuildingBlock: XIVTED_clean_linker_0, # of connection points: 2
#     Edge 46, Type (0, 0), BuildingBlock: XIVTED_clean_linker_0, # of connection points: 2
#     Edge 47, Type (0, 0), BuildingBlock: XIVTED_clean_linker_0, # of connection points: 2
#     Edge 48, Type (0, 0), BuildingBlock: XIVTED_clean_linker_0, # of connection points: 2
#     Edge 49, Type (0, 0), BuildingBlock: XIVTED_clean_linker_0, # of connection points: 2
#     Edge 50, Type (0, 0), BuildingBlock: XIVTED_clean_linker_0, # of connection points: 2
#     Edge 51, Type (0, 0), BuildingBlock: XIVTED_clean_linker_0, # of connection points: 2
#     Edge 52, Type (0, 0), BuildingBlock: XIVTED_clean_linker_0, # of connection points: 2
#     Edge 53, Type (0, 0), BuildingBlock: XIVTED_clean_linker_0, # of connection points: 2
#     Edge 54, Type (0, 0), BuildingBlock: XIVTED_clean_linker_0, # of connection points: 2
#     Edge 55, Type (0, 0), BuildingBlock: XIVTED_clean_linker_0, # of connection points: 2
#     Edge 56, Type (0, 0), BuildingBlock: XIVTED_clean_linker_0, # of connection points: 2
#     Edge 57, Type (0, 0), BuildingBlock: XIVTED_clean_linker_0, # of connection points: 2
#     Edge 58, Type (0, 0), BuildingBlock: XIVTED_clean_linker_0, # of connection points: 2
#     Edge 59, Type (0, 0), BuildingBlock: XIVTED_clean_linker_0, # of connection points: 2
#     Edge 60, Type (0, 0), BuildingBlock: XIVTED_clean_linker_0, # of connection points: 2
#     Edge 61, Type (0, 0), BuildingBlock: XIVTED_clean_linker_0, # of connection points: 2
#     Edge 62, Type (0, 0), BuildingBlock: XIVTED_clean_linker_0, # of connection points: 2
#     Edge 63, Type (0, 0), BuildingBlock: XIVTED_clean_linker_0, # of connection points: 2
# Relax obj value: 0.459
# Max RMSD: 0.231
# Mean RMSD: 0.219
data_MOF--net-whw--node1-PAMTUU_clean_sbu_0--edge1-XIVTED_clean_linker_0
_symmetry_space_group_name_H-M    P1
_symmetry_Int_Tables_number       1
_symmetry_cell_setting            triclinic
loop_
_symmetry_equiv_pos_as_xyz
'x, y, z'
_cell_length_a     47.586329
_cell_length_b     47.422345
_cell_length_c     33.405547
_cell_angle_alpha  83.487637
_cell_angle_beta   84.389649
_cell_angle_gamma 89.257702
loop_
_atom_site_label
_atom_site_type_symbol
_atom_site_fract_x
_atom_site_fract_y
_atom_site_fract_z
_atom_type_partial_charge
Tb0 Tb 0.95633 0.14403 0.17777 0.0
Tb1 Tb 0.0093 0.10339 0.19709 0.0
C2 C 0.00965 0.16613 0.21334 0.0
C3 C 0.89841 0.16914 0.12216 0.0
C4 C 0.87025 0.15314 0.05835 0.0
C5 C 0.85507 0.16534 0.09026 0.0
C6 C 0.86912 0.17308 0.12234 0.0
C7 C 0.91367 0.15864 0.08891 0.0
C8 C 0.8997 0.15064 0.05736 0.0
C9 C 0.91241 0.17036 0.15907 0.0
O10 O 0.98844 0.15662 0.12825 0.0
O11 O 0.01583 0.11627 0.1303 0.0
O12 O 0.97476 0.07674 0.18756 0.0
O13 O 0.95606 0.10822 0.14153 0.0
O14 O 0.05222 0.09193 0.18952 0.0
O15 O 0.02273 0.06649 0.23102 0.0
O16 O -0.00936 0.11623 0.25593 0.0
O17 O 0.9458 0.12237 0.23868 0.0
O18 O 0.98197 0.16823 0.21302 0.0
O19 O 0.02399 0.14547 0.19858 0.0
C20 C 0.0081 0.1409 0.11114 0.0
O21 O 0.91215 0.14621 0.18195 0.0
O22 O 0.93743 0.18194 0.15431 0.0
C23 C 0.96061 0.08193 0.1561 0.0
C24 C 0.06548 0.07666 0.25486 0.0
C25 C 0.08256 0.08675 0.33038 0.0
C26 C 0.0784 0.05884 0.32177 0.0
C27 C 0.06977 0.05385 0.28427 0.0
C28 C 0.07171 0.10432 0.26251 0.0
C29 C 0.08019 0.10931 0.29982 0.0
C30 C 0.04923 0.07256 0.22061 0.0
C31 C 0.96349 0.11975 0.2666 0.0
H32 H 0.83232 0.16746 0.09139 0.0
H33 H 0.857 0.18071 0.14812 0.0
H34 H 0.93624 0.15507 0.08841 0.0
H35 H 0.91181 0.14157 1.03273 0.0
H36 H 0.07999 0.04108 0.34487 0.0
H37 H 0.06471 0.0324 0.27924 0.0
H38 H 0.06838 0.12237 0.24061 0.0
H39 H 0.08366 0.131 0.30542 0.0
Tb40 Tb 0.10434 0.70304 0.3968 0.0
Tb41 Tb 0.1399 0.76015 0.40346 0.0
C42 C 0.0781 0.75535 0.43644 0.0
C43 C 0.08076 0.63852 0.35803 0.0
C44 C 0.09231 0.60978 0.28915 0.0
C45 C 0.07265 0.63214 0.28901 0.0
C46 C 0.06697 0.6465 0.32315 0.0
C47 C 0.09827 0.61438 0.35934 0.0
C48 C 0.10425 0.60031 0.32503 0.0
C49 C 0.08006 0.65692 0.39095 0.0
O50 O 0.09105 0.73356 0.34825 0.0
O51 O 0.12734 0.7662 0.34027 0.0
O52 O 0.17027 0.72991 0.38176 0.0
O53 O 0.14118 0.7027 0.35167 0.0
O54 O 0.14507 0.80453 0.3972 0.0
O55 O 0.17543 0.77691 0.42526 0.0
O56 O 0.12919 0.73981 0.4664 0.0
O57 O 0.12604 0.69453 0.45144 0.0
O58 O 0.0788 0.72744 0.43912 0.0
O59 O 0.09631 0.77067 0.41216 0.0
C60 C 0.10448 0.7555 0.32741 0.0
O61 O 0.10395 0.65872 0.40648 0.0
O62 O 0.06795 0.68173 0.38518 0.0
C63 C 0.16646 0.71251 0.35511 0.0
C64 C 0.15974 0.81543 0.45905 0.0
C65 C 0.1506 0.82949 0.5392 0.0
C66 C 0.17679 0.83514 0.51636 0.0
C67 C 0.18139 0.82795 0.47658 0.0
C68 C 0.13326 0.81108 0.48129 0.0
C69 C 0.12871 0.81808 0.52078 0.0
C70 C 0.16541 0.80263 0.42085 0.0
C71 C 0.12711 0.71238 0.47846 0.0
H72 H 0.06327 0.63992 0.26158 0.0
H73 H 0.05312 0.6648 0.3213 0.0
H74 H 0.1088 0.60747 0.38609 0.0
H75 H 0.11928 0.58295 0.32588 0.0
H76 H 0.19408 0.84381 0.52988 0.0
H77 H 0.20212 0.83104 0.46021 0.0
H78 H 0.11635 0.80104 0.46878 0.0
H79 H 0.10819 0.81384 0.53732 0.0
Tb80 Tb 0.55066 0.88129 0.67697 0.0
Tb81 Tb 0.52468 0.86059 0.58922 0.0
C82 C 0.52314 0.92297 0.61116 0.0
C83 C 0.56939 0.87683 0.78879 0.0
C84 C 0.57604 0.85597 0.87221 0.0
C85 C 0.57867 0.88512 0.85769 0.0
C86 C 0.57534 0.89525 0.81703 0.0
C87 C 0.56656 0.84771 0.8028 0.0
C88 C 0.5697 0.8375 0.84375 0.0
C89 C 0.56892 0.88852 0.74482 0.0
O90 O 0.50548 0.87594 0.68707 0.0
O91 O 0.49924 0.84239 0.64397 0.0
O92 O 0.56211 0.83605 0.60084 0.0
O93 O 0.55592 0.83687 0.6693 0.0
O94 O 0.51089 0.86951 0.52996 0.0
O95 O 0.50625 0.82768 0.56317 0.0
O96 O 0.56495 0.88183 0.56947 0.0
O97 O 0.58358 0.89367 0.62841 0.0
O98 O 0.54252 0.9198 0.63724 0.0
O99 O 0.50766 0.9015 0.60394 0.0
C100 C 0.49064 0.85586 0.6753 0.0
O101 O 0.58207 0.87429 0.71742 0.0
O102 O 0.54574 0.89994 0.73227 0.0
C103 C 0.56988 0.82816 0.63705 0.0
C104 C 0.49835 0.83027 0.49139 0.0
C105 C 0.482 0.80523 0.42162 0.0
C106 C 0.48627 0.78857 0.45848 0.0
C107 C 0.49426 0.80075 0.49242 0.0
C108 C 0.49461 0.84699 0.45455 0.0
C109 C 0.4868 0.83477 0.4204 0.0
C110 C 0.50153 0.84366 0.52999 0.0
C111 C 0.5847 0.89247 0.58892 0.0
H112 H 0.58411 0.90036 0.87741 0.0
H113 H 0.57813 0.91771 0.80737 0.0
H114 H 0.56221 0.83275 0.78198 0.0
H115 H 0.56705 0.81501 0.85299 0.0
H116 H 0.4831 0.76589 0.46174 0.0
H117 H 0.4963 0.78695 0.52012 0.0
H118 H 0.49678 0.86983 0.45244 0.0
H119 H 0.48345 0.84888 0.39349 0.0
Tb120 Tb 0.36545 0.29034 0.96955 0.0
Tb121 Tb 0.38477 0.26931 0.87284 0.0
C122 C 0.32612 0.25588 0.9213 0.0
C123 C 0.36969 0.30837 0.0804 0.0
C124 C 0.39027 0.31727 0.15664 0.0
C125 C 0.36109 0.31719 0.1517 0.0
C126 C 0.3511 0.31274 0.11454 0.0
C127 C 0.39886 0.30831 0.08477 0.0
C128 C 0.40897 0.31256 0.12225 0.0
C129 C 0.35771 0.30641 1.04059 0.0
O130 O 0.37826 0.24634 0.97575 0.0
O131 O 0.40828 0.24423 0.91735 0.0
O132 O 0.4026 0.3104 0.87761 0.0
O133 O 0.4079 0.30193 0.94502 0.0
O134 O 0.3756 0.25326 0.81819 0.0
O135 O 0.41873 0.26243 0.82919 0.0
O136 O 0.35383 0.30315 0.86489 0.0
O137 O 0.34651 0.32197 0.92742 0.0
O138 O 0.32761 0.27535 0.94651 0.0
O139 O 0.3489 0.24472 0.90327 0.0
C140 C 0.39801 0.23374 0.9539 0.0
O141 O 0.36903 0.32194 1.00848 0.0
O142 O 0.3499 0.28176 1.03159 0.0
C143 C 0.41343 0.31716 0.90982 0.0
C144 C 0.41361 0.24394 0.76383 0.0
C145 C 0.43595 0.22553 0.68718 0.0
C146 C 0.40656 0.22596 0.69907 0.0
C147 C 0.39564 0.23493 0.73661 0.0
C148 C 0.44287 0.24368 0.75202 0.0
C149 C 0.45377 0.23465 0.71469 0.0
C150 C 0.40229 0.25331 0.80433 0.0
C151 C 0.34275 0.32178 0.88872 0.0
H152 H 0.34563 0.32132 0.1763 0.0
H153 H 0.32854 0.31338 0.11226 0.0
H154 H 0.4139 0.30524 0.05912 0.0
H155 H 0.43154 0.31201 0.12412 0.0
H156 H 0.39178 0.21884 0.67973 0.0
H157 H 0.373 0.23466 0.74437 0.0
H158 H 0.45758 0.25044 0.77179 0.0
H159 H 0.47639 0.23511 0.70743 0.0
Tb160 Tb 0.94882 0.83784 1.03156 0.0
Tb161 Tb 0.01117 0.85933 0.9861 0.0
C162 C 0.98776 0.79888 0.98454 0.0
C163 C 0.88383 0.84354 0.09766 0.0
C164 C 0.858 0.87095 0.1621 0.0
C165 C 0.85352 0.84178 0.1604 0.0
C166 C 0.8664 0.8282 0.12842 0.0
C167 C 0.88689 0.87299 0.09793 0.0
C168 C 0.87406 0.88658 0.12985 0.0
C169 C 0.89995 0.82877 0.06649 0.0
O170 O 0.98086 0.82206 0.07263 0.0
O171 O 0.01686 0.85403 0.05131 0.0
O172 O 0.98899 0.89812 1.00026 0.0
O173 O 0.9569 0.87867 0.05109 0.0
O174 O 0.05425 0.84983 0.97357 0.0
O175 O 0.03688 0.88927 0.94872 0.0
O176 O 0.98684 0.85217 0.93557 0.0
O177 O 0.94178 0.85086 0.96752 0.0
O178 O 0.9614 0.80383 0.99642 0.0
O179 O 0.00763 0.81339 0.99735 0.0
C180 C 0.005 0.83403 0.07842 0.0
O181 O 0.9053 0.84404 1.03177 0.0
O182 O 0.92213 0.8145 0.07743 0.0
C183 C 0.97032 0.90066 1.03128 0.0
C184 C 0.07137 0.86766 0.90716 0.0
C185 C 0.09518 0.8584 0.82898 0.0
C186 C 0.11056 0.87271 0.85437 0.0
C187 C 0.09877 0.87716 0.89331 0.0
C188 C 0.05586 0.85386 0.88161 0.0
C189 C 0.06767 0.84907 0.84306 0.0
C190 C 0.0587 0.87245 0.94785 0.0
C191 C 0.95931 0.85102 0.93422 0.0
H192 H 0.8417 0.82898 0.18515 0.0
H193 H 0.86373 0.80552 0.12863 0.0
H194 H 0.90002 0.8854 0.0742 0.0
H195 H 0.87784 0.90902 0.13028 0.0
H196 H 0.13181 0.88006 0.84434 0.0
H197 H 0.11101 0.88802 0.91255 0.0
H198 H 0.03453 0.84687 0.89143 0.0
H199 H 0.05508 0.83843 0.824 0.0
Tb200 Tb 0.39234 0.66615 0.1383 0.0
Tb201 Tb 0.38344 0.72931 0.09374 0.0
C202 C 0.44151 0.69799 0.07952 0.0
C203 C 0.37444 0.60544 0.21264 0.0
C204 C 0.34229 0.59292 0.28773 0.0
C205 C 0.37062 0.58397 0.28233 0.0
C206 C 0.38656 0.59023 0.24505 0.0
C207 C 0.34559 0.61249 0.21709 0.0
C208 C 0.32964 0.60619 0.25425 0.0
C209 C 0.3926 0.61734 0.1767 0.0
O210 O 0.39901 0.69488 0.18458 0.0
O211 O 0.4073 0.7374 0.14467 0.0
O212 O 0.35217 0.72272 0.14567 0.0
O213 O 0.34723 0.67573 0.14343 0.0
O214 O 0.3946 0.77095 0.06995 0.0
O215 O 0.35242 0.75511 0.06757 0.0
O216 O 0.37376 0.69922 0.05102 0.0
O217 O 0.39835 0.66008 0.07423 0.0
O218 O 0.43414 0.6785 0.11007 0.0
O219 O 0.42416 0.71777 0.06607 0.0
C220 C 0.40833 0.72141 0.17966 0.0
O221 O 0.3801 0.62346 0.14377 0.0
O222 O 0.4093 0.63772 0.18272 0.0
C223 C 0.33737 0.69954 0.15536 0.0
C224 C 0.37308 0.78235 1.00996 0.0
C225 C 0.37798 0.79534 0.92517 0.0
C226 C 0.36047 0.81174 0.95012 0.0
C227 C 0.35807 0.80528 0.99225 0.0
C228 C 0.38978 0.7654 0.98522 0.0
C229 C 0.39231 0.77188 0.94331 0.0
C230 C 0.37068 0.77506 0.05399 0.0
C231 C 0.38711 0.67533 0.04457 0.0
H232 H 0.38113 0.57404 0.30763 0.0
H233 H 0.40879 0.58474 0.24227 0.0
H234 H 0.33568 0.62424 0.19252 0.0
H235 H 0.30782 0.61308 0.25734 0.0
H236 H 0.34883 0.82971 0.93714 0.0
H237 H 0.34467 0.81823 1.01096 0.0
H238 H 0.40122 0.74732 0.99837 0.0
H239 H 0.40635 0.75903 0.92532 0.0
Tb240 Tb 0.57219 0.1419 0.3601 0.0
Tb241 Tb 0.50928 0.13155 0.33401 0.0
C242 C 0.53928 0.19037 0.30941 0.0
C243 C 0.63491 0.12788 0.41484 0.0
C244 C 0.65217 0.09801 0.48607 0.0
C245 C 0.65579 0.12762 0.47821 0.0
C246 C 0.64724 0.14239 0.44289 0.0
C247 C 0.63312 0.0981 0.4212 0.0
C248 C 0.6417 0.0833 0.45649 0.0
C249 C 0.62121 0.14414 0.38186 0.0
O250 O 0.5437 0.14918 0.41424 0.0
O251 O 0.50058 0.15463 0.38786 0.0
O252 O 0.51487 0.10081 0.38557 0.0
O253 O 0.56256 0.09692 0.37546 0.0
O254 O 0.46815 0.14236 0.32015 0.0
O255 O 0.4842 0.0996 0.31737 0.0
O256 O 0.53978 0.12096 0.28364 0.0
O257 O 0.57793 0.14676 0.29408 0.0
O258 O 0.55855 0.18336 0.33463 0.0
O259 O 0.52001 0.17267 0.30205 0.0
C260 C 0.51675 0.15676 0.41756 0.0
O261 O 0.61475 0.12994 0.35279 0.0
O262 O 0.60065 0.16082 0.3933 0.0
C263 C 0.53819 0.08729 0.39291 0.0
C264 C 0.45954 0.1191 0.26412 0.0
C265 C 0.45316 0.11956 0.18111 0.0
C266 C 0.4372 0.1008 0.21016 0.0
C267 C 0.44042 0.10057 0.25142 0.0
C268 C 0.47592 0.1373 0.23521 0.0
C269 C 0.47267 0.13765 0.19424 0.0
C270 C 0.46477 0.11786 0.30681 0.0
C271 C 0.56322 0.13473 0.2695 0.0
H272 H 0.66342 0.13971 0.50054 0.0
H273 H 0.64882 0.16533 0.43856 0.0
H274 H 0.62386 0.08628 0.3999 0.0
H275 H 0.63896 0.06049 0.46143 0.0
H276 H 0.42218 0.0864 0.20105 0.0
H277 H 0.42813 0.08588 0.27332 0.0
H278 H 0.4913 0.15134 0.2443 0.0
H279 H 0.48494 0.15279 0.17304 0.0
Tb280 Tb 0.09226 0.28462 0.76095 0.0
Tb281 Tb 0.10906 0.21945 0.73906 0.0
C282 C 0.05129 0.24655 0.72775 0.0
C283 C 0.10232 0.35058 0.80403 0.0
C284 C 0.13052 0.37609 0.86081 0.0
C285 C 0.10185 0.38217 0.85614 0.0
C286 C 0.08788 0.3695 0.82794 0.0
C287 C 0.13132 0.3457 0.80705 0.0
C288 C 0.1453 0.35843 0.83504 0.0
C289 C 0.08708 0.33503 0.77723 0.0
O290 O 0.07558 0.25509 0.81407 0.0
O291 O 0.10381 0.21574 0.80567 0.0
O292 O 0.1487 0.23817 0.74954 0.0
O293 O 0.13159 0.27349 0.78671 0.0
O294 O 0.09569 0.17717 0.74078 0.0
O295 O 0.13748 0.18998 0.7154 0.0
O296 O 0.10451 0.24314 0.6793 0.0
O297 O 0.10639 0.28894 0.69541 0.0
O298 O 0.05758 0.27312 0.72908 0.0
O299 O 0.06422 0.22728 0.75035 0.0
C300 C 0.08575 0.23011 0.82841 0.0
O301 O 0.10266 0.32736 0.74607 0.0
O302 O 0.0704 0.31459 0.79461 0.0
C303 C 0.152 0.25651 0.77526 0.0
C304 C 0.11512 0.15587 0.68304 0.0
C305 C 0.10804 0.13319 0.61011 0.0
C306 C 0.13464 0.14272 0.61762 0.0
C307 C 0.13814 0.15392 0.65371 0.0
C308 C 0.08884 0.14498 0.67638 0.0
C309 C 0.08529 0.13398 0.64012 0.0
C310 C 0.11858 0.16997 0.71961 0.0
C311 C 0.10519 0.27079 0.66832 0.0
H312 H 0.08965 0.39526 0.87604 0.0
H313 H 0.06558 0.37358 0.82596 0.0
H314 H 0.14307 0.3313 0.7887 0.0
H315 H 0.16735 0.35342 0.83778 0.0
H316 H 0.15254 0.14246 0.59499 0.0
H317 H 0.15878 0.1617 0.65821 0.0
H318 H 0.07082 0.14549 0.69874 0.0
H319 H 0.06465 0.12635 0.63538 0.0
Tb320 Tb 0.88977 0.16894 0.63424 0.0
Tb321 Tb 0.87866 0.23317 0.59289 0.0
C322 C 0.93753 0.20416 0.57513 0.0
C323 C 0.87847 0.10977 0.71242 0.0
C324 C 0.85353 0.10158 0.79279 0.0
C325 C 0.88151 0.09276 0.78307 0.0
C326 C 0.89387 0.09686 0.74318 0.0
C327 C 0.84985 0.11645 0.72155 0.0
C328 C 0.83747 0.11229 0.76135 0.0
C329 C 0.89337 0.12066 0.67315 0.0
O330 O 0.8946 0.19693 0.6821 0.0
O331 O 0.9012 0.24078 0.6452 0.0
O332 O 0.84712 0.2226 0.64384 0.0
O333 O 0.84432 0.1757 0.63964 0.0
O334 O 0.88666 0.27632 0.57347 0.0
O335 O 0.8457 0.25768 0.57017 0.0
O336 O 0.87653 0.2058 0.54353 0.0
O337 O 0.89364 0.1627 0.5703 0.0
O338 O 0.93026 0.18232 0.60218 0.0
O339 O 0.92069 0.22562 0.56637 0.0
C340 C 0.90239 0.22387 0.67933 0.0
O341 O 0.87773 0.1261 0.64323 0.0
O342 O 0.91107 0.14119 0.67469 0.0
C343 C 0.83325 0.19878 0.65222 0.0
C344 C 0.86131 0.2939 0.51819 0.0
C345 C 0.86215 0.3203 0.43793 0.0
C346 C 0.84586 0.29582 0.4506 0.0
C347 C 0.84548 0.28271 0.49026 0.0
C348 C 0.87685 0.31884 0.50598 0.0
C349 C 0.87738 0.33184 0.46625 0.0
C350 C 0.86185 0.27994 0.55995 0.0
C351 C 0.88651 0.17996 0.53929 0.0
H352 H 0.8946 0.08473 0.8066 0.0
H353 H 0.916 0.09176 0.73682 0.0
H354 H 0.83747 0.12647 0.6984 0.0
H355 H 0.81578 0.11894 0.76778 0.0
H356 H 0.83359 0.28658 0.42976 0.0
H357 H 0.83303 0.26364 0.49878 0.0
H358 H 0.88905 0.32799 0.527 0.0
H359 H 0.89054 0.3504 0.45744 0.0
Tb360 Tb 0.59004 0.80252 0.25876 0.0
Tb361 Tb 0.6057 0.73636 0.2416 0.0
C362 C 0.54866 0.7636 0.22819 0.0
C363 C 0.60059 0.87179 0.29329 0.0
C364 C 0.63182 0.90307 0.34047 0.0
C365 C 0.60235 0.90679 0.34038 0.0
C366 C 0.58691 0.89131 0.31691 0.0
C367 C 0.63015 0.86901 0.29173 0.0
C368 C 0.64562 0.88468 0.3148 0.0
C369 C 0.58407 0.85377 0.27131 0.0
O370 O 0.57166 0.77414 0.31232 0.0
O371 O 0.60102 0.73525 0.30782 0.0
O372 O 0.6456 0.75606 0.24801 0.0
O373 O 0.62962 0.79213 0.28455 0.0
O374 O 0.58995 0.69523 0.24098 0.0
O375 O 0.63401 0.70433 0.22515 0.0
O376 O 0.60289 0.75863 0.1807 0.0
O377 O 0.60673 0.80478 0.19424 0.0
O378 O 0.55603 0.79016 0.22609 0.0
O379 O 0.56111 0.74528 0.25272 0.0
C380 C 0.58207 0.74984 0.32871 0.0
O381 O 0.59761 0.84535 0.2391 0.0
O382 O 0.5697 0.83315 0.29287 0.0
C383 C 0.64966 0.77473 0.27296 0.0
C384 C 0.6128 0.67415 0.18649 0.0
C385 C 0.61415 0.65422 0.11017 0.0
C386 C 0.62483 0.63736 0.14273 0.0
C387 C 0.62426 0.64737 0.18071 0.0
C388 C 0.60157 0.69058 0.15429 0.0
C389 C 0.60211 0.68071 0.1166 0.0
C390 C 0.61389 0.68603 0.22499 0.0
C391 C 0.60548 0.78592 0.16817 0.0
H392 H 0.59083 0.92029 0.36036 0.0
H393 H 0.56418 0.89379 0.31841 0.0
H394 H 0.64129 0.8541 0.27356 0.0
H395 H 0.66824 0.88144 0.31388 0.0
H396 H 0.63425 0.61686 0.13853 0.0
H397 H 0.63317 0.63448 0.20526 0.0
H398 H 0.59267 0.71126 0.15809 0.0
H399 H 0.59315 0.69394 0.09239 0.0
Tb400 Tb 0.59584 0.1892 0.87699 0.0
Tb401 Tb 0.62369 0.24669 0.90295 0.0
C402 C 0.5613 0.23817 0.91301 0.0
C403 C 0.5894 0.12301 0.8311 0.0
C404 C 0.61326 0.0913 0.76978 0.0
C405 C 0.5845 0.099 0.77182 0.0
C406 C 0.57269 0.11464 0.80228 0.0
C407 C 0.61774 0.11414 0.83041 0.0
C408 C 0.62948 0.09827 0.80022 0.0
C409 C 0.57778 0.14282 0.85941 0.0
O410 O 0.59851 0.21843 0.82106 0.0
O411 O 0.60346 0.26114 0.84679 0.0
O412 O 0.65387 0.2329 0.8568 0.0
O413 O 0.64146 0.18601 0.85995 0.0
O414 O 0.61885 0.28908 0.91478 0.0
O415 O 0.6579 0.26642 0.92361 0.0
O416 O 0.62859 0.21255 0.95291 0.0
O417 O 0.59177 0.18445 0.94322 0.0
O418 O 0.5618 0.21976 0.88643 0.0
O419 O 0.58257 0.23936 0.93421 0.0
C420 C 0.59675 0.24644 0.81749 0.0
O421 O 0.59186 0.14511 0.89041 0.0
O422 O 0.56999 0.16754 0.84293 0.0
C423 C 0.65928 0.20703 0.84808 0.0
C424 C 0.6416 0.29636 0.97201 0.0
C425 C 0.63984 0.30868 0.05288 0.0
C426 C 0.65835 0.32347 1.02236 0.0
C427 C 0.65922 0.31732 0.98222 0.0
C428 C 0.62316 0.28154 1.00226 0.0
C429 C 0.62219 0.28771 1.04222 0.0
C430 C 0.643 0.28901 0.93033 0.0
C431 C 0.60971 0.19274 0.96702 0.0
H432 H 0.57144 0.09443 0.74858 0.0
H433 H 0.55083 0.1213 0.80224 0.0
H434 H 0.63119 0.12028 0.85228 0.0
H435 H 0.65155 0.09236 0.7999 0.0
H436 H 0.67245 0.33951 1.02956 0.0
H437 H 0.67377 0.32875 0.95925 0.0
H438 H 0.60949 0.26514 0.99497 0.0
H439 H 0.60732 0.27623 0.06465 0.0
Tb440 Tb 0.86074 0.76096 0.49159 0.0
Tb441 Tb 0.88654 0.73669 0.39734 0.0
C442 C 0.82149 0.74741 0.42552 0.0
C443 C 0.86389 0.78319 0.60114 0.0
C444 C 0.88402 0.79586 0.67597 0.0
C445 C 0.85722 0.80506 0.66481 0.0
C446 C 0.84746 0.79893 0.62816 0.0
C447 C 0.89027 0.77313 0.61261 0.0
C448 C 0.9002 0.77942 0.64925 0.0
C449 C 0.85469 0.78166 0.55942 0.0
O450 O 0.85432 0.7155 0.49706 0.0
O451 O 0.88824 0.70239 0.44718 0.0
O452 O 0.91758 0.76391 0.41752 0.0
O453 O 0.90322 0.74696 0.4815 0.0
O454 O 0.87908 0.72784 0.33842 0.0
O455 O 0.91908 0.71703 0.36177 0.0
O456 O 0.87688 0.78137 0.38371 0.0
O457 O 0.86168 0.79774 0.44623 0.0
O458 O 0.82507 0.76295 0.45522 0.0
O459 O 0.84104 0.73001 0.41117 0.0
C460 C 0.87112 0.69656 0.48087 0.0
O461 O 0.87251 0.79082 0.52863 0.0
O462 O 0.83977 0.76029 0.55131 0.0
C463 C 0.92004 0.76313 0.4563 0.0
C464 C 0.91756 0.71654 0.28803 0.0
C465 C 0.94186 0.70674 0.20762 0.0
C466 C 0.95895 0.70946 0.23941 0.0
C467 C 0.94704 0.71401 0.27883 0.0
C468 C 0.9006 0.71468 0.25603 0.0
C469 C 0.91243 0.70992 0.21682 0.0
C470 C 0.90393 0.71638 0.33122 0.0
C471 C 0.86804 0.80132 0.40666 0.0
H472 H 0.844 0.81801 0.68369 0.0
H473 H 0.82726 0.80747 0.62022 0.0
H474 H 0.90345 0.76076 0.593 0.0
H475 H 0.92069 0.77136 0.65655 0.0
H476 H 0.98162 0.70698 0.23436 0.0
H477 H 0.96099 0.71468 0.30244 0.0
H478 H 0.87784 0.71598 0.2616 0.0
H479 H 0.89827 0.70853 0.19367 0.0
Tb480 Tb 0.44212 0.6506 0.66228 0.0
Tb481 Tb 0.50092 0.62368 0.69425 0.0
C482 C 0.48997 0.68559 0.69077 0.0
C483 C 0.37813 0.65726 0.61068 0.0
C484 C 0.34554 0.63505 0.55584 0.0
C485 C 0.33478 0.65698 0.57807 0.0
C486 C 0.35099 0.66796 0.60548 0.0
C487 C 0.38878 0.63526 0.5889 0.0
C488 C 0.37269 0.62428 0.56173 0.0
C489 C 0.39522 0.66796 0.63976 0.0
O490 O 0.46972 0.64882 0.60629 0.0
O491 O 0.51282 0.64606 0.63276 0.0
O492 O 0.48819 0.59459 0.65471 0.0
O493 O 0.44085 0.6048 0.65721 0.0
O494 O 0.54381 0.62951 0.69982 0.0
O495 O 0.52274 0.59025 0.72463 0.0
O496 O 0.46801 0.61638 0.74633 0.0
O497 O 0.43757 0.6522 0.72759 0.0
O498 O 0.47178 0.68532 0.66368 0.0
O499 O 0.49174 0.66349 0.71692 0.0
C500 C 0.49743 0.65193 0.60172 0.0
O501 O 0.39792 0.6503 0.67196 0.0
O502 O 0.41939 0.67908 0.62462 0.0
C503 C 0.46256 0.58856 0.64761 0.0
C504 C 0.55678 0.60777 0.76181 0.0
C505 C 0.57907 0.61322 0.83538 0.0
C506 C 0.58806 0.591 0.8127 0.0
C507 C 0.57709 0.58841 0.7759 0.0
C508 C 0.54721 0.62944 0.78505 0.0
C509 C 0.55844 0.63229 0.82135 0.0
C510 C 0.54556 0.60555 0.72295 0.0
C511 C 0.44708 0.63392 0.75574 0.0
H512 H 0.31394 0.66567 0.57417 0.0
H513 H 0.34242 0.68478 0.62246 0.0
H514 H 0.40971 0.62671 0.59269 0.0
H515 H 0.38193 0.60791 0.54444 0.0
H516 H 0.60392 0.57604 0.82305 0.0
H517 H 0.58453 0.57145 0.75838 0.0
H518 H 0.53116 0.64426 0.77501 0.0
H519 H 0.55082 0.64931 0.83866 0.0
Tb520 Tb 0.02535 0.38364 0.18969 0.0
Tb521 Tb -0.00038 0.35968 0.10253 0.0
C522 C 0.01514 0.42457 0.11066 0.0
C523 C 0.04734 0.37136 0.30042 0.0
C524 C 0.05777 0.3486 0.38207 0.0
C525 C 0.04063 0.37291 0.37441 0.0
C526 C 0.03558 0.38406 0.33447 0.0
C527 C 0.06415 0.34689 0.30814 0.0
C528 C 0.06905 0.33568 0.3479 0.0
C529 C 0.04597 0.38566 0.25745 0.0
O530 O 0.98095 0.3944 0.19096 0.0
O531 O 0.96563 0.36103 0.15183 0.0
O532 O 0.02498 0.32659 0.13246 0.0
O533 O 0.00867 0.34222 0.19082 0.0
O534 O -0.00741 0.366 1.04035 0.0
O535 O 0.97576 0.32906 0.07855 0.0
O536 O 0.04469 0.36557 0.08769 0.0
O537 O 0.06158 0.38172 0.145 0.0
O538 O 0.02917 0.42014 0.14335 0.0
O539 O -0.00281 0.40604 0.10033 0.0
C540 C 0.96102 0.37865 0.17994 0.0
O541 O 0.05685 0.37183 0.22802 0.0
O542 O 0.02382 0.40041 0.24681 0.0
C543 C 0.02418 0.32446 0.17191 0.0
C544 C 0.97604 0.3274 1.00493 0.0
C545 C 0.96355 0.30265 0.933 0.0
C546 C 0.95479 0.28967 0.97245 0.0
C547 C 0.96081 0.3018 1.0075 0.0
C548 C 0.98541 0.3401 0.96567 0.0
C549 C 0.97943 0.32796 0.93056 0.0
C550 C 0.97766 0.34285 1.04217 0.0
C551 C 0.06486 0.37426 0.10796 0.0
H552 H 0.03112 0.3836 0.39933 0.0
H553 H 0.02302 0.40317 0.33023 0.0
H554 H 0.0745 0.33675 0.28323 0.0
H555 H 0.08274 0.31736 0.35155 0.0
H556 H 0.94221 0.27053 0.97655 0.0
H557 H 0.95253 0.29154 1.03682 0.0
H558 H -0.00324 0.36002 0.9619 0.0
H559 H 0.98719 0.33872 0.90135 0.0
Tb560 Tb 0.44241 0.34207 0.52499 0.0
Tb561 Tb 0.50692 0.36187 0.48587 0.0
C562 C 0.48347 0.30262 0.48197 0.0
C563 C 0.37339 0.34531 0.58435 0.0
C564 C 0.33852 0.37138 0.64256 0.0
C565 C 0.33539 0.34237 0.63842 0.0
C566 C 0.35272 0.32945 0.60954 0.0
C567 C 0.37577 0.37451 0.58717 0.0
C568 C 0.35849 0.38745 0.616 0.0
C569 C 0.39247 0.33147 0.55526 0.0
O570 O 0.47244 0.3253 0.56879 0.0
O571 O 0.50893 0.35724 0.55181 0.0
O572 O 0.48577 0.40106 0.49905 0.0
O573 O 0.4487 0.3837 0.5441 0.0
O574 O 0.54982 0.35049 0.47787 0.0
O575 O 0.53522 0.39058 0.45077 0.0
O576 O 0.48452 0.35629 0.43269 0.0
O577 O 0.43834 0.35613 0.46037 0.0
O578 O 0.45673 0.30878 0.48881 0.0
O579 O 0.50182 0.31637 0.49881 0.0
C580 C 0.4961 0.33691 0.57723 0.0
O581 O 0.39907 0.34692 0.52103 0.0
O582 O 0.41451 0.31853 0.56907 0.0
C583 C 0.46496 0.40468 0.52686 0.0
C584 C 0.56946 0.36653 0.4122 0.0
C585 C 0.5943 0.35321 0.33664 0.0
C586 C 0.61024 0.36667 0.36226 0.0
C587 C 0.59789 0.37313 0.40004 0.0
C588 C 0.5535 0.3538 0.3861 0.0
C589 C 0.56578 0.34708 0.34881 0.0
C590 C 0.55614 0.37263 0.45192 0.0
C591 C 0.45725 0.35631 0.42858 0.0
H592 H 0.32062 0.32923 0.65897 0.0
H593 H 0.35049 0.30695 0.60762 0.0
H594 H 0.39136 0.38725 0.56755 0.0
H595 H 0.36137 0.4098 0.61837 0.0
H596 H 0.63227 0.37168 0.35338 0.0
H597 H 0.61051 0.38311 0.41975 0.0
H598 H 0.53152 0.34882 0.39466 0.0
H599 H 0.55292 0.33715 0.32933 0.0
Tb600 Tb 0.07904 0.65083 0.86599 0.0
Tb601 Tb 0.01906 0.62614 0.8455 0.0
C602 C 0.03821 0.69002 0.81494 0.0
C603 C 0.13945 0.64623 0.92331 0.0
C604 C 0.14823 0.62187 1.00185 0.0
C605 C 0.1497 0.65147 0.99183 0.0
C606 C 0.14529 0.66357 0.9528 0.0
C607 C 0.14072 0.61652 0.93247 0.0
C608 C 0.145 0.60449 0.97138 0.0
C609 C 0.12744 0.6587 0.88615 0.0
O610 O 0.04887 0.66667 0.91234 0.0
O611 O 0.01179 0.63647 0.90915 0.0
O612 O 0.046 0.59063 0.86306 0.0
O613 O 0.06865 0.61243 0.90669 0.0
O614 O 0.97491 0.62818 0.84455 0.0
O615 O -0.00169 0.59099 0.82953 0.0
O616 O 0.04182 0.63478 0.78486 0.0
O617 O 0.08644 0.64276 0.80218 0.0
O618 O 0.06303 0.68674 0.82922 0.0
O619 O 0.01849 0.67035 0.82077 0.0
C620 C 0.02442 0.65533 0.92786 0.0
O621 O 0.12201 0.64063 0.8612 0.0
O622 O 0.10665 0.67666 0.89133 0.0
C623 C 0.05815 0.58935 0.89649 0.0
C624 C 0.96045 0.6041 0.79224 0.0
C625 C 0.93656 0.60209 0.71882 0.0
C626 C 0.92382 0.58751 0.75492 0.0
C627 C 0.93581 0.58838 0.7914 0.0
C628 C 0.97304 0.61885 0.75639 0.0
C629 C 0.96127 0.6178 0.72001 0.0
C630 C 0.97401 0.60392 0.82981 0.0
C631 C 0.06877 0.64057 0.77461 0.0
H632 H 0.15201 0.66536 1.0149 0.0
H633 H 0.14446 0.68647 0.9465 0.0
H634 H 0.13649 0.60239 0.91047 0.0
H635 H 0.1441 0.58162 0.97827 0.0
H636 H 0.90475 0.57529 0.75486 0.0
H637 H 0.92598 0.5767 0.81884 0.0
H638 H -0.00796 0.63113 0.7565 0.0
H639 H 0.97122 0.62979 0.69291 0.0
H640 H 0.05089 0.1184 0.05946 0.0
H641 H 0.04589 0.25074 0.88391 0.0
H642 H -0.00525 0.19025 0.06574 0.0
H643 H 0.10139 0.17914 0.87038 0.0
H644 H 0.0281 0.22862 0.9512 0.0
H645 H 0.07051 0.13951 0.99147 0.0
C646 C 0.04262 0.13849 0.04682 0.0
C647 C 0.02098 0.15233 0.0691 0.0
C648 C 0.04423 0.21766 0.93369 0.0
C649 C 0.04355 0.17687 0.99069 0.0
C650 C 0.05453 0.23042 0.89498 0.0
C651 C 0.07538 0.21703 0.87079 0.0
C652 C 0.05468 0.19106 0.94916 0.0
C653 C 0.08539 0.19049 0.88752 0.0
C654 C 0.05388 0.1506 1.00785 0.0
C655 C 0.01135 0.17847 0.05046 0.0
N656 N 0.07503 0.17849 0.92533 0.0
N657 N 0.02258 0.18967 1.01294 0.0
H658 H 0.12096 0.80333 0.27238 0.0
H659 H 0.99014 0.78962 0.1375 0.0
H660 H 0.05833 0.73702 0.29441 0.0
H661 H 0.05438 0.85361 0.10475 0.0
H662 H 0.01484 0.77154 0.19598 0.0
H663 H 0.09757 0.82309 0.2123 0.0
C664 C 0.10248 0.7928 0.26476 0.0
C665 C 0.09189 0.76827 0.28918 0.0
C666 C 0.02364 0.7896 0.17619 0.0
C667 C 0.06462 0.79111 0.21995 0.0
C668 C 0.00937 0.80009 0.14253 0.0
C669 C 0.01987 0.82344 0.11558 0.0
C670 C 0.0489 0.80237 0.18381 0.0
C671 C 0.04521 0.83567 0.12435 0.0
C672 C 0.08903 0.80417 0.23033 0.0
C673 C 0.06761 0.75589 0.27718 0.0
N674 N 0.05871 0.8251 0.15744 0.0
N675 N 0.05502 0.76735 0.244 0.0
H676 H 0.43682 0.77222 0.17988 0.0
H677 H 0.44974 0.7563 0.42094 0.0
H678 H 0.40659 0.69933 0.26074 0.0
H679 H 0.49035 0.8235 0.3383 0.0
H680 H 0.4333 0.73602 0.36342 0.0
H681 H 0.45526 0.79189 0.23708 0.0
C682 C 0.43389 0.76028 0.20959 0.0
C683 C 0.41983 0.73388 0.21489 0.0
C684 C 0.44583 0.7552 0.35776 0.0
C685 C 0.44115 0.75678 0.28166 0.0
C686 C 0.45558 0.76689 0.39093 0.0
C687 C 0.47181 0.79207 0.38556 0.0
C688 C 0.45191 0.76855 0.31805 0.0
C689 C 0.47765 0.80451 0.34502 0.0
C690 C 0.44458 0.7716 0.24244 0.0
C691 C 0.41714 0.71965 0.2546 0.0
N692 N 0.46776 0.79279 0.31332 0.0
N693 N 0.42747 0.73123 0.28607 0.0
H694 H 0.48781 0.19971 0.66756 0.0
H695 H 0.46332 0.17926 0.43647 0.0
H696 H 0.41219 0.22792 0.61325 0.0
H697 H 0.54126 0.15889 0.48913 0.0
H698 H 0.4438 0.19615 0.50048 0.0
H699 H 0.50693 0.18426 0.60312 0.0
C700 C 0.4751 0.20299 0.64229 0.0
C701 C 0.44802 0.2155 0.64692 0.0
C702 C 0.46518 0.18799 0.49809 0.0
C703 C 0.47024 0.19685 0.57153 0.0
C704 C 0.47642 0.17824 0.46134 0.0
C705 C 0.50417 0.16742 0.45674 0.0
C706 C 0.48157 0.18691 0.53121 0.0
C707 C 0.51984 0.16694 0.49063 0.0
C708 C 0.48614 0.19383 0.60518 0.0
C709 C 0.43288 0.21816 0.61223 0.0
N710 N 0.50839 0.17637 0.52599 0.0
N711 N 0.44408 0.209 0.57648 0.0
H712 H 0.81755 0.82726 0.39935 0.0
H713 H 0.891 0.9045 0.19944 0.0
H714 H 0.90673 0.83748 0.36479 0.0
H715 H 0.80908 0.86465 0.21351 0.0
H716 H 0.8879 0.90647 0.27213 0.0
H717 H 0.80807 0.86521 0.34598 0.0
C718 C 0.83511 0.83845 0.38162 0.0
C719 C 0.86287 0.8292 0.38544 0.0
C720 C 0.87007 0.89837 0.25913 0.0
C721 C 0.85235 0.87207 0.32504 0.0
C722 C 0.87174 0.89731 0.21749 0.0
C723 C 0.85081 0.88308 0.20074 0.0
C724 C 0.84764 0.88468 0.28386 0.0
C725 C 0.82625 0.87459 0.22564 0.0
C726 C 0.82973 0.86003 0.35131 0.0
C727 C 0.88503 0.84395 0.36199 0.0
N728 N 0.8257 0.87465 0.26632 0.0
N729 N 0.87927 0.86444 0.3322 0.0
H730 H 0.82368 0.14526 0.82348 0.0
H731 H 0.8723 0.09893 1.04028 0.0
H732 H 0.86008 0.06359 0.85976 0.0
H733 H 0.83627 0.18073 1.00493 0.0
H734 H 0.85681 0.08147 0.98009 0.0
H735 H 0.81656 0.15394 0.89418 0.0
C736 C 0.82944 0.12874 0.84638 0.0
C737 C 0.84303 0.10383 0.83558 0.0
C738 C 0.85177 0.10309 0.98571 0.0
C739 C 0.83559 0.11407 0.91661 0.0
C740 C 0.86061 0.11302 1.02002 0.0
C741 C 0.8559 0.14137 1.02689 0.0
C742 C 0.8386 0.12184 0.95769 0.0
C743 C 0.84043 0.15877 1.00029 0.0
C744 C 0.82556 0.13386 0.88682 0.0
C745 C 0.8502 0.08338 0.86665 0.0
N746 N 0.8328 0.14888 0.96628 0.0
N747 N 0.84685 0.08917 0.90571 0.0
H748 H 0.66556 0.10392 0.73031 0.0
H749 H 0.61757 0.05771 0.53007 0.0
H750 H 0.59208 0.05237 0.72532 0.0
H751 H 0.69311 0.10584 0.5364 0.0
H752 H 0.61545 0.04395 0.60266 0.0
H753 H 0.68304 0.09325 0.66297 0.0
C754 C 0.65339 0.08969 0.7156 0.0
C755 C 0.62688 0.0796 0.73326 0.0
C756 C 0.63288 0.057 0.58812 0.0
C757 C 0.64651 0.06806 0.65522 0.0
C758 C 0.63426 0.06472 0.54646 0.0
C759 C 0.65517 0.08362 0.52723 0.0
C760 C 0.6523 0.06858 0.61076 0.0
C761 C 0.6761 0.09199 0.55023 0.0
C762 C 0.66336 0.08377 0.67684 0.0
C763 C 0.61216 0.0614 0.71235 0.0
N764 N 0.67378 0.08493 0.59094 0.0
N765 N 0.62187 0.05671 0.67407 0.0
H766 H 0.59478 0.94695 0.55697 0.0
H767 H 0.67257 0.87637 0.38381 0.0
H768 H 0.63051 0.86296 0.56297 0.0
H769 H 0.62517 0.95459 0.37134 0.0
H770 H 0.68087 0.88487 0.45179 0.0
H771 H 0.62731 0.9614 0.49708 0.0
C772 C 0.6103 0.93193 0.54651 0.0
C773 C 0.60976 0.90368 0.56387 0.0
C774 C 0.66942 0.90071 0.43378 0.0
C775 C 0.64628 0.91955 0.49527 0.0
C776 C 0.66477 0.89596 0.39459 0.0
C777 C 0.64664 0.91398 0.37264 0.0
C778 C 0.65508 0.92301 0.45131 0.0
C779 C 0.63783 0.93926 0.38822 0.0
C780 C 0.62889 0.94012 0.51238 0.0
C781 C 0.63018 0.88487 0.54967 0.0
N782 N 0.64122 0.94254 0.42728 0.0
N783 N 0.64727 0.89296 0.5155 0.0
H784 H 0.5283 0.75488 0.3666 0.0
H785 H 0.55446 0.65822 0.57437 0.0
H786 H 0.60816 0.71414 0.38528 0.0
H787 H 0.47166 0.67692 0.53606 0.0
H788 H 0.57541 0.68215 0.50915 0.0
H789 H 0.50815 0.73006 0.43139 0.0
C790 C 0.54181 0.7412 0.38463 0.0
C791 C 0.57014 0.73685 0.37017 0.0
C792 C 0.55265 0.68087 0.51495 0.0
C793 C 0.54712 0.7088 0.44585 0.0
C794 C 0.54061 0.6671 0.5523 0.0
C795 C 0.51108 0.66504 0.5611 0.0
C796 C 0.53518 0.69331 0.48601 0.0
C797 C 0.49447 0.67749 0.53097 0.0
C798 C 0.53022 0.72697 0.42179 0.0
C799 C 0.58627 0.71828 0.39498 0.0
N800 N 0.50665 0.69109 0.49529 0.0
N801 N 0.57469 0.70526 0.4315 0.0
H802 H 0.59291 0.30432 0.79127 0.0
H803 H 0.48971 0.28358 0.61953 0.0
H804 H 0.56969 0.2225 0.76036 0.0
H805 H 0.53559 0.36143 0.61885 0.0
H806 H 0.51515 0.26246 0.67596 0.0
H807 H 0.56878 0.32701 0.73379 0.0
C808 C 0.58303 0.29104 0.77236 0.0
C809 C 0.58387 0.26123 0.7809 0.0
C810 C 0.51942 0.28428 0.6639 0.0
C811 C 0.55533 0.28737 0.71508 0.0
C812 C 0.50479 0.29648 0.63153 0.0
C813 C 0.51025 0.32456 0.61402 0.0
C814 C 0.53935 0.30025 0.68023 0.0
C815 C 0.53052 0.33978 0.63109 0.0
C816 C 0.56915 0.30408 0.73948 0.0
C817 C 0.57013 0.24544 0.75518 0.0
N818 N 0.54406 0.3276 0.66322 0.0
N819 N 0.55643 0.25858 0.72402 0.0
H820 H 0.95407 0.24621 0.92079 0.0
H821 H 0.91761 0.27907 0.68835 0.0
H822 H 0.95417 0.33057 0.85696 0.0
H823 H 0.90944 0.19607 0.75575 0.0
H824 H 0.93276 0.29776 0.74842 0.0
H825 H 0.93956 0.22745 0.86063 0.0
C826 C 0.95099 0.26101 0.89446 0.0
C827 C 0.95548 0.29038 0.89505 0.0
C828 C 0.92768 0.27544 0.75019 0.0
C829 C 0.93891 0.26838 0.82435 0.0
C830 C 0.91897 0.26464 0.71564 0.0
C831 C 0.91201 0.23573 0.71631 0.0
C832 C 0.92974 0.2574 0.78638 0.0
C833 C 0.91441 0.21844 0.7532 0.0
C834 C 0.94278 0.25009 0.8597 0.0
C835 C 0.95152 0.30784 0.85872 0.0
N836 N 0.923 0.22944 0.78631 0.0
N837 N 0.94354 0.29668 0.82538 0.0
H838 H -0.00672 0.72349 0.16398 0.0
H839 H 0.9737 0.63773 0.97197 0.0
H840 H 0.91941 0.67394 0.15425 0.0
H841 H 0.04529 0.69127 0.97815 0.0
H842 H 0.95389 0.65035 1.03839 0.0
H843 H 0.0128 0.71156 0.09714 0.0
C844 C 0.98108 0.71001 0.14816 0.0
C845 C 0.95436 0.69989 0.16574 0.0
C846 C 0.97392 0.65942 1.02527 0.0
C847 C 0.97701 0.68601 0.08763 0.0
C848 C 0.98534 0.65217 0.98704 0.0
C849 C 0.01142 0.66332 0.96864 0.0
C850 C 0.98852 0.678 0.0461 0.0
C851 C 0.02519 0.68199 0.9905 0.0
C852 C -0.00771 0.70329 0.10956 0.0
C853 C 0.9398 0.68278 0.14248 0.0
N854 N 0.01372 0.68859 1.02763 0.0
N855 N 0.95124 0.67642 0.10522 0.0
H856 H 0.28357 0.36439 0.67662 0.0
H857 H 0.29253 0.31427 0.86064 0.0
H858 H 0.36168 0.40545 0.69122 0.0
H859 H 0.35404 0.37807 0.87088 0.0
H860 H 0.27489 0.34373 0.80476 0.0
H861 H 0.26766 0.36907 0.74724 0.0
C862 C 0.29715 0.37485 0.69454 0.0
C863 C 0.32458 0.38313 0.67871 0.0
C864 C 0.29137 0.3523 0.81986 0.0
C865 C 0.30736 0.38702 0.75994 0.0
C866 C 0.30137 0.33527 0.85216 0.0
C867 C 0.32503 0.34365 0.86949 0.0
C868 C 0.30615 0.37724 0.80382 0.0
C869 C 0.33592 0.37086 0.85763 0.0
C870 C 0.28819 0.3773 0.73505 0.0
C871 C 0.34072 0.39785 0.70249 0.0
N872 N 0.32699 0.38638 0.82452 0.0
N873 N 0.33224 0.39851 0.7423 0.0
H874 H 0.31556 0.66664 0.50071 0.0
H875 H 0.34204 0.55094 0.35179 0.0
H876 H 0.34045 0.58049 0.53757 0.0
H877 H 0.31045 0.63522 0.31844 0.0
H878 H 0.32944 0.55704 0.42298 0.0
H879 H 0.30084 0.65155 0.43868 0.0
C880 C 0.31722 0.64438 0.49632 0.0
C881 C 0.33006 0.62496 0.52379 0.0
C882 C 0.32461 0.57394 0.40003 0.0
C883 C 0.31399 0.60766 0.45225 0.0
C884 C 0.33188 0.57047 0.3594 0.0
C885 C 0.32796 0.59284 0.32919 0.0
C886 C 0.31377 0.60013 0.41045 0.0
C887 C 0.31409 0.61743 0.34065 0.0
C888 C 0.30896 0.63577 0.46068 0.0
C889 C 0.33158 0.59637 0.51646 0.0
N890 N 0.3081 0.62066 0.3804 0.0
N891 N 0.3243 0.5887 0.48095 0.0
H892 H 0.14735 0.60594 0.25991 0.0
H893 H 0.1088 0.58407 1.03889 0.0
H894 H 0.06278 0.5921 0.2302 0.0
H895 H 0.18031 0.63262 0.06235 0.0
H896 H 0.09833 0.57099 0.11162 0.0
H897 H 0.16541 0.59952 0.19039 0.0
C898 C 0.13269 0.60067 0.23904 0.0
C899 C 0.10352 0.59973 0.25052 0.0
C900 C 0.11665 0.584 0.10075 0.0
C901 C 0.12398 0.59264 0.17132 0.0
C902 C 0.12278 0.59132 0.0593 0.0
C903 C 0.14535 0.60966 0.04473 0.0
C904 C 0.13328 0.59496 0.12769 0.0
C905 C 0.16253 0.61874 0.07251 0.0
C906 C 0.14299 0.59724 0.19941 0.0
C907 C 0.08538 0.59324 0.22227 0.0
N908 N 0.15598 0.6115 0.11283 0.0
N909 N 0.09589 0.59019 0.18374 0.0
H910 H 0.16305 0.34275 0.91027 0.0
H911 H 0.09147 0.424 0.08237 0.0
H912 H 0.12595 0.42635 0.89498 0.0
H913 H 0.09998 0.33356 0.08137 0.0
H914 H 0.12847 0.43104 1.02564 0.0
H915 H 0.16643 0.3478 0.9812 0.0
C916 C 0.1567 0.36272 0.92128 0.0
C917 C 0.14289 0.38367 0.89715 0.0
C918 C 0.12317 0.40967 1.03907 0.0
C919 C 0.14607 0.38906 0.97852 0.0
C920 C 0.10214 0.40566 0.07134 0.0
C921 C 0.09263 0.37821 0.08555 0.0
C922 C 0.13435 0.38597 1.02127 0.0
C923 C 0.10668 0.35504 0.07049 0.0
C924 C 0.15857 0.3655 0.96197 0.0
C925 C 0.1355 0.40915 0.91314 0.0
N926 N 0.1266 0.35945 1.03856 0.0
N927 N 0.13632 0.41081 0.95329 0.0
H928 H 0.0256 0.3179 0.25354 0.0
H929 H 0.0668 0.1719 0.20671 0.0
H930 H 0.06676 0.28976 0.14409 0.0
H931 H -0.00974 0.20411 0.26591 0.0
H932 H 0.09292 0.211 0.22592 0.0
H933 H 0.04554 0.27768 0.29274 0.0
C934 C 0.03938 0.30356 0.23771 0.0
C935 C 0.04253 0.30542 0.19522 0.0
C936 C 0.07068 0.20876 0.23635 0.0
C937 C 0.06477 0.25967 0.23996 0.0
C938 C 0.05549 0.18687 0.22456 0.0
C939 C 0.02588 0.18624 0.232 0.0
C940 C 0.05589 0.23056 0.25406 0.0
C941 C 0.01274 0.20518 0.25693 0.0
C942 C 0.05135 0.28103 0.26036 0.0
C943 C 0.06198 0.28758 0.17665 0.0
N944 N 0.02783 0.22709 0.26645 0.0
N945 N 0.07206 0.26484 0.19925 0.0
H946 H 0.93134 0.76124 0.53429 0.0
H947 H 0.06919 0.81242 0.43123 0.0
H948 H 0.9506 0.80877 0.41723 0.0
H949 H 0.0447 0.73408 0.50449 0.0
H950 H 0.03056 0.83664 0.46615 0.0
H951 H 0.97079 0.78344 0.55906 0.0
C952 C 0.94339 0.77703 0.51408 0.0
C953 C 0.93924 0.7816 0.47283 0.0
C954 C 0.03438 0.81444 0.47579 0.0
C955 C 0.98486 0.80577 0.50055 0.0
C956 C 0.0559 0.80031 0.45513 0.0
C957 C 0.05838 0.77063 0.46268 0.0
C958 C 0.01469 0.79848 0.50259 0.0
C959 C 0.04195 0.75654 0.49558 0.0
C960 C 0.96562 0.79013 0.52853 0.0
C961 C 0.95467 0.80297 0.44842 0.0
N962 N 0.02026 0.77055 0.51393 0.0
N963 N 0.97742 0.81399 0.4625 0.0
H964 H 0.51123 0.71077 0.61661 0.0
H965 H 0.5888 0.80193 0.70706 0.0
H966 H 0.52957 0.6942 0.74112 0.0
H967 H 0.59667 0.79812 0.57819 0.0
H968 H 0.5952 0.75091 0.71732 0.0
H969 H 0.55809 0.73052 0.59894 0.0
C970 C 0.52501 0.71171 0.64037 0.0
C971 C 0.51614 0.70186 0.68062 0.0
C972 C 0.59643 0.76119 0.68654 0.0
C973 C 0.57015 0.72449 0.66079 0.0
C974 C 0.59253 0.79044 0.68079 0.0
C975 C 0.58845 0.80335 0.64197 0.0
C976 C 0.59306 0.74574 0.65378 0.0
C977 C 0.59633 0.78815 0.60903 0.0
C978 C 0.55216 0.72231 0.63017 0.0
C979 C 0.5353 0.7025 0.70989 0.0
N980 N 0.59754 0.75947 0.61563 0.0
N981 N 0.56121 0.7141 0.69954 0.0
H982 H 0.53488 0.25821 0.84649 0.0
H983 H 0.44243 0.33759 0.96743 0.0
H984 H 0.55354 0.27923 0.96348 0.0
H985 H 0.44116 0.34147 0.83813 0.0
H986 H 0.49342 0.34182 0.95817 0.0
H987 H 0.51203 0.30395 0.8344 0.0
C988 C 0.5338 0.27233 0.8699 0.0
C989 C 0.54486 0.26438 0.90684 0.0
C990 C 0.48207 0.34274 0.93147 0.0
C991 C 0.51874 0.31706 0.89331 0.0
C992 C 0.45282 0.34024 0.9369 0.0
C993 C 0.43824 0.33578 0.90375 0.0
C994 C 0.49589 0.33843 0.89345 0.0
C995 C 0.45221 0.3419 0.86488 0.0
C996 C 0.52136 0.29885 0.86263 0.0
C997 C 0.54415 0.28409 0.93524 0.0
N998 N 0.4808 0.34179 0.86062 0.0
N999 N 0.53074 0.30927 0.92826 0.0
H1000 H 0.94977 0.77799 0.93897 0.0
H1001 H 0.0717 0.7375 0.79522 0.0
H1002 H 0.03831 0.79721 0.93891 0.0
H1003 H 0.98606 0.70935 0.79455 0.0
H1004 H 0.05387 0.78198 0.81701 0.0
H1005 H 0.9582 0.76989 0.86814 0.0
C1006 C 0.97109 0.78009 0.92429 0.0
C1007 C -0.00652 0.78795 0.94511 0.0
C1008 C 0.03888 0.76655 0.81057 0.0
C1009 C 0.00302 0.77957 0.86364 0.0
C1010 C 0.04909 0.74108 0.798 0.0
C1011 C 0.03015 0.71867 0.79829 0.0
C1012 C 0.01018 0.76819 0.82471 0.0
C1013 C 0.00136 0.72529 0.7984 0.0
C1014 C 0.97571 0.77616 0.88355 0.0
C1015 C 0.02046 0.79086 0.9243 0.0
N1016 N -0.0081 0.74919 0.81395 0.0
N1017 N 0.02446 0.78658 0.88479 0.0
H1018 H 0.54005 0.79454 0.15574 0.0
H1019 H 0.4844 0.65931 0.09038 0.0
H1020 H 0.53755 0.70923 0.21712 0.0
H1021 H 0.46825 0.74341 1.03374 0.0
H1022 H 0.52989 0.67543 0.10624 0.0
H1023 H 0.53364 0.77531 0.09241 0.0
C1024 C 0.53788 0.77181 0.15603 0.0
C1025 C 0.5392 0.75343 0.19184 0.0
C1026 C 0.51683 0.6902 0.08902 0.0
C1027 C 0.53277 0.73138 0.11942 0.0
C1028 C 0.49086 0.68092 0.07985 0.0
C1029 C 0.47153 0.70097 0.06487 0.0
C1030 C 0.52182 0.71958 0.08519 0.0
C1031 C 0.48171 0.72794 0.04891 0.0
C1032 C 0.53496 0.76085 0.1197 0.0
C1033 C 0.53661 0.72421 0.19032 0.0
N1034 N 0.50585 0.73713 0.06143 0.0
N1035 N 0.53341 0.71416 0.15478 0.0
H1036 H 0.49181 0.21756 0.28445 0.0
H1037 H 0.53761 0.2944 0.45147 0.0
H1038 H 0.57846 0.23313 0.30214 0.0
H1039 H 0.45124 0.28809 0.42381 0.0
H1040 H 0.55367 0.28542 0.38307 0.0
H1041 H 0.47842 0.262 0.31051 0.0
C1042 C 0.50833 0.23099 0.29198 0.0
C1043 C 0.53577 0.22055 0.29562 0.0
C1044 C 0.53116 0.28632 0.39164 0.0
C1045 C 0.52057 0.27016 0.32647 0.0
C1046 C 0.52198 0.29078 0.43111 0.0
C1047 C 0.49305 0.29166 0.44357 0.0
C1048 C 0.51132 0.28209 0.36444 0.0
C1049 C 0.4738 0.28718 0.41569 0.0
C1050 C 0.50059 0.25635 0.3073 0.0
C1051 C 0.55652 0.23955 0.30254 0.0
N1052 N 0.48331 0.28242 0.37745 0.0
N1053 N 0.54833 0.26313 0.31985 0.0
H1054 H 0.05261 0.19429 0.7013 0.0
H1055 H 0.96538 0.25137 0.53601 0.0
H1056 H 0.03192 0.28184 0.66566 0.0
H1057 H 0.97859 0.16284 0.57504 0.0
H1058 H 0.01299 0.26141 0.55053 0.0
H1059 H 0.04555 0.18315 0.63386 0.0
C1060 C 0.04642 0.21115 0.67937 0.0
C1061 C 0.04239 0.23892 0.68944 0.0
C1062 C 0.00594 0.23955 0.55447 0.0
C1063 C 0.034 0.22624 0.61199 0.0
C1064 C 0.97866 0.23377 0.54612 0.0
C1065 C 0.96729 0.20674 0.55892 0.0
C1066 C 0.02046 0.21831 0.57708 0.0
C1067 C 0.98595 0.18454 0.56861 0.0
C1068 C 0.04295 0.20489 0.64057 0.0
C1069 C 0.03457 0.25997 0.65961 0.0
N1070 N 0.01163 0.19093 0.57924 0.0
N1071 N 0.03022 0.25309 0.62243 0.0
H1072 H 0.96395 0.0795 0.07391 0.0
H1073 H 0.93994 0.91136 0.10153 0.0
H1074 H 0.94499 0.02893 0.18878 0.0
H1075 H 0.98812 0.95402 0.99621 0.0
H1076 H 0.9322 0.9566 0.12835 0.0
H1077 H 0.96321 0.03602 1.03987 0.0
C1078 C 0.95888 0.05938 0.0918 0.0
C1079 C 0.95448 0.0577 0.13418 0.0
C1080 C 0.94436 0.95616 0.09927 0.0
C1081 C 0.9538 0.00823 0.09575 0.0
C1082 C 0.94876 0.93026 0.08375 0.0
C1083 C 0.96489 0.92871 0.04649 0.0
C1084 C 0.95603 0.981 0.07755 0.0
C1085 C 0.97576 0.95413 1.02517 0.0
C1086 C 0.95879 0.03461 0.07245 0.0
C1087 C 0.94851 0.03112 0.15606 0.0
N1088 N 0.97121 0.97927 1.04106 0.0
N1089 N 0.9484 0.00749 0.13665 0.0
H1090 H 0.17054 0.67718 0.29357 0.0
H1091 H 0.31913 0.7419 0.2 0.0
H1092 H 0.21934 0.73445 0.35097 0.0
H1093 H 0.29555 0.65866 0.17451 0.0
H1094 H 0.2775 0.74259 0.24823 0.0
H1095 H 0.21178 0.67205 0.24384 0.0
C1096 C 0.18984 0.68846 0.296 0.0
C1097 C 0.19128 0.7064 0.32654 0.0
C1098 C 0.28136 0.72413 0.23213 0.0
C1099 C 0.23805 0.70103 0.26954 0.0
C1100 C 0.3051 0.72377 0.2043 0.0
C1101 C 0.31101 0.70014 0.18313 0.0
C1102 C 0.2629 0.70085 0.23881 0.0
C1103 C 0.29191 0.67726 0.19033 0.0
C1104 C 0.21331 0.68551 0.26764 0.0
C1105 C 0.21692 0.72047 0.32809 0.0
N1106 N 0.26859 0.67819 0.2175 0.0
N1107 N 0.23899 0.7177 0.29991 0.0
H1108 H 0.5796 0.06549 0.4396 0.0
H1109 H 0.48532 0.93829 0.55563 0.0
H1110 H 0.49283 0.0531 0.41873 0.0
H1111 H 0.55859 0.96905 0.60384 0.0
H1112 H 0.48897 0.97842 0.5028 0.0
H1113 H 0.57453 0.02733 0.49595 0.0
C1114 C 0.55964 0.0545 0.44646 0.0
C1115 C 0.53667 0.06241 0.42425 0.0
C1116 C 0.5041 0.97655 0.52516 0.0
C1117 C 0.5306 0.01897 0.48887 0.0
C1118 C 0.50196 0.95368 0.55555 0.0
C1119 C 0.52183 0.95004 0.58417 0.0
C1120 C 0.52652 -0.00419 0.52286 0.0
C1121 C 0.54286 0.97083 0.58236 0.0
C1122 C 0.55665 0.03295 0.47893 0.0
C1123 C 0.51111 0.04772 0.43499 0.0
N1124 N 0.54493 -0.00743 0.55186 0.0
N1125 N 0.50881 0.02668 0.46635 0.0
H1126 H 0.27457 0.27895 0.94379 0.0
H1127 H 0.19934 0.22335 0.76313 0.0
H1128 H 0.31477 0.22231 0.86302 0.0
H1129 H 0.16451 0.28787 0.83518 0.0
H1130 H 0.24049 0.22003 0.80203 0.0
H1131 H 0.232 0.27831 0.90869 0.0
C1132 C 0.27433 0.26591 0.91923 0.0
C1133 C 0.29848 0.25083 0.90626 0.0
C1134 C 0.22385 0.23496 0.8092 0.0
C1135 C 0.24979 0.2504 0.86538 0.0
C1136 C 0.2004 0.23699 0.78684 0.0
C1137 C 0.17837 0.25598 0.79571 0.0
C1138 C 0.22526 0.25191 0.84084 0.0
C1139 C 0.18093 0.27298 0.82702 0.0
C1140 C 0.25004 0.26578 0.8989 0.0
C1141 C 0.29677 0.23439 0.87408 0.0
N1142 N 0.20385 0.27047 0.84846 0.0
N1143 N 0.27297 0.23482 0.85455 0.0
H1144 H 0.70451 0.24232 0.83338 0.0
H1145 H 0.79612 0.15398 0.67614 0.0
H1146 H 0.67535 0.16197 0.80414 0.0
H1147 H 0.81022 0.24143 0.69287 0.0
H1148 H 0.7543 0.15339 0.72598 0.0
H1149 H 0.74625 0.23863 0.7867 0.0
C1150 C 0.70689 0.22374 0.81722 0.0
C1151 C 0.68608 0.20256 0.82257 0.0
C1152 C 0.7666 0.17265 0.71855 0.0
C1153 C 0.73443 0.19828 0.76812 0.0
C1154 C 0.79048 0.17302 0.69016 0.0
C1155 C 0.80688 0.19778 0.68027 0.0
C1156 C 0.75923 0.19715 0.73732 0.0
C1157 C 0.79837 0.22183 0.69927 0.0
C1158 C 0.73085 0.22169 0.79033 0.0
C1159 C 0.6908 0.17884 0.80097 0.0
N1160 N 0.77536 0.22084 0.72679 0.0
N1161 N 0.71444 0.1774 0.77445 0.0
H1162 H 0.80386 0.71509 0.36991 0.0
H1163 H 0.66574 0.80804 0.32903 0.0
H1164 H 0.77868 0.78651 0.43478 0.0
H1165 H 0.69421 0.73818 0.26286 0.0
H1166 H 0.70698 0.80134 0.36749 0.0
H1167 H 0.7631 0.72316 0.33152 0.0
C1168 C 0.78962 0.73234 0.37646 0.0
C1169 C 0.7948 0.75011 0.40583 0.0
C1170 C 0.70426 0.7876 0.34439 0.0
C1171 C 0.74796 0.75972 0.36121 0.0
C1172 C 0.68077 0.79149 0.32222 0.0
C1173 C 0.67635 0.77356 0.29267 0.0
C1174 C 0.72345 0.76558 0.33708 0.0
C1175 C 0.69662 0.75251 0.2853 0.0
C1176 C 0.76635 0.73703 0.35426 0.0
C1177 C 0.77549 0.77213 0.41269 0.0
N1178 N 0.71912 0.74902 0.30748 0.0
N1179 N 0.75299 0.77639 0.39043 0.0
H1180 H 0.50102 0.56845 0.59311 0.0
H1181 H 0.42488 0.42161 0.58481 0.0
H1182 H 0.4172 0.55168 0.65203 0.0
H1183 H 0.49566 0.45301 0.5016 0.0
H1184 H 0.42093 0.46798 0.61066 0.0
H1185 H 0.49887 0.52546 0.56049 0.0
C1186 C 0.48204 0.55567 0.59914 0.0
C1187 C 0.45936 0.5635 0.62574 0.0
C1188 C 0.43709 0.46475 0.58644 0.0
C1189 C 0.45682 0.51376 0.58833 0.0
C1190 C 0.43941 0.43826 0.57161 0.0
C1191 C 0.46074 0.43322 0.54097 0.0
C1192 C 0.45645 0.48626 0.57089 0.0
C1193 C 0.47897 0.45569 0.5253 0.0
C1194 C 0.48079 0.53112 0.58028 0.0
C1195 C 0.43517 0.54633 0.63182 0.0
N1196 N 0.47654 0.48103 0.54066 0.0
N1197 N 0.43465 0.52195 0.61366 0.0
H1198 H 0.02829 0.54102 0.89169 0.0
H1199 H 0.05358 0.46742 0.11357 0.0
H1200 H 0.07968 0.57934 0.97032 0.0
H1201 H 0.98992 0.44146 1.04163 0.0
H1202 H 0.06589 0.50705 0.06106 0.0
H1203 H 0.01781 0.50188 0.94484 0.0
C1204 C 0.03769 0.54107 0.91994 0.0
C1205 C 0.05484 0.56364 0.92646 0.0
C1206 C 0.0491 0.49274 0.05704 0.0
C1207 C 0.04257 0.51882 0.98799 0.0
C1208 C 0.0419 0.47021 0.08715 0.0
C1209 C 0.02057 0.45096 0.08231 0.0
C1210 C 0.03506 0.49593 1.02164 0.0
C1211 C 0.00648 0.4556 0.04702 0.0
C1212 C 0.03149 0.51877 0.95049 0.0
C1213 C 0.06629 0.56246 0.96392 0.0
N1214 N 0.01407 0.47739 1.01813 0.0
N1215 N 0.05989 0.54049 0.9933 0.0
H1216 H 0.05481 0.12619 0.37252 0.0
H1217 H 0.14152 0.09794 0.56601 0.0
H1218 H 0.11833 0.06075 0.38329 0.0
H1219 H 0.0651 0.14782 0.56326 0.0
H1220 H 0.13529 0.08547 0.49817 0.0
H1221 H 0.06043 0.13617 0.44125 0.0
C1222 C 0.07015 0.11407 0.38931 0.0
C1223 C 0.08637 0.09281 0.37206 0.0
C1224 C 0.11981 0.09897 0.51257 0.0
C1225 C 0.0927 0.10392 0.4511 0.0
C1226 C 0.1234 0.10618 0.55115 0.0
C1227 C 0.10378 0.12391 0.57025 0.0
C1228 C 0.09661 0.10988 0.49281 0.0
C1229 C 0.08056 0.13383 0.54984 0.0
C1230 C 0.07317 0.11961 0.42869 0.0
C1231 C 0.10545 0.07732 0.39553 0.0
N1232 N 0.07774 0.12683 0.51214 0.0
N1233 N 0.10823 0.0833 0.43385 0.0
H1234 H 0.16516 0.8754 0.57657 0.0
H1235 H 0.09454 0.80916 0.7942 0.0
H1236 H 0.12632 0.79275 0.60115 0.0
H1237 H 0.12393 0.89557 0.77029 0.0
H1238 H 0.1107 0.80158 0.72472 0.0
H1239 H 0.15501 0.88204 0.64851 0.0
C1240 C 0.1547 0.85861 0.59714 0.0
C1241 C 0.14623 0.83366 0.58279 0.0
C1242 C 0.11372 0.82223 0.73454 0.0
C1243 C 0.13461 0.84103 0.66483 0.0
C1244 C 0.10432 0.82658 0.77419 0.0
C1245 C 0.1074 0.85315 0.78783 0.0
C1246 C 0.12641 0.84462 0.70806 0.0
C1247 C 0.12111 0.87475 0.76097 0.0
C1248 C 0.14881 0.86244 0.6381 0.0
C1249 C 0.13271 0.81258 0.61071 0.0
N1250 N 0.12993 0.87009 0.72222 0.0
N1251 N 0.12728 0.81678 0.65023 0.0
H1252 H 0.38615 0.7614 0.86316 0.0
H1253 H 0.45424 0.89011 0.71427 0.0
H1254 H 0.38324 0.84927 0.88611 0.0
H1255 H 0.46799 0.80246 0.69473 0.0
H1256 H 0.41705 0.87563 0.76769 0.0
H1257 H 0.40542 0.77623 0.79345 0.0
C1258 C 0.38918 0.78382 0.85347 0.0
C1259 C 0.38369 0.80405 0.88097 0.0
C1260 C 0.42782 0.8595 0.75141 0.0
C1261 C 0.40533 0.8211 0.80113 0.0
C1262 C 0.44904 0.86778 0.72089 0.0
C1263 C 0.46449 0.84736 0.70076 0.0
C1264 C 0.42238 0.83052 0.76253 0.0
C1265 C 0.45665 0.81879 0.70988 0.0
C1266 C 0.40002 0.79224 0.8136 0.0
C1267 C 0.38717 0.83283 0.86627 0.0
N1268 N 0.43647 0.8111 0.74085 0.0
N1269 N 0.39814 0.84042 0.8276 0.0
H1270 H 0.49121 0.13013 0.11342 0.0
H1271 H 0.36613 0.18984 0.98972 0.0
H1272 H 0.40234 0.11668 0.14977 0.0
H1273 H 0.45272 0.21612 0.96012 0.0
H1274 H 0.38161 0.14969 1.03451 0.0
H1275 H 0.4797 0.14834 0.0455 0.0
C1276 C 0.46932 0.13049 0.10699 0.0
C1277 C 0.4476 0.12281 0.13784 0.0
C1278 C 0.39737 0.16382 1.01768 0.0
C1279 C 0.43445 0.14316 0.06014 0.0
C1280 C 0.38853 0.18669 0.99213 0.0
C1281 C 0.40821 0.20642 0.97209 0.0
C1282 C 0.42603 0.16119 1.02414 0.0
C1283 C 0.43697 0.20137 0.97552 0.0
C1284 C 0.46283 0.14074 0.06813 0.0
C1285 C 0.4198 0.12264 0.12729 0.0
N1286 N 0.44504 0.17954 1.00206 0.0
N1287 N 0.414 0.13323 0.08956 0.0
H1288 H 0.85433 0.80264 0.75035 0.0
H1289 H 0.98823 0.8501 0.85809 0.0
H1290 H 0.93906 0.80791 0.69101 0.0
H1291 H 0.90445 0.83921 0.91946 0.0
H1292 H 0.97051 0.83671 0.79638 0.0
H1293 H 0.872 0.81738 0.81116 0.0
C1294 C 0.87665 0.80698 0.74974 0.0
C1295 C 0.89499 0.80394 0.71461 0.0
C1296 C 0.95588 0.83747 0.82318 0.0
C1297 C 0.9157 0.82099 0.78565 0.0
C1298 C 0.966 0.84535 0.85866 0.0
C1299 C 0.94793 0.84611 0.89464 0.0
C1300 C 0.92727 0.83027 0.82298 0.0
C1301 C 0.91934 0.83925 0.89282 0.0
C1302 C 0.88679 0.81532 0.78489 0.0
C1303 C 0.92388 0.80952 0.71696 0.0
N1304 N 0.91004 0.83164 0.85797 0.0
N1305 N 0.93318 0.81778 0.75144 0.0
H1306 H 0.8781 0.12843 0.51124 0.0
H1307 H 0.98973 0.15019 0.31789 0.0
H1308 H 0.91475 0.21082 0.4732 0.0
H1309 H 0.91261 0.10528 0.31071 0.0
H1310 H 0.96961 0.1656 0.3828 0.0
H1311 H 0.89651 0.11292 0.44556 0.0
C1312 C 0.88967 0.1434 0.4889 0.0
C1313 C 0.89424 0.17124 0.49763 0.0
C1314 C 0.95722 0.15214 0.36717 0.0
C1315 C 0.9168 0.15302 0.42295 0.0
C1316 C 0.96881 0.14306 0.33028 0.0
C1317 C 0.95301 0.12612 0.3087 0.0
C1318 C 0.92986 0.1436 0.38358 0.0
C1319 C 0.9257 0.11813 0.32621 0.0
C1320 C 0.90029 0.13447 0.45148 0.0
C1321 C 0.91004 0.18941 0.4676 0.0
N1322 N 0.91518 0.12661 0.36261 0.0
N1323 N 0.92106 0.17991 0.43209 0.0
H1324 H 0.63737 0.20876 1.03055 0.0
H1325 H 0.53694 0.11716 0.20582 0.0
H1326 H 0.57182 0.15294 1.00616 0.0
H1327 H 0.60874 0.16499 0.22969 0.0
H1328 H 0.54927 0.12997 0.13292 0.0
H1329 H 0.62731 0.19316 0.10327 0.0
C1330 C 0.62108 0.19303 1.04025 0.0
C1331 C 0.60562 0.18215 1.0116 0.0
C1332 C 0.56249 0.13748 0.15407 0.0
C1333 C 0.59362 0.16429 0.09566 0.0
C1334 C 0.55548 0.13005 0.19592 0.0
C1335 C 0.57182 0.13975 0.22452 0.0
C1336 C 0.58603 0.15495 0.14022 0.0
C1337 C 0.59547 0.15674 0.20922 0.0
C1338 C 0.61525 0.18416 0.08198 0.0
C1339 C 0.58448 0.16201 1.02666 0.0
N1340 N 0.60171 0.16381 0.16851 0.0
N1341 N 0.57911 0.15391 0.06726 0.0
H1342 H 0.56669 0.88407 0.94149 0.0
H1343 H 0.60828 0.7543 0.10272 0.0
H1344 H 0.59496 0.80294 0.90571 0.0
H1345 H 0.5977 0.84045 0.13109 0.0
H1346 H 0.60125 0.77053 1.03185 0.0
H1347 H 0.57541 0.86751 1.01102 0.0
C1348 C 0.57494 0.86284 0.94771 0.0
C1349 C 0.58025 0.84526 0.91631 0.0
C1350 C 0.6007 0.78597 0.05345 0.0
C1351 C 0.58981 0.82561 0.99815 0.0
C1352 C 0.60485 0.7767 0.09417 0.0
C1353 C 0.60396 0.79594 0.12357 0.0
C1354 C 0.59523 0.81482 1.04142 0.0
C1355 C 0.59896 0.82468 0.10996 0.0
C1356 C 0.57977 0.85329 0.988 0.0
C1357 C 0.59014 0.81754 0.92806 0.0
N1358 N 0.59468 0.83309 0.07037 0.0
N1359 N 0.59451 0.80871 0.96758 0.0
H1360 H 0.601 0.66131 0.85666 0.0
H1361 H 0.60156 0.6018 0.08901 0.0
H1362 H 0.58382 0.57365 0.90084 0.0
H1363 H 0.63022 0.68539 1.03823 0.0
H1364 H 0.59885 0.58918 1.02025 0.0
H1365 H 0.61554 0.66901 0.92254 0.0
C1366 C 0.60052 0.64364 0.88031 0.0
C1367 C 0.59095 0.61692 0.87364 0.0
C1368 C 0.60605 0.61016 1.02421 0.0
C1369 C 0.60727 0.62552 0.9493 0.0
C1370 C 0.60768 0.61732 0.06339 0.0
C1371 C 0.61564 0.64482 0.06925 0.0
C1372 C 0.6124 0.63071 0.99088 0.0
C1373 C 0.62332 0.66416 1.03507 0.0
C1374 C 0.60889 0.64797 0.91788 0.0
C1375 C 0.59107 0.59458 0.90497 0.0
N1376 N 0.62123 0.65683 0.99744 0.0
N1377 N 0.59872 0.59947 0.94177 0.0
H1378 H 0.59325 0.30164 0.30878 0.0
H1379 H 0.64342 0.36073 0.08111 0.0
H1380 H 0.62338 0.38712 0.27483 0.0
H1381 H 0.63314 0.27147 0.12231 0.0
H1382 H 0.63746 0.37099 0.15154 0.0
H1383 H 0.60861 0.29011 0.24058 0.0
C1384 C 0.60334 0.31789 0.28689 0.0
C1385 C 0.60687 0.34539 0.29715 0.0
C1386 C 0.63675 0.34915 0.14513 0.0
C1387 C 0.62438 0.33254 0.21898 0.0
C1388 C 0.64027 0.34324 0.1049 0.0
C1389 C 0.63846 0.31519 0.09559 0.0
C1390 C 0.63116 0.3269 0.17631 0.0
C1391 C 0.63402 0.29348 0.12784 0.0
C1392 C 0.6122 0.31132 0.24804 0.0
C1393 C 0.62036 0.36565 0.26799 0.0
N1394 N 0.63027 0.29982 0.16664 0.0
N1395 N 0.62832 0.35893 0.22997 0.0
H1396 H 0.92205 0.33576 0.18877 0.0
H1397 H 0.86551 0.37652 0.40656 0.0
H1398 H 0.93971 0.41494 0.23353 0.0
H1399 H 0.86593 0.29187 0.37055 0.0
H1400 H 0.8791 0.39516 0.33615 0.0
H1401 H 0.88713 0.32479 0.24686 0.0
C1402 C 0.91803 0.35125 0.21011 0.0
C1403 C 0.93443 0.37594 0.20692 0.0
C1404 C 0.87568 0.37256 0.34362 0.0
C1405 C 0.89479 0.36331 0.27363 0.0
C1406 C 0.86812 0.36187 0.38384 0.0
C1407 C 0.86521 0.33249 0.39473 0.0
C1408 C 0.88037 0.35375 0.31408 0.0
C1409 C 0.86799 0.31464 0.36375 0.0
C1410 C 0.8982 0.34486 0.24345 0.0
C1411 C 0.92806 0.39531 0.23536 0.0
N1412 N 0.87585 0.32551 0.32497 0.0
N1413 N 0.90913 0.38832 0.26798 0.0
H1414 H 0.96262 0.59636 0.64339 0.0
H1415 H 0.83446 0.67136 0.54217 0.0
H1416 H 0.88082 0.6095 0.70643 0.0
H1417 H 0.91689 0.66088 0.47926 0.0
H1418 H 0.84681 0.63619 0.59668 0.0
H1419 H 0.94247 0.60758 0.57895 0.0
C1420 C 0.94029 0.60117 0.64361 0.0
C1421 C 0.9235 0.60272 0.68025 0.0
C1422 C 0.86201 0.64107 0.57057 0.0
C1423 C 0.90032 0.61568 0.60672 0.0
C1424 C 0.85493 0.66113 0.53934 0.0
C1425 C 0.87499 0.66967 0.50671 0.0
C1426 C 0.88947 0.62981 0.5694 0.0
C1427 C 0.90094 0.65529 0.5042 0.0
C1428 C 0.92877 0.60746 0.60683 0.0
C1429 C 0.89458 0.60832 0.67888 0.0
N1430 N 0.90772 0.63656 0.5357 0.0
N1431 N 0.88402 0.61517 0.64269 0.0
H1432 H 0.48882 0.35915 0.35371 0.0
H1433 H 0.36373 0.30557 0.23505 0.0
H1434 H 0.40375 0.34435 0.4087 0.0
H1435 H 0.44117 0.34112 0.17254 0.0
H1436 H 0.37952 0.31633 0.29891 0.0
H1437 H 0.47343 0.34961 0.28844 0.0
C1438 C 0.46682 0.35423 0.3522 0.0
C1439 C 0.44761 0.35299 0.38734 0.0
C1440 C 0.39309 0.32184 0.27124 0.0
C1441 C 0.42977 0.34135 0.31175 0.0
C1442 C 0.38397 0.31585 0.23422 0.0
C1443 C 0.40073 0.32262 0.1971 0.0
C1444 C 0.41955 0.33451 0.27221 0.0
C1445 C 0.42728 0.3351 0.19966 0.0
C1446 C 0.45805 0.34867 0.31468 0.0
C1447 C 0.41944 0.34601 0.38281 0.0
N1448 N 0.43574 0.34054 0.23617 0.0
N1449 N 0.41153 0.34037 0.34615 0.0
H1450 H 0.36961 0.70195 0.97291 0.0
H1451 H 0.46467 0.6058 0.82707 0.0
H1452 H 0.41852 0.63033 1.01861 0.0
H1453 H 0.40533 0.66908 0.78441 0.0
H1454 H 0.44867 0.6143 0.8971 0.0
H1455 H 0.38294 0.69037 0.90384 0.0
C1456 C 0.38285 0.68358 0.96863 0.0
C1457 C 0.39265 0.66704 1.00218 0.0
C1458 C 0.43903 0.62618 0.87238 0.0
C1459 C 0.40854 0.65376 0.92224 0.0
C1460 C 0.44813 0.62124 0.83224 0.0
C1461 C 0.4364 0.6366 0.79925 0.0
C1462 C 0.41814 0.64682 0.87994 0.0
C1463 C 0.41515 0.65658 0.80841 0.0
C1464 C 0.39058 0.67699 0.92897 0.0
C1465 C 0.41014 0.64368 0.99408 0.0
N1466 N 0.40692 0.66114 0.84747 0.0
N1467 N 0.41757 0.63788 0.95524 0.0
H1468 H 0.13602 0.7383 0.54706 0.0
H1469 H 0.0464 0.62646 0.70574 0.0
H1470 H 0.10303 0.6616 0.51161 0.0
H1471 H 0.11374 0.67466 0.74232 0.0
H1472 H 0.06168 0.64337 0.63455 0.0
H1473 H 0.12312 0.72001 0.61862 0.0
C1474 C 0.12629 0.71758 0.55415 0.0
C1475 C 0.12106 0.70143 0.52277 0.0
C1476 C 0.07323 0.65009 0.65817 0.0
C1477 C 0.10533 0.68063 0.60512 0.0
C1478 C 0.06453 0.64036 0.69895 0.0
C1479 C 0.07899 0.64865 0.73053 0.0
C1480 C 0.09609 0.66907 0.64847 0.0
C1481 C 0.10214 0.66717 0.71932 0.0
C1482 C 0.11889 0.70714 0.59512 0.0
C1483 C 0.10795 0.67481 0.53436 0.0
N1484 N 0.10971 0.67691 0.67958 0.0
N1485 N 0.10035 0.66549 0.57417 0.0
H1486 H 0.06389 0.37808 0.44851 0.0
H1487 H 0.10112 0.24103 0.60197 0.0
H1488 H 0.0678 0.29284 0.41489 0.0
H1489 H 0.09839 0.32648 0.63451 0.0
H1490 H 0.08948 0.2594 0.53378 0.0
H1491 H 0.07607 0.3596 0.51616 0.0
C1492 C 0.06703 0.35545 0.45509 0.0
C1493 C 0.06463 0.33727 0.42488 0.0
C1494 C 0.09167 0.27422 0.55565 0.0
C1495 C 0.07927 0.31565 0.50381 0.0
C1496 C 0.09852 0.26371 0.59483 0.0
C1497 C 0.10112 0.28206 0.62471 0.0
C1498 C 0.08727 0.30353 0.54548 0.0
C1499 C 0.09696 0.31128 0.61296 0.0
C1500 C 0.07427 0.34488 0.49404 0.0
C1501 C 0.06966 0.30809 0.43622 0.0
N1502 N 0.09026 0.32095 0.57474 0.0
N1503 N 0.07662 0.29836 0.47429 0.0
loop_
_geom_bond_atom_site_label_1
_geom_bond_atom_site_label_2
_geom_bond_distance
_geom_bond_site_symmetry_2
_ccdc_geom_bond_type
Tb0 C9 2.764 . S
Tb0 O10 2.325 1_655 S
Tb0 O13 2.284 1_655 S
Tb0 O17 2.322 . S
Tb0 O18 2.349 . S
Tb0 O21 2.415 . S
Tb0 O22 2.399 . S
Tb1 O11 2.322 . S
Tb1 O12 2.349 . S
Tb1 O14 2.415 . S
Tb1 O15 2.399 . S
Tb1 O16 2.325 . S
Tb1 O19 2.303 . S
Tb1 C30 2.764 . S
C2 O18 1.261 1_455 S
C2 O19 1.257 . S
C3 C6 1.358 1_554 S
C3 C7 1.332 1_554 S
C3 C9 1.504 . S
C4 C5 1.373 . S
C4 C8 1.308 . S
C5 C4 1.373 . S
C5 C6 1.429 . S
C5 H32 0.932 . S
C6 C3 1.358 1_556 S
C6 C5 1.429 . S
C6 H33 0.930 1_556 S
C7 C3 1.332 1_556 S
C7 C8 1.394 . S
C7 H34 0.932 . S
C8 C4 1.308 . S
C8 C7 1.394 . S
C8 H35 0.929 . S
C9 Tb0 2.764 . S
C9 C3 1.504 . S
C9 O21 1.239 . S
C9 O22 1.263 . S
O10 Tb0 2.325 1_455 S
O10 C20 1.236 . S
O11 Tb1 2.322 . S
O11 C20 1.257 . S
O12 Tb1 2.349 . S
O12 C23 1.261 . S
O13 Tb0 2.284 1_455 S
O13 C23 1.275 . S
O14 Tb1 2.415 . S
O14 C30 1.239 . S
O15 Tb1 2.399 . S
O15 C30 1.263 . S
O16 Tb1 2.325 . S
O16 C31 1.236 1_455 S
O17 Tb0 2.322 . S
O17 C31 1.257 . S
O18 Tb0 2.349 . S
O18 C2 1.261 1_655 S
O19 Tb1 2.303 . S
O19 C2 1.257 . S
C20 O10 1.236 . S
C20 O11 1.257 . S
O21 Tb0 2.415 . S
O21 C9 1.239 . S
O22 Tb0 2.399 . S
O22 C9 1.263 . S
C23 O12 1.261 . S
C23 O13 1.275 . S
C24 C27 1.358 . S
C24 C28 1.332 . S
C24 C30 1.504 . S
C25 C26 1.373 . S
C25 C29 1.308 . S
C26 C25 1.373 . S
C26 C27 1.429 . S
C26 H36 0.932 . S
C27 C24 1.358 . S
C27 C26 1.429 . S
C27 H37 0.930 . S
C28 C24 1.332 . S
C28 C29 1.394 . S
C28 H38 0.932 . S
C29 C25 1.308 . S
C29 C28 1.394 . S
C29 H39 0.929 . S
C30 Tb1 2.764 . S
C30 O14 1.239 . S
C30 O15 1.263 . S
C30 C24 1.504 . S
C31 O16 1.236 1_655 S
C31 O17 1.257 . S
H32 C5 0.932 . S
H33 C6 0.930 1_554 S
H34 C7 0.932 . S
H35 C8 0.929 . S
H36 C26 0.932 . S
H37 C27 0.930 . S
H38 C28 0.932 . S
H39 C29 0.929 . S
Tb40 C49 2.764 . S
Tb40 O50 2.325 . S
Tb40 O53 2.303 . S
Tb40 O57 2.322 . S
Tb40 O58 2.349 . S
Tb40 O61 2.415 . S
Tb40 O62 2.399 . S
Tb41 O51 2.322 . S
Tb41 O52 2.349 . S
Tb41 O54 2.415 . S
Tb41 O55 2.399 . S
Tb41 O56 2.325 . S
Tb41 O59 2.303 . S
Tb41 C70 2.764 . S
C42 O58 1.261 . S
C42 O59 1.257 . S
C43 C46 1.358 . S
C43 C47 1.332 . S
C43 C49 1.504 . S
C44 C45 1.373 . S
C44 C48 1.308 . S
C45 C44 1.373 . S
C45 C46 1.429 . S
C45 H72 0.932 . S
C46 C43 1.358 . S
C46 C45 1.429 . S
C46 H73 0.930 . S
C47 C43 1.332 . S
C47 C48 1.394 . S
C47 H74 0.932 . S
C48 C44 1.308 . S
C48 C47 1.394 . S
C48 H75 0.929 . S
C49 Tb40 2.764 . S
C49 C43 1.504 . S
C49 O61 1.239 . S
C49 O62 1.263 . S
O50 Tb40 2.325 . S
O50 C60 1.236 . S
O51 Tb41 2.322 . S
O51 C60 1.257 . S
O52 Tb41 2.349 . S
O52 C63 1.261 . S
O53 Tb40 2.303 . S
O53 C63 1.257 . S
O54 Tb41 2.415 . S
O54 C70 1.239 . S
O55 Tb41 2.399 . S
O55 C70 1.263 . S
O56 Tb41 2.325 . S
O56 C71 1.236 . S
O57 Tb40 2.322 . S
O57 C71 1.257 . S
O58 Tb40 2.349 . S
O58 C42 1.261 . S
O59 Tb41 2.303 . S
O59 C42 1.257 . S
C60 O50 1.236 . S
C60 O51 1.257 . S
O61 Tb40 2.415 . S
O61 C49 1.239 . S
O62 Tb40 2.399 . S
O62 C49 1.263 . S
C63 O52 1.261 . S
C63 O53 1.257 . S
C64 C67 1.358 . S
C64 C68 1.332 . S
C64 C70 1.504 . S
C65 C66 1.373 . S
C65 C69 1.308 . S
C66 C65 1.373 . S
C66 C67 1.429 . S
C66 H76 0.932 . S
C67 C64 1.358 . S
C67 C66 1.429 . S
C67 H77 0.930 . S
C68 C64 1.332 . S
C68 C69 1.394 . S
C68 H78 0.932 . S
C69 C65 1.308 . S
C69 C68 1.394 . S
C69 H79 0.929 . S
C70 Tb41 2.764 . S
C70 O54 1.239 . S
C70 O55 1.263 . S
C70 C64 1.504 . S
C71 O56 1.236 . S
C71 O57 1.257 . S
H72 C45 0.932 . S
H73 C46 0.930 . S
H74 C47 0.932 . S
H75 C48 0.929 . S
H76 C66 0.932 . S
H77 C67 0.930 . S
H78 C68 0.932 . S
H79 C69 0.929 . S
Tb80 C89 2.764 . S
Tb80 O90 2.325 . S
Tb80 O93 2.303 . S
Tb80 O97 2.322 . S
Tb80 O98 2.349 . S
Tb80 O101 2.415 . S
Tb80 O102 2.399 . S
Tb81 O91 2.322 . S
Tb81 O92 2.349 . S
Tb81 O94 2.415 . S
Tb81 O95 2.399 . S
Tb81 O96 2.325 . S
Tb81 O99 2.303 . S
Tb81 C110 2.764 . S
C82 O98 1.261 . S
C82 O99 1.257 . S
C83 C86 1.358 . S
C83 C87 1.332 . S
C83 C89 1.504 . S
C84 C85 1.373 . S
C84 C88 1.308 . S
C85 C84 1.373 . S
C85 C86 1.429 . S
C85 H112 0.932 . S
C86 C83 1.358 . S
C86 C85 1.429 . S
C86 H113 0.930 . S
C87 C83 1.332 . S
C87 C88 1.394 . S
C87 H114 0.932 . S
C88 C84 1.308 . S
C88 C87 1.394 . S
C88 H115 0.929 . S
C89 Tb80 2.764 . S
C89 C83 1.504 . S
C89 O101 1.239 . S
C89 O102 1.263 . S
O90 Tb80 2.325 . S
O90 C100 1.236 . S
O91 Tb81 2.322 . S
O91 C100 1.257 . S
O92 Tb81 2.349 . S
O92 C103 1.261 . S
O93 Tb80 2.303 . S
O93 C103 1.257 . S
O94 Tb81 2.415 . S
O94 C110 1.239 . S
O95 Tb81 2.399 . S
O95 C110 1.263 . S
O96 Tb81 2.325 . S
O96 C111 1.236 . S
O97 Tb80 2.322 . S
O97 C111 1.257 . S
O98 Tb80 2.349 . S
O98 C82 1.261 . S
O99 Tb81 2.303 . S
O99 C82 1.257 . S
C100 O90 1.236 . S
C100 O91 1.257 . S
O101 Tb80 2.415 . S
O101 C89 1.239 . S
O102 Tb80 2.399 . S
O102 C89 1.263 . S
C103 O92 1.261 . S
C103 O93 1.257 . S
C104 C107 1.358 . S
C104 C108 1.332 . S
C104 C110 1.504 . S
C105 C106 1.373 . S
C105 C109 1.308 . S
C106 C105 1.373 . S
C106 C107 1.429 . S
C106 H116 0.932 . S
C107 C104 1.358 . S
C107 C106 1.429 . S
C107 H117 0.930 . S
C108 C104 1.332 . S
C108 C109 1.394 . S
C108 H118 0.932 . S
C109 C105 1.308 . S
C109 C108 1.394 . S
C109 H119 0.929 . S
C110 Tb81 2.764 . S
C110 O94 1.239 . S
C110 O95 1.263 . S
C110 C104 1.504 . S
C111 O96 1.236 . S
C111 O97 1.257 . S
H112 C85 0.932 . S
H113 C86 0.930 . S
H114 C87 0.932 . S
H115 C88 0.929 . S
H116 C106 0.932 . S
H117 C107 0.930 . S
H118 C108 0.932 . S
H119 C109 0.929 . S
Tb120 C129 2.764 . S
Tb120 O130 2.325 . S
Tb120 O133 2.303 . S
Tb120 O137 2.322 . S
Tb120 O138 2.349 . S
Tb120 O141 2.415 . S
Tb120 O142 2.399 . S
Tb121 O131 2.322 . S
Tb121 O132 2.349 . S
Tb121 O134 2.415 . S
Tb121 O135 2.399 . S
Tb121 O136 2.325 . S
Tb121 O139 2.303 . S
Tb121 C150 2.764 . S
C122 O138 1.261 . S
C122 O139 1.257 . S
C123 C126 1.358 . S
C123 C127 1.332 . S
C123 C129 1.504 1_554 S
C124 C125 1.373 . S
C124 C128 1.308 . S
C125 C124 1.373 . S
C125 C126 1.429 . S
C125 H152 0.932 . S
C126 C123 1.358 . S
C126 C125 1.429 . S
C126 H153 0.930 . S
C127 C123 1.332 . S
C127 C128 1.394 . S
C127 H154 0.932 . S
C128 C124 1.308 . S
C128 C127 1.394 . S
C128 H155 0.929 . S
C129 Tb120 2.764 . S
C129 C123 1.504 1_556 S
C129 O141 1.239 . S
C129 O142 1.263 . S
O130 Tb120 2.325 . S
O130 C140 1.236 . S
O131 Tb121 2.322 . S
O131 C140 1.257 . S
O132 Tb121 2.349 . S
O132 C143 1.261 . S
O133 Tb120 2.303 . S
O133 C143 1.257 . S
O134 Tb121 2.415 . S
O134 C150 1.239 . S
O135 Tb121 2.399 . S
O135 C150 1.263 . S
O136 Tb121 2.325 . S
O136 C151 1.236 . S
O137 Tb120 2.322 . S
O137 C151 1.257 . S
O138 Tb120 2.349 . S
O138 C122 1.261 . S
O139 Tb121 2.303 . S
O139 C122 1.257 . S
C140 O130 1.236 . S
C140 O131 1.257 . S
O141 Tb120 2.415 . S
O141 C129 1.239 . S
O142 Tb120 2.399 . S
O142 C129 1.263 . S
C143 O132 1.261 . S
C143 O133 1.257 . S
C144 C147 1.358 . S
C144 C148 1.332 . S
C144 C150 1.504 . S
C145 C146 1.373 . S
C145 C149 1.308 . S
C146 C145 1.373 . S
C146 C147 1.429 . S
C146 H156 0.932 . S
C147 C144 1.358 . S
C147 C146 1.429 . S
C147 H157 0.930 . S
C148 C144 1.332 . S
C148 C149 1.394 . S
C148 H158 0.932 . S
C149 C145 1.308 . S
C149 C148 1.394 . S
C149 H159 0.929 . S
C150 Tb121 2.764 . S
C150 O134 1.239 . S
C150 O135 1.263 . S
C150 C144 1.504 . S
C151 O136 1.236 . S
C151 O137 1.257 . S
H152 C125 0.932 . S
H153 C126 0.930 . S
H154 C127 0.932 . S
H155 C128 0.929 . S
H156 C146 0.932 . S
H157 C147 0.930 . S
H158 C148 0.932 . S
H159 C149 0.929 . S
Tb160 C169 2.764 1_556 S
Tb160 O170 2.325 1_655 S
Tb160 O173 2.303 . S
Tb160 O177 2.322 . S
Tb160 O178 2.349 . S
Tb160 O181 2.415 1_556 S
Tb160 O182 2.399 1_556 S
Tb161 O171 2.322 . S
Tb161 O172 2.349 . S
Tb161 O174 2.415 . S
Tb161 O175 2.399 . S
Tb161 O176 2.325 1_455 S
Tb161 O179 2.303 . S
Tb161 C190 2.764 . S
C162 O178 1.261 . S
C162 O179 1.257 1_655 S
C163 C166 1.358 . S
C163 C167 1.332 . S
C163 C169 1.504 . S
C164 C165 1.373 . S
C164 C168 1.308 . S
C165 C164 1.373 . S
C165 C166 1.429 . S
C165 H192 0.932 . S
C166 C163 1.358 . S
C166 C165 1.429 . S
C166 H193 0.930 . S
C167 C163 1.332 . S
C167 C168 1.394 . S
C167 H194 0.932 . S
C168 C164 1.308 . S
C168 C167 1.394 . S
C168 H195 0.929 . S
C169 Tb160 2.764 1_554 S
C169 C163 1.504 . S
C169 O181 1.239 . S
C169 O182 1.263 . S
O170 Tb160 2.325 1_455 S
O170 C180 1.236 . S
O171 Tb161 2.322 . S
O171 C180 1.257 . S
O172 Tb161 2.349 . S
O172 C183 1.261 . S
O173 Tb160 2.303 . S
O173 C183 1.257 1_655 S
O174 Tb161 2.415 . S
O174 C190 1.239 . S
O175 Tb161 2.399 . S
O175 C190 1.263 . S
O176 Tb161 2.325 1_655 S
O176 C191 1.236 . S
O177 Tb160 2.322 . S
O177 C191 1.257 . S
O178 Tb160 2.349 . S
O178 C162 1.261 . S
O179 Tb161 2.303 . S
O179 C162 1.257 1_455 S
C180 O170 1.236 . S
C180 O171 1.257 . S
O181 Tb160 2.415 1_554 S
O181 C169 1.239 . S
O182 Tb160 2.399 1_554 S
O182 C169 1.263 . S
C183 O172 1.261 . S
C183 O173 1.257 1_455 S
C184 C187 1.358 . S
C184 C188 1.332 . S
C184 C190 1.504 . S
C185 C186 1.373 . S
C185 C189 1.308 . S
C186 C185 1.373 . S
C186 C187 1.429 . S
C186 H196 0.932 . S
C187 C184 1.358 . S
C187 C186 1.429 . S
C187 H197 0.930 . S
C188 C184 1.332 . S
C188 C189 1.394 . S
C188 H198 0.932 . S
C189 C185 1.308 . S
C189 C188 1.394 . S
C189 H199 0.929 . S
C190 Tb161 2.764 . S
C190 O174 1.239 . S
C190 O175 1.263 . S
C190 C184 1.504 . S
C191 O176 1.236 . S
C191 O177 1.257 . S
H192 C165 0.932 . S
H193 C166 0.930 . S
H194 C167 0.932 . S
H195 C168 0.929 . S
H196 C186 0.932 . S
H197 C187 0.930 . S
H198 C188 0.932 . S
H199 C189 0.929 . S
Tb200 C209 2.764 . S
Tb200 O210 2.325 . S
Tb200 O213 2.303 . S
Tb200 O217 2.322 . S
Tb200 O218 2.349 . S
Tb200 O221 2.415 . S
Tb200 O222 2.399 . S
Tb201 O211 2.322 . S
Tb201 O212 2.349 . S
Tb201 O214 2.415 1_554 S
Tb201 O215 2.399 1_554 S
Tb201 O216 2.325 . S
Tb201 O219 2.303 . S
Tb201 C230 2.764 1_554 S
C202 O218 1.261 . S
C202 O219 1.257 . S
C203 C206 1.358 . S
C203 C207 1.332 . S
C203 C209 1.504 . S
C204 C205 1.373 . S
C204 C208 1.308 . S
C205 C204 1.373 . S
C205 C206 1.429 . S
C205 H232 0.932 . S
C206 C203 1.358 . S
C206 C205 1.429 . S
C206 H233 0.930 . S
C207 C203 1.332 . S
C207 C208 1.394 . S
C207 H234 0.932 . S
C208 C204 1.308 . S
C208 C207 1.394 . S
C208 H235 0.929 . S
C209 Tb200 2.764 . S
C209 C203 1.504 . S
C209 O221 1.239 . S
C209 O222 1.263 . S
O210 Tb200 2.325 . S
O210 C220 1.236 . S
O211 Tb201 2.322 . S
O211 C220 1.257 . S
O212 Tb201 2.349 . S
O212 C223 1.261 . S
O213 Tb200 2.303 . S
O213 C223 1.257 . S
O214 Tb201 2.415 1_556 S
O214 C230 1.239 . S
O215 Tb201 2.399 1_556 S
O215 C230 1.263 . S
O216 Tb201 2.325 . S
O216 C231 1.236 . S
O217 Tb200 2.322 . S
O217 C231 1.257 . S
O218 Tb200 2.349 . S
O218 C202 1.261 . S
O219 Tb201 2.303 . S
O219 C202 1.257 . S
C220 O210 1.236 . S
C220 O211 1.257 . S
O221 Tb200 2.415 . S
O221 C209 1.239 . S
O222 Tb200 2.399 . S
O222 C209 1.263 . S
C223 O212 1.261 . S
C223 O213 1.257 . S
C224 C227 1.358 . S
C224 C228 1.332 . S
C224 C230 1.504 . S
C225 C226 1.373 . S
C225 C229 1.308 . S
C226 C225 1.373 . S
C226 C227 1.429 . S
C226 H236 0.932 . S
C227 C224 1.358 . S
C227 C226 1.429 . S
C227 H237 0.930 . S
C228 C224 1.332 . S
C228 C229 1.394 . S
C228 H238 0.932 . S
C229 C225 1.308 . S
C229 C228 1.394 . S
C229 H239 0.929 . S
C230 Tb201 2.764 1_556 S
C230 O214 1.239 . S
C230 O215 1.263 . S
C230 C224 1.504 . S
C231 O216 1.236 . S
C231 O217 1.257 . S
H232 C205 0.932 . S
H233 C206 0.930 . S
H234 C207 0.932 . S
H235 C208 0.929 . S
H236 C226 0.932 . S
H237 C227 0.930 . S
H238 C228 0.932 . S
H239 C229 0.929 . S
Tb240 C249 2.764 . S
Tb240 O250 2.325 . S
Tb240 O253 2.303 . S
Tb240 O257 2.322 . S
Tb240 O258 2.349 . S
Tb240 O261 2.415 . S
Tb240 O262 2.399 . S
Tb241 O251 2.322 . S
Tb241 O252 2.349 . S
Tb241 O254 2.415 . S
Tb241 O255 2.399 . S
Tb241 O256 2.325 . S
Tb241 O259 2.303 . S
Tb241 C270 2.764 . S
C242 O258 1.261 . S
C242 O259 1.257 . S
C243 C246 1.358 . S
C243 C247 1.332 . S
C243 C249 1.504 . S
C244 C245 1.373 . S
C244 C248 1.308 . S
C245 C244 1.373 . S
C245 C246 1.429 . S
C245 H272 0.932 . S
C246 C243 1.358 . S
C246 C245 1.429 . S
C246 H273 0.930 . S
C247 C243 1.332 . S
C247 C248 1.394 . S
C247 H274 0.932 . S
C248 C244 1.308 . S
C248 C247 1.394 . S
C248 H275 0.929 . S
C249 Tb240 2.764 . S
C249 C243 1.504 . S
C249 O261 1.239 . S
C249 O262 1.263 . S
O250 Tb240 2.325 . S
O250 C260 1.236 . S
O251 Tb241 2.322 . S
O251 C260 1.257 . S
O252 Tb241 2.349 . S
O252 C263 1.261 . S
O253 Tb240 2.303 . S
O253 C263 1.257 . S
O254 Tb241 2.415 . S
O254 C270 1.239 . S
O255 Tb241 2.399 . S
O255 C270 1.263 . S
O256 Tb241 2.325 . S
O256 C271 1.236 . S
O257 Tb240 2.322 . S
O257 C271 1.257 . S
O258 Tb240 2.349 . S
O258 C242 1.261 . S
O259 Tb241 2.303 . S
O259 C242 1.257 . S
C260 O250 1.236 . S
C260 O251 1.257 . S
O261 Tb240 2.415 . S
O261 C249 1.239 . S
O262 Tb240 2.399 . S
O262 C249 1.263 . S
C263 O252 1.261 . S
C263 O253 1.257 . S
C264 C267 1.358 . S
C264 C268 1.332 . S
C264 C270 1.504 . S
C265 C266 1.373 . S
C265 C269 1.308 . S
C266 C265 1.373 . S
C266 C267 1.429 . S
C266 H276 0.932 . S
C267 C264 1.358 . S
C267 C266 1.429 . S
C267 H277 0.930 . S
C268 C264 1.332 . S
C268 C269 1.394 . S
C268 H278 0.932 . S
C269 C265 1.308 . S
C269 C268 1.394 . S
C269 H279 0.929 . S
C270 Tb241 2.764 . S
C270 O254 1.239 . S
C270 O255 1.263 . S
C270 C264 1.504 . S
C271 O256 1.236 . S
C271 O257 1.257 . S
H272 C245 0.932 . S
H273 C246 0.930 . S
H274 C247 0.932 . S
H275 C248 0.929 . S
H276 C266 0.932 . S
H277 C267 0.930 . S
H278 C268 0.932 . S
H279 C269 0.929 . S
Tb280 C289 2.764 . S
Tb280 O290 2.325 . S
Tb280 O293 2.303 . S
Tb280 O297 2.322 . S
Tb280 O298 2.349 . S
Tb280 O301 2.415 . S
Tb280 O302 2.399 . S
Tb281 O291 2.322 . S
Tb281 O292 2.349 . S
Tb281 O294 2.415 . S
Tb281 O295 2.399 . S
Tb281 O296 2.325 . S
Tb281 O299 2.303 . S
Tb281 C310 2.764 . S
C282 O298 1.261 . S
C282 O299 1.257 . S
C283 C286 1.358 . S
C283 C287 1.332 . S
C283 C289 1.504 . S
C284 C285 1.373 . S
C284 C288 1.308 . S
C285 C284 1.373 . S
C285 C286 1.429 . S
C285 H312 0.932 . S
C286 C283 1.358 . S
C286 C285 1.429 . S
C286 H313 0.930 . S
C287 C283 1.332 . S
C287 C288 1.394 . S
C287 H314 0.932 . S
C288 C284 1.308 . S
C288 C287 1.394 . S
C288 H315 0.929 . S
C289 Tb280 2.764 . S
C289 C283 1.504 . S
C289 O301 1.239 . S
C289 O302 1.263 . S
O290 Tb280 2.325 . S
O290 C300 1.236 . S
O291 Tb281 2.322 . S
O291 C300 1.257 . S
O292 Tb281 2.349 . S
O292 C303 1.261 . S
O293 Tb280 2.303 . S
O293 C303 1.257 . S
O294 Tb281 2.415 . S
O294 C310 1.239 . S
O295 Tb281 2.399 . S
O295 C310 1.263 . S
O296 Tb281 2.325 . S
O296 C311 1.236 . S
O297 Tb280 2.322 . S
O297 C311 1.257 . S
O298 Tb280 2.349 . S
O298 C282 1.261 . S
O299 Tb281 2.303 . S
O299 C282 1.257 . S
C300 O290 1.236 . S
C300 O291 1.257 . S
O301 Tb280 2.415 . S
O301 C289 1.239 . S
O302 Tb280 2.399 . S
O302 C289 1.263 . S
C303 O292 1.261 . S
C303 O293 1.257 . S
C304 C307 1.358 . S
C304 C308 1.332 . S
C304 C310 1.504 . S
C305 C306 1.373 . S
C305 C309 1.308 . S
C306 C305 1.373 . S
C306 C307 1.429 . S
C306 H316 0.932 . S
C307 C304 1.358 . S
C307 C306 1.429 . S
C307 H317 0.930 . S
C308 C304 1.332 . S
C308 C309 1.394 . S
C308 H318 0.932 . S
C309 C305 1.308 . S
C309 C308 1.394 . S
C309 H319 0.929 . S
C310 Tb281 2.764 . S
C310 O294 1.239 . S
C310 O295 1.263 . S
C310 C304 1.504 . S
C311 O296 1.236 . S
C311 O297 1.257 . S
H312 C285 0.932 . S
H313 C286 0.930 . S
H314 C287 0.932 . S
H315 C288 0.929 . S
H316 C306 0.932 . S
H317 C307 0.930 . S
H318 C308 0.932 . S
H319 C309 0.929 . S
Tb320 C329 2.764 . S
Tb320 O330 2.325 . S
Tb320 O333 2.303 . S
Tb320 O337 2.322 . S
Tb320 O338 2.349 . S
Tb320 O341 2.415 . S
Tb320 O342 2.399 . S
Tb321 O331 2.322 . S
Tb321 O332 2.349 . S
Tb321 O334 2.415 . S
Tb321 O335 2.399 . S
Tb321 O336 2.325 . S
Tb321 O339 2.303 . S
Tb321 C350 2.764 . S
C322 O338 1.261 . S
C322 O339 1.257 . S
C323 C326 1.358 . S
C323 C327 1.332 . S
C323 C329 1.504 . S
C324 C325 1.373 . S
C324 C328 1.308 . S
C325 C324 1.373 . S
C325 C326 1.429 . S
C325 H352 0.932 . S
C326 C323 1.358 . S
C326 C325 1.429 . S
C326 H353 0.930 . S
C327 C323 1.332 . S
C327 C328 1.394 . S
C327 H354 0.932 . S
C328 C324 1.308 . S
C328 C327 1.394 . S
C328 H355 0.929 . S
C329 Tb320 2.764 . S
C329 C323 1.504 . S
C329 O341 1.239 . S
C329 O342 1.263 . S
O330 Tb320 2.325 . S
O330 C340 1.236 . S
O331 Tb321 2.322 . S
O331 C340 1.257 . S
O332 Tb321 2.349 . S
O332 C343 1.261 . S
O333 Tb320 2.303 . S
O333 C343 1.257 . S
O334 Tb321 2.415 . S
O334 C350 1.239 . S
O335 Tb321 2.399 . S
O335 C350 1.263 . S
O336 Tb321 2.325 . S
O336 C351 1.236 . S
O337 Tb320 2.322 . S
O337 C351 1.257 . S
O338 Tb320 2.349 . S
O338 C322 1.261 . S
O339 Tb321 2.303 . S
O339 C322 1.257 . S
C340 O330 1.236 . S
C340 O331 1.257 . S
O341 Tb320 2.415 . S
O341 C329 1.239 . S
O342 Tb320 2.399 . S
O342 C329 1.263 . S
C343 O332 1.261 . S
C343 O333 1.257 . S
C344 C347 1.358 . S
C344 C348 1.332 . S
C344 C350 1.504 . S
C345 C346 1.373 . S
C345 C349 1.308 . S
C346 C345 1.373 . S
C346 C347 1.429 . S
C346 H356 0.932 . S
C347 C344 1.358 . S
C347 C346 1.429 . S
C347 H357 0.930 . S
C348 C344 1.332 . S
C348 C349 1.394 . S
C348 H358 0.932 . S
C349 C345 1.308 . S
C349 C348 1.394 . S
C349 H359 0.929 . S
C350 Tb321 2.764 . S
C350 O334 1.239 . S
C350 O335 1.263 . S
C350 C344 1.504 . S
C351 O336 1.236 . S
C351 O337 1.257 . S
H352 C325 0.932 . S
H353 C326 0.930 . S
H354 C327 0.932 . S
H355 C328 0.929 . S
H356 C346 0.932 . S
H357 C347 0.930 . S
H358 C348 0.932 . S
H359 C349 0.929 . S
Tb360 C369 2.764 . S
Tb360 O370 2.325 . S
Tb360 O373 2.303 . S
Tb360 O377 2.322 . S
Tb360 O378 2.349 . S
Tb360 O381 2.415 . S
Tb360 O382 2.399 . S
Tb361 O371 2.322 . S
Tb361 O372 2.349 . S
Tb361 O374 2.415 . S
Tb361 O375 2.399 . S
Tb361 O376 2.325 . S
Tb361 O379 2.303 . S
Tb361 C390 2.764 . S
C362 O378 1.261 . S
C362 O379 1.257 . S
C363 C366 1.358 . S
C363 C367 1.332 . S
C363 C369 1.504 . S
C364 C365 1.373 . S
C364 C368 1.308 . S
C365 C364 1.373 . S
C365 C366 1.429 . S
C365 H392 0.932 . S
C366 C363 1.358 . S
C366 C365 1.429 . S
C366 H393 0.930 . S
C367 C363 1.332 . S
C367 C368 1.394 . S
C367 H394 0.932 . S
C368 C364 1.308 . S
C368 C367 1.394 . S
C368 H395 0.929 . S
C369 Tb360 2.764 . S
C369 C363 1.504 . S
C369 O381 1.239 . S
C369 O382 1.263 . S
O370 Tb360 2.325 . S
O370 C380 1.236 . S
O371 Tb361 2.322 . S
O371 C380 1.257 . S
O372 Tb361 2.349 . S
O372 C383 1.261 . S
O373 Tb360 2.303 . S
O373 C383 1.257 . S
O374 Tb361 2.415 . S
O374 C390 1.239 . S
O375 Tb361 2.399 . S
O375 C390 1.263 . S
O376 Tb361 2.325 . S
O376 C391 1.236 . S
O377 Tb360 2.322 . S
O377 C391 1.257 . S
O378 Tb360 2.349 . S
O378 C362 1.261 . S
O379 Tb361 2.303 . S
O379 C362 1.257 . S
C380 O370 1.236 . S
C380 O371 1.257 . S
O381 Tb360 2.415 . S
O381 C369 1.239 . S
O382 Tb360 2.399 . S
O382 C369 1.263 . S
C383 O372 1.261 . S
C383 O373 1.257 . S
C384 C387 1.358 . S
C384 C388 1.332 . S
C384 C390 1.504 . S
C385 C386 1.373 1_556 S
C385 C389 1.308 . S
C386 C385 1.373 1_554 S
C386 C387 1.429 . S
C386 H396 0.932 . S
C387 C384 1.358 . S
C387 C386 1.429 . S
C387 H397 0.930 . S
C388 C384 1.332 . S
C388 C389 1.394 1_554 S
C388 H398 0.932 . S
C389 C385 1.308 . S
C389 C388 1.394 1_556 S
C389 H399 0.929 . S
C390 Tb361 2.764 . S
C390 O374 1.239 . S
C390 O375 1.263 . S
C390 C384 1.504 . S
C391 O376 1.236 . S
C391 O377 1.257 . S
H392 C365 0.932 . S
H393 C366 0.930 . S
H394 C367 0.932 . S
H395 C368 0.929 . S
H396 C386 0.932 . S
H397 C387 0.930 . S
H398 C388 0.932 . S
H399 C389 0.929 . S
Tb400 C409 2.764 . S
Tb400 O410 2.325 . S
Tb400 O413 2.303 . S
Tb400 O417 2.322 . S
Tb400 O418 2.349 . S
Tb400 O421 2.415 . S
Tb400 O422 2.399 . S
Tb401 O411 2.322 . S
Tb401 O412 2.349 . S
Tb401 O414 2.415 . S
Tb401 O415 2.399 . S
Tb401 O416 2.325 . S
Tb401 O419 2.303 . S
Tb401 C430 2.764 . S
C402 O418 1.261 . S
C402 O419 1.257 . S
C403 C406 1.358 . S
C403 C407 1.332 . S
C403 C409 1.504 . S
C404 C405 1.373 . S
C404 C408 1.308 . S
C405 C404 1.373 . S
C405 C406 1.429 . S
C405 H432 0.932 . S
C406 C403 1.358 . S
C406 C405 1.429 . S
C406 H433 0.930 . S
C407 C403 1.332 . S
C407 C408 1.394 . S
C407 H434 0.932 . S
C408 C404 1.308 . S
C408 C407 1.394 . S
C408 H435 0.929 . S
C409 Tb400 2.764 . S
C409 C403 1.504 . S
C409 O421 1.239 . S
C409 O422 1.263 . S
O410 Tb400 2.325 . S
O410 C420 1.236 . S
O411 Tb401 2.322 . S
O411 C420 1.257 . S
O412 Tb401 2.349 . S
O412 C423 1.261 . S
O413 Tb400 2.303 . S
O413 C423 1.257 . S
O414 Tb401 2.415 . S
O414 C430 1.239 . S
O415 Tb401 2.399 . S
O415 C430 1.263 . S
O416 Tb401 2.325 . S
O416 C431 1.236 . S
O417 Tb400 2.322 . S
O417 C431 1.257 . S
O418 Tb400 2.349 . S
O418 C402 1.261 . S
O419 Tb401 2.303 . S
O419 C402 1.257 . S
C420 O410 1.236 . S
C420 O411 1.257 . S
O421 Tb400 2.415 . S
O421 C409 1.239 . S
O422 Tb400 2.399 . S
O422 C409 1.263 . S
C423 O412 1.261 . S
C423 O413 1.257 . S
C424 C427 1.358 . S
C424 C428 1.332 1_556 S
C424 C430 1.504 . S
C425 C426 1.373 . S
C425 C429 1.308 . S
C426 C425 1.373 . S
C426 C427 1.429 1_554 S
C426 H436 0.932 . S
C427 C424 1.358 . S
C427 C426 1.429 1_556 S
C427 H437 0.930 . S
C428 C424 1.332 1_554 S
C428 C429 1.394 . S
C428 H438 0.932 . S
C429 C425 1.308 . S
C429 C428 1.394 . S
C429 H439 0.929 . S
C430 Tb401 2.764 . S
C430 O414 1.239 . S
C430 O415 1.263 . S
C430 C424 1.504 . S
C431 O416 1.236 . S
C431 O417 1.257 . S
H432 C405 0.932 . S
H433 C406 0.930 . S
H434 C407 0.932 . S
H435 C408 0.929 . S
H436 C426 0.932 . S
H437 C427 0.930 . S
H438 C428 0.932 . S
H439 C429 0.929 . S
Tb440 C449 2.764 . S
Tb440 O450 2.325 . S
Tb440 O453 2.303 . S
Tb440 O457 2.322 . S
Tb440 O458 2.349 . S
Tb440 O461 2.415 . S
Tb440 O462 2.399 . S
Tb441 O451 2.322 . S
Tb441 O452 2.349 . S
Tb441 O454 2.415 . S
Tb441 O455 2.399 . S
Tb441 O456 2.325 . S
Tb441 O459 2.303 . S
Tb441 C470 2.764 . S
C442 O458 1.261 . S
C442 O459 1.257 . S
C443 C446 1.358 . S
C443 C447 1.332 . S
C443 C449 1.504 . S
C444 C445 1.373 . S
C444 C448 1.308 . S
C445 C444 1.373 . S
C445 C446 1.429 . S
C445 H472 0.932 . S
C446 C443 1.358 . S
C446 C445 1.429 . S
C446 H473 0.930 . S
C447 C443 1.332 . S
C447 C448 1.394 . S
C447 H474 0.932 . S
C448 C444 1.308 . S
C448 C447 1.394 . S
C448 H475 0.929 . S
C449 Tb440 2.764 . S
C449 C443 1.504 . S
C449 O461 1.239 . S
C449 O462 1.263 . S
O450 Tb440 2.325 . S
O450 C460 1.236 . S
O451 Tb441 2.322 . S
O451 C460 1.257 . S
O452 Tb441 2.349 . S
O452 C463 1.261 . S
O453 Tb440 2.303 . S
O453 C463 1.257 . S
O454 Tb441 2.415 . S
O454 C470 1.239 . S
O455 Tb441 2.399 . S
O455 C470 1.263 . S
O456 Tb441 2.325 . S
O456 C471 1.236 . S
O457 Tb440 2.322 . S
O457 C471 1.257 . S
O458 Tb440 2.349 . S
O458 C442 1.261 . S
O459 Tb441 2.303 . S
O459 C442 1.257 . S
C460 O450 1.236 . S
C460 O451 1.257 . S
O461 Tb440 2.415 . S
O461 C449 1.239 . S
O462 Tb440 2.399 . S
O462 C449 1.263 . S
C463 O452 1.261 . S
C463 O453 1.257 . S
C464 C467 1.358 . S
C464 C468 1.332 . S
C464 C470 1.504 . S
C465 C466 1.373 . S
C465 C469 1.308 . S
C466 C465 1.373 . S
C466 C467 1.429 . S
C466 H476 0.932 . S
C467 C464 1.358 . S
C467 C466 1.429 . S
C467 H477 0.930 . S
C468 C464 1.332 . S
C468 C469 1.394 . S
C468 H478 0.932 . S
C469 C465 1.308 . S
C469 C468 1.394 . S
C469 H479 0.929 . S
C470 Tb441 2.764 . S
C470 O454 1.239 . S
C470 O455 1.263 . S
C470 C464 1.504 . S
C471 O456 1.236 . S
C471 O457 1.257 . S
H472 C445 0.932 . S
H473 C446 0.930 . S
H474 C447 0.932 . S
H475 C448 0.929 . S
H476 C466 0.932 . S
H477 C467 0.930 . S
H478 C468 0.932 . S
H479 C469 0.929 . S
Tb480 C489 2.764 . S
Tb480 O490 2.325 . S
Tb480 O493 2.303 . S
Tb480 O497 2.322 . S
Tb480 O498 2.349 . S
Tb480 O501 2.415 . S
Tb480 O502 2.399 . S
Tb481 O491 2.322 . S
Tb481 O492 2.349 . S
Tb481 O494 2.415 . S
Tb481 O495 2.399 . S
Tb481 O496 2.325 . S
Tb481 O499 2.303 . S
Tb481 C510 2.764 . S
C482 O498 1.261 . S
C482 O499 1.257 . S
C483 C486 1.358 . S
C483 C487 1.332 . S
C483 C489 1.504 . S
C484 C485 1.373 . S
C484 C488 1.308 . S
C485 C484 1.373 . S
C485 C486 1.429 . S
C485 H512 0.932 . S
C486 C483 1.358 . S
C486 C485 1.429 . S
C486 H513 0.930 . S
C487 C483 1.332 . S
C487 C488 1.394 . S
C487 H514 0.932 . S
C488 C484 1.308 . S
C488 C487 1.394 . S
C488 H515 0.929 . S
C489 Tb480 2.764 . S
C489 C483 1.504 . S
C489 O501 1.239 . S
C489 O502 1.263 . S
O490 Tb480 2.325 . S
O490 C500 1.236 . S
O491 Tb481 2.322 . S
O491 C500 1.257 . S
O492 Tb481 2.349 . S
O492 C503 1.261 . S
O493 Tb480 2.303 . S
O493 C503 1.257 . S
O494 Tb481 2.415 . S
O494 C510 1.239 . S
O495 Tb481 2.399 . S
O495 C510 1.263 . S
O496 Tb481 2.325 . S
O496 C511 1.236 . S
O497 Tb480 2.322 . S
O497 C511 1.257 . S
O498 Tb480 2.349 . S
O498 C482 1.261 . S
O499 Tb481 2.303 . S
O499 C482 1.257 . S
C500 O490 1.236 . S
C500 O491 1.257 . S
O501 Tb480 2.415 . S
O501 C489 1.239 . S
O502 Tb480 2.399 . S
O502 C489 1.263 . S
C503 O492 1.261 . S
C503 O493 1.257 . S
C504 C507 1.358 . S
C504 C508 1.332 . S
C504 C510 1.504 . S
C505 C506 1.373 . S
C505 C509 1.308 . S
C506 C505 1.373 . S
C506 C507 1.429 . S
C506 H516 0.932 . S
C507 C504 1.358 . S
C507 C506 1.429 . S
C507 H517 0.930 . S
C508 C504 1.332 . S
C508 C509 1.394 . S
C508 H518 0.932 . S
C509 C505 1.308 . S
C509 C508 1.394 . S
C509 H519 0.929 . S
C510 Tb481 2.764 . S
C510 O494 1.239 . S
C510 O495 1.263 . S
C510 C504 1.504 . S
C511 O496 1.236 . S
C511 O497 1.257 . S
H512 C485 0.932 . S
H513 C486 0.930 . S
H514 C487 0.932 . S
H515 C488 0.929 . S
H516 C506 0.932 . S
H517 C507 0.930 . S
H518 C508 0.932 . S
H519 C509 0.929 . S
Tb520 C529 2.764 . S
Tb520 O530 2.325 . S
Tb520 O533 2.303 . S
Tb520 O537 2.322 . S
Tb520 O538 2.349 . S
Tb520 O541 2.415 . S
Tb520 O542 2.399 . S
Tb521 O531 2.322 . S
Tb521 O532 2.349 1_655 S
Tb521 O534 2.415 . S
Tb521 O535 2.399 . S
Tb521 O536 2.325 1_655 S
Tb521 O539 2.303 1_655 S
Tb521 C550 2.764 . S
C522 O538 1.261 . S
C522 O539 1.257 . S
C523 C526 1.358 . S
C523 C527 1.332 . S
C523 C529 1.504 . S
C524 C525 1.373 . S
C524 C528 1.308 . S
C525 C524 1.373 . S
C525 C526 1.429 . S
C525 H552 0.932 . S
C526 C523 1.358 . S
C526 C525 1.429 . S
C526 H553 0.930 . S
C527 C523 1.332 . S
C527 C528 1.394 . S
C527 H554 0.932 . S
C528 C524 1.308 . S
C528 C527 1.394 . S
C528 H555 0.929 . S
C529 Tb520 2.764 . S
C529 C523 1.504 . S
C529 O541 1.239 . S
C529 O542 1.263 . S
O530 Tb520 2.325 . S
O530 C540 1.236 1_455 S
O531 Tb521 2.322 . S
O531 C540 1.257 . S
O532 Tb521 2.349 1_455 S
O532 C543 1.261 . S
O533 Tb520 2.303 . S
O533 C543 1.257 . S
O534 Tb521 2.415 . S
O534 C550 1.239 . S
O535 Tb521 2.399 . S
O535 C550 1.263 . S
O536 Tb521 2.325 1_455 S
O536 C551 1.236 . S
O537 Tb520 2.322 . S
O537 C551 1.257 . S
O538 Tb520 2.349 . S
O538 C522 1.261 . S
O539 Tb521 2.303 1_455 S
O539 C522 1.257 . S
C540 O530 1.236 1_655 S
C540 O531 1.257 . S
O541 Tb520 2.415 . S
O541 C529 1.239 . S
O542 Tb520 2.399 . S
O542 C529 1.263 . S
C543 O532 1.261 . S
C543 O533 1.257 . S
C544 C547 1.358 . S
C544 C548 1.332 . S
C544 C550 1.504 1_556 S
C545 C546 1.373 . S
C545 C549 1.308 . S
C546 C545 1.373 . S
C546 C547 1.429 . S
C546 H556 0.932 . S
C547 C544 1.358 . S
C547 C546 1.429 . S
C547 H557 0.930 . S
C548 C544 1.332 . S
C548 C549 1.394 . S
C548 H558 0.932 . S
C549 C545 1.308 . S
C549 C548 1.394 . S
C549 H559 0.929 . S
C550 Tb521 2.764 . S
C550 O534 1.239 . S
C550 O535 1.263 . S
C550 C544 1.504 1_554 S
C551 O536 1.236 . S
C551 O537 1.257 . S
H552 C525 0.932 . S
H553 C526 0.930 . S
H554 C527 0.932 . S
H555 C528 0.929 . S
H556 C546 0.932 . S
H557 C547 0.930 . S
H558 C548 0.932 . S
H559 C549 0.929 . S
Tb560 C569 2.764 . S
Tb560 O570 2.325 . S
Tb560 O573 2.303 . S
Tb560 O577 2.322 . S
Tb560 O578 2.349 . S
Tb560 O581 2.415 . S
Tb560 O582 2.399 . S
Tb561 O571 2.322 . S
Tb561 O572 2.349 . S
Tb561 O574 2.415 . S
Tb561 O575 2.399 . S
Tb561 O576 2.325 . S
Tb561 O579 2.303 . S
Tb561 C590 2.764 . S
C562 O578 1.261 . S
C562 O579 1.257 . S
C563 C566 1.358 . S
C563 C567 1.332 . S
C563 C569 1.504 . S
C564 C565 1.373 . S
C564 C568 1.308 . S
C565 C564 1.373 . S
C565 C566 1.429 . S
C565 H592 0.932 . S
C566 C563 1.358 . S
C566 C565 1.429 . S
C566 H593 0.930 . S
C567 C563 1.332 . S
C567 C568 1.394 . S
C567 H594 0.932 . S
C568 C564 1.308 . S
C568 C567 1.394 . S
C568 H595 0.929 . S
C569 Tb560 2.764 . S
C569 C563 1.504 . S
C569 O581 1.239 . S
C569 O582 1.263 . S
O570 Tb560 2.325 . S
O570 C580 1.236 . S
O571 Tb561 2.322 . S
O571 C580 1.257 . S
O572 Tb561 2.349 . S
O572 C583 1.261 . S
O573 Tb560 2.303 . S
O573 C583 1.257 . S
O574 Tb561 2.415 . S
O574 C590 1.239 . S
O575 Tb561 2.399 . S
O575 C590 1.263 . S
O576 Tb561 2.325 . S
O576 C591 1.236 . S
O577 Tb560 2.322 . S
O577 C591 1.257 . S
O578 Tb560 2.349 . S
O578 C562 1.261 . S
O579 Tb561 2.303 . S
O579 C562 1.257 . S
C580 O570 1.236 . S
C580 O571 1.257 . S
O581 Tb560 2.415 . S
O581 C569 1.239 . S
O582 Tb560 2.399 . S
O582 C569 1.263 . S
C583 O572 1.261 . S
C583 O573 1.257 . S
C584 C587 1.358 . S
C584 C588 1.332 . S
C584 C590 1.504 . S
C585 C586 1.373 . S
C585 C589 1.308 . S
C586 C585 1.373 . S
C586 C587 1.429 . S
C586 H596 0.932 . S
C587 C584 1.358 . S
C587 C586 1.429 . S
C587 H597 0.930 . S
C588 C584 1.332 . S
C588 C589 1.394 . S
C588 H598 0.932 . S
C589 C585 1.308 . S
C589 C588 1.394 . S
C589 H599 0.929 . S
C590 Tb561 2.764 . S
C590 O574 1.239 . S
C590 O575 1.263 . S
C590 C584 1.504 . S
C591 O576 1.236 . S
C591 O577 1.257 . S
H592 C565 0.932 . S
H593 C566 0.930 . S
H594 C567 0.932 . S
H595 C568 0.929 . S
H596 C586 0.932 . S
H597 C587 0.930 . S
H598 C588 0.932 . S
H599 C589 0.929 . S
Tb600 C609 2.764 . S
Tb600 O610 2.325 . S
Tb600 O613 2.303 . S
Tb600 O617 2.322 . S
Tb600 O618 2.349 . S
Tb600 O621 2.415 . S
Tb600 O622 2.399 . S
Tb601 O611 2.322 . S
Tb601 O612 2.349 . S
Tb601 O614 2.415 . S
Tb601 O615 2.399 . S
Tb601 O616 2.325 1_655 S
Tb601 O619 2.303 . S
Tb601 C630 2.764 . S
C602 O618 1.261 . S
C602 O619 1.257 1_455 S
C603 C606 1.358 . S
C603 C607 1.332 . S
C603 C609 1.504 . S
C604 C605 1.373 . S
C604 C608 1.308 . S
C605 C604 1.373 . S
C605 C606 1.429 1_554 S
C605 H632 0.932 . S
C606 C603 1.358 . S
C606 C605 1.429 1_556 S
C606 H633 0.930 . S
C607 C603 1.332 . S
C607 C608 1.394 1_556 S
C607 H634 0.932 . S
C608 C604 1.308 . S
C608 C607 1.394 1_554 S
C608 H635 0.929 . S
C609 Tb600 2.764 . S
C609 C603 1.504 . S
C609 O621 1.239 . S
C609 O622 1.263 . S
O610 Tb600 2.325 . S
O610 C620 1.236 1_455 S
O611 Tb601 2.322 . S
O611 C620 1.257 . S
O612 Tb601 2.349 . S
O612 C623 1.261 1_655 S
O613 Tb600 2.303 . S
O613 C623 1.257 . S
O614 Tb601 2.415 . S
O614 C630 1.239 . S
O615 Tb601 2.399 . S
O615 C630 1.263 . S
O616 Tb601 2.325 1_455 S
O616 C631 1.236 . S
O617 Tb600 2.322 . S
O617 C631 1.257 . S
O618 Tb600 2.349 . S
O618 C602 1.261 . S
O619 Tb601 2.303 . S
O619 C602 1.257 1_655 S
C620 O610 1.236 1_655 S
C620 O611 1.257 . S
O621 Tb600 2.415 . S
O621 C609 1.239 . S
O622 Tb600 2.399 . S
O622 C609 1.263 . S
C623 O612 1.261 1_455 S
C623 O613 1.257 . S
C624 C627 1.358 . S
C624 C628 1.332 . S
C624 C630 1.504 . S
C625 C626 1.373 . S
C625 C629 1.308 . S
C626 C625 1.373 . S
C626 C627 1.429 . S
C626 H636 0.932 . S
C627 C624 1.358 . S
C627 C626 1.429 . S
C627 H637 0.930 . S
C628 C624 1.332 . S
C628 C629 1.394 . S
C628 H638 0.932 . S
C629 C625 1.308 . S
C629 C628 1.394 . S
C629 H639 0.929 . S
C630 Tb601 2.764 . S
C630 O614 1.239 . S
C630 O615 1.263 . S
C630 C624 1.504 . S
C631 O616 1.236 . S
C631 O617 1.257 . S
H632 C605 0.932 . S
H633 C606 0.930 . S
H634 C607 0.932 . S
H635 C608 0.929 . S
H636 C626 0.932 . S
H637 C627 0.930 . S
H638 C628 0.932 . S
H639 C629 0.929 . S
H640 C646 0.930 . S
H641 C650 0.930 . S
H642 C655 0.929 1_554 S
H643 C653 0.929 . S
H644 C648 0.929 . S
H645 C654 0.929 . S
C646 H640 0.930 . S
C646 C647 1.367 . S
C646 C654 1.378 . S
C647 C646 1.367 . S
C647 C655 1.433 . S
C648 H644 0.929 . S
C648 C650 1.378 . S
C648 C652 1.350 . S
C649 C652 1.463 . S
C649 C654 1.350 . S
C649 N657 1.427 . S
C650 H641 0.930 . S
C650 C648 1.378 . S
C650 C651 1.367 . S
C651 C650 1.367 . S
C651 C653 1.433 . S
C652 C648 1.350 . S
C652 C649 1.463 . S
C652 N656 1.427 . S
C653 H643 0.929 . S
C653 C651 1.433 . S
C653 N656 1.384 . S
C654 H645 0.929 . S
C654 C646 1.378 . S
C654 C649 1.350 . S
C655 H642 0.929 1_556 S
C655 C647 1.433 . S
C655 N657 1.384 . S
N656 C652 1.427 . S
N656 C653 1.384 . S
N657 C649 1.427 . S
N657 C655 1.384 . S
H658 C664 0.930 . S
H659 C668 0.930 . S
H660 C673 0.929 . S
H661 C671 0.929 . S
H662 C666 0.929 . S
H663 C672 0.929 . S
C664 H658 0.930 . S
C664 C665 1.367 . S
C664 C672 1.378 . S
C665 C664 1.367 . S
C665 C673 1.433 . S
C666 H662 0.929 . S
C666 C668 1.378 . S
C666 C670 1.350 . S
C667 C670 1.463 . S
C667 C672 1.350 . S
C667 N675 1.427 . S
C668 H659 0.930 . S
C668 C666 1.378 . S
C668 C669 1.367 . S
C669 C668 1.367 . S
C669 C671 1.433 . S
C670 C666 1.350 . S
C670 C667 1.463 . S
C670 N674 1.427 . S
C671 H661 0.929 . S
C671 C669 1.433 . S
C671 N674 1.384 . S
C672 H663 0.929 . S
C672 C664 1.378 . S
C672 C667 1.350 . S
C673 H660 0.929 . S
C673 C665 1.433 . S
C673 N675 1.384 . S
N674 C670 1.427 . S
N674 C671 1.384 . S
N675 C667 1.427 . S
N675 C673 1.384 . S
H676 C682 0.930 . S
H677 C686 0.930 . S
H678 C691 0.929 . S
H679 C689 0.929 . S
H680 C684 0.929 . S
H681 C690 0.929 . S
C682 H676 0.930 . S
C682 C683 1.367 . S
C682 C690 1.378 . S
C683 C682 1.367 . S
C683 C691 1.433 . S
C684 H680 0.929 . S
C684 C686 1.378 . S
C684 C688 1.350 . S
C685 C688 1.463 . S
C685 C690 1.350 . S
C685 N693 1.427 . S
C686 H677 0.930 . S
C686 C684 1.378 . S
C686 C687 1.367 . S
C687 C686 1.367 . S
C687 C689 1.433 . S
C688 C684 1.350 . S
C688 C685 1.463 . S
C688 N692 1.427 . S
C689 H679 0.929 . S
C689 C687 1.433 . S
C689 N692 1.384 . S
C690 H681 0.929 . S
C690 C682 1.378 . S
C690 C685 1.350 . S
C691 H678 0.929 . S
C691 C683 1.433 . S
C691 N693 1.384 . S
N692 C688 1.427 . S
N692 C689 1.384 . S
N693 C685 1.427 . S
N693 C691 1.384 . S
H694 C700 0.930 . S
H695 C704 0.930 . S
H696 C709 0.929 . S
H697 C707 0.929 . S
H698 C702 0.929 . S
H699 C708 0.929 . S
C700 H694 0.930 . S
C700 C701 1.367 . S
C700 C708 1.378 . S
C701 C700 1.367 . S
C701 C709 1.433 . S
C702 H698 0.929 . S
C702 C704 1.378 . S
C702 C706 1.350 . S
C703 C706 1.463 . S
C703 C708 1.350 . S
C703 N711 1.427 . S
C704 H695 0.930 . S
C704 C702 1.378 . S
C704 C705 1.367 . S
C705 C704 1.367 . S
C705 C707 1.433 . S
C706 C702 1.350 . S
C706 C703 1.463 . S
C706 N710 1.427 . S
C707 H697 0.929 . S
C707 C705 1.433 . S
C707 N710 1.384 . S
C708 H699 0.929 . S
C708 C700 1.378 . S
C708 C703 1.350 . S
C709 H696 0.929 . S
C709 C701 1.433 . S
C709 N711 1.384 . S
N710 C706 1.427 . S
N710 C707 1.384 . S
N711 C703 1.427 . S
N711 C709 1.384 . S
H712 C718 0.930 . S
H713 C722 0.930 . S
H714 C727 0.929 . S
H715 C725 0.929 . S
H716 C720 0.929 . S
H717 C726 0.929 . S
C718 H712 0.930 . S
C718 C719 1.367 . S
C718 C726 1.378 . S
C719 C718 1.367 . S
C719 C727 1.433 . S
C720 H716 0.929 . S
C720 C722 1.378 . S
C720 C724 1.350 . S
C721 C724 1.463 . S
C721 C726 1.350 . S
C721 N729 1.427 . S
C722 H713 0.930 . S
C722 C720 1.378 . S
C722 C723 1.367 . S
C723 C722 1.367 . S
C723 C725 1.433 . S
C724 C720 1.350 . S
C724 C721 1.463 . S
C724 N728 1.427 . S
C725 H715 0.929 . S
C725 C723 1.433 . S
C725 N728 1.384 . S
C726 H717 0.929 . S
C726 C718 1.378 . S
C726 C721 1.350 . S
C727 H714 0.929 . S
C727 C719 1.433 . S
C727 N729 1.384 . S
N728 C724 1.427 . S
N728 C725 1.384 . S
N729 C721 1.427 . S
N729 C727 1.384 . S
H730 C736 0.930 . S
H731 C740 0.930 . S
H732 C745 0.929 . S
H733 C743 0.929 . S
H734 C738 0.929 . S
H735 C744 0.929 . S
C736 H730 0.930 . S
C736 C737 1.367 . S
C736 C744 1.378 . S
C737 C736 1.367 . S
C737 C745 1.433 . S
C738 H734 0.929 . S
C738 C740 1.378 . S
C738 C742 1.350 . S
C739 C742 1.463 . S
C739 C744 1.350 . S
C739 N747 1.427 . S
C740 H731 0.930 . S
C740 C738 1.378 . S
C740 C741 1.367 . S
C741 C740 1.367 . S
C741 C743 1.433 . S
C742 C738 1.350 . S
C742 C739 1.463 . S
C742 N746 1.427 . S
C743 H733 0.929 . S
C743 C741 1.433 . S
C743 N746 1.384 . S
C744 H735 0.929 . S
C744 C736 1.378 . S
C744 C739 1.350 . S
C745 H732 0.929 . S
C745 C737 1.433 . S
C745 N747 1.384 . S
N746 C742 1.427 . S
N746 C743 1.384 . S
N747 C739 1.427 . S
N747 C745 1.384 . S
H748 C754 0.930 . S
H749 C758 0.930 . S
H750 C763 0.929 . S
H751 C761 0.929 . S
H752 C756 0.929 . S
H753 C762 0.929 . S
C754 H748 0.930 . S
C754 C755 1.367 . S
C754 C762 1.378 . S
C755 C754 1.367 . S
C755 C763 1.433 . S
C756 H752 0.929 . S
C756 C758 1.378 . S
C756 C760 1.350 . S
C757 C760 1.463 . S
C757 C762 1.350 . S
C757 N765 1.427 . S
C758 H749 0.930 . S
C758 C756 1.378 . S
C758 C759 1.367 . S
C759 C758 1.367 . S
C759 C761 1.433 . S
C760 C756 1.350 . S
C760 C757 1.463 . S
C760 N764 1.427 . S
C761 H751 0.929 . S
C761 C759 1.433 . S
C761 N764 1.384 . S
C762 H753 0.929 . S
C762 C754 1.378 . S
C762 C757 1.350 . S
C763 H750 0.929 . S
C763 C755 1.433 . S
C763 N765 1.384 . S
N764 C760 1.427 . S
N764 C761 1.384 . S
N765 C757 1.427 . S
N765 C763 1.384 . S
H766 C772 0.930 . S
H767 C776 0.930 . S
H768 C781 0.929 . S
H769 C779 0.929 . S
H770 C774 0.929 . S
H771 C780 0.929 . S
C772 H766 0.930 . S
C772 C773 1.367 . S
C772 C780 1.378 . S
C773 C772 1.367 . S
C773 C781 1.433 . S
C774 H770 0.929 . S
C774 C776 1.378 . S
C774 C778 1.350 . S
C775 C778 1.463 . S
C775 C780 1.350 . S
C775 N783 1.427 . S
C776 H767 0.930 . S
C776 C774 1.378 . S
C776 C777 1.367 . S
C777 C776 1.367 . S
C777 C779 1.433 . S
C778 C774 1.350 . S
C778 C775 1.463 . S
C778 N782 1.427 . S
C779 H769 0.929 . S
C779 C777 1.433 . S
C779 N782 1.384 . S
C780 H771 0.929 . S
C780 C772 1.378 . S
C780 C775 1.350 . S
C781 H768 0.929 . S
C781 C773 1.433 . S
C781 N783 1.384 . S
N782 C778 1.427 . S
N782 C779 1.384 . S
N783 C775 1.427 . S
N783 C781 1.384 . S
H784 C790 0.930 . S
H785 C794 0.930 . S
H786 C799 0.929 . S
H787 C797 0.929 . S
H788 C792 0.929 . S
H789 C798 0.929 . S
C790 H784 0.930 . S
C790 C791 1.367 . S
C790 C798 1.378 . S
C791 C790 1.367 . S
C791 C799 1.433 . S
C792 H788 0.929 . S
C792 C794 1.378 . S
C792 C796 1.350 . S
C793 C796 1.463 . S
C793 C798 1.350 . S
C793 N801 1.427 . S
C794 H785 0.930 . S
C794 C792 1.378 . S
C794 C795 1.367 . S
C795 C794 1.367 . S
C795 C797 1.433 . S
C796 C792 1.350 . S
C796 C793 1.463 . S
C796 N800 1.427 . S
C797 H787 0.929 . S
C797 C795 1.433 . S
C797 N800 1.384 . S
C798 H789 0.929 . S
C798 C790 1.378 . S
C798 C793 1.350 . S
C799 H786 0.929 . S
C799 C791 1.433 . S
C799 N801 1.384 . S
N800 C796 1.427 . S
N800 C797 1.384 . S
N801 C793 1.427 . S
N801 C799 1.384 . S
H802 C808 0.930 . S
H803 C812 0.930 . S
H804 C817 0.929 . S
H805 C815 0.929 . S
H806 C810 0.929 . S
H807 C816 0.929 . S
C808 H802 0.930 . S
C808 C809 1.367 . S
C808 C816 1.378 . S
C809 C808 1.367 . S
C809 C817 1.433 . S
C810 H806 0.929 . S
C810 C812 1.378 . S
C810 C814 1.350 . S
C811 C814 1.463 . S
C811 C816 1.350 . S
C811 N819 1.427 . S
C812 H803 0.930 . S
C812 C810 1.378 . S
C812 C813 1.367 . S
C813 C812 1.367 . S
C813 C815 1.433 . S
C814 C810 1.350 . S
C814 C811 1.463 . S
C814 N818 1.427 . S
C815 H805 0.929 . S
C815 C813 1.433 . S
C815 N818 1.384 . S
C816 H807 0.929 . S
C816 C808 1.378 . S
C816 C811 1.350 . S
C817 H804 0.929 . S
C817 C809 1.433 . S
C817 N819 1.384 . S
N818 C814 1.427 . S
N818 C815 1.384 . S
N819 C811 1.427 . S
N819 C817 1.384 . S
H820 C826 0.930 . S
H821 C830 0.930 . S
H822 C835 0.929 . S
H823 C833 0.929 . S
H824 C828 0.929 . S
H825 C834 0.929 . S
C826 H820 0.930 . S
C826 C827 1.367 . S
C826 C834 1.378 . S
C827 C826 1.367 . S
C827 C835 1.433 . S
C828 H824 0.929 . S
C828 C830 1.378 . S
C828 C832 1.350 . S
C829 C832 1.463 . S
C829 C834 1.350 . S
C829 N837 1.427 . S
C830 H821 0.930 . S
C830 C828 1.378 . S
C830 C831 1.367 . S
C831 C830 1.367 . S
C831 C833 1.433 . S
C832 C828 1.350 . S
C832 C829 1.463 . S
C832 N836 1.427 . S
C833 H823 0.929 . S
C833 C831 1.433 . S
C833 N836 1.384 . S
C834 H825 0.929 . S
C834 C826 1.378 . S
C834 C829 1.350 . S
C835 H822 0.929 . S
C835 C827 1.433 . S
C835 N837 1.384 . S
N836 C832 1.427 . S
N836 C833 1.384 . S
N837 C829 1.427 . S
N837 C835 1.384 . S
H838 C844 0.930 . S
H839 C848 0.930 . S
H840 C853 0.929 . S
H841 C851 0.929 . S
H842 C846 0.929 . S
H843 C852 0.929 . S
C844 H838 0.930 . S
C844 C845 1.367 . S
C844 C852 1.378 . S
C845 C844 1.367 . S
C845 C853 1.433 . S
C846 H842 0.929 . S
C846 C848 1.378 1_554 S
C846 C850 1.350 . S
C847 C850 1.463 . S
C847 C852 1.350 . S
C847 N855 1.427 . S
C848 H839 0.930 . S
C848 C846 1.378 1_556 S
C848 C849 1.367 . S
C849 C848 1.367 . S
C849 C851 1.433 . S
C850 C846 1.350 . S
C850 C847 1.463 . S
C850 N854 1.427 . S
C851 H841 0.929 . S
C851 C849 1.433 . S
C851 N854 1.384 1_556 S
C852 H843 0.929 . S
C852 C844 1.378 . S
C852 C847 1.350 . S
C853 H840 0.929 . S
C853 C845 1.433 . S
C853 N855 1.384 . S
N854 C850 1.427 . S
N854 C851 1.384 1_554 S
N855 C847 1.427 . S
N855 C853 1.384 . S
H856 C862 0.930 . S
H857 C866 0.930 . S
H858 C871 0.929 . S
H859 C869 0.929 . S
H860 C864 0.929 . S
H861 C870 0.929 . S
C862 H856 0.930 . S
C862 C863 1.367 . S
C862 C870 1.378 . S
C863 C862 1.367 . S
C863 C871 1.433 . S
C864 H860 0.929 . S
C864 C866 1.378 . S
C864 C868 1.350 . S
C865 C868 1.463 . S
C865 C870 1.350 . S
C865 N873 1.427 . S
C866 H857 0.930 . S
C866 C864 1.378 . S
C866 C867 1.367 . S
C867 C866 1.367 . S
C867 C869 1.433 . S
C868 C864 1.350 . S
C868 C865 1.463 . S
C868 N872 1.427 . S
C869 H859 0.929 . S
C869 C867 1.433 . S
C869 N872 1.384 . S
C870 H861 0.929 . S
C870 C862 1.378 . S
C870 C865 1.350 . S
C871 H858 0.929 . S
C871 C863 1.433 . S
C871 N873 1.384 . S
N872 C868 1.427 . S
N872 C869 1.384 . S
N873 C865 1.427 . S
N873 C871 1.384 . S
H874 C880 0.930 . S
H875 C884 0.930 . S
H876 C889 0.929 . S
H877 C887 0.929 . S
H878 C882 0.929 . S
H879 C888 0.929 . S
C880 H874 0.930 . S
C880 C881 1.367 . S
C880 C888 1.378 . S
C881 C880 1.367 . S
C881 C889 1.433 . S
C882 H878 0.929 . S
C882 C884 1.378 . S
C882 C886 1.350 . S
C883 C886 1.463 . S
C883 C888 1.350 . S
C883 N891 1.427 . S
C884 H875 0.930 . S
C884 C882 1.378 . S
C884 C885 1.367 . S
C885 C884 1.367 . S
C885 C887 1.433 . S
C886 C882 1.350 . S
C886 C883 1.463 . S
C886 N890 1.427 . S
C887 H877 0.929 . S
C887 C885 1.433 . S
C887 N890 1.384 . S
C888 H879 0.929 . S
C888 C880 1.378 . S
C888 C883 1.350 . S
C889 H876 0.929 . S
C889 C881 1.433 . S
C889 N891 1.384 . S
N890 C886 1.427 . S
N890 C887 1.384 . S
N891 C883 1.427 . S
N891 C889 1.384 . S
H892 C898 0.930 . S
H893 C902 0.930 . S
H894 C907 0.929 . S
H895 C905 0.929 1_556 S
H896 C900 0.929 . S
H897 C906 0.929 . S
C898 H892 0.930 . S
C898 C899 1.367 . S
C898 C906 1.378 . S
C899 C898 1.367 . S
C899 C907 1.433 . S
C900 H896 0.929 . S
C900 C902 1.378 . S
C900 C904 1.350 . S
C901 C904 1.463 . S
C901 C906 1.350 . S
C901 N909 1.427 . S
C902 H893 0.930 . S
C902 C900 1.378 . S
C902 C903 1.367 . S
C903 C902 1.367 . S
C903 C905 1.433 . S
C904 C900 1.350 . S
C904 C901 1.463 . S
C904 N908 1.427 . S
C905 H895 0.929 1_554 S
C905 C903 1.433 . S
C905 N908 1.384 . S
C906 H897 0.929 . S
C906 C898 1.378 . S
C906 C901 1.350 . S
C907 H894 0.929 . S
C907 C899 1.433 . S
C907 N909 1.384 . S
N908 C904 1.427 . S
N908 C905 1.384 . S
N909 C901 1.427 . S
N909 C907 1.384 . S
H910 C916 0.930 . S
H911 C920 0.931 1_556 S
H912 C925 0.929 . S
H913 C923 0.929 . S
H914 C918 0.929 . S
H915 C924 0.929 . S
C916 H910 0.930 . S
C916 C917 1.367 . S
C916 C924 1.378 . S
C917 C916 1.367 . S
C917 C925 1.433 . S
C918 H914 0.929 . S
C918 C920 1.378 1_556 S
C918 C922 1.350 . S
C919 C922 1.463 . S
C919 C924 1.350 . S
C919 N927 1.427 . S
C920 H911 0.931 1_554 S
C920 C918 1.378 1_554 S
C920 C921 1.367 . S
C921 C920 1.367 . S
C921 C923 1.433 . S
C922 C918 1.350 . S
C922 C919 1.463 . S
C922 N926 1.427 1_556 S
C923 H913 0.929 . S
C923 C921 1.433 . S
C923 N926 1.384 . S
C924 H915 0.929 . S
C924 C916 1.378 . S
C924 C919 1.350 . S
C925 H912 0.929 . S
C925 C917 1.433 . S
C925 N927 1.384 . S
N926 C922 1.427 1_554 S
N926 C923 1.384 . S
N927 C919 1.427 . S
N927 C925 1.384 . S
H928 C934 0.930 1_655 S
H929 C938 0.930 . S
H930 C943 0.929 . S
H931 C941 0.929 . S
H932 C936 0.929 . S
H933 C942 0.929 1_655 S
C934 H928 0.930 1_455 S
C934 C935 1.367 . S
C934 C942 1.378 . S
C935 C934 1.367 . S
C935 C943 1.433 . S
C936 H932 0.929 . S
C936 C938 1.378 . S
C936 C940 1.350 . S
C937 C940 1.463 . S
C937 C942 1.350 . S
C937 N945 1.427 . S
C938 H929 0.930 . S
C938 C936 1.378 . S
C938 C939 1.367 . S
C939 C938 1.367 . S
C939 C941 1.433 1_455 S
C940 C936 1.350 . S
C940 C937 1.463 . S
C940 N944 1.427 1_455 S
C941 H931 0.929 . S
C941 C939 1.433 1_655 S
C941 N944 1.384 . S
C942 H933 0.929 1_455 S
C942 C934 1.378 . S
C942 C937 1.350 . S
C943 H930 0.929 . S
C943 C935 1.433 . S
C943 N945 1.384 . S
N944 C940 1.427 1_655 S
N944 C941 1.384 . S
N945 C937 1.427 . S
N945 C943 1.384 . S
H946 C952 0.930 . S
H947 C956 0.930 . S
H948 C961 0.929 . S
H949 C959 0.929 . S
H950 C954 0.929 . S
H951 C960 0.929 . S
C952 H946 0.930 . S
C952 C953 1.367 . S
C952 C960 1.378 . S
C953 C952 1.367 . S
C953 C961 1.433 . S
C954 H950 0.929 . S
C954 C956 1.378 . S
C954 C958 1.350 . S
C955 C958 1.463 1_655 S
C955 C960 1.350 . S
C955 N963 1.427 . S
C956 H947 0.930 . S
C956 C954 1.378 . S
C956 C957 1.367 . S
C957 C956 1.367 . S
C957 C959 1.433 . S
C958 C954 1.350 . S
C958 C955 1.463 1_455 S
C958 N962 1.427 . S
C959 H949 0.929 . S
C959 C957 1.433 . S
C959 N962 1.384 . S
C960 H951 0.929 . S
C960 C952 1.378 . S
C960 C955 1.350 . S
C961 H948 0.929 . S
C961 C953 1.433 . S
C961 N963 1.384 . S
N962 C958 1.427 . S
N962 C959 1.384 . S
N963 C955 1.427 . S
N963 C961 1.384 . S
H964 C970 0.930 . S
H965 C974 0.930 . S
H966 C979 0.929 . S
H967 C977 0.929 . S
H968 C972 0.929 . S
H969 C978 0.929 . S
C970 H964 0.930 . S
C970 C971 1.367 . S
C970 C978 1.378 . S
C971 C970 1.367 . S
C971 C979 1.433 . S
C972 H968 0.929 . S
C972 C974 1.378 . S
C972 C976 1.350 . S
C973 C976 1.463 . S
C973 C978 1.350 . S
C973 N981 1.427 . S
C974 H965 0.930 . S
C974 C972 1.378 . S
C974 C975 1.367 . S
C975 C974 1.367 . S
C975 C977 1.433 . S
C976 C972 1.350 . S
C976 C973 1.463 . S
C976 N980 1.427 . S
C977 H967 0.929 . S
C977 C975 1.433 . S
C977 N980 1.384 . S
C978 H969 0.929 . S
C978 C970 1.378 . S
C978 C973 1.350 . S
C979 H966 0.929 . S
C979 C971 1.433 . S
C979 N981 1.384 . S
N980 C976 1.427 . S
N980 C977 1.384 . S
N981 C973 1.427 . S
N981 C979 1.384 . S
H982 C988 0.930 . S
H983 C992 0.930 . S
H984 C997 0.929 . S
H985 C995 0.929 . S
H986 C990 0.929 . S
H987 C996 0.929 . S
C988 H982 0.930 . S
C988 C989 1.367 . S
C988 C996 1.378 . S
C989 C988 1.367 . S
C989 C997 1.433 . S
C990 H986 0.929 . S
C990 C992 1.378 . S
C990 C994 1.350 . S
C991 C994 1.463 . S
C991 C996 1.350 . S
C991 N999 1.427 . S
C992 H983 0.930 . S
C992 C990 1.378 . S
C992 C993 1.367 . S
C993 C992 1.367 . S
C993 C995 1.433 . S
C994 C990 1.350 . S
C994 C991 1.463 . S
C994 N998 1.427 . S
C995 H985 0.929 . S
C995 C993 1.433 . S
C995 N998 1.384 . S
C996 H987 0.929 . S
C996 C988 1.378 . S
C996 C991 1.350 . S
C997 H984 0.929 . S
C997 C989 1.433 . S
C997 N999 1.384 . S
N998 C994 1.427 . S
N998 C995 1.384 . S
N999 C991 1.427 . S
N999 C997 1.384 . S
H1000 C1006 0.930 . S
H1001 C1010 0.930 . S
H1002 C1015 0.929 . S
H1003 C1013 0.929 . S
H1004 C1008 0.929 . S
H1005 C1014 0.929 . S
C1006 H1000 0.930 . S
C1006 C1007 1.361 1_655 S
C1006 C1014 1.378 . S
C1007 C1006 1.361 1_455 S
C1007 C1015 1.438 . S
C1008 H1004 0.929 . S
C1008 C1010 1.378 . S
C1008 C1012 1.350 . S
C1009 C1012 1.463 . S
C1009 C1014 1.350 1_455 S
C1009 N1017 1.427 . S
C1010 H1001 0.930 . S
C1010 C1008 1.378 . S
C1010 C1011 1.367 . S
C1011 C1010 1.367 . S
C1011 C1013 1.433 1_455 S
C1012 C1008 1.350 . S
C1012 C1009 1.463 . S
C1012 N1016 1.427 1_455 S
C1013 H1003 0.929 . S
C1013 C1011 1.433 1_655 S
C1013 N1016 1.384 . S
C1014 H1005 0.929 . S
C1014 C1006 1.378 . S
C1014 C1009 1.350 1_655 S
C1015 H1002 0.929 . S
C1015 C1007 1.438 . S
C1015 N1017 1.384 . S
N1016 C1012 1.427 1_655 S
N1016 C1013 1.384 . S
N1017 C1009 1.427 . S
N1017 C1015 1.384 . S
H1018 C1024 0.930 . S
H1019 C1028 0.930 . S
H1020 C1033 0.929 . S
H1021 C1031 0.929 . S
H1022 C1026 0.929 . S
H1023 C1032 0.929 . S
C1024 H1018 0.930 . S
C1024 C1025 1.367 . S
C1024 C1032 1.378 . S
C1025 C1024 1.367 . S
C1025 C1033 1.433 . S
C1026 H1022 0.929 . S
C1026 C1028 1.378 . S
C1026 C1030 1.350 . S
C1027 C1030 1.463 . S
C1027 C1032 1.350 . S
C1027 N1035 1.427 . S
C1028 H1019 0.930 . S
C1028 C1026 1.378 . S
C1028 C1029 1.367 . S
C1029 C1028 1.367 . S
C1029 C1031 1.433 . S
C1030 C1026 1.350 . S
C1030 C1027 1.463 . S
C1030 N1034 1.427 . S
C1031 H1021 0.929 . S
C1031 C1029 1.433 . S
C1031 N1034 1.384 . S
C1032 H1023 0.929 . S
C1032 C1024 1.378 . S
C1032 C1027 1.350 . S
C1033 H1020 0.929 . S
C1033 C1025 1.433 . S
C1033 N1035 1.384 . S
N1034 C1030 1.427 . S
N1034 C1031 1.384 . S
N1035 C1027 1.427 . S
N1035 C1033 1.384 . S
H1036 C1042 0.930 . S
H1037 C1046 0.930 . S
H1038 C1051 0.929 . S
H1039 C1049 0.929 . S
H1040 C1044 0.929 . S
H1041 C1050 0.929 . S
C1042 H1036 0.930 . S
C1042 C1043 1.367 . S
C1042 C1050 1.378 . S
C1043 C1042 1.367 . S
C1043 C1051 1.433 . S
C1044 H1040 0.929 . S
C1044 C1046 1.378 . S
C1044 C1048 1.350 . S
C1045 C1048 1.463 . S
C1045 C1050 1.350 . S
C1045 N1053 1.427 . S
C1046 H1037 0.930 . S
C1046 C1044 1.378 . S
C1046 C1047 1.367 . S
C1047 C1046 1.367 . S
C1047 C1049 1.433 . S
C1048 C1044 1.350 . S
C1048 C1045 1.463 . S
C1048 N1052 1.427 . S
C1049 H1039 0.929 . S
C1049 C1047 1.433 . S
C1049 N1052 1.384 . S
C1050 H1041 0.929 . S
C1050 C1042 1.378 . S
C1050 C1045 1.350 . S
C1051 H1038 0.929 . S
C1051 C1043 1.433 . S
C1051 N1053 1.384 . S
N1052 C1048 1.427 . S
N1052 C1049 1.384 . S
N1053 C1045 1.427 . S
N1053 C1051 1.384 . S
H1054 C1060 0.930 . S
H1055 C1064 0.930 . S
H1056 C1069 0.929 . S
H1057 C1067 0.929 . S
H1058 C1062 0.929 1_455 S
H1059 C1068 0.929 . S
C1060 H1054 0.930 . S
C1060 C1061 1.367 . S
C1060 C1068 1.378 . S
C1061 C1060 1.367 . S
C1061 C1069 1.433 . S
C1062 H1058 0.929 1_655 S
C1062 C1064 1.378 . S
C1062 C1066 1.350 1_655 S
C1063 C1066 1.463 . S
C1063 C1068 1.350 . S
C1063 N1071 1.427 . S
C1064 H1055 0.930 . S
C1064 C1062 1.378 . S
C1064 C1065 1.367 . S
C1065 C1064 1.367 . S
C1065 C1067 1.433 . S
C1066 C1062 1.350 1_455 S
C1066 C1063 1.463 . S
C1066 N1070 1.427 1_455 S
C1067 H1057 0.929 . S
C1067 C1065 1.433 . S
C1067 N1070 1.384 . S
C1068 H1059 0.929 . S
C1068 C1060 1.378 . S
C1068 C1063 1.350 . S
C1069 H1056 0.929 . S
C1069 C1061 1.433 . S
C1069 N1071 1.384 . S
N1070 C1066 1.427 1_655 S
N1070 C1067 1.384 . S
N1071 C1063 1.427 . S
N1071 C1069 1.384 . S
H1072 C1078 0.930 . S
H1073 C1082 0.931 1_554 S
H1074 C1087 0.917 1_665 S
H1075 C1085 0.929 . S
H1076 C1080 0.929 . S
H1077 C1086 0.929 . S
C1078 H1072 0.930 . S
C1078 C1079 1.367 . S
C1078 C1086 1.378 . S
C1079 C1078 1.367 . S
C1079 C1087 1.465 . S
C1080 H1076 0.929 . S
C1080 C1082 1.378 1_554 S
C1080 C1084 1.350 1_655 S
C1081 C1084 1.463 1_545 S
C1081 C1086 1.350 . S
C1081 N1089 1.431 1_545 S
C1082 H1073 0.931 1_556 S
C1082 C1080 1.378 1_556 S
C1082 C1083 1.367 1_655 S
C1083 C1082 1.367 1_455 S
C1083 C1085 1.433 . S
C1084 C1080 1.350 1_455 S
C1084 C1081 1.463 1_565 S
C1084 N1088 1.427 1_564 S
C1085 H1075 0.929 . S
C1085 C1083 1.433 . S
C1085 N1088 1.384 1_565 S
C1086 H1077 0.929 . S
C1086 C1078 1.378 . S
C1086 C1081 1.350 . S
C1087 H1074 0.917 1_445 S
C1087 C1079 1.465 . S
C1087 N1089 1.371 1_545 S
N1088 C1084 1.427 1_546 S
N1088 C1085 1.384 1_545 S
N1089 C1081 1.431 1_565 S
N1089 C1087 1.371 1_565 S
H1090 C1096 0.930 . S
H1091 C1100 0.930 . S
H1092 C1105 0.929 . S
H1093 C1103 0.929 . S
H1094 C1098 0.929 . S
H1095 C1104 0.929 . S
C1096 H1090 0.930 . S
C1096 C1097 1.367 . S
C1096 C1104 1.378 . S
C1097 C1096 1.367 . S
C1097 C1105 1.433 . S
C1098 H1094 0.929 . S
C1098 C1100 1.378 . S
C1098 C1102 1.350 . S
C1099 C1102 1.463 . S
C1099 C1104 1.350 . S
C1099 N1107 1.427 . S
C1100 H1091 0.930 . S
C1100 C1098 1.378 . S
C1100 C1101 1.367 . S
C1101 C1100 1.367 . S
C1101 C1103 1.433 . S
C1102 C1098 1.350 . S
C1102 C1099 1.463 . S
C1102 N1106 1.427 . S
C1103 H1093 0.929 . S
C1103 C1101 1.433 . S
C1103 N1106 1.384 . S
C1104 H1095 0.929 . S
C1104 C1096 1.378 . S
C1104 C1099 1.350 . S
C1105 H1092 0.929 . S
C1105 C1097 1.433 . S
C1105 N1107 1.384 . S
N1106 C1102 1.427 . S
N1106 C1103 1.384 . S
N1107 C1099 1.427 . S
N1107 C1105 1.384 . S
H1108 C1114 0.930 . S
H1109 C1118 0.930 . S
H1110 C1123 0.929 . S
H1111 C1121 0.929 . S
H1112 C1116 0.929 . S
H1113 C1122 0.929 . S
C1114 H1108 0.930 . S
C1114 C1115 1.367 . S
C1114 C1122 1.378 1_545 S
C1115 C1114 1.367 . S
C1115 C1123 1.433 . S
C1116 H1112 0.929 . S
C1116 C1118 1.378 1_545 S
C1116 C1120 1.350 1_545 S
C1117 C1120 1.463 1_545 S
C1117 C1122 1.350 1_545 S
C1117 N1125 1.427 . S
C1118 H1109 0.930 . S
C1118 C1116 1.378 1_565 S
C1118 C1119 1.367 . S
C1119 C1118 1.367 . S
C1119 C1121 1.433 . S
C1120 C1116 1.350 1_565 S
C1120 C1117 1.463 1_565 S
C1120 N1124 1.427 . S
C1121 H1111 0.929 . S
C1121 C1119 1.433 . S
C1121 N1124 1.384 . S
C1122 H1113 0.929 . S
C1122 C1114 1.378 1_565 S
C1122 C1117 1.350 1_565 S
C1123 H1110 0.929 . S
C1123 C1115 1.433 . S
C1123 N1125 1.384 . S
N1124 C1120 1.427 . S
N1124 C1121 1.384 . S
N1125 C1117 1.427 . S
N1125 C1123 1.384 . S
H1126 C1132 0.930 . S
H1127 C1136 0.930 . S
H1128 C1141 0.929 . S
H1129 C1139 0.929 . S
H1130 C1134 0.929 . S
H1131 C1140 0.929 . S
C1132 H1126 0.930 . S
C1132 C1133 1.367 . S
C1132 C1140 1.378 . S
C1133 C1132 1.367 . S
C1133 C1141 1.433 . S
C1134 H1130 0.929 . S
C1134 C1136 1.378 . S
C1134 C1138 1.350 . S
C1135 C1138 1.463 . S
C1135 C1140 1.350 . S
C1135 N1143 1.427 . S
C1136 H1127 0.930 . S
C1136 C1134 1.378 . S
C1136 C1137 1.367 . S
C1137 C1136 1.367 . S
C1137 C1139 1.433 . S
C1138 C1134 1.350 . S
C1138 C1135 1.463 . S
C1138 N1142 1.427 . S
C1139 H1129 0.929 . S
C1139 C1137 1.433 . S
C1139 N1142 1.384 . S
C1140 H1131 0.929 . S
C1140 C1132 1.378 . S
C1140 C1135 1.350 . S
C1141 H1128 0.929 . S
C1141 C1133 1.433 . S
C1141 N1143 1.384 . S
N1142 C1138 1.427 . S
N1142 C1139 1.384 . S
N1143 C1135 1.427 . S
N1143 C1141 1.384 . S
H1144 C1150 0.930 . S
H1145 C1154 0.930 . S
H1146 C1159 0.929 . S
H1147 C1157 0.929 . S
H1148 C1152 0.929 . S
H1149 C1158 0.929 . S
C1150 H1144 0.930 . S
C1150 C1151 1.367 . S
C1150 C1158 1.378 . S
C1151 C1150 1.367 . S
C1151 C1159 1.433 . S
C1152 H1148 0.929 . S
C1152 C1154 1.378 . S
C1152 C1156 1.350 . S
C1153 C1156 1.463 . S
C1153 C1158 1.350 . S
C1153 N1161 1.427 . S
C1154 H1145 0.930 . S
C1154 C1152 1.378 . S
C1154 C1155 1.367 . S
C1155 C1154 1.367 . S
C1155 C1157 1.433 . S
C1156 C1152 1.350 . S
C1156 C1153 1.463 . S
C1156 N1160 1.427 . S
C1157 H1147 0.929 . S
C1157 C1155 1.433 . S
C1157 N1160 1.384 . S
C1158 H1149 0.929 . S
C1158 C1150 1.378 . S
C1158 C1153 1.350 . S
C1159 H1146 0.929 . S
C1159 C1151 1.433 . S
C1159 N1161 1.384 . S
N1160 C1156 1.427 . S
N1160 C1157 1.384 . S
N1161 C1153 1.427 . S
N1161 C1159 1.384 . S
H1162 C1168 0.930 . S
H1163 C1172 0.930 . S
H1164 C1177 0.929 . S
H1165 C1175 0.929 . S
H1166 C1170 0.929 . S
H1167 C1176 0.929 . S
C1168 H1162 0.930 . S
C1168 C1169 1.367 . S
C1168 C1176 1.378 . S
C1169 C1168 1.367 . S
C1169 C1177 1.433 . S
C1170 H1166 0.929 . S
C1170 C1172 1.378 . S
C1170 C1174 1.350 . S
C1171 C1174 1.463 . S
C1171 C1176 1.350 . S
C1171 N1179 1.427 . S
C1172 H1163 0.930 . S
C1172 C1170 1.378 . S
C1172 C1173 1.367 . S
C1173 C1172 1.367 . S
C1173 C1175 1.433 . S
C1174 C1170 1.350 . S
C1174 C1171 1.463 . S
C1174 N1178 1.427 . S
C1175 H1165 0.929 . S
C1175 C1173 1.433 . S
C1175 N1178 1.384 . S
C1176 H1167 0.929 . S
C1176 C1168 1.378 . S
C1176 C1171 1.350 . S
C1177 H1164 0.929 . S
C1177 C1169 1.433 . S
C1177 N1179 1.384 . S
N1178 C1174 1.427 . S
N1178 C1175 1.384 . S
N1179 C1171 1.427 . S
N1179 C1177 1.384 . S
H1180 C1186 0.930 . S
H1181 C1190 0.930 . S
H1182 C1195 0.929 . S
H1183 C1193 0.929 . S
H1184 C1188 0.929 . S
H1185 C1194 0.929 . S
C1186 H1180 0.930 . S
C1186 C1187 1.367 . S
C1186 C1194 1.378 . S
C1187 C1186 1.367 . S
C1187 C1195 1.433 . S
C1188 H1184 0.929 . S
C1188 C1190 1.378 . S
C1188 C1192 1.350 . S
C1189 C1192 1.463 . S
C1189 C1194 1.350 . S
C1189 N1197 1.427 . S
C1190 H1181 0.930 . S
C1190 C1188 1.378 . S
C1190 C1191 1.367 . S
C1191 C1190 1.367 . S
C1191 C1193 1.433 . S
C1192 C1188 1.350 . S
C1192 C1189 1.463 . S
C1192 N1196 1.427 . S
C1193 H1183 0.929 . S
C1193 C1191 1.433 . S
C1193 N1196 1.384 . S
C1194 H1185 0.929 . S
C1194 C1186 1.378 . S
C1194 C1189 1.350 . S
C1195 H1182 0.929 . S
C1195 C1187 1.433 . S
C1195 N1197 1.384 . S
N1196 C1192 1.427 . S
N1196 C1193 1.384 . S
N1197 C1189 1.427 . S
N1197 C1195 1.384 . S
H1198 C1204 0.930 . S
H1199 C1208 0.930 . S
H1200 C1213 0.929 . S
H1201 C1211 0.929 1_655 S
H1202 C1206 0.929 . S
H1203 C1212 0.929 . S
C1204 H1198 0.930 . S
C1204 C1205 1.367 1_655 S
C1204 C1212 1.378 . S
C1205 C1204 1.367 1_455 S
C1205 C1213 1.433 . S
C1206 H1202 0.929 . S
C1206 C1208 1.378 1_556 S
C1206 C1210 1.350 . S
C1207 C1210 1.463 . S
C1207 C1212 1.350 1_455 S
C1207 N1215 1.427 . S
C1208 H1199 0.930 . S
C1208 C1206 1.378 1_554 S
C1208 C1209 1.367 . S
C1209 C1208 1.367 . S
C1209 C1211 1.433 . S
C1210 C1206 1.350 . S
C1210 C1207 1.463 . S
C1210 N1214 1.427 1_556 S
C1211 H1201 0.929 1_455 S
C1211 C1209 1.433 . S
C1211 N1214 1.384 . S
C1212 H1203 0.929 . S
C1212 C1204 1.378 . S
C1212 C1207 1.350 1_655 S
C1213 H1200 0.929 . S
C1213 C1205 1.433 . S
C1213 N1215 1.384 . S
N1214 C1210 1.427 1_554 S
N1214 C1211 1.384 . S
N1215 C1207 1.427 . S
N1215 C1213 1.384 . S
H1216 C1222 0.930 . S
H1217 C1226 0.930 . S
H1218 C1231 0.929 . S
H1219 C1229 0.929 . S
H1220 C1224 0.929 . S
H1221 C1230 0.929 . S
C1222 H1216 0.930 . S
C1222 C1223 1.367 . S
C1222 C1230 1.378 . S
C1223 C1222 1.367 . S
C1223 C1231 1.433 . S
C1224 H1220 0.929 . S
C1224 C1226 1.378 . S
C1224 C1228 1.350 . S
C1225 C1228 1.463 . S
C1225 C1230 1.350 . S
C1225 N1233 1.427 . S
C1226 H1217 0.930 . S
C1226 C1224 1.378 . S
C1226 C1227 1.367 . S
C1227 C1226 1.367 . S
C1227 C1229 1.433 . S
C1228 C1224 1.350 . S
C1228 C1225 1.463 . S
C1228 N1232 1.427 . S
C1229 H1219 0.929 . S
C1229 C1227 1.433 . S
C1229 N1232 1.384 . S
C1230 H1221 0.929 . S
C1230 C1222 1.378 . S
C1230 C1225 1.350 . S
C1231 H1218 0.929 . S
C1231 C1223 1.433 . S
C1231 N1233 1.384 . S
N1232 C1228 1.427 . S
N1232 C1229 1.384 . S
N1233 C1225 1.427 . S
N1233 C1231 1.384 . S
H1234 C1240 0.930 . S
H1235 C1244 0.930 . S
H1236 C1249 0.929 . S
H1237 C1247 0.929 . S
H1238 C1242 0.929 . S
H1239 C1248 0.929 . S
C1240 H1234 0.930 . S
C1240 C1241 1.367 . S
C1240 C1248 1.378 . S
C1241 C1240 1.367 . S
C1241 C1249 1.433 . S
C1242 H1238 0.929 . S
C1242 C1244 1.378 . S
C1242 C1246 1.350 . S
C1243 C1246 1.463 . S
C1243 C1248 1.350 . S
C1243 N1251 1.427 . S
C1244 H1235 0.930 . S
C1244 C1242 1.378 . S
C1244 C1245 1.367 . S
C1245 C1244 1.367 . S
C1245 C1247 1.433 . S
C1246 C1242 1.350 . S
C1246 C1243 1.463 . S
C1246 N1250 1.427 . S
C1247 H1237 0.929 . S
C1247 C1245 1.433 . S
C1247 N1250 1.384 . S
C1248 H1239 0.929 . S
C1248 C1240 1.378 . S
C1248 C1243 1.350 . S
C1249 H1236 0.929 . S
C1249 C1241 1.433 . S
C1249 N1251 1.384 . S
N1250 C1246 1.427 . S
N1250 C1247 1.384 . S
N1251 C1243 1.427 . S
N1251 C1249 1.384 . S
H1252 C1258 0.930 . S
H1253 C1262 0.930 . S
H1254 C1267 0.929 . S
H1255 C1265 0.929 . S
H1256 C1260 0.929 . S
H1257 C1266 0.929 . S
C1258 H1252 0.930 . S
C1258 C1259 1.367 . S
C1258 C1266 1.378 . S
C1259 C1258 1.367 . S
C1259 C1267 1.433 . S
C1260 H1256 0.929 . S
C1260 C1262 1.378 . S
C1260 C1264 1.350 . S
C1261 C1264 1.463 . S
C1261 C1266 1.350 . S
C1261 N1269 1.427 . S
C1262 H1253 0.930 . S
C1262 C1260 1.378 . S
C1262 C1263 1.367 . S
C1263 C1262 1.367 . S
C1263 C1265 1.433 . S
C1264 C1260 1.350 . S
C1264 C1261 1.463 . S
C1264 N1268 1.427 . S
C1265 H1255 0.929 . S
C1265 C1263 1.433 . S
C1265 N1268 1.384 . S
C1266 H1257 0.929 . S
C1266 C1258 1.378 . S
C1266 C1261 1.350 . S
C1267 H1254 0.929 . S
C1267 C1259 1.433 . S
C1267 N1269 1.384 . S
N1268 C1264 1.427 . S
N1268 C1265 1.384 . S
N1269 C1261 1.427 . S
N1269 C1267 1.384 . S
H1270 C1276 0.930 . S
H1271 C1280 0.930 . S
H1272 C1285 0.929 . S
H1273 C1283 0.929 . S
H1274 C1278 0.929 . S
H1275 C1284 0.929 . S
C1276 H1270 0.930 . S
C1276 C1277 1.367 . S
C1276 C1284 1.378 . S
C1277 C1276 1.367 . S
C1277 C1285 1.433 . S
C1278 H1274 0.929 . S
C1278 C1280 1.378 1_554 S
C1278 C1282 1.350 . S
C1279 C1282 1.463 . S
C1279 C1284 1.350 . S
C1279 N1287 1.427 . S
C1280 H1271 0.930 . S
C1280 C1278 1.378 1_556 S
C1280 C1281 1.367 . S
C1281 C1280 1.367 . S
C1281 C1283 1.433 . S
C1282 C1278 1.350 . S
C1282 C1279 1.463 . S
C1282 N1286 1.427 . S
C1283 H1273 0.929 . S
C1283 C1281 1.433 . S
C1283 N1286 1.384 1_556 S
C1284 H1275 0.929 . S
C1284 C1276 1.378 . S
C1284 C1279 1.350 . S
C1285 H1272 0.929 . S
C1285 C1277 1.433 . S
C1285 N1287 1.384 . S
N1286 C1282 1.427 . S
N1286 C1283 1.384 1_554 S
N1287 C1279 1.427 . S
N1287 C1285 1.384 . S
H1288 C1294 0.930 . S
H1289 C1298 0.930 . S
H1290 C1303 0.929 . S
H1291 C1301 0.929 . S
H1292 C1296 0.929 . S
H1293 C1302 0.929 . S
C1294 H1288 0.930 . S
C1294 C1295 1.367 . S
C1294 C1302 1.378 . S
C1295 C1294 1.367 . S
C1295 C1303 1.433 . S
C1296 H1292 0.929 . S
C1296 C1298 1.378 . S
C1296 C1300 1.350 . S
C1297 C1300 1.463 . S
C1297 C1302 1.350 . S
C1297 N1305 1.427 . S
C1298 H1289 0.930 . S
C1298 C1296 1.378 . S
C1298 C1299 1.367 . S
C1299 C1298 1.367 . S
C1299 C1301 1.433 . S
C1300 C1296 1.350 . S
C1300 C1297 1.463 . S
C1300 N1304 1.427 . S
C1301 H1291 0.929 . S
C1301 C1299 1.433 . S
C1301 N1304 1.384 . S
C1302 H1293 0.929 . S
C1302 C1294 1.378 . S
C1302 C1297 1.350 . S
C1303 H1290 0.929 . S
C1303 C1295 1.433 . S
C1303 N1305 1.384 . S
N1304 C1300 1.427 . S
N1304 C1301 1.384 . S
N1305 C1297 1.427 . S
N1305 C1303 1.384 . S
H1306 C1312 0.930 . S
H1307 C1316 0.930 . S
H1308 C1321 0.929 . S
H1309 C1319 0.929 . S
H1310 C1314 0.929 . S
H1311 C1320 0.929 . S
C1312 H1306 0.930 . S
C1312 C1313 1.367 . S
C1312 C1320 1.378 . S
C1313 C1312 1.367 . S
C1313 C1321 1.433 . S
C1314 H1310 0.929 . S
C1314 C1316 1.378 . S
C1314 C1318 1.350 . S
C1315 C1318 1.463 . S
C1315 C1320 1.350 . S
C1315 N1323 1.427 . S
C1316 H1307 0.930 . S
C1316 C1314 1.378 . S
C1316 C1317 1.367 . S
C1317 C1316 1.367 . S
C1317 C1319 1.433 . S
C1318 C1314 1.350 . S
C1318 C1315 1.463 . S
C1318 N1322 1.427 . S
C1319 H1309 0.929 . S
C1319 C1317 1.433 . S
C1319 N1322 1.384 . S
C1320 H1311 0.929 . S
C1320 C1312 1.378 . S
C1320 C1315 1.350 . S
C1321 H1308 0.929 . S
C1321 C1313 1.433 . S
C1321 N1323 1.384 . S
N1322 C1318 1.427 . S
N1322 C1319 1.384 . S
N1323 C1315 1.427 . S
N1323 C1321 1.384 . S
H1324 C1330 0.930 . S
H1325 C1334 0.930 . S
H1326 C1339 0.929 1_556 S
H1327 C1337 0.929 . S
H1328 C1332 0.929 . S
H1329 C1338 0.929 . S
C1330 H1324 0.930 . S
C1330 C1331 1.367 . S
C1330 C1338 1.378 . S
C1331 C1330 1.367 . S
C1331 C1339 1.433 . S
C1332 H1328 0.929 . S
C1332 C1334 1.378 . S
C1332 C1336 1.350 . S
C1333 C1336 1.463 . S
C1333 C1338 1.350 . S
C1333 N1341 1.427 . S
C1334 H1325 0.930 . S
C1334 C1332 1.378 . S
C1334 C1335 1.367 . S
C1335 C1334 1.367 . S
C1335 C1337 1.433 . S
C1336 C1332 1.350 . S
C1336 C1333 1.463 . S
C1336 N1340 1.427 . S
C1337 H1327 0.929 . S
C1337 C1335 1.433 . S
C1337 N1340 1.384 . S
C1338 H1329 0.929 . S
C1338 C1330 1.378 . S
C1338 C1333 1.350 . S
C1339 H1326 0.929 1_554 S
C1339 C1331 1.433 . S
C1339 N1341 1.384 . S
N1340 C1336 1.427 . S
N1340 C1337 1.384 . S
N1341 C1333 1.427 . S
N1341 C1339 1.384 . S
H1342 C1348 0.930 . S
H1343 C1352 0.930 . S
H1344 C1357 0.929 . S
H1345 C1355 0.929 . S
H1346 C1350 0.929 . S
H1347 C1356 0.929 . S
C1348 H1342 0.930 . S
C1348 C1349 1.367 . S
C1348 C1356 1.378 . S
C1349 C1348 1.367 . S
C1349 C1357 1.433 . S
C1350 H1346 0.929 . S
C1350 C1352 1.378 1_556 S
C1350 C1354 1.350 . S
C1351 C1354 1.463 . S
C1351 C1356 1.350 . S
C1351 N1359 1.427 . S
C1352 H1343 0.930 . S
C1352 C1350 1.378 1_554 S
C1352 C1353 1.367 . S
C1353 C1352 1.367 . S
C1353 C1355 1.433 . S
C1354 C1350 1.350 . S
C1354 C1351 1.463 . S
C1354 N1358 1.427 1_556 S
C1355 H1345 0.929 . S
C1355 C1353 1.433 . S
C1355 N1358 1.384 . S
C1356 H1347 0.929 . S
C1356 C1348 1.378 . S
C1356 C1351 1.350 . S
C1357 H1344 0.929 . S
C1357 C1349 1.433 . S
C1357 N1359 1.384 . S
N1358 C1354 1.427 1_554 S
N1358 C1355 1.384 . S
N1359 C1351 1.427 . S
N1359 C1357 1.384 . S
H1360 C1366 0.930 . S
H1361 C1370 0.930 1_554 S
H1362 C1375 0.929 . S
H1363 C1373 0.929 . S
H1364 C1368 0.929 . S
H1365 C1374 0.929 . S
C1366 H1360 0.930 . S
C1366 C1367 1.367 . S
C1366 C1374 1.378 . S
C1367 C1366 1.367 . S
C1367 C1375 1.433 . S
C1368 H1364 0.929 . S
C1368 C1370 1.378 . S
C1368 C1372 1.350 . S
C1369 C1372 1.463 . S
C1369 C1374 1.350 . S
C1369 N1377 1.427 . S
C1370 H1361 0.930 1_556 S
C1370 C1368 1.378 . S
C1370 C1371 1.367 . S
C1371 C1370 1.367 . S
C1371 C1373 1.433 . S
C1372 C1368 1.350 . S
C1372 C1369 1.463 . S
C1372 N1376 1.427 . S
C1373 H1363 0.929 . S
C1373 C1371 1.433 . S
C1373 N1376 1.384 . S
C1374 H1365 0.929 . S
C1374 C1366 1.378 . S
C1374 C1369 1.350 . S
C1375 H1362 0.929 . S
C1375 C1367 1.433 . S
C1375 N1377 1.384 . S
N1376 C1372 1.427 . S
N1376 C1373 1.384 . S
N1377 C1369 1.427 . S
N1377 C1375 1.384 . S
H1378 C1384 0.930 . S
H1379 C1388 0.930 . S
H1380 C1393 0.929 . S
H1381 C1391 0.929 . S
H1382 C1386 0.929 . S
H1383 C1392 0.929 . S
C1384 H1378 0.930 . S
C1384 C1385 1.367 . S
C1384 C1392 1.378 . S
C1385 C1384 1.367 . S
C1385 C1393 1.433 . S
C1386 H1382 0.929 . S
C1386 C1388 1.378 . S
C1386 C1390 1.350 . S
C1387 C1390 1.463 . S
C1387 C1392 1.350 . S
C1387 N1395 1.427 . S
C1388 H1379 0.930 . S
C1388 C1386 1.378 . S
C1388 C1389 1.367 . S
C1389 C1388 1.367 . S
C1389 C1391 1.433 . S
C1390 C1386 1.350 . S
C1390 C1387 1.463 . S
C1390 N1394 1.427 . S
C1391 H1381 0.929 . S
C1391 C1389 1.433 . S
C1391 N1394 1.384 . S
C1392 H1383 0.929 . S
C1392 C1384 1.378 . S
C1392 C1387 1.350 . S
C1393 H1380 0.929 . S
C1393 C1385 1.433 . S
C1393 N1395 1.384 . S
N1394 C1390 1.427 . S
N1394 C1391 1.384 . S
N1395 C1387 1.427 . S
N1395 C1393 1.384 . S
H1396 C1402 0.930 . S
H1397 C1406 0.930 . S
H1398 C1411 0.929 1_455 S
H1399 C1409 0.929 . S
H1400 C1404 0.929 . S
H1401 C1410 0.929 . S
C1402 H1396 0.930 . S
C1402 C1403 1.367 . S
C1402 C1410 1.378 . S
C1403 C1402 1.367 . S
C1403 C1411 1.433 . S
C1404 H1400 0.929 . S
C1404 C1406 1.378 . S
C1404 C1408 1.350 . S
C1405 C1408 1.463 . S
C1405 C1410 1.350 . S
C1405 N1413 1.427 . S
C1406 H1397 0.930 . S
C1406 C1404 1.378 . S
C1406 C1407 1.367 . S
C1407 C1406 1.367 . S
C1407 C1409 1.433 . S
C1408 C1404 1.350 . S
C1408 C1405 1.463 . S
C1408 N1412 1.427 . S
C1409 H1399 0.929 . S
C1409 C1407 1.433 . S
C1409 N1412 1.384 . S
C1410 H1401 0.929 . S
C1410 C1402 1.378 . S
C1410 C1405 1.350 . S
C1411 H1398 0.929 1_655 S
C1411 C1403 1.433 . S
C1411 N1413 1.384 . S
N1412 C1408 1.427 . S
N1412 C1409 1.384 . S
N1413 C1405 1.427 . S
N1413 C1411 1.384 . S
H1414 C1420 0.930 . S
H1415 C1424 0.930 . S
H1416 C1429 0.929 . S
H1417 C1427 0.929 . S
H1418 C1422 0.929 . S
H1419 C1428 0.929 . S
C1420 H1414 0.930 . S
C1420 C1421 1.367 . S
C1420 C1428 1.378 . S
C1421 C1420 1.367 . S
C1421 C1429 1.433 . S
C1422 H1418 0.929 . S
C1422 C1424 1.378 . S
C1422 C1426 1.350 . S
C1423 C1426 1.463 . S
C1423 C1428 1.350 . S
C1423 N1431 1.427 . S
C1424 H1415 0.930 . S
C1424 C1422 1.378 . S
C1424 C1425 1.367 . S
C1425 C1424 1.367 . S
C1425 C1427 1.433 . S
C1426 C1422 1.350 . S
C1426 C1423 1.463 . S
C1426 N1430 1.427 . S
C1427 H1417 0.929 . S
C1427 C1425 1.433 . S
C1427 N1430 1.384 . S
C1428 H1419 0.929 . S
C1428 C1420 1.378 . S
C1428 C1423 1.350 . S
C1429 H1416 0.929 . S
C1429 C1421 1.433 . S
C1429 N1431 1.384 . S
N1430 C1426 1.427 . S
N1430 C1427 1.384 . S
N1431 C1423 1.427 . S
N1431 C1429 1.384 . S
H1432 C1438 0.930 . S
H1433 C1442 0.930 . S
H1434 C1447 0.929 . S
H1435 C1445 0.929 . S
H1436 C1440 0.929 . S
H1437 C1446 0.929 . S
C1438 H1432 0.930 . S
C1438 C1439 1.367 . S
C1438 C1446 1.378 . S
C1439 C1438 1.367 . S
C1439 C1447 1.433 . S
C1440 H1436 0.929 . S
C1440 C1442 1.378 . S
C1440 C1444 1.350 . S
C1441 C1444 1.463 . S
C1441 C1446 1.350 . S
C1441 N1449 1.427 . S
C1442 H1433 0.930 . S
C1442 C1440 1.378 . S
C1442 C1443 1.367 . S
C1443 C1442 1.367 . S
C1443 C1445 1.433 . S
C1444 C1440 1.350 . S
C1444 C1441 1.463 . S
C1444 N1448 1.427 . S
C1445 H1435 0.929 . S
C1445 C1443 1.433 . S
C1445 N1448 1.384 . S
C1446 H1437 0.929 . S
C1446 C1438 1.378 . S
C1446 C1441 1.350 . S
C1447 H1434 0.929 . S
C1447 C1439 1.433 . S
C1447 N1449 1.384 . S
N1448 C1444 1.427 . S
N1448 C1445 1.384 . S
N1449 C1441 1.427 . S
N1449 C1447 1.384 . S
H1450 C1456 0.930 . S
H1451 C1460 0.930 . S
H1452 C1465 0.929 . S
H1453 C1463 0.929 . S
H1454 C1458 0.929 . S
H1455 C1464 0.929 . S
C1456 H1450 0.930 . S
C1456 C1457 1.367 . S
C1456 C1464 1.378 . S
C1457 C1456 1.367 . S
C1457 C1465 1.433 . S
C1458 H1454 0.929 . S
C1458 C1460 1.378 . S
C1458 C1462 1.350 . S
C1459 C1462 1.463 . S
C1459 C1464 1.350 . S
C1459 N1467 1.427 . S
C1460 H1451 0.930 . S
C1460 C1458 1.378 . S
C1460 C1461 1.367 . S
C1461 C1460 1.367 . S
C1461 C1463 1.433 . S
C1462 C1458 1.350 . S
C1462 C1459 1.463 . S
C1462 N1466 1.427 . S
C1463 H1453 0.929 . S
C1463 C1461 1.433 . S
C1463 N1466 1.384 . S
C1464 H1455 0.929 . S
C1464 C1456 1.378 . S
C1464 C1459 1.350 . S
C1465 H1452 0.929 . S
C1465 C1457 1.433 . S
C1465 N1467 1.384 . S
N1466 C1462 1.427 . S
N1466 C1463 1.384 . S
N1467 C1459 1.427 . S
N1467 C1465 1.384 . S
H1468 C1474 0.930 . S
H1469 C1478 0.930 . S
H1470 C1483 0.929 . S
H1471 C1481 0.929 . S
H1472 C1476 0.929 . S
H1473 C1482 0.929 . S
C1474 H1468 0.930 . S
C1474 C1475 1.367 . S
C1474 C1482 1.378 . S
C1475 C1474 1.367 . S
C1475 C1483 1.433 . S
C1476 H1472 0.929 . S
C1476 C1478 1.378 . S
C1476 C1480 1.350 . S
C1477 C1480 1.463 . S
C1477 C1482 1.350 . S
C1477 N1485 1.427 . S
C1478 H1469 0.930 . S
C1478 C1476 1.378 . S
C1478 C1479 1.367 . S
C1479 C1478 1.367 . S
C1479 C1481 1.433 . S
C1480 C1476 1.350 . S
C1480 C1477 1.463 . S
C1480 N1484 1.427 . S
C1481 H1471 0.929 . S
C1481 C1479 1.433 . S
C1481 N1484 1.384 . S
C1482 H1473 0.929 . S
C1482 C1474 1.378 . S
C1482 C1477 1.350 . S
C1483 H1470 0.929 . S
C1483 C1475 1.433 . S
C1483 N1485 1.384 . S
N1484 C1480 1.427 . S
N1484 C1481 1.384 . S
N1485 C1477 1.427 . S
N1485 C1483 1.384 . S
H1486 C1492 0.930 . S
H1487 C1496 0.930 . S
H1488 C1501 0.929 . S
H1489 C1499 0.929 . S
H1490 C1494 0.929 . S
H1491 C1500 0.929 . S
C1492 H1486 0.930 . S
C1492 C1493 1.367 . S
C1492 C1500 1.378 . S
C1493 C1492 1.367 . S
C1493 C1501 1.433 . S
C1494 H1490 0.929 . S
C1494 C1496 1.378 . S
C1494 C1498 1.350 . S
C1495 C1498 1.463 . S
C1495 C1500 1.350 . S
C1495 N1503 1.427 . S
C1496 H1487 0.930 . S
C1496 C1494 1.378 . S
C1496 C1497 1.367 . S
C1497 C1496 1.367 . S
C1497 C1499 1.433 . S
C1498 C1494 1.350 . S
C1498 C1495 1.463 . S
C1498 N1502 1.427 . S
C1499 H1489 0.929 . S
C1499 C1497 1.433 . S
C1499 N1502 1.384 . S
C1500 H1491 0.929 . S
C1500 C1492 1.378 . S
C1500 C1495 1.350 . S
C1501 H1488 0.929 . S
C1501 C1493 1.433 . S
C1501 N1503 1.384 . S
N1502 C1498 1.427 . S
N1502 C1499 1.384 . S
N1503 C1495 1.427 . S
N1503 C1501 1.384 . S
C647 C20 2.909 1_556 S
C651 C300 2.957 . S
C665 C60 2.899 . S
C669 C180 2.940 1_554 S
C683 C220 2.130 . S
C687 C105 2.117 . S
C701 C145 2.152 . S
C705 C260 2.174 . S
C719 C471 0.244 . S
C723 C164 0.466 . S
C737 C324 0.767 . S
C741 C4 0.665 . S
C755 C404 0.707 . S
C759 C244 0.794 . S
C773 C111 0.268 . S
C777 C364 0.451 . S
C791 C380 2.955 . S
C795 C500 2.907 . S
C809 C420 2.899 . S
C813 C580 2.940 . S
C827 C545 2.117 . S
C831 C340 2.130 . S
C845 C465 2.151 . S
C849 C620 2.174 . S
C863 C564 0.483 . S
C867 C151 0.225 . S
C881 C484 0.648 . S
C885 C204 0.781 . S
C899 C44 0.709 . S
C903 C604 0.789 . S
C917 C284 0.479 . S
C921 C551 0.273 . S
C935 C543 0.601 . S
C939 C2 0.591 . S
C953 C463 0.582 . S
C957 C42 0.602 . S
C971 C482 0.573 . S
C975 C103 0.624 . S
C989 C402 0.578 . S
C993 C143 0.608 . S
C1007 C162 0.970 1_455 S
C1011 C602 0.897 . S
C1025 C362 0.959 . S
C1029 C202 0.862 . S
C1043 C242 0.901 . S
C1047 C562 0.979 . S
C1061 C282 0.972 . S
C1065 C322 0.885 . S
C1079 C23 1.199 . S
C1083 C183 1.207 . S
C1097 C63 1.579 . S
C1101 C223 1.565 . S
C1115 C263 1.631 . S
C1119 C82 1.650 . S
C1133 C122 1.257 . S
C1137 C303 1.265 . S
C1151 C423 1.581 . S
C1155 C343 1.579 . S
C1169 C442 1.268 . S
C1173 C383 1.276 . S
C1187 C503 1.207 . S
C1191 C583 1.220 . S
C1205 C623 1.618 . S
C1209 C522 1.639 . S
C1223 C25 0.442 . S
C1227 C305 0.499 . S
C1241 C65 0.407 . S
C1245 C185 0.438 . S
C1259 C225 0.850 . S
C1263 C100 0.881 . S
C1277 C265 0.836 . S
C1281 C140 0.872 . S
C1295 C444 2.724 . S
C1299 C191 2.805 . S
C1313 C351 3.530 . S
C1317 C31 3.495 . S
C1331 C431 3.431 1_554 S
C1335 C271 3.468 . S
C1349 C84 2.682 . S
C1353 C391 2.774 . S
C1367 C505 0.436 . S
C1371 C385 0.482 . S
C1385 C585 0.435 . S
C1389 C425 0.427 . S
C1403 C540 0.874 . S
C1407 C345 0.832 . S
C1421 C625 0.828 . S
C1425 C460 0.869 . S
C1439 C591 2.806 . S
C1443 C124 2.719 . S
C1457 C231 3.528 1_556 S
C1461 C511 3.499 . S
C1475 C71 3.431 . S
C1479 C631 3.468 . S
C1493 C524 2.684 . S
C1497 C311 2.773 . S
