# Generated by pormake.
# Topology ull, (4)-cn, num edge types: 1
# Building blocks:
#     Node 0, Type 0, BuildingBlock: QUQFOY_clean_sbu_1, # of connection points: 4
#     Node 1, Type 0, BuildingBlock: QUQFOY_clean_sbu_1, # of connection points: 4
#     Node 2, Type 0, BuildingBlock: QUQFOY_clean_sbu_1, # of connection points: 4
#     Node 3, Type 0, BuildingBlock: QUQFOY_clean_sbu_1, # of connection points: 4
#     Node 4, Type 0, BuildingBlock: QUQFOY_clean_sbu_1, # of connection points: 4
#     Node 5, Type 0, BuildingBlock: QUQFOY_clean_sbu_1, # of connection points: 4
#     Node 6, Type 0, BuildingBlock: QUQFOY_clean_sbu_1, # of connection points: 4
#     Node 7, Type 0, BuildingBlock: QUQFOY_clean_sbu_1, # of connection points: 4
#     Node 8, Type 0, BuildingBlock: QUQFOY_clean_sbu_1, # of connection points: 4
#     Node 9, Type 0, BuildingBlock: QUQFOY_clean_sbu_1, # of connection points: 4
#     Node 10, Type 0, BuildingBlock: QUQFOY_clean_sbu_1, # of connection points: 4
#     Node 11, Type 0, BuildingBlock: QUQFOY_clean_sbu_1, # of connection points: 4
#     Node 12, Type 0, BuildingBlock: QUQFOY_clean_sbu_1, # of connection points: 4
#     Node 13, Type 0, BuildingBlock: QUQFOY_clean_sbu_1, # of connection points: 4
#     Node 14, Type 0, BuildingBlock: QUQFOY_clean_sbu_1, # of connection points: 4
#     Node 15, Type 0, BuildingBlock: QUQFOY_clean_sbu_1, # of connection points: 4
#     Node 16, Type 0, BuildingBlock: QUQFOY_clean_sbu_1, # of connection points: 4
#     Node 17, Type 0, BuildingBlock: QUQFOY_clean_sbu_1, # of connection points: 4
#     Node 18, Type 0, BuildingBlock: QUQFOY_clean_sbu_1, # of connection points: 4
#     Node 19, Type 0, BuildingBlock: QUQFOY_clean_sbu_1, # of connection points: 4
#     Node 20, Type 0, BuildingBlock: QUQFOY_clean_sbu_1, # of connection points: 4
#     Node 21, Type 0, BuildingBlock: QUQFOY_clean_sbu_1, # of connection points: 4
#     Node 22, Type 0, BuildingBlock: QUQFOY_clean_sbu_1, # of connection points: 4
#     Node 23, Type 0, BuildingBlock: QUQFOY_clean_sbu_1, # of connection points: 4
#     Node 24, Type 0, BuildingBlock: QUQFOY_clean_sbu_1, # of connection points: 4
#     Node 25, Type 0, BuildingBlock: QUQFOY_clean_sbu_1, # of connection points: 4
#     Node 26, Type 0, BuildingBlock: QUQFOY_clean_sbu_1, # of connection points: 4
#     Node 27, Type 0, BuildingBlock: QUQFOY_clean_sbu_1, # of connection points: 4
#     Node 28, Type 0, BuildingBlock: QUQFOY_clean_sbu_1, # of connection points: 4
#     Node 29, Type 0, BuildingBlock: QUQFOY_clean_sbu_1, # of connection points: 4
#     Node 30, Type 0, BuildingBlock: QUQFOY_clean_sbu_1, # of connection points: 4
#     Node 31, Type 0, BuildingBlock: QUQFOY_clean_sbu_1, # of connection points: 4
#     Node 32, Type 0, BuildingBlock: QUQFOY_clean_sbu_1, # of connection points: 4
#     Node 33, Type 0, BuildingBlock: QUQFOY_clean_sbu_1, # of connection points: 4
#     Node 34, Type 0, BuildingBlock: QUQFOY_clean_sbu_1, # of connection points: 4
#     Node 35, Type 0, BuildingBlock: QUQFOY_clean_sbu_1, # of connection points: 4
#     Node 36, Type 0, BuildingBlock: QUQFOY_clean_sbu_1, # of connection points: 4
#     Node 37, Type 0, BuildingBlock: QUQFOY_clean_sbu_1, # of connection points: 4
#     Node 38, Type 0, BuildingBlock: QUQFOY_clean_sbu_1, # of connection points: 4
#     Node 39, Type 0, BuildingBlock: QUQFOY_clean_sbu_1, # of connection points: 4
#     Node 40, Type 0, BuildingBlock: QUQFOY_clean_sbu_1, # of connection points: 4
#     Node 41, Type 0, BuildingBlock: QUQFOY_clean_sbu_1, # of connection points: 4
#     Node 42, Type 0, BuildingBlock: QUQFOY_clean_sbu_1, # of connection points: 4
#     Node 43, Type 0, BuildingBlock: QUQFOY_clean_sbu_1, # of connection points: 4
#     Node 44, Type 0, BuildingBlock: QUQFOY_clean_sbu_1, # of connection points: 4
#     Node 45, Type 0, BuildingBlock: QUQFOY_clean_sbu_1, # of connection points: 4
#     Node 46, Type 0, BuildingBlock: QUQFOY_clean_sbu_1, # of connection points: 4
#     Node 47, Type 0, BuildingBlock: QUQFOY_clean_sbu_1, # of connection points: 4
#     Edge 48, Type (0, 0), BuildingBlock: OJICUG_clean_linker_0, # of connection points: 2
#     Edge 49, Type (0, 0), BuildingBlock: OJICUG_clean_linker_0, # of connection points: 2
#     Edge 50, Type (0, 0), BuildingBlock: OJICUG_clean_linker_0, # of connection points: 2
#     Edge 51, Type (0, 0), BuildingBlock: OJICUG_clean_linker_0, # of connection points: 2
#     Edge 52, Type (0, 0), BuildingBlock: OJICUG_clean_linker_0, # of connection points: 2
#     Edge 53, Type (0, 0), BuildingBlock: OJICUG_clean_linker_0, # of connection points: 2
#     Edge 54, Type (0, 0), BuildingBlock: OJICUG_clean_linker_0, # of connection points: 2
#     Edge 55, Type (0, 0), BuildingBlock: OJICUG_clean_linker_0, # of connection points: 2
#     Edge 56, Type (0, 0), BuildingBlock: OJICUG_clean_linker_0, # of connection points: 2
#     Edge 57, Type (0, 0), BuildingBlock: OJICUG_clean_linker_0, # of connection points: 2
#     Edge 58, Type (0, 0), BuildingBlock: OJICUG_clean_linker_0, # of connection points: 2
#     Edge 59, Type (0, 0), BuildingBlock: OJICUG_clean_linker_0, # of connection points: 2
#     Edge 60, Type (0, 0), BuildingBlock: OJICUG_clean_linker_0, # of connection points: 2
#     Edge 61, Type (0, 0), BuildingBlock: OJICUG_clean_linker_0, # of connection points: 2
#     Edge 62, Type (0, 0), BuildingBlock: OJICUG_clean_linker_0, # of connection points: 2
#     Edge 63, Type (0, 0), BuildingBlock: OJICUG_clean_linker_0, # of connection points: 2
#     Edge 64, Type (0, 0), BuildingBlock: OJICUG_clean_linker_0, # of connection points: 2
#     Edge 65, Type (0, 0), BuildingBlock: OJICUG_clean_linker_0, # of connection points: 2
#     Edge 66, Type (0, 0), BuildingBlock: OJICUG_clean_linker_0, # of connection points: 2
#     Edge 67, Type (0, 0), BuildingBlock: OJICUG_clean_linker_0, # of connection points: 2
#     Edge 68, Type (0, 0), BuildingBlock: OJICUG_clean_linker_0, # of connection points: 2
#     Edge 69, Type (0, 0), BuildingBlock: OJICUG_clean_linker_0, # of connection points: 2
#     Edge 70, Type (0, 0), BuildingBlock: OJICUG_clean_linker_0, # of connection points: 2
#     Edge 71, Type (0, 0), BuildingBlock: OJICUG_clean_linker_0, # of connection points: 2
#     Edge 72, Type (0, 0), BuildingBlock: OJICUG_clean_linker_0, # of connection points: 2
#     Edge 73, Type (0, 0), BuildingBlock: OJICUG_clean_linker_0, # of connection points: 2
#     Edge 74, Type (0, 0), BuildingBlock: OJICUG_clean_linker_0, # of connection points: 2
#     Edge 75, Type (0, 0), BuildingBlock: OJICUG_clean_linker_0, # of connection points: 2
#     Edge 76, Type (0, 0), BuildingBlock: OJICUG_clean_linker_0, # of connection points: 2
#     Edge 77, Type (0, 0), BuildingBlock: OJICUG_clean_linker_0, # of connection points: 2
#     Edge 78, Type (0, 0), BuildingBlock: OJICUG_clean_linker_0, # of connection points: 2
#     Edge 79, Type (0, 0), BuildingBlock: OJICUG_clean_linker_0, # of connection points: 2
#     Edge 80, Type (0, 0), BuildingBlock: OJICUG_clean_linker_0, # of connection points: 2
#     Edge 81, Type (0, 0), BuildingBlock: OJICUG_clean_linker_0, # of connection points: 2
#     Edge 82, Type (0, 0), BuildingBlock: OJICUG_clean_linker_0, # of connection points: 2
#     Edge 83, Type (0, 0), BuildingBlock: OJICUG_clean_linker_0, # of connection points: 2
#     Edge 84, Type (0, 0), BuildingBlock: OJICUG_clean_linker_0, # of connection points: 2
#     Edge 85, Type (0, 0), BuildingBlock: OJICUG_clean_linker_0, # of connection points: 2
#     Edge 86, Type (0, 0), BuildingBlock: OJICUG_clean_linker_0, # of connection points: 2
#     Edge 87, Type (0, 0), BuildingBlock: OJICUG_clean_linker_0, # of connection points: 2
#     Edge 88, Type (0, 0), BuildingBlock: OJICUG_clean_linker_0, # of connection points: 2
#     Edge 89, Type (0, 0), BuildingBlock: OJICUG_clean_linker_0, # of connection points: 2
#     Edge 90, Type (0, 0), BuildingBlock: OJICUG_clean_linker_0, # of connection points: 2
#     Edge 91, Type (0, 0), BuildingBlock: OJICUG_clean_linker_0, # of connection points: 2
#     Edge 92, Type (0, 0), BuildingBlock: OJICUG_clean_linker_0, # of connection points: 2
#     Edge 93, Type (0, 0), BuildingBlock: OJICUG_clean_linker_0, # of connection points: 2
#     Edge 94, Type (0, 0), BuildingBlock: OJICUG_clean_linker_0, # of connection points: 2
#     Edge 95, Type (0, 0), BuildingBlock: OJICUG_clean_linker_0, # of connection points: 2
#     Edge 96, Type (0, 0), BuildingBlock: OJICUG_clean_linker_0, # of connection points: 2
#     Edge 97, Type (0, 0), BuildingBlock: OJICUG_clean_linker_0, # of connection points: 2
#     Edge 98, Type (0, 0), BuildingBlock: OJICUG_clean_linker_0, # of connection points: 2
#     Edge 99, Type (0, 0), BuildingBlock: OJICUG_clean_linker_0, # of connection points: 2
#     Edge 100, Type (0, 0), BuildingBlock: OJICUG_clean_linker_0, # of connection points: 2
#     Edge 101, Type (0, 0), BuildingBlock: OJICUG_clean_linker_0, # of connection points: 2
#     Edge 102, Type (0, 0), BuildingBlock: OJICUG_clean_linker_0, # of connection points: 2
#     Edge 103, Type (0, 0), BuildingBlock: OJICUG_clean_linker_0, # of connection points: 2
#     Edge 104, Type (0, 0), BuildingBlock: OJICUG_clean_linker_0, # of connection points: 2
#     Edge 105, Type (0, 0), BuildingBlock: OJICUG_clean_linker_0, # of connection points: 2
#     Edge 106, Type (0, 0), BuildingBlock: OJICUG_clean_linker_0, # of connection points: 2
#     Edge 107, Type (0, 0), BuildingBlock: OJICUG_clean_linker_0, # of connection points: 2
#     Edge 108, Type (0, 0), BuildingBlock: OJICUG_clean_linker_0, # of connection points: 2
#     Edge 109, Type (0, 0), BuildingBlock: OJICUG_clean_linker_0, # of connection points: 2
#     Edge 110, Type (0, 0), BuildingBlock: OJICUG_clean_linker_0, # of connection points: 2
#     Edge 111, Type (0, 0), BuildingBlock: OJICUG_clean_linker_0, # of connection points: 2
#     Edge 112, Type (0, 0), BuildingBlock: OJICUG_clean_linker_0, # of connection points: 2
#     Edge 113, Type (0, 0), BuildingBlock: OJICUG_clean_linker_0, # of connection points: 2
#     Edge 114, Type (0, 0), BuildingBlock: OJICUG_clean_linker_0, # of connection points: 2
#     Edge 115, Type (0, 0), BuildingBlock: OJICUG_clean_linker_0, # of connection points: 2
#     Edge 116, Type (0, 0), BuildingBlock: OJICUG_clean_linker_0, # of connection points: 2
#     Edge 117, Type (0, 0), BuildingBlock: OJICUG_clean_linker_0, # of connection points: 2
#     Edge 118, Type (0, 0), BuildingBlock: OJICUG_clean_linker_0, # of connection points: 2
#     Edge 119, Type (0, 0), BuildingBlock: OJICUG_clean_linker_0, # of connection points: 2
#     Edge 120, Type (0, 0), BuildingBlock: OJICUG_clean_linker_0, # of connection points: 2
#     Edge 121, Type (0, 0), BuildingBlock: OJICUG_clean_linker_0, # of connection points: 2
#     Edge 122, Type (0, 0), BuildingBlock: OJICUG_clean_linker_0, # of connection points: 2
#     Edge 123, Type (0, 0), BuildingBlock: OJICUG_clean_linker_0, # of connection points: 2
#     Edge 124, Type (0, 0), BuildingBlock: OJICUG_clean_linker_0, # of connection points: 2
#     Edge 125, Type (0, 0), BuildingBlock: OJICUG_clean_linker_0, # of connection points: 2
#     Edge 126, Type (0, 0), BuildingBlock: OJICUG_clean_linker_0, # of connection points: 2
#     Edge 127, Type (0, 0), BuildingBlock: OJICUG_clean_linker_0, # of connection points: 2
#     Edge 128, Type (0, 0), BuildingBlock: OJICUG_clean_linker_0, # of connection points: 2
#     Edge 129, Type (0, 0), BuildingBlock: OJICUG_clean_linker_0, # of connection points: 2
#     Edge 130, Type (0, 0), BuildingBlock: OJICUG_clean_linker_0, # of connection points: 2
#     Edge 131, Type (0, 0), BuildingBlock: OJICUG_clean_linker_0, # of connection points: 2
#     Edge 132, Type (0, 0), BuildingBlock: OJICUG_clean_linker_0, # of connection points: 2
#     Edge 133, Type (0, 0), BuildingBlock: OJICUG_clean_linker_0, # of connection points: 2
#     Edge 134, Type (0, 0), BuildingBlock: OJICUG_clean_linker_0, # of connection points: 2
#     Edge 135, Type (0, 0), BuildingBlock: OJICUG_clean_linker_0, # of connection points: 2
#     Edge 136, Type (0, 0), BuildingBlock: OJICUG_clean_linker_0, # of connection points: 2
#     Edge 137, Type (0, 0), BuildingBlock: OJICUG_clean_linker_0, # of connection points: 2
#     Edge 138, Type (0, 0), BuildingBlock: OJICUG_clean_linker_0, # of connection points: 2
#     Edge 139, Type (0, 0), BuildingBlock: OJICUG_clean_linker_0, # of connection points: 2
#     Edge 140, Type (0, 0), BuildingBlock: OJICUG_clean_linker_0, # of connection points: 2
#     Edge 141, Type (0, 0), BuildingBlock: OJICUG_clean_linker_0, # of connection points: 2
#     Edge 142, Type (0, 0), BuildingBlock: OJICUG_clean_linker_0, # of connection points: 2
#     Edge 143, Type (0, 0), BuildingBlock: OJICUG_clean_linker_0, # of connection points: 2
# Relax obj value: 0.011
# Max RMSD: 0.066
# Mean RMSD: 0.066
data_MOF--net-ull--node1-QUQFOY_clean_sbu_1--edge1-OJICUG_clean_linker_0
_symmetry_space_group_name_H-M    P1
_symmetry_Int_Tables_number       1
_symmetry_cell_setting            triclinic
loop_
_symmetry_equiv_pos_as_xyz
'x, y, z'
_cell_length_a     46.324053
_cell_length_b     46.375499
_cell_length_c     46.376541
_cell_angle_alpha  89.987788
_cell_angle_beta   90.015764
_cell_angle_gamma 90.016082
loop_
_atom_site_label
_atom_site_type_symbol
_atom_site_fract_x
_atom_site_fract_y
_atom_site_fract_z
_atom_type_partial_charge
O0 O 1.00318 0.34455 0.23685 0.0
Cd1 Cd 1.00485 0.38022 0.21014 0.0
Cd2 Cd 0.03409 0.34368 0.17548 0.0
O3 O 0.03366 0.31751 0.21198 0.0
O4 O 1.00551 0.41593 0.23476 0.0
O5 O 0.0435 0.3995 0.21077 0.0
C6 C 0.03275 0.41764 0.22903 0.0
C7 C 0.07468 0.3489 0.145 0.0
C8 C 0.01782 0.3215 0.23411 0.0
C9 C 0.97449 0.36303 0.15626 0.0
O10 O 0.99541 0.3455 0.15372 0.0
O11 O 0.97477 0.38189 0.17628 0.0
O12 O 0.06037 0.32512 0.14664 0.0
O13 O 0.06704 0.36956 0.16201 0.0
O14 O 0.67933 1.00702 0.23685 0.0
Cd15 Cd 0.64312 1.00551 0.21069 0.0
Cd16 Cd 0.67945 0.03454 0.17476 0.0
O17 O 0.70686 0.03539 0.21023 0.0
O18 O 0.61008 1.00375 0.23866 0.0
O19 O 0.6179 0.04091 0.20965 0.0
C20 C 0.60339 0.02956 0.2306 0.0
C21 C 0.67432 0.07431 0.14332 0.0
C22 C 0.70267 0.02099 0.23322 0.0
C23 C 0.66062 0.97368 0.15779 0.0
O24 O 0.6771 0.9953 0.15413 0.0
O25 O 0.64244 0.97354 0.17847 0.0
O26 O 0.69783 0.05955 0.14482 0.0
O27 O 0.6538 0.06751 0.16089 0.0
O28 O 0.02383 0.68198 0.23591 0.0
Cd29 Cd 0.02175 0.64609 0.20958 0.0
Cd30 Cd 0.99224 0.6826 0.17484 0.0
O31 O 0.99351 0.7092 0.21103 0.0
O32 O 0.02174 0.61061 0.2346 0.0
O33 O 0.98325 0.62646 0.211 0.0
C34 C 0.99443 0.60858 0.22927 0.0
C35 C 0.95093 0.67755 0.14515 0.0
C36 C 1.00952 0.70522 0.23305 0.0
C37 C 0.05169 0.6628 0.15529 0.0
O38 O 0.03067 0.68021 0.1526 0.0
O39 O 0.05161 0.64422 0.17558 0.0
O40 O 0.96563 0.70113 0.1462 0.0
O41 O 0.95867 0.65698 0.16224 0.0
O42 O 0.34633 0.01806 0.23864 0.0
Cd43 Cd 0.38258 0.02 0.21259 0.0
Cd44 Cd 0.34621 0.99138 0.1761 0.0
O45 O 0.31845 0.99071 0.21132 0.0
O46 O 0.41554 0.02194 0.24063 0.0
O47 O 0.4083 0.98499 0.21122 0.0
C48 C 0.42268 0.99637 0.23224 0.0
C49 C 0.35153 0.95138 0.14494 0.0
C50 C 0.32277 1.00459 0.23461 0.0
C51 C 0.36549 0.05237 0.15985 0.0
O52 O 0.34917 0.03073 0.15562 0.0
O53 O 0.38328 0.05236 0.18087 0.0
O54 O 0.32815 0.96639 0.1459 0.0
O55 O 0.37181 0.95812 0.16282 0.0
O56 O 1.00485 0.68187 0.7898 0.0
Cd57 Cd 1.00393 0.64528 0.81537 0.0
Cd58 Cd 0.03342 0.681 0.85141 0.0
O59 O 0.03333 0.70917 0.81652 0.0
O60 O 1.00221 0.61251 0.78718 0.0
O61 O 0.03945 0.62028 0.81617 0.0
C62 C 0.02802 0.60579 0.79526 0.0
C63 C 0.07379 0.67568 0.88213 0.0
C64 C 0.01856 0.7053 0.79369 0.0
C65 C 0.97276 0.66154 0.86881 0.0
O66 O 0.9945 0.67786 0.8726 0.0
O67 O 0.97228 0.64391 0.8477 0.0
O68 O 0.05875 0.69903 0.88131 0.0
O69 O 0.06691 0.65545 0.86427 0.0
O70 O 0.3476 1.00883 0.7894 0.0
Cd71 Cd 0.38385 1.00676 0.81544 0.0
Cd72 Cd 0.34752 0.03566 0.85185 0.0
O73 O 0.31998 0.03672 0.81642 0.0
O74 O 0.41668 1.00447 0.78734 0.0
O75 O 0.40974 0.04164 0.81655 0.0
C76 C 0.42396 0.03006 0.79553 0.0
C77 C 0.35288 0.07514 0.88366 0.0
C78 C 0.32422 0.02266 0.79321 0.0
C79 C 0.36655 0.9746 0.86814 0.0
O80 O 0.35018 0.99624 0.87213 0.0
O81 O 0.38451 0.97453 0.84728 0.0
O82 O 0.32937 0.06035 0.88222 0.0
O83 O 0.37323 0.06858 0.8658 0.0
O84 O 0.02398 0.34352 0.78963 0.0
Cd85 Cd 0.02163 0.37939 0.81604 0.0
Cd86 Cd 0.99276 0.34265 0.85066 0.0
O87 O 0.99366 0.31618 0.81439 0.0
O88 O 0.02083 0.41499 0.79116 0.0
O89 O 0.98278 0.39838 0.81491 0.0
C90 C 0.99352 0.41655 0.79668 0.0
C91 C 0.95204 0.34801 0.88097 0.0
C92 C 1.00969 0.32023 0.7924 0.0
C93 C 0.05208 0.36262 0.87004 0.0
O94 O 0.03133 0.34486 0.87253 0.0
O95 O 0.05161 0.3815 0.85003 0.0
O96 O 0.9664 0.32425 0.87957 0.0
O97 O 0.95968 0.36854 0.86378 0.0
O98 O 0.68114 0.02699 0.78884 0.0
Cd99 Cd 0.6442 0.02281 0.81346 0.0
Cd100 Cd 0.67861 0.99122 0.84667 0.0
O101 O 0.70254 0.98919 0.80841 0.0
O102 O 0.60894 0.02138 0.78808 0.0
O103 O 0.62663 0.98341 0.81117 0.0
C104 C 0.60817 0.99396 0.7931 0.0
C105 C 0.67341 0.95156 0.87843 0.0
C106 C 0.70154 1.00864 0.78897 0.0
C107 C 0.66113 0.05103 0.86737 0.0
O108 O 0.67923 0.03042 0.86823 0.0
O109 O 0.64112 0.0508 0.84853 0.0
O110 O 0.69765 0.96482 0.87519 0.0
O111 O 0.65219 0.95962 0.86229 0.0
O112 O 0.23715 1.00218 0.34566 0.0
Cd113 Cd 0.21054 1.00502 0.3814 0.0
Cd114 Cd 0.17652 0.03433 0.34442 0.0
O115 O 0.21295 0.0328 0.31816 0.0
O116 O 0.23513 1.00611 0.41721 0.0
O117 O 0.21171 0.04402 0.39992 0.0
C118 C 0.22973 0.03342 0.4184 0.0
C119 C 0.14633 0.07514 0.34914 0.0
C120 C 0.2347 0.01646 0.32234 0.0
C121 C 0.15607 0.97549 0.3646 0.0
O122 O 0.15407 0.99619 0.34676 0.0
O123 O 0.17605 0.9756 0.38353 0.0
O124 O 0.14795 0.06066 0.32548 0.0
O125 O 0.16334 0.06765 0.36988 0.0
O126 O 0.02199 0.23676 0.34543 0.0
Cd127 Cd 0.02075 0.20993 0.38108 0.0
Cd128 Cd 0.99215 0.17495 0.34434 0.0
O129 O 0.99221 0.21134 0.3181 0.0
O130 O 0.02002 0.23447 0.41688 0.0
O131 O 0.98221 0.21001 0.40072 0.0
C132 C 0.99287 0.22833 0.41886 0.0
C133 C 0.95192 0.14399 0.34944 0.0
C134 C 1.00762 0.23374 0.32222 0.0
C135 C 0.052 0.15657 0.36367 0.0
O136 O 0.03108 0.15373 0.34618 0.0
O137 O 0.05144 0.17654 0.38257 0.0
O138 O 0.96632 0.14572 0.32573 0.0
O139 O 0.95926 0.16115 0.37009 0.0
O140 O 0.78783 0.02363 0.34466 0.0
Cd141 Cd 0.81456 0.02109 0.38034 0.0
Cd142 Cd 0.84875 0.99177 0.34343 0.0
O143 O 0.81239 0.9934 0.31708 0.0
O144 O 0.79013 0.0201 0.41626 0.0
O145 O 0.81367 0.9822 0.39911 0.0
C146 C 0.7957 0.99282 0.4176 0.0
C147 C 0.87836 0.9505 0.34823 0.0
C148 C 0.79047 1.00949 0.32128 0.0
C149 C 0.86905 0.05074 0.36345 0.0
O150 O 0.87133 0.0299 0.34581 0.0
O151 O 0.8489 0.05067 0.3822 0.0
O152 O 0.87712 0.96513 0.32462 0.0
O153 O 0.86143 0.95824 0.36892 0.0
O154 O 1.00584 0.78922 0.34428 0.0
Cd155 Cd 1.00375 0.81523 0.3805 0.0
Cd156 Cd 0.03264 0.8516 0.34458 0.0
O157 O 0.03382 0.81639 0.31689 0.0
O158 O 1.00187 0.7872 0.41342 0.0
O159 O 0.03883 0.81667 0.40615 0.0
C160 C 0.02749 0.79561 0.4205 0.0
C161 C 0.07243 0.88296 0.35038 0.0
C162 C 0.01973 0.79317 0.32097 0.0
C163 C 0.97147 0.86785 0.36313 0.0
O164 O 0.9932 0.87195 0.3469 0.0
O165 O 0.9714 0.84698 0.38107 0.0
O166 O 0.05775 0.88183 0.32681 0.0
O167 O 0.06548 0.86511 0.3706 0.0
O168 O 0.23925 0.02485 0.68142 0.0
Cd169 Cd 0.2126 0.02174 0.64568 0.0
Cd170 Cd 0.17876 0.99206 0.68259 0.0
O171 O 0.21501 0.99437 0.70904 0.0
O172 O 0.23698 0.02067 0.60971 0.0
O173 O 0.21386 0.98268 0.62725 0.0
C174 C 0.23165 0.99333 0.60859 0.0
C175 C 0.14944 0.95054 0.67825 0.0
C176 C 0.23671 1.01077 0.70486 0.0
C177 C 0.15753 0.05054 0.66213 0.0
O178 O 0.15557 0.02975 0.67988 0.0
O179 O 0.1778 0.05078 0.64352 0.0
O180 O 0.15075 0.96532 0.70175 0.0
O181 O 0.16624 0.95822 0.65742 0.0
O182 O 1.00697 0.23651 0.68087 0.0
Cd183 Cd 1.00507 0.21072 0.64446 0.0
Cd184 Cd 0.03316 0.17384 0.68083 0.0
O185 O 0.03412 0.20894 0.70869 0.0
O186 O 1.00314 0.2391 0.61185 0.0
O187 O 0.04013 0.20961 0.61878 0.0
C188 C 0.02874 0.2308 0.60465 0.0
C189 C 0.07293 0.14238 0.6754 0.0
C190 C 0.02039 0.23233 0.70442 0.0
C191 C 0.97217 0.15816 0.66109 0.0
O192 O 0.99358 0.15378 0.67768 0.0
O193 O 0.97257 0.17914 0.64329 0.0
O194 O 0.05786 0.14332 0.69873 0.0
O195 O 0.06636 0.16043 0.65523 0.0
O196 O 0.7904 0.99821 0.68077 0.0
Cd197 Cd 0.81568 1.00262 0.6443 0.0
Cd198 Cd 0.84786 0.03541 0.67877 0.0
O199 O 0.80935 0.03624 0.70236 0.0
O200 O 0.79124 1.00422 0.60839 0.0
O201 O 0.81375 0.0421 0.62699 0.0
C202 C 0.79629 0.03164 0.60791 0.0
C203 C 0.87804 0.07634 0.67402 0.0
C204 C 0.79014 0.01656 0.70117 0.0
C205 C 0.8705 0.97611 0.66168 0.0
O206 O 0.8709 0.99702 0.67945 0.0
O207 O 0.85143 0.97543 0.64191 0.0
O208 O 0.87512 0.06286 0.69815 0.0
O209 O 0.8625 0.06765 0.65262 0.0
O210 O 0.02052 0.79059 0.68321 0.0
Cd211 Cd 0.02227 0.81658 0.64693 0.0
Cd212 Cd 0.99458 0.85313 0.68415 0.0
O213 O 0.99363 0.81776 0.71166 0.0
O214 O 0.02436 0.78826 0.61422 0.0
O215 O 0.98729 0.81762 0.62099 0.0
C216 C 0.99878 0.79651 0.60687 0.0
C217 C 0.95503 0.88469 0.67806 0.0
C218 C 1.00738 0.79446 0.70697 0.0
C219 C 0.05554 0.8687 0.66432 0.0
O220 O 0.03423 0.87289 0.68108 0.0
O221 O 0.05492 0.84808 0.6461 0.0
O222 O 0.96972 0.88382 0.70165 0.0
O223 O 0.96181 0.86647 0.65811 0.0
O224 O 0.34744 0.23783 1.00591 0.0
Cd225 Cd 0.3833 0.21132 1.00783 0.0
Cd226 Cd 0.34668 0.17648 0.03707 0.0
O227 O 0.32016 0.21274 0.036 0.0
O228 O 0.41895 0.23612 1.00847 0.0
O229 O 0.40257 0.21218 0.04649 0.0
C230 C 0.42069 0.23046 0.0357 0.0
C231 C 0.35132 0.14624 0.07791 0.0
C232 C 0.32418 0.2349 0.02022 0.0
C233 C 0.36673 0.15705 0.97774 0.0
O234 O 0.34921 0.1544 0.99865 0.0
O235 O 0.38528 0.17738 0.97787 0.0
O236 O 0.32778 0.14768 0.06316 0.0
O237 O 0.37205 0.16334 0.07057 0.0
O238 O 0.34665 0.78879 0.01914 0.0
Cd239 Cd 0.38279 0.81502 0.02075 0.0
Cd240 Cd 0.34666 0.85091 0.9913 0.0
O241 O 0.31899 0.81558 0.99106 0.0
O242 O 0.41593 0.78728 0.02286 0.0
O243 O 0.40825 0.81624 0.98561 0.0
C244 C 0.42285 0.79547 0.99717 0.0
C245 C 0.35199 0.88151 0.95086 0.0
C246 C 0.32321 0.79252 1.00536 0.0
C247 C 0.36577 0.86835 0.05202 0.0
O248 O 0.34952 0.87215 0.03024 0.0
O249 O 0.38346 0.84726 0.05252 0.0
O250 O 0.32854 0.88059 0.96576 0.0
O251 O 0.37234 0.86386 0.95796 0.0
O252 O 0.23829 0.34543 0.02319 0.0
Cd253 Cd 0.21131 0.38096 0.0213 0.0
Cd254 Cd 0.17689 0.3439 0.99244 0.0
O255 O 0.21355 0.31796 0.99297 0.0
O256 O 0.23573 0.41689 0.02035 0.0
O257 O 0.21183 0.40004 0.98253 0.0
C258 C 0.22996 0.4184 0.99312 0.0
C259 C 0.14612 0.34878 0.95205 0.0
C260 C 0.23568 0.32222 1.00877 0.0
C261 C 0.1575 0.36341 0.05182 0.0
O262 O 0.15517 0.3457 0.03105 0.0
O263 O 0.17733 0.38251 0.05138 0.0
O264 O 0.14801 0.32504 0.96638 0.0
O265 O 0.16309 0.36957 0.95949 0.0
O266 O 0.6803 0.23675 0.02035 0.0
Cd267 Cd 0.64449 0.21014 0.01846 0.0
Cd268 Cd 0.68171 0.17517 0.99009 0.0
O269 O 0.70789 0.21166 0.99054 0.0
O270 O 0.60889 0.23502 0.01766 0.0
O271 O 0.62527 0.21094 0.97976 0.0
C272 C 0.6072 0.22932 0.99044 0.0
C273 C 0.67661 0.14424 0.94994 0.0
C274 C 0.70362 0.23391 1.00611 0.0
C275 C 0.66126 0.15642 0.04941 0.0
O276 O 0.67919 0.15384 0.02884 0.0
O277 O 0.64235 0.1764 0.0487 0.0
O278 O 0.70035 0.14585 0.96436 0.0
O279 O 0.65604 0.16158 0.95716 0.0
O280 O 0.78723 0.68171 0.01985 0.0
Cd281 Cd 0.81348 0.64555 0.02164 0.0
Cd282 Cd 0.84944 0.68155 0.99237 0.0
O283 O 0.81418 0.7092 0.99177 0.0
O284 O 0.78571 0.61232 0.02334 0.0
O285 O 0.81497 0.6202 0.98638 0.0
C286 C 0.7941 0.60551 0.99768 0.0
C287 C 0.88015 0.67602 0.95209 0.0
C288 C 0.79106 0.70507 1.006 0.0
C289 C 0.86674 0.66288 0.0532 0.0
O290 O 0.87054 0.6791 0.03141 0.0
O291 O 0.84576 0.64503 0.05359 0.0
O292 O 0.87923 0.69951 0.96689 0.0
O293 O 0.86246 0.65572 0.95922 0.0
O294 O 0.67983 0.79038 1.00199 0.0
Cd295 Cd 0.64396 0.81681 1.0044 0.0
Cd296 Cd 0.68083 0.8517 0.03298 0.0
O297 O 0.70737 0.81543 0.03187 0.0
O298 O 0.60839 0.79185 1.0055 0.0
O299 O 0.62522 0.81575 0.04332 0.0
C300 C 0.60704 0.7974 0.03277 0.0
C301 C 0.67567 0.88149 0.07411 0.0
C302 C 0.70322 0.79329 0.0161 0.0
C303 C 0.66029 0.87093 0.97379 0.0
O304 O 0.67814 0.87367 0.99444 0.0
O305 O 0.64161 0.85072 0.97438 0.0
O306 O 0.6993 0.88047 0.05946 0.0
O307 O 0.65512 0.86435 0.0664 0.0
O308 O 0.23814 0.68106 1.00239 0.0
Cd309 Cd 0.21168 0.64513 1.00477 0.0
Cd310 Cd 0.17713 0.68204 0.03374 0.0
O311 O 0.21347 0.70845 0.03272 0.0
O312 O 0.23651 0.60948 1.0057 0.0
O313 O 0.21274 0.62621 0.04363 0.0
C314 C 0.23095 0.60797 0.03296 0.0
C315 C 0.14629 0.67726 0.07405 0.0
C316 C 0.23542 0.70437 0.01665 0.0
C317 C 0.15751 0.66186 0.97462 0.0
O318 O 0.15525 0.67966 0.99531 0.0
O319 O 0.1775 0.64295 0.97495 0.0
O320 O 0.14804 0.70089 0.05953 0.0
O321 O 0.16355 0.6566 0.06693 0.0
O322 O 0.78861 0.34526 1.00295 0.0
Cd323 Cd 0.81557 0.38084 1.00471 0.0
Cd324 Cd 0.85005 0.34394 0.03365 0.0
O325 O 0.8135 0.3179 0.03314 0.0
O326 O 0.79124 0.41686 1.00586 0.0
O327 O 0.81527 0.39986 0.04353 0.0
C328 C 0.79715 0.41831 0.03306 0.0
C329 C 0.88073 0.34885 0.07407 0.0
C330 C 0.79134 0.32206 0.01737 0.0
C331 C 0.86937 0.36323 0.97417 0.0
O332 O 0.87178 0.34566 0.99505 0.0
O333 O 0.8495 0.38228 0.97452 0.0
O334 O 0.87891 0.32512 0.05973 0.0
O335 O 0.86375 0.36962 0.06658 0.0
O336 O 0.50342 0.84486 0.73609 0.0
Cd337 Cd 0.50539 0.88036 0.70911 0.0
Cd338 Cd 0.53374 0.84307 0.67465 0.0
O339 O 0.53312 0.817 0.7112 0.0
O340 O 0.50639 0.91634 0.73341 0.0
O341 O 0.54417 0.89957 0.70939 0.0
C342 C 0.53359 0.91798 0.72746 0.0
C343 C 0.57417 0.84819 0.64397 0.0
C344 C 0.51749 0.82144 0.73339 0.0
C345 C 0.47426 0.86289 0.6557 0.0
O346 O 0.49496 0.84511 0.65316 0.0
O347 O 0.47496 0.88198 0.67549 0.0
O348 O 0.5598 0.82444 0.64563 0.0
O349 O 0.56671 0.86883 0.66109 0.0
O350 O 0.18013 0.50838 0.73774 0.0
Cd351 Cd 0.14392 0.50691 0.71158 0.0
Cd352 Cd 0.18004 0.53637 0.6757 0.0
O353 O 0.20778 0.5365 0.71098 0.0
O354 O 0.11083 0.50482 0.7394 0.0
O355 O 0.11851 0.54212 0.71051 0.0
C356 C 0.10394 0.53056 0.7313 0.0
C357 C 0.17481 0.57685 0.64514 0.0
C358 C 0.20358 0.52212 0.734 0.0
C359 C 0.1609 0.47567 0.6582 0.0
O360 O 0.17716 0.49744 0.65442 0.0
O361 O 0.1432 0.47516 0.67928 0.0
O362 O 0.19823 0.56189 0.64606 0.0
O363 O 0.15443 0.56978 0.66277 0.0
O364 O 0.52094 0.1815 0.73622 0.0
Cd365 Cd 0.52306 0.14494 0.71067 0.0
Cd366 Cd 0.49508 0.18111 0.67342 0.0
O367 O 0.49391 0.20915 0.70836 0.0
O368 O 0.52506 0.11254 0.73927 0.0
O369 O 0.48814 0.11906 0.7096 0.0
C370 C 0.49953 0.10513 0.73092 0.0
C371 C 0.45549 0.17551 0.64175 0.0
C372 C 0.50753 0.20502 0.73185 0.0
C373 C 0.55616 0.16133 0.65819 0.0
O374 O 0.53475 0.17786 0.65361 0.0
O375 O 0.5557 0.14365 0.67927 0.0
O376 O 0.47057 0.19884 0.64266 0.0
O377 O 0.46193 0.15544 0.65995 0.0
O378 O 0.84613 0.52228 0.73667 0.0
Cd379 Cd 0.88201 0.51966 0.71023 0.0
Cd380 Cd 0.84445 0.49169 0.6754 0.0
O381 O 0.8181 0.49272 0.71175 0.0
O382 O 0.9176 0.51859 0.73517 0.0
O383 O 0.90081 0.48072 0.71132 0.0
C384 C 0.91904 0.49133 0.7296 0.0
C385 C 0.84951 0.45144 0.64462 0.0
C386 C 0.82255 0.50845 0.73386 0.0
C387 C 0.86566 0.55064 0.65645 0.0
O388 O 0.84745 0.5303 0.65395 0.0
O389 O 0.8846 0.54974 0.67639 0.0
O390 O 0.82583 0.46595 0.64605 0.0
O391 O 0.87 0.45858 0.6621 0.0
O392 O 0.50896 0.18262 0.29007 0.0
Cd393 Cd 0.50638 0.14621 0.31583 0.0
Cd394 Cd 0.53435 0.18288 0.35299 0.0
O395 O 0.53587 0.21055 0.3178 0.0
O396 O 0.50389 0.11379 0.28722 0.0
O397 O 0.54092 0.11972 0.31684 0.0
C398 C 0.52931 0.10598 0.29552 0.0
C399 C 0.57367 0.17682 0.38484 0.0
C400 C 0.52238 0.20617 0.29428 0.0
C401 C 0.47303 0.16359 0.36793 0.0
O402 O 0.49454 0.18002 0.37245 0.0
O403 O 0.47351 0.1456 0.34711 0.0
O404 O 0.55895 0.20037 0.38389 0.0
O405 O 0.56702 0.15685 0.36659 0.0
O406 O 0.84854 0.5038 0.29028 0.0
Cd407 Cd 0.88432 0.50551 0.3169 0.0
Cd408 Cd 0.8478 0.53451 0.35189 0.0
O409 O 0.82143 0.53393 0.31547 0.0
O410 O 0.91993 0.50637 0.29203 0.0
O411 O 0.90346 0.54422 0.31613 0.0
C412 C 0.92151 0.5336 0.29771 0.0
C413 C 0.853 0.57557 0.38179 0.0
C414 C 0.82541 0.51831 0.29321 0.0
C415 C 0.86756 0.47498 0.37098 0.0
O416 O 0.85 0.49586 0.37378 0.0
O417 O 0.88621 0.47538 0.35074 0.0
O418 O 0.82931 0.56102 0.3806 0.0
O419 O 0.87363 0.56776 0.36481 0.0
O420 O 0.521 0.84484 0.28883 0.0
Cd421 Cd 0.52287 0.88092 0.31505 0.0
Cd422 Cd 0.4939 0.84479 0.35109 0.0
O423 O 0.49294 0.81727 0.31573 0.0
O424 O 0.52466 0.91403 0.28723 0.0
O425 O 0.48766 0.90636 0.31653 0.0
C426 C 0.49898 0.92091 0.2956 0.0
C427 C 0.45394 0.85043 0.38224 0.0
C428 C 0.50714 0.82148 0.29261 0.0
C429 C 0.55498 0.86334 0.36775 0.0
O430 O 0.53325 0.84705 0.37167 0.0
O431 O 0.5551 0.88139 0.34697 0.0
O432 O 0.46862 0.82687 0.38109 0.0
O433 O 0.46099 0.87074 0.36453 0.0
O434 O 0.1806 0.5217 0.28874 0.0
Cd435 Cd 0.14476 0.51989 0.31526 0.0
Cd436 Cd 0.18133 0.49061 0.35015 0.0
O437 O 0.20781 0.49156 0.31386 0.0
O438 O 0.10912 0.51925 0.29047 0.0
O439 O 0.12548 0.48126 0.31448 0.0
C440 C 0.10737 0.49203 0.29618 0.0
C441 C 0.17659 0.44981 0.38042 0.0
C442 C 0.20381 0.50731 0.29167 0.0
C443 C 0.16128 0.54996 0.36952 0.0
O444 O 0.1788 0.52905 0.3722 0.0
O445 O 0.14276 0.54984 0.34916 0.0
O446 O 0.20016 0.4645 0.379 0.0
O447 O 0.15589 0.45717 0.36329 0.0
O448 O 0.73853 0.50687 0.84539 0.0
Cd449 Cd 0.71211 0.50538 0.8814 0.0
Cd450 Cd 0.6765 0.53479 0.84519 0.0
O451 O 0.71188 0.53502 0.81767 0.0
O452 O 0.73969 0.50364 0.91478 0.0
O453 O 0.71065 0.54071 0.90665 0.0
C454 C 0.73139 0.52936 0.92147 0.0
C455 C 0.64609 0.57534 0.85055 0.0
C456 C 0.73488 0.52061 0.82194 0.0
C457 C 0.65887 0.47401 0.86375 0.0
O458 O 0.65519 0.49586 0.84758 0.0
O459 O 0.67976 0.47352 0.88171 0.0
O460 O 0.64697 0.56051 0.82708 0.0
O461 O 0.66364 0.56808 0.87093 0.0
O462 O 0.52067 0.73818 0.84539 0.0
Cd463 Cd 0.52241 0.71226 0.88171 0.0
Cd464 Cd 0.49291 0.67606 0.84598 0.0
O465 O 0.49232 0.71122 0.81817 0.0
O466 O 0.5244 0.74022 0.91463 0.0
O467 O 0.48723 0.71104 0.90715 0.0
C468 C 0.49871 0.73195 0.92161 0.0
C469 C 0.45288 0.64491 0.85123 0.0
C470 C 0.50671 0.73428 0.82211 0.0
C471 C 0.55385 0.65906 0.86489 0.0
O472 O 0.53204 0.65518 0.84869 0.0
O473 O 0.5543 0.68012 0.88258 0.0
O474 O 0.46779 0.64608 0.82782 0.0
O475 O 0.45969 0.66265 0.87159 0.0
O476 O 0.28894 0.52427 0.84525 0.0
Cd477 Cd 0.31548 0.52168 0.88108 0.0
Cd478 Cd 0.34998 0.49292 0.84394 0.0
O479 O 0.31359 0.4942 0.81758 0.0
O480 O 0.29073 0.52066 0.91678 0.0
O481 O 0.31445 0.48276 0.89986 0.0
C482 C 0.2963 0.49339 0.91818 0.0
C483 C 0.38071 0.45248 0.84841 0.0
C484 C 0.29162 0.51021 0.82183 0.0
C485 C 0.36965 0.55191 0.86452 0.0
O486 O 0.37193 0.53132 0.84661 0.0
O487 O 0.34963 0.55148 0.8834 0.0
O488 O 0.37897 0.46717 0.82489 0.0
O489 O 0.3635 0.45952 0.86915 0.0
O490 O 0.5032 0.29044 0.84279 0.0
Cd491 Cd 0.50539 0.31674 0.87872 0.0
Cd492 Cd 0.53455 0.35153 0.84216 0.0
O493 O 0.53352 0.31532 0.81556 0.0
O494 O 0.50587 0.29171 0.9142 0.0
O495 O 0.54408 0.31547 0.89798 0.0
C496 C 0.53317 0.29716 0.91596 0.0
C497 C 0.57558 0.38146 0.84768 0.0
C498 C 0.51752 0.29328 0.81954 0.0
C499 C 0.47514 0.37089 0.86211 0.0
O500 O 0.49601 0.37355 0.84452 0.0
O501 O 0.47544 0.3507 0.88079 0.0
O502 O 0.56112 0.3804 0.82395 0.0
O503 O 0.56781 0.36421 0.8681 0.0
O504 O 0.74044 0.52353 0.18183 0.0
Cd505 Cd 0.71362 0.52208 0.14609 0.0
Cd506 Cd 0.67877 0.49333 0.18279 0.0
O507 O 0.71521 0.49343 0.20898 0.0
O508 O 0.73812 0.52095 0.1102 0.0
O509 O 0.71382 0.48333 0.12691 0.0
C510 C 0.73208 0.49379 0.10859 0.0
C511 C 0.64778 0.45318 0.17773 0.0
C512 C 0.73753 0.50901 0.20496 0.0
C513 C 0.65982 0.55286 0.16338 0.0
O514 O 0.65727 0.53204 0.18101 0.0
O515 O 0.67978 0.5524 0.14444 0.0
O516 O 0.64964 0.46749 0.20148 0.0
O517 O 0.6649 0.46052 0.15703 0.0
O518 O 0.50379 0.73657 0.18123 0.0
Cd519 Cd 0.50605 0.71012 0.14541 0.0
Cd520 Cd 0.5353 0.67557 0.1821 0.0
O521 O 0.53414 0.71184 0.20856 0.0
O522 O 0.50638 0.73499 0.10982 0.0
O523 O 0.54471 0.71143 0.12605 0.0
C524 C 0.53369 0.72962 0.108 0.0
C525 C 0.57628 0.64551 0.17721 0.0
C526 C 0.51809 0.7338 0.20451 0.0
C527 C 0.47593 0.65599 0.16228 0.0
O528 O 0.49683 0.65348 0.17986 0.0
O529 O 0.47617 0.67608 0.14349 0.0
O530 O 0.56169 0.6469 0.20082 0.0
O531 O 0.56868 0.66252 0.15652 0.0
O532 O 0.28943 0.5034 0.18096 0.0
Cd533 Cd 0.31632 0.50505 0.14533 0.0
Cd534 Cd 0.35081 0.53412 0.18213 0.0
O535 O 0.3142 0.53386 0.20812 0.0
O536 O 0.2918 0.5059 0.10944 0.0
O537 O 0.31578 0.54376 0.1261 0.0
C538 C 0.29757 0.53312 0.10783 0.0
C539 C 0.38171 0.57434 0.17692 0.0
C540 C 0.29208 0.51802 0.20404 0.0
C541 C 0.37011 0.47459 0.16304 0.0
O542 O 0.37243 0.49546 0.18063 0.0
O543 O 0.35031 0.47493 0.14391 0.0
O544 O 0.37979 0.56019 0.20077 0.0
O545 O 0.36466 0.56683 0.15621 0.0
O546 O 0.52601 0.29101 0.18281 0.0
Cd547 Cd 0.52355 0.3173 0.14689 0.0
Cd548 Cd 0.49433 0.35187 0.1834 0.0
O549 O 0.49547 0.31566 0.20997 0.0
O550 O 0.52275 0.29238 0.11135 0.0
O551 O 0.48469 0.3161 0.12799 0.0
C552 C 0.49544 0.29785 0.10985 0.0
C553 C 0.4534 0.38191 0.17811 0.0
C554 C 0.51165 0.29377 0.20605 0.0
C555 C 0.55361 0.37146 0.16348 0.0
O556 O 0.53278 0.37394 0.18113 0.0
O557 O 0.55334 0.35137 0.14471 0.0
O558 O 0.46785 0.38063 0.20183 0.0
O559 O 0.46109 0.36478 0.15758 0.0
O560 O 0.84821 0.73835 0.50724 0.0
Cd561 Cd 0.88461 0.71242 0.50583 0.0
Cd562 Cd 0.84845 0.67622 0.53469 0.0
O563 O 0.82077 0.71145 0.53542 0.0
O564 O 0.91759 0.7405 0.50442 0.0
O565 O 0.90965 0.71127 0.54138 0.0
C566 C 0.9242 0.73229 0.5302 0.0
C567 C 0.85334 0.64469 0.5744 0.0
C568 C 0.82483 0.7345 0.52107 0.0
C569 C 0.86755 0.65943 0.4739 0.0
O570 O 0.85106 0.65563 0.49547 0.0
O571 O 0.88559 0.68025 0.47381 0.0
O572 O 0.82995 0.64617 0.55944 0.0
O573 O 0.87388 0.66234 0.56784 0.0
O574 O 0.84595 0.29046 0.52744 0.0
Cd575 Cd 0.88276 0.31521 0.52324 0.0
Cd576 Cd 0.84828 0.34818 0.49149 0.0
O577 O 0.8246 0.30972 0.48944 0.0
O578 O 0.91805 0.28988 0.522 0.0
O579 O 0.90036 0.31275 0.48389 0.0
C580 C 0.9188 0.29473 0.49455 0.0
C581 C 0.85371 0.37983 0.45176 0.0
C582 C 0.82563 0.29037 0.50898 0.0
C583 C 0.86554 0.36906 0.55133 0.0
O584 O 0.84745 0.36978 0.53069 0.0
O585 O 0.88567 0.35035 0.55114 0.0
O586 O 0.82938 0.3766 0.46485 0.0
O587 O 0.87489 0.36375 0.46005 0.0
O588 O 0.73844 0.84488 0.52375 0.0
Cd589 Cd 0.7114 0.88029 0.52122 0.0
Cd590 Cd 0.67753 0.84312 0.49185 0.0
O591 O 0.71419 0.81716 0.49337 0.0
O592 O 0.73558 0.91641 0.5202 0.0
O593 O 0.71218 0.89901 0.48231 0.0
C594 C 0.73004 0.91763 0.49291 0.0
C595 C 0.64794 0.84811 0.45058 0.0
C596 C 0.73605 0.82154 0.50951 0.0
C597 C 0.65708 0.86282 0.55085 0.0
O598 O 0.65496 0.84514 0.53002 0.0
O599 O 0.67701 0.8818 0.55076 0.0
O600 O 0.6493 0.82437 0.46499 0.0
O601 O 0.66475 0.86883 0.45853 0.0
O602 O 0.17985 0.73828 0.51774 0.0
Cd603 Cd 0.14352 0.7123 0.51972 0.0
Cd604 Cd 0.17985 0.67577 0.49102 0.0
O605 O 0.20752 0.71108 0.49009 0.0
O606 O 0.11063 0.74038 0.52163 0.0
O607 O 0.11784 0.71096 0.48468 0.0
C608 C 0.1035 0.73201 0.49605 0.0
C609 C 0.17472 0.64396 0.45154 0.0
C610 C 0.2033 0.73433 0.50407 0.0
C611 C 0.16057 0.6596 0.55203 0.0
O612 O 0.17697 0.65552 0.53043 0.0
O613 O 0.14269 0.68053 0.55203 0.0
O614 O 0.19812 0.64536 0.46649 0.0
O615 O 0.15435 0.66185 0.45795 0.0
O616 O 0.28951 0.18132 0.52418 0.0
Cd617 Cd 0.316 0.14552 0.52102 0.0
Cd618 Cd 0.34985 0.18233 0.49117 0.0
O619 O 0.31362 0.20882 0.49349 0.0
O620 O 0.29139 0.10971 0.5202 0.0
O621 O 0.3144 0.127 0.48203 0.0
C622 C 0.29652 0.1085 0.49284 0.0
C623 C 0.3791 0.17789 0.44962 0.0
C624 C 0.292 0.20471 0.51001 0.0
C625 C 0.37115 0.16191 0.54968 0.0
O626 O 0.37309 0.17963 0.52886 0.0
O627 O 0.35086 0.14331 0.54997 0.0
O628 O 0.37786 0.20141 0.46437 0.0
O629 O 0.36226 0.1571 0.45734 0.0
O630 O 0.18097 0.28901 0.5085 0.0
Cd631 Cd 0.14478 0.3151 0.50645 0.0
Cd632 Cd 0.18111 0.3515 0.5353 0.0
O633 O 0.20877 0.31618 0.53609 0.0
O634 O 0.1119 0.28702 0.50411 0.0
O635 O 0.11883 0.31623 0.54128 0.0
C636 C 0.10459 0.29522 0.52969 0.0
C637 C 0.17556 0.38267 0.57528 0.0
C638 C 0.20446 0.29292 0.52214 0.0
C639 C 0.16209 0.36786 0.47424 0.0
O640 O 0.17838 0.37201 0.49593 0.0
O641 O 0.14424 0.34689 0.47418 0.0
O642 O 0.19904 0.38167 0.56043 0.0
O643 O 0.15531 0.36481 0.5684 0.0
O644 O 0.73816 0.18096 0.49856 0.0
Cd645 Cd 0.71317 0.14424 0.50291 0.0
Cd646 Cd 0.68066 0.17844 0.53569 0.0
O647 O 0.7189 0.20244 0.53646 0.0
O648 O 0.73786 0.10852 0.50445 0.0
O649 O 0.71517 0.12683 0.54235 0.0
C650 C 0.73275 0.10789 0.53186 0.0
C651 C 0.65046 0.17387 0.57659 0.0
C652 C 0.73815 0.20141 0.51683 0.0
C653 C 0.65819 0.16105 0.47638 0.0
O654 O 0.6576 0.17878 0.49731 0.0
O655 O 0.67749 0.14151 0.47566 0.0
O656 O 0.65327 0.19789 0.5629 0.0
O657 O 0.66612 0.15248 0.56813 0.0
O658 O 0.28891 0.84552 0.50146 0.0
Cd659 Cd 0.31568 0.88119 0.50424 0.0
Cd660 Cd 0.34971 0.84407 0.53336 0.0
O661 O 0.31323 0.81787 0.53186 0.0
O662 O 0.29132 0.91716 0.50559 0.0
O663 O 0.31487 0.89961 0.54331 0.0
C664 C 0.29694 0.91825 0.53287 0.0
C665 C 0.37997 0.8487 0.57413 0.0
C666 C 0.29141 0.82213 0.51564 0.0
C667 C 0.37006 0.86431 0.47455 0.0
O668 O 0.37208 0.84643 0.4952 0.0
O669 O 0.35011 0.88326 0.47473 0.0
O670 O 0.37828 0.82506 0.55962 0.0
O671 O 0.36299 0.86948 0.56668 0.0
C672 C 0.0601 0.48277 0.27089 0.0
C673 C 0.08746 0.47311 0.27982 0.0
H674 H 0.02086 0.47246 0.24822 0.0
C675 C 0.09675 0.44559 0.27128 0.0
H676 H 0.0525 0.504 0.277 0.0
C677 C 0.07931 0.4282 0.25386 0.0
C678 C 0.05174 0.43752 0.24535 0.0
H679 H 0.11789 0.43773 0.27751 0.0
H680 H 0.08714 0.40709 0.24761 0.0
C681 C 0.04211 0.46485 0.25431 0.0
C682 C 0.58169 0.0457 0.27729 0.0
C683 C 0.58196 0.04676 0.24696 0.0
H684 H 0.56532 0.06418 0.31655 0.0
C685 C 0.56344 0.06612 0.23285 0.0
H686 H 0.59601 0.0312 0.28872 0.0
C687 C 0.54513 0.08419 0.24877 0.0
C688 C 0.54586 0.08409 0.27911 0.0
H689 H 0.56335 0.06748 0.20953 0.0
H690 H 0.53139 0.09925 0.23734 0.0
C691 C 0.56424 0.0646 0.29322 0.0
C692 C 0.98593 0.56137 0.25489 0.0
C693 C 0.9759 0.58859 0.246 0.0
H694 H 0.97626 0.52215 0.27781 0.0
C695 C 0.94839 0.59767 0.25491 0.0
H696 H 1.00715 0.55393 0.24849 0.0
C697 C 0.93138 0.58015 0.27264 0.0
C698 C 0.94106 0.55271 0.2811 0.0
H699 H 0.94026 0.61868 0.24872 0.0
H700 H 0.91028 0.58781 0.27915 0.0
C701 C 0.96837 0.5433 0.27177 0.0
C702 C 0.48247 0.94308 0.24929 0.0
C703 C 0.48186 0.94265 0.27962 0.0
H704 H 0.46363 0.95993 0.21039 0.0
C705 C 0.46299 0.96136 0.29412 0.0
H706 H 0.49659 0.92861 0.23756 0.0
C707 C 0.44495 0.98002 0.27857 0.0
C708 C 0.44459 0.97946 0.24823 0.0
H709 H 0.46199 0.96134 0.31746 0.0
H710 H 0.43027 0.99392 0.29029 0.0
C711 C 0.46359 0.96089 0.23373 0.0
C712 C 0.06324 0.56625 0.73306 0.0
C713 C 0.08213 0.54745 0.74742 0.0
H714 H 0.03041 0.59866 0.73716 0.0
C715 C 0.08179 0.54662 0.77774 0.0
H716 H 0.0632 0.5674 0.70973 0.0
C717 C 0.06386 0.56525 0.79344 0.0
C718 C 0.0451 0.58418 0.77908 0.0
H719 H 0.09639 0.53254 0.78935 0.0
H720 H 0.06486 0.56506 0.81678 0.0
C721 C 0.04446 0.58402 0.74875 0.0
C722 C 0.46465 0.06578 0.79344 0.0
C723 C 0.44577 0.04683 0.77926 0.0
H724 H 0.49735 0.09829 0.78906 0.0
C725 C 0.44609 0.04578 0.74894 0.0
H726 H 0.46472 0.0671 0.81677 0.0
C727 C 0.46393 0.06436 0.73307 0.0
C728 C 0.48264 0.08348 0.74726 0.0
H729 H 0.4315 0.03159 0.73745 0.0
H730 H 0.46288 0.06401 0.70974 0.0
C731 C 0.48334 0.08352 0.77759 0.0
C732 C 0.96628 0.48181 0.75489 0.0
C733 C 0.93887 0.47227 0.74594 0.0
H734 H 1.00549 0.47136 0.77751 0.0
C735 C 0.92952 0.44472 0.75441 0.0
H736 H 0.97394 0.50303 0.74882 0.0
C737 C 0.94695 0.42722 0.77178 0.0
C738 C 0.97456 0.43645 0.7803 0.0
H739 H 0.90837 0.43693 0.74817 0.0
H740 H 0.93907 0.40611 0.77798 0.0
C741 C 0.98423 0.46379 0.7714 0.0
C742 C 0.59817 0.94741 0.76797 0.0
C743 C 0.58852 0.97476 0.77669 0.0
H744 H 0.58875 0.90862 0.74468 0.0
C745 C 0.56078 0.98384 0.76834 0.0
H746 H 0.61957 0.93998 0.77379 0.0
C747 C 0.54277 0.9655 0.75223 0.0
C748 C 0.55268 0.9383 0.74318 0.0
H749 H 0.55286 1.00489 0.77465 0.0
H750 H 0.52123 0.97268 0.74664 0.0
C751 C 0.58065 0.92959 0.75102 0.0
C752 C 0.25428 0.08016 0.42894 0.0
C753 C 0.24599 0.05254 0.43824 0.0
H754 H 0.27762 0.1189 0.43851 0.0
C755 C 0.25501 0.04302 0.4656 0.0
H756 H 0.24798 0.08794 0.40783 0.0
C757 C 0.27144 0.06112 0.48355 0.0
C758 C 0.28016 0.08854 0.47392 0.0
H759 H 0.24908 0.02175 0.47323 0.0
H760 H 0.27763 0.05356 0.50477 0.0
C761 C 0.27155 0.09775 0.44637 0.0
C762 C 0.92849 0.26908 0.44824 0.0
C763 C 0.93833 0.27812 0.47543 0.0
H764 H 0.93765 0.24536 0.40966 0.0
C765 C 0.96612 0.26986 0.48445 0.0
H766 H 0.90705 0.27482 0.44087 0.0
C767 C 0.98399 0.25355 0.46619 0.0
C768 C 0.9739 0.24419 0.43915 0.0
H769 H 0.97417 0.27641 0.50538 0.0
H770 H 1.00558 0.24805 0.47329 0.0
C771 C 0.94588 0.25193 0.43052 0.0
C772 C 0.75476 0.96515 0.48325 0.0
C773 C 0.74604 0.93767 0.47377 0.0
H774 H 0.77686 1.00458 0.4726 0.0
C775 C 0.75437 0.92845 0.44614 0.0
H776 H 0.74879 0.97271 0.50452 0.0
C777 C 0.77137 0.94607 0.4285 0.0
C778 C 0.77966 0.97373 0.43765 0.0
H779 H 0.7483 0.90726 0.4384 0.0
H780 H 0.77747 0.93827 0.40734 0.0
C781 C 0.77091 0.98328 0.46508 0.0
C782 C 0.06334 0.794 0.46109 0.0
C783 C 0.04453 0.77956 0.44225 0.0
H784 H 0.09594 0.79007 0.49375 0.0
C785 C 0.0439 0.74922 0.44258 0.0
H786 H 0.06435 0.81734 0.46114 0.0
C787 C 0.06271 0.73361 0.46041 0.0
C788 C 0.08166 0.74806 0.4791 0.0
H789 H 0.02983 0.73755 0.42802 0.0
H790 H 0.06266 0.71028 0.45939 0.0
C791 C 0.0813 0.77839 0.47976 0.0
C792 C 0.25617 0.9838 0.56098 0.0
C793 C 0.24765 0.97426 0.58849 0.0
H794 H 0.278 0.97327 0.52139 0.0
C795 C 0.25606 0.94662 0.59761 0.0
H796 H 0.25012 1.00508 0.55348 0.0
C797 C 0.27295 0.92902 0.57985 0.0
C798 C 0.28104 0.93824 0.55214 0.0
H799 H 0.25013 0.93882 0.61882 0.0
H800 H 0.27911 0.90785 0.58756 0.0
C801 C 0.27221 0.96569 0.54271 0.0
C802 C 0.045 0.27741 0.58293 0.0
C803 C 0.04571 0.24707 0.58301 0.0
H804 H 0.06367 0.31655 0.56646 0.0
C805 C 0.06452 0.23284 0.56404 0.0
H806 H 0.03092 0.28892 0.5976 0.0
C807 C 0.08243 0.24866 0.54549 0.0
C808 C 0.08273 0.27899 0.54642 0.0
H809 H 0.06558 0.20951 0.56378 0.0
H810 H 0.09709 0.23714 0.5314 0.0
C811 C 0.06376 0.29322 0.56523 0.0
C812 C 0.77266 0.07874 0.59688 0.0
C813 C 0.78065 0.05097 0.58779 0.0
H814 H 0.75046 0.11797 0.58667 0.0
C815 C 0.77231 0.04169 0.56014 0.0
H816 H 0.7785 0.08638 0.61818 0.0
C817 C 0.75682 0.06014 0.54174 0.0
C818 C 0.74842 0.08773 0.55113 0.0
H819 H 0.77807 0.02033 0.55263 0.0
H820 H 0.75109 0.05271 0.52034 0.0
C821 C 0.75635 0.09672 0.57895 0.0
C822 C 0.94591 0.77884 0.5468 0.0
C823 C 0.94565 0.7485 0.54755 0.0
H824 H 0.96241 0.81792 0.56557 0.0
C825 C 0.96428 0.73421 0.56667 0.0
H826 H 0.93151 0.79041 0.53249 0.0
C827 C 0.98271 0.74995 0.5848 0.0
C828 C 0.982 0.78029 0.58499 0.0
H829 H 0.96439 0.71087 0.56779 0.0
H830 H 0.99656 0.73838 0.59965 0.0
C831 C 0.96348 0.79459 0.56576 0.0
C832 C 0.44894 0.27274 0.09953 0.0
C833 C 0.47644 0.28136 0.09009 0.0
H834 H 0.41039 0.24899 0.09012 0.0
C835 C 0.48597 0.27246 0.06271 0.0
H836 H 0.44118 0.27895 0.12067 0.0
C837 C 0.46795 0.25585 0.04484 0.0
C838 C 0.44065 0.24682 0.0546 0.0
H839 H 0.50715 0.27864 0.055 0.0
H840 H 0.47548 0.24979 0.02358 0.0
C841 C 0.43147 0.25529 0.08219 0.0
C842 C 0.46357 0.79392 0.96152 0.0
C843 C 0.44473 0.77946 0.98029 0.0
H844 H 0.49633 0.79 0.92902 0.0
C845 C 0.44516 0.74913 0.98104 0.0
H846 H 0.46355 0.81725 0.96043 0.0
C847 C 0.46308 0.73353 0.96234 0.0
C848 C 0.48176 0.74799 0.9434 0.0
H849 H 0.43059 0.73745 0.9951 0.0
H850 H 0.46212 0.71019 0.96244 0.0
C851 C 0.48235 0.77832 0.94366 0.0
C852 C 0.27132 0.48385 0.96556 0.0
C853 C 0.28007 0.47433 0.93811 0.0
H854 H 0.24905 0.47332 1.00492 0.0
C855 C 0.27156 0.44677 0.92884 0.0
H856 H 0.27742 0.50508 0.97317 0.0
C857 C 0.25437 0.42923 0.94639 0.0
C858 C 0.24606 0.43841 0.97403 0.0
H859 H 0.27765 0.439 0.90766 0.0
H860 H 0.24815 0.40811 0.93856 0.0
C861 C 0.25498 0.46578 0.98362 0.0
C862 C 0.59678 0.25425 0.94392 0.0
C863 C 0.5874 0.24577 0.97145 0.0
H864 H 0.58739 0.27803 0.90542 0.0
C865 C 0.5601 0.25491 0.98107 0.0
H866 H 0.61787 0.24787 0.93609 0.0
C867 C 0.54226 0.27164 0.96312 0.0
C868 C 0.55199 0.28055 0.9358 0.0
H869 H 0.55243 0.24886 1.00229 0.0
H870 H 0.52107 0.2779 0.97073 0.0
C871 C 0.57949 0.27182 0.92651 0.0
C872 C 0.77757 0.54595 0.944 0.0
C873 C 0.7472 0.54646 0.94337 0.0
H874 H 0.81633 0.56483 0.9612 0.0
C875 C 0.73251 0.56518 0.96207 0.0
H876 H 0.78944 0.53194 0.92956 0.0
C877 C 0.74789 0.58317 0.98092 0.0
C878 C 0.77826 0.58364 0.98057 0.0
H879 H 0.70914 0.56611 0.96189 0.0
H880 H 0.73602 0.59773 0.99481 0.0
C881 C 0.79296 0.56479 0.962 0.0
C882 C 0.57997 0.75487 0.09699 0.0
C883 C 0.55237 0.74614 0.08796 0.0
H884 H 0.61827 0.77882 0.08703 0.0
C885 C 0.5424 0.75501 0.06071 0.0
H886 H 0.58807 0.74869 0.11802 0.0
C887 C 0.56007 0.77172 0.04259 0.0
C888 C 0.58747 0.78087 0.05194 0.0
H889 H 0.52113 0.74875 0.05331 0.0
H890 H 0.55219 0.77776 0.02144 0.0
C891 C 0.59711 0.77242 0.07939 0.0
C892 C 0.25603 0.56062 0.04245 0.0
C893 C 0.24725 0.58805 0.05198 0.0
H894 H 0.27838 0.52129 0.05294 0.0
C895 C 0.25581 0.59734 0.07952 0.0
H896 H 0.2499 0.55301 0.02123 0.0
C897 C 0.27307 0.57982 0.09703 0.0
C898 C 0.2814 0.55218 0.08784 0.0
H899 H 0.2497 0.6185 0.0873 0.0
H900 H 0.27931 0.58766 0.11814 0.0
C901 C 0.27243 0.54258 0.06049 0.0
C902 C 0.75668 0.48412 0.06104 0.0
C903 C 0.74792 0.4746 0.08848 0.0
H904 H 0.77866 0.47348 0.02154 0.0
C905 C 0.75609 0.44688 0.0976 0.0
H906 H 0.75084 0.50547 0.05355 0.0
C907 C 0.77297 0.4292 0.0799 0.0
C908 C 0.7813 0.4384 0.05226 0.0
H909 H 0.74999 0.4391 0.11876 0.0
H910 H 0.77894 0.40796 0.08762 0.0
C911 C 0.7727 0.46592 0.04283 0.0
C912 C 1.01117 0.24845 0.27033 0.0
C913 C 1.00968 0.25615 0.2996 0.0
H914 H 0.01592 0.26315 0.22665 0.0
C915 C 1.01125 0.28544 0.30716 0.0
H916 H 1.01026 0.22599 0.26395 0.0
C917 C 0.0137 0.30668 0.28583 0.0
C918 C 0.01571 0.29896 0.25661 0.0
H919 H 1.01019 0.29195 0.32957 0.0
H920 H 0.01444 0.32914 0.29222 0.0
C921 C 0.01466 0.26964 0.24905 0.0
C922 C 0.73893 0.01553 0.30627 0.0
C923 C 0.76811 1.01243 0.29865 0.0
H924 H 0.6953 0.02014 0.29143 0.0
C925 C 0.77575 1.01302 0.26932 0.0
H926 H 0.73245 0.01519 0.32872 0.0
C927 C 0.7546 0.0169 0.24803 0.0
C928 C 0.72535 0.01931 0.25566 0.0
H929 H 0.79813 1.01093 0.26288 0.0
H930 H 0.76103 0.01724 0.22558 0.0
C931 C 0.71771 0.01841 0.28497 0.0
C932 C 1.01235 0.75723 0.24783 0.0
C933 C 1.01206 0.72787 0.2554 0.0
H934 H 0.01607 0.80098 0.26266 0.0
C935 C 0.01514 0.72021 0.28455 0.0
H936 H 1.01027 0.7637 0.22548 0.0
C937 C 0.01774 0.74148 0.3058 0.0
C938 C 0.01836 0.77081 0.29824 0.0
H939 H 0.01502 0.69775 0.29098 0.0
H940 H 0.01948 0.73497 0.32817 0.0
C941 C 0.01595 0.7785 0.26903 0.0
C942 C 0.24961 0.01327 0.27039 0.0
C943 C 0.25711 0.01341 0.29977 0.0
H944 H 0.26449 1.0093 0.22668 0.0
C945 C 0.2862 1.00974 0.30751 0.0
H946 H 0.2273 0.0158 0.26385 0.0
C947 C 0.30748 1.00673 0.2863 0.0
C948 C 0.29998 1.00629 0.25694 0.0
H949 H 0.29258 1.00972 0.32999 0.0
H950 H 0.32982 1.00456 0.29286 0.0
C951 C 0.27081 1.00927 0.24918 0.0
C952 C 0.01544 0.75757 0.77967 0.0
C953 C 0.01631 0.72834 0.77166 0.0
H954 H 1.01089 0.80147 0.76548 0.0
C955 C 1.01354 0.7211 0.74238 0.0
H956 H 0.01722 0.76373 0.80214 0.0
C957 C 1.01054 0.74263 0.72146 0.0
C958 C 1.00926 0.77183 0.72943 0.0
H959 H 0.01406 0.69875 0.73559 0.0
H960 H 1.00895 0.7364 0.69899 0.0
C961 C 1.0115 0.77911 0.75878 0.0
C962 C 0.28812 0.01773 0.72004 0.0
C963 C 0.25897 0.01406 0.72757 0.0
H964 H 0.33165 0.02283 0.73502 0.0
C965 C 0.25128 0.01426 0.7569 0.0
H966 H 0.29465 0.01769 0.69761 0.0
C967 C 0.27233 0.01825 0.77828 0.0
C968 C 0.30157 0.02115 0.77073 0.0
H969 H 0.22892 1.01172 0.76328 0.0
H970 H 0.26587 0.01821 0.80072 0.0
C971 C 0.30925 0.02072 0.74142 0.0
C972 C 0.0161 0.24695 0.75636 0.0
C973 C 0.01888 0.25467 0.72719 0.0
H974 H 1.01004 0.26172 0.79987 0.0
C975 C 0.01851 0.28402 0.71967 0.0
H976 H 0.01603 0.22447 0.7627 0.0
C977 C 0.01578 0.30527 0.74092 0.0
C978 C 1.01234 0.29759 0.77002 0.0
H979 H 0.02053 0.29056 0.69733 0.0
H980 H 0.01586 0.32774 0.73452 0.0
C981 C 1.01239 0.26822 0.77755 0.0
C982 C 0.75782 0.9875 0.73336 0.0
C983 C 0.76766 0.01457 0.72381 0.0
H984 H 0.72973 0.96437 0.7621 0.0
C985 C 0.75579 0.03959 0.73605 0.0
H986 H 0.76672 0.96785 0.72439 0.0
C987 C 0.73404 0.03758 0.75694 0.0
C988 C 0.72445 1.01051 0.76675 0.0
H989 H 0.76292 0.06071 0.72905 0.0
H990 H 0.72498 0.05723 0.76575 0.0
C991 C 0.73678 0.98549 0.75499 0.0
C992 C 0.28752 0.30763 0.01313 0.0
C993 C 0.25829 0.29979 1.01115 0.0
H994 H 0.33135 0.29309 0.01692 0.0
C995 C 0.25082 0.27045 1.01253 0.0
H996 H 0.29385 0.3301 1.01216 0.0
C997 C 0.27217 0.24937 0.01631 0.0
C998 C 0.30145 0.25719 0.01778 0.0
H999 H 0.22841 0.26386 1.0113 0.0
H1000 H 0.26586 0.2269 0.01749 0.0
C1001 C 0.30893 0.28649 0.01588 0.0
C1002 C 0.28696 0.71945 1.0107 0.0
C1003 C 0.25777 0.72704 0.01386 0.0
H1004 H 0.33057 0.73432 1.00605 0.0
C1005 C 0.25013 0.75638 0.01341 0.0
H1006 H 0.29345 0.69701 1.01093 0.0
C1007 C 0.27127 0.7777 1.00957 0.0
C1008 C 0.30053 0.77009 1.00707 0.0
H1009 H 0.22775 0.7628 0.01555 0.0
H1010 H 0.26484 0.80015 1.00932 0.0
C1011 C 0.30817 0.74077 1.00786 0.0
C1012 C 0.77664 0.27016 0.01376 0.0
C1013 C 0.76891 0.29945 0.01496 0.0
H1014 H 0.76199 0.22646 1.00901 0.0
C1015 C 0.73963 0.30701 1.01283 0.0
H1016 H 0.79909 0.26378 0.0151 0.0
C1017 C 0.7184 0.28567 1.01013 0.0
C1018 C 0.72615 0.25643 1.00843 0.0
H1019 H 0.73311 0.32943 0.01367 0.0
H1020 H 0.69594 0.29206 1.00898 0.0
C1021 C 0.75548 0.24887 1.01003 0.0
C1022 C 0.77645 0.75706 1.00958 0.0
C1023 C 0.76869 0.72783 1.00753 0.0
H1024 H 0.76176 0.8007 0.01488 0.0
C1025 C 0.73931 0.72034 1.00844 0.0
H1026 H 0.79896 0.76339 1.00922 0.0
C1027 C 0.71808 0.74166 1.01094 0.0
C1028 C 0.72582 0.77084 0.01363 0.0
H1029 H 0.73274 0.69796 1.00696 0.0
H1030 H 0.69558 0.73529 1.01127 0.0
C1031 C 0.75522 0.77834 1.01308 0.0
C1032 C 0.51043 0.74855 0.77004 0.0
C1033 C 0.50834 0.75648 0.79922 0.0
H1034 H 0.51594 0.76295 0.72634 0.0
C1035 C 0.50946 0.78586 0.80654 0.0
H1036 H 0.50992 0.72603 0.76385 0.0
C1037 C 0.51219 0.80694 0.7851 0.0
C1038 C 0.51491 0.79902 0.75599 0.0
H1039 H 0.50798 0.79256 0.82887 0.0
H1040 H 0.51267 0.82945 0.79134 0.0
C1041 C 0.51415 0.76962 0.74866 0.0
C1042 C 0.24005 0.51628 0.80693 0.0
C1043 C 0.26921 0.51315 0.79923 0.0
H1044 H 0.1964 0.52107 0.79222 0.0
C1045 C 0.27677 0.51378 0.76988 0.0
H1046 H 0.23363 0.51591 0.82938 0.0
C1047 C 0.25557 0.51778 0.74865 0.0
C1048 C 0.22633 0.52026 0.75636 0.0
H1049 H 0.29913 0.51167 0.76337 0.0
H1050 H 0.26194 0.51817 0.72618 0.0
C1051 C 0.21878 0.51928 0.78569 0.0
C1052 C 0.51511 0.2783 0.76754 0.0
C1053 C 0.51503 0.27086 0.79694 0.0
H1054 H 0.51176 0.2633 0.72382 0.0
C1055 C 0.51164 0.24177 0.80468 0.0
H1056 H 0.51744 0.30061 0.761 0.0
C1057 C 0.50909 0.22045 0.78348 0.0
C1058 C 0.50886 0.22787 0.75411 0.0
H1059 H 0.51147 0.23543 0.82717 0.0
H1060 H 0.5071 0.19812 0.79008 0.0
C1061 C 0.51159 0.25703 0.74632 0.0
C1062 C 0.77061 0.51235 0.74878 0.0
C1063 C 0.8 0.51139 0.7563 0.0
H1064 H 0.72694 0.51706 0.76367 0.0
C1065 C 0.80778 0.51425 0.78544 0.0
H1066 H 0.76404 0.51045 0.72644 0.0
C1067 C 0.78659 0.51732 0.80673 0.0
C1068 C 0.75723 0.51863 0.79922 0.0
H1069 H 0.83027 0.51363 0.79183 0.0
H1070 H 0.79317 0.51891 0.82909 0.0
C1071 C 0.74944 0.51641 0.77001 0.0
C1072 C 0.518 0.25803 0.27947 0.0
C1073 C 0.52102 0.22885 0.27186 0.0
H1074 H 0.51169 0.30144 0.26451 0.0
C1075 C 0.52089 0.22125 0.24254 0.0
H1076 H 0.51772 0.26443 0.30193 0.0
C1077 C 0.51812 0.24241 0.2212 0.0
C1078 C 0.51441 0.2715 0.22877 0.0
H1079 H 0.52309 0.1989 0.2361 0.0
H1080 H 0.51836 0.23594 0.19876 0.0
C1081 C 0.51426 0.27912 0.25811 0.0
C1082 C 0.81056 0.51485 0.24142 0.0
C1083 C 0.80284 0.51642 0.27068 0.0
H1084 H 0.79581 0.51193 0.19763 0.0
C1085 C 0.77348 0.51525 0.27822 0.0
H1086 H 0.83304 0.5157 0.23504 0.0
C1087 C 0.75227 0.51205 0.25689 0.0
C1088 C 0.75998 0.51098 0.2276 0.0
H1089 H 0.76699 0.5162 0.30063 0.0
H1090 H 0.72979 0.511 0.26326 0.0
C1091 C 0.7893 0.51269 0.22005 0.0
C1092 C 0.51496 0.74848 0.25651 0.0
C1093 C 0.51537 0.75612 0.22718 0.0
H1094 H 0.51098 0.76318 0.30028 0.0
C1095 C 0.51221 0.78527 0.21957 0.0
H1096 H 0.5171 0.72612 0.26295 0.0
C1097 C 0.50943 0.80646 0.24087 0.0
C1098 C 0.5087 0.79883 0.27019 0.0
H1099 H 0.51241 0.79175 0.19712 0.0
H1100 H 0.50764 0.82884 0.23441 0.0
C1101 C 0.51118 0.7696 0.27782 0.0
C1102 C 0.27709 0.51461 0.25587 0.0
C1103 C 0.26954 0.51581 0.22654 0.0
H1104 H 0.26216 0.50998 0.29949 0.0
C1105 C 0.24028 0.51384 0.2188 0.0
H1106 H 0.29952 0.51584 0.26238 0.0
C1107 C 0.21892 0.51129 0.24002 0.0
C1108 C 0.22649 0.50957 0.26931 0.0
H1109 H 0.23389 0.51468 0.19634 0.0
H1110 H 0.19649 0.51025 0.23349 0.0
C1111 C 0.25579 0.51102 0.27704 0.0
C1112 C 0.80924 0.78608 0.51836 0.0
C1113 C 0.80193 0.75668 0.51928 0.0
H1114 H 0.794 0.82965 0.51514 0.0
C1115 C 0.77275 0.74871 0.51684 0.0
H1116 H 0.83157 0.7928 0.52012 0.0
C1117 C 0.75136 0.76975 0.51295 0.0
C1118 C 0.75867 0.79917 0.51238 0.0
H1119 H 0.76658 0.72618 0.5172 0.0
H1120 H 0.72906 0.76305 0.51086 0.0
C1121 C 0.78778 0.80713 0.51547 0.0
C1122 C 0.77018 0.23391 0.48777 0.0
C1123 C 0.76035 0.22434 0.51483 0.0
H1124 H 0.79799 0.26295 0.46466 0.0
C1125 C 0.77191 0.23689 0.53986 0.0
H1126 H 0.76151 0.2247 0.46812 0.0
C1127 C 0.79335 0.2581 0.53786 0.0
C1128 C 0.80294 0.26792 0.51081 0.0
H1129 H 0.76476 0.22989 0.56097 0.0
H1130 H 0.80218 0.26713 0.55752 0.0
C1131 C 0.79092 0.25585 0.48577 0.0
C1132 C 0.27649 0.77019 0.51236 0.0
C1133 C 0.26897 0.79956 0.51261 0.0
H1134 H 0.2616 0.72646 0.5084 0.0
C1135 C 0.23985 0.80727 0.50912 0.0
H1136 H 0.29881 0.76366 0.51476 0.0
C1137 C 0.21857 0.78604 0.5062 0.0
C1138 C 0.22607 0.75668 0.50566 0.0
H1139 H 0.23347 0.82975 0.50919 0.0
H1140 H 0.19621 0.79258 0.50418 0.0
C1141 C 0.25528 0.74895 0.50844 0.0
C1142 C 0.21948 0.24116 0.5202 0.0
C1143 C 0.22713 0.27049 0.52053 0.0
H1144 H 0.23412 0.19738 0.51718 0.0
C1145 C 0.25634 0.27808 0.51745 0.0
H1146 H 0.19711 0.23473 0.52245 0.0
C1147 C 0.2774 0.25674 0.51339 0.0
C1148 C 0.26974 0.2274 0.5133 0.0
H1149 H 0.26277 0.30054 0.51733 0.0
H1150 H 0.29973 0.26315 0.51073 0.0
C1151 C 0.24062 0.21983 0.51713 0.0
C1152 C 0.10201 0.33077 0.10227 0.0
C1153 C 0.09755 0.35264 0.12272 0.0
H1154 H 0.12392 0.31713 0.06426 0.0
C1155 C 0.11378 0.37826 0.1203 0.0
H1156 H 0.08997 0.31077 0.10332 0.0
C1157 C 0.1337 0.38193 0.09763 0.0
C1158 C 0.13744 0.36021 0.07676 0.0
H1159 H 0.11082 0.39558 0.13567 0.0
H1160 H 0.14571 0.40192 0.09613 0.0
C1161 C 0.12148 0.33454 0.07964 0.0
C1162 C 0.64553 0.11357 0.11824 0.0
C1163 C 0.67083 0.09686 0.12072 0.0
H1164 H 0.62249 0.14577 0.09385 0.0
C1165 C 0.69273 0.10064 0.10015 0.0
H1166 H 0.62819 0.11114 0.13371 0.0
C1167 C 0.68933 0.11996 0.07738 0.0
C1168 C 0.664 0.13645 0.07445 0.0
H1169 H 0.71251 0.08822 0.10125 0.0
H1170 H 0.70678 0.12189 0.06195 0.0
C1171 C 0.64222 0.13335 0.09539 0.0
C1172 C 0.91076 0.64856 0.12166 0.0
C1173 C 0.9275 0.67392 0.12341 0.0
H1174 H 0.8781 0.62506 0.09828 0.0
C1175 C 0.92298 0.6956 0.10276 0.0
H1176 H 0.91372 0.6314 0.13722 0.0
C1177 C 0.90308 0.69182 0.08048 0.0
C1178 C 0.88673 0.66634 0.07818 0.0
H1179 H 0.93535 0.71542 0.10331 0.0
H1180 H 0.90068 0.70902 0.06486 0.0
C1181 C 0.89038 0.6449 0.09936 0.0
C1182 C 0.33763 0.90566 0.07877 0.0
C1183 C 0.36254 0.88839 0.07694 0.0
H1184 H 0.31455 0.93829 0.10151 0.0
C1185 C 0.38358 0.89099 0.09871 0.0
H1186 H 0.32076 0.90412 0.06267 0.0
C1187 C 0.38004 0.91107 0.12124 0.0
C1188 C 0.35519 0.92857 0.12262 0.0
H1189 H 0.40298 0.87798 0.098 0.0
H1190 H 0.39684 0.9131 0.13735 0.0
C1191 C 0.33396 0.92526 0.10126 0.0
C1192 C 0.1008 0.69367 0.92506 0.0
C1193 C 0.09675 0.672 0.90432 0.0
H1194 H 0.12264 0.70735 0.96307 0.0
C1195 C 0.11359 0.64675 0.90626 0.0
H1196 H 0.08831 0.7134 0.92438 0.0
C1197 C 0.13375 0.64325 0.92877 0.0
C1198 C 0.13713 0.66478 0.9499 0.0
H1199 H 0.11095 0.6296 0.89064 0.0
H1200 H 0.14626 0.62355 0.9299 0.0
C1201 C 0.12052 0.69008 0.94749 0.0
C1202 C 0.33531 0.10041 0.92783 0.0
C1203 C 0.3566 0.09743 0.90649 0.0
H1204 H 0.32194 0.121 0.96664 0.0
C1205 C 0.38155 0.11475 0.90836 0.0
H1206 H 0.31584 0.08747 0.92725 0.0
C1207 C 0.38506 0.13444 0.93124 0.0
C1208 C 0.36386 0.13685 0.95287 0.0
H1209 H 0.39842 0.11293 0.89231 0.0
H1210 H 0.40447 0.14742 0.93221 0.0
C1211 C 0.33893 0.11965 0.95066 0.0
C1212 C 0.90527 0.33413 0.94646 0.0
C1213 C 0.88937 0.35985 0.9492 0.0
H1214 H 0.93668 0.31016 0.9229 0.0
C1215 C 0.8931 0.38142 0.92816 0.0
H1216 H 0.90281 0.31682 0.96195 0.0
C1217 C 0.91299 0.37757 0.90548 0.0
C1218 C 0.92917 0.35192 0.90322 0.0
H1219 H 0.88114 0.40144 0.92954 0.0
H1220 H 0.91596 0.39479 0.88999 0.0
C1221 C 0.92469 0.33018 0.92382 0.0
C1222 C 0.68855 0.90681 0.9451 0.0
C1223 C 0.663 0.89075 0.94858 0.0
H1224 H 0.71195 0.93778 0.92034 0.0
C1225 C 0.64101 0.8939 0.92785 0.0
H1226 H 0.70615 0.90482 0.96036 0.0
C1227 C 0.64434 0.91328 0.90467 0.0
C1228 C 0.6699 0.92948 0.90152 0.0
H1229 H 0.62111 0.8818 0.9298 0.0
H1230 H 0.62683 0.91573 0.88938 0.0
C1231 C 0.69201 0.92568 0.9219 0.0
C1232 C 0.12126 0.114 0.3784 0.0
C1233 C 0.12389 0.09786 0.35277 0.0
H1234 H 0.0966 0.14548 0.4021 0.0
C1235 C 0.10338 0.10209 0.33088 0.0
H1236 H 0.13667 0.11121 0.39574 0.0
C1237 C 0.08043 0.12118 0.33468 0.0
C1238 C 0.07731 0.13699 0.36039 0.0
H1239 H 0.10459 0.0901 0.31087 0.0
H1240 H 0.06499 0.12343 0.31728 0.0
C1241 C 0.09828 0.13356 0.38209 0.0
C1242 C 0.91246 0.11941 0.37836 0.0
C1243 C 0.92927 0.12149 0.35311 0.0
H1244 H 0.88001 0.09556 0.40159 0.0
C1245 C 0.92551 0.10059 0.33153 0.0
H1246 H 0.91488 0.13513 0.39546 0.0
C1247 C 0.90606 0.07792 0.33521 0.0
C1248 C 0.88941 0.07546 0.36048 0.0
H1249 H 0.93805 0.10135 0.31183 0.0
H1250 H 0.90411 0.06223 0.31801 0.0
C1251 C 0.89255 0.09672 0.38193 0.0
C1252 C 0.92079 0.92275 0.33001 0.0
C1253 C 0.90028 0.92728 0.35184 0.0
H1254 H 0.95891 0.90083 0.31658 0.0
C1255 C 0.90244 0.9109 0.37737 0.0
H1256 H 0.9199 0.93485 0.31006 0.0
C1257 C 0.92505 0.89092 0.38111 0.0
C1258 C 0.94613 0.88732 0.35955 0.0
H1259 H 0.887 0.91389 0.39464 0.0
H1260 H 0.92649 0.87893 0.4011 0.0
C1261 C 0.94338 0.90325 0.33387 0.0
C1262 C 0.13228 0.92959 0.38301 0.0
C1263 C 0.13547 0.95095 0.36167 0.0
H1264 H 0.10973 0.89123 0.3964 0.0
C1265 C 0.11859 0.94884 0.33652 0.0
H1266 H 0.14499 0.93049 0.40259 0.0
C1267 C 0.0989 0.92641 0.33283 0.0
C1268 C 0.09514 0.90536 0.35426 0.0
H1269 H 0.12054 0.96463 0.3194 0.0
H1270 H 0.08625 0.92592 0.31319 0.0
C1271 C 0.11214 0.90708 0.37942 0.0
C1272 C 0.08479 0.90311 0.69356 0.0
C1273 C 0.08121 0.88776 0.66763 0.0
H1274 H 0.10907 0.93411 0.71733 0.0
C1275 C 0.10175 0.89163 0.6456 0.0
H1276 H 0.0697 0.90045 0.71121 0.0
C1277 C 0.12459 0.9114 0.64913 0.0
C1278 C 0.1275 0.9273 0.67489 0.0
H1279 H 0.09968 0.88007 0.62542 0.0
H1280 H 0.13956 0.91468 0.63149 0.0
C1281 C 0.10759 0.92241 0.69718 0.0
C1282 C 0.11888 0.07635 0.68943 0.0
C1283 C 0.13653 0.07477 0.66478 0.0
H1284 H 0.08575 0.09872 0.71216 0.0
C1285 C 0.13378 0.09644 0.64367 0.0
H1286 H 0.12043 0.0603 0.70634 0.0
C1287 C 0.11342 0.11877 0.64704 0.0
C1288 C 0.09572 0.12002 0.67173 0.0
H1289 H 0.14707 0.09596 0.62447 0.0
H1290 H 0.11142 0.1349 0.63027 0.0
C1291 C 0.09896 0.09861 0.6929 0.0
C1292 C 0.92635 0.13499 0.64181 0.0
C1293 C 0.94659 0.13892 0.6641 0.0
H1294 H 0.88874 0.1119 0.62724 0.0
C1295 C 0.94278 0.12352 0.68996 0.0
H1296 H 0.92862 0.14657 0.62165 0.0
C1297 C 0.91993 0.10421 0.69332 0.0
C1298 C 0.90026 0.09933 0.6708 0.0
H1299 H 0.95768 0.12621 0.70777 0.0
H1300 H 0.91821 0.09251 0.71346 0.0
C1301 C 0.90352 0.11516 0.64504 0.0
C1302 C 0.9152 0.90797 0.64874 0.0
C1303 C 0.93242 0.90711 0.67376 0.0
H1304 H 0.88201 0.93032 0.62517 0.0
C1305 C 0.92885 0.9289 0.6945 0.0
H1306 H 0.91746 0.89157 0.63228 0.0
C1307 C 0.90896 0.95114 0.69029 0.0
C1308 C 0.89176 0.95223 0.6653 0.0
H1309 H 0.94175 0.92908 0.71399 0.0
H1310 H 0.90706 0.96751 0.70684 0.0
C1311 C 0.89495 0.93022 0.64462 0.0
C1312 C 0.38368 0.09899 0.13736 0.0
C1313 C 0.36217 0.07775 0.1404 0.0
H1314 H 0.39734 0.13738 0.11506 0.0
C1315 C 0.33673 0.08049 0.12404 0.0
H1316 H 0.40349 0.09758 0.14969 0.0
C1317 C 0.33304 0.10326 0.10474 0.0
C1318 C 0.3548 0.12399 0.10083 0.0
H1319 H 0.31948 0.06483 0.12599 0.0
H1320 H 0.31325 0.10415 0.09232 0.0
C1321 C 0.38012 0.12179 0.11757 0.0
C1322 C 0.3846 0.92812 0.89102 0.0
C1323 C 0.36316 0.94938 0.88778 0.0
H1324 H 0.39811 0.88988 0.91369 0.0
C1325 C 0.33774 0.94692 0.9042 0.0
H1326 H 0.40439 0.92933 0.87867 0.0
C1327 C 0.334 0.92439 0.92376 0.0
C1328 C 0.35567 0.90362 0.92785 0.0
H1329 H 0.32054 0.96261 0.90211 0.0
H1330 H 0.31422 0.92371 0.93618 0.0
C1331 C 0.38097 0.90553 0.91105 0.0
C1332 C 0.09812 0.38135 0.89332 0.0
C1333 C 0.07713 0.35964 0.89002 0.0
H1334 H 0.1365 0.39513 0.91563 0.0
C1335 C 0.08009 0.33413 0.90621 0.0
H1336 H 0.09657 0.4012 0.88112 0.0
C1337 C 0.10296 0.3305 0.92544 0.0
C1338 C 0.12356 0.35236 0.92944 0.0
H1339 H 0.06463 0.31674 0.9041 0.0
H1340 H 0.10408 0.31062 0.93766 0.0
C1341 C 0.12102 0.37782 0.91302 0.0
C1342 C 0.6942 0.10066 0.92347 0.0
C1343 C 0.67272 0.12168 0.92742 0.0
H1344 H 0.70727 0.06215 0.90196 0.0
C1345 C 0.64723 0.11966 0.91096 0.0
H1346 H 0.71407 0.10138 0.93577 0.0
C1347 C 0.64331 0.09694 0.89122 0.0
C1348 C 0.66466 0.0756 0.88781 0.0
H1349 H 0.6302 0.13544 0.91354 0.0
H1350 H 0.62344 0.09588 0.87895 0.0
C1351 C 0.69018 0.07794 0.90411 0.0
C1352 C 0.92632 0.64357 0.89188 0.0
C1353 C 0.94783 0.66479 0.88883 0.0
H1354 H 0.88794 0.63023 0.91447 0.0
C1355 C 0.94578 0.68996 0.90564 0.0
H1356 H 0.92721 0.62397 0.87921 0.0
C1357 C 0.92335 0.6937 0.9253 0.0
C1358 C 0.90228 0.67227 0.92913 0.0
H1359 H 0.96168 0.707 0.90372 0.0
H1360 H 0.92295 0.71331 0.93798 0.0
C1361 C 0.90384 0.64718 0.91203 0.0
C1362 C 0.64263 0.92754 0.13414 0.0
C1363 C 0.66418 0.94859 0.13799 0.0
H1364 H 0.62914 0.88973 0.11076 0.0
C1365 C 0.68986 0.94609 0.12197 0.0
H1366 H 0.62263 0.92877 0.14616 0.0
C1367 C 0.69373 0.92377 0.10219 0.0
C1368 C 0.67194 0.90326 0.09745 0.0
H1369 H 0.70715 0.96162 0.12454 0.0
H1370 H 0.7137 0.92308 0.09007 0.0
C1371 C 0.64639 0.90518 0.11388 0.0
C1372 C 0.07929 0.69116 0.11868 0.0
C1373 C 0.07673 0.66592 0.13533 0.0
H1374 H 0.10316 0.71465 0.08711 0.0
C1375 C 0.09826 0.64465 0.13269 0.0
H1376 H 0.0634 0.70822 0.12027 0.0
C1377 C 0.12132 0.64835 0.11323 0.0
C1378 C 0.12351 0.67357 0.0964 0.0
H1379 H 0.09704 0.62501 0.14527 0.0
H1380 H 0.13723 0.63137 0.11116 0.0
C1381 C 0.10234 0.69499 0.09969 0.0
C1382 C 0.92841 0.38151 0.13295 0.0
C1383 C 0.94948 0.3599 0.13627 0.0
H1384 H 0.89005 0.39516 0.11056 0.0
C1385 C 0.94667 0.33439 0.12007 0.0
H1386 H 0.92986 0.40136 0.14516 0.0
C1387 C 0.92386 0.33069 0.10078 0.0
C1388 C 0.9032 0.35247 0.09674 0.0
H1389 H 0.96221 0.31707 0.12221 0.0
H1390 H 0.92285 0.31082 0.08853 0.0
C1391 C 0.90559 0.37792 0.11319 0.0
C1392 C 0.6203 0.83423 0.57803 0.0
C1393 C 0.63674 0.85965 0.57558 0.0
H1394 H 0.58847 0.8106 0.60144 0.0
C1395 C 0.63341 0.88108 0.59682 0.0
H1396 H 0.6224 0.81705 0.56236 0.0
C1397 C 0.61351 0.87736 0.61949 0.0
C1398 C 0.59689 0.85197 0.62156 0.0
H1399 H 0.64579 0.90086 0.59566 0.0
H1400 H 0.61093 0.89445 0.63518 0.0
C1401 C 0.60085 0.8304 0.60068 0.0
C1402 C 0.14591 0.61669 0.62105 0.0
C1403 C 0.17121 0.59989 0.62304 0.0
H1404 H 0.12257 0.64908 0.59718 0.0
C1405 C 0.19295 0.604 0.60235 0.0
H1406 H 0.12872 0.61404 0.63664 0.0
C1407 C 0.18929 0.62357 0.57982 0.0
C1408 C 0.16387 0.63998 0.57727 0.0
H1409 H 0.21274 0.59158 0.6031 0.0
H1410 H 0.20654 0.62567 0.5642 0.0
C1411 C 0.14236 0.63673 0.59846 0.0
C1412 C 0.40992 0.18919 0.57536 0.0
C1413 C 0.39215 0.16461 0.57391 0.0
H1414 H 0.44308 0.21196 0.59771 0.0
C1415 C 0.39472 0.14366 0.59575 0.0
H1416 H 0.40852 0.20598 0.55919 0.0
C1417 C 0.41501 0.1471 0.61814 0.0
C1418 C 0.43282 0.17174 0.61928 0.0
H1419 H 0.38133 0.12451 0.59537 0.0
H1420 H 0.41686 0.13046 0.63441 0.0
C1421 C 0.42977 0.19275 0.59769 0.0
C1422 C 0.83629 0.40571 0.57815 0.0
C1423 C 0.86185 0.38946 0.57591 0.0
H1424 H 0.81226 0.43728 0.60153 0.0
C1425 C 0.88307 0.39285 0.59739 0.0
H1426 H 0.8193 0.40358 0.56224 0.0
C1427 C 0.87901 0.41252 0.62014 0.0
C1428 C 0.85349 0.42893 0.62206 0.0
H1429 H 0.90296 0.38061 0.59642 0.0
H1430 H 0.89596 0.41508 0.63602 0.0
C1431 C 0.83213 0.42501 0.6009 0.0
C1432 C 0.61364 0.14775 0.4082 0.0
C1433 C 0.59622 0.17262 0.40735 0.0
H1434 H 0.64703 0.12447 0.43055 0.0
C1435 C 0.59957 0.19335 0.42919 0.0
H1436 H 0.61156 0.13131 0.39175 0.0
C1437 C 0.61946 0.18929 0.45145 0.0
C1438 C 0.6369 0.16447 0.45251 0.0
H1439 H 0.5865 0.21271 0.42938 0.0
H1440 H 0.6212 0.20583 0.46784 0.0
C1441 C 0.63391 0.14379 0.43047 0.0
C1442 C 0.83472 0.60377 0.42386 0.0
C1443 C 0.85665 0.59895 0.40354 0.0
H1444 H 0.82105 0.62625 0.46153 0.0
C1445 C 0.88221 0.61535 0.40561 0.0
H1446 H 0.81473 0.59167 0.42305 0.0
C1447 C 0.88585 0.63568 0.42793 0.0
C1448 C 0.86415 0.63961 0.4488 0.0
H1449 H 0.89956 0.61216 0.3903 0.0
H1450 H 0.90585 0.64769 0.42929 0.0
C1451 C 0.83845 0.62362 0.44615 0.0
C1452 C 0.39401 0.88293 0.42882 0.0
C1453 C 0.39064 0.86143 0.45 0.0
H1454 H 0.41679 0.89652 0.39067 0.0
C1455 C 0.40739 0.83621 0.44775 0.0
H1456 H 0.38141 0.90257 0.42983 0.0
C1457 C 0.42714 0.83261 0.42538 0.0
C1458 C 0.43112 0.85421 0.40453 0.0
H1459 H 0.4053 0.81898 0.46339 0.0
H1460 H 0.4397 0.81292 0.42478 0.0
C1461 C 0.41422 0.87942 0.40637 0.0
C1462 C 0.14772 0.41016 0.40479 0.0
C1463 C 0.17304 0.42691 0.40268 0.0
H1464 H 0.12427 0.37803 0.4289 0.0
C1465 C 0.19472 0.42302 0.42349 0.0
H1466 H 0.13056 0.41265 0.38913 0.0
C1467 C 0.19095 0.40372 0.44626 0.0
C1468 C 0.16551 0.38734 0.44889 0.0
H1469 H 0.2145 0.43544 0.42268 0.0
H1470 H 0.20814 0.40177 0.46198 0.0
C1471 C 0.14408 0.39037 0.42758 0.0
C1472 C 0.60328 0.60263 0.83262 0.0
C1473 C 0.62415 0.59852 0.85419 0.0
H1474 H 0.56518 0.62456 0.81918 0.0
C1475 C 0.62253 0.6155 0.87935 0.0
H1476 H 0.60374 0.59005 0.81295 0.0
C1477 C 0.60016 0.63579 0.88292 0.0
C1478 C 0.57881 0.63908 0.86157 0.0
H1479 H 0.63827 0.61285 0.89642 0.0
H1480 H 0.59919 0.64832 0.9026 0.0
C1481 C 0.58095 0.62243 0.8363 0.0
C1482 C 0.4132 0.62041 0.88 0.0
C1483 C 0.43013 0.62251 0.85482 0.0
H1484 H 0.38056 0.59655 0.90299 0.0
C1485 C 0.42632 0.60175 0.83311 0.0
H1486 H 0.41564 0.63603 0.89718 0.0
C1487 C 0.40674 0.5792 0.83658 0.0
C1488 C 0.39 0.57667 0.86177 0.0
H1489 H 0.4389 0.60255 0.81344 0.0
H1490 H 0.40479 0.56363 0.81927 0.0
C1491 C 0.39316 0.59778 0.88337 0.0
C1492 C 0.40575 0.41317 0.87711 0.0
C1493 C 0.4034 0.42998 0.85189 0.0
H1494 H 0.43013 0.38108 0.90028 0.0
C1495 C 0.42433 0.42655 0.83027 0.0
H1496 H 0.39002 0.41534 0.89425 0.0
C1497 C 0.44732 0.40746 0.8339 0.0
C1498 C 0.45007 0.39085 0.85915 0.0
H1499 H 0.42337 0.4391 0.81059 0.0
H1500 H 0.46304 0.40577 0.81669 0.0
C1501 C 0.42876 0.39361 0.88062 0.0
C1502 C 0.60309 0.42442 0.83029 0.0
C1503 C 0.59874 0.40343 0.85168 0.0
H1504 H 0.62502 0.46272 0.81744 0.0
C1505 C 0.61535 0.40505 0.87713 0.0
H1506 H 0.59079 0.42399 0.81043 0.0
C1507 C 0.63547 0.42751 0.88115 0.0
C1508 C 0.63899 0.44899 0.85999 0.0
H1509 H 0.61251 0.38923 0.89407 0.0
H1510 H 0.6477 0.42844 0.90103 0.0
C1511 C 0.62272 0.44686 0.83444 0.0
C1512 C 0.59982 0.39455 0.14502 0.0
C1513 C 0.5786 0.39148 0.16653 0.0
H1514 H 0.63843 0.41658 0.1315 0.0
C1515 C 0.58135 0.40785 0.19194 0.0
H1516 H 0.59843 0.3822 0.12525 0.0
C1517 C 0.60426 0.427 0.19568 0.0
C1518 C 0.62511 0.43073 0.17403 0.0
H1519 H 0.5657 0.40592 0.20918 0.0
H1520 H 0.60523 0.43934 0.21548 0.0
C1521 C 0.62276 0.41417 0.14865 0.0
C1522 C 0.63586 0.59853 0.14461 0.0
C1523 C 0.63973 0.57781 0.16646 0.0
H1524 H 0.61265 0.63628 0.13067 0.0
C1525 C 0.62375 0.58074 0.1921 0.0
H1526 H 0.64787 0.59699 0.12464 0.0
C1527 C 0.60407 0.60322 0.19569 0.0
C1528 C 0.59943 0.62348 0.17367 0.0
H1529 H 0.6263 0.56548 0.20961 0.0
H1530 H 0.59201 0.60428 0.21567 0.0
C1531 C 0.61573 0.62106 0.14811 0.0
C1532 C 0.44816 0.61976 0.19093 0.0
C1533 C 0.45091 0.636 0.16543 0.0
H1534 H 0.42426 0.58839 0.21463 0.0
C1535 C 0.42968 0.63284 0.14394 0.0
H1536 H 0.46381 0.62177 0.20817 0.0
C1537 C 0.40673 0.61324 0.14766 0.0
C1538 C 0.40437 0.5968 0.17313 0.0
H1539 H 0.43107 0.64509 0.1241 0.0
H1540 H 0.39106 0.61075 0.13051 0.0
C1541 C 0.42523 0.60064 0.19477 0.0
C1542 C 0.41418 0.40623 0.14859 0.0
C1543 C 0.43034 0.40398 0.17426 0.0
H1544 H 0.38222 0.43017 0.12473 0.0
C1545 C 0.42564 0.42443 0.19608 0.0
H1546 H 0.41731 0.39084 0.1313 0.0
C1547 C 0.40605 0.44694 0.19217 0.0
C1548 C 0.3902 0.44969 0.16642 0.0
H1549 H 0.4376 0.42351 0.21613 0.0
H1550 H 0.40345 0.46234 0.20954 0.0
C1551 C 0.39413 0.42877 0.14477 0.0
C1552 C 0.83791 0.57871 0.61983 0.0
C1553 C 0.86316 0.57567 0.63644 0.0
H1554 H 0.81496 0.60271 0.58803 0.0
C1555 C 0.88504 0.59654 0.63347 0.0
H1556 H 0.82039 0.56335 0.62165 0.0
C1557 C 0.8819 0.61944 0.61372 0.0
C1558 C 0.85668 0.62204 0.5969 0.0
H1559 H 0.90471 0.59492 0.64599 0.0
H1560 H 0.8993 0.63486 0.6114 0.0
C1561 C 0.83468 0.60152 0.60053 0.0
C1562 C 0.88649 0.42897 0.39407 0.0
C1563 C 0.86461 0.4498 0.39079 0.0
H1564 H 0.90042 0.3905 0.41605 0.0
C1565 C 0.839 0.44646 0.40677 0.0
H1566 H 0.90644 0.43081 0.38205 0.0
C1567 C 0.83537 0.42332 0.42569 0.0
C1568 C 0.85737 0.40285 0.42962 0.0
H1569 H 0.82149 0.4618 0.40468 0.0
H1570 H 0.81539 0.42187 0.43772 0.0
C1571 C 0.883 0.40585 0.4135 0.0
C1572 C 0.58298 0.83394 0.40311 0.0
C1573 C 0.58026 0.8597 0.38729 0.0
H1574 H 0.6064 0.80999 0.43467 0.0
C1575 C 0.60132 0.88125 0.39105 0.0
H1576 H 0.56745 0.81665 0.40058 0.0
C1577 C 0.62389 0.87743 0.41108 0.0
C1578 C 0.62604 0.85182 0.42734 0.0
H1579 H 0.59992 0.9013 0.37916 0.0
H1580 H 0.63933 0.8947 0.41419 0.0
C1581 C 0.60554 0.83001 0.42265 0.0
C1582 C 0.14627 0.6193 0.41178 0.0
C1583 C 0.17112 0.62115 0.42923 0.0
H1584 H 0.12351 0.59547 0.37898 0.0
C1585 C 0.19243 0.59982 0.42634 0.0
H1586 H 0.12938 0.63535 0.41352 0.0
C1587 C 0.18891 0.577 0.40707 0.0
C1588 C 0.16407 0.57481 0.38974 0.0
H1589 H 0.21183 0.60039 0.43938 0.0
H1590 H 0.20591 0.56102 0.40579 0.0
C1591 C 0.14286 0.59643 0.39206 0.0
C1592 C 0.42664 0.1451 0.39069 0.0
C1593 C 0.4473 0.16703 0.38688 0.0
H1594 H 0.38875 0.13113 0.41369 0.0
C1595 C 0.44384 0.19296 0.40225 0.0
H1596 H 0.42863 0.12491 0.37913 0.0
C1597 C 0.42103 0.19667 0.42151 0.0
C1598 C 0.40101 0.17446 0.42637 0.0
H1599 H 0.45902 0.21054 0.39962 0.0
H1600 H 0.41965 0.21682 0.43324 0.0
C1601 C 0.4038 0.1487 0.41045 0.0
C1602 C 0.18919 0.44889 0.62103 0.0
C1603 C 0.1642 0.45073 0.63817 0.0
H1604 H 0.21244 0.42614 0.58853 0.0
C1605 C 0.14318 0.42896 0.63549 0.0
H1606 H 0.20606 0.465 0.62262 0.0
C1607 C 0.14684 0.4064 0.61544 0.0
C1608 C 0.17176 0.40501 0.59806 0.0
H1609 H 0.12373 0.42967 0.64841 0.0
H1610 H 0.13005 0.39028 0.61334 0.0
C1611 C 0.19297 0.42638 0.60146 0.0
C1612 C 0.60855 0.19331 0.60428 0.0
C1613 C 0.62821 0.17076 0.59956 0.0
H1614 H 0.57077 0.20787 0.6261 0.0
C1615 C 0.62492 0.14508 0.61551 0.0
H1616 H 0.61031 0.21339 0.59248 0.0
C1617 C 0.60205 0.14195 0.63529 0.0
C1618 C 0.58181 0.16425 0.63905 0.0
H1619 H 0.6397 0.12727 0.61237 0.0
H1620 H 0.59973 0.12185 0.64696 0.0
C1621 C 0.58566 0.19004 0.62354 0.0
C1622 C 0.42815 0.88152 0.63253 0.0
C1623 C 0.44902 0.85974 0.63601 0.0
H1624 H 0.38983 0.8953 0.61014 0.0
C1625 C 0.4458 0.83403 0.6202 0.0
H1626 H 0.4299 0.90153 0.64444 0.0
C1627 C 0.42285 0.83031 0.60108 0.0
C1628 C 0.40243 0.85227 0.59683 0.0
H1629 H 0.46115 0.81656 0.62249 0.0
H1630 H 0.42156 0.8103 0.58911 0.0
C1631 C 0.40517 0.8779 0.61295 0.0
loop_
_geom_bond_atom_site_label_1
_geom_bond_atom_site_label_2
_geom_bond_distance
_geom_bond_site_symmetry_2
_ccdc_geom_bond_type
O0 Cd1 2.223 . S
O0 C8 1.315 . S
Cd1 O0 2.223 . S
Cd1 O4 2.297 . S
Cd1 O5 2.439 . S
Cd1 O11 2.240 . S
Cd2 O3 2.240 . S
Cd2 O10 2.223 . S
Cd2 O12 2.297 . S
Cd2 O13 2.439 . S
O3 Cd2 2.240 . S
O3 C8 1.279 . S
O4 Cd1 2.297 . S
O4 C6 1.247 . S
O5 Cd1 2.439 . S
O5 C6 1.208 . S
C6 O4 1.247 . S
C6 O5 1.208 . S
C7 O12 1.247 . S
C7 O13 1.208 . S
C8 O0 1.315 . S
C8 O3 1.279 . S
C9 O10 1.315 . S
C9 O11 1.279 . S
O10 Cd2 2.223 . S
O10 C9 1.315 . S
O11 Cd1 2.240 . S
O11 C9 1.279 . S
O12 Cd2 2.297 . S
O12 C7 1.247 . S
O13 Cd2 2.439 . S
O13 C7 1.208 . S
O14 Cd15 2.223 . S
O14 C22 1.315 . S
Cd15 O14 2.223 . S
Cd15 O18 2.297 . S
Cd15 O19 2.439 . S
Cd15 O25 2.240 . S
Cd16 O17 2.240 . S
Cd16 O24 2.223 . S
Cd16 O26 2.297 . S
Cd16 O27 2.439 . S
O17 Cd16 2.240 . S
O17 C22 1.279 . S
O18 Cd15 2.297 . S
O18 C20 1.247 . S
O19 Cd15 2.439 . S
O19 C20 1.208 . S
C20 O18 1.247 . S
C20 O19 1.208 . S
C21 O26 1.247 . S
C21 O27 1.208 . S
C22 O14 1.315 . S
C22 O17 1.279 . S
C23 O24 1.315 . S
C23 O25 1.279 . S
O24 Cd16 2.223 . S
O24 C23 1.315 . S
O25 Cd15 2.240 . S
O25 C23 1.279 . S
O26 Cd16 2.297 . S
O26 C21 1.247 . S
O27 Cd16 2.439 . S
O27 C21 1.208 . S
O28 Cd29 2.223 . S
O28 C36 1.315 . S
Cd29 O28 2.223 . S
Cd29 O32 2.297 . S
Cd29 O33 2.439 . S
Cd29 O39 2.240 . S
Cd30 O31 2.240 . S
Cd30 O38 2.223 . S
Cd30 O40 2.297 . S
Cd30 O41 2.439 . S
O31 Cd30 2.240 . S
O31 C36 1.279 . S
O32 Cd29 2.297 . S
O32 C34 1.247 . S
O33 Cd29 2.439 . S
O33 C34 1.208 . S
C34 O32 1.247 . S
C34 O33 1.208 . S
C35 O40 1.247 . S
C35 O41 1.208 . S
C36 O28 1.315 . S
C36 O31 1.279 . S
C37 O38 1.315 . S
C37 O39 1.279 . S
O38 Cd30 2.223 . S
O38 C37 1.315 . S
O39 Cd29 2.240 . S
O39 C37 1.279 . S
O40 Cd30 2.297 . S
O40 C35 1.247 . S
O41 Cd30 2.439 . S
O41 C35 1.208 . S
O42 Cd43 2.223 . S
O42 C50 1.315 . S
Cd43 O42 2.223 . S
Cd43 O46 2.297 . S
Cd43 O47 2.439 . S
Cd43 O53 2.240 . S
Cd44 O45 2.240 . S
Cd44 O52 2.223 . S
Cd44 O54 2.297 . S
Cd44 O55 2.439 . S
O45 Cd44 2.240 . S
O45 C50 1.279 . S
O46 Cd43 2.297 . S
O46 C48 1.247 . S
O47 Cd43 2.439 . S
O47 C48 1.208 . S
C48 O46 1.247 . S
C48 O47 1.208 . S
C49 O54 1.247 . S
C49 O55 1.208 . S
C50 O42 1.315 . S
C50 O45 1.279 . S
C51 O52 1.315 . S
C51 O53 1.279 . S
O52 Cd44 2.223 . S
O52 C51 1.315 . S
O53 Cd43 2.240 . S
O53 C51 1.279 . S
O54 Cd44 2.297 . S
O54 C49 1.247 . S
O55 Cd44 2.439 . S
O55 C49 1.208 . S
O56 Cd57 2.223 . S
O56 C64 1.315 . S
Cd57 O56 2.223 . S
Cd57 O60 2.297 . S
Cd57 O61 2.439 . S
Cd57 O67 2.240 . S
Cd58 O59 2.240 . S
Cd58 O66 2.223 . S
Cd58 O68 2.297 . S
Cd58 O69 2.439 . S
O59 Cd58 2.240 . S
O59 C64 1.279 . S
O60 Cd57 2.297 . S
O60 C62 1.247 . S
O61 Cd57 2.439 . S
O61 C62 1.208 . S
C62 O60 1.247 . S
C62 O61 1.208 . S
C63 O68 1.247 . S
C63 O69 1.208 . S
C64 O56 1.315 . S
C64 O59 1.279 . S
C65 O66 1.315 . S
C65 O67 1.279 . S
O66 Cd58 2.223 . S
O66 C65 1.315 . S
O67 Cd57 2.240 . S
O67 C65 1.279 . S
O68 Cd58 2.297 . S
O68 C63 1.247 . S
O69 Cd58 2.439 . S
O69 C63 1.208 . S
O70 Cd71 2.223 . S
O70 C78 1.315 . S
Cd71 O70 2.223 . S
Cd71 O74 2.297 . S
Cd71 O75 2.439 . S
Cd71 O81 2.240 . S
Cd72 O73 2.240 . S
Cd72 O80 2.223 . S
Cd72 O82 2.297 . S
Cd72 O83 2.439 . S
O73 Cd72 2.240 . S
O73 C78 1.279 . S
O74 Cd71 2.297 . S
O74 C76 1.247 . S
O75 Cd71 2.439 . S
O75 C76 1.208 . S
C76 O74 1.247 . S
C76 O75 1.208 . S
C77 O82 1.247 . S
C77 O83 1.208 . S
C78 O70 1.315 . S
C78 O73 1.279 . S
C79 O80 1.315 . S
C79 O81 1.279 . S
O80 Cd72 2.223 . S
O80 C79 1.315 . S
O81 Cd71 2.240 . S
O81 C79 1.279 . S
O82 Cd72 2.297 . S
O82 C77 1.247 . S
O83 Cd72 2.439 . S
O83 C77 1.208 . S
O84 Cd85 2.223 . S
O84 C92 1.315 . S
Cd85 O84 2.223 . S
Cd85 O88 2.297 . S
Cd85 O89 2.439 . S
Cd85 O95 2.240 . S
Cd86 O87 2.240 . S
Cd86 O94 2.223 . S
Cd86 O96 2.297 . S
Cd86 O97 2.439 . S
O87 Cd86 2.240 . S
O87 C92 1.279 . S
O88 Cd85 2.297 . S
O88 C90 1.247 . S
O89 Cd85 2.439 . S
O89 C90 1.208 . S
C90 O88 1.247 . S
C90 O89 1.208 . S
C91 O96 1.247 . S
C91 O97 1.208 . S
C92 O84 1.315 . S
C92 O87 1.279 . S
C93 O94 1.315 . S
C93 O95 1.279 . S
O94 Cd86 2.223 . S
O94 C93 1.315 . S
O95 Cd85 2.240 . S
O95 C93 1.279 . S
O96 Cd86 2.297 . S
O96 C91 1.247 . S
O97 Cd86 2.439 . S
O97 C91 1.208 . S
O98 Cd99 2.223 . S
O98 C106 1.315 . S
Cd99 O98 2.223 . S
Cd99 O102 2.297 . S
Cd99 O103 2.439 . S
Cd99 O109 2.240 . S
Cd100 O101 2.240 . S
Cd100 O108 2.223 . S
Cd100 O110 2.297 . S
Cd100 O111 2.439 . S
O101 Cd100 2.240 . S
O101 C106 1.279 . S
O102 Cd99 2.297 . S
O102 C104 1.247 . S
O103 Cd99 2.439 . S
O103 C104 1.208 . S
C104 O102 1.247 . S
C104 O103 1.208 . S
C105 O110 1.247 . S
C105 O111 1.208 . S
C106 O98 1.315 . S
C106 O101 1.279 . S
C107 O108 1.315 . S
C107 O109 1.279 . S
O108 Cd100 2.223 . S
O108 C107 1.315 . S
O109 Cd99 2.240 . S
O109 C107 1.279 . S
O110 Cd100 2.297 . S
O110 C105 1.247 . S
O111 Cd100 2.439 . S
O111 C105 1.208 . S
O112 Cd113 2.223 . S
O112 C120 1.315 . S
Cd113 O112 2.223 . S
Cd113 O116 2.297 . S
Cd113 O117 2.439 . S
Cd113 O123 2.240 . S
Cd114 O115 2.240 . S
Cd114 O122 2.223 . S
Cd114 O124 2.297 . S
Cd114 O125 2.439 . S
O115 Cd114 2.240 . S
O115 C120 1.279 . S
O116 Cd113 2.297 . S
O116 C118 1.247 . S
O117 Cd113 2.439 . S
O117 C118 1.208 . S
C118 O116 1.247 . S
C118 O117 1.208 . S
C119 O124 1.247 . S
C119 O125 1.208 . S
C120 O112 1.315 . S
C120 O115 1.279 . S
C121 O122 1.315 . S
C121 O123 1.279 . S
O122 Cd114 2.223 . S
O122 C121 1.315 . S
O123 Cd113 2.240 . S
O123 C121 1.279 . S
O124 Cd114 2.297 . S
O124 C119 1.247 . S
O125 Cd114 2.439 . S
O125 C119 1.208 . S
O126 Cd127 2.223 . S
O126 C134 1.315 . S
Cd127 O126 2.223 . S
Cd127 O130 2.297 . S
Cd127 O131 2.439 . S
Cd127 O137 2.240 . S
Cd128 O129 2.240 . S
Cd128 O136 2.223 . S
Cd128 O138 2.297 . S
Cd128 O139 2.439 . S
O129 Cd128 2.240 . S
O129 C134 1.279 . S
O130 Cd127 2.297 . S
O130 C132 1.247 . S
O131 Cd127 2.439 . S
O131 C132 1.208 . S
C132 O130 1.247 . S
C132 O131 1.208 . S
C133 O138 1.247 . S
C133 O139 1.208 . S
C134 O126 1.315 . S
C134 O129 1.279 . S
C135 O136 1.315 . S
C135 O137 1.279 . S
O136 Cd128 2.223 . S
O136 C135 1.315 . S
O137 Cd127 2.240 . S
O137 C135 1.279 . S
O138 Cd128 2.297 . S
O138 C133 1.247 . S
O139 Cd128 2.439 . S
O139 C133 1.208 . S
O140 Cd141 2.223 . S
O140 C148 1.315 . S
Cd141 O140 2.223 . S
Cd141 O144 2.297 . S
Cd141 O145 2.439 . S
Cd141 O151 2.240 . S
Cd142 O143 2.240 . S
Cd142 O150 2.223 . S
Cd142 O152 2.297 . S
Cd142 O153 2.439 . S
O143 Cd142 2.240 . S
O143 C148 1.279 . S
O144 Cd141 2.297 . S
O144 C146 1.247 . S
O145 Cd141 2.439 . S
O145 C146 1.208 . S
C146 O144 1.247 . S
C146 O145 1.208 . S
C147 O152 1.247 . S
C147 O153 1.208 . S
C148 O140 1.315 . S
C148 O143 1.279 . S
C149 O150 1.315 . S
C149 O151 1.279 . S
O150 Cd142 2.223 . S
O150 C149 1.315 . S
O151 Cd141 2.240 . S
O151 C149 1.279 . S
O152 Cd142 2.297 . S
O152 C147 1.247 . S
O153 Cd142 2.439 . S
O153 C147 1.208 . S
O154 Cd155 2.223 . S
O154 C162 1.315 . S
Cd155 O154 2.223 . S
Cd155 O158 2.297 . S
Cd155 O159 2.439 . S
Cd155 O165 2.240 . S
Cd156 O157 2.240 . S
Cd156 O164 2.223 . S
Cd156 O166 2.297 . S
Cd156 O167 2.439 . S
O157 Cd156 2.240 . S
O157 C162 1.279 . S
O158 Cd155 2.297 . S
O158 C160 1.247 . S
O159 Cd155 2.439 . S
O159 C160 1.208 . S
C160 O158 1.247 . S
C160 O159 1.208 . S
C161 O166 1.247 . S
C161 O167 1.208 . S
C162 O154 1.315 . S
C162 O157 1.279 . S
C163 O164 1.315 . S
C163 O165 1.279 . S
O164 Cd156 2.223 . S
O164 C163 1.315 . S
O165 Cd155 2.240 . S
O165 C163 1.279 . S
O166 Cd156 2.297 . S
O166 C161 1.247 . S
O167 Cd156 2.439 . S
O167 C161 1.208 . S
O168 Cd169 2.223 . S
O168 C176 1.315 . S
Cd169 O168 2.223 . S
Cd169 O172 2.297 . S
Cd169 O173 2.439 . S
Cd169 O179 2.240 . S
Cd170 O171 2.240 . S
Cd170 O178 2.223 . S
Cd170 O180 2.297 . S
Cd170 O181 2.439 . S
O171 Cd170 2.240 . S
O171 C176 1.279 . S
O172 Cd169 2.297 . S
O172 C174 1.247 . S
O173 Cd169 2.439 . S
O173 C174 1.208 . S
C174 O172 1.247 . S
C174 O173 1.208 . S
C175 O180 1.247 . S
C175 O181 1.208 . S
C176 O168 1.315 . S
C176 O171 1.279 . S
C177 O178 1.315 . S
C177 O179 1.279 . S
O178 Cd170 2.223 . S
O178 C177 1.315 . S
O179 Cd169 2.240 . S
O179 C177 1.279 . S
O180 Cd170 2.297 . S
O180 C175 1.247 . S
O181 Cd170 2.439 . S
O181 C175 1.208 . S
O182 Cd183 2.223 . S
O182 C190 1.315 . S
Cd183 O182 2.223 . S
Cd183 O186 2.297 . S
Cd183 O187 2.439 . S
Cd183 O193 2.240 . S
Cd184 O185 2.240 . S
Cd184 O192 2.223 . S
Cd184 O194 2.297 . S
Cd184 O195 2.439 . S
O185 Cd184 2.240 . S
O185 C190 1.279 . S
O186 Cd183 2.297 . S
O186 C188 1.247 . S
O187 Cd183 2.439 . S
O187 C188 1.208 . S
C188 O186 1.247 . S
C188 O187 1.208 . S
C189 O194 1.247 . S
C189 O195 1.208 . S
C190 O182 1.315 . S
C190 O185 1.279 . S
C191 O192 1.315 . S
C191 O193 1.279 . S
O192 Cd184 2.223 . S
O192 C191 1.315 . S
O193 Cd183 2.240 . S
O193 C191 1.279 . S
O194 Cd184 2.297 . S
O194 C189 1.247 . S
O195 Cd184 2.439 . S
O195 C189 1.208 . S
O196 Cd197 2.223 . S
O196 C204 1.315 . S
Cd197 O196 2.223 . S
Cd197 O200 2.297 . S
Cd197 O201 2.439 . S
Cd197 O207 2.240 . S
Cd198 O199 2.240 . S
Cd198 O206 2.223 . S
Cd198 O208 2.297 . S
Cd198 O209 2.439 . S
O199 Cd198 2.240 . S
O199 C204 1.279 . S
O200 Cd197 2.297 . S
O200 C202 1.247 . S
O201 Cd197 2.439 . S
O201 C202 1.208 . S
C202 O200 1.247 . S
C202 O201 1.208 . S
C203 O208 1.247 . S
C203 O209 1.208 . S
C204 O196 1.315 . S
C204 O199 1.279 . S
C205 O206 1.315 . S
C205 O207 1.279 . S
O206 Cd198 2.223 . S
O206 C205 1.315 . S
O207 Cd197 2.240 . S
O207 C205 1.279 . S
O208 Cd198 2.297 . S
O208 C203 1.247 . S
O209 Cd198 2.439 . S
O209 C203 1.208 . S
O210 Cd211 2.223 . S
O210 C218 1.315 . S
Cd211 O210 2.223 . S
Cd211 O214 2.297 . S
Cd211 O215 2.439 . S
Cd211 O221 2.240 . S
Cd212 O213 2.240 . S
Cd212 O220 2.223 . S
Cd212 O222 2.297 . S
Cd212 O223 2.439 . S
O213 Cd212 2.240 . S
O213 C218 1.279 . S
O214 Cd211 2.297 . S
O214 C216 1.247 . S
O215 Cd211 2.439 . S
O215 C216 1.208 . S
C216 O214 1.247 . S
C216 O215 1.208 . S
C217 O222 1.247 . S
C217 O223 1.208 . S
C218 O210 1.315 . S
C218 O213 1.279 . S
C219 O220 1.315 . S
C219 O221 1.279 . S
O220 Cd212 2.223 . S
O220 C219 1.315 . S
O221 Cd211 2.240 . S
O221 C219 1.279 . S
O222 Cd212 2.297 . S
O222 C217 1.247 . S
O223 Cd212 2.439 . S
O223 C217 1.208 . S
O224 Cd225 2.223 . S
O224 C232 1.315 . S
Cd225 O224 2.223 . S
Cd225 O228 2.297 . S
Cd225 O229 2.439 . S
Cd225 O235 2.240 . S
Cd226 O227 2.240 . S
Cd226 O234 2.223 . S
Cd226 O236 2.297 . S
Cd226 O237 2.439 . S
O227 Cd226 2.240 . S
O227 C232 1.279 . S
O228 Cd225 2.297 . S
O228 C230 1.247 . S
O229 Cd225 2.439 . S
O229 C230 1.208 . S
C230 O228 1.247 . S
C230 O229 1.208 . S
C231 O236 1.247 . S
C231 O237 1.208 . S
C232 O224 1.315 . S
C232 O227 1.279 . S
C233 O234 1.315 . S
C233 O235 1.279 . S
O234 Cd226 2.223 . S
O234 C233 1.315 . S
O235 Cd225 2.240 . S
O235 C233 1.279 . S
O236 Cd226 2.297 . S
O236 C231 1.247 . S
O237 Cd226 2.439 . S
O237 C231 1.208 . S
O238 Cd239 2.223 . S
O238 C246 1.315 . S
Cd239 O238 2.223 . S
Cd239 O242 2.297 . S
Cd239 O243 2.439 . S
Cd239 O249 2.240 . S
Cd240 O241 2.240 . S
Cd240 O248 2.223 . S
Cd240 O250 2.297 . S
Cd240 O251 2.439 . S
O241 Cd240 2.240 . S
O241 C246 1.279 . S
O242 Cd239 2.297 . S
O242 C244 1.247 . S
O243 Cd239 2.439 . S
O243 C244 1.208 . S
C244 O242 1.247 . S
C244 O243 1.208 . S
C245 O250 1.247 . S
C245 O251 1.208 . S
C246 O238 1.315 . S
C246 O241 1.279 . S
C247 O248 1.315 . S
C247 O249 1.279 . S
O248 Cd240 2.223 . S
O248 C247 1.315 . S
O249 Cd239 2.240 . S
O249 C247 1.279 . S
O250 Cd240 2.297 . S
O250 C245 1.247 . S
O251 Cd240 2.439 . S
O251 C245 1.208 . S
O252 Cd253 2.223 . S
O252 C260 1.315 . S
Cd253 O252 2.223 . S
Cd253 O256 2.297 . S
Cd253 O257 2.439 . S
Cd253 O263 2.240 . S
Cd254 O255 2.240 . S
Cd254 O262 2.223 . S
Cd254 O264 2.297 . S
Cd254 O265 2.439 . S
O255 Cd254 2.240 . S
O255 C260 1.279 . S
O256 Cd253 2.297 . S
O256 C258 1.247 . S
O257 Cd253 2.439 . S
O257 C258 1.208 . S
C258 O256 1.247 . S
C258 O257 1.208 . S
C259 O264 1.247 . S
C259 O265 1.208 . S
C260 O252 1.315 . S
C260 O255 1.279 . S
C261 O262 1.315 . S
C261 O263 1.279 . S
O262 Cd254 2.223 . S
O262 C261 1.315 . S
O263 Cd253 2.240 . S
O263 C261 1.279 . S
O264 Cd254 2.297 . S
O264 C259 1.247 . S
O265 Cd254 2.439 . S
O265 C259 1.208 . S
O266 Cd267 2.223 . S
O266 C274 1.315 . S
Cd267 O266 2.223 . S
Cd267 O270 2.297 . S
Cd267 O271 2.439 . S
Cd267 O277 2.240 . S
Cd268 O269 2.240 . S
Cd268 O276 2.223 . S
Cd268 O278 2.297 . S
Cd268 O279 2.439 . S
O269 Cd268 2.240 . S
O269 C274 1.279 . S
O270 Cd267 2.297 . S
O270 C272 1.247 . S
O271 Cd267 2.439 . S
O271 C272 1.208 . S
C272 O270 1.247 . S
C272 O271 1.208 . S
C273 O278 1.247 . S
C273 O279 1.208 . S
C274 O266 1.315 . S
C274 O269 1.279 . S
C275 O276 1.315 . S
C275 O277 1.279 . S
O276 Cd268 2.223 . S
O276 C275 1.315 . S
O277 Cd267 2.240 . S
O277 C275 1.279 . S
O278 Cd268 2.297 . S
O278 C273 1.247 . S
O279 Cd268 2.439 . S
O279 C273 1.208 . S
O280 Cd281 2.223 . S
O280 C288 1.315 . S
Cd281 O280 2.223 . S
Cd281 O284 2.297 . S
Cd281 O285 2.439 . S
Cd281 O291 2.240 . S
Cd282 O283 2.240 . S
Cd282 O290 2.223 . S
Cd282 O292 2.297 . S
Cd282 O293 2.439 . S
O283 Cd282 2.240 . S
O283 C288 1.279 . S
O284 Cd281 2.297 . S
O284 C286 1.247 . S
O285 Cd281 2.439 . S
O285 C286 1.208 . S
C286 O284 1.247 . S
C286 O285 1.208 . S
C287 O292 1.247 . S
C287 O293 1.208 . S
C288 O280 1.315 . S
C288 O283 1.279 . S
C289 O290 1.315 . S
C289 O291 1.279 . S
O290 Cd282 2.223 . S
O290 C289 1.315 . S
O291 Cd281 2.240 . S
O291 C289 1.279 . S
O292 Cd282 2.297 . S
O292 C287 1.247 . S
O293 Cd282 2.439 . S
O293 C287 1.208 . S
O294 Cd295 2.223 . S
O294 C302 1.315 . S
Cd295 O294 2.223 . S
Cd295 O298 2.297 . S
Cd295 O299 2.439 . S
Cd295 O305 2.240 . S
Cd296 O297 2.240 . S
Cd296 O304 2.223 . S
Cd296 O306 2.297 . S
Cd296 O307 2.439 . S
O297 Cd296 2.240 . S
O297 C302 1.279 . S
O298 Cd295 2.297 . S
O298 C300 1.247 . S
O299 Cd295 2.439 . S
O299 C300 1.208 . S
C300 O298 1.247 . S
C300 O299 1.208 . S
C301 O306 1.247 . S
C301 O307 1.208 . S
C302 O294 1.315 . S
C302 O297 1.279 . S
C303 O304 1.315 . S
C303 O305 1.279 . S
O304 Cd296 2.223 . S
O304 C303 1.315 . S
O305 Cd295 2.240 . S
O305 C303 1.279 . S
O306 Cd296 2.297 . S
O306 C301 1.247 . S
O307 Cd296 2.439 . S
O307 C301 1.208 . S
O308 Cd309 2.223 . S
O308 C316 1.315 . S
Cd309 O308 2.223 . S
Cd309 O312 2.297 . S
Cd309 O313 2.439 . S
Cd309 O319 2.240 . S
Cd310 O311 2.240 . S
Cd310 O318 2.223 . S
Cd310 O320 2.297 . S
Cd310 O321 2.439 . S
O311 Cd310 2.240 . S
O311 C316 1.279 . S
O312 Cd309 2.297 . S
O312 C314 1.247 . S
O313 Cd309 2.439 . S
O313 C314 1.208 . S
C314 O312 1.247 . S
C314 O313 1.208 . S
C315 O320 1.247 . S
C315 O321 1.208 . S
C316 O308 1.315 . S
C316 O311 1.279 . S
C317 O318 1.315 . S
C317 O319 1.279 . S
O318 Cd310 2.223 . S
O318 C317 1.315 . S
O319 Cd309 2.240 . S
O319 C317 1.279 . S
O320 Cd310 2.297 . S
O320 C315 1.247 . S
O321 Cd310 2.439 . S
O321 C315 1.208 . S
O322 Cd323 2.223 . S
O322 C330 1.315 . S
Cd323 O322 2.223 . S
Cd323 O326 2.297 . S
Cd323 O327 2.439 . S
Cd323 O333 2.240 . S
Cd324 O325 2.240 . S
Cd324 O332 2.223 . S
Cd324 O334 2.297 . S
Cd324 O335 2.439 . S
O325 Cd324 2.240 . S
O325 C330 1.279 . S
O326 Cd323 2.297 . S
O326 C328 1.247 . S
O327 Cd323 2.439 . S
O327 C328 1.208 . S
C328 O326 1.247 . S
C328 O327 1.208 . S
C329 O334 1.247 . S
C329 O335 1.208 . S
C330 O322 1.315 . S
C330 O325 1.279 . S
C331 O332 1.315 . S
C331 O333 1.279 . S
O332 Cd324 2.223 . S
O332 C331 1.315 . S
O333 Cd323 2.240 . S
O333 C331 1.279 . S
O334 Cd324 2.297 . S
O334 C329 1.247 . S
O335 Cd324 2.439 . S
O335 C329 1.208 . S
O336 Cd337 2.223 . S
O336 C344 1.315 . S
Cd337 O336 2.223 . S
Cd337 O340 2.297 . S
Cd337 O341 2.439 . S
Cd337 O347 2.240 . S
Cd338 O339 2.240 . S
Cd338 O346 2.223 . S
Cd338 O348 2.297 . S
Cd338 O349 2.439 . S
O339 Cd338 2.240 . S
O339 C344 1.279 . S
O340 Cd337 2.297 . S
O340 C342 1.247 . S
O341 Cd337 2.439 . S
O341 C342 1.208 . S
C342 O340 1.247 . S
C342 O341 1.208 . S
C343 O348 1.247 . S
C343 O349 1.208 . S
C344 O336 1.315 . S
C344 O339 1.279 . S
C345 O346 1.315 . S
C345 O347 1.279 . S
O346 Cd338 2.223 . S
O346 C345 1.315 . S
O347 Cd337 2.240 . S
O347 C345 1.279 . S
O348 Cd338 2.297 . S
O348 C343 1.247 . S
O349 Cd338 2.439 . S
O349 C343 1.208 . S
O350 Cd351 2.223 . S
O350 C358 1.315 . S
Cd351 O350 2.223 . S
Cd351 O354 2.297 . S
Cd351 O355 2.439 . S
Cd351 O361 2.240 . S
Cd352 O353 2.240 . S
Cd352 O360 2.223 . S
Cd352 O362 2.297 . S
Cd352 O363 2.439 . S
O353 Cd352 2.240 . S
O353 C358 1.279 . S
O354 Cd351 2.297 . S
O354 C356 1.247 . S
O355 Cd351 2.439 . S
O355 C356 1.208 . S
C356 O354 1.247 . S
C356 O355 1.208 . S
C357 O362 1.247 . S
C357 O363 1.208 . S
C358 O350 1.315 . S
C358 O353 1.279 . S
C359 O360 1.315 . S
C359 O361 1.279 . S
O360 Cd352 2.223 . S
O360 C359 1.315 . S
O361 Cd351 2.240 . S
O361 C359 1.279 . S
O362 Cd352 2.297 . S
O362 C357 1.247 . S
O363 Cd352 2.439 . S
O363 C357 1.208 . S
O364 Cd365 2.223 . S
O364 C372 1.315 . S
Cd365 O364 2.223 . S
Cd365 O368 2.297 . S
Cd365 O369 2.439 . S
Cd365 O375 2.240 . S
Cd366 O367 2.240 . S
Cd366 O374 2.223 . S
Cd366 O376 2.297 . S
Cd366 O377 2.439 . S
O367 Cd366 2.240 . S
O367 C372 1.279 . S
O368 Cd365 2.297 . S
O368 C370 1.247 . S
O369 Cd365 2.439 . S
O369 C370 1.208 . S
C370 O368 1.247 . S
C370 O369 1.208 . S
C371 O376 1.247 . S
C371 O377 1.208 . S
C372 O364 1.315 . S
C372 O367 1.279 . S
C373 O374 1.315 . S
C373 O375 1.279 . S
O374 Cd366 2.223 . S
O374 C373 1.315 . S
O375 Cd365 2.240 . S
O375 C373 1.279 . S
O376 Cd366 2.297 . S
O376 C371 1.247 . S
O377 Cd366 2.439 . S
O377 C371 1.208 . S
O378 Cd379 2.223 . S
O378 C386 1.315 . S
Cd379 O378 2.223 . S
Cd379 O382 2.297 . S
Cd379 O383 2.439 . S
Cd379 O389 2.240 . S
Cd380 O381 2.240 . S
Cd380 O388 2.223 . S
Cd380 O390 2.297 . S
Cd380 O391 2.439 . S
O381 Cd380 2.240 . S
O381 C386 1.279 . S
O382 Cd379 2.297 . S
O382 C384 1.247 . S
O383 Cd379 2.439 . S
O383 C384 1.208 . S
C384 O382 1.247 . S
C384 O383 1.208 . S
C385 O390 1.247 . S
C385 O391 1.208 . S
C386 O378 1.315 . S
C386 O381 1.279 . S
C387 O388 1.315 . S
C387 O389 1.279 . S
O388 Cd380 2.223 . S
O388 C387 1.315 . S
O389 Cd379 2.240 . S
O389 C387 1.279 . S
O390 Cd380 2.297 . S
O390 C385 1.247 . S
O391 Cd380 2.439 . S
O391 C385 1.208 . S
O392 Cd393 2.223 . S
O392 C400 1.315 . S
Cd393 O392 2.223 . S
Cd393 O396 2.297 . S
Cd393 O397 2.439 . S
Cd393 O403 2.240 . S
Cd394 O395 2.240 . S
Cd394 O402 2.223 . S
Cd394 O404 2.297 . S
Cd394 O405 2.439 . S
O395 Cd394 2.240 . S
O395 C400 1.279 . S
O396 Cd393 2.297 . S
O396 C398 1.247 . S
O397 Cd393 2.439 . S
O397 C398 1.208 . S
C398 O396 1.247 . S
C398 O397 1.208 . S
C399 O404 1.247 . S
C399 O405 1.208 . S
C400 O392 1.315 . S
C400 O395 1.279 . S
C401 O402 1.315 . S
C401 O403 1.279 . S
O402 Cd394 2.223 . S
O402 C401 1.315 . S
O403 Cd393 2.240 . S
O403 C401 1.279 . S
O404 Cd394 2.297 . S
O404 C399 1.247 . S
O405 Cd394 2.439 . S
O405 C399 1.208 . S
O406 Cd407 2.223 . S
O406 C414 1.315 . S
Cd407 O406 2.223 . S
Cd407 O410 2.297 . S
Cd407 O411 2.439 . S
Cd407 O417 2.240 . S
Cd408 O409 2.240 . S
Cd408 O416 2.223 . S
Cd408 O418 2.297 . S
Cd408 O419 2.439 . S
O409 Cd408 2.240 . S
O409 C414 1.279 . S
O410 Cd407 2.297 . S
O410 C412 1.247 . S
O411 Cd407 2.439 . S
O411 C412 1.208 . S
C412 O410 1.247 . S
C412 O411 1.208 . S
C413 O418 1.247 . S
C413 O419 1.208 . S
C414 O406 1.315 . S
C414 O409 1.279 . S
C415 O416 1.315 . S
C415 O417 1.279 . S
O416 Cd408 2.223 . S
O416 C415 1.315 . S
O417 Cd407 2.240 . S
O417 C415 1.279 . S
O418 Cd408 2.297 . S
O418 C413 1.247 . S
O419 Cd408 2.439 . S
O419 C413 1.208 . S
O420 Cd421 2.223 . S
O420 C428 1.315 . S
Cd421 O420 2.223 . S
Cd421 O424 2.297 . S
Cd421 O425 2.439 . S
Cd421 O431 2.240 . S
Cd422 O423 2.240 . S
Cd422 O430 2.223 . S
Cd422 O432 2.297 . S
Cd422 O433 2.439 . S
O423 Cd422 2.240 . S
O423 C428 1.279 . S
O424 Cd421 2.297 . S
O424 C426 1.247 . S
O425 Cd421 2.439 . S
O425 C426 1.208 . S
C426 O424 1.247 . S
C426 O425 1.208 . S
C427 O432 1.247 . S
C427 O433 1.208 . S
C428 O420 1.315 . S
C428 O423 1.279 . S
C429 O430 1.315 . S
C429 O431 1.279 . S
O430 Cd422 2.223 . S
O430 C429 1.315 . S
O431 Cd421 2.240 . S
O431 C429 1.279 . S
O432 Cd422 2.297 . S
O432 C427 1.247 . S
O433 Cd422 2.439 . S
O433 C427 1.208 . S
O434 Cd435 2.223 . S
O434 C442 1.315 . S
Cd435 O434 2.223 . S
Cd435 O438 2.297 . S
Cd435 O439 2.439 . S
Cd435 O445 2.240 . S
Cd436 O437 2.240 . S
Cd436 O444 2.223 . S
Cd436 O446 2.297 . S
Cd436 O447 2.439 . S
O437 Cd436 2.240 . S
O437 C442 1.279 . S
O438 Cd435 2.297 . S
O438 C440 1.247 . S
O439 Cd435 2.439 . S
O439 C440 1.208 . S
C440 O438 1.247 . S
C440 O439 1.208 . S
C441 O446 1.247 . S
C441 O447 1.208 . S
C442 O434 1.315 . S
C442 O437 1.279 . S
C443 O444 1.315 . S
C443 O445 1.279 . S
O444 Cd436 2.223 . S
O444 C443 1.315 . S
O445 Cd435 2.240 . S
O445 C443 1.279 . S
O446 Cd436 2.297 . S
O446 C441 1.247 . S
O447 Cd436 2.439 . S
O447 C441 1.208 . S
O448 Cd449 2.223 . S
O448 C456 1.315 . S
Cd449 O448 2.223 . S
Cd449 O452 2.297 . S
Cd449 O453 2.439 . S
Cd449 O459 2.240 . S
Cd450 O451 2.240 . S
Cd450 O458 2.223 . S
Cd450 O460 2.297 . S
Cd450 O461 2.439 . S
O451 Cd450 2.240 . S
O451 C456 1.279 . S
O452 Cd449 2.297 . S
O452 C454 1.247 . S
O453 Cd449 2.439 . S
O453 C454 1.208 . S
C454 O452 1.247 . S
C454 O453 1.208 . S
C455 O460 1.247 . S
C455 O461 1.208 . S
C456 O448 1.315 . S
C456 O451 1.279 . S
C457 O458 1.315 . S
C457 O459 1.279 . S
O458 Cd450 2.223 . S
O458 C457 1.315 . S
O459 Cd449 2.240 . S
O459 C457 1.279 . S
O460 Cd450 2.297 . S
O460 C455 1.247 . S
O461 Cd450 2.439 . S
O461 C455 1.208 . S
O462 Cd463 2.223 . S
O462 C470 1.315 . S
Cd463 O462 2.223 . S
Cd463 O466 2.297 . S
Cd463 O467 2.439 . S
Cd463 O473 2.240 . S
Cd464 O465 2.240 . S
Cd464 O472 2.223 . S
Cd464 O474 2.297 . S
Cd464 O475 2.439 . S
O465 Cd464 2.240 . S
O465 C470 1.279 . S
O466 Cd463 2.297 . S
O466 C468 1.247 . S
O467 Cd463 2.439 . S
O467 C468 1.208 . S
C468 O466 1.247 . S
C468 O467 1.208 . S
C469 O474 1.247 . S
C469 O475 1.208 . S
C470 O462 1.315 . S
C470 O465 1.279 . S
C471 O472 1.315 . S
C471 O473 1.279 . S
O472 Cd464 2.223 . S
O472 C471 1.315 . S
O473 Cd463 2.240 . S
O473 C471 1.279 . S
O474 Cd464 2.297 . S
O474 C469 1.247 . S
O475 Cd464 2.439 . S
O475 C469 1.208 . S
O476 Cd477 2.223 . S
O476 C484 1.315 . S
Cd477 O476 2.223 . S
Cd477 O480 2.297 . S
Cd477 O481 2.439 . S
Cd477 O487 2.240 . S
Cd478 O479 2.240 . S
Cd478 O486 2.223 . S
Cd478 O488 2.297 . S
Cd478 O489 2.439 . S
O479 Cd478 2.240 . S
O479 C484 1.279 . S
O480 Cd477 2.297 . S
O480 C482 1.247 . S
O481 Cd477 2.439 . S
O481 C482 1.208 . S
C482 O480 1.247 . S
C482 O481 1.208 . S
C483 O488 1.247 . S
C483 O489 1.208 . S
C484 O476 1.315 . S
C484 O479 1.279 . S
C485 O486 1.315 . S
C485 O487 1.279 . S
O486 Cd478 2.223 . S
O486 C485 1.315 . S
O487 Cd477 2.240 . S
O487 C485 1.279 . S
O488 Cd478 2.297 . S
O488 C483 1.247 . S
O489 Cd478 2.439 . S
O489 C483 1.208 . S
O490 Cd491 2.223 . S
O490 C498 1.315 . S
Cd491 O490 2.223 . S
Cd491 O494 2.297 . S
Cd491 O495 2.439 . S
Cd491 O501 2.240 . S
Cd492 O493 2.240 . S
Cd492 O500 2.223 . S
Cd492 O502 2.297 . S
Cd492 O503 2.439 . S
O493 Cd492 2.240 . S
O493 C498 1.279 . S
O494 Cd491 2.297 . S
O494 C496 1.247 . S
O495 Cd491 2.439 . S
O495 C496 1.208 . S
C496 O494 1.247 . S
C496 O495 1.208 . S
C497 O502 1.247 . S
C497 O503 1.208 . S
C498 O490 1.315 . S
C498 O493 1.279 . S
C499 O500 1.315 . S
C499 O501 1.279 . S
O500 Cd492 2.223 . S
O500 C499 1.315 . S
O501 Cd491 2.240 . S
O501 C499 1.279 . S
O502 Cd492 2.297 . S
O502 C497 1.247 . S
O503 Cd492 2.439 . S
O503 C497 1.208 . S
O504 Cd505 2.223 . S
O504 C512 1.315 . S
Cd505 O504 2.223 . S
Cd505 O508 2.297 . S
Cd505 O509 2.439 . S
Cd505 O515 2.240 . S
Cd506 O507 2.240 . S
Cd506 O514 2.223 . S
Cd506 O516 2.297 . S
Cd506 O517 2.439 . S
O507 Cd506 2.240 . S
O507 C512 1.279 . S
O508 Cd505 2.297 . S
O508 C510 1.247 . S
O509 Cd505 2.439 . S
O509 C510 1.208 . S
C510 O508 1.247 . S
C510 O509 1.208 . S
C511 O516 1.247 . S
C511 O517 1.208 . S
C512 O504 1.315 . S
C512 O507 1.279 . S
C513 O514 1.315 . S
C513 O515 1.279 . S
O514 Cd506 2.223 . S
O514 C513 1.315 . S
O515 Cd505 2.240 . S
O515 C513 1.279 . S
O516 Cd506 2.297 . S
O516 C511 1.247 . S
O517 Cd506 2.439 . S
O517 C511 1.208 . S
O518 Cd519 2.223 . S
O518 C526 1.315 . S
Cd519 O518 2.223 . S
Cd519 O522 2.297 . S
Cd519 O523 2.439 . S
Cd519 O529 2.240 . S
Cd520 O521 2.240 . S
Cd520 O528 2.223 . S
Cd520 O530 2.297 . S
Cd520 O531 2.439 . S
O521 Cd520 2.240 . S
O521 C526 1.279 . S
O522 Cd519 2.297 . S
O522 C524 1.247 . S
O523 Cd519 2.439 . S
O523 C524 1.208 . S
C524 O522 1.247 . S
C524 O523 1.208 . S
C525 O530 1.247 . S
C525 O531 1.208 . S
C526 O518 1.315 . S
C526 O521 1.279 . S
C527 O528 1.315 . S
C527 O529 1.279 . S
O528 Cd520 2.223 . S
O528 C527 1.315 . S
O529 Cd519 2.240 . S
O529 C527 1.279 . S
O530 Cd520 2.297 . S
O530 C525 1.247 . S
O531 Cd520 2.439 . S
O531 C525 1.208 . S
O532 Cd533 2.223 . S
O532 C540 1.315 . S
Cd533 O532 2.223 . S
Cd533 O536 2.297 . S
Cd533 O537 2.439 . S
Cd533 O543 2.240 . S
Cd534 O535 2.240 . S
Cd534 O542 2.223 . S
Cd534 O544 2.297 . S
Cd534 O545 2.439 . S
O535 Cd534 2.240 . S
O535 C540 1.279 . S
O536 Cd533 2.297 . S
O536 C538 1.247 . S
O537 Cd533 2.439 . S
O537 C538 1.208 . S
C538 O536 1.247 . S
C538 O537 1.208 . S
C539 O544 1.247 . S
C539 O545 1.208 . S
C540 O532 1.315 . S
C540 O535 1.279 . S
C541 O542 1.315 . S
C541 O543 1.279 . S
O542 Cd534 2.223 . S
O542 C541 1.315 . S
O543 Cd533 2.240 . S
O543 C541 1.279 . S
O544 Cd534 2.297 . S
O544 C539 1.247 . S
O545 Cd534 2.439 . S
O545 C539 1.208 . S
O546 Cd547 2.223 . S
O546 C554 1.315 . S
Cd547 O546 2.223 . S
Cd547 O550 2.297 . S
Cd547 O551 2.439 . S
Cd547 O557 2.240 . S
Cd548 O549 2.240 . S
Cd548 O556 2.223 . S
Cd548 O558 2.297 . S
Cd548 O559 2.439 . S
O549 Cd548 2.240 . S
O549 C554 1.279 . S
O550 Cd547 2.297 . S
O550 C552 1.247 . S
O551 Cd547 2.439 . S
O551 C552 1.208 . S
C552 O550 1.247 . S
C552 O551 1.208 . S
C553 O558 1.247 . S
C553 O559 1.208 . S
C554 O546 1.315 . S
C554 O549 1.279 . S
C555 O556 1.315 . S
C555 O557 1.279 . S
O556 Cd548 2.223 . S
O556 C555 1.315 . S
O557 Cd547 2.240 . S
O557 C555 1.279 . S
O558 Cd548 2.297 . S
O558 C553 1.247 . S
O559 Cd548 2.439 . S
O559 C553 1.208 . S
O560 Cd561 2.223 . S
O560 C568 1.315 . S
Cd561 O560 2.223 . S
Cd561 O564 2.297 . S
Cd561 O565 2.439 . S
Cd561 O571 2.240 . S
Cd562 O563 2.240 . S
Cd562 O570 2.223 . S
Cd562 O572 2.297 . S
Cd562 O573 2.439 . S
O563 Cd562 2.240 . S
O563 C568 1.279 . S
O564 Cd561 2.297 . S
O564 C566 1.247 . S
O565 Cd561 2.439 . S
O565 C566 1.208 . S
C566 O564 1.247 . S
C566 O565 1.208 . S
C567 O572 1.247 . S
C567 O573 1.208 . S
C568 O560 1.315 . S
C568 O563 1.279 . S
C569 O570 1.315 . S
C569 O571 1.279 . S
O570 Cd562 2.223 . S
O570 C569 1.315 . S
O571 Cd561 2.240 . S
O571 C569 1.279 . S
O572 Cd562 2.297 . S
O572 C567 1.247 . S
O573 Cd562 2.439 . S
O573 C567 1.208 . S
O574 Cd575 2.223 . S
O574 C582 1.315 . S
Cd575 O574 2.223 . S
Cd575 O578 2.297 . S
Cd575 O579 2.439 . S
Cd575 O585 2.240 . S
Cd576 O577 2.240 . S
Cd576 O584 2.223 . S
Cd576 O586 2.297 . S
Cd576 O587 2.439 . S
O577 Cd576 2.240 . S
O577 C582 1.279 . S
O578 Cd575 2.297 . S
O578 C580 1.247 . S
O579 Cd575 2.439 . S
O579 C580 1.208 . S
C580 O578 1.247 . S
C580 O579 1.208 . S
C581 O586 1.247 . S
C581 O587 1.208 . S
C582 O574 1.315 . S
C582 O577 1.279 . S
C583 O584 1.315 . S
C583 O585 1.279 . S
O584 Cd576 2.223 . S
O584 C583 1.315 . S
O585 Cd575 2.240 . S
O585 C583 1.279 . S
O586 Cd576 2.297 . S
O586 C581 1.247 . S
O587 Cd576 2.439 . S
O587 C581 1.208 . S
O588 Cd589 2.223 . S
O588 C596 1.315 . S
Cd589 O588 2.223 . S
Cd589 O592 2.297 . S
Cd589 O593 2.439 . S
Cd589 O599 2.240 . S
Cd590 O591 2.240 . S
Cd590 O598 2.223 . S
Cd590 O600 2.297 . S
Cd590 O601 2.439 . S
O591 Cd590 2.240 . S
O591 C596 1.279 . S
O592 Cd589 2.297 . S
O592 C594 1.247 . S
O593 Cd589 2.439 . S
O593 C594 1.208 . S
C594 O592 1.247 . S
C594 O593 1.208 . S
C595 O600 1.247 . S
C595 O601 1.208 . S
C596 O588 1.315 . S
C596 O591 1.279 . S
C597 O598 1.315 . S
C597 O599 1.279 . S
O598 Cd590 2.223 . S
O598 C597 1.315 . S
O599 Cd589 2.240 . S
O599 C597 1.279 . S
O600 Cd590 2.297 . S
O600 C595 1.247 . S
O601 Cd590 2.439 . S
O601 C595 1.208 . S
O602 Cd603 2.223 . S
O602 C610 1.315 . S
Cd603 O602 2.223 . S
Cd603 O606 2.297 . S
Cd603 O607 2.439 . S
Cd603 O613 2.240 . S
Cd604 O605 2.240 . S
Cd604 O612 2.223 . S
Cd604 O614 2.297 . S
Cd604 O615 2.439 . S
O605 Cd604 2.240 . S
O605 C610 1.279 . S
O606 Cd603 2.297 . S
O606 C608 1.247 . S
O607 Cd603 2.439 . S
O607 C608 1.208 . S
C608 O606 1.247 . S
C608 O607 1.208 . S
C609 O614 1.247 . S
C609 O615 1.208 . S
C610 O602 1.315 . S
C610 O605 1.279 . S
C611 O612 1.315 . S
C611 O613 1.279 . S
O612 Cd604 2.223 . S
O612 C611 1.315 . S
O613 Cd603 2.240 . S
O613 C611 1.279 . S
O614 Cd604 2.297 . S
O614 C609 1.247 . S
O615 Cd604 2.439 . S
O615 C609 1.208 . S
O616 Cd617 2.223 . S
O616 C624 1.315 . S
Cd617 O616 2.223 . S
Cd617 O620 2.297 . S
Cd617 O621 2.439 . S
Cd617 O627 2.240 . S
Cd618 O619 2.240 . S
Cd618 O626 2.223 . S
Cd618 O628 2.297 . S
Cd618 O629 2.439 . S
O619 Cd618 2.240 . S
O619 C624 1.279 . S
O620 Cd617 2.297 . S
O620 C622 1.247 . S
O621 Cd617 2.439 . S
O621 C622 1.208 . S
C622 O620 1.247 . S
C622 O621 1.208 . S
C623 O628 1.247 . S
C623 O629 1.208 . S
C624 O616 1.315 . S
C624 O619 1.279 . S
C625 O626 1.315 . S
C625 O627 1.279 . S
O626 Cd618 2.223 . S
O626 C625 1.315 . S
O627 Cd617 2.240 . S
O627 C625 1.279 . S
O628 Cd618 2.297 . S
O628 C623 1.247 . S
O629 Cd618 2.439 . S
O629 C623 1.208 . S
O630 Cd631 2.223 . S
O630 C638 1.315 . S
Cd631 O630 2.223 . S
Cd631 O634 2.297 . S
Cd631 O635 2.439 . S
Cd631 O641 2.240 . S
Cd632 O633 2.240 . S
Cd632 O640 2.223 . S
Cd632 O642 2.297 . S
Cd632 O643 2.439 . S
O633 Cd632 2.240 . S
O633 C638 1.279 . S
O634 Cd631 2.297 . S
O634 C636 1.247 . S
O635 Cd631 2.439 . S
O635 C636 1.208 . S
C636 O634 1.247 . S
C636 O635 1.208 . S
C637 O642 1.247 . S
C637 O643 1.208 . S
C638 O630 1.315 . S
C638 O633 1.279 . S
C639 O640 1.315 . S
C639 O641 1.279 . S
O640 Cd632 2.223 . S
O640 C639 1.315 . S
O641 Cd631 2.240 . S
O641 C639 1.279 . S
O642 Cd632 2.297 . S
O642 C637 1.247 . S
O643 Cd632 2.439 . S
O643 C637 1.208 . S
O644 Cd645 2.223 . S
O644 C652 1.315 . S
Cd645 O644 2.223 . S
Cd645 O648 2.297 . S
Cd645 O649 2.439 . S
Cd645 O655 2.240 . S
Cd646 O647 2.240 . S
Cd646 O654 2.223 . S
Cd646 O656 2.297 . S
Cd646 O657 2.439 . S
O647 Cd646 2.240 . S
O647 C652 1.279 . S
O648 Cd645 2.297 . S
O648 C650 1.247 . S
O649 Cd645 2.439 . S
O649 C650 1.208 . S
C650 O648 1.247 . S
C650 O649 1.208 . S
C651 O656 1.247 . S
C651 O657 1.208 . S
C652 O644 1.315 . S
C652 O647 1.279 . S
C653 O654 1.315 . S
C653 O655 1.279 . S
O654 Cd646 2.223 . S
O654 C653 1.315 . S
O655 Cd645 2.240 . S
O655 C653 1.279 . S
O656 Cd646 2.297 . S
O656 C651 1.247 . S
O657 Cd646 2.439 . S
O657 C651 1.208 . S
O658 Cd659 2.223 . S
O658 C666 1.315 . S
Cd659 O658 2.223 . S
Cd659 O662 2.297 . S
Cd659 O663 2.439 . S
Cd659 O669 2.240 . S
Cd660 O661 2.240 . S
Cd660 O668 2.223 . S
Cd660 O670 2.297 . S
Cd660 O671 2.439 . S
O661 Cd660 2.240 . S
O661 C666 1.279 . S
O662 Cd659 2.297 . S
O662 C664 1.247 . S
O663 Cd659 2.439 . S
O663 C664 1.208 . S
C664 O662 1.247 . S
C664 O663 1.208 . S
C665 O670 1.247 . S
C665 O671 1.208 . S
C666 O658 1.315 . S
C666 O661 1.279 . S
C667 O668 1.315 . S
C667 O669 1.279 . S
O668 Cd660 2.223 . S
O668 C667 1.315 . S
O669 Cd659 2.240 . S
O669 C667 1.279 . S
O670 Cd660 2.297 . S
O670 C665 1.247 . S
O671 Cd660 2.439 . S
O671 C665 1.208 . S
C672 C673 1.387 . S
C672 H676 0.950 . S
C672 C681 1.390 . S
C673 C672 1.387 . S
C673 C675 1.387 . S
H674 C681 0.950 . S
C675 C673 1.387 . S
C675 C677 1.390 . S
C675 H679 0.950 . S
H676 C672 0.950 . S
C677 C675 1.390 . S
C677 C678 1.387 . S
C677 H680 0.950 . S
C678 C677 1.387 . S
C678 C681 1.387 . S
H679 C675 0.950 . S
H680 C677 0.950 . S
C681 C672 1.390 . S
C681 H674 0.950 . S
C681 C678 1.387 . S
C682 C683 1.387 . S
C682 H686 0.950 . S
C682 C691 1.390 . S
C683 C682 1.387 . S
C683 C685 1.387 . S
H684 C691 0.950 . S
C685 C683 1.387 . S
C685 C687 1.390 . S
C685 H689 0.950 . S
H686 C682 0.950 . S
C687 C685 1.390 . S
C687 C688 1.387 . S
C687 H690 0.950 . S
C688 C687 1.387 . S
C688 C691 1.387 . S
H689 C685 0.950 . S
H690 C687 0.950 . S
C691 C682 1.390 . S
C691 H684 0.950 . S
C691 C688 1.387 . S
C692 C693 1.387 . S
C692 H696 0.950 . S
C692 C701 1.390 . S
C693 C692 1.387 . S
C693 C695 1.387 . S
H694 C701 0.950 . S
C695 C693 1.387 . S
C695 C697 1.390 . S
C695 H699 0.950 . S
H696 C692 0.950 . S
C697 C695 1.390 . S
C697 C698 1.387 . S
C697 H700 0.950 . S
C698 C697 1.387 . S
C698 C701 1.387 . S
H699 C695 0.950 . S
H700 C697 0.950 . S
C701 C692 1.390 . S
C701 H694 0.950 . S
C701 C698 1.387 . S
C702 C703 1.387 . S
C702 H706 0.950 . S
C702 C711 1.390 . S
C703 C702 1.387 . S
C703 C705 1.387 . S
H704 C711 0.950 . S
C705 C703 1.387 . S
C705 C707 1.390 . S
C705 H709 0.950 . S
H706 C702 0.950 . S
C707 C705 1.390 . S
C707 C708 1.387 . S
C707 H710 0.950 . S
C708 C707 1.387 . S
C708 C711 1.387 . S
H709 C705 0.950 . S
H710 C707 0.950 . S
C711 C702 1.390 . S
C711 H704 0.950 . S
C711 C708 1.387 . S
C712 C713 1.387 . S
C712 H716 0.950 . S
C712 C721 1.390 . S
C713 C712 1.387 . S
C713 C715 1.387 . S
H714 C721 0.950 . S
C715 C713 1.387 . S
C715 C717 1.390 . S
C715 H719 0.950 . S
H716 C712 0.950 . S
C717 C715 1.390 . S
C717 C718 1.387 . S
C717 H720 0.950 . S
C718 C717 1.387 . S
C718 C721 1.387 . S
H719 C715 0.950 . S
H720 C717 0.950 . S
C721 C712 1.390 . S
C721 H714 0.950 . S
C721 C718 1.387 . S
C722 C723 1.387 . S
C722 H726 0.950 . S
C722 C731 1.390 . S
C723 C722 1.387 . S
C723 C725 1.387 . S
H724 C731 0.950 . S
C725 C723 1.387 . S
C725 C727 1.390 . S
C725 H729 0.950 . S
H726 C722 0.950 . S
C727 C725 1.390 . S
C727 C728 1.387 . S
C727 H730 0.950 . S
C728 C727 1.387 . S
C728 C731 1.387 . S
H729 C725 0.950 . S
H730 C727 0.950 . S
C731 C722 1.390 . S
C731 H724 0.950 . S
C731 C728 1.387 . S
C732 C733 1.387 . S
C732 H736 0.950 . S
C732 C741 1.390 . S
C733 C732 1.387 . S
C733 C735 1.387 . S
H734 C741 0.950 . S
C735 C733 1.387 . S
C735 C737 1.390 . S
C735 H739 0.950 . S
H736 C732 0.950 . S
C737 C735 1.390 . S
C737 C738 1.387 . S
C737 H740 0.950 . S
C738 C737 1.387 . S
C738 C741 1.387 . S
H739 C735 0.950 . S
H740 C737 0.950 . S
C741 C732 1.390 . S
C741 H734 0.950 . S
C741 C738 1.387 . S
C742 C743 1.387 . S
C742 H746 0.950 . S
C742 C751 1.390 . S
C743 C742 1.387 . S
C743 C745 1.387 . S
H744 C751 0.950 . S
C745 C743 1.387 . S
C745 C747 1.390 . S
C745 H749 0.950 . S
H746 C742 0.950 . S
C747 C745 1.390 . S
C747 C748 1.387 . S
C747 H750 0.950 . S
C748 C747 1.387 . S
C748 C751 1.387 . S
H749 C745 0.950 . S
H750 C747 0.950 . S
C751 C742 1.390 . S
C751 H744 0.950 . S
C751 C748 1.387 . S
C752 C753 1.387 . S
C752 H756 0.950 . S
C752 C761 1.390 . S
C753 C752 1.387 . S
C753 C755 1.387 . S
H754 C761 0.950 . S
C755 C753 1.387 . S
C755 C757 1.390 . S
C755 H759 0.950 . S
H756 C752 0.950 . S
C757 C755 1.390 . S
C757 C758 1.387 . S
C757 H760 0.950 . S
C758 C757 1.387 . S
C758 C761 1.387 . S
H759 C755 0.950 . S
H760 C757 0.950 . S
C761 C752 1.390 . S
C761 H754 0.950 . S
C761 C758 1.387 . S
C762 C763 1.387 . S
C762 H766 0.950 . S
C762 C771 1.390 . S
C763 C762 1.387 . S
C763 C765 1.387 . S
H764 C771 0.950 . S
C765 C763 1.387 . S
C765 C767 1.390 . S
C765 H769 0.950 . S
H766 C762 0.950 . S
C767 C765 1.390 . S
C767 C768 1.387 . S
C767 H770 0.950 . S
C768 C767 1.387 . S
C768 C771 1.387 . S
H769 C765 0.950 . S
H770 C767 0.950 . S
C771 C762 1.390 . S
C771 H764 0.950 . S
C771 C768 1.387 . S
C772 C773 1.387 . S
C772 H776 0.950 . S
C772 C781 1.390 . S
C773 C772 1.387 . S
C773 C775 1.387 . S
H774 C781 0.950 . S
C775 C773 1.387 . S
C775 C777 1.390 . S
C775 H779 0.950 . S
H776 C772 0.950 . S
C777 C775 1.390 . S
C777 C778 1.387 . S
C777 H780 0.950 . S
C778 C777 1.387 . S
C778 C781 1.387 . S
H779 C775 0.950 . S
H780 C777 0.950 . S
C781 C772 1.390 . S
C781 H774 0.950 . S
C781 C778 1.387 . S
C782 C783 1.387 . S
C782 H786 0.950 . S
C782 C791 1.390 . S
C783 C782 1.387 . S
C783 C785 1.387 . S
H784 C791 0.950 . S
C785 C783 1.387 . S
C785 C787 1.390 . S
C785 H789 0.950 . S
H786 C782 0.950 . S
C787 C785 1.390 . S
C787 C788 1.387 . S
C787 H790 0.950 . S
C788 C787 1.387 . S
C788 C791 1.387 . S
H789 C785 0.950 . S
H790 C787 0.950 . S
C791 C782 1.390 . S
C791 H784 0.950 . S
C791 C788 1.387 . S
C792 C793 1.387 . S
C792 H796 0.950 . S
C792 C801 1.390 . S
C793 C792 1.387 . S
C793 C795 1.387 . S
H794 C801 0.950 . S
C795 C793 1.387 . S
C795 C797 1.390 . S
C795 H799 0.950 . S
H796 C792 0.950 . S
C797 C795 1.390 . S
C797 C798 1.387 . S
C797 H800 0.950 . S
C798 C797 1.387 . S
C798 C801 1.387 . S
H799 C795 0.950 . S
H800 C797 0.950 . S
C801 C792 1.390 . S
C801 H794 0.950 . S
C801 C798 1.387 . S
C802 C803 1.387 . S
C802 H806 0.950 . S
C802 C811 1.390 . S
C803 C802 1.387 . S
C803 C805 1.387 . S
H804 C811 0.950 . S
C805 C803 1.387 . S
C805 C807 1.390 . S
C805 H809 0.950 . S
H806 C802 0.950 . S
C807 C805 1.390 . S
C807 C808 1.387 . S
C807 H810 0.950 . S
C808 C807 1.387 . S
C808 C811 1.387 . S
H809 C805 0.950 . S
H810 C807 0.950 . S
C811 C802 1.390 . S
C811 H804 0.950 . S
C811 C808 1.387 . S
C812 C813 1.387 . S
C812 H816 0.950 . S
C812 C821 1.390 . S
C813 C812 1.387 . S
C813 C815 1.387 . S
H814 C821 0.950 . S
C815 C813 1.387 . S
C815 C817 1.390 . S
C815 H819 0.950 . S
H816 C812 0.950 . S
C817 C815 1.390 . S
C817 C818 1.387 . S
C817 H820 0.950 . S
C818 C817 1.387 . S
C818 C821 1.387 . S
H819 C815 0.950 . S
H820 C817 0.950 . S
C821 C812 1.390 . S
C821 H814 0.950 . S
C821 C818 1.387 . S
C822 C823 1.387 . S
C822 H826 0.950 . S
C822 C831 1.390 . S
C823 C822 1.387 . S
C823 C825 1.387 . S
H824 C831 0.950 . S
C825 C823 1.387 . S
C825 C827 1.390 . S
C825 H829 0.950 . S
H826 C822 0.950 . S
C827 C825 1.390 . S
C827 C828 1.387 . S
C827 H830 0.950 . S
C828 C827 1.387 . S
C828 C831 1.387 . S
H829 C825 0.950 . S
H830 C827 0.950 . S
C831 C822 1.390 . S
C831 H824 0.950 . S
C831 C828 1.387 . S
C832 C833 1.387 . S
C832 H836 0.950 . S
C832 C841 1.390 . S
C833 C832 1.387 . S
C833 C835 1.387 . S
H834 C841 0.950 . S
C835 C833 1.387 . S
C835 C837 1.390 . S
C835 H839 0.950 . S
H836 C832 0.950 . S
C837 C835 1.390 . S
C837 C838 1.387 . S
C837 H840 0.950 . S
C838 C837 1.387 . S
C838 C841 1.387 . S
H839 C835 0.950 . S
H840 C837 0.950 . S
C841 C832 1.390 . S
C841 H834 0.950 . S
C841 C838 1.387 . S
C842 C843 1.387 . S
C842 H846 0.950 . S
C842 C851 1.390 . S
C843 C842 1.387 . S
C843 C845 1.387 . S
H844 C851 0.950 . S
C845 C843 1.387 . S
C845 C847 1.390 . S
C845 H849 0.950 . S
H846 C842 0.950 . S
C847 C845 1.390 . S
C847 C848 1.387 . S
C847 H850 0.950 . S
C848 C847 1.387 . S
C848 C851 1.387 . S
H849 C845 0.950 . S
H850 C847 0.950 . S
C851 C842 1.390 . S
C851 H844 0.950 . S
C851 C848 1.387 . S
C852 C853 1.387 . S
C852 H856 0.950 . S
C852 C861 1.390 . S
C853 C852 1.387 . S
C853 C855 1.387 . S
H854 C861 0.950 . S
C855 C853 1.387 . S
C855 C857 1.390 . S
C855 H859 0.950 . S
H856 C852 0.950 . S
C857 C855 1.390 . S
C857 C858 1.387 . S
C857 H860 0.950 . S
C858 C857 1.387 . S
C858 C861 1.387 . S
H859 C855 0.950 . S
H860 C857 0.950 . S
C861 C852 1.390 . S
C861 H854 0.950 . S
C861 C858 1.387 . S
C862 C863 1.387 . S
C862 H866 0.950 . S
C862 C871 1.390 . S
C863 C862 1.387 . S
C863 C865 1.387 . S
H864 C871 0.950 . S
C865 C863 1.387 . S
C865 C867 1.390 . S
C865 H869 0.950 . S
H866 C862 0.950 . S
C867 C865 1.390 . S
C867 C868 1.387 . S
C867 H870 0.950 . S
C868 C867 1.387 . S
C868 C871 1.387 . S
H869 C865 0.950 . S
H870 C867 0.950 . S
C871 C862 1.390 . S
C871 H864 0.950 . S
C871 C868 1.387 . S
C872 C873 1.387 . S
C872 H876 0.950 . S
C872 C881 1.390 . S
C873 C872 1.387 . S
C873 C875 1.387 . S
H874 C881 0.950 . S
C875 C873 1.387 . S
C875 C877 1.390 . S
C875 H879 0.950 . S
H876 C872 0.950 . S
C877 C875 1.390 . S
C877 C878 1.387 . S
C877 H880 0.950 . S
C878 C877 1.387 . S
C878 C881 1.387 . S
H879 C875 0.950 . S
H880 C877 0.950 . S
C881 C872 1.390 . S
C881 H874 0.950 . S
C881 C878 1.387 . S
C882 C883 1.387 . S
C882 H886 0.950 . S
C882 C891 1.390 . S
C883 C882 1.387 . S
C883 C885 1.387 . S
H884 C891 0.950 . S
C885 C883 1.387 . S
C885 C887 1.390 . S
C885 H889 0.950 . S
H886 C882 0.950 . S
C887 C885 1.390 . S
C887 C888 1.387 . S
C887 H890 0.950 . S
C888 C887 1.387 . S
C888 C891 1.387 . S
H889 C885 0.950 . S
H890 C887 0.950 . S
C891 C882 1.390 . S
C891 H884 0.950 . S
C891 C888 1.387 . S
C892 C893 1.387 . S
C892 H896 0.950 . S
C892 C901 1.390 . S
C893 C892 1.387 . S
C893 C895 1.387 . S
H894 C901 0.950 . S
C895 C893 1.387 . S
C895 C897 1.390 . S
C895 H899 0.950 . S
H896 C892 0.950 . S
C897 C895 1.390 . S
C897 C898 1.387 . S
C897 H900 0.950 . S
C898 C897 1.387 . S
C898 C901 1.387 . S
H899 C895 0.950 . S
H900 C897 0.950 . S
C901 C892 1.390 . S
C901 H894 0.950 . S
C901 C898 1.387 . S
C902 C903 1.387 . S
C902 H906 0.950 . S
C902 C911 1.390 . S
C903 C902 1.387 . S
C903 C905 1.387 . S
H904 C911 0.950 . S
C905 C903 1.387 . S
C905 C907 1.390 . S
C905 H909 0.950 . S
H906 C902 0.950 . S
C907 C905 1.390 . S
C907 C908 1.387 . S
C907 H910 0.950 . S
C908 C907 1.387 . S
C908 C911 1.387 . S
H909 C905 0.950 . S
H910 C907 0.950 . S
C911 C902 1.390 . S
C911 H904 0.950 . S
C911 C908 1.387 . S
C912 C913 1.387 . S
C912 H916 0.950 . S
C912 C921 1.390 1_655 S
C913 C912 1.387 . S
C913 C915 1.387 . S
H914 C921 0.950 . S
C915 C913 1.387 . S
C915 C917 1.390 1_655 S
C915 H919 0.950 . S
H916 C912 0.950 . S
C917 C915 1.390 1_455 S
C917 C918 1.387 . S
C917 H920 0.950 . S
C918 C917 1.387 . S
C918 C921 1.387 . S
H919 C915 0.950 . S
H920 C917 0.950 . S
C921 C912 1.390 1_455 S
C921 H914 0.950 . S
C921 C918 1.387 . S
C922 C923 1.387 1_545 S
C922 H926 0.950 . S
C922 C931 1.390 . S
C923 C922 1.387 1_565 S
C923 C925 1.387 . S
H924 C931 0.950 . S
C925 C923 1.387 . S
C925 C927 1.390 . S
C925 H929 0.950 . S
H926 C922 0.950 . S
C927 C925 1.390 . S
C927 C928 1.387 1_565 S
C927 H930 0.950 . S
C928 C927 1.387 1_545 S
C928 C931 1.387 . S
H929 C925 0.950 . S
H930 C927 0.950 . S
C931 C922 1.390 . S
C931 H924 0.950 . S
C931 C928 1.387 . S
C932 C933 1.387 . S
C932 H936 0.950 . S
C932 C941 1.376 1_655 S
C933 C932 1.387 . S
C933 C935 1.401 . S
H934 C941 0.951 . S
C935 C933 1.401 . S
C935 C937 1.376 1_655 S
C935 H939 0.951 . S
H936 C932 0.950 . S
C937 C935 1.376 1_455 S
C937 C938 1.387 . S
C937 H940 0.950 . S
C938 C937 1.387 . S
C938 C941 1.401 . S
H939 C935 0.951 . S
H940 C937 0.950 . S
C941 C932 1.376 1_455 S
C941 H934 0.951 . S
C941 C938 1.401 . S
C942 C943 1.387 . S
C942 H946 0.950 . S
C942 C951 1.390 . S
C943 C942 1.387 . S
C943 C945 1.387 1_545 S
H944 C951 0.950 . S
C945 C943 1.387 1_565 S
C945 C947 1.390 . S
C945 H949 0.950 . S
H946 C942 0.950 . S
C947 C945 1.390 . S
C947 C948 1.387 . S
C947 H950 0.950 . S
C948 C947 1.387 . S
C948 C951 1.387 1_565 S
H949 C945 0.950 . S
H950 C947 0.950 . S
C951 C942 1.390 . S
C951 H944 0.950 . S
C951 C948 1.387 1_545 S
C952 C953 1.387 . S
C952 H956 0.950 . S
C952 C961 1.390 . S
C953 C952 1.387 . S
C953 C955 1.387 1_455 S
H954 C961 0.950 . S
C955 C953 1.387 1_655 S
C955 C957 1.390 . S
C955 H959 0.950 . S
H956 C952 0.950 . S
C957 C955 1.390 . S
C957 C958 1.387 . S
C957 H960 0.950 . S
C958 C957 1.387 . S
C958 C961 1.387 1_655 S
H959 C955 0.950 . S
H960 C957 0.950 . S
C961 C952 1.390 . S
C961 H954 0.950 . S
C961 C958 1.387 1_455 S
C962 C963 1.387 1_545 S
C962 H966 0.950 . S
C962 C971 1.390 . S
C963 C962 1.387 1_565 S
C963 C965 1.387 . S
H964 C971 0.950 . S
C965 C963 1.387 . S
C965 C967 1.390 . S
C965 H969 0.950 . S
H966 C962 0.950 . S
C967 C965 1.390 . S
C967 C968 1.387 1_565 S
C967 H970 0.950 . S
C968 C967 1.387 1_545 S
C968 C971 1.387 . S
H969 C965 0.950 . S
H970 C967 0.950 . S
C971 C962 1.390 . S
C971 H964 0.950 . S
C971 C968 1.387 . S
C972 C973 1.387 . S
C972 H976 0.950 . S
C972 C981 1.390 1_455 S
C973 C972 1.387 . S
C973 C975 1.387 . S
H974 C981 0.950 . S
C975 C973 1.387 . S
C975 C977 1.390 1_455 S
C975 H979 0.950 . S
H976 C972 0.950 . S
C977 C975 1.390 1_655 S
C977 C978 1.387 . S
C977 H980 0.950 . S
C978 C977 1.387 . S
C978 C981 1.387 . S
H979 C975 0.950 . S
H980 C977 0.950 . S
C981 C972 1.390 1_655 S
C981 H974 0.950 . S
C981 C978 1.387 . S
C982 C983 1.387 1_565 S
C982 H986 0.950 . S
C982 C991 1.390 . S
C983 C982 1.387 1_545 S
C983 C985 1.387 . S
H984 C991 0.950 . S
C985 C983 1.387 . S
C985 C987 1.390 . S
C985 H989 0.950 . S
H986 C982 0.950 . S
C987 C985 1.390 . S
C987 C988 1.387 1_545 S
C987 H990 0.950 . S
C988 C987 1.387 1_565 S
C988 C991 1.387 . S
H989 C985 0.950 . S
H990 C987 0.950 . S
C991 C982 1.390 . S
C991 H984 0.950 . S
C991 C988 1.387 . S
C992 C993 1.387 1_554 S
C992 H996 0.950 . S
C992 C1001 1.390 . S
C993 C992 1.387 1_556 S
C993 C995 1.387 . S
H994 C1001 0.950 . S
C995 C993 1.387 . S
C995 C997 1.390 . S
C995 H999 0.950 . S
H996 C992 0.950 . S
C997 C995 1.390 . S
C997 C998 1.387 1_556 S
C997 H1000 0.950 . S
C998 C997 1.387 1_554 S
C998 C1001 1.387 . S
H999 C995 0.950 . S
H1000 C997 0.950 . S
C1001 C992 1.390 . S
C1001 H994 0.950 . S
C1001 C998 1.387 . S
C1002 C1003 1.387 1_556 S
C1002 H1006 0.950 . S
C1002 C1011 1.390 . S
C1003 C1002 1.387 1_554 S
C1003 C1005 1.387 . S
H1004 C1011 0.950 . S
C1005 C1003 1.387 . S
C1005 C1007 1.390 . S
C1005 H1009 0.950 . S
H1006 C1002 0.950 . S
C1007 C1005 1.390 . S
C1007 C1008 1.387 1_554 S
C1007 H1010 0.950 . S
C1008 C1007 1.387 1_556 S
C1008 C1011 1.387 . S
H1009 C1005 0.950 . S
H1010 C1007 0.950 . S
C1011 C1002 1.390 . S
C1011 H1004 0.950 . S
C1011 C1008 1.387 . S
C1012 C1013 1.387 . S
C1012 H1016 0.950 . S
C1012 C1021 1.390 . S
C1013 C1012 1.387 . S
C1013 C1015 1.387 1_554 S
H1014 C1021 0.950 . S
C1015 C1013 1.387 1_556 S
C1015 C1017 1.390 . S
C1015 H1019 0.950 . S
H1016 C1012 0.950 . S
C1017 C1015 1.390 . S
C1017 C1018 1.387 . S
C1017 H1020 0.950 . S
C1018 C1017 1.387 . S
C1018 C1021 1.387 1_556 S
H1019 C1015 0.950 . S
H1020 C1017 0.950 . S
C1021 C1012 1.390 . S
C1021 H1014 0.950 . S
C1021 C1018 1.387 1_554 S
C1022 C1023 1.387 . S
C1022 H1026 0.950 . S
C1022 C1031 1.390 . S
C1023 C1022 1.387 . S
C1023 C1025 1.387 1_556 S
H1024 C1031 0.950 . S
C1025 C1023 1.387 1_554 S
C1025 C1027 1.390 . S
C1025 H1029 0.950 . S
H1026 C1022 0.950 . S
C1027 C1025 1.390 . S
C1027 C1028 1.387 . S
C1027 H1030 0.950 . S
C1028 C1027 1.387 . S
C1028 C1031 1.387 1_554 S
H1029 C1025 0.950 . S
H1030 C1027 0.950 . S
C1031 C1022 1.390 . S
C1031 H1024 0.950 . S
C1031 C1028 1.387 1_556 S
C1032 C1033 1.387 . S
C1032 H1036 0.950 . S
C1032 C1041 1.390 . S
C1033 C1032 1.387 . S
C1033 C1035 1.387 . S
H1034 C1041 0.950 . S
C1035 C1033 1.387 . S
C1035 C1037 1.390 . S
C1035 H1039 0.950 . S
H1036 C1032 0.950 . S
C1037 C1035 1.390 . S
C1037 C1038 1.387 . S
C1037 H1040 0.950 . S
C1038 C1037 1.387 . S
C1038 C1041 1.387 . S
H1039 C1035 0.950 . S
H1040 C1037 0.950 . S
C1041 C1032 1.390 . S
C1041 H1034 0.950 . S
C1041 C1038 1.387 . S
C1042 C1043 1.387 . S
C1042 H1046 0.950 . S
C1042 C1051 1.390 . S
C1043 C1042 1.387 . S
C1043 C1045 1.387 . S
H1044 C1051 0.950 . S
C1045 C1043 1.387 . S
C1045 C1047 1.390 . S
C1045 H1049 0.950 . S
H1046 C1042 0.950 . S
C1047 C1045 1.390 . S
C1047 C1048 1.387 . S
C1047 H1050 0.950 . S
C1048 C1047 1.387 . S
C1048 C1051 1.387 . S
H1049 C1045 0.950 . S
H1050 C1047 0.950 . S
C1051 C1042 1.390 . S
C1051 H1044 0.950 . S
C1051 C1048 1.387 . S
C1052 C1053 1.387 . S
C1052 H1056 0.950 . S
C1052 C1061 1.390 . S
C1053 C1052 1.387 . S
C1053 C1055 1.387 . S
H1054 C1061 0.950 . S
C1055 C1053 1.387 . S
C1055 C1057 1.390 . S
C1055 H1059 0.950 . S
H1056 C1052 0.950 . S
C1057 C1055 1.390 . S
C1057 C1058 1.387 . S
C1057 H1060 0.950 . S
C1058 C1057 1.387 . S
C1058 C1061 1.387 . S
H1059 C1055 0.950 . S
H1060 C1057 0.950 . S
C1061 C1052 1.390 . S
C1061 H1054 0.950 . S
C1061 C1058 1.387 . S
C1062 C1063 1.387 . S
C1062 H1066 0.950 . S
C1062 C1071 1.390 . S
C1063 C1062 1.387 . S
C1063 C1065 1.387 . S
H1064 C1071 0.950 . S
C1065 C1063 1.387 . S
C1065 C1067 1.390 . S
C1065 H1069 0.950 . S
H1066 C1062 0.950 . S
C1067 C1065 1.390 . S
C1067 C1068 1.387 . S
C1067 H1070 0.950 . S
C1068 C1067 1.387 . S
C1068 C1071 1.387 . S
H1069 C1065 0.950 . S
H1070 C1067 0.950 . S
C1071 C1062 1.390 . S
C1071 H1064 0.950 . S
C1071 C1068 1.387 . S
C1072 C1073 1.387 . S
C1072 H1076 0.950 . S
C1072 C1081 1.390 . S
C1073 C1072 1.387 . S
C1073 C1075 1.387 . S
H1074 C1081 0.950 . S
C1075 C1073 1.387 . S
C1075 C1077 1.390 . S
C1075 H1079 0.950 . S
H1076 C1072 0.950 . S
C1077 C1075 1.390 . S
C1077 C1078 1.387 . S
C1077 H1080 0.950 . S
C1078 C1077 1.387 . S
C1078 C1081 1.387 . S
H1079 C1075 0.950 . S
H1080 C1077 0.950 . S
C1081 C1072 1.390 . S
C1081 H1074 0.950 . S
C1081 C1078 1.387 . S
C1082 C1083 1.387 . S
C1082 H1086 0.950 . S
C1082 C1091 1.390 . S
C1083 C1082 1.387 . S
C1083 C1085 1.387 . S
H1084 C1091 0.950 . S
C1085 C1083 1.387 . S
C1085 C1087 1.390 . S
C1085 H1089 0.950 . S
H1086 C1082 0.950 . S
C1087 C1085 1.390 . S
C1087 C1088 1.387 . S
C1087 H1090 0.950 . S
C1088 C1087 1.387 . S
C1088 C1091 1.387 . S
H1089 C1085 0.950 . S
H1090 C1087 0.950 . S
C1091 C1082 1.390 . S
C1091 H1084 0.950 . S
C1091 C1088 1.387 . S
C1092 C1093 1.387 . S
C1092 H1096 0.950 . S
C1092 C1101 1.390 . S
C1093 C1092 1.387 . S
C1093 C1095 1.387 . S
H1094 C1101 0.950 . S
C1095 C1093 1.387 . S
C1095 C1097 1.390 . S
C1095 H1099 0.950 . S
H1096 C1092 0.950 . S
C1097 C1095 1.390 . S
C1097 C1098 1.387 . S
C1097 H1100 0.950 . S
C1098 C1097 1.387 . S
C1098 C1101 1.387 . S
H1099 C1095 0.950 . S
H1100 C1097 0.950 . S
C1101 C1092 1.390 . S
C1101 H1094 0.950 . S
C1101 C1098 1.387 . S
C1102 C1103 1.387 . S
C1102 H1106 0.950 . S
C1102 C1111 1.390 . S
C1103 C1102 1.387 . S
C1103 C1105 1.387 . S
H1104 C1111 0.950 . S
C1105 C1103 1.387 . S
C1105 C1107 1.390 . S
C1105 H1109 0.950 . S
H1106 C1102 0.950 . S
C1107 C1105 1.390 . S
C1107 C1108 1.387 . S
C1107 H1110 0.950 . S
C1108 C1107 1.387 . S
C1108 C1111 1.387 . S
H1109 C1105 0.950 . S
H1110 C1107 0.950 . S
C1111 C1102 1.390 . S
C1111 H1104 0.950 . S
C1111 C1108 1.387 . S
C1112 C1113 1.387 . S
C1112 H1116 0.950 . S
C1112 C1121 1.390 . S
C1113 C1112 1.387 . S
C1113 C1115 1.387 . S
H1114 C1121 0.950 . S
C1115 C1113 1.387 . S
C1115 C1117 1.390 . S
C1115 H1119 0.950 . S
H1116 C1112 0.950 . S
C1117 C1115 1.390 . S
C1117 C1118 1.387 . S
C1117 H1120 0.950 . S
C1118 C1117 1.387 . S
C1118 C1121 1.387 . S
H1119 C1115 0.950 . S
H1120 C1117 0.950 . S
C1121 C1112 1.390 . S
C1121 H1114 0.950 . S
C1121 C1118 1.387 . S
C1122 C1123 1.387 . S
C1122 H1126 0.950 . S
C1122 C1131 1.390 . S
C1123 C1122 1.387 . S
C1123 C1125 1.387 . S
H1124 C1131 0.950 . S
C1125 C1123 1.387 . S
C1125 C1127 1.390 . S
C1125 H1129 0.950 . S
H1126 C1122 0.950 . S
C1127 C1125 1.390 . S
C1127 C1128 1.387 . S
C1127 H1130 0.950 . S
C1128 C1127 1.387 . S
C1128 C1131 1.387 . S
H1129 C1125 0.950 . S
H1130 C1127 0.950 . S
C1131 C1122 1.390 . S
C1131 H1124 0.950 . S
C1131 C1128 1.387 . S
C1132 C1133 1.387 . S
C1132 H1136 0.950 . S
C1132 C1141 1.390 . S
C1133 C1132 1.387 . S
C1133 C1135 1.387 . S
H1134 C1141 0.950 . S
C1135 C1133 1.387 . S
C1135 C1137 1.390 . S
C1135 H1139 0.950 . S
H1136 C1132 0.950 . S
C1137 C1135 1.390 . S
C1137 C1138 1.387 . S
C1137 H1140 0.950 . S
C1138 C1137 1.387 . S
C1138 C1141 1.387 . S
H1139 C1135 0.950 . S
H1140 C1137 0.950 . S
C1141 C1132 1.390 . S
C1141 H1134 0.950 . S
C1141 C1138 1.387 . S
C1142 C1143 1.387 . S
C1142 H1146 0.950 . S
C1142 C1151 1.390 . S
C1143 C1142 1.387 . S
C1143 C1145 1.387 . S
H1144 C1151 0.950 . S
C1145 C1143 1.387 . S
C1145 C1147 1.390 . S
C1145 H1149 0.950 . S
H1146 C1142 0.950 . S
C1147 C1145 1.390 . S
C1147 C1148 1.387 . S
C1147 H1150 0.950 . S
C1148 C1147 1.387 . S
C1148 C1151 1.387 . S
H1149 C1145 0.950 . S
H1150 C1147 0.950 . S
C1151 C1142 1.390 . S
C1151 H1144 0.950 . S
C1151 C1148 1.387 . S
C1152 C1153 1.387 . S
C1152 H1156 0.950 . S
C1152 C1161 1.390 . S
C1153 C1152 1.387 . S
C1153 C1155 1.387 . S
H1154 C1161 0.950 . S
C1155 C1153 1.387 . S
C1155 C1157 1.390 . S
C1155 H1159 0.950 . S
H1156 C1152 0.950 . S
C1157 C1155 1.390 . S
C1157 C1158 1.387 . S
C1157 H1160 0.950 . S
C1158 C1157 1.387 . S
C1158 C1161 1.387 . S
H1159 C1155 0.950 . S
H1160 C1157 0.950 . S
C1161 C1152 1.390 . S
C1161 H1154 0.950 . S
C1161 C1158 1.387 . S
C1162 C1163 1.387 . S
C1162 H1166 0.950 . S
C1162 C1171 1.390 . S
C1163 C1162 1.387 . S
C1163 C1165 1.387 . S
H1164 C1171 0.950 . S
C1165 C1163 1.387 . S
C1165 C1167 1.390 . S
C1165 H1169 0.950 . S
H1166 C1162 0.950 . S
C1167 C1165 1.390 . S
C1167 C1168 1.387 . S
C1167 H1170 0.950 . S
C1168 C1167 1.387 . S
C1168 C1171 1.387 . S
H1169 C1165 0.950 . S
H1170 C1167 0.950 . S
C1171 C1162 1.390 . S
C1171 H1164 0.950 . S
C1171 C1168 1.387 . S
C1172 C1173 1.387 . S
C1172 H1176 0.950 . S
C1172 C1181 1.390 . S
C1173 C1172 1.387 . S
C1173 C1175 1.387 . S
H1174 C1181 0.950 . S
C1175 C1173 1.387 . S
C1175 C1177 1.390 . S
C1175 H1179 0.950 . S
H1176 C1172 0.950 . S
C1177 C1175 1.390 . S
C1177 C1178 1.387 . S
C1177 H1180 0.950 . S
C1178 C1177 1.387 . S
C1178 C1181 1.387 . S
H1179 C1175 0.950 . S
H1180 C1177 0.950 . S
C1181 C1172 1.390 . S
C1181 H1174 0.950 . S
C1181 C1178 1.387 . S
C1182 C1183 1.387 . S
C1182 H1186 0.950 . S
C1182 C1191 1.390 . S
C1183 C1182 1.387 . S
C1183 C1185 1.387 . S
H1184 C1191 0.950 . S
C1185 C1183 1.387 . S
C1185 C1187 1.390 . S
C1185 H1189 0.950 . S
H1186 C1182 0.950 . S
C1187 C1185 1.390 . S
C1187 C1188 1.387 . S
C1187 H1190 0.950 . S
C1188 C1187 1.387 . S
C1188 C1191 1.387 . S
H1189 C1185 0.950 . S
H1190 C1187 0.950 . S
C1191 C1182 1.390 . S
C1191 H1184 0.950 . S
C1191 C1188 1.387 . S
C1192 C1193 1.387 . S
C1192 H1196 0.950 . S
C1192 C1201 1.390 . S
C1193 C1192 1.387 . S
C1193 C1195 1.387 . S
H1194 C1201 0.950 . S
C1195 C1193 1.387 . S
C1195 C1197 1.390 . S
C1195 H1199 0.950 . S
H1196 C1192 0.950 . S
C1197 C1195 1.390 . S
C1197 C1198 1.387 . S
C1197 H1200 0.950 . S
C1198 C1197 1.387 . S
C1198 C1201 1.387 . S
H1199 C1195 0.950 . S
H1200 C1197 0.950 . S
C1201 C1192 1.390 . S
C1201 H1194 0.950 . S
C1201 C1198 1.387 . S
C1202 C1203 1.387 . S
C1202 H1206 0.950 . S
C1202 C1211 1.390 . S
C1203 C1202 1.387 . S
C1203 C1205 1.387 . S
H1204 C1211 0.950 . S
C1205 C1203 1.387 . S
C1205 C1207 1.390 . S
C1205 H1209 0.950 . S
H1206 C1202 0.950 . S
C1207 C1205 1.390 . S
C1207 C1208 1.387 . S
C1207 H1210 0.950 . S
C1208 C1207 1.387 . S
C1208 C1211 1.387 . S
H1209 C1205 0.950 . S
H1210 C1207 0.950 . S
C1211 C1202 1.390 . S
C1211 H1204 0.950 . S
C1211 C1208 1.387 . S
C1212 C1213 1.387 . S
C1212 H1216 0.950 . S
C1212 C1221 1.390 . S
C1213 C1212 1.387 . S
C1213 C1215 1.387 . S
H1214 C1221 0.950 . S
C1215 C1213 1.387 . S
C1215 C1217 1.390 . S
C1215 H1219 0.950 . S
H1216 C1212 0.950 . S
C1217 C1215 1.390 . S
C1217 C1218 1.387 . S
C1217 H1220 0.950 . S
C1218 C1217 1.387 . S
C1218 C1221 1.387 . S
H1219 C1215 0.950 . S
H1220 C1217 0.950 . S
C1221 C1212 1.390 . S
C1221 H1214 0.950 . S
C1221 C1218 1.387 . S
C1222 C1223 1.387 . S
C1222 H1226 0.950 . S
C1222 C1231 1.390 . S
C1223 C1222 1.387 . S
C1223 C1225 1.387 . S
H1224 C1231 0.950 . S
C1225 C1223 1.387 . S
C1225 C1227 1.390 . S
C1225 H1229 0.950 . S
H1226 C1222 0.950 . S
C1227 C1225 1.390 . S
C1227 C1228 1.387 . S
C1227 H1230 0.950 . S
C1228 C1227 1.387 . S
C1228 C1231 1.387 . S
H1229 C1225 0.950 . S
H1230 C1227 0.950 . S
C1231 C1222 1.390 . S
C1231 H1224 0.950 . S
C1231 C1228 1.387 . S
C1232 C1233 1.387 . S
C1232 H1236 0.950 . S
C1232 C1241 1.390 . S
C1233 C1232 1.387 . S
C1233 C1235 1.387 . S
H1234 C1241 0.950 . S
C1235 C1233 1.387 . S
C1235 C1237 1.390 . S
C1235 H1239 0.950 . S
H1236 C1232 0.950 . S
C1237 C1235 1.390 . S
C1237 C1238 1.387 . S
C1237 H1240 0.950 . S
C1238 C1237 1.387 . S
C1238 C1241 1.387 . S
H1239 C1235 0.950 . S
H1240 C1237 0.950 . S
C1241 C1232 1.390 . S
C1241 H1234 0.950 . S
C1241 C1238 1.387 . S
C1242 C1243 1.387 . S
C1242 H1246 0.950 . S
C1242 C1251 1.390 . S
C1243 C1242 1.387 . S
C1243 C1245 1.387 . S
H1244 C1251 0.950 . S
C1245 C1243 1.387 . S
C1245 C1247 1.390 . S
C1245 H1249 0.950 . S
H1246 C1242 0.950 . S
C1247 C1245 1.390 . S
C1247 C1248 1.387 . S
C1247 H1250 0.950 . S
C1248 C1247 1.387 . S
C1248 C1251 1.387 . S
H1249 C1245 0.950 . S
H1250 C1247 0.950 . S
C1251 C1242 1.390 . S
C1251 H1244 0.950 . S
C1251 C1248 1.387 . S
C1252 C1253 1.387 . S
C1252 H1256 0.950 . S
C1252 C1261 1.390 . S
C1253 C1252 1.387 . S
C1253 C1255 1.387 . S
H1254 C1261 0.950 . S
C1255 C1253 1.387 . S
C1255 C1257 1.390 . S
C1255 H1259 0.950 . S
H1256 C1252 0.950 . S
C1257 C1255 1.390 . S
C1257 C1258 1.387 . S
C1257 H1260 0.950 . S
C1258 C1257 1.387 . S
C1258 C1261 1.387 . S
H1259 C1255 0.950 . S
H1260 C1257 0.950 . S
C1261 C1252 1.390 . S
C1261 H1254 0.950 . S
C1261 C1258 1.387 . S
C1262 C1263 1.387 . S
C1262 H1266 0.950 . S
C1262 C1271 1.390 . S
C1263 C1262 1.387 . S
C1263 C1265 1.387 . S
H1264 C1271 0.950 . S
C1265 C1263 1.387 . S
C1265 C1267 1.390 . S
C1265 H1269 0.950 . S
H1266 C1262 0.950 . S
C1267 C1265 1.390 . S
C1267 C1268 1.387 . S
C1267 H1270 0.950 . S
C1268 C1267 1.387 . S
C1268 C1271 1.387 . S
H1269 C1265 0.950 . S
H1270 C1267 0.950 . S
C1271 C1262 1.390 . S
C1271 H1264 0.950 . S
C1271 C1268 1.387 . S
C1272 C1273 1.387 . S
C1272 H1276 0.950 . S
C1272 C1281 1.390 . S
C1273 C1272 1.387 . S
C1273 C1275 1.387 . S
H1274 C1281 0.950 . S
C1275 C1273 1.387 . S
C1275 C1277 1.390 . S
C1275 H1279 0.950 . S
H1276 C1272 0.950 . S
C1277 C1275 1.390 . S
C1277 C1278 1.387 . S
C1277 H1280 0.950 . S
C1278 C1277 1.387 . S
C1278 C1281 1.387 . S
H1279 C1275 0.950 . S
H1280 C1277 0.950 . S
C1281 C1272 1.390 . S
C1281 H1274 0.950 . S
C1281 C1278 1.387 . S
C1282 C1283 1.387 . S
C1282 H1286 0.950 . S
C1282 C1291 1.390 . S
C1283 C1282 1.387 . S
C1283 C1285 1.387 . S
H1284 C1291 0.950 . S
C1285 C1283 1.387 . S
C1285 C1287 1.390 . S
C1285 H1289 0.950 . S
H1286 C1282 0.950 . S
C1287 C1285 1.390 . S
C1287 C1288 1.387 . S
C1287 H1290 0.950 . S
C1288 C1287 1.387 . S
C1288 C1291 1.387 . S
H1289 C1285 0.950 . S
H1290 C1287 0.950 . S
C1291 C1282 1.390 . S
C1291 H1284 0.950 . S
C1291 C1288 1.387 . S
C1292 C1293 1.387 . S
C1292 H1296 0.950 . S
C1292 C1301 1.390 . S
C1293 C1292 1.387 . S
C1293 C1295 1.387 . S
H1294 C1301 0.950 . S
C1295 C1293 1.387 . S
C1295 C1297 1.390 . S
C1295 H1299 0.950 . S
H1296 C1292 0.950 . S
C1297 C1295 1.390 . S
C1297 C1298 1.387 . S
C1297 H1300 0.950 . S
C1298 C1297 1.387 . S
C1298 C1301 1.387 . S
H1299 C1295 0.950 . S
H1300 C1297 0.950 . S
C1301 C1292 1.390 . S
C1301 H1294 0.950 . S
C1301 C1298 1.387 . S
C1302 C1303 1.387 . S
C1302 H1306 0.950 . S
C1302 C1311 1.390 . S
C1303 C1302 1.387 . S
C1303 C1305 1.387 . S
H1304 C1311 0.950 . S
C1305 C1303 1.387 . S
C1305 C1307 1.390 . S
C1305 H1309 0.950 . S
H1306 C1302 0.950 . S
C1307 C1305 1.390 . S
C1307 C1308 1.387 . S
C1307 H1310 0.950 . S
C1308 C1307 1.387 . S
C1308 C1311 1.387 . S
H1309 C1305 0.950 . S
H1310 C1307 0.950 . S
C1311 C1302 1.390 . S
C1311 H1304 0.950 . S
C1311 C1308 1.387 . S
C1312 C1313 1.387 . S
C1312 H1316 0.950 . S
C1312 C1321 1.390 . S
C1313 C1312 1.387 . S
C1313 C1315 1.387 . S
H1314 C1321 0.950 . S
C1315 C1313 1.387 . S
C1315 C1317 1.390 . S
C1315 H1319 0.950 . S
H1316 C1312 0.950 . S
C1317 C1315 1.390 . S
C1317 C1318 1.387 . S
C1317 H1320 0.950 . S
C1318 C1317 1.387 . S
C1318 C1321 1.387 . S
H1319 C1315 0.950 . S
H1320 C1317 0.950 . S
C1321 C1312 1.390 . S
C1321 H1314 0.950 . S
C1321 C1318 1.387 . S
C1322 C1323 1.387 . S
C1322 H1326 0.950 . S
C1322 C1331 1.390 . S
C1323 C1322 1.387 . S
C1323 C1325 1.387 . S
H1324 C1331 0.950 . S
C1325 C1323 1.387 . S
C1325 C1327 1.390 . S
C1325 H1329 0.950 . S
H1326 C1322 0.950 . S
C1327 C1325 1.390 . S
C1327 C1328 1.387 . S
C1327 H1330 0.950 . S
C1328 C1327 1.387 . S
C1328 C1331 1.387 . S
H1329 C1325 0.950 . S
H1330 C1327 0.950 . S
C1331 C1322 1.390 . S
C1331 H1324 0.950 . S
C1331 C1328 1.387 . S
C1332 C1333 1.387 . S
C1332 H1336 0.950 . S
C1332 C1341 1.390 . S
C1333 C1332 1.387 . S
C1333 C1335 1.387 . S
H1334 C1341 0.950 . S
C1335 C1333 1.387 . S
C1335 C1337 1.390 . S
C1335 H1339 0.950 . S
H1336 C1332 0.950 . S
C1337 C1335 1.390 . S
C1337 C1338 1.387 . S
C1337 H1340 0.950 . S
C1338 C1337 1.387 . S
C1338 C1341 1.387 . S
H1339 C1335 0.950 . S
H1340 C1337 0.950 . S
C1341 C1332 1.390 . S
C1341 H1334 0.950 . S
C1341 C1338 1.387 . S
C1342 C1343 1.387 . S
C1342 H1346 0.950 . S
C1342 C1351 1.390 . S
C1343 C1342 1.387 . S
C1343 C1345 1.387 . S
H1344 C1351 0.950 . S
C1345 C1343 1.387 . S
C1345 C1347 1.390 . S
C1345 H1349 0.950 . S
H1346 C1342 0.950 . S
C1347 C1345 1.390 . S
C1347 C1348 1.387 . S
C1347 H1350 0.950 . S
C1348 C1347 1.387 . S
C1348 C1351 1.387 . S
H1349 C1345 0.950 . S
H1350 C1347 0.950 . S
C1351 C1342 1.390 . S
C1351 H1344 0.950 . S
C1351 C1348 1.387 . S
C1352 C1353 1.387 . S
C1352 H1356 0.950 . S
C1352 C1361 1.390 . S
C1353 C1352 1.387 . S
C1353 C1355 1.387 . S
H1354 C1361 0.950 . S
C1355 C1353 1.387 . S
C1355 C1357 1.390 . S
C1355 H1359 0.950 . S
H1356 C1352 0.950 . S
C1357 C1355 1.390 . S
C1357 C1358 1.387 . S
C1357 H1360 0.950 . S
C1358 C1357 1.387 . S
C1358 C1361 1.387 . S
H1359 C1355 0.950 . S
H1360 C1357 0.950 . S
C1361 C1352 1.390 . S
C1361 H1354 0.950 . S
C1361 C1358 1.387 . S
C1362 C1363 1.387 . S
C1362 H1366 0.950 . S
C1362 C1371 1.390 . S
C1363 C1362 1.387 . S
C1363 C1365 1.387 . S
H1364 C1371 0.950 . S
C1365 C1363 1.387 . S
C1365 C1367 1.390 . S
C1365 H1369 0.950 . S
H1366 C1362 0.950 . S
C1367 C1365 1.390 . S
C1367 C1368 1.387 . S
C1367 H1370 0.950 . S
C1368 C1367 1.387 . S
C1368 C1371 1.387 . S
H1369 C1365 0.950 . S
H1370 C1367 0.950 . S
C1371 C1362 1.390 . S
C1371 H1364 0.950 . S
C1371 C1368 1.387 . S
C1372 C1373 1.387 . S
C1372 H1376 0.950 . S
C1372 C1381 1.390 . S
C1373 C1372 1.387 . S
C1373 C1375 1.387 . S
H1374 C1381 0.950 . S
C1375 C1373 1.387 . S
C1375 C1377 1.390 . S
C1375 H1379 0.950 . S
H1376 C1372 0.950 . S
C1377 C1375 1.390 . S
C1377 C1378 1.387 . S
C1377 H1380 0.950 . S
C1378 C1377 1.387 . S
C1378 C1381 1.387 . S
H1379 C1375 0.950 . S
H1380 C1377 0.950 . S
C1381 C1372 1.390 . S
C1381 H1374 0.950 . S
C1381 C1378 1.387 . S
C1382 C1383 1.387 . S
C1382 H1386 0.950 . S
C1382 C1391 1.390 . S
C1383 C1382 1.387 . S
C1383 C1385 1.387 . S
H1384 C1391 0.950 . S
C1385 C1383 1.387 . S
C1385 C1387 1.390 . S
C1385 H1389 0.950 . S
H1386 C1382 0.950 . S
C1387 C1385 1.390 . S
C1387 C1388 1.387 . S
C1387 H1390 0.950 . S
C1388 C1387 1.387 . S
C1388 C1391 1.387 . S
H1389 C1385 0.950 . S
H1390 C1387 0.950 . S
C1391 C1382 1.390 . S
C1391 H1384 0.950 . S
C1391 C1388 1.387 . S
C1392 C1393 1.387 . S
C1392 H1396 0.950 . S
C1392 C1401 1.390 . S
C1393 C1392 1.387 . S
C1393 C1395 1.387 . S
H1394 C1401 0.950 . S
C1395 C1393 1.387 . S
C1395 C1397 1.390 . S
C1395 H1399 0.950 . S
H1396 C1392 0.950 . S
C1397 C1395 1.390 . S
C1397 C1398 1.387 . S
C1397 H1400 0.950 . S
C1398 C1397 1.387 . S
C1398 C1401 1.387 . S
H1399 C1395 0.950 . S
H1400 C1397 0.950 . S
C1401 C1392 1.390 . S
C1401 H1394 0.950 . S
C1401 C1398 1.387 . S
C1402 C1403 1.387 . S
C1402 H1406 0.950 . S
C1402 C1411 1.390 . S
C1403 C1402 1.387 . S
C1403 C1405 1.387 . S
H1404 C1411 0.950 . S
C1405 C1403 1.387 . S
C1405 C1407 1.390 . S
C1405 H1409 0.950 . S
H1406 C1402 0.950 . S
C1407 C1405 1.390 . S
C1407 C1408 1.387 . S
C1407 H1410 0.950 . S
C1408 C1407 1.387 . S
C1408 C1411 1.387 . S
H1409 C1405 0.950 . S
H1410 C1407 0.950 . S
C1411 C1402 1.390 . S
C1411 H1404 0.950 . S
C1411 C1408 1.387 . S
C1412 C1413 1.387 . S
C1412 H1416 0.950 . S
C1412 C1421 1.390 . S
C1413 C1412 1.387 . S
C1413 C1415 1.387 . S
H1414 C1421 0.950 . S
C1415 C1413 1.387 . S
C1415 C1417 1.390 . S
C1415 H1419 0.950 . S
H1416 C1412 0.950 . S
C1417 C1415 1.390 . S
C1417 C1418 1.387 . S
C1417 H1420 0.950 . S
C1418 C1417 1.387 . S
C1418 C1421 1.387 . S
H1419 C1415 0.950 . S
H1420 C1417 0.950 . S
C1421 C1412 1.390 . S
C1421 H1414 0.950 . S
C1421 C1418 1.387 . S
C1422 C1423 1.387 . S
C1422 H1426 0.950 . S
C1422 C1431 1.390 . S
C1423 C1422 1.387 . S
C1423 C1425 1.387 . S
H1424 C1431 0.950 . S
C1425 C1423 1.387 . S
C1425 C1427 1.390 . S
C1425 H1429 0.950 . S
H1426 C1422 0.950 . S
C1427 C1425 1.390 . S
C1427 C1428 1.387 . S
C1427 H1430 0.950 . S
C1428 C1427 1.387 . S
C1428 C1431 1.387 . S
H1429 C1425 0.950 . S
H1430 C1427 0.950 . S
C1431 C1422 1.390 . S
C1431 H1424 0.950 . S
C1431 C1428 1.387 . S
C1432 C1433 1.387 . S
C1432 H1436 0.950 . S
C1432 C1441 1.390 . S
C1433 C1432 1.387 . S
C1433 C1435 1.387 . S
H1434 C1441 0.950 . S
C1435 C1433 1.387 . S
C1435 C1437 1.390 . S
C1435 H1439 0.950 . S
H1436 C1432 0.950 . S
C1437 C1435 1.390 . S
C1437 C1438 1.387 . S
C1437 H1440 0.950 . S
C1438 C1437 1.387 . S
C1438 C1441 1.387 . S
H1439 C1435 0.950 . S
H1440 C1437 0.950 . S
C1441 C1432 1.390 . S
C1441 H1434 0.950 . S
C1441 C1438 1.387 . S
C1442 C1443 1.387 . S
C1442 H1446 0.950 . S
C1442 C1451 1.390 . S
C1443 C1442 1.387 . S
C1443 C1445 1.387 . S
H1444 C1451 0.950 . S
C1445 C1443 1.387 . S
C1445 C1447 1.390 . S
C1445 H1449 0.950 . S
H1446 C1442 0.950 . S
C1447 C1445 1.390 . S
C1447 C1448 1.387 . S
C1447 H1450 0.950 . S
C1448 C1447 1.387 . S
C1448 C1451 1.387 . S
H1449 C1445 0.950 . S
H1450 C1447 0.950 . S
C1451 C1442 1.390 . S
C1451 H1444 0.950 . S
C1451 C1448 1.387 . S
C1452 C1453 1.387 . S
C1452 H1456 0.950 . S
C1452 C1461 1.390 . S
C1453 C1452 1.387 . S
C1453 C1455 1.387 . S
H1454 C1461 0.950 . S
C1455 C1453 1.387 . S
C1455 C1457 1.390 . S
C1455 H1459 0.950 . S
H1456 C1452 0.950 . S
C1457 C1455 1.390 . S
C1457 C1458 1.387 . S
C1457 H1460 0.950 . S
C1458 C1457 1.387 . S
C1458 C1461 1.387 . S
H1459 C1455 0.950 . S
H1460 C1457 0.950 . S
C1461 C1452 1.390 . S
C1461 H1454 0.950 . S
C1461 C1458 1.387 . S
C1462 C1463 1.387 . S
C1462 H1466 0.950 . S
C1462 C1471 1.390 . S
C1463 C1462 1.387 . S
C1463 C1465 1.387 . S
H1464 C1471 0.950 . S
C1465 C1463 1.387 . S
C1465 C1467 1.390 . S
C1465 H1469 0.950 . S
H1466 C1462 0.950 . S
C1467 C1465 1.390 . S
C1467 C1468 1.387 . S
C1467 H1470 0.950 . S
C1468 C1467 1.387 . S
C1468 C1471 1.387 . S
H1469 C1465 0.950 . S
H1470 C1467 0.950 . S
C1471 C1462 1.390 . S
C1471 H1464 0.950 . S
C1471 C1468 1.387 . S
C1472 C1473 1.387 . S
C1472 H1476 0.950 . S
C1472 C1481 1.390 . S
C1473 C1472 1.387 . S
C1473 C1475 1.387 . S
H1474 C1481 0.950 . S
C1475 C1473 1.387 . S
C1475 C1477 1.390 . S
C1475 H1479 0.950 . S
H1476 C1472 0.950 . S
C1477 C1475 1.390 . S
C1477 C1478 1.387 . S
C1477 H1480 0.950 . S
C1478 C1477 1.387 . S
C1478 C1481 1.387 . S
H1479 C1475 0.950 . S
H1480 C1477 0.950 . S
C1481 C1472 1.390 . S
C1481 H1474 0.950 . S
C1481 C1478 1.387 . S
C1482 C1483 1.387 . S
C1482 H1486 0.950 . S
C1482 C1491 1.390 . S
C1483 C1482 1.387 . S
C1483 C1485 1.387 . S
H1484 C1491 0.950 . S
C1485 C1483 1.387 . S
C1485 C1487 1.390 . S
C1485 H1489 0.950 . S
H1486 C1482 0.950 . S
C1487 C1485 1.390 . S
C1487 C1488 1.387 . S
C1487 H1490 0.950 . S
C1488 C1487 1.387 . S
C1488 C1491 1.387 . S
H1489 C1485 0.950 . S
H1490 C1487 0.950 . S
C1491 C1482 1.390 . S
C1491 H1484 0.950 . S
C1491 C1488 1.387 . S
C1492 C1493 1.387 . S
C1492 H1496 0.950 . S
C1492 C1501 1.390 . S
C1493 C1492 1.387 . S
C1493 C1495 1.387 . S
H1494 C1501 0.950 . S
C1495 C1493 1.387 . S
C1495 C1497 1.390 . S
C1495 H1499 0.950 . S
H1496 C1492 0.950 . S
C1497 C1495 1.390 . S
C1497 C1498 1.387 . S
C1497 H1500 0.950 . S
C1498 C1497 1.387 . S
C1498 C1501 1.387 . S
H1499 C1495 0.950 . S
H1500 C1497 0.950 . S
C1501 C1492 1.390 . S
C1501 H1494 0.950 . S
C1501 C1498 1.387 . S
C1502 C1503 1.387 . S
C1502 H1506 0.950 . S
C1502 C1511 1.390 . S
C1503 C1502 1.387 . S
C1503 C1505 1.387 . S
H1504 C1511 0.950 . S
C1505 C1503 1.387 . S
C1505 C1507 1.390 . S
C1505 H1509 0.950 . S
H1506 C1502 0.950 . S
C1507 C1505 1.390 . S
C1507 C1508 1.387 . S
C1507 H1510 0.950 . S
C1508 C1507 1.387 . S
C1508 C1511 1.387 . S
H1509 C1505 0.950 . S
H1510 C1507 0.950 . S
C1511 C1502 1.390 . S
C1511 H1504 0.950 . S
C1511 C1508 1.387 . S
C1512 C1513 1.387 . S
C1512 H1516 0.950 . S
C1512 C1521 1.390 . S
C1513 C1512 1.387 . S
C1513 C1515 1.387 . S
H1514 C1521 0.950 . S
C1515 C1513 1.387 . S
C1515 C1517 1.390 . S
C1515 H1519 0.950 . S
H1516 C1512 0.950 . S
C1517 C1515 1.390 . S
C1517 C1518 1.387 . S
C1517 H1520 0.950 . S
C1518 C1517 1.387 . S
C1518 C1521 1.387 . S
H1519 C1515 0.950 . S
H1520 C1517 0.950 . S
C1521 C1512 1.390 . S
C1521 H1514 0.950 . S
C1521 C1518 1.387 . S
C1522 C1523 1.387 . S
C1522 H1526 0.950 . S
C1522 C1531 1.390 . S
C1523 C1522 1.387 . S
C1523 C1525 1.387 . S
H1524 C1531 0.950 . S
C1525 C1523 1.387 . S
C1525 C1527 1.390 . S
C1525 H1529 0.950 . S
H1526 C1522 0.950 . S
C1527 C1525 1.390 . S
C1527 C1528 1.387 . S
C1527 H1530 0.950 . S
C1528 C1527 1.387 . S
C1528 C1531 1.387 . S
H1529 C1525 0.950 . S
H1530 C1527 0.950 . S
C1531 C1522 1.390 . S
C1531 H1524 0.950 . S
C1531 C1528 1.387 . S
C1532 C1533 1.387 . S
C1532 H1536 0.950 . S
C1532 C1541 1.390 . S
C1533 C1532 1.387 . S
C1533 C1535 1.387 . S
H1534 C1541 0.950 . S
C1535 C1533 1.387 . S
C1535 C1537 1.390 . S
C1535 H1539 0.950 . S
H1536 C1532 0.950 . S
C1537 C1535 1.390 . S
C1537 C1538 1.387 . S
C1537 H1540 0.950 . S
C1538 C1537 1.387 . S
C1538 C1541 1.387 . S
H1539 C1535 0.950 . S
H1540 C1537 0.950 . S
C1541 C1532 1.390 . S
C1541 H1534 0.950 . S
C1541 C1538 1.387 . S
C1542 C1543 1.387 . S
C1542 H1546 0.950 . S
C1542 C1551 1.390 . S
C1543 C1542 1.387 . S
C1543 C1545 1.387 . S
H1544 C1551 0.950 . S
C1545 C1543 1.387 . S
C1545 C1547 1.390 . S
C1545 H1549 0.950 . S
H1546 C1542 0.950 . S
C1547 C1545 1.390 . S
C1547 C1548 1.387 . S
C1547 H1550 0.950 . S
C1548 C1547 1.387 . S
C1548 C1551 1.387 . S
H1549 C1545 0.950 . S
H1550 C1547 0.950 . S
C1551 C1542 1.390 . S
C1551 H1544 0.950 . S
C1551 C1548 1.387 . S
C1552 C1553 1.387 . S
C1552 H1556 0.950 . S
C1552 C1561 1.390 . S
C1553 C1552 1.387 . S
C1553 C1555 1.387 . S
H1554 C1561 0.950 . S
C1555 C1553 1.387 . S
C1555 C1557 1.390 . S
C1555 H1559 0.950 . S
H1556 C1552 0.950 . S
C1557 C1555 1.390 . S
C1557 C1558 1.387 . S
C1557 H1560 0.950 . S
C1558 C1557 1.387 . S
C1558 C1561 1.387 . S
H1559 C1555 0.950 . S
H1560 C1557 0.950 . S
C1561 C1552 1.390 . S
C1561 H1554 0.950 . S
C1561 C1558 1.387 . S
C1562 C1563 1.387 . S
C1562 H1566 0.950 . S
C1562 C1571 1.390 . S
C1563 C1562 1.387 . S
C1563 C1565 1.387 . S
H1564 C1571 0.950 . S
C1565 C1563 1.387 . S
C1565 C1567 1.390 . S
C1565 H1569 0.950 . S
H1566 C1562 0.950 . S
C1567 C1565 1.390 . S
C1567 C1568 1.387 . S
C1567 H1570 0.950 . S
C1568 C1567 1.387 . S
C1568 C1571 1.387 . S
H1569 C1565 0.950 . S
H1570 C1567 0.950 . S
C1571 C1562 1.390 . S
C1571 H1564 0.950 . S
C1571 C1568 1.387 . S
C1572 C1573 1.387 . S
C1572 H1576 0.950 . S
C1572 C1581 1.390 . S
C1573 C1572 1.387 . S
C1573 C1575 1.387 . S
H1574 C1581 0.950 . S
C1575 C1573 1.387 . S
C1575 C1577 1.390 . S
C1575 H1579 0.950 . S
H1576 C1572 0.950 . S
C1577 C1575 1.390 . S
C1577 C1578 1.387 . S
C1577 H1580 0.950 . S
C1578 C1577 1.387 . S
C1578 C1581 1.387 . S
H1579 C1575 0.950 . S
H1580 C1577 0.950 . S
C1581 C1572 1.390 . S
C1581 H1574 0.950 . S
C1581 C1578 1.387 . S
C1582 C1583 1.387 . S
C1582 H1586 0.950 . S
C1582 C1591 1.390 . S
C1583 C1582 1.387 . S
C1583 C1585 1.387 . S
H1584 C1591 0.950 . S
C1585 C1583 1.387 . S
C1585 C1587 1.390 . S
C1585 H1589 0.950 . S
H1586 C1582 0.950 . S
C1587 C1585 1.390 . S
C1587 C1588 1.387 . S
C1587 H1590 0.950 . S
C1588 C1587 1.387 . S
C1588 C1591 1.387 . S
H1589 C1585 0.950 . S
H1590 C1587 0.950 . S
C1591 C1582 1.390 . S
C1591 H1584 0.950 . S
C1591 C1588 1.387 . S
C1592 C1593 1.387 . S
C1592 H1596 0.950 . S
C1592 C1601 1.390 . S
C1593 C1592 1.387 . S
C1593 C1595 1.387 . S
H1594 C1601 0.950 . S
C1595 C1593 1.387 . S
C1595 C1597 1.390 . S
C1595 H1599 0.950 . S
H1596 C1592 0.950 . S
C1597 C1595 1.390 . S
C1597 C1598 1.387 . S
C1597 H1600 0.950 . S
C1598 C1597 1.387 . S
C1598 C1601 1.387 . S
H1599 C1595 0.950 . S
H1600 C1597 0.950 . S
C1601 C1592 1.390 . S
C1601 H1594 0.950 . S
C1601 C1598 1.387 . S
C1602 C1603 1.387 . S
C1602 H1606 0.950 . S
C1602 C1611 1.390 . S
C1603 C1602 1.387 . S
C1603 C1605 1.387 . S
H1604 C1611 0.950 . S
C1605 C1603 1.387 . S
C1605 C1607 1.390 . S
C1605 H1609 0.950 . S
H1606 C1602 0.950 . S
C1607 C1605 1.390 . S
C1607 C1608 1.387 . S
C1607 H1610 0.950 . S
C1608 C1607 1.387 . S
C1608 C1611 1.387 . S
H1609 C1605 0.950 . S
H1610 C1607 0.950 . S
C1611 C1602 1.390 . S
C1611 H1604 0.950 . S
C1611 C1608 1.387 . S
C1612 C1613 1.387 . S
C1612 H1616 0.950 . S
C1612 C1621 1.390 . S
C1613 C1612 1.387 . S
C1613 C1615 1.387 . S
H1614 C1621 0.950 . S
C1615 C1613 1.387 . S
C1615 C1617 1.390 . S
C1615 H1619 0.950 . S
H1616 C1612 0.950 . S
C1617 C1615 1.390 . S
C1617 C1618 1.387 . S
C1617 H1620 0.950 . S
C1618 C1617 1.387 . S
C1618 C1621 1.387 . S
H1619 C1615 0.950 . S
H1620 C1617 0.950 . S
C1621 C1612 1.390 . S
C1621 H1614 0.950 . S
C1621 C1618 1.387 . S
C1622 C1623 1.387 . S
C1622 H1626 0.950 . S
C1622 C1631 1.390 . S
C1623 C1622 1.387 . S
C1623 C1625 1.387 . S
H1624 C1631 0.950 . S
C1625 C1623 1.387 . S
C1625 C1627 1.390 . S
C1625 H1629 0.950 . S
H1626 C1622 0.950 . S
C1627 C1625 1.390 . S
C1627 C1628 1.387 . S
C1627 H1630 0.950 . S
C1628 C1627 1.387 . S
C1628 C1631 1.387 . S
H1629 C1625 0.950 . S
H1630 C1627 0.950 . S
C1631 C1622 1.390 . S
C1631 H1624 0.950 . S
C1631 C1628 1.387 . S
C673 C440 1.466 . S
C678 C6 1.466 . S
C683 C20 1.465 . S
C688 C398 1.466 . S
C693 C34 1.466 . S
C698 C412 1.465 . S
C703 C426 1.465 . S
C708 C48 1.466 . S
C713 C356 1.466 . S
C718 C62 1.465 . S
C723 C76 1.466 . S
C728 C370 1.465 . S
C733 C384 1.466 . S
C738 C90 1.465 . S
C743 C104 1.466 . S
C748 C342 1.465 . S
C753 C118 1.466 . S
C758 C622 1.465 . S
C763 C580 1.466 . S
C768 C132 1.465 . S
C773 C594 1.466 . S
C778 C146 1.465 . S
C783 C160 1.466 . S
C788 C608 1.465 . S
C793 C174 1.466 . S
C798 C664 1.465 . S
C803 C188 1.465 . S
C808 C636 1.466 . S
C813 C202 1.465 . S
C818 C650 1.466 . S
C823 C566 1.465 . S
C828 C216 1.466 . S
C833 C552 1.466 . S
C838 C230 1.465 . S
C843 C244 1.466 . S
C848 C468 1.465 . S
C853 C482 1.466 . S
C858 C258 1.465 . S
C863 C272 1.466 . S
C868 C496 1.465 . S
C873 C454 1.465 . S
C878 C286 1.466 . S
C883 C524 1.465 . S
C888 C300 1.466 . S
C893 C314 1.466 . S
C898 C538 1.466 . S
C903 C510 1.465 . S
C908 C328 1.466 . S
C913 C134 1.595 . S
C918 C8 1.595 . S
C923 C148 1.595 . S
C928 C22 1.597 . S
C933 C36 1.595 . S
C938 C162 1.595 . S
C943 C120 1.596 . S
C948 C50 1.595 . S
C953 C64 1.596 . S
C958 C218 1.595 . S
C963 C176 1.595 . S
C968 C78 1.597 . S
C973 C190 1.595 . S
C978 C92 1.595 . S
C983 C204 1.595 . S
C988 C106 1.597 . S
C993 C260 1.595 . S
C998 C232 1.597 . S
C1003 C316 1.596 . S
C1008 C246 1.597 . S
C1013 C330 1.596 . S
C1018 C274 1.595 . S
C1023 C288 1.596 . S
C1028 C302 1.595 . S
C1033 C470 1.596 . S
C1038 C344 1.595 . S
C1043 C484 1.597 . S
C1048 C358 1.595 . S
C1053 C498 1.595 . S
C1058 C372 1.596 . S
C1063 C386 1.595 . S
C1068 C456 1.596 . S
C1073 C400 1.595 . S
C1078 C554 1.596 . S
C1083 C414 1.597 . S
C1088 C512 1.595 . S
C1093 C526 1.595 . S
C1098 C428 1.596 . S
C1103 C540 1.596 . S
C1108 C442 1.595 . S
C1113 C568 1.597 . S
C1118 C596 1.595 . S
C1123 C652 1.595 . S
C1128 C582 1.597 . S
C1133 C666 1.597 . S
C1138 C610 1.595 . S
C1143 C638 1.597 . S
C1148 C624 1.595 . S
C1153 C7 1.398 . S
C1158 C261 1.376 1_554 S
C1163 C21 1.397 . S
C1168 C275 1.378 1_554 S
C1173 C35 1.397 . S
C1178 C289 1.378 1_554 S
C1183 C247 1.376 1_554 S
C1188 C49 1.398 . S
C1193 C63 1.398 . S
C1198 C317 1.376 1_556 S
C1203 C77 1.398 . S
C1208 C233 1.376 1_556 S
C1213 C331 1.376 1_556 S
C1218 C91 1.398 . S
C1223 C303 1.376 1_556 S
C1228 C105 1.398 . S
C1233 C119 1.397 . S
C1238 C135 1.378 1_455 S
C1243 C133 1.397 . S
C1248 C149 1.378 1_545 S
C1253 C147 1.398 . S
C1258 C163 1.376 1_655 S
C1263 C121 1.378 1_565 S
C1268 C161 1.397 . S
C1273 C219 1.376 1_455 S
C1278 C175 1.398 . S
C1283 C177 1.376 1_545 S
C1288 C189 1.398 . S
C1293 C191 1.378 1_655 S
C1298 C203 1.397 . S
C1303 C217 1.397 . S
C1308 C205 1.378 1_565 S
C1313 C51 1.378 1_545 S
C1318 C231 1.397 . S
C1323 C79 1.378 1_565 S
C1328 C245 1.397 . S
C1333 C93 1.378 1_455 S
C1338 C259 1.397 . S
C1343 C273 1.397 . S
C1348 C107 1.378 1_545 S
C1353 C65 1.378 1_655 S
C1358 C287 1.397 . S
C1363 C23 1.378 1_565 S
C1368 C301 1.397 . S
C1373 C37 1.378 1_455 S
C1378 C315 1.397 . S
C1383 C9 1.378 1_655 S
C1388 C329 1.397 . S
C1393 C597 1.376 . S
C1398 C343 1.398 . S
C1403 C357 1.397 . S
C1408 C611 1.378 . S
C1413 C625 1.376 . S
C1418 C371 1.398 . S
C1423 C583 1.376 . S
C1428 C385 1.398 . S
C1433 C399 1.397 . S
C1438 C653 1.378 . S
C1443 C413 1.398 . S
C1448 C569 1.376 . S
C1453 C667 1.378 . S
C1458 C427 1.397 . S
C1463 C441 1.397 . S
C1468 C639 1.378 . S
C1473 C455 1.398 . S
C1478 C471 1.376 . S
C1483 C469 1.397 . S
C1488 C485 1.378 . S
C1493 C483 1.397 . S
C1498 C499 1.378 . S
C1503 C497 1.398 . S
C1508 C457 1.376 . S
C1513 C555 1.378 . S
C1518 C511 1.397 . S
C1523 C513 1.378 . S
C1528 C525 1.397 . S
C1533 C527 1.376 . S
C1538 C539 1.398 . S
C1543 C553 1.397 . S
C1548 C541 1.378 . S
C1553 C387 1.376 . S
C1558 C567 1.398 . S
C1563 C415 1.378 . S
C1568 C581 1.397 . S
C1573 C429 1.376 . S
C1578 C595 1.398 . S
C1583 C609 1.398 . S
C1588 C443 1.376 . S
C1593 C401 1.378 . S
C1598 C623 1.397 . S
C1603 C359 1.375 . S
C1608 C637 1.398 . S
C1613 C651 1.398 . S
C1618 C373 1.376 . S
C1623 C345 1.378 . S
C1628 C665 1.397 . S
