# Generated by pormake.
# Topology wjs, (5)-cn, num edge types: 1
# Building blocks:
#     Node 0, Type 0, BuildingBlock: BEQFEK_clean_sbu_0, # of connection points: 5
#     Node 1, Type 0, BuildingBlock: BEQFEK_clean_sbu_0, # of connection points: 5
#     Node 2, Type 0, BuildingBlock: BEQFEK_clean_sbu_0, # of connection points: 5
#     Node 3, Type 0, BuildingBlock: BEQFEK_clean_sbu_0, # of connection points: 5
#     Node 4, Type 0, BuildingBlock: BEQFEK_clean_sbu_0, # of connection points: 5
#     Node 5, Type 0, BuildingBlock: BEQFEK_clean_sbu_0, # of connection points: 5
#     Node 6, Type 0, BuildingBlock: BEQFEK_clean_sbu_0, # of connection points: 5
#     Node 7, Type 0, BuildingBlock: BEQFEK_clean_sbu_0, # of connection points: 5
#     Node 8, Type 0, BuildingBlock: BEQFEK_clean_sbu_0, # of connection points: 5
#     Node 9, Type 0, BuildingBlock: BEQFEK_clean_sbu_0, # of connection points: 5
#     Node 10, Type 0, BuildingBlock: BEQFEK_clean_sbu_0, # of connection points: 5
#     Node 11, Type 0, BuildingBlock: BEQFEK_clean_sbu_0, # of connection points: 5
#     Edge 12, Type (0, 0), BuildingBlock: ZUJKAS_clean_linker_0, # of connection points: 2
#     Edge 13, Type (0, 0), BuildingBlock: ZUJKAS_clean_linker_0, # of connection points: 2
#     Edge 14, Type (0, 0), BuildingBlock: ZUJKAS_clean_linker_0, # of connection points: 2
#     Edge 15, Type (0, 0), BuildingBlock: ZUJKAS_clean_linker_0, # of connection points: 2
#     Edge 16, Type (0, 0), BuildingBlock: ZUJKAS_clean_linker_0, # of connection points: 2
#     Edge 17, Type (0, 0), BuildingBlock: ZUJKAS_clean_linker_0, # of connection points: 2
#     Edge 18, Type (0, 0), BuildingBlock: ZUJKAS_clean_linker_0, # of connection points: 2
#     Edge 19, Type (0, 0), BuildingBlock: ZUJKAS_clean_linker_0, # of connection points: 2
#     Edge 20, Type (0, 0), BuildingBlock: ZUJKAS_clean_linker_0, # of connection points: 2
#     Edge 21, Type (0, 0), BuildingBlock: ZUJKAS_clean_linker_0, # of connection points: 2
#     Edge 22, Type (0, 0), BuildingBlock: ZUJKAS_clean_linker_0, # of connection points: 2
#     Edge 23, Type (0, 0), BuildingBlock: ZUJKAS_clean_linker_0, # of connection points: 2
#     Edge 24, Type (0, 0), BuildingBlock: ZUJKAS_clean_linker_0, # of connection points: 2
#     Edge 25, Type (0, 0), BuildingBlock: ZUJKAS_clean_linker_0, # of connection points: 2
#     Edge 26, Type (0, 0), BuildingBlock: ZUJKAS_clean_linker_0, # of connection points: 2
#     Edge 27, Type (0, 0), BuildingBlock: ZUJKAS_clean_linker_0, # of connection points: 2
#     Edge 28, Type (0, 0), BuildingBlock: ZUJKAS_clean_linker_0, # of connection points: 2
#     Edge 29, Type (0, 0), BuildingBlock: ZUJKAS_clean_linker_0, # of connection points: 2
#     Edge 30, Type (0, 0), BuildingBlock: ZUJKAS_clean_linker_0, # of connection points: 2
#     Edge 31, Type (0, 0), BuildingBlock: ZUJKAS_clean_linker_0, # of connection points: 2
#     Edge 32, Type (0, 0), BuildingBlock: ZUJKAS_clean_linker_0, # of connection points: 2
#     Edge 33, Type (0, 0), BuildingBlock: ZUJKAS_clean_linker_0, # of connection points: 2
#     Edge 34, Type (0, 0), BuildingBlock: ZUJKAS_clean_linker_0, # of connection points: 2
#     Edge 35, Type (0, 0), BuildingBlock: ZUJKAS_clean_linker_0, # of connection points: 2
#     Edge 36, Type (0, 0), BuildingBlock: ZUJKAS_clean_linker_0, # of connection points: 2
#     Edge 37, Type (0, 0), BuildingBlock: ZUJKAS_clean_linker_0, # of connection points: 2
#     Edge 38, Type (0, 0), BuildingBlock: ZUJKAS_clean_linker_0, # of connection points: 2
#     Edge 39, Type (0, 0), BuildingBlock: ZUJKAS_clean_linker_0, # of connection points: 2
#     Edge 40, Type (0, 0), BuildingBlock: ZUJKAS_clean_linker_0, # of connection points: 2
#     Edge 41, Type (0, 0), BuildingBlock: ZUJKAS_clean_linker_0, # of connection points: 2
# Relax obj value: 0.259
# Max RMSD: 0.219
# Mean RMSD: 0.219
data_MOF--net-wjs--node1-BEQFEK_clean_sbu_0--edge1-ZUJKAS_clean_linker_0
_symmetry_space_group_name_H-M    P1
_symmetry_Int_Tables_number       1
_symmetry_cell_setting            triclinic
loop_
_symmetry_equiv_pos_as_xyz
'x, y, z'
_cell_length_a     37.719497
_cell_length_b     37.730954
_cell_length_c     97.380727
_cell_angle_alpha  89.945623
_cell_angle_beta   90.055291
_cell_angle_gamma 120.01826
loop_
_atom_site_label
_atom_site_type_symbol
_atom_site_fract_x
_atom_site_fract_y
_atom_site_fract_z
_atom_type_partial_charge
Co0 Co 0.20997 0.31514 0.02263 0.0
Co1 Co 0.20174 0.39029 0.0135 0.0
C2 C 0.1977 0.3263 0.99354 0.0
O3 O 0.20037 0.3041 0.00287 0.0
O4 O 0.19844 0.35957 0.99646 0.0
C5 C 0.19395 0.23277 0.02847 0.0
O6 O 0.17048 0.22152 0.01751 0.0
C7 C 0.15031 0.42116 0.00279 0.0
C8 C 0.1894 0.48811 0.00512 0.0
C9 C 0.15123 0.45792 0.0006 0.0
N10 N 0.18606 0.42923 0.00848 0.0
N11 N 0.20936 0.4693 0.00983 0.0
C12 C 0.11725 0.37918 -0.00126 0.0
H13 H 0.12913 0.35763 0.99839 0.0
H14 H 0.09217 0.36749 0.00639 0.0
H15 H 0.10429 0.38018 0.9886 0.0
C16 C 0.14221 0.30219 0.04087 0.0
N17 N 0.16896 0.32278 0.03076 0.0
N18 N 0.16664 0.35546 0.02758 0.0
C19 C 0.13898 0.35726 0.03591 0.0
C20 C 0.12244 0.32338 0.0445 0.0
C21 C 0.13553 0.26271 0.04682 0.0
H22 H 0.13018 0.24094 0.03837 0.0
H23 H 0.10876 0.24856 0.05381 0.0
H24 H 0.16334 0.26825 0.05252 0.0
O25 O 0.26452 0.36434 0.02518 0.0
O26 O 0.25963 0.41883 0.01963 0.0
H27 H 0.12294 0.39603 0.04743 0.0
H28 H 0.10715 0.38829 0.0298 0.0
C29 C 0.13216 0.39301 0.03687 0.0
H30 H 0.16037 0.42169 0.03402 0.0
H31 H 0.2389 0.48378 0.01392 0.0
O32 O 0.2128 0.27017 0.03202 0.0
C33 C 0.2806 0.40296 0.02383 0.0
Co34 Co 0.89036 0.21742 0.19395 0.0
Co35 Co 0.80722 0.2021 0.18138 0.0
C36 C 0.87514 0.20451 0.16414 0.0
O37 O 0.89781 0.20974 0.17449 0.0
O38 O 0.8401 0.20136 0.16549 0.0
C39 C 0.95659 0.2041 0.20103 0.0
O40 O 0.94485 0.18077 0.19005 0.0
C41 C 0.7295 0.14687 0.1682 0.0
C42 C 0.69348 0.17773 0.17134 0.0
C43 C 0.69123 0.14261 0.166 0.0
N44 N 0.75299 0.18246 0.17476 0.0
N45 N 0.73145 0.20099 0.1765 0.0
C46 C 0.7445 0.11872 0.16366 0.0
H47 H 0.77422 0.13655 0.15831 0.0
H48 H 0.7498 0.10428 0.17275 0.0
H49 H 0.72257 0.09465 0.1566 0.0
C50 C 0.83438 0.14691 0.21096 0.0
N51 N 0.84123 0.17376 0.20081 0.0
N52 N 0.80601 0.16802 0.19611 0.0
C53 C 0.77546 0.13765 0.20344 0.0
C54 C 0.79254 0.12326 0.213 0.0
C55 C 0.86742 0.14316 0.21819 0.0
H56 H 0.8875 0.17191 0.22383 0.0
H57 H 0.8862 0.13844 0.21047 0.0
H58 H 0.855 0.11702 0.22543 0.0
O59 O 0.89079 0.26968 0.1959 0.0
O60 O 0.83198 0.26022 0.18737 0.0
H61 H 0.72788 0.15203 0.19971 0.0
H62 H 0.71477 0.11154 0.21206 0.0
C63 C 0.73114 0.1252 0.2023 0.0
H64 H 0.71662 0.10191 0.19411 0.0
H65 H 0.74241 0.22912 0.18142 0.0
O66 O 0.93762 0.22264 0.20446 0.0
C67 C 0.86676 0.28317 0.19295 0.0
Co68 Co 0.67561 0.89174 0.36034 0.0
Co69 Co 0.60501 0.80873 0.3488 0.0
C70 C 0.66882 0.87253 0.33041 0.0
O71 O 0.68747 0.89608 0.34048 0.0
O72 O 0.63668 0.83794 0.33222 0.0
C73 C 0.75834 0.95288 0.36701 0.0
O74 O 0.76828 0.93538 0.35726 0.0
C75 C 0.57213 0.72962 0.33516 0.0
C76 C 0.51034 0.69448 0.34422 0.0
C77 C 0.53742 0.69103 0.33545 0.0
N78 N 0.5659 0.7544 0.34347 0.0
N79 N 0.52865 0.73345 0.34867 0.0
C80 C 0.61235 0.74181 0.32845 0.0
H81 H 0.63756 0.76852 0.33378 0.0
H82 H 0.6186 0.71602 0.32853 0.0
H83 H 0.61135 0.75049 0.31763 0.0
C84 C 0.68923 0.83538 0.37773 0.0
N85 N 0.66887 0.84249 0.36774 0.0
N86 N 0.63967 0.80734 0.3629 0.0
C87 C 0.6409 0.77661 0.36964 0.0
C88 C 0.67265 0.79349 0.37914 0.0
C89 C 0.72178 0.86797 0.38653 0.0
H90 H 0.71358 0.89162 0.38901 0.0
H91 H 0.75123 0.88255 0.38087 0.0
H92 H 0.72584 0.85522 0.39629 0.0
O93 O 0.62601 0.89551 0.36308 0.0
O94 O 0.57506 0.83701 0.35508 0.0
H95 H 0.58085 0.72462 0.36724 0.0
H96 H 0.61805 0.71217 0.37391 0.0
C97 C 0.61321 0.73207 0.3667 0.0
H98 H 0.61937 0.72527 0.35621 0.0
H99 H 0.5164 0.74531 0.35569 0.0
O100 O 0.72078 0.93932 0.36972 0.0
C101 C 0.58816 0.87218 0.36048 0.0
Co102 Co 0.78811 0.68125 0.52656 0.0
Co103 Co 0.79555 0.60614 0.51715 0.0
C104 C 0.80063 0.67016 0.49731 0.0
O105 O 0.79825 0.6919 0.50683 0.0
O106 O 0.79921 0.63637 0.49988 0.0
C107 C 0.81095 0.76498 0.53242 0.0
O108 O 0.8403 0.77475 0.5234 0.0
C109 C 0.84175 0.57174 0.50488 0.0
C110 C 0.81148 0.50888 0.51324 0.0
C111 C 0.84397 0.53614 0.50511 0.0
N112 N 0.80964 0.5658 0.51255 0.0
N113 N 0.79127 0.528 0.51736 0.0
C114 C 0.87201 0.61229 0.49885 0.0
H115 H 0.8706 0.63745 0.50424 0.0
H116 H 0.90355 0.61724 0.49951 0.0
H117 H 0.86442 0.61291 0.48787 0.0
C118 C 0.85633 0.69395 0.54473 0.0
N119 N 0.82861 0.67312 0.53486 0.0
N120 N 0.83183 0.64133 0.53112 0.0
C121 C 0.8617 0.64084 0.53866 0.0
C122 C 0.87846 0.6745 0.54735 0.0
C123 C 0.8597 0.73012 0.55224 0.0
H124 H 0.82876 0.72456 0.55488 0.0
H125 H 0.87503 0.75749 0.54554 0.0
H126 H 0.87775 0.73639 0.56184 0.0
O127 O 0.73323 0.63311 0.52915 0.0
O128 O 0.73746 0.57849 0.52336 0.0
H129 H 0.84657 0.5781 0.53754 0.0
H130 H 0.89455 0.61119 0.54613 0.0
C131 C 0.87414 0.609 0.53757 0.0
H132 H 0.89087 0.61331 0.52781 0.0
H133 H 0.76585 0.51576 0.52385 0.0
O134 O 0.78619 0.72755 0.53504 0.0
C135 C 0.71677 0.59455 0.52766 0.0
Co136 Co 0.10894 0.77555 0.69779 0.0
Co137 Co 0.19112 0.79113 0.68447 0.0
C138 C 0.12388 0.78998 0.66765 0.0
O139 O 0.10132 0.78282 0.67818 0.0
O140 O 0.15963 0.79458 0.66864 0.0
C141 C 0.0435 0.79018 0.70477 0.0
O142 O 0.05547 0.81349 0.69377 0.0
C143 C 0.26906 0.841 0.67056 0.0
C144 C 0.30395 0.81061 0.67642 0.0
C145 C 0.30702 0.8438 0.66923 0.0
N146 N 0.24492 0.80787 0.67819 0.0
N147 N 0.26575 0.78953 0.68154 0.0
C148 C 0.25676 0.8711 0.66586 0.0
H149 H 0.23106 0.8684 0.67218 0.0
H150 H 0.28306 0.90282 0.66646 0.0
H151 H 0.24638 0.86445 0.65502 0.0
C152 C 0.16589 0.84541 0.71483 0.0
N153 N 0.15844 0.81882 0.70454 0.0
N154 N 0.19337 0.82519 0.69936 0.0
C155 C 0.22437 0.85614 0.70635 0.0
C156 C 0.20786 0.86987 0.71634 0.0
C157 C 0.1332 0.84824 0.72263 0.0
H158 H 0.11325 0.81876 0.72791 0.0
H159 H 0.11416 0.85402 0.71531 0.0
H160 H 0.14594 0.87337 0.73027 0.0
O161 O 0.10762 0.72313 0.70006 0.0
O162 O 0.16451 0.73242 0.68999 0.0
H163 H 0.27333 0.84407 0.70256 0.0
H164 H 0.2875 0.88865 0.71307 0.0
C165 C 0.26881 0.87061 0.70417 0.0
H166 H 0.27958 0.89029 0.6949 0.0
H167 H 0.25425 0.76332 0.68763 0.0
O168 O 0.06212 0.77132 0.70824 0.0
C169 C 0.131 0.70968 0.69629 0.0
Co170 Co 0.33702 0.11598 0.86225 0.0
Co171 Co 0.40503 0.19768 0.84904 0.0
C172 C 0.34003 0.12982 0.83203 0.0
O173 O 0.3231 0.10759 0.84254 0.0
O174 O 0.37154 0.16525 0.83316 0.0
C175 C 0.25675 0.05008 0.86933 0.0
O176 O 0.24515 0.06054 0.85804 0.0
C177 C 0.43226 0.27439 0.83453 0.0
C178 C 0.49724 0.31092 0.84062 0.0
C179 C 0.46684 0.3128 0.83316 0.0
N180 N 0.44182 0.25121 0.84245 0.0
N181 N 0.48083 0.27298 0.84592 0.0
C182 C 0.3897 0.26084 0.82965 0.0
H183 H 0.36694 0.23485 0.83594 0.0
H184 H 0.38324 0.28646 0.83013 0.0
H185 H 0.38661 0.25046 0.81883 0.0
C186 C 0.32257 0.17354 0.87831 0.0
N187 N 0.34287 0.16568 0.86854 0.0
N188 N 0.37169 0.2004 0.8633 0.0
C189 C 0.3705 0.23161 0.86967 0.0
C190 C 0.33926 0.21545 0.87928 0.0
C191 C 0.28727 0.14138 0.88635 0.0
H192 H 0.2619 0.12233 0.8792 0.0
H193 H 0.27589 0.15482 0.89409 0.0
H194 H 0.29671 0.12128 0.89158 0.0
O195 O 0.388 0.11483 0.86508 0.0
O196 O 0.43703 0.17172 0.85542 0.0
H197 H 0.4313 0.28129 0.86595 0.0
H198 H 0.39946 0.29502 0.87587 0.0
C199 C 0.39986 0.27607 0.86723 0.0
H200 H 0.39097 0.28591 0.85774 0.0
H201 H 0.49586 0.26236 0.85226 0.0
O202 O 0.2942 0.06968 0.87284 0.0
C203 C 0.42532 0.13809 0.86178 0.0
Co204 Co 0.6613 0.77422 0.80049 0.0
Co205 Co 0.59341 0.79016 0.81234 0.0
C206 C 0.65432 0.78525 0.83066 0.0
O207 O 0.67186 0.77934 0.82047 0.0
O208 O 0.62364 0.79026 0.829 0.0
C209 C 0.74349 0.79424 0.79431 0.0
O210 O 0.75337 0.82324 0.80347 0.0
C211 C 0.56279 0.83794 0.82624 0.0
C212 C 0.50177 0.81432 0.8168 0.0
C213 C 0.5291 0.84352 0.8259 0.0
N214 N 0.55575 0.80723 0.81764 0.0
N215 N 0.51896 0.79274 0.81222 0.0
C216 C 0.60298 0.86421 0.83325 0.0
H217 H 0.62782 0.86202 0.82794 0.0
H218 H 0.61051 0.89665 0.83349 0.0
H219 H 0.60101 0.85342 0.84398 0.0
C220 C 0.67835 0.84576 0.78343 0.0
N221 N 0.65752 0.81872 0.79346 0.0
N222 N 0.62952 0.82624 0.79845 0.0
C223 C 0.63221 0.859 0.79181 0.0
C224 C 0.66348 0.87256 0.78216 0.0
C225 C 0.70905 0.84344 0.77429 0.0
H226 H 0.69964 0.81105 0.7722 0.0
H227 H 0.73929 0.85836 0.77947 0.0
H228 H 0.71216 0.85913 0.76434 0.0
O229 O 0.61047 0.72288 0.79681 0.0
O230 O 0.56153 0.73222 0.80574 0.0
H231 H 0.57336 0.85399 0.7939 0.0
H232 H 0.61302 0.90376 0.78809 0.0
C233 C 0.60613 0.87758 0.79491 0.0
H234 H 0.61183 0.889 0.80559 0.0
H235 H 0.50629 0.76926 0.80497 0.0
O236 O 0.70599 0.77008 0.79156 0.0
C237 C 0.573 0.70983 0.79959 0.0
Co238 Co 0.88793 0.67677 0.96802 0.0
Co239 Co 0.8063 0.60341 0.97927 0.0
C240 C 0.86954 0.67024 0.99759 0.0
O241 O 0.89269 0.69047 0.98763 0.0
O242 O 0.83623 0.63671 0.99564 0.0
C243 C 0.96258 0.75358 0.9623 0.0
O244 O 0.96428 0.76053 0.97557 0.0
C245 C 0.72702 0.57377 0.99204 0.0
C246 C 0.69489 0.50751 0.9876 0.0
C247 C 0.68978 0.53788 0.99371 0.0
N248 N 0.75262 0.56491 0.98527 0.0
N249 N 0.73347 0.5252 0.98277 0.0
C250 C 0.73747 0.61652 0.99559 0.0
H251 H 0.76414 0.63909 0.98951 0.0
H252 H 0.71091 0.62093 0.9937 0.0
H253 H 0.7457 0.62213 0.00663 0.0
C254 C 0.83058 0.68855 0.95106 0.0
N255 N 0.83812 0.66816 0.96087 0.0
N256 N 0.80352 0.63636 0.96487 0.0
C257 C 0.77266 0.63501 0.95739 0.0
C258 C 0.78891 0.6681 0.94841 0.0
C259 C 0.86276 0.72778 0.94475 0.0
H260 H 0.88387 0.748 0.95285 0.0
H261 H 0.84918 0.74418 0.93942 0.0
H262 H 0.88078 0.72103 0.93728 0.0
O263 O 0.89298 0.62752 0.96579 0.0
O264 O 0.83523 0.57423 0.97324 0.0
H265 H 0.7129 0.5987 0.94823 0.0
H266 H 0.7131 0.60769 0.96636 0.0
C267 C 0.72904 0.60119 0.95803 0.0
H268 H 0.72756 0.57166 0.96023 0.0
H269 H 0.74637 0.5104 0.97745 0.0
O270 O 0.93343 0.72058 0.95745 0.0
C271 C 0.87101 0.58931 0.96813 0.0
Co272 Co 0.21611 0.88892 0.13484 0.0
Co273 Co 0.20057 0.80589 0.14754 0.0
C274 C 0.20125 0.87241 0.16472 0.0
O275 O 0.20649 0.89516 0.15437 0.0
O276 O 0.19897 0.83778 0.16342 0.0
C277 C 0.19559 0.94917 0.12658 0.0
O278 O 0.16684 0.93139 0.13592 0.0
C279 C 0.15013 0.72941 0.16213 0.0
C280 C 0.1747 0.69034 0.15503 0.0
C281 C 0.14404 0.69004 0.16295 0.0
N282 N 0.18228 0.75162 0.15385 0.0
N283 N 0.19726 0.72831 0.1498 0.0
C284 C 0.12696 0.74656 0.16935 0.0
H285 H 0.14774 0.77013 0.17677 0.0
H286 H 0.11707 0.76202 0.16183 0.0
H287 H 0.10023 0.72288 0.1751 0.0
C288 C 0.14703 0.83244 0.11717 0.0
N289 N 0.17354 0.83963 0.1275 0.0
N290 N 0.16598 0.80454 0.13291 0.0
C291 C 0.13378 0.77381 0.12626 0.0
C292 C 0.12053 0.79066 0.11619 0.0
C293 C 0.14907 0.86461 0.10765 0.0
H294 H 0.1814 0.88773 0.10552 0.0
H295 H 0.13364 0.87987 0.1125 0.0
H296 H 0.13363 0.85118 0.09774 0.0
O297 O 0.26901 0.89078 0.13325 0.0
O298 O 0.25905 0.83172 0.14166 0.0
H299 H 0.13919 0.72073 0.1299 0.0
H300 H 0.09058 0.70942 0.12257 0.0
C301 C 0.11514 0.72942 0.12982 0.0
H302 H 0.10148 0.72412 0.1402 0.0
H303 H 0.22204 0.73795 0.14312 0.0
O304 O 0.22052 0.93628 0.12465 0.0
C305 C 0.28236 0.86671 0.13628 0.0
Co306 Co 0.33357 0.22311 0.30112 0.0
Co307 Co 0.40074 0.20668 0.31363 0.0
C308 C 0.33756 0.21074 0.33117 0.0
O309 O 0.32005 0.21612 0.32085 0.0
O310 O 0.36904 0.20695 0.32979 0.0
C311 C 0.25241 0.2042 0.29409 0.0
O312 O 0.24195 0.17631 0.30372 0.0
C313 C 0.42713 0.15653 0.32827 0.0
C314 C 0.48996 0.17971 0.32053 0.0
C315 C 0.46019 0.15003 0.3289 0.0
N316 N 0.43663 0.18798 0.31971 0.0
N317 N 0.47443 0.20211 0.31525 0.0
C318 C 0.38752 0.13452 0.33599 0.0
H319 H 0.38567 0.15628 0.3432 0.0
H320 H 0.36145 0.12393 0.32874 0.0
H321 H 0.38482 0.10841 0.34204 0.0
C322 C 0.31758 0.15208 0.28413 0.0
N323 N 0.33817 0.17909 0.29418 0.0
N324 N 0.3657 0.17124 0.29942 0.0
C325 C 0.36294 0.13828 0.29292 0.0
C326 C 0.33201 0.12489 0.28313 0.0
C327 C 0.28725 0.15448 0.27479 0.0
H328 H 0.29721 0.18687 0.27245 0.0
H329 H 0.25698 0.14024 0.27993 0.0
H330 H 0.28395 0.13822 0.26497 0.0
O331 O 0.38505 0.27473 0.29839 0.0
O332 O 0.43372 0.26479 0.30729 0.0
H333 H 0.4214 0.14295 0.29586 0.0
H334 H 0.3826 0.09395 0.2892 0.0
C335 C 0.38851 0.1193 0.29628 0.0
H336 H 0.3813 0.10669 0.30682 0.0
H337 H 0.48917 0.22624 0.3083 0.0
O338 O 0.29009 0.22776 0.29143 0.0
C339 C 0.42242 0.28767 0.30134 0.0
Co340 Co 0.11076 0.33063 0.46819 0.0
Co341 Co 0.19269 0.39838 0.48142 0.0
C342 C 0.12615 0.33274 0.49842 0.0
O343 O 0.10374 0.31644 0.4879 0.0
O344 O 0.16157 0.36424 0.49735 0.0
C345 C 0.0513 0.24883 0.46053 0.0
O346 O 0.06894 0.23884 0.47023 0.0
C347 C 0.27065 0.42801 0.49559 0.0
C348 C 0.30531 0.49279 0.48917 0.0
C349 C 0.30874 0.46333 0.49667 0.0
N350 N 0.24635 0.43632 0.48775 0.0
N351 N 0.26699 0.47524 0.48412 0.0
C352 C 0.25829 0.38592 0.50068 0.0
H353 H 0.23154 0.36252 0.49482 0.0
H354 H 0.28403 0.37976 0.49974 0.0
H355 H 0.24951 0.3835 0.51166 0.0
C356 C 0.16846 0.31926 0.45096 0.0
N357 N 0.16063 0.33795 0.4613 0.0
N358 N 0.19541 0.36613 0.46671 0.0
C359 C 0.22665 0.36594 0.45995 0.0
C360 C 0.21041 0.33577 0.4499 0.0
C361 C 0.13663 0.28873 0.44143 0.0
H362 H 0.11336 0.29762 0.43914 0.0
H363 H 0.12142 0.25817 0.44639 0.0
H364 H 0.15027 0.28662 0.43159 0.0
O365 O 0.10804 0.38084 0.4658 0.0
O366 O 0.16491 0.42937 0.47565 0.0
H367 H 0.27774 0.42546 0.46415 0.0
H368 H 0.2913 0.3917 0.45538 0.0
C369 C 0.27101 0.3934 0.46324 0.0
H370 H 0.278 0.38398 0.47317 0.0
H371 H 0.25537 0.48942 0.47781 0.0
O372 O 0.06405 0.28642 0.45814 0.0
C373 C 0.13105 0.41787 0.46945 0.0
Co374 Co 0.77628 0.11006 0.63393 0.0
Co375 Co 0.78737 0.19179 0.646 0.0
C376 C 0.78835 0.12701 0.66383 0.0
O377 O 0.784 0.10419 0.65361 0.0
O378 O 0.78997 0.16132 0.66231 0.0
C379 C 0.79338 0.04574 0.62743 0.0
O380 O 0.8155 0.05731 0.6387 0.0
C381 C 0.83681 0.27036 0.65926 0.0
C382 C 0.80639 0.30493 0.65305 0.0
C383 C 0.83992 0.30849 0.66015 0.0
N384 N 0.80319 0.2456 0.65194 0.0
N385 N 0.78476 0.2662 0.64841 0.0
C386 C 0.86735 0.25857 0.6639 0.0
H387 H 0.86385 0.23194 0.65795 0.0
H388 H 0.89903 0.28465 0.66275 0.0
H389 H 0.86201 0.24984 0.67491 0.0
C390 C 0.84571 0.16737 0.61682 0.0
N391 N 0.81862 0.15969 0.62696 0.0
N392 N 0.82308 0.19443 0.6316 0.0
C393 C 0.85318 0.22551 0.62437 0.0
C394 C 0.86845 0.20926 0.61483 0.0
C395 C 0.85013 0.13508 0.60938 0.0
H396 H 0.85651 0.11701 0.61694 0.0
H397 H 0.87551 0.14827 0.60183 0.0
H398 H 0.82106 0.11416 0.60403 0.0
O399 O 0.72281 0.10659 0.63117 0.0
O400 O 0.72927 0.16401 0.63985 0.0
H401 H 0.8819 0.28742 0.61653 0.0
H402 H 0.88494 0.28283 0.63482 0.0
C403 C 0.86494 0.26956 0.62571 0.0
H404 H 0.8372 0.27219 0.62711 0.0
H405 H 0.7583 0.25426 0.64241 0.0
O406 O 0.77419 0.06388 0.62379 0.0
C407 C 0.70789 0.12941 0.63401 0.0
H408 H 0.14364 0.14947 0.02801 0.0
H409 H 0.14157 0.09982 0.0447 0.0
H410 H 0.24439 0.19683 0.06617 0.0
H411 H 0.24606 0.24662 0.0498 0.0
H412 H 0.19763 0.07799 0.05215 0.0
H413 H 0.16093 0.14519 0.09665 0.0
H414 H 0.15822 0.1595 0.07916 0.0
H415 H 0.20667 0.18179 0.08795 0.0
C416 C 0.16592 0.16017 0.03625 0.0
C417 C 0.19476 0.20201 0.03767 0.0
C418 C 0.16464 0.1318 0.04579 0.0
C419 C 0.19219 0.14482 0.05686 0.0
C420 C 0.22208 0.1863 0.05794 0.0
H421 H 0.25488 0.99737 0.10819 0.0
H422 H 0.25269 0.04421 0.09133 0.0
C423 C 0.22317 0.21466 0.04851 0.0
C424 C 0.18992 0.11515 0.06729 0.0
H425 H 0.1821 0.09662 0.10179 0.0
C426 C 0.19394 0.08186 0.063 0.0
C427 C 0.1843 0.11983 0.08141 0.0
C428 C 0.17684 0.15326 0.08656 0.0
C429 C 0.19376 0.05378 0.0725 0.0
C430 C 0.19052 0.05983 0.08669 0.0
C431 C 0.18522 0.0924 0.09093 0.0
C432 C 0.19257 0.03273 0.0973 0.0
C433 C 0.19653 0.01765 0.06721 0.0
C434 C 0.16036 0.01221 0.10668 0.0
C435 C 0.16184 0.98596 0.11651 0.0
C436 C 0.19557 0.97972 0.11708 0.0
C437 C 0.22831 0.00124 0.10793 0.0
C438 C 0.22695 0.02774 0.0982 0.0
H439 H 0.18629 0.01067 0.05635 0.0
H440 H 0.22887 0.02488 0.06766 0.0
H441 H 0.17772 0.98988 0.07351 0.0
H442 H 0.13368 0.01591 0.10623 0.0
H443 H 0.13611 0.96978 0.1234 0.0
H444 H 0.17069 0.14784 0.29281 0.0
H445 H 0.12006 0.14716 0.27692 0.0
H446 H 0.21212 0.26249 0.25993 0.0
H447 H 0.2631 0.26288 0.2755 0.0
H448 H 0.09115 0.19909 0.27314 0.0
H449 H 0.16927 0.19237 0.2259 0.0
H450 H 0.18382 0.18451 0.24279 0.0
H451 H 0.20156 0.23555 0.2365 0.0
C452 C 0.18011 0.17313 0.28573 0.0
C453 C 0.22096 0.20524 0.28532 0.0
C454 C 0.15117 0.17267 0.27664 0.0
C455 C 0.16257 0.20432 0.26704 0.0
C456 C 0.20295 0.23718 0.26699 0.0
H457 H 0.99657 0.25778 0.22188 0.0
H458 H 0.0465 0.25748 0.23781 0.0
C459 C 0.23197 0.2375 0.27597 0.0
C460 C 0.13222 0.20304 0.2571 0.0
H461 H 0.11476 0.20636 0.22285 0.0
C462 C 0.09617 0.20046 0.26214 0.0
C463 C 0.13849 0.20404 0.24274 0.0
C464 C 0.17517 0.20383 0.23665 0.0
C465 C 0.06658 0.19974 0.25323 0.0
C466 C 0.07385 0.20286 0.23889 0.0
C467 C 0.1095 0.20455 0.23384 0.0
C468 C 0.0447 0.20401 0.22894 0.0
C469 C 0.02753 0.19486 0.25926 0.0
C470 C 0.02853 0.17521 0.21826 0.0
C471 C 0.00063 0.17583 0.20896 0.0
C472 C 0.98827 0.20517 0.21022 0.0
C473 C 0.0052 0.23454 0.22073 0.0
C474 C 0.03347 0.2342 0.22992 0.0
H475 H 0.02135 0.18051 0.2696 0.0
H476 H 0.03047 0.22548 0.26039 0.0
H477 H 0.00085 0.1759 0.25253 0.0
H478 H 0.03702 0.15181 0.21726 0.0
H479 H 0.98807 0.15276 0.20099 0.0
H480 H 0.02736 0.16741 0.45946 0.0
H481 H 0.97969 0.11644 0.44316 0.0
H482 H 0.95721 0.2075 0.42485 0.0
H483 H 0.0054 0.25879 0.44086 0.0
H484 H 0.8987 0.08749 0.43857 0.0
H485 H 0.98757 0.16343 0.39168 0.0
H486 H 0.00873 0.17836 0.40872 0.0
H487 H 0.97629 0.19632 0.40178 0.0
C488 C 0.01219 0.17656 0.45198 0.0
C489 C 0.02036 0.2172 0.45139 0.0
C490 C 0.98503 0.14743 0.44266 0.0
C491 C 0.96562 0.15843 0.4326 0.0
C492 C 0.97273 0.19864 0.43228 0.0
H493 H 0.74805 0.99855 0.38661 0.0
H494 H 0.79947 0.0479 0.40232 0.0
C495 C 4e-05 0.22783 0.44152 0.0
C496 C 0.93737 0.12773 0.42259 0.0
H497 H 0.91877 0.10937 0.38826 0.0
C498 C 0.90321 0.09212 0.42757 0.0
C499 C 0.94374 0.13348 0.40825 0.0
C500 C 0.9813 0.16976 0.40228 0.0
C501 C 0.87455 0.06266 0.41859 0.0
C502 C 0.87975 0.06952 0.40425 0.0
C503 C 0.91457 0.10449 0.39926 0.0
C504 C 0.84912 0.04094 0.39428 0.0
C505 C 0.83921 0.02429 0.42454 0.0
C506 C 0.86039 0.022 0.38415 0.0
C507 C 0.83113 0.99411 0.37501 0.0
C508 C 0.79014 0.98477 0.37586 0.0
C509 C 0.77929 0.00478 0.38576 0.0
C510 C 0.80857 0.03278 0.39482 0.0
H511 H 0.84617 0.01814 0.43507 0.0
H512 H 0.81194 0.02811 0.42518 0.0
H513 H 0.83138 0.99725 0.418 0.0
H514 H 0.89165 0.02819 0.3835 0.0
H515 H 0.84046 0.97923 0.3675 0.0
H516 H 0.74651 0.75688 0.54735 0.0
H517 H 0.74502 0.80687 0.56285 0.0
H518 H 0.87037 0.89378 0.55248 0.0
H519 H 0.8717 0.84415 0.5366 0.0
H520 H 0.79148 0.83899 0.58538 0.0
H521 H 0.81676 0.9632 0.54916 0.0
H522 H 0.80381 0.91266 0.54342 0.0
H523 H 0.85547 0.94886 0.54841 0.0
C524 C 0.7736 0.78685 0.54822 0.0
C525 C 0.80921 0.79669 0.54075 0.0
C526 C 0.77271 0.81533 0.5571 0.0
C527 C 0.80746 0.85412 0.55875 0.0
C528 C 0.84294 0.86433 0.55115 0.0
H529 H 0.84189 0.01101 0.62931 0.0
H530 H 0.8466 0.9645 0.61288 0.0
C531 C 0.8437 0.83592 0.54211 0.0
C532 C 0.80688 0.88274 0.569 0.0
H533 H 0.81819 0.97769 0.57292 0.0
C534 C 0.79727 0.86932 0.58266 0.0
C535 C 0.81417 0.92213 0.56539 0.0
C536 C 0.82276 0.93751 0.55078 0.0
C537 C 0.79446 0.89411 0.59281 0.0
C538 C 0.80251 0.93378 0.58925 0.0
C539 C 0.81232 0.94732 0.57562 0.0
C540 C 0.79938 0.96123 0.5994 0.0
C541 C 0.78174 0.87714 0.60713 0.0
C542 C 0.77171 0.97519 0.59715 0.0
C543 C 0.7692 0.00197 0.60643 0.0
C544 C 0.79437 0.01532 0.61814 0.0
C545 C 0.82183 0.00098 0.62045 0.0
C546 C 0.82448 0.97433 0.6111 0.0
H547 H 0.76662 0.84319 0.60728 0.0
H548 H 0.8093 0.8894 0.61378 0.0
H549 H 0.76046 0.88627 0.61163 0.0
H550 H 0.75209 0.96543 0.58817 0.0
H551 H 0.74777 0.0125 0.60434 0.0
H552 H 0.00623 0.73905 0.72647 0.0
H553 H 0.95441 0.73789 0.74179 0.0
H554 H 0.95724 0.83759 0.71914 0.0
H555 H 0.00827 0.83822 0.70352 0.0
H556 H 0.9595 0.79683 0.75866 0.0
H557 H 0.83599 0.75663 0.7205 0.0
H558 H 0.88082 0.75282 0.71679 0.0
H559 H 0.88309 0.80156 0.71589 0.0
C560 C 0.99555 0.7605 0.72466 0.0
C561 C 0.01113 0.78856 0.71373 0.0
C562 C 0.96601 0.75984 0.73345 0.0
C563 C 0.95156 0.78726 0.73149 0.0
C564 C 0.96724 0.81549 0.72063 0.0
H565 H 0.82474 0.85169 0.79233 0.0
H566 H 0.876 0.8495 0.77754 0.0
C567 C 0.99653 0.81593 0.71176 0.0
C568 C 0.92098 0.78703 0.74107 0.0
H569 H 0.82656 0.77826 0.74246 0.0
C570 C 0.93032 0.79256 0.75514 0.0
C571 C 0.88274 0.78089 0.73647 0.0
C572 C 0.86982 0.77222 0.72161 0.0
C573 C 0.90264 0.79266 0.76474 0.0
C574 C 0.86508 0.78813 0.76006 0.0
C575 C 0.85555 0.7821 0.74601 0.0
C576 C 0.8348 0.78895 0.76954 0.0
C577 C 0.91359 0.79677 0.77979 0.0
C578 C 0.79448 0.75598 0.76977 0.0
C579 C 0.76504 0.75743 0.77803 0.0
C580 C 0.7754 0.79185 0.78627 0.0
C581 C 0.81595 0.82459 0.78621 0.0
C582 C 0.84533 0.82329 0.77781 0.0
H583 H 0.937 0.78782 0.78192 0.0
H584 H 0.92654 0.82919 0.78293 0.0
H585 H 0.88621 0.77763 0.7862 0.0
H586 H 0.78568 0.72923 0.76345 0.0
H587 H 0.73406 0.7317 0.77787 0.0
H588 H 0.27162 0.01832 0.89237 0.0
H589 H 0.22146 0.96692 0.90795 0.0
H590 H 0.12325 0.95782 0.88272 0.0
H591 H 0.17323 0.00935 0.86702 0.0
H592 H 0.11708 0.96888 0.91216 0.0
H593 H 0.14653 0.84194 0.89994 0.0
H594 H 0.19108 0.89053 0.90368 0.0
H595 H 0.16131 0.88502 0.8886 0.0
C596 C 0.23936 0.00524 0.89007 0.0
C597 C 0.22638 0.01783 0.87843 0.0
C598 C 0.21079 0.97579 0.89896 0.0
C599 C 0.16879 0.95843 0.89639 0.0
C600 C 0.15563 0.97085 0.88481 0.0
H601 H 0.96611 0.74833 0.93445 0.0
H602 H 0.01645 0.79892 0.91877 0.0
C603 C 0.1842 0.00017 0.87585 0.0
C604 C 0.1386 0.92812 0.90602 0.0
H605 H 0.10275 0.83188 0.91878 0.0
C606 C 0.11381 0.93888 0.91361 0.0
C607 C 0.13443 0.88903 0.90778 0.0
C608 C 0.15947 0.87562 0.89951 0.0
C609 C 0.08509 0.91157 0.92307 0.0
C610 C 0.08147 0.87276 0.92503 0.0
C611 C 0.10595 0.86185 0.91732 0.0
C612 C 0.0514 0.84242 0.9347 0.0
C613 C 0.05837 0.92413 0.93073 0.0
C614 C 0.05472 0.85005 0.94888 0.0
C615 C 0.02597 0.82115 0.95792 0.0
C616 C 0.99355 0.78413 0.95289 0.0
C617 C 0.99067 0.77653 0.93867 0.0
C618 C 0.0194 0.80536 0.92968 0.0
H619 H 0.05888 0.95114 0.92596 0.0
H620 H 0.02622 0.89854 0.93112 0.0
H621 H 0.06962 0.93224 0.94145 0.0
H622 H 0.07964 0.87827 0.95295 0.0
H623 H 0.02913 0.82784 0.96881 0.0
H624 H 0.61303 0.48394 0.98497 0.0
H625 H 0.54828 0.47539 0.99335 0.0
H626 H 0.61308 0.57064 0.02327 0.0
H627 H 0.678 0.57805 0.01536 0.0
H628 H 0.54598 0.50535 0.03422 0.0
H629 H 0.5031 0.55094 0.9859 0.0
H630 H 0.51476 0.51098 0.98293 0.0
H631 H 0.5542 0.56013 0.98905 0.0
C632 C 0.61357 0.50308 0.99334 0.0
C633 C 0.6508 0.53253 -0.00078 0.0
C634 C 0.57655 0.49847 0.99802 0.0
C635 C 0.57597 0.52332 0.00863 0.0
C636 C 0.61294 0.55177 0.01487 0.0
H637 H 0.32903 0.48565 0.01925 0.0
H638 H 0.40398 0.52477 0.01862 0.0
C639 C 0.65007 0.5563 0.01022 0.0
C640 C 0.5364 0.51822 0.01341 0.0
H641 H 0.44741 0.50918 0.00135 0.0
C642 C 0.52465 0.50694 0.02711 0.0
C643 C 0.50904 0.52155 0.00427 0.0
C644 C 0.52112 0.53703 0.98976 0.0
C645 C 0.48503 0.49569 0.03161 0.0
C646 C 0.45627 0.49478 0.02206 0.0
C647 C 0.46917 0.50927 0.00866 0.0
C648 C 0.41178 0.47416 0.02507 0.0
C649 C 0.47422 0.48405 0.04647 0.0
C650 C 0.39127 0.43304 0.02923 0.0
C651 C 0.34864 0.41077 0.02969 0.0
C652 C 0.32542 0.4289 0.02577 0.0
C653 C 0.34596 0.47072 0.02231 0.0
C654 C 0.3888 0.49312 0.02193 0.0
H655 H 0.50136 0.50163 0.05318 0.0
H656 H 0.44932 0.4895 0.04995 0.0
H657 H 0.46403 0.4511 0.0478 0.0
H658 H 0.40808 0.41732 0.03134 0.0
H659 H 0.33394 0.37867 0.03243 0.0
H660 H 0.93503 0.33849 0.20677 0.0
H661 H 0.96986 0.41251 0.20482 0.0
H662 H 0.87001 0.40365 0.18054 0.0
H663 H 0.83512 0.32887 0.18215 0.0
H664 H 0.94115 0.44527 0.16748 0.0
H665 H 0.96286 0.50721 0.21999 0.0
H666 H 0.97916 0.47011 0.21901 0.0
H667 H 0.92612 0.45451 0.21608 0.0
C668 C 0.91983 0.35217 0.2013 0.0
C669 C 0.88248 0.32766 0.19447 0.0
C670 C 0.9397 0.39471 0.20032 0.0
C671 C 0.92246 0.41379 0.19264 0.0
C672 C 0.88379 0.38957 0.18658 0.0
H673 H 0.0628 0.66478 0.1603 0.0
H674 H 0.00469 0.60048 0.16848 0.0
C675 C 0.86383 0.34682 0.18754 0.0
C676 C 0.94786 0.45788 0.1892 0.0
H677 H 0.01426 0.55103 0.20318 0.0
C678 C 0.9563 0.46862 0.17528 0.0
C679 C 0.9678 0.48835 0.19937 0.0
C680 C 0.95814 0.47947 0.21443 0.0
C681 C 0.986 0.50827 0.1713 0.0
C682 C 0.00757 0.53801 0.18151 0.0
C683 C 0.99784 0.52796 0.19539 0.0
C684 C 0.04223 0.57875 0.17791 0.0
C685 C 0.99573 0.51755 0.15624 0.0
C686 C 0.08245 0.58802 0.18075 0.0
C687 C 0.11565 0.62481 0.17618 0.0
C688 C 0.10906 0.65313 0.16891 0.0
C689 C 0.06872 0.64409 0.16629 0.0
C690 C 0.03554 0.60725 0.17082 0.0
H691 H 0.98015 0.4896 0.14978 0.0
H692 H 0.98568 0.53917 0.15279 0.0
H693 H 0.02926 0.5324 0.15452 0.0
H694 H 0.08813 0.56618 0.18612 0.0
H695 H 0.14648 0.63091 0.17815 0.0
H696 H 0.52322 0.1537 0.34355 0.0
H697 H 0.52988 0.09606 0.35211 0.0
H698 H 0.40975 0.01134 0.3364 0.0
H699 H 0.4033 0.06872 0.3276 0.0
H700 H 0.47396 0.02549 0.37045 0.0
H701 H 0.49181 0.98239 0.31722 0.0
H702 H 0.49887 0.0322 0.32127 0.0
H703 H 0.44829 0.98845 0.32068 0.0
C704 C 0.49806 0.12277 0.34212 0.0
C705 C 0.46241 0.11562 0.33521 0.0
C706 C 0.50181 0.08997 0.34703 0.0
C707 C 0.47025 0.04956 0.34489 0.0
C708 C 0.43434 0.04235 0.33818 0.0
H709 H 0.50936 0.84052 0.351 0.0
H710 H 0.47049 0.87647 0.3495 0.0
C711 C 0.43053 0.07513 0.33331 0.0
C712 C 0.47638 0.01514 0.34882 0.0
H713 H 0.4989 0.94546 0.33526 0.0
C714 C 0.47894 0.00757 0.36279 0.0
C715 C 0.48239 0.99163 0.33878 0.0
C716 C 0.48048 -0.00099 0.32363 0.0
C717 C 0.4886 0.97778 0.36699 0.0
C718 C 0.49691 0.95583 0.35694 0.0
C719 C 0.49241 0.96215 0.34298 0.0
C720 C 0.51541 0.93029 0.36043 0.0
C721 C 0.49026 0.9705 0.38215 0.0
C722 C 0.55293 0.94802 0.36743 0.0
C723 C 0.57502 0.92755 0.36837 0.0
C724 C 0.56039 0.88907 0.36214 0.0
C725 C 0.52153 0.8701 0.35591 0.0
C726 C 0.49931 0.89066 0.35501 0.0
H727 H 0.46855 0.97664 0.38795 0.0
H728 H 0.48297 0.93863 0.38427 0.0
H729 H 0.52151 0.99182 0.38605 0.0
H730 H 0.56654 0.97889 0.37142 0.0
H731 H 0.60477 0.94306 0.37329 0.0
H732 H 0.38577 0.51349 0.48734 0.0
H733 H 0.44978 0.52124 0.49609 0.0
H734 H 0.38382 0.4327 0.52786 0.0
H735 H 0.31962 0.42642 0.51959 0.0
H736 H 0.4522 0.49682 0.53779 0.0
H737 H 0.49152 0.44265 0.49079 0.0
H738 H 0.4819 0.48345 0.4868 0.0
H739 H 0.44124 0.43597 0.49359 0.0
C740 C 0.38477 0.49567 0.49621 0.0
C741 C 0.34734 0.46838 0.5025 0.0
C742 C 0.42139 0.49976 0.5011 0.0
C743 C 0.42144 0.47644 0.51232 0.0
C744 C 0.38436 0.45028 0.51898 0.0
H745 H 0.66754 0.51165 0.52351 0.0
H746 H 0.59254 0.4731 0.52295 0.0
C747 C 0.3476 0.44637 0.51414 0.0
C748 C 0.46068 0.48094 0.51728 0.0
H749 H 0.5485 0.48654 0.50561 0.0
C750 C 0.47299 0.49377 0.53085 0.0
C751 C 0.48735 0.47568 0.5084 0.0
C752 C 0.47459 0.4582 0.49414 0.0
C753 C 0.51254 0.50478 0.53539 0.0
C754 C 0.54078 0.504 0.52599 0.0
C755 C 0.52724 0.48785 0.5128 0.0
C756 C 0.58539 0.52448 0.52889 0.0
C757 C 0.5238 0.51794 0.55012 0.0
C758 C 0.60635 0.56587 0.53271 0.0
C759 C 0.64898 0.58776 0.53318 0.0
C760 C 0.67185 0.56902 0.52955 0.0
C761 C 0.6509 0.52704 0.52635 0.0
C762 C 0.60801 0.50498 0.52601 0.0
H763 H 0.49682 0.50112 0.55695 0.0
H764 H 0.54871 0.51273 0.55379 0.0
H765 H 0.53408 0.55101 0.55103 0.0
H766 H 0.58988 0.58207 0.53458 0.0
H767 H 0.66396 0.62003 0.53568 0.0
H768 H 0.87301 0.38427 0.64905 0.0
H769 H 0.92938 0.44819 0.658 0.0
H770 H 0.93913 0.38357 0.69306 0.0
H771 H 0.88289 0.3193 0.68404 0.0
H772 H 0.93106 0.4848 0.68183 0.0
H773 H 0.05801 0.45033 0.68072 0.0
H774 H 0.01018 0.4194 0.67182 0.0
H775 H 0.01338 0.41408 0.69005 0.0
C776 C 0.8873 0.38367 0.65864 0.0
C777 C 0.874 0.3468 0.66576 0.0
C778 C 0.91958 0.42014 0.66372 0.0
C779 C 0.93896 0.42053 0.67608 0.0
C780 C 0.92543 0.38378 0.68331 0.0
H781 H 0.0797 0.65726 0.71573 0.0
H782 H 0.03724 0.58298 0.71339 0.0
C783 C 0.89326 0.34712 0.67816 0.0
C784 C 0.97151 0.46003 0.68166 0.0
H785 H 0.07273 0.51374 0.69054 0.0
C786 C 0.96198 0.49106 0.6838 0.0
C787 C 0.01189 0.46813 0.68412 0.0
C788 C 0.02424 0.4364 0.68146 0.0
C789 C 0.9918 0.53025 0.68803 0.0
C790 C 0.03211 0.53834 0.69067 0.0
C791 C 0.04166 0.5072 0.68872 0.0
C792 C 0.06507 0.58007 0.69432 0.0
C793 C 0.98013 0.56309 0.68903 0.0
C794 C 0.09723 0.60231 0.68506 0.0
C795 C 0.12221 0.64465 0.68656 0.0
C796 C 0.11487 0.66519 0.69723 0.0
C797 C 0.08562 0.64219 0.70731 0.0
C798 C 0.06123 0.59983 0.70595 0.0
H799 H 0.95097 0.55429 0.68359 0.0
H800 H 0.97601 0.56826 0.69998 0.0
H801 H 0.00444 0.59243 0.68464 0.0
H802 H 0.10089 0.58753 0.67608 0.0
H803 H 0.14453 0.66163 0.67865 0.0
H804 H 0.49419 0.88359 0.81409 0.0
H805 H 0.48717 0.93959 0.82362 0.0
H806 H 0.54613 0.93477 0.86098 0.0
H807 H 0.55324 0.87848 0.85147 0.0
H808 H 0.44508 0.93685 0.84694 0.0
H809 H 0.60893 0.05747 0.85115 0.0
H810 H 0.59201 0.01191 0.8409 0.0
H811 H 0.59501 0.00939 0.85925 0.0
C812 C 0.50573 0.89447 0.82433 0.0
C813 C 0.52481 0.87708 0.83196 0.0
C814 C 0.50188 0.92658 0.82973 0.0
C815 C 0.51681 0.94182 0.8429 0.0
C816 C 0.53542 0.9242 0.85066 0.0
H817 H 0.42298 0.08561 0.88142 0.0
H818 H 0.45321 0.04166 0.87958 0.0
C819 C 0.53944 0.89206 0.84521 0.0
C820 C 0.51048 0.97456 0.84865 0.0
H821 H 0.56001 0.07438 0.85916 0.0
C822 C 0.47018 0.96682 0.84971 0.0
C823 C 0.5434 0.01368 0.85214 0.0
C824 C 0.58734 0.02394 0.85073 0.0
C825 C 0.46176 0.99733 0.85389 0.0
C826 C 0.49459 0.03647 0.85747 0.0
C827 C 0.53498 0.04417 0.8566 0.0
C828 C 0.48698 0.07022 0.86102 0.0
C829 C 0.41779 0.98781 0.85384 0.0
C830 C 0.49892 0.10306 0.85188 0.0
C831 C 0.48229 0.12877 0.85306 0.0
C832 C 0.45318 0.1215 0.8633 0.0
C833 C 0.44498 0.09155 0.87333 0.0
C834 C 0.4621 0.06634 0.87227 0.0
H835 H 0.3975 0.95948 0.84799 0.0
H836 H 0.40635 0.9833 0.86456 0.0
H837 H 0.41524 0.01345 0.84929 0.0
H838 H 0.51831 0.10667 0.84317 0.0
H839 H 0.48914 0.15159 0.84518 0.0
H840 H 0.4312 0.31944 0.80931 0.0
H841 H 0.43821 0.38212 0.79914 0.0
H842 H 0.51893 0.45295 0.83214 0.0
H843 H 0.51182 0.39065 0.8424 0.0
H844 H 0.42156 0.44258 0.81052 0.0
H845 H 0.58496 0.50675 0.79709 0.0
H846 H 0.55207 0.45354 0.80148 0.0
H847 H 0.57465 0.49157 0.81478 0.0
C848 C 0.4499 0.34827 0.81451 0.0
C849 C 0.47062 0.35009 0.82674 0.0
C850 C 0.45406 0.38404 0.80864 0.0
C851 C 0.47935 0.42211 0.81484 0.0
C852 C 0.49975 0.4239 0.82709 0.0
H853 H 0.50996 0.65843 0.81617 0.0
H854 H 0.47828 0.58401 0.81671 0.0
C855 C 0.49567 0.38829 0.83293 0.0
C856 C 0.48523 0.46039 0.80855 0.0
H857 H 0.56041 0.55417 0.79799 0.0
C858 C 0.45175 0.46686 0.80754 0.0
C859 C 0.52441 0.49157 0.80438 0.0
C860 C 0.561 0.48542 0.80434 0.0
C861 C 0.45702 0.50481 0.80326 0.0
C862 C 0.49687 0.53712 0.80016 0.0
C863 C 0.52981 0.52962 0.80041 0.0
C864 C 0.50647 0.57994 0.79784 0.0
C865 C 0.41995 0.50995 0.80225 0.0
C866 C 0.5319 0.60252 0.78686 0.0
C867 C 0.55082 0.64514 0.78674 0.0
C868 C 0.54409 0.66588 0.79748 0.0
C869 C 0.51529 0.64314 0.80769 0.0
C870 C 0.497 0.60047 0.80796 0.0
H871 H 0.39209 0.48043 0.79971 0.0
H872 H 0.41467 0.52022 0.81233 0.0
H873 H 0.42408 0.53295 0.79435 0.0
H874 H 0.53958 0.5874 0.77891 0.0
H875 H 0.57284 0.66202 0.77873 0.0
H876 H 0.93923 0.60696 0.95342 0.0
H877 H 0.98096 0.57458 0.95572 0.0
H878 H 0.88983 0.48253 0.98221 0.0
H879 H 0.84754 0.51471 0.97993 0.0
H880 H 0.00573 0.57053 0.98364 0.0
H881 H 0.93145 0.41923 0.95738 0.0
H882 H 0.92216 0.46002 0.95234 0.0
H883 H 0.89933 0.43136 0.96769 0.0
C884 C 0.9274 0.57912 0.95941 0.0
C885 C 0.89033 0.56373 0.96666 0.0
C886 C 0.95129 0.56062 0.96069 0.0
C887 C 0.93848 0.52628 0.96914 0.0
C888 C 0.89997 0.50876 0.97549 0.0
H889 H 0.06886 0.41481 0.00583 0.0
H890 H 0.0165 0.42952 0.99737 0.0
C891 C 0.87589 0.52724 0.9742 0.0
C892 C 0.96829 0.51354 0.97311 0.0
H893 H 0.98991 0.43603 0.971 0.0
C894 C 0.00243 0.54121 0.98082 0.0
C895 C 0.96339 0.47507 0.96958 0.0
C896 C 0.92727 0.44462 0.96122 0.0
C897 C 0.03192 0.53147 0.98515 0.0
C898 C 0.02769 0.49336 0.98135 0.0
C899 C 0.99323 0.46537 0.97377 0.0
C900 C 0.05869 0.48215 0.98536 0.0
C901 C 0.06681 0.56173 0.99404 0.0
C902 C 0.09959 0.50636 0.98118 0.0
C903 C 0.12954 0.49804 0.98601 0.0
C904 C 0.11894 0.46484 0.99486 0.0
C905 C 0.07778 0.43988 -0.00129 0.0
C906 C 0.04786 0.44841 0.99396 0.0
H907 H 0.05951 0.58373 -0.00093 0.0
H908 H 0.07443 0.54585 0.00212 0.0
H909 H 0.09434 0.57955 0.98755 0.0
H910 H 0.10846 0.53217 0.97437 0.0
H911 H 0.16104 0.51767 0.98287 0.0
H912 H 0.32695 0.83283 0.14639 0.0
H913 H 0.40163 0.86709 0.14866 0.0
H914 H 0.41312 0.97133 0.12649 0.0
H915 H 0.33917 0.93717 0.12382 0.0
H916 H 0.47595 0.95669 0.1206 0.0
H917 H 0.45288 0.95801 0.17707 0.0
H918 H 0.43041 0.90842 0.16918 0.0
H919 H 0.41143 0.94233 0.165 0.0
C920 C 0.34545 0.8626 0.1417 0.0
C921 C 0.327 0.88259 0.13517 0.0
C922 C 0.3881 0.88226 0.14309 0.0
C923 C 0.4128 0.92222 0.13808 0.0
C924 C 0.39465 0.94065 0.13055 0.0
H925 H 0.63575 0.14368 0.14847 0.0
H926 H 0.57109 0.08525 0.14064 0.0
C927 C 0.35223 0.92105 0.12908 0.0
C928 C 0.45674 0.94697 0.14176 0.0
H929 H 0.52002 0.99535 0.16893 0.0
C930 C 0.48572 0.96467 0.13118 0.0
C931 C 0.46941 0.95751 0.15558 0.0
C932 C 0.43949 0.94091 0.16739 0.0
C933 C 0.52673 0.99364 0.13402 0.0
C934 C 0.53888 0.00537 0.14777 0.0
C935 C 0.51048 0.9862 0.15839 0.0
C936 C 0.57982 0.0399 0.15137 0.0
C937 C 0.55655 0.0121 0.12228 0.0
C938 C 0.6058 0.03379 0.16015 0.0
C939 C 0.64265 0.06711 0.16462 0.0
C940 C 0.65398 0.10706 0.16044 0.0
C941 C 0.62793 0.11311 0.15168 0.0
C942 C 0.59122 0.07978 0.14712 0.0
H943 H 0.54594 0.99207 0.11307 0.0
H944 H 0.55942 0.04192 0.11945 0.0
H945 H 0.58735 0.01763 0.12524 0.0
H946 H 0.59714 0.00334 0.16375 0.0
H947 H 0.66153 0.06172 0.17175 0.0
H948 H 0.49969 0.61649 0.3476 0.0
H949 H 0.49064 0.55211 0.33861 0.0
H950 H 0.55233 0.6131 0.30122 0.0
H951 H 0.56158 0.67789 0.31022 0.0
H952 H 0.44874 0.51219 0.31555 0.0
H953 H 0.61116 0.55034 0.3119 0.0
H954 H 0.59552 0.58092 0.32163 0.0
H955 H 0.59891 0.58498 0.30325 0.0
C956 C 0.5114 0.61624 0.33747 0.0
C957 C 0.53186 0.65232 0.32969 0.0
C958 C 0.50638 0.57949 0.33237 0.0
C959 C 0.52149 0.57797 0.31936 0.0
C960 C 0.54146 0.61383 0.31145 0.0
H961 H 0.42149 0.33845 0.2817 0.0
H962 H 0.45342 0.41284 0.28349 0.0
C963 C 0.54668 0.65079 0.31659 0.0
C964 C 0.51397 0.53813 0.31392 0.0
H965 H 0.56094 0.48489 0.30392 0.0
C966 C 0.47327 0.5063 0.31292 0.0
C967 C 0.5461 0.53053 0.31061 0.0
C968 C 0.59043 0.56333 0.31199 0.0
C969 C 0.46368 0.46682 0.30897 0.0
C970 C 0.49573 0.45917 0.30553 0.0
C971 C 0.53651 0.49107 0.30637 0.0
C972 C 0.48683 0.4173 0.30208 0.0
C973 C 0.41931 0.43328 0.30907 0.0
C974 C 0.49798 0.39581 0.31125 0.0
C975 C 0.48039 0.35332 0.3101 0.0
C976 C 0.45115 0.33195 0.29984 0.0
C977 C 0.44364 0.35418 0.28979 0.0
C978 C 0.4617 0.39662 0.29083 0.0
H979 H 0.3997 0.44229 0.31487 0.0
H980 H 0.40776 0.42641 0.29836 0.0
H981 H 0.41587 0.40481 0.31369 0.0
H982 H 0.51754 0.41132 0.31996 0.0
H983 H 0.48665 0.33694 0.31799 0.0
H984 H 0.87743 0.4951 0.51727 0.0
H985 H 0.93211 0.48446 0.50851 0.0
H986 H 0.93776 0.54993 0.47148 0.0
H987 H 0.88317 0.56093 0.48026 0.0
H988 H 0.93152 0.44389 0.48565 0.0
H989 H 0.0579 0.60533 0.4827 0.0
H990 H 0.01101 0.59029 0.49195 0.0
H991 H 0.01226 0.59478 0.47356 0.0
C992 C 0.89042 0.50731 0.50727 0.0
C993 C 0.87657 0.52943 0.49954 0.0
C994 C 0.92173 0.50137 0.50231 0.0
C995 C 0.9396 0.51713 0.48947 0.0
C996 C 0.92529 0.53858 0.48159 0.0
H997 H 0.07635 0.41555 0.45069 0.0
H998 H 0.03336 0.44666 0.45326 0.0
C999 C 0.89408 0.5448 0.48661 0.0
C1000 C 0.97165 0.50902 0.48415 0.0
H1001 H 0.07168 0.55479 0.47394 0.0
C1002 C 0.96212 0.46814 0.48304 0.0
C1003 C 0.01164 0.54078 0.48086 0.0
C1004 C 0.02408 0.58529 0.48243 0.0
C1005 C 0.99151 0.45802 0.47893 0.0
C1006 C 0.03134 0.48969 0.47542 0.0
C1007 C 0.04094 0.53065 0.47643 0.0
C1008 C 0.06379 0.48031 0.47165 0.0
C1009 C 0.97997 0.41346 0.4789 0.0
C1010 C 0.0973 0.4918 0.48046 0.0
C1011 C 0.12248 0.47469 0.47885 0.0
C1012 C 0.11407 0.44556 0.46851 0.0
C1013 C 0.08319 0.43754 0.45886 0.0
C1014 C 0.05849 0.45511 0.46035 0.0
H1015 H 0.95163 0.39419 0.4849 0.0
H1016 H 0.9744 0.40197 0.46818 0.0
H1017 H 0.00499 0.40949 0.48325 0.0
H1018 H 0.10206 0.51147 0.48919 0.0
H1019 H 0.14603 0.48142 0.48645 0.0
H1020 H 0.31499 0.88617 0.64532 0.0
H1021 H 0.37863 0.93972 0.63493 0.0
H1022 H 0.44775 0.92835 0.66824 0.0
H1023 H 0.38453 0.87503 0.67863 0.0
H1024 H 0.44039 0.01568 0.64506 0.0
H1025 H 0.50063 0.91179 0.63417 0.0
H1026 H 0.44779 0.89318 0.63868 0.0
H1027 H 0.48638 0.9096 0.65185 0.0
C1028 C 0.34369 0.89553 0.65052 0.0
C1029 C 0.3448 0.87666 0.66285 0.0
C1030 C 0.38001 0.92593 0.64453 0.0
C1031 C 0.41788 0.93757 0.65073 0.0
C1032 C 0.41889 0.91922 0.66315 0.0
H1033 H 0.65627 0.14225 0.65007 0.0
H1034 H 0.58193 0.09924 0.651 0.0
C1035 C 0.38277 0.88882 0.66908 0.0
C1036 C 0.4567 0.96855 0.64428 0.0
H1037 H 0.54984 0.98354 0.63451 0.0
C1038 C 0.4642 0.00866 0.64252 0.0
C1039 C 0.48727 0.95909 0.64064 0.0
C1040 C 0.47998 0.91596 0.64129 0.0
C1041 C 0.50255 0.04016 0.63801 0.0
C1042 C 0.53429 0.03131 0.6355 0.0
C1043 C 0.52577 0.99063 0.63651 0.0
C1044 C 0.57743 0.06355 0.63298 0.0
C1045 C 0.50864 0.08252 0.63609 0.0
C1046 C 0.59982 0.05858 0.62238 0.0
C1047 C 0.64245 0.08243 0.62207 0.0
C1048 C 0.66342 0.11217 0.63221 0.0
C1049 C 0.64084 0.11982 0.64204 0.0
C1050 C 0.5982 0.09532 0.64253 0.0
H1051 H 0.47949 0.08109 0.63315 0.0
H1052 H 0.51887 0.09944 0.64594 0.0
H1053 H 0.532 0.09995 0.62811 0.0
H1054 H 0.58454 0.03438 0.61488 0.0
H1055 H 0.65915 0.07605 0.61435 0.0
H1056 H 0.30212 0.25906 0.87274 0.0
H1057 H 0.27259 0.28763 0.88889 0.0
H1058 H 0.3179 0.2485 0.92295 0.0
H1059 H 0.34664 0.21945 0.90689 0.0
H1060 H 0.21319 0.23269 0.91203 0.0
H1061 H 0.35191 0.37516 0.9291 0.0
H1062 H 0.34825 0.3521 0.9125 0.0
H1063 H 0.35727 0.33051 0.92762 0.0
C1064 C 0.30625 0.25736 0.88369 0.0
C1065 C 0.32652 0.23737 0.88871 0.0
C1066 C 0.28937 0.27344 0.89284 0.0
C1067 C 0.29336 0.27023 0.90704 0.0
C1068 C 0.31491 0.25151 0.91201 0.0
H1069 H 0.18931 0.2552 0.98318 0.0
H1070 H 0.20497 0.24361 0.95988 0.0
C1071 C 0.33127 0.23503 0.90289 0.0
C1072 C 0.27274 0.28357 0.91689 0.0
H1073 H 0.29305 0.34941 0.94353 0.0
C1074 C 0.23036 0.25874 0.91875 0.0
C1075 C 0.29531 0.31766 0.9255 0.0
C1076 C 0.3407 0.3457 0.92357 0.0
C1077 C 0.21037 0.26565 0.92968 0.0
C1078 C 0.23353 0.298 0.93892 0.0
C1079 C 0.27539 0.32451 0.93645 0.0
C1080 C 0.21645 0.30214 0.95207 0.0
C1081 C 0.16499 0.23749 0.93156 0.0
C1082 C 0.217 0.3386 0.95531 0.0
C1083 C 0.20798 0.34532 0.96863 0.0
C1084 C 0.199 0.31594 0.97898 0.0
C1085 C 0.19624 0.2785 0.97547 0.0
C1086 C 0.20492 0.2717 0.96213 0.0
H1087 H 0.14989 0.22274 0.92172 0.0
H1088 H 0.15991 0.21294 0.93893 0.0
H1089 H 0.1502 0.25429 0.93574 0.0
H1090 H 0.2261 0.36253 0.94768 0.0
H1091 H 0.21038 0.3745 0.97098 0.0
H1092 H 0.04663 0.31557 0.04365 0.0
H1093 H 0.99721 0.2955 0.06268 0.0
H1094 H 0.08458 0.28986 0.0899 0.0
H1095 H 0.13382 0.31025 0.07106 0.0
H1096 H 0.96624 0.22126 0.07887 0.0
H1097 H 0.04775 0.36165 0.1105 0.0
H1098 H 0.0585 0.36051 0.09249 0.0
H1099 H 0.07987 0.3417 0.10512 0.0
C1100 C 0.05521 0.31046 0.05377 0.0
C1101 C 0.09366 0.31408 0.05597 0.0
C1102 C 0.02707 0.29889 0.06455 0.0
C1103 C 0.03748 0.29152 0.07767 0.0
C1104 C 0.07621 0.29591 0.07988 0.0
H1105 H 0.94697 0.20785 0.15744 0.0
H1106 H 0.98117 0.22553 0.1352 0.0
C1107 C 0.10415 0.30726 0.06913 0.0
C1108 C 0.00771 0.27775 0.08906 0.0
H1109 H 0.9968 0.30141 0.12197 0.0
C1110 C 0.9724 0.23897 0.08823 0.0
C1111 C 0.01596 0.30109 0.10119 0.0
C1112 C 0.05238 0.34373 0.10237 0.0
C1113 C 0.94622 0.22195 0.09957 0.0
C1114 C 0.95568 0.24456 0.1119 0.0
C1115 C 0.98998 0.28403 0.1125 0.0
C1116 C 0.93177 0.22748 0.1246 0.0
C1117 C 0.90975 0.17935 0.09855 0.0
C1118 C 0.89214 0.22154 0.12585 0.0
C1119 C 0.87235 0.21134 0.13859 0.0
C1120 C 0.89216 0.20733 0.15025 0.0
C1121 C 0.93092 0.21098 0.14871 0.0
C1122 C 0.95057 0.22111 0.13601 0.0
H1123 H 0.90992 0.16375 0.08889 0.0
H1124 H 0.9091 0.16052 0.10742 0.0
H1125 H 0.88122 0.18103 0.09884 0.0
H1126 H 0.87735 0.22673 0.11716 0.0
H1127 H 0.84251 0.20875 0.13942 0.0
H1128 H 0.73485 0.94512 0.32261 0.0
H1129 H 0.74996 0.97523 0.29972 0.0
H1130 H 0.64834 0.86524 0.28317 0.0
H1131 H 0.63245 0.83481 0.30615 0.0
H1132 H 0.76654 0.95076 0.27429 0.0
H1133 H 0.62106 0.95531 0.2734 0.0
H1134 H 0.64057 0.94503 0.28892 0.0
H1135 H 0.61691 0.90618 0.27599 0.0
C1136 C 0.71596 0.927 0.31411 0.0
C1137 C 0.68204 0.88777 0.31626 0.0
C1138 C 0.72469 0.94428 0.30102 0.0
C1139 C 0.69974 0.92275 0.28983 0.0
C1140 C 0.66743 0.88262 0.29175 0.0
H1141 H 0.73232 0.04399 0.2092 0.0
H1142 H 0.70476 0.98902 0.22657 0.0
C1143 C 0.65859 0.86523 0.30487 0.0
C1144 C 0.70658 0.9438 0.27647 0.0
H1145 H 0.66761 0.98864 0.25547 0.0
C1146 C 0.74464 0.95843 0.27003 0.0
C1147 C 0.67786 0.95373 0.27095 0.0
C1148 C 0.63686 0.93956 0.27767 0.0
C1149 C 0.75547 0.98425 0.25857 0.0
C1150 C 0.72764 0.99588 0.25353 0.0
C1151 C 0.68872 0.97949 0.25943 0.0
C1152 C 0.74055 0.02874 0.24324 0.0
C1153 C 0.79722 0.00027 0.25222 0.0
C1154 C 0.7684 0.06912 0.24708 0.0
C1155 C 0.78374 0.10023 0.2373 0.0
C1156 C 0.77163 0.09134 0.22353 0.0
C1157 C 0.74205 0.05133 0.21979 0.0
C1158 C 0.72652 0.02006 0.22964 0.0
H1159 H 0.81121 0.98154 0.2552 0.0
H1160 H 0.79536 0.00078 0.24085 0.0
H1161 H 0.81773 0.03213 0.25576 0.0
H1162 H 0.77904 0.07634 0.25759 0.0
H1163 H 0.80609 0.13106 0.2404 0.0
H1164 H 0.7498 0.80719 0.38276 0.0
H1165 H 0.77421 0.77979 0.40088 0.0
H1166 H 0.65017 0.70457 0.41531 0.0
H1167 H 0.62614 0.73401 0.39769 0.0
H1168 H 0.69797 0.7457 0.43546 0.0
H1169 H 0.77358 0.67493 0.40709 0.0
H1170 H 0.79342 0.72724 0.4021 0.0
H1171 H 0.74056 0.6902 0.39875 0.0
C1172 C 0.72778 0.78438 0.38971 0.0
C1173 C 0.68613 0.77245 0.38883 0.0
C1174 C 0.74165 0.76834 0.39994 0.0
C1175 C 0.71396 0.7395 0.40931 0.0
C1176 C 0.67206 0.7265 0.40811 0.0
H1177 H 0.77225 0.62012 0.47488 0.0
H1178 H 0.75431 0.6369 0.45259 0.0
C1179 C 0.65828 0.74303 0.398 0.0
C1180 C 0.72917 0.72674 0.42131 0.0
H1181 H 0.79187 0.68997 0.43097 0.0
C1182 C 0.71812 0.73308 0.43444 0.0
C1183 C 0.75521 0.70994 0.42001 0.0
C1184 C 0.76601 0.69978 0.40621 0.0
C1185 C 0.73297 0.72394 0.4463 0.0
C1186 C 0.76093 0.70946 0.44502 0.0
C1187 C 0.77117 0.70197 0.43191 0.0
C1188 C 0.7787 0.70101 0.45729 0.0
C1189 C 0.71798 0.72937 0.46009 0.0
C1190 C 0.80047 0.73199 0.46697 0.0
C1191 C 0.81017 0.72242 0.47976 0.0
C1192 C 0.79911 0.68185 0.48294 0.0
C1193 C 0.78107 0.65164 0.47272 0.0
C1194 C 0.77073 0.66115 0.45999 0.0
H1195 H 0.68852 0.72919 0.45916 0.0
H1196 H 0.71367 0.70484 0.46736 0.0
H1197 H 0.74088 0.7593 0.46451 0.0
H1198 H 0.80797 0.7632 0.46492 0.0
H1199 H 0.82463 0.74642 0.48738 0.0
H1200 H 0.87953 0.63216 0.5698 0.0
H1201 H 0.93019 0.65775 0.58845 0.0
H1202 H 0.00181 0.77102 0.56638 0.0
H1203 H 0.95073 0.74569 0.54789 0.0
H1204 H 0.01376 0.68656 0.58982 0.0
H1205 H 0.97798 0.80878 0.60263 0.0
H1206 H 0.94692 0.7674 0.59105 0.0
H1207 H 0.99448 0.80995 0.58526 0.0
C1208 C 0.90655 0.66216 0.56887 0.0
C1209 C 0.91155 0.68707 0.55751 0.0
C1210 C 0.93532 0.67681 0.5795 0.0
C1211 C 0.96934 0.71655 0.57888 0.0
C1212 C 0.97536 0.74061 0.56717 0.0
H1213 H 0.16042 0.79981 0.64247 0.0
H1214 H 0.12741 0.78703 0.61992 0.0
C1215 C 0.94645 0.72607 0.5566 0.0
C1216 C 0.99721 0.7334 0.59082 0.0
H1217 H 0.02984 0.80708 0.61562 0.0
C1218 C 0.01758 0.71308 0.59542 0.0
C1219 C 0.00165 0.76775 0.59817 0.0
C1220 C 0.97886 0.78959 0.59413 0.0
C1221 C 0.04182 0.72577 0.60732 0.0
C1222 C 0.04642 0.76024 0.61463 0.0
C1223 C 0.02662 0.78098 0.60989 0.0
C1224 C 0.06823 0.77273 0.62796 0.0
C1225 C 0.06077 0.70106 0.6123 0.0
C1226 C 0.04647 0.77105 0.63984 0.0
C1227 C 0.06527 0.77879 0.65268 0.0
C1228 C 0.10627 0.78829 0.65391 0.0
C1229 C 0.1287 0.7922 0.6419 0.0
C1230 C 0.10983 0.78461 0.62902 0.0
H1231 H 0.04718 0.67075 0.60716 0.0
H1232 H 0.09405 0.71798 0.61003 0.0
H1233 H 0.05688 0.69614 0.62357 0.0
H1234 H 0.0144 0.76221 0.63923 0.0
H1235 H 0.0471 0.77572 0.66168 0.0
H1236 H 0.19903 0.86183 0.74391 0.0
H1237 H 0.22707 0.91663 0.76108 0.0
H1238 H 0.29316 0.00515 0.72932 0.0
H1239 H 0.26462 0.9501 0.712 0.0
H1240 H 0.33472 0.004 0.75857 0.0
H1241 H 0.19089 0.01113 0.759 0.0
H1242 H 0.18571 0.96102 0.75863 0.0
H1243 H 0.20749 0.99451 0.74416 0.0
C1244 C 0.21987 0.89295 0.74065 0.0
C1245 C 0.22942 0.9021 0.72671 0.0
C1246 C 0.2358 0.92409 0.75041 0.0
C1247 C 0.26167 0.96476 0.74637 0.0
C1248 C 0.27304 0.97383 0.73255 0.0
H1249 H 0.37388 0.16382 0.80712 0.0
H1250 H 0.35593 0.12998 0.7847 0.0
C1251 C 0.25694 0.94254 0.72273 0.0
C1252 C 0.27498 0.99752 0.75669 0.0
H1253 H 0.23754 0.04419 0.77732 0.0
C1254 C 0.31397 0.0136 0.76253 0.0
C1255 C 0.24753 0.00956 0.76176 0.0
C1256 C 0.20558 0.99347 0.75555 0.0
C1257 C 0.32548 0.03991 0.7739 0.0
C1258 C 0.29734 0.05067 0.77935 0.0
C1259 C 0.25902 0.03594 0.77308 0.0
C1260 C 0.30543 0.07341 0.7924 0.0
C1261 C 0.36663 0.054 0.78051 0.0
C1262 C 0.28172 0.05343 0.80398 0.0
C1263 C 0.29169 0.07262 0.81677 0.0
C1264 C 0.32557 0.11227 0.8182 0.0
C1265 C 0.34778 0.13316 0.8064 0.0
C1266 C 0.33776 0.11383 0.79359 0.0
H1267 H 0.38187 0.03755 0.77639 0.0
H1268 H 0.38689 0.0872 0.77855 0.0
H1269 H 0.36331 0.04938 0.7918 0.0
H1270 H 0.25647 0.02227 0.80323 0.0
H1271 H 0.27375 0.05573 0.82561 0.0
H1272 H 0.72066 0.77882 0.83809 0.0
H1273 H 0.73714 0.76443 0.8609 0.0
H1274 H 0.63466 0.77015 0.87794 0.0
H1275 H 0.61756 0.78435 0.85507 0.0
H1276 H 0.7531 0.80841 0.88644 0.0
H1277 H 0.61333 0.65368 0.88797 0.0
H1278 H 0.63177 0.68248 0.87222 0.0
H1279 H 0.60655 0.69691 0.88478 0.0
C1280 C 0.70181 0.77749 0.84668 0.0
C1281 C 0.6675 0.78227 0.84472 0.0
C1282 C 0.71132 0.7693 0.85971 0.0
C1283 C 0.6867 0.76558 0.87102 0.0
C1284 C 0.65361 0.77228 0.86927 0.0
H1285 H 0.72167 0.67703 0.95129 0.0
H1286 H 0.69224 0.7021 0.93378 0.0
C1287 C 0.64407 0.78062 0.85621 0.0
C1288 C 0.6951 0.75282 0.88441 0.0
H1289 H 0.66143 0.67005 0.90565 0.0
C1290 C 0.73278 0.77845 0.89078 0.0
C1291 C 0.66837 0.71375 0.89005 0.0
C1292 C 0.62779 0.68485 0.88342 0.0
C1293 C 0.74525 0.76534 0.90233 0.0
C1294 C 0.71963 0.72539 0.90747 0.0
C1295 C 0.68093 0.70061 0.90161 0.0
C1296 C 0.73465 0.70751 0.91785 0.0
C1297 C 0.78636 0.79384 0.90871 0.0
C1298 C 0.76697 0.70088 0.91446 0.0
C1299 C 0.7834 0.68644 0.92431 0.0
C1300 C 0.76782 0.67844 0.93773 0.0
C1301 C 0.73411 0.68309 0.94098 0.0
C1302 C 0.71751 0.69754 0.93106 0.0
H1303 H 0.79688 0.82633 0.90617 0.0
H1304 H 0.7852 0.79033 0.92005 0.0
H1305 H 0.80935 0.78635 0.90468 0.0
H1306 H 0.77996 0.70759 0.90422 0.0
H1307 H 0.80893 0.68235 0.92153 0.0
H1308 H 0.92835 0.74584 0.00636 0.0
H1309 H 0.9628 0.76278 0.02865 0.0
H1310 H 0.88121 0.63983 0.04282 0.0
H1311 H 0.84558 0.62307 0.02075 0.0
H1312 H 0.90071 0.695 0.06336 0.0
H1313 H 0.04099 0.72133 0.03629 0.0
H1314 H 0.02282 0.7543 0.03024 0.0
H1315 H 0.99198 0.6998 0.02785 0.0
C1316 C 0.91719 0.72267 0.01433 0.0
C1317 C 0.8847 0.68294 0.01174 0.0
C1318 C 0.93707 0.7323 0.02701 0.0
C1319 C 0.92542 0.70213 0.0372 0.0
C1320 C 0.89097 0.66342 0.03503 0.0
H1321 H 0.1047 0.72823 0.09854 0.0
H1322 H 0.05178 0.69977 0.08071 0.0
C1323 C 0.8706 0.65393 0.02242 0.0
C1324 C 0.95098 0.70997 0.04961 0.0
H1325 H 0.04855 0.74027 0.0598 0.0
C1326 C 0.933 0.7047 0.06262 0.0
C1327 C 0.9928 0.72138 0.04862 0.0
C1328 C 0.0132 0.7241 0.03501 0.0
C1329 C 0.95612 0.7119 0.07467 0.0
C1330 C -0.00147 0.7258 0.07363 0.0
C1331 C 0.01612 0.72988 0.06062 0.0
C1332 C 0.02595 0.7381 0.08577 0.0
C1333 C 0.93468 0.70401 0.08835 0.0
C1334 C 0.02854 0.76849 0.0947 0.0
C1335 C 0.05801 0.78391 0.10506 0.0
C1336 C 0.08597 0.76989 0.10651 0.0
C1337 C 0.08291 0.73889 0.0978 0.0
C1338 C 0.05296 0.72294 0.08756 0.0
H1339 H 0.90179 0.6804 0.08744 0.0
H1340 H 0.94909 0.6938 0.09617 0.0
H1341 H 0.93631 0.73264 0.092 0.0
H1342 H 0.00898 0.7816 0.0933 0.0
H1343 H 0.05996 0.80795 0.11165 0.0
H1344 H 0.22272 0.85001 0.18852 0.0
H1345 H 0.23892 0.886 0.21042 0.0
H1346 H 0.19982 0.96762 0.19437 0.0
H1347 H 0.18553 0.93295 0.17216 0.0
H1348 H 0.27212 0.00946 0.20472 0.0
H1349 H 0.17722 0.89052 0.24269 0.0
H1350 H 0.2078 0.87577 0.23282 0.0
H1351 H 0.16884 0.88234 0.22444 0.0
C1352 C 0.21662 0.875 0.18975 0.0
C1353 C 0.20309 0.88885 0.17861 0.0
C1354 C 0.22567 0.89542 0.20234 0.0
C1355 C 0.22024 0.92932 0.20412 0.0
C1356 C 0.20432 0.94158 0.19323 0.0
H1357 H 0.25361 0.06484 0.27914 0.0
H1358 H 0.22715 0.01512 0.26038 0.0
C1359 C 0.19608 0.92172 0.18056 0.0
C1360 C 0.23567 0.95492 0.21666 0.0
H1361 H 0.23407 0.952 0.25171 0.0
C1362 C 0.26342 0.99688 0.21499 0.0
C1363 C 0.22426 0.93863 0.23007 0.0
C1364 C 0.19256 0.89443 0.23261 0.0
C1365 C 0.28019 0.023 0.22629 0.0
C1366 C 0.27033 0.0064 0.2397 0.0
C1367 C 0.24226 0.96451 0.24142 0.0
C1368 C 0.28691 0.03267 0.25203 0.0
C1369 C 0.30735 0.06829 0.22369 0.0
C1370 C 0.32934 0.0579 0.2539 0.0
C1371 C 0.34442 0.08691 0.26444 0.0
C1372 C 0.31728 0.09026 0.27346 0.0
C1373 C 0.27506 0.06294 0.27221 0.0
C1374 C 0.25997 0.03447 0.26155 0.0
H1375 H 0.30233 0.07707 0.21328 0.0
H1376 H 0.30185 0.08674 0.23137 0.0
H1377 H 0.33989 0.07631 0.22438 0.0
H1378 H 0.35072 0.05627 0.24688 0.0
H1379 H 0.37708 0.10792 0.26513 0.0
H1380 H 0.27093 0.38359 0.43172 0.0
H1381 H 0.29863 0.36004 0.41337 0.0
H1382 H 0.22188 0.23521 0.42681 0.0
H1383 H 0.19643 0.25901 0.44569 0.0
H1384 H 0.29307 0.24615 0.41812 0.0
H1385 H 0.23117 0.30966 0.37972 0.0
H1386 H 0.2685 0.34814 0.39082 0.0
H1387 H 0.22077 0.30858 0.39781 0.0
C1388 C 0.26112 0.35133 0.431 0.0
C1389 C 0.23167 0.32304 0.44007 0.0
C1390 C 0.27637 0.33781 0.4204 0.0
C1391 C 0.26144 0.29575 0.41849 0.0
C1392 C 0.23365 0.26776 0.42802 0.0
H1393 H 0.26148 0.19449 0.33895 0.0
H1394 H 0.24179 0.20966 0.36113 0.0
C1395 C 0.21902 0.28133 0.43875 0.0
C1396 C 0.27249 0.28045 0.40614 0.0
H1397 H 0.27077 0.28197 0.37114 0.0
C1398 C 0.28814 0.25388 0.40784 0.0
C1399 C 0.26505 0.28974 0.39272 0.0
C1400 C 0.24505 0.31522 0.39013 0.0
C1401 C 0.29689 0.2366 0.39649 0.0
C1402 C 0.29109 0.24732 0.38308 0.0
C1403 C 0.27533 0.2738 0.38141 0.0
C1404 C 0.30133 0.23203 0.37052 0.0
C1405 C 0.31111 0.20622 0.39903 0.0
C1406 C 0.34095 0.23835 0.36855 0.0
C1407 C 0.35192 0.22871 0.35599 0.0
C1408 C 0.3238 0.21374 0.34506 0.0
C1409 C 0.28378 0.20612 0.34719 0.0
C1410 C 0.27257 0.21489 0.35984 0.0
H1411 H 0.3006 0.1911 0.40919 0.0
H1412 H 0.29981 0.18223 0.39096 0.0
H1413 H 0.34508 0.22256 0.39903 0.0
H1414 H 0.36404 0.25255 0.37646 0.0
H1415 H 0.38314 0.23534 0.35458 0.0
H1416 H 0.94835 0.26834 0.61812 0.0
H1417 H 0.00112 0.29825 0.60008 0.0
H1418 H 0.91008 0.22693 0.56955 0.0
H1419 H 0.85768 0.19762 0.58744 0.0
H1420 H 0.02321 0.25283 0.58223 0.0
H1421 H 0.96859 0.3422 0.55301 0.0
H1422 H 0.9524 0.325 0.5704 0.0
H1423 H 0.92858 0.29065 0.55618 0.0
C1424 C 0.93976 0.25983 0.6075 0.0
C1425 C 0.8993 0.23079 0.60406 0.0
C1426 C 0.96977 0.27667 0.59726 0.0
C1427 C 0.95935 0.26505 0.58349 0.0
C1428 C 0.91861 0.23683 0.58008 0.0
H1429 H 0.05098 0.26782 0.50466 0.0
H1430 H 0.01609 0.25293 0.52677 0.0
C1431 C 0.8888 0.21998 0.59027 0.0
C1432 C 0.991 0.28003 0.57266 0.0
H1433 H 0.01236 0.32354 0.54083 0.0
C1434 C 0.02149 0.26907 0.57329 0.0
C1435 C 0.98864 0.30128 0.56105 0.0
C1436 C 0.95803 0.31585 0.56016 0.0
C1437 C 0.04816 0.27668 0.56219 0.0
C1438 C 0.04406 0.2957 0.5503 0.0
C1439 C 0.01497 0.30848 0.54995 0.0
C1440 C 0.06784 0.30069 0.53771 0.0
C1441 C 0.07919 0.26268 0.56291 0.0
C1442 C 0.1089 0.33167 0.53672 0.0
C1443 C 0.12907 0.34037 0.52406 0.0
C1444 C 0.10825 0.31832 0.51222 0.0
C1445 C 0.06789 0.28557 0.51352 0.0
C1446 C 0.04784 0.277 0.52615 0.0
H1447 H 0.07671 0.24592 0.57258 0.0
H1448 H 0.07511 0.24246 0.55406 0.0
H1449 H 0.11051 0.28962 0.56224 0.0
H1450 H 0.12467 0.35038 0.54556 0.0
H1451 H 0.16017 0.36576 0.52343 0.0
H1452 H 0.80567 0.06788 0.67168 0.0
H1453 H 0.78966 0.03223 0.69374 0.0
H1454 H 0.74768 0.11187 0.70932 0.0
H1455 H 0.76521 0.14879 0.68746 0.0
H1456 H 0.78498 0.09242 0.72919 0.0
H1457 H 0.67134 0.95207 0.70205 0.0
H1458 H 0.72228 0.97127 0.69565 0.0
H1459 H 0.69761 0.00135 0.69375 0.0
C1460 C 0.79378 0.0783 0.6799 0.0
C1461 C 0.78611 0.11071 0.67779 0.0
C1462 C 0.78438 0.05774 0.69246 0.0
C1463 C 0.76618 0.06853 0.70299 0.0
C1464 C 0.76129 0.10277 0.70127 0.0
H1465 H 0.61682 0.88756 0.76426 0.0
H1466 H 0.64089 0.94015 0.74636 0.0
C1467 C 0.77139 0.12387 0.68878 0.0
C1468 C 0.74962 0.0424 0.71535 0.0
H1469 H 0.68438 0.94412 0.72537 0.0
C1470 C 0.76283 0.06002 0.72839 0.0
C1471 C 0.71982 0.00039 0.7143 0.0
C1472 C 0.70158 0.98024 0.7007 0.0
C1473 C 0.7479 0.03644 0.7404 0.0
C1474 C 0.7199 0.99392 0.73928 0.0
C1475 C 0.70605 0.97663 0.72624 0.0
C1476 C 0.70518 0.96623 0.75135 0.0
C1477 C 0.76177 0.05752 0.75412 0.0
C1478 C 0.73317 0.96378 0.76026 0.0
C1479 C 0.71933 0.93448 0.77069 0.0
C1480 C 0.67734 0.90657 0.77223 0.0
C1481 C 0.64927 0.90934 0.76348 0.0
C1482 C 0.66306 0.9391 0.75318 0.0
H1483 H 0.77088 0.09039 0.75337 0.0
H1484 H 0.73738 0.04279 0.762 0.0
H1485 H 0.78894 0.05593 0.75761 0.0
H1486 H 0.76582 0.98344 0.75883 0.0
H1487 H 0.74154 0.93277 0.7773 0.0
loop_
_geom_bond_atom_site_label_1
_geom_bond_atom_site_label_2
_geom_bond_distance
_geom_bond_site_symmetry_2
_ccdc_geom_bond_type
Co0 O3 1.970 . S
Co0 N17 1.989 . S
Co0 O25 1.967 . S
Co0 O32 1.920 . S
Co1 O4 1.966 . S
Co1 N10 2.022 . S
Co1 N18 1.993 . S
Co1 O26 1.941 . S
C2 O3 1.258 . S
C2 O4 1.263 . S
O3 Co0 1.970 . S
O3 C2 1.258 . S
O4 Co1 1.966 . S
O4 C2 1.263 . S
C5 O6 1.235 . S
C5 O32 1.289 . S
O6 C5 1.235 . S
C7 C9 1.400 . S
C7 N10 1.351 . S
C7 C12 1.501 1_554 S
C8 C9 1.387 . S
C8 N11 1.341 . S
C9 C7 1.400 . S
C9 C8 1.387 . S
N10 Co1 2.022 . S
N10 C7 1.351 . S
N10 N11 1.365 . S
N11 C8 1.341 . S
N11 N10 1.365 . S
N11 H31 0.862 . S
C12 C7 1.501 1_556 S
C12 H13 0.961 . S
C12 H14 0.961 . S
C12 H15 0.960 . S
H13 C12 0.961 . S
H14 C12 0.961 . S
H15 C12 0.960 . S
C16 N17 1.342 . S
C16 C20 1.401 . S
C16 C21 1.499 . S
N17 Co0 1.989 . S
N17 C16 1.342 . S
N17 N18 1.388 . S
N18 Co1 1.993 . S
N18 N17 1.388 . S
N18 C19 1.346 . S
C19 N18 1.346 . S
C19 C20 1.396 . S
C19 C29 1.510 . S
C20 C16 1.401 . S
C20 C19 1.396 . S
C21 C16 1.499 . S
C21 H22 0.959 . S
C21 H23 0.960 . S
C21 H24 0.961 . S
H22 C21 0.959 . S
H23 C21 0.960 . S
H24 C21 0.961 . S
O25 Co0 1.967 . S
O25 C33 1.258 . S
O26 Co1 1.941 . S
O26 C33 1.266 . S
H27 C29 0.959 . S
H28 C29 0.961 . S
C29 C19 1.510 . S
C29 H27 0.959 . S
C29 H28 0.961 . S
C29 H30 0.960 . S
H30 C29 0.960 . S
H31 N11 0.862 . S
O32 Co0 1.920 . S
O32 C5 1.289 . S
C33 O25 1.258 . S
C33 O26 1.266 . S
Co34 O37 1.970 . S
Co34 N51 1.989 . S
Co34 O59 1.967 . S
Co34 O66 1.920 . S
Co35 O38 1.966 . S
Co35 N44 2.022 . S
Co35 N52 1.993 . S
Co35 O60 1.941 . S
C36 O37 1.258 . S
C36 O38 1.263 . S
O37 Co34 1.970 . S
O37 C36 1.258 . S
O38 Co35 1.966 . S
O38 C36 1.263 . S
C39 O40 1.235 . S
C39 O66 1.289 . S
O40 C39 1.235 . S
C41 C43 1.400 . S
C41 N44 1.351 . S
C41 C46 1.501 . S
C42 C43 1.387 . S
C42 N45 1.341 . S
C43 C41 1.400 . S
C43 C42 1.387 . S
N44 Co35 2.022 . S
N44 C41 1.351 . S
N44 N45 1.365 . S
N45 C42 1.341 . S
N45 N44 1.365 . S
N45 H65 0.862 . S
C46 C41 1.501 . S
C46 H47 0.961 . S
C46 H48 0.961 . S
C46 H49 0.960 . S
H47 C46 0.961 . S
H48 C46 0.961 . S
H49 C46 0.960 . S
C50 N51 1.342 . S
C50 C54 1.401 . S
C50 C55 1.499 . S
N51 Co34 1.989 . S
N51 C50 1.342 . S
N51 N52 1.388 . S
N52 Co35 1.993 . S
N52 N51 1.388 . S
N52 C53 1.346 . S
C53 N52 1.346 . S
C53 C54 1.396 . S
C53 C63 1.510 . S
C54 C50 1.401 . S
C54 C53 1.396 . S
C55 C50 1.499 . S
C55 H56 0.959 . S
C55 H57 0.960 . S
C55 H58 0.961 . S
H56 C55 0.959 . S
H57 C55 0.960 . S
H58 C55 0.961 . S
O59 Co34 1.967 . S
O59 C67 1.258 . S
O60 Co35 1.941 . S
O60 C67 1.266 . S
H61 C63 0.959 . S
H62 C63 0.961 . S
C63 C53 1.510 . S
C63 H61 0.959 . S
C63 H62 0.961 . S
C63 H64 0.960 . S
H64 C63 0.960 . S
H65 N45 0.862 . S
O66 Co34 1.920 . S
O66 C39 1.289 . S
C67 O59 1.258 . S
C67 O60 1.266 . S
Co68 O71 1.970 . S
Co68 N85 1.989 . S
Co68 O93 1.967 . S
Co68 O100 1.920 . S
Co69 O72 1.966 . S
Co69 N78 2.022 . S
Co69 N86 1.993 . S
Co69 O94 1.941 . S
C70 O71 1.258 . S
C70 O72 1.263 . S
O71 Co68 1.970 . S
O71 C70 1.258 . S
O72 Co69 1.966 . S
O72 C70 1.263 . S
C73 O74 1.235 . S
C73 O100 1.289 . S
O74 C73 1.235 . S
C75 C77 1.400 . S
C75 N78 1.351 . S
C75 C80 1.501 . S
C76 C77 1.387 . S
C76 N79 1.341 . S
C77 C75 1.400 . S
C77 C76 1.387 . S
N78 Co69 2.022 . S
N78 C75 1.351 . S
N78 N79 1.365 . S
N79 C76 1.341 . S
N79 N78 1.365 . S
N79 H99 0.862 . S
C80 C75 1.501 . S
C80 H81 0.961 . S
C80 H82 0.961 . S
C80 H83 0.960 . S
H81 C80 0.961 . S
H82 C80 0.961 . S
H83 C80 0.960 . S
C84 N85 1.342 . S
C84 C88 1.401 . S
C84 C89 1.499 . S
N85 Co68 1.989 . S
N85 C84 1.342 . S
N85 N86 1.388 . S
N86 Co69 1.993 . S
N86 N85 1.388 . S
N86 C87 1.346 . S
C87 N86 1.346 . S
C87 C88 1.396 . S
C87 C97 1.510 . S
C88 C84 1.401 . S
C88 C87 1.396 . S
C89 C84 1.499 . S
C89 H90 0.959 . S
C89 H91 0.960 . S
C89 H92 0.961 . S
H90 C89 0.959 . S
H91 C89 0.960 . S
H92 C89 0.961 . S
O93 Co68 1.967 . S
O93 C101 1.258 . S
O94 Co69 1.941 . S
O94 C101 1.266 . S
H95 C97 0.959 . S
H96 C97 0.961 . S
C97 C87 1.510 . S
C97 H95 0.959 . S
C97 H96 0.961 . S
C97 H98 0.960 . S
H98 C97 0.960 . S
H99 N79 0.862 . S
O100 Co68 1.920 . S
O100 C73 1.289 . S
C101 O93 1.258 . S
C101 O94 1.266 . S
Co102 O105 1.970 . S
Co102 N119 1.989 . S
Co102 O127 1.967 . S
Co102 O134 1.920 . S
Co103 O106 1.966 . S
Co103 N112 2.022 . S
Co103 N120 1.993 . S
Co103 O128 1.941 . S
C104 O105 1.258 . S
C104 O106 1.263 . S
O105 Co102 1.970 . S
O105 C104 1.258 . S
O106 Co103 1.966 . S
O106 C104 1.263 . S
C107 O108 1.235 . S
C107 O134 1.289 . S
O108 C107 1.235 . S
C109 C111 1.400 . S
C109 N112 1.351 . S
C109 C114 1.501 . S
C110 C111 1.387 . S
C110 N113 1.341 . S
C111 C109 1.400 . S
C111 C110 1.387 . S
N112 Co103 2.022 . S
N112 C109 1.351 . S
N112 N113 1.365 . S
N113 C110 1.341 . S
N113 N112 1.365 . S
N113 H133 0.862 . S
C114 C109 1.501 . S
C114 H115 0.961 . S
C114 H116 0.961 . S
C114 H117 0.960 . S
H115 C114 0.961 . S
H116 C114 0.961 . S
H117 C114 0.960 . S
C118 N119 1.342 . S
C118 C122 1.401 . S
C118 C123 1.499 . S
N119 Co102 1.989 . S
N119 C118 1.342 . S
N119 N120 1.388 . S
N120 Co103 1.993 . S
N120 N119 1.388 . S
N120 C121 1.346 . S
C121 N120 1.346 . S
C121 C122 1.396 . S
C121 C131 1.510 . S
C122 C118 1.401 . S
C122 C121 1.396 . S
C123 C118 1.499 . S
C123 H124 0.959 . S
C123 H125 0.960 . S
C123 H126 0.961 . S
H124 C123 0.959 . S
H125 C123 0.960 . S
H126 C123 0.961 . S
O127 Co102 1.967 . S
O127 C135 1.258 . S
O128 Co103 1.941 . S
O128 C135 1.266 . S
H129 C131 0.959 . S
H130 C131 0.961 . S
C131 C121 1.510 . S
C131 H129 0.959 . S
C131 H130 0.961 . S
C131 H132 0.960 . S
H132 C131 0.960 . S
H133 N113 0.862 . S
O134 Co102 1.920 . S
O134 C107 1.289 . S
C135 O127 1.258 . S
C135 O128 1.266 . S
Co136 O139 1.970 . S
Co136 N153 1.989 . S
Co136 O161 1.967 . S
Co136 O168 1.920 . S
Co137 O140 1.966 . S
Co137 N146 2.022 . S
Co137 N154 1.993 . S
Co137 O162 1.941 . S
C138 O139 1.258 . S
C138 O140 1.263 . S
O139 Co136 1.970 . S
O139 C138 1.258 . S
O140 Co137 1.966 . S
O140 C138 1.263 . S
C141 O142 1.235 . S
C141 O168 1.289 . S
O142 C141 1.235 . S
C143 C145 1.400 . S
C143 N146 1.351 . S
C143 C148 1.501 . S
C144 C145 1.387 . S
C144 N147 1.341 . S
C145 C143 1.400 . S
C145 C144 1.387 . S
N146 Co137 2.022 . S
N146 C143 1.351 . S
N146 N147 1.365 . S
N147 C144 1.341 . S
N147 N146 1.365 . S
N147 H167 0.862 . S
C148 C143 1.501 . S
C148 H149 0.961 . S
C148 H150 0.961 . S
C148 H151 0.960 . S
H149 C148 0.961 . S
H150 C148 0.961 . S
H151 C148 0.960 . S
C152 N153 1.342 . S
C152 C156 1.401 . S
C152 C157 1.499 . S
N153 Co136 1.989 . S
N153 C152 1.342 . S
N153 N154 1.388 . S
N154 Co137 1.993 . S
N154 N153 1.388 . S
N154 C155 1.346 . S
C155 N154 1.346 . S
C155 C156 1.396 . S
C155 C165 1.510 . S
C156 C152 1.401 . S
C156 C155 1.396 . S
C157 C152 1.499 . S
C157 H158 0.959 . S
C157 H159 0.960 . S
C157 H160 0.961 . S
H158 C157 0.959 . S
H159 C157 0.960 . S
H160 C157 0.961 . S
O161 Co136 1.967 . S
O161 C169 1.258 . S
O162 Co137 1.941 . S
O162 C169 1.266 . S
H163 C165 0.959 . S
H164 C165 0.961 . S
C165 C155 1.510 . S
C165 H163 0.959 . S
C165 H164 0.961 . S
C165 H166 0.960 . S
H166 C165 0.960 . S
H167 N147 0.862 . S
O168 Co136 1.920 . S
O168 C141 1.289 . S
C169 O161 1.258 . S
C169 O162 1.266 . S
Co170 O173 1.970 . S
Co170 N187 1.989 . S
Co170 O195 1.967 . S
Co170 O202 1.920 . S
Co171 O174 1.966 . S
Co171 N180 2.022 . S
Co171 N188 1.993 . S
Co171 O196 1.941 . S
C172 O173 1.258 . S
C172 O174 1.263 . S
O173 Co170 1.970 . S
O173 C172 1.258 . S
O174 Co171 1.966 . S
O174 C172 1.263 . S
C175 O176 1.235 . S
C175 O202 1.289 . S
O176 C175 1.235 . S
C177 C179 1.400 . S
C177 N180 1.351 . S
C177 C182 1.501 . S
C178 C179 1.387 . S
C178 N181 1.341 . S
C179 C177 1.400 . S
C179 C178 1.387 . S
N180 Co171 2.022 . S
N180 C177 1.351 . S
N180 N181 1.365 . S
N181 C178 1.341 . S
N181 N180 1.365 . S
N181 H201 0.862 . S
C182 C177 1.501 . S
C182 H183 0.961 . S
C182 H184 0.961 . S
C182 H185 0.960 . S
H183 C182 0.961 . S
H184 C182 0.961 . S
H185 C182 0.960 . S
C186 N187 1.342 . S
C186 C190 1.401 . S
C186 C191 1.499 . S
N187 Co170 1.989 . S
N187 C186 1.342 . S
N187 N188 1.388 . S
N188 Co171 1.993 . S
N188 N187 1.388 . S
N188 C189 1.346 . S
C189 N188 1.346 . S
C189 C190 1.396 . S
C189 C199 1.510 . S
C190 C186 1.401 . S
C190 C189 1.396 . S
C191 C186 1.499 . S
C191 H192 0.959 . S
C191 H193 0.960 . S
C191 H194 0.961 . S
H192 C191 0.959 . S
H193 C191 0.960 . S
H194 C191 0.961 . S
O195 Co170 1.967 . S
O195 C203 1.258 . S
O196 Co171 1.941 . S
O196 C203 1.266 . S
H197 C199 0.959 . S
H198 C199 0.961 . S
C199 C189 1.510 . S
C199 H197 0.959 . S
C199 H198 0.961 . S
C199 H200 0.960 . S
H200 C199 0.960 . S
H201 N181 0.862 . S
O202 Co170 1.920 . S
O202 C175 1.289 . S
C203 O195 1.258 . S
C203 O196 1.266 . S
Co204 O207 1.970 . S
Co204 N221 1.989 . S
Co204 O229 1.967 . S
Co204 O236 1.920 . S
Co205 O208 1.966 . S
Co205 N214 2.022 . S
Co205 N222 1.993 . S
Co205 O230 1.941 . S
C206 O207 1.258 . S
C206 O208 1.263 . S
O207 Co204 1.970 . S
O207 C206 1.258 . S
O208 Co205 1.966 . S
O208 C206 1.263 . S
C209 O210 1.235 . S
C209 O236 1.289 . S
O210 C209 1.235 . S
C211 C213 1.400 . S
C211 N214 1.351 . S
C211 C216 1.501 . S
C212 C213 1.387 . S
C212 N215 1.341 . S
C213 C211 1.400 . S
C213 C212 1.387 . S
N214 Co205 2.022 . S
N214 C211 1.351 . S
N214 N215 1.365 . S
N215 C212 1.341 . S
N215 N214 1.365 . S
N215 H235 0.862 . S
C216 C211 1.501 . S
C216 H217 0.961 . S
C216 H218 0.961 . S
C216 H219 0.960 . S
H217 C216 0.961 . S
H218 C216 0.961 . S
H219 C216 0.960 . S
C220 N221 1.342 . S
C220 C224 1.401 . S
C220 C225 1.499 . S
N221 Co204 1.989 . S
N221 C220 1.342 . S
N221 N222 1.388 . S
N222 Co205 1.993 . S
N222 N221 1.388 . S
N222 C223 1.346 . S
C223 N222 1.346 . S
C223 C224 1.396 . S
C223 C233 1.510 . S
C224 C220 1.401 . S
C224 C223 1.396 . S
C225 C220 1.499 . S
C225 H226 0.959 . S
C225 H227 0.960 . S
C225 H228 0.961 . S
H226 C225 0.959 . S
H227 C225 0.960 . S
H228 C225 0.961 . S
O229 Co204 1.967 . S
O229 C237 1.258 . S
O230 Co205 1.941 . S
O230 C237 1.266 . S
H231 C233 0.959 . S
H232 C233 0.961 . S
C233 C223 1.510 . S
C233 H231 0.959 . S
C233 H232 0.961 . S
C233 H234 0.960 . S
H234 C233 0.960 . S
H235 N215 0.862 . S
O236 Co204 1.920 . S
O236 C209 1.289 . S
C237 O229 1.258 . S
C237 O230 1.266 . S
Co238 O241 1.970 . S
Co238 N255 1.989 . S
Co238 O263 1.967 . S
Co238 O270 1.920 . S
Co239 O242 1.966 . S
Co239 N248 2.022 . S
Co239 N256 1.993 . S
Co239 O264 1.941 . S
C240 O241 1.258 . S
C240 O242 1.263 . S
O241 Co238 1.970 . S
O241 C240 1.258 . S
O242 Co239 1.966 . S
O242 C240 1.263 . S
C243 O244 1.235 . S
C243 O270 1.289 . S
O244 C243 1.235 . S
C245 C247 1.400 . S
C245 N248 1.351 . S
C245 C250 1.501 1_556 S
C246 C247 1.387 . S
C246 N249 1.341 . S
C247 C245 1.400 . S
C247 C246 1.387 . S
N248 Co239 2.022 . S
N248 C245 1.351 . S
N248 N249 1.365 . S
N249 C246 1.341 . S
N249 N248 1.365 . S
N249 H269 0.862 . S
C250 C245 1.501 1_554 S
C250 H251 0.961 . S
C250 H252 0.961 . S
C250 H253 0.960 . S
H251 C250 0.961 . S
H252 C250 0.961 . S
H253 C250 0.960 . S
C254 N255 1.342 . S
C254 C258 1.401 . S
C254 C259 1.499 . S
N255 Co238 1.989 . S
N255 C254 1.342 . S
N255 N256 1.388 . S
N256 Co239 1.993 . S
N256 N255 1.388 . S
N256 C257 1.346 . S
C257 N256 1.346 . S
C257 C258 1.396 . S
C257 C267 1.510 . S
C258 C254 1.401 . S
C258 C257 1.396 . S
C259 C254 1.499 . S
C259 H260 0.959 . S
C259 H261 0.960 . S
C259 H262 0.961 . S
H260 C259 0.959 . S
H261 C259 0.960 . S
H262 C259 0.961 . S
O263 Co238 1.967 . S
O263 C271 1.258 . S
O264 Co239 1.941 . S
O264 C271 1.266 . S
H265 C267 0.959 . S
H266 C267 0.961 . S
C267 C257 1.510 . S
C267 H265 0.959 . S
C267 H266 0.961 . S
C267 H268 0.960 . S
H268 C267 0.960 . S
H269 N249 0.862 . S
O270 Co238 1.920 . S
O270 C243 1.289 . S
C271 O263 1.258 . S
C271 O264 1.266 . S
Co272 O275 1.970 . S
Co272 N289 1.989 . S
Co272 O297 1.967 . S
Co272 O304 1.920 . S
Co273 O276 1.966 . S
Co273 N282 2.022 . S
Co273 N290 1.993 . S
Co273 O298 1.941 . S
C274 O275 1.258 . S
C274 O276 1.263 . S
O275 Co272 1.970 . S
O275 C274 1.258 . S
O276 Co273 1.966 . S
O276 C274 1.263 . S
C277 O278 1.235 . S
C277 O304 1.289 . S
O278 C277 1.235 . S
C279 C281 1.400 . S
C279 N282 1.351 . S
C279 C284 1.501 . S
C280 C281 1.387 . S
C280 N283 1.341 . S
C281 C279 1.400 . S
C281 C280 1.387 . S
N282 Co273 2.022 . S
N282 C279 1.351 . S
N282 N283 1.365 . S
N283 C280 1.341 . S
N283 N282 1.365 . S
N283 H303 0.862 . S
C284 C279 1.501 . S
C284 H285 0.961 . S
C284 H286 0.961 . S
C284 H287 0.960 . S
H285 C284 0.961 . S
H286 C284 0.961 . S
H287 C284 0.960 . S
C288 N289 1.342 . S
C288 C292 1.401 . S
C288 C293 1.499 . S
N289 Co272 1.989 . S
N289 C288 1.342 . S
N289 N290 1.388 . S
N290 Co273 1.993 . S
N290 N289 1.388 . S
N290 C291 1.346 . S
C291 N290 1.346 . S
C291 C292 1.396 . S
C291 C301 1.510 . S
C292 C288 1.401 . S
C292 C291 1.396 . S
C293 C288 1.499 . S
C293 H294 0.959 . S
C293 H295 0.960 . S
C293 H296 0.961 . S
H294 C293 0.959 . S
H295 C293 0.960 . S
H296 C293 0.961 . S
O297 Co272 1.967 . S
O297 C305 1.258 . S
O298 Co273 1.941 . S
O298 C305 1.266 . S
H299 C301 0.959 . S
H300 C301 0.961 . S
C301 C291 1.510 . S
C301 H299 0.959 . S
C301 H300 0.961 . S
C301 H302 0.960 . S
H302 C301 0.960 . S
H303 N283 0.862 . S
O304 Co272 1.920 . S
O304 C277 1.289 . S
C305 O297 1.258 . S
C305 O298 1.266 . S
Co306 O309 1.970 . S
Co306 N323 1.989 . S
Co306 O331 1.967 . S
Co306 O338 1.920 . S
Co307 O310 1.966 . S
Co307 N316 2.022 . S
Co307 N324 1.993 . S
Co307 O332 1.941 . S
C308 O309 1.258 . S
C308 O310 1.263 . S
O309 Co306 1.970 . S
O309 C308 1.258 . S
O310 Co307 1.966 . S
O310 C308 1.263 . S
C311 O312 1.235 . S
C311 O338 1.289 . S
O312 C311 1.235 . S
C313 C315 1.400 . S
C313 N316 1.351 . S
C313 C318 1.501 . S
C314 C315 1.387 . S
C314 N317 1.341 . S
C315 C313 1.400 . S
C315 C314 1.387 . S
N316 Co307 2.022 . S
N316 C313 1.351 . S
N316 N317 1.365 . S
N317 C314 1.341 . S
N317 N316 1.365 . S
N317 H337 0.862 . S
C318 C313 1.501 . S
C318 H319 0.961 . S
C318 H320 0.961 . S
C318 H321 0.960 . S
H319 C318 0.961 . S
H320 C318 0.961 . S
H321 C318 0.960 . S
C322 N323 1.342 . S
C322 C326 1.401 . S
C322 C327 1.499 . S
N323 Co306 1.989 . S
N323 C322 1.342 . S
N323 N324 1.388 . S
N324 Co307 1.993 . S
N324 N323 1.388 . S
N324 C325 1.346 . S
C325 N324 1.346 . S
C325 C326 1.396 . S
C325 C335 1.510 . S
C326 C322 1.401 . S
C326 C325 1.396 . S
C327 C322 1.499 . S
C327 H328 0.959 . S
C327 H329 0.960 . S
C327 H330 0.961 . S
H328 C327 0.959 . S
H329 C327 0.960 . S
H330 C327 0.961 . S
O331 Co306 1.967 . S
O331 C339 1.258 . S
O332 Co307 1.941 . S
O332 C339 1.266 . S
H333 C335 0.959 . S
H334 C335 0.961 . S
C335 C325 1.510 . S
C335 H333 0.959 . S
C335 H334 0.961 . S
C335 H336 0.960 . S
H336 C335 0.960 . S
H337 N317 0.862 . S
O338 Co306 1.920 . S
O338 C311 1.289 . S
C339 O331 1.258 . S
C339 O332 1.266 . S
Co340 O343 1.970 . S
Co340 N357 1.989 . S
Co340 O365 1.967 . S
Co340 O372 1.920 . S
Co341 O344 1.966 . S
Co341 N350 2.022 . S
Co341 N358 1.993 . S
Co341 O366 1.941 . S
C342 O343 1.258 . S
C342 O344 1.263 . S
O343 Co340 1.970 . S
O343 C342 1.258 . S
O344 Co341 1.966 . S
O344 C342 1.263 . S
C345 O346 1.235 . S
C345 O372 1.289 . S
O346 C345 1.235 . S
C347 C349 1.400 . S
C347 N350 1.351 . S
C347 C352 1.501 . S
C348 C349 1.387 . S
C348 N351 1.341 . S
C349 C347 1.400 . S
C349 C348 1.387 . S
N350 Co341 2.022 . S
N350 C347 1.351 . S
N350 N351 1.365 . S
N351 C348 1.341 . S
N351 N350 1.365 . S
N351 H371 0.862 . S
C352 C347 1.501 . S
C352 H353 0.961 . S
C352 H354 0.961 . S
C352 H355 0.960 . S
H353 C352 0.961 . S
H354 C352 0.961 . S
H355 C352 0.960 . S
C356 N357 1.342 . S
C356 C360 1.401 . S
C356 C361 1.499 . S
N357 Co340 1.989 . S
N357 C356 1.342 . S
N357 N358 1.388 . S
N358 Co341 1.993 . S
N358 N357 1.388 . S
N358 C359 1.346 . S
C359 N358 1.346 . S
C359 C360 1.396 . S
C359 C369 1.510 . S
C360 C356 1.401 . S
C360 C359 1.396 . S
C361 C356 1.499 . S
C361 H362 0.959 . S
C361 H363 0.960 . S
C361 H364 0.961 . S
H362 C361 0.959 . S
H363 C361 0.960 . S
H364 C361 0.961 . S
O365 Co340 1.967 . S
O365 C373 1.258 . S
O366 Co341 1.941 . S
O366 C373 1.266 . S
H367 C369 0.959 . S
H368 C369 0.961 . S
C369 C359 1.510 . S
C369 H367 0.959 . S
C369 H368 0.961 . S
C369 H370 0.960 . S
H370 C369 0.960 . S
H371 N351 0.862 . S
O372 Co340 1.920 . S
O372 C345 1.289 . S
C373 O365 1.258 . S
C373 O366 1.266 . S
Co374 O377 1.970 . S
Co374 N391 1.989 . S
Co374 O399 1.967 . S
Co374 O406 1.920 . S
Co375 O378 1.966 . S
Co375 N384 2.022 . S
Co375 N392 1.993 . S
Co375 O400 1.941 . S
C376 O377 1.258 . S
C376 O378 1.263 . S
O377 Co374 1.970 . S
O377 C376 1.258 . S
O378 Co375 1.966 . S
O378 C376 1.263 . S
C379 O380 1.235 . S
C379 O406 1.289 . S
O380 C379 1.235 . S
C381 C383 1.400 . S
C381 N384 1.351 . S
C381 C386 1.501 . S
C382 C383 1.387 . S
C382 N385 1.341 . S
C383 C381 1.400 . S
C383 C382 1.387 . S
N384 Co375 2.022 . S
N384 C381 1.351 . S
N384 N385 1.365 . S
N385 C382 1.341 . S
N385 N384 1.365 . S
N385 H405 0.862 . S
C386 C381 1.501 . S
C386 H387 0.961 . S
C386 H388 0.961 . S
C386 H389 0.960 . S
H387 C386 0.961 . S
H388 C386 0.961 . S
H389 C386 0.960 . S
C390 N391 1.342 . S
C390 C394 1.401 . S
C390 C395 1.499 . S
N391 Co374 1.989 . S
N391 C390 1.342 . S
N391 N392 1.388 . S
N392 Co375 1.993 . S
N392 N391 1.388 . S
N392 C393 1.346 . S
C393 N392 1.346 . S
C393 C394 1.396 . S
C393 C403 1.510 . S
C394 C390 1.401 . S
C394 C393 1.396 . S
C395 C390 1.499 . S
C395 H396 0.959 . S
C395 H397 0.960 . S
C395 H398 0.961 . S
H396 C395 0.959 . S
H397 C395 0.960 . S
H398 C395 0.961 . S
O399 Co374 1.967 . S
O399 C407 1.258 . S
O400 Co375 1.941 . S
O400 C407 1.266 . S
H401 C403 0.959 . S
H402 C403 0.961 . S
C403 C393 1.510 . S
C403 H401 0.959 . S
C403 H402 0.961 . S
C403 H404 0.960 . S
H404 C403 0.960 . S
H405 N385 0.862 . S
O406 Co374 1.920 . S
O406 C379 1.289 . S
C407 O399 1.258 . S
C407 O400 1.266 . S
H408 C416 0.929 . S
H409 C418 0.930 . S
H410 C420 0.930 . S
H411 C423 0.929 . S
H412 C426 0.930 . S
H413 C428 0.960 . S
H414 C428 0.960 . S
H415 C428 0.960 . S
C416 H408 0.929 . S
C416 C417 1.377 . S
C416 C418 1.384 . S
C417 C416 1.377 . S
C417 C423 1.390 . S
C418 H409 0.930 . S
C418 C416 1.384 . S
C418 C419 1.372 . S
C419 C418 1.372 . S
C419 C420 1.400 . S
C419 C424 1.490 . S
C420 H410 0.930 . S
C420 C419 1.400 . S
C420 C423 1.386 . S
H421 C437 0.930 . S
H422 C438 0.931 . S
C423 H411 0.929 . S
C423 C417 1.390 . S
C423 C420 1.386 . S
C424 C419 1.490 . S
C424 C426 1.395 . S
C424 C427 1.403 . S
H425 C431 0.930 . S
C426 H412 0.930 . S
C426 C424 1.395 . S
C426 C429 1.403 . S
C427 C424 1.403 . S
C427 C428 1.524 . S
C427 C431 1.400 . S
C428 H413 0.960 . S
C428 H414 0.960 . S
C428 H415 0.960 . S
C428 C427 1.524 . S
C429 C426 1.403 . S
C429 C430 1.392 . S
C429 C433 1.495 . S
C430 C429 1.392 . S
C430 C431 1.385 . S
C430 C432 1.478 . S
C431 H425 0.930 . S
C431 C427 1.400 . S
C431 C430 1.385 . S
C432 C430 1.478 . S
C432 C434 1.381 . S
C432 C438 1.383 . S
C433 C429 1.495 . S
C433 H439 0.959 . S
C433 H440 0.961 . S
C433 H441 0.960 . S
C434 C432 1.381 . S
C434 C435 1.394 1_545 S
C434 H442 0.930 1_545 S
C435 C434 1.394 1_565 S
C435 C436 1.383 . S
C435 H443 0.929 . S
C436 C435 1.383 . S
C436 C437 1.377 1_565 S
C437 H421 0.930 . S
C437 C436 1.377 1_545 S
C437 C438 1.379 . S
C438 H422 0.931 . S
C438 C432 1.383 . S
C438 C437 1.379 . S
H439 C433 0.959 . S
H440 C433 0.961 . S
H441 C433 0.960 . S
H442 C434 0.930 1_565 S
H443 C435 0.929 . S
H444 C452 0.929 . S
H445 C454 0.930 . S
H446 C456 0.930 . S
H447 C459 0.929 . S
H448 C462 0.930 . S
H449 C464 0.960 . S
H450 C464 0.960 . S
H451 C464 0.960 . S
C452 H444 0.929 . S
C452 C453 1.377 . S
C452 C454 1.384 . S
C453 C452 1.377 . S
C453 C459 1.390 . S
C454 H445 0.930 . S
C454 C452 1.384 . S
C454 C455 1.372 . S
C455 C454 1.372 . S
C455 C456 1.400 . S
C455 C460 1.490 . S
C456 H446 0.930 . S
C456 C455 1.400 . S
C456 C459 1.386 . S
H457 C473 0.930 . S
H458 C474 0.931 . S
C459 H447 0.929 . S
C459 C453 1.390 . S
C459 C456 1.386 . S
C460 C455 1.490 . S
C460 C462 1.395 . S
C460 C463 1.403 . S
H461 C467 0.930 . S
C462 H448 0.930 . S
C462 C460 1.395 . S
C462 C465 1.403 . S
C463 C460 1.403 . S
C463 C464 1.524 . S
C463 C467 1.400 . S
C464 H449 0.960 . S
C464 H450 0.960 . S
C464 H451 0.960 . S
C464 C463 1.524 . S
C465 C462 1.403 . S
C465 C466 1.392 . S
C465 C469 1.495 . S
C466 C465 1.392 . S
C466 C467 1.385 . S
C466 C468 1.478 . S
C467 H461 0.930 . S
C467 C463 1.400 . S
C467 C466 1.385 . S
C468 C466 1.478 . S
C468 C470 1.381 . S
C468 C474 1.383 . S
C469 C465 1.495 . S
C469 H475 0.959 . S
C469 H476 0.961 . S
C469 H477 0.960 . S
C470 C468 1.381 . S
C470 C471 1.394 1_455 S
C470 H478 0.930 1_455 S
C471 C470 1.394 1_655 S
C471 C472 1.383 . S
C471 H479 0.929 . S
C472 C471 1.383 . S
C472 C473 1.377 1_655 S
C473 H457 0.930 . S
C473 C472 1.377 1_455 S
C473 C474 1.379 . S
C474 H458 0.931 . S
C474 C468 1.383 . S
C474 C473 1.379 . S
H475 C469 0.959 . S
H476 C469 0.961 . S
H477 C469 0.960 . S
H478 C470 0.930 1_655 S
H479 C471 0.929 . S
H480 C488 0.929 . S
H481 C490 0.930 . S
H482 C492 0.930 . S
H483 C495 0.929 . S
H484 C498 0.930 . S
H485 C500 0.960 . S
H486 C500 0.960 . S
H487 C500 0.960 . S
C488 H480 0.929 . S
C488 C489 1.377 . S
C488 C490 1.384 1_455 S
C489 C488 1.377 . S
C489 C495 1.390 1_455 S
C490 H481 0.930 . S
C490 C488 1.384 1_655 S
C490 C491 1.372 . S
C491 C490 1.372 . S
C491 C492 1.400 . S
C491 C496 1.490 . S
C492 H482 0.930 . S
C492 C491 1.400 . S
C492 C495 1.386 . S
H493 C509 0.930 . S
H494 C510 0.931 . S
C495 H483 0.929 . S
C495 C489 1.390 1_655 S
C495 C492 1.386 . S
C496 C491 1.490 . S
C496 C498 1.395 . S
C496 C499 1.403 . S
H497 C503 0.930 . S
C498 H484 0.930 . S
C498 C496 1.395 . S
C498 C501 1.403 . S
C499 C496 1.403 . S
C499 C500 1.524 . S
C499 C503 1.400 . S
C500 H485 0.960 . S
C500 H486 0.960 . S
C500 H487 0.960 . S
C500 C499 1.524 . S
C501 C498 1.403 . S
C501 C502 1.392 . S
C501 C505 1.495 . S
C502 C501 1.392 . S
C502 C503 1.385 . S
C502 C504 1.478 . S
C503 H497 0.930 . S
C503 C499 1.400 . S
C503 C502 1.385 . S
C504 C502 1.478 . S
C504 C506 1.381 . S
C504 C510 1.383 . S
C505 C501 1.495 . S
C505 H511 0.959 . S
C505 H512 0.961 . S
C505 H513 0.983 . S
C506 C504 1.381 . S
C506 C507 1.394 1_545 S
C506 H514 0.935 . S
C507 C506 1.394 1_565 S
C507 C508 1.383 . S
C507 H515 0.929 . S
C508 C507 1.383 . S
C508 C509 1.377 1_565 S
C509 H493 0.930 . S
C509 C508 1.377 1_545 S
C509 C510 1.379 . S
C510 H494 0.931 . S
C510 C504 1.383 . S
C510 C509 1.379 . S
H511 C505 0.959 . S
H512 C505 0.961 . S
H513 C505 0.983 . S
H514 C506 0.935 . S
H515 C507 0.929 . S
H516 C524 0.929 . S
H517 C526 0.930 . S
H518 C528 0.930 . S
H519 C531 0.929 . S
H520 C534 0.930 . S
H521 C536 0.960 . S
H522 C536 0.960 . S
H523 C536 0.960 . S
C524 H516 0.929 . S
C524 C525 1.377 . S
C524 C526 1.384 . S
C525 C524 1.377 . S
C525 C531 1.390 . S
C526 H517 0.930 . S
C526 C524 1.384 . S
C526 C527 1.372 . S
C527 C526 1.372 . S
C527 C528 1.400 . S
C527 C532 1.490 . S
C528 H518 0.930 . S
C528 C527 1.400 . S
C528 C531 1.386 . S
H529 C545 0.930 1_545 S
H530 C546 0.931 . S
C531 H519 0.929 . S
C531 C525 1.390 . S
C531 C528 1.386 . S
C532 C527 1.490 . S
C532 C534 1.395 . S
C532 C535 1.403 . S
H533 C539 0.930 . S
C534 H520 0.930 . S
C534 C532 1.395 . S
C534 C537 1.403 . S
C535 C532 1.403 . S
C535 C536 1.524 . S
C535 C539 1.400 . S
C536 H521 0.960 . S
C536 H522 0.960 . S
C536 H523 0.960 . S
C536 C535 1.524 . S
C537 C534 1.403 . S
C537 C538 1.392 . S
C537 C541 1.495 . S
C538 C537 1.392 . S
C538 C539 1.385 . S
C538 C540 1.478 . S
C539 H533 0.930 . S
C539 C535 1.400 . S
C539 C538 1.385 . S
C540 C538 1.478 . S
C540 C542 1.381 . S
C540 C546 1.383 . S
C541 C537 1.495 . S
C541 H547 0.959 . S
C541 H548 0.961 . S
C541 H549 0.960 . S
C542 C540 1.381 . S
C542 C543 1.394 . S
C542 H550 0.930 . S
C543 C542 1.394 . S
C543 C544 1.383 1_565 S
C543 H551 0.929 . S
C544 C543 1.383 1_545 S
C544 C545 1.377 1_545 S
C545 H529 0.930 1_565 S
C545 C544 1.377 1_565 S
C545 C546 1.379 . S
C546 H530 0.931 . S
C546 C540 1.383 . S
C546 C545 1.379 . S
H547 C541 0.959 . S
H548 C541 0.961 . S
H549 C541 0.960 . S
H550 C542 0.930 . S
H551 C543 0.929 . S
H552 C560 0.929 1_455 S
H553 C562 0.930 . S
H554 C564 0.930 . S
H555 C567 0.929 . S
H556 C570 0.930 . S
H557 C572 0.960 . S
H558 C572 0.960 . S
H559 C572 0.960 . S
C560 H552 0.929 1_655 S
C560 C561 1.377 1_655 S
C560 C562 1.384 . S
C561 C560 1.377 1_455 S
C561 C567 1.390 1_455 S
C562 H553 0.930 . S
C562 C560 1.384 . S
C562 C563 1.372 . S
C563 C562 1.372 . S
C563 C564 1.400 . S
C563 C568 1.490 . S
C564 H554 0.930 . S
C564 C563 1.400 . S
C564 C567 1.386 . S
H565 C581 0.930 . S
H566 C582 0.931 . S
C567 H555 0.929 . S
C567 C561 1.390 1_655 S
C567 C564 1.386 . S
C568 C563 1.490 . S
C568 C570 1.395 . S
C568 C571 1.403 . S
H569 C575 0.930 . S
C570 H556 0.930 . S
C570 C568 1.395 . S
C570 C573 1.403 . S
C571 C568 1.403 . S
C571 C572 1.524 . S
C571 C575 1.400 . S
C572 H557 0.960 . S
C572 H558 0.960 . S
C572 H559 0.960 . S
C572 C571 1.524 . S
C573 C570 1.403 . S
C573 C574 1.392 . S
C573 C577 1.495 . S
C574 C573 1.392 . S
C574 C575 1.385 . S
C574 C576 1.478 . S
C575 H569 0.930 . S
C575 C571 1.400 . S
C575 C574 1.385 . S
C576 C574 1.478 . S
C576 C578 1.381 . S
C576 C582 1.383 . S
C577 C573 1.495 . S
C577 H583 0.959 . S
C577 H584 0.961 . S
C577 H585 0.960 . S
C578 C576 1.381 . S
C578 C579 1.394 . S
C578 H586 0.930 . S
C579 C578 1.394 . S
C579 C580 1.383 . S
C579 H587 0.929 . S
C580 C579 1.383 . S
C580 C581 1.377 . S
C581 H565 0.930 . S
C581 C580 1.377 . S
C581 C582 1.379 . S
C582 H566 0.931 . S
C582 C576 1.383 . S
C582 C581 1.379 . S
H583 C577 0.959 . S
H584 C577 0.961 . S
H585 C577 0.960 . S
H586 C578 0.930 . S
H587 C579 0.929 . S
H588 C596 0.929 . S
H589 C598 0.930 . S
H590 C600 0.930 . S
H591 C603 0.929 . S
H592 C606 0.930 . S
H593 C608 0.960 . S
H594 C608 0.960 . S
H595 C608 0.960 . S
C596 H588 0.929 . S
C596 C597 1.377 . S
C596 C598 1.384 1_545 S
C597 C596 1.377 . S
C597 C603 1.390 1_545 S
C598 H589 0.930 . S
C598 C596 1.384 1_565 S
C598 C599 1.372 . S
C599 C598 1.372 . S
C599 C600 1.400 . S
C599 C604 1.490 . S
C600 H590 0.930 . S
C600 C599 1.400 . S
C600 C603 1.386 . S
H601 C617 0.930 . S
H602 C618 0.931 . S
C603 H591 0.929 . S
C603 C597 1.390 1_565 S
C603 C600 1.386 . S
C604 C599 1.490 . S
C604 C606 1.395 . S
C604 C607 1.403 . S
H605 C611 0.930 . S
C606 H592 0.930 . S
C606 C604 1.395 . S
C606 C609 1.403 . S
C607 C604 1.403 . S
C607 C608 1.524 . S
C607 C611 1.400 . S
C608 H593 0.960 . S
C608 H594 0.960 . S
C608 H595 0.960 . S
C608 C607 1.524 . S
C609 C606 1.403 . S
C609 C610 1.392 . S
C609 C613 1.495 . S
C610 C609 1.392 . S
C610 C611 1.385 . S
C610 C612 1.478 . S
C611 H605 0.930 . S
C611 C607 1.400 . S
C611 C610 1.385 . S
C612 C610 1.478 . S
C612 C614 1.381 . S
C612 C618 1.383 . S
C613 C609 1.495 . S
C613 H619 0.959 . S
C613 H620 0.961 . S
C613 H621 0.960 . S
C614 C612 1.381 . S
C614 C615 1.394 . S
C614 H622 0.930 . S
C615 C614 1.394 . S
C615 C616 1.383 1_455 S
C615 H623 0.929 . S
C616 C615 1.383 1_655 S
C616 C617 1.377 . S
C617 H601 0.930 . S
C617 C616 1.377 . S
C617 C618 1.379 1_655 S
C618 H602 0.931 . S
C618 C612 1.383 . S
C618 C617 1.379 1_455 S
H619 C613 0.959 . S
H620 C613 0.961 . S
H621 C613 0.960 . S
H622 C614 0.930 . S
H623 C615 0.929 . S
H624 C632 0.929 . S
H625 C634 0.930 . S
H626 C636 0.930 . S
H627 C639 0.929 . S
H628 C642 0.930 . S
H629 C644 0.960 . S
H630 C644 0.960 . S
H631 C644 0.960 1_554 S
C632 H624 0.929 . S
C632 C633 1.377 . S
C632 C634 1.384 . S
C633 C632 1.377 . S
C633 C639 1.390 1_556 S
C634 H625 0.930 . S
C634 C632 1.384 . S
C634 C635 1.372 1_556 S
C635 C634 1.372 1_554 S
C635 C636 1.400 . S
C635 C640 1.490 . S
C636 H626 0.930 . S
C636 C635 1.400 . S
C636 C639 1.386 . S
H637 C653 0.930 . S
H638 C654 0.931 . S
C639 H627 0.929 . S
C639 C633 1.390 1_554 S
C639 C636 1.386 . S
C640 C635 1.490 . S
C640 C642 1.395 . S
C640 C643 1.403 . S
H641 C647 0.930 . S
C642 H628 0.930 . S
C642 C640 1.395 . S
C642 C645 1.403 . S
C643 C640 1.403 . S
C643 C644 1.524 1_554 S
C643 C647 1.400 . S
C644 H629 0.960 . S
C644 H630 0.960 . S
C644 H631 0.960 1_556 S
C644 C643 1.524 1_556 S
C645 C642 1.403 . S
C645 C646 1.392 . S
C645 C649 1.495 . S
C646 C645 1.392 . S
C646 C647 1.385 . S
C646 C648 1.478 . S
C647 H641 0.930 . S
C647 C643 1.400 . S
C647 C646 1.385 . S
C648 C646 1.478 . S
C648 C650 1.381 . S
C648 C654 1.383 . S
C649 C645 1.495 . S
C649 H655 0.959 . S
C649 H656 0.961 . S
C649 H657 0.960 . S
C650 C648 1.381 . S
C650 C651 1.394 . S
C650 H658 0.930 . S
C651 C650 1.394 . S
C651 C652 1.383 . S
C651 H659 0.929 . S
C652 C651 1.383 . S
C652 C653 1.377 . S
C653 H637 0.930 . S
C653 C652 1.377 . S
C653 C654 1.379 . S
C654 H638 0.931 . S
C654 C648 1.383 . S
C654 C653 1.379 . S
H655 C649 0.959 . S
H656 C649 0.961 . S
H657 C649 0.960 . S
H658 C650 0.930 . S
H659 C651 0.929 . S
H660 C668 0.929 . S
H661 C670 0.958 . S
H662 C672 0.930 . S
H663 C675 0.929 . S
H664 C678 0.930 . S
H665 C680 0.960 1_455 S
H666 C680 0.960 1_455 S
H667 C680 0.960 . S
C668 H660 0.929 . S
C668 C669 1.377 . S
C668 C670 1.384 . S
C669 C668 1.377 . S
C669 C675 1.390 . S
C670 H661 0.958 . S
C670 C668 1.384 . S
C670 C671 1.372 . S
C671 C670 1.372 . S
C671 C672 1.400 . S
C671 C676 1.490 . S
C672 H662 0.930 . S
C672 C671 1.400 . S
C672 C675 1.386 . S
H673 C689 0.930 . S
H674 C690 0.931 . S
C675 H663 0.929 . S
C675 C669 1.390 . S
C675 C672 1.386 . S
C676 C671 1.490 . S
C676 C678 1.395 . S
C676 C679 1.403 . S
H677 C683 0.930 . S
C678 H664 0.930 . S
C678 C676 1.395 . S
C678 C681 1.403 1_655 S
C679 C676 1.403 . S
C679 C680 1.524 . S
C679 C683 1.400 1_655 S
C680 H665 0.960 1_655 S
C680 H666 0.960 1_655 S
C680 H667 0.960 . S
C680 C679 1.524 . S
C681 C678 1.403 1_455 S
C681 C682 1.392 . S
C681 C685 1.495 . S
C682 C681 1.392 . S
C682 C683 1.385 . S
C682 C684 1.478 . S
C683 H677 0.930 . S
C683 C679 1.400 1_455 S
C683 C682 1.385 . S
C684 C682 1.478 . S
C684 C686 1.381 . S
C684 C690 1.383 . S
C685 C681 1.495 . S
C685 H691 0.959 . S
C685 H692 0.961 . S
C685 H693 0.960 . S
C686 C684 1.381 . S
C686 C687 1.394 . S
C686 H694 0.930 . S
C687 C686 1.394 . S
C687 C688 1.383 . S
C687 H695 0.929 . S
C688 C687 1.383 . S
C688 C689 1.377 . S
C689 H673 0.930 . S
C689 C688 1.377 . S
C689 C690 1.379 . S
C690 H674 0.931 . S
C690 C684 1.383 . S
C690 C689 1.379 . S
H691 C685 0.959 . S
H692 C685 0.961 . S
H693 C685 0.960 . S
H694 C686 0.930 . S
H695 C687 0.929 . S
H696 C704 0.929 . S
H697 C706 0.930 . S
H698 C708 0.930 . S
H699 C711 0.929 . S
H700 C714 0.930 . S
H701 C716 0.960 . S
H702 C716 0.960 . S
H703 C716 0.960 . S
C704 H696 0.929 . S
C704 C705 1.377 . S
C704 C706 1.384 . S
C705 C704 1.377 . S
C705 C711 1.390 . S
C706 H697 0.930 . S
C706 C704 1.384 . S
C706 C707 1.372 . S
C707 C706 1.372 . S
C707 C708 1.400 . S
C707 C712 1.490 . S
C708 H698 0.930 . S
C708 C707 1.400 . S
C708 C711 1.386 . S
H709 C725 0.930 . S
H710 C726 0.931 . S
C711 H699 0.929 . S
C711 C705 1.390 . S
C711 C708 1.386 . S
C712 C707 1.490 . S
C712 C714 1.395 . S
C712 C715 1.403 1_545 S
H713 C719 0.930 . S
C714 H700 0.930 . S
C714 C712 1.395 . S
C714 C717 1.403 . S
C715 C712 1.403 1_565 S
C715 C716 1.524 . S
C715 C719 1.400 . S
C716 H701 0.960 . S
C716 H702 0.960 . S
C716 H703 0.960 . S
C716 C715 1.524 . S
C717 C714 1.403 . S
C717 C718 1.392 1_545 S
C717 C721 1.495 . S
C718 C717 1.392 1_565 S
C718 C719 1.385 . S
C718 C720 1.478 . S
C719 H713 0.930 . S
C719 C715 1.400 . S
C719 C718 1.385 . S
C720 C718 1.478 . S
C720 C722 1.381 . S
C720 C726 1.383 . S
C721 C717 1.495 . S
C721 H727 0.959 . S
C721 H728 0.961 . S
C721 H729 0.960 . S
C722 C720 1.381 . S
C722 C723 1.394 . S
C722 H730 0.930 . S
C723 C722 1.394 . S
C723 C724 1.383 . S
C723 H731 0.929 . S
C724 C723 1.383 . S
C724 C725 1.377 . S
C725 H709 0.930 . S
C725 C724 1.377 . S
C725 C726 1.379 . S
C726 H710 0.931 . S
C726 C720 1.383 . S
C726 C725 1.379 . S
H727 C721 0.959 . S
H728 C721 0.961 . S
H729 C721 0.960 . S
H730 C722 0.930 . S
H731 C723 0.929 . S
H732 C740 0.929 . S
H733 C742 0.930 . S
H734 C744 0.930 . S
H735 C747 0.929 . S
H736 C750 0.930 . S
H737 C752 0.960 . S
H738 C752 0.960 . S
H739 C752 0.960 . S
C740 H732 0.929 . S
C740 C741 1.377 . S
C740 C742 1.384 . S
C741 C740 1.377 . S
C741 C747 1.390 . S
C742 H733 0.930 . S
C742 C740 1.384 . S
C742 C743 1.372 . S
C743 C742 1.372 . S
C743 C744 1.400 . S
C743 C748 1.490 . S
C744 H734 0.930 . S
C744 C743 1.400 . S
C744 C747 1.386 . S
H745 C761 0.930 . S
H746 C762 0.931 . S
C747 H735 0.929 . S
C747 C741 1.390 . S
C747 C744 1.386 . S
C748 C743 1.490 . S
C748 C750 1.395 . S
C748 C751 1.403 . S
H749 C755 0.930 . S
C750 H736 0.930 . S
C750 C748 1.395 . S
C750 C753 1.403 . S
C751 C748 1.403 . S
C751 C752 1.524 . S
C751 C755 1.400 . S
C752 H737 0.960 . S
C752 H738 0.960 . S
C752 H739 0.960 . S
C752 C751 1.524 . S
C753 C750 1.403 . S
C753 C754 1.392 . S
C753 C757 1.495 . S
C754 C753 1.392 . S
C754 C755 1.385 . S
C754 C756 1.478 . S
C755 H749 0.930 . S
C755 C751 1.400 . S
C755 C754 1.385 . S
C756 C754 1.478 . S
C756 C758 1.381 . S
C756 C762 1.383 . S
C757 C753 1.495 . S
C757 H763 0.959 . S
C757 H764 0.961 . S
C757 H765 0.960 . S
C758 C756 1.381 . S
C758 C759 1.394 . S
C758 H766 0.930 . S
C759 C758 1.394 . S
C759 C760 1.383 . S
C759 H767 0.929 . S
C760 C759 1.383 . S
C760 C761 1.377 . S
C761 H745 0.930 . S
C761 C760 1.377 . S
C761 C762 1.379 . S
C762 H746 0.931 . S
C762 C756 1.383 . S
C762 C761 1.379 . S
H763 C757 0.959 . S
H764 C757 0.961 . S
H765 C757 0.960 . S
H766 C758 0.930 . S
H767 C759 0.929 . S
H768 C776 0.929 . S
H769 C778 0.930 . S
H770 C780 0.930 . S
H771 C783 0.929 . S
H772 C786 0.930 . S
H773 C788 0.960 . S
H774 C788 0.960 . S
H775 C788 0.960 . S
C776 H768 0.929 . S
C776 C777 1.377 . S
C776 C778 1.384 . S
C777 C776 1.377 . S
C777 C783 1.390 . S
C778 H769 0.930 . S
C778 C776 1.384 . S
C778 C779 1.372 . S
C779 C778 1.372 . S
C779 C780 1.400 . S
C779 C784 1.490 . S
C780 H770 0.930 . S
C780 C779 1.400 . S
C780 C783 1.386 . S
H781 C797 0.930 . S
H782 C798 0.931 . S
C783 H771 0.929 . S
C783 C777 1.390 . S
C783 C780 1.386 . S
C784 C779 1.490 . S
C784 C786 1.395 . S
C784 C787 1.403 1_655 S
H785 C791 0.930 . S
C786 H772 0.930 . S
C786 C784 1.395 . S
C786 C789 1.403 . S
C787 C784 1.403 1_455 S
C787 C788 1.524 . S
C787 C791 1.400 . S
C788 H773 0.960 . S
C788 H774 0.960 . S
C788 H775 0.960 . S
C788 C787 1.524 . S
C789 C786 1.403 . S
C789 C790 1.392 1_655 S
C789 C793 1.495 . S
C790 C789 1.392 1_455 S
C790 C791 1.385 . S
C790 C792 1.478 . S
C791 H785 0.930 . S
C791 C787 1.400 . S
C791 C790 1.385 . S
C792 C790 1.478 . S
C792 C794 1.381 . S
C792 C798 1.383 . S
C793 C789 1.495 . S
C793 H799 0.959 . S
C793 H800 0.961 . S
C793 H801 0.960 . S
C794 C792 1.381 . S
C794 C795 1.394 . S
C794 H802 0.930 . S
C795 C794 1.394 . S
C795 C796 1.383 . S
C795 H803 0.929 . S
C796 C795 1.383 . S
C796 C797 1.377 . S
C797 H781 0.930 . S
C797 C796 1.377 . S
C797 C798 1.379 . S
C798 H782 0.931 . S
C798 C792 1.383 . S
C798 C797 1.379 . S
H799 C793 0.959 . S
H800 C793 0.961 . S
H801 C793 0.960 . S
H802 C794 0.930 . S
H803 C795 0.929 . S
H804 C812 0.929 . S
H805 C814 0.930 . S
H806 C816 0.930 . S
H807 C819 0.929 . S
H808 C822 0.930 . S
H809 C824 0.960 . S
H810 C824 0.960 . S
H811 C824 0.960 . S
C812 H804 0.929 . S
C812 C813 1.377 . S
C812 C814 1.384 . S
C813 C812 1.377 . S
C813 C819 1.390 . S
C814 H805 0.930 . S
C814 C812 1.384 . S
C814 C815 1.372 . S
C815 C814 1.372 . S
C815 C816 1.400 . S
C815 C820 1.490 . S
C816 H806 0.930 . S
C816 C815 1.400 . S
C816 C819 1.386 . S
H817 C833 0.930 . S
H818 C834 0.931 . S
C819 H807 0.929 . S
C819 C813 1.390 . S
C819 C816 1.386 . S
C820 C815 1.490 . S
C820 C822 1.395 . S
C820 C823 1.403 1_565 S
H821 C827 0.930 . S
C822 H808 0.930 . S
C822 C820 1.395 . S
C822 C825 1.403 . S
C823 C820 1.403 1_545 S
C823 C824 1.524 . S
C823 C827 1.400 . S
C824 H809 0.960 . S
C824 H810 0.960 . S
C824 H811 0.960 . S
C824 C823 1.524 . S
C825 C822 1.403 . S
C825 C826 1.392 1_565 S
C825 C829 1.495 . S
C826 C825 1.392 1_545 S
C826 C827 1.385 . S
C826 C828 1.478 . S
C827 H821 0.930 . S
C827 C823 1.400 . S
C827 C826 1.385 . S
C828 C826 1.478 . S
C828 C830 1.381 . S
C828 C834 1.383 . S
C829 C825 1.495 . S
C829 H835 0.959 . S
C829 H836 0.961 . S
C829 H837 0.960 . S
C830 C828 1.381 . S
C830 C831 1.394 . S
C830 H838 0.930 . S
C831 C830 1.394 . S
C831 C832 1.383 . S
C831 H839 0.929 . S
C832 C831 1.383 . S
C832 C833 1.377 . S
C833 H817 0.930 . S
C833 C832 1.377 . S
C833 C834 1.379 . S
C834 H818 0.931 . S
C834 C828 1.383 . S
C834 C833 1.379 . S
H835 C829 0.959 . S
H836 C829 0.961 . S
H837 C829 0.960 . S
H838 C830 0.930 . S
H839 C831 0.929 . S
H840 C848 0.929 . S
H841 C850 0.930 . S
H842 C852 0.930 . S
H843 C855 0.929 . S
H844 C858 0.930 . S
H845 C860 0.960 . S
H846 C860 0.960 . S
H847 C860 0.960 . S
C848 H840 0.929 . S
C848 C849 1.377 . S
C848 C850 1.384 . S
C849 C848 1.377 . S
C849 C855 1.390 . S
C850 H841 0.930 . S
C850 C848 1.384 . S
C850 C851 1.372 . S
C851 C850 1.372 . S
C851 C852 1.400 . S
C851 C856 1.490 . S
C852 H842 0.930 . S
C852 C851 1.400 . S
C852 C855 1.386 . S
H853 C869 0.930 . S
H854 C870 0.931 . S
C855 H843 0.929 . S
C855 C849 1.390 . S
C855 C852 1.386 . S
C856 C851 1.490 . S
C856 C858 1.395 . S
C856 C859 1.403 . S
H857 C863 0.930 . S
C858 H844 0.930 . S
C858 C856 1.395 . S
C858 C861 1.403 . S
C859 C856 1.403 . S
C859 C860 1.524 . S
C859 C863 1.400 . S
C860 H845 0.960 . S
C860 H846 0.960 . S
C860 H847 0.960 . S
C860 C859 1.524 . S
C861 C858 1.403 . S
C861 C862 1.392 . S
C861 C865 1.495 . S
C862 C861 1.392 . S
C862 C863 1.385 . S
C862 C864 1.478 . S
C863 H857 0.930 . S
C863 C859 1.400 . S
C863 C862 1.385 . S
C864 C862 1.478 . S
C864 C866 1.381 . S
C864 C870 1.383 . S
C865 C861 1.495 . S
C865 H871 0.959 . S
C865 H872 0.961 . S
C865 H873 0.960 . S
C866 C864 1.381 . S
C866 C867 1.394 . S
C866 H874 0.930 . S
C867 C866 1.394 . S
C867 C868 1.383 . S
C867 H875 0.929 . S
C868 C867 1.383 . S
C868 C869 1.377 . S
C869 H853 0.930 . S
C869 C868 1.377 . S
C869 C870 1.379 . S
C870 H854 0.931 . S
C870 C864 1.383 . S
C870 C869 1.379 . S
H871 C865 0.959 . S
H872 C865 0.961 . S
H873 C865 0.960 . S
H874 C866 0.930 . S
H875 C867 0.929 . S
H876 C884 0.929 . S
H877 C886 0.930 1_455 S
H878 C888 0.930 . S
H879 C891 0.929 . S
H880 C894 0.930 . S
H881 C896 0.960 . S
H882 C896 0.960 . S
H883 C896 0.960 . S
C884 H876 0.929 . S
C884 C885 1.377 . S
C884 C886 1.384 . S
C885 C884 1.377 . S
C885 C891 1.390 . S
C886 H877 0.930 1_655 S
C886 C884 1.384 . S
C886 C887 1.372 . S
C887 C886 1.372 . S
C887 C888 1.400 . S
C887 C892 1.490 . S
C888 H878 0.930 . S
C888 C887 1.400 . S
C888 C891 1.386 . S
H889 C905 0.930 . S
H890 C906 0.931 . S
C891 H879 0.929 . S
C891 C885 1.390 . S
C891 C888 1.386 . S
C892 C887 1.490 . S
C892 C894 1.395 1_655 S
C892 C895 1.403 . S
H893 C899 0.927 . S
C894 H880 0.930 . S
C894 C892 1.395 1_455 S
C894 C897 1.403 . S
C895 C892 1.403 . S
C895 C896 1.524 . S
C895 C899 1.400 1_655 S
C896 H881 0.960 . S
C896 H882 0.960 . S
C896 H883 0.960 . S
C896 C895 1.524 . S
C897 C894 1.403 . S
C897 C898 1.392 . S
C897 C901 1.495 1_556 S
C898 C897 1.392 . S
C898 C899 1.385 . S
C898 C900 1.478 . S
C899 H893 0.927 . S
C899 C895 1.400 1_455 S
C899 C898 1.385 . S
C900 C898 1.478 . S
C900 C902 1.381 . S
C900 C906 1.383 1_556 S
C901 C897 1.495 1_554 S
C901 H907 0.959 . S
C901 H908 0.961 . S
C901 H909 0.960 . S
C902 C900 1.381 . S
C902 C903 1.394 . S
C902 H910 0.930 . S
C903 C902 1.394 . S
C903 C904 1.383 . S
C903 H911 0.929 . S
C904 C903 1.383 . S
C904 C905 1.377 1_556 S
C905 H889 0.930 . S
C905 C904 1.377 1_554 S
C905 C906 1.379 . S
C906 H890 0.931 . S
C906 C900 1.383 1_554 S
C906 C905 1.379 . S
H907 C901 0.959 . S
H908 C901 0.961 . S
H909 C901 0.960 . S
H910 C902 0.930 . S
H911 C903 0.929 . S
H912 C920 0.929 . S
H913 C922 0.930 . S
H914 C924 0.930 1_545 S
H915 C927 0.929 . S
H916 C930 0.930 . S
H917 C932 0.950 1_545 S
H918 C932 0.986 . S
H919 C932 0.937 1_545 S
C920 H912 0.929 . S
C920 C921 1.377 . S
C920 C922 1.384 . S
C921 C920 1.377 . S
C921 C927 1.390 . S
C922 H913 0.930 . S
C922 C920 1.384 . S
C922 C923 1.372 . S
C923 C922 1.372 . S
C923 C924 1.400 . S
C923 C928 1.490 . S
C924 H914 0.930 1_565 S
C924 C923 1.400 . S
C924 C927 1.386 . S
H925 C941 0.930 . S
H926 C942 0.931 . S
C927 H915 0.929 . S
C927 C921 1.390 . S
C927 C924 1.386 . S
C928 C923 1.490 . S
C928 C930 1.395 . S
C928 C931 1.403 1_565 S
H929 C935 0.930 . S
C930 H916 0.930 . S
C930 C928 1.395 . S
C930 C933 1.403 1_565 S
C931 C928 1.403 1_545 S
C931 C932 1.533 1_545 S
C931 C935 1.400 . S
C932 H917 0.950 1_565 S
C932 H918 0.986 . S
C932 H919 0.937 1_565 S
C932 C931 1.533 1_565 S
C933 C930 1.403 1_545 S
C933 C934 1.392 . S
C933 C937 1.495 . S
C934 C933 1.392 . S
C934 C935 1.385 . S
C934 C936 1.478 . S
C935 H929 0.930 . S
C935 C931 1.400 . S
C935 C934 1.385 . S
C936 C934 1.478 . S
C936 C938 1.381 . S
C936 C942 1.383 . S
C937 C933 1.495 . S
C937 H943 0.959 1_545 S
C937 H944 0.961 . S
C937 H945 0.960 1_545 S
C938 C936 1.381 . S
C938 C939 1.394 . S
C938 H946 0.930 . S
C939 C938 1.394 . S
C939 C940 1.383 . S
C939 H947 0.929 . S
C940 C939 1.383 . S
C940 C941 1.377 . S
C941 H925 0.930 . S
C941 C940 1.377 . S
C941 C942 1.379 . S
C942 H926 0.931 . S
C942 C936 1.383 . S
C942 C941 1.379 . S
H943 C937 0.959 1_565 S
H944 C937 0.961 . S
H945 C937 0.960 1_565 S
H946 C938 0.930 . S
H947 C939 0.929 . S
H948 C956 0.929 . S
H949 C958 0.930 . S
H950 C960 0.930 . S
H951 C963 0.929 . S
H952 C966 0.930 . S
H953 C968 0.960 . S
H954 C968 0.960 . S
H955 C968 0.960 . S
C956 H948 0.929 . S
C956 C957 1.377 . S
C956 C958 1.384 . S
C957 C956 1.377 . S
C957 C963 1.390 . S
C958 H949 0.930 . S
C958 C956 1.384 . S
C958 C959 1.372 . S
C959 C958 1.372 . S
C959 C960 1.400 . S
C959 C964 1.490 . S
C960 H950 0.930 . S
C960 C959 1.400 . S
C960 C963 1.386 . S
H961 C977 0.930 . S
H962 C978 0.931 . S
C963 H951 0.929 . S
C963 C957 1.390 . S
C963 C960 1.386 . S
C964 C959 1.490 . S
C964 C966 1.395 . S
C964 C967 1.403 . S
H965 C971 0.930 . S
C966 H952 0.930 . S
C966 C964 1.395 . S
C966 C969 1.403 . S
C967 C964 1.403 . S
C967 C968 1.524 . S
C967 C971 1.400 . S
C968 H953 0.960 . S
C968 H954 0.960 . S
C968 H955 0.960 . S
C968 C967 1.524 . S
C969 C966 1.403 . S
C969 C970 1.392 . S
C969 C973 1.495 . S
C970 C969 1.392 . S
C970 C971 1.385 . S
C970 C972 1.478 . S
C971 H965 0.930 . S
C971 C967 1.400 . S
C971 C970 1.385 . S
C972 C970 1.478 . S
C972 C974 1.381 . S
C972 C978 1.383 . S
C973 C969 1.495 . S
C973 H979 0.959 . S
C973 H980 0.961 . S
C973 H981 0.960 . S
C974 C972 1.381 . S
C974 C975 1.394 . S
C974 H982 0.930 . S
C975 C974 1.394 . S
C975 C976 1.383 . S
C975 H983 0.929 . S
C976 C975 1.383 . S
C976 C977 1.377 . S
C977 H961 0.930 . S
C977 C976 1.377 . S
C977 C978 1.379 . S
C978 H962 0.931 . S
C978 C972 1.383 . S
C978 C977 1.379 . S
H979 C973 0.959 . S
H980 C973 0.961 . S
H981 C973 0.960 . S
H982 C974 0.930 . S
H983 C975 0.929 . S
H984 C992 0.929 . S
H985 C994 0.930 . S
H986 C996 0.930 . S
H987 C999 0.929 . S
H988 C1002 0.930 . S
H989 C1004 0.960 . S
H990 C1004 0.960 . S
H991 C1004 0.960 . S
C992 H984 0.929 . S
C992 C993 1.377 . S
C992 C994 1.384 . S
C993 C992 1.377 . S
C993 C999 1.390 . S
C994 H985 0.930 . S
C994 C992 1.384 . S
C994 C995 1.372 . S
C995 C994 1.372 . S
C995 C996 1.400 . S
C995 C1000 1.490 . S
C996 H986 0.930 . S
C996 C995 1.400 . S
C996 C999 1.386 . S
H997 C1013 0.930 . S
H998 C1014 0.931 . S
C999 H987 0.929 . S
C999 C993 1.390 . S
C999 C996 1.386 . S
C1000 C995 1.490 . S
C1000 C1002 1.395 . S
C1000 C1003 1.403 1_655 S
H1001 C1007 0.930 . S
C1002 H988 0.930 . S
C1002 C1000 1.395 . S
C1002 C1005 1.403 . S
C1003 C1000 1.403 1_455 S
C1003 C1004 1.524 . S
C1003 C1007 1.400 . S
C1004 H989 0.960 . S
C1004 H990 0.960 . S
C1004 H991 0.960 . S
C1004 C1003 1.524 . S
C1005 C1002 1.403 . S
C1005 C1006 1.392 1_655 S
C1005 C1009 1.495 . S
C1006 C1005 1.392 1_455 S
C1006 C1007 1.385 . S
C1006 C1008 1.478 . S
C1007 H1001 0.930 . S
C1007 C1003 1.400 . S
C1007 C1006 1.385 . S
C1008 C1006 1.478 . S
C1008 C1010 1.381 . S
C1008 C1014 1.383 . S
C1009 C1005 1.495 . S
C1009 H1015 0.959 . S
C1009 H1016 0.961 . S
C1009 H1017 0.960 . S
C1010 C1008 1.381 . S
C1010 C1011 1.394 . S
C1010 H1018 0.930 . S
C1011 C1010 1.394 . S
C1011 C1012 1.383 . S
C1011 H1019 0.929 . S
C1012 C1011 1.383 . S
C1012 C1013 1.377 . S
C1013 H997 0.930 . S
C1013 C1012 1.377 . S
C1013 C1014 1.379 . S
C1014 H998 0.931 . S
C1014 C1008 1.383 . S
C1014 C1013 1.379 . S
H1015 C1009 0.959 . S
H1016 C1009 0.961 . S
H1017 C1009 0.960 . S
H1018 C1010 0.930 . S
H1019 C1011 0.929 . S
H1020 C1028 0.929 . S
H1021 C1030 0.930 . S
H1022 C1032 0.930 . S
H1023 C1035 0.929 . S
H1024 C1038 0.930 . S
H1025 C1040 0.960 . S
H1026 C1040 0.960 . S
H1027 C1040 0.960 . S
C1028 H1020 0.929 . S
C1028 C1029 1.377 . S
C1028 C1030 1.384 . S
C1029 C1028 1.377 . S
C1029 C1035 1.390 . S
C1030 H1021 0.930 . S
C1030 C1028 1.384 . S
C1030 C1031 1.372 . S
C1031 C1030 1.372 . S
C1031 C1032 1.400 . S
C1031 C1036 1.490 . S
C1032 H1022 0.930 . S
C1032 C1031 1.400 . S
C1032 C1035 1.386 . S
H1033 C1049 0.930 . S
H1034 C1050 0.931 . S
C1035 H1023 0.929 . S
C1035 C1029 1.390 . S
C1035 C1032 1.386 . S
C1036 C1031 1.490 . S
C1036 C1038 1.395 1_565 S
C1036 C1039 1.403 . S
H1037 C1043 0.930 . S
C1038 H1024 0.930 . S
C1038 C1036 1.395 1_545 S
C1038 C1041 1.403 . S
C1039 C1036 1.403 . S
C1039 C1040 1.524 . S
C1039 C1043 1.400 . S
C1040 H1025 0.960 . S
C1040 H1026 0.960 . S
C1040 H1027 0.960 . S
C1040 C1039 1.524 . S
C1041 C1038 1.403 . S
C1041 C1042 1.392 . S
C1041 C1045 1.495 . S
C1042 C1041 1.392 . S
C1042 C1043 1.385 1_545 S
C1042 C1044 1.478 . S
C1043 H1037 0.930 . S
C1043 C1039 1.400 . S
C1043 C1042 1.385 1_565 S
C1044 C1042 1.478 . S
C1044 C1046 1.381 . S
C1044 C1050 1.383 . S
C1045 C1041 1.495 . S
C1045 H1051 0.959 . S
C1045 H1052 0.961 . S
C1045 H1053 0.960 . S
C1046 C1044 1.381 . S
C1046 C1047 1.394 . S
C1046 H1054 0.930 . S
C1047 C1046 1.394 . S
C1047 C1048 1.383 . S
C1047 H1055 0.929 . S
C1048 C1047 1.383 . S
C1048 C1049 1.377 . S
C1049 H1033 0.930 . S
C1049 C1048 1.377 . S
C1049 C1050 1.379 . S
C1050 H1034 0.931 . S
C1050 C1044 1.383 . S
C1050 C1049 1.379 . S
H1051 C1045 0.959 . S
H1052 C1045 0.961 . S
H1053 C1045 0.960 . S
H1054 C1046 0.930 . S
H1055 C1047 0.929 . S
H1056 C1064 0.929 . S
H1057 C1066 0.930 . S
H1058 C1068 0.930 . S
H1059 C1071 0.929 . S
H1060 C1074 0.930 . S
H1061 C1076 0.960 . S
H1062 C1076 0.960 . S
H1063 C1076 0.960 . S
C1064 H1056 0.929 . S
C1064 C1065 1.377 . S
C1064 C1066 1.384 . S
C1065 C1064 1.377 . S
C1065 C1071 1.390 . S
C1066 H1057 0.930 . S
C1066 C1064 1.384 . S
C1066 C1067 1.372 . S
C1067 C1066 1.372 . S
C1067 C1068 1.400 . S
C1067 C1072 1.490 . S
C1068 H1058 0.930 . S
C1068 C1067 1.400 . S
C1068 C1071 1.386 . S
H1069 C1085 0.930 1_554 S
H1070 C1086 0.931 . S
C1071 H1059 0.929 . S
C1071 C1065 1.390 . S
C1071 C1068 1.386 . S
C1072 C1067 1.490 . S
C1072 C1074 1.395 . S
C1072 C1075 1.403 . S
H1073 C1079 0.930 . S
C1074 H1060 0.930 . S
C1074 C1072 1.395 . S
C1074 C1077 1.403 . S
C1075 C1072 1.403 . S
C1075 C1076 1.524 . S
C1075 C1079 1.400 . S
C1076 H1061 0.960 . S
C1076 H1062 0.960 . S
C1076 H1063 0.960 . S
C1076 C1075 1.524 . S
C1077 C1074 1.403 . S
C1077 C1078 1.392 . S
C1077 C1081 1.495 . S
C1078 C1077 1.392 . S
C1078 C1079 1.385 . S
C1078 C1080 1.478 . S
C1079 H1073 0.930 . S
C1079 C1075 1.400 . S
C1079 C1078 1.385 . S
C1080 C1078 1.478 . S
C1080 C1082 1.381 . S
C1080 C1086 1.383 . S
C1081 C1077 1.495 . S
C1081 H1087 0.959 . S
C1081 H1088 0.961 . S
C1081 H1089 0.960 . S
C1082 C1080 1.381 . S
C1082 C1083 1.394 . S
C1082 H1090 0.930 . S
C1083 C1082 1.394 . S
C1083 C1084 1.383 . S
C1083 H1091 0.929 . S
C1084 C1083 1.383 . S
C1084 C1085 1.377 . S
C1085 H1069 0.930 1_556 S
C1085 C1084 1.377 . S
C1085 C1086 1.379 . S
C1086 H1070 0.931 . S
C1086 C1080 1.383 . S
C1086 C1085 1.379 . S
H1087 C1081 0.959 . S
H1088 C1081 0.961 . S
H1089 C1081 0.960 . S
H1090 C1082 0.930 . S
H1091 C1083 0.929 . S
H1092 C1100 0.929 . S
H1093 C1102 0.930 . S
H1094 C1104 0.930 . S
H1095 C1107 0.929 . S
H1096 C1110 0.930 . S
H1097 C1112 0.960 . S
H1098 C1112 0.960 . S
H1099 C1112 0.960 . S
C1100 H1092 0.929 . S
C1100 C1101 1.377 . S
C1100 C1102 1.384 . S
C1101 C1100 1.377 . S
C1101 C1107 1.390 . S
C1102 H1093 0.930 . S
C1102 C1100 1.384 . S
C1102 C1103 1.372 . S
C1103 C1102 1.372 . S
C1103 C1104 1.400 . S
C1103 C1108 1.490 . S
C1104 H1094 0.930 . S
C1104 C1103 1.400 . S
C1104 C1107 1.386 . S
H1105 C1121 0.930 . S
H1106 C1122 0.931 . S
C1107 H1095 0.929 . S
C1107 C1101 1.390 . S
C1107 C1104 1.386 . S
C1108 C1103 1.490 . S
C1108 C1110 1.395 1_455 S
C1108 C1111 1.403 . S
H1109 C1115 0.930 . S
C1110 H1096 0.930 . S
C1110 C1108 1.395 1_655 S
C1110 C1113 1.403 . S
C1111 C1108 1.403 . S
C1111 C1112 1.524 . S
C1111 C1115 1.400 . S
C1112 H1097 0.960 . S
C1112 H1098 0.960 . S
C1112 H1099 0.960 . S
C1112 C1111 1.524 . S
C1113 C1110 1.403 . S
C1113 C1114 1.392 . S
C1113 C1117 1.495 . S
C1114 C1113 1.392 . S
C1114 C1115 1.385 1_655 S
C1114 C1116 1.478 . S
C1115 H1109 0.930 . S
C1115 C1111 1.400 . S
C1115 C1114 1.385 1_455 S
C1116 C1114 1.478 . S
C1116 C1118 1.381 . S
C1116 C1122 1.383 . S
C1117 C1113 1.495 . S
C1117 H1123 0.959 . S
C1117 H1124 0.961 . S
C1117 H1125 0.960 . S
C1118 C1116 1.381 . S
C1118 C1119 1.394 . S
C1118 H1126 0.930 . S
C1119 C1118 1.394 . S
C1119 C1120 1.383 . S
C1119 H1127 0.929 . S
C1120 C1119 1.383 . S
C1120 C1121 1.377 . S
C1121 H1105 0.930 . S
C1121 C1120 1.377 . S
C1121 C1122 1.379 . S
C1122 H1106 0.931 . S
C1122 C1116 1.383 . S
C1122 C1121 1.379 . S
H1123 C1117 0.959 . S
H1124 C1117 0.961 . S
H1125 C1117 0.960 . S
H1126 C1118 0.930 . S
H1127 C1119 0.929 . S
H1128 C1136 0.929 . S
H1129 C1138 0.930 . S
H1130 C1140 0.930 . S
H1131 C1143 0.929 . S
H1132 C1146 0.930 . S
H1133 C1148 0.960 . S
H1134 C1148 0.960 . S
H1135 C1148 0.960 . S
C1136 H1128 0.929 . S
C1136 C1137 1.377 . S
C1136 C1138 1.384 . S
C1137 C1136 1.377 . S
C1137 C1143 1.390 . S
C1138 H1129 0.930 . S
C1138 C1136 1.384 . S
C1138 C1139 1.372 . S
C1139 C1138 1.372 . S
C1139 C1140 1.400 . S
C1139 C1144 1.490 . S
C1140 H1130 0.930 . S
C1140 C1139 1.400 . S
C1140 C1143 1.386 . S
H1141 C1157 0.930 . S
H1142 C1158 0.931 . S
C1143 H1131 0.929 . S
C1143 C1137 1.390 . S
C1143 C1140 1.386 . S
C1144 C1139 1.490 . S
C1144 C1146 1.395 1_565 S
C1144 C1147 1.403 . S
H1145 C1151 0.929 . S
C1146 H1132 0.930 . S
C1146 C1144 1.395 1_545 S
C1146 C1149 1.403 . S
C1147 C1144 1.403 . S
C1147 C1148 1.524 . S
C1147 C1151 1.400 1_565 S
C1148 H1133 0.960 . S
C1148 H1134 0.960 . S
C1148 H1135 0.960 . S
C1148 C1147 1.524 . S
C1149 C1146 1.403 . S
C1149 C1150 1.392 . S
C1149 C1153 1.495 . S
C1150 C1149 1.392 . S
C1150 C1151 1.385 . S
C1150 C1152 1.478 . S
C1151 H1145 0.929 . S
C1151 C1147 1.400 1_545 S
C1151 C1150 1.385 . S
C1152 C1150 1.478 . S
C1152 C1154 1.381 . S
C1152 C1158 1.383 . S
C1153 C1149 1.495 . S
C1153 H1159 0.959 . S
C1153 H1160 0.961 . S
C1153 H1161 0.960 . S
C1154 C1152 1.381 . S
C1154 C1155 1.394 . S
C1154 H1162 0.930 . S
C1155 C1154 1.394 . S
C1155 C1156 1.383 . S
C1155 H1163 0.929 . S
C1156 C1155 1.383 . S
C1156 C1157 1.377 . S
C1157 H1141 0.930 . S
C1157 C1156 1.377 . S
C1157 C1158 1.379 . S
C1158 H1142 0.931 . S
C1158 C1152 1.383 . S
C1158 C1157 1.379 . S
H1159 C1153 0.959 . S
H1160 C1153 0.961 . S
H1161 C1153 0.960 . S
H1162 C1154 0.930 . S
H1163 C1155 0.929 . S
H1164 C1172 0.929 . S
H1165 C1174 0.930 . S
H1166 C1176 0.930 . S
H1167 C1179 0.929 . S
H1168 C1182 0.930 . S
H1169 C1184 0.960 . S
H1170 C1184 0.960 . S
H1171 C1184 0.960 . S
C1172 H1164 0.929 . S
C1172 C1173 1.377 . S
C1172 C1174 1.384 . S
C1173 C1172 1.377 . S
C1173 C1179 1.390 . S
C1174 H1165 0.930 . S
C1174 C1172 1.384 . S
C1174 C1175 1.372 . S
C1175 C1174 1.372 . S
C1175 C1176 1.400 . S
C1175 C1180 1.490 . S
C1176 H1166 0.930 . S
C1176 C1175 1.400 . S
C1176 C1179 1.386 . S
H1177 C1193 0.930 . S
H1178 C1194 0.931 . S
C1179 H1167 0.929 . S
C1179 C1173 1.390 . S
C1179 C1176 1.386 . S
C1180 C1175 1.490 . S
C1180 C1182 1.395 . S
C1180 C1183 1.403 . S
H1181 C1187 0.930 . S
C1182 H1168 0.930 . S
C1182 C1180 1.395 . S
C1182 C1185 1.403 . S
C1183 C1180 1.403 . S
C1183 C1184 1.524 . S
C1183 C1187 1.400 . S
C1184 H1169 0.960 . S
C1184 H1170 0.960 . S
C1184 H1171 0.960 . S
C1184 C1183 1.524 . S
C1185 C1182 1.403 . S
C1185 C1186 1.392 . S
C1185 C1189 1.495 . S
C1186 C1185 1.392 . S
C1186 C1187 1.385 . S
C1186 C1188 1.478 . S
C1187 H1181 0.930 . S
C1187 C1183 1.400 . S
C1187 C1186 1.385 . S
C1188 C1186 1.478 . S
C1188 C1190 1.381 . S
C1188 C1194 1.383 . S
C1189 C1185 1.495 . S
C1189 H1195 0.959 . S
C1189 H1196 0.961 . S
C1189 H1197 0.960 . S
C1190 C1188 1.381 . S
C1190 C1191 1.394 . S
C1190 H1198 0.930 . S
C1191 C1190 1.394 . S
C1191 C1192 1.383 . S
C1191 H1199 0.929 . S
C1192 C1191 1.383 . S
C1192 C1193 1.377 . S
C1193 H1177 0.930 . S
C1193 C1192 1.377 . S
C1193 C1194 1.379 . S
C1194 H1178 0.931 . S
C1194 C1188 1.383 . S
C1194 C1193 1.379 . S
H1195 C1189 0.959 . S
H1196 C1189 0.961 . S
H1197 C1189 0.960 . S
H1198 C1190 0.930 . S
H1199 C1191 0.929 . S
H1200 C1208 0.929 . S
H1201 C1210 0.930 . S
H1202 C1212 0.930 . S
H1203 C1215 0.929 . S
H1204 C1218 0.930 . S
H1205 C1220 0.960 . S
H1206 C1220 0.960 . S
H1207 C1220 0.960 . S
C1208 H1200 0.929 . S
C1208 C1209 1.377 . S
C1208 C1210 1.384 . S
C1209 C1208 1.377 . S
C1209 C1215 1.390 . S
C1210 H1201 0.930 . S
C1210 C1208 1.384 . S
C1210 C1211 1.372 . S
C1211 C1210 1.372 . S
C1211 C1212 1.400 . S
C1211 C1216 1.490 . S
C1212 H1202 0.930 . S
C1212 C1211 1.400 . S
C1212 C1215 1.386 . S
H1213 C1229 0.930 . S
H1214 C1230 0.931 . S
C1215 H1203 0.929 . S
C1215 C1209 1.390 . S
C1215 C1212 1.386 . S
C1216 C1211 1.490 . S
C1216 C1218 1.395 . S
C1216 C1219 1.403 . S
H1217 C1223 0.930 . S
C1218 H1204 0.930 . S
C1218 C1216 1.395 . S
C1218 C1221 1.403 1_655 S
C1219 C1216 1.403 . S
C1219 C1220 1.524 . S
C1219 C1223 1.400 . S
C1220 H1205 0.960 . S
C1220 H1206 0.960 . S
C1220 H1207 0.960 . S
C1220 C1219 1.524 . S
C1221 C1218 1.403 1_455 S
C1221 C1222 1.392 . S
C1221 C1225 1.495 . S
C1222 C1221 1.392 . S
C1222 C1223 1.385 1_455 S
C1222 C1224 1.478 . S
C1223 H1217 0.930 . S
C1223 C1219 1.400 . S
C1223 C1222 1.385 1_655 S
C1224 C1222 1.478 . S
C1224 C1226 1.381 . S
C1224 C1230 1.383 . S
C1225 C1221 1.495 . S
C1225 H1231 0.959 . S
C1225 H1232 0.961 . S
C1225 H1233 0.960 . S
C1226 C1224 1.381 . S
C1226 C1227 1.394 . S
C1226 H1234 0.930 . S
C1227 C1226 1.394 . S
C1227 C1228 1.383 . S
C1227 H1235 0.929 . S
C1228 C1227 1.383 . S
C1228 C1229 1.377 . S
C1229 H1213 0.930 . S
C1229 C1228 1.377 . S
C1229 C1230 1.379 . S
C1230 H1214 0.931 . S
C1230 C1224 1.383 . S
C1230 C1229 1.379 . S
H1231 C1225 0.959 . S
H1232 C1225 0.961 . S
H1233 C1225 0.960 . S
H1234 C1226 0.930 . S
H1235 C1227 0.929 . S
H1236 C1244 0.929 . S
H1237 C1246 0.930 . S
H1238 C1248 0.930 . S
H1239 C1251 0.929 . S
H1240 C1254 0.930 . S
H1241 C1256 0.960 . S
H1242 C1256 0.960 . S
H1243 C1256 0.960 . S
C1244 H1236 0.929 . S
C1244 C1245 1.377 . S
C1244 C1246 1.384 . S
C1245 C1244 1.377 . S
C1245 C1251 1.390 . S
C1246 H1237 0.930 . S
C1246 C1244 1.384 . S
C1246 C1247 1.372 . S
C1247 C1246 1.372 . S
C1247 C1248 1.400 . S
C1247 C1252 1.490 . S
C1248 H1238 0.930 . S
C1248 C1247 1.400 . S
C1248 C1251 1.386 . S
H1249 C1265 0.930 . S
H1250 C1266 0.931 . S
C1251 H1239 0.929 . S
C1251 C1245 1.390 . S
C1251 C1248 1.386 . S
C1252 C1247 1.490 . S
C1252 C1254 1.395 . S
C1252 C1255 1.403 . S
H1253 C1259 0.930 . S
C1254 H1240 0.930 . S
C1254 C1252 1.395 . S
C1254 C1257 1.403 . S
C1255 C1252 1.403 . S
C1255 C1256 1.524 . S
C1255 C1259 1.400 1_565 S
C1256 H1241 0.960 . S
C1256 H1242 0.960 . S
C1256 H1243 0.960 . S
C1256 C1255 1.524 . S
C1257 C1254 1.403 . S
C1257 C1258 1.392 1_565 S
C1257 C1261 1.495 1_565 S
C1258 C1257 1.392 1_545 S
C1258 C1259 1.385 . S
C1258 C1260 1.478 . S
C1259 H1253 0.930 . S
C1259 C1255 1.400 1_545 S
C1259 C1258 1.385 . S
C1260 C1258 1.478 . S
C1260 C1262 1.381 . S
C1260 C1266 1.383 . S
C1261 C1257 1.495 1_545 S
C1261 H1267 0.959 1_545 S
C1261 H1268 0.961 . S
C1261 H1269 0.960 1_545 S
C1262 C1260 1.381 . S
C1262 C1263 1.394 . S
C1262 H1270 0.930 . S
C1263 C1262 1.394 . S
C1263 C1264 1.383 . S
C1263 H1271 0.929 . S
C1264 C1263 1.383 . S
C1264 C1265 1.377 . S
C1265 H1249 0.930 . S
C1265 C1264 1.377 . S
C1265 C1266 1.379 . S
C1266 H1250 0.931 . S
C1266 C1260 1.383 . S
C1266 C1265 1.379 . S
H1267 C1261 0.959 1_565 S
H1268 C1261 0.961 . S
H1269 C1261 0.960 1_565 S
H1270 C1262 0.930 . S
H1271 C1263 0.929 . S
H1272 C1280 0.929 . S
H1273 C1282 0.930 . S
H1274 C1284 0.930 . S
H1275 C1287 0.929 . S
H1276 C1290 0.930 . S
H1277 C1292 0.960 . S
H1278 C1292 0.960 . S
H1279 C1292 0.960 . S
C1280 H1272 0.929 . S
C1280 C1281 1.377 . S
C1280 C1282 1.384 . S
C1281 C1280 1.377 . S
C1281 C1287 1.390 . S
C1282 H1273 0.930 . S
C1282 C1280 1.384 . S
C1282 C1283 1.372 . S
C1283 C1282 1.372 . S
C1283 C1284 1.400 . S
C1283 C1288 1.490 . S
C1284 H1274 0.930 . S
C1284 C1283 1.400 . S
C1284 C1287 1.386 . S
H1285 C1301 0.930 . S
H1286 C1302 0.931 . S
C1287 H1275 0.929 . S
C1287 C1281 1.390 . S
C1287 C1284 1.386 . S
C1288 C1283 1.490 . S
C1288 C1290 1.395 . S
C1288 C1291 1.403 . S
H1289 C1295 0.930 . S
C1290 H1276 0.930 . S
C1290 C1288 1.395 . S
C1290 C1293 1.403 . S
C1291 C1288 1.403 . S
C1291 C1292 1.524 . S
C1291 C1295 1.400 . S
C1292 H1277 0.960 . S
C1292 H1278 0.960 . S
C1292 H1279 0.960 . S
C1292 C1291 1.524 . S
C1293 C1290 1.403 . S
C1293 C1294 1.392 . S
C1293 C1297 1.495 . S
C1294 C1293 1.392 . S
C1294 C1295 1.385 . S
C1294 C1296 1.478 . S
C1295 H1289 0.930 . S
C1295 C1291 1.400 . S
C1295 C1294 1.385 . S
C1296 C1294 1.478 . S
C1296 C1298 1.381 . S
C1296 C1302 1.383 . S
C1297 C1293 1.495 . S
C1297 H1303 0.959 . S
C1297 H1304 0.961 . S
C1297 H1305 0.960 . S
C1298 C1296 1.381 . S
C1298 C1299 1.394 . S
C1298 H1306 0.930 . S
C1299 C1298 1.394 . S
C1299 C1300 1.383 . S
C1299 H1307 0.929 . S
C1300 C1299 1.383 . S
C1300 C1301 1.377 . S
C1301 H1285 0.930 . S
C1301 C1300 1.377 . S
C1301 C1302 1.379 . S
C1302 H1286 0.931 . S
C1302 C1296 1.383 . S
C1302 C1301 1.379 . S
H1303 C1297 0.959 . S
H1304 C1297 0.961 . S
H1305 C1297 0.960 . S
H1306 C1298 0.930 . S
H1307 C1299 0.929 . S
H1308 C1316 0.929 . S
H1309 C1318 0.930 . S
H1310 C1320 0.930 . S
H1311 C1323 0.929 . S
H1312 C1326 0.930 . S
H1313 C1328 0.960 . S
H1314 C1328 0.960 . S
H1315 C1328 0.960 . S
C1316 H1308 0.929 . S
C1316 C1317 1.377 . S
C1316 C1318 1.384 . S
C1317 C1316 1.377 . S
C1317 C1323 1.390 . S
C1318 H1309 0.930 . S
C1318 C1316 1.384 . S
C1318 C1319 1.372 . S
C1319 C1318 1.372 . S
C1319 C1320 1.400 . S
C1319 C1324 1.490 . S
C1320 H1310 0.930 . S
C1320 C1319 1.400 . S
C1320 C1323 1.386 . S
H1321 C1337 0.930 . S
H1322 C1338 0.931 . S
C1323 H1311 0.929 . S
C1323 C1317 1.390 . S
C1323 C1320 1.386 . S
C1324 C1319 1.490 . S
C1324 C1326 1.395 . S
C1324 C1327 1.403 1_655 S
H1325 C1331 0.930 . S
C1326 H1312 0.930 . S
C1326 C1324 1.395 . S
C1326 C1329 1.407 . S
C1327 C1324 1.403 1_455 S
C1327 C1328 1.524 . S
C1327 C1331 1.400 . S
C1328 H1313 0.960 . S
C1328 H1314 0.960 . S
C1328 H1315 0.960 . S
C1328 C1327 1.524 . S
C1329 C1326 1.407 . S
C1329 C1330 1.385 1_655 S
C1329 C1333 1.499 . S
C1330 C1329 1.385 1_455 S
C1330 C1331 1.385 . S
C1330 C1332 1.478 . S
C1331 H1325 0.930 . S
C1331 C1327 1.400 . S
C1331 C1330 1.385 . S
C1332 C1330 1.478 . S
C1332 C1334 1.381 . S
C1332 C1338 1.383 . S
C1333 C1329 1.499 . S
C1333 H1339 0.959 . S
C1333 H1340 0.961 . S
C1333 H1341 0.960 1_655 S
C1334 C1332 1.381 . S
C1334 C1335 1.394 . S
C1334 H1342 0.930 . S
C1335 C1334 1.394 . S
C1335 C1336 1.383 . S
C1335 H1343 0.929 . S
C1336 C1335 1.383 . S
C1336 C1337 1.377 . S
C1337 H1321 0.930 . S
C1337 C1336 1.377 . S
C1337 C1338 1.379 . S
C1338 H1322 0.931 . S
C1338 C1332 1.383 . S
C1338 C1337 1.379 . S
H1339 C1333 0.959 . S
H1340 C1333 0.961 . S
H1341 C1333 0.960 1_455 S
H1342 C1334 0.930 . S
H1343 C1335 0.929 . S
H1344 C1352 0.929 . S
H1345 C1354 0.930 . S
H1346 C1356 0.930 . S
H1347 C1359 0.929 . S
H1348 C1362 0.930 . S
H1349 C1364 0.960 . S
H1350 C1364 0.960 . S
H1351 C1364 0.960 . S
C1352 H1344 0.929 . S
C1352 C1353 1.377 . S
C1352 C1354 1.384 . S
C1353 C1352 1.377 . S
C1353 C1359 1.390 . S
C1354 H1345 0.930 . S
C1354 C1352 1.384 . S
C1354 C1355 1.372 . S
C1355 C1354 1.372 . S
C1355 C1356 1.400 . S
C1355 C1360 1.490 . S
C1356 H1346 0.930 . S
C1356 C1355 1.400 . S
C1356 C1359 1.386 . S
H1357 C1373 0.930 . S
H1358 C1374 0.931 . S
C1359 H1347 0.929 . S
C1359 C1353 1.390 . S
C1359 C1356 1.386 . S
C1360 C1355 1.490 . S
C1360 C1362 1.395 1_565 S
C1360 C1363 1.403 . S
H1361 C1367 0.930 1_565 S
C1362 H1348 0.930 . S
C1362 C1360 1.395 1_545 S
C1362 C1365 1.403 . S
C1363 C1360 1.403 . S
C1363 C1364 1.524 . S
C1363 C1367 1.400 1_565 S
C1364 H1349 0.960 . S
C1364 H1350 0.960 . S
C1364 H1351 0.960 . S
C1364 C1363 1.524 . S
C1365 C1362 1.403 . S
C1365 C1366 1.392 . S
C1365 C1369 1.495 . S
C1366 C1365 1.392 . S
C1366 C1367 1.385 . S
C1366 C1368 1.478 . S
C1367 H1361 0.930 1_545 S
C1367 C1363 1.400 1_545 S
C1367 C1366 1.385 . S
C1368 C1366 1.478 . S
C1368 C1370 1.381 . S
C1368 C1374 1.383 . S
C1369 C1365 1.495 . S
C1369 H1375 0.959 . S
C1369 H1376 0.961 . S
C1369 H1377 0.960 . S
C1370 C1368 1.381 . S
C1370 C1371 1.394 . S
C1370 H1378 0.930 . S
C1371 C1370 1.394 . S
C1371 C1372 1.383 . S
C1371 H1379 0.929 . S
C1372 C1371 1.383 . S
C1372 C1373 1.377 . S
C1373 H1357 0.930 . S
C1373 C1372 1.377 . S
C1373 C1374 1.379 . S
C1374 H1358 0.931 . S
C1374 C1368 1.383 . S
C1374 C1373 1.379 . S
H1375 C1369 0.959 . S
H1376 C1369 0.961 . S
H1377 C1369 0.960 . S
H1378 C1370 0.930 . S
H1379 C1371 0.929 . S
H1380 C1388 0.929 . S
H1381 C1390 0.930 . S
H1382 C1392 0.930 . S
H1383 C1395 0.929 . S
H1384 C1398 0.930 . S
H1385 C1400 0.960 . S
H1386 C1400 0.960 . S
H1387 C1400 0.960 . S
C1388 H1380 0.929 . S
C1388 C1389 1.377 . S
C1388 C1390 1.384 . S
C1389 C1388 1.377 . S
C1389 C1395 1.390 . S
C1390 H1381 0.930 . S
C1390 C1388 1.384 . S
C1390 C1391 1.372 . S
C1391 C1390 1.372 . S
C1391 C1392 1.400 . S
C1391 C1396 1.490 . S
C1392 H1382 0.930 . S
C1392 C1391 1.400 . S
C1392 C1395 1.386 . S
H1393 C1409 0.930 . S
H1394 C1410 0.931 . S
C1395 H1383 0.929 . S
C1395 C1389 1.390 . S
C1395 C1392 1.386 . S
C1396 C1391 1.490 . S
C1396 C1398 1.395 . S
C1396 C1399 1.403 . S
H1397 C1403 0.930 . S
C1398 H1384 0.930 . S
C1398 C1396 1.395 . S
C1398 C1401 1.403 . S
C1399 C1396 1.403 . S
C1399 C1400 1.524 . S
C1399 C1403 1.400 . S
C1400 H1385 0.960 . S
C1400 H1386 0.960 . S
C1400 H1387 0.960 . S
C1400 C1399 1.524 . S
C1401 C1398 1.403 . S
C1401 C1402 1.392 . S
C1401 C1405 1.495 . S
C1402 C1401 1.392 . S
C1402 C1403 1.385 . S
C1402 C1404 1.478 . S
C1403 H1397 0.930 . S
C1403 C1399 1.400 . S
C1403 C1402 1.385 . S
C1404 C1402 1.478 . S
C1404 C1406 1.381 . S
C1404 C1410 1.383 . S
C1405 C1401 1.495 . S
C1405 H1411 0.959 . S
C1405 H1412 0.961 . S
C1405 H1413 0.960 . S
C1406 C1404 1.381 . S
C1406 C1407 1.394 . S
C1406 H1414 0.930 . S
C1407 C1406 1.394 . S
C1407 C1408 1.383 . S
C1407 H1415 0.929 . S
C1408 C1407 1.383 . S
C1408 C1409 1.377 . S
C1409 H1393 0.930 . S
C1409 C1408 1.377 . S
C1409 C1410 1.379 . S
C1410 H1394 0.931 . S
C1410 C1404 1.383 . S
C1410 C1409 1.379 . S
H1411 C1405 0.959 . S
H1412 C1405 0.961 . S
H1413 C1405 0.960 . S
H1414 C1406 0.930 . S
H1415 C1407 0.929 . S
H1416 C1424 0.929 . S
H1417 C1426 0.930 . S
H1418 C1428 0.930 . S
H1419 C1431 0.929 . S
H1420 C1434 0.930 . S
H1421 C1436 0.960 . S
H1422 C1436 0.960 . S
H1423 C1436 0.960 . S
C1424 H1416 0.929 . S
C1424 C1425 1.377 . S
C1424 C1426 1.384 . S
C1425 C1424 1.377 . S
C1425 C1431 1.390 . S
C1426 H1417 0.930 . S
C1426 C1424 1.384 . S
C1426 C1427 1.372 . S
C1427 C1426 1.372 . S
C1427 C1428 1.400 . S
C1427 C1432 1.490 . S
C1428 H1418 0.930 . S
C1428 C1427 1.400 . S
C1428 C1431 1.386 . S
H1429 C1445 0.930 . S
H1430 C1446 0.931 . S
C1431 H1419 0.929 . S
C1431 C1425 1.390 . S
C1431 C1428 1.386 . S
C1432 C1427 1.490 . S
C1432 C1434 1.395 1_655 S
C1432 C1435 1.403 . S
H1433 C1439 0.930 . S
C1434 H1420 0.930 . S
C1434 C1432 1.395 1_455 S
C1434 C1437 1.403 . S
C1435 C1432 1.403 . S
C1435 C1436 1.524 . S
C1435 C1439 1.400 . S
C1436 H1421 0.960 . S
C1436 H1422 0.960 . S
C1436 H1423 0.960 . S
C1436 C1435 1.524 . S
C1437 C1434 1.403 . S
C1437 C1438 1.392 . S
C1437 C1441 1.495 . S
C1438 C1437 1.392 . S
C1438 C1439 1.385 1_455 S
C1438 C1440 1.478 . S
C1439 H1433 0.930 . S
C1439 C1435 1.400 . S
C1439 C1438 1.385 1_655 S
C1440 C1438 1.478 . S
C1440 C1442 1.381 . S
C1440 C1446 1.383 . S
C1441 C1437 1.495 . S
C1441 H1447 0.959 . S
C1441 H1448 0.961 . S
C1441 H1449 0.960 . S
C1442 C1440 1.381 . S
C1442 C1443 1.394 . S
C1442 H1450 0.930 . S
C1443 C1442 1.394 . S
C1443 C1444 1.383 . S
C1443 H1451 0.929 . S
C1444 C1443 1.383 . S
C1444 C1445 1.377 . S
C1445 H1429 0.930 . S
C1445 C1444 1.377 . S
C1445 C1446 1.379 . S
C1446 H1430 0.931 . S
C1446 C1440 1.383 . S
C1446 C1445 1.379 . S
H1447 C1441 0.959 . S
H1448 C1441 0.961 . S
H1449 C1441 0.960 . S
H1450 C1442 0.930 . S
H1451 C1443 0.929 . S
H1452 C1460 0.929 . S
H1453 C1462 0.930 . S
H1454 C1464 0.930 . S
H1455 C1467 0.929 . S
H1456 C1470 0.930 . S
H1457 C1472 0.960 . S
H1458 C1472 0.960 . S
H1459 C1472 0.960 . S
C1460 H1452 0.929 . S
C1460 C1461 1.377 . S
C1460 C1462 1.384 . S
C1461 C1460 1.377 . S
C1461 C1467 1.390 . S
C1462 H1453 0.930 . S
C1462 C1460 1.384 . S
C1462 C1463 1.372 . S
C1463 C1462 1.372 . S
C1463 C1464 1.400 . S
C1463 C1468 1.490 . S
C1464 H1454 0.930 . S
C1464 C1463 1.400 . S
C1464 C1467 1.386 . S
H1465 C1481 0.930 . S
H1466 C1482 0.931 . S
C1467 H1455 0.929 . S
C1467 C1461 1.390 . S
C1467 C1464 1.386 . S
C1468 C1463 1.490 . S
C1468 C1470 1.395 . S
C1468 C1471 1.403 1_545 S
H1469 C1475 0.930 . S
C1470 H1456 0.930 . S
C1470 C1468 1.395 . S
C1470 C1473 1.403 . S
C1471 C1468 1.403 1_565 S
C1471 C1472 1.524 . S
C1471 C1475 1.400 . S
C1472 H1457 0.960 . S
C1472 H1458 0.960 . S
C1472 H1459 0.960 . S
C1472 C1471 1.524 . S
C1473 C1470 1.403 . S
C1473 C1474 1.392 1_545 S
C1473 C1477 1.495 . S
C1474 C1473 1.392 1_565 S
C1474 C1475 1.385 . S
C1474 C1476 1.478 . S
C1475 H1469 0.930 . S
C1475 C1471 1.400 . S
C1475 C1474 1.385 . S
C1476 C1474 1.478 . S
C1476 C1478 1.381 . S
C1476 C1482 1.383 . S
C1477 C1473 1.495 . S
C1477 H1483 0.959 . S
C1477 H1484 0.961 . S
C1477 H1485 0.960 . S
C1478 C1476 1.381 . S
C1478 C1479 1.394 . S
C1478 H1486 0.930 . S
C1479 C1478 1.394 . S
C1479 C1480 1.383 . S
C1479 H1487 0.929 . S
C1480 C1479 1.383 . S
C1480 C1481 1.377 . S
C1481 H1465 0.930 . S
C1481 C1480 1.377 . S
C1481 C1482 1.379 . S
C1482 H1466 0.931 . S
C1482 C1476 1.383 . S
C1482 C1481 1.379 . S
H1483 C1477 0.959 . S
H1484 C1477 0.961 . S
H1485 C1477 0.960 . S
H1486 C1478 0.930 . S
H1487 C1479 0.929 . S
C417 C5 0.572 . S
C436 C277 0.580 . S
C453 C311 0.573 . S
C472 C39 0.592 . S
C489 C345 0.572 . S
C508 C73 0.555 . S
C525 C107 0.589 . S
C544 C379 0.635 . S
C561 C141 0.593 . S
C580 C209 0.585 . S
C597 C175 0.589 . S
C616 C243 0.556 . S
C633 C247 1.484 . S
C652 C33 1.511 . S
C669 C67 1.516 . S
C688 C281 1.465 . S
C705 C315 1.483 . S
C724 C101 1.512 . S
C741 C349 1.484 . S
C760 C135 1.507 . S
C777 C383 1.487 . S
C796 C169 1.500 . S
C813 C213 1.487 . S
C832 C203 1.501 . S
C849 C179 1.490 . S
C868 C237 1.521 . S
C885 C271 1.519 . S
C904 C9 1.459 1_556 S
C921 C305 1.516 . S
C940 C43 1.507 . S
C957 C77 1.489 . S
C976 C339 1.496 . S
C993 C111 1.486 . S
C1012 C373 1.502 . S
C1029 C145 1.488 . S
C1048 C407 1.526 . S
C1065 C190 1.154 . S
C1084 C2 1.161 1_556 S
C1101 C20 1.158 . S
C1120 C36 1.170 . S
C1137 C70 1.138 . S
C1156 C54 1.139 . S
C1173 C88 1.150 . S
C1192 C104 1.134 . S
C1209 C122 1.156 . S
C1228 C138 1.140 . S
C1245 C156 1.152 . S
C1264 C172 1.119 . S
C1281 C206 1.138 . S
C1300 C258 1.126 . S
C1317 C240 1.141 1_554 S
C1336 C292 1.130 . S
C1353 C274 1.144 . S
C1372 C326 1.165 . S
C1389 C360 1.157 . S
C1408 C308 1.147 . S
C1425 C394 1.158 . S
C1444 C342 1.170 . S
C1461 C376 1.147 . S
C1480 C224 1.149 . S
