# Generated by pormake.
# Topology lcy-e, (6)-cn, num edge types: 1
# Building blocks:
#     Node 0, Type 0, BuildingBlock: UKALOJ_clean_sbu_0, # of connection points: 6
#     Node 1, Type 0, BuildingBlock: UKALOJ_clean_sbu_0, # of connection points: 6
#     Node 2, Type 0, BuildingBlock: UKALOJ_clean_sbu_0, # of connection points: 6
#     Node 3, Type 0, BuildingBlock: UKALOJ_clean_sbu_0, # of connection points: 6
#     Node 4, Type 0, BuildingBlock: UKALOJ_clean_sbu_0, # of connection points: 6
#     Node 5, Type 0, BuildingBlock: UKALOJ_clean_sbu_0, # of connection points: 6
#     Node 6, Type 0, BuildingBlock: UKALOJ_clean_sbu_0, # of connection points: 6
#     Node 7, Type 0, BuildingBlock: UKALOJ_clean_sbu_0, # of connection points: 6
#     Node 8, Type 0, BuildingBlock: UKALOJ_clean_sbu_0, # of connection points: 6
#     Node 9, Type 0, BuildingBlock: UKALOJ_clean_sbu_0, # of connection points: 6
#     Node 10, Type 0, BuildingBlock: UKALOJ_clean_sbu_0, # of connection points: 6
#     Node 11, Type 0, BuildingBlock: UKALOJ_clean_sbu_0, # of connection points: 6
#     Edge 12, Type (0, 0), None
#     Edge 13, Type (0, 0), None
#     Edge 14, Type (0, 0), None
#     Edge 15, Type (0, 0), None
#     Edge 16, Type (0, 0), None
#     Edge 17, Type (0, 0), None
#     Edge 18, Type (0, 0), None
#     Edge 19, Type (0, 0), None
#     Edge 20, Type (0, 0), None
#     Edge 21, Type (0, 0), None
#     Edge 22, Type (0, 0), None
#     Edge 23, Type (0, 0), None
#     Edge 24, Type (0, 0), None
#     Edge 25, Type (0, 0), None
#     Edge 26, Type (0, 0), None
#     Edge 27, Type (0, 0), None
#     Edge 28, Type (0, 0), None
#     Edge 29, Type (0, 0), None
#     Edge 30, Type (0, 0), None
#     Edge 31, Type (0, 0), None
#     Edge 32, Type (0, 0), None
#     Edge 33, Type (0, 0), None
#     Edge 34, Type (0, 0), None
#     Edge 35, Type (0, 0), None
#     Edge 36, Type (0, 0), None
#     Edge 37, Type (0, 0), None
#     Edge 38, Type (0, 0), None
#     Edge 39, Type (0, 0), None
#     Edge 40, Type (0, 0), None
#     Edge 41, Type (0, 0), None
#     Edge 42, Type (0, 0), None
#     Edge 43, Type (0, 0), None
#     Edge 44, Type (0, 0), None
#     Edge 45, Type (0, 0), None
#     Edge 46, Type (0, 0), None
#     Edge 47, Type (0, 0), None
# Relax obj value: 0.262
# Max RMSD: 0.305
# Mean RMSD: 0.305
data_MOF--net-lcy-e--node1-UKALOJ_clean_sbu_0--edge1-none
_symmetry_space_group_name_H-M    P1
_symmetry_Int_Tables_number       1
_symmetry_cell_setting            triclinic
loop_
_symmetry_equiv_pos_as_xyz
'x, y, z'
_cell_length_a     20.111474
_cell_length_b     20.114906
_cell_length_c     20.118323
_cell_angle_alpha  89.882953
_cell_angle_beta   90.115763
_cell_angle_gamma 90.007406
loop_
_atom_site_label
_atom_site_type_symbol
_atom_site_fract_x
_atom_site_fract_y
_atom_site_fract_z
_atom_type_partial_charge
Zn0 Zn 0.10914 0.26247 0.43648 0.0
O1 O 0.15185 0.33916 0.46946 0.0
C2 C 0.21109 0.16138 0.39863 0.0
Zn3 Zn 0.12347 0.1866 0.51233 0.0
C4 C 0.18821 0.33357 0.518 0.0
O5 O 0.19903 0.27382 0.54258 0.0
C6 C 0.02096 0.14926 0.41095 0.0
O7 O 0.08108 0.21919 0.5892 0.0
O8 O 0.03388 0.29228 0.5238 0.0
N9 N 0.13173 0.10527 0.57354 0.0
C10 C 0.07913 0.06801 0.59426 0.0
C11 C 0.16694 0.01126 0.61044 0.0
N12 N 0.18611 0.06947 0.58294 0.0
N13 N 0.09997 0.00812 0.6155 0.0
C14 C 0.15301 0.34549 0.31851 0.0
C15 C 0.06484 0.36271 0.26248 0.0
N16 N 0.10059 0.32441 0.35576 0.0
N17 N 0.04598 0.33449 0.32042 0.0
N18 N 0.1318 0.36765 0.25908 0.0
H19 H 0.22321 0.41393 0.3599 0.0
H20 H 0.25966 0.35329 0.30705 0.0
H21 H 0.23608 0.33095 0.38882 0.0
C22 C 0.22148 0.36075 0.34537 0.0
C23 C 0.01101 0.09511 0.61017 0.0
H24 H 0.00993 0.10953 0.66338 0.0
H25 H 0.97254 0.05697 0.60289 0.0
H26 H -0.00361 0.1387 0.58058 0.0
O27 O 0.03669 0.13302 0.47022 0.0
O28 O 0.0505 0.19718 0.38491 0.0
C29 C 0.04471 0.26765 0.58354 0.0
O30 O 0.19543 0.22066 0.38243 0.0
O31 O 0.18181 0.13538 0.4467 0.0
Zn32 Zn 0.96623 0.85732 0.68809 0.0
O33 O 0.8911 0.89943 0.72235 0.0
C34 C 0.06501 0.95918 0.64657 0.0
Zn35 Zn 0.04304 0.87232 0.76179 0.0
C36 C 0.89821 0.93835 0.76839 0.0
O37 O 0.95845 0.94976 0.79124 0.0
C38 C 0.07891 0.76951 0.66173 0.0
O39 O 0.0112 0.83189 0.84089 0.0
O40 O 0.93934 0.7818 0.77639 0.0
N41 N 0.12572 0.88226 0.82098 0.0
C42 C 0.16359 0.83028 0.84228 0.0
C43 C 0.21957 0.91876 0.85703 0.0
N44 N 0.16102 0.93707 0.82952 0.0
N45 N 0.22339 0.85189 0.86291 0.0
C46 C 0.87892 0.89736 0.5727 0.0
C47 C 0.86962 0.81007 0.51372 0.0
N48 N 0.90257 0.8454 0.60909 0.0
N49 N 0.8974 0.79139 0.57201 0.0
N50 N 0.86052 0.8766 0.5119 0.0
H51 H 0.81065 0.95144 0.63346 0.0
H52 H 0.83989 -0.00114 0.56497 0.0
H53 H 0.89248 0.98502 0.63528 0.0
C54 C 0.85513 0.96195 0.60261 0.0
C55 C 0.1374 0.76209 0.85948 0.0
H56 H 0.12644 0.76044 0.91351 0.0
H57 H 0.17527 0.72398 0.8497 0.0
H58 H 0.09211 0.7475 0.83262 0.0
O59 O 0.09512 0.78441 0.72114 0.0
O60 O 0.03163 0.80005 0.63565 0.0
C61 C 0.96382 0.79391 0.83591 0.0
O62 O 0.00477 0.94492 0.63275 0.0
O63 O 0.09267 0.92813 0.69275 0.0
Zn64 Zn 0.35937 0.79517 0.00978 0.0
O65 O 0.40105 0.76278 0.08802 0.0
C66 C 0.46238 0.83206 0.90952 0.0
Zn67 Zn 0.37502 0.71856 0.93583 0.0
C68 C 0.4388 0.71524 0.08315 0.0
O69 O 0.45055 0.69062 0.02375 0.0
C70 C 0.27251 0.81742 0.89438 0.0
O71 O 0.33216 0.6435 0.9703 0.0
O72 O 0.28238 0.71002 0.04003 0.0
N73 N 0.3868 0.65504 0.85684 0.0
C74 C 0.33475 0.63135 0.82067 0.0
C75 C 0.42184 0.6224 0.76138 0.0
N76 N 0.44068 0.65008 0.81956 0.0
N77 N 0.3553 0.61318 0.7598 0.0
C78 C 0.40204 0.91464 0.09152 0.0
C79 C 0.31368 0.97036 0.1076 0.0
N80 N 0.34991 0.87722 0.06987 0.0
N81 N 0.29517 0.91238 0.07925 0.0
N82 N 0.38059 0.97401 0.11328 0.0
H83 H 0.47162 0.8746 0.16158 0.0
H84 H 0.50843 0.92629 0.10002 0.0
H85 H 0.4851 0.844 0.07946 0.0
C86 C 0.47027 0.888 0.10804 0.0
C87 C 0.27039 0.60724 0.85088 0.0
H88 H 0.28129 0.56323 0.88243 0.0
H89 H 0.23373 0.59112 0.81345 0.0
H90 H 0.24699 0.64482 0.8829 0.0
O91 O 0.28771 0.75752 0.88031 0.0
O92 O 0.30251 0.84499 0.94125 0.0
C93 C 0.29357 0.65002 0.01673 0.0
O94 O 0.44659 0.84822 0.96865 0.0
O95 O 0.43288 0.78417 0.88345 0.0
Zn96 Zn 0.51394 0.12554 0.18576 0.0
O97 O 0.58969 0.08326 0.22087 0.0
C98 C 0.41528 0.02279 0.14492 0.0
Zn99 Zn 0.4379 0.10972 0.26006 0.0
C100 C 0.58333 0.0447 0.26751 0.0
O101 O 0.52329 0.03305 0.29057 0.0
C102 C 0.40053 0.21295 0.15927 0.0
O103 O 0.46987 0.15133 0.33825 0.0
O104 O 0.54181 0.20086 0.2735 0.0
N105 N 0.35655 0.09936 0.32109 0.0
C106 C 0.31646 0.1502 0.34056 0.0
C107 C 0.26955 0.06009 0.36945 0.0
N108 N 0.32699 0.04332 0.3389 0.0
N109 N 0.26097 0.12676 0.36889 0.0
C110 C 0.60174 0.08501 0.07143 0.0
C111 C 0.61202 0.17219 0.01213 0.0
N112 N 0.57774 0.13709 0.10711 0.0
N113 N 0.58352 0.19104 0.06983 0.0
N114 N 0.62104 0.10564 0.01088 0.0
H115 H 0.6696 0.03053 0.13278 0.0
H116 H 0.63964 0.98305 0.0648 0.0
H117 H 0.58738 -0.00217 0.13485 0.0
C118 C 0.62489 0.02033 0.10203 0.0
C119 C 0.33463 0.22278 0.34229 0.0
H120 H 0.32239 0.24407 0.3916 0.0
H121 H 0.30429 0.24893 0.30447 0.0
H122 H 0.38745 0.23316 0.33322 0.0
O123 O 0.38535 0.19718 0.21857 0.0
O124 O 0.44773 0.1831 0.13244 0.0
C125 C 0.51759 0.18883 0.33308 0.0
O126 O 0.47512 0.03813 0.13061 0.0
O127 O 0.38785 0.05267 0.19185 0.0
Zn128 Zn 0.60891 0.21894 0.5445 0.0
O129 O 0.65127 0.14271 0.51171 0.0
C130 C 0.71099 0.31996 0.58177 0.0
Zn131 Zn 0.62274 0.29481 0.46899 0.0
C132 C 0.68826 0.1487 0.46388 0.0
O133 O 0.69892 0.20846 0.43936 0.0
C134 C 0.52102 0.33178 0.56987 0.0
O135 O 0.58036 0.26211 0.39217 0.0
O136 O 0.53272 0.18935 0.4574 0.0
N137 N 0.6317 0.37589 0.40784 0.0
C138 C 0.57942 0.41371 0.38729 0.0
C139 C 0.66772 0.46971 0.37141 0.0
N140 N 0.68641 0.41119 0.39863 0.0
N141 N 0.60077 0.4735 0.36639 0.0
C142 C 0.65297 0.13676 0.66318 0.0
C143 C 0.56495 0.12062 0.71939 0.0
N144 N 0.6005 0.15746 0.62559 0.0
N145 N 0.54599 0.14806 0.66105 0.0
N146 N 0.63191 0.11558 0.72295 0.0
H147 H 0.72245 0.0673 0.62264 0.0
H148 H 0.75954 0.12834 0.67475 0.0
H149 H 0.73583 0.14981 0.59269 0.0
C150 C 0.72118 0.12066 0.6365 0.0
C151 C 0.51104 0.38732 0.37102 0.0
H152 H 0.50944 0.37417 0.31749 0.0
H153 H 0.47293 0.42556 0.37932 0.0
H154 H 0.49631 0.34317 0.39965 0.0
O155 O 0.53599 0.34797 0.51047 0.0
O156 O 0.5512 0.28428 0.59595 0.0
C157 C 0.54341 0.21409 0.39772 0.0
O158 O 0.69598 0.26048 0.59775 0.0
O159 O 0.68053 0.34623 0.53455 0.0
Zn160 Zn 0.93831 0.37224 0.71869 0.0
O161 O 0.97058 0.32974 0.64202 0.0
C162 C 0.90067 0.2704 0.82023 0.0
Zn163 Zn 0.01356 0.35838 0.79463 0.0
C164 C 0.0189 0.29324 0.64791 0.0
O165 O 0.04328 0.28241 0.70776 0.0
C166 C 0.91275 0.4607 0.83117 0.0
O167 O 0.09044 0.40039 0.76132 0.0
O168 O 0.02491 0.44805 0.68864 0.0
N169 N 0.07533 0.34996 0.87534 0.0
C170 C 0.09637 0.40242 0.91252 0.0
C171 C 0.1135 0.31433 0.9687 0.0
N172 N 0.08534 0.2954 0.91076 0.0
N173 N 0.11842 0.38128 0.972 0.0
C174 C 0.81755 0.33109 0.63794 0.0
C175 C 0.7701 0.42116 0.60961 0.0
N176 N 0.858 0.38198 0.65657 0.0
N177 N 0.82812 0.43799 0.63917 0.0
N178 N 0.76151 0.3545 0.61055 0.0
H179 H 0.82309 0.23708 0.58718 0.0
H180 H 0.80516 0.23246 0.67425 0.0
H181 H 0.88834 0.24792 0.64579 0.0
C182 C 0.83554 0.25845 0.63647 0.0
C183 C 0.11186 0.47079 0.88558 0.0
H184 H 0.16527 0.47261 0.87189 0.0
H185 H 0.10374 0.50909 0.92365 0.0
H186 H 0.08273 0.48515 0.84159 0.0
O187 O 0.97209 0.44546 0.84757 0.0
O188 O 0.88673 0.43047 0.78373 0.0
C189 C 0.08468 0.43712 0.71308 0.0
O190 O 0.88542 0.28532 0.76066 0.0
O191 O 0.94758 0.30087 0.84696 0.0
Zn192 Zn 0.87404 0.76123 0.04695 0.0
O193 O 0.83079 0.83781 0.01358 0.0
C194 C 0.77122 0.66008 0.08369 0.0
Zn195 Zn 0.85931 0.686 0.97078 0.0
C196 C 0.79453 0.83263 0.96491 0.0
O197 O 0.78404 0.77313 0.93988 0.0
C198 C 0.96161 0.64758 0.07238 0.0
O199 O 0.90318 0.71883 0.89501 0.0
O200 O 0.94957 0.79229 0.96024 0.0
N201 N 0.85009 0.60636 0.90771 0.0
C202 C 0.90113 0.56623 0.88889 0.0
C203 C 0.81131 0.51964 0.85855 0.0
N204 N 0.79423 0.57701 0.889 0.0
N205 N 0.87796 0.51091 0.86007 0.0
C206 C 0.82963 0.84395 0.16446 0.0
C207 C 0.91755 0.86118 0.22084 0.0
N208 N 0.88224 0.82297 0.12752 0.0
N209 N 0.93668 0.83304 0.16308 0.0
N210 N 0.85056 0.86604 0.22393 0.0
H211 H 0.76033 0.91239 0.12135 0.0
H212 H 0.723 0.8531 0.17539 0.0
H213 H 0.74667 0.82904 0.09427 0.0
C214 C 0.76141 0.85948 0.1371 0.0
C215 C 0.97386 0.58393 0.88892 0.0
H216 H -0.00395 0.57219 0.83988 0.0
H217 H -0.00094 0.55291 0.92685 0.0
H218 H 0.98442 0.63652 0.89893 0.0
O219 O 0.94534 0.63205 0.01328 0.0
O220 O 0.93269 0.69548 0.09897 0.0
C221 C 0.93915 0.76758 0.90059 0.0
O222 O 0.78769 0.71892 0.10051 0.0
O223 O 0.79999 0.63436 0.03525 0.0
Zn224 Zn 0.5436 0.61033 0.22123 0.0
O225 O 0.51164 0.65197 0.14302 0.0
C226 C 0.58061 0.71283 0.32153 0.0
Zn227 Zn 0.46756 0.62562 0.29524 0.0
C228 C 0.46429 0.68992 0.14806 0.0
O229 O 0.43991 0.70173 0.20757 0.0
C230 C 0.56608 0.52289 0.33568 0.0
O231 O 0.39227 0.5835 0.26051 0.0
O232 O 0.45899 0.5331 0.19137 0.0
N233 N 0.40418 0.63743 0.37415 0.0
C234 C 0.3805 0.58539 0.41028 0.0
C235 C 0.37149 0.67246 0.46958 0.0
N236 N 0.39919 0.69131 0.41142 0.0
N237 N 0.36232 0.60593 0.47113 0.0
C238 C 0.66551 0.64972 0.14112 0.0
C239 C 0.71168 0.55922 0.11263 0.0
N240 N 0.62484 0.59924 0.16044 0.0
N241 N 0.65392 0.54295 0.14291 0.0
N242 N 0.72093 0.62579 0.11319 0.0
H243 H 0.66068 0.74344 0.08935 0.0
H244 H 0.67793 0.7485 0.17664 0.0
H245 H 0.59496 0.73309 0.14711 0.0
C246 C 0.64782 0.7224 0.1387 0.0
C247 C 0.35623 0.52109 0.38003 0.0
H248 H 0.31189 0.53204 0.34897 0.0
H249 H 0.3406 0.48424 0.4175 0.0
H250 H 0.39348 0.49785 0.34754 0.0
O251 O 0.5061 0.53766 0.3499 0.0
O252 O 0.59364 0.55378 0.28943 0.0
C253 C 0.39897 0.54446 0.2145 0.0
O254 O 0.59582 0.69779 0.26212 0.0
O255 O 0.53378 0.68235 0.34831 0.0
Zn256 Zn 0.18941 0.51405 0.12371 0.0
O257 O 0.22265 0.5919 0.08327 0.0
C258 C 0.14946 0.41622 0.02089 0.0
Zn259 Zn 0.26436 0.43954 0.10745 0.0
C260 C 0.26798 0.5859 0.04322 0.0
O261 O 0.29102 0.52602 0.03062 0.0
C262 C 0.16664 0.39878 0.21012 0.0
O263 O 0.34148 0.47326 0.1481 0.0
O264 O 0.2751 0.54115 0.20078 0.0
N265 N 0.32625 0.35918 0.09449 0.0
C266 C 0.35092 0.32281 0.14602 0.0
C267 C 0.35902 0.26401 0.05851 0.0
N268 N 0.33069 0.32221 0.04035 0.0
N269 N 0.36926 0.26215 0.12489 0.0
C270 C 0.07189 0.59924 0.08558 0.0
C271 C 0.0127 0.60576 0.17294 0.0
N272 N 0.10854 0.57495 0.13705 0.0
N273 N 0.07134 0.57837 0.19111 0.0
N274 N 0.0108 0.61624 0.10661 0.0
H275 H 0.13192 0.66983 0.03336 0.0
H276 H 0.06368 0.64116 0.98534 0.0
H277 H 0.13458 0.58902 -0.00247 0.0
C278 C 0.10158 0.62526 0.02168 0.0
C279 C 0.37586 0.35267 0.21027 0.0
H280 H 0.42059 0.38301 0.19922 0.0
H281 H 0.39116 0.31492 0.24702 0.0
H282 H 0.33926 0.38573 0.23377 0.0
O283 O 0.22679 0.38501 0.19581 0.0
O284 O 0.13894 0.44484 0.17895 0.0
C285 C 0.33509 0.51847 0.18819 0.0
O286 O 0.13537 0.4763 0.03521 0.0
O287 O 0.19568 0.38871 0.052 0.0
Zn288 Zn 0.76551 0.0448 0.87528 0.0
O289 O 0.84143 0.01042 0.83396 0.0
C290 C 0.66678 0.08489 0.7723 0.0
Zn291 Zn 0.68956 0.97066 0.85997 0.0
C292 C 0.8346 0.9645 0.7948 0.0
O293 O 0.77447 0.94159 0.78305 0.0
C294 C 0.65214 0.07077 0.96224 0.0
O295 O 0.7218 0.8922 0.90113 0.0
O296 O 0.7931 0.95707 0.95142 0.0
N297 N 0.60851 0.90943 0.84869 0.0
C298 C 0.56816 0.88961 0.89916 0.0
C299 C 0.5215 0.86156 0.80866 0.0
N300 N 0.57915 0.89213 0.7924 0.0
N301 N 0.51263 0.86164 0.87525 0.0
C302 C 0.85199 0.16033 0.83479 0.0
C303 C 0.86055 0.22012 0.9216 0.0
N304 N 0.82838 0.12429 0.88691 0.0
N305 N 0.83307 0.16186 0.94062 0.0
N306 N 0.86991 0.22139 0.85512 0.0
H307 H 0.921 0.09947 0.78175 0.0
H308 H 0.89153 0.16741 0.73358 0.0
H309 H 0.83935 0.09693 0.74759 0.0
C310 C 0.87635 0.12998 0.77065 0.0
C311 C 0.58603 0.88723 0.97182 0.0
H312 H 0.57323 0.83787 -0.00705 0.0
H313 H 0.5559 0.92507 -0.0022 0.0
H314 H 0.63889 0.89593 0.98254 0.0
O315 O 0.63719 0.01116 0.94751 0.0
O316 O 0.6988 0.09767 0.93159 0.0
C317 C 0.76912 0.8974 0.93919 0.0
O318 O 0.72689 0.09903 0.78688 0.0
O319 O 0.63918 0.03886 0.80353 0.0
Zn320 Zn 0.71716 0.93753 0.37463 0.0
O321 O 0.64101 0.97231 0.33283 0.0
C322 C 0.81549 0.89717 0.27256 0.0
Zn323 Zn 0.79293 0.01193 0.35949 0.0
C324 C 0.64741 0.01868 0.29394 0.0
O325 O 0.70749 0.04176 0.28229 0.0
C326 C 0.82991 0.91128 0.46253 0.0
O327 O 0.76121 0.09002 0.40044 0.0
O328 O 0.68996 0.02469 0.45037 0.0
N329 N 0.87462 0.07268 0.34911 0.0
C330 C 0.91495 0.09204 0.39991 0.0
C331 C 0.9621 0.12011 0.30975 0.0
N332 N 0.90433 0.08997 0.29305 0.0
N333 N 0.97076 0.11976 0.37642 0.0
C334 C 0.62999 0.82258 0.33512 0.0
C335 C 0.62058 0.76361 0.42265 0.0
N336 N 0.65381 0.85878 0.38695 0.0
N337 N 0.6486 0.82175 0.44112 0.0
N338 N 0.61137 0.76193 0.35613 0.0
H339 H 0.56128 0.88306 0.28074 0.0
H340 H 0.59132 0.81506 0.23344 0.0
H341 H 0.64317 0.88569 0.2475 0.0
C342 C 0.6061 0.85263 0.27043 0.0
C343 C 0.89678 0.09439 0.47242 0.0
H344 H 0.9097 0.14369 0.49348 0.0
H345 H 0.92658 0.05639 0.49888 0.0
H346 H 0.84381 0.08599 0.48267 0.0
O347 O 0.84487 0.97089 0.44761 0.0
O348 O 0.78355 0.88428 0.43146 0.0
C349 C 0.71395 0.0844 0.43832 0.0
O350 O 0.75547 0.88282 0.28707 0.0
O351 O 0.84287 0.94364 0.30326 0.0
Zn352 Zn 0.29496 0.4697 0.62259 0.0
O353 O 0.26221 0.39256 0.58036 0.0
C354 C 0.33164 0.57105 0.52017 0.0
Zn355 Zn 0.21934 0.54483 0.60839 0.0
C356 C 0.21388 0.3981 0.5437 0.0
O357 O 0.18944 0.45784 0.53261 0.0
C358 C 0.3205 0.58239 0.71072 0.0
O359 O 0.143 0.51144 0.65085 0.0
O360 O 0.20884 0.43919 0.69862 0.0
N361 N 0.1561 0.6243 0.599 0.0
C362 C 0.13675 0.66403 0.65006 0.0
C363 C 0.10691 0.71116 0.56025 0.0
N364 N 0.13769 0.65395 0.54315 0.0
N365 N 0.10794 0.71945 0.62692 0.0
C366 C 0.4151 0.38871 0.58129 0.0
C367 C 0.46255 0.35978 0.67124 0.0
N368 N 0.37505 0.40757 0.63225 0.0
N369 N 0.4049 0.38979 0.6882 0.0
N370 N 0.4709 0.36078 0.60458 0.0
H371 H 0.40908 0.33833 0.48707 0.0
H372 H 0.42721 0.42544 0.48284 0.0
H373 H 0.34403 0.39689 0.49828 0.0
C374 C 0.39685 0.38753 0.50868 0.0
C375 C 0.1364 0.64589 0.72269 0.0
H376 H 0.08742 0.65797 0.74489 0.0
H377 H 0.17449 0.67645 0.74799 0.0
H378 H 0.14612 0.59315 0.73305 0.0
O379 O 0.261 0.59766 0.6955 0.0
O380 O 0.34731 0.53558 0.68032 0.0
C381 C 0.14897 0.46323 0.68755 0.0
O382 O 0.34725 0.51166 0.53543 0.0
O383 O 0.28464 0.59764 0.55049 0.0
loop_
_geom_bond_atom_site_label_1
_geom_bond_atom_site_label_2
_geom_bond_distance
_geom_bond_site_symmetry_2
_ccdc_geom_bond_type
Zn0 O1 2.055 . S
Zn0 O8 2.046 . S
Zn0 N16 2.036 . S
Zn0 O28 2.053 . S
Zn0 O30 2.066 . S
O1 Zn0 2.055 . S
O1 C4 1.259 . S
C2 O30 1.256 . S
C2 O31 1.244 . S
Zn3 O5 2.046 . S
Zn3 O7 2.055 . S
Zn3 N9 2.036 . S
Zn3 O27 2.066 . S
Zn3 O31 2.053 . S
C4 O1 1.259 . S
C4 O5 1.254 . S
O5 Zn3 2.046 . S
O5 C4 1.254 . S
C6 O27 1.256 . S
C6 O28 1.244 . S
O7 Zn3 2.055 . S
O7 C29 1.259 . S
O8 Zn0 2.046 . S
O8 C29 1.254 . S
N9 Zn3 2.036 . S
N9 C10 1.298 . S
N9 N12 1.398 . S
C10 N9 1.298 . S
C10 N13 1.367 . S
C10 C23 1.481 . S
C11 N12 1.299 . S
C11 N13 1.379 . S
N12 N9 1.398 . S
N12 C11 1.299 . S
N13 C10 1.367 . S
N13 C11 1.379 . S
C14 N16 1.298 . S
C14 N18 1.367 . S
C14 C22 1.481 . S
C15 N17 1.299 . S
C15 N18 1.379 . S
N16 Zn0 2.036 . S
N16 C14 1.298 . S
N16 N17 1.398 . S
N17 C15 1.299 . S
N17 N16 1.398 . S
N18 C14 1.367 . S
N18 C15 1.379 . S
H19 C22 0.980 . S
H20 C22 0.981 . S
H21 C22 0.981 . S
C22 C14 1.481 . S
C22 H19 0.980 . S
C22 H20 0.981 . S
C22 H21 0.981 . S
C23 C10 1.481 . S
C23 H24 0.980 . S
C23 H25 0.981 . S
C23 H26 0.981 . S
H24 C23 0.980 . S
H25 C23 0.981 . S
H26 C23 0.981 . S
O27 Zn3 2.066 . S
O27 C6 1.256 . S
O28 Zn0 2.053 . S
O28 C6 1.244 . S
C29 O7 1.259 . S
C29 O8 1.254 . S
O30 Zn0 2.066 . S
O30 C2 1.256 . S
O31 C2 1.244 . S
O31 Zn3 2.053 . S
Zn32 O33 2.055 . S
Zn32 O40 2.046 . S
Zn32 N48 2.036 . S
Zn32 O60 2.053 1_655 S
Zn32 O62 2.066 . S
O33 Zn32 2.055 . S
O33 C36 1.259 . S
C34 O62 1.256 1_455 S
C34 O63 1.244 . S
Zn35 O37 2.046 1_455 S
Zn35 O39 2.055 1_455 S
Zn35 N41 2.036 . S
Zn35 O59 2.066 . S
Zn35 O63 2.053 . S
C36 O33 1.259 . S
C36 O37 1.254 . S
O37 Zn35 2.046 1_655 S
O37 C36 1.254 . S
C38 O59 1.256 . S
C38 O60 1.244 . S
O39 Zn35 2.055 1_655 S
O39 C61 1.259 . S
O40 Zn32 2.046 . S
O40 C61 1.254 . S
N41 Zn35 2.036 . S
N41 C42 1.298 . S
N41 N44 1.398 . S
C42 N41 1.298 . S
C42 N45 1.367 . S
C42 C55 1.481 . S
C43 N44 1.299 . S
C43 N45 1.379 . S
N44 N41 1.398 . S
N44 C43 1.299 . S
N45 C42 1.367 . S
N45 C43 1.379 . S
C46 N48 1.298 . S
C46 N50 1.367 . S
C46 C54 1.481 . S
C47 N49 1.299 . S
C47 N50 1.379 . S
N48 Zn32 2.036 . S
N48 C46 1.298 . S
N48 N49 1.398 . S
N49 C47 1.299 . S
N49 N48 1.398 . S
N50 C46 1.367 . S
N50 C47 1.379 . S
H51 C54 0.980 . S
H52 C54 0.981 . S
H53 C54 0.981 . S
C54 C46 1.481 . S
C54 H51 0.980 . S
C54 H52 0.981 . S
C54 H53 0.981 . S
C55 C42 1.481 . S
C55 H56 0.980 . S
C55 H57 0.981 . S
C55 H58 0.981 . S
H56 C55 0.980 . S
H57 C55 0.981 . S
H58 C55 0.981 . S
O59 Zn35 2.066 . S
O59 C38 1.256 . S
O60 Zn32 2.053 1_455 S
O60 C38 1.244 . S
C61 O39 1.259 . S
C61 O40 1.254 . S
O62 Zn32 2.066 . S
O62 C34 1.256 1_655 S
O63 C34 1.244 . S
O63 Zn35 2.053 . S
Zn64 O65 2.055 . S
Zn64 O72 2.046 . S
Zn64 N80 2.036 . S
Zn64 O92 2.053 1_554 S
Zn64 O94 2.066 . S
O65 Zn64 2.055 . S
O65 C68 1.259 . S
C66 O94 1.256 1_556 S
C66 O95 1.244 . S
Zn67 O69 2.046 1_556 S
Zn67 O71 2.055 1_556 S
Zn67 N73 2.036 . S
Zn67 O91 2.066 . S
Zn67 O95 2.053 . S
C68 O65 1.259 . S
C68 O69 1.254 . S
O69 Zn67 2.046 1_554 S
O69 C68 1.254 . S
C70 O91 1.256 . S
C70 O92 1.244 . S
O71 Zn67 2.055 1_554 S
O71 C93 1.259 . S
O72 Zn64 2.046 . S
O72 C93 1.254 . S
N73 Zn67 2.036 . S
N73 C74 1.298 . S
N73 N76 1.398 . S
C74 N73 1.298 . S
C74 N77 1.367 . S
C74 C87 1.481 . S
C75 N76 1.299 . S
C75 N77 1.379 . S
N76 N73 1.398 . S
N76 C75 1.299 . S
N77 C74 1.367 . S
N77 C75 1.379 . S
C78 N80 1.298 . S
C78 N82 1.367 . S
C78 C86 1.481 . S
C79 N81 1.299 . S
C79 N82 1.379 . S
N80 Zn64 2.036 . S
N80 C78 1.298 . S
N80 N81 1.398 . S
N81 C79 1.299 . S
N81 N80 1.398 . S
N82 C78 1.367 . S
N82 C79 1.379 . S
H83 C86 0.980 . S
H84 C86 0.981 . S
H85 C86 0.981 . S
C86 C78 1.481 . S
C86 H83 0.980 . S
C86 H84 0.981 . S
C86 H85 0.981 . S
C87 C74 1.481 . S
C87 H88 0.980 . S
C87 H89 0.981 . S
C87 H90 0.981 . S
H88 C87 0.980 . S
H89 C87 0.981 . S
H90 C87 0.981 . S
O91 Zn67 2.066 . S
O91 C70 1.256 . S
O92 Zn64 2.053 1_556 S
O92 C70 1.244 . S
C93 O71 1.259 . S
C93 O72 1.254 . S
O94 Zn64 2.066 . S
O94 C66 1.256 1_554 S
O95 C66 1.244 . S
O95 Zn67 2.053 . S
Zn96 O97 2.055 . S
Zn96 O104 2.046 . S
Zn96 N112 2.036 . S
Zn96 O124 2.053 . S
Zn96 O126 2.066 . S
O97 Zn96 2.055 . S
O97 C100 1.259 . S
C98 O126 1.256 . S
C98 O127 1.244 . S
Zn99 O101 2.046 . S
Zn99 O103 2.055 . S
Zn99 N105 2.036 . S
Zn99 O123 2.066 . S
Zn99 O127 2.053 . S
C100 O97 1.259 . S
C100 O101 1.254 . S
O101 Zn99 2.046 . S
O101 C100 1.254 . S
C102 O123 1.256 . S
C102 O124 1.244 . S
O103 Zn99 2.055 . S
O103 C125 1.259 . S
O104 Zn96 2.046 . S
O104 C125 1.254 . S
N105 Zn99 2.036 . S
N105 C106 1.298 . S
N105 N108 1.398 . S
C106 N105 1.298 . S
C106 N109 1.367 . S
C106 C119 1.481 . S
C107 N108 1.299 . S
C107 N109 1.379 . S
N108 N105 1.398 . S
N108 C107 1.299 . S
N109 C106 1.367 . S
N109 C107 1.379 . S
C110 N112 1.298 . S
C110 N114 1.367 . S
C110 C118 1.481 . S
C111 N113 1.299 . S
C111 N114 1.379 . S
N112 Zn96 2.036 . S
N112 C110 1.298 . S
N112 N113 1.398 . S
N113 C111 1.299 . S
N113 N112 1.398 . S
N114 C110 1.367 . S
N114 C111 1.379 . S
H115 C118 0.980 . S
H116 C118 0.981 . S
H117 C118 0.981 . S
C118 C110 1.481 . S
C118 H115 0.980 . S
C118 H116 0.981 . S
C118 H117 0.981 . S
C119 C106 1.481 . S
C119 H120 0.980 . S
C119 H121 0.981 . S
C119 H122 0.981 . S
H120 C119 0.980 . S
H121 C119 0.981 . S
H122 C119 0.981 . S
O123 Zn99 2.066 . S
O123 C102 1.256 . S
O124 Zn96 2.053 . S
O124 C102 1.244 . S
C125 O103 1.259 . S
C125 O104 1.254 . S
O126 Zn96 2.066 . S
O126 C98 1.256 . S
O127 C98 1.244 . S
O127 Zn99 2.053 . S
Zn128 O129 2.055 . S
Zn128 O136 2.046 . S
Zn128 N144 2.036 . S
Zn128 O156 2.053 . S
Zn128 O158 2.066 . S
O129 Zn128 2.055 . S
O129 C132 1.259 . S
C130 O158 1.256 . S
C130 O159 1.244 . S
Zn131 O133 2.046 . S
Zn131 O135 2.055 . S
Zn131 N137 2.036 . S
Zn131 O155 2.066 . S
Zn131 O159 2.053 . S
C132 O129 1.259 . S
C132 O133 1.254 . S
O133 Zn131 2.046 . S
O133 C132 1.254 . S
C134 O155 1.256 . S
C134 O156 1.244 . S
O135 Zn131 2.055 . S
O135 C157 1.259 . S
O136 Zn128 2.046 . S
O136 C157 1.254 . S
N137 Zn131 2.036 . S
N137 C138 1.298 . S
N137 N140 1.398 . S
C138 N137 1.298 . S
C138 N141 1.367 . S
C138 C151 1.481 . S
C139 N140 1.299 . S
C139 N141 1.379 . S
N140 N137 1.398 . S
N140 C139 1.299 . S
N141 C138 1.367 . S
N141 C139 1.379 . S
C142 N144 1.298 . S
C142 N146 1.367 . S
C142 C150 1.481 . S
C143 N145 1.299 . S
C143 N146 1.379 . S
N144 Zn128 2.036 . S
N144 C142 1.298 . S
N144 N145 1.398 . S
N145 C143 1.299 . S
N145 N144 1.398 . S
N146 C142 1.367 . S
N146 C143 1.379 . S
H147 C150 0.980 . S
H148 C150 0.981 . S
H149 C150 0.981 . S
C150 C142 1.481 . S
C150 H147 0.980 . S
C150 H148 0.981 . S
C150 H149 0.981 . S
C151 C138 1.481 . S
C151 H152 0.980 . S
C151 H153 0.981 . S
C151 H154 0.981 . S
H152 C151 0.980 . S
H153 C151 0.981 . S
H154 C151 0.981 . S
O155 Zn131 2.066 . S
O155 C134 1.256 . S
O156 Zn128 2.053 . S
O156 C134 1.244 . S
C157 O135 1.259 . S
C157 O136 1.254 . S
O158 Zn128 2.066 . S
O158 C130 1.256 . S
O159 C130 1.244 . S
O159 Zn131 2.053 . S
Zn160 O161 2.055 1_655 S
Zn160 O168 2.046 1_655 S
Zn160 N176 2.036 . S
Zn160 O188 2.053 . S
Zn160 O190 2.066 . S
O161 Zn160 2.055 1_455 S
O161 C164 1.259 . S
C162 O190 1.256 . S
C162 O191 1.244 . S
Zn163 O165 2.046 . S
Zn163 O167 2.055 . S
Zn163 N169 2.036 . S
Zn163 O187 2.066 . S
Zn163 O191 2.053 1_455 S
C164 O161 1.259 . S
C164 O165 1.254 . S
O165 Zn163 2.046 . S
O165 C164 1.254 . S
C166 O187 1.256 1_655 S
C166 O188 1.244 . S
O167 Zn163 2.055 . S
O167 C189 1.259 . S
O168 Zn160 2.046 1_455 S
O168 C189 1.254 . S
N169 Zn163 2.036 . S
N169 C170 1.298 . S
N169 N172 1.398 . S
C170 N169 1.298 . S
C170 N173 1.367 . S
C170 C183 1.481 . S
C171 N172 1.299 . S
C171 N173 1.379 . S
N172 N169 1.398 . S
N172 C171 1.299 . S
N173 C170 1.367 . S
N173 C171 1.379 . S
C174 N176 1.298 . S
C174 N178 1.367 . S
C174 C182 1.481 . S
C175 N177 1.299 . S
C175 N178 1.379 . S
N176 Zn160 2.036 . S
N176 C174 1.298 . S
N176 N177 1.398 . S
N177 C175 1.299 . S
N177 N176 1.398 . S
N178 C174 1.367 . S
N178 C175 1.379 . S
H179 C182 0.980 . S
H180 C182 0.981 . S
H181 C182 0.981 . S
C182 C174 1.481 . S
C182 H179 0.980 . S
C182 H180 0.981 . S
C182 H181 0.981 . S
C183 C170 1.481 . S
C183 H184 0.980 . S
C183 H185 0.981 . S
C183 H186 0.981 . S
H184 C183 0.980 . S
H185 C183 0.981 . S
H186 C183 0.981 . S
O187 Zn163 2.066 . S
O187 C166 1.256 1_455 S
O188 Zn160 2.053 . S
O188 C166 1.244 . S
C189 O167 1.259 . S
C189 O168 1.254 . S
O190 Zn160 2.066 . S
O190 C162 1.256 . S
O191 C162 1.244 . S
O191 Zn163 2.053 1_655 S
Zn192 O193 2.055 1_554 S
Zn192 O200 2.046 1_554 S
Zn192 N208 2.036 . S
Zn192 O220 2.053 . S
Zn192 O222 2.066 . S
O193 Zn192 2.055 1_556 S
O193 C196 1.259 . S
C194 O222 1.256 . S
C194 O223 1.244 . S
Zn195 O197 2.046 . S
Zn195 O199 2.055 . S
Zn195 N201 2.036 . S
Zn195 O219 2.066 . S
Zn195 O223 2.053 1_556 S
C196 O193 1.259 . S
C196 O197 1.254 . S
O197 Zn195 2.046 . S
O197 C196 1.254 . S
C198 O219 1.256 1_554 S
C198 O220 1.244 . S
O199 Zn195 2.055 . S
O199 C221 1.259 . S
O200 Zn192 2.046 1_556 S
O200 C221 1.254 . S
N201 Zn195 2.036 . S
N201 C202 1.298 . S
N201 N204 1.398 . S
C202 N201 1.298 . S
C202 N205 1.367 . S
C202 C215 1.481 . S
C203 N204 1.299 . S
C203 N205 1.379 . S
N204 N201 1.398 . S
N204 C203 1.299 . S
N205 C202 1.367 . S
N205 C203 1.379 . S
C206 N208 1.298 . S
C206 N210 1.367 . S
C206 C214 1.481 . S
C207 N209 1.299 . S
C207 N210 1.379 . S
N208 Zn192 2.036 . S
N208 C206 1.298 . S
N208 N209 1.398 . S
N209 C207 1.299 . S
N209 N208 1.398 . S
N210 C206 1.367 . S
N210 C207 1.379 . S
H211 C214 0.980 . S
H212 C214 0.981 . S
H213 C214 0.981 . S
C214 C206 1.481 . S
C214 H211 0.980 . S
C214 H212 0.981 . S
C214 H213 0.981 . S
C215 C202 1.481 . S
C215 H216 0.980 . S
C215 H217 0.981 . S
C215 H218 0.981 . S
H216 C215 0.980 . S
H217 C215 0.981 . S
H218 C215 0.981 . S
O219 Zn195 2.066 . S
O219 C198 1.256 1_556 S
O220 Zn192 2.053 . S
O220 C198 1.244 . S
C221 O199 1.259 . S
C221 O200 1.254 . S
O222 Zn192 2.066 . S
O222 C194 1.256 . S
O223 C194 1.244 . S
O223 Zn195 2.053 1_554 S
Zn224 O225 2.055 . S
Zn224 O232 2.046 . S
Zn224 N240 2.036 . S
Zn224 O252 2.053 . S
Zn224 O254 2.066 . S
O225 Zn224 2.055 . S
O225 C228 1.259 . S
C226 O254 1.256 . S
C226 O255 1.244 . S
Zn227 O229 2.046 . S
Zn227 O231 2.055 . S
Zn227 N233 2.036 . S
Zn227 O251 2.066 . S
Zn227 O255 2.053 . S
C228 O225 1.259 . S
C228 O229 1.254 . S
O229 Zn227 2.046 . S
O229 C228 1.254 . S
C230 O251 1.256 . S
C230 O252 1.244 . S
O231 Zn227 2.055 . S
O231 C253 1.259 . S
O232 Zn224 2.046 . S
O232 C253 1.254 . S
N233 Zn227 2.036 . S
N233 C234 1.298 . S
N233 N236 1.398 . S
C234 N233 1.298 . S
C234 N237 1.367 . S
C234 C247 1.481 . S
C235 N236 1.299 . S
C235 N237 1.379 . S
N236 N233 1.398 . S
N236 C235 1.299 . S
N237 C234 1.367 . S
N237 C235 1.379 . S
C238 N240 1.298 . S
C238 N242 1.367 . S
C238 C246 1.481 . S
C239 N241 1.299 . S
C239 N242 1.379 . S
N240 Zn224 2.036 . S
N240 C238 1.298 . S
N240 N241 1.398 . S
N241 C239 1.299 . S
N241 N240 1.398 . S
N242 C238 1.367 . S
N242 C239 1.379 . S
H243 C246 0.980 . S
H244 C246 0.981 . S
H245 C246 0.981 . S
C246 C238 1.481 . S
C246 H243 0.980 . S
C246 H244 0.981 . S
C246 H245 0.981 . S
C247 C234 1.481 . S
C247 H248 0.980 . S
C247 H249 0.981 . S
C247 H250 0.981 . S
H248 C247 0.980 . S
H249 C247 0.981 . S
H250 C247 0.981 . S
O251 Zn227 2.066 . S
O251 C230 1.256 . S
O252 Zn224 2.053 . S
O252 C230 1.244 . S
C253 O231 1.259 . S
C253 O232 1.254 . S
O254 Zn224 2.066 . S
O254 C226 1.256 . S
O255 C226 1.244 . S
O255 Zn227 2.053 . S
Zn256 O257 2.055 . S
Zn256 O264 2.046 . S
Zn256 N272 2.036 . S
Zn256 O284 2.053 . S
Zn256 O286 2.066 . S
O257 Zn256 2.055 . S
O257 C260 1.259 . S
C258 O286 1.256 . S
C258 O287 1.244 . S
Zn259 O261 2.046 . S
Zn259 O263 2.055 . S
Zn259 N265 2.036 . S
Zn259 O283 2.066 . S
Zn259 O287 2.053 . S
C260 O257 1.259 . S
C260 O261 1.254 . S
O261 Zn259 2.046 . S
O261 C260 1.254 . S
C262 O283 1.256 . S
C262 O284 1.244 . S
O263 Zn259 2.055 . S
O263 C285 1.259 . S
O264 Zn256 2.046 . S
O264 C285 1.254 . S
N265 Zn259 2.036 . S
N265 C266 1.298 . S
N265 N268 1.398 . S
C266 N265 1.298 . S
C266 N269 1.367 . S
C266 C279 1.481 . S
C267 N268 1.299 . S
C267 N269 1.379 . S
N268 N265 1.398 . S
N268 C267 1.299 . S
N269 C266 1.367 . S
N269 C267 1.379 . S
C270 N272 1.298 . S
C270 N274 1.367 . S
C270 C278 1.481 . S
C271 N273 1.299 . S
C271 N274 1.379 . S
N272 Zn256 2.036 . S
N272 C270 1.298 . S
N272 N273 1.398 . S
N273 C271 1.299 . S
N273 N272 1.398 . S
N274 C270 1.367 . S
N274 C271 1.379 . S
H275 C278 0.980 . S
H276 C278 0.981 . S
H277 C278 0.981 . S
C278 C270 1.481 . S
C278 H275 0.980 . S
C278 H276 0.981 . S
C278 H277 0.981 . S
C279 C266 1.481 . S
C279 H280 0.980 . S
C279 H281 0.981 . S
C279 H282 0.981 . S
H280 C279 0.980 . S
H281 C279 0.981 . S
H282 C279 0.981 . S
O283 Zn259 2.066 . S
O283 C262 1.256 . S
O284 Zn256 2.053 . S
O284 C262 1.244 . S
C285 O263 1.259 . S
C285 O264 1.254 . S
O286 Zn256 2.066 . S
O286 C258 1.256 . S
O287 C258 1.244 . S
O287 Zn259 2.053 . S
Zn288 O289 2.055 1_545 S
Zn288 O296 2.046 1_545 S
Zn288 N304 2.036 . S
Zn288 O316 2.053 . S
Zn288 O318 2.066 . S
O289 Zn288 2.055 1_565 S
O289 C292 1.259 . S
C290 O318 1.256 . S
C290 O319 1.244 . S
Zn291 O293 2.046 . S
Zn291 O295 2.055 . S
Zn291 N297 2.036 . S
Zn291 O315 2.066 . S
Zn291 O319 2.053 1_565 S
C292 O289 1.259 . S
C292 O293 1.254 . S
O293 Zn291 2.046 . S
O293 C292 1.254 . S
C294 O315 1.256 1_545 S
C294 O316 1.244 . S
O295 Zn291 2.055 . S
O295 C317 1.259 . S
O296 Zn288 2.046 1_565 S
O296 C317 1.254 . S
N297 Zn291 2.036 . S
N297 C298 1.298 . S
N297 N300 1.398 . S
C298 N297 1.298 . S
C298 N301 1.367 . S
C298 C311 1.481 . S
C299 N300 1.299 . S
C299 N301 1.379 . S
N300 N297 1.398 . S
N300 C299 1.299 . S
N301 C298 1.367 . S
N301 C299 1.379 . S
C302 N304 1.298 . S
C302 N306 1.367 . S
C302 C310 1.481 . S
C303 N305 1.299 . S
C303 N306 1.379 . S
N304 Zn288 2.036 . S
N304 C302 1.298 . S
N304 N305 1.398 . S
N305 C303 1.299 . S
N305 N304 1.398 . S
N306 C302 1.367 . S
N306 C303 1.379 . S
H307 C310 0.980 . S
H308 C310 0.981 . S
H309 C310 0.981 . S
C310 C302 1.481 . S
C310 H307 0.980 . S
C310 H308 0.981 . S
C310 H309 0.981 . S
C311 C298 1.481 . S
C311 H312 0.980 . S
C311 H313 0.981 . S
C311 H314 0.981 . S
H312 C311 0.980 . S
H313 C311 0.981 . S
H314 C311 0.981 . S
O315 Zn291 2.066 . S
O315 C294 1.256 1_565 S
O316 Zn288 2.053 . S
O316 C294 1.244 . S
C317 O295 1.259 . S
C317 O296 1.254 . S
O318 Zn288 2.066 . S
O318 C290 1.256 . S
O319 C290 1.244 . S
O319 Zn291 2.053 1_545 S
Zn320 O321 2.055 1_565 S
Zn320 O328 2.046 1_565 S
Zn320 N336 2.036 . S
Zn320 O348 2.053 . S
Zn320 O350 2.066 . S
O321 Zn320 2.055 1_545 S
O321 C324 1.259 . S
C322 O350 1.256 . S
C322 O351 1.244 . S
Zn323 O325 2.046 . S
Zn323 O327 2.055 . S
Zn323 N329 2.036 . S
Zn323 O347 2.066 . S
Zn323 O351 2.053 1_545 S
C324 O321 1.259 . S
C324 O325 1.254 . S
O325 Zn323 2.046 . S
O325 C324 1.254 . S
C326 O347 1.256 1_565 S
C326 O348 1.244 . S
O327 Zn323 2.055 . S
O327 C349 1.259 . S
O328 Zn320 2.046 1_545 S
O328 C349 1.254 . S
N329 Zn323 2.036 . S
N329 C330 1.298 . S
N329 N332 1.398 . S
C330 N329 1.298 . S
C330 N333 1.367 . S
C330 C343 1.481 . S
C331 N332 1.299 . S
C331 N333 1.379 . S
N332 N329 1.398 . S
N332 C331 1.299 . S
N333 C330 1.367 . S
N333 C331 1.379 . S
C334 N336 1.298 . S
C334 N338 1.367 . S
C334 C342 1.481 . S
C335 N337 1.299 . S
C335 N338 1.379 . S
N336 Zn320 2.036 . S
N336 C334 1.298 . S
N336 N337 1.398 . S
N337 C335 1.299 . S
N337 N336 1.398 . S
N338 C334 1.367 . S
N338 C335 1.379 . S
H339 C342 0.980 . S
H340 C342 0.981 . S
H341 C342 0.981 . S
C342 C334 1.481 . S
C342 H339 0.980 . S
C342 H340 0.981 . S
C342 H341 0.981 . S
C343 C330 1.481 . S
C343 H344 0.980 . S
C343 H345 0.981 . S
C343 H346 0.981 . S
H344 C343 0.980 . S
H345 C343 0.981 . S
H346 C343 0.981 . S
O347 Zn323 2.066 . S
O347 C326 1.256 1_545 S
O348 Zn320 2.053 . S
O348 C326 1.244 . S
C349 O327 1.259 . S
C349 O328 1.254 . S
O350 Zn320 2.066 . S
O350 C322 1.256 . S
O351 C322 1.244 . S
O351 Zn323 2.053 1_565 S
Zn352 O353 2.055 . S
Zn352 O360 2.046 . S
Zn352 N368 2.036 . S
Zn352 O380 2.053 . S
Zn352 O382 2.066 . S
O353 Zn352 2.055 . S
O353 C356 1.259 . S
C354 O382 1.256 . S
C354 O383 1.244 . S
Zn355 O357 2.046 . S
Zn355 O359 2.055 . S
Zn355 N361 2.036 . S
Zn355 O379 2.066 . S
Zn355 O383 2.053 . S
C356 O353 1.259 . S
C356 O357 1.254 . S
O357 Zn355 2.046 . S
O357 C356 1.254 . S
C358 O379 1.256 . S
C358 O380 1.244 . S
O359 Zn355 2.055 . S
O359 C381 1.259 . S
O360 Zn352 2.046 . S
O360 C381 1.254 . S
N361 Zn355 2.036 . S
N361 C362 1.298 . S
N361 N364 1.398 . S
C362 N361 1.298 . S
C362 N365 1.367 . S
C362 C375 1.481 . S
C363 N364 1.299 . S
C363 N365 1.379 . S
N364 N361 1.398 . S
N364 C363 1.299 . S
N365 C362 1.367 . S
N365 C363 1.379 . S
C366 N368 1.298 . S
C366 N370 1.367 . S
C366 C374 1.481 . S
C367 N369 1.299 . S
C367 N370 1.379 . S
N368 Zn352 2.036 . S
N368 C366 1.298 . S
N368 N369 1.398 . S
N369 C367 1.299 . S
N369 N368 1.398 . S
N370 C366 1.367 . S
N370 C367 1.379 . S
H371 C374 0.980 . S
H372 C374 0.981 . S
H373 C374 0.981 . S
C374 C366 1.481 . S
C374 H371 0.980 . S
C374 H372 0.981 . S
C374 H373 0.981 . S
C375 C362 1.481 . S
C375 H376 0.980 . S
C375 H377 0.981 . S
C375 H378 0.981 . S
H376 C375 0.980 . S
H377 C375 0.981 . S
H378 C375 0.981 . S
O379 Zn355 2.066 . S
O379 C358 1.256 . S
O380 Zn352 2.053 . S
O380 C358 1.244 . S
C381 O359 1.259 . S
C381 O360 1.254 . S
O382 Zn352 2.066 . S
O382 C354 1.256 . S
O383 C354 1.244 . S
O383 Zn355 2.053 . S
C4 C356 2.404 . S
C292 C36 2.404 . S
C93 C260 2.404 . S
C100 C324 2.404 . S
C132 C349 2.404 . S
C189 C381 2.404 . S
C317 C196 2.404 . S
C253 C285 2.404 . S
C125 C157 2.404 . S
C29 C164 2.404 . S
C61 C221 2.404 . S
C228 C68 2.404 . S
N18 C262 2.069 . S
N50 C326 2.069 . S
C358 N77 2.069 . S
N114 C294 2.069 1_554 S
N146 C290 2.069 . S
C258 N173 2.069 1_554 S
C322 N210 2.069 . S
C354 N237 2.069 . S
C2 N109 2.069 . S
N13 C34 2.069 1_545 S
N45 C70 2.069 . S
C98 N82 2.069 1_545 S
N178 C130 2.069 . S
C166 N205 2.069 . S
C194 N242 2.069 . S
N141 C230 2.069 . S
N269 C102 2.069 . S
C162 N306 2.069 . S
N274 C198 2.069 1_455 S
N338 C226 2.069 . S
C134 N370 2.069 . S
N365 C38 2.069 . S
C66 N301 2.069 . S
N333 C6 2.069 1_655 S
