# Generated by pormake.
# Topology upb, (4)-cn, num edge types: 1
# Building blocks:
#     Node 0, Type 0, BuildingBlock: TATPOV_clean_sbu_0, # of connection points: 4
#     Node 1, Type 0, BuildingBlock: TATPOV_clean_sbu_0, # of connection points: 4
#     Node 2, Type 0, BuildingBlock: TATPOV_clean_sbu_0, # of connection points: 4
#     Node 3, Type 0, BuildingBlock: TATPOV_clean_sbu_0, # of connection points: 4
#     Node 4, Type 0, BuildingBlock: TATPOV_clean_sbu_0, # of connection points: 4
#     Node 5, Type 0, BuildingBlock: TATPOV_clean_sbu_0, # of connection points: 4
#     Node 6, Type 0, BuildingBlock: TATPOV_clean_sbu_0, # of connection points: 4
#     Node 7, Type 0, BuildingBlock: TATPOV_clean_sbu_0, # of connection points: 4
#     Node 8, Type 0, BuildingBlock: TATPOV_clean_sbu_0, # of connection points: 4
#     Node 9, Type 0, BuildingBlock: TATPOV_clean_sbu_0, # of connection points: 4
#     Node 10, Type 0, BuildingBlock: TATPOV_clean_sbu_0, # of connection points: 4
#     Node 11, Type 0, BuildingBlock: TATPOV_clean_sbu_0, # of connection points: 4
#     Node 12, Type 0, BuildingBlock: TATPOV_clean_sbu_0, # of connection points: 4
#     Node 13, Type 0, BuildingBlock: TATPOV_clean_sbu_0, # of connection points: 4
#     Node 14, Type 0, BuildingBlock: TATPOV_clean_sbu_0, # of connection points: 4
#     Node 15, Type 0, BuildingBlock: TATPOV_clean_sbu_0, # of connection points: 4
#     Edge 16, Type (0, 0), BuildingBlock: EZIPEK_clean_linker_0, # of connection points: 2
#     Edge 17, Type (0, 0), BuildingBlock: EZIPEK_clean_linker_0, # of connection points: 2
#     Edge 18, Type (0, 0), BuildingBlock: EZIPEK_clean_linker_0, # of connection points: 2
#     Edge 19, Type (0, 0), BuildingBlock: EZIPEK_clean_linker_0, # of connection points: 2
#     Edge 20, Type (0, 0), BuildingBlock: EZIPEK_clean_linker_0, # of connection points: 2
#     Edge 21, Type (0, 0), BuildingBlock: EZIPEK_clean_linker_0, # of connection points: 2
#     Edge 22, Type (0, 0), BuildingBlock: EZIPEK_clean_linker_0, # of connection points: 2
#     Edge 23, Type (0, 0), BuildingBlock: EZIPEK_clean_linker_0, # of connection points: 2
#     Edge 24, Type (0, 0), BuildingBlock: EZIPEK_clean_linker_0, # of connection points: 2
#     Edge 25, Type (0, 0), BuildingBlock: EZIPEK_clean_linker_0, # of connection points: 2
#     Edge 26, Type (0, 0), BuildingBlock: EZIPEK_clean_linker_0, # of connection points: 2
#     Edge 27, Type (0, 0), BuildingBlock: EZIPEK_clean_linker_0, # of connection points: 2
#     Edge 28, Type (0, 0), BuildingBlock: EZIPEK_clean_linker_0, # of connection points: 2
#     Edge 29, Type (0, 0), BuildingBlock: EZIPEK_clean_linker_0, # of connection points: 2
#     Edge 30, Type (0, 0), BuildingBlock: EZIPEK_clean_linker_0, # of connection points: 2
#     Edge 31, Type (0, 0), BuildingBlock: EZIPEK_clean_linker_0, # of connection points: 2
#     Edge 32, Type (0, 0), BuildingBlock: EZIPEK_clean_linker_0, # of connection points: 2
#     Edge 33, Type (0, 0), BuildingBlock: EZIPEK_clean_linker_0, # of connection points: 2
#     Edge 34, Type (0, 0), BuildingBlock: EZIPEK_clean_linker_0, # of connection points: 2
#     Edge 35, Type (0, 0), BuildingBlock: EZIPEK_clean_linker_0, # of connection points: 2
#     Edge 36, Type (0, 0), BuildingBlock: EZIPEK_clean_linker_0, # of connection points: 2
#     Edge 37, Type (0, 0), BuildingBlock: EZIPEK_clean_linker_0, # of connection points: 2
#     Edge 38, Type (0, 0), BuildingBlock: EZIPEK_clean_linker_0, # of connection points: 2
#     Edge 39, Type (0, 0), BuildingBlock: EZIPEK_clean_linker_0, # of connection points: 2
#     Edge 40, Type (0, 0), BuildingBlock: EZIPEK_clean_linker_0, # of connection points: 2
#     Edge 41, Type (0, 0), BuildingBlock: EZIPEK_clean_linker_0, # of connection points: 2
#     Edge 42, Type (0, 0), BuildingBlock: EZIPEK_clean_linker_0, # of connection points: 2
#     Edge 43, Type (0, 0), BuildingBlock: EZIPEK_clean_linker_0, # of connection points: 2
#     Edge 44, Type (0, 0), BuildingBlock: EZIPEK_clean_linker_0, # of connection points: 2
#     Edge 45, Type (0, 0), BuildingBlock: EZIPEK_clean_linker_0, # of connection points: 2
#     Edge 46, Type (0, 0), BuildingBlock: EZIPEK_clean_linker_0, # of connection points: 2
#     Edge 47, Type (0, 0), BuildingBlock: EZIPEK_clean_linker_0, # of connection points: 2
# Relax obj value: 0.237
# Max RMSD: 0.117
# Mean RMSD: 0.117
data_MOF--net-upb--node1-TATPOV_clean_sbu_0--edge1-EZIPEK_clean_linker_0
_symmetry_space_group_name_H-M    P1
_symmetry_Int_Tables_number       1
_symmetry_cell_setting            triclinic
loop_
_symmetry_equiv_pos_as_xyz
'x, y, z'
_cell_length_a     29.223313
_cell_length_b     29.25262
_cell_length_c     32.904544
_cell_angle_alpha  90.014083
_cell_angle_beta   90.000047
_cell_angle_gamma 89.9798
loop_
_atom_site_label
_atom_site_type_symbol
_atom_site_fract_x
_atom_site_fract_y
_atom_site_fract_z
_atom_type_partial_charge
Zn0 Zn 0.02122 0.20348 0.37032 0.0
Zn1 Zn 0.02471 0.27743 0.32512 0.0
O2 O 0.02293 0.30369 0.38394 0.0
O3 O 0.02186 0.24085 0.42099 0.0
O4 O 0.03536 0.33336 0.29058 0.0
O5 O 0.07889 0.17759 0.34776 0.0
O6 O 0.08218 0.23874 0.3088 0.0
C7 C 0.0218 0.28396 0.41849 0.0
C8 C 0.94242 0.21352 0.31885 0.0
O9 O 0.96202 0.2502 0.30703 0.0
O10 O 0.96113 0.1879 0.34496 0.0
C11 C 0.0149 0.37172 0.29145 0.0
O12 O 0.97933 0.37768 0.31528 0.0
C13 C 0.09868 0.20053 0.32043 0.0
Zn14 Zn 0.7974 0.01843 0.37647 0.0
Zn15 Zn 0.72495 0.02346 0.32964 0.0
O16 O 0.69734 0.01998 0.38804 0.0
O17 O 0.75917 0.01786 0.42644 0.0
O18 O 0.66944 0.03582 0.29466 0.0
O19 O 0.82453 0.07629 0.35594 0.0
O20 O 0.76487 0.08072 0.31518 0.0
C21 C 0.71612 0.01795 0.42299 0.0
C22 C 0.78899 0.94142 0.32271 0.0
O23 O 0.75267 0.96139 0.31034 0.0
O24 O 0.81357 0.95917 0.35011 0.0
C25 C 0.63489 0.01075 0.28725 0.0
O26 O 0.63309 0.96881 0.30138 0.0
C27 C 0.80282 0.09664 0.32814 0.0
Zn28 Zn 0.99003 0.79973 0.3749 0.0
Zn29 Zn 0.98317 0.72693 0.32849 0.0
O30 O 0.98714 0.69922 0.38679 0.0
O31 O 0.99077 0.76123 0.42483 0.0
O32 O 0.97011 0.67216 0.29302 0.0
O33 O 0.93199 0.82731 0.35474 0.0
O34 O 0.92574 0.76701 0.315 0.0
C35 C 0.98997 0.7182 0.42162 0.0
C36 C 0.06602 0.78986 0.32021 0.0
O37 O 0.0452 0.75388 0.30832 0.0
O38 O 0.0492 0.81487 0.34777 0.0
C39 C 0.99193 0.63474 0.28961 0.0
O40 O 0.03057 0.62874 0.3093 0.0
C41 C 0.91056 0.80531 0.32776 0.0
Zn42 Zn 0.20422 0.9904 0.36894 0.0
Zn43 Zn 0.27981 0.98289 0.32632 0.0
O44 O 0.30285 0.98761 0.38605 0.0
O45 O 0.2387 0.99252 0.42108 0.0
O46 O 0.33825 0.9689 0.2959 0.0
O47 O 0.17822 0.93206 0.34838 0.0
O48 O 0.24057 0.92535 0.31117 0.0
C49 C 0.28189 0.99132 0.41987 0.0
C50 C 0.21755 0.06544 0.31384 0.0
O51 O 0.25452 0.04482 0.30411 0.0
O52 O 0.19076 0.04868 0.34006 0.0
C53 C 0.37708 0.9876 0.30115 0.0
O54 O 0.38155 0.0214 0.32711 0.0
C55 C 0.20162 0.91033 0.32255 0.0
Zn56 Zn 0.01736 0.79892 0.62817 0.0
Zn57 Zn 0.01991 0.72588 0.67466 0.0
O58 O 0.01607 0.6989 0.61603 0.0
O59 O 0.01562 0.76095 0.57796 0.0
O60 O 0.03004 0.67 0.70972 0.0
O61 O 0.07626 0.82361 0.64913 0.0
O62 O 0.0785 0.76362 0.68957 0.0
C63 C 0.01459 0.71793 0.58117 0.0
C64 C 0.93981 0.79247 0.68167 0.0
O65 O 0.95857 0.75542 0.69371 0.0
O66 O 0.9585 0.81682 0.65462 0.0
C67 C 0.01562 0.62967 0.70304 0.0
O68 O 0.98767 0.62174 0.67259 0.0
C69 C 0.0958 0.80102 0.67685 0.0
Zn70 Zn 0.20401 0.01417 0.6326 0.0
Zn71 Zn 0.28009 0.01804 0.67542 0.0
O72 O 0.303 0.01524 0.61559 0.0
O73 O 0.23875 0.01351 0.58047 0.0
O74 O 0.33854 0.02883 0.70698 0.0
O75 O 0.17977 0.0724 0.65521 0.0
O76 O 0.24261 0.07626 0.69208 0.0
C77 C 0.28196 0.01348 0.5817 0.0
C78 C 0.21566 0.9365 0.68503 0.0
O79 O 0.25303 0.95593 0.6954 0.0
O80 O 0.18917 0.95493 0.65945 0.0
C81 C 0.37848 0.01656 0.69613 0.0
O82 O 0.38401 0.99196 0.66311 0.0
C83 C 0.204 0.09272 0.68134 0.0
Zn84 Zn 0.99722 0.20605 0.62899 0.0
Zn85 Zn 0.9915 0.28098 0.67312 0.0
O86 O 0.99632 0.30496 0.61354 0.0
O87 O 0.99977 0.24154 0.57743 0.0
O88 O 0.97877 0.33863 0.70541 0.0
O89 O 0.9383 0.18094 0.64946 0.0
O90 O 0.93335 0.24245 0.6879 0.0
C91 C 0.99942 0.28466 0.57935 0.0
C92 C 0.07272 0.21655 0.68435 0.0
O93 O 0.05285 0.25365 0.6948 0.0
O94 O 0.05544 0.19083 0.65755 0.0
C95 C 0.98909 0.37914 0.69475 0.0
O96 O 0.01293 0.38606 0.6615 0.0
C97 C 0.91732 0.20417 0.6759 0.0
Zn98 Zn 0.79991 0.9936 0.62756 0.0
Zn99 Zn 0.7278 0.98966 0.6753 0.0
O100 O 0.69974 0.99293 0.6171 0.0
O101 O 0.76097 0.99418 0.57793 0.0
O102 O 0.67231 0.97851 0.71077 0.0
O103 O 0.82637 0.93546 0.64836 0.0
O104 O 0.76695 0.93173 0.68947 0.0
C105 C 0.71797 0.99451 0.58192 0.0
C106 C 0.79296 0.07102 0.68108 0.0
O107 O 0.75664 0.05149 0.69395 0.0
O108 O 0.81693 0.05291 0.65344 0.0
C109 C 0.6317 0.992 0.70366 0.0
O110 O 0.62353 0.01954 0.67299 0.0
C111 C 0.8046 0.91532 0.67624 0.0
Zn112 Zn 0.51527 0.70709 0.87236 0.0
Zn113 Zn 0.51954 0.78058 0.8265 0.0
O114 O 0.51654 0.8068 0.88539 0.0
O115 O 0.5148 0.74442 0.92298 0.0
O116 O 0.53101 0.83687 0.79233 0.0
O117 O 0.57333 0.68106 0.85083 0.0
O118 O 0.57715 0.74155 0.81108 0.0
C119 C 0.51478 0.78748 0.9201 0.0
C120 C 0.43776 0.7162 0.81908 0.0
O121 O 0.45742 0.75285 0.80723 0.0
O122 O 0.45586 0.6912 0.84599 0.0
C123 C 0.51766 0.87738 0.79994 0.0
O124 O 0.48984 0.88513 0.83053 0.0
C125 C 0.59344 0.7035 0.82336 0.0
Zn126 Zn 0.30108 0.51453 0.8715 0.0
Zn127 Zn 0.22634 0.51992 0.82731 0.0
O128 O 0.20134 0.51643 0.88656 0.0
O129 O 0.26483 0.51332 0.92273 0.0
O130 O 0.1695 0.53135 0.79378 0.0
O131 O 0.32676 0.57279 0.85035 0.0
O132 O 0.26512 0.57774 0.81202 0.0
C133 C 0.22166 0.51383 0.92079 0.0
C134 C 0.29022 0.43789 0.81794 0.0
O135 O 0.2533 0.45789 0.80719 0.0
O136 O 0.31629 0.45558 0.84425 0.0
C137 C 0.12914 0.51745 0.80133 0.0
O138 O 0.12168 0.48957 0.8319 0.0
C139 C 0.30357 0.59364 0.82382 0.0
Zn140 Zn 0.48798 0.29799 0.87224 0.0
Zn141 Zn 0.48357 0.22476 0.82626 0.0
O142 O 0.48687 0.19776 0.88484 0.0
O143 O 0.48872 0.26016 0.92248 0.0
O144 O 0.47217 0.16931 0.79123 0.0
O145 O 0.42973 0.32405 0.85125 0.0
O146 O 0.42567 0.26355 0.81151 0.0
C147 C 0.48873 0.2171 0.91956 0.0
C148 C 0.56509 0.28945 0.81869 0.0
O149 O 0.5454 0.25283 0.80683 0.0
O150 O 0.54716 0.31434 0.84577 0.0
C151 C 0.49532 0.13278 0.78717 0.0
O152 O 0.53484 0.12827 0.80576 0.0
C153 C 0.40938 0.30153 0.82396 0.0
Zn154 Zn 0.70418 0.49085 0.87007 0.0
Zn155 Zn 0.77739 0.48527 0.82407 0.0
O156 O 0.80463 0.48922 0.88251 0.0
O157 O 0.74227 0.49207 0.92023 0.0
O158 O 0.83276 0.47264 0.78907 0.0
O159 O 0.6775 0.43259 0.84986 0.0
O160 O 0.73803 0.42749 0.8102 0.0
C161 C 0.78537 0.49176 0.91723 0.0
C162 C 0.71331 0.56731 0.816 0.0
O163 O 0.74983 0.54724 0.80427 0.0
O164 O 0.6882 0.54975 0.84311 0.0
C165 C 0.87016 0.49459 0.78596 0.0
O166 O 0.87562 0.53342 0.80543 0.0
C167 C 0.69992 0.41167 0.82285 0.0
Zn168 Zn 0.5123 0.29876 0.12754 0.0
Zn169 Zn 0.51923 0.22517 0.17307 0.0
O170 O 0.51447 0.1994 0.11416 0.0
O171 O 0.51028 0.26178 0.07674 0.0
O172 O 0.53288 0.16821 0.20572 0.0
O173 O 0.57093 0.32522 0.14745 0.0
O174 O 0.57698 0.26468 0.18694 0.0
C175 C 0.51113 0.21873 0.07956 0.0
C176 C 0.43707 0.28861 0.18331 0.0
O177 O 0.45756 0.25213 0.19452 0.0
O178 O 0.45385 0.31381 0.15588 0.0
C179 C 0.51637 0.12861 0.19948 0.0
O180 O 0.48508 0.12255 0.17135 0.0
C181 C 0.59236 0.30293 0.17424 0.0
Zn182 Zn 0.70515 0.51631 0.12545 0.0
Zn183 Zn 0.77923 0.52002 0.171 0.0
O184 O 0.80468 0.51681 0.11186 0.0
O185 O 0.74202 0.5155 0.07455 0.0
O186 O 0.83627 0.53103 0.2046 0.0
O187 O 0.67991 0.5746 0.14715 0.0
O188 O 0.74083 0.57804 0.18652 0.0
C189 C 0.78513 0.51517 0.07724 0.0
C190 C 0.71414 0.43881 0.17869 0.0
O191 O 0.75104 0.4582 0.19039 0.0
O192 O 0.68903 0.4571 0.15196 0.0
C193 C 0.8768 0.51949 0.19487 0.0
O194 O 0.88398 0.49558 0.16171 0.0
C195 C 0.70279 0.59462 0.17441 0.0
Zn196 Zn 0.49093 0.7073 0.12762 0.0
Zn197 Zn 0.48624 0.78053 0.17354 0.0
O198 O 0.48986 0.80725 0.11486 0.0
O199 O 0.4918 0.74487 0.07721 0.0
O200 O 0.47372 0.83637 0.20797 0.0
O201 O 0.43277 0.68087 0.14843 0.0
O202 O 0.42861 0.74126 0.18827 0.0
C203 C 0.49187 0.78793 0.08013 0.0
C204 C 0.56809 0.7163 0.1813 0.0
O205 O 0.54831 0.7529 0.19317 0.0
O206 O 0.55014 0.69133 0.15429 0.0
C207 C 0.49917 0.86991 0.21762 0.0
O208 O 0.54229 0.87064 0.20638 0.0
C209 C 0.41242 0.70325 0.17581 0.0
Zn210 Zn 0.30226 0.48926 0.13088 0.0
Zn211 Zn 0.22752 0.48562 0.17544 0.0
O212 O 0.20295 0.48871 0.11605 0.0
O213 O 0.26618 0.49012 0.0795 0.0
O214 O 0.16988 0.47512 0.2083 0.0
O215 O 0.32712 0.431 0.15289 0.0
O216 O 0.26555 0.42745 0.19144 0.0
C217 C 0.22302 0.49042 0.08168 0.0
C218 C 0.29241 0.56691 0.18371 0.0
O219 O 0.25531 0.54757 0.19492 0.0
O220 O 0.31807 0.54847 0.15746 0.0
C221 C 0.12974 0.48759 0.19827 0.0
O222 O 0.12347 0.51246 0.16552 0.0
C223 C 0.30379 0.41089 0.17978 0.0
C224 C 0.18227 0.18474 0.3239 0.0
C225 C 0.14062 0.181 0.30219 0.0
C226 C 0.1675 0.11118 0.26909 0.0
C227 C 0.20455 0.11026 0.29671 0.0
N228 N 0.25644 0.15081 0.33983 0.0
N229 N 0.09899 0.15073 0.24548 0.0
C230 C 0.21547 0.14938 0.31996 0.0
C231 C 0.13555 0.14786 0.27119 0.0
N232 N 0.18817 0.22048 0.35008 0.0
N233 N 0.16156 0.07506 0.24334 0.0
H234 H 0.07569 0.17775 0.24711 0.0
H235 H 0.09317 0.12856 0.22133 0.0
H236 H 0.18575 0.04883 0.24137 0.0
H237 H 0.13352 0.07088 0.22426 0.0
H238 H 0.21595 0.22404 0.36957 0.0
H239 H 0.1644 0.24706 0.35209 0.0
H240 H 0.26787 0.1785 0.35686 0.0
H241 H 0.28046 0.12457 0.3368 0.0
C242 C 0.89378 0.16317 0.27639 0.0
C243 C 0.8966 0.19982 0.30433 0.0
C244 C 0.82243 0.1792 0.33334 0.0
C245 C 0.82383 0.13817 0.31056 0.0
N246 N 0.85086 0.09706 0.25223 0.0
N247 N 0.85904 0.25189 0.34952 0.0
C248 C 0.85592 0.13265 0.27871 0.0
C249 C 0.85869 0.21132 0.32899 0.0
N250 N 0.92908 0.1562 0.2499 0.0
N251 N 0.78793 0.18554 0.36078 0.0
H252 H 0.88579 0.27528 0.34621 0.0
H253 H 0.83215 0.26379 0.36732 0.0
H254 H 0.76053 0.16276 0.36302 0.0
H255 H 0.78628 0.21262 0.38119 0.0
H256 H 0.93197 0.12801 0.23081 0.0
H257 H 0.95609 0.17941 0.24744 0.0
H258 H 0.8719 0.09136 0.22725 0.0
H259 H 0.82308 0.07471 0.25397 0.0
C260 C 0.84086 0.89616 0.27883 0.0
C261 C 0.80402 0.89669 0.30671 0.0
C262 C 0.82732 0.82242 0.33377 0.0
C263 C 0.86836 0.82606 0.31113 0.0
N264 N 0.90863 0.85655 0.25372 0.0
N265 N 0.75319 0.85582 0.35064 0.0
C266 C 0.87279 0.85942 0.28024 0.0
C267 C 0.79386 0.8576 0.33029 0.0
N268 N 0.84663 0.93257 0.25337 0.0
N269 N 0.82216 0.78688 0.36029 0.0
H270 H 0.72887 0.88183 0.34794 0.0
H271 H 0.74219 0.82795 0.36764 0.0
H272 H 0.84593 0.76027 0.36194 0.0
H273 H 0.79507 0.78364 0.38057 0.0
H274 H 0.8748 0.93716 0.23451 0.0
H275 H 0.82243 0.95878 0.25157 0.0
H276 H 0.91361 0.8786 0.22934 0.0
H277 H 0.932 0.82956 0.25478 0.0
C278 C 0.11108 0.84009 0.27475 0.0
C279 C 0.11066 0.804 0.30334 0.0
C280 C 0.18566 0.82713 0.32898 0.0
C281 C 0.18178 0.86777 0.3059 0.0
N282 N 0.15076 0.90709 0.24827 0.0
N283 N 0.15185 0.75381 0.34763 0.0
C284 C 0.14804 0.87176 0.27527 0.0
C285 C 0.15011 0.79397 0.32655 0.0
N286 N 0.07439 0.84546 0.24949 0.0
N287 N 0.22174 0.82222 0.355 0.0
H288 H 0.12554 0.72974 0.34569 0.0
H289 H 0.17987 0.74298 0.36455 0.0
H290 H 0.24848 0.84587 0.3559 0.0
H291 H 0.22534 0.79541 0.3755 0.0
H292 H 0.06986 0.87305 0.22998 0.0
H293 H 0.04797 0.82145 0.24842 0.0
H294 H 0.12832 0.9119 0.22412 0.0
H295 H 0.178 0.9302 0.24876 0.0
C296 C 0.17911 0.81755 0.67177 0.0
C297 C 0.13812 0.82035 0.69456 0.0
C298 C 0.16559 0.88928 0.72876 0.0
C299 C 0.20202 0.89111 0.70051 0.0
N300 N 0.25278 0.85208 0.65517 0.0
N301 N 0.09802 0.84865 0.75296 0.0
C302 C 0.21233 0.85284 0.67593 0.0
C303 C 0.13378 0.8525 0.72647 0.0
N304 N 0.18436 0.78274 0.6445 0.0
N305 N 0.16008 0.92462 0.75543 0.0
H306 H 0.07476 0.82164 0.75123 0.0
H307 H 0.09294 0.86994 0.77787 0.0
H308 H 0.1842 0.95085 0.75767 0.0
H309 H 0.13234 0.92823 0.77496 0.0
H310 H 0.2115 0.78001 0.62421 0.0
H311 H 0.16067 0.75611 0.64238 0.0
H312 H 0.26377 0.82496 0.63722 0.0
H313 H 0.2769 0.87818 0.65837 0.0
C314 C 0.15163 0.13212 0.72916 0.0
C315 C 0.18572 0.13559 0.6988 0.0
C316 C 0.15678 0.21093 0.67929 0.0
C317 C 0.11678 0.20171 0.70199 0.0
N318 N 0.07888 0.1607 0.75515 0.0
N319 N 0.22785 0.18095 0.65104 0.0
C320 C 0.11584 0.16515 0.73008 0.0
C321 C 0.19127 0.17665 0.67658 0.0
N322 N 0.15281 0.09603 0.75544 0.0
N323 N 0.15995 0.25138 0.65882 0.0
H324 H 0.25376 0.15638 0.64992 0.0
H325 H 0.23275 0.2082 0.63123 0.0
H326 H 0.13437 0.27623 0.66096 0.0
H327 H 0.1884 0.2616 0.64216 0.0
H328 H 0.1299 0.09134 0.77925 0.0
H329 H 0.17921 0.07197 0.75465 0.0
H330 H 0.07334 0.13308 0.77441 0.0
H331 H 0.05331 0.18564 0.75635 0.0
C332 C 0.87881 0.15 0.72304 0.0
C333 C 0.87487 0.18457 0.6931 0.0
C334 C 0.80036 0.15475 0.67219 0.0
C335 C 0.80856 0.11578 0.69663 0.0
N336 N 0.84569 0.08175 0.75391 0.0
N337 N 0.82764 0.22893 0.64852 0.0
C338 C 0.84424 0.11582 0.7256 0.0
C339 C 0.8336 0.19034 0.67125 0.0
N340 N 0.91708 0.1486 0.74685 0.0
N341 N 0.76243 0.1556 0.64795 0.0
H342 H 0.85206 0.25498 0.64802 0.0
H343 H 0.79797 0.23662 0.63247 0.0
H344 H 0.73749 0.13009 0.64955 0.0
H345 H 0.75551 0.18085 0.62657 0.0
H346 H 0.9246 0.1225 0.76722 0.0
H347 H 0.94177 0.17438 0.74591 0.0
H348 H 0.86986 0.0796 0.77702 0.0
H349 H 0.82015 0.05684 0.75553 0.0
C350 C 0.82075 0.83196 0.67101 0.0
C351 C 0.82493 0.87316 0.69329 0.0
C352 C 0.89534 0.8456 0.7251 0.0
C353 C 0.89529 0.80848 0.69753 0.0
N354 N 0.85352 0.75757 0.65428 0.0
N355 N 0.85642 0.9138 0.75005 0.0
C356 C 0.85582 0.79836 0.67436 0.0
C357 C 0.85873 0.8777 0.72381 0.0
N358 N 0.78476 0.82677 0.64493 0.0
N359 N 0.93212 0.85139 0.75019 0.0
H360 H 0.82952 0.93729 0.74907 0.0
H361 H 0.87883 0.91891 0.77417 0.0
H362 H 0.95823 0.82707 0.75197 0.0
H363 H 0.93711 0.8797 0.76879 0.0
H364 H 0.78104 0.79954 0.62489 0.0
H365 H 0.75824 0.85066 0.64342 0.0
H366 H 0.82536 0.74664 0.6376 0.0
H367 H 0.8794 0.73311 0.65686 0.0
C368 C 0.67681 0.68668 0.82747 0.0
C369 C 0.6353 0.68336 0.80549 0.0
C370 C 0.66176 0.61327 0.77249 0.0
C371 C 0.69894 0.61225 0.79999 0.0
N372 N 0.75086 0.65251 0.84337 0.0
N373 N 0.59378 0.65346 0.74855 0.0
C374 C 0.70988 0.6512 0.82348 0.0
C375 C 0.63011 0.65023 0.77449 0.0
N376 N 0.68274 0.7222 0.8539 0.0
N377 N 0.65541 0.5771 0.74687 0.0
H378 H 0.57065 0.68063 0.75008 0.0
H379 H 0.5881 0.63149 0.72422 0.0
H380 H 0.67939 0.55071 0.74474 0.0
H381 H 0.62707 0.57293 0.72813 0.0
H382 H 0.7103 0.72534 0.87368 0.0
H383 H 0.65916 0.74895 0.85589 0.0
H384 H 0.76235 0.68017 0.86039 0.0
H385 H 0.77487 0.62627 0.84032 0.0
C386 C 0.35381 0.71002 0.82758 0.0
C387 C 0.39282 0.70143 0.80325 0.0
C388 C 0.35786 0.63175 0.77654 0.0
C389 C 0.32328 0.63592 0.80648 0.0
N390 N 0.27924 0.68344 0.85107 0.0
N391 N 0.42666 0.66415 0.74594 0.0
C392 C 0.31785 0.67718 0.82838 0.0
C393 C 0.39246 0.6659 0.77416 0.0
N394 N 0.35328 0.74787 0.85187 0.0
N395 N 0.35885 0.59361 0.7526 0.0
H396 H 0.45187 0.68941 0.74448 0.0
H397 H 0.42866 0.64004 0.72279 0.0
H398 H 0.33276 0.56923 0.75346 0.0
H399 H 0.38488 0.58592 0.73216 0.0
H400 H 0.32798 0.75505 0.87316 0.0
H401 H 0.37911 0.7725 0.8504 0.0
H402 H 0.2718 0.7131 0.8672 0.0
H403 H 0.25293 0.65929 0.85146 0.0
C404 C 0.34041 0.39143 0.77363 0.0
C405 C 0.30387 0.3928 0.80178 0.0
C406 C 0.32616 0.3184 0.82913 0.0
C407 C 0.36724 0.32147 0.80651 0.0
N408 N 0.40771 0.35081 0.74876 0.0
N409 N 0.25265 0.35304 0.84617 0.0
C410 C 0.37192 0.35435 0.77526 0.0
C411 C 0.29319 0.35402 0.82557 0.0
N412 N 0.34632 0.4274 0.74771 0.0
N413 N 0.3206 0.283 0.85572 0.0
H414 H 0.22872 0.37939 0.84342 0.0
H415 H 0.24139 0.32554 0.8635 0.0
H416 H 0.34412 0.25618 0.85742 0.0
H417 H 0.29339 0.28002 0.87591 0.0
H418 H 0.37421 0.43128 0.7284 0.0
H419 H 0.32241 0.45388 0.7459 0.0
H420 H 0.41301 0.37263 0.72427 0.0
H421 H 0.43074 0.32354 0.75004 0.0
C422 C 0.64649 0.37308 0.77532 0.0
C423 C 0.67995 0.36916 0.8062 0.0
C424 C 0.64898 0.29474 0.82597 0.0
C425 C 0.60971 0.30447 0.80243 0.0
N426 N 0.57343 0.34616 0.74873 0.0
N427 N 0.71975 0.32369 0.85549 0.0
C428 C 0.60994 0.34093 0.77421 0.0
C429 C 0.68401 0.32838 0.82908 0.0
N430 N 0.64904 0.40868 0.74858 0.0
N431 N 0.65107 0.25434 0.84665 0.0
H432 H 0.74621 0.34764 0.85687 0.0
H433 H 0.72333 0.29681 0.87591 0.0
H434 H 0.62517 0.22989 0.84422 0.0
H435 H 0.67907 0.24369 0.8637 0.0
H436 H 0.62684 0.41334 0.72423 0.0
H437 H 0.67591 0.43218 0.74944 0.0
H438 H 0.56866 0.374 0.72955 0.0
H439 H 0.54735 0.32181 0.7472 0.0
C440 C 0.66271 0.39336 0.22284 0.0
C441 C 0.69915 0.39399 0.19455 0.0
C442 C 0.67554 0.31977 0.16757 0.0
C443 C 0.63482 0.32333 0.19067 0.0
N444 N 0.59531 0.35366 0.24857 0.0
N445 N 0.74933 0.35329 0.14984 0.0
C446 C 0.63079 0.35661 0.22169 0.0
C447 C 0.70899 0.35498 0.17072 0.0
N448 N 0.65727 0.42967 0.24849 0.0
N449 N 0.68035 0.28427 0.14093 0.0
H450 H 0.77367 0.3793 0.15229 0.0
H451 H 0.76008 0.3255 0.1326 0.0
H452 H 0.65659 0.25766 0.13953 0.0
H453 H 0.70715 0.28106 0.12034 0.0
H454 H 0.62939 0.43417 0.26771 0.0
H455 H 0.68147 0.45589 0.2501 0.0
H456 H 0.59062 0.37566 0.27305 0.0
H457 H 0.57197 0.32666 0.24769 0.0
C458 C 0.65197 0.71161 0.1735 0.0
C459 C 0.61296 0.70147 0.19724 0.0
C460 C 0.65019 0.63247 0.22317 0.0
C461 C 0.68329 0.63689 0.19203 0.0
N462 N 0.7226 0.68327 0.14316 0.0
N463 N 0.57749 0.65905 0.25087 0.0
C464 C 0.68706 0.67808 0.16971 0.0
C465 C 0.61364 0.66461 0.22505 0.0
N466 N 0.65369 0.75228 0.15322 0.0
N467 N 0.65302 0.59637 0.24936 0.0
H468 H 0.55141 0.68339 0.25291 0.0
H469 H 0.57305 0.63103 0.2699 0.0
H470 H 0.6799 0.57289 0.24792 0.0
H471 H 0.63104 0.5912 0.27378 0.0
H472 H 0.68141 0.76319 0.13595 0.0
H473 H 0.62774 0.77663 0.15615 0.0
H474 H 0.72606 0.71057 0.12317 0.0
H475 H 0.74907 0.65935 0.1413 0.0
C476 C 0.32919 0.68605 0.17091 0.0
C477 C 0.3704 0.68314 0.19337 0.0
C478 C 0.34362 0.61358 0.22697 0.0
C479 C 0.30674 0.61212 0.19916 0.0
N480 N 0.25533 0.65167 0.15476 0.0
N481 N 0.41121 0.65421 0.25112 0.0
C482 C 0.29608 0.65066 0.17505 0.0
C483 C 0.37524 0.65053 0.22483 0.0
N484 N 0.32358 0.72109 0.14393 0.0
N485 N 0.34972 0.57782 0.25307 0.0
H486 H 0.43434 0.68136 0.24951 0.0
H487 H 0.41655 0.63268 0.27581 0.0
H488 H 0.32574 0.55146 0.25532 0.0
H489 H 0.37789 0.57393 0.27207 0.0
H490 H 0.2963 0.72384 0.12379 0.0
H491 H 0.34714 0.74782 0.14182 0.0
H492 H 0.24403 0.67907 0.13731 0.0
H493 H 0.23127 0.62551 0.15792 0.0
C494 C 0.31796 0.32716 0.17528 0.0
C495 C 0.32292 0.36842 0.19732 0.0
C496 C 0.39333 0.3401 0.22861 0.0
C497 C 0.39283 0.30328 0.20075 0.0
N498 N 0.35026 0.25272 0.15789 0.0
N499 N 0.3554 0.40883 0.25372 0.0
C500 C 0.35293 0.29338 0.17812 0.0
C501 C 0.35705 0.37259 0.22759 0.0
N502 N 0.28141 0.32217 0.1498 0.0
N503 N 0.4303 0.3453 0.25355 0.0
H504 H 0.32866 0.43251 0.25288 0.0
H505 H 0.37827 0.41396 0.27749 0.0
H506 H 0.45622 0.32074 0.25488 0.0
H507 H 0.43551 0.37319 0.27259 0.0
H508 H 0.27691 0.29474 0.13009 0.0
H509 H 0.25514 0.34634 0.14861 0.0
H510 H 0.32192 0.242 0.14134 0.0
H511 H 0.37617 0.22823 0.16014 0.0
C512 C 0.05147 0.44941 0.28297 0.0
C513 C 0.03263 0.40917 0.26542 0.0
C514 C 0.06977 0.42649 0.20053 0.0
C515 C 0.09033 0.46547 0.21856 0.0
N516 N 0.09041 0.52177 0.27171 0.0
N517 N 0.01126 0.36787 0.20516 0.0
C518 C 0.07753 0.47958 0.25811 0.0
C519 C 0.0376 0.40065 0.22328 0.0
N520 N 0.04729 0.45724 0.32374 0.0
N521 N 0.08292 0.4126 0.1626 0.0
H522 H 0.9869 0.34904 0.22122 0.0
H523 H 0.01017 0.36264 0.17387 0.0
H524 H 0.10566 0.43104 0.14452 0.0
H525 H 0.07345 0.38136 0.14996 0.0
H526 H 0.06479 0.48305 0.339 0.0
H527 H 0.02828 0.43636 0.34301 0.0
H528 H 0.07853 0.5361 0.2987 0.0
H529 H 0.10958 0.54424 0.2539 0.0
C530 C 0.55496 0.04077 0.2775 0.0
C531 C 0.59823 0.02929 0.2607 0.0
C532 C 0.57874 0.07043 0.19806 0.0
C533 C 0.53978 0.0888 0.2179 0.0
N534 N 0.48831 0.09058 0.27486 0.0
N535 N 0.65025 0.02857 0.204 0.0
C536 C 0.52668 0.07303 0.25691 0.0
C537 C 0.60945 0.04224 0.22035 0.0
N538 N 0.54129 0.02132 0.31325 0.0
N539 N 0.58623 0.08018 0.15795 0.0
H540 H 0.67173 0.00509 0.21838 0.0
H541 H 0.66362 0.04117 0.17693 0.0
H542 H 0.56458 0.10118 0.141 0.0
H543 H 0.61167 0.06498 0.14045 0.0
H544 H 0.50848 0.02465 0.32517 0.0
H545 H 0.56169 0.99859 0.32956 0.0
H546 H 0.47919 0.08468 0.30497 0.0
H547 H 0.46607 0.11269 0.25971 0.0
C548 C 0.93119 0.58528 0.19895 0.0
C549 C 0.9154 0.54314 0.215 0.0
C550 C 0.95905 0.55591 0.27759 0.0
C551 C 0.97328 0.59903 0.26215 0.0
N552 N 0.98548 0.64772 0.20424 0.0
N553 N 0.9239 0.48222 0.26338 0.0
C554 C 0.96343 0.61133 0.22143 0.0
C555 C 0.93274 0.52635 0.2523 0.0
N556 N 0.91374 0.60147 0.16317 0.0
N557 N 0.96796 0.54447 0.31707 0.0
H558 H 0.90455 0.46018 0.24529 0.0
H559 H 0.93903 0.46631 0.28829 0.0
H560 H 0.98732 0.56486 0.33649 0.0
H561 H 0.95403 0.51597 0.3314 0.0
H562 H 0.91949 0.63448 0.15251 0.0
H563 H 0.89118 0.58278 0.14508 0.0
H564 H 0.98303 0.65611 0.17357 0.0
H565 H 0.01001 0.66677 0.21989 0.0
C566 C 0.43386 0.92422 0.30446 0.0
C567 C 0.41804 0.96426 0.28471 0.0
C568 C 0.47081 0.9503 0.22807 0.0
C569 C 0.4797 0.90611 0.24412 0.0
N570 N 0.47444 0.85201 0.29904 0.0
N571 N 0.42257 0.01814 0.22972 0.0
C572 C 0.46313 0.8937 0.28313 0.0
C573 C 0.43758 0.97862 0.24743 0.0
N574 N 0.42084 0.91572 0.34367 0.0
N575 N 0.49354 0.96471 0.19412 0.0
H576 H 0.39958 0.04019 0.24404 0.0
H577 H 0.43148 0.02851 0.20053 0.0
H578 H 0.51722 0.94436 0.17885 0.0
H579 H 0.49186 0.9979 0.18287 0.0
H580 H 0.43389 0.88923 0.36129 0.0
H581 H 0.39942 0.93762 0.35996 0.0
H582 H 0.45923 0.838 0.32476 0.0
H583 H 0.49862 0.83053 0.28559 0.0
C584 C 0.09028 0.52918 0.73467 0.0
C585 C 0.0907 0.53642 0.77721 0.0
C586 C 0.02816 0.59173 0.77004 0.0
C587 C 0.03488 0.59161 0.72742 0.0
N588 N 0.07317 0.56064 0.66838 0.0
N589 N 0.06027 0.57507 0.83624 0.0
C590 C 0.06541 0.55972 0.70934 0.0
C591 C 0.05896 0.56706 0.79533 0.0
N592 N 0.1137 0.49297 0.71867 0.0
N593 N 0.99224 0.61551 0.78617 0.0
H594 H 0.08205 0.5577 0.85598 0.0
H595 H 0.04184 0.60108 0.85035 0.0
H596 H 0.96912 0.63359 0.76808 0.0
H597 H 0.98274 0.61356 0.81662 0.0
H598 H 0.11127 0.48312 0.68833 0.0
H599 H 0.13183 0.46996 0.73681 0.0
H600 H 0.09912 0.54207 0.6543 0.0
H601 H 0.05577 0.58228 0.64855 0.0
C602 C 0.46564 0.10877 0.71964 0.0
C603 C 0.47715 0.09653 0.76002 0.0
C604 C 0.43714 0.02335 0.75133 0.0
C605 C 0.41812 0.04009 0.71466 0.0
N606 N 0.41419 0.09814 0.6627 0.0
N607 N 0.47585 0.04135 0.81461 0.0
C608 C 0.43298 0.0823 0.69807 0.0
C609 C 0.46443 0.05304 0.7757 0.0
N610 N 0.48645 0.14559 0.70197 0.0
N611 N 0.42877 0.97923 0.76272 0.0
H612 H 0.49618 0.0618 0.83319 0.0
H613 H 0.46341 0.01246 0.82937 0.0
H614 H 0.40884 0.95714 0.74518 0.0
H615 H 0.44457 0.96336 0.78728 0.0
H616 H 0.48274 0.15412 0.67144 0.0
H617 H 0.51122 0.16495 0.71702 0.0
H618 H 0.4192 0.13116 0.65177 0.0
H619 H 0.39135 0.07905 0.64521 0.0
C620 C 0.92214 0.43234 0.69715 0.0
C621 C 0.96431 0.4176 0.71402 0.0
C622 C 0.94971 0.46231 0.77569 0.0
C623 C 0.90663 0.47564 0.75938 0.0
N624 N 0.85879 0.4858 0.70055 0.0
N625 N 0.02421 0.42784 0.76319 0.0
C626 C 0.8952 0.46467 0.71868 0.0
C627 C 0.98015 0.4359 0.75128 0.0
N628 N 0.90676 0.41377 0.66153 0.0
N629 N 0.96032 0.47219 0.81518 0.0
H630 H 0.0469 0.40847 0.74574 0.0
H631 H 0.03946 0.44359 0.78812 0.0
H632 H 0.93921 0.49149 0.83406 0.0
H633 H 0.98881 0.45904 0.83014 0.0
H634 H 0.87379 0.41876 0.65038 0.0
H635 H 0.92604 0.391 0.64414 0.0
H636 H 0.85102 0.48253 0.66981 0.0
H637 H 0.83909 0.51041 0.71546 0.0
C638 C 0.56271 0.94071 0.70872 0.0
C639 C 0.59361 0.97177 0.72742 0.0
C640 C 0.56747 0.94754 0.79481 0.0
C641 C 0.53746 0.91561 0.7761 0.0
N642 N 0.49595 0.89215 0.71658 0.0
N643 N 0.61524 0.01482 0.78661 0.0
C644 C 0.53155 0.91579 0.7334 0.0
C645 C 0.59245 0.97857 0.77001 0.0
N646 N 0.56514 0.93255 0.66787 0.0
N647 N 0.57467 0.94623 0.83583 0.0
H648 H 0.63359 0.0381 0.76893 0.0
H649 H 0.61217 0.02437 0.81698 0.0
H650 H 0.55734 0.92412 0.85528 0.0
H651 H 0.60023 0.9649 0.85036 0.0
H652 H 0.5473 0.90629 0.65353 0.0
H653 H 0.5874 0.94982 0.64851 0.0
H654 H 0.48706 0.89441 0.68599 0.0
H655 H 0.47243 0.87401 0.73418 0.0
C656 C 0.05651 0.31267 0.48239 0.0
C657 C 0.01772 0.30992 0.4568 0.0
C658 C 0.96664 0.31573 0.5154 0.0
C659 C 0.00516 0.31008 0.54094 0.0
N660 N 0.08589 0.31807 0.55158 0.0
N661 N 0.93769 0.32348 0.44625 0.0
C662 C 0.04999 0.31442 0.52521 0.0
C663 C 0.97328 0.31729 0.47257 0.0
N664 N 0.09913 0.31044 0.46548 0.0
N665 N 0.92398 0.31643 0.53234 0.0
H666 H 0.94267 0.32461 0.41484 0.0
H667 H 0.90427 0.33052 0.45515 0.0
H668 H 0.91925 0.31678 0.5638 0.0
H669 H 0.89366 0.31644 0.51579 0.0
H670 H 0.12935 0.30814 0.48204 0.0
H671 H 0.10388 0.31067 0.43402 0.0
H672 H 0.1197 0.32289 0.54271 0.0
H673 H 0.08094 0.31937 0.58299 0.0
C674 C 0.68398 0.0443 0.5293 0.0
C675 C 0.69038 0.99959 0.54462 0.0
C676 C 0.68337 0.96814 0.47611 0.0
C677 C 0.68918 0.01286 0.46066 0.0
N678 N 0.68534 0.09398 0.46984 0.0
N679 N 0.6865 0.91845 0.53552 0.0
C680 C 0.68498 0.05125 0.48651 0.0
C681 C 0.68559 0.96119 0.51887 0.0
N682 N 0.67945 0.07977 0.55598 0.0
N683 N 0.67826 0.93266 0.44953 0.0
H684 H 0.6868 0.91356 0.56697 0.0
H685 H 0.68707 0.8883 0.51879 0.0
H686 H 0.67672 0.93801 0.41817 0.0
H687 H 0.67259 0.89895 0.45818 0.0
H688 H 0.67336 0.11345 0.54744 0.0
H689 H 0.67879 0.07446 0.58736 0.0
H690 H 0.68634 0.12414 0.48656 0.0
H691 H 0.68478 0.09886 0.4384 0.0
C692 C 0.04698 0.68635 0.51735 0.0
C693 C 0.00878 0.69133 0.54337 0.0
C694 C 0.95662 0.68775 0.48543 0.0
C695 C 0.99495 0.69143 0.4594 0.0
N696 N 0.07498 0.67926 0.44782 0.0
N697 N 0.92841 0.68165 0.55497 0.0
C698 C 0.03972 0.68474 0.47461 0.0
C699 C 0.96383 0.686 0.52818 0.0
N700 N 0.08989 0.68643 0.53378 0.0
N701 N 0.91372 0.68924 0.46903 0.0
H702 H 0.93388 0.68043 0.58631 0.0
H703 H 0.89457 0.67617 0.54649 0.0
H704 H 0.90855 0.68913 0.43761 0.0
H705 H 0.88371 0.69082 0.48594 0.0
H706 H 0.11995 0.6869 0.51687 0.0
H707 H 0.09504 0.6862 0.56519 0.0
H708 H 0.10865 0.67281 0.45628 0.0
H709 H 0.06944 0.67815 0.41648 0.0
C710 C 0.30978 0.04781 0.51727 0.0
C711 C 0.30665 0.00902 0.54278 0.0
C712 C 0.31161 0.95803 0.48411 0.0
C713 C 0.30668 0.99665 0.45863 0.0
N714 N 0.31563 0.07725 0.44817 0.0
N715 N 0.31908 0.92884 0.55318 0.0
C716 C 0.31148 0.04136 0.47445 0.0
C717 C 0.31328 0.96454 0.52694 0.0
N718 N 0.3081 0.09039 0.53425 0.0
N719 N 0.31157 0.91541 0.46713 0.0
H720 H 0.32032 0.93368 0.5846 0.0
H721 H 0.32575 0.89541 0.54418 0.0
H722 H 0.31192 0.91068 0.43567 0.0
H723 H 0.31088 0.88512 0.48364 0.0
H724 H 0.30606 0.12063 0.51774 0.0
H725 H 0.30849 0.09514 0.56572 0.0
H726 H 0.32087 0.11094 0.45711 0.0
H727 H 0.31694 0.07239 0.41674 0.0
C728 C 0.46516 0.82009 0.97363 0.0
C729 C 0.50986 0.8139 0.95807 0.0
C730 C 0.54166 0.82004 0.02655 0.0
C731 C 0.49693 0.81429 0.04215 0.0
N732 N 0.41565 0.81796 0.03321 0.0
N733 N 0.59115 0.81719 0.96698 0.0
C734 C 0.45839 0.8186 0.01644 0.0
C735 C 0.54842 0.81816 0.98376 0.0
N736 N 0.42954 0.82505 0.94714 0.0
N737 N 0.57731 0.82493 0.05302 0.0
H738 H 0.59599 0.81725 0.93552 0.0
H739 H 0.62138 0.81611 0.98363 0.0
H740 H 0.57215 0.82625 0.08441 0.0
H741 H 0.611 0.83072 0.04425 0.0
H742 H 0.3959 0.83119 0.95589 0.0
H743 H 0.43468 0.8261 0.91574 0.0
H744 H 0.38543 0.81687 0.01655 0.0
H745 H 0.41081 0.81827 0.06466 0.0
C746 C 0.19245 0.54721 0.98511 0.0
C747 C 0.19626 0.50873 0.95929 0.0
C748 C 0.19284 0.45716 0.01762 0.0
C749 C 0.19731 0.49563 0.04335 0.0
N750 N 0.18666 0.57594 0.05447 0.0
N751 N 0.18533 0.42847 0.94836 0.0
C752 C 0.19129 0.54036 0.0279 0.0
C753 C 0.1906 0.46402 0.97486 0.0
N754 N 0.19313 0.58994 0.96841 0.0
N755 N 0.19383 0.41441 0.03429 0.0
H756 H 0.18369 0.43366 0.91699 0.0
H757 H 0.1795 0.39481 0.95712 0.0
H758 H 0.19392 0.40945 0.06573 0.0
H759 H 0.19482 0.38427 0.01755 0.0
H760 H 0.19463 0.62008 0.98511 0.0
H761 H 0.19247 0.59488 0.93698 0.0
H762 H 0.18058 0.60958 0.04579 0.0
H763 H 0.18583 0.57083 0.08587 0.0
C764 C 0.54441 0.18672 0.01621 0.0
C765 C 0.50583 0.19219 0.04169 0.0
C766 C 0.45451 0.18753 0.98325 0.0
C767 C 0.49321 0.19078 0.95762 0.0
N768 N 0.5734 0.1785 0.94708 0.0
N769 N 0.42528 0.18289 0.05253 0.0
C770 C 0.53777 0.18439 0.97341 0.0
C771 C 0.46108 0.18667 0.02608 0.0
N772 N 0.58709 0.18696 0.03312 0.0
N773 N 0.41186 0.18858 0.96631 0.0
H774 H 0.43031 0.18226 0.08396 0.0
H775 H 0.39154 0.17736 0.04378 0.0
H776 H 0.40717 0.18783 0.93484 0.0
H777 H 0.38158 0.19036 0.98283 0.0
H778 H 0.61739 0.18702 0.01656 0.0
H779 H 0.59182 0.18725 0.06459 0.0
H780 H 0.60698 0.1723 0.95599 0.0
H781 H 0.5683 0.17685 0.9157 0.0
C782 C 0.8177 0.54157 0.97065 0.0
C783 C 0.81186 0.49685 0.95515 0.0
C784 C 0.81746 0.4653 0.02374 0.0
C785 C 0.81138 0.51002 0.03919 0.0
N786 N 0.81504 0.5912 0.03013 0.0
N787 N 0.81534 0.41568 0.96425 0.0
C788 C 0.81581 0.54846 0.01343 0.0
C789 C 0.81605 0.45842 0.98095 0.0
N790 N 0.82266 0.57708 0.9441 0.0
N791 N 0.82227 0.42977 0.05031 0.0
H792 H 0.8157 0.41076 0.93281 0.0
H793 H 0.81416 0.38553 0.98096 0.0
H794 H 0.82327 0.43497 0.08169 0.0
H795 H 0.82833 0.39612 0.04163 0.0
H796 H 0.82844 0.61077 0.95278 0.0
H797 H 0.824 0.57181 0.91272 0.0
H798 H 0.81418 0.62136 0.01342 0.0
H799 H 0.81512 0.59612 0.06158 0.0
loop_
_geom_bond_atom_site_label_1
_geom_bond_atom_site_label_2
_geom_bond_distance
_geom_bond_site_symmetry_2
_ccdc_geom_bond_type
Zn0 O3 2.031 1_455 S
Zn0 O5 2.049 . S
Zn0 O10 2.067 1_455 S
Zn1 O2 1.962 . S
Zn1 O4 1.986 . S
Zn1 O6 1.996 . S
Zn1 O9 1.943 1_455 S
O2 Zn1 1.962 . S
O2 C7 1.254 . S
O3 Zn0 2.031 1_655 S
O3 C7 1.269 1_655 S
O4 Zn1 1.986 . S
O4 C11 1.262 . S
O5 Zn0 2.049 . S
O5 C13 1.260 . S
O6 Zn1 1.996 . S
O6 C13 1.257 . S
C7 O2 1.254 . S
C7 O3 1.269 1_455 S
C8 O9 1.249 . S
C8 O10 1.270 . S
O9 Zn1 1.943 1_655 S
O9 C8 1.249 . S
O10 Zn0 2.067 1_655 S
O10 C8 1.270 . S
C11 O4 1.262 . S
C11 O12 1.232 . S
O12 C11 1.232 . S
C13 O5 1.260 . S
C13 O6 1.257 . S
Zn14 O17 2.031 1_545 S
Zn14 O19 2.049 . S
Zn14 O24 2.067 1_545 S
Zn15 O16 1.962 . S
Zn15 O18 1.986 . S
Zn15 O20 1.996 . S
Zn15 O23 1.943 1_545 S
O16 Zn15 1.962 . S
O16 C21 1.254 . S
O17 Zn14 2.031 1_565 S
O17 C21 1.269 1_565 S
O18 Zn15 1.986 . S
O18 C25 1.262 . S
O19 Zn14 2.049 . S
O19 C27 1.260 . S
O20 Zn15 1.996 . S
O20 C27 1.257 . S
C21 O16 1.254 . S
C21 O17 1.269 1_545 S
C22 O23 1.249 . S
C22 O24 1.270 . S
O23 Zn15 1.943 1_565 S
O23 C22 1.249 . S
O24 Zn14 2.067 1_565 S
O24 C22 1.270 . S
C25 O18 1.262 . S
C25 O26 1.232 . S
O26 C25 1.232 . S
C27 O19 1.260 . S
C27 O20 1.257 . S
Zn28 O31 2.031 1_655 S
Zn28 O33 2.049 . S
Zn28 O38 2.067 1_655 S
Zn29 O30 1.962 . S
Zn29 O32 1.986 . S
Zn29 O34 1.996 . S
Zn29 O37 1.943 1_655 S
O30 Zn29 1.962 . S
O30 C35 1.254 . S
O31 Zn28 2.031 1_455 S
O31 C35 1.269 1_455 S
O32 Zn29 1.986 . S
O32 C39 1.262 . S
O33 Zn28 2.049 . S
O33 C41 1.260 . S
O34 Zn29 1.996 . S
O34 C41 1.257 . S
C35 O30 1.254 . S
C35 O31 1.269 1_655 S
C36 O37 1.249 . S
C36 O38 1.270 . S
O37 Zn29 1.943 1_455 S
O37 C36 1.249 . S
O38 Zn28 2.067 1_455 S
O38 C36 1.270 . S
C39 O32 1.262 . S
C39 O40 1.232 . S
O40 C39 1.232 . S
C41 O33 1.260 . S
C41 O34 1.257 . S
Zn42 O45 2.031 1_565 S
Zn42 O47 2.049 . S
Zn42 O52 2.067 1_565 S
Zn43 O44 1.962 . S
Zn43 O46 1.986 . S
Zn43 O48 1.996 . S
Zn43 O51 1.943 1_565 S
O44 Zn43 1.962 . S
O44 C49 1.254 . S
O45 Zn42 2.031 1_545 S
O45 C49 1.269 1_545 S
O46 Zn43 1.986 . S
O46 C53 1.262 . S
O47 Zn42 2.049 . S
O47 C55 1.260 . S
O48 Zn43 1.996 . S
O48 C55 1.257 . S
C49 O44 1.254 . S
C49 O45 1.269 1_565 S
C50 O51 1.249 . S
C50 O52 1.270 . S
O51 Zn43 1.943 1_545 S
O51 C50 1.249 . S
O52 Zn42 2.067 1_545 S
O52 C50 1.270 . S
C53 O46 1.262 . S
C53 O54 1.232 . S
O54 C53 1.232 . S
C55 O47 1.260 . S
C55 O48 1.257 . S
Zn56 O59 2.031 1_455 S
Zn56 O61 2.049 . S
Zn56 O66 2.067 1_455 S
Zn57 O58 1.962 . S
Zn57 O60 1.986 . S
Zn57 O62 1.996 . S
Zn57 O65 1.943 1_455 S
O58 Zn57 1.962 . S
O58 C63 1.254 . S
O59 Zn56 2.031 1_655 S
O59 C63 1.269 1_655 S
O60 Zn57 1.986 . S
O60 C67 1.262 . S
O61 Zn56 2.049 . S
O61 C69 1.260 . S
O62 Zn57 1.996 . S
O62 C69 1.257 . S
C63 O58 1.254 . S
C63 O59 1.269 1_455 S
C64 O65 1.249 . S
C64 O66 1.270 . S
O65 Zn57 1.943 1_655 S
O65 C64 1.249 . S
O66 Zn56 2.067 1_655 S
O66 C64 1.270 . S
C67 O60 1.262 . S
C67 O68 1.232 . S
O68 C67 1.232 . S
C69 O61 1.260 . S
C69 O62 1.257 . S
Zn70 O73 2.031 1_545 S
Zn70 O75 2.049 . S
Zn70 O80 2.067 1_545 S
Zn71 O72 1.962 . S
Zn71 O74 1.986 . S
Zn71 O76 1.996 . S
Zn71 O79 1.943 1_545 S
O72 Zn71 1.962 . S
O72 C77 1.254 . S
O73 Zn70 2.031 1_565 S
O73 C77 1.269 1_565 S
O74 Zn71 1.986 . S
O74 C81 1.262 . S
O75 Zn70 2.049 . S
O75 C83 1.260 . S
O76 Zn71 1.996 . S
O76 C83 1.257 . S
C77 O72 1.254 . S
C77 O73 1.269 1_545 S
C78 O79 1.249 . S
C78 O80 1.270 . S
O79 Zn71 1.943 1_565 S
O79 C78 1.249 . S
O80 Zn70 2.067 1_565 S
O80 C78 1.270 . S
C81 O74 1.262 . S
C81 O82 1.232 . S
O82 C81 1.232 . S
C83 O75 1.260 . S
C83 O76 1.257 . S
Zn84 O87 2.031 1_655 S
Zn84 O89 2.049 . S
Zn84 O94 2.067 1_655 S
Zn85 O86 1.962 . S
Zn85 O88 1.986 . S
Zn85 O90 1.996 . S
Zn85 O93 1.943 1_655 S
O86 Zn85 1.962 . S
O86 C91 1.254 . S
O87 Zn84 2.031 1_455 S
O87 C91 1.269 1_455 S
O88 Zn85 1.986 . S
O88 C95 1.262 . S
O89 Zn84 2.049 . S
O89 C97 1.260 . S
O90 Zn85 1.996 . S
O90 C97 1.257 . S
C91 O86 1.254 . S
C91 O87 1.269 1_655 S
C92 O93 1.249 . S
C92 O94 1.270 . S
O93 Zn85 1.943 1_455 S
O93 C92 1.249 . S
O94 Zn84 2.067 1_455 S
O94 C92 1.270 . S
C95 O88 1.262 . S
C95 O96 1.232 . S
O96 C95 1.232 . S
C97 O89 1.260 . S
C97 O90 1.257 . S
Zn98 O101 2.031 1_565 S
Zn98 O103 2.049 . S
Zn98 O108 2.067 1_565 S
Zn99 O100 1.962 . S
Zn99 O102 1.986 . S
Zn99 O104 1.996 . S
Zn99 O107 1.943 1_565 S
O100 Zn99 1.962 . S
O100 C105 1.254 . S
O101 Zn98 2.031 1_545 S
O101 C105 1.269 1_545 S
O102 Zn99 1.986 . S
O102 C109 1.262 . S
O103 Zn98 2.049 . S
O103 C111 1.260 . S
O104 Zn99 1.996 . S
O104 C111 1.257 . S
C105 O100 1.254 . S
C105 O101 1.269 1_565 S
C106 O107 1.249 . S
C106 O108 1.270 . S
O107 Zn99 1.943 1_545 S
O107 C106 1.249 . S
O108 Zn98 2.067 1_545 S
O108 C106 1.270 . S
C109 O102 1.262 . S
C109 O110 1.232 . S
O110 C109 1.232 . S
C111 O103 1.260 . S
C111 O104 1.257 . S
Zn112 O115 2.031 . S
Zn112 O117 2.049 . S
Zn112 O122 2.067 . S
Zn113 O114 1.962 . S
Zn113 O116 1.986 . S
Zn113 O118 1.996 . S
Zn113 O121 1.943 . S
O114 Zn113 1.962 . S
O114 C119 1.254 . S
O115 Zn112 2.031 . S
O115 C119 1.269 . S
O116 Zn113 1.986 . S
O116 C123 1.262 . S
O117 Zn112 2.049 . S
O117 C125 1.260 . S
O118 Zn113 1.996 . S
O118 C125 1.257 . S
C119 O114 1.254 . S
C119 O115 1.269 . S
C120 O121 1.249 . S
C120 O122 1.270 . S
O121 Zn113 1.943 . S
O121 C120 1.249 . S
O122 Zn112 2.067 . S
O122 C120 1.270 . S
C123 O116 1.262 . S
C123 O124 1.232 . S
O124 C123 1.232 . S
C125 O117 1.260 . S
C125 O118 1.257 . S
Zn126 O129 2.031 . S
Zn126 O131 2.049 . S
Zn126 O136 2.067 . S
Zn127 O128 1.962 . S
Zn127 O130 1.986 . S
Zn127 O132 1.996 . S
Zn127 O135 1.943 . S
O128 Zn127 1.962 . S
O128 C133 1.254 . S
O129 Zn126 2.031 . S
O129 C133 1.269 . S
O130 Zn127 1.986 . S
O130 C137 1.262 . S
O131 Zn126 2.049 . S
O131 C139 1.260 . S
O132 Zn127 1.996 . S
O132 C139 1.257 . S
C133 O128 1.254 . S
C133 O129 1.269 . S
C134 O135 1.249 . S
C134 O136 1.270 . S
O135 Zn127 1.943 . S
O135 C134 1.249 . S
O136 Zn126 2.067 . S
O136 C134 1.270 . S
C137 O130 1.262 . S
C137 O138 1.232 . S
O138 C137 1.232 . S
C139 O131 1.260 . S
C139 O132 1.257 . S
Zn140 O143 2.031 . S
Zn140 O145 2.049 . S
Zn140 O150 2.067 . S
Zn141 O142 1.962 . S
Zn141 O144 1.986 . S
Zn141 O146 1.996 . S
Zn141 O149 1.943 . S
O142 Zn141 1.962 . S
O142 C147 1.254 . S
O143 Zn140 2.031 . S
O143 C147 1.269 . S
O144 Zn141 1.986 . S
O144 C151 1.262 . S
O145 Zn140 2.049 . S
O145 C153 1.260 . S
O146 Zn141 1.996 . S
O146 C153 1.257 . S
C147 O142 1.254 . S
C147 O143 1.269 . S
C148 O149 1.249 . S
C148 O150 1.270 . S
O149 Zn141 1.943 . S
O149 C148 1.249 . S
O150 Zn140 2.067 . S
O150 C148 1.270 . S
C151 O144 1.262 . S
C151 O152 1.232 . S
O152 C151 1.232 . S
C153 O145 1.260 . S
C153 O146 1.257 . S
Zn154 O157 2.031 . S
Zn154 O159 2.049 . S
Zn154 O164 2.067 . S
Zn155 O156 1.962 . S
Zn155 O158 1.986 . S
Zn155 O160 1.996 . S
Zn155 O163 1.943 . S
O156 Zn155 1.962 . S
O156 C161 1.254 . S
O157 Zn154 2.031 . S
O157 C161 1.269 . S
O158 Zn155 1.986 . S
O158 C165 1.262 . S
O159 Zn154 2.049 . S
O159 C167 1.260 . S
O160 Zn155 1.996 . S
O160 C167 1.257 . S
C161 O156 1.254 . S
C161 O157 1.269 . S
C162 O163 1.249 . S
C162 O164 1.270 . S
O163 Zn155 1.943 . S
O163 C162 1.249 . S
O164 Zn154 2.067 . S
O164 C162 1.270 . S
C165 O158 1.262 . S
C165 O166 1.232 . S
O166 C165 1.232 . S
C167 O159 1.260 . S
C167 O160 1.257 . S
Zn168 O171 2.031 . S
Zn168 O173 2.049 . S
Zn168 O178 2.067 . S
Zn169 O170 1.962 . S
Zn169 O172 1.986 . S
Zn169 O174 1.996 . S
Zn169 O177 1.943 . S
O170 Zn169 1.962 . S
O170 C175 1.254 . S
O171 Zn168 2.031 . S
O171 C175 1.269 . S
O172 Zn169 1.986 . S
O172 C179 1.262 . S
O173 Zn168 2.049 . S
O173 C181 1.260 . S
O174 Zn169 1.996 . S
O174 C181 1.257 . S
C175 O170 1.254 . S
C175 O171 1.269 . S
C176 O177 1.249 . S
C176 O178 1.270 . S
O177 Zn169 1.943 . S
O177 C176 1.249 . S
O178 Zn168 2.067 . S
O178 C176 1.270 . S
C179 O172 1.262 . S
C179 O180 1.232 . S
O180 C179 1.232 . S
C181 O173 1.260 . S
C181 O174 1.257 . S
Zn182 O185 2.031 . S
Zn182 O187 2.049 . S
Zn182 O192 2.067 . S
Zn183 O184 1.962 . S
Zn183 O186 1.986 . S
Zn183 O188 1.996 . S
Zn183 O191 1.943 . S
O184 Zn183 1.962 . S
O184 C189 1.254 . S
O185 Zn182 2.031 . S
O185 C189 1.269 . S
O186 Zn183 1.986 . S
O186 C193 1.262 . S
O187 Zn182 2.049 . S
O187 C195 1.260 . S
O188 Zn183 1.996 . S
O188 C195 1.257 . S
C189 O184 1.254 . S
C189 O185 1.269 . S
C190 O191 1.249 . S
C190 O192 1.270 . S
O191 Zn183 1.943 . S
O191 C190 1.249 . S
O192 Zn182 2.067 . S
O192 C190 1.270 . S
C193 O186 1.262 . S
C193 O194 1.232 . S
O194 C193 1.232 . S
C195 O187 1.260 . S
C195 O188 1.257 . S
Zn196 O199 2.031 . S
Zn196 O201 2.049 . S
Zn196 O206 2.067 . S
Zn197 O198 1.962 . S
Zn197 O200 1.986 . S
Zn197 O202 1.996 . S
Zn197 O205 1.943 . S
O198 Zn197 1.962 . S
O198 C203 1.254 . S
O199 Zn196 2.031 . S
O199 C203 1.269 . S
O200 Zn197 1.986 . S
O200 C207 1.262 . S
O201 Zn196 2.049 . S
O201 C209 1.260 . S
O202 Zn197 1.996 . S
O202 C209 1.257 . S
C203 O198 1.254 . S
C203 O199 1.269 . S
C204 O205 1.249 . S
C204 O206 1.270 . S
O205 Zn197 1.943 . S
O205 C204 1.249 . S
O206 Zn196 2.067 . S
O206 C204 1.270 . S
C207 O200 1.262 . S
C207 O208 1.232 . S
O208 C207 1.232 . S
C209 O201 1.260 . S
C209 O202 1.257 . S
Zn210 O213 2.031 . S
Zn210 O215 2.049 . S
Zn210 O220 2.067 . S
Zn211 O212 1.962 . S
Zn211 O214 1.986 . S
Zn211 O216 1.996 . S
Zn211 O219 1.943 . S
O212 Zn211 1.962 . S
O212 C217 1.254 . S
O213 Zn210 2.031 . S
O213 C217 1.269 . S
O214 Zn211 1.986 . S
O214 C221 1.262 . S
O215 Zn210 2.049 . S
O215 C223 1.260 . S
O216 Zn211 1.996 . S
O216 C223 1.257 . S
C217 O212 1.254 . S
C217 O213 1.269 . S
C218 O219 1.249 . S
C218 O220 1.270 . S
O219 Zn211 1.943 . S
O219 C218 1.249 . S
O220 Zn210 2.067 . S
O220 C218 1.270 . S
C221 O214 1.262 . S
C221 O222 1.232 . S
O222 C221 1.232 . S
C223 O215 1.260 . S
C223 O216 1.257 . S
C224 C225 1.363 . S
C224 C230 1.379 . S
C224 N232 1.356 . S
C225 C224 1.363 . S
C225 C231 1.363 . S
C226 C227 1.363 . S
C226 C231 1.379 . S
C226 N233 1.356 . S
C227 C226 1.363 . S
C227 C230 1.363 . S
N228 C230 1.356 . S
N228 H240 0.984 . S
N228 H241 0.985 . S
N229 C231 1.356 . S
N229 H234 0.984 . S
N229 H235 0.985 . S
C230 C224 1.379 . S
C230 C227 1.363 . S
C230 N228 1.356 . S
C231 C225 1.363 . S
C231 C226 1.379 . S
C231 N229 1.356 . S
N232 C224 1.356 . S
N232 H238 0.984 . S
N232 H239 0.984 . S
N233 C226 1.356 . S
N233 H236 0.984 . S
N233 H237 0.985 . S
H234 N229 0.984 . S
H235 N229 0.985 . S
H236 N233 0.984 . S
H237 N233 0.985 . S
H238 N232 0.984 . S
H239 N232 0.984 . S
H240 N228 0.984 . S
H241 N228 0.985 . S
C242 C243 1.363 . S
C242 C248 1.379 . S
C242 N250 1.356 . S
C243 C242 1.363 . S
C243 C249 1.363 . S
C244 C245 1.363 . S
C244 C249 1.379 . S
C244 N251 1.356 . S
C245 C244 1.363 . S
C245 C248 1.363 . S
N246 C248 1.356 . S
N246 H258 0.984 . S
N246 H259 0.985 . S
N247 C249 1.356 . S
N247 H252 0.984 . S
N247 H253 0.985 . S
C248 C242 1.379 . S
C248 C245 1.363 . S
C248 N246 1.356 . S
C249 C243 1.363 . S
C249 C244 1.379 . S
C249 N247 1.356 . S
N250 C242 1.356 . S
N250 H256 0.984 . S
N250 H257 0.984 . S
N251 C244 1.356 . S
N251 H254 0.984 . S
N251 H255 0.985 . S
H252 N247 0.984 . S
H253 N247 0.985 . S
H254 N251 0.984 . S
H255 N251 0.985 . S
H256 N250 0.984 . S
H257 N250 0.984 . S
H258 N246 0.984 . S
H259 N246 0.985 . S
C260 C261 1.363 . S
C260 C266 1.379 . S
C260 N268 1.356 . S
C261 C260 1.363 . S
C261 C267 1.363 . S
C262 C263 1.363 . S
C262 C267 1.379 . S
C262 N269 1.356 . S
C263 C262 1.363 . S
C263 C266 1.363 . S
N264 C266 1.356 . S
N264 H276 0.984 . S
N264 H277 0.985 . S
N265 C267 1.356 . S
N265 H270 0.984 . S
N265 H271 0.985 . S
C266 C260 1.379 . S
C266 C263 1.363 . S
C266 N264 1.356 . S
C267 C261 1.363 . S
C267 C262 1.379 . S
C267 N265 1.356 . S
N268 C260 1.356 . S
N268 H274 0.984 . S
N268 H275 0.984 . S
N269 C262 1.356 . S
N269 H272 0.984 . S
N269 H273 0.985 . S
H270 N265 0.984 . S
H271 N265 0.985 . S
H272 N269 0.984 . S
H273 N269 0.985 . S
H274 N268 0.984 . S
H275 N268 0.984 . S
H276 N264 0.984 . S
H277 N264 0.985 . S
C278 C279 1.363 . S
C278 C284 1.379 . S
C278 N286 1.356 . S
C279 C278 1.363 . S
C279 C285 1.363 . S
C280 C281 1.363 . S
C280 C285 1.379 . S
C280 N287 1.356 . S
C281 C280 1.363 . S
C281 C284 1.363 . S
N282 C284 1.356 . S
N282 H294 0.984 . S
N282 H295 0.985 . S
N283 C285 1.356 . S
N283 H288 0.984 . S
N283 H289 0.985 . S
C284 C278 1.379 . S
C284 C281 1.363 . S
C284 N282 1.356 . S
C285 C279 1.363 . S
C285 C280 1.379 . S
C285 N283 1.356 . S
N286 C278 1.356 . S
N286 H292 0.984 . S
N286 H293 0.984 . S
N287 C280 1.356 . S
N287 H290 0.984 . S
N287 H291 0.985 . S
H288 N283 0.984 . S
H289 N283 0.985 . S
H290 N287 0.984 . S
H291 N287 0.985 . S
H292 N286 0.984 . S
H293 N286 0.984 . S
H294 N282 0.984 . S
H295 N282 0.985 . S
C296 C297 1.363 . S
C296 C302 1.379 . S
C296 N304 1.356 . S
C297 C296 1.363 . S
C297 C303 1.363 . S
C298 C299 1.363 . S
C298 C303 1.379 . S
C298 N305 1.356 . S
C299 C298 1.363 . S
C299 C302 1.363 . S
N300 C302 1.356 . S
N300 H312 0.984 . S
N300 H313 0.985 . S
N301 C303 1.356 . S
N301 H306 0.984 . S
N301 H307 0.985 . S
C302 C296 1.379 . S
C302 C299 1.363 . S
C302 N300 1.356 . S
C303 C297 1.363 . S
C303 C298 1.379 . S
C303 N301 1.356 . S
N304 C296 1.356 . S
N304 H310 0.984 . S
N304 H311 0.984 . S
N305 C298 1.356 . S
N305 H308 0.984 . S
N305 H309 0.985 . S
H306 N301 0.984 . S
H307 N301 0.985 . S
H308 N305 0.984 . S
H309 N305 0.985 . S
H310 N304 0.984 . S
H311 N304 0.984 . S
H312 N300 0.984 . S
H313 N300 0.985 . S
C314 C315 1.363 . S
C314 C320 1.379 . S
C314 N322 1.356 . S
C315 C314 1.363 . S
C315 C321 1.363 . S
C316 C317 1.363 . S
C316 C321 1.379 . S
C316 N323 1.356 . S
C317 C316 1.363 . S
C317 C320 1.363 . S
N318 C320 1.356 . S
N318 H330 0.984 . S
N318 H331 0.985 . S
N319 C321 1.356 . S
N319 H324 0.984 . S
N319 H325 0.985 . S
C320 C314 1.379 . S
C320 C317 1.363 . S
C320 N318 1.356 . S
C321 C315 1.363 . S
C321 C316 1.379 . S
C321 N319 1.356 . S
N322 C314 1.356 . S
N322 H328 0.984 . S
N322 H329 0.984 . S
N323 C316 1.356 . S
N323 H326 0.984 . S
N323 H327 0.985 . S
H324 N319 0.984 . S
H325 N319 0.985 . S
H326 N323 0.984 . S
H327 N323 0.985 . S
H328 N322 0.984 . S
H329 N322 0.984 . S
H330 N318 0.984 . S
H331 N318 0.985 . S
C332 C333 1.363 . S
C332 C338 1.379 . S
C332 N340 1.356 . S
C333 C332 1.363 . S
C333 C339 1.363 . S
C334 C335 1.363 . S
C334 C339 1.379 . S
C334 N341 1.356 . S
C335 C334 1.363 . S
C335 C338 1.363 . S
N336 C338 1.356 . S
N336 H348 0.984 . S
N336 H349 0.985 . S
N337 C339 1.356 . S
N337 H342 0.984 . S
N337 H343 0.985 . S
C338 C332 1.379 . S
C338 C335 1.363 . S
C338 N336 1.356 . S
C339 C333 1.363 . S
C339 C334 1.379 . S
C339 N337 1.356 . S
N340 C332 1.356 . S
N340 H346 0.984 . S
N340 H347 0.984 . S
N341 C334 1.356 . S
N341 H344 0.984 . S
N341 H345 0.985 . S
H342 N337 0.984 . S
H343 N337 0.985 . S
H344 N341 0.984 . S
H345 N341 0.985 . S
H346 N340 0.984 . S
H347 N340 0.984 . S
H348 N336 0.984 . S
H349 N336 0.985 . S
C350 C351 1.363 . S
C350 C356 1.379 . S
C350 N358 1.356 . S
C351 C350 1.363 . S
C351 C357 1.363 . S
C352 C353 1.363 . S
C352 C357 1.379 . S
C352 N359 1.356 . S
C353 C352 1.363 . S
C353 C356 1.363 . S
N354 C356 1.356 . S
N354 H366 0.984 . S
N354 H367 0.985 . S
N355 C357 1.356 . S
N355 H360 0.984 . S
N355 H361 0.985 . S
C356 C350 1.379 . S
C356 C353 1.363 . S
C356 N354 1.356 . S
C357 C351 1.363 . S
C357 C352 1.379 . S
C357 N355 1.356 . S
N358 C350 1.356 . S
N358 H364 0.984 . S
N358 H365 0.984 . S
N359 C352 1.356 . S
N359 H362 0.984 . S
N359 H363 0.985 . S
H360 N355 0.984 . S
H361 N355 0.985 . S
H362 N359 0.984 . S
H363 N359 0.985 . S
H364 N358 0.984 . S
H365 N358 0.984 . S
H366 N354 0.984 . S
H367 N354 0.985 . S
C368 C369 1.363 . S
C368 C374 1.379 . S
C368 N376 1.356 . S
C369 C368 1.363 . S
C369 C375 1.363 . S
C370 C371 1.363 . S
C370 C375 1.379 . S
C370 N377 1.356 . S
C371 C370 1.363 . S
C371 C374 1.363 . S
N372 C374 1.356 . S
N372 H384 0.984 . S
N372 H385 0.985 . S
N373 C375 1.356 . S
N373 H378 0.984 . S
N373 H379 0.985 . S
C374 C368 1.379 . S
C374 C371 1.363 . S
C374 N372 1.356 . S
C375 C369 1.363 . S
C375 C370 1.379 . S
C375 N373 1.356 . S
N376 C368 1.356 . S
N376 H382 0.984 . S
N376 H383 0.984 . S
N377 C370 1.356 . S
N377 H380 0.984 . S
N377 H381 0.985 . S
H378 N373 0.984 . S
H379 N373 0.985 . S
H380 N377 0.984 . S
H381 N377 0.985 . S
H382 N376 0.984 . S
H383 N376 0.984 . S
H384 N372 0.984 . S
H385 N372 0.985 . S
C386 C387 1.363 . S
C386 C392 1.379 . S
C386 N394 1.356 . S
C387 C386 1.363 . S
C387 C393 1.363 . S
C388 C389 1.363 . S
C388 C393 1.379 . S
C388 N395 1.356 . S
C389 C388 1.363 . S
C389 C392 1.363 . S
N390 C392 1.356 . S
N390 H402 0.984 . S
N390 H403 0.985 . S
N391 C393 1.356 . S
N391 H396 0.984 . S
N391 H397 0.985 . S
C392 C386 1.379 . S
C392 C389 1.363 . S
C392 N390 1.356 . S
C393 C387 1.363 . S
C393 C388 1.379 . S
C393 N391 1.356 . S
N394 C386 1.356 . S
N394 H400 0.984 . S
N394 H401 0.984 . S
N395 C388 1.356 . S
N395 H398 0.984 . S
N395 H399 0.985 . S
H396 N391 0.984 . S
H397 N391 0.985 . S
H398 N395 0.984 . S
H399 N395 0.985 . S
H400 N394 0.984 . S
H401 N394 0.984 . S
H402 N390 0.984 . S
H403 N390 0.985 . S
C404 C405 1.363 . S
C404 C410 1.379 . S
C404 N412 1.356 . S
C405 C404 1.363 . S
C405 C411 1.363 . S
C406 C407 1.363 . S
C406 C411 1.379 . S
C406 N413 1.356 . S
C407 C406 1.363 . S
C407 C410 1.363 . S
N408 C410 1.356 . S
N408 H420 0.984 . S
N408 H421 0.985 . S
N409 C411 1.356 . S
N409 H414 0.984 . S
N409 H415 0.985 . S
C410 C404 1.379 . S
C410 C407 1.363 . S
C410 N408 1.356 . S
C411 C405 1.363 . S
C411 C406 1.379 . S
C411 N409 1.356 . S
N412 C404 1.356 . S
N412 H418 0.984 . S
N412 H419 0.984 . S
N413 C406 1.356 . S
N413 H416 0.984 . S
N413 H417 0.985 . S
H414 N409 0.984 . S
H415 N409 0.985 . S
H416 N413 0.984 . S
H417 N413 0.985 . S
H418 N412 0.984 . S
H419 N412 0.984 . S
H420 N408 0.984 . S
H421 N408 0.985 . S
C422 C423 1.363 . S
C422 C428 1.379 . S
C422 N430 1.356 . S
C423 C422 1.363 . S
C423 C429 1.363 . S
C424 C425 1.363 . S
C424 C429 1.379 . S
C424 N431 1.356 . S
C425 C424 1.363 . S
C425 C428 1.363 . S
N426 C428 1.356 . S
N426 H438 0.984 . S
N426 H439 0.985 . S
N427 C429 1.356 . S
N427 H432 0.984 . S
N427 H433 0.985 . S
C428 C422 1.379 . S
C428 C425 1.363 . S
C428 N426 1.356 . S
C429 C423 1.363 . S
C429 C424 1.379 . S
C429 N427 1.356 . S
N430 C422 1.356 . S
N430 H436 0.984 . S
N430 H437 0.984 . S
N431 C424 1.356 . S
N431 H434 0.984 . S
N431 H435 0.985 . S
H432 N427 0.984 . S
H433 N427 0.985 . S
H434 N431 0.984 . S
H435 N431 0.985 . S
H436 N430 0.984 . S
H437 N430 0.984 . S
H438 N426 0.984 . S
H439 N426 0.985 . S
C440 C441 1.363 . S
C440 C446 1.379 . S
C440 N448 1.356 . S
C441 C440 1.363 . S
C441 C447 1.363 . S
C442 C443 1.363 . S
C442 C447 1.379 . S
C442 N449 1.356 . S
C443 C442 1.363 . S
C443 C446 1.363 . S
N444 C446 1.356 . S
N444 H456 0.984 . S
N444 H457 0.985 . S
N445 C447 1.356 . S
N445 H450 0.984 . S
N445 H451 0.985 . S
C446 C440 1.379 . S
C446 C443 1.363 . S
C446 N444 1.356 . S
C447 C441 1.363 . S
C447 C442 1.379 . S
C447 N445 1.356 . S
N448 C440 1.356 . S
N448 H454 0.984 . S
N448 H455 0.984 . S
N449 C442 1.356 . S
N449 H452 0.984 . S
N449 H453 0.985 . S
H450 N445 0.984 . S
H451 N445 0.985 . S
H452 N449 0.984 . S
H453 N449 0.985 . S
H454 N448 0.984 . S
H455 N448 0.984 . S
H456 N444 0.984 . S
H457 N444 0.985 . S
C458 C459 1.363 . S
C458 C464 1.379 . S
C458 N466 1.356 . S
C459 C458 1.363 . S
C459 C465 1.363 . S
C460 C461 1.363 . S
C460 C465 1.379 . S
C460 N467 1.356 . S
C461 C460 1.363 . S
C461 C464 1.363 . S
N462 C464 1.356 . S
N462 H474 0.984 . S
N462 H475 0.985 . S
N463 C465 1.356 . S
N463 H468 0.984 . S
N463 H469 0.985 . S
C464 C458 1.379 . S
C464 C461 1.363 . S
C464 N462 1.356 . S
C465 C459 1.363 . S
C465 C460 1.379 . S
C465 N463 1.356 . S
N466 C458 1.356 . S
N466 H472 0.984 . S
N466 H473 0.984 . S
N467 C460 1.356 . S
N467 H470 0.984 . S
N467 H471 0.985 . S
H468 N463 0.984 . S
H469 N463 0.985 . S
H470 N467 0.984 . S
H471 N467 0.985 . S
H472 N466 0.984 . S
H473 N466 0.984 . S
H474 N462 0.984 . S
H475 N462 0.985 . S
C476 C477 1.363 . S
C476 C482 1.379 . S
C476 N484 1.356 . S
C477 C476 1.363 . S
C477 C483 1.363 . S
C478 C479 1.363 . S
C478 C483 1.379 . S
C478 N485 1.356 . S
C479 C478 1.363 . S
C479 C482 1.363 . S
N480 C482 1.356 . S
N480 H492 0.984 . S
N480 H493 0.985 . S
N481 C483 1.356 . S
N481 H486 0.984 . S
N481 H487 0.985 . S
C482 C476 1.379 . S
C482 C479 1.363 . S
C482 N480 1.356 . S
C483 C477 1.363 . S
C483 C478 1.379 . S
C483 N481 1.356 . S
N484 C476 1.356 . S
N484 H490 0.984 . S
N484 H491 0.984 . S
N485 C478 1.356 . S
N485 H488 0.984 . S
N485 H489 0.985 . S
H486 N481 0.984 . S
H487 N481 0.985 . S
H488 N485 0.984 . S
H489 N485 0.985 . S
H490 N484 0.984 . S
H491 N484 0.984 . S
H492 N480 0.984 . S
H493 N480 0.985 . S
C494 C495 1.363 . S
C494 C500 1.379 . S
C494 N502 1.356 . S
C495 C494 1.363 . S
C495 C501 1.363 . S
C496 C497 1.363 . S
C496 C501 1.379 . S
C496 N503 1.356 . S
C497 C496 1.363 . S
C497 C500 1.363 . S
N498 C500 1.356 . S
N498 H510 0.984 . S
N498 H511 0.985 . S
N499 C501 1.356 . S
N499 H504 0.984 . S
N499 H505 0.985 . S
C500 C494 1.379 . S
C500 C497 1.363 . S
C500 N498 1.356 . S
C501 C495 1.363 . S
C501 C496 1.379 . S
C501 N499 1.356 . S
N502 C494 1.356 . S
N502 H508 0.984 . S
N502 H509 0.984 . S
N503 C496 1.356 . S
N503 H506 0.984 . S
N503 H507 0.985 . S
H504 N499 0.984 . S
H505 N499 0.985 . S
H506 N503 0.984 . S
H507 N503 0.985 . S
H508 N502 0.984 . S
H509 N502 0.984 . S
H510 N498 0.984 . S
H511 N498 0.985 . S
C512 C513 1.363 . S
C512 C518 1.379 . S
C512 N520 1.356 . S
C513 C512 1.363 . S
C513 C519 1.363 . S
C514 C515 1.363 . S
C514 C519 1.379 . S
C514 N521 1.356 . S
C515 C514 1.363 . S
C515 C518 1.363 . S
N516 C518 1.356 . S
N516 H528 0.984 . S
N516 H529 0.985 . S
N517 C519 1.356 . S
N517 H522 0.984 . S
N517 H523 0.985 . S
C518 C512 1.379 . S
C518 C515 1.363 . S
C518 N516 1.356 . S
C519 C513 1.363 . S
C519 C514 1.379 . S
C519 N517 1.356 . S
N520 C512 1.356 . S
N520 H526 0.984 . S
N520 H527 0.984 . S
N521 C514 1.356 . S
N521 H524 0.984 . S
N521 H525 0.985 . S
H522 N517 0.984 . S
H523 N517 0.985 . S
H524 N521 0.984 . S
H525 N521 0.985 . S
H526 N520 0.984 . S
H527 N520 0.984 . S
H528 N516 0.984 . S
H529 N516 0.985 . S
C530 C531 1.363 . S
C530 C536 1.379 . S
C530 N538 1.356 . S
C531 C530 1.363 . S
C531 C537 1.363 . S
C532 C533 1.363 . S
C532 C537 1.379 . S
C532 N539 1.356 . S
C533 C532 1.363 . S
C533 C536 1.363 . S
N534 C536 1.356 . S
N534 H546 0.984 . S
N534 H547 0.985 . S
N535 C537 1.356 . S
N535 H540 0.984 . S
N535 H541 0.985 . S
C536 C530 1.379 . S
C536 C533 1.363 . S
C536 N534 1.356 . S
C537 C531 1.363 . S
C537 C532 1.379 . S
C537 N535 1.356 . S
N538 C530 1.356 . S
N538 H544 0.984 . S
N538 H545 0.984 . S
N539 C532 1.356 . S
N539 H542 0.984 . S
N539 H543 0.985 . S
H540 N535 0.984 . S
H541 N535 0.985 . S
H542 N539 0.984 . S
H543 N539 0.985 . S
H544 N538 0.984 . S
H545 N538 0.984 . S
H546 N534 0.984 . S
H547 N534 0.985 . S
C548 C549 1.363 . S
C548 C554 1.379 . S
C548 N556 1.356 . S
C549 C548 1.363 . S
C549 C555 1.363 . S
C550 C551 1.363 . S
C550 C555 1.379 . S
C550 N557 1.356 . S
C551 C550 1.363 . S
C551 C554 1.363 . S
N552 C554 1.356 . S
N552 H564 0.984 . S
N552 H565 0.985 . S
N553 C555 1.356 . S
N553 H558 0.984 . S
N553 H559 0.985 . S
C554 C548 1.379 . S
C554 C551 1.363 . S
C554 N552 1.356 . S
C555 C549 1.363 . S
C555 C550 1.379 . S
C555 N553 1.356 . S
N556 C548 1.356 . S
N556 H562 0.984 . S
N556 H563 0.984 . S
N557 C550 1.356 . S
N557 H560 0.984 . S
N557 H561 0.985 . S
H558 N553 0.984 . S
H559 N553 0.985 . S
H560 N557 0.984 . S
H561 N557 0.985 . S
H562 N556 0.984 . S
H563 N556 0.984 . S
H564 N552 0.984 . S
H565 N552 0.985 . S
C566 C567 1.363 . S
C566 C572 1.379 . S
C566 N574 1.356 . S
C567 C566 1.363 . S
C567 C573 1.363 . S
C568 C569 1.363 . S
C568 C573 1.379 . S
C568 N575 1.356 . S
C569 C568 1.363 . S
C569 C572 1.363 . S
N570 C572 1.356 . S
N570 H582 0.984 . S
N570 H583 0.985 . S
N571 C573 1.356 . S
N571 H576 0.984 . S
N571 H577 0.985 . S
C572 C566 1.379 . S
C572 C569 1.363 . S
C572 N570 1.356 . S
C573 C567 1.363 . S
C573 C568 1.379 . S
C573 N571 1.356 . S
N574 C566 1.356 . S
N574 H580 0.984 . S
N574 H581 0.984 . S
N575 C568 1.356 . S
N575 H578 0.984 . S
N575 H579 0.985 . S
H576 N571 0.984 . S
H577 N571 0.985 . S
H578 N575 0.984 . S
H579 N575 0.985 . S
H580 N574 0.984 . S
H581 N574 0.984 . S
H582 N570 0.984 . S
H583 N570 0.985 . S
C584 C585 1.363 . S
C584 C590 1.379 . S
C584 N592 1.356 . S
C585 C584 1.363 . S
C585 C591 1.363 . S
C586 C587 1.363 . S
C586 C591 1.379 . S
C586 N593 1.356 . S
C587 C586 1.363 . S
C587 C590 1.363 . S
N588 C590 1.356 . S
N588 H600 0.984 . S
N588 H601 0.985 . S
N589 C591 1.356 . S
N589 H594 0.984 . S
N589 H595 0.985 . S
C590 C584 1.379 . S
C590 C587 1.363 . S
C590 N588 1.356 . S
C591 C585 1.363 . S
C591 C586 1.379 . S
C591 N589 1.356 . S
N592 C584 1.356 . S
N592 H598 0.984 . S
N592 H599 0.984 . S
N593 C586 1.356 . S
N593 H596 0.984 . S
N593 H597 0.985 . S
H594 N589 0.984 . S
H595 N589 0.985 . S
H596 N593 0.984 . S
H597 N593 0.985 . S
H598 N592 0.984 . S
H599 N592 0.984 . S
H600 N588 0.984 . S
H601 N588 0.985 . S
C602 C603 1.363 . S
C602 C608 1.379 . S
C602 N610 1.356 . S
C603 C602 1.363 . S
C603 C609 1.363 . S
C604 C605 1.363 . S
C604 C609 1.379 . S
C604 N611 1.356 . S
C605 C604 1.363 . S
C605 C608 1.363 . S
N606 C608 1.356 . S
N606 H618 0.984 . S
N606 H619 0.985 . S
N607 C609 1.356 . S
N607 H612 0.984 . S
N607 H613 0.985 . S
C608 C602 1.379 . S
C608 C605 1.363 . S
C608 N606 1.356 . S
C609 C603 1.363 . S
C609 C604 1.379 . S
C609 N607 1.356 . S
N610 C602 1.356 . S
N610 H616 0.984 . S
N610 H617 0.984 . S
N611 C604 1.356 . S
N611 H614 0.984 . S
N611 H615 0.985 . S
H612 N607 0.984 . S
H613 N607 0.985 . S
H614 N611 0.984 . S
H615 N611 0.985 . S
H616 N610 0.984 . S
H617 N610 0.984 . S
H618 N606 0.984 . S
H619 N606 0.985 . S
C620 C621 1.363 . S
C620 C626 1.379 . S
C620 N628 1.356 . S
C621 C620 1.363 . S
C621 C627 1.363 . S
C622 C623 1.363 . S
C622 C627 1.379 . S
C622 N629 1.356 . S
C623 C622 1.363 . S
C623 C626 1.363 . S
N624 C626 1.356 . S
N624 H636 0.984 . S
N624 H637 0.985 . S
N625 C627 1.356 . S
N625 H630 0.984 . S
N625 H631 0.985 . S
C626 C620 1.379 . S
C626 C623 1.363 . S
C626 N624 1.356 . S
C627 C621 1.363 . S
C627 C622 1.379 . S
C627 N625 1.356 . S
N628 C620 1.356 . S
N628 H634 0.984 . S
N628 H635 0.984 . S
N629 C622 1.356 . S
N629 H632 0.984 . S
N629 H633 0.985 . S
H630 N625 0.984 . S
H631 N625 0.985 . S
H632 N629 0.984 . S
H633 N629 0.985 . S
H634 N628 0.984 . S
H635 N628 0.984 . S
H636 N624 0.984 . S
H637 N624 0.985 . S
C638 C639 1.363 . S
C638 C644 1.379 . S
C638 N646 1.356 . S
C639 C638 1.363 . S
C639 C645 1.363 . S
C640 C641 1.363 . S
C640 C645 1.379 . S
C640 N647 1.356 . S
C641 C640 1.363 . S
C641 C644 1.363 . S
N642 C644 1.356 . S
N642 H654 0.984 . S
N642 H655 0.985 . S
N643 C645 1.356 . S
N643 H648 0.984 . S
N643 H649 0.985 . S
C644 C638 1.379 . S
C644 C641 1.363 . S
C644 N642 1.356 . S
C645 C639 1.363 . S
C645 C640 1.379 . S
C645 N643 1.356 . S
N646 C638 1.356 . S
N646 H652 0.984 . S
N646 H653 0.984 . S
N647 C640 1.356 . S
N647 H650 0.984 . S
N647 H651 0.985 . S
H648 N643 0.984 . S
H649 N643 0.985 . S
H650 N647 0.984 . S
H651 N647 0.985 . S
H652 N646 0.984 . S
H653 N646 0.984 . S
H654 N642 0.984 . S
H655 N642 0.985 . S
C656 C657 1.363 . S
C656 C662 1.379 . S
C656 N664 1.356 . S
C657 C656 1.363 . S
C657 C663 1.363 1_455 S
C658 C659 1.363 . S
C658 C663 1.379 . S
C658 N665 1.356 . S
C659 C658 1.363 . S
C659 C662 1.363 1_655 S
N660 C662 1.356 . S
N660 H672 0.984 . S
N660 H673 0.985 . S
N661 C663 1.356 . S
N661 H666 0.984 . S
N661 H667 0.985 . S
C662 C656 1.379 . S
C662 C659 1.363 1_455 S
C662 N660 1.356 . S
C663 C657 1.363 1_655 S
C663 C658 1.379 . S
C663 N661 1.356 . S
N664 C656 1.356 . S
N664 H670 0.984 . S
N664 H671 0.984 . S
N665 C658 1.356 . S
N665 H668 0.984 . S
N665 H669 0.985 . S
H666 N661 0.984 . S
H667 N661 0.985 . S
H668 N665 0.984 . S
H669 N665 0.985 . S
H670 N664 0.984 . S
H671 N664 0.984 . S
H672 N660 0.984 . S
H673 N660 0.985 . S
C674 C675 1.363 1_545 S
C674 C680 1.379 . S
C674 N682 1.356 . S
C675 C674 1.363 1_565 S
C675 C681 1.363 . S
C676 C677 1.363 1_565 S
C676 C681 1.379 . S
C676 N683 1.356 . S
C677 C676 1.363 1_545 S
C677 C680 1.363 . S
N678 C680 1.356 . S
N678 H690 0.984 . S
N678 H691 0.985 . S
N679 C681 1.356 . S
N679 H684 0.984 . S
N679 H685 0.985 . S
C680 C674 1.379 . S
C680 C677 1.363 . S
C680 N678 1.356 . S
C681 C675 1.363 . S
C681 C676 1.379 . S
C681 N679 1.356 . S
N682 C674 1.356 . S
N682 H688 0.984 . S
N682 H689 0.984 . S
N683 C676 1.356 . S
N683 H686 0.984 . S
N683 H687 0.985 . S
H684 N679 0.984 . S
H685 N679 0.985 . S
H686 N683 0.984 . S
H687 N683 0.985 . S
H688 N682 0.984 . S
H689 N682 0.984 . S
H690 N678 0.984 . S
H691 N678 0.985 . S
C692 C693 1.363 . S
C692 C698 1.379 . S
C692 N700 1.356 . S
C693 C692 1.363 . S
C693 C699 1.363 1_455 S
C694 C695 1.363 . S
C694 C699 1.379 . S
C694 N701 1.356 . S
C695 C694 1.363 . S
C695 C698 1.363 1_655 S
N696 C698 1.356 . S
N696 H708 0.984 . S
N696 H709 0.985 . S
N697 C699 1.356 . S
N697 H702 0.984 . S
N697 H703 0.985 . S
C698 C692 1.379 . S
C698 C695 1.363 1_455 S
C698 N696 1.356 . S
C699 C693 1.363 1_655 S
C699 C694 1.379 . S
C699 N697 1.356 . S
N700 C692 1.356 . S
N700 H706 0.984 . S
N700 H707 0.984 . S
N701 C694 1.356 . S
N701 H704 0.984 . S
N701 H705 0.985 . S
H702 N697 0.984 . S
H703 N697 0.985 . S
H704 N701 0.984 . S
H705 N701 0.985 . S
H706 N700 0.984 . S
H707 N700 0.984 . S
H708 N696 0.984 . S
H709 N696 0.985 . S
C710 C711 1.363 . S
C710 C716 1.379 . S
C710 N718 1.356 . S
C711 C710 1.363 . S
C711 C717 1.363 1_545 S
C712 C713 1.363 . S
C712 C717 1.379 . S
C712 N719 1.356 . S
C713 C712 1.363 . S
C713 C716 1.363 1_565 S
N714 C716 1.356 . S
N714 H726 0.984 . S
N714 H727 0.985 . S
N715 C717 1.356 . S
N715 H720 0.984 . S
N715 H721 0.985 . S
C716 C710 1.379 . S
C716 C713 1.363 1_545 S
C716 N714 1.356 . S
C717 C711 1.363 1_565 S
C717 C712 1.379 . S
C717 N715 1.356 . S
N718 C710 1.356 . S
N718 H724 0.984 . S
N718 H725 0.984 . S
N719 C712 1.356 . S
N719 H722 0.984 . S
N719 H723 0.985 . S
H720 N715 0.984 . S
H721 N715 0.985 . S
H722 N719 0.984 . S
H723 N719 0.985 . S
H724 N718 0.984 . S
H725 N718 0.984 . S
H726 N714 0.984 . S
H727 N714 0.985 . S
C728 C729 1.363 . S
C728 C734 1.379 1_556 S
C728 N736 1.356 . S
C729 C728 1.363 . S
C729 C735 1.363 . S
C730 C731 1.363 . S
C730 C735 1.379 1_554 S
C730 N737 1.356 . S
C731 C730 1.363 . S
C731 C734 1.363 . S
N732 C734 1.356 . S
N732 H744 0.984 . S
N732 H745 0.985 . S
N733 C735 1.356 . S
N733 H738 0.984 . S
N733 H739 0.985 . S
C734 C728 1.379 1_554 S
C734 C731 1.363 . S
C734 N732 1.356 . S
C735 C729 1.363 . S
C735 C730 1.379 1_556 S
C735 N733 1.356 . S
N736 C728 1.356 . S
N736 H742 0.984 . S
N736 H743 0.984 . S
N737 C730 1.356 . S
N737 H740 0.984 . S
N737 H741 0.985 . S
H738 N733 0.984 . S
H739 N733 0.985 . S
H740 N737 0.984 . S
H741 N737 0.985 . S
H742 N736 0.984 . S
H743 N736 0.984 . S
H744 N732 0.984 . S
H745 N732 0.985 . S
C746 C747 1.363 . S
C746 C752 1.379 1_556 S
C746 N754 1.356 . S
C747 C746 1.363 . S
C747 C753 1.363 . S
C748 C749 1.363 . S
C748 C753 1.379 1_554 S
C748 N755 1.356 . S
C749 C748 1.363 . S
C749 C752 1.363 . S
N750 C752 1.356 . S
N750 H762 0.984 . S
N750 H763 0.985 . S
N751 C753 1.356 . S
N751 H756 0.984 . S
N751 H757 0.985 . S
C752 C746 1.379 1_554 S
C752 C749 1.363 . S
C752 N750 1.356 . S
C753 C747 1.363 . S
C753 C748 1.379 1_556 S
C753 N751 1.356 . S
N754 C746 1.356 . S
N754 H760 0.984 . S
N754 H761 0.984 . S
N755 C748 1.356 . S
N755 H758 0.984 . S
N755 H759 0.985 . S
H756 N751 0.984 . S
H757 N751 0.985 . S
H758 N755 0.984 . S
H759 N755 0.985 . S
H760 N754 0.984 . S
H761 N754 0.984 . S
H762 N750 0.984 . S
H763 N750 0.985 . S
C764 C765 1.363 . S
C764 C770 1.379 1_554 S
C764 N772 1.356 . S
C765 C764 1.363 . S
C765 C771 1.363 . S
C766 C767 1.363 . S
C766 C771 1.379 1_556 S
C766 N773 1.356 . S
C767 C766 1.363 . S
C767 C770 1.363 . S
N768 C770 1.356 . S
N768 H780 0.984 . S
N768 H781 0.985 . S
N769 C771 1.356 . S
N769 H774 0.984 . S
N769 H775 0.985 . S
C770 C764 1.379 1_556 S
C770 C767 1.363 . S
C770 N768 1.356 . S
C771 C765 1.363 . S
C771 C766 1.379 1_554 S
C771 N769 1.356 . S
N772 C764 1.356 . S
N772 H778 0.984 . S
N772 H779 0.984 . S
N773 C766 1.356 . S
N773 H776 0.984 . S
N773 H777 0.985 . S
H774 N769 0.984 . S
H775 N769 0.985 . S
H776 N773 0.984 . S
H777 N773 0.985 . S
H778 N772 0.984 . S
H779 N772 0.984 . S
H780 N768 0.984 . S
H781 N768 0.985 . S
C782 C783 1.363 . S
C782 C788 1.379 1_556 S
C782 N790 1.356 . S
C783 C782 1.363 . S
C783 C789 1.363 . S
C784 C785 1.363 . S
C784 C789 1.379 1_554 S
C784 N791 1.356 . S
C785 C784 1.363 . S
C785 C788 1.363 . S
N786 C788 1.356 . S
N786 H798 0.984 . S
N786 H799 0.985 . S
N787 C789 1.356 . S
N787 H792 0.984 . S
N787 H793 0.985 . S
C788 C782 1.379 1_554 S
C788 C785 1.363 . S
C788 N786 1.356 . S
C789 C783 1.363 . S
C789 C784 1.379 1_556 S
C789 N787 1.356 . S
N790 C782 1.356 . S
N790 H796 0.984 . S
N790 H797 0.984 . S
N791 C784 1.356 . S
N791 H794 0.984 . S
N791 H795 0.985 . S
H792 N787 0.984 . S
H793 N787 0.985 . S
H794 N791 0.984 . S
H795 N791 0.985 . S
H796 N790 0.984 . S
H797 N790 0.984 . S
H798 N786 0.984 . S
H799 N786 0.985 . S
C225 C13 1.368 . S
C227 C50 1.291 . S
C243 C8 1.291 . S
C245 C27 1.368 . S
C261 C22 1.291 . S
C263 C41 1.368 . S
C279 C36 1.291 . S
C281 C55 1.368 . S
C297 C69 1.368 . S
C299 C78 1.291 . S
C315 C83 1.368 . S
C317 C92 1.291 . S
C333 C97 1.368 . S
C335 C106 1.291 . S
C351 C111 1.368 . S
C353 C64 1.291 . S
C369 C125 1.368 . S
C371 C162 1.291 . S
C387 C120 1.291 . S
C389 C139 1.368 . S
C405 C134 1.291 . S
C407 C153 1.368 . S
C423 C167 1.368 . S
C425 C148 1.291 . S
C441 C190 1.291 . S
C443 C181 1.368 . S
C459 C204 1.291 . S
C461 C195 1.368 . S
C477 C209 1.368 . S
C479 C218 1.291 . S
C495 C223 1.368 . S
C497 C176 1.291 . S
C513 C11 1.195 . S
C515 C221 1.195 . S
C531 C25 1.195 . S
C533 C179 1.195 . S
C549 C193 1.195 . S
C551 C39 1.195 . S
C567 C53 1.195 . S
C569 C207 1.195 . S
C585 C137 1.195 . S
C587 C67 1.195 . S
C603 C151 1.195 . S
C605 C81 1.195 . S
C621 C95 1.195 . S
C623 C165 1.195 . S
C639 C109 1.195 . S
C641 C123 1.195 . S
C657 C7 1.441 . S
C659 C91 1.441 . S
C675 C105 1.441 . S
C677 C21 1.441 . S
C693 C63 1.441 . S
C695 C35 1.441 . S
C711 C77 1.441 . S
C713 C49 1.441 . S
C729 C119 1.441 . S
C731 C203 1.441 . S
C747 C133 1.441 . S
C749 C217 1.441 . S
C765 C175 1.441 . S
C767 C147 1.441 . S
C783 C161 1.441 . S
C785 C189 1.441 . S
