# Generated by pormake.
# Topology vby, (6)-cn, num edge types: 1
# Building blocks:
#     Node 0, Type 0, BuildingBlock: UKALOJ_clean_sbu_0, # of connection points: 6
#     Node 1, Type 0, BuildingBlock: UKALOJ_clean_sbu_0, # of connection points: 6
#     Node 2, Type 0, BuildingBlock: UKALOJ_clean_sbu_0, # of connection points: 6
#     Node 3, Type 0, BuildingBlock: UKALOJ_clean_sbu_0, # of connection points: 6
#     Node 4, Type 0, BuildingBlock: UKALOJ_clean_sbu_0, # of connection points: 6
#     Node 5, Type 0, BuildingBlock: UKALOJ_clean_sbu_0, # of connection points: 6
#     Node 6, Type 0, BuildingBlock: UKALOJ_clean_sbu_0, # of connection points: 6
#     Node 7, Type 0, BuildingBlock: UKALOJ_clean_sbu_0, # of connection points: 6
#     Edge 8, Type (0, 0), BuildingBlock: XIVTED_clean_linker_0, # of connection points: 2
#     Edge 9, Type (0, 0), BuildingBlock: XIVTED_clean_linker_0, # of connection points: 2
#     Edge 10, Type (0, 0), BuildingBlock: XIVTED_clean_linker_0, # of connection points: 2
#     Edge 11, Type (0, 0), BuildingBlock: XIVTED_clean_linker_0, # of connection points: 2
#     Edge 12, Type (0, 0), BuildingBlock: XIVTED_clean_linker_0, # of connection points: 2
#     Edge 13, Type (0, 0), BuildingBlock: XIVTED_clean_linker_0, # of connection points: 2
#     Edge 14, Type (0, 0), BuildingBlock: XIVTED_clean_linker_0, # of connection points: 2
#     Edge 15, Type (0, 0), BuildingBlock: XIVTED_clean_linker_0, # of connection points: 2
#     Edge 16, Type (0, 0), BuildingBlock: XIVTED_clean_linker_0, # of connection points: 2
#     Edge 17, Type (0, 0), BuildingBlock: XIVTED_clean_linker_0, # of connection points: 2
#     Edge 18, Type (0, 0), BuildingBlock: XIVTED_clean_linker_0, # of connection points: 2
#     Edge 19, Type (0, 0), BuildingBlock: XIVTED_clean_linker_0, # of connection points: 2
#     Edge 20, Type (0, 0), BuildingBlock: XIVTED_clean_linker_0, # of connection points: 2
#     Edge 21, Type (0, 0), BuildingBlock: XIVTED_clean_linker_0, # of connection points: 2
#     Edge 22, Type (0, 0), BuildingBlock: XIVTED_clean_linker_0, # of connection points: 2
#     Edge 23, Type (0, 0), BuildingBlock: XIVTED_clean_linker_0, # of connection points: 2
#     Edge 24, Type (0, 0), BuildingBlock: XIVTED_clean_linker_0, # of connection points: 2
#     Edge 25, Type (0, 0), BuildingBlock: XIVTED_clean_linker_0, # of connection points: 2
#     Edge 26, Type (0, 0), BuildingBlock: XIVTED_clean_linker_0, # of connection points: 2
#     Edge 27, Type (0, 0), BuildingBlock: XIVTED_clean_linker_0, # of connection points: 2
#     Edge 28, Type (0, 0), BuildingBlock: XIVTED_clean_linker_0, # of connection points: 2
#     Edge 29, Type (0, 0), BuildingBlock: XIVTED_clean_linker_0, # of connection points: 2
#     Edge 30, Type (0, 0), BuildingBlock: XIVTED_clean_linker_0, # of connection points: 2
#     Edge 31, Type (0, 0), BuildingBlock: XIVTED_clean_linker_0, # of connection points: 2
# Relax obj value: 0.068
# Max RMSD: 0.108
# Mean RMSD: 0.108
data_MOF--net-vby--node1-UKALOJ_clean_sbu_0--edge1-XIVTED_clean_linker_0
_symmetry_space_group_name_H-M    P1
_symmetry_Int_Tables_number       1
_symmetry_cell_setting            triclinic
loop_
_symmetry_equiv_pos_as_xyz
'x, y, z'
_cell_length_a     15.37767
_cell_length_b     58.439456
_cell_length_c     40.833971
_cell_angle_alpha  89.933172
_cell_angle_beta   89.922268
_cell_angle_gamma 90.170709
loop_
_atom_site_label
_atom_site_type_symbol
_atom_site_fract_x
_atom_site_fract_y
_atom_site_fract_z
_atom_type_partial_charge
Zn0 Zn 0.01792 0.36433 0.99238 0.0
O1 O 0.15316 0.36967 0.98741 0.0
C2 C 0.05001 0.31738 1.01218 0.0
Zn3 Zn 0.02021 0.36244 0.04688 0.0
C4 C 0.19527 0.36985 0.01423 0.0
O5 O 0.15463 0.36775 0.04119 0.0
C6 C 0.84272 0.35672 0.02505 0.0
O7 O 0.00222 0.39797 0.05293 0.0
O8 O -0.0007 0.39982 0.99919 0.0
N9 N 0.04067 0.35758 0.09587 0.0
C10 C 0.00264 0.3649 0.12377 0.0
C11 C 0.1019 0.34131 0.13724 0.0
N12 N 0.10262 0.34308 0.10443 0.0
N13 N 0.04001 0.35487 0.15008 0.0
C14 C 0.03272 0.36213 0.91527 0.0
C15 C 0.90969 0.37646 0.9027 0.0
N16 N -0.00652 0.36831 0.94347 0.0
N17 N 0.91738 0.37729 0.93545 0.0
N18 N -0.01902 0.36695 0.88948 0.0
H19 H 0.17037 0.36424 0.91006 0.0
H20 H 0.12257 0.33931 0.89154 0.0
H21 H 0.13399 0.34111 0.93575 0.0
C22 C 0.11972 0.35084 0.91309 0.0
C23 C 0.92682 0.3809 0.12506 0.0
H24 H 0.89575 0.38272 0.10078 0.0
H25 H 0.94993 0.39802 0.13294 0.0
H26 H 0.87837 0.37476 0.14325 0.0
O27 O 0.88479 0.35705 0.05179 0.0
O28 O 0.88353 0.35882 0.99822 0.0
C29 C -0.00441 0.40975 0.02686 0.0
O30 O 0.03903 0.32909 0.9863 0.0
O31 O 0.04125 0.32696 0.03992 0.0
Zn32 Zn 0.92787 0.62802 0.04513 0.0
O33 O 0.94661 0.59249 0.05091 0.0
C34 C 0.10465 0.63411 0.02257 0.0
Zn35 Zn 0.92874 0.62642 0.99061 0.0
C36 C 0.95289 0.58086 0.02472 0.0
O37 O 0.9483 0.59093 0.99714 0.0
C38 C 0.89641 0.67321 1.01081 0.0
O39 O 0.79341 0.62093 0.98618 0.0
O40 O 0.79346 0.62255 0.03997 0.0
N41 N 0.95229 0.62268 0.94159 0.0
C42 C 0.9122 0.6288 0.91354 0.0
C43 C 0.03596 0.61508 0.90051 0.0
N44 N 0.02883 0.61408 0.93327 0.0
N45 N 0.96385 0.62432 0.88756 0.0
C46 C 0.9468 0.62529 0.12195 0.0
C47 C 0.84704 0.64862 0.13582 0.0
N48 N 0.90822 0.63265 0.0942 0.0
N49 N 0.84597 0.64699 0.10301 0.0
N50 N 0.90947 0.63514 0.14842 0.0
H51 H 0.05396 0.60781 0.09856 0.0
H52 H 0.0004 0.5922 0.13067 0.0
H53 H 0.07147 0.61551 0.14108 0.0
C54 C 0.02303 0.60942 0.12293 0.0
C55 C 0.82469 0.63985 0.91177 0.0
H56 H 0.77444 0.62631 0.90924 0.0
H57 H 0.82058 0.65129 0.89011 0.0
H58 H 0.81093 0.64963 0.93441 0.0
O59 O 0.90682 0.66164 0.98481 0.0
O60 O 0.90607 0.66351 0.03844 0.0
C61 C 0.75209 0.62054 0.01321 0.0
O62 O 0.06334 0.63354 0.04951 0.0
O63 O 0.06314 0.63212 0.99592 0.0
Zn64 Zn 0.02281 0.6296 0.48971 0.0
O65 O 0.00484 0.5944 0.48017 0.0
C66 C 0.84629 0.63452 0.51351 0.0
Zn67 Zn 0.02222 0.62628 0.54408 0.0
C68 C -0.00118 0.582 0.50563 0.0
O69 O 0.00356 0.59128 0.53369 0.0
C70 C 0.0533 0.67361 0.52831 0.0
O71 O 0.1574 0.62093 0.54745 0.0
O72 O 0.15729 0.62434 0.49379 0.0
N73 N -0.00017 0.61892 0.59233 0.0
C74 C 0.02558 0.62723 0.6216 0.0
C75 C 0.92766 0.60215 0.63073 0.0
N76 N 0.93923 0.60334 0.59822 0.0
N77 N -0.01955 0.61702 0.64629 0.0
C78 C 0.00406 0.62892 0.41312 0.0
C79 C 0.0965 0.65462 0.40004 0.0
N80 N 0.04013 0.63669 0.44111 0.0
N81 N 0.09773 0.65256 0.43283 0.0
N82 N 0.03863 0.6399 0.38697 0.0
H83 H 0.9613 0.59441 0.407 0.0
H84 H 0.88689 0.61549 0.39145 0.0
H85 H 0.89639 0.61068 0.43511 0.0
C86 C 0.93253 0.61149 0.41167 0.0
C87 C 0.09709 0.64445 0.62543 0.0
H88 H 0.14136 0.644 0.60398 0.0
H89 H 0.13477 0.64107 0.64807 0.0
H90 H 0.06848 0.66182 0.62689 0.0
O91 O 0.04354 0.66118 0.55362 0.0
O92 O 0.04381 0.66475 0.50009 0.0
C93 C 0.19864 0.62149 0.52041 0.0
O94 O 0.88741 0.63486 0.48651 0.0
O95 O 0.88787 0.63178 0.54002 0.0
Zn96 Zn 0.92687 0.36681 0.5461 0.0
O97 O 0.7916 0.37226 0.5494 0.0
C98 C 0.89497 0.31961 0.53051 0.0
Zn99 Zn 0.92642 0.36365 0.49172 0.0
C100 C 0.7505 0.37181 0.52236 0.0
O101 O 0.79199 0.36903 0.49573 0.0
C102 C 0.10288 0.3585 0.51558 0.0
O103 O 0.94508 0.39887 0.48208 0.0
O104 O 0.94615 0.40176 0.5356 0.0
N105 N 0.90953 0.35659 0.4431 0.0
C106 C 0.94592 0.36439 0.41512 0.0
C107 C 0.85329 0.33879 0.402 0.0
N108 N 0.85184 0.34078 0.4348 0.0
N109 N 0.91142 0.35349 0.38895 0.0
C110 C 0.92292 0.36612 0.6237 0.0
C111 C 0.01984 0.39151 0.63245 0.0
N112 N 0.9488 0.37427 0.59429 0.0
N113 N 0.00883 0.39002 0.59996 0.0
N114 N 0.96726 0.37665 0.64821 0.0
H115 H 0.80771 0.349 0.60645 0.0
H116 H 0.81441 0.3521 0.65053 0.0
H117 H 0.88135 0.33145 0.62947 0.0
C118 C 0.85207 0.34874 0.62785 0.0
C119 C 0.01768 0.38176 0.41371 0.0
H120 H -0.01085 0.39888 0.40915 0.0
H121 H 0.06333 0.3778 0.39344 0.0
H122 H 0.05377 0.38243 0.43712 0.0
O123 O 0.06187 0.35825 0.4886 0.0
O124 O 0.0612 0.3612 0.54211 0.0
C125 C 0.95133 0.41114 0.5076 0.0
O126 O 0.90507 0.33198 0.5558 0.0
O127 O 0.90464 0.3285 0.50226 0.0
Zn128 Zn 0.51641 0.864 0.99238 0.0
O129 O 0.65173 0.86947 0.98777 0.0
C130 C 0.54931 0.81715 0.01337 0.0
Zn131 Zn 0.51672 0.86229 0.04688 0.0
C132 C 0.6928 0.86998 0.01481 0.0
O133 O 0.65115 0.86804 0.04157 0.0
C134 C 0.3402 0.85607 0.02436 0.0
O135 O 0.49669 0.8978 0.05198 0.0
O136 O 0.49684 0.89959 0.99824 0.0
N137 N 0.53671 0.85848 0.09609 0.0
C138 C 0.49771 0.86627 0.12353 0.0
C139 C 0.6033 0.84514 0.13832 0.0
N140 N 0.60239 0.84547 0.10544 0.0
N141 N 0.53851 0.85808 0.15055 0.0
C142 C 0.53298 0.86085 0.91542 0.0
C143 C 0.40929 0.87449 0.90221 0.0
N144 N 0.49306 0.86732 0.94335 0.0
N145 N 0.41658 0.87588 0.93493 0.0
N146 N 0.48122 0.86504 0.88939 0.0
H147 H 0.67065 0.86305 0.91027 0.0
H148 H 0.6235 0.83767 0.89278 0.0
H149 H 0.63456 0.84041 0.93689 0.0
C150 C 0.62025 0.84965 0.91381 0.0
C151 C 0.41869 0.88122 0.12342 0.0
H152 H 0.38607 0.88109 0.09934 0.0
H153 H 0.43864 0.89913 0.12846 0.0
H154 H 0.3721 0.87561 0.14261 0.0
O155 O 0.38133 0.8564 0.0513 0.0
O156 O 0.38191 0.85835 0.99776 0.0
C157 C 0.49131 0.90955 0.02585 0.0
O158 O 0.53851 0.82869 0.98732 0.0
O159 O 0.53976 0.82686 0.04098 0.0
Zn160 Zn 0.42703 0.12781 0.04635 0.0
O161 O 0.4454 0.09221 0.05164 0.0
C162 C 0.60378 0.13396 0.02384 0.0
Zn163 Zn 0.42783 0.12655 0.9918 0.0
C164 C 0.45152 0.08074 0.02529 0.0
O165 O 0.44709 0.091 0.99785 0.0
C166 C 0.39597 0.17324 1.0126 0.0
O167 O 0.29253 0.12114 0.98729 0.0
O168 O 0.29259 0.12246 0.0411 0.0
N169 N 0.45144 0.12309 0.94275 0.0
C170 C 0.41238 0.12976 0.91476 0.0
C171 C 0.53474 0.11523 0.90167 0.0
N172 N 0.52712 0.114 0.9344 0.0
N173 N 0.46385 0.12513 0.88879 0.0
C174 C 0.44641 0.12484 0.1232 0.0
C175 C 0.346 0.14792 0.13725 0.0
N176 N 0.40739 0.13215 0.09551 0.0
N177 N 0.34472 0.14633 0.10444 0.0
N178 N 0.40898 0.13456 0.14975 0.0
H179 H 0.55301 0.10729 0.09954 0.0
H180 H 0.50155 0.09199 0.13243 0.0
H181 H 0.57224 0.1156 0.14173 0.0
C182 C 0.5232 0.10915 0.12406 0.0
C183 C 0.32588 0.14133 0.91294 0.0
H184 H 0.31031 0.15004 0.9363 0.0
H185 H 0.27509 0.12823 0.90819 0.0
H186 H 0.32494 0.15383 0.89245 0.0
O187 O 0.40616 0.16181 0.98646 0.0
O188 O 0.40558 0.16338 0.04012 0.0
C189 C 0.25121 0.12061 0.01431 0.0
O190 O 0.56251 0.13323 0.05078 0.0
O191 O 0.56224 0.13215 0.99717 0.0
Zn192 Zn 0.52307 0.13021 0.49109 0.0
O193 O 0.50509 0.09497 0.48179 0.0
C194 C 0.34657 0.13527 0.51478 0.0
Zn195 Zn 0.52251 0.12719 0.5455 0.0
C196 C 0.49907 0.08274 0.50742 0.0
O197 O 0.50391 0.09221 0.53533 0.0
C198 C 0.55345 0.17439 0.52949 0.0
O199 O 0.65768 0.12185 0.54898 0.0
O200 O 0.65755 0.12497 0.49529 0.0
N201 N 0.49974 0.11981 0.5937 0.0
C202 C 0.52517 0.12786 0.62316 0.0
C203 C 0.42783 0.10251 0.6317 0.0
N204 N 0.43944 0.10409 0.59924 0.0
N205 N 0.4803 0.11728 0.64758 0.0
C206 C 0.50463 0.12926 0.41445 0.0
C207 C 0.59707 0.15491 0.40122 0.0
N208 N 0.54056 0.13714 0.44241 0.0
N209 N 0.59816 0.15299 0.43403 0.0
N210 N 0.5393 0.14014 0.38822 0.0
H211 H 0.46194 0.09472 0.40858 0.0
H212 H 0.38757 0.11573 0.39281 0.0
H213 H 0.39689 0.1111 0.43652 0.0
C214 C 0.43313 0.11182 0.4131 0.0
C215 C 0.59604 0.1452 0.62745 0.0
H216 H 0.64059 0.14505 0.60606 0.0
H217 H 0.63345 0.14172 0.65012 0.0
H218 H 0.5668 0.16249 0.62919 0.0
O219 O 0.54378 0.16207 0.55491 0.0
O220 O 0.54401 0.16542 0.50132 0.0
C221 C 0.6989 0.12226 0.52193 0.0
O222 O 0.38769 0.13546 0.48778 0.0
O223 O 0.38815 0.13269 0.54132 0.0
Zn224 Zn 0.42273 0.86683 0.54602 0.0
O225 O 0.2877 0.87214 0.55103 0.0
C226 C 0.38975 0.81979 0.52695 0.0
Zn227 Zn 0.42057 0.86468 0.49157 0.0
C228 C 0.2456 0.87233 0.52422 0.0
O229 O 0.28622 0.87019 0.49729 0.0
C230 C 0.59784 0.85905 0.51374 0.0
O231 O 0.44005 0.90007 0.48477 0.0
O232 O 0.44155 0.90222 0.53833 0.0
N233 N 0.4001 0.86064 0.44241 0.0
C234 C 0.44889 0.86524 0.41572 0.0
C235 C 0.32554 0.85339 0.39884 0.0
N236 N 0.32357 0.85328 0.4318 0.0
N237 N 0.40349 0.86082 0.38817 0.0
C238 C 0.42186 0.86365 0.62358 0.0
C239 C 0.5241 0.88742 0.63303 0.0
N240 N 0.44807 0.87223 0.59448 0.0
N241 N 0.5114 0.88697 0.60058 0.0
N242 N 0.4693 0.8729 0.64837 0.0
H243 H 0.30437 0.84798 0.60563 0.0
H244 H 0.31036 0.85074 0.64976 0.0
H245 H 0.37431 0.82946 0.62865 0.0
C246 C 0.34804 0.84709 0.62717 0.0
C247 C 0.53859 0.87528 0.41662 0.0
H248 H 0.55321 0.88476 0.3937 0.0
H249 H 0.58639 0.86122 0.41921 0.0
H250 H 0.54581 0.88698 0.43779 0.0
O251 O 0.55586 0.85913 0.48698 0.0
O252 O 0.55698 0.86139 0.54051 0.0
C253 C 0.44644 0.91199 0.5106 0.0
O254 O 0.40113 0.83156 0.55279 0.0
O255 O 0.39812 0.8293 0.49904 0.0
H256 H 0.30785 0.36621 0.96224 0.0
H257 H 0.72989 0.36 0.077 0.0
H258 H 0.30099 0.37334 0.06748 0.0
H259 H 0.73723 0.35325 0.97171 0.0
H260 H 0.57176 0.36409 0.07415 0.0
H261 H 0.46594 0.36194 0.96506 0.0
C262 C 0.33965 0.36717 0.98586 0.0
C263 C 0.29119 0.3701 0.01465 0.0
C264 C 0.60803 0.36159 0.05169 0.0
C265 C 0.47147 0.36487 0.01814 0.0
C266 C 0.69819 0.35909 0.05336 0.0
C267 C 0.74679 0.35634 0.02458 0.0
C268 C 0.56644 0.36135 0.02104 0.0
C269 C 0.70239 0.35543 0.99455 0.0
C270 C 0.42977 0.36456 0.9875 0.0
C271 C 0.3357 0.37104 0.04464 0.0
N272 N 0.61484 0.35803 0.99356 0.0
N273 N 0.4232 0.36834 0.04561 0.0
H274 H 0.2084 0.63927 0.9689 0.0
H275 H 0.64816 0.61548 0.06683 0.0
H276 H 0.21922 0.62937 0.07364 0.0
H277 H 0.63771 0.62559 0.96213 0.0
H278 H 0.49102 0.61995 0.06959 0.0
H279 H 0.36568 0.63502 0.96613 0.0
C280 C 0.24399 0.63643 0.99141 0.0
C281 C 0.20054 0.63461 0.02159 0.0
C282 C 0.52288 0.62108 0.04598 0.0
C283 C 0.38085 0.62942 0.01844 0.0
C284 C 0.61267 0.61841 0.04432 0.0
C285 C 0.6562 0.62021 0.01416 0.0
C286 C 0.47599 0.62564 0.01729 0.0
C287 C 0.60677 0.62399 0.98585 0.0
C288 C 0.33386 0.6339 0.98975 0.0
C289 C 0.25009 0.63096 0.0499 0.0
N290 N 0.51921 0.62671 0.98814 0.0
N291 N 0.33769 0.62835 0.0476 0.0
H292 H 0.74219 0.63692 0.56746 0.0
H293 H 0.30293 0.61908 0.46653 0.0
H294 H 0.73235 0.63234 0.46197 0.0
H295 H 0.31238 0.62389 0.57201 0.0
H296 H 0.46033 0.62331 0.46452 0.0
H297 H 0.58469 0.63281 0.56951 0.0
C298 C 0.70679 0.63527 0.54466 0.0
C299 C 0.75051 0.63491 0.51446 0.0
C300 C 0.42816 0.62334 0.48813 0.0
C301 C 0.57006 0.62991 0.51674 0.0
C302 C 0.33823 0.62081 0.48934 0.0
C303 C 0.29442 0.62118 0.51953 0.0
C304 C 0.47482 0.62632 0.5173 0.0
C305 C 0.34357 0.62344 0.54823 0.0
C306 C 0.61682 0.63282 0.5459 0.0
C307 C 0.70125 0.63276 0.48576 0.0
N308 N 0.43126 0.62605 0.5464 0.0
N309 N 0.61354 0.63021 0.48762 0.0
H310 H 0.64644 0.37445 0.46853 0.0
H311 H 0.20677 0.35581 0.56947 0.0
H312 H 0.63646 0.36914 0.57398 0.0
H313 H 0.21708 0.36092 0.46401 0.0
H314 H 0.36425 0.35999 0.57149 0.0
H315 H 0.48908 0.3701 0.46653 0.0
C316 C 0.61103 0.37259 0.49134 0.0
C317 C 0.65469 0.37211 0.52151 0.0
C318 C 0.33224 0.36008 0.54789 0.0
C319 C 0.47434 0.36683 0.51929 0.0
C320 C 0.24228 0.35759 0.54667 0.0
C321 C 0.19868 0.35808 0.51649 0.0
C322 C 0.37911 0.36317 0.51873 0.0
C323 C 0.24807 0.36039 0.48779 0.0
C324 C 0.52113 0.37 0.49013 0.0
C325 C 0.6054 0.36968 0.55021 0.0
N326 N 0.33576 0.36298 0.48964 0.0
N327 N 0.51774 0.36701 0.54838 0.0
H328 H 0.79633 0.87499 0.06844 0.0
H329 H 0.23692 0.85118 0.97063 0.0
H330 H 0.80766 0.86494 0.96376 0.0
H331 H 0.2251 0.86061 0.07542 0.0
H332 H 0.07971 0.85554 0.96782 0.0
H333 H 0.95343 0.87044 0.07125 0.0
C334 C 0.832 0.87206 0.04594 0.0
C335 C 0.78872 0.87031 0.01578 0.0
C336 C 0.11129 0.85653 0.99146 0.0
C337 C 0.9689 0.86477 0.01897 0.0
C338 C 0.20112 0.85393 0.99315 0.0
C339 C 0.24429 0.85559 0.02335 0.0
C340 C 0.06401 0.86091 0.02015 0.0
C341 C 0.19446 0.85914 0.05166 0.0
C342 C 0.92177 0.86934 0.04763 0.0
C343 C 0.83839 0.86651 0.9875 0.0
N344 N 0.1069 0.86182 0.04934 0.0
N345 N 0.92592 0.86374 0.98982 0.0
H346 H 0.14731 0.11524 0.06787 0.0
H347 H 0.70746 0.13941 0.97021 0.0
H348 H 0.13686 0.12594 0.96328 0.0
H349 H 0.71838 0.12895 0.07484 0.0
H350 H 0.86476 0.13523 0.96738 0.0
H351 H -0.00985 0.11963 0.07067 0.0
C352 C 0.11182 0.11829 0.04539 0.0
C353 C 0.15534 0.12027 0.01526 0.0
C354 C 0.83295 0.13396 0.99099 0.0
C355 C -0.02488 0.12561 0.01844 0.0
C356 C 0.74308 0.13646 0.99269 0.0
C357 C 0.69965 0.13447 0.02285 0.0
C358 C 0.87998 0.12936 0.01963 0.0
C359 C 0.74923 0.13068 0.05111 0.0
C360 C 0.02202 0.12091 0.04707 0.0
C361 C 0.10592 0.1242 0.98699 0.0
N362 N 0.83684 0.12811 0.04878 0.0
N363 N 0.01834 0.12687 0.98931 0.0
H364 H 0.24249 0.13805 0.5687 0.0
H365 H 0.80315 0.11946 0.46808 0.0
H366 H 0.2326 0.13272 0.46328 0.0
H367 H 0.81272 0.12499 0.57348 0.0
H368 H 0.96055 0.12368 0.46599 0.0
H369 H 0.085 0.13393 0.57082 0.0
C370 C 0.20707 0.13623 0.54593 0.0
C371 C 0.25078 0.13567 0.51572 0.0
C372 C 0.92841 0.12387 0.4896 0.0
C373 C 0.07034 0.13065 0.51809 0.0
C374 C 0.83848 0.12135 0.49086 0.0
C375 C 0.7947 0.12193 0.52104 0.0
C376 C -0.0249 0.12705 0.51871 0.0
C377 C 0.84388 0.12438 0.54971 0.0
C378 C 0.11711 0.13377 0.5472 0.0
C379 C 0.20151 0.1333 0.48706 0.0
N380 N 0.93157 0.12698 0.54782 0.0
N381 N 0.11381 0.13075 0.48897 0.0
H382 H 0.71093 0.86158 0.46174 0.0
H383 H 0.13302 0.86909 0.57629 0.0
H384 H 0.70318 0.85633 0.56722 0.0
H385 H 0.13984 0.87536 0.47091 0.0
H386 H -0.02513 0.86477 0.57361 0.0
H387 H 0.86907 0.86569 0.46449 0.0
C388 C 0.74251 0.861 0.48541 0.0
C389 C 0.69377 0.85867 0.51426 0.0
C390 C 0.01104 0.86721 0.5511 0.0
C391 C 0.87425 0.8637 0.51768 0.0
C392 C 0.10121 0.86986 0.55266 0.0
C393 C 0.14968 0.87256 0.52381 0.0
C394 C 0.9693 0.86726 0.52047 0.0
C395 C 0.10513 0.87325 0.49381 0.0
C396 C 0.83271 0.86352 0.48702 0.0
C397 C 0.73811 0.85817 0.54432 0.0
N398 N 0.01758 0.87051 0.49292 0.0
N399 N 0.82573 0.86078 0.54525 0.0
H400 H 0.96857 0.55177 0.97302 0.0
H401 H -0.011 0.4376 0.08116 0.0
H402 H 0.95845 0.55263 0.07872 0.0
H403 H -0.0174 0.43925 0.97544 0.0
H404 H -0.01987 0.47951 0.08171 0.0
H405 H -0.02193 0.51033 0.97437 0.0
C406 C 0.96857 0.54324 0.99659 0.0
C407 C 0.96244 0.55572 0.02581 0.0
C408 C -0.01948 0.47063 0.05845 0.0
C409 C 0.97303 0.508 0.02754 0.0
C410 C -0.01455 0.44674 0.05811 0.0
C411 C -0.01328 0.4349 0.02821 0.0
C412 C -0.02297 0.48268 0.02868 0.0
C413 C -0.01804 0.4476 0.99909 0.0
C414 C 0.97383 0.51951 0.99734 0.0
C415 C 0.96296 0.54367 0.0556 0.0
N416 N -0.02247 0.47074 1.00009 0.0
N417 N 0.968 0.52042 0.05571 0.0
H418 H -0.02488 0.44048 0.5582 0.0
H419 H -0.00673 0.55473 0.45044 0.0
H420 H 0.95224 0.43895 0.4528 0.0
H421 H -0.01719 0.55207 0.55611 0.0
H422 H -0.01647 0.51269 0.44914 0.0
H423 H -0.0138 0.48172 0.55623 0.0
C424 C 0.9725 0.44883 0.53452 0.0
C425 C 0.96217 0.43621 0.50561 0.0
C426 C -0.0168 0.52143 0.47251 0.0
C427 C -0.02543 0.48386 0.50318 0.0
C428 C -0.01136 0.54535 0.47328 0.0
C429 C -0.0108 0.55691 0.50343 0.0
C430 C -0.02137 0.50916 0.5021 0.0
C431 C -0.01702 0.54397 0.53227 0.0
C432 C -0.02131 0.47249 0.53342 0.0
C433 C 0.9599 0.44807 0.47567 0.0
N434 N -0.02178 0.52089 0.53084 0.0
N435 N 0.96583 0.47134 0.4752 0.0
H436 H 0.48192 0.9372 0.0802 0.0
H437 H 0.46709 0.05196 0.9732 0.0
H438 H 0.48076 0.93923 0.97446 0.0
H439 H 0.45577 0.05215 0.07889 0.0
H440 H 0.4754 0.01047 0.97402 0.0
H441 H 0.47355 0.97909 0.08102 0.0
C442 C 0.47957 0.94642 0.05719 0.0
C443 C 0.48222 0.93469 0.02721 0.0
C444 C 0.47117 0.01951 0.99709 0.0
C445 C 0.47312 0.98248 0.02801 0.0
C446 C 0.46659 0.04328 0.99665 0.0
C447 C 0.46049 0.05558 0.02604 0.0
C448 C 0.46968 0.00782 0.02713 0.0
C449 C 0.46031 0.04333 0.05566 0.0
C450 C 0.47496 0.97031 0.05769 0.0
C451 C 0.47901 0.9475 0.99816 0.0
N452 N 0.46468 0.02007 0.05546 0.0
N453 N 0.47483 0.97065 0.99932 0.0
H454 H 0.49337 0.05505 0.45271 0.0
H455 H 0.46412 0.94138 0.56169 0.0
H456 H 0.48191 0.05326 0.5584 0.0
H457 H 0.45276 0.93972 0.45602 0.0
H458 H 0.47622 0.9827 0.55967 0.0
H459 H 0.48186 0.01307 0.45208 0.0
C460 C 0.48818 0.04588 0.4757 0.0
C461 C 0.4889 0.05766 0.50565 0.0
C462 C 0.47108 0.9734 0.53683 0.0
C463 C 0.4762 0.00995 0.5051 0.0
C464 C 0.4643 0.94972 0.53798 0.0
C465 C 0.45707 0.93706 0.50898 0.0
C466 C 0.47069 0.98468 0.50646 0.0
C467 C 0.45804 0.94886 0.47898 0.0
C468 C 0.48174 0.02197 0.47532 0.0
C469 C 0.48196 0.04497 0.53471 0.0
N470 N 0.46458 0.9721 0.47847 0.0
N471 N 0.47613 0.02188 0.53366 0.0
H472 H 0.10197 0.29368 0.95752 0.0
H473 H 0.36122 0.20159 0.06402 0.0
H474 H 0.09024 0.28898 0.063 0.0
H475 H 0.33937 0.19713 0.95878 0.0
H476 H 0.27191 0.23589 0.0631 0.0
H477 H 0.19223 0.25924 0.95656 0.0
C478 C 0.11687 0.28518 0.98042 0.0
C479 C 0.08864 0.29429 1.01041 0.0
C480 C 0.28704 0.22752 0.04015 0.0
C481 C 0.19359 0.2553 1.00948 0.0
C482 C 0.33889 0.20804 0.04062 0.0
C483 C 0.35758 0.19638 1.01144 0.0
C484 C 0.25353 0.23551 1.0103 0.0
C485 C 0.32665 0.20558 0.98187 0.0
C486 C 0.16907 0.26565 0.97985 0.0
C487 C 0.11057 0.28264 0.03931 0.0
N488 N 0.27557 0.22454 0.98207 0.0
N489 N 0.16234 0.26391 0.03812 0.0
H490 H 0.58532 0.78861 0.0645 0.0
H491 H 0.84363 0.69722 0.95652 0.0
H492 H 0.60554 0.79359 0.95922 0.0
H493 H 0.85658 0.70128 0.06201 0.0
H494 H 0.75325 0.73164 0.95611 0.0
H495 H 0.67495 0.75437 0.06308 0.0
C496 C 0.60738 0.7823 0.04099 0.0
C497 C 0.58811 0.79407 1.01195 0.0
C498 C 0.77669 0.72509 0.97928 0.0
C499 C 0.6925 0.75503 1.01022 0.0
C500 C 0.82895 0.70557 0.97953 0.0
C501 C 0.85756 0.69629 1.00937 0.0
C502 C 0.7525 0.73525 1.00907 0.0
C503 C 0.83594 0.70776 0.03843 0.0
C504 C 0.6594 0.76285 0.04023 0.0
C505 C 0.61871 0.78505 0.98222 0.0
N506 N 0.7841 0.72648 0.03755 0.0
N507 N 0.66995 0.76612 0.98213 0.0
H508 H 0.11125 0.69602 0.58343 0.0
H509 H 0.35757 0.79052 0.47646 0.0
H510 H 0.0842 0.7038 0.47874 0.0
H511 H 0.33349 0.79633 0.58152 0.0
H512 H 0.27081 0.75569 0.47824 0.0
H513 H 0.19912 0.73113 0.58463 0.0
C514 C 0.12226 0.70531 0.56083 0.0
C515 C 0.09058 0.69688 0.5309 0.0
C516 C 0.2848 0.76449 0.50097 0.0
C517 C 0.19269 0.73655 0.53206 0.0
C518 C 0.33519 0.78429 0.50002 0.0
C519 C 0.35248 0.79648 0.52887 0.0
C520 C 0.2514 0.75668 0.53099 0.0
C521 C 0.32173 0.78748 0.55867 0.0
C522 C 0.17303 0.72522 0.56151 0.0
C523 C 0.10748 0.70954 0.50236 0.0
N524 N 0.2721 0.76815 0.55896 0.0
N525 N 0.15803 0.72856 0.50362 0.0
H526 H 0.83877 0.29702 0.58589 0.0
H527 H 0.57971 0.20484 0.47989 0.0
H528 H 0.86022 0.28984 0.48092 0.0
H529 H 0.61527 0.19663 0.58415 0.0
H530 H 0.66747 0.23948 0.48168 0.0
H531 H 0.74913 0.26221 0.58745 0.0
C532 C 0.82615 0.28792 0.56329 0.0
C533 C 0.85678 0.29644 0.53319 0.0
C534 C 0.65575 0.2302 0.50424 0.0
C535 C 0.75262 0.25715 0.53479 0.0
C536 C 0.60479 0.21051 0.50331 0.0
C537 C 0.59054 0.19769 0.53188 0.0
C538 C 0.69277 0.23726 0.53397 0.0
C539 C 0.62463 0.20599 0.56152 0.0
C540 C 0.77441 0.26819 0.56419 0.0
C541 C 0.83784 0.28402 0.50467 0.0
N542 N 0.67482 0.22522 0.56178 0.0
N543 N 0.78631 0.26519 0.50616 0.0
H544 H 0.02389 0.31855 0.18967 0.0
H545 H 0.93787 0.3919 0.35215 0.0
H546 H 0.00501 0.39206 0.1882 0.0
H547 H 0.92991 0.31828 0.3475 0.0
H548 H 0.96764 0.39312 0.29295 0.0
H549 H -0.00677 0.31873 0.24823 0.0
C550 C 0.01253 0.33474 0.2018 0.0
C551 C 0.0158 0.35527 0.18411 0.0
C552 C 0.95978 0.37672 0.30496 0.0
C553 C -0.01848 0.35578 0.25138 0.0
C554 C 0.94385 0.37602 0.33875 0.0
C555 C 0.93303 0.35492 0.35471 0.0
C556 C 0.96476 0.35615 0.28721 0.0
C557 C 0.93827 0.33486 0.33607 0.0
C558 C -0.005 0.33489 0.23522 0.0
C559 C 0.00101 0.37584 0.20088 0.0
N560 N 0.95399 0.33597 0.30343 0.0
N561 N -0.01521 0.37561 0.23372 0.0
H562 H 0.94716 0.59786 0.1861 0.0
H563 H 0.01868 0.67526 0.34586 0.0
H564 H 0.92366 0.67128 0.18836 0.0
H565 H 0.01375 0.60161 0.34994 0.0
H566 H -0.00947 0.67358 0.28719 0.0
H567 H -0.02038 0.59815 0.24512 0.0
C568 C 0.95037 0.61403 0.19892 0.0
C569 C 0.93399 0.63463 0.18239 0.0
C570 C -0.0051 0.65771 0.30081 0.0
C571 C 0.96891 0.6351 0.24963 0.0
C572 C 0.01099 0.65871 0.33429 0.0
C573 C 0.01707 0.63858 0.35276 0.0
C574 C -0.01432 0.63637 0.28539 0.0
C575 C 0.00723 0.61753 0.33665 0.0
C576 C 0.96785 0.61419 0.2326 0.0
C577 C 0.93609 0.65506 0.20027 0.0
N578 N -0.00786 0.61694 0.30378 0.0
N579 N 0.95333 0.65479 0.23281 0.0
H580 H 0.84371 0.6041 0.84938 0.0
H581 H 0.0166 0.6563 0.68124 0.0
H582 H 0.05756 0.6517 0.8481 0.0
H583 H 0.93592 0.58584 0.69188 0.0
H584 H 0.00484 0.66093 0.74068 0.0
H585 H 0.84322 0.60426 0.78902 0.0
C586 C 0.88862 0.61508 0.83623 0.0
C587 C 0.95033 0.62801 0.85327 0.0
C588 C -0.00968 0.64447 0.72979 0.0
C589 C 0.95106 0.6282 0.785 0.0
C590 C -0.00136 0.64164 0.69587 0.0
C591 C -0.01993 0.62037 0.68136 0.0
C592 C 0.96033 0.62617 0.74909 0.0
C593 C 0.95167 0.60248 0.70188 0.0
C594 C 0.88912 0.615 0.80202 0.0
C595 C 0.00882 0.64165 0.83547 0.0
N596 N 0.94222 0.60581 0.73456 0.0
N597 N 0.00797 0.64141 0.80218 0.0
H598 H 0.00482 0.40876 0.69311 0.0
H599 H 0.89236 0.33802 0.85085 0.0
H600 H 0.93529 0.33746 0.68391 0.0
H601 H 0.09366 0.38924 0.85037 0.0
H602 H 0.89267 0.33814 0.79052 0.0
H603 H 0.02034 0.40353 0.75201 0.0
C604 C -0.00833 0.39205 0.70348 0.0
C605 C 0.9668 0.37368 0.68334 0.0
C606 C 0.93807 0.34898 0.80361 0.0
C607 C -0.0154 0.36761 0.75104 0.0
C608 C 0.93814 0.34882 0.83782 0.0
C609 C -0.00609 0.36342 0.85515 0.0
C610 C -0.00783 0.36443 0.78688 0.0
C611 C 0.05087 0.37754 0.8376 0.0
C612 C 0.00119 0.38907 0.73708 0.0
C613 C 0.95113 0.35236 0.6983 0.0
N614 N 0.04758 0.378 0.80433 0.0
N615 N 0.95958 0.34995 0.73136 0.0
H616 H 0.46663 0.89465 0.18343 0.0
H617 H 0.54416 0.84165 0.36006 0.0
H618 H 0.57144 0.82689 0.19748 0.0
H619 H 0.32069 0.88359 0.34017 0.0
H620 H 0.58086 0.84231 0.30139 0.0
H621 H 0.43488 0.89656 0.24203 0.0
C622 C 0.48115 0.87995 0.19844 0.0
C623 C 0.51879 0.86017 0.18503 0.0
C624 C 0.52425 0.85153 0.30996 0.0
C625 C 0.48793 0.86301 0.2525 0.0
C626 C 0.50388 0.85128 0.34327 0.0
C627 C 0.42981 0.86268 0.35459 0.0
C628 C 0.47078 0.86357 0.28808 0.0
C629 C 0.37836 0.87464 0.33207 0.0
C630 C 0.46427 0.88126 0.23205 0.0
C631 C 0.54156 0.84238 0.20657 0.0
N632 N 0.39999 0.8749 0.29977 0.0
N633 N 0.52605 0.84424 0.23917 0.0
H634 H 0.44755 0.09742 0.18758 0.0
H635 H 0.51989 0.17534 0.34679 0.0
H636 H 0.4236 0.17083 0.18943 0.0
H637 H 0.51425 0.10171 0.35146 0.0
H638 H 0.49184 0.17345 0.28813 0.0
H639 H 0.48058 0.0979 0.24656 0.0
C640 C 0.4508 0.11363 0.20029 0.0
C641 C 0.43408 0.13417 0.18366 0.0
C642 C 0.49603 0.15764 0.30187 0.0
C643 C 0.46967 0.13486 0.25086 0.0
C644 C 0.51207 0.15876 0.33535 0.0
C645 C 0.51789 0.1387 0.354 0.0
C646 C 0.4866 0.13624 0.28662 0.0
C647 C 0.50792 0.11758 0.33804 0.0
C648 C 0.4686 0.11389 0.23396 0.0
C649 C 0.43628 0.15465 0.20142 0.0
N650 N 0.49286 0.11688 0.30516 0.0
N651 N 0.45382 0.15448 0.23394 0.0
H652 H 0.55323 0.15437 0.85069 0.0
H653 H 0.44174 0.08497 0.69218 0.0
H654 H 0.3505 0.10355 0.84936 0.0
H655 H 0.51233 0.15627 0.68361 0.0
H656 H 0.42523 0.08989 0.75108 0.0
H657 H 0.55343 0.15482 0.79036 0.0
C658 C 0.5072 0.1438 0.83748 0.0
C659 C 0.45093 0.12912 0.85457 0.0
C660 C 0.4448 0.10443 0.73629 0.0
C661 C 0.45325 0.12875 0.7863 0.0
C662 C 0.45489 0.10162 0.70269 0.0
C663 C 0.48031 0.12008 0.68273 0.0
C664 C 0.46138 0.1258 0.75044 0.0
C665 C 0.49601 0.1413 0.69787 0.0
C666 C 0.50757 0.14396 0.80327 0.0
C667 C 0.39368 0.1153 0.83679 0.0
N668 N 0.48701 0.14354 0.73094 0.0
N669 N 0.39728 0.11514 0.80352 0.0
H670 H 0.4251 0.83392 0.68302 0.0
H671 H 0.60714 0.88306 0.85134 0.0
H672 H 0.52039 0.90307 0.69418 0.0
H673 H 0.38214 0.83914 0.84992 0.0
H674 H 0.60913 0.88266 0.79101 0.0
H675 H 0.43569 0.82882 0.74244 0.0
C676 C 0.44616 0.84821 0.69774 0.0
C677 C 0.46921 0.86927 0.68339 0.0
C678 C 0.56041 0.87275 0.80399 0.0
C679 C 0.48745 0.86283 0.75104 0.0
C680 C 0.55999 0.87279 0.83819 0.0
C681 C 0.4947 0.86104 0.85518 0.0
C682 C 0.49576 0.86059 0.78693 0.0
C683 C 0.43353 0.84831 0.83734 0.0
C684 C 0.45376 0.8451 0.73164 0.0
C685 C 0.50124 0.88661 0.70403 0.0
N686 N 0.43528 0.84843 0.80406 0.0
N687 N 0.50984 0.88298 0.73666 0.0
loop_
_geom_bond_atom_site_label_1
_geom_bond_atom_site_label_2
_geom_bond_distance
_geom_bond_site_symmetry_2
_ccdc_geom_bond_type
Zn0 O1 2.055 . S
Zn0 O8 2.046 . S
Zn0 N16 2.036 . S
Zn0 O28 2.053 1_455 S
Zn0 O30 2.066 . S
O1 Zn0 2.055 . S
O1 C4 1.259 1_556 S
C2 O30 1.283 . S
C2 O31 1.217 1_556 S
Zn3 O5 2.046 . S
Zn3 O7 2.055 . S
Zn3 N9 2.036 . S
Zn3 O27 2.066 1_455 S
Zn3 O31 2.053 . S
C4 O1 1.259 1_554 S
C4 O5 1.254 . S
O5 Zn3 2.046 . S
O5 C4 1.254 . S
C6 O27 1.256 . S
C6 O28 1.244 1_554 S
O7 Zn3 2.055 . S
O7 C29 1.259 . S
O8 Zn0 2.046 . S
O8 C29 1.254 1_556 S
N9 Zn3 2.036 . S
N9 C10 1.298 . S
N9 N12 1.398 . S
C10 N9 1.298 . S
C10 N13 1.367 . S
C10 C23 1.481 1_455 S
C11 N12 1.299 . S
C11 N13 1.379 . S
N12 N9 1.398 . S
N12 C11 1.299 . S
N13 C10 1.367 . S
N13 C11 1.379 . S
C14 N16 1.298 . S
C14 N18 1.367 . S
C14 C22 1.481 . S
C15 N17 1.299 . S
C15 N18 1.379 1_655 S
N16 Zn0 2.036 . S
N16 C14 1.298 . S
N16 N17 1.398 1_455 S
N17 C15 1.299 . S
N17 N16 1.398 1_655 S
N18 C14 1.367 . S
N18 C15 1.379 1_455 S
H19 C22 0.980 . S
H20 C22 0.981 . S
H21 C22 0.981 . S
C22 C14 1.481 . S
C22 H19 0.980 . S
C22 H20 0.981 . S
C22 H21 0.981 . S
C23 C10 1.481 1_655 S
C23 H24 0.980 1_655 S
C23 H25 0.981 . S
C23 H26 0.981 . S
H24 C23 0.980 1_455 S
H25 C23 0.981 . S
H26 C23 0.981 . S
O27 Zn3 2.066 1_655 S
O27 C6 1.256 . S
O28 Zn0 2.053 1_655 S
O28 C6 1.244 1_556 S
C29 O7 1.259 . S
C29 O8 1.254 1_554 S
O30 Zn0 2.066 . S
O30 C2 1.283 . S
O31 C2 1.217 1_554 S
O31 Zn3 2.053 . S
Zn32 O33 2.055 . S
Zn32 O40 2.046 . S
Zn32 N48 2.036 . S
Zn32 O60 2.053 . S
Zn32 O62 2.066 1_655 S
O33 Zn32 2.055 . S
O33 C36 1.259 . S
C34 O62 1.256 . S
C34 O63 1.244 1_554 S
Zn35 O37 2.046 . S
Zn35 O39 2.055 . S
Zn35 N41 2.036 . S
Zn35 O59 2.066 . S
Zn35 O63 2.053 1_655 S
C36 O33 1.259 . S
C36 O37 1.254 1_554 S
O37 Zn35 2.046 . S
O37 C36 1.254 1_556 S
C38 O59 1.283 . S
C38 O60 1.217 1_556 S
O39 Zn35 2.055 . S
O39 C61 1.259 1_556 S
O40 Zn32 2.046 . S
O40 C61 1.254 . S
N41 Zn35 2.036 . S
N41 C42 1.298 . S
N41 N44 1.398 1_655 S
C42 N41 1.298 . S
C42 N45 1.367 . S
C42 C55 1.481 . S
C43 N44 1.299 . S
C43 N45 1.379 1_455 S
N44 N41 1.398 1_455 S
N44 C43 1.299 . S
N45 C42 1.367 . S
N45 C43 1.379 1_655 S
C46 N48 1.298 . S
C46 N50 1.367 . S
C46 C54 1.481 1_655 S
C47 N49 1.299 . S
C47 N50 1.379 . S
N48 Zn32 2.036 . S
N48 C46 1.298 . S
N48 N49 1.398 . S
N49 C47 1.299 . S
N49 N48 1.398 . S
N50 C46 1.367 . S
N50 C47 1.379 . S
H51 C54 0.980 1_655 S
H52 C54 0.981 . S
H53 C54 0.981 . S
C54 C46 1.481 1_455 S
C54 H51 0.980 1_455 S
C54 H52 0.981 . S
C54 H53 0.981 . S
C55 C42 1.481 . S
C55 H56 0.980 . S
C55 H57 0.981 . S
C55 H58 0.981 . S
H56 C55 0.980 . S
H57 C55 0.981 . S
H58 C55 0.981 . S
O59 Zn35 2.066 . S
O59 C38 1.283 . S
O60 Zn32 2.053 . S
O60 C38 1.217 1_554 S
C61 O39 1.259 1_554 S
C61 O40 1.254 . S
O62 Zn32 2.066 1_455 S
O62 C34 1.256 . S
O63 C34 1.244 1_556 S
O63 Zn35 2.053 1_455 S
Zn64 O65 2.055 . S
Zn64 O72 2.046 . S
Zn64 N80 2.036 . S
Zn64 O92 2.053 . S
Zn64 O94 2.066 1_455 S
O65 Zn64 2.055 . S
O65 C68 1.259 . S
C66 O94 1.256 . S
C66 O95 1.244 . S
Zn67 O69 2.046 . S
Zn67 O71 2.055 . S
Zn67 N73 2.036 . S
Zn67 O91 2.066 . S
Zn67 O95 2.053 1_455 S
C68 O65 1.259 . S
C68 O69 1.254 . S
O69 Zn67 2.046 . S
O69 C68 1.254 . S
C70 O91 1.256 . S
C70 O92 1.244 . S
O71 Zn67 2.055 . S
O71 C93 1.259 . S
O72 Zn64 2.046 . S
O72 C93 1.254 . S
N73 Zn67 2.036 . S
N73 C74 1.298 . S
N73 N76 1.398 1_455 S
C74 N73 1.298 . S
C74 N77 1.367 . S
C74 C87 1.481 . S
C75 N76 1.299 . S
C75 N77 1.379 1_655 S
N76 N73 1.398 1_655 S
N76 C75 1.299 . S
N77 C74 1.367 . S
N77 C75 1.379 1_455 S
C78 N80 1.298 . S
C78 N82 1.367 . S
C78 C86 1.481 1_455 S
C79 N81 1.299 . S
C79 N82 1.379 . S
N80 Zn64 2.036 . S
N80 C78 1.298 . S
N80 N81 1.398 . S
N81 C79 1.299 . S
N81 N80 1.398 . S
N82 C78 1.367 . S
N82 C79 1.379 . S
H83 C86 0.980 1_455 S
H84 C86 0.981 . S
H85 C86 0.981 . S
C86 C78 1.481 1_655 S
C86 H83 0.980 1_655 S
C86 H84 0.981 . S
C86 H85 0.981 . S
C87 C74 1.481 . S
C87 H88 0.980 . S
C87 H89 0.981 . S
C87 H90 0.981 . S
H88 C87 0.980 . S
H89 C87 0.981 . S
H90 C87 0.981 . S
O91 Zn67 2.066 . S
O91 C70 1.256 . S
O92 Zn64 2.053 . S
O92 C70 1.244 . S
C93 O71 1.259 . S
C93 O72 1.254 . S
O94 Zn64 2.066 1_655 S
O94 C66 1.256 . S
O95 C66 1.244 . S
O95 Zn67 2.053 1_655 S
Zn96 O97 2.055 . S
Zn96 O104 2.046 . S
Zn96 N112 2.036 . S
Zn96 O124 2.053 1_655 S
Zn96 O126 2.066 . S
O97 Zn96 2.055 . S
O97 C100 1.259 . S
C98 O126 1.256 . S
C98 O127 1.244 . S
Zn99 O101 2.046 . S
Zn99 O103 2.055 . S
Zn99 N105 2.036 . S
Zn99 O123 2.066 1_655 S
Zn99 O127 2.053 . S
C100 O97 1.259 . S
C100 O101 1.254 . S
O101 Zn99 2.046 . S
O101 C100 1.254 . S
C102 O123 1.256 . S
C102 O124 1.244 . S
O103 Zn99 2.055 . S
O103 C125 1.259 . S
O104 Zn96 2.046 . S
O104 C125 1.254 . S
N105 Zn99 2.036 . S
N105 C106 1.298 . S
N105 N108 1.398 . S
C106 N105 1.298 . S
C106 N109 1.367 . S
C106 C119 1.481 1_655 S
C107 N108 1.299 . S
C107 N109 1.379 . S
N108 N105 1.398 . S
N108 C107 1.299 . S
N109 C106 1.367 . S
N109 C107 1.379 . S
C110 N112 1.298 . S
C110 N114 1.367 . S
C110 C118 1.481 . S
C111 N113 1.299 . S
C111 N114 1.379 1_455 S
N112 Zn96 2.036 . S
N112 C110 1.298 . S
N112 N113 1.398 1_655 S
N113 C111 1.299 . S
N113 N112 1.398 1_455 S
N114 C110 1.367 . S
N114 C111 1.379 1_655 S
H115 C118 0.980 . S
H116 C118 0.981 . S
H117 C118 0.981 . S
C118 C110 1.481 . S
C118 H115 0.980 . S
C118 H116 0.981 . S
C118 H117 0.981 . S
C119 C106 1.481 1_455 S
C119 H120 0.980 1_455 S
C119 H121 0.981 . S
C119 H122 0.981 . S
H120 C119 0.980 1_655 S
H121 C119 0.981 . S
H122 C119 0.981 . S
O123 Zn99 2.066 1_455 S
O123 C102 1.256 . S
O124 Zn96 2.053 1_455 S
O124 C102 1.244 . S
C125 O103 1.259 . S
C125 O104 1.254 . S
O126 Zn96 2.066 . S
O126 C98 1.256 . S
O127 C98 1.244 . S
O127 Zn99 2.053 . S
Zn128 O129 2.055 . S
Zn128 O136 2.046 . S
Zn128 N144 2.036 . S
Zn128 O156 2.053 . S
Zn128 O158 2.066 . S
O129 Zn128 2.055 . S
O129 C132 1.259 1_556 S
C130 O158 1.283 . S
C130 O159 1.217 1_556 S
Zn131 O133 2.046 . S
Zn131 O135 2.055 . S
Zn131 N137 2.036 . S
Zn131 O155 2.066 . S
Zn131 O159 2.053 . S
C132 O129 1.259 1_554 S
C132 O133 1.254 . S
O133 Zn131 2.046 . S
O133 C132 1.254 . S
C134 O155 1.256 . S
C134 O156 1.244 1_554 S
O135 Zn131 2.055 . S
O135 C157 1.259 . S
O136 Zn128 2.046 . S
O136 C157 1.254 1_556 S
N137 Zn131 2.036 . S
N137 C138 1.298 . S
N137 N140 1.398 . S
C138 N137 1.298 . S
C138 N141 1.367 . S
C138 C151 1.481 . S
C139 N140 1.299 . S
C139 N141 1.379 . S
N140 N137 1.398 . S
N140 C139 1.299 . S
N141 C138 1.367 . S
N141 C139 1.379 . S
C142 N144 1.298 . S
C142 N146 1.367 . S
C142 C150 1.481 . S
C143 N145 1.299 . S
C143 N146 1.379 . S
N144 Zn128 2.036 . S
N144 C142 1.298 . S
N144 N145 1.398 . S
N145 C143 1.299 . S
N145 N144 1.398 . S
N146 C142 1.367 . S
N146 C143 1.379 . S
H147 C150 0.980 . S
H148 C150 0.981 . S
H149 C150 0.981 . S
C150 C142 1.481 . S
C150 H147 0.980 . S
C150 H148 0.981 . S
C150 H149 0.981 . S
C151 C138 1.481 . S
C151 H152 0.980 . S
C151 H153 0.981 . S
C151 H154 0.981 . S
H152 C151 0.980 . S
H153 C151 0.981 . S
H154 C151 0.981 . S
O155 Zn131 2.066 . S
O155 C134 1.256 . S
O156 Zn128 2.053 . S
O156 C134 1.244 1_556 S
C157 O135 1.259 . S
C157 O136 1.254 1_554 S
O158 Zn128 2.066 . S
O158 C130 1.283 . S
O159 C130 1.217 1_554 S
O159 Zn131 2.053 . S
Zn160 O161 2.055 . S
Zn160 O168 2.046 . S
Zn160 N176 2.036 . S
Zn160 O188 2.053 . S
Zn160 O190 2.066 . S
O161 Zn160 2.055 . S
O161 C164 1.259 . S
C162 O190 1.256 . S
C162 O191 1.244 1_554 S
Zn163 O165 2.046 . S
Zn163 O167 2.055 . S
Zn163 N169 2.036 . S
Zn163 O187 2.066 . S
Zn163 O191 2.053 . S
C164 O161 1.259 . S
C164 O165 1.254 1_554 S
O165 Zn163 2.046 . S
O165 C164 1.254 1_556 S
C166 O187 1.283 . S
C166 O188 1.217 1_556 S
O167 Zn163 2.055 . S
O167 C189 1.259 1_556 S
O168 Zn160 2.046 . S
O168 C189 1.254 . S
N169 Zn163 2.036 . S
N169 C170 1.298 . S
N169 N172 1.398 . S
C170 N169 1.298 . S
C170 N173 1.367 . S
C170 C183 1.481 . S
C171 N172 1.299 . S
C171 N173 1.379 . S
N172 N169 1.398 . S
N172 C171 1.299 . S
N173 C170 1.367 . S
N173 C171 1.379 . S
C174 N176 1.298 . S
C174 N178 1.367 . S
C174 C182 1.481 . S
C175 N177 1.299 . S
C175 N178 1.379 . S
N176 Zn160 2.036 . S
N176 C174 1.298 . S
N176 N177 1.398 . S
N177 C175 1.299 . S
N177 N176 1.398 . S
N178 C174 1.367 . S
N178 C175 1.379 . S
H179 C182 0.980 . S
H180 C182 0.981 . S
H181 C182 0.981 . S
C182 C174 1.481 . S
C182 H179 0.980 . S
C182 H180 0.981 . S
C182 H181 0.981 . S
C183 C170 1.481 . S
C183 H184 0.980 . S
C183 H185 0.981 . S
C183 H186 0.981 . S
H184 C183 0.980 . S
H185 C183 0.981 . S
H186 C183 0.981 . S
O187 Zn163 2.066 . S
O187 C166 1.283 . S
O188 Zn160 2.053 . S
O188 C166 1.217 1_554 S
C189 O167 1.259 1_554 S
C189 O168 1.254 . S
O190 Zn160 2.066 . S
O190 C162 1.256 . S
O191 C162 1.244 1_556 S
O191 Zn163 2.053 . S
Zn192 O193 2.055 . S
Zn192 O200 2.046 . S
Zn192 N208 2.036 . S
Zn192 O220 2.053 . S
Zn192 O222 2.066 . S
O193 Zn192 2.055 . S
O193 C196 1.259 . S
C194 O222 1.256 . S
C194 O223 1.244 . S
Zn195 O197 2.046 . S
Zn195 O199 2.055 . S
Zn195 N201 2.036 . S
Zn195 O219 2.066 . S
Zn195 O223 2.053 . S
C196 O193 1.259 . S
C196 O197 1.254 . S
O197 Zn195 2.046 . S
O197 C196 1.254 . S
C198 O219 1.256 . S
C198 O220 1.244 . S
O199 Zn195 2.055 . S
O199 C221 1.259 . S
O200 Zn192 2.046 . S
O200 C221 1.254 . S
N201 Zn195 2.036 . S
N201 C202 1.298 . S
N201 N204 1.398 . S
C202 N201 1.298 . S
C202 N205 1.367 . S
C202 C215 1.481 . S
C203 N204 1.299 . S
C203 N205 1.379 . S
N204 N201 1.398 . S
N204 C203 1.299 . S
N205 C202 1.367 . S
N205 C203 1.379 . S
C206 N208 1.298 . S
C206 N210 1.367 . S
C206 C214 1.481 . S
C207 N209 1.299 . S
C207 N210 1.379 . S
N208 Zn192 2.036 . S
N208 C206 1.298 . S
N208 N209 1.398 . S
N209 C207 1.299 . S
N209 N208 1.398 . S
N210 C206 1.367 . S
N210 C207 1.379 . S
H211 C214 0.980 . S
H212 C214 0.981 . S
H213 C214 0.981 . S
C214 C206 1.481 . S
C214 H211 0.980 . S
C214 H212 0.981 . S
C214 H213 0.981 . S
C215 C202 1.481 . S
C215 H216 0.980 . S
C215 H217 0.981 . S
C215 H218 0.981 . S
H216 C215 0.980 . S
H217 C215 0.981 . S
H218 C215 0.981 . S
O219 Zn195 2.066 . S
O219 C198 1.256 . S
O220 Zn192 2.053 . S
O220 C198 1.244 . S
C221 O199 1.259 . S
C221 O200 1.254 . S
O222 Zn192 2.066 . S
O222 C194 1.256 . S
O223 C194 1.244 . S
O223 Zn195 2.053 . S
Zn224 O225 2.055 . S
Zn224 O232 2.046 . S
Zn224 N240 2.036 . S
Zn224 O252 2.053 . S
Zn224 O254 2.066 . S
O225 Zn224 2.055 . S
O225 C228 1.259 . S
C226 O254 1.256 . S
C226 O255 1.244 . S
Zn227 O229 2.046 . S
Zn227 O231 2.055 . S
Zn227 N233 2.036 . S
Zn227 O251 2.066 . S
Zn227 O255 2.053 . S
C228 O225 1.259 . S
C228 O229 1.254 . S
O229 Zn227 2.046 . S
O229 C228 1.254 . S
C230 O251 1.256 . S
C230 O252 1.244 . S
O231 Zn227 2.055 . S
O231 C253 1.259 . S
O232 Zn224 2.046 . S
O232 C253 1.254 . S
N233 Zn227 2.036 . S
N233 C234 1.298 . S
N233 N236 1.398 . S
C234 N233 1.298 . S
C234 N237 1.367 . S
C234 C247 1.481 . S
C235 N236 1.299 . S
C235 N237 1.379 . S
N236 N233 1.398 . S
N236 C235 1.299 . S
N237 C234 1.367 . S
N237 C235 1.379 . S
C238 N240 1.298 . S
C238 N242 1.367 . S
C238 C246 1.481 . S
C239 N241 1.299 . S
C239 N242 1.379 . S
N240 Zn224 2.036 . S
N240 C238 1.298 . S
N240 N241 1.398 . S
N241 C239 1.299 . S
N241 N240 1.398 . S
N242 C238 1.367 . S
N242 C239 1.379 . S
H243 C246 0.980 . S
H244 C246 0.981 . S
H245 C246 0.981 . S
C246 C238 1.481 . S
C246 H243 0.980 . S
C246 H244 0.981 . S
C246 H245 0.981 . S
C247 C234 1.481 . S
C247 H248 0.980 . S
C247 H249 0.981 . S
C247 H250 0.981 . S
H248 C247 0.980 . S
H249 C247 0.981 . S
H250 C247 0.981 . S
O251 Zn227 2.066 . S
O251 C230 1.256 . S
O252 Zn224 2.053 . S
O252 C230 1.244 . S
C253 O231 1.259 . S
C253 O232 1.254 . S
O254 Zn224 2.066 . S
O254 C226 1.256 . S
O255 C226 1.244 . S
O255 Zn227 2.053 . S
H256 C262 0.930 . S
H257 C266 0.930 . S
H258 C271 0.926 1_556 S
H259 C269 0.929 . S
H260 C264 0.929 . S
H261 C270 0.929 . S
C262 H256 0.930 . S
C262 C263 1.367 . S
C262 C270 1.378 . S
C263 C262 1.367 . S
C263 C271 1.436 . S
C264 H260 0.929 . S
C264 C266 1.378 . S
C264 C268 1.350 . S
C265 C268 1.463 . S
C265 C270 1.350 . S
C265 N273 1.427 . S
C266 H257 0.930 . S
C266 C264 1.378 . S
C266 C267 1.367 . S
C267 C266 1.367 . S
C267 C269 1.433 . S
C268 C264 1.350 . S
C268 C265 1.463 . S
C268 N272 1.427 . S
C269 H259 0.929 . S
C269 C267 1.433 . S
C269 N272 1.384 . S
C270 H261 0.929 . S
C270 C262 1.378 . S
C270 C265 1.350 . S
C271 H258 0.926 1_554 S
C271 C263 1.436 . S
C271 N273 1.385 . S
N272 C268 1.427 . S
N272 C269 1.384 . S
N273 C265 1.427 . S
N273 C271 1.385 . S
H274 C280 0.930 . S
H275 C284 0.930 . S
H276 C289 0.929 . S
H277 C287 0.929 . S
H278 C282 0.929 . S
H279 C288 0.929 . S
C280 H274 0.930 . S
C280 C281 1.367 1_556 S
C280 C288 1.378 . S
C281 C280 1.367 1_554 S
C281 C289 1.433 . S
C282 H278 0.929 . S
C282 C284 1.378 . S
C282 C286 1.350 . S
C283 C286 1.463 . S
C283 C288 1.350 1_554 S
C283 N291 1.427 . S
C284 H275 0.930 . S
C284 C282 1.378 . S
C284 C285 1.367 . S
C285 C284 1.367 . S
C285 C287 1.433 1_554 S
C286 C282 1.350 . S
C286 C283 1.463 . S
C286 N290 1.427 1_554 S
C287 H277 0.929 . S
C287 C285 1.433 1_556 S
C287 N290 1.384 . S
C288 H279 0.929 . S
C288 C280 1.378 . S
C288 C283 1.350 1_556 S
C289 H276 0.929 . S
C289 C281 1.433 . S
C289 N291 1.384 . S
N290 C286 1.427 1_556 S
N290 C287 1.384 . S
N291 C283 1.427 . S
N291 C289 1.384 . S
H292 C298 0.930 . S
H293 C302 0.930 . S
H294 C307 0.929 . S
H295 C305 0.929 . S
H296 C300 0.929 . S
H297 C306 0.929 . S
C298 H292 0.930 . S
C298 C299 1.367 . S
C298 C306 1.378 . S
C299 C298 1.367 . S
C299 C307 1.433 . S
C300 H296 0.929 . S
C300 C302 1.378 . S
C300 C304 1.350 . S
C301 C304 1.463 . S
C301 C306 1.350 . S
C301 N309 1.427 . S
C302 H293 0.930 . S
C302 C300 1.378 . S
C302 C303 1.367 . S
C303 C302 1.367 . S
C303 C305 1.433 . S
C304 C300 1.350 . S
C304 C301 1.463 . S
C304 N308 1.427 . S
C305 H295 0.929 . S
C305 C303 1.433 . S
C305 N308 1.384 . S
C306 H297 0.929 . S
C306 C298 1.378 . S
C306 C301 1.350 . S
C307 H294 0.929 . S
C307 C299 1.433 . S
C307 N309 1.384 . S
N308 C304 1.427 . S
N308 C305 1.384 . S
N309 C301 1.427 . S
N309 C307 1.384 . S
H310 C316 0.930 . S
H311 C320 0.930 . S
H312 C325 0.929 . S
H313 C323 0.929 . S
H314 C318 0.929 . S
H315 C324 0.929 . S
C316 H310 0.930 . S
C316 C317 1.367 . S
C316 C324 1.378 . S
C317 C316 1.367 . S
C317 C325 1.433 . S
C318 H314 0.929 . S
C318 C320 1.378 . S
C318 C322 1.350 . S
C319 C322 1.463 . S
C319 C324 1.350 . S
C319 N327 1.427 . S
C320 H311 0.930 . S
C320 C318 1.378 . S
C320 C321 1.367 . S
C321 C320 1.367 . S
C321 C323 1.433 . S
C322 C318 1.350 . S
C322 C319 1.463 . S
C322 N326 1.427 . S
C323 H313 0.929 . S
C323 C321 1.433 . S
C323 N326 1.384 . S
C324 H315 0.929 . S
C324 C316 1.378 . S
C324 C319 1.350 . S
C325 H312 0.929 . S
C325 C317 1.433 . S
C325 N327 1.384 . S
N326 C322 1.427 . S
N326 C323 1.384 . S
N327 C319 1.427 . S
N327 C325 1.384 . S
H328 C334 0.930 . S
H329 C338 0.930 . S
H330 C343 0.929 . S
H331 C341 0.929 1_556 S
H332 C336 0.929 . S
H333 C342 0.929 1_455 S
C334 H328 0.930 . S
C334 C335 1.367 1_556 S
C334 C342 1.378 . S
C335 C334 1.367 1_554 S
C335 C343 1.433 . S
C336 H332 0.929 . S
C336 C338 1.378 . S
C336 C340 1.350 . S
C337 C340 1.463 . S
C337 C342 1.350 1_454 S
C337 N345 1.427 1_455 S
C338 H329 0.930 . S
C338 C336 1.378 . S
C338 C339 1.367 . S
C339 C338 1.367 . S
C339 C341 1.433 . S
C340 C336 1.350 . S
C340 C337 1.463 . S
C340 N344 1.428 . S
C341 H331 0.929 1_554 S
C341 C339 1.433 . S
C341 N344 1.384 . S
C342 H333 0.929 1_655 S
C342 C334 1.378 . S
C342 C337 1.350 1_656 S
C343 H330 0.929 . S
C343 C335 1.433 . S
C343 N345 1.384 . S
N344 C340 1.428 . S
N344 C341 1.384 . S
N345 C337 1.427 1_655 S
N345 C343 1.384 . S
H346 C352 0.930 . S
H347 C356 0.930 . S
H348 C361 0.929 . S
H349 C359 0.929 . S
H350 C354 0.929 . S
H351 C360 0.929 1_655 S
C352 H346 0.930 . S
C352 C353 1.367 . S
C352 C360 1.378 . S
C353 C352 1.367 . S
C353 C361 1.433 1_554 S
C354 H350 0.929 . S
C354 C356 1.378 . S
C354 C358 1.350 1_556 S
C355 C358 1.463 . S
C355 C360 1.350 1_655 S
C355 N363 1.427 1_654 S
C356 H347 0.930 . S
C356 C354 1.378 . S
C356 C357 1.367 1_556 S
C357 C356 1.367 1_554 S
C357 C359 1.433 . S
C358 C354 1.350 1_554 S
C358 C355 1.463 . S
C358 N362 1.427 . S
C359 H349 0.929 . S
C359 C357 1.433 . S
C359 N362 1.384 . S
C360 H351 0.929 1_455 S
C360 C352 1.378 . S
C360 C355 1.350 1_455 S
C361 H348 0.929 . S
C361 C353 1.433 1_556 S
C361 N363 1.384 . S
N362 C358 1.427 . S
N362 C359 1.384 . S
N363 C355 1.427 1_456 S
N363 C361 1.384 . S
H364 C370 0.930 . S
H365 C374 0.930 . S
H366 C379 0.929 . S
H367 C377 0.929 . S
H368 C372 0.929 1_455 S
H369 C378 0.929 . S
C370 H364 0.930 . S
C370 C371 1.367 . S
C370 C378 1.378 . S
C371 C370 1.367 . S
C371 C379 1.433 . S
C372 H368 0.929 1_655 S
C372 C374 1.378 . S
C372 C376 1.350 1_655 S
C373 C376 1.463 . S
C373 C378 1.350 . S
C373 N381 1.427 . S
C374 H365 0.930 . S
C374 C372 1.378 . S
C374 C375 1.367 . S
C375 C374 1.367 . S
C375 C377 1.433 . S
C376 C372 1.350 1_455 S
C376 C373 1.463 . S
C376 N380 1.427 1_455 S
C377 H367 0.929 . S
C377 C375 1.433 . S
C377 N380 1.384 . S
C378 H369 0.929 . S
C378 C370 1.378 . S
C378 C373 1.350 . S
C379 H366 0.929 . S
C379 C371 1.433 . S
C379 N381 1.384 . S
N380 C376 1.427 1_655 S
N380 C377 1.384 . S
N381 C373 1.427 . S
N381 C379 1.384 . S
H382 C388 0.930 . S
H383 C392 0.930 . S
H384 C397 0.929 . S
H385 C395 0.929 . S
H386 C390 0.929 1_655 S
H387 C396 0.929 . S
C388 H382 0.930 . S
C388 C389 1.367 . S
C388 C396 1.378 . S
C389 C388 1.367 . S
C389 C397 1.433 . S
C390 H386 0.929 1_455 S
C390 C392 1.378 . S
C390 C394 1.350 1_455 S
C391 C394 1.463 . S
C391 C396 1.350 . S
C391 N399 1.427 . S
C392 H383 0.930 . S
C392 C390 1.378 . S
C392 C393 1.367 . S
C393 C392 1.367 . S
C393 C395 1.433 . S
C394 C390 1.350 1_655 S
C394 C391 1.463 . S
C394 N398 1.427 1_655 S
C395 H385 0.929 . S
C395 C393 1.433 . S
C395 N398 1.384 . S
C396 H387 0.929 . S
C396 C388 1.378 . S
C396 C391 1.350 . S
C397 H384 0.929 . S
C397 C389 1.433 . S
C397 N399 1.384 . S
N398 C394 1.427 1_455 S
N398 C395 1.384 . S
N399 C391 1.427 . S
N399 C397 1.384 . S
H400 C406 0.930 . S
H401 C410 0.930 . S
H402 C415 0.929 . S
H403 C413 0.929 . S
H404 C408 0.929 . S
H405 C414 0.929 . S
C406 H400 0.930 . S
C406 C407 1.367 1_556 S
C406 C414 1.378 . S
C407 C406 1.367 1_554 S
C407 C415 1.433 1_655 S
C408 H404 0.929 . S
C408 C410 1.378 . S
C408 C412 1.350 . S
C409 C412 1.463 1_655 S
C409 C414 1.350 1_554 S
C409 N417 1.427 1_655 S
C410 H401 0.930 . S
C410 C408 1.378 . S
C410 C411 1.367 . S
C411 C410 1.367 . S
C411 C413 1.433 1_454 S
C412 C408 1.350 . S
C412 C409 1.463 1_455 S
C412 N416 1.427 1_454 S
C413 H403 0.929 . S
C413 C411 1.433 1_656 S
C413 N416 1.384 . S
C414 H405 0.929 . S
C414 C406 1.378 . S
C414 C409 1.350 1_556 S
C415 H402 0.929 . S
C415 C407 1.433 1_455 S
C415 N417 1.384 . S
N416 C412 1.427 1_656 S
N416 C413 1.384 . S
N417 C409 1.427 1_455 S
N417 C415 1.384 . S
H418 C424 0.930 . S
H419 C428 0.930 . S
H420 C433 0.929 . S
H421 C431 0.929 . S
H422 C426 0.929 . S
H423 C432 0.929 . S
C424 H418 0.930 . S
C424 C425 1.367 1_455 S
C424 C432 1.378 . S
C425 C424 1.367 1_655 S
C425 C433 1.433 . S
C426 H422 0.929 . S
C426 C428 1.378 . S
C426 C430 1.350 1_655 S
C427 C430 1.463 1_655 S
C427 C432 1.350 1_655 S
C427 N435 1.427 . S
C428 H419 0.930 . S
C428 C426 1.378 . S
C428 C429 1.367 1_655 S
C429 C428 1.367 1_455 S
C429 C431 1.433 . S
C430 C426 1.350 1_455 S
C430 C427 1.463 1_455 S
C430 N434 1.427 . S
C431 H421 0.929 . S
C431 C429 1.433 . S
C431 N434 1.384 . S
C432 H423 0.929 . S
C432 C424 1.378 . S
C432 C427 1.350 1_455 S
C433 H420 0.929 . S
C433 C425 1.433 . S
C433 N435 1.384 . S
N434 C430 1.427 . S
N434 C431 1.384 . S
N435 C427 1.427 . S
N435 C433 1.384 . S
H436 C442 0.930 . S
H437 C446 0.930 . S
H438 C451 0.929 . S
H439 C449 0.929 . S
H440 C444 0.929 . S
H441 C450 0.929 . S
C442 H436 0.930 . S
C442 C443 1.367 . S
C442 C450 1.378 . S
C443 C442 1.367 . S
C443 C451 1.433 1_554 S
C444 H440 0.929 . S
C444 C446 1.378 . S
C444 C448 1.350 1_556 S
C445 C448 1.463 1_565 S
C445 C450 1.350 . S
C445 N453 1.427 1_554 S
C446 H437 0.930 . S
C446 C444 1.378 . S
C446 C447 1.367 1_556 S
C447 C446 1.367 1_554 S
C447 C449 1.433 . S
C448 C444 1.350 1_554 S
C448 C445 1.463 1_545 S
C448 N452 1.427 . S
C449 H439 0.929 . S
C449 C447 1.433 . S
C449 N452 1.384 . S
C450 H441 0.929 . S
C450 C442 1.378 . S
C450 C445 1.350 . S
C451 H438 0.929 . S
C451 C443 1.433 1_556 S
C451 N453 1.384 . S
N452 C448 1.427 . S
N452 C449 1.384 . S
N453 C445 1.427 1_556 S
N453 C451 1.384 . S
H454 C460 0.930 . S
H455 C464 0.930 . S
H456 C469 0.929 . S
H457 C467 0.929 . S
H458 C462 0.929 . S
H459 C468 0.929 . S
C460 H454 0.930 . S
C460 C461 1.367 . S
C460 C468 1.378 . S
C461 C460 1.367 . S
C461 C469 1.433 . S
C462 H458 0.929 . S
C462 C464 1.378 . S
C462 C466 1.350 . S
C463 C466 1.463 1_545 S
C463 C468 1.350 . S
C463 N471 1.427 . S
C464 H455 0.930 . S
C464 C462 1.378 . S
C464 C465 1.367 . S
C465 C464 1.367 . S
C465 C467 1.433 . S
C466 C462 1.350 . S
C466 C463 1.463 1_565 S
C466 N470 1.427 . S
C467 H457 0.929 . S
C467 C465 1.433 . S
C467 N470 1.384 . S
C468 H459 0.929 . S
C468 C460 1.378 . S
C468 C463 1.350 . S
C469 H456 0.929 . S
C469 C461 1.433 . S
C469 N471 1.384 . S
N470 C466 1.427 . S
N470 C467 1.384 . S
N471 C463 1.427 . S
N471 C469 1.384 . S
H472 C478 0.930 . S
H473 C482 0.930 . S
H474 C487 0.929 . S
H475 C485 0.929 . S
H476 C480 0.929 . S
H477 C486 0.929 . S
C478 H472 0.930 . S
C478 C479 1.367 . S
C478 C486 1.378 . S
C479 C478 1.367 . S
C479 C487 1.433 1_556 S
C480 H476 0.929 . S
C480 C482 1.378 . S
C480 C484 1.350 1_554 S
C481 C484 1.463 . S
C481 C486 1.350 . S
C481 N489 1.427 1_556 S
C482 H473 0.930 . S
C482 C480 1.378 . S
C482 C483 1.367 1_554 S
C483 C482 1.367 1_556 S
C483 C485 1.433 . S
C484 C480 1.350 1_556 S
C484 C481 1.463 . S
C484 N488 1.427 . S
C485 H475 0.929 . S
C485 C483 1.433 . S
C485 N488 1.384 . S
C486 H477 0.929 . S
C486 C478 1.378 . S
C486 C481 1.350 . S
C487 H474 0.929 . S
C487 C479 1.433 1_554 S
C487 N489 1.384 . S
N488 C484 1.427 . S
N488 C485 1.384 . S
N489 C481 1.427 1_554 S
N489 C487 1.384 . S
H490 C496 0.930 . S
H491 C500 0.930 . S
H492 C505 0.929 . S
H493 C503 0.929 . S
H494 C498 0.929 . S
H495 C504 0.929 . S
C496 H490 0.930 . S
C496 C497 1.350 1_554 S
C496 C504 1.378 . S
C497 C496 1.350 1_556 S
C497 C505 1.450 . S
C498 H494 0.929 . S
C498 C500 1.378 . S
C498 C502 1.350 . S
C499 C502 1.463 . S
C499 C504 1.344 1_556 S
C499 N507 1.433 . S
C500 H491 0.930 . S
C500 C498 1.378 . S
C500 C501 1.367 . S
C501 C500 1.367 . S
C501 C503 1.433 1_556 S
C502 C498 1.350 . S
C502 C499 1.463 . S
C502 N506 1.427 1_556 S
C503 H493 0.929 . S
C503 C501 1.433 1_554 S
C503 N506 1.384 . S
C504 H495 0.929 . S
C504 C496 1.378 . S
C504 C499 1.344 1_554 S
C505 H492 0.929 . S
C505 C497 1.450 . S
C505 N507 1.384 . S
N506 C502 1.427 1_554 S
N506 C503 1.384 . S
N507 C499 1.433 . S
N507 C505 1.384 . S
H508 C514 0.930 . S
H509 C518 0.930 . S
H510 C523 0.929 . S
H511 C521 0.929 . S
H512 C516 0.929 . S
H513 C522 0.929 . S
C514 H508 0.930 . S
C514 C515 1.367 . S
C514 C522 1.378 . S
C515 C514 1.367 . S
C515 C523 1.433 . S
C516 H512 0.929 . S
C516 C518 1.378 . S
C516 C520 1.350 . S
C517 C520 1.463 . S
C517 C522 1.350 . S
C517 N525 1.427 . S
C518 H509 0.930 . S
C518 C516 1.378 . S
C518 C519 1.367 . S
C519 C518 1.367 . S
C519 C521 1.433 . S
C520 C516 1.350 . S
C520 C517 1.463 . S
C520 N524 1.427 . S
C521 H511 0.929 . S
C521 C519 1.433 . S
C521 N524 1.384 . S
C522 H513 0.929 . S
C522 C514 1.378 . S
C522 C517 1.350 . S
C523 H510 0.929 . S
C523 C515 1.433 . S
C523 N525 1.384 . S
N524 C520 1.427 . S
N524 C521 1.384 . S
N525 C517 1.427 . S
N525 C523 1.384 . S
H526 C532 0.930 . S
H527 C536 0.930 . S
H528 C541 0.929 . S
H529 C539 0.929 . S
H530 C534 0.929 . S
H531 C540 0.929 . S
C532 H526 0.930 . S
C532 C533 1.367 . S
C532 C540 1.378 . S
C533 C532 1.367 . S
C533 C541 1.433 . S
C534 H530 0.929 . S
C534 C536 1.378 . S
C534 C538 1.350 . S
C535 C538 1.463 . S
C535 C540 1.350 . S
C535 N543 1.427 . S
C536 H527 0.930 . S
C536 C534 1.378 . S
C536 C537 1.367 . S
C537 C536 1.367 . S
C537 C539 1.433 . S
C538 C534 1.350 . S
C538 C535 1.463 . S
C538 N542 1.427 . S
C539 H529 0.929 . S
C539 C537 1.433 . S
C539 N542 1.384 . S
C540 H531 0.929 . S
C540 C532 1.378 . S
C540 C535 1.350 . S
C541 H528 0.929 . S
C541 C533 1.433 . S
C541 N543 1.384 . S
N542 C538 1.427 . S
N542 C539 1.384 . S
N543 C535 1.427 . S
N543 C541 1.384 . S
H544 C550 0.930 . S
H545 C554 0.930 . S
H546 C559 0.929 . S
H547 C557 0.929 . S
H548 C552 0.929 . S
H549 C558 0.929 . S
C550 H544 0.930 . S
C550 C551 1.367 . S
C550 C558 1.378 . S
C551 C550 1.367 . S
C551 C559 1.433 1_455 S
C552 H548 0.929 . S
C552 C554 1.378 . S
C552 C556 1.350 . S
C553 C556 1.463 1_455 S
C553 C558 1.350 . S
C553 N561 1.427 1_455 S
C554 H545 0.930 . S
C554 C552 1.378 . S
C554 C555 1.367 . S
C555 C554 1.367 . S
C555 C557 1.433 1_655 S
C556 C552 1.350 . S
C556 C553 1.463 1_655 S
C556 N560 1.427 1_655 S
C557 H547 0.929 . S
C557 C555 1.433 1_455 S
C557 N560 1.384 . S
C558 H549 0.929 . S
C558 C550 1.378 . S
C558 C553 1.350 . S
C559 H546 0.929 . S
C559 C551 1.433 1_655 S
C559 N561 1.384 . S
N560 C556 1.427 1_455 S
N560 C557 1.384 . S
N561 C553 1.427 1_655 S
N561 C559 1.384 . S
H562 C568 0.930 . S
H563 C572 0.930 . S
H564 C577 0.929 . S
H565 C575 0.929 . S
H566 C570 0.929 . S
H567 C576 0.929 . S
C568 H562 0.930 . S
C568 C569 1.367 1_455 S
C568 C576 1.378 . S
C569 C568 1.367 1_655 S
C569 C577 1.433 . S
C570 H566 0.929 . S
C570 C572 1.378 . S
C570 C574 1.344 1_655 S
C571 C574 1.462 1_655 S
C571 C576 1.344 1_655 S
C571 N579 1.434 . S
C572 H563 0.930 . S
C572 C570 1.378 . S
C572 C573 1.367 1_655 S
C573 C572 1.367 1_455 S
C573 C575 1.433 . S
C574 C570 1.344 1_455 S
C574 C571 1.462 1_455 S
C574 N578 1.434 . S
C575 H565 0.929 . S
C575 C573 1.433 . S
C575 N578 1.384 . S
C576 H567 0.929 . S
C576 C568 1.378 . S
C576 C571 1.344 1_455 S
C577 H564 0.929 . S
C577 C569 1.433 . S
C577 N579 1.384 . S
N578 C574 1.434 . S
N578 C575 1.384 . S
N579 C571 1.434 . S
N579 C577 1.384 . S
H580 C586 0.930 . S
H581 C590 0.930 . S
H582 C595 0.929 . S
H583 C593 0.929 . S
H584 C588 0.929 . S
H585 C594 0.929 . S
C586 H580 0.930 . S
C586 C587 1.367 . S
C586 C594 1.378 . S
C587 C586 1.367 . S
C587 C595 1.433 1_655 S
C588 H584 0.929 . S
C588 C590 1.378 . S
C588 C592 1.350 . S
C589 C592 1.463 1_655 S
C589 C594 1.350 . S
C589 N597 1.427 1_655 S
C590 H581 0.930 . S
C590 C588 1.378 . S
C590 C591 1.367 . S
C591 C590 1.367 . S
C591 C593 1.433 1_455 S
C592 C588 1.350 . S
C592 C589 1.463 1_455 S
C592 N596 1.427 1_455 S
C593 H583 0.929 . S
C593 C591 1.433 1_655 S
C593 N596 1.384 . S
C594 H585 0.929 . S
C594 C586 1.378 . S
C594 C589 1.350 . S
C595 H582 0.929 . S
C595 C587 1.433 1_455 S
C595 N597 1.384 . S
N596 C592 1.427 1_655 S
N596 C593 1.384 . S
N597 C589 1.427 1_455 S
N597 C595 1.384 . S
H598 C604 0.930 1_455 S
H599 C608 0.930 1_655 S
H600 C613 0.929 . S
H601 C611 0.929 . S
H602 C606 0.929 . S
H603 C612 0.929 . S
C604 H598 0.930 1_655 S
C604 C605 1.367 . S
C604 C612 1.378 1_655 S
C605 C604 1.367 . S
C605 C613 1.433 . S
C606 H602 0.929 . S
C606 C608 1.378 1_655 S
C606 C610 1.350 1_655 S
C607 C610 1.463 1_655 S
C607 C612 1.350 1_655 S
C607 N615 1.427 . S
C608 H599 0.930 1_455 S
C608 C606 1.378 1_455 S
C608 C609 1.367 . S
C609 C608 1.367 . S
C609 C611 1.433 . S
C610 C606 1.350 1_455 S
C610 C607 1.463 1_455 S
C610 N614 1.427 . S
C611 H601 0.929 . S
C611 C609 1.433 . S
C611 N614 1.384 . S
C612 H603 0.929 . S
C612 C604 1.378 1_455 S
C612 C607 1.350 1_455 S
C613 H600 0.929 . S
C613 C605 1.433 . S
C613 N615 1.384 . S
N614 C610 1.427 . S
N614 C611 1.384 . S
N615 C607 1.427 . S
N615 C613 1.384 . S
H616 C622 0.930 . S
H617 C626 0.930 . S
H618 C631 0.929 . S
H619 C629 0.929 . S
H620 C624 0.929 . S
H621 C630 0.929 . S
C622 H616 0.930 . S
C622 C623 1.367 . S
C622 C630 1.378 . S
C623 C622 1.367 . S
C623 C631 1.433 . S
C624 H620 0.929 . S
C624 C626 1.378 . S
C624 C628 1.350 . S
C625 C628 1.463 . S
C625 C630 1.350 . S
C625 N633 1.427 . S
C626 H617 0.930 . S
C626 C624 1.378 . S
C626 C627 1.367 . S
C627 C626 1.367 . S
C627 C629 1.433 . S
C628 C624 1.350 . S
C628 C625 1.463 . S
C628 N632 1.427 . S
C629 H619 0.929 . S
C629 C627 1.433 . S
C629 N632 1.384 . S
C630 H621 0.929 . S
C630 C622 1.378 . S
C630 C625 1.350 . S
C631 H618 0.929 . S
C631 C623 1.433 . S
C631 N633 1.384 . S
N632 C628 1.427 . S
N632 C629 1.384 . S
N633 C625 1.427 . S
N633 C631 1.384 . S
H634 C640 0.930 . S
H635 C644 0.930 . S
H636 C649 0.929 . S
H637 C647 0.929 . S
H638 C642 0.929 . S
H639 C648 0.929 . S
C640 H634 0.930 . S
C640 C641 1.367 . S
C640 C648 1.378 . S
C641 C640 1.367 . S
C641 C649 1.433 . S
C642 H638 0.929 . S
C642 C644 1.378 . S
C642 C646 1.350 . S
C643 C646 1.463 . S
C643 C648 1.350 . S
C643 N651 1.427 . S
C644 H635 0.930 . S
C644 C642 1.378 . S
C644 C645 1.367 . S
C645 C644 1.367 . S
C645 C647 1.433 . S
C646 C642 1.350 . S
C646 C643 1.463 . S
C646 N650 1.427 . S
C647 H637 0.929 . S
C647 C645 1.433 . S
C647 N650 1.384 . S
C648 H639 0.929 . S
C648 C640 1.378 . S
C648 C643 1.350 . S
C649 H636 0.929 . S
C649 C641 1.433 . S
C649 N651 1.384 . S
N650 C646 1.427 . S
N650 C647 1.384 . S
N651 C643 1.427 . S
N651 C649 1.384 . S
H652 C658 0.930 . S
H653 C662 0.930 . S
H654 C667 0.929 . S
H655 C665 0.929 . S
H656 C660 0.929 . S
H657 C666 0.929 . S
C658 H652 0.930 . S
C658 C659 1.367 . S
C658 C666 1.378 . S
C659 C658 1.367 . S
C659 C667 1.433 . S
C660 H656 0.929 . S
C660 C662 1.378 . S
C660 C664 1.350 . S
C661 C664 1.463 . S
C661 C666 1.350 . S
C661 N669 1.427 . S
C662 H653 0.930 . S
C662 C660 1.378 . S
C662 C663 1.367 . S
C663 C662 1.367 . S
C663 C665 1.433 . S
C664 C660 1.350 . S
C664 C661 1.463 . S
C664 N668 1.427 . S
C665 H655 0.929 . S
C665 C663 1.433 . S
C665 N668 1.384 . S
C666 H657 0.929 . S
C666 C658 1.378 . S
C666 C661 1.350 . S
C667 H654 0.929 . S
C667 C659 1.433 . S
C667 N669 1.384 . S
N668 C664 1.427 . S
N668 C665 1.384 . S
N669 C661 1.427 . S
N669 C667 1.384 . S
H670 C676 0.930 . S
H671 C680 0.930 . S
H672 C685 0.929 . S
H673 C683 0.929 . S
H674 C678 0.929 . S
H675 C684 0.929 . S
C676 H670 0.930 . S
C676 C677 1.367 . S
C676 C684 1.378 . S
C677 C676 1.367 . S
C677 C685 1.433 . S
C678 H674 0.929 . S
C678 C680 1.378 . S
C678 C682 1.350 . S
C679 C682 1.463 . S
C679 C684 1.350 . S
C679 N687 1.427 . S
C680 H671 0.930 . S
C680 C678 1.378 . S
C680 C681 1.367 . S
C681 C680 1.367 . S
C681 C683 1.433 . S
C682 C678 1.350 . S
C682 C679 1.463 . S
C682 N686 1.427 . S
C683 H673 0.929 . S
C683 C681 1.433 . S
C683 N686 1.384 . S
C684 H675 0.929 . S
C684 C676 1.378 . S
C684 C679 1.350 . S
C685 H672 0.929 . S
C685 C677 1.433 . S
C685 N687 1.384 . S
N686 C682 1.427 . S
N686 C683 1.384 . S
N687 C679 1.427 . S
N687 C685 1.384 . S
C263 C4 1.305 . S
C267 C6 1.305 . S
C281 C34 1.305 . S
C285 C61 1.302 . S
C299 C66 1.304 . S
C303 C93 1.304 . S
C317 C100 1.303 . S
C321 C102 1.306 . S
C335 C132 1.303 . S
C339 C134 1.306 . S
C353 C189 1.302 . S
C357 C162 1.304 . S
C371 C194 1.305 . S
C375 C221 1.302 . S
C389 C230 1.306 . S
C393 C228 1.306 . S
C407 C36 1.522 . S
C411 C29 1.523 . S
C425 C125 1.526 . S
C429 C68 1.527 . S
C443 C157 1.523 . S
C447 C164 1.522 . S
C461 C196 1.526 . S
C465 C253 1.525 . S
C479 C2 1.594 . S
C483 C166 1.593 . S
C497 C130 1.596 . S
C501 C38 1.598 . S
C515 C70 1.594 . S
C519 C226 1.593 . S
C533 C98 1.594 . S
C537 C198 1.594 . S
C551 N13 1.463 . S
C555 N109 1.469 . S
C569 N50 1.476 . S
C573 N82 1.471 . S
C587 N45 1.550 . S
C591 N77 1.557 . S
C605 N114 1.539 . S
C609 N18 1.549 . S
C623 N141 1.476 . S
C627 N237 1.471 . S
C641 N178 1.476 . S
C645 N210 1.470 . S
C659 N173 1.549 . S
C663 N205 1.539 . S
C677 N242 1.557 . S
C681 N146 1.551 . S
