# Generated by pormake.
# Topology umf, (4)-cn, num edge types: 1
# Building blocks:
#     Node 0, Type 0, BuildingBlock: ESEHIV_clean_sbu_0, # of connection points: 4
#     Node 1, Type 0, BuildingBlock: ESEHIV_clean_sbu_0, # of connection points: 4
#     Node 2, Type 0, BuildingBlock: ESEHIV_clean_sbu_0, # of connection points: 4
#     Node 3, Type 0, BuildingBlock: ESEHIV_clean_sbu_0, # of connection points: 4
#     Node 4, Type 0, BuildingBlock: ESEHIV_clean_sbu_0, # of connection points: 4
#     Node 5, Type 0, BuildingBlock: ESEHIV_clean_sbu_0, # of connection points: 4
#     Node 6, Type 0, BuildingBlock: ESEHIV_clean_sbu_0, # of connection points: 4
#     Node 7, Type 0, BuildingBlock: ESEHIV_clean_sbu_0, # of connection points: 4
#     Edge 8, Type (0, 0), BuildingBlock: XUDNAN_clean_linker_2, # of connection points: 2
#     Edge 9, Type (0, 0), BuildingBlock: XUDNAN_clean_linker_2, # of connection points: 2
#     Edge 10, Type (0, 0), BuildingBlock: XUDNAN_clean_linker_2, # of connection points: 2
#     Edge 11, Type (0, 0), BuildingBlock: XUDNAN_clean_linker_2, # of connection points: 2
#     Edge 12, Type (0, 0), BuildingBlock: XUDNAN_clean_linker_2, # of connection points: 2
#     Edge 13, Type (0, 0), BuildingBlock: XUDNAN_clean_linker_2, # of connection points: 2
#     Edge 14, Type (0, 0), BuildingBlock: XUDNAN_clean_linker_2, # of connection points: 2
#     Edge 15, Type (0, 0), BuildingBlock: XUDNAN_clean_linker_2, # of connection points: 2
#     Edge 16, Type (0, 0), BuildingBlock: XUDNAN_clean_linker_2, # of connection points: 2
#     Edge 17, Type (0, 0), BuildingBlock: XUDNAN_clean_linker_2, # of connection points: 2
#     Edge 18, Type (0, 0), BuildingBlock: XUDNAN_clean_linker_2, # of connection points: 2
#     Edge 19, Type (0, 0), BuildingBlock: XUDNAN_clean_linker_2, # of connection points: 2
#     Edge 20, Type (0, 0), BuildingBlock: XUDNAN_clean_linker_2, # of connection points: 2
#     Edge 21, Type (0, 0), BuildingBlock: XUDNAN_clean_linker_2, # of connection points: 2
#     Edge 22, Type (0, 0), BuildingBlock: XUDNAN_clean_linker_2, # of connection points: 2
#     Edge 23, Type (0, 0), BuildingBlock: XUDNAN_clean_linker_2, # of connection points: 2
# Relax obj value: 0.065
# Max RMSD: 0.103
# Mean RMSD: 0.103
data_MOF--net-umf--node1-ESEHIV_clean_sbu_0--edge1-XUDNAN_clean_linker_2
_symmetry_space_group_name_H-M    P1
_symmetry_Int_Tables_number       1
_symmetry_cell_setting            triclinic
loop_
_symmetry_equiv_pos_as_xyz
'x, y, z'
_cell_length_a     33.860819
_cell_length_b     33.811058
_cell_length_c     50.674589
_cell_angle_alpha  89.179526
_cell_angle_beta   89.854816
_cell_angle_gamma 89.900887
loop_
_atom_site_label
_atom_site_type_symbol
_atom_site_fract_x
_atom_site_fract_y
_atom_site_fract_z
_atom_type_partial_charge
Cu0 Cu 0.04314 0.2612 0.19134 0.0
N1 N 0.01666 0.21736 0.20566 0.0
N2 N 0.01409 0.15391 0.21861 0.0
C3 C 0.02643 0.17986 0.1999 0.0
C4 C 0.99486 0.17569 0.23662 0.0
C5 C 0.9969 0.2149 0.22875 0.0
O6 O 0.09253 0.26248 0.21108 0.0
C7 C 0.01824 0.26557 0.1388 0.0
O8 O 0.98655 0.27935 0.15053 0.0
H9 H 0.0457 0.17218 0.18368 0.0
H10 H 0.98879 0.23989 0.24067 0.0
N11 N 0.0169 0.30882 0.19799 0.0
N12 N 1.00525 0.37387 0.19842 0.0
C13 C 0.0306 0.34502 0.19139 0.0
C14 C 0.98144 0.31499 0.20932 0.0
C15 C 0.97434 0.35516 0.20981 0.0
C16 C 0.11613 0.23314 0.21248 0.0
O17 O 0.1127 0.20464 0.19532 0.0
H18 H 0.05876 0.35006 0.18177 0.0
H19 H 0.96169 0.29204 0.21626 0.0
O20 O 0.04781 0.25524 0.15295 0.0
H21 H 0.98415 0.16465 0.25548 0.0
H22 H 0.94811 0.36945 0.21739 0.0
Cu23 Cu 0.77076 0.02609 0.67995 0.0
N24 N 0.81879 1.00019 0.68482 0.0
N25 N 0.8828 0.99322 0.69445 0.0
C26 C 0.85123 0.01762 0.69444 0.0
C27 C 0.86945 0.95892 0.68439 0.0
C28 C 0.82993 0.96337 0.6784 0.0
O29 O 0.77403 0.07237 0.70279 0.0
C30 C 0.79018 0.03548 0.62495 0.0
O31 O 0.82693 0.03147 0.63278 0.0
H32 H 0.8519 0.0483 0.70017 0.0
H33 H 0.81098 0.94171 0.66938 0.0
N34 N 0.72913 0.99351 0.69087 0.0
N35 N 0.66767 0.97296 0.69981 0.0
C36 C 0.69047 1.00291 0.69052 0.0
C37 C 0.73103 0.95641 0.70071 0.0
C38 C 0.69326 0.94364 0.70618 0.0
C39 C 0.76578 0.06789 0.72726 0.0
O40 O 0.75088 0.03411 0.73555 0.0
H41 H 0.67959 0.03147 0.68395 0.0
H42 H 0.75794 0.93982 0.70384 0.0
O43 O 0.76272 0.03714 0.64221 0.0
H44 H 0.88699 0.93265 0.68116 0.0
H45 H 0.68545 0.91476 0.714 0.0
Cu46 Cu 0.99716 0.77775 0.19499 0.0
N47 N 0.03094 0.81387 0.21095 0.0
N48 N 0.05492 0.87106 0.22555 0.0
C49 C 0.02373 0.85251 0.21486 0.0
C50 C 0.08303 0.843 0.22845 0.0
C51 C 0.06807 0.80769 0.21951 0.0
O52 O 0.94494 0.78586 0.21027 0.0
C53 C 0.98483 0.76795 0.13842 0.0
O54 O 0.95506 0.74456 0.14432 0.0
H55 H 0.99691 0.8673 0.20884 0.0
H56 H 0.08349 0.77969 0.21871 0.0
N57 N 1.01223 0.72685 0.20559 0.0
N58 N 0.01966 0.66123 0.20761 0.0
C59 C 1.0123 0.69298 0.19184 0.0
C60 C 0.01998 0.71611 0.23071 0.0
C61 C 0.02459 0.67571 0.23203 0.0
C62 C 0.92369 0.81692 0.20905 0.0
O63 O 0.93245 0.84499 0.19185 0.0
H64 H 1.00521 0.69137 0.17108 0.0
H65 H 0.02077 0.73624 0.2471 0.0
O66 O 1.0036 0.78479 0.15687 0.0
H67 H 0.11245 0.84778 0.23606 0.0
H68 H 0.03042 0.65824 0.24967 0.0
Cu69 Cu 0.26638 0.98031 0.68291 0.0
N70 N 0.22804 0.01536 0.69462 0.0
N71 N 0.1671 0.03586 0.70464 0.0
C72 C 0.18953 0.01357 0.68849 0.0
C73 C 0.19297 0.05303 0.7212 0.0
C74 C 0.2305 0.04017 0.71504 0.0
O75 O 0.26367 0.9347 0.70697 0.0
C76 C 0.25791 0.99743 0.62897 0.0
O77 O 0.26482 0.03331 0.6374 0.0
H78 H 0.17826 0.99432 0.67343 0.0
H79 H 0.25725 0.04612 0.72589 0.0
N80 N 0.31636 1.0027 0.68626 0.0
N81 N 0.38148 1.0076 0.69216 0.0
C82 C 0.35006 0.9831 0.69168 0.0
C83 C 0.32669 0.04093 0.68336 0.0
C84 C 0.36693 0.04404 0.68687 0.0
C85 C 0.23182 0.91597 0.71195 0.0
O86 O 0.20043 0.92332 0.6975 0.0
H87 H 0.35153 0.95138 0.69474 0.0
H88 H 0.30638 0.06484 0.67896 0.0
O89 O 0.25687 0.96887 0.64573 0.0
H90 H 0.18527 0.07124 0.73782 0.0
H91 H 0.38406 0.07102 0.68591 0.0
Cu92 Cu 0.05805 0.76912 0.89379 0.0
N93 N 0.03207 0.81544 0.88302 0.0
N94 N 0.02804 0.88055 0.87456 0.0
C95 C 0.04389 0.85182 0.89004 0.0
C96 C 1.0049 0.86144 0.85726 0.0
C97 C 1.00785 0.8213 0.86229 0.0
O98 O 0.1055 0.76983 0.87205 0.0
C99 C 0.03524 0.76615 0.94646 0.0
O100 O 1.00136 0.75904 0.93491 0.0
H101 H 0.06576 0.85681 0.90516 0.0
H102 H 0.99605 0.79815 0.85015 0.0
N103 N 0.02965 0.7229 0.88633 0.0
N104 N 0.01469 0.65834 0.88373 0.0
C105 C 0.04278 0.6854 0.88945 0.0
C106 C 0.99192 0.7196 0.87849 0.0
C107 C 0.98271 0.68006 0.87673 0.0
C108 C 0.13391 0.79385 0.87529 0.0
O109 O 0.1358 0.81418 0.89713 0.0
H110 H 0.07213 0.67836 0.89647 0.0
H111 H 0.97205 0.74412 0.87495 0.0
O112 O 0.06581 0.77155 0.93204 0.0
H113 H 0.98957 0.87519 0.84079 0.0
H114 H 0.95438 0.66852 0.87079 0.0
Cu115 Cu 0.25476 0.03565 0.38485 0.0
N116 N 0.21145 1.0097 0.36987 0.0
N117 N 0.15021 1.00361 0.35388 0.0
C118 C 0.1773 0.02825 0.36401 0.0
C119 C 0.16785 0.96782 0.35338 0.0
C120 C 0.20589 0.97175 0.36301 0.0
O121 O 0.25431 0.08672 0.36663 0.0
C122 C 0.24029 1.0027 0.43435 0.0
O123 O 0.23555 0.97203 0.4191 0.0
H124 H 0.17197 0.0592 0.36775 0.0
H125 H 0.22767 0.9485 0.36513 0.0
N126 N 0.30336 1.01151 0.37717 0.0
N127 N 0.36833 1.00631 0.36924 0.0
C128 C 0.33661 0.03065 0.36978 0.0
C129 C 0.31443 0.97366 0.38137 0.0
C130 C 0.35446 0.97039 0.37652 0.0
C131 C 0.23227 0.11609 0.37187 0.0
O132 O 0.21293 0.1167 0.39436 0.0
H133 H 0.33783 0.06224 0.36606 0.0
H134 H 0.29512 0.95029 0.38829 0.0
O135 O 0.24843 0.03603 0.42349 0.0
H136 H 0.15431 0.94091 0.34648 0.0
H137 H 0.37205 0.94374 0.37847 0.0
Cu138 Cu 0.96733 0.25273 0.89158 0.0
N139 N 1.00965 0.22372 0.87838 0.0
N140 N 0.04239 0.16818 0.86895 0.0
C141 C 1.0074 0.18433 0.87551 0.0
C142 C 0.06796 0.19881 0.86773 0.0
C143 C 0.04758 0.2332 0.87353 0.0
O144 O 0.92081 0.22789 0.87579 0.0
C145 C 0.96212 0.27013 0.94778 0.0
O146 O 0.94379 0.30311 0.94127 0.0
H147 H 0.98086 0.16756 0.87974 0.0
H148 H 0.05982 0.26259 0.87519 0.0
N149 N 0.96767 0.30644 0.88119 0.0
N150 N 0.97675 0.37209 0.87881 0.0
C151 C 0.98986 0.33729 0.88922 0.0
C152 C 0.9401 0.32247 0.8652 0.0
C153 C 0.94566 0.36259 0.86362 0.0
C154 C 0.92189 0.22383 0.85074 0.0
O155 O 0.95253 0.23783 0.83769 0.0
H156 H 0.01382 0.33454 0.90322 0.0
H157 H 0.91655 0.30626 0.85595 0.0
O158 O 0.97153 0.24575 0.92987 0.0
H159 H 0.09925 0.19643 0.86364 0.0
H160 H 0.92779 0.3833 0.85234 0.0
Cu161 Cu 0.76235 1.00725 0.37787 0.0
N162 N 0.80765 0.03798 0.37228 0.0
N163 N 0.86961 0.05398 0.36106 0.0
C164 C 0.84222 0.02504 0.36227 0.0
C165 C 0.85158 0.08634 0.37077 0.0
C166 C 0.81346 0.07632 0.37782 0.0
O167 O 0.76949 0.96195 0.35517 0.0
C168 C 0.78441 0.99825 0.43218 0.0
O169 O 0.8206 1.00252 0.42322 0.0
H170 H 0.8472 0.99495 0.35605 0.0
H171 H 0.79168 0.09546 0.38669 0.0
N172 N 0.71723 0.0346 0.36619 0.0
N173 N 0.65407 0.04972 0.35698 0.0
C174 C 0.67919 0.02267 0.36767 0.0
C175 C 0.71618 0.07028 0.35419 0.0
C176 C 0.67753 0.07972 0.34861 0.0
C177 C 0.78727 0.92986 0.36096 0.0
O178 O 0.79812 0.92269 0.38543 0.0
H179 H 0.67036 0.99444 0.37607 0.0
H180 H 0.74176 0.08821 0.34964 0.0
O181 O 0.75596 0.99641 0.41577 0.0
H182 H 0.86531 0.11492 0.37331 0.0
H183 H 0.66769 0.10696 0.33929 0.0
H184 H 0.98229 0.43171 0.23157 0.0
H185 H 0.03938 0.41086 0.15642 0.0
H186 H 0.04763 0.48309 0.14962 0.0
H187 H 0.92998 0.52104 0.21275 0.0
H188 H 0.93771 0.54431 0.24409 0.0
H189 H 0.93501 0.49121 0.24233 0.0
H190 H 1.00341 0.48527 0.26491 0.0
H191 H 1.00631 0.53832 0.26675 0.0
H192 H 0.04513 0.51102 0.25075 0.0
H193 H 0.04846 0.55826 0.151 0.0
H194 H 0.04662 0.62947 0.16213 0.0
H195 H 0.99166 0.60007 0.23717 0.0
C196 C 0.99616 0.44244 0.21358 0.0
C197 C 1.01002 0.41584 0.19443 0.0
C198 C 0.02877 0.43084 0.17137 0.0
C199 C 0.03335 0.47176 0.1673 0.0
C200 C 0.01938 0.49723 0.18662 0.0
C201 C 1.00149 0.48308 0.20942 0.0
C202 C 0.9906 0.51644 0.22767 0.0
C203 C 0.94565 0.51835 0.23195 0.0
C204 C 1.01269 0.51252 0.25408 0.0
C205 C 1.00518 0.55159 0.21163 0.0
C206 C 0.02126 0.54005 0.18786 0.0
C207 C 0.03608 0.56758 0.16961 0.0
C208 C 0.0348 0.60789 0.17601 0.0
C209 C 0.01936 0.62012 0.20056 0.0
C210 C 1.00421 0.59149 0.21843 0.0
H211 H 0.44688 0.04306 0.67161 0.0
H212 H 0.40801 0.94789 0.7237 0.0
H213 H 0.47752 0.92901 0.73179 0.0
H214 H 0.52712 0.99019 0.64229 0.0
H215 H 0.55918 0.03263 0.6402 0.0
H216 H 0.50643 0.03918 0.63906 0.0
H217 H 0.51012 0.08689 0.67856 0.0
H218 H 0.56291 0.08046 0.67982 0.0
H219 H 0.53334 0.07051 0.70878 0.0
H220 H 0.55123 0.92098 0.73444 0.0
H221 H 0.6236 0.92282 0.73055 0.0
H222 H 0.61428 0.02196 0.67535 0.0
C223 C 0.45303 0.01851 0.68492 0.0
C224 C 0.42205 0.99696 0.69708 0.0
C225 C 0.43127 0.96455 0.714 0.0
C226 C 0.47064 0.95377 0.71882 0.0
C227 C 0.50046 0.97557 0.70645 0.0
C228 C 0.49214 1.00716 0.68977 0.0
C229 C 0.52961 0.02505 0.67843 0.0
C230 C 0.53063 0.02153 0.64821 0.0
C231 C 0.53426 0.06829 0.68692 0.0
C232 C 0.56031 0.99863 0.6914 0.0
C233 C 0.54289 0.97042 0.70756 0.0
C234 C 0.56521 0.94282 0.72171 0.0
C235 C 0.60644 0.94398 0.7192 0.0
C236 C 0.62513 0.97239 0.7025 0.0
C237 C 0.60139 1.00006 0.6885 0.0
H238 H 0.93225 0.43858 0.88086 0.0
H239 H 0.05257 0.39574 0.88703 0.0
H240 H 0.07622 0.46499 0.89067 0.0
H241 H 0.95188 0.52195 0.84071 0.0
H242 H 0.91584 0.55318 0.85637 0.0
H243 H 0.90879 0.50045 0.85613 0.0
H244 H 0.90318 0.49913 0.90716 0.0
H245 H 0.90992 0.55196 0.90756 0.0
H246 H 0.94216 0.52019 0.92661 0.0
H247 H 0.08627 0.54047 0.89008 0.0
H248 H 0.08188 0.61323 0.88778 0.0
H249 H 0.95406 0.60481 0.88319 0.0
C250 C 0.9636 0.44367 0.88306 0.0
C251 C 0.99065 0.41176 0.88346 0.0
C252 C 0.03136 0.41972 0.88684 0.0
C253 C 0.04499 0.45896 0.88878 0.0
C254 C 0.01745 0.48979 0.88765 0.0
C255 C 0.97753 0.48238 0.88518 0.0
C256 C 0.9538 0.52034 0.88399 0.0
C257 C 0.93126 0.52419 0.85774 0.0
C258 C 0.92561 0.52306 0.90775 0.0
C259 C 0.98657 0.55054 0.88563 0.0
C260 C 0.0231 0.53253 0.88778 0.0
C261 C 0.05771 0.55476 0.88872 0.0
C262 C 0.05485 0.59631 0.88748 0.0
C263 C 0.01758 0.61549 0.88535 0.0
C264 C 0.98315 0.5918 0.88458 0.0
H265 H 0.43532 0.97445 0.39068 0.0
H266 H 0.39301 0.06273 0.33459 0.0
H267 H 0.46185 0.0822 0.32471 0.0
H268 H 0.51449 0.03296 0.4163 0.0
H269 H 0.54806 0.99189 0.42027 0.0
H270 H 0.49557 0.98382 0.42227 0.0
H271 H 0.50055 0.93175 0.38541 0.0
H272 H 0.55308 0.93968 0.38329 0.0
H273 H 0.52287 0.94525 0.35423 0.0
H274 H 0.53494 0.09176 0.32066 0.0
H275 H 0.60715 0.09329 0.32388 0.0
H276 H 0.60304 1.00064 0.38418 0.0
C277 C 0.4406 0.99757 0.37611 0.0
C278 C 0.40872 0.01701 0.3633 0.0
C279 C 0.41688 0.04765 0.34475 0.0
C280 C 0.4559 0.05875 0.33892 0.0
C281 C 0.48658 0.03913 0.35195 0.0
C282 C 0.47945 1.00934 0.37027 0.0
C283 C 0.51784 0.99403 0.38211 0.0
C284 C 0.51905 1.00111 0.41201 0.0
C285 C 0.52394 0.95007 0.37588 0.0
C286 C 0.54764 0.01984 0.36752 0.0
C287 C 0.52888 0.04544 0.35014 0.0
C288 C 0.54993 0.07205 0.33436 0.0
C289 C 0.59119 0.07284 0.33652 0.0
C290 C 0.61142 0.04744 0.35453 0.0
C291 C 0.58898 0.02039 0.3701 0.0
H292 H 0.93734 0.30756 0.99292 0.0
H293 H 0.01716 0.2164 0.96534 0.0
H294 H 0.04206 0.20658 1.01073 0.0
H295 H 1.00196 0.34942 0.0411 0.0
H296 H 0.96329 0.35793 0.06486 0.0
H297 H 0.95205 0.35816 1.03014 0.0
H298 H 0.89899 0.30409 0.038 0.0
H299 H 0.90986 0.30392 0.07277 0.0
H300 H 0.91254 0.25855 0.0546 0.0
H301 H 0.06017 0.20847 0.05957 0.0
H302 H 0.06478 0.21755 0.10797 0.0
H303 H 0.97101 0.30494 0.10358 0.0
C304 C 0.95998 0.28545 0.99642 0.0
C305 C 0.97528 0.26283 0.97546 0.0
C306 C 1.00477 0.23404 0.98101 0.0
C307 C 0.0193 0.22836 1.00675 0.0
C308 C 1.00384 0.25139 1.02692 0.0
C309 C 0.97446 0.27902 1.02208 0.0
C310 C 0.96199 0.29913 0.04731 0.0
C311 C 0.97033 0.3438 0.04575 0.0
C312 C 0.91826 0.29091 0.05354 0.0
C313 C 0.98893 0.27859 0.06707 0.0
C314 C 1.01323 0.25146 0.05495 0.0
C315 C 0.04108 0.22948 0.06927 0.0
C316 C 0.04366 0.23493 0.09673 0.0
C317 C 0.01816 0.26175 0.10961 0.0
C318 C 0.99074 0.28395 0.09439 0.0
H319 H 0.84203 0.02958 0.58338 0.0
H320 H 0.7168 0.03415 0.60165 0.0
H321 H 0.7014 0.02352 0.55459 0.0
H322 H 0.83626 0.08026 0.51996 0.0
H323 H 0.87403 0.04997 0.50529 0.0
H324 H 0.87473 0.059 0.54023 0.0
H325 H 0.87525 0.98343 0.54949 0.0
H326 H 0.87408 0.97417 0.51459 0.0
H327 H 0.83675 0.95312 0.53594 0.0
H328 H 0.69992 1.01006 0.50518 0.0
H329 H 0.7125 0.99954 0.45769 0.0
H330 H 0.83871 1.00387 0.47217 0.0
C331 C 0.81131 0.02876 0.57752 0.0
C332 C 0.78064 0.03283 0.59634 0.0
C333 C 0.74087 0.03134 0.58768 0.0
C334 C 0.73182 0.02512 0.56097 0.0
C335 C 0.76281 0.02051 0.54306 0.0
C336 C 0.80177 0.02262 0.55099 0.0
C337 C 0.82967 0.01666 0.52793 0.0
C338 C 0.85517 0.05368 0.52307 0.0
C339 C 0.85545 0.97964 0.53226 0.0
C340 C 0.80041 1.0108 0.50575 0.0
C341 C 0.76197 1.01295 0.51485 0.0
C342 C 0.72993 1.00843 0.49789 0.0
C343 C 0.73738 1.00227 0.47091 0.0
C344 C 0.77659 1.00078 0.46106 0.0
C345 C 0.80836 1.00472 0.47894 0.0
H346 H 0.94883 0.74228 0.09293 0.0
H347 H 0.05283 0.80365 0.12087 0.0
H348 H 0.07801 0.80864 0.07521 0.0
H349 H 0.99723 0.68607 0.04267 0.0
H350 H 0.95716 0.6906 1.01948 0.0
H351 H 0.94725 0.69172 0.05439 0.0
H352 H 0.91197 0.75935 0.04861 0.0
H353 H 0.92156 0.7583 1.01366 0.0
H354 H 0.93771 0.79984 1.03272 0.0
H355 H 0.09304 0.80521 1.02606 0.0
H356 H 0.09377 0.79778 0.97745 0.0
H357 H 0.9792 0.74071 0.98174 0.0
C358 C 0.97685 0.75688 0.08947 0.0
C359 C 0.9988 0.7725 0.11063 0.0
C360 C 0.0353 0.79149 0.1051 0.0
C361 C 0.05 0.79437 0.07918 0.0
C362 C 0.0278 0.77837 0.05883 0.0
C363 C 0.99182 0.76032 0.06366 0.0
C364 C 0.97343 0.74618 0.03825 0.0
C365 C 0.96849 0.70096 0.03874 0.0
C366 C 0.93382 0.76718 1.03301 0.0
C367 C 1.00464 0.75904 1.01841 0.0
C368 C 0.03598 0.77726 1.03064 0.0
C369 C 0.06854 0.79112 1.01628 0.0
C370 C 0.0688 0.78665 0.98868 0.0
C371 C 0.03655 0.76883 0.97572 0.0
C372 C 1.00427 0.75471 0.99097 0.0
H373 H 0.25799 0.05532 0.47454 0.0
H374 H 0.21722 0.93576 0.46035 0.0
H375 H 0.21638 0.92202 0.50803 0.0
H376 H 0.3221 0.03046 0.52829 0.0
H377 H 0.31097 0.07392 0.54713 0.0
H378 H 0.30707 0.07552 0.51169 0.0
H379 H 0.23443 0.09898 0.51543 0.0
H380 H 0.23819 0.09761 0.55089 0.0
H381 H 0.19985 0.07013 0.53475 0.0
H382 H 0.22263 0.91937 0.55715 0.0
H383 H 0.23318 0.92963 0.60482 0.0
H384 H 0.26873 0.05077 0.58811 0.0
C385 C 0.24851 0.02644 0.4815 0.0
C386 C 0.23773 0.99668 0.4635 0.0
C387 C 0.22575 0.95915 0.47354 0.0
C388 C 0.22512 0.95094 0.5007 0.0
C389 C 0.23641 0.98053 0.51786 0.0
C390 C 0.24763 0.01763 0.50877 0.0
C391 C 0.25889 0.04379 0.53167 0.0
C392 C 0.30234 0.05667 0.52956 0.0
C393 C 0.23118 0.07976 0.53327 0.0
C394 C 0.25251 0.01545 0.55485 0.0
C395 C 0.23958 0.9791 0.54641 0.0
C396 C 0.23252 0.94782 0.56405 0.0
C397 C 0.23868 0.95387 0.59111 0.0
C398 C 0.25164 0.99097 0.60032 0.0
C399 C 0.25856 0.02208 0.5818 0.0
H400 H 0.15915 0.16718 0.22645 0.0
H401 H 0.12625 0.28372 0.25393 0.0
H402 H 0.15723 0.2686 0.297 0.0
H403 H 0.13757 0.11678 0.2851 0.0
H404 H 0.17783 0.08204 0.28304 0.0
H405 H 0.15734 0.10347 0.25339 0.0
H406 H 0.22637 0.12915 0.2393 0.0
H407 H 0.24739 0.10741 0.26876 0.0
H408 H 0.25428 0.15932 0.26158 0.0
H409 H 0.1842 0.23718 0.33918 0.0
H410 H 0.20925 0.19381 0.37537 0.0
H411 H 0.22689 0.09942 0.31955 0.0
C412 C 0.15938 0.19002 0.24121 0.0
C413 C 0.14045 0.22682 0.23661 0.0
C414 C 0.14079 0.25544 0.25681 0.0
C415 C 0.15825 0.24707 0.28141 0.0
C416 C 0.17557 0.21005 0.28554 0.0
C417 C 0.17668 0.18217 0.26585 0.0
C418 C 0.19496 0.14379 0.27571 0.0
C419 C 0.16515 0.10952 0.27422 0.0
C420 C 0.23302 0.13438 0.26043 0.0
C421 C 0.20375 0.15429 0.30407 0.0
C422 C 0.19215 0.19253 0.30948 0.0
C423 C 0.19424 0.20751 0.33499 0.0
C424 C 0.20846 0.18274 0.35543 0.0
C425 C 0.22099 0.14369 0.35016 0.0
C426 C 0.21885 0.12961 0.32405 0.0
H427 H 0.92139 0.20639 0.79821 0.0
H428 H 0.85162 0.1933 0.86977 0.0
H429 H 0.80081 0.15706 0.84465 0.0
H430 H 0.83972 0.21969 0.75246 0.0
H431 H 0.86323 0.19157 0.72685 0.0
H432 H 0.89284 0.21828 0.75009 0.0
H433 H 0.93022 0.15369 0.76281 0.0
H434 H 0.90111 0.12725 0.73925 0.0
H435 H 0.90242 0.11078 0.77322 0.0
H436 H 0.75973 0.11883 0.81208 0.0
H437 H 0.73273 0.07989 0.77544 0.0
H438 H 0.82907 0.11892 0.72497 0.0
C439 C 0.89526 0.19633 0.80866 0.0
C440 C 0.89041 0.20295 0.83603 0.0
C441 C 0.85594 0.18876 0.84885 0.0
C442 C 0.82691 0.16824 0.8347 0.0
C443 C 0.83275 0.16222 0.80774 0.0
C444 C 0.86616 0.1758 0.79489 0.0
C445 C 0.8664 0.16392 0.76611 0.0
C446 C 0.86549 0.20056 0.7478 0.0
C447 C 0.90214 0.13733 0.76001 0.0
C448 C 0.82802 0.14108 0.76475 0.0
C449 C 0.80897 0.14061 0.78895 0.0
C450 C 0.77418 0.11944 0.793 0.0
C451 C 0.75901 0.09747 0.77204 0.0
C452 C 0.77841 0.09688 0.74723 0.0
C453 C 0.81296 0.11969 0.74345 0.0
H454 H 0.80867 0.95281 0.31111 0.0
H455 H 0.79968 0.84968 0.36259 0.0
H456 H 0.82716 0.80805 0.32706 0.0
H457 H 0.78747 0.90542 0.24834 0.0
H458 H 0.82406 0.93395 0.23057 0.0
H459 H 0.7997 0.9546 0.25888 0.0
H460 H 0.86765 0.9674 0.28069 0.0
H461 H 0.89204 0.94706 0.25237 0.0
H462 H 0.90193 0.92695 0.28481 0.0
H463 H 0.85852 0.77849 0.28657 0.0
H464 H 0.89655 0.76401 0.24626 0.0
H465 H 0.88794 0.88738 0.22196 0.0
C466 C 0.8116 0.92128 0.31468 0.0
C467 C 0.80125 0.90421 0.33939 0.0
C468 C 0.80698 0.86317 0.34369 0.0
C469 C 0.82245 0.83935 0.3236 0.0
C470 C 0.83258 0.85718 0.29949 0.0
C471 C 0.82777 0.89732 0.29509 0.0
C472 C 0.8445 0.90991 0.26847 0.0
C473 C 0.81198 0.92697 0.2505 0.0
C474 C 0.87854 0.93957 0.2718 0.0
C475 C 0.85942 0.87055 0.25848 0.0
C476 C 0.85189 0.84046 0.27656 0.0
C477 C 0.86434 0.80179 0.27222 0.0
C478 C 0.88588 0.79385 0.24919 0.0
C479 C 0.8951 0.82445 0.23075 0.0
C480 C 0.88088 0.86314 0.23534 0.0
H481 H 0.16872 0.87047 0.72812 0.0
H482 H 0.28595 0.90725 0.75189 0.0
H483 H 0.27608 0.87456 0.79528 0.0
H484 H 0.12189 0.88695 0.78818 0.0
H485 H 0.08969 0.84465 0.78685 0.0
H486 H 0.10747 0.86728 0.75676 0.0
H487 H 0.13611 0.79999 0.74197 0.0
H488 H 0.11824 0.77706 0.77202 0.0
H489 H 0.16976 0.77346 0.76334 0.0
H490 H 0.24964 0.84605 0.83831 0.0
H491 H 0.21065 0.81929 0.87598 0.0
H492 H 0.11265 0.79731 0.82337 0.0
C493 C 0.19272 0.8709 0.7422 0.0
C494 C 0.2282 0.89141 0.73646 0.0
C495 C 0.25862 0.89155 0.75564 0.0
C496 C 0.25325 0.87311 0.78043 0.0
C497 C 0.21752 0.85406 0.78568 0.0
C498 C 0.18801 0.85229 0.76693 0.0
C499 C 0.15171 0.83154 0.77791 0.0
C500 C 0.11558 0.85926 0.77739 0.0
C501 C 0.14348 0.79323 0.76292 0.0
C502 C 0.16503 0.82274 0.80593 0.0
C503 C 0.20305 0.83606 0.81009 0.0
C504 C 0.22024 0.8346 0.8351 0.0
C505 C 0.19793 0.8194 0.85639 0.0
C506 C 0.1591 0.80528 0.85247 0.0
C507 C 0.14279 0.80656 0.8268 0.0
H508 H 0.97188 0.08972 0.23444 0.0
H509 H 0.08905 0.12883 0.21175 0.0
H510 H 0.11416 0.06063 0.217 0.0
H511 H 1.00432 1.01106 0.28254 0.0
H512 H 0.96534 0.97803 0.27295 0.0
H513 H 0.95779 0.03078 0.2712 0.0
H514 H 0.93901 0.02499 0.2219 0.0
H515 H 0.94722 0.97243 0.22318 0.0
H516 H 0.97331 1.00254 0.19929 0.0
H517 H 0.12546 0.98808 0.22091 0.0
H518 H 0.12117 0.91526 0.22005 0.0
H519 H 0.9965 0.92199 0.23933 0.0
C520 C 1.00289 0.08377 0.23102 0.0
C521 C 0.02853 0.11425 0.22249 0.0
C522 C 0.06888 0.10566 0.21787 0.0
C523 C 0.08347 0.06714 0.22113 0.0
C524 C 0.05734 0.0375 0.22905 0.0
C525 C 0.01786 0.04525 0.2339 0.0
C526 C 0.9954 1.00737 0.23978 0.0
C527 C 0.97979 1.00679 0.26831 0.0
C528 C 0.96176 1.00151 0.21985 0.0
C529 C 0.02804 0.97712 0.23621 0.0
C530 C 0.06373 0.99523 0.23076 0.0
C531 C 0.0978 0.97351 0.22549 0.0
C532 C 0.09513 0.93215 0.22513 0.0
C533 C 0.05854 0.91298 0.22958 0.0
C534 C 0.02483 0.93587 0.23576 0.0
H535 H 0.1158 0.98213 0.68402 0.0
H536 H 0.12076 0.08979 0.72974 0.0
H537 H 0.04827 0.0882 0.73455 0.0
H538 H 0.02896 1.00784 0.6479 0.0
H539 H 1.01065 0.95782 0.64764 0.0
H540 H 0.06298 0.96677 0.64901 0.0
H541 H 0.06756 0.9234 0.69151 0.0
H542 H 0.01513 0.91465 0.69045 0.0
H543 H 0.03712 0.93516 0.71957 0.0
H544 H 0.97483 0.0746 0.73425 0.0
H545 H 0.90654 0.05306 0.72618 0.0
H546 H 0.9505 0.95685 0.67833 0.0
C547 C 0.10203 1.00578 0.69482 0.0
C548 C 0.12449 0.03609 0.70654 0.0
C549 C 0.10456 0.06591 0.72085 0.0
C550 C 0.0633 0.06533 0.72365 0.0
C551 C 0.04231 0.03484 0.71195 0.0
C552 C 0.06102 1.00584 0.69764 0.0
C553 C 0.03175 0.97699 0.68625 0.0
C554 C 0.0337 0.97741 0.6559 0.0
C555 C 0.03829 0.93508 0.69763 0.0
C556 C 0.99348 0.99458 0.69611 0.0
C557 C 1.00018 0.02764 0.71117 0.0
C558 C 0.96927 0.04892 0.72231 0.0
C559 C 0.93049 0.03655 0.71744 0.0
C560 C 0.92283 1.00347 0.70129 0.0
C561 C 0.95502 0.982 0.6909 0.0
H562 H 0.99193 0.11111 0.85293 0.0
H563 H 0.11073 0.13022 0.88178 0.0
H564 H 0.1213 0.05784 0.88418 0.0
H565 H 0.96891 0.03087 0.89418 0.0
H566 H 0.94099 1.00419 0.87 0.0
H567 H 0.94425 0.05725 0.86778 0.0
H568 H 0.97157 0.05262 0.82014 0.0
H569 H 0.96808 0.99948 0.82207 0.0
H570 H 0.01451 0.02259 0.81382 0.0
H571 H 0.11639 0.98342 0.88751 0.0
H572 H 0.09822 0.91284 0.88883 0.0
H573 H 0.98213 0.94231 0.85824 0.0
C574 C 0.02034 0.10009 0.85948 0.0
C575 C 0.05051 0.12637 0.86723 0.0
C576 C 0.08737 0.11074 0.87546 0.0
C577 C 0.09354 0.06965 0.87703 0.0
C578 C 0.0627 0.04462 0.87 0.0
C579 C 0.02699 0.05927 0.86104 0.0
C580 C 0.99808 0.02618 0.85564 0.0
C581 C 0.96088 0.02985 0.87294 0.0
C582 C 0.98745 0.02516 0.82617 0.0
C583 C 0.02269 0.99057 0.86371 0.0
C584 C 0.05993 1.00183 0.87179 0.0
C585 C 0.08741 0.97428 0.88106 0.0
C586 C 0.07662 0.93423 0.88201 0.0
C587 C 0.0386 0.92193 0.8738 0.0
C588 C 1.01149 0.95068 0.86441 0.0
H589 H 0.91771 0.98977 0.36619 0.0
H590 H 0.91388 0.1111 0.33753 0.0
H591 H 0.98499 0.10778 0.32674 0.0
H592 H 1.0068 0.99662 0.39837 0.0
H593 H 0.02448 0.94782 0.39061 0.0
H594 H 0.97227 0.95736 0.39203 0.0
H595 H 0.96425 0.93209 0.34423 0.0
H596 H 0.01654 0.92204 0.34293 0.0
H597 H 0.994 0.95333 0.31814 0.0
H598 H 0.05737 0.09424 0.3241 0.0
H599 H 0.12616 0.07205 0.33092 0.0
H600 H 0.08396 0.9594 0.36141 0.0
C601 C 0.93162 0.01522 0.35694 0.0
C602 C 0.91022 0.05071 0.35262 0.0
C603 C 0.92975 0.08376 0.34117 0.0
C604 C 0.97004 0.08201 0.33477 0.0
C605 C 0.99051 0.04693 0.33988 0.0
C606 C 0.97196 0.01403 0.35061 0.0
C607 C 1.00152 0.98132 0.35659 0.0
C608 C 1.00124 0.97016 0.38615 0.0
C609 C 0.99359 0.94506 0.33944 0.0
C610 C 0.03975 1.00157 0.34859 0.0
C611 C 0.0326 0.03914 0.33854 0.0
C612 C 0.06328 0.06471 0.33162 0.0
C613 C 0.10224 0.05196 0.33569 0.0
C614 C 0.11033 0.01402 0.34664 0.0
C615 C 0.07861 0.98821 0.35253 0.0
loop_
_geom_bond_atom_site_label_1
_geom_bond_atom_site_label_2
_geom_bond_distance
_geom_bond_site_symmetry_2
_ccdc_geom_bond_type
Cu0 N1 1.999 . S
Cu0 O6 1.974 . S
Cu0 N11 1.985 . S
Cu0 O20 1.959 . S
N1 Cu0 1.999 . S
N1 C3 1.263 . S
N1 C5 1.389 . S
N2 C3 1.358 . S
N2 C4 1.400 . S
C3 N1 1.263 . S
C3 N2 1.358 . S
C3 H9 0.930 . S
C4 N2 1.400 . S
C4 C5 1.351 . S
C4 H21 0.930 1_455 S
C5 N1 1.389 . S
C5 C4 1.351 . S
C5 H10 0.930 1_455 S
O6 Cu0 1.974 . S
O6 C16 1.282 . S
C7 O8 1.261 . S
C7 O20 1.251 . S
O8 C7 1.261 . S
H9 C3 0.930 . S
H10 C5 0.930 1_655 S
N11 Cu0 1.985 . S
N11 C13 1.335 . S
N11 C14 1.390 . S
N12 C13 1.345 . S
N12 C15 1.336 . S
C13 N11 1.335 . S
C13 N12 1.345 . S
C13 H18 0.930 . S
C14 N11 1.390 . S
C14 C15 1.346 . S
C14 H19 0.930 . S
C15 N12 1.336 . S
C15 C14 1.346 . S
C15 H22 0.929 . S
C16 O6 1.282 . S
C16 O17 1.216 . S
O17 C16 1.216 . S
H18 C13 0.930 . S
H19 C14 0.930 . S
O20 Cu0 1.959 . S
O20 C7 1.251 . S
H21 C4 0.930 1_655 S
H22 C15 0.929 . S
Cu23 N24 1.999 . S
Cu23 O29 1.974 . S
Cu23 N34 1.985 . S
Cu23 O43 1.959 . S
N24 Cu23 1.999 . S
N24 C26 1.263 . S
N24 C28 1.389 . S
N25 C26 1.358 . S
N25 C27 1.400 . S
C26 N24 1.263 . S
C26 N25 1.358 . S
C26 H32 0.930 . S
C27 N25 1.400 . S
C27 C28 1.351 . S
C27 H44 0.930 1_545 S
C28 N24 1.389 . S
C28 C27 1.351 . S
C28 H33 0.930 1_545 S
O29 Cu23 1.974 . S
O29 C39 1.282 . S
C30 O31 1.261 . S
C30 O43 1.251 . S
O31 C30 1.261 . S
H32 C26 0.930 . S
H33 C28 0.930 1_565 S
N34 Cu23 1.985 . S
N34 C36 1.335 . S
N34 C37 1.390 . S
N35 C36 1.345 . S
N35 C38 1.336 . S
C36 N34 1.335 . S
C36 N35 1.345 . S
C36 H41 0.930 . S
C37 N34 1.390 . S
C37 C38 1.346 . S
C37 H42 0.930 . S
C38 N35 1.336 . S
C38 C37 1.346 . S
C38 H45 0.929 . S
C39 O29 1.282 . S
C39 O40 1.216 . S
O40 C39 1.216 . S
H41 C36 0.930 . S
H42 C37 0.930 . S
O43 Cu23 1.959 . S
O43 C30 1.251 . S
H44 C27 0.930 1_565 S
H45 C38 0.929 . S
Cu46 N47 1.999 . S
Cu46 O52 1.974 . S
Cu46 N57 1.985 . S
Cu46 O66 1.959 . S
N47 Cu46 1.999 . S
N47 C49 1.263 . S
N47 C51 1.389 . S
N48 C49 1.358 . S
N48 C50 1.400 . S
C49 N47 1.263 . S
C49 N48 1.358 . S
C49 H55 0.930 . S
C50 N48 1.400 . S
C50 C51 1.351 . S
C50 H67 0.930 1_655 S
C51 N47 1.389 . S
C51 C50 1.351 . S
C51 H56 0.930 1_655 S
O52 Cu46 1.974 . S
O52 C62 1.282 . S
C53 O54 1.261 . S
C53 O66 1.251 . S
O54 C53 1.261 . S
H55 C49 0.930 . S
H56 C51 0.930 1_455 S
N57 Cu46 1.985 . S
N57 C59 1.335 . S
N57 C60 1.390 . S
N58 C59 1.345 . S
N58 C61 1.336 . S
C59 N57 1.335 . S
C59 N58 1.345 . S
C59 H64 0.930 . S
C60 N57 1.390 . S
C60 C61 1.346 . S
C60 H65 0.930 . S
C61 N58 1.336 . S
C61 C60 1.346 . S
C61 H68 0.929 . S
C62 O52 1.282 . S
C62 O63 1.216 . S
O63 C62 1.216 . S
H64 C59 0.930 . S
H65 C60 0.930 . S
O66 Cu46 1.959 . S
O66 C53 1.251 . S
H67 C50 0.930 1_455 S
H68 C61 0.929 . S
Cu69 N70 1.999 . S
Cu69 O75 1.974 . S
Cu69 N80 1.985 . S
Cu69 O89 1.959 . S
N70 Cu69 1.999 . S
N70 C72 1.263 . S
N70 C74 1.389 . S
N71 C72 1.358 . S
N71 C73 1.400 . S
C72 N70 1.263 . S
C72 N71 1.358 . S
C72 H78 0.930 . S
C73 N71 1.400 . S
C73 C74 1.351 . S
C73 H90 0.930 1_565 S
C74 N70 1.389 . S
C74 C73 1.351 . S
C74 H79 0.930 1_565 S
O75 Cu69 1.974 . S
O75 C85 1.282 . S
C76 O77 1.261 . S
C76 O89 1.251 . S
O77 C76 1.261 . S
H78 C72 0.930 . S
H79 C74 0.930 1_545 S
N80 Cu69 1.985 . S
N80 C82 1.335 . S
N80 C83 1.390 . S
N81 C82 1.345 . S
N81 C84 1.336 . S
C82 N80 1.335 . S
C82 N81 1.345 . S
C82 H87 0.930 . S
C83 N80 1.390 . S
C83 C84 1.346 . S
C83 H88 0.930 . S
C84 N81 1.336 . S
C84 C83 1.346 . S
C84 H91 0.929 . S
C85 O75 1.282 . S
C85 O86 1.216 . S
O86 C85 1.216 . S
H87 C82 0.930 . S
H88 C83 0.930 . S
O89 Cu69 1.959 . S
O89 C76 1.251 . S
H90 C73 0.930 1_545 S
H91 C84 0.929 . S
Cu92 N93 1.999 . S
Cu92 O98 1.974 . S
Cu92 N103 1.985 . S
Cu92 O112 1.959 . S
N93 Cu92 1.999 . S
N93 C95 1.263 . S
N93 C97 1.389 . S
N94 C95 1.358 . S
N94 C96 1.400 . S
C95 N93 1.263 . S
C95 N94 1.358 . S
C95 H101 0.930 . S
C96 N94 1.400 . S
C96 C97 1.351 . S
C96 H113 0.930 1_455 S
C97 N93 1.389 . S
C97 C96 1.351 . S
C97 H102 0.930 1_455 S
O98 Cu92 1.974 . S
O98 C108 1.282 . S
C99 O100 1.261 . S
C99 O112 1.251 . S
O100 C99 1.261 . S
H101 C95 0.930 . S
H102 C97 0.930 1_655 S
N103 Cu92 1.985 . S
N103 C105 1.335 . S
N103 C106 1.390 . S
N104 C105 1.345 . S
N104 C107 1.336 . S
C105 N103 1.335 . S
C105 N104 1.345 . S
C105 H110 0.930 . S
C106 N103 1.390 . S
C106 C107 1.346 . S
C106 H111 0.930 . S
C107 N104 1.336 . S
C107 C106 1.346 . S
C107 H114 0.929 . S
C108 O98 1.282 . S
C108 O109 1.216 . S
O109 C108 1.216 . S
H110 C105 0.930 . S
H111 C106 0.930 . S
O112 Cu92 1.959 . S
O112 C99 1.251 . S
H113 C96 0.930 1_655 S
H114 C107 0.929 . S
Cu115 N116 1.999 . S
Cu115 O121 1.974 . S
Cu115 N126 1.985 . S
Cu115 O135 1.959 . S
N116 Cu115 1.999 . S
N116 C118 1.263 . S
N116 C120 1.389 . S
N117 C118 1.358 . S
N117 C119 1.400 . S
C118 N116 1.263 . S
C118 N117 1.358 . S
C118 H124 0.930 . S
C119 N117 1.400 . S
C119 C120 1.351 . S
C119 H136 0.930 1_545 S
C120 N116 1.389 . S
C120 C119 1.351 . S
C120 H125 0.930 1_545 S
O121 Cu115 1.974 . S
O121 C131 1.282 . S
C122 O123 1.261 . S
C122 O135 1.251 . S
O123 C122 1.261 . S
H124 C118 0.930 . S
H125 C120 0.930 1_565 S
N126 Cu115 1.985 . S
N126 C128 1.335 . S
N126 C129 1.390 . S
N127 C128 1.345 . S
N127 C130 1.336 . S
C128 N126 1.335 . S
C128 N127 1.345 . S
C128 H133 0.930 . S
C129 N126 1.390 . S
C129 C130 1.346 . S
C129 H134 0.930 . S
C130 N127 1.336 . S
C130 C129 1.346 . S
C130 H137 0.929 . S
C131 O121 1.282 . S
C131 O132 1.216 . S
O132 C131 1.216 . S
H133 C128 0.930 . S
H134 C129 0.930 . S
O135 Cu115 1.959 . S
O135 C122 1.251 . S
H136 C119 0.930 1_565 S
H137 C130 0.929 . S
Cu138 N139 1.999 . S
Cu138 O144 1.974 . S
Cu138 N149 1.985 . S
Cu138 O158 1.959 . S
N139 Cu138 1.999 . S
N139 C141 1.263 . S
N139 C143 1.389 . S
N140 C141 1.358 . S
N140 C142 1.400 . S
C141 N139 1.263 . S
C141 N140 1.358 . S
C141 H147 0.930 . S
C142 N140 1.400 . S
C142 C143 1.351 . S
C142 H159 0.930 1_655 S
C143 N139 1.389 . S
C143 C142 1.351 . S
C143 H148 0.930 1_655 S
O144 Cu138 1.974 . S
O144 C154 1.282 . S
C145 O146 1.261 . S
C145 O158 1.251 . S
O146 C145 1.261 . S
H147 C141 0.930 . S
H148 C143 0.930 1_455 S
N149 Cu138 1.985 . S
N149 C151 1.335 . S
N149 C152 1.390 . S
N150 C151 1.345 . S
N150 C153 1.336 . S
C151 N149 1.335 . S
C151 N150 1.345 . S
C151 H156 0.930 . S
C152 N149 1.390 . S
C152 C153 1.346 . S
C152 H157 0.930 . S
C153 N150 1.336 . S
C153 C152 1.346 . S
C153 H160 0.929 . S
C154 O144 1.282 . S
C154 O155 1.216 . S
O155 C154 1.216 . S
H156 C151 0.930 . S
H157 C152 0.930 . S
O158 Cu138 1.959 . S
O158 C145 1.251 . S
H159 C142 0.930 1_455 S
H160 C153 0.929 . S
Cu161 N162 1.999 . S
Cu161 O167 1.974 . S
Cu161 N172 1.985 . S
Cu161 O181 1.959 . S
N162 Cu161 1.999 . S
N162 C164 1.263 . S
N162 C166 1.389 . S
N163 C164 1.358 . S
N163 C165 1.400 . S
C164 N162 1.263 . S
C164 N163 1.358 . S
C164 H170 0.930 . S
C165 N163 1.400 . S
C165 C166 1.351 . S
C165 H182 0.930 1_565 S
C166 N162 1.389 . S
C166 C165 1.351 . S
C166 H171 0.930 1_565 S
O167 Cu161 1.974 . S
O167 C177 1.282 . S
C168 O169 1.261 . S
C168 O181 1.251 . S
O169 C168 1.261 . S
H170 C164 0.930 . S
H171 C166 0.930 1_545 S
N172 Cu161 1.985 . S
N172 C174 1.335 . S
N172 C175 1.390 . S
N173 C174 1.345 . S
N173 C176 1.336 . S
C174 N172 1.335 . S
C174 N173 1.345 . S
C174 H179 0.930 . S
C175 N172 1.390 . S
C175 C176 1.346 . S
C175 H180 0.930 . S
C176 N173 1.336 . S
C176 C175 1.346 . S
C176 H183 0.929 . S
C177 O167 1.282 . S
C177 O178 1.216 . S
O178 C177 1.216 . S
H179 C174 0.930 . S
H180 C175 0.930 . S
O181 Cu161 1.959 . S
O181 C168 1.251 . S
H182 C165 0.930 1_545 S
H183 C176 0.929 . S
H184 C196 0.930 . S
H185 C198 0.930 . S
H186 C199 0.930 . S
H187 C203 0.959 . S
H188 C203 0.959 . S
H189 C203 0.961 . S
H190 C204 0.960 . S
H191 C204 0.961 . S
H192 C204 0.959 . S
H193 C207 0.929 1_455 S
H194 C208 0.931 . S
H195 C210 0.930 . S
C196 H184 0.930 . S
C196 C197 1.399 . S
C196 C201 1.399 . S
C197 C196 1.399 . S
C197 C198 1.376 . S
C198 H185 0.930 . S
C198 C197 1.376 . S
C198 C199 1.388 . S
C199 H186 0.930 . S
C199 C198 1.388 . S
C199 C200 1.390 . S
C200 C199 1.390 . S
C200 C201 1.394 . S
C200 C206 1.465 1_455 S
C201 C196 1.399 . S
C201 C200 1.394 . S
C201 C202 1.516 1_455 S
C202 C201 1.516 1_655 S
C202 C203 1.502 . S
C202 C204 1.561 1_655 S
C202 C205 1.526 . S
C203 H187 0.959 . S
C203 H188 0.959 . S
C203 H189 0.961 . S
C203 C202 1.502 . S
C204 H190 0.960 . S
C204 H191 0.961 . S
C204 H192 0.959 . S
C204 C202 1.561 1_455 S
C205 C202 1.526 . S
C205 C206 1.396 . S
C205 C210 1.390 . S
C206 C200 1.465 1_655 S
C206 C205 1.396 . S
C206 C207 1.399 . S
C207 H193 0.929 1_655 S
C207 C206 1.399 . S
C207 C208 1.385 . S
C208 H194 0.931 . S
C208 C207 1.385 . S
C208 C209 1.389 . S
C209 C208 1.389 . S
C209 C210 1.387 . S
C210 H195 0.930 . S
C210 C205 1.390 . S
C210 C209 1.387 . S
H211 C223 0.930 . S
H212 C225 0.930 . S
H213 C226 0.930 . S
H214 C230 0.959 . S
H215 C230 0.959 . S
H216 C230 0.961 . S
H217 C231 0.960 1_565 S
H218 C231 0.961 . S
H219 C231 0.959 . S
H220 C234 0.929 . S
H221 C235 0.931 . S
H222 C237 0.930 . S
C223 H211 0.930 . S
C223 C224 1.399 . S
C223 C228 1.399 . S
C224 C223 1.399 . S
C224 C225 1.376 . S
C225 H212 0.930 . S
C225 C224 1.376 . S
C225 C226 1.388 1_565 S
C226 H213 0.930 . S
C226 C225 1.388 1_545 S
C226 C227 1.390 . S
C227 C226 1.390 . S
C227 C228 1.394 1_545 S
C227 C233 1.465 . S
C228 C223 1.399 . S
C228 C227 1.394 1_565 S
C228 C229 1.516 . S
C229 C228 1.516 . S
C229 C230 1.502 . S
C229 C231 1.561 1_565 S
C229 C232 1.526 1_565 S
C230 H214 0.959 . S
C230 H215 0.959 . S
C230 H216 0.961 . S
C230 C229 1.502 . S
C231 H217 0.960 1_545 S
C231 H218 0.961 . S
C231 H219 0.959 . S
C231 C229 1.561 1_545 S
C232 C229 1.526 1_545 S
C232 C233 1.396 . S
C232 C237 1.390 . S
C233 C227 1.465 . S
C233 C232 1.396 . S
C233 C234 1.399 . S
C234 H220 0.929 . S
C234 C233 1.399 . S
C234 C235 1.385 . S
C235 H221 0.931 . S
C235 C234 1.385 . S
C235 C236 1.389 . S
C236 C235 1.389 . S
C236 C237 1.387 . S
C237 H222 0.930 . S
C237 C232 1.390 . S
C237 C236 1.387 . S
H238 C250 0.930 . S
H239 C252 0.930 . S
H240 C253 0.930 . S
H241 C257 0.959 . S
H242 C257 0.959 1_455 S
H243 C257 0.961 . S
H244 C258 0.960 . S
H245 C258 0.961 . S
H246 C258 0.959 . S
H247 C261 0.929 . S
H248 C262 0.931 . S
H249 C264 0.930 . S
C250 H238 0.930 . S
C250 C251 1.399 . S
C250 C255 1.399 . S
C251 C250 1.399 . S
C251 C252 1.376 . S
C252 H239 0.930 . S
C252 C251 1.376 . S
C252 C253 1.388 . S
C253 H240 0.930 . S
C253 C252 1.388 . S
C253 C254 1.390 . S
C254 C253 1.390 . S
C254 C255 1.394 . S
C254 C260 1.465 1_655 S
C255 C250 1.399 . S
C255 C254 1.394 . S
C255 C256 1.516 1_655 S
C256 C255 1.516 1_455 S
C256 C257 1.502 1_455 S
C256 C258 1.561 . S
C256 C259 1.526 . S
C257 H241 0.959 . S
C257 H242 0.959 1_655 S
C257 H243 0.961 . S
C257 C256 1.502 1_655 S
C258 H244 0.960 . S
C258 H245 0.961 . S
C258 H246 0.959 . S
C258 C256 1.561 . S
C259 C256 1.526 . S
C259 C260 1.396 . S
C259 C264 1.390 . S
C260 C254 1.465 1_455 S
C260 C259 1.396 . S
C260 C261 1.399 . S
C261 H247 0.929 . S
C261 C260 1.399 . S
C261 C262 1.385 . S
C262 H248 0.931 . S
C262 C261 1.385 . S
C262 C263 1.389 . S
C263 C262 1.389 . S
C263 C264 1.387 . S
C264 H249 0.930 . S
C264 C259 1.390 . S
C264 C263 1.387 . S
H265 C277 0.930 . S
H266 C279 0.930 . S
H267 C280 0.930 1_565 S
H268 C284 0.959 . S
H269 C284 0.959 . S
H270 C284 0.961 . S
H271 C285 0.960 . S
H272 C285 0.961 . S
H273 C285 0.959 . S
H274 C288 0.929 . S
H275 C289 0.931 . S
H276 C291 0.930 . S
C277 H265 0.930 . S
C277 C278 1.399 . S
C277 C282 1.399 . S
C278 C277 1.399 . S
C278 C279 1.376 . S
C279 H266 0.930 . S
C279 C278 1.376 . S
C279 C280 1.388 . S
C280 H267 0.930 1_545 S
C280 C279 1.388 . S
C280 C281 1.390 . S
C281 C280 1.390 . S
C281 C282 1.394 . S
C281 C287 1.465 1_545 S
C282 C277 1.399 . S
C282 C281 1.394 . S
C282 C283 1.516 . S
C283 C282 1.516 . S
C283 C284 1.502 . S
C283 C285 1.561 1_545 S
C283 C286 1.526 1_545 S
C284 H268 0.959 . S
C284 H269 0.959 . S
C284 H270 0.961 . S
C284 C283 1.502 . S
C285 H271 0.960 . S
C285 H272 0.961 . S
C285 H273 0.959 . S
C285 C283 1.561 1_565 S
C286 C283 1.526 1_565 S
C286 C287 1.396 . S
C286 C291 1.390 . S
C287 C281 1.465 1_565 S
C287 C286 1.396 . S
C287 C288 1.399 . S
C288 H274 0.929 . S
C288 C287 1.399 . S
C288 C289 1.385 . S
C289 H275 0.931 . S
C289 C288 1.385 . S
C289 C290 1.389 . S
C290 C289 1.389 . S
C290 C291 1.387 . S
C291 H276 0.930 . S
C291 C286 1.390 . S
C291 C290 1.387 . S
H292 C304 0.930 . S
H293 C306 0.930 . S
H294 C307 0.930 . S
H295 C311 0.959 . S
H296 C311 0.959 1_554 S
H297 C311 0.961 . S
H298 C312 0.960 1_556 S
H299 C312 0.961 . S
H300 C312 0.959 . S
H301 C315 0.929 . S
H302 C316 0.931 . S
H303 C318 0.930 . S
C304 H292 0.930 . S
C304 C305 1.399 . S
C304 C309 1.399 . S
C305 C304 1.399 . S
C305 C306 1.376 . S
C306 H293 0.930 . S
C306 C305 1.376 . S
C306 C307 1.388 . S
C307 H294 0.930 . S
C307 C306 1.388 . S
C307 C308 1.390 . S
C308 C307 1.390 . S
C308 C309 1.394 . S
C308 C314 1.465 1_556 S
C309 C304 1.399 . S
C309 C308 1.394 . S
C309 C310 1.516 1_655 S
C310 C309 1.516 1_455 S
C310 C311 1.502 . S
C310 C312 1.561 1_456 S
C310 C313 1.526 1_556 S
C311 H295 0.959 . S
C311 H296 0.959 1_556 S
C311 H297 0.961 . S
C311 C310 1.502 . S
C312 H298 0.960 1_554 S
C312 H299 0.961 . S
C312 H300 0.959 . S
C312 C310 1.561 1_654 S
C313 C310 1.526 1_554 S
C313 C314 1.396 1_455 S
C313 C318 1.390 . S
C314 C308 1.465 1_554 S
C314 C313 1.396 1_655 S
C314 C315 1.399 . S
C315 H301 0.929 . S
C315 C314 1.399 . S
C315 C316 1.385 1_655 S
C316 H302 0.931 . S
C316 C315 1.385 1_455 S
C316 C317 1.389 . S
C317 C316 1.389 . S
C317 C318 1.387 . S
C318 H303 0.930 . S
C318 C313 1.390 . S
C318 C317 1.387 . S
H319 C331 0.930 . S
H320 C333 0.930 . S
H321 C334 0.930 . S
H322 C338 0.959 . S
H323 C338 0.959 . S
H324 C338 0.961 . S
H325 C339 0.960 . S
H326 C339 0.961 . S
H327 C339 0.959 . S
H328 C342 0.929 . S
H329 C343 0.931 . S
H330 C345 0.954 . S
C331 H319 0.930 . S
C331 C332 1.399 . S
C331 C336 1.399 . S
C332 C331 1.399 . S
C332 C333 1.376 1_545 S
C333 H320 0.930 . S
C333 C332 1.376 1_565 S
C333 C334 1.388 . S
C334 H321 0.930 . S
C334 C333 1.388 . S
C334 C335 1.390 . S
C335 C334 1.390 . S
C335 C336 1.394 1_565 S
C335 C341 1.465 . S
C336 C331 1.399 . S
C336 C335 1.394 1_545 S
C336 C337 1.516 . S
C337 C336 1.516 . S
C337 C338 1.502 . S
C337 C339 1.561 . S
C337 C340 1.526 . S
C338 H322 0.959 . S
C338 H323 0.959 . S
C338 H324 0.961 . S
C338 C337 1.502 . S
C339 H325 0.960 . S
C339 H326 0.961 . S
C339 H327 0.959 . S
C339 C337 1.561 . S
C340 C337 1.526 . S
C340 C341 1.396 1_545 S
C340 C345 1.393 . S
C341 C335 1.465 . S
C341 C340 1.396 1_565 S
C341 C342 1.399 . S
C342 H328 0.929 . S
C342 C341 1.399 . S
C342 C343 1.385 . S
C343 H329 0.931 . S
C343 C342 1.385 . S
C343 C344 1.389 . S
C344 C343 1.389 . S
C344 C345 1.359 1_565 S
C345 H330 0.954 . S
C345 C340 1.393 . S
C345 C344 1.359 1_545 S
H346 C358 0.930 . S
H347 C360 0.930 . S
H348 C361 0.930 . S
H349 C365 0.959 . S
H350 C365 0.959 1_556 S
H351 C365 0.961 . S
H352 C366 0.960 1_554 S
H353 C366 0.961 . S
H354 C366 0.959 . S
H355 C369 0.926 1_655 S
H356 C370 0.931 . S
H357 C372 0.930 . S
C358 H346 0.930 . S
C358 C359 1.399 . S
C358 C363 1.399 . S
C359 C358 1.399 . S
C359 C360 1.376 . S
C360 H347 0.930 . S
C360 C359 1.376 . S
C360 C361 1.388 . S
C361 H348 0.930 . S
C361 C360 1.388 . S
C361 C362 1.390 . S
C362 C361 1.390 . S
C362 C363 1.394 . S
C362 C368 1.465 1_554 S
C363 C358 1.399 . S
C363 C362 1.394 . S
C363 C364 1.516 1_655 S
C364 C363 1.516 1_455 S
C364 C365 1.502 . S
C364 C366 1.561 1_454 S
C364 C367 1.526 1_554 S
C365 H349 0.959 . S
C365 H350 0.959 1_554 S
C365 H351 0.961 . S
C365 C364 1.502 . S
C366 H352 0.960 1_556 S
C366 H353 0.961 . S
C366 H354 0.959 . S
C366 C364 1.561 1_656 S
C367 C364 1.526 1_556 S
C367 C368 1.396 1_455 S
C367 C372 1.390 . S
C368 C362 1.465 1_556 S
C368 C367 1.396 1_655 S
C368 C369 1.398 1_655 S
C369 H355 0.926 1_455 S
C369 C368 1.398 1_455 S
C369 C370 1.389 . S
C370 H356 0.931 . S
C370 C369 1.389 . S
C370 C371 1.389 . S
C371 C370 1.389 . S
C371 C372 1.387 . S
C372 H357 0.930 . S
C372 C367 1.390 . S
C372 C371 1.387 . S
H373 C385 0.930 . S
H374 C387 0.930 . S
H375 C388 0.930 . S
H376 C392 0.959 . S
H377 C392 0.959 . S
H378 C392 0.961 . S
H379 C393 0.960 . S
H380 C393 0.961 . S
H381 C393 0.959 . S
H382 C396 0.929 . S
H383 C397 0.931 . S
H384 C399 0.930 . S
C385 H373 0.930 . S
C385 C386 1.399 . S
C385 C390 1.399 . S
C386 C385 1.399 . S
C386 C387 1.376 1_545 S
C387 H374 0.930 . S
C387 C386 1.376 1_565 S
C387 C388 1.388 . S
C388 H375 0.930 . S
C388 C387 1.388 . S
C388 C389 1.390 . S
C389 C388 1.390 . S
C389 C390 1.394 1_565 S
C389 C395 1.465 . S
C390 C385 1.399 . S
C390 C389 1.394 1_545 S
C390 C391 1.516 . S
C391 C390 1.516 . S
C391 C392 1.502 . S
C391 C393 1.561 . S
C391 C394 1.526 . S
C392 H376 0.959 . S
C392 H377 0.959 . S
C392 H378 0.961 . S
C392 C391 1.502 . S
C393 H379 0.960 . S
C393 H380 0.961 . S
C393 H381 0.959 . S
C393 C391 1.561 . S
C394 C391 1.526 . S
C394 C395 1.396 1_545 S
C394 C399 1.390 . S
C395 C389 1.465 . S
C395 C394 1.396 1_565 S
C395 C396 1.399 . S
C396 H382 0.929 . S
C396 C395 1.399 . S
C396 C397 1.385 . S
C397 H383 0.931 . S
C397 C396 1.385 . S
C397 C398 1.389 . S
C398 C397 1.389 . S
C398 C399 1.387 1_565 S
C399 H384 0.930 . S
C399 C394 1.390 . S
C399 C398 1.387 1_545 S
H400 C412 0.930 . S
H401 C414 0.930 . S
H402 C415 0.930 . S
H403 C419 0.959 . S
H404 C419 0.959 . S
H405 C419 0.961 . S
H406 C420 0.960 . S
H407 C420 0.961 . S
H408 C420 0.959 . S
H409 C423 0.929 . S
H410 C424 0.931 . S
H411 C426 0.930 . S
C412 H400 0.930 . S
C412 C413 1.399 . S
C412 C417 1.399 . S
C413 C412 1.399 . S
C413 C414 1.376 . S
C414 H401 0.930 . S
C414 C413 1.376 . S
C414 C415 1.388 . S
C415 H402 0.930 . S
C415 C414 1.388 . S
C415 C416 1.390 . S
C416 C415 1.390 . S
C416 C417 1.394 . S
C416 C422 1.465 . S
C417 C412 1.399 . S
C417 C416 1.394 . S
C417 C418 1.516 . S
C418 C417 1.516 . S
C418 C419 1.502 . S
C418 C420 1.561 . S
C418 C421 1.526 . S
C419 H403 0.959 . S
C419 H404 0.959 . S
C419 H405 0.961 . S
C419 C418 1.502 . S
C420 H406 0.960 . S
C420 H407 0.961 . S
C420 H408 0.959 . S
C420 C418 1.561 . S
C421 C418 1.526 . S
C421 C422 1.396 . S
C421 C426 1.390 . S
C422 C416 1.465 . S
C422 C421 1.396 . S
C422 C423 1.399 . S
C423 H409 0.929 . S
C423 C422 1.399 . S
C423 C424 1.385 . S
C424 H410 0.931 . S
C424 C423 1.385 . S
C424 C425 1.389 . S
C425 C424 1.389 . S
C425 C426 1.387 . S
C426 H411 0.930 . S
C426 C421 1.390 . S
C426 C425 1.387 . S
H427 C439 0.930 . S
H428 C441 0.930 . S
H429 C442 0.930 . S
H430 C446 0.959 . S
H431 C446 0.959 . S
H432 C446 0.961 . S
H433 C447 0.960 . S
H434 C447 0.961 . S
H435 C447 0.959 . S
H436 C450 0.929 . S
H437 C451 0.931 . S
H438 C453 0.930 . S
C439 H427 0.930 . S
C439 C440 1.399 . S
C439 C444 1.399 . S
C440 C439 1.399 . S
C440 C441 1.376 . S
C441 H428 0.930 . S
C441 C440 1.376 . S
C441 C442 1.388 . S
C442 H429 0.930 . S
C442 C441 1.388 . S
C442 C443 1.390 . S
C443 C442 1.390 . S
C443 C444 1.394 . S
C443 C449 1.465 . S
C444 C439 1.399 . S
C444 C443 1.394 . S
C444 C445 1.516 . S
C445 C444 1.516 . S
C445 C446 1.502 . S
C445 C447 1.561 . S
C445 C448 1.526 . S
C446 H430 0.959 . S
C446 H431 0.959 . S
C446 H432 0.961 . S
C446 C445 1.502 . S
C447 H433 0.960 . S
C447 H434 0.961 . S
C447 H435 0.959 . S
C447 C445 1.561 . S
C448 C445 1.526 . S
C448 C449 1.396 . S
C448 C453 1.390 . S
C449 C443 1.465 . S
C449 C448 1.396 . S
C449 C450 1.399 . S
C450 H436 0.929 . S
C450 C449 1.399 . S
C450 C451 1.385 . S
C451 H437 0.931 . S
C451 C450 1.385 . S
C451 C452 1.389 . S
C452 C451 1.389 . S
C452 C453 1.387 . S
C453 H438 0.930 . S
C453 C448 1.390 . S
C453 C452 1.387 . S
H454 C466 0.930 . S
H455 C468 0.930 . S
H456 C469 0.930 . S
H457 C473 0.959 . S
H458 C473 0.959 . S
H459 C473 0.961 . S
H460 C474 0.960 . S
H461 C474 0.961 . S
H462 C474 0.959 . S
H463 C477 0.929 . S
H464 C478 0.931 . S
H465 C480 0.930 . S
C466 H454 0.930 . S
C466 C467 1.399 . S
C466 C471 1.399 . S
C467 C466 1.399 . S
C467 C468 1.376 . S
C468 H455 0.930 . S
C468 C467 1.376 . S
C468 C469 1.388 . S
C469 H456 0.930 . S
C469 C468 1.388 . S
C469 C470 1.390 . S
C470 C469 1.390 . S
C470 C471 1.394 . S
C470 C476 1.465 . S
C471 C466 1.399 . S
C471 C470 1.394 . S
C471 C472 1.516 . S
C472 C471 1.516 . S
C472 C473 1.502 . S
C472 C474 1.561 . S
C472 C475 1.526 . S
C473 H457 0.959 . S
C473 H458 0.959 . S
C473 H459 0.961 . S
C473 C472 1.502 . S
C474 H460 0.960 . S
C474 H461 0.961 . S
C474 H462 0.959 . S
C474 C472 1.561 . S
C475 C472 1.526 . S
C475 C476 1.396 . S
C475 C480 1.390 . S
C476 C470 1.465 . S
C476 C475 1.396 . S
C476 C477 1.399 . S
C477 H463 0.929 . S
C477 C476 1.399 . S
C477 C478 1.385 . S
C478 H464 0.931 . S
C478 C477 1.385 . S
C478 C479 1.389 . S
C479 C478 1.389 . S
C479 C480 1.387 . S
C480 H465 0.930 . S
C480 C475 1.390 . S
C480 C479 1.387 . S
H481 C493 0.930 . S
H482 C495 0.930 . S
H483 C496 0.930 . S
H484 C500 0.959 . S
H485 C500 0.959 . S
H486 C500 0.961 . S
H487 C501 0.960 . S
H488 C501 0.961 . S
H489 C501 0.959 . S
H490 C504 0.929 . S
H491 C505 0.931 . S
H492 C507 0.930 . S
C493 H481 0.930 . S
C493 C494 1.399 . S
C493 C498 1.399 . S
C494 C493 1.399 . S
C494 C495 1.376 . S
C495 H482 0.930 . S
C495 C494 1.376 . S
C495 C496 1.388 . S
C496 H483 0.930 . S
C496 C495 1.388 . S
C496 C497 1.390 . S
C497 C496 1.390 . S
C497 C498 1.394 . S
C497 C503 1.465 . S
C498 C493 1.399 . S
C498 C497 1.394 . S
C498 C499 1.516 . S
C499 C498 1.516 . S
C499 C500 1.502 . S
C499 C501 1.561 . S
C499 C502 1.526 . S
C500 H484 0.959 . S
C500 H485 0.959 . S
C500 H486 0.961 . S
C500 C499 1.502 . S
C501 H487 0.960 . S
C501 H488 0.961 . S
C501 H489 0.959 . S
C501 C499 1.561 . S
C502 C499 1.526 . S
C502 C503 1.396 . S
C502 C507 1.390 . S
C503 C497 1.465 . S
C503 C502 1.396 . S
C503 C504 1.399 . S
C504 H490 0.929 . S
C504 C503 1.399 . S
C504 C505 1.385 . S
C505 H491 0.931 . S
C505 C504 1.385 . S
C505 C506 1.389 . S
C506 C505 1.389 . S
C506 C507 1.387 . S
C507 H492 0.930 . S
C507 C502 1.390 . S
C507 C506 1.387 . S
H508 C520 0.930 . S
H509 C522 0.930 . S
H510 C523 0.930 . S
H511 C527 0.959 . S
H512 C527 0.959 . S
H513 C527 0.961 1_545 S
H514 C528 0.960 . S
H515 C528 0.961 1_565 S
H516 C528 0.959 . S
H517 C531 0.929 . S
H518 C532 0.931 . S
H519 C534 0.930 . S
C520 H508 0.930 . S
C520 C521 1.399 . S
C520 C525 1.399 . S
C521 C520 1.399 . S
C521 C522 1.376 . S
C522 H509 0.930 . S
C522 C521 1.376 . S
C522 C523 1.388 . S
C523 H510 0.930 . S
C523 C522 1.388 . S
C523 C524 1.390 . S
C524 C523 1.390 . S
C524 C525 1.394 . S
C524 C530 1.465 1_445 S
C525 C520 1.399 . S
C525 C524 1.394 . S
C525 C526 1.512 1_455 S
C526 C525 1.512 1_655 S
C526 C527 1.478 1_645 S
C526 C528 1.587 . S
C526 C529 1.531 1_545 S
C527 H511 0.959 . S
C527 H512 0.959 . S
C527 H513 0.961 1_565 S
C527 C526 1.478 1_465 S
C528 H514 0.960 . S
C528 H515 0.961 1_545 S
C528 H516 0.959 . S
C528 C526 1.587 . S
C529 C526 1.531 1_565 S
C529 C530 1.396 . S
C529 C534 1.390 . S
C530 C524 1.465 1_665 S
C530 C529 1.396 . S
C530 C531 1.399 . S
C531 H517 0.929 . S
C531 C530 1.399 . S
C531 C532 1.385 . S
C532 H518 0.931 . S
C532 C531 1.385 . S
C532 C533 1.389 . S
C533 C532 1.389 . S
C533 C534 1.387 . S
C534 H519 0.930 . S
C534 C529 1.390 . S
C534 C533 1.387 . S
H535 C547 0.930 . S
H536 C549 0.930 . S
H537 C550 0.930 1_545 S
H538 C554 0.959 . S
H539 C554 0.959 . S
H540 C554 0.961 . S
H541 C555 0.960 . S
H542 C555 0.961 1_655 S
H543 C555 0.959 . S
H544 C558 0.929 . S
H545 C559 0.931 . S
H546 C561 0.930 . S
C547 H535 0.930 . S
C547 C548 1.399 . S
C547 C552 1.399 . S
C548 C547 1.399 . S
C548 C549 1.376 . S
C549 H536 0.930 . S
C549 C548 1.376 . S
C549 C550 1.388 . S
C550 H537 0.930 1_565 S
C550 C549 1.388 . S
C550 C551 1.390 1_565 S
C551 C550 1.390 1_545 S
C551 C552 1.394 1_545 S
C551 C557 1.465 1_455 S
C552 C547 1.399 . S
C552 C551 1.394 1_565 S
C552 C553 1.516 1_455 S
C553 C552 1.516 1_655 S
C553 C554 1.502 . S
C553 C555 1.561 1_665 S
C553 C556 1.526 1_565 S
C554 H538 0.959 . S
C554 H539 0.959 . S
C554 H540 0.961 . S
C554 C553 1.502 . S
C555 H541 0.960 . S
C555 H542 0.961 1_455 S
C555 H543 0.959 . S
C555 C553 1.561 1_445 S
C556 C553 1.526 1_545 S
C556 C557 1.396 . S
C556 C561 1.390 . S
C557 C551 1.465 1_655 S
C557 C556 1.396 . S
C557 C558 1.399 . S
C558 H544 0.929 . S
C558 C557 1.399 . S
C558 C559 1.385 . S
C559 H545 0.931 . S
C559 C558 1.385 . S
C559 C560 1.389 . S
C560 C559 1.389 . S
C560 C561 1.387 . S
C561 H546 0.930 . S
C561 C556 1.390 . S
C561 C560 1.387 . S
H562 C574 0.930 . S
H563 C576 0.930 . S
H564 C577 0.930 . S
H565 C581 0.959 . S
H566 C581 0.959 . S
H567 C581 0.961 . S
H568 C582 0.960 1_655 S
H569 C582 0.961 1_565 S
H570 C582 0.959 . S
H571 C585 0.929 . S
H572 C586 0.931 . S
H573 C588 0.930 . S
C574 H562 0.930 . S
C574 C575 1.399 . S
C574 C579 1.399 . S
C575 C574 1.399 . S
C575 C576 1.376 . S
C576 H563 0.930 . S
C576 C575 1.376 . S
C576 C577 1.388 1_655 S
C577 H564 0.930 . S
C577 C576 1.388 1_455 S
C577 C578 1.390 . S
C578 C577 1.390 . S
C578 C579 1.394 1_455 S
C578 C584 1.465 1_545 S
C579 C574 1.399 . S
C579 C578 1.394 1_655 S
C579 C580 1.516 1_545 S
C580 C579 1.516 1_565 S
C580 C581 1.502 . S
C580 C582 1.561 1_665 S
C580 C583 1.526 1_655 S
C581 H565 0.959 . S
C581 H566 0.959 . S
C581 H567 0.961 . S
C581 C580 1.502 . S
C582 H568 0.960 1_455 S
C582 H569 0.961 1_545 S
C582 H570 0.959 . S
C582 C580 1.561 1_445 S
C583 C580 1.526 1_455 S
C583 C584 1.396 . S
C583 C588 1.390 . S
C584 C578 1.465 1_565 S
C584 C583 1.396 . S
C584 C585 1.399 . S
C585 H571 0.929 . S
C585 C584 1.399 . S
C585 C586 1.385 . S
C586 H572 0.931 . S
C586 C585 1.385 . S
C586 C587 1.389 . S
C587 C586 1.389 . S
C587 C588 1.387 . S
C588 H573 0.930 . S
C588 C583 1.390 . S
C588 C587 1.387 . S
H589 C601 0.930 . S
H590 C603 0.930 1_545 S
H591 C604 0.930 . S
H592 C608 0.959 . S
H593 C608 0.959 . S
H594 C608 0.961 . S
H595 C609 0.960 . S
H596 C609 0.961 . S
H597 C609 0.959 . S
H598 C612 0.929 . S
H599 C613 0.931 . S
H600 C615 0.930 1_565 S
C601 H589 0.930 . S
C601 C602 1.399 . S
C601 C606 1.399 . S
C602 C601 1.399 . S
C602 C603 1.376 . S
C603 H590 0.930 1_565 S
C603 C602 1.376 . S
C603 C604 1.388 1_565 S
C604 H591 0.930 . S
C604 C603 1.388 1_545 S
C604 C605 1.390 . S
C605 C604 1.390 . S
C605 C606 1.394 1_545 S
C605 C611 1.465 1_655 S
C606 C601 1.399 . S
C606 C605 1.394 1_565 S
C606 C607 1.516 1_655 S
C607 C606 1.516 1_455 S
C607 C608 1.502 . S
C607 C609 1.561 . S
C607 C610 1.526 . S
C608 H592 0.959 . S
C608 H593 0.959 . S
C608 H594 0.961 . S
C608 C607 1.502 . S
C609 H595 0.960 . S
C609 H596 0.961 . S
C609 H597 0.959 . S
C609 C607 1.561 . S
C610 C607 1.526 . S
C610 C611 1.396 1_565 S
C610 C615 1.390 1_565 S
C611 C605 1.465 1_455 S
C611 C610 1.396 1_545 S
C611 C612 1.399 . S
C612 H598 0.929 . S
C612 C611 1.399 . S
C612 C613 1.385 . S
C613 H599 0.931 . S
C613 C612 1.385 . S
C613 C614 1.389 . S
C614 C613 1.389 . S
C614 C615 1.387 . S
C615 H600 0.930 1_545 S
C615 C610 1.390 1_545 S
C615 C614 1.387 . S
C197 N12 1.726 . S
C209 N58 1.720 . S
C224 N81 1.683 . S
C236 N35 1.693 . S
C251 N150 1.679 . S
C263 N104 1.681 . S
C278 N127 1.679 . S
C290 N173 1.686 . S
C305 C145 1.630 . S
C317 C7 1.630 . S
C332 C30 1.646 . S
C344 C168 1.647 . S
C359 C53 1.629 . S
C371 C99 1.629 . S
C386 C122 1.634 . S
C398 C76 1.636 . S
C413 C16 1.671 . S
C425 C131 1.631 . S
C440 C154 1.672 . S
C452 C39 1.657 . S
C467 C177 1.632 . S
C479 C62 1.673 . S
C494 C85 1.673 . S
C506 C108 1.632 . S
C521 N2 1.313 . S
C533 N48 1.355 . S
C548 N71 1.303 . S
C560 N25 1.370 . S
C575 N140 1.300 . S
C587 N94 1.377 . S
C602 N163 1.334 . S
C614 N117 1.412 . S
