# Generated by pormake.
# Topology ums, (4)-cn, num edge types: 1
# Building blocks:
#     Node 0, Type 0, BuildingBlock: QUQFOY_clean_sbu_3, # of connection points: 4
#     Node 1, Type 0, BuildingBlock: QUQFOY_clean_sbu_3, # of connection points: 4
#     Node 2, Type 0, BuildingBlock: QUQFOY_clean_sbu_3, # of connection points: 4
#     Node 3, Type 0, BuildingBlock: QUQFOY_clean_sbu_3, # of connection points: 4
#     Node 4, Type 0, BuildingBlock: QUQFOY_clean_sbu_3, # of connection points: 4
#     Node 5, Type 0, BuildingBlock: QUQFOY_clean_sbu_3, # of connection points: 4
#     Node 6, Type 0, BuildingBlock: QUQFOY_clean_sbu_3, # of connection points: 4
#     Node 7, Type 0, BuildingBlock: QUQFOY_clean_sbu_3, # of connection points: 4
#     Node 8, Type 0, BuildingBlock: QUQFOY_clean_sbu_3, # of connection points: 4
#     Node 9, Type 0, BuildingBlock: QUQFOY_clean_sbu_3, # of connection points: 4
#     Node 10, Type 0, BuildingBlock: QUQFOY_clean_sbu_3, # of connection points: 4
#     Node 11, Type 0, BuildingBlock: QUQFOY_clean_sbu_3, # of connection points: 4
#     Node 12, Type 0, BuildingBlock: QUQFOY_clean_sbu_3, # of connection points: 4
#     Node 13, Type 0, BuildingBlock: QUQFOY_clean_sbu_3, # of connection points: 4
#     Node 14, Type 0, BuildingBlock: QUQFOY_clean_sbu_3, # of connection points: 4
#     Node 15, Type 0, BuildingBlock: QUQFOY_clean_sbu_3, # of connection points: 4
#     Node 16, Type 0, BuildingBlock: QUQFOY_clean_sbu_3, # of connection points: 4
#     Node 17, Type 0, BuildingBlock: QUQFOY_clean_sbu_3, # of connection points: 4
#     Node 18, Type 0, BuildingBlock: QUQFOY_clean_sbu_3, # of connection points: 4
#     Node 19, Type 0, BuildingBlock: QUQFOY_clean_sbu_3, # of connection points: 4
#     Node 20, Type 0, BuildingBlock: QUQFOY_clean_sbu_3, # of connection points: 4
#     Node 21, Type 0, BuildingBlock: QUQFOY_clean_sbu_3, # of connection points: 4
#     Node 22, Type 0, BuildingBlock: QUQFOY_clean_sbu_3, # of connection points: 4
#     Node 23, Type 0, BuildingBlock: QUQFOY_clean_sbu_3, # of connection points: 4
#     Node 24, Type 0, BuildingBlock: QUQFOY_clean_sbu_3, # of connection points: 4
#     Node 25, Type 0, BuildingBlock: QUQFOY_clean_sbu_3, # of connection points: 4
#     Node 26, Type 0, BuildingBlock: QUQFOY_clean_sbu_3, # of connection points: 4
#     Node 27, Type 0, BuildingBlock: QUQFOY_clean_sbu_3, # of connection points: 4
#     Node 28, Type 0, BuildingBlock: QUQFOY_clean_sbu_3, # of connection points: 4
#     Node 29, Type 0, BuildingBlock: QUQFOY_clean_sbu_3, # of connection points: 4
#     Node 30, Type 0, BuildingBlock: QUQFOY_clean_sbu_3, # of connection points: 4
#     Node 31, Type 0, BuildingBlock: QUQFOY_clean_sbu_3, # of connection points: 4
#     Node 32, Type 0, BuildingBlock: QUQFOY_clean_sbu_3, # of connection points: 4
#     Node 33, Type 0, BuildingBlock: QUQFOY_clean_sbu_3, # of connection points: 4
#     Node 34, Type 0, BuildingBlock: QUQFOY_clean_sbu_3, # of connection points: 4
#     Node 35, Type 0, BuildingBlock: QUQFOY_clean_sbu_3, # of connection points: 4
#     Edge 36, Type (0, 0), None
#     Edge 37, Type (0, 0), None
#     Edge 38, Type (0, 0), None
#     Edge 39, Type (0, 0), None
#     Edge 40, Type (0, 0), None
#     Edge 41, Type (0, 0), None
#     Edge 42, Type (0, 0), None
#     Edge 43, Type (0, 0), None
#     Edge 44, Type (0, 0), None
#     Edge 45, Type (0, 0), None
#     Edge 46, Type (0, 0), None
#     Edge 47, Type (0, 0), None
#     Edge 48, Type (0, 0), None
#     Edge 49, Type (0, 0), None
#     Edge 50, Type (0, 0), None
#     Edge 51, Type (0, 0), None
#     Edge 52, Type (0, 0), None
#     Edge 53, Type (0, 0), None
#     Edge 54, Type (0, 0), None
#     Edge 55, Type (0, 0), None
#     Edge 56, Type (0, 0), None
#     Edge 57, Type (0, 0), None
#     Edge 58, Type (0, 0), None
#     Edge 59, Type (0, 0), None
#     Edge 60, Type (0, 0), None
#     Edge 61, Type (0, 0), None
#     Edge 62, Type (0, 0), None
#     Edge 63, Type (0, 0), None
#     Edge 64, Type (0, 0), None
#     Edge 65, Type (0, 0), None
#     Edge 66, Type (0, 0), None
#     Edge 67, Type (0, 0), None
#     Edge 68, Type (0, 0), None
#     Edge 69, Type (0, 0), None
#     Edge 70, Type (0, 0), None
#     Edge 71, Type (0, 0), None
#     Edge 72, Type (0, 0), None
#     Edge 73, Type (0, 0), None
#     Edge 74, Type (0, 0), None
#     Edge 75, Type (0, 0), None
#     Edge 76, Type (0, 0), None
#     Edge 77, Type (0, 0), None
#     Edge 78, Type (0, 0), None
#     Edge 79, Type (0, 0), None
#     Edge 80, Type (0, 0), None
#     Edge 81, Type (0, 0), None
#     Edge 82, Type (0, 0), None
#     Edge 83, Type (0, 0), None
#     Edge 84, Type (0, 0), None
#     Edge 85, Type (0, 0), None
#     Edge 86, Type (0, 0), None
#     Edge 87, Type (0, 0), None
#     Edge 88, Type (0, 0), None
#     Edge 89, Type (0, 0), None
#     Edge 90, Type (0, 0), None
#     Edge 91, Type (0, 0), None
#     Edge 92, Type (0, 0), None
#     Edge 93, Type (0, 0), None
#     Edge 94, Type (0, 0), None
#     Edge 95, Type (0, 0), None
#     Edge 96, Type (0, 0), None
#     Edge 97, Type (0, 0), None
#     Edge 98, Type (0, 0), None
#     Edge 99, Type (0, 0), None
#     Edge 100, Type (0, 0), None
#     Edge 101, Type (0, 0), None
#     Edge 102, Type (0, 0), None
#     Edge 103, Type (0, 0), None
#     Edge 104, Type (0, 0), None
#     Edge 105, Type (0, 0), None
#     Edge 106, Type (0, 0), None
#     Edge 107, Type (0, 0), None
# Relax obj value: 0.186
# Max RMSD: 0.148
# Mean RMSD: 0.147
data_MOF--net-ums--node1-QUQFOY_clean_sbu_3--edge1-none
_symmetry_space_group_name_H-M    P1
_symmetry_Int_Tables_number       1
_symmetry_cell_setting            triclinic
loop_
_symmetry_equiv_pos_as_xyz
'x, y, z'
_cell_length_a     51.231548
_cell_length_b     51.169705
_cell_length_c     10.544854
_cell_angle_alpha  89.961652
_cell_angle_beta   90.074783
_cell_angle_gamma 119.87965
loop_
_atom_site_label
_atom_site_type_symbol
_atom_site_fract_x
_atom_site_fract_y
_atom_site_fract_z
_atom_type_partial_charge
C0 C 0.1572 0.28885 0.14549 0.0
O1 O 0.15741 0.3031 0.24428 0.0
Cd2 Cd 0.11542 0.27486 0.38232 0.0
O3 O 0.14337 0.26014 0.14526 0.0
Cd4 Cd 0.11975 0.21739 0.29892 0.0
C5 C 0.06605 0.22446 0.15508 0.0
O6 O 0.12423 0.24079 0.50232 0.0
O7 O 0.08606 0.19604 0.4796 0.0
O8 O 0.1643 0.21279 0.28871 0.0
C9 C 0.10063 0.219 0.54969 0.0
O10 O 0.07545 0.24835 0.22136 0.0
C11 C 0.15022 0.18469 0.26563 0.0
O12 O 0.0777 0.20762 0.16549 0.0
O13 O 0.12166 0.17146 0.25888 0.0
C14 C 0.61994 0.85001 0.1449 0.0
O15 O 0.60575 0.83599 0.2437 0.0
Cd16 Cd 0.63406 0.82229 0.38241 0.0
O17 O 0.64861 0.86494 0.14481 0.0
Cd18 Cd 0.69134 0.88409 0.29871 0.0
C19 C 0.68451 0.82333 0.1556 0.0
O20 O 0.66793 0.8652 0.50197 0.0
O21 O 0.7127 0.87176 0.47991 0.0
O22 O 0.69607 0.93335 0.28789 0.0
C23 C 0.68973 0.86339 0.54974 0.0
O24 O 0.66067 0.80886 0.22183 0.0
C25 C 0.72415 0.9472 0.26526 0.0
O26 O 0.70123 0.85178 0.16587 0.0
O27 O 0.73728 0.93171 0.25883 0.0
C28 C 0.05907 0.75171 0.14491 0.0
O29 O 0.07308 0.7515 0.24384 0.0
Cd30 Cd 0.08669 0.79348 0.38227 0.0
O31 O 0.04411 0.7655 0.1446 0.0
Cd32 Cd 0.02486 0.78905 0.29826 0.0
C33 C 0.08543 0.84284 0.15488 0.0
O34 O 0.04385 0.78462 0.50169 0.0
O35 O 0.03721 0.82285 0.4789 0.0
O36 O -0.02419 0.74444 0.28817 0.0
C37 C 0.04563 0.80826 0.54904 0.0
O38 O 0.09994 0.83346 0.22144 0.0
C39 C -0.03822 0.75856 0.26536 0.0
O40 O 0.05701 0.83116 0.16492 0.0
O41 O -0.02294 0.78715 0.25844 0.0
C42 C 0.27082 0.17553 0.36686 0.0
O43 O 0.28504 0.17571 0.26811 0.0
Cd44 Cd 0.25679 0.1337 0.12976 0.0
O45 O 0.24215 0.16174 0.36698 0.0
Cd46 Cd 0.19942 0.13812 0.21318 0.0
C47 C 0.20642 0.0843 0.35667 0.0
O48 O 0.22281 0.14265 0.00987 0.0
O49 O 0.17809 0.10446 0.03216 0.0
O50 O 0.19464 0.18262 0.22386 0.0
C51 C 0.20104 0.11904 0.96224 0.0
O52 O 0.23028 0.09369 0.29051 0.0
C53 C 0.16657 0.16843 0.24674 0.0
O54 O 0.18964 0.09599 0.34624 0.0
O55 O 0.15345 0.13984 0.25322 0.0
C56 C 0.73358 0.07705 0.36688 0.0
O57 O 0.73336 0.09107 0.26798 0.0
Cd58 Cd 0.77533 0.10473 0.1299 0.0
O59 O 0.74741 0.06213 0.36722 0.0
Cd60 Cd 0.771 0.04292 0.21364 0.0
C61 C 0.82468 0.10356 0.35739 0.0
O62 O 0.76657 0.0619 0.01016 0.0
O63 O 0.80477 0.05527 0.03318 0.0
O64 O 0.72643 -0.00614 0.22359 0.0
C65 C 0.7902 0.06369 0.96295 0.0
O66 O 0.81528 0.11807 0.2909 0.0
C67 C 0.7405 -0.02021 0.24664 0.0
O68 O 0.81304 0.07511 0.34719 0.0
O69 O 0.76906 -0.00494 0.25361 0.0
C70 C 0.83194 0.638 0.36744 0.0
O71 O 0.81792 0.62381 0.26853 0.0
Cd72 Cd 0.80432 0.6522 0.12978 0.0
O73 O 0.8469 0.66671 0.36763 0.0
Cd74 Cd 0.86614 0.70949 0.21381 0.0
C75 C 0.8055 0.70277 0.35683 0.0
O76 O 0.84719 0.68607 0.01047 0.0
O77 O 0.85379 0.73091 0.03282 0.0
O78 O 0.91531 0.7141 0.22438 0.0
C79 C 0.84539 0.70792 0.96285 0.0
O80 O 0.79101 0.67892 0.2904 0.0
C81 C 0.9292 0.74222 0.24699 0.0
O82 O 0.83392 0.71946 0.34677 0.0
O83 O 0.91379 0.75543 0.25363 0.0
C84 C 0.73367 0.63826 0.86667 0.0
O85 O 0.73347 0.62401 0.76789 0.0
Cd86 Cd 0.77546 0.65224 0.62983 0.0
O87 O 0.74751 0.66697 0.86689 0.0
Cd88 Cd 0.77113 0.70972 0.71322 0.0
C89 C 0.82483 0.70265 0.85703 0.0
O90 O 0.76665 0.68631 0.50985 0.0
O91 O 0.80482 0.73108 0.53256 0.0
O92 O 0.72658 0.71432 0.72344 0.0
C93 C 0.79025 0.70811 0.46253 0.0
O94 O 0.81543 0.67876 0.79076 0.0
C95 C 0.74066 0.74241 0.74652 0.0
O96 O 0.81318 0.71948 0.84665 0.0
O97 O 0.76922 0.75564 0.75328 0.0
C98 C 0.27094 0.07709 0.86726 0.0
O99 O 0.28512 0.09112 0.76847 0.0
Cd100 Cd 0.25682 0.10482 0.62974 0.0
O101 O 0.24226 0.06217 0.86734 0.0
Cd102 Cd 0.19953 0.04301 0.71343 0.0
C103 C 0.20636 0.10377 0.85651 0.0
O104 O 0.22295 0.06191 0.5102 0.0
O105 O 0.17816 0.05534 0.53224 0.0
O106 O 0.19481 -0.00625 0.72425 0.0
C107 C 0.20114 0.06372 0.46247 0.0
O108 O 0.2302 0.11825 0.79029 0.0
C109 C 0.16673 -0.0201 0.74689 0.0
O110 O 0.18965 0.07533 0.84627 0.0
O111 O 0.15359 -0.00461 0.75333 0.0
C112 C 0.83181 0.17539 0.86725 0.0
O113 O 0.81779 0.1756 0.76832 0.0
Cd114 Cd 0.80418 0.13362 0.62988 0.0
O115 O 0.84677 0.1616 0.86755 0.0
Cd116 Cd 0.86602 0.13805 0.71389 0.0
C117 C 0.80544 0.08426 0.85722 0.0
O118 O 0.84702 0.14248 0.51048 0.0
O119 O 0.85368 0.10425 0.53326 0.0
O120 O 0.91506 0.18266 0.72397 0.0
C121 C 0.84524 0.11883 0.46318 0.0
O122 O 0.79093 0.09364 0.79069 0.0
C123 C 0.9291 0.16855 0.74679 0.0
O124 O 0.83387 0.09595 0.84721 0.0
O125 O 0.91382 0.13996 0.75372 0.0
C126 C 0.62005 0.75157 0.6453 0.0
O127 O 0.60583 0.7514 0.74404 0.0
Cd128 Cd 0.63408 0.7934 0.88241 0.0
O129 O 0.64872 0.76537 0.64518 0.0
Cd130 Cd 0.69145 0.78898 0.79899 0.0
C131 C 0.68445 0.84281 0.65554 0.0
O132 O 0.66805 0.78446 1.00228 0.0
O133 O 0.71279 0.82265 0.98 0.0
O134 O 0.69623 0.74448 0.7883 0.0
C135 C 0.68983 0.80806 0.04986 0.0
O136 O 0.66059 0.83342 0.72168 0.0
C137 C 0.7243 0.75867 0.76541 0.0
O138 O 0.70123 0.83111 0.66594 0.0
O139 O 0.73742 0.78726 0.75893 0.0
C140 C 0.15729 0.85005 0.64528 0.0
O141 O 0.15752 0.83603 0.74417 0.0
Cd142 Cd 0.11554 0.82236 0.88226 0.0
O143 O 0.14346 0.86497 0.64495 0.0
Cd144 Cd 0.11988 0.88418 0.79852 0.0
C145 C 0.06619 0.82354 0.65482 0.0
O146 O 0.12431 0.8652 1.00198 0.0
O147 O 0.08611 0.87184 0.97898 0.0
O148 O 0.16444 0.93324 0.78857 0.0
C149 C 0.10068 0.8634 0.04915 0.0
O150 O 0.07559 0.80903 0.72129 0.0
C151 C 0.15037 0.94731 0.76552 0.0
O152 O 0.07784 0.85199 0.66499 0.0
O153 O 0.12182 0.93204 0.75854 0.0
C154 C 0.05894 0.28911 0.64473 0.0
O155 O 0.07296 0.3033 0.74362 0.0
Cd156 Cd 0.08657 0.27492 0.88239 0.0
O157 O 0.04397 0.2604 0.64454 0.0
Cd158 Cd 0.02474 0.21762 0.79836 0.0
C159 C 0.08538 0.22434 0.65538 0.0
O160 O 0.0437 0.24105 1.00168 0.0
O161 O 0.03708 0.19619 0.97934 0.0
O162 O -0.02443 0.213 0.78779 0.0
C163 C 0.04549 0.21919 0.04925 0.0
O164 O 0.09987 0.2482 0.72179 0.0
C165 C -0.03833 0.18488 0.76517 0.0
O166 O 0.05696 0.20765 0.66541 0.0
O167 O -0.02291 0.17168 0.75853 0.0
C168 C 0.82371 0.62184 0.48881 0.0
O169 O 0.82372 0.63607 0.58735 0.0
Cd170 Cd 0.78177 0.60769 0.7255 0.0
O171 O 0.80994 0.59313 0.48851 0.0
Cd172 Cd 0.78614 0.55021 0.64119 0.0
C173 C 0.73233 0.55735 0.49823 0.0
O174 O 0.79085 0.57367 0.84472 0.0
O175 O 0.75281 0.52881 0.8231 0.0
O176 O 0.83057 0.54545 0.62855 0.0
C177 C 0.76738 0.55186 0.89277 0.0
O178 O 0.74176 0.58125 0.56449 0.0
C179 C 0.81639 0.51741 0.60439 0.0
O180 O 0.74398 0.54052 0.50859 0.0
O181 O 0.78782 0.50425 0.5988 0.0
C182 C 0.28697 0.18354 0.4883 0.0
O183 O 0.27281 0.16933 0.58685 0.0
Cd184 Cd 0.30125 0.15581 0.72567 0.0
O185 O 0.31565 0.19853 0.48814 0.0
Cd186 Cd 0.35855 0.21766 0.64106 0.0
C187 C 0.35165 0.15673 0.49883 0.0
O188 O 0.33507 0.19894 0.84445 0.0
O189 O 0.37995 0.20574 0.8235 0.0
O190 O 0.36341 0.26696 0.62781 0.0
C191 C 0.3569 0.19729 0.8929 0.0
O192 O 0.32779 0.14227 0.56503 0.0
C193 C 0.39144 0.28066 0.60409 0.0
O194 O 0.36836 0.18517 0.50904 0.0
O195 O 0.40451 0.2651 0.59884 0.0
C196 C 0.72556 0.0852 0.48819 0.0
O197 O 0.73976 0.08519 0.58688 0.0
Cd198 Cd 0.75319 0.12713 0.72542 0.0
O199 O 0.71053 0.09892 0.4878 0.0
Cd200 Cd 0.69131 0.12266 0.64049 0.0
C201 C 0.75206 0.17655 0.49799 0.0
O202 O 0.71013 0.11799 0.84406 0.0
O203 O 0.70325 0.15609 0.82235 0.0
O204 O 0.64222 0.07816 0.628 0.0
C205 C 0.71176 0.14151 0.89208 0.0
O206 O 0.76655 0.16715 0.56452 0.0
C207 C 0.62833 0.09237 0.6041 0.0
O208 O 0.72364 0.16486 0.50798 0.0
O209 O 0.64369 0.12098 0.59835 0.0
C210 C 0.93717 0.50818 0.69548 0.0
O211 O -0.04884 0.50808 0.59645 0.0
Cd212 Cd 0.92245 0.46602 0.45916 0.0
O213 O 0.9085 0.49452 0.69657 0.0
Cd214 Cd 0.86534 0.47082 0.54483 0.0
C215 C 0.87218 0.41676 0.68703 0.0
O216 O 0.88864 0.47557 0.34108 0.0
O217 O 0.8438 0.43758 0.36238 0.0
O218 O 0.86065 0.51534 0.55877 0.0
C219 C 0.8668 0.45216 0.29273 0.0
O220 O 0.896 0.4261 0.62062 0.0
C221 C 0.83264 0.50114 0.58279 0.0
O222 O 0.85546 0.42853 0.67691 0.0
O223 O 0.81948 0.47254 0.58782 0.0
C224 C 0.40093 0.41076 0.69555 0.0
O225 O 0.40097 0.42484 0.59638 0.0
Cd226 Cd 0.44301 0.43809 0.45937 0.0
O227 O 0.41462 0.39571 0.69688 0.0
Cd228 Cd 0.43829 0.37616 0.54537 0.0
C229 C 0.49221 0.43687 0.68781 0.0
O230 O 0.43363 0.39481 0.34143 0.0
O231 O 0.47164 0.38787 0.36347 0.0
O232 O 0.39371 0.32716 0.55857 0.0
C233 C 0.45707 0.39635 0.29351 0.0
O234 O 0.48286 0.45138 0.62107 0.0
C235 C 0.40779 0.31316 0.58276 0.0
O236 O 0.48049 0.40841 0.67792 0.0
O237 O 0.43637 0.3284 0.5883 0.0
C238 C 0.49823 -0.02836 0.69609 0.0
O239 O 0.48416 0.95767 0.59691 0.0
Cd240 Cd 0.47097 -0.01348 0.45922 0.0
O241 O 0.51333 0.00035 0.69726 0.0
Cd242 Cd 0.53291 0.04355 0.54551 0.0
C243 C 0.47221 0.037 0.68723 0.0
O244 O 0.51428 0.02022 0.34172 0.0
O245 O 0.5212 0.06518 0.36308 0.0
O246 O 0.58201 0.04807 0.55931 0.0
C247 C 0.51274 0.04214 0.29338 0.0
O248 O 0.4577 0.01319 0.62054 0.0
C249 C 0.59585 0.07614 0.58305 0.0
O250 O 0.50063 0.05362 0.67748 0.0
O251 O 0.58046 0.08939 0.58825 0.0
C252 C 0.40089 -0.02813 0.19532 0.0
O253 O 0.40097 0.95785 0.09625 0.0
Cd254 Cd 0.443 -0.01344 0.95923 0.0
O255 O 0.41458 0.00058 0.19653 0.0
Cd256 Cd 0.43826 0.04377 0.04495 0.0
C257 C 0.49221 0.03688 0.1874 0.0
O258 O 0.43356 0.02046 0.84111 0.0
O259 O 0.47153 0.06535 0.86285 0.0
O260 O 0.39372 0.04834 0.05848 0.0
C261 C 0.45698 0.04233 0.79308 0.0
O262 O 0.48287 0.01303 0.12087 0.0
C263 C 0.40783 0.07638 0.0827 0.0
O264 O 0.48047 0.05364 0.17735 0.0
O265 O 0.43641 0.08962 0.08801 0.0
C266 C 0.93731 0.4107 0.19587 0.0
O267 O -0.04873 0.42478 0.09679 0.0
Cd268 Cd 0.92249 0.43803 0.95909 0.0
O269 O 0.90864 0.39562 0.19693 0.0
Cd270 Cd 0.86547 0.37608 0.04511 0.0
C271 C 0.87211 0.43691 0.18684 0.0
O272 O 0.8888 0.39467 0.84142 0.0
O273 O 0.84389 0.38776 0.86249 0.0
O274 O 0.86079 0.32686 0.05923 0.0
C275 C 0.86692 0.39622 0.79298 0.0
O276 O 0.89591 0.4514 0.12035 0.0
C277 C 0.83277 0.3131 0.083 0.0
O278 O 0.85548 0.40845 0.17694 0.0
O279 O 0.81961 0.32858 0.08798 0.0
C280 C 0.49819 0.50817 0.19592 0.0
O281 O 0.48412 0.5081 0.0967 0.0
Cd282 Cd 0.47096 0.46608 0.95929 0.0
O283 O 0.51331 0.49455 0.19721 0.0
Cd284 Cd 0.53294 0.47094 0.04563 0.0
C285 C 0.4723 0.41689 0.18762 0.0
O286 O 0.51425 0.47559 0.84176 0.0
O287 O 0.52124 0.43756 0.86358 0.0
O288 O 0.58195 0.51554 0.05901 0.0
C289 C 0.51273 0.45213 0.79375 0.0
O290 O 0.45777 0.4262 0.12081 0.0
C291 C 0.5959 0.50139 0.08296 0.0
O292 O 0.50073 0.42867 0.17795 0.0
O293 O 0.58061 0.47279 0.08844 0.0
C294 C 0.28708 0.08527 0.9887 0.0
O295 O 0.27289 0.08531 0.08719 0.0
Cd296 Cd 0.30126 0.12726 0.2257 0.0
O297 O 0.31575 0.09898 0.98854 0.0
Cd298 Cd 0.35864 0.12275 0.14137 0.0
C299 C 0.35159 0.17671 0.99877 0.0
O300 O 0.33517 0.11801 0.34475 0.0
O301 O 0.38003 0.15604 0.32365 0.0
O302 O 0.3635 0.07832 0.12827 0.0
C303 C 0.35698 0.14147 0.39304 0.0
O304 O 0.32772 0.16731 0.0649 0.0
C305 C 0.39151 0.09258 0.1043 0.0
O306 O 0.36836 0.165 0.00913 0.0
O307 O 0.4046 0.12118 0.099 0.0
C308 C 0.82362 0.18337 0.98857 0.0
O309 O 0.82364 0.16915 0.08719 0.0
Cd310 Cd 0.78171 0.15567 0.22543 0.0
O311 O 0.80987 0.19837 0.98818 0.0
Cd312 Cd 0.78612 0.21757 0.14079 0.0
C313 C 0.73231 0.15676 0.99794 0.0
O314 O 0.79078 0.19875 0.34434 0.0
O315 O 0.75273 0.20566 0.3225 0.0
O316 O 0.83062 0.26665 0.12844 0.0
C317 C 0.76729 0.19712 0.39221 0.0
O318 O 0.74172 0.14225 0.06439 0.0
C319 C 0.81648 0.2806 0.10431 0.0
O320 O 0.74398 0.18521 0.00806 0.0
O321 O 0.78791 0.26528 0.0985 0.0
C322 C 0.72563 0.6221 0.98805 0.0
O323 O 0.73983 0.63627 0.08669 0.0
Cd324 Cd 0.75325 0.60776 0.22559 0.0
O325 O 0.71058 0.59339 0.98781 0.0
Cd326 Cd 0.69135 0.55045 0.14066 0.0
C327 C 0.75215 0.55722 0.99854 0.0
O328 O 0.71015 0.57396 0.34408 0.0
O329 O 0.70325 0.52898 0.32291 0.0
O330 O 0.64216 0.54577 0.1277 0.0
C331 C 0.71177 0.55207 0.39235 0.0
O332 O 0.76664 0.58108 0.06493 0.0
C333 C 0.62838 0.5177 0.10402 0.0
O334 O 0.72373 0.54055 0.00852 0.0
O335 O 0.64384 0.50453 0.09855 0.0
C336 C 0.48999 0.95524 0.81686 0.0
O337 O 0.48992 -0.03073 0.91592 0.0
Cd338 Cd 0.44788 0.94054 0.05291 0.0
O339 O 0.47631 0.92654 0.8156 0.0
Cd340 Cd 0.45262 0.88334 0.96718 0.0
C341 C 0.39868 0.89023 0.82468 0.0
O342 O 0.45732 0.90665 0.17103 0.0
O343 O 0.41935 0.86177 0.14929 0.0
O344 O 0.49716 0.87877 0.95366 0.0
C345 C 0.43391 0.88479 0.21912 0.0
O346 O 0.40802 0.91408 0.89123 0.0
C347 C 0.48304 0.85072 0.92944 0.0
O348 O 0.41041 0.87348 0.83477 0.0
O349 O 0.45446 0.83749 0.92414 0.0
C350 C -0.04645 0.51641 0.81631 0.0
O351 O 0.93959 0.50232 0.91538 0.0
Cd352 Cd -0.03161 0.48907 0.05305 0.0
O353 O -0.01777 0.53149 0.8152 0.0
Cd354 Cd 0.0254 0.55102 0.96702 0.0
C355 C 0.01875 0.4902 0.82524 0.0
O356 O 0.00207 0.53244 0.17073 0.0
O357 O 0.04697 0.53933 0.14965 0.0
O358 O 0.03008 0.60024 0.9529 0.0
C359 C 0.02395 0.53089 0.21922 0.0
O360 O -0.00504 0.4757 0.89175 0.0
C361 C 0.05811 0.614 0.92914 0.0
O362 O 0.03539 0.51865 0.83518 0.0
O363 O 0.07126 0.59851 0.92417 0.0
C364 C 0.39268 0.41892 0.81625 0.0
O365 O 0.40676 0.419 0.91546 0.0
Cd366 Cd 0.41991 0.46102 0.05284 0.0
O367 O 0.37757 0.43255 0.81492 0.0
Cd368 Cd 0.35794 0.45616 0.9665 0.0
C369 C 0.41858 0.51021 0.82446 0.0
O370 O 0.37662 0.45151 0.17039 0.0
O371 O 0.36965 0.48954 0.14856 0.0
O372 O 0.30893 0.41156 0.95312 0.0
C373 C 0.37814 0.47497 0.21845 0.0
O374 O 0.4331 0.50089 0.89129 0.0
C375 C 0.29498 0.42571 0.92918 0.0
O376 O 0.39014 0.49843 0.83417 0.0
O377 O 0.31027 0.45432 0.9237 0.0
C378 C 0.60379 0.84183 0.02345 0.0
O379 O 0.61798 0.8418 0.92497 0.0
Cd380 Cd 0.5896 0.79985 0.78647 0.0
O381 O 0.57512 0.82812 0.02363 0.0
Cd382 Cd 0.53223 0.80435 0.8708 0.0
C383 C 0.53928 0.7504 0.01344 0.0
O384 O 0.55569 0.80909 0.6674 0.0
O385 O 0.51085 0.77107 0.68851 0.0
O386 O 0.52738 0.84878 0.88389 0.0
C387 C 0.53389 0.78564 0.61906 0.0
O388 O 0.56314 0.7598 0.9473 0.0
C389 C 0.49936 0.83452 0.90785 0.0
O390 O 0.52251 0.76211 1.00305 0.0
O391 O 0.48627 0.80592 0.91315 0.0
C392 C 0.06726 0.74373 0.02359 0.0
O393 O 0.06724 0.75794 0.92496 0.0
Cd394 Cd 0.10917 0.77142 0.78674 0.0
O395 O 0.081 0.72874 0.02399 0.0
Cd396 Cd 0.10475 0.70953 0.87138 0.0
C397 C 0.15856 0.77034 0.01427 0.0
O398 O 0.1001 0.72835 0.6678 0.0
O399 O 0.13814 0.72145 0.68966 0.0
O400 O 0.06026 0.66045 0.88372 0.0
C401 C 0.12359 0.72997 0.61989 0.0
O402 O 0.14915 0.78484 0.94781 0.0
C403 C 0.0744 0.6465 0.90784 0.0
O404 O 0.1469 0.74189 1.00412 0.0
O405 O 0.10297 0.66182 0.91365 0.0
C406 C 0.16526 0.30501 0.02411 0.0
O407 O 0.15106 0.29085 0.92547 0.0
Cd408 Cd 0.13763 0.31936 0.78658 0.0
O409 O 0.1803 0.33372 0.02436 0.0
Cd410 Cd 0.19953 0.37666 0.87151 0.0
C411 C 0.13873 0.36989 0.01368 0.0
O412 O 0.18073 0.35316 0.66807 0.0
O413 O 0.18762 0.39812 0.68925 0.0
O414 O 0.24872 0.38134 0.88446 0.0
C415 C 0.17911 0.37504 0.61975 0.0
O416 O 0.12424 0.34603 0.94727 0.0
C417 C 0.2625 0.40941 0.90813 0.0
O418 O 0.16715 0.38656 1.00366 0.0
O419 O 0.24704 0.42258 0.9136 0.0
C420 C 0.06717 0.30526 0.52334 0.0
O421 O 0.06716 0.29104 0.42481 0.0
Cd422 Cd 0.10911 0.31941 0.28665 0.0
O423 O 0.08093 0.33397 0.52364 0.0
Cd424 Cd 0.10474 0.3769 0.37096 0.0
C425 C 0.15855 0.36976 0.51387 0.0
O426 O 0.10003 0.35343 0.16745 0.0
O427 O 0.13807 0.3983 0.18906 0.0
O428 O 0.06031 0.38165 0.38359 0.0
C429 C 0.12351 0.37525 0.11945 0.0
O430 O 0.14913 0.34585 0.44764 0.0
C431 C 0.07448 0.40969 0.40776 0.0
O432 O 0.1469 0.38658 0.50355 0.0
O433 O 0.10305 0.42285 0.41336 0.0
C434 C 0.6039 0.74357 0.52385 0.0
O435 O 0.61806 0.75777 0.42531 0.0
Cd436 Cd 0.58963 0.7713 0.28648 0.0
O437 O 0.57523 0.72857 0.52401 0.0
Cd438 Cd 0.53232 0.70944 0.37109 0.0
C439 C 0.53922 0.77038 0.51328 0.0
O440 O 0.55581 0.72817 0.16772 0.0
O441 O 0.51092 0.72135 0.18866 0.0
O442 O 0.52747 0.66014 0.38433 0.0
C443 C 0.53397 0.72982 0.11931 0.0
O444 O 0.56308 0.78484 0.44709 0.0
C445 C 0.49944 0.64644 0.40806 0.0
O446 O 0.52252 0.74194 0.50309 0.0
O447 O 0.48636 0.662 0.41331 0.0
C448 C 0.16532 0.8419 0.52396 0.0
O449 O 0.15112 0.84191 0.42528 0.0
Cd450 Cd 0.13768 0.79997 0.28673 0.0
O451 O 0.18034 0.82819 0.52434 0.0
Cd452 Cd 0.19957 0.80444 0.37166 0.0
C453 C 0.13882 0.75055 0.51411 0.0
O454 O 0.18074 0.80911 0.16811 0.0
O455 O 0.18764 0.77101 0.1898 0.0
O456 O 0.24866 0.84895 0.38414 0.0
C457 C 0.17911 0.78559 0.12014 0.0
O458 O 0.12432 0.75994 0.4476 0.0
C459 C 0.26254 0.83473 0.40804 0.0
O460 O 0.16724 0.76224 0.50416 0.0
O461 O 0.24719 0.80613 0.41381 0.0
C462 C -0.0463 0.41892 0.3167 0.0
O463 O 0.9397 0.41902 0.41571 0.0
Cd464 Cd -0.03159 0.46108 0.553 0.0
O465 O -0.01763 0.43258 0.31558 0.0
Cd466 Cd 0.02553 0.45628 0.46732 0.0
C467 C 0.01868 0.51034 0.32516 0.0
O468 O 0.00222 0.45153 0.67105 0.0
O469 O 0.04707 0.48952 0.64976 0.0
O470 O 0.03022 0.41176 0.45338 0.0
C471 C 0.02406 0.47495 0.71935 0.0
O472 O -0.00514 0.501 0.39156 0.0
C473 C 0.05823 0.42596 0.42936 0.0
O474 O 0.0354 0.49857 0.33525 0.0
O475 O 0.07139 0.45457 0.42432 0.0
C476 C 0.48996 0.51635 0.31663 0.0
O477 O 0.48991 0.50226 0.41577 0.0
Cd478 Cd 0.44787 0.489 0.55278 0.0
O479 O 0.47626 0.53139 0.31527 0.0
Cd480 Cd 0.45259 0.55094 0.46678 0.0
C481 C 0.39867 0.49023 0.32438 0.0
O482 O 0.45725 0.53228 0.67069 0.0
O483 O 0.41924 0.53923 0.64867 0.0
O484 O 0.49717 0.59994 0.45358 0.0
C485 C 0.4338 0.53074 0.71857 0.0
O486 O 0.40801 0.47571 0.3911 0.0
C487 C 0.48308 0.61395 0.42939 0.0
O488 O 0.41039 0.51869 0.33424 0.0
O489 O 0.45451 0.5987 0.42384 0.0
C490 C 0.39265 0.95547 0.31609 0.0
O491 O 0.40673 -0.03056 0.41524 0.0
Cd492 Cd 0.41992 0.9406 0.55293 0.0
O493 O 0.37755 0.92677 0.31489 0.0
Cd494 Cd 0.35797 0.88356 0.46664 0.0
C495 C 0.41868 0.89011 0.32496 0.0
O496 O 0.37661 0.9069 0.67041 0.0
O497 O 0.36967 0.86192 0.64906 0.0
O498 O 0.30886 0.87904 0.45284 0.0
C499 C 0.37815 0.88498 0.7187 0.0
O500 O 0.43318 0.91393 0.39163 0.0
C501 C 0.29503 0.85097 0.4291 0.0
O502 O 0.39025 0.8735 0.33468 0.0
O503 O 0.31042 0.83773 0.42389 0.0
loop_
_geom_bond_atom_site_label_1
_geom_bond_atom_site_label_2
_geom_bond_distance
_geom_bond_site_symmetry_2
_ccdc_geom_bond_type
C0 O1 1.306 . S
C0 O3 1.160 . S
O1 C0 1.306 . S
O1 Cd2 2.228 . S
Cd2 O1 2.228 . S
Cd2 O6 2.273 . S
Cd2 O10 2.277 . S
O3 C0 1.160 . S
O3 Cd4 2.203 . S
Cd4 O3 2.203 . S
Cd4 O6 2.411 . S
Cd4 O7 2.333 . S
Cd4 O8 2.352 . S
Cd4 O12 2.277 1_554 S
Cd4 O13 2.356 . S
C5 O10 1.209 1_556 S
C5 O12 1.226 . S
O6 Cd2 2.273 . S
O6 Cd4 2.411 . S
O6 C9 1.320 . S
O7 Cd4 2.333 . S
O7 C9 1.214 . S
O8 Cd4 2.352 . S
O8 C11 1.258 . S
C9 O6 1.320 . S
C9 O7 1.214 . S
O10 Cd2 2.277 . S
O10 C5 1.209 1_554 S
C11 O8 1.258 . S
C11 O13 1.282 . S
O12 Cd4 2.277 1_556 S
O12 C5 1.226 . S
O13 Cd4 2.356 . S
O13 C11 1.282 . S
C14 O15 1.306 . S
C14 O17 1.160 . S
O15 C14 1.306 . S
O15 Cd16 2.228 . S
Cd16 O15 2.228 . S
Cd16 O20 2.273 . S
Cd16 O24 2.277 . S
O17 C14 1.160 . S
O17 Cd18 2.203 . S
Cd18 O17 2.203 . S
Cd18 O20 2.411 . S
Cd18 O21 2.333 . S
Cd18 O22 2.352 . S
Cd18 O26 2.277 1_554 S
Cd18 O27 2.356 . S
C19 O24 1.209 1_556 S
C19 O26 1.226 . S
O20 Cd16 2.273 . S
O20 Cd18 2.411 . S
O20 C23 1.320 . S
O21 Cd18 2.333 . S
O21 C23 1.214 . S
O22 Cd18 2.352 . S
O22 C25 1.258 . S
C23 O20 1.320 . S
C23 O21 1.214 . S
O24 Cd16 2.277 . S
O24 C19 1.209 1_554 S
C25 O22 1.258 . S
C25 O27 1.282 . S
O26 Cd18 2.277 1_556 S
O26 C19 1.226 . S
O27 Cd18 2.356 . S
O27 C25 1.282 . S
C28 O29 1.306 . S
C28 O31 1.160 . S
O29 C28 1.306 . S
O29 Cd30 2.228 . S
Cd30 O29 2.228 . S
Cd30 O34 2.273 . S
Cd30 O38 2.277 . S
O31 C28 1.160 . S
O31 Cd32 2.203 . S
Cd32 O31 2.203 . S
Cd32 O34 2.411 . S
Cd32 O35 2.333 . S
Cd32 O36 2.352 . S
Cd32 O40 2.277 1_554 S
Cd32 O41 2.356 . S
C33 O38 1.209 1_556 S
C33 O40 1.226 . S
O34 Cd30 2.273 . S
O34 Cd32 2.411 . S
O34 C37 1.320 . S
O35 Cd32 2.333 . S
O35 C37 1.214 . S
O36 Cd32 2.352 . S
O36 C39 1.258 . S
C37 O34 1.320 . S
C37 O35 1.214 . S
O38 Cd30 2.277 . S
O38 C33 1.209 1_554 S
C39 O36 1.258 . S
C39 O41 1.282 . S
O40 Cd32 2.277 1_556 S
O40 C33 1.226 . S
O41 Cd32 2.356 . S
O41 C39 1.282 . S
C42 O43 1.306 . S
C42 O45 1.160 . S
O43 C42 1.306 . S
O43 Cd44 2.228 . S
Cd44 O43 2.228 . S
Cd44 O48 2.273 . S
Cd44 O52 2.277 . S
O45 C42 1.160 . S
O45 Cd46 2.203 . S
Cd46 O45 2.203 . S
Cd46 O48 2.411 . S
Cd46 O49 2.333 . S
Cd46 O50 2.352 . S
Cd46 O54 2.277 . S
Cd46 O55 2.356 . S
C47 O52 1.209 . S
C47 O54 1.226 . S
O48 Cd44 2.273 . S
O48 Cd46 2.411 . S
O48 C51 1.320 . S
O49 Cd46 2.333 . S
O49 C51 1.214 . S
O50 Cd46 2.352 . S
O50 C53 1.258 . S
C51 O48 1.320 . S
C51 O49 1.214 . S
O52 Cd44 2.277 . S
O52 C47 1.209 . S
C53 O50 1.258 . S
C53 O55 1.282 . S
O54 Cd46 2.277 . S
O54 C47 1.226 . S
O55 Cd46 2.356 . S
O55 C53 1.282 . S
C56 O57 1.306 . S
C56 O59 1.160 . S
O57 C56 1.306 . S
O57 Cd58 2.228 . S
Cd58 O57 2.228 . S
Cd58 O62 2.273 . S
Cd58 O66 2.277 . S
O59 C56 1.160 . S
O59 Cd60 2.203 . S
Cd60 O59 2.203 . S
Cd60 O62 2.411 . S
Cd60 O63 2.333 . S
Cd60 O64 2.352 . S
Cd60 O68 2.277 . S
Cd60 O69 2.356 . S
C61 O66 1.209 . S
C61 O68 1.226 . S
O62 Cd58 2.273 . S
O62 Cd60 2.411 . S
O62 C65 1.320 . S
O63 Cd60 2.333 . S
O63 C65 1.214 . S
O64 Cd60 2.352 . S
O64 C67 1.258 . S
C65 O62 1.320 . S
C65 O63 1.214 . S
O66 Cd58 2.277 . S
O66 C61 1.209 . S
C67 O64 1.258 . S
C67 O69 1.282 . S
O68 Cd60 2.277 . S
O68 C61 1.226 . S
O69 Cd60 2.356 . S
O69 C67 1.282 . S
C70 O71 1.306 . S
C70 O73 1.160 . S
O71 C70 1.306 . S
O71 Cd72 2.228 . S
Cd72 O71 2.228 . S
Cd72 O76 2.273 . S
Cd72 O80 2.277 . S
O73 C70 1.160 . S
O73 Cd74 2.203 . S
Cd74 O73 2.203 . S
Cd74 O76 2.411 . S
Cd74 O77 2.333 . S
Cd74 O78 2.352 . S
Cd74 O82 2.277 . S
Cd74 O83 2.356 . S
C75 O80 1.209 . S
C75 O82 1.226 . S
O76 Cd72 2.273 . S
O76 Cd74 2.411 . S
O76 C79 1.320 . S
O77 Cd74 2.333 . S
O77 C79 1.214 . S
O78 Cd74 2.352 . S
O78 C81 1.258 . S
C79 O76 1.320 . S
C79 O77 1.214 . S
O80 Cd72 2.277 . S
O80 C75 1.209 . S
C81 O78 1.258 . S
C81 O83 1.282 . S
O82 Cd74 2.277 . S
O82 C75 1.226 . S
O83 Cd74 2.356 . S
O83 C81 1.282 . S
C84 O85 1.306 . S
C84 O87 1.160 . S
O85 C84 1.306 . S
O85 Cd86 2.228 . S
Cd86 O85 2.228 . S
Cd86 O90 2.273 . S
Cd86 O94 2.277 . S
O87 C84 1.160 . S
O87 Cd88 2.203 . S
Cd88 O87 2.203 . S
Cd88 O90 2.411 . S
Cd88 O91 2.333 . S
Cd88 O92 2.352 . S
Cd88 O96 2.277 1_556 S
Cd88 O97 2.356 . S
C89 O94 1.209 1_554 S
C89 O96 1.226 . S
O90 Cd86 2.273 . S
O90 Cd88 2.411 . S
O90 C93 1.320 . S
O91 Cd88 2.333 . S
O91 C93 1.214 . S
O92 Cd88 2.352 . S
O92 C95 1.258 . S
C93 O90 1.320 . S
C93 O91 1.214 . S
O94 Cd86 2.277 . S
O94 C89 1.209 1_556 S
C95 O92 1.258 . S
C95 O97 1.282 . S
O96 Cd88 2.277 1_554 S
O96 C89 1.226 . S
O97 Cd88 2.356 . S
O97 C95 1.282 . S
C98 O99 1.306 . S
C98 O101 1.160 . S
O99 C98 1.306 . S
O99 Cd100 2.228 . S
Cd100 O99 2.228 . S
Cd100 O104 2.273 . S
Cd100 O108 2.277 . S
O101 C98 1.160 . S
O101 Cd102 2.203 . S
Cd102 O101 2.203 . S
Cd102 O104 2.411 . S
Cd102 O105 2.333 . S
Cd102 O106 2.352 . S
Cd102 O110 2.277 1_556 S
Cd102 O111 2.356 . S
C103 O108 1.209 1_554 S
C103 O110 1.226 . S
O104 Cd100 2.273 . S
O104 Cd102 2.411 . S
O104 C107 1.320 . S
O105 Cd102 2.333 . S
O105 C107 1.214 . S
O106 Cd102 2.352 . S
O106 C109 1.258 . S
C107 O104 1.320 . S
C107 O105 1.214 . S
O108 Cd100 2.277 . S
O108 C103 1.209 1_556 S
C109 O106 1.258 . S
C109 O111 1.282 . S
O110 Cd102 2.277 1_554 S
O110 C103 1.226 . S
O111 Cd102 2.356 . S
O111 C109 1.282 . S
C112 O113 1.306 . S
C112 O115 1.160 . S
O113 C112 1.306 . S
O113 Cd114 2.228 . S
Cd114 O113 2.228 . S
Cd114 O118 2.273 . S
Cd114 O122 2.277 . S
O115 C112 1.160 . S
O115 Cd116 2.203 . S
Cd116 O115 2.203 . S
Cd116 O118 2.411 . S
Cd116 O119 2.333 . S
Cd116 O120 2.352 . S
Cd116 O124 2.277 1_556 S
Cd116 O125 2.356 . S
C117 O122 1.209 1_554 S
C117 O124 1.226 . S
O118 Cd114 2.273 . S
O118 Cd116 2.411 . S
O118 C121 1.320 . S
O119 Cd116 2.333 . S
O119 C121 1.214 . S
O120 Cd116 2.352 . S
O120 C123 1.258 . S
C121 O118 1.320 . S
C121 O119 1.214 . S
O122 Cd114 2.277 . S
O122 C117 1.209 1_556 S
C123 O120 1.258 . S
C123 O125 1.282 . S
O124 Cd116 2.277 1_554 S
O124 C117 1.226 . S
O125 Cd116 2.356 . S
O125 C123 1.282 . S
C126 O127 1.306 . S
C126 O129 1.160 . S
O127 C126 1.306 . S
O127 Cd128 2.228 . S
Cd128 O127 2.228 . S
Cd128 O132 2.273 . S
Cd128 O136 2.277 . S
O129 C126 1.160 . S
O129 Cd130 2.203 . S
Cd130 O129 2.203 . S
Cd130 O132 2.411 . S
Cd130 O133 2.333 . S
Cd130 O134 2.352 . S
Cd130 O138 2.277 . S
Cd130 O139 2.356 . S
C131 O136 1.209 . S
C131 O138 1.226 . S
O132 Cd128 2.273 . S
O132 Cd130 2.411 . S
O132 C135 1.320 . S
O133 Cd130 2.333 . S
O133 C135 1.214 . S
O134 Cd130 2.352 . S
O134 C137 1.258 . S
C135 O132 1.320 . S
C135 O133 1.214 . S
O136 Cd128 2.277 . S
O136 C131 1.209 . S
C137 O134 1.258 . S
C137 O139 1.282 . S
O138 Cd130 2.277 . S
O138 C131 1.226 . S
O139 Cd130 2.356 . S
O139 C137 1.282 . S
C140 O141 1.306 . S
C140 O143 1.160 . S
O141 C140 1.306 . S
O141 Cd142 2.228 . S
Cd142 O141 2.228 . S
Cd142 O146 2.273 . S
Cd142 O150 2.277 . S
O143 C140 1.160 . S
O143 Cd144 2.203 . S
Cd144 O143 2.203 . S
Cd144 O146 2.411 . S
Cd144 O147 2.333 . S
Cd144 O148 2.352 . S
Cd144 O152 2.277 . S
Cd144 O153 2.356 . S
C145 O150 1.209 . S
C145 O152 1.226 . S
O146 Cd142 2.273 . S
O146 Cd144 2.411 . S
O146 C149 1.320 . S
O147 Cd144 2.333 . S
O147 C149 1.214 . S
O148 Cd144 2.352 . S
O148 C151 1.258 . S
C149 O146 1.320 . S
C149 O147 1.214 . S
O150 Cd142 2.277 . S
O150 C145 1.209 . S
C151 O148 1.258 . S
C151 O153 1.282 . S
O152 Cd144 2.277 . S
O152 C145 1.226 . S
O153 Cd144 2.356 . S
O153 C151 1.282 . S
C154 O155 1.306 . S
C154 O157 1.160 . S
O155 C154 1.306 . S
O155 Cd156 2.228 . S
Cd156 O155 2.228 . S
Cd156 O160 2.273 . S
Cd156 O164 2.277 . S
O157 C154 1.160 . S
O157 Cd158 2.203 . S
Cd158 O157 2.203 . S
Cd158 O160 2.411 . S
Cd158 O161 2.333 . S
Cd158 O162 2.352 . S
Cd158 O166 2.277 . S
Cd158 O167 2.356 . S
C159 O164 1.209 . S
C159 O166 1.226 . S
O160 Cd156 2.273 . S
O160 Cd158 2.411 . S
O160 C163 1.320 . S
O161 Cd158 2.333 . S
O161 C163 1.214 . S
O162 Cd158 2.352 . S
O162 C165 1.258 . S
C163 O160 1.320 . S
C163 O161 1.214 . S
O164 Cd156 2.277 . S
O164 C159 1.209 . S
C165 O162 1.258 . S
C165 O167 1.282 . S
O166 Cd158 2.277 . S
O166 C159 1.226 . S
O167 Cd158 2.356 . S
O167 C165 1.282 . S
C168 O169 1.306 . S
C168 O171 1.160 . S
O169 C168 1.306 . S
O169 Cd170 2.228 . S
Cd170 O169 2.228 . S
Cd170 O174 2.273 . S
Cd170 O178 2.277 . S
O171 C168 1.160 . S
O171 Cd172 2.203 . S
Cd172 O171 2.203 . S
Cd172 O174 2.411 . S
Cd172 O175 2.333 . S
Cd172 O176 2.352 . S
Cd172 O180 2.277 . S
Cd172 O181 2.356 . S
C173 O178 1.209 . S
C173 O180 1.226 . S
O174 Cd170 2.273 . S
O174 Cd172 2.411 . S
O174 C177 1.320 . S
O175 Cd172 2.333 . S
O175 C177 1.214 . S
O176 Cd172 2.352 . S
O176 C179 1.258 . S
C177 O174 1.320 . S
C177 O175 1.214 . S
O178 Cd170 2.277 . S
O178 C173 1.209 . S
C179 O176 1.258 . S
C179 O181 1.282 . S
O180 Cd172 2.277 . S
O180 C173 1.226 . S
O181 Cd172 2.356 . S
O181 C179 1.282 . S
C182 O183 1.306 . S
C182 O185 1.160 . S
O183 C182 1.306 . S
O183 Cd184 2.228 . S
Cd184 O183 2.228 . S
Cd184 O188 2.273 . S
Cd184 O192 2.277 . S
O185 C182 1.160 . S
O185 Cd186 2.203 . S
Cd186 O185 2.203 . S
Cd186 O188 2.411 . S
Cd186 O189 2.333 . S
Cd186 O190 2.352 . S
Cd186 O194 2.277 . S
Cd186 O195 2.356 . S
C187 O192 1.209 . S
C187 O194 1.226 . S
O188 Cd184 2.273 . S
O188 Cd186 2.411 . S
O188 C191 1.320 . S
O189 Cd186 2.333 . S
O189 C191 1.214 . S
O190 Cd186 2.352 . S
O190 C193 1.258 . S
C191 O188 1.320 . S
C191 O189 1.214 . S
O192 Cd184 2.277 . S
O192 C187 1.209 . S
C193 O190 1.258 . S
C193 O195 1.282 . S
O194 Cd186 2.277 . S
O194 C187 1.226 . S
O195 Cd186 2.356 . S
O195 C193 1.282 . S
C196 O197 1.306 . S
C196 O199 1.160 . S
O197 C196 1.306 . S
O197 Cd198 2.228 . S
Cd198 O197 2.228 . S
Cd198 O202 2.273 . S
Cd198 O206 2.277 . S
O199 C196 1.160 . S
O199 Cd200 2.203 . S
Cd200 O199 2.203 . S
Cd200 O202 2.411 . S
Cd200 O203 2.333 . S
Cd200 O204 2.352 . S
Cd200 O208 2.277 . S
Cd200 O209 2.356 . S
C201 O206 1.209 . S
C201 O208 1.226 . S
O202 Cd198 2.273 . S
O202 Cd200 2.411 . S
O202 C205 1.320 . S
O203 Cd200 2.333 . S
O203 C205 1.214 . S
O204 Cd200 2.352 . S
O204 C207 1.258 . S
C205 O202 1.320 . S
C205 O203 1.214 . S
O206 Cd198 2.277 . S
O206 C201 1.209 . S
C207 O204 1.258 . S
C207 O209 1.282 . S
O208 Cd200 2.277 . S
O208 C201 1.226 . S
O209 Cd200 2.356 . S
O209 C207 1.282 . S
C210 O211 1.306 . S
C210 O213 1.160 . S
O211 C210 1.306 . S
O211 Cd212 2.228 . S
Cd212 O211 2.228 . S
Cd212 O216 2.273 . S
Cd212 O220 2.277 . S
O213 C210 1.160 . S
O213 Cd214 2.203 . S
Cd214 O213 2.203 . S
Cd214 O216 2.411 . S
Cd214 O217 2.333 . S
Cd214 O218 2.352 . S
Cd214 O222 2.277 . S
Cd214 O223 2.356 . S
C215 O220 1.209 . S
C215 O222 1.226 . S
O216 Cd212 2.273 . S
O216 Cd214 2.411 . S
O216 C219 1.320 . S
O217 Cd214 2.333 . S
O217 C219 1.214 . S
O218 Cd214 2.352 . S
O218 C221 1.258 . S
C219 O216 1.320 . S
C219 O217 1.214 . S
O220 Cd212 2.277 . S
O220 C215 1.209 . S
C221 O218 1.258 . S
C221 O223 1.282 . S
O222 Cd214 2.277 . S
O222 C215 1.226 . S
O223 Cd214 2.356 . S
O223 C221 1.282 . S
C224 O225 1.306 . S
C224 O227 1.160 . S
O225 C224 1.306 . S
O225 Cd226 2.228 . S
Cd226 O225 2.228 . S
Cd226 O230 2.273 . S
Cd226 O234 2.277 . S
O227 C224 1.160 . S
O227 Cd228 2.203 . S
Cd228 O227 2.203 . S
Cd228 O230 2.411 . S
Cd228 O231 2.333 . S
Cd228 O232 2.352 . S
Cd228 O236 2.277 . S
Cd228 O237 2.356 . S
C229 O234 1.209 . S
C229 O236 1.226 . S
O230 Cd226 2.273 . S
O230 Cd228 2.411 . S
O230 C233 1.320 . S
O231 Cd228 2.333 . S
O231 C233 1.214 . S
O232 Cd228 2.352 . S
O232 C235 1.258 . S
C233 O230 1.320 . S
C233 O231 1.214 . S
O234 Cd226 2.277 . S
O234 C229 1.209 . S
C235 O232 1.258 . S
C235 O237 1.282 . S
O236 Cd228 2.277 . S
O236 C229 1.226 . S
O237 Cd228 2.356 . S
O237 C235 1.282 . S
C238 O239 1.306 . S
C238 O241 1.160 . S
O239 C238 1.306 . S
O239 Cd240 2.228 . S
Cd240 O239 2.228 . S
Cd240 O244 2.273 . S
Cd240 O248 2.277 . S
O241 C238 1.160 . S
O241 Cd242 2.203 . S
Cd242 O241 2.203 . S
Cd242 O244 2.411 . S
Cd242 O245 2.333 . S
Cd242 O246 2.352 . S
Cd242 O250 2.277 . S
Cd242 O251 2.356 . S
C243 O248 1.209 . S
C243 O250 1.226 . S
O244 Cd240 2.273 . S
O244 Cd242 2.411 . S
O244 C247 1.320 . S
O245 Cd242 2.333 . S
O245 C247 1.214 . S
O246 Cd242 2.352 . S
O246 C249 1.258 . S
C247 O244 1.320 . S
C247 O245 1.214 . S
O248 Cd240 2.277 . S
O248 C243 1.209 . S
C249 O246 1.258 . S
C249 O251 1.282 . S
O250 Cd242 2.277 . S
O250 C243 1.226 . S
O251 Cd242 2.356 . S
O251 C249 1.282 . S
C252 O253 1.306 . S
C252 O255 1.160 . S
O253 C252 1.306 . S
O253 Cd254 2.228 . S
Cd254 O253 2.228 . S
Cd254 O258 2.273 . S
Cd254 O262 2.277 . S
O255 C252 1.160 . S
O255 Cd256 2.203 . S
Cd256 O255 2.203 . S
Cd256 O258 2.411 . S
Cd256 O259 2.333 . S
Cd256 O260 2.352 . S
Cd256 O264 2.277 . S
Cd256 O265 2.356 . S
C257 O262 1.209 . S
C257 O264 1.226 . S
O258 Cd254 2.273 . S
O258 Cd256 2.411 . S
O258 C261 1.320 1_554 S
O259 Cd256 2.333 . S
O259 C261 1.214 1_554 S
O260 Cd256 2.352 . S
O260 C263 1.258 . S
C261 O258 1.320 1_556 S
C261 O259 1.214 1_556 S
O262 Cd254 2.277 . S
O262 C257 1.209 . S
C263 O260 1.258 . S
C263 O265 1.282 . S
O264 Cd256 2.277 . S
O264 C257 1.226 . S
O265 Cd256 2.356 . S
O265 C263 1.282 . S
C266 O267 1.306 . S
C266 O269 1.160 . S
O267 C266 1.306 . S
O267 Cd268 2.228 . S
Cd268 O267 2.228 . S
Cd268 O272 2.273 . S
Cd268 O276 2.277 . S
O269 C266 1.160 . S
O269 Cd270 2.203 . S
Cd270 O269 2.203 . S
Cd270 O272 2.411 . S
Cd270 O273 2.333 . S
Cd270 O274 2.352 . S
Cd270 O278 2.277 . S
Cd270 O279 2.356 . S
C271 O276 1.209 . S
C271 O278 1.226 . S
O272 Cd268 2.273 . S
O272 Cd270 2.411 . S
O272 C275 1.320 1_554 S
O273 Cd270 2.333 . S
O273 C275 1.214 1_554 S
O274 Cd270 2.352 . S
O274 C277 1.258 . S
C275 O272 1.320 1_556 S
C275 O273 1.214 1_556 S
O276 Cd268 2.277 . S
O276 C271 1.209 . S
C277 O274 1.258 . S
C277 O279 1.282 . S
O278 Cd270 2.277 . S
O278 C271 1.226 . S
O279 Cd270 2.356 . S
O279 C277 1.282 . S
C280 O281 1.306 . S
C280 O283 1.160 . S
O281 C280 1.306 . S
O281 Cd282 2.228 . S
Cd282 O281 2.228 . S
Cd282 O286 2.273 . S
Cd282 O290 2.277 . S
O283 C280 1.160 . S
O283 Cd284 2.203 . S
Cd284 O283 2.203 . S
Cd284 O286 2.411 . S
Cd284 O287 2.333 . S
Cd284 O288 2.352 . S
Cd284 O292 2.277 . S
Cd284 O293 2.356 . S
C285 O290 1.209 . S
C285 O292 1.226 . S
O286 Cd282 2.273 . S
O286 Cd284 2.411 . S
O286 C289 1.320 1_554 S
O287 Cd284 2.333 . S
O287 C289 1.214 1_554 S
O288 Cd284 2.352 . S
O288 C291 1.258 . S
C289 O286 1.320 1_556 S
C289 O287 1.214 1_556 S
O290 Cd282 2.277 . S
O290 C285 1.209 . S
C291 O288 1.258 . S
C291 O293 1.282 . S
O292 Cd284 2.277 . S
O292 C285 1.226 . S
O293 Cd284 2.356 . S
O293 C291 1.282 . S
C294 O295 1.306 . S
C294 O297 1.160 . S
O295 C294 1.306 . S
O295 Cd296 2.228 1_556 S
Cd296 O295 2.228 1_554 S
Cd296 O300 2.273 . S
Cd296 O304 2.277 1_554 S
O297 C294 1.160 . S
O297 Cd298 2.203 . S
Cd298 O297 2.203 . S
Cd298 O300 2.411 1_556 S
Cd298 O301 2.333 1_556 S
Cd298 O302 2.352 1_556 S
Cd298 O306 2.277 . S
Cd298 O307 2.356 . S
C299 O304 1.209 . S
C299 O306 1.226 . S
O300 Cd296 2.273 . S
O300 Cd298 2.411 1_554 S
O300 C303 1.320 . S
O301 Cd298 2.333 1_554 S
O301 C303 1.214 . S
O302 Cd298 2.352 1_554 S
O302 C305 1.258 . S
C303 O300 1.320 . S
C303 O301 1.214 . S
O304 Cd296 2.277 1_556 S
O304 C299 1.209 . S
C305 O302 1.258 . S
C305 O307 1.282 1_554 S
O306 Cd298 2.277 . S
O306 C299 1.226 . S
O307 Cd298 2.356 . S
O307 C305 1.282 1_556 S
C308 O309 1.306 . S
C308 O311 1.160 . S
O309 C308 1.306 . S
O309 Cd310 2.228 1_556 S
Cd310 O309 2.228 1_554 S
Cd310 O314 2.273 . S
Cd310 O318 2.277 1_554 S
O311 C308 1.160 . S
O311 Cd312 2.203 . S
Cd312 O311 2.203 . S
Cd312 O314 2.411 1_556 S
Cd312 O315 2.333 1_556 S
Cd312 O316 2.352 1_556 S
Cd312 O320 2.277 . S
Cd312 O321 2.356 . S
C313 O318 1.209 . S
C313 O320 1.226 . S
O314 Cd310 2.273 . S
O314 Cd312 2.411 1_554 S
O314 C317 1.320 . S
O315 Cd312 2.333 1_554 S
O315 C317 1.214 . S
O316 Cd312 2.352 1_554 S
O316 C319 1.258 . S
C317 O314 1.320 . S
C317 O315 1.214 . S
O318 Cd310 2.277 1_556 S
O318 C313 1.209 . S
C319 O316 1.258 . S
C319 O321 1.282 1_554 S
O320 Cd312 2.277 . S
O320 C313 1.226 . S
O321 Cd312 2.356 . S
O321 C319 1.282 1_556 S
C322 O323 1.306 . S
C322 O325 1.160 . S
O323 C322 1.306 . S
O323 Cd324 2.228 1_556 S
Cd324 O323 2.228 1_554 S
Cd324 O328 2.273 . S
Cd324 O332 2.277 1_554 S
O325 C322 1.160 . S
O325 Cd326 2.203 . S
Cd326 O325 2.203 . S
Cd326 O328 2.411 1_556 S
Cd326 O329 2.333 1_556 S
Cd326 O330 2.352 1_556 S
Cd326 O334 2.277 . S
Cd326 O335 2.356 . S
C327 O332 1.209 . S
C327 O334 1.226 . S
O328 Cd324 2.273 . S
O328 Cd326 2.411 1_554 S
O328 C331 1.320 . S
O329 Cd326 2.333 1_554 S
O329 C331 1.214 . S
O330 Cd326 2.352 1_554 S
O330 C333 1.258 . S
C331 O328 1.320 . S
C331 O329 1.214 . S
O332 Cd324 2.277 1_556 S
O332 C327 1.209 . S
C333 O330 1.258 . S
C333 O335 1.282 1_554 S
O334 Cd326 2.277 . S
O334 C327 1.226 . S
O335 Cd326 2.356 . S
O335 C333 1.282 1_556 S
C336 O337 1.306 . S
C336 O339 1.160 . S
O337 C336 1.306 . S
O337 Cd338 2.228 . S
Cd338 O337 2.228 . S
Cd338 O342 2.273 . S
Cd338 O346 2.277 . S
O339 C336 1.160 . S
O339 Cd340 2.203 . S
Cd340 O339 2.203 . S
Cd340 O342 2.411 . S
Cd340 O343 2.333 . S
Cd340 O344 2.352 . S
Cd340 O348 2.277 . S
Cd340 O349 2.356 . S
C341 O346 1.209 . S
C341 O348 1.226 . S
O342 Cd338 2.273 . S
O342 Cd340 2.411 . S
O342 C345 1.320 1_556 S
O343 Cd340 2.333 . S
O343 C345 1.214 1_556 S
O344 Cd340 2.352 . S
O344 C347 1.258 . S
C345 O342 1.320 1_554 S
C345 O343 1.214 1_554 S
O346 Cd338 2.277 . S
O346 C341 1.209 . S
C347 O344 1.258 . S
C347 O349 1.282 . S
O348 Cd340 2.277 . S
O348 C341 1.226 . S
O349 Cd340 2.356 . S
O349 C347 1.282 . S
C350 O351 1.306 . S
C350 O353 1.160 . S
O351 C350 1.306 . S
O351 Cd352 2.228 . S
Cd352 O351 2.228 . S
Cd352 O356 2.273 . S
Cd352 O360 2.277 . S
O353 C350 1.160 . S
O353 Cd354 2.203 . S
Cd354 O353 2.203 . S
Cd354 O356 2.411 . S
Cd354 O357 2.333 . S
Cd354 O358 2.352 . S
Cd354 O362 2.277 . S
Cd354 O363 2.356 . S
C355 O360 1.209 . S
C355 O362 1.226 . S
O356 Cd352 2.273 . S
O356 Cd354 2.411 . S
O356 C359 1.320 1_556 S
O357 Cd354 2.333 . S
O357 C359 1.214 1_556 S
O358 Cd354 2.352 . S
O358 C361 1.258 . S
C359 O356 1.320 1_554 S
C359 O357 1.214 1_554 S
O360 Cd352 2.277 . S
O360 C355 1.209 . S
C361 O358 1.258 . S
C361 O363 1.282 . S
O362 Cd354 2.277 . S
O362 C355 1.226 . S
O363 Cd354 2.356 . S
O363 C361 1.282 . S
C364 O365 1.306 . S
C364 O367 1.160 . S
O365 C364 1.306 . S
O365 Cd366 2.228 . S
Cd366 O365 2.228 . S
Cd366 O370 2.273 . S
Cd366 O374 2.277 . S
O367 C364 1.160 . S
O367 Cd368 2.203 . S
Cd368 O367 2.203 . S
Cd368 O370 2.411 . S
Cd368 O371 2.333 . S
Cd368 O372 2.352 . S
Cd368 O376 2.277 . S
Cd368 O377 2.356 . S
C369 O374 1.209 . S
C369 O376 1.226 . S
O370 Cd366 2.273 . S
O370 Cd368 2.411 . S
O370 C373 1.320 1_556 S
O371 Cd368 2.333 . S
O371 C373 1.214 1_556 S
O372 Cd368 2.352 . S
O372 C375 1.258 . S
C373 O370 1.320 1_554 S
C373 O371 1.214 1_554 S
O374 Cd366 2.277 . S
O374 C369 1.209 . S
C375 O372 1.258 . S
C375 O377 1.282 . S
O376 Cd368 2.277 . S
O376 C369 1.226 . S
O377 Cd368 2.356 . S
O377 C375 1.282 . S
C378 O379 1.306 . S
C378 O381 1.160 . S
O379 C378 1.306 . S
O379 Cd380 2.228 1_554 S
Cd380 O379 2.228 1_556 S
Cd380 O384 2.273 . S
Cd380 O388 2.277 1_556 S
O381 C378 1.160 . S
O381 Cd382 2.203 . S
Cd382 O381 2.203 . S
Cd382 O384 2.411 1_554 S
Cd382 O385 2.333 1_554 S
Cd382 O386 2.352 1_554 S
Cd382 O390 2.277 . S
Cd382 O391 2.356 . S
C383 O388 1.209 . S
C383 O390 1.226 . S
O384 Cd380 2.273 . S
O384 Cd382 2.411 1_556 S
O384 C387 1.320 . S
O385 Cd382 2.333 1_556 S
O385 C387 1.214 . S
O386 Cd382 2.352 1_556 S
O386 C389 1.258 . S
C387 O384 1.320 . S
C387 O385 1.214 . S
O388 Cd380 2.277 1_554 S
O388 C383 1.209 . S
C389 O386 1.258 . S
C389 O391 1.282 1_556 S
O390 Cd382 2.277 . S
O390 C383 1.226 . S
O391 Cd382 2.356 . S
O391 C389 1.282 1_554 S
C392 O393 1.306 . S
C392 O395 1.160 . S
O393 C392 1.306 . S
O393 Cd394 2.228 1_554 S
Cd394 O393 2.228 1_556 S
Cd394 O398 2.273 . S
Cd394 O402 2.277 1_556 S
O395 C392 1.160 . S
O395 Cd396 2.203 . S
Cd396 O395 2.203 . S
Cd396 O398 2.411 1_554 S
Cd396 O399 2.333 1_554 S
Cd396 O400 2.352 1_554 S
Cd396 O404 2.277 . S
Cd396 O405 2.356 . S
C397 O402 1.209 . S
C397 O404 1.226 . S
O398 Cd394 2.273 . S
O398 Cd396 2.411 1_556 S
O398 C401 1.320 . S
O399 Cd396 2.333 1_556 S
O399 C401 1.214 . S
O400 Cd396 2.352 1_556 S
O400 C403 1.258 . S
C401 O398 1.320 . S
C401 O399 1.214 . S
O402 Cd394 2.277 1_554 S
O402 C397 1.209 . S
C403 O400 1.258 . S
C403 O405 1.282 1_556 S
O404 Cd396 2.277 . S
O404 C397 1.226 . S
O405 Cd396 2.356 . S
O405 C403 1.282 1_554 S
C406 O407 1.306 . S
C406 O409 1.160 . S
O407 C406 1.306 . S
O407 Cd408 2.228 1_554 S
Cd408 O407 2.228 1_556 S
Cd408 O412 2.273 . S
Cd408 O416 2.277 1_556 S
O409 C406 1.160 . S
O409 Cd410 2.203 . S
Cd410 O409 2.203 . S
Cd410 O412 2.411 1_554 S
Cd410 O413 2.333 1_554 S
Cd410 O414 2.352 1_554 S
Cd410 O418 2.277 . S
Cd410 O419 2.356 . S
C411 O416 1.209 . S
C411 O418 1.226 . S
O412 Cd408 2.273 . S
O412 Cd410 2.411 1_556 S
O412 C415 1.320 . S
O413 Cd410 2.333 1_556 S
O413 C415 1.214 . S
O414 Cd410 2.352 1_556 S
O414 C417 1.258 . S
C415 O412 1.320 . S
C415 O413 1.214 . S
O416 Cd408 2.277 1_554 S
O416 C411 1.209 . S
C417 O414 1.258 . S
C417 O419 1.282 1_556 S
O418 Cd410 2.277 . S
O418 C411 1.226 . S
O419 Cd410 2.356 . S
O419 C417 1.282 1_554 S
C420 O421 1.306 . S
C420 O423 1.160 . S
O421 C420 1.306 . S
O421 Cd422 2.228 . S
Cd422 O421 2.228 . S
Cd422 O426 2.273 . S
Cd422 O430 2.277 . S
O423 C420 1.160 . S
O423 Cd424 2.203 . S
Cd424 O423 2.203 . S
Cd424 O426 2.411 . S
Cd424 O427 2.333 . S
Cd424 O428 2.352 . S
Cd424 O432 2.277 . S
Cd424 O433 2.356 . S
C425 O430 1.209 . S
C425 O432 1.226 . S
O426 Cd422 2.273 . S
O426 Cd424 2.411 . S
O426 C429 1.320 . S
O427 Cd424 2.333 . S
O427 C429 1.214 . S
O428 Cd424 2.352 . S
O428 C431 1.258 . S
C429 O426 1.320 . S
C429 O427 1.214 . S
O430 Cd422 2.277 . S
O430 C425 1.209 . S
C431 O428 1.258 . S
C431 O433 1.282 . S
O432 Cd424 2.277 . S
O432 C425 1.226 . S
O433 Cd424 2.356 . S
O433 C431 1.282 . S
C434 O435 1.306 . S
C434 O437 1.160 . S
O435 C434 1.306 . S
O435 Cd436 2.228 . S
Cd436 O435 2.228 . S
Cd436 O440 2.273 . S
Cd436 O444 2.277 . S
O437 C434 1.160 . S
O437 Cd438 2.203 . S
Cd438 O437 2.203 . S
Cd438 O440 2.411 . S
Cd438 O441 2.333 . S
Cd438 O442 2.352 . S
Cd438 O446 2.277 . S
Cd438 O447 2.356 . S
C439 O444 1.209 . S
C439 O446 1.226 . S
O440 Cd436 2.273 . S
O440 Cd438 2.411 . S
O440 C443 1.320 . S
O441 Cd438 2.333 . S
O441 C443 1.214 . S
O442 Cd438 2.352 . S
O442 C445 1.258 . S
C443 O440 1.320 . S
C443 O441 1.214 . S
O444 Cd436 2.277 . S
O444 C439 1.209 . S
C445 O442 1.258 . S
C445 O447 1.282 . S
O446 Cd438 2.277 . S
O446 C439 1.226 . S
O447 Cd438 2.356 . S
O447 C445 1.282 . S
C448 O449 1.306 . S
C448 O451 1.160 . S
O449 C448 1.306 . S
O449 Cd450 2.228 . S
Cd450 O449 2.228 . S
Cd450 O454 2.273 . S
Cd450 O458 2.277 . S
O451 C448 1.160 . S
O451 Cd452 2.203 . S
Cd452 O451 2.203 . S
Cd452 O454 2.411 . S
Cd452 O455 2.333 . S
Cd452 O456 2.352 . S
Cd452 O460 2.277 . S
Cd452 O461 2.356 . S
C453 O458 1.209 . S
C453 O460 1.226 . S
O454 Cd450 2.273 . S
O454 Cd452 2.411 . S
O454 C457 1.320 . S
O455 Cd452 2.333 . S
O455 C457 1.214 . S
O456 Cd452 2.352 . S
O456 C459 1.258 . S
C457 O454 1.320 . S
C457 O455 1.214 . S
O458 Cd450 2.277 . S
O458 C453 1.209 . S
C459 O456 1.258 . S
C459 O461 1.282 . S
O460 Cd452 2.277 . S
O460 C453 1.226 . S
O461 Cd452 2.356 . S
O461 C459 1.282 . S
C462 O463 1.306 . S
C462 O465 1.160 . S
O463 C462 1.306 . S
O463 Cd464 2.228 . S
Cd464 O463 2.228 . S
Cd464 O468 2.273 . S
Cd464 O472 2.277 . S
O465 C462 1.160 . S
O465 Cd466 2.203 . S
Cd466 O465 2.203 . S
Cd466 O468 2.411 . S
Cd466 O469 2.333 . S
Cd466 O470 2.352 . S
Cd466 O474 2.277 . S
Cd466 O475 2.356 . S
C467 O472 1.209 . S
C467 O474 1.226 . S
O468 Cd464 2.273 . S
O468 Cd466 2.411 . S
O468 C471 1.320 . S
O469 Cd466 2.333 . S
O469 C471 1.214 . S
O470 Cd466 2.352 . S
O470 C473 1.258 . S
C471 O468 1.320 . S
C471 O469 1.214 . S
O472 Cd464 2.277 . S
O472 C467 1.209 . S
C473 O470 1.258 . S
C473 O475 1.282 . S
O474 Cd466 2.277 . S
O474 C467 1.226 . S
O475 Cd466 2.356 . S
O475 C473 1.282 . S
C476 O477 1.306 . S
C476 O479 1.160 . S
O477 C476 1.306 . S
O477 Cd478 2.228 . S
Cd478 O477 2.228 . S
Cd478 O482 2.273 . S
Cd478 O486 2.277 . S
O479 C476 1.160 . S
O479 Cd480 2.203 . S
Cd480 O479 2.203 . S
Cd480 O482 2.411 . S
Cd480 O483 2.333 . S
Cd480 O484 2.352 . S
Cd480 O488 2.277 . S
Cd480 O489 2.356 . S
C481 O486 1.209 . S
C481 O488 1.226 . S
O482 Cd478 2.273 . S
O482 Cd480 2.411 . S
O482 C485 1.320 . S
O483 Cd480 2.333 . S
O483 C485 1.214 . S
O484 Cd480 2.352 . S
O484 C487 1.258 . S
C485 O482 1.320 . S
C485 O483 1.214 . S
O486 Cd478 2.277 . S
O486 C481 1.209 . S
C487 O484 1.258 . S
C487 O489 1.282 . S
O488 Cd480 2.277 . S
O488 C481 1.226 . S
O489 Cd480 2.356 . S
O489 C487 1.282 . S
C490 O491 1.306 . S
C490 O493 1.160 . S
O491 C490 1.306 . S
O491 Cd492 2.228 . S
Cd492 O491 2.228 . S
Cd492 O496 2.273 . S
Cd492 O500 2.277 . S
O493 C490 1.160 . S
O493 Cd494 2.203 . S
Cd494 O493 2.203 . S
Cd494 O496 2.411 . S
Cd494 O497 2.333 . S
Cd494 O498 2.352 . S
Cd494 O502 2.277 . S
Cd494 O503 2.356 . S
C495 O500 1.209 . S
C495 O502 1.226 . S
O496 Cd492 2.273 . S
O496 Cd494 2.411 . S
O496 C499 1.320 . S
O497 Cd494 2.333 . S
O497 C499 1.214 . S
O498 Cd494 2.352 . S
O498 C501 1.258 . S
C499 O496 1.320 . S
C499 O497 1.214 . S
O500 Cd492 2.277 . S
O500 C495 1.209 . S
C501 O498 1.258 . S
C501 O503 1.282 . S
O502 Cd494 2.277 . S
O502 C495 1.226 . S
O503 Cd494 2.356 . S
O503 C501 1.282 . S
C53 C11 1.178 . S
C67 C25 1.177 1_545 S
C81 C39 1.177 1_655 S
C95 C137 1.178 . S
C109 C151 1.177 1_545 S
C165 C123 1.177 1_455 S
C179 C221 1.166 . S
C193 C235 1.165 . S
C207 C249 1.165 . S
C263 C305 1.162 . S
C319 C277 1.162 . S
C291 C333 1.162 . S
C347 C389 1.162 . S
C361 C403 1.162 . S
C417 C375 1.162 . S
C473 C431 1.166 . S
C487 C445 1.165 . S
C501 C459 1.165 . S
C163 C5 1.627 . S
C19 C135 1.628 . S
C33 C149 1.627 . S
C107 C47 1.636 . S
C61 C121 1.636 . S
C93 C75 1.636 . S
C89 C79 1.627 . S
C103 C51 1.628 . S
C65 C117 1.627 . S
C23 C131 1.636 . S
C37 C145 1.636 . S
C159 C9 1.636 . S
C173 C331 1.607 . S
C303 C187 1.607 . S
C317 C201 1.607 . S
C215 C275 1.639 . S
C289 C229 1.639 . S
C243 C261 1.639 . S
C257 C247 1.636 . S
C271 C219 1.636 . S
C233 C285 1.636 . S
C191 C299 1.654 . S
C205 C313 1.653 . S
C327 C177 1.654 . S
C499 C341 1.636 . S
C355 C471 1.636 . S
C369 C485 1.636 . S
C383 C443 1.654 . S
C457 C397 1.653 . S
C411 C429 1.654 . S
C415 C425 1.607 . S
C387 C439 1.607 . S
C401 C453 1.607 . S
C359 C467 1.639 . S
C373 C481 1.639 . S
C345 C495 1.639 . S
C406 C0 1.402 . S
C14 C378 1.402 . S
C392 C28 1.402 . S
C42 C182 1.407 . S
C196 C56 1.407 . S
C70 C168 1.407 . S
C84 C322 1.402 . S
C294 C98 1.402 . S
C112 C308 1.402 . S
C126 C434 1.407 . S
C140 C448 1.407 . S
C420 C154 1.407 . S
C350 C210 1.417 1_455 S
C364 C224 1.417 . S
C336 C238 1.417 1_565 S
C252 C490 1.417 1_545 S
C462 C266 1.417 1_455 S
C280 C476 1.417 . S
