# Generated by pormake.
# Topology wjx, (5)-cn, num edge types: 1
# Building blocks:
#     Node 0, Type 0, BuildingBlock: BEQFEK_clean_sbu_0, # of connection points: 5
#     Node 1, Type 0, BuildingBlock: BEQFEK_clean_sbu_0, # of connection points: 5
#     Node 2, Type 0, BuildingBlock: BEQFEK_clean_sbu_0, # of connection points: 5
#     Node 3, Type 0, BuildingBlock: BEQFEK_clean_sbu_0, # of connection points: 5
#     Node 4, Type 0, BuildingBlock: BEQFEK_clean_sbu_0, # of connection points: 5
#     Node 5, Type 0, BuildingBlock: BEQFEK_clean_sbu_0, # of connection points: 5
#     Node 6, Type 0, BuildingBlock: BEQFEK_clean_sbu_0, # of connection points: 5
#     Node 7, Type 0, BuildingBlock: BEQFEK_clean_sbu_0, # of connection points: 5
#     Node 8, Type 0, BuildingBlock: BEQFEK_clean_sbu_0, # of connection points: 5
#     Node 9, Type 0, BuildingBlock: BEQFEK_clean_sbu_0, # of connection points: 5
#     Node 10, Type 0, BuildingBlock: BEQFEK_clean_sbu_0, # of connection points: 5
#     Node 11, Type 0, BuildingBlock: BEQFEK_clean_sbu_0, # of connection points: 5
#     Edge 12, Type (0, 0), BuildingBlock: TEMPAE_clean_linker_10, # of connection points: 2
#     Edge 13, Type (0, 0), BuildingBlock: TEMPAE_clean_linker_10, # of connection points: 2
#     Edge 14, Type (0, 0), BuildingBlock: TEMPAE_clean_linker_10, # of connection points: 2
#     Edge 15, Type (0, 0), BuildingBlock: TEMPAE_clean_linker_10, # of connection points: 2
#     Edge 16, Type (0, 0), BuildingBlock: TEMPAE_clean_linker_10, # of connection points: 2
#     Edge 17, Type (0, 0), BuildingBlock: TEMPAE_clean_linker_10, # of connection points: 2
#     Edge 18, Type (0, 0), BuildingBlock: TEMPAE_clean_linker_10, # of connection points: 2
#     Edge 19, Type (0, 0), BuildingBlock: TEMPAE_clean_linker_10, # of connection points: 2
#     Edge 20, Type (0, 0), BuildingBlock: TEMPAE_clean_linker_10, # of connection points: 2
#     Edge 21, Type (0, 0), BuildingBlock: TEMPAE_clean_linker_10, # of connection points: 2
#     Edge 22, Type (0, 0), BuildingBlock: TEMPAE_clean_linker_10, # of connection points: 2
#     Edge 23, Type (0, 0), BuildingBlock: TEMPAE_clean_linker_10, # of connection points: 2
#     Edge 24, Type (0, 0), BuildingBlock: TEMPAE_clean_linker_10, # of connection points: 2
#     Edge 25, Type (0, 0), BuildingBlock: TEMPAE_clean_linker_10, # of connection points: 2
#     Edge 26, Type (0, 0), BuildingBlock: TEMPAE_clean_linker_10, # of connection points: 2
#     Edge 27, Type (0, 0), BuildingBlock: TEMPAE_clean_linker_10, # of connection points: 2
#     Edge 28, Type (0, 0), BuildingBlock: TEMPAE_clean_linker_10, # of connection points: 2
#     Edge 29, Type (0, 0), BuildingBlock: TEMPAE_clean_linker_10, # of connection points: 2
#     Edge 30, Type (0, 0), BuildingBlock: TEMPAE_clean_linker_10, # of connection points: 2
#     Edge 31, Type (0, 0), BuildingBlock: TEMPAE_clean_linker_10, # of connection points: 2
#     Edge 32, Type (0, 0), BuildingBlock: TEMPAE_clean_linker_10, # of connection points: 2
#     Edge 33, Type (0, 0), BuildingBlock: TEMPAE_clean_linker_10, # of connection points: 2
#     Edge 34, Type (0, 0), BuildingBlock: TEMPAE_clean_linker_10, # of connection points: 2
#     Edge 35, Type (0, 0), BuildingBlock: TEMPAE_clean_linker_10, # of connection points: 2
#     Edge 36, Type (0, 0), BuildingBlock: TEMPAE_clean_linker_10, # of connection points: 2
#     Edge 37, Type (0, 0), BuildingBlock: TEMPAE_clean_linker_10, # of connection points: 2
#     Edge 38, Type (0, 0), BuildingBlock: TEMPAE_clean_linker_10, # of connection points: 2
#     Edge 39, Type (0, 0), BuildingBlock: TEMPAE_clean_linker_10, # of connection points: 2
#     Edge 40, Type (0, 0), BuildingBlock: TEMPAE_clean_linker_10, # of connection points: 2
#     Edge 41, Type (0, 0), BuildingBlock: TEMPAE_clean_linker_10, # of connection points: 2
# Relax obj value: 0.081
# Max RMSD: 0.102
# Mean RMSD: 0.102
data_MOF--net-wjx--node1-BEQFEK_clean_sbu_0--edge1-TEMPAE_clean_linker_10
_symmetry_space_group_name_H-M    P1
_symmetry_Int_Tables_number       1
_symmetry_cell_setting            triclinic
loop_
_symmetry_equiv_pos_as_xyz
'x, y, z'
_cell_length_a     74.36251
_cell_length_b     74.367638
_cell_length_c     19.374927
_cell_angle_alpha  90.013892
_cell_angle_beta   89.972546
_cell_angle_gamma 120.00152
loop_
_atom_site_label
_atom_site_type_symbol
_atom_site_fract_x
_atom_site_fract_y
_atom_site_fract_z
_atom_type_partial_charge
Co0 Co 0.11501 0.4534 0.17093 0.0
Co1 Co 0.10676 0.45635 0.01341 0.0
C2 C 0.07331 0.42586 0.10291 0.0
O3 O 0.08557 0.4322 0.15436 0.0
O4 O 0.07925 0.43369 0.04309 0.0
C5 C 0.11082 0.43255 0.2992 0.0
O6 O 0.09703 0.41623 0.26482 0.0
C7 C 0.09976 0.44611 0.86487 0.0
C8 C 0.11537 0.47753 0.81894 0.0
C9 C 0.10498 0.45664 0.80244 0.0
N10 N 0.10702 0.46021 0.91608 0.0
N11 N 0.11613 0.47894 0.88819 0.0
C12 C 0.08741 0.42313 0.87598 0.0
H13 H 0.08893 0.41918 0.93007 0.0
H14 H 0.09246 0.41489 0.84014 0.0
H15 H 0.07082 0.4177 0.86516 0.0
C16 C 0.14979 0.44958 0.11364 0.0
N17 N 0.13253 0.45094 0.10608 0.0
N18 N 0.12879 0.45149 0.03992 0.0
C19 C 0.14343 0.45007 0.00313 0.0
C20 C 0.15733 0.44897 0.04857 0.0
C21 C 0.1597 0.4507 0.18195 0.0
H22 H 0.15806 0.4617 0.2164 0.0
H23 H 0.1516 0.43513 0.20647 0.0
H24 H 0.1764 0.45573 0.17622 0.0
O25 O 0.1183 0.48139 0.16505 0.0
O26 O 0.11086 0.48258 0.05475 0.0
H27 H 0.14595 0.46366 0.90359 0.0
H28 H 0.1557 0.4457 0.90647 0.0
C29 C 0.14358 0.4489 0.92599 0.0
H30 H 0.12842 0.43611 0.90834 0.0
H31 H 0.12327 0.49273 0.91648 0.0
O32 O 0.12134 0.44972 0.26761 0.0
C33 C 0.11563 0.49073 0.11453 0.0
Co34 Co 0.66147 0.1143 0.51886 0.0
Co35 Co 0.65017 0.10727 0.36125 0.0
C36 C 0.64615 0.07282 0.44706 0.0
O37 O 0.6523 0.08476 0.49937 0.0
O38 O 0.64462 0.07931 0.3878 0.0
C39 C 0.67647 0.10791 0.64739 0.0
O40 O 0.67707 0.09295 0.6133 0.0
C41 C 0.65183 0.09988 0.21252 0.0
C42 C 0.63976 0.11918 0.16827 0.0
C43 C 0.64779 0.10656 0.15059 0.0
N44 N 0.64673 0.1085 0.26438 0.0
N45 N 0.63929 0.1198 0.23757 0.0
C46 C 0.65954 0.08494 0.22303 0.0
H47 H 0.64666 0.07021 0.24393 0.0
H48 H 0.67212 0.09112 0.26212 0.0
H49 H 0.66501 0.0815 0.17423 0.0
C50 C 0.70041 0.14896 0.46273 0.0
N51 N 0.68163 0.13192 0.45465 0.0
N52 N 0.6773 0.12856 0.38842 0.0
C53 C 0.6935 0.14317 0.35205 0.0
C54 C 0.70862 0.15672 0.39786 0.0
C55 C 0.70923 0.15857 0.53138 0.0
H56 H 0.69659 0.15659 0.5665 0.0
H57 H 0.71693 0.15053 0.55466 0.0
H58 H 0.72073 0.17534 0.5264 0.0
O59 O 0.63724 0.1184 0.51488 0.0
O60 O 0.62848 0.1117 0.40439 0.0
H61 H 0.68356 0.14812 0.25377 0.0
H62 H 0.71055 0.15482 0.25597 0.0
C63 C 0.69472 0.14375 0.27485 0.0
H64 H 0.69052 0.1282 0.2552 0.0
H65 H 0.63435 0.12833 0.26667 0.0
O66 O 0.6716 0.11983 0.61563 0.0
C67 C 0.62529 0.11626 0.46477 0.0
Co68 Co 0.54523 0.66054 0.85841 0.0
Co69 Co 0.53893 0.65212 0.70066 0.0
C70 C 0.57112 0.64758 0.77968 0.0
O71 O 0.56683 0.65386 0.83495 0.0
O72 O 0.56122 0.64554 0.72379 0.0
C73 C 0.56545 0.67771 0.98886 0.0
O74 O 0.5831 0.68592 0.95492 0.0
C75 C 0.54987 0.65906 0.55423 0.0
C76 C 0.51902 0.64785 0.50674 0.0
C77 C 0.54003 0.65739 0.49202 0.0
N78 N 0.53532 0.65114 0.60383 0.0
N79 N 0.5169 0.64412 0.57499 0.0
C80 C 0.57273 0.66986 0.5676 0.0
H81 H 0.57612 0.67565 0.62154 0.0
H82 H 0.58118 0.68293 0.53098 0.0
H83 H 0.57829 0.65865 0.56009 0.0
C84 C 0.55087 0.70134 0.81469 0.0
N85 N 0.54735 0.68207 0.80133 0.0
N86 N 0.54501 0.67866 0.73439 0.0
C87 C 0.54686 0.69568 0.703 0.0
C88 C 0.55083 0.71064 0.75268 0.0
C89 C 0.55473 0.7107 0.88529 0.0
H90 H 0.5693 0.71216 0.90588 0.0
H91 H 0.55621 0.72629 0.88484 0.0
H92 H 0.54189 0.70024 0.92022 0.0
O93 O 0.51757 0.6351 0.85113 0.0
O94 O 0.5122 0.63038 0.73832 0.0
H95 H 0.54153 0.71079 0.6158 0.0
H96 H 0.55618 0.69804 0.59747 0.0
C97 C 0.54307 0.69704 0.62776 0.0
H98 H 0.52857 0.68299 0.61177 0.0
H99 H 0.50295 0.6376 0.60236 0.0
O100 O 0.54838 0.66782 0.95653 0.0
C101 C 0.50616 0.62515 0.80013 0.0
Co102 Co 0.88107 0.54365 0.17736 0.0
Co103 Co 0.88921 0.54021 0.01997 0.0
C104 C 0.92272 0.57101 0.1081 0.0
O105 O 0.91052 0.56478 0.15977 0.0
O106 O 0.9167 0.56304 0.0485 0.0
C107 C 0.88596 0.56465 0.30592 0.0
O108 O 0.90019 0.58073 0.27168 0.0
C109 C 0.8966 0.54996 0.87143 0.0
C110 C 0.87941 0.51851 0.82607 0.0
C111 C 0.89078 0.53935 0.80913 0.0
N112 N 0.88871 0.53597 0.92284 0.0
N113 N 0.87867 0.51721 0.89534 0.0
C114 C 0.9101 0.57284 0.88259 0.0
H115 H 0.92646 0.57648 0.88713 0.0
H116 H 0.90585 0.57756 0.93152 0.0
H117 H 0.90913 0.5819 0.83881 0.0
C118 C 0.84616 0.5472 0.11931 0.0
N119 N 0.86346 0.54585 0.11222 0.0
N120 N 0.86725 0.54519 0.04617 0.0
C121 C 0.85268 0.5466 0.00897 0.0
C122 C 0.8387 0.5477 0.05399 0.0
C123 C 0.83618 0.5462 0.18738 0.0
H124 H 0.83816 0.53561 0.22279 0.0
H125 H 0.84393 0.56191 0.21088 0.0
H126 H 0.81938 0.54073 0.18145 0.0
O127 O 0.87781 0.51565 0.17254 0.0
O128 O 0.88524 0.51417 0.0624 0.0
H129 H 0.84956 0.53273 0.90959 0.0
H130 H 0.84109 0.55169 0.91214 0.0
C131 C 0.85269 0.54777 0.9318 0.0
H132 H 0.86812 0.56004 0.91405 0.0
H133 H 0.87088 0.50352 0.92391 0.0
O134 O 0.87489 0.54762 0.27413 0.0
C135 C 0.8805 0.50619 0.12244 0.0
Co136 Co 0.33469 0.88129 0.50841 0.0
Co137 Co 0.34669 0.88836 0.35123 0.0
C138 C 0.35059 0.9228 0.44024 0.0
O139 O 0.34402 0.91085 0.49236 0.0
O140 O 0.35241 0.91629 0.3813 0.0
C141 C 0.31867 0.88613 0.6371 0.0
O142 O 0.3173 0.90073 0.60344 0.0
C143 C 0.3411 0.89355 0.20326 0.0
C144 C 0.36176 0.88358 0.15603 0.0
C145 C 0.3479 0.89028 0.14028 0.0
N146 N 0.35031 0.88868 0.25383 0.0
N147 N 0.36274 0.88288 0.22519 0.0
C148 C 0.32704 0.90225 0.21544 0.0
H149 H 0.32836 0.90769 0.26948 0.0
H150 H 0.31071 0.89015 0.20593 0.0
H151 H 0.33093 0.91523 0.17911 0.0
C152 C 0.29487 0.84868 0.4505 0.0
N153 N 0.31439 0.86459 0.44304 0.0
N154 N 0.31959 0.86675 0.37729 0.0
C155 C 0.30367 0.85172 0.34109 0.0
C156 C 0.2874 0.84003 0.38606 0.0
C157 C 0.28376 0.84211 0.51823 0.0
H158 H 0.28609 0.85599 0.54708 0.0
H159 H 0.26688 0.83134 0.51129 0.0
H160 H 0.29049 0.83439 0.54936 0.0
O161 O 0.35889 0.87677 0.50275 0.0
O162 O 0.36803 0.88342 0.39247 0.0
H163 H 0.29418 0.82991 0.25644 0.0
H164 H 0.30041 0.85573 0.2334 0.0
C165 C 0.30492 0.84662 0.26706 0.0
H166 H 0.3209 0.8503 0.25405 0.0
H167 H 0.3717 0.87816 0.25288 0.0
O168 O 0.32441 0.87494 0.60493 0.0
C169 C 0.3709 0.87867 0.4529 0.0
Co170 Co 0.45202 0.33603 0.8421 0.0
Co171 Co 0.45799 0.34742 0.68454 0.0
C172 C 0.42635 0.35092 0.7681 0.0
O173 O 0.43106 0.34404 0.82097 0.0
O174 O 0.4357 0.35347 0.71073 0.0
C175 C 0.43083 0.32122 0.9714 0.0
O176 O 0.41525 0.32083 0.93819 0.0
C177 C 0.44866 0.34524 0.53626 0.0
C178 C 0.48002 0.35795 0.49105 0.0
C179 C 0.45926 0.34945 0.47405 0.0
N180 N 0.46256 0.35072 0.58768 0.0
N181 N 0.48127 0.35851 0.56033 0.0
C182 C 0.42595 0.33704 0.54754 0.0
H183 H 0.42371 0.34998 0.56519 0.0
H184 H 0.42013 0.32522 0.58921 0.0
H185 H 0.41681 0.33044 0.49971 0.0
C186 C 0.44818 0.29704 0.7872 0.0
N187 N 0.45026 0.31595 0.77849 0.0
N188 N 0.45178 0.3203 0.71215 0.0
C189 C 0.45039 0.30411 0.67637 0.0
C190 C 0.44823 0.28888 0.72268 0.0
C191 C 0.44789 0.2879 0.85629 0.0
H192 H 0.45891 0.30024 0.89163 0.0
H193 H 0.43209 0.28119 0.87871 0.0
H194 H 0.45209 0.27557 0.85238 0.0
O195 O 0.47985 0.36122 0.83928 0.0
O196 O 0.48445 0.36835 0.72716 0.0
H197 H 0.46613 0.31464 0.57956 0.0
H198 H 0.44655 0.28739 0.58036 0.0
C199 C 0.45056 0.30303 0.59918 0.0
H200 H 0.43898 0.30669 0.5779 0.0
H201 H 0.49488 0.36381 0.58901 0.0
O202 O 0.44749 0.32597 0.93889 0.0
C203 C 0.49092 0.37225 0.78912 0.0
Co204 Co 0.54213 0.88047 0.49554 0.0
Co205 Co 0.53719 0.88781 0.65258 0.0
C206 C 0.56794 0.92202 0.56335 0.0
O207 O 0.5625 0.90998 0.51144 0.0
O208 O 0.55954 0.91566 0.62228 0.0
C209 C 0.56294 0.88525 0.36679 0.0
O210 O 0.57889 0.89988 0.40041 0.0
C211 C 0.54783 0.89328 0.80079 0.0
C212 C 0.517 0.88268 0.84746 0.0
C213 C 0.53761 0.88973 0.8636 0.0
N214 N 0.53378 0.8882 0.74995 0.0
N215 N 0.51544 0.88205 0.77827 0.0
C216 C 0.57066 0.90237 0.78905 0.0
H217 H 0.57487 0.90821 0.73544 0.0
H218 H 0.57512 0.89039 0.79742 0.0
H219 H 0.57953 0.91514 0.82634 0.0
C220 C 0.54951 0.84806 0.55468 0.0
N221 N 0.54564 0.86382 0.56144 0.0
N222 N 0.54263 0.86614 0.62709 0.0
C223 C 0.54379 0.85136 0.66392 0.0
C224 C 0.54856 0.8397 0.61951 0.0
C225 C 0.55423 0.84145 0.48734 0.0
H226 H 0.53981 0.83351 0.45612 0.0
H227 H 0.56568 0.85533 0.45825 0.0
H228 H 0.56052 0.83085 0.49486 0.0
O229 O 0.51348 0.87618 0.50083 0.0
O230 O 0.51096 0.88288 0.61098 0.0
H231 H 0.52519 0.84996 0.75106 0.0
H232 H 0.53197 0.82989 0.74954 0.0
C233 C 0.53766 0.8465 0.73819 0.0
H234 H 0.55131 0.85592 0.7714 0.0
H235 H 0.50176 0.87708 0.75035 0.0
O236 O 0.54603 0.87399 0.39906 0.0
C237 C 0.50337 0.87815 0.55051 0.0
Co238 Co 0.66042 0.54421 0.80729 0.0
Co239 Co 0.64953 0.53988 0.96526 0.0
C240 C 0.64612 0.5709 0.87751 0.0
O241 O 0.6528 0.56562 0.8254 0.0
O242 O 0.64368 0.56207 0.93585 0.0
C243 C 0.677 0.56511 0.67894 0.0
O244 O 0.67956 0.58145 0.71327 0.0
C245 C 0.65302 0.55043 0.11343 0.0
C246 C 0.63761 0.51914 0.16031 0.0
C247 C 0.6479 0.54008 0.17615 0.0
N248 N 0.64629 0.5362 0.06267 0.0
N249 N 0.63691 0.51754 0.0911 0.0
C250 C 0.66342 0.57337 0.10164 0.0
H251 H 0.66852 0.57719 0.04716 0.0
H252 H 0.67694 0.58178 0.13643 0.0
H253 H 0.65226 0.57873 0.11352 0.0
C254 C 0.69913 0.5475 0.86264 0.0
N255 N 0.68052 0.54614 0.87121 0.0
N256 N 0.67644 0.54543 0.9376 0.0
C257 C 0.69256 0.54671 0.97352 0.0
C258 C 0.70741 0.54787 0.9273 0.0
C259 C 0.7078 0.54664 0.79377 0.0
H260 H 0.6951 0.53567 0.75942 0.0
H261 H 0.71511 0.56227 0.76972 0.0
H262 H 0.71957 0.54171 0.7985 0.0
O263 O 0.63498 0.51666 0.81243 0.0
O264 O 0.62828 0.5131 0.92501 0.0
H265 H 0.68181 0.53264 0.07267 0.0
H266 H 0.70944 0.55093 0.0695 0.0
C267 C 0.694 0.54757 0.05067 0.0
H268 H 0.69144 0.56014 0.06946 0.0
H269 H 0.63037 0.50368 0.06323 0.0
O270 O 0.67027 0.54793 0.71049 0.0
C271 C 0.62411 0.50614 0.86365 0.0
Co272 Co 0.11361 0.65998 0.14617 0.0
Co273 Co 0.10855 0.6506 0.30381 0.0
C274 C 0.07341 0.64683 0.2198 0.0
O275 O 0.08466 0.65245 0.16585 0.0
O276 O 0.08045 0.64525 0.27801 0.0
C277 C 0.11104 0.67738 0.01603 0.0
O278 O 0.10054 0.68449 0.04961 0.0
C279 C 0.10378 0.65685 0.45049 0.0
C280 C 0.12256 0.64466 0.49821 0.0
C281 C 0.11148 0.6546 0.51282 0.0
N282 N 0.11028 0.64883 0.4008 0.0
N283 N 0.12114 0.6412 0.4298 0.0
C284 C 0.09231 0.66826 0.43735 0.0
H285 H 0.09494 0.6742 0.38359 0.0
H286 H 0.09722 0.68128 0.4744 0.0
H287 H 0.07545 0.6574 0.44461 0.0
C288 C 0.148 0.70032 0.19468 0.0
N289 N 0.13194 0.68109 0.20602 0.0
N290 N 0.13001 0.67722 0.27273 0.0
C291 C 0.14498 0.69397 0.30606 0.0
C292 C 0.15671 0.70916 0.2578 0.0
C293 C 0.1544 0.71001 0.12475 0.0
H294 H 0.15805 0.70011 0.09142 0.0
H295 H 0.14126 0.71076 0.10084 0.0
H296 H 0.16801 0.72592 0.12722 0.0
O297 O 0.11704 0.63531 0.15388 0.0
O298 O 0.11221 0.628 0.2656 0.0
H299 H 0.14904 0.68055 0.3983 0.0
H300 H 0.16449 0.70834 0.39572 0.0
C301 C 0.14919 0.69487 0.38194 0.0
H302 H 0.13693 0.69611 0.41045 0.0
H303 H 0.12842 0.63453 0.40243 0.0
O304 O 0.11877 0.66803 0.04865 0.0
C305 C 0.11571 0.62398 0.20496 0.0
Co306 Co 0.45505 0.11472 0.4922 0.0
Co307 Co 0.4567 0.10735 0.64969 0.0
C308 C 0.42716 0.07323 0.56103 0.0
O309 O 0.43376 0.08535 0.50915 0.0
O310 O 0.43456 0.0794 0.62126 0.0
C311 C 0.43523 0.11307 0.36309 0.0
O312 O 0.41771 0.10307 0.39752 0.0
C313 C 0.44676 0.10093 0.79856 0.0
C314 C 0.47683 0.12506 0.84136 0.0
C315 C 0.45662 0.11073 0.85925 0.0
N316 N 0.46051 0.10947 0.74669 0.0
N317 N 0.47855 0.12349 0.77292 0.0
C318 C 0.42418 0.08566 0.78891 0.0
H319 H 0.41918 0.08676 0.7359 0.0
H320 H 0.41467 0.0883 0.82738 0.0
H321 H 0.42159 0.06975 0.79659 0.0
C322 C 0.45007 0.14951 0.54322 0.0
N323 N 0.45169 0.13246 0.55299 0.0
N324 N 0.45119 0.12866 0.61947 0.0
C325 C 0.4485 0.14287 0.65416 0.0
C326 C 0.44804 0.15675 0.60721 0.0
C327 C 0.45221 0.15951 0.47436 0.0
H328 H 0.46313 0.15728 0.44135 0.0
H329 H 0.43683 0.15201 0.44857 0.0
H330 H 0.45787 0.17636 0.47971 0.0
O331 O 0.48308 0.11857 0.5015 0.0
O332 O 0.48354 0.11175 0.61262 0.0
H333 H 0.46025 0.14798 0.75739 0.0
H334 H 0.43876 0.15252 0.74571 0.0
C335 C 0.44525 0.14253 0.73051 0.0
H336 H 0.43419 0.1265 0.74715 0.0
H337 H 0.49174 0.13284 0.74346 0.0
O338 O 0.45237 0.12028 0.395 0.0
C339 C 0.49219 0.11641 0.55361 0.0
Co340 Co 0.33652 0.45291 0.81071 0.0
Co341 Co 0.34699 0.457 0.96881 0.0
C342 C 0.35074 0.42617 0.88139 0.0
O343 O 0.34423 0.43159 0.8292 0.0
O344 O 0.35298 0.43485 0.93993 0.0
C345 C 0.32004 0.43188 0.68265 0.0
O346 O 0.31757 0.4156 0.71715 0.0
C347 C 0.34342 0.4466 0.1171 0.0
C348 C 0.35841 0.47795 0.16356 0.0
C349 C 0.34836 0.45703 0.17967 0.0
N350 N 0.35002 0.46078 0.06616 0.0
N351 N 0.35913 0.47947 0.09435 0.0
C352 C 0.33337 0.42368 0.10561 0.0
H353 H 0.32849 0.41975 0.051 0.0
H354 H 0.31973 0.41515 0.13987 0.0
H355 H 0.34466 0.41856 0.11842 0.0
C356 C 0.29763 0.44941 0.86496 0.0
N357 N 0.31624 0.45082 0.87405 0.0
N358 N 0.32011 0.45138 0.94054 0.0
C359 C 0.30384 0.44992 0.97602 0.0
C360 C 0.28911 0.44881 0.92937 0.0
C361 C 0.2892 0.45045 0.79587 0.0
H362 H 0.30202 0.46147 0.76196 0.0
H363 H 0.28191 0.43488 0.77147 0.0
H364 H 0.27746 0.45544 0.80035 0.0
O365 O 0.36183 0.48054 0.81616 0.0
O366 O 0.36831 0.4838 0.9288 0.0
H367 H 0.31405 0.46381 0.07565 0.0
H368 H 0.28654 0.44513 0.07139 0.0
C369 C 0.30213 0.44883 0.0531 0.0
H370 H 0.30495 0.43641 0.0718 0.0
H371 H 0.36554 0.49328 0.06628 0.0
O372 O 0.32675 0.4491 0.71392 0.0
C373 C 0.37262 0.49095 0.86766 0.0
Co374 Co 0.88199 0.33679 0.15998 0.0
Co375 Co 0.88973 0.34787 0.31757 0.0
C376 C 0.92352 0.35109 0.22921 0.0
O377 O 0.91139 0.34509 0.17741 0.0
O378 O 0.91741 0.35297 0.28874 0.0
C379 C 0.8866 0.32043 0.03161 0.0
O380 O 0.9006 0.3182 0.06588 0.0
C381 C 0.89666 0.34471 0.46604 0.0
C382 C 0.88046 0.35995 0.51192 0.0
C383 C 0.8912 0.3498 0.52845 0.0
N384 N 0.88919 0.35132 0.41483 0.0
N385 N 0.87972 0.3606 0.44267 0.0
C386 C 0.90944 0.33454 0.4549 0.0
H387 H 0.90751 0.32852 0.4014 0.0
H388 H 0.9052 0.32175 0.49222 0.0
H389 H 0.92604 0.34621 0.46326 0.0
C390 C 0.84734 0.29793 0.21626 0.0
N391 N 0.86439 0.31669 0.22431 0.0
N392 N 0.86795 0.32092 0.29056 0.0
C393 C 0.8534 0.30468 0.32695 0.0
C394 C 0.83975 0.28962 0.28113 0.0
C395 C 0.83769 0.28912 0.14768 0.0
H396 H 0.83918 0.30171 0.11328 0.0
H397 H 0.84607 0.28191 0.12338 0.0
H398 H 0.82103 0.27723 0.15293 0.0
O399 O 0.87856 0.36141 0.16561 0.0
O400 O 0.88548 0.36989 0.27618 0.0
H401 H 0.8504 0.31538 0.4266 0.0
H402 H 0.84123 0.28779 0.42323 0.0
C403 C 0.85315 0.30325 0.40408 0.0
H404 H 0.86841 0.30594 0.42198 0.0
H405 H 0.87237 0.36701 0.41433 0.0
O406 O 0.87588 0.32683 0.06325 0.0
C407 C 0.8809 0.37331 0.21615 0.0
C408 C 0.03584 0.41246 0.07972 0.0
C409 C 0.05125 0.41067 0.11527 0.0
C410 C 0.01492 0.40056 0.09908 0.0
C411 C 0.0093 0.38608 0.15381 0.0
C412 C 0.02467 0.38321 0.18664 0.0
C413 C 0.04556 0.39582 0.16776 0.0
C414 C -0.00096 0.4044 0.06375 0.0
C415 C 0.01918 0.36739 0.24339 0.0
C416 C 0.96094 0.37533 0.25264 0.0
C417 C 0.94561 0.35795 0.21758 0.0
C418 C 0.98189 0.38432 0.23367 0.0
C419 C 0.98761 0.37524 0.17989 0.0
C420 C 0.97232 0.35682 0.14771 0.0
C421 C 0.95141 0.34858 0.16613 0.0
C422 C 0.99768 0.40423 0.26825 0.0
C423 C 0.97792 0.34627 0.09202 0.0
H424 H 0.04026 0.42407 0.03953 0.0
H425 H 0.05749 0.39433 0.1949 0.0
H426 H 0.98617 0.38966 0.04306 0.0
H427 H 0.99223 0.41047 0.10179 0.0
H428 H 0.00586 0.41571 0.0207 0.0
H429 H 0.03242 0.36509 0.25681 0.0
H430 H 0.01455 0.37259 0.29039 0.0
H431 H 0.00578 0.35224 0.22783 0.0
H432 H 0.95643 0.38268 0.29203 0.0
H433 H 0.93953 0.33501 0.1394 0.0
H434 H 0.00442 0.41695 0.22961 0.0
H435 H 0.01062 0.40257 0.28943 0.0
H436 H 0.9908 0.40885 0.3108 0.0
H437 H 0.98251 0.35584 0.04445 0.0
H438 H 0.96475 0.33062 0.07929 0.0
H439 H 0.99139 0.34471 0.10827 0.0
C440 C 0.64686 0.04406 0.51081 0.0
C441 C 0.63854 0.05053 0.45784 0.0
C442 C 0.63782 0.023 0.52833 0.0
C443 C 0.6197 0.00823 0.4934 0.0
C444 C 0.61169 0.01461 0.43818 0.0
C445 C 0.62142 0.0357 0.42038 0.0
C446 C 0.64722 0.01669 0.58586 0.0
C447 C 0.59216 -0.00063 0.4005 0.0
C448 C 0.59862 0.95016 0.50236 0.0
C449 C 0.58308 0.94418 0.5526 0.0
C450 C 0.61148 0.97113 0.48511 0.0
C451 C 0.60821 0.98633 0.51737 0.0
C452 C 0.59296 0.98041 0.56972 0.0
C453 C 0.58077 0.95939 0.58746 0.0
C454 C 0.62804 0.97692 0.43078 0.0
C455 C 0.58874 0.99613 0.60434 0.0
H456 H 0.66022 0.05553 0.53941 0.0
H457 H 0.61488 0.04071 0.3798 0.0
H458 H 0.63677 0.01166 0.63137 0.0
H459 H 0.64893 0.00332 0.5696 0.0
H460 H 0.66265 0.02961 0.60189 0.0
H461 H 0.58839 0.00673 0.35726 0.0
H462 H 0.59378 0.98636 0.37963 0.0
H463 H 0.57889 0.99261 0.43708 0.0
H464 H 0.60052 0.93839 0.47578 0.0
H465 H 0.56863 0.95473 0.62587 0.0
H466 H 0.64308 0.98993 0.44916 0.0
H467 H 0.62373 0.98229 0.38349 0.0
H468 H 0.63021 0.96364 0.41681 0.0
H469 H 0.60319 0.00878 0.62744 0.0
H470 H 0.57677 0.98907 0.64545 0.0
H471 H 0.58334 0.00331 0.56533 0.0
C472 C 0.62246 0.58456 0.90564 0.0
C473 C 0.63914 0.58612 0.86724 0.0
C474 C 0.61341 0.59662 0.88875 0.0
C475 C 0.62163 0.61093 0.83334 0.0
C476 C 0.63928 0.61347 0.79719 0.0
C477 C 0.64766 0.60081 0.81398 0.0
C478 C 0.59441 0.59326 0.92793 0.0
C479 C 0.64888 0.62904 0.73933 0.0
C480 C 0.58316 0.62296 0.74674 0.0
C481 C 0.5864 0.64052 0.78365 0.0
C482 C 0.59508 0.61356 0.76063 0.0
C483 C 0.61095 0.62232 0.81119 0.0
C484 C 0.61532 0.64099 0.84463 0.0
C485 C 0.60276 0.6497 0.83122 0.0
C486 C 0.58975 0.59348 0.72462 0.0
C487 C 0.63257 0.65119 0.89706 0.0
H488 H 0.61574 0.5731 0.94647 0.0
H489 H 0.66068 0.60216 0.78455 0.0
H490 H 0.597 0.60814 0.94989 0.0
H491 H 0.581 0.58752 0.89213 0.0
H492 H 0.59025 0.58187 0.9706 0.0
H493 H 0.66388 0.63074 0.7218 0.0
H494 H 0.63811 0.62404 0.6947 0.0
H495 H 0.65152 0.64445 0.756 0.0
H496 H 0.5704 0.61577 0.71036 0.0
H497 H 0.60537 0.6634 0.85942 0.0
H498 H 0.58373 0.58068 0.76293 0.0
H499 H 0.60382 0.59453 0.70096 0.0
H500 H 0.57785 0.5894 0.68375 0.0
H501 H 0.62816 0.64168 0.94479 0.0
H502 H 0.63585 0.66705 0.91079 0.0
H503 H 0.64702 0.65216 0.87711 0.0
C504 C 0.03637 0.62262 0.24865 0.0
C505 C 0.0512 0.63999 0.21222 0.0
C506 C 0.0152 0.61348 0.23255 0.0
C507 C 0.00877 0.62239 0.18035 0.0
C508 C 0.02358 0.64089 0.14722 0.0
C509 C 0.0447 0.64927 0.16265 0.0
C510 C -6e-05 0.59351 0.26806 0.0
C511 C 0.01723 0.65128 0.09327 0.0
C512 C 0.96015 0.58477 0.08285 0.0
C513 C 0.9448 0.58629 0.11987 0.0
C514 C 0.98114 0.59684 0.10104 0.0
C515 C 0.98689 0.61121 0.15616 0.0
C516 C 0.97155 0.61377 0.19071 0.0
C517 C 0.9506 0.601 0.17289 0.0
C518 C 0.997 0.59336 0.06381 0.0
C519 C 0.97716 0.62945 0.248 0.0
H520 H 0.04142 0.61536 0.28657 0.0
H521 H 0.05621 0.66282 0.13483 0.0
H522 H 0.98695 0.59487 0.2905 0.0
H523 H 0.99315 0.58071 0.22969 0.0
H524 H 0.0073 0.58918 0.3098 0.0
H525 H 0.03008 0.66709 0.08033 0.0
H526 H 0.01249 0.64183 0.04543 0.0
H527 H 0.00369 0.65245 0.11135 0.0
H528 H 0.95566 0.57328 0.04222 0.0
H529 H 0.93872 0.6023 0.20117 0.0
H530 H 0.00436 0.5876 0.10081 0.0
H531 H 0.00949 0.60819 0.04224 0.0
H532 H 0.99003 0.58195 0.02109 0.0
H533 H 0.9823 0.62436 0.29402 0.0
H534 H 0.96384 0.63143 0.26315 0.0
H535 H 0.99028 0.64474 0.23198 0.0
C536 C 0.41352 0.03579 0.58591 0.0
C537 C 0.41202 0.05115 0.54892 0.0
C538 C 0.40157 0.01481 0.56723 0.0
C539 C 0.38735 0.0091 0.51169 0.0
C540 C 0.38481 0.02446 0.47718 0.0
C541 C 0.39747 0.04538 0.49543 0.0
C542 C 0.40504 -0.00105 0.60436 0.0
C543 C 0.36928 0.01888 0.41947 0.0
C544 C 0.37584 0.95997 0.41624 0.0
C545 C 0.35808 0.94506 0.45089 0.0
C546 C 0.38525 0.98101 0.4344 0.0
C547 C 0.37627 0.98728 0.48693 0.0
C548 C 0.35755 0.97242 0.51881 0.0
C549 C 0.34886 0.9514 0.5012 0.0
C550 C 0.40545 0.99634 0.40021 0.0
C551 C 0.34712 0.97859 0.57323 0.0
H552 H 0.42491 0.04027 0.62685 0.0
H553 H 0.39623 0.05729 0.4671 0.0
H554 H 0.39016 0.98629 0.62503 0.0
H555 H 0.41109 0.99181 0.56748 0.0
H556 H 0.41623 0.00585 0.64768 0.0
H557 H 0.36736 0.03222 0.40406 0.0
H558 H 0.37445 0.01371 0.37369 0.0
H559 H 0.35393 0.00579 0.4352 0.0
H560 H 0.38307 0.95504 0.37779 0.0
H561 H 0.33502 0.93985 0.52767 0.0
H562 H 0.41802 0.00302 0.43938 0.0
H563 H 0.40423 0.00938 0.3776 0.0
H564 H 0.41002 0.98907 0.35879 0.0
H565 H 0.35665 0.98339 0.6209 0.0
H566 H 0.33137 0.96567 0.58635 0.0
H567 H 0.34582 0.99208 0.55543 0.0
C568 C 0.34924 0.39636 0.81747 0.0
C569 C 0.35775 0.41099 0.87091 0.0
C570 C 0.35779 0.38393 0.79974 0.0
C571 C 0.37559 0.38661 0.83516 0.0
C572 C 0.38373 0.40075 0.89106 0.0
C573 C 0.37451 0.4126 0.90886 0.0
C574 C 0.34828 0.36854 0.74136 0.0
C575 C 0.40288 0.40425 0.92949 0.0
C576 C 0.39522 0.34846 0.82547 0.0
C577 C 0.41119 0.35803 0.77666 0.0
C578 C 0.38266 0.35695 0.8423 0.0
C579 C 0.38664 0.37577 0.811 0.0
C580 C 0.40222 0.38504 0.75963 0.0
C581 C 0.41414 0.37586 0.74234 0.0
C582 C 0.36574 0.34624 0.89555 0.0
C583 C 0.40715 0.40531 0.72587 0.0
H584 H 0.33614 0.39496 0.78844 0.0
H585 H 0.38121 0.424 0.94987 0.0
H586 H 0.35891 0.37393 0.6963 0.0
H587 H 0.34606 0.3532 0.75691 0.0
H588 H 0.33307 0.36654 0.7249 0.0
H589 H 0.40674 0.4152 0.97339 0.0
H590 H 0.4007 0.38933 0.94959 0.0
H591 H 0.41632 0.41063 0.89362 0.0
H592 H 0.39283 0.33454 0.85163 0.0
H593 H 0.42661 0.38336 0.70503 0.0
H594 H 0.35102 0.34493 0.87689 0.0
H595 H 0.37015 0.35558 0.94364 0.0
H596 H 0.36291 0.33047 0.90825 0.0
H597 H 0.39295 0.40408 0.70266 0.0
H598 H 0.41917 0.41004 0.68502 0.0
H599 H 0.41281 0.41775 0.76544 0.0
C600 C 0.09485 0.45501 0.67975 0.0
C601 C 0.10311 0.44839 0.73213 0.0
C602 C 0.0956 0.44984 0.61064 0.0
C603 C 0.1053 0.43817 0.59362 0.0
C604 C 0.11322 0.431 0.64671 0.0
C605 C 0.11204 0.43622 0.71556 0.0
C606 C 0.08676 0.4576 0.55562 0.0
C607 C 0.12391 0.41877 0.63056 0.0
C608 C 0.09469 0.41613 0.41208 0.0
C609 C 0.11127 0.43212 0.37551 0.0
C610 C 0.093 0.41737 0.48388 0.0
C611 C 0.10838 0.43488 0.51986 0.0
C612 C 0.12588 0.45035 0.48384 0.0
C613 C 0.12705 0.44884 0.41201 0.0
C614 C 0.0741 0.40059 0.52046 0.0
C615 C 0.14282 0.4691 0.52058 0.0
H616 H 0.08818 0.46464 0.69283 0.0
H617 H 0.11909 0.43174 0.75596 0.0
H618 H 0.0995 0.46911 0.52247 0.0
H619 H 0.07596 0.44458 0.52193 0.0
H620 H 0.07832 0.46505 0.57788 0.0
H621 H 0.12723 0.4125 0.67787 0.0
H622 H 0.11424 0.40569 0.59532 0.0
H623 H 0.1388 0.42894 0.6037 0.0
H624 H 0.08241 0.40315 0.38426 0.0
H625 H 0.14001 0.46115 0.38412 0.0
H626 H 0.0641 0.40692 0.53734 0.0
H627 H 0.07872 0.39536 0.56741 0.0
H628 H 0.06479 0.38693 0.48678 0.0
H629 H 0.13662 0.47909 0.53882 0.0
H630 H 0.15638 0.47851 0.48659 0.0
H631 H 0.14819 0.46425 0.56664 0.0
C632 C 0.67289 0.09026 0.76026 0.0
C633 C 0.67723 0.10826 0.72362 0.0
C634 C 0.6698 0.08907 0.83194 0.0
C635 C 0.67148 0.10642 0.8678 0.0
C636 C 0.67733 0.12512 0.83172 0.0
C637 C 0.67995 0.12575 0.75989 0.0
C638 C 0.6634 0.06881 0.86845 0.0
C639 C 0.67973 0.14411 0.8684 0.0
C640 C 0.63875 0.09879 0.02683 0.0
C641 C 0.65327 0.10388 0.07979 0.0
C642 C 0.64432 0.09876 0.95775 0.0
C643 C 0.66507 0.10445 0.94135 0.0
C644 C 0.67973 0.10924 0.99492 0.0
C645 C 0.67362 0.10887 0.06375 0.0
C646 C 0.62816 0.09328 0.90218 0.0
C647 C 0.70205 0.11568 0.97938 0.0
H648 H 0.6707 0.07665 0.73249 0.0
H649 H 0.68348 0.13976 0.73181 0.0
H650 H 0.67287 0.07148 0.91558 0.0
H651 H 0.64695 0.06173 0.88502 0.0
H652 H 0.66495 0.05755 0.83483 0.0
H653 H 0.68671 0.15805 0.83461 0.0
H654 H 0.66429 0.14121 0.88583 0.0
H655 H 0.68959 0.14747 0.91497 0.0
H656 H 0.62308 0.09515 0.0395 0.0
H657 H 0.685 0.11342 0.10474 0.0
H658 H 0.62755 0.08099 0.86814 0.0
H659 H 0.63242 0.10709 0.8695 0.0
H660 H 0.61243 0.08779 0.92389 0.0
H661 H 0.70285 0.10425 0.94462 0.0
H662 H 0.71104 0.1172 0.02695 0.0
H663 H 0.70958 0.13084 0.95216 0.0
C664 C 0.56312 0.65991 0.39494 0.0
C665 C 0.54936 0.66543 0.42411 0.0
C666 C 0.56933 0.66471 0.32582 0.0
C667 C 0.56183 0.67559 0.28614 0.0
C668 C 0.54937 0.68273 0.31759 0.0
C669 C 0.543 0.67726 0.38607 0.0
C670 C 0.58236 0.65655 0.29384 0.0
C671 C 0.54144 0.69476 0.2775 0.0
C672 C 0.58136 0.69322 0.10329 0.0
C673 C 0.56513 0.67757 0.06482 0.0
C674 C 0.58069 0.69286 0.17584 0.0
C675 C 0.56368 0.67617 0.20991 0.0
C676 C 0.54757 0.66008 0.17099 0.0
C677 C 0.54838 0.66113 0.09903 0.0
C678 C 0.59787 0.71046 0.21592 0.0
C679 C 0.52933 0.64179 0.20529 0.0
H680 H 0.56791 0.65068 0.42469 0.0
H681 H 0.53254 0.68172 0.40937 0.0
H682 H 0.57238 0.64307 0.26038 0.0
H683 H 0.59474 0.66852 0.26081 0.0
H684 H 0.58963 0.65144 0.33353 0.0
H685 H 0.53507 0.70216 0.312 0.0
H686 H 0.55401 0.70697 0.24561 0.0
H687 H 0.52892 0.68409 0.24197 0.0
H688 H 0.59431 0.70593 0.07671 0.0
H689 H 0.53596 0.64882 0.06939 0.0
H690 H 0.60461 0.70435 0.25397 0.0
H691 H 0.59145 0.71878 0.2454 0.0
H692 H 0.61048 0.72177 0.1818 0.0
H693 H 0.53489 0.63424 0.24219 0.0
H694 H 0.51883 0.62997 0.16742 0.0
H695 H 0.52018 0.64719 0.23508 0.0
C696 C 0.89989 0.53975 0.6858 0.0
C697 C 0.89291 0.54756 0.73861 0.0
C698 C 0.89931 0.54502 0.61671 0.0
C699 C 0.89109 0.55805 0.60011 0.0
C700 C 0.88444 0.56636 0.65358 0.0
C701 C 0.88542 0.56099 0.7224 0.0
C702 C 0.90678 0.53602 0.56128 0.0
C703 C 0.87533 0.58006 0.63791 0.0
C704 C 0.90291 0.58016 0.41869 0.0
C705 C 0.88564 0.56502 0.38225 0.0
C706 C 0.90452 0.57865 0.49039 0.0
C707 C 0.88834 0.56177 0.52648 0.0
C708 C 0.87024 0.54726 0.49063 0.0
C709 C 0.86918 0.54897 0.41882 0.0
C710 C 0.9241 0.59436 0.5267 0.0
C711 C 0.85245 0.52926 0.52752 0.0
H712 H 0.90543 0.52915 0.69858 0.0
H713 H 0.87936 0.56645 0.7632 0.0
H714 H 0.8935 0.52519 0.52854 0.0
H715 H 0.91818 0.54855 0.52728 0.0
H716 H 0.91413 0.52744 0.58315 0.0
H717 H 0.87276 0.58685 0.6854 0.0
H718 H 0.88569 0.59286 0.60274 0.0
H719 H 0.86023 0.57082 0.61111 0.0
H720 H 0.91573 0.59261 0.39079 0.0
H721 H 0.85571 0.53733 0.39099 0.0
H722 H 0.933 0.58679 0.54334 0.0
H723 H 0.92029 0.60028 0.57378 0.0
H724 H 0.93421 0.60773 0.49294 0.0
H725 H 0.85741 0.51823 0.5453 0.0
H726 H 0.83863 0.52075 0.49378 0.0
H727 H 0.84789 0.5348 0.57389 0.0
C728 C 0.32018 0.88335 0.05378 0.0
C729 C 0.34126 0.89176 0.06978 0.0
C730 C 0.31367 0.88229 0.98508 0.0
C731 C 0.32864 0.88983 0.93155 0.0
C732 C 0.35 0.89898 0.94791 0.0
C733 C 0.35602 0.89967 0.0168 0.0
C734 C 0.29076 0.87224 0.96958 0.0
C735 C 0.36648 0.90741 0.89241 0.0
C736 C 0.31733 0.86885 0.74912 0.0
C737 C 0.31731 0.88522 0.71333 0.0
C738 C 0.31962 0.86953 0.82108 0.0
C739 C 0.32217 0.8871 0.85795 0.0
C740 C 0.32083 0.90305 0.82266 0.0
C741 C 0.31829 0.90186 0.75071 0.0
C742 C 0.3206 0.85202 0.85704 0.0
C743 C 0.32349 0.92203 0.86014 0.0
H744 H 0.30867 0.87661 0.09433 0.0
H745 H 0.37231 0.9061 0.02923 0.0
H746 H 0.28766 0.8822 0.93467 0.0
H747 H 0.28554 0.85727 0.9426 0.0
H748 H 0.28132 0.86918 0.01718 0.0
H749 H 0.38244 0.91525 0.91417 0.0
H750 H 0.36462 0.89454 0.85861 0.0
H751 H 0.36474 0.91864 0.85948 0.0
H752 H 0.31634 0.85584 0.72062 0.0
H753 H 0.31825 0.91457 0.72348 0.0
H754 H 0.31042 0.8469 0.90325 0.0
H755 H 0.3367 0.85755 0.87492 0.0
H756 H 0.31587 0.83844 0.82259 0.0
H757 H 0.31369 0.9175 0.90721 0.0
H758 H 0.31947 0.93171 0.82706 0.0
H759 H 0.33989 0.93165 0.87688 0.0
C760 C 0.4167 0.32397 0.08533 0.0
C761 C 0.43063 0.32026 0.04761 0.0
C762 C 0.41871 0.32688 0.15707 0.0
C763 C 0.43482 0.3257 0.19182 0.0
C764 C 0.44796 0.32046 0.15466 0.0
C765 C 0.44581 0.31796 0.08284 0.0
C766 C 0.40448 0.33256 0.19484 0.0
C767 C 0.46506 0.31865 0.19014 0.0
C768 C 0.45978 0.35852 0.35068 0.0
C769 C 0.45094 0.34384 0.40353 0.0
C770 C 0.454 0.35294 0.28174 0.0
C771 C 0.43938 0.33205 0.26535 0.0
C772 C 0.43011 0.31722 0.31884 0.0
C773 C 0.43601 0.32333 0.38754 0.0
C774 C 0.46405 0.36927 0.22625 0.0
C775 C 0.41472 0.29477 0.30329 0.0
H776 H 0.40493 0.3258 0.05841 0.0
H777 H 0.45648 0.31489 0.05397 0.0
H778 H 0.39811 0.32296 0.24196 0.0
H779 H 0.41345 0.34902 0.21155 0.0
H780 H 0.39137 0.33058 0.16202 0.0
H781 H 0.47228 0.31211 0.15554 0.0
H782 H 0.47732 0.33423 0.20756 0.0
H783 H 0.45897 0.30866 0.2366 0.0
H784 H 0.47148 0.37433 0.36332 0.0
H785 H 0.42967 0.31185 0.42842 0.0
H786 H 0.452 0.36951 0.19317 0.0
H787 H 0.47378 0.36548 0.19259 0.0
H788 H 0.47401 0.38505 0.24804 0.0
H789 H 0.40217 0.29358 0.2693 0.0
H790 H 0.40762 0.28561 0.35092 0.0
H791 H 0.42265 0.28769 0.27521 0.0
C792 C 0.55869 0.88317 0.95005 0.0
C793 C 0.54563 0.89115 0.93425 0.0
C794 C 0.56412 0.88206 0.01873 0.0
C795 C 0.55626 0.8891 0.07249 0.0
C796 C 0.54362 0.89779 0.05637 0.0
C797 C 0.53833 0.89854 0.98748 0.0
C798 C 0.57743 0.8725 0.03395 0.0
C799 C 0.53511 0.90568 0.11212 0.0
C800 C 0.54714 0.86791 0.25467 0.0
C801 C 0.56333 0.88445 0.29053 0.0
C802 C 0.54545 0.86863 0.18273 0.0
C803 C 0.56014 0.88643 0.14601 0.0
C804 C 0.57723 0.9026 0.18138 0.0
C805 C 0.57869 0.90135 0.25325 0.0
C806 C 0.52721 0.85088 0.14666 0.0
C807 C 0.59318 0.92185 0.14409 0.0
H808 H 0.56381 0.87681 0.90929 0.0
H809 H 0.52815 0.90462 0.97522 0.0
H810 H 0.59041 0.88267 0.06882 0.0
H811 H 0.56799 0.85746 0.06091 0.0
H812 H 0.58396 0.86969 0.98625 0.0
H813 H 0.52662 0.91317 0.09059 0.0
H814 H 0.52432 0.89259 0.14564 0.0
H815 H 0.5479 0.91709 0.14528 0.0
H816 H 0.53535 0.85471 0.2831 0.0
H817 H 0.59128 0.91421 0.28054 0.0
H818 H 0.53248 0.84606 0.10024 0.0
H819 H 0.51628 0.85601 0.12909 0.0
H820 H 0.51865 0.83719 0.18092 0.0
H821 H 0.59871 0.91763 0.09696 0.0
H822 H 0.60677 0.9318 0.17724 0.0
H823 H 0.58595 0.93108 0.12747 0.0
C824 C 0.67737 0.54891 0.56648 0.0
C825 C 0.67803 0.56555 0.6027 0.0
C826 C 0.67482 0.54736 0.49462 0.0
C827 C 0.67265 0.56269 0.45831 0.0
C828 C 0.67453 0.58015 0.49403 0.0
C829 C 0.67733 0.58144 0.56588 0.0
C830 C 0.67327 0.52868 0.45817 0.0
C831 C 0.67227 0.59678 0.45712 0.0
C832 C 0.67518 0.56102 0.26281 0.0
C833 C 0.65414 0.54857 0.24621 0.0
C834 C 0.6815 0.56648 0.3316 0.0
C835 C 0.66635 0.55928 0.38455 0.0
C836 C 0.64501 0.54736 0.36744 0.0
C837 C 0.63918 0.54195 0.29842 0.0
C838 C 0.70439 0.57898 0.34788 0.0
C839 C 0.62836 0.53956 0.42232 0.0
H840 H 0.67811 0.5367 0.59459 0.0
H841 H 0.67783 0.59435 0.59353 0.0
H842 H 0.65713 0.51854 0.43978 0.0
H843 H 0.68356 0.5336 0.41223 0.0
H844 H 0.67751 0.51939 0.4924 0.0
H845 H 0.67651 0.61046 0.49059 0.0
H846 H 0.68211 0.60201 0.41015 0.0
H847 H 0.65592 0.59032 0.44025 0.0
H848 H 0.68678 0.56552 0.22254 0.0
H849 H 0.62293 0.53212 0.28529 0.0
H850 H 0.70928 0.56896 0.37487 0.0
H851 H 0.70762 0.59203 0.38302 0.0
H852 H 0.71399 0.58532 0.3006 0.0
H853 H 0.62967 0.52816 0.45578 0.0
H854 H 0.61248 0.53197 0.39992 0.0
H855 H 0.63043 0.55259 0.45572 0.0
C856 C 0.0917 0.65608 0.61393 0.0
C857 C 0.11069 0.66306 0.58036 0.0
C858 C 0.09116 0.66126 0.68326 0.0
C859 C 0.11006 0.67406 0.71848 0.0
C860 C 0.12914 0.68263 0.68236 0.0
C861 C 0.12924 0.67672 0.61385 0.0
C862 C 0.07054 0.65152 0.72027 0.0
C863 C 0.14956 0.69676 0.7175 0.0
C864 C 0.10862 0.69178 0.90163 0.0
C865 C 0.11143 0.67739 0.93998 0.0
C866 C 0.10831 0.69111 0.82908 0.0
C867 C 0.11027 0.67535 0.79486 0.0
C868 C 0.11289 0.6607 0.83362 0.0
C869 C 0.11371 0.66208 0.90555 0.0
C870 C 0.10605 0.70728 0.78912 0.0
C871 C 0.11468 0.64341 0.79919 0.0
H872 H 0.07742 0.64549 0.58745 0.0
H873 H 0.14388 0.68225 0.58702 0.0
H874 H 0.06928 0.63904 0.75484 0.0
H875 H 0.06932 0.6631 0.75294 0.0
H876 H 0.05726 0.64463 0.68371 0.0
H877 H 0.16236 0.70499 0.67968 0.0
H878 H 0.14838 0.70842 0.74992 0.0
H879 H 0.15368 0.68744 0.75196 0.0
H880 H 0.10688 0.70364 0.92828 0.0
H881 H 0.11562 0.65075 0.93501 0.0
H882 H 0.09207 0.6997 0.75579 0.0
H883 H 0.11964 0.71592 0.75462 0.0
H884 H 0.10477 0.71855 0.82351 0.0
H885 H 0.10108 0.63425 0.76522 0.0
H886 H 0.11562 0.6327 0.83712 0.0
H887 H 0.12877 0.65003 0.76626 0.0
C888 C 0.41727 0.10795 0.24913 0.0
C889 C 0.43531 0.11316 0.28688 0.0
C890 C 0.41721 0.10677 0.17668 0.0
C891 C 0.4355 0.11046 0.1419 0.0
C892 C 0.45372 0.11575 0.17991 0.0
C893 C 0.45346 0.11725 0.25173 0.0
C894 C 0.39768 0.10158 0.13744 0.0
C895 C 0.47351 0.1196 0.14484 0.0
C896 C 0.43766 0.09085 0.96386 0.0
C897 C 0.44739 0.10953 0.92723 0.0
C898 C 0.43213 0.09053 0.03332 0.0
C899 C 0.43614 0.10929 0.06561 0.0
C900 C 0.44425 0.1278 0.02652 0.0
C901 C 0.45007 0.12775 0.9579 0.0
C902 C 0.42374 0.07055 0.07353 0.0
C903 C 0.44832 0.14801 0.05854 0.0
H904 H 0.40322 0.10479 0.27615 0.0
H905 H 0.46743 0.12111 0.2805 0.0
H906 H 0.40091 0.11407 0.09972 0.0
H907 H 0.39235 0.08705 0.10763 0.0
H908 H 0.38491 0.09961 0.1721 0.0
H909 H 0.48607 0.12278 0.18228 0.0
H910 H 0.4705 0.1059 0.11336 0.0
H911 H 0.47913 0.13305 0.10935 0.0
H912 H 0.43563 0.07681 0.9396 0.0
H913 H 0.45737 0.14213 0.92873 0.0
H914 H 0.41049 0.06809 0.10645 0.0
H915 H 0.43606 0.07147 0.10817 0.0
H916 H 0.4186 0.05689 0.03909 0.0
H917 H 0.43506 0.14559 0.09137 0.0
H918 H 0.4511 0.1599 0.01883 0.0
H919 H 0.46225 0.15417 0.09208 0.0
C920 C 0.31891 0.44764 0.57026 0.0
C921 C 0.31891 0.43134 0.60648 0.0
C922 C 0.32134 0.4492 0.49838 0.0
C923 C 0.32409 0.43421 0.46208 0.0
C924 C 0.32288 0.41705 0.49783 0.0
C925 C 0.32015 0.41574 0.56971 0.0
C926 C 0.32216 0.46753 0.46187 0.0
C927 C 0.3258 0.40081 0.46092 0.0
C928 C 0.32136 0.43565 0.26663 0.0
C929 C 0.34233 0.44859 0.24986 0.0
C930 C 0.31516 0.43009 0.33547 0.0
C931 C 0.33034 0.43776 0.38829 0.0
C932 C 0.35162 0.45024 0.37104 0.0
C933 C 0.35732 0.45568 0.30196 0.0
C934 C 0.29234 0.41699 0.35193 0.0
C935 C 0.3683 0.45856 0.42582 0.0
H936 H 0.31773 0.45962 0.5984 0.0
H937 H 0.32018 0.40309 0.5974 0.0
H938 H 0.3382 0.4781 0.44337 0.0
H939 H 0.31185 0.46229 0.416 0.0
H940 H 0.31748 0.47647 0.49611 0.0
H941 H 0.32203 0.38726 0.49446 0.0
H942 H 0.31593 0.39527 0.41406 0.0
H943 H 0.34219 0.40776 0.44386 0.0
H944 H 0.30971 0.43079 0.22647 0.0
H945 H 0.37351 0.46589 0.2887 0.0
H946 H 0.28699 0.42664 0.37895 0.0
H947 H 0.28955 0.40408 0.38711 0.0
H948 H 0.28277 0.41038 0.30473 0.0
H949 H 0.36653 0.46968 0.45927 0.0
H950 H 0.38417 0.46662 0.40332 0.0
H951 H 0.36672 0.44573 0.45925 0.0
C952 C 0.90127 0.35853 0.65108 0.0
C953 C 0.89329 0.3436 0.59877 0.0
C954 C 0.90074 0.35271 0.72017 0.0
C955 C 0.89156 0.33138 0.73724 0.0
C956 C 0.88392 0.31626 0.68422 0.0
C957 C 0.88487 0.32257 0.61538 0.0
C958 C 0.90926 0.36934 0.77514 0.0
C959 C 0.87379 0.29339 0.70044 0.0
C960 C 0.90287 0.32055 0.91858 0.0
C961 C 0.8861 0.3195 0.95534 0.0
C962 C 0.90442 0.32344 0.84677 0.0
C963 C 0.8887 0.32505 0.81099 0.0
C964 C 0.87104 0.32254 0.84722 0.0
C965 C 0.87001 0.31992 0.91905 0.0
C966 C 0.92349 0.32609 0.80996 0.0
C967 C 0.85376 0.32379 0.81069 0.0
H968 H 0.90755 0.37477 0.63795 0.0
H969 H 0.87803 0.31098 0.57501 0.0
H970 H 0.8964 0.36775 0.80845 0.0
H971 H 0.92033 0.36751 0.80868 0.0
H972 H 0.91731 0.38523 0.75283 0.0
H973 H 0.87065 0.28382 0.65314 0.0
H974 H 0.88375 0.29032 0.73549 0.0
H975 H 0.85886 0.2883 0.72754 0.0
H976 H 0.91538 0.32026 0.94626 0.0
H977 H 0.85692 0.31891 0.94711 0.0
H978 H 0.93314 0.34246 0.79304 0.0
H979 H 0.91906 0.31624 0.76303 0.0
H980 H 0.93311 0.3221 0.84351 0.0
H981 H 0.85953 0.33991 0.79243 0.0
H982 H 0.84016 0.31931 0.84483 0.0
H983 H 0.84858 0.31355 0.76466 0.0
C984 C 0.13089 0.52476 0.17604 0.0
C985 C 0.1173 0.51112 0.12603 0.0
C986 C 0.13215 0.54396 0.1885 0.0
C987 C 0.11901 0.54926 0.15166 0.0
C988 C 0.10526 0.5355 0.10111 0.0
C989 C 0.10482 0.51674 0.08814 0.0
C990 C 0.14744 0.55851 0.24129 0.0
C991 C 0.09059 0.54033 0.06213 0.0
C992 C 0.10582 0.58754 0.23382 0.0
C993 C 0.11741 0.60528 0.19327 0.0
C994 C 0.10623 0.5692 0.22086 0.0
C995 C 0.11906 0.56883 0.1675 0.0
C996 C 0.13134 0.58694 0.1279 0.0
C997 C 0.13009 0.60487 0.1405 0.0
C998 C 0.09246 0.55005 0.26291 0.0
C999 C 0.14568 0.58731 0.07201 0.0
H1000 H 0.14067 0.52049 0.20497 0.0
H1001 H 0.09418 0.50611 0.04984 0.0
H1002 H 0.1574 0.57405 0.21803 0.0
H1003 H 0.13899 0.56054 0.28502 0.0
H1004 H 0.15755 0.55271 0.26188 0.0
H1005 H 0.0808 0.52793 0.02473 0.0
H1006 H 0.08026 0.54227 0.09901 0.0
H1007 H 0.09946 0.55517 0.03365 0.0
H1008 H 0.09587 0.5878 0.27429 0.0
H1009 H 0.13919 0.61866 0.10949 0.0
H1010 H 0.10196 0.54447 0.28941 0.0
H1011 H 0.08152 0.53739 0.22832 0.0
H1012 H 0.08334 0.55292 0.30234 0.0
H1013 H 0.15617 0.58208 0.09313 0.0
H1014 H 0.15527 0.60303 0.04934 0.0
H1015 H 0.13649 0.57639 0.03014 0.0
C1016 C 0.60679 0.13132 0.52931 0.0
C1017 C 0.60673 0.11814 0.47749 0.0
C1018 C 0.58898 0.13271 0.54287 0.0
C1019 C 0.57055 0.1201 0.50521 0.0
C1020 C 0.57043 0.10675 0.45291 0.0
C1021 C 0.58864 0.10617 0.43896 0.0
C1022 C 0.58985 0.1476 0.59753 0.0
C1023 C 0.55095 0.09267 0.41284 0.0
C1024 C 0.51863 0.10655 0.5847 0.0
C1025 C 0.51286 0.11852 0.54467 0.0
C1026 C 0.53752 0.10709 0.57294 0.0
C1027 C 0.55118 0.12042 0.52136 0.0
C1028 C 0.5458 0.13321 0.48283 0.0
C1029 C 0.52652 0.13186 0.49419 0.0
C1030 C 0.54247 0.09282 0.61384 0.0
C1031 C 0.56024 0.14807 0.42886 0.0
H1032 H 0.62084 0.1407 0.55877 0.0
H1033 H 0.58852 0.09583 0.39928 0.0
H1034 H 0.5847 0.15807 0.57558 0.0
H1035 H 0.57908 0.13886 0.64031 0.0
H1036 H 0.6057 0.15721 0.61916 0.0
H1037 H 0.55341 0.08299 0.37453 0.0
H1038 H 0.53845 0.08224 0.44888 0.0
H1039 H 0.54537 0.10202 0.38521 0.0
H1040 H 0.50801 0.09612 0.62343 0.0
H1041 H 0.52213 0.14127 0.46364 0.0
H1042 H 0.55759 0.1019 0.64052 0.0
H1043 H 0.54388 0.08187 0.57835 0.0
H1044 H 0.53036 0.08369 0.65297 0.0
H1045 H 0.57595 0.15797 0.45103 0.0
H1046 H 0.55458 0.15826 0.40795 0.0
H1047 H 0.56183 0.13923 0.38548 0.0
C1048 C 0.46847 0.60312 0.77431 0.0
C1049 C 0.48586 0.60657 0.81271 0.0
C1050 C 0.44919 0.58507 0.78422 0.0
C1051 C 0.4476 0.56979 0.83136 0.0
C1052 C 0.46521 0.57324 0.87005 0.0
C1053 C 0.48406 0.59183 0.86123 0.0
C1054 C 0.43058 0.58231 0.74406 0.0
C1055 C 0.46434 0.55701 0.91898 0.0
C1056 C 0.3957 0.52789 0.90128 0.0
C1057 C 0.39111 0.51142 0.85621 0.0
C1058 C 0.41368 0.54728 0.8922 0.0
C1059 C 0.42774 0.54988 0.83863 0.0
C1060 C 0.42315 0.5332 0.79317 0.0
C1061 C 0.40464 0.51426 0.80171 0.0
C1062 C 0.41765 0.56492 0.94001 0.0
C1063 C 0.4381 0.53512 0.73695 0.0
H1064 H 0.46994 0.61466 0.73706 0.0
H1065 H 0.49764 0.59449 0.8903 0.0
H1066 H 0.4253 0.56907 0.70786 0.0
H1067 H 0.4175 0.57862 0.77975 0.0
H1068 H 0.43404 0.59639 0.71394 0.0
H1069 H 0.47951 0.56201 0.94438 0.0
H1070 H 0.45251 0.5535 0.95954 0.0
H1071 H 0.45961 0.54236 0.89048 0.0
H1072 H 0.3851 0.52564 0.94318 0.0
H1073 H 0.40112 0.50139 0.76739 0.0
H1074 H 0.42067 0.5788 0.90957 0.0
H1075 H 0.43169 0.56931 0.97158 0.0
H1076 H 0.40438 0.56083 0.97534 0.0
H1077 H 0.44082 0.54785 0.70106 0.0
H1078 H 0.43233 0.52057 0.70673 0.0
H1079 H 0.45331 0.53914 0.76002 0.0
C1080 C 0.89062 0.40976 0.24478 0.0
C1081 C 0.87909 0.39196 0.20439 0.0
C1082 C 0.89012 0.42804 0.23161 0.0
C1083 C 0.87731 0.42832 0.17808 0.0
C1084 C 0.86509 0.41017 0.13865 0.0
C1085 C 0.86637 0.39228 0.1516 0.0
C1086 C 0.90379 0.44724 0.27361 0.0
C1087 C 0.8508 0.40972 0.08246 0.0
C1088 C 0.8653 0.4723 0.18484 0.0
C1089 C 0.87892 0.48587 0.13474 0.0
C1090 C 0.86411 0.45317 0.19798 0.0
C1091 C 0.87735 0.44787 0.16174 0.0
C1092 C 0.89115 0.46156 0.11116 0.0
C1093 C 0.89153 0.48026 0.0975 0.0
C1094 C 0.84876 0.43868 0.25079 0.0
C1095 C 0.90592 0.45674 0.07278 0.0
H1096 H 0.90059 0.4096 0.2853 0.0
H1097 H 0.8573 0.37846 0.12069 0.0
H1098 H 0.91482 0.45985 0.23905 0.0
H1099 H 0.89422 0.45285 0.29955 0.0
H1100 H 0.91281 0.4444 0.31349 0.0
H1101 H 0.84124 0.39397 0.05996 0.0
H1102 H 0.84028 0.41497 0.10321 0.0
H1103 H 0.86004 0.42059 0.04053 0.0
H1104 H 0.85543 0.47657 0.21327 0.0
H1105 H 0.9022 0.49084 0.05915 0.0
H1106 H 0.85717 0.43667 0.29469 0.0
H1107 H 0.83881 0.42312 0.22764 0.0
H1108 H 0.83865 0.4445 0.2711 0.0
H1109 H 0.91619 0.45484 0.11004 0.0
H1110 H 0.91578 0.46911 0.03539 0.0
H1111 H 0.89712 0.44187 0.04439 0.0
C1112 C 0.47001 0.86317 0.48444 0.0
C1113 C 0.48281 0.87598 0.5375 0.0
C1114 C 0.45069 0.86157 0.47105 0.0
C1115 C 0.44443 0.87359 0.51021 0.0
C1116 C 0.45728 0.88645 0.56404 0.0
C1117 C 0.47617 0.88725 0.57768 0.0
C1118 C 0.4371 0.84722 0.41457 0.0
C1119 C 0.45145 0.89995 0.60571 0.0
C1120 C 0.40757 0.88871 0.42862 0.0
C1121 C 0.38923 0.87644 0.46571 0.0
C1122 C 0.42559 0.88778 0.44223 0.0
C1123 C 0.42505 0.87373 0.4926 0.0
C1124 C 0.40634 0.86074 0.52848 0.0
C1125 C 0.38871 0.86252 0.51547 0.0
C1126 C 0.44538 0.90235 0.40437 0.0
C1127 C 0.40502 0.84513 0.58097 0.0
H1128 H 0.47504 0.8543 0.45373 0.0
H1129 H 0.4861 0.89728 0.61846 0.0
H1130 H 0.42121 0.83678 0.43458 0.0
H1131 H 0.43573 0.85642 0.37199 0.0
H1132 H 0.44336 0.8376 0.39314 0.0
H1133 H 0.4631 0.90894 0.64621 0.0
H1134 H 0.44997 0.91102 0.57103 0.0
H1135 H 0.43616 0.89029 0.63087 0.0
H1136 H 0.40803 0.89959 0.39046 0.0
H1137 H 0.37446 0.85289 0.5437 0.0
H1138 H 0.45139 0.8934 0.3766 0.0
H1139 H 0.45747 0.91255 0.44194 0.0
H1140 H 0.44313 0.91227 0.36651 0.0
H1141 H 0.41077 0.83524 0.5582 0.0
H1142 H 0.38892 0.83497 0.59986 0.0
H1143 H 0.41509 0.85331 0.6258 0.0
C1144 C 0.59052 0.484 0.80466 0.0
C1145 C 0.60563 0.4858 0.8515 0.0
C1146 C 0.57208 0.46503 0.79581 0.0
C1147 C 0.56918 0.44731 0.83265 0.0
C1148 C 0.5848 0.44896 0.87832 0.0
C1149 C 0.60269 0.46836 0.88842 0.0
C1150 C 0.55548 0.46409 0.74857 0.0
C1151 C 0.58262 0.43026 0.91637 0.0
C1152 C 0.51396 0.40333 0.85972 0.0
C1153 C 0.51135 0.39057 0.80306 0.0
C1154 C 0.53278 0.42184 0.87023 0.0
C1155 C 0.54956 0.42722 0.82435 0.0
C1156 C 0.54724 0.41386 0.76877 0.0
C1157 C 0.52798 0.39587 0.75794 0.0
C1158 C 0.53441 0.43602 0.92871 0.0
C1159 C 0.565 0.41868 0.72032 0.0
H1160 H 0.59283 0.49765 0.77681 0.0
H1161 H 0.61453 0.46988 0.92445 0.0
H1162 H 0.55228 0.45282 0.70632 0.0
H1163 H 0.54079 0.45857 0.77775 0.0
H1164 H 0.55994 0.47942 0.72537 0.0
H1165 H 0.59682 0.43389 0.9461 0.0
H1166 H 0.56932 0.42428 0.95262 0.0
H1167 H 0.57935 0.4176 0.87928 0.0
H1168 H 0.50098 0.39928 0.89417 0.0
H1169 H 0.52594 0.38587 0.71437 0.0
H1170 H 0.53776 0.45126 0.90767 0.0
H1171 H 0.54747 0.43892 0.96328 0.0
H1172 H 0.51995 0.42949 0.95989 0.0
H1173 H 0.56891 0.4328 0.6899 0.0
H1174 H 0.56125 0.40573 0.68389 0.0
H1175 H 0.57905 0.42194 0.75015 0.0
C1176 C 0.25111 0.43503 0.91195 0.0
C1177 C 0.26968 0.44887 0.94516 0.0
C1178 C 0.23258 0.43486 0.92745 0.0
C1179 C 0.23263 0.44848 0.97864 0.0
C1180 C 0.25137 0.46245 0.01238 0.0
C1181 C 0.26975 0.46277 0.99412 0.0
C1182 C 0.213 0.42017 0.88898 0.0
C1183 C 0.25199 0.47695 0.06815 0.0
C1184 C 0.19036 0.46276 0.9821 0.0
C1185 C 0.17665 0.44887 0.03131 0.0
C1186 C 0.20836 0.46241 0.96311 0.0
C1187 C 0.21317 0.4484 0.99633 0.0
C1188 C 0.19967 0.43472 0.04754 0.0
C1189 C 0.18139 0.43493 0.06378 0.0
C1190 C 0.22217 0.47698 0.90738 0.0
C1191 C 0.20462 0.41999 0.08546 0.0
H1192 H 0.25106 0.42426 0.87416 0.0
H1193 H 0.28422 0.47385 0.01857 0.0
H1194 H 0.20114 0.40916 0.92564 0.0
H1195 H 0.20642 0.42901 0.86376 0.0
H1196 H 0.21576 0.41113 0.84894 0.0
H1197 H 0.26764 0.48609 0.09175 0.0
H1198 H 0.24744 0.48791 0.0465 0.0
H1199 H 0.24066 0.46796 0.1094 0.0
H1200 H 0.18696 0.4739 0.9582 0.0
H1201 H 0.17075 0.42416 0.10177 0.0
H1202 H 0.22462 0.46808 0.86612 0.0
H1203 H 0.23763 0.48803 0.9291 0.0
H1204 H 0.21553 0.48601 0.88381 0.0
H1205 H 0.20563 0.40915 0.04843 0.0
H1206 H 0.19276 0.41075 0.12514 0.0
H1207 H 0.21997 0.42883 0.11107 0.0
C1208 C 0.81632 0.25145 0.26477 0.0
C1209 C 0.82063 0.26993 0.2978 0.0
C1210 C 0.79818 0.23272 0.28019 0.0
C1211 C 0.7844 0.23248 0.33115 0.0
C1212 C 0.78881 0.2511 0.36504 0.0
C1213 C 0.80667 0.26968 0.34686 0.0
C1214 C 0.79366 0.21327 0.24157 0.0
C1215 C 0.7747 0.2514 0.42057 0.0
C1216 C 0.72798 0.18987 0.33206 0.0
C1217 C 0.72808 0.1761 0.38118 0.0
C1218 C 0.74632 0.20798 0.31391 0.0
C1219 C 0.76506 0.21287 0.3479 0.0
C1220 C 0.76517 0.19928 0.39888 0.0
C1221 C 0.74669 0.18087 0.41424 0.0
C1222 C 0.74564 0.22187 0.25832 0.0
C1223 C 0.78475 0.20429 0.43757 0.0
H1224 H 0.82716 0.25165 0.22694 0.0
H1225 H 0.80975 0.28407 0.3712 0.0
H1226 H 0.79269 0.20136 0.27822 0.0
H1227 H 0.77839 0.20666 0.21534 0.0
H1228 H 0.80572 0.21621 0.2023 0.0
H1229 H 0.78107 0.26695 0.44486 0.0
H1230 H 0.75926 0.24688 0.39841 0.0
H1231 H 0.77227 0.23992 0.46135 0.0
H1232 H 0.7135 0.18646 0.30769 0.0
H1233 H 0.74678 0.17018 0.45206 0.0
H1234 H 0.75725 0.2246 0.21764 0.0
H1235 H 0.74975 0.23721 0.28047 0.0
H1236 H 0.73008 0.21514 0.2339 0.0
H1237 H 0.79681 0.20556 0.40096 0.0
H1238 H 0.78209 0.19233 0.47687 0.0
H1239 H 0.79102 0.21953 0.46375 0.0
C1240 C 0.53959 0.80286 0.60348 0.0
C1241 C 0.55098 0.82179 0.63807 0.0
C1242 C 0.54078 0.78539 0.62391 0.0
C1243 C 0.55363 0.787 0.68032 0.0
C1244 C 0.56543 0.80623 0.71461 0.0
C1245 C 0.56394 0.82342 0.69303 0.0
C1246 C 0.52796 0.76512 0.58612 0.0
C1247 C 0.57935 0.80855 0.77469 0.0
C1248 C 0.53941 0.73653 0.77168 0.0
C1249 C 0.55317 0.73128 0.74088 0.0
C1250 C 0.53982 0.75501 0.75398 0.0
C1251 C 0.5543 0.76839 0.70421 0.0
C1252 C 0.56872 0.76345 0.67487 0.0
C1253 C 0.56797 0.74489 0.69365 0.0
C1254 C 0.52423 0.75982 0.78646 0.0
C1255 C 0.58441 0.77735 0.62183 0.0
H1256 H 0.52936 0.80159 0.5616 0.0
H1257 H 0.5728 0.83817 0.71944 0.0
H1258 H 0.53811 0.75929 0.56643 0.0
H1259 H 0.51667 0.75325 0.62217 0.0
H1260 H 0.51928 0.76666 0.542 0.0
H1261 H 0.58797 0.82473 0.79439 0.0
H1262 H 0.56995 0.79816 0.81743 0.0
H1263 H 0.59073 0.80379 0.75911 0.0
H1264 H 0.52783 0.72579 0.8076 0.0
H1265 H 0.57858 0.74068 0.66998 0.0
H1266 H 0.51349 0.75959 0.74627 0.0
H1267 H 0.53226 0.77562 0.80923 0.0
H1268 H 0.51492 0.74849 0.82738 0.0
H1269 H 0.57625 0.77783 0.57455 0.0
H1270 H 0.5954 0.77195 0.60746 0.0
H1271 H 0.59343 0.79347 0.64171 0.0
C1272 C 0.80596 0.5339 0.98592 0.0
C1273 C 0.81935 0.54767 0.03601 0.0
C1274 C 0.78805 0.53423 0.96573 0.0
C1275 C 0.78295 0.54807 -0.00134 0.0
C1276 C 0.79608 0.5616 0.05087 0.0
C1277 C 0.81431 0.56143 0.06829 0.0
C1278 C 0.77466 0.51985 0.90893 0.0
C1279 C 0.7908 0.57613 0.08856 0.0
C1280 C 0.74549 0.56164 0.91182 0.0
C1281 C 0.72672 0.54765 0.94372 0.0
C1282 C 0.76393 0.56179 0.92852 0.0
C1283 C 0.76358 0.54799 0.97957 0.0
C1284 C 0.74463 0.53383 0.01183 0.0
C1285 C 0.72636 0.53354 0.99236 0.0
C1286 C 0.78376 0.57667 0.89154 0.0
C1287 C 0.74368 0.51913 0.06741 0.0
H1288 H 0.80957 0.52288 0.96216 0.0
H1289 H 0.82469 0.57212 0.10692 0.0
H1290 H 0.75906 0.50869 0.92945 0.0
H1291 H 0.77247 0.52889 0.86755 0.0
H1292 H 0.78151 0.51095 0.8858 0.0
H1293 H 0.80233 0.5852 0.12928 0.0
H1294 H 0.79006 0.58712 0.05157 0.0
H1295 H 0.77524 0.56715 0.11284 0.0
H1296 H 0.74576 0.57257 0.87423 0.0
H1297 H 0.71174 0.52235 0.01577 0.0
H1298 H 0.79059 0.56798 0.86688 0.0
H1299 H 0.79531 0.5876 0.92908 0.0
H1300 H 0.78122 0.5858 0.85126 0.0
H1301 H 0.74847 0.50833 0.04604 0.0
H1302 H 0.72786 0.50983 0.08972 0.0
H1303 H 0.75467 0.52799 0.10959 0.0
C1304 C 0.26029 0.80301 0.40476 0.0
C1305 C 0.26728 0.82163 0.36867 0.0
C1306 C 0.24178 0.78514 0.38594 0.0
C1307 C 0.23011 0.786 0.32956 0.0
C1308 C 0.23699 0.80489 0.29357 0.0
C1309 C 0.25555 0.82251 0.31362 0.0
C1310 C 0.23492 0.76525 0.42547 0.0
C1311 C 0.22493 0.80639 0.23336 0.0
C1312 C 0.19419 0.73487 0.24107 0.0
C1313 C 0.17512 0.72959 0.27146 0.0
C1314 C 0.21219 0.75347 0.25838 0.0
C1315 C 0.21096 0.76696 0.30735 0.0
C1316 C 0.19157 0.76188 0.33687 0.0
C1317 C 0.17383 0.74319 0.3185 0.0
C1318 C 0.2326 0.75839 0.22582 0.0
C1319 C 0.18965 0.7759 0.3891 0.0
H1320 H 0.26958 0.80231 0.44666 0.0
H1321 H 0.261 0.83701 0.286 0.0
H1322 H 0.21896 0.75924 0.44575 0.0
H1323 H 0.23448 0.75323 0.39044 0.0
H1324 H 0.24541 0.76738 0.46938 0.0
H1325 H 0.23214 0.82238 0.21208 0.0
H1326 H 0.22396 0.79572 0.19162 0.0
H1327 H 0.2088 0.80147 0.24948 0.0
H1328 H 0.19512 0.72415 0.20528 0.0
H1329 H 0.15897 0.73898 0.34177 0.0
H1330 H 0.24341 0.75887 0.26622 0.0
H1331 H 0.23998 0.77394 0.20124 0.0
H1332 H 0.23072 0.74675 0.18628 0.0
H1333 H 0.19881 0.77711 0.43585 0.0
H1334 H 0.17329 0.77014 0.40471 0.0
H1335 H 0.19613 0.79179 0.3677 0.0
C1336 C 0.46251 0.26939 0.66068 0.0
C1337 C 0.44792 0.2693 0.70666 0.0
C1338 C 0.46199 0.25093 0.64239 0.0
C1339 C 0.44698 0.23202 0.67284 0.0
C1340 C 0.43251 0.23189 0.7207 0.0
C1341 C 0.43302 0.25056 0.73652 0.0
C1342 C 0.4775 0.25166 0.59044 0.0
C1343 C 0.41663 0.21209 0.7555 0.0
C1344 C 0.43485 0.18135 0.58622 0.0
C1345 C 0.44773 0.17605 0.62309 0.0
C1346 C 0.43447 0.19961 0.60165 0.0
C1347 C 0.44693 0.21252 0.65616 0.0
C1348 C 0.45985 0.20712 0.69376 0.0
C1349 C 0.46035 0.18914 0.6759 0.0
C1350 C 0.42089 0.20516 0.5594 0.0
C1351 C 0.47314 0.22033 0.75286 0.0
H1352 H 0.47433 0.28397 0.63876 0.0
H1353 H 0.42172 0.25052 0.77197 0.0
H1354 H 0.48774 0.24665 0.61509 0.0
H1355 H 0.46928 0.24074 0.54743 0.0
H1356 H 0.48737 0.26746 0.56866 0.0
H1357 H 0.40669 0.2147 0.79223 0.0
H1358 H 0.40653 0.20063 0.7162 0.0
H1359 H 0.42457 0.20509 0.78398 0.0
H1360 H 0.42501 0.17117 0.5456 0.0
H1361 H 0.47068 0.18531 0.70341 0.0
H1362 H 0.43051 0.22065 0.53535 0.0
H1363 H 0.4094 0.20617 0.59324 0.0
H1364 H 0.41242 0.19364 0.51801 0.0
H1365 H 0.48484 0.23591 0.73361 0.0
H1366 H 0.48139 0.2133 0.77932 0.0
H1367 H 0.46338 0.22261 0.79129 0.0
loop_
_geom_bond_atom_site_label_1
_geom_bond_atom_site_label_2
_geom_bond_distance
_geom_bond_site_symmetry_2
_ccdc_geom_bond_type
Co0 O3 1.970 . S
Co0 N17 1.989 . S
Co0 O25 1.967 . S
Co0 O32 1.920 . S
Co1 O4 1.966 . S
Co1 N10 2.022 1_554 S
Co1 N18 1.993 . S
Co1 O26 1.941 . S
C2 O3 1.258 . S
C2 O4 1.263 . S
O3 Co0 1.970 . S
O3 C2 1.258 . S
O4 Co1 1.966 . S
O4 C2 1.263 . S
C5 O6 1.235 . S
C5 O32 1.289 . S
O6 C5 1.235 . S
C7 C9 1.400 . S
C7 N10 1.351 . S
C7 C12 1.501 . S
C8 C9 1.387 . S
C8 N11 1.341 . S
C9 C7 1.400 . S
C9 C8 1.387 . S
N10 Co1 2.022 1_556 S
N10 C7 1.351 . S
N10 N11 1.365 . S
N11 C8 1.341 . S
N11 N10 1.365 . S
N11 H31 0.862 . S
C12 C7 1.501 . S
C12 H13 0.961 . S
C12 H14 0.961 . S
C12 H15 0.960 . S
H13 C12 0.961 . S
H14 C12 0.961 . S
H15 C12 0.960 . S
C16 N17 1.342 . S
C16 C20 1.401 . S
C16 C21 1.499 . S
N17 Co0 1.989 . S
N17 C16 1.342 . S
N17 N18 1.388 . S
N18 Co1 1.993 . S
N18 N17 1.388 . S
N18 C19 1.346 . S
C19 N18 1.346 . S
C19 C20 1.396 . S
C19 C29 1.510 1_554 S
C20 C16 1.401 . S
C20 C19 1.396 . S
C21 C16 1.499 . S
C21 H22 0.959 . S
C21 H23 0.960 . S
C21 H24 0.961 . S
H22 C21 0.959 . S
H23 C21 0.960 . S
H24 C21 0.961 . S
O25 Co0 1.967 . S
O25 C33 1.258 . S
O26 Co1 1.941 . S
O26 C33 1.266 . S
H27 C29 0.959 . S
H28 C29 0.961 . S
C29 C19 1.510 1_556 S
C29 H27 0.959 . S
C29 H28 0.961 . S
C29 H30 0.960 . S
H30 C29 0.960 . S
H31 N11 0.862 . S
O32 Co0 1.920 . S
O32 C5 1.289 . S
C33 O25 1.258 . S
C33 O26 1.266 . S
Co34 O37 1.970 . S
Co34 N51 1.989 . S
Co34 O59 1.967 . S
Co34 O66 1.920 . S
Co35 O38 1.966 . S
Co35 N44 2.022 . S
Co35 N52 1.993 . S
Co35 O60 1.941 . S
C36 O37 1.258 . S
C36 O38 1.263 . S
O37 Co34 1.970 . S
O37 C36 1.258 . S
O38 Co35 1.966 . S
O38 C36 1.263 . S
C39 O40 1.235 . S
C39 O66 1.289 . S
O40 C39 1.235 . S
C41 C43 1.400 . S
C41 N44 1.351 . S
C41 C46 1.501 . S
C42 C43 1.387 . S
C42 N45 1.341 . S
C43 C41 1.400 . S
C43 C42 1.387 . S
N44 Co35 2.022 . S
N44 C41 1.351 . S
N44 N45 1.365 . S
N45 C42 1.341 . S
N45 N44 1.365 . S
N45 H65 0.862 . S
C46 C41 1.501 . S
C46 H47 0.961 . S
C46 H48 0.961 . S
C46 H49 0.960 . S
H47 C46 0.961 . S
H48 C46 0.961 . S
H49 C46 0.960 . S
C50 N51 1.342 . S
C50 C54 1.401 . S
C50 C55 1.499 . S
N51 Co34 1.989 . S
N51 C50 1.342 . S
N51 N52 1.388 . S
N52 Co35 1.993 . S
N52 N51 1.388 . S
N52 C53 1.346 . S
C53 N52 1.346 . S
C53 C54 1.396 . S
C53 C63 1.510 . S
C54 C50 1.401 . S
C54 C53 1.396 . S
C55 C50 1.499 . S
C55 H56 0.959 . S
C55 H57 0.960 . S
C55 H58 0.961 . S
H56 C55 0.959 . S
H57 C55 0.960 . S
H58 C55 0.961 . S
O59 Co34 1.967 . S
O59 C67 1.258 . S
O60 Co35 1.941 . S
O60 C67 1.266 . S
H61 C63 0.959 . S
H62 C63 0.961 . S
C63 C53 1.510 . S
C63 H61 0.959 . S
C63 H62 0.961 . S
C63 H64 0.960 . S
H64 C63 0.960 . S
H65 N45 0.862 . S
O66 Co34 1.920 . S
O66 C39 1.289 . S
C67 O59 1.258 . S
C67 O60 1.266 . S
Co68 O71 1.970 . S
Co68 N85 1.989 . S
Co68 O93 1.967 . S
Co68 O100 1.920 . S
Co69 O72 1.966 . S
Co69 N78 2.022 . S
Co69 N86 1.993 . S
Co69 O94 1.941 . S
C70 O71 1.258 . S
C70 O72 1.263 . S
O71 Co68 1.970 . S
O71 C70 1.258 . S
O72 Co69 1.966 . S
O72 C70 1.263 . S
C73 O74 1.235 . S
C73 O100 1.289 . S
O74 C73 1.235 . S
C75 C77 1.400 . S
C75 N78 1.351 . S
C75 C80 1.501 . S
C76 C77 1.387 . S
C76 N79 1.341 . S
C77 C75 1.400 . S
C77 C76 1.387 . S
N78 Co69 2.022 . S
N78 C75 1.351 . S
N78 N79 1.365 . S
N79 C76 1.341 . S
N79 N78 1.365 . S
N79 H99 0.862 . S
C80 C75 1.501 . S
C80 H81 0.961 . S
C80 H82 0.961 . S
C80 H83 0.960 . S
H81 C80 0.961 . S
H82 C80 0.961 . S
H83 C80 0.960 . S
C84 N85 1.342 . S
C84 C88 1.401 . S
C84 C89 1.499 . S
N85 Co68 1.989 . S
N85 C84 1.342 . S
N85 N86 1.388 . S
N86 Co69 1.993 . S
N86 N85 1.388 . S
N86 C87 1.346 . S
C87 N86 1.346 . S
C87 C88 1.396 . S
C87 C97 1.510 . S
C88 C84 1.401 . S
C88 C87 1.396 . S
C89 C84 1.499 . S
C89 H90 0.959 . S
C89 H91 0.960 . S
C89 H92 0.961 . S
H90 C89 0.959 . S
H91 C89 0.960 . S
H92 C89 0.961 . S
O93 Co68 1.967 . S
O93 C101 1.258 . S
O94 Co69 1.941 . S
O94 C101 1.266 . S
H95 C97 0.959 . S
H96 C97 0.961 . S
C97 C87 1.510 . S
C97 H95 0.959 . S
C97 H96 0.961 . S
C97 H98 0.960 . S
H98 C97 0.960 . S
H99 N79 0.862 . S
O100 Co68 1.920 . S
O100 C73 1.289 . S
C101 O93 1.258 . S
C101 O94 1.266 . S
Co102 O105 1.970 . S
Co102 N119 1.989 . S
Co102 O127 1.967 . S
Co102 O134 1.920 . S
Co103 O106 1.966 . S
Co103 N112 2.022 1_554 S
Co103 N120 1.993 . S
Co103 O128 1.941 . S
C104 O105 1.258 . S
C104 O106 1.263 . S
O105 Co102 1.970 . S
O105 C104 1.258 . S
O106 Co103 1.966 . S
O106 C104 1.263 . S
C107 O108 1.235 . S
C107 O134 1.289 . S
O108 C107 1.235 . S
C109 C111 1.400 . S
C109 N112 1.351 . S
C109 C114 1.501 . S
C110 C111 1.387 . S
C110 N113 1.341 . S
C111 C109 1.400 . S
C111 C110 1.387 . S
N112 Co103 2.022 1_556 S
N112 C109 1.351 . S
N112 N113 1.365 . S
N113 C110 1.341 . S
N113 N112 1.365 . S
N113 H133 0.862 . S
C114 C109 1.501 . S
C114 H115 0.961 . S
C114 H116 0.961 . S
C114 H117 0.960 . S
H115 C114 0.961 . S
H116 C114 0.961 . S
H117 C114 0.960 . S
C118 N119 1.342 . S
C118 C122 1.401 . S
C118 C123 1.499 . S
N119 Co102 1.989 . S
N119 C118 1.342 . S
N119 N120 1.388 . S
N120 Co103 1.993 . S
N120 N119 1.388 . S
N120 C121 1.346 . S
C121 N120 1.346 . S
C121 C122 1.396 . S
C121 C131 1.510 1_554 S
C122 C118 1.401 . S
C122 C121 1.396 . S
C123 C118 1.499 . S
C123 H124 0.959 . S
C123 H125 0.960 . S
C123 H126 0.961 . S
H124 C123 0.959 . S
H125 C123 0.960 . S
H126 C123 0.961 . S
O127 Co102 1.967 . S
O127 C135 1.258 . S
O128 Co103 1.941 . S
O128 C135 1.266 . S
H129 C131 0.959 . S
H130 C131 0.961 . S
C131 C121 1.510 1_556 S
C131 H129 0.959 . S
C131 H130 0.961 . S
C131 H132 0.960 . S
H132 C131 0.960 . S
H133 N113 0.862 . S
O134 Co102 1.920 . S
O134 C107 1.289 . S
C135 O127 1.258 . S
C135 O128 1.266 . S
Co136 O139 1.970 . S
Co136 N153 1.989 . S
Co136 O161 1.967 . S
Co136 O168 1.920 . S
Co137 O140 1.966 . S
Co137 N146 2.022 . S
Co137 N154 1.993 . S
Co137 O162 1.941 . S
C138 O139 1.258 . S
C138 O140 1.263 . S
O139 Co136 1.970 . S
O139 C138 1.258 . S
O140 Co137 1.966 . S
O140 C138 1.263 . S
C141 O142 1.235 . S
C141 O168 1.289 . S
O142 C141 1.235 . S
C143 C145 1.400 . S
C143 N146 1.351 . S
C143 C148 1.501 . S
C144 C145 1.387 . S
C144 N147 1.341 . S
C145 C143 1.400 . S
C145 C144 1.387 . S
N146 Co137 2.022 . S
N146 C143 1.351 . S
N146 N147 1.365 . S
N147 C144 1.341 . S
N147 N146 1.365 . S
N147 H167 0.862 . S
C148 C143 1.501 . S
C148 H149 0.961 . S
C148 H150 0.961 . S
C148 H151 0.960 . S
H149 C148 0.961 . S
H150 C148 0.961 . S
H151 C148 0.960 . S
C152 N153 1.342 . S
C152 C156 1.401 . S
C152 C157 1.499 . S
N153 Co136 1.989 . S
N153 C152 1.342 . S
N153 N154 1.388 . S
N154 Co137 1.993 . S
N154 N153 1.388 . S
N154 C155 1.346 . S
C155 N154 1.346 . S
C155 C156 1.396 . S
C155 C165 1.510 . S
C156 C152 1.401 . S
C156 C155 1.396 . S
C157 C152 1.499 . S
C157 H158 0.959 . S
C157 H159 0.960 . S
C157 H160 0.961 . S
H158 C157 0.959 . S
H159 C157 0.960 . S
H160 C157 0.961 . S
O161 Co136 1.967 . S
O161 C169 1.258 . S
O162 Co137 1.941 . S
O162 C169 1.266 . S
H163 C165 0.959 . S
H164 C165 0.961 . S
C165 C155 1.510 . S
C165 H163 0.959 . S
C165 H164 0.961 . S
C165 H166 0.960 . S
H166 C165 0.960 . S
H167 N147 0.862 . S
O168 Co136 1.920 . S
O168 C141 1.289 . S
C169 O161 1.258 . S
C169 O162 1.266 . S
Co170 O173 1.970 . S
Co170 N187 1.989 . S
Co170 O195 1.967 . S
Co170 O202 1.920 . S
Co171 O174 1.966 . S
Co171 N180 2.022 . S
Co171 N188 1.993 . S
Co171 O196 1.941 . S
C172 O173 1.258 . S
C172 O174 1.263 . S
O173 Co170 1.970 . S
O173 C172 1.258 . S
O174 Co171 1.966 . S
O174 C172 1.263 . S
C175 O176 1.235 . S
C175 O202 1.289 . S
O176 C175 1.235 . S
C177 C179 1.400 . S
C177 N180 1.351 . S
C177 C182 1.501 . S
C178 C179 1.387 . S
C178 N181 1.341 . S
C179 C177 1.400 . S
C179 C178 1.387 . S
N180 Co171 2.022 . S
N180 C177 1.351 . S
N180 N181 1.365 . S
N181 C178 1.341 . S
N181 N180 1.365 . S
N181 H201 0.862 . S
C182 C177 1.501 . S
C182 H183 0.961 . S
C182 H184 0.961 . S
C182 H185 0.960 . S
H183 C182 0.961 . S
H184 C182 0.961 . S
H185 C182 0.960 . S
C186 N187 1.342 . S
C186 C190 1.401 . S
C186 C191 1.499 . S
N187 Co170 1.989 . S
N187 C186 1.342 . S
N187 N188 1.388 . S
N188 Co171 1.993 . S
N188 N187 1.388 . S
N188 C189 1.346 . S
C189 N188 1.346 . S
C189 C190 1.396 . S
C189 C199 1.510 . S
C190 C186 1.401 . S
C190 C189 1.396 . S
C191 C186 1.499 . S
C191 H192 0.959 . S
C191 H193 0.960 . S
C191 H194 0.961 . S
H192 C191 0.959 . S
H193 C191 0.960 . S
H194 C191 0.961 . S
O195 Co170 1.967 . S
O195 C203 1.258 . S
O196 Co171 1.941 . S
O196 C203 1.266 . S
H197 C199 0.959 . S
H198 C199 0.961 . S
C199 C189 1.510 . S
C199 H197 0.959 . S
C199 H198 0.961 . S
C199 H200 0.960 . S
H200 C199 0.960 . S
H201 N181 0.862 . S
O202 Co170 1.920 . S
O202 C175 1.289 . S
C203 O195 1.258 . S
C203 O196 1.266 . S
Co204 O207 1.970 . S
Co204 N221 1.989 . S
Co204 O229 1.967 . S
Co204 O236 1.920 . S
Co205 O208 1.966 . S
Co205 N214 2.022 . S
Co205 N222 1.993 . S
Co205 O230 1.941 . S
C206 O207 1.258 . S
C206 O208 1.263 . S
O207 Co204 1.970 . S
O207 C206 1.258 . S
O208 Co205 1.966 . S
O208 C206 1.263 . S
C209 O210 1.235 . S
C209 O236 1.289 . S
O210 C209 1.235 . S
C211 C213 1.400 . S
C211 N214 1.351 . S
C211 C216 1.501 . S
C212 C213 1.387 . S
C212 N215 1.341 . S
C213 C211 1.400 . S
C213 C212 1.387 . S
N214 Co205 2.022 . S
N214 C211 1.351 . S
N214 N215 1.365 . S
N215 C212 1.341 . S
N215 N214 1.365 . S
N215 H235 0.862 . S
C216 C211 1.501 . S
C216 H217 0.961 . S
C216 H218 0.961 . S
C216 H219 0.960 . S
H217 C216 0.961 . S
H218 C216 0.961 . S
H219 C216 0.960 . S
C220 N221 1.342 . S
C220 C224 1.401 . S
C220 C225 1.499 . S
N221 Co204 1.989 . S
N221 C220 1.342 . S
N221 N222 1.388 . S
N222 Co205 1.993 . S
N222 N221 1.388 . S
N222 C223 1.346 . S
C223 N222 1.346 . S
C223 C224 1.396 . S
C223 C233 1.510 . S
C224 C220 1.401 . S
C224 C223 1.396 . S
C225 C220 1.499 . S
C225 H226 0.959 . S
C225 H227 0.960 . S
C225 H228 0.961 . S
H226 C225 0.959 . S
H227 C225 0.960 . S
H228 C225 0.961 . S
O229 Co204 1.967 . S
O229 C237 1.258 . S
O230 Co205 1.941 . S
O230 C237 1.266 . S
H231 C233 0.959 . S
H232 C233 0.961 . S
C233 C223 1.510 . S
C233 H231 0.959 . S
C233 H232 0.961 . S
C233 H234 0.960 . S
H234 C233 0.960 . S
H235 N215 0.862 . S
O236 Co204 1.920 . S
O236 C209 1.289 . S
C237 O229 1.258 . S
C237 O230 1.266 . S
Co238 O241 1.970 . S
Co238 N255 1.989 . S
Co238 O263 1.967 . S
Co238 O270 1.920 . S
Co239 O242 1.966 . S
Co239 N248 2.022 1_556 S
Co239 N256 1.993 . S
Co239 O264 1.941 . S
C240 O241 1.258 . S
C240 O242 1.263 . S
O241 Co238 1.970 . S
O241 C240 1.258 . S
O242 Co239 1.966 . S
O242 C240 1.263 . S
C243 O244 1.235 . S
C243 O270 1.289 . S
O244 C243 1.235 . S
C245 C247 1.400 . S
C245 N248 1.351 . S
C245 C250 1.501 . S
C246 C247 1.387 . S
C246 N249 1.341 . S
C247 C245 1.400 . S
C247 C246 1.387 . S
N248 Co239 2.022 1_554 S
N248 C245 1.351 . S
N248 N249 1.365 . S
N249 C246 1.341 . S
N249 N248 1.365 . S
N249 H269 0.862 . S
C250 C245 1.501 . S
C250 H251 0.961 . S
C250 H252 0.961 . S
C250 H253 0.960 . S
H251 C250 0.961 . S
H252 C250 0.961 . S
H253 C250 0.960 . S
C254 N255 1.342 . S
C254 C258 1.401 . S
C254 C259 1.499 . S
N255 Co238 1.989 . S
N255 C254 1.342 . S
N255 N256 1.388 . S
N256 Co239 1.993 . S
N256 N255 1.388 . S
N256 C257 1.346 . S
C257 N256 1.346 . S
C257 C258 1.396 . S
C257 C267 1.510 1_556 S
C258 C254 1.401 . S
C258 C257 1.396 . S
C259 C254 1.499 . S
C259 H260 0.959 . S
C259 H261 0.960 . S
C259 H262 0.961 . S
H260 C259 0.959 . S
H261 C259 0.960 . S
H262 C259 0.961 . S
O263 Co238 1.967 . S
O263 C271 1.258 . S
O264 Co239 1.941 . S
O264 C271 1.266 . S
H265 C267 0.959 . S
H266 C267 0.961 . S
C267 C257 1.510 1_554 S
C267 H265 0.959 . S
C267 H266 0.961 . S
C267 H268 0.960 . S
H268 C267 0.960 . S
H269 N249 0.862 . S
O270 Co238 1.920 . S
O270 C243 1.289 . S
C271 O263 1.258 . S
C271 O264 1.266 . S
Co272 O275 1.970 . S
Co272 N289 1.989 . S
Co272 O297 1.967 . S
Co272 O304 1.920 . S
Co273 O276 1.966 . S
Co273 N282 2.022 . S
Co273 N290 1.993 . S
Co273 O298 1.941 . S
C274 O275 1.258 . S
C274 O276 1.263 . S
O275 Co272 1.970 . S
O275 C274 1.258 . S
O276 Co273 1.966 . S
O276 C274 1.263 . S
C277 O278 1.235 . S
C277 O304 1.289 . S
O278 C277 1.235 . S
C279 C281 1.400 . S
C279 N282 1.351 . S
C279 C284 1.501 . S
C280 C281 1.387 . S
C280 N283 1.341 . S
C281 C279 1.400 . S
C281 C280 1.387 . S
N282 Co273 2.022 . S
N282 C279 1.351 . S
N282 N283 1.365 . S
N283 C280 1.341 . S
N283 N282 1.365 . S
N283 H303 0.862 . S
C284 C279 1.501 . S
C284 H285 0.961 . S
C284 H286 0.961 . S
C284 H287 0.960 . S
H285 C284 0.961 . S
H286 C284 0.961 . S
H287 C284 0.960 . S
C288 N289 1.342 . S
C288 C292 1.401 . S
C288 C293 1.499 . S
N289 Co272 1.989 . S
N289 C288 1.342 . S
N289 N290 1.388 . S
N290 Co273 1.993 . S
N290 N289 1.388 . S
N290 C291 1.346 . S
C291 N290 1.346 . S
C291 C292 1.396 . S
C291 C301 1.510 . S
C292 C288 1.401 . S
C292 C291 1.396 . S
C293 C288 1.499 . S
C293 H294 0.959 . S
C293 H295 0.960 . S
C293 H296 0.961 . S
H294 C293 0.959 . S
H295 C293 0.960 . S
H296 C293 0.961 . S
O297 Co272 1.967 . S
O297 C305 1.258 . S
O298 Co273 1.941 . S
O298 C305 1.266 . S
H299 C301 0.959 . S
H300 C301 0.961 . S
C301 C291 1.510 . S
C301 H299 0.959 . S
C301 H300 0.961 . S
C301 H302 0.960 . S
H302 C301 0.960 . S
H303 N283 0.862 . S
O304 Co272 1.920 . S
O304 C277 1.289 . S
C305 O297 1.258 . S
C305 O298 1.266 . S
Co306 O309 1.970 . S
Co306 N323 1.989 . S
Co306 O331 1.967 . S
Co306 O338 1.920 . S
Co307 O310 1.966 . S
Co307 N316 2.022 . S
Co307 N324 1.993 . S
Co307 O332 1.941 . S
C308 O309 1.258 . S
C308 O310 1.263 . S
O309 Co306 1.970 . S
O309 C308 1.258 . S
O310 Co307 1.966 . S
O310 C308 1.263 . S
C311 O312 1.235 . S
C311 O338 1.289 . S
O312 C311 1.235 . S
C313 C315 1.400 . S
C313 N316 1.351 . S
C313 C318 1.501 . S
C314 C315 1.387 . S
C314 N317 1.341 . S
C315 C313 1.400 . S
C315 C314 1.387 . S
N316 Co307 2.022 . S
N316 C313 1.351 . S
N316 N317 1.365 . S
N317 C314 1.341 . S
N317 N316 1.365 . S
N317 H337 0.862 . S
C318 C313 1.501 . S
C318 H319 0.961 . S
C318 H320 0.961 . S
C318 H321 0.960 . S
H319 C318 0.961 . S
H320 C318 0.961 . S
H321 C318 0.960 . S
C322 N323 1.342 . S
C322 C326 1.401 . S
C322 C327 1.499 . S
N323 Co306 1.989 . S
N323 C322 1.342 . S
N323 N324 1.388 . S
N324 Co307 1.993 . S
N324 N323 1.388 . S
N324 C325 1.346 . S
C325 N324 1.346 . S
C325 C326 1.396 . S
C325 C335 1.510 . S
C326 C322 1.401 . S
C326 C325 1.396 . S
C327 C322 1.499 . S
C327 H328 0.959 . S
C327 H329 0.960 . S
C327 H330 0.961 . S
H328 C327 0.959 . S
H329 C327 0.960 . S
H330 C327 0.961 . S
O331 Co306 1.967 . S
O331 C339 1.258 . S
O332 Co307 1.941 . S
O332 C339 1.266 . S
H333 C335 0.959 . S
H334 C335 0.961 . S
C335 C325 1.510 . S
C335 H333 0.959 . S
C335 H334 0.961 . S
C335 H336 0.960 . S
H336 C335 0.960 . S
H337 N317 0.862 . S
O338 Co306 1.920 . S
O338 C311 1.289 . S
C339 O331 1.258 . S
C339 O332 1.266 . S
Co340 O343 1.970 . S
Co340 N357 1.989 . S
Co340 O365 1.967 . S
Co340 O372 1.920 . S
Co341 O344 1.966 . S
Co341 N350 2.022 1_556 S
Co341 N358 1.993 . S
Co341 O366 1.941 . S
C342 O343 1.258 . S
C342 O344 1.263 . S
O343 Co340 1.970 . S
O343 C342 1.258 . S
O344 Co341 1.966 . S
O344 C342 1.263 . S
C345 O346 1.235 . S
C345 O372 1.289 . S
O346 C345 1.235 . S
C347 C349 1.400 . S
C347 N350 1.351 . S
C347 C352 1.501 . S
C348 C349 1.387 . S
C348 N351 1.341 . S
C349 C347 1.400 . S
C349 C348 1.387 . S
N350 Co341 2.022 1_554 S
N350 C347 1.351 . S
N350 N351 1.365 . S
N351 C348 1.341 . S
N351 N350 1.365 . S
N351 H371 0.862 . S
C352 C347 1.501 . S
C352 H353 0.961 . S
C352 H354 0.961 . S
C352 H355 0.960 . S
H353 C352 0.961 . S
H354 C352 0.961 . S
H355 C352 0.960 . S
C356 N357 1.342 . S
C356 C360 1.401 . S
C356 C361 1.499 . S
N357 Co340 1.989 . S
N357 C356 1.342 . S
N357 N358 1.388 . S
N358 Co341 1.993 . S
N358 N357 1.388 . S
N358 C359 1.346 . S
C359 N358 1.346 . S
C359 C360 1.396 . S
C359 C369 1.510 1_556 S
C360 C356 1.401 . S
C360 C359 1.396 . S
C361 C356 1.499 . S
C361 H362 0.959 . S
C361 H363 0.960 . S
C361 H364 0.961 . S
H362 C361 0.959 . S
H363 C361 0.960 . S
H364 C361 0.961 . S
O365 Co340 1.967 . S
O365 C373 1.258 . S
O366 Co341 1.941 . S
O366 C373 1.266 . S
H367 C369 0.959 . S
H368 C369 0.961 . S
C369 C359 1.510 1_554 S
C369 H367 0.959 . S
C369 H368 0.961 . S
C369 H370 0.960 . S
H370 C369 0.960 . S
H371 N351 0.862 . S
O372 Co340 1.920 . S
O372 C345 1.289 . S
C373 O365 1.258 . S
C373 O366 1.266 . S
Co374 O377 1.970 . S
Co374 N391 1.989 . S
Co374 O399 1.967 . S
Co374 O406 1.920 . S
Co375 O378 1.966 . S
Co375 N384 2.022 . S
Co375 N392 1.993 . S
Co375 O400 1.941 . S
C376 O377 1.258 . S
C376 O378 1.263 . S
O377 Co374 1.970 . S
O377 C376 1.258 . S
O378 Co375 1.966 . S
O378 C376 1.263 . S
C379 O380 1.235 . S
C379 O406 1.289 . S
O380 C379 1.235 . S
C381 C383 1.400 . S
C381 N384 1.351 . S
C381 C386 1.501 . S
C382 C383 1.387 . S
C382 N385 1.341 . S
C383 C381 1.400 . S
C383 C382 1.387 . S
N384 Co375 2.022 . S
N384 C381 1.351 . S
N384 N385 1.365 . S
N385 C382 1.341 . S
N385 N384 1.365 . S
N385 H405 0.862 . S
C386 C381 1.501 . S
C386 H387 0.961 . S
C386 H388 0.961 . S
C386 H389 0.960 . S
H387 C386 0.961 . S
H388 C386 0.961 . S
H389 C386 0.960 . S
C390 N391 1.342 . S
C390 C394 1.401 . S
C390 C395 1.499 . S
N391 Co374 1.989 . S
N391 C390 1.342 . S
N391 N392 1.388 . S
N392 Co375 1.993 . S
N392 N391 1.388 . S
N392 C393 1.346 . S
C393 N392 1.346 . S
C393 C394 1.396 . S
C393 C403 1.510 . S
C394 C390 1.401 . S
C394 C393 1.396 . S
C395 C390 1.499 . S
C395 H396 0.959 . S
C395 H397 0.960 . S
C395 H398 0.961 . S
H396 C395 0.959 . S
H397 C395 0.960 . S
H398 C395 0.961 . S
O399 Co374 1.967 . S
O399 C407 1.258 . S
O400 Co375 1.941 . S
O400 C407 1.266 . S
H401 C403 0.959 . S
H402 C403 0.961 . S
C403 C393 1.510 . S
C403 H401 0.959 . S
C403 H402 0.961 . S
C403 H404 0.960 . S
H404 C403 0.960 . S
H405 N385 0.862 . S
O406 Co374 1.920 . S
O406 C379 1.289 . S
C407 O399 1.258 . S
C407 O400 1.266 . S
C408 C409 1.391 . S
C408 C410 1.394 . S
C408 H424 0.931 . S
C409 C408 1.391 . S
C409 C413 1.376 . S
C410 C408 1.394 . S
C410 C411 1.369 . S
C410 C414 1.531 . S
C411 C410 1.369 . S
C411 C412 1.410 . S
C411 C419 1.503 1_455 S
C412 C411 1.410 . S
C412 C413 1.392 . S
C412 C415 1.511 . S
C413 C409 1.376 . S
C413 C412 1.392 . S
C413 H425 0.929 . S
C414 C410 1.531 . S
C414 H426 0.960 1_455 S
C414 H427 0.962 . S
C414 H428 0.960 . S
C415 C412 1.511 . S
C415 H429 0.961 . S
C415 H430 0.961 . S
C415 H431 0.961 . S
C416 C417 1.370 . S
C416 C418 1.363 . S
C416 H432 0.931 . S
C417 C416 1.370 . S
C417 C421 1.408 . S
C418 C416 1.363 . S
C418 C419 1.370 . S
C418 C422 1.525 . S
C419 C411 1.503 1_655 S
C419 C418 1.370 . S
C419 C420 1.403 . S
C420 C419 1.403 . S
C420 C421 1.404 . S
C420 C423 1.539 . S
C421 C417 1.408 . S
C421 C420 1.404 . S
C421 H433 0.930 . S
C422 C418 1.525 . S
C422 H434 0.956 1_655 S
C422 H435 0.959 1_655 S
C422 H436 0.962 . S
C423 C420 1.539 . S
C423 H437 0.958 . S
C423 H438 0.961 . S
C423 H439 0.960 . S
H424 C408 0.931 . S
H425 C413 0.929 . S
H426 C414 0.960 1_655 S
H427 C414 0.962 . S
H428 C414 0.960 . S
H429 C415 0.961 . S
H430 C415 0.961 . S
H431 C415 0.961 . S
H432 C416 0.931 . S
H433 C421 0.930 . S
H434 C422 0.956 1_455 S
H435 C422 0.959 1_455 S
H436 C422 0.962 . S
H437 C423 0.958 . S
H438 C423 0.961 . S
H439 C423 0.960 . S
C440 C441 1.391 . S
C440 C442 1.394 . S
C440 H456 0.931 . S
C441 C440 1.391 . S
C441 C445 1.376 . S
C442 C440 1.394 . S
C442 C443 1.369 . S
C442 C446 1.531 . S
C443 C442 1.369 . S
C443 C444 1.410 . S
C443 C451 1.503 1_545 S
C444 C443 1.410 . S
C444 C445 1.392 . S
C444 C447 1.511 . S
C445 C441 1.376 . S
C445 C444 1.392 . S
C445 H457 0.929 . S
C446 C442 1.531 . S
C446 H458 0.960 . S
C446 H459 0.962 . S
C446 H460 0.960 . S
C447 C444 1.511 . S
C447 H461 0.961 . S
C447 H462 0.961 1_545 S
C447 H463 0.961 . S
C448 C449 1.370 . S
C448 C450 1.363 . S
C448 H464 0.931 . S
C449 C448 1.370 . S
C449 C453 1.408 . S
C450 C448 1.363 . S
C450 C451 1.370 . S
C450 C454 1.524 . S
C451 C443 1.503 1_565 S
C451 C450 1.370 . S
C451 C452 1.403 . S
C452 C451 1.403 . S
C452 C453 1.404 . S
C452 C455 1.539 . S
C453 C449 1.408 . S
C453 C452 1.404 . S
C453 H465 0.930 . S
C454 C450 1.524 . S
C454 H466 0.956 . S
C454 H467 0.961 . S
C454 H468 0.961 . S
C455 C452 1.539 . S
C455 H469 0.958 1_565 S
C455 H470 0.961 . S
C455 H471 0.960 1_565 S
H456 C440 0.931 . S
H457 C445 0.929 . S
H458 C446 0.960 . S
H459 C446 0.962 . S
H460 C446 0.960 . S
H461 C447 0.961 . S
H462 C447 0.961 1_565 S
H463 C447 0.961 . S
H464 C448 0.931 . S
H465 C453 0.930 . S
H466 C454 0.956 . S
H467 C454 0.961 . S
H468 C454 0.961 . S
H469 C455 0.958 1_545 S
H470 C455 0.961 . S
H471 C455 0.960 1_545 S
C472 C473 1.391 . S
C472 C474 1.394 . S
C472 H488 0.931 . S
C473 C472 1.391 . S
C473 C477 1.376 . S
C474 C472 1.394 . S
C474 C475 1.369 . S
C474 C478 1.531 . S
C475 C474 1.369 . S
C475 C476 1.410 . S
C475 C483 1.503 . S
C476 C475 1.410 . S
C476 C477 1.392 . S
C476 C479 1.511 . S
C477 C473 1.376 . S
C477 C476 1.392 . S
C477 H489 0.929 . S
C478 C474 1.531 . S
C478 H490 0.960 . S
C478 H491 0.962 . S
C478 H492 0.960 1_556 S
C479 C476 1.511 . S
C479 H493 0.961 . S
C479 H494 0.961 . S
C479 H495 0.961 . S
C480 C481 1.370 . S
C480 C482 1.363 . S
C480 H496 0.931 . S
C481 C480 1.370 . S
C481 C485 1.408 . S
C482 C480 1.363 . S
C482 C483 1.370 . S
C482 C486 1.524 . S
C483 C475 1.503 . S
C483 C482 1.370 . S
C483 C484 1.403 . S
C484 C483 1.403 . S
C484 C485 1.404 . S
C484 C487 1.539 . S
C485 C481 1.408 . S
C485 C484 1.404 . S
C485 H497 0.930 . S
C486 C482 1.524 . S
C486 H498 0.956 . S
C486 H499 0.961 . S
C486 H500 0.961 . S
C487 C484 1.539 . S
C487 H501 0.958 . S
C487 H502 0.961 . S
C487 H503 0.960 . S
H488 C472 0.931 . S
H489 C477 0.929 . S
H490 C478 0.960 . S
H491 C478 0.962 . S
H492 C478 0.960 1_554 S
H493 C479 0.961 . S
H494 C479 0.961 . S
H495 C479 0.961 . S
H496 C480 0.931 . S
H497 C485 0.930 . S
H498 C486 0.956 . S
H499 C486 0.961 . S
H500 C486 0.961 . S
H501 C487 0.958 . S
H502 C487 0.961 . S
H503 C487 0.960 . S
C504 C505 1.391 . S
C504 C506 1.394 . S
C504 H520 0.931 . S
C505 C504 1.391 . S
C505 C509 1.376 . S
C506 C504 1.394 . S
C506 C507 1.369 . S
C506 C510 1.531 . S
C507 C506 1.369 . S
C507 C508 1.410 . S
C507 C515 1.503 1_455 S
C508 C507 1.410 . S
C508 C509 1.392 . S
C508 C511 1.511 . S
C509 C505 1.376 . S
C509 C508 1.392 . S
C509 H521 0.929 . S
C510 C506 1.531 . S
C510 H522 0.960 1_455 S
C510 H523 0.962 . S
C510 H524 0.960 . S
C511 C508 1.511 . S
C511 H525 0.961 . S
C511 H526 0.979 . S
C511 H527 0.961 . S
C512 C513 1.370 . S
C512 C514 1.363 . S
C512 H528 0.931 . S
C513 C512 1.370 . S
C513 C517 1.408 . S
C514 C512 1.363 . S
C514 C515 1.370 . S
C514 C518 1.524 1_655 S
C515 C507 1.503 1_655 S
C515 C514 1.370 . S
C515 C516 1.403 . S
C516 C515 1.403 . S
C516 C517 1.404 . S
C516 C519 1.539 . S
C517 C513 1.408 . S
C517 C516 1.404 . S
C517 H529 0.930 . S
C518 C514 1.524 1_455 S
C518 H530 0.956 . S
C518 H531 0.961 . S
C518 H532 0.961 1_455 S
C519 C516 1.539 . S
C519 H533 0.958 . S
C519 H534 0.961 . S
C519 H535 0.960 . S
H520 C504 0.931 . S
H521 C509 0.929 . S
H522 C510 0.960 1_655 S
H523 C510 0.962 . S
H524 C510 0.960 . S
H525 C511 0.961 . S
H526 C511 0.979 . S
H527 C511 0.961 . S
H528 C512 0.931 . S
H529 C517 0.930 . S
H530 C518 0.956 . S
H531 C518 0.961 . S
H532 C518 0.961 1_655 S
H533 C519 0.958 . S
H534 C519 0.961 . S
H535 C519 0.960 . S
C536 C537 1.391 . S
C536 C538 1.394 . S
C536 H552 0.931 . S
C537 C536 1.391 . S
C537 C541 1.376 . S
C538 C536 1.394 . S
C538 C539 1.369 . S
C538 C542 1.531 . S
C539 C538 1.369 . S
C539 C540 1.410 . S
C539 C547 1.503 1_545 S
C540 C539 1.410 . S
C540 C541 1.392 . S
C540 C543 1.511 . S
C541 C537 1.376 . S
C541 C540 1.392 . S
C541 H553 0.929 . S
C542 C538 1.531 . S
C542 H554 0.960 1_545 S
C542 H555 0.962 . S
C542 H556 0.960 . S
C543 C540 1.511 . S
C543 H557 0.961 . S
C543 H558 0.993 . S
C543 H559 0.961 . S
C544 C545 1.370 . S
C544 C546 1.363 . S
C544 H560 0.931 . S
C545 C544 1.370 . S
C545 C549 1.408 . S
C546 C544 1.363 . S
C546 C547 1.370 . S
C546 C550 1.524 1_565 S
C547 C539 1.503 1_565 S
C547 C546 1.370 . S
C547 C548 1.403 . S
C548 C547 1.403 . S
C548 C549 1.404 . S
C548 C551 1.539 . S
C549 C545 1.408 . S
C549 C548 1.404 . S
C549 H561 0.930 . S
C550 C546 1.524 1_545 S
C550 H562 0.956 . S
C550 H563 0.961 . S
C550 H564 0.961 1_545 S
C551 C548 1.539 . S
C551 H565 0.958 . S
C551 H566 0.961 . S
C551 H567 0.960 . S
H552 C536 0.931 . S
H553 C541 0.929 . S
H554 C542 0.960 1_565 S
H555 C542 0.962 . S
H556 C542 0.960 . S
H557 C543 0.961 . S
H558 C543 0.993 . S
H559 C543 0.961 . S
H560 C544 0.931 . S
H561 C549 0.930 . S
H562 C550 0.956 . S
H563 C550 0.961 . S
H564 C550 0.961 1_565 S
H565 C551 0.958 . S
H566 C551 0.961 . S
H567 C551 0.960 . S
C568 C569 1.391 . S
C568 C570 1.394 . S
C568 H584 0.931 . S
C569 C568 1.391 . S
C569 C573 1.376 . S
C570 C568 1.394 . S
C570 C571 1.369 . S
C570 C574 1.531 . S
C571 C570 1.369 . S
C571 C572 1.410 . S
C571 C579 1.503 . S
C572 C571 1.410 . S
C572 C573 1.392 . S
C572 C575 1.511 . S
C573 C569 1.376 . S
C573 C572 1.392 . S
C573 H585 0.929 . S
C574 C570 1.531 . S
C574 H586 0.960 . S
C574 H587 0.962 . S
C574 H588 0.960 . S
C575 C572 1.511 . S
C575 H589 0.961 1_556 S
C575 H590 0.961 . S
C575 H591 0.961 . S
C576 C577 1.370 . S
C576 C578 1.363 . S
C576 H592 0.931 . S
C577 C576 1.370 . S
C577 C581 1.408 . S
C578 C576 1.363 . S
C578 C579 1.370 . S
C578 C582 1.524 . S
C579 C571 1.503 . S
C579 C578 1.370 . S
C579 C580 1.403 . S
C580 C579 1.403 . S
C580 C581 1.404 . S
C580 C583 1.539 . S
C581 C577 1.408 . S
C581 C580 1.404 . S
C581 H593 0.930 . S
C582 C578 1.524 . S
C582 H594 0.956 . S
C582 H595 0.961 . S
C582 H596 0.961 . S
C583 C580 1.539 . S
C583 H597 0.958 . S
C583 H598 0.961 . S
C583 H599 0.960 . S
H584 C568 0.931 . S
H585 C573 0.929 . S
H586 C574 0.960 . S
H587 C574 0.962 . S
H588 C574 0.960 . S
H589 C575 0.961 1_554 S
H590 C575 0.961 . S
H591 C575 0.961 . S
H592 C576 0.931 . S
H593 C581 0.930 . S
H594 C582 0.956 . S
H595 C582 0.961 . S
H596 C582 0.961 . S
H597 C583 0.958 . S
H598 C583 0.961 . S
H599 C583 0.960 . S
C600 C601 1.391 . S
C600 C602 1.394 . S
C600 H616 0.931 . S
C601 C600 1.391 . S
C601 C605 1.376 . S
C602 C600 1.394 . S
C602 C603 1.369 . S
C602 C606 1.531 . S
C603 C602 1.369 . S
C603 C604 1.410 . S
C603 C611 1.503 . S
C604 C603 1.410 . S
C604 C605 1.392 . S
C604 C607 1.511 . S
C605 C601 1.376 . S
C605 C604 1.392 . S
C605 H617 0.929 . S
C606 C602 1.531 . S
C606 H618 0.960 . S
C606 H619 0.962 . S
C606 H620 0.960 . S
C607 C604 1.511 . S
C607 H621 0.961 . S
C607 H622 0.961 . S
C607 H623 0.961 . S
C608 C609 1.370 . S
C608 C610 1.363 . S
C608 H624 0.931 . S
C609 C608 1.370 . S
C609 C613 1.408 . S
C610 C608 1.363 . S
C610 C611 1.370 . S
C610 C614 1.524 . S
C611 C603 1.503 . S
C611 C610 1.370 . S
C611 C612 1.403 . S
C612 C611 1.403 . S
C612 C613 1.404 . S
C612 C615 1.539 . S
C613 C609 1.408 . S
C613 C612 1.404 . S
C613 H625 0.930 . S
C614 C610 1.524 . S
C614 H626 0.956 . S
C614 H627 0.961 . S
C614 H628 0.961 . S
C615 C612 1.539 . S
C615 H629 0.958 . S
C615 H630 0.961 . S
C615 H631 0.960 . S
H616 C600 0.931 . S
H617 C605 0.929 . S
H618 C606 0.960 . S
H619 C606 0.962 . S
H620 C606 0.960 . S
H621 C607 0.961 . S
H622 C607 0.961 . S
H623 C607 0.961 . S
H624 C608 0.931 . S
H625 C613 0.930 . S
H626 C614 0.956 . S
H627 C614 0.961 . S
H628 C614 0.961 . S
H629 C615 0.958 . S
H630 C615 0.961 . S
H631 C615 0.960 . S
C632 C633 1.391 . S
C632 C634 1.394 . S
C632 H648 0.931 . S
C633 C632 1.391 . S
C633 C637 1.376 . S
C634 C632 1.394 . S
C634 C635 1.369 . S
C634 C638 1.531 . S
C635 C634 1.369 . S
C635 C636 1.410 . S
C635 C643 1.503 . S
C636 C635 1.410 . S
C636 C637 1.392 . S
C636 C639 1.511 . S
C637 C633 1.376 . S
C637 C636 1.392 . S
C637 H649 0.929 . S
C638 C634 1.531 . S
C638 H650 0.960 . S
C638 H651 0.962 . S
C638 H652 0.960 . S
C639 C636 1.511 . S
C639 H653 0.961 . S
C639 H654 0.961 . S
C639 H655 0.961 . S
C640 C641 1.370 . S
C640 C642 1.363 1_554 S
C640 H656 0.931 . S
C641 C640 1.370 . S
C641 C645 1.408 . S
C642 C640 1.363 1_556 S
C642 C643 1.370 . S
C642 C646 1.524 . S
C643 C635 1.503 . S
C643 C642 1.370 . S
C643 C644 1.403 . S
C644 C643 1.403 . S
C644 C645 1.404 1_556 S
C644 C647 1.539 . S
C645 C641 1.408 . S
C645 C644 1.404 1_554 S
C645 H657 0.930 . S
C646 C642 1.524 . S
C646 H658 0.956 . S
C646 H659 0.961 . S
C646 H660 0.961 . S
C647 C644 1.539 . S
C647 H661 0.958 . S
C647 H662 0.961 . S
C647 H663 0.960 . S
H648 C632 0.931 . S
H649 C637 0.929 . S
H650 C638 0.960 . S
H651 C638 0.962 . S
H652 C638 0.960 . S
H653 C639 0.961 . S
H654 C639 0.961 . S
H655 C639 0.961 . S
H656 C640 0.931 . S
H657 C645 0.930 . S
H658 C646 0.956 . S
H659 C646 0.961 . S
H660 C646 0.961 . S
H661 C647 0.958 . S
H662 C647 0.961 . S
H663 C647 0.960 . S
C664 C665 1.391 . S
C664 C666 1.394 . S
C664 H680 0.931 . S
C665 C664 1.391 . S
C665 C669 1.376 . S
C666 C664 1.394 . S
C666 C667 1.369 . S
C666 C670 1.531 . S
C667 C666 1.369 . S
C667 C668 1.410 . S
C667 C675 1.503 . S
C668 C667 1.410 . S
C668 C669 1.392 . S
C668 C671 1.511 . S
C669 C665 1.376 . S
C669 C668 1.392 . S
C669 H681 0.929 . S
C670 C666 1.531 . S
C670 H682 0.960 . S
C670 H683 0.962 . S
C670 H684 0.960 . S
C671 C668 1.511 . S
C671 H685 0.961 . S
C671 H686 0.961 . S
C671 H687 0.961 . S
C672 C673 1.370 . S
C672 C674 1.363 . S
C672 H688 0.931 . S
C673 C672 1.370 . S
C673 C677 1.408 . S
C674 C672 1.363 . S
C674 C675 1.370 . S
C674 C678 1.524 . S
C675 C667 1.503 . S
C675 C674 1.370 . S
C675 C676 1.403 . S
C676 C675 1.403 . S
C676 C677 1.404 . S
C676 C679 1.539 . S
C677 C673 1.408 . S
C677 C676 1.404 . S
C677 H689 0.930 . S
C678 C674 1.524 . S
C678 H690 0.956 . S
C678 H691 0.961 . S
C678 H692 0.961 . S
C679 C676 1.539 . S
C679 H693 0.958 . S
C679 H694 0.961 . S
C679 H695 0.960 . S
H680 C664 0.931 . S
H681 C669 0.929 . S
H682 C670 0.960 . S
H683 C670 0.962 . S
H684 C670 0.960 . S
H685 C671 0.961 . S
H686 C671 0.961 . S
H687 C671 0.961 . S
H688 C672 0.931 . S
H689 C677 0.930 . S
H690 C678 0.956 . S
H691 C678 0.961 . S
H692 C678 0.961 . S
H693 C679 0.958 . S
H694 C679 0.961 . S
H695 C679 0.960 . S
C696 C697 1.391 . S
C696 C698 1.394 . S
C696 H712 0.931 . S
C697 C696 1.391 . S
C697 C701 1.376 . S
C698 C696 1.394 . S
C698 C699 1.369 . S
C698 C702 1.531 . S
C699 C698 1.369 . S
C699 C700 1.410 . S
C699 C707 1.503 . S
C700 C699 1.410 . S
C700 C701 1.392 . S
C700 C703 1.511 . S
C701 C697 1.376 . S
C701 C700 1.392 . S
C701 H713 0.929 . S
C702 C698 1.531 . S
C702 H714 0.960 . S
C702 H715 0.962 . S
C702 H716 0.960 . S
C703 C700 1.511 . S
C703 H717 0.961 . S
C703 H718 0.961 . S
C703 H719 0.961 . S
C704 C705 1.370 . S
C704 C706 1.363 . S
C704 H720 0.931 . S
C705 C704 1.370 . S
C705 C709 1.408 . S
C706 C704 1.363 . S
C706 C707 1.370 . S
C706 C710 1.524 . S
C707 C699 1.503 . S
C707 C706 1.370 . S
C707 C708 1.403 . S
C708 C707 1.403 . S
C708 C709 1.404 . S
C708 C711 1.539 . S
C709 C705 1.408 . S
C709 C708 1.404 . S
C709 H721 0.930 . S
C710 C706 1.524 . S
C710 H722 0.956 . S
C710 H723 0.961 . S
C710 H724 0.961 . S
C711 C708 1.539 . S
C711 H725 0.958 . S
C711 H726 0.961 . S
C711 H727 0.960 . S
H712 C696 0.931 . S
H713 C701 0.929 . S
H714 C702 0.960 . S
H715 C702 0.962 . S
H716 C702 0.960 . S
H717 C703 0.961 . S
H718 C703 0.961 . S
H719 C703 0.961 . S
H720 C704 0.931 . S
H721 C709 0.930 . S
H722 C710 0.956 . S
H723 C710 0.961 . S
H724 C710 0.961 . S
H725 C711 0.958 . S
H726 C711 0.961 . S
H727 C711 0.960 . S
C728 C729 1.391 . S
C728 C730 1.394 1_554 S
C728 H744 0.931 . S
C729 C728 1.391 . S
C729 C733 1.376 . S
C730 C728 1.394 1_556 S
C730 C731 1.369 . S
C730 C734 1.531 . S
C731 C730 1.369 . S
C731 C732 1.410 . S
C731 C739 1.503 . S
C732 C731 1.410 . S
C732 C733 1.392 1_556 S
C732 C735 1.511 . S
C733 C729 1.376 . S
C733 C732 1.392 1_554 S
C733 H745 0.929 . S
C734 C730 1.531 . S
C734 H746 0.960 . S
C734 H747 0.962 . S
C734 H748 0.960 . S
C735 C732 1.511 . S
C735 H749 0.961 . S
C735 H750 0.961 . S
C735 H751 0.961 . S
C736 C737 1.370 . S
C736 C738 1.363 . S
C736 H752 0.931 . S
C737 C736 1.370 . S
C737 C741 1.408 . S
C738 C736 1.363 . S
C738 C739 1.370 . S
C738 C742 1.524 . S
C739 C731 1.503 . S
C739 C738 1.370 . S
C739 C740 1.403 . S
C740 C739 1.403 . S
C740 C741 1.404 . S
C740 C743 1.539 . S
C741 C737 1.408 . S
C741 C740 1.404 . S
C741 H753 0.930 . S
C742 C738 1.524 . S
C742 H754 0.956 . S
C742 H755 0.961 . S
C742 H756 0.961 . S
C743 C740 1.539 . S
C743 H757 0.958 . S
C743 H758 0.961 . S
C743 H759 0.960 . S
H744 C728 0.931 . S
H745 C733 0.929 . S
H746 C734 0.960 . S
H747 C734 0.962 . S
H748 C734 0.960 . S
H749 C735 0.961 . S
H750 C735 0.961 . S
H751 C735 0.961 . S
H752 C736 0.931 . S
H753 C741 0.930 . S
H754 C742 0.956 . S
H755 C742 0.961 . S
H756 C742 0.961 . S
H757 C743 0.958 . S
H758 C743 0.961 . S
H759 C743 0.960 . S
C760 C761 1.391 . S
C760 C762 1.394 . S
C760 H776 0.931 . S
C761 C760 1.391 . S
C761 C765 1.376 . S
C762 C760 1.394 . S
C762 C763 1.369 . S
C762 C766 1.531 . S
C763 C762 1.369 . S
C763 C764 1.410 . S
C763 C771 1.503 . S
C764 C763 1.410 . S
C764 C765 1.392 . S
C764 C767 1.511 . S
C765 C761 1.376 . S
C765 C764 1.392 . S
C765 H777 0.929 . S
C766 C762 1.531 . S
C766 H778 0.960 . S
C766 H779 0.962 . S
C766 H780 0.960 . S
C767 C764 1.511 . S
C767 H781 0.961 . S
C767 H782 0.961 . S
C767 H783 0.961 . S
C768 C769 1.370 . S
C768 C770 1.363 . S
C768 H784 0.931 . S
C769 C768 1.370 . S
C769 C773 1.408 . S
C770 C768 1.363 . S
C770 C771 1.370 . S
C770 C774 1.524 . S
C771 C763 1.503 . S
C771 C770 1.370 . S
C771 C772 1.403 . S
C772 C771 1.403 . S
C772 C773 1.404 . S
C772 C775 1.539 . S
C773 C769 1.408 . S
C773 C772 1.404 . S
C773 H785 0.930 . S
C774 C770 1.524 . S
C774 H786 0.956 . S
C774 H787 0.961 . S
C774 H788 0.961 . S
C775 C772 1.539 . S
C775 H789 0.958 . S
C775 H790 0.961 . S
C775 H791 0.960 . S
H776 C760 0.931 . S
H777 C765 0.929 . S
H778 C766 0.960 . S
H779 C766 0.962 . S
H780 C766 0.960 . S
H781 C767 0.961 . S
H782 C767 0.961 . S
H783 C767 0.961 . S
H784 C768 0.931 . S
H785 C773 0.930 . S
H786 C774 0.956 . S
H787 C774 0.961 . S
H788 C774 0.961 . S
H789 C775 0.958 . S
H790 C775 0.961 . S
H791 C775 0.960 . S
C792 C793 1.391 . S
C792 C794 1.394 1_556 S
C792 H808 0.931 . S
C793 C792 1.391 . S
C793 C797 1.376 . S
C794 C792 1.394 1_554 S
C794 C795 1.369 . S
C794 C798 1.531 . S
C795 C794 1.369 . S
C795 C796 1.410 . S
C795 C803 1.503 . S
C796 C795 1.410 . S
C796 C797 1.392 1_554 S
C796 C799 1.511 . S
C797 C793 1.376 . S
C797 C796 1.392 1_556 S
C797 H809 0.929 . S
C798 C794 1.531 . S
C798 H810 0.960 . S
C798 H811 0.962 . S
C798 H812 0.960 . S
C799 C796 1.511 . S
C799 H813 0.961 . S
C799 H814 0.961 . S
C799 H815 0.961 . S
C800 C801 1.370 . S
C800 C802 1.363 . S
C800 H816 0.931 . S
C801 C800 1.370 . S
C801 C805 1.408 . S
C802 C800 1.363 . S
C802 C803 1.370 . S
C802 C806 1.524 . S
C803 C795 1.503 . S
C803 C802 1.370 . S
C803 C804 1.403 . S
C804 C803 1.403 . S
C804 C805 1.404 . S
C804 C807 1.539 . S
C805 C801 1.408 . S
C805 C804 1.404 . S
C805 H817 0.930 . S
C806 C802 1.524 . S
C806 H818 0.956 . S
C806 H819 0.961 . S
C806 H820 0.961 . S
C807 C804 1.539 . S
C807 H821 0.958 . S
C807 H822 0.961 . S
C807 H823 0.960 . S
H808 C792 0.931 . S
H809 C797 0.929 . S
H810 C798 0.960 . S
H811 C798 0.962 . S
H812 C798 0.960 . S
H813 C799 0.961 . S
H814 C799 0.961 . S
H815 C799 0.961 . S
H816 C800 0.931 . S
H817 C805 0.930 . S
H818 C806 0.956 . S
H819 C806 0.961 . S
H820 C806 0.961 . S
H821 C807 0.958 . S
H822 C807 0.961 . S
H823 C807 0.960 . S
C824 C825 1.391 . S
C824 C826 1.394 . S
C824 H840 0.931 . S
C825 C824 1.391 . S
C825 C829 1.376 . S
C826 C824 1.394 . S
C826 C827 1.369 . S
C826 C830 1.531 . S
C827 C826 1.369 . S
C827 C828 1.410 . S
C827 C835 1.503 . S
C828 C827 1.410 . S
C828 C829 1.392 . S
C828 C831 1.511 . S
C829 C825 1.376 . S
C829 C828 1.392 . S
C829 H841 0.929 . S
C830 C826 1.531 . S
C830 H842 0.960 . S
C830 H843 0.962 . S
C830 H844 0.960 . S
C831 C828 1.511 . S
C831 H845 0.961 . S
C831 H846 0.961 . S
C831 H847 0.961 . S
C832 C833 1.370 . S
C832 C834 1.363 . S
C832 H848 0.931 . S
C833 C832 1.370 . S
C833 C837 1.408 . S
C834 C832 1.363 . S
C834 C835 1.370 . S
C834 C838 1.524 . S
C835 C827 1.503 . S
C835 C834 1.370 . S
C835 C836 1.403 . S
C836 C835 1.403 . S
C836 C837 1.404 . S
C836 C839 1.539 . S
C837 C833 1.408 . S
C837 C836 1.404 . S
C837 H849 0.930 . S
C838 C834 1.524 . S
C838 H850 0.956 . S
C838 H851 0.961 . S
C838 H852 0.961 . S
C839 C836 1.539 . S
C839 H853 0.958 . S
C839 H854 0.961 . S
C839 H855 0.960 . S
H840 C824 0.931 . S
H841 C829 0.929 . S
H842 C830 0.960 . S
H843 C830 0.962 . S
H844 C830 0.960 . S
H845 C831 0.961 . S
H846 C831 0.961 . S
H847 C831 0.961 . S
H848 C832 0.931 . S
H849 C837 0.930 . S
H850 C838 0.956 . S
H851 C838 0.961 . S
H852 C838 0.961 . S
H853 C839 0.958 . S
H854 C839 0.961 . S
H855 C839 0.960 . S
C856 C857 1.391 . S
C856 C858 1.394 . S
C856 H872 0.931 . S
C857 C856 1.391 . S
C857 C861 1.376 . S
C858 C856 1.394 . S
C858 C859 1.369 . S
C858 C862 1.531 . S
C859 C858 1.369 . S
C859 C860 1.410 . S
C859 C867 1.503 . S
C860 C859 1.410 . S
C860 C861 1.392 . S
C860 C863 1.511 . S
C861 C857 1.376 . S
C861 C860 1.392 . S
C861 H873 0.929 . S
C862 C858 1.531 . S
C862 H874 0.960 . S
C862 H875 0.962 . S
C862 H876 0.960 . S
C863 C860 1.511 . S
C863 H877 0.961 . S
C863 H878 0.961 . S
C863 H879 0.961 . S
C864 C865 1.370 . S
C864 C866 1.363 . S
C864 H880 0.931 . S
C865 C864 1.370 . S
C865 C869 1.408 . S
C866 C864 1.363 . S
C866 C867 1.370 . S
C866 C870 1.524 . S
C867 C859 1.503 . S
C867 C866 1.370 . S
C867 C868 1.403 . S
C868 C867 1.403 . S
C868 C869 1.404 . S
C868 C871 1.539 . S
C869 C865 1.408 . S
C869 C868 1.404 . S
C869 H881 0.930 . S
C870 C866 1.524 . S
C870 H882 0.956 . S
C870 H883 0.961 . S
C870 H884 0.961 . S
C871 C868 1.539 . S
C871 H885 0.958 . S
C871 H886 0.961 . S
C871 H887 0.960 . S
H872 C856 0.931 . S
H873 C861 0.929 . S
H874 C862 0.960 . S
H875 C862 0.962 . S
H876 C862 0.960 . S
H877 C863 0.961 . S
H878 C863 0.961 . S
H879 C863 0.961 . S
H880 C864 0.931 . S
H881 C869 0.930 . S
H882 C870 0.956 . S
H883 C870 0.961 . S
H884 C870 0.961 . S
H885 C871 0.958 . S
H886 C871 0.961 . S
H887 C871 0.960 . S
C888 C889 1.391 . S
C888 C890 1.394 . S
C888 H904 0.931 . S
C889 C888 1.391 . S
C889 C893 1.376 . S
C890 C888 1.394 . S
C890 C891 1.369 . S
C890 C894 1.531 . S
C891 C890 1.369 . S
C891 C892 1.410 . S
C891 C899 1.503 . S
C892 C891 1.410 . S
C892 C893 1.392 . S
C892 C895 1.511 . S
C893 C889 1.376 . S
C893 C892 1.392 . S
C893 H905 0.929 . S
C894 C890 1.531 . S
C894 H906 0.960 . S
C894 H907 0.962 . S
C894 H908 0.960 . S
C895 C892 1.511 . S
C895 H909 0.961 . S
C895 H910 0.961 . S
C895 H911 0.961 . S
C896 C897 1.370 . S
C896 C898 1.363 1_556 S
C896 H912 0.931 . S
C897 C896 1.370 . S
C897 C901 1.408 . S
C898 C896 1.363 1_554 S
C898 C899 1.370 . S
C898 C902 1.524 . S
C899 C891 1.503 . S
C899 C898 1.370 . S
C899 C900 1.403 . S
C900 C899 1.403 . S
C900 C901 1.404 1_554 S
C900 C903 1.539 . S
C901 C897 1.408 . S
C901 C900 1.404 1_556 S
C901 H913 0.930 . S
C902 C898 1.524 . S
C902 H914 0.956 . S
C902 H915 0.961 . S
C902 H916 0.961 . S
C903 C900 1.539 . S
C903 H917 0.958 . S
C903 H918 0.961 . S
C903 H919 0.960 . S
H904 C888 0.931 . S
H905 C893 0.929 . S
H906 C894 0.960 . S
H907 C894 0.962 . S
H908 C894 0.960 . S
H909 C895 0.961 . S
H910 C895 0.961 . S
H911 C895 0.961 . S
H912 C896 0.931 . S
H913 C901 0.930 . S
H914 C902 0.956 . S
H915 C902 0.961 . S
H916 C902 0.961 . S
H917 C903 0.958 . S
H918 C903 0.961 . S
H919 C903 0.960 . S
C920 C921 1.391 . S
C920 C922 1.394 . S
C920 H936 0.931 . S
C921 C920 1.391 . S
C921 C925 1.376 . S
C922 C920 1.394 . S
C922 C923 1.369 . S
C922 C926 1.531 . S
C923 C922 1.369 . S
C923 C924 1.410 . S
C923 C931 1.503 . S
C924 C923 1.410 . S
C924 C925 1.392 . S
C924 C927 1.511 . S
C925 C921 1.376 . S
C925 C924 1.392 . S
C925 H937 0.929 . S
C926 C922 1.531 . S
C926 H938 0.960 . S
C926 H939 0.962 . S
C926 H940 0.960 . S
C927 C924 1.511 . S
C927 H941 0.961 . S
C927 H942 0.961 . S
C927 H943 0.961 . S
C928 C929 1.370 . S
C928 C930 1.363 . S
C928 H944 0.931 . S
C929 C928 1.370 . S
C929 C933 1.408 . S
C930 C928 1.363 . S
C930 C931 1.370 . S
C930 C934 1.524 . S
C931 C923 1.503 . S
C931 C930 1.370 . S
C931 C932 1.403 . S
C932 C931 1.403 . S
C932 C933 1.404 . S
C932 C935 1.539 . S
C933 C929 1.408 . S
C933 C932 1.404 . S
C933 H945 0.930 . S
C934 C930 1.524 . S
C934 H946 0.956 . S
C934 H947 0.961 . S
C934 H948 0.961 . S
C935 C932 1.539 . S
C935 H949 0.958 . S
C935 H950 0.961 . S
C935 H951 0.960 . S
H936 C920 0.931 . S
H937 C925 0.929 . S
H938 C926 0.960 . S
H939 C926 0.962 . S
H940 C926 0.960 . S
H941 C927 0.961 . S
H942 C927 0.961 . S
H943 C927 0.961 . S
H944 C928 0.931 . S
H945 C933 0.930 . S
H946 C934 0.956 . S
H947 C934 0.961 . S
H948 C934 0.961 . S
H949 C935 0.958 . S
H950 C935 0.961 . S
H951 C935 0.960 . S
C952 C953 1.391 . S
C952 C954 1.394 . S
C952 H968 0.931 . S
C953 C952 1.391 . S
C953 C957 1.376 . S
C954 C952 1.394 . S
C954 C955 1.369 . S
C954 C958 1.531 . S
C955 C954 1.369 . S
C955 C956 1.410 . S
C955 C963 1.503 . S
C956 C955 1.410 . S
C956 C957 1.392 . S
C956 C959 1.511 . S
C957 C953 1.376 . S
C957 C956 1.392 . S
C957 H969 0.929 . S
C958 C954 1.531 . S
C958 H970 0.960 . S
C958 H971 0.962 . S
C958 H972 0.960 . S
C959 C956 1.511 . S
C959 H973 0.961 . S
C959 H974 0.961 . S
C959 H975 0.961 . S
C960 C961 1.370 . S
C960 C962 1.363 . S
C960 H976 0.931 . S
C961 C960 1.370 . S
C961 C965 1.408 . S
C962 C960 1.363 . S
C962 C963 1.370 . S
C962 C966 1.524 . S
C963 C955 1.503 . S
C963 C962 1.370 . S
C963 C964 1.403 . S
C964 C963 1.403 . S
C964 C965 1.404 . S
C964 C967 1.539 . S
C965 C961 1.408 . S
C965 C964 1.404 . S
C965 H977 0.930 . S
C966 C962 1.524 . S
C966 H978 0.956 . S
C966 H979 0.961 . S
C966 H980 0.961 . S
C967 C964 1.539 . S
C967 H981 0.958 . S
C967 H982 0.961 . S
C967 H983 0.960 . S
H968 C952 0.931 . S
H969 C957 0.929 . S
H970 C958 0.960 . S
H971 C958 0.962 . S
H972 C958 0.960 . S
H973 C959 0.961 . S
H974 C959 0.961 . S
H975 C959 0.961 . S
H976 C960 0.931 . S
H977 C965 0.930 . S
H978 C966 0.956 . S
H979 C966 0.961 . S
H980 C966 0.961 . S
H981 C967 0.958 . S
H982 C967 0.961 . S
H983 C967 0.960 . S
C984 C985 1.391 . S
C984 C986 1.394 . S
C984 H1000 0.931 . S
C985 C984 1.391 . S
C985 C989 1.376 . S
C986 C984 1.394 . S
C986 C987 1.369 . S
C986 C990 1.531 . S
C987 C986 1.369 . S
C987 C988 1.410 . S
C987 C995 1.503 . S
C988 C987 1.410 . S
C988 C989 1.392 . S
C988 C991 1.511 . S
C989 C985 1.376 . S
C989 C988 1.392 . S
C989 H1001 0.929 . S
C990 C986 1.531 . S
C990 H1002 0.960 . S
C990 H1003 0.962 . S
C990 H1004 0.960 . S
C991 C988 1.511 . S
C991 H1005 0.961 . S
C991 H1006 0.961 . S
C991 H1007 0.961 . S
C992 C993 1.370 . S
C992 C994 1.363 . S
C992 H1008 0.931 . S
C993 C992 1.370 . S
C993 C997 1.408 . S
C994 C992 1.363 . S
C994 C995 1.370 . S
C994 C998 1.524 . S
C995 C987 1.503 . S
C995 C994 1.370 . S
C995 C996 1.403 . S
C996 C995 1.403 . S
C996 C997 1.404 . S
C996 C999 1.539 . S
C997 C993 1.408 . S
C997 C996 1.404 . S
C997 H1009 0.930 . S
C998 C994 1.524 . S
C998 H1010 0.956 . S
C998 H1011 0.961 . S
C998 H1012 0.961 . S
C999 C996 1.539 . S
C999 H1013 0.958 . S
C999 H1014 0.961 . S
C999 H1015 0.960 . S
H1000 C984 0.931 . S
H1001 C989 0.929 . S
H1002 C990 0.960 . S
H1003 C990 0.962 . S
H1004 C990 0.960 . S
H1005 C991 0.961 . S
H1006 C991 0.961 . S
H1007 C991 0.961 . S
H1008 C992 0.931 . S
H1009 C997 0.930 . S
H1010 C998 0.956 . S
H1011 C998 0.961 . S
H1012 C998 0.961 . S
H1013 C999 0.958 . S
H1014 C999 0.961 . S
H1015 C999 0.960 . S
C1016 C1017 1.391 . S
C1016 C1018 1.394 . S
C1016 H1032 0.931 . S
C1017 C1016 1.391 . S
C1017 C1021 1.376 . S
C1018 C1016 1.394 . S
C1018 C1019 1.369 . S
C1018 C1022 1.531 . S
C1019 C1018 1.369 . S
C1019 C1020 1.410 . S
C1019 C1027 1.503 . S
C1020 C1019 1.410 . S
C1020 C1021 1.392 . S
C1020 C1023 1.511 . S
C1021 C1017 1.376 . S
C1021 C1020 1.392 . S
C1021 H1033 0.929 . S
C1022 C1018 1.531 . S
C1022 H1034 0.960 . S
C1022 H1035 0.962 . S
C1022 H1036 0.960 . S
C1023 C1020 1.511 . S
C1023 H1037 0.961 . S
C1023 H1038 0.961 . S
C1023 H1039 0.961 . S
C1024 C1025 1.370 . S
C1024 C1026 1.363 . S
C1024 H1040 0.931 . S
C1025 C1024 1.370 . S
C1025 C1029 1.408 . S
C1026 C1024 1.363 . S
C1026 C1027 1.370 . S
C1026 C1030 1.524 . S
C1027 C1019 1.503 . S
C1027 C1026 1.370 . S
C1027 C1028 1.403 . S
C1028 C1027 1.403 . S
C1028 C1029 1.404 . S
C1028 C1031 1.539 . S
C1029 C1025 1.408 . S
C1029 C1028 1.404 . S
C1029 H1041 0.930 . S
C1030 C1026 1.524 . S
C1030 H1042 0.956 . S
C1030 H1043 0.961 . S
C1030 H1044 0.961 . S
C1031 C1028 1.539 . S
C1031 H1045 0.958 . S
C1031 H1046 0.961 . S
C1031 H1047 0.960 . S
H1032 C1016 0.931 . S
H1033 C1021 0.929 . S
H1034 C1022 0.960 . S
H1035 C1022 0.962 . S
H1036 C1022 0.960 . S
H1037 C1023 0.961 . S
H1038 C1023 0.961 . S
H1039 C1023 0.961 . S
H1040 C1024 0.931 . S
H1041 C1029 0.930 . S
H1042 C1030 0.956 . S
H1043 C1030 0.961 . S
H1044 C1030 0.961 . S
H1045 C1031 0.958 . S
H1046 C1031 0.961 . S
H1047 C1031 0.960 . S
C1048 C1049 1.391 . S
C1048 C1050 1.394 . S
C1048 H1064 0.931 . S
C1049 C1048 1.391 . S
C1049 C1053 1.376 . S
C1050 C1048 1.394 . S
C1050 C1051 1.369 . S
C1050 C1054 1.531 . S
C1051 C1050 1.369 . S
C1051 C1052 1.410 . S
C1051 C1059 1.503 . S
C1052 C1051 1.410 . S
C1052 C1053 1.392 . S
C1052 C1055 1.511 . S
C1053 C1049 1.376 . S
C1053 C1052 1.392 . S
C1053 H1065 0.929 . S
C1054 C1050 1.531 . S
C1054 H1066 0.960 . S
C1054 H1067 0.962 . S
C1054 H1068 0.960 . S
C1055 C1052 1.511 . S
C1055 H1069 0.961 . S
C1055 H1070 0.961 . S
C1055 H1071 0.961 . S
C1056 C1057 1.370 . S
C1056 C1058 1.363 . S
C1056 H1072 0.931 . S
C1057 C1056 1.370 . S
C1057 C1061 1.408 . S
C1058 C1056 1.363 . S
C1058 C1059 1.370 . S
C1058 C1062 1.524 . S
C1059 C1051 1.503 . S
C1059 C1058 1.370 . S
C1059 C1060 1.403 . S
C1060 C1059 1.403 . S
C1060 C1061 1.404 . S
C1060 C1063 1.539 . S
C1061 C1057 1.408 . S
C1061 C1060 1.404 . S
C1061 H1073 0.930 . S
C1062 C1058 1.524 . S
C1062 H1074 0.956 . S
C1062 H1075 0.961 . S
C1062 H1076 0.961 . S
C1063 C1060 1.539 . S
C1063 H1077 0.958 . S
C1063 H1078 0.961 . S
C1063 H1079 0.960 . S
H1064 C1048 0.931 . S
H1065 C1053 0.929 . S
H1066 C1054 0.960 . S
H1067 C1054 0.962 . S
H1068 C1054 0.960 . S
H1069 C1055 0.961 . S
H1070 C1055 0.961 . S
H1071 C1055 0.961 . S
H1072 C1056 0.931 . S
H1073 C1061 0.930 . S
H1074 C1062 0.956 . S
H1075 C1062 0.961 . S
H1076 C1062 0.961 . S
H1077 C1063 0.958 . S
H1078 C1063 0.961 . S
H1079 C1063 0.960 . S
C1080 C1081 1.391 . S
C1080 C1082 1.394 . S
C1080 H1096 0.931 . S
C1081 C1080 1.391 . S
C1081 C1085 1.376 . S
C1082 C1080 1.394 . S
C1082 C1083 1.369 . S
C1082 C1086 1.531 . S
C1083 C1082 1.369 . S
C1083 C1084 1.410 . S
C1083 C1091 1.503 . S
C1084 C1083 1.410 . S
C1084 C1085 1.392 . S
C1084 C1087 1.511 . S
C1085 C1081 1.376 . S
C1085 C1084 1.392 . S
C1085 H1097 0.929 . S
C1086 C1082 1.531 . S
C1086 H1098 0.960 . S
C1086 H1099 0.962 . S
C1086 H1100 0.960 . S
C1087 C1084 1.511 . S
C1087 H1101 0.961 . S
C1087 H1102 0.961 . S
C1087 H1103 0.961 . S
C1088 C1089 1.370 . S
C1088 C1090 1.363 . S
C1088 H1104 0.931 . S
C1089 C1088 1.370 . S
C1089 C1093 1.408 . S
C1090 C1088 1.363 . S
C1090 C1091 1.370 . S
C1090 C1094 1.524 . S
C1091 C1083 1.503 . S
C1091 C1090 1.370 . S
C1091 C1092 1.403 . S
C1092 C1091 1.403 . S
C1092 C1093 1.404 . S
C1092 C1095 1.539 . S
C1093 C1089 1.408 . S
C1093 C1092 1.404 . S
C1093 H1105 0.930 . S
C1094 C1090 1.524 . S
C1094 H1106 0.956 . S
C1094 H1107 0.961 . S
C1094 H1108 0.961 . S
C1095 C1092 1.539 . S
C1095 H1109 0.958 . S
C1095 H1110 0.961 . S
C1095 H1111 0.960 . S
H1096 C1080 0.931 . S
H1097 C1085 0.929 . S
H1098 C1086 0.960 . S
H1099 C1086 0.962 . S
H1100 C1086 0.960 . S
H1101 C1087 0.961 . S
H1102 C1087 0.961 . S
H1103 C1087 0.961 . S
H1104 C1088 0.931 . S
H1105 C1093 0.930 . S
H1106 C1094 0.956 . S
H1107 C1094 0.961 . S
H1108 C1094 0.961 . S
H1109 C1095 0.958 . S
H1110 C1095 0.961 . S
H1111 C1095 0.960 . S
C1112 C1113 1.391 . S
C1112 C1114 1.394 . S
C1112 H1128 0.931 . S
C1113 C1112 1.391 . S
C1113 C1117 1.376 . S
C1114 C1112 1.394 . S
C1114 C1115 1.369 . S
C1114 C1118 1.531 . S
C1115 C1114 1.369 . S
C1115 C1116 1.410 . S
C1115 C1123 1.503 . S
C1116 C1115 1.410 . S
C1116 C1117 1.392 . S
C1116 C1119 1.511 . S
C1117 C1113 1.376 . S
C1117 C1116 1.392 . S
C1117 H1129 0.929 . S
C1118 C1114 1.531 . S
C1118 H1130 0.960 . S
C1118 H1131 0.962 . S
C1118 H1132 0.960 . S
C1119 C1116 1.511 . S
C1119 H1133 0.961 . S
C1119 H1134 0.961 . S
C1119 H1135 0.961 . S
C1120 C1121 1.370 . S
C1120 C1122 1.363 . S
C1120 H1136 0.931 . S
C1121 C1120 1.370 . S
C1121 C1125 1.408 . S
C1122 C1120 1.363 . S
C1122 C1123 1.370 . S
C1122 C1126 1.524 . S
C1123 C1115 1.503 . S
C1123 C1122 1.370 . S
C1123 C1124 1.403 . S
C1124 C1123 1.403 . S
C1124 C1125 1.404 . S
C1124 C1127 1.539 . S
C1125 C1121 1.408 . S
C1125 C1124 1.404 . S
C1125 H1137 0.930 . S
C1126 C1122 1.524 . S
C1126 H1138 0.956 . S
C1126 H1139 0.961 . S
C1126 H1140 0.961 . S
C1127 C1124 1.539 . S
C1127 H1141 0.958 . S
C1127 H1142 0.961 . S
C1127 H1143 0.960 . S
H1128 C1112 0.931 . S
H1129 C1117 0.929 . S
H1130 C1118 0.960 . S
H1131 C1118 0.962 . S
H1132 C1118 0.960 . S
H1133 C1119 0.961 . S
H1134 C1119 0.961 . S
H1135 C1119 0.961 . S
H1136 C1120 0.931 . S
H1137 C1125 0.930 . S
H1138 C1126 0.956 . S
H1139 C1126 0.961 . S
H1140 C1126 0.961 . S
H1141 C1127 0.958 . S
H1142 C1127 0.961 . S
H1143 C1127 0.960 . S
C1144 C1145 1.391 . S
C1144 C1146 1.394 . S
C1144 H1160 0.931 . S
C1145 C1144 1.391 . S
C1145 C1149 1.376 . S
C1146 C1144 1.394 . S
C1146 C1147 1.369 . S
C1146 C1150 1.531 . S
C1147 C1146 1.369 . S
C1147 C1148 1.410 . S
C1147 C1155 1.503 . S
C1148 C1147 1.410 . S
C1148 C1149 1.392 . S
C1148 C1151 1.511 . S
C1149 C1145 1.376 . S
C1149 C1148 1.392 . S
C1149 H1161 0.929 . S
C1150 C1146 1.531 . S
C1150 H1162 0.960 . S
C1150 H1163 0.962 . S
C1150 H1164 0.960 . S
C1151 C1148 1.511 . S
C1151 H1165 0.961 . S
C1151 H1166 0.961 . S
C1151 H1167 0.961 . S
C1152 C1153 1.370 . S
C1152 C1154 1.363 . S
C1152 H1168 0.931 . S
C1153 C1152 1.370 . S
C1153 C1157 1.408 . S
C1154 C1152 1.363 . S
C1154 C1155 1.370 . S
C1154 C1158 1.524 . S
C1155 C1147 1.503 . S
C1155 C1154 1.370 . S
C1155 C1156 1.403 . S
C1156 C1155 1.403 . S
C1156 C1157 1.404 . S
C1156 C1159 1.539 . S
C1157 C1153 1.408 . S
C1157 C1156 1.404 . S
C1157 H1169 0.930 . S
C1158 C1154 1.524 . S
C1158 H1170 0.956 . S
C1158 H1171 0.961 . S
C1158 H1172 0.961 . S
C1159 C1156 1.539 . S
C1159 H1173 0.958 . S
C1159 H1174 0.961 . S
C1159 H1175 0.960 . S
H1160 C1144 0.931 . S
H1161 C1149 0.929 . S
H1162 C1150 0.960 . S
H1163 C1150 0.962 . S
H1164 C1150 0.960 . S
H1165 C1151 0.961 . S
H1166 C1151 0.961 . S
H1167 C1151 0.961 . S
H1168 C1152 0.931 . S
H1169 C1157 0.930 . S
H1170 C1158 0.956 . S
H1171 C1158 0.961 . S
H1172 C1158 0.961 . S
H1173 C1159 0.958 . S
H1174 C1159 0.961 . S
H1175 C1159 0.960 . S
C1176 C1177 1.391 . S
C1176 C1178 1.394 . S
C1176 H1192 0.931 . S
C1177 C1176 1.391 . S
C1177 C1181 1.376 1_556 S
C1178 C1176 1.394 . S
C1178 C1179 1.369 . S
C1178 C1182 1.531 . S
C1179 C1178 1.369 . S
C1179 C1180 1.410 1_556 S
C1179 C1187 1.503 1_556 S
C1180 C1179 1.410 1_554 S
C1180 C1181 1.392 . S
C1180 C1183 1.511 . S
C1181 C1177 1.376 1_554 S
C1181 C1180 1.392 . S
C1181 H1193 0.929 . S
C1182 C1178 1.531 . S
C1182 H1194 0.960 . S
C1182 H1195 0.962 . S
C1182 H1196 0.960 . S
C1183 C1180 1.511 . S
C1183 H1197 0.961 . S
C1183 H1198 0.961 . S
C1183 H1199 0.961 . S
C1184 C1185 1.370 . S
C1184 C1186 1.363 . S
C1184 H1200 0.931 . S
C1185 C1184 1.370 . S
C1185 C1189 1.408 . S
C1186 C1184 1.363 . S
C1186 C1187 1.370 . S
C1186 C1190 1.524 1_554 S
C1187 C1179 1.503 1_554 S
C1187 C1186 1.370 . S
C1187 C1188 1.403 . S
C1188 C1187 1.403 . S
C1188 C1189 1.404 . S
C1188 C1191 1.539 . S
C1189 C1185 1.408 . S
C1189 C1188 1.404 . S
C1189 H1201 0.930 . S
C1190 C1186 1.524 1_556 S
C1190 H1202 0.956 . S
C1190 H1203 0.961 1_556 S
C1190 H1204 0.961 . S
C1191 C1188 1.539 . S
C1191 H1205 0.958 . S
C1191 H1206 0.961 . S
C1191 H1207 0.960 . S
H1192 C1176 0.931 . S
H1193 C1181 0.929 . S
H1194 C1182 0.960 . S
H1195 C1182 0.962 . S
H1196 C1182 0.960 . S
H1197 C1183 0.961 . S
H1198 C1183 0.961 . S
H1199 C1183 0.961 . S
H1200 C1184 0.931 . S
H1201 C1189 0.930 . S
H1202 C1190 0.956 . S
H1203 C1190 0.961 1_554 S
H1204 C1190 0.961 . S
H1205 C1191 0.958 . S
H1206 C1191 0.961 . S
H1207 C1191 0.960 . S
C1208 C1209 1.391 . S
C1208 C1210 1.394 . S
C1208 H1224 0.931 . S
C1209 C1208 1.391 . S
C1209 C1213 1.376 . S
C1210 C1208 1.394 . S
C1210 C1211 1.369 . S
C1210 C1214 1.531 . S
C1211 C1210 1.369 . S
C1211 C1212 1.410 . S
C1211 C1219 1.503 . S
C1212 C1211 1.410 . S
C1212 C1213 1.392 . S
C1212 C1215 1.511 . S
C1213 C1209 1.376 . S
C1213 C1212 1.392 . S
C1213 H1225 0.929 . S
C1214 C1210 1.531 . S
C1214 H1226 0.960 . S
C1214 H1227 0.962 . S
C1214 H1228 0.960 . S
C1215 C1212 1.511 . S
C1215 H1229 0.961 . S
C1215 H1230 0.961 . S
C1215 H1231 0.961 . S
C1216 C1217 1.370 . S
C1216 C1218 1.363 . S
C1216 H1232 0.931 . S
C1217 C1216 1.370 . S
C1217 C1221 1.408 . S
C1218 C1216 1.363 . S
C1218 C1219 1.370 . S
C1218 C1222 1.524 . S
C1219 C1211 1.503 . S
C1219 C1218 1.370 . S
C1219 C1220 1.403 . S
C1220 C1219 1.403 . S
C1220 C1221 1.404 . S
C1220 C1223 1.539 . S
C1221 C1217 1.408 . S
C1221 C1220 1.404 . S
C1221 H1233 0.930 . S
C1222 C1218 1.524 . S
C1222 H1234 0.956 . S
C1222 H1235 0.961 . S
C1222 H1236 0.961 . S
C1223 C1220 1.539 . S
C1223 H1237 0.958 . S
C1223 H1238 0.961 . S
C1223 H1239 0.960 . S
H1224 C1208 0.931 . S
H1225 C1213 0.929 . S
H1226 C1214 0.960 . S
H1227 C1214 0.962 . S
H1228 C1214 0.960 . S
H1229 C1215 0.961 . S
H1230 C1215 0.961 . S
H1231 C1215 0.961 . S
H1232 C1216 0.931 . S
H1233 C1221 0.930 . S
H1234 C1222 0.956 . S
H1235 C1222 0.961 . S
H1236 C1222 0.961 . S
H1237 C1223 0.958 . S
H1238 C1223 0.961 . S
H1239 C1223 0.960 . S
C1240 C1241 1.391 . S
C1240 C1242 1.394 . S
C1240 H1256 0.931 . S
C1241 C1240 1.391 . S
C1241 C1245 1.376 . S
C1242 C1240 1.394 . S
C1242 C1243 1.369 . S
C1242 C1246 1.531 . S
C1243 C1242 1.369 . S
C1243 C1244 1.410 . S
C1243 C1251 1.503 . S
C1244 C1243 1.410 . S
C1244 C1245 1.392 . S
C1244 C1247 1.511 . S
C1245 C1241 1.376 . S
C1245 C1244 1.392 . S
C1245 H1257 0.929 . S
C1246 C1242 1.531 . S
C1246 H1258 0.960 . S
C1246 H1259 0.962 . S
C1246 H1260 0.960 . S
C1247 C1244 1.511 . S
C1247 H1261 0.961 . S
C1247 H1262 0.961 . S
C1247 H1263 0.961 . S
C1248 C1249 1.370 . S
C1248 C1250 1.363 . S
C1248 H1264 0.931 . S
C1249 C1248 1.370 . S
C1249 C1253 1.408 . S
C1250 C1248 1.363 . S
C1250 C1251 1.370 . S
C1250 C1254 1.524 . S
C1251 C1243 1.503 . S
C1251 C1250 1.370 . S
C1251 C1252 1.403 . S
C1252 C1251 1.403 . S
C1252 C1253 1.404 . S
C1252 C1255 1.539 . S
C1253 C1249 1.408 . S
C1253 C1252 1.404 . S
C1253 H1265 0.930 . S
C1254 C1250 1.524 . S
C1254 H1266 0.956 . S
C1254 H1267 0.961 . S
C1254 H1268 0.961 . S
C1255 C1252 1.539 . S
C1255 H1269 0.958 . S
C1255 H1270 0.961 . S
C1255 H1271 0.960 . S
H1256 C1240 0.931 . S
H1257 C1245 0.929 . S
H1258 C1246 0.960 . S
H1259 C1246 0.962 . S
H1260 C1246 0.960 . S
H1261 C1247 0.961 . S
H1262 C1247 0.961 . S
H1263 C1247 0.961 . S
H1264 C1248 0.931 . S
H1265 C1253 0.930 . S
H1266 C1254 0.956 . S
H1267 C1254 0.961 . S
H1268 C1254 0.961 . S
H1269 C1255 0.958 . S
H1270 C1255 0.961 . S
H1271 C1255 0.960 . S
C1272 C1273 1.391 1_556 S
C1272 C1274 1.394 . S
C1272 H1288 0.931 . S
C1273 C1272 1.391 1_554 S
C1273 C1277 1.376 . S
C1274 C1272 1.394 . S
C1274 C1275 1.369 1_556 S
C1274 C1278 1.531 . S
C1275 C1274 1.369 1_554 S
C1275 C1276 1.410 . S
C1275 C1283 1.503 1_554 S
C1276 C1275 1.410 . S
C1276 C1277 1.392 . S
C1276 C1279 1.511 . S
C1277 C1273 1.376 . S
C1277 C1276 1.392 . S
C1277 H1289 0.929 . S
C1278 C1274 1.531 . S
C1278 H1290 0.960 . S
C1278 H1291 0.962 . S
C1278 H1292 0.960 . S
C1279 C1276 1.511 . S
C1279 H1293 0.961 . S
C1279 H1294 0.961 . S
C1279 H1295 0.961 . S
C1280 C1281 1.370 . S
C1280 C1282 1.363 . S
C1280 H1296 0.931 . S
C1281 C1280 1.370 . S
C1281 C1285 1.408 . S
C1282 C1280 1.363 . S
C1282 C1283 1.370 . S
C1282 C1286 1.524 . S
C1283 C1275 1.503 1_556 S
C1283 C1282 1.370 . S
C1283 C1284 1.403 1_556 S
C1284 C1283 1.403 1_554 S
C1284 C1285 1.404 1_554 S
C1284 C1287 1.539 . S
C1285 C1281 1.408 . S
C1285 C1284 1.404 1_556 S
C1285 H1297 0.930 . S
C1286 C1282 1.524 . S
C1286 H1298 0.956 . S
C1286 H1299 0.961 . S
C1286 H1300 0.961 . S
C1287 C1284 1.539 . S
C1287 H1301 0.958 . S
C1287 H1302 0.961 . S
C1287 H1303 0.960 . S
H1288 C1272 0.931 . S
H1289 C1277 0.929 . S
H1290 C1278 0.960 . S
H1291 C1278 0.962 . S
H1292 C1278 0.960 . S
H1293 C1279 0.961 . S
H1294 C1279 0.961 . S
H1295 C1279 0.961 . S
H1296 C1280 0.931 . S
H1297 C1285 0.930 . S
H1298 C1286 0.956 . S
H1299 C1286 0.961 . S
H1300 C1286 0.961 . S
H1301 C1287 0.958 . S
H1302 C1287 0.961 . S
H1303 C1287 0.960 . S
C1304 C1305 1.391 . S
C1304 C1306 1.394 . S
C1304 H1320 0.931 . S
C1305 C1304 1.391 . S
C1305 C1309 1.376 . S
C1306 C1304 1.394 . S
C1306 C1307 1.369 . S
C1306 C1310 1.531 . S
C1307 C1306 1.369 . S
C1307 C1308 1.410 . S
C1307 C1315 1.503 . S
C1308 C1307 1.410 . S
C1308 C1309 1.392 . S
C1308 C1311 1.511 . S
C1309 C1305 1.376 . S
C1309 C1308 1.392 . S
C1309 H1321 0.929 . S
C1310 C1306 1.531 . S
C1310 H1322 0.960 . S
C1310 H1323 0.962 . S
C1310 H1324 0.960 . S
C1311 C1308 1.511 . S
C1311 H1325 0.961 . S
C1311 H1326 0.961 . S
C1311 H1327 0.961 . S
C1312 C1313 1.370 . S
C1312 C1314 1.363 . S
C1312 H1328 0.931 . S
C1313 C1312 1.370 . S
C1313 C1317 1.408 . S
C1314 C1312 1.363 . S
C1314 C1315 1.370 . S
C1314 C1318 1.524 . S
C1315 C1307 1.503 . S
C1315 C1314 1.370 . S
C1315 C1316 1.403 . S
C1316 C1315 1.403 . S
C1316 C1317 1.404 . S
C1316 C1319 1.539 . S
C1317 C1313 1.408 . S
C1317 C1316 1.404 . S
C1317 H1329 0.930 . S
C1318 C1314 1.524 . S
C1318 H1330 0.956 . S
C1318 H1331 0.961 . S
C1318 H1332 0.961 . S
C1319 C1316 1.539 . S
C1319 H1333 0.958 . S
C1319 H1334 0.961 . S
C1319 H1335 0.960 . S
H1320 C1304 0.931 . S
H1321 C1309 0.929 . S
H1322 C1310 0.960 . S
H1323 C1310 0.962 . S
H1324 C1310 0.960 . S
H1325 C1311 0.961 . S
H1326 C1311 0.961 . S
H1327 C1311 0.961 . S
H1328 C1312 0.931 . S
H1329 C1317 0.930 . S
H1330 C1318 0.956 . S
H1331 C1318 0.961 . S
H1332 C1318 0.961 . S
H1333 C1319 0.958 . S
H1334 C1319 0.961 . S
H1335 C1319 0.960 . S
C1336 C1337 1.391 . S
C1336 C1338 1.394 . S
C1336 H1352 0.931 . S
C1337 C1336 1.391 . S
C1337 C1341 1.376 . S
C1338 C1336 1.394 . S
C1338 C1339 1.369 . S
C1338 C1342 1.531 . S
C1339 C1338 1.369 . S
C1339 C1340 1.410 . S
C1339 C1347 1.503 . S
C1340 C1339 1.410 . S
C1340 C1341 1.392 . S
C1340 C1343 1.511 . S
C1341 C1337 1.376 . S
C1341 C1340 1.392 . S
C1341 H1353 0.929 . S
C1342 C1338 1.531 . S
C1342 H1354 0.960 . S
C1342 H1355 0.962 . S
C1342 H1356 0.960 . S
C1343 C1340 1.511 . S
C1343 H1357 0.961 . S
C1343 H1358 0.961 . S
C1343 H1359 0.961 . S
C1344 C1345 1.370 . S
C1344 C1346 1.363 . S
C1344 H1360 0.931 . S
C1345 C1344 1.370 . S
C1345 C1349 1.408 . S
C1346 C1344 1.363 . S
C1346 C1347 1.370 . S
C1346 C1350 1.524 . S
C1347 C1339 1.503 . S
C1347 C1346 1.370 . S
C1347 C1348 1.403 . S
C1348 C1347 1.403 . S
C1348 C1349 1.404 . S
C1348 C1351 1.539 . S
C1349 C1345 1.408 . S
C1349 C1348 1.404 . S
C1349 H1361 0.930 . S
C1350 C1346 1.524 . S
C1350 H1362 0.956 . S
C1350 H1363 0.961 . S
C1350 H1364 0.961 . S
C1351 C1348 1.539 . S
C1351 H1365 0.958 . S
C1351 H1366 0.961 . S
C1351 H1367 0.960 . S
H1352 C1336 0.931 . S
H1353 C1341 0.929 . S
H1354 C1342 0.960 . S
H1355 C1342 0.962 . S
H1356 C1342 0.960 . S
H1357 C1343 0.961 . S
H1358 C1343 0.961 . S
H1359 C1343 0.961 . S
H1360 C1344 0.931 . S
H1361 C1349 0.930 . S
H1362 C1350 0.956 . S
H1363 C1350 0.961 . S
H1364 C1350 0.961 . S
H1365 C1351 0.958 . S
H1366 C1351 0.961 . S
H1367 C1351 0.960 . S
C409 C2 1.481 . S
C417 C376 1.466 . S
C441 C36 1.450 . S
C449 C206 1.472 . S
C473 C240 1.479 . S
C481 C70 1.469 . S
C505 C274 1.482 . S
C513 C104 1.464 . S
C537 C308 1.482 . S
C545 C138 1.464 . S
C569 C342 1.464 . S
C577 C172 1.464 . S
C601 C9 1.223 . S
C609 C5 1.351 . S
C633 C39 1.326 . S
C641 C43 1.290 . S
C665 C77 1.253 . S
C673 C73 1.343 1_554 S
C697 C111 1.248 . S
C705 C107 1.350 . S
C729 C145 1.274 . S
C737 C141 1.339 . S
C761 C175 1.336 1_554 S
C769 C179 1.285 . S
C793 C213 1.265 . S
C801 C209 1.341 . S
C825 C243 1.336 . S
C833 C247 1.266 . S
C857 C281 1.237 . S
C865 C277 1.346 1_556 S
C889 C311 1.359 . S
C897 C315 1.254 . S
C921 C345 1.341 . S
C929 C349 1.261 . S
C953 C383 1.229 . S
C961 C379 1.352 1_556 S
C985 C33 1.468 . S
C993 C305 1.468 . S
C1017 C67 1.467 . S
C1025 C339 1.467 . S
C1049 C101 1.461 . S
C1057 C373 1.464 . S
C1081 C407 1.457 . S
C1089 C135 1.464 . S
C1113 C237 1.468 . S
C1121 C169 1.469 . S
C1145 C271 1.463 . S
C1153 C203 1.468 . S
C1177 C360 1.484 . S
C1185 C20 1.495 . S
C1209 C394 1.482 . S
C1217 C54 1.498 . S
C1241 C224 1.499 . S
C1249 C88 1.490 . S
C1273 C122 1.497 . S
C1281 C258 1.493 . S
C1305 C156 1.490 . S
C1313 C292 1.493 . S
C1337 C190 1.496 . S
C1345 C326 1.494 . S
