# Generated by pormake.
# Topology ske, (6)-cn, num edge types: 1
# Building blocks:
#     Node 0, Type 0, BuildingBlock: UKALOJ_clean_sbu_0, # of connection points: 6
#     Node 1, Type 0, BuildingBlock: UKALOJ_clean_sbu_0, # of connection points: 6
#     Node 2, Type 0, BuildingBlock: UKALOJ_clean_sbu_0, # of connection points: 6
#     Node 3, Type 0, BuildingBlock: UKALOJ_clean_sbu_0, # of connection points: 6
#     Node 4, Type 0, BuildingBlock: UKALOJ_clean_sbu_0, # of connection points: 6
#     Node 5, Type 0, BuildingBlock: UKALOJ_clean_sbu_0, # of connection points: 6
#     Node 6, Type 0, BuildingBlock: UKALOJ_clean_sbu_0, # of connection points: 6
#     Node 7, Type 0, BuildingBlock: UKALOJ_clean_sbu_0, # of connection points: 6
#     Edge 8, Type (0, 0), BuildingBlock: EZIPEK_clean_linker_0, # of connection points: 2
#     Edge 9, Type (0, 0), BuildingBlock: EZIPEK_clean_linker_0, # of connection points: 2
#     Edge 10, Type (0, 0), BuildingBlock: EZIPEK_clean_linker_0, # of connection points: 2
#     Edge 11, Type (0, 0), BuildingBlock: EZIPEK_clean_linker_0, # of connection points: 2
#     Edge 12, Type (0, 0), BuildingBlock: EZIPEK_clean_linker_0, # of connection points: 2
#     Edge 13, Type (0, 0), BuildingBlock: EZIPEK_clean_linker_0, # of connection points: 2
#     Edge 14, Type (0, 0), BuildingBlock: EZIPEK_clean_linker_0, # of connection points: 2
#     Edge 15, Type (0, 0), BuildingBlock: EZIPEK_clean_linker_0, # of connection points: 2
#     Edge 16, Type (0, 0), BuildingBlock: EZIPEK_clean_linker_0, # of connection points: 2
#     Edge 17, Type (0, 0), BuildingBlock: EZIPEK_clean_linker_0, # of connection points: 2
#     Edge 18, Type (0, 0), BuildingBlock: EZIPEK_clean_linker_0, # of connection points: 2
#     Edge 19, Type (0, 0), BuildingBlock: EZIPEK_clean_linker_0, # of connection points: 2
#     Edge 20, Type (0, 0), BuildingBlock: EZIPEK_clean_linker_0, # of connection points: 2
#     Edge 21, Type (0, 0), BuildingBlock: EZIPEK_clean_linker_0, # of connection points: 2
#     Edge 22, Type (0, 0), BuildingBlock: EZIPEK_clean_linker_0, # of connection points: 2
#     Edge 23, Type (0, 0), BuildingBlock: EZIPEK_clean_linker_0, # of connection points: 2
#     Edge 24, Type (0, 0), BuildingBlock: EZIPEK_clean_linker_0, # of connection points: 2
#     Edge 25, Type (0, 0), BuildingBlock: EZIPEK_clean_linker_0, # of connection points: 2
#     Edge 26, Type (0, 0), BuildingBlock: EZIPEK_clean_linker_0, # of connection points: 2
#     Edge 27, Type (0, 0), BuildingBlock: EZIPEK_clean_linker_0, # of connection points: 2
#     Edge 28, Type (0, 0), BuildingBlock: EZIPEK_clean_linker_0, # of connection points: 2
#     Edge 29, Type (0, 0), BuildingBlock: EZIPEK_clean_linker_0, # of connection points: 2
#     Edge 30, Type (0, 0), BuildingBlock: EZIPEK_clean_linker_0, # of connection points: 2
#     Edge 31, Type (0, 0), BuildingBlock: EZIPEK_clean_linker_0, # of connection points: 2
# Relax obj value: 0.068
# Max RMSD: 0.117
# Mean RMSD: 0.117
data_MOF--net-ske--node1-UKALOJ_clean_sbu_0--edge1-EZIPEK_clean_linker_0
_symmetry_space_group_name_H-M    P1
_symmetry_Int_Tables_number       1
_symmetry_cell_setting            triclinic
loop_
_symmetry_equiv_pos_as_xyz
'x, y, z'
_cell_length_a     43.112897
_cell_length_b     32.093046
_cell_length_c     11.189518
_cell_angle_alpha  89.283676
_cell_angle_beta   90.207487
_cell_angle_gamma 90.969764
loop_
_atom_site_label
_atom_site_type_symbol
_atom_site_fract_x
_atom_site_fract_y
_atom_site_fract_z
_atom_type_partial_charge
Zn0 Zn 0.1292 0.30338 0.53822 0.0
O1 O 0.12638 0.3075 0.72303 0.0
C2 C 0.1873 0.25705 0.55608 0.0
Zn3 Zn 0.12061 0.23502 0.53721 0.0
C4 C 0.12324 0.27337 0.78063 0.0
O5 O 0.12066 0.23916 0.72511 0.0
C6 C 0.12642 0.26715 0.29503 0.0
O7 O 0.07288 0.24365 0.53637 0.0
O8 O 0.08068 0.31179 0.52348 0.0
N9 N 0.11547 0.17188 0.55278 0.0
C10 C 0.10621 0.14139 0.47806 0.0
C11 C 0.12629 0.1121 0.63131 0.0
N12 N 0.12762 0.15349 0.64825 0.0
N13 N 0.11319 0.10371 0.52484 0.0
C14 C 0.12437 0.40094 0.5317 0.0
C15 C 0.16889 0.41675 0.45943 0.0
N16 N 0.13978 0.36514 0.51891 0.0
N17 N 0.1674 0.37515 0.47426 0.0
N18 N 0.14215 0.43355 0.49443 0.0
H19 H 0.088 0.38047 0.6502 0.0
H20 H 0.07546 0.39701 0.50373 0.0
H21 H 0.08742 0.43555 0.611 0.0
C22 C 0.09195 0.40382 0.57761 0.0
C23 C 0.09139 0.14837 0.3585 0.0
H24 H 0.076 0.1757 0.3614 0.0
H25 H 0.07784 0.12034 0.33114 0.0
H26 H 0.10968 0.15457 0.29078 0.0
O27 O 0.11999 0.2333 0.35007 0.0
O28 O 0.13292 0.29961 0.35352 0.0
C29 C 0.06232 0.28032 0.52992 0.0
O30 O 0.17619 0.29325 0.5579 0.0
O31 O 0.16914 0.22616 0.54097 0.0
Zn32 Zn 0.86739 0.32077 0.60055 0.0
O33 O 0.91504 0.32749 0.57679 0.0
C34 C 0.86304 0.2838 0.35806 0.0
Zn35 Zn 0.86889 0.25074 0.60167 0.0
C36 C 0.9308 0.29446 0.57522 0.0
O37 O 0.91762 0.25882 0.58774 0.0
C38 C 0.806 0.27716 0.63954 0.0
O39 O 0.87155 0.25324 0.7883 0.0
O40 O 0.87332 0.32178 0.78747 0.0
N41 N 0.87194 0.18668 0.61246 0.0
C42 C 0.88216 0.15727 0.53758 0.0
C43 C 0.86187 0.12546 0.68716 0.0
N44 N 0.85949 0.1667 0.70544 0.0
N45 N 0.87596 0.11875 0.58226 0.0
C46 C 0.87388 0.41639 0.53293 0.0
C47 C 0.8397 0.44213 0.64637 0.0
N48 N 0.86133 0.38452 0.59762 0.0
N49 N 0.84017 0.40076 0.66801 0.0
N50 N 0.86057 0.45278 0.56172 0.0
H51 H 0.92153 0.40717 0.49166 0.0
H52 H 0.9017 0.44025 0.38601 0.0
H53 H 0.89483 0.38439 0.38709 0.0
C54 C 0.89932 0.41197 0.44348 0.0
C55 C 0.89768 0.16611 0.42048 0.0
H56 H 0.87978 0.17278 0.35171 0.0
H57 H 0.91118 0.13894 0.39132 0.0
H58 H 0.91328 0.19372 0.42839 0.0
O59 O 0.82067 0.24417 0.6184 0.0
O60 O 0.81971 0.31239 0.63042 0.0
C61 C 0.87279 0.28729 0.84457 0.0
O62 O 0.86159 0.31813 0.41313 0.0
O63 O 0.86554 0.24974 0.4159 0.0
Zn64 Zn 0.1308 0.80572 0.41275 0.0
O65 O 0.08201 0.81219 0.42626 0.0
C66 C 0.13228 0.77473 0.66025 0.0
Zn67 Zn 0.12687 0.73675 0.42067 0.0
C68 C 0.06591 0.77867 0.42674 0.0
O69 O 0.07918 0.74389 0.42616 0.0
C70 C 0.19194 0.7628 0.39375 0.0
O71 O 0.12487 0.73481 0.2322 0.0
O72 O 0.12734 0.80364 0.22817 0.0
N73 N 0.11824 0.67448 0.44073 0.0
C74 C 0.13137 0.63876 0.40661 0.0
C75 C 0.09391 0.62222 0.52317 0.0
N76 N 0.09489 0.66394 0.51238 0.0
N77 N 0.11653 0.60576 0.45752 0.0
C78 C 0.12007 0.90134 0.38048 0.0
C79 C 0.16083 0.9255 0.46523 0.0
N80 N 0.13791 0.86864 0.40998 0.0
N81 N 0.16331 0.88383 0.4615 0.0
N82 N 0.13381 0.93723 0.41583 0.0
H83 H 0.08834 0.87148 0.2587 0.0
H84 H 0.08388 0.92744 0.2712 0.0
H85 H 0.07082 0.89308 0.38952 0.0
C86 C 0.08901 0.89817 0.32076 0.0
C87 C 0.15912 0.63604 0.32774 0.0
H88 H 0.16323 0.66567 0.2779 0.0
H89 H 0.15584 0.61009 0.26403 0.0
H90 H 0.17966 0.62885 0.38377 0.0
O91 O 0.17556 0.72988 0.41029 0.0
O92 O 0.17848 0.7977 0.3944 0.0
C93 C 0.12594 0.76915 0.17378 0.0
O94 O 0.1355 0.80768 0.59813 0.0
O95 O 0.12849 0.7401 0.60845 0.0
Zn96 Zn 0.87335 0.82483 0.37887 0.0
O97 O 0.87726 0.81964 0.193 0.0
C98 C 0.80917 0.80256 0.34554 0.0
Zn99 Zn 0.86861 0.75479 0.3828 0.0
C100 C 0.87478 0.78528 0.13815 0.0
O101 O 0.87165 0.75113 0.19626 0.0
C102 C 0.86731 0.79437 0.62401 0.0
O103 O 0.91597 0.74534 0.39894 0.0
O104 O 0.92115 0.8138 0.4004 0.0
N105 N 0.85806 0.69167 0.40086 0.0
C106 C 0.87435 0.65601 0.39783 0.0
C107 C 0.82832 0.63941 0.45125 0.0
N108 N 0.82947 0.68098 0.43354 0.0
N109 N 0.85621 0.62295 0.42994 0.0
C110 C 0.87326 0.92058 0.42889 0.0
C111 C 0.90672 0.94392 0.30396 0.0
N112 N 0.88315 0.88775 0.36608 0.0
N113 N 0.90388 0.90242 0.28835 0.0
N114 N 0.88775 0.95598 0.3918 0.0
H115 H 0.8333 0.89227 0.5144 0.0
H116 H 0.83802 0.94777 0.53816 0.0
H117 H 0.86299 0.91167 0.61383 0.0
C118 C 0.85036 0.91792 0.52906 0.0
C119 C 0.90795 0.6536 0.36628 0.0
H120 H 0.91315 0.67445 0.28881 0.0
H121 H 0.91429 0.62119 0.34463 0.0
H122 H 0.92218 0.66403 0.44349 0.0
O123 O 0.86648 0.75979 0.56999 0.0
O124 O 0.86858 0.82818 0.56424 0.0
C125 C 0.93301 0.77785 0.40476 0.0
O126 O 0.82617 0.83501 0.35415 0.0
O127 O 0.82066 0.76669 0.36177 0.0
Zn128 Zn 0.61962 0.81807 0.12581 0.0
O129 O 0.61433 0.81584 0.3116 0.0
C130 C 0.68482 0.79037 0.16095 0.0
Zn131 Zn 0.62469 0.74814 0.12398 0.0
C132 C 0.61751 0.78172 0.36857 0.0
O133 O 0.62126 0.748 0.31214 0.0
C134 C 0.62718 0.78395 0.88219 0.0
O135 O 0.57608 0.74422 0.10449 0.0
O136 O 0.57121 0.81252 0.10439 0.0
N137 N 0.62944 0.68382 0.12363 0.0
C138 C 0.61256 0.65168 0.07856 0.0
C139 C 0.65511 0.6268 0.14251 0.0
N140 N 0.65571 0.66799 0.16392 0.0
N141 N 0.62835 0.61563 0.08834 0.0
C142 C 0.61162 0.91308 0.05148 0.0
C143 C 0.63138 0.94274 0.20402 0.0
N144 N 0.61893 0.88261 0.13069 0.0
N145 N 0.63107 0.90133 0.22533 0.0
N146 N 0.61937 0.95098 0.09531 0.0
H147 H 0.58243 0.87804 0.93223 0.0
H148 H 0.61725 0.89981 0.86659 0.0
H149 H 0.58536 0.93343 0.89797 0.0
C150 C 0.59816 0.90571 0.93008 0.0
C151 C 0.58099 0.65576 0.02385 0.0
H152 H 0.56442 0.66536 0.09349 0.0
H153 H 0.57253 0.62595 -0.01447 0.0
H154 H 0.58166 0.68021 0.95304 0.0
O155 O 0.62847 0.74959 0.93917 0.0
O156 O 0.62485 0.81808 0.93785 0.0
C157 C 0.55904 0.77617 0.09794 0.0
O158 O 0.66791 0.82225 0.15299 0.0
O159 O 0.6731 0.75443 0.1436 0.0
Zn160 Zn 0.36135 0.72831 0.07011 0.0
O161 O 0.36228 0.72819 0.25593 0.0
C162 C 0.29882 0.76187 0.09561 0.0
Zn163 Zn 0.36303 0.79824 0.06907 0.0
C164 C 0.36512 0.76181 0.31339 0.0
O165 O 0.36749 0.79642 0.25724 0.0
C166 C 0.35855 0.76382 0.82686 0.0
O167 O 0.41107 0.79978 0.05328 0.0
O168 O 0.41093 0.73103 0.06373 0.0
N169 N 0.36147 0.86249 0.0713 0.0
C170 C 0.37191 0.89278 -0.00418 0.0
C171 C 0.34716 0.92251 0.1346 0.0
N172 N 0.34621 0.88118 0.1575 0.0
N173 N 0.36304 0.93064 0.03332 0.0
C174 C 0.37106 0.63434 0.00067 0.0
C175 C 0.34397 0.60296 0.1342 0.0
N176 N 0.36 0.66385 0.07352 0.0
N177 N 0.34327 0.64411 0.15648 0.0
N178 N 0.36121 0.59602 0.0367 0.0
H179 H 0.40663 0.6696 0.90926 0.0
H180 H 0.37515 0.65145 0.81645 0.0
H181 H 0.40384 0.61521 0.86785 0.0
C182 C 0.3905 0.64307 0.89251 0.0
C183 C 0.38998 0.88535 0.88431 0.0
H184 H 0.40525 0.85822 0.89623 0.0
H185 H 0.40406 0.91338 0.85939 0.0
H186 H 0.37361 0.87857 0.81007 0.0
O187 O 0.35874 0.79817 0.88205 0.0
O188 O 0.3593 0.72951 0.88437 0.0
C189 C 0.42567 0.76578 0.05513 0.0
O190 O 0.31282 0.7278 0.08178 0.0
O191 O 0.31466 0.79557 0.09021 0.0
Zn192 Zn 0.62076 0.31842 0.87038 0.0
O193 O 0.57282 0.31978 0.8809 0.0
C194 C 0.62432 0.28153 0.11306 0.0
Zn195 Zn 0.62367 0.24833 0.87002 0.0
C196 C 0.55934 0.28436 0.88048 0.0
O197 O 0.57489 0.25116 0.87472 0.0
C198 C 0.68555 0.28295 0.85343 0.0
O199 O 0.62312 0.25082 0.68438 0.0
O200 O 0.61753 0.31885 0.68203 0.0
N201 N 0.61977 0.1839 0.86268 0.0
C202 C 0.62763 0.15232 0.93728 0.0
C203 C 0.60311 0.1253 0.79085 0.0
N204 N 0.60463 0.16683 0.77178 0.0
N205 N 0.61733 0.11538 0.89428 0.0
C206 C 0.61009 0.4132 0.93056 0.0
C207 C 0.64784 0.44188 0.83649 0.0
N208 N 0.62471 0.38277 0.87139 0.0
N209 N 0.64793 0.40091 0.81241 0.0
N210 N 0.62444 0.45057 0.91106 0.0
H211 H 0.56201 0.39733 0.94753 0.0
H212 H 0.57567 0.43455 0.05555 0.0
H213 H 0.58562 0.37999 0.06978 0.0
C214 C 0.58181 0.40616 0.00605 0.0
C215 C 0.64474 0.15768 0.05273 0.0
H216 H 0.65653 0.1285 0.07927 0.0
H217 H 0.62795 0.16549 0.12363 0.0
H218 H 0.66205 0.18353 0.04454 0.0
O219 O 0.6721 0.24743 0.86145 0.0
O220 O 0.66931 0.31547 0.85753 0.0
C221 C 0.62004 0.28472 0.62657 0.0
O222 O 0.62356 0.31618 0.0571 0.0
O223 O 0.62477 0.24751 0.0564 0.0
Zn224 Zn 0.36646 0.23092 0.83592 0.0
O225 O 0.41383 0.22579 0.86059 0.0
C226 C 0.36103 0.27083 0.07771 0.0
Zn227 Zn 0.36565 0.3011 0.83334 0.0
C228 C 0.42827 0.26051 0.86496 0.0
O229 O 0.41386 0.29464 0.85595 0.0
C230 C 0.30435 0.27132 0.78795 0.0
O231 O 0.37031 0.29547 0.6468 0.0
O232 O 0.37147 0.22671 0.64955 0.0
N233 N 0.37201 0.36504 0.81809 0.0
C234 C 0.36178 0.39713 0.88341 0.0
C235 C 0.39187 0.42295 0.74999 0.0
N236 N 0.39061 0.3813 0.73506 0.0
N237 N 0.374 0.43362 0.84274 0.0
C238 C 0.37509 0.13263 0.85054 0.0
C239 C 0.33045 0.11483 0.91717 0.0
N240 N 0.35827 0.1677 0.85729 0.0
N241 N 0.33057 0.15628 0.89822 0.0
N242 N 0.35815 0.09914 0.88868 0.0
H243 H 0.41172 0.15391 0.73457 0.0
H244 H 0.41416 0.09959 0.7816 0.0
H245 H 0.42354 0.1408 0.88438 0.0
C246 C 0.40804 0.13146 0.80964 0.0
C247 C 0.34032 0.39283 -0.01217 0.0
H248 H 0.32363 0.36664 0.9742 0.0
H249 H 0.32749 0.42206 0.00144 0.0
H250 H 0.35417 0.38636 0.06958 0.0
O251 O 0.31778 0.30613 0.80698 0.0
O252 O 0.319 0.23773 0.80397 0.0
C253 C 0.37129 0.26111 0.5916 0.0
O254 O 0.36203 0.23643 0.02307 0.0
O255 O 0.36064 0.30475 0.01853 0.0
C256 C 0.22854 0.22485 0.68286 0.0
C257 C 0.22042 0.25227 0.58815 0.0
C258 C 0.26989 0.28982 0.61345 0.0
C259 C 0.27419 0.26856 0.72503 0.0
N260 N 0.25547 0.21859 0.87199 0.0
N261 N 0.23471 0.3079 0.45225 0.0
C262 C 0.25285 0.23679 0.76134 0.0
C263 C 0.24168 0.28376 0.54994 0.0
N264 N 0.21379 0.18712 0.69642 0.0
N265 N 0.29323 0.31358 0.56366 0.0
H266 H 0.21617 0.30074 0.39536 0.0
H267 H 0.2466 0.33543 0.43002 0.0
H268 H 0.31463 0.31896 0.6038 0.0
H269 H 0.29258 0.32509 0.47629 0.0
H270 H 0.22044 0.16493 0.7598 0.0
H271 H 0.19796 0.17551 0.63428 0.0
H272 H 0.23951 0.19684 0.90586 0.0
H273 H 0.27199 0.22824 0.93468 0.0
C274 C 0.73967 0.2545 0.857 0.0
C275 C 0.71892 0.28598 0.81977 0.0
C276 C 0.75303 0.30492 0.65399 0.0
C277 C 0.77479 0.27538 0.69351 0.0
N278 N 0.79223 0.22973 0.8544 0.0
N279 N 0.71598 0.35388 0.72257 0.0
C280 C 0.76911 0.25193 0.80081 0.0
C281 C 0.72843 0.31515 0.7301 0.0
N282 N 0.73176 0.22805 0.94893 0.0
N283 N 0.75592 0.32358 0.54412 0.0
H284 H 0.70255 0.36605 0.79024 0.0
H285 H 0.72358 0.37642 0.66091 0.0
H286 H 0.77335 0.31589 0.48419 0.0
H287 H 0.73904 0.34311 0.50847 0.0
H288 H 0.74366 0.20079 0.9684 0.0
H289 H 0.71287 0.23319 0.00458 0.0
H290 H 0.79028 0.21654 0.93961 0.0
H291 H 0.81446 0.2274 0.82002 0.0
C292 C 0.25356 0.72365 0.19148 0.0
C293 C 0.26733 0.76187 0.15189 0.0
C294 C 0.23814 0.79888 0.30304 0.0
C295 C 0.22375 0.761 0.34086 0.0
N296 N 0.22891 0.68662 0.35604 0.0
N297 N 0.26132 0.83635 0.13714 0.0
C298 C 0.23463 0.723 0.29518 0.0
C299 C 0.25626 0.79975 0.19798 0.0
N300 N 0.25662 0.68859 0.12507 0.0
N301 N 0.23591 0.83359 0.37151 0.0
H302 H 0.27108 0.83724 0.0519 0.0
H303 H 0.25182 0.86447 0.16319 0.0
H304 H 0.22549 0.83255 0.45563 0.0
H305 H 0.24799 0.86129 0.35253 0.0
H306 H 0.24503 0.66061 0.14495 0.0
H307 H 0.26697 0.68936 0.04088 0.0
H308 H 0.23832 0.65828 0.33169 0.0
H309 H 0.21858 0.68612 0.44024 0.0
C310 C 0.73916 0.81872 0.14371 0.0
C311 C 0.7167 0.79489 0.20827 0.0
C312 C 0.75322 0.78678 0.37512 0.0
C313 C 0.77677 0.80544 0.30424 0.0
N314 N 0.79346 0.83627 0.11612 0.0
N315 N 0.7028 0.75329 0.38324 0.0
C316 C 0.77008 0.8212 0.18771 0.0
C317 C 0.72387 0.77796 0.32323 0.0
N318 N 0.73105 0.83872 0.03986 0.0
N319 N 0.75866 0.7791 0.4938 0.0
H320 H 0.6802 0.74798 0.35403 0.0
H321 H 0.70828 0.73592 0.45943 0.0
H322 H 0.77976 0.7866 0.53484 0.0
H323 H 0.7415 0.76966 0.55401 0.0
H324 H 0.74521 0.8608 -0.00304 0.0
H325 H 0.7093 0.83528 -1e-05 0.0
H326 H 0.79066 0.84298 0.0255 0.0
H327 H 0.81645 0.83913 0.14388 0.0
C328 C 0.13715 1.01028 0.35088 0.0
C329 C 0.12205 0.97884 0.4195 0.0
C330 C 0.09292 0.032 0.52391 0.0
C331 C 0.11228 0.06312 0.47186 0.0
N332 N 0.15491 0.0822 0.34231 0.0
N333 N 0.0872 0.95912 0.57919 0.0
C334 C 0.13458 0.05255 0.38489 0.0
C335 C 0.0998 0.9894 0.50663 0.0
N336 N 0.15454 0.99921 0.25509 0.0
N337 N 0.06847 0.04362 0.59223 0.0
H338 H 0.09251 0.92772 0.57173 0.0
H339 H 0.07334 0.96542 0.65259 0.0
H340 H 0.06342 0.07491 0.60588 0.0
H341 H 0.0518 1.02268 0.62541 0.0
H342 H 0.16425 1.02069 0.19489 0.0
H343 H 0.15669 0.96814 0.23016 0.0
H344 H 0.17375 0.07548 0.28831 0.0
H345 H 0.15443 0.11322 0.36832 0.0
C346 C 0.88084 0.52434 0.5876 0.0
C347 C 0.86567 0.49446 0.515 0.0
C348 C 0.85281 0.54945 0.36957 0.0
C349 C 0.86383 0.57982 0.45065 0.0
N350 N 0.88708 0.59728 0.63942 0.0
N351 N 0.83613 0.47762 0.33919 0.0
C352 C 0.87803 0.56755 0.55972 0.0
C353 C 0.85177 0.50667 0.40533 0.0
N354 N 0.89779 0.51098 0.68351 0.0
N355 N 0.8432 0.56199 0.25867 0.0
H356 H 0.83519 0.44613 0.36329 0.0
H357 H 0.8227 0.48486 0.26455 0.0
H358 H 0.8438 0.59328 0.23192 0.0
H359 H 0.83713 0.54153 0.19069 0.0
H360 H 0.91165 0.53057 0.73541 0.0
H361 H 0.89996 0.47939 0.70474 0.0
H362 H 0.89456 0.59061 0.72598 0.0
H363 H 0.88531 0.62909 0.62117 0.0
C364 C 0.86183 1.02393 0.39272 0.0
C365 C 0.8852 0.99751 0.43772 0.0
C366 C 0.90474 0.0533 0.56701 0.0
C367 C 0.88003 0.07869 0.52834 0.0
N368 N 0.83322 0.08798 0.41486 0.0
N369 N 0.92713 0.98424 0.57382 0.0
C370 C 0.85812 0.06401 0.44337 0.0
C371 C 0.90626 1.0115 0.52654 0.0
N372 N 0.84355 1.01056 0.30044 0.0
N373 N 0.92694 0.06979 0.64072 0.0
H374 H 0.92879 0.95364 0.54437 0.0
H375 H 0.94139 0.99086 0.64658 0.0
H376 H 0.92607 0.10035 0.67122 0.0
H377 H 0.94716 0.05454 0.66499 0.0
H378 H 0.8279 0.02939 0.25497 0.0
H379 H 0.84546 0.9809 0.26427 0.0
H380 H 0.81466 0.07783 0.36247 0.0
H381 H 0.83017 0.11756 0.45011 0.0
C382 C 0.1431 0.54789 0.55736 0.0
C383 C 0.12493 0.56275 0.4608 0.0
C384 C 0.11853 0.49201 0.38479 0.0
C385 C 0.13492 0.4769 0.48582 0.0
N386 N 0.16025 0.48814 0.67406 0.0
N387 N 0.09313 0.55058 0.2881 0.0
C388 C 0.14658 0.5043 0.57375 0.0
C389 C 0.11208 0.5352 0.37561 0.0
N390 N 0.15721 0.5758 0.63202 0.0
N391 N 0.10996 0.46498 0.29681 0.0
H392 H 0.08897 0.58238 0.27814 0.0
H393 H 0.08041 0.53202 0.22942 0.0
H394 H 0.11405 0.43307 0.30288 0.0
H395 H 0.10046 0.4742 0.21527 0.0
H396 H 0.17298 0.56762 0.69848 0.0
H397 H 0.15469 0.60793 0.622 0.0
H398 H 0.167 0.50579 0.74733 0.0
H399 H 0.16293 0.45616 0.68738 0.0
C400 C 0.61896 0.56673 0.92037 0.0
C401 C 0.6212 0.57426 0.04484 0.0
C402 C 0.62338 0.49891 0.08353 0.0
C403 C 0.61898 0.49135 0.95985 0.0
N404 N 0.60485 0.51756 0.76567 0.0
N405 N 0.61785 0.54763 0.2459 0.0
C406 C 0.61405 0.52526 0.88019 0.0
C407 C 0.62072 0.54023 0.12669 0.0
N408 N 0.62375 0.59859 0.84022 0.0
N409 N 0.6323 0.46737 0.15836 0.0
H410 H 0.61541 0.57767 0.27894 0.0
H411 H 0.61476 0.52397 0.30959 0.0
H412 H 0.63593 0.43716 0.12915 0.0
H413 H 0.63883 0.47208 0.24697 0.0
H414 H 0.62541 0.59406 0.74844 0.0
H415 H 0.629 0.62898 0.866 0.0
H416 H 0.59841 0.54098 0.7057 0.0
H417 H 0.60066 0.48735 0.73527 0.0
C418 C 0.34976 0.98337 0.87822 0.0
C419 C 0.36747 0.97145 -0.0204 0.0
C420 C 0.38396 0.04418 0.00854 0.0
C421 C 0.36631 0.05609 0.90696 0.0
N422 N 0.33861 0.03702 0.72948 0.0
N423 N 0.40703 0.98777 0.12341 0.0
C424 C 0.35146 1.02541 0.83617 0.0
C425 C 0.38658 1.00111 0.03839 0.0
N426 N 0.32975 0.95525 0.82747 0.0
N427 N 0.39636 0.0741 0.08094 0.0
H428 H 0.40916 0.95628 0.14591 0.0
H429 H 0.42359 1.00715 0.16318 0.0
H430 H 0.3945 0.10586 0.06225 0.0
H431 H 0.4066 0.06763 0.16335 0.0
H432 H 0.31384 0.96302 0.761 0.0
H433 H 0.32748 0.92455 0.85811 0.0
H434 H 0.32952 1.01593 0.66809 0.0
H435 H 0.33972 0.0678 0.69817 0.0
C436 C 0.34718 0.501 0.84769 0.0
C437 C 0.37102 0.47489 0.89069 0.0
C438 C 0.38915 0.52963 0.02698 0.0
C439 C 0.36567 0.55603 -0.01761 0.0
N440 N 0.32379 0.56959 0.84647 0.0
N441 N 0.41597 0.46365 0.01304 0.0
C442 C 0.34512 0.54246 0.89115 0.0
C443 C 0.39241 0.48909 -0.02176 0.0
N444 N 0.32625 0.48541 0.76718 0.0
N445 N 0.40785 0.5435 0.11747 0.0
H446 H 0.41817 0.43348 -0.01915 0.0
H447 H 0.43401 0.47251 0.0697 0.0
H448 H 0.40648 0.57362 0.15092 0.0
H449 H 0.42397 0.52528 0.16231 0.0
H450 H 0.30673 0.50107 0.73732 0.0
H451 H 0.32773 0.45533 0.73353 0.0
H452 H 0.30935 0.56346 0.77395 0.0
H453 H 0.32143 0.59964 0.87937 0.0
C454 C 0.59396 0.06052 0.02403 0.0
C455 C 0.61833 0.07424 0.94772 0.0
C456 C 0.64202 1.00519 0.9609 0.0
C457 C 0.61802 0.99176 0.03958 0.0
N458 N 0.57218 1.00551 0.15201 0.0
N459 N 0.666 0.06214 0.84567 0.0
C460 C 0.59423 1.01922 0.07267 0.0
C461 C 0.64249 0.04711 0.91651 0.0
N462 N 0.57032 0.08705 0.04727 0.0
N463 N 0.66433 0.97759 0.92997 0.0
H464 H 0.66658 0.09273 0.81293 0.0
H465 H 0.6854 0.04538 0.82196 0.0
H466 H 0.66492 0.9473 0.9646 0.0
H467 H 0.68182 0.98378 0.86828 0.0
H468 H 0.55038 0.07879 0.09449 0.0
H469 H 0.57016 0.11767 0.01491 0.0
H470 H 0.55544 1.02429 0.18921 0.0
H471 H 0.57121 0.97483 0.18399 0.0
C472 C 0.10679 0.29892 0.10401 0.0
C473 C 0.12594 0.26936 0.16349 0.0
C474 C 0.14616 0.24699 0.97136 0.0
C475 C 0.12447 0.2729 0.91212 0.0
N476 N 0.08099 0.31923 0.92064 0.0
N477 N 0.16273 0.21339 0.15479 0.0
C478 C 0.10405 0.29792 -0.02213 0.0
C479 C 0.14504 0.2425 0.0974 0.0
N480 N 0.09131 0.3283 0.167 0.0
N481 N 0.16925 0.22891 0.90778 0.0
H482 H 0.1658 0.21213 0.24717 0.0
H483 H 0.17335 0.18903 0.11093 0.0
H484 H 0.17207 0.23352 0.81619 0.0
H485 H 0.18749 0.2129 0.94697 0.0
H486 H 0.0808 0.35392 0.12686 0.0
H487 H 0.09045 0.32921 0.25975 0.0
H488 H 0.06282 0.33325 0.96517 0.0
H489 H 0.07828 0.3201 0.82813 0.0
C490 C 0.89213 0.26868 0.17155 0.0
C491 C 0.86503 0.28389 0.2267 0.0
C492 C 0.84386 0.30378 0.03143 0.0
C493 C 0.8703 0.28643 -0.02401 0.0
N494 N 0.9164 0.24472 -0.00865 0.0
N495 N 0.81282 0.30891 0.2111 0.0
C496 C 0.89339 0.26638 0.0454 0.0
C497 C 0.84029 0.29976 0.15725 0.0
N498 N 0.91739 0.25839 0.23934 0.0
N499 N 0.82189 0.3235 0.96391 0.0
H500 H 0.80931 0.30575 0.30296 0.0
H501 H 0.79264 0.31615 0.16456 0.0
H502 H 0.82174 0.32376 0.8709 0.0
H503 H 0.80438 0.34136 -8e-05 0.0
H504 H 0.93903 0.252 0.20348 0.0
H505 H 0.91781 0.26011 0.33213 0.0
H506 H 0.93141 0.22518 0.03775 0.0
H507 H 0.91914 0.24337 0.89913 0.0
C508 C 0.10623 0.79423 -0.02306 0.0
C509 C 0.1275 0.76968 0.04248 0.0
C510 C 0.15321 0.75011 0.85718 0.0
C511 C 0.13272 0.77626 0.79213 0.0
N512 N 0.09534 0.83209 0.79498 0.0
N513 N 0.17572 0.73236 0.04928 0.0
C514 C 0.11102 0.80117 0.85323 0.0
C515 C 0.15217 0.74957 -0.01605 0.0
N516 N 0.0807 0.80985 0.03199 0.0
N517 N 0.17417 0.72644 0.79803 0.0
H518 H 0.17642 0.73225 0.14231 0.0
H519 H 0.19607 0.72155 0.01174 0.0
H520 H 0.17862 0.72976 0.70683 0.0
H521 H 0.18644 0.70243 0.83878 0.0
H522 H 0.06232 0.82325 -0.01441 0.0
H523 H 0.07638 0.80615 0.12305 0.0
H524 H 0.08224 0.85406 0.83917 0.0
H525 H 0.09749 0.83895 0.70446 0.0
C526 C 0.84494 0.77155 0.82083 0.0
C527 C 0.86796 0.79457 0.75614 0.0
C528 C 0.897 0.80692 0.94138 0.0
C529 C 0.87316 0.7861 0.00658 0.0
N530 N 0.82152 0.75551 0.01245 0.0
N531 N 0.91306 0.84103 0.75814 0.0
C532 C 0.8464 0.76997 0.94755 0.0
C533 C 0.893 0.81457 0.8173 0.0
N534 N 0.82135 0.75158 0.76137 0.0
N535 N 0.92426 0.81765 -0.00296 0.0
H536 H 0.91321 0.84569 0.66607 0.0
H537 H 0.92871 0.86073 0.80185 0.0
H538 H 0.92824 0.81262 0.08795 0.0
H539 H 0.94403 0.82793 0.95145 0.0
H540 H 0.80677 0.72929 0.80121 0.0
H541 H 0.81697 0.75591 0.67049 0.0
H542 H 0.79997 0.74831 -0.02494 0.0
H543 H 0.82113 0.75424 0.10545 0.0
C544 C 0.59876 0.75846 0.57068 0.0
C545 C 0.62013 0.78204 0.50019 0.0
C546 C 0.64805 0.80388 0.68117 0.0
C547 C 0.62498 0.78349 0.75104 0.0
N548 N 0.57554 0.74712 0.7647 0.0
N549 N 0.6642 0.82982 0.4871 0.0
C550 C 0.59963 0.76216 0.69656 0.0
C551 C 0.6444 0.80576 0.5551 0.0
N552 N 0.57766 0.7323 0.51773 0.0
N553 N 0.67425 0.81947 0.73494 0.0
H554 H 0.66469 0.82924 0.3942 0.0
H555 H 0.67943 0.85197 0.52261 0.0
H556 H 0.67773 0.81836 0.82715 0.0
H557 H 0.6937 0.83025 0.68831 0.0
H558 H 0.56428 0.71033 0.56467 0.0
H559 H 0.57504 0.73027 0.42574 0.0
H560 H 0.55467 0.73607 0.72918 0.0
H561 H 0.57507 0.74908 0.85742 0.0
C562 C 0.33603 0.78231 0.62731 0.0
C563 C 0.35983 0.76355 0.69573 0.0
C564 C 0.38382 0.73756 0.51463 0.0
C565 C 0.36257 0.76095 0.44485 0.0
N566 N 0.31805 0.80593 0.43334 0.0
N567 N 0.40985 0.73078 0.70471 0.0
C568 C 0.33868 0.78375 0.50084 0.0
C569 C 0.38465 0.74317 0.63957 0.0
N570 N 0.31011 0.79661 0.68277 0.0
N571 N 0.40279 0.70922 0.4632 0.0
H572 H 0.41181 0.73483 0.79662 0.0
H573 H 0.4302 0.72036 0.66595 0.0
H574 H 0.40312 0.70317 0.37225 0.0
H575 H 0.41607 0.68834 0.51275 0.0
H576 H 0.29038 0.8064 0.63729 0.0
H577 H 0.30711 0.79539 0.7752 0.0
H578 H 0.3031 0.82767 0.46884 0.0
H579 H 0.31646 0.80387 0.34072 0.0
C580 C 0.64748 0.30233 0.30785 0.0
C581 C 0.6238 0.28092 0.24426 0.0
C582 C 0.59907 0.259 0.43162 0.0
C583 C 0.62089 0.28413 0.49497 0.0
N584 N 0.66511 0.33164 0.49456 0.0
N585 N 0.57479 0.24323 0.24202 0.0
C586 C 0.64474 0.30665 0.43332 0.0
C587 C 0.59908 0.26017 0.30503 0.0
N588 N 0.67349 0.3164 0.24904 0.0
N589 N 0.57846 0.23364 0.4919 0.0
H590 H 0.5739 0.2426 0.14903 0.0
H591 H 0.55419 0.23277 0.28135 0.0
H592 H 0.57595 0.23339 0.58436 0.0
H593 H 0.56507 0.21059 0.45077 0.0
H594 H 0.69317 0.32816 0.29196 0.0
H595 H 0.67673 0.31273 0.15745 0.0
H596 H 0.68003 0.35317 0.45322 0.0
H597 H 0.66621 0.33261 0.58738 0.0
C598 C 0.34037 0.2464 0.27568 0.0
C599 C 0.36235 0.27077 0.20986 0.0
C600 C 0.39178 0.28487 0.39358 0.0
C601 C 0.3692 0.26192 0.45984 0.0
N602 N 0.31924 0.22666 0.46881 0.0
N603 N 0.40659 0.31853 0.20764 0.0
C604 C 0.34284 0.24394 0.40223 0.0
C605 C 0.38722 0.29182 0.26925 0.0
N606 N 0.31687 0.22588 0.2171 0.0
N607 N 0.41842 0.2984 0.44877 0.0
H608 H 0.40658 0.32206 0.11515 0.0
H609 H 0.42196 0.3392 0.249 0.0
H610 H 0.42248 0.29449 0.54004 0.0
H611 H 0.43767 0.31039 0.40324 0.0
H612 H 0.30297 0.20277 0.25662 0.0
H613 H 0.31181 0.23082 0.12687 0.0
H614 H 0.29772 0.21801 0.43378 0.0
H615 H 0.31995 0.22385 0.56152 0.0
C616 C 0.01468 0.27933 0.65522 0.0
C617 C 0.02877 0.28639 0.54203 0.0
C618 C 0.97897 0.30655 0.45531 0.0
C619 C 0.96475 0.29712 0.56646 0.0
N620 N 0.9691 0.28714 0.77885 0.0
N621 N 0.02434 0.29953 0.33041 0.0
C622 C 0.98263 0.28698 0.66849 0.0
C623 C 0.01102 0.29867 0.4411 0.0
N624 N 0.03168 0.26382 0.74867 0.0
N625 N 0.96198 0.32386 0.36466 0.0
H626 H 0.04729 0.29127 0.31668 0.0
H627 H 0.01211 0.30425 0.25117 0.0
H628 H 0.93843 0.33006 0.37256 0.0
H629 H 0.97156 0.3353 0.28533 0.0
H630 H 0.02209 0.25345 0.8291 0.0
H631 H 0.0554 0.25847 0.7437 0.0
H632 H 0.98119 0.28379 0.85895 0.0
H633 H 0.94599 0.29516 0.79097 0.0
C634 C 0.9819 0.78563 0.52048 0.0
C635 C 0.9668 0.77437 0.413 0.0
C636 C 0.01666 0.76288 0.31729 0.0
C637 C 0.03182 0.77909 0.42035 0.0
N638 N 0.02934 0.80835 0.61755 0.0
N639 N 0.96867 0.75452 0.20614 0.0
C640 C 0.01454 0.79148 0.52105 0.0
C641 C 0.98384 0.76333 0.31066 0.0
N642 N 0.96507 0.78843 0.62327 0.0
N643 N 0.03356 0.74638 0.22661 0.0
H644 H 0.94458 0.75218 0.19952 0.0
H645 H 0.97977 0.75189 0.12417 0.0
H646 H 0.0577 0.74702 0.22433 0.0
H647 H 0.02376 0.72951 0.15671 0.0
H648 H 0.97488 0.79297 0.70734 0.0
H649 H 0.94132 0.78173 0.62602 0.0
H650 H 0.01786 0.82231 0.68788 0.0
H651 H 0.05337 0.81067 0.62374 0.0
C652 C 0.51021 0.7901 -0.01863 0.0
C653 C 0.52509 0.77111 0.08146 0.0
C654 C 0.4746 0.75199 0.16624 0.0
C655 C 0.45985 0.76723 0.06184 0.0
N656 N 0.46313 0.79714 0.8636 0.0
N657 N 0.52126 0.72605 0.25659 0.0
C658 C 0.47751 0.78538 0.96749 0.0
C659 C 0.50727 0.74923 0.16926 0.0
N660 N 0.52723 0.81273 0.89973 0.0
N661 N 0.45756 0.74326 0.26643 0.0
H662 H 0.54512 0.72373 0.26554 0.0
H663 H 0.50901 0.70593 0.31382 0.0
H664 H 0.43381 0.74839 0.27035 0.0
H665 H 0.46738 0.73616 0.34928 0.0
H666 H 0.51743 0.83173 0.83419 0.0
H667 H 0.55137 0.81423 0.90036 0.0
H668 H 0.47496 0.8059 0.78609 0.0
H669 H 0.43916 0.79546 0.8519 0.0
C670 C 0.47656 0.2705 -0.01681 0.0
C671 C 0.4621 0.26206 0.87214 0.0
C672 C 0.51082 0.2734 0.76623 0.0
C673 C 0.52549 0.28121 0.87718 0.0
N674 N 0.52275 0.29508 0.08768 0.0
N675 N 0.46546 0.2466 0.66254 0.0
C676 C 0.5085 0.28192 -0.01486 0.0
C677 C 0.47924 0.26089 0.76477 0.0
N678 N 0.4599 0.2657 0.08632 0.0
N679 N 0.52673 0.28046 0.66224 0.0
H680 H 0.44235 0.23651 0.65928 0.0
H681 H 0.47744 0.24117 0.58381 0.0
H682 H 0.54952 0.2919 0.66092 0.0
H683 H 0.51665 0.27915 0.57769 0.0
H684 H 0.46925 0.26844 0.17171 0.0
H685 H 0.43679 0.25546 0.08649 0.0
H686 H 0.51136 0.29935 0.16825 0.0
H687 H 0.54592 0.30495 0.08999 0.0
loop_
_geom_bond_atom_site_label_1
_geom_bond_atom_site_label_2
_geom_bond_distance
_geom_bond_site_symmetry_2
_ccdc_geom_bond_type
Zn0 O1 2.055 . S
Zn0 O8 2.046 . S
Zn0 N16 2.036 . S
Zn0 O28 2.053 . S
Zn0 O30 2.066 . S
O1 Zn0 2.055 . S
O1 C4 1.259 . S
C2 O30 1.256 . S
C2 O31 1.244 . S
Zn3 O5 2.046 . S
Zn3 O7 2.055 . S
Zn3 N9 2.036 . S
Zn3 O27 2.066 . S
Zn3 O31 2.053 . S
C4 O1 1.259 . S
C4 O5 1.254 . S
O5 Zn3 2.046 . S
O5 C4 1.254 . S
C6 O27 1.256 . S
C6 O28 1.244 . S
O7 Zn3 2.055 . S
O7 C29 1.259 . S
O8 Zn0 2.046 . S
O8 C29 1.254 . S
N9 Zn3 2.036 . S
N9 C10 1.298 . S
N9 N12 1.398 . S
C10 N9 1.298 . S
C10 N13 1.367 . S
C10 C23 1.481 . S
C11 N12 1.299 . S
C11 N13 1.379 . S
N12 N9 1.398 . S
N12 C11 1.299 . S
N13 C10 1.367 . S
N13 C11 1.379 . S
C14 N16 1.298 . S
C14 N18 1.367 . S
C14 C22 1.481 . S
C15 N17 1.299 . S
C15 N18 1.379 . S
N16 Zn0 2.036 . S
N16 C14 1.298 . S
N16 N17 1.398 . S
N17 C15 1.299 . S
N17 N16 1.398 . S
N18 C14 1.367 . S
N18 C15 1.379 . S
H19 C22 0.980 . S
H20 C22 0.981 . S
H21 C22 0.981 . S
C22 C14 1.481 . S
C22 H19 0.980 . S
C22 H20 0.981 . S
C22 H21 0.981 . S
C23 C10 1.481 . S
C23 H24 0.980 . S
C23 H25 0.981 . S
C23 H26 0.981 . S
H24 C23 0.980 . S
H25 C23 0.981 . S
H26 C23 0.981 . S
O27 Zn3 2.066 . S
O27 C6 1.256 . S
O28 Zn0 2.053 . S
O28 C6 1.244 . S
C29 O7 1.259 . S
C29 O8 1.254 . S
O30 Zn0 2.066 . S
O30 C2 1.256 . S
O31 C2 1.244 . S
O31 Zn3 2.053 . S
Zn32 O33 2.055 . S
Zn32 O40 2.046 . S
Zn32 N48 2.036 . S
Zn32 O60 2.053 . S
Zn32 O62 2.066 . S
O33 Zn32 2.055 . S
O33 C36 1.259 . S
C34 O62 1.256 . S
C34 O63 1.244 . S
Zn35 O37 2.046 . S
Zn35 O39 2.055 . S
Zn35 N41 2.036 . S
Zn35 O59 2.066 . S
Zn35 O63 2.053 . S
C36 O33 1.259 . S
C36 O37 1.254 . S
O37 Zn35 2.046 . S
O37 C36 1.254 . S
C38 O59 1.256 . S
C38 O60 1.244 . S
O39 Zn35 2.055 . S
O39 C61 1.259 . S
O40 Zn32 2.046 . S
O40 C61 1.254 . S
N41 Zn35 2.036 . S
N41 C42 1.298 . S
N41 N44 1.398 . S
C42 N41 1.298 . S
C42 N45 1.367 . S
C42 C55 1.481 . S
C43 N44 1.299 . S
C43 N45 1.379 . S
N44 N41 1.398 . S
N44 C43 1.299 . S
N45 C42 1.367 . S
N45 C43 1.379 . S
C46 N48 1.298 . S
C46 N50 1.367 . S
C46 C54 1.481 . S
C47 N49 1.299 . S
C47 N50 1.379 . S
N48 Zn32 2.036 . S
N48 C46 1.298 . S
N48 N49 1.398 . S
N49 C47 1.299 . S
N49 N48 1.398 . S
N50 C46 1.367 . S
N50 C47 1.379 . S
H51 C54 0.980 . S
H52 C54 0.981 . S
H53 C54 0.981 . S
C54 C46 1.481 . S
C54 H51 0.980 . S
C54 H52 0.981 . S
C54 H53 0.981 . S
C55 C42 1.481 . S
C55 H56 0.980 . S
C55 H57 0.981 . S
C55 H58 0.981 . S
H56 C55 0.980 . S
H57 C55 0.981 . S
H58 C55 0.981 . S
O59 Zn35 2.066 . S
O59 C38 1.256 . S
O60 Zn32 2.053 . S
O60 C38 1.244 . S
C61 O39 1.259 . S
C61 O40 1.254 . S
O62 Zn32 2.066 . S
O62 C34 1.256 . S
O63 C34 1.244 . S
O63 Zn35 2.053 . S
Zn64 O65 2.055 . S
Zn64 O72 2.046 . S
Zn64 N80 2.036 . S
Zn64 O92 2.053 . S
Zn64 O94 2.066 . S
O65 Zn64 2.055 . S
O65 C68 1.259 . S
C66 O94 1.256 . S
C66 O95 1.244 . S
Zn67 O69 2.046 . S
Zn67 O71 2.055 . S
Zn67 N73 2.036 . S
Zn67 O91 2.066 . S
Zn67 O95 2.053 . S
C68 O65 1.259 . S
C68 O69 1.254 . S
O69 Zn67 2.046 . S
O69 C68 1.254 . S
C70 O91 1.256 . S
C70 O92 1.244 . S
O71 Zn67 2.055 . S
O71 C93 1.259 . S
O72 Zn64 2.046 . S
O72 C93 1.254 . S
N73 Zn67 2.036 . S
N73 C74 1.298 . S
N73 N76 1.398 . S
C74 N73 1.298 . S
C74 N77 1.367 . S
C74 C87 1.481 . S
C75 N76 1.299 . S
C75 N77 1.379 . S
N76 N73 1.398 . S
N76 C75 1.299 . S
N77 C74 1.367 . S
N77 C75 1.379 . S
C78 N80 1.298 . S
C78 N82 1.367 . S
C78 C86 1.481 . S
C79 N81 1.299 . S
C79 N82 1.379 . S
N80 Zn64 2.036 . S
N80 C78 1.298 . S
N80 N81 1.398 . S
N81 C79 1.299 . S
N81 N80 1.398 . S
N82 C78 1.367 . S
N82 C79 1.379 . S
H83 C86 0.980 . S
H84 C86 0.981 . S
H85 C86 0.981 . S
C86 C78 1.481 . S
C86 H83 0.980 . S
C86 H84 0.981 . S
C86 H85 0.981 . S
C87 C74 1.481 . S
C87 H88 0.980 . S
C87 H89 0.981 . S
C87 H90 0.981 . S
H88 C87 0.980 . S
H89 C87 0.981 . S
H90 C87 0.981 . S
O91 Zn67 2.066 . S
O91 C70 1.256 . S
O92 Zn64 2.053 . S
O92 C70 1.244 . S
C93 O71 1.259 . S
C93 O72 1.254 . S
O94 Zn64 2.066 . S
O94 C66 1.256 . S
O95 C66 1.244 . S
O95 Zn67 2.053 . S
Zn96 O97 2.055 . S
Zn96 O104 2.046 . S
Zn96 N112 2.036 . S
Zn96 O124 2.053 . S
Zn96 O126 2.066 . S
O97 Zn96 2.055 . S
O97 C100 1.259 . S
C98 O126 1.256 . S
C98 O127 1.244 . S
Zn99 O101 2.046 . S
Zn99 O103 2.055 . S
Zn99 N105 2.036 . S
Zn99 O123 2.066 . S
Zn99 O127 2.053 . S
C100 O97 1.259 . S
C100 O101 1.254 . S
O101 Zn99 2.046 . S
O101 C100 1.254 . S
C102 O123 1.256 . S
C102 O124 1.244 . S
O103 Zn99 2.055 . S
O103 C125 1.259 . S
O104 Zn96 2.046 . S
O104 C125 1.254 . S
N105 Zn99 2.036 . S
N105 C106 1.298 . S
N105 N108 1.398 . S
C106 N105 1.298 . S
C106 N109 1.367 . S
C106 C119 1.481 . S
C107 N108 1.299 . S
C107 N109 1.379 . S
N108 N105 1.398 . S
N108 C107 1.299 . S
N109 C106 1.367 . S
N109 C107 1.379 . S
C110 N112 1.298 . S
C110 N114 1.367 . S
C110 C118 1.481 . S
C111 N113 1.299 . S
C111 N114 1.379 . S
N112 Zn96 2.036 . S
N112 C110 1.298 . S
N112 N113 1.398 . S
N113 C111 1.299 . S
N113 N112 1.398 . S
N114 C110 1.367 . S
N114 C111 1.379 . S
H115 C118 0.980 . S
H116 C118 0.981 . S
H117 C118 0.981 . S
C118 C110 1.481 . S
C118 H115 0.980 . S
C118 H116 0.981 . S
C118 H117 0.981 . S
C119 C106 1.481 . S
C119 H120 0.980 . S
C119 H121 0.981 . S
C119 H122 0.981 . S
H120 C119 0.980 . S
H121 C119 0.981 . S
H122 C119 0.981 . S
O123 Zn99 2.066 . S
O123 C102 1.256 . S
O124 Zn96 2.053 . S
O124 C102 1.244 . S
C125 O103 1.259 . S
C125 O104 1.254 . S
O126 Zn96 2.066 . S
O126 C98 1.256 . S
O127 C98 1.244 . S
O127 Zn99 2.053 . S
Zn128 O129 2.055 . S
Zn128 O136 2.046 . S
Zn128 N144 2.036 . S
Zn128 O156 2.053 1_554 S
Zn128 O158 2.066 . S
O129 Zn128 2.055 . S
O129 C132 1.259 . S
C130 O158 1.256 . S
C130 O159 1.244 . S
Zn131 O133 2.046 . S
Zn131 O135 2.055 . S
Zn131 N137 2.036 . S
Zn131 O155 2.066 1_554 S
Zn131 O159 2.053 . S
C132 O129 1.259 . S
C132 O133 1.254 . S
O133 Zn131 2.046 . S
O133 C132 1.254 . S
C134 O155 1.256 . S
C134 O156 1.244 . S
O135 Zn131 2.055 . S
O135 C157 1.259 . S
O136 Zn128 2.046 . S
O136 C157 1.254 . S
N137 Zn131 2.036 . S
N137 C138 1.298 . S
N137 N140 1.398 . S
C138 N137 1.298 . S
C138 N141 1.367 . S
C138 C151 1.481 1_554 S
C139 N140 1.299 . S
C139 N141 1.379 . S
N140 N137 1.398 . S
N140 C139 1.299 . S
N141 C138 1.367 . S
N141 C139 1.379 . S
C142 N144 1.298 . S
C142 N146 1.367 . S
C142 C150 1.481 . S
C143 N145 1.299 . S
C143 N146 1.379 1_556 S
N144 Zn128 2.036 . S
N144 C142 1.298 . S
N144 N145 1.398 1_554 S
N145 C143 1.299 . S
N145 N144 1.398 1_556 S
N146 C142 1.367 . S
N146 C143 1.379 1_554 S
H147 C150 0.980 . S
H148 C150 0.981 . S
H149 C150 0.981 . S
C150 C142 1.481 . S
C150 H147 0.980 . S
C150 H148 0.981 . S
C150 H149 0.981 . S
C151 C138 1.481 1_556 S
C151 H152 0.983 . S
C151 H153 0.981 . S
C151 H154 0.981 . S
H152 C151 0.983 . S
H153 C151 0.981 . S
H154 C151 0.981 . S
O155 Zn131 2.066 1_556 S
O155 C134 1.256 . S
O156 Zn128 2.053 1_556 S
O156 C134 1.244 . S
C157 O135 1.259 . S
C157 O136 1.254 . S
O158 Zn128 2.066 . S
O158 C130 1.256 . S
O159 C130 1.244 . S
O159 Zn131 2.053 . S
Zn160 O161 2.055 . S
Zn160 O168 2.046 . S
Zn160 N176 2.036 . S
Zn160 O188 2.053 1_554 S
Zn160 O190 2.066 . S
O161 Zn160 2.055 . S
O161 C164 1.259 . S
C162 O190 1.256 . S
C162 O191 1.244 . S
Zn163 O165 2.046 . S
Zn163 O167 2.055 . S
Zn163 N169 2.036 . S
Zn163 O187 2.066 1_554 S
Zn163 O191 2.053 . S
C164 O161 1.259 . S
C164 O165 1.254 . S
O165 Zn163 2.046 . S
O165 C164 1.254 . S
C166 O187 1.256 . S
C166 O188 1.244 . S
O167 Zn163 2.055 . S
O167 C189 1.259 . S
O168 Zn160 2.046 . S
O168 C189 1.254 . S
N169 Zn163 2.036 . S
N169 C170 1.298 . S
N169 N172 1.398 . S
C170 N169 1.298 . S
C170 N173 1.367 . S
C170 C183 1.481 1_554 S
C171 N172 1.299 . S
C171 N173 1.379 . S
N172 N169 1.398 . S
N172 C171 1.299 . S
N173 C170 1.367 . S
N173 C171 1.379 . S
C174 N176 1.298 . S
C174 N178 1.367 . S
C174 C182 1.481 . S
C175 N177 1.299 . S
C175 N178 1.379 1_556 S
N176 Zn160 2.036 . S
N176 C174 1.298 . S
N176 N177 1.398 1_554 S
N177 C175 1.299 . S
N177 N176 1.398 1_556 S
N178 C174 1.367 . S
N178 C175 1.379 1_554 S
H179 C182 0.980 . S
H180 C182 0.981 . S
H181 C182 0.981 . S
C182 C174 1.481 . S
C182 H179 0.980 . S
C182 H180 0.981 . S
C182 H181 0.981 . S
C183 C170 1.481 1_556 S
C183 H184 0.983 . S
C183 H185 0.981 . S
C183 H186 0.981 . S
H184 C183 0.983 . S
H185 C183 0.981 . S
H186 C183 0.981 . S
O187 Zn163 2.066 1_556 S
O187 C166 1.256 . S
O188 Zn160 2.053 1_556 S
O188 C166 1.244 . S
C189 O167 1.259 . S
C189 O168 1.254 . S
O190 Zn160 2.066 . S
O190 C162 1.256 . S
O191 C162 1.244 . S
O191 Zn163 2.053 . S
Zn192 O193 2.055 . S
Zn192 O200 2.046 . S
Zn192 N208 2.036 . S
Zn192 O220 2.053 . S
Zn192 O222 2.066 1_556 S
O193 Zn192 2.055 . S
O193 C196 1.259 . S
C194 O222 1.256 . S
C194 O223 1.244 . S
Zn195 O197 2.046 . S
Zn195 O199 2.055 . S
Zn195 N201 2.036 . S
Zn195 O219 2.066 . S
Zn195 O223 2.053 1_556 S
C196 O193 1.259 . S
C196 O197 1.254 . S
O197 Zn195 2.046 . S
O197 C196 1.254 . S
C198 O219 1.256 . S
C198 O220 1.244 . S
O199 Zn195 2.055 . S
O199 C221 1.259 . S
O200 Zn192 2.046 . S
O200 C221 1.254 . S
N201 Zn195 2.036 . S
N201 C202 1.298 . S
N201 N204 1.398 1_556 S
C202 N201 1.298 . S
C202 N205 1.367 . S
C202 C215 1.481 . S
C203 N204 1.299 . S
C203 N205 1.379 1_554 S
N204 N201 1.398 1_554 S
N204 C203 1.299 . S
N205 C202 1.367 . S
N205 C203 1.379 1_556 S
C206 N208 1.298 . S
C206 N210 1.367 . S
C206 C214 1.481 1_556 S
C207 N209 1.299 . S
C207 N210 1.379 . S
N208 Zn192 2.036 . S
N208 C206 1.298 . S
N208 N209 1.398 . S
N209 C207 1.299 . S
N209 N208 1.398 . S
N210 C206 1.367 . S
N210 C207 1.379 . S
H211 C214 0.983 . S
H212 C214 0.981 . S
H213 C214 0.981 . S
C214 C206 1.481 1_554 S
C214 H211 0.983 . S
C214 H212 0.981 . S
C214 H213 0.981 . S
C215 C202 1.481 . S
C215 H216 0.980 . S
C215 H217 0.981 . S
C215 H218 0.981 . S
H216 C215 0.980 . S
H217 C215 0.981 . S
H218 C215 0.981 . S
O219 Zn195 2.066 . S
O219 C198 1.256 . S
O220 Zn192 2.053 . S
O220 C198 1.244 . S
C221 O199 1.259 . S
C221 O200 1.254 . S
O222 Zn192 2.066 1_554 S
O222 C194 1.256 . S
O223 C194 1.244 . S
O223 Zn195 2.053 1_554 S
Zn224 O225 2.055 . S
Zn224 O232 2.046 . S
Zn224 N240 2.036 . S
Zn224 O252 2.053 . S
Zn224 O254 2.066 1_556 S
O225 Zn224 2.055 . S
O225 C228 1.259 . S
C226 O254 1.256 . S
C226 O255 1.244 . S
Zn227 O229 2.046 . S
Zn227 O231 2.055 . S
Zn227 N233 2.036 . S
Zn227 O251 2.066 . S
Zn227 O255 2.053 1_556 S
C228 O225 1.259 . S
C228 O229 1.254 . S
O229 Zn227 2.046 . S
O229 C228 1.254 . S
C230 O251 1.256 . S
C230 O252 1.244 . S
O231 Zn227 2.055 . S
O231 C253 1.259 . S
O232 Zn224 2.046 . S
O232 C253 1.254 . S
N233 Zn227 2.036 . S
N233 C234 1.298 . S
N233 N236 1.398 1_556 S
C234 N233 1.298 . S
C234 N237 1.367 . S
C234 C247 1.481 . S
C235 N236 1.299 . S
C235 N237 1.379 1_554 S
N236 N233 1.398 1_554 S
N236 C235 1.299 . S
N237 C234 1.367 . S
N237 C235 1.379 1_556 S
C238 N240 1.298 . S
C238 N242 1.367 . S
C238 C246 1.481 1_556 S
C239 N241 1.299 . S
C239 N242 1.379 . S
N240 Zn224 2.036 . S
N240 C238 1.298 . S
N240 N241 1.398 . S
N241 C239 1.299 . S
N241 N240 1.398 . S
N242 C238 1.367 . S
N242 C239 1.379 . S
H243 C246 0.983 . S
H244 C246 0.981 . S
H245 C246 0.981 . S
C246 C238 1.481 1_554 S
C246 H243 0.983 . S
C246 H244 0.981 . S
C246 H245 0.981 . S
C247 C234 1.481 . S
C247 H248 0.980 . S
C247 H249 0.981 . S
C247 H250 0.981 . S
H248 C247 0.980 . S
H249 C247 0.981 . S
H250 C247 0.981 . S
O251 Zn227 2.066 . S
O251 C230 1.256 . S
O252 Zn224 2.053 . S
O252 C230 1.244 . S
C253 O231 1.259 . S
C253 O232 1.254 . S
O254 Zn224 2.066 1_554 S
O254 C226 1.256 . S
O255 C226 1.244 . S
O255 Zn227 2.053 1_554 S
C256 C257 1.363 . S
C256 C262 1.379 . S
C256 N264 1.356 . S
C257 C256 1.363 . S
C257 C263 1.363 . S
C258 C259 1.363 . S
C258 C263 1.379 . S
C258 N265 1.356 . S
C259 C258 1.363 . S
C259 C262 1.363 . S
N260 C262 1.356 . S
N260 H272 0.984 . S
N260 H273 0.985 . S
N261 C263 1.356 . S
N261 H266 0.984 . S
N261 H267 0.985 . S
C262 C256 1.379 . S
C262 C259 1.363 . S
C262 N260 1.356 . S
C263 C257 1.363 . S
C263 C258 1.379 . S
C263 N261 1.356 . S
N264 C256 1.356 . S
N264 H270 0.984 . S
N264 H271 0.984 . S
N265 C258 1.356 . S
N265 H268 0.984 . S
N265 H269 0.985 . S
H266 N261 0.984 . S
H267 N261 0.985 . S
H268 N265 0.984 . S
H269 N265 0.985 . S
H270 N264 0.984 . S
H271 N264 0.984 . S
H272 N260 0.984 . S
H273 N260 0.985 . S
C274 C275 1.363 . S
C274 C280 1.379 . S
C274 N282 1.356 . S
C275 C274 1.363 . S
C275 C281 1.363 . S
C276 C277 1.363 . S
C276 C281 1.379 . S
C276 N283 1.356 . S
C277 C276 1.363 . S
C277 C280 1.363 . S
N278 C280 1.356 . S
N278 H290 0.984 . S
N278 H291 0.985 . S
N279 C281 1.356 . S
N279 H284 0.984 . S
N279 H285 0.985 . S
C280 C274 1.379 . S
C280 C277 1.363 . S
C280 N278 1.356 . S
C281 C275 1.363 . S
C281 C276 1.379 . S
C281 N279 1.356 . S
N282 C274 1.356 . S
N282 H288 0.984 . S
N282 H289 0.984 . S
N283 C276 1.356 . S
N283 H286 0.984 . S
N283 H287 0.985 . S
H284 N279 0.984 . S
H285 N279 0.985 . S
H286 N283 0.984 . S
H287 N283 0.985 . S
H288 N282 0.984 . S
H289 N282 0.984 . S
H290 N278 0.984 . S
H291 N278 0.985 . S
C292 C293 1.363 . S
C292 C298 1.379 . S
C292 N300 1.356 . S
C293 C292 1.363 . S
C293 C299 1.363 . S
C294 C295 1.363 . S
C294 C299 1.379 . S
C294 N301 1.356 . S
C295 C294 1.363 . S
C295 C298 1.363 . S
N296 C298 1.356 . S
N296 H308 0.984 . S
N296 H309 0.985 . S
N297 C299 1.356 . S
N297 H302 0.984 . S
N297 H303 0.985 . S
C298 C292 1.379 . S
C298 C295 1.363 . S
C298 N296 1.356 . S
C299 C293 1.363 . S
C299 C294 1.379 . S
C299 N297 1.356 . S
N300 C292 1.356 . S
N300 H306 0.984 . S
N300 H307 0.984 . S
N301 C294 1.356 . S
N301 H304 0.984 . S
N301 H305 0.985 . S
H302 N297 0.984 . S
H303 N297 0.985 . S
H304 N301 0.984 . S
H305 N301 0.985 . S
H306 N300 0.984 . S
H307 N300 0.984 . S
H308 N296 0.984 . S
H309 N296 0.985 . S
C310 C311 1.363 . S
C310 C316 1.379 . S
C310 N318 1.356 . S
C311 C310 1.363 . S
C311 C317 1.363 . S
C312 C313 1.363 . S
C312 C317 1.379 . S
C312 N319 1.356 . S
C313 C312 1.363 . S
C313 C316 1.363 . S
N314 C316 1.356 . S
N314 H326 0.984 . S
N314 H327 0.985 . S
N315 C317 1.356 . S
N315 H320 0.984 . S
N315 H321 0.985 . S
C316 C310 1.379 . S
C316 C313 1.363 . S
C316 N314 1.356 . S
C317 C311 1.363 . S
C317 C312 1.379 . S
C317 N315 1.356 . S
N318 C310 1.356 . S
N318 H324 0.984 . S
N318 H325 0.984 . S
N319 C312 1.356 . S
N319 H322 0.984 . S
N319 H323 0.985 . S
H320 N315 0.984 . S
H321 N315 0.985 . S
H322 N319 0.984 . S
H323 N319 0.985 . S
H324 N318 0.984 . S
H325 N318 0.984 . S
H326 N314 0.984 . S
H327 N314 0.985 . S
C328 C329 1.363 . S
C328 C334 1.379 1_565 S
C328 N336 1.356 . S
C329 C328 1.363 . S
C329 C335 1.363 . S
C330 C331 1.363 . S
C330 C335 1.379 1_545 S
C330 N337 1.356 . S
C331 C330 1.363 . S
C331 C334 1.363 . S
N332 C334 1.356 . S
N332 H344 0.984 . S
N332 H345 0.985 . S
N333 C335 1.356 . S
N333 H338 0.984 . S
N333 H339 0.985 . S
C334 C328 1.379 1_545 S
C334 C331 1.363 . S
C334 N332 1.356 . S
C335 C329 1.363 . S
C335 C330 1.379 1_565 S
C335 N333 1.356 . S
N336 C328 1.356 . S
N336 H342 0.984 . S
N336 H343 0.984 . S
N337 C330 1.356 . S
N337 H340 0.984 . S
N337 H341 0.985 . S
H338 N333 0.984 . S
H339 N333 0.985 . S
H340 N337 0.984 . S
H341 N337 0.985 . S
H342 N336 0.984 . S
H343 N336 0.984 . S
H344 N332 0.984 . S
H345 N332 0.985 . S
C346 C347 1.363 . S
C346 C352 1.379 . S
C346 N354 1.356 . S
C347 C346 1.363 . S
C347 C353 1.363 . S
C348 C349 1.363 . S
C348 C353 1.379 . S
C348 N355 1.356 . S
C349 C348 1.363 . S
C349 C352 1.363 . S
N350 C352 1.356 . S
N350 H362 0.984 . S
N350 H363 0.985 . S
N351 C353 1.356 . S
N351 H356 0.984 . S
N351 H357 0.985 . S
C352 C346 1.379 . S
C352 C349 1.363 . S
C352 N350 1.356 . S
C353 C347 1.363 . S
C353 C348 1.379 . S
C353 N351 1.356 . S
N354 C346 1.356 . S
N354 H360 0.984 . S
N354 H361 0.984 . S
N355 C348 1.356 . S
N355 H358 0.984 . S
N355 H359 0.985 . S
H356 N351 0.984 . S
H357 N351 0.985 . S
H358 N355 0.984 . S
H359 N355 0.985 . S
H360 N354 0.984 . S
H361 N354 0.984 . S
H362 N350 0.984 . S
H363 N350 0.985 . S
C364 C365 1.363 . S
C364 C370 1.379 1_565 S
C364 N372 1.356 . S
C365 C364 1.363 . S
C365 C371 1.363 . S
C366 C367 1.363 . S
C366 C371 1.379 1_545 S
C366 N373 1.356 . S
C367 C366 1.363 . S
C367 C370 1.363 . S
N368 C370 1.356 . S
N368 H380 0.984 . S
N368 H381 0.985 . S
N369 C371 1.356 . S
N369 H374 0.984 . S
N369 H375 0.985 . S
C370 C364 1.379 1_545 S
C370 C367 1.363 . S
C370 N368 1.356 . S
C371 C365 1.363 . S
C371 C366 1.379 1_565 S
C371 N369 1.356 . S
N372 C364 1.356 . S
N372 H378 0.984 . S
N372 H379 0.984 . S
N373 C366 1.356 . S
N373 H376 0.984 . S
N373 H377 0.985 . S
H374 N369 0.984 . S
H375 N369 0.985 . S
H376 N373 0.984 . S
H377 N373 0.985 . S
H378 N372 0.984 . S
H379 N372 0.984 . S
H380 N368 0.984 . S
H381 N368 0.985 . S
C382 C383 1.363 . S
C382 C388 1.379 . S
C382 N390 1.356 . S
C383 C382 1.363 . S
C383 C389 1.363 . S
C384 C385 1.363 . S
C384 C389 1.379 . S
C384 N391 1.356 . S
C385 C384 1.363 . S
C385 C388 1.363 . S
N386 C388 1.356 . S
N386 H398 0.984 . S
N386 H399 0.985 . S
N387 C389 1.356 . S
N387 H392 0.984 . S
N387 H393 0.985 . S
C388 C382 1.379 . S
C388 C385 1.363 . S
C388 N386 1.356 . S
C389 C383 1.363 . S
C389 C384 1.379 . S
C389 N387 1.356 . S
N390 C382 1.356 . S
N390 H396 0.984 . S
N390 H397 0.984 . S
N391 C384 1.356 . S
N391 H394 0.984 . S
N391 H395 0.985 . S
H392 N387 0.984 . S
H393 N387 0.985 . S
H394 N391 0.984 . S
H395 N391 0.985 . S
H396 N390 0.984 . S
H397 N390 0.984 . S
H398 N386 0.984 . S
H399 N386 0.985 . S
C400 C401 1.363 1_556 S
C400 C406 1.379 . S
C400 N408 1.356 . S
C401 C400 1.363 1_554 S
C401 C407 1.363 . S
C402 C403 1.363 1_554 S
C402 C407 1.379 . S
C402 N409 1.356 . S
C403 C402 1.363 1_556 S
C403 C406 1.363 . S
N404 C406 1.356 . S
N404 H416 0.984 . S
N404 H417 0.985 . S
N405 C407 1.356 . S
N405 H410 0.984 . S
N405 H411 0.985 . S
C406 C400 1.379 . S
C406 C403 1.363 . S
C406 N404 1.356 . S
C407 C401 1.363 . S
C407 C402 1.379 . S
C407 N405 1.356 . S
N408 C400 1.356 . S
N408 H414 0.984 . S
N408 H415 0.984 . S
N409 C402 1.356 . S
N409 H412 0.984 . S
N409 H413 0.985 . S
H410 N405 0.984 . S
H411 N405 0.985 . S
H412 N409 0.984 . S
H413 N409 0.985 . S
H414 N408 0.984 . S
H415 N408 0.984 . S
H416 N404 0.984 . S
H417 N404 0.985 . S
C418 C419 1.363 1_556 S
C418 C424 1.379 1_565 S
C418 N426 1.356 . S
C419 C418 1.363 1_554 S
C419 C425 1.363 . S
C420 C421 1.363 1_554 S
C420 C425 1.379 1_545 S
C420 N427 1.356 . S
C421 C420 1.363 1_556 S
C421 C424 1.363 . S
N422 C424 1.356 . S
N422 H434 0.984 . S
N422 H435 0.985 . S
N423 C425 1.356 . S
N423 H428 0.984 . S
N423 H429 0.985 . S
C424 C418 1.379 1_545 S
C424 C421 1.363 . S
C424 N422 1.356 . S
C425 C419 1.363 . S
C425 C420 1.379 1_565 S
C425 N423 1.356 . S
N426 C418 1.356 . S
N426 H432 0.984 . S
N426 H433 0.984 . S
N427 C420 1.356 . S
N427 H430 0.984 . S
N427 H431 0.985 . S
H428 N423 0.984 . S
H429 N423 0.985 . S
H430 N427 0.984 . S
H431 N427 0.985 . S
H432 N426 0.984 . S
H433 N426 0.984 . S
H434 N422 0.984 . S
H435 N422 0.985 . S
C436 C437 1.363 . S
C436 C442 1.379 . S
C436 N444 1.356 . S
C437 C436 1.363 . S
C437 C443 1.363 1_556 S
C438 C439 1.363 . S
C438 C443 1.379 . S
C438 N445 1.356 . S
C439 C438 1.363 . S
C439 C442 1.363 1_554 S
N440 C442 1.356 . S
N440 H452 0.984 . S
N440 H453 0.985 . S
N441 C443 1.356 . S
N441 H446 0.984 . S
N441 H447 0.985 . S
C442 C436 1.379 . S
C442 C439 1.363 1_556 S
C442 N440 1.356 . S
C443 C437 1.363 1_554 S
C443 C438 1.379 . S
C443 N441 1.356 . S
N444 C436 1.356 . S
N444 H450 0.984 . S
N444 H451 0.984 . S
N445 C438 1.356 . S
N445 H448 0.984 . S
N445 H449 0.985 . S
H446 N441 0.984 . S
H447 N441 0.985 . S
H448 N445 0.984 . S
H449 N445 0.985 . S
H450 N444 0.984 . S
H451 N444 0.984 . S
H452 N440 0.984 . S
H453 N440 0.985 . S
C454 C455 1.363 1_554 S
C454 C460 1.379 1_545 S
C454 N462 1.356 . S
C455 C454 1.363 1_556 S
C455 C461 1.363 . S
C456 C457 1.363 1_556 S
C456 C461 1.379 1_565 S
C456 N463 1.356 . S
C457 C456 1.363 1_554 S
C457 C460 1.363 . S
N458 C460 1.356 . S
N458 H470 0.984 . S
N458 H471 0.985 . S
N459 C461 1.356 . S
N459 H464 0.984 . S
N459 H465 0.985 . S
C460 C454 1.379 1_565 S
C460 C457 1.363 . S
C460 N458 1.356 . S
C461 C455 1.363 . S
C461 C456 1.379 1_545 S
C461 N459 1.356 . S
N462 C454 1.356 . S
N462 H468 0.984 . S
N462 H469 0.984 . S
N463 C456 1.356 . S
N463 H466 0.984 . S
N463 H467 0.985 . S
H464 N459 0.984 . S
H465 N459 0.985 . S
H466 N463 0.984 . S
H467 N463 0.985 . S
H468 N462 0.984 . S
H469 N462 0.984 . S
H470 N458 0.984 . S
H471 N458 0.985 . S
C472 C473 1.363 . S
C472 C478 1.379 . S
C472 N480 1.356 . S
C473 C472 1.363 . S
C473 C479 1.363 . S
C474 C475 1.363 1_554 S
C474 C479 1.379 . S
C474 N481 1.356 1_554 S
C475 C474 1.363 1_556 S
C475 C478 1.363 1_556 S
N476 C478 1.356 1_556 S
N476 H488 0.984 . S
N476 H489 0.985 . S
N477 C479 1.356 . S
N477 H482 0.984 . S
N477 H483 0.985 . S
C478 C472 1.379 . S
C478 C475 1.363 1_554 S
C478 N476 1.356 1_554 S
C479 C473 1.363 . S
C479 C474 1.379 . S
C479 N477 1.356 . S
N480 C472 1.356 . S
N480 H486 0.984 . S
N480 H487 0.984 . S
N481 C474 1.356 1_556 S
N481 H484 0.984 . S
N481 H485 0.985 . S
H482 N477 0.984 . S
H483 N477 0.985 . S
H484 N481 0.984 . S
H485 N481 0.985 . S
H486 N480 0.984 . S
H487 N480 0.984 . S
H488 N476 0.984 . S
H489 N476 0.985 . S
C490 C491 1.363 . S
C490 C496 1.379 . S
C490 N498 1.356 . S
C491 C490 1.363 . S
C491 C497 1.363 . S
C492 C493 1.363 1_554 S
C492 C497 1.379 . S
C492 N499 1.356 1_554 S
C493 C492 1.363 1_556 S
C493 C496 1.363 1_556 S
N494 C496 1.356 1_556 S
N494 H506 0.984 . S
N494 H507 0.985 . S
N495 C497 1.356 . S
N495 H500 0.984 . S
N495 H501 0.985 . S
C496 C490 1.379 . S
C496 C493 1.363 1_554 S
C496 N494 1.356 1_554 S
C497 C491 1.363 . S
C497 C492 1.379 . S
C497 N495 1.356 . S
N498 C490 1.356 . S
N498 H504 0.984 . S
N498 H505 0.984 . S
N499 C492 1.356 1_556 S
N499 H502 0.984 . S
N499 H503 0.985 . S
H500 N495 0.984 . S
H501 N495 0.985 . S
H502 N499 0.984 . S
H503 N499 0.985 . S
H504 N498 0.984 . S
H505 N498 0.984 . S
H506 N494 0.984 . S
H507 N494 0.985 . S
C508 C509 1.363 1_556 S
C508 C514 1.379 . S
C508 N516 1.356 1_556 S
C509 C508 1.363 1_554 S
C509 C515 1.363 1_554 S
C510 C511 1.363 . S
C510 C515 1.379 . S
C510 N517 1.356 . S
C511 C510 1.363 . S
C511 C514 1.363 . S
N512 C514 1.356 . S
N512 H524 0.984 . S
N512 H525 0.985 . S
N513 C515 1.356 1_554 S
N513 H518 0.984 . S
N513 H519 0.985 . S
C514 C508 1.379 . S
C514 C511 1.363 . S
C514 N512 1.356 . S
C515 C509 1.363 1_556 S
C515 C510 1.379 . S
C515 N513 1.356 1_556 S
N516 C508 1.356 1_554 S
N516 H522 0.984 . S
N516 H523 0.984 . S
N517 C510 1.356 . S
N517 H520 0.984 . S
N517 H521 0.985 . S
H518 N513 0.984 . S
H519 N513 0.985 . S
H520 N517 0.984 . S
H521 N517 0.985 . S
H522 N516 0.984 . S
H523 N516 0.984 . S
H524 N512 0.984 . S
H525 N512 0.985 . S
C526 C527 1.363 . S
C526 C532 1.379 . S
C526 N534 1.356 . S
C527 C526 1.363 . S
C527 C533 1.363 . S
C528 C529 1.363 1_556 S
C528 C533 1.379 . S
C528 N535 1.356 1_556 S
C529 C528 1.363 1_554 S
C529 C532 1.363 1_554 S
N530 C532 1.356 1_554 S
N530 H542 0.984 . S
N530 H543 0.985 . S
N531 C533 1.356 . S
N531 H536 0.984 . S
N531 H537 0.985 . S
C532 C526 1.379 . S
C532 C529 1.363 1_556 S
C532 N530 1.356 1_556 S
C533 C527 1.363 . S
C533 C528 1.379 . S
C533 N531 1.356 . S
N534 C526 1.356 . S
N534 H540 0.984 . S
N534 H541 0.984 . S
N535 C528 1.356 1_554 S
N535 H538 0.984 . S
N535 H539 0.985 . S
H536 N531 0.984 . S
H537 N531 0.985 . S
H538 N535 0.984 . S
H539 N535 0.985 . S
H540 N534 0.984 . S
H541 N534 0.984 . S
H542 N530 0.984 . S
H543 N530 0.985 . S
C544 C545 1.363 . S
C544 C550 1.379 . S
C544 N552 1.356 . S
C545 C544 1.363 . S
C545 C551 1.363 . S
C546 C547 1.363 . S
C546 C551 1.379 . S
C546 N553 1.356 . S
C547 C546 1.363 . S
C547 C550 1.363 . S
N548 C550 1.356 . S
N548 H560 0.984 . S
N548 H561 0.985 . S
N549 C551 1.356 . S
N549 H554 0.984 . S
N549 H555 0.985 . S
C550 C544 1.379 . S
C550 C547 1.363 . S
C550 N548 1.356 . S
C551 C545 1.363 . S
C551 C546 1.379 . S
C551 N549 1.356 . S
N552 C544 1.356 . S
N552 H558 0.984 . S
N552 H559 0.984 . S
N553 C546 1.356 . S
N553 H556 0.984 . S
N553 H557 0.985 . S
H554 N549 0.984 . S
H555 N549 0.985 . S
H556 N553 0.984 . S
H557 N553 0.985 . S
H558 N552 0.984 . S
H559 N552 0.984 . S
H560 N548 0.984 . S
H561 N548 0.985 . S
C562 C563 1.363 . S
C562 C568 1.379 . S
C562 N570 1.356 . S
C563 C562 1.363 . S
C563 C569 1.363 . S
C564 C565 1.363 . S
C564 C569 1.379 . S
C564 N571 1.356 . S
C565 C564 1.363 . S
C565 C568 1.363 . S
N566 C568 1.356 . S
N566 H578 0.984 . S
N566 H579 0.985 . S
N567 C569 1.356 . S
N567 H572 0.984 . S
N567 H573 0.985 . S
C568 C562 1.379 . S
C568 C565 1.363 . S
C568 N566 1.356 . S
C569 C563 1.363 . S
C569 C564 1.379 . S
C569 N567 1.356 . S
N570 C562 1.356 . S
N570 H576 0.984 . S
N570 H577 0.984 . S
N571 C564 1.356 . S
N571 H574 0.984 . S
N571 H575 0.985 . S
H572 N567 0.984 . S
H573 N567 0.985 . S
H574 N571 0.984 . S
H575 N571 0.985 . S
H576 N570 0.984 . S
H577 N570 0.984 . S
H578 N566 0.984 . S
H579 N566 0.985 . S
C580 C581 1.363 . S
C580 C586 1.379 . S
C580 N588 1.356 . S
C581 C580 1.363 . S
C581 C587 1.363 . S
C582 C583 1.363 . S
C582 C587 1.379 . S
C582 N589 1.356 . S
C583 C582 1.363 . S
C583 C586 1.363 . S
N584 C586 1.356 . S
N584 H596 0.984 . S
N584 H597 0.985 . S
N585 C587 1.356 . S
N585 H590 0.984 . S
N585 H591 0.985 . S
C586 C580 1.379 . S
C586 C583 1.363 . S
C586 N584 1.356 . S
C587 C581 1.363 . S
C587 C582 1.379 . S
C587 N585 1.356 . S
N588 C580 1.356 . S
N588 H594 0.984 . S
N588 H595 0.984 . S
N589 C582 1.356 . S
N589 H592 0.984 . S
N589 H593 0.985 . S
H590 N585 0.984 . S
H591 N585 0.985 . S
H592 N589 0.984 . S
H593 N589 0.985 . S
H594 N588 0.984 . S
H595 N588 0.984 . S
H596 N584 0.984 . S
H597 N584 0.985 . S
C598 C599 1.363 . S
C598 C604 1.379 . S
C598 N606 1.356 . S
C599 C598 1.363 . S
C599 C605 1.363 . S
C600 C601 1.363 . S
C600 C605 1.379 . S
C600 N607 1.356 . S
C601 C600 1.363 . S
C601 C604 1.363 . S
N602 C604 1.356 . S
N602 H614 0.984 . S
N602 H615 0.985 . S
N603 C605 1.356 . S
N603 H608 0.984 . S
N603 H609 0.985 . S
C604 C598 1.379 . S
C604 C601 1.363 . S
C604 N602 1.356 . S
C605 C599 1.363 . S
C605 C600 1.379 . S
C605 N603 1.356 . S
N606 C598 1.356 . S
N606 H612 0.984 . S
N606 H613 0.984 . S
N607 C600 1.356 . S
N607 H610 0.984 . S
N607 H611 0.985 . S
H608 N603 0.984 . S
H609 N603 0.985 . S
H610 N607 0.984 . S
H611 N607 0.985 . S
H612 N606 0.984 . S
H613 N606 0.984 . S
H614 N602 0.984 . S
H615 N602 0.985 . S
C616 C617 1.363 . S
C616 C622 1.379 1_455 S
C616 N624 1.356 . S
C617 C616 1.363 . S
C617 C623 1.363 . S
C618 C619 1.363 . S
C618 C623 1.379 1_655 S
C618 N625 1.356 . S
C619 C618 1.363 . S
C619 C622 1.363 . S
N620 C622 1.356 . S
N620 H632 0.984 . S
N620 H633 0.985 . S
N621 C623 1.356 . S
N621 H626 0.984 . S
N621 H627 0.985 . S
C622 C616 1.379 1_655 S
C622 C619 1.363 . S
C622 N620 1.356 . S
C623 C617 1.363 . S
C623 C618 1.379 1_455 S
C623 N621 1.356 . S
N624 C616 1.356 . S
N624 H630 0.984 . S
N624 H631 0.984 . S
N625 C618 1.356 . S
N625 H628 0.984 . S
N625 H629 0.985 . S
H626 N621 0.984 . S
H627 N621 0.985 . S
H628 N625 0.984 . S
H629 N625 0.985 . S
H630 N624 0.984 . S
H631 N624 0.984 . S
H632 N620 0.984 . S
H633 N620 0.985 . S
C634 C635 1.363 . S
C634 C640 1.379 1_655 S
C634 N642 1.356 . S
C635 C634 1.363 . S
C635 C641 1.363 . S
C636 C637 1.363 . S
C636 C641 1.379 1_455 S
C636 N643 1.356 . S
C637 C636 1.363 . S
C637 C640 1.363 . S
N638 C640 1.356 . S
N638 H650 0.984 . S
N638 H651 0.985 . S
N639 C641 1.356 . S
N639 H644 0.984 . S
N639 H645 0.985 . S
C640 C634 1.379 1_455 S
C640 C637 1.363 . S
C640 N638 1.356 . S
C641 C635 1.363 . S
C641 C636 1.379 1_655 S
C641 N639 1.356 . S
N642 C634 1.356 . S
N642 H648 0.984 . S
N642 H649 0.984 . S
N643 C636 1.356 . S
N643 H646 0.984 . S
N643 H647 0.985 . S
H644 N639 0.984 . S
H645 N639 0.985 . S
H646 N643 0.984 . S
H647 N643 0.985 . S
H648 N642 0.984 . S
H649 N642 0.984 . S
H650 N638 0.984 . S
H651 N638 0.985 . S
C652 C653 1.363 1_556 S
C652 C658 1.379 . S
C652 N660 1.356 . S
C653 C652 1.363 1_554 S
C653 C659 1.363 . S
C654 C655 1.363 . S
C654 C659 1.379 . S
C654 N661 1.356 . S
C655 C654 1.363 . S
C655 C658 1.363 1_554 S
N656 C658 1.356 . S
N656 H668 0.984 . S
N656 H669 0.985 . S
N657 C659 1.356 . S
N657 H662 0.984 . S
N657 H663 0.985 . S
C658 C652 1.379 . S
C658 C655 1.363 1_556 S
C658 N656 1.356 . S
C659 C653 1.363 . S
C659 C654 1.379 . S
C659 N657 1.356 . S
N660 C652 1.356 . S
N660 H666 0.984 . S
N660 H667 0.984 . S
N661 C654 1.356 . S
N661 H664 0.984 . S
N661 H665 0.985 . S
H662 N657 0.984 . S
H663 N657 0.985 . S
H664 N661 0.984 . S
H665 N661 0.985 . S
H666 N660 0.984 . S
H667 N660 0.984 . S
H668 N656 0.984 . S
H669 N656 0.985 . S
C670 C671 1.363 1_554 S
C670 C676 1.379 . S
C670 N678 1.356 . S
C671 C670 1.363 1_556 S
C671 C677 1.363 . S
C672 C673 1.363 . S
C672 C677 1.379 . S
C672 N679 1.356 . S
C673 C672 1.363 . S
C673 C676 1.363 1_556 S
N674 C676 1.356 . S
N674 H686 0.984 . S
N674 H687 0.985 . S
N675 C677 1.356 . S
N675 H680 0.984 . S
N675 H681 0.985 . S
C676 C670 1.379 . S
C676 C673 1.363 1_554 S
C676 N674 1.356 . S
C677 C671 1.363 . S
C677 C672 1.379 . S
C677 N675 1.356 . S
N678 C670 1.356 . S
N678 H684 0.984 . S
N678 H685 0.984 . S
N679 C672 1.356 . S
N679 H682 0.984 . S
N679 H683 0.985 . S
H680 N675 0.984 . S
H681 N675 0.985 . S
H682 N679 0.984 . S
H683 N679 0.985 . S
H684 N678 0.984 . S
H685 N678 0.984 . S
H686 N674 0.984 . S
H687 N674 0.985 . S
C257 C2 1.652 . S
C259 C230 1.652 . S
C275 C198 1.652 . S
C277 C38 1.652 . S
C293 C162 1.652 . S
C295 C70 1.652 . S
C311 C130 1.652 . S
C313 C98 1.652 . S
C329 N82 1.560 . S
C331 N13 1.560 . S
C347 N50 1.560 . S
C349 N109 1.560 . S
C365 N114 1.459 . S
C367 N45 1.459 . S
C383 N77 1.459 . S
C385 N18 1.459 . S
C401 N141 1.560 . S
C403 N210 1.560 . S
C419 N173 1.560 . S
C421 N242 1.560 . S
C437 N237 1.459 . S
C439 N178 1.459 . S
C455 N205 1.459 . S
C457 N146 1.459 . S
C473 C6 1.362 . S
C475 C4 1.358 . S
C491 C34 1.362 . S
C493 C61 1.358 . S
C509 C93 1.358 . S
C511 C66 1.362 . S
C527 C102 1.362 . S
C529 C100 1.358 . S
C545 C132 1.358 . S
C547 C134 1.362 . S
C563 C166 1.362 . S
C565 C164 1.358 . S
C581 C194 1.362 . S
C583 C221 1.358 . S
C599 C226 1.362 . S
C601 C253 1.358 . S
C617 C29 1.559 . S
C619 C36 1.559 . S
C635 C125 1.559 . S
C637 C68 1.559 . S
C653 C157 1.559 . S
C655 C189 1.559 . S
C671 C228 1.559 . S
C673 C196 1.559 . S
