# Generated by pormake.
# Topology wkf, (6)-cn, num edge types: 1
# Building blocks:
#     Node 0, Type 0, BuildingBlock: KUMBUR_clean_sbu_1, # of connection points: 6
#     Node 1, Type 0, BuildingBlock: KUMBUR_clean_sbu_1, # of connection points: 6
#     Node 2, Type 0, BuildingBlock: KUMBUR_clean_sbu_1, # of connection points: 6
#     Node 3, Type 0, BuildingBlock: KUMBUR_clean_sbu_1, # of connection points: 6
#     Node 4, Type 0, BuildingBlock: KUMBUR_clean_sbu_1, # of connection points: 6
#     Node 5, Type 0, BuildingBlock: KUMBUR_clean_sbu_1, # of connection points: 6
#     Node 6, Type 0, BuildingBlock: KUMBUR_clean_sbu_1, # of connection points: 6
#     Node 7, Type 0, BuildingBlock: KUMBUR_clean_sbu_1, # of connection points: 6
#     Node 8, Type 0, BuildingBlock: KUMBUR_clean_sbu_1, # of connection points: 6
#     Node 9, Type 0, BuildingBlock: KUMBUR_clean_sbu_1, # of connection points: 6
#     Node 10, Type 0, BuildingBlock: KUMBUR_clean_sbu_1, # of connection points: 6
#     Node 11, Type 0, BuildingBlock: KUMBUR_clean_sbu_1, # of connection points: 6
#     Edge 12, Type (0, 0), BuildingBlock: UVAHIK_clean_linker_0, # of connection points: 2
#     Edge 13, Type (0, 0), BuildingBlock: UVAHIK_clean_linker_0, # of connection points: 2
#     Edge 14, Type (0, 0), BuildingBlock: UVAHIK_clean_linker_0, # of connection points: 2
#     Edge 15, Type (0, 0), BuildingBlock: UVAHIK_clean_linker_0, # of connection points: 2
#     Edge 16, Type (0, 0), BuildingBlock: UVAHIK_clean_linker_0, # of connection points: 2
#     Edge 17, Type (0, 0), BuildingBlock: UVAHIK_clean_linker_0, # of connection points: 2
#     Edge 18, Type (0, 0), BuildingBlock: UVAHIK_clean_linker_0, # of connection points: 2
#     Edge 19, Type (0, 0), BuildingBlock: UVAHIK_clean_linker_0, # of connection points: 2
#     Edge 20, Type (0, 0), BuildingBlock: UVAHIK_clean_linker_0, # of connection points: 2
#     Edge 21, Type (0, 0), BuildingBlock: UVAHIK_clean_linker_0, # of connection points: 2
#     Edge 22, Type (0, 0), BuildingBlock: UVAHIK_clean_linker_0, # of connection points: 2
#     Edge 23, Type (0, 0), BuildingBlock: UVAHIK_clean_linker_0, # of connection points: 2
#     Edge 24, Type (0, 0), BuildingBlock: UVAHIK_clean_linker_0, # of connection points: 2
#     Edge 25, Type (0, 0), BuildingBlock: UVAHIK_clean_linker_0, # of connection points: 2
#     Edge 26, Type (0, 0), BuildingBlock: UVAHIK_clean_linker_0, # of connection points: 2
#     Edge 27, Type (0, 0), BuildingBlock: UVAHIK_clean_linker_0, # of connection points: 2
#     Edge 28, Type (0, 0), BuildingBlock: UVAHIK_clean_linker_0, # of connection points: 2
#     Edge 29, Type (0, 0), BuildingBlock: UVAHIK_clean_linker_0, # of connection points: 2
#     Edge 30, Type (0, 0), BuildingBlock: UVAHIK_clean_linker_0, # of connection points: 2
#     Edge 31, Type (0, 0), BuildingBlock: UVAHIK_clean_linker_0, # of connection points: 2
#     Edge 32, Type (0, 0), BuildingBlock: UVAHIK_clean_linker_0, # of connection points: 2
#     Edge 33, Type (0, 0), BuildingBlock: UVAHIK_clean_linker_0, # of connection points: 2
#     Edge 34, Type (0, 0), BuildingBlock: UVAHIK_clean_linker_0, # of connection points: 2
#     Edge 35, Type (0, 0), BuildingBlock: UVAHIK_clean_linker_0, # of connection points: 2
#     Edge 36, Type (0, 0), BuildingBlock: UVAHIK_clean_linker_0, # of connection points: 2
#     Edge 37, Type (0, 0), BuildingBlock: UVAHIK_clean_linker_0, # of connection points: 2
#     Edge 38, Type (0, 0), BuildingBlock: UVAHIK_clean_linker_0, # of connection points: 2
#     Edge 39, Type (0, 0), BuildingBlock: UVAHIK_clean_linker_0, # of connection points: 2
#     Edge 40, Type (0, 0), BuildingBlock: UVAHIK_clean_linker_0, # of connection points: 2
#     Edge 41, Type (0, 0), BuildingBlock: UVAHIK_clean_linker_0, # of connection points: 2
#     Edge 42, Type (0, 0), BuildingBlock: UVAHIK_clean_linker_0, # of connection points: 2
#     Edge 43, Type (0, 0), BuildingBlock: UVAHIK_clean_linker_0, # of connection points: 2
#     Edge 44, Type (0, 0), BuildingBlock: UVAHIK_clean_linker_0, # of connection points: 2
#     Edge 45, Type (0, 0), BuildingBlock: UVAHIK_clean_linker_0, # of connection points: 2
#     Edge 46, Type (0, 0), BuildingBlock: UVAHIK_clean_linker_0, # of connection points: 2
#     Edge 47, Type (0, 0), BuildingBlock: UVAHIK_clean_linker_0, # of connection points: 2
# Relax obj value: 0.194
# Max RMSD: 0.281
# Mean RMSD: 0.276
data_MOF--net-wkf--node1-KUMBUR_clean_sbu_1--edge1-UVAHIK_clean_linker_0
_symmetry_space_group_name_H-M    P1
_symmetry_Int_Tables_number       1
_symmetry_cell_setting            triclinic
loop_
_symmetry_equiv_pos_as_xyz
'x, y, z'
_cell_length_a     37.877355
_cell_length_b     37.885946
_cell_length_c     107.67894
_cell_angle_alpha  89.828262
_cell_angle_beta   90.106887
_cell_angle_gamma 119.54701
loop_
_atom_site_label
_atom_site_type_symbol
_atom_site_fract_x
_atom_site_fract_y
_atom_site_fract_z
_atom_type_partial_charge
Tb0 Tb 0.40745 0.967 0.34681 0.0
C1 C 0.54962 0.96044 0.36418 0.0
N2 N 0.52377 0.95738 0.37331 0.0
C3 C 0.53309 0.9059 0.38342 0.0
C4 C 0.56777 0.93561 0.36417 0.0
C5 C 0.51526 0.93056 0.3829 0.0
C6 C 0.55937 0.90831 0.37398 0.0
C7 C 0.58416 0.99191 0.34506 0.0
C8 C 0.55715 0.98794 0.35472 0.0
C9 C 0.60144 0.96655 0.3448 0.0
C10 C 0.59328 0.93846 0.35434 0.0
Tb11 Tb 0.49382 0.99678 0.37164 0.0
N12 N 0.53942 1.01176 0.35523 0.0
C13 C 0.59411 0.02208 0.33613 0.0
C14 C 0.55275 0.04386 0.34711 0.0
C15 C 0.57916 0.04878 0.33736 0.0
H16 H 0.4936 0.92707 0.38998 0.0
H17 H 0.58839 0.07369 0.33088 0.0
H18 H 0.49406 0.99486 0.33056 0.0
H19 H 0.29944 0.02101 0.3446 0.0
H20 H 0.54482 0.06709 0.34787 0.0
H21 H 0.61471 0.02616 0.3286 0.0
H22 H 0.33215 0.98488 0.35403 0.0
H23 H 0.52594 0.88451 0.39096 0.0
H24 H 0.62181 0.96898 0.33738 0.0
H25 H 0.60709 0.91932 0.35409 0.0
H26 H 0.52546 0.03337 0.31166 0.0
H27 H 0.57265 0.88871 0.37429 0.0
H28 H 0.32436 0.05686 0.32455 0.0
N29 N 0.44407 1.00612 0.3302 0.0
C30 C 0.42546 0.02351 0.32373 0.0
C31 C 0.49742 0.03098 0.315 0.0
C32 C 0.44275 0.04602 0.31281 0.0
C33 C 0.47946 1.00925 0.32587 0.0
C34 C 0.479 0.04935 0.30843 0.0
N35 N 0.37564 1.00075 0.33954 0.0
C36 C 0.34388 1.00123 0.34541 0.0
C37 C 0.37236 0.04178 0.32291 0.0
C38 C 0.39042 0.02114 0.32866 0.0
C39 C 0.33903 0.04129 0.32868 0.0
C40 C 0.32498 0.02125 0.34003 0.0
H41 H 0.4932 0.06632 0.30005 0.0
H42 H 0.43659 0.08245 0.29832 0.0
H43 H 0.37519 0.079 0.30721 0.0
O44 O 0.34907 0.93552 0.33833 0.0
O45 O 0.39247 0.98811 0.36442 0.0
O46 O 0.45369 0.02147 0.37551 0.0
O47 O 0.39019 0.91314 0.33668 0.0
O48 O 0.38335 0.93093 0.36433 0.0
O49 O 0.43552 0.94928 0.37898 0.0
O50 O 0.54602 0.04086 0.38117 0.0
O51 O 0.46374 0.9342 0.3645 0.0
O52 O 0.45286 0.94581 0.3447 0.0
O53 O 0.49699 0.99263 0.39091 0.0
O54 O 0.49731 0.05214 0.36302 0.0
O55 O 0.44911 0.03411 0.34729 0.0
C56 C 0.41621 1.01329 0.37326 0.0
C57 C 0.3492 0.90511 0.31891 0.0
C58 C 0.30764 0.87364 0.30009 0.0
C59 C 0.34106 0.90065 0.29284 0.0
C60 C 0.38208 0.9292 0.31111 0.0
C61 C 0.3778 0.92781 0.29829 0.0
C62 C 0.31147 0.87678 0.3133 0.0
C63 C 0.39721 0.92732 0.3754 0.0
C64 C 0.356 0.90938 0.33272 0.0
C65 C 0.42384 0.0652 0.30676 0.0
C66 C 0.38883 0.06319 0.31182 0.0
C67 C 0.46017 0.92401 0.35279 0.0
C68 C 0.5262 0.05617 0.40042 0.0
C69 C 0.55805 0.1208 0.41137 0.0
C70 C 0.5202 0.11139 0.41642 0.0
C71 C 0.48848 0.0474 0.40554 0.0
C72 C 0.56076 0.09296 0.40335 0.0
C73 C 0.4857 0.07483 0.41352 0.0
C74 C 0.47955 0.06183 0.35397 0.0
C75 C 0.52953 0.02732 0.39196 0.0
H76 H 0.3391 0.90004 0.28279 0.0
H77 H 0.41168 0.94881 0.31488 0.0
H78 H 0.40349 0.94734 0.2925 0.0
H79 H 0.28608 0.85665 0.3191 0.0
H80 H 0.51734 0.13197 0.42277 0.0
H81 H 0.46103 0.01933 0.40344 0.0
H82 H 0.58964 0.10004 0.39925 0.0
H83 H 0.45675 0.0676 0.41755 0.0
Tb84 Tb 0.46109 0.38998 0.51471 0.0
C85 C 0.60964 0.54203 0.53044 0.0
N86 N 0.58832 0.51555 0.53961 0.0
C87 C 0.65019 0.53375 0.55066 0.0
C88 C 0.65233 0.56592 0.53109 0.0
C89 C 0.60801 0.51058 0.54958 0.0
C90 C 0.67245 0.5618 0.54142 0.0
C91 C 0.61048 0.56943 0.51007 0.0
C92 C 0.58881 0.54331 0.52005 0.0
C93 C 0.65277 0.59427 0.51085 0.0
C94 C 0.67367 0.59241 0.52131 0.0
Tb95 Tb 0.51922 0.48124 0.5376 0.0
N96 N 0.5479 0.51768 0.51945 0.0
C97 C 0.58925 0.56935 0.49948 0.0
C98 C 0.52782 0.51654 0.50874 0.0
C99 C 0.54779 0.54266 0.4988 0.0
H100 H 0.59138 0.48804 0.55661 0.0
H101 H 0.53116 0.54153 0.49049 0.0
H102 H 0.53414 0.45497 0.49397 0.0
H103 H 0.29749 0.31455 0.51268 0.0
H104 H 0.49672 0.49507 0.50731 0.0
H105 H 0.6047 0.58903 0.49166 0.0
H106 H 0.36339 0.33488 0.52243 0.0
H107 H 0.66552 0.52964 0.55856 0.0
H108 H 0.6697 0.61448 0.50328 0.0
H109 H 0.70641 0.61111 0.52167 0.0
H110 H 0.53493 0.48114 0.47347 0.0
H111 H 0.70519 0.57947 0.54222 0.0
H112 H 0.2944 0.33769 0.49143 0.0
N113 N 0.46917 0.42254 0.49585 0.0
C114 C 0.43356 0.41111 0.48968 0.0
C115 C 0.50616 0.46167 0.47795 0.0
C116 C 0.43316 0.4257 0.47761 0.0
C117 C 0.50527 0.44648 0.48986 0.0
C118 C 0.47005 0.45155 0.47184 0.0
N119 N 0.39807 0.37137 0.50712 0.0
C120 C 0.36286 0.34667 0.51334 0.0
C121 C 0.35971 0.37276 0.48942 0.0
C122 C 0.39704 0.38444 0.49542 0.0
C123 C 0.32362 0.34729 0.49572 0.0
C124 C 0.32523 0.33439 0.50775 0.0
H125 H 0.47098 0.46336 0.4626 0.0
H126 H 0.39536 0.42477 0.46233 0.0
H127 H 0.3311 0.37874 0.47273 0.0
O128 O 0.4313 0.32595 0.51497 0.0
O129 O 0.42585 0.38003 0.53227 0.0
O130 O 0.45625 0.44171 0.54298 0.0
O131 O 0.47082 0.35802 0.50005 0.0
O132 O 0.48551 0.37337 0.53117 0.0
O133 O 0.50535 0.42347 0.54642 0.0
O134 O 0.52426 0.53497 0.54533 0.0
O135 O 0.55492 0.45293 0.53197 0.0
O136 O 0.52922 0.42735 0.51275 0.0
O137 O 0.52996 0.49169 0.5566 0.0
O138 O 0.47045 0.48761 0.52806 0.0
O139 O 0.43241 0.42986 0.51596 0.0
C140 C 0.42634 0.40462 0.54115 0.0
C141 C 0.41542 0.29161 0.49529 0.0
C142 C 0.39924 0.24511 0.47737 0.0
C143 C 0.35782 0.23 0.47979 0.0
C144 C 0.37356 0.27387 0.49758 0.0
C145 C 0.34521 0.24425 0.48977 0.0
C146 C 0.42827 0.27687 0.48503 0.0
C147 C 0.49584 0.38651 0.54276 0.0
C148 C 0.44502 0.32242 0.50426 0.0
C149 C 0.39607 0.41376 0.47158 0.0
C150 C 0.35947 0.38742 0.47747 0.0
C151 C 0.55999 0.44317 0.52073 0.0
C152 C 0.49371 0.5204 0.56531 0.0
C153 C 0.46001 0.55258 0.57575 0.0
C154 C 0.43528 0.51623 0.58215 0.0
C155 C 0.46804 0.48394 0.57165 0.0
C156 C 0.4893 0.55445 0.56736 0.0
C157 C 0.4392 0.48208 0.58004 0.0
C158 C 0.43856 0.4647 0.52091 0.0
C159 C 0.52496 0.52296 0.5566 0.0
H160 H 0.33493 0.20623 0.47406 0.0
H161 H 0.36235 0.28186 0.50566 0.0
H162 H 0.31313 0.2314 0.49166 0.0
H163 H 0.46035 0.28878 0.48334 0.0
H164 H 0.4132 0.51434 0.58889 0.0
H165 H 0.47026 0.45682 0.57021 0.0
H166 H 0.50843 0.58225 0.56231 0.0
H167 H 0.42 0.45414 0.58499 0.0
Tb168 Tb 0.0849 0.45531 0.68103 0.0
C169 C 0.08802 0.60143 0.6965 0.0
N170 N 0.09247 0.58101 0.70615 0.0
C171 C 0.14436 0.64382 0.71481 0.0
C172 C 0.11235 0.64398 0.69544 0.0
C173 C 0.12019 0.6016 0.71532 0.0
C174 C 0.14061 0.66512 0.70479 0.0
C175 C 0.05302 0.59992 0.67759 0.0
C176 C 0.05914 0.57945 0.68765 0.0
C177 C 0.07826 0.64198 0.67617 0.0
C178 C 0.10786 0.664 0.6851 0.0
Tb179 Tb 0.05451 0.51158 0.70593 0.0
N180 N 0.03524 0.53868 0.6894 0.0
C181 C 1.02047 0.57798 0.66959 0.0
C182 C 1.00023 0.51894 0.6825 0.0
C183 C 0.99318 0.53766 0.67233 0.0
H184 H 0.12505 0.58547 0.72281 0.0
H185 H 0.96606 0.5211 0.66677 0.0
H186 H 0.05435 0.51421 0.66565 0.0
H187 H 0.03197 0.29444 0.67802 0.0
H188 H 0.97598 0.48947 0.68479 0.0
H189 H 1.01466 0.5925 0.66178 0.0
H190 H 0.06729 0.36209 0.68783 0.0
H191 H 0.1665 0.65979 0.72202 0.0
H192 H 0.07428 0.65795 0.6684 0.0
H193 H 0.12666 0.69654 0.68402 0.0
H194 H 1.01622 0.50862 0.64674 0.0
H195 H 0.15987 0.69776 0.7043 0.0
H196 H 0.99675 0.28521 0.65793 0.0
N197 N 0.04534 0.45397 0.66461 0.0
C198 C 0.02862 0.41878 0.65791 0.0
C199 C 1.01943 0.48311 0.6498 0.0
C200 C 1.00611 0.41439 0.64702 0.0
C201 C 0.04112 0.48606 0.66064 0.0
C202 C 1.00203 0.44727 0.64294 0.0
N203 N 0.05163 0.39071 0.67347 0.0
C204 C 0.0512 0.35819 0.67919 0.0
C205 C 1.01128 0.34801 0.65663 0.0
C206 C 0.03144 0.38599 0.6626 0.0
C207 C 1.01196 0.31492 0.66221 0.0
C208 C 0.03165 0.31996 0.67359 0.0
H209 H 0.98502 0.44511 0.6346 0.0
H210 H 0.97036 0.37324 0.63231 0.0
H211 H 0.97462 0.31509 0.64077 0.0
O212 O 0.11654 0.42865 0.6723 0.0
O213 O 0.06365 0.41858 0.69857 0.0
O214 O 0.03185 0.4475 0.71016 0.0
O215 O 0.13894 0.49192 0.67102 0.0
O216 O 0.12089 0.4666 0.6985 0.0
O217 O 0.10262 0.50067 0.71312 0.0
O218 O 1.0091 0.51684 0.71598 0.0
O219 O 0.11708 0.5436 0.69867 0.0
O220 O 0.10557 0.52141 0.67888 0.0
O221 O 0.06195 0.52332 0.72496 0.0
O222 O 0.99958 0.45856 0.69783 0.0
O223 O 1.01795 0.43054 0.68155 0.0
C224 C 0.03952 0.41784 0.70773 0.0
C225 C 0.14653 0.4601 0.65295 0.0
C226 C 0.17688 0.45009 0.63381 0.0
C227 C 0.14949 0.45721 0.62684 0.0
C228 C 0.12238 0.46998 0.64542 0.0
C229 C 0.12296 0.46741 0.63258 0.0
C230 C 0.17437 0.45026 0.64705 0.0
C231 C 0.12462 0.48409 0.70953 0.0
C232 C 0.14262 0.46173 0.6668 0.0
C233 C 0.98756 0.37709 0.64073 0.0
C234 C 0.99003 0.34396 0.64555 0.0
C235 C 0.12737 0.5501 0.68695 0.0
C236 C 1.00154 0.48677 0.73592 0.0
C237 C 0.94195 0.45396 0.74925 0.0
C238 C 0.95606 0.42869 0.75408 0.0
C239 C 1.01466 0.46044 0.74069 0.0
C240 C 0.96503 0.48315 0.74019 0.0
C241 C 0.99213 0.43185 0.74976 0.0
C242 C 0.99013 0.43224 0.68853 0.0
C243 C 1.02598 0.51796 0.72658 0.0
H244 H 0.14921 0.45589 0.61679 0.0
H245 H 0.10323 0.48042 0.64943 0.0
H246 H 0.10323 0.47421 0.62701 0.0
H247 H 0.19457 0.44421 0.65265 0.0
H248 H 0.93933 0.40664 0.76127 0.0
H249 H 0.04251 0.462 0.73751 0.0
H250 H 0.95443 0.50276 0.73635 0.0
H251 H 1.00275 0.41221 0.75351 0.0
Tb252 Tb 0.65485 0.07551 0.84855 0.0
C253 C 0.51091 0.08065 0.8654 0.0
N254 N 0.53633 0.08273 0.87457 0.0
C255 C 0.52619 0.13261 0.88521 0.0
C256 C 0.49256 0.10525 0.86566 0.0
C257 C 0.54413 0.10809 0.88446 0.0
C258 C 0.50038 0.13131 0.87574 0.0
C259 C 0.47773 0.05171 0.8459 0.0
C260 C 0.50418 0.0545 0.85561 0.0
C261 C 0.46003 0.07672 0.84596 0.0
C262 C 0.46745 0.10346 0.85581 0.0
Tb263 Tb 0.56619 0.04361 0.87255 0.0
N264 N 0.52253 0.03119 0.85577 0.0
C265 C 0.46896 0.0232 0.83655 0.0
C266 C 0.51096 1.00105 0.84707 0.0
C267 C 0.48493 0.99721 0.8373 0.0
H268 H 0.56514 0.11031 0.89163 0.0
H269 H 0.477 0.97384 0.83037 0.0
H270 H 0.57055 0.04806 0.83117 0.0
H271 H 0.76524 0.02439 0.84788 0.0
H272 H 0.52056 0.97896 0.84726 0.0
H273 H 0.44879 0.02006 0.82895 0.0
H274 H 0.73073 0.05946 0.8567 0.0
H275 H 0.53275 0.15291 0.893 0.0
H276 H 0.44005 0.07517 0.8385 0.0
H277 H 0.45343 0.12242 0.85577 0.0
H278 H 0.54115 1.00939 0.81217 0.0
H279 H 0.48695 0.15075 0.87625 0.0
H280 H 0.74253 0.9886 0.8278 0.0
N281 N 0.62043 0.03671 0.83167 0.0
C282 C 0.64011 0.01989 0.82555 0.0
C283 C 0.56883 1.01185 0.8159 0.0
C284 C 0.62416 0.99752 0.81454 0.0
C285 C 0.58549 0.03346 0.82686 0.0
C286 C 0.5882 0.99384 0.80971 0.0
N287 N 0.6884 0.043 0.84182 0.0
C288 C 0.71996 0.04313 0.84806 0.0
C289 C 0.69399 1.00267 0.82549 0.0
C290 C 0.67487 0.0227 0.8309 0.0
C291 C 0.72707 1.00369 0.83165 0.0
C292 C 0.73987 0.02371 0.84302 0.0
H293 H 0.57503 0.97698 0.80125 0.0
H294 H 0.63235 0.96172 0.80036 0.0
H295 H 0.69326 0.96597 0.80999 0.0
O296 O 0.71346 0.10769 0.84021 0.0
O297 O 0.66856 0.05405 0.8664 0.0
O298 O 0.60617 0.01899 0.87681 0.0
O299 O 0.67227 0.12998 0.83865 0.0
O300 O 0.67716 0.11081 0.86621 0.0
O301 O 0.62338 0.09199 0.88027 0.0
O302 O 0.5115 1.00042 0.8811 0.0
O303 O 0.59616 0.10652 0.86571 0.0
O304 O 0.6089 0.09592 0.84603 0.0
O305 O 0.56156 0.04331 0.89192 0.0
O306 O 0.56307 0.98892 0.86374 0.0
O307 O 0.6138 1.00831 0.84881 0.0
C308 C 0.64413 0.02812 0.87502 0.0
C309 C 0.71317 0.13869 0.82083 0.0
C310 C 0.75441 0.17027 0.80193 0.0
C311 C 0.7207 0.14359 0.79473 0.0
C312 C 0.68003 0.1151 0.81306 0.0
C313 C 0.68399 0.11666 0.80024 0.0
C314 C 0.7509 0.16687 0.81516 0.0
C315 C 0.66205 0.1143 0.87705 0.0
C316 C 0.70648 0.13398 0.83465 0.0
C317 C 0.64407 0.97887 0.80886 0.0
C318 C 0.67881 0.98133 0.81433 0.0
C319 C 0.60096 0.11739 0.85404 0.0
C320 C 0.52584 0.97705 0.89981 0.0
C321 C 0.48772 0.90835 0.90811 0.0
C322 C 0.5233 0.91291 0.91368 0.0
C323 C 0.56118 0.9811 0.90551 0.0
C324 C 0.48925 0.94062 0.90119 0.0
C325 C 0.55972 0.94925 0.91244 0.0
C326 C 0.58239 0.98004 0.85505 0.0
C327 C 0.5271 1.01006 0.89216 0.0
H328 H 0.72239 0.1443 0.78468 0.0
H329 H 0.65045 0.09577 0.81688 0.0
H330 H 0.65806 0.09744 0.79449 0.0
H331 H 0.77653 0.18668 0.82092 0.0
H332 H 0.52277 0.88873 0.91921 0.0
H333 H 0.59003 1.00879 0.90464 0.0
H334 H 0.46205 0.93723 0.89673 0.0
H335 H 0.58685 0.95287 0.91693 0.0
Tb336 Tb 0.58416 0.63324 0.01543 0.0
C337 C 0.44206 0.48875 0.03175 0.0
N338 N 0.46326 0.51243 0.04143 0.0
C339 C 0.40124 0.49666 0.05188 0.0
C340 C 0.39926 0.46885 0.03157 0.0
C341 C 0.44364 0.51631 0.05154 0.0
C342 C 0.37893 0.47313 0.04179 0.0
C343 C 0.44203 0.45789 0.01216 0.0
C344 C 0.46347 0.4841 0.02211 0.0
C345 C 0.39954 0.43964 0.0116 0.0
C346 C 0.37819 0.44514 0.02128 0.0
Tb347 Tb 0.53219 0.54611 0.03994 0.0
N348 N 0.50476 0.50241 0.02301 0.0
C349 C 0.46355 0.44884 1.00346 0.0
C350 C 0.52468 0.48926 0.01525 0.0
C351 C 0.50476 0.46339 1.00528 0.0
H352 H 0.46068 0.5357 0.05918 0.0
H353 H 0.5213 0.45434 0.99907 0.0
H354 H 0.51416 0.54553 1.00095 0.0
H355 H 0.74587 0.725 0.00828 0.0
H356 H 0.55546 0.49661 0.01657 0.0
H357 H 0.44826 0.4287 0.99574 0.0
H358 H 0.68192 0.69937 0.02007 0.0
H359 H 0.38584 0.50026 0.05982 0.0
H360 H 0.38281 0.42 1.00393 0.0
H361 H 0.34536 0.4301 0.02088 0.0
H362 H 0.51036 0.51183 0.98145 0.0
H363 H 0.34609 0.45833 0.042 0.0
H364 H 0.74549 0.69718 0.9875 0.0
N365 N 0.57623 0.59188 0.99875 0.0
C366 C 0.60933 0.60675 0.99109 0.0
C367 C 0.53844 0.53845 0.98408 0.0
C368 C 0.60822 0.58747 0.97979 0.0
C369 C 0.54096 0.5581 0.99529 0.0
C370 C 0.5721 0.55315 0.9763 0.0
N371 N 0.64583 0.65732 1.00608 0.0
C372 C 0.68158 0.6865 0.0111 0.0
C373 C 0.68098 0.65448 0.98782 0.0
C374 C 0.64525 0.64047 0.9949 0.0
C375 C 0.71737 0.68568 0.99264 0.0
C376 C 0.71775 0.70134 1.0044 0.0
H377 H 0.56997 0.53759 0.96766 0.0
H378 H 0.64281 0.58834 0.96366 0.0
H379 H 0.70662 0.64656 0.97079 0.0
O380 O 0.61463 0.69315 0.00783 0.0
O381 O 0.62221 0.64853 0.0327 0.0
O382 O 0.59573 0.58799 0.04421 0.0
O383 O 0.55131 0.65595 1.00557 0.0
O384 O 0.57352 0.65648 0.03324 0.0
O385 O 0.53844 0.60303 0.04734 0.0
O386 O 0.52259 0.49222 0.04879 0.0
O387 O 0.4955 0.574 0.03405 0.0
O388 O 0.51645 0.59316 0.01413 0.0
O389 O 0.52911 0.54256 0.05936 0.0
O390 O 0.58553 0.54544 0.03135 0.0
O391 O 0.61347 0.59433 0.01578 0.0
C392 C 0.62419 0.62548 0.04181 0.0
C393 C 0.58655 0.69839 0.98837 0.0
C394 C 0.60279 0.74448 0.97028 0.0
C395 C 0.59068 0.71102 0.96241 0.0
C396 C 0.57319 0.66583 0.98002 0.0
C397 C 0.57594 0.67216 0.96724 0.0
C398 C 0.6011 0.7382 0.9834 0.0
C399 C 0.55508 0.64177 0.04408 0.0
C400 C 0.58298 0.68945 1.00208 0.0
C401 C 0.64325 0.60268 0.97239 0.0
C402 C 0.67958 0.63595 0.97643 0.0
C403 C 0.48788 0.5813 0.02273 0.0
C404 C 0.56149 0.508 0.06725 0.0
C405 C 0.59734 0.47272 0.07409 0.0
C406 C 0.62517 0.5076 0.08058 0.0
C407 C 0.58966 0.54264 0.07385 0.0
C408 C 0.56554 0.4732 0.06747 0.0
C409 C 0.62118 0.54228 0.08047 0.0
C410 C 0.61259 0.56429 0.02237 0.0
C411 C 0.52893 0.50839 0.05976 0.0
H412 H 0.59169 0.71488 0.95242 0.0
H413 H 0.55968 0.63503 0.98335 0.0
H414 H 0.56581 0.64657 0.96102 0.0
H415 H 0.61033 0.7637 0.98961 0.0
H416 H 0.6496 0.50784 0.08589 0.0
H417 H 0.58761 0.57016 0.07386 0.0
H418 H 0.54428 0.44666 0.06227 0.0
H419 H 0.64255 0.56895 0.08555 0.0
Tb420 Tb 0.97116 0.58323 0.18132 0.0
C421 C 1.0039 0.4474 0.19553 0.0
N422 N 0.99144 0.46192 0.205 0.0
C423 C 0.96584 0.39814 0.2157 0.0
C424 C 0.999 0.40799 0.19589 0.0
C425 C 0.97121 0.43734 0.21486 0.0
C426 C 0.98047 0.38363 0.20628 0.0
C427 C 1.02703 0.45518 0.17432 0.0
C428 C 1.01778 0.47071 0.18499 0.0
C429 C 1.02515 0.41723 0.17487 0.0
C430 C 1.01108 0.3936 0.18566 0.0
Tb431 Tb 1.00778 0.52876 0.20391 0.0
N432 N 1.01753 0.50643 0.18476 0.0
C433 C 0.0354 0.47701 0.16323 0.0
C434 C 1.02126 0.52505 0.17358 0.0
C435 C 0.03131 0.51154 0.16278 0.0
H436 H 0.9588 0.44755 0.22211 0.0
H437 H 0.03492 0.52723 0.15406 0.0
H438 H 0.03275 0.5937 0.15709 0.0
H439 H 0.91919 0.68286 0.19927 0.0
H440 H 1.01486 0.54926 0.17274 0.0
H441 H 0.04249 0.46613 0.15482 0.0
H442 H 0.91763 0.61745 0.19688 0.0
H443 H 0.95022 0.37908 0.2236 0.0
H444 H 0.03267 0.4051 0.16683 0.0
H445 H 1.00808 0.36365 0.18581 0.0
H446 H 0.07868 0.64902 0.14317 0.0
H447 H 0.976 0.35314 0.2069 0.0
H448 H 0.96855 0.74281 0.18734 0.0
N449 N 1.01669 0.63089 0.16782 0.0
C450 C 1.01896 0.66786 0.16876 0.0
C451 C 0.06241 0.65482 0.15041 0.0
C452 C 0.04501 0.70034 0.16096 0.0
C453 C 0.03632 0.62351 0.15832 0.0
C454 C 0.06728 0.69354 0.15185 0.0
N455 N 0.9664 0.64031 0.18389 0.0
C456 C 0.9395 0.6434 0.19167 0.0
C457 C 0.99504 0.71063 0.17814 0.0
C458 C 0.99364 0.67283 0.17715 0.0
C459 C 0.96827 0.71423 0.18631 0.0
C460 C 0.94027 0.68043 0.19304 0.0
H461 H 0.0875 0.71772 0.14568 0.0
H462 H 0.06736 0.76359 0.15638 0.0
H463 H 1.02407 0.77272 0.1715 0.0
O464 O 0.9267 0.5912 0.1714 0.0
O465 O 0.9923 0.61664 0.19935 0.0
O466 O 0.03307 0.59288 0.20789 0.0
O467 O 0.94603 0.54974 0.16501 0.0
O468 O 0.92805 0.55828 0.19697 0.0
O469 O 0.95933 0.53825 0.21195 0.0
O470 O 0.05618 0.52843 0.2138 0.0
O471 O 0.94469 0.48828 0.19899 0.0
O472 O 0.94407 0.51408 0.17978 0.0
O473 O 1.00214 0.51875 0.22301 0.0
O474 O 0.06278 0.57615 0.194 0.0
O475 O 0.04013 0.61171 0.18168 0.0
C476 C 1.02081 0.61969 0.20718 0.0
C477 C 0.92437 0.57992 0.14919 0.0
C478 C 0.89281 0.59458 0.13107 0.0
C479 C 0.92621 0.60043 0.12386 0.0
C480 C 0.95489 0.58273 0.14116 0.0
C481 C 0.95658 0.59426 0.12883 0.0
C482 C 0.89265 0.58556 0.14398 0.0
C483 C 0.93082 0.54679 0.20839 0.0
C484 C 0.92406 0.56688 0.16247 0.0
C485 C 0.04718 0.73824 0.1622 0.0
C486 C 1.02245 0.74342 0.1708 0.0
C487 C 0.92875 0.48317 0.1879 0.0
C488 C 0.06253 0.55726 0.23388 0.0
C489 C 0.11983 0.58859 0.24813 0.0
C490 C 0.10453 0.6128 0.25293 0.0
C491 C 0.04822 0.58257 0.23861 0.0
C492 C 0.09849 0.56065 0.23862 0.0
C493 C 0.06903 0.60989 0.24813 0.0
C494 C 0.07018 0.60672 0.18633 0.0
C495 C 0.03906 0.52615 0.22446 0.0
H496 H 0.92811 0.60843 0.11412 0.0
H497 H 0.9771 0.57475 0.14424 0.0
H498 H 0.98099 0.59709 0.12294 0.0
H499 H 0.86736 0.5811 0.14974 0.0
H500 H 0.11987 0.63378 0.26045 0.0
H501 H 1.0206 0.5809 0.23512 0.0
H502 H 0.10986 0.54164 0.23488 0.0
H503 H 0.05741 0.62862 0.25188 0.0
Tb504 Tb 0.09104 0.65342 0.50018 0.0
C505 C 0.08861 0.50088 0.48438 0.0
N506 N 0.09271 0.52711 0.47519 0.0
C507 C 0.13557 0.50847 0.46381 0.0
C508 C 0.10764 0.47694 0.48358 0.0
C509 C 0.11639 0.53172 0.46505 0.0
C510 C 0.13094 0.48072 0.47308 0.0
C511 C 0.06413 0.47419 0.50492 0.0
C512 C 0.06739 0.49995 0.49492 0.0
C513 C 0.08183 0.4493 0.50401 0.0
C514 C 0.10367 0.45079 0.49338 0.0
Tb515 Tb 0.05788 0.56164 0.47749 0.0
N516 N 0.05184 0.52562 0.49564 0.0
C517 C 0.04391 0.47468 0.51566 0.0
C518 C 0.03378 0.52716 0.50647 0.0
C519 C 0.02885 0.50141 0.51645 0.0
H520 H 0.12134 0.55401 0.45798 0.0
H521 H 1.01403 0.50283 0.52487 0.0
H522 H 0.10059 0.58939 0.52115 0.0
H523 H 1.00085 0.72792 0.50171 0.0
H524 H 1.02391 0.54864 0.50794 0.0
H525 H 0.04061 0.45528 0.5235 0.0
H526 H 0.0464 0.70719 0.49205 0.0
H527 H 0.15425 0.51229 0.45577 0.0
H528 H 0.07947 0.42936 0.51159 0.0
H529 H 0.1179 0.43206 0.49291 0.0
H530 H 0.07642 0.56431 0.5418 0.0
H531 H 0.14614 0.46299 0.47216 0.0
H532 H 0.97635 0.70649 0.52315 0.0
N533 N 0.06755 0.62173 0.51915 0.0
C534 C 0.04357 0.63359 0.52529 0.0
C535 C 0.0667 0.58356 0.53723 0.0
C536 C 0.02936 0.61973 0.53744 0.0
C537 C 0.08025 0.59807 0.52524 0.0
C538 C 0.04094 0.59415 0.54332 0.0
N539 N 0.04625 0.67204 0.50761 0.0
C540 C 0.03482 0.69608 0.50122 0.0
C541 C 1.00747 0.67185 0.52536 0.0
C542 C 0.03304 0.65986 0.51941 0.0
C543 C 0.99596 0.69669 0.5189 0.0
C544 C 1.00948 0.7086 0.50676 0.0
H545 H 0.03066 0.58288 0.55264 0.0
H546 H 0.99328 0.62166 0.55276 0.0
H547 H 0.97383 0.66696 0.54212 0.0
O548 O 0.12372 0.7175 0.50007 0.0
O549 O 0.06663 0.66363 0.48242 0.0
O550 O 0.03292 0.60074 0.47247 0.0
O551 O 0.13355 0.68539 0.51459 0.0
O552 O 0.13125 0.6694 0.4836 0.0
O553 O 0.1009 0.61903 0.46844 0.0
O554 O 1.00979 0.50735 0.47008 0.0
O555 O 0.12175 0.58967 0.48298 0.0
O556 O 0.12206 0.61579 0.50216 0.0
O557 O 0.05645 0.55108 0.45842 0.0
O558 O 1.00342 0.55527 0.4873 0.0
O559 O 1.0229 0.61343 0.4992 0.0
C560 C 0.04096 0.63841 0.47398 0.0
C561 C 0.14255 0.75101 0.51987 0.0
C562 C 0.17272 0.79704 0.53788 0.0
C563 C 0.14492 0.8109 0.53597 0.0
C564 C 0.11683 0.76751 0.5181 0.0
C565 C 0.11734 0.79627 0.52621 0.0
C566 C 0.17089 0.76615 0.52991 0.0
C567 C 0.1282 0.65598 0.47203 0.0
C568 C 0.14187 0.72096 0.51061 0.0
C569 C 1.00437 0.63208 0.54344 0.0
C570 C 0.99343 0.65802 0.53741 0.0
C571 C 0.13687 0.59969 0.49419 0.0
C572 C 0.99064 0.52149 0.45051 0.0
C573 C 0.92465 0.48812 0.44031 0.0
C574 C 0.93324 0.52531 0.43487 0.0
C575 C 0.99856 0.55851 0.44501 0.0
C576 C 0.95358 0.4865 0.44816 0.0
C577 C 0.97004 0.56021 0.43722 0.0
C578 C 0.99445 0.57837 0.49442 0.0
C579 C 1.02081 0.51942 0.45872 0.0
H580 H 0.14519 0.83403 0.54193 0.0
H581 H 0.09688 0.75922 0.51021 0.0
H582 H 0.09689 0.80815 0.5247 0.0
H583 H 0.19222 0.75522 0.53121 0.0
H584 H 0.91185 0.52731 0.42862 0.0
H585 H 1.02684 0.58624 0.44665 0.0
H586 H 0.94722 0.45814 0.45252 0.0
H587 H 0.97665 0.5886 0.4329 0.0
Tb588 Tb 0.45949 0.07927 0.66797 0.0
C589 C 0.60539 0.06918 0.65345 0.0
N590 N 0.58523 0.07621 0.64422 0.0
C591 C 0.64849 0.12196 0.63431 0.0
C592 C 0.64824 0.08886 0.65352 0.0
C593 C 0.60613 0.10206 0.63464 0.0
C594 C 0.66967 0.11545 0.64381 0.0
C595 C 0.60356 0.03449 0.67253 0.0
C596 C 0.58302 0.04274 0.66293 0.0
C597 C 0.64615 0.05425 0.67269 0.0
C598 C 0.66843 0.08147 0.66323 0.0
Tb599 Tb 0.51591 0.04177 0.64534 0.0
N600 N 0.54156 0.02448 0.66262 0.0
C601 C 0.5809 1.00592 0.68159 0.0
C602 C 0.51971 0.99528 0.67139 0.0
C603 C 0.53888 0.98585 0.68089 0.0
H604 H 0.59019 0.10858 0.62745 0.0
H605 H 0.52098 0.96321 0.68779 0.0
H606 H 0.54474 0.07797 0.6799 0.0
H607 H 0.30298 0.99433 0.68147 0.0
H608 H 0.48747 0.97867 0.67167 0.0
H609 H 0.59553 0.99867 0.68905 0.0
H610 H 0.35997 0.03422 0.66702 0.0
H611 H 0.66478 0.14272 0.62681 0.0
H612 H 0.66216 0.04835 0.68003 0.0
H613 H 0.70127 0.09636 0.66345 0.0
H614 H 0.56224 0.05927 0.69946 0.0
H615 H 0.70254 0.13115 0.64358 0.0
H616 H 0.31662 0.9744 0.70207 0.0
N617 N 0.48208 0.05575 0.68434 0.0
C618 C 0.45274 0.03517 0.69309 0.0
C619 C 0.53132 0.05247 0.69782 0.0
C620 C 0.46175 0.02243 0.70442 0.0
C621 C 0.52099 0.06381 0.68661 0.0
C622 C 0.50167 0.03174 0.70675 0.0
N623 N 0.40477 0.03704 0.67948 0.0
C624 C 0.36592 0.02558 0.67602 0.0
C625 C 0.38151 1.00283 0.69908 0.0
C626 C 0.41297 0.02572 0.69059 0.0
C627 C 0.34161 0.99198 0.6958 0.0
C628 C 0.33375 1.00305 0.68416 0.0
H629 H 0.50983 0.02264 0.71535 0.0
H630 H 0.43724 0.99081 0.72182 0.0
H631 H 0.36699 0.97337 0.71708 0.0
O632 O 0.42752 0.11168 0.6671 0.0
O633 O 0.42117 0.05162 0.65115 0.0
O634 O 0.45523 0.02669 0.63891 0.0
O635 O 0.46398 0.11837 0.68285 0.0
O636 O 0.48281 0.1174 0.65103 0.0
O637 O 0.50702 0.0888 0.63643 0.0
O638 O 0.51687 0.99084 0.63761 0.0
O639 O 0.55586 0.1039 0.65238 0.0
O640 O 0.52679 0.11922 0.669 0.0
O641 O 0.52986 0.04239 0.62653 0.0
O642 O 0.46211 0.9895 0.65378 0.0
O643 O 0.42705 1.01127 0.66659 0.0
C644 C 0.42405 0.03202 0.64129 0.0
C645 C 0.4076 0.13006 0.68611 0.0
C646 C 0.38867 0.16025 0.70348 0.0
C647 C 0.34784 0.13672 0.69988 0.0
C648 C 0.36655 0.10918 0.68253 0.0
C649 C 0.33701 0.11161 0.68954 0.0
C650 C 0.41861 0.15596 0.6967 0.0
C651 C 0.49653 0.11585 0.63983 0.0
C652 C 0.43887 0.12833 0.67796 0.0
C653 C 0.4307 1.00064 0.71307 0.0
C654 C 0.39069 0.99079 0.7104 0.0
C655 C 0.55844 0.1267 0.66194 0.0
C656 C 0.48985 0.97946 0.61726 0.0
C657 C 0.45571 0.91742 0.6051 0.0
C658 C 0.43031 0.93082 0.59991 0.0
C659 C 0.46419 0.99245 0.61192 0.0
C660 C 0.4854 0.94191 0.61382 0.0
C661 C 0.43479 0.96826 0.60328 0.0
C662 C 0.43131 0.982 0.66125 0.0
C663 C 0.52108 1.00495 0.62639 0.0
H664 H 0.32406 0.13843 0.70497 0.0
H665 H 0.35699 0.09148 0.67411 0.0
H666 H 0.30551 0.09472 0.68672 0.0
H667 H 0.45027 0.17392 0.69929 0.0
H668 H 0.40764 0.91281 0.59303 0.0
H669 H 0.46691 0.02143 0.61431 0.0
H670 H 0.50491 0.93171 0.61799 0.0
H671 H 0.41583 0.97886 0.59908 0.0
Tb672 Tb 0.40069 0.44925 0.83394 0.0
C673 C 0.55186 0.59654 0.81784 0.0
N674 N 0.52592 0.57456 0.80865 0.0
C675 C 0.54379 0.63556 0.79716 0.0
C676 C 0.57515 0.63922 0.81701 0.0
C677 C 0.52121 0.59339 0.79842 0.0
C678 C 0.57107 0.65859 0.80647 0.0
C679 C 0.57926 0.59865 0.83829 0.0
C680 C 0.55339 0.57631 0.82837 0.0
C681 C 0.60327 0.64102 0.83739 0.0
C682 C 0.6011 0.66128 0.82679 0.0
Tb683 Tb 0.49187 0.5058 0.81108 0.0
N684 N 0.52858 0.53526 0.82908 0.0
C685 C 0.57997 0.57795 0.84893 0.0
C686 C 0.52864 0.51553 0.83976 0.0
C687 C 0.55454 0.53625 0.84965 0.0
H688 H 0.49932 0.57604 0.79132 0.0
H689 H 0.55422 0.51997 0.85796 0.0
H690 H 0.46843 0.52145 0.85425 0.0
H691 H 0.32317 0.28554 0.83596 0.0
H692 H 0.5083 0.48414 0.84121 0.0
H693 H 0.59949 0.59393 0.85671 0.0
H694 H 0.3456 0.35167 0.82603 0.0
H695 H 0.53986 0.65028 0.78907 0.0
H696 H 0.62322 0.65847 0.84492 0.0
H697 H 0.61929 0.69404 0.82631 0.0
H698 H 0.49318 0.52182 0.87494 0.0
H699 H 0.5883 0.6913 0.80552 0.0
H700 H 0.34346 0.28202 0.85756 0.0
N701 N 0.43303 0.45653 0.85275 0.0
C702 C 0.41974 0.42094 0.85913 0.0
C703 C 0.4727 0.49317 0.87057 0.0
C704 C 0.43343 0.4203 0.87131 0.0
C705 C 0.45832 0.49252 0.85857 0.0
C706 C 0.4604 0.45698 0.87695 0.0
N707 N 0.38067 0.38595 0.84158 0.0
C708 C 0.35623 0.3509 0.83527 0.0
C709 C 0.37935 0.34724 0.85955 0.0
C710 C 0.39248 0.38466 0.85342 0.0
C711 C 0.35405 0.31132 0.85318 0.0
C712 C 0.34278 0.31317 0.84095 0.0
H713 H 0.4716 0.45774 0.88627 0.0
H714 H 0.42988 0.38225 0.88687 0.0
H715 H 0.38291 0.31832 0.87652 0.0
O716 O 0.33662 0.41821 0.83472 0.0
O717 O 0.38972 0.4148 0.81621 0.0
O718 O 0.45246 0.44237 0.80616 0.0
O719 O 0.37063 0.46411 0.84793 0.0
O720 O 0.38376 0.47201 0.81712 0.0
O721 O 0.43486 0.49362 0.80208 0.0
O722 O 0.54685 0.51301 0.80373 0.0
O723 O 0.46391 0.54216 0.81651 0.0
O724 O 0.43886 0.51711 0.8358 0.0
O725 O 0.50165 0.51328 0.79192 0.0
O726 O 0.49706 0.45634 0.82065 0.0
O727 O 0.44008 0.42002 0.8332 0.0
C728 C 0.41464 0.41365 0.80775 0.0
C729 C 0.30736 0.40915 0.85506 0.0
C730 C 0.27006 0.3993 0.87477 0.0
C731 C 0.25625 0.35753 0.87397 0.0
C732 C 0.29083 0.36685 0.8544 0.0
C733 C 0.2663 0.34152 0.86384 0.0
C734 C 0.29598 0.42531 0.86526 0.0
C735 C 0.39762 0.48358 0.80563 0.0
C736 C 0.33467 0.43566 0.84486 0.0
C737 C 0.41967 0.38316 0.87753 0.0
C738 C 0.39277 0.34675 0.87166 0.0
C739 C 0.45413 0.54752 0.82772 0.0
C740 C 0.53351 0.47803 0.7846 0.0
C741 C 0.56846 0.44402 0.77614 0.0
C742 C 0.53229 0.41554 0.77032 0.0
C743 C 0.49751 0.4491 0.77872 0.0
C744 C 0.56876 0.4752 0.78328 0.0
C745 C 0.49709 0.41821 0.77161 0.0
C746 C 0.47428 0.42512 0.82806 0.0
C747 C 0.53421 0.5104 0.79236 0.0
H748 H 0.23644 0.33693 0.88105 0.0
H749 H 0.2962 0.3529 0.84647 0.0
H750 H 0.2544 0.30908 0.8632 0.0
H751 H 0.30706 0.45765 0.86579 0.0
H752 H 0.53135 0.39159 0.76461 0.0
H753 H 0.46955 0.45013 0.7796 0.0
H754 H 0.59626 0.49698 0.78798 0.0
H755 H 0.46944 0.39639 0.76704 0.0
Tb756 Tb 0.96329 0.38359 0.99864 0.0
C757 C 0.94956 0.53128 0.98375 0.0
N758 N 0.94455 0.49829 0.97725 0.0
C759 C 0.88242 0.48992 0.96861 0.0
C760 C 0.92083 0.54463 0.98295 0.0
C761 C 0.91188 0.47799 0.96956 0.0
C762 C 0.88686 0.52331 0.97533 0.0
C763 C 0.98851 0.58447 0.99872 0.0
C764 C 0.98296 0.55095 0.9916 0.0
C765 C 0.96029 0.59822 0.99777 0.0
C766 C 0.92653 0.57833 0.98993 0.0
Tb767 Tb 0.99706 0.48516 0.97931 0.0
N768 N 1.00891 0.53595 0.99269 0.0
C769 C 1.02197 0.60278 1.00671 0.0
C770 C 0.0421 0.55419 1.00024 0.0
C771 C 0.0489 0.58763 0.00745 0.0
H772 H 0.90858 0.45329 0.96385 0.0
H773 H 0.07508 0.6019 0.0135 0.0
H774 H 0.04955 0.39364 0.00973 0.0
H775 H 0.83369 0.24853 0.98044 0.0
H776 H 0.06361 0.54339 1.00066 0.0
H777 H 1.02731 0.62863 0.01233 0.0
H778 H 0.86808 0.31365 0.99173 0.0
H779 H 0.8565 0.4736 0.96256 0.0
H780 H 0.96402 0.62391 1.00318 0.0
H781 H 0.90473 0.58895 0.98944 0.0
H782 H 0.09201 0.36173 1.00666 0.0
H783 H 0.86395 0.53242 0.97456 0.0
H784 H 0.87306 0.21617 0.97331 0.0
N785 N 1.0026 0.35311 0.99767 0.0
C786 C 0.98754 0.31825 0.99106 0.0
C787 C 0.06283 0.3494 1.00209 0.0
C788 C 1.01024 0.29841 0.9892 0.0
C789 C 0.03886 0.3677 1.00373 0.0
C790 C 0.04879 0.315 0.9946 0.0
N791 N 0.92702 0.32039 0.98979 0.0
C792 C 0.88582 0.30061 0.98821 0.0
C793 C 0.92985 0.26362 0.98075 0.0
C794 C 0.94827 0.30143 0.98684 0.0
C795 C 0.88843 0.24521 0.97799 0.0
C796 C 0.86611 0.26337 0.982 0.0
H797 H 0.06728 0.30073 0.99341 0.0
H798 H 1.01018 0.2465 0.98076 0.0
H799 H 0.9395 0.21582 0.97339 0.0
O800 O 0.9294 0.3356 0.01109 0.0
O801 O 1.01158 0.39787 0.98445 0.0
O802 O 1.00166 0.4366 0.96968 0.0
O803 O 0.96407 0.39634 0.01784 0.0
O804 O 0.91867 0.38172 0.98472 0.0
O805 O 0.95388 0.42936 0.96941 0.0
O806 O 0.05387 0.52886 0.9722 0.0
O807 O 0.96804 0.47402 0.99792 0.0
O808 O 0.92051 0.40807 0.99783 0.0
O809 O 0.99839 0.51895 0.96368 0.0
O810 O 0.04931 0.48341 0.98771 0.0
O811 O 1.02248 0.43886 1.00438 0.0
C812 C 1.01752 0.41413 0.97323 0.0
C813 C 0.94828 0.34157 0.03223 0.0
C814 C 0.92354 0.29548 0.05039 0.0
C815 C 0.96413 0.307 0.05319 0.0
C816 C 0.98821 0.35222 0.03538 0.0
C817 C 0.99598 0.3351 0.04579 0.0
C818 C 0.91592 0.31336 0.03986 0.0
C819 C 0.9235 0.39394 0.97301 0.0
C820 C 0.93972 0.35845 0.02085 0.0
C821 C 0.99312 0.26206 0.98242 0.0
C822 C 0.95291 0.24464 0.9782 0.0
C823 C 0.92999 0.44602 0.99979 0.0
C824 C 0.05225 0.53152 0.9504 0.0
C825 C 0.10459 0.55842 0.93448 0.0
C826 C 0.0826 0.52275 0.92755 0.0
C827 C 0.03001 0.49636 0.94324 0.0
C828 C 0.08933 0.56243 0.94596 0.0
C829 C 0.04528 0.492 0.9319 0.0
C830 C 0.05426 0.46615 0.99776 0.0
C831 C 0.03749 0.53601 0.96258 0.0
H832 H 0.97137 0.29449 0.06122 0.0
H833 H 1.0134 0.3737 0.02977 0.0
H834 H 1.02696 0.34357 0.04814 0.0
H835 H 0.88492 0.30472 0.03743 0.0
H836 H 0.09387 0.51905 0.91869 0.0
H837 H 1.00098 0.47221 0.94644 0.0
H838 H 0.10651 0.58953 0.95151 0.0
H839 H 0.02812 0.46474 0.92647 0.0
Tb840 Tb 0.60195 0.95609 0.16437 0.0
C841 C 0.44324 0.94569 0.14786 0.0
N842 N 0.47173 0.94064 0.14162 0.0
C843 C 0.41927 0.87916 0.13258 0.0
C844 C 0.40157 0.91724 0.14676 0.0
C845 C 0.46023 0.90834 0.13383 0.0
C846 C 0.38983 0.88354 0.13908 0.0
C847 C 0.4275 0.98457 0.16255 0.0
C848 C 0.45602 0.97893 0.15572 0.0
C849 C 0.38595 0.95657 0.16133 0.0
C850 C 0.37304 0.92298 0.15348 0.0
Tb851 Tb 0.5368 0.99231 0.1443 0.0
N852 N 0.49656 1.00461 0.1571 0.0
C853 C 0.44167 1.01788 0.17056 0.0
C854 C 0.51058 0.03765 0.16467 0.0
C855 C 0.48336 0.04457 0.17159 0.0
H856 H 0.48204 0.90517 0.12826 0.0
H857 H 0.49453 0.07062 0.17766 0.0
H858 H 0.68182 0.0407 0.17426 0.0
H859 H 0.59785 0.81948 0.14749 0.0
H860 H 0.5426 0.05892 0.16535 0.0
H861 H 0.42072 0.02328 0.17597 0.0
H862 H 0.57162 0.8587 0.15863 0.0
H863 H 0.41038 0.85352 0.12646 0.0
H864 H 0.36358 0.96035 0.16653 0.0
H865 H 0.34091 0.90136 0.15277 0.0
H866 H 0.75557 0.07869 0.17036 0.0
H867 H 0.35814 0.86085 0.13807 0.0
H868 H 0.66795 0.85423 0.13923 0.0
N869 N 0.67136 0.99145 0.16254 0.0
C870 C 0.68865 0.97386 0.15579 0.0
C871 C 0.73704 0.04935 0.1661 0.0
C872 C 0.73067 0.99402 0.15341 0.0
C873 C 0.69518 0.02782 0.16827 0.0
C874 C 0.75479 0.03272 0.15844 0.0
N875 N 0.62483 0.91568 0.15562 0.0
C876 C 0.60181 0.87437 0.15471 0.0
C877 C 0.68107 0.91326 0.14599 0.0
C878 C 0.66426 0.93444 0.15207 0.0
C879 C 0.65628 0.87168 0.14388 0.0
C880 C 0.61674 0.85196 0.14854 0.0
H881 H 0.78725 0.0493 0.15684 0.0
H882 H 0.77945 0.98929 0.14449 0.0
H883 H 0.73591 0.91826 0.13802 0.0
O884 O 0.6163 0.9225 0.17701 0.0
O885 O 0.6368 1.00494 0.15049 0.0
O886 O 0.59028 0.99563 0.13518 0.0
O887 O 0.59112 0.95849 0.18361 0.0
O888 O 0.55839 0.91214 0.15062 0.0
O889 O 0.55004 0.94864 0.1348 0.0
O890 O 0.55212 0.04978 0.13698 0.0
O891 O 0.51643 0.96291 0.16286 0.0
O892 O 0.53463 0.91468 0.16369 0.0
O893 O 0.50629 0.99521 0.12838 0.0
O894 O 0.5891 0.04393 0.15333 0.0
O895 O 0.60946 1.01761 0.16971 0.0
C896 C 0.62792 1.01165 0.13916 0.0
C897 C 0.63218 0.94427 0.19777 0.0
C898 C 0.65805 0.92194 0.21554 0.0
C899 C 0.68651 0.96292 0.21777 0.0
C900 C 0.6609 0.98464 0.20039 0.0
C901 C 0.68775 0.99379 0.21032 0.0
C902 C 0.63058 0.9129 0.20548 0.0
C903 C 0.55318 0.91726 0.13875 0.0
C904 C 0.60505 0.93426 0.18675 0.0
C905 C 0.74728 0.97421 0.14656 0.0
C906 C 0.72248 0.9338 0.14285 0.0
C907 C 0.50605 0.92471 0.16497 0.0
C908 C 0.55062 0.04745 0.11517 0.0
C909 C 0.57963 0.0984 0.09884 0.0
C910 C 0.59367 0.07491 0.09278 0.0
C911 C 0.56412 0.02383 0.10887 0.0
C912 C 0.55827 0.08456 0.11008 0.0
C913 C 0.58562 0.03762 0.09776 0.0
C914 C 0.61183 0.04914 0.16326 0.0
C915 C 0.52966 0.03407 0.12717 0.0
H916 H 0.70769 0.97126 0.22544 0.0
H917 H 0.66272 1.00912 0.19473 0.0
H918 H 0.70981 0.0251 0.21225 0.0
H919 H 0.60865 0.88156 0.20347 0.0
H920 H 0.61009 0.085 0.0841 0.0
H921 H 0.55825 0.99483 0.11256 0.0
H922 H 0.54795 0.10284 0.11494 0.0
H923 H 0.59608 0.01937 0.09299 0.0
Tb924 Tb 0.66463 0.59585 0.33294 0.0
C925 C 0.51649 0.44546 0.31881 0.0
N926 N 0.54072 0.46747 0.30928 0.0
C927 C 0.52638 0.40623 0.29857 0.0
C928 C 0.49645 0.40262 0.31864 0.0
C929 C 0.54595 0.44855 0.29919 0.0
C930 C 0.50154 0.38314 0.30834 0.0
C931 C 0.48738 0.44354 0.33894 0.0
C932 C 0.51271 0.46598 0.32891 0.0
C933 C 0.46765 0.40096 0.33884 0.0
C934 C 0.47228 0.38056 0.32874 0.0
Tb935 Tb 0.57093 0.53638 0.3109 0.0
N936 N 0.53312 0.5075 0.32884 0.0
C937 C 0.48186 0.46434 0.34871 0.0
C938 C 0.52621 0.52746 0.33834 0.0
C939 C 0.50079 0.50637 0.34829 0.0
H940 H 0.56627 0.46607 0.29177 0.0
H941 H 0.4963 0.52282 0.35576 0.0
H942 H 0.58656 0.51753 0.34973 0.0
H943 H 0.73948 0.75753 0.33949 0.0
H944 H 0.54019 0.55959 0.33888 0.0
H945 H 0.46256 0.44824 0.35653 0.0
H946 H 0.71848 0.69458 0.32764 0.0
H947 H 0.53092 0.39148 0.29063 0.0
H948 H 0.44843 0.38348 0.34652 0.0
H949 H 0.45685 0.34769 0.32879 0.0
H950 H 0.55822 0.5102 0.37026 0.0
H951 H 0.48674 0.35033 0.30789 0.0
H952 H 0.7152 0.75395 0.36101 0.0
N953 N 0.62673 0.58192 0.35095 0.0
C954 C 0.63892 0.61514 0.35841 0.0
C955 C 0.581 0.53992 0.36705 0.0
C956 C 0.62222 0.61179 0.37037 0.0
C957 C 0.59797 0.54453 0.35523 0.0
C958 C 0.59316 0.57357 0.37465 0.0
N959 N 0.68186 0.65587 0.34222 0.0
C960 C 0.70689 0.69269 0.33692 0.0
C961 C 0.67912 0.68836 0.36107 0.0
C962 C 0.66752 0.65316 0.35394 0.0
C963 C 0.70563 0.72622 0.35583 0.0
C964 C 0.7192 0.72839 0.34365 0.0
H965 H 0.57968 0.56976 0.38377 0.0
H966 H 0.62231 0.64448 0.38687 0.0
H967 H 0.67179 0.71149 0.37868 0.0
O968 O 0.72857 0.62646 0.33194 0.0
O969 O 0.67228 0.63282 0.31578 0.0
O970 O 0.61056 0.59887 0.3051 0.0
O971 O 0.69902 0.58922 0.34755 0.0
O972 O 0.67947 0.572 0.31608 0.0
O973 O 0.62754 0.55024 0.30131 0.0
O974 O 0.51505 0.52859 0.3041 0.0
O975 O 0.60049 0.50133 0.31655 0.0
O976 O 0.63282 0.52802 0.33507 0.0
O977 O 0.55779 0.52548 0.29197 0.0
O978 O 0.5679 0.58766 0.31994 0.0
O979 O 0.62527 0.62485 0.33226 0.0
C980 C 0.64674 0.63062 0.30688 0.0
C981 C 0.76617 0.64534 0.35108 0.0
C982 C 0.81424 0.66381 0.36874 0.0
C983 C 0.83057 0.70479 0.36535 0.0
C984 C 0.78548 0.68659 0.34773 0.0
C985 C 0.81641 0.71593 0.35497 0.0
C986 C 0.78096 0.63398 0.36172 0.0
C987 C 0.66506 0.56056 0.30467 0.0
C988 C 0.73385 0.61447 0.34275 0.0
C989 C 0.63477 0.64665 0.37767 0.0
C990 C 0.66306 0.68482 0.37303 0.0
C991 C 0.61303 0.49675 0.32749 0.0
C992 C 0.52514 0.55977 0.28436 0.0
C993 C 0.48969 0.59359 0.27603 0.0
C994 C 0.52462 0.62009 0.26927 0.0
C995 C 0.55984 0.5866 0.2775 0.0
C996 C 0.49024 0.56348 0.28356 0.0
C997 C 0.5594 0.61641 0.27 0.0
C998 C 0.59061 0.61898 0.3273 0.0
C999 C 0.52556 0.52881 0.29261 0.0
H1000 H 0.85523 0.72847 0.37062 0.0
H1001 H 0.77754 0.69646 0.33929 0.0
H1002 H 0.83033 0.74757 0.35231 0.0
H1003 H 0.76793 0.60222 0.36416 0.0
H1004 H 0.52483 0.64321 0.26328 0.0
H1005 H 0.58751 0.58486 0.27797 0.0
H1006 H 0.4637 0.54325 0.28896 0.0
H1007 H 0.58617 0.63675 0.26474 0.0
C1008 C 1.02635 0.66306 0.2258 0.0
C1009 C 0.04403 0.65578 0.21532 0.0
C1010 C 0.05094 0.6883 0.23555 0.0
C1011 C 0.15067 0.71747 0.2496 0.0
H1012 H 0.14168 0.80048 0.26789 0.0
C1013 C 0.27746 0.82042 0.28353 0.0
C1014 C 0.27117 0.84166 0.2932 0.0
C1015 C 0.24662 0.79665 0.27513 0.0
C1016 C 0.14429 0.7768 0.26311 0.0
H1017 H 0.10133 0.67068 0.20675 0.0
H1018 H 0.14359 0.71435 0.2234 0.0
H1019 H 0.09406 0.76438 0.25094 0.0
H1020 H 0.22585 0.85236 0.30186 0.0
H1021 H 0.17075 0.80879 0.28755 0.0
H1022 H 0.19877 0.72733 0.26189 0.0
C1023 C 0.11096 0.70077 0.22423 0.0
C1024 C 0.11695 0.75623 0.25328 0.0
C1025 C 0.08663 0.67607 0.21455 0.0
C1026 C 0.23185 0.83626 0.29461 0.0
C1027 C 0.20038 0.81173 0.2862 0.0
C1028 C 0.17694 0.73687 0.25959 0.0
C1029 C 0.09366 0.70613 0.23511 0.0
C1030 C 0.12039 0.72687 0.24618 0.0
C1031 C 0.20741 0.79202 0.27611 0.0
C1032 C 0.17535 0.76794 0.26635 0.0
H1033 H 0.99367 0.64691 0.22689 0.0
H1034 H 0.03645 0.6915 0.2438 0.0
H1035 H 0.15408 0.69472 0.24452 0.0
H1036 H 0.30725 0.82369 0.2821 0.0
H1037 H 0.25455 0.78337 0.26751 0.0
C1038 C 0.42923 0.2449 0.45622 0.0
C1039 C 0.40979 0.22463 0.46725 0.0
C1040 C 0.43034 0.22294 0.44576 0.0
C1041 C 0.3737 0.11822 0.43222 0.0
H1042 H 0.46402 0.15671 0.40935 0.0
C1043 C 0.38135 1.01624 0.39271 0.0
C1044 C 0.40208 0.03486 0.38169 0.0
C1045 C 0.38009 0.03967 0.40268 0.0
C1046 C 0.4381 0.14563 0.41549 0.0
H1047 H 0.37806 0.16559 0.47603 0.0
H1048 H 0.38078 0.12779 0.45814 0.0
H1049 H 0.46888 0.19732 0.42751 0.0
H1050 H 0.43761 0.09275 0.37254 0.0
H1051 H 0.43432 0.13337 0.38958 0.0
H1052 H 0.34282 0.06667 0.42024 0.0
C1053 C 0.39444 0.16043 0.45734 0.0
C1054 C 0.44103 0.16905 0.426 0.0
C1055 C 0.39338 0.18223 0.46771 0.0
C1056 C 0.42031 0.07732 0.38075 0.0
C1057 C 0.41914 0.10074 0.39068 0.0
C1058 C 0.37072 0.09491 0.42171 0.0
C1059 C 0.41184 0.18012 0.44604 0.0
C1060 C 0.40895 0.15567 0.43461 0.0
C1061 C 0.40006 0.08251 0.40199 0.0
C1062 C 0.40285 0.10807 0.41314 0.0
H1063 H 0.44155 0.27739 0.45546 0.0
H1064 H 0.44399 0.2394 0.43728 0.0
H1065 H 0.3479 0.10699 0.43842 0.0
H1066 H 0.36856 0.98382 0.39396 0.0
H1067 H 0.36556 0.02422 0.41122 0.0
C1068 C 0.21606 0.41266 0.62867 0.0
C1069 C 0.20828 0.44494 0.62663 0.0
C1070 C 0.24044 0.40516 0.62028 0.0
C1071 C 0.30972 0.4519 0.59206 0.0
H1072 H 0.28895 0.34223 0.58667 0.0
C1073 C 0.36728 0.4115 0.54785 0.0
C1074 C 0.39106 0.3928 0.54957 0.0
C1075 C 0.34341 0.41332 0.55751 0.0
C1076 C 0.29512 0.37305 0.58808 0.0
H1077 H 0.22249 0.49591 0.61446 0.0
H1078 H 0.26189 0.4821 0.59987 0.0
H1079 H 0.25328 0.35584 0.60331 0.0
H1080 H 0.40788 0.36087 0.5629 0.0
H1081 H 0.36449 0.36227 0.5797 0.0
H1082 H 0.34933 0.46848 0.57633 0.0
C1083 C 0.25064 0.46264 0.60794 0.0
C1084 C 0.27486 0.38108 0.59775 0.0
C1085 C 0.22718 0.47041 0.61634 0.0
C1086 C 0.38869 0.37406 0.56109 0.0
C1087 C 0.36417 0.37532 0.57076 0.0
C1088 C 0.3287 0.44361 0.58221 0.0
C1089 C 0.25759 0.42961 0.60957 0.0
C1090 C 0.28136 0.42072 0.59986 0.0
C1091 C 0.34236 0.39634 0.56925 0.0
C1092 C 0.32172 0.40414 0.58 0.0
H1093 H 0.20204 0.39227 0.63644 0.0
H1094 H 0.24531 0.37982 0.62217 0.0
H1095 H 0.31755 0.48318 0.59345 0.0
H1096 H 0.36921 0.42719 0.53925 0.0
H1097 H 0.32692 0.42953 0.55593 0.0
C1098 C 0.9745 0.35962 0.71487 0.0
C1099 C 1.01701 0.38181 0.71596 0.0
C1100 C 0.95007 0.33596 0.72475 0.0
C1101 C 0.94399 0.28468 0.7546 0.0
H1102 H 0.86221 0.31413 0.76249 0.0
C1103 C 0.83003 0.20705 0.79624 0.0
C1104 C 0.79083 0.20207 0.79494 0.0
C1105 C 0.86124 0.23113 0.78769 0.0
C1106 C 0.88398 0.30439 0.7604 0.0
H1107 H 0.06708 0.39569 0.7284 0.0
H1108 H 1.02438 0.35238 0.74551 0.0
H1109 H 0.90673 0.34537 0.74493 0.0
H1110 H 0.75481 0.22048 0.7839 0.0
H1111 H 0.80695 0.25985 0.76905 0.0
H1112 H 0.91962 0.24167 0.76958 0.0
C1113 C 1.01002 0.35328 0.7369 0.0
C1114 C 0.91011 0.32299 0.7503 0.0
C1115 C 0.03458 0.37771 0.72703 0.0
C1116 C 0.78449 0.22339 0.78525 0.0
C1117 C 0.81506 0.24663 0.77668 0.0
C1118 C 0.91682 0.26489 0.76453 0.0
C1119 C 0.96729 0.3334 0.73607 0.0
C1120 C 0.9404 0.31341 0.74716 0.0
C1121 C 0.85409 0.25072 0.77753 0.0
C1122 C 0.88578 0.27395 0.76756 0.0
H1123 H 0.95984 0.36287 0.70666 0.0
H1124 H 0.9174 0.32094 0.72369 0.0
H1125 H 0.96695 0.27649 0.75248 0.0
H1126 H 0.8361 0.19093 0.8035 0.0
H1127 H 0.89076 0.23371 0.78897 0.0
C1128 C 0.64163 0.96411 0.8819 0.0
C1129 C 0.65772 1.00608 0.88355 0.0
C1130 C 0.64105 0.93914 0.89168 0.0
C1131 C 0.68039 0.93768 0.92365 0.0
H1132 H 0.57903 0.83643 0.92659 0.0
C1133 C 0.6536 0.80745 0.95887 0.0
C1134 C 0.61472 0.78438 0.96412 0.0
C1135 C 0.66162 0.83798 0.94999 0.0
C1136 C 0.6075 0.86466 0.92603 0.0
H1137 H 0.68579 0.05457 0.89695 0.0
H1138 H 0.6861 1.01139 0.91396 0.0
H1139 H 0.58961 0.88152 0.90912 0.0
H1140 H 0.55388 0.77566 0.96409 0.0
H1141 H 0.56774 0.82908 0.94886 0.0
H1142 H 0.69813 0.92048 0.94063 0.0
C1143 C 0.67448 0.9977 0.90499 0.0
C1144 C 0.61385 0.89045 0.91584 0.0
C1145 C 0.6748 0.02269 0.89518 0.0
C1146 C 0.58444 0.79359 0.96053 0.0
C1147 C 0.59229 0.82381 0.95159 0.0
C1148 C 0.67423 0.9115 0.93379 0.0
C1149 C 0.6563 0.95523 0.90353 0.0
C1150 C 0.65039 0.92747 0.91443 0.0
C1151 C 0.63071 0.84581 0.94589 0.0
C1152 C 0.63756 0.87455 0.93519 0.0
H1153 H 0.62705 0.95007 0.87321 0.0
H1154 H 0.62725 0.90683 0.89004 0.0
H1155 H 0.70897 0.96573 0.92296 0.0
H1156 H 0.67723 0.80024 0.96111 0.0
H1157 H 0.69147 0.85379 0.94581 0.0
C1158 C 0.84325 0.62141 0.12739 0.0
C1159 C 0.85826 0.59522 0.12423 0.0
C1160 C 0.81673 0.62681 0.11928 0.0
C1161 C 0.75418 0.58356 0.08967 0.0
H1162 H 0.75925 0.6881 0.08777 0.0
C1163 C 0.68849 0.62637 0.04733 0.0
C1164 C 0.66055 0.63963 0.04995 0.0
C1165 C 0.71358 0.62461 0.05668 0.0
C1166 C 0.75744 0.65868 0.08818 0.0
H1167 H 0.85525 0.5529 0.11023 0.0
H1168 H 0.81132 0.56294 0.09621 0.0
H1169 H 0.79793 0.67581 0.1038 0.0
H1170 H 0.63763 0.66185 0.06457 0.0
H1171 H 0.68317 0.66113 0.08076 0.0
H1172 H 0.7152 0.56719 0.07372 0.0
C1173 C 0.81864 0.57901 0.10495 0.0
C1174 C 0.77946 0.65138 0.0975 0.0
C1175 C 0.84447 0.57337 0.11304 0.0
C1176 C 0.66 0.65318 0.06208 0.0
C1177 C 0.68576 0.6522 0.07142 0.0
C1178 C 0.73315 0.59123 0.08023 0.0
C1179 C 0.80452 0.60627 0.10774 0.0
C1180 C 0.77867 0.61372 0.09836 0.0
C1181 C 0.71185 0.6364 0.06897 0.0
C1182 C 0.73458 0.62894 0.07925 0.0
H1183 H 0.85338 0.63904 0.13585 0.0
H1184 H 0.80633 0.6476 0.12202 0.0
H1185 H 0.75094 0.55358 0.09008 0.0
H1186 H 0.68888 0.6145 0.03824 0.0
H1187 H 0.73336 0.6125 0.05438 0.0
C1188 C 0.38933 0.02943 0.62113 0.0
C1189 C 0.38962 1.01092 0.63243 0.0
C1190 C 0.36451 1.00626 0.61117 0.0
C1191 C 0.28001 0.90125 0.60234 0.0
H1192 H 0.32603 0.93446 0.56946 0.0
C1193 C 0.20458 0.79819 0.55881 0.0
C1194 C 0.20427 0.81799 0.54777 0.0
C1195 C 0.22818 0.82055 0.56911 0.0
C1196 C 0.31225 0.92469 0.57853 0.0
H1197 H 0.36426 0.95335 0.642 0.0
H1198 H 0.32165 0.91301 0.62484 0.0
H1199 H 0.36115 0.97649 0.5872 0.0
H1200 H 0.22936 0.87673 0.53888 0.0
H1201 H 0.27013 0.91532 0.55651 0.0
H1202 H 0.2307 0.84963 0.59354 0.0
C1203 C 0.33932 0.94557 0.62364 0.0
C1204 C 0.33263 0.94908 0.58883 0.0
C1205 C 0.36379 0.96882 0.6336 0.0
C1206 C 0.22935 0.86039 0.54716 0.0
C1207 C 0.25286 0.88262 0.55736 0.0
C1208 C 0.25947 0.87692 0.592 0.0
C1209 C 0.3399 0.96363 0.6121 0.0
C1210 C 0.31703 0.93792 0.60098 0.0
C1211 C 0.25217 0.86335 0.56864 0.0
C1212 C 0.27512 0.88822 0.57987 0.0
H1213 H 0.40989 0.06155 0.61976 0.0
H1214 H 0.36571 0.02179 0.6026 0.0
H1215 H 0.2663 0.8915 0.61142 0.0
H1216 H 0.18509 0.76569 0.5597 0.0
H1217 H 0.22704 0.80426 0.57751 0.0
C1218 C 0.3803 0.21521 0.71376 0.0
C1219 C 0.39816 0.19021 0.71385 0.0
C1220 C 0.38272 0.23877 0.72408 0.0
C1221 C 0.40123 0.24704 0.75842 0.0
H1222 H 0.40122 0.34864 0.75407 0.0
C1223 C 0.42159 0.35594 0.79954 0.0
C1224 C 0.40146 0.37875 0.79911 0.0
C1225 C 0.41911 0.33079 0.78963 0.0
C1226 C 0.40057 0.32004 0.75551 0.0
H1227 H 0.43408 0.17192 0.72494 0.0
H1228 H 0.43929 0.21393 0.74299 0.0
H1229 H 0.40543 0.31254 0.736 0.0
H1230 H 0.36312 0.39318 0.78779 0.0
H1231 H 0.35785 0.34862 0.77052 0.0
H1232 H 0.39698 0.25508 0.778 0.0
C1233 C 0.4226 0.21466 0.73491 0.0
C1234 C 0.40311 0.29917 0.74507 0.0
C1235 C 0.42018 0.19094 0.72448 0.0
C1236 C 0.37782 0.37495 0.7886 0.0
C1237 C 0.37554 0.34996 0.77859 0.0
C1238 C 0.39895 0.2681 0.76889 0.0
C1239 C 0.4033 0.23853 0.73496 0.0
C1240 C 0.40314 0.26207 0.74629 0.0
C1241 C 0.39692 0.32813 0.77882 0.0
C1242 C 0.39831 0.30487 0.76762 0.0
H1243 H 0.36315 0.21559 0.70574 0.0
H1244 H 0.36694 0.25602 0.72363 0.0
H1245 H 0.40052 0.21841 0.75986 0.0
H1246 H 0.44116 0.35924 0.80731 0.0
H1247 H 0.43658 0.31525 0.79017 0.0
C1248 C 0.07747 0.40454 0.96745 0.0
C1249 C 0.04384 0.40864 0.96394 0.0
C1250 C 0.10506 0.40561 0.95843 0.0
C1251 C 0.14086 0.44331 0.92623 0.0
H1252 H 0.18397 0.36953 0.9265 0.0
C1253 C 0.22647 0.4265 0.88355 0.0
C1254 C 0.25495 0.41345 0.88545 0.0
C1255 C 0.20432 0.42964 0.89359 0.0
C1256 C 0.17301 0.39105 0.92633 0.0
H1257 H 1.01155 0.41387 0.94807 0.0
H1258 H 0.05911 0.41611 0.93257 0.0
H1259 H 0.13894 0.36639 0.94315 0.0
H1260 H 0.28362 0.39507 0.89946 0.0
H1261 H 0.24698 0.40251 0.91696 0.0
H1262 H 0.17501 0.46835 0.90954 0.0
C1263 C 0.06507 0.4132 0.94225 0.0
C1264 C 0.14688 0.38904 0.93593 0.0
C1265 C 0.03761 0.41183 0.95119 0.0
C1266 C 0.2622 0.40564 0.8977 0.0
C1267 C 0.24049 0.40921 0.90773 0.0
C1268 C 0.16729 0.44561 0.91671 0.0
C1269 C 0.09974 0.411 0.9457 0.0
C1270 C 0.12989 0.41473 0.93595 0.0
C1271 C 0.21015 0.42 0.90585 0.0
C1272 C 0.18355 0.4192 0.91646 0.0
H1273 H 0.0834 0.40221 0.97718 0.0
H1274 H 0.13131 0.40366 0.96147 0.0
H1275 H 0.12906 0.46417 0.92601 0.0
H1276 H 0.21942 0.43176 0.87421 0.0
H1277 H 0.18114 0.43763 0.89158 0.0
C1278 C 0.65592 0.03113 0.11752 0.0
C1279 C 0.6609 0.03871 0.13036 0.0
C1280 C 0.68419 0.05835 0.10894 0.0
C1281 C 0.7641 0.16627 0.10483 0.0
H1282 H 0.79371 0.12523 0.07607 0.0
C1283 C 0.85903 0.27089 0.06323 0.0
C1284 C 0.89018 0.26458 0.05854 0.0
C1285 C 0.83053 0.24356 0.07186 0.0
C1286 C 0.78596 0.1374 0.08404 0.0
H1287 H 0.70035 0.08109 0.14424 0.0
H1288 H 0.74995 0.12892 0.12926 0.0
H1289 H 0.74761 0.07797 0.09157 0.0
H1290 H 0.9144 0.22336 0.05901 0.0
H1291 H 0.86493 0.17593 0.07377 0.0
H1292 H 0.80262 0.22581 0.09725 0.0
C1293 C 0.72385 0.10176 0.1258 0.0
C1294 C 0.75915 0.11013 0.09294 0.0
C1295 C 0.69566 0.07408 0.13443 0.0
C1296 C 0.8911 0.22949 0.06244 0.0
C1297 C 0.86243 0.20203 0.0709 0.0
C1298 C 0.79062 0.1936 0.09583 0.0
C1299 C 0.71842 0.09443 0.11289 0.0
C1300 C 0.74782 0.12403 0.10352 0.0
C1301 C 0.8319 0.20874 0.07589 0.0
C1302 C 0.80221 0.17964 0.08531 0.0
H1303 H 0.62977 1.00411 0.11404 0.0
H1304 H 0.67856 0.05154 0.09914 0.0
H1305 H 0.75588 0.17827 0.11274 0.0
H1306 H 0.85744 0.29763 0.06053 0.0
H1307 H 0.80731 0.24969 0.07536 0.0
C1308 C 0.62166 0.67227 0.29601 0.0
C1309 C 0.65477 0.66642 0.2989 0.0
C1310 C 0.62474 0.70061 0.28711 0.0
C1311 C 0.69527 0.79153 0.26869 0.0
H1312 H 0.60223 0.75416 0.24682 0.0
C1313 C 0.6947 0.89162 0.22737 0.0
C1314 C 0.65792 0.8897 0.22384 0.0
C1315 C 0.69559 0.8642 0.23603 0.0
C1316 C 0.62834 0.76568 0.2529 0.0
H1317 H 0.71805 0.68786 0.29486 0.0
H1318 H 0.72376 0.73822 0.27916 0.0
H1319 H 0.60296 0.70948 0.26288 0.0
H1320 H 0.593 0.85647 0.22675 0.0
H1321 H 0.59431 0.80927 0.24201 0.0
H1322 H 0.72023 0.84821 0.25892 0.0
C1323 C 0.69513 0.72035 0.28391 0.0
C1324 C 0.62886 0.73969 0.26216 0.0
C1325 C 0.69201 0.69162 0.29296 0.0
C1326 C 0.62186 0.85872 0.22909 0.0
C1327 C 0.62275 0.83149 0.2379 0.0
C1328 C 0.69459 0.8178 0.25948 0.0
C1329 C 0.66107 0.72442 0.28061 0.0
C1330 C 0.66215 0.75216 0.2703 0.0
C1331 C 0.65972 0.8339 0.24165 0.0
C1332 C 0.66097 0.80549 0.25142 0.0
H1333 H 0.59249 0.65386 0.30043 0.0
H1334 H 0.5981 0.70333 0.28519 0.0
H1335 H 0.7213 0.80256 0.2748 0.0
H1336 H 0.72313 0.91466 0.22344 0.0
H1337 H 0.72466 0.86687 0.23828 0.0
C1338 C 0.03814 0.67622 0.45505 0.0
C1339 C 1.01857 0.65106 0.46529 0.0
C1340 C 1.01547 0.6785 0.44496 0.0
C1341 C 0.90999 0.65198 0.43462 0.0
H1342 H 0.95112 0.64995 0.40189 0.0
C1343 C 0.81356 0.6314 0.38967 0.0
C1344 C 0.83476 0.6542 0.37918 0.0
C1345 C 0.83473 0.629 0.4002 0.0
C1346 C 0.93915 0.65105 0.41091 0.0
H1347 H 0.95986 0.60873 0.47294 0.0
H1348 H 0.92051 0.61337 0.45569 0.0
H1349 H 0.99093 0.6544 0.42015 0.0
H1350 H 0.89492 0.69062 0.37142 0.0
H1351 H 0.93127 0.68699 0.38947 0.0
H1352 H 0.85835 0.64908 0.42536 0.0
C1353 C 0.95323 0.63196 0.45541 0.0
C1354 C 0.96226 0.65369 0.42147 0.0
C1355 C 0.97586 0.62943 0.46538 0.0
C1356 C 0.87744 0.67285 0.37932 0.0
C1357 C 0.89844 0.67051 0.38974 0.0
C1358 C 0.88696 0.64968 0.42403 0.0
C1359 C 0.97258 0.65568 0.44485 0.0
C1360 C 0.94822 0.65431 0.43353 0.0
C1361 C 0.87769 0.64915 0.4005 0.0
C1362 C 0.90117 0.64936 0.41195 0.0
H1363 H 0.07096 0.69217 0.45448 0.0
H1364 H 0.03166 0.69736 0.43709 0.0
H1365 H 0.89803 0.65263 0.44369 0.0
H1366 H 0.78077 0.61687 0.38995 0.0
H1367 H 0.81734 0.61167 0.40816 0.0
C1368 C 0.54222 0.64774 0.32372 0.0
C1369 C 0.57666 0.65017 0.32971 0.0
C1370 C 0.52979 0.67711 0.3257 0.0
C1371 C 0.5428 0.76123 0.34783 0.0
H1372 H 0.49164 0.79008 0.32155 0.0
C1373 C 0.46826 0.86256 0.35788 0.0
C1374 C 0.4705 0.89122 0.34902 0.0
C1375 C 0.48107 0.83408 0.35518 0.0
C1376 C 0.50605 0.78279 0.32904 0.0
H1377 H 0.62468 0.68738 0.34252 0.0
H1378 H 0.60333 0.73755 0.34607 0.0
H1379 H 0.51386 0.74037 0.31767 0.0
H1380 H 0.48764 0.91051 0.33 0.0
H1381 H 0.50933 0.86053 0.32518 0.0
H1382 H 0.53529 0.80373 0.35919 0.0
C1383 C 0.58535 0.71262 0.33985 0.0
C1384 C 0.51856 0.75357 0.32684 0.0
C1385 C 0.59793 0.68348 0.33778 0.0
C1386 C 0.485 0.8891 0.33712 0.0
C1387 C 0.49763 0.8602 0.33436 0.0
C1388 C 0.52997 0.79009 0.35006 0.0
C1389 C 0.55094 0.71031 0.33387 0.0
C1390 C 0.5373 0.74198 0.33618 0.0
C1391 C 0.49647 0.83227 0.3434 0.0
C1392 C 0.51113 0.80161 0.34075 0.0
H1393 H 0.52469 0.62307 0.31736 0.0
H1394 H 0.50299 0.67326 0.3209 0.0
H1395 H 0.55657 0.75357 0.35542 0.0
H1396 H 0.45683 0.86234 0.3671 0.0
H1397 H 0.47854 0.81313 0.36243 0.0
C1398 C 0.63203 0.46003 0.52648 0.0
C1399 C 0.60312 0.45332 0.51713 0.0
C1400 C 0.67315 0.47311 0.52371 0.0
C1401 C 0.74588 0.48346 0.49775 0.0
H1402 H 0.82755 0.55328 0.52142 0.0
C1403 C 0.91836 0.52578 0.49274 0.0
C1404 C 0.9495 0.56376 0.49705 0.0
C1405 C 0.87664 0.51258 0.49485 0.0
C1406 C 0.80557 0.53406 0.51457 0.0
H1407 H 0.59662 0.45456 0.49718 0.0
H1408 H 0.66794 0.47684 0.49229 0.0
H1409 H 0.75636 0.53121 0.52527 0.0
H1410 H 0.95878 0.61748 0.50675 0.0
H1411 H 0.88744 0.59499 0.51052 0.0
H1412 H 0.79536 0.4869 0.48696 0.0
C1413 C 0.65866 0.47205 0.50193 0.0
C1414 C 0.764 0.52073 0.51689 0.0
C1415 C 0.61726 0.45911 0.50474 0.0
C1416 C 0.93666 0.58786 0.5035 0.0
C1417 C 0.89502 0.57466 0.50567 0.0
C1418 C 0.78754 0.49664 0.49546 0.0
C1419 C 0.68782 0.47988 0.51138 0.0
C1420 C 0.73295 0.49493 0.50859 0.0
C1421 C 0.86378 0.53662 0.50141 0.0
C1422 C 0.81856 0.52229 0.50382 0.0
H1423 H 0.62289 0.45515 0.53612 0.0
H1424 H 0.69342 0.47746 0.53137 0.0
H1425 H 0.72369 0.46356 0.49105 0.0
H1426 H 0.92614 0.50593 0.48767 0.0
H1427 H 0.85444 0.48297 0.49145 0.0
C1428 C 0.3999 0.90553 0.65688 0.0
C1429 C 0.39948 0.93742 0.66359 0.0
C1430 C 0.37053 0.86419 0.65892 0.0
C1431 C 0.29052 0.79324 0.68209 0.0
H1432 H 0.25691 0.71536 0.65526 0.0
C1433 C 0.18968 0.61829 0.69179 0.0
C1434 C 0.16009 0.59277 0.68312 0.0
C1435 C 0.21797 0.6593 0.68908 0.0
C1436 C 0.26552 0.73644 0.66292 0.0
H1437 H 0.36606 0.94853 0.67784 0.0
H1438 H 0.31554 0.87765 0.6814 0.0
H1439 H 0.30586 0.78674 0.65133 0.0
H1440 H 0.13877 0.59185 0.66441 0.0
H1441 H 0.18815 0.66305 0.65958 0.0
H1442 H 0.24992 0.74317 0.69365 0.0
C1443 C 0.33891 0.88437 0.67455 0.0
C1444 C 0.29435 0.77789 0.66067 0.0
C1445 C 0.36813 0.92572 0.67243 0.0
C1446 C 0.161 0.60994 0.67137 0.0
C1447 C 0.18956 0.65121 0.66862 0.0
C1448 C 0.26197 0.75183 0.68435 0.0
C1449 C 0.33926 0.8524 0.66785 0.0
C1450 C 0.30772 0.80746 0.67021 0.0
C1451 C 0.21847 0.67714 0.67748 0.0
C1452 C 0.24877 0.72221 0.67485 0.0
H1453 H 0.42308 0.91242 0.64994 0.0
H1454 H 0.37294 0.84135 0.65356 0.0
H1455 H 0.2996 0.81406 0.68983 0.0
H1456 H 0.19071 0.60662 0.7009 0.0
H1457 H 0.23971 0.67703 0.69619 0.0
C1458 C 0.466 0.35988 0.83837 0.0
C1459 C 0.48807 0.39385 0.83057 0.0
C1460 C 0.4782 0.33046 0.84045 0.0
C1461 C 0.546 0.29038 0.82787 0.0
H1462 H 0.52528 0.23703 0.85988 0.0
C1463 C 0.57818 0.15378 0.83814 0.0
C1464 C 0.59102 0.15043 0.8502 0.0
C1465 C 0.56593 0.18296 0.8353 0.0
C1466 C 0.53175 0.25157 0.85086 0.0
H1467 H 0.54105 0.42175 0.81865 0.0
H1468 H 0.56226 0.37114 0.82223 0.0
H1469 H 0.50485 0.2878 0.85608 0.0
H1470 H 0.60207 0.17734 0.86851 0.0
H1471 H 0.58111 0.22703 0.86371 0.0
H1472 H 0.57334 0.25422 0.82274 0.0
C1473 C 0.53507 0.367 0.82681 0.0
C1474 C 0.51939 0.28078 0.8486 0.0
C1475 C 0.52294 0.39661 0.82482 0.0
C1476 C 0.59196 0.17809 0.85915 0.0
C1477 C 0.57956 0.20684 0.85637 0.0
C1478 C 0.55811 0.26084 0.83011 0.0
C1479 C 0.51309 0.33315 0.83473 0.0
C1480 C 0.52631 0.30117 0.83707 0.0
C1481 C 0.56583 0.20992 0.84442 0.0
C1482 C 0.55159 0.24088 0.84171 0.0
H1483 H 0.43879 0.35558 0.84285 0.0
H1484 H 0.45953 0.30499 0.84643 0.0
H1485 H 0.5518 0.30446 0.81879 0.0
H1486 H 0.57659 0.13315 0.83094 0.0
H1487 H 0.55553 0.18363 0.82599 0.0
C1488 C 0.11162 0.47443 0.01303 0.0
C1489 C 0.09828 0.47745 1.00098 0.0
C1490 C 0.15294 0.48547 0.01546 0.0
C1491 C 0.25139 0.50472 0.99949 0.0
H1492 H 0.3031 0.55806 0.03015 0.0
C1493 C 0.42785 0.56422 0.0076 0.0
C1494 C 0.44432 0.57201 0.01973 0.0
C1495 C 0.38643 0.55299 1.0053 0.0
C1496 C 0.28973 0.54261 0.02154 0.0
H1497 H 0.12003 0.49436 0.9821 0.0
H1498 H 0.19024 0.51269 0.98623 0.0
H1499 H 0.23206 0.53705 0.02662 0.0
H1500 H 0.42832 0.57483 0.03883 0.0
H1501 H 0.3577 0.55403 0.0351 0.0
H1502 H 0.30835 0.50923 0.99445 0.0
C1503 C 0.16911 0.50193 0.99392 0.0
C1504 C 0.24809 0.53047 0.01949 0.0
C1505 C 0.12825 0.4916 0.99155 0.0
C1506 C 0.41747 0.56872 0.02935 0.0
C1507 C 0.37619 0.55708 0.02711 0.0
C1508 C 0.29287 0.51632 1.0016 0.0
C1509 C 0.18283 0.49938 1.00594 0.0
C1510 C 0.22772 0.51139 0.00838 0.0
C1511 C 0.35907 0.54873 0.01502 0.0
C1512 C 0.31361 0.53585 0.01268 0.0
H1513 H 0.09017 0.46378 0.02064 0.0
H1514 H 0.16129 0.48249 0.02486 0.0
H1515 H 0.23763 0.48973 0.99084 0.0
H1516 H 0.44685 0.56623 0.99983 0.0
H1517 H 0.37621 0.5479 0.99577 0.0
C1518 C 0.88247 0.40826 0.19372 0.0
C1519 C 0.89563 0.43934 0.18461 0.0
C1520 C 0.85269 0.3674 0.19132 0.0
C1521 C 0.79116 0.29173 0.16529 0.0
H1522 H 0.73147 0.22323 0.1931 0.0
C1523 C 0.65361 0.12483 0.15751 0.0
C1524 C 0.64367 0.09357 0.16639 0.0
C1525 C 0.68373 0.16583 0.15967 0.0
C1526 C 0.74788 0.24129 0.18512 0.0
H1527 H 0.88538 0.44904 0.16544 0.0
H1528 H 0.833 0.3784 0.16127 0.0
H1529 H 0.78177 0.29387 0.19655 0.0
H1530 H 0.65957 0.08374 0.1849 0.0
H1531 H 0.71166 0.15462 0.1887 0.0
H1532 H 0.75663 0.23897 0.15386 0.0
C1533 C 0.84649 0.38562 0.17042 0.0
C1534 C 0.7775 0.28276 0.18713 0.0
C1535 C 0.87681 0.42688 0.17284 0.0
C1536 C 0.66564 0.10599 0.17769 0.0
C1537 C 0.69578 0.14735 0.17991 0.0
C1538 C 0.76134 0.25027 0.16328 0.0
C1539 C 0.83337 0.35452 0.17963 0.0
C1540 C 0.80034 0.30942 0.1773 0.0
C1541 C 0.70591 0.17856 0.17092 0.0
C1542 C 0.73876 0.22366 0.17314 0.0
H1543 H 0.89531 0.41532 0.20296 0.0
H1544 H 0.8454 0.34577 0.19879 0.0
H1545 H 0.80754 0.3097 0.15731 0.0
H1546 H 0.63828 0.11762 0.14861 0.0
H1547 H 0.68914 0.18776 0.15242 0.0
C1548 C 0.17927 0.58468 0.51018 0.0
C1549 C 0.16999 0.58944 0.49778 0.0
C1550 C 0.20801 0.57184 0.51303 0.0
C1551 C 0.26451 0.52198 0.49827 0.0
H1552 H 0.33029 0.55719 0.52804 0.0
C1553 C 0.3714 0.45535 0.51182 0.0
C1554 C 0.40807 0.47944 0.51828 0.0
C1555 C 0.34279 0.46857 0.50961 0.0
C1556 C 0.31258 0.54705 0.51959 0.0
H1557 H 0.18651 0.58574 0.47877 0.0
H1558 H 0.23524 0.5637 0.48359 0.0
H1559 H 0.28157 0.58039 0.52385 0.0
H1560 H 0.44184 0.53729 0.52764 0.0
H1561 H 0.39282 0.56033 0.52378 0.0
H1562 H 0.29578 0.48923 0.49387 0.0
C1563 C 0.21986 0.56878 0.49125 0.0
C1564 C 0.28386 0.56017 0.51723 0.0
C1565 C 0.19152 0.58173 0.48844 0.0
C1566 C 0.41444 0.51744 0.52256 0.0
C1567 C 0.38576 0.53069 0.5204 0.0
C1568 C 0.29303 0.50877 0.50064 0.0
C1569 C 0.22874 0.56308 0.50361 0.0
C1570 C 0.25919 0.54819 0.50646 0.0
C1571 C 0.34913 0.50666 0.51382 0.0
C1572 C 0.318 0.52099 0.51135 0.0
H1573 H 0.16375 0.59002 0.51774 0.0
H1574 H 0.2132 0.56789 0.52269 0.0
H1575 H 0.24624 0.51108 0.48995 0.0
H1576 H 0.36423 0.42568 0.50859 0.0
H1577 H 0.31512 0.44819 0.50475 0.0
C1578 C 0.6297 0.18178 0.65563 0.0
C1579 C 0.6008 0.16152 0.66508 0.0
C1580 C 0.67043 0.21114 0.65831 0.0
C1581 C 0.74198 0.27598 0.68457 0.0
H1582 H 0.8246 0.29323 0.66046 0.0
C1583 C 0.91334 0.40484 0.69176 0.0
C1584 C 0.94526 0.40186 0.68597 0.0
C1585 C 0.87185 0.37641 0.6894 0.0
C1586 C 0.80251 0.28896 0.66749 0.0
H1587 H 0.59364 0.15794 0.68504 0.0
H1588 H 0.66411 0.20837 0.68979 0.0
H1589 H 0.75455 0.24334 0.65647 0.0
H1590 H 0.95637 0.36407 0.67335 0.0
H1591 H 0.88576 0.31499 0.66947 0.0
H1592 H 0.79036 0.32055 0.69582 0.0
C1593 C 0.65539 0.20212 0.68014 0.0
C1594 C 0.76129 0.26022 0.66505 0.0
C1595 C 0.61439 0.1728 0.67741 0.0
C1596 C 0.93352 0.36864 0.67786 0.0
C1597 C 0.89217 0.34005 0.67558 0.0
C1598 C 0.78333 0.30459 0.68706 0.0
C1599 C 0.68477 0.22186 0.67065 0.0
C1600 C 0.72968 0.25293 0.67348 0.0
C1601 C 0.85998 0.3431 0.68122 0.0
C1602 C 0.8149 0.31201 0.67858 0.0
H1603 H 0.62075 0.17504 0.646 0.0
H1604 H 0.69056 0.22564 0.65055 0.0
H1605 H 0.71958 0.27245 0.69141 0.0
H1606 H 0.92033 0.42953 0.69812 0.0
H1607 H 0.84911 0.38116 0.69394 0.0
C1608 C 0.59061 0.92345 0.84458 0.0
C1609 C 0.56824 0.93528 0.85235 0.0
C1610 C 0.57814 0.88207 0.84229 0.0
C1611 C 0.50557 0.77367 0.85365 0.0
H1612 H 0.53631 0.74423 0.82278 0.0
C1613 C 0.46966 0.60456 0.84366 0.0
C1614 C 0.46413 0.5906 0.83127 0.0
C1615 C 0.48195 0.64575 0.84651 0.0
C1616 C 0.52679 0.75127 0.83145 0.0
H1617 H 0.51435 0.91055 0.86384 0.0
H1618 H 0.49234 0.83926 0.85975 0.0
H1619 H 0.55649 0.81464 0.8268 0.0
H1620 H 0.46611 0.6105 0.81229 0.0
H1621 H 0.48665 0.68055 0.8171 0.0
H1622 H 0.47488 0.7099 0.85811 0.0
C1623 C 0.52017 0.86199 0.85546 0.0
C1624 C 0.53916 0.79254 0.83389 0.0
C1625 C 0.53276 0.90347 0.85777 0.0
C1626 C 0.47059 0.61951 0.82194 0.0
C1627 C 0.48277 0.66041 0.82476 0.0
C1628 C 0.49311 0.73228 0.8512 0.0
C1629 C 0.5425 0.85006 0.84764 0.0
C1630 C 0.52892 0.80503 0.84505 0.0
C1631 C 0.48919 0.67493 0.83711 0.0
C1632 C 0.50322 0.71985 0.83999 0.0
H1633 H 0.61843 0.94623 0.84034 0.0
H1634 H 0.59727 0.8754 0.83643 0.0
H1635 H 0.49707 0.78096 0.86246 0.0
H1636 H 0.46536 0.58389 0.85121 0.0
H1637 H 0.48662 0.65479 0.85616 0.0
C1638 C 0.67884 0.5744 0.01218 0.0
C1639 C 0.64471 0.55144 0.01987 0.0
C1640 C 0.70913 0.56316 0.01019 0.0
C1641 C 0.73031 0.47459 0.01323 0.0
H1642 H 0.84246 0.55723 0.0084 0.0
C1643 C 0.85666 0.43314 0.99847 0.0
C1644 C 0.89696 0.45705 1.00276 0.0
C1645 C 0.82636 0.44424 1.00064 0.0
C1646 C 0.81143 0.53342 0.00978 0.0
H1647 H 0.61739 0.49781 0.03154 0.0
H1648 H 0.66918 0.47819 0.02805 0.0
H1649 H 0.79068 0.57683 0.01193 0.0
H1650 H 0.93516 0.51087 0.01345 0.0
H1651 H 0.88321 0.53043 0.01709 0.0
H1652 H 0.75106 0.43119 0.0111 0.0
C1653 C 0.67261 0.50504 0.02338 0.0
C1654 C 0.78119 0.54482 0.0117 0.0
C1655 C 0.64254 0.51654 0.02547 0.0
C1656 C 0.9051 0.49195 0.00967 0.0
C1657 C 0.8749 0.50324 0.01178 0.0
C1658 C 0.76045 0.46319 0.01116 0.0
C1659 C 0.70687 0.52808 0.01571 0.0
C1660 C 0.73974 0.51574 0.01353 0.0
C1661 C 0.83469 0.47983 0.00726 0.0
C1662 C 0.80192 0.49226 0.00942 0.0
H1663 H 0.68264 0.60167 0.00775 0.0
H1664 H 0.73427 0.58202 1.00413 0.0
H1665 H 0.69921 0.45073 0.01443 0.0
H1666 H 0.84862 0.40605 0.99312 0.0
H1667 H 0.79638 0.42509 0.99684 0.0
C1668 C 0.44556 0.85173 0.16316 0.0
C1669 C 0.46167 0.89191 0.16758 0.0
C1670 C 0.40419 0.8216 0.16505 0.0
C1671 C 0.2998 0.80661 0.17519 0.0
H1672 H 0.26956 0.69303 0.17587 0.0
C1673 C 0.12593 0.67708 0.17826 0.0
C1674 C 0.11487 0.63877 0.1836 0.0
C1675 C 0.16725 0.70729 0.17626 0.0
C1676 C 0.27683 0.72445 0.17584 0.0
H1677 H 0.44506 0.92997 0.17812 0.0
H1678 H 0.37401 0.87835 0.18148 0.0
H1679 H 0.34026 0.74456 0.17297 0.0
H1680 H 0.14146 0.6042 0.19117 0.0
H1681 H 0.21223 0.65586 0.18785 0.0
H1682 H 0.23645 0.78652 0.1783 0.0
C1683 C 0.39296 0.86989 0.17621 0.0
C1684 C 0.31822 0.75464 0.17397 0.0
C1685 C 0.43437 0.90002 0.17429 0.0
C1686 C 0.14765 0.6326 0.1869 0.0
C1687 C 0.18898 0.66274 0.18489 0.0
C1688 C 0.25836 0.77639 0.17703 0.0
C1689 C 0.37641 0.82969 0.1716 0.0
C1690 C 0.33115 0.79676 0.1736 0.0
C1691 C 0.20023 0.70118 0.17952 0.0
C1692 C 0.24545 0.73426 0.17744 0.0
H1693 H 0.46488 0.84362 0.15792 0.0
H1694 H 0.39393 0.79189 0.1611 0.0
H1695 H 0.30702 0.83802 0.17488 0.0
H1696 H 0.10254 0.68428 0.1758 0.0
H1697 H 0.1731 0.73558 0.17202 0.0
C1698 C 0.59671 0.43904 0.3433 0.0
C1699 C 0.60435 0.45397 0.33099 0.0
C1700 C 0.58398 0.39763 0.34605 0.0
C1701 C 0.54146 0.29321 0.33052 0.0
H1702 H 0.56468 0.26068 0.36221 0.0
C1703 C 0.4739 0.11959 0.34305 0.0
C1704 C 0.4944 0.10691 0.35138 0.0
C1705 C 0.48711 0.16124 0.34083 0.0
C1706 C 0.55799 0.26874 0.35321 0.0
H1707 H 0.60597 0.43575 0.31207 0.0
H1708 H 0.58481 0.36524 0.31672 0.0
H1709 H 0.58827 0.33217 0.35802 0.0
H1710 H 0.5458 0.13049 0.36391 0.0
H1711 H 0.56908 0.20217 0.35995 0.0
H1712 H 0.51214 0.23015 0.32555 0.0
C1713 C 0.5873 0.38477 0.32437 0.0
C1714 C 0.57128 0.31042 0.35083 0.0
C1715 C 0.59987 0.42591 0.32165 0.0
C1716 C 0.5288 0.13819 0.35741 0.0
C1717 C 0.54213 0.17992 0.35517 0.0
C1718 C 0.52824 0.25164 0.33288 0.0
C1719 C 0.57844 0.36918 0.33663 0.0
C1720 C 0.56356 0.32391 0.33939 0.0
C1721 C 0.52169 0.19272 0.3468 0.0
C1722 C 0.53612 0.23808 0.34429 0.0
H1723 H 0.59928 0.45903 0.35083 0.0
H1724 H 0.57746 0.3878 0.35563 0.0
H1725 H 0.53375 0.30106 0.32164 0.0
H1726 H 0.447 0.09728 0.33831 0.0
H1727 H 0.46939 0.16853 0.33451 0.0
C1728 C 0.14715 0.67485 0.44952 0.0
C1729 C 0.15618 0.68413 0.46221 0.0
C1730 C 0.17237 0.70116 0.44019 0.0
C1731 C 0.27752 0.78403 0.43408 0.0
H1732 H 0.2302 0.80469 0.40492 0.0
C1733 C 0.37916 0.90461 0.39765 0.0
C1734 C 0.36802 0.89925 0.38501 0.0
C1735 C 0.35287 0.87873 0.40684 0.0
C1736 C 0.24418 0.79894 0.41287 0.0
H1737 H 0.19945 0.72905 0.47487 0.0
H1738 H 0.24382 0.77463 0.45858 0.0
H1739 H 0.18623 0.75973 0.42123 0.0
H1740 H 0.31959 0.86192 0.37228 0.0
H1741 H 0.27406 0.81585 0.38825 0.0
H1742 H 0.33534 0.82218 0.4257 0.0
C1743 C 0.21704 0.74679 0.45587 0.0
C1744 C 0.21876 0.77311 0.42231 0.0
C1745 C 0.19145 0.72066 0.46524 0.0
C1746 C 0.32933 0.86715 0.38189 0.0
C1747 C 0.30305 0.84077 0.39113 0.0
C1748 C 0.30291 0.80946 0.4246 0.0
C1749 C 0.20782 0.73753 0.44318 0.0
C1750 C 0.23501 0.76535 0.4331 0.0
C1751 C 0.31442 0.84596 0.4038 0.0
C1752 C 0.28682 0.81769 0.41382 0.0
H1753 H 0.12019 0.64727 0.44673 0.0
H1754 H 0.1643 0.69263 0.43057 0.0
H1755 H 0.2913 0.77837 0.4421 0.0
H1756 H 0.40831 0.92931 0.40055 0.0
H1757 H 0.36277 0.88495 0.41641 0.0
C1758 C 0.49517 0.32158 0.54938 0.0
C1759 C 0.49664 0.35837 0.55248 0.0
C1760 C 0.49579 0.29562 0.55869 0.0
C1761 C 0.51873 0.29343 0.59281 0.0
H1762 H 0.4609 0.17699 0.58801 0.0
C1763 C 0.49373 0.17874 0.63293 0.0
C1764 C 0.49809 0.14486 0.63 0.0
C1765 C 0.4941 0.20494 0.62355 0.0
C1766 C 0.47754 0.20947 0.5895 0.0
H1767 H 0.49883 0.39573 0.56803 0.0
H1768 H 0.49878 0.35059 0.58404 0.0
H1769 H 0.46034 0.22136 0.57166 0.0
H1770 H 0.50586 0.11226 0.61466 0.0
H1771 H 0.50628 0.15748 0.59847 0.0
H1772 H 0.53524 0.28127 0.61077 0.0
C1773 C 0.49849 0.34204 0.57445 0.0
C1774 C 0.47736 0.23512 0.58005 0.0
C1775 C 0.49828 0.36807 0.56517 0.0
C1776 C 0.50268 0.13804 0.61738 0.0
C1777 C 0.50256 0.16389 0.60802 0.0
C1778 C 0.51856 0.26774 0.60231 0.0
C1779 C 0.49747 0.30536 0.57142 0.0
C1780 C 0.49797 0.27766 0.5815 0.0
C1781 C 0.49825 0.19779 0.61092 0.0
C1782 C 0.49802 0.22532 0.60081 0.0
H1783 H 0.49393 0.31295 0.53974 0.0
H1784 H 0.4955 0.2681 0.55585 0.0
H1785 H 0.53579 0.32585 0.59433 0.0
H1786 H 0.48999 0.18507 0.64249 0.0
H1787 H 0.49035 0.23046 0.62618 0.0
C1788 C 0.37909 0.48487 0.78316 0.0
C1789 C 0.36946 0.48386 0.79584 0.0
C1790 C 0.35272 0.48406 0.77383 0.0
C1791 C 0.24514 0.46152 0.76838 0.0
H1792 H 0.28954 0.5165 0.7371 0.0
C1793 C 0.14786 0.48848 0.73172 0.0
C1794 C 0.15292 0.48268 0.71905 0.0
C1795 C 0.17382 0.48737 0.74083 0.0
C1796 C 0.27652 0.50059 0.74572 0.0
H1797 H 0.32399 0.48143 0.80851 0.0
H1798 H 0.27869 0.48148 0.79234 0.0
H1799 H 0.33508 0.51838 0.75343 0.0
H1800 H 0.1899 0.47107 0.70619 0.0
H1801 H 0.23582 0.46984 0.72212 0.0
H1802 H 0.18661 0.44477 0.7607 0.0
C1803 C 0.30629 0.48187 0.78953 0.0
C1804 C 0.30275 0.50154 0.75516 0.0
C1805 C 0.33253 0.48217 0.79888 0.0
C1806 C 0.18497 0.47569 0.71581 0.0
C1807 C 0.21145 0.4752 0.72496 0.0
C1808 C 0.21899 0.46101 0.759 0.0
C1809 C 0.31582 0.4827 0.7768 0.0
C1810 C 0.2876 0.48198 0.76669 0.0
C1811 C 0.20618 0.48091 0.73763 0.0
C1812 C 0.23423 0.48054 0.74751 0.0
H1813 H 0.40687 0.48554 0.78036 0.0
H1814 H 0.36117 0.48378 0.76425 0.0
H1815 H 0.23179 0.44527 0.77692 0.0
H1816 H 0.12349 0.49367 0.73468 0.0
H1817 H 0.16888 0.49229 0.75043 0.0
C1818 C 0.73099 0.17152 0.88408 0.0
C1819 C 0.68998 0.14365 0.88664 0.0
C1820 C 0.75638 0.19886 0.89325 0.0
C1821 C 0.76496 0.21567 0.92773 0.0
H1822 H 0.84217 0.32677 0.91901 0.0
C1823 C 0.85475 0.33736 0.96572 0.0
C1824 C 0.89522 0.36663 0.96316 0.0
C1825 C 0.82963 0.31065 0.95641 0.0
C1826 C 0.82121 0.29575 0.92166 0.0
H1827 H 0.64411 0.12315 0.90112 0.0
H1828 H 0.68783 0.17024 0.91683 0.0
H1829 H 0.80039 0.27948 0.90288 0.0
H1830 H 0.94019 0.39145 0.94852 0.0
H1831 H 0.89721 0.34515 0.93248 0.0
H1832 H 0.7859 0.23171 0.94648 0.0
C1833 C 0.7007 0.17094 0.9078 0.0
C1834 C 0.7971 0.26848 0.91233 0.0
C1835 C 0.67538 0.14393 0.89867 0.0
C1836 C 0.90933 0.36925 0.95092 0.0
C1837 C 0.8844 0.34263 0.94163 0.0
C1838 C 0.78917 0.24287 0.93705 0.0
C1839 C 0.74165 0.19894 0.90529 0.0
C1840 C 0.76842 0.22798 0.9152 0.0
C1841 C 0.84412 0.31258 0.9442 0.0
C1842 C 0.81774 0.28348 0.93421 0.0
H1843 H 0.74352 0.17236 0.87499 0.0
H1844 H 0.78778 0.21962 0.89094 0.0
H1845 H 0.74381 0.18467 0.93036 0.0
H1846 H 0.84231 0.33527 0.9749 0.0
H1847 H 0.79863 0.28874 0.95878 0.0
C1848 C 0.5652 0.90119 0.11703 0.0
C1849 C 0.55146 0.88769 0.1292 0.0
C1850 C 0.56529 0.87467 0.10797 0.0
C1851 C 0.5201 0.76484 0.09989 0.0
H1852 H 0.61006 0.80432 0.07677 0.0
C1853 C 0.53785 0.65619 0.0655 0.0
C1854 C 0.55432 0.67043 0.0536 0.0
C1855 C 0.53735 0.68251 0.07458 0.0
C1856 C 0.58432 0.79274 0.083 0.0
H1857 H 0.52478 0.8346 0.14105 0.0
H1858 H 0.52546 0.78826 0.12532 0.0
H1859 H 0.60929 0.84932 0.09276 0.0
H1860 H 0.58318 0.72441 0.04209 0.0
H1861 H 0.58175 0.77014 0.05781 0.0
H1862 H 0.49496 0.70836 0.0901 0.0
C1863 C 0.53652 0.81966 0.12279 0.0
C1864 C 0.58392 0.81871 0.09225 0.0
C1865 C 0.53659 0.84639 0.1319 0.0
C1866 C 0.57027 0.71209 0.05111 0.0
C1867 C 0.56968 0.73849 0.06021 0.0
C1868 C 0.52044 0.73889 0.09061 0.0
C1869 C 0.55121 0.83344 0.11068 0.0
C1870 C 0.55179 0.80527 0.10087 0.0
C1871 C 0.55318 0.72418 0.07213 0.0
C1872 C 0.55258 0.7523 0.08199 0.0
H1873 H 0.57646 0.93263 0.11452 0.0
H1874 H 0.57606 0.88653 0.09875 0.0
H1875 H 0.49446 0.75331 0.10616 0.0
H1876 H 0.52546 0.62449 0.06793 0.0
H1877 H 0.52505 0.67008 0.08363 0.0
C1878 C 0.73007 0.5618 0.29795 0.0
C1879 C 0.69233 0.5584 0.2949 0.0
C1880 C 0.75532 0.55976 0.2887 0.0
C1881 C 0.75469 0.52919 0.25522 0.0
H1882 H 0.87152 0.59057 0.25901 0.0
C1883 C 0.86664 0.54745 0.21501 0.0
C1884 C 0.9019 0.54573 0.21815 0.0
C1885 C 0.84078 0.54822 0.22428 0.0
C1886 C 0.83895 0.57287 0.25781 0.0
H1887 H 0.65233 0.55081 0.27946 0.0
H1888 H 0.69628 0.54839 0.26348 0.0
H1889 H 0.82805 0.59372 0.2751 0.0
H1890 H 0.9372 0.54367 0.23375 0.0
H1891 H 0.89251 0.54508 0.24975 0.0
H1892 H 0.76586 0.509 0.23779 0.0
C1893 C 0.70621 0.5515 0.27305 0.0
C1894 C 0.81378 0.57456 0.26713 0.0
C1895 C 0.68087 0.55317 0.28228 0.0
C1896 C 0.91033 0.54473 0.23087 0.0
C1897 C 0.88477 0.54594 0.24011 0.0
C1898 C 0.77989 0.52781 0.24585 0.0
C1899 C 0.74394 0.55463 0.27604 0.0
C1900 C 0.77109 0.55271 0.26604 0.0
C1901 C 0.84957 0.5478 0.237 0.0
C1902 C 0.82248 0.54954 0.24698 0.0
H1903 H 0.74008 0.56569 0.30752 0.0
H1904 H 0.78362 0.56168 0.29156 0.0
H1905 H 0.72218 0.51114 0.254 0.0
H1906 H 0.85899 0.54833 0.20536 0.0
H1907 H 0.81425 0.54999 0.22145 0.0
C1908 C 0.88542 0.41412 0.43538 0.0
C1909 C 0.88596 0.4509 0.43756 0.0
C1910 C 0.84917 0.37917 0.43254 0.0
C1911 C 0.73806 0.33374 0.4346 0.0
H1912 H 0.73937 0.2613 0.40945 0.0
C1913 C 0.59335 0.19574 0.41523 0.0
C1914 C 0.5948 0.15943 0.41452 0.0
C1915 C 0.62827 0.23218 0.41803 0.0
C1916 C 0.73867 0.28118 0.41654 0.0
H1917 H 0.84887 0.47982 0.43869 0.0
H1918 H 0.78561 0.41892 0.43336 0.0
H1919 H 0.80166 0.32376 0.41428 0.0
H1920 H 0.63365 0.13264 0.41654 0.0
H1921 H 0.69471 0.19641 0.4212 0.0
H1922 H 0.67479 0.29104 0.43673 0.0
C1923 C 0.81317 0.41703 0.43401 0.0
C1924 C 0.77429 0.31683 0.41933 0.0
C1925 C 0.84944 0.45199 0.43691 0.0
C1926 C 0.63175 0.16023 0.41676 0.0
C1927 C 0.66665 0.19666 0.41946 0.0
C1928 C 0.70231 0.29815 0.43173 0.0
C1929 C 0.81272 0.38031 0.43174 0.0
C1930 C 0.77447 0.34326 0.42849 0.0
C1931 C 0.66524 0.23293 0.42007 0.0
C1932 C 0.70248 0.27141 0.42277 0.0
H1933 H 0.91312 0.41242 0.43567 0.0
H1934 H 0.8497 0.35119 0.43103 0.0
H1935 H 0.73736 0.35329 0.4418 0.0
H1936 H 0.56541 0.19612 0.4134 0.0
H1937 H 0.62657 0.25988 0.41836 0.0
C1938 C 0.48716 0.8762 0.59846 0.0
C1939 C 0.45212 0.87854 0.60113 0.0
C1940 C 0.48406 0.83973 0.59464 0.0
C1941 C 0.41723 0.72998 0.59589 0.0
H1942 H 0.48851 0.73064 0.56995 0.0
C1943 C 0.41691 0.58504 0.57887 0.0
C1944 C 0.45559 0.5887 0.5779 0.0
C1945 C 0.41297 0.61934 0.58081 0.0
C1946 C 0.4685 0.73006 0.57723 0.0
H1947 H 0.38638 0.84469 0.60196 0.0
H1948 H 0.38092 0.78068 0.59512 0.0
H1949 H 0.48767 0.79299 0.57486 0.0
H1950 H 0.52035 0.6308 0.57848 0.0
H1951 H 0.51344 0.69062 0.58175 0.0
H1952 H 0.39862 0.6671 0.59838 0.0
C1953 C 0.41074 0.80711 0.59606 0.0
C1954 C 0.46804 0.76567 0.58004 0.0
C1955 C 0.41385 0.84372 0.59987 0.0
C1956 C 0.49017 0.62717 0.57894 0.0
C1957 C 0.48622 0.66138 0.58081 0.0
C1958 C 0.41764 0.69427 0.59305 0.0
C1959 C 0.44585 0.80486 0.59339 0.0
C1960 C 0.44308 0.76617 0.58958 0.0
C1961 C 0.44762 0.6578 0.58173 0.0
C1962 C 0.44395 0.69428 0.58388 0.0
H1963 H 0.51701 0.9027 0.59921 0.0
H1964 H 0.51166 0.83871 0.59281 0.0
H1965 H 0.39792 0.72962 0.60335 0.0
H1966 H 0.38972 0.55577 0.57797 0.0
H1967 H 0.38287 0.61587 0.58141 0.0
C1968 C 0.60494 0.40403 0.77504 0.0
C1969 C 0.60603 0.44166 0.77466 0.0
C1970 C 0.64054 0.40207 0.77361 0.0
C1971 C 0.7511 0.46343 0.77636 0.0
H1972 H 0.75381 0.38937 0.75209 0.0
C1973 C 0.89971 0.4844 0.75599 0.0
C1974 C 0.90313 0.44979 0.75364 0.0
C1975 C 0.86286 0.48052 0.75983 0.0
C1976 C 0.75337 0.40969 0.75906 0.0
H1977 H 0.64507 0.50657 0.77228 0.0
H1978 H 0.70719 0.50311 0.76996 0.0
H1979 H 0.68975 0.38739 0.7566 0.0
H1980 H 0.87078 0.38396 0.75353 0.0
H1981 H 0.80652 0.37716 0.76053 0.0
H1982 H 0.8147 0.48609 0.77875 0.0
C1983 C 0.6789 0.47526 0.77152 0.0
C1984 C 0.71675 0.40857 0.76162 0.0
C1985 C 0.64337 0.47721 0.77286 0.0
C1986 C 0.86912 0.41117 0.75538 0.0
C1987 C 0.83225 0.40728 0.75926 0.0
C1988 C 0.78764 0.4644 0.77386 0.0
C1989 C 0.6778 0.43771 0.77188 0.0
C1990 C 0.71552 0.43601 0.7701 0.0
C1991 C 0.82872 0.44193 0.76146 0.0
C1992 C 0.7893 0.43814 0.765 0.0
H1993 H 0.57666 0.37617 0.77657 0.0
H1994 H 0.63903 0.37278 0.77398 0.0
H1995 H 0.75073 0.48445 0.78309 0.0
H1996 H 0.92554 0.51454 0.75487 0.0
H1997 H 0.86094 0.5078 0.76128 0.0
C1998 C 0.41358 0.8723 0.91272 0.0
C1999 C 0.44873 0.87047 0.9098 0.0
C2000 C 0.3769 0.83683 0.91466 0.0
C2001 C 0.32121 0.72767 0.90848 0.0
H2002 H 0.25841 0.72594 0.93712 0.0
C2003 C 0.17423 0.58496 0.92557 0.0
C2004 C 0.14321 0.592 0.92982 0.0
C2005 C 0.21204 0.6176 0.92231 0.0
C2006 C 0.27537 0.7261 0.92901 0.0
H2007 H 0.47305 0.83023 0.90632 0.0
H2008 H 0.40857 0.76784 0.90984 0.0
H2009 H 0.32387 0.78549 0.9331 0.0
H2010 H 0.12607 0.63789 0.9332 0.0
H2011 H 0.19167 0.69469 0.92738 0.0
H2012 H 0.27223 0.66813 0.90438 0.0
C2013 C 0.40955 0.79682 0.91057 0.0
C2014 C 0.31285 0.76016 0.92672 0.0
C2015 C 0.44641 0.83243 0.90868 0.0
C2016 C 0.14984 0.63181 0.93019 0.0
C2017 C 0.18737 0.66426 0.92689 0.0
C2018 C 0.28346 0.69346 0.91076 0.0
C2019 C 0.3746 0.79879 0.91372 0.0
C2020 C 0.33588 0.76153 0.91635 0.0
C2021 C 0.21917 0.65761 0.92322 0.0
C2022 C 0.25996 0.69267 0.92095 0.0
H2023 H 0.41457 0.90121 0.91375 0.0
H2024 H 0.35028 0.83918 0.91693 0.0
H2025 H 0.33837 0.7281 0.90039 0.0
H2026 H 0.16975 0.55444 0.92523 0.0
H2027 H 0.23608 0.61164 0.91954 0.0
C2028 C 0.55387 0.14462 0.09232 0.0
C2029 C 0.5864 0.13697 0.09337 0.0
C2030 C 0.56008 0.18148 0.08759 0.0
C2031 C 0.6366 0.28727 0.08512 0.0
H2032 H 0.55722 0.29198 0.06339 0.0
C2033 C 0.63879 0.43762 0.07311 0.0
C2034 C 0.60085 0.43553 0.07434 0.0
C2035 C 0.64164 0.40221 0.07331 0.0
C2036 C 0.57966 0.29114 0.06945 0.0
H2037 H 0.65078 0.16129 0.09019 0.0
H2038 H 0.66182 0.22648 0.08198 0.0
H2039 H 0.55395 0.227 0.06732 0.0
H2040 H 0.53639 0.39497 0.077 0.0
H2041 H 0.54133 0.33345 0.07734 0.0
H2042 H 0.66122 0.35118 0.08768 0.0
C2043 C 0.63155 0.20376 0.08479 0.0
C2044 C 0.57784 0.25404 0.07167 0.0
C2045 C 0.62522 0.16656 0.08941 0.0
C2046 C 0.56593 0.39749 0.07578 0.0
C2047 C 0.56876 0.36224 0.07594 0.0
C2048 C 0.63837 0.32447 0.08292 0.0
C2049 C 0.59901 0.21153 0.08389 0.0
C2050 C 0.60545 0.25157 0.07984 0.0
C2051 C 0.60659 0.36418 0.07469 0.0
C2052 C 0.60904 0.32646 0.0754 0.0
H2053 H 0.52361 0.12211 0.09521 0.0
H2054 H 0.53457 0.1869 0.08716 0.0
H2055 H 0.65811 0.28612 0.09152 0.0
H2056 H 0.66617 0.46655 0.07186 0.0
H2057 H 0.67116 0.40453 0.07228 0.0
C2058 C 0.45443 0.63476 0.27507 0.0
C2059 C 0.4524 0.59671 0.27505 0.0
C2060 C 0.41911 0.63744 0.27392 0.0
C2061 C 0.30797 0.5775 0.2772 0.0
H2062 H 0.30671 0.65197 0.25265 0.0
C2063 C 0.16114 0.55764 0.25547 0.0
C2064 C 0.15798 0.59242 0.25306 0.0
C2065 C 0.1975 0.56126 0.25976 0.0
C2066 C 0.30675 0.63155 0.2597 0.0
H2067 H 0.41203 0.53174 0.27369 0.0
H2068 H 0.35049 0.53643 0.27173 0.0
H2069 H 0.37023 0.65309 0.25736 0.0
H2070 H 0.19018 0.65821 0.25337 0.0
H2071 H 0.25368 0.66454 0.26106 0.0
H2072 H 0.24434 0.55533 0.27934 0.0
C2073 C 0.37922 0.56411 0.27285 0.0
C2074 C 0.34309 0.63219 0.26239 0.0
C2075 C 0.41445 0.56144 0.27396 0.0
C2076 C 0.19168 0.63089 0.25523 0.0
C2077 C 0.22809 0.63453 0.25953 0.0
C2078 C 0.27167 0.5769 0.27452 0.0
C2079 C 0.38121 0.60211 0.27278 0.0
C2080 C 0.34383 0.60457 0.27097 0.0
C2081 C 0.23141 0.59974 0.26174 0.0
C2082 C 0.27055 0.60332 0.26555 0.0
H2083 H 0.48326 0.66241 0.27606 0.0
H2084 H 0.42139 0.66709 0.27398 0.0
H2085 H 0.30789 0.55635 0.284 0.0
H2086 H 0.13549 0.5276 0.25402 0.0
H2087 H 0.19932 0.53391 0.26124 0.0
loop_
_geom_bond_atom_site_label_1
_geom_bond_atom_site_label_2
_geom_bond_distance
_geom_bond_site_symmetry_2
_ccdc_geom_bond_type
Tb0 N29 2.617 1_565 S
Tb0 N35 2.572 . S
Tb0 O44 2.465 . S
Tb0 O45 2.387 1_565 S
Tb0 O47 2.428 . S
Tb0 O48 2.308 . S
Tb0 O52 2.349 . S
Tb0 O55 2.393 1_565 S
Tb0 C64 2.802 . S
C1 N2 1.379 . S
C1 C4 1.416 . S
C1 C8 1.424 . S
N2 C1 1.379 . S
N2 C5 1.334 . S
N2 Tb11 2.617 1_565 S
C3 C5 1.390 . S
C3 C6 1.339 . S
C3 H23 0.930 . S
C4 C1 1.416 . S
C4 C6 1.416 . S
C4 C10 1.448 . S
C5 N2 1.334 . S
C5 C3 1.390 . S
C5 H16 0.930 . S
C6 C3 1.339 . S
C6 C4 1.416 . S
C6 H27 0.930 . S
C7 C8 1.413 . S
C7 C9 1.427 . S
C7 C13 1.416 1_565 S
C8 C1 1.424 . S
C8 C7 1.413 . S
C8 N12 1.361 1_565 S
C9 C7 1.427 . S
C9 C10 1.328 . S
C9 H24 0.929 . S
C10 C4 1.448 . S
C10 C9 1.328 . S
C10 H25 0.930 . S
Tb11 N2 2.617 1_545 S
Tb11 N12 2.572 . S
Tb11 O46 2.349 . S
Tb11 O49 2.393 1_545 S
Tb11 O50 2.465 . S
Tb11 O51 2.387 1_545 S
Tb11 O53 2.428 . S
Tb11 O54 2.308 . S
Tb11 C75 2.802 . S
N12 C8 1.361 1_545 S
N12 Tb11 2.572 . S
N12 C14 1.340 . S
C13 C7 1.416 1_545 S
C13 C15 1.332 . S
C13 H21 0.931 . S
C14 N12 1.340 . S
C14 C15 1.407 . S
C14 H20 0.930 . S
C15 C13 1.332 . S
C15 C14 1.407 . S
C15 H17 0.929 . S
H16 C5 0.930 . S
H17 C15 0.929 . S
H18 C33 0.930 . S
H19 C40 0.929 . S
H20 C14 0.930 . S
H21 C13 0.931 . S
H22 C36 0.930 . S
H23 C3 0.930 . S
H24 C9 0.929 . S
H25 C10 0.930 . S
H26 C31 0.930 . S
H27 C6 0.930 . S
H28 C39 0.931 . S
N29 Tb0 2.617 1_545 S
N29 C30 1.379 . S
N29 C33 1.334 . S
C30 N29 1.379 . S
C30 C32 1.416 . S
C30 C38 1.424 . S
C31 H26 0.930 . S
C31 C33 1.390 . S
C31 C34 1.339 . S
C32 C30 1.416 . S
C32 C34 1.416 . S
C32 C65 1.448 . S
C33 H18 0.930 . S
C33 N29 1.334 . S
C33 C31 1.390 . S
C34 C31 1.339 . S
C34 C32 1.416 . S
C34 H41 0.930 . S
N35 Tb0 2.572 . S
N35 C36 1.340 . S
N35 C38 1.361 1_565 S
C36 H22 0.930 . S
C36 N35 1.340 . S
C36 C40 1.407 . S
C37 C38 1.413 . S
C37 C39 1.416 1_545 S
C37 C66 1.427 . S
C38 C30 1.424 . S
C38 N35 1.361 1_545 S
C38 C37 1.413 . S
C39 H28 0.931 . S
C39 C37 1.416 1_565 S
C39 C40 1.332 . S
C40 H19 0.929 . S
C40 C36 1.407 . S
C40 C39 1.332 . S
H41 C34 0.930 . S
H42 C65 0.930 . S
H43 C66 0.929 . S
O44 Tb0 2.465 . S
O44 C64 1.264 . S
O45 Tb0 2.387 1_545 S
O45 C56 1.264 . S
O46 Tb11 2.349 . S
O46 C56 1.243 . S
O47 Tb0 2.428 . S
O47 C64 1.256 . S
O48 Tb0 2.308 . S
O48 C63 1.266 . S
O49 Tb11 2.393 1_565 S
O49 C63 1.248 . S
O50 Tb11 2.465 . S
O50 C75 1.264 . S
O51 Tb11 2.387 1_565 S
O51 C67 1.264 . S
O52 Tb0 2.349 . S
O52 C67 1.243 . S
O53 Tb11 2.428 . S
O53 C75 1.256 . S
O54 Tb11 2.308 . S
O54 C74 1.266 . S
O55 Tb0 2.393 1_545 S
O55 C74 1.248 . S
C56 O45 1.264 . S
C56 O46 1.243 . S
C57 C60 1.399 . S
C57 C62 1.383 . S
C57 C64 1.496 . S
C58 C59 1.399 . S
C58 C62 1.389 . S
C59 C58 1.399 . S
C59 C61 1.380 . S
C59 H76 0.929 . S
C60 C57 1.399 . S
C60 C61 1.392 . S
C60 H77 0.929 . S
C61 C59 1.380 . S
C61 C60 1.392 . S
C61 H78 0.929 . S
C62 C57 1.383 . S
C62 C58 1.389 . S
C62 H79 0.931 . S
C63 O48 1.266 . S
C63 O49 1.248 . S
C64 Tb0 2.802 . S
C64 O44 1.264 . S
C64 O47 1.256 . S
C64 C57 1.496 . S
C65 C32 1.448 . S
C65 H42 0.930 . S
C65 C66 1.328 . S
C66 C37 1.427 . S
C66 H43 0.929 . S
C66 C65 1.328 . S
C67 O51 1.264 . S
C67 O52 1.243 . S
C68 C71 1.399 . S
C68 C72 1.383 . S
C68 C75 1.496 . S
C69 C70 1.399 . S
C69 C72 1.389 . S
C70 C69 1.399 . S
C70 C73 1.380 . S
C70 H80 0.929 . S
C71 C68 1.399 . S
C71 C73 1.392 . S
C71 H81 0.929 . S
C72 C68 1.383 . S
C72 C69 1.389 . S
C72 H82 0.931 . S
C73 C70 1.380 . S
C73 C71 1.392 . S
C73 H83 0.929 . S
C74 O54 1.266 . S
C74 O55 1.248 . S
C75 Tb11 2.802 . S
C75 O50 1.264 . S
C75 O53 1.256 . S
C75 C68 1.496 . S
H76 C59 0.929 . S
H77 C60 0.929 . S
H78 C61 0.929 . S
H79 C62 0.931 . S
H80 C70 0.929 . S
H81 C71 0.929 . S
H82 C72 0.931 . S
H83 C73 0.929 . S
Tb84 N113 2.617 . S
Tb84 N119 2.572 . S
Tb84 O128 2.465 . S
Tb84 O129 2.387 . S
Tb84 O131 2.428 . S
Tb84 O132 2.308 . S
Tb84 O136 2.349 . S
Tb84 O139 2.393 . S
Tb84 C148 2.802 . S
C85 N86 1.379 . S
C85 C88 1.416 . S
C85 C92 1.424 . S
N86 C85 1.379 . S
N86 C89 1.334 . S
N86 Tb95 2.617 . S
C87 C89 1.390 . S
C87 C90 1.339 . S
C87 H107 0.930 . S
C88 C85 1.416 . S
C88 C90 1.416 . S
C88 C94 1.448 . S
C89 N86 1.334 . S
C89 C87 1.390 . S
C89 H100 0.930 . S
C90 C87 1.339 . S
C90 C88 1.416 . S
C90 H111 0.930 . S
C91 C92 1.413 . S
C91 C93 1.427 . S
C91 C97 1.416 . S
C92 C85 1.424 . S
C92 C91 1.413 . S
C92 N96 1.361 . S
C93 C91 1.427 . S
C93 C94 1.328 . S
C93 H108 0.929 . S
C94 C88 1.448 . S
C94 C93 1.328 . S
C94 H109 0.930 . S
Tb95 N86 2.617 . S
Tb95 N96 2.572 . S
Tb95 O130 2.349 . S
Tb95 O133 2.393 . S
Tb95 O134 2.465 . S
Tb95 O135 2.387 . S
Tb95 O137 2.428 . S
Tb95 O138 2.308 . S
Tb95 C159 2.802 . S
N96 C92 1.361 . S
N96 Tb95 2.572 . S
N96 C98 1.340 . S
C97 C91 1.416 . S
C97 C99 1.332 . S
C97 H105 0.931 . S
C98 N96 1.340 . S
C98 C99 1.407 . S
C98 H104 0.930 . S
C99 C97 1.332 . S
C99 C98 1.407 . S
C99 H101 0.929 . S
H100 C89 0.930 . S
H101 C99 0.929 . S
H102 C117 0.930 . S
H103 C124 0.929 . S
H104 C98 0.930 . S
H105 C97 0.931 . S
H106 C120 0.930 . S
H107 C87 0.930 . S
H108 C93 0.929 . S
H109 C94 0.930 . S
H110 C115 0.930 . S
H111 C90 0.930 . S
H112 C123 0.931 . S
N113 Tb84 2.617 . S
N113 C114 1.379 . S
N113 C117 1.334 . S
C114 N113 1.379 . S
C114 C116 1.416 . S
C114 C122 1.424 . S
C115 H110 0.930 . S
C115 C117 1.390 . S
C115 C118 1.339 . S
C116 C114 1.416 . S
C116 C118 1.416 . S
C116 C149 1.448 . S
C117 H102 0.930 . S
C117 N113 1.334 . S
C117 C115 1.390 . S
C118 C115 1.339 . S
C118 C116 1.416 . S
C118 H125 0.930 . S
N119 Tb84 2.572 . S
N119 C120 1.340 . S
N119 C122 1.361 . S
C120 H106 0.930 . S
C120 N119 1.340 . S
C120 C124 1.407 . S
C121 C122 1.413 . S
C121 C123 1.416 . S
C121 C150 1.427 . S
C122 C114 1.424 . S
C122 N119 1.361 . S
C122 C121 1.413 . S
C123 H112 0.931 . S
C123 C121 1.416 . S
C123 C124 1.332 . S
C124 H103 0.929 . S
C124 C120 1.407 . S
C124 C123 1.332 . S
H125 C118 0.930 . S
H126 C149 0.930 . S
H127 C150 0.929 . S
O128 Tb84 2.465 . S
O128 C148 1.264 . S
O129 Tb84 2.387 . S
O129 C140 1.264 . S
O130 Tb95 2.349 . S
O130 C140 1.243 . S
O131 Tb84 2.428 . S
O131 C148 1.256 . S
O132 Tb84 2.308 . S
O132 C147 1.266 . S
O133 Tb95 2.393 . S
O133 C147 1.248 . S
O134 Tb95 2.465 . S
O134 C159 1.264 . S
O135 Tb95 2.387 . S
O135 C151 1.264 . S
O136 Tb84 2.349 . S
O136 C151 1.243 . S
O137 Tb95 2.428 . S
O137 C159 1.256 . S
O138 Tb95 2.308 . S
O138 C158 1.266 . S
O139 Tb84 2.393 . S
O139 C158 1.248 . S
C140 O129 1.264 . S
C140 O130 1.243 . S
C141 C144 1.399 . S
C141 C146 1.383 . S
C141 C148 1.496 . S
C142 C143 1.399 . S
C142 C146 1.389 . S
C143 C142 1.399 . S
C143 C145 1.380 . S
C143 H160 0.929 . S
C144 C141 1.399 . S
C144 C145 1.392 . S
C144 H161 0.929 . S
C145 C143 1.380 . S
C145 C144 1.392 . S
C145 H162 0.929 . S
C146 C141 1.383 . S
C146 C142 1.389 . S
C146 H163 0.931 . S
C147 O132 1.266 . S
C147 O133 1.248 . S
C148 Tb84 2.802 . S
C148 O128 1.264 . S
C148 O131 1.256 . S
C148 C141 1.496 . S
C149 C116 1.448 . S
C149 H126 0.930 . S
C149 C150 1.328 . S
C150 C121 1.427 . S
C150 H127 0.929 . S
C150 C149 1.328 . S
C151 O135 1.264 . S
C151 O136 1.243 . S
C152 C155 1.399 . S
C152 C156 1.383 . S
C152 C159 1.496 . S
C153 C154 1.399 . S
C153 C156 1.389 . S
C154 C153 1.399 . S
C154 C157 1.380 . S
C154 H164 0.929 . S
C155 C152 1.399 . S
C155 C157 1.392 . S
C155 H165 0.929 . S
C156 C152 1.383 . S
C156 C153 1.389 . S
C156 H166 0.931 . S
C157 C154 1.380 . S
C157 C155 1.392 . S
C157 H167 0.929 . S
C158 O138 1.266 . S
C158 O139 1.248 . S
C159 Tb95 2.802 . S
C159 O134 1.264 . S
C159 O137 1.256 . S
C159 C152 1.496 . S
H160 C143 0.929 . S
H161 C144 0.929 . S
H162 C145 0.929 . S
H163 C146 0.931 . S
H164 C154 0.929 . S
H165 C155 0.929 . S
H166 C156 0.931 . S
H167 C157 0.929 . S
Tb168 N197 2.617 1_455 S
Tb168 N203 2.572 . S
Tb168 O212 2.465 . S
Tb168 O213 2.387 1_455 S
Tb168 O215 2.428 . S
Tb168 O216 2.308 . S
Tb168 O220 2.349 . S
Tb168 O223 2.393 1_455 S
Tb168 C232 2.802 . S
C169 N170 1.379 . S
C169 C172 1.416 . S
C169 C176 1.424 . S
N170 C169 1.379 . S
N170 C173 1.334 . S
N170 Tb179 2.617 1_455 S
C171 C173 1.390 . S
C171 C174 1.339 . S
C171 H191 0.930 . S
C172 C169 1.416 . S
C172 C174 1.416 . S
C172 C178 1.448 . S
C173 N170 1.334 . S
C173 C171 1.390 . S
C173 H184 0.930 . S
C174 C171 1.339 . S
C174 C172 1.416 . S
C174 H195 0.930 . S
C175 C176 1.413 . S
C175 C177 1.427 . S
C175 C181 1.416 1_455 S
C176 C169 1.424 . S
C176 C175 1.413 . S
C176 N180 1.361 1_455 S
C177 C175 1.427 . S
C177 C178 1.328 . S
C177 H192 0.929 . S
C178 C172 1.448 . S
C178 C177 1.328 . S
C178 H193 0.930 . S
Tb179 N170 2.617 1_655 S
Tb179 N180 2.572 . S
Tb179 O214 2.349 . S
Tb179 O217 2.393 1_655 S
Tb179 O218 2.465 . S
Tb179 O219 2.387 1_655 S
Tb179 O221 2.428 . S
Tb179 O222 2.308 . S
Tb179 C243 2.802 . S
N180 C176 1.361 1_655 S
N180 Tb179 2.572 . S
N180 C182 1.340 . S
C181 C175 1.416 1_655 S
C181 C183 1.332 . S
C181 H189 0.931 . S
C182 N180 1.340 . S
C182 C183 1.407 . S
C182 H188 0.930 . S
C183 C181 1.332 . S
C183 C182 1.407 . S
C183 H185 0.929 . S
H184 C173 0.930 . S
H185 C183 0.929 . S
H186 C201 0.930 . S
H187 C208 0.929 . S
H188 C182 0.930 . S
H189 C181 0.931 . S
H190 C204 0.930 . S
H191 C171 0.930 . S
H192 C177 0.929 . S
H193 C178 0.930 . S
H194 C199 0.930 . S
H195 C174 0.930 . S
H196 C207 0.931 . S
N197 Tb168 2.617 1_655 S
N197 C198 1.379 . S
N197 C201 1.334 . S
C198 N197 1.379 . S
C198 C200 1.416 . S
C198 C206 1.424 . S
C199 H194 0.930 . S
C199 C201 1.390 . S
C199 C202 1.339 . S
C200 C198 1.416 . S
C200 C202 1.416 . S
C200 C233 1.448 . S
C201 H186 0.930 . S
C201 N197 1.334 . S
C201 C199 1.390 . S
C202 C199 1.339 . S
C202 C200 1.416 . S
C202 H209 0.930 . S
N203 Tb168 2.572 . S
N203 C204 1.340 . S
N203 C206 1.361 1_455 S
C204 H190 0.930 . S
C204 N203 1.340 . S
C204 C208 1.407 . S
C205 C206 1.413 . S
C205 C207 1.416 1_655 S
C205 C234 1.427 . S
C206 C198 1.424 . S
C206 N203 1.361 1_655 S
C206 C205 1.413 . S
C207 H196 0.931 . S
C207 C205 1.416 1_455 S
C207 C208 1.332 . S
C208 H187 0.929 . S
C208 C204 1.407 . S
C208 C207 1.332 . S
H209 C202 0.930 . S
H210 C233 0.930 . S
H211 C234 0.929 . S
O212 Tb168 2.465 . S
O212 C232 1.264 . S
O213 Tb168 2.387 1_655 S
O213 C224 1.264 . S
O214 Tb179 2.349 . S
O214 C224 1.243 . S
O215 Tb168 2.428 . S
O215 C232 1.256 . S
O216 Tb168 2.308 . S
O216 C231 1.266 . S
O217 Tb179 2.393 1_455 S
O217 C231 1.248 . S
O218 Tb179 2.465 . S
O218 C243 1.264 . S
O219 Tb179 2.387 1_455 S
O219 C235 1.264 . S
O220 Tb168 2.349 . S
O220 C235 1.243 . S
O221 Tb179 2.428 . S
O221 C243 1.256 . S
O222 Tb179 2.308 . S
O222 C242 1.266 . S
O223 Tb168 2.393 1_655 S
O223 C242 1.248 . S
C224 O213 1.264 . S
C224 O214 1.243 . S
C225 C228 1.399 . S
C225 C230 1.383 . S
C225 C232 1.496 . S
C226 C227 1.399 . S
C226 C230 1.389 . S
C227 C226 1.399 . S
C227 C229 1.380 . S
C227 H244 0.929 . S
C228 C225 1.399 . S
C228 C229 1.392 . S
C228 H245 0.929 . S
C229 C227 1.380 . S
C229 C228 1.392 . S
C229 H246 0.929 . S
C230 C225 1.383 . S
C230 C226 1.389 . S
C230 H247 0.931 . S
C231 O216 1.266 . S
C231 O217 1.248 . S
C232 Tb168 2.802 . S
C232 O212 1.264 . S
C232 O215 1.256 . S
C232 C225 1.496 . S
C233 C200 1.448 . S
C233 H210 0.930 . S
C233 C234 1.328 . S
C234 C205 1.427 . S
C234 H211 0.929 . S
C234 C233 1.328 . S
C235 O219 1.264 . S
C235 O220 1.243 . S
C236 C239 1.399 . S
C236 C240 1.383 . S
C236 C243 1.496 . S
C237 C238 1.399 . S
C237 C240 1.389 . S
C238 C237 1.399 . S
C238 C241 1.380 . S
C238 H248 0.929 . S
C239 C236 1.399 . S
C239 C241 1.392 . S
C239 H249 0.929 . S
C240 C236 1.383 . S
C240 C237 1.389 . S
C240 H250 0.931 . S
C241 C238 1.380 . S
C241 C239 1.392 . S
C241 H251 0.929 . S
C242 O222 1.266 . S
C242 O223 1.248 . S
C243 Tb179 2.802 . S
C243 O218 1.264 . S
C243 O221 1.256 . S
C243 C236 1.496 . S
H244 C227 0.929 . S
H245 C228 0.929 . S
H246 C229 0.929 . S
H247 C230 0.931 . S
H248 C238 0.929 . S
H249 C239 0.929 . S
H250 C240 0.931 . S
H251 C241 0.929 . S
Tb252 N281 2.617 1_545 S
Tb252 N287 2.572 . S
Tb252 O296 2.465 . S
Tb252 O297 2.387 1_545 S
Tb252 O299 2.428 . S
Tb252 O300 2.308 . S
Tb252 O304 2.349 . S
Tb252 O307 2.393 1_545 S
Tb252 C316 2.802 . S
C253 N254 1.379 . S
C253 C256 1.416 . S
C253 C260 1.424 . S
N254 C253 1.379 . S
N254 C257 1.334 . S
N254 Tb263 2.617 1_545 S
C255 C257 1.390 . S
C255 C258 1.339 . S
C255 H275 0.930 . S
C256 C253 1.416 . S
C256 C258 1.416 . S
C256 C262 1.448 . S
C257 N254 1.334 . S
C257 C255 1.390 . S
C257 H268 0.930 . S
C258 C255 1.339 . S
C258 C256 1.416 . S
C258 H279 0.930 . S
C259 C260 1.413 . S
C259 C261 1.427 . S
C259 C265 1.416 1_545 S
C260 C253 1.424 . S
C260 C259 1.413 . S
C260 N264 1.361 1_545 S
C261 C259 1.427 . S
C261 C262 1.328 . S
C261 H276 0.929 . S
C262 C256 1.448 . S
C262 C261 1.328 . S
C262 H277 0.930 . S
Tb263 N254 2.617 1_565 S
Tb263 N264 2.572 . S
Tb263 O298 2.349 . S
Tb263 O301 2.393 1_565 S
Tb263 O302 2.465 . S
Tb263 O303 2.387 1_565 S
Tb263 O305 2.428 . S
Tb263 O306 2.308 . S
Tb263 C327 2.802 . S
N264 C260 1.361 1_565 S
N264 Tb263 2.572 . S
N264 C266 1.340 . S
C265 C259 1.416 1_565 S
C265 C267 1.332 . S
C265 H273 0.931 . S
C266 N264 1.340 . S
C266 C267 1.407 . S
C266 H272 0.930 . S
C267 C265 1.332 . S
C267 C266 1.407 . S
C267 H269 0.929 . S
H268 C257 0.930 . S
H269 C267 0.929 . S
H270 C285 0.930 . S
H271 C292 0.929 . S
H272 C266 0.930 . S
H273 C265 0.931 . S
H274 C288 0.930 . S
H275 C255 0.930 . S
H276 C261 0.929 . S
H277 C262 0.930 . S
H278 C283 0.930 . S
H279 C258 0.930 . S
H280 C291 0.931 . S
N281 Tb252 2.617 1_565 S
N281 C282 1.379 . S
N281 C285 1.334 . S
C282 N281 1.379 . S
C282 C284 1.416 . S
C282 C290 1.424 . S
C283 H278 0.930 . S
C283 C285 1.390 . S
C283 C286 1.339 . S
C284 C282 1.416 . S
C284 C286 1.416 . S
C284 C317 1.448 . S
C285 H270 0.930 . S
C285 N281 1.334 . S
C285 C283 1.390 . S
C286 C283 1.339 . S
C286 C284 1.416 . S
C286 H293 0.930 . S
N287 Tb252 2.572 . S
N287 C288 1.340 . S
N287 C290 1.361 1_545 S
C288 H274 0.930 . S
C288 N287 1.340 . S
C288 C292 1.407 . S
C289 C290 1.413 . S
C289 C291 1.416 1_565 S
C289 C318 1.427 . S
C290 C282 1.424 . S
C290 N287 1.361 1_565 S
C290 C289 1.413 . S
C291 H280 0.931 . S
C291 C289 1.416 1_545 S
C291 C292 1.332 . S
C292 H271 0.929 . S
C292 C288 1.407 . S
C292 C291 1.332 . S
H293 C286 0.930 . S
H294 C317 0.930 . S
H295 C318 0.929 . S
O296 Tb252 2.465 . S
O296 C316 1.264 . S
O297 Tb252 2.387 1_565 S
O297 C308 1.264 . S
O298 Tb263 2.349 . S
O298 C308 1.243 . S
O299 Tb252 2.428 . S
O299 C316 1.256 . S
O300 Tb252 2.308 . S
O300 C315 1.266 . S
O301 Tb263 2.393 1_545 S
O301 C315 1.248 . S
O302 Tb263 2.465 . S
O302 C327 1.264 . S
O303 Tb263 2.387 1_545 S
O303 C319 1.264 . S
O304 Tb252 2.349 . S
O304 C319 1.243 . S
O305 Tb263 2.428 . S
O305 C327 1.256 . S
O306 Tb263 2.308 . S
O306 C326 1.266 . S
O307 Tb252 2.393 1_565 S
O307 C326 1.248 . S
C308 O297 1.264 . S
C308 O298 1.243 . S
C309 C312 1.399 . S
C309 C314 1.383 . S
C309 C316 1.496 . S
C310 C311 1.399 . S
C310 C314 1.389 . S
C311 C310 1.399 . S
C311 C313 1.380 . S
C311 H328 0.929 . S
C312 C309 1.399 . S
C312 C313 1.392 . S
C312 H329 0.929 . S
C313 C311 1.380 . S
C313 C312 1.392 . S
C313 H330 0.929 . S
C314 C309 1.383 . S
C314 C310 1.389 . S
C314 H331 0.931 . S
C315 O300 1.266 . S
C315 O301 1.248 . S
C316 Tb252 2.802 . S
C316 O296 1.264 . S
C316 O299 1.256 . S
C316 C309 1.496 . S
C317 C284 1.448 . S
C317 H294 0.930 . S
C317 C318 1.328 . S
C318 C289 1.427 . S
C318 H295 0.929 . S
C318 C317 1.328 . S
C319 O303 1.264 . S
C319 O304 1.243 . S
C320 C323 1.399 . S
C320 C324 1.383 . S
C320 C327 1.496 . S
C321 C322 1.399 . S
C321 C324 1.389 . S
C322 C321 1.399 . S
C322 C325 1.380 . S
C322 H332 0.929 . S
C323 C320 1.399 . S
C323 C325 1.392 . S
C323 H333 0.929 . S
C324 C320 1.383 . S
C324 C321 1.389 . S
C324 H334 0.931 . S
C325 C322 1.380 . S
C325 C323 1.392 . S
C325 H335 0.929 . S
C326 O306 1.266 . S
C326 O307 1.248 . S
C327 Tb263 2.802 . S
C327 O302 1.264 . S
C327 O305 1.256 . S
C327 C320 1.496 . S
H328 C311 0.929 . S
H329 C312 0.929 . S
H330 C313 0.929 . S
H331 C314 0.931 . S
H332 C322 0.929 . S
H333 C323 0.929 . S
H334 C324 0.931 . S
H335 C325 0.929 . S
Tb336 N365 2.617 . S
Tb336 N371 2.572 . S
Tb336 O380 2.465 . S
Tb336 O381 2.387 . S
Tb336 O383 2.428 . S
Tb336 O384 2.308 . S
Tb336 O388 2.349 . S
Tb336 O391 2.393 . S
Tb336 C400 2.802 . S
C337 N338 1.379 . S
C337 C340 1.416 . S
C337 C344 1.424 . S
N338 C337 1.379 . S
N338 C341 1.334 . S
N338 Tb347 2.617 . S
C339 C341 1.390 . S
C339 C342 1.339 . S
C339 H359 0.930 . S
C340 C337 1.416 . S
C340 C342 1.416 . S
C340 C346 1.448 . S
C341 N338 1.334 . S
C341 C339 1.390 . S
C341 H352 0.930 . S
C342 C339 1.339 . S
C342 C340 1.416 . S
C342 H363 0.930 . S
C343 C344 1.413 . S
C343 C345 1.427 . S
C343 C349 1.416 . S
C344 C337 1.424 . S
C344 C343 1.413 . S
C344 N348 1.361 . S
C345 C343 1.427 . S
C345 C346 1.328 . S
C345 H360 0.929 . S
C346 C340 1.448 . S
C346 C345 1.328 . S
C346 H361 0.930 . S
Tb347 N338 2.617 . S
Tb347 N348 2.572 . S
Tb347 O382 2.349 . S
Tb347 O385 2.393 . S
Tb347 O386 2.465 . S
Tb347 O387 2.387 . S
Tb347 O389 2.428 . S
Tb347 O390 2.308 . S
Tb347 C411 2.802 . S
N348 C344 1.361 . S
N348 Tb347 2.572 . S
N348 C350 1.340 . S
C349 C343 1.416 . S
C349 C351 1.332 . S
C349 H357 0.931 . S
C350 N348 1.340 . S
C350 C351 1.407 . S
C350 H356 0.930 . S
C351 C349 1.332 . S
C351 C350 1.407 . S
C351 H353 0.929 . S
H352 C341 0.930 . S
H353 C351 0.929 . S
H354 C369 0.930 . S
H355 C376 0.929 . S
H356 C350 0.930 . S
H357 C349 0.931 . S
H358 C372 0.930 . S
H359 C339 0.930 . S
H360 C345 0.929 . S
H361 C346 0.930 . S
H362 C367 0.932 1_556 S
H363 C342 0.930 . S
H364 C375 0.931 . S
N365 Tb336 2.617 . S
N365 C366 1.379 . S
N365 C369 1.334 . S
C366 N365 1.379 . S
C366 C368 1.416 . S
C366 C374 1.424 . S
C367 H362 0.932 1_554 S
C367 C369 1.390 . S
C367 C370 1.339 . S
C368 C366 1.416 . S
C368 C370 1.416 . S
C368 C401 1.448 . S
C369 H354 0.930 . S
C369 N365 1.334 . S
C369 C367 1.390 . S
C370 C367 1.339 . S
C370 C368 1.416 . S
C370 H377 0.930 . S
N371 Tb336 2.572 . S
N371 C372 1.340 . S
N371 C374 1.361 . S
C372 H358 0.930 . S
C372 N371 1.340 . S
C372 C376 1.407 . S
C373 C374 1.413 . S
C373 C375 1.416 . S
C373 C402 1.427 . S
C374 C366 1.424 . S
C374 N371 1.361 . S
C374 C373 1.413 . S
C375 H364 0.931 . S
C375 C373 1.416 . S
C375 C376 1.332 . S
C376 H355 0.929 . S
C376 C372 1.407 . S
C376 C375 1.332 . S
H377 C370 0.930 . S
H378 C401 0.930 . S
H379 C402 0.929 . S
O380 Tb336 2.465 . S
O380 C400 1.264 . S
O381 Tb336 2.387 . S
O381 C392 1.264 . S
O382 Tb347 2.349 . S
O382 C392 1.243 . S
O383 Tb336 2.428 . S
O383 C400 1.256 . S
O384 Tb336 2.308 . S
O384 C399 1.266 . S
O385 Tb347 2.393 . S
O385 C399 1.248 . S
O386 Tb347 2.465 . S
O386 C411 1.264 . S
O387 Tb347 2.387 . S
O387 C403 1.264 . S
O388 Tb336 2.349 . S
O388 C403 1.243 . S
O389 Tb347 2.428 . S
O389 C411 1.256 . S
O390 Tb347 2.308 . S
O390 C410 1.266 . S
O391 Tb336 2.393 . S
O391 C410 1.248 . S
C392 O381 1.264 . S
C392 O382 1.243 . S
C393 C396 1.399 . S
C393 C398 1.383 1_556 S
C393 C400 1.496 1_556 S
C394 C395 1.399 . S
C394 C398 1.389 1_556 S
C395 C394 1.399 . S
C395 C397 1.380 . S
C395 H412 0.929 . S
C396 C393 1.399 . S
C396 C397 1.392 . S
C396 H413 0.929 . S
C397 C395 1.380 . S
C397 C396 1.392 . S
C397 H414 0.929 . S
C398 C393 1.383 1_554 S
C398 C394 1.389 1_554 S
C398 H415 0.931 . S
C399 O384 1.266 . S
C399 O385 1.248 . S
C400 Tb336 2.802 . S
C400 O380 1.264 . S
C400 O383 1.256 . S
C400 C393 1.496 1_554 S
C401 C368 1.448 . S
C401 H378 0.930 . S
C401 C402 1.328 . S
C402 C373 1.427 . S
C402 H379 0.929 . S
C402 C401 1.328 . S
C403 O387 1.264 . S
C403 O388 1.243 . S
C404 C407 1.399 . S
C404 C408 1.383 . S
C404 C411 1.496 . S
C405 C406 1.399 . S
C405 C408 1.389 . S
C406 C405 1.399 . S
C406 C409 1.380 . S
C406 H416 0.929 . S
C407 C404 1.399 . S
C407 C409 1.392 . S
C407 H417 0.929 . S
C408 C404 1.383 . S
C408 C405 1.389 . S
C408 H418 0.931 . S
C409 C406 1.380 . S
C409 C407 1.392 . S
C409 H419 0.929 . S
C410 O390 1.266 . S
C410 O391 1.248 . S
C411 Tb347 2.802 . S
C411 O386 1.264 . S
C411 O389 1.256 . S
C411 C404 1.496 . S
H412 C395 0.929 . S
H413 C396 0.929 . S
H414 C397 0.929 . S
H415 C398 0.931 . S
H416 C406 0.929 . S
H417 C407 0.929 . S
H418 C408 0.931 . S
H419 C409 0.929 . S
Tb420 N449 2.617 1_655 S
Tb420 N455 2.572 . S
Tb420 O464 2.465 . S
Tb420 O465 2.387 1_655 S
Tb420 O467 2.428 . S
Tb420 O468 2.308 . S
Tb420 O472 2.349 . S
Tb420 O475 2.393 1_655 S
Tb420 C484 2.802 . S
C421 N422 1.379 . S
C421 C424 1.416 . S
C421 C428 1.424 . S
N422 C421 1.379 . S
N422 C425 1.334 . S
N422 Tb431 2.617 1_655 S
C423 C425 1.390 . S
C423 C426 1.339 . S
C423 H443 0.930 . S
C424 C421 1.416 . S
C424 C426 1.416 . S
C424 C430 1.448 . S
C425 N422 1.334 . S
C425 C423 1.390 . S
C425 H436 0.930 . S
C426 C423 1.339 . S
C426 C424 1.416 . S
C426 H447 0.930 . S
C427 C428 1.413 . S
C427 C429 1.427 . S
C427 C433 1.416 1_655 S
C428 C421 1.424 . S
C428 C427 1.413 . S
C428 N432 1.361 1_655 S
C429 C427 1.427 . S
C429 C430 1.328 . S
C429 H444 0.929 . S
C430 C424 1.448 . S
C430 C429 1.328 . S
C430 H445 0.930 . S
Tb431 N422 2.617 1_455 S
Tb431 N432 2.572 . S
Tb431 O466 2.349 . S
Tb431 O469 2.393 1_455 S
Tb431 O470 2.465 . S
Tb431 O471 2.387 1_455 S
Tb431 O473 2.428 . S
Tb431 O474 2.308 . S
Tb431 C495 2.802 . S
N432 C428 1.361 1_455 S
N432 Tb431 2.572 . S
N432 C434 1.340 . S
C433 C427 1.416 1_455 S
C433 C435 1.332 . S
C433 H441 0.931 . S
C434 N432 1.340 . S
C434 C435 1.407 . S
C434 H440 0.930 . S
C435 C433 1.332 . S
C435 C434 1.407 . S
C435 H437 0.929 . S
H436 C425 0.930 . S
H437 C435 0.929 . S
H438 C453 0.930 . S
H439 C460 0.929 . S
H440 C434 0.930 . S
H441 C433 0.931 . S
H442 C456 0.930 . S
H443 C423 0.930 . S
H444 C429 0.929 . S
H445 C430 0.930 . S
H446 C451 0.930 . S
H447 C426 0.930 . S
H448 C459 0.931 . S
N449 Tb420 2.617 1_455 S
N449 C450 1.379 . S
N449 C453 1.334 . S
C450 N449 1.379 . S
C450 C452 1.416 . S
C450 C458 1.424 . S
C451 H446 0.930 . S
C451 C453 1.390 . S
C451 C454 1.339 . S
C452 C450 1.416 . S
C452 C454 1.416 . S
C452 C485 1.448 . S
C453 H438 0.930 . S
C453 N449 1.334 . S
C453 C451 1.390 . S
C454 C451 1.339 . S
C454 C452 1.416 . S
C454 H461 0.930 . S
N455 Tb420 2.572 . S
N455 C456 1.340 . S
N455 C458 1.361 1_655 S
C456 H442 0.930 . S
C456 N455 1.340 . S
C456 C460 1.407 . S
C457 C458 1.413 . S
C457 C459 1.416 1_455 S
C457 C486 1.427 . S
C458 C450 1.424 . S
C458 N455 1.361 1_455 S
C458 C457 1.413 . S
C459 H448 0.931 . S
C459 C457 1.416 1_655 S
C459 C460 1.332 . S
C460 H439 0.929 . S
C460 C456 1.407 . S
C460 C459 1.332 . S
H461 C454 0.930 . S
H462 C485 0.930 . S
H463 C486 0.929 . S
O464 Tb420 2.465 . S
O464 C484 1.264 . S
O465 Tb420 2.387 1_455 S
O465 C476 1.264 . S
O466 Tb431 2.349 . S
O466 C476 1.243 . S
O467 Tb420 2.428 . S
O467 C484 1.256 . S
O468 Tb420 2.308 . S
O468 C483 1.266 . S
O469 Tb431 2.393 1_655 S
O469 C483 1.248 . S
O470 Tb431 2.465 . S
O470 C495 1.264 . S
O471 Tb431 2.387 1_655 S
O471 C487 1.264 . S
O472 Tb420 2.349 . S
O472 C487 1.243 . S
O473 Tb431 2.428 . S
O473 C495 1.256 . S
O474 Tb431 2.308 . S
O474 C494 1.266 . S
O475 Tb420 2.393 1_455 S
O475 C494 1.248 . S
C476 O465 1.264 . S
C476 O466 1.243 . S
C477 C480 1.399 . S
C477 C482 1.383 . S
C477 C484 1.496 . S
C478 C479 1.399 . S
C478 C482 1.389 . S
C479 C478 1.399 . S
C479 C481 1.380 . S
C479 H496 0.929 . S
C480 C477 1.399 . S
C480 C481 1.392 . S
C480 H497 0.929 . S
C481 C479 1.380 . S
C481 C480 1.392 . S
C481 H498 0.929 . S
C482 C477 1.383 . S
C482 C478 1.389 . S
C482 H499 0.931 . S
C483 O468 1.266 . S
C483 O469 1.248 . S
C484 Tb420 2.802 . S
C484 O464 1.264 . S
C484 O467 1.256 . S
C484 C477 1.496 . S
C485 C452 1.448 . S
C485 H462 0.930 . S
C485 C486 1.328 . S
C486 C457 1.427 . S
C486 H463 0.929 . S
C486 C485 1.328 . S
C487 O471 1.264 . S
C487 O472 1.243 . S
C488 C491 1.399 . S
C488 C492 1.383 . S
C488 C495 1.496 . S
C489 C490 1.399 . S
C489 C492 1.389 . S
C490 C489 1.399 . S
C490 C493 1.380 . S
C490 H500 0.929 . S
C491 C488 1.399 . S
C491 C493 1.392 . S
C491 H501 0.929 . S
C492 C488 1.383 . S
C492 C489 1.389 . S
C492 H502 0.931 . S
C493 C490 1.380 . S
C493 C491 1.392 . S
C493 H503 0.929 . S
C494 O474 1.266 . S
C494 O475 1.248 . S
C495 Tb431 2.802 . S
C495 O470 1.264 . S
C495 O473 1.256 . S
C495 C488 1.496 . S
H496 C479 0.929 . S
H497 C480 0.929 . S
H498 C481 0.929 . S
H499 C482 0.931 . S
H500 C490 0.929 . S
H501 C491 0.929 . S
H502 C492 0.931 . S
H503 C493 0.929 . S
Tb504 N533 2.617 1_455 S
Tb504 N539 2.572 . S
Tb504 O548 2.465 . S
Tb504 O549 2.387 1_455 S
Tb504 O551 2.428 . S
Tb504 O552 2.308 . S
Tb504 O556 2.349 . S
Tb504 O559 2.393 1_455 S
Tb504 C568 2.802 . S
C505 N506 1.379 . S
C505 C508 1.416 . S
C505 C512 1.424 . S
N506 C505 1.379 . S
N506 C509 1.334 . S
N506 Tb515 2.617 1_455 S
C507 C509 1.390 . S
C507 C510 1.339 . S
C507 H527 0.930 . S
C508 C505 1.416 . S
C508 C510 1.416 . S
C508 C514 1.448 . S
C509 N506 1.334 . S
C509 C507 1.390 . S
C509 H520 0.930 . S
C510 C507 1.339 . S
C510 C508 1.416 . S
C510 H531 0.930 . S
C511 C512 1.413 . S
C511 C513 1.427 . S
C511 C517 1.416 1_455 S
C512 C505 1.424 . S
C512 C511 1.413 . S
C512 N516 1.361 1_455 S
C513 C511 1.427 . S
C513 C514 1.328 . S
C513 H528 0.929 . S
C514 C508 1.448 . S
C514 C513 1.328 . S
C514 H529 0.930 . S
Tb515 N506 2.617 1_655 S
Tb515 N516 2.572 . S
Tb515 O550 2.349 . S
Tb515 O553 2.393 1_655 S
Tb515 O554 2.465 . S
Tb515 O555 2.387 1_655 S
Tb515 O557 2.428 . S
Tb515 O558 2.308 . S
Tb515 C579 2.802 . S
N516 C512 1.361 1_655 S
N516 Tb515 2.572 . S
N516 C518 1.340 . S
C517 C511 1.416 1_655 S
C517 C519 1.332 . S
C517 H525 0.931 . S
C518 N516 1.340 . S
C518 C519 1.407 . S
C518 H524 0.930 . S
C519 C517 1.332 . S
C519 C518 1.407 . S
C519 H521 0.929 . S
H520 C509 0.930 . S
H521 C519 0.929 . S
H522 C537 0.930 . S
H523 C544 0.929 . S
H524 C518 0.930 . S
H525 C517 0.931 . S
H526 C540 0.930 . S
H527 C507 0.930 . S
H528 C513 0.929 . S
H529 C514 0.930 . S
H530 C535 0.930 . S
H531 C510 0.930 . S
H532 C543 0.931 . S
N533 Tb504 2.617 1_655 S
N533 C534 1.379 . S
N533 C537 1.334 . S
C534 N533 1.379 . S
C534 C536 1.416 . S
C534 C542 1.424 . S
C535 H530 0.930 . S
C535 C537 1.390 . S
C535 C538 1.339 . S
C536 C534 1.416 . S
C536 C538 1.416 . S
C536 C569 1.448 . S
C537 H522 0.930 . S
C537 N533 1.334 . S
C537 C535 1.390 . S
C538 C535 1.339 . S
C538 C536 1.416 . S
C538 H545 0.930 . S
N539 Tb504 2.572 . S
N539 C540 1.340 . S
N539 C542 1.361 1_455 S
C540 H526 0.930 . S
C540 N539 1.340 . S
C540 C544 1.407 . S
C541 C542 1.413 . S
C541 C543 1.416 1_655 S
C541 C570 1.427 . S
C542 C534 1.424 . S
C542 N539 1.361 1_655 S
C542 C541 1.413 . S
C543 H532 0.931 . S
C543 C541 1.416 1_455 S
C543 C544 1.332 . S
C544 H523 0.929 . S
C544 C540 1.407 . S
C544 C543 1.332 . S
H545 C538 0.930 . S
H546 C569 0.930 . S
H547 C570 0.929 . S
O548 Tb504 2.465 . S
O548 C568 1.264 . S
O549 Tb504 2.387 1_655 S
O549 C560 1.264 . S
O550 Tb515 2.349 . S
O550 C560 1.243 . S
O551 Tb504 2.428 . S
O551 C568 1.256 . S
O552 Tb504 2.308 . S
O552 C567 1.266 . S
O553 Tb515 2.393 1_455 S
O553 C567 1.248 . S
O554 Tb515 2.465 . S
O554 C579 1.264 . S
O555 Tb515 2.387 1_455 S
O555 C571 1.264 . S
O556 Tb504 2.349 . S
O556 C571 1.243 . S
O557 Tb515 2.428 . S
O557 C579 1.256 . S
O558 Tb515 2.308 . S
O558 C578 1.266 . S
O559 Tb504 2.393 1_655 S
O559 C578 1.248 . S
C560 O549 1.264 . S
C560 O550 1.243 . S
C561 C564 1.399 . S
C561 C566 1.383 . S
C561 C568 1.496 . S
C562 C563 1.399 . S
C562 C566 1.389 . S
C563 C562 1.399 . S
C563 C565 1.380 . S
C563 H580 0.929 . S
C564 C561 1.399 . S
C564 C565 1.392 . S
C564 H581 0.929 . S
C565 C563 1.380 . S
C565 C564 1.392 . S
C565 H582 0.929 . S
C566 C561 1.383 . S
C566 C562 1.389 . S
C566 H583 0.931 . S
C567 O552 1.266 . S
C567 O553 1.248 . S
C568 Tb504 2.802 . S
C568 O548 1.264 . S
C568 O551 1.256 . S
C568 C561 1.496 . S
C569 C536 1.448 . S
C569 H546 0.930 . S
C569 C570 1.328 . S
C570 C541 1.427 . S
C570 H547 0.929 . S
C570 C569 1.328 . S
C571 O555 1.264 . S
C571 O556 1.243 . S
C572 C575 1.399 . S
C572 C576 1.383 . S
C572 C579 1.496 . S
C573 C574 1.399 . S
C573 C576 1.389 . S
C574 C573 1.399 . S
C574 C577 1.380 . S
C574 H584 0.929 . S
C575 C572 1.399 . S
C575 C577 1.392 . S
C575 H585 0.929 . S
C576 C572 1.383 . S
C576 C573 1.389 . S
C576 H586 0.931 . S
C577 C574 1.380 . S
C577 C575 1.392 . S
C577 H587 0.929 . S
C578 O558 1.266 . S
C578 O559 1.248 . S
C579 Tb515 2.802 . S
C579 O554 1.264 . S
C579 O557 1.256 . S
C579 C572 1.496 . S
H580 C563 0.929 . S
H581 C564 0.929 . S
H582 C565 0.929 . S
H583 C566 0.931 . S
H584 C574 0.929 . S
H585 C575 0.929 . S
H586 C576 0.931 . S
H587 C577 0.929 . S
Tb588 N617 2.617 1_545 S
Tb588 N623 2.572 . S
Tb588 O632 2.465 . S
Tb588 O633 2.387 1_545 S
Tb588 O635 2.428 . S
Tb588 O636 2.308 . S
Tb588 O640 2.349 . S
Tb588 O643 2.393 1_545 S
Tb588 C652 2.802 . S
C589 N590 1.379 . S
C589 C592 1.416 . S
C589 C596 1.424 . S
N590 C589 1.379 . S
N590 C593 1.334 . S
N590 Tb599 2.617 1_545 S
C591 C593 1.390 . S
C591 C594 1.339 . S
C591 H611 0.930 . S
C592 C589 1.416 . S
C592 C594 1.416 . S
C592 C598 1.448 . S
C593 N590 1.334 . S
C593 C591 1.390 . S
C593 H604 0.930 . S
C594 C591 1.339 . S
C594 C592 1.416 . S
C594 H615 0.930 . S
C595 C596 1.413 . S
C595 C597 1.427 . S
C595 C601 1.416 1_545 S
C596 C589 1.424 . S
C596 C595 1.413 . S
C596 N600 1.361 1_545 S
C597 C595 1.427 . S
C597 C598 1.328 . S
C597 H612 0.929 . S
C598 C592 1.448 . S
C598 C597 1.328 . S
C598 H613 0.930 . S
Tb599 N590 2.617 1_565 S
Tb599 N600 2.572 . S
Tb599 O634 2.349 . S
Tb599 O637 2.393 1_565 S
Tb599 O638 2.465 . S
Tb599 O639 2.387 1_565 S
Tb599 O641 2.428 . S
Tb599 O642 2.308 . S
Tb599 C663 2.802 . S
N600 C596 1.361 1_565 S
N600 Tb599 2.572 . S
N600 C602 1.340 . S
C601 C595 1.416 1_565 S
C601 C603 1.332 . S
C601 H609 0.931 . S
C602 N600 1.340 . S
C602 C603 1.407 . S
C602 H608 0.930 . S
C603 C601 1.332 . S
C603 C602 1.407 . S
C603 H605 0.929 . S
H604 C593 0.930 . S
H605 C603 0.929 . S
H606 C621 0.930 . S
H607 C628 0.929 . S
H608 C602 0.930 . S
H609 C601 0.931 . S
H610 C624 0.930 . S
H611 C591 0.930 . S
H612 C597 0.929 . S
H613 C598 0.930 . S
H614 C619 0.930 . S
H615 C594 0.930 . S
H616 C627 0.931 . S
N617 Tb588 2.617 1_565 S
N617 C618 1.379 . S
N617 C621 1.334 . S
C618 N617 1.379 . S
C618 C620 1.416 . S
C618 C626 1.424 . S
C619 H614 0.930 . S
C619 C621 1.390 . S
C619 C622 1.339 . S
C620 C618 1.416 . S
C620 C622 1.416 . S
C620 C653 1.448 . S
C621 H606 0.930 . S
C621 N617 1.334 . S
C621 C619 1.390 . S
C622 C619 1.339 . S
C622 C620 1.416 . S
C622 H629 0.930 . S
N623 Tb588 2.572 . S
N623 C624 1.340 . S
N623 C626 1.361 1_545 S
C624 H610 0.930 . S
C624 N623 1.340 . S
C624 C628 1.407 . S
C625 C626 1.413 . S
C625 C627 1.416 1_565 S
C625 C654 1.427 . S
C626 C618 1.424 . S
C626 N623 1.361 1_565 S
C626 C625 1.413 . S
C627 H616 0.931 . S
C627 C625 1.416 1_545 S
C627 C628 1.332 . S
C628 H607 0.929 . S
C628 C624 1.407 . S
C628 C627 1.332 . S
H629 C622 0.930 . S
H630 C653 0.930 . S
H631 C654 0.929 . S
O632 Tb588 2.465 . S
O632 C652 1.264 . S
O633 Tb588 2.387 1_565 S
O633 C644 1.264 . S
O634 Tb599 2.349 . S
O634 C644 1.243 . S
O635 Tb588 2.428 . S
O635 C652 1.256 . S
O636 Tb588 2.308 . S
O636 C651 1.266 . S
O637 Tb599 2.393 1_545 S
O637 C651 1.248 . S
O638 Tb599 2.465 . S
O638 C663 1.264 . S
O639 Tb599 2.387 1_545 S
O639 C655 1.264 . S
O640 Tb588 2.349 . S
O640 C655 1.243 . S
O641 Tb599 2.428 . S
O641 C663 1.256 . S
O642 Tb599 2.308 . S
O642 C662 1.266 . S
O643 Tb588 2.393 1_565 S
O643 C662 1.248 . S
C644 O633 1.264 . S
C644 O634 1.243 . S
C645 C648 1.399 . S
C645 C650 1.383 . S
C645 C652 1.496 . S
C646 C647 1.399 . S
C646 C650 1.389 . S
C647 C646 1.399 . S
C647 C649 1.380 . S
C647 H664 0.929 . S
C648 C645 1.399 . S
C648 C649 1.392 . S
C648 H665 0.929 . S
C649 C647 1.380 . S
C649 C648 1.392 . S
C649 H666 0.929 . S
C650 C645 1.383 . S
C650 C646 1.389 . S
C650 H667 0.931 . S
C651 O636 1.266 . S
C651 O637 1.248 . S
C652 Tb588 2.802 . S
C652 O632 1.264 . S
C652 O635 1.256 . S
C652 C645 1.496 . S
C653 C620 1.448 . S
C653 H630 0.930 . S
C653 C654 1.328 . S
C654 C625 1.427 . S
C654 H631 0.929 . S
C654 C653 1.328 . S
C655 O639 1.264 . S
C655 O640 1.243 . S
C656 C659 1.399 . S
C656 C660 1.383 . S
C656 C663 1.496 . S
C657 C658 1.399 . S
C657 C660 1.389 . S
C658 C657 1.399 . S
C658 C661 1.380 . S
C658 H668 0.929 . S
C659 C656 1.399 . S
C659 C661 1.392 . S
C659 H669 0.929 . S
C660 C656 1.383 . S
C660 C657 1.389 . S
C660 H670 0.931 . S
C661 C658 1.380 . S
C661 C659 1.392 . S
C661 H671 0.929 . S
C662 O642 1.266 . S
C662 O643 1.248 . S
C663 Tb599 2.802 . S
C663 O638 1.264 . S
C663 O641 1.256 . S
C663 C656 1.496 . S
H664 C647 0.929 . S
H665 C648 0.929 . S
H666 C649 0.929 . S
H667 C650 0.931 . S
H668 C658 0.929 . S
H669 C659 0.929 . S
H670 C660 0.931 . S
H671 C661 0.929 . S
Tb672 N701 2.617 . S
Tb672 N707 2.572 . S
Tb672 O716 2.465 . S
Tb672 O717 2.387 . S
Tb672 O719 2.428 . S
Tb672 O720 2.308 . S
Tb672 O724 2.349 . S
Tb672 O727 2.393 . S
Tb672 C736 2.802 . S
C673 N674 1.379 . S
C673 C676 1.416 . S
C673 C680 1.424 . S
N674 C673 1.379 . S
N674 C677 1.334 . S
N674 Tb683 2.617 . S
C675 C677 1.390 . S
C675 C678 1.339 . S
C675 H695 0.930 . S
C676 C673 1.416 . S
C676 C678 1.416 . S
C676 C682 1.448 . S
C677 N674 1.334 . S
C677 C675 1.390 . S
C677 H688 0.930 . S
C678 C675 1.339 . S
C678 C676 1.416 . S
C678 H699 0.930 . S
C679 C680 1.413 . S
C679 C681 1.427 . S
C679 C685 1.416 . S
C680 C673 1.424 . S
C680 C679 1.413 . S
C680 N684 1.361 . S
C681 C679 1.427 . S
C681 C682 1.328 . S
C681 H696 0.929 . S
C682 C676 1.448 . S
C682 C681 1.328 . S
C682 H697 0.930 . S
Tb683 N674 2.617 . S
Tb683 N684 2.572 . S
Tb683 O718 2.349 . S
Tb683 O721 2.393 . S
Tb683 O722 2.465 . S
Tb683 O723 2.387 . S
Tb683 O725 2.428 . S
Tb683 O726 2.308 . S
Tb683 C747 2.802 . S
N684 C680 1.361 . S
N684 Tb683 2.572 . S
N684 C686 1.340 . S
C685 C679 1.416 . S
C685 C687 1.332 . S
C685 H693 0.931 . S
C686 N684 1.340 . S
C686 C687 1.407 . S
C686 H692 0.930 . S
C687 C685 1.332 . S
C687 C686 1.407 . S
C687 H689 0.929 . S
H688 C677 0.930 . S
H689 C687 0.929 . S
H690 C705 0.930 . S
H691 C712 0.929 . S
H692 C686 0.930 . S
H693 C685 0.931 . S
H694 C708 0.930 . S
H695 C675 0.930 . S
H696 C681 0.929 . S
H697 C682 0.930 . S
H698 C703 0.930 . S
H699 C678 0.930 . S
H700 C711 0.931 . S
N701 Tb672 2.617 . S
N701 C702 1.379 . S
N701 C705 1.334 . S
C702 N701 1.379 . S
C702 C704 1.416 . S
C702 C710 1.424 . S
C703 H698 0.930 . S
C703 C705 1.390 . S
C703 C706 1.339 . S
C704 C702 1.416 . S
C704 C706 1.416 . S
C704 C737 1.448 . S
C705 H690 0.930 . S
C705 N701 1.334 . S
C705 C703 1.390 . S
C706 C703 1.339 . S
C706 C704 1.416 . S
C706 H713 0.930 . S
N707 Tb672 2.572 . S
N707 C708 1.340 . S
N707 C710 1.361 . S
C708 H694 0.930 . S
C708 N707 1.340 . S
C708 C712 1.407 . S
C709 C710 1.413 . S
C709 C711 1.416 . S
C709 C738 1.427 . S
C710 C702 1.424 . S
C710 N707 1.361 . S
C710 C709 1.413 . S
C711 H700 0.931 . S
C711 C709 1.416 . S
C711 C712 1.332 . S
C712 H691 0.929 . S
C712 C708 1.407 . S
C712 C711 1.332 . S
H713 C706 0.930 . S
H714 C737 0.930 . S
H715 C738 0.929 . S
O716 Tb672 2.465 . S
O716 C736 1.264 . S
O717 Tb672 2.387 . S
O717 C728 1.264 . S
O718 Tb683 2.349 . S
O718 C728 1.243 . S
O719 Tb672 2.428 . S
O719 C736 1.256 . S
O720 Tb672 2.308 . S
O720 C735 1.266 . S
O721 Tb683 2.393 . S
O721 C735 1.248 . S
O722 Tb683 2.465 . S
O722 C747 1.264 . S
O723 Tb683 2.387 . S
O723 C739 1.264 . S
O724 Tb672 2.349 . S
O724 C739 1.243 . S
O725 Tb683 2.428 . S
O725 C747 1.256 . S
O726 Tb683 2.308 . S
O726 C746 1.266 . S
O727 Tb672 2.393 . S
O727 C746 1.248 . S
C728 O717 1.264 . S
C728 O718 1.243 . S
C729 C732 1.399 . S
C729 C734 1.383 . S
C729 C736 1.496 . S
C730 C731 1.399 . S
C730 C734 1.389 . S
C731 C730 1.399 . S
C731 C733 1.380 . S
C731 H748 0.929 . S
C732 C729 1.399 . S
C732 C733 1.392 . S
C732 H749 0.929 . S
C733 C731 1.380 . S
C733 C732 1.392 . S
C733 H750 0.929 . S
C734 C729 1.383 . S
C734 C730 1.389 . S
C734 H751 0.931 . S
C735 O720 1.266 . S
C735 O721 1.248 . S
C736 Tb672 2.802 . S
C736 O716 1.264 . S
C736 O719 1.256 . S
C736 C729 1.496 . S
C737 C704 1.448 . S
C737 H714 0.930 . S
C737 C738 1.328 . S
C738 C709 1.427 . S
C738 H715 0.929 . S
C738 C737 1.328 . S
C739 O723 1.264 . S
C739 O724 1.243 . S
C740 C743 1.399 . S
C740 C744 1.383 . S
C740 C747 1.496 . S
C741 C742 1.399 . S
C741 C744 1.389 . S
C742 C741 1.399 . S
C742 C745 1.380 . S
C742 H752 0.929 . S
C743 C740 1.399 . S
C743 C745 1.392 . S
C743 H753 0.929 . S
C744 C740 1.383 . S
C744 C741 1.389 . S
C744 H754 0.931 . S
C745 C742 1.380 . S
C745 C743 1.392 . S
C745 H755 0.929 . S
C746 O726 1.266 . S
C746 O727 1.248 . S
C747 Tb683 2.802 . S
C747 O722 1.264 . S
C747 O725 1.256 . S
C747 C740 1.496 . S
H748 C731 0.929 . S
H749 C732 0.929 . S
H750 C733 0.929 . S
H751 C734 0.931 . S
H752 C742 0.929 . S
H753 C743 0.929 . S
H754 C744 0.931 . S
H755 C745 0.929 . S
Tb756 N785 2.617 1_655 S
Tb756 N791 2.572 . S
Tb756 O800 2.465 . S
Tb756 O801 2.387 1_655 S
Tb756 O803 2.428 . S
Tb756 O804 2.308 . S
Tb756 O808 2.349 . S
Tb756 O811 2.393 1_655 S
Tb756 C820 2.802 . S
C757 N758 1.379 . S
C757 C760 1.416 . S
C757 C764 1.424 . S
N758 C757 1.379 . S
N758 C761 1.334 . S
N758 Tb767 2.617 1_655 S
C759 C761 1.390 . S
C759 C762 1.339 . S
C759 H779 0.930 . S
C760 C757 1.416 . S
C760 C762 1.416 . S
C760 C766 1.448 . S
C761 N758 1.334 . S
C761 C759 1.390 . S
C761 H772 0.930 . S
C762 C759 1.339 . S
C762 C760 1.416 . S
C762 H783 0.930 . S
C763 C764 1.413 . S
C763 C765 1.427 . S
C763 C769 1.416 1_655 S
C764 C757 1.424 . S
C764 C763 1.413 . S
C764 N768 1.361 1_655 S
C765 C763 1.427 . S
C765 C766 1.328 . S
C765 H780 0.929 . S
C766 C760 1.448 . S
C766 C765 1.328 . S
C766 H781 0.930 . S
Tb767 N758 2.617 1_455 S
Tb767 N768 2.572 . S
Tb767 O802 2.349 . S
Tb767 O805 2.393 1_455 S
Tb767 O806 2.465 . S
Tb767 O807 2.387 1_455 S
Tb767 O809 2.428 . S
Tb767 O810 2.308 . S
Tb767 C831 2.802 . S
N768 C764 1.361 1_455 S
N768 Tb767 2.572 . S
N768 C770 1.340 . S
C769 C763 1.416 1_455 S
C769 C771 1.332 . S
C769 H777 0.931 . S
C770 N768 1.340 . S
C770 C771 1.407 . S
C770 H776 0.930 . S
C771 C769 1.332 . S
C771 C770 1.407 . S
C771 H773 0.929 . S
H772 C761 0.930 . S
H773 C771 0.929 . S
H774 C789 0.930 . S
H775 C796 0.929 . S
H776 C770 0.930 . S
H777 C769 0.931 . S
H778 C792 0.930 . S
H779 C759 0.930 . S
H780 C765 0.929 . S
H781 C766 0.930 . S
H782 C787 0.930 1_554 S
H783 C762 0.930 . S
H784 C795 0.931 . S
N785 Tb756 2.617 1_455 S
N785 C786 1.379 . S
N785 C789 1.334 . S
C786 N785 1.379 . S
C786 C788 1.416 . S
C786 C794 1.424 . S
C787 H782 0.930 1_556 S
C787 C789 1.390 . S
C787 C790 1.339 . S
C788 C786 1.416 . S
C788 C790 1.416 . S
C788 C821 1.448 . S
C789 H774 0.930 . S
C789 N785 1.334 . S
C789 C787 1.390 . S
C790 C787 1.339 . S
C790 C788 1.416 . S
C790 H797 0.930 . S
N791 Tb756 2.572 . S
N791 C792 1.340 . S
N791 C794 1.361 1_655 S
C792 H778 0.930 . S
C792 N791 1.340 . S
C792 C796 1.407 . S
C793 C794 1.413 . S
C793 C795 1.416 1_455 S
C793 C822 1.427 . S
C794 C786 1.424 . S
C794 N791 1.361 1_455 S
C794 C793 1.413 . S
C795 H784 0.931 . S
C795 C793 1.416 1_655 S
C795 C796 1.332 . S
C796 H775 0.929 . S
C796 C792 1.407 . S
C796 C795 1.332 . S
H797 C790 0.930 . S
H798 C821 0.930 . S
H799 C822 0.929 . S
O800 Tb756 2.465 . S
O800 C820 1.264 . S
O801 Tb756 2.387 1_455 S
O801 C812 1.264 . S
O802 Tb767 2.349 . S
O802 C812 1.243 . S
O803 Tb756 2.428 . S
O803 C820 1.256 . S
O804 Tb756 2.308 . S
O804 C819 1.266 . S
O805 Tb767 2.393 1_655 S
O805 C819 1.248 . S
O806 Tb767 2.465 . S
O806 C831 1.264 . S
O807 Tb767 2.387 1_655 S
O807 C823 1.264 . S
O808 Tb756 2.349 . S
O808 C823 1.243 . S
O809 Tb767 2.428 . S
O809 C831 1.256 . S
O810 Tb767 2.308 . S
O810 C830 1.266 . S
O811 Tb756 2.393 1_455 S
O811 C830 1.248 . S
C812 O801 1.264 . S
C812 O802 1.243 . S
C813 C816 1.399 . S
C813 C818 1.383 . S
C813 C820 1.496 1_554 S
C814 C815 1.399 . S
C814 C818 1.389 . S
C815 C814 1.399 . S
C815 C817 1.380 . S
C815 H832 0.929 . S
C816 C813 1.399 . S
C816 C817 1.392 . S
C816 H833 0.929 . S
C817 C815 1.380 . S
C817 C816 1.392 . S
C817 H834 0.929 . S
C818 C813 1.383 . S
C818 C814 1.389 . S
C818 H835 0.931 1_554 S
C819 O804 1.266 . S
C819 O805 1.248 . S
C820 Tb756 2.802 . S
C820 O800 1.264 . S
C820 O803 1.256 . S
C820 C813 1.496 1_556 S
C821 C788 1.448 . S
C821 H798 0.930 . S
C821 C822 1.328 . S
C822 C793 1.427 . S
C822 H799 0.929 . S
C822 C821 1.328 . S
C823 O807 1.264 . S
C823 O808 1.243 . S
C824 C827 1.399 . S
C824 C828 1.383 . S
C824 C831 1.496 . S
C825 C826 1.399 . S
C825 C828 1.389 . S
C826 C825 1.399 . S
C826 C829 1.380 . S
C826 H836 0.929 . S
C827 C824 1.399 . S
C827 C829 1.392 . S
C827 H837 0.929 . S
C828 C824 1.383 . S
C828 C825 1.389 . S
C828 H838 0.931 . S
C829 C826 1.380 . S
C829 C827 1.392 . S
C829 H839 0.929 . S
C830 O810 1.266 . S
C830 O811 1.248 . S
C831 Tb767 2.802 . S
C831 O806 1.264 . S
C831 O809 1.256 . S
C831 C824 1.496 . S
H832 C815 0.929 . S
H833 C816 0.929 . S
H834 C817 0.929 . S
H835 C818 0.931 1_556 S
H836 C826 0.929 . S
H837 C827 0.929 . S
H838 C828 0.931 . S
H839 C829 0.929 . S
Tb840 N869 2.617 1_565 S
Tb840 N875 2.572 . S
Tb840 O884 2.465 . S
Tb840 O885 2.387 1_565 S
Tb840 O887 2.428 . S
Tb840 O888 2.308 . S
Tb840 O892 2.349 . S
Tb840 O895 2.393 1_565 S
Tb840 C904 2.802 . S
C841 N842 1.379 . S
C841 C844 1.416 . S
C841 C848 1.424 . S
N842 C841 1.379 . S
N842 C845 1.334 . S
N842 Tb851 2.617 1_565 S
C843 C845 1.390 . S
C843 C846 1.339 . S
C843 H863 0.930 . S
C844 C841 1.416 . S
C844 C846 1.416 . S
C844 C850 1.448 . S
C845 N842 1.334 . S
C845 C843 1.390 . S
C845 H856 0.930 . S
C846 C843 1.339 . S
C846 C844 1.416 . S
C846 H867 0.930 . S
C847 C848 1.413 . S
C847 C849 1.427 . S
C847 C853 1.416 1_565 S
C848 C841 1.424 . S
C848 C847 1.413 . S
C848 N852 1.361 1_565 S
C849 C847 1.427 . S
C849 C850 1.328 . S
C849 H864 0.929 . S
C850 C844 1.448 . S
C850 C849 1.328 . S
C850 H865 0.930 . S
Tb851 N842 2.617 1_545 S
Tb851 N852 2.572 . S
Tb851 O886 2.349 . S
Tb851 O889 2.393 1_545 S
Tb851 O890 2.465 . S
Tb851 O891 2.387 1_545 S
Tb851 O893 2.428 . S
Tb851 O894 2.308 . S
Tb851 C915 2.802 . S
N852 C848 1.361 1_545 S
N852 Tb851 2.572 . S
N852 C854 1.340 . S
C853 C847 1.416 1_545 S
C853 C855 1.332 . S
C853 H861 0.931 . S
C854 N852 1.340 . S
C854 C855 1.407 . S
C854 H860 0.930 . S
C855 C853 1.332 . S
C855 C854 1.407 . S
C855 H857 0.929 . S
H856 C845 0.930 . S
H857 C855 0.929 . S
H858 C873 0.930 . S
H859 C880 0.929 . S
H860 C854 0.930 . S
H861 C853 0.931 . S
H862 C876 0.930 . S
H863 C843 0.930 . S
H864 C849 0.929 . S
H865 C850 0.930 . S
H866 C871 0.930 . S
H867 C846 0.930 . S
H868 C879 0.931 . S
N869 Tb840 2.617 1_545 S
N869 C870 1.379 . S
N869 C873 1.334 . S
C870 N869 1.379 . S
C870 C872 1.416 . S
C870 C878 1.424 . S
C871 H866 0.930 . S
C871 C873 1.390 . S
C871 C874 1.339 . S
C872 C870 1.416 . S
C872 C874 1.416 . S
C872 C905 1.448 . S
C873 H858 0.930 . S
C873 N869 1.334 . S
C873 C871 1.390 . S
C874 C871 1.339 . S
C874 C872 1.416 . S
C874 H881 0.930 . S
N875 Tb840 2.572 . S
N875 C876 1.340 . S
N875 C878 1.361 1_565 S
C876 H862 0.930 . S
C876 N875 1.340 . S
C876 C880 1.407 . S
C877 C878 1.413 . S
C877 C879 1.416 1_545 S
C877 C906 1.427 . S
C878 C870 1.424 . S
C878 N875 1.361 1_545 S
C878 C877 1.413 . S
C879 H868 0.931 . S
C879 C877 1.416 1_565 S
C879 C880 1.332 . S
C880 H859 0.929 . S
C880 C876 1.407 . S
C880 C879 1.332 . S
H881 C874 0.930 . S
H882 C905 0.930 . S
H883 C906 0.929 . S
O884 Tb840 2.465 . S
O884 C904 1.264 . S
O885 Tb840 2.387 1_545 S
O885 C896 1.264 . S
O886 Tb851 2.349 . S
O886 C896 1.243 . S
O887 Tb840 2.428 . S
O887 C904 1.256 . S
O888 Tb840 2.308 . S
O888 C903 1.266 . S
O889 Tb851 2.393 1_565 S
O889 C903 1.248 . S
O890 Tb851 2.465 . S
O890 C915 1.264 . S
O891 Tb851 2.387 1_565 S
O891 C907 1.264 . S
O892 Tb840 2.349 . S
O892 C907 1.243 . S
O893 Tb851 2.428 . S
O893 C915 1.256 . S
O894 Tb851 2.308 . S
O894 C914 1.266 . S
O895 Tb840 2.393 1_545 S
O895 C914 1.248 . S
C896 O885 1.264 . S
C896 O886 1.243 . S
C897 C900 1.399 . S
C897 C902 1.383 . S
C897 C904 1.496 . S
C898 C899 1.399 . S
C898 C902 1.389 . S
C899 C898 1.399 . S
C899 C901 1.380 . S
C899 H916 0.929 . S
C900 C897 1.399 . S
C900 C901 1.392 . S
C900 H917 0.929 . S
C901 C899 1.380 . S
C901 C900 1.392 . S
C901 H918 0.929 . S
C902 C897 1.383 . S
C902 C898 1.389 . S
C902 H919 0.931 . S
C903 O888 1.266 . S
C903 O889 1.248 . S
C904 Tb840 2.802 . S
C904 O884 1.264 . S
C904 O887 1.256 . S
C904 C897 1.496 . S
C905 C872 1.448 . S
C905 H882 0.930 . S
C905 C906 1.328 . S
C906 C877 1.427 . S
C906 H883 0.929 . S
C906 C905 1.328 . S
C907 O891 1.264 . S
C907 O892 1.243 . S
C908 C911 1.399 . S
C908 C912 1.383 . S
C908 C915 1.496 . S
C909 C910 1.399 . S
C909 C912 1.389 . S
C910 C909 1.399 . S
C910 C913 1.380 . S
C910 H920 0.929 . S
C911 C908 1.399 . S
C911 C913 1.392 . S
C911 H921 0.929 . S
C912 C908 1.383 . S
C912 C909 1.389 . S
C912 H922 0.931 . S
C913 C910 1.380 . S
C913 C911 1.392 . S
C913 H923 0.929 . S
C914 O894 1.266 . S
C914 O895 1.248 . S
C915 Tb851 2.802 . S
C915 O890 1.264 . S
C915 O893 1.256 . S
C915 C908 1.496 . S
H916 C899 0.929 . S
H917 C900 0.929 . S
H918 C901 0.929 . S
H919 C902 0.931 . S
H920 C910 0.929 . S
H921 C911 0.929 . S
H922 C912 0.931 . S
H923 C913 0.929 . S
Tb924 N953 2.617 . S
Tb924 N959 2.572 . S
Tb924 O968 2.465 . S
Tb924 O969 2.387 . S
Tb924 O971 2.428 . S
Tb924 O972 2.308 . S
Tb924 O976 2.349 . S
Tb924 O979 2.393 . S
Tb924 C988 2.802 . S
C925 N926 1.379 . S
C925 C928 1.416 . S
C925 C932 1.424 . S
N926 C925 1.379 . S
N926 C929 1.334 . S
N926 Tb935 2.617 . S
C927 C929 1.390 . S
C927 C930 1.339 . S
C927 H947 0.930 . S
C928 C925 1.416 . S
C928 C930 1.416 . S
C928 C934 1.448 . S
C929 N926 1.334 . S
C929 C927 1.390 . S
C929 H940 0.930 . S
C930 C927 1.339 . S
C930 C928 1.416 . S
C930 H951 0.930 . S
C931 C932 1.413 . S
C931 C933 1.427 . S
C931 C937 1.416 . S
C932 C925 1.424 . S
C932 C931 1.413 . S
C932 N936 1.361 . S
C933 C931 1.427 . S
C933 C934 1.328 . S
C933 H948 0.929 . S
C934 C928 1.448 . S
C934 C933 1.328 . S
C934 H949 0.930 . S
Tb935 N926 2.617 . S
Tb935 N936 2.572 . S
Tb935 O970 2.349 . S
Tb935 O973 2.393 . S
Tb935 O974 2.465 . S
Tb935 O975 2.387 . S
Tb935 O977 2.428 . S
Tb935 O978 2.308 . S
Tb935 C999 2.802 . S
N936 C932 1.361 . S
N936 Tb935 2.572 . S
N936 C938 1.340 . S
C937 C931 1.416 . S
C937 C939 1.332 . S
C937 H945 0.931 . S
C938 N936 1.340 . S
C938 C939 1.407 . S
C938 H944 0.930 . S
C939 C937 1.332 . S
C939 C938 1.407 . S
C939 H941 0.929 . S
H940 C929 0.930 . S
H941 C939 0.929 . S
H942 C957 0.930 . S
H943 C964 0.929 . S
H944 C938 0.930 . S
H945 C937 0.931 . S
H946 C960 0.930 . S
H947 C927 0.930 . S
H948 C933 0.929 . S
H949 C934 0.930 . S
H950 C955 0.930 . S
H951 C930 0.930 . S
H952 C963 0.931 . S
N953 Tb924 2.617 . S
N953 C954 1.379 . S
N953 C957 1.334 . S
C954 N953 1.379 . S
C954 C956 1.416 . S
C954 C962 1.424 . S
C955 H950 0.930 . S
C955 C957 1.390 . S
C955 C958 1.339 . S
C956 C954 1.416 . S
C956 C958 1.416 . S
C956 C989 1.448 . S
C957 H942 0.930 . S
C957 N953 1.334 . S
C957 C955 1.390 . S
C958 C955 1.339 . S
C958 C956 1.416 . S
C958 H965 0.930 . S
N959 Tb924 2.572 . S
N959 C960 1.340 . S
N959 C962 1.361 . S
C960 H946 0.930 . S
C960 N959 1.340 . S
C960 C964 1.407 . S
C961 C962 1.413 . S
C961 C963 1.416 . S
C961 C990 1.427 . S
C962 C954 1.424 . S
C962 N959 1.361 . S
C962 C961 1.413 . S
C963 H952 0.931 . S
C963 C961 1.416 . S
C963 C964 1.332 . S
C964 H943 0.929 . S
C964 C960 1.407 . S
C964 C963 1.332 . S
H965 C958 0.930 . S
H966 C989 0.930 . S
H967 C990 0.929 . S
O968 Tb924 2.465 . S
O968 C988 1.264 . S
O969 Tb924 2.387 . S
O969 C980 1.264 . S
O970 Tb935 2.349 . S
O970 C980 1.243 . S
O971 Tb924 2.428 . S
O971 C988 1.256 . S
O972 Tb924 2.308 . S
O972 C987 1.266 . S
O973 Tb935 2.393 . S
O973 C987 1.248 . S
O974 Tb935 2.465 . S
O974 C999 1.264 . S
O975 Tb935 2.387 . S
O975 C991 1.264 . S
O976 Tb924 2.349 . S
O976 C991 1.243 . S
O977 Tb935 2.428 . S
O977 C999 1.256 . S
O978 Tb935 2.308 . S
O978 C998 1.266 . S
O979 Tb924 2.393 . S
O979 C998 1.248 . S
C980 O969 1.264 . S
C980 O970 1.243 . S
C981 C984 1.399 . S
C981 C986 1.383 . S
C981 C988 1.496 . S
C982 C983 1.399 . S
C982 C986 1.389 . S
C983 C982 1.399 . S
C983 C985 1.380 . S
C983 H1000 0.929 . S
C984 C981 1.399 . S
C984 C985 1.392 . S
C984 H1001 0.929 . S
C985 C983 1.380 . S
C985 C984 1.392 . S
C985 H1002 0.929 . S
C986 C981 1.383 . S
C986 C982 1.389 . S
C986 H1003 0.931 . S
C987 O972 1.266 . S
C987 O973 1.248 . S
C988 Tb924 2.802 . S
C988 O968 1.264 . S
C988 O971 1.256 . S
C988 C981 1.496 . S
C989 C956 1.448 . S
C989 H966 0.930 . S
C989 C990 1.328 . S
C990 C961 1.427 . S
C990 H967 0.929 . S
C990 C989 1.328 . S
C991 O975 1.264 . S
C991 O976 1.243 . S
C992 C995 1.399 . S
C992 C996 1.383 . S
C992 C999 1.496 . S
C993 C994 1.399 . S
C993 C996 1.389 . S
C994 C993 1.399 . S
C994 C997 1.380 . S
C994 H1004 0.929 . S
C995 C992 1.399 . S
C995 C997 1.392 . S
C995 H1005 0.929 . S
C996 C992 1.383 . S
C996 C993 1.389 . S
C996 H1006 0.931 . S
C997 C994 1.380 . S
C997 C995 1.392 . S
C997 H1007 0.929 . S
C998 O978 1.266 . S
C998 O979 1.248 . S
C999 Tb935 2.802 . S
C999 O974 1.264 . S
C999 O977 1.256 . S
C999 C992 1.496 . S
H1000 C983 0.929 . S
H1001 C984 0.929 . S
H1002 C985 0.929 . S
H1003 C986 0.931 . S
H1004 C994 0.929 . S
H1005 C995 0.929 . S
H1006 C996 0.931 . S
H1007 C997 0.929 . S
C1008 C1009 1.349 . S
C1008 C1010 1.327 . S
C1008 H1033 0.950 . S
C1009 C1008 1.349 . S
C1009 C1025 1.349 . S
C1010 C1008 1.327 . S
C1010 C1029 1.429 . S
C1010 H1034 0.950 . S
C1011 C1028 1.574 . S
C1011 C1030 1.368 . S
C1011 H1035 0.949 . S
H1012 C1016 0.949 . S
C1013 C1014 1.349 . S
C1013 C1015 1.327 . S
C1013 H1036 0.950 . S
C1014 C1013 1.349 . S
C1014 C1026 1.349 . S
C1015 C1013 1.327 . S
C1015 C1031 1.429 . S
C1015 H1037 0.950 . S
C1016 H1012 0.949 . S
C1016 C1024 1.574 . S
C1016 C1032 1.368 . S
H1017 C1025 0.950 . S
H1018 C1023 0.950 . S
H1019 C1024 0.949 . S
H1020 C1026 0.950 . S
H1021 C1027 0.950 . S
H1022 C1028 0.949 . S
C1023 H1018 0.950 . S
C1023 C1025 1.327 . S
C1023 C1029 1.429 . S
C1024 C1016 1.574 . S
C1024 H1019 0.949 . S
C1024 C1030 1.368 . S
C1025 C1009 1.349 . S
C1025 H1017 0.950 . S
C1025 C1023 1.327 . S
C1026 C1014 1.349 . S
C1026 H1020 0.950 . S
C1026 C1027 1.327 . S
C1027 H1021 0.950 . S
C1027 C1026 1.327 . S
C1027 C1031 1.429 . S
C1028 C1011 1.574 . S
C1028 H1022 0.949 . S
C1028 C1032 1.368 . S
C1029 C1010 1.429 . S
C1029 C1023 1.429 . S
C1029 C1030 1.523 . S
C1030 C1011 1.368 . S
C1030 C1024 1.368 . S
C1030 C1029 1.523 . S
C1031 C1015 1.429 . S
C1031 C1027 1.429 . S
C1031 C1032 1.523 . S
C1032 C1016 1.368 . S
C1032 C1028 1.368 . S
C1032 C1031 1.523 . S
H1033 C1008 0.950 . S
H1034 C1010 0.950 . S
H1035 C1011 0.949 . S
H1036 C1013 0.950 . S
H1037 C1015 0.950 . S
C1038 C1039 1.349 . S
C1038 C1040 1.327 . S
C1038 H1063 0.950 . S
C1039 C1038 1.349 . S
C1039 C1055 1.349 . S
C1040 C1038 1.327 . S
C1040 C1059 1.429 . S
C1040 H1064 0.950 . S
C1041 C1058 1.574 . S
C1041 C1060 1.368 . S
C1041 H1065 0.949 . S
H1042 C1046 0.949 . S
C1043 C1044 1.349 . S
C1043 C1045 1.327 . S
C1043 H1066 0.950 . S
C1044 C1043 1.349 . S
C1044 C1056 1.349 . S
C1045 C1043 1.327 . S
C1045 C1061 1.429 . S
C1045 H1067 0.950 . S
C1046 H1042 0.949 . S
C1046 C1054 1.574 . S
C1046 C1062 1.368 . S
H1047 C1055 0.950 . S
H1048 C1053 0.950 . S
H1049 C1054 0.949 . S
H1050 C1056 0.950 . S
H1051 C1057 0.950 . S
H1052 C1058 0.949 . S
C1053 H1048 0.950 . S
C1053 C1055 1.327 . S
C1053 C1059 1.429 . S
C1054 C1046 1.574 . S
C1054 H1049 0.949 . S
C1054 C1060 1.368 . S
C1055 C1039 1.349 . S
C1055 H1047 0.950 . S
C1055 C1053 1.327 . S
C1056 C1044 1.349 . S
C1056 H1050 0.950 . S
C1056 C1057 1.327 . S
C1057 H1051 0.950 . S
C1057 C1056 1.327 . S
C1057 C1061 1.429 . S
C1058 C1041 1.574 . S
C1058 H1052 0.949 . S
C1058 C1062 1.368 . S
C1059 C1040 1.429 . S
C1059 C1053 1.429 . S
C1059 C1060 1.523 . S
C1060 C1041 1.368 . S
C1060 C1054 1.368 . S
C1060 C1059 1.523 . S
C1061 C1045 1.429 . S
C1061 C1057 1.429 . S
C1061 C1062 1.523 . S
C1062 C1046 1.368 . S
C1062 C1058 1.368 . S
C1062 C1061 1.523 . S
H1063 C1038 0.950 . S
H1064 C1040 0.950 . S
H1065 C1041 0.949 . S
H1066 C1043 0.950 . S
H1067 C1045 0.950 . S
C1068 C1069 1.349 . S
C1068 C1070 1.327 . S
C1068 H1093 0.950 . S
C1069 C1068 1.349 . S
C1069 C1085 1.349 . S
C1070 C1068 1.327 . S
C1070 C1089 1.429 . S
C1070 H1094 0.950 . S
C1071 C1088 1.574 . S
C1071 C1090 1.368 . S
C1071 H1095 0.949 . S
H1072 C1076 0.949 . S
C1073 C1074 1.349 . S
C1073 C1075 1.327 . S
C1073 H1096 0.950 . S
C1074 C1073 1.349 . S
C1074 C1086 1.349 . S
C1075 C1073 1.327 . S
C1075 C1091 1.429 . S
C1075 H1097 0.950 . S
C1076 H1072 0.949 . S
C1076 C1084 1.574 . S
C1076 C1092 1.368 . S
H1077 C1085 0.950 . S
H1078 C1083 0.950 . S
H1079 C1084 0.949 . S
H1080 C1086 0.950 . S
H1081 C1087 0.950 . S
H1082 C1088 0.949 . S
C1083 H1078 0.950 . S
C1083 C1085 1.327 . S
C1083 C1089 1.429 . S
C1084 C1076 1.574 . S
C1084 H1079 0.949 . S
C1084 C1090 1.368 . S
C1085 C1069 1.349 . S
C1085 H1077 0.950 . S
C1085 C1083 1.327 . S
C1086 C1074 1.349 . S
C1086 H1080 0.950 . S
C1086 C1087 1.327 . S
C1087 H1081 0.950 . S
C1087 C1086 1.327 . S
C1087 C1091 1.429 . S
C1088 C1071 1.574 . S
C1088 H1082 0.949 . S
C1088 C1092 1.368 . S
C1089 C1070 1.429 . S
C1089 C1083 1.429 . S
C1089 C1090 1.523 . S
C1090 C1071 1.368 . S
C1090 C1084 1.368 . S
C1090 C1089 1.523 . S
C1091 C1075 1.429 . S
C1091 C1087 1.429 . S
C1091 C1092 1.523 . S
C1092 C1076 1.368 . S
C1092 C1088 1.368 . S
C1092 C1091 1.523 . S
H1093 C1068 0.950 . S
H1094 C1070 0.950 . S
H1095 C1071 0.949 . S
H1096 C1073 0.950 . S
H1097 C1075 0.950 . S
C1098 C1099 1.349 . S
C1098 C1100 1.327 . S
C1098 H1123 0.950 . S
C1099 C1098 1.349 . S
C1099 C1115 1.349 . S
C1100 C1098 1.327 . S
C1100 C1119 1.429 . S
C1100 H1124 0.950 . S
C1101 C1118 1.574 . S
C1101 C1120 1.368 . S
C1101 H1125 0.949 . S
H1102 C1106 0.949 . S
C1103 C1104 1.349 . S
C1103 C1105 1.327 . S
C1103 H1126 0.950 . S
C1104 C1103 1.349 . S
C1104 C1116 1.349 . S
C1105 C1103 1.327 . S
C1105 C1121 1.429 . S
C1105 H1127 0.950 . S
C1106 H1102 0.949 . S
C1106 C1114 1.574 . S
C1106 C1122 1.368 . S
H1107 C1115 0.950 . S
H1108 C1113 0.950 . S
H1109 C1114 0.949 . S
H1110 C1116 0.950 . S
H1111 C1117 0.950 . S
H1112 C1118 0.949 . S
C1113 H1108 0.950 . S
C1113 C1115 1.327 . S
C1113 C1119 1.429 . S
C1114 C1106 1.574 . S
C1114 H1109 0.949 . S
C1114 C1120 1.368 . S
C1115 C1099 1.349 . S
C1115 H1107 0.950 . S
C1115 C1113 1.327 . S
C1116 C1104 1.349 . S
C1116 H1110 0.950 . S
C1116 C1117 1.327 . S
C1117 H1111 0.950 . S
C1117 C1116 1.327 . S
C1117 C1121 1.429 . S
C1118 C1101 1.574 . S
C1118 H1112 0.949 . S
C1118 C1122 1.368 . S
C1119 C1100 1.429 . S
C1119 C1113 1.429 . S
C1119 C1120 1.523 . S
C1120 C1101 1.368 . S
C1120 C1114 1.368 . S
C1120 C1119 1.523 . S
C1121 C1105 1.429 . S
C1121 C1117 1.429 . S
C1121 C1122 1.523 . S
C1122 C1106 1.368 . S
C1122 C1118 1.368 . S
C1122 C1121 1.523 . S
H1123 C1098 0.950 . S
H1124 C1100 0.950 . S
H1125 C1101 0.949 . S
H1126 C1103 0.950 . S
H1127 C1105 0.950 . S
C1128 C1129 1.349 . S
C1128 C1130 1.327 . S
C1128 H1153 0.950 . S
C1129 C1128 1.349 . S
C1129 C1145 1.349 . S
C1130 C1128 1.327 . S
C1130 C1149 1.429 . S
C1130 H1154 0.950 . S
C1131 C1148 1.574 . S
C1131 C1150 1.368 . S
C1131 H1155 0.949 . S
H1132 C1136 0.949 . S
C1133 C1134 1.349 . S
C1133 C1135 1.327 . S
C1133 H1156 0.950 . S
C1134 C1133 1.349 . S
C1134 C1146 1.349 . S
C1135 C1133 1.327 . S
C1135 C1151 1.429 . S
C1135 H1157 0.950 . S
C1136 H1132 0.949 . S
C1136 C1144 1.574 . S
C1136 C1152 1.368 . S
H1137 C1145 0.950 . S
H1138 C1143 0.950 . S
H1139 C1144 0.949 . S
H1140 C1146 0.950 . S
H1141 C1147 0.950 . S
H1142 C1148 0.949 . S
C1143 H1138 0.950 . S
C1143 C1145 1.327 . S
C1143 C1149 1.429 . S
C1144 C1136 1.574 . S
C1144 H1139 0.949 . S
C1144 C1150 1.368 . S
C1145 C1129 1.349 . S
C1145 H1137 0.950 . S
C1145 C1143 1.327 . S
C1146 C1134 1.349 . S
C1146 H1140 0.950 . S
C1146 C1147 1.327 . S
C1147 H1141 0.950 . S
C1147 C1146 1.327 . S
C1147 C1151 1.429 . S
C1148 C1131 1.574 . S
C1148 H1142 0.949 . S
C1148 C1152 1.368 . S
C1149 C1130 1.429 . S
C1149 C1143 1.429 . S
C1149 C1150 1.523 . S
C1150 C1131 1.368 . S
C1150 C1144 1.368 . S
C1150 C1149 1.523 . S
C1151 C1135 1.429 . S
C1151 C1147 1.429 . S
C1151 C1152 1.523 . S
C1152 C1136 1.368 . S
C1152 C1148 1.368 . S
C1152 C1151 1.523 . S
H1153 C1128 0.950 . S
H1154 C1130 0.950 . S
H1155 C1131 0.949 . S
H1156 C1133 0.950 . S
H1157 C1135 0.950 . S
C1158 C1159 1.349 . S
C1158 C1160 1.327 . S
C1158 H1183 0.950 . S
C1159 C1158 1.349 . S
C1159 C1175 1.349 . S
C1160 C1158 1.327 . S
C1160 C1179 1.429 . S
C1160 H1184 0.950 . S
C1161 C1178 1.574 . S
C1161 C1180 1.368 . S
C1161 H1185 0.949 . S
H1162 C1166 0.949 . S
C1163 C1164 1.349 . S
C1163 C1165 1.327 . S
C1163 H1186 0.950 . S
C1164 C1163 1.349 . S
C1164 C1176 1.349 . S
C1165 C1163 1.327 . S
C1165 C1181 1.429 . S
C1165 H1187 0.950 . S
C1166 H1162 0.949 . S
C1166 C1174 1.574 . S
C1166 C1182 1.368 . S
H1167 C1175 0.950 . S
H1168 C1173 0.950 . S
H1169 C1174 0.949 . S
H1170 C1176 0.950 . S
H1171 C1177 0.950 . S
H1172 C1178 0.949 . S
C1173 H1168 0.950 . S
C1173 C1175 1.327 . S
C1173 C1179 1.429 . S
C1174 C1166 1.574 . S
C1174 H1169 0.949 . S
C1174 C1180 1.368 . S
C1175 C1159 1.349 . S
C1175 H1167 0.950 . S
C1175 C1173 1.327 . S
C1176 C1164 1.349 . S
C1176 H1170 0.950 . S
C1176 C1177 1.327 . S
C1177 H1171 0.950 . S
C1177 C1176 1.327 . S
C1177 C1181 1.429 . S
C1178 C1161 1.574 . S
C1178 H1172 0.949 . S
C1178 C1182 1.368 . S
C1179 C1160 1.429 . S
C1179 C1173 1.429 . S
C1179 C1180 1.523 . S
C1180 C1161 1.368 . S
C1180 C1174 1.368 . S
C1180 C1179 1.523 . S
C1181 C1165 1.429 . S
C1181 C1177 1.429 . S
C1181 C1182 1.523 . S
C1182 C1166 1.368 . S
C1182 C1178 1.368 . S
C1182 C1181 1.523 . S
H1183 C1158 0.950 . S
H1184 C1160 0.950 . S
H1185 C1161 0.949 . S
H1186 C1163 0.950 . S
H1187 C1165 0.950 . S
C1188 C1189 1.349 . S
C1188 C1190 1.327 . S
C1188 H1213 0.950 . S
C1189 C1188 1.349 . S
C1189 C1205 1.349 . S
C1190 C1188 1.327 . S
C1190 C1209 1.429 . S
C1190 H1214 0.950 . S
C1191 C1208 1.574 . S
C1191 C1210 1.368 . S
C1191 H1215 0.949 . S
H1192 C1196 0.949 . S
C1193 C1194 1.349 . S
C1193 C1195 1.327 . S
C1193 H1216 0.950 . S
C1194 C1193 1.349 . S
C1194 C1206 1.349 . S
C1195 C1193 1.327 . S
C1195 C1211 1.429 . S
C1195 H1217 0.950 . S
C1196 H1192 0.949 . S
C1196 C1204 1.574 . S
C1196 C1212 1.368 . S
H1197 C1205 0.950 . S
H1198 C1203 0.950 . S
H1199 C1204 0.949 . S
H1200 C1206 0.950 . S
H1201 C1207 0.950 . S
H1202 C1208 0.949 . S
C1203 H1198 0.950 . S
C1203 C1205 1.327 . S
C1203 C1209 1.429 . S
C1204 C1196 1.574 . S
C1204 H1199 0.949 . S
C1204 C1210 1.368 . S
C1205 C1189 1.349 . S
C1205 H1197 0.950 . S
C1205 C1203 1.327 . S
C1206 C1194 1.349 . S
C1206 H1200 0.950 . S
C1206 C1207 1.327 . S
C1207 H1201 0.950 . S
C1207 C1206 1.327 . S
C1207 C1211 1.429 . S
C1208 C1191 1.574 . S
C1208 H1202 0.949 . S
C1208 C1212 1.368 . S
C1209 C1190 1.429 . S
C1209 C1203 1.429 . S
C1209 C1210 1.523 . S
C1210 C1191 1.368 . S
C1210 C1204 1.368 . S
C1210 C1209 1.523 . S
C1211 C1195 1.429 . S
C1211 C1207 1.429 . S
C1211 C1212 1.523 . S
C1212 C1196 1.368 . S
C1212 C1208 1.368 . S
C1212 C1211 1.523 . S
H1213 C1188 0.950 . S
H1214 C1190 0.950 . S
H1215 C1191 0.949 . S
H1216 C1193 0.950 . S
H1217 C1195 0.950 . S
C1218 C1219 1.349 . S
C1218 C1220 1.327 . S
C1218 H1243 0.950 . S
C1219 C1218 1.349 . S
C1219 C1235 1.349 . S
C1220 C1218 1.327 . S
C1220 C1239 1.429 . S
C1220 H1244 0.950 . S
C1221 C1238 1.574 . S
C1221 C1240 1.368 . S
C1221 H1245 0.949 . S
H1222 C1226 0.949 . S
C1223 C1224 1.349 . S
C1223 C1225 1.327 . S
C1223 H1246 0.950 . S
C1224 C1223 1.349 . S
C1224 C1236 1.349 . S
C1225 C1223 1.327 . S
C1225 C1241 1.429 . S
C1225 H1247 0.950 . S
C1226 H1222 0.949 . S
C1226 C1234 1.574 . S
C1226 C1242 1.368 . S
H1227 C1235 0.950 . S
H1228 C1233 0.950 . S
H1229 C1234 0.949 . S
H1230 C1236 0.950 . S
H1231 C1237 0.950 . S
H1232 C1238 0.949 . S
C1233 H1228 0.950 . S
C1233 C1235 1.327 . S
C1233 C1239 1.429 . S
C1234 C1226 1.574 . S
C1234 H1229 0.949 . S
C1234 C1240 1.368 . S
C1235 C1219 1.349 . S
C1235 H1227 0.950 . S
C1235 C1233 1.327 . S
C1236 C1224 1.349 . S
C1236 H1230 0.950 . S
C1236 C1237 1.327 . S
C1237 H1231 0.950 . S
C1237 C1236 1.327 . S
C1237 C1241 1.429 . S
C1238 C1221 1.574 . S
C1238 H1232 0.949 . S
C1238 C1242 1.368 . S
C1239 C1220 1.429 . S
C1239 C1233 1.429 . S
C1239 C1240 1.523 . S
C1240 C1221 1.368 . S
C1240 C1234 1.368 . S
C1240 C1239 1.523 . S
C1241 C1225 1.429 . S
C1241 C1237 1.429 . S
C1241 C1242 1.523 . S
C1242 C1226 1.368 . S
C1242 C1238 1.368 . S
C1242 C1241 1.523 . S
H1243 C1218 0.950 . S
H1244 C1220 0.950 . S
H1245 C1221 0.949 . S
H1246 C1223 0.950 . S
H1247 C1225 0.950 . S
C1248 C1249 1.349 . S
C1248 C1250 1.327 . S
C1248 H1273 0.950 . S
C1249 C1248 1.349 . S
C1249 C1265 1.349 . S
C1250 C1248 1.327 . S
C1250 C1269 1.429 . S
C1250 H1274 0.950 . S
C1251 C1268 1.574 . S
C1251 C1270 1.368 . S
C1251 H1275 0.949 . S
H1252 C1256 0.949 . S
C1253 C1254 1.349 . S
C1253 C1255 1.327 . S
C1253 H1276 0.950 . S
C1254 C1253 1.349 . S
C1254 C1266 1.349 . S
C1255 C1253 1.327 . S
C1255 C1271 1.429 . S
C1255 H1277 0.950 . S
C1256 H1252 0.949 . S
C1256 C1264 1.574 . S
C1256 C1272 1.368 . S
H1257 C1265 0.950 . S
H1258 C1263 0.950 . S
H1259 C1264 0.949 . S
H1260 C1266 0.950 . S
H1261 C1267 0.950 . S
H1262 C1268 0.949 . S
C1263 H1258 0.950 . S
C1263 C1265 1.327 . S
C1263 C1269 1.429 . S
C1264 C1256 1.574 . S
C1264 H1259 0.949 . S
C1264 C1270 1.368 . S
C1265 C1249 1.349 . S
C1265 H1257 0.950 . S
C1265 C1263 1.327 . S
C1266 C1254 1.349 . S
C1266 H1260 0.950 . S
C1266 C1267 1.327 . S
C1267 H1261 0.950 . S
C1267 C1266 1.327 . S
C1267 C1271 1.429 . S
C1268 C1251 1.574 . S
C1268 H1262 0.949 . S
C1268 C1272 1.368 . S
C1269 C1250 1.429 . S
C1269 C1263 1.429 . S
C1269 C1270 1.523 . S
C1270 C1251 1.368 . S
C1270 C1264 1.368 . S
C1270 C1269 1.523 . S
C1271 C1255 1.429 . S
C1271 C1267 1.429 . S
C1271 C1272 1.523 . S
C1272 C1256 1.368 . S
C1272 C1268 1.368 . S
C1272 C1271 1.523 . S
H1273 C1248 0.950 . S
H1274 C1250 0.950 . S
H1275 C1251 0.949 . S
H1276 C1253 0.950 . S
H1277 C1255 0.950 . S
C1278 C1279 1.349 . S
C1278 C1280 1.327 . S
C1278 H1303 0.950 . S
C1279 C1278 1.349 . S
C1279 C1295 1.349 . S
C1280 C1278 1.327 . S
C1280 C1299 1.429 . S
C1280 H1304 0.950 . S
C1281 C1298 1.574 . S
C1281 C1300 1.368 . S
C1281 H1305 0.949 . S
H1282 C1286 0.949 . S
C1283 C1284 1.349 . S
C1283 C1285 1.327 . S
C1283 H1306 0.950 . S
C1284 C1283 1.349 . S
C1284 C1296 1.349 . S
C1285 C1283 1.327 . S
C1285 C1301 1.429 . S
C1285 H1307 0.950 . S
C1286 H1282 0.949 . S
C1286 C1294 1.574 . S
C1286 C1302 1.368 . S
H1287 C1295 0.950 . S
H1288 C1293 0.950 . S
H1289 C1294 0.949 . S
H1290 C1296 0.950 . S
H1291 C1297 0.950 . S
H1292 C1298 0.949 . S
C1293 H1288 0.950 . S
C1293 C1295 1.327 . S
C1293 C1299 1.429 . S
C1294 C1286 1.574 . S
C1294 H1289 0.949 . S
C1294 C1300 1.368 . S
C1295 C1279 1.349 . S
C1295 H1287 0.950 . S
C1295 C1293 1.327 . S
C1296 C1284 1.349 . S
C1296 H1290 0.950 . S
C1296 C1297 1.327 . S
C1297 H1291 0.950 . S
C1297 C1296 1.327 . S
C1297 C1301 1.429 . S
C1298 C1281 1.574 . S
C1298 H1292 0.949 . S
C1298 C1302 1.368 . S
C1299 C1280 1.429 . S
C1299 C1293 1.429 . S
C1299 C1300 1.523 . S
C1300 C1281 1.368 . S
C1300 C1294 1.368 . S
C1300 C1299 1.523 . S
C1301 C1285 1.429 . S
C1301 C1297 1.429 . S
C1301 C1302 1.523 . S
C1302 C1286 1.368 . S
C1302 C1298 1.368 . S
C1302 C1301 1.523 . S
H1303 C1278 0.950 . S
H1304 C1280 0.950 . S
H1305 C1281 0.949 . S
H1306 C1283 0.950 . S
H1307 C1285 0.950 . S
C1308 C1309 1.349 . S
C1308 C1310 1.327 . S
C1308 H1333 0.950 . S
C1309 C1308 1.349 . S
C1309 C1325 1.349 . S
C1310 C1308 1.327 . S
C1310 C1329 1.429 . S
C1310 H1334 0.950 . S
C1311 C1328 1.574 . S
C1311 C1330 1.368 . S
C1311 H1335 0.949 . S
H1312 C1316 0.949 . S
C1313 C1314 1.349 . S
C1313 C1315 1.327 . S
C1313 H1336 0.950 . S
C1314 C1313 1.349 . S
C1314 C1326 1.349 . S
C1315 C1313 1.327 . S
C1315 C1331 1.429 . S
C1315 H1337 0.950 . S
C1316 H1312 0.949 . S
C1316 C1324 1.574 . S
C1316 C1332 1.368 . S
H1317 C1325 0.950 . S
H1318 C1323 0.950 . S
H1319 C1324 0.949 . S
H1320 C1326 0.950 . S
H1321 C1327 0.950 . S
H1322 C1328 0.949 . S
C1323 H1318 0.950 . S
C1323 C1325 1.327 . S
C1323 C1329 1.429 . S
C1324 C1316 1.574 . S
C1324 H1319 0.949 . S
C1324 C1330 1.368 . S
C1325 C1309 1.349 . S
C1325 H1317 0.950 . S
C1325 C1323 1.327 . S
C1326 C1314 1.349 . S
C1326 H1320 0.950 . S
C1326 C1327 1.327 . S
C1327 H1321 0.950 . S
C1327 C1326 1.327 . S
C1327 C1331 1.429 . S
C1328 C1311 1.574 . S
C1328 H1322 0.949 . S
C1328 C1332 1.368 . S
C1329 C1310 1.429 . S
C1329 C1323 1.429 . S
C1329 C1330 1.523 . S
C1330 C1311 1.368 . S
C1330 C1324 1.368 . S
C1330 C1329 1.523 . S
C1331 C1315 1.429 . S
C1331 C1327 1.429 . S
C1331 C1332 1.523 . S
C1332 C1316 1.368 . S
C1332 C1328 1.368 . S
C1332 C1331 1.523 . S
H1333 C1308 0.950 . S
H1334 C1310 0.950 . S
H1335 C1311 0.949 . S
H1336 C1313 0.950 . S
H1337 C1315 0.950 . S
C1338 C1339 1.349 . S
C1338 C1340 1.327 . S
C1338 H1363 0.950 . S
C1339 C1338 1.349 . S
C1339 C1355 1.349 . S
C1340 C1338 1.327 . S
C1340 C1359 1.429 . S
C1340 H1364 0.950 . S
C1341 C1358 1.574 . S
C1341 C1360 1.368 . S
C1341 H1365 0.949 . S
H1342 C1346 0.949 . S
C1343 C1344 1.349 . S
C1343 C1345 1.327 . S
C1343 H1366 0.950 . S
C1344 C1343 1.349 . S
C1344 C1356 1.349 . S
C1345 C1343 1.327 . S
C1345 C1361 1.429 . S
C1345 H1367 0.950 . S
C1346 H1342 0.949 . S
C1346 C1354 1.574 . S
C1346 C1362 1.368 . S
H1347 C1355 0.950 . S
H1348 C1353 0.950 . S
H1349 C1354 0.949 . S
H1350 C1356 0.950 . S
H1351 C1357 0.950 . S
H1352 C1358 0.949 . S
C1353 H1348 0.950 . S
C1353 C1355 1.327 . S
C1353 C1359 1.429 . S
C1354 C1346 1.574 . S
C1354 H1349 0.949 . S
C1354 C1360 1.368 . S
C1355 C1339 1.349 . S
C1355 H1347 0.950 . S
C1355 C1353 1.327 . S
C1356 C1344 1.349 . S
C1356 H1350 0.950 . S
C1356 C1357 1.327 . S
C1357 H1351 0.950 . S
C1357 C1356 1.327 . S
C1357 C1361 1.429 . S
C1358 C1341 1.574 . S
C1358 H1352 0.949 . S
C1358 C1362 1.368 . S
C1359 C1340 1.429 . S
C1359 C1353 1.429 . S
C1359 C1360 1.523 . S
C1360 C1341 1.368 . S
C1360 C1354 1.368 . S
C1360 C1359 1.523 . S
C1361 C1345 1.429 . S
C1361 C1357 1.429 . S
C1361 C1362 1.523 . S
C1362 C1346 1.368 . S
C1362 C1358 1.368 . S
C1362 C1361 1.523 . S
H1363 C1338 0.950 . S
H1364 C1340 0.950 . S
H1365 C1341 0.949 . S
H1366 C1343 0.950 . S
H1367 C1345 0.950 . S
C1368 C1369 1.349 . S
C1368 C1370 1.327 . S
C1368 H1393 0.950 . S
C1369 C1368 1.349 . S
C1369 C1385 1.349 . S
C1370 C1368 1.327 . S
C1370 C1389 1.429 . S
C1370 H1394 0.950 . S
C1371 C1388 1.574 . S
C1371 C1390 1.368 . S
C1371 H1395 0.949 . S
H1372 C1376 0.949 . S
C1373 C1374 1.349 . S
C1373 C1375 1.327 . S
C1373 H1396 0.950 . S
C1374 C1373 1.349 . S
C1374 C1386 1.349 . S
C1375 C1373 1.327 . S
C1375 C1391 1.429 . S
C1375 H1397 0.950 . S
C1376 H1372 0.949 . S
C1376 C1384 1.574 . S
C1376 C1392 1.368 . S
H1377 C1385 0.950 . S
H1378 C1383 0.950 . S
H1379 C1384 0.949 . S
H1380 C1386 0.950 . S
H1381 C1387 0.950 . S
H1382 C1388 0.949 . S
C1383 H1378 0.950 . S
C1383 C1385 1.327 . S
C1383 C1389 1.429 . S
C1384 C1376 1.574 . S
C1384 H1379 0.949 . S
C1384 C1390 1.368 . S
C1385 C1369 1.349 . S
C1385 H1377 0.950 . S
C1385 C1383 1.327 . S
C1386 C1374 1.349 . S
C1386 H1380 0.950 . S
C1386 C1387 1.327 . S
C1387 H1381 0.950 . S
C1387 C1386 1.327 . S
C1387 C1391 1.429 . S
C1388 C1371 1.574 . S
C1388 H1382 0.949 . S
C1388 C1392 1.368 . S
C1389 C1370 1.429 . S
C1389 C1383 1.429 . S
C1389 C1390 1.523 . S
C1390 C1371 1.368 . S
C1390 C1384 1.368 . S
C1390 C1389 1.523 . S
C1391 C1375 1.429 . S
C1391 C1387 1.429 . S
C1391 C1392 1.523 . S
C1392 C1376 1.368 . S
C1392 C1388 1.368 . S
C1392 C1391 1.523 . S
H1393 C1368 0.950 . S
H1394 C1370 0.950 . S
H1395 C1371 0.949 . S
H1396 C1373 0.950 . S
H1397 C1375 0.950 . S
C1398 C1399 1.349 . S
C1398 C1400 1.327 . S
C1398 H1423 0.950 . S
C1399 C1398 1.349 . S
C1399 C1415 1.349 . S
C1400 C1398 1.327 . S
C1400 C1419 1.429 . S
C1400 H1424 0.950 . S
C1401 C1418 1.574 . S
C1401 C1420 1.368 . S
C1401 H1425 0.949 . S
H1402 C1406 0.949 . S
C1403 C1404 1.349 . S
C1403 C1405 1.327 . S
C1403 H1426 0.950 . S
C1404 C1403 1.349 . S
C1404 C1416 1.349 . S
C1405 C1403 1.327 . S
C1405 C1421 1.429 . S
C1405 H1427 0.950 . S
C1406 H1402 0.949 . S
C1406 C1414 1.574 . S
C1406 C1422 1.368 . S
H1407 C1415 0.950 . S
H1408 C1413 0.950 . S
H1409 C1414 0.949 . S
H1410 C1416 0.950 . S
H1411 C1417 0.950 . S
H1412 C1418 0.949 . S
C1413 H1408 0.950 . S
C1413 C1415 1.327 . S
C1413 C1419 1.429 . S
C1414 C1406 1.574 . S
C1414 H1409 0.949 . S
C1414 C1420 1.368 . S
C1415 C1399 1.349 . S
C1415 H1407 0.950 . S
C1415 C1413 1.327 . S
C1416 C1404 1.349 . S
C1416 H1410 0.950 . S
C1416 C1417 1.327 . S
C1417 H1411 0.950 . S
C1417 C1416 1.327 . S
C1417 C1421 1.429 . S
C1418 C1401 1.574 . S
C1418 H1412 0.949 . S
C1418 C1422 1.368 . S
C1419 C1400 1.429 . S
C1419 C1413 1.429 . S
C1419 C1420 1.523 . S
C1420 C1401 1.368 . S
C1420 C1414 1.368 . S
C1420 C1419 1.523 . S
C1421 C1405 1.429 . S
C1421 C1417 1.429 . S
C1421 C1422 1.523 . S
C1422 C1406 1.368 . S
C1422 C1418 1.368 . S
C1422 C1421 1.523 . S
H1423 C1398 0.950 . S
H1424 C1400 0.950 . S
H1425 C1401 0.949 . S
H1426 C1403 0.950 . S
H1427 C1405 0.950 . S
C1428 C1429 1.349 . S
C1428 C1430 1.327 . S
C1428 H1453 0.950 . S
C1429 C1428 1.349 . S
C1429 C1445 1.349 . S
C1430 C1428 1.327 . S
C1430 C1449 1.429 . S
C1430 H1454 0.950 . S
C1431 C1448 1.574 . S
C1431 C1450 1.368 . S
C1431 H1455 0.949 . S
H1432 C1436 0.949 . S
C1433 C1434 1.349 . S
C1433 C1435 1.327 . S
C1433 H1456 0.950 . S
C1434 C1433 1.349 . S
C1434 C1446 1.349 . S
C1435 C1433 1.327 . S
C1435 C1451 1.429 . S
C1435 H1457 0.950 . S
C1436 H1432 0.949 . S
C1436 C1444 1.574 . S
C1436 C1452 1.368 . S
H1437 C1445 0.950 . S
H1438 C1443 0.950 . S
H1439 C1444 0.949 . S
H1440 C1446 0.950 . S
H1441 C1447 0.950 . S
H1442 C1448 0.949 . S
C1443 H1438 0.950 . S
C1443 C1445 1.327 . S
C1443 C1449 1.429 . S
C1444 C1436 1.574 . S
C1444 H1439 0.949 . S
C1444 C1450 1.368 . S
C1445 C1429 1.349 . S
C1445 H1437 0.950 . S
C1445 C1443 1.327 . S
C1446 C1434 1.349 . S
C1446 H1440 0.950 . S
C1446 C1447 1.327 . S
C1447 H1441 0.950 . S
C1447 C1446 1.327 . S
C1447 C1451 1.429 . S
C1448 C1431 1.574 . S
C1448 H1442 0.949 . S
C1448 C1452 1.368 . S
C1449 C1430 1.429 . S
C1449 C1443 1.429 . S
C1449 C1450 1.523 . S
C1450 C1431 1.368 . S
C1450 C1444 1.368 . S
C1450 C1449 1.523 . S
C1451 C1435 1.429 . S
C1451 C1447 1.429 . S
C1451 C1452 1.523 . S
C1452 C1436 1.368 . S
C1452 C1448 1.368 . S
C1452 C1451 1.523 . S
H1453 C1428 0.950 . S
H1454 C1430 0.950 . S
H1455 C1431 0.949 . S
H1456 C1433 0.950 . S
H1457 C1435 0.950 . S
C1458 C1459 1.349 . S
C1458 C1460 1.327 . S
C1458 H1483 0.950 . S
C1459 C1458 1.349 . S
C1459 C1475 1.349 . S
C1460 C1458 1.327 . S
C1460 C1479 1.429 . S
C1460 H1484 0.950 . S
C1461 C1478 1.574 . S
C1461 C1480 1.368 . S
C1461 H1485 0.949 . S
H1462 C1466 0.949 . S
C1463 C1464 1.349 . S
C1463 C1465 1.327 . S
C1463 H1486 0.950 . S
C1464 C1463 1.349 . S
C1464 C1476 1.349 . S
C1465 C1463 1.327 . S
C1465 C1481 1.429 . S
C1465 H1487 0.950 . S
C1466 H1462 0.949 . S
C1466 C1474 1.574 . S
C1466 C1482 1.368 . S
H1467 C1475 0.950 . S
H1468 C1473 0.950 . S
H1469 C1474 0.949 . S
H1470 C1476 0.950 . S
H1471 C1477 0.950 . S
H1472 C1478 0.949 . S
C1473 H1468 0.950 . S
C1473 C1475 1.327 . S
C1473 C1479 1.429 . S
C1474 C1466 1.574 . S
C1474 H1469 0.949 . S
C1474 C1480 1.368 . S
C1475 C1459 1.349 . S
C1475 H1467 0.950 . S
C1475 C1473 1.327 . S
C1476 C1464 1.349 . S
C1476 H1470 0.950 . S
C1476 C1477 1.327 . S
C1477 H1471 0.950 . S
C1477 C1476 1.327 . S
C1477 C1481 1.429 . S
C1478 C1461 1.574 . S
C1478 H1472 0.949 . S
C1478 C1482 1.368 . S
C1479 C1460 1.429 . S
C1479 C1473 1.429 . S
C1479 C1480 1.523 . S
C1480 C1461 1.368 . S
C1480 C1474 1.368 . S
C1480 C1479 1.523 . S
C1481 C1465 1.429 . S
C1481 C1477 1.429 . S
C1481 C1482 1.523 . S
C1482 C1466 1.368 . S
C1482 C1478 1.368 . S
C1482 C1481 1.523 . S
H1483 C1458 0.950 . S
H1484 C1460 0.950 . S
H1485 C1461 0.949 . S
H1486 C1463 0.950 . S
H1487 C1465 0.950 . S
C1488 C1489 1.349 . S
C1488 C1490 1.327 . S
C1488 H1513 0.950 . S
C1489 C1488 1.349 . S
C1489 C1505 1.349 . S
C1490 C1488 1.327 . S
C1490 C1509 1.429 . S
C1490 H1514 0.950 1_556 S
C1491 C1508 1.574 . S
C1491 C1510 1.368 . S
C1491 H1515 0.949 . S
H1492 C1496 0.949 . S
C1493 C1494 1.349 . S
C1493 C1495 1.342 . S
C1493 H1516 0.953 . S
C1494 C1493 1.349 . S
C1494 C1506 1.349 . S
C1495 C1493 1.342 . S
C1495 C1511 1.450 . S
C1495 H1517 0.915 1_554 S
C1496 H1492 0.949 . S
C1496 C1504 1.574 . S
C1496 C1512 1.368 . S
H1497 C1505 0.950 . S
H1498 C1503 0.950 . S
H1499 C1504 0.949 . S
H1500 C1506 0.950 . S
H1501 C1507 0.950 . S
H1502 C1508 0.949 . S
C1503 H1498 0.950 . S
C1503 C1505 1.327 . S
C1503 C1509 1.429 . S
C1504 C1496 1.574 . S
C1504 H1499 0.949 . S
C1504 C1510 1.368 1_554 S
C1505 C1489 1.349 . S
C1505 H1497 0.950 . S
C1505 C1503 1.327 . S
C1506 C1494 1.349 . S
C1506 H1500 0.950 . S
C1506 C1507 1.327 . S
C1507 H1501 0.950 . S
C1507 C1506 1.327 . S
C1507 C1511 1.429 . S
C1508 C1491 1.574 . S
C1508 H1502 0.949 . S
C1508 C1512 1.368 1_556 S
C1509 C1490 1.429 . S
C1509 C1503 1.429 . S
C1509 C1510 1.523 . S
C1510 C1491 1.368 . S
C1510 C1504 1.368 1_556 S
C1510 C1509 1.523 . S
C1511 C1495 1.450 . S
C1511 C1507 1.429 . S
C1511 C1512 1.523 . S
C1512 C1496 1.368 . S
C1512 C1508 1.368 1_554 S
C1512 C1511 1.523 . S
H1513 C1488 0.950 . S
H1514 C1490 0.950 1_554 S
H1515 C1491 0.949 . S
H1516 C1493 0.953 . S
H1517 C1495 0.915 1_556 S
C1518 C1519 1.349 . S
C1518 C1520 1.327 . S
C1518 H1543 0.950 . S
C1519 C1518 1.349 . S
C1519 C1535 1.349 . S
C1520 C1518 1.327 . S
C1520 C1539 1.429 . S
C1520 H1544 0.950 . S
C1521 C1538 1.574 . S
C1521 C1540 1.368 . S
C1521 H1545 0.949 . S
H1522 C1526 0.949 . S
C1523 C1524 1.349 . S
C1523 C1525 1.327 . S
C1523 H1546 0.950 . S
C1524 C1523 1.349 . S
C1524 C1536 1.349 . S
C1525 C1523 1.327 . S
C1525 C1541 1.429 . S
C1525 H1547 0.950 . S
C1526 H1522 0.949 . S
C1526 C1534 1.574 . S
C1526 C1542 1.368 . S
H1527 C1535 0.950 . S
H1528 C1533 0.950 . S
H1529 C1534 0.949 . S
H1530 C1536 0.950 . S
H1531 C1537 0.950 . S
H1532 C1538 0.949 . S
C1533 H1528 0.950 . S
C1533 C1535 1.327 . S
C1533 C1539 1.429 . S
C1534 C1526 1.574 . S
C1534 H1529 0.949 . S
C1534 C1540 1.368 . S
C1535 C1519 1.349 . S
C1535 H1527 0.950 . S
C1535 C1533 1.327 . S
C1536 C1524 1.349 . S
C1536 H1530 0.950 . S
C1536 C1537 1.327 . S
C1537 H1531 0.950 . S
C1537 C1536 1.327 . S
C1537 C1541 1.429 . S
C1538 C1521 1.574 . S
C1538 H1532 0.949 . S
C1538 C1542 1.368 . S
C1539 C1520 1.429 . S
C1539 C1533 1.429 . S
C1539 C1540 1.523 . S
C1540 C1521 1.368 . S
C1540 C1534 1.368 . S
C1540 C1539 1.523 . S
C1541 C1525 1.429 . S
C1541 C1537 1.429 . S
C1541 C1542 1.523 . S
C1542 C1526 1.368 . S
C1542 C1538 1.368 . S
C1542 C1541 1.523 . S
H1543 C1518 0.950 . S
H1544 C1520 0.950 . S
H1545 C1521 0.949 . S
H1546 C1523 0.950 . S
H1547 C1525 0.950 . S
C1548 C1549 1.349 . S
C1548 C1550 1.327 . S
C1548 H1573 0.950 . S
C1549 C1548 1.349 . S
C1549 C1565 1.349 . S
C1550 C1548 1.327 . S
C1550 C1569 1.429 . S
C1550 H1574 0.950 . S
C1551 C1568 1.574 . S
C1551 C1570 1.368 . S
C1551 H1575 0.949 . S
H1552 C1556 0.949 . S
C1553 C1554 1.349 . S
C1553 C1555 1.327 . S
C1553 H1576 0.950 . S
C1554 C1553 1.349 . S
C1554 C1566 1.349 . S
C1555 C1553 1.327 . S
C1555 C1571 1.429 . S
C1555 H1577 0.950 . S
C1556 H1552 0.949 . S
C1556 C1564 1.574 . S
C1556 C1572 1.368 . S
H1557 C1565 0.950 . S
H1558 C1563 0.950 . S
H1559 C1564 0.949 . S
H1560 C1566 0.950 . S
H1561 C1567 0.950 . S
H1562 C1568 0.949 . S
C1563 H1558 0.950 . S
C1563 C1565 1.327 . S
C1563 C1569 1.429 . S
C1564 C1556 1.574 . S
C1564 H1559 0.949 . S
C1564 C1570 1.368 . S
C1565 C1549 1.349 . S
C1565 H1557 0.950 . S
C1565 C1563 1.327 . S
C1566 C1554 1.349 . S
C1566 H1560 0.950 . S
C1566 C1567 1.327 . S
C1567 H1561 0.950 . S
C1567 C1566 1.327 . S
C1567 C1571 1.429 . S
C1568 C1551 1.574 . S
C1568 H1562 0.949 . S
C1568 C1572 1.368 . S
C1569 C1550 1.429 . S
C1569 C1563 1.429 . S
C1569 C1570 1.523 . S
C1570 C1551 1.368 . S
C1570 C1564 1.368 . S
C1570 C1569 1.523 . S
C1571 C1555 1.429 . S
C1571 C1567 1.429 . S
C1571 C1572 1.523 . S
C1572 C1556 1.368 . S
C1572 C1568 1.368 . S
C1572 C1571 1.523 . S
H1573 C1548 0.950 . S
H1574 C1550 0.950 . S
H1575 C1551 0.949 . S
H1576 C1553 0.950 . S
H1577 C1555 0.950 . S
C1578 C1579 1.349 . S
C1578 C1580 1.327 . S
C1578 H1603 0.950 . S
C1579 C1578 1.349 . S
C1579 C1595 1.349 . S
C1580 C1578 1.327 . S
C1580 C1599 1.429 . S
C1580 H1604 0.950 . S
C1581 C1598 1.574 . S
C1581 C1600 1.368 . S
C1581 H1605 0.949 . S
H1582 C1586 0.949 . S
C1583 C1584 1.349 . S
C1583 C1585 1.327 . S
C1583 H1606 0.950 . S
C1584 C1583 1.349 . S
C1584 C1596 1.349 . S
C1585 C1583 1.327 . S
C1585 C1601 1.429 . S
C1585 H1607 0.950 . S
C1586 H1582 0.949 . S
C1586 C1594 1.574 . S
C1586 C1602 1.368 . S
H1587 C1595 0.950 . S
H1588 C1593 0.950 . S
H1589 C1594 0.949 . S
H1590 C1596 0.950 . S
H1591 C1597 0.950 . S
H1592 C1598 0.949 . S
C1593 H1588 0.950 . S
C1593 C1595 1.327 . S
C1593 C1599 1.429 . S
C1594 C1586 1.574 . S
C1594 H1589 0.949 . S
C1594 C1600 1.368 . S
C1595 C1579 1.349 . S
C1595 H1587 0.950 . S
C1595 C1593 1.327 . S
C1596 C1584 1.349 . S
C1596 H1590 0.950 . S
C1596 C1597 1.327 . S
C1597 H1591 0.950 . S
C1597 C1596 1.327 . S
C1597 C1601 1.429 . S
C1598 C1581 1.574 . S
C1598 H1592 0.949 . S
C1598 C1602 1.368 . S
C1599 C1580 1.429 . S
C1599 C1593 1.429 . S
C1599 C1600 1.523 . S
C1600 C1581 1.368 . S
C1600 C1594 1.368 . S
C1600 C1599 1.523 . S
C1601 C1585 1.429 . S
C1601 C1597 1.429 . S
C1601 C1602 1.523 . S
C1602 C1586 1.368 . S
C1602 C1598 1.368 . S
C1602 C1601 1.523 . S
H1603 C1578 0.950 . S
H1604 C1580 0.950 . S
H1605 C1581 0.949 . S
H1606 C1583 0.950 . S
H1607 C1585 0.950 . S
C1608 C1609 1.349 . S
C1608 C1610 1.327 . S
C1608 H1633 0.950 . S
C1609 C1608 1.349 . S
C1609 C1625 1.349 . S
C1610 C1608 1.327 . S
C1610 C1629 1.429 . S
C1610 H1634 0.950 . S
C1611 C1628 1.574 . S
C1611 C1630 1.368 . S
C1611 H1635 0.949 . S
H1612 C1616 0.949 . S
C1613 C1614 1.349 . S
C1613 C1615 1.327 . S
C1613 H1636 0.950 . S
C1614 C1613 1.349 . S
C1614 C1626 1.349 . S
C1615 C1613 1.327 . S
C1615 C1631 1.429 . S
C1615 H1637 0.950 . S
C1616 H1612 0.949 . S
C1616 C1624 1.574 . S
C1616 C1632 1.368 . S
H1617 C1625 0.950 . S
H1618 C1623 0.950 . S
H1619 C1624 0.949 . S
H1620 C1626 0.950 . S
H1621 C1627 0.950 . S
H1622 C1628 0.949 . S
C1623 H1618 0.950 . S
C1623 C1625 1.327 . S
C1623 C1629 1.429 . S
C1624 C1616 1.574 . S
C1624 H1619 0.949 . S
C1624 C1630 1.368 . S
C1625 C1609 1.349 . S
C1625 H1617 0.950 . S
C1625 C1623 1.327 . S
C1626 C1614 1.349 . S
C1626 H1620 0.950 . S
C1626 C1627 1.327 . S
C1627 H1621 0.950 . S
C1627 C1626 1.327 . S
C1627 C1631 1.429 . S
C1628 C1611 1.574 . S
C1628 H1622 0.949 . S
C1628 C1632 1.368 . S
C1629 C1610 1.429 . S
C1629 C1623 1.429 . S
C1629 C1630 1.523 . S
C1630 C1611 1.368 . S
C1630 C1624 1.368 . S
C1630 C1629 1.523 . S
C1631 C1615 1.429 . S
C1631 C1627 1.429 . S
C1631 C1632 1.523 . S
C1632 C1616 1.368 . S
C1632 C1628 1.368 . S
C1632 C1631 1.523 . S
H1633 C1608 0.950 . S
H1634 C1610 0.950 . S
H1635 C1611 0.949 . S
H1636 C1613 0.950 . S
H1637 C1615 0.950 . S
C1638 C1639 1.349 . S
C1638 C1640 1.327 . S
C1638 H1663 0.950 . S
C1639 C1638 1.349 . S
C1639 C1655 1.349 . S
C1640 C1638 1.327 . S
C1640 C1659 1.429 . S
C1640 H1664 0.950 . S
C1641 C1658 1.574 . S
C1641 C1660 1.368 . S
C1641 H1665 0.949 . S
H1642 C1646 0.949 . S
C1643 C1644 1.349 . S
C1643 C1645 1.315 1_556 S
C1643 H1666 0.955 . S
C1644 C1643 1.349 . S
C1644 C1656 1.349 . S
C1645 C1643 1.315 1_554 S
C1645 C1661 1.417 1_554 S
C1645 H1667 0.976 . S
C1646 H1642 0.949 . S
C1646 C1654 1.561 1_556 S
C1646 C1662 1.344 1_556 S
H1647 C1655 0.950 . S
H1648 C1653 0.950 . S
H1649 C1654 0.938 1_556 S
H1650 C1656 0.950 . S
H1651 C1657 0.950 . S
H1652 C1658 0.949 . S
C1653 H1648 0.950 . S
C1653 C1655 1.327 . S
C1653 C1659 1.429 . S
C1654 C1646 1.561 1_554 S
C1654 H1649 0.938 1_554 S
C1654 C1660 1.397 . S
C1655 C1639 1.349 . S
C1655 H1647 0.950 . S
C1655 C1653 1.327 . S
C1656 C1644 1.349 . S
C1656 H1650 0.950 . S
C1656 C1657 1.327 . S
C1657 H1651 0.950 . S
C1657 C1656 1.327 . S
C1657 C1661 1.429 . S
C1658 C1641 1.574 . S
C1658 H1652 0.949 . S
C1658 C1662 1.415 . S
C1659 C1640 1.429 . S
C1659 C1653 1.429 . S
C1659 C1660 1.523 . S
C1660 C1641 1.368 . S
C1660 C1654 1.397 . S
C1660 C1659 1.523 . S
C1661 C1645 1.417 1_556 S
C1661 C1657 1.429 . S
C1661 C1662 1.504 1_556 S
C1662 C1646 1.344 1_554 S
C1662 C1658 1.415 . S
C1662 C1661 1.504 1_554 S
H1663 C1638 0.950 . S
H1664 C1640 0.950 . S
H1665 C1641 0.949 . S
H1666 C1643 0.955 . S
H1667 C1645 0.976 . S
C1668 C1669 1.349 . S
C1668 C1670 1.327 . S
C1668 H1693 0.950 . S
C1669 C1668 1.349 . S
C1669 C1685 1.349 . S
C1670 C1668 1.327 . S
C1670 C1689 1.429 . S
C1670 H1694 0.950 . S
C1671 C1688 1.574 . S
C1671 C1690 1.368 . S
C1671 H1695 0.949 . S
H1672 C1676 0.949 . S
C1673 C1674 1.349 . S
C1673 C1675 1.327 . S
C1673 H1696 0.950 . S
C1674 C1673 1.349 . S
C1674 C1686 1.349 . S
C1675 C1673 1.327 . S
C1675 C1691 1.429 . S
C1675 H1697 0.950 . S
C1676 H1672 0.949 . S
C1676 C1684 1.574 . S
C1676 C1692 1.368 . S
H1677 C1685 0.950 . S
H1678 C1683 0.950 . S
H1679 C1684 0.949 . S
H1680 C1686 0.950 . S
H1681 C1687 0.950 . S
H1682 C1688 0.949 . S
C1683 H1678 0.950 . S
C1683 C1685 1.327 . S
C1683 C1689 1.429 . S
C1684 C1676 1.574 . S
C1684 H1679 0.949 . S
C1684 C1690 1.368 . S
C1685 C1669 1.349 . S
C1685 H1677 0.950 . S
C1685 C1683 1.327 . S
C1686 C1674 1.349 . S
C1686 H1680 0.950 . S
C1686 C1687 1.327 . S
C1687 H1681 0.950 . S
C1687 C1686 1.327 . S
C1687 C1691 1.429 . S
C1688 C1671 1.574 . S
C1688 H1682 0.949 . S
C1688 C1692 1.368 . S
C1689 C1670 1.429 . S
C1689 C1683 1.429 . S
C1689 C1690 1.523 . S
C1690 C1671 1.368 . S
C1690 C1684 1.368 . S
C1690 C1689 1.523 . S
C1691 C1675 1.429 . S
C1691 C1687 1.429 . S
C1691 C1692 1.523 . S
C1692 C1676 1.368 . S
C1692 C1688 1.368 . S
C1692 C1691 1.523 . S
H1693 C1668 0.950 . S
H1694 C1670 0.950 . S
H1695 C1671 0.949 . S
H1696 C1673 0.950 . S
H1697 C1675 0.950 . S
C1698 C1699 1.349 . S
C1698 C1700 1.327 . S
C1698 H1723 0.950 . S
C1699 C1698 1.349 . S
C1699 C1715 1.349 . S
C1700 C1698 1.327 . S
C1700 C1719 1.429 . S
C1700 H1724 0.950 . S
C1701 C1718 1.574 . S
C1701 C1720 1.368 . S
C1701 H1725 0.949 . S
H1702 C1706 0.949 . S
C1703 C1704 1.349 . S
C1703 C1705 1.327 . S
C1703 H1726 0.950 . S
C1704 C1703 1.349 . S
C1704 C1716 1.349 . S
C1705 C1703 1.327 . S
C1705 C1721 1.429 . S
C1705 H1727 0.950 . S
C1706 H1702 0.949 . S
C1706 C1714 1.574 . S
C1706 C1722 1.368 . S
H1707 C1715 0.950 . S
H1708 C1713 0.950 . S
H1709 C1714 0.949 . S
H1710 C1716 0.950 . S
H1711 C1717 0.950 . S
H1712 C1718 0.949 . S
C1713 H1708 0.950 . S
C1713 C1715 1.327 . S
C1713 C1719 1.429 . S
C1714 C1706 1.574 . S
C1714 H1709 0.949 . S
C1714 C1720 1.368 . S
C1715 C1699 1.349 . S
C1715 H1707 0.950 . S
C1715 C1713 1.327 . S
C1716 C1704 1.349 . S
C1716 H1710 0.950 . S
C1716 C1717 1.327 . S
C1717 H1711 0.950 . S
C1717 C1716 1.327 . S
C1717 C1721 1.429 . S
C1718 C1701 1.574 . S
C1718 H1712 0.949 . S
C1718 C1722 1.368 . S
C1719 C1700 1.429 . S
C1719 C1713 1.429 . S
C1719 C1720 1.523 . S
C1720 C1701 1.368 . S
C1720 C1714 1.368 . S
C1720 C1719 1.523 . S
C1721 C1705 1.429 . S
C1721 C1717 1.429 . S
C1721 C1722 1.523 . S
C1722 C1706 1.368 . S
C1722 C1718 1.368 . S
C1722 C1721 1.523 . S
H1723 C1698 0.950 . S
H1724 C1700 0.950 . S
H1725 C1701 0.949 . S
H1726 C1703 0.950 . S
H1727 C1705 0.950 . S
C1728 C1729 1.349 . S
C1728 C1730 1.327 . S
C1728 H1753 0.950 . S
C1729 C1728 1.349 . S
C1729 C1745 1.349 . S
C1730 C1728 1.327 . S
C1730 C1749 1.429 . S
C1730 H1754 0.950 . S
C1731 C1748 1.574 . S
C1731 C1750 1.368 . S
C1731 H1755 0.949 . S
H1732 C1736 0.949 . S
C1733 C1734 1.349 . S
C1733 C1735 1.327 . S
C1733 H1756 0.950 . S
C1734 C1733 1.349 . S
C1734 C1746 1.349 . S
C1735 C1733 1.327 . S
C1735 C1751 1.429 . S
C1735 H1757 0.950 . S
C1736 H1732 0.949 . S
C1736 C1744 1.574 . S
C1736 C1752 1.368 . S
H1737 C1745 0.950 . S
H1738 C1743 0.950 . S
H1739 C1744 0.949 . S
H1740 C1746 0.950 . S
H1741 C1747 0.950 . S
H1742 C1748 0.949 . S
C1743 H1738 0.950 . S
C1743 C1745 1.327 . S
C1743 C1749 1.429 . S
C1744 C1736 1.574 . S
C1744 H1739 0.949 . S
C1744 C1750 1.368 . S
C1745 C1729 1.349 . S
C1745 H1737 0.950 . S
C1745 C1743 1.327 . S
C1746 C1734 1.349 . S
C1746 H1740 0.950 . S
C1746 C1747 1.327 . S
C1747 H1741 0.950 . S
C1747 C1746 1.327 . S
C1747 C1751 1.429 . S
C1748 C1731 1.574 . S
C1748 H1742 0.949 . S
C1748 C1752 1.368 . S
C1749 C1730 1.429 . S
C1749 C1743 1.429 . S
C1749 C1750 1.523 . S
C1750 C1731 1.368 . S
C1750 C1744 1.368 . S
C1750 C1749 1.523 . S
C1751 C1735 1.429 . S
C1751 C1747 1.429 . S
C1751 C1752 1.523 . S
C1752 C1736 1.368 . S
C1752 C1748 1.368 . S
C1752 C1751 1.523 . S
H1753 C1728 0.950 . S
H1754 C1730 0.950 . S
H1755 C1731 0.949 . S
H1756 C1733 0.950 . S
H1757 C1735 0.950 . S
C1758 C1759 1.349 . S
C1758 C1760 1.327 . S
C1758 H1783 0.950 . S
C1759 C1758 1.349 . S
C1759 C1775 1.349 . S
C1760 C1758 1.327 . S
C1760 C1779 1.429 . S
C1760 H1784 0.950 . S
C1761 C1778 1.574 . S
C1761 C1780 1.368 . S
C1761 H1785 0.949 . S
H1762 C1766 0.949 . S
C1763 C1764 1.349 . S
C1763 C1765 1.327 . S
C1763 H1786 0.950 . S
C1764 C1763 1.349 . S
C1764 C1776 1.349 . S
C1765 C1763 1.327 . S
C1765 C1781 1.429 . S
C1765 H1787 0.950 . S
C1766 H1762 0.949 . S
C1766 C1774 1.574 . S
C1766 C1782 1.368 . S
H1767 C1775 0.950 . S
H1768 C1773 0.950 . S
H1769 C1774 0.949 . S
H1770 C1776 0.950 . S
H1771 C1777 0.950 . S
H1772 C1778 0.949 . S
C1773 H1768 0.950 . S
C1773 C1775 1.327 . S
C1773 C1779 1.429 . S
C1774 C1766 1.574 . S
C1774 H1769 0.949 . S
C1774 C1780 1.368 . S
C1775 C1759 1.349 . S
C1775 H1767 0.950 . S
C1775 C1773 1.327 . S
C1776 C1764 1.349 . S
C1776 H1770 0.950 . S
C1776 C1777 1.327 . S
C1777 H1771 0.950 . S
C1777 C1776 1.327 . S
C1777 C1781 1.429 . S
C1778 C1761 1.574 . S
C1778 H1772 0.949 . S
C1778 C1782 1.368 . S
C1779 C1760 1.429 . S
C1779 C1773 1.429 . S
C1779 C1780 1.523 . S
C1780 C1761 1.368 . S
C1780 C1774 1.368 . S
C1780 C1779 1.523 . S
C1781 C1765 1.429 . S
C1781 C1777 1.429 . S
C1781 C1782 1.523 . S
C1782 C1766 1.368 . S
C1782 C1778 1.368 . S
C1782 C1781 1.523 . S
H1783 C1758 0.950 . S
H1784 C1760 0.950 . S
H1785 C1761 0.949 . S
H1786 C1763 0.950 . S
H1787 C1765 0.950 . S
C1788 C1789 1.349 . S
C1788 C1790 1.327 . S
C1788 H1813 0.950 . S
C1789 C1788 1.349 . S
C1789 C1805 1.349 . S
C1790 C1788 1.327 . S
C1790 C1809 1.429 . S
C1790 H1814 0.950 . S
C1791 C1808 1.574 . S
C1791 C1810 1.368 . S
C1791 H1815 0.949 . S
H1792 C1796 0.949 . S
C1793 C1794 1.349 . S
C1793 C1795 1.327 . S
C1793 H1816 0.950 . S
C1794 C1793 1.349 . S
C1794 C1806 1.349 . S
C1795 C1793 1.327 . S
C1795 C1811 1.429 . S
C1795 H1817 0.950 . S
C1796 H1792 0.949 . S
C1796 C1804 1.574 . S
C1796 C1812 1.368 . S
H1797 C1805 0.950 . S
H1798 C1803 0.950 . S
H1799 C1804 0.949 . S
H1800 C1806 0.950 . S
H1801 C1807 0.950 . S
H1802 C1808 0.949 . S
C1803 H1798 0.950 . S
C1803 C1805 1.327 . S
C1803 C1809 1.429 . S
C1804 C1796 1.574 . S
C1804 H1799 0.949 . S
C1804 C1810 1.368 . S
C1805 C1789 1.349 . S
C1805 H1797 0.950 . S
C1805 C1803 1.327 . S
C1806 C1794 1.349 . S
C1806 H1800 0.950 . S
C1806 C1807 1.327 . S
C1807 H1801 0.950 . S
C1807 C1806 1.327 . S
C1807 C1811 1.429 . S
C1808 C1791 1.574 . S
C1808 H1802 0.949 . S
C1808 C1812 1.368 . S
C1809 C1790 1.429 . S
C1809 C1803 1.429 . S
C1809 C1810 1.523 . S
C1810 C1791 1.368 . S
C1810 C1804 1.368 . S
C1810 C1809 1.523 . S
C1811 C1795 1.429 . S
C1811 C1807 1.429 . S
C1811 C1812 1.523 . S
C1812 C1796 1.368 . S
C1812 C1808 1.368 . S
C1812 C1811 1.523 . S
H1813 C1788 0.950 . S
H1814 C1790 0.950 . S
H1815 C1791 0.949 . S
H1816 C1793 0.950 . S
H1817 C1795 0.950 . S
C1818 C1819 1.349 . S
C1818 C1820 1.327 . S
C1818 H1843 0.950 . S
C1819 C1818 1.349 . S
C1819 C1835 1.349 . S
C1820 C1818 1.327 . S
C1820 C1839 1.429 . S
C1820 H1844 0.950 . S
C1821 C1838 1.574 . S
C1821 C1840 1.368 . S
C1821 H1845 0.949 . S
H1822 C1826 0.949 . S
C1823 C1824 1.349 . S
C1823 C1825 1.327 . S
C1823 H1846 0.950 . S
C1824 C1823 1.349 . S
C1824 C1836 1.349 . S
C1825 C1823 1.327 . S
C1825 C1841 1.429 . S
C1825 H1847 0.950 . S
C1826 H1822 0.949 . S
C1826 C1834 1.574 . S
C1826 C1842 1.368 . S
H1827 C1835 0.950 . S
H1828 C1833 0.950 . S
H1829 C1834 0.949 . S
H1830 C1836 0.950 . S
H1831 C1837 0.950 . S
H1832 C1838 0.949 . S
C1833 H1828 0.950 . S
C1833 C1835 1.327 . S
C1833 C1839 1.429 . S
C1834 C1826 1.574 . S
C1834 H1829 0.949 . S
C1834 C1840 1.368 . S
C1835 C1819 1.349 . S
C1835 H1827 0.950 . S
C1835 C1833 1.327 . S
C1836 C1824 1.349 . S
C1836 H1830 0.950 . S
C1836 C1837 1.327 . S
C1837 H1831 0.950 . S
C1837 C1836 1.327 . S
C1837 C1841 1.429 . S
C1838 C1821 1.574 . S
C1838 H1832 0.949 . S
C1838 C1842 1.368 . S
C1839 C1820 1.429 . S
C1839 C1833 1.429 . S
C1839 C1840 1.523 . S
C1840 C1821 1.368 . S
C1840 C1834 1.368 . S
C1840 C1839 1.523 . S
C1841 C1825 1.429 . S
C1841 C1837 1.429 . S
C1841 C1842 1.523 . S
C1842 C1826 1.368 . S
C1842 C1838 1.368 . S
C1842 C1841 1.523 . S
H1843 C1818 0.950 . S
H1844 C1820 0.950 . S
H1845 C1821 0.949 . S
H1846 C1823 0.950 . S
H1847 C1825 0.950 . S
C1848 C1849 1.349 . S
C1848 C1850 1.327 . S
C1848 H1873 0.950 . S
C1849 C1848 1.349 . S
C1849 C1865 1.349 . S
C1850 C1848 1.327 . S
C1850 C1869 1.429 . S
C1850 H1874 0.950 . S
C1851 C1868 1.574 . S
C1851 C1870 1.368 . S
C1851 H1875 0.949 . S
H1852 C1856 0.949 . S
C1853 C1854 1.349 . S
C1853 C1855 1.327 . S
C1853 H1876 0.950 . S
C1854 C1853 1.349 . S
C1854 C1866 1.349 . S
C1855 C1853 1.327 . S
C1855 C1871 1.429 . S
C1855 H1877 0.950 . S
C1856 H1852 0.949 . S
C1856 C1864 1.574 . S
C1856 C1872 1.368 . S
H1857 C1865 0.950 . S
H1858 C1863 0.950 . S
H1859 C1864 0.949 . S
H1860 C1866 0.950 . S
H1861 C1867 0.950 . S
H1862 C1868 0.949 . S
C1863 H1858 0.950 . S
C1863 C1865 1.327 . S
C1863 C1869 1.429 . S
C1864 C1856 1.574 . S
C1864 H1859 0.949 . S
C1864 C1870 1.368 . S
C1865 C1849 1.349 . S
C1865 H1857 0.950 . S
C1865 C1863 1.327 . S
C1866 C1854 1.349 . S
C1866 H1860 0.950 . S
C1866 C1867 1.327 . S
C1867 H1861 0.950 . S
C1867 C1866 1.327 . S
C1867 C1871 1.429 . S
C1868 C1851 1.574 . S
C1868 H1862 0.949 . S
C1868 C1872 1.368 . S
C1869 C1850 1.429 . S
C1869 C1863 1.429 . S
C1869 C1870 1.523 . S
C1870 C1851 1.368 . S
C1870 C1864 1.368 . S
C1870 C1869 1.523 . S
C1871 C1855 1.429 . S
C1871 C1867 1.429 . S
C1871 C1872 1.523 . S
C1872 C1856 1.368 . S
C1872 C1868 1.368 . S
C1872 C1871 1.523 . S
H1873 C1848 0.950 . S
H1874 C1850 0.950 . S
H1875 C1851 0.949 . S
H1876 C1853 0.950 . S
H1877 C1855 0.950 . S
C1878 C1879 1.349 . S
C1878 C1880 1.327 . S
C1878 H1903 0.950 . S
C1879 C1878 1.349 . S
C1879 C1895 1.349 . S
C1880 C1878 1.327 . S
C1880 C1899 1.429 . S
C1880 H1904 0.950 . S
C1881 C1898 1.574 . S
C1881 C1900 1.368 . S
C1881 H1905 0.949 . S
H1882 C1886 0.949 . S
C1883 C1884 1.349 . S
C1883 C1885 1.327 . S
C1883 H1906 0.950 . S
C1884 C1883 1.349 . S
C1884 C1896 1.349 . S
C1885 C1883 1.327 . S
C1885 C1901 1.429 . S
C1885 H1907 0.950 . S
C1886 H1882 0.949 . S
C1886 C1894 1.574 . S
C1886 C1902 1.368 . S
H1887 C1895 0.950 . S
H1888 C1893 0.950 . S
H1889 C1894 0.949 . S
H1890 C1896 0.950 . S
H1891 C1897 0.950 . S
H1892 C1898 0.949 . S
C1893 H1888 0.950 . S
C1893 C1895 1.327 . S
C1893 C1899 1.429 . S
C1894 C1886 1.574 . S
C1894 H1889 0.949 . S
C1894 C1900 1.368 . S
C1895 C1879 1.349 . S
C1895 H1887 0.950 . S
C1895 C1893 1.327 . S
C1896 C1884 1.349 . S
C1896 H1890 0.950 . S
C1896 C1897 1.327 . S
C1897 H1891 0.950 . S
C1897 C1896 1.327 . S
C1897 C1901 1.429 . S
C1898 C1881 1.574 . S
C1898 H1892 0.949 . S
C1898 C1902 1.368 . S
C1899 C1880 1.429 . S
C1899 C1893 1.429 . S
C1899 C1900 1.523 . S
C1900 C1881 1.368 . S
C1900 C1894 1.368 . S
C1900 C1899 1.523 . S
C1901 C1885 1.429 . S
C1901 C1897 1.429 . S
C1901 C1902 1.523 . S
C1902 C1886 1.368 . S
C1902 C1898 1.368 . S
C1902 C1901 1.523 . S
H1903 C1878 0.950 . S
H1904 C1880 0.950 . S
H1905 C1881 0.949 . S
H1906 C1883 0.950 . S
H1907 C1885 0.950 . S
C1908 C1909 1.349 . S
C1908 C1910 1.327 . S
C1908 H1933 0.950 . S
C1909 C1908 1.349 . S
C1909 C1925 1.349 . S
C1910 C1908 1.327 . S
C1910 C1929 1.429 . S
C1910 H1934 0.950 . S
C1911 C1928 1.574 . S
C1911 C1930 1.368 . S
C1911 H1935 0.949 . S
H1912 C1916 0.949 . S
C1913 C1914 1.349 . S
C1913 C1915 1.327 . S
C1913 H1936 0.950 . S
C1914 C1913 1.349 . S
C1914 C1926 1.349 . S
C1915 C1913 1.327 . S
C1915 C1931 1.429 . S
C1915 H1937 0.950 . S
C1916 H1912 0.949 . S
C1916 C1924 1.574 . S
C1916 C1932 1.368 . S
H1917 C1925 0.950 . S
H1918 C1923 0.950 . S
H1919 C1924 0.949 . S
H1920 C1926 0.950 . S
H1921 C1927 0.950 . S
H1922 C1928 0.949 . S
C1923 H1918 0.950 . S
C1923 C1925 1.327 . S
C1923 C1929 1.429 . S
C1924 C1916 1.574 . S
C1924 H1919 0.949 . S
C1924 C1930 1.368 . S
C1925 C1909 1.349 . S
C1925 H1917 0.950 . S
C1925 C1923 1.327 . S
C1926 C1914 1.349 . S
C1926 H1920 0.950 . S
C1926 C1927 1.327 . S
C1927 H1921 0.950 . S
C1927 C1926 1.327 . S
C1927 C1931 1.429 . S
C1928 C1911 1.574 . S
C1928 H1922 0.949 . S
C1928 C1932 1.368 . S
C1929 C1910 1.429 . S
C1929 C1923 1.429 . S
C1929 C1930 1.523 . S
C1930 C1911 1.368 . S
C1930 C1924 1.368 . S
C1930 C1929 1.523 . S
C1931 C1915 1.429 . S
C1931 C1927 1.429 . S
C1931 C1932 1.523 . S
C1932 C1916 1.368 . S
C1932 C1928 1.368 . S
C1932 C1931 1.523 . S
H1933 C1908 0.950 . S
H1934 C1910 0.950 . S
H1935 C1911 0.949 . S
H1936 C1913 0.950 . S
H1937 C1915 0.950 . S
C1938 C1939 1.349 . S
C1938 C1940 1.327 . S
C1938 H1963 0.950 . S
C1939 C1938 1.349 . S
C1939 C1955 1.349 . S
C1940 C1938 1.327 . S
C1940 C1959 1.429 . S
C1940 H1964 0.950 . S
C1941 C1958 1.574 . S
C1941 C1960 1.368 . S
C1941 H1965 0.949 . S
H1942 C1946 0.949 . S
C1943 C1944 1.349 . S
C1943 C1945 1.327 . S
C1943 H1966 0.950 . S
C1944 C1943 1.349 . S
C1944 C1956 1.349 . S
C1945 C1943 1.327 . S
C1945 C1961 1.429 . S
C1945 H1967 0.950 . S
C1946 H1942 0.949 . S
C1946 C1954 1.574 . S
C1946 C1962 1.368 . S
H1947 C1955 0.950 . S
H1948 C1953 0.950 . S
H1949 C1954 0.949 . S
H1950 C1956 0.950 . S
H1951 C1957 0.950 . S
H1952 C1958 0.949 . S
C1953 H1948 0.950 . S
C1953 C1955 1.327 . S
C1953 C1959 1.429 . S
C1954 C1946 1.574 . S
C1954 H1949 0.949 . S
C1954 C1960 1.368 . S
C1955 C1939 1.349 . S
C1955 H1947 0.950 . S
C1955 C1953 1.327 . S
C1956 C1944 1.349 . S
C1956 H1950 0.950 . S
C1956 C1957 1.327 . S
C1957 H1951 0.950 . S
C1957 C1956 1.327 . S
C1957 C1961 1.429 . S
C1958 C1941 1.574 . S
C1958 H1952 0.949 . S
C1958 C1962 1.368 . S
C1959 C1940 1.429 . S
C1959 C1953 1.429 . S
C1959 C1960 1.523 . S
C1960 C1941 1.368 . S
C1960 C1954 1.368 . S
C1960 C1959 1.523 . S
C1961 C1945 1.429 . S
C1961 C1957 1.429 . S
C1961 C1962 1.523 . S
C1962 C1946 1.368 . S
C1962 C1958 1.368 . S
C1962 C1961 1.523 . S
H1963 C1938 0.950 . S
H1964 C1940 0.950 . S
H1965 C1941 0.949 . S
H1966 C1943 0.950 . S
H1967 C1945 0.950 . S
C1968 C1969 1.349 . S
C1968 C1970 1.327 . S
C1968 H1993 0.950 . S
C1969 C1968 1.349 . S
C1969 C1985 1.349 . S
C1970 C1968 1.327 . S
C1970 C1989 1.429 . S
C1970 H1994 0.950 . S
C1971 C1988 1.574 . S
C1971 C1990 1.368 . S
C1971 H1995 0.949 . S
H1972 C1976 0.949 . S
C1973 C1974 1.349 . S
C1973 C1975 1.327 . S
C1973 H1996 0.950 . S
C1974 C1973 1.349 . S
C1974 C1986 1.349 . S
C1975 C1973 1.327 . S
C1975 C1991 1.429 . S
C1975 H1997 0.950 . S
C1976 H1972 0.949 . S
C1976 C1984 1.574 . S
C1976 C1992 1.368 . S
H1977 C1985 0.950 . S
H1978 C1983 0.950 . S
H1979 C1984 0.949 . S
H1980 C1986 0.950 . S
H1981 C1987 0.950 . S
H1982 C1988 0.949 . S
C1983 H1978 0.950 . S
C1983 C1985 1.327 . S
C1983 C1989 1.429 . S
C1984 C1976 1.574 . S
C1984 H1979 0.949 . S
C1984 C1990 1.368 . S
C1985 C1969 1.349 . S
C1985 H1977 0.950 . S
C1985 C1983 1.327 . S
C1986 C1974 1.349 . S
C1986 H1980 0.950 . S
C1986 C1987 1.327 . S
C1987 H1981 0.950 . S
C1987 C1986 1.327 . S
C1987 C1991 1.429 . S
C1988 C1971 1.574 . S
C1988 H1982 0.949 . S
C1988 C1992 1.368 . S
C1989 C1970 1.429 . S
C1989 C1983 1.429 . S
C1989 C1990 1.523 . S
C1990 C1971 1.368 . S
C1990 C1984 1.368 . S
C1990 C1989 1.523 . S
C1991 C1975 1.429 . S
C1991 C1987 1.429 . S
C1991 C1992 1.523 . S
C1992 C1976 1.368 . S
C1992 C1988 1.368 . S
C1992 C1991 1.523 . S
H1993 C1968 0.950 . S
H1994 C1970 0.950 . S
H1995 C1971 0.949 . S
H1996 C1973 0.950 . S
H1997 C1975 0.950 . S
C1998 C1999 1.349 . S
C1998 C2000 1.327 . S
C1998 H2023 0.950 . S
C1999 C1998 1.349 . S
C1999 C2015 1.349 . S
C2000 C1998 1.327 . S
C2000 C2019 1.429 . S
C2000 H2024 0.950 . S
C2001 C2018 1.574 . S
C2001 C2020 1.368 . S
C2001 H2025 0.949 . S
H2002 C2006 0.949 . S
C2003 C2004 1.349 . S
C2003 C2005 1.327 . S
C2003 H2026 0.950 . S
C2004 C2003 1.349 . S
C2004 C2016 1.349 . S
C2005 C2003 1.327 . S
C2005 C2021 1.429 . S
C2005 H2027 0.950 . S
C2006 H2002 0.949 . S
C2006 C2014 1.574 . S
C2006 C2022 1.368 . S
H2007 C2015 0.950 . S
H2008 C2013 0.950 . S
H2009 C2014 0.949 . S
H2010 C2016 0.950 . S
H2011 C2017 0.950 . S
H2012 C2018 0.949 . S
C2013 H2008 0.950 . S
C2013 C2015 1.327 . S
C2013 C2019 1.429 . S
C2014 C2006 1.574 . S
C2014 H2009 0.949 . S
C2014 C2020 1.368 . S
C2015 C1999 1.349 . S
C2015 H2007 0.950 . S
C2015 C2013 1.327 . S
C2016 C2004 1.349 . S
C2016 H2010 0.950 . S
C2016 C2017 1.327 . S
C2017 H2011 0.950 . S
C2017 C2016 1.327 . S
C2017 C2021 1.429 . S
C2018 C2001 1.574 . S
C2018 H2012 0.949 . S
C2018 C2022 1.368 . S
C2019 C2000 1.429 . S
C2019 C2013 1.429 . S
C2019 C2020 1.523 . S
C2020 C2001 1.368 . S
C2020 C2014 1.368 . S
C2020 C2019 1.523 . S
C2021 C2005 1.429 . S
C2021 C2017 1.429 . S
C2021 C2022 1.523 . S
C2022 C2006 1.368 . S
C2022 C2018 1.368 . S
C2022 C2021 1.523 . S
H2023 C1998 0.950 . S
H2024 C2000 0.950 . S
H2025 C2001 0.949 . S
H2026 C2003 0.950 . S
H2027 C2005 0.950 . S
C2028 C2029 1.349 . S
C2028 C2030 1.327 . S
C2028 H2053 0.950 . S
C2029 C2028 1.349 . S
C2029 C2045 1.349 . S
C2030 C2028 1.327 . S
C2030 C2049 1.429 . S
C2030 H2054 0.950 . S
C2031 C2048 1.574 . S
C2031 C2050 1.368 . S
C2031 H2055 0.949 . S
H2032 C2036 0.949 . S
C2033 C2034 1.349 . S
C2033 C2035 1.327 . S
C2033 H2056 0.950 . S
C2034 C2033 1.349 . S
C2034 C2046 1.349 . S
C2035 C2033 1.327 . S
C2035 C2051 1.429 . S
C2035 H2057 0.950 . S
C2036 H2032 0.949 . S
C2036 C2044 1.574 . S
C2036 C2052 1.368 . S
H2037 C2045 0.950 . S
H2038 C2043 0.950 . S
H2039 C2044 0.949 . S
H2040 C2046 0.950 . S
H2041 C2047 0.950 . S
H2042 C2048 0.949 . S
C2043 H2038 0.950 . S
C2043 C2045 1.327 . S
C2043 C2049 1.429 . S
C2044 C2036 1.574 . S
C2044 H2039 0.949 . S
C2044 C2050 1.368 . S
C2045 C2029 1.349 . S
C2045 H2037 0.950 . S
C2045 C2043 1.327 . S
C2046 C2034 1.349 . S
C2046 H2040 0.950 . S
C2046 C2047 1.327 . S
C2047 H2041 0.950 . S
C2047 C2046 1.327 . S
C2047 C2051 1.429 . S
C2048 C2031 1.574 . S
C2048 H2042 0.949 . S
C2048 C2052 1.368 . S
C2049 C2030 1.429 . S
C2049 C2043 1.429 . S
C2049 C2050 1.523 . S
C2050 C2031 1.368 . S
C2050 C2044 1.368 . S
C2050 C2049 1.523 . S
C2051 C2035 1.429 . S
C2051 C2047 1.429 . S
C2051 C2052 1.523 . S
C2052 C2036 1.368 . S
C2052 C2048 1.368 . S
C2052 C2051 1.523 . S
H2053 C2028 0.950 . S
H2054 C2030 0.950 . S
H2055 C2031 0.949 . S
H2056 C2033 0.950 . S
H2057 C2035 0.950 . S
C2058 C2059 1.349 . S
C2058 C2060 1.327 . S
C2058 H2083 0.950 . S
C2059 C2058 1.349 . S
C2059 C2075 1.349 . S
C2060 C2058 1.327 . S
C2060 C2079 1.429 . S
C2060 H2084 0.950 . S
C2061 C2078 1.574 . S
C2061 C2080 1.368 . S
C2061 H2085 0.949 . S
H2062 C2066 0.949 . S
C2063 C2064 1.349 . S
C2063 C2065 1.327 . S
C2063 H2086 0.950 . S
C2064 C2063 1.349 . S
C2064 C2076 1.349 . S
C2065 C2063 1.327 . S
C2065 C2081 1.429 . S
C2065 H2087 0.950 . S
C2066 H2062 0.949 . S
C2066 C2074 1.574 . S
C2066 C2082 1.368 . S
H2067 C2075 0.950 . S
H2068 C2073 0.950 . S
H2069 C2074 0.949 . S
H2070 C2076 0.950 . S
H2071 C2077 0.950 . S
H2072 C2078 0.949 . S
C2073 H2068 0.950 . S
C2073 C2075 1.327 . S
C2073 C2079 1.429 . S
C2074 C2066 1.574 . S
C2074 H2069 0.949 . S
C2074 C2080 1.368 . S
C2075 C2059 1.349 . S
C2075 H2067 0.950 . S
C2075 C2073 1.327 . S
C2076 C2064 1.349 . S
C2076 H2070 0.950 . S
C2076 C2077 1.327 . S
C2077 H2071 0.950 . S
C2077 C2076 1.327 . S
C2077 C2081 1.429 . S
C2078 C2061 1.574 . S
C2078 H2072 0.949 . S
C2078 C2082 1.368 . S
C2079 C2060 1.429 . S
C2079 C2073 1.429 . S
C2079 C2080 1.523 . S
C2080 C2061 1.368 . S
C2080 C2074 1.368 . S
C2080 C2079 1.523 . S
C2081 C2065 1.429 . S
C2081 C2077 1.429 . S
C2081 C2082 1.523 . S
C2082 C2066 1.368 . S
C2082 C2078 1.368 . S
C2082 C2081 1.523 . S
H2083 C2058 0.950 . S
H2084 C2060 0.950 . S
H2085 C2061 0.949 . S
H2086 C2063 0.950 . S
H2087 C2065 0.950 . S
C1009 C476 1.538 . S
C1014 C58 1.236 . S
C1039 C142 1.229 . S
C1044 C56 1.564 . S
C1069 C226 1.292 . S
C1074 C140 1.610 . S
C1099 C224 1.538 . S
C1104 C310 1.236 . S
C1129 C308 1.566 . S
C1134 C394 1.226 . S
C1159 C478 1.292 . S
C1164 C392 1.610 . S
C1189 C644 1.538 . S
C1194 C562 1.236 . S
C1219 C646 1.292 . S
C1224 C728 1.610 . S
C1249 C812 1.566 . S
C1254 C730 1.226 . S
C1279 C896 1.538 . S
C1284 C814 1.236 . S
C1309 C980 1.608 . S
C1314 C898 1.295 . S
C1339 C560 1.566 . S
C1344 C982 1.226 . S
C1369 C998 3.289 . S
C1374 C67 3.262 . S
C1399 C151 2.946 . S
C1404 C578 2.970 . S
C1429 C662 3.142 . S
C1434 C235 3.107 . S
C1459 C746 3.290 . S
C1464 C319 3.262 . S
C1489 C830 2.974 . S
C1494 C403 2.942 . S
C1519 C487 3.109 . S
C1524 C914 3.140 . S
C1549 C571 3.258 . S
C1554 C158 3.293 . S
C1579 C655 3.109 . S
C1584 C242 3.140 . S
C1609 C326 2.973 . S
C1614 C739 2.942 . S
C1639 C410 3.289 . S
C1644 C823 3.261 . S
C1669 C907 3.109 . S
C1674 C494 3.140 . S
C1699 C991 2.946 . S
C1704 C74 2.970 . S
C1729 C567 1.566 . S
C1734 C63 1.569 . S
C1759 C147 1.042 . S
C1764 C651 1.049 . S
C1789 C735 1.042 . S
C1794 C231 1.049 . S
C1819 C315 1.566 . S
C1824 C819 1.569 . S
C1849 C903 1.046 . S
C1854 C399 1.046 . S
C1879 C987 1.042 . S
C1884 C483 1.050 . S
C1909 C573 0.525 . S
C1914 C69 0.527 . S
C1939 C657 0.377 . S
C1944 C153 0.364 . S
C1969 C741 0.363 . S
C1974 C237 0.378 . S
C1999 C321 0.525 . S
C2004 C825 0.527 . S
C2029 C909 0.377 . S
C2034 C405 0.364 . S
C2059 C993 0.364 . S
C2064 C489 0.378 . S
