# Generated by pormake.
# Topology uoq, (4)-cn, num edge types: 1
# Building blocks:
#     Node 0, Type 0, BuildingBlock: QUQFOY_clean_sbu_1, # of connection points: 4
#     Node 1, Type 0, BuildingBlock: QUQFOY_clean_sbu_1, # of connection points: 4
#     Node 2, Type 0, BuildingBlock: QUQFOY_clean_sbu_1, # of connection points: 4
#     Node 3, Type 0, BuildingBlock: QUQFOY_clean_sbu_1, # of connection points: 4
#     Node 4, Type 0, BuildingBlock: QUQFOY_clean_sbu_1, # of connection points: 4
#     Node 5, Type 0, BuildingBlock: QUQFOY_clean_sbu_1, # of connection points: 4
#     Node 6, Type 0, BuildingBlock: QUQFOY_clean_sbu_1, # of connection points: 4
#     Node 7, Type 0, BuildingBlock: QUQFOY_clean_sbu_1, # of connection points: 4
#     Node 8, Type 0, BuildingBlock: QUQFOY_clean_sbu_1, # of connection points: 4
#     Node 9, Type 0, BuildingBlock: QUQFOY_clean_sbu_1, # of connection points: 4
#     Node 10, Type 0, BuildingBlock: QUQFOY_clean_sbu_1, # of connection points: 4
#     Node 11, Type 0, BuildingBlock: QUQFOY_clean_sbu_1, # of connection points: 4
#     Edge 12, Type (0, 0), BuildingBlock: ZUJKAS_clean_linker_0, # of connection points: 2
#     Edge 13, Type (0, 0), BuildingBlock: ZUJKAS_clean_linker_0, # of connection points: 2
#     Edge 14, Type (0, 0), BuildingBlock: ZUJKAS_clean_linker_0, # of connection points: 2
#     Edge 15, Type (0, 0), BuildingBlock: ZUJKAS_clean_linker_0, # of connection points: 2
#     Edge 16, Type (0, 0), BuildingBlock: ZUJKAS_clean_linker_0, # of connection points: 2
#     Edge 17, Type (0, 0), BuildingBlock: ZUJKAS_clean_linker_0, # of connection points: 2
#     Edge 18, Type (0, 0), BuildingBlock: ZUJKAS_clean_linker_0, # of connection points: 2
#     Edge 19, Type (0, 0), BuildingBlock: ZUJKAS_clean_linker_0, # of connection points: 2
#     Edge 20, Type (0, 0), BuildingBlock: ZUJKAS_clean_linker_0, # of connection points: 2
#     Edge 21, Type (0, 0), BuildingBlock: ZUJKAS_clean_linker_0, # of connection points: 2
#     Edge 22, Type (0, 0), BuildingBlock: ZUJKAS_clean_linker_0, # of connection points: 2
#     Edge 23, Type (0, 0), BuildingBlock: ZUJKAS_clean_linker_0, # of connection points: 2
#     Edge 24, Type (0, 0), BuildingBlock: ZUJKAS_clean_linker_0, # of connection points: 2
#     Edge 25, Type (0, 0), BuildingBlock: ZUJKAS_clean_linker_0, # of connection points: 2
#     Edge 26, Type (0, 0), BuildingBlock: ZUJKAS_clean_linker_0, # of connection points: 2
#     Edge 27, Type (0, 0), BuildingBlock: ZUJKAS_clean_linker_0, # of connection points: 2
#     Edge 28, Type (0, 0), BuildingBlock: ZUJKAS_clean_linker_0, # of connection points: 2
#     Edge 29, Type (0, 0), BuildingBlock: ZUJKAS_clean_linker_0, # of connection points: 2
#     Edge 30, Type (0, 0), BuildingBlock: ZUJKAS_clean_linker_0, # of connection points: 2
#     Edge 31, Type (0, 0), BuildingBlock: ZUJKAS_clean_linker_0, # of connection points: 2
#     Edge 32, Type (0, 0), BuildingBlock: ZUJKAS_clean_linker_0, # of connection points: 2
#     Edge 33, Type (0, 0), BuildingBlock: ZUJKAS_clean_linker_0, # of connection points: 2
#     Edge 34, Type (0, 0), BuildingBlock: ZUJKAS_clean_linker_0, # of connection points: 2
#     Edge 35, Type (0, 0), BuildingBlock: ZUJKAS_clean_linker_0, # of connection points: 2
# Relax obj value: 0.150
# Max RMSD: 0.207
# Mean RMSD: 0.207
data_MOF--net-uoq--node1-QUQFOY_clean_sbu_1--edge1-ZUJKAS_clean_linker_0
_symmetry_space_group_name_H-M    P1
_symmetry_Int_Tables_number       1
_symmetry_cell_setting            triclinic
loop_
_symmetry_equiv_pos_as_xyz
'x, y, z'
_cell_length_a     82.178729
_cell_length_b     82.195385
_cell_length_c     29.783867
_cell_angle_alpha  89.985331
_cell_angle_beta   90.015442
_cell_angle_gamma 120.01959
loop_
_atom_site_label
_atom_site_type_symbol
_atom_site_fract_x
_atom_site_fract_y
_atom_site_fract_z
_atom_type_partial_charge
O0 O 0.29064 0.46571 0.30281 0.0
Cd1 Cd 0.306 0.46805 0.2462 0.0
Cd2 Cd 0.31428 0.44442 0.29754 0.0
O3 O 0.29206 0.44213 0.33396 0.0
O4 O 0.29654 0.47947 0.20198 0.0
O5 O 0.2922 0.45081 0.19434 0.0
C6 C 0.28914 0.46388 0.18001 0.0
C7 C 0.31782 0.41789 0.29964 0.0
C8 C 0.28556 0.45325 0.33313 0.0
C9 C 0.34533 0.48446 0.2777 0.0
O10 O 0.33935 0.46952 0.30069 0.0
O11 O 0.3346 0.48618 0.24972 0.0
O12 O 0.32065 0.42824 0.33437 0.0
O13 O 0.31271 0.42245 0.26299 0.0
O14 O 0.8272 0.28951 0.62839 0.0
Cd15 Cd 0.84013 0.30541 0.57232 0.0
Cd16 Cd 0.87225 0.31785 0.63048 0.0
O17 O 0.85228 0.29672 0.66934 0.0
O18 O 0.8191 0.29525 0.5284 0.0
O19 O 0.84418 0.29228 0.5197 0.0
C20 C 0.82785 0.2887 0.50559 0.0
C21 C 0.90241 0.32185 0.63661 0.0
C22 C 0.83463 0.28739 0.66363 0.0
C23 C 0.86118 0.34618 0.59941 0.0
O24 O 0.87126 0.3423 0.62459 0.0
O25 O 0.84875 0.33372 0.57405 0.0
O26 O 0.89478 0.32603 0.66891 0.0
O27 O 0.89288 0.3153 0.60006 0.0
O28 O 0.53688 0.82677 0.95644 0.0
Cd29 Cd 0.53319 0.84022 0.9027 0.0
Cd30 Cd 0.55511 0.87244 0.95854 0.0
O31 O 0.55655 0.85197 0.99486 0.0
O32 O 0.52212 0.82015 0.85644 0.0
O33 O 0.55016 0.84546 0.84914 0.0
C34 C 0.53738 0.82941 0.83366 0.0
C35 C 0.58142 0.90241 0.96729 0.0
C36 C 0.54758 0.83427 0.99 0.0
C37 C 0.51487 0.86176 0.93542 0.0
O38 O 0.52985 0.87206 0.95731 0.0
O39 O 0.51365 0.84882 0.90982 0.0
O40 O 0.5699 0.89391 -0.00039 0.0
O41 O 0.57808 0.89393 0.92908 0.0
O42 O 0.70945 0.53926 0.30696 0.0
Cd43 Cd 0.69235 0.53007 0.25132 0.0
Cd44 Cd 0.67877 0.55316 0.29757 0.0
O45 O 0.70086 0.55812 0.33838 0.0
O46 O 0.70378 0.51725 0.21834 0.0
O47 O 0.70312 0.54192 0.19112 0.0
C48 C 0.70836 0.52957 0.18702 0.0
C49 C 0.67243 0.57789 0.29845 0.0
C50 C 0.71131 0.55086 0.33744 0.0
C51 C 0.65184 0.51115 0.27972 0.0
O52 O 0.65521 0.52675 0.29647 0.0
O53 O 0.66455 0.50964 0.25903 0.0
O54 O 0.6682 0.56648 0.3316 0.0
O55 O 0.68025 0.57529 0.26375 0.0
O56 O 0.17206 0.70627 0.61713 0.0
Cd57 Cd 0.15756 0.68896 0.56423 0.0
Cd58 Cd 0.1266 0.68038 0.6237 0.0
O59 O 0.14781 0.70319 0.65584 0.0
O60 O 0.17733 0.69727 0.51734 0.0
O61 O 0.15276 0.70127 0.5111 0.0
C62 C 0.16857 0.70402 0.49525 0.0
C63 C 0.09668 0.6765 0.63524 0.0
C64 C 0.16542 0.71095 0.6499 0.0
C65 C 0.13582 0.64975 0.60009 0.0
O66 O 0.12699 0.65552 0.62426 0.0
O67 O 0.14778 0.66054 0.57127 0.0
O68 O 0.10598 0.67432 0.66705 0.0
O69 O 0.10441 0.68106 0.59608 0.0
O70 O 0.4583 0.17012 0.9577 0.0
Cd71 Cd 0.46294 0.15718 0.9043 0.0
Cd72 Cd 0.441 0.12444 0.95995 0.0
O73 O 0.43914 0.14469 0.99613 0.0
O74 O 0.47433 0.17762 0.85892 0.0
O75 O 0.44658 0.15212 0.84957 0.0
C76 C 0.45938 0.16836 0.83508 0.0
C77 C 0.41482 0.09439 0.96858 0.0
C78 C 0.44761 0.16238 0.99114 0.0
C79 C 0.48149 0.1358 0.93749 0.0
O80 O 0.46642 0.12514 0.95869 0.0
O81 O 0.48269 0.14889 0.91246 0.0
O82 O 0.42633 0.10289 0.00092 0.0
O83 O 0.41814 0.10287 0.93037 0.0
O84 O 0.53649 0.70946 0.37006 0.0
Cd85 Cd 0.53342 0.69287 0.42481 0.0
Cd86 Cd 0.55529 0.68286 0.36654 0.0
O87 O 0.55593 0.70421 0.32976 0.0
O88 O 0.52196 0.70198 0.46976 0.0
O89 O 0.55033 0.70567 0.47799 0.0
C90 C 0.5373 0.70874 0.49253 0.0
C91 C 0.58139 0.67904 0.35581 0.0
C92 C 0.5468 0.71272 0.33567 0.0
C93 C 0.51558 0.65287 0.39398 0.0
O94 O 0.53024 0.65792 0.37049 0.0
O95 O 0.5144 0.66443 0.4202 0.0
O96 O 0.56886 0.6748 0.32527 0.0
O97 O 0.57933 0.68577 0.39316 0.0
O98 O 0.82461 0.54012 0.69938 0.0
Cd99 Cd 0.83557 0.53108 0.74908 0.0
Cd100 Cd 0.8691 0.55536 0.69647 0.0
O101 O 0.85066 0.56241 0.66848 0.0
O102 O 0.8128 0.51686 0.78683 0.0
O103 O 0.83833 0.54209 0.81121 0.0
C104 C 0.82114 0.52911 0.81801 0.0
C105 C 0.90042 0.57963 0.69622 0.0
C106 C 0.8329 0.55368 0.67204 0.0
C107 C 0.85536 0.51334 0.70368 0.0
O108 O 0.86569 0.52905 0.68458 0.0
O109 O 0.84337 0.51154 0.73312 0.0
O110 O 0.89182 0.57128 0.65994 0.0
O111 O 0.89116 0.57424 0.73343 0.0
O112 O 0.28811 0.8242 0.03012 0.0
Cd113 Cd 0.30441 0.83679 0.08571 0.0
Cd114 Cd 0.31542 0.86967 0.03276 0.0
O115 O 0.29475 0.84989 0.99237 0.0
O116 O 0.29467 0.81609 0.13047 0.0
O117 O 0.29201 0.84138 0.13892 0.0
C118 C 0.28851 0.82514 0.15351 0.0
C119 C 0.31865 0.89959 0.02883 0.0
C120 C 0.28579 0.83213 0.99611 0.0
C121 C 0.34487 0.85914 0.05767 0.0
O122 O 0.34051 0.86984 0.03655 0.0
O123 O 0.33268 0.8455 0.08092 0.0
O124 O 0.32296 0.89244 0.99574 0.0
O125 O 0.31227 0.88965 0.06488 0.0
O126 O 0.45714 0.28606 0.37046 0.0
Cd127 Cd 0.46101 0.30344 0.42406 0.0
Cd128 Cd 0.43893 0.31309 0.36627 0.0
O129 O 0.43611 0.28996 0.33337 0.0
O130 O 0.47312 0.29489 0.4687 0.0
O131 O 0.44491 0.29137 0.47888 0.0
C132 C 0.45813 0.28844 0.49268 0.0
C133 C 0.41325 0.31777 0.35728 0.0
C134 C 0.44559 0.28176 0.33823 0.0
C135 C 0.4794 0.34263 0.38746 0.0
O136 O 0.46474 0.33733 0.36373 0.0
O137 O 0.48017 0.33171 0.41656 0.0
O138 O 0.4242 0.3196 0.32451 0.0
O139 O 0.41682 0.31325 0.39604 0.0
O140 O 0.17228 0.46335 0.71613 0.0
Cd141 Cd 0.1569 0.46507 0.76846 0.0
Cd142 Cd 0.12726 0.44139 0.71158 0.0
O143 O 0.1487 0.4389 0.68335 0.0
O144 O 0.17575 0.47659 0.81732 0.0
O145 O 0.15171 0.44755 0.82077 0.0
C146 C 0.16698 0.46082 0.83841 0.0
C147 C 0.09736 0.41491 0.70392 0.0
C148 C 0.16617 0.45044 0.68678 0.0
C149 C 0.13507 0.48115 0.72813 0.0
O150 O 0.12748 0.46648 0.7038 0.0
O151 O 0.14603 0.48266 0.75999 0.0
O152 O 0.10664 0.42489 0.66998 0.0
O153 O 0.10513 0.41978 0.74299 0.0
O154 O 0.70833 0.17268 0.04008 0.0
Cd155 Cd 0.69103 0.15918 0.09359 0.0
Cd156 Cd 0.6811 0.12748 0.03658 0.0
O157 O 0.70313 0.14789 0.00038 0.0
O158 O 0.70019 0.17954 0.13912 0.0
O159 O 0.70291 0.15429 0.14749 0.0
C160 C 0.70637 0.17051 0.16217 0.0
C161 C 0.67744 0.09744 0.03147 0.0
C162 C 0.71183 0.16554 0.00628 0.0
C163 C 0.65128 0.13775 0.06038 0.0
O164 O 0.65617 0.12777 0.03786 0.0
O165 O 0.66286 0.15052 0.08657 0.0
O166 O 0.67414 0.10524 0.99801 0.0
O167 O 0.68305 0.1068 0.06851 0.0
H168 H 0.32547 0.40388 0.37427 0.0
H169 H 0.33556 0.38065 0.378 0.0
H170 H 0.32832 0.37243 0.23481 0.0
H171 H 0.31837 0.39602 0.23057 0.0
H172 H 0.31968 0.34237 0.35041 0.0
H173 H 0.38469 0.39143 0.25668 0.0
H174 H 0.36913 0.39878 0.2799 0.0
H175 H 0.36278 0.385 0.22943 0.0
C176 C 0.3258 0.39701 0.34353 0.0
C177 C 0.32141 0.402 0.30197 0.0
C178 C 0.33147 0.38364 0.34583 0.0
C179 C 0.33292 0.37504 0.30665 0.0
C180 C 0.32751 0.37914 0.26535 0.0
H181 H 0.39756 0.31852 0.27772 0.0
H182 H 0.37482 0.32875 0.26383 0.0
C183 C 0.32179 0.39255 0.263 0.0
C184 C 0.3418 0.36324 0.30911 0.0
H185 H 0.38234 0.36355 0.28312 0.0
C186 C 0.33328 0.34682 0.33527 0.0
C187 C 0.35958 0.36921 0.28957 0.0
C188 C 0.36972 0.38713 0.26258 0.0
C189 C 0.34221 0.33629 0.34279 0.0
C190 C 0.36024 0.34259 0.3243 0.0
C191 C 0.36849 0.35872 0.29717 0.0
C192 C 0.37139 0.33333 0.33387 0.0
C193 C 0.33229 0.31858 0.37043 0.0
C194 C 0.3767 0.33209 0.37805 0.0
C195 C 0.38963 0.32606 0.38617 0.0
C196 C 0.39767 0.32154 0.35013 0.0
C197 C 0.39173 0.32207 0.30617 0.0
C198 C 0.37869 0.32787 0.29815 0.0
H199 H 0.31682 0.31265 0.37001 0.0
H200 H 0.33549 0.30774 0.35805 0.0
H201 H 0.33708 0.32188 0.40579 0.0
H202 H 0.37157 0.33664 0.40607 0.0
H203 H 0.39404 0.32587 0.42035 0.0
H204 H 0.92569 0.32148 0.57107 0.0
H205 H 0.95892 0.33059 0.57932 0.0
H206 H 0.95585 0.33915 0.72122 0.0
H207 H 0.92288 0.33006 0.71342 0.0
H208 H 0.9855 0.36629 0.61084 0.0
H209 H 0.98531 0.31103 0.71767 0.0
H210 H 0.96484 0.30752 0.68686 0.0
H211 H 0.97093 0.31996 0.73942 0.0
C212 C 0.93203 0.32494 0.60413 0.0
C213 C 0.92173 0.32518 0.64153 0.0
C214 C 0.95097 0.3301 0.6088 0.0
C215 C 0.95974 0.33527 0.651 0.0
C216 C 0.94926 0.33481 0.68856 0.0
H217 H 0.06919 0.39899 0.76636 0.0
H218 H 0.0358 0.37704 0.75147 0.0
C219 C 0.93044 0.32979 0.68391 0.0
C220 C 0.98032 0.34354 0.65522 0.0
H221 H 0.01429 0.34056 0.71463 0.0
C222 C 0.99185 0.36049 0.63282 0.0
C223 C 0.98848 0.33603 0.68441 0.0
C224 C 0.97676 0.31754 0.70817 0.0
C225 C 0.01128 0.37063 0.64035 0.0
C226 C 0.01945 0.36333 0.67024 0.0
C227 C 0.00798 0.3461 0.69175 0.0
C228 C 0.03977 0.37395 0.68078 0.0
C229 C 0.02272 0.38953 0.6179 0.0
C230 C 0.05307 0.37875 0.64645 0.0
C231 C 0.072 0.39142 0.65471 0.0
C232 C 0.07801 0.39922 0.69767 0.0
C233 C 0.06491 0.39322 0.73293 0.0
C234 C 0.04587 0.38069 0.72446 0.0
H235 H 0.01373 0.39506 0.60505 0.0
H236 H 0.03318 0.39999 0.64151 0.0
H237 H 0.03041 0.38811 0.58895 0.0
H238 H 0.04869 0.37333 0.61278 0.0
H239 H 0.08184 0.39559 0.62704 0.0
H240 H 0.6009 0.92956 0.90407 0.0
H241 H 0.62364 0.96274 0.91833 0.0
H242 H 0.62063 0.95144 0.06049 0.0
H243 H 0.59757 0.91855 0.0466 0.0
H244 H 0.61305 0.97859 0.04215 0.0
H245 H 0.67836 0.99375 0.95338 0.0
H246 H 0.65801 0.98284 0.91788 0.0
H247 H 0.65976 0.97009 0.96501 0.0
C248 C 0.60545 0.93411 0.93821 0.0
C249 C 0.59736 0.92157 0.97426 0.0
C250 C 0.61853 0.95304 0.94632 0.0
C251 C 0.62395 0.95955 0.99049 0.0
C252 C 0.61667 0.94673 0.02617 0.0
H253 H 0.67756 0.07442 0.09814 0.0
H254 H 0.66761 0.04094 0.09147 0.0
C255 C 0.60345 0.92796 0.01817 0.0
C256 C 0.63506 0.97994 0.00022 0.0
H257 H 0.67548 0.02048 0.97423 0.0
C258 C 0.62686 0.98769 0.02794 0.0
C259 C 0.65302 0.9918 0.98147 0.0
C260 C 0.66289 0.98417 0.95313 0.0
C261 C 0.63576 0.00704 0.03608 0.0
C262 C 0.65349 0.01897 0.01642 0.0
C263 C 0.66193 0.01124 0.98947 0.0
C264 C 0.6624 0.03962 0.01996 0.0
C265 C 0.62571 0.01467 0.06391 0.0
C266 C 0.66347 0.05001 0.9817 0.0
C267 C 0.66911 0.06901 0.98538 0.0
C268 C 0.67386 0.078 0.02743 0.0
C269 C 0.67386 0.06784 0.06538 0.0
C270 C 0.66816 0.04874 0.06164 0.0
H271 H 0.61077 0.00395 0.07003 0.0
H272 H 0.6328 0.01938 0.09694 0.0
H273 H 0.6262 0.02697 0.04711 0.0
H274 H 0.65909 0.04321 0.94926 0.0
H275 H 0.66913 0.07649 0.9554 0.0
H276 H 0.69081 0.61232 0.25689 0.0
H277 H 0.68496 0.63865 0.26764 0.0
H278 H 0.63843 0.60396 0.35515 0.0
H279 H 0.64481 0.57829 0.34644 0.0
H280 H 0.65753 0.64391 0.24869 0.0
H281 H 0.66399 0.64898 0.43185 0.0
H282 H 0.67139 0.63517 0.39986 0.0
H283 H 0.64734 0.62507 0.41867 0.0
C284 C 0.6794 0.61045 0.2785 0.0
C285 C 0.66837 0.5934 0.30125 0.0
C286 C 0.67613 0.62548 0.28482 0.0
C287 C 0.66169 0.62354 0.31358 0.0
C288 C 0.65022 0.60617 0.33456 0.0
H289 H 0.58279 0.65575 0.2939 0.0
H290 H 0.60727 0.64793 0.28271 0.0
C291 C 0.65371 0.59139 0.32907 0.0
C292 C 0.65747 0.63897 0.31985 0.0
H293 H 0.64102 0.65683 0.39954 0.0
C294 C 0.65441 0.64714 0.28178 0.0
C295 C 0.65422 0.64403 0.36297 0.0
C296 C 0.65968 0.638 0.40554 0.0
C297 C 0.64614 0.65844 0.28554 0.0
C298 C 0.63999 0.66084 0.32819 0.0
C299 C 0.6451 0.65453 0.36657 0.0
C300 C 0.62605 0.6672 0.33314 0.0
C301 C 0.64359 0.66716 0.2435 0.0
C302 C 0.62793 0.68008 0.36669 0.0
C303 C 0.61348 0.68413 0.37428 0.0
C304 C 0.59707 0.67548 0.34809 0.0
C305 C 0.59538 0.66285 0.31424 0.0
C306 C 0.60955 0.65855 0.30734 0.0
H307 H 0.65574 0.67155 0.22053 0.0
H308 H 0.63087 0.65658 0.22535 0.0
H309 H 0.64213 0.67959 0.25107 0.0
H310 H 0.64041 0.68677 0.38747 0.0
H311 H 0.61513 0.69393 0.40059 0.0
H312 H 0.922 0.5945 0.62178 0.0
H313 H 0.9557 0.61642 0.61825 0.0
H314 H 0.95801 0.62038 0.76273 0.0
H315 H 0.9241 0.5981 0.76672 0.0
H316 H 0.97918 0.6535 0.65122 0.0
H317 H 0.99402 0.60085 0.73019 0.0
H318 H 0.97106 0.59473 0.7092 0.0
H319 H 0.97919 0.60697 0.76164 0.0
C320 C 0.9296 0.60012 0.6529 0.0
C321 C 0.92044 0.59437 0.69461 0.0
C322 C 0.94886 0.61273 0.65074 0.0
C323 C 0.95934 0.61981 0.6902 0.0
C324 C 0.95015 0.61484 0.73192 0.0
H325 H 0.08052 0.67418 0.71623 0.0
H326 H 0.04762 0.66385 0.7316 0.0
C327 C 0.93081 0.60216 0.73413 0.0
C328 C 0.98005 0.63122 0.6872 0.0
H329 H 0.0199 0.62935 0.70751 0.0
C330 C 0.98815 0.64837 0.66391 0.0
C331 C 0.99164 0.62436 0.70356 0.0
C332 C 0.98361 0.60567 0.72726 0.0
C333 C 0.00761 0.65881 0.65622 0.0
C334 C 0.01912 0.6517 0.67161 0.0
C335 C 0.01103 0.63479 0.69585 0.0
C336 C 0.03948 0.66099 0.6617 0.0
C337 C 0.01566 0.67731 0.63175 0.0
C338 C 0.04592 0.66322 0.61718 0.0
C339 C 0.06483 0.66926 0.60822 0.0
C340 C 0.07745 0.67285 0.64371 0.0
C341 C 0.07109 0.67137 0.68815 0.0
C342 C 0.05231 0.66551 0.69703 0.0
H343 H 0.00626 0.68336 0.63426 0.0
H344 H 0.02971 0.68765 0.64516 0.0
H345 H 0.01723 0.67504 0.59566 0.0
H346 H 0.03619 0.65942 0.58939 0.0
H347 H 0.06933 0.6702 0.57367 0.0
H348 H 0.32758 0.92122 0.95386 0.0
H349 H 0.33729 0.95445 0.94916 0.0
H350 H 0.3269 0.95518 0.09084 0.0
H351 H 0.31725 0.92173 0.09606 0.0
H352 H 0.32023 0.97666 0.97395 0.0
H353 H 0.38398 0.99267 0.07353 0.0
H354 H 0.36897 0.96985 0.0491 0.0
H355 H 0.36161 0.97688 0.09857 0.0
C356 C 0.32712 0.92834 0.98401 0.0
C357 C 0.32194 0.91893 0.02552 0.0
C358 C 0.33256 0.94731 0.98114 0.0
C359 C 0.33301 0.95727 0.0197 0.0
C360 C 0.32681 0.94772 0.06079 0.0
H361 H 0.39852 0.07837 0.04787 0.0
H362 H 0.37517 0.04557 0.06183 0.0
C363 C 0.32128 0.92864 0.0637 0.0
C364 C 0.34185 0.97793 0.01717 0.0
H365 H 0.38214 0.01813 0.04472 0.0
C366 C 0.33365 0.98581 0.98988 0.0
C367 C 0.35939 0.98974 0.03776 0.0
C368 C 0.36915 0.98195 0.06616 0.0
C369 C 0.34269 0.00528 0.98223 0.0
C370 C 0.36053 0.01702 0.00166 0.0
C371 C 0.36843 0.00912 0.02994 0.0
C372 C 0.37189 0.03739 0.99189 0.0
C373 C 0.33307 0.01306 0.95343 0.0
C374 C 0.37746 0.04384 0.94773 0.0
C375 C 0.39071 0.06271 0.93957 0.0
C376 C 0.39883 0.07526 0.97558 0.0
C377 C 0.39262 0.06895 0.01948 0.0
C378 C 0.37924 0.05023 0.02752 0.0
H379 H 0.31757 0.00364 0.95354 0.0
H380 H 0.33635 0.02722 0.96501 0.0
H381 H 0.338 0.01424 0.91826 0.0
H382 H 0.37233 0.03412 0.91978 0.0
H383 H 0.39534 0.06721 0.90546 0.0
H384 H 0.19448 0.4875 0.89077 0.0
H385 H 0.21147 0.48274 0.95189 0.0
H386 H 0.17591 0.42274 0.93939 0.0
H387 H 0.15865 0.42737 0.87795 0.0
H388 H 0.19636 0.46012 0.03691 0.0
H389 H 0.23262 0.43548 0.92021 0.0
H390 H 0.22216 0.44896 0.90054 0.0
H391 H 0.20744 0.42493 0.91685 0.0
C392 C 0.19007 0.47328 0.90137 0.0
C393 C 0.17527 0.4578 0.87942 0.0
C394 C 0.1998 0.4706 0.93628 0.0
C395 C 0.19507 0.45241 0.94966 0.0
C396 C 0.17984 0.43688 0.92915 0.0
H397 H 0.2655 0.43079 0.13664 0.0
H398 H 0.24116 0.42547 0.08124 0.0
C399 C 0.16994 0.43956 0.89434 0.0
C400 C 0.20676 0.45002 0.98387 0.0
H401 H 0.2429 0.44104 0.99517 0.0
C402 C 0.20635 0.45569 0.02802 0.0
C403 C 0.21968 0.44412 0.97209 0.0
C404 C 0.22069 0.43806 0.92486 0.0
C405 C 0.21898 0.45622 0.06047 0.0
C406 C 0.23268 0.45142 0.04804 0.0
C407 C 0.23247 0.44484 0.00446 0.0
C408 C 0.24814 0.45457 0.07892 0.0
C409 C 0.21771 0.46219 0.10764 0.0
C410 C 0.26056 0.47277 0.09445 0.0
C411 C 0.2744 0.47584 0.12585 0.0
C412 C 0.27624 0.46078 0.14212 0.0
C413 C 0.26443 0.44267 0.12474 0.0
C414 C 0.25049 0.4396 0.09327 0.0
H415 H 0.20337 0.45965 0.11513 0.0
H416 H 0.22141 0.45459 0.1328 0.0
H417 H 0.22768 0.47747 0.11134 0.0
H418 H 0.25932 0.4846 0.08287 0.0
H419 H 0.28337 0.48999 0.1382 0.0
H420 H 0.79694 0.28411 0.46125 0.0
H421 H 0.77961 0.26178 0.40143 0.0
H422 H 0.82001 0.24293 0.40157 0.0
H423 H 0.83769 0.26547 0.46172 0.0
H424 H 0.79818 0.2572 0.31009 0.0
H425 H 0.76166 0.19583 0.42549 0.0
H426 H 0.76931 0.21935 0.4453 0.0
H427 H 0.78637 0.21259 0.43219 0.0
C428 C 0.8023 0.27537 0.44836 0.0
C429 C 0.81868 0.27653 0.46626 0.0
C430 C 0.79235 0.26262 0.41422 0.0
C431 C 0.79849 0.25067 0.39754 0.0
C432 C 0.81507 0.25203 0.41434 0.0
H433 H 0.72884 0.1599 0.20686 0.0
H434 H 0.75263 0.17809 0.26414 0.0
C435 C 0.82517 0.26495 0.44843 0.0
C436 C 0.78709 0.23667 0.36302 0.0
H437 H 0.75047 0.19185 0.35112 0.0
C438 C 0.78797 0.24281 0.31877 0.0
C439 C 0.7739 0.21793 0.37462 0.0
C440 C 0.77261 0.21086 0.42194 0.0
C441 C 0.77543 0.23086 0.28602 0.0
C442 C 0.76137 0.21247 0.29825 0.0
C443 C 0.76116 0.206 0.34197 0.0
C444 C 0.74599 0.20044 0.26694 0.0
C445 C 0.7771 0.23816 0.23876 0.0
C446 C 0.7339 0.20659 0.25116 0.0
C447 C 0.72039 0.1963 0.2187 0.0
C448 C 0.71856 0.17953 0.2016 0.0
C449 C 0.72992 0.17277 0.21941 0.0
C450 C 0.74355 0.18317 0.25194 0.0
H451 H 0.79155 0.24984 0.2317 0.0
H452 H 0.77342 0.22685 0.21368 0.0
H453 H 0.76731 0.24366 0.23448 0.0
H454 H 0.73524 0.21964 0.26319 0.0
H455 H 0.71175 0.20181 0.20604 0.0
H456 H 0.57079 0.83841 0.79295 0.0
H457 H 0.5756 0.82123 0.7316 0.0
H458 H 0.51572 0.78404 0.72237 0.0
H459 H 0.51081 0.80089 0.7835 0.0
H460 H 0.5609 0.7795 0.7356 0.0
H461 H 0.53467 0.80199 0.59021 0.0
H462 H 0.54325 0.81572 0.64106 0.0
H463 H 0.52003 0.79554 0.63934 0.0
C464 C 0.55866 0.82679 0.77721 0.0
C465 C 0.54042 0.82099 0.79296 0.0
C466 C 0.56144 0.81696 0.74243 0.0
C467 C 0.546 0.80146 0.72245 0.0
C468 C 0.52779 0.79609 0.73711 0.0
H469 H 0.51065 0.71235 0.53808 0.0
H470 H 0.51547 0.73561 0.5951 0.0
C471 C 0.52502 0.80571 0.7721 0.0
C472 C 0.54863 0.78999 0.6881 0.0
H473 H 0.53638 0.77405 0.58084 0.0
C474 C 0.5559 0.7785 0.70145 0.0
C475 C 0.54204 0.78877 0.64377 0.0
C476 C 0.53469 0.80127 0.62746 0.0
C477 C 0.55569 0.76496 0.67223 0.0
C478 C 0.5483 0.76317 0.62846 0.0
C479 C 0.54191 0.77535 0.61454 0.0
C480 C 0.54569 0.74795 0.59741 0.0
C481 C 0.56241 0.75203 0.68916 0.0
C482 C 0.56107 0.74685 0.58054 0.0
C483 C 0.55832 0.73336 0.54807 0.0
C484 C 0.54018 0.72096 0.53168 0.0
C485 C 0.5248 0.72172 0.54988 0.0
C486 C 0.52753 0.73505 0.5824 0.0
H487 H 0.5642 0.75282 0.72622 0.0
H488 H 0.55239 0.73725 0.67966 0.0
H489 H 0.57619 0.75606 0.67363 0.0
H490 H 0.57523 0.75683 0.59118 0.0
H491 H 0.57046 0.73322 0.53436 0.0
H492 H 0.71352 0.5469 0.10523 0.0
H493 H 0.73301 0.5469 0.04275 0.0
H494 H 0.75005 0.5141 0.12236 0.0
H495 H 0.73005 0.51331 0.18361 0.0
H496 H 0.7696 0.56009 0.03432 0.0
H497 H 0.73312 0.48302 0.01152 0.0
H498 H 0.72388 0.49424 0.04702 0.0
H499 H 0.74176 0.48956 0.06769 0.0
C500 C 0.72131 0.53956 0.1091 0.0
C501 C 0.72003 0.52985 0.14897 0.0
C502 C 0.73247 0.53961 0.07351 0.0
C503 C 0.74266 0.53012 0.07745 0.0
C504 C 0.74183 0.52096 0.11786 0.0
H505 H 0.83493 0.54849 0.89711 0.0
H506 H 0.81663 0.549 0.96168 0.0
C507 C 0.73044 0.5206 0.15297 0.0
C508 C 0.75436 0.52991 0.03969 0.0
H509 H 0.76284 0.5006 0.97539 0.0
C510 C 0.76804 0.54708 0.02116 0.0
C511 C 0.75218 0.51292 0.02213 0.0
C512 C 0.7368 0.49391 0.03781 0.0
C513 C 0.7797 0.54774 0.98584 0.0
C514 C 0.77806 0.53078 0.96968 0.0
C515 C 0.76431 0.51363 0.98814 0.0
C516 C 0.78953 0.53025 0.93174 0.0
C517 C 0.79321 0.56657 0.96544 0.0
C518 C 0.78047 0.5189 0.89437 0.0
C519 C 0.79086 0.51817 0.85826 0.0
C520 C 0.81058 0.52894 0.85837 0.0
C521 C 0.81974 0.54012 0.89601 0.0
C522 C 0.80929 0.54058 0.93267 0.0
H523 H 0.78896 0.57719 0.97259 0.0
H524 H 0.80739 0.57176 0.98007 0.0
H525 H 0.79419 0.56548 0.92849 0.0
H526 H 0.76527 0.51076 0.8928 0.0
H527 H 0.78335 0.50949 0.82969 0.0
H528 H 0.15979 0.72863 0.45461 0.0
H529 H 0.17833 0.7522 0.39739 0.0
H530 H 0.2163 0.73037 0.39002 0.0
H531 H 0.19815 0.70714 0.4474 0.0
H532 H 0.23424 0.7689 0.40535 0.0
H533 H 0.18446 0.74849 0.26158 0.0
H534 H 0.17608 0.75156 0.31489 0.0
H535 H 0.18087 0.73268 0.30748 0.0
C536 C 0.17185 0.72861 0.44002 0.0
C537 C 0.17754 0.71606 0.45558 0.0
C538 C 0.18242 0.74207 0.40733 0.0
C539 C 0.19868 0.74301 0.38942 0.0
C540 C 0.20384 0.72994 0.40353 0.0
H541 H 0.28589 0.7959 0.20185 0.0
H542 H 0.26406 0.77887 0.26274 0.0
C543 C 0.19341 0.71662 0.43624 0.0
C544 C 0.21123 0.75829 0.35838 0.0
H545 H 0.21458 0.77495 0.25169 0.0
C546 C 0.22988 0.77033 0.37189 0.0
C547 C 0.20545 0.76027 0.31496 0.0
C548 C 0.18567 0.74752 0.29852 0.0
C549 C 0.24311 0.78378 0.34256 0.0
C550 C 0.23757 0.78515 0.29851 0.0
C551 C 0.21872 0.77382 0.28561 0.0
C552 C 0.25158 0.79661 0.26395 0.0
C553 C 0.26305 0.79612 0.35844 0.0
C554 C 0.25186 0.81233 0.24472 0.0
C555 C 0.26452 0.82228 0.21006 0.0
C556 C 0.27678 0.81637 0.1937 0.0
C557 C 0.27663 0.80081 0.21371 0.0
C558 C 0.2642 0.79107 0.24856 0.0
H559 H 0.26397 0.79674 0.39568 0.0
H560 H 0.27185 0.79033 0.34594 0.0
H561 H 0.26899 0.81062 0.34511 0.0
H562 H 0.24214 0.81674 0.25612 0.0
H563 H 0.26422 0.83412 0.195 0.0
H564 H 0.42633 0.15919 0.79226 0.0
H565 H 0.42186 0.17666 0.73101 0.0
H566 H 0.48169 0.21465 0.72587 0.0
H567 H 0.48625 0.19752 0.78696 0.0
H568 H 0.43622 0.21853 0.73692 0.0
H569 H 0.46402 0.19732 0.59219 0.0
H570 H 0.45495 0.18316 0.6423 0.0
H571 H 0.47808 0.20348 0.64232 0.0
C572 C 0.43853 0.17106 0.77745 0.0
C573 C 0.45664 0.177 0.79435 0.0
C574 C 0.43595 0.18105 0.74272 0.0
C575 C 0.45146 0.19686 0.72394 0.0
C576 C 0.46957 0.20238 0.73972 0.0
H577 H 0.48545 0.28568 0.53749 0.0
H578 H 0.48143 0.2629 0.59515 0.0
C579 C 0.47214 0.19259 0.77466 0.0
C580 C 0.44897 0.20846 0.68968 0.0
H581 H 0.46143 0.2247 0.58269 0.0
C582 C 0.44141 0.21971 0.7029 0.0
C583 C 0.45582 0.20993 0.64555 0.0
C584 C 0.46355 0.19773 0.62944 0.0
C585 C 0.44149 0.23319 0.67371 0.0
C586 C 0.44902 0.23516 0.63003 0.0
C587 C 0.45579 0.22328 0.6163 0.0
C588 C 0.45119 0.25016 0.59872 0.0
C589 C 0.43442 0.24585 0.69059 0.0
C590 C 0.43553 0.2509 0.58233 0.0
C591 C 0.43782 0.26413 0.54957 0.0
C592 C 0.45577 0.27661 0.53231 0.0
C593 C 0.47143 0.27623 0.54999 0.0
C594 C 0.46916 0.26317 0.58286 0.0
H595 H 0.43293 0.24526 0.72772 0.0
H596 H 0.44405 0.26064 0.68045 0.0
H597 H 0.42042 0.24134 0.6757 0.0
H598 H 0.4215 0.24081 0.59356 0.0
H599 H 0.42548 0.26397 0.53625 0.0
H600 H 0.20324 0.47628 0.67334 0.0
H601 H 0.22373 0.47615 0.61399 0.0
H602 H 0.17932 0.42234 0.56807 0.0
H603 H 0.15859 0.42249 0.62659 0.0
H604 H 0.23613 0.4514 0.5928 0.0
H605 H 0.1922 0.45514 0.45612 0.0
H606 H 0.18909 0.45914 0.51425 0.0
H607 H 0.17958 0.43558 0.49334 0.0
C608 C 0.19787 0.46435 0.65083 0.0
C609 C 0.17922 0.44951 0.65427 0.0
C610 C 0.20959 0.46431 0.61697 0.0
C611 C 0.20286 0.44944 0.58617 0.0
C612 C 0.18458 0.43417 0.59089 0.0
H613 H 0.26932 0.42648 0.39839 0.0
H614 H 0.24923 0.42557 0.45985 0.0
C615 C 0.17281 0.43425 0.62448 0.0
C616 C 0.21481 0.45009 0.54847 0.0
H617 H 0.217 0.44996 0.43412 0.0
C618 C 0.23201 0.45113 0.55809 0.0
C619 C 0.20947 0.45006 0.5033 0.0
C620 C 0.19167 0.45011 0.491 0.0
C621 C 0.24393 0.45183 0.52357 0.0
C622 C 0.23824 0.45106 0.47842 0.0
C623 C 0.22119 0.45033 0.46883 0.0
C624 C 0.24992 0.45129 0.44053 0.0
C625 C 0.26264 0.45373 0.53576 0.0
C626 C 0.25633 0.46567 0.40841 0.0
C627 C 0.26762 0.46612 0.37289 0.0
C628 C 0.27267 0.45217 0.36898 0.0
C629 C 0.26583 0.43753 0.40068 0.0
C630 C 0.25445 0.43704 0.436 0.0
H631 H 0.267 0.45924 0.57038 0.0
H632 H 0.26149 0.4397 0.53412 0.0
H633 H 0.27379 0.46321 0.51202 0.0
H634 H 0.25284 0.47671 0.41123 0.0
H635 H 0.27264 0.47757 0.34901 0.0
H636 H 0.79675 0.26289 0.66043 0.0
H637 H 0.77683 0.24197 0.72005 0.0
H638 H 0.82521 0.26148 0.80637 0.0
H639 H 0.84532 0.28218 0.74678 0.0
H640 H 0.80222 0.22296 0.80806 0.0
H641 H 0.76115 0.25913 0.83231 0.0
H642 H 0.76098 0.2517 0.77555 0.0
H643 H 0.78268 0.26931 0.80031 0.0
C644 C 0.80317 0.26273 0.69207 0.0
C645 C 0.8226 0.27429 0.69898 0.0
C646 C 0.79175 0.25084 0.72614 0.0
C647 C 0.79954 0.25048 0.76777 0.0
C648 C 0.81896 0.26167 0.77448 0.0
H649 H 0.73543 0.2035 0.01176 0.0
H650 H 0.75791 0.22409 0.95538 0.0
C651 C 0.8304 0.27349 0.74039 0.0
C652 C 0.78744 0.2384 0.80442 0.0
H653 H 0.75 0.22996 0.86994 0.0
C654 C 0.79084 0.22451 0.82178 0.0
C655 C 0.77285 0.24072 0.82264 0.0
C656 C 0.76927 0.25614 0.8071 0.0
C657 C 0.77973 0.21256 0.85641 0.0
C658 C 0.76465 0.21438 0.87333 0.0
C659 C 0.7615 0.22852 0.85656 0.0
C660 C 0.75184 0.20171 0.90827 0.0
C661 C 0.7844 0.19829 0.87494 0.0
C662 C 0.74099 0.18235 0.90029 0.0
C663 C 0.72821 0.17052 0.93249 0.0
C664 C 0.7259 0.17793 0.97299 0.0
C665 C 0.73685 0.19736 0.9809 0.0
C666 C 0.7497 0.20914 0.94876 0.0
H667 H 0.7992 0.20224 0.8677 0.0
H668 H 0.78214 0.19669 0.9118 0.0
H669 H 0.77513 0.18446 0.859 0.0
H670 H 0.74213 0.17642 0.86879 0.0
H671 H 0.7199 0.15564 0.92524 0.0
H672 H 0.53323 0.79622 0.98787 0.0
H673 H 0.53419 0.77638 0.04778 0.0
H674 H 0.56557 0.82526 0.13122 0.0
H675 H 0.56509 0.84527 0.0713 0.0
H676 H 0.57963 0.80138 0.1338 0.0
H677 H 0.50252 0.76263 0.1614 0.0
H678 H 0.50912 0.76151 0.10454 0.0
H679 H 0.51417 0.78373 0.12795 0.0
C680 C 0.5404 0.80276 0.01891 0.0
C681 C 0.54897 0.8223 0.02497 0.0
C682 C 0.54082 0.79139 0.05316 0.0
C683 C 0.54961 0.79935 0.09416 0.0
C684 C 0.55862 0.81887 0.09987 0.0
H685 H 0.53255 0.73645 0.34084 0.0
H686 H 0.53426 0.75864 0.28374 0.0
C687 C 0.55832 0.83027 0.06557 0.0
C688 C 0.5494 0.78734 0.13125 0.0
H689 H 0.52007 0.75087 0.19889 0.0
C690 C 0.56663 0.79038 0.14821 0.0
C691 C 0.5324 0.77327 0.15045 0.0
C692 C 0.5135 0.77018 0.1355 0.0
C693 C 0.56731 0.7794 0.18335 0.0
C694 C 0.5503 0.76477 0.20114 0.0
C695 C 0.53308 0.762 0.18483 0.0
C696 C 0.54998 0.75195 0.23626 0.0
C697 C 0.58622 0.78373 0.20144 0.0
C698 C 0.55815 0.74079 0.22821 0.0
C699 C 0.5573 0.72821 0.26077 0.0
C700 C 0.54804 0.72638 0.30175 0.0
C701 C 0.53978 0.73752 0.30962 0.0
C702 C 0.54075 0.7502 0.27709 0.0
H703 H 0.59724 0.79841 0.19383 0.0
H704 H 0.58569 0.78158 0.23834 0.0
H705 H 0.59044 0.77421 0.18545 0.0
H706 H 0.56493 0.74161 0.19645 0.0
H707 H 0.56368 0.71973 0.2535 0.0
H708 H 0.72345 0.57921 0.39926 0.0
H709 H 0.74738 0.58729 0.45731 0.0
H710 H 0.75527 0.54168 0.41343 0.0
H711 H 0.73187 0.53387 0.35472 0.0
H712 H 0.74733 0.56688 0.52662 0.0
H713 H 0.80872 0.58384 0.42021 0.0
H714 H 0.78735 0.58174 0.39766 0.0
H715 H 0.78949 0.56115 0.40586 0.0
C716 C 0.73041 0.57101 0.40176 0.0
C717 C 0.72584 0.55595 0.37228 0.0
C718 C 0.74409 0.57567 0.43486 0.0
C719 C 0.75338 0.56535 0.439 0.0
C720 C 0.7487 0.55022 0.40989 0.0
H721 H 0.79514 0.53366 0.65719 0.0
H722 H 0.77704 0.54074 0.60408 0.0
C723 C 0.73519 0.54566 0.37659 0.0
C724 C 0.76707 0.56943 0.47553 0.0
H725 H 0.80979 0.5737 0.49623 0.0
C726 C 0.76116 0.56877 0.52002 0.0
C727 C 0.78529 0.57244 0.46695 0.0
C728 C 0.79314 0.57506 0.42002 0.0
C729 C 0.77245 0.56956 0.55617 0.0
C730 C 0.78981 0.57049 0.54737 0.0
C731 C 0.79632 0.57264 0.503 0.0
C732 C 0.80055 0.56739 0.58286 0.0
C733 C 0.76548 0.56903 0.6033 0.0
C734 C 0.8199 0.57981 0.58797 0.0
C735 C 0.83041 0.57558 0.61768 0.0
C736 C 0.8217 0.55887 0.64286 0.0
C737 C 0.80224 0.54672 0.63854 0.0
C738 C 0.79182 0.55085 0.60849 0.0
H739 H 0.75654 0.57564 0.60478 0.0
H740 H 0.75669 0.55419 0.61407 0.0
H741 H 0.77728 0.57635 0.62737 0.0
H742 H 0.82693 0.59258 0.56824 0.0
H743 H 0.84537 0.58525 0.62042 0.0
H744 H 0.15623 0.72064 0.7296 0.0
H745 H 0.17749 0.74312 0.78479 0.0
H746 H 0.22476 0.75623 0.69891 0.0
H747 H 0.2036 0.73338 0.64373 0.0
H748 H 0.23064 0.74946 0.78459 0.0
H749 H 0.20461 0.79992 0.78296 0.0
H750 H 0.18621 0.77626 0.79311 0.0
H751 H 0.19838 0.78224 0.74013 0.0
C752 C 0.17113 0.72842 0.72217 0.0
C753 C 0.17824 0.72524 0.68224 0.0
C754 C 0.18324 0.74136 0.75366 0.0
C755 C 0.20263 0.75156 0.74553 0.0
C756 C 0.20979 0.74855 0.7056 0.0
H757 H 0.2816 0.84397 0.91348 0.0
H758 H 0.26194 0.82466 0.85159 0.0
C759 C 0.1977 0.7355 0.67416 0.0
C760 C 0.2155 0.76453 0.77999 0.0
H761 H 0.22404 0.80208 0.84524 0.0
C762 C 0.22933 0.76108 0.79758 0.0
C763 C 0.2139 0.77981 0.79641 0.0
C764 C 0.2001 0.78491 0.77685 0.0
C765 C 0.24129 0.7722 0.83213 0.0
C766 C 0.239 0.78684 0.8502 0.0
C767 C 0.22555 0.79065 0.83172 0.0
C768 C 0.25052 0.79845 0.88813 0.0
C769 C 0.25636 0.76827 0.8486 0.0
C770 C 0.25027 0.79012 0.92942 0.0
C771 C 0.26158 0.80108 0.96479 0.0
C772 C 0.27312 0.8206 0.95959 0.0
C773 C 0.27288 0.82897 0.91857 0.0
C774 C 0.26168 0.81797 0.88315 0.0
H775 H 0.25973 0.76051 0.82317 0.0
H776 H 0.26946 0.7815 0.85708 0.0
H777 H 0.25132 0.75946 0.87929 0.0
H778 H 0.24136 0.77512 0.93425 0.0
H779 H 0.26131 0.79424 0.9961 0.0
H780 H 0.43076 0.15122 0.0731 0.0
H781 H 0.42878 0.17084 0.13178 0.0
H782 H 0.45733 0.21945 0.04604 0.0
H783 H 0.45983 0.20001 0.98738 0.0
H784 H 0.47237 0.22579 0.12942 0.0
H785 H 0.39495 0.19333 0.14084 0.0
H786 H 0.40283 0.17666 0.1473 0.0
H787 H 0.40637 0.18878 0.09473 0.0
C788 C 0.43646 0.16605 0.06648 0.0
C789 C 0.44545 0.17407 0.02556 0.0
C790 C 0.43521 0.17721 0.09999 0.0
C791 C 0.44264 0.19651 0.09293 0.0
C792 C 0.45143 0.20454 0.05198 0.0
H793 H 0.42636 0.27316 0.25905 0.0
H794 H 0.42552 0.25202 0.20049 0.0
C795 C 0.45284 0.19342 0.01854 0.0
C796 C 0.44221 0.20852 0.12922 0.0
H797 H 0.41284 0.21434 0.19983 0.0
C798 C 0.45936 0.22337 0.14468 0.0
C799 C 0.42518 0.20538 0.1487 0.0
C800 C 0.40628 0.19029 0.13177 0.0
C801 C 0.45999 0.23511 0.17952 0.0
C802 C 0.44301 0.23154 0.20013 0.0
C803 C 0.42583 0.21683 0.18432 0.0
C804 C 0.44276 0.24343 0.23693 0.0
C805 C 0.47878 0.25144 0.19322 0.0
C806 C 0.45235 0.24521 0.27723 0.0
C807 C 0.453 0.25741 0.31069 0.0
C808 C 0.44385 0.26782 0.30453 0.0
C809 C 0.43361 0.26539 0.26482 0.0
C810 C 0.43309 0.25331 0.23131 0.0
H811 H 0.48957 0.25509 0.16668 0.0
H812 H 0.47767 0.26408 0.20071 0.0
H813 H 0.48375 0.24762 0.22396 0.0
H814 H 0.45952 0.23733 0.28257 0.0
H815 H 0.46084 0.25883 0.3411 0.0
H816 H 0.3689 0.48787 0.34614 0.0
H817 H 0.39838 0.5156 0.36723 0.0
H818 H 0.39466 0.54508 0.25136 0.0
H819 H 0.36468 0.51751 0.23077 0.0
H820 H 0.43173 0.53538 0.32866 0.0
H821 H 0.40004 0.58062 0.35049 0.0
H822 H 0.38603 0.55559 0.34201 0.0
H823 H 0.39686 0.57107 0.29495 0.0
C824 C 0.37437 0.50019 0.32487 0.0
C825 C 0.3643 0.50054 0.287 0.0
C826 C 0.39125 0.51606 0.33705 0.0
C827 C 0.39851 0.53257 0.31152 0.0
C828 C 0.38903 0.53267 0.27233 0.0
H829 H 0.51103 0.62751 0.32917 0.0
H830 H 0.48291 0.59778 0.31228 0.0
C831 C 0.37198 0.51685 0.26038 0.0
C832 C 0.41581 0.5497 0.32657 0.0
H833 H 0.43335 0.5958 0.35411 0.0
C834 C 0.43207 0.54858 0.3344 0.0
C835 C 0.41612 0.5668 0.33509 0.0
C836 C 0.39878 0.56859 0.33068 0.0
C837 C 0.44874 0.56418 0.34967 0.0
C838 C 0.44932 0.58153 0.35599 0.0
C839 C 0.43295 0.58255 0.34897 0.0
C840 C 0.46684 0.59898 0.36847 0.0
C841 C 0.46543 0.56177 0.3596 0.0
C842 C 0.46713 0.60981 0.4053 0.0
C843 C 0.48316 0.62709 0.41466 0.0
C844 C 0.49921 0.63381 0.38737 0.0
C845 C 0.499 0.62269 0.35121 0.0
C846 C 0.48294 0.60558 0.34161 0.0
H847 H 0.46095 0.54694 0.36795 0.0
H848 H 0.47452 0.56565 0.32939 0.0
H849 H 0.47389 0.57084 0.38794 0.0
H850 H 0.45482 0.60503 0.42638 0.0
H851 H 0.48284 0.63531 0.44269 0.0
H852 H 0.87342 0.50997 0.63036 0.0
H853 H 0.87493 0.48236 0.60628 0.0
H854 H 0.84307 0.45205 0.72295 0.0
H855 H 0.84094 0.47941 0.74651 0.0
H856 H 0.88997 0.46375 0.64398 0.0
H857 H 0.81344 0.41563 0.62503 0.0
H858 H 0.82346 0.44058 0.63318 0.0
H859 H 0.81947 0.42536 0.68046 0.0
C860 C 0.8667 0.49742 0.6509 0.0
C861 C 0.85693 0.49684 0.69021 0.0
C862 C 0.86757 0.48164 0.63705 0.0
C863 C 0.85879 0.465 0.66228 0.0
C864 C 0.84948 0.46455 0.70221 0.0
H865 H 0.88147 0.37378 0.66048 0.0
H866 H 0.88175 0.40329 0.67099 0.0
C867 C 0.84839 0.48025 0.71583 0.0
C868 C 0.85972 0.44828 0.64728 0.0
H869 H 0.83268 0.40139 0.62542 0.0
C870 C 0.87743 0.45015 0.63953 0.0
C871 C 0.84335 0.43062 0.64047 0.0
C872 C 0.82386 0.42795 0.64474 0.0
C873 C 0.87925 0.43471 0.62664 0.0
C874 C 0.86294 0.41681 0.62266 0.0
C875 C 0.8452 0.41507 0.62893 0.0
C876 C 0.86389 0.39954 0.61389 0.0
C877 C 0.89864 0.43782 0.61707 0.0
C878 C 0.8535 0.38738 0.57868 0.0
C879 C 0.85304 0.37027 0.57299 0.0
C880 C 0.863 0.36501 0.60241 0.0
C881 C 0.87377 0.37744 0.63693 0.0
C882 C 0.87405 0.39443 0.64284 0.0
H883 H 0.90838 0.45253 0.60643 0.0
H884 H 0.90444 0.43521 0.64814 0.0
H885 H 0.8983 0.42819 0.59046 0.0
H886 H 0.84547 0.391 0.55605 0.0
H887 H 0.8446 0.36102 0.54609 0.0
H888 H 0.51318 0.88959 0.98181 0.0
H889 H 0.48508 0.89081 0.00275 0.0
H890 H 0.45061 0.83952 0.9296 0.0
H891 H 0.47868 0.83834 0.90768 0.0
H892 H 0.43955 0.86572 0.91724 0.0
H893 H 0.44853 0.85666 0.09854 0.0
H894 H 0.46847 0.87645 0.07343 0.0
H895 H 0.46182 0.85304 0.05543 0.0
C896 C 0.49965 0.87864 0.96977 0.0
C897 C 0.49817 0.86376 0.94339 0.0
C898 C 0.48359 0.8793 0.98208 0.0
C899 C 0.46575 0.865 0.96869 0.0
C900 C 0.46427 0.85061 0.94063 0.0
H901 H 0.35733 0.83511 0.08235 0.0
H902 H 0.38716 0.83723 0.06189 0.0
C903 C 0.48033 0.84998 0.92805 0.0
C904 C 0.44859 0.86484 0.98458 0.0
H905 H 0.42435 0.86319 0.07926 0.0
C906 C 0.43621 0.86517 0.95264 0.0
C907 C 0.44413 0.8638 0.0308 0.0
C908 C 0.45632 0.86228 0.06656 0.0
C909 C 0.41958 0.86471 0.96567 0.0
C910 C 0.41545 0.86431 0.01194 0.0
C911 C 0.4277 0.86375 0.04386 0.0
C912 C 0.39816 0.86393 0.0277 0.0
C913 C 0.40638 0.8642 0.92971 0.0
C914 C 0.39479 0.87857 0.01674 0.0
C915 C 0.37775 0.87738 0.0282 0.0
C916 C 0.36384 0.86158 0.05129 0.0
C917 C 0.36771 0.84744 0.06451 0.0
C918 C 0.38474 0.84861 0.05277 0.0
H919 H 0.40911 0.85961 0.89684 0.0
H920 H 0.3915 0.85457 0.93919 0.0
H921 H 0.40841 0.8785 0.92533 0.0
H922 H 0.40518 0.89075 0.99844 0.0
H923 H 0.37532 0.88862 0.01792 0.0
H924 H 0.63663 0.47699 0.23738 0.0
H925 H 0.60624 0.44892 0.25254 0.0
H926 H 0.59502 0.47901 0.35528 0.0
H927 H 0.62489 0.50718 0.33922 0.0
H928 H 0.59423 0.42865 0.32623 0.0
H929 H 0.54645 0.45601 0.28871 0.0
H930 H 0.571 0.46864 0.27371 0.0
H931 H 0.56368 0.47019 0.32982 0.0
C932 C 0.62756 0.47768 0.26276 0.0
C933 C 0.63312 0.49436 0.28686 0.0
C934 C 0.61021 0.46163 0.27144 0.0
C935 C 0.59818 0.46193 0.30452 0.0
C936 C 0.60376 0.47856 0.32867 0.0
H937 H 0.5112 0.36179 0.43881 0.0
H938 H 0.53984 0.3911 0.4197 0.0
C939 C 0.62094 0.49465 0.3196 0.0
C940 C 0.58028 0.44462 0.31561 0.0
H941 H 0.53331 0.42744 0.33111 0.0
C942 C 0.58088 0.42834 0.32691 0.0
C943 C 0.56281 0.44412 0.31595 0.0
C944 C 0.5609 0.46063 0.30091 0.0
C945 C 0.56457 0.41169 0.33925 0.0
C946 C 0.54727 0.4115 0.34193 0.0
C947 C 0.54662 0.42768 0.32984 0.0
C948 C 0.52954 0.39445 0.35539 0.0
C949 C 0.56603 0.39439 0.34824 0.0
C950 C 0.51389 0.38714 0.32679 0.0
C951 C 0.49738 0.37068 0.33812 0.0
C952 C 0.49623 0.36109 0.37818 0.0
C953 C 0.51171 0.36874 0.40751 0.0
C954 C 0.52815 0.3854 0.39642 0.0
H955 H 0.57863 0.39532 0.33191 0.0
H956 H 0.56733 0.39299 0.38493 0.0
H957 H 0.55339 0.3815 0.33601 0.0
H958 H 0.51458 0.39393 0.29509 0.0
H959 H 0.48574 0.36518 0.31471 0.0
H960 H 0.1144 0.62485 0.66528 0.0
H961 H 0.11266 0.59524 0.68479 0.0
H962 H 0.14892 0.60164 0.57336 0.0
H963 H 0.15119 0.63169 0.55418 0.0
H964 H 0.10076 0.56236 0.64096 0.0
H965 H 0.177 0.59588 0.67833 0.0
H966 H 0.16543 0.60932 0.66904 0.0
H967 H 0.17194 0.59997 0.62219 0.0
C968 C 0.12194 0.61996 0.64464 0.0
C969 C 0.13313 0.63078 0.60844 0.0
C970 C 0.1209 0.60298 0.65587 0.0
C971 C 0.13098 0.59643 0.63114 0.0
C972 C 0.14142 0.6067 0.59361 0.0
H973 H 0.11753 0.48499 0.65432 0.0
H974 H 0.1156 0.5125 0.6318 0.0
C975 C 0.14259 0.62379 0.5825 0.0
C976 C 0.1309 0.57914 0.64568 0.0
H977 H 0.1595 0.56266 0.68097 0.0
C978 C 0.11359 0.5624 0.64972 0.0
C979 C 0.14763 0.57933 0.65796 0.0
C980 C 0.16654 0.59711 0.65713 0.0
C981 C 0.11257 0.5458 0.66532 0.0
C982 C 0.12937 0.54585 0.67616 0.0
C983 C 0.14665 0.56262 0.67243 0.0
C984 C 0.12945 0.52869 0.69124 0.0
C985 C 0.09349 0.52851 0.67101 0.0
C986 C 0.13812 0.52871 0.73189 0.0
C987 C 0.1395 0.51307 0.74463 0.0
C988 C 0.1322 0.49709 0.71692 0.0
C989 C 0.12316 0.49698 0.67668 0.0
C990 C 0.12194 0.51268 0.66382 0.0
H991 H 0.08227 0.5322 0.67459 0.0
H992 H 0.09023 0.51948 0.64083 0.0
H993 H 0.09314 0.52023 0.70084 0.0
H994 H 0.14407 0.54095 0.7535 0.0
H995 H 0.14656 0.51363 0.7758 0.0
H996 H 0.62172 0.10939 0.01534 0.0
H997 H 0.59199 0.10746 0.99525 0.0
H998 H 0.60854 0.15908 0.0666 0.0
H999 H 0.6382 0.16095 0.08774 0.0
H1000 H 0.5715 0.1327 0.08038 0.0
H1001 H 0.58832 0.14039 0.8985 0.0
H1002 H 0.58891 0.12094 0.92418 0.0
H1003 H 0.60557 0.14454 0.94113 0.0
C1004 C 0.61899 0.12027 0.02714 0.0
C1005 C 0.63243 0.13544 0.05278 0.0
C1006 C 0.60204 0.1192 0.01533 0.0
C1007 C 0.59828 0.13338 0.02844 0.0
C1008 C 0.61125 0.14807 0.0558 0.0
H1009 H 0.51783 0.15998 0.91202 0.0
H1010 H 0.54591 0.15877 0.93364 0.0
C1011 C 0.62818 0.1491 0.06792 0.0
C1012 C 0.58103 0.13311 0.01287 0.0
H1013 H 0.55751 0.13333 0.9185 0.0
C1014 C 0.56843 0.13285 0.04501 0.0
C1015 C 0.57723 0.13363 0.96667 0.0
C1016 C 0.59079 0.13508 0.93059 0.0
C1017 C 0.55199 0.13286 0.03222 0.0
C1018 C 0.54788 0.13271 0.986 0.0
C1019 C 0.56059 0.1332 0.95388 0.0
C1020 C 0.53072 0.13264 0.97037 0.0
C1021 C 0.53945 0.1335 0.06835 0.0
C1022 C 0.51284 0.11803 0.98253 0.0
C1023 C 0.49678 0.11871 0.97043 0.0
C1024 C 0.49828 0.13394 0.94543 0.0
C1025 C 0.51616 0.14807 0.93131 0.0
C1026 C 0.53224 0.14743 0.94372 0.0
H1027 H 0.54702 0.13862 0.10078 0.0
H1028 H 0.53381 0.14275 0.0584 0.0
H1029 H 0.52741 0.11914 0.07386 0.0
H1030 H 0.51133 0.10623 0.00205 0.0
H1031 H 0.48321 0.10749 0.98148 0.0
loop_
_geom_bond_atom_site_label_1
_geom_bond_atom_site_label_2
_geom_bond_distance
_geom_bond_site_symmetry_2
_ccdc_geom_bond_type
O0 Cd1 2.223 . S
O0 C8 1.315 . S
Cd1 O0 2.223 . S
Cd1 O4 2.297 . S
Cd1 O5 2.439 . S
Cd1 O11 2.240 . S
Cd2 O3 2.240 . S
Cd2 O10 2.223 . S
Cd2 O12 2.297 . S
Cd2 O13 2.439 . S
O3 Cd2 2.240 . S
O3 C8 1.279 . S
O4 Cd1 2.297 . S
O4 C6 1.247 . S
O5 Cd1 2.439 . S
O5 C6 1.208 . S
C6 O4 1.247 . S
C6 O5 1.208 . S
C7 O12 1.247 . S
C7 O13 1.208 . S
C8 O0 1.315 . S
C8 O3 1.279 . S
C9 O10 1.315 . S
C9 O11 1.279 . S
O10 Cd2 2.223 . S
O10 C9 1.315 . S
O11 Cd1 2.240 . S
O11 C9 1.279 . S
O12 Cd2 2.297 . S
O12 C7 1.247 . S
O13 Cd2 2.439 . S
O13 C7 1.208 . S
O14 Cd15 2.223 . S
O14 C22 1.315 . S
Cd15 O14 2.223 . S
Cd15 O18 2.297 . S
Cd15 O19 2.439 . S
Cd15 O25 2.240 . S
Cd16 O17 2.240 . S
Cd16 O24 2.223 . S
Cd16 O26 2.297 . S
Cd16 O27 2.439 . S
O17 Cd16 2.240 . S
O17 C22 1.279 . S
O18 Cd15 2.297 . S
O18 C20 1.247 . S
O19 Cd15 2.439 . S
O19 C20 1.208 . S
C20 O18 1.247 . S
C20 O19 1.208 . S
C21 O26 1.247 . S
C21 O27 1.208 . S
C22 O14 1.315 . S
C22 O17 1.279 . S
C23 O24 1.315 . S
C23 O25 1.279 . S
O24 Cd16 2.223 . S
O24 C23 1.315 . S
O25 Cd15 2.240 . S
O25 C23 1.279 . S
O26 Cd16 2.297 . S
O26 C21 1.247 . S
O27 Cd16 2.439 . S
O27 C21 1.208 . S
O28 Cd29 2.223 . S
O28 C36 1.315 . S
Cd29 O28 2.223 . S
Cd29 O32 2.297 . S
Cd29 O33 2.439 . S
Cd29 O39 2.240 . S
Cd30 O31 2.240 . S
Cd30 O38 2.223 1_556 S
Cd30 O40 2.297 . S
Cd30 O41 2.439 . S
O31 Cd30 2.240 . S
O31 C36 1.279 . S
O32 Cd29 2.297 . S
O32 C34 1.247 . S
O33 Cd29 2.439 . S
O33 C34 1.208 . S
C34 O32 1.247 . S
C34 O33 1.208 . S
C35 O40 1.247 . S
C35 O41 1.208 . S
C36 O28 1.315 . S
C36 O31 1.279 . S
C37 O38 1.315 1_556 S
C37 O39 1.279 . S
O38 Cd30 2.223 1_554 S
O38 C37 1.315 1_554 S
O39 Cd29 2.240 . S
O39 C37 1.279 . S
O40 Cd30 2.297 . S
O40 C35 1.247 . S
O41 Cd30 2.439 . S
O41 C35 1.208 . S
O42 Cd43 2.223 . S
O42 C50 1.315 . S
Cd43 O42 2.223 . S
Cd43 O46 2.297 . S
Cd43 O47 2.439 . S
Cd43 O53 2.240 . S
Cd44 O45 2.240 . S
Cd44 O52 2.223 . S
Cd44 O54 2.297 . S
Cd44 O55 2.439 . S
O45 Cd44 2.240 . S
O45 C50 1.279 . S
O46 Cd43 2.297 . S
O46 C48 1.247 . S
O47 Cd43 2.439 . S
O47 C48 1.208 . S
C48 O46 1.247 . S
C48 O47 1.208 . S
C49 O54 1.247 . S
C49 O55 1.208 . S
C50 O42 1.315 . S
C50 O45 1.279 . S
C51 O52 1.315 . S
C51 O53 1.279 . S
O52 Cd44 2.223 . S
O52 C51 1.315 . S
O53 Cd43 2.240 . S
O53 C51 1.279 . S
O54 Cd44 2.297 . S
O54 C49 1.247 . S
O55 Cd44 2.439 . S
O55 C49 1.208 . S
O56 Cd57 2.223 . S
O56 C64 1.315 . S
Cd57 O56 2.223 . S
Cd57 O60 2.297 . S
Cd57 O61 2.439 . S
Cd57 O67 2.240 . S
Cd58 O59 2.240 . S
Cd58 O66 2.223 . S
Cd58 O68 2.297 . S
Cd58 O69 2.439 . S
O59 Cd58 2.240 . S
O59 C64 1.279 . S
O60 Cd57 2.297 . S
O60 C62 1.247 . S
O61 Cd57 2.439 . S
O61 C62 1.208 . S
C62 O60 1.247 . S
C62 O61 1.208 . S
C63 O68 1.247 . S
C63 O69 1.208 . S
C64 O56 1.315 . S
C64 O59 1.279 . S
C65 O66 1.315 . S
C65 O67 1.279 . S
O66 Cd58 2.223 . S
O66 C65 1.315 . S
O67 Cd57 2.240 . S
O67 C65 1.279 . S
O68 Cd58 2.297 . S
O68 C63 1.247 . S
O69 Cd58 2.439 . S
O69 C63 1.208 . S
O70 Cd71 2.223 . S
O70 C78 1.315 . S
Cd71 O70 2.223 . S
Cd71 O74 2.297 . S
Cd71 O75 2.439 . S
Cd71 O81 2.240 . S
Cd72 O73 2.240 . S
Cd72 O80 2.223 1_556 S
Cd72 O82 2.297 . S
Cd72 O83 2.439 . S
O73 Cd72 2.240 . S
O73 C78 1.279 . S
O74 Cd71 2.297 . S
O74 C76 1.247 . S
O75 Cd71 2.439 . S
O75 C76 1.208 . S
C76 O74 1.247 . S
C76 O75 1.208 . S
C77 O82 1.247 . S
C77 O83 1.208 . S
C78 O70 1.315 . S
C78 O73 1.279 . S
C79 O80 1.315 1_556 S
C79 O81 1.279 . S
O80 Cd72 2.223 1_554 S
O80 C79 1.315 1_554 S
O81 Cd71 2.240 . S
O81 C79 1.279 . S
O82 Cd72 2.297 . S
O82 C77 1.247 . S
O83 Cd72 2.439 . S
O83 C77 1.208 . S
O84 Cd85 2.223 . S
O84 C92 1.315 . S
Cd85 O84 2.223 . S
Cd85 O88 2.297 . S
Cd85 O89 2.439 . S
Cd85 O95 2.240 . S
Cd86 O87 2.240 . S
Cd86 O94 2.223 . S
Cd86 O96 2.297 . S
Cd86 O97 2.439 . S
O87 Cd86 2.240 . S
O87 C92 1.279 . S
O88 Cd85 2.297 . S
O88 C90 1.247 . S
O89 Cd85 2.439 . S
O89 C90 1.208 . S
C90 O88 1.247 . S
C90 O89 1.208 . S
C91 O96 1.247 . S
C91 O97 1.208 . S
C92 O84 1.315 . S
C92 O87 1.279 . S
C93 O94 1.315 . S
C93 O95 1.279 . S
O94 Cd86 2.223 . S
O94 C93 1.315 . S
O95 Cd85 2.240 . S
O95 C93 1.279 . S
O96 Cd86 2.297 . S
O96 C91 1.247 . S
O97 Cd86 2.439 . S
O97 C91 1.208 . S
O98 Cd99 2.223 . S
O98 C106 1.315 . S
Cd99 O98 2.223 . S
Cd99 O102 2.297 . S
Cd99 O103 2.439 . S
Cd99 O109 2.240 . S
Cd100 O101 2.240 . S
Cd100 O108 2.223 . S
Cd100 O110 2.297 . S
Cd100 O111 2.439 . S
O101 Cd100 2.240 . S
O101 C106 1.279 . S
O102 Cd99 2.297 . S
O102 C104 1.247 . S
O103 Cd99 2.439 . S
O103 C104 1.208 . S
C104 O102 1.247 . S
C104 O103 1.208 . S
C105 O110 1.247 . S
C105 O111 1.208 . S
C106 O98 1.315 . S
C106 O101 1.279 . S
C107 O108 1.315 . S
C107 O109 1.279 . S
O108 Cd100 2.223 . S
O108 C107 1.315 . S
O109 Cd99 2.240 . S
O109 C107 1.279 . S
O110 Cd100 2.297 . S
O110 C105 1.247 . S
O111 Cd100 2.439 . S
O111 C105 1.208 . S
O112 Cd113 2.223 . S
O112 C120 1.315 . S
Cd113 O112 2.223 . S
Cd113 O116 2.297 . S
Cd113 O117 2.439 . S
Cd113 O123 2.240 . S
Cd114 O115 2.240 . S
Cd114 O122 2.223 1_554 S
Cd114 O124 2.297 . S
Cd114 O125 2.439 . S
O115 Cd114 2.240 . S
O115 C120 1.279 . S
O116 Cd113 2.297 . S
O116 C118 1.247 . S
O117 Cd113 2.439 . S
O117 C118 1.208 . S
C118 O116 1.247 . S
C118 O117 1.208 . S
C119 O124 1.247 . S
C119 O125 1.208 . S
C120 O112 1.315 . S
C120 O115 1.279 . S
C121 O122 1.315 1_554 S
C121 O123 1.279 . S
O122 Cd114 2.223 1_556 S
O122 C121 1.315 1_556 S
O123 Cd113 2.240 . S
O123 C121 1.279 . S
O124 Cd114 2.297 . S
O124 C119 1.247 . S
O125 Cd114 2.439 . S
O125 C119 1.208 . S
O126 Cd127 2.223 . S
O126 C134 1.315 . S
Cd127 O126 2.223 . S
Cd127 O130 2.297 . S
Cd127 O131 2.439 . S
Cd127 O137 2.240 . S
Cd128 O129 2.240 . S
Cd128 O136 2.223 . S
Cd128 O138 2.297 . S
Cd128 O139 2.439 . S
O129 Cd128 2.240 . S
O129 C134 1.279 . S
O130 Cd127 2.297 . S
O130 C132 1.247 . S
O131 Cd127 2.439 . S
O131 C132 1.208 . S
C132 O130 1.247 . S
C132 O131 1.208 . S
C133 O138 1.247 . S
C133 O139 1.208 . S
C134 O126 1.315 . S
C134 O129 1.279 . S
C135 O136 1.315 . S
C135 O137 1.279 . S
O136 Cd128 2.223 . S
O136 C135 1.315 . S
O137 Cd127 2.240 . S
O137 C135 1.279 . S
O138 Cd128 2.297 . S
O138 C133 1.247 . S
O139 Cd128 2.439 . S
O139 C133 1.208 . S
O140 Cd141 2.223 . S
O140 C148 1.315 . S
Cd141 O140 2.223 . S
Cd141 O144 2.297 . S
Cd141 O145 2.439 . S
Cd141 O151 2.240 . S
Cd142 O143 2.240 . S
Cd142 O150 2.223 . S
Cd142 O152 2.297 . S
Cd142 O153 2.439 . S
O143 Cd142 2.240 . S
O143 C148 1.279 . S
O144 Cd141 2.297 . S
O144 C146 1.247 . S
O145 Cd141 2.439 . S
O145 C146 1.208 . S
C146 O144 1.247 . S
C146 O145 1.208 . S
C147 O152 1.247 . S
C147 O153 1.208 . S
C148 O140 1.315 . S
C148 O143 1.279 . S
C149 O150 1.315 . S
C149 O151 1.279 . S
O150 Cd142 2.223 . S
O150 C149 1.315 . S
O151 Cd141 2.240 . S
O151 C149 1.279 . S
O152 Cd142 2.297 . S
O152 C147 1.247 . S
O153 Cd142 2.439 . S
O153 C147 1.208 . S
O154 Cd155 2.223 . S
O154 C162 1.315 . S
Cd155 O154 2.223 . S
Cd155 O158 2.297 . S
Cd155 O159 2.439 . S
Cd155 O165 2.240 . S
Cd156 O157 2.240 . S
Cd156 O164 2.223 1_554 S
Cd156 O166 2.297 . S
Cd156 O167 2.439 . S
O157 Cd156 2.240 . S
O157 C162 1.279 . S
O158 Cd155 2.297 . S
O158 C160 1.247 . S
O159 Cd155 2.439 . S
O159 C160 1.208 . S
C160 O158 1.247 . S
C160 O159 1.208 . S
C161 O166 1.247 . S
C161 O167 1.208 . S
C162 O154 1.315 . S
C162 O157 1.279 . S
C163 O164 1.315 1_554 S
C163 O165 1.279 . S
O164 Cd156 2.223 1_556 S
O164 C163 1.315 1_556 S
O165 Cd155 2.240 . S
O165 C163 1.279 . S
O166 Cd156 2.297 . S
O166 C161 1.247 . S
O167 Cd156 2.439 . S
O167 C161 1.208 . S
H168 C176 0.929 . S
H169 C178 0.930 . S
H170 C180 0.930 . S
H171 C183 0.929 . S
H172 C186 0.930 . S
H173 C188 0.960 . S
H174 C188 0.960 . S
H175 C188 0.960 . S
C176 H168 0.929 . S
C176 C177 1.377 . S
C176 C178 1.384 . S
C177 C176 1.377 . S
C177 C183 1.390 . S
C178 H169 0.930 . S
C178 C176 1.384 . S
C178 C179 1.372 . S
C179 C178 1.372 . S
C179 C180 1.400 . S
C179 C184 1.490 . S
C180 H170 0.930 . S
C180 C179 1.400 . S
C180 C183 1.386 . S
H181 C197 0.930 . S
H182 C198 0.931 . S
C183 H171 0.929 . S
C183 C177 1.390 . S
C183 C180 1.386 . S
C184 C179 1.490 . S
C184 C186 1.395 . S
C184 C187 1.403 . S
H185 C191 0.930 . S
C186 H172 0.930 . S
C186 C184 1.395 . S
C186 C189 1.403 . S
C187 C184 1.403 . S
C187 C188 1.524 . S
C187 C191 1.400 . S
C188 H173 0.960 . S
C188 H174 0.960 . S
C188 H175 0.960 . S
C188 C187 1.524 . S
C189 C186 1.403 . S
C189 C190 1.392 . S
C189 C193 1.495 . S
C190 C189 1.392 . S
C190 C191 1.385 . S
C190 C192 1.478 . S
C191 H185 0.930 . S
C191 C187 1.400 . S
C191 C190 1.385 . S
C192 C190 1.478 . S
C192 C194 1.381 . S
C192 C198 1.383 . S
C193 C189 1.495 . S
C193 H199 0.959 . S
C193 H200 0.961 . S
C193 H201 0.960 . S
C194 C192 1.381 . S
C194 C195 1.394 . S
C194 H202 0.930 . S
C195 C194 1.394 . S
C195 C196 1.383 . S
C195 H203 0.929 . S
C196 C195 1.383 . S
C196 C197 1.377 . S
C197 H181 0.930 . S
C197 C196 1.377 . S
C197 C198 1.379 . S
C198 H182 0.931 . S
C198 C192 1.383 . S
C198 C197 1.379 . S
H199 C193 0.959 . S
H200 C193 0.961 . S
H201 C193 0.960 . S
H202 C194 0.930 . S
H203 C195 0.929 . S
H204 C212 0.929 . S
H205 C214 0.930 . S
H206 C216 0.930 . S
H207 C219 0.929 . S
H208 C222 0.930 . S
H209 C224 0.960 . S
H210 C224 0.960 . S
H211 C224 0.960 . S
C212 H204 0.929 . S
C212 C213 1.377 . S
C212 C214 1.384 . S
C213 C212 1.377 . S
C213 C219 1.390 . S
C214 H205 0.930 . S
C214 C212 1.384 . S
C214 C215 1.372 . S
C215 C214 1.372 . S
C215 C216 1.400 . S
C215 C220 1.490 . S
C216 H206 0.930 . S
C216 C215 1.400 . S
C216 C219 1.386 . S
H217 C233 0.930 . S
H218 C234 0.931 . S
C219 H207 0.929 . S
C219 C213 1.390 . S
C219 C216 1.386 . S
C220 C215 1.490 . S
C220 C222 1.395 . S
C220 C223 1.403 . S
H221 C227 0.930 . S
C222 H208 0.930 . S
C222 C220 1.395 . S
C222 C225 1.403 1_655 S
C223 C220 1.403 . S
C223 C224 1.524 . S
C223 C227 1.400 1_655 S
C224 H209 0.960 . S
C224 H210 0.960 . S
C224 H211 0.960 . S
C224 C223 1.524 . S
C225 C222 1.403 1_455 S
C225 C226 1.392 . S
C225 C229 1.495 . S
C226 C225 1.392 . S
C226 C227 1.385 . S
C226 C228 1.478 . S
C227 H221 0.930 . S
C227 C223 1.400 1_455 S
C227 C226 1.385 . S
C228 C226 1.478 . S
C228 C230 1.381 . S
C228 C234 1.383 . S
C229 C225 1.495 . S
C229 H235 0.959 . S
C229 H236 0.961 . S
C229 H237 0.960 . S
C230 C228 1.381 . S
C230 C231 1.394 . S
C230 H238 0.930 . S
C231 C230 1.394 . S
C231 C232 1.383 . S
C231 H239 0.929 . S
C232 C231 1.383 . S
C232 C233 1.377 . S
C233 H217 0.930 . S
C233 C232 1.377 . S
C233 C234 1.379 . S
C234 H218 0.931 . S
C234 C228 1.383 . S
C234 C233 1.379 . S
H235 C229 0.959 . S
H236 C229 0.961 . S
H237 C229 0.960 . S
H238 C230 0.930 . S
H239 C231 0.929 . S
H240 C248 0.929 . S
H241 C250 0.930 . S
H242 C252 0.930 . S
H243 C255 0.929 . S
H244 C258 0.930 . S
H245 C260 0.960 1_545 S
H246 C260 0.960 . S
H247 C260 0.960 . S
C248 H240 0.929 . S
C248 C249 1.377 . S
C248 C250 1.384 . S
C249 C248 1.377 . S
C249 C255 1.390 . S
C250 H241 0.930 . S
C250 C248 1.384 . S
C250 C251 1.372 . S
C251 C250 1.372 . S
C251 C252 1.400 . S
C251 C256 1.490 . S
C252 H242 0.930 . S
C252 C251 1.400 . S
C252 C255 1.386 . S
H253 C269 0.930 . S
H254 C270 0.931 . S
C255 H243 0.929 . S
C255 C249 1.390 . S
C255 C252 1.386 . S
C256 C251 1.490 . S
C256 C258 1.395 1_556 S
C256 C259 1.403 . S
H257 C263 0.930 . S
C258 H244 0.930 . S
C258 C256 1.395 1_554 S
C258 C261 1.403 1_565 S
C259 C256 1.403 . S
C259 C260 1.524 . S
C259 C263 1.400 1_565 S
C260 H245 0.960 1_565 S
C260 H246 0.960 . S
C260 H247 0.960 . S
C260 C259 1.524 . S
C261 C258 1.403 1_545 S
C261 C262 1.392 . S
C261 C265 1.495 . S
C262 C261 1.392 . S
C262 C263 1.385 1_554 S
C262 C264 1.478 . S
C263 H257 0.930 . S
C263 C259 1.400 1_545 S
C263 C262 1.385 1_556 S
C264 C262 1.478 . S
C264 C266 1.381 . S
C264 C270 1.383 . S
C265 C261 1.495 . S
C265 H271 0.959 1_545 S
C265 H272 0.961 . S
C265 H273 0.960 . S
C266 C264 1.381 . S
C266 C267 1.394 . S
C266 H274 0.930 . S
C267 C266 1.394 . S
C267 C268 1.383 . S
C267 H275 0.929 . S
C268 C267 1.383 . S
C268 C269 1.377 . S
C269 H253 0.930 . S
C269 C268 1.377 . S
C269 C270 1.379 . S
C270 H254 0.931 . S
C270 C264 1.383 . S
C270 C269 1.379 . S
H271 C265 0.959 1_565 S
H272 C265 0.961 . S
H273 C265 0.960 . S
H274 C266 0.930 . S
H275 C267 0.929 . S
H276 C284 0.929 . S
H277 C286 0.930 . S
H278 C288 0.930 . S
H279 C291 0.929 . S
H280 C294 0.930 . S
H281 C296 0.960 . S
H282 C296 0.960 . S
H283 C296 0.960 . S
C284 H276 0.929 . S
C284 C285 1.377 . S
C284 C286 1.384 . S
C285 C284 1.377 . S
C285 C291 1.390 . S
C286 H277 0.930 . S
C286 C284 1.384 . S
C286 C287 1.372 . S
C287 C286 1.372 . S
C287 C288 1.400 . S
C287 C292 1.490 . S
C288 H278 0.930 . S
C288 C287 1.400 . S
C288 C291 1.386 . S
H289 C305 0.930 . S
H290 C306 0.931 . S
C291 H279 0.929 . S
C291 C285 1.390 . S
C291 C288 1.386 . S
C292 C287 1.490 . S
C292 C294 1.395 . S
C292 C295 1.403 . S
H293 C299 0.930 . S
C294 H280 0.930 . S
C294 C292 1.395 . S
C294 C297 1.403 . S
C295 C292 1.403 . S
C295 C296 1.524 . S
C295 C299 1.400 . S
C296 H281 0.960 . S
C296 H282 0.960 . S
C296 H283 0.960 . S
C296 C295 1.524 . S
C297 C294 1.403 . S
C297 C298 1.392 . S
C297 C301 1.495 . S
C298 C297 1.392 . S
C298 C299 1.385 . S
C298 C300 1.478 . S
C299 H293 0.930 . S
C299 C295 1.400 . S
C299 C298 1.385 . S
C300 C298 1.478 . S
C300 C302 1.381 . S
C300 C306 1.383 . S
C301 C297 1.495 . S
C301 H307 0.959 . S
C301 H308 0.961 . S
C301 H309 0.960 . S
C302 C300 1.381 . S
C302 C303 1.394 . S
C302 H310 0.930 . S
C303 C302 1.394 . S
C303 C304 1.383 . S
C303 H311 0.929 . S
C304 C303 1.383 . S
C304 C305 1.377 . S
C305 H289 0.930 . S
C305 C304 1.377 . S
C305 C306 1.379 . S
C306 H290 0.931 . S
C306 C300 1.383 . S
C306 C305 1.379 . S
H307 C301 0.959 . S
H308 C301 0.961 . S
H309 C301 0.960 . S
H310 C302 0.930 . S
H311 C303 0.929 . S
H312 C320 0.929 . S
H313 C322 0.930 . S
H314 C324 0.930 . S
H315 C327 0.929 . S
H316 C330 0.930 . S
H317 C332 0.893 1_455 S
H318 C332 0.960 . S
H319 C332 0.960 . S
C320 H312 0.929 . S
C320 C321 1.377 . S
C320 C322 1.384 . S
C321 C320 1.377 . S
C321 C327 1.390 . S
C322 H313 0.930 . S
C322 C320 1.384 . S
C322 C323 1.372 . S
C323 C322 1.372 . S
C323 C324 1.400 . S
C323 C328 1.490 . S
C324 H314 0.930 . S
C324 C323 1.400 . S
C324 C327 1.386 . S
H325 C341 0.930 . S
H326 C342 0.931 . S
C327 H315 0.929 . S
C327 C321 1.390 . S
C327 C324 1.386 . S
C328 C323 1.490 . S
C328 C330 1.395 . S
C328 C331 1.403 . S
H329 C335 0.930 . S
C330 H316 0.930 . S
C330 C328 1.395 . S
C330 C333 1.403 1_655 S
C331 C328 1.403 . S
C331 C332 1.524 . S
C331 C335 1.400 1_655 S
C332 H317 0.893 1_655 S
C332 H318 0.960 . S
C332 H319 0.960 . S
C332 C331 1.524 . S
C333 C330 1.403 1_455 S
C333 C334 1.392 . S
C333 C337 1.495 . S
C334 C333 1.392 . S
C334 C335 1.385 . S
C334 C336 1.478 . S
C335 H329 0.930 . S
C335 C331 1.400 1_455 S
C335 C334 1.385 . S
C336 C334 1.478 . S
C336 C338 1.381 . S
C336 C342 1.383 . S
C337 C333 1.495 . S
C337 H343 0.959 1_455 S
C337 H344 0.961 . S
C337 H345 0.960 . S
C338 C336 1.381 . S
C338 C339 1.394 . S
C338 H346 0.930 . S
C339 C338 1.394 . S
C339 C340 1.383 . S
C339 H347 0.929 . S
C340 C339 1.383 . S
C340 C341 1.377 . S
C341 H325 0.930 . S
C341 C340 1.377 . S
C341 C342 1.379 . S
C342 H326 0.931 . S
C342 C336 1.383 . S
C342 C341 1.379 . S
H343 C337 0.959 1_655 S
H344 C337 0.961 . S
H345 C337 0.960 . S
H346 C338 0.930 . S
H347 C339 0.929 . S
H348 C356 0.929 . S
H349 C358 0.930 1_556 S
H350 C360 0.930 . S
H351 C363 0.929 . S
H352 C366 0.930 . S
H353 C368 0.960 1_545 S
H354 C368 0.960 . S
H355 C368 0.960 . S
C356 H348 0.929 . S
C356 C357 1.377 . S
C356 C358 1.384 . S
C357 C356 1.377 . S
C357 C363 1.390 . S
C358 H349 0.930 1_554 S
C358 C356 1.384 . S
C358 C359 1.372 . S
C359 C358 1.372 . S
C359 C360 1.400 . S
C359 C364 1.490 . S
C360 H350 0.930 . S
C360 C359 1.400 . S
C360 C363 1.386 . S
H361 C377 0.930 . S
H362 C378 0.931 . S
C363 H351 0.929 . S
C363 C357 1.390 . S
C363 C360 1.386 . S
C364 C359 1.490 . S
C364 C366 1.395 1_554 S
C364 C367 1.403 . S
H365 C371 0.930 . S
C366 H352 0.930 . S
C366 C364 1.395 1_556 S
C366 C369 1.403 1_565 S
C367 C364 1.403 . S
C367 C368 1.524 . S
C367 C371 1.400 1_565 S
C368 H353 0.960 1_565 S
C368 H354 0.960 . S
C368 H355 0.960 . S
C368 C367 1.524 . S
C369 C366 1.403 1_545 S
C369 C370 1.392 . S
C369 C373 1.495 . S
C370 C369 1.392 . S
C370 C371 1.385 1_556 S
C370 C372 1.478 . S
C371 H365 0.930 . S
C371 C367 1.400 1_545 S
C371 C370 1.385 1_554 S
C372 C370 1.478 . S
C372 C374 1.381 . S
C372 C378 1.383 . S
C373 C369 1.495 . S
C373 H379 0.959 1_545 S
C373 H380 0.961 . S
C373 H381 0.960 . S
C374 C372 1.381 . S
C374 C375 1.394 . S
C374 H382 0.930 . S
C375 C374 1.394 . S
C375 C376 1.383 . S
C375 H383 0.929 . S
C376 C375 1.383 . S
C376 C377 1.377 . S
C377 H361 0.930 . S
C377 C376 1.377 . S
C377 C378 1.379 . S
C378 H362 0.931 . S
C378 C372 1.383 . S
C378 C377 1.379 . S
H379 C373 0.959 1_565 S
H380 C373 0.961 . S
H381 C373 0.960 . S
H382 C374 0.930 . S
H383 C375 0.929 . S
H384 C392 0.929 . S
H385 C394 0.930 . S
H386 C396 0.930 . S
H387 C399 0.929 . S
H388 C402 0.930 . S
H389 C404 0.960 . S
H390 C404 0.960 . S
H391 C404 0.960 . S
C392 H384 0.929 . S
C392 C393 1.377 . S
C392 C394 1.384 . S
C393 C392 1.377 . S
C393 C399 1.390 . S
C394 H385 0.930 . S
C394 C392 1.384 . S
C394 C395 1.372 . S
C395 C394 1.372 . S
C395 C396 1.400 . S
C395 C400 1.490 . S
C396 H386 0.930 . S
C396 C395 1.400 . S
C396 C399 1.386 . S
H397 C413 0.930 . S
H398 C414 0.931 . S
C399 H387 0.929 . S
C399 C393 1.390 . S
C399 C396 1.386 . S
C400 C395 1.490 . S
C400 C402 1.395 1_556 S
C400 C403 1.403 . S
H401 C407 0.931 . S
C402 H388 0.930 . S
C402 C400 1.395 1_554 S
C402 C405 1.403 . S
C403 C400 1.403 . S
C403 C404 1.524 . S
C403 C407 1.407 . S
C404 H389 0.960 . S
C404 H390 0.960 . S
C404 H391 0.960 . S
C404 C403 1.524 . S
C405 C402 1.403 . S
C405 C406 1.392 . S
C405 C409 1.495 . S
C406 C405 1.392 . S
C406 C407 1.378 1_554 S
C406 C408 1.478 . S
C407 H401 0.931 . S
C407 C403 1.407 . S
C407 C406 1.378 1_556 S
C408 C406 1.478 . S
C408 C410 1.381 . S
C408 C414 1.383 . S
C409 C405 1.495 . S
C409 H415 0.959 . S
C409 H416 0.961 . S
C409 H417 0.960 . S
C410 C408 1.381 . S
C410 C411 1.394 . S
C410 H418 0.930 . S
C411 C410 1.394 . S
C411 C412 1.383 . S
C411 H419 0.929 . S
C412 C411 1.383 . S
C412 C413 1.377 . S
C413 H397 0.930 . S
C413 C412 1.377 . S
C413 C414 1.379 . S
C414 H398 0.931 . S
C414 C408 1.383 . S
C414 C413 1.379 . S
H415 C409 0.959 . S
H416 C409 0.961 . S
H417 C409 0.960 . S
H418 C410 0.930 . S
H419 C411 0.929 . S
H420 C428 0.929 . S
H421 C430 0.930 . S
H422 C432 0.930 . S
H423 C435 0.929 . S
H424 C438 0.930 . S
H425 C440 0.960 . S
H426 C440 0.960 . S
H427 C440 0.960 . S
C428 H420 0.929 . S
C428 C429 1.377 . S
C428 C430 1.384 . S
C429 C428 1.377 . S
C429 C435 1.390 . S
C430 H421 0.930 . S
C430 C428 1.384 . S
C430 C431 1.372 . S
C431 C430 1.372 . S
C431 C432 1.400 . S
C431 C436 1.490 . S
C432 H422 0.930 . S
C432 C431 1.400 . S
C432 C435 1.386 . S
H433 C449 0.930 . S
H434 C450 0.931 . S
C435 H423 0.929 . S
C435 C429 1.390 . S
C435 C432 1.386 . S
C436 C431 1.490 . S
C436 C438 1.395 . S
C436 C439 1.403 . S
H437 C443 0.930 . S
C438 H424 0.930 . S
C438 C436 1.395 . S
C438 C441 1.403 . S
C439 C436 1.403 . S
C439 C440 1.524 . S
C439 C443 1.400 . S
C440 H425 0.960 . S
C440 H426 0.960 . S
C440 H427 0.960 . S
C440 C439 1.524 . S
C441 C438 1.403 . S
C441 C442 1.392 . S
C441 C445 1.495 . S
C442 C441 1.392 . S
C442 C443 1.385 . S
C442 C444 1.478 . S
C443 H437 0.930 . S
C443 C439 1.400 . S
C443 C442 1.385 . S
C444 C442 1.478 . S
C444 C446 1.381 . S
C444 C450 1.383 . S
C445 C441 1.495 . S
C445 H451 0.959 . S
C445 H452 0.961 . S
C445 H453 0.960 . S
C446 C444 1.381 . S
C446 C447 1.394 . S
C446 H454 0.930 . S
C447 C446 1.394 . S
C447 C448 1.383 . S
C447 H455 0.929 . S
C448 C447 1.383 . S
C448 C449 1.377 . S
C449 H433 0.930 . S
C449 C448 1.377 . S
C449 C450 1.379 . S
C450 H434 0.931 . S
C450 C444 1.383 . S
C450 C449 1.379 . S
H451 C445 0.959 . S
H452 C445 0.961 . S
H453 C445 0.960 . S
H454 C446 0.930 . S
H455 C447 0.929 . S
H456 C464 0.929 . S
H457 C466 0.930 . S
H458 C468 0.930 . S
H459 C471 0.929 . S
H460 C474 0.930 . S
H461 C476 0.960 . S
H462 C476 0.960 . S
H463 C476 0.960 . S
C464 H456 0.929 . S
C464 C465 1.377 . S
C464 C466 1.384 . S
C465 C464 1.377 . S
C465 C471 1.390 . S
C466 H457 0.930 . S
C466 C464 1.384 . S
C466 C467 1.372 . S
C467 C466 1.372 . S
C467 C468 1.400 . S
C467 C472 1.490 . S
C468 H458 0.930 . S
C468 C467 1.400 . S
C468 C471 1.386 . S
H469 C485 0.930 . S
H470 C486 0.931 . S
C471 H459 0.929 . S
C471 C465 1.390 . S
C471 C468 1.386 . S
C472 C467 1.490 . S
C472 C474 1.395 . S
C472 C475 1.403 . S
H473 C479 0.930 . S
C474 H460 0.930 . S
C474 C472 1.395 . S
C474 C477 1.403 . S
C475 C472 1.403 . S
C475 C476 1.524 . S
C475 C479 1.400 . S
C476 H461 0.960 . S
C476 H462 0.960 . S
C476 H463 0.960 . S
C476 C475 1.524 . S
C477 C474 1.403 . S
C477 C478 1.392 . S
C477 C481 1.495 . S
C478 C477 1.392 . S
C478 C479 1.385 . S
C478 C480 1.478 . S
C479 H473 0.930 . S
C479 C475 1.400 . S
C479 C478 1.385 . S
C480 C478 1.478 . S
C480 C482 1.381 . S
C480 C486 1.383 . S
C481 C477 1.495 . S
C481 H487 0.959 . S
C481 H488 0.961 . S
C481 H489 0.960 . S
C482 C480 1.381 . S
C482 C483 1.394 . S
C482 H490 0.930 . S
C483 C482 1.394 . S
C483 C484 1.383 . S
C483 H491 0.929 . S
C484 C483 1.383 . S
C484 C485 1.377 . S
C485 H469 0.930 . S
C485 C484 1.377 . S
C485 C486 1.379 . S
C486 H470 0.931 . S
C486 C480 1.383 . S
C486 C485 1.379 . S
H487 C481 0.959 . S
H488 C481 0.961 . S
H489 C481 0.960 . S
H490 C482 0.930 . S
H491 C483 0.929 . S
H492 C500 0.929 . S
H493 C502 0.930 . S
H494 C504 0.930 . S
H495 C507 0.929 . S
H496 C510 0.930 . S
H497 C512 0.960 . S
H498 C512 0.960 . S
H499 C512 0.960 . S
C500 H492 0.929 . S
C500 C501 1.377 . S
C500 C502 1.384 . S
C501 C500 1.377 . S
C501 C507 1.390 . S
C502 H493 0.930 . S
C502 C500 1.384 . S
C502 C503 1.372 . S
C503 C502 1.372 . S
C503 C504 1.400 . S
C503 C508 1.490 . S
C504 H494 0.930 . S
C504 C503 1.400 . S
C504 C507 1.386 . S
H505 C521 0.930 . S
H506 C522 0.931 . S
C507 H495 0.929 . S
C507 C501 1.390 . S
C507 C504 1.386 . S
C508 C503 1.490 . S
C508 C510 1.395 . S
C508 C511 1.403 . S
H509 C515 0.930 . S
C510 H496 0.930 . S
C510 C508 1.395 . S
C510 C513 1.403 1_554 S
C511 C508 1.403 . S
C511 C512 1.524 . S
C511 C515 1.400 1_554 S
C512 H497 0.960 . S
C512 H498 0.960 . S
C512 H499 0.960 . S
C512 C511 1.524 . S
C513 C510 1.403 1_556 S
C513 C514 1.392 . S
C513 C517 1.495 . S
C514 C513 1.392 . S
C514 C515 1.385 . S
C514 C516 1.478 . S
C515 H509 0.930 . S
C515 C511 1.400 1_556 S
C515 C514 1.385 . S
C516 C514 1.478 . S
C516 C518 1.381 . S
C516 C522 1.383 . S
C517 C513 1.495 . S
C517 H523 0.959 . S
C517 H524 0.961 . S
C517 H525 0.960 . S
C518 C516 1.381 . S
C518 C519 1.394 . S
C518 H526 0.930 . S
C519 C518 1.394 . S
C519 C520 1.383 . S
C519 H527 0.929 . S
C520 C519 1.383 . S
C520 C521 1.377 . S
C521 H505 0.930 . S
C521 C520 1.377 . S
C521 C522 1.379 . S
C522 H506 0.931 . S
C522 C516 1.383 . S
C522 C521 1.379 . S
H523 C517 0.959 . S
H524 C517 0.961 . S
H525 C517 0.960 . S
H526 C518 0.930 . S
H527 C519 0.929 . S
H528 C536 0.929 . S
H529 C538 0.930 . S
H530 C540 0.930 . S
H531 C543 0.929 . S
H532 C546 0.930 . S
H533 C548 0.960 . S
H534 C548 0.960 . S
H535 C548 0.960 . S
C536 H528 0.929 . S
C536 C537 1.377 . S
C536 C538 1.384 . S
C537 C536 1.377 . S
C537 C543 1.390 . S
C538 H529 0.930 . S
C538 C536 1.384 . S
C538 C539 1.372 . S
C539 C538 1.372 . S
C539 C540 1.400 . S
C539 C544 1.490 . S
C540 H530 0.930 . S
C540 C539 1.400 . S
C540 C543 1.386 . S
H541 C557 0.930 . S
H542 C558 0.931 . S
C543 H531 0.929 . S
C543 C537 1.390 . S
C543 C540 1.386 . S
C544 C539 1.490 . S
C544 C546 1.395 . S
C544 C547 1.403 . S
H545 C551 0.930 . S
C546 H532 0.930 . S
C546 C544 1.395 . S
C546 C549 1.403 . S
C547 C544 1.403 . S
C547 C548 1.524 . S
C547 C551 1.400 . S
C548 H533 0.960 . S
C548 H534 0.960 . S
C548 H535 0.960 . S
C548 C547 1.524 . S
C549 C546 1.403 . S
C549 C550 1.392 . S
C549 C553 1.495 . S
C550 C549 1.392 . S
C550 C551 1.385 . S
C550 C552 1.478 . S
C551 H545 0.930 . S
C551 C547 1.400 . S
C551 C550 1.385 . S
C552 C550 1.478 . S
C552 C554 1.381 . S
C552 C558 1.383 . S
C553 C549 1.495 . S
C553 H559 0.959 . S
C553 H560 0.961 . S
C553 H561 0.960 . S
C554 C552 1.381 . S
C554 C555 1.394 . S
C554 H562 0.930 . S
C555 C554 1.394 . S
C555 C556 1.383 . S
C555 H563 0.929 . S
C556 C555 1.383 . S
C556 C557 1.377 . S
C557 H541 0.930 . S
C557 C556 1.377 . S
C557 C558 1.379 . S
C558 H542 0.931 . S
C558 C552 1.383 . S
C558 C557 1.379 . S
H559 C553 0.959 . S
H560 C553 0.961 . S
H561 C553 0.960 . S
H562 C554 0.930 . S
H563 C555 0.929 . S
H564 C572 0.929 . S
H565 C574 0.930 . S
H566 C576 0.930 . S
H567 C579 0.929 . S
H568 C582 0.930 . S
H569 C584 0.960 . S
H570 C584 0.960 . S
H571 C584 0.960 . S
C572 H564 0.929 . S
C572 C573 1.377 . S
C572 C574 1.384 . S
C573 C572 1.377 . S
C573 C579 1.390 . S
C574 H565 0.930 . S
C574 C572 1.384 . S
C574 C575 1.372 . S
C575 C574 1.372 . S
C575 C576 1.400 . S
C575 C580 1.490 . S
C576 H566 0.930 . S
C576 C575 1.400 . S
C576 C579 1.386 . S
H577 C593 0.930 . S
H578 C594 0.931 . S
C579 H567 0.929 . S
C579 C573 1.390 . S
C579 C576 1.386 . S
C580 C575 1.490 . S
C580 C582 1.395 . S
C580 C583 1.403 . S
H581 C587 0.930 . S
C582 H568 0.930 . S
C582 C580 1.395 . S
C582 C585 1.403 . S
C583 C580 1.403 . S
C583 C584 1.524 . S
C583 C587 1.400 . S
C584 H569 0.960 . S
C584 H570 0.960 . S
C584 H571 0.960 . S
C584 C583 1.524 . S
C585 C582 1.403 . S
C585 C586 1.392 . S
C585 C589 1.495 . S
C586 C585 1.392 . S
C586 C587 1.385 . S
C586 C588 1.478 . S
C587 H581 0.930 . S
C587 C583 1.400 . S
C587 C586 1.385 . S
C588 C586 1.478 . S
C588 C590 1.381 . S
C588 C594 1.383 . S
C589 C585 1.495 . S
C589 H595 0.959 . S
C589 H596 0.961 . S
C589 H597 0.960 . S
C590 C588 1.381 . S
C590 C591 1.394 . S
C590 H598 0.930 . S
C591 C590 1.394 . S
C591 C592 1.383 . S
C591 H599 0.929 . S
C592 C591 1.383 . S
C592 C593 1.377 . S
C593 H577 0.930 . S
C593 C592 1.377 . S
C593 C594 1.379 . S
C594 H578 0.931 . S
C594 C588 1.383 . S
C594 C593 1.379 . S
H595 C589 0.959 . S
H596 C589 0.961 . S
H597 C589 0.960 . S
H598 C590 0.930 . S
H599 C591 0.929 . S
H600 C608 0.929 . S
H601 C610 0.930 . S
H602 C612 0.930 . S
H603 C615 0.929 . S
H604 C618 0.930 . S
H605 C620 0.960 . S
H606 C620 0.960 . S
H607 C620 0.960 . S
C608 H600 0.929 . S
C608 C609 1.377 . S
C608 C610 1.384 . S
C609 C608 1.377 . S
C609 C615 1.390 . S
C610 H601 0.930 . S
C610 C608 1.384 . S
C610 C611 1.372 . S
C611 C610 1.372 . S
C611 C612 1.400 . S
C611 C616 1.490 . S
C612 H602 0.930 . S
C612 C611 1.400 . S
C612 C615 1.386 . S
H613 C629 0.930 . S
H614 C630 0.931 . S
C615 H603 0.929 . S
C615 C609 1.390 . S
C615 C612 1.386 . S
C616 C611 1.490 . S
C616 C618 1.395 . S
C616 C619 1.403 . S
H617 C623 0.930 . S
C618 H604 0.930 . S
C618 C616 1.395 . S
C618 C621 1.403 . S
C619 C616 1.403 . S
C619 C620 1.524 . S
C619 C623 1.400 . S
C620 H605 0.960 . S
C620 H606 0.960 . S
C620 H607 0.960 . S
C620 C619 1.524 . S
C621 C618 1.403 . S
C621 C622 1.392 . S
C621 C625 1.495 . S
C622 C621 1.392 . S
C622 C623 1.385 . S
C622 C624 1.478 . S
C623 H617 0.930 . S
C623 C619 1.400 . S
C623 C622 1.385 . S
C624 C622 1.478 . S
C624 C626 1.381 . S
C624 C630 1.383 . S
C625 C621 1.495 . S
C625 H631 0.959 . S
C625 H632 0.961 . S
C625 H633 0.960 . S
C626 C624 1.381 . S
C626 C627 1.394 . S
C626 H634 0.930 . S
C627 C626 1.394 . S
C627 C628 1.383 . S
C627 H635 0.929 . S
C628 C627 1.383 . S
C628 C629 1.377 . S
C629 H613 0.930 . S
C629 C628 1.377 . S
C629 C630 1.379 . S
C630 H614 0.931 . S
C630 C624 1.383 . S
C630 C629 1.379 . S
H631 C625 0.959 . S
H632 C625 0.961 . S
H633 C625 0.960 . S
H634 C626 0.930 . S
H635 C627 0.929 . S
H636 C644 0.929 . S
H637 C646 0.930 . S
H638 C648 0.930 . S
H639 C651 0.929 . S
H640 C654 0.930 . S
H641 C656 0.960 . S
H642 C656 0.960 . S
H643 C656 0.960 . S
C644 H636 0.929 . S
C644 C645 1.377 . S
C644 C646 1.384 . S
C645 C644 1.377 . S
C645 C651 1.390 . S
C646 H637 0.930 . S
C646 C644 1.384 . S
C646 C647 1.372 . S
C647 C646 1.372 . S
C647 C648 1.400 . S
C647 C652 1.490 . S
C648 H638 0.930 . S
C648 C647 1.400 . S
C648 C651 1.386 . S
H649 C665 0.930 . S
H650 C666 0.931 . S
C651 H639 0.929 . S
C651 C645 1.390 . S
C651 C648 1.386 . S
C652 C647 1.490 . S
C652 C654 1.395 . S
C652 C655 1.403 . S
H653 C659 0.930 . S
C654 H640 0.930 . S
C654 C652 1.395 . S
C654 C657 1.403 . S
C655 C652 1.403 . S
C655 C656 1.524 . S
C655 C659 1.400 . S
C656 H641 0.960 . S
C656 H642 0.960 . S
C656 H643 0.960 . S
C656 C655 1.524 . S
C657 C654 1.403 . S
C657 C658 1.392 . S
C657 C661 1.495 . S
C658 C657 1.392 . S
C658 C659 1.385 . S
C658 C660 1.478 . S
C659 H653 0.930 . S
C659 C655 1.400 . S
C659 C658 1.385 . S
C660 C658 1.478 . S
C660 C662 1.381 . S
C660 C666 1.383 . S
C661 C657 1.495 . S
C661 H667 0.959 . S
C661 H668 0.961 . S
C661 H669 0.960 . S
C662 C660 1.381 . S
C662 C663 1.394 . S
C662 H670 0.930 . S
C663 C662 1.394 . S
C663 C664 1.383 . S
C663 H671 0.929 . S
C664 C663 1.383 . S
C664 C665 1.377 . S
C665 H649 0.930 . S
C665 C664 1.377 . S
C665 C666 1.379 . S
C666 H650 0.931 . S
C666 C660 1.383 . S
C666 C665 1.379 . S
H667 C661 0.959 . S
H668 C661 0.961 . S
H669 C661 0.960 . S
H670 C662 0.930 . S
H671 C663 0.929 . S
H672 C680 0.929 1_556 S
H673 C682 0.930 . S
H674 C684 0.930 . S
H675 C687 0.929 . S
H676 C690 0.930 . S
H677 C692 0.960 . S
H678 C692 0.960 . S
H679 C692 0.960 . S
C680 H672 0.929 1_554 S
C680 C681 1.377 . S
C680 C682 1.384 . S
C681 C680 1.377 . S
C681 C687 1.390 . S
C682 H673 0.930 . S
C682 C680 1.384 . S
C682 C683 1.372 . S
C683 C682 1.372 . S
C683 C684 1.400 . S
C683 C688 1.490 . S
C684 H674 0.930 . S
C684 C683 1.400 . S
C684 C687 1.386 . S
H685 C701 0.930 . S
H686 C702 0.931 . S
C687 H675 0.929 . S
C687 C681 1.390 . S
C687 C684 1.386 . S
C688 C683 1.490 . S
C688 C690 1.395 . S
C688 C691 1.403 . S
H689 C695 0.930 . S
C690 H676 0.930 . S
C690 C688 1.395 . S
C690 C693 1.403 . S
C691 C688 1.403 . S
C691 C692 1.524 . S
C691 C695 1.400 . S
C692 H677 0.960 . S
C692 H678 0.960 . S
C692 H679 0.960 . S
C692 C691 1.524 . S
C693 C690 1.403 . S
C693 C694 1.392 . S
C693 C697 1.495 . S
C694 C693 1.392 . S
C694 C695 1.385 . S
C694 C696 1.478 . S
C695 H689 0.930 . S
C695 C691 1.400 . S
C695 C694 1.385 . S
C696 C694 1.478 . S
C696 C698 1.381 . S
C696 C702 1.383 . S
C697 C693 1.495 . S
C697 H703 0.959 . S
C697 H704 0.961 . S
C697 H705 0.960 . S
C698 C696 1.381 . S
C698 C699 1.394 . S
C698 H706 0.930 . S
C699 C698 1.394 . S
C699 C700 1.383 . S
C699 H707 0.929 . S
C700 C699 1.383 . S
C700 C701 1.377 . S
C701 H685 0.930 . S
C701 C700 1.377 . S
C701 C702 1.379 . S
C702 H686 0.931 . S
C702 C696 1.383 . S
C702 C701 1.379 . S
H703 C697 0.959 . S
H704 C697 0.961 . S
H705 C697 0.960 . S
H706 C698 0.930 . S
H707 C699 0.929 . S
H708 C716 0.929 . S
H709 C718 0.930 . S
H710 C720 0.930 . S
H711 C723 0.929 . S
H712 C726 0.930 . S
H713 C728 0.960 . S
H714 C728 0.960 . S
H715 C728 0.960 . S
C716 H708 0.929 . S
C716 C717 1.377 . S
C716 C718 1.384 . S
C717 C716 1.377 . S
C717 C723 1.390 . S
C718 H709 0.930 . S
C718 C716 1.384 . S
C718 C719 1.372 . S
C719 C718 1.372 . S
C719 C720 1.400 . S
C719 C724 1.490 . S
C720 H710 0.930 . S
C720 C719 1.400 . S
C720 C723 1.386 . S
H721 C737 0.930 . S
H722 C738 0.931 . S
C723 H711 0.929 . S
C723 C717 1.390 . S
C723 C720 1.386 . S
C724 C719 1.490 . S
C724 C726 1.395 . S
C724 C727 1.403 . S
H725 C731 0.930 . S
C726 H712 0.930 . S
C726 C724 1.395 . S
C726 C729 1.403 . S
C727 C724 1.403 . S
C727 C728 1.524 . S
C727 C731 1.400 . S
C728 H713 0.960 . S
C728 H714 0.960 . S
C728 H715 0.960 . S
C728 C727 1.524 . S
C729 C726 1.403 . S
C729 C730 1.392 . S
C729 C733 1.495 . S
C730 C729 1.392 . S
C730 C731 1.385 . S
C730 C732 1.478 . S
C731 H725 0.930 . S
C731 C727 1.400 . S
C731 C730 1.385 . S
C732 C730 1.478 . S
C732 C734 1.381 . S
C732 C738 1.383 . S
C733 C729 1.495 . S
C733 H739 0.959 . S
C733 H740 0.961 . S
C733 H741 0.960 . S
C734 C732 1.381 . S
C734 C735 1.394 . S
C734 H742 0.930 . S
C735 C734 1.394 . S
C735 C736 1.383 . S
C735 H743 0.929 . S
C736 C735 1.383 . S
C736 C737 1.377 . S
C737 H721 0.930 . S
C737 C736 1.377 . S
C737 C738 1.379 . S
C738 H722 0.931 . S
C738 C732 1.383 . S
C738 C737 1.379 . S
H739 C733 0.959 . S
H740 C733 0.961 . S
H741 C733 0.960 . S
H742 C734 0.930 . S
H743 C735 0.929 . S
H744 C752 0.929 . S
H745 C754 0.930 . S
H746 C756 0.930 . S
H747 C759 0.929 . S
H748 C762 0.930 . S
H749 C764 0.960 . S
H750 C764 0.960 . S
H751 C764 0.960 . S
C752 H744 0.929 . S
C752 C753 1.377 . S
C752 C754 1.384 . S
C753 C752 1.377 . S
C753 C759 1.390 . S
C754 H745 0.930 . S
C754 C752 1.384 . S
C754 C755 1.372 . S
C755 C754 1.372 . S
C755 C756 1.400 . S
C755 C760 1.490 . S
C756 H746 0.930 . S
C756 C755 1.400 . S
C756 C759 1.386 . S
H757 C773 0.930 . S
H758 C774 0.931 . S
C759 H747 0.929 . S
C759 C753 1.390 . S
C759 C756 1.386 . S
C760 C755 1.490 . S
C760 C762 1.395 . S
C760 C763 1.403 . S
H761 C767 0.930 . S
C762 H748 0.930 . S
C762 C760 1.395 . S
C762 C765 1.403 . S
C763 C760 1.403 . S
C763 C764 1.524 . S
C763 C767 1.400 . S
C764 H749 0.960 . S
C764 H750 0.960 . S
C764 H751 0.960 . S
C764 C763 1.524 . S
C765 C762 1.403 . S
C765 C766 1.392 . S
C765 C769 1.495 . S
C766 C765 1.392 . S
C766 C767 1.385 . S
C766 C768 1.478 . S
C767 H761 0.930 . S
C767 C763 1.400 . S
C767 C766 1.385 . S
C768 C766 1.478 . S
C768 C770 1.381 . S
C768 C774 1.383 . S
C769 C765 1.495 . S
C769 H775 0.959 . S
C769 H776 0.961 . S
C769 H777 0.960 . S
C770 C768 1.381 . S
C770 C771 1.394 . S
C770 H778 0.930 . S
C771 C770 1.394 . S
C771 C772 1.383 . S
C771 H779 0.929 1_556 S
C772 C771 1.383 . S
C772 C773 1.377 . S
C773 H757 0.930 . S
C773 C772 1.377 . S
C773 C774 1.379 . S
C774 H758 0.931 . S
C774 C768 1.383 . S
C774 C773 1.379 . S
H775 C769 0.959 . S
H776 C769 0.961 . S
H777 C769 0.960 . S
H778 C770 0.930 . S
H779 C771 0.929 1_554 S
H780 C788 0.929 . S
H781 C790 0.930 . S
H782 C792 0.930 . S
H783 C795 0.929 1_556 S
H784 C798 0.930 . S
H785 C800 0.960 . S
H786 C800 0.960 . S
H787 C800 0.960 . S
C788 H780 0.929 . S
C788 C789 1.377 . S
C788 C790 1.384 . S
C789 C788 1.377 . S
C789 C795 1.390 . S
C790 H781 0.930 . S
C790 C788 1.384 . S
C790 C791 1.372 . S
C791 C790 1.372 . S
C791 C792 1.400 . S
C791 C796 1.490 . S
C792 H782 0.930 . S
C792 C791 1.400 . S
C792 C795 1.386 . S
H793 C809 0.930 . S
H794 C810 0.931 . S
C795 H783 0.929 1_554 S
C795 C789 1.390 . S
C795 C792 1.386 . S
C796 C791 1.490 . S
C796 C798 1.395 . S
C796 C799 1.403 . S
H797 C803 0.930 . S
C798 H784 0.930 . S
C798 C796 1.395 . S
C798 C801 1.403 . S
C799 C796 1.403 . S
C799 C800 1.524 . S
C799 C803 1.400 . S
C800 H785 0.960 . S
C800 H786 0.960 . S
C800 H787 0.960 . S
C800 C799 1.524 . S
C801 C798 1.403 . S
C801 C802 1.392 . S
C801 C805 1.495 . S
C802 C801 1.392 . S
C802 C803 1.385 . S
C802 C804 1.478 . S
C803 H797 0.930 . S
C803 C799 1.400 . S
C803 C802 1.385 . S
C804 C802 1.478 . S
C804 C806 1.381 . S
C804 C810 1.383 . S
C805 C801 1.495 . S
C805 H811 0.959 . S
C805 H812 0.961 . S
C805 H813 0.960 . S
C806 C804 1.381 . S
C806 C807 1.394 . S
C806 H814 0.930 . S
C807 C806 1.394 . S
C807 C808 1.383 . S
C807 H815 0.929 . S
C808 C807 1.383 . S
C808 C809 1.377 . S
C809 H793 0.930 . S
C809 C808 1.377 . S
C809 C810 1.379 . S
C810 H794 0.931 . S
C810 C804 1.383 . S
C810 C809 1.379 . S
H811 C805 0.959 . S
H812 C805 0.961 . S
H813 C805 0.960 . S
H814 C806 0.930 . S
H815 C807 0.929 . S
H816 C824 0.929 . S
H817 C826 0.930 . S
H818 C828 0.930 . S
H819 C831 0.929 . S
H820 C834 0.930 . S
H821 C836 0.960 . S
H822 C836 0.960 . S
H823 C836 0.960 . S
C824 H816 0.929 . S
C824 C825 1.377 . S
C824 C826 1.384 . S
C825 C824 1.377 . S
C825 C831 1.390 . S
C826 H817 0.930 . S
C826 C824 1.384 . S
C826 C827 1.372 . S
C827 C826 1.372 . S
C827 C828 1.400 . S
C827 C832 1.490 . S
C828 H818 0.930 . S
C828 C827 1.400 . S
C828 C831 1.386 . S
H829 C845 0.930 . S
H830 C846 0.931 . S
C831 H819 0.929 . S
C831 C825 1.390 . S
C831 C828 1.386 . S
C832 C827 1.490 . S
C832 C834 1.395 . S
C832 C835 1.403 . S
H833 C839 0.930 . S
C834 H820 0.930 . S
C834 C832 1.395 . S
C834 C837 1.403 . S
C835 C832 1.403 . S
C835 C836 1.524 . S
C835 C839 1.400 . S
C836 H821 0.960 . S
C836 H822 0.960 . S
C836 H823 0.960 . S
C836 C835 1.524 . S
C837 C834 1.403 . S
C837 C838 1.392 . S
C837 C841 1.495 . S
C838 C837 1.392 . S
C838 C839 1.385 . S
C838 C840 1.478 . S
C839 H833 0.930 . S
C839 C835 1.400 . S
C839 C838 1.385 . S
C840 C838 1.478 . S
C840 C842 1.381 . S
C840 C846 1.383 . S
C841 C837 1.495 . S
C841 H847 0.959 . S
C841 H848 0.961 . S
C841 H849 0.960 . S
C842 C840 1.381 . S
C842 C843 1.394 . S
C842 H850 0.930 . S
C843 C842 1.394 . S
C843 C844 1.383 . S
C843 H851 0.929 . S
C844 C843 1.383 . S
C844 C845 1.377 . S
C845 H829 0.930 . S
C845 C844 1.377 . S
C845 C846 1.379 . S
C846 H830 0.931 . S
C846 C840 1.383 . S
C846 C845 1.379 . S
H847 C841 0.959 . S
H848 C841 0.961 . S
H849 C841 0.960 . S
H850 C842 0.930 . S
H851 C843 0.929 . S
H852 C860 0.929 . S
H853 C862 0.930 . S
H854 C864 0.930 . S
H855 C867 0.929 . S
H856 C870 0.930 . S
H857 C872 0.960 . S
H858 C872 0.960 . S
H859 C872 0.960 . S
C860 H852 0.929 . S
C860 C861 1.377 . S
C860 C862 1.384 . S
C861 C860 1.377 . S
C861 C867 1.390 . S
C862 H853 0.930 . S
C862 C860 1.384 . S
C862 C863 1.372 . S
C863 C862 1.372 . S
C863 C864 1.400 . S
C863 C868 1.490 . S
C864 H854 0.930 . S
C864 C863 1.400 . S
C864 C867 1.386 . S
H865 C881 0.930 . S
H866 C882 0.931 . S
C867 H855 0.929 . S
C867 C861 1.390 . S
C867 C864 1.386 . S
C868 C863 1.490 . S
C868 C870 1.395 . S
C868 C871 1.403 . S
H869 C875 0.930 . S
C870 H856 0.930 . S
C870 C868 1.395 . S
C870 C873 1.403 . S
C871 C868 1.403 . S
C871 C872 1.524 . S
C871 C875 1.400 . S
C872 H857 0.960 . S
C872 H858 0.960 . S
C872 H859 0.960 . S
C872 C871 1.524 . S
C873 C870 1.403 . S
C873 C874 1.392 . S
C873 C877 1.495 . S
C874 C873 1.392 . S
C874 C875 1.385 . S
C874 C876 1.478 . S
C875 H869 0.930 . S
C875 C871 1.400 . S
C875 C874 1.385 . S
C876 C874 1.478 . S
C876 C878 1.381 . S
C876 C882 1.383 . S
C877 C873 1.495 . S
C877 H883 0.959 . S
C877 H884 0.961 . S
C877 H885 0.960 . S
C878 C876 1.381 . S
C878 C879 1.394 . S
C878 H886 0.930 . S
C879 C878 1.394 . S
C879 C880 1.383 . S
C879 H887 0.929 . S
C880 C879 1.383 . S
C880 C881 1.377 . S
C881 H865 0.930 . S
C881 C880 1.377 . S
C881 C882 1.379 . S
C882 H866 0.931 . S
C882 C876 1.383 . S
C882 C881 1.379 . S
H883 C877 0.959 . S
H884 C877 0.961 . S
H885 C877 0.960 . S
H886 C878 0.930 . S
H887 C879 0.929 . S
H888 C896 0.929 . S
H889 C898 0.930 . S
H890 C900 0.930 . S
H891 C903 0.929 . S
H892 C906 0.930 . S
H893 C908 0.960 . S
H894 C908 0.960 . S
H895 C908 0.960 . S
C896 H888 0.929 . S
C896 C897 1.377 . S
C896 C898 1.384 . S
C897 C896 1.377 . S
C897 C903 1.390 1_556 S
C898 H889 0.930 . S
C898 C896 1.384 . S
C898 C899 1.372 . S
C899 C898 1.372 . S
C899 C900 1.400 1_556 S
C899 C904 1.490 . S
C900 H890 0.930 . S
C900 C899 1.400 1_554 S
C900 C903 1.386 . S
H901 C917 0.930 . S
H902 C918 0.931 . S
C903 H891 0.929 . S
C903 C897 1.390 1_554 S
C903 C900 1.386 . S
C904 C899 1.490 . S
C904 C906 1.395 . S
C904 C907 1.403 1_556 S
H905 C911 0.930 . S
C906 H892 0.930 . S
C906 C904 1.395 . S
C906 C909 1.403 . S
C907 C904 1.403 1_554 S
C907 C908 1.524 . S
C907 C911 1.400 . S
C908 H893 0.960 . S
C908 H894 0.960 . S
C908 H895 0.960 . S
C908 C907 1.524 . S
C909 C906 1.403 . S
C909 C910 1.392 . S
C909 C913 1.495 . S
C910 C909 1.392 . S
C910 C911 1.385 1_556 S
C910 C912 1.478 . S
C911 H905 0.930 . S
C911 C907 1.400 . S
C911 C910 1.385 1_554 S
C912 C910 1.478 . S
C912 C914 1.381 . S
C912 C918 1.383 1_556 S
C913 C909 1.495 . S
C913 H919 0.959 . S
C913 H920 0.961 . S
C913 H921 0.960 . S
C914 C912 1.381 . S
C914 C915 1.394 . S
C914 H922 0.930 . S
C915 C914 1.394 . S
C915 C916 1.383 1_556 S
C915 H923 0.929 . S
C916 C915 1.383 1_554 S
C916 C917 1.377 . S
C917 H901 0.930 . S
C917 C916 1.377 . S
C917 C918 1.379 . S
C918 H902 0.931 . S
C918 C912 1.383 1_554 S
C918 C917 1.379 . S
H919 C913 0.959 . S
H920 C913 0.961 . S
H921 C913 0.960 . S
H922 C914 0.930 . S
H923 C915 0.929 . S
H924 C932 0.929 . S
H925 C934 0.930 . S
H926 C936 0.930 . S
H927 C939 0.929 . S
H928 C942 0.930 . S
H929 C944 0.960 . S
H930 C944 0.960 . S
H931 C944 0.960 . S
C932 H924 0.929 . S
C932 C933 1.377 . S
C932 C934 1.384 . S
C933 C932 1.377 . S
C933 C939 1.390 . S
C934 H925 0.930 . S
C934 C932 1.384 . S
C934 C935 1.372 . S
C935 C934 1.372 . S
C935 C936 1.400 . S
C935 C940 1.490 . S
C936 H926 0.930 . S
C936 C935 1.400 . S
C936 C939 1.386 . S
H937 C953 0.930 . S
H938 C954 0.931 . S
C939 H927 0.929 . S
C939 C933 1.390 . S
C939 C936 1.386 . S
C940 C935 1.490 . S
C940 C942 1.395 . S
C940 C943 1.403 . S
H941 C947 0.930 . S
C942 H928 0.930 . S
C942 C940 1.395 . S
C942 C945 1.403 . S
C943 C940 1.403 . S
C943 C944 1.524 . S
C943 C947 1.400 . S
C944 H929 0.960 . S
C944 H930 0.960 . S
C944 H931 0.960 . S
C944 C943 1.524 . S
C945 C942 1.403 . S
C945 C946 1.392 . S
C945 C949 1.495 . S
C946 C945 1.392 . S
C946 C947 1.385 . S
C946 C948 1.478 . S
C947 H941 0.930 . S
C947 C943 1.400 . S
C947 C946 1.385 . S
C948 C946 1.478 . S
C948 C950 1.381 . S
C948 C954 1.383 . S
C949 C945 1.495 . S
C949 H955 0.959 . S
C949 H956 0.961 . S
C949 H957 0.960 . S
C950 C948 1.381 . S
C950 C951 1.394 . S
C950 H958 0.930 . S
C951 C950 1.394 . S
C951 C952 1.383 . S
C951 H959 0.929 . S
C952 C951 1.383 . S
C952 C953 1.377 . S
C953 H937 0.930 . S
C953 C952 1.377 . S
C953 C954 1.379 . S
C954 H938 0.931 . S
C954 C948 1.383 . S
C954 C953 1.379 . S
H955 C949 0.959 . S
H956 C949 0.961 . S
H957 C949 0.960 . S
H958 C950 0.930 . S
H959 C951 0.929 . S
H960 C968 0.929 . S
H961 C970 0.930 . S
H962 C972 0.930 . S
H963 C975 0.929 . S
H964 C978 0.930 . S
H965 C980 0.960 . S
H966 C980 0.960 . S
H967 C980 0.960 . S
C968 H960 0.929 . S
C968 C969 1.377 . S
C968 C970 1.384 . S
C969 C968 1.377 . S
C969 C975 1.390 . S
C970 H961 0.930 . S
C970 C968 1.384 . S
C970 C971 1.372 . S
C971 C970 1.372 . S
C971 C972 1.400 . S
C971 C976 1.490 . S
C972 H962 0.930 . S
C972 C971 1.400 . S
C972 C975 1.386 . S
H973 C989 0.930 . S
H974 C990 0.931 . S
C975 H963 0.929 . S
C975 C969 1.390 . S
C975 C972 1.386 . S
C976 C971 1.490 . S
C976 C978 1.395 . S
C976 C979 1.403 . S
H977 C983 0.930 . S
C978 H964 0.930 . S
C978 C976 1.395 . S
C978 C981 1.403 . S
C979 C976 1.403 . S
C979 C980 1.524 . S
C979 C983 1.400 . S
C980 H965 0.960 . S
C980 H966 0.960 . S
C980 H967 0.960 . S
C980 C979 1.524 . S
C981 C978 1.403 . S
C981 C982 1.392 . S
C981 C985 1.495 . S
C982 C981 1.392 . S
C982 C983 1.385 . S
C982 C984 1.478 . S
C983 H977 0.930 . S
C983 C979 1.400 . S
C983 C982 1.385 . S
C984 C982 1.478 . S
C984 C986 1.381 . S
C984 C990 1.383 . S
C985 C981 1.495 . S
C985 H991 0.959 . S
C985 H992 0.961 . S
C985 H993 0.960 . S
C986 C984 1.381 . S
C986 C987 1.394 . S
C986 H994 0.930 . S
C987 C986 1.394 . S
C987 C988 1.383 . S
C987 H995 0.929 . S
C988 C987 1.383 . S
C988 C989 1.377 . S
C989 H973 0.930 . S
C989 C988 1.377 . S
C989 C990 1.379 . S
C990 H974 0.931 . S
C990 C984 1.383 . S
C990 C989 1.379 . S
H991 C985 0.959 . S
H992 C985 0.961 . S
H993 C985 0.960 . S
H994 C986 0.930 . S
H995 C987 0.929 . S
H996 C1004 0.929 . S
H997 C1006 0.930 . S
H998 C1008 0.930 . S
H999 C1011 0.929 . S
H1000 C1014 0.930 . S
H1001 C1016 0.960 . S
H1002 C1016 0.960 . S
H1003 C1016 0.960 . S
C1004 H996 0.929 . S
C1004 C1005 1.377 . S
C1004 C1006 1.384 . S
C1005 C1004 1.377 . S
C1005 C1011 1.390 1_554 S
C1006 H997 0.930 . S
C1006 C1004 1.384 . S
C1006 C1007 1.372 . S
C1007 C1006 1.372 . S
C1007 C1008 1.400 1_554 S
C1007 C1012 1.490 . S
C1008 H998 0.930 . S
C1008 C1007 1.400 1_556 S
C1008 C1011 1.386 . S
H1009 C1025 0.930 . S
H1010 C1026 0.931 . S
C1011 H999 0.929 . S
C1011 C1005 1.390 1_556 S
C1011 C1008 1.386 . S
C1012 C1007 1.490 . S
C1012 C1014 1.395 . S
C1012 C1015 1.403 1_554 S
H1013 C1019 0.930 . S
C1014 H1000 0.930 . S
C1014 C1012 1.395 . S
C1014 C1017 1.403 . S
C1015 C1012 1.403 1_556 S
C1015 C1016 1.524 . S
C1015 C1019 1.400 . S
C1016 H1001 0.960 . S
C1016 H1002 0.960 . S
C1016 H1003 0.960 . S
C1016 C1015 1.524 . S
C1017 C1014 1.403 . S
C1017 C1018 1.392 . S
C1017 C1021 1.495 . S
C1018 C1017 1.392 . S
C1018 C1019 1.385 1_554 S
C1018 C1020 1.478 . S
C1019 H1013 0.930 . S
C1019 C1015 1.400 . S
C1019 C1018 1.385 1_556 S
C1020 C1018 1.478 . S
C1020 C1022 1.381 . S
C1020 C1026 1.383 1_554 S
C1021 C1017 1.495 . S
C1021 H1027 0.959 . S
C1021 H1028 0.961 . S
C1021 H1029 0.960 . S
C1022 C1020 1.381 . S
C1022 C1023 1.394 . S
C1022 H1030 0.930 . S
C1023 C1022 1.394 . S
C1023 C1024 1.383 1_554 S
C1023 H1031 0.929 . S
C1024 C1023 1.383 1_556 S
C1024 C1025 1.377 . S
C1025 H1009 0.930 . S
C1025 C1024 1.377 . S
C1025 C1026 1.379 . S
C1026 H1010 0.931 . S
C1026 C1020 1.383 1_556 S
C1026 C1025 1.379 . S
H1027 C1021 0.959 . S
H1028 C1021 0.961 . S
H1029 C1021 0.960 . S
H1030 C1022 0.930 . S
H1031 C1023 0.929 . S
C177 C7 1.455 . S
C196 C133 1.483 . S
C213 C21 1.449 . S
C232 C147 1.417 . S
C249 C35 1.460 . S
C268 C161 1.477 . S
C285 C49 1.449 . S
C304 C91 1.419 . S
C321 C105 1.450 . S
C340 C63 1.471 . S
C357 C119 1.456 . S
C376 C77 1.484 . S
C393 C146 1.536 . S
C412 C6 1.536 . S
C429 C20 1.543 . S
C448 C160 1.511 . S
C465 C34 1.546 . S
C484 C90 1.545 . S
C501 C48 1.538 . S
C520 C104 1.563 . S
C537 C62 1.547 . S
C556 C118 1.525 . S
C573 C76 1.544 . S
C592 C132 1.561 . S
C609 C148 1.390 . S
C628 C8 1.399 . S
C645 C22 1.385 . S
C664 C162 1.381 1_556 S
C681 C36 1.386 1_554 S
C700 C92 1.385 . S
C717 C50 1.388 . S
C736 C106 1.374 . S
C753 C64 1.391 . S
C772 C120 1.387 1_556 S
C789 C78 1.390 1_554 S
C808 C134 1.376 . S
C825 C9 1.609 . S
C844 C93 1.594 . S
C861 C107 1.611 . S
C880 C23 1.600 . S
C897 C37 1.606 . S
C916 C121 1.607 . S
C933 C51 1.606 . S
C952 C135 1.619 . S
C969 C65 1.610 . S
C988 C149 1.593 . S
C1005 C163 1.606 . S
C1024 C79 1.609 . S
