# Generated by pormake.
# Topology wiy, (3)-cn, num edge types: 1
# Building blocks:
#     Node 0, Type 0, BuildingBlock: WUSLED_clean_sbu_0, # of connection points: 3
#     Node 1, Type 0, BuildingBlock: WUSLED_clean_sbu_0, # of connection points: 3
#     Node 2, Type 0, BuildingBlock: WUSLED_clean_sbu_0, # of connection points: 3
#     Node 3, Type 0, BuildingBlock: WUSLED_clean_sbu_0, # of connection points: 3
#     Node 4, Type 0, BuildingBlock: WUSLED_clean_sbu_0, # of connection points: 3
#     Node 5, Type 0, BuildingBlock: WUSLED_clean_sbu_0, # of connection points: 3
#     Node 6, Type 0, BuildingBlock: WUSLED_clean_sbu_0, # of connection points: 3
#     Node 7, Type 0, BuildingBlock: WUSLED_clean_sbu_0, # of connection points: 3
#     Node 8, Type 0, BuildingBlock: WUSLED_clean_sbu_0, # of connection points: 3
#     Node 9, Type 0, BuildingBlock: WUSLED_clean_sbu_0, # of connection points: 3
#     Node 10, Type 0, BuildingBlock: WUSLED_clean_sbu_0, # of connection points: 3
#     Node 11, Type 0, BuildingBlock: WUSLED_clean_sbu_0, # of connection points: 3
#     Edge 12, Type (0, 0), BuildingBlock: OJICUG_clean_linker_0, # of connection points: 2
#     Edge 13, Type (0, 0), BuildingBlock: OJICUG_clean_linker_0, # of connection points: 2
#     Edge 14, Type (0, 0), BuildingBlock: OJICUG_clean_linker_0, # of connection points: 2
#     Edge 15, Type (0, 0), BuildingBlock: OJICUG_clean_linker_0, # of connection points: 2
#     Edge 16, Type (0, 0), BuildingBlock: OJICUG_clean_linker_0, # of connection points: 2
#     Edge 17, Type (0, 0), BuildingBlock: OJICUG_clean_linker_0, # of connection points: 2
#     Edge 18, Type (0, 0), BuildingBlock: OJICUG_clean_linker_0, # of connection points: 2
#     Edge 19, Type (0, 0), BuildingBlock: OJICUG_clean_linker_0, # of connection points: 2
#     Edge 20, Type (0, 0), BuildingBlock: OJICUG_clean_linker_0, # of connection points: 2
#     Edge 21, Type (0, 0), BuildingBlock: OJICUG_clean_linker_0, # of connection points: 2
#     Edge 22, Type (0, 0), BuildingBlock: OJICUG_clean_linker_0, # of connection points: 2
#     Edge 23, Type (0, 0), BuildingBlock: OJICUG_clean_linker_0, # of connection points: 2
#     Edge 24, Type (0, 0), BuildingBlock: OJICUG_clean_linker_0, # of connection points: 2
#     Edge 25, Type (0, 0), BuildingBlock: OJICUG_clean_linker_0, # of connection points: 2
#     Edge 26, Type (0, 0), BuildingBlock: OJICUG_clean_linker_0, # of connection points: 2
#     Edge 27, Type (0, 0), BuildingBlock: OJICUG_clean_linker_0, # of connection points: 2
#     Edge 28, Type (0, 0), BuildingBlock: OJICUG_clean_linker_0, # of connection points: 2
#     Edge 29, Type (0, 0), BuildingBlock: OJICUG_clean_linker_0, # of connection points: 2
# Relax obj value: 0.113
# Max RMSD: 0.098
# Mean RMSD: 0.086
data_MOF--net-wiy--node1-WUSLED_clean_sbu_0--edge1-OJICUG_clean_linker_0
_symmetry_space_group_name_H-M    P1
_symmetry_Int_Tables_number       1
_symmetry_cell_setting            triclinic
loop_
_symmetry_equiv_pos_as_xyz
'x, y, z'
_cell_length_a     45.630281
_cell_length_b     45.64918
_cell_length_c     39.213965
_cell_angle_alpha  90.021484
_cell_angle_beta   89.951276
_cell_angle_gamma 116.43834
loop_
_atom_site_label
_atom_site_type_symbol
_atom_site_fract_x
_atom_site_fract_y
_atom_site_fract_z
_atom_type_partial_charge
C0 C 0.01662 0.27407 0.98626 0.0
C1 C 1.00787 0.29525 0.96786 0.0
C2 C 1.01153 0.26908 0.91498 0.0
C3 C 1.00536 0.29276 0.93227 0.0
C4 C 0.01898 0.24712 0.93361 0.0
C5 C 0.0216 0.24969 0.96905 0.0
U6 U 0.03368 0.30207 0.08458 0.0
O7 O 0.02944 0.26544 0.12385 0.0
O8 O 0.07791 0.30212 0.10633 0.0
C9 C 0.06136 0.27626 0.12528 0.0
C10 C 0.02463 0.27873 0.0226 0.0
C11 C 0.07696 0.27244 0.15655 0.0
C12 C 0.10317 0.24264 0.18405 0.0
C13 C 0.083 0.24499 0.15861 0.0
C14 C 0.10977 0.29434 0.20741 0.0
C15 C 0.11752 0.26762 0.20841 0.0
C16 C 0.08995 0.29694 0.18141 0.0
C17 C 1.01023 0.37551 0.10199 0.0
C18 C 1.01067 0.4244 0.12667 0.0
C19 C 0.98583 0.40559 0.07141 0.0
C20 C 0.99396 0.37925 0.0732 0.0
C21 C 0.99444 0.42894 0.09808 0.0
C22 C 0.01796 0.39795 0.12869 0.0
C23 C 0.02101 0.34972 0.1058 0.0
O24 O 0.05123 0.30452 0.03206 0.0
O25 O 1.0014 0.26745 0.04583 0.0
O26 O 0.99911 0.31884 0.10648 0.0
O27 O 0.04919 0.35466 0.09223 0.0
H28 H 1.00412 0.31427 0.98081 0.0
H29 H 0.99951 0.30984 0.91813 0.0
H30 H 0.02415 0.22895 0.92067 0.0
H31 H 0.02882 0.23343 0.98296 0.0
H32 H 0.10877 0.22196 0.18342 0.0
H33 H 0.0735 0.22606 0.1393 0.0
H34 H 0.11967 0.3137 0.22619 0.0
H35 H 0.0857 0.31845 0.18011 0.0
H36 H 0.01902 0.44174 0.14743 0.0
H37 H 0.97291 0.40746 0.04905 0.0
H38 H 0.98778 0.3621 0.05221 0.0
H39 H 0.03059 0.3955 0.1511 0.0
C40 C 0.74362 0.01123 0.14661 0.0
C41 C 0.71437 0.9995 0.12808 0.0
C42 C 0.745 1.00702 0.07474 0.0
C43 C 0.71503 0.99706 0.09241 0.0
C44 C 0.77397 0.0179 0.09399 0.0
C45 C 0.77317 0.01969 0.12941 0.0
U46 U 0.72286 0.0235 0.2431 0.0
O47 O 0.74996 0.01746 0.28704 0.0
O48 O 0.75769 0.06721 0.27097 0.0
C49 C 0.76513 0.04924 0.29207 0.0
C50 C 0.74562 0.01811 0.18331 0.0
C51 C 0.7889 0.06372 0.31964 0.0
C52 C 0.84506 0.09627 0.33757 0.0
C53 C 0.82244 0.0787 0.31232 0.0
C54 C 0.80076 0.08318 0.37799 0.0
C55 C 0.83445 0.09935 0.37049 0.0
C56 C 0.77815 0.06554 0.35269 0.0
C57 C 0.62678 0.9998 0.25494 0.0
C58 C 0.57933 0.99754 0.2848 0.0
C59 C 0.57573 0.98467 0.22452 0.0
C60 C 0.6085 0.98996 0.22478 0.0
C61 C 0.56103 0.98929 0.25443 0.0
C62 C 0.61185 1.00297 0.28493 0.0
C63 C 0.66198 0.00942 0.25617 0.0
O64 O 0.74303 0.04436 0.19314 0.0
O65 O 0.73384 0.99378 0.20525 0.0
O66 O 0.67317 0.98748 0.25873 0.0
O67 O 0.68288 0.038 0.24413 0.0
H68 H 0.69129 0.99286 0.14101 0.0
H69 H 0.69205 0.98774 0.07875 0.0
H70 H 0.79764 0.02636 0.08185 0.0
H71 H 0.79603 0.02898 0.1434 0.0
H72 H 0.87084 0.108 0.33114 0.0
H73 H 0.83107 0.07755 0.28685 0.0
H74 H 0.79173 0.08532 0.40296 0.0
H75 H 0.75223 0.05437 0.35857 0.0
H76 H 0.56875 1.00042 0.30853 0.0
H77 H 0.56246 0.97833 0.20065 0.0
H78 H 0.61976 0.98732 0.2014 0.0
H79 H 0.62567 0.01053 0.30846 0.0
C80 C 0.74047 0.71269 0.31474 0.0
C81 C 0.71951 0.68702 0.29395 0.0
C82 C 0.74215 0.72106 0.24335 0.0
C83 C 0.72035 0.69116 0.25852 0.0
C84 C 0.76391 0.74619 0.26453 0.0
C85 C 0.76296 0.74202 0.29983 0.0
U86 U 0.71947 0.69089 0.41416 0.0
O87 O 0.75627 0.72038 0.45291 0.0
O88 O 0.71113 0.72673 0.44479 0.0
C89 C 0.73911 0.73616 0.46079 0.0
C90 C 0.7373 0.71159 0.35195 0.0
C91 C 0.74733 0.75899 0.48941 0.0
C92 C 0.77739 0.81457 0.51014 0.0
C93 C 0.77217 0.79086 0.48526 0.0
C94 C 0.73377 0.77421 0.54426 0.0
C95 C 0.75786 0.80668 0.53968 0.0
C96 C 0.72842 0.75058 0.51919 0.0
C97 C 0.6594 0.59562 0.42789 0.0
C98 C 0.61918 0.54607 0.4546 0.0
C99 C 0.62781 0.54749 0.39355 0.0
C100 C 0.6519 0.5801 0.39604 0.0
C101 C 0.61048 0.53028 0.42279 0.0
C102 C 0.64345 0.57816 0.45705 0.0
C103 C 0.68108 0.63062 0.43234 0.0
O104 O 0.70972 0.70852 0.36547 0.0
O105 O 0.75392 0.70052 0.37099 0.0
O106 O 0.71299 0.64169 0.42944 0.0
O107 O 0.67009 0.65159 0.42316 0.0
H108 H 0.70182 0.6643 0.30513 0.0
H109 H 0.70289 0.67133 0.24325 0.0
H110 H 0.78142 0.7693 0.25398 0.0
H111 H 0.77917 0.76221 0.31567 0.0
H112 H 0.79634 0.83919 0.50595 0.0
H113 H 0.78672 0.79774 0.46215 0.0
H114 H 0.71805 0.76735 0.5665 0.0
H115 H 0.70894 0.72607 0.52258 0.0
H116 H 0.60624 0.53438 0.47766 0.0
H117 H 0.62239 0.5361 0.36865 0.0
H118 H 0.66399 0.5933 0.3732 0.0
H119 H 0.64881 0.58991 0.48184 0.0
C120 C 1.00638 0.74016 0.48534 0.0
C121 C 0.02563 0.72897 0.46681 0.0
C122 C 1.01236 0.74893 0.4142 0.0
C123 C 0.02872 0.73345 0.43144 0.0
C124 C 0.99417 0.76122 0.4332 0.0
C125 C 0.99125 0.75688 0.46851 0.0
U126 U 0.9905 0.71318 0.5849 0.0
O127 O 0.99478 0.75149 0.62208 0.0
O128 O 0.94635 0.71426 0.60546 0.0
C129 C 0.96285 0.74066 0.62367 0.0
C130 C 0.99946 0.73248 0.5216 0.0
C131 C 0.94752 0.74447 0.65528 0.0
C132 C 0.92125 0.77407 0.68322 0.0
C133 C 0.94135 0.77182 0.65757 0.0
C134 C 0.915 0.72246 0.70643 0.0
C135 C 0.90709 0.74907 0.70762 0.0
C136 C 0.93475 0.71997 0.68021 0.0
C137 C 0.01434 0.64077 0.60414 0.0
C138 C 0.01542 0.59235 0.6283 0.0
C139 C 0.03762 0.61051 0.57192 0.0
C140 C 0.02938 0.63675 0.57445 0.0
C141 C 0.03036 0.5875 0.59878 0.0
C142 C 1.008 0.6187 0.631 0.0
C143 C 1.00329 0.66634 0.60871 0.0
O144 O 0.97249 0.70753 0.53184 0.0
O145 O 0.02259 0.74539 0.54472 0.0
O146 O 0.02507 0.69726 0.60833 0.0
O147 O 0.97492 0.66103 0.59545 0.0
H148 H 0.03733 0.71589 0.4795 0.0
H149 H 0.04273 0.72355 0.41739 0.0
H150 H 0.9817 0.77363 0.42067 0.0
H151 H 0.97638 0.7658 0.48257 0.0
H152 H 0.91557 0.79469 0.68268 0.0
H153 H 0.95066 0.79077 0.63825 0.0
H154 H 0.90528 0.7031 0.72522 0.0
H155 H 0.93909 0.69852 0.67879 0.0
H156 H 1.00815 0.57527 0.64932 0.0
H157 H 0.04953 0.60839 0.54884 0.0
H158 H 0.03448 0.65359 0.5533 0.0
H159 H 0.99631 0.62133 0.6541 0.0
C160 C 0.28087 1.00465 0.64675 0.0
C161 C 0.31011 0.01639 0.62819 0.0
C162 C 0.27956 0.00936 0.57493 0.0
C163 C 0.3095 0.01906 0.59255 0.0
C164 C 0.25058 0.99853 0.59421 0.0
C165 C 0.25135 0.99647 0.62963 0.0
U166 U 0.30197 0.9929 0.74326 0.0
O167 O 0.27389 0.99922 0.78641 0.0
O168 O 0.26792 0.94969 0.77197 0.0
C169 C 0.25892 0.96748 0.79169 0.0
C170 C 0.27897 0.99776 0.68343 0.0
C171 C 0.23703 0.95288 0.82073 0.0
C172 C 0.18193 0.9296 0.84381 0.0
C173 C 0.20422 0.94682 0.81815 0.0
C174 C 0.22546 0.92532 0.87548 0.0
C175 C 0.19217 0.91822 0.87259 0.0
C176 C 0.24769 0.94238 0.84964 0.0
C177 C 0.39841 0.01858 0.75418 0.0
C178 C 0.44813 0.02755 0.7842 0.0
C179 C 0.44732 0.02723 0.72241 0.0
C180 C 0.41451 0.02177 0.72293 0.0
C181 C 0.46423 0.02927 0.75315 0.0
C182 C 0.41559 0.02213 0.78465 0.0
C183 C 0.3631 1.00822 0.75669 0.0
O184 O 0.28199 0.97174 0.6933 0.0
O185 O 0.29059 0.02216 0.70529 0.0
O186 O 0.35131 0.02971 0.75916 0.0
O187 O 0.34258 0.97948 0.74464 0.0
H188 H 0.33316 0.02286 0.64107 0.0
H189 H 0.33249 0.02837 0.57889 0.0
H190 H 0.22695 0.99032 0.58209 0.0
H191 H 0.22849 0.98725 0.64366 0.0
H192 H 0.15662 0.92492 0.84091 0.0
H193 H 0.19563 0.9546 0.79577 0.0
H194 H 0.23413 0.91662 0.89708 0.0
H195 H 0.27296 0.9467 0.85185 0.0
H196 H 0.46045 0.02974 0.80834 0.0
H197 H 0.45889 0.02835 0.69801 0.0
H198 H 0.4015 0.01902 0.69914 0.0
H199 H 0.40344 0.01957 0.80901 0.0
C200 C 0.28461 0.30358 0.81538 0.0
C201 C 0.29276 0.33061 0.794 0.0
C202 C 0.2824 0.29527 0.74396 0.0
C203 C 0.29132 0.32644 0.75853 0.0
C204 C 0.27288 0.26819 0.76592 0.0
C205 C 0.27382 0.27235 0.80118 0.0
U206 U 0.30566 0.32685 0.91486 0.0
O207 O 0.26858 0.29687 0.95312 0.0
O208 O 0.31403 0.29097 0.94545 0.0
C209 C 0.28584 0.28125 0.96115 0.0
C210 C 0.28897 0.30671 0.85241 0.0
C211 C 0.27717 0.25801 0.98945 0.0
C212 C 0.24865 0.20177 0.00874 0.0
C213 C 0.25395 0.22562 0.98402 0.0
C214 C 0.2889 0.24292 0.04521 0.0
C215 C 0.26652 0.20998 0.03939 0.0
C216 C 0.29431 0.26672 0.02032 0.0
C217 C 0.36511 0.42222 0.92832 0.0
C218 C 0.39905 0.47394 0.95595 0.0
C219 C 0.40385 0.4681 0.89511 0.0
C220 C 0.37914 0.43572 0.89679 0.0
C221 C 0.4149 0.48734 0.92496 0.0
C222 C 0.37472 0.44177 0.95758 0.0
C223 C 0.34372 0.38717 0.93327 0.0
O224 O 0.31624 0.30932 0.86622 0.0
O225 O 0.2722 0.31786 0.87116 0.0
O226 O 0.31177 0.37583 0.93068 0.0
O227 O 0.35485 0.36632 0.92398 0.0
H228 H 0.30093 0.35488 0.80464 0.0
H229 H 0.29785 0.34781 0.74262 0.0
H230 H 0.26615 0.24386 0.75617 0.0
H231 H 0.26727 0.25117 0.81748 0.0
H232 H 0.23099 0.17679 1.00355 0.0
H233 H 0.24079 0.21853 0.96008 0.0
H234 H 0.30335 0.25009 0.06832 0.0
H235 H 0.31255 0.29164 0.02471 0.0
H236 H 0.40588 0.48796 0.97935 0.0
H237 H 0.41532 0.47733 0.8707 0.0
H238 H 0.37201 0.42093 0.87388 0.0
H239 H 0.36425 0.43168 0.98219 0.0
C240 C 0.74537 1.00076 0.85419 0.0
C241 C 0.73418 0.02135 0.87011 0.0
C242 C 0.75019 0.00871 0.92583 0.0
C243 C 0.73687 0.02555 0.90565 0.0
C244 C 0.76214 0.98891 0.90912 0.0
C245 C 0.75995 0.98525 0.87382 0.0
U246 U 0.71615 0.98666 0.75653 0.0
O247 O 0.74979 0.98956 0.71478 0.0
O248 O 0.711 0.94119 0.73167 0.0
C249 C 0.73592 0.95756 0.71147 0.0
C250 C 0.74135 0.99305 0.81764 0.0
C251 C 0.74561 0.94151 0.68451 0.0
C252 C 0.77064 0.90641 0.66891 0.0
C253 C 0.76451 0.92545 0.69307 0.0
C254 C 0.73961 0.92004 0.62703 0.0
C255 C 0.75766 0.90287 0.63581 0.0
C256 C 0.73359 0.93921 0.65128 0.0
C257 C 0.64568 0.01512 0.74405 0.0
C258 C 0.60434 0.02746 0.71781 0.0
C259 C 0.60699 0.02453 0.77934 0.0
C260 C 0.63383 0.01748 0.77639 0.0
C261 C 0.59129 0.02867 0.74998 0.0
C262 C 0.63131 0.02097 0.71498 0.0
C263 C 0.66988 1.00262 0.73867 0.0
O264 O 0.71505 0.96709 0.80792 0.0
O265 O 0.75267 0.01673 0.79491 0.0
O266 O 0.70112 0.02328 0.73669 0.0
O267 O 0.66398 0.97419 0.75219 0.0
H268 H 0.72301 0.0337 0.85525 0.0
H269 H 0.72815 0.04173 0.91723 0.0
H270 H 0.77207 0.975 0.92318 0.0
H271 H 0.76884 0.96931 0.86186 0.0
H272 H 0.78501 0.89394 0.67639 0.0
H273 H 0.77378 0.92691 0.71877 0.0
H274 H 0.72891 0.91754 0.60191 0.0
H275 H 0.71861 0.95123 0.64445 0.0
H276 H 0.59279 0.02981 0.69456 0.0
H277 H 0.59806 0.02591 0.80459 0.0
H278 H 0.64461 0.0129 0.79914 0.0
H279 H 0.63997 0.01886 0.68977 0.0
C280 C 0.71491 0.73773 0.02884 0.0
C281 C 0.69058 0.71492 0.04971 0.0
C282 C 0.7253 0.73765 0.09948 0.0
C283 C 0.69572 0.71494 0.08484 0.0
C284 C 0.74894 0.76153 0.07868 0.0
C285 C 0.74379 0.76146 0.04354 0.0
U286 U 0.69608 0.71819 0.92838 0.0
O287 O 0.72698 0.75608 0.89115 0.0
O288 O 0.73493 0.71241 0.90088 0.0
C289 C 0.74492 0.74068 0.88533 0.0
C290 C 0.71314 0.73442 0.99166 0.0
C291 C 0.76422 0.74607 0.85397 0.0
C292 C 0.8183 0.77382 0.82864 0.0
C293 C 0.79607 0.77153 0.85416 0.0
C294 C 0.77617 0.72651 0.80069 0.0
C295 C 0.80898 0.75082 0.80197 0.0
C296 C 0.75405 0.72388 0.82674 0.0
C297 C 0.60177 0.657 0.91278 0.0
C298 C 0.5521 0.61573 0.88719 0.0
C299 C 0.55362 0.6265 0.94778 0.0
C300 C 0.58626 0.65057 0.94472 0.0
C301 C 0.53629 0.60818 0.91906 0.0
C302 C 0.5842 0.63992 0.88416 0.0
C303 C 0.63671 0.67909 0.90758 0.0
O304 O 0.71121 0.70738 0.9779 0.0
O305 O 0.70274 0.75139 0.97228 0.0
O306 O 0.64722 0.71088 0.91082 0.0
O307 O 0.65805 0.66866 0.91703 0.0
H308 H 0.66826 0.69637 0.0387 0.0
H309 H 0.67698 0.69658 0.10052 0.0
H310 H 0.77201 0.77911 0.08931 0.0
H311 H 0.76306 0.77894 0.0276 0.0
H312 H 0.84325 0.79262 0.83101 0.0
H313 H 0.80442 0.7886 0.8753 0.0
H314 H 0.76777 0.70888 0.7801 0.0
H315 H 0.72955 0.70391 0.82627 0.0
H316 H 0.54039 0.60202 0.86453 0.0
H317 H 0.54224 0.62195 0.97271 0.0
H318 H 0.59945 0.66355 0.9672 0.0
H319 H 0.59584 0.64444 0.85931 0.0
C320 C 0.01644 0.73899 0.19607 0.0
C321 C 0.99717 0.71117 0.21542 0.0
C322 C 1.01134 0.74454 0.26702 0.0
C323 C 0.99447 0.71401 0.25082 0.0
C324 C 0.02984 0.77229 0.24733 0.0
C325 C 0.03219 0.76953 0.21216 0.0
U326 U 0.0272 0.71699 0.09858 0.0
O327 O 0.02113 0.7457 0.05627 0.0
O328 O 0.07093 0.75297 0.07152 0.0
C329 C 0.05294 0.7614 0.05151 0.0
C330 C 0.02225 0.73781 0.1594 0.0
C331 C 0.06716 0.78509 0.02384 0.0
C332 C 0.09967 0.8414 0.00639 0.0
C333 C 0.08227 0.81854 0.03148 0.0
C334 C 0.08627 0.79751 0.96543 0.0
C335 C 0.10252 0.83113 0.97324 0.0
C336 C 0.06875 0.77465 0.99061 0.0
C337 C 1.00353 0.62154 0.08573 0.0
C338 C 1.00323 0.57326 0.05966 0.0
C339 C 0.98356 0.57062 0.11747 0.0
C340 C 0.99044 0.60381 0.11568 0.0
C341 C 0.99047 0.55487 0.0896 0.0
C342 C 1.00924 0.60588 0.05771 0.0
C343 C 0.01356 0.65671 0.08243 0.0
O344 O 0.04839 0.73518 0.14916 0.0
O345 O 0.99765 0.72653 0.13775 0.0
O346 O 0.99144 0.66781 0.08155 0.0
O347 O 0.04216 0.67749 0.09451 0.0
H348 H 0.98489 0.6874 0.20338 0.0
H349 H 0.98019 0.69228 0.26571 0.0
H350 H 0.04285 0.79605 0.25926 0.0
H351 H 0.047 0.79128 0.19751 0.0
H352 H 0.11144 0.86709 0.01314 0.0
H353 H 0.08136 0.82692 0.05715 0.0
H354 H 0.08828 0.7887 0.94031 0.0
H355 H 0.05749 0.7488 0.98446 0.0
H356 H 1.00997 0.56318 0.03778 0.0
H357 H 0.97309 0.55763 0.14086 0.0
H358 H 0.9859 0.61562 0.13763 0.0
H359 H 0.01947 0.61931 0.03438 0.0
C360 C 0.2799 0.0162 0.35433 0.0
C361 C 0.29093 0.99552 0.37027 0.0
C362 C 0.27481 1.0082 0.42597 0.0
C363 C 0.28811 0.9913 0.40581 0.0
C364 C 0.26299 0.02807 0.40923 0.0
C365 C 0.26531 0.03176 0.37392 0.0
U366 U 0.30894 0.03031 0.25643 0.0
O367 O 0.27491 0.02752 0.21514 0.0
O368 O 0.31391 0.07578 0.23185 0.0
C369 C 0.2886 0.05955 0.21212 0.0
C370 C 0.28409 0.0239 0.31777 0.0
C371 C 0.27957 0.07571 0.18473 0.0
C372 C 0.254 0.11014 0.16847 0.0
C373 C 0.26004 0.09122 0.19278 0.0
C374 C 0.28645 0.09757 0.12734 0.0
C375 C 0.2677 0.11419 0.13564 0.0
C376 C 0.29237 0.07847 0.15177 0.0
C377 C 0.37895 1.0014 0.244 0.0
C378 C 0.4196 0.98753 0.21837 0.0
C379 C 0.41854 0.99393 0.27964 0.0
C380 C 0.39151 1.00063 0.27641 0.0
C381 C 0.43344 0.98826 0.2505 0.0
C382 C 0.39262 0.994 0.21522 0.0
C383 C 0.355 0.01413 0.23804 0.0
O384 O 0.31045 0.04979 0.30799 0.0
O385 O 0.2726 1.00026 0.29502 0.0
O386 O 0.32371 0.9936 0.23623 0.0
O387 O 0.36102 0.04265 0.25146 0.0
H388 H 0.30208 0.98312 0.35545 0.0
H389 H 0.2967 0.97504 0.41739 0.0
H390 H 0.25305 0.04201 0.42327 0.0
H391 H 0.25652 0.04775 0.36193 0.0
H392 H 0.23902 0.12205 0.17564 0.0
H393 H 0.25014 0.08939 0.21826 0.0
H394 H 0.29771 0.1004 0.10246 0.0
H395 H 0.30777 0.06681 0.14529 0.0
H396 H 0.43072 0.98382 0.19539 0.0
H397 H 0.42844 0.99424 0.30481 0.0
H398 H 0.38131 1.00641 0.29892 0.0
H399 H 0.38346 0.99493 0.18995 0.0
C400 C 0.3069 0.27784 0.52772 0.0
C401 C 0.33422 0.29565 0.54812 0.0
C402 C 0.2996 0.27892 0.59906 0.0
C403 C 0.33068 0.29583 0.5836 0.0
C404 C 0.27267 0.26 0.57823 0.0
C405 C 0.2764 0.25935 0.54299 0.0
U406 U 0.32911 0.29891 0.42855 0.0
O407 O 0.29989 0.26224 0.38941 0.0
O408 O 0.29319 0.30699 0.39812 0.0
C409 C 0.2836 0.27901 0.38208 0.0
C410 C 0.30784 0.28073 0.49053 0.0
C411 C 0.26261 0.27244 0.352 0.0
C412 C 0.20775 0.2441 0.32872 0.0
C413 C 0.23072 0.2471 0.3537 0.0
C414 C 0.24924 0.2903 0.29858 0.0
C415 C 0.21644 0.26628 0.30129 0.0
C416 C 0.27202 0.29365 0.32399 0.0
C417 C 0.42467 0.35913 0.41606 0.0
C418 C 0.4763 0.39285 0.38811 0.0
C419 C 0.47052 0.39845 0.44884 0.0
C420 C 0.43816 0.37366 0.44741 0.0
C421 C 0.48965 0.40911 0.4189 0.0
C422 C 0.4442 0.36837 0.38674 0.0
C423 C 0.38962 0.33758 0.41124 0.0
O424 O 0.31064 0.30816 0.47699 0.0
O425 O 0.31957 0.26453 0.47168 0.0
O426 O 0.37845 0.30563 0.41321 0.0
O427 O 0.36852 0.3484 0.42058 0.0
H428 H 0.35795 0.31007 0.53663 0.0
H429 H 0.35223 0.30986 0.59876 0.0
H430 H 0.2483 0.2469 0.58874 0.0
H431 H 0.25499 0.24559 0.52743 0.0
H432 H 0.18282 0.2255 0.33201 0.0
H433 H 0.22303 0.23076 0.37547 0.0
H434 H 0.25714 0.30721 0.27734 0.0
H435 H 0.29657 0.31343 0.32235 0.0
H436 H 0.49033 0.39958 0.36469 0.0
H437 H 0.47985 0.41032 0.47306 0.0
H438 H 0.42338 0.36684 0.47035 0.0
H439 H 0.43413 0.35752 0.36227 0.0
C440 C 1.00935 0.28058 0.69665 0.0
C441 C 0.02257 0.30875 0.71687 0.0
C442 C 0.01464 0.27508 0.76777 0.0
C443 C 0.0252 0.30602 0.75219 0.0
C444 C 1.0024 0.24707 0.74694 0.0
C445 C 0.99971 0.24985 0.71178 0.0
U446 U 0.99671 0.29932 0.5984 0.0
O447 O 1.00346 0.26847 0.5584 0.0
O448 O 0.95381 0.26096 0.57332 0.0
C449 C 0.97168 0.25083 0.55513 0.0
C450 C 1.0032 0.28173 0.66015 0.0
C451 C 0.95747 0.23133 0.52437 0.0
C452 C 0.93395 0.1772 0.49891 0.0
C453 C 0.95155 0.1985 0.52501 0.0
C454 C 0.92895 0.22173 0.47016 0.0
C455 C 0.92188 0.18834 0.47144 0.0
C456 C 0.94647 0.24309 0.49661 0.0
C457 C 0.01938 0.39404 0.5836 0.0
C458 C 0.01857 0.44241 0.55896 0.0
C459 C 0.04114 0.4452 0.61535 0.0
C460 C 0.03405 0.41189 0.61312 0.0
C461 C 0.03304 0.46097 0.58837 0.0
C462 C 1.01229 0.40974 0.55656 0.0
C463 C 1.00948 0.35884 0.57938 0.0
O464 O 0.97676 0.28381 0.65 0.0
O465 O 0.02743 0.2923 0.63805 0.0
O466 O 0.03179 0.34797 0.57931 0.0
O467 O 0.98088 0.33795 0.59142 0.0
H468 H 0.03005 0.33264 0.70551 0.0
H469 H 0.03444 0.32813 0.76738 0.0
H470 H 0.99461 0.22293 0.75778 0.0
H471 H 0.98945 0.22782 0.69639 0.0
H472 H 0.92941 0.15185 0.50055 0.0
H473 H 0.95964 0.18898 0.54645 0.0
H474 H 0.91982 0.23106 0.44946 0.0
H475 H 0.95055 0.26835 0.49587 0.0
H476 H 1.01077 0.45241 0.53784 0.0
H477 H 0.05281 0.45828 0.63832 0.0
H478 H 0.03973 0.40015 0.63437 0.0
H479 H 1.00089 0.39631 0.53356 0.0
C480 C 0.13987 0.23712 0.24597 0.0
C481 C 0.14217 0.26687 0.23299 0.0
H482 H 0.16167 0.21333 0.27667 0.0
C483 C 0.16923 0.29608 0.24249 0.0
H484 H 0.11931 0.21407 0.23955 0.0
C485 C 0.19305 0.2957 0.2645 0.0
C486 C 0.19104 0.26606 0.2772 0.0
H487 H 0.17244 0.31944 0.23256 0.0
H488 H 0.21291 0.31891 0.27182 0.0
C489 C 0.16407 0.23671 0.26764 0.0
C490 C 0.90368 0.17359 0.41064 0.0
C491 C 0.90072 0.16481 0.44525 0.0
H492 H 0.8851 0.15993 0.36005 0.0
C493 C 0.8767 0.13357 0.45487 0.0
H494 H 0.92215 0.19725 0.4023 0.0
C495 C 0.85564 0.11202 0.4306 0.0
C496 C 0.85816 0.12114 0.39611 0.0
H497 H 0.87354 0.12604 0.48135 0.0
H498 H 0.83723 0.08831 0.43888 0.0
C499 C 0.88269 0.15201 0.38637 0.0
C500 C 0.75737 0.84893 0.62281 0.0
C501 C 0.76087 0.87953 0.61141 0.0
H502 H 0.75441 0.80229 0.60933 0.0
C503 C 0.76566 0.88679 0.57642 0.0
H504 H 0.75332 0.84235 0.64953 0.0
C505 C 0.76574 0.86353 0.55327 0.0
C506 C 0.76108 0.8325 0.56459 0.0
H507 H 0.76885 0.91028 0.56685 0.0
H508 H 0.76827 0.86951 0.52637 0.0
C509 C 0.75757 0.82575 0.5997 0.0
C510 C 0.8557 0.72061 0.74255 0.0
C511 C 0.88255 0.74981 0.73251 0.0
H512 H 0.81232 0.69789 0.77254 0.0
C513 C 0.88474 0.7796 0.74523 0.0
H514 H 0.85257 0.69719 0.73287 0.0
C515 C 0.86067 0.78009 0.76707 0.0
C516 C 0.83393 0.75078 0.77725 0.0
H517 H 0.90513 0.80267 0.73849 0.0
H518 H 0.86304 0.80355 0.7758 0.0
C519 C 0.83199 0.72107 0.7648 0.0
C520 C 0.11542 0.8523 0.91305 0.0
C521 C 0.1242 0.85509 0.94768 0.0
H522 H 0.12994 0.8698 0.86224 0.0
C523 C 0.15474 0.88007 0.95761 0.0
H524 H 0.09194 0.83359 0.90459 0.0
C525 C 0.17635 0.90112 0.93342 0.0
C526 C 0.16805 0.89768 0.89866 0.0
H527 H 0.16248 0.88276 0.98399 0.0
H528 H 0.19977 0.91988 0.94195 0.0
C529 C 0.13709 0.87334 0.88882 0.0
C530 C 0.261 0.15387 0.05272 0.0
C531 C 0.26353 0.18413 0.06418 0.0
H532 H 0.25963 0.10784 0.06615 0.0
C533 C 0.26518 0.19018 0.09943 0.0
H534 H 0.25996 0.14844 0.02574 0.0
C535 C 0.26569 0.16716 0.12255 0.0
C536 C 0.2643 0.13734 0.11106 0.0
H537 H 0.26663 0.21298 0.10918 0.0
H538 H 0.26835 0.17333 0.1494 0.0
C539 C 0.26129 0.13073 0.07589 0.0
C540 C 0.98794 0.47607 0.12562 0.0
C541 C 0.98853 0.45884 0.09592 0.0
H542 H 0.99011 0.51965 0.14732 0.0
C543 C 0.98558 0.47187 0.0643 0.0
H544 H 0.98829 0.4666 0.15079 0.0
C545 C 0.98385 0.50169 0.06247 0.0
C546 C 0.98664 0.52045 0.09202 0.0
H547 H 0.9857 0.45986 0.04058 0.0
H548 H 0.9811 0.51015 0.03749 0.0
C549 C 0.98794 0.50663 0.1237 0.0
C550 C 0.48999 0.00859 0.27398 0.0
C551 C 0.4651 0.98648 0.25298 0.0
H552 H 0.53962 0.02765 0.28994 0.0
C553 C 0.47172 0.96475 0.23255 0.0
H554 H 0.48604 0.02627 0.28929 0.0
C555 C 0.50264 0.96525 0.23314 0.0
C556 C 0.52766 0.98766 0.25398 0.0
H557 H 0.453 0.94739 0.21607 0.0
H558 H 0.50683 0.94801 0.21736 0.0
C559 C 0.52084 0.00933 0.27431 0.0
C560 C 0.56106 0.48903 0.39158 0.0
C561 C 0.58167 0.4973 0.42025 0.0
H562 H 0.51616 0.45566 0.36891 0.0
C563 C 0.57275 0.47495 0.44766 0.0
H564 H 0.56651 0.50554 0.37014 0.0
C565 C 0.54336 0.4461 0.44709 0.0
C566 C 0.52223 0.43852 0.41892 0.0
H567 H 0.58822 0.47983 0.46992 0.0
H568 H 0.5372 0.42983 0.46885 0.0
C569 C 0.53186 0.46015 0.39094 0.0
C570 C 0.03874 0.51405 0.56167 0.0
C571 C 0.03746 0.49565 0.5911 0.0
H572 H 0.03587 0.55564 0.54048 0.0
C573 C 0.03818 0.5101 0.62299 0.0
H574 H 0.04004 0.5052 0.53642 0.0
C575 C 0.0384 0.54078 0.62529 0.0
C576 C 0.03617 0.55756 0.5959 0.0
H577 H 0.0374 0.49746 0.64653 0.0
H578 H 0.0395 0.55073 0.65053 0.0
C579 C 0.03729 0.54398 0.56399 0.0
C580 C 0.50608 0.01366 0.77786 0.0
C581 C 0.49764 0.03101 0.75322 0.0
H582 H 0.54161 0.99911 0.79608 0.0
C583 C 0.52101 0.0491 0.72848 0.0
H584 H 0.48857 0.99886 0.79692 0.0
C585 C 0.55182 0.04942 0.72815 0.0
C586 C 0.55996 0.03143 0.75239 0.0
H587 H 0.51556 0.0631 0.70939 0.0
H588 H 0.56917 0.06367 0.70871 0.0
C589 C 0.53674 0.01388 0.77746 0.0
C590 C 0.46562 0.53069 0.95271 0.0
C591 C 0.44421 0.52011 0.92453 0.0
H592 H 0.51079 0.56607 0.97328 0.0
C593 C 0.45204 0.54051 0.89569 0.0
H594 H 0.46104 0.5157 0.97531 0.0
C595 C 0.48093 0.56984 0.8946 0.0
C596 C 0.50312 0.57959 0.92218 0.0
H597 H 0.43599 0.53381 0.87375 0.0
H598 H 0.48598 0.58462 0.87177 0.0
C599 C 0.4945 0.55993 0.95159 0.0
C600 C 0.98864 0.24436 0.85835 0.0
C601 C 0.01299 0.26921 0.87747 0.0
H602 H 0.96952 0.22708 0.80866 0.0
C603 C 0.03898 0.29465 0.86067 0.0
H604 H 0.96853 0.22438 0.87099 0.0
C605 C 0.04014 0.29591 0.8251 0.0
C606 C 0.015 0.27198 0.80559 0.0
H607 H 0.05835 0.31366 0.87515 0.0
H608 H 0.06065 0.31582 0.81292 0.0
C609 C 0.98947 0.24585 0.82269 0.0
C610 C 0.72518 0.01425 0.98154 0.0
C611 C 0.74996 0.00999 0.96403 0.0
H612 H 0.7047 0.01771 0.0294 0.0
C613 C 0.77334 1.00505 0.9835 0.0
H614 H 0.70632 0.01758 0.96786 0.0
C615 C 0.77129 1.00327 0.01908 0.0
C616 C 0.74646 1.00752 0.03656 0.0
H617 H 0.79336 1.0024 0.97142 0.0
H618 H 0.78917 0.99824 0.0327 0.0
C619 C 0.72372 0.01345 0.01717 0.0
C620 C 0.74639 0.75729 0.1929 0.0
C621 C 0.74094 0.72644 0.20592 0.0
H622 H 0.74598 0.78511 0.14885 0.0
C623 C 0.73266 0.70028 0.18297 0.0
H624 H 0.75258 0.77806 0.20965 0.0
C625 C 0.72805 0.70425 0.14844 0.0
C626 C 0.7322 0.73459 0.13581 0.0
H627 H 0.72937 0.67651 0.19166 0.0
H628 H 0.72108 0.68345 0.13152 0.0
C629 C 0.74236 0.76137 0.1581 0.0
C630 C 0.98247 0.73886 0.32274 0.0
C631 C 1.01159 0.74731 0.30456 0.0
H632 H 0.96004 0.73337 0.37188 0.0
C633 C 0.04126 0.75817 0.32241 0.0
H634 H 0.9594 0.73082 0.30939 0.0
C635 C 0.04167 0.75932 0.35803 0.0
C636 C 1.01246 0.75021 0.37639 0.0
H637 H 0.06403 0.76498 0.30878 0.0
H638 H 0.06478 0.76712 0.37123 0.0
C639 C 0.98294 0.7406 0.35837 0.0
C640 C 0.25353 0.01354 0.51928 0.0
C641 C 0.27819 0.00904 0.53674 0.0
H642 H 0.23171 0.01478 0.47161 0.0
C643 C 0.3009 1.00303 0.51732 0.0
H644 H 0.23569 0.01863 0.53294 0.0
C645 C 0.29955 1.00239 0.48169 0.0
C646 C 0.27494 1.00688 0.46419 0.0
H647 H 0.31978 0.99857 0.52952 0.0
H648 H 0.31839 0.99897 0.46801 0.0
C649 C 0.2516 0.01193 0.48368 0.0
C650 C 0.3142 0.3124 0.65286 0.0
C651 C 0.29487 0.28271 0.63622 0.0
H652 H 0.32631 0.33931 0.69928 0.0
C653 C 0.27033 0.25743 0.65514 0.0
H654 H 0.33272 0.33287 0.6392 0.0
C655 C 0.2654 0.26181 0.68963 0.0
C656 C 0.28542 0.29129 0.70646 0.0
H657 H 0.25499 0.23405 0.64353 0.0
H658 H 0.24589 0.24191 0.70298 0.0
C659 C 0.30986 0.31646 0.68745 0.0
loop_
_geom_bond_atom_site_label_1
_geom_bond_atom_site_label_2
_geom_bond_distance
_geom_bond_site_symmetry_2
_ccdc_geom_bond_type
C0 C1 1.264 . S
C0 C5 1.479 . S
C0 C10 1.465 1_556 S
C1 C0 1.264 . S
C1 C3 1.339 . S
C1 H28 0.931 . S
C2 C3 1.395 . S
C2 C4 1.320 . S
C3 C1 1.339 . S
C3 C2 1.395 . S
C3 H29 0.929 . S
C4 C2 1.320 . S
C4 C5 1.405 . S
C4 H30 0.930 . S
C5 C0 1.479 . S
C5 C4 1.405 . S
C5 H31 0.931 . S
U6 O7 2.454 1_655 S
U6 O8 2.458 1_655 S
U6 C9 2.984 1_655 S
U6 C10 2.847 . S
U6 C23 2.882 . S
U6 O24 2.441 . S
U6 O25 2.420 . S
U6 O26 2.455 . S
U6 O27 2.449 . S
O7 U6 2.454 1_455 S
O7 C9 1.353 . S
O8 U6 2.458 1_455 S
O8 C9 1.286 . S
C9 U6 2.984 1_455 S
C9 O7 1.353 . S
C9 O8 1.286 . S
C9 C11 1.363 . S
C10 C0 1.465 1_554 S
C10 U6 2.847 . S
C10 O24 1.249 . S
C10 O25 1.202 . S
C11 C9 1.363 . S
C11 C13 1.408 . S
C11 C16 1.342 . S
C12 C13 1.310 . S
C12 C15 1.461 . S
C12 H32 0.932 . S
C13 C11 1.408 . S
C13 C12 1.310 . S
C13 H33 0.930 . S
C14 C15 1.474 . S
C14 C16 1.285 . S
C14 H34 0.929 . S
C15 C12 1.461 . S
C15 C14 1.474 . S
C16 C11 1.342 . S
C16 C14 1.285 . S
C16 H35 0.930 . S
C17 C20 1.424 . S
C17 C22 1.245 . S
C17 C23 1.428 . S
C18 C21 1.260 . S
C18 C22 1.477 . S
C18 H36 0.932 . S
C19 C20 1.384 . S
C19 C21 1.479 . S
C19 H37 0.929 . S
C20 C17 1.424 . S
C20 C19 1.384 . S
C20 H38 0.928 . S
C21 C18 1.260 . S
C21 C19 1.479 . S
C22 C17 1.245 . S
C22 C18 1.477 . S
C22 H39 0.932 . S
C23 U6 2.882 . S
C23 C17 1.428 . S
C23 O26 1.301 . S
C23 O27 1.282 . S
O24 U6 2.441 . S
O24 C10 1.249 . S
O25 U6 2.420 . S
O25 C10 1.202 . S
O26 U6 2.455 . S
O26 C23 1.301 . S
O27 U6 2.449 . S
O27 C23 1.282 . S
H28 C1 0.931 . S
H29 C3 0.929 . S
H30 C4 0.930 . S
H31 C5 0.931 . S
H32 C12 0.932 . S
H33 C13 0.930 . S
H34 C14 0.929 . S
H35 C16 0.930 . S
H36 C18 0.932 . S
H37 C19 0.929 . S
H38 C20 0.928 . S
H39 C22 0.932 . S
C40 C41 1.264 . S
C40 C45 1.479 . S
C40 C50 1.465 . S
C41 C40 1.264 . S
C41 C43 1.339 . S
C41 H68 0.931 . S
C42 C43 1.395 . S
C42 C44 1.320 . S
C43 C41 1.339 . S
C43 C42 1.395 . S
C43 H69 0.929 . S
C44 C42 1.320 . S
C44 C45 1.405 . S
C44 H70 0.930 . S
C45 C40 1.479 . S
C45 C44 1.405 . S
C45 H71 0.931 . S
U46 O47 2.454 1_565 S
U46 O48 2.458 1_565 S
U46 C49 2.984 1_565 S
U46 C50 2.847 . S
U46 C63 2.882 . S
U46 O64 2.441 . S
U46 O65 2.420 . S
U46 O66 2.455 . S
U46 O67 2.449 . S
O47 U46 2.454 1_545 S
O47 C49 1.353 . S
O48 U46 2.458 1_545 S
O48 C49 1.286 . S
C49 U46 2.984 1_545 S
C49 O47 1.353 . S
C49 O48 1.286 . S
C49 C51 1.363 . S
C50 C40 1.465 . S
C50 U46 2.847 . S
C50 O64 1.249 . S
C50 O65 1.202 . S
C51 C49 1.363 . S
C51 C53 1.408 . S
C51 C56 1.342 . S
C52 C53 1.310 . S
C52 C55 1.461 . S
C52 H72 0.932 . S
C53 C51 1.408 . S
C53 C52 1.310 . S
C53 H73 0.930 . S
C54 C55 1.474 . S
C54 C56 1.285 . S
C54 H74 0.929 . S
C55 C52 1.461 . S
C55 C54 1.474 . S
C56 C51 1.342 . S
C56 C54 1.285 . S
C56 H75 0.930 . S
C57 C60 1.424 . S
C57 C62 1.245 . S
C57 C63 1.428 . S
C58 C61 1.260 . S
C58 C62 1.477 . S
C58 H76 0.932 . S
C59 C60 1.384 . S
C59 C61 1.479 . S
C59 H77 0.929 . S
C60 C57 1.424 . S
C60 C59 1.384 . S
C60 H78 0.928 . S
C61 C58 1.260 . S
C61 C59 1.479 . S
C62 C57 1.245 . S
C62 C58 1.477 . S
C62 H79 0.932 . S
C63 U46 2.882 . S
C63 C57 1.428 . S
C63 O66 1.301 . S
C63 O67 1.282 . S
O64 U46 2.441 . S
O64 C50 1.249 . S
O65 U46 2.420 . S
O65 C50 1.202 . S
O66 U46 2.455 . S
O66 C63 1.301 . S
O67 U46 2.449 . S
O67 C63 1.282 . S
H68 C41 0.931 . S
H69 C43 0.929 . S
H70 C44 0.930 . S
H71 C45 0.931 . S
H72 C52 0.932 . S
H73 C53 0.930 . S
H74 C54 0.929 . S
H75 C56 0.930 . S
H76 C58 0.932 . S
H77 C59 0.929 . S
H78 C60 0.928 . S
H79 C62 0.932 . S
C80 C81 1.264 . S
C80 C85 1.479 . S
C80 C90 1.465 . S
C81 C80 1.264 . S
C81 C83 1.339 . S
C81 H108 0.931 . S
C82 C83 1.395 . S
C82 C84 1.320 . S
C83 C81 1.339 . S
C83 C82 1.395 . S
C83 H109 0.929 . S
C84 C82 1.320 . S
C84 C85 1.405 . S
C84 H110 0.930 . S
C85 C80 1.479 . S
C85 C84 1.405 . S
C85 H111 0.931 . S
U86 O87 2.454 . S
U86 O88 2.458 . S
U86 C89 2.984 . S
U86 C90 2.847 . S
U86 C103 2.882 . S
U86 O104 2.441 . S
U86 O105 2.420 . S
U86 O106 2.455 . S
U86 O107 2.449 . S
O87 U86 2.454 . S
O87 C89 1.353 . S
O88 U86 2.458 . S
O88 C89 1.286 . S
C89 U86 2.984 . S
C89 O87 1.353 . S
C89 O88 1.286 . S
C89 C91 1.363 . S
C90 C80 1.465 . S
C90 U86 2.847 . S
C90 O104 1.249 . S
C90 O105 1.202 . S
C91 C89 1.363 . S
C91 C93 1.408 . S
C91 C96 1.342 . S
C92 C93 1.310 . S
C92 C95 1.461 . S
C92 H112 0.932 . S
C93 C91 1.408 . S
C93 C92 1.310 . S
C93 H113 0.930 . S
C94 C95 1.474 . S
C94 C96 1.285 . S
C94 H114 0.929 . S
C95 C92 1.461 . S
C95 C94 1.474 . S
C96 C91 1.342 . S
C96 C94 1.285 . S
C96 H115 0.930 . S
C97 C100 1.424 . S
C97 C102 1.245 . S
C97 C103 1.428 . S
C98 C101 1.260 . S
C98 C102 1.477 . S
C98 H116 0.932 . S
C99 C100 1.384 . S
C99 C101 1.479 . S
C99 H117 0.929 . S
C100 C97 1.424 . S
C100 C99 1.384 . S
C100 H118 0.928 . S
C101 C98 1.260 . S
C101 C99 1.479 . S
C102 C97 1.245 . S
C102 C98 1.477 . S
C102 H119 0.932 . S
C103 U86 2.882 . S
C103 C97 1.428 . S
C103 O106 1.301 . S
C103 O107 1.282 . S
O104 U86 2.441 . S
O104 C90 1.249 . S
O105 U86 2.420 . S
O105 C90 1.202 . S
O106 U86 2.455 . S
O106 C103 1.301 . S
O107 U86 2.449 . S
O107 C103 1.282 . S
H108 C81 0.931 . S
H109 C83 0.929 . S
H110 C84 0.930 . S
H111 C85 0.931 . S
H112 C92 0.932 . S
H113 C93 0.930 . S
H114 C94 0.929 . S
H115 C96 0.930 . S
H116 C98 0.932 . S
H117 C99 0.929 . S
H118 C100 0.928 . S
H119 C102 0.932 . S
C120 C121 1.264 . S
C120 C125 1.479 . S
C120 C130 1.465 . S
C121 C120 1.264 . S
C121 C123 1.339 . S
C121 H148 0.931 . S
C122 C123 1.395 . S
C122 C124 1.320 . S
C123 C121 1.339 . S
C123 C122 1.395 . S
C123 H149 0.929 . S
C124 C122 1.320 . S
C124 C125 1.405 . S
C124 H150 0.930 . S
C125 C120 1.479 . S
C125 C124 1.405 . S
C125 H151 0.931 . S
U126 O127 2.454 1_455 S
U126 O128 2.458 1_455 S
U126 C129 2.984 1_455 S
U126 C130 2.847 . S
U126 C143 2.882 . S
U126 O144 2.441 . S
U126 O145 2.420 . S
U126 O146 2.455 . S
U126 O147 2.449 . S
O127 U126 2.454 1_655 S
O127 C129 1.353 . S
O128 U126 2.458 1_655 S
O128 C129 1.286 . S
C129 U126 2.984 1_655 S
C129 O127 1.353 . S
C129 O128 1.286 . S
C129 C131 1.363 . S
C130 C120 1.465 . S
C130 U126 2.847 . S
C130 O144 1.249 . S
C130 O145 1.202 . S
C131 C129 1.363 . S
C131 C133 1.408 . S
C131 C136 1.342 . S
C132 C133 1.310 . S
C132 C135 1.461 . S
C132 H152 0.932 . S
C133 C131 1.408 . S
C133 C132 1.310 . S
C133 H153 0.930 . S
C134 C135 1.474 . S
C134 C136 1.285 . S
C134 H154 0.929 . S
C135 C132 1.461 . S
C135 C134 1.474 . S
C136 C131 1.342 . S
C136 C134 1.285 . S
C136 H155 0.930 . S
C137 C140 1.424 . S
C137 C142 1.245 . S
C137 C143 1.428 . S
C138 C141 1.260 . S
C138 C142 1.477 . S
C138 H156 0.932 . S
C139 C140 1.384 . S
C139 C141 1.479 . S
C139 H157 0.929 . S
C140 C137 1.424 . S
C140 C139 1.384 . S
C140 H158 0.928 . S
C141 C138 1.260 . S
C141 C139 1.479 . S
C142 C137 1.245 . S
C142 C138 1.477 . S
C142 H159 0.932 . S
C143 U126 2.882 . S
C143 C137 1.428 . S
C143 O146 1.301 . S
C143 O147 1.282 . S
O144 U126 2.441 . S
O144 C130 1.249 . S
O145 U126 2.420 . S
O145 C130 1.202 . S
O146 U126 2.455 . S
O146 C143 1.301 . S
O147 U126 2.449 . S
O147 C143 1.282 . S
H148 C121 0.931 . S
H149 C123 0.929 . S
H150 C124 0.930 . S
H151 C125 0.931 . S
H152 C132 0.932 . S
H153 C133 0.930 . S
H154 C134 0.929 . S
H155 C136 0.930 . S
H156 C138 0.932 . S
H157 C139 0.929 . S
H158 C140 0.928 . S
H159 C142 0.932 . S
C160 C161 1.264 . S
C160 C165 1.479 . S
C160 C170 1.465 . S
C161 C160 1.264 . S
C161 C163 1.339 . S
C161 H188 0.931 . S
C162 C163 1.395 . S
C162 C164 1.320 . S
C163 C161 1.339 . S
C163 C162 1.395 . S
C163 H189 0.929 . S
C164 C162 1.320 . S
C164 C165 1.405 . S
C164 H190 0.930 . S
C165 C160 1.479 . S
C165 C164 1.405 . S
C165 H191 0.931 . S
U166 O167 2.454 1_545 S
U166 O168 2.458 1_545 S
U166 C169 2.984 1_545 S
U166 C170 2.847 . S
U166 C183 2.882 . S
U166 O184 2.441 . S
U166 O185 2.420 . S
U166 O186 2.455 . S
U166 O187 2.449 . S
O167 U166 2.454 1_565 S
O167 C169 1.353 . S
O168 U166 2.458 1_565 S
O168 C169 1.286 . S
C169 U166 2.984 1_565 S
C169 O167 1.353 . S
C169 O168 1.286 . S
C169 C171 1.363 . S
C170 C160 1.465 . S
C170 U166 2.847 . S
C170 O184 1.249 . S
C170 O185 1.202 . S
C171 C169 1.363 . S
C171 C173 1.408 . S
C171 C176 1.342 . S
C172 C173 1.310 . S
C172 C175 1.461 . S
C172 H192 0.932 . S
C173 C171 1.408 . S
C173 C172 1.310 . S
C173 H193 0.930 . S
C174 C175 1.474 . S
C174 C176 1.285 . S
C174 H194 0.929 . S
C175 C172 1.461 . S
C175 C174 1.474 . S
C176 C171 1.342 . S
C176 C174 1.285 . S
C176 H195 0.930 . S
C177 C180 1.424 . S
C177 C182 1.245 . S
C177 C183 1.428 . S
C178 C181 1.260 . S
C178 C182 1.477 . S
C178 H196 0.932 . S
C179 C180 1.384 . S
C179 C181 1.479 . S
C179 H197 0.929 . S
C180 C177 1.424 . S
C180 C179 1.384 . S
C180 H198 0.928 . S
C181 C178 1.260 . S
C181 C179 1.479 . S
C182 C177 1.245 . S
C182 C178 1.477 . S
C182 H199 0.932 . S
C183 U166 2.882 . S
C183 C177 1.428 . S
C183 O186 1.301 . S
C183 O187 1.282 . S
O184 U166 2.441 . S
O184 C170 1.249 . S
O185 U166 2.420 . S
O185 C170 1.202 . S
O186 U166 2.455 . S
O186 C183 1.301 . S
O187 U166 2.449 . S
O187 C183 1.282 . S
H188 C161 0.931 . S
H189 C163 0.929 . S
H190 C164 0.930 . S
H191 C165 0.931 . S
H192 C172 0.932 . S
H193 C173 0.930 . S
H194 C174 0.929 . S
H195 C176 0.930 . S
H196 C178 0.932 . S
H197 C179 0.929 . S
H198 C180 0.928 . S
H199 C182 0.932 . S
C200 C201 1.264 . S
C200 C205 1.479 . S
C200 C210 1.465 . S
C201 C200 1.264 . S
C201 C203 1.339 . S
C201 H228 0.931 . S
C202 C203 1.395 . S
C202 C204 1.320 . S
C203 C201 1.339 . S
C203 C202 1.395 . S
C203 H229 0.929 . S
C204 C202 1.320 . S
C204 C205 1.405 . S
C204 H230 0.930 . S
C205 C200 1.479 . S
C205 C204 1.405 . S
C205 H231 0.931 . S
U206 O207 2.454 . S
U206 O208 2.458 . S
U206 C209 2.984 . S
U206 C210 2.847 . S
U206 C223 2.882 . S
U206 O224 2.441 . S
U206 O225 2.420 . S
U206 O226 2.455 . S
U206 O227 2.449 . S
O207 U206 2.454 . S
O207 C209 1.353 . S
O208 U206 2.458 . S
O208 C209 1.286 . S
C209 U206 2.984 . S
C209 O207 1.353 . S
C209 O208 1.286 . S
C209 C211 1.363 . S
C210 C200 1.465 . S
C210 U206 2.847 . S
C210 O224 1.249 . S
C210 O225 1.202 . S
C211 C209 1.363 . S
C211 C213 1.408 . S
C211 C216 1.342 1_556 S
C212 C213 1.310 1_554 S
C212 C215 1.461 . S
C212 H232 0.932 1_554 S
C213 C211 1.408 . S
C213 C212 1.310 1_556 S
C213 H233 0.930 . S
C214 C215 1.474 . S
C214 C216 1.285 . S
C214 H234 0.929 . S
C215 C212 1.461 . S
C215 C214 1.474 . S
C216 C211 1.342 1_554 S
C216 C214 1.285 . S
C216 H235 0.930 . S
C217 C220 1.424 . S
C217 C222 1.245 . S
C217 C223 1.428 . S
C218 C221 1.260 . S
C218 C222 1.477 . S
C218 H236 0.932 . S
C219 C220 1.384 . S
C219 C221 1.479 . S
C219 H237 0.929 . S
C220 C217 1.424 . S
C220 C219 1.384 . S
C220 H238 0.928 . S
C221 C218 1.260 . S
C221 C219 1.479 . S
C222 C217 1.245 . S
C222 C218 1.477 . S
C222 H239 0.932 . S
C223 U206 2.882 . S
C223 C217 1.428 . S
C223 O226 1.301 . S
C223 O227 1.282 . S
O224 U206 2.441 . S
O224 C210 1.249 . S
O225 U206 2.420 . S
O225 C210 1.202 . S
O226 U206 2.455 . S
O226 C223 1.301 . S
O227 U206 2.449 . S
O227 C223 1.282 . S
H228 C201 0.931 . S
H229 C203 0.929 . S
H230 C204 0.930 . S
H231 C205 0.931 . S
H232 C212 0.932 1_556 S
H233 C213 0.930 . S
H234 C214 0.929 . S
H235 C216 0.930 . S
H236 C218 0.932 . S
H237 C219 0.929 . S
H238 C220 0.928 . S
H239 C222 0.932 . S
C240 C241 1.264 . S
C240 C245 1.479 . S
C240 C250 1.465 . S
C241 C240 1.264 . S
C241 C243 1.339 . S
C241 H268 0.931 . S
C242 C243 1.395 . S
C242 C244 1.320 . S
C243 C241 1.339 . S
C243 C242 1.395 . S
C243 H269 0.929 . S
C244 C242 1.320 . S
C244 C245 1.405 . S
C244 H270 0.930 . S
C245 C240 1.479 . S
C245 C244 1.405 . S
C245 H271 0.931 . S
U246 O247 2.454 1_545 S
U246 O248 2.458 1_545 S
U246 C249 2.984 1_545 S
U246 C250 2.847 . S
U246 C263 2.882 . S
U246 O264 2.441 . S
U246 O265 2.420 . S
U246 O266 2.455 . S
U246 O267 2.449 . S
O247 U246 2.454 1_565 S
O247 C249 1.353 . S
O248 U246 2.458 1_565 S
O248 C249 1.286 . S
C249 U246 2.984 1_565 S
C249 O247 1.353 . S
C249 O248 1.286 . S
C249 C251 1.363 . S
C250 C240 1.465 . S
C250 U246 2.847 . S
C250 O264 1.249 . S
C250 O265 1.202 . S
C251 C249 1.363 . S
C251 C253 1.408 . S
C251 C256 1.342 . S
C252 C253 1.310 . S
C252 C255 1.461 . S
C252 H272 0.932 . S
C253 C251 1.408 . S
C253 C252 1.310 . S
C253 H273 0.930 . S
C254 C255 1.474 . S
C254 C256 1.285 . S
C254 H274 0.929 . S
C255 C252 1.461 . S
C255 C254 1.474 . S
C256 C251 1.342 . S
C256 C254 1.285 . S
C256 H275 0.930 . S
C257 C260 1.424 . S
C257 C262 1.245 . S
C257 C263 1.428 . S
C258 C261 1.260 . S
C258 C262 1.477 . S
C258 H276 0.932 . S
C259 C260 1.384 . S
C259 C261 1.479 . S
C259 H277 0.929 . S
C260 C257 1.424 . S
C260 C259 1.384 . S
C260 H278 0.928 . S
C261 C258 1.260 . S
C261 C259 1.479 . S
C262 C257 1.245 . S
C262 C258 1.477 . S
C262 H279 0.932 . S
C263 U246 2.882 . S
C263 C257 1.428 . S
C263 O266 1.301 . S
C263 O267 1.282 . S
O264 U246 2.441 . S
O264 C250 1.249 . S
O265 U246 2.420 . S
O265 C250 1.202 . S
O266 U246 2.455 . S
O266 C263 1.301 . S
O267 U246 2.449 . S
O267 C263 1.282 . S
H268 C241 0.931 . S
H269 C243 0.929 . S
H270 C244 0.930 . S
H271 C245 0.931 . S
H272 C252 0.932 . S
H273 C253 0.930 . S
H274 C254 0.929 . S
H275 C256 0.930 . S
H276 C258 0.932 . S
H277 C259 0.929 . S
H278 C260 0.928 . S
H279 C262 0.932 . S
C280 C281 1.264 . S
C280 C285 1.479 . S
C280 C290 1.465 1_554 S
C281 C280 1.264 . S
C281 C283 1.339 . S
C281 H308 0.931 . S
C282 C283 1.395 . S
C282 C284 1.320 . S
C283 C281 1.339 . S
C283 C282 1.395 . S
C283 H309 0.929 . S
C284 C282 1.320 . S
C284 C285 1.405 . S
C284 H310 0.930 . S
C285 C280 1.479 . S
C285 C284 1.405 . S
C285 H311 0.931 . S
U286 O287 2.454 . S
U286 O288 2.458 . S
U286 C289 2.984 . S
U286 C290 2.847 . S
U286 C303 2.882 . S
U286 O304 2.441 . S
U286 O305 2.420 . S
U286 O306 2.455 . S
U286 O307 2.449 . S
O287 U286 2.454 . S
O287 C289 1.353 . S
O288 U286 2.458 . S
O288 C289 1.286 . S
C289 U286 2.984 . S
C289 O287 1.353 . S
C289 O288 1.286 . S
C289 C291 1.363 . S
C290 C280 1.465 1_556 S
C290 U286 2.847 . S
C290 O304 1.249 . S
C290 O305 1.202 . S
C291 C289 1.363 . S
C291 C293 1.408 . S
C291 C296 1.342 . S
C292 C293 1.310 . S
C292 C295 1.461 . S
C292 H312 0.932 . S
C293 C291 1.408 . S
C293 C292 1.310 . S
C293 H313 0.930 . S
C294 C295 1.474 . S
C294 C296 1.285 . S
C294 H314 0.929 . S
C295 C292 1.461 . S
C295 C294 1.474 . S
C296 C291 1.342 . S
C296 C294 1.285 . S
C296 H315 0.930 . S
C297 C300 1.424 . S
C297 C302 1.245 . S
C297 C303 1.428 . S
C298 C301 1.260 . S
C298 C302 1.477 . S
C298 H316 0.932 . S
C299 C300 1.384 . S
C299 C301 1.479 . S
C299 H317 0.929 . S
C300 C297 1.424 . S
C300 C299 1.384 . S
C300 H318 0.928 . S
C301 C298 1.260 . S
C301 C299 1.479 . S
C302 C297 1.245 . S
C302 C298 1.477 . S
C302 H319 0.932 . S
C303 U286 2.882 . S
C303 C297 1.428 . S
C303 O306 1.301 . S
C303 O307 1.282 . S
O304 U286 2.441 . S
O304 C290 1.249 . S
O305 U286 2.420 . S
O305 C290 1.202 . S
O306 U286 2.455 . S
O306 C303 1.301 . S
O307 U286 2.449 . S
O307 C303 1.282 . S
H308 C281 0.931 . S
H309 C283 0.929 . S
H310 C284 0.930 . S
H311 C285 0.931 . S
H312 C292 0.932 . S
H313 C293 0.930 . S
H314 C294 0.929 . S
H315 C296 0.930 . S
H316 C298 0.932 . S
H317 C299 0.929 . S
H318 C300 0.928 . S
H319 C302 0.932 . S
C320 C321 1.264 . S
C320 C325 1.479 . S
C320 C330 1.465 . S
C321 C320 1.264 . S
C321 C323 1.339 . S
C321 H348 0.931 . S
C322 C323 1.395 . S
C322 C324 1.320 . S
C323 C321 1.339 . S
C323 C322 1.395 . S
C323 H349 0.929 . S
C324 C322 1.320 . S
C324 C325 1.405 . S
C324 H350 0.930 . S
C325 C320 1.479 . S
C325 C324 1.405 . S
C325 H351 0.931 . S
U326 O327 2.454 1_655 S
U326 O328 2.458 1_655 S
U326 C329 2.984 1_655 S
U326 C330 2.847 . S
U326 C343 2.882 . S
U326 O344 2.441 . S
U326 O345 2.420 . S
U326 O346 2.455 . S
U326 O347 2.449 . S
O327 U326 2.454 1_455 S
O327 C329 1.353 . S
O328 U326 2.458 1_455 S
O328 C329 1.286 . S
C329 U326 2.984 1_455 S
C329 O327 1.353 . S
C329 O328 1.286 . S
C329 C331 1.363 . S
C330 C320 1.465 . S
C330 U326 2.847 . S
C330 O344 1.249 . S
C330 O345 1.202 . S
C331 C329 1.363 . S
C331 C333 1.408 . S
C331 C336 1.342 1_554 S
C332 C333 1.310 . S
C332 C335 1.461 1_554 S
C332 H352 0.932 . S
C333 C331 1.408 . S
C333 C332 1.310 . S
C333 H353 0.930 . S
C334 C335 1.474 . S
C334 C336 1.285 . S
C334 H354 0.929 . S
C335 C332 1.461 1_556 S
C335 C334 1.474 . S
C336 C331 1.342 1_556 S
C336 C334 1.285 . S
C336 H355 0.930 . S
C337 C340 1.424 . S
C337 C342 1.245 . S
C337 C343 1.428 . S
C338 C341 1.260 . S
C338 C342 1.477 . S
C338 H356 0.932 . S
C339 C340 1.384 . S
C339 C341 1.479 . S
C339 H357 0.929 . S
C340 C337 1.424 . S
C340 C339 1.384 . S
C340 H358 0.928 . S
C341 C338 1.260 . S
C341 C339 1.479 . S
C342 C337 1.245 . S
C342 C338 1.477 . S
C342 H359 0.932 . S
C343 U326 2.882 . S
C343 C337 1.428 . S
C343 O346 1.301 . S
C343 O347 1.282 . S
O344 U326 2.441 . S
O344 C330 1.249 . S
O345 U326 2.420 . S
O345 C330 1.202 . S
O346 U326 2.455 . S
O346 C343 1.301 . S
O347 U326 2.449 . S
O347 C343 1.282 . S
H348 C321 0.931 . S
H349 C323 0.929 . S
H350 C324 0.930 . S
H351 C325 0.931 . S
H352 C332 0.932 . S
H353 C333 0.930 . S
H354 C334 0.929 . S
H355 C336 0.930 . S
H356 C338 0.932 . S
H357 C339 0.929 . S
H358 C340 0.928 . S
H359 C342 0.932 . S
C360 C361 1.264 . S
C360 C365 1.479 . S
C360 C370 1.465 . S
C361 C360 1.264 . S
C361 C363 1.339 . S
C361 H388 0.931 . S
C362 C363 1.395 . S
C362 C364 1.320 . S
C363 C361 1.339 . S
C363 C362 1.395 . S
C363 H389 0.929 . S
C364 C362 1.320 . S
C364 C365 1.405 . S
C364 H390 0.930 . S
C365 C360 1.479 . S
C365 C364 1.405 . S
C365 H391 0.931 . S
U366 O367 2.454 1_565 S
U366 O368 2.458 1_565 S
U366 C369 2.984 1_565 S
U366 C370 2.847 . S
U366 C383 2.882 . S
U366 O384 2.441 . S
U366 O385 2.420 . S
U366 O386 2.455 . S
U366 O387 2.449 . S
O367 U366 2.454 1_545 S
O367 C369 1.353 . S
O368 U366 2.458 1_545 S
O368 C369 1.286 . S
C369 U366 2.984 1_545 S
C369 O367 1.353 . S
C369 O368 1.286 . S
C369 C371 1.363 . S
C370 C360 1.465 . S
C370 U366 2.847 . S
C370 O384 1.249 . S
C370 O385 1.202 . S
C371 C369 1.363 . S
C371 C373 1.408 . S
C371 C376 1.342 . S
C372 C373 1.310 . S
C372 C375 1.461 . S
C372 H392 0.932 . S
C373 C371 1.408 . S
C373 C372 1.310 . S
C373 H393 0.930 . S
C374 C375 1.474 . S
C374 C376 1.285 . S
C374 H394 0.929 . S
C375 C372 1.461 . S
C375 C374 1.474 . S
C376 C371 1.342 . S
C376 C374 1.285 . S
C376 H395 0.930 . S
C377 C380 1.424 . S
C377 C382 1.245 . S
C377 C383 1.428 . S
C378 C381 1.260 . S
C378 C382 1.477 . S
C378 H396 0.932 . S
C379 C380 1.384 . S
C379 C381 1.479 . S
C379 H397 0.929 . S
C380 C377 1.424 . S
C380 C379 1.384 . S
C380 H398 0.928 . S
C381 C378 1.260 . S
C381 C379 1.479 . S
C382 C377 1.245 . S
C382 C378 1.477 . S
C382 H399 0.932 . S
C383 U366 2.882 . S
C383 C377 1.428 . S
C383 O386 1.301 . S
C383 O387 1.282 . S
O384 U366 2.441 . S
O384 C370 1.249 . S
O385 U366 2.420 . S
O385 C370 1.202 . S
O386 U366 2.455 . S
O386 C383 1.301 . S
O387 U366 2.449 . S
O387 C383 1.282 . S
H388 C361 0.931 . S
H389 C363 0.929 . S
H390 C364 0.930 . S
H391 C365 0.931 . S
H392 C372 0.932 . S
H393 C373 0.930 . S
H394 C374 0.929 . S
H395 C376 0.930 . S
H396 C378 0.932 . S
H397 C379 0.929 . S
H398 C380 0.928 . S
H399 C382 0.932 . S
C400 C401 1.264 . S
C400 C405 1.479 . S
C400 C410 1.465 . S
C401 C400 1.264 . S
C401 C403 1.339 . S
C401 H428 0.931 . S
C402 C403 1.395 . S
C402 C404 1.320 . S
C403 C401 1.339 . S
C403 C402 1.395 . S
C403 H429 0.929 . S
C404 C402 1.320 . S
C404 C405 1.405 . S
C404 H430 0.930 . S
C405 C400 1.479 . S
C405 C404 1.405 . S
C405 H431 0.931 . S
U406 O407 2.454 . S
U406 O408 2.458 . S
U406 C409 2.984 . S
U406 C410 2.847 . S
U406 C423 2.882 . S
U406 O424 2.441 . S
U406 O425 2.420 . S
U406 O426 2.455 . S
U406 O427 2.449 . S
O407 U406 2.454 . S
O407 C409 1.353 . S
O408 U406 2.458 . S
O408 C409 1.286 . S
C409 U406 2.984 . S
C409 O407 1.353 . S
C409 O408 1.286 . S
C409 C411 1.363 . S
C410 C400 1.465 . S
C410 U406 2.847 . S
C410 O424 1.249 . S
C410 O425 1.202 . S
C411 C409 1.363 . S
C411 C413 1.408 . S
C411 C416 1.342 . S
C412 C413 1.310 . S
C412 C415 1.461 . S
C412 H432 0.932 . S
C413 C411 1.408 . S
C413 C412 1.310 . S
C413 H433 0.930 . S
C414 C415 1.474 . S
C414 C416 1.285 . S
C414 H434 0.929 . S
C415 C412 1.461 . S
C415 C414 1.474 . S
C416 C411 1.342 . S
C416 C414 1.285 . S
C416 H435 0.930 . S
C417 C420 1.424 . S
C417 C422 1.245 . S
C417 C423 1.428 . S
C418 C421 1.260 . S
C418 C422 1.477 . S
C418 H436 0.932 . S
C419 C420 1.384 . S
C419 C421 1.479 . S
C419 H437 0.929 . S
C420 C417 1.424 . S
C420 C419 1.384 . S
C420 H438 0.928 . S
C421 C418 1.260 . S
C421 C419 1.479 . S
C422 C417 1.245 . S
C422 C418 1.477 . S
C422 H439 0.932 . S
C423 U406 2.882 . S
C423 C417 1.428 . S
C423 O426 1.301 . S
C423 O427 1.282 . S
O424 U406 2.441 . S
O424 C410 1.249 . S
O425 U406 2.420 . S
O425 C410 1.202 . S
O426 U406 2.455 . S
O426 C423 1.301 . S
O427 U406 2.449 . S
O427 C423 1.282 . S
H428 C401 0.931 . S
H429 C403 0.929 . S
H430 C404 0.930 . S
H431 C405 0.931 . S
H432 C412 0.932 . S
H433 C413 0.930 . S
H434 C414 0.929 . S
H435 C416 0.930 . S
H436 C418 0.932 . S
H437 C419 0.929 . S
H438 C420 0.928 . S
H439 C422 0.932 . S
C440 C441 1.264 . S
C440 C445 1.479 . S
C440 C450 1.465 . S
C441 C440 1.264 . S
C441 C443 1.339 . S
C441 H468 0.931 . S
C442 C443 1.395 . S
C442 C444 1.320 . S
C443 C441 1.339 . S
C443 C442 1.395 . S
C443 H469 0.929 . S
C444 C442 1.320 . S
C444 C445 1.405 . S
C444 H470 0.930 . S
C445 C440 1.479 . S
C445 C444 1.405 . S
C445 H471 0.931 . S
U446 O447 2.454 1_455 S
U446 O448 2.458 1_455 S
U446 C449 2.984 1_455 S
U446 C450 2.847 . S
U446 C463 2.882 . S
U446 O464 2.441 . S
U446 O465 2.420 . S
U446 O466 2.455 . S
U446 O467 2.449 . S
O447 U446 2.454 1_655 S
O447 C449 1.353 . S
O448 U446 2.458 1_655 S
O448 C449 1.286 . S
C449 U446 2.984 1_655 S
C449 O447 1.353 . S
C449 O448 1.286 . S
C449 C451 1.363 . S
C450 C440 1.465 . S
C450 U446 2.847 . S
C450 O464 1.249 . S
C450 O465 1.202 . S
C451 C449 1.363 . S
C451 C453 1.408 . S
C451 C456 1.342 . S
C452 C453 1.310 . S
C452 C455 1.461 . S
C452 H472 0.932 . S
C453 C451 1.408 . S
C453 C452 1.310 . S
C453 H473 0.930 . S
C454 C455 1.474 . S
C454 C456 1.285 . S
C454 H474 0.929 . S
C455 C452 1.461 . S
C455 C454 1.474 . S
C456 C451 1.342 . S
C456 C454 1.285 . S
C456 H475 0.930 . S
C457 C460 1.424 . S
C457 C462 1.245 . S
C457 C463 1.428 . S
C458 C461 1.260 . S
C458 C462 1.477 . S
C458 H476 0.932 . S
C459 C460 1.384 . S
C459 C461 1.479 . S
C459 H477 0.929 . S
C460 C457 1.424 . S
C460 C459 1.384 . S
C460 H478 0.928 . S
C461 C458 1.260 . S
C461 C459 1.479 . S
C462 C457 1.245 . S
C462 C458 1.477 . S
C462 H479 0.932 . S
C463 U446 2.882 . S
C463 C457 1.428 . S
C463 O466 1.301 . S
C463 O467 1.282 . S
O464 U446 2.441 . S
O464 C450 1.249 . S
O465 U446 2.420 . S
O465 C450 1.202 . S
O466 U446 2.455 . S
O466 C463 1.301 . S
O467 U446 2.449 . S
O467 C463 1.282 . S
H468 C441 0.931 . S
H469 C443 0.929 . S
H470 C444 0.930 . S
H471 C445 0.931 . S
H472 C452 0.932 . S
H473 C453 0.930 . S
H474 C454 0.929 . S
H475 C456 0.930 . S
H476 C458 0.932 . S
H477 C459 0.929 . S
H478 C460 0.928 . S
H479 C462 0.932 . S
C480 C481 1.387 . S
C480 H484 0.950 . S
C480 C489 1.390 . S
C481 C480 1.387 . S
C481 C483 1.387 . S
H482 C489 0.950 . S
C483 C481 1.387 . S
C483 C485 1.390 . S
C483 H487 0.950 . S
H484 C480 0.950 . S
C485 C483 1.390 . S
C485 C486 1.387 . S
C485 H488 0.950 . S
C486 C485 1.387 . S
C486 C489 1.387 . S
H487 C483 0.950 . S
H488 C485 0.950 . S
C489 C480 1.390 . S
C489 H482 0.950 . S
C489 C486 1.387 . S
C490 C491 1.387 . S
C490 H494 0.950 . S
C490 C499 1.390 . S
C491 C490 1.387 . S
C491 C493 1.387 . S
H492 C499 0.950 . S
C493 C491 1.387 . S
C493 C495 1.390 . S
C493 H497 0.950 . S
H494 C490 0.950 . S
C495 C493 1.390 . S
C495 C496 1.387 . S
C495 H498 0.950 . S
C496 C495 1.387 . S
C496 C499 1.387 . S
H497 C493 0.950 . S
H498 C495 0.950 . S
C499 C490 1.390 . S
C499 H492 0.950 . S
C499 C496 1.387 . S
C500 C501 1.387 . S
C500 H504 0.950 . S
C500 C509 1.390 . S
C501 C500 1.387 . S
C501 C503 1.387 . S
H502 C509 0.950 . S
C503 C501 1.387 . S
C503 C505 1.390 . S
C503 H507 0.950 . S
H504 C500 0.950 . S
C505 C503 1.390 . S
C505 C506 1.387 . S
C505 H508 0.950 . S
C506 C505 1.387 . S
C506 C509 1.387 . S
H507 C503 0.950 . S
H508 C505 0.950 . S
C509 C500 1.390 . S
C509 H502 0.950 . S
C509 C506 1.387 . S
C510 C511 1.387 . S
C510 H514 0.950 . S
C510 C519 1.390 . S
C511 C510 1.387 . S
C511 C513 1.387 . S
H512 C519 0.950 . S
C513 C511 1.387 . S
C513 C515 1.390 . S
C513 H517 0.950 . S
H514 C510 0.950 . S
C515 C513 1.390 . S
C515 C516 1.387 . S
C515 H518 0.950 . S
C516 C515 1.387 . S
C516 C519 1.387 . S
H517 C513 0.950 . S
H518 C515 0.950 . S
C519 C510 1.390 . S
C519 H512 0.950 . S
C519 C516 1.387 . S
C520 C521 1.387 . S
C520 H524 0.950 . S
C520 C529 1.390 . S
C521 C520 1.387 . S
C521 C523 1.387 . S
H522 C529 0.950 . S
C523 C521 1.387 . S
C523 C525 1.390 . S
C523 H527 0.950 . S
H524 C520 0.950 . S
C525 C523 1.390 . S
C525 C526 1.387 . S
C525 H528 0.950 . S
C526 C525 1.387 . S
C526 C529 1.387 . S
H527 C523 0.950 . S
H528 C525 0.950 . S
C529 C520 1.390 . S
C529 H522 0.950 . S
C529 C526 1.387 . S
C530 C531 1.387 . S
C530 H534 0.950 . S
C530 C539 1.390 . S
C531 C530 1.387 . S
C531 C533 1.387 . S
H532 C539 0.950 . S
C533 C531 1.387 . S
C533 C535 1.390 . S
C533 H537 0.950 . S
H534 C530 0.950 . S
C535 C533 1.390 . S
C535 C536 1.387 . S
C535 H538 0.950 . S
C536 C535 1.387 . S
C536 C539 1.387 . S
H537 C533 0.950 . S
H538 C535 0.950 . S
C539 C530 1.390 . S
C539 H532 0.950 . S
C539 C536 1.387 . S
C540 C541 1.387 . S
C540 H544 0.950 . S
C540 C549 1.390 . S
C541 C540 1.387 . S
C541 C543 1.387 . S
H542 C549 0.950 . S
C543 C541 1.387 . S
C543 C545 1.390 . S
C543 H547 0.950 . S
H544 C540 0.950 . S
C545 C543 1.390 . S
C545 C546 1.387 . S
C545 H548 0.950 . S
C546 C545 1.387 . S
C546 C549 1.387 . S
H547 C543 0.950 . S
H548 C545 0.950 . S
C549 C540 1.390 . S
C549 H542 0.950 . S
C549 C546 1.387 . S
C550 C551 1.387 . S
C550 H554 0.950 1_565 S
C550 C559 1.390 . S
C551 C550 1.387 . S
C551 C553 1.387 . S
H552 C559 0.950 1_545 S
C553 C551 1.387 . S
C553 C555 1.390 . S
C553 H557 0.950 . S
H554 C550 0.950 1_545 S
C555 C553 1.390 . S
C555 C556 1.387 . S
C555 H558 0.950 . S
C556 C555 1.387 . S
C556 C559 1.387 . S
H557 C553 0.950 . S
H558 C555 0.950 . S
C559 C550 1.390 . S
C559 H552 0.950 1_565 S
C559 C556 1.387 . S
C560 C561 1.387 . S
C560 H564 0.950 . S
C560 C569 1.390 . S
C561 C560 1.387 . S
C561 C563 1.387 . S
H562 C569 0.950 . S
C563 C561 1.387 . S
C563 C565 1.390 . S
C563 H567 0.950 . S
H564 C560 0.950 . S
C565 C563 1.390 . S
C565 C566 1.387 . S
C565 H568 0.950 . S
C566 C565 1.387 . S
C566 C569 1.387 . S
H567 C563 0.950 . S
H568 C565 0.950 . S
C569 C560 1.390 . S
C569 H562 0.950 . S
C569 C566 1.387 . S
C570 C571 1.387 . S
C570 H574 0.950 . S
C570 C579 1.390 . S
C571 C570 1.387 . S
C571 C573 1.387 . S
H572 C579 0.950 . S
C573 C571 1.387 . S
C573 C575 1.390 . S
C573 H577 0.950 . S
H574 C570 0.950 . S
C575 C573 1.390 . S
C575 C576 1.387 . S
C575 H578 0.950 . S
C576 C575 1.387 . S
C576 C579 1.387 . S
H577 C573 0.950 . S
H578 C575 0.950 . S
C579 C570 1.390 . S
C579 H572 0.950 . S
C579 C576 1.387 . S
C580 C581 1.387 . S
C580 H584 0.950 . S
C580 C589 1.390 . S
C581 C580 1.387 . S
C581 C583 1.387 . S
H582 C589 0.950 . S
C583 C581 1.387 . S
C583 C585 1.390 . S
C583 H587 0.950 . S
H584 C580 0.950 . S
C585 C583 1.390 . S
C585 C586 1.387 . S
C585 H588 0.950 . S
C586 C585 1.387 . S
C586 C589 1.387 . S
H587 C583 0.950 . S
H588 C585 0.950 . S
C589 C580 1.390 . S
C589 H582 0.950 . S
C589 C586 1.387 . S
C590 C591 1.387 . S
C590 H594 0.950 . S
C590 C599 1.390 . S
C591 C590 1.387 . S
C591 C593 1.387 . S
H592 C599 0.950 . S
C593 C591 1.387 . S
C593 C595 1.390 . S
C593 H597 0.950 . S
H594 C590 0.950 . S
C595 C593 1.390 . S
C595 C596 1.387 . S
C595 H598 0.950 . S
C596 C595 1.387 . S
C596 C599 1.387 . S
H597 C593 0.950 . S
H598 C595 0.950 . S
C599 C590 1.390 . S
C599 H592 0.950 . S
C599 C596 1.387 . S
C600 C601 1.387 . S
C600 H604 0.950 . S
C600 C609 1.390 . S
C601 C600 1.387 . S
C601 C603 1.387 1_655 S
H602 C609 0.950 . S
C603 C601 1.387 1_455 S
C603 C605 1.390 . S
C603 H607 0.950 . S
H604 C600 0.950 . S
C605 C603 1.390 . S
C605 C606 1.387 . S
C605 H608 0.950 . S
C606 C605 1.387 . S
C606 C609 1.387 1_455 S
H607 C603 0.950 . S
H608 C605 0.950 . S
C609 C600 1.390 . S
C609 H602 0.950 . S
C609 C606 1.387 1_655 S
C610 C611 1.387 . S
C610 H614 0.950 . S
C610 C619 1.390 1_556 S
C611 C610 1.387 . S
C611 C613 1.411 . S
H612 C619 0.950 . S
C613 C611 1.411 . S
C613 C615 1.378 1_546 S
C613 H617 0.945 . S
H614 C610 0.950 . S
C615 C613 1.378 1_564 S
C615 C616 1.387 . S
C615 H618 0.950 . S
C616 C615 1.387 . S
C616 C619 1.387 1_565 S
H617 C613 0.945 . S
H618 C615 0.950 . S
C619 C610 1.390 1_554 S
C619 H612 0.950 . S
C619 C616 1.387 1_545 S
C620 C621 1.387 . S
C620 H624 0.950 . S
C620 C629 1.390 . S
C621 C620 1.387 . S
C621 C623 1.387 . S
H622 C629 0.950 . S
C623 C621 1.387 . S
C623 C625 1.390 . S
C623 H627 0.950 . S
H624 C620 0.950 . S
C625 C623 1.390 . S
C625 C626 1.387 . S
C625 H628 0.950 . S
C626 C625 1.387 . S
C626 C629 1.387 . S
H627 C623 0.950 . S
H628 C625 0.950 . S
C629 C620 1.390 . S
C629 H622 0.950 . S
C629 C626 1.387 . S
C630 C631 1.387 . S
C630 H634 0.950 . S
C630 C639 1.390 . S
C631 C630 1.387 . S
C631 C633 1.387 1_655 S
H632 C639 0.950 . S
C633 C631 1.387 1_455 S
C633 C635 1.390 . S
C633 H637 0.950 . S
H634 C630 0.950 . S
C635 C633 1.390 . S
C635 C636 1.387 . S
C635 H638 0.950 . S
C636 C635 1.387 . S
C636 C639 1.387 1_455 S
H637 C633 0.950 . S
H638 C635 0.950 . S
C639 C630 1.390 . S
C639 H632 0.950 . S
C639 C636 1.387 1_655 S
C640 C641 1.387 . S
C640 H644 0.950 . S
C640 C649 1.385 1_545 S
C641 C640 1.387 . S
C641 C643 1.387 1_545 S
H642 C649 0.939 1_545 S
C643 C641 1.387 1_565 S
C643 C645 1.390 . S
C643 H647 0.950 . S
H644 C640 0.950 . S
C645 C643 1.390 . S
C645 C646 1.387 . S
C645 H648 0.950 . S
C646 C645 1.387 . S
C646 C649 1.398 . S
H647 C643 0.950 . S
H648 C645 0.950 . S
C649 C640 1.385 1_565 S
C649 H642 0.939 1_565 S
C649 C646 1.398 . S
C650 C651 1.387 . S
C650 H654 0.950 . S
C650 C659 1.390 . S
C651 C650 1.387 . S
C651 C653 1.387 . S
H652 C659 0.950 . S
C653 C651 1.387 . S
C653 C655 1.390 . S
C653 H657 0.950 . S
H654 C650 0.950 . S
C655 C653 1.390 . S
C655 C656 1.387 . S
C655 H658 0.950 . S
C656 C655 1.387 . S
C656 C659 1.387 . S
H657 C653 0.950 . S
H658 C655 0.950 . S
C659 C650 1.390 . S
C659 H652 0.950 . S
C659 C656 1.387 . S
C481 C15 2.331 . S
C486 C415 2.310 . S
C491 C455 1.947 . S
C496 C55 1.944 . S
C501 C255 2.331 . S
C506 C95 2.309 . S
C511 C135 2.330 . S
C516 C295 2.309 . S
C521 C335 1.947 . S
C526 C175 1.945 . S
C531 C215 2.314 . S
C536 C375 2.327 . S
C541 C21 2.146 . S
C546 C341 2.151 . S
C551 C381 2.147 . S
C556 C61 2.151 . S
C561 C101 2.400 . S
C566 C421 2.400 . S
C571 C461 2.150 . S
C576 C141 2.146 . S
C581 C181 2.151 . S
C586 C261 2.147 . S
C591 C221 2.400 . S
C596 C301 2.400 . S
C601 C2 1.922 . S
C606 C442 1.934 . S
C611 C242 1.924 . S
C616 C42 1.936 . S
C621 C82 2.419 . S
C626 C282 2.420 . S
C631 C322 1.937 . S
C636 C122 1.919 . S
C641 C162 1.936 . S
C646 C362 1.918 . S
C651 C402 2.421 . S
C656 C202 2.421 . S
