# Generated by pormake.
# Topology qdl, (4)-cn, num edge types: 1
# Building blocks:
#     Node 0, Type 0, BuildingBlock: KOZSID_clean_sbu_0, # of connection points: 4
#     Node 1, Type 0, BuildingBlock: KOZSID_clean_sbu_0, # of connection points: 4
#     Node 2, Type 0, BuildingBlock: KOZSID_clean_sbu_0, # of connection points: 4
#     Node 3, Type 0, BuildingBlock: KOZSID_clean_sbu_0, # of connection points: 4
#     Node 4, Type 0, BuildingBlock: KOZSID_clean_sbu_0, # of connection points: 4
#     Node 5, Type 0, BuildingBlock: KOZSID_clean_sbu_0, # of connection points: 4
#     Edge 6, Type (0, 0), BuildingBlock: XIVTED_clean_linker_0, # of connection points: 2
#     Edge 7, Type (0, 0), BuildingBlock: XIVTED_clean_linker_0, # of connection points: 2
#     Edge 8, Type (0, 0), BuildingBlock: XIVTED_clean_linker_0, # of connection points: 2
#     Edge 9, Type (0, 0), BuildingBlock: XIVTED_clean_linker_0, # of connection points: 2
#     Edge 10, Type (0, 0), BuildingBlock: XIVTED_clean_linker_0, # of connection points: 2
#     Edge 11, Type (0, 0), BuildingBlock: XIVTED_clean_linker_0, # of connection points: 2
#     Edge 12, Type (0, 0), BuildingBlock: XIVTED_clean_linker_0, # of connection points: 2
#     Edge 13, Type (0, 0), BuildingBlock: XIVTED_clean_linker_0, # of connection points: 2
#     Edge 14, Type (0, 0), BuildingBlock: XIVTED_clean_linker_0, # of connection points: 2
#     Edge 15, Type (0, 0), BuildingBlock: XIVTED_clean_linker_0, # of connection points: 2
#     Edge 16, Type (0, 0), BuildingBlock: XIVTED_clean_linker_0, # of connection points: 2
#     Edge 17, Type (0, 0), BuildingBlock: XIVTED_clean_linker_0, # of connection points: 2
# Relax obj value: 0.000
# Max RMSD: 0.049
# Mean RMSD: 0.048
data_MOF--net-qdl--node1-KOZSID_clean_sbu_0--edge1-XIVTED_clean_linker_0
_symmetry_space_group_name_H-M    P1
_symmetry_Int_Tables_number       1
_symmetry_cell_setting            triclinic
loop_
_symmetry_equiv_pos_as_xyz
'x, y, z'
_cell_length_a     16.746874
_cell_length_b     16.740108
_cell_length_c     117.49407
_cell_angle_alpha  101.6266
_cell_angle_beta   101.61655
_cell_angle_gamma 120.02211
loop_
_atom_site_label
_atom_site_type_symbol
_atom_site_fract_x
_atom_site_fract_y
_atom_site_fract_z
_atom_type_partial_charge
C0 C 0.27072 0.52381 0.09988 0.0
C1 C 0.18036 0.51142 0.09832 0.0
C2 C 0.11106 0.41218 0.09428 0.0
C3 C 0.16281 0.36984 0.0936 0.0
N4 N 0.26124 0.43626 0.09714 0.0
Co5 Co 0.36424 0.40769 0.09743 0.0
N6 N 0.26097 0.26199 0.08951 0.0
C7 C 0.1618 0.21603 0.08549 0.0
C8 C 0.11025 0.11514 0.0805 0.0
C9 C 0.18068 0.09543 0.08155 0.0
C10 C 0.2713 0.18585 0.08721 0.0
N11 N 0.46742 0.37891 0.0981 0.0
C12 C 0.45761 0.29116 0.09532 0.0
C13 C 0.54848 0.30347 0.09782 0.0
C14 C 0.61842 0.40276 0.10253 0.0
C15 C 0.56647 0.44511 0.10267 0.0
N16 N 0.46721 0.55361 0.10486 0.0
C17 C 0.56626 0.60003 0.10839 0.0
C18 C 0.6174 0.70098 0.11255 0.0
C19 C 0.54664 0.72025 0.11132 0.0
C20 C 0.45632 0.62945 0.10647 0.0
N21 N 0.37107 0.40017 0.11427 0.0
C22 C 0.37907 0.38798 0.13812 0.0
C23 C 0.46311 0.4562 0.13619 0.0
C24 C 0.4578 0.4601 0.1243 0.0
C25 C 0.29141 0.32539 0.12779 0.0
C26 C 0.28876 0.33364 0.11616 0.0
N27 N 0.35707 0.41502 0.08063 0.0
C28 C 0.43669 0.46812 0.06604 0.0
C29 C 0.34566 0.42634 0.05676 0.0
C30 C 0.26066 0.37902 0.05971 0.0
C31 C 0.26803 0.37484 0.07158 0.0
C32 C 0.44064 0.46135 0.07779 0.0
H33 H 0.20047 0.33869 0.07321 0.0
H34 H 0.51213 0.49464 0.08445 0.0
H35 H 0.525 0.51241 0.12349 0.0
H36 H 0.21891 0.28471 0.10886 0.0
C37 C 0.12009 0.26891 0.08799 0.0
C38 C 0.36224 0.61887 0.10294 0.0
C39 C 0.36457 0.19525 0.09115 0.0
C40 C 0.60853 0.54643 0.10731 0.0
H41 H 0.16554 0.56789 0.09952 0.0
H42 H 0.03185 0.37513 0.09153 0.0
H43 H 0.03105 0.06212 0.07705 0.0
H44 H 0.16717 0.02274 0.07891 0.0
H45 H 0.56281 0.24664 0.09665 0.0
H46 H 0.69775 0.43968 0.10574 0.0
H47 H 0.69648 0.75408 0.11577 0.0
H48 H 0.55967 0.7927 0.11346 0.0
H49 H 0.533 0.50757 0.14381 0.0
H50 H 0.22436 0.26902 0.12853 0.0
H51 H 0.50505 0.50705 0.06435 0.0
H52 H 0.18808 0.34394 0.05284 0.0
C53 C 0.44008 0.23723 0.42984 0.0
C54 C 0.53052 0.32758 0.43585 0.0
C55 C 0.5109 0.39801 0.43782 0.0
C56 C 0.41011 0.34689 0.43289 0.0
N57 N 0.36392 0.24777 0.42808 0.0
Co58 Co 0.21858 0.1455 0.41932 0.0
N59 N 0.19022 0.24957 0.42143 0.0
C60 C 0.2562 0.34855 0.42691 0.0
C61 C 0.21379 0.40052 0.4273 0.0
C62 C 0.11465 0.33049 0.42196 0.0
C63 C 0.10256 0.23967 0.41864 0.0
N64 N 0.07349 0.04337 0.41038 0.0
C65 C 0.99727 0.05379 0.40851 0.0
C66 C 0.90717 0.96368 0.40209 0.0
C67 C 0.92713 0.89355 0.39995 0.0
C68 C 0.02775 0.9446 0.40518 0.0
N69 N 0.24671 0.04135 0.41741 0.0
C70 C 0.18044 0.9423 0.41225 0.0
C71 C 0.22254 0.89004 0.41221 0.0
C72 C 0.32175 0.95992 0.41749 0.0
C73 C 0.33418 0.05094 0.42041 0.0
N74 N 0.20307 0.13598 0.43543 0.0
C75 C 0.1804 0.12368 0.45832 0.0
C76 C 0.13259 0.03864 0.44776 0.0
C77 C 0.14474 0.04642 0.43651 0.0
C78 C 0.23913 0.21491 0.45716 0.0
C79 C 0.24942 0.21929 0.44576 0.0
N80 N 0.23416 0.1551 0.40321 0.0
C81 C 0.20951 0.07795 0.38188 0.0
C82 C 0.259 0.1696 0.38045 0.0
C83 C 0.29572 0.2537 0.39065 0.0
C84 C 0.28315 0.24491 0.40183 0.0
C85 C 0.19768 0.07242 0.3932 0.0
H86 H 0.31394 0.31206 0.40921 0.0
H87 H 0.15928 1.00041 0.39366 0.0
H88 H 0.1061 0.97891 0.42882 0.0
H89 H 0.29488 0.29112 0.44555 0.0
C90 C 0.35716 0.39005 0.4321 0.0
C91 C 0.4304 0.14418 0.42523 0.0
C92 C 1.0064 0.1461 0.41351 0.0
C93 C 0.08016 0.9012 0.40649 0.0
H94 H 0.60327 0.34138 0.43826 0.0
H95 H 0.5639 0.47722 0.44201 0.0
H96 H 0.25046 0.47966 0.43128 0.0
H97 H 0.05746 0.34433 0.42088 0.0
H98 H 0.83434 0.94965 0.39956 0.0
H99 H 0.87428 0.8144 0.39558 0.0
H100 H 0.1857 0.81079 0.40837 0.0
H101 H 0.37876 0.94582 0.41873 0.0
H102 H 0.08691 0.96604 0.44817 0.0
H103 H 0.27628 0.28323 0.46498 0.0
H104 H 0.18085 1.01042 0.37436 0.0
H105 H 0.33322 0.3265 0.39003 0.0
C106 C 0.23074 0.48594 0.75826 0.0
C107 C 0.22707 0.56827 0.75975 0.0
C108 C 0.1311 0.53596 0.75785 0.0
C109 C 0.08193 0.43623 0.75533 0.0
N110 N 0.14102 0.40316 0.75566 0.0
Co111 Co 0.10076 0.26371 0.75242 0.0
N112 N 0.95781 0.21409 0.74766 0.0
C113 C 0.91868 0.26741 0.74682 0.0
C114 C 0.81786 0.21241 0.74331 0.0
C115 C 0.79113 0.11856 0.74199 0.0
C116 C 0.87769 0.12218 0.74485 0.0
N117 N 0.06079 0.12463 0.74962 0.0
C118 C 0.97092 0.04208 0.74707 0.0
C119 C 0.97563 0.96115 0.74665 0.0
C120 C 0.07235 0.99407 0.74922 0.0
C121 C 0.1209 0.09281 0.75109 0.0
N122 N 0.24347 0.31289 0.75666 0.0
C123 C 0.28247 0.25904 0.7569 0.0
C124 C 0.38235 0.31291 0.7595 0.0
C125 C 0.40843 0.40636 0.76069 0.0
C126 C 0.32249 0.40375 0.75875 0.0
N127 N 0.11302 0.28304 0.77012 0.0
C128 C 0.12696 0.30488 0.79511 0.0
C129 C 0.18414 0.2807 0.79003 0.0
C130 C 0.1751 0.26896 0.77764 0.0
C131 C 0.06331 0.31897 0.78741 0.0
C132 C 0.05847 0.30899 0.77514 0.0
N133 N 0.08857 0.24444 0.73477 0.0
C134 C 0.11685 0.18226 0.71665 0.0
C135 C 0.0772 0.22206 0.70992 0.0
C136 C 0.04282 0.27288 0.71587 0.0
C137 C 0.04947 0.28339 0.7282 0.0
C138 C 0.12133 0.19378 0.72891 0.0
H139 H 0.02291 0.32375 0.73223 0.0
H140 H 0.15261 0.16189 0.73351 0.0
H141 H 0.2192 0.24814 0.77441 0.0
H142 H 1.00931 0.32194 0.76988 0.0
C143 C 0.97938 0.37035 0.75088 0.0
C144 C 0.31875 0.48806 0.75833 0.0
C145 C 0.88086 0.03855 0.74581 0.0
C146 C 0.22279 0.15766 0.75442 0.0
H147 H 0.28672 0.6432 0.76155 0.0
H148 H 0.10002 0.57914 0.75769 0.0
H149 H 0.77001 0.23823 0.74239 0.0
H150 H 0.71685 0.05525 0.73965 0.0
H151 H 0.91575 0.88657 0.74496 0.0
H152 H 0.10382 0.95157 0.74991 0.0
H153 H 0.43006 0.28687 0.76016 0.0
H154 H 0.4819 0.46901 0.76251 0.0
H155 H 0.23668 0.27125 0.79555 0.0
H156 H 0.01604 0.3364 0.79071 0.0
H157 H 0.14612 0.14365 0.71259 0.0
H158 H 1.01011 0.304 0.71105 0.0
C159 C 0.97286 0.22796 0.57972 0.0
C160 C 0.98411 0.31827 0.58186 0.0
C161 C 0.08313 0.38887 0.5863 0.0
C162 C 0.12643 0.33787 0.58665 0.0
N163 N 0.06098 0.23869 0.58246 0.0
Co164 Co 0.09108 0.13636 0.58193 0.0
N165 N 0.23663 0.24062 0.58948 0.0
C166 C 0.28213 0.3397 0.59313 0.0
C167 C 0.38313 0.39179 0.59758 0.0
C168 C 0.40345 0.32179 0.59647 0.0
C169 C 0.31322 0.23087 0.59138 0.0
N170 N 0.12114 0.03414 0.58152 0.0
C171 C 0.2092 0.04477 0.58435 0.0
C172 C 0.19786 0.95458 0.58247 0.0
C173 C 0.09883 0.88415 0.57812 0.0
C174 C 0.05562 0.93515 0.57759 0.0
N175 N 0.94566 0.03211 0.57427 0.0
C176 C 0.90033 0.93303 0.57042 0.0
C177 C 0.79933 0.88077 0.56579 0.0
C178 C 0.77883 0.95065 0.56695 0.0
C179 C 0.86897 0.04167 0.57227 0.0
N180 N 0.09806 0.12941 0.5651 0.0
C181 C 0.11518 0.12128 0.54155 0.0
C182 C 0.06265 0.03493 0.54405 0.0
C183 C 0.05527 0.04065 0.5558 0.0
C184 C 0.1578 0.21154 0.55099 0.0
C185 C 0.14832 0.21387 0.56256 0.0
N186 N 0.08432 0.14344 0.59878 0.0
C187 C 0.02293 0.0633 0.61299 0.0
C188 C 0.07377 0.15433 0.62269 0.0
C189 C 0.12975 0.23967 0.62015 0.0
C190 C 0.13357 0.23262 0.60826 0.0
C191 C 0.02936 0.05958 0.60124 0.0
H192 H 0.17693 0.30055 0.60699 0.0
H193 H 0.98872 0.988 0.59428 0.0
H194 H 0.01551 0.97232 0.55717 0.0
H195 H 0.18293 0.28508 0.56932 0.0
C196 C 0.22798 0.38119 0.59157 0.0
C197 C 0.87781 0.13482 0.576 0.0
C198 C 0.30411 0.13749 0.58783 0.0
C199 C 0.95432 0.89177 0.57234 0.0
H200 H 0.92685 0.33195 0.58068 0.0
H201 H 0.1193 0.46809 0.58932 0.0
H202 H 0.43565 0.47103 0.60086 0.0
H203 H 0.47628 0.33572 0.59882 0.0
H204 H 0.25503 0.94075 0.58371 0.0
H205 H 0.06259 0.80495 0.57522 0.0
H206 H 0.74688 0.80148 0.56243 0.0
H207 H 0.70592 0.93654 0.56452 0.0
H208 H 0.02899 0.96314 0.53707 0.0
H209 H 0.19788 0.28055 0.54947 0.0
H210 H 0.9772 0.99488 0.61438 0.0
H211 H 0.17186 0.31209 0.62734 0.0
C212 C 0.01792 0.26643 0.92122 0.0
C213 C 0.93586 0.27043 0.91983 0.0
C214 C 0.96841 0.36656 0.92178 0.0
C215 C 0.068 0.41548 0.92425 0.0
N216 N 0.10077 0.35609 0.92382 0.0
Co217 Co 0.23995 0.39592 0.92696 0.0
N218 N 0.28989 0.53903 0.93173 0.0
C219 C 0.23686 0.57847 0.93259 0.0
C220 C 0.29204 0.67931 0.93607 0.0
C221 C 0.3857 0.70574 0.93736 0.0
C222 C 0.38179 0.61898 0.9345 0.0
N223 N 0.37879 0.43548 0.92971 0.0
C224 C 0.46143 0.52528 0.93226 0.0
C225 C 0.54219 0.52034 0.93266 0.0
C226 C 0.50908 0.42354 0.9301 0.0
C227 C 0.41041 0.37516 0.92824 0.0
N228 N 0.19042 0.25301 0.92268 0.0
C229 C 0.24394 0.21368 0.92236 0.0
C230 C 0.18981 0.11369 0.91972 0.0
C231 C 0.09651 0.08787 0.91856 0.0
C232 C 0.09949 0.17407 0.92057 0.0
N233 N 0.22025 0.38363 0.90926 0.0
C234 C 0.1991 0.37037 0.8843 0.0
C235 C 0.22391 0.31362 0.88939 0.0
C236 C 0.23527 0.32231 0.90176 0.0
C237 C 0.18373 0.43305 0.89196 0.0
C238 C 0.19342 0.43758 0.90423 0.0
N239 N 0.25971 0.40817 0.94462 0.0
C240 C 0.32172 0.3791 0.96267 0.0
C241 C 0.28426 0.42092 0.96955 0.0
C242 C 0.23429 0.45641 0.96369 0.0
C243 C 0.22255 0.44893 0.95132 0.0
C244 C 0.30927 0.37408 0.95038 0.0
H245 H 0.18286 0.47631 0.94735 0.0
H246 H 0.33969 0.34142 0.9457 0.0
H247 H 0.25669 0.27864 0.905 0.0
H248 H 0.17964 0.48606 0.90946 0.0
C249 C 0.13403 0.51802 0.92864 0.0
C250 C 0.01547 0.17809 0.92105 0.0
C251 C 0.46517 0.61549 0.93351 0.0
C252 C 0.34534 0.27319 0.92486 0.0
H253 H 0.86094 0.21086 0.91805 0.0
H254 H 0.92546 0.39787 0.922 0.0
H255 H 0.26646 0.72738 0.93703 0.0
H256 H 0.44908 0.77996 0.93968 0.0
H257 H 0.61678 0.58013 0.93435 0.0
H258 H 0.5514 0.39188 0.9294 0.0
H259 H 0.21558 0.06574 0.919 0.0
H260 H 0.03374 1.01439 0.91671 0.0
H261 H 0.23426 0.26175 0.88389 0.0
H262 H 0.16563 0.47986 0.88864 0.0
H263 H 0.35937 0.34868 0.96663 0.0
H264 H 0.20488 0.49073 0.96862 0.0
C265 C 0.26147 0.06373 0.24985 0.0
C266 C 0.17106 0.97419 0.24332 0.0
C267 C 0.10177 0.99529 0.24116 0.0
C268 C 0.1536 0.09602 0.24647 0.0
N269 N 0.25204 0.14062 0.25174 0.0
Co270 Co 0.35514 0.2854 0.26069 0.0
N271 N 0.25194 0.3147 0.25931 0.0
C272 C 0.15277 0.24886 0.25444 0.0
C273 C 0.10128 0.29166 0.25481 0.0
C274 C 0.17177 0.39082 0.26006 0.0
C275 C 0.26235 0.40253 0.26254 0.0
N276 N 0.4584 0.43057 0.26926 0.0
C277 C 0.44867 0.5073 0.27112 0.0
C278 C 0.53956 0.59748 0.27675 0.0
C279 C 0.60946 0.57703 0.27835 0.0
C280 C 0.55744 0.47606 0.27358 0.0
N281 N 0.45805 0.25556 0.2625 0.0
C282 C 0.55711 0.32084 0.26785 0.0
C283 C 0.60822 0.27754 0.26823 0.0
C284 C 0.53743 0.17846 0.26308 0.0
C285 C 0.44712 0.16741 0.25986 0.0
N286 N 0.36196 0.30044 0.24445 0.0
C287 C 0.37005 0.32136 0.2213 0.0
C288 C 0.45413 0.34834 0.2308 0.0
C289 C 0.44877 0.33859 0.24223 0.0
C290 C 0.28227 0.28481 0.22374 0.0
C291 C 0.27959 0.27376 0.23514 0.0
N292 N 0.34799 0.27018 0.27685 0.0
C293 C 0.42756 0.30725 0.29861 0.0
C294 C 0.33649 0.24673 0.29974 0.0
C295 C 0.25152 0.19809 0.28916 0.0
C296 C 0.25893 0.2102 0.27792 0.0
C297 C 0.43155 0.31809 0.2872 0.0
H298 H 0.19137 0.17013 0.27023 0.0
H299 H 0.50307 0.36517 0.28694 0.0
H300 H 0.51601 0.36239 0.24909 0.0
H301 H 0.20968 0.24371 0.23616 0.0
C302 C 0.11096 0.14886 0.24823 0.0
C303 C 0.35304 0.07188 0.25495 0.0
C304 C 0.35564 0.49828 0.26694 0.0
C305 C 0.59945 0.42212 0.27273 0.0
H306 H 0.15622 0.90099 0.2408 0.0
H307 H 0.02255 0.94301 0.23683 0.0
H308 H 0.02209 0.25539 0.25116 0.0
H309 H 0.15832 0.4483 0.26149 0.0
H310 H 0.55394 0.6705 0.27917 0.0
H311 H 0.6888 0.62957 0.28224 0.0
H312 H 0.68731 0.3136 0.27207 0.0
H313 H 0.55043 0.12068 0.26206 0.0
H314 H 0.5241 0.37597 0.22948 0.0
H315 H 0.21517 0.26518 0.21695 0.0
H316 H 0.4959 0.34545 0.30645 0.0
H317 H 0.1789 0.15158 0.28951 0.0
H318 H 0.32998 0.12523 0.10971 0.0
H319 H 0.38949 0.68425 0.08386 0.0
H320 H 0.39741 0.0739 0.0766 0.0
H321 H 0.3311 0.74137 0.11759 0.0
H322 H 0.39009 0.82515 0.08079 0.0
H323 H 0.32748 0.98314 0.11263 0.0
C324 C 0.34439 0.08358 0.10309 0.0
C325 C 0.3644 0.11043 0.09296 0.0
C326 C 0.37685 0.80692 0.08885 0.0
C327 C 0.36138 0.94861 0.09612 0.0
C328 C 0.37639 0.72673 0.09057 0.0
C329 C 0.35947 0.70183 0.10091 0.0
C330 C 0.36056 0.86244 0.09759 0.0
C331 C 0.34355 0.75856 0.10945 0.0
C332 C 0.34297 1.00279 0.10473 0.0
C333 C 0.38225 0.05496 0.08455 0.0
N334 N 0.3444 0.83647 0.1076 0.0
N335 N 0.38038 0.97638 0.08632 0.0
H336 H 0.58351 0.17193 0.44307 0.0
H337 H 0.85356 0.11896 0.39569 0.0
H338 H 0.46905 0.11621 0.40401 0.0
H339 H 0.9658 0.17028 0.43463 0.0
H340 H 0.71161 0.11774 0.39849 0.0
H341 H 0.72473 0.17168 0.44023 0.0
C342 C 0.5888 0.15985 0.43391 0.0
C343 C 0.51608 0.14462 0.42375 0.0
C344 C 0.76709 0.12911 0.40643 0.0
C345 C 0.67555 0.14377 0.42038 0.0
C346 C 0.84759 0.12969 0.40481 0.0
C347 C 0.91997 0.1442 0.41495 0.0
C348 C 0.75971 0.14352 0.41829 0.0
C349 C 0.91056 0.15857 0.42662 0.0
C350 C 0.66888 0.15957 0.43227 0.0
C351 C 0.52461 0.12854 0.41204 0.0
N352 N 0.83165 0.15781 0.42799 0.0
N353 N 0.6032 0.12867 0.41065 0.0
H354 H 0.83636 0.04334 0.76673 0.0
H355 H 0.35741 0.48633 0.73703 0.0
H356 H 0.73855 0.85256 0.72915 0.0
H357 H 0.46264 0.67321 0.77507 0.0
H358 H 0.49436 0.62075 0.73375 0.0
H359 H 0.69767 0.90986 0.76988 0.0
C360 C 0.78526 0.9728 0.75918 0.0
C361 C 0.79804 0.9576 0.74772 0.0
C362 C 0.48759 0.63269 0.74281 0.0
C363 C 0.63999 0.8055 0.75114 0.0
C364 C 0.40965 0.55626 0.74465 0.0
C365 C 0.39952 0.57005 0.75629 0.0
C366 C 0.55568 0.72313 0.75272 0.0
C367 C 0.46844 0.6609 0.76595 0.0
C368 C 0.70638 0.89687 0.76094 0.0
C369 C 0.73059 0.86598 0.73813 0.0
N370 N 0.54389 0.73435 0.76396 0.0
N371 N 0.65415 0.79301 0.74006 0.0
H372 H 0.37026 0.16513 0.56882 0.0
H373 H 0.80972 0.10409 0.59479 0.0
H374 H 0.42747 0.10846 0.60268 0.0
H375 H 0.75502 0.16475 0.5612 0.0
H376 H 0.66887 0.1038 0.5978 0.0
H377 H 0.51044 0.16433 0.56574 0.0
C378 C 0.41283 0.15245 0.57558 0.0
C379 C 0.38817 0.13637 0.58596 0.0
C380 C 0.6875 0.11729 0.58977 0.0
C381 C 0.54768 0.1355 0.58261 0.0
C382 C 0.76756 0.1174 0.58808 0.0
C383 C 0.79316 0.135 0.5778 0.0
C384 C 0.6329 0.13466 0.58107 0.0
C385 C 0.73705 0.1515 0.56927 0.0
C386 C 0.49251 0.15196 0.57385 0.0
C387 C 0.44473 0.12058 0.59453 0.0
N388 N 0.65931 0.15105 0.5711 0.0
N389 N 0.5221 0.12043 0.59266 0.0
H390 H 0.46048 0.65999 0.91259 0.0
H391 H 0.0173 0.13897 0.94232 0.0
H392 H 0.65111 0.75764 0.95016 0.0
H393 H 0.83028 0.03452 0.90432 0.0
H394 H 0.88294 1.00181 0.94558 0.0
H395 H 0.59392 0.79882 0.90946 0.0
C396 C 0.53099 0.71107 0.92015 0.0
C397 C 0.54617 0.69821 0.9316 0.0
C398 C 0.87095 1.0088 0.93653 0.0
C399 C 0.69819 0.85642 0.9282 0.0
C400 C 0.94734 0.08686 0.93471 0.0
C401 C 0.9335 0.09725 0.92309 0.0
C402 C 0.78051 0.94086 0.92663 0.0
C403 C 0.84262 0.0285 0.91343 0.0
C404 C 0.60689 0.79003 0.91839 0.0
C405 C 0.63774 0.76564 0.94119 0.0
N406 N 0.76921 0.95292 0.91541 0.0
N407 N 0.71068 0.84216 0.93927 0.0
H408 H 0.32143 0.52946 0.24528 0.0
H409 H 0.38008 0.03711 0.27647 0.0
H410 H 0.38811 0.65647 0.28443 0.0
H411 H 0.32223 0.91447 0.23751 0.0
H412 H 0.38077 0.89691 0.27958 0.0
H413 H 0.31887 0.66871 0.24214 0.0
C414 C 0.33567 0.58728 0.25319 0.0
C415 C 0.35548 0.58291 0.26511 0.0
C416 C 0.36763 0.90027 0.27034 0.0
C417 C 0.35239 0.74127 0.26168 0.0
C418 C 0.36712 0.97993 0.26858 0.0
C419 C 0.35033 0.98582 0.25672 0.0
C420 C 0.35152 0.82649 0.26013 0.0
C421 C 0.33458 0.91125 0.24676 0.0
C422 C 0.33421 0.66645 0.25143 0.0
C423 C 0.37311 0.6584 0.27512 0.0
N424 N 0.33548 0.83432 0.24869 0.0
N425 N 0.37121 0.73484 0.27319 0.0
H426 H 0.22112 0.20697 0.19827 0.0
H427 H 0.5353 0.42936 0.15758 0.0
H428 H 0.52621 0.45609 0.21585 0.0
H429 H 0.22979 0.33292 0.14772 0.0
H430 H 0.53617 0.41684 0.17798 0.0
H431 H 0.22532 0.22732 0.17844 0.0
C432 C 0.28892 0.26654 0.19808 0.0
C433 C 0.37313 0.33067 0.20896 0.0
C434 C 0.46924 0.39854 0.17128 0.0
C435 C 0.3788 0.35112 0.18597 0.0
C436 C 0.46854 0.40622 0.15963 0.0
C437 C 0.38209 0.38179 0.15072 0.0
C438 C 0.38245 0.36402 0.17396 0.0
C439 C 0.29763 0.3501 0.15401 0.0
C440 C 0.29117 0.27736 0.18667 0.0
C441 C 0.45959 0.40381 0.2078 0.0
N442 N 0.29974 0.34125 0.16529 0.0
N443 N 0.46032 0.4117 0.19651 0.0
H444 H 0.27985 0.24192 0.53679 0.0
H445 H 1.01433 0.99791 0.4627 0.0
H446 H 0.9763 0.99307 0.51828 0.0
H447 H 0.32193 0.2361 0.48168 0.0
H448 H 0.99862 0.9926 0.48282 0.0
H449 H 0.29582 0.23981 0.51658 0.0
C450 C 0.21634 0.18697 0.52846 0.0
C451 C 0.12635 0.11798 0.52925 0.0
C452 C 0.06955 0.04591 0.48257 0.0
C453 C 0.14448 0.11446 0.50599 0.0
C454 C 0.07877 0.04865 0.47107 0.0
C455 C 0.16958 0.11785 0.47045 0.0
C456 C 0.15165 0.11291 0.49356 0.0
C457 C 0.25004 0.18262 0.48166 0.0
C458 C 0.2257 0.18542 0.51691 0.0
C459 C 0.04726 0.04724 0.51813 0.0
N460 N 0.23909 0.17866 0.49272 0.0
N461 N 0.05803 0.04757 0.50696 0.0
H462 H 0.10094 0.42598 0.81155 0.0
H463 H 0.30052 0.33229 0.87072 0.0
H464 H 0.16855 0.20659 0.80896 0.0
H465 H 0.07758 0.39506 0.86773 0.0
H466 H 0.27879 0.31407 0.84904 0.0
H467 H 0.11536 0.44171 0.83312 0.0
C468 C 0.11812 0.38054 0.81539 0.0
C469 C 0.13401 0.31506 0.80828 0.0
C470 C 0.23474 0.33179 0.85317 0.0
C471 C 0.15395 0.33595 0.83316 0.0
C472 C 0.24636 0.34154 0.86556 0.0
C473 C 0.18979 0.36392 0.87117 0.0
C474 C 0.16791 0.34684 0.84634 0.0
C475 C 0.1238 0.3788 0.86396 0.0
C476 C 0.12693 0.39028 0.82776 0.0
C477 C 0.15818 0.26007 0.81403 0.0
N478 N 0.11497 0.37039 0.85194 0.0
N479 N 0.1683 0.27249 0.82614 0.0
H480 H 0.21624 0.4472 0.04121 0.0
H481 H 0.44274 0.45434 0.98747 0.0
H482 H 0.45955 0.41653 0.04331 0.0
H483 H 0.15448 0.40062 0.98172 0.0
H484 H 0.45926 0.45792 0.0087 0.0
H485 H 0.202 0.44778 0.02016 0.0
C486 C 0.26648 0.4401 0.03726 0.0
C487 C 0.33887 0.43108 0.0441 0.0
C488 C 0.39246 0.44545 1.00278 0.0
C489 C 0.324 0.43389 0.02 0.0
C490 C 0.38258 0.44278 0.99061 0.0
C491 C 0.29673 0.4266 0.98268 0.0
C492 C 0.3165 0.43287 0.00717 0.0
C493 C 0.22258 0.41464 0.98747 0.0
C494 C 0.25853 0.44101 0.02524 0.0
C495 C 0.40334 0.42481 0.03852 0.0
N496 N 0.23422 0.41807 0.99939 0.0
N497 N 0.39435 0.42632 0.02681 0.0
H498 H 0.45065 0.38558 0.32339 0.0
H499 H 0.13006 0.04243 0.35664 0.0
H500 H 0.20633 0.08071 0.30377 0.0
H501 H 0.4171 0.31546 0.37673 0.0
H502 H 0.15176 0.05886 0.33712 0.0
H503 H 0.43492 0.36512 0.34299 0.0
C504 C 0.39423 0.31406 0.32317 0.0
C505 C 0.32961 0.23487 0.31183 0.0
C506 C 0.21007 0.11501 0.34581 0.0
C507 C 0.31001 0.2117 0.33431 0.0
C508 C 0.19805 0.10545 0.35699 0.0
C509 C 0.27175 0.17769 0.36843 0.0
C510 C 0.29605 0.19785 0.34601 0.0
C511 C 0.35732 0.25869 0.3682 0.0
C512 C 0.38496 0.30268 0.33439 0.0
C513 C 0.25676 0.14457 0.31221 0.0
N514 N 0.36687 0.26672 0.35719 0.0
N515 N 0.2487 0.13565 0.32323 0.0
H516 H 0.06739 0.02965 0.63513 0.0
H517 H 0.10493 0.35663 0.69837 0.0
H518 H 0.07016 0.29342 0.63924 0.0
H519 H 0.03967 0.0632 0.69161 0.0
H520 H 0.09913 0.33798 0.67702 0.0
H521 H 0.06358 0.04359 0.65606 0.0
C522 C 0.06638 0.09008 0.64036 0.0
C523 C 0.06932 0.16056 0.63535 0.0
C524 C 0.08585 0.2776 0.68021 0.0
C525 C 0.06681 0.17788 0.65949 0.0
C526 C 0.08856 0.28791 0.6924 0.0
C527 C 0.07274 0.21138 0.69687 0.0
C528 C 0.0679 0.19041 0.67241 0.0
C529 C 0.05392 0.12492 0.68869 0.0
C530 C 0.0648 0.09827 0.65237 0.0
C531 C 0.06973 0.23822 0.64274 0.0
N532 N 0.05232 0.11695 0.6769 0.0
N533 N 0.06885 0.24494 0.65443 0.0
loop_
_geom_bond_atom_site_label_1
_geom_bond_atom_site_label_2
_geom_bond_distance
_geom_bond_site_symmetry_2
_ccdc_geom_bond_type
C0 C1 1.443 . S
C0 N4 1.376 . S
C0 C38 1.389 . S
C1 C0 1.443 . S
C1 C2 1.340 . S
C1 H41 0.951 . S
C2 C1 1.340 . S
C2 C3 1.439 . S
C2 H42 0.950 . S
C3 C2 1.439 . S
C3 N4 1.374 . S
C3 C37 1.395 . S
N4 C0 1.376 . S
N4 C3 1.374 . S
N4 Co5 2.008 . S
Co5 N4 2.008 . S
Co5 N6 1.995 . S
Co5 N11 2.008 . S
Co5 N16 1.995 . S
Co5 N21 2.282 . S
Co5 N27 2.282 . S
N6 Co5 1.995 . S
N6 C7 1.376 . S
N6 C10 1.383 . S
C7 N6 1.376 . S
C7 C8 1.446 . S
C7 C37 1.391 . S
C8 C7 1.446 . S
C8 C9 1.339 . S
C8 H43 0.949 . S
C9 C8 1.339 . S
C9 C10 1.439 . S
C9 H44 0.950 . S
C10 N6 1.383 . S
C10 C9 1.439 . S
C10 C39 1.392 . S
N11 Co5 2.008 . S
N11 C12 1.376 . S
N11 C15 1.374 . S
C12 N11 1.376 . S
C12 C13 1.443 . S
C12 C39 1.389 . S
C13 C12 1.443 . S
C13 C14 1.340 . S
C13 H45 0.951 . S
C14 C13 1.340 . S
C14 C15 1.439 . S
C14 H46 0.950 . S
C15 N11 1.374 . S
C15 C14 1.439 . S
C15 C40 1.395 . S
N16 Co5 1.995 . S
N16 C17 1.376 . S
N16 C20 1.383 . S
C17 N16 1.376 . S
C17 C18 1.446 . S
C17 C40 1.391 . S
C18 C17 1.446 . S
C18 C19 1.339 . S
C18 H47 0.949 . S
C19 C18 1.339 . S
C19 C20 1.439 . S
C19 H48 0.950 . S
C20 N16 1.383 . S
C20 C19 1.439 . S
C20 C38 1.392 . S
N21 Co5 2.282 . S
N21 C24 1.332 . S
N21 C26 1.332 . S
C22 C23 1.386 . S
C22 C25 1.388 . S
C23 C22 1.386 . S
C23 C24 1.382 . S
C23 H49 0.950 . S
C24 N21 1.332 . S
C24 C23 1.382 . S
C24 H35 0.952 . S
C25 C22 1.388 . S
C25 C26 1.382 . S
C25 H50 0.950 . S
C26 N21 1.332 . S
C26 C25 1.382 . S
C26 H36 0.948 . S
N27 Co5 2.282 . S
N27 C31 1.332 . S
N27 C32 1.332 . S
C28 C29 1.388 . S
C28 C32 1.382 . S
C28 H51 0.950 . S
C29 C28 1.388 . S
C29 C30 1.386 . S
C30 C29 1.386 . S
C30 C31 1.382 . S
C30 H52 0.950 . S
C31 N27 1.332 . S
C31 C30 1.382 . S
C31 H33 0.952 . S
C32 N27 1.332 . S
C32 C28 1.382 . S
C32 H34 0.948 . S
H33 C31 0.952 . S
H34 C32 0.948 . S
H35 C24 0.952 . S
H36 C26 0.948 . S
C37 C3 1.395 . S
C37 C7 1.391 . S
C38 C0 1.389 . S
C38 C20 1.392 . S
C39 C10 1.392 . S
C39 C12 1.389 . S
C40 C15 1.395 . S
C40 C17 1.391 . S
H41 C1 0.951 . S
H42 C2 0.950 . S
H43 C8 0.949 . S
H44 C9 0.950 . S
H45 C13 0.951 . S
H46 C14 0.950 . S
H47 C18 0.949 . S
H48 C19 0.950 . S
H49 C23 0.950 . S
H50 C25 0.950 . S
H51 C28 0.950 . S
H52 C30 0.950 . S
C53 C54 1.443 . S
C53 N57 1.376 . S
C53 C91 1.389 . S
C54 C53 1.443 . S
C54 C55 1.340 . S
C54 H94 0.951 . S
C55 C54 1.340 . S
C55 C56 1.439 . S
C55 H95 0.950 . S
C56 C55 1.439 . S
C56 N57 1.374 . S
C56 C90 1.395 . S
N57 C53 1.376 . S
N57 C56 1.374 . S
N57 Co58 2.008 . S
Co58 N57 2.008 . S
Co58 N59 1.995 . S
Co58 N64 2.008 1_545 S
Co58 N69 1.995 1_545 S
Co58 N74 2.282 . S
Co58 N80 2.282 . S
N59 Co58 1.995 . S
N59 C60 1.376 . S
N59 C63 1.383 . S
C60 N59 1.376 . S
C60 C61 1.446 . S
C60 C90 1.391 . S
C61 C60 1.446 . S
C61 C62 1.339 . S
C61 H96 0.949 . S
C62 C61 1.339 . S
C62 C63 1.439 . S
C62 H97 0.950 1_455 S
C63 N59 1.383 . S
C63 C62 1.439 . S
C63 C92 1.392 1_455 S
N64 Co58 2.008 1_565 S
N64 C65 1.376 1_455 S
N64 C68 1.374 1_455 S
C65 N64 1.376 1_655 S
C65 C66 1.443 . S
C65 C92 1.389 1_565 S
C66 C65 1.443 . S
C66 C67 1.340 . S
C66 H98 0.951 . S
C67 C66 1.340 . S
C67 C68 1.439 . S
C67 H99 0.950 . S
C68 N64 1.374 1_655 S
C68 C67 1.439 . S
C68 C93 1.395 1_655 S
N69 Co58 1.995 1_565 S
N69 C70 1.376 . S
N69 C73 1.383 . S
C70 N69 1.376 . S
C70 C71 1.446 . S
C70 C93 1.391 . S
C71 C70 1.446 . S
C71 C72 1.339 . S
C71 H100 0.949 . S
C72 C71 1.339 . S
C72 C73 1.439 . S
C72 H101 0.950 . S
C73 N69 1.383 . S
C73 C72 1.439 . S
C73 C91 1.392 1_565 S
N74 Co58 2.282 . S
N74 C77 1.332 1_545 S
N74 C79 1.332 . S
C75 C76 1.386 1_545 S
C75 C78 1.388 . S
C76 C75 1.386 1_565 S
C76 C77 1.382 . S
C76 H102 0.950 . S
C77 N74 1.332 1_565 S
C77 C76 1.382 . S
C77 H88 0.952 . S
C78 C75 1.388 . S
C78 C79 1.382 . S
C78 H103 0.950 . S
C79 N74 1.332 . S
C79 C78 1.382 . S
C79 H89 0.948 . S
N80 Co58 2.282 . S
N80 C84 1.332 . S
N80 C85 1.332 1_545 S
C81 C82 1.388 1_565 S
C81 C85 1.382 . S
C81 H104 0.950 . S
C82 C81 1.388 1_545 S
C82 C83 1.386 . S
C83 C82 1.386 . S
C83 C84 1.382 . S
C83 H105 0.950 . S
C84 N80 1.332 . S
C84 C83 1.382 . S
C84 H86 0.952 . S
C85 N80 1.332 1_565 S
C85 C81 1.382 . S
C85 H87 0.948 . S
H86 C84 0.952 . S
H87 C85 0.948 . S
H88 C77 0.952 . S
H89 C79 0.948 . S
C90 C56 1.395 . S
C90 C60 1.391 . S
C91 C53 1.389 . S
C91 C73 1.392 1_545 S
C92 C63 1.392 1_655 S
C92 C65 1.389 1_545 S
C93 C68 1.395 1_455 S
C93 C70 1.391 . S
H94 C54 0.951 . S
H95 C55 0.950 . S
H96 C61 0.949 . S
H97 C62 0.950 1_655 S
H98 C66 0.951 . S
H99 C67 0.950 . S
H100 C71 0.949 . S
H101 C72 0.950 . S
H102 C76 0.950 . S
H103 C78 0.950 . S
H104 C81 0.950 . S
H105 C83 0.950 . S
C106 C107 1.443 . S
C106 N110 1.376 . S
C106 C144 1.389 . S
C107 C106 1.443 . S
C107 C108 1.340 . S
C107 H147 0.951 . S
C108 C107 1.340 . S
C108 C109 1.439 . S
C108 H148 0.950 . S
C109 C108 1.439 . S
C109 N110 1.374 . S
C109 C143 1.395 1_455 S
N110 C106 1.376 . S
N110 C109 1.374 . S
N110 Co111 2.008 . S
Co111 N110 2.008 . S
Co111 N112 1.995 1_455 S
Co111 N117 2.008 . S
Co111 N122 1.995 . S
Co111 N127 2.282 . S
Co111 N133 2.282 . S
N112 Co111 1.995 1_655 S
N112 C113 1.376 . S
N112 C116 1.383 . S
C113 N112 1.376 . S
C113 C114 1.446 . S
C113 C143 1.391 . S
C114 C113 1.446 . S
C114 C115 1.339 . S
C114 H149 0.949 . S
C115 C114 1.339 . S
C115 C116 1.439 . S
C115 H150 0.950 . S
C116 N112 1.383 . S
C116 C115 1.439 . S
C116 C145 1.392 . S
N117 Co111 2.008 . S
N117 C118 1.376 1_455 S
N117 C121 1.374 . S
C118 N117 1.376 1_655 S
C118 C119 1.449 . S
C118 C145 1.389 . S
C119 C118 1.449 . S
C119 C120 1.339 1_655 S
C119 H151 0.948 1_545 S
C120 C119 1.339 1_455 S
C120 C121 1.439 . S
C120 H152 0.950 1_545 S
C121 N117 1.374 . S
C121 C120 1.439 . S
C121 C146 1.395 . S
N122 Co111 1.995 . S
N122 C123 1.376 . S
N122 C126 1.383 . S
C123 N122 1.376 . S
C123 C124 1.446 . S
C123 C146 1.391 . S
C124 C123 1.446 . S
C124 C125 1.339 . S
C124 H153 0.949 . S
C125 C124 1.339 . S
C125 C126 1.439 . S
C125 H154 0.950 . S
C126 N122 1.383 . S
C126 C125 1.439 . S
C126 C144 1.392 . S
N127 Co111 2.282 . S
N127 C130 1.332 . S
N127 C132 1.332 . S
C128 C129 1.386 . S
C128 C131 1.388 . S
C129 C128 1.386 . S
C129 C130 1.382 . S
C129 H155 0.950 . S
C130 N127 1.332 . S
C130 C129 1.382 . S
C130 H141 0.952 . S
C131 C128 1.388 . S
C131 C132 1.382 . S
C131 H156 0.950 1_455 S
C132 N127 1.332 . S
C132 C131 1.382 . S
C132 H142 0.948 1_455 S
N133 Co111 2.282 . S
N133 C137 1.332 1_455 S
N133 C138 1.332 . S
C134 C135 1.388 . S
C134 C138 1.382 . S
C134 H157 0.950 . S
C135 C134 1.388 . S
C135 C136 1.386 1_455 S
C136 C135 1.386 1_655 S
C136 C137 1.382 . S
C136 H158 0.950 . S
C137 N133 1.332 1_655 S
C137 C136 1.382 . S
C137 H139 0.952 . S
C138 N133 1.332 . S
C138 C134 1.382 . S
C138 H140 0.948 . S
H139 C137 0.952 . S
H140 C138 0.948 . S
H141 C130 0.952 . S
H142 C132 0.948 1_655 S
C143 C109 1.395 1_655 S
C143 C113 1.391 . S
C144 C106 1.389 . S
C144 C126 1.392 . S
C145 C116 1.392 . S
C145 C118 1.389 . S
C146 C121 1.395 . S
C146 C123 1.391 . S
H147 C107 0.951 . S
H148 C108 0.950 . S
H149 C114 0.949 . S
H150 C115 0.950 . S
H151 C119 0.948 1_565 S
H152 C120 0.950 1_565 S
H153 C124 0.949 . S
H154 C125 0.950 . S
H155 C129 0.950 . S
H156 C131 0.950 1_655 S
H157 C134 0.950 . S
H158 C136 0.950 . S
C159 C160 1.443 . S
C159 N163 1.386 . S
C159 C197 1.389 . S
C160 C159 1.443 . S
C160 C161 1.340 1_655 S
C160 H200 0.951 . S
C161 C160 1.340 1_455 S
C161 C162 1.439 . S
C161 H201 0.950 . S
C162 C161 1.439 . S
C162 N163 1.372 1_455 S
C162 C196 1.395 . S
N163 C159 1.386 . S
N163 C162 1.372 1_655 S
N163 Co164 2.001 1_655 S
Co164 N163 2.001 1_455 S
Co164 N165 1.995 . S
Co164 N170 2.008 1_545 S
Co164 N175 1.995 1_445 S
Co164 N180 2.282 . S
Co164 N186 2.282 . S
N165 Co164 1.995 . S
N165 C166 1.376 . S
N165 C169 1.383 . S
C166 N165 1.376 . S
C166 C167 1.446 . S
C166 C196 1.391 . S
C167 C166 1.446 . S
C167 C168 1.339 . S
C167 H202 0.949 . S
C168 C167 1.339 . S
C168 C169 1.439 . S
C168 H203 0.950 . S
C169 N165 1.383 . S
C169 C168 1.439 . S
C169 C198 1.392 . S
N170 Co164 2.008 1_565 S
N170 C171 1.376 . S
N170 C174 1.374 1_455 S
C171 N170 1.376 . S
C171 C172 1.443 . S
C171 C198 1.389 1_565 S
C172 C171 1.443 . S
C172 C173 1.340 . S
C172 H204 0.951 . S
C173 C172 1.340 . S
C173 C174 1.439 1_455 S
C173 H205 0.950 1_455 S
C174 N170 1.374 1_655 S
C174 C173 1.439 1_655 S
C174 C199 1.395 . S
N175 Co164 1.995 1_665 S
N175 C176 1.376 . S
N175 C179 1.383 . S
C176 N175 1.376 . S
C176 C177 1.446 . S
C176 C199 1.391 . S
C177 C176 1.446 . S
C177 C178 1.339 . S
C177 H206 0.949 . S
C178 C177 1.339 . S
C178 C179 1.439 . S
C178 H207 0.950 . S
C179 N175 1.383 . S
C179 C178 1.439 . S
C179 C197 1.392 1_565 S
N180 Co164 2.282 . S
N180 C183 1.332 1_445 S
N180 C185 1.332 . S
C181 C182 1.390 1_455 S
C181 C184 1.384 1_565 S
C182 C181 1.390 1_655 S
C182 C183 1.382 . S
C182 H208 0.950 . S
C183 N180 1.332 1_665 S
C183 C182 1.382 . S
C183 H194 0.952 . S
C184 C181 1.384 1_545 S
C184 C185 1.382 . S
C184 H209 0.950 . S
C185 N180 1.332 . S
C185 C184 1.382 . S
C185 H195 0.948 . S
N186 Co164 2.282 . S
N186 C190 1.332 . S
N186 C191 1.332 1_445 S
C187 C188 1.388 1_665 S
C187 C191 1.382 . S
C187 H210 0.950 . S
C188 C187 1.388 1_445 S
C188 C189 1.386 . S
C189 C188 1.386 . S
C189 C190 1.382 . S
C189 H211 0.950 . S
C190 N186 1.332 . S
C190 C189 1.382 . S
C190 H192 0.952 . S
C191 N186 1.332 1_665 S
C191 C187 1.382 . S
C191 H193 0.948 . S
H192 C190 0.952 . S
H193 C191 0.948 . S
H194 C183 0.952 . S
H195 C185 0.948 . S
C196 C162 1.395 . S
C196 C166 1.391 . S
C197 C159 1.389 . S
C197 C179 1.392 1_545 S
C198 C169 1.392 . S
C198 C171 1.389 1_545 S
C199 C174 1.395 . S
C199 C176 1.391 . S
H200 C160 0.951 . S
H201 C161 0.950 . S
H202 C167 0.949 . S
H203 C168 0.950 . S
H204 C172 0.951 . S
H205 C173 0.950 1_655 S
H206 C177 0.949 . S
H207 C178 0.950 . S
H208 C182 0.950 . S
H209 C184 0.950 . S
H210 C187 0.950 . S
H211 C189 0.950 . S
C212 C213 1.443 . S
C212 N216 1.376 1_655 S
C212 C250 1.389 . S
C213 C212 1.443 . S
C213 C214 1.340 . S
C213 H253 0.951 . S
C214 C213 1.340 . S
C214 C215 1.439 1_655 S
C214 H254 0.950 . S
C215 C214 1.439 1_455 S
C215 N216 1.374 . S
C215 C249 1.395 . S
N216 C212 1.376 1_455 S
N216 C215 1.374 . S
N216 Co217 2.008 . S
Co217 N216 2.008 . S
Co217 N218 1.995 . S
Co217 N223 2.008 . S
Co217 N228 1.995 . S
Co217 N233 2.282 . S
Co217 N239 2.282 . S
N218 Co217 1.995 . S
N218 C219 1.376 . S
N218 C222 1.383 . S
C219 N218 1.376 . S
C219 C220 1.446 . S
C219 C249 1.391 . S
C220 C219 1.446 . S
C220 C221 1.339 . S
C220 H255 0.949 . S
C221 C220 1.339 . S
C221 C222 1.439 . S
C221 H256 0.950 . S
C222 N218 1.383 . S
C222 C221 1.439 . S
C222 C251 1.392 . S
N223 Co217 2.008 . S
N223 C224 1.376 . S
N223 C227 1.374 . S
C224 N223 1.376 . S
C224 C225 1.443 . S
C224 C251 1.389 . S
C225 C224 1.443 . S
C225 C226 1.340 . S
C225 H257 0.951 . S
C226 C225 1.340 . S
C226 C227 1.439 . S
C226 H258 0.950 . S
C227 N223 1.374 . S
C227 C226 1.439 . S
C227 C252 1.395 . S
N228 Co217 1.995 . S
N228 C229 1.376 . S
N228 C232 1.383 . S
C229 N228 1.376 . S
C229 C230 1.446 . S
C229 C252 1.391 . S
C230 C229 1.446 . S
C230 C231 1.339 . S
C230 H259 0.949 . S
C231 C230 1.339 . S
C231 C232 1.439 . S
C231 H260 0.950 . S
C232 N228 1.383 . S
C232 C231 1.439 . S
C232 C250 1.392 1_455 S
N233 Co217 2.282 . S
N233 C236 1.332 . S
N233 C238 1.332 . S
C234 C235 1.386 . S
C234 C237 1.388 . S
C235 C234 1.386 . S
C235 C236 1.382 . S
C235 H261 0.950 . S
C236 N233 1.332 . S
C236 C235 1.382 . S
C236 H247 0.952 . S
C237 C234 1.388 . S
C237 C238 1.382 . S
C237 H262 0.950 . S
C238 N233 1.332 . S
C238 C237 1.382 . S
C238 H248 0.948 . S
N239 Co217 2.282 . S
N239 C243 1.332 . S
N239 C244 1.332 . S
C240 C241 1.388 . S
C240 C244 1.382 . S
C240 H263 0.950 . S
C241 C240 1.388 . S
C241 C242 1.386 . S
C242 C241 1.386 . S
C242 C243 1.382 . S
C242 H264 0.950 . S
C243 N239 1.332 . S
C243 C242 1.382 . S
C243 H245 0.952 . S
C244 N239 1.332 . S
C244 C240 1.382 . S
C244 H246 0.948 . S
H245 C243 0.952 . S
H246 C244 0.948 . S
H247 C236 0.952 . S
H248 C238 0.948 . S
C249 C215 1.395 . S
C249 C219 1.391 . S
C250 C212 1.389 . S
C250 C232 1.392 1_655 S
C251 C222 1.392 . S
C251 C224 1.389 . S
C252 C227 1.395 . S
C252 C229 1.391 . S
H253 C213 0.951 . S
H254 C214 0.950 . S
H255 C220 0.949 . S
H256 C221 0.950 . S
H257 C225 0.951 . S
H258 C226 0.950 . S
H259 C230 0.949 . S
H260 C231 0.950 . S
H261 C235 0.950 . S
H262 C237 0.950 . S
H263 C240 0.950 . S
H264 C242 0.950 . S
C265 C266 1.443 . S
C265 N269 1.376 . S
C265 C303 1.389 . S
C266 C265 1.443 . S
C266 C267 1.340 . S
C266 H306 0.951 1_545 S
C267 C266 1.340 . S
C267 C268 1.439 . S
C267 H307 0.950 1_545 S
C268 C267 1.439 . S
C268 N269 1.374 . S
C268 C302 1.395 . S
N269 C265 1.376 . S
N269 C268 1.374 . S
N269 Co270 2.008 . S
Co270 N269 2.008 . S
Co270 N271 1.995 . S
Co270 N276 2.008 . S
Co270 N281 1.995 . S
Co270 N286 2.282 . S
Co270 N292 2.282 . S
N271 Co270 1.995 . S
N271 C272 1.376 . S
N271 C275 1.383 . S
C272 N271 1.376 . S
C272 C273 1.446 . S
C272 C302 1.391 . S
C273 C272 1.446 . S
C273 C274 1.339 . S
C273 H308 0.949 . S
C274 C273 1.339 . S
C274 C275 1.439 . S
C274 H309 0.950 . S
C275 N271 1.383 . S
C275 C274 1.439 . S
C275 C304 1.392 . S
N276 Co270 2.008 . S
N276 C277 1.376 . S
N276 C280 1.374 . S
C277 N276 1.376 . S
C277 C278 1.443 . S
C277 C304 1.389 . S
C278 C277 1.443 . S
C278 C279 1.340 . S
C278 H310 0.951 . S
C279 C278 1.340 . S
C279 C280 1.439 . S
C279 H311 0.950 . S
C280 N276 1.374 . S
C280 C279 1.439 . S
C280 C305 1.395 . S
N281 Co270 1.995 . S
N281 C282 1.376 . S
N281 C285 1.383 . S
C282 N281 1.376 . S
C282 C283 1.446 . S
C282 C305 1.391 . S
C283 C282 1.446 . S
C283 C284 1.339 . S
C283 H312 0.949 . S
C284 C283 1.339 . S
C284 C285 1.439 . S
C284 H313 0.950 . S
C285 N281 1.383 . S
C285 C284 1.439 . S
C285 C303 1.392 . S
N286 Co270 2.282 . S
N286 C289 1.332 . S
N286 C291 1.332 . S
C287 C288 1.386 . S
C287 C290 1.388 . S
C288 C287 1.386 . S
C288 C289 1.382 . S
C288 H314 0.950 . S
C289 N286 1.332 . S
C289 C288 1.382 . S
C289 H300 0.952 . S
C290 C287 1.388 . S
C290 C291 1.382 . S
C290 H315 0.950 . S
C291 N286 1.332 . S
C291 C290 1.382 . S
C291 H301 0.948 . S
N292 Co270 2.282 . S
N292 C296 1.332 . S
N292 C297 1.332 . S
C293 C294 1.388 . S
C293 C297 1.382 . S
C293 H316 0.950 . S
C294 C293 1.388 . S
C294 C295 1.386 . S
C295 C294 1.386 . S
C295 C296 1.382 . S
C295 H317 0.950 . S
C296 N292 1.332 . S
C296 C295 1.382 . S
C296 H298 0.952 . S
C297 N292 1.332 . S
C297 C293 1.382 . S
C297 H299 0.948 . S
H298 C296 0.952 . S
H299 C297 0.948 . S
H300 C289 0.952 . S
H301 C291 0.948 . S
C302 C268 1.395 . S
C302 C272 1.391 . S
C303 C265 1.389 . S
C303 C285 1.392 . S
C304 C275 1.392 . S
C304 C277 1.389 . S
C305 C280 1.395 . S
C305 C282 1.391 . S
H306 C266 0.951 1_565 S
H307 C267 0.950 1_565 S
H308 C273 0.949 . S
H309 C274 0.950 . S
H310 C278 0.951 . S
H311 C279 0.950 . S
H312 C283 0.949 . S
H313 C284 0.950 . S
H314 C288 0.950 . S
H315 C290 0.950 . S
H316 C293 0.950 . S
H317 C295 0.950 . S
H318 C324 0.930 . S
H319 C328 0.930 . S
H320 C333 0.929 . S
H321 C331 0.929 . S
H322 C326 0.929 . S
H323 C332 0.929 1_565 S
C324 H318 0.930 . S
C324 C325 1.367 . S
C324 C332 1.378 . S
C325 C324 1.367 . S
C325 C333 1.433 . S
C326 H322 0.929 . S
C326 C328 1.378 . S
C326 C330 1.350 . S
C327 C330 1.463 . S
C327 C332 1.350 1_565 S
C327 N335 1.427 1_565 S
C328 H319 0.930 . S
C328 C326 1.378 . S
C328 C329 1.367 . S
C329 C328 1.367 . S
C329 C331 1.433 . S
C330 C326 1.350 . S
C330 C327 1.463 . S
C330 N334 1.427 . S
C331 H321 0.929 . S
C331 C329 1.433 . S
C331 N334 1.384 . S
C332 H323 0.929 1_545 S
C332 C324 1.378 . S
C332 C327 1.350 1_545 S
C333 H320 0.929 . S
C333 C325 1.433 . S
C333 N335 1.384 . S
N334 C330 1.427 . S
N334 C331 1.384 . S
N335 C327 1.427 1_545 S
N335 C333 1.384 . S
H336 C342 0.930 . S
H337 C346 0.930 . S
H338 C351 0.929 . S
H339 C349 0.929 . S
H340 C344 0.929 . S
H341 C350 0.929 . S
C342 H336 0.930 . S
C342 C343 1.367 . S
C342 C350 1.378 . S
C343 C342 1.367 . S
C343 C351 1.433 1_545 S
C344 H340 0.929 . S
C344 C346 1.378 . S
C344 C348 1.350 1_565 S
C345 C348 1.463 . S
C345 C350 1.350 . S
C345 N353 1.427 1_545 S
C346 H337 0.930 . S
C346 C344 1.378 . S
C346 C347 1.367 1_565 S
C347 C346 1.367 1_545 S
C347 C349 1.433 . S
C348 C344 1.350 1_545 S
C348 C345 1.463 . S
C348 N352 1.427 . S
C349 H339 0.929 . S
C349 C347 1.433 . S
C349 N352 1.384 . S
C350 H341 0.929 . S
C350 C342 1.378 . S
C350 C345 1.350 . S
C351 H338 0.929 . S
C351 C343 1.433 1_565 S
C351 N353 1.384 . S
N352 C348 1.427 . S
N352 C349 1.384 . S
N353 C345 1.427 1_565 S
N353 C351 1.384 . S
H354 C360 0.930 1_545 S
H355 C364 0.930 . S
H356 C369 0.929 . S
H357 C367 0.929 . S
H358 C362 0.929 . S
H359 C368 0.929 . S
C360 H354 0.930 1_565 S
C360 C361 1.367 . S
C360 C368 1.378 . S
C361 C360 1.367 . S
C361 C369 1.433 . S
C362 H358 0.929 . S
C362 C364 1.378 . S
C362 C366 1.350 . S
C363 C366 1.463 . S
C363 C368 1.350 . S
C363 N371 1.427 . S
C364 H355 0.930 . S
C364 C362 1.378 . S
C364 C365 1.367 . S
C365 C364 1.367 . S
C365 C367 1.433 . S
C366 C362 1.350 . S
C366 C363 1.463 . S
C366 N370 1.427 . S
C367 H357 0.929 . S
C367 C365 1.433 . S
C367 N370 1.384 . S
C368 H359 0.929 . S
C368 C360 1.378 . S
C368 C363 1.350 . S
C369 H356 0.929 . S
C369 C361 1.433 . S
C369 N371 1.384 . S
N370 C366 1.427 . S
N370 C367 1.384 . S
N371 C363 1.427 . S
N371 C369 1.384 . S
H372 C378 0.930 . S
H373 C382 0.930 . S
H374 C387 0.929 . S
H375 C385 0.929 . S
H376 C380 0.929 . S
H377 C386 0.929 . S
C378 H372 0.930 . S
C378 C379 1.367 . S
C378 C386 1.378 . S
C379 C378 1.367 . S
C379 C387 1.433 1_545 S
C380 H376 0.929 . S
C380 C382 1.378 . S
C380 C384 1.350 1_565 S
C381 C384 1.463 . S
C381 C386 1.350 . S
C381 N389 1.427 1_545 S
C382 H373 0.930 . S
C382 C380 1.378 . S
C382 C383 1.367 1_565 S
C383 C382 1.367 1_545 S
C383 C385 1.433 . S
C384 C380 1.350 1_545 S
C384 C381 1.463 . S
C384 N388 1.427 . S
C385 H375 0.929 . S
C385 C383 1.433 . S
C385 N388 1.384 . S
C386 H377 0.929 . S
C386 C378 1.378 . S
C386 C381 1.350 . S
C387 H374 0.929 . S
C387 C379 1.433 1_565 S
C387 N389 1.384 . S
N388 C384 1.427 . S
N388 C385 1.384 . S
N389 C381 1.427 1_565 S
N389 C387 1.384 . S
H390 C396 0.930 . S
H391 C400 0.930 . S
H392 C405 0.929 . S
H393 C403 0.929 . S
H394 C398 0.929 . S
H395 C404 0.929 . S
C396 H390 0.930 . S
C396 C397 1.367 . S
C396 C404 1.378 . S
C397 C396 1.367 . S
C397 C405 1.433 . S
C398 H394 0.929 . S
C398 C400 1.378 . S
C398 C402 1.350 1_545 S
C399 C402 1.463 . S
C399 C404 1.350 . S
C399 N407 1.427 . S
C400 H391 0.930 . S
C400 C398 1.378 . S
C400 C401 1.367 . S
C401 C400 1.367 . S
C401 C403 1.433 . S
C402 C398 1.350 1_565 S
C402 C399 1.463 . S
C402 N406 1.427 . S
C403 H393 0.929 . S
C403 C401 1.433 . S
C403 N406 1.384 1_545 S
C404 H395 0.929 . S
C404 C396 1.378 . S
C404 C399 1.350 . S
C405 H392 0.929 . S
C405 C397 1.433 . S
C405 N407 1.384 . S
N406 C402 1.427 . S
N406 C403 1.384 1_565 S
N407 C399 1.427 . S
N407 C405 1.384 . S
H408 C414 0.930 . S
H409 C418 0.930 . S
H410 C423 0.929 . S
H411 C421 0.929 . S
H412 C416 0.929 . S
H413 C422 0.929 . S
C414 H408 0.930 . S
C414 C415 1.367 . S
C414 C422 1.378 . S
C415 C414 1.367 . S
C415 C423 1.433 . S
C416 H412 0.929 . S
C416 C418 1.378 1_565 S
C416 C420 1.350 . S
C417 C420 1.463 . S
C417 C422 1.350 . S
C417 N425 1.427 . S
C418 H409 0.930 . S
C418 C416 1.378 1_545 S
C418 C419 1.367 . S
C419 C418 1.367 . S
C419 C421 1.433 1_545 S
C420 C416 1.350 . S
C420 C417 1.463 . S
C420 N424 1.427 . S
C421 H411 0.929 . S
C421 C419 1.433 1_565 S
C421 N424 1.384 . S
C422 H413 0.929 . S
C422 C414 1.378 . S
C422 C417 1.350 . S
C423 H410 0.929 . S
C423 C415 1.433 . S
C423 N425 1.384 . S
N424 C420 1.427 . S
N424 C421 1.384 . S
N425 C417 1.427 . S
N425 C423 1.384 . S
H426 C432 0.930 . S
H427 C436 0.930 . S
H428 C441 0.929 . S
H429 C439 0.929 . S
H430 C434 0.929 . S
H431 C440 0.929 . S
C432 H426 0.930 . S
C432 C433 1.367 . S
C432 C440 1.378 . S
C433 C432 1.367 . S
C433 C441 1.433 . S
C434 H430 0.929 . S
C434 C436 1.378 . S
C434 C438 1.350 . S
C435 C438 1.463 . S
C435 C440 1.350 . S
C435 N443 1.427 . S
C436 H427 0.930 . S
C436 C434 1.378 . S
C436 C437 1.367 . S
C437 C436 1.367 . S
C437 C439 1.433 . S
C438 C434 1.350 . S
C438 C435 1.463 . S
C438 N442 1.427 . S
C439 H429 0.929 . S
C439 C437 1.433 . S
C439 N442 1.384 . S
C440 H431 0.929 . S
C440 C432 1.378 . S
C440 C435 1.350 . S
C441 H428 0.929 . S
C441 C433 1.433 . S
C441 N443 1.384 . S
N442 C438 1.427 . S
N442 C439 1.384 . S
N443 C435 1.427 . S
N443 C441 1.384 . S
H444 C450 0.930 . S
H445 C454 0.930 . S
H446 C459 0.929 . S
H447 C457 0.929 . S
H448 C452 0.929 . S
H449 C458 0.929 . S
C450 H444 0.930 . S
C450 C451 1.367 1_545 S
C450 C458 1.378 . S
C451 C450 1.367 1_565 S
C451 C459 1.433 1_455 S
C452 H448 0.929 . S
C452 C454 1.378 . S
C452 C456 1.350 1_655 S
C453 C456 1.463 . S
C453 C458 1.350 1_565 S
C453 N461 1.427 1_455 S
C454 H445 0.930 . S
C454 C452 1.378 . S
C454 C455 1.367 1_655 S
C455 C454 1.367 1_455 S
C455 C457 1.433 1_565 S
C456 C452 1.350 1_455 S
C456 C453 1.463 . S
C456 N460 1.427 1_565 S
C457 H447 0.929 . S
C457 C455 1.433 1_545 S
C457 N460 1.384 . S
C458 H449 0.929 . S
C458 C450 1.378 . S
C458 C453 1.350 1_545 S
C459 H446 0.929 . S
C459 C451 1.433 1_655 S
C459 N461 1.384 . S
N460 C456 1.427 1_545 S
N460 C457 1.384 . S
N461 C453 1.427 1_655 S
N461 C459 1.384 . S
H462 C468 0.930 . S
H463 C472 0.930 . S
H464 C477 0.929 . S
H465 C475 0.929 . S
H466 C470 0.929 . S
H467 C476 0.929 . S
C468 H462 0.930 . S
C468 C469 1.367 . S
C468 C476 1.378 . S
C469 C468 1.367 . S
C469 C477 1.433 . S
C470 H466 0.929 . S
C470 C472 1.378 . S
C470 C474 1.350 . S
C471 C474 1.463 . S
C471 C476 1.350 . S
C471 N479 1.427 . S
C472 H463 0.930 . S
C472 C470 1.378 . S
C472 C473 1.367 . S
C473 C472 1.367 . S
C473 C475 1.433 . S
C474 C470 1.350 . S
C474 C471 1.463 . S
C474 N478 1.427 . S
C475 H465 0.929 . S
C475 C473 1.433 . S
C475 N478 1.384 . S
C476 H467 0.929 . S
C476 C468 1.378 . S
C476 C471 1.350 . S
C477 H464 0.929 . S
C477 C469 1.433 . S
C477 N479 1.384 . S
N478 C474 1.427 . S
N478 C475 1.384 . S
N479 C471 1.427 . S
N479 C477 1.384 . S
H480 C486 0.930 . S
H481 C490 0.930 . S
H482 C495 0.929 . S
H483 C493 0.929 . S
H484 C488 0.929 1_554 S
H485 C494 0.929 . S
C486 H480 0.930 . S
C486 C487 1.367 . S
C486 C494 1.378 . S
C487 C486 1.367 . S
C487 C495 1.433 . S
C488 H484 0.929 1_556 S
C488 C490 1.378 . S
C488 C492 1.350 1_556 S
C489 C492 1.463 . S
C489 C494 1.350 . S
C489 N497 1.427 . S
C490 H481 0.930 . S
C490 C488 1.378 . S
C490 C491 1.367 . S
C491 C490 1.367 . S
C491 C493 1.433 . S
C492 C488 1.350 1_554 S
C492 C489 1.463 . S
C492 N496 1.427 1_554 S
C493 H483 0.929 . S
C493 C491 1.433 . S
C493 N496 1.384 . S
C494 H485 0.929 . S
C494 C486 1.378 . S
C494 C489 1.350 . S
C495 H482 0.929 . S
C495 C487 1.433 . S
C495 N497 1.384 . S
N496 C492 1.427 1_556 S
N496 C493 1.384 . S
N497 C489 1.427 . S
N497 C495 1.384 . S
H498 C504 0.930 . S
H499 C508 0.930 1_565 S
H500 C513 0.929 . S
H501 C511 0.929 . S
H502 C506 0.929 . S
H503 C512 0.929 . S
C504 H498 0.930 . S
C504 C505 1.367 . S
C504 C512 1.378 . S
C505 C504 1.367 . S
C505 C513 1.433 . S
C506 H502 0.929 . S
C506 C508 1.378 . S
C506 C510 1.350 . S
C507 C510 1.463 . S
C507 C512 1.350 . S
C507 N515 1.427 . S
C508 H499 0.930 1_545 S
C508 C506 1.378 . S
C508 C509 1.367 . S
C509 C508 1.367 . S
C509 C511 1.433 . S
C510 C506 1.350 . S
C510 C507 1.463 . S
C510 N514 1.427 . S
C511 H501 0.929 . S
C511 C509 1.433 . S
C511 N514 1.384 . S
C512 H503 0.929 . S
C512 C504 1.378 . S
C512 C507 1.350 . S
C513 H500 0.929 . S
C513 C505 1.433 . S
C513 N515 1.384 . S
N514 C510 1.427 . S
N514 C511 1.384 . S
N515 C507 1.427 . S
N515 C513 1.384 . S
H516 C522 0.930 1_665 S
H517 C526 0.930 . S
H518 C531 0.929 . S
H519 C529 0.929 . S
H520 C524 0.929 . S
H521 C530 0.931 1_665 S
C522 H516 0.930 1_445 S
C522 C523 1.367 . S
C522 C530 1.378 . S
C523 C522 1.367 . S
C523 C531 1.433 . S
C524 H520 0.929 . S
C524 C526 1.378 . S
C524 C528 1.350 . S
C525 C528 1.463 . S
C525 C530 1.350 . S
C525 N533 1.427 . S
C526 H517 0.930 . S
C526 C524 1.378 . S
C526 C527 1.367 . S
C527 C526 1.367 . S
C527 C529 1.433 . S
C528 C524 1.350 . S
C528 C525 1.463 . S
C528 N532 1.427 . S
C529 H519 0.929 . S
C529 C527 1.433 . S
C529 N532 1.384 . S
C530 H521 0.931 1_445 S
C530 C522 1.378 . S
C530 C525 1.350 . S
C531 H518 0.929 . S
C531 C523 1.433 . S
C531 N533 1.384 . S
N532 C528 1.427 . S
N532 C529 1.384 . S
N533 C525 1.427 . S
N533 C531 1.384 . S
C325 C39 1.500 . S
C329 C38 1.500 . S
C343 C91 1.498 . S
C347 C92 1.498 . S
C361 C145 1.501 1_565 S
C365 C144 1.501 . S
C379 C198 1.499 . S
C383 C197 1.499 . S
C397 C251 1.501 . S
C401 C250 1.501 . S
C415 C304 1.500 . S
C419 C303 1.500 . S
C433 C287 1.545 . S
C437 C22 1.548 . S
C451 C181 1.546 . S
C455 C75 1.548 1_565 S
C469 C128 1.543 . S
C473 C234 1.541 . S
C487 C29 1.560 . S
C491 C241 1.556 . S
C505 C294 1.572 . S
C509 C82 1.573 . S
C523 C188 1.565 . S
C527 C135 1.562 . S
