# Generated by pormake.
# Topology qtz-x, (6)-cn, num edge types: 1
# Building blocks:
#     Node 0, Type 0, BuildingBlock: UKALOJ_clean_sbu_0, # of connection points: 6
#     Node 1, Type 0, BuildingBlock: UKALOJ_clean_sbu_0, # of connection points: 6
#     Node 2, Type 0, BuildingBlock: UKALOJ_clean_sbu_0, # of connection points: 6
#     Edge 3, Type (0, 0), BuildingBlock: KIFKEQ_clean_linker_1, # of connection points: 2
#     Edge 4, Type (0, 0), BuildingBlock: KIFKEQ_clean_linker_1, # of connection points: 2
#     Edge 5, Type (0, 0), BuildingBlock: KIFKEQ_clean_linker_1, # of connection points: 2
#     Edge 6, Type (0, 0), BuildingBlock: KIFKEQ_clean_linker_1, # of connection points: 2
#     Edge 7, Type (0, 0), BuildingBlock: KIFKEQ_clean_linker_1, # of connection points: 2
#     Edge 8, Type (0, 0), BuildingBlock: KIFKEQ_clean_linker_1, # of connection points: 2
#     Edge 9, Type (0, 0), BuildingBlock: KIFKEQ_clean_linker_1, # of connection points: 2
#     Edge 10, Type (0, 0), BuildingBlock: KIFKEQ_clean_linker_1, # of connection points: 2
#     Edge 11, Type (0, 0), BuildingBlock: KIFKEQ_clean_linker_1, # of connection points: 2
# Relax obj value: 0.295
# Max RMSD: 0.255
# Mean RMSD: 0.253
data_MOF--net-qtz-x--node1-UKALOJ_clean_sbu_0--edge1-KIFKEQ_clean_linker_1
_symmetry_space_group_name_H-M    P1
_symmetry_Int_Tables_number       1
_symmetry_cell_setting            triclinic
loop_
_symmetry_equiv_pos_as_xyz
'x, y, z'
_cell_length_a     20.243743
_cell_length_b     20.214741
_cell_length_c     33.094208
_cell_angle_alpha  93.850223
_cell_angle_beta   94.093176
_cell_angle_gamma 120.069
loop_
_atom_site_label
_atom_site_type_symbol
_atom_site_fract_x
_atom_site_fract_y
_atom_site_fract_z
_atom_type_partial_charge
Zn0 Zn 0.00553 0.53274 0.1998 0.0
O1 O 0.07792 0.57902 0.15146 0.0
C2 C 0.87066 0.43538 0.13819 0.0
Zn3 Zn -0.00387 0.42019 0.18307 0.0
C4 C 0.09115 0.53378 0.12941 0.0
O5 O 0.06321 0.46466 0.13672 0.0
C6 C 0.91 0.41304 0.25269 0.0
O7 O 0.09899 0.45565 0.22487 0.0
O8 O 0.10388 0.56574 0.23975 0.0
N9 N 0.98444 0.31641 0.16551 0.0
C10 C 0.00102 0.26978 0.18558 0.0
C11 C 0.94923 0.21252 0.12563 0.0
N12 N 0.95236 0.28082 0.12828 0.0
N13 N 0.97982 0.20465 0.16113 0.0
C14 C 0.01488 0.68995 0.19615 0.0
C15 C 0.01463 0.72274 0.25877 0.0
N16 N 0.01345 0.63493 0.2175 0.0
N17 N 0.01346 0.65543 0.25636 0.0
N18 N 0.01518 0.74546 0.22141 0.0
H19 H 0.08289 0.7052 0.14741 0.0
H20 H 0.01681 0.73774 0.13861 0.0
H21 H 0.98262 0.63562 0.13412 0.0
C22 C 0.02392 0.69237 0.15153 0.0
C23 C 0.03368 0.28587 0.2296 0.0
H24 H 0.09738 0.31811 0.23176 0.0
H25 H 0.01527 0.2315 0.24325 0.0
H26 H 0.01552 0.32114 0.24732 0.0
O27 O 0.92778 0.37386 0.22918 0.0
O28 O 0.93425 0.48317 0.24778 0.0
C29 C 0.1318 0.52264 0.24469 0.0
O30 O 0.90628 0.50047 0.15971 0.0
O31 O 0.89527 0.38885 0.14141 0.0
Zn32 Zn 0.58741 0.01408 0.53583 0.0
O33 O 0.54957 0.92061 0.48745 0.0
C34 C 0.61236 0.12342 0.47437 0.0
Zn35 Zn 0.48293 0.02075 0.51893 0.0
C36 C 0.48685 0.89907 0.465 0.0
O37 O 0.44851 0.93165 0.47198 0.0
C38 C 0.57951 0.13764 0.58837 0.0
O39 O 0.42622 0.93667 0.56125 0.0
O40 O 0.5322 0.93338 0.57518 0.0
N41 N 0.38625 0.02466 0.50203 0.0
C42 C 0.3291 0.01899 0.52281 0.0
C43 C 0.30554 0.03738 0.46203 0.0
N44 N 0.37158 0.03618 0.46434 0.0
N45 N 0.27789 0.02713 0.49833 0.0
C46 C 0.73497 0.00407 0.53112 0.0
C47 C 0.78396 0.03384 0.59351 0.0
N48 N 0.68651 0.01476 0.5528 0.0
N49 N 0.71695 0.03309 0.59151 0.0
N50 N 0.79688 0.01625 0.55603 0.0
H51 H 0.66905 0.91376 0.48259 0.0
H52 H 0.76582 0.97435 0.47349 0.0
H53 H 0.69846 0.00835 0.46916 0.0
C54 C 0.71708 0.97432 0.48655 0.0
C55 C 0.32018 0.99741 0.56545 0.0
H56 H 0.30041 0.93524 0.5645 0.0
H57 H 0.27714 0.00653 0.57959 0.0
H58 H 0.37628 0.03027 0.58495 0.0
O59 O 0.51743 0.1114 0.56479 0.0
O60 O 0.62092 0.10714 0.58427 0.0
C61 C 0.4628 0.90969 0.58025 0.0
O62 O 0.64418 0.09494 0.49576 0.0
O63 O 0.54253 0.10293 0.47744 0.0
Zn64 Zn 0.54593 0.5876 0.86712 0.0
O65 O 0.5983 0.55261 0.8217 0.0
C66 C 0.45065 0.60006 0.7995 0.0
Zn67 Zn 0.43689 0.47716 0.85075 0.0
C68 C 0.56029 0.48305 0.80504 0.0
O69 O 0.49209 0.43961 0.81268 0.0
C70 C 0.41839 0.57625 0.91301 0.0
O71 O 0.46819 0.42885 0.89986 0.0
O72 O 0.58075 0.53562 0.90953 0.0
N73 N 0.33634 0.37659 0.83266 0.0
C74 C 0.28692 0.32093 0.85347 0.0
C75 C 0.23934 0.29075 0.79085 0.0
N76 N 0.30672 0.35765 0.79378 0.0
N77 N 0.22595 0.26639 0.82786 0.0
C78 C 0.70261 0.73711 0.86462 0.0
C79 C 0.72812 0.78934 0.9262 0.0
N80 N 0.64536 0.6893 0.88511 0.0
N81 N 0.6614 0.7218 0.92336 0.0
N82 N 0.75528 0.79995 0.8898 0.0
H83 H 0.73459 0.69209 0.81432 0.0
H84 H 0.73612 0.78023 0.80705 0.0
H85 H 0.64561 0.69066 0.80325 0.0
C86 C 0.70452 0.72452 0.81966 0.0
C87 C 0.29606 0.32239 0.89893 0.0
H88 H 0.32864 0.29349 0.9071 0.0
H89 H 0.23922 0.29129 0.91034 0.0
H90 H 0.32829 0.38228 0.91418 0.0
O91 O 0.38129 0.51427 0.8889 0.0
O92 O 0.49065 0.61843 0.91258 0.0
C93 C 0.53639 0.46822 0.91819 0.0
O94 O 0.51123 0.63994 0.82442 0.0
O95 O 0.40921 0.52823 0.80186 0.0
H96 H 0.91834 0.75067 0.16311 0.0
H97 H 0.09904 0.88806 0.26126 0.0
H98 H 0.91253 0.86357 0.14717 0.0
H99 H 0.08926 0.00048 0.24806 0.0
H100 H 0.10781 0.20442 0.18838 0.0
H101 H 0.11765 0.09229 0.20251 0.0
H102 H 0.87161 0.94641 0.16996 0.0
H103 H 0.86395 0.05865 0.1538 0.0
C104 C 0.95757 0.80564 0.18087 0.0
C105 C 0.01148 0.81189 0.21219 0.0
C106 C 0.95314 0.87004 0.17244 0.0
C107 C 0.00075 0.9416 0.19618 0.0
C108 C 0.05306 0.94696 0.22845 0.0
C109 C 0.05837 0.88269 0.23631 0.0
C110 C 0.05629 0.14805 0.18441 0.0
C111 C 0.98519 0.13926 0.17024 0.0
C112 C 0.06154 0.08394 0.19267 0.0
C113 C 0.99538 0.01002 0.18745 0.0
C114 C 0.92405 0.00196 0.17354 0.0
C115 C 0.91927 0.06596 0.16455 0.0
H116 H 0.26013 0.10583 0.56187 0.0
H117 H 0.14079 0.94865 0.45228 0.0
H118 H 0.14035 0.10018 0.57654 0.0
H119 H 0.02197 0.94668 0.46567 0.0
H120 H 0.88347 0.08394 0.49623 0.0
H121 H 0.00029 0.08393 0.48096 0.0
H122 H 0.98678 0.95783 0.58314 0.0
H123 H 0.86716 0.95376 0.59691 0.0
C124 C 0.20787 0.06898 0.54144 0.0
C125 C 0.2084 0.02496 0.50693 0.0
C126 C 0.14 0.06657 0.54952 0.0
C127 C 0.07257 0.02234 0.52237 0.0
C128 C 0.07357 0.98068 0.48705 0.0
C129 C 0.14107 0.98181 0.47945 0.0
C130 C 0.90402 0.0539 0.51444 0.0
C131 C 0.86478 0.01584 0.54659 0.0
C132 C 0.97109 0.05485 0.50609 0.0
C133 C 0.00128 0.02021 0.53073 0.0
C134 C 0.96376 0.98439 0.56369 0.0
C135 C 0.89577 0.98202 0.57148 0.0
H136 H 0.87109 0.80185 0.85351 0.0
H137 H 0.79278 0.94706 0.90644 0.0
H138 H 0.98819 0.91628 0.8385 0.0
H139 H 0.90898 0.06154 0.89101 0.0
H140 H 0.07944 0.22661 0.80638 0.0
H141 H 0.96385 0.11141 0.82175 0.0
H142 H 0.10659 0.03803 0.88396 0.0
H143 H 0.22208 0.15415 0.86896 0.0
C144 C 0.87905 0.85839 0.86158 0.0
C145 C 0.82334 0.86637 0.88068 0.0
C146 C 0.94584 0.92353 0.85332 0.0
C147 C 0.95708 0.99735 0.86352 0.0
C148 C 0.90118 0.00511 0.88262 0.0
C149 C 0.83521 0.94009 0.89154 0.0
C150 C 0.0856 0.18567 0.82337 0.0
C151 C 0.15888 0.19892 0.83695 0.0
C152 C 0.01995 0.12028 0.83226 0.0
C153 C 0.0267 0.0663 0.85408 0.0
C154 C 0.10012 0.07888 0.86701 0.0
C155 C 0.16584 0.14513 0.85876 0.0
H156 H 0.27058 0.54114 0.90017 0.0
H157 H 0.47048 0.65433 0.99052 0.0
H158 H 0.19215 0.55015 0.9501 0.0
H159 H 0.39074 0.66116 0.04144 0.0
H160 H 0.21584 0.67601 0.12073 0.0
H161 H 0.29973 0.70568 0.06593 0.0
H162 H 0.15301 0.4733 1.00684 0.0
H163 H 0.0709 0.44452 0.06046 0.0
C164 C 0.29797 0.56901 0.93067 0.0
C165 C 0.37629 0.59582 0.94169 0.0
C166 C 0.25301 0.57412 0.9593 0.0
C167 C 0.28483 0.60486 0.99996 0.0
C168 C 0.36458 0.63731 1.01033 0.0
C169 C 0.41015 0.63314 0.98128 0.0
C170 C 0.20119 0.6322 0.09547 0.0
C171 C 0.13704 0.55798 0.09482 0.0
C172 C 0.24934 0.64887 0.06438 0.0
C173 C 0.23281 0.59196 0.03192 0.0
C174 C 0.16693 0.51895 0.0309 0.0
C175 C 0.11999 0.50223 0.06187 0.0
H176 H 0.75993 0.17231 0.46118 0.0
H177 H 0.56496 0.19498 0.42099 0.0
H178 H 0.83008 0.24906 0.40919 0.0
H179 H 0.6366 0.27287 0.36842 0.0
H180 H 0.84164 0.46803 0.30392 0.0
H181 H 0.76754 0.40474 0.35959 0.0
H182 H 0.80052 0.21247 0.33143 0.0
H183 H 0.87308 0.27411 0.27649 0.0
C184 C 0.73212 0.19426 0.44153 0.0
C185 C 0.65632 0.17664 0.445 0.0
C186 C 0.7725 0.23825 0.41169 0.0
C187 C 0.73848 0.26621 0.38459 0.0
C188 C 0.66412 0.25208 0.38908 0.0
C189 C 0.62313 0.20727 0.41898 0.0
C190 C 0.83273 0.41218 0.30966 0.0
C191 C 0.86359 0.37635 0.28587 0.0
C192 C 0.79014 0.37595 0.3413 0.0
C193 C 0.77901 0.30411 0.34993 0.0
C194 C 0.80903 0.26826 0.32578 0.0
C195 C 0.85044 0.30366 0.29414 0.0
H196 H 0.50227 0.75292 0.79971 0.0
H197 H 0.35367 0.53272 0.72785 0.0
H198 H 0.47968 0.81767 0.74559 0.0
H199 H 0.33164 0.59817 0.67318 0.0
H200 H 0.44966 0.77025 0.57353 0.0
H201 H 0.42527 0.68623 0.62704 0.0
H202 H 0.37894 0.83507 0.70457 0.0
H203 H 0.40234 0.91878 0.65021 0.0
C204 C 0.46399 0.71822 0.77251 0.0
C205 C 0.43033 0.63768 0.76791 0.0
C206 C 0.45041 0.75536 0.74166 0.0
C207 C 0.40369 0.71306 0.70516 0.0
C208 C 0.36793 0.63225 0.701 0.0
C209 C 0.38053 0.59483 0.73226 0.0
C210 C 0.43125 0.78319 0.60144 0.0
C211 C 0.4272 0.85035 0.60781 0.0
C212 C 0.41726 0.73513 0.63208 0.0
C213 C 0.40067 0.75427 0.67012 0.0
C214 C 0.3919 0.81909 0.67557 0.0
C215 C 0.40452 0.86654 0.64446 0.0
H216 H 0.47872 0.40672 0.98769 0.0
H217 H 0.66586 0.4624 0.91612 0.0
H218 H 0.54648 0.37916 0.04291 0.0
H219 H 0.73209 0.4329 0.97022 0.0
H220 H 0.81661 0.3366 0.06729 0.0
H221 H 0.72019 0.32317 1.01295 0.0
H222 H 0.67908 0.47985 0.087 0.0
H223 H 0.77617 0.49461 0.14078 0.0
C224 C 0.53303 0.41058 0.98334 0.0
C225 C 0.56736 0.43656 0.94789 0.0
C226 C 0.57186 0.39523 1.01485 0.0
C227 C 0.64442 0.40375 1.01073 0.0
C228 C 0.67595 0.42495 0.97406 0.0
C229 C 0.63825 0.4421 0.9432 0.0
C230 C 0.78577 0.36682 0.07226 0.0
C231 C 0.80434 0.41714 0.10811 0.0
C232 C 0.73076 0.35922 0.04118 0.0
C233 C 0.69213 0.40037 0.04585 0.0
C234 C 0.70729 0.4468 0.08276 0.0
C235 C 0.76331 0.45566 0.1134 0.0
H236 H 0.27318 0.63014 0.23072 0.0
H237 H 0.14846 0.49134 0.32226 0.0
H238 H 0.38008 0.71559 0.28287 0.0
H239 H 0.25505 0.57764 0.37496 0.0
H240 H 0.47022 0.75499 0.4618 0.0
H241 H 0.39933 0.64926 0.40565 0.0
H242 H 0.36654 0.80371 0.33399 0.0
H243 H 0.43507 0.90711 0.38967 0.0
C244 C 0.27037 0.61604 0.26182 0.0
C245 C 0.20331 0.55401 0.27257 0.0
C246 C 0.33115 0.66526 0.29173 0.0
C247 C 0.32551 0.65402 0.33311 0.0
C248 C 0.26139 0.58748 0.34333 0.0
C249 C 0.20046 0.53792 0.31322 0.0
C250 C 0.44936 0.76623 0.43354 0.0
C251 C 0.45801 0.83892 0.42984 0.0
C252 C 0.40852 0.70587 0.40161 0.0
C253 C 0.37774 0.71825 0.36529 0.0
C254 C 0.39048 0.79238 0.36118 0.0
C255 C 0.42943 0.85163 0.39315 0.0
H256 H 0.55564 0.34844 0.80926 0.0
H257 H 0.63593 0.54068 0.73887 0.0
H258 H 0.58419 0.27781 0.75753 0.0
H259 H 0.66327 0.46889 0.6861 0.0
H260 H 0.5408 0.24769 0.58531 0.0
H261 H 0.56188 0.34614 0.63958 0.0
H262 H 0.68713 0.27317 0.71782 0.0
H263 H 0.667 0.17461 0.6628 0.0
C264 C 0.58135 0.37624 0.78307 0.0
C265 C 0.59348 0.44973 0.77785 0.0
C266 C 0.59807 0.33598 0.75356 0.0
C267 C 0.62572 0.36767 0.71771 0.0
C268 C 0.64192 0.44313 0.71348 0.0
C269 C 0.62671 0.4843 0.74363 0.0
C270 C 0.57407 0.25346 0.61383 0.0
C271 C 0.6016 0.20292 0.61999 0.0
C272 C 0.58681 0.31045 0.64478 0.0
C273 C 0.62625 0.31749 0.68292 0.0
C274 C 0.65659 0.26902 0.68865 0.0
C275 C 0.64513 0.21274 0.65724 0.0
loop_
_geom_bond_atom_site_label_1
_geom_bond_atom_site_label_2
_geom_bond_distance
_geom_bond_site_symmetry_2
_ccdc_geom_bond_type
Zn0 O1 2.055 . S
Zn0 O8 2.046 . S
Zn0 N16 2.036 . S
Zn0 O28 2.053 1_455 S
Zn0 O30 2.066 1_455 S
O1 Zn0 2.055 . S
O1 C4 1.259 . S
C2 O30 1.256 . S
C2 O31 1.244 . S
Zn3 O5 2.046 . S
Zn3 O7 2.055 . S
Zn3 N9 2.036 . S
Zn3 O27 2.066 1_455 S
Zn3 O31 2.053 1_455 S
C4 O1 1.259 . S
C4 O5 1.254 . S
O5 Zn3 2.046 . S
O5 C4 1.254 . S
C6 O27 1.256 . S
C6 O28 1.244 . S
O7 Zn3 2.055 . S
O7 C29 1.259 . S
O8 Zn0 2.046 . S
O8 C29 1.254 . S
N9 Zn3 2.036 . S
N9 C10 1.298 . S
N9 N12 1.398 1_455 S
C10 N9 1.298 . S
C10 N13 1.367 1_455 S
C10 C23 1.481 . S
C11 N12 1.299 . S
C11 N13 1.379 . S
N12 N9 1.398 1_655 S
N12 C11 1.299 . S
N13 C10 1.367 1_655 S
N13 C11 1.379 . S
C14 N16 1.298 . S
C14 N18 1.367 1_455 S
C14 C22 1.481 . S
C15 N17 1.299 . S
C15 N18 1.379 . S
N16 Zn0 2.036 . S
N16 C14 1.298 . S
N16 N17 1.398 1_455 S
N17 C15 1.299 . S
N17 N16 1.398 1_655 S
N18 C14 1.367 1_655 S
N18 C15 1.379 . S
H19 C22 0.980 . S
H20 C22 0.981 . S
H21 C22 0.981 1_655 S
C22 C14 1.481 . S
C22 H19 0.980 . S
C22 H20 0.981 . S
C22 H21 0.981 1_455 S
C23 C10 1.481 . S
C23 H24 0.980 . S
C23 H25 0.981 . S
C23 H26 0.981 . S
H24 C23 0.980 . S
H25 C23 0.981 . S
H26 C23 0.981 . S
O27 Zn3 2.066 1_655 S
O27 C6 1.256 . S
O28 Zn0 2.053 1_655 S
O28 C6 1.244 . S
C29 O7 1.259 . S
C29 O8 1.254 . S
O30 Zn0 2.066 1_655 S
O30 C2 1.256 . S
O31 C2 1.244 . S
O31 Zn3 2.053 1_655 S
Zn32 O33 2.055 1_545 S
Zn32 O40 2.046 1_545 S
Zn32 N48 2.036 . S
Zn32 O60 2.053 . S
Zn32 O62 2.066 . S
O33 Zn32 2.055 1_565 S
O33 C36 1.259 . S
C34 O62 1.256 . S
C34 O63 1.244 . S
Zn35 O37 2.042 1_545 S
Zn35 O39 2.052 1_545 S
Zn35 N41 2.039 . S
Zn35 O59 2.069 . S
Zn35 O63 2.055 . S
C36 O33 1.259 . S
C36 O37 1.254 . S
O37 Zn35 2.042 1_565 S
O37 C36 1.254 . S
C38 O59 1.256 . S
C38 O60 1.244 . S
O39 Zn35 2.052 1_565 S
O39 C61 1.259 . S
O40 Zn32 2.046 1_565 S
O40 C61 1.254 . S
N41 Zn35 2.039 . S
N41 C42 1.298 . S
N41 N44 1.398 . S
C42 N41 1.298 . S
C42 N45 1.367 . S
C42 C55 1.481 1_545 S
C43 N44 1.299 . S
C43 N45 1.379 . S
N44 N41 1.398 . S
N44 C43 1.299 . S
N45 C42 1.367 . S
N45 C43 1.379 . S
C46 N48 1.298 . S
C46 N50 1.367 . S
C46 C54 1.481 1_545 S
C47 N49 1.299 . S
C47 N50 1.379 . S
N48 Zn32 2.036 . S
N48 C46 1.298 . S
N48 N49 1.398 . S
N49 C47 1.299 . S
N49 N48 1.398 . S
N50 C46 1.367 . S
N50 C47 1.379 . S
H51 C54 0.980 . S
H52 C54 0.981 . S
H53 C54 0.981 1_545 S
C54 C46 1.481 1_565 S
C54 H51 0.980 . S
C54 H52 0.981 . S
C54 H53 0.981 1_565 S
C55 C42 1.481 1_565 S
C55 H56 0.980 . S
C55 H57 0.981 . S
C55 H58 0.981 1_565 S
H56 C55 0.980 . S
H57 C55 0.981 . S
H58 C55 0.981 1_545 S
O59 Zn35 2.069 . S
O59 C38 1.256 . S
O60 Zn32 2.053 . S
O60 C38 1.244 . S
C61 O39 1.259 . S
C61 O40 1.254 . S
O62 Zn32 2.066 . S
O62 C34 1.256 . S
O63 C34 1.244 . S
O63 Zn35 2.055 . S
Zn64 O65 2.055 . S
Zn64 O72 2.046 . S
Zn64 N80 2.036 . S
Zn64 O92 2.053 . S
Zn64 O94 2.066 . S
O65 Zn64 2.055 . S
O65 C68 1.259 . S
C66 O94 1.256 . S
C66 O95 1.244 . S
Zn67 O69 2.046 . S
Zn67 O71 2.055 . S
Zn67 N73 2.036 . S
Zn67 O91 2.066 . S
Zn67 O95 2.053 . S
C68 O65 1.259 . S
C68 O69 1.254 . S
O69 Zn67 2.046 . S
O69 C68 1.254 . S
C70 O91 1.256 . S
C70 O92 1.244 . S
O71 Zn67 2.055 . S
O71 C93 1.259 . S
O72 Zn64 2.046 . S
O72 C93 1.254 . S
N73 Zn67 2.036 . S
N73 C74 1.298 . S
N73 N76 1.398 . S
C74 N73 1.298 . S
C74 N77 1.367 . S
C74 C87 1.481 . S
C75 N76 1.299 . S
C75 N77 1.379 . S
N76 N73 1.398 . S
N76 C75 1.299 . S
N77 C74 1.367 . S
N77 C75 1.379 . S
C78 N80 1.298 . S
C78 N82 1.367 . S
C78 C86 1.481 . S
C79 N81 1.299 . S
C79 N82 1.379 . S
N80 Zn64 2.036 . S
N80 C78 1.298 . S
N80 N81 1.398 . S
N81 C79 1.299 . S
N81 N80 1.398 . S
N82 C78 1.367 . S
N82 C79 1.379 . S
H83 C86 0.980 . S
H84 C86 0.981 . S
H85 C86 0.981 . S
C86 C78 1.481 . S
C86 H83 0.980 . S
C86 H84 0.981 . S
C86 H85 0.981 . S
C87 C74 1.481 . S
C87 H88 0.980 . S
C87 H89 0.981 . S
C87 H90 0.981 . S
H88 C87 0.980 . S
H89 C87 0.981 . S
H90 C87 0.981 . S
O91 Zn67 2.066 . S
O91 C70 1.256 . S
O92 Zn64 2.053 . S
O92 C70 1.244 . S
C93 O71 1.259 . S
C93 O72 1.254 . S
O94 Zn64 2.066 . S
O94 C66 1.256 . S
O95 C66 1.244 . S
O95 Zn67 2.053 . S
H96 C104 0.950 . S
H97 C109 0.950 . S
H98 C106 0.950 . S
H99 C108 0.950 . S
H100 C110 0.950 . S
H101 C112 0.950 . S
H102 C114 0.950 1_565 S
H103 C115 0.950 . S
C104 H96 0.950 . S
C104 C105 1.386 . S
C104 C106 1.391 . S
C105 C104 1.386 . S
C105 C109 1.393 1_655 S
C106 H98 0.950 . S
C106 C104 1.391 . S
C106 C107 1.400 . S
C107 C106 1.400 . S
C107 C108 1.398 1_655 S
C107 C113 1.491 1_565 S
C108 H99 0.950 . S
C108 C107 1.398 1_455 S
C108 C109 1.391 . S
C109 H97 0.950 . S
C109 C105 1.393 1_455 S
C109 C108 1.391 . S
C110 H100 0.950 . S
C110 C111 1.386 1_455 S
C110 C112 1.391 . S
C111 C110 1.386 1_655 S
C111 C115 1.393 . S
C112 H101 0.950 . S
C112 C110 1.391 . S
C112 C113 1.400 1_455 S
C113 C107 1.491 1_545 S
C113 C112 1.400 1_655 S
C113 C114 1.398 . S
C114 H102 0.950 1_545 S
C114 C113 1.398 . S
C114 C115 1.391 . S
C115 H103 0.950 . S
C115 C111 1.393 . S
C115 C114 1.391 . S
H116 C124 0.950 . S
H117 C129 0.950 . S
H118 C126 0.950 . S
H119 C128 0.950 . S
H120 C130 0.950 . S
H121 C132 0.950 . S
H122 C134 0.950 1_455 S
H123 C135 0.950 . S
C124 H116 0.950 . S
C124 C125 1.386 . S
C124 C126 1.391 . S
C125 C124 1.386 . S
C125 C129 1.393 . S
C126 H118 0.950 . S
C126 C124 1.391 . S
C126 C127 1.400 . S
C127 C126 1.400 . S
C127 C128 1.398 . S
C127 C133 1.491 . S
C128 H119 0.950 . S
C128 C127 1.398 . S
C128 C129 1.391 . S
C129 H117 0.950 . S
C129 C125 1.393 . S
C129 C128 1.391 . S
C130 H120 0.950 . S
C130 C131 1.386 . S
C130 C132 1.391 . S
C131 C130 1.386 . S
C131 C135 1.393 . S
C132 H121 0.950 . S
C132 C130 1.391 . S
C132 C133 1.400 1_655 S
C133 C127 1.491 . S
C133 C132 1.400 1_455 S
C133 C134 1.398 1_455 S
C134 H122 0.950 1_655 S
C134 C133 1.398 1_655 S
C134 C135 1.391 . S
C135 H123 0.950 . S
C135 C131 1.393 . S
C135 C134 1.391 . S
H136 C144 0.950 . S
H137 C149 0.950 . S
H138 C146 0.950 . S
H139 C148 0.950 . S
H140 C150 0.950 . S
H141 C152 0.950 1_655 S
H142 C154 0.950 . S
H143 C155 0.950 . S
C144 H136 0.950 . S
C144 C145 1.386 . S
C144 C146 1.391 . S
C145 C144 1.386 . S
C145 C149 1.393 . S
C146 H138 0.950 . S
C146 C144 1.391 . S
C146 C147 1.400 1_565 S
C147 C146 1.400 1_545 S
C147 C148 1.398 . S
C147 C153 1.491 1_655 S
C148 H139 0.950 . S
C148 C147 1.398 . S
C148 C149 1.391 1_545 S
C149 H137 0.950 . S
C149 C145 1.393 . S
C149 C148 1.391 1_565 S
C150 H140 0.950 . S
C150 C151 1.386 . S
C150 C152 1.391 . S
C151 C150 1.386 . S
C151 C155 1.393 . S
C152 H141 0.950 1_455 S
C152 C150 1.391 . S
C152 C153 1.400 . S
C153 C147 1.491 1_455 S
C153 C152 1.400 . S
C153 C154 1.398 . S
C154 H142 0.950 . S
C154 C153 1.398 . S
C154 C155 1.391 . S
C155 H143 0.950 . S
C155 C151 1.393 . S
C155 C154 1.391 . S
H156 C164 0.950 . S
H157 C169 0.950 . S
H158 C166 0.950 . S
H159 C168 0.950 1_554 S
H160 C170 0.950 . S
H161 C172 0.950 . S
H162 C174 0.950 1_556 S
H163 C175 0.950 . S
C164 H156 0.950 . S
C164 C165 1.386 . S
C164 C166 1.391 . S
C165 C164 1.386 . S
C165 C169 1.393 . S
C166 H158 0.950 . S
C166 C164 1.391 . S
C166 C167 1.400 . S
C167 C166 1.400 . S
C167 C168 1.398 . S
C167 C173 1.491 1_556 S
C168 H159 0.950 1_556 S
C168 C167 1.398 . S
C168 C169 1.391 . S
C169 H157 0.950 . S
C169 C165 1.393 . S
C169 C168 1.391 . S
C170 H160 0.950 . S
C170 C171 1.386 . S
C170 C172 1.391 . S
C171 C170 1.386 . S
C171 C175 1.393 . S
C172 H161 0.950 . S
C172 C170 1.391 . S
C172 C173 1.400 . S
C173 C167 1.491 1_554 S
C173 C172 1.400 . S
C173 C174 1.398 . S
C174 H162 0.950 1_554 S
C174 C173 1.398 . S
C174 C175 1.391 . S
C175 H163 0.950 . S
C175 C171 1.393 . S
C175 C174 1.391 . S
H176 C184 0.950 . S
H177 C189 0.950 . S
H178 C186 0.950 . S
H179 C188 0.950 . S
H180 C190 0.950 . S
H181 C192 0.950 . S
H182 C194 0.950 . S
H183 C195 0.950 . S
C184 H176 0.950 . S
C184 C185 1.386 . S
C184 C186 1.391 . S
C185 C184 1.386 . S
C185 C189 1.393 . S
C186 H178 0.950 . S
C186 C184 1.391 . S
C186 C187 1.400 . S
C187 C186 1.400 . S
C187 C188 1.398 . S
C187 C193 1.491 . S
C188 H179 0.950 . S
C188 C187 1.398 . S
C188 C189 1.391 . S
C189 H177 0.950 . S
C189 C185 1.393 . S
C189 C188 1.391 . S
C190 H180 0.950 . S
C190 C191 1.386 . S
C190 C192 1.391 . S
C191 C190 1.386 . S
C191 C195 1.393 . S
C192 H181 0.950 . S
C192 C190 1.391 . S
C192 C193 1.400 . S
C193 C187 1.491 . S
C193 C192 1.400 . S
C193 C194 1.398 . S
C194 H182 0.950 . S
C194 C193 1.398 . S
C194 C195 1.391 . S
C195 H183 0.950 . S
C195 C191 1.393 . S
C195 C194 1.391 . S
H196 C204 0.950 . S
H197 C209 0.950 . S
H198 C206 0.950 . S
H199 C208 0.950 . S
H200 C210 0.950 . S
H201 C212 0.950 . S
H202 C214 0.950 . S
H203 C215 0.950 . S
C204 H196 0.950 . S
C204 C205 1.386 . S
C204 C206 1.391 . S
C205 C204 1.386 . S
C205 C209 1.393 . S
C206 H198 0.950 . S
C206 C204 1.391 . S
C206 C207 1.400 . S
C207 C206 1.400 . S
C207 C208 1.398 . S
C207 C213 1.491 . S
C208 H199 0.950 . S
C208 C207 1.398 . S
C208 C209 1.391 . S
C209 H197 0.950 . S
C209 C205 1.393 . S
C209 C208 1.391 . S
C210 H200 0.950 . S
C210 C211 1.386 . S
C210 C212 1.391 . S
C211 C210 1.386 . S
C211 C215 1.393 . S
C212 H201 0.950 . S
C212 C210 1.391 . S
C212 C213 1.400 . S
C213 C207 1.491 . S
C213 C212 1.400 . S
C213 C214 1.398 . S
C214 H202 0.950 . S
C214 C213 1.398 . S
C214 C215 1.391 . S
C215 H203 0.950 . S
C215 C211 1.393 . S
C215 C214 1.391 . S
H216 C224 0.950 . S
H217 C229 0.950 . S
H218 C226 0.950 1_554 S
H219 C228 0.950 . S
H220 C230 0.950 . S
H221 C232 0.950 1_556 S
H222 C234 0.950 . S
H223 C235 0.950 . S
C224 H216 0.950 . S
C224 C225 1.386 . S
C224 C226 1.391 . S
C225 C224 1.386 . S
C225 C229 1.393 . S
C226 H218 0.950 1_556 S
C226 C224 1.391 . S
C226 C227 1.400 . S
C227 C226 1.400 . S
C227 C228 1.398 . S
C227 C233 1.491 1_556 S
C228 H219 0.950 . S
C228 C227 1.398 . S
C228 C229 1.391 . S
C229 H217 0.950 . S
C229 C225 1.393 . S
C229 C228 1.391 . S
C230 H220 0.950 . S
C230 C231 1.386 . S
C230 C232 1.391 . S
C231 C230 1.386 . S
C231 C235 1.393 . S
C232 H221 0.950 1_554 S
C232 C230 1.391 . S
C232 C233 1.400 . S
C233 C227 1.491 1_554 S
C233 C232 1.400 . S
C233 C234 1.398 . S
C234 H222 0.950 . S
C234 C233 1.398 . S
C234 C235 1.391 . S
C235 H223 0.950 . S
C235 C231 1.393 . S
C235 C234 1.391 . S
H236 C244 0.950 . S
H237 C249 0.950 . S
H238 C246 0.950 . S
H239 C248 0.950 . S
H240 C250 0.950 . S
H241 C252 0.950 . S
H242 C254 0.950 . S
H243 C255 0.950 . S
C244 H236 0.950 . S
C244 C245 1.386 . S
C244 C246 1.391 . S
C245 C244 1.386 . S
C245 C249 1.393 . S
C246 H238 0.950 . S
C246 C244 1.391 . S
C246 C247 1.400 . S
C247 C246 1.400 . S
C247 C248 1.398 . S
C247 C253 1.491 . S
C248 H239 0.950 . S
C248 C247 1.398 . S
C248 C249 1.391 . S
C249 H237 0.950 . S
C249 C245 1.393 . S
C249 C248 1.391 . S
C250 H240 0.950 . S
C250 C251 1.386 . S
C250 C252 1.391 . S
C251 C250 1.386 . S
C251 C255 1.393 . S
C252 H241 0.950 . S
C252 C250 1.391 . S
C252 C253 1.400 . S
C253 C247 1.491 . S
C253 C252 1.400 . S
C253 C254 1.398 . S
C254 H242 0.950 . S
C254 C253 1.398 . S
C254 C255 1.391 . S
C255 H243 0.950 . S
C255 C251 1.393 . S
C255 C254 1.391 . S
H256 C264 0.950 . S
H257 C269 0.950 . S
H258 C266 0.950 . S
H259 C268 0.950 . S
H260 C270 0.950 . S
H261 C272 0.950 . S
H262 C274 0.950 . S
H263 C275 0.950 . S
C264 H256 0.950 . S
C264 C265 1.386 . S
C264 C266 1.391 . S
C265 C264 1.386 . S
C265 C269 1.393 . S
C266 H258 0.950 . S
C266 C264 1.391 . S
C266 C267 1.400 . S
C267 C266 1.400 . S
C267 C268 1.398 . S
C267 C273 1.491 . S
C268 H259 0.950 . S
C268 C267 1.398 . S
C268 C269 1.391 . S
C269 H257 0.950 . S
C269 C265 1.393 . S
C269 C268 1.391 . S
C270 H260 0.950 . S
C270 C271 1.386 . S
C270 C272 1.391 . S
C271 C270 1.386 . S
C271 C275 1.393 . S
C272 H261 0.950 . S
C272 C270 1.391 . S
C272 C273 1.400 . S
C273 C267 1.491 . S
C273 C272 1.400 . S
C273 C274 1.398 . S
C274 H262 0.950 . S
C274 C273 1.398 . S
C274 C275 1.391 . S
C275 H263 0.950 . S
C275 C271 1.393 . S
C275 C274 1.391 . S
C105 N18 0.841 . S
C111 N13 0.838 . S
C125 N45 0.859 . S
C131 N50 0.850 . S
C145 N82 0.871 . S
C151 N77 0.868 . S
C165 C70 1.645 . S
C171 C4 1.658 . S
C185 C34 2.001 . S
C191 C6 1.995 . S
C205 C66 1.639 . S
C211 C61 1.657 . S
C225 C93 1.677 . S
C231 C2 1.665 . S
C245 C29 1.339 . S
C251 C36 1.352 . S
C265 C68 1.668 . S
C271 C38 1.681 . S
