# Generated by pormake.
# Topology snx, (6)-cn, num edge types: 1
# Building blocks:
#     Node 0, Type 0, BuildingBlock: MIDCAF_clean_sbu_0, # of connection points: 6
#     Node 1, Type 0, BuildingBlock: MIDCAF_clean_sbu_0, # of connection points: 6
#     Node 2, Type 0, BuildingBlock: MIDCAF_clean_sbu_0, # of connection points: 6
#     Node 3, Type 0, BuildingBlock: MIDCAF_clean_sbu_0, # of connection points: 6
#     Node 4, Type 0, BuildingBlock: MIDCAF_clean_sbu_0, # of connection points: 6
#     Node 5, Type 0, BuildingBlock: MIDCAF_clean_sbu_0, # of connection points: 6
#     Edge 6, Type (0, 0), BuildingBlock: XUDNAN_clean_linker_2, # of connection points: 2
#     Edge 7, Type (0, 0), BuildingBlock: XUDNAN_clean_linker_2, # of connection points: 2
#     Edge 8, Type (0, 0), BuildingBlock: XUDNAN_clean_linker_2, # of connection points: 2
#     Edge 9, Type (0, 0), BuildingBlock: XUDNAN_clean_linker_2, # of connection points: 2
#     Edge 10, Type (0, 0), BuildingBlock: XUDNAN_clean_linker_2, # of connection points: 2
#     Edge 11, Type (0, 0), BuildingBlock: XUDNAN_clean_linker_2, # of connection points: 2
#     Edge 12, Type (0, 0), BuildingBlock: XUDNAN_clean_linker_2, # of connection points: 2
#     Edge 13, Type (0, 0), BuildingBlock: XUDNAN_clean_linker_2, # of connection points: 2
#     Edge 14, Type (0, 0), BuildingBlock: XUDNAN_clean_linker_2, # of connection points: 2
#     Edge 15, Type (0, 0), BuildingBlock: XUDNAN_clean_linker_2, # of connection points: 2
#     Edge 16, Type (0, 0), BuildingBlock: XUDNAN_clean_linker_2, # of connection points: 2
#     Edge 17, Type (0, 0), BuildingBlock: XUDNAN_clean_linker_2, # of connection points: 2
#     Edge 18, Type (0, 0), BuildingBlock: XUDNAN_clean_linker_2, # of connection points: 2
#     Edge 19, Type (0, 0), BuildingBlock: XUDNAN_clean_linker_2, # of connection points: 2
#     Edge 20, Type (0, 0), BuildingBlock: XUDNAN_clean_linker_2, # of connection points: 2
#     Edge 21, Type (0, 0), BuildingBlock: XUDNAN_clean_linker_2, # of connection points: 2
#     Edge 22, Type (0, 0), BuildingBlock: XUDNAN_clean_linker_2, # of connection points: 2
#     Edge 23, Type (0, 0), BuildingBlock: XUDNAN_clean_linker_2, # of connection points: 2
# Relax obj value: 0.219
# Max RMSD: 0.238
# Mean RMSD: 0.238
data_MOF--net-snx--node1-MIDCAF_clean_sbu_0--edge1-XUDNAN_clean_linker_2
_symmetry_space_group_name_H-M    P1
_symmetry_Int_Tables_number       1
_symmetry_cell_setting            triclinic
loop_
_symmetry_equiv_pos_as_xyz
'x, y, z'
_cell_length_a     33.713337
_cell_length_b     33.806377
_cell_length_c     21.928363
_cell_angle_alpha  90.075878
_cell_angle_beta   90.063198
_cell_angle_gamma 119.88753
loop_
_atom_site_label
_atom_site_type_symbol
_atom_site_fract_x
_atom_site_fract_y
_atom_site_fract_z
_atom_type_partial_charge
Zn0 Zn 0.0958 0.35763 0.21345 0.0
Zn1 Zn 0.24392 0.36164 0.28802 0.0
Zn2 Zn 0.16946 0.35382 0.24723 0.0
C3 C 0.22411 0.31497 0.17574 0.0
C4 C 0.17868 0.30128 0.36522 0.0
O5 O 0.18292 0.42536 0.24978 0.0
O6 O 0.12003 0.42438 0.21813 0.0
C7 C 0.12008 0.31933 0.11718 0.0
O8 O 0.19123 0.32394 0.17492 0.0
O9 O 0.25198 0.32797 0.21977 0.0
O10 O 0.22154 0.32564 0.36197 0.0
O11 O 0.15286 0.30657 0.32659 0.0
O12 O 0.09123 0.33077 0.13289 0.0
O13 O 0.15295 0.32564 0.15316 0.0
O14 O 0.11397 0.30991 0.30983 0.0
O15 O 0.05462 0.31515 0.27654 0.0
C16 C 0.07148 0.29856 0.31297 0.0
O17 O 0.22275 0.42644 0.2671 0.0
O18 O 0.28546 0.42703 0.29841 0.0
C19 C 0.1609 0.44634 0.23649 0.0
C20 C 0.26461 0.44821 0.28586 0.0
Zn21 Zn 0.7371 0.111 0.79778 0.0
Zn22 Zn 0.9235 0.27874 0.67347 0.0
Zn23 Zn 0.81705 0.16804 0.75308 0.0
C24 C 0.86919 0.1776 0.65418 0.0
C25 C 0.91356 0.21701 0.79741 0.0
O26 O 0.77414 0.19907 0.74522 0.0
O27 O 0.70737 0.14861 0.78383 0.0
C28 C 0.75648 0.06814 0.69835 0.0
O29 O 0.83346 0.14216 0.67225 0.0
O30 O 0.88114 0.21294 0.68541 0.0
O31 O 0.91582 0.23961 0.75008 0.0
O32 O 0.87407 0.18513 0.81424 0.0
O33 O 0.72645 0.06033 0.73846 0.0
O34 O 0.79251 0.10774 0.69498 0.0
O35 O 0.83312 0.15253 0.8435 0.0
O36 O 0.76296 0.1112 0.87976 0.0
C37 C 0.80578 0.12969 0.88695 0.0
O38 O 0.82223 0.23728 0.73286 0.0
O39 O 0.8778 0.30021 0.68497 0.0
C40 C 0.73247 0.18664 0.75859 0.0
C41 C 0.83925 0.27884 0.71241 0.0
Zn42 Zn 0.61979 0.87432 0.26911 0.0
Zn43 Zn 0.62728 0.73923 0.20023 0.0
Zn44 Zn 0.63634 0.81313 0.2424 0.0
C45 C 0.68902 0.77233 0.3036 0.0
C46 C 0.67706 0.80007 0.11487 0.0
O47 O 0.56238 0.79388 0.23964 0.0
O48 O 0.55822 0.85693 0.23634 0.0
C49 C 0.65375 0.85511 0.37362 0.0
O50 O 0.67304 0.79937 0.31142 0.0
O51 O 0.67673 0.74581 0.25798 0.0
O52 O 0.6467 0.75847 0.11552 0.0
O53 O 0.67934 0.8262 0.15922 0.0
O54 O 0.62671 0.86921 0.3588 0.0
O55 O 0.66587 0.83532 0.33369 0.0
O56 O 0.67939 0.86801 0.17855 0.0
O57 O 0.67355 0.92231 0.22623 0.0
C58 C 0.69231 0.91052 0.1859 0.0
O59 O 0.56467 0.7544 0.24114 0.0
O60 O 0.56351 0.69052 0.21547 0.0
C61 C 0.53867 0.81407 0.23361 0.0
C62 C 0.54276 0.71072 0.23331 0.0
Zn63 Zn 0.91741 0.64314 0.73985 0.0
Zn64 Zn 0.7643 0.64509 0.7662 0.0
Zn65 Zn 0.84285 0.65028 0.74966 0.0
C66 C 0.79944 0.68699 0.65228 0.0
C67 C 0.82041 0.70544 0.85288 0.0
O68 O 0.82703 0.57867 0.76301 0.0
O69 O 0.89233 0.57798 0.7606 0.0
C70 C 0.90359 0.67354 0.6279 0.0
O71 O 0.8311 0.67767 0.66551 0.0
O72 O 0.76689 0.67694 0.68889 0.0
O73 O 0.77859 0.68244 0.8394 0.0
O74 O 0.85019 0.69894 0.8244 0.0
O75 O 0.92869 0.6604 0.65297 0.0
O76 O 0.87044 0.67345 0.65716 0.0
O77 O 0.89156 0.69668 0.81984 0.0
O78 O 0.95298 0.69105 0.8004 0.0
C79 C 0.93386 0.70897 0.83007 0.0
O80 O 0.78578 0.57812 0.7607 0.0
O81 O 0.72128 0.57924 0.77304 0.0
C82 C 0.84948 0.5571 0.7671 0.0
C83 C 0.74197 0.55699 0.76802 0.0
Zn84 Zn 0.26458 0.88986 0.31273 0.0
Zn85 Zn 0.09057 0.73665 0.15081 0.0
Zn86 Zn 0.19261 0.83883 0.24875 0.0
C87 C 0.15006 0.83899 0.14371 0.0
C88 C 0.09298 0.78923 0.27955 0.0
O89 O 0.23195 0.80371 0.25256 0.0
O90 O 0.29029 0.84838 0.31226 0.0
C91 C 0.26574 0.93801 0.20443 0.0
O92 O 0.18462 0.87199 0.16876 0.0
O93 O 0.13746 0.80041 0.16593 0.0
O94 O 0.09219 0.76923 0.23037 0.0
O95 O 0.13154 0.8208 0.29976 0.0
O96 O 0.28825 0.942 0.25255 0.0
O97 O 0.2281 0.90083 0.1939 0.0
O98 O 0.16845 0.85388 0.33425 0.0
O99 O 0.2325 0.89342 0.38662 0.0
C100 C 0.18965 0.87599 0.38248 0.0
O101 O 0.18552 0.76877 0.22696 0.0
O102 O 0.13147 0.71062 0.16947 0.0
C103 C 0.26917 0.81279 0.2802 0.0
C104 C 0.16753 0.72811 0.20274 0.0
Zn105 Zn 0.37145 0.25992 0.70949 0.0
Zn106 Zn 0.38134 0.11615 0.72736 0.0
Zn107 Zn 0.36937 0.18508 0.72656 0.0
C108 C 0.30283 0.09167 0.65846 0.0
C109 C 0.36109 0.12942 0.84657 0.0
O110 O 0.44073 0.24247 0.71084 0.0
O111 O 0.43697 0.30582 0.71443 0.0
C112 C 0.31094 0.20543 0.62553 0.0
O113 O 0.31678 0.13461 0.66371 0.0
O114 O 0.32477 0.07497 0.68376 0.0
O115 O 0.37744 0.10872 0.81719 0.0
O116 O 0.35297 0.15859 0.82002 0.0
O117 O 0.3377 0.24773 0.63184 0.0
O118 O 0.31655 0.17684 0.65813 0.0
O119 O 0.34399 0.19534 0.81344 0.0
O120 O 0.33425 0.25224 0.78338 0.0
C121 C 0.32885 0.223 0.82319 0.0
O122 O 0.44105 0.20229 0.70363 0.0
O123 O 0.4413 0.13789 0.68706 0.0
C124 C 0.46057 0.28642 0.71159 0.0
C125 C 0.46213 0.18087 0.68746 0.0
H126 H 0.17371 0.50432 0.14461 0.0
H127 H 0.19551 0.49943 0.33816 0.0
H128 H 0.21575 0.58048 0.34801 0.0
H129 H 0.2666 0.63304 0.12498 0.0
H130 H 0.23107 0.63817 0.06785 0.0
H131 H 0.23166 0.58535 0.07573 0.0
H132 H 0.14293 0.54343 0.08737 0.0
H133 H 0.14315 0.59645 0.08236 0.0
H134 H 0.1183 0.56034 0.14796 0.0
H135 H 0.21185 0.65262 0.34039 0.0
H136 H 0.19296 0.71254 0.31425 0.0
H137 H 0.17981 0.67324 0.12428 0.0
C138 C 0.1847 0.52115 0.18846 0.0
C139 C 0.18323 0.49627 0.24065 0.0
C140 C 0.19694 0.51846 0.29771 0.0
C141 C 0.20855 0.5644 0.30356 0.0
C142 C 0.20746 0.58765 0.25151 0.0
C143 C 0.19733 0.56711 0.19459 0.0
C144 C 0.19344 0.59739 0.14698 0.0
C145 C 0.23305 0.61447 0.10117 0.0
C146 C 0.14668 0.57294 0.11435 0.0
C147 C 0.19827 0.63603 0.18687 0.0
C148 C 0.20747 0.63052 0.24681 0.0
C149 C 0.20673 0.65841 0.29325 0.0
C150 C 0.19606 0.69241 0.27807 0.0
C151 C 0.18676 0.69847 0.217 0.0
C152 C 0.18854 0.67031 0.17097 0.0
H153 H 0.68548 0.21774 0.82487 0.0
H154 H 0.72839 0.20986 0.64178 0.0
H155 H 0.6718 0.22876 0.60008 0.0
H156 H 0.57865 0.16561 0.80984 0.0
H157 H 0.5626 0.20071 0.85344 0.0
H158 H 0.61562 0.20269 0.86926 0.0
H159 H 0.65997 0.29009 0.85155 0.0
H160 H 0.6066 0.28858 0.83625 0.0
H161 H 0.65227 0.31308 0.78131 0.0
H162 H 0.59496 0.21853 0.58021 0.0
H163 H 0.51232 0.19337 0.58428 0.0
H164 H 0.52281 0.21839 0.77847 0.0
C165 C 0.68449 0.22269 0.77624 0.0
C166 C 0.71093 0.21252 0.73633 0.0
C167 C 0.70864 0.21816 0.67289 0.0
C168 C 0.67663 0.22896 0.6489 0.0
C169 C 0.64858 0.23581 0.68922 0.0
C170 C 0.65379 0.23512 0.75184 0.0
C171 C 0.61602 0.2382 0.78511 0.0
C172 C 0.59181 0.19947 0.83206 0.0
C173 C 0.63484 0.28528 0.81534 0.0
C174 C 0.58508 0.23324 0.73204 0.0
C175 C 0.60511 0.23349 0.67682 0.0
C176 C 0.57978 0.22065 0.62266 0.0
C177 C 0.53286 0.20615 0.62526 0.0
C178 C 0.51211 0.2054 0.68141 0.0
C179 C 0.53879 0.22061 0.73482 0.0
H180 H 0.29355 0.5103 0.19478 0.0
H181 H 0.29568 0.49587 0.3903 0.0
H182 H 0.35928 0.57494 0.39885 0.0
H183 H 0.39959 0.55433 0.17129 0.0
H184 H 0.40961 0.5963 0.11366 0.0
H185 H 0.35346 0.54812 0.12294 0.0
H186 H 0.31973 0.60113 0.13925 0.0
H187 H 0.37583 0.65025 0.12893 0.0
H188 H 0.34354 0.6451 0.1968 0.0
H189 H 0.43432 0.64159 0.38465 0.0
H190 H 0.51295 0.69378 0.34903 0.0
H191 H 0.46659 0.66618 0.16169 0.0
C192 C 0.3057 0.52522 0.23942 0.0
C193 C 0.28959 0.49795 0.29205 0.0
C194 C 0.30724 0.51699 0.34983 0.0
C195 C 0.3433 0.56188 0.35499 0.0
C196 C 0.36124 0.58715 0.30182 0.0
C197 C 0.34237 0.56999 0.24498 0.0
C198 C 0.37333 0.60027 0.19447 0.0
C199 C 0.38467 0.57311 0.14796 0.0
C200 C 0.35184 0.62572 0.16302 0.0
C201 C 0.41495 0.63301 0.23131 0.0
C202 C 0.40634 0.6263 0.29325 0.0
C203 C 0.44099 0.64832 0.33643 0.0
C204 C 0.48555 0.67747 0.31592 0.0
C205 C 0.49505 0.68398 0.25295 0.0
C206 C 0.45944 0.66213 0.21011 0.0
H207 H 0.836 0.50328 0.67105 0.0
H208 H 0.81164 0.49989 0.86487 0.0
H209 H 0.78577 0.41704 0.86631 0.0
H210 H 0.73964 0.37799 0.63888 0.0
H211 H 0.77527 0.37286 0.58183 0.0
H212 H 0.77752 0.42679 0.59355 0.0
H213 H 0.86529 0.46558 0.61022 0.0
H214 H 0.86315 0.41207 0.5994 0.0
H215 H 0.88719 0.44403 0.66868 0.0
H216 H 0.78154 0.34146 0.85052 0.0
H217 H 0.80159 0.28304 0.82061 0.0
H218 H 0.82833 0.3358 0.63654 0.0
C219 C 0.8233 0.48437 0.71313 0.0
C220 C 0.8252 0.50712 0.76767 0.0
C221 C 0.80962 0.48239 0.82257 0.0
C222 C 0.79468 0.43541 0.82357 0.0
C223 C 0.7949 0.41398 0.76905 0.0
C224 C 0.80803 0.43768 0.71453 0.0
C225 C 0.81215 0.40937 0.66416 0.0
C226 C 0.77386 0.39595 0.6168 0.0
C227 C 0.85976 0.43424 0.63397 0.0
C228 C 0.80486 0.36824 0.70021 0.0
C229 C 0.79273 0.37033 0.75997 0.0
C230 C 0.78966 0.33882 0.8035 0.0
C231 C 0.80111 0.30574 0.78618 0.0
C232 C 0.816 0.30493 0.72615 0.0
C233 C 0.81623 0.33544 0.68238 0.0
H234 H 0.47789 0.81303 0.15052 0.0
H235 H 0.48824 0.76096 0.32598 0.0
H236 H 0.4061 0.73104 0.34364 0.0
H237 H 0.41927 0.85905 0.1902 0.0
H238 H 0.38082 0.84477 0.1262 0.0
H239 H 0.43425 0.84625 0.11672 0.0
H240 H 0.39187 0.76277 0.0774 0.0
H241 H 0.33788 0.76114 0.08653 0.0
H242 H 0.34727 0.71873 0.1229 0.0
H243 H 0.33634 0.7337 0.35871 0.0
H244 H 0.28216 0.76252 0.36543 0.0
H245 H 0.30934 0.80614 0.1776 0.0
C246 C 0.46187 0.79308 0.19095 0.0
C247 C 0.48852 0.78769 0.23609 0.0
C248 C 0.46765 0.76344 0.28988 0.0
C249 C 0.42102 0.74651 0.30028 0.0
C250 C 0.39567 0.75399 0.25617 0.0
C251 C 0.41501 0.77563 0.20159 0.0
C252 C 0.3826 0.78617 0.16654 0.0
C253 C 0.40561 0.83706 0.14902 0.0
C254 C 0.36379 0.75536 0.10999 0.0
C255 C 0.34527 0.77332 0.21362 0.0
C256 C 0.35261 0.75319 0.26414 0.0
C257 C 0.32872 0.7472 0.31845 0.0
C258 C 0.29817 0.76381 0.3221 0.0
C259 C 0.29069 0.78479 0.27124 0.0
C260 C 0.31303 0.78794 0.21578 0.0
H261 H 0.67189 0.50247 0.84164 0.0
H262 H 0.7479 0.50032 0.68427 0.0
H263 H 0.6886 0.42032 0.66334 0.0
H264 H 0.61712 0.37372 0.88047 0.0
H265 H 0.56516 0.37268 0.90275 0.0
H266 H 0.61979 0.42323 0.91565 0.0
H267 H 0.59163 0.47075 0.8559 0.0
H268 H 0.5376 0.42063 0.84175 0.0
H269 H 0.57151 0.45479 0.77861 0.0
H270 H 0.61185 0.34903 0.64496 0.0
H271 H 0.52864 0.29382 0.63486 0.0
H272 H 0.50373 0.34329 0.80429 0.0
C273 C 0.67696 0.48421 0.80462 0.0
C274 C 0.7146 0.50687 0.76526 0.0
C275 C 0.71988 0.48284 0.71602 0.0
C276 C 0.68619 0.43748 0.70368 0.0
C277 C 0.64786 0.4167 0.74154 0.0
C278 C 0.64377 0.43912 0.79204 0.0
C279 C 0.59691 0.41264 0.82056 0.0
C280 C 0.59994 0.39448 0.88359 0.0
C281 C 0.57306 0.44142 0.82433 0.0
C282 C 0.57377 0.37417 0.77511 0.0
C283 C 0.60381 0.37593 0.73083 0.0
C284 C 0.58844 0.34658 0.68043 0.0
C285 C 0.54126 0.31539 0.6749 0.0
C286 C 0.5104 0.31431 0.71928 0.0
C287 C 0.52705 0.34333 0.77029 0.0
H288 H 0.27996 0.26583 0.84522 0.0
H289 H 0.3249 0.17931 0.93044 0.0
H290 H 0.29014 0.18324 0.02735 0.0
H291 H 0.30743 0.34104 0.96271 0.0
H292 H 0.25912 0.34978 0.95457 0.0
H293 H 0.27981 0.33305 0.88965 0.0
H294 H 0.19915 0.26272 0.87279 0.0
H295 H 0.17844 0.27979 0.93757 0.0
H296 H 0.17131 0.2234 0.93466 0.0
H297 H 0.26255 0.20684 0.11706 0.0
H298 H 0.24407 0.24811 0.19434 0.0
H299 H 0.2161 0.31948 0.05165 0.0
C300 C 0.28176 0.2469 0.88391 0.0
C301 C 0.30498 0.22182 0.88019 0.0
C302 C 0.30676 0.19794 0.93195 0.0
C303 C 0.28703 0.20006 0.98717 0.0
C304 C 0.26528 0.22593 0.98951 0.0
C305 C 0.26227 0.24872 0.93914 0.0
C306 C 0.24121 0.27788 0.95504 0.0
C307 C 0.27386 0.32841 0.9396 0.0
C308 C 0.19475 0.25983 0.92311 0.0
C309 C 0.23546 0.27022 0.02316 0.0
C310 C 0.24869 0.23934 0.04176 0.0
C311 C 0.25114 0.23022 0.10301 0.0
C312 C 0.24091 0.25403 0.14648 0.0
C313 C 0.22838 0.28653 0.1285 0.0
C314 C 0.22438 0.29385 0.06616 0.0
H315 H 0.9591 0.23365 0.63604 0.0
H316 H 0.83736 0.12585 0.54956 0.0
H317 H 0.88131 0.13722 0.45408 0.0
H318 H 0.99547 0.30717 0.5167 0.0
H319 H 0.05577 0.32897 0.52859 0.0
H320 H 0.01699 0.30649 0.59179 0.0
H321 H 0.04336 0.24707 0.61547 0.0
H322 H 0.08442 0.27362 0.55543 0.0
H323 H 0.0456 0.21284 0.55388 0.0
H324 H 0.93436 0.17062 0.36482 0.0
H325 H 0.99263 0.22044 0.28977 0.0
H326 H 0.08032 0.3046 0.43617 0.0
C327 C 0.94187 0.21188 0.59726 0.0
C328 C 0.89497 0.17916 0.59951 0.0
C329 C 0.87347 0.15096 0.54844 0.0
C330 C 0.89818 0.15719 0.49429 0.0
C331 C 0.94432 0.19099 0.49302 0.0
C332 C 0.96601 0.21741 0.54358 0.0
C333 C 0.01438 0.25424 0.52959 0.0
C334 C 0.02099 0.302 0.5424 0.0
C335 C 0.04897 0.2464 0.56563 0.0
C336 C 0.01613 0.2461 0.46212 0.0
C337 C 0.97553 0.2091 0.44199 0.0
C338 C 0.96675 0.19863 0.38024 0.0
C339 C 0.99984 0.22711 0.33804 0.0
C340 C 0.04114 0.26523 0.35791 0.0
C341 C 0.04981 0.27432 0.42054 0.0
H342 H 0.78474 0.13551 0.00349 0.0
H343 H 0.85708 0.08841 0.88913 0.0
H344 H 0.84945 0.03331 0.96844 0.0
H345 H 0.82268 0.10689 0.1612 0.0
H346 H 0.76686 0.09068 0.19111 0.0
H347 H 0.79396 0.13731 0.13789 0.0
H348 H 0.72209 0.09739 0.06917 0.0
H349 H 0.69542 0.05002 0.12021 0.0
H350 H 0.7034 0.04048 0.04139 0.0
H351 H 0.81111 0.96776 0.04212 0.0
H352 H 0.75666 0.90688 0.11133 0.0
H353 H 0.70901 0.99714 0.17546 0.0
C354 C 0.80188 0.11589 -0.00252 0.0
C355 C 0.82181 0.11624 0.94106 0.0
C356 C 0.84257 0.08918 0.93288 0.0
C357 C 0.83802 0.0575 0.9776 0.0
C358 C 0.81372 0.05444 0.03057 0.0
C359 C 0.79766 0.08439 0.04182 0.0
C360 C 0.76625 0.06967 0.09651 0.0
C361 C 0.7888 0.10312 0.14985 0.0
C362 C 0.71905 0.06402 0.08077 0.0
C363 C 0.76301 0.02438 0.10988 0.0
C364 C 0.79149 0.01649 0.07286 0.0
C365 C 0.78965 0.97422 0.07243 0.0
C366 C 0.75795 0.93943 0.11074 0.0
C367 C 0.72791 0.94684 0.14761 0.0
C368 C 0.73161 0.99031 0.148 0.0
H369 H 0.69777 0.79283 0.42546 0.0
H370 H 0.75211 0.74693 0.27977 0.0
H371 H 0.79879 0.73338 0.35407 0.0
H372 H 0.80524 0.8447 0.5248 0.0
H373 H 0.77207 0.82486 0.59384 0.0
H374 H 0.75012 0.84104 0.52948 0.0
H375 H 0.6766 0.76281 0.5288 0.0
H376 H 0.6969 0.74576 0.59373 0.0
H377 H 0.68063 0.71161 0.52526 0.0
H378 H 0.82481 0.70846 0.44326 0.0
H379 H 0.83033 0.67688 0.54206 0.0
H380 H 0.76437 0.74273 0.63131 0.0
C381 C 0.72101 0.78184 0.40912 0.0
C382 C 0.72157 0.77109 0.34715 0.0
C383 C 0.75112 0.75518 0.32731 0.0
C384 C 0.77809 0.74779 0.36904 0.0
C385 C 0.77545 0.7569 0.43033 0.0
C386 C 0.74815 0.77419 0.45038 0.0
C387 C 0.74671 0.77509 0.51932 0.0
C388 C 0.76997 0.82438 0.54324 0.0
C389 C 0.69729 0.74713 0.54311 0.0
C390 C 0.77465 0.75261 0.53457 0.0
C391 C 0.79186 0.74339 0.48267 0.0
C392 C 0.81345 0.71737 0.48453 0.0
C393 C 0.81714 0.70001 0.54086 0.0
C394 C 0.7999 0.70911 0.59435 0.0
C395 C 0.77894 0.73624 0.59114 0.0
H396 H 0.02646 0.75989 0.83398 0.0
H397 H 0.90477 0.73399 0.93261 0.0
H398 H 0.95287 0.78563 0.01481 0.0
H399 H 0.07959 0.74672 0.95335 0.0
H400 H 0.13709 0.78935 0.93308 0.0
H401 H 0.09449 0.76287 0.87474 0.0
H402 H 0.11024 0.84246 0.83882 0.0
H403 H 0.15293 0.86926 0.89775 0.0
H404 H 0.10623 0.8807 0.89258 0.0
H405 H 0.01212 0.82607 0.09384 0.0
H406 H 0.07489 0.84428 0.16649 0.0
H407 H 0.15837 0.83962 0.02027 0.0
C408 C 0.00992 0.7663 0.87197 0.0
C409 C 0.96168 0.744 0.87613 0.0
C410 C 0.94141 0.75232 0.92718 0.0
C411 C 0.96867 0.78147 0.97422 0.0
C412 C 0.01621 0.80197 0.96943 0.0
C413 C 0.03666 0.79464 0.91945 0.0
C414 C 0.08741 0.81338 0.9298 0.0
C415 C 0.10034 0.77584 0.92236 0.0
C416 C 0.11588 0.85385 0.8872 0.0
C417 C 0.09173 0.82913 -0.00469 0.0
C418 C 0.05072 0.82411 0.01641 0.0
C419 C 0.04468 0.83143 0.07739 0.0
C420 C 0.08053 0.84195 0.11829 0.0
C421 C 0.12154 0.84455 0.09813 0.0
C422 C 0.12788 0.83961 0.0358 0.0
H423 H 0.25128 0.00107 0.67541 0.0
H424 H 0.26338 0.11026 0.56108 0.0
H425 H 0.20296 0.05425 0.49342 0.0
H426 H 0.26107 0.94359 0.56968 0.0
H427 H 0.2222 0.88653 0.59609 0.0
H428 H 0.24682 0.93246 0.64947 0.0
H429 H 0.16577 0.91242 0.6854 0.0
H430 H 0.14079 0.86619 0.63099 0.0
H431 H 0.12433 0.90936 0.63079 0.0
H432 H 0.15922 0.98895 0.42519 0.0
H433 H 0.15479 0.9299 0.35535 0.0
H434 H 0.18229 0.86405 0.50479 0.0
C435 C 0.23975 0.01315 0.63738 0.0
C436 C 0.26116 0.06014 0.62396 0.0
C437 C 0.24601 0.07477 0.57347 0.0
C438 C 0.21165 0.04286 0.53482 0.0
C439 C 0.19307 0.99632 0.54718 0.0
C440 C 0.20689 0.98158 0.59757 0.0
C441 C 0.19241 0.93148 0.59263 0.0
C442 C 0.23306 0.92314 0.60239 0.0
C443 C 0.15351 0.9032 0.63762 0.0
C444 C 0.17482 0.92216 0.52772 0.0
C445 C 0.17131 0.95847 0.50449 0.0
C446 C 0.16084 0.96002 0.44329 0.0
C447 C 0.15811 0.92612 0.40386 0.0
C448 C 0.16799 0.89263 0.4254 0.0
C449 C 0.17353 0.8889 0.48829 0.0
H450 H 0.72969 0.76378 0.1331 0.0
H451 H 0.71336 0.85651 0.01405 0.0
H452 H 0.77348 0.8592 0.94571 0.0
H453 H 0.85502 0.80141 0.09944 0.0
H454 H 0.84184 0.74278 0.10024 0.0
H455 H 0.81112 0.76104 0.14944 0.0
H456 H 0.73412 0.69832 0.10412 0.0
H457 H 0.76447 0.67977 0.05589 0.0
H458 H 0.72555 0.69579 0.0227 0.0
H459 H 0.82282 0.83952 0.8816 0.0
H460 H 0.84235 0.79045 0.82021 0.0
H461 H 0.81868 0.70361 0.9761 0.0
C462 C 0.74043 0.78627 0.09392 0.0
C463 C 0.71824 0.81101 0.07936 0.0
C464 C 0.73115 0.83846 0.02663 0.0
C465 C 0.76534 0.84019 0.98791 0.0
C466 C 0.78554 0.8138 0.00247 0.0
C467 C 0.77307 0.78702 0.0543 0.0
C468 C 0.79082 0.75378 0.05342 0.0
C469 C 0.82685 0.76548 0.10362 0.0
C470 C 0.7514 0.70404 0.05928 0.0
C471 C 0.81248 0.76343 0.99089 0.0
C472 C 0.81141 0.79988 0.96357 0.0
C473 C 0.82484 0.81179 0.90314 0.0
C474 C 0.83641 0.784 0.86868 0.0
C475 C 0.83313 0.7441 0.8942 0.0
C476 C 0.82329 0.73506 0.95665 0.0
H477 H 0.96256 0.75845 0.58795 0.0
H478 H 0.8706 0.62041 0.52759 0.0
H479 H 0.89988 0.6416 0.42235 0.0
H480 H 0.96656 0.8187 0.43643 0.0
H481 H 0.0267 0.85826 0.44716 0.0
H482 H 0.98927 0.83646 0.51228 0.0
H483 H 0.04168 0.80835 0.55882 0.0
H484 H 0.07849 0.82987 0.49383 0.0
H485 H 0.05413 0.77074 0.51471 0.0
H486 H 0.94772 0.67293 0.33076 0.0
H487 H 0.01321 0.70984 0.26108 0.0
H488 H 0.07825 0.82708 0.38188 0.0
C489 C 0.94718 0.73359 0.55161 0.0
C490 C 0.91332 0.68845 0.5645 0.0
C491 C 0.89555 0.65555 0.51743 0.0
C492 C 0.91187 0.66737 0.45773 0.0
C493 C 0.94634 0.71205 0.44641 0.0
C494 C 0.96375 0.74478 0.49201 0.0
C495 C 0.00596 0.7877 0.47065 0.0
C496 C 0.99654 0.82764 0.46636 0.0
C497 C 0.04747 0.79976 0.51197 0.0
C498 C 0.01172 0.77264 0.4079 0.0
C499 C 0.97593 0.72965 0.3939 0.0
C500 C 0.97542 0.70696 0.34065 0.0
C501 C 0.01294 0.72822 0.30143 0.0
C502 C 0.05098 0.77129 0.31635 0.0
C503 C 0.04966 0.79425 0.36937 0.0
H504 H 0.22984 0.94028 0.09252 0.0
H505 H 0.34076 0.02299 0.21769 0.0
H506 H 0.37122 0.08639 0.14409 0.0
H507 H 0.29394 0.97283 0.96084 0.0
H508 H 0.25063 0.97351 0.91328 0.0
H509 H 0.23419 0.93708 0.97901 0.0
H510 H 0.1883 0.97408 0.01989 0.0
H511 H 0.20484 0.01104 0.95434 0.0
H512 H 0.21642 0.03509 0.03006 0.0
H513 H 0.39466 0.13743 0.05288 0.0
H514 H 0.41039 0.17042 0.94877 0.0
H515 H 0.28407 0.05535 0.88434 0.0
C516 C 0.26004 0.97192 0.10512 0.0
C517 C 0.28277 0.97658 0.1611 0.0
C518 C 0.32265 0.01852 0.17513 0.0
C519 C 0.34009 0.0549 0.1338 0.0
C520 C 0.31707 0.04903 0.07883 0.0
C521 C 0.27786 0.00859 0.06446 0.0
C522 C 0.26175 0.00961 0.00036 0.0
C523 C 0.26008 0.97099 0.96109 0.0
C524 C 0.21505 0.00733 0.00125 0.0
C525 C 0.29928 0.05608 0.97993 0.0
C526 C 0.33038 0.07874 0.02626 0.0
C527 C 0.37004 0.12057 0.01664 0.0
C528 C 0.37871 0.13912 0.9577 0.0
C529 C 0.34774 0.11576 0.90979 0.0
C530 C 0.30732 0.0743 0.92118 0.0
H531 H 0.28884 0.18502 0.5051 0.0
H532 H 0.23753 0.20114 0.67826 0.0
H533 H 0.1749 0.20508 0.62581 0.0
H534 H 0.27927 0.25714 0.42471 0.0
H535 H 0.25779 0.22616 0.35414 0.0
H536 H 0.28851 0.21038 0.40576 0.0
H537 H 0.22007 0.12776 0.4089 0.0
H538 H 0.18877 0.1436 0.35702 0.0
H539 H 0.16402 0.1177 0.42923 0.0
H540 H 0.14236 0.23842 0.5563 0.0
H541 H 0.13671 0.2865 0.47599 0.0
H542 H 0.19191 0.2319 0.34493 0.0
C543 C 0.26247 0.18627 0.53173 0.0
C544 C 0.26704 0.19171 0.59541 0.0
C545 C 0.23358 0.19561 0.62939 0.0
C546 C 0.19787 0.19782 0.59995 0.0
C547 C 0.19511 0.19433 0.53658 0.0
C548 C 0.22531 0.18641 0.50296 0.0
C549 C 0.21837 0.18935 0.43529 0.0
C550 C 0.26364 0.22278 0.40323 0.0
C551 C 0.19649 0.14177 0.40588 0.0
C552 C 0.18483 0.20693 0.4365 0.0
C553 C 0.17087 0.20863 0.49536 0.0
C554 C 0.15024 0.23464 0.50957 0.0
C555 C 0.1464 0.26151 0.46364 0.0
C556 C 0.16166 0.26086 0.40413 0.0
C557 C 0.17782 0.23076 0.38973 0.0
H558 H 0.92202 0.1798 0.90455 0.0
H559 H 1.00076 0.28081 0.76703 0.0
H560 H 0.07096 0.30497 0.82668 0.0
H561 H 0.97201 0.24524 0.0269 0.0
H562 H 0.97202 0.20173 0.07437 0.0
H563 H 0.93064 0.18589 0.01443 0.0
H564 H 0.95752 0.13234 0.96949 0.0
H565 H 0.99991 0.14884 0.02897 0.0
H566 H 0.01689 0.15488 0.95008 0.0
H567 H 0.12793 0.32977 0.90953 0.0
H568 H 0.16469 0.35462 0.01058 0.0
H569 H 0.05235 0.23539 0.09273 0.0
C570 C 0.95423 0.20605 0.88626 0.0
C571 C 0.95583 0.2284 0.83134 0.0
C572 C 0.99858 0.2632 0.80921 0.0
C573 C 0.03884 0.27687 0.84243 0.0
C574 C 0.03607 0.25491 0.89724 0.0
C575 C 0.99486 0.21993 0.9188 0.0
C576 C 1.00001 0.20612 0.98258 0.0
C577 C 0.96676 0.21005 0.02714 0.0
C578 C 0.99319 0.15766 0.98276 0.0
C579 C 0.0495 0.2414 -0.00454 0.0
C580 C 0.07019 0.26835 0.94494 0.0
C581 C 0.11295 0.30794 0.94876 0.0
C582 C 0.13395 0.32166 0.00615 0.0
C583 C 0.11195 0.29588 0.05852 0.0
C584 C 0.07067 0.25417 0.05252 0.0
H585 H 0.6158 0.8587 0.4806 0.0
H586 H 0.74427 0.8892 0.39729 0.0
H587 H 0.78621 0.94026 0.48345 0.0
H588 H 0.64304 0.96164 0.51951 0.0
H589 H 0.61508 0.95096 0.59254 0.0
H590 H 0.59447 0.90648 0.53632 0.0
H591 H 0.60408 0.85274 0.61121 0.0
H592 H 0.62333 0.89655 0.66896 0.0
H593 H 0.65826 0.87196 0.64877 0.0
H594 H 0.81294 0.0024 0.56112 0.0
H595 H 0.82304 0.06256 0.63357 0.0
H596 H 0.67697 0.99066 0.66829 0.0
C597 C 0.65268 0.8741 0.48255 0.0
C598 C 0.67694 0.86992 0.43296 0.0
C599 C 0.72516 0.89141 0.43556 0.0
C600 C 0.74922 0.92072 0.48415 0.0
C601 C 0.72433 0.92689 0.53033 0.0
C602 C 0.67699 0.90293 0.53105 0.0
C603 C 0.65828 0.91983 0.58127 0.0
C604 C 0.62585 0.93567 0.55583 0.0
C605 C 0.6346 0.88308 0.63048 0.0
C606 C 0.70219 0.95951 0.60522 0.0
C607 C 0.73998 0.96257 0.57607 0.0
C608 C 0.78375 0.99951 0.58557 0.0
C609 C 0.78905 0.0339 0.62617 0.0
C610 C 0.75074 0.0313 0.65653 0.0
C611 C 0.70695 0.99321 0.64644 0.0
loop_
_geom_bond_atom_site_label_1
_geom_bond_atom_site_label_2
_geom_bond_distance
_geom_bond_site_symmetry_2
_ccdc_geom_bond_type
Zn0 O6 1.920 . S
Zn0 O12 1.898 . S
Zn0 O15 1.905 . S
Zn1 O9 1.905 . S
Zn1 O10 1.898 . S
Zn1 O18 1.920 . S
Zn2 O5 2.080 . S
Zn2 O8 2.114 . S
Zn2 O11 2.120 . S
Zn2 O13 2.120 . S
Zn2 O14 2.114 . S
Zn2 O17 2.080 . S
C3 O8 1.166 . S
C3 O9 1.182 . S
C4 O10 1.167 . S
C4 O11 1.299 . S
O5 Zn2 2.080 . S
O5 C19 1.305 . S
O6 Zn0 1.920 . S
O6 C19 1.234 . S
C7 O12 1.167 . S
C7 O13 1.299 . S
O8 Zn2 2.114 . S
O8 C3 1.166 . S
O9 Zn1 1.905 . S
O9 C3 1.182 . S
O10 Zn1 1.898 . S
O10 C4 1.167 . S
O11 Zn2 2.120 . S
O11 C4 1.299 . S
O12 Zn0 1.898 . S
O12 C7 1.167 . S
O13 Zn2 2.120 . S
O13 C7 1.299 . S
O14 Zn2 2.114 . S
O14 C16 1.166 . S
O15 Zn0 1.905 . S
O15 C16 1.182 . S
C16 O14 1.166 . S
C16 O15 1.182 . S
O17 Zn2 2.080 . S
O17 C20 1.305 . S
O18 Zn1 1.920 . S
O18 C20 1.234 . S
C19 O5 1.305 . S
C19 O6 1.234 . S
C20 O17 1.305 . S
C20 O18 1.234 . S
Zn21 O27 1.920 . S
Zn21 O33 1.898 . S
Zn21 O36 1.905 . S
Zn22 O30 1.905 . S
Zn22 O31 1.898 . S
Zn22 O39 1.920 . S
Zn23 O26 2.080 . S
Zn23 O29 2.114 . S
Zn23 O32 2.120 . S
Zn23 O34 2.120 . S
Zn23 O35 2.114 . S
Zn23 O38 2.080 . S
C24 O29 1.166 . S
C24 O30 1.182 . S
C25 O31 1.167 . S
C25 O32 1.299 . S
O26 Zn23 2.080 . S
O26 C40 1.305 . S
O27 Zn21 1.920 . S
O27 C40 1.234 . S
C28 O33 1.167 . S
C28 O34 1.299 . S
O29 Zn23 2.114 . S
O29 C24 1.166 . S
O30 Zn22 1.905 . S
O30 C24 1.182 . S
O31 Zn22 1.898 . S
O31 C25 1.167 . S
O32 Zn23 2.120 . S
O32 C25 1.299 . S
O33 Zn21 1.898 . S
O33 C28 1.167 . S
O34 Zn23 2.120 . S
O34 C28 1.299 . S
O35 Zn23 2.114 . S
O35 C37 1.166 . S
O36 Zn21 1.905 . S
O36 C37 1.182 . S
C37 O35 1.166 . S
C37 O36 1.182 . S
O38 Zn23 2.080 . S
O38 C41 1.305 . S
O39 Zn22 1.920 . S
O39 C41 1.234 . S
C40 O26 1.305 . S
C40 O27 1.234 . S
C41 O38 1.305 . S
C41 O39 1.234 . S
Zn42 O48 1.920 . S
Zn42 O54 1.898 . S
Zn42 O57 1.905 . S
Zn43 O51 1.905 . S
Zn43 O52 1.898 . S
Zn43 O60 1.920 . S
Zn44 O47 2.080 . S
Zn44 O50 2.114 . S
Zn44 O53 2.120 . S
Zn44 O55 2.120 . S
Zn44 O56 2.114 . S
Zn44 O59 2.080 . S
C45 O50 1.166 . S
C45 O51 1.182 . S
C46 O52 1.167 . S
C46 O53 1.299 . S
O47 Zn44 2.080 . S
O47 C61 1.305 . S
O48 Zn42 1.920 . S
O48 C61 1.234 . S
C49 O54 1.167 . S
C49 O55 1.299 . S
O50 Zn44 2.114 . S
O50 C45 1.166 . S
O51 Zn43 1.905 . S
O51 C45 1.182 . S
O52 Zn43 1.898 . S
O52 C46 1.167 . S
O53 Zn44 2.120 . S
O53 C46 1.299 . S
O54 Zn42 1.898 . S
O54 C49 1.167 . S
O55 Zn44 2.120 . S
O55 C49 1.299 . S
O56 Zn44 2.114 . S
O56 C58 1.166 . S
O57 Zn42 1.905 . S
O57 C58 1.182 . S
C58 O56 1.166 . S
C58 O57 1.182 . S
O59 Zn44 2.080 . S
O59 C62 1.305 . S
O60 Zn43 1.920 . S
O60 C62 1.234 . S
C61 O47 1.305 . S
C61 O48 1.234 . S
C62 O59 1.305 . S
C62 O60 1.234 . S
Zn63 O69 1.920 . S
Zn63 O75 1.898 . S
Zn63 O78 1.905 . S
Zn64 O72 1.905 . S
Zn64 O73 1.898 . S
Zn64 O81 1.920 . S
Zn65 O68 2.080 . S
Zn65 O71 2.114 . S
Zn65 O74 2.120 . S
Zn65 O76 2.120 . S
Zn65 O77 2.114 . S
Zn65 O80 2.080 . S
C66 O71 1.166 . S
C66 O72 1.182 . S
C67 O73 1.167 . S
C67 O74 1.299 . S
O68 Zn65 2.080 . S
O68 C82 1.305 . S
O69 Zn63 1.920 . S
O69 C82 1.234 . S
C70 O75 1.167 . S
C70 O76 1.299 . S
O71 Zn65 2.114 . S
O71 C66 1.166 . S
O72 Zn64 1.905 . S
O72 C66 1.182 . S
O73 Zn64 1.898 . S
O73 C67 1.167 . S
O74 Zn65 2.120 . S
O74 C67 1.299 . S
O75 Zn63 1.898 . S
O75 C70 1.167 . S
O76 Zn65 2.120 . S
O76 C70 1.299 . S
O77 Zn65 2.114 . S
O77 C79 1.166 . S
O78 Zn63 1.905 . S
O78 C79 1.182 . S
C79 O77 1.166 . S
C79 O78 1.182 . S
O80 Zn65 2.080 . S
O80 C83 1.305 . S
O81 Zn64 1.920 . S
O81 C83 1.234 . S
C82 O68 1.305 . S
C82 O69 1.234 . S
C83 O80 1.305 . S
C83 O81 1.234 . S
Zn84 O90 1.920 . S
Zn84 O96 1.898 . S
Zn84 O99 1.905 . S
Zn85 O93 1.905 . S
Zn85 O94 1.898 . S
Zn85 O102 1.920 . S
Zn86 O89 2.080 . S
Zn86 O92 2.114 . S
Zn86 O95 2.120 . S
Zn86 O97 2.120 . S
Zn86 O98 2.114 . S
Zn86 O101 2.080 . S
C87 O92 1.166 . S
C87 O93 1.182 . S
C88 O94 1.167 . S
C88 O95 1.299 . S
O89 Zn86 2.080 . S
O89 C103 1.305 . S
O90 Zn84 1.920 . S
O90 C103 1.234 . S
C91 O96 1.167 . S
C91 O97 1.299 . S
O92 Zn86 2.114 . S
O92 C87 1.166 . S
O93 Zn85 1.905 . S
O93 C87 1.182 . S
O94 Zn85 1.898 . S
O94 C88 1.167 . S
O95 Zn86 2.120 . S
O95 C88 1.299 . S
O96 Zn84 1.898 . S
O96 C91 1.167 . S
O97 Zn86 2.120 . S
O97 C91 1.299 . S
O98 Zn86 2.114 . S
O98 C100 1.166 . S
O99 Zn84 1.905 . S
O99 C100 1.182 . S
C100 O98 1.166 . S
C100 O99 1.182 . S
O101 Zn86 2.080 . S
O101 C104 1.305 . S
O102 Zn85 1.920 . S
O102 C104 1.234 . S
C103 O89 1.305 . S
C103 O90 1.234 . S
C104 O101 1.305 . S
C104 O102 1.234 . S
Zn105 O111 1.920 . S
Zn105 O117 1.898 . S
Zn105 O120 1.905 . S
Zn106 O114 1.905 . S
Zn106 O115 1.898 . S
Zn106 O123 1.920 . S
Zn107 O110 2.080 . S
Zn107 O113 2.114 . S
Zn107 O116 2.120 . S
Zn107 O118 2.120 . S
Zn107 O119 2.114 . S
Zn107 O122 2.080 . S
C108 O113 1.166 . S
C108 O114 1.182 . S
C109 O115 1.167 . S
C109 O116 1.299 . S
O110 Zn107 2.080 . S
O110 C124 1.305 . S
O111 Zn105 1.920 . S
O111 C124 1.234 . S
C112 O117 1.167 . S
C112 O118 1.299 . S
O113 Zn107 2.114 . S
O113 C108 1.166 . S
O114 Zn106 1.905 . S
O114 C108 1.182 . S
O115 Zn106 1.898 . S
O115 C109 1.167 . S
O116 Zn107 2.120 . S
O116 C109 1.299 . S
O117 Zn105 1.898 . S
O117 C112 1.167 . S
O118 Zn107 2.120 . S
O118 C112 1.299 . S
O119 Zn107 2.114 . S
O119 C121 1.166 . S
O120 Zn105 1.905 . S
O120 C121 1.182 . S
C121 O119 1.166 . S
C121 O120 1.182 . S
O122 Zn107 2.080 . S
O122 C125 1.305 . S
O123 Zn106 1.920 . S
O123 C125 1.234 . S
C124 O110 1.305 . S
C124 O111 1.234 . S
C125 O122 1.305 . S
C125 O123 1.234 . S
H126 C138 0.930 . S
H127 C140 0.930 . S
H128 C141 0.930 . S
H129 C145 0.959 . S
H130 C145 0.959 . S
H131 C145 0.961 . S
H132 C146 0.960 . S
H133 C146 0.961 . S
H134 C146 0.959 . S
H135 C149 0.929 . S
H136 C150 0.931 . S
H137 C152 0.930 . S
C138 H126 0.930 . S
C138 C139 1.399 . S
C138 C143 1.399 . S
C139 C138 1.399 . S
C139 C140 1.376 . S
C140 H127 0.930 . S
C140 C139 1.376 . S
C140 C141 1.388 . S
C141 H128 0.930 . S
C141 C140 1.388 . S
C141 C142 1.390 . S
C142 C141 1.390 . S
C142 C143 1.394 . S
C142 C148 1.465 . S
C143 C138 1.399 . S
C143 C142 1.394 . S
C143 C144 1.516 . S
C144 C143 1.516 . S
C144 C145 1.502 . S
C144 C146 1.561 . S
C144 C147 1.526 . S
C145 H129 0.959 . S
C145 H130 0.959 . S
C145 H131 0.961 . S
C145 C144 1.502 . S
C146 H132 0.960 . S
C146 H133 0.961 . S
C146 H134 0.959 . S
C146 C144 1.561 . S
C147 C144 1.526 . S
C147 C148 1.396 . S
C147 C152 1.390 . S
C148 C142 1.465 . S
C148 C147 1.396 . S
C148 C149 1.399 . S
C149 H135 0.929 . S
C149 C148 1.399 . S
C149 C150 1.385 . S
C150 H136 0.931 . S
C150 C149 1.385 . S
C150 C151 1.389 . S
C151 C150 1.389 . S
C151 C152 1.387 . S
C152 H137 0.930 . S
C152 C147 1.390 . S
C152 C151 1.387 . S
H153 C165 0.930 . S
H154 C167 0.930 . S
H155 C168 0.930 . S
H156 C172 0.959 . S
H157 C172 0.959 . S
H158 C172 0.961 . S
H159 C173 0.960 . S
H160 C173 0.961 . S
H161 C173 0.959 . S
H162 C176 0.929 . S
H163 C177 0.931 . S
H164 C179 0.930 . S
C165 H153 0.930 . S
C165 C166 1.399 . S
C165 C170 1.399 . S
C166 C165 1.399 . S
C166 C167 1.376 . S
C167 H154 0.930 . S
C167 C166 1.376 . S
C167 C168 1.388 . S
C168 H155 0.930 . S
C168 C167 1.388 . S
C168 C169 1.390 . S
C169 C168 1.390 . S
C169 C170 1.394 . S
C169 C175 1.465 . S
C170 C165 1.399 . S
C170 C169 1.394 . S
C170 C171 1.516 . S
C171 C170 1.516 . S
C171 C172 1.502 . S
C171 C173 1.561 . S
C171 C174 1.526 . S
C172 H156 0.959 . S
C172 H157 0.959 . S
C172 H158 0.961 . S
C172 C171 1.502 . S
C173 H159 0.960 . S
C173 H160 0.961 . S
C173 H161 0.959 . S
C173 C171 1.561 . S
C174 C171 1.526 . S
C174 C175 1.396 . S
C174 C179 1.390 . S
C175 C169 1.465 . S
C175 C174 1.396 . S
C175 C176 1.399 . S
C176 H162 0.929 . S
C176 C175 1.399 . S
C176 C177 1.385 . S
C177 H163 0.931 . S
C177 C176 1.385 . S
C177 C178 1.389 . S
C178 C177 1.389 . S
C178 C179 1.387 . S
C179 H164 0.930 . S
C179 C174 1.390 . S
C179 C178 1.387 . S
H180 C192 0.930 . S
H181 C194 0.930 . S
H182 C195 0.930 . S
H183 C199 0.959 . S
H184 C199 0.959 . S
H185 C199 0.961 . S
H186 C200 0.960 . S
H187 C200 0.961 . S
H188 C200 0.959 . S
H189 C203 0.929 . S
H190 C204 0.931 . S
H191 C206 0.930 . S
C192 H180 0.930 . S
C192 C193 1.399 . S
C192 C197 1.399 . S
C193 C192 1.399 . S
C193 C194 1.376 . S
C194 H181 0.930 . S
C194 C193 1.376 . S
C194 C195 1.388 . S
C195 H182 0.930 . S
C195 C194 1.388 . S
C195 C196 1.390 . S
C196 C195 1.390 . S
C196 C197 1.394 . S
C196 C202 1.465 . S
C197 C192 1.399 . S
C197 C196 1.394 . S
C197 C198 1.516 . S
C198 C197 1.516 . S
C198 C199 1.502 . S
C198 C200 1.561 . S
C198 C201 1.526 . S
C199 H183 0.959 . S
C199 H184 0.959 . S
C199 H185 0.961 . S
C199 C198 1.502 . S
C200 H186 0.960 . S
C200 H187 0.961 . S
C200 H188 0.959 . S
C200 C198 1.561 . S
C201 C198 1.526 . S
C201 C202 1.396 . S
C201 C206 1.390 . S
C202 C196 1.465 . S
C202 C201 1.396 . S
C202 C203 1.399 . S
C203 H189 0.929 . S
C203 C202 1.399 . S
C203 C204 1.385 . S
C204 H190 0.931 . S
C204 C203 1.385 . S
C204 C205 1.389 . S
C205 C204 1.389 . S
C205 C206 1.387 . S
C206 H191 0.930 . S
C206 C201 1.390 . S
C206 C205 1.387 . S
H207 C219 0.930 . S
H208 C221 0.930 . S
H209 C222 0.930 . S
H210 C226 0.959 . S
H211 C226 0.959 . S
H212 C226 0.961 . S
H213 C227 0.960 . S
H214 C227 0.961 . S
H215 C227 0.959 . S
H216 C230 0.929 . S
H217 C231 0.931 . S
H218 C233 0.930 . S
C219 H207 0.930 . S
C219 C220 1.399 . S
C219 C224 1.399 . S
C220 C219 1.399 . S
C220 C221 1.376 . S
C221 H208 0.930 . S
C221 C220 1.376 . S
C221 C222 1.388 . S
C222 H209 0.930 . S
C222 C221 1.388 . S
C222 C223 1.390 . S
C223 C222 1.390 . S
C223 C224 1.394 . S
C223 C229 1.465 . S
C224 C219 1.399 . S
C224 C223 1.394 . S
C224 C225 1.516 . S
C225 C224 1.516 . S
C225 C226 1.502 . S
C225 C227 1.561 . S
C225 C228 1.526 . S
C226 H210 0.959 . S
C226 H211 0.959 . S
C226 H212 0.961 . S
C226 C225 1.502 . S
C227 H213 0.960 . S
C227 H214 0.961 . S
C227 H215 0.959 . S
C227 C225 1.561 . S
C228 C225 1.526 . S
C228 C229 1.396 . S
C228 C233 1.390 . S
C229 C223 1.465 . S
C229 C228 1.396 . S
C229 C230 1.399 . S
C230 H216 0.929 . S
C230 C229 1.399 . S
C230 C231 1.385 . S
C231 H217 0.931 . S
C231 C230 1.385 . S
C231 C232 1.389 . S
C232 C231 1.389 . S
C232 C233 1.387 . S
C233 H218 0.930 . S
C233 C228 1.390 . S
C233 C232 1.387 . S
H234 C246 0.930 . S
H235 C248 0.930 . S
H236 C249 0.930 . S
H237 C253 0.959 . S
H238 C253 0.959 . S
H239 C253 0.961 . S
H240 C254 0.960 . S
H241 C254 0.961 . S
H242 C254 0.959 . S
H243 C257 0.929 . S
H244 C258 0.931 . S
H245 C260 0.930 . S
C246 H234 0.930 . S
C246 C247 1.399 . S
C246 C251 1.399 . S
C247 C246 1.399 . S
C247 C248 1.376 . S
C248 H235 0.930 . S
C248 C247 1.376 . S
C248 C249 1.388 . S
C249 H236 0.930 . S
C249 C248 1.388 . S
C249 C250 1.390 . S
C250 C249 1.390 . S
C250 C251 1.394 . S
C250 C256 1.465 . S
C251 C246 1.399 . S
C251 C250 1.394 . S
C251 C252 1.516 . S
C252 C251 1.516 . S
C252 C253 1.502 . S
C252 C254 1.561 . S
C252 C255 1.526 . S
C253 H237 0.959 . S
C253 H238 0.959 . S
C253 H239 0.961 . S
C253 C252 1.502 . S
C254 H240 0.960 . S
C254 H241 0.961 . S
C254 H242 0.959 . S
C254 C252 1.561 . S
C255 C252 1.526 . S
C255 C256 1.396 . S
C255 C260 1.390 . S
C256 C250 1.465 . S
C256 C255 1.396 . S
C256 C257 1.399 . S
C257 H243 0.929 . S
C257 C256 1.399 . S
C257 C258 1.385 . S
C258 H244 0.931 . S
C258 C257 1.385 . S
C258 C259 1.389 . S
C259 C258 1.389 . S
C259 C260 1.387 . S
C260 H245 0.930 . S
C260 C255 1.390 . S
C260 C259 1.387 . S
H261 C273 0.930 . S
H262 C275 0.930 . S
H263 C276 0.930 . S
H264 C280 0.959 . S
H265 C280 0.959 . S
H266 C280 0.961 . S
H267 C281 0.960 . S
H268 C281 0.961 . S
H269 C281 0.959 . S
H270 C284 0.929 . S
H271 C285 0.931 . S
H272 C287 0.930 . S
C273 H261 0.930 . S
C273 C274 1.399 . S
C273 C278 1.399 . S
C274 C273 1.399 . S
C274 C275 1.376 . S
C275 H262 0.930 . S
C275 C274 1.376 . S
C275 C276 1.388 . S
C276 H263 0.930 . S
C276 C275 1.388 . S
C276 C277 1.390 . S
C277 C276 1.390 . S
C277 C278 1.394 . S
C277 C283 1.465 . S
C278 C273 1.399 . S
C278 C277 1.394 . S
C278 C279 1.516 . S
C279 C278 1.516 . S
C279 C280 1.502 . S
C279 C281 1.561 . S
C279 C282 1.526 . S
C280 H264 0.959 . S
C280 H265 0.959 . S
C280 H266 0.961 . S
C280 C279 1.502 . S
C281 H267 0.960 . S
C281 H268 0.961 . S
C281 H269 0.959 . S
C281 C279 1.561 . S
C282 C279 1.526 . S
C282 C283 1.396 . S
C282 C287 1.390 . S
C283 C277 1.465 . S
C283 C282 1.396 . S
C283 C284 1.399 . S
C284 H270 0.929 . S
C284 C283 1.399 . S
C284 C285 1.385 . S
C285 H271 0.931 . S
C285 C284 1.385 . S
C285 C286 1.389 . S
C286 C285 1.389 . S
C286 C287 1.387 . S
C287 H272 0.930 . S
C287 C282 1.390 . S
C287 C286 1.387 . S
H288 C300 0.930 . S
H289 C302 0.930 . S
H290 C303 0.930 . S
H291 C307 0.959 . S
H292 C307 0.959 . S
H293 C307 0.961 1_556 S
H294 C308 0.960 . S
H295 C308 0.961 . S
H296 C308 0.959 . S
H297 C311 0.929 . S
H298 C312 0.931 . S
H299 C314 0.930 . S
C300 H288 0.930 . S
C300 C301 1.399 . S
C300 C305 1.399 . S
C301 C300 1.399 . S
C301 C302 1.376 . S
C302 H289 0.930 . S
C302 C301 1.376 . S
C302 C303 1.388 . S
C303 H290 0.930 . S
C303 C302 1.388 . S
C303 C304 1.390 . S
C304 C303 1.390 . S
C304 C305 1.394 . S
C304 C310 1.465 1_556 S
C305 C300 1.399 . S
C305 C304 1.394 . S
C305 C306 1.516 . S
C306 C305 1.516 . S
C306 C307 1.502 1_556 S
C306 C308 1.561 . S
C306 C309 1.526 1_556 S
C307 H291 0.959 . S
C307 H292 0.959 . S
C307 H293 0.961 1_554 S
C307 C306 1.502 1_554 S
C308 H294 0.960 . S
C308 H295 0.961 . S
C308 H296 0.959 . S
C308 C306 1.561 . S
C309 C306 1.526 1_554 S
C309 C310 1.396 . S
C309 C314 1.390 . S
C310 C304 1.465 1_554 S
C310 C309 1.396 . S
C310 C311 1.399 . S
C311 H297 0.929 . S
C311 C310 1.399 . S
C311 C312 1.385 . S
C312 H298 0.931 . S
C312 C311 1.385 . S
C312 C313 1.389 . S
C313 C312 1.389 . S
C313 C314 1.387 . S
C314 H299 0.930 . S
C314 C309 1.390 . S
C314 C313 1.387 . S
H315 C327 0.930 . S
H316 C329 0.930 . S
H317 C330 0.930 . S
H318 C334 0.959 . S
H319 C334 0.959 . S
H320 C334 0.961 . S
H321 C335 0.960 . S
H322 C335 0.945 1_455 S
H323 C335 0.959 . S
H324 C338 0.948 . S
H325 C339 0.931 . S
H326 C341 0.930 . S
C327 H315 0.930 . S
C327 C328 1.399 . S
C327 C332 1.399 . S
C328 C327 1.399 . S
C328 C329 1.376 . S
C329 H316 0.930 . S
C329 C328 1.376 . S
C329 C330 1.388 . S
C330 H317 0.930 . S
C330 C329 1.388 . S
C330 C331 1.390 . S
C331 C330 1.390 . S
C331 C332 1.394 . S
C331 C337 1.465 1_655 S
C332 C327 1.399 . S
C332 C331 1.394 . S
C332 C333 1.516 1_655 S
C333 C332 1.516 1_455 S
C333 C334 1.502 . S
C333 C335 1.561 1_455 S
C333 C336 1.526 . S
C334 H318 0.959 . S
C334 H319 0.959 . S
C334 H320 0.961 . S
C334 C333 1.502 . S
C335 H321 0.960 . S
C335 H322 0.945 1_655 S
C335 H323 0.959 . S
C335 C333 1.561 1_655 S
C336 C333 1.526 . S
C336 C337 1.396 . S
C336 C341 1.390 . S
C337 C331 1.465 1_455 S
C337 C336 1.396 . S
C337 C338 1.399 . S
C338 H324 0.948 . S
C338 C337 1.399 . S
C338 C339 1.385 . S
C339 H325 0.931 . S
C339 C338 1.385 . S
C339 C340 1.389 . S
C340 C339 1.389 . S
C340 C341 1.387 . S
C341 H326 0.930 . S
C341 C336 1.390 . S
C341 C340 1.387 . S
H342 C354 0.930 . S
H343 C356 0.930 . S
H344 C357 0.930 . S
H345 C361 0.959 . S
H346 C361 0.959 . S
H347 C361 0.961 . S
H348 C362 0.960 . S
H349 C362 0.961 . S
H350 C362 0.959 . S
H351 C365 0.929 1_556 S
H352 C366 0.931 . S
H353 C368 0.930 . S
C354 H342 0.930 . S
C354 C355 1.399 . S
C354 C359 1.399 . S
C355 C354 1.399 . S
C355 C356 1.376 . S
C356 H343 0.930 . S
C356 C355 1.376 . S
C356 C357 1.388 1_545 S
C357 H344 0.930 . S
C357 C356 1.388 1_565 S
C357 C358 1.390 . S
C358 C357 1.390 . S
C358 C359 1.394 1_565 S
C358 C364 1.465 1_556 S
C359 C354 1.399 . S
C359 C358 1.394 1_545 S
C359 C360 1.516 1_556 S
C360 C359 1.516 1_554 S
C360 C361 1.502 . S
C360 C362 1.561 . S
C360 C363 1.526 1_545 S
C361 H345 0.959 . S
C361 H346 0.959 . S
C361 H347 0.961 . S
C361 C360 1.502 . S
C362 H348 0.960 . S
C362 H349 0.961 . S
C362 H350 0.959 . S
C362 C360 1.561 . S
C363 C360 1.526 1_565 S
C363 C364 1.396 . S
C363 C368 1.390 . S
C364 C358 1.465 1_554 S
C364 C363 1.396 . S
C364 C365 1.399 . S
C365 H351 0.929 1_554 S
C365 C364 1.399 . S
C365 C366 1.385 . S
C366 H352 0.931 . S
C366 C365 1.385 . S
C366 C367 1.389 . S
C367 C366 1.389 . S
C367 C368 1.387 . S
C368 H353 0.930 . S
C368 C363 1.390 . S
C368 C367 1.387 . S
H369 C381 0.930 . S
H370 C383 0.930 . S
H371 C384 0.930 . S
H372 C388 0.959 . S
H373 C388 0.959 . S
H374 C388 0.961 . S
H375 C389 0.960 . S
H376 C389 0.961 . S
H377 C389 0.959 . S
H378 C392 0.929 . S
H379 C393 0.931 . S
H380 C395 0.930 . S
C381 H369 0.930 . S
C381 C382 1.399 . S
C381 C386 1.399 . S
C382 C381 1.399 . S
C382 C383 1.376 . S
C383 H370 0.930 . S
C383 C382 1.376 . S
C383 C384 1.388 . S
C384 H371 0.930 . S
C384 C383 1.388 . S
C384 C385 1.390 . S
C385 C384 1.390 . S
C385 C386 1.394 . S
C385 C391 1.465 . S
C386 C381 1.399 . S
C386 C385 1.394 . S
C386 C387 1.516 . S
C387 C386 1.516 . S
C387 C388 1.502 . S
C387 C389 1.561 . S
C387 C390 1.526 . S
C388 H372 0.959 . S
C388 H373 0.959 . S
C388 H374 0.961 . S
C388 C387 1.502 . S
C389 H375 0.960 . S
C389 H376 0.961 . S
C389 H377 0.959 . S
C389 C387 1.561 . S
C390 C387 1.526 . S
C390 C391 1.396 . S
C390 C395 1.390 . S
C391 C385 1.465 . S
C391 C390 1.396 . S
C391 C392 1.399 . S
C392 H378 0.929 . S
C392 C391 1.399 . S
C392 C393 1.385 . S
C393 H379 0.931 . S
C393 C392 1.385 . S
C393 C394 1.389 . S
C394 C393 1.389 . S
C394 C395 1.387 . S
C395 H380 0.930 . S
C395 C390 1.390 . S
C395 C394 1.387 . S
H396 C408 0.930 . S
H397 C410 0.930 . S
H398 C411 0.930 . S
H399 C415 0.959 . S
H400 C415 0.959 . S
H401 C415 0.961 . S
H402 C416 0.960 1_556 S
H403 C416 0.961 1_455 S
H404 C416 0.959 . S
H405 C419 0.929 1_655 S
H406 C420 0.931 . S
H407 C422 0.930 . S
C408 H396 0.930 . S
C408 C409 1.399 . S
C408 C413 1.399 . S
C409 C408 1.399 . S
C409 C410 1.376 . S
C410 H397 0.930 . S
C410 C409 1.376 . S
C410 C411 1.388 . S
C411 H398 0.930 . S
C411 C410 1.388 . S
C411 C412 1.390 . S
C412 C411 1.390 . S
C412 C413 1.394 . S
C412 C418 1.465 1_656 S
C413 C408 1.399 . S
C413 C412 1.394 . S
C413 C414 1.516 1_655 S
C414 C413 1.516 1_455 S
C414 C415 1.502 . S
C414 C416 1.561 1_456 S
C414 C417 1.526 1_556 S
C415 H399 0.959 . S
C415 H400 0.959 . S
C415 H401 0.961 . S
C415 C414 1.502 . S
C416 H402 0.960 1_554 S
C416 H403 0.961 1_655 S
C416 H404 0.959 . S
C416 C414 1.561 1_654 S
C417 C414 1.526 1_554 S
C417 C418 1.396 . S
C417 C422 1.390 . S
C418 C412 1.465 1_454 S
C418 C417 1.396 . S
C418 C419 1.399 . S
C419 H405 0.929 1_455 S
C419 C418 1.399 . S
C419 C420 1.385 . S
C420 H406 0.931 . S
C420 C419 1.385 . S
C420 C421 1.389 . S
C421 C420 1.389 . S
C421 C422 1.387 . S
C422 H407 0.930 . S
C422 C417 1.390 . S
C422 C421 1.387 . S
H423 C435 0.930 . S
H424 C437 0.930 . S
H425 C438 0.930 . S
H426 C442 0.959 . S
H427 C442 0.959 . S
H428 C442 0.961 . S
H429 C443 0.960 . S
H430 C443 0.961 . S
H431 C443 0.959 . S
H432 C446 0.929 . S
H433 C447 0.931 . S
H434 C449 0.930 . S
C435 H423 0.930 . S
C435 C436 1.399 . S
C435 C440 1.399 . S
C436 C435 1.399 . S
C436 C437 1.376 . S
C437 H424 0.930 . S
C437 C436 1.376 . S
C437 C438 1.388 . S
C438 H425 0.930 . S
C438 C437 1.388 . S
C438 C439 1.390 . S
C439 C438 1.390 . S
C439 C440 1.394 . S
C439 C445 1.457 1_545 S
C440 C435 1.399 . S
C440 C439 1.394 . S
C440 C441 1.516 1_545 S
C441 C440 1.516 1_565 S
C441 C442 1.502 . S
C441 C443 1.561 . S
C441 C444 1.526 . S
C442 H426 0.959 . S
C442 H427 0.959 . S
C442 H428 0.961 . S
C442 C441 1.502 . S
C443 H429 0.960 . S
C443 H430 0.961 . S
C443 H431 0.959 . S
C443 C441 1.561 . S
C444 C441 1.526 . S
C444 C445 1.411 . S
C444 C449 1.390 . S
C445 C439 1.457 1_565 S
C445 C444 1.411 . S
C445 C446 1.394 1_565 S
C446 H432 0.929 . S
C446 C445 1.394 1_545 S
C446 C447 1.385 1_545 S
C447 H433 0.931 . S
C447 C446 1.385 1_565 S
C447 C448 1.389 . S
C448 C447 1.389 . S
C448 C449 1.387 . S
C449 H434 0.930 . S
C449 C444 1.390 . S
C449 C448 1.387 . S
H450 C462 0.930 . S
H451 C464 0.930 . S
H452 C465 0.930 . S
H453 C469 0.959 . S
H454 C469 0.959 . S
H455 C469 0.961 . S
H456 C470 0.960 . S
H457 C470 0.961 . S
H458 C470 0.959 . S
H459 C473 0.929 . S
H460 C474 0.931 . S
H461 C476 0.930 . S
C462 H450 0.930 . S
C462 C463 1.399 . S
C462 C467 1.399 . S
C463 C462 1.399 . S
C463 C464 1.376 . S
C464 H451 0.930 . S
C464 C463 1.376 . S
C464 C465 1.388 1_554 S
C465 H452 0.930 . S
C465 C464 1.388 1_556 S
C465 C466 1.390 . S
C466 C465 1.390 . S
C466 C467 1.394 1_556 S
C466 C472 1.465 . S
C467 C462 1.399 . S
C467 C466 1.394 1_554 S
C467 C468 1.516 . S
C468 C467 1.516 . S
C468 C469 1.502 . S
C468 C470 1.561 . S
C468 C471 1.526 1_554 S
C469 H453 0.959 . S
C469 H454 0.959 . S
C469 H455 0.961 . S
C469 C468 1.502 . S
C470 H456 0.960 . S
C470 H457 0.961 . S
C470 H458 0.959 . S
C470 C468 1.561 . S
C471 C468 1.526 1_556 S
C471 C472 1.396 . S
C471 C476 1.390 . S
C472 C466 1.465 . S
C472 C471 1.396 . S
C472 C473 1.399 . S
C473 H459 0.929 . S
C473 C472 1.399 . S
C473 C474 1.385 . S
C474 H460 0.931 . S
C474 C473 1.385 . S
C474 C475 1.389 . S
C475 C474 1.389 . S
C475 C476 1.387 . S
C476 H461 0.930 . S
C476 C471 1.390 . S
C476 C475 1.387 . S
H477 C489 0.930 . S
H478 C491 0.930 . S
H479 C492 0.930 . S
H480 C496 0.966 . S
H481 C496 0.952 1_455 S
H482 C496 0.975 . S
H483 C497 0.960 . S
H484 C497 0.961 . S
H485 C497 0.959 . S
H486 C500 0.929 . S
H487 C501 0.931 . S
H488 C503 0.930 . S
C489 H477 0.930 . S
C489 C490 1.399 . S
C489 C494 1.399 . S
C490 C489 1.399 . S
C490 C491 1.376 . S
C491 H478 0.930 . S
C491 C490 1.376 . S
C491 C492 1.388 . S
C492 H479 0.930 . S
C492 C491 1.388 . S
C492 C493 1.390 . S
C493 C492 1.390 . S
C493 C494 1.394 . S
C493 C499 1.465 1_655 S
C494 C489 1.399 . S
C494 C493 1.394 . S
C494 C495 1.516 1_655 S
C495 C494 1.516 1_455 S
C495 C496 1.489 1_455 S
C495 C497 1.561 . S
C495 C498 1.526 . S
C496 H480 0.966 . S
C496 H481 0.952 1_655 S
C496 H482 0.975 . S
C496 C495 1.489 1_655 S
C497 H483 0.960 . S
C497 H484 0.961 . S
C497 H485 0.959 . S
C497 C495 1.561 . S
C498 C495 1.526 . S
C498 C499 1.396 . S
C498 C503 1.390 . S
C499 C493 1.465 1_455 S
C499 C498 1.396 . S
C499 C500 1.399 . S
C500 H486 0.929 . S
C500 C499 1.399 . S
C500 C501 1.385 . S
C501 H487 0.931 . S
C501 C500 1.385 . S
C501 C502 1.389 . S
C502 C501 1.389 . S
C502 C503 1.387 . S
C503 H488 0.930 . S
C503 C498 1.390 . S
C503 C502 1.387 . S
H504 C516 0.930 . S
H505 C518 0.930 . S
H506 C519 0.930 . S
H507 C523 0.959 . S
H508 C523 0.959 1_545 S
H509 C523 0.961 . S
H510 C524 0.960 . S
H511 C524 0.961 . S
H512 C524 0.959 . S
H513 C527 0.929 . S
H514 C528 0.931 . S
H515 C530 0.930 . S
C516 H504 0.930 . S
C516 C517 1.399 . S
C516 C521 1.399 . S
C517 C516 1.399 . S
C517 C518 1.376 . S
C518 H505 0.930 . S
C518 C517 1.376 . S
C518 C519 1.388 . S
C519 H506 0.930 . S
C519 C518 1.388 . S
C519 C520 1.390 . S
C520 C519 1.390 . S
C520 C521 1.394 . S
C520 C526 1.465 1_564 S
C521 C516 1.399 . S
C521 C520 1.394 . S
C521 C522 1.516 1_565 S
C522 C521 1.516 1_545 S
C522 C523 1.502 1_544 S
C522 C524 1.561 . S
C522 C525 1.526 1_554 S
C523 H507 0.959 . S
C523 H508 0.959 1_565 S
C523 H509 0.961 . S
C523 C522 1.502 1_566 S
C524 H510 0.960 . S
C524 H511 0.961 . S
C524 H512 0.959 . S
C524 C522 1.561 . S
C525 C522 1.526 1_556 S
C525 C526 1.396 . S
C525 C530 1.390 . S
C526 C520 1.465 1_546 S
C526 C525 1.396 . S
C526 C527 1.399 . S
C527 H513 0.929 . S
C527 C526 1.399 . S
C527 C528 1.385 . S
C528 H514 0.931 . S
C528 C527 1.385 . S
C528 C529 1.389 . S
C529 C528 1.389 . S
C529 C530 1.387 . S
C530 H515 0.930 . S
C530 C525 1.390 . S
C530 C529 1.387 . S
H531 C543 0.930 . S
H532 C545 0.930 . S
H533 C546 0.930 . S
H534 C550 0.959 . S
H535 C550 0.959 . S
H536 C550 0.961 . S
H537 C551 0.960 . S
H538 C551 0.961 . S
H539 C551 0.959 . S
H540 C554 0.929 . S
H541 C555 0.931 . S
H542 C557 0.930 . S
C543 H531 0.930 . S
C543 C544 1.399 . S
C543 C548 1.399 . S
C544 C543 1.399 . S
C544 C545 1.376 . S
C545 H532 0.930 . S
C545 C544 1.376 . S
C545 C546 1.388 . S
C546 H533 0.930 . S
C546 C545 1.388 . S
C546 C547 1.390 . S
C547 C546 1.390 . S
C547 C548 1.394 . S
C547 C553 1.465 . S
C548 C543 1.399 . S
C548 C547 1.394 . S
C548 C549 1.516 . S
C549 C548 1.516 . S
C549 C550 1.502 . S
C549 C551 1.561 . S
C549 C552 1.526 . S
C550 H534 0.959 . S
C550 H535 0.959 . S
C550 H536 0.961 . S
C550 C549 1.502 . S
C551 H537 0.960 . S
C551 H538 0.961 . S
C551 H539 0.959 . S
C551 C549 1.561 . S
C552 C549 1.526 . S
C552 C553 1.396 . S
C552 C557 1.390 . S
C553 C547 1.465 . S
C553 C552 1.396 . S
C553 C554 1.399 . S
C554 H540 0.929 . S
C554 C553 1.399 . S
C554 C555 1.385 . S
C555 H541 0.931 . S
C555 C554 1.385 . S
C555 C556 1.389 . S
C556 C555 1.389 . S
C556 C557 1.387 . S
C557 H542 0.930 . S
C557 C552 1.390 . S
C557 C556 1.387 . S
H558 C570 0.930 . S
H559 C572 0.930 . S
H560 C573 0.930 1_455 S
H561 C577 0.959 . S
H562 C577 0.959 . S
H563 C577 0.961 . S
H564 C578 0.960 1_556 S
H565 C578 0.961 1_455 S
H566 C578 0.959 1_456 S
H567 C581 0.929 1_556 S
H568 C582 0.931 . S
H569 C584 0.930 . S
C570 H558 0.930 . S
C570 C571 1.399 . S
C570 C575 1.399 . S
C571 C570 1.399 . S
C571 C572 1.376 . S
C572 H559 0.930 . S
C572 C571 1.376 . S
C572 C573 1.388 . S
C573 H560 0.930 1_655 S
C573 C572 1.388 . S
C573 C574 1.390 . S
C574 C573 1.390 . S
C574 C575 1.394 . S
C574 C580 1.465 1_656 S
C575 C570 1.399 . S
C575 C574 1.394 . S
C575 C576 1.516 1_556 S
C576 C575 1.516 1_554 S
C576 C577 1.502 . S
C576 C578 1.561 . S
C576 C579 1.526 1_655 S
C577 H561 0.959 . S
C577 H562 0.959 . S
C577 H563 0.961 . S
C577 C576 1.502 . S
C578 H564 0.960 1_554 S
C578 H565 0.961 1_655 S
C578 H566 0.959 1_654 S
C578 C576 1.561 . S
C579 C576 1.526 1_455 S
C579 C580 1.396 . S
C579 C584 1.390 . S
C580 C574 1.465 1_454 S
C580 C579 1.396 . S
C580 C581 1.399 . S
C581 H567 0.929 1_554 S
C581 C580 1.399 . S
C581 C582 1.385 . S
C582 H568 0.931 . S
C582 C581 1.385 . S
C582 C583 1.389 . S
C583 C582 1.389 . S
C583 C584 1.387 . S
C584 H569 0.930 . S
C584 C579 1.390 . S
C584 C583 1.387 . S
H585 C597 0.930 . S
H586 C599 0.930 . S
H587 C600 0.930 1_545 S
H588 C604 0.959 . S
H589 C604 0.959 . S
H590 C604 0.961 . S
H591 C605 0.960 . S
H592 C605 0.961 . S
H593 C605 0.959 . S
H594 C608 0.929 . S
H595 C609 0.931 . S
H596 C611 0.930 . S
C597 H585 0.930 . S
C597 C598 1.399 . S
C597 C602 1.399 . S
C598 C597 1.399 . S
C598 C599 1.376 . S
C599 H586 0.930 . S
C599 C598 1.376 . S
C599 C600 1.388 . S
C600 H587 0.930 1_565 S
C600 C599 1.388 . S
C600 C601 1.390 . S
C601 C600 1.390 . S
C601 C602 1.394 . S
C601 C607 1.465 1_565 S
C602 C597 1.399 . S
C602 C601 1.394 . S
C602 C603 1.516 . S
C603 C602 1.516 . S
C603 C604 1.502 . S
C603 C605 1.561 . S
C603 C606 1.526 1_565 S
C604 H588 0.959 . S
C604 H589 0.959 . S
C604 H590 0.961 . S
C604 C603 1.502 . S
C605 H591 0.960 . S
C605 H592 0.961 . S
C605 H593 0.959 . S
C605 C603 1.561 . S
C606 C603 1.526 1_545 S
C606 C607 1.396 . S
C606 C611 1.390 . S
C607 C601 1.465 1_545 S
C607 C606 1.396 . S
C607 C608 1.399 . S
C608 H594 0.929 . S
C608 C607 1.399 . S
C608 C609 1.385 . S
C609 H595 0.931 . S
C609 C608 1.385 . S
C609 C610 1.389 . S
C610 C609 1.389 . S
C610 C611 1.387 . S
C611 H596 0.930 . S
C611 C606 1.390 . S
C611 C610 1.387 . S
C139 C19 1.383 . S
C151 C104 1.350 . S
C166 C40 1.346 . S
C178 C125 1.379 . S
C193 C20 1.337 . S
C205 C62 1.352 . S
C220 C82 1.380 . S
C232 C41 1.348 . S
C247 C61 1.362 . S
C259 C103 1.401 . S
C274 C83 1.391 . S
C286 C124 1.356 . S
C301 C121 1.461 . S
C313 C3 1.464 . S
C328 C24 1.394 . S
C340 C16 1.355 . S
C355 C37 1.397 . S
C367 C58 1.460 . S
C382 C45 1.370 . S
C394 C66 1.361 . S
C409 C79 1.406 . S
C421 C87 1.356 . S
C436 C108 1.472 . S
C448 C100 1.426 . S
C463 C46 1.241 . S
C475 C67 1.127 . S
C490 C70 1.162 . S
C502 C88 1.160 . S
C517 C91 1.144 . S
C529 C109 1.181 . S
C544 C112 1.135 . S
C556 C4 1.264 . S
C571 C25 1.125 . S
C583 C7 1.233 . S
C598 C49 1.159 . S
C610 C28 1.278 . S
