# Generated by pormake.
# Topology smm, (6)-cn, num edge types: 1
# Building blocks:
#     Node 0, Type 0, BuildingBlock: HISSIN_clean_sbu_0, # of connection points: 6
#     Node 1, Type 0, BuildingBlock: HISSIN_clean_sbu_0, # of connection points: 6
#     Node 2, Type 0, BuildingBlock: HISSIN_clean_sbu_0, # of connection points: 6
#     Node 3, Type 0, BuildingBlock: HISSIN_clean_sbu_0, # of connection points: 6
#     Node 4, Type 0, BuildingBlock: HISSIN_clean_sbu_0, # of connection points: 6
#     Node 5, Type 0, BuildingBlock: HISSIN_clean_sbu_0, # of connection points: 6
#     Node 6, Type 0, BuildingBlock: HISSIN_clean_sbu_0, # of connection points: 6
#     Node 7, Type 0, BuildingBlock: HISSIN_clean_sbu_0, # of connection points: 6
#     Node 8, Type 0, BuildingBlock: HISSIN_clean_sbu_0, # of connection points: 6
#     Edge 9, Type (0, 0), BuildingBlock: OJICUG_clean_linker_0, # of connection points: 2
#     Edge 10, Type (0, 0), BuildingBlock: OJICUG_clean_linker_0, # of connection points: 2
#     Edge 11, Type (0, 0), BuildingBlock: OJICUG_clean_linker_0, # of connection points: 2
#     Edge 12, Type (0, 0), BuildingBlock: OJICUG_clean_linker_0, # of connection points: 2
#     Edge 13, Type (0, 0), BuildingBlock: OJICUG_clean_linker_0, # of connection points: 2
#     Edge 14, Type (0, 0), BuildingBlock: OJICUG_clean_linker_0, # of connection points: 2
#     Edge 15, Type (0, 0), BuildingBlock: OJICUG_clean_linker_0, # of connection points: 2
#     Edge 16, Type (0, 0), BuildingBlock: OJICUG_clean_linker_0, # of connection points: 2
#     Edge 17, Type (0, 0), BuildingBlock: OJICUG_clean_linker_0, # of connection points: 2
#     Edge 18, Type (0, 0), BuildingBlock: OJICUG_clean_linker_0, # of connection points: 2
#     Edge 19, Type (0, 0), BuildingBlock: OJICUG_clean_linker_0, # of connection points: 2
#     Edge 20, Type (0, 0), BuildingBlock: OJICUG_clean_linker_0, # of connection points: 2
#     Edge 21, Type (0, 0), BuildingBlock: OJICUG_clean_linker_0, # of connection points: 2
#     Edge 22, Type (0, 0), BuildingBlock: OJICUG_clean_linker_0, # of connection points: 2
#     Edge 23, Type (0, 0), BuildingBlock: OJICUG_clean_linker_0, # of connection points: 2
#     Edge 24, Type (0, 0), BuildingBlock: OJICUG_clean_linker_0, # of connection points: 2
#     Edge 25, Type (0, 0), BuildingBlock: OJICUG_clean_linker_0, # of connection points: 2
#     Edge 26, Type (0, 0), BuildingBlock: OJICUG_clean_linker_0, # of connection points: 2
#     Edge 27, Type (0, 0), BuildingBlock: OJICUG_clean_linker_0, # of connection points: 2
#     Edge 28, Type (0, 0), BuildingBlock: OJICUG_clean_linker_0, # of connection points: 2
#     Edge 29, Type (0, 0), BuildingBlock: OJICUG_clean_linker_0, # of connection points: 2
#     Edge 30, Type (0, 0), BuildingBlock: OJICUG_clean_linker_0, # of connection points: 2
#     Edge 31, Type (0, 0), BuildingBlock: OJICUG_clean_linker_0, # of connection points: 2
#     Edge 32, Type (0, 0), BuildingBlock: OJICUG_clean_linker_0, # of connection points: 2
#     Edge 33, Type (0, 0), BuildingBlock: OJICUG_clean_linker_0, # of connection points: 2
#     Edge 34, Type (0, 0), BuildingBlock: OJICUG_clean_linker_0, # of connection points: 2
#     Edge 35, Type (0, 0), BuildingBlock: OJICUG_clean_linker_0, # of connection points: 2
# Relax obj value: 0.024
# Max RMSD: 0.096
# Mean RMSD: 0.096
data_MOF--net-smm--node1-HISSIN_clean_sbu_0--edge1-OJICUG_clean_linker_0
_symmetry_space_group_name_H-M    P1
_symmetry_Int_Tables_number       1
_symmetry_cell_setting            triclinic
loop_
_symmetry_equiv_pos_as_xyz
'x, y, z'
_cell_length_a     56.587544
_cell_length_b     56.426665
_cell_length_c     11.223786
_cell_angle_alpha  91.774825
_cell_angle_beta   89.187862
_cell_angle_gamma 119.88888
loop_
_atom_site_label
_atom_site_type_symbol
_atom_site_fract_x
_atom_site_fract_y
_atom_site_fract_z
_atom_type_partial_charge
Eu0 Eu 0.07065 0.2363 -0.02641 0.0
Eu1 Eu 1.01686 0.17239 -0.03483 0.0
C2 C 0.0428 0.20529 0.72799 0.0
C3 C 0.12402 0.31244 0.91789 0.0
C4 C 0.11189 0.31574 0.81617 0.0
C5 C 0.15906 0.36025 0.91211 0.0
C6 C 0.12338 0.34131 0.76264 0.0
C7 C 0.14761 0.33483 -0.03478 0.0
C8 C 0.14719 0.36388 0.80992 0.0
C9 C 0.11248 0.28615 -0.02203 0.0
O10 O 0.05415 0.16806 0.94106 0.0
O11 O 0.08674 0.20875 0.02696 0.0
C12 C 0.07845 0.18357 -0.01181 0.0
O13 O 0.05631 0.22639 0.16238 0.0
O14 O 0.99306 0.13418 0.86412 0.0
O15 O 0.97942 0.13909 0.03965 0.0
O16 O 1.0319 0.17922 0.15445 0.0
C17 C 0.04409 0.20267 0.21443 0.0
O18 O 1.03408 0.24078 0.93466 0.0
O19 O 1.00064 0.20067 0.0132 0.0
O20 O 1.02002 0.19023 0.78539 0.0
O21 O 0.09027 0.27869 0.03938 0.0
O22 O 0.11206 0.26574 0.91838 0.0
O23 O 0.06584 0.22083 0.78417 0.0
C24 C 0.96662 0.09398 -0.02814 0.0
C25 C 0.98562 0.08582 -0.00145 0.0
C26 C 0.93039 0.04657 -0.02459 0.0
C27 C 0.97702 0.05806 0.01268 0.0
C28 C 0.93899 0.07422 -0.03855 0.0
C29 C 0.94928 0.03804 0.00031 0.0
C30 C 0.97506 0.12263 0.94805 0.0
C31 C 1.00958 0.22587 -0.02027 0.0
H32 H 0.0936 0.29862 0.77852 0.0
H33 H 0.17701 0.37722 0.95268 0.0
H34 H 0.11378 0.34334 0.68382 0.0
H35 H 0.15713 0.3327 0.0442 0.0
H36 H 1.00708 0.10084 0.00683 0.0
H37 H 0.90898 0.0318 -0.03684 0.0
H38 H 0.99209 0.05229 0.03307 0.0
H39 H 0.92406 0.08013 0.94 0.0
Eu40 Eu 0.85625 0.86105 -0.01906 0.0
Eu41 Eu 0.91923 0.86962 -0.02541 0.0
C42 C 0.88659 0.86278 0.73632 0.0
C43 C 0.7805 0.83774 0.91359 0.0
C44 C 0.76649 0.80899 0.90787 0.0
C45 C 0.74236 0.8371 0.81316 0.0
C46 C 0.74039 0.79444 0.85748 0.0
C47 C 0.76836 0.8516 0.864 0.0
C48 C 0.72775 0.80832 0.81162 0.0
C49 C 0.80672 0.85365 -0.02213 0.0
O50 O 0.924 0.91144 0.95314 0.0
O51 O 0.88429 0.90481 0.04101 0.0
C52 C 0.90909 0.92109 0.0016 0.0
O53 O 0.86611 0.8572 0.16961 0.0
O54 O 0.95655 0.88192 0.87373 0.0
O55 O 0.95266 0.86588 0.05008 0.0
O56 O 0.91308 0.87862 0.16582 0.0
C57 C 0.88981 0.86808 0.22379 0.0
O58 O 0.85078 0.81924 0.93803 0.0
O59 O 0.8908 0.8255 0.0171 0.0
O60 O 0.90091 0.85418 0.79258 0.0
O61 O 0.8144 0.84035 0.04567 0.0
O62 O 0.82706 0.87289 0.92011 0.0
O63 O 0.87184 0.87128 0.79415 0.0
C64 C 0.99722 0.89672 -0.01816 0.0
C65 C 1.00558 0.92425 0.00832 0.0
C66 C 0.04445 0.90754 -0.01468 0.0
C67 C 1.03335 0.94341 0.02235 0.0
C68 C 1.01678 0.88849 -0.02856 0.0
C69 C 0.05316 0.9353 0.01009 0.0
C70 C 0.96849 0.87644 0.95828 0.0
C71 C 0.86544 0.80943 -0.01749 0.0
H72 H 0.77533 0.79768 0.94522 0.0
H73 H 0.73352 0.84849 0.77679 0.0
H74 H 0.7297 0.77232 0.85891 0.0
H75 H 0.77875 0.87375 0.86713 0.0
H76 H 0.9907 0.93096 0.01652 0.0
H77 H 0.05907 0.9006 -0.02675 0.0
H78 H 1.0393 0.96454 0.04264 0.0
H79 H 1.01068 0.86734 0.95014 0.0
Eu80 Eu 0.22953 1.01865 0.00133 0.0
Eu81 Eu 0.22038 0.07283 0.00719 0.0
C82 C 0.22742 0.04686 0.76241 0.0
C83 C 0.2511 0.96427 0.93014 0.0
C84 C 0.26648 0.97621 0.82763 0.0
C85 C 0.26402 0.92925 0.91626 0.0
C86 C 0.28064 0.96466 0.76968 0.0
C87 C 0.24995 0.94076 -0.02627 0.0
C88 C 0.27954 0.94098 0.81341 0.0
C89 C 0.23652 0.97607 -0.00462 0.0
O90 O 0.17914 0.03586 -0.02863 0.0
O91 O 0.18606 1.00359 0.05887 0.0
C92 C 0.16966 1.01166 0.01756 0.0
O93 O 0.23453 0.03313 0.19215 0.0
O94 O 0.213 0.10111 0.90839 0.0
O95 O 0.21879 0.10688 0.09935 0.0
O96 O 0.21179 0.05748 0.19458 0.0
C97 C 0.22308 0.04538 0.24957 0.0
O98 O 0.27065 0.05515 -0.03767 0.0
O99 O 0.26438 0.08853 0.05434 0.0
O100 O 0.2353 0.06971 0.82384 0.0
O101 O 0.25135 0.99824 0.05923 0.0
O102 O 0.21697 0.97694 0.93917 0.0
O103 O 0.21965 1.02367 0.81455 0.0
C104 C 0.19046 0.12174 0.01105 0.0
C105 C 0.19195 0.14074 0.09857 0.0
C106 C 0.15016 0.12037 0.92913 0.0
C107 C 0.17288 0.14966 0.10093 0.0
C108 C 0.16913 0.11134 0.92724 0.0
C109 C 0.15199 0.13994 0.01501 0.0
C110 C 0.21246 0.11481 0.00297 0.0
C111 C 0.28046 0.0795 0.01397 0.0
H112 H 0.2676 0.99446 0.79294 0.0
H113 H 0.26316 0.91141 0.95413 0.0
H114 H 0.29229 0.97414 0.69045 0.0
H115 H 0.23834 0.93141 0.05331 0.0
H116 H 0.20822 0.14913 0.16396 0.0
H117 H 0.13459 0.11264 0.86067 0.0
H118 H 0.17467 0.16436 0.16966 0.0
H119 H 0.16745 0.09673 0.85822 0.0
Eu120 Eu 0.73847 0.57139 0.31568 0.0
Eu121 Eu 0.68534 0.50727 0.30703 0.0
C122 C 0.71053 0.54037 0.07002 0.0
C123 C 0.79187 0.6473 0.25597 0.0
C124 C 0.7798 0.6502 0.15308 0.0
C125 C 0.82722 0.69493 0.246 0.0
C126 C 0.79147 0.67548 0.0969 0.0
C127 C 0.81559 0.6698 0.30176 0.0
C128 C 0.81541 0.69816 0.14263 0.0
C129 C 0.78016 0.62133 0.31875 0.0
O130 O 0.72313 0.50404 0.27782 0.0
O131 O 0.7545 0.54396 0.37231 0.0
C132 C 0.74696 0.51925 0.32933 0.0
O133 O 0.72392 0.56179 0.50425 0.0
O134 O 0.661 0.46944 0.20447 0.0
O135 O 0.64937 0.47293 0.38592 0.0
O136 O 0.70048 0.51463 0.49644 0.0
C137 C 0.71204 0.53809 0.55646 0.0
O138 O 0.70155 0.57537 0.27777 0.0
O139 O 0.66826 0.53486 0.35428 0.0
O140 O 0.68786 0.525 0.12758 0.0
O141 O 0.75767 0.61404 0.37772 0.0
O142 O 0.78009 0.60071 0.26259 0.0
O143 O 0.73357 0.55601 0.12602 0.0
C144 C 0.63788 0.42819 0.31265 0.0
C145 C 0.62023 0.41356 0.40581 0.0
C146 C 0.63791 0.38667 0.2461 0.0
C147 C 0.61138 0.38576 0.41863 0.0
C148 C 0.64683 0.41447 0.23358 0.0
C149 C 0.61979 0.37184 0.33791 0.0
C150 C 0.64473 0.45679 0.29271 0.0
C151 C 0.67701 0.56011 0.32194 0.0
H152 H 0.76142 0.63299 0.11654 0.0
H153 H 0.84527 0.71201 0.2854 0.0
H154 H 0.78191 0.67721 0.01725 0.0
H155 H 0.82507 0.66799 0.38156 0.0
H156 H 0.61281 0.42351 0.46754 0.0
H157 H 0.64453 0.37663 0.1811 0.0
H158 H 0.59775 0.37514 0.49137 0.0
H159 H 0.6602 0.42498 0.15994 0.0
Eu160 Eu 0.5227 0.19427 0.32121 0.0
Eu161 Eu 0.58565 0.20248 0.31527 0.0
C162 C 0.55302 0.19578 0.0768 0.0
C163 C 0.44712 0.17119 0.25191 0.0
C164 C 0.43552 0.18518 0.1986 0.0
C165 C 0.40676 0.12803 0.19639 0.0
C166 C 0.40969 0.17082 0.14608 0.0
C167 C 0.43269 0.14243 0.24852 0.0
C168 C 0.3947 0.14206 0.14643 0.0
C169 C 0.47323 0.187 0.31717 0.0
O170 O 0.59075 0.24439 0.29446 0.0
O171 O 0.55083 0.23821 0.3788 0.0
C172 C 0.57583 0.25424 0.34091 0.0
O173 O 0.53255 0.19073 0.51028 0.0
O174 O 0.62278 0.21428 0.21365 0.0
O175 O 0.61924 0.19911 0.39155 0.0
O176 O 0.57949 0.21148 0.50644 0.0
C177 C 0.55623 0.20129 0.56437 0.0
O178 O 0.51711 0.15234 0.27928 0.0
O179 O 0.55712 0.15841 0.35787 0.0
O180 O 0.56733 0.18716 0.1331 0.0
O181 O 0.48077 0.17362 0.38513 0.0
O182 O 0.49367 0.20627 0.26009 0.0
O183 O 0.53829 0.20432 0.13449 0.0
C184 C 0.66364 0.22986 0.32118 0.0
C185 C 0.67174 0.25732 0.34811 0.0
C186 C 0.71107 0.24131 0.32135 0.0
C187 C 0.69948 0.27675 0.3608 0.0
C188 C 0.68344 0.22199 0.30883 0.0
C189 C 0.71952 0.26899 0.34673 0.0
C190 C 0.63492 0.2093 0.29902 0.0
C191 C 0.53172 0.14244 0.32353 0.0
H192 H 0.44623 0.20734 0.19993 0.0
H193 H 0.39575 0.10593 0.1995 0.0
H194 H 0.40128 0.18231 0.1067 0.0
H195 H 0.44107 0.13101 0.28884 0.0
H196 H 0.65668 0.26376 0.35774 0.0
H197 H 0.72585 0.23462 0.30782 0.0
H198 H 0.70522 0.29781 0.38154 0.0
H199 H 0.67755 0.20091 0.28707 0.0
Eu200 Eu 0.89577 0.35284 0.32672 0.0
Eu201 Eu 0.88682 0.40725 0.3313 0.0
C202 C 0.89366 0.38097 0.08779 0.0
C203 C 0.91724 0.29827 0.2573 0.0
C204 C 0.93259 0.30998 0.15444 0.0
C205 C 0.93028 0.26331 0.24586 0.0
C206 C 0.94678 0.29833 0.09748 0.0
C207 C 0.91619 0.27493 0.30234 0.0
C208 C 0.94573 0.27478 0.14255 0.0
C209 C 0.90253 0.31011 0.3212 0.0
O210 O 0.84517 0.37026 0.30226 0.0
O211 O 0.85243 0.33777 0.38584 0.0
C212 C 0.8359 0.34599 0.34766 0.0
O213 O 0.90022 0.36724 0.51769 0.0
O214 O 0.87584 0.43296 0.23246 0.0
O215 O 0.88939 0.44403 0.41549 0.0
O216 O 0.87837 0.39253 0.51978 0.0
C217 C 0.88913 0.37991 0.57483 0.0
O218 O 0.93723 0.38902 0.28957 0.0
O219 O 0.93091 0.42289 0.37635 0.0
O220 O 0.90212 0.40391 0.1492 0.0
O221 O 0.91717 0.33211 0.38628 0.0
O222 O 0.8833 0.31123 0.26338 0.0
O223 O 0.8855 0.35775 0.14027 0.0
C224 C 0.86028 0.45913 0.33971 0.0
C225 C 0.83249 0.44048 0.35595 0.0
C226 C 0.85028 0.49627 0.3391 0.0
C227 C 0.81363 0.44971 0.3627 0.0
C228 C 0.86904 0.48704 0.33261 0.0
C229 C 0.82228 0.47773 0.35304 0.0
C230 C 0.88034 0.45004 0.32156 0.0
C231 C 0.94697 0.41363 0.33839 0.0
H232 H 0.93366 0.3281 0.11862 0.0
H233 H 0.92946 0.24559 0.28475 0.0
H234 H 0.95837 0.3076 0.01789 0.0
H235 H 0.90461 0.26575 0.3822 0.0
H236 H 0.82537 0.41881 0.36132 0.0
H237 H 0.85768 0.51788 0.32933 0.0
H238 H 0.79228 0.43491 0.3749 0.0
H239 H 0.8904 0.50169 0.31902 0.0
Eu240 Eu 0.40501 0.90338 0.64569 0.0
Eu241 Eu 0.35146 0.83939 0.63699 0.0
C242 C 0.37736 0.87228 0.40008 0.0
C243 C 0.45839 0.97948 0.58867 0.0
C244 C 0.44626 0.98269 0.48675 0.0
C245 C 0.49361 1.02721 0.58132 0.0
C246 C 0.45783 1.00817 0.43232 0.0
C247 C 0.48207 1.00188 0.63533 0.0
C248 C 0.48175 0.03074 0.47887 0.0
C249 C 0.44676 0.95328 0.64974 0.0
O250 O 0.389 0.83539 0.61333 0.0
O251 O 0.42088 0.87589 0.70284 0.0
C252 C 0.413 0.85086 0.66319 0.0
O253 O 0.39044 0.89353 0.83434 0.0
O254 O 0.32802 0.80095 0.53704 0.0
O255 O 0.3137 0.8063 0.7103 0.0
O256 O 0.36632 0.84633 0.82661 0.0
C257 C 0.37833 0.86982 0.88651 0.0
O258 O 0.36841 0.90773 0.60583 0.0
O259 O 0.33506 0.86756 0.68418 0.0
O260 O 0.35457 0.85725 0.45739 0.0
O261 O 0.42441 0.94587 0.71002 0.0
O262 O 0.44652 0.93279 0.59157 0.0
O263 O 0.40039 0.88777 0.45644 0.0
C264 C 0.30049 0.76094 0.64477 0.0
C265 C 0.31903 0.75216 0.67111 0.0
C266 C 0.26342 0.71394 0.65062 0.0
C267 C 0.30978 0.7243 0.68605 0.0
C268 C 0.27267 0.7417 0.63587 0.0
C269 C 0.28184 0.70478 0.67479 0.0
C270 C 0.30958 0.78968 0.61963 0.0
C271 C 0.34389 0.89272 0.65043 0.0
H272 H 0.4279 0.96556 0.4496 0.0
H273 H 0.51164 0.04419 0.62136 0.0
H274 H 0.44823 1.01013 0.35334 0.0
H275 H 0.49159 0.99983 0.71446 0.0
H276 H 0.34062 0.76677 0.67834 0.0
H277 H 0.24188 0.69956 0.63934 0.0
H278 H 0.3245 0.71804 0.70597 0.0
H279 H 0.2581 0.7481 0.6148 0.0
Eu280 Eu 0.1869 0.52747 0.66157 0.0
Eu281 Eu 0.25 0.53625 0.65517 0.0
C282 C 0.21706 0.52882 0.41603 0.0
C283 C 0.11106 0.50572 0.60395 0.0
C284 C 0.10746 0.4904 0.49796 0.0
C285 C 0.06311 0.49226 0.60115 0.0
C286 C 0.08169 0.47605 0.4437 0.0
C287 C 0.08874 0.5065 0.65497 0.0
C288 C 0.0592 0.47692 0.49458 0.0
C289 C 0.13759 0.52078 0.66469 0.0
O290 O 0.25439 0.57764 0.62776 0.0
O291 O 0.21531 0.57136 0.72015 0.0
C292 C 0.23983 0.5875 0.6776 0.0
O293 O 0.19654 0.52271 0.84907 0.0
O294 O 0.28678 0.54662 0.55349 0.0
O295 O 0.28434 0.53514 0.73731 0.0
O296 O 0.24347 0.54543 0.84573 0.0
C297 C 0.22019 0.53416 0.90362 0.0
O298 O 0.18154 0.48572 0.61777 0.0
O299 O 0.22173 0.49197 0.69552 0.0
O300 O 0.23208 0.52105 0.47235 0.0
O301 O 0.14499 0.50643 0.72672 0.0
O302 O 0.15782 0.53974 0.60539 0.0
O303 O 0.2017 0.53667 0.4733 0.0
C304 C 0.3285 0.56641 0.66233 0.0
C305 C 0.34392 0.56439 0.7543 0.0
C306 C 0.36912 0.60734 0.59605 0.0
C307 C 0.37168 0.58352 0.76669 0.0
C308 C 0.34135 0.58829 0.58404 0.0
C309 C 0.38475 0.60504 0.68663 0.0
C310 C 0.29984 0.54451 0.64359 0.0
C311 C 0.19637 0.47592 0.66071 0.0
H312 H 0.12452 0.48953 0.4575 0.0
H313 H 0.04622 0.49293 0.64438 0.0
H314 H 0.07941 0.46453 0.36152 0.0
H315 H 0.0911 0.51804 0.73728 0.0
H316 H 0.3346 0.54767 0.81551 0.0
H317 H 0.3785 0.62336 0.53168 0.0
H318 H 0.38293 0.58131 0.83858 0.0
H319 H 0.33016 0.59039 0.51151 0.0
Eu320 Eu 0.56164 0.68501 0.67306 0.0
Eu321 Eu 0.55336 0.73984 0.67879 0.0
C322 C 0.55961 0.71322 0.4345 0.0
C323 C 0.58334 0.63074 0.6026 0.0
C324 C 0.59869 0.6427 0.50005 0.0
C325 C 0.59667 0.59601 0.58958 0.0
C326 C 0.61303 0.63129 0.44247 0.0
C327 C 0.58243 0.60738 0.64669 0.0
C328 C 0.61215 0.60774 0.48661 0.0
C329 C 0.56846 0.64233 0.66702 0.0
O330 O 0.51151 0.70332 0.64946 0.0
O331 O 0.51802 0.66984 0.72819 0.0
C332 C 0.50188 0.6787 0.69165 0.0
O333 O 0.56583 0.69913 0.86443 0.0
O334 O 0.54386 0.76653 0.57908 0.0
O335 O 0.55543 0.77623 0.76475 0.0
O336 O 0.54436 0.72476 0.86652 0.0
C337 C 0.55486 0.7119 0.92157 0.0
O338 O 0.60301 0.7212 0.63409 0.0
O339 O 0.59716 0.75478 0.7265 0.0
O340 O 0.56825 0.73619 0.49595 0.0
O341 O 0.58299 0.66425 0.73274 0.0
O342 O 0.54925 0.64347 0.60918 0.0
O343 O 0.55138 0.68999 0.48687 0.0
C344 C 0.52713 0.79184 0.68468 0.0
C345 C 0.4994 0.77307 0.70183 0.0
C346 C 0.51661 0.82856 0.678 0.0
C347 C 0.48031 0.78203 0.70625 0.0
C348 C 0.53559 0.81959 0.67386 0.0
C349 C 0.48868 0.8099 0.69332 0.0
C350 C 0.54743 0.78297 0.66967 0.0
C351 C 0.61305 0.74555 0.6859 0.0
H352 H 0.59964 0.66082 0.46496 0.0
H353 H 0.59597 0.57827 0.62776 0.0
H354 H 0.62463 0.64077 0.36314 0.0
H355 H 0.57084 0.59801 0.72628 0.0
H356 H 0.49251 0.7515 0.70993 0.0
H357 H 0.5238 0.85005 0.66561 0.0
H358 H 0.45903 0.76715 0.71947 0.0
H359 H 0.55689 0.83432 0.65941 0.0
C360 C 0.18806 0.40803 0.7506 0.0
C361 C 0.15955 0.39138 0.75598 0.0
H362 H 0.22195 0.44746 0.71513 0.0
C363 C 0.14322 0.40197 0.71691 0.0
H364 H 0.20129 0.40038 0.77718 0.0
C365 C 0.15514 0.42906 0.67981 0.0
C366 C 0.18365 0.44614 0.68131 0.0
H367 H 0.12121 0.38977 0.72027 0.0
H368 H 0.14197 0.43694 0.65525 0.0
C369 C 0.19993 0.43504 0.71418 0.0
C370 C 0.68839 0.76779 0.70702 0.0
C371 C 0.69884 0.79298 0.7701 0.0
H372 H 0.65324 0.73313 0.62964 0.0
C373 C 0.68106 0.80297 0.79859 0.0
H374 H 0.70156 0.75962 0.68234 0.0
C375 C 0.65352 0.78796 0.76753 0.0
C376 C 0.64287 0.76244 0.70746 0.0
H377 H 0.68817 0.82202 0.84876 0.0
H378 H 0.64044 0.79615 0.79372 0.0
C379 C 0.66072 0.75269 0.676 0.0
C380 C 0.32189 0.94534 0.71535 0.0
C381 C 0.29501 0.92875 0.75554 0.0
H382 H 0.35845 0.94701 0.64964 0.0
C383 C 0.28359 0.90019 0.74786 0.0
H384 H 0.33138 0.96741 0.72046 0.0
C385 C 0.29912 0.88853 0.70828 0.0
C386 C 0.32645 0.9051 0.67438 0.0
H387 H 0.26275 0.88677 0.77528 0.0
H388 H 0.28986 0.86647 0.70759 0.0
C389 C 0.33744 0.93363 0.67496 0.0
C390 C 0.34831 0.13721 0.12672 0.0
C391 C 0.366 0.12691 0.10231 0.0
H392 H 0.3078 0.13064 0.11726 0.0
C393 C 0.35561 0.10152 0.04102 0.0
H394 H 0.3554 0.15647 0.1752 0.0
C395 C 0.32805 0.08649 0.00823 0.0
C396 C 0.31024 0.09649 0.03617 0.0
H397 H 0.36872 0.09311 0.01936 0.0
H398 H 0.32061 0.06674 -0.03635 0.0
C399 C 0.32086 0.12225 0.09399 0.0
C400 C 0.94961 0.23378 0.07887 0.0
C401 C 0.9611 0.26237 0.08532 0.0
H402 H 0.95569 0.19991 0.03943 0.0
C403 C 0.98792 0.2788 0.04416 0.0
H404 H 0.92881 0.22047 0.10708 0.0
C405 C 1.00334 0.26693 0.00382 0.0
C406 C 0.99227 0.2384 0.0042 0.0
H407 H 0.99746 0.30088 0.04832 0.0
H408 H 1.0243 0.28021 -0.02241 0.0
C409 C 0.965 0.22197 0.03929 0.0
C410 C 0.82395 0.76287 0.00476 0.0
C411 C 0.85249 0.77974 0.00567 0.0
H412 H 0.7898 0.72397 0.04827 0.0
C413 C 0.86858 0.7686 0.04075 0.0
H414 H 0.81092 0.7708 -0.02139 0.0
C415 C 0.8565 0.74178 0.07987 0.0
C416 C 0.82797 0.72537 0.08583 0.0
H417 H 0.89061 0.78085 0.04138 0.0
H418 H 0.86959 0.73409 0.10813 0.0
C419 C 0.81182 0.73597 0.04456 0.0
C420 C 1.02112 0.43476 0.39359 0.0
C421 C 1.03155 0.46163 0.43953 0.0
H422 H 0.98624 0.39847 0.32476 0.0
C423 C 1.01464 0.47331 0.43965 0.0
H424 H 1.03354 0.42509 0.39259 0.0
C425 C 0.98758 0.45806 0.40162 0.0
C426 C 0.97668 0.43074 0.36164 0.0
H427 H 1.02216 0.49415 0.47169 0.0
H428 H 0.975 0.46755 0.40673 0.0
C429 C 0.99397 0.41947 0.35491 0.0
C430 C 0.65455 0.61235 0.38804 0.0
C431 C 0.62775 0.59564 0.42884 0.0
H432 H 0.69115 0.61429 0.32131 0.0
C433 C 0.61652 0.5671 0.4215 0.0
H434 H 0.6639 0.63441 0.39289 0.0
C435 C 0.63216 0.55559 0.38141 0.0
C436 C 0.65941 0.57229 0.34671 0.0
H437 H 0.59574 0.55357 0.44941 0.0
H438 H 0.62305 0.53354 0.38091 0.0
C439 C 0.67021 0.6008 0.3472 0.0
C440 C 0.53485 0.10149 0.37986 0.0
C441 C 0.51875 0.11271 0.34595 0.0
H442 H 0.53591 0.06683 0.44501 0.0
C443 C 0.49021 0.09584 0.34516 0.0
H444 H 0.55688 0.11374 0.38036 0.0
C445 C 0.4781 0.06884 0.38377 0.0
C446 C 0.49427 0.05814 0.42371 0.0
H447 H 0.47717 0.10382 0.31992 0.0
H448 H 0.45608 0.05681 0.38751 0.0
C449 C 0.52279 0.07458 0.41777 0.0
C450 C 0.14218 0.17878 0.0369 0.0
C451 C 0.13284 0.15089 0.01209 0.0
H452 H 0.13253 0.21093 0.0489 0.0
C453 C 0.10525 0.13378 -0.01868 0.0
H454 H 0.16336 0.19269 0.05892 0.0
C455 C 0.08761 0.14435 -0.02599 0.0
C456 C 0.09705 0.17227 -0.00205 0.0
H457 H 0.0972 0.11214 -0.03661 0.0
H458 H 0.06653 0.13056 0.9498 0.0
C459 C 0.12451 0.18931 0.03034 0.0
C460 C 0.94571 0.9691 0.95801 0.0
C461 C 0.92023 0.95117 0.00845 0.0
H462 H 0.9747 1.01035 0.91477 0.0
C463 C 0.90514 0.96225 0.06205 0.0
H464 H 0.95794 0.96134 0.91601 0.0
C465 C 0.91491 0.99044 0.06236 0.0
C466 C 0.94 1.00831 0.0087 0.0
H467 H 0.88556 0.94914 0.1027 0.0
H468 H 0.90267 0.9982 0.10416 0.0
C469 C 0.95545 0.9973 0.95801 0.0
C470 C 0.10086 0.94895 0.07387 0.0
C471 C 0.08284 0.95564 0.01889 0.0
H472 H 0.14217 0.96122 0.11693 0.0
C473 C 0.09359 0.98145 -0.03224 0.0
H474 H 0.09328 0.92945 0.11592 0.0
C475 C 0.12169 0.9998 -0.03092 0.0
C476 C 0.13974 0.99279 0.02137 0.0
H477 H 0.08038 0.98719 0.92345 0.0
H478 H 0.12926 1.0193 0.92699 0.0
C479 C 0.12894 0.96725 0.07492 0.0
C480 C 0.79055 0.52297 0.40145 0.0
C481 C 0.76577 0.50818 0.33916 0.0
H482 H 0.82739 0.52472 0.45736 0.0
C483 C 0.75923 0.48276 0.28558 0.0
H484 H 0.79616 0.54249 0.44475 0.0
C485 C 0.77727 0.47265 0.29208 0.0
C486 C 0.80228 0.48765 0.35264 0.0
H487 H 0.74033 0.47079 0.23686 0.0
H488 H 0.77191 0.4534 0.24677 0.0
C489 C 0.80853 0.51281 0.40831 0.0
C490 C 0.62561 0.33038 0.3195 0.0
C491 C 0.60893 0.34179 0.34604 0.0
H492 H 0.62841 0.29405 0.29761 0.0
C493 C 0.58148 0.3241 0.37591 0.0
H494 H 0.64695 0.34333 0.29815 0.0
C495 C 0.57087 0.29577 0.37681 0.0
C496 C 0.5874 0.28437 0.3472 0.0
H497 H 0.56789 0.33205 0.39529 0.0
H498 H 0.54953 0.28279 0.39803 0.0
C499 C 0.61498 0.30206 0.31978 0.0
C500 C 0.75955 0.31545 0.30408 0.0
C501 C 0.74915 0.2896 0.35448 0.0
H502 H 0.79494 0.35348 0.26226 0.0
C503 C 0.7675 0.28308 0.40756 0.0
H504 H 0.74609 0.32108 0.26135 0.0
C505 C 0.79553 0.30153 0.40705 0.0
C506 C 0.806 0.32708 0.35386 0.0
H507 H 0.76021 0.26358 0.44916 0.0
H508 H 0.80901 0.29559 0.44743 0.0
C509 C 0.78763 0.33397 0.30389 0.0
C510 C 0.44335 0.80414 0.63246 0.0
C511 C 0.46849 0.81958 0.69161 0.0
H512 H 0.40619 0.80182 0.5768 0.0
C513 C 0.47473 0.84496 0.74469 0.0
H514 H 0.43797 0.78467 0.58932 0.0
C515 C 0.45665 0.85496 0.73629 0.0
C516 C 0.43177 0.83979 0.6751 0.0
H517 H 0.49367 0.8572 0.79278 0.0
H518 H 0.46231 0.8747 0.77747 0.0
C519 C 0.42519 0.8141 0.62448 0.0
C520 C 0.27666 0.63518 0.6315 0.0
C521 C 0.25121 0.61762 0.68317 0.0
H522 H 0.30609 0.67618 0.58729 0.0
C523 C 0.23656 0.62913 0.73729 0.0
H524 H 0.28856 0.6271 0.58897 0.0
C525 C 0.24679 0.65741 0.73731 0.0
C526 C 0.27192 0.67492 0.68295 0.0
H527 H 0.217 0.61629 0.77872 0.0
H528 H 0.23492 0.66554 0.77964 0.0
C529 C 0.28685 0.66344 0.63129 0.0
C530 C 0.46088 0.63253 0.72351 0.0
C531 C 0.4719 0.66021 0.69604 0.0
H532 H 0.425 0.59344 0.74019 0.0
C533 C 0.45399 0.66985 0.66986 0.0
H534 H 0.47404 0.62434 0.7437 0.0
C535 C 0.42577 0.65214 0.66922 0.0
C536 C 0.41473 0.62431 0.69417 0.0
H537 H 0.46173 0.69109 0.64924 0.0
H538 H 0.4126 0.66031 0.64912 0.0
C539 C 0.43267 0.6148 0.72226 0.0
C540 C 1.02256 0.18184 0.53245 0.0
C541 C 0.04278 0.20454 0.59667 0.0
H542 H 1.00742 0.16317 0.36033 0.0
C543 C 0.06358 0.22628 0.53438 0.0
H544 H 1.00641 0.1647 0.57843 0.0
C545 C 0.06399 0.22552 0.41016 0.0
C546 C 0.0439 0.20279 0.34574 0.0
H547 H 0.07943 0.24404 0.58157 0.0
H548 H 0.08019 0.24271 0.36459 0.0
C549 C 1.02327 0.18085 0.40789 0.0
C550 C 0.9098 0.86531 0.54144 0.0
C551 C 0.88754 0.86379 0.60513 0.0
H552 H 0.92833 0.86853 0.37011 0.0
C553 C 0.86652 0.86436 0.54273 0.0
H554 H 0.92642 0.86518 0.58756 0.0
C555 C 0.86751 0.86604 0.41899 0.0
C556 C 0.88977 0.86769 0.35509 0.0
H557 H 0.84912 0.86326 0.58942 0.0
H558 H 0.85082 0.86617 0.37337 0.0
C559 C 0.91104 0.86752 0.41737 0.0
C560 C 0.22424 0.06725 0.57259 0.0
C561 C 0.22669 0.04693 0.63128 0.0
H562 H 0.22055 0.08238 0.40492 0.0
C563 C 0.22742 1.02596 0.56374 0.0
H564 H 0.22337 0.08352 0.62275 0.0
C565 C 0.22606 1.02546 0.43976 0.0
C566 C 0.22345 0.04564 0.38084 0.0
H567 H 0.22929 1.01002 0.60661 0.0
H568 H 0.2269 1.00913 0.39005 0.0
C569 C 0.22236 0.06646 0.44826 0.0
C570 C 0.69138 0.51597 0.74963 0.0
C571 C 0.71171 0.53821 0.68778 0.0
H572 H 0.67472 0.49946 0.91996 0.0
C573 C 0.73139 0.56117 0.7525 0.0
H574 H 0.67585 0.4981 0.70183 0.0
C575 C 0.73091 0.56184 0.87671 0.0
C576 C 0.71045 0.53976 0.93871 0.0
H577 H 0.74734 0.5786 0.70717 0.0
H578 H 0.74647 0.57976 0.92416 0.0
C579 C 0.69059 0.51686 0.8742 0.0
C580 C 0.53401 0.19931 0.75971 0.0
C581 C 0.5562 0.20084 0.69565 0.0
H582 H 0.51567 0.19654 0.9302 0.0
C583 C 0.57739 0.20045 0.75775 0.0
H584 H 0.51738 0.19958 0.71427 0.0
C585 C 0.57615 0.19818 0.88178 0.0
C586 C 0.55396 0.19678 0.94561 0.0
H587 H 0.59462 0.20136 0.71037 0.0
H588 H 0.59271 0.1979 0.92775 0.0
C589 C 0.53301 0.19754 0.8834 0.0
C590 C 0.88912 0.40122 0.77402 0.0
C591 C 0.88936 0.38001 0.70616 0.0
H592 H 0.89092 0.41848 0.94881 0.0
C593 C 0.89109 0.35927 0.76469 0.0
H594 H 0.888 0.41755 0.73102 0.0
C595 C 0.8925 0.35965 0.88865 0.0
C596 C 0.89271 0.38104 0.95663 0.0
H597 H 0.89124 0.34261 0.71465 0.0
H598 H 0.89371 0.3433 0.93114 0.0
C599 C 0.89106 0.40187 0.89834 0.0
C600 C 0.39802 0.89338 0.20642 0.0
C601 C 0.37732 0.87158 0.26877 0.0
H602 H 0.41445 0.90991 0.03652 0.0
C603 C 0.35708 0.84887 0.2046 0.0
H604 H 0.41387 0.91114 0.2536 0.0
C605 C 0.35768 0.84794 0.08003 0.0
C606 C 0.37821 0.86994 0.01781 0.0
H607 H 0.34101 0.83168 0.25061 0.0
H608 H 0.34184 0.83024 0.03252 0.0
C609 C 0.39832 0.89268 0.08216 0.0
C610 C 0.19731 0.53079 0.09849 0.0
C611 C 0.2201 0.53362 0.03487 0.0
H612 H 0.17855 0.52708 0.26869 0.0
C613 C 0.24189 0.53456 0.09739 0.0
H614 H 0.18021 0.53004 0.0527 0.0
C615 C 0.24069 0.53233 0.22144 0.0
C616 C 0.21793 0.52968 0.28484 0.0
H617 H 0.25959 0.5365 0.05035 0.0
H618 H 0.25774 0.53312 0.26779 0.0
C619 C 0.19635 0.52908 0.22219 0.0
C620 C 0.55824 0.69175 0.23554 0.0
C621 C 0.55862 0.71325 0.30335 0.0
H622 H 0.55676 0.67454 0.06171 0.0
C623 C 0.55707 0.73412 0.2449 0.0
H624 H 0.55937 0.67537 0.27816 0.0
C625 C 0.55506 0.73338 0.12059 0.0
C626 C 0.5551 0.71205 0.0529 0.0
H627 H 0.55707 0.75081 0.29524 0.0
H628 H 0.55402 0.74975 0.07746 0.0
C629 C 0.55674 0.69128 0.1116 0.0
loop_
_geom_bond_atom_site_label_1
_geom_bond_atom_site_label_2
_geom_bond_distance
_geom_bond_site_symmetry_2
_ccdc_geom_bond_type
Eu0 C9 2.828 1_554 S
Eu0 O11 2.392 . S
Eu0 O13 2.418 . S
Eu0 O18 2.373 . S
Eu0 O21 2.488 . S
Eu0 O22 2.471 1_554 S
Eu0 O23 2.349 1_554 S
Eu1 O10 2.373 1_655 S
Eu1 O14 2.488 . S
Eu1 O15 2.471 1_556 S
Eu1 O16 2.349 1_656 S
Eu1 O19 2.392 . S
Eu1 O20 2.418 . S
Eu1 C30 2.828 1_556 S
C2 O20 1.244 1_455 S
C2 O23 1.265 . S
C3 C4 1.379 . S
C3 C7 1.373 1_556 S
C3 C9 1.505 . S
C4 C3 1.379 . S
C4 C6 1.369 . S
C4 H32 0.930 . S
C5 C7 1.383 . S
C5 C8 1.382 1_554 S
C5 H33 0.930 . S
C6 C4 1.369 . S
C6 C8 1.392 . S
C6 H34 0.930 . S
C7 C3 1.373 1_554 S
C7 C5 1.383 . S
C7 H35 0.931 . S
C8 C5 1.382 1_556 S
C8 C6 1.392 . S
C9 Eu0 2.828 1_556 S
C9 C3 1.505 . S
C9 O21 1.249 1_556 S
C9 O22 1.244 . S
O10 Eu1 2.373 1_455 S
O10 C12 1.258 . S
O11 Eu0 2.392 . S
O11 C12 1.242 1_554 S
C12 O10 1.258 . S
C12 O11 1.242 1_556 S
O13 Eu0 2.418 . S
O13 C17 1.244 . S
O14 Eu1 2.488 . S
O14 C30 1.249 1_556 S
O15 Eu1 2.471 1_554 S
O15 C30 1.244 . S
O16 Eu1 2.349 1_454 S
O16 C17 1.265 . S
C17 O13 1.244 . S
C17 O16 1.265 . S
O18 Eu0 2.373 . S
O18 C31 1.258 1_455 S
O19 Eu1 2.392 . S
O19 C31 1.242 1_556 S
O20 Eu1 2.418 . S
O20 C2 1.244 1_655 S
O21 Eu0 2.488 . S
O21 C9 1.249 1_554 S
O22 Eu0 2.471 1_556 S
O22 C9 1.244 . S
O23 Eu0 2.349 1_556 S
O23 C2 1.265 . S
C24 C25 1.379 . S
C24 C28 1.373 1_554 S
C24 C30 1.505 . S
C25 C24 1.379 . S
C25 C27 1.369 . S
C25 H36 0.930 . S
C26 C28 1.383 . S
C26 C29 1.382 1_556 S
C26 H37 0.930 . S
C27 C25 1.369 . S
C27 C29 1.392 . S
C27 H38 0.930 . S
C28 C24 1.373 1_556 S
C28 C26 1.383 . S
C28 H39 0.931 . S
C29 C26 1.382 1_554 S
C29 C27 1.392 . S
C30 Eu1 2.828 1_554 S
C30 O14 1.249 1_554 S
C30 O15 1.244 . S
C30 C24 1.505 . S
C31 O18 1.258 1_655 S
C31 O19 1.242 1_554 S
H32 C4 0.930 . S
H33 C5 0.930 . S
H34 C6 0.930 . S
H35 C7 0.931 . S
H36 C25 0.930 . S
H37 C26 0.930 . S
H38 C27 0.930 . S
H39 C28 0.931 . S
Eu40 C49 2.828 1_554 S
Eu40 O51 2.392 . S
Eu40 O53 2.418 . S
Eu40 O58 2.373 . S
Eu40 O61 2.488 . S
Eu40 O62 2.471 1_554 S
Eu40 O63 2.349 1_554 S
Eu41 O50 2.373 . S
Eu41 O54 2.488 . S
Eu41 O55 2.471 1_556 S
Eu41 O56 2.349 1_556 S
Eu41 O59 2.392 . S
Eu41 O60 2.418 . S
Eu41 C70 2.828 1_556 S
C42 O60 1.244 . S
C42 O63 1.265 . S
C43 C44 1.379 . S
C43 C47 1.373 1_556 S
C43 C49 1.505 . S
C44 C43 1.379 . S
C44 C46 1.369 . S
C44 H72 0.930 . S
C45 C47 1.383 . S
C45 C48 1.382 1_554 S
C45 H73 0.930 . S
C46 C44 1.369 . S
C46 C48 1.392 . S
C46 H74 0.930 . S
C47 C43 1.373 1_554 S
C47 C45 1.383 . S
C47 H75 0.931 . S
C48 C45 1.382 1_556 S
C48 C46 1.392 . S
C49 Eu40 2.828 1_556 S
C49 C43 1.505 . S
C49 O61 1.249 1_556 S
C49 O62 1.244 . S
O50 Eu41 2.373 . S
O50 C52 1.258 . S
O51 Eu40 2.392 . S
O51 C52 1.242 1_554 S
C52 O50 1.258 . S
C52 O51 1.242 1_556 S
O53 Eu40 2.418 . S
O53 C57 1.244 . S
O54 Eu41 2.488 . S
O54 C70 1.249 1_556 S
O55 Eu41 2.471 1_554 S
O55 C70 1.244 . S
O56 Eu41 2.349 1_554 S
O56 C57 1.265 . S
C57 O53 1.244 . S
C57 O56 1.265 . S
O58 Eu40 2.373 . S
O58 C71 1.258 . S
O59 Eu41 2.392 . S
O59 C71 1.242 1_556 S
O60 Eu41 2.418 . S
O60 C42 1.244 . S
O61 Eu40 2.488 . S
O61 C49 1.249 1_554 S
O62 Eu40 2.471 1_556 S
O62 C49 1.244 . S
O63 Eu40 2.349 1_556 S
O63 C42 1.265 . S
C64 C65 1.379 . S
C64 C68 1.373 1_554 S
C64 C70 1.505 . S
C65 C64 1.379 . S
C65 C67 1.369 . S
C65 H76 0.930 . S
C66 C68 1.397 . S
C66 C69 1.382 1_656 S
C66 H77 0.916 1_655 S
C67 C65 1.369 . S
C67 C69 1.392 1_655 S
C67 H78 0.930 . S
C68 C64 1.373 1_556 S
C68 C66 1.397 . S
C68 H79 0.931 . S
C69 C66 1.382 1_454 S
C69 C67 1.392 1_455 S
C70 Eu41 2.828 1_554 S
C70 O54 1.249 1_554 S
C70 O55 1.244 . S
C70 C64 1.505 . S
C71 O58 1.258 . S
C71 O59 1.242 1_554 S
H72 C44 0.930 . S
H73 C45 0.930 . S
H74 C46 0.930 . S
H75 C47 0.931 . S
H76 C65 0.930 . S
H77 C66 0.916 1_455 S
H78 C67 0.930 . S
H79 C68 0.931 . S
Eu80 C89 2.828 1_554 S
Eu80 O91 2.392 . S
Eu80 O93 2.418 . S
Eu80 O98 2.373 1_565 S
Eu80 O101 2.488 . S
Eu80 O102 2.471 1_554 S
Eu80 O103 2.349 1_564 S
Eu81 O90 2.373 . S
Eu81 O94 2.488 . S
Eu81 O95 2.471 1_556 S
Eu81 O96 2.349 1_556 S
Eu81 O99 2.392 . S
Eu81 O100 2.418 . S
Eu81 C110 2.828 1_556 S
C82 O100 1.244 . S
C82 O103 1.265 . S
C83 C84 1.379 . S
C83 C87 1.373 1_556 S
C83 C89 1.505 . S
C84 C83 1.379 . S
C84 C86 1.369 . S
C84 H112 0.930 . S
C85 C87 1.383 . S
C85 C88 1.382 1_554 S
C85 H113 0.930 . S
C86 C84 1.369 . S
C86 C88 1.392 . S
C86 H114 0.930 . S
C87 C83 1.373 1_554 S
C87 C85 1.383 . S
C87 H115 0.931 . S
C88 C85 1.382 1_556 S
C88 C86 1.392 . S
C89 Eu80 2.828 1_556 S
C89 C83 1.505 . S
C89 O101 1.249 1_556 S
C89 O102 1.244 . S
O90 Eu81 2.373 . S
O90 C92 1.258 1_545 S
O91 Eu80 2.392 . S
O91 C92 1.242 1_554 S
C92 O90 1.258 1_565 S
C92 O91 1.242 1_556 S
O93 Eu80 2.418 . S
O93 C97 1.244 1_565 S
O94 Eu81 2.488 . S
O94 C110 1.249 1_556 S
O95 Eu81 2.471 1_554 S
O95 C110 1.244 . S
O96 Eu81 2.349 1_554 S
O96 C97 1.265 . S
C97 O93 1.244 1_545 S
C97 O96 1.265 . S
O98 Eu80 2.373 1_545 S
O98 C111 1.258 . S
O99 Eu81 2.392 . S
O99 C111 1.242 1_556 S
O100 Eu81 2.418 . S
O100 C82 1.244 . S
O101 Eu80 2.488 . S
O101 C89 1.249 1_554 S
O102 Eu80 2.471 1_556 S
O102 C89 1.244 . S
O103 Eu80 2.349 1_546 S
O103 C82 1.265 . S
C104 C105 1.379 . S
C104 C108 1.373 1_554 S
C104 C110 1.505 . S
C105 C104 1.379 . S
C105 C107 1.369 . S
C105 H116 0.930 . S
C106 C108 1.383 . S
C106 C109 1.382 1_556 S
C106 H117 0.930 . S
C107 C105 1.369 . S
C107 C109 1.392 . S
C107 H118 0.930 . S
C108 C104 1.373 1_556 S
C108 C106 1.383 . S
C108 H119 0.931 . S
C109 C106 1.382 1_554 S
C109 C107 1.392 . S
C110 Eu81 2.828 1_554 S
C110 O94 1.249 1_554 S
C110 O95 1.244 . S
C110 C104 1.505 . S
C111 O98 1.258 . S
C111 O99 1.242 1_554 S
H112 C84 0.930 . S
H113 C85 0.930 . S
H114 C86 0.930 . S
H115 C87 0.931 . S
H116 C105 0.930 . S
H117 C106 0.930 . S
H118 C107 0.930 . S
H119 C108 0.931 . S
Eu120 C129 2.828 . S
Eu120 O131 2.392 . S
Eu120 O133 2.418 . S
Eu120 O138 2.373 . S
Eu120 O141 2.488 . S
Eu120 O142 2.471 . S
Eu120 O143 2.349 . S
Eu121 O130 2.373 . S
Eu121 O134 2.488 . S
Eu121 O135 2.471 . S
Eu121 O136 2.349 . S
Eu121 O139 2.392 . S
Eu121 O140 2.418 . S
Eu121 C150 2.828 . S
C122 O140 1.244 . S
C122 O143 1.265 . S
C123 C124 1.379 . S
C123 C127 1.373 . S
C123 C129 1.505 . S
C124 C123 1.379 . S
C124 C126 1.369 . S
C124 H152 0.930 . S
C125 C127 1.383 . S
C125 C128 1.382 . S
C125 H153 0.930 . S
C126 C124 1.369 . S
C126 C128 1.392 . S
C126 H154 0.930 . S
C127 C123 1.373 . S
C127 C125 1.383 . S
C127 H155 0.931 . S
C128 C125 1.382 . S
C128 C126 1.392 . S
C129 Eu120 2.828 . S
C129 C123 1.505 . S
C129 O141 1.249 . S
C129 O142 1.244 . S
O130 Eu121 2.373 . S
O130 C132 1.258 . S
O131 Eu120 2.392 . S
O131 C132 1.242 . S
C132 O130 1.258 . S
C132 O131 1.242 . S
O133 Eu120 2.418 . S
O133 C137 1.244 . S
O134 Eu121 2.488 . S
O134 C150 1.249 . S
O135 Eu121 2.471 . S
O135 C150 1.244 . S
O136 Eu121 2.349 . S
O136 C137 1.265 . S
C137 O133 1.244 . S
C137 O136 1.265 . S
O138 Eu120 2.373 . S
O138 C151 1.258 . S
O139 Eu121 2.392 . S
O139 C151 1.242 . S
O140 Eu121 2.418 . S
O140 C122 1.244 . S
O141 Eu120 2.488 . S
O141 C129 1.249 . S
O142 Eu120 2.471 . S
O142 C129 1.244 . S
O143 Eu120 2.349 . S
O143 C122 1.265 . S
C144 C145 1.379 . S
C144 C148 1.373 . S
C144 C150 1.505 . S
C145 C144 1.379 . S
C145 C147 1.369 . S
C145 H156 0.930 . S
C146 C148 1.383 . S
C146 C149 1.382 . S
C146 H157 0.930 . S
C147 C145 1.369 . S
C147 C149 1.392 . S
C147 H158 0.930 . S
C148 C144 1.373 . S
C148 C146 1.383 . S
C148 H159 0.931 . S
C149 C146 1.382 . S
C149 C147 1.392 . S
C150 Eu121 2.828 . S
C150 O134 1.249 . S
C150 O135 1.244 . S
C150 C144 1.505 . S
C151 O138 1.258 . S
C151 O139 1.242 . S
H152 C124 0.930 . S
H153 C125 0.930 . S
H154 C126 0.930 . S
H155 C127 0.931 . S
H156 C145 0.930 . S
H157 C146 0.930 . S
H158 C147 0.930 . S
H159 C148 0.931 . S
Eu160 C169 2.828 . S
Eu160 O171 2.392 . S
Eu160 O173 2.418 . S
Eu160 O178 2.373 . S
Eu160 O181 2.488 . S
Eu160 O182 2.471 . S
Eu160 O183 2.349 . S
Eu161 O170 2.373 . S
Eu161 O174 2.488 . S
Eu161 O175 2.471 . S
Eu161 O176 2.349 . S
Eu161 O179 2.392 . S
Eu161 O180 2.418 . S
Eu161 C190 2.828 . S
C162 O180 1.244 . S
C162 O183 1.265 . S
C163 C164 1.379 . S
C163 C167 1.373 . S
C163 C169 1.505 . S
C164 C163 1.379 . S
C164 C166 1.369 . S
C164 H192 0.930 . S
C165 C167 1.383 . S
C165 C168 1.382 . S
C165 H193 0.930 . S
C166 C164 1.369 . S
C166 C168 1.392 . S
C166 H194 0.930 . S
C167 C163 1.373 . S
C167 C165 1.383 . S
C167 H195 0.931 . S
C168 C165 1.382 . S
C168 C166 1.392 . S
C169 Eu160 2.828 . S
C169 C163 1.505 . S
C169 O181 1.249 . S
C169 O182 1.244 . S
O170 Eu161 2.373 . S
O170 C172 1.258 . S
O171 Eu160 2.392 . S
O171 C172 1.242 . S
C172 O170 1.258 . S
C172 O171 1.242 . S
O173 Eu160 2.418 . S
O173 C177 1.244 . S
O174 Eu161 2.488 . S
O174 C190 1.249 . S
O175 Eu161 2.471 . S
O175 C190 1.244 . S
O176 Eu161 2.349 . S
O176 C177 1.265 . S
C177 O173 1.244 . S
C177 O176 1.265 . S
O178 Eu160 2.373 . S
O178 C191 1.258 . S
O179 Eu161 2.392 . S
O179 C191 1.242 . S
O180 Eu161 2.418 . S
O180 C162 1.244 . S
O181 Eu160 2.488 . S
O181 C169 1.249 . S
O182 Eu160 2.471 . S
O182 C169 1.244 . S
O183 Eu160 2.349 . S
O183 C162 1.265 . S
C184 C185 1.379 . S
C184 C188 1.373 . S
C184 C190 1.505 . S
C185 C184 1.379 . S
C185 C187 1.369 . S
C185 H196 0.930 . S
C186 C188 1.383 . S
C186 C189 1.382 . S
C186 H197 0.930 . S
C187 C185 1.369 . S
C187 C189 1.392 . S
C187 H198 0.930 . S
C188 C184 1.373 . S
C188 C186 1.383 . S
C188 H199 0.931 . S
C189 C186 1.382 . S
C189 C187 1.392 . S
C190 Eu161 2.828 . S
C190 O174 1.249 . S
C190 O175 1.244 . S
C190 C184 1.505 . S
C191 O178 1.258 . S
C191 O179 1.242 . S
H192 C164 0.930 . S
H193 C165 0.930 . S
H194 C166 0.930 . S
H195 C167 0.931 . S
H196 C185 0.930 . S
H197 C186 0.930 . S
H198 C187 0.930 . S
H199 C188 0.931 . S
Eu200 C209 2.828 . S
Eu200 O211 2.392 . S
Eu200 O213 2.418 . S
Eu200 O218 2.373 . S
Eu200 O221 2.488 . S
Eu200 O222 2.471 . S
Eu200 O223 2.349 . S
Eu201 O210 2.373 . S
Eu201 O214 2.488 . S
Eu201 O215 2.471 . S
Eu201 O216 2.349 . S
Eu201 O219 2.392 . S
Eu201 O220 2.418 . S
Eu201 C230 2.828 . S
C202 O220 1.244 . S
C202 O223 1.265 . S
C203 C204 1.379 . S
C203 C207 1.373 . S
C203 C209 1.505 . S
C204 C203 1.379 . S
C204 C206 1.369 . S
C204 H232 0.930 . S
C205 C207 1.383 . S
C205 C208 1.382 . S
C205 H233 0.930 . S
C206 C204 1.369 . S
C206 C208 1.392 . S
C206 H234 0.930 . S
C207 C203 1.373 . S
C207 C205 1.383 . S
C207 H235 0.931 . S
C208 C205 1.382 . S
C208 C206 1.392 . S
C209 Eu200 2.828 . S
C209 C203 1.505 . S
C209 O221 1.249 . S
C209 O222 1.244 . S
O210 Eu201 2.373 . S
O210 C212 1.258 . S
O211 Eu200 2.392 . S
O211 C212 1.242 . S
C212 O210 1.258 . S
C212 O211 1.242 . S
O213 Eu200 2.418 . S
O213 C217 1.244 . S
O214 Eu201 2.488 . S
O214 C230 1.249 . S
O215 Eu201 2.471 . S
O215 C230 1.244 . S
O216 Eu201 2.349 . S
O216 C217 1.265 . S
C217 O213 1.244 . S
C217 O216 1.265 . S
O218 Eu200 2.373 . S
O218 C231 1.258 . S
O219 Eu201 2.392 . S
O219 C231 1.242 . S
O220 Eu201 2.418 . S
O220 C202 1.244 . S
O221 Eu200 2.488 . S
O221 C209 1.249 . S
O222 Eu200 2.471 . S
O222 C209 1.244 . S
O223 Eu200 2.349 . S
O223 C202 1.265 . S
C224 C225 1.379 . S
C224 C228 1.373 . S
C224 C230 1.505 . S
C225 C224 1.379 . S
C225 C227 1.369 . S
C225 H236 0.930 . S
C226 C228 1.383 . S
C226 C229 1.382 . S
C226 H237 0.930 . S
C227 C225 1.369 . S
C227 C229 1.392 . S
C227 H238 0.930 . S
C228 C224 1.373 . S
C228 C226 1.383 . S
C228 H239 0.931 . S
C229 C226 1.382 . S
C229 C227 1.392 . S
C230 Eu201 2.828 . S
C230 O214 1.249 . S
C230 O215 1.244 . S
C230 C224 1.505 . S
C231 O218 1.258 . S
C231 O219 1.242 . S
H232 C204 0.930 . S
H233 C205 0.930 . S
H234 C206 0.930 . S
H235 C207 0.931 . S
H236 C225 0.930 . S
H237 C226 0.930 . S
H238 C227 0.930 . S
H239 C228 0.931 . S
Eu240 C249 2.828 . S
Eu240 O251 2.392 . S
Eu240 O253 2.418 . S
Eu240 O258 2.373 . S
Eu240 O261 2.488 . S
Eu240 O262 2.471 . S
Eu240 O263 2.349 . S
Eu241 O250 2.373 . S
Eu241 O254 2.488 . S
Eu241 O255 2.471 . S
Eu241 O256 2.349 . S
Eu241 O259 2.392 . S
Eu241 O260 2.418 . S
Eu241 C270 2.828 . S
C242 O260 1.244 . S
C242 O263 1.265 . S
C243 C244 1.379 . S
C243 C247 1.373 . S
C243 C249 1.505 . S
C244 C243 1.379 . S
C244 C246 1.369 . S
C244 H272 0.930 . S
C245 C247 1.383 1_545 S
C245 C248 1.382 . S
C245 H273 0.930 . S
C246 C244 1.369 . S
C246 C248 1.392 1_565 S
C246 H274 0.930 . S
C247 C243 1.373 . S
C247 C245 1.383 1_565 S
C247 H275 0.931 . S
C248 C245 1.382 . S
C248 C246 1.392 1_545 S
C249 Eu240 2.828 . S
C249 C243 1.505 . S
C249 O261 1.249 . S
C249 O262 1.244 . S
O250 Eu241 2.373 . S
O250 C252 1.258 . S
O251 Eu240 2.392 . S
O251 C252 1.242 . S
C252 O250 1.258 . S
C252 O251 1.242 . S
O253 Eu240 2.418 . S
O253 C257 1.244 . S
O254 Eu241 2.488 . S
O254 C270 1.249 . S
O255 Eu241 2.471 . S
O255 C270 1.244 . S
O256 Eu241 2.349 . S
O256 C257 1.265 . S
C257 O253 1.244 . S
C257 O256 1.265 . S
O258 Eu240 2.373 . S
O258 C271 1.258 . S
O259 Eu241 2.392 . S
O259 C271 1.242 . S
O260 Eu241 2.418 . S
O260 C242 1.244 . S
O261 Eu240 2.488 . S
O261 C249 1.249 . S
O262 Eu240 2.471 . S
O262 C249 1.244 . S
O263 Eu240 2.349 . S
O263 C242 1.265 . S
C264 C265 1.379 . S
C264 C268 1.373 . S
C264 C270 1.505 . S
C265 C264 1.379 . S
C265 C267 1.369 . S
C265 H276 0.930 . S
C266 C268 1.383 . S
C266 C269 1.382 . S
C266 H277 0.930 . S
C267 C265 1.369 . S
C267 C269 1.392 . S
C267 H278 0.930 . S
C268 C264 1.373 . S
C268 C266 1.383 . S
C268 H279 0.931 . S
C269 C266 1.382 . S
C269 C267 1.392 . S
C270 Eu241 2.828 . S
C270 O254 1.249 . S
C270 O255 1.244 . S
C270 C264 1.505 . S
C271 O258 1.258 . S
C271 O259 1.242 . S
H272 C244 0.930 . S
H273 C245 0.930 . S
H274 C246 0.930 . S
H275 C247 0.931 . S
H276 C265 0.930 . S
H277 C266 0.930 . S
H278 C267 0.930 . S
H279 C268 0.931 . S
Eu280 C289 2.828 . S
Eu280 O291 2.392 . S
Eu280 O293 2.418 . S
Eu280 O298 2.373 . S
Eu280 O301 2.488 . S
Eu280 O302 2.471 . S
Eu280 O303 2.349 . S
Eu281 O290 2.373 . S
Eu281 O294 2.488 . S
Eu281 O295 2.471 . S
Eu281 O296 2.349 . S
Eu281 O299 2.392 . S
Eu281 O300 2.418 . S
Eu281 C310 2.828 . S
C282 O300 1.244 . S
C282 O303 1.265 . S
C283 C284 1.379 . S
C283 C287 1.373 . S
C283 C289 1.505 . S
C284 C283 1.379 . S
C284 C286 1.369 . S
C284 H312 0.930 . S
C285 C287 1.383 . S
C285 C288 1.382 . S
C285 H313 0.930 . S
C286 C284 1.369 . S
C286 C288 1.392 . S
C286 H314 0.930 . S
C287 C283 1.373 . S
C287 C285 1.383 . S
C287 H315 0.931 . S
C288 C285 1.382 . S
C288 C286 1.392 . S
C289 Eu280 2.828 . S
C289 C283 1.505 . S
C289 O301 1.249 . S
C289 O302 1.244 . S
O290 Eu281 2.373 . S
O290 C292 1.258 . S
O291 Eu280 2.392 . S
O291 C292 1.242 . S
C292 O290 1.258 . S
C292 O291 1.242 . S
O293 Eu280 2.418 . S
O293 C297 1.244 . S
O294 Eu281 2.488 . S
O294 C310 1.249 . S
O295 Eu281 2.471 . S
O295 C310 1.244 . S
O296 Eu281 2.349 . S
O296 C297 1.265 . S
C297 O293 1.244 . S
C297 O296 1.265 . S
O298 Eu280 2.373 . S
O298 C311 1.258 . S
O299 Eu281 2.392 . S
O299 C311 1.242 . S
O300 Eu281 2.418 . S
O300 C282 1.244 . S
O301 Eu280 2.488 . S
O301 C289 1.249 . S
O302 Eu280 2.471 . S
O302 C289 1.244 . S
O303 Eu280 2.349 . S
O303 C282 1.265 . S
C304 C305 1.379 . S
C304 C308 1.373 . S
C304 C310 1.505 . S
C305 C304 1.379 . S
C305 C307 1.369 . S
C305 H316 0.930 . S
C306 C308 1.383 . S
C306 C309 1.382 . S
C306 H317 0.930 . S
C307 C305 1.369 . S
C307 C309 1.392 . S
C307 H318 0.930 . S
C308 C304 1.373 . S
C308 C306 1.383 . S
C308 H319 0.931 . S
C309 C306 1.382 . S
C309 C307 1.392 . S
C310 Eu281 2.828 . S
C310 O294 1.249 . S
C310 O295 1.244 . S
C310 C304 1.505 . S
C311 O298 1.258 . S
C311 O299 1.242 . S
H312 C284 0.930 . S
H313 C285 0.930 . S
H314 C286 0.930 . S
H315 C287 0.931 . S
H316 C305 0.930 . S
H317 C306 0.930 . S
H318 C307 0.930 . S
H319 C308 0.931 . S
Eu320 C329 2.828 . S
Eu320 O331 2.392 . S
Eu320 O333 2.418 . S
Eu320 O338 2.373 . S
Eu320 O341 2.488 . S
Eu320 O342 2.471 . S
Eu320 O343 2.349 . S
Eu321 O330 2.373 . S
Eu321 O334 2.488 . S
Eu321 O335 2.471 . S
Eu321 O336 2.349 . S
Eu321 O339 2.392 . S
Eu321 O340 2.418 . S
Eu321 C350 2.828 . S
C322 O340 1.244 . S
C322 O343 1.265 . S
C323 C324 1.379 . S
C323 C327 1.373 . S
C323 C329 1.505 . S
C324 C323 1.379 . S
C324 C326 1.369 . S
C324 H352 0.930 . S
C325 C327 1.383 . S
C325 C328 1.382 . S
C325 H353 0.930 . S
C326 C324 1.369 . S
C326 C328 1.392 . S
C326 H354 0.930 . S
C327 C323 1.373 . S
C327 C325 1.383 . S
C327 H355 0.931 . S
C328 C325 1.382 . S
C328 C326 1.392 . S
C329 Eu320 2.828 . S
C329 C323 1.505 . S
C329 O341 1.249 . S
C329 O342 1.244 . S
O330 Eu321 2.373 . S
O330 C332 1.258 . S
O331 Eu320 2.392 . S
O331 C332 1.242 . S
C332 O330 1.258 . S
C332 O331 1.242 . S
O333 Eu320 2.418 . S
O333 C337 1.244 . S
O334 Eu321 2.488 . S
O334 C350 1.249 . S
O335 Eu321 2.471 . S
O335 C350 1.244 . S
O336 Eu321 2.349 . S
O336 C337 1.265 . S
C337 O333 1.244 . S
C337 O336 1.265 . S
O338 Eu320 2.373 . S
O338 C351 1.258 . S
O339 Eu321 2.392 . S
O339 C351 1.242 . S
O340 Eu321 2.418 . S
O340 C322 1.244 . S
O341 Eu320 2.488 . S
O341 C329 1.249 . S
O342 Eu320 2.471 . S
O342 C329 1.244 . S
O343 Eu320 2.349 . S
O343 C322 1.265 . S
C344 C345 1.379 . S
C344 C348 1.373 . S
C344 C350 1.505 . S
C345 C344 1.379 . S
C345 C347 1.369 . S
C345 H356 0.930 . S
C346 C348 1.383 . S
C346 C349 1.382 . S
C346 H357 0.930 . S
C347 C345 1.369 . S
C347 C349 1.392 . S
C347 H358 0.930 . S
C348 C344 1.373 . S
C348 C346 1.383 . S
C348 H359 0.931 . S
C349 C346 1.382 . S
C349 C347 1.392 . S
C350 Eu321 2.828 . S
C350 O334 1.249 . S
C350 O335 1.244 . S
C350 C344 1.505 . S
C351 O338 1.258 . S
C351 O339 1.242 . S
H352 C324 0.930 . S
H353 C325 0.930 . S
H354 C326 0.930 . S
H355 C327 0.931 . S
H356 C345 0.930 . S
H357 C346 0.930 . S
H358 C347 0.930 . S
H359 C348 0.931 . S
C360 C361 1.387 . S
C360 H364 0.950 . S
C360 C369 1.390 . S
C361 C360 1.387 . S
C361 C363 1.387 . S
H362 C369 0.950 . S
C363 C361 1.387 . S
C363 C365 1.390 . S
C363 H367 0.950 . S
H364 C360 0.950 . S
C365 C363 1.390 . S
C365 C366 1.387 . S
C365 H368 0.950 . S
C366 C365 1.387 . S
C366 C369 1.387 . S
H367 C363 0.950 . S
H368 C365 0.950 . S
C369 C360 1.390 . S
C369 H362 0.950 . S
C369 C366 1.387 . S
C370 C371 1.387 . S
C370 H374 0.950 . S
C370 C379 1.390 . S
C371 C370 1.387 . S
C371 C373 1.387 . S
H372 C379 0.950 . S
C373 C371 1.387 . S
C373 C375 1.390 . S
C373 H377 0.956 . S
H374 C370 0.950 . S
C375 C373 1.390 . S
C375 C376 1.387 . S
C375 H378 0.950 . S
C376 C375 1.387 . S
C376 C379 1.387 . S
H377 C373 0.956 . S
H378 C375 0.950 . S
C379 C370 1.390 . S
C379 H372 0.950 . S
C379 C376 1.387 . S
C380 C381 1.387 . S
C380 H384 0.950 . S
C380 C389 1.390 . S
C381 C380 1.387 . S
C381 C383 1.387 . S
H382 C389 0.950 . S
C383 C381 1.387 . S
C383 C385 1.390 . S
C383 H387 0.950 . S
H384 C380 0.950 . S
C385 C383 1.390 . S
C385 C386 1.387 . S
C385 H388 0.950 . S
C386 C385 1.387 . S
C386 C389 1.387 . S
H387 C383 0.950 . S
H388 C385 0.950 . S
C389 C380 1.390 . S
C389 H382 0.950 . S
C389 C386 1.387 . S
C390 C391 1.387 . S
C390 H394 0.950 . S
C390 C399 1.390 . S
C391 C390 1.387 . S
C391 C393 1.387 . S
H392 C399 0.950 1_556 S
C393 C391 1.387 . S
C393 C395 1.390 . S
C393 H397 0.950 . S
H394 C390 0.950 . S
C395 C393 1.390 . S
C395 C396 1.387 . S
C395 H398 0.950 . S
C396 C395 1.387 . S
C396 C399 1.387 . S
H397 C393 0.950 . S
H398 C395 0.950 . S
C399 C390 1.390 . S
C399 H392 0.950 1_554 S
C399 C396 1.387 . S
C400 C401 1.387 . S
C400 H404 0.950 . S
C400 C409 1.390 . S
C401 C400 1.387 . S
C401 C403 1.387 . S
H402 C409 0.950 . S
C403 C401 1.387 . S
C403 C405 1.390 . S
C403 H407 0.950 . S
H404 C400 0.950 . S
C405 C403 1.390 . S
C405 C406 1.387 . S
C405 H408 0.950 1_554 S
C406 C405 1.387 . S
C406 C409 1.387 . S
H407 C403 0.950 . S
H408 C405 0.950 1_556 S
C409 C400 1.390 . S
C409 H402 0.950 . S
C409 C406 1.387 . S
C410 C411 1.387 . S
C410 H414 0.950 1_554 S
C410 C419 1.390 . S
C411 C410 1.387 . S
C411 C413 1.387 . S
H412 C419 0.950 . S
C413 C411 1.387 . S
C413 C415 1.390 . S
C413 H417 0.950 . S
H414 C410 0.950 1_556 S
C415 C413 1.390 . S
C415 C416 1.387 . S
C415 H418 0.950 . S
C416 C415 1.387 . S
C416 C419 1.387 . S
H417 C413 0.950 . S
H418 C415 0.950 . S
C419 C410 1.390 . S
C419 H412 0.950 . S
C419 C416 1.387 . S
C420 C421 1.387 . S
C420 H424 0.950 . S
C420 C429 1.390 . S
C421 C420 1.387 . S
C421 C423 1.387 . S
H422 C429 0.950 . S
C423 C421 1.387 . S
C423 C425 1.390 . S
C423 H427 0.950 . S
H424 C420 0.950 . S
C425 C423 1.390 . S
C425 C426 1.387 . S
C425 H428 0.950 . S
C426 C425 1.387 . S
C426 C429 1.387 . S
H427 C423 0.950 . S
H428 C425 0.950 . S
C429 C420 1.390 . S
C429 H422 0.950 . S
C429 C426 1.387 . S
C430 C431 1.387 . S
C430 H434 0.950 . S
C430 C439 1.390 . S
C431 C430 1.387 . S
C431 C433 1.387 . S
H432 C439 0.950 . S
C433 C431 1.387 . S
C433 C435 1.390 . S
C433 H437 0.950 . S
H434 C430 0.950 . S
C435 C433 1.390 . S
C435 C436 1.387 . S
C435 H438 0.950 . S
C436 C435 1.387 . S
C436 C439 1.387 . S
H437 C433 0.950 . S
H438 C435 0.950 . S
C439 C430 1.390 . S
C439 H432 0.950 . S
C439 C436 1.387 . S
C440 C441 1.387 . S
C440 H444 0.950 . S
C440 C449 1.390 . S
C441 C440 1.387 . S
C441 C443 1.387 . S
H442 C449 0.950 . S
C443 C441 1.387 . S
C443 C445 1.390 . S
C443 H447 0.950 . S
H444 C440 0.950 . S
C445 C443 1.390 . S
C445 C446 1.387 . S
C445 H448 0.950 . S
C446 C445 1.387 . S
C446 C449 1.387 . S
H447 C443 0.950 . S
H448 C445 0.950 . S
C449 C440 1.390 . S
C449 H442 0.950 . S
C449 C446 1.387 . S
C450 C451 1.387 . S
C450 H454 0.950 . S
C450 C459 1.390 . S
C451 C450 1.387 . S
C451 C453 1.387 1_554 S
H452 C459 0.950 . S
C453 C451 1.387 1_556 S
C453 C455 1.390 . S
C453 H457 0.950 . S
H454 C450 0.950 . S
C455 C453 1.390 . S
C455 C456 1.387 1_556 S
C455 H458 0.950 . S
C456 C455 1.387 1_554 S
C456 C459 1.387 . S
H457 C453 0.950 . S
H458 C455 0.950 . S
C459 C450 1.390 . S
C459 H452 0.950 . S
C459 C456 1.387 . S
C460 C461 1.387 . S
C460 H464 0.950 . S
C460 C469 1.390 . S
C461 C460 1.387 . S
C461 C463 1.387 . S
H462 C469 0.950 . S
C463 C461 1.387 . S
C463 C465 1.390 . S
C463 H467 0.950 . S
H464 C460 0.950 . S
C465 C463 1.390 . S
C465 C466 1.387 . S
C465 H468 0.950 . S
C466 C465 1.387 . S
C466 C469 1.387 . S
H467 C463 0.950 . S
H468 C465 0.950 . S
C469 C460 1.390 . S
C469 H462 0.950 . S
C469 C466 1.387 . S
C470 C471 1.387 1_556 S
C470 H474 0.950 . S
C470 C479 1.390 . S
C471 C470 1.387 1_554 S
C471 C473 1.387 . S
H472 C479 0.950 . S
C473 C471 1.387 . S
C473 C475 1.390 . S
C473 H477 0.950 . S
H474 C470 0.950 . S
C475 C473 1.390 . S
C475 C476 1.387 . S
C475 H478 0.950 . S
C476 C475 1.387 . S
C476 C479 1.387 1_554 S
H477 C473 0.950 . S
H478 C475 0.950 . S
C479 C470 1.390 . S
C479 H472 0.950 . S
C479 C476 1.387 1_556 S
C480 C481 1.387 . S
C480 H484 0.950 . S
C480 C489 1.390 . S
C481 C480 1.387 . S
C481 C483 1.387 . S
H482 C489 0.950 . S
C483 C481 1.387 . S
C483 C485 1.390 . S
C483 H487 0.950 . S
H484 C480 0.950 . S
C485 C483 1.390 . S
C485 C486 1.387 . S
C485 H488 0.950 . S
C486 C485 1.387 . S
C486 C489 1.387 . S
H487 C483 0.950 . S
H488 C485 0.950 . S
C489 C480 1.390 . S
C489 H482 0.950 . S
C489 C486 1.387 . S
C490 C491 1.387 . S
C490 H494 0.950 . S
C490 C499 1.390 . S
C491 C490 1.387 . S
C491 C493 1.387 . S
H492 C499 0.950 . S
C493 C491 1.387 . S
C493 C495 1.390 . S
C493 H497 0.950 . S
H494 C490 0.950 . S
C495 C493 1.390 . S
C495 C496 1.387 . S
C495 H498 0.950 . S
C496 C495 1.387 . S
C496 C499 1.387 . S
H497 C493 0.950 . S
H498 C495 0.950 . S
C499 C490 1.390 . S
C499 H492 0.950 . S
C499 C496 1.387 . S
C500 C501 1.387 . S
C500 H504 0.950 . S
C500 C509 1.390 . S
C501 C500 1.387 . S
C501 C503 1.387 . S
H502 C509 0.950 . S
C503 C501 1.387 . S
C503 C505 1.390 . S
C503 H507 0.950 . S
H504 C500 0.950 . S
C505 C503 1.390 . S
C505 C506 1.387 . S
C505 H508 0.950 . S
C506 C505 1.387 . S
C506 C509 1.387 . S
H507 C503 0.950 . S
H508 C505 0.950 . S
C509 C500 1.390 . S
C509 H502 0.950 . S
C509 C506 1.387 . S
C510 C511 1.387 . S
C510 H514 0.950 . S
C510 C519 1.390 . S
C511 C510 1.387 . S
C511 C513 1.387 . S
H512 C519 0.950 . S
C513 C511 1.387 . S
C513 C515 1.390 . S
C513 H517 0.950 . S
H514 C510 0.950 . S
C515 C513 1.390 . S
C515 C516 1.387 . S
C515 H518 0.950 . S
C516 C515 1.387 . S
C516 C519 1.387 . S
H517 C513 0.950 . S
H518 C515 0.950 . S
C519 C510 1.390 . S
C519 H512 0.950 . S
C519 C516 1.387 . S
C520 C521 1.387 . S
C520 H524 0.950 . S
C520 C529 1.390 . S
C521 C520 1.387 . S
C521 C523 1.387 . S
H522 C529 0.950 . S
C523 C521 1.387 . S
C523 C525 1.390 . S
C523 H527 0.950 . S
H524 C520 0.950 . S
C525 C523 1.390 . S
C525 C526 1.387 . S
C525 H528 0.950 . S
C526 C525 1.387 . S
C526 C529 1.387 . S
H527 C523 0.950 . S
H528 C525 0.950 . S
C529 C520 1.390 . S
C529 H522 0.950 . S
C529 C526 1.387 . S
C530 C531 1.387 . S
C530 H534 0.950 . S
C530 C539 1.390 . S
C531 C530 1.387 . S
C531 C533 1.387 . S
H532 C539 0.950 . S
C533 C531 1.387 . S
C533 C535 1.390 . S
C533 H537 0.950 . S
H534 C530 0.950 . S
C535 C533 1.390 . S
C535 C536 1.387 . S
C535 H538 0.950 . S
C536 C535 1.387 . S
C536 C539 1.387 . S
H537 C533 0.950 . S
H538 C535 0.950 . S
C539 C530 1.390 . S
C539 H532 0.950 . S
C539 C536 1.387 . S
C540 C541 1.387 1_655 S
C540 H544 0.950 . S
C540 C549 1.390 . S
C541 C540 1.387 1_455 S
C541 C543 1.387 . S
H542 C549 0.950 . S
C543 C541 1.387 . S
C543 C545 1.390 . S
C543 H547 0.950 . S
H544 C540 0.950 . S
C545 C543 1.390 . S
C545 C546 1.387 . S
C545 H548 0.950 . S
C546 C545 1.387 . S
C546 C549 1.387 1_455 S
H547 C543 0.950 . S
H548 C545 0.950 . S
C549 C540 1.390 . S
C549 H542 0.950 . S
C549 C546 1.387 1_655 S
C550 C551 1.387 . S
C550 H554 0.950 . S
C550 C559 1.390 . S
C551 C550 1.387 . S
C551 C553 1.387 . S
H552 C559 0.950 . S
C553 C551 1.387 . S
C553 C555 1.390 . S
C553 H557 0.950 . S
H554 C550 0.950 . S
C555 C553 1.390 . S
C555 C556 1.387 . S
C555 H558 0.950 . S
C556 C555 1.387 . S
C556 C559 1.387 . S
H557 C553 0.950 . S
H558 C555 0.950 . S
C559 C550 1.390 . S
C559 H552 0.950 . S
C559 C556 1.387 . S
C560 C561 1.387 . S
C560 H564 0.950 . S
C560 C569 1.390 . S
C561 C560 1.387 . S
C561 C563 1.387 1_545 S
H562 C569 0.950 . S
C563 C561 1.387 1_565 S
C563 C565 1.390 . S
C563 H567 0.950 . S
H564 C560 0.950 . S
C565 C563 1.390 . S
C565 C566 1.387 1_565 S
C565 H568 0.950 . S
C566 C565 1.387 1_545 S
C566 C569 1.387 . S
H567 C563 0.950 . S
H568 C565 0.950 . S
C569 C560 1.390 . S
C569 H562 0.950 . S
C569 C566 1.387 . S
C570 C571 1.387 . S
C570 H574 0.950 . S
C570 C579 1.390 . S
C571 C570 1.387 . S
C571 C573 1.387 . S
H572 C579 0.950 . S
C573 C571 1.387 . S
C573 C575 1.390 . S
C573 H577 0.950 . S
H574 C570 0.950 . S
C575 C573 1.390 . S
C575 C576 1.387 . S
C575 H578 0.950 . S
C576 C575 1.387 . S
C576 C579 1.387 . S
H577 C573 0.950 . S
H578 C575 0.950 . S
C579 C570 1.390 . S
C579 H572 0.950 . S
C579 C576 1.387 . S
C580 C581 1.387 . S
C580 H584 0.950 . S
C580 C589 1.390 . S
C581 C580 1.387 . S
C581 C583 1.387 . S
H582 C589 0.950 . S
C583 C581 1.387 . S
C583 C585 1.390 . S
C583 H587 0.950 . S
H584 C580 0.950 . S
C585 C583 1.390 . S
C585 C586 1.387 . S
C585 H588 0.950 . S
C586 C585 1.387 . S
C586 C589 1.387 . S
H587 C583 0.950 . S
H588 C585 0.950 . S
C589 C580 1.390 . S
C589 H582 0.950 . S
C589 C586 1.387 . S
C590 C591 1.387 . S
C590 H594 0.950 . S
C590 C599 1.390 . S
C591 C590 1.387 . S
C591 C593 1.387 . S
H592 C599 0.950 . S
C593 C591 1.387 . S
C593 C595 1.390 . S
C593 H597 0.950 . S
H594 C590 0.950 . S
C595 C593 1.390 . S
C595 C596 1.387 . S
C595 H598 0.950 . S
C596 C595 1.387 . S
C596 C599 1.387 . S
H597 C593 0.950 . S
H598 C595 0.950 . S
C599 C590 1.390 . S
C599 H592 0.950 . S
C599 C596 1.387 . S
C600 C601 1.387 . S
C600 H604 0.950 . S
C600 C609 1.390 . S
C601 C600 1.387 . S
C601 C603 1.387 . S
H602 C609 0.950 . S
C603 C601 1.387 . S
C603 C605 1.390 . S
C603 H607 0.950 . S
H604 C600 0.950 . S
C605 C603 1.390 . S
C605 C606 1.387 . S
C605 H608 0.950 . S
C606 C605 1.387 . S
C606 C609 1.387 . S
H607 C603 0.950 . S
H608 C605 0.950 . S
C609 C600 1.390 . S
C609 H602 0.950 . S
C609 C606 1.387 . S
C610 C611 1.387 . S
C610 H614 0.950 . S
C610 C619 1.390 . S
C611 C610 1.387 . S
C611 C613 1.387 . S
H612 C619 0.950 . S
C613 C611 1.387 . S
C613 C615 1.390 . S
C613 H617 0.950 . S
H614 C610 0.950 . S
C615 C613 1.390 . S
C615 C616 1.387 . S
C615 H618 0.950 . S
C616 C615 1.387 . S
C616 C619 1.387 . S
H617 C613 0.950 . S
H618 C615 0.950 . S
C619 C610 1.390 . S
C619 H612 0.950 . S
C619 C616 1.387 . S
C620 C621 1.387 . S
C620 H624 0.950 . S
C620 C629 1.390 . S
C621 C620 1.387 . S
C621 C623 1.387 . S
H622 C629 0.950 . S
C623 C621 1.387 . S
C623 C625 1.390 . S
C623 H627 0.950 . S
H624 C620 0.950 . S
C625 C623 1.390 . S
C625 C626 1.387 . S
C625 H628 0.950 . S
C626 C625 1.387 . S
C626 C629 1.387 . S
H627 C623 0.950 . S
H628 C625 0.950 . S
C629 C620 1.390 . S
C629 H622 0.950 . S
C629 C626 1.387 . S
C361 C8 1.768 . S
C366 C311 1.770 . S
C371 C48 1.768 . S
C376 C351 1.770 . S
C381 C88 1.766 . S
C386 C271 1.768 . S
C391 C168 1.767 . S
C396 C111 1.769 . S
C401 C208 1.769 . S
C406 C31 1.770 . S
C411 C71 1.768 . S
C416 C128 1.767 . S
C421 C288 1.767 1_655 S
C426 C231 1.768 . S
C431 C328 1.766 . S
C436 C151 1.768 . S
C441 C191 1.770 . S
C446 C248 1.768 . S
C451 C109 1.674 . S
C456 C12 1.707 1_554 S
C461 C52 1.706 1_554 S
C466 C29 1.672 1_565 S
C471 C69 1.673 . S
C476 C92 1.708 1_554 S
C481 C132 1.708 . S
C486 C229 1.674 . S
C491 C149 1.672 . S
C496 C172 1.707 . S
C501 C189 1.672 . S
C506 C212 1.706 . S
C511 C349 1.672 . S
C516 C252 1.706 . S
C521 C292 1.706 . S
C526 C269 1.672 . S
C531 C332 1.707 . S
C536 C309 1.673 . S
C541 C2 1.205 . S
C546 C17 1.205 . S
C551 C42 1.208 . S
C556 C57 1.208 . S
C561 C82 1.205 . S
C566 C97 1.205 . S
C571 C137 1.207 . S
C576 C122 1.207 1_556 S
C581 C177 1.206 . S
C586 C162 1.206 1_556 S
C591 C217 1.205 . S
C596 C202 1.205 1_556 S
C601 C242 1.206 . S
C606 C257 1.206 1_554 S
C611 C297 1.207 1_554 S
C616 C282 1.207 . S
C621 C322 1.208 . S
C626 C337 1.208 1_554 S
