# Generated by pormake.
# Topology umd, (4)-cn, num edge types: 1
# Building blocks:
#     Node 0, Type 0, BuildingBlock: ESEHIV_clean_sbu_0, # of connection points: 4
#     Node 1, Type 0, BuildingBlock: ESEHIV_clean_sbu_0, # of connection points: 4
#     Node 2, Type 0, BuildingBlock: ESEHIV_clean_sbu_0, # of connection points: 4
#     Node 3, Type 0, BuildingBlock: ESEHIV_clean_sbu_0, # of connection points: 4
#     Node 4, Type 0, BuildingBlock: ESEHIV_clean_sbu_0, # of connection points: 4
#     Node 5, Type 0, BuildingBlock: ESEHIV_clean_sbu_0, # of connection points: 4
#     Node 6, Type 0, BuildingBlock: ESEHIV_clean_sbu_0, # of connection points: 4
#     Node 7, Type 0, BuildingBlock: ESEHIV_clean_sbu_0, # of connection points: 4
#     Node 8, Type 0, BuildingBlock: ESEHIV_clean_sbu_0, # of connection points: 4
#     Node 9, Type 0, BuildingBlock: ESEHIV_clean_sbu_0, # of connection points: 4
#     Node 10, Type 0, BuildingBlock: ESEHIV_clean_sbu_0, # of connection points: 4
#     Node 11, Type 0, BuildingBlock: ESEHIV_clean_sbu_0, # of connection points: 4
#     Node 12, Type 0, BuildingBlock: ESEHIV_clean_sbu_0, # of connection points: 4
#     Node 13, Type 0, BuildingBlock: ESEHIV_clean_sbu_0, # of connection points: 4
#     Node 14, Type 0, BuildingBlock: ESEHIV_clean_sbu_0, # of connection points: 4
#     Node 15, Type 0, BuildingBlock: ESEHIV_clean_sbu_0, # of connection points: 4
#     Edge 16, Type (0, 0), BuildingBlock: TEMPAE_clean_linker_10, # of connection points: 2
#     Edge 17, Type (0, 0), BuildingBlock: TEMPAE_clean_linker_10, # of connection points: 2
#     Edge 18, Type (0, 0), BuildingBlock: TEMPAE_clean_linker_10, # of connection points: 2
#     Edge 19, Type (0, 0), BuildingBlock: TEMPAE_clean_linker_10, # of connection points: 2
#     Edge 20, Type (0, 0), BuildingBlock: TEMPAE_clean_linker_10, # of connection points: 2
#     Edge 21, Type (0, 0), BuildingBlock: TEMPAE_clean_linker_10, # of connection points: 2
#     Edge 22, Type (0, 0), BuildingBlock: TEMPAE_clean_linker_10, # of connection points: 2
#     Edge 23, Type (0, 0), BuildingBlock: TEMPAE_clean_linker_10, # of connection points: 2
#     Edge 24, Type (0, 0), BuildingBlock: TEMPAE_clean_linker_10, # of connection points: 2
#     Edge 25, Type (0, 0), BuildingBlock: TEMPAE_clean_linker_10, # of connection points: 2
#     Edge 26, Type (0, 0), BuildingBlock: TEMPAE_clean_linker_10, # of connection points: 2
#     Edge 27, Type (0, 0), BuildingBlock: TEMPAE_clean_linker_10, # of connection points: 2
#     Edge 28, Type (0, 0), BuildingBlock: TEMPAE_clean_linker_10, # of connection points: 2
#     Edge 29, Type (0, 0), BuildingBlock: TEMPAE_clean_linker_10, # of connection points: 2
#     Edge 30, Type (0, 0), BuildingBlock: TEMPAE_clean_linker_10, # of connection points: 2
#     Edge 31, Type (0, 0), BuildingBlock: TEMPAE_clean_linker_10, # of connection points: 2
#     Edge 32, Type (0, 0), BuildingBlock: TEMPAE_clean_linker_10, # of connection points: 2
#     Edge 33, Type (0, 0), BuildingBlock: TEMPAE_clean_linker_10, # of connection points: 2
#     Edge 34, Type (0, 0), BuildingBlock: TEMPAE_clean_linker_10, # of connection points: 2
#     Edge 35, Type (0, 0), BuildingBlock: TEMPAE_clean_linker_10, # of connection points: 2
#     Edge 36, Type (0, 0), BuildingBlock: TEMPAE_clean_linker_10, # of connection points: 2
#     Edge 37, Type (0, 0), BuildingBlock: TEMPAE_clean_linker_10, # of connection points: 2
#     Edge 38, Type (0, 0), BuildingBlock: TEMPAE_clean_linker_10, # of connection points: 2
#     Edge 39, Type (0, 0), BuildingBlock: TEMPAE_clean_linker_10, # of connection points: 2
#     Edge 40, Type (0, 0), BuildingBlock: TEMPAE_clean_linker_10, # of connection points: 2
#     Edge 41, Type (0, 0), BuildingBlock: TEMPAE_clean_linker_10, # of connection points: 2
#     Edge 42, Type (0, 0), BuildingBlock: TEMPAE_clean_linker_10, # of connection points: 2
#     Edge 43, Type (0, 0), BuildingBlock: TEMPAE_clean_linker_10, # of connection points: 2
#     Edge 44, Type (0, 0), BuildingBlock: TEMPAE_clean_linker_10, # of connection points: 2
#     Edge 45, Type (0, 0), BuildingBlock: TEMPAE_clean_linker_10, # of connection points: 2
#     Edge 46, Type (0, 0), BuildingBlock: TEMPAE_clean_linker_10, # of connection points: 2
#     Edge 47, Type (0, 0), BuildingBlock: TEMPAE_clean_linker_10, # of connection points: 2
# Relax obj value: 0.041
# Max RMSD: 0.125
# Mean RMSD: 0.125
data_MOF--net-umd--node1-ESEHIV_clean_sbu_0--edge1-TEMPAE_clean_linker_10
_symmetry_space_group_name_H-M    P1
_symmetry_Int_Tables_number       1
_symmetry_cell_setting            triclinic
loop_
_symmetry_equiv_pos_as_xyz
'x, y, z'
_cell_length_a     48.11883
_cell_length_b     48.263694
_cell_length_c     55.645613
_cell_angle_alpha  90.019739
_cell_angle_beta   89.864156
_cell_angle_gamma 89.989075
loop_
_atom_site_label
_atom_site_type_symbol
_atom_site_fract_x
_atom_site_fract_y
_atom_site_fract_z
_atom_type_partial_charge
Cu0 Cu 0.20518 0.44863 0.15921 0.0
N1 N 0.16655 0.44486 0.15635 0.0
N2 N 0.12157 0.45701 0.15554 0.0
C3 C 0.14753 0.46418 0.16245 0.0
C4 C 0.12446 0.43201 0.14488 0.0
C5 C 0.15219 0.42461 0.14538 0.0
O6 O 0.21092 0.47375 0.18626 0.0
C7 C 0.20646 0.48043 0.11629 0.0
O8 O 0.1858 0.49392 0.12639 0.0
H9 H 0.15293 0.48382 0.1706 0.0
H10 H 0.16136 0.40622 0.13759 0.0
N11 N 0.22206 0.41424 0.1652 0.0
N12 N 0.2543 0.38068 0.16742 0.0
C13 C 0.24851 0.40684 0.16013 0.0
C14 C 0.21061 0.39202 0.17588 0.0
C15 C 0.23033 0.37135 0.17725 0.0
C16 C 0.22903 0.47029 0.20266 0.0
O17 O 0.24787 0.45083 0.20011 0.0
H18 H 0.26334 0.42072 0.15183 0.0
H19 H 0.18941 0.391 0.18232 0.0
O20 O 0.21907 0.4619 0.12836 0.0
H21 H 0.10784 0.42008 0.13688 0.0
H22 H 0.22706 0.35095 0.18479 0.0
Cu23 Cu 0.58796 0.17745 0.66953 0.0
N24 N 0.59033 0.13894 0.67318 0.0
N25 N 0.57849 0.09409 0.67393 0.0
C26 C 0.56942 0.12046 0.67161 0.0
C27 C 0.60624 0.09609 0.67694 0.0
C28 C 0.61346 0.1237 0.67639 0.0
O29 O 0.56216 0.19186 0.69357 0.0
C30 C 0.56942 0.20593 0.626 0.0
O31 O 0.56306 0.22748 0.63935 0.0
H32 H 0.54814 0.12612 0.66789 0.0
H33 H 0.63426 0.13199 0.67774 0.0
N34 N 0.62239 0.19291 0.67714 0.0
N35 N 0.65946 0.22079 0.67896 0.0
C36 C 0.63625 0.21396 0.66657 0.0
C37 C 0.63719 0.18636 0.69678 0.0
C38 C 0.66009 0.20327 0.69786 0.0
C39 C 0.53653 0.18596 0.69589 0.0
O40 O 0.52413 0.17137 0.67914 0.0
H41 H 0.62894 0.22462 0.65069 0.0
H42 H 0.63137 0.17066 0.70971 0.0
O43 O 0.5791 0.18419 0.63586 0.0
H44 H 0.62036 0.07885 0.67926 0.0
H45 H 0.67593 0.2027 0.71163 0.0
Cu46 Cu 0.87157 0.59834 0.15888 0.0
N47 N 0.9105 0.59806 0.15928 0.0
N48 N 0.95436 0.58236 0.15925 0.0
C49 C 0.92711 0.57561 0.16089 0.0
C50 C 0.95475 0.61018 0.15658 0.0
C51 C 0.92774 0.61977 0.15659 0.0
O52 O 0.85991 0.57054 0.18229 0.0
C53 C 0.83957 0.57875 0.11769 0.0
O54 O 0.82132 0.56846 0.13285 0.0
H55 H 0.91928 0.55467 0.16251 0.0
H56 H 0.9211 0.64103 0.15446 0.0
N57 N 0.85844 0.63322 0.16863 0.0
N58 N 0.83189 0.67099 0.17362 0.0
C59 C 0.83621 0.64763 0.16062 0.0
C60 C 0.86854 0.64801 0.18712 0.0
C61 C 0.85232 0.67125 0.19022 0.0
C62 C 0.83877 0.57325 0.19593 0.0
O63 O 0.82131 0.59367 0.19201 0.0
H64 H 0.82294 0.64061 0.14617 0.0
H65 H 0.8862 0.64198 0.19791 0.0
O66 O 0.8609 0.59129 0.1257 0.0
H67 H 0.97324 0.62278 0.15477 0.0
H68 H 0.85535 0.6871 0.20372 0.0
Cu69 Cu 0.44425 0.84194 0.65284 0.0
N70 N 0.44735 0.88026 0.64856 0.0
N71 N 0.46231 0.92414 0.64907 0.0
C72 C 0.46541 0.89841 0.65833 0.0
C73 C 0.44133 0.92204 0.63311 0.0
C74 C 0.43224 0.89503 0.63282 0.0
O75 O 0.46346 0.82994 0.68193 0.0
C76 C 0.47502 0.83416 0.60972 0.0
O77 O 0.48993 0.85489 0.61794 0.0
H78 H 0.48108 0.89272 0.6713 0.0
H79 H 0.41604 0.88653 0.62157 0.0
N80 N 0.40669 0.83389 0.65719 0.0
N81 N 0.36627 0.81116 0.65886 0.0
C82 C 0.39378 0.80938 0.65409 0.0
C83 C 0.3868 0.8517 0.66426 0.0
C84 C 0.36186 0.83779 0.66527 0.0
C85 C 0.48912 0.83343 0.68653 0.0
O86 O 0.5054 0.84423 0.67003 0.0
H87 H 0.40434 0.79072 0.64831 0.0
H88 H 0.39026 0.87328 0.66858 0.0
O89 O 0.45597 0.82403 0.62302 0.0
H90 H 0.43318 0.93876 0.62226 0.0
H91 H 0.34213 0.84648 0.67084 0.0
Cu92 Cu 0.18099 0.59541 0.40006 0.0
N93 N 0.14211 0.5926 0.40252 0.0
N94 N 0.09853 0.57601 0.4025 0.0
C95 C 0.12523 0.57166 0.39569 0.0
C96 C 0.09873 0.60076 0.41384 0.0
C97 C 0.12551 0.61079 0.41391 0.0
O98 O 0.19458 0.5754 0.37197 0.0
C99 C 0.18733 0.56506 0.44379 0.0
O100 O 0.16695 0.54975 0.43546 0.0
H101 H 0.13255 0.55314 0.38678 0.0
H102 H 0.13256 0.6298 0.4222 0.0
N103 N 0.19101 0.63248 0.39525 0.0
N104 N 0.21699 0.67086 0.39213 0.0
C105 C 0.21639 0.64377 0.39841 0.0
C106 C 0.17504 0.653 0.38654 0.0
C107 C 0.19092 0.67666 0.38468 0.0
C108 C 0.19323 0.54945 0.36813 0.0
O109 O 0.18313 0.53308 0.38485 0.0
H110 H 0.23406 0.63223 0.40505 0.0
H111 H 0.15352 0.65074 0.38135 0.0
O112 O 0.19737 0.58417 0.43058 0.0
H113 H 0.08087 0.6109 0.42177 0.0
H114 H 0.18399 0.69636 0.3776 0.0
Cu115 Cu 0.40993 0.16373 0.88966 0.0
N116 N 0.40949 0.12594 0.88358 0.0
N117 N 0.42629 0.08324 0.87913 0.0
C118 C 0.43184 0.1095 0.88575 0.0
C119 C 0.39933 0.08309 0.87252 0.0
C120 C 0.38893 0.10954 0.87543 0.0
O121 O 0.44045 0.17762 0.86981 0.0
C122 C 0.4165 0.1889 0.93705 0.0
O123 O 0.4167 0.21322 0.92645 0.0
H124 H 0.452 0.11688 0.89151 0.0
H125 H 0.36796 0.11632 0.87171 0.0
N126 N 0.37661 0.17909 0.87903 0.0
N127 N 0.34062 0.2077 0.87424 0.0
C128 C 0.3614 0.19959 0.88893 0.0
C129 C 0.36497 0.17401 0.85753 0.0
C130 C 0.34274 0.19154 0.85454 0.0
C131 C 0.43843 0.1986 0.85601 0.0
O132 O 0.41707 0.21533 0.85844 0.0
H133 H 0.36631 0.20932 0.90591 0.0
H134 H 0.37286 0.15933 0.8445 0.0
O135 O 0.41455 0.16705 0.92437 0.0
H136 H 0.38798 0.06515 0.86622 0.0
H137 H 0.32953 0.19271 0.83885 0.0
Cu138 Cu 0.85141 0.43236 0.38837 0.0
N139 N 0.89049 0.43217 0.38979 0.0
N140 N 0.93467 0.44703 0.39125 0.0
C141 C 0.90776 0.4541 0.38771 0.0
C142 C 0.93421 0.41954 0.39573 0.0
C143 C 0.90706 0.41051 0.3949 0.0
O144 O 0.84 0.45466 0.3609 0.0
C145 C 0.84224 0.42852 0.43701 0.0
O146 O 0.85512 0.40507 0.43249 0.0
H147 H 0.90064 0.475 0.3845 0.0
H148 H 0.89988 0.38967 0.39837 0.0
N149 N 0.83769 0.39646 0.3829 0.0
N150 N 0.8094 0.35958 0.38223 0.0
C151 C 0.8127 0.38615 0.38945 0.0
C152 C 0.85041 0.37586 0.37086 0.0
C153 C 0.83314 0.35309 0.37054 0.0
C154 C 0.8427 0.48078 0.35882 0.0
O155 O 0.85172 0.49525 0.37721 0.0
H156 H 0.79732 0.3979 0.39938 0.0
H157 H 0.87068 0.37742 0.36253 0.0
O158 O 0.83765 0.44501 0.41957 0.0
H159 H 0.95217 0.40677 0.39948 0.0
H160 H 0.83744 0.33351 0.36179 0.0
Cu161 Cu 0.58942 0.85255 0.89154 0.0
N162 N 0.58729 0.89045 0.8863 0.0
N163 N 0.56758 0.93179 0.88108 0.0
C164 C 0.56345 0.90423 0.88256 0.0
C165 C 0.59517 0.93551 0.88393 0.0
C166 C 0.60729 0.90991 0.88734 0.0
O167 O 0.56236 0.83672 0.86927 0.0
C168 C 0.5762 0.8271 0.93826 0.0
O169 O 0.57146 0.80331 0.92755 0.0
H170 H 0.54338 0.89419 0.8814 0.0
H171 H 0.62895 0.90588 0.89111 0.0
N172 N 0.62524 0.84043 0.88437 0.0
N173 N 0.66398 0.81511 0.88378 0.0
C174 C 0.63819 0.81783 0.89304 0.0
C175 C 0.64334 0.85223 0.86901 0.0
C176 C 0.66735 0.83674 0.86871 0.0
C177 C 0.56834 0.8183 0.85367 0.0
O178 O 0.59197 0.80485 0.85543 0.0
H179 H 0.62881 0.80358 0.9057 0.0
H180 H 0.63918 0.87053 0.85841 0.0
O181 O 0.58258 0.84828 0.92582 0.0
H182 H 0.60561 0.95537 0.88458 0.0
H183 H 0.68552 0.84051 0.85767 0.0
Cu184 Cu 0.8407 0.58954 0.89196 0.0
N185 N 0.87936 0.59137 0.89395 0.0
N186 N 0.92439 0.5801 0.8939 0.0
C187 C 0.89827 0.57162 0.88898 0.0
C188 C 0.92178 0.60628 0.90213 0.0
C189 C 0.894 0.61315 0.90211 0.0
O190 O 0.8294 0.56585 0.86526 0.0
C191 C 0.83752 0.56244 0.93711 0.0
O192 O 0.85759 0.54716 0.92811 0.0
H193 H 0.893 0.55112 0.88275 0.0
H194 H 0.88499 0.63253 0.90802 0.0
N195 N 0.82874 0.62473 0.88338 0.0
N196 N 0.80364 0.66323 0.87933 0.0
C197 C 0.8072 0.63959 0.89194 0.0
C198 C 0.83918 0.63948 0.86496 0.0
C199 C 0.82373 0.66324 0.86239 0.0
C200 C 0.83525 0.54049 0.86156 0.0
O201 O 0.84795 0.52614 0.87829 0.0
H202 H 0.79378 0.63274 0.90641 0.0
H203 H 0.85644 0.63298 0.85382 0.0
O204 O 0.82594 0.58046 0.92372 0.0
H205 H 0.93866 0.61948 0.90792 0.0
H206 H 0.82682 0.67919 0.84896 0.0
Cu207 Cu 0.44301 0.851 0.38657 0.0
N208 N 0.43901 0.88938 0.3858 0.0
N209 N 0.45083 0.93418 0.38583 0.0
C210 C 0.46004 0.90775 0.38517 0.0
C211 C 0.42284 0.93226 0.38691 0.0
C212 C 0.41562 0.90458 0.38688 0.0
O213 O 0.47366 0.84342 0.36439 0.0
C214 C 0.46397 0.82252 0.42931 0.0
O215 O 0.47679 0.80484 0.41516 0.0
H216 H 0.48171 0.90173 0.38495 0.0
H217 H 0.39483 0.89612 0.38788 0.0
N218 N 0.41 0.83464 0.37584 0.0
N219 N 0.37284 0.80704 0.37203 0.0
C220 C 0.39571 0.81309 0.38518 0.0
C221 C 0.39569 0.84253 0.35629 0.0
C222 C 0.37284 0.82563 0.35389 0.0
C223 C 0.4725 0.82606 0.34716 0.0
O224 O 0.45161 0.80858 0.34621 0.0
H225 H 0.40219 0.8019 0.40106 0.0
H226 H 0.40154 0.85947 0.3446 0.0
O227 O 0.4496 0.84197 0.42017 0.0
H228 H 0.40857 0.94957 0.38768 0.0
H229 H 0.35721 0.82724 0.34001 0.0
Cu230 Cu 0.17216 0.43813 0.89682 0.0
N231 N 0.1337 0.4395 0.89938 0.0
N232 N 0.09006 0.45515 0.89905 0.0
C233 C 0.11708 0.46133 0.89509 0.0
C234 C 0.08984 0.42836 0.90608 0.0
C235 C 0.11679 0.4188 0.90629 0.0
O236 O 0.18298 0.46414 0.87174 0.0
C237 C 0.20061 0.46572 0.93627 0.0
O238 O 0.20841 0.48496 0.92099 0.0
H239 H 0.12477 0.48145 0.88965 0.0
H240 H 0.12363 0.39821 0.91117 0.0
N241 N 0.18146 0.40236 0.88731 0.0
N242 N 0.20279 0.36153 0.88386 0.0
C243 C 0.20299 0.38666 0.89455 0.0
C244 C 0.16729 0.38677 0.87149 0.0
C245 C 0.18035 0.36154 0.86936 0.0
C246 C 0.20294 0.45955 0.85719 0.0
O247 O 0.21959 0.43848 0.86115 0.0
H248 H 0.21835 0.39348 0.90745 0.0
H249 H 0.14879 0.39342 0.86211 0.0
O250 O 0.18664 0.44506 0.92884 0.0
H251 H 0.07153 0.41641 0.91057 0.0
H252 H 0.17418 0.34474 0.85764 0.0
Cu253 Cu 0.57635 0.18871 0.39873 0.0
N254 N 0.57898 0.1502 0.4018 0.0
N255 N 0.56808 0.10513 0.40105 0.0
C256 C 0.56121 0.13085 0.39354 0.0
C257 C 0.59131 0.10847 0.41432 0.0
C258 C 0.59796 0.13625 0.41472 0.0
O259 O 0.54884 0.19711 0.37383 0.0
C260 C 0.55296 0.19199 0.44556 0.0
O261 O 0.53894 0.17017 0.43841 0.0
H262 H 0.543 0.13561 0.38302 0.0
H263 H 0.61502 0.14576 0.42428 0.0
N264 N 0.61061 0.20189 0.3875 0.0
N265 N 0.64879 0.2274 0.38106 0.0
C266 C 0.62595 0.2237 0.39497 0.0
C267 C 0.62428 0.19143 0.36846 0.0
C268 C 0.64775 0.20706 0.36443 0.0
C269 C 0.52337 0.18984 0.37387 0.0
O270 O 0.51274 0.17846 0.39325 0.0
H271 H 0.62011 0.23696 0.40984 0.0
H272 H 0.61739 0.17381 0.35804 0.0
O273 O 0.569 0.20419 0.43067 0.0
H274 H 0.60253 0.0921 0.42337 0.0
H275 H 0.66295 0.20362 0.35037 0.0
Cu276 Cu 0.85197 0.43218 0.65653 0.0
N277 N 0.89083 0.43246 0.65798 0.0
N278 N 0.93461 0.44753 0.66154 0.0
C279 C 0.90764 0.45219 0.66706 0.0
C280 C 0.93474 0.42382 0.64868 0.0
C281 C 0.90778 0.41471 0.64641 0.0
O282 O 0.83698 0.45184 0.68427 0.0
C283 C 0.81989 0.44992 0.61465 0.0
O284 O 0.79701 0.44418 0.62655 0.0
H285 H 0.90019 0.47041 0.67631 0.0
H286 H 0.90085 0.39701 0.63611 0.0
N287 N 0.83997 0.39532 0.65852 0.0
N288 N 0.81341 0.35722 0.65854 0.0
C289 C 0.81465 0.38467 0.65372 0.0
C290 C 0.85507 0.37396 0.66691 0.0
C291 C 0.83887 0.3505 0.66684 0.0
C292 C 0.84075 0.47739 0.68885 0.0
O293 O 0.85292 0.4932 0.67275 0.0
H294 H 0.79741 0.39683 0.6472 0.0
H295 H 0.87618 0.37548 0.67335 0.0
O296 O 0.84331 0.44749 0.62502 0.0
H297 H 0.9529 0.41414 0.64081 0.0
H298 H 0.84507 0.3303 0.67335 0.0
Cu299 Cu 0.6212 0.86833 0.15901 0.0
N300 N 0.62331 0.90689 0.15397 0.0
N301 N 0.61428 0.95248 0.15149 0.0
C302 C 0.6057 0.9276 0.16013 0.0
C303 C 0.63824 0.94705 0.13971 0.0
C304 C 0.64361 0.91913 0.14119 0.0
O305 O 0.5995 0.8591 0.1877 0.0
C306 C 0.58843 0.8613 0.11664 0.0
O307 O 0.57514 0.88336 0.12434 0.0
H308 H 0.58665 0.92441 0.17008 0.0
H309 H 0.66103 0.90833 0.13319 0.0
N310 N 0.65731 0.85489 0.16422 0.0
N311 N 0.69479 0.82731 0.16564 0.0
C312 C 0.66763 0.82941 0.15951 0.0
C313 C 0.67852 0.86923 0.17381 0.0
C314 C 0.7016 0.85239 0.17464 0.0
C315 C 0.57385 0.86424 0.19117 0.0
O316 O 0.55946 0.87632 0.1741 0.0
H317 H 0.65555 0.81286 0.15159 0.0
H318 H 0.67722 0.89047 0.17991 0.0
O319 O 0.60768 0.85099 0.12953 0.0
H320 H 0.65112 0.96216 0.13062 0.0
H321 H 0.72171 0.85804 0.18181 0.0
Cu322 Cu 0.17463 0.59703 0.66731 0.0
N323 N 0.13606 0.59699 0.67156 0.0
N324 N 0.0923 0.58178 0.67483 0.0
C325 C 0.11948 0.57477 0.67454 0.0
C326 C 0.09179 0.60953 0.67191 0.0
C327 C 0.11877 0.61882 0.66984 0.0
O328 O 0.19117 0.57286 0.69129 0.0
C329 C 0.20234 0.57644 0.62401 0.0
O330 O 0.22338 0.56866 0.63741 0.0
H331 H 0.12706 0.55373 0.67531 0.0
H332 H 0.12527 0.63993 0.66655 0.0
N333 N 0.18813 0.63247 0.67375 0.0
N334 N 0.21599 0.66944 0.67575 0.0
C335 C 0.21099 0.64493 0.66479 0.0
C336 C 0.17842 0.6496 0.69088 0.0
C337 C 0.19542 0.67244 0.69208 0.0
C338 C 0.18832 0.54675 0.69307 0.0
O339 O 0.1757 0.53304 0.67587 0.0
H340 H 0.22431 0.63565 0.6513 0.0
H341 H 0.16064 0.64535 0.70222 0.0
O342 O 0.18127 0.58776 0.63377 0.0
H343 H 0.07326 0.6222 0.67094 0.0
H344 H 0.19296 0.68978 0.70424 0.0
Cu345 Cu 0.45752 0.18957 0.16312 0.0
N346 N 0.49375 0.17519 0.16215 0.0
N347 N 0.52602 0.14162 0.16152 0.0
C348 C 0.49867 0.14778 0.16035 0.0
C349 C 0.53885 0.16634 0.16421 0.0
C350 C 0.51889 0.18703 0.1646 0.0
O351 O 0.44397 0.17612 0.19427 0.0
C352 C 0.45411 0.18439 0.1149 0.0
O353 O 0.4774 0.19801 0.11837 0.0
H354 H 0.48223 0.13258 0.15893 0.0
H355 H 0.5225 0.20898 0.16678 0.0
N356 N 0.45424 0.22834 0.16246 0.0
N357 N 0.4306 0.26846 0.16088 0.0
C358 C 0.4305 0.24105 0.15584 0.0
C359 C 0.47032 0.24842 0.17174 0.0
C360 C 0.45586 0.27319 0.17071 0.0
C361 C 0.43369 0.1921 0.21027 0.0
O362 O 0.42307 0.21595 0.20365 0.0
H363 H 0.41262 0.22973 0.14937 0.0
H364 H 0.49035 0.2451 0.18002 0.0
O365 O 0.43987 0.17717 0.13328 0.0
H366 H 0.56106 0.16936 0.16574 0.0
H367 H 0.46308 0.29286 0.17762 0.0
C368 C 0.07533 0.47103 0.14017 0.0
C369 C 0.09665 0.47376 0.1572 0.0
C370 C 0.05159 0.48804 0.14091 0.0
C371 C 0.04892 0.50832 0.15918 0.0
C372 C 0.0701 0.51086 0.1767 0.0
C373 C 0.09368 0.49364 0.17547 0.0
C374 C 0.02963 0.48471 0.12179 0.0
C375 C 0.06803 0.53205 0.19659 0.0
C376 C 1.00254 0.57082 0.14709 0.0
C377 C 0.97801 0.56379 0.15938 0.0
C378 C 0.02568 0.55301 0.14693 0.0
C379 C 0.02446 0.52749 0.15945 0.0
C380 C 0.99982 0.52028 0.17197 0.0
C381 C 0.97691 0.53844 0.17172 0.0
C382 C 0.05141 0.56146 0.13317 0.0
C383 C 0.99768 0.49338 0.18568 0.0
H384 H 0.07751 0.45605 0.1258 0.0
H385 H 0.1098 0.4957 0.18889 0.0
H386 H 1.00908 0.48091 0.13023 0.0
H387 H 0.0279 0.50411 0.1112 0.0
H388 H 0.03431 0.46736 0.10929 0.0
H389 H 0.08574 0.53076 0.20932 0.0
H390 H 0.06751 0.5532 0.18881 0.0
H391 H 0.0484 0.52913 0.20677 0.0
H392 H 1.00353 0.5901 0.1372 0.0
H393 H 0.95822 0.53295 0.1815 0.0
H394 H 0.05613 0.54584 0.11911 0.0
H395 H 0.06953 0.56222 0.14544 0.0
H396 H 0.04911 0.58203 0.12445 0.0
H397 H 1.00091 0.47564 0.17329 0.0
H398 H 0.9772 0.4909 0.19468 0.0
H399 H 1.01424 0.49235 0.19949 0.0
C400 C 0.4923 0.95178 0.6761 0.0
C401 C 0.479 0.94839 0.65387 0.0
C402 C 0.50872 0.97525 0.68082 0.0
C403 C 0.51196 0.99579 0.66286 0.0
C404 C 0.49859 0.99249 0.64041 0.0
C405 C 0.48233 0.96888 0.63621 0.0
C406 C 0.52259 0.97808 0.705 0.0
C407 C 0.50163 1.01383 0.62072 0.0
C408 C 0.53395 0.06919 0.67881 0.0
C409 C 0.56214 0.06909 0.67228 0.0
C410 C 0.51754 0.04528 0.67645 0.0
C411 C 0.52956 0.02066 0.66727 0.0
C412 C 0.55812 0.02026 0.66109 0.0
C413 C 0.57405 0.04445 0.66369 0.0
C414 C 0.4872 0.04651 0.68336 0.0
C415 C 0.57169 0.99447 0.65113 0.0
H416 H 0.48962 0.93622 0.68993 0.0
H417 H 0.47261 0.96626 0.61884 0.0
H418 H 0.54545 0.97949 0.70264 0.0
H419 H 0.5157 0.9975 0.71388 0.0
H420 H 0.51789 0.96036 0.71708 0.0
H421 H 0.48964 1.00832 0.60438 0.0
H422 H 0.49442 0.03435 0.62724 0.0
H423 H 0.52385 1.01604 0.61569 0.0
H424 H 0.52471 0.08799 0.68582 0.0
H425 H 0.5957 0.04424 0.65836 0.0
H426 H 0.48227 0.02989 0.69647 0.0
H427 H 0.47414 0.04289 0.66726 0.0
H428 H 0.48136 0.0668 0.69135 0.0
H429 H 0.56828 0.97674 0.66347 0.0
H430 H 0.5944 0.99714 0.64834 0.0
H431 H 0.56207 0.98899 0.63366 0.0
C432 C 0.0744 0.53769 0.38128 0.0
C433 C 0.07504 0.55748 0.39978 0.0
C434 C 0.05175 0.51944 0.37871 0.0
C435 C 0.02912 0.52096 0.39501 0.0
C436 C 0.02958 0.54095 0.41363 0.0
C437 C 0.05246 0.55885 0.41581 0.0
C438 C 0.05208 0.49845 0.3586 0.0
C439 C 1.00599 0.54325 0.43147 0.0
C440 C 0.95852 0.49029 0.37873 0.0
C441 C 0.95865 0.4652 0.39152 0.0
C442 C 0.98146 0.50839 0.37933 0.0
C443 C 1.0052 0.50131 0.39304 0.0
C444 C 1.00562 0.47588 0.40572 0.0
C445 C 0.98242 0.45821 0.40483 0.0
C446 C 0.98014 0.53528 0.36552 0.0
C447 C 0.03044 0.46753 0.42063 0.0
H448 H 0.0915 0.53659 0.36865 0.0
H449 H 0.05282 0.57363 0.43043 0.0
H450 H 0.05105 0.4772 0.36614 0.0
H451 H 0.03354 0.50123 0.34704 0.0
H452 H 0.07101 0.50014 0.34723 0.0
H453 H 1.00918 0.56032 0.44458 0.0
H454 H 0.98613 0.54689 0.42189 0.0
H455 H 1.00378 0.52352 0.44153 0.0
H456 H 0.94052 0.49577 0.36811 0.0
H457 H 0.98272 0.43915 0.41506 0.0
H458 H 0.99801 0.53674 0.35295 0.0
H459 H 0.98169 0.55302 0.37814 0.0
H460 H 0.96059 0.53735 0.3551 0.0
H461 H 0.04954 0.46774 0.40943 0.0
H462 H 0.02801 0.44658 0.42863 0.0
H463 H 0.03353 0.48269 0.43538 0.0
C464 C 0.52045 0.94882 0.88996 0.0
C465 C 0.54654 0.95284 0.87924 0.0
C466 C 0.50003 0.96948 0.88916 0.0
C467 C 0.50578 0.99468 0.87717 0.0
C468 C 0.53186 0.99865 0.86585 0.0
C469 C 0.55204 0.97771 0.86717 0.0
C470 C 0.4726 0.96465 0.90175 0.0
C471 C 0.53858 0.02515 0.85265 0.0
C472 C 0.44466 0.04061 0.86058 0.0
C473 C 0.4456 0.06054 0.87887 0.0
C474 C 0.46431 0.01912 0.85962 0.0
C475 C 0.48501 0.01741 0.8776 0.0
C476 C 0.48574 0.03726 0.8963 0.0
C477 C 0.46611 0.05868 0.89661 0.0
C478 C 0.46312 0.99847 0.83926 0.0
C479 C 0.50721 0.03586 0.91603 0.0
H480 H 0.51628 0.92978 0.89961 0.0
H481 H 0.57209 0.98068 0.85867 0.0
H482 H 0.46996 0.97997 0.91645 0.0
H483 H 0.45516 0.96769 0.88903 0.0
H484 H 0.47105 0.9435 0.9095 0.0
H485 H 0.5592 0.02433 0.84365 0.0
H486 H 0.52246 0.02943 0.83892 0.0
H487 H 0.53849 0.0428 0.86543 0.0
H488 H 0.42898 0.04226 0.84672 0.0
H489 H 0.46659 0.0739 0.91092 0.0
H490 H 0.46042 0.97723 0.84651 0.0
H491 H 0.483 0.99873 0.82913 0.0
H492 H 0.44585 1.00286 0.8266 0.0
H493 H 0.50571 1.01568 0.9255 0.0
H494 H 0.5047 0.05276 0.92941 0.0
H495 H 0.52839 0.03721 0.9082 0.0
C496 C 0.95137 0.54157 0.87628 0.0
C497 C 0.94938 0.56367 0.89258 0.0
C498 C 0.97477 0.52423 0.87592 0.0
C499 C 0.99674 0.52917 0.89223 0.0
C500 C 0.99525 0.5519 0.90825 0.0
C501 C 0.97158 0.56886 0.90824 0.0
C502 C 0.97567 0.50024 0.85851 0.0
C503 C 0.01828 0.55782 0.92591 0.0
C504 C 0.0425 0.46889 0.9107 0.0
C505 C 0.06651 0.47346 0.89692 0.0
C506 C 0.01956 0.4867 0.90912 0.0
C507 C 0.02066 0.50974 0.89344 0.0
C508 C 0.04471 0.51443 0.87934 0.0
C509 C 0.06734 0.49621 0.88123 0.0
C510 C 0.99425 0.48101 0.92446 0.0
C511 C 0.04659 0.53878 0.86238 0.0
H512 H 0.93452 0.53772 0.86385 0.0
H513 H 0.97011 0.58567 0.92107 0.0
H514 H 0.99497 0.50112 0.84758 0.0
H515 H 0.97602 0.48042 0.86859 0.0
H516 H 0.95752 0.50007 0.84621 0.0
H517 H 1.01464 0.57721 0.93621 0.0
H518 H 0.02011 0.54039 0.93881 0.0
H519 H 0.03847 0.55956 0.91635 0.0
H520 H 0.04178 0.45164 0.92311 0.0
H521 H 0.08562 0.49967 0.87025 0.0
H522 H 0.97558 0.47896 0.91294 0.0
H523 H 0.99053 0.49867 0.93683 0.0
H524 H 0.99646 0.46183 0.93532 0.0
H525 H 0.02934 0.53799 0.84921 0.0
H526 H 0.06662 0.53929 0.85241 0.0
H527 H 0.04436 0.55842 0.87258 0.0
C528 C 0.53502 0.07696 0.37737 0.0
C529 C 0.55235 0.07996 0.39747 0.0
C530 C 0.51853 0.0532 0.37429 0.0
C531 C 0.51937 0.03185 0.39173 0.0
C532 C 0.53714 0.03452 0.41184 0.0
C533 C 0.55338 0.0585 0.41446 0.0
C534 C 0.49996 0.05108 0.35253 0.0
C535 C 0.5386 1.01226 0.43087 0.0
C536 C 0.45777 0.98298 0.398 0.0
C537 C 0.46755 0.95902 0.38645 0.0
C538 C 0.47427 1.00692 0.39956 0.0
C539 C 0.50122 1.00698 0.38928 0.0
C540 C 0.51106 0.98305 0.37725 0.0
C541 C 0.49413 0.95938 0.376 0.0
C542 C 0.46304 0.032 0.4126 0.0
C543 C 0.53961 0.98233 0.36593 0.0
H544 H 0.53436 0.0932 0.36397 0.0
H545 H 0.56636 0.06072 0.43021 0.0
H546 H 0.50488 0.03197 0.34228 0.0
H547 H 0.47793 0.04956 0.35831 0.0
H548 H 0.50217 0.06919 0.34036 0.0
H549 H 0.55405 0.01712 0.44506 0.0
H550 H 0.51793 1.00968 0.43945 0.0
H551 H 0.54419 0.99211 0.42256 0.0
H552 H 0.43744 0.98282 0.40636 0.0
H553 H 0.50169 0.94115 0.36671 0.0
H554 H 0.46356 0.05035 0.40061 0.0
H555 H 0.47634 0.03676 0.42833 0.0
H556 H 0.44137 0.0289 0.41898 0.0
H557 H 0.5418 0.99947 0.35279 0.0
H558 H 0.54384 0.96241 0.3566 0.0
H559 H 0.55567 0.98546 0.37994 0.0
C560 C 0.9801 0.46676 0.64942 0.0
C561 C 0.95775 0.46596 0.66566 0.0
C562 C 1.00204 0.48556 0.6524 0.0
C563 C 1.00174 0.50407 0.67214 0.0
C564 C 0.97955 0.50307 0.68887 0.0
C565 C 0.95779 0.48406 0.68541 0.0
C566 C 0.02525 0.48606 0.63407 0.0
C567 C 0.97859 0.52235 0.71023 0.0
C568 C 0.07102 0.53749 0.68744 0.0
C569 C 0.06887 0.56312 0.67569 0.0
C570 C 0.049 0.51839 0.68711 0.0
C571 C 0.02426 0.52503 0.67465 0.0
C572 C 0.02167 0.55116 0.66332 0.0
C573 C 0.04397 0.56989 0.66401 0.0
C574 C 0.05248 0.49082 0.69957 0.0
C575 C 0.99569 0.55899 0.64974 0.0
H576 H 0.98009 0.45323 0.63391 0.0
H577 H 0.94078 0.48335 0.69817 0.0
H578 H 0.02581 0.50653 0.62501 0.0
H579 H 0.04558 0.48314 0.64308 0.0
H580 H 0.02283 0.46972 0.62016 0.0
H581 H 0.96041 0.51828 0.72205 0.0
H582 H 0.99785 0.5202 0.72099 0.0
H583 H 0.97757 0.54415 0.70397 0.0
H584 H 0.09001 0.5323 0.69682 0.0
H585 H 0.04222 0.58947 0.65466 0.0
H586 H 0.05215 0.47389 0.68608 0.0
H587 H 0.03493 0.48716 0.71214 0.0
H588 H 0.07227 0.48955 0.70976 0.0
H589 H 0.99301 0.54493 0.63414 0.0
H590 H 0.99634 0.58068 0.64308 0.0
H591 H 0.97714 0.5565 0.66142 0.0
C592 C 0.56405 0.10892 0.17179 0.0
C593 C 0.53843 0.11425 0.16067 0.0
C594 C 0.57609 0.0823 0.17125 0.0
C595 C 0.56228 0.06037 0.15924 0.0
C596 C 0.53638 0.06559 0.14807 0.0
C597 C 0.52484 0.09235 0.1489 0.0
C598 C 0.60371 0.07769 0.1834 0.0
C599 C 0.52101 0.04294 0.13491 0.0
C600 C 0.60552 0.99982 0.13603 0.0
C601 C 0.60067 0.97922 0.1534 0.0
C602 C 0.59327 0.02617 0.13779 0.0
C603 C 0.57548 0.03233 0.15737 0.0
C604 C 0.57019 1.01162 0.17487 0.0
C605 C 0.5828 0.98534 0.17268 0.0
C606 C 0.59939 0.04748 0.11861 0.0
C607 C 0.55131 0.01728 0.196 0.0
H608 H 0.57459 0.12549 0.18119 0.0
H609 H 0.50528 0.09622 0.13993 0.0
H610 H 0.60189 0.06079 0.19683 0.0
H611 H 0.61941 0.07108 0.16994 0.0
H612 H 0.61142 0.09662 0.19259 0.0
H613 H 0.50061 0.05006 0.12792 0.0
H614 H 0.53373 0.03543 0.11958 0.0
H615 H 0.51748 0.02504 0.14703 0.0
H616 H 0.61876 0.99529 0.12078 0.0
H617 H 0.57904 0.96976 0.18629 0.0
H618 H 0.60872 0.06622 0.12685 0.0
H619 H 0.57979 0.05399 0.10979 0.0
H620 H 0.61383 0.03952 0.10461 0.0
H621 H 0.55953 0.0349 0.20664 0.0
H622 H 0.54916 0.99901 0.208 0.0
H623 H 0.53037 0.02334 0.18955 0.0
C624 C 0.19419 0.51101 0.33769 0.0
C625 C 0.20108 0.53826 0.34414 0.0
C626 C 0.19983 0.50083 0.3145 0.0
C627 C 0.21294 0.51819 0.29735 0.0
C628 C 0.22052 0.5455 0.30391 0.0
C629 C 0.2144 0.55524 0.32715 0.0
C630 C 0.19125 0.47163 0.3082 0.0
C631 C 0.23478 0.56458 0.28627 0.0
C632 C 0.24676 0.48229 0.24375 0.0
C633 C 0.2263 0.48514 0.22598 0.0
C634 C 0.24304 0.49359 0.26683 0.0
C635 C 0.21815 0.5079 0.27241 0.0
C636 C 0.19776 0.51154 0.25435 0.0
C637 C 0.20214 0.50026 0.23135 0.0
C638 C 0.26545 0.48957 0.28546 0.0
C639 C 0.17088 0.52656 0.25955 0.0
H640 H 0.1838 0.49776 0.35062 0.0
H641 H 0.21991 0.5763 0.33194 0.0
H642 H 0.17612 0.47204 0.29319 0.0
H643 H 0.20956 0.45961 0.30199 0.0
H644 H 0.18165 0.46062 0.32366 0.0
H645 H 0.24034 0.58483 0.29445 0.0
H646 H 0.25398 0.55471 0.27926 0.0
H647 H 0.22099 0.56843 0.27067 0.0
H648 H 0.26553 0.47072 0.23979 0.0
H649 H 0.18613 0.50251 0.21781 0.0
H650 H 0.25742 0.4765 0.30033 0.0
H651 H 0.27147 0.50981 0.29333 0.0
H652 H 0.2843 0.47951 0.27787 0.0
H653 H 0.15906 0.51527 0.27361 0.0
H654 H 0.15757 0.5285 0.24334 0.0
H655 H 0.17523 0.54761 0.26661 0.0
C656 C 0.53578 0.20675 0.73733 0.0
C657 C 0.52205 0.19221 0.71897 0.0
C658 C 0.52357 0.21023 0.76013 0.0
C659 C 0.49698 0.19884 0.76481 0.0
C660 C 0.48266 0.1849 0.74615 0.0
C661 C 0.49531 0.1818 0.72348 0.0
C662 C 0.53948 0.2254 0.77944 0.0
C663 C 0.45425 0.17249 0.75033 0.0
C664 C 0.47533 0.17955 0.82856 0.0
C665 C 0.45654 0.20081 0.83434 0.0
C666 C 0.48927 0.17913 0.80631 0.0
C667 C 0.48448 0.20055 0.7894 0.0
C668 C 0.46662 0.22277 0.7956 0.0
C669 C 0.45286 0.22262 0.81794 0.0
C670 C 0.50822 0.15509 0.8005 0.0
C671 C 0.46114 0.24616 0.77823 0.0
H672 H 0.55642 0.21493 0.73409 0.0
H673 H 0.48451 0.17051 0.7095 0.0
H674 H 0.52653 0.24221 0.78718 0.0
H675 H 0.54456 0.21091 0.79427 0.0
H676 H 0.55913 0.23452 0.77254 0.0
H677 H 0.4454 0.16324 0.73374 0.0
H678 H 0.45557 0.15614 0.76429 0.0
H679 H 0.43972 0.18857 0.75708 0.0
H680 H 0.47835 0.16257 0.84102 0.0
H681 H 0.43847 0.2392 0.82219 0.0
H682 H 0.52888 0.16277 0.79466 0.0
H683 H 0.49941 0.14298 0.78536 0.0
H684 H 0.51108 0.14099 0.81607 0.0
H685 H 0.48102 0.25501 0.77165 0.0
H686 H 0.44861 0.26301 0.78648 0.0
H687 H 0.4498 0.23811 0.76235 0.0
C688 C 0.81306 0.55928 0.23335 0.0
C689 C 0.83634 0.55646 0.21828 0.0
C690 C 0.81196 0.54618 0.25592 0.0
C691 C 0.83478 0.53002 0.26376 0.0
C692 C 0.85793 0.52634 0.2483 0.0
C693 C 0.85838 0.53947 0.22574 0.0
C694 C 0.78673 0.55035 0.27169 0.0
C695 C 0.88274 0.50935 0.25595 0.0
C696 C 0.84755 0.5214 0.33093 0.0
C697 C 0.83855 0.49414 0.33499 0.0
C698 C 0.84605 0.53343 0.30794 0.0
C699 C 0.83505 0.51796 0.28851 0.0
C700 C 0.82515 0.49074 0.29264 0.0
C701 C 0.82713 0.47913 0.31576 0.0
C702 C 0.85695 0.56247 0.30432 0.0
C703 C 0.81299 0.47365 0.27252 0.0
H704 H 0.79588 0.57227 0.22777 0.0
H705 H 0.87651 0.53718 0.21432 0.0
H706 H 0.77848 0.53005 0.27775 0.0
H707 H 0.79265 0.56215 0.28801 0.0
H708 H 0.76992 0.5618 0.26232 0.0
H709 H 0.89856 0.50749 0.24147 0.0
H710 H 0.89262 0.51905 0.27187 0.0
H711 H 0.87604 0.48824 0.26133 0.0
H712 H 0.85649 0.53316 0.34559 0.0
H713 H 0.82003 0.45808 0.31869 0.0
H714 H 0.84054 0.5758 0.29647 0.0
H715 H 0.87457 0.56212 0.29141 0.0
H716 H 0.86417 0.57202 0.32136 0.0
H717 H 0.7959 0.48518 0.26367 0.0
H718 H 0.80481 0.45343 0.27892 0.0
H719 H 0.82912 0.46968 0.25866 0.0
C720 C 0.55758 0.79523 0.81435 0.0
C721 C 0.55206 0.81639 0.83102 0.0
C722 C 0.54584 0.79564 0.79122 0.0
C723 C 0.52841 0.81794 0.78441 0.0
C724 C 0.52174 0.83869 0.8015 0.0
C725 C 0.53347 0.83757 0.82462 0.0
C726 C 0.55309 0.77283 0.77373 0.0
C727 C 0.50339 0.86292 0.79499 0.0
C728 C 0.52584 0.83812 0.71823 0.0
C729 C 0.49984 0.82785 0.71113 0.0
C730 C 0.53539 0.83485 0.74192 0.0
C731 C 0.51875 0.82064 0.75898 0.0
C732 C 0.4928 0.8096 0.75179 0.0
C733 C 0.48358 0.81349 0.72803 0.0
C734 C 0.5631 0.84716 0.74885 0.0
C735 C 0.4746 0.79399 0.76928 0.0
H736 H 0.57181 0.77872 0.81913 0.0
H737 H 0.52915 0.85412 0.83727 0.0
H738 H 0.53399 0.76441 0.76533 0.0
H739 H 0.56626 0.78131 0.75909 0.0
H740 H 0.56452 0.75558 0.78249 0.0
H741 H 0.49868 0.8763 0.81073 0.0
H742 H 0.51384 0.87572 0.78108 0.0
H743 H 0.48354 0.85549 0.78722 0.0
H744 H 0.53851 0.84938 0.7054 0.0
H745 H 0.4635 0.80539 0.72274 0.0
H746 H 0.57697 0.83077 0.75598 0.0
H747 H 0.56012 0.86267 0.76335 0.0
H748 H 0.57365 0.8574 0.73345 0.0
H749 H 0.48639 0.77659 0.77737 0.0
H750 H 0.45561 0.78556 0.76061 0.0
H751 H 0.4682 0.8079 0.78417 0.0
C752 C 0.84863 0.50715 0.82899 0.0
C753 C 0.83161 0.52887 0.83704 0.0
C754 C 0.84817 0.49852 0.80484 0.0
C755 C 0.82982 0.5115 0.78843 0.0
C756 C 0.81164 0.53252 0.79675 0.0
C757 C 0.81298 0.54116 0.82086 0.0
C758 C 0.8682 0.47633 0.79667 0.0
C759 C 0.79133 0.54646 0.78002 0.0
C760 C 0.85049 0.51072 0.72229 0.0
C761 C 0.83559 0.48786 0.71357 0.0
C762 C 0.84853 0.51881 0.74652 0.0
C763 C 0.83077 0.50407 0.76235 0.0
C764 C 0.81478 0.48171 0.7534 0.0
C765 C 0.81763 0.47367 0.72921 0.0
C766 C 0.86628 0.54249 0.75536 0.0
C767 C 0.79513 0.46587 0.76951 0.0
H768 H 0.86327 0.49772 0.84129 0.0
H769 H 0.79968 0.55789 0.82697 0.0
H770 H 0.85679 0.45921 0.7878 0.0
H771 H 0.88282 0.48509 0.78322 0.0
H772 H 0.88046 0.46763 0.81179 0.0
H773 H 0.77691 0.56057 0.78971 0.0
H774 H 0.80284 0.55866 0.76635 0.0
H775 H 0.77892 0.53069 0.77027 0.0
H776 H 0.86463 0.52163 0.71042 0.0
H777 H 0.80598 0.45603 0.72258 0.0
H778 H 0.88076 0.53494 0.7694 0.0
H779 H 0.85304 0.55867 0.76372 0.0
H780 H 0.87865 0.55213 0.7407 0.0
H781 H 0.80708 0.45482 0.78358 0.0
H782 H 0.78261 0.45045 0.7594 0.0
H783 H 0.78081 0.48038 0.77881 0.0
C784 C 0.50884 0.85219 0.32384 0.0
C785 C 0.49153 0.8289 0.32615 0.0
C786 C 0.52381 0.85722 0.30252 0.0
C787 C 0.52168 0.83841 0.28305 0.0
C788 C 0.5053 0.81421 0.28569 0.0
C789 C 0.49038 0.8098 0.30713 0.0
C790 C 0.54096 0.88331 0.30049 0.0
C791 C 0.50267 0.79346 0.26552 0.0
C792 C 0.5332 0.86589 0.21956 0.0
C793 C 0.56048 0.85729 0.21459 0.0
C794 C 0.52044 0.85996 0.24174 0.0
C795 C 0.53519 0.84487 0.25945 0.0
C796 C 0.56268 0.83598 0.25452 0.0
C797 C 0.57501 0.84236 0.23223 0.0
C798 C 0.49116 0.86998 0.24626 0.0
C799 C 0.57906 0.81969 0.27281 0.0
H800 H 0.50985 0.86715 0.33834 0.0
H801 H 0.47717 0.7917 0.30871 0.0
H802 H 0.56245 0.87823 0.2947 0.0
H803 H 0.5319 0.89705 0.28657 0.0
H804 H 0.54192 0.89491 0.31771 0.0
H805 H 0.49097 0.77466 0.27105 0.0
H806 H 0.49175 0.80314 0.25012 0.0
H807 H 0.52355 0.78708 0.25907 0.0
H808 H 0.52178 0.87751 0.20615 0.0
H809 H 0.59608 0.83556 0.22861 0.0
H810 H 0.4907 0.8836 0.26233 0.0
H811 H 0.47735 0.85209 0.25004 0.0
H812 H 0.48259 0.88165 0.23075 0.0
H813 H 0.58125 0.83193 0.28958 0.0
H814 H 0.60012 0.8141 0.26618 0.0
H815 H 0.56778 0.80039 0.27752 0.0
C816 C 0.22612 0.46939 0.81764 0.0
C817 C 0.20456 0.47484 0.83403 0.0
C818 C 0.22615 0.48116 0.79452 0.0
C819 C 0.204 0.49868 0.78751 0.0
C820 C 0.18264 0.50496 0.80422 0.0
C821 C 0.18323 0.49307 0.82727 0.0
C822 C 0.24948 0.47421 0.77735 0.0
C823 C 0.15863 0.52353 0.79749 0.0
C824 C 0.21021 0.54732 0.73393 0.0
C825 C 0.19535 0.53295 0.71616 0.0
C826 C 0.21403 0.53602 0.75697 0.0
C827 C 0.20255 0.50978 0.76249 0.0
C828 C 0.18842 0.49471 0.74438 0.0
C829 C 0.1851 0.50641 0.72142 0.0
C830 C 0.22951 0.55262 0.77564 0.0
C831 C 0.17583 0.46668 0.74954 0.0
H832 H 0.24273 0.45539 0.82266 0.0
H833 H 0.16643 0.49739 0.83972 0.0
H834 H 0.24117 0.46232 0.76189 0.0
H835 H 0.25883 0.49347 0.77006 0.0
H836 H 0.26608 0.46176 0.78604 0.0
H837 H 0.14417 0.52711 0.81277 0.0
H838 H 0.16647 0.54386 0.79111 0.0
H839 H 0.14679 0.51409 0.78248 0.0
H840 H 0.21833 0.56778 0.73004 0.0
H841 H 0.17352 0.49517 0.70788 0.0
H842 H 0.24611 0.53984 0.7839 0.0
H843 H 0.21504 0.55879 0.79024 0.0
H844 H 0.23906 0.57164 0.76798 0.0
H845 H 0.19177 0.45252 0.75702 0.0
H846 H 0.16678 0.457 0.73322 0.0
H847 H 0.15919 0.46883 0.76326 0.0
C848 C 0.51785 0.20357 0.33057 0.0
C849 C 0.50705 0.19061 0.35114 0.0
C850 C 0.50371 0.20259 0.30848 0.0
C851 C 0.47815 0.18811 0.30676 0.0
C852 C 0.46695 0.17527 0.32751 0.0
C853 C 0.48144 0.17676 0.34943 0.0
C854 C 0.51632 0.2168 0.28688 0.0
C855 C 0.43988 0.15952 0.32646 0.0
C856 C 0.43309 0.20781 0.25324 0.0
C857 C 0.44076 0.18781 0.23609 0.0
C858 C 0.44419 0.20749 0.2766 0.0
C859 C 0.46332 0.18654 0.28317 0.0
C860 C 0.46977 0.16527 0.26648 0.0
C861 C 0.45847 0.16617 0.24316 0.0
C862 C 0.43664 0.23052 0.29378 0.0
C863 C 0.4898 0.14235 0.27281 0.0
H864 H 0.5376 0.21431 0.33163 0.0
H865 H 0.47295 0.16648 0.36513 0.0
H866 H 0.52055 0.20136 0.27256 0.0
H867 H 0.50147 0.23214 0.27946 0.0
H868 H 0.53604 0.22762 0.29127 0.0
H869 H 0.43364 0.15115 0.34427 0.0
H870 H 0.42306 0.17318 0.31976 0.0
H871 H 0.44179 0.14202 0.31362 0.0
H872 H 0.41938 0.2246 0.2481 0.0
H873 H 0.46459 0.1506 0.23014 0.0
H874 H 0.45513 0.24373 0.29701 0.0
H875 H 0.43013 0.22189 0.31138 0.0
H876 H 0.41963 0.24381 0.28676 0.0
H877 H 0.511 0.15105 0.27486 0.0
H878 H 0.49047 0.1259 0.25884 0.0
H879 H 0.48397 0.1328 0.29024 0.0
C880 C 0.22338 0.4897 0.97134 0.0
C881 C 0.20581 0.46886 0.96248 0.0
C882 C 0.22708 0.49348 0.99625 0.0
C883 C 0.21256 0.47628 1.01266 0.0
C884 C 0.19515 0.45497 1.00377 0.0
C885 C 0.19216 0.45142 0.97889 0.0
C886 C 0.24616 0.51612 1.00501 0.0
C887 C 0.17905 0.43631 1.02058 0.0
C888 C 0.23171 0.46681 0.07846 0.0
C889 C 0.21138 0.48298 0.08997 0.0
C890 C 0.2335 0.46573 0.05323 0.0
C891 C 0.21438 0.48101 0.03915 0.0
C892 C 0.1949 0.49859 0.05067 0.0
C893 C 0.19372 0.49945 0.07589 0.0
C894 C 0.25484 0.44703 0.04168 0.0
C895 C 0.17407 0.51517 0.03639 0.0
H896 H 0.23412 0.5032 0.95883 0.0
H897 H 0.17848 0.43529 0.97231 0.0
H898 H 0.23396 0.53196 1.01491 0.0
H899 H 0.26162 0.50751 1.01774 0.0
H900 H 0.25739 0.52646 0.99003 0.0
H901 H 0.16679 0.42041 1.01081 0.0
H902 H 0.19346 0.42562 0.03304 0.0
H903 H 0.1646 0.44889 0.03169 0.0
H904 H 0.24558 0.45413 0.08913 0.0
H905 H 0.178 0.51211 0.08453 0.0
H906 H 0.26577 0.45801 0.02691 0.0
H907 H 0.2443 0.42879 0.03371 0.0
H908 H 0.27048 0.43954 0.05482 0.0
H909 H 0.18466 0.52709 1.02201 0.0
H910 H 0.16212 0.52981 0.04785 0.0
H911 H 0.15921 0.50087 0.02754 0.0
C912 C 0.53234 0.18878 0.48684 0.0
C913 C 0.55283 0.19959 0.47149 0.0
C914 C 0.53375 0.19253 0.51186 0.0
C915 C 0.55641 0.20718 0.52194 0.0
C916 C 0.57654 0.21919 0.50648 0.0
C917 C 0.57443 0.2154 0.48144 0.0
C918 C 0.51162 0.17968 0.52758 0.0
C919 C 0.60112 0.2348 0.51644 0.0
C920 C 0.55223 0.22872 0.58801 0.0
C921 C 0.56621 0.2068 0.59937 0.0
C922 C 0.54903 0.22932 0.56283 0.0
C923 C 0.5603 0.20765 0.54862 0.0
C924 C 0.57474 0.18571 0.55999 0.0
C925 C 0.57738 0.18549 0.58513 0.0
C926 C 0.53327 0.25293 0.55145 0.0
C927 C 0.58729 0.16228 0.54559 0.0
H928 H 0.51547 0.1767 0.47934 0.0
H929 H 0.59042 0.22376 0.46977 0.0
H930 H 0.52075 0.16243 0.53812 0.0
H931 H 0.50352 0.19514 0.54059 0.0
H932 H 0.49396 0.17142 0.51694 0.0
H933 H 0.61349 0.24506 0.5021 0.0
H934 H 0.59412 0.25075 0.52948 0.0
H935 H 0.61486 0.22024 0.52627 0.0
H936 H 0.54351 0.24528 0.59881 0.0
H937 H 0.58839 0.16853 0.59362 0.0
H938 H 0.51477 0.24479 0.54191 0.0
H939 H 0.5465 0.26343 0.53788 0.0
H940 H 0.5263 0.2685 0.56488 0.0
H941 H 0.5707 0.15097 0.53587 0.0
H942 H 0.59872 0.14729 0.55705 0.0
H943 H 0.60184 0.17064 0.5319 0.0
C944 C 0.81378 0.56026 0.08165 0.0
C945 C 0.83587 0.57571 0.09124 0.0
C946 C 0.81076 0.55688 0.05663 0.0
C947 C 0.83023 0.56929 0.0408 0.0
C948 C 0.85231 0.58521 0.05039 0.0
C949 C 0.85486 0.58818 0.07539 0.0
C950 C 0.78698 0.53973 0.04713 0.0
C951 C 0.87352 0.59888 0.03422 0.0
C952 C 0.84482 0.54183 0.97795 0.0
C953 C 0.83187 0.56177 0.96342 0.0
C954 C 0.8432 0.54319 1.00315 0.0
C955 C 0.82834 0.5651 1.01422 0.0
C956 C 0.81396 0.58445 0.99966 0.0
C957 C 0.81585 0.58253 0.97446 0.0
C958 C 0.85867 0.52199 1.01792 0.0
C959 C 0.79783 0.60809 1.01069 0.0
H960 H 0.79897 0.55056 0.0937 0.0
H961 H 0.87195 0.60026 0.0825 0.0
H962 H 0.77454 0.55206 0.03422 0.0
H963 H 0.79521 0.52152 0.03723 0.0
H964 H 0.77304 0.53227 0.0617 0.0
H965 H 0.88899 0.6112 0.04446 0.0
H966 H 0.88475 0.58289 1.02365 0.0
H967 H 0.86297 0.61277 1.02123 0.0
H968 H 0.8571 0.52559 0.96966 0.0
H969 H 0.80572 0.59804 0.96345 0.0
H970 H 0.84491 0.51325 0.03202 0.0
H971 H 0.87639 0.53211 0.02715 0.0
H972 H 0.86687 0.50473 1.00675 0.0
H973 H 0.78369 0.60035 1.02495 0.0
H974 H 0.78538 0.61953 0.99714 0.0
H975 H 0.81247 0.62284 1.01926 0.0
C976 C 0.49702 0.83884 0.56904 0.0
C977 C 0.47703 0.82631 0.58389 0.0
C978 C 0.49655 0.83526 0.54397 0.0
C979 C 0.47556 0.81873 0.53338 0.0
C980 C 0.45632 0.80469 0.54837 0.0
C981 C 0.45728 0.80863 0.57342 0.0
C982 C 0.51757 0.8505 0.52873 0.0
C983 C 0.43369 0.78677 0.53786 0.0
C984 C 0.45266 0.83989 0.47064 0.0
C985 C 0.46648 0.82061 0.45595 0.0
C986 C 0.45519 0.83918 0.49576 0.0
C987 C 0.47197 0.81865 0.50669 0.0
C988 C 0.48571 0.79885 0.49206 0.0
C989 C 0.48282 0.80006 0.46687 0.0
C990 C 0.44015 0.86072 0.5106 0.0
C991 C 0.50371 0.77661 0.50302 0.0
H992 H 0.51249 0.8524 0.57689 0.0
H993 H 0.44176 0.79878 0.58469 0.0
H994 H 0.52725 0.83624 0.51551 0.0
H995 H 0.50696 0.8671 0.51844 0.0
H996 H 0.53424 0.8601 0.53971 0.0
H997 H 0.42253 0.7747 0.55188 0.0
H998 H 0.4184 0.80004 0.52838 0.0
H999 H 0.44248 0.77218 0.52444 0.0
H1000 H 0.43992 0.85584 0.4625 0.0
H1001 H 0.49356 0.78504 0.45574 0.0
H1002 H 0.45541 0.87326 0.52084 0.0
H1003 H 0.42633 0.85047 0.52387 0.0
H1004 H 0.42744 0.87492 0.4994 0.0
H1005 H 0.52135 0.78627 0.51271 0.0
H1006 H 0.51215 0.76212 0.4893 0.0
H1007 H 0.4916 0.76456 0.5164 0.0
C1008 C 0.18446 0.54188 0.48408 0.0
C1009 C 0.1953 0.56308 0.46956 0.0
C1010 C 0.1884 0.54195 0.50911 0.0
C1011 C 0.20337 0.56387 0.51999 0.0
C1012 C 0.21564 0.58452 0.50531 0.0
C1013 C 0.21156 0.58382 0.48029 0.0
C1014 C 0.17524 0.51934 0.52403 0.0
C1015 C 0.23168 0.60831 0.51613 0.0
C1016 C 0.18169 0.58427 0.58332 0.0
C1017 C 0.20298 0.57287 0.59743 0.0
C1018 C 0.18174 0.58154 0.55821 0.0
C1019 C 0.20353 0.56687 0.54673 0.0
C1020 C 0.22507 0.55519 0.5608 0.0
C1021 C 0.22461 0.55842 0.58598 0.0
C1022 C 0.15842 0.59447 0.54395 0.0
C1023 C 0.24854 0.53924 0.54925 0.0
H1024 H 0.17205 0.52564 0.47598 0.0
H1025 H 0.22008 0.6003 0.46928 0.0
H1026 H 0.19046 0.51081 0.537 0.0
H1027 H 0.15771 0.52808 0.53458 0.0
H1028 H 0.16717 0.50213 0.51277 0.0
H1029 H 0.24237 0.62098 0.50225 0.0
H1030 H 0.21724 0.62191 0.52629 0.0
H1031 H 0.24739 0.60052 0.52903 0.0
H1032 H 0.1649 0.59556 0.59188 0.0
H1033 H 0.24113 0.5495 0.59669 0.0
H1034 H 0.14724 0.57825 0.53367 0.0
H1035 H 0.167 0.60943 0.53074 0.0
H1036 H 0.1432 0.60549 0.55557 0.0
H1037 H 0.24011 0.52142 0.53899 0.0
H1038 H 0.26367 0.53135 0.56266 0.0
H1039 H 0.25973 0.55267 0.53626 0.0
C1040 C 0.42117 0.21033 0.97811 0.0
C1041 C 0.41838 0.18661 0.96372 0.0
C1042 C 0.42391 0.20824 1.00323 0.0
C1043 C 0.42385 0.1818 1.01434 0.0
C1044 C 0.42014 0.15785 1.0 0.0
C1045 C 0.41749 0.16053 0.97494 0.0
C1046 C 0.42786 0.23432 1.0178 0.0
C1047 C 0.41997 0.12927 1.01104 0.0
C1048 C 0.46578 0.17743 0.07189 0.0
C1049 C 0.44525 0.17933 0.08976 0.0
C1050 C 0.45894 0.17719 0.04742 0.0
C1051 C 0.43075 0.17913 0.04044 0.0
C1052 C 0.40973 0.17981 0.0584 0.0
C1053 C 0.41723 0.17978 0.08293 0.0
C1054 C 0.48207 0.17602 0.02903 0.0
C1055 C 0.37945 0.18183 0.05169 0.0
H1056 H 0.42169 0.23058 0.96972 0.0
H1057 H 0.41513 0.14203 0.96408 0.0
H1058 H 0.41287 0.23487 0.03298 0.0
H1059 H 0.44905 0.23454 1.02561 0.0
H1060 H 0.42512 0.25335 1.00683 0.0
H1061 H 0.41417 0.113 0.99785 0.0
H1062 H 0.44091 0.12441 1.01819 0.0
H1063 H 0.40521 0.12847 0.02637 0.0
H1064 H 0.48749 0.17686 0.07706 0.0
H1065 H 0.4013 0.18151 0.09666 0.0
H1066 H 0.48255 0.19561 1.01861 0.0
H1067 H 0.47835 0.15892 1.01612 0.0
H1068 H 0.50277 0.17293 0.03742 0.0
H1069 H 0.37538 0.20228 0.04329 0.0
H1070 H 0.36556 0.17951 0.06754 0.0
H1071 H 0.37407 0.16573 0.03826 0.0
C1072 C 0.82568 0.46189 0.46903 0.0
C1073 C 0.83446 0.43527 0.46222 0.0
C1074 C 0.8204 0.46832 0.49336 0.0
C1075 C 0.82393 0.44765 0.5112 0.0
C1076 C 0.83188 0.42057 0.50424 0.0
C1077 C 0.83703 0.41476 0.47996 0.0
C1078 C 0.81184 0.4974 0.50005 0.0
C1079 C 0.83581 0.39779 0.52256 0.0
C1080 C 0.84378 0.46173 0.57594 0.0
C1081 C 0.81925 0.45473 0.58824 0.0
C1082 C 0.84499 0.46157 0.55073 0.0
C1083 C 0.8211 0.45419 0.53735 0.0
C1084 C 0.79574 0.44913 0.54958 0.0
C1085 C 0.79509 0.44949 0.57488 0.0
C1086 C 0.87244 0.4673 0.5385 0.0
C1087 C 0.76974 0.44139 0.53604 0.0
H1088 H 0.82361 0.47786 0.45546 0.0
H1089 H 0.84352 0.39405 0.47494 0.0
H1090 H 0.79312 0.49697 0.51172 0.0
H1091 H 0.82871 0.50741 0.51047 0.0
H1092 H 0.80739 0.51032 0.484 0.0
H1093 H 0.84084 0.37754 0.5141 0.0
H1094 H 0.85292 0.40337 0.53499 0.0
H1095 H 0.81669 0.3953 0.53353 0.0
H1096 H 0.8625 0.46615 0.58604 0.0
H1097 H 0.77599 0.44419 0.58416 0.0
H1098 H 0.86961 0.48183 0.52325 0.0
H1099 H 0.88093 0.4477 0.53107 0.0
H1100 H 0.88798 0.4762 0.55106 0.0
H1101 H 0.76681 0.45513 0.52027 0.0
H1102 H 0.75092 0.44255 0.5476 0.0
H1103 H 0.77174 0.41988 0.52921 0.0
C1104 C 0.56005 0.85955 0.07892 0.0
C1105 C 0.58355 0.85096 0.09181 0.0
C1106 C 0.5568 0.85284 0.05449 0.0
C1107 C 0.57778 0.83754 0.04248 0.0
C1108 C 0.60096 0.82776 0.05567 0.0
C1109 C 0.60346 0.8344 0.08019 0.0
C1110 C 0.53153 0.86328 0.04126 0.0
C1111 C 0.62397 0.81167 0.04356 0.0
C1112 C 0.56464 0.80854 0.97952 0.0
C1113 C 0.57598 0.82944 0.96495 0.0
C1114 C 0.56481 0.81089 1.00479 0.0
C1115 C 0.577 0.83447 1.01574 0.0
C1116 C 0.5886 0.85549 1.00108 0.0
C1117 C 0.58776 0.85282 0.97598 0.0
C1118 C 0.55185 0.78825 1.01978 0.0
C1119 C 0.60212 0.88082 1.01192 0.0
H1120 H 0.54443 0.87214 0.08778 0.0
H1121 H 0.62173 0.8277 0.08996 0.0
H1122 H 0.53778 0.87983 0.02852 0.0
H1123 H 0.52202 0.84636 0.03057 0.0
H1124 H 0.51557 0.87183 0.05368 0.0
H1125 H 0.6392 0.8033 0.05667 0.0
H1126 H 0.61529 0.79421 0.03301 0.0
H1127 H 0.63516 0.82539 0.0308 0.0
H1128 H 0.55544 0.79044 0.97119 0.0
H1129 H 0.59678 0.86903 0.96497 0.0
H1130 H 0.53517 0.79704 0.03129 0.0
H1131 H 0.56764 0.77914 0.03193 0.0
H1132 H 0.54288 0.77145 1.00857 0.0
H1133 H 0.58677 0.89243 1.0229 0.0
H1134 H 0.6107 0.89501 0.99804 0.0
H1135 H 0.61924 0.87449 1.02406 0.0
C1136 C 0.2863 0.34352 0.18098 0.0
C1137 C 0.28055 0.36595 0.16567 0.0
C1138 C 0.31144 0.32875 0.17937 0.0
C1139 C 0.33168 0.3366 0.16216 0.0
C1140 C 0.32624 0.35937 0.14679 0.0
C1141 C 0.30079 0.37368 0.14868 0.0
C1142 C 0.31628 0.30459 0.1961 0.0
C1143 C 0.34726 0.36852 0.12825 0.0
C1144 C 0.40544 0.3109 0.17412 0.0
C1145 C 0.40699 0.28717 0.15951 0.0
C1146 C 0.3815 0.32772 0.17451 0.0
C1147 C 0.3583 0.32063 0.16013 0.0
C1148 C 0.36002 0.29729 0.14477 0.0
C1149 C 0.38431 0.28105 0.14451 0.0
C1150 C 0.38071 0.35261 0.19094 0.0
C1151 C 0.33582 0.28888 0.12916 0.0
H1152 H 0.27124 0.33754 0.19448 0.0
H1153 H 0.29663 0.3907 0.13656 0.0
H1154 H 0.31986 0.28543 0.1855 0.0
H1155 H 0.3352 0.30826 0.207 0.0
H1156 H 0.29848 0.30104 0.20846 0.0
H1157 H 0.34028 0.38708 0.11812 0.0
H1158 H 0.36735 0.37333 0.13707 0.0
H1159 H 0.35118 0.35148 0.1153 0.0
H1160 H 0.42254 0.31595 0.18591 0.0
H1161 H 0.38532 0.26325 0.13272 0.0
H1162 H 0.36508 0.34923 0.20533 0.0
H1163 H 0.37427 0.37132 0.1808 0.0
H1164 H 0.40116 0.3567 0.19946 0.0
H1165 H 0.31784 0.28321 0.14066 0.0
H1166 H 0.34088 0.27098 0.11737 0.0
H1167 H 0.32923 0.3065 0.11772 0.0
C1168 C 0.76249 0.3495 0.65965 0.0
C1169 C 0.78959 0.33906 0.65714 0.0
C1170 C 0.73946 0.3316 0.66071 0.0
C1171 C 0.74361 0.30259 0.65934 0.0
C1172 C 0.77074 0.29204 0.65565 0.0
C1173 C 0.79332 0.31038 0.65452 0.0
C1174 C 0.71084 0.34369 0.66448 0.0
C1175 C 0.77611 0.26126 0.65403 0.0
C1176 C 0.69464 0.25445 0.69267 0.0
C1177 C 0.67915 0.24266 0.67392 0.0
C1178 C 0.71514 0.2744 0.68815 0.0
C1179 C 0.72026 0.28311 0.66427 0.0
C1180 C 0.70408 0.2721 0.64529 0.0
C1181 C 0.68373 0.25195 0.65034 0.0
C1182 C 0.73185 0.28564 0.70895 0.0
C1183 C 0.70877 0.28104 0.61962 0.0
H1184 H 0.75933 0.37156 0.66179 0.0
H1185 H 0.81406 0.30216 0.652 0.0
H1186 H 0.69583 0.33439 0.65171 0.0
H1187 H 0.70349 0.33875 0.6829 0.0
H1188 H 0.71063 0.36656 0.66219 0.0
H1189 H 0.79802 0.25651 0.64922 0.0
H1190 H 0.77137 0.25141 0.67159 0.0
H1191 H 0.76229 0.25167 0.64045 0.0
H1192 H 0.69082 0.24801 0.71101 0.0
H1193 H 0.67196 0.24292 0.63574 0.0
H1194 H 0.7305 0.30858 0.70941 0.0
H1195 H 0.75408 0.28013 0.70659 0.0
H1196 H 0.72466 0.27741 0.72654 0.0
H1197 H 0.70829 0.30397 0.61828 0.0
H1198 H 0.69297 0.27231 0.60722 0.0
H1199 H 0.72964 0.27417 0.61355 0.0
C1200 C 0.80023 0.70586 0.19131 0.0
C1201 C 0.80983 0.69119 0.17114 0.0
C1202 C 0.77998 0.72669 0.18921 0.0
C1203 C 0.76898 0.73327 0.16633 0.0
C1204 C 0.778 0.71806 0.14594 0.0
C1205 C 0.79823 0.69713 0.1486 0.0
C1206 C 0.77083 0.74212 0.21149 0.0
C1207 C 0.76692 0.72446 0.12121 0.0
C1208 C 0.70238 0.77643 0.16605 0.0
C1209 C 0.7129 0.80344 0.16377 0.0
C1210 C 0.72024 0.75327 0.16616 0.0
C1211 C 0.74933 0.75716 0.16377 0.0
C1212 C 0.75991 0.78429 0.16056 0.0
C1213 C 0.74164 0.80701 0.16066 0.0
C1214 C 0.70808 0.72475 0.16973 0.0
C1215 C 0.7907 0.78945 0.15772 0.0
H1216 H 0.8086 0.70105 0.20886 0.0
H1217 H 0.8056 0.68602 0.13292 0.0
H1218 H 0.7768 0.76426 0.20998 0.0
H1219 H 0.74788 0.74132 0.21328 0.0
H1220 H 0.78024 0.73352 0.2281 0.0
H1221 H 0.77458 0.70959 0.10746 0.0
H1222 H 0.74387 0.72402 0.12133 0.0
H1223 H 0.77332 0.74566 0.11586 0.0
H1224 H 0.68026 0.77346 0.16861 0.0
H1225 H 0.74991 0.82771 0.15842 0.0
H1226 H 0.71498 0.71629 0.18727 0.0
H1227 H 0.71569 0.71043 0.15557 0.0
H1228 H 0.685 0.72493 0.1694 0.0
H1229 H 0.80165 0.78345 0.17445 0.0
H1230 H 0.79544 0.81152 0.15381 0.0
H1231 H 0.79923 0.77649 0.14297 0.0
C1232 C 0.24913 0.70417 0.69103 0.0
C1233 C 0.23915 0.68794 0.672 0.0
C1234 C 0.27093 0.72305 0.68764 0.0
C1235 C 0.28311 0.72589 0.6646 0.0
C1236 C 0.27357 0.70919 0.64537 0.0
C1237 C 0.25173 0.69035 0.64932 0.0
C1238 C 0.28062 0.74029 0.70869 0.0
C1239 C 0.28599 0.71169 0.62054 0.0
C1240 C 0.31788 0.79535 0.65371 0.0
C1241 C 0.34587 0.78925 0.65828 0.0
C1242 C 0.2974 0.77469 0.65479 0.0
C1243 C 0.30505 0.74719 0.66064 0.0
C1244 C 0.3334 0.74066 0.66446 0.0
C1245 C 0.35348 0.76176 0.66319 0.0
C1246 C 0.26744 0.7825 0.65043 0.0
C1247 C 0.34238 0.7116 0.6708 0.0
H1248 H 0.23995 0.70203 0.70872 0.0
H1249 H 0.24401 0.67799 0.63452 0.0
H1250 H 0.30327 0.73743 0.71143 0.0
H1251 H 0.27709 0.76258 0.70489 0.0
H1252 H 0.26964 0.73487 0.72563 0.0
H1253 H 0.27721 0.69627 0.60782 0.0
H1254 H 0.28208 0.73277 0.61334 0.0
H1255 H 0.30885 0.70886 0.62133 0.0
H1256 H 0.31192 0.81642 0.64945 0.0
H1257 H 0.37501 0.7569 0.66691 0.0
H1258 H 0.25527 0.7797 0.66721 0.0
H1259 H 0.2582 0.76872 0.63663 0.0
H1260 H 0.26517 0.80433 0.64442 0.0
H1261 H 0.33398 0.70595 0.68873 0.0
H1262 H 0.36536 0.70943 0.67124 0.0
H1263 H 0.33388 0.69655 0.65767 0.0
C1264 C 0.34675 0.77596 0.39953 0.0
C1265 C 0.35238 0.78559 0.37622 0.0
C1266 C 0.32574 0.75623 0.4038 0.0
C1267 C 0.30999 0.74582 0.38429 0.0
C1268 C 0.31607 0.75494 0.36068 0.0
C1269 C 0.33713 0.77461 0.35695 0.0
C1270 C 0.31995 0.74702 0.42924 0.0
C1271 C 0.29994 0.7443 0.33932 0.0
C1272 C 0.26777 0.67919 0.38922 0.0
C1273 C 0.24062 0.68943 0.39194 0.0
C1274 C 0.29067 0.69723 0.38747 0.0
C1275 C 0.28639 0.72625 0.38846 0.0
C1276 C 0.25916 0.73668 0.39192 0.0
C1277 C 0.23668 0.71819 0.39363 0.0
C1278 C 0.31935 0.68524 0.38379 0.0
C1279 C 0.25364 0.76745 0.39318 0.0
H1280 H 0.35824 0.78442 0.41455 0.0
H1281 H 0.34166 0.78143 0.33883 0.0
H1282 H 0.2987 0.75353 0.4346 0.0
H1283 H 0.32071 0.72409 0.43044 0.0
H1284 H 0.33502 0.75584 0.44225 0.0
H1285 H 0.30784 0.75275 0.32204 0.0
H1286 H 0.30102 0.72136 0.3386 0.0
H1287 H 0.27771 0.75005 0.3412 0.0
H1288 H 0.27109 0.65707 0.38769 0.0
H1289 H 0.21592 0.72632 0.39618 0.0
H1290 H 0.33398 0.69387 0.39723 0.0
H1291 H 0.32725 0.69113 0.36576 0.0
H1292 H 0.31951 0.66228 0.38522 0.0
H1293 H 0.26683 0.77711 0.40718 0.0
H1294 H 0.23153 0.77219 0.39723 0.0
H1295 H 0.25918 0.77723 0.37577 0.0
C1296 C 0.31219 0.23743 0.90078 0.0
C1297 C 0.32173 0.2305 0.87772 0.0
C1298 C 0.2932 0.25921 0.90418 0.0
C1299 C 0.28381 0.2745 0.88406 0.0
C1300 C 0.29388 0.26795 0.86082 0.0
C1301 C 0.31263 0.24599 0.85795 0.0
C1302 C 0.28277 0.26551 0.9292 0.0
C1303 C 0.28461 0.28394 0.83892 0.0
C1304 C 0.21462 0.3119 0.88381 0.0
C1305 C 0.22286 0.3396 0.88633 0.0
C1306 C 0.23416 0.29037 0.88416 0.0
C1307 C 0.26269 0.29673 0.88692 0.0
C1308 C 0.27106 0.32457 0.89038 0.0
C1309 C 0.25099 0.34569 0.89013 0.0
C1310 C 0.22437 0.26091 0.88067 0.0
C1311 C 0.3013 0.33217 0.89323 0.0
H1312 H 0.3191 0.22539 0.91606 0.0
H1313 H 0.3204 0.24109 0.84017 0.0
H1314 H 0.28645 0.28762 0.93361 0.0
H1315 H 0.26 0.26199 0.9301 0.0
H1316 H 0.29298 0.25246 0.94305 0.0
H1317 H 0.29521 0.27687 0.82226 0.0
H1318 H 0.26186 0.28158 0.83649 0.0
H1319 H 0.28886 0.30635 0.84141 0.0
H1320 H 0.19283 0.3071 0.8813 0.0
H1321 H 0.25746 0.36709 0.89192 0.0
H1322 H 0.23285 0.24738 0.895 0.0
H1323 H 0.2322 0.25288 0.86324 0.0
H1324 H 0.20134 0.25925 0.88081 0.0
H1325 H 0.31107 0.3193 0.90741 0.0
H1326 H 0.30414 0.35437 0.8979 0.0
H1327 H 0.31256 0.32791 0.8762 0.0
C1328 C 0.68313 0.2585 0.36205 0.0
C1329 C 0.66983 0.2487 0.38284 0.0
C1330 C 0.7048 0.27792 0.36334 0.0
C1331 C 0.71369 0.28776 0.38603 0.0
C1332 C 0.69993 0.27847 0.40711 0.0
C1333 C 0.67805 0.25917 0.40525 0.0
C1334 C 0.71857 0.28748 0.34037 0.0
C1335 C 0.70888 0.28827 0.43165 0.0
C1336 C 0.78857 0.31312 0.38711 0.0
C1337 C 0.78535 0.34194 0.38525 0.0
C1338 C 0.76544 0.2954 0.38838 0.0
C1339 C 0.73827 0.30666 0.38753 0.0
C1340 C 0.73485 0.33581 0.38637 0.0
C1341 C 0.75841 0.35309 0.38537 0.0
C1342 C 0.77012 0.26451 0.38991 0.0
C1343 C 0.70629 0.34868 0.38522 0.0
H1344 H 0.67656 0.25091 0.34465 0.0
H1345 H 0.66798 0.25156 0.42138 0.0
H1346 H 0.71832 0.31043 0.33934 0.0
H1347 H 0.74065 0.28085 0.3402 0.0
H1348 H 0.70824 0.27901 0.32412 0.0
H1349 H 0.69509 0.28038 0.44615 0.0
H1350 H 0.73041 0.28118 0.43525 0.0
H1351 H 0.70902 0.31124 0.43234 0.0
H1352 H 0.8093 0.30438 0.38745 0.0
H1353 H 0.75573 0.37529 0.38376 0.0
H1354 H 0.76247 0.25441 0.37328 0.0
H1355 H 0.7582 0.25569 0.40518 0.0
H1356 H 0.79242 0.25918 0.39222 0.0
H1357 H 0.69605 0.34265 0.36816 0.0
H1358 H 0.70706 0.37166 0.38619 0.0
H1359 H 0.69312 0.34088 0.40013 0.0
C1360 C 0.77284 0.69141 0.90506 0.0
C1361 C 0.782 0.68351 0.88214 0.0
C1362 C 0.75278 0.71235 0.90788 0.0
C1363 C 0.74139 0.72521 0.88726 0.0
C1364 C 0.74999 0.71662 0.86408 0.0
C1365 C 0.77034 0.69604 0.86183 0.0
C1366 C 0.74439 0.72125 0.93287 0.0
C1367 C 0.73799 0.72946 0.84162 0.0
C1368 C 0.67362 0.76538 0.88919 0.0
C1369 C 0.6832 0.79272 0.88743 0.0
C1370 C 0.69235 0.7431 0.8901 0.0
C1371 C 0.72129 0.74843 0.88963 0.0
C1372 C 0.73101 0.77611 0.88915 0.0
C1373 C 0.71183 0.79792 0.88782 0.0
C1374 C 0.68118 0.71388 0.89025 0.0
C1375 C 0.76169 0.78268 0.88906 0.0
H1376 H 0.78201 0.68179 0.92074 0.0
H1377 H 0.7771 0.68958 0.84411 0.0
H1378 H 0.75042 0.74319 0.93577 0.0
H1379 H 0.7215 0.72002 0.93499 0.0
H1380 H 0.75428 0.70835 0.947 0.0
H1381 H 0.74581 0.71936 0.82498 0.0
H1382 H 0.71498 0.72794 0.84191 0.0
H1383 H 0.74339 0.75179 0.8409 0.0
H1384 H 0.65148 0.76137 0.88867 0.0
H1385 H 0.71917 0.8191 0.88679 0.0
H1386 H 0.69109 0.70159 0.90473 0.0
H1387 H 0.68631 0.70362 0.87295 0.0
H1388 H 0.65828 0.71329 0.89279 0.0
H1389 H 0.77234 0.77139 0.90377 0.0
H1390 H 0.76577 0.80521 0.89116 0.0
H1391 H 0.77109 0.77569 0.87187 0.0
loop_
_geom_bond_atom_site_label_1
_geom_bond_atom_site_label_2
_geom_bond_distance
_geom_bond_site_symmetry_2
_ccdc_geom_bond_type
Cu0 N1 1.999 . S
Cu0 O6 1.974 . S
Cu0 N11 1.985 . S
Cu0 O20 1.959 . S
N1 Cu0 1.999 . S
N1 C3 1.263 . S
N1 C5 1.389 . S
N2 C3 1.358 . S
N2 C4 1.400 . S
C3 N1 1.263 . S
C3 N2 1.358 . S
C3 H9 0.930 . S
C4 N2 1.400 . S
C4 C5 1.351 . S
C4 H21 0.930 . S
C5 N1 1.389 . S
C5 C4 1.351 . S
C5 H10 0.930 . S
O6 Cu0 1.974 . S
O6 C16 1.282 . S
C7 O8 1.261 . S
C7 O20 1.251 . S
O8 C7 1.261 . S
H9 C3 0.930 . S
H10 C5 0.930 . S
N11 Cu0 1.985 . S
N11 C13 1.335 . S
N11 C14 1.390 . S
N12 C13 1.345 . S
N12 C15 1.336 . S
C13 N11 1.335 . S
C13 N12 1.345 . S
C13 H18 0.930 . S
C14 N11 1.390 . S
C14 C15 1.346 . S
C14 H19 0.930 . S
C15 N12 1.336 . S
C15 C14 1.346 . S
C15 H22 0.929 . S
C16 O6 1.282 . S
C16 O17 1.216 . S
O17 C16 1.216 . S
H18 C13 0.930 . S
H19 C14 0.930 . S
O20 Cu0 1.959 . S
O20 C7 1.251 . S
H21 C4 0.930 . S
H22 C15 0.929 . S
Cu23 N24 1.999 . S
Cu23 O29 1.974 . S
Cu23 N34 1.985 . S
Cu23 O43 1.959 . S
N24 Cu23 1.999 . S
N24 C26 1.263 . S
N24 C28 1.389 . S
N25 C26 1.358 . S
N25 C27 1.400 . S
C26 N24 1.263 . S
C26 N25 1.358 . S
C26 H32 0.930 . S
C27 N25 1.400 . S
C27 C28 1.351 . S
C27 H44 0.930 . S
C28 N24 1.389 . S
C28 C27 1.351 . S
C28 H33 0.930 . S
O29 Cu23 1.974 . S
O29 C39 1.282 . S
C30 O31 1.261 . S
C30 O43 1.251 . S
O31 C30 1.261 . S
H32 C26 0.930 . S
H33 C28 0.930 . S
N34 Cu23 1.985 . S
N34 C36 1.335 . S
N34 C37 1.390 . S
N35 C36 1.345 . S
N35 C38 1.336 . S
C36 N34 1.335 . S
C36 N35 1.345 . S
C36 H41 0.930 . S
C37 N34 1.390 . S
C37 C38 1.346 . S
C37 H42 0.930 . S
C38 N35 1.336 . S
C38 C37 1.346 . S
C38 H45 0.929 . S
C39 O29 1.282 . S
C39 O40 1.216 . S
O40 C39 1.216 . S
H41 C36 0.930 . S
H42 C37 0.930 . S
O43 Cu23 1.959 . S
O43 C30 1.251 . S
H44 C27 0.930 . S
H45 C38 0.929 . S
Cu46 N47 1.999 . S
Cu46 O52 1.974 . S
Cu46 N57 1.985 . S
Cu46 O66 1.959 . S
N47 Cu46 1.999 . S
N47 C49 1.263 . S
N47 C51 1.389 . S
N48 C49 1.358 . S
N48 C50 1.400 . S
C49 N47 1.263 . S
C49 N48 1.358 . S
C49 H55 0.930 . S
C50 N48 1.400 . S
C50 C51 1.351 . S
C50 H67 0.930 . S
C51 N47 1.389 . S
C51 C50 1.351 . S
C51 H56 0.930 . S
O52 Cu46 1.974 . S
O52 C62 1.282 . S
C53 O54 1.261 . S
C53 O66 1.251 . S
O54 C53 1.261 . S
H55 C49 0.930 . S
H56 C51 0.930 . S
N57 Cu46 1.985 . S
N57 C59 1.335 . S
N57 C60 1.390 . S
N58 C59 1.345 . S
N58 C61 1.336 . S
C59 N57 1.335 . S
C59 N58 1.345 . S
C59 H64 0.930 . S
C60 N57 1.390 . S
C60 C61 1.346 . S
C60 H65 0.930 . S
C61 N58 1.336 . S
C61 C60 1.346 . S
C61 H68 0.929 . S
C62 O52 1.282 . S
C62 O63 1.216 . S
O63 C62 1.216 . S
H64 C59 0.930 . S
H65 C60 0.930 . S
O66 Cu46 1.959 . S
O66 C53 1.251 . S
H67 C50 0.930 . S
H68 C61 0.929 . S
Cu69 N70 1.999 . S
Cu69 O75 1.974 . S
Cu69 N80 1.985 . S
Cu69 O89 1.959 . S
N70 Cu69 1.999 . S
N70 C72 1.263 . S
N70 C74 1.389 . S
N71 C72 1.358 . S
N71 C73 1.400 . S
C72 N70 1.263 . S
C72 N71 1.358 . S
C72 H78 0.930 . S
C73 N71 1.400 . S
C73 C74 1.351 . S
C73 H90 0.930 . S
C74 N70 1.389 . S
C74 C73 1.351 . S
C74 H79 0.930 . S
O75 Cu69 1.974 . S
O75 C85 1.282 . S
C76 O77 1.261 . S
C76 O89 1.251 . S
O77 C76 1.261 . S
H78 C72 0.930 . S
H79 C74 0.930 . S
N80 Cu69 1.985 . S
N80 C82 1.335 . S
N80 C83 1.390 . S
N81 C82 1.345 . S
N81 C84 1.336 . S
C82 N80 1.335 . S
C82 N81 1.345 . S
C82 H87 0.930 . S
C83 N80 1.390 . S
C83 C84 1.346 . S
C83 H88 0.930 . S
C84 N81 1.336 . S
C84 C83 1.346 . S
C84 H91 0.929 . S
C85 O75 1.282 . S
C85 O86 1.216 . S
O86 C85 1.216 . S
H87 C82 0.930 . S
H88 C83 0.930 . S
O89 Cu69 1.959 . S
O89 C76 1.251 . S
H90 C73 0.930 . S
H91 C84 0.929 . S
Cu92 N93 1.999 . S
Cu92 O98 1.974 . S
Cu92 N103 1.985 . S
Cu92 O112 1.959 . S
N93 Cu92 1.999 . S
N93 C95 1.263 . S
N93 C97 1.389 . S
N94 C95 1.358 . S
N94 C96 1.400 . S
C95 N93 1.263 . S
C95 N94 1.358 . S
C95 H101 0.930 . S
C96 N94 1.400 . S
C96 C97 1.351 . S
C96 H113 0.930 . S
C97 N93 1.389 . S
C97 C96 1.351 . S
C97 H102 0.930 . S
O98 Cu92 1.974 . S
O98 C108 1.282 . S
C99 O100 1.261 . S
C99 O112 1.251 . S
O100 C99 1.261 . S
H101 C95 0.930 . S
H102 C97 0.930 . S
N103 Cu92 1.985 . S
N103 C105 1.335 . S
N103 C106 1.390 . S
N104 C105 1.345 . S
N104 C107 1.336 . S
C105 N103 1.335 . S
C105 N104 1.345 . S
C105 H110 0.930 . S
C106 N103 1.390 . S
C106 C107 1.346 . S
C106 H111 0.930 . S
C107 N104 1.336 . S
C107 C106 1.346 . S
C107 H114 0.929 . S
C108 O98 1.282 . S
C108 O109 1.216 . S
O109 C108 1.216 . S
H110 C105 0.930 . S
H111 C106 0.930 . S
O112 Cu92 1.959 . S
O112 C99 1.251 . S
H113 C96 0.930 . S
H114 C107 0.929 . S
Cu115 N116 1.999 . S
Cu115 O121 1.974 . S
Cu115 N126 1.985 . S
Cu115 O135 1.959 . S
N116 Cu115 1.999 . S
N116 C118 1.263 . S
N116 C120 1.389 . S
N117 C118 1.358 . S
N117 C119 1.400 . S
C118 N116 1.263 . S
C118 N117 1.358 . S
C118 H124 0.930 . S
C119 N117 1.400 . S
C119 C120 1.351 . S
C119 H136 0.930 . S
C120 N116 1.389 . S
C120 C119 1.351 . S
C120 H125 0.930 . S
O121 Cu115 1.974 . S
O121 C131 1.282 . S
C122 O123 1.261 . S
C122 O135 1.251 . S
O123 C122 1.261 . S
H124 C118 0.930 . S
H125 C120 0.930 . S
N126 Cu115 1.985 . S
N126 C128 1.335 . S
N126 C129 1.390 . S
N127 C128 1.345 . S
N127 C130 1.336 . S
C128 N126 1.335 . S
C128 N127 1.345 . S
C128 H133 0.930 . S
C129 N126 1.390 . S
C129 C130 1.346 . S
C129 H134 0.930 . S
C130 N127 1.336 . S
C130 C129 1.346 . S
C130 H137 0.929 . S
C131 O121 1.282 . S
C131 O132 1.216 . S
O132 C131 1.216 . S
H133 C128 0.930 . S
H134 C129 0.930 . S
O135 Cu115 1.959 . S
O135 C122 1.251 . S
H136 C119 0.930 . S
H137 C130 0.929 . S
Cu138 N139 1.999 . S
Cu138 O144 1.974 . S
Cu138 N149 1.985 . S
Cu138 O158 1.959 . S
N139 Cu138 1.999 . S
N139 C141 1.263 . S
N139 C143 1.389 . S
N140 C141 1.358 . S
N140 C142 1.400 . S
C141 N139 1.263 . S
C141 N140 1.358 . S
C141 H147 0.930 . S
C142 N140 1.400 . S
C142 C143 1.351 . S
C142 H159 0.930 . S
C143 N139 1.389 . S
C143 C142 1.351 . S
C143 H148 0.930 . S
O144 Cu138 1.974 . S
O144 C154 1.282 . S
C145 O146 1.261 . S
C145 O158 1.251 . S
O146 C145 1.261 . S
H147 C141 0.930 . S
H148 C143 0.930 . S
N149 Cu138 1.985 . S
N149 C151 1.335 . S
N149 C152 1.390 . S
N150 C151 1.345 . S
N150 C153 1.336 . S
C151 N149 1.335 . S
C151 N150 1.345 . S
C151 H156 0.930 . S
C152 N149 1.390 . S
C152 C153 1.346 . S
C152 H157 0.930 . S
C153 N150 1.336 . S
C153 C152 1.346 . S
C153 H160 0.929 . S
C154 O144 1.282 . S
C154 O155 1.216 . S
O155 C154 1.216 . S
H156 C151 0.930 . S
H157 C152 0.930 . S
O158 Cu138 1.959 . S
O158 C145 1.251 . S
H159 C142 0.930 . S
H160 C153 0.929 . S
Cu161 N162 1.999 . S
Cu161 O167 1.974 . S
Cu161 N172 1.985 . S
Cu161 O181 1.959 . S
N162 Cu161 1.999 . S
N162 C164 1.263 . S
N162 C166 1.389 . S
N163 C164 1.358 . S
N163 C165 1.400 . S
C164 N162 1.263 . S
C164 N163 1.358 . S
C164 H170 0.930 . S
C165 N163 1.400 . S
C165 C166 1.351 . S
C165 H182 0.930 . S
C166 N162 1.389 . S
C166 C165 1.351 . S
C166 H171 0.930 . S
O167 Cu161 1.974 . S
O167 C177 1.282 . S
C168 O169 1.261 . S
C168 O181 1.251 . S
O169 C168 1.261 . S
H170 C164 0.930 . S
H171 C166 0.930 . S
N172 Cu161 1.985 . S
N172 C174 1.335 . S
N172 C175 1.390 . S
N173 C174 1.345 . S
N173 C176 1.336 . S
C174 N172 1.335 . S
C174 N173 1.345 . S
C174 H179 0.930 . S
C175 N172 1.390 . S
C175 C176 1.346 . S
C175 H180 0.930 . S
C176 N173 1.336 . S
C176 C175 1.346 . S
C176 H183 0.929 . S
C177 O167 1.282 . S
C177 O178 1.216 . S
O178 C177 1.216 . S
H179 C174 0.930 . S
H180 C175 0.930 . S
O181 Cu161 1.959 . S
O181 C168 1.251 . S
H182 C165 0.930 . S
H183 C176 0.929 . S
Cu184 N185 1.999 . S
Cu184 O190 1.974 . S
Cu184 N195 1.985 . S
Cu184 O204 1.959 . S
N185 Cu184 1.999 . S
N185 C187 1.263 . S
N185 C189 1.389 . S
N186 C187 1.358 . S
N186 C188 1.400 . S
C187 N185 1.263 . S
C187 N186 1.358 . S
C187 H193 0.930 . S
C188 N186 1.400 . S
C188 C189 1.351 . S
C188 H205 0.930 . S
C189 N185 1.389 . S
C189 C188 1.351 . S
C189 H194 0.930 . S
O190 Cu184 1.974 . S
O190 C200 1.282 . S
C191 O192 1.261 . S
C191 O204 1.251 . S
O192 C191 1.261 . S
H193 C187 0.930 . S
H194 C189 0.930 . S
N195 Cu184 1.985 . S
N195 C197 1.335 . S
N195 C198 1.390 . S
N196 C197 1.345 . S
N196 C199 1.336 . S
C197 N195 1.335 . S
C197 N196 1.345 . S
C197 H202 0.930 . S
C198 N195 1.390 . S
C198 C199 1.346 . S
C198 H203 0.930 . S
C199 N196 1.336 . S
C199 C198 1.346 . S
C199 H206 0.929 . S
C200 O190 1.282 . S
C200 O201 1.216 . S
O201 C200 1.216 . S
H202 C197 0.930 . S
H203 C198 0.930 . S
O204 Cu184 1.959 . S
O204 C191 1.251 . S
H205 C188 0.930 . S
H206 C199 0.929 . S
Cu207 N208 1.999 . S
Cu207 O213 1.974 . S
Cu207 N218 1.985 . S
Cu207 O227 1.959 . S
N208 Cu207 1.999 . S
N208 C210 1.263 . S
N208 C212 1.389 . S
N209 C210 1.358 . S
N209 C211 1.400 . S
C210 N208 1.263 . S
C210 N209 1.358 . S
C210 H216 0.930 . S
C211 N209 1.400 . S
C211 C212 1.351 . S
C211 H228 0.930 . S
C212 N208 1.389 . S
C212 C211 1.351 . S
C212 H217 0.930 . S
O213 Cu207 1.974 . S
O213 C223 1.282 . S
C214 O215 1.261 . S
C214 O227 1.251 . S
O215 C214 1.261 . S
H216 C210 0.930 . S
H217 C212 0.930 . S
N218 Cu207 1.985 . S
N218 C220 1.335 . S
N218 C221 1.390 . S
N219 C220 1.345 . S
N219 C222 1.336 . S
C220 N218 1.335 . S
C220 N219 1.345 . S
C220 H225 0.930 . S
C221 N218 1.390 . S
C221 C222 1.346 . S
C221 H226 0.930 . S
C222 N219 1.336 . S
C222 C221 1.346 . S
C222 H229 0.929 . S
C223 O213 1.282 . S
C223 O224 1.216 . S
O224 C223 1.216 . S
H225 C220 0.930 . S
H226 C221 0.930 . S
O227 Cu207 1.959 . S
O227 C214 1.251 . S
H228 C211 0.930 . S
H229 C222 0.929 . S
Cu230 N231 1.999 . S
Cu230 O236 1.974 . S
Cu230 N241 1.985 . S
Cu230 O250 1.959 . S
N231 Cu230 1.999 . S
N231 C233 1.263 . S
N231 C235 1.389 . S
N232 C233 1.358 . S
N232 C234 1.400 . S
C233 N231 1.263 . S
C233 N232 1.358 . S
C233 H239 0.930 . S
C234 N232 1.400 . S
C234 C235 1.351 . S
C234 H251 0.930 . S
C235 N231 1.389 . S
C235 C234 1.351 . S
C235 H240 0.930 . S
O236 Cu230 1.974 . S
O236 C246 1.282 . S
C237 O238 1.261 . S
C237 O250 1.251 . S
O238 C237 1.261 . S
H239 C233 0.930 . S
H240 C235 0.930 . S
N241 Cu230 1.985 . S
N241 C243 1.335 . S
N241 C244 1.390 . S
N242 C243 1.345 . S
N242 C245 1.336 . S
C243 N241 1.335 . S
C243 N242 1.345 . S
C243 H248 0.930 . S
C244 N241 1.390 . S
C244 C245 1.346 . S
C244 H249 0.930 . S
C245 N242 1.336 . S
C245 C244 1.346 . S
C245 H252 0.929 . S
C246 O236 1.282 . S
C246 O247 1.216 . S
O247 C246 1.216 . S
H248 C243 0.930 . S
H249 C244 0.930 . S
O250 Cu230 1.959 . S
O250 C237 1.251 . S
H251 C234 0.930 . S
H252 C245 0.929 . S
Cu253 N254 1.999 . S
Cu253 O259 1.974 . S
Cu253 N264 1.985 . S
Cu253 O273 1.959 . S
N254 Cu253 1.999 . S
N254 C256 1.263 . S
N254 C258 1.389 . S
N255 C256 1.358 . S
N255 C257 1.400 . S
C256 N254 1.263 . S
C256 N255 1.358 . S
C256 H262 0.930 . S
C257 N255 1.400 . S
C257 C258 1.351 . S
C257 H274 0.930 . S
C258 N254 1.389 . S
C258 C257 1.351 . S
C258 H263 0.930 . S
O259 Cu253 1.974 . S
O259 C269 1.282 . S
C260 O261 1.261 . S
C260 O273 1.251 . S
O261 C260 1.261 . S
H262 C256 0.930 . S
H263 C258 0.930 . S
N264 Cu253 1.985 . S
N264 C266 1.335 . S
N264 C267 1.390 . S
N265 C266 1.345 . S
N265 C268 1.336 . S
C266 N264 1.335 . S
C266 N265 1.345 . S
C266 H271 0.930 . S
C267 N264 1.390 . S
C267 C268 1.346 . S
C267 H272 0.930 . S
C268 N265 1.336 . S
C268 C267 1.346 . S
C268 H275 0.929 . S
C269 O259 1.282 . S
C269 O270 1.216 . S
O270 C269 1.216 . S
H271 C266 0.930 . S
H272 C267 0.930 . S
O273 Cu253 1.959 . S
O273 C260 1.251 . S
H274 C257 0.930 . S
H275 C268 0.929 . S
Cu276 N277 1.999 . S
Cu276 O282 1.974 . S
Cu276 N287 1.985 . S
Cu276 O296 1.959 . S
N277 Cu276 1.999 . S
N277 C279 1.263 . S
N277 C281 1.389 . S
N278 C279 1.358 . S
N278 C280 1.400 . S
C279 N277 1.263 . S
C279 N278 1.358 . S
C279 H285 0.930 . S
C280 N278 1.400 . S
C280 C281 1.351 . S
C280 H297 0.930 . S
C281 N277 1.389 . S
C281 C280 1.351 . S
C281 H286 0.930 . S
O282 Cu276 1.974 . S
O282 C292 1.282 . S
C283 O284 1.261 . S
C283 O296 1.251 . S
O284 C283 1.261 . S
H285 C279 0.930 . S
H286 C281 0.930 . S
N287 Cu276 1.985 . S
N287 C289 1.335 . S
N287 C290 1.390 . S
N288 C289 1.345 . S
N288 C291 1.336 . S
C289 N287 1.335 . S
C289 N288 1.345 . S
C289 H294 0.930 . S
C290 N287 1.390 . S
C290 C291 1.346 . S
C290 H295 0.930 . S
C291 N288 1.336 . S
C291 C290 1.346 . S
C291 H298 0.929 . S
C292 O282 1.282 . S
C292 O293 1.216 . S
O293 C292 1.216 . S
H294 C289 0.930 . S
H295 C290 0.930 . S
O296 Cu276 1.959 . S
O296 C283 1.251 . S
H297 C280 0.930 . S
H298 C291 0.929 . S
Cu299 N300 1.999 . S
Cu299 O305 1.974 . S
Cu299 N310 1.985 . S
Cu299 O319 1.959 . S
N300 Cu299 1.999 . S
N300 C302 1.263 . S
N300 C304 1.389 . S
N301 C302 1.358 . S
N301 C303 1.400 . S
C302 N300 1.263 . S
C302 N301 1.358 . S
C302 H308 0.930 . S
C303 N301 1.400 . S
C303 C304 1.351 . S
C303 H320 0.930 . S
C304 N300 1.389 . S
C304 C303 1.351 . S
C304 H309 0.930 . S
O305 Cu299 1.974 . S
O305 C315 1.282 . S
C306 O307 1.261 . S
C306 O319 1.251 . S
O307 C306 1.261 . S
H308 C302 0.930 . S
H309 C304 0.930 . S
N310 Cu299 1.985 . S
N310 C312 1.335 . S
N310 C313 1.390 . S
N311 C312 1.345 . S
N311 C314 1.336 . S
C312 N310 1.335 . S
C312 N311 1.345 . S
C312 H317 0.930 . S
C313 N310 1.390 . S
C313 C314 1.346 . S
C313 H318 0.930 . S
C314 N311 1.336 . S
C314 C313 1.346 . S
C314 H321 0.929 . S
C315 O305 1.282 . S
C315 O316 1.216 . S
O316 C315 1.216 . S
H317 C312 0.930 . S
H318 C313 0.930 . S
O319 Cu299 1.959 . S
O319 C306 1.251 . S
H320 C303 0.930 . S
H321 C314 0.929 . S
Cu322 N323 1.999 . S
Cu322 O328 1.974 . S
Cu322 N333 1.985 . S
Cu322 O342 1.959 . S
N323 Cu322 1.999 . S
N323 C325 1.263 . S
N323 C327 1.389 . S
N324 C325 1.358 . S
N324 C326 1.400 . S
C325 N323 1.263 . S
C325 N324 1.358 . S
C325 H331 0.930 . S
C326 N324 1.400 . S
C326 C327 1.351 . S
C326 H343 0.930 . S
C327 N323 1.389 . S
C327 C326 1.351 . S
C327 H332 0.930 . S
O328 Cu322 1.974 . S
O328 C338 1.282 . S
C329 O330 1.261 . S
C329 O342 1.251 . S
O330 C329 1.261 . S
H331 C325 0.930 . S
H332 C327 0.930 . S
N333 Cu322 1.985 . S
N333 C335 1.335 . S
N333 C336 1.390 . S
N334 C335 1.345 . S
N334 C337 1.336 . S
C335 N333 1.335 . S
C335 N334 1.345 . S
C335 H340 0.930 . S
C336 N333 1.390 . S
C336 C337 1.346 . S
C336 H341 0.930 . S
C337 N334 1.336 . S
C337 C336 1.346 . S
C337 H344 0.929 . S
C338 O328 1.282 . S
C338 O339 1.216 . S
O339 C338 1.216 . S
H340 C335 0.930 . S
H341 C336 0.930 . S
O342 Cu322 1.959 . S
O342 C329 1.251 . S
H343 C326 0.930 . S
H344 C337 0.929 . S
Cu345 N346 1.999 . S
Cu345 O351 1.974 . S
Cu345 N356 1.985 . S
Cu345 O365 1.959 . S
N346 Cu345 1.999 . S
N346 C348 1.263 . S
N346 C350 1.389 . S
N347 C348 1.358 . S
N347 C349 1.400 . S
C348 N346 1.263 . S
C348 N347 1.358 . S
C348 H354 0.930 . S
C349 N347 1.400 . S
C349 C350 1.351 . S
C349 H366 0.930 . S
C350 N346 1.389 . S
C350 C349 1.351 . S
C350 H355 0.930 . S
O351 Cu345 1.974 . S
O351 C361 1.282 . S
C352 O353 1.261 . S
C352 O365 1.251 . S
O353 C352 1.261 . S
H354 C348 0.930 . S
H355 C350 0.930 . S
N356 Cu345 1.985 . S
N356 C358 1.335 . S
N356 C359 1.390 . S
N357 C358 1.345 . S
N357 C360 1.336 . S
C358 N356 1.335 . S
C358 N357 1.345 . S
C358 H363 0.930 . S
C359 N356 1.390 . S
C359 C360 1.346 . S
C359 H364 0.930 . S
C360 N357 1.336 . S
C360 C359 1.346 . S
C360 H367 0.929 . S
C361 O351 1.282 . S
C361 O362 1.216 . S
O362 C361 1.216 . S
H363 C358 0.930 . S
H364 C359 0.930 . S
O365 Cu345 1.959 . S
O365 C352 1.251 . S
H366 C349 0.930 . S
H367 C360 0.929 . S
C368 C369 1.391 . S
C368 C370 1.394 . S
C368 H384 0.931 . S
C369 C368 1.391 . S
C369 C373 1.376 . S
C370 C368 1.394 . S
C370 C371 1.369 . S
C370 C374 1.528 . S
C371 C370 1.369 . S
C371 C372 1.410 . S
C371 C379 1.503 1_455 S
C372 C371 1.410 . S
C372 C373 1.392 . S
C372 C375 1.511 . S
C373 C369 1.376 . S
C373 C372 1.392 . S
C373 H385 0.929 . S
C374 C370 1.528 . S
C374 H386 0.963 1_455 S
C374 H387 0.962 1_455 S
C374 H388 0.959 . S
C375 C372 1.511 . S
C375 H389 0.961 . S
C375 H390 0.961 . S
C375 H391 0.961 . S
C376 C377 1.370 . S
C376 C378 1.363 . S
C376 H392 0.931 . S
C377 C376 1.370 . S
C377 C381 1.408 . S
C378 C376 1.363 . S
C378 C379 1.370 . S
C378 C382 1.524 . S
C379 C371 1.503 1_655 S
C379 C378 1.370 . S
C379 C380 1.403 . S
C380 C379 1.403 . S
C380 C381 1.404 . S
C380 C383 1.539 . S
C381 C377 1.408 . S
C381 C380 1.404 . S
C381 H393 0.930 . S
C382 C378 1.524 . S
C382 H394 0.956 1_655 S
C382 H395 0.961 1_655 S
C382 H396 0.961 . S
C383 C380 1.539 . S
C383 H397 0.958 . S
C383 H398 0.961 . S
C383 H399 0.960 . S
H384 C368 0.931 . S
H385 C373 0.929 . S
H386 C374 0.963 1_655 S
H387 C374 0.962 1_655 S
H388 C374 0.959 . S
H389 C375 0.961 . S
H390 C375 0.961 . S
H391 C375 0.961 . S
H392 C376 0.931 . S
H393 C381 0.930 . S
H394 C382 0.956 1_455 S
H395 C382 0.961 1_455 S
H396 C382 0.961 . S
H397 C383 0.958 . S
H398 C383 0.961 . S
H399 C383 0.960 . S
C400 C401 1.391 . S
C400 C402 1.394 . S
C400 H416 0.931 . S
C401 C400 1.391 . S
C401 C405 1.376 . S
C402 C400 1.394 . S
C402 C403 1.369 . S
C402 C406 1.531 . S
C403 C402 1.369 . S
C403 C404 1.410 . S
C403 C411 1.503 1_565 S
C404 C403 1.410 . S
C404 C405 1.392 . S
C404 C407 1.486 1_565 S
C405 C401 1.376 . S
C405 C404 1.392 . S
C405 H417 0.929 . S
C406 C402 1.531 . S
C406 H418 0.960 . S
C406 H419 0.962 . S
C406 H420 0.960 . S
C407 C404 1.486 1_545 S
C407 H421 0.948 1_545 S
C407 H422 0.990 . S
C407 H423 0.971 . S
C408 C409 1.370 . S
C408 C410 1.363 . S
C408 H424 0.931 . S
C409 C408 1.370 . S
C409 C413 1.408 . S
C410 C408 1.363 . S
C410 C411 1.370 . S
C410 C414 1.524 . S
C411 C403 1.503 1_545 S
C411 C410 1.370 . S
C411 C412 1.403 . S
C412 C411 1.403 . S
C412 C413 1.404 . S
C412 C415 1.539 . S
C413 C409 1.408 . S
C413 C412 1.404 . S
C413 H425 0.930 . S
C414 C410 1.524 . S
C414 H426 0.956 1_545 S
C414 H427 0.961 1_545 S
C414 H428 0.961 . S
C415 C412 1.539 . S
C415 H429 0.958 . S
C415 H430 0.961 . S
C415 H431 0.960 . S
H416 C400 0.931 . S
H417 C405 0.929 . S
H418 C406 0.960 . S
H419 C406 0.962 . S
H420 C406 0.960 . S
H421 C407 0.948 1_565 S
H422 C407 0.990 . S
H423 C407 0.971 . S
H424 C408 0.931 . S
H425 C413 0.930 . S
H426 C414 0.956 1_565 S
H427 C414 0.961 1_565 S
H428 C414 0.961 . S
H429 C415 0.958 . S
H430 C415 0.961 . S
H431 C415 0.960 . S
C432 C433 1.391 . S
C432 C434 1.394 . S
C432 H448 0.931 . S
C433 C432 1.391 . S
C433 C437 1.376 . S
C434 C432 1.394 . S
C434 C435 1.369 . S
C434 C438 1.531 . S
C435 C434 1.369 . S
C435 C436 1.410 . S
C435 C443 1.503 1_455 S
C436 C435 1.410 . S
C436 C437 1.392 . S
C436 C439 1.485 1_455 S
C437 C433 1.376 . S
C437 C436 1.392 . S
C437 H449 0.929 . S
C438 C434 1.531 . S
C438 H450 0.960 . S
C438 H451 0.962 . S
C438 H452 0.960 . S
C439 C436 1.485 1_655 S
C439 H453 0.949 1_655 S
C439 H454 0.993 . S
C439 H455 0.969 . S
C440 C441 1.370 . S
C440 C442 1.363 . S
C440 H456 0.931 . S
C441 C440 1.370 . S
C441 C445 1.408 . S
C442 C440 1.363 . S
C442 C443 1.370 . S
C442 C446 1.524 . S
C443 C435 1.503 1_655 S
C443 C442 1.370 . S
C443 C444 1.403 . S
C444 C443 1.403 . S
C444 C445 1.404 . S
C444 C447 1.539 . S
C445 C441 1.408 . S
C445 C444 1.404 . S
C445 H457 0.930 . S
C446 C442 1.524 . S
C446 H458 0.956 1_655 S
C446 H459 0.961 . S
C446 H460 0.961 . S
C447 C444 1.539 . S
C447 H461 0.958 . S
C447 H462 0.961 . S
C447 H463 0.960 . S
H448 C432 0.931 . S
H449 C437 0.929 . S
H450 C438 0.960 . S
H451 C438 0.962 . S
H452 C438 0.960 . S
H453 C439 0.949 1_455 S
H454 C439 0.993 . S
H455 C439 0.969 . S
H456 C440 0.931 . S
H457 C445 0.930 . S
H458 C446 0.956 1_455 S
H459 C446 0.961 . S
H460 C446 0.961 . S
H461 C447 0.958 . S
H462 C447 0.961 . S
H463 C447 0.960 . S
C464 C465 1.391 . S
C464 C466 1.394 . S
C464 H480 0.931 . S
C465 C464 1.391 . S
C465 C469 1.376 . S
C466 C464 1.394 . S
C466 C467 1.369 . S
C466 C470 1.531 . S
C467 C466 1.369 . S
C467 C468 1.410 . S
C467 C475 1.503 1_565 S
C468 C467 1.410 . S
C468 C469 1.392 . S
C468 C471 1.511 . S
C469 C465 1.376 . S
C469 C468 1.392 . S
C469 H481 0.929 . S
C470 C466 1.531 . S
C470 H482 0.960 . S
C470 H483 0.962 . S
C470 H484 0.960 . S
C471 C468 1.511 . S
C471 H485 0.961 . S
C471 H486 0.961 1_565 S
C471 H487 0.961 1_565 S
C472 C473 1.370 . S
C472 C474 1.363 . S
C472 H488 0.931 . S
C473 C472 1.370 . S
C473 C477 1.408 . S
C474 C472 1.363 . S
C474 C475 1.370 . S
C474 C478 1.524 . S
C475 C467 1.503 1_545 S
C475 C474 1.370 . S
C475 C476 1.403 . S
C476 C475 1.403 . S
C476 C477 1.404 . S
C476 C479 1.539 . S
C477 C473 1.408 . S
C477 C476 1.404 . S
C477 H489 0.930 . S
C478 C474 1.524 . S
C478 H490 0.956 1_545 S
C478 H491 0.961 1_545 S
C478 H492 0.961 . S
C479 C476 1.539 . S
C479 H493 0.958 . S
C479 H494 0.961 . S
C479 H495 0.960 . S
H480 C464 0.931 . S
H481 C469 0.929 . S
H482 C470 0.960 . S
H483 C470 0.962 . S
H484 C470 0.960 . S
H485 C471 0.961 . S
H486 C471 0.961 1_545 S
H487 C471 0.961 1_545 S
H488 C472 0.931 . S
H489 C477 0.930 . S
H490 C478 0.956 1_565 S
H491 C478 0.961 1_565 S
H492 C478 0.961 . S
H493 C479 0.958 . S
H494 C479 0.961 . S
H495 C479 0.960 . S
C496 C497 1.391 . S
C496 C498 1.394 . S
C496 H512 0.931 . S
C497 C496 1.391 . S
C497 C501 1.376 . S
C498 C496 1.394 . S
C498 C499 1.369 . S
C498 C502 1.531 . S
C499 C498 1.369 . S
C499 C500 1.410 . S
C499 C507 1.503 1_655 S
C500 C499 1.410 . S
C500 C501 1.392 . S
C500 C503 1.504 1_655 S
C501 C497 1.376 . S
C501 C500 1.392 . S
C501 H513 0.929 . S
C502 C498 1.531 . S
C502 H514 0.960 . S
C502 H515 0.962 . S
C502 H516 0.960 . S
C503 C500 1.504 1_455 S
C503 H517 0.957 1_455 S
C503 H518 0.970 . S
C503 H519 0.962 . S
C504 C505 1.370 . S
C504 C506 1.363 . S
C504 H520 0.931 . S
C505 C504 1.370 . S
C505 C509 1.408 . S
C506 C504 1.363 . S
C506 C507 1.370 . S
C506 C510 1.524 . S
C507 C499 1.503 1_455 S
C507 C506 1.370 . S
C507 C508 1.403 . S
C508 C507 1.403 . S
C508 C509 1.404 . S
C508 C511 1.539 . S
C509 C505 1.408 . S
C509 C508 1.404 . S
C509 H521 0.930 . S
C510 C506 1.524 . S
C510 H522 0.956 1_455 S
C510 H523 0.961 . S
C510 H524 0.961 . S
C511 C508 1.539 . S
C511 H525 0.958 . S
C511 H526 0.961 . S
C511 H527 0.977 . S
H512 C496 0.931 . S
H513 C501 0.929 . S
H514 C502 0.960 . S
H515 C502 0.962 . S
H516 C502 0.960 . S
H517 C503 0.957 1_655 S
H518 C503 0.970 . S
H519 C503 0.962 . S
H520 C504 0.931 . S
H521 C509 0.930 . S
H522 C510 0.956 1_655 S
H523 C510 0.961 . S
H524 C510 0.961 . S
H525 C511 0.958 . S
H526 C511 0.961 . S
H527 C511 0.977 . S
C528 C529 1.391 . S
C528 C530 1.394 . S
C528 H544 0.931 . S
C529 C528 1.391 . S
C529 C533 1.376 . S
C530 C528 1.394 . S
C530 C531 1.369 . S
C530 C534 1.531 . S
C531 C530 1.369 . S
C531 C532 1.410 . S
C531 C539 1.503 1_545 S
C532 C531 1.410 . S
C532 C533 1.392 . S
C532 C535 1.511 1_545 S
C533 C529 1.376 . S
C533 C532 1.392 . S
C533 H545 0.929 . S
C534 C530 1.531 . S
C534 H546 0.960 . S
C534 H547 0.962 . S
C534 H548 0.960 . S
C535 C532 1.511 1_565 S
C535 H549 0.961 1_565 S
C535 H550 0.961 . S
C535 H551 0.961 . S
C536 C537 1.370 . S
C536 C538 1.363 . S
C536 H552 0.931 . S
C537 C536 1.370 . S
C537 C541 1.408 . S
C538 C536 1.363 . S
C538 C539 1.370 . S
C538 C542 1.524 . S
C539 C531 1.503 1_565 S
C539 C538 1.370 . S
C539 C540 1.403 . S
C540 C539 1.403 . S
C540 C541 1.404 . S
C540 C543 1.539 . S
C541 C537 1.408 . S
C541 C540 1.404 . S
C541 H553 0.930 . S
C542 C538 1.524 . S
C542 H554 0.956 1_565 S
C542 H555 0.961 . S
C542 H556 0.961 . S
C543 C540 1.539 . S
C543 H557 0.958 . S
C543 H558 0.961 . S
C543 H559 0.960 . S
H544 C528 0.931 . S
H545 C533 0.929 . S
H546 C534 0.960 . S
H547 C534 0.962 . S
H548 C534 0.960 . S
H549 C535 0.961 1_545 S
H550 C535 0.961 . S
H551 C535 0.961 . S
H552 C536 0.931 . S
H553 C541 0.930 . S
H554 C542 0.956 1_545 S
H555 C542 0.961 . S
H556 C542 0.961 . S
H557 C543 0.958 . S
H558 C543 0.961 . S
H559 C543 0.960 . S
C560 C561 1.391 . S
C560 C562 1.394 . S
C560 H576 0.931 . S
C561 C560 1.391 . S
C561 C565 1.376 . S
C562 C560 1.394 . S
C562 C563 1.369 . S
C562 C566 1.531 . S
C563 C562 1.369 . S
C563 C564 1.410 . S
C563 C571 1.503 1_655 S
C564 C563 1.410 . S
C564 C565 1.392 . S
C564 C567 1.511 . S
C565 C561 1.376 . S
C565 C564 1.392 . S
C565 H577 0.929 . S
C566 C562 1.531 . S
C566 H578 0.960 1_655 S
C566 H579 0.962 1_655 S
C566 H580 0.960 . S
C567 C564 1.511 . S
C567 H581 0.961 . S
C567 H582 0.961 . S
C567 H583 0.961 . S
C568 C569 1.370 . S
C568 C570 1.363 . S
C568 H584 0.931 . S
C569 C568 1.370 . S
C569 C573 1.408 . S
C570 C568 1.363 . S
C570 C571 1.370 . S
C570 C574 1.524 . S
C571 C563 1.503 1_455 S
C571 C570 1.370 . S
C571 C572 1.403 . S
C572 C571 1.403 . S
C572 C573 1.404 . S
C572 C575 1.539 . S
C573 C569 1.408 . S
C573 C572 1.404 . S
C573 H585 0.930 . S
C574 C570 1.524 . S
C574 H586 0.956 . S
C574 H587 0.968 . S
C574 H588 0.961 . S
C575 C572 1.539 . S
C575 H589 0.958 . S
C575 H590 0.961 . S
C575 H591 0.960 1_455 S
H576 C560 0.931 . S
H577 C565 0.929 . S
H578 C566 0.960 1_455 S
H579 C566 0.962 1_455 S
H580 C566 0.960 . S
H581 C567 0.961 . S
H582 C567 0.961 . S
H583 C567 0.961 . S
H584 C568 0.931 . S
H585 C573 0.930 . S
H586 C574 0.956 . S
H587 C574 0.968 . S
H588 C574 0.961 . S
H589 C575 0.958 . S
H590 C575 0.961 . S
H591 C575 0.960 1_655 S
C592 C593 1.391 . S
C592 C594 1.394 . S
C592 H608 0.931 . S
C593 C592 1.391 . S
C593 C597 1.376 . S
C594 C592 1.394 . S
C594 C595 1.369 . S
C594 C598 1.531 . S
C595 C594 1.369 . S
C595 C596 1.410 . S
C595 C603 1.503 1_545 S
C596 C595 1.410 . S
C596 C597 1.392 . S
C596 C599 1.510 1_545 S
C597 C593 1.376 . S
C597 C596 1.392 . S
C597 H609 0.929 . S
C598 C594 1.531 . S
C598 H610 0.960 . S
C598 H611 0.962 . S
C598 H612 0.960 . S
C599 C596 1.510 1_565 S
C599 H613 0.960 1_565 S
C599 H614 0.962 . S
C599 H615 0.961 . S
C600 C601 1.370 . S
C600 C602 1.363 . S
C600 H616 0.931 . S
C601 C600 1.370 . S
C601 C605 1.408 . S
C602 C600 1.363 . S
C602 C603 1.370 . S
C602 C606 1.524 . S
C603 C595 1.503 1_565 S
C603 C602 1.370 . S
C603 C604 1.403 . S
C604 C603 1.403 . S
C604 C605 1.404 . S
C604 C607 1.539 . S
C605 C601 1.408 . S
C605 C604 1.404 . S
C605 H617 0.930 . S
C606 C602 1.524 . S
C606 H618 0.956 1_565 S
C606 H619 0.961 1_565 S
C606 H620 0.961 . S
C607 C604 1.539 . S
C607 H621 0.958 . S
C607 H622 0.961 . S
C607 H623 0.960 . S
H608 C592 0.931 . S
H609 C597 0.929 . S
H610 C598 0.960 . S
H611 C598 0.962 . S
H612 C598 0.960 . S
H613 C599 0.960 1_545 S
H614 C599 0.962 . S
H615 C599 0.961 . S
H616 C600 0.931 . S
H617 C605 0.930 . S
H618 C606 0.956 1_545 S
H619 C606 0.961 1_545 S
H620 C606 0.961 . S
H621 C607 0.958 . S
H622 C607 0.961 . S
H623 C607 0.960 . S
C624 C625 1.391 . S
C624 C626 1.394 . S
C624 H640 0.931 . S
C625 C624 1.391 . S
C625 C629 1.376 . S
C626 C624 1.394 . S
C626 C627 1.369 . S
C626 C630 1.531 . S
C627 C626 1.369 . S
C627 C628 1.410 . S
C627 C635 1.503 . S
C628 C627 1.410 . S
C628 C629 1.392 . S
C628 C631 1.511 . S
C629 C625 1.376 . S
C629 C628 1.392 . S
C629 H641 0.929 . S
C630 C626 1.531 . S
C630 H642 0.960 . S
C630 H643 0.962 . S
C630 H644 0.960 . S
C631 C628 1.511 . S
C631 H645 0.961 . S
C631 H646 0.961 . S
C631 H647 0.961 . S
C632 C633 1.370 . S
C632 C634 1.363 . S
C632 H648 0.931 . S
C633 C632 1.370 . S
C633 C637 1.408 . S
C634 C632 1.363 . S
C634 C635 1.370 . S
C634 C638 1.524 . S
C635 C627 1.503 . S
C635 C634 1.370 . S
C635 C636 1.403 . S
C636 C635 1.403 . S
C636 C637 1.404 . S
C636 C639 1.539 . S
C637 C633 1.408 . S
C637 C636 1.404 . S
C637 H649 0.930 . S
C638 C634 1.524 . S
C638 H650 0.956 . S
C638 H651 0.961 . S
C638 H652 0.961 . S
C639 C636 1.539 . S
C639 H653 0.958 . S
C639 H654 0.961 . S
C639 H655 0.960 . S
H640 C624 0.931 . S
H641 C629 0.929 . S
H642 C630 0.960 . S
H643 C630 0.962 . S
H644 C630 0.960 . S
H645 C631 0.961 . S
H646 C631 0.961 . S
H647 C631 0.961 . S
H648 C632 0.931 . S
H649 C637 0.930 . S
H650 C638 0.956 . S
H651 C638 0.961 . S
H652 C638 0.961 . S
H653 C639 0.958 . S
H654 C639 0.961 . S
H655 C639 0.960 . S
C656 C657 1.391 . S
C656 C658 1.394 . S
C656 H672 0.931 . S
C657 C656 1.391 . S
C657 C661 1.376 . S
C658 C656 1.394 . S
C658 C659 1.369 . S
C658 C662 1.531 . S
C659 C658 1.369 . S
C659 C660 1.410 . S
C659 C667 1.503 . S
C660 C659 1.410 . S
C660 C661 1.392 . S
C660 C663 1.511 . S
C661 C657 1.376 . S
C661 C660 1.392 . S
C661 H673 0.929 . S
C662 C658 1.531 . S
C662 H674 0.960 . S
C662 H675 0.962 . S
C662 H676 0.960 . S
C663 C660 1.511 . S
C663 H677 0.961 . S
C663 H678 0.961 . S
C663 H679 0.961 . S
C664 C665 1.370 . S
C664 C666 1.363 . S
C664 H680 0.931 . S
C665 C664 1.370 . S
C665 C669 1.408 . S
C666 C664 1.363 . S
C666 C667 1.370 . S
C666 C670 1.524 . S
C667 C659 1.503 . S
C667 C666 1.370 . S
C667 C668 1.403 . S
C668 C667 1.403 . S
C668 C669 1.404 . S
C668 C671 1.539 . S
C669 C665 1.408 . S
C669 C668 1.404 . S
C669 H681 0.930 . S
C670 C666 1.524 . S
C670 H682 0.956 . S
C670 H683 0.961 . S
C670 H684 0.961 . S
C671 C668 1.539 . S
C671 H685 0.958 . S
C671 H686 0.961 . S
C671 H687 0.960 . S
H672 C656 0.931 . S
H673 C661 0.929 . S
H674 C662 0.960 . S
H675 C662 0.962 . S
H676 C662 0.960 . S
H677 C663 0.961 . S
H678 C663 0.961 . S
H679 C663 0.961 . S
H680 C664 0.931 . S
H681 C669 0.930 . S
H682 C670 0.956 . S
H683 C670 0.961 . S
H684 C670 0.961 . S
H685 C671 0.958 . S
H686 C671 0.961 . S
H687 C671 0.960 . S
C688 C689 1.391 . S
C688 C690 1.394 . S
C688 H704 0.931 . S
C689 C688 1.391 . S
C689 C693 1.376 . S
C690 C688 1.394 . S
C690 C691 1.369 . S
C690 C694 1.531 . S
C691 C690 1.369 . S
C691 C692 1.410 . S
C691 C699 1.503 . S
C692 C691 1.410 . S
C692 C693 1.392 . S
C692 C695 1.511 . S
C693 C689 1.376 . S
C693 C692 1.392 . S
C693 H705 0.929 . S
C694 C690 1.531 . S
C694 H706 0.960 . S
C694 H707 0.962 . S
C694 H708 0.960 . S
C695 C692 1.511 . S
C695 H709 0.961 . S
C695 H710 0.961 . S
C695 H711 0.961 . S
C696 C697 1.370 . S
C696 C698 1.363 . S
C696 H712 0.931 . S
C697 C696 1.370 . S
C697 C701 1.408 . S
C698 C696 1.363 . S
C698 C699 1.370 . S
C698 C702 1.524 . S
C699 C691 1.503 . S
C699 C698 1.370 . S
C699 C700 1.403 . S
C700 C699 1.403 . S
C700 C701 1.404 . S
C700 C703 1.539 . S
C701 C697 1.408 . S
C701 C700 1.404 . S
C701 H713 0.930 . S
C702 C698 1.524 . S
C702 H714 0.956 . S
C702 H715 0.961 . S
C702 H716 0.961 . S
C703 C700 1.539 . S
C703 H717 0.958 . S
C703 H718 0.961 . S
C703 H719 0.960 . S
H704 C688 0.931 . S
H705 C693 0.929 . S
H706 C694 0.960 . S
H707 C694 0.962 . S
H708 C694 0.960 . S
H709 C695 0.961 . S
H710 C695 0.961 . S
H711 C695 0.961 . S
H712 C696 0.931 . S
H713 C701 0.930 . S
H714 C702 0.956 . S
H715 C702 0.961 . S
H716 C702 0.961 . S
H717 C703 0.958 . S
H718 C703 0.961 . S
H719 C703 0.960 . S
C720 C721 1.391 . S
C720 C722 1.394 . S
C720 H736 0.931 . S
C721 C720 1.391 . S
C721 C725 1.376 . S
C722 C720 1.394 . S
C722 C723 1.369 . S
C722 C726 1.531 . S
C723 C722 1.369 . S
C723 C724 1.410 . S
C723 C731 1.503 . S
C724 C723 1.410 . S
C724 C725 1.392 . S
C724 C727 1.511 . S
C725 C721 1.376 . S
C725 C724 1.392 . S
C725 H737 0.929 . S
C726 C722 1.531 . S
C726 H738 0.960 . S
C726 H739 0.962 . S
C726 H740 0.960 . S
C727 C724 1.511 . S
C727 H741 0.961 . S
C727 H742 0.961 . S
C727 H743 0.961 . S
C728 C729 1.370 . S
C728 C730 1.363 . S
C728 H744 0.931 . S
C729 C728 1.370 . S
C729 C733 1.408 . S
C730 C728 1.363 . S
C730 C731 1.370 . S
C730 C734 1.524 . S
C731 C723 1.503 . S
C731 C730 1.370 . S
C731 C732 1.403 . S
C732 C731 1.403 . S
C732 C733 1.404 . S
C732 C735 1.539 . S
C733 C729 1.408 . S
C733 C732 1.404 . S
C733 H745 0.930 . S
C734 C730 1.524 . S
C734 H746 0.956 . S
C734 H747 0.961 . S
C734 H748 0.961 . S
C735 C732 1.539 . S
C735 H749 0.958 . S
C735 H750 0.961 . S
C735 H751 0.960 . S
H736 C720 0.931 . S
H737 C725 0.929 . S
H738 C726 0.960 . S
H739 C726 0.962 . S
H740 C726 0.960 . S
H741 C727 0.961 . S
H742 C727 0.961 . S
H743 C727 0.961 . S
H744 C728 0.931 . S
H745 C733 0.930 . S
H746 C734 0.956 . S
H747 C734 0.961 . S
H748 C734 0.961 . S
H749 C735 0.958 . S
H750 C735 0.961 . S
H751 C735 0.960 . S
C752 C753 1.391 . S
C752 C754 1.394 . S
C752 H768 0.931 . S
C753 C752 1.391 . S
C753 C757 1.376 . S
C754 C752 1.394 . S
C754 C755 1.369 . S
C754 C758 1.531 . S
C755 C754 1.369 . S
C755 C756 1.410 . S
C755 C763 1.503 . S
C756 C755 1.410 . S
C756 C757 1.392 . S
C756 C759 1.511 . S
C757 C753 1.376 . S
C757 C756 1.392 . S
C757 H769 0.929 . S
C758 C754 1.531 . S
C758 H770 0.960 . S
C758 H771 0.962 . S
C758 H772 0.960 . S
C759 C756 1.511 . S
C759 H773 0.961 . S
C759 H774 0.961 . S
C759 H775 0.961 . S
C760 C761 1.370 . S
C760 C762 1.363 . S
C760 H776 0.931 . S
C761 C760 1.370 . S
C761 C765 1.408 . S
C762 C760 1.363 . S
C762 C763 1.370 . S
C762 C766 1.524 . S
C763 C755 1.503 . S
C763 C762 1.370 . S
C763 C764 1.403 . S
C764 C763 1.403 . S
C764 C765 1.404 . S
C764 C767 1.539 . S
C765 C761 1.408 . S
C765 C764 1.404 . S
C765 H777 0.930 . S
C766 C762 1.524 . S
C766 H778 0.956 . S
C766 H779 0.961 . S
C766 H780 0.961 . S
C767 C764 1.539 . S
C767 H781 0.958 . S
C767 H782 0.961 . S
C767 H783 0.960 . S
H768 C752 0.931 . S
H769 C757 0.929 . S
H770 C758 0.960 . S
H771 C758 0.962 . S
H772 C758 0.960 . S
H773 C759 0.961 . S
H774 C759 0.961 . S
H775 C759 0.961 . S
H776 C760 0.931 . S
H777 C765 0.930 . S
H778 C766 0.956 . S
H779 C766 0.961 . S
H780 C766 0.961 . S
H781 C767 0.958 . S
H782 C767 0.961 . S
H783 C767 0.960 . S
C784 C785 1.391 . S
C784 C786 1.394 . S
C784 H800 0.931 . S
C785 C784 1.391 . S
C785 C789 1.376 . S
C786 C784 1.394 . S
C786 C787 1.369 . S
C786 C790 1.531 . S
C787 C786 1.369 . S
C787 C788 1.410 . S
C787 C795 1.503 . S
C788 C787 1.410 . S
C788 C789 1.392 . S
C788 C791 1.511 . S
C789 C785 1.376 . S
C789 C788 1.392 . S
C789 H801 0.929 . S
C790 C786 1.531 . S
C790 H802 0.960 . S
C790 H803 0.962 . S
C790 H804 0.960 . S
C791 C788 1.511 . S
C791 H805 0.961 . S
C791 H806 0.961 . S
C791 H807 0.961 . S
C792 C793 1.370 . S
C792 C794 1.363 . S
C792 H808 0.931 . S
C793 C792 1.370 . S
C793 C797 1.408 . S
C794 C792 1.363 . S
C794 C795 1.370 . S
C794 C798 1.524 . S
C795 C787 1.503 . S
C795 C794 1.370 . S
C795 C796 1.403 . S
C796 C795 1.403 . S
C796 C797 1.404 . S
C796 C799 1.539 . S
C797 C793 1.408 . S
C797 C796 1.404 . S
C797 H809 0.930 . S
C798 C794 1.524 . S
C798 H810 0.956 . S
C798 H811 0.961 . S
C798 H812 0.961 . S
C799 C796 1.539 . S
C799 H813 0.958 . S
C799 H814 0.961 . S
C799 H815 0.960 . S
H800 C784 0.931 . S
H801 C789 0.929 . S
H802 C790 0.960 . S
H803 C790 0.962 . S
H804 C790 0.960 . S
H805 C791 0.961 . S
H806 C791 0.961 . S
H807 C791 0.961 . S
H808 C792 0.931 . S
H809 C797 0.930 . S
H810 C798 0.956 . S
H811 C798 0.961 . S
H812 C798 0.961 . S
H813 C799 0.958 . S
H814 C799 0.961 . S
H815 C799 0.960 . S
C816 C817 1.391 . S
C816 C818 1.394 . S
C816 H832 0.931 . S
C817 C816 1.391 . S
C817 C821 1.376 . S
C818 C816 1.394 . S
C818 C819 1.369 . S
C818 C822 1.531 . S
C819 C818 1.369 . S
C819 C820 1.410 . S
C819 C827 1.503 . S
C820 C819 1.410 . S
C820 C821 1.392 . S
C820 C823 1.511 . S
C821 C817 1.376 . S
C821 C820 1.392 . S
C821 H833 0.929 . S
C822 C818 1.531 . S
C822 H834 0.960 . S
C822 H835 0.962 . S
C822 H836 0.960 . S
C823 C820 1.511 . S
C823 H837 0.961 . S
C823 H838 0.961 . S
C823 H839 0.961 . S
C824 C825 1.370 . S
C824 C826 1.363 . S
C824 H840 0.931 . S
C825 C824 1.370 . S
C825 C829 1.408 . S
C826 C824 1.363 . S
C826 C827 1.370 . S
C826 C830 1.524 . S
C827 C819 1.503 . S
C827 C826 1.370 . S
C827 C828 1.403 . S
C828 C827 1.403 . S
C828 C829 1.404 . S
C828 C831 1.539 . S
C829 C825 1.408 . S
C829 C828 1.404 . S
C829 H841 0.930 . S
C830 C826 1.524 . S
C830 H842 0.956 . S
C830 H843 0.961 . S
C830 H844 0.961 . S
C831 C828 1.539 . S
C831 H845 0.958 . S
C831 H846 0.961 . S
C831 H847 0.960 . S
H832 C816 0.931 . S
H833 C821 0.929 . S
H834 C822 0.960 . S
H835 C822 0.962 . S
H836 C822 0.960 . S
H837 C823 0.961 . S
H838 C823 0.961 . S
H839 C823 0.961 . S
H840 C824 0.931 . S
H841 C829 0.930 . S
H842 C830 0.956 . S
H843 C830 0.961 . S
H844 C830 0.961 . S
H845 C831 0.958 . S
H846 C831 0.961 . S
H847 C831 0.960 . S
C848 C849 1.391 . S
C848 C850 1.394 . S
C848 H864 0.931 . S
C849 C848 1.391 . S
C849 C853 1.376 . S
C850 C848 1.394 . S
C850 C851 1.369 . S
C850 C854 1.531 . S
C851 C850 1.369 . S
C851 C852 1.410 . S
C851 C859 1.503 . S
C852 C851 1.410 . S
C852 C853 1.392 . S
C852 C855 1.511 . S
C853 C849 1.376 . S
C853 C852 1.392 . S
C853 H865 0.929 . S
C854 C850 1.531 . S
C854 H866 0.960 . S
C854 H867 0.962 . S
C854 H868 0.960 . S
C855 C852 1.511 . S
C855 H869 0.961 . S
C855 H870 0.961 . S
C855 H871 0.961 . S
C856 C857 1.370 . S
C856 C858 1.363 . S
C856 H872 0.931 . S
C857 C856 1.370 . S
C857 C861 1.408 . S
C858 C856 1.363 . S
C858 C859 1.370 . S
C858 C862 1.524 . S
C859 C851 1.503 . S
C859 C858 1.370 . S
C859 C860 1.403 . S
C860 C859 1.403 . S
C860 C861 1.404 . S
C860 C863 1.539 . S
C861 C857 1.408 . S
C861 C860 1.404 . S
C861 H873 0.930 . S
C862 C858 1.524 . S
C862 H874 0.956 . S
C862 H875 0.961 . S
C862 H876 0.961 . S
C863 C860 1.539 . S
C863 H877 0.958 . S
C863 H878 0.961 . S
C863 H879 0.960 . S
H864 C848 0.931 . S
H865 C853 0.929 . S
H866 C854 0.960 . S
H867 C854 0.962 . S
H868 C854 0.960 . S
H869 C855 0.961 . S
H870 C855 0.961 . S
H871 C855 0.961 . S
H872 C856 0.931 . S
H873 C861 0.930 . S
H874 C862 0.956 . S
H875 C862 0.961 . S
H876 C862 0.961 . S
H877 C863 0.958 . S
H878 C863 0.961 . S
H879 C863 0.960 . S
C880 C881 1.391 . S
C880 C882 1.394 . S
C880 H896 0.931 . S
C881 C880 1.391 . S
C881 C885 1.376 . S
C882 C880 1.394 . S
C882 C883 1.369 . S
C882 C886 1.531 . S
C883 C882 1.369 . S
C883 C884 1.410 . S
C883 C891 1.503 1_556 S
C884 C883 1.410 . S
C884 C885 1.392 . S
C884 C887 1.511 . S
C885 C881 1.376 . S
C885 C884 1.392 . S
C885 H897 0.929 . S
C886 C882 1.531 . S
C886 H898 0.960 1_556 S
C886 H899 0.962 . S
C886 H900 0.960 . S
C887 C884 1.511 . S
C887 H901 0.961 . S
C887 H902 0.961 1_556 S
C887 H903 0.961 . S
C888 C889 1.370 . S
C888 C890 1.363 . S
C888 H904 0.931 . S
C889 C888 1.370 . S
C889 C893 1.408 . S
C890 C888 1.363 . S
C890 C891 1.370 . S
C890 C894 1.524 . S
C891 C883 1.503 1_554 S
C891 C890 1.370 . S
C891 C892 1.403 . S
C892 C891 1.403 . S
C892 C893 1.404 . S
C892 C895 1.539 . S
C893 C889 1.408 . S
C893 C892 1.404 . S
C893 H905 0.930 . S
C894 C890 1.524 . S
C894 H906 0.956 . S
C894 H907 0.961 1_554 S
C894 H908 0.961 . S
C895 C892 1.539 . S
C895 H909 0.958 . S
C895 H910 0.961 . S
C895 H911 0.970 . S
H896 C880 0.931 . S
H897 C885 0.929 . S
H898 C886 0.960 1_554 S
H899 C886 0.962 . S
H900 C886 0.960 . S
H901 C887 0.961 . S
H902 C887 0.961 1_554 S
H903 C887 0.961 . S
H904 C888 0.931 . S
H905 C893 0.930 . S
H906 C894 0.956 . S
H907 C894 0.961 1_556 S
H908 C894 0.961 . S
H909 C895 0.958 . S
H910 C895 0.961 . S
H911 C895 0.970 . S
C912 C913 1.391 . S
C912 C914 1.394 . S
C912 H928 0.931 . S
C913 C912 1.391 . S
C913 C917 1.376 . S
C914 C912 1.394 . S
C914 C915 1.369 . S
C914 C918 1.531 . S
C915 C914 1.369 . S
C915 C916 1.410 . S
C915 C923 1.503 . S
C916 C915 1.410 . S
C916 C917 1.392 . S
C916 C919 1.511 . S
C917 C913 1.376 . S
C917 C916 1.392 . S
C917 H929 0.929 . S
C918 C914 1.531 . S
C918 H930 0.960 . S
C918 H931 0.962 . S
C918 H932 0.960 . S
C919 C916 1.511 . S
C919 H933 0.961 . S
C919 H934 0.961 . S
C919 H935 0.961 . S
C920 C921 1.370 . S
C920 C922 1.363 . S
C920 H936 0.931 . S
C921 C920 1.370 . S
C921 C925 1.408 . S
C922 C920 1.363 . S
C922 C923 1.370 . S
C922 C926 1.524 . S
C923 C915 1.503 . S
C923 C922 1.370 . S
C923 C924 1.403 . S
C924 C923 1.403 . S
C924 C925 1.404 . S
C924 C927 1.539 . S
C925 C921 1.408 . S
C925 C924 1.404 . S
C925 H937 0.930 . S
C926 C922 1.524 . S
C926 H938 0.956 . S
C926 H939 0.961 . S
C926 H940 0.961 . S
C927 C924 1.539 . S
C927 H941 0.958 . S
C927 H942 0.961 . S
C927 H943 0.960 . S
H928 C912 0.931 . S
H929 C917 0.929 . S
H930 C918 0.960 . S
H931 C918 0.962 . S
H932 C918 0.960 . S
H933 C919 0.961 . S
H934 C919 0.961 . S
H935 C919 0.961 . S
H936 C920 0.931 . S
H937 C925 0.930 . S
H938 C926 0.956 . S
H939 C926 0.961 . S
H940 C926 0.961 . S
H941 C927 0.958 . S
H942 C927 0.961 . S
H943 C927 0.960 . S
C944 C945 1.391 . S
C944 C946 1.394 . S
C944 H960 0.931 . S
C945 C944 1.391 . S
C945 C949 1.376 . S
C946 C944 1.394 . S
C946 C947 1.369 . S
C946 C950 1.531 . S
C947 C946 1.369 . S
C947 C948 1.410 . S
C947 C955 1.503 1_554 S
C948 C947 1.410 . S
C948 C949 1.392 . S
C948 C951 1.511 . S
C949 C945 1.376 . S
C949 C948 1.392 . S
C949 H961 0.929 . S
C950 C946 1.531 . S
C950 H962 0.960 1_554 S
C950 H963 0.962 . S
C950 H964 0.960 . S
C951 C948 1.511 . S
C951 H965 0.961 . S
C951 H966 0.961 1_554 S
C951 H967 0.961 . S
C952 C953 1.370 . S
C952 C954 1.363 . S
C952 H968 0.931 . S
C953 C952 1.370 . S
C953 C957 1.408 . S
C954 C952 1.363 . S
C954 C955 1.370 . S
C954 C958 1.524 . S
C955 C947 1.503 1_556 S
C955 C954 1.370 . S
C955 C956 1.403 . S
C956 C955 1.403 . S
C956 C957 1.404 . S
C956 C959 1.539 . S
C957 C953 1.408 . S
C957 C956 1.404 . S
C957 H969 0.930 . S
C958 C954 1.524 . S
C958 H970 0.956 . S
C958 H971 0.961 1_556 S
C958 H972 0.961 . S
C959 C956 1.539 . S
C959 H973 0.958 . S
C959 H974 0.961 . S
C959 H975 0.970 . S
H960 C944 0.931 . S
H961 C949 0.929 . S
H962 C950 0.960 1_556 S
H963 C950 0.962 . S
H964 C950 0.960 . S
H965 C951 0.961 . S
H966 C951 0.961 1_556 S
H967 C951 0.961 . S
H968 C952 0.931 . S
H969 C957 0.930 . S
H970 C958 0.956 . S
H971 C958 0.961 1_554 S
H972 C958 0.961 . S
H973 C959 0.958 . S
H974 C959 0.961 . S
H975 C959 0.970 . S
C976 C977 1.391 . S
C976 C978 1.394 . S
C976 H992 0.931 . S
C977 C976 1.391 . S
C977 C981 1.376 . S
C978 C976 1.394 . S
C978 C979 1.369 . S
C978 C982 1.531 . S
C979 C978 1.369 . S
C979 C980 1.410 . S
C979 C987 1.503 . S
C980 C979 1.410 . S
C980 C981 1.392 . S
C980 C983 1.511 . S
C981 C977 1.376 . S
C981 C980 1.392 . S
C981 H993 0.929 . S
C982 C978 1.531 . S
C982 H994 0.960 . S
C982 H995 0.962 . S
C982 H996 0.960 . S
C983 C980 1.511 . S
C983 H997 0.961 . S
C983 H998 0.961 . S
C983 H999 0.961 . S
C984 C985 1.370 . S
C984 C986 1.363 . S
C984 H1000 0.931 . S
C985 C984 1.370 . S
C985 C989 1.408 . S
C986 C984 1.363 . S
C986 C987 1.370 . S
C986 C990 1.524 . S
C987 C979 1.503 . S
C987 C986 1.370 . S
C987 C988 1.403 . S
C988 C987 1.403 . S
C988 C989 1.404 . S
C988 C991 1.539 . S
C989 C985 1.408 . S
C989 C988 1.404 . S
C989 H1001 0.930 . S
C990 C986 1.524 . S
C990 H1002 0.956 . S
C990 H1003 0.961 . S
C990 H1004 0.961 . S
C991 C988 1.539 . S
C991 H1005 0.958 . S
C991 H1006 0.961 . S
C991 H1007 0.960 . S
H992 C976 0.931 . S
H993 C981 0.929 . S
H994 C982 0.960 . S
H995 C982 0.962 . S
H996 C982 0.960 . S
H997 C983 0.961 . S
H998 C983 0.961 . S
H999 C983 0.961 . S
H1000 C984 0.931 . S
H1001 C989 0.930 . S
H1002 C990 0.956 . S
H1003 C990 0.961 . S
H1004 C990 0.961 . S
H1005 C991 0.958 . S
H1006 C991 0.961 . S
H1007 C991 0.960 . S
C1008 C1009 1.391 . S
C1008 C1010 1.394 . S
C1008 H1024 0.931 . S
C1009 C1008 1.391 . S
C1009 C1013 1.376 . S
C1010 C1008 1.394 . S
C1010 C1011 1.369 . S
C1010 C1014 1.531 . S
C1011 C1010 1.369 . S
C1011 C1012 1.410 . S
C1011 C1019 1.503 . S
C1012 C1011 1.410 . S
C1012 C1013 1.392 . S
C1012 C1015 1.511 . S
C1013 C1009 1.376 . S
C1013 C1012 1.392 . S
C1013 H1025 0.929 . S
C1014 C1010 1.531 . S
C1014 H1026 0.960 . S
C1014 H1027 0.962 . S
C1014 H1028 0.960 . S
C1015 C1012 1.511 . S
C1015 H1029 0.961 . S
C1015 H1030 0.961 . S
C1015 H1031 0.961 . S
C1016 C1017 1.370 . S
C1016 C1018 1.363 . S
C1016 H1032 0.931 . S
C1017 C1016 1.370 . S
C1017 C1021 1.408 . S
C1018 C1016 1.363 . S
C1018 C1019 1.370 . S
C1018 C1022 1.524 . S
C1019 C1011 1.503 . S
C1019 C1018 1.370 . S
C1019 C1020 1.403 . S
C1020 C1019 1.403 . S
C1020 C1021 1.404 . S
C1020 C1023 1.539 . S
C1021 C1017 1.408 . S
C1021 C1020 1.404 . S
C1021 H1033 0.930 . S
C1022 C1018 1.524 . S
C1022 H1034 0.956 . S
C1022 H1035 0.961 . S
C1022 H1036 0.961 . S
C1023 C1020 1.539 . S
C1023 H1037 0.958 . S
C1023 H1038 0.961 . S
C1023 H1039 0.960 . S
H1024 C1008 0.931 . S
H1025 C1013 0.929 . S
H1026 C1014 0.960 . S
H1027 C1014 0.962 . S
H1028 C1014 0.960 . S
H1029 C1015 0.961 . S
H1030 C1015 0.961 . S
H1031 C1015 0.961 . S
H1032 C1016 0.931 . S
H1033 C1021 0.930 . S
H1034 C1022 0.956 . S
H1035 C1022 0.961 . S
H1036 C1022 0.961 . S
H1037 C1023 0.958 . S
H1038 C1023 0.961 . S
H1039 C1023 0.960 . S
C1040 C1041 1.391 . S
C1040 C1042 1.394 . S
C1040 H1056 0.931 . S
C1041 C1040 1.391 . S
C1041 C1045 1.376 . S
C1042 C1040 1.394 . S
C1042 C1043 1.369 . S
C1042 C1046 1.531 . S
C1043 C1042 1.369 . S
C1043 C1044 1.410 . S
C1043 C1051 1.503 1_556 S
C1044 C1043 1.410 . S
C1044 C1045 1.392 . S
C1044 C1047 1.511 . S
C1045 C1041 1.376 . S
C1045 C1044 1.392 . S
C1045 H1057 0.929 . S
C1046 C1042 1.531 . S
C1046 H1058 0.960 1_556 S
C1046 H1059 0.962 . S
C1046 H1060 0.960 . S
C1047 C1044 1.511 . S
C1047 H1061 0.961 . S
C1047 H1062 0.961 1_556 S
C1047 H1063 0.961 . S
C1048 C1049 1.370 . S
C1048 C1050 1.363 . S
C1048 H1064 0.931 . S
C1049 C1048 1.370 . S
C1049 C1053 1.408 . S
C1050 C1048 1.363 . S
C1050 C1051 1.370 . S
C1050 C1054 1.524 . S
C1051 C1043 1.503 1_554 S
C1051 C1050 1.370 . S
C1051 C1052 1.403 . S
C1052 C1051 1.403 . S
C1052 C1053 1.404 . S
C1052 C1055 1.539 . S
C1053 C1049 1.408 . S
C1053 C1052 1.404 . S
C1053 H1065 0.930 . S
C1054 C1050 1.524 . S
C1054 H1066 0.956 . S
C1054 H1067 0.961 1_554 S
C1054 H1068 0.961 . S
C1055 C1052 1.539 . S
C1055 H1069 0.958 . S
C1055 H1070 0.961 . S
C1055 H1071 0.970 . S
H1056 C1040 0.931 . S
H1057 C1045 0.929 . S
H1058 C1046 0.960 1_554 S
H1059 C1046 0.962 . S
H1060 C1046 0.960 . S
H1061 C1047 0.961 . S
H1062 C1047 0.961 1_554 S
H1063 C1047 0.961 . S
H1064 C1048 0.931 . S
H1065 C1053 0.930 . S
H1066 C1054 0.956 . S
H1067 C1054 0.961 1_556 S
H1068 C1054 0.961 . S
H1069 C1055 0.958 . S
H1070 C1055 0.961 . S
H1071 C1055 0.970 . S
C1072 C1073 1.391 . S
C1072 C1074 1.394 . S
C1072 H1088 0.931 . S
C1073 C1072 1.391 . S
C1073 C1077 1.376 . S
C1074 C1072 1.394 . S
C1074 C1075 1.369 . S
C1074 C1078 1.531 . S
C1075 C1074 1.369 . S
C1075 C1076 1.410 . S
C1075 C1083 1.503 . S
C1076 C1075 1.410 . S
C1076 C1077 1.392 . S
C1076 C1079 1.511 . S
C1077 C1073 1.376 . S
C1077 C1076 1.392 . S
C1077 H1089 0.929 . S
C1078 C1074 1.531 . S
C1078 H1090 0.960 . S
C1078 H1091 0.962 . S
C1078 H1092 0.960 . S
C1079 C1076 1.511 . S
C1079 H1093 0.961 . S
C1079 H1094 0.961 . S
C1079 H1095 0.961 . S
C1080 C1081 1.370 . S
C1080 C1082 1.363 . S
C1080 H1096 0.931 . S
C1081 C1080 1.370 . S
C1081 C1085 1.408 . S
C1082 C1080 1.363 . S
C1082 C1083 1.370 . S
C1082 C1086 1.524 . S
C1083 C1075 1.503 . S
C1083 C1082 1.370 . S
C1083 C1084 1.403 . S
C1084 C1083 1.403 . S
C1084 C1085 1.404 . S
C1084 C1087 1.539 . S
C1085 C1081 1.408 . S
C1085 C1084 1.404 . S
C1085 H1097 0.930 . S
C1086 C1082 1.524 . S
C1086 H1098 0.956 . S
C1086 H1099 0.961 . S
C1086 H1100 0.961 . S
C1087 C1084 1.539 . S
C1087 H1101 0.958 . S
C1087 H1102 0.961 . S
C1087 H1103 0.960 . S
H1088 C1072 0.931 . S
H1089 C1077 0.929 . S
H1090 C1078 0.960 . S
H1091 C1078 0.962 . S
H1092 C1078 0.960 . S
H1093 C1079 0.961 . S
H1094 C1079 0.961 . S
H1095 C1079 0.961 . S
H1096 C1080 0.931 . S
H1097 C1085 0.930 . S
H1098 C1086 0.956 . S
H1099 C1086 0.961 . S
H1100 C1086 0.961 . S
H1101 C1087 0.958 . S
H1102 C1087 0.961 . S
H1103 C1087 0.960 . S
C1104 C1105 1.391 . S
C1104 C1106 1.394 . S
C1104 H1120 0.931 . S
C1105 C1104 1.391 . S
C1105 C1109 1.376 . S
C1106 C1104 1.394 . S
C1106 C1107 1.369 . S
C1106 C1110 1.531 . S
C1107 C1106 1.369 . S
C1107 C1108 1.410 . S
C1107 C1115 1.503 1_554 S
C1108 C1107 1.410 . S
C1108 C1109 1.392 . S
C1108 C1111 1.511 . S
C1109 C1105 1.376 . S
C1109 C1108 1.392 . S
C1109 H1121 0.929 . S
C1110 C1106 1.531 . S
C1110 H1122 0.960 1_554 S
C1110 H1123 0.962 . S
C1110 H1124 0.960 . S
C1111 C1108 1.511 . S
C1111 H1125 0.961 . S
C1111 H1126 0.961 1_554 S
C1111 H1127 0.961 . S
C1112 C1113 1.370 . S
C1112 C1114 1.363 . S
C1112 H1128 0.931 . S
C1113 C1112 1.370 . S
C1113 C1117 1.408 . S
C1114 C1112 1.363 . S
C1114 C1115 1.370 . S
C1114 C1118 1.524 . S
C1115 C1107 1.503 1_556 S
C1115 C1114 1.370 . S
C1115 C1116 1.403 . S
C1116 C1115 1.403 . S
C1116 C1117 1.404 . S
C1116 C1119 1.539 . S
C1117 C1113 1.408 . S
C1117 C1116 1.404 . S
C1117 H1129 0.930 . S
C1118 C1114 1.524 . S
C1118 H1130 0.956 . S
C1118 H1131 0.961 1_556 S
C1118 H1132 0.961 . S
C1119 C1116 1.539 . S
C1119 H1133 0.958 . S
C1119 H1134 0.961 . S
C1119 H1135 0.970 . S
H1120 C1104 0.931 . S
H1121 C1109 0.929 . S
H1122 C1110 0.960 1_556 S
H1123 C1110 0.962 . S
H1124 C1110 0.960 . S
H1125 C1111 0.961 . S
H1126 C1111 0.961 1_556 S
H1127 C1111 0.961 . S
H1128 C1112 0.931 . S
H1129 C1117 0.930 . S
H1130 C1118 0.956 . S
H1131 C1118 0.961 1_554 S
H1132 C1118 0.961 . S
H1133 C1119 0.958 . S
H1134 C1119 0.961 . S
H1135 C1119 0.970 . S
C1136 C1137 1.391 . S
C1136 C1138 1.394 . S
C1136 H1152 0.931 . S
C1137 C1136 1.391 . S
C1137 C1141 1.376 . S
C1138 C1136 1.394 . S
C1138 C1139 1.369 . S
C1138 C1142 1.531 . S
C1139 C1138 1.369 . S
C1139 C1140 1.410 . S
C1139 C1147 1.503 . S
C1140 C1139 1.410 . S
C1140 C1141 1.392 . S
C1140 C1143 1.511 . S
C1141 C1137 1.376 . S
C1141 C1140 1.392 . S
C1141 H1153 0.929 . S
C1142 C1138 1.531 . S
C1142 H1154 0.960 . S
C1142 H1155 0.962 . S
C1142 H1156 0.960 . S
C1143 C1140 1.511 . S
C1143 H1157 0.961 . S
C1143 H1158 0.961 . S
C1143 H1159 0.961 . S
C1144 C1145 1.370 . S
C1144 C1146 1.363 . S
C1144 H1160 0.931 . S
C1145 C1144 1.370 . S
C1145 C1149 1.408 . S
C1146 C1144 1.363 . S
C1146 C1147 1.370 . S
C1146 C1150 1.524 . S
C1147 C1139 1.503 . S
C1147 C1146 1.370 . S
C1147 C1148 1.403 . S
C1148 C1147 1.403 . S
C1148 C1149 1.404 . S
C1148 C1151 1.539 . S
C1149 C1145 1.408 . S
C1149 C1148 1.404 . S
C1149 H1161 0.930 . S
C1150 C1146 1.524 . S
C1150 H1162 0.956 . S
C1150 H1163 0.961 . S
C1150 H1164 0.961 . S
C1151 C1148 1.539 . S
C1151 H1165 0.958 . S
C1151 H1166 0.961 . S
C1151 H1167 0.960 . S
H1152 C1136 0.931 . S
H1153 C1141 0.929 . S
H1154 C1142 0.960 . S
H1155 C1142 0.962 . S
H1156 C1142 0.960 . S
H1157 C1143 0.961 . S
H1158 C1143 0.961 . S
H1159 C1143 0.961 . S
H1160 C1144 0.931 . S
H1161 C1149 0.930 . S
H1162 C1150 0.956 . S
H1163 C1150 0.961 . S
H1164 C1150 0.961 . S
H1165 C1151 0.958 . S
H1166 C1151 0.961 . S
H1167 C1151 0.960 . S
C1168 C1169 1.391 . S
C1168 C1170 1.394 . S
C1168 H1184 0.931 . S
C1169 C1168 1.391 . S
C1169 C1173 1.376 . S
C1170 C1168 1.394 . S
C1170 C1171 1.369 . S
C1170 C1174 1.531 . S
C1171 C1170 1.369 . S
C1171 C1172 1.410 . S
C1171 C1179 1.503 . S
C1172 C1171 1.410 . S
C1172 C1173 1.392 . S
C1172 C1175 1.511 . S
C1173 C1169 1.376 . S
C1173 C1172 1.392 . S
C1173 H1185 0.929 . S
C1174 C1170 1.531 . S
C1174 H1186 0.960 . S
C1174 H1187 0.962 . S
C1174 H1188 0.960 . S
C1175 C1172 1.511 . S
C1175 H1189 0.961 . S
C1175 H1190 0.961 . S
C1175 H1191 0.961 . S
C1176 C1177 1.370 . S
C1176 C1178 1.363 . S
C1176 H1192 0.931 . S
C1177 C1176 1.370 . S
C1177 C1181 1.408 . S
C1178 C1176 1.363 . S
C1178 C1179 1.370 . S
C1178 C1182 1.524 . S
C1179 C1171 1.503 . S
C1179 C1178 1.370 . S
C1179 C1180 1.403 . S
C1180 C1179 1.403 . S
C1180 C1181 1.404 . S
C1180 C1183 1.539 . S
C1181 C1177 1.408 . S
C1181 C1180 1.404 . S
C1181 H1193 0.930 . S
C1182 C1178 1.524 . S
C1182 H1194 0.956 . S
C1182 H1195 0.961 . S
C1182 H1196 0.961 . S
C1183 C1180 1.539 . S
C1183 H1197 0.958 . S
C1183 H1198 0.961 . S
C1183 H1199 0.960 . S
H1184 C1168 0.931 . S
H1185 C1173 0.929 . S
H1186 C1174 0.960 . S
H1187 C1174 0.962 . S
H1188 C1174 0.960 . S
H1189 C1175 0.961 . S
H1190 C1175 0.961 . S
H1191 C1175 0.961 . S
H1192 C1176 0.931 . S
H1193 C1181 0.930 . S
H1194 C1182 0.956 . S
H1195 C1182 0.961 . S
H1196 C1182 0.961 . S
H1197 C1183 0.958 . S
H1198 C1183 0.961 . S
H1199 C1183 0.960 . S
C1200 C1201 1.391 . S
C1200 C1202 1.394 . S
C1200 H1216 0.931 . S
C1201 C1200 1.391 . S
C1201 C1205 1.376 . S
C1202 C1200 1.394 . S
C1202 C1203 1.369 . S
C1202 C1206 1.531 . S
C1203 C1202 1.369 . S
C1203 C1204 1.410 . S
C1203 C1211 1.503 . S
C1204 C1203 1.410 . S
C1204 C1205 1.392 . S
C1204 C1207 1.511 . S
C1205 C1201 1.376 . S
C1205 C1204 1.392 . S
C1205 H1217 0.929 . S
C1206 C1202 1.531 . S
C1206 H1218 0.960 . S
C1206 H1219 0.962 . S
C1206 H1220 0.960 . S
C1207 C1204 1.511 . S
C1207 H1221 0.961 . S
C1207 H1222 0.961 . S
C1207 H1223 0.961 . S
C1208 C1209 1.370 . S
C1208 C1210 1.363 . S
C1208 H1224 0.931 . S
C1209 C1208 1.370 . S
C1209 C1213 1.408 . S
C1210 C1208 1.363 . S
C1210 C1211 1.370 . S
C1210 C1214 1.524 . S
C1211 C1203 1.503 . S
C1211 C1210 1.370 . S
C1211 C1212 1.403 . S
C1212 C1211 1.403 . S
C1212 C1213 1.404 . S
C1212 C1215 1.539 . S
C1213 C1209 1.408 . S
C1213 C1212 1.404 . S
C1213 H1225 0.930 . S
C1214 C1210 1.524 . S
C1214 H1226 0.956 . S
C1214 H1227 0.961 . S
C1214 H1228 0.961 . S
C1215 C1212 1.539 . S
C1215 H1229 0.958 . S
C1215 H1230 0.961 . S
C1215 H1231 0.960 . S
H1216 C1200 0.931 . S
H1217 C1205 0.929 . S
H1218 C1206 0.960 . S
H1219 C1206 0.962 . S
H1220 C1206 0.960 . S
H1221 C1207 0.961 . S
H1222 C1207 0.961 . S
H1223 C1207 0.961 . S
H1224 C1208 0.931 . S
H1225 C1213 0.930 . S
H1226 C1214 0.956 . S
H1227 C1214 0.961 . S
H1228 C1214 0.961 . S
H1229 C1215 0.958 . S
H1230 C1215 0.961 . S
H1231 C1215 0.960 . S
C1232 C1233 1.391 . S
C1232 C1234 1.394 . S
C1232 H1248 0.931 . S
C1233 C1232 1.391 . S
C1233 C1237 1.376 . S
C1234 C1232 1.394 . S
C1234 C1235 1.369 . S
C1234 C1238 1.531 . S
C1235 C1234 1.369 . S
C1235 C1236 1.410 . S
C1235 C1243 1.503 . S
C1236 C1235 1.410 . S
C1236 C1237 1.392 . S
C1236 C1239 1.511 . S
C1237 C1233 1.376 . S
C1237 C1236 1.392 . S
C1237 H1249 0.929 . S
C1238 C1234 1.531 . S
C1238 H1250 0.960 . S
C1238 H1251 0.962 . S
C1238 H1252 0.960 . S
C1239 C1236 1.511 . S
C1239 H1253 0.961 . S
C1239 H1254 0.961 . S
C1239 H1255 0.961 . S
C1240 C1241 1.370 . S
C1240 C1242 1.363 . S
C1240 H1256 0.931 . S
C1241 C1240 1.370 . S
C1241 C1245 1.408 . S
C1242 C1240 1.363 . S
C1242 C1243 1.370 . S
C1242 C1246 1.524 . S
C1243 C1235 1.503 . S
C1243 C1242 1.370 . S
C1243 C1244 1.403 . S
C1244 C1243 1.403 . S
C1244 C1245 1.404 . S
C1244 C1247 1.539 . S
C1245 C1241 1.408 . S
C1245 C1244 1.404 . S
C1245 H1257 0.930 . S
C1246 C1242 1.524 . S
C1246 H1258 0.956 . S
C1246 H1259 0.961 . S
C1246 H1260 0.961 . S
C1247 C1244 1.539 . S
C1247 H1261 0.958 . S
C1247 H1262 0.961 . S
C1247 H1263 0.960 . S
H1248 C1232 0.931 . S
H1249 C1237 0.929 . S
H1250 C1238 0.960 . S
H1251 C1238 0.962 . S
H1252 C1238 0.960 . S
H1253 C1239 0.961 . S
H1254 C1239 0.961 . S
H1255 C1239 0.961 . S
H1256 C1240 0.931 . S
H1257 C1245 0.930 . S
H1258 C1246 0.956 . S
H1259 C1246 0.961 . S
H1260 C1246 0.961 . S
H1261 C1247 0.958 . S
H1262 C1247 0.961 . S
H1263 C1247 0.960 . S
C1264 C1265 1.391 . S
C1264 C1266 1.394 . S
C1264 H1280 0.931 . S
C1265 C1264 1.391 . S
C1265 C1269 1.376 . S
C1266 C1264 1.394 . S
C1266 C1267 1.369 . S
C1266 C1270 1.531 . S
C1267 C1266 1.369 . S
C1267 C1268 1.410 . S
C1267 C1275 1.503 . S
C1268 C1267 1.410 . S
C1268 C1269 1.392 . S
C1268 C1271 1.511 . S
C1269 C1265 1.376 . S
C1269 C1268 1.392 . S
C1269 H1281 0.929 . S
C1270 C1266 1.531 . S
C1270 H1282 0.960 . S
C1270 H1283 0.962 . S
C1270 H1284 0.960 . S
C1271 C1268 1.511 . S
C1271 H1285 0.961 . S
C1271 H1286 0.961 . S
C1271 H1287 0.961 . S
C1272 C1273 1.370 . S
C1272 C1274 1.363 . S
C1272 H1288 0.931 . S
C1273 C1272 1.370 . S
C1273 C1277 1.408 . S
C1274 C1272 1.363 . S
C1274 C1275 1.370 . S
C1274 C1278 1.524 . S
C1275 C1267 1.503 . S
C1275 C1274 1.370 . S
C1275 C1276 1.403 . S
C1276 C1275 1.403 . S
C1276 C1277 1.404 . S
C1276 C1279 1.539 . S
C1277 C1273 1.408 . S
C1277 C1276 1.404 . S
C1277 H1289 0.930 . S
C1278 C1274 1.524 . S
C1278 H1290 0.956 . S
C1278 H1291 0.961 . S
C1278 H1292 0.961 . S
C1279 C1276 1.539 . S
C1279 H1293 0.958 . S
C1279 H1294 0.961 . S
C1279 H1295 0.960 . S
H1280 C1264 0.931 . S
H1281 C1269 0.929 . S
H1282 C1270 0.960 . S
H1283 C1270 0.962 . S
H1284 C1270 0.960 . S
H1285 C1271 0.961 . S
H1286 C1271 0.961 . S
H1287 C1271 0.961 . S
H1288 C1272 0.931 . S
H1289 C1277 0.930 . S
H1290 C1278 0.956 . S
H1291 C1278 0.961 . S
H1292 C1278 0.961 . S
H1293 C1279 0.958 . S
H1294 C1279 0.961 . S
H1295 C1279 0.960 . S
C1296 C1297 1.391 . S
C1296 C1298 1.394 . S
C1296 H1312 0.931 . S
C1297 C1296 1.391 . S
C1297 C1301 1.376 . S
C1298 C1296 1.394 . S
C1298 C1299 1.369 . S
C1298 C1302 1.531 . S
C1299 C1298 1.369 . S
C1299 C1300 1.410 . S
C1299 C1307 1.503 . S
C1300 C1299 1.410 . S
C1300 C1301 1.392 . S
C1300 C1303 1.511 . S
C1301 C1297 1.376 . S
C1301 C1300 1.392 . S
C1301 H1313 0.929 . S
C1302 C1298 1.531 . S
C1302 H1314 0.960 . S
C1302 H1315 0.962 . S
C1302 H1316 0.960 . S
C1303 C1300 1.511 . S
C1303 H1317 0.961 . S
C1303 H1318 0.961 . S
C1303 H1319 0.961 . S
C1304 C1305 1.370 . S
C1304 C1306 1.363 . S
C1304 H1320 0.931 . S
C1305 C1304 1.370 . S
C1305 C1309 1.408 . S
C1306 C1304 1.363 . S
C1306 C1307 1.370 . S
C1306 C1310 1.524 . S
C1307 C1299 1.503 . S
C1307 C1306 1.370 . S
C1307 C1308 1.403 . S
C1308 C1307 1.403 . S
C1308 C1309 1.404 . S
C1308 C1311 1.539 . S
C1309 C1305 1.408 . S
C1309 C1308 1.404 . S
C1309 H1321 0.930 . S
C1310 C1306 1.524 . S
C1310 H1322 0.956 . S
C1310 H1323 0.961 . S
C1310 H1324 0.961 . S
C1311 C1308 1.539 . S
C1311 H1325 0.958 . S
C1311 H1326 0.961 . S
C1311 H1327 0.960 . S
H1312 C1296 0.931 . S
H1313 C1301 0.929 . S
H1314 C1302 0.960 . S
H1315 C1302 0.962 . S
H1316 C1302 0.960 . S
H1317 C1303 0.961 . S
H1318 C1303 0.961 . S
H1319 C1303 0.961 . S
H1320 C1304 0.931 . S
H1321 C1309 0.930 . S
H1322 C1310 0.956 . S
H1323 C1310 0.961 . S
H1324 C1310 0.961 . S
H1325 C1311 0.958 . S
H1326 C1311 0.961 . S
H1327 C1311 0.960 . S
C1328 C1329 1.391 . S
C1328 C1330 1.394 . S
C1328 H1344 0.931 . S
C1329 C1328 1.391 . S
C1329 C1333 1.376 . S
C1330 C1328 1.394 . S
C1330 C1331 1.369 . S
C1330 C1334 1.531 . S
C1331 C1330 1.369 . S
C1331 C1332 1.410 . S
C1331 C1339 1.503 . S
C1332 C1331 1.410 . S
C1332 C1333 1.392 . S
C1332 C1335 1.511 . S
C1333 C1329 1.376 . S
C1333 C1332 1.392 . S
C1333 H1345 0.929 . S
C1334 C1330 1.531 . S
C1334 H1346 0.960 . S
C1334 H1347 0.962 . S
C1334 H1348 0.960 . S
C1335 C1332 1.511 . S
C1335 H1349 0.961 . S
C1335 H1350 0.961 . S
C1335 H1351 0.961 . S
C1336 C1337 1.370 . S
C1336 C1338 1.363 . S
C1336 H1352 0.931 . S
C1337 C1336 1.370 . S
C1337 C1341 1.408 . S
C1338 C1336 1.363 . S
C1338 C1339 1.370 . S
C1338 C1342 1.524 . S
C1339 C1331 1.503 . S
C1339 C1338 1.370 . S
C1339 C1340 1.403 . S
C1340 C1339 1.403 . S
C1340 C1341 1.404 . S
C1340 C1343 1.539 . S
C1341 C1337 1.408 . S
C1341 C1340 1.404 . S
C1341 H1353 0.930 . S
C1342 C1338 1.524 . S
C1342 H1354 0.956 . S
C1342 H1355 0.961 . S
C1342 H1356 0.961 . S
C1343 C1340 1.539 . S
C1343 H1357 0.958 . S
C1343 H1358 0.961 . S
C1343 H1359 0.960 . S
H1344 C1328 0.931 . S
H1345 C1333 0.929 . S
H1346 C1334 0.960 . S
H1347 C1334 0.962 . S
H1348 C1334 0.960 . S
H1349 C1335 0.961 . S
H1350 C1335 0.961 . S
H1351 C1335 0.961 . S
H1352 C1336 0.931 . S
H1353 C1341 0.930 . S
H1354 C1342 0.956 . S
H1355 C1342 0.961 . S
H1356 C1342 0.961 . S
H1357 C1343 0.958 . S
H1358 C1343 0.961 . S
H1359 C1343 0.960 . S
C1360 C1361 1.391 . S
C1360 C1362 1.394 . S
C1360 H1376 0.931 . S
C1361 C1360 1.391 . S
C1361 C1365 1.376 . S
C1362 C1360 1.394 . S
C1362 C1363 1.369 . S
C1362 C1366 1.531 . S
C1363 C1362 1.369 . S
C1363 C1364 1.410 . S
C1363 C1371 1.503 . S
C1364 C1363 1.410 . S
C1364 C1365 1.392 . S
C1364 C1367 1.511 . S
C1365 C1361 1.376 . S
C1365 C1364 1.392 . S
C1365 H1377 0.929 . S
C1366 C1362 1.531 . S
C1366 H1378 0.960 . S
C1366 H1379 0.962 . S
C1366 H1380 0.960 . S
C1367 C1364 1.511 . S
C1367 H1381 0.961 . S
C1367 H1382 0.961 . S
C1367 H1383 0.961 . S
C1368 C1369 1.370 . S
C1368 C1370 1.363 . S
C1368 H1384 0.931 . S
C1369 C1368 1.370 . S
C1369 C1373 1.408 . S
C1370 C1368 1.363 . S
C1370 C1371 1.370 . S
C1370 C1374 1.524 . S
C1371 C1363 1.503 . S
C1371 C1370 1.370 . S
C1371 C1372 1.403 . S
C1372 C1371 1.403 . S
C1372 C1373 1.404 . S
C1372 C1375 1.539 . S
C1373 C1369 1.408 . S
C1373 C1372 1.404 . S
C1373 H1385 0.930 . S
C1374 C1370 1.524 . S
C1374 H1386 0.956 . S
C1374 H1387 0.961 . S
C1374 H1388 0.961 . S
C1375 C1372 1.539 . S
C1375 H1389 0.958 . S
C1375 H1390 0.961 . S
C1375 H1391 0.960 . S
H1376 C1360 0.931 . S
H1377 C1365 0.929 . S
H1378 C1366 0.960 . S
H1379 C1366 0.962 . S
H1380 C1366 0.960 . S
H1381 C1367 0.961 . S
H1382 C1367 0.961 . S
H1383 C1367 0.961 . S
H1384 C1368 0.931 . S
H1385 C1373 0.930 . S
H1386 C1374 0.956 . S
H1387 C1374 0.961 . S
H1388 C1374 0.961 . S
H1389 C1375 0.958 . S
H1390 C1375 0.961 . S
H1391 C1375 0.960 . S
C369 N2 1.526 . S
C377 N48 1.547 . S
C401 N71 1.504 . S
C409 N25 1.535 . S
C433 N94 1.514 . S
C441 N140 1.530 . S
C465 N163 1.494 . S
C473 N117 1.542 . S
C497 N186 1.553 . S
C505 N232 1.542 . S
C529 N255 1.544 . S
C537 N209 1.545 . S
C561 N278 1.531 . S
C569 N324 1.520 . S
C593 N347 1.528 . S
C601 N301 1.549 . S
C625 C108 1.617 . S
C633 C16 1.633 . S
C657 C39 1.607 . S
C665 C131 1.620 . S
C689 C62 1.612 . S
C697 C154 1.634 . S
C721 C177 1.609 . S
C729 C85 1.634 . S
C753 C200 1.596 . S
C761 C292 1.624 . S
C785 C223 1.599 . S
C793 C315 1.631 . S
C817 C246 1.642 . S
C825 C338 1.618 . S
C849 C269 1.618 . S
C857 C361 1.634 . S
C881 C237 1.631 . S
C889 C7 1.646 . S
C913 C260 1.635 . S
C921 C30 1.647 . S
C945 C53 1.664 . S
C953 C191 1.659 . S
C977 C76 1.662 . S
C985 C214 1.658 . S
C1009 C99 1.643 . S
C1017 C329 1.651 . S
C1041 C122 1.664 . S
C1049 C352 1.659 . S
C1073 C145 1.641 . S
C1081 C283 1.650 . S
C1105 C306 1.653 . S
C1113 C168 1.655 . S
C1137 N12 1.546 . S
C1145 N357 1.558 . S
C1169 N288 1.580 . S
C1177 N35 1.570 . S
C1201 N58 1.557 . S
C1209 N311 1.563 . S
C1233 N334 1.564 . S
C1241 N81 1.566 . S
C1265 N219 1.557 . S
C1273 N104 1.560 . S
C1297 N127 1.570 . S
C1305 N242 1.565 . S
C1329 N265 1.575 . S
C1337 N150 1.570 . S
C1361 N196 1.567 . S
C1369 N173 1.564 . S
