# Generated by pormake.
# Topology zft, (5)-cn, num edge types: 1
# Building blocks:
#     Node 0, Type 0, BuildingBlock: XOMCOT_clean_sbu_0, # of connection points: 5
#     Node 1, Type 0, BuildingBlock: XOMCOT_clean_sbu_0, # of connection points: 5
#     Node 2, Type 0, BuildingBlock: XOMCOT_clean_sbu_0, # of connection points: 5
#     Node 3, Type 0, BuildingBlock: XOMCOT_clean_sbu_0, # of connection points: 5
#     Node 4, Type 0, BuildingBlock: XOMCOT_clean_sbu_0, # of connection points: 5
#     Node 5, Type 0, BuildingBlock: XOMCOT_clean_sbu_0, # of connection points: 5
#     Node 6, Type 0, BuildingBlock: XOMCOT_clean_sbu_0, # of connection points: 5
#     Node 7, Type 0, BuildingBlock: XOMCOT_clean_sbu_0, # of connection points: 5
#     Edge 8, Type (0, 0), BuildingBlock: AJUNOK_clean_linker_0, # of connection points: 2
#     Edge 9, Type (0, 0), BuildingBlock: AJUNOK_clean_linker_0, # of connection points: 2
#     Edge 10, Type (0, 0), BuildingBlock: AJUNOK_clean_linker_0, # of connection points: 2
#     Edge 11, Type (0, 0), BuildingBlock: AJUNOK_clean_linker_0, # of connection points: 2
#     Edge 12, Type (0, 0), BuildingBlock: AJUNOK_clean_linker_0, # of connection points: 2
#     Edge 13, Type (0, 0), BuildingBlock: AJUNOK_clean_linker_0, # of connection points: 2
#     Edge 14, Type (0, 0), BuildingBlock: AJUNOK_clean_linker_0, # of connection points: 2
#     Edge 15, Type (0, 0), BuildingBlock: AJUNOK_clean_linker_0, # of connection points: 2
#     Edge 16, Type (0, 0), BuildingBlock: AJUNOK_clean_linker_0, # of connection points: 2
#     Edge 17, Type (0, 0), BuildingBlock: AJUNOK_clean_linker_0, # of connection points: 2
#     Edge 18, Type (0, 0), BuildingBlock: AJUNOK_clean_linker_0, # of connection points: 2
#     Edge 19, Type (0, 0), BuildingBlock: AJUNOK_clean_linker_0, # of connection points: 2
#     Edge 20, Type (0, 0), BuildingBlock: AJUNOK_clean_linker_0, # of connection points: 2
#     Edge 21, Type (0, 0), BuildingBlock: AJUNOK_clean_linker_0, # of connection points: 2
#     Edge 22, Type (0, 0), BuildingBlock: AJUNOK_clean_linker_0, # of connection points: 2
#     Edge 23, Type (0, 0), BuildingBlock: AJUNOK_clean_linker_0, # of connection points: 2
#     Edge 24, Type (0, 0), BuildingBlock: AJUNOK_clean_linker_0, # of connection points: 2
#     Edge 25, Type (0, 0), BuildingBlock: AJUNOK_clean_linker_0, # of connection points: 2
#     Edge 26, Type (0, 0), BuildingBlock: AJUNOK_clean_linker_0, # of connection points: 2
#     Edge 27, Type (0, 0), BuildingBlock: AJUNOK_clean_linker_0, # of connection points: 2
# Relax obj value: 0.079
# Max RMSD: 0.166
# Mean RMSD: 0.166
data_MOF--net-zft--node1-XOMCOT_clean_sbu_0--edge1-AJUNOK_clean_linker_0
_symmetry_space_group_name_H-M    P1
_symmetry_Int_Tables_number       1
_symmetry_cell_setting            triclinic
loop_
_symmetry_equiv_pos_as_xyz
'x, y, z'
_cell_length_a     21.1292
_cell_length_b     21.147153
_cell_length_c     40.54809
_cell_angle_alpha  90.513329
_cell_angle_beta   89.644482
_cell_angle_gamma 89.941062
loop_
_atom_site_label
_atom_site_type_symbol
_atom_site_fract_x
_atom_site_fract_y
_atom_site_fract_z
_atom_type_partial_charge
Co0 Co 0.15274 0.30096 0.16232 0.0
C1 C 0.235 0.40992 0.1478 0.0
C2 C 0.27584 0.32742 0.1258 0.0
C3 C 0.31088 0.37971 0.1165 0.0
N4 N 0.22651 0.34667 0.14469 0.0
N5 N 0.2846 0.43192 0.1303 0.0
H6 H 0.20422 0.44036 0.16206 0.0
H7 H 0.28638 0.2793 0.11881 0.0
C8 C 0.19666 0.19317 0.11682 0.0
O9 O 0.19285 0.22969 0.09086 0.0
N10 N 0.07884 0.25985 0.18029 0.0
C11 C 1.021 0.28676 0.18079 0.0
C12 C 0.97856 0.24496 0.19384 0.0
C13 C 0.07125 0.20208 0.19375 0.0
N14 N 1.00993 0.19193 0.20195 0.0
C15 C 0.09938 0.37823 0.11169 0.0
C16 C 1.03057 0.28351 0.0812 0.0
C17 C 1.02559 0.34553 0.0697 0.0
C18 C 0.06087 0.39312 0.08507 0.0
C19 C 0.06993 0.27059 0.10782 0.0
N20 N 0.10498 0.31741 0.12233 0.0
H21 H 0.12237 0.41639 0.12453 0.0
H22 H 0.07115 0.22298 0.11726 0.0
H23 H 1.01039 0.33359 0.17182 0.0
H24 H 0.10913 0.1683 0.19711 0.0
O25 O 0.12919 0.3753 0.18749 0.0
O26 O 0.19261 0.29929 0.20498 0.0
O27 O 0.18483 0.21575 0.14562 0.0
C28 C 0.16527 0.35351 0.2107 0.0
H29 H 0.35096 0.37882 0.09982 0.0
H30 H 0.92842 0.25312 0.19762 0.0
H31 H 1.00381 0.24544 0.06996 0.0
H32 H 0.05693 0.44188 0.07735 0.0
Co33 Co 0.2619 0.65392 0.41295 0.0
C34 C 0.1591 0.7161 0.37846 0.0
C35 C 0.23852 0.77854 0.38321 0.0
C36 C 0.18694 0.8129 0.37257 0.0
N37 N 0.22064 0.71793 0.38701 0.0
N38 N 0.13698 0.77345 0.37003 0.0
H39 H 0.12955 0.67468 0.38125 0.0
H40 H 0.28376 0.79759 0.39069 0.0
C41 C 0.39239 0.65215 0.38268 0.0
O42 O 0.38472 0.59148 0.37665 0.0
N43 N 0.30143 0.59005 0.44081 0.0
C44 C 0.26995 0.54793 0.45979 0.0
C45 C 0.31215 0.5152 0.47865 0.0
C46 C 0.36278 0.58352 0.44978 0.0
N47 N 0.37025 0.53755 0.4722 0.0
C48 C 0.22399 0.53784 0.38149 0.0
C49 C 0.25507 0.573 0.31794 0.0
C50 C 0.22747 0.51368 0.32318 0.0
C51 C 0.2117 0.49635 0.3554 0.0
C52 C 0.26687 0.61302 0.3448 0.0
N53 N 0.25277 0.59465 0.37626 0.0
H54 H 0.20784 0.52498 0.40567 0.0
H55 H 0.28688 0.65919 0.34031 0.0
H56 H 0.21928 0.54133 0.46052 0.0
H57 H 0.40144 0.61244 0.4413 0.0
O58 O 0.18211 0.63844 0.43432 0.0
O59 O 0.25331 0.70809 0.45148 0.0
O60 O 0.34792 0.6838 0.39677 0.0
C61 C 0.198 0.68187 0.45556 0.0
H62 H 0.18481 0.86378 0.37009 0.0
H63 H 0.30134 0.47684 0.49527 0.0
H64 H 0.26702 0.58846 0.29328 0.0
H65 H 0.18795 0.45201 0.36029 0.0
Co66 Co 0.90332 0.75851 0.6616 0.0
C67 C 0.81749 0.66331 0.63248 0.0
C68 C 0.76601 0.74082 0.65368 0.0
C69 C 0.7241 0.69248 0.64675 0.0
N70 N 0.82487 0.72272 0.64456 0.0
N71 N 0.75691 0.64325 0.63396 0.0
H72 H 0.85586 0.63335 0.62477 0.0
H73 H 0.75507 0.78388 0.66716 0.0
C74 C 0.84148 0.86958 0.62879 0.0
O75 O 0.82157 0.83166 0.60521 0.0
N76 N 0.98122 0.79148 0.67916 0.0
C77 C 0.03869 0.76517 0.6745 0.0
C78 C 0.08333 0.80364 0.68862 0.0
C79 C 0.9913 0.84495 0.69674 0.0
N80 N 0.05361 0.85373 0.7025 0.0
C81 C 0.96532 0.69087 0.60902 0.0
C82 C 1.00644 0.79551 0.57469 0.0
C83 C 1.0246 0.73525 0.56376 0.0
C84 C 1.00328 0.68252 0.58113 0.0
C85 C 0.96801 0.80176 0.60268 0.0
N86 N 0.94606 0.7497 0.61901 0.0
H87 H 0.95543 0.64998 0.62378 0.0
H88 H 0.9596 0.8488 0.6121 0.0
H89 H 0.04765 0.72126 0.66144 0.0
H90 H 0.95417 0.8768 0.7048 0.0
O91 O 0.92276 0.67712 0.68045 0.0
O92 O 0.86832 0.75361 0.7053 0.0
O93 O 0.87468 0.84765 0.65226 0.0
C94 C 0.89098 0.69652 0.70623 0.0
H95 H 0.67426 0.69178 0.65308 0.0
H96 H 0.13388 0.7952 0.68897 0.0
H97 H 1.02308 0.83749 0.56224 0.0
H98 H 1.01845 0.63527 0.57415 0.0
Co99 Co 0.80702 0.40884 0.91188 0.0
C100 C 0.91688 0.3297 0.89291 0.0
C101 C 0.83237 0.27446 0.89071 0.0
C102 C 0.88373 0.23569 0.88365 0.0
N103 N 0.85305 0.33422 0.89555 0.0
N104 N 0.93679 0.27092 0.88514 0.0
H105 H 0.94926 0.36773 0.89828 0.0
H106 H 0.78397 0.259 0.89372 0.0
C107 C 0.70213 0.34974 0.87103 0.0
O108 O 0.74188 0.33947 0.84651 0.0
N109 N 0.7644 0.48331 0.92877 0.0
C110 C 0.78187 0.54349 0.92284 0.0
C111 C 0.73997 0.58359 0.93838 0.0
C112 C 0.71321 0.48744 0.94878 0.0
N113 N 0.69707 0.54836 0.95456 0.0
C114 C 0.87961 0.46543 0.85978 0.0
C115 C 0.778 0.51368 0.82559 0.0
C116 C 0.83948 0.52645 0.81455 0.0
C117 C 0.89064 0.5014 0.83173 0.0
C118 C 0.76905 0.47706 0.85366 0.0
N119 N 0.8195 0.45203 0.87007 0.0
H120 H 0.9197 0.45198 0.87419 0.0
H121 H 0.72153 0.47188 0.86316 0.0
H122 H 0.82258 0.55736 0.90834 0.0
H123 H 0.68881 0.44713 0.95906 0.0
O124 O 0.88257 0.43552 0.9347 0.0
O125 O 0.80799 0.37341 0.95534 0.0
O126 O 0.72178 0.37424 0.898 0.0
C127 C 0.86217 0.40152 0.9592 0.0
H128 H 0.88234 0.18508 0.87951 0.0
H129 H 0.74182 0.63476 0.93868 0.0
H130 H 0.73729 0.53334 0.81319 0.0
H131 H 0.93886 0.51229 0.82453 0.0
Co132 Co 0.66539 0.26148 0.57805 0.0
C133 C 0.7267 0.1614 0.61421 0.0
C134 C 0.79184 0.23724 0.60556 0.0
C135 C 0.82529 0.18499 0.61609 0.0
N136 N 0.73008 0.22191 0.6042 0.0
N137 N 0.78409 0.13717 0.62105 0.0
H138 H 0.6837 0.13367 0.61318 0.0
H139 H 0.81184 0.2806 0.59616 0.0
C140 C 0.65755 0.39262 0.60662 0.0
O141 O 0.59612 0.38423 0.60937 0.0
N142 N 0.60057 0.29871 0.54994 0.0
C143 C 0.55717 0.26576 0.53237 0.0
C144 C 0.52454 0.3061 0.51242 0.0
C145 C 0.5951 0.35878 0.53889 0.0
N146 N 0.54846 0.3643 0.51661 0.0
C147 C 0.55196 0.21793 0.61042 0.0
C148 C 0.58591 0.25625 0.67321 0.0
C149 C 0.52941 0.22265 0.66891 0.0
C150 C 0.51228 0.20396 0.63701 0.0
C151 C 0.62419 0.26935 0.64592 0.0
N152 N 0.60652 0.25137 0.61483 0.0
H153 H 0.53989 0.19912 0.58661 0.0
H154 H 0.66896 0.29277 0.64991 0.0
H155 H 0.55008 0.21525 0.53306 0.0
H156 H 0.62512 0.39776 0.54596 0.0
O157 O 0.65229 0.18108 0.5566 0.0
O158 O 0.7199 0.25399 0.53951 0.0
O159 O 0.6926 0.34844 0.59457 0.0
C160 C 0.69524 0.19799 0.53538 0.0
H161 H 0.87632 0.18064 0.61661 0.0
H162 H 0.48513 0.29405 0.49662 0.0
H163 H 0.60081 0.27164 0.6975 0.0
H164 H 0.46972 0.1766 0.6328 0.0
Co165 Co 0.30984 0.14956 0.82746 0.0
C166 C 0.41708 0.22864 0.84857 0.0
C167 C 0.33253 0.2841 0.84837 0.0
C168 C 0.38338 0.32333 0.85532 0.0
N169 N 0.35356 0.22403 0.845 0.0
N170 N 0.43644 0.2879 0.85522 0.0
H171 H 0.44992 0.19051 0.84409 0.0
H172 H 0.28448 0.29937 0.84408 0.0
C173 C 0.20278 0.20724 0.86796 0.0
O174 O 0.24205 0.21744 0.89244 0.0
N175 N 0.26979 0.0753 0.80943 0.0
C176 C 0.29221 1.01591 0.81232 0.0
C177 C 0.25343 0.97551 0.79521 0.0
C178 C 0.21806 0.07061 0.79021 0.0
N179 N 0.20697 1.00989 0.78161 0.0
C180 C 0.38047 0.0901 0.87886 0.0
C181 C 0.27814 0.04175 0.91296 0.0
C182 C 0.33941 1.02879 0.92402 0.0
C183 C 0.39087 0.05361 0.9067 0.0
C184 C 0.26982 0.07886 0.88496 0.0
N185 N 0.32065 0.10443 0.86882 0.0
H186 H 0.42091 0.10329 0.86442 0.0
H187 H 0.22253 0.08455 0.87553 0.0
H188 H 0.33471 1.00309 0.8254 0.0
H189 H 0.1907 0.11055 0.7818 0.0
O190 O 0.38728 0.12488 0.80527 0.0
O191 O 0.31352 0.18673 0.78415 0.0
O192 O 0.22318 0.18267 0.84099 0.0
C193 C 0.36862 0.15971 0.7809 0.0
H194 H 0.38187 0.37426 0.85809 0.0
H195 H 0.25963 0.92495 0.79216 0.0
H196 H 0.23712 1.02237 0.92543 0.0
H197 H 0.43898 0.04247 0.91374 0.0
Co198 Co 0.4053 0.80572 0.08011 0.0
C199 C 0.32133 0.90606 0.10702 0.0
C200 C 0.2686 0.82924 0.08631 0.0
C201 C 0.22796 0.87948 0.09183 0.0
N202 N 0.32746 0.84571 0.09595 0.0
N203 N 0.26145 0.92741 0.10501 0.0
H204 H 0.36025 0.93697 0.11264 0.0
H205 H 0.25725 0.78611 0.07309 0.0
C206 C 0.33846 0.69942 0.1153 0.0
O207 O 0.31318 0.73974 0.13639 0.0
N208 N 0.48218 0.76735 0.06365 0.0
C209 C 0.54184 0.78588 0.07029 0.0
C210 C 0.58321 0.74354 0.05588 0.0
C211 C 0.48789 0.71479 0.04474 0.0
N212 N 0.54917 0.69902 0.04006 0.0
C213 C 0.46759 0.87892 0.13006 0.0
C214 C 0.50075 0.77945 0.17008 0.0
C215 C 0.51993 0.84068 0.17866 0.0
C216 C 0.50304 0.89076 0.15828 0.0
C217 C 0.46474 0.76971 0.14172 0.0
N218 N 0.44684 0.81939 0.12247 0.0
H219 H 0.46033 0.91748 0.11335 0.0
H220 H 0.45488 0.72166 0.13454 0.0
H221 H 0.55458 0.82723 0.08461 0.0
H222 H 0.44828 0.68852 0.03483 0.0
O223 O 0.42707 0.88396 0.05856 0.0
O224 O 0.37111 0.8064 0.0362 0.0
O225 O 0.37521 0.71852 0.09243 0.0
C226 C 0.39466 0.8629 0.03359 0.0
H227 H 0.179 0.88243 0.08429 0.0
H228 H 0.63439 0.74599 0.05623 0.0
H229 H 0.51479 0.73926 0.18473 0.0
H230 H 0.51973 0.93832 0.16323 0.0
Co231 Co 0.76 0.89861 0.32965 0.0
C232 C 0.65947 0.81596 0.35656 0.0
C233 C 0.74568 0.76446 0.34977 0.0
C234 C 0.69855 0.72267 0.35868 0.0
N235 N 0.72165 0.82363 0.34931 0.0
N236 N 0.64432 0.75538 0.36305 0.0
H237 H 0.62421 0.85232 0.35362 0.0
H238 H 0.79291 0.75146 0.34189 0.0
C239 C 0.87236 0.84364 0.36445 0.0
O240 O 0.83684 0.83578 0.39081 0.0
N241 N 0.79585 0.97239 0.30933 0.0
C242 C 0.77218 0.03147 0.31175 0.0
C243 C 0.80942 0.07111 0.2933 0.0
C244 C 0.84675 0.97644 0.28922 0.0
N245 N 0.85615 0.03646 0.27946 0.0
C246 C 0.69925 0.95736 0.38552 0.0
C247 C 0.80617 1.01414 0.4112 0.0
C248 C 0.74746 1.02547 0.42636 0.0
C249 C 0.6937 0.99628 0.41326 0.0
C250 C 0.80968 0.97446 0.38346 0.0
N251 N 0.75677 0.94527 0.37135 0.0
H252 H 0.65655 0.94002 0.37452 0.0
H253 H 0.8547 0.96938 0.37096 0.0
H254 H 0.73035 0.04457 0.32573 0.0
H255 H 0.87499 0.93645 0.28117 0.0
O256 O 0.6786 0.92198 0.31231 0.0
O257 O 0.74859 0.86014 0.28685 0.0
O258 O 0.8485 0.86676 0.33833 0.0
C259 C 0.69323 0.88725 0.28674 0.0
H260 H 0.70321 0.67181 0.36024 0.0
H261 H 0.80248 0.12136 0.2899 0.0
H262 H 0.84879 0.03637 0.4204 0.0
H263 H 0.64715 1.0055 0.42361 0.0
C264 C 0.16112 0.456 0.24161 0.0
C265 C 0.1793 0.39194 0.24047 0.0
C266 C 0.17736 0.49507 0.2683 0.0
C267 C 0.2119 0.47147 0.29502 0.0
H268 H 0.13497 0.47664 0.22148 0.0
H269 H 0.16232 0.54407 0.26815 0.0
S270 S 0.2709 0.30742 0.30433 0.0
N271 N 0.2337 0.30666 0.26863 0.0
N272 N 0.26408 0.38034 0.31883 0.0
C273 C 0.22991 0.40747 0.29443 0.0
C274 C 0.21371 0.36767 0.26714 0.0
C275 C 0.05222 0.68374 0.51017 0.0
C276 C 0.06817 0.72655 0.53541 0.0
C277 C 0.09432 0.67066 0.48429 0.0
C278 C 0.15429 0.69953 0.48274 0.0
H279 H 1.00693 0.65976 0.51059 0.0
H280 H 0.07975 0.63695 0.46556 0.0
S281 S 0.21862 0.81552 0.54297 0.0
N282 N 0.14758 0.79816 0.55747 0.0
N283 N 0.22705 0.77379 0.5086 0.0
C284 C 0.17049 0.74333 0.50758 0.0
C285 C 0.12733 0.75682 0.53397 0.0
C286 C 0.88962 0.55115 0.76026 0.0
C287 C 0.85086 0.56992 0.78687 0.0
C288 C 0.90263 0.59256 0.73433 0.0
C289 C 0.87794 0.65441 0.73435 0.0
H290 H 0.90968 0.50398 0.75943 0.0
H291 H 0.9322 0.57584 0.71414 0.0
S292 S 0.7759 0.72687 0.79943 0.0
N293 N 0.78939 0.65438 0.81241 0.0
N294 N 0.81365 0.73254 0.76382 0.0
C295 C 0.83948 0.67381 0.76108 0.0
C296 C 0.82596 0.63145 0.78731 0.0
C297 C 0.96526 0.40951 0.9887 0.0
C298 C 0.90143 0.39053 0.98865 0.0
C299 C 1.00499 0.39522 0.01514 0.0
C300 C 0.9824 0.36117 0.04238 0.0
H301 H 0.9852 0.43444 0.96786 0.0
H302 H 0.05409 0.4098 0.01396 0.0
S303 S 0.81805 0.30546 0.05583 0.0
N304 N 0.81663 0.33915 0.01927 0.0
N305 N 0.89155 0.31251 0.06891 0.0
C306 C 0.91843 0.34332 0.0431 0.0
C307 C 0.87786 0.358 0.01626 0.0
C308 C 0.69266 0.09159 0.50873 0.0
C309 C 0.71404 0.15461 0.50818 0.0
C310 C 0.70565 0.04975 0.48266 0.0
C311 C 0.74069 0.06909 0.455 0.0
H312 H 0.66479 0.07438 0.52928 0.0
H313 H 0.68729 1.002 0.48396 0.0
S314 S 0.80884 0.22844 0.44155 0.0
N315 N 0.77353 0.23389 0.47792 0.0
N316 N 0.7975 0.15504 0.42864 0.0
C317 C 0.76396 0.13137 0.45442 0.0
C318 C 0.75071 0.17419 0.48107 0.0
C319 C 0.38512 0.20215 0.72413 0.0
C320 C 0.41006 0.17244 0.75213 0.0
C321 C 0.42394 0.21785 0.69726 0.0
C322 C 0.48929 0.20521 0.69757 0.0
H323 H 0.33522 0.21367 0.72296 0.0
H324 H 0.40282 0.24099 0.67628 0.0
S325 S 0.57803 0.1269 0.76449 0.0
N326 N 0.50435 0.13003 0.7782 0.0
N327 N 0.57705 0.15961 0.72768 0.0
C328 C 0.51481 0.17508 0.72524 0.0
C329 C 0.47525 0.15859 0.75249 0.0
C330 C 0.40589 0.96502 0.00369 0.0
C331 C 0.38052 0.90358 0.00506 0.0
C332 C 0.39148 1.00556 0.97767 0.0
C333 C 0.35073 0.98641 0.95222 0.0
H334 H 0.43712 0.98214 0.02287 0.0
H335 H 0.41231 0.05235 0.97748 0.0
S336 S 0.27229 0.83045 0.94378 0.0
N337 N 0.31264 0.8256 0.9784 0.0
N338 N 0.28598 0.90202 0.92948 0.0
C339 C 0.32478 0.92537 0.95326 0.0
C340 C 0.33966 0.88387 0.97965 0.0
C341 C 0.66122 0.83006 0.23538 0.0
C342 C 0.64805 0.8765 0.25955 0.0
C343 C 0.61883 0.81781 0.20971 0.0
C344 C 0.562 0.85191 0.20711 0.0
H345 H 0.70454 0.80271 0.23629 0.0
H346 H 0.63118 0.7822 0.19139 0.0
S347 S 0.50407 0.97717 0.26426 0.0
N348 N 0.57312 0.95592 0.27949 0.0
N349 N 0.49374 0.9328 0.23102 0.0
C350 C 0.54795 0.89815 0.23112 0.0
C351 C 0.59086 0.91042 0.25741 0.0
C352 C 0.23892 1.02283 0.13841 0.0
C353 C 0.24275 0.9927 0.10752 0.0
C354 C 0.22385 0.08746 0.14114 0.0
C355 C 0.21326 0.12475 0.11296 0.0
H356 H 0.24764 0.99606 0.16057 0.0
H357 H 0.22099 0.10834 0.16559 0.0
S358 S 0.22189 0.06718 0.02605 0.0
N359 N 0.23719 1.00394 0.04825 0.0
N360 N 0.20967 0.12537 0.05282 0.0
C361 C 0.218 0.0947 0.08178 0.0
C362 C 0.23258 1.02874 0.0792 0.0
C363 C 0.56414 0.67118 0.35533 0.0
C364 C 0.58141 0.73042 0.36849 0.0
C365 C 0.50279 0.64702 0.35959 0.0
C366 C 0.45592 0.68103 0.3772 0.0
H367 H 0.59803 0.64355 0.34118 0.0
H368 H 0.49219 0.60113 0.34893 0.0
S369 S 0.47801 0.83729 0.41813 0.0
N370 N 0.54744 0.82144 0.40108 0.0
N371 N 0.43203 0.77683 0.40864 0.0
C372 C 0.47266 0.74038 0.39059 0.0
C373 C 0.53531 0.7648 0.38637 0.0
C374 C 0.7658 1.02572 0.60482 0.0
C375 C 0.7989 0.07079 0.62382 0.0
C376 C 0.78012 0.96106 0.6065 0.0
C377 C 0.82791 0.93862 0.62739 0.0
H378 H 0.72915 0.04059 0.58803 0.0
H379 H 0.75319 0.92847 0.59136 0.0
S380 S 0.92914 0.03771 0.68192 0.0
N381 N 0.88163 0.08882 0.66396 0.0
N382 N 0.90926 0.96758 0.66709 0.0
C383 C 0.86159 0.98341 0.64643 0.0
C384 C 0.84704 0.04934 0.64458 0.0
C385 C 0.54856 0.28082 0.83754 0.0
C386 C 0.50161 0.30785 0.85813 0.0
C387 C 0.61294 0.29513 0.84164 0.0
C388 C 0.63328 0.33654 0.86678 0.0
H389 H 0.53537 0.24808 0.8181 0.0
H390 H 0.64705 0.27263 0.82529 0.0
S391 S 0.52875 0.422 0.92641 0.0
N392 N 0.47958 0.37941 0.90383 0.0
N393 N 0.60023 0.40668 0.9117 0.0
C394 C 0.58654 0.36493 0.88712 0.0
C395 C 0.52087 0.35067 0.8827 0.0
C396 C 0.64783 0.51064 0.60855 0.0
C397 C 0.68441 0.45602 0.61395 0.0
C398 C 0.67192 0.57137 0.61501 0.0
C399 C 0.73337 0.58004 0.62742 0.0
H400 H 0.60041 0.50654 0.59874 0.0
H401 H 0.64242 0.61197 0.60993 0.0
S402 S 0.84539 0.45158 0.64956 0.0
N403 N 0.7836 0.41407 0.63419 0.0
N404 N 0.82811 0.52762 0.64771 0.0
C405 C 0.76983 0.52549 0.6338 0.0
C406 C 0.74555 0.4637 0.6267 0.0
C407 C 0.11326 0.26161 0.89802 0.0
C408 C 0.13384 0.22127 0.87228 0.0
C409 C 0.0489 0.27652 0.90242 0.0
C410 C 1.00208 0.25111 0.88156 0.0
H411 H 0.14721 0.28274 0.91471 0.0
H412 H 0.03563 0.30829 0.92238 0.0
S413 S 1.02975 0.14129 0.81119 0.0
N414 N 0.10106 0.15466 0.82614 0.0
N415 N 0.98051 0.1829 0.83457 0.0
C416 C 1.02157 0.20968 0.85621 0.0
C417 C 0.08724 0.19486 0.85149 0.0
C418 C 0.26628 0.60975 0.12822 0.0
C419 C 0.32643 0.63076 0.11869 0.0
C420 C 0.25306 0.54514 0.13112 0.0
C421 C 0.3 0.49832 0.1257 0.0
H422 H 0.22854 0.6435 0.1328 0.0
H423 H 0.20499 0.53233 0.13734 0.0
S424 S 0.46687 0.53002 0.10134 0.0
N425 N 0.43386 0.60073 0.10358 0.0
N426 N 0.41043 0.47933 0.11099 0.0
C427 C 0.36087 0.51911 0.11631 0.0
C428 C 0.37375 0.5852 0.11244 0.0
C429 C 0.96247 0.78284 0.38854 0.0
C430 C 0.94055 0.82628 0.36513 0.0
C431 C 1.02644 0.76528 0.38969 0.0
C432 C 0.07124 0.79102 0.36775 0.0
H433 H 0.92993 0.7618 0.40602 0.0
H434 H 0.04118 0.7321 0.40833 0.0
S435 S 0.03933 0.90742 0.30225 0.0
N436 N 0.96962 0.89528 0.3197 0.0
N437 N 0.08974 0.8621 0.32216 0.0
C438 C 0.05034 0.83479 0.34445 0.0
C439 C 0.98505 0.85233 0.34301 0.0
C440 C 0.88379 0.07803 0.22534 0.0
C441 C 0.90262 0.06002 0.25696 0.0
C442 C 0.92251 0.1165 0.20592 0.0
C443 C 0.9811 0.13852 0.21763 0.0
H444 H 0.837 0.06575 0.2166 0.0
H445 H 0.90471 0.13293 0.18251 0.0
S446 S 0.05327 0.10031 0.298 0.0
N447 N 0.9846 0.06292 0.29845 0.0
N448 N 0.05798 0.13564 0.26185 0.0
C449 C 1.00246 0.11688 0.24824 0.0
C450 C 0.96283 0.07763 0.26803 0.0
C451 C 0.48411 0.45812 0.52789 0.0
C452 C 0.51893 0.42094 0.50537 0.0
C453 C 0.43851 0.50099 0.5168 0.0
C454 C 0.42784 0.5089 0.48293 0.0
H455 H 0.48809 0.44965 0.5541 0.0
H456 H 0.40841 0.52495 0.53466 0.0
S457 S 0.51245 0.42818 0.41437 0.0
N458 N 0.54375 0.39817 0.44807 0.0
N459 N 0.45961 0.4808 0.4271 0.0
C460 C 0.4665 0.47627 0.46028 0.0
C461 C 0.51174 0.4316 0.47156 0.0
C462 C 0.14281 0.92728 0.70803 0.0
C463 C 0.08437 0.90463 0.71981 0.0
C464 C 0.18062 0.96682 0.72745 0.0
C465 C 0.16107 0.98535 0.75917 0.0
H466 H 0.16082 0.91155 0.68428 0.0
H467 H 0.22722 0.97985 0.71857 0.0
S468 S 1.01063 0.94374 0.80061 0.0
N469 N 1.00694 0.90741 0.76441 0.0
N470 N 0.07879 0.98203 0.80095 0.0
C471 C 0.1012 0.96675 0.77046 0.0
C472 C 0.06243 0.92642 0.75068 0.0
C473 C 0.60423 0.61605 0.96364 0.0
C474 C 0.64899 0.57335 0.97607 0.0
C475 C 0.56707 0.65347 0.98496 0.0
C476 C 0.57485 0.65018 0.01924 0.0
H477 H 0.60068 0.62293 0.93728 0.0
H478 H 0.53566 0.68852 0.97464 0.0
S479 S 0.68206 0.54278 0.06396 0.0
N480 N 0.69551 0.52645 0.02459 0.0
N481 N 0.62689 0.59827 0.06475 0.0
C482 C 0.61681 0.60525 0.03194 0.0
C483 C 0.65362 0.56631 0.01029 0.0
loop_
_geom_bond_atom_site_label_1
_geom_bond_atom_site_label_2
_geom_bond_distance
_geom_bond_site_symmetry_2
_ccdc_geom_bond_type
Co0 N4 2.148 . S
Co0 N10 2.128 . S
Co0 N20 2.194 . S
Co0 O25 2.351 . S
Co0 O26 2.155 . S
Co0 O27 2.096 . S
C1 N4 1.301 . S
C1 N5 1.328 . S
C1 H6 0.930 . S
C2 C3 1.333 . S
C2 N4 1.317 . S
C2 H7 0.930 . S
C3 C2 1.333 . S
C3 N5 1.350 . S
C3 H29 0.931 . S
N4 Co0 2.148 . S
N4 C1 1.301 . S
N4 C2 1.317 . S
N5 C1 1.328 . S
N5 C3 1.350 . S
H6 C1 0.930 . S
H7 C2 0.930 . S
C8 O9 1.224 . S
C8 O27 1.247 . S
O9 C8 1.224 . S
N10 Co0 2.128 . S
N10 C11 1.355 1_455 S
N10 C13 1.311 . S
C11 N10 1.355 1_655 S
C11 C12 1.363 . S
C11 H23 0.929 . S
C12 C11 1.363 . S
C12 N14 1.375 . S
C12 H30 0.931 . S
C13 N10 1.311 . S
C13 N14 1.347 1_455 S
C13 H24 0.929 . S
N14 C12 1.375 . S
N14 C13 1.347 1_655 S
C15 C18 1.365 1_455 S
C15 N20 1.328 . S
C15 H21 0.929 . S
C16 C17 1.362 1_455 S
C16 C19 1.378 . S
C16 H31 0.929 . S
C17 C16 1.362 1_655 S
C17 C18 1.366 . S
C18 C15 1.365 1_655 S
C18 C17 1.366 . S
C18 H32 0.930 . S
C19 C16 1.378 . S
C19 N20 1.315 . S
C19 H22 0.930 . S
N20 Co0 2.194 . S
N20 C15 1.328 . S
N20 C19 1.315 . S
H21 C15 0.929 . S
H22 C19 0.930 . S
H23 C11 0.929 . S
H24 C13 0.929 . S
O25 Co0 2.351 . S
O25 C28 1.244 . S
O26 Co0 2.155 . S
O26 C28 1.240 . S
O27 Co0 2.096 . S
O27 C8 1.247 . S
C28 O25 1.244 . S
C28 O26 1.240 . S
H29 C3 0.931 . S
H30 C12 0.931 . S
H31 C16 0.929 . S
H32 C18 0.930 . S
Co33 N37 2.148 . S
Co33 N43 2.128 . S
Co33 N53 2.194 . S
Co33 O58 2.351 . S
Co33 O59 2.155 . S
Co33 O60 2.096 . S
C34 N37 1.301 . S
C34 N38 1.328 . S
C34 H39 0.930 . S
C35 C36 1.333 . S
C35 N37 1.317 . S
C35 H40 0.930 . S
C36 C35 1.333 . S
C36 N38 1.350 . S
C36 H62 0.931 . S
N37 Co33 2.148 . S
N37 C34 1.301 . S
N37 C35 1.317 . S
N38 C34 1.328 . S
N38 C36 1.350 . S
H39 C34 0.930 . S
H40 C35 0.930 . S
C41 O42 1.224 . S
C41 O60 1.247 . S
O42 C41 1.224 . S
N43 Co33 2.128 . S
N43 C44 1.355 . S
N43 C46 1.311 . S
C44 N43 1.355 . S
C44 C45 1.363 . S
C44 H56 0.929 . S
C45 C44 1.363 . S
C45 N47 1.375 . S
C45 H63 0.931 . S
C46 N43 1.311 . S
C46 N47 1.347 . S
C46 H57 0.929 . S
N47 C45 1.375 . S
N47 C46 1.347 . S
C48 C51 1.365 . S
C48 N53 1.328 . S
C48 H54 0.929 . S
C49 C50 1.362 . S
C49 C52 1.378 . S
C49 H64 0.929 . S
C50 C49 1.362 . S
C50 C51 1.366 . S
C51 C48 1.365 . S
C51 C50 1.366 . S
C51 H65 0.930 . S
C52 C49 1.378 . S
C52 N53 1.315 . S
C52 H55 0.930 . S
N53 Co33 2.194 . S
N53 C48 1.328 . S
N53 C52 1.315 . S
H54 C48 0.929 . S
H55 C52 0.930 . S
H56 C44 0.929 . S
H57 C46 0.929 . S
O58 Co33 2.351 . S
O58 C61 1.244 . S
O59 Co33 2.155 . S
O59 C61 1.240 . S
O60 Co33 2.096 . S
O60 C41 1.247 . S
C61 O58 1.244 . S
C61 O59 1.240 . S
H62 C36 0.931 . S
H63 C45 0.931 . S
H64 C49 0.929 . S
H65 C51 0.930 . S
Co66 N70 2.148 . S
Co66 N76 2.128 . S
Co66 N86 2.194 . S
Co66 O91 2.351 . S
Co66 O92 2.155 . S
Co66 O93 2.096 . S
C67 N70 1.301 . S
C67 N71 1.328 . S
C67 H72 0.930 . S
C68 C69 1.333 . S
C68 N70 1.317 . S
C68 H73 0.930 . S
C69 C68 1.333 . S
C69 N71 1.350 . S
C69 H95 0.931 . S
N70 Co66 2.148 . S
N70 C67 1.301 . S
N70 C68 1.317 . S
N71 C67 1.328 . S
N71 C69 1.350 . S
H72 C67 0.930 . S
H73 C68 0.930 . S
C74 O75 1.224 . S
C74 O93 1.247 . S
O75 C74 1.224 . S
N76 Co66 2.128 . S
N76 C77 1.355 1_655 S
N76 C79 1.311 . S
C77 N76 1.355 1_455 S
C77 C78 1.363 . S
C77 H89 0.929 . S
C78 C77 1.363 . S
C78 N80 1.375 . S
C78 H96 0.931 . S
C79 N76 1.311 . S
C79 N80 1.347 1_655 S
C79 H90 0.929 . S
N80 C78 1.375 . S
N80 C79 1.347 1_455 S
C81 C84 1.365 1_655 S
C81 N86 1.328 . S
C81 H87 0.929 . S
C82 C83 1.362 1_655 S
C82 C85 1.378 . S
C82 H97 0.929 . S
C83 C82 1.362 1_455 S
C83 C84 1.366 . S
C84 C81 1.365 1_455 S
C84 C83 1.366 . S
C84 H98 0.930 . S
C85 C82 1.378 . S
C85 N86 1.315 . S
C85 H88 0.930 . S
N86 Co66 2.194 . S
N86 C81 1.328 . S
N86 C85 1.315 . S
H87 C81 0.929 . S
H88 C85 0.930 . S
H89 C77 0.929 . S
H90 C79 0.929 . S
O91 Co66 2.351 . S
O91 C94 1.244 . S
O92 Co66 2.155 . S
O92 C94 1.240 . S
O93 Co66 2.096 . S
O93 C74 1.247 . S
C94 O91 1.244 . S
C94 O92 1.240 . S
H95 C69 0.931 . S
H96 C78 0.931 . S
H97 C82 0.929 . S
H98 C84 0.930 . S
Co99 N103 2.148 . S
Co99 N109 2.128 . S
Co99 N119 2.194 . S
Co99 O124 2.351 . S
Co99 O125 2.155 . S
Co99 O126 2.096 . S
C100 N103 1.301 . S
C100 N104 1.328 . S
C100 H105 0.930 . S
C101 C102 1.333 . S
C101 N103 1.317 . S
C101 H106 0.930 . S
C102 C101 1.333 . S
C102 N104 1.350 . S
C102 H128 0.931 . S
N103 Co99 2.148 . S
N103 C100 1.301 . S
N103 C101 1.317 . S
N104 C100 1.328 . S
N104 C102 1.350 . S
H105 C100 0.930 . S
H106 C101 0.930 . S
C107 O108 1.224 . S
C107 O126 1.247 . S
O108 C107 1.224 . S
N109 Co99 2.128 . S
N109 C110 1.355 . S
N109 C112 1.311 . S
C110 N109 1.355 . S
C110 C111 1.363 . S
C110 H122 0.929 . S
C111 C110 1.363 . S
C111 N113 1.375 . S
C111 H129 0.931 . S
C112 N109 1.311 . S
C112 N113 1.347 . S
C112 H123 0.929 . S
N113 C111 1.375 . S
N113 C112 1.347 . S
C114 C117 1.365 . S
C114 N119 1.328 . S
C114 H120 0.929 . S
C115 C116 1.362 . S
C115 C118 1.378 . S
C115 H130 0.929 . S
C116 C115 1.362 . S
C116 C117 1.366 . S
C117 C114 1.365 . S
C117 C116 1.366 . S
C117 H131 0.930 . S
C118 C115 1.378 . S
C118 N119 1.315 . S
C118 H121 0.930 . S
N119 Co99 2.194 . S
N119 C114 1.328 . S
N119 C118 1.315 . S
H120 C114 0.929 . S
H121 C118 0.930 . S
H122 C110 0.929 . S
H123 C112 0.929 . S
O124 Co99 2.351 . S
O124 C127 1.244 . S
O125 Co99 2.155 . S
O125 C127 1.240 . S
O126 Co99 2.096 . S
O126 C107 1.247 . S
C127 O124 1.244 . S
C127 O125 1.240 . S
H128 C102 0.931 . S
H129 C111 0.931 . S
H130 C115 0.929 . S
H131 C117 0.930 . S
Co132 N136 2.148 . S
Co132 N142 2.128 . S
Co132 N152 2.194 . S
Co132 O157 2.351 . S
Co132 O158 2.155 . S
Co132 O159 2.096 . S
C133 N136 1.301 . S
C133 N137 1.328 . S
C133 H138 0.930 . S
C134 C135 1.333 . S
C134 N136 1.317 . S
C134 H139 0.930 . S
C135 C134 1.333 . S
C135 N137 1.350 . S
C135 H161 0.931 . S
N136 Co132 2.148 . S
N136 C133 1.301 . S
N136 C134 1.317 . S
N137 C133 1.328 . S
N137 C135 1.350 . S
H138 C133 0.930 . S
H139 C134 0.930 . S
C140 O141 1.224 . S
C140 O159 1.247 . S
O141 C140 1.224 . S
N142 Co132 2.128 . S
N142 C143 1.355 . S
N142 C145 1.311 . S
C143 N142 1.355 . S
C143 C144 1.363 . S
C143 H155 0.929 . S
C144 C143 1.363 . S
C144 N146 1.375 . S
C144 H162 0.931 . S
C145 N142 1.311 . S
C145 N146 1.347 . S
C145 H156 0.929 . S
N146 C144 1.375 . S
N146 C145 1.347 . S
C147 C150 1.365 . S
C147 N152 1.328 . S
C147 H153 0.929 . S
C148 C149 1.362 . S
C148 C151 1.378 . S
C148 H163 0.929 . S
C149 C148 1.362 . S
C149 C150 1.366 . S
C150 C147 1.365 . S
C150 C149 1.366 . S
C150 H164 0.930 . S
C151 C148 1.378 . S
C151 N152 1.315 . S
C151 H154 0.930 . S
N152 Co132 2.194 . S
N152 C147 1.328 . S
N152 C151 1.315 . S
H153 C147 0.929 . S
H154 C151 0.930 . S
H155 C143 0.929 . S
H156 C145 0.929 . S
O157 Co132 2.351 . S
O157 C160 1.244 . S
O158 Co132 2.155 . S
O158 C160 1.240 . S
O159 Co132 2.096 . S
O159 C140 1.247 . S
C160 O157 1.244 . S
C160 O158 1.240 . S
H161 C135 0.931 . S
H162 C144 0.931 . S
H163 C148 0.929 . S
H164 C150 0.930 . S
Co165 N169 2.148 . S
Co165 N175 2.128 . S
Co165 N185 2.194 . S
Co165 O190 2.351 . S
Co165 O191 2.155 . S
Co165 O192 2.096 . S
C166 N169 1.301 . S
C166 N170 1.328 . S
C166 H171 0.930 . S
C167 C168 1.333 . S
C167 N169 1.317 . S
C167 H172 0.930 . S
C168 C167 1.333 . S
C168 N170 1.350 . S
C168 H194 0.931 . S
N169 Co165 2.148 . S
N169 C166 1.301 . S
N169 C167 1.317 . S
N170 C166 1.328 . S
N170 C168 1.350 . S
H171 C166 0.930 . S
H172 C167 0.930 . S
C173 O174 1.224 . S
C173 O192 1.247 . S
O174 C173 1.224 . S
N175 Co165 2.128 . S
N175 C176 1.355 1_545 S
N175 C178 1.311 . S
C176 N175 1.355 1_565 S
C176 C177 1.363 . S
C176 H188 0.929 . S
C177 C176 1.363 . S
C177 N179 1.375 . S
C177 H195 0.931 . S
C178 N175 1.311 . S
C178 N179 1.347 1_545 S
C178 H189 0.929 . S
N179 C177 1.375 . S
N179 C178 1.347 1_565 S
C180 C183 1.365 1_545 S
C180 N185 1.328 . S
C180 H186 0.929 . S
C181 C182 1.362 1_545 S
C181 C184 1.378 . S
C181 H196 0.929 . S
C182 C181 1.362 1_565 S
C182 C183 1.366 . S
C183 C180 1.365 1_565 S
C183 C182 1.366 . S
C183 H197 0.930 . S
C184 C181 1.378 . S
C184 N185 1.315 . S
C184 H187 0.930 . S
N185 Co165 2.194 . S
N185 C180 1.328 . S
N185 C184 1.315 . S
H186 C180 0.929 . S
H187 C184 0.930 . S
H188 C176 0.929 . S
H189 C178 0.929 . S
O190 Co165 2.351 . S
O190 C193 1.244 . S
O191 Co165 2.155 . S
O191 C193 1.240 . S
O192 Co165 2.096 . S
O192 C173 1.247 . S
C193 O190 1.244 . S
C193 O191 1.240 . S
H194 C168 0.931 . S
H195 C177 0.931 . S
H196 C181 0.929 . S
H197 C183 0.930 . S
Co198 N202 2.148 . S
Co198 N208 2.128 . S
Co198 N218 2.194 . S
Co198 O223 2.351 . S
Co198 O224 2.155 . S
Co198 O225 2.096 . S
C199 N202 1.301 . S
C199 N203 1.328 . S
C199 H204 0.930 . S
C200 C201 1.333 . S
C200 N202 1.317 . S
C200 H205 0.930 . S
C201 C200 1.333 . S
C201 N203 1.350 . S
C201 H227 0.931 . S
N202 Co198 2.148 . S
N202 C199 1.301 . S
N202 C200 1.317 . S
N203 C199 1.328 . S
N203 C201 1.350 . S
H204 C199 0.930 . S
H205 C200 0.930 . S
C206 O207 1.224 . S
C206 O225 1.247 . S
O207 C206 1.224 . S
N208 Co198 2.128 . S
N208 C209 1.355 . S
N208 C211 1.311 . S
C209 N208 1.355 . S
C209 C210 1.363 . S
C209 H221 0.929 . S
C210 C209 1.363 . S
C210 N212 1.375 . S
C210 H228 0.931 . S
C211 N208 1.311 . S
C211 N212 1.347 . S
C211 H222 0.929 . S
N212 C210 1.375 . S
N212 C211 1.347 . S
C213 C216 1.365 . S
C213 N218 1.328 . S
C213 H219 0.929 . S
C214 C215 1.362 . S
C214 C217 1.378 . S
C214 H229 0.929 . S
C215 C214 1.362 . S
C215 C216 1.366 . S
C216 C213 1.365 . S
C216 C215 1.366 . S
C216 H230 0.930 . S
C217 C214 1.378 . S
C217 N218 1.315 . S
C217 H220 0.930 . S
N218 Co198 2.194 . S
N218 C213 1.328 . S
N218 C217 1.315 . S
H219 C213 0.929 . S
H220 C217 0.930 . S
H221 C209 0.929 . S
H222 C211 0.929 . S
O223 Co198 2.351 . S
O223 C226 1.244 . S
O224 Co198 2.155 . S
O224 C226 1.240 . S
O225 Co198 2.096 . S
O225 C206 1.247 . S
C226 O223 1.244 . S
C226 O224 1.240 . S
H227 C201 0.931 . S
H228 C210 0.931 . S
H229 C214 0.929 . S
H230 C216 0.930 . S
Co231 N235 2.148 . S
Co231 N241 2.128 . S
Co231 N251 2.194 . S
Co231 O256 2.351 . S
Co231 O257 2.155 . S
Co231 O258 2.096 . S
C232 N235 1.301 . S
C232 N236 1.328 . S
C232 H237 0.930 . S
C233 C234 1.333 . S
C233 N235 1.317 . S
C233 H238 0.930 . S
C234 C233 1.333 . S
C234 N236 1.350 . S
C234 H260 0.931 . S
N235 Co231 2.148 . S
N235 C232 1.301 . S
N235 C233 1.317 . S
N236 C232 1.328 . S
N236 C234 1.350 . S
H237 C232 0.930 . S
H238 C233 0.930 . S
C239 O240 1.224 . S
C239 O258 1.247 . S
O240 C239 1.224 . S
N241 Co231 2.128 . S
N241 C242 1.355 1_565 S
N241 C244 1.311 . S
C242 N241 1.355 1_545 S
C242 C243 1.363 . S
C242 H254 0.929 . S
C243 C242 1.363 . S
C243 N245 1.375 . S
C243 H261 0.931 . S
C244 N241 1.311 . S
C244 N245 1.347 1_565 S
C244 H255 0.929 . S
N245 C243 1.375 . S
N245 C244 1.347 1_545 S
C246 C249 1.365 1_565 S
C246 N251 1.328 . S
C246 H252 0.929 . S
C247 C248 1.362 1_565 S
C247 C250 1.378 . S
C247 H262 0.929 . S
C248 C247 1.362 1_545 S
C248 C249 1.366 . S
C249 C246 1.365 1_545 S
C249 C248 1.366 . S
C249 H263 0.930 . S
C250 C247 1.378 . S
C250 N251 1.315 . S
C250 H253 0.930 . S
N251 Co231 2.194 . S
N251 C246 1.328 . S
N251 C250 1.315 . S
H252 C246 0.929 . S
H253 C250 0.930 . S
H254 C242 0.929 . S
H255 C244 0.929 . S
O256 Co231 2.351 . S
O256 C259 1.244 . S
O257 Co231 2.155 . S
O257 C259 1.240 . S
O258 Co231 2.096 . S
O258 C239 1.247 . S
C259 O256 1.244 . S
C259 O257 1.240 . S
H260 C234 0.931 . S
H261 C243 0.931 . S
H262 C247 0.929 . S
H263 C249 0.930 . S
C264 C265 1.369 . S
C264 C266 1.419 . S
C264 H268 0.930 . S
C265 C264 1.369 . S
C265 C274 1.429 . S
C266 C264 1.419 . S
C266 C267 1.363 . S
C266 H269 0.929 . S
C267 C266 1.363 . S
C267 C273 1.428 . S
H268 C264 0.930 . S
H269 C266 0.929 . S
S270 N271 1.613 . S
S270 N272 1.610 . S
N271 S270 1.613 . S
N271 C274 1.350 . S
N272 S270 1.610 . S
N272 C273 1.351 . S
C273 C267 1.428 . S
C273 N272 1.351 . S
C273 C274 1.434 . S
C274 C265 1.429 . S
C274 N271 1.350 . S
C274 C273 1.434 . S
C275 C276 1.369 . S
C275 C277 1.419 . S
C275 H279 0.930 1_455 S
C276 C275 1.369 . S
C276 C285 1.429 . S
C277 C275 1.419 . S
C277 C278 1.363 . S
C277 H280 0.929 . S
C278 C277 1.363 . S
C278 C284 1.428 . S
H279 C275 0.930 1_655 S
H280 C277 0.929 . S
S281 N282 1.613 . S
S281 N283 1.610 . S
N282 S281 1.613 . S
N282 C285 1.350 . S
N283 S281 1.610 . S
N283 C284 1.351 . S
C284 C278 1.428 . S
C284 N283 1.351 . S
C284 C285 1.434 . S
C285 C276 1.429 . S
C285 N282 1.350 . S
C285 C284 1.434 . S
C286 C287 1.369 . S
C286 C288 1.419 . S
C286 H290 0.930 . S
C287 C286 1.369 . S
C287 C296 1.429 . S
C288 C286 1.419 . S
C288 C289 1.363 . S
C288 H291 0.929 . S
C289 C288 1.363 . S
C289 C295 1.428 . S
H290 C286 0.930 . S
H291 C288 0.929 . S
S292 N293 1.613 . S
S292 N294 1.610 . S
N293 S292 1.613 . S
N293 C296 1.350 . S
N294 S292 1.610 . S
N294 C295 1.351 . S
C295 C289 1.428 . S
C295 N294 1.351 . S
C295 C296 1.434 . S
C296 C287 1.429 . S
C296 N293 1.350 . S
C296 C295 1.434 . S
C297 C298 1.369 1_554 S
C297 C299 1.419 . S
C297 H301 0.930 1_554 S
C298 C297 1.369 1_556 S
C298 C307 1.429 1_556 S
C299 C297 1.419 . S
C299 C300 1.363 . S
C299 H302 0.931 . S
C300 C299 1.363 . S
C300 C306 1.428 . S
H301 C297 0.930 1_556 S
H302 C299 0.931 . S
S303 N304 1.613 . S
S303 N305 1.610 . S
N304 S303 1.613 . S
N304 C307 1.350 . S
N305 S303 1.610 . S
N305 C306 1.351 . S
C306 C300 1.428 . S
C306 N305 1.351 . S
C306 C307 1.434 . S
C307 C298 1.429 1_554 S
C307 N304 1.350 . S
C307 C306 1.434 . S
C308 C309 1.369 . S
C308 C310 1.419 . S
C308 H312 0.930 . S
C309 C308 1.369 . S
C309 C318 1.429 . S
C310 C308 1.419 . S
C310 C311 1.363 . S
C310 H313 0.929 . S
C311 C310 1.363 . S
C311 C317 1.428 . S
H312 C308 0.930 . S
H313 C310 0.929 . S
S314 N315 1.613 . S
S314 N316 1.610 . S
N315 S314 1.613 . S
N315 C318 1.350 . S
N316 S314 1.610 . S
N316 C317 1.351 . S
C317 C311 1.428 . S
C317 N316 1.351 . S
C317 C318 1.434 . S
C318 C309 1.429 . S
C318 N315 1.350 . S
C318 C317 1.434 . S
C319 C320 1.369 . S
C319 C321 1.419 . S
C319 H323 0.930 . S
C320 C319 1.369 . S
C320 C329 1.429 . S
C321 C319 1.419 . S
C321 C322 1.363 . S
C321 H324 0.929 . S
C322 C321 1.363 . S
C322 C328 1.428 . S
H323 C319 0.930 . S
H324 C321 0.929 . S
S325 N326 1.613 1_565 S
S325 N327 1.610 1_565 S
N326 S325 1.613 1_545 S
N326 C329 1.350 . S
N327 S325 1.610 1_545 S
N327 C328 1.351 . S
C328 C322 1.428 . S
C328 N327 1.351 . S
C328 C329 1.434 . S
C329 C320 1.429 . S
C329 N326 1.350 . S
C329 C328 1.434 . S
C330 C331 1.369 1_556 S
C330 C332 1.419 . S
C330 H334 0.930 1_556 S
C331 C330 1.369 1_554 S
C331 C340 1.429 1_554 S
C332 C330 1.419 . S
C332 C333 1.363 . S
C332 H335 0.929 . S
C333 C332 1.363 . S
C333 C339 1.428 . S
H334 C330 0.930 1_554 S
H335 C332 0.929 . S
S336 N337 1.613 . S
S336 N338 1.610 . S
N337 S336 1.613 . S
N337 C340 1.350 . S
N338 S336 1.610 . S
N338 C339 1.351 . S
C339 C333 1.428 . S
C339 N338 1.351 . S
C339 C340 1.434 . S
C340 C331 1.429 1_556 S
C340 N337 1.350 . S
C340 C339 1.434 . S
C341 C342 1.369 . S
C341 C343 1.419 . S
C341 H345 0.930 . S
C342 C341 1.369 . S
C342 C351 1.429 . S
C343 C341 1.419 . S
C343 C344 1.363 . S
C343 H346 0.929 . S
C344 C343 1.363 . S
C344 C350 1.428 . S
H345 C341 0.930 . S
H346 C343 0.929 . S
S347 N348 1.613 1_545 S
S347 N349 1.610 1_545 S
N348 S347 1.613 1_565 S
N348 C351 1.350 . S
N349 S347 1.610 1_565 S
N349 C350 1.351 . S
C350 C344 1.428 . S
C350 N349 1.351 . S
C350 C351 1.434 . S
C351 C342 1.429 . S
C351 N348 1.350 . S
C351 C350 1.434 . S
C352 C353 1.369 1_545 S
C352 C354 1.419 . S
C352 H356 0.930 . S
C353 C352 1.369 1_565 S
C353 C362 1.429 . S
C354 C352 1.419 . S
C354 C355 1.363 . S
C354 H357 0.929 . S
C355 C354 1.363 . S
C355 C361 1.428 . S
H356 C352 0.930 . S
H357 C354 0.929 . S
S358 N359 1.613 1_545 S
S358 N360 1.610 . S
N359 S358 1.613 1_565 S
N359 C362 1.350 . S
N360 S358 1.610 . S
N360 C361 1.351 . S
C361 C355 1.428 . S
C361 N360 1.351 . S
C361 C362 1.434 1_545 S
C362 C353 1.429 . S
C362 N359 1.350 . S
C362 C361 1.434 1_565 S
C363 C364 1.369 . S
C363 C365 1.419 . S
C363 H367 0.930 . S
C364 C363 1.369 . S
C364 C373 1.429 . S
C365 C363 1.419 . S
C365 C366 1.363 . S
C365 H368 0.929 . S
C366 C365 1.363 . S
C366 C372 1.428 . S
H367 C363 0.930 . S
H368 C365 0.929 . S
S369 N370 1.613 . S
S369 N371 1.610 . S
N370 S369 1.613 . S
N370 C373 1.350 . S
N371 S369 1.610 . S
N371 C372 1.351 . S
C372 C366 1.428 . S
C372 N371 1.351 . S
C372 C373 1.434 . S
C373 C364 1.429 . S
C373 N370 1.350 . S
C373 C372 1.434 . S
C374 C375 1.369 1_565 S
C374 C376 1.419 . S
C374 H378 0.930 . S
C375 C374 1.369 1_545 S
C375 C384 1.429 . S
C376 C374 1.419 . S
C376 C377 1.363 . S
C376 H379 0.929 . S
C377 C376 1.363 . S
C377 C383 1.428 . S
H378 C374 0.930 . S
H379 C376 0.929 . S
S380 N381 1.613 . S
S380 N382 1.610 1_545 S
N381 S380 1.613 . S
N381 C384 1.350 . S
N382 S380 1.610 1_565 S
N382 C383 1.351 . S
C383 C377 1.428 . S
C383 N382 1.351 . S
C383 C384 1.434 1_565 S
C384 C375 1.429 . S
C384 N381 1.350 . S
C384 C383 1.434 1_545 S
C385 C386 1.369 . S
C385 C387 1.419 . S
C385 H389 0.930 . S
C386 C385 1.369 . S
C386 C395 1.429 . S
C387 C385 1.419 . S
C387 C388 1.363 . S
C387 H390 0.929 . S
C388 C387 1.363 . S
C388 C394 1.428 . S
H389 C385 0.930 . S
H390 C387 0.929 . S
S391 N392 1.613 . S
S391 N393 1.610 . S
N392 S391 1.613 . S
N392 C395 1.350 . S
N393 S391 1.610 . S
N393 C394 1.351 . S
C394 C388 1.428 . S
C394 N393 1.351 . S
C394 C395 1.434 . S
C395 C386 1.429 . S
C395 N392 1.350 . S
C395 C394 1.434 . S
C396 C397 1.369 . S
C396 C398 1.419 . S
C396 H400 0.930 . S
C397 C396 1.369 . S
C397 C406 1.429 . S
C398 C396 1.419 . S
C398 C399 1.363 . S
C398 H401 0.929 . S
C399 C398 1.363 . S
C399 C405 1.428 . S
H400 C396 0.930 . S
H401 C398 0.929 . S
S402 N403 1.613 . S
S402 N404 1.610 . S
N403 S402 1.613 . S
N403 C406 1.350 . S
N404 S402 1.610 . S
N404 C405 1.351 . S
C405 C399 1.428 . S
C405 N404 1.351 . S
C405 C406 1.434 . S
C406 C397 1.429 . S
C406 N403 1.350 . S
C406 C405 1.434 . S
C407 C408 1.369 . S
C407 C409 1.419 . S
C407 H411 0.930 . S
C408 C407 1.369 . S
C408 C417 1.429 . S
C409 C407 1.419 . S
C409 C410 1.363 1_455 S
C409 H412 0.929 . S
C410 C409 1.363 1_655 S
C410 C416 1.428 . S
H411 C407 0.930 . S
H412 C409 0.929 . S
S413 N414 1.613 1_655 S
S413 N415 1.610 . S
N414 S413 1.613 1_455 S
N414 C417 1.350 . S
N415 S413 1.610 . S
N415 C416 1.351 . S
C416 C410 1.428 . S
C416 N415 1.351 . S
C416 C417 1.434 1_655 S
C417 C408 1.429 . S
C417 N414 1.350 . S
C417 C416 1.434 1_455 S
C418 C419 1.369 . S
C418 C420 1.419 . S
C418 H422 0.930 . S
C419 C418 1.369 . S
C419 C428 1.429 . S
C420 C418 1.419 . S
C420 C421 1.363 . S
C420 H423 0.929 . S
C421 C420 1.363 . S
C421 C427 1.428 . S
H422 C418 0.930 . S
H423 C420 0.929 . S
S424 N425 1.613 . S
S424 N426 1.610 . S
N425 S424 1.613 . S
N425 C428 1.350 . S
N426 S424 1.610 . S
N426 C427 1.351 . S
C427 C421 1.428 . S
C427 N426 1.351 . S
C427 C428 1.434 . S
C428 C419 1.429 . S
C428 N425 1.350 . S
C428 C427 1.434 . S
C429 C430 1.369 . S
C429 C431 1.419 . S
C429 H433 0.930 . S
C430 C429 1.369 . S
C430 C439 1.429 . S
C431 C429 1.419 . S
C431 C432 1.363 1_655 S
C431 H434 0.929 . S
C432 C431 1.363 1_455 S
C432 C438 1.428 . S
H433 C429 0.930 . S
H434 C431 0.929 . S
S435 N436 1.613 1_455 S
S435 N437 1.610 . S
N436 S435 1.613 1_655 S
N436 C439 1.350 . S
N437 S435 1.610 . S
N437 C438 1.351 . S
C438 C432 1.428 . S
C438 N437 1.351 . S
C438 C439 1.434 1_455 S
C439 C430 1.429 . S
C439 N436 1.350 . S
C439 C438 1.434 1_655 S
C440 C441 1.369 . S
C440 C442 1.419 . S
C440 H444 0.930 . S
C441 C440 1.369 . S
C441 C450 1.429 . S
C442 C440 1.419 . S
C442 C443 1.363 . S
C442 H445 0.929 . S
C443 C442 1.363 . S
C443 C449 1.428 . S
H444 C440 0.930 . S
H445 C442 0.929 . S
S446 N447 1.613 1_455 S
S446 N448 1.610 1_565 S
N447 S446 1.613 1_655 S
N447 C450 1.350 1_565 S
N448 S446 1.610 1_545 S
N448 C449 1.351 1_455 S
C449 C443 1.428 . S
C449 N448 1.351 1_655 S
C449 C450 1.434 . S
C450 C441 1.429 . S
C450 N447 1.350 1_545 S
C450 C449 1.434 . S
C451 C452 1.369 . S
C451 C453 1.419 . S
C451 H455 0.930 . S
C452 C451 1.369 . S
C452 C461 1.429 . S
C453 C451 1.419 . S
C453 C454 1.363 . S
C453 H456 0.929 . S
C454 C453 1.363 . S
C454 C460 1.428 . S
H455 C451 0.930 . S
H456 C453 0.929 . S
S457 N458 1.613 . S
S457 N459 1.610 . S
N458 S457 1.613 . S
N458 C461 1.350 . S
N459 S457 1.610 . S
N459 C460 1.351 . S
C460 C454 1.428 . S
C460 N459 1.351 . S
C460 C461 1.434 . S
C461 C452 1.429 . S
C461 N458 1.350 . S
C461 C460 1.434 . S
C462 C463 1.369 . S
C462 C464 1.419 . S
C462 H466 0.930 . S
C463 C462 1.369 . S
C463 C472 1.429 . S
C464 C462 1.419 . S
C464 C465 1.363 . S
C464 H467 0.929 1_565 S
C465 C464 1.363 . S
C465 C471 1.428 . S
H466 C462 0.930 . S
H467 C464 0.929 1_545 S
S468 N469 1.613 . S
S468 N470 1.610 . S
N469 S468 1.613 . S
N469 C472 1.350 . S
N470 S468 1.610 . S
N470 C471 1.351 . S
C471 C465 1.428 . S
C471 N470 1.351 . S
C471 C472 1.434 . S
C472 C463 1.429 . S
C472 N469 1.350 . S
C472 C471 1.434 . S
C473 C474 1.369 . S
C473 C475 1.419 1_556 S
C473 H477 0.930 . S
C474 C473 1.369 . S
C474 C483 1.429 . S
C475 C473 1.419 1_554 S
C475 C476 1.363 . S
C475 H478 0.929 . S
C476 C475 1.363 . S
C476 C482 1.428 . S
H477 C473 0.930 . S
H478 C475 0.929 . S
S479 N480 1.613 1_554 S
S479 N481 1.610 . S
N480 S479 1.613 1_556 S
N480 C483 1.350 . S
N481 S479 1.610 . S
N481 C482 1.351 . S
C482 C476 1.428 . S
C482 N481 1.351 . S
C482 C483 1.434 1_554 S
C483 C474 1.429 . S
C483 N480 1.350 . S
C483 C482 1.434 1_556 S
C265 C28 1.230 . S
C267 C50 1.225 . S
C276 C83 1.226 . S
C278 C61 1.230 . S
C287 C116 1.226 . S
C289 C94 1.230 . S
C298 C127 1.229 . S
C300 C17 1.226 . S
C309 C160 1.229 . S
C311 C248 1.225 . S
C320 C193 1.234 . S
C322 C149 1.221 . S
C331 C226 1.229 . S
C333 C182 1.225 . S
C342 C259 1.234 . S
C344 C215 1.221 . S
C353 N203 1.806 . S
C355 C8 1.783 . S
C364 N236 1.808 . S
C366 C41 1.784 . S
C375 N137 1.807 . S
C377 C74 1.783 . S
C386 N170 1.808 . S
C388 C107 1.784 . S
C397 C140 1.784 . S
C399 N71 1.806 . S
C408 C173 1.784 . S
C410 N104 1.808 . S
C419 C206 1.782 . S
C421 N5 1.807 . S
C430 C239 1.782 . S
C432 N38 1.807 . S
C441 N245 1.490 . S
C443 N14 1.486 . S
C452 N146 1.479 . S
C454 N47 1.484 . S
C463 N80 1.480 . S
C465 N179 1.485 . S
C474 N113 1.479 . S
C476 N212 1.484 . S
