# Generated by pormake.
# Topology une, (4)-cn, num edge types: 1
# Building blocks:
#     Node 0, Type 0, BuildingBlock: NAHDIM_clean_sbu_0, # of connection points: 4
#     Node 1, Type 0, BuildingBlock: NAHDIM_clean_sbu_0, # of connection points: 4
#     Node 2, Type 0, BuildingBlock: NAHDIM_clean_sbu_0, # of connection points: 4
#     Node 3, Type 0, BuildingBlock: NAHDIM_clean_sbu_0, # of connection points: 4
#     Node 4, Type 0, BuildingBlock: NAHDIM_clean_sbu_0, # of connection points: 4
#     Node 5, Type 0, BuildingBlock: NAHDIM_clean_sbu_0, # of connection points: 4
#     Node 6, Type 0, BuildingBlock: NAHDIM_clean_sbu_0, # of connection points: 4
#     Node 7, Type 0, BuildingBlock: NAHDIM_clean_sbu_0, # of connection points: 4
#     Node 8, Type 0, BuildingBlock: NAHDIM_clean_sbu_0, # of connection points: 4
#     Node 9, Type 0, BuildingBlock: NAHDIM_clean_sbu_0, # of connection points: 4
#     Node 10, Type 0, BuildingBlock: NAHDIM_clean_sbu_0, # of connection points: 4
#     Node 11, Type 0, BuildingBlock: NAHDIM_clean_sbu_0, # of connection points: 4
#     Node 12, Type 0, BuildingBlock: NAHDIM_clean_sbu_0, # of connection points: 4
#     Node 13, Type 0, BuildingBlock: NAHDIM_clean_sbu_0, # of connection points: 4
#     Node 14, Type 0, BuildingBlock: NAHDIM_clean_sbu_0, # of connection points: 4
#     Node 15, Type 0, BuildingBlock: NAHDIM_clean_sbu_0, # of connection points: 4
#     Node 16, Type 0, BuildingBlock: NAHDIM_clean_sbu_0, # of connection points: 4
#     Node 17, Type 0, BuildingBlock: NAHDIM_clean_sbu_0, # of connection points: 4
#     Edge 18, Type (0, 0), BuildingBlock: CIFDUS_clean_linker_0, # of connection points: 2
#     Edge 19, Type (0, 0), BuildingBlock: CIFDUS_clean_linker_0, # of connection points: 2
#     Edge 20, Type (0, 0), BuildingBlock: CIFDUS_clean_linker_0, # of connection points: 2
#     Edge 21, Type (0, 0), BuildingBlock: CIFDUS_clean_linker_0, # of connection points: 2
#     Edge 22, Type (0, 0), BuildingBlock: CIFDUS_clean_linker_0, # of connection points: 2
#     Edge 23, Type (0, 0), BuildingBlock: CIFDUS_clean_linker_0, # of connection points: 2
#     Edge 24, Type (0, 0), BuildingBlock: CIFDUS_clean_linker_0, # of connection points: 2
#     Edge 25, Type (0, 0), BuildingBlock: CIFDUS_clean_linker_0, # of connection points: 2
#     Edge 26, Type (0, 0), BuildingBlock: CIFDUS_clean_linker_0, # of connection points: 2
#     Edge 27, Type (0, 0), BuildingBlock: CIFDUS_clean_linker_0, # of connection points: 2
#     Edge 28, Type (0, 0), BuildingBlock: CIFDUS_clean_linker_0, # of connection points: 2
#     Edge 29, Type (0, 0), BuildingBlock: CIFDUS_clean_linker_0, # of connection points: 2
#     Edge 30, Type (0, 0), BuildingBlock: CIFDUS_clean_linker_0, # of connection points: 2
#     Edge 31, Type (0, 0), BuildingBlock: CIFDUS_clean_linker_0, # of connection points: 2
#     Edge 32, Type (0, 0), BuildingBlock: CIFDUS_clean_linker_0, # of connection points: 2
#     Edge 33, Type (0, 0), BuildingBlock: CIFDUS_clean_linker_0, # of connection points: 2
#     Edge 34, Type (0, 0), BuildingBlock: CIFDUS_clean_linker_0, # of connection points: 2
#     Edge 35, Type (0, 0), BuildingBlock: CIFDUS_clean_linker_0, # of connection points: 2
#     Edge 36, Type (0, 0), BuildingBlock: CIFDUS_clean_linker_0, # of connection points: 2
#     Edge 37, Type (0, 0), BuildingBlock: CIFDUS_clean_linker_0, # of connection points: 2
#     Edge 38, Type (0, 0), BuildingBlock: CIFDUS_clean_linker_0, # of connection points: 2
#     Edge 39, Type (0, 0), BuildingBlock: CIFDUS_clean_linker_0, # of connection points: 2
#     Edge 40, Type (0, 0), BuildingBlock: CIFDUS_clean_linker_0, # of connection points: 2
#     Edge 41, Type (0, 0), BuildingBlock: CIFDUS_clean_linker_0, # of connection points: 2
#     Edge 42, Type (0, 0), BuildingBlock: CIFDUS_clean_linker_0, # of connection points: 2
#     Edge 43, Type (0, 0), BuildingBlock: CIFDUS_clean_linker_0, # of connection points: 2
#     Edge 44, Type (0, 0), BuildingBlock: CIFDUS_clean_linker_0, # of connection points: 2
#     Edge 45, Type (0, 0), BuildingBlock: CIFDUS_clean_linker_0, # of connection points: 2
#     Edge 46, Type (0, 0), BuildingBlock: CIFDUS_clean_linker_0, # of connection points: 2
#     Edge 47, Type (0, 0), BuildingBlock: CIFDUS_clean_linker_0, # of connection points: 2
#     Edge 48, Type (0, 0), BuildingBlock: CIFDUS_clean_linker_0, # of connection points: 2
#     Edge 49, Type (0, 0), BuildingBlock: CIFDUS_clean_linker_0, # of connection points: 2
#     Edge 50, Type (0, 0), BuildingBlock: CIFDUS_clean_linker_0, # of connection points: 2
#     Edge 51, Type (0, 0), BuildingBlock: CIFDUS_clean_linker_0, # of connection points: 2
#     Edge 52, Type (0, 0), BuildingBlock: CIFDUS_clean_linker_0, # of connection points: 2
#     Edge 53, Type (0, 0), BuildingBlock: CIFDUS_clean_linker_0, # of connection points: 2
# Relax obj value: 0.227
# Max RMSD: 0.185
# Mean RMSD: 0.173
data_MOF--net-une--node1-NAHDIM_clean_sbu_0--edge1-CIFDUS_clean_linker_0
_symmetry_space_group_name_H-M    P1
_symmetry_Int_Tables_number       1
_symmetry_cell_setting            triclinic
loop_
_symmetry_equiv_pos_as_xyz
'x, y, z'
_cell_length_a     33.043537
_cell_length_b     32.693898
_cell_length_c     49.128677
_cell_angle_alpha  90.677475
_cell_angle_beta   89.904284
_cell_angle_gamma 120.26385
loop_
_atom_site_label
_atom_site_type_symbol
_atom_site_fract_x
_atom_site_fract_y
_atom_site_fract_z
_atom_type_partial_charge
C0 C 0.46708 0.04566 0.01353 0.0
O1 O 0.46825 0.0846 0.00585 0.0
O2 O 0.37885 0.07451 0.01567 0.0
Zn3 Zn 0.38514 0.03213 0.04272 0.0
O4 O 0.32512 0.96994 0.04229 0.0
C5 C 0.41098 0.10768 0.08167 0.0
O6 O 0.43271 0.13329 0.06035 0.0
O7 O 0.43672 0.01941 0.03091 0.0
C8 C 0.28656 0.96738 0.04843 0.0
O9 O 0.28662 0.00597 0.05629 0.0
C10 C 0.34825 0.06095 0.99685 0.0
O11 O 0.31891 0.01553 0.99296 0.0
O12 O 0.39171 0.06282 0.07982 0.0
C13 C 0.91034 0.26232 0.13273 0.0
O14 O 0.95558 0.29275 0.13323 0.0
O15 O 0.98709 0.30507 0.07735 0.0
Zn16 Zn 0.921 0.29195 0.07697 0.0
O17 O 0.8915 0.24754 0.04524 0.0
C18 C 0.94494 0.3743 0.04848 0.0
O19 O 0.96429 0.35483 0.03386 0.0
O20 O 0.88729 0.25793 0.11113 0.0
C21 C 0.86572 0.24931 0.02669 0.0
O22 O 0.85374 0.28198 0.02787 0.0
C23 C 0.99372 0.27011 0.07542 0.0
O24 O 0.95733 0.22698 0.07609 0.0
O25 O 0.92247 0.35331 0.0698 0.0
C26 C 0.71424 0.67845 0.13916 0.0
O27 O 0.71834 0.71887 0.13187 0.0
O28 O 0.67005 0.7094 0.08209 0.0
Zn29 Zn 0.65966 0.64412 0.08932 0.0
O30 O 0.69355 0.62809 0.06102 0.0
C31 C 0.56887 0.60438 0.06623 0.0
O32 O 0.58928 0.64662 0.05536 0.0
O33 O 0.68774 0.64119 0.12532 0.0
C34 C 0.69655 0.63868 0.03602 0.0
O35 O 0.67713 0.66252 0.02708 0.0
C36 C 0.70826 0.74163 0.07211 0.0
O37 O 0.74322 0.73375 0.06877 0.0
O38 O 0.59133 0.59508 0.08377 0.0
C39 C 0.68004 0.87995 0.87765 0.0
O40 O 0.66669 0.85505 0.90005 0.0
O41 O 0.62735 0.94949 0.92592 0.0
Zn42 Zn 0.68705 0.95011 0.91548 0.0
O43 O 0.70362 0.91686 0.94365 0.0
C44 C 0.72809 0.05107 0.91462 0.0
O45 O 0.68784 0.04049 0.90341 0.0
O46 O 0.68804 0.92235 0.8784 0.0
C47 C 0.70309 0.92305 0.96919 0.0
O48 O 0.68984 0.95212 0.9788 0.0
C49 C 0.59649 0.92145 0.94252 0.0
O50 O 0.59773 0.88404 0.95082 0.0
O51 O 0.73707 0.01815 0.91879 0.0
C52 C 0.03254 0.69412 0.89044 0.0
O53 O 0.01017 0.64763 0.89099 0.0
O54 O -0.00027 0.62832 0.9563 0.0
Zn55 Zn 0.00537 0.69128 0.94807 0.0
O56 O 0.0493 0.73813 0.97572 0.0
C57 C 0.9042 0.64839 0.95169 0.0
O58 O 0.90393 0.60827 0.94882 0.0
O59 O 0.03381 0.71725 0.91167 0.0
C60 C 0.04412 0.77098 0.9861 0.0
O61 O 0.00743 0.77422 0.97927 0.0
C62 C 0.9871 0.61328 0.98038 0.0
O63 O 0.97838 0.6389 0.99761 0.0
O64 O 0.94285 0.68729 0.95118 0.0
C65 C 0.21704 0.31584 0.91904 0.0
O66 O 0.19068 0.28032 0.93505 0.0
O67 O 0.33774 0.38925 0.97738 0.0
Zn68 Zn 0.28157 0.33175 0.96157 0.0
O69 O 0.23058 0.3137 0.98903 0.0
C70 C 0.33871 0.28896 0.95553 0.0
O71 O 0.37232 0.33341 0.95415 0.0
O72 O 0.25954 0.34396 0.92579 0.0
C73 C 0.20559 0.27267 0.99889 0.0
O74 O 0.21229 0.23805 0.99089 0.0
C75 C 0.34407 0.4309 0.97728 0.0
O76 O 0.31394 0.43902 0.96453 0.0
O77 O 0.29651 0.27943 0.9577 0.0
C78 C 0.13346 0.39489 0.33369 0.0
O79 O 0.14017 0.43643 0.32651 0.0
O80 O 0.05764 0.43885 0.33713 0.0
Zn81 Zn 0.05678 0.39222 0.36374 0.0
O82 O 0.99222 0.33535 0.36227 0.0
C83 C 0.05204 0.39766 0.42283 0.0
O84 O 0.03624 0.35194 0.42115 0.0
O85 O 0.10217 0.37114 0.35125 0.0
C86 C 0.98405 0.2939 0.36739 0.0
O87 O 0.01878 0.2877 0.37474 0.0
C88 C 0.03107 0.42569 0.3163 0.0
O89 O 0.00303 0.38027 0.31145 0.0
O90 O 0.06637 0.42225 0.40136 0.0
C91 C 0.60998 0.60276 0.46275 0.0
O92 O 0.65572 0.62335 0.46047 0.0
O93 O 0.67314 0.62229 0.40269 0.0
Zn94 Zn 0.6147 0.62606 0.40581 0.0
O95 O 0.56687 0.58246 0.37862 0.0
C96 C 0.65876 0.71036 0.37616 0.0
O97 O 0.67868 0.68746 0.36611 0.0
O98 O 0.58602 0.60329 0.44269 0.0
C99 C 0.57491 0.57275 0.35482 0.0
O100 O 0.61827 0.59099 0.34634 0.0
C101 C 0.67428 0.58467 0.39783 0.0
O102 O 0.63486 0.54402 0.39577 0.0
O103 O 0.62984 0.69202 0.39567 0.0
C104 C 0.40438 0.02899 0.46633 0.0
O105 O 0.41729 0.06967 0.45467 0.0
O106 O 0.35424 0.05284 0.40696 0.0
Zn107 Zn 0.34769 0.99031 0.41737 0.0
O108 O 0.38759 0.97736 0.39189 0.0
C109 C 0.25775 0.94283 0.39206 0.0
O110 O 0.27725 0.98266 0.37855 0.0
O111 O 0.37265 0.99098 0.4551 0.0
C112 C 0.38968 0.98287 0.36624 0.0
O113 O 0.36322 -0.00306 0.35446 0.0
C114 C 0.39178 0.08464 0.39609 0.0
O115 O 0.42844 0.07903 0.39519 0.0
O116 O 0.28066 0.93792 0.41131 0.0
C117 C 0.31941 0.19172 0.20955 0.0
O118 O 0.29463 0.16636 0.23027 0.0
O119 O 0.27343 0.27431 0.24835 0.0
Zn120 Zn 0.33127 0.26784 0.245 0.0
O121 O 0.33614 0.23262 0.27696 0.0
C122 C 0.38336 0.36254 0.26407 0.0
O123 O 0.34184 0.35029 0.27386 0.0
O124 O 0.33652 0.23638 0.2104 0.0
C125 C 0.32582 0.23706 0.30134 0.0
O126 O 0.3084 0.26448 0.30693 0.0
C127 C 0.23668 0.24648 0.26152 0.0
O128 O 0.23035 0.20522 0.26902 0.0
O129 O 0.3879 0.33317 0.24906 0.0
C130 C 0.76067 0.06359 0.24213 0.0
O131 O 0.78793 0.06576 0.26219 0.0
O132 O 0.69012 0.94669 0.28829 0.0
Zn133 Zn 0.69404 0.00923 0.28205 0.0
O134 O 0.73942 0.05691 0.30904 0.0
C135 C 0.6157 0.97971 0.31393 0.0
O136 O 0.64186 0.9678 0.32803 0.0
O137 O 0.71649 0.03749 0.24468 0.0
C138 C 0.75981 0.04868 0.32833 0.0
O139 O 0.74963 0.00504 0.33293 0.0
C140 C 0.72075 0.93459 0.28489 0.0
O141 O 0.76053 0.96367 0.27297 0.0
O142 O 0.63073 -0.00012 0.29117 0.0
C143 C 0.91342 0.72325 0.24701 0.0
O144 O 0.92868 0.75364 0.26748 0.0
O145 O 0.01258 0.74656 0.29174 0.0
Zn146 Zn 0.9595 0.68455 0.27736 0.0
O147 O 0.91205 0.65581 0.30688 0.0
C148 C 0.02533 0.65144 0.26837 0.0
O149 O 0.05724 0.69657 0.27012 0.0
O150 O 0.92491 0.69156 0.24576 0.0
C151 C 0.88034 0.61242 0.3057 0.0
O152 O 0.87979 0.58609 0.28513 0.0
C153 C 0.02812 0.74546 0.31524 0.0
O154 O 0.00878 0.70512 0.32827 0.0
O155 O 0.98223 0.63918 0.26919 0.0
C156 C 0.77401 0.69156 0.66646 0.0
O157 O 0.73596 0.68281 0.65316 0.0
O158 O 0.72744 0.77054 0.67431 0.0
Zn159 Zn 0.7329 0.7282 0.70181 0.0
O160 O 0.67087 0.66797 0.70268 0.0
C161 C 0.72753 0.73779 0.76028 0.0
O162 O 0.71102 0.69189 0.75955 0.0
O163 O 0.78241 0.71272 0.6895 0.0
C164 C 0.66488 0.6271 0.70708 0.0
O165 O 0.70122 0.62253 0.7128 0.0
C166 C 0.69298 0.75525 0.65787 0.0
O167 O 0.66127 0.70998 0.65754 0.0
O168 O 0.74277 0.76116 0.73846 0.0
C169 C 0.18265 0.87081 0.77167 0.0
O170 O 0.18276 0.84731 0.74983 0.0
O171 O 0.30589 0.94931 0.73866 0.0
Zn172 Zn 0.24419 0.9472 0.73803 0.0
O173 O 0.20953 0.90939 0.70495 0.0
C174 C 0.27989 0.03159 0.71046 0.0
O175 O 0.29128 0.00602 0.69488 0.0
O176 O 0.20673 0.91586 0.77174 0.0
C177 C 0.17765 0.91305 0.6928 0.0
O178 O 0.16483 0.94248 0.70236 0.0
C179 C 0.30907 0.91462 0.72936 0.0
O180 O 0.27075 0.8757 0.72184 0.0
O181 O 0.25779 0.01377 0.73242 0.0
C182 C 0.07107 0.31769 0.78994 0.0
O183 O 0.09896 0.34732 0.77149 0.0
O184 O 0.02421 0.36507 0.73976 0.0
Zn185 Zn 0.0094 0.29849 0.74623 0.0
O186 O 0.04781 0.28393 0.72022 0.0
C187 C 0.92867 0.26381 0.71405 0.0
O188 O 0.95951 0.30035 0.7001 0.0
O189 O 0.02771 0.29169 0.7843 0.0
C190 C 0.0674 0.30953 0.69961 0.0
O191 O 0.06225 0.34612 0.69498 0.0
C192 C -0.00128 0.38175 0.74759 0.0
O193 O 0.96316 0.35651 0.76374 0.0
O194 O 0.94132 0.25456 0.73652 0.0
C195 C 0.00682 0.53156 0.54619 0.0
O196 O -0.00279 0.50665 0.5685 0.0
O197 O 0.95274 0.60174 0.59557 0.0
Zn198 Zn 0.01122 0.60037 0.58493 0.0
O199 O 0.02293 0.56438 0.6137 0.0
C200 C 0.05788 0.70209 0.58677 0.0
O201 O 0.01705 0.69474 0.57828 0.0
O202 O 0.01165 0.57274 0.54759 0.0
C203 C 0.01131 0.56409 0.6384 0.0
O204 O 0.99042 0.58767 0.64563 0.0
C205 C 0.91972 0.59948 0.58124 0.0
O206 O 0.91881 0.59175 0.55488 0.0
O207 O 0.06441 0.66712 0.58876 0.0
C208 C 0.45015 0.41202 0.57327 0.0
O209 O 0.47502 0.41466 0.59475 0.0
O210 O 0.36795 0.29379 0.61786 0.0
Zn211 Zn 0.37612 0.35793 0.61031 0.0
O212 O 0.41892 0.40245 0.63913 0.0
C213 C 0.27509 0.31736 0.61496 0.0
O214 O 0.27319 0.27648 0.61181 0.0
O215 O 0.40575 0.38612 0.57418 0.0
C216 C 0.41873 0.44018 0.64522 0.0
O217 O 0.3881 0.44867 0.63342 0.0
C218 C 0.35563 0.28021 0.64219 0.0
O219 O 0.35013 0.30833 0.65922 0.0
O220 O 0.31439 0.35551 0.61391 0.0
C221 C 0.58288 0.06134 0.58541 0.0
O222 O 0.6021 0.09545 0.60378 0.0
O223 O 0.66626 0.06848 0.63967 0.0
Zn224 Zn 0.61144 0.0114 0.62217 0.0
O225 O 0.55904 0.98492 0.64902 0.0
C226 C 0.67303 0.97457 0.61152 0.0
O227 O 0.70491 0.01966 0.60999 0.0
O228 O 0.58552 0.02419 0.58834 0.0
C229 C 0.52715 0.9416 0.64824 0.0
O230 O 0.52924 0.91333 0.62977 0.0
C231 C 0.67701 0.06033 0.66305 0.0
O232 O 0.65121 0.018 0.67341 0.0
O233 O 0.63043 0.96279 0.61516 0.0
H234 H 0.45978 0.95864 0.01528 0.0
H235 H 0.54042 0.09688 0.97955 0.0
H236 H 0.58556 0.06986 0.95343 0.0
H237 H 0.60205 0.00723 0.94047 0.0
H238 H 0.52243 0.86897 0.97627 0.0
H239 H 0.47655 0.8956 0.00225 0.0
C240 C 0.48749 0.98298 0.00195 0.0
C241 C 0.49672 0.02983 0.99949 0.0
C242 C 0.51309 0.96704 0.98669 0.0
C243 C 0.53253 0.0607 0.98191 0.0
C244 C 0.55828 0.04522 0.96685 0.0
C245 C 0.57432 0.98264 0.9537 0.0
C246 C 0.56554 0.93598 0.95622 0.0
C247 C 0.54865 -0.00159 0.96892 0.0
C248 C 0.52983 0.90497 0.9738 0.0
C249 C 0.50372 0.92026 0.98878 0.0
H250 H 0.98007 0.41966 1.00089 0.0
H251 H 0.9185 0.43004 0.07635 0.0
H252 H 0.92616 0.50491 0.06183 0.0
H253 H 0.95086 0.56753 0.02787 0.0
H254 H 0.01115 0.55619 0.95211 0.0
H255 H 0.00336 0.48136 0.96665 0.0
C256 C 0.96834 0.43827 0.01422 0.0
C257 C 0.94889 0.41934 0.03973 0.0
C258 C 0.9726 0.48107 0.00568 0.0
C259 C 0.93359 0.4438 0.05662 0.0
C260 C 0.938 0.48663 0.04834 0.0
C261 C 0.96235 0.54874 0.01452 0.0
C262 C 0.98173 0.56756 0.98896 0.0
C263 C 0.95755 0.50562 0.02294 0.0
C264 C -0.00388 0.54254 0.97187 0.0
C265 C 0.99172 0.49976 0.98018 0.0
H266 H 0.39562 0.42118 0.01687 0.0
H267 H 0.3812 0.52643 0.9726 0.0
H268 H 0.44772 0.58948 0.99769 0.0
H269 H 0.51169 0.61448 0.03079 0.0
H270 H 0.52529 0.50912 0.07555 0.0
H271 H 0.45666 0.44622 0.05195 0.0
C272 C 0.40706 0.45793 0.01266 0.0
C273 C 0.38386 0.46915 0.99266 0.0
C274 C 0.44489 0.49389 0.02737 0.0
C275 C 0.3986 0.51688 0.9878 0.0
C276 C 0.43658 0.55292 0.00215 0.0
C277 C 0.49942 0.57777 0.03561 0.0
C278 C 0.52381 0.56655 0.0548 0.0
C279 C 0.46018 0.54181 0.02183 0.0
C280 C 0.50719 0.51879 0.0609 0.0
C281 C 0.4681 0.48278 0.04729 0.0
H282 H 0.11248 0.30258 0.33318 0.0
H283 H 0.20896 0.43987 0.30036 0.0
H284 H 0.2466 0.40532 0.27346 0.0
H285 H 0.25285 0.3367 0.25951 0.0
H286 H 0.15773 0.19928 0.29265 0.0
H287 H 0.11816 0.23316 0.31856 0.0
C288 C 0.14198 0.32501 0.32031 0.0
C289 C 0.15803 0.37387 0.31897 0.0
C290 C 0.16328 0.30479 0.3046 0.0
C291 C 0.19594 0.40223 0.3019 0.0
C292 C 0.2174 0.38247 0.28638 0.0
C293 C 0.22317 0.31391 0.27216 0.0
C294 C 0.20839 0.26541 0.27407 0.0
C295 C 0.20129 0.3338 0.2875 0.0
C296 C 0.16985 0.23667 0.29068 0.0
C297 C 0.14738 0.2561 0.30569 0.0
H298 H 0.72134 0.75901 0.3364 0.0
H299 H 0.61317 0.75952 0.38563 0.0
H300 H 0.6219 0.82787 0.36086 0.0
H301 H 0.65912 0.88627 0.32493 0.0
H302 H 0.76886 0.88762 0.27645 0.0
H303 H 0.76017 0.81901 0.30114 0.0
C304 C 0.69977 0.77416 0.34184 0.0
C305 C 0.66653 0.75407 0.36283 0.0
C306 C 0.70491 0.81334 0.32748 0.0
C307 C 0.63909 0.77433 0.36964 0.0
C308 C 0.64389 0.81325 0.35539 0.0
C309 C 0.68094 0.87139 0.31955 0.0
C310 C 0.7143 0.89172 0.29865 0.0
C311 C 0.67638 0.83272 0.33415 0.0
C312 C 0.74279 0.87246 0.29233 0.0
C313 C 0.73791 0.83337 0.3065 0.0
H314 H 0.07288 0.75162 0.36278 0.0
H315 H 0.07539 0.83485 0.29451 0.0
H316 H 0.14504 0.90393 0.31328 0.0
H317 H 0.20698 0.93959 0.34789 0.0
H318 H 0.20589 0.8559 0.41552 0.0
H319 H 0.13352 0.78809 0.39822 0.0
C320 C 0.08846 0.78491 0.35205 0.0
C321 C 0.069 0.78796 0.3272 0.0
C322 C 0.12873 0.82437 0.36282 0.0
C323 C 0.0897 0.83143 0.31361 0.0
C324 C 0.12954 0.87097 0.32433 0.0
C325 C 0.19078 0.90667 0.35902 0.0
C326 C 0.21196 0.90284 0.38295 0.0
C327 C 0.1496 0.86768 0.34876 0.0
C328 C 0.19042 0.85983 0.39704 0.0
C329 C 0.14908 0.821 0.38712 0.0
H330 H 0.92519 0.63688 0.63179 0.0
H331 H 0.83916 0.58967 0.55925 0.0
H332 H 0.78638 0.61348 0.57949 0.0
H333 H 0.76584 0.64937 0.61721 0.0
H334 H 0.85293 0.69845 0.68929 0.0
H335 H 0.90433 0.6723 0.66966 0.0
C336 C 0.8947 0.6314 0.62043 0.0
C337 C 0.88611 0.61133 0.59401 0.0
C338 C 0.86491 0.64581 0.63203 0.0
C339 C 0.84664 0.60498 0.57958 0.0
C340 C 0.81648 0.61867 0.59114 0.0
C341 C 0.79602 0.65436 0.6287 0.0
C342 C 0.80551 0.67597 0.65472 0.0
C343 C 0.8255 0.63945 0.61725 0.0
C344 C 0.84484 0.68209 0.66923 0.0
C345 C 0.8742 0.66706 0.65803 0.0
H346 H 0.31848 0.23842 0.69038 0.0
H347 H 0.369 0.2154 0.61391 0.0
H348 H 0.35049 0.13668 0.6286 0.0
H349 H 0.31935 0.0744 0.66288 0.0
H350 H 0.26748 0.09683 0.73901 0.0
H351 H 0.28722 0.17608 0.72464 0.0
C352 C 0.32562 0.2163 0.67692 0.0
C353 C 0.34519 0.23282 0.65108 0.0
C354 C 0.31458 0.17103 0.6854 0.0
C355 C 0.35395 0.20355 0.63388 0.0
C356 C 0.34337 0.15854 0.64227 0.0
C357 C 0.31242 0.0966 0.6764 0.0
C358 C 0.292 0.07971 0.70202 0.0
C359 C 0.32359 0.14192 0.66795 0.0
C360 C 0.28312 0.10893 0.71919 0.0
C361 C 0.29442 0.15425 0.71099 0.0
H362 H 0.74233 0.14813 0.64576 0.0
H363 H 0.70854 0.05208 0.71276 0.0
H364 H 0.78224 0.10744 0.73519 0.0
H365 H 0.85836 0.18128 0.73472 0.0
H366 H 0.89238 0.2768 0.66741 0.0
H367 H 0.81664 0.22369 0.64639 0.0
C368 C 0.75089 0.13948 0.66537 0.0
C369 C 0.72003 0.0959 0.67744 0.0
C370 C 0.79358 0.17132 0.67813 0.0
C371 C 0.7317 0.0853 0.7029 0.0
C372 C 0.77392 0.11692 0.71578 0.0
C373 C 0.84906 0.19064 0.71557 0.0
C374 C 0.8812 0.2328 0.70262 0.0
C375 C 0.80545 0.15975 0.70341 0.0
C376 C 0.86848 0.24443 0.6778 0.0
C377 C 0.82512 0.21407 0.66571 0.0
H378 H 0.34927 0.06448 0.12313 0.0
H379 H 0.4523 0.20207 0.0936 0.0
H380 H 0.43235 0.2402 0.12998 0.0
H381 H 0.38418 0.23472 0.1695 0.0
H382 H 0.28103 0.09715 0.19898 0.0
H383 H 0.30218 0.05899 0.1632 0.0
C384 C 0.36781 0.1028 0.12484 0.0
C385 C 0.40236 0.13029 0.10564 0.0
C386 C 0.35569 0.12461 0.14562 0.0
C387 C 0.42562 0.17995 0.10808 0.0
C388 C 0.41408 0.20186 0.12883 0.0
C389 C 0.36611 0.19639 0.16802 0.0
C390 C 0.33086 0.16891 0.18686 0.0
C391 C 0.37878 0.17457 0.14752 0.0
C392 C 0.3082 0.11925 0.18475 0.0
C393 C 0.32038 0.09733 0.16432 0.0
H394 H 0.81978 0.18952 0.13651 0.0
H395 H 0.95059 0.26207 0.181 0.0
H396 H 0.91609 0.20604 0.21802 0.0
H397 H 0.84966 0.13629 0.23762 0.0
H398 H 0.71789 0.06375 0.19425 0.0
H399 H 0.75213 0.11976 0.15679 0.0
C400 C 0.84065 0.19328 0.15438 0.0
C401 C 0.88778 0.23006 0.15591 0.0
C402 C 0.82061 0.1607 0.17568 0.0
C403 C 0.91428 0.23423 0.17922 0.0
C404 C 0.89463 0.20208 0.20041 0.0
C405 C 0.82837 0.1324 0.21992 0.0
C406 C 0.78133 0.09563 0.21867 0.0
C407 C 0.84801 0.16503 0.19876 0.0
C408 C 0.75423 0.09161 0.19568 0.0
C409 C 0.77377 0.12372 0.17431 0.0
H410 H 0.85019 0.6491 0.21602 0.0
H411 H 0.89884 0.79595 0.23491 0.0
H412 H 0.83991 0.79441 0.20422 0.0
H413 H 0.77526 0.75163 0.17167 0.0
H414 H 0.72508 0.60402 0.15381 0.0
H415 H 0.78339 0.60542 0.18483 0.0
C416 C 0.84813 0.68087 0.21324 0.0
C417 C 0.87919 0.72275 0.22746 0.0
C418 C 0.81355 0.67945 0.19601 0.0
C419 C 0.87549 0.76335 0.22408 0.0
C420 C 0.84172 0.76246 0.2066 0.0
C421 C 0.77676 0.71961 0.17471 0.0
C422 C 0.74585 0.67783 0.16032 0.0
C423 C 0.81054 0.72069 0.19249 0.0
C424 C 0.7483 0.63668 0.16462 0.0
C425 C 0.78186 0.6375 0.18225 0.0
H426 H 0.67789 0.79615 0.87276 0.0
H427 H 0.70598 0.91964 0.82707 0.0
H428 H 0.72594 0.88792 0.78716 0.0
H429 H 0.73446 0.82448 0.76513 0.0
H430 H 0.70568 0.70113 0.81125 0.0
H431 H 0.68765 0.73391 0.85122 0.0
C432 C 0.68817 0.81616 0.85407 0.0
C433 C 0.69015 0.86015 0.85292 0.0
C434 C 0.69995 0.79793 0.83133 0.0
C435 C 0.70392 0.88561 0.82852 0.0
C436 C 0.71552 0.86756 0.80571 0.0
C437 C 0.7248 0.80501 0.78401 0.0
C438 C 0.72156 0.76038 0.78515 0.0
C439 C 0.71373 0.82377 0.80689 0.0
C440 C 0.7085 0.73551 0.80975 0.0
C441 C 0.69799 0.75414 0.83262 0.0
H442 H 0.08215 0.78944 0.88374 0.0
H443 H 0.03848 0.65712 0.84129 0.0
H444 H 0.08051 0.70029 0.80073 0.0
H445 H 0.13041 0.77545 0.77763 0.0
H446 H 0.17444 0.90767 0.82028 0.0
H447 H 0.13127 0.86445 0.86053 0.0
C448 C 0.08167 0.76992 0.86562 0.0
C449 C 0.05718 0.72003 0.8656 0.0
C450 C 0.10598 0.79493 0.84244 0.0
C451 C 0.05702 0.69546 0.84191 0.0
C452 C 0.08107 0.72014 0.8187 0.0
C453 C 0.13054 0.7949 0.79569 0.0
C454 C 0.15571 0.84478 0.79592 0.0
C455 C 0.10578 0.76985 0.81878 0.0
C456 C 0.15542 0.86932 0.81953 0.0
C457 C 0.13075 0.84463 0.84257 0.0
H458 H 0.12604 0.26771 0.90263 0.0
H459 H 0.26274 0.38032 0.87887 0.0
H460 H 0.22927 0.39145 0.83721 0.0
H461 H 0.16152 0.36841 0.80728 0.0
H462 H 0.02479 0.25607 0.83122 0.0
H463 H 0.05805 0.24588 0.87321 0.0
C464 C 0.14861 0.2947 0.88835 0.0
C465 C 0.19692 0.323 0.89384 0.0
C466 C 0.12912 0.30104 0.86452 0.0
C467 C 0.22549 0.35799 0.87516 0.0
C468 C 0.20636 0.36439 0.85133 0.0
C469 C 0.13889 0.34178 0.82171 0.0
C470 C 0.09069 0.31297 0.81604 0.0
C471 C 0.15826 0.33602 0.84577 0.0
C472 C 0.06196 0.27874 0.83503 0.0
C473 C 0.08098 0.27281 0.85904 0.0
H474 H 0.05632 0.48279 0.43009 0.0
H475 H 0.03405 0.35893 0.47331 0.0
H476 H 0.01739 0.38912 0.51491 0.0
H477 H 0.00712 0.44932 0.53877 0.0
H478 H 0.02828 0.57306 0.49593 0.0
H479 H 0.04689 0.54397 0.45437 0.0
C480 C 0.04837 0.46265 0.44869 0.0
C481 C 0.04662 0.41866 0.44855 0.0
C482 C 0.03803 0.47989 0.47253 0.0
C483 C 0.03571 0.39286 0.47279 0.0
C484 C 0.02599 0.41002 0.4966 0.0
C485 C 0.01563 0.46997 0.52035 0.0
C486 C 0.01608 0.51329 0.52051 0.0
C487 C 0.02655 0.4532 0.49663 0.0
C488 C 0.02745 0.53953 0.49641 0.0
C489 C 0.03828 0.52299 0.47265 0.0
H490 H 0.51752 0.53699 0.46763 0.0
H491 H 0.64923 0.60058 0.51115 0.0
H492 H 0.61153 0.54628 0.54879 0.0
H493 H 0.54177 0.47982 0.56887 0.0
H494 H 0.41014 0.41547 0.52522 0.0
H495 H 0.44749 0.47071 0.4879 0.0
C496 C 0.53792 0.53935 0.48547 0.0
C497 C 0.58614 0.57297 0.48659 0.0
C498 C 0.5162 0.50748 0.50684 0.0
C499 C 0.61208 0.57514 0.50976 0.0
C500 C 0.59059 0.54396 0.53125 0.0
C501 C 0.52122 0.4776 0.55114 0.0
C502 C 0.47322 0.44335 0.54983 0.0
C503 C 0.5428 0.50969 0.52987 0.0
C504 C 0.44716 0.44132 0.52674 0.0
C505 C 0.46846 0.47304 0.50543 0.0
H506 H 0.51318 0.98768 0.5573 0.0
H507 H 0.58644 0.14008 0.56443 0.0
H508 H 0.53637 0.14347 0.52894 0.0
H509 H 0.47233 0.10305 0.49558 0.0
H510 H 0.39751 0.95033 0.48978 0.0
H511 H 0.44722 0.94719 0.52537 0.0
C512 C 0.51844 0.02168 0.55094 0.0
C513 C 0.55385 0.06363 0.56324 0.0
C514 C 0.48892 0.02327 0.53098 0.0
C515 C 0.55959 0.10732 0.55517 0.0
C516 C 0.5309 0.10926 0.53494 0.0
C517 C 0.46663 0.06903 0.50223 0.0
C518 C 0.43126 0.02701 0.48991 0.0
C519 C 0.49542 0.06744 0.52272 0.0
C520 C 0.42432 0.98326 0.4989 0.0
C521 C 0.45294 0.98141 0.51917 0.0
H522 H 0.19963 0.95657 0.04412 0.0
H523 H 0.27397 0.87967 0.03821 0.0
H524 H 0.20341 0.81006 0.02098 0.0
H525 H 0.12364 0.77414 0.00312 0.0
H526 H 0.04981 0.8517 0.00703 0.0
H527 H 0.11704 0.91777 0.02983 0.0
C528 C 0.20016 0.92432 0.03951 0.0
C529 C 0.2421 0.92345 0.04216 0.0
C530 C 0.15973 0.88471 0.02902 0.0
C531 C 0.24224 0.8814 0.0361 0.0
C532 C 0.20194 0.8416 0.0262 0.0
C533 C 0.12197 0.80526 0.00921 0.0
C534 C 0.08201 0.80824 0.00303 0.0
C535 C 0.16095 0.84335 0.02183 0.0
C536 C 0.08029 0.84862 0.01135 0.0
C537 C 0.11877 0.88648 0.02433 0.0
H538 H 0.01655 0.20344 0.06169 0.0
H539 H 0.07519 0.35455 0.07067 0.0
H540 H 0.14793 0.36829 0.04983 0.0
H541 H 0.19128 0.33789 0.02464 0.0
H542 H 0.13247 0.18704 0.01449 0.0
H543 H 0.06344 0.17273 0.04044 0.0
C544 C 0.04549 0.23937 0.05951 0.0
C545 C 0.04017 0.27791 0.06738 0.0
C546 C 0.08696 0.24709 0.04703 0.0
C547 C 0.07817 0.32423 0.06457 0.0
C548 C 0.11975 0.33216 0.05256 0.0
C549 C 0.16356 0.30183 0.02829 0.0
C550 C 0.16662 0.2636 0.01729 0.0
C551 C 0.12392 0.29392 0.04296 0.0
C552 C 0.1308 0.21711 0.02259 0.0
C553 C 0.09127 0.2089 0.03736 0.0
H554 H 0.75822 0.78853 0.02811 0.0
H555 H 0.65929 0.78505 0.08672 0.0
H556 H 0.65277 0.8455 0.06132 0.0
H557 H 0.66959 0.89351 0.02005 0.0
H558 H 0.76234 0.89002 0.95936 0.0
H559 H 0.77714 0.83833 0.98796 0.0
C560 C 0.73602 0.80177 0.03562 0.0
C561 C 0.70948 0.78272 0.05928 0.0
C562 C 0.73096 0.83486 0.02033 0.0
C563 C 0.68009 0.79939 0.06853 0.0
C564 C 0.67624 0.83376 0.05398 0.0
C565 C 0.69355 0.88193 0.01334 0.0
C566 C 0.71482 0.89538 0.9877 0.0
C567 C 0.70063 0.85089 0.02949 0.0
C568 C 0.74535 0.87978 0.979 0.0
C569 C 0.75387 0.8503 0.99533 0.0
H570 H 0.80603 0.07888 0.94517 0.0
H571 H 0.71342 0.12643 0.91641 0.0
H572 H 0.75052 0.19468 0.94742 0.0
H573 H 0.8031 0.23552 0.9864 0.0
H574 H 0.89246 0.18452 0.01613 0.0
H575 H 0.86249 0.12287 0.98113 0.0
C576 C 0.79439 0.10454 0.94529 0.0
C577 C 0.75662 0.0972 0.92872 0.0
C578 C 0.81475 0.14271 0.96373 0.0
C579 C 0.74231 0.13108 0.92904 0.0
C580 C 0.76327 0.16996 0.94692 0.0
C581 C 0.81626 0.21115 0.98507 0.0
C582 C 0.84941 0.21422 0.00414 0.0
C583 C 0.79846 0.17523 0.965 0.0
C584 C 0.86642 0.18259 0.00199 0.0
C585 C 0.84944 0.14736 0.9819 0.0
H586 H 0.75162 0.69302 0.99514 0.0
H587 H 0.70906 0.56292 0.03761 0.0
H588 H 0.76566 0.55089 0.01184 0.0
H589 H 0.83277 0.58175 0.98104 0.0
H590 H 0.88155 0.71639 0.94252 0.0
H591 H 0.81673 0.72217 0.96259 0.0
C592 C 0.75423 0.66164 0.99831 0.0
C593 C 0.72641 0.62884 0.01811 0.0
C594 C 0.78816 0.65602 0.98426 0.0
C595 C 0.73042 0.58867 0.02247 0.0
C596 C 0.76273 0.58181 0.00778 0.0
C597 C 0.82856 0.61183 0.97659 0.0
C598 C 0.8616 0.64853 0.96033 0.0
C599 C 0.7926 0.61587 0.98915 0.0
C600 C 0.8564 0.68777 0.95506 0.0
C601 C 0.8195 0.69113 0.96657 0.0
H602 H 0.27976 0.19391 0.95038 0.0
H603 H 0.42363 0.29911 0.96799 0.0
H604 H 0.44041 0.23698 0.98 0.0
H605 H 0.41221 0.15363 0.99014 0.0
H606 H 0.26886 0.04804 0.9719 0.0
H607 H 0.25406 0.10943 0.95514 0.0
C608 C 0.31492 0.20317 0.95651 0.0
C609 C 0.35019 0.25106 0.95869 0.0
C610 C 0.32438 0.16726 0.96341 0.0
C611 C 0.39576 0.26253 0.96626 0.0
C612 C 0.40538 0.22703 0.97325 0.0
C613 C 0.37792 0.14401 0.98213 0.0
C614 C 0.34152 0.09655 0.98258 0.0
C615 C 0.36965 0.17942 0.97261 0.0
C616 C 0.29744 0.0844 0.97181 0.0
C617 C 0.28888 0.1195 0.96237 0.0
H618 H 0.95298 0.20148 0.3788 0.0
H619 H 0.90867 0.29427 0.34528 0.0
H620 H 0.8332 0.22619 0.33277 0.0
H621 H 0.78281 0.14061 0.32754 0.0
H622 H 0.82662 0.04711 0.36041 0.0
H623 H 0.89898 0.11531 0.37741 0.0
C624 C 0.92665 0.20682 0.36899 0.0
C625 C 0.93672 0.25283 0.36265 0.0
C626 C 0.88329 0.16745 0.36169 0.0
C627 C 0.902 0.25921 0.35024 0.0
C628 C 0.85881 0.2203 0.34302 0.0
C629 C 0.80791 0.13507 0.3387 0.0
C630 C 0.79968 0.08894 0.34238 0.0
C631 C 0.84955 0.1743 0.34808 0.0
C632 C 0.83222 0.08232 0.35721 0.0
C633 C 0.87372 0.12129 0.36681 0.0
H634 H 0.87409 0.65622 0.35125 0.0
H635 H 0.79841 0.5272 0.3038 0.0
H636 H 0.72881 0.50312 0.33164 0.0
H637 H 0.68663 0.52445 0.36497 0.0
H638 H 0.76196 0.65576 0.4104 0.0
H639 H 0.83474 0.67282 0.38813 0.0
C640 C 0.84259 0.6225 0.34721 0.0
C641 C 0.84112 0.594 0.32517 0.0
C642 C 0.80255 0.60939 0.36287 0.0
C643 C 0.80031 0.55006 0.32049 0.0
C644 C 0.76043 0.53631 0.33635 0.0
C645 C 0.7192 0.55615 0.37049 0.0
C646 C 0.71893 0.58909 0.38901 0.0
C647 C 0.76069 0.5665 0.35696 0.0
C648 C 0.76131 0.63013 0.39595 0.0
C649 C 0.80288 0.64 0.38317 0.0
H650 H 0.39654 0.21887 0.30443 0.0
H651 H 0.27461 0.20021 0.34737 0.0
H652 H 0.28627 0.15393 0.38217 0.0
H653 H 0.32827 0.11428 0.39834 0.0
H654 H 0.4524 0.13666 0.35609 0.0
H655 H 0.44332 0.18686 0.32333 0.0
C656 C 0.37267 0.20475 0.32149 0.0
C657 C 0.33437 0.21203 0.32323 0.0
C658 C 0.38014 0.17915 0.34154 0.0
C659 C 0.30419 0.19465 0.34564 0.0
C660 C 0.31083 0.16823 0.36547 0.0
C661 C 0.3537 0.13075 0.38219 0.0
C662 C 0.39066 0.12139 0.3795 0.0
C663 C 0.3483 0.15966 0.36338 0.0
C664 C 0.42363 0.1433 0.35866 0.0
C665 C 0.4183 0.17175 0.33977 0.0
H666 H 0.57712 0.5239 0.31004 0.0
H667 H 0.48357 0.54738 0.36067 0.0
H668 H 0.41652 0.4881 0.33463 0.0
H669 H 0.38399 0.42541 0.30036 0.0
H670 H 0.47583 0.39739 0.25107 0.0
H671 H 0.54413 0.46335 0.27339 0.0
C672 C 0.54208 0.51636 0.31514 0.0
C673 C 0.53526 0.53962 0.3374 0.0
C674 C 0.50343 0.48145 0.30039 0.0
C675 C 0.4897 0.52953 0.34383 0.0
C676 C 0.45132 0.49572 0.32892 0.0
C677 C 0.41891 0.43396 0.29419 0.0
C678 C 0.4248 0.40624 0.27427 0.0
C679 C 0.45772 0.47081 0.30758 0.0
C680 C 0.47034 0.41807 0.26647 0.0
C681 C 0.50939 0.45563 0.2793 0.0
H682 H 0.55487 0.0041 0.2921 0.0
H683 H 0.57609 0.93731 0.36166 0.0
H684 H 0.50591 0.92915 0.38286 0.0
H685 H 0.44178 0.94557 0.38325 0.0
H686 H 0.41983 0.01306 0.31442 0.0
H687 H 0.48664 0.0157 0.29119 0.0
C688 C 0.54391 0.98745 0.31179 0.0
C689 C 0.57102 0.97186 0.32539 0.0
C690 C 0.50345 0.98302 0.32404 0.0
C691 C 0.55617 0.95004 0.35082 0.0
C692 C 0.51598 0.9453 0.363 0.0
C693 C 0.45132 0.96055 0.36307 0.0
C694 C 0.4262 0.9795 0.35071 0.0
C695 C 0.48988 0.96241 0.35003 0.0
C696 C 0.43868 -0.00173 0.32442 0.0
C697 C 0.477 -0.0 0.31118 0.0
H698 H 0.97133 0.55704 0.25854 0.0
H699 H 0.109 0.66388 0.28621 0.0
H700 H 0.12491 0.60242 0.30116 0.0
H701 H 0.09555 0.51894 0.31198 0.0
H702 H 0.95808 0.4121 0.28414 0.0
H703 H 0.94644 0.47296 0.26341 0.0
C704 C 0.00515 0.56685 0.26738 0.0
C705 C 0.03861 0.6149 0.27169 0.0
C706 C 0.01389 0.53137 0.27619 0.0
C707 C 0.08253 0.62713 0.28277 0.0
C708 C 0.09156 0.59201 0.29151 0.0
C709 C 0.06332 0.50897 0.30104 0.0
C710 C 0.02739 0.4613 0.30001 0.0
C711 C 0.05683 0.54412 0.28924 0.0
C712 C 0.98616 0.44865 0.28535 0.0
C713 C 0.9794 0.48344 0.27359 0.0
H714 H 0.49017 0.43546 0.6693 0.0
H715 H 0.43385 0.52816 0.65847 0.0
H716 H 0.5036 0.59324 0.67981 0.0
H717 H 0.58377 0.62578 0.69657 0.0
H718 H 0.64151 0.53403 0.70586 0.0
H719 H 0.5675 0.46633 0.69039 0.0
C720 C 0.4928 0.46971 0.67194 0.0
C721 C 0.45717 0.47714 0.66192 0.0
C722 C 0.53334 0.50718 0.68376 0.0
C723 C 0.46095 0.52159 0.66577 0.0
C724 C 0.50088 0.55888 0.6779 0.0
C725 C 0.58006 0.59088 0.69554 0.0
C726 C 0.61834 0.58508 0.70194 0.0
C727 C 0.53783 0.5524 0.68618 0.0
C728 C 0.6127 0.53953 0.70086 0.0
C729 C 0.57046 0.50083 0.69192 0.0
H730 H 0.51432 0.99023 0.68917 0.0
H731 H 0.4464 0.85548 0.64663 0.0
H732 H 0.37382 0.8325 0.67114 0.0
H733 H 0.32749 0.85463 0.70036 0.0
H734 H 0.39498 0.99078 0.74142 0.0
H735 H 0.47013 0.00887 0.72206 0.0
C736 C 0.48382 0.95559 0.68547 0.0
C737 C 0.48553 0.92495 0.66576 0.0
C738 C 0.44207 0.94292 0.69927 0.0
C739 C 0.44591 0.87993 0.66151 0.0
C740 C 0.40434 0.86679 0.67548 0.0
C741 C 0.35875 0.88792 0.70549 0.0
C742 C 0.35548 0.92159 0.72198 0.0
C743 C 0.40167 0.89859 0.69378 0.0
C744 C 0.39642 0.96441 0.72855 0.0
C745 C 0.43941 0.97489 0.71741 0.0
H746 H 0.05451 0.42769 0.7049 0.0
H747 H 0.9515 0.42903 0.75848 0.0
H748 H 0.94945 0.48938 0.73048 0.0
H749 H 0.97111 0.53552 0.6882 0.0
H750 H 0.06977 0.52861 0.63333 0.0
H751 H 0.07916 0.47643 0.66444 0.0
C752 C 0.03203 0.44156 0.71076 0.0
C753 C 0.00291 0.42356 0.73365 0.0
C754 C 0.0298 0.47481 0.6941 0.0
C755 C 0.97412 0.44212 0.74089 0.0
C756 C 0.97277 0.47646 0.72481 0.0
C757 C -0.00496 0.52299 0.68323 0.0
C758 C 0.01942 0.5356 0.6584 0.0
C759 C -0.0005 0.49206 0.70095 0.0
C760 C 0.05024 0.51904 0.65218 0.0
C761 C 0.05572 0.48928 0.66998 0.0
H762 H 0.20469 0.85957 0.66439 0.0
H763 H 0.09719 0.89761 0.66766 0.0
H764 H 0.05356 0.83977 0.63157 0.0
H765 H 0.04184 0.7723 0.60316 0.0
H766 H 0.14822 0.73258 0.60157 0.0
H767 H 0.19695 0.79804 0.63258 0.0
C768 C 0.17189 0.85554 0.65707 0.0
C769 C 0.15376 0.88221 0.669 0.0
C770 C 0.14686 0.82198 0.63661 0.0
C771 C 0.11168 0.87718 0.65896 0.0
C772 C 0.08671 0.84409 0.63835 0.0
C773 C 0.07615 0.7786 0.60908 0.0
C774 C 0.09117 0.7473 0.60033 0.0
C775 C 0.10338 0.81544 0.62756 0.0
C776 C 0.1357 0.75595 0.60822 0.0
C777 C 0.16347 0.7932 0.62605 0.0
H778 H 0.12943 0.36828 0.66239 0.0
H779 H 0.07548 0.23039 0.69799 0.0
H780 H 0.13168 0.21823 0.67194 0.0
H781 H 0.20053 0.24972 0.64226 0.0
H782 H 0.25805 0.39003 0.60956 0.0
H783 H 0.19555 0.39806 0.63096 0.0
C784 C 0.12957 0.33533 0.66423 0.0
C785 C 0.09857 0.30043 0.68222 0.0
C786 C 0.16266 0.32906 0.64973 0.0
C787 C 0.09929 0.25798 0.68443 0.0
C788 C 0.13136 0.25097 0.66953 0.0
C789 C 0.19881 0.28165 0.63939 0.0
C790 C 0.23372 0.31924 0.62439 0.0
C791 C 0.16382 0.28667 0.65255 0.0
C792 C 0.23153 0.3607 0.62111 0.0
C793 C 0.19594 0.36536 0.6334 0.0
H794 H 0.75516 0.84808 0.64844 0.0
H795 H 0.61231 0.7381 0.63276 0.0
H796 H 0.59482 0.79617 0.61393 0.0
H797 H 0.61751 0.87921 0.60716 0.0
H798 H 0.7603 0.98932 0.62267 0.0
H799 H 0.78053 0.93006 0.63589 0.0
C800 C 0.72039 0.83674 0.64055 0.0
C801 C 0.68491 0.78902 0.64245 0.0
C802 C 0.71045 0.87035 0.62985 0.0
C803 C 0.64022 0.77469 0.63174 0.0
C804 C 0.63009 0.8079 0.62105 0.0
C805 C 0.65323 0.89016 0.61302 0.0
C806 C 0.68714 0.93857 0.61436 0.0
C807 C 0.66454 0.85599 0.62081 0.0
C808 C 0.73345 0.95225 0.62158 0.0
C809 C 0.74501 0.91841 0.6293 0.0
loop_
_geom_bond_atom_site_label_1
_geom_bond_atom_site_label_2
_geom_bond_distance
_geom_bond_site_symmetry_2
_ccdc_geom_bond_type
C0 O1 1.160 . S
C0 O7 1.185 . S
O1 C0 1.160 . S
O2 Zn3 1.899 . S
O2 C10 1.284 . S
Zn3 O2 1.899 . S
Zn3 O4 2.032 1_545 S
Zn3 O7 2.086 . S
Zn3 O12 1.977 . S
O4 Zn3 2.032 1_565 S
O4 C8 1.278 . S
C5 O6 1.203 . S
C5 O12 1.267 . S
O6 C5 1.203 . S
O7 C0 1.185 . S
O7 Zn3 2.086 . S
C8 O4 1.278 . S
C8 O9 1.211 . S
O9 C8 1.211 . S
C10 O2 1.284 . S
C10 O11 1.273 . S
O11 C10 1.273 . S
O12 Zn3 1.977 . S
O12 C5 1.267 . S
C13 O14 1.160 . S
C13 O20 1.185 . S
O14 C13 1.160 . S
O15 Zn16 1.899 1_455 S
O15 C23 1.284 . S
Zn16 O15 1.899 1_655 S
Zn16 O17 2.032 . S
Zn16 O20 2.086 . S
Zn16 O25 1.977 . S
O17 Zn16 2.032 . S
O17 C21 1.278 . S
C18 O19 1.203 1_655 S
C18 O25 1.267 . S
O19 C18 1.203 1_455 S
O20 C13 1.185 . S
O20 Zn16 2.086 . S
C21 O17 1.278 . S
C21 O22 1.211 . S
O22 C21 1.211 . S
C23 O15 1.284 . S
C23 O24 1.273 . S
O24 C23 1.273 . S
O25 Zn16 1.977 . S
O25 C18 1.267 . S
C26 O27 1.160 . S
C26 O33 1.185 . S
O27 C26 1.160 . S
O28 Zn29 1.899 . S
O28 C36 1.284 . S
Zn29 O28 1.899 . S
Zn29 O30 2.032 . S
Zn29 O33 2.086 . S
Zn29 O38 1.977 . S
O30 Zn29 2.032 . S
O30 C34 1.278 . S
C31 O32 1.203 . S
C31 O38 1.267 . S
O32 C31 1.203 . S
O33 C26 1.185 . S
O33 Zn29 2.086 . S
C34 O30 1.278 . S
C34 O35 1.211 . S
O35 C34 1.211 . S
C36 O28 1.284 . S
C36 O37 1.273 . S
O37 C36 1.273 . S
O38 Zn29 1.977 . S
O38 C31 1.267 . S
C39 O40 1.160 . S
C39 O46 1.185 . S
O40 C39 1.160 . S
O41 Zn42 1.899 . S
O41 C49 1.284 . S
Zn42 O41 1.899 . S
Zn42 O43 2.032 . S
Zn42 O46 2.086 . S
Zn42 O51 1.977 1_565 S
O43 Zn42 2.032 . S
O43 C47 1.278 . S
C44 O45 1.203 . S
C44 O51 1.267 . S
O45 C44 1.203 . S
O46 C39 1.185 . S
O46 Zn42 2.086 . S
C47 O43 1.278 . S
C47 O48 1.211 . S
O48 C47 1.211 . S
C49 O41 1.284 . S
C49 O50 1.273 . S
O50 C49 1.273 . S
O51 Zn42 1.977 1_545 S
O51 C44 1.267 . S
C52 O53 1.160 . S
C52 O59 1.185 . S
O53 C52 1.160 . S
O54 Zn55 1.899 . S
O54 C62 1.284 . S
Zn55 O54 1.899 . S
Zn55 O56 2.032 . S
Zn55 O59 2.086 . S
Zn55 O64 1.977 1_455 S
O56 Zn55 2.032 . S
O56 C60 1.278 . S
C57 O58 1.203 . S
C57 O64 1.267 . S
O58 C57 1.203 . S
O59 C52 1.185 . S
O59 Zn55 2.086 . S
C60 O56 1.278 . S
C60 O61 1.211 . S
O61 C60 1.211 . S
C62 O54 1.284 . S
C62 O63 1.273 . S
O63 C62 1.273 . S
O64 Zn55 1.977 1_655 S
O64 C57 1.267 . S
C65 O66 1.160 . S
C65 O72 1.185 . S
O66 C65 1.160 . S
O67 Zn68 1.899 . S
O67 C75 1.284 . S
Zn68 O67 1.899 . S
Zn68 O69 2.032 . S
Zn68 O72 2.086 . S
Zn68 O77 1.977 . S
O69 Zn68 2.032 . S
O69 C73 1.278 . S
C70 O71 1.203 . S
C70 O77 1.267 . S
O71 C70 1.203 . S
O72 C65 1.185 . S
O72 Zn68 2.086 . S
C73 O69 1.278 . S
C73 O74 1.211 . S
O74 C73 1.211 . S
C75 O67 1.284 . S
C75 O76 1.273 . S
O76 C75 1.273 . S
O77 Zn68 1.977 . S
O77 C70 1.267 . S
C78 O79 1.160 . S
C78 O85 1.185 . S
O79 C78 1.160 . S
O80 Zn81 1.899 . S
O80 C88 1.284 1_455 S
Zn81 O80 1.899 . S
Zn81 O82 2.032 1_455 S
Zn81 O85 2.086 . S
Zn81 O90 1.977 . S
O82 Zn81 2.032 1_655 S
O82 C86 1.278 . S
C83 O84 1.203 . S
C83 O90 1.267 1_655 S
O84 C83 1.203 . S
O85 C78 1.185 . S
O85 Zn81 2.086 . S
C86 O82 1.278 . S
C86 O87 1.211 . S
O87 C86 1.211 . S
C88 O80 1.284 1_655 S
C88 O89 1.273 . S
O89 C88 1.273 . S
O90 Zn81 1.977 . S
O90 C83 1.267 1_455 S
C91 O92 1.160 . S
C91 O98 1.185 . S
O92 C91 1.160 . S
O93 Zn94 1.899 . S
O93 C101 1.284 . S
Zn94 O93 1.899 . S
Zn94 O95 2.032 . S
Zn94 O98 2.086 . S
Zn94 O103 1.977 . S
O95 Zn94 2.032 . S
O95 C99 1.278 . S
C96 O97 1.203 . S
C96 O103 1.267 . S
O97 C96 1.203 . S
O98 C91 1.185 . S
O98 Zn94 2.086 . S
C99 O95 1.278 . S
C99 O100 1.211 . S
O100 C99 1.211 . S
C101 O93 1.284 . S
C101 O102 1.273 . S
O102 C101 1.273 . S
O103 Zn94 1.977 . S
O103 C96 1.267 . S
C104 O105 1.160 . S
C104 O111 1.185 1_545 S
O105 C104 1.160 . S
O106 Zn107 1.899 1_545 S
O106 C114 1.284 . S
Zn107 O106 1.899 1_565 S
Zn107 O108 2.032 1_565 S
Zn107 O111 2.086 . S
Zn107 O116 1.977 . S
O108 Zn107 2.032 1_545 S
O108 C112 1.278 1_545 S
C109 O110 1.203 . S
C109 O116 1.267 . S
O110 C109 1.203 . S
O111 C104 1.185 1_565 S
O111 Zn107 2.086 . S
C112 O108 1.278 1_565 S
C112 O113 1.211 . S
O113 C112 1.211 . S
C114 O106 1.284 . S
C114 O115 1.273 . S
O115 C114 1.273 . S
O116 Zn107 1.977 . S
O116 C109 1.267 . S
C117 O118 1.160 . S
C117 O124 1.185 . S
O118 C117 1.160 . S
O119 Zn120 1.899 . S
O119 C127 1.284 . S
Zn120 O119 1.899 . S
Zn120 O121 2.032 . S
Zn120 O124 2.086 . S
Zn120 O129 1.977 . S
O121 Zn120 2.032 . S
O121 C125 1.278 . S
C122 O123 1.203 . S
C122 O129 1.267 . S
O123 C122 1.203 . S
O124 C117 1.185 . S
O124 Zn120 2.086 . S
C125 O121 1.278 . S
C125 O126 1.211 . S
O126 C125 1.211 . S
C127 O119 1.284 . S
C127 O128 1.273 . S
O128 C127 1.273 . S
O129 Zn120 1.977 . S
O129 C122 1.267 . S
C130 O131 1.160 . S
C130 O137 1.185 . S
O131 C130 1.160 . S
O132 Zn133 1.899 1_565 S
O132 C140 1.284 . S
Zn133 O132 1.899 1_545 S
Zn133 O134 2.032 . S
Zn133 O137 2.086 . S
Zn133 O142 1.977 . S
O134 Zn133 2.032 . S
O134 C138 1.278 . S
C135 O136 1.203 1_545 S
C135 O142 1.267 . S
O136 C135 1.203 1_565 S
O137 C130 1.185 . S
O137 Zn133 2.086 . S
C138 O134 1.278 . S
C138 O139 1.211 . S
O139 C138 1.211 . S
C140 O132 1.284 . S
C140 O141 1.273 . S
O141 C140 1.273 . S
O142 Zn133 1.977 . S
O142 C135 1.267 . S
C143 O144 1.160 . S
C143 O150 1.185 . S
O144 C143 1.160 . S
O145 Zn146 1.899 1_455 S
O145 C153 1.284 . S
Zn146 O145 1.899 1_655 S
Zn146 O147 2.032 . S
Zn146 O150 2.086 . S
Zn146 O155 1.977 . S
O147 Zn146 2.032 . S
O147 C151 1.278 . S
C148 O149 1.203 1_655 S
C148 O155 1.267 . S
O149 C148 1.203 1_455 S
O150 C143 1.185 . S
O150 Zn146 2.086 . S
C151 O147 1.278 . S
C151 O152 1.211 . S
O152 C151 1.211 . S
C153 O145 1.284 . S
C153 O154 1.273 . S
O154 C153 1.273 . S
O155 Zn146 1.977 . S
O155 C148 1.267 . S
C156 O157 1.160 . S
C156 O163 1.185 . S
O157 C156 1.160 . S
O158 Zn159 1.899 . S
O158 C166 1.284 . S
Zn159 O158 1.899 . S
Zn159 O160 2.032 . S
Zn159 O163 2.086 . S
Zn159 O168 1.977 . S
O160 Zn159 2.032 . S
O160 C164 1.278 . S
C161 O162 1.203 . S
C161 O168 1.267 . S
O162 C161 1.203 . S
O163 C156 1.185 . S
O163 Zn159 2.086 . S
C164 O160 1.278 . S
C164 O165 1.211 . S
O165 C164 1.211 . S
C166 O158 1.284 . S
C166 O167 1.273 . S
O167 C166 1.273 . S
O168 Zn159 1.977 . S
O168 C161 1.267 . S
C169 O170 1.160 . S
C169 O176 1.185 . S
O170 C169 1.160 . S
O171 Zn172 1.899 . S
O171 C179 1.284 . S
Zn172 O171 1.899 . S
Zn172 O173 2.032 . S
Zn172 O176 2.086 . S
Zn172 O181 1.977 1_565 S
O173 Zn172 2.032 . S
O173 C177 1.278 . S
C174 O175 1.203 . S
C174 O181 1.267 . S
O175 C174 1.203 . S
O176 C169 1.185 . S
O176 Zn172 2.086 . S
C177 O173 1.278 . S
C177 O178 1.211 . S
O178 C177 1.211 . S
C179 O171 1.284 . S
C179 O180 1.273 . S
O180 C179 1.273 . S
O181 Zn172 1.977 1_545 S
O181 C174 1.267 . S
C182 O183 1.160 . S
C182 O189 1.185 . S
O183 C182 1.160 . S
O184 Zn185 1.899 . S
O184 C192 1.284 . S
Zn185 O184 1.899 . S
Zn185 O186 2.032 . S
Zn185 O189 2.086 . S
Zn185 O194 1.977 1_455 S
O186 Zn185 2.032 . S
O186 C190 1.278 . S
C187 O188 1.203 . S
C187 O194 1.267 . S
O188 C187 1.203 . S
O189 C182 1.185 . S
O189 Zn185 2.086 . S
C190 O186 1.278 . S
C190 O191 1.211 . S
O191 C190 1.211 . S
C192 O184 1.284 . S
C192 O193 1.273 . S
O193 C192 1.273 . S
O194 Zn185 1.977 1_655 S
O194 C187 1.267 . S
C195 O196 1.160 . S
C195 O202 1.185 1_655 S
O196 C195 1.160 . S
O197 Zn198 1.899 1_655 S
O197 C205 1.284 . S
Zn198 O197 1.899 1_455 S
Zn198 O199 2.032 1_455 S
Zn198 O202 2.086 . S
Zn198 O207 1.977 . S
O199 Zn198 2.032 1_655 S
O199 C203 1.278 1_655 S
C200 O201 1.203 . S
C200 O207 1.267 . S
O201 C200 1.203 . S
O202 C195 1.185 1_455 S
O202 Zn198 2.086 . S
C203 O199 1.278 1_455 S
C203 O204 1.211 . S
O204 C203 1.211 . S
C205 O197 1.284 . S
C205 O206 1.273 . S
O206 C205 1.273 . S
O207 Zn198 1.977 . S
O207 C200 1.267 . S
C208 O209 1.160 . S
C208 O215 1.185 . S
O209 C208 1.160 . S
O210 Zn211 1.899 . S
O210 C218 1.284 . S
Zn211 O210 1.899 . S
Zn211 O212 2.032 . S
Zn211 O215 2.086 . S
Zn211 O220 1.977 . S
O212 Zn211 2.032 . S
O212 C216 1.278 . S
C213 O214 1.203 . S
C213 O220 1.267 . S
O214 C213 1.203 . S
O215 C208 1.185 . S
O215 Zn211 2.086 . S
C216 O212 1.278 . S
C216 O217 1.211 . S
O217 C216 1.211 . S
C218 O210 1.284 . S
C218 O219 1.273 . S
O219 C218 1.273 . S
O220 Zn211 1.977 . S
O220 C213 1.267 . S
C221 O222 1.160 . S
C221 O228 1.185 1_545 S
O222 C221 1.160 . S
O223 Zn224 1.899 1_545 S
O223 C231 1.284 . S
Zn224 O223 1.899 1_565 S
Zn224 O225 2.032 1_565 S
Zn224 O228 2.086 . S
Zn224 O233 1.977 . S
O225 Zn224 2.032 1_545 S
O225 C229 1.278 1_545 S
C226 O227 1.203 . S
C226 O233 1.267 . S
O227 C226 1.203 . S
O228 C221 1.185 1_565 S
O228 Zn224 2.086 . S
C229 O225 1.278 1_565 S
C229 O230 1.211 . S
O230 C229 1.211 . S
C231 O223 1.284 . S
C231 O232 1.273 . S
O232 C231 1.273 . S
O233 Zn224 1.977 . S
O233 C226 1.267 . S
H234 C240 0.930 . S
H235 C243 0.933 . S
H236 C244 0.930 . S
H237 C245 0.937 . S
H238 C248 0.930 . S
H239 C249 0.930 . S
C240 H234 0.930 . S
C240 C241 1.355 1_565 S
C240 C242 1.415 . S
C241 C240 1.355 1_545 S
C241 C243 1.419 . S
C242 C240 1.415 . S
C242 C247 1.425 1_564 S
C242 C249 1.409 . S
C243 H235 0.933 . S
C243 C241 1.419 . S
C243 C244 1.362 1_554 S
C244 H236 0.930 . S
C244 C243 1.362 1_556 S
C244 C247 1.409 . S
C245 H237 0.937 . S
C245 C246 1.340 1_545 S
C245 C247 1.422 . S
C246 C245 1.340 1_565 S
C246 C248 1.419 . S
C247 C242 1.425 1_546 S
C247 C244 1.409 . S
C247 C245 1.422 . S
C248 H238 0.930 . S
C248 C246 1.419 . S
C248 C249 1.362 1_556 S
C249 H239 0.930 . S
C249 C242 1.409 . S
C249 C248 1.362 1_554 S
H250 C256 0.930 1_556 S
H251 C259 0.930 . S
H252 C260 0.930 . S
H253 C261 0.930 1_554 S
H254 C264 0.930 . S
H255 C265 0.930 . S
C256 H250 0.930 1_554 S
C256 C257 1.355 . S
C256 C258 1.415 1_554 S
C257 C256 1.355 . S
C257 C259 1.419 1_655 S
C258 C256 1.415 1_556 S
C258 C263 1.425 1_656 S
C258 C265 1.409 . S
C259 H251 0.930 . S
C259 C257 1.419 1_455 S
C259 C260 1.362 . S
C260 H252 0.930 . S
C260 C259 1.362 . S
C260 C263 1.409 . S
C261 H253 0.930 1_556 S
C261 C262 1.355 . S
C261 C263 1.415 1_556 S
C262 C261 1.355 . S
C262 C264 1.419 1_455 S
C263 C258 1.425 1_454 S
C263 C260 1.409 . S
C263 C261 1.415 1_554 S
C264 H254 0.930 . S
C264 C262 1.419 1_655 S
C264 C265 1.362 . S
C265 H255 0.930 . S
C265 C258 1.409 . S
C265 C264 1.362 . S
H266 C272 0.930 . S
H267 C275 0.930 . S
H268 C276 0.932 . S
H269 C277 0.930 . S
H270 C280 0.930 . S
H271 C281 0.941 . S
C272 H266 0.930 . S
C272 C273 1.355 . S
C272 C274 1.415 . S
C273 C272 1.355 . S
C273 C275 1.419 . S
C274 C272 1.415 . S
C274 C279 1.425 1_556 S
C274 C281 1.414 . S
C275 H267 0.930 . S
C275 C273 1.419 . S
C275 C276 1.360 1_556 S
C276 H268 0.932 . S
C276 C275 1.360 1_554 S
C276 C279 1.410 . S
C277 H269 0.930 . S
C277 C278 1.355 . S
C277 C279 1.415 . S
C278 C277 1.355 . S
C278 C280 1.419 . S
C279 C274 1.425 1_554 S
C279 C276 1.410 . S
C279 C277 1.415 . S
C280 H270 0.930 . S
C280 C278 1.419 . S
C280 C281 1.348 1_554 S
C281 H271 0.941 . S
C281 C274 1.414 . S
C281 C280 1.348 1_556 S
H282 C288 0.930 . S
H283 C291 0.930 . S
H284 C292 0.930 . S
H285 C293 0.930 . S
H286 C296 0.930 . S
H287 C297 0.930 . S
C288 H282 0.930 . S
C288 C289 1.355 . S
C288 C290 1.415 . S
C289 C288 1.355 . S
C289 C291 1.419 . S
C290 C288 1.415 . S
C290 C295 1.425 . S
C290 C297 1.409 . S
C291 H283 0.930 . S
C291 C289 1.419 . S
C291 C292 1.362 . S
C292 H284 0.930 . S
C292 C291 1.362 . S
C292 C295 1.409 . S
C293 H285 0.930 . S
C293 C294 1.355 . S
C293 C295 1.415 . S
C294 C293 1.355 . S
C294 C296 1.419 . S
C295 C290 1.425 . S
C295 C292 1.409 . S
C295 C293 1.415 . S
C296 H286 0.930 . S
C296 C294 1.419 . S
C296 C297 1.362 . S
C297 H287 0.930 . S
C297 C290 1.409 . S
C297 C296 1.362 . S
H298 C304 0.930 . S
H299 C307 0.930 . S
H300 C308 0.930 . S
H301 C309 0.930 . S
H302 C312 0.930 . S
H303 C313 0.930 . S
C304 H298 0.930 . S
C304 C305 1.355 . S
C304 C306 1.415 . S
C305 C304 1.355 . S
C305 C307 1.419 . S
C306 C304 1.415 . S
C306 C311 1.425 . S
C306 C313 1.409 . S
C307 H299 0.930 . S
C307 C305 1.419 . S
C307 C308 1.362 . S
C308 H300 0.930 . S
C308 C307 1.362 . S
C308 C311 1.409 . S
C309 H301 0.930 . S
C309 C310 1.355 . S
C309 C311 1.415 . S
C310 C309 1.355 . S
C310 C312 1.419 . S
C311 C306 1.425 . S
C311 C308 1.409 . S
C311 C309 1.415 . S
C312 H302 0.930 . S
C312 C310 1.419 . S
C312 C313 1.362 . S
C313 H303 0.930 . S
C313 C306 1.409 . S
C313 C312 1.362 . S
H314 C320 0.930 . S
H315 C323 0.930 . S
H316 C324 0.930 . S
H317 C325 0.930 . S
H318 C328 0.930 . S
H319 C329 0.930 . S
C320 H314 0.930 . S
C320 C321 1.355 . S
C320 C322 1.415 . S
C321 C320 1.355 . S
C321 C323 1.419 . S
C322 C320 1.415 . S
C322 C327 1.425 . S
C322 C329 1.409 . S
C323 H315 0.930 . S
C323 C321 1.419 . S
C323 C324 1.362 . S
C324 H316 0.930 . S
C324 C323 1.362 . S
C324 C327 1.409 . S
C325 H317 0.930 . S
C325 C326 1.355 . S
C325 C327 1.415 . S
C326 C325 1.355 . S
C326 C328 1.419 . S
C327 C322 1.425 . S
C327 C324 1.409 . S
C327 C325 1.415 . S
C328 H318 0.930 . S
C328 C326 1.419 . S
C328 C329 1.362 . S
C329 H319 0.930 . S
C329 C322 1.409 . S
C329 C328 1.362 . S
H330 C336 0.930 . S
H331 C339 0.930 . S
H332 C340 0.930 . S
H333 C341 0.930 . S
H334 C344 0.930 . S
H335 C345 0.930 . S
C336 H330 0.930 . S
C336 C337 1.355 . S
C336 C338 1.415 . S
C337 C336 1.355 . S
C337 C339 1.419 . S
C338 C336 1.415 . S
C338 C343 1.425 . S
C338 C345 1.409 . S
C339 H331 0.930 . S
C339 C337 1.419 . S
C339 C340 1.362 . S
C340 H332 0.930 . S
C340 C339 1.362 . S
C340 C343 1.409 . S
C341 H333 0.930 . S
C341 C342 1.355 . S
C341 C343 1.415 . S
C342 C341 1.355 . S
C342 C344 1.419 . S
C343 C338 1.425 . S
C343 C340 1.409 . S
C343 C341 1.415 . S
C344 H334 0.930 . S
C344 C342 1.419 . S
C344 C345 1.362 . S
C345 H335 0.930 . S
C345 C338 1.409 . S
C345 C344 1.362 . S
H346 C352 0.930 . S
H347 C355 0.930 . S
H348 C356 0.930 . S
H349 C357 0.930 . S
H350 C360 0.930 . S
H351 C361 0.930 . S
C352 H346 0.930 . S
C352 C353 1.355 . S
C352 C354 1.415 . S
C353 C352 1.355 . S
C353 C355 1.419 . S
C354 C352 1.415 . S
C354 C359 1.425 . S
C354 C361 1.409 . S
C355 H347 0.930 . S
C355 C353 1.419 . S
C355 C356 1.362 . S
C356 H348 0.930 . S
C356 C355 1.362 . S
C356 C359 1.409 . S
C357 H349 0.930 . S
C357 C358 1.355 . S
C357 C359 1.415 . S
C358 C357 1.355 . S
C358 C360 1.419 . S
C359 C354 1.425 . S
C359 C356 1.409 . S
C359 C357 1.415 . S
C360 H350 0.930 . S
C360 C358 1.419 . S
C360 C361 1.362 . S
C361 H351 0.930 . S
C361 C354 1.409 . S
C361 C360 1.362 . S
H362 C368 0.930 . S
H363 C371 0.930 . S
H364 C372 0.930 . S
H365 C373 0.930 . S
H366 C376 0.930 . S
H367 C377 0.930 . S
C368 H362 0.930 . S
C368 C369 1.355 . S
C368 C370 1.415 . S
C369 C368 1.355 . S
C369 C371 1.419 . S
C370 C368 1.415 . S
C370 C375 1.425 . S
C370 C377 1.409 . S
C371 H363 0.930 . S
C371 C369 1.419 . S
C371 C372 1.362 . S
C372 H364 0.930 . S
C372 C371 1.362 . S
C372 C375 1.409 . S
C373 H365 0.930 . S
C373 C374 1.355 . S
C373 C375 1.415 . S
C374 C373 1.355 . S
C374 C376 1.419 . S
C375 C370 1.425 . S
C375 C372 1.409 . S
C375 C373 1.415 . S
C376 H366 0.930 . S
C376 C374 1.419 . S
C376 C377 1.362 . S
C377 H367 0.930 . S
C377 C370 1.409 . S
C377 C376 1.362 . S
H378 C384 0.930 . S
H379 C387 0.930 . S
H380 C388 0.930 . S
H381 C389 0.930 . S
H382 C392 0.930 . S
H383 C393 0.930 . S
C384 H378 0.930 . S
C384 C385 1.355 . S
C384 C386 1.415 . S
C385 C384 1.355 . S
C385 C387 1.419 . S
C386 C384 1.415 . S
C386 C391 1.425 . S
C386 C393 1.409 . S
C387 H379 0.930 . S
C387 C385 1.419 . S
C387 C388 1.362 . S
C388 H380 0.930 . S
C388 C387 1.362 . S
C388 C391 1.409 . S
C389 H381 0.930 . S
C389 C390 1.355 . S
C389 C391 1.415 . S
C390 C389 1.355 . S
C390 C392 1.419 . S
C391 C386 1.425 . S
C391 C388 1.409 . S
C391 C389 1.415 . S
C392 H382 0.930 . S
C392 C390 1.419 . S
C392 C393 1.362 . S
C393 H383 0.930 . S
C393 C386 1.409 . S
C393 C392 1.362 . S
H394 C400 0.930 . S
H395 C403 0.930 . S
H396 C404 0.930 . S
H397 C405 0.930 . S
H398 C408 0.930 . S
H399 C409 0.930 . S
C400 H394 0.930 . S
C400 C401 1.355 . S
C400 C402 1.415 . S
C401 C400 1.355 . S
C401 C403 1.419 . S
C402 C400 1.415 . S
C402 C407 1.425 . S
C402 C409 1.409 . S
C403 H395 0.930 . S
C403 C401 1.419 . S
C403 C404 1.362 . S
C404 H396 0.930 . S
C404 C403 1.362 . S
C404 C407 1.409 . S
C405 H397 0.930 . S
C405 C406 1.355 . S
C405 C407 1.415 . S
C406 C405 1.355 . S
C406 C408 1.419 . S
C407 C402 1.425 . S
C407 C404 1.409 . S
C407 C405 1.415 . S
C408 H398 0.930 . S
C408 C406 1.419 . S
C408 C409 1.362 . S
C409 H399 0.930 . S
C409 C402 1.409 . S
C409 C408 1.362 . S
H410 C416 0.930 . S
H411 C419 0.930 . S
H412 C420 0.930 . S
H413 C421 0.930 . S
H414 C424 0.930 . S
H415 C425 0.930 . S
C416 H410 0.930 . S
C416 C417 1.355 . S
C416 C418 1.415 . S
C417 C416 1.355 . S
C417 C419 1.419 . S
C418 C416 1.415 . S
C418 C423 1.425 . S
C418 C425 1.409 . S
C419 H411 0.930 . S
C419 C417 1.419 . S
C419 C420 1.362 . S
C420 H412 0.930 . S
C420 C419 1.362 . S
C420 C423 1.409 . S
C421 H413 0.930 . S
C421 C422 1.355 . S
C421 C423 1.415 . S
C422 C421 1.355 . S
C422 C424 1.419 . S
C423 C418 1.425 . S
C423 C420 1.409 . S
C423 C421 1.415 . S
C424 H414 0.930 . S
C424 C422 1.419 . S
C424 C425 1.362 . S
C425 H415 0.930 . S
C425 C418 1.409 . S
C425 C424 1.362 . S
H426 C432 0.930 . S
H427 C435 0.930 . S
H428 C436 0.930 . S
H429 C437 0.930 . S
H430 C440 0.930 . S
H431 C441 0.930 . S
C432 H426 0.930 . S
C432 C433 1.355 . S
C432 C434 1.415 . S
C433 C432 1.355 . S
C433 C435 1.419 . S
C434 C432 1.415 . S
C434 C439 1.425 . S
C434 C441 1.409 . S
C435 H427 0.930 . S
C435 C433 1.419 . S
C435 C436 1.362 . S
C436 H428 0.930 . S
C436 C435 1.362 . S
C436 C439 1.409 . S
C437 H429 0.930 . S
C437 C438 1.355 . S
C437 C439 1.415 . S
C438 C437 1.355 . S
C438 C440 1.419 . S
C439 C434 1.425 . S
C439 C436 1.409 . S
C439 C437 1.415 . S
C440 H430 0.930 . S
C440 C438 1.419 . S
C440 C441 1.362 . S
C441 H431 0.930 . S
C441 C434 1.409 . S
C441 C440 1.362 . S
H442 C448 0.930 . S
H443 C451 0.930 . S
H444 C452 0.930 . S
H445 C453 0.930 . S
H446 C456 0.930 . S
H447 C457 0.930 . S
C448 H442 0.930 . S
C448 C449 1.355 . S
C448 C450 1.415 . S
C449 C448 1.355 . S
C449 C451 1.419 . S
C450 C448 1.415 . S
C450 C455 1.425 . S
C450 C457 1.409 . S
C451 H443 0.930 . S
C451 C449 1.419 . S
C451 C452 1.362 . S
C452 H444 0.930 . S
C452 C451 1.362 . S
C452 C455 1.409 . S
C453 H445 0.930 . S
C453 C454 1.355 . S
C453 C455 1.415 . S
C454 C453 1.355 . S
C454 C456 1.419 . S
C455 C450 1.425 . S
C455 C452 1.409 . S
C455 C453 1.415 . S
C456 H446 0.930 . S
C456 C454 1.419 . S
C456 C457 1.362 . S
C457 H447 0.930 . S
C457 C450 1.409 . S
C457 C456 1.362 . S
H458 C464 0.930 . S
H459 C467 0.930 . S
H460 C468 0.930 . S
H461 C469 0.930 . S
H462 C472 0.930 . S
H463 C473 0.930 . S
C464 H458 0.930 . S
C464 C465 1.355 . S
C464 C466 1.415 . S
C465 C464 1.355 . S
C465 C467 1.419 . S
C466 C464 1.415 . S
C466 C471 1.425 . S
C466 C473 1.409 . S
C467 H459 0.930 . S
C467 C465 1.419 . S
C467 C468 1.362 . S
C468 H460 0.930 . S
C468 C467 1.362 . S
C468 C471 1.409 . S
C469 H461 0.930 . S
C469 C470 1.355 . S
C469 C471 1.415 . S
C470 C469 1.355 . S
C470 C472 1.419 . S
C471 C466 1.425 . S
C471 C468 1.409 . S
C471 C469 1.415 . S
C472 H462 0.930 . S
C472 C470 1.419 . S
C472 C473 1.362 . S
C473 H463 0.930 . S
C473 C466 1.409 . S
C473 C472 1.362 . S
H474 C480 0.930 . S
H475 C483 0.930 . S
H476 C484 0.930 . S
H477 C485 0.930 . S
H478 C488 0.930 . S
H479 C489 0.930 . S
C480 H474 0.930 . S
C480 C481 1.355 1_455 S
C480 C482 1.415 . S
C481 C480 1.355 1_655 S
C481 C483 1.419 . S
C482 C480 1.415 . S
C482 C487 1.425 1_455 S
C482 C489 1.409 . S
C483 H475 0.930 . S
C483 C481 1.419 . S
C483 C484 1.362 . S
C484 H476 0.930 . S
C484 C483 1.362 . S
C484 C487 1.409 . S
C485 H477 0.930 . S
C485 C486 1.355 . S
C485 C487 1.415 . S
C486 C485 1.355 . S
C486 C488 1.419 1_655 S
C487 C482 1.425 1_655 S
C487 C484 1.409 . S
C487 C485 1.415 . S
C488 H478 0.930 . S
C488 C486 1.419 1_455 S
C488 C489 1.362 . S
C489 H479 0.930 . S
C489 C482 1.409 . S
C489 C488 1.362 . S
H490 C496 0.930 . S
H491 C499 0.930 . S
H492 C500 0.930 . S
H493 C501 0.930 . S
H494 C504 0.930 . S
H495 C505 0.930 . S
C496 H490 0.930 . S
C496 C497 1.355 . S
C496 C498 1.415 . S
C497 C496 1.355 . S
C497 C499 1.419 . S
C498 C496 1.415 . S
C498 C503 1.425 . S
C498 C505 1.409 . S
C499 H491 0.930 . S
C499 C497 1.419 . S
C499 C500 1.362 . S
C500 H492 0.930 . S
C500 C499 1.362 . S
C500 C503 1.409 . S
C501 H493 0.930 . S
C501 C502 1.355 . S
C501 C503 1.415 . S
C502 C501 1.355 . S
C502 C504 1.419 . S
C503 C498 1.425 . S
C503 C500 1.409 . S
C503 C501 1.415 . S
C504 H494 0.930 . S
C504 C502 1.419 . S
C504 C505 1.362 . S
C505 H495 0.930 . S
C505 C498 1.409 . S
C505 C504 1.362 . S
H506 C512 0.930 . S
H507 C515 0.930 . S
H508 C516 0.930 . S
H509 C517 0.930 . S
H510 C520 0.930 . S
H511 C521 0.930 . S
C512 H506 0.930 . S
C512 C513 1.355 1_565 S
C512 C514 1.415 . S
C513 C512 1.355 1_545 S
C513 C515 1.419 . S
C514 C512 1.415 . S
C514 C519 1.425 1_565 S
C514 C521 1.409 . S
C515 H507 0.930 . S
C515 C513 1.419 . S
C515 C516 1.362 . S
C516 H508 0.930 . S
C516 C515 1.362 . S
C516 C519 1.409 . S
C517 H509 0.930 . S
C517 C518 1.355 . S
C517 C519 1.415 . S
C518 C517 1.355 . S
C518 C520 1.419 1_545 S
C519 C514 1.425 1_545 S
C519 C516 1.409 . S
C519 C517 1.415 . S
C520 H510 0.930 . S
C520 C518 1.419 1_565 S
C520 C521 1.362 . S
C521 H511 0.930 . S
C521 C514 1.409 . S
C521 C520 1.362 . S
H522 C528 0.930 . S
H523 C531 0.930 . S
H524 C532 0.930 . S
H525 C533 0.926 1_554 S
H526 C536 0.930 . S
H527 C537 0.930 . S
C528 H522 0.930 . S
C528 C529 1.355 . S
C528 C530 1.415 . S
C529 C528 1.355 . S
C529 C531 1.419 . S
C530 C528 1.415 . S
C530 C535 1.425 . S
C530 C537 1.409 1_554 S
C531 H523 0.930 . S
C531 C529 1.419 . S
C531 C532 1.362 . S
C532 H524 0.930 . S
C532 C531 1.362 . S
C532 C535 1.409 . S
C533 H525 0.926 1_556 S
C533 C534 1.355 . S
C533 C535 1.415 1_556 S
C534 C533 1.355 . S
C534 C536 1.419 . S
C535 C530 1.425 . S
C535 C532 1.409 . S
C535 C533 1.415 1_554 S
C536 H526 0.930 . S
C536 C534 1.419 . S
C536 C537 1.362 . S
C537 H527 0.930 . S
C537 C530 1.409 1_556 S
C537 C536 1.362 . S
H538 C544 0.930 . S
H539 C547 0.930 . S
H540 C548 0.930 . S
H541 C549 0.930 . S
H542 C552 0.930 . S
H543 C553 0.930 . S
C544 H538 0.930 . S
C544 C545 1.355 . S
C544 C546 1.415 . S
C545 C544 1.355 . S
C545 C547 1.419 . S
C546 C544 1.415 . S
C546 C551 1.432 . S
C546 C553 1.409 . S
C547 H539 0.930 . S
C547 C545 1.419 . S
C547 C548 1.362 1_554 S
C548 H540 0.930 . S
C548 C547 1.362 1_556 S
C548 C551 1.408 1_556 S
C549 H541 0.930 . S
C549 C550 1.355 . S
C549 C551 1.410 1_556 S
C550 C549 1.355 . S
C550 C552 1.419 1_556 S
C551 C546 1.432 . S
C551 C548 1.408 1_554 S
C551 C549 1.410 1_554 S
C552 H542 0.930 . S
C552 C550 1.419 1_554 S
C552 C553 1.362 . S
C553 H543 0.930 . S
C553 C546 1.409 . S
C553 C552 1.362 . S
H554 C560 0.930 . S
H555 C563 0.930 . S
H556 C564 0.930 . S
H557 C565 0.930 . S
H558 C568 0.930 . S
H559 C569 0.930 . S
C560 H554 0.930 . S
C560 C561 1.355 . S
C560 C562 1.415 . S
C561 C560 1.355 . S
C561 C563 1.419 . S
C562 C560 1.415 . S
C562 C567 1.425 . S
C562 C569 1.409 1_554 S
C563 H555 0.930 . S
C563 C561 1.419 . S
C563 C564 1.362 . S
C564 H556 0.930 . S
C564 C563 1.362 . S
C564 C567 1.409 . S
C565 H557 0.930 . S
C565 C566 1.355 1_554 S
C565 C567 1.415 . S
C566 C565 1.355 1_556 S
C566 C568 1.419 . S
C567 C562 1.425 . S
C567 C564 1.409 . S
C567 C565 1.415 . S
C568 H558 0.930 . S
C568 C566 1.419 . S
C568 C569 1.362 . S
C569 H559 0.930 . S
C569 C562 1.409 1_556 S
C569 C568 1.362 . S
H570 C576 0.930 . S
H571 C579 0.930 . S
H572 C580 0.930 . S
H573 C581 0.927 1_556 S
H574 C584 0.930 . S
H575 C585 0.930 . S
C576 H570 0.930 . S
C576 C577 1.355 . S
C576 C578 1.415 . S
C577 C576 1.355 . S
C577 C579 1.419 . S
C578 C576 1.415 . S
C578 C583 1.425 . S
C578 C585 1.409 1_556 S
C579 H571 0.930 . S
C579 C577 1.419 . S
C579 C580 1.362 . S
C580 H572 0.930 . S
C580 C579 1.362 . S
C580 C583 1.409 . S
C581 H573 0.927 1_554 S
C581 C582 1.355 . S
C581 C583 1.415 1_554 S
C582 C581 1.355 . S
C582 C584 1.419 . S
C583 C578 1.425 . S
C583 C580 1.409 . S
C583 C581 1.415 1_556 S
C584 H574 0.930 . S
C584 C582 1.419 . S
C584 C585 1.362 . S
C585 H575 0.930 . S
C585 C578 1.409 1_554 S
C585 C584 1.362 . S
H586 C592 0.930 . S
H587 C595 0.930 . S
H588 C596 0.930 . S
H589 C597 0.930 1_554 S
H590 C600 0.930 . S
H591 C601 0.930 . S
C592 H586 0.930 . S
C592 C593 1.355 1_556 S
C592 C594 1.415 . S
C593 C592 1.355 1_554 S
C593 C595 1.419 . S
C594 C592 1.415 . S
C594 C599 1.425 1_556 S
C594 C601 1.409 . S
C595 H587 0.930 . S
C595 C593 1.419 . S
C595 C596 1.362 . S
C596 H588 0.930 . S
C596 C595 1.362 . S
C596 C599 1.409 . S
C597 H589 0.930 1_556 S
C597 C598 1.355 . S
C597 C599 1.415 1_556 S
C598 C597 1.355 . S
C598 C600 1.419 . S
C599 C594 1.425 1_554 S
C599 C596 1.409 . S
C599 C597 1.415 1_554 S
C600 H590 0.930 . S
C600 C598 1.419 . S
C600 C601 1.362 . S
C601 H591 0.930 . S
C601 C594 1.409 . S
C601 C600 1.362 . S
H602 C608 0.930 . S
H603 C611 0.930 . S
H604 C612 0.930 . S
H605 C613 0.930 . S
H606 C616 0.930 . S
H607 C617 0.930 . S
C608 H602 0.930 . S
C608 C609 1.355 . S
C608 C610 1.415 . S
C609 C608 1.355 . S
C609 C611 1.419 . S
C610 C608 1.415 . S
C610 C615 1.425 . S
C610 C617 1.409 1_556 S
C611 H603 0.930 . S
C611 C609 1.419 . S
C611 C612 1.362 . S
C612 H604 0.930 . S
C612 C611 1.362 . S
C612 C615 1.409 . S
C613 H605 0.930 . S
C613 C614 1.355 1_556 S
C613 C615 1.415 . S
C614 C613 1.355 1_554 S
C614 C616 1.419 . S
C615 C610 1.425 . S
C615 C612 1.409 . S
C615 C613 1.415 . S
C616 H606 0.930 . S
C616 C614 1.419 . S
C616 C617 1.362 . S
C617 H607 0.930 . S
C617 C610 1.409 1_554 S
C617 C616 1.362 . S
H618 C624 0.930 . S
H619 C627 0.930 . S
H620 C628 0.930 . S
H621 C629 0.930 . S
H622 C632 0.930 . S
H623 C633 0.930 . S
C624 H618 0.930 . S
C624 C625 1.355 . S
C624 C626 1.415 . S
C625 C624 1.355 . S
C625 C627 1.419 . S
C626 C624 1.415 . S
C626 C631 1.425 . S
C626 C633 1.409 . S
C627 H619 0.930 . S
C627 C625 1.419 . S
C627 C628 1.362 . S
C628 H620 0.930 . S
C628 C627 1.362 . S
C628 C631 1.409 . S
C629 H621 0.930 . S
C629 C630 1.355 . S
C629 C631 1.415 . S
C630 C629 1.355 . S
C630 C632 1.419 . S
C631 C626 1.425 . S
C631 C628 1.409 . S
C631 C629 1.415 . S
C632 H622 0.930 . S
C632 C630 1.419 . S
C632 C633 1.362 . S
C633 H623 0.930 . S
C633 C626 1.409 . S
C633 C632 1.362 . S
H634 C640 0.930 . S
H635 C643 0.930 . S
H636 C644 0.930 . S
H637 C645 0.930 . S
H638 C648 0.930 . S
H639 C649 0.930 . S
C640 H634 0.930 . S
C640 C641 1.355 . S
C640 C642 1.415 . S
C641 C640 1.355 . S
C641 C643 1.419 . S
C642 C640 1.415 . S
C642 C647 1.425 . S
C642 C649 1.409 . S
C643 H635 0.930 . S
C643 C641 1.419 . S
C643 C644 1.362 . S
C644 H636 0.930 . S
C644 C643 1.362 . S
C644 C647 1.409 . S
C645 H637 0.930 . S
C645 C646 1.355 . S
C645 C647 1.415 . S
C646 C645 1.355 . S
C646 C648 1.419 . S
C647 C642 1.425 . S
C647 C644 1.409 . S
C647 C645 1.415 . S
C648 H638 0.930 . S
C648 C646 1.419 . S
C648 C649 1.362 . S
C649 H639 0.930 . S
C649 C642 1.409 . S
C649 C648 1.362 . S
H650 C656 0.930 . S
H651 C659 0.930 . S
H652 C660 0.930 . S
H653 C661 0.930 . S
H654 C664 0.930 . S
H655 C665 0.930 . S
C656 H650 0.930 . S
C656 C657 1.355 . S
C656 C658 1.415 . S
C657 C656 1.355 . S
C657 C659 1.419 . S
C658 C656 1.415 . S
C658 C663 1.425 . S
C658 C665 1.409 . S
C659 H651 0.930 . S
C659 C657 1.419 . S
C659 C660 1.362 . S
C660 H652 0.930 . S
C660 C659 1.362 . S
C660 C663 1.409 . S
C661 H653 0.930 . S
C661 C662 1.355 . S
C661 C663 1.415 . S
C662 C661 1.355 . S
C662 C664 1.419 . S
C663 C658 1.425 . S
C663 C660 1.409 . S
C663 C661 1.415 . S
C664 H654 0.930 . S
C664 C662 1.419 . S
C664 C665 1.362 . S
C665 H655 0.930 . S
C665 C658 1.409 . S
C665 C664 1.362 . S
H666 C672 0.930 . S
H667 C675 0.930 . S
H668 C676 0.930 . S
H669 C677 0.930 . S
H670 C680 0.930 . S
H671 C681 0.930 . S
C672 H666 0.930 . S
C672 C673 1.355 . S
C672 C674 1.415 . S
C673 C672 1.355 . S
C673 C675 1.419 . S
C674 C672 1.415 . S
C674 C679 1.425 . S
C674 C681 1.409 . S
C675 H667 0.930 . S
C675 C673 1.419 . S
C675 C676 1.362 . S
C676 H668 0.930 . S
C676 C675 1.362 . S
C676 C679 1.409 . S
C677 H669 0.930 . S
C677 C678 1.355 . S
C677 C679 1.415 . S
C678 C677 1.355 . S
C678 C680 1.419 . S
C679 C674 1.425 . S
C679 C676 1.409 . S
C679 C677 1.415 . S
C680 H670 0.930 . S
C680 C678 1.419 . S
C680 C681 1.362 . S
C681 H671 0.930 . S
C681 C674 1.409 . S
C681 C680 1.362 . S
H682 C688 0.927 1_565 S
H683 C691 0.930 . S
H684 C692 0.930 . S
H685 C693 0.930 . S
H686 C696 0.930 . S
H687 C697 0.930 . S
C688 H682 0.927 1_545 S
C688 C689 1.354 . S
C688 C690 1.417 1_545 S
C689 C688 1.354 . S
C689 C691 1.419 . S
C690 C688 1.417 1_565 S
C690 C695 1.425 1_565 S
C690 C697 1.409 . S
C691 H683 0.930 . S
C691 C689 1.419 . S
C691 C692 1.362 . S
C692 H684 0.930 . S
C692 C691 1.362 . S
C692 C695 1.409 . S
C693 H685 0.930 . S
C693 C694 1.355 1_545 S
C693 C695 1.415 . S
C694 C693 1.355 1_565 S
C694 C696 1.419 . S
C695 C690 1.425 1_545 S
C695 C692 1.409 . S
C695 C693 1.415 . S
C696 H686 0.930 . S
C696 C694 1.419 . S
C696 C697 1.362 . S
C697 H687 0.930 . S
C697 C690 1.409 . S
C697 C696 1.362 . S
H698 C704 0.930 . S
H699 C707 0.930 . S
H700 C708 0.930 . S
H701 C709 0.930 . S
H702 C712 0.930 . S
H703 C713 0.930 . S
C704 H698 0.930 . S
C704 C705 1.355 . S
C704 C706 1.415 . S
C705 C704 1.355 . S
C705 C707 1.419 1_655 S
C706 C704 1.415 . S
C706 C711 1.425 1_655 S
C706 C713 1.409 . S
C707 H699 0.930 . S
C707 C705 1.419 1_455 S
C707 C708 1.362 . S
C708 H700 0.930 . S
C708 C707 1.362 . S
C708 C711 1.409 . S
C709 H701 0.930 . S
C709 C710 1.355 1_455 S
C709 C711 1.415 . S
C710 C709 1.355 1_655 S
C710 C712 1.419 . S
C711 C706 1.425 1_455 S
C711 C708 1.409 . S
C711 C709 1.415 . S
C712 H702 0.930 . S
C712 C710 1.419 . S
C712 C713 1.362 . S
C713 H703 0.930 . S
C713 C706 1.409 . S
C713 C712 1.362 . S
H714 C720 0.930 . S
H715 C723 0.930 . S
H716 C724 0.930 . S
H717 C725 0.930 . S
H718 C728 0.930 . S
H719 C729 0.930 . S
C720 H714 0.930 . S
C720 C721 1.355 . S
C720 C722 1.415 . S
C721 C720 1.355 . S
C721 C723 1.419 . S
C722 C720 1.415 . S
C722 C727 1.425 . S
C722 C729 1.409 . S
C723 H715 0.930 . S
C723 C721 1.419 . S
C723 C724 1.362 . S
C724 H716 0.930 . S
C724 C723 1.362 . S
C724 C727 1.409 . S
C725 H717 0.930 . S
C725 C726 1.355 . S
C725 C727 1.415 . S
C726 C725 1.355 . S
C726 C728 1.419 . S
C727 C722 1.425 . S
C727 C724 1.409 . S
C727 C725 1.415 . S
C728 H718 0.930 . S
C728 C726 1.419 . S
C728 C729 1.362 . S
C729 H719 0.930 . S
C729 C722 1.409 . S
C729 C728 1.362 . S
H730 C736 0.930 . S
H731 C739 0.930 . S
H732 C740 0.930 . S
H733 C741 0.930 . S
H734 C744 0.930 . S
H735 C745 0.930 . S
C736 H730 0.930 . S
C736 C737 1.355 1_545 S
C736 C738 1.415 . S
C737 C736 1.355 1_565 S
C737 C739 1.419 . S
C738 C736 1.415 . S
C738 C743 1.425 1_545 S
C738 C745 1.409 . S
C739 H731 0.930 . S
C739 C737 1.419 . S
C739 C740 1.362 . S
C740 H732 0.930 . S
C740 C739 1.362 . S
C740 C743 1.409 . S
C741 H733 0.930 . S
C741 C742 1.355 . S
C741 C743 1.415 . S
C742 C741 1.355 . S
C742 C744 1.419 1_565 S
C743 C738 1.425 1_565 S
C743 C740 1.409 . S
C743 C741 1.415 . S
C744 H734 0.930 . S
C744 C742 1.419 1_545 S
C744 C745 1.362 . S
C745 H735 0.930 . S
C745 C738 1.409 . S
C745 C744 1.362 . S
H746 C752 0.930 . S
H747 C755 0.930 . S
H748 C756 0.930 . S
H749 C757 0.930 . S
H750 C760 0.930 1_655 S
H751 C761 0.930 . S
C752 H746 0.930 . S
C752 C753 1.355 . S
C752 C754 1.415 . S
C753 C752 1.355 . S
C753 C755 1.419 . S
C754 C752 1.415 . S
C754 C759 1.425 . S
C754 C761 1.409 . S
C755 H747 0.930 . S
C755 C753 1.419 . S
C755 C756 1.362 . S
C756 H748 0.930 . S
C756 C755 1.362 . S
C756 C759 1.409 . S
C757 H749 0.930 . S
C757 C758 1.355 . S
C757 C759 1.415 . S
C758 C757 1.355 . S
C758 C760 1.419 . S
C759 C754 1.425 . S
C759 C756 1.409 . S
C759 C757 1.415 . S
C760 H750 0.930 1_455 S
C760 C758 1.419 . S
C760 C761 1.362 . S
C761 H751 0.930 . S
C761 C754 1.409 . S
C761 C760 1.362 . S
H762 C768 0.930 . S
H763 C771 0.930 . S
H764 C772 0.930 . S
H765 C773 0.930 . S
H766 C776 0.930 . S
H767 C777 0.930 . S
C768 H762 0.930 . S
C768 C769 1.355 . S
C768 C770 1.415 . S
C769 C768 1.355 . S
C769 C771 1.419 . S
C770 C768 1.415 . S
C770 C775 1.425 . S
C770 C777 1.409 . S
C771 H763 0.930 . S
C771 C769 1.419 . S
C771 C772 1.362 . S
C772 H764 0.930 . S
C772 C771 1.362 . S
C772 C775 1.409 . S
C773 H765 0.930 . S
C773 C774 1.355 . S
C773 C775 1.415 . S
C774 C773 1.355 . S
C774 C776 1.419 . S
C775 C770 1.425 . S
C775 C772 1.409 . S
C775 C773 1.415 . S
C776 H766 0.930 . S
C776 C774 1.419 . S
C776 C777 1.362 . S
C777 H767 0.930 . S
C777 C770 1.409 . S
C777 C776 1.362 . S
H778 C784 0.930 . S
H779 C787 0.930 . S
H780 C788 0.930 . S
H781 C789 0.930 . S
H782 C792 0.930 . S
H783 C793 0.930 . S
C784 H778 0.930 . S
C784 C785 1.355 . S
C784 C786 1.415 . S
C785 C784 1.355 . S
C785 C787 1.419 . S
C786 C784 1.415 . S
C786 C791 1.425 . S
C786 C793 1.409 . S
C787 H779 0.930 . S
C787 C785 1.419 . S
C787 C788 1.362 . S
C788 H780 0.930 . S
C788 C787 1.362 . S
C788 C791 1.409 . S
C789 H781 0.930 . S
C789 C790 1.355 . S
C789 C791 1.415 . S
C790 C789 1.355 . S
C790 C792 1.419 . S
C791 C786 1.425 . S
C791 C788 1.409 . S
C791 C789 1.415 . S
C792 H782 0.930 . S
C792 C790 1.419 . S
C792 C793 1.362 . S
C793 H783 0.930 . S
C793 C786 1.409 . S
C793 C792 1.362 . S
H794 C800 0.930 . S
H795 C803 0.930 . S
H796 C804 0.930 . S
H797 C805 0.930 . S
H798 C808 0.930 . S
H799 C809 0.930 . S
C800 H794 0.930 . S
C800 C801 1.355 . S
C800 C802 1.415 . S
C801 C800 1.355 . S
C801 C803 1.419 . S
C802 C800 1.415 . S
C802 C807 1.425 . S
C802 C809 1.409 . S
C803 H795 0.930 . S
C803 C801 1.419 . S
C803 C804 1.362 . S
C804 H796 0.930 . S
C804 C803 1.362 . S
C804 C807 1.409 . S
C805 H797 0.930 . S
C805 C806 1.355 . S
C805 C807 1.415 . S
C806 C805 1.355 . S
C806 C808 1.419 . S
C807 C802 1.425 . S
C807 C804 1.409 . S
C807 C805 1.415 . S
C808 H798 0.930 . S
C808 C806 1.419 . S
C808 C809 1.362 . S
C809 H799 0.930 . S
C809 C802 1.409 . S
C809 C808 1.362 . S
C241 C0 1.573 . S
C246 C49 1.587 . S
C257 C18 1.572 . S
C262 C62 1.631 . S
C273 C75 1.569 . S
C278 C31 1.549 . S
C289 C78 1.549 . S
C294 C127 1.554 . S
C305 C96 1.611 . S
C310 C140 1.622 . S
C321 C153 1.599 . S
C326 C109 1.570 . S
C337 C205 1.592 . S
C342 C156 1.575 . S
C353 C218 1.616 . S
C358 C174 1.606 . S
C369 C231 1.544 . S
C374 C187 1.502 . S
C385 C5 1.589 . S
C390 C117 1.766 . S
C401 C13 1.811 . S
C406 C130 1.814 . S
C417 C143 1.734 . S
C422 C26 1.748 . S
C433 C39 1.784 . S
C438 C161 1.606 . S
C449 C52 1.802 . S
C454 C169 1.819 . S
C465 C65 1.784 . S
C470 C182 1.789 . S
C481 C83 1.690 . S
C486 C195 1.813 . S
C497 C91 1.796 . S
C502 C208 1.817 . S
C513 C221 1.748 . S
C518 C104 1.772 . S
C529 C8 0.752 . S
C534 C60 0.725 . S
C545 C23 0.698 . S
C550 C73 0.679 . S
C561 C36 0.815 . S
C566 C47 0.791 . S
C577 C44 0.725 . S
C582 C21 0.779 . S
C593 C34 0.774 . S
C598 C57 0.830 . S
C609 C70 0.767 . S
C614 C10 0.737 . S
C625 C86 0.740 . S
C630 C138 0.732 . S
C641 C151 0.712 . S
C646 C101 0.667 . S
C657 C125 0.747 . S
C662 C114 0.677 . S
C673 C99 0.732 . S
C678 C122 0.788 . S
C689 C135 0.740 . S
C694 C112 0.725 . S
C705 C148 0.721 . S
C710 C88 0.725 . S
C721 C216 0.688 . S
C726 C164 0.751 . S
C737 C229 0.681 . S
C742 C179 0.727 . S
C753 C192 0.803 . S
C758 C203 0.800 . S
C769 C177 0.733 . S
C774 C200 0.755 . S
C785 C190 0.755 . S
C790 C213 0.816 . S
C801 C166 0.743 . S
C806 C226 0.774 . S
