# Generated by pormake.
# Topology vbj, (5)-cn, num edge types: 1
# Building blocks:
#     Node 0, Type 0, BuildingBlock: XOMCOT_clean_sbu_1, # of connection points: 5
#     Node 1, Type 0, BuildingBlock: XOMCOT_clean_sbu_1, # of connection points: 5
#     Node 2, Type 0, BuildingBlock: XOMCOT_clean_sbu_1, # of connection points: 5
#     Node 3, Type 0, BuildingBlock: XOMCOT_clean_sbu_1, # of connection points: 5
#     Node 4, Type 0, BuildingBlock: XOMCOT_clean_sbu_1, # of connection points: 5
#     Node 5, Type 0, BuildingBlock: XOMCOT_clean_sbu_1, # of connection points: 5
#     Node 6, Type 0, BuildingBlock: XOMCOT_clean_sbu_1, # of connection points: 5
#     Node 7, Type 0, BuildingBlock: XOMCOT_clean_sbu_1, # of connection points: 5
#     Node 8, Type 0, BuildingBlock: XOMCOT_clean_sbu_1, # of connection points: 5
#     Node 9, Type 0, BuildingBlock: XOMCOT_clean_sbu_1, # of connection points: 5
#     Node 10, Type 0, BuildingBlock: XOMCOT_clean_sbu_1, # of connection points: 5
#     Node 11, Type 0, BuildingBlock: XOMCOT_clean_sbu_1, # of connection points: 5
#     Node 12, Type 0, BuildingBlock: XOMCOT_clean_sbu_1, # of connection points: 5
#     Node 13, Type 0, BuildingBlock: XOMCOT_clean_sbu_1, # of connection points: 5
#     Node 14, Type 0, BuildingBlock: XOMCOT_clean_sbu_1, # of connection points: 5
#     Node 15, Type 0, BuildingBlock: XOMCOT_clean_sbu_1, # of connection points: 5
#     Edge 16, Type (0, 0), BuildingBlock: MIFKUJ_clean_linker_0, # of connection points: 2
#     Edge 17, Type (0, 0), BuildingBlock: MIFKUJ_clean_linker_0, # of connection points: 2
#     Edge 18, Type (0, 0), BuildingBlock: MIFKUJ_clean_linker_0, # of connection points: 2
#     Edge 19, Type (0, 0), BuildingBlock: MIFKUJ_clean_linker_0, # of connection points: 2
#     Edge 20, Type (0, 0), BuildingBlock: MIFKUJ_clean_linker_0, # of connection points: 2
#     Edge 21, Type (0, 0), BuildingBlock: MIFKUJ_clean_linker_0, # of connection points: 2
#     Edge 22, Type (0, 0), BuildingBlock: MIFKUJ_clean_linker_0, # of connection points: 2
#     Edge 23, Type (0, 0), BuildingBlock: MIFKUJ_clean_linker_0, # of connection points: 2
#     Edge 24, Type (0, 0), BuildingBlock: MIFKUJ_clean_linker_0, # of connection points: 2
#     Edge 25, Type (0, 0), BuildingBlock: MIFKUJ_clean_linker_0, # of connection points: 2
#     Edge 26, Type (0, 0), BuildingBlock: MIFKUJ_clean_linker_0, # of connection points: 2
#     Edge 27, Type (0, 0), BuildingBlock: MIFKUJ_clean_linker_0, # of connection points: 2
#     Edge 28, Type (0, 0), BuildingBlock: MIFKUJ_clean_linker_0, # of connection points: 2
#     Edge 29, Type (0, 0), BuildingBlock: MIFKUJ_clean_linker_0, # of connection points: 2
#     Edge 30, Type (0, 0), BuildingBlock: MIFKUJ_clean_linker_0, # of connection points: 2
#     Edge 31, Type (0, 0), BuildingBlock: MIFKUJ_clean_linker_0, # of connection points: 2
#     Edge 32, Type (0, 0), BuildingBlock: MIFKUJ_clean_linker_0, # of connection points: 2
#     Edge 33, Type (0, 0), BuildingBlock: MIFKUJ_clean_linker_0, # of connection points: 2
#     Edge 34, Type (0, 0), BuildingBlock: MIFKUJ_clean_linker_0, # of connection points: 2
#     Edge 35, Type (0, 0), BuildingBlock: MIFKUJ_clean_linker_0, # of connection points: 2
#     Edge 36, Type (0, 0), BuildingBlock: MIFKUJ_clean_linker_0, # of connection points: 2
#     Edge 37, Type (0, 0), BuildingBlock: MIFKUJ_clean_linker_0, # of connection points: 2
#     Edge 38, Type (0, 0), BuildingBlock: MIFKUJ_clean_linker_0, # of connection points: 2
#     Edge 39, Type (0, 0), BuildingBlock: MIFKUJ_clean_linker_0, # of connection points: 2
#     Edge 40, Type (0, 0), BuildingBlock: MIFKUJ_clean_linker_0, # of connection points: 2
#     Edge 41, Type (0, 0), BuildingBlock: MIFKUJ_clean_linker_0, # of connection points: 2
#     Edge 42, Type (0, 0), BuildingBlock: MIFKUJ_clean_linker_0, # of connection points: 2
#     Edge 43, Type (0, 0), BuildingBlock: MIFKUJ_clean_linker_0, # of connection points: 2
#     Edge 44, Type (0, 0), BuildingBlock: MIFKUJ_clean_linker_0, # of connection points: 2
#     Edge 45, Type (0, 0), BuildingBlock: MIFKUJ_clean_linker_0, # of connection points: 2
#     Edge 46, Type (0, 0), BuildingBlock: MIFKUJ_clean_linker_0, # of connection points: 2
#     Edge 47, Type (0, 0), BuildingBlock: MIFKUJ_clean_linker_0, # of connection points: 2
#     Edge 48, Type (0, 0), BuildingBlock: MIFKUJ_clean_linker_0, # of connection points: 2
#     Edge 49, Type (0, 0), BuildingBlock: MIFKUJ_clean_linker_0, # of connection points: 2
#     Edge 50, Type (0, 0), BuildingBlock: MIFKUJ_clean_linker_0, # of connection points: 2
#     Edge 51, Type (0, 0), BuildingBlock: MIFKUJ_clean_linker_0, # of connection points: 2
#     Edge 52, Type (0, 0), BuildingBlock: MIFKUJ_clean_linker_0, # of connection points: 2
#     Edge 53, Type (0, 0), BuildingBlock: MIFKUJ_clean_linker_0, # of connection points: 2
#     Edge 54, Type (0, 0), BuildingBlock: MIFKUJ_clean_linker_0, # of connection points: 2
#     Edge 55, Type (0, 0), BuildingBlock: MIFKUJ_clean_linker_0, # of connection points: 2
# Relax obj value: 0.102
# Max RMSD: 0.146
# Mean RMSD: 0.146
data_MOF--net-vbj--node1-XOMCOT_clean_sbu_1--edge1-MIFKUJ_clean_linker_0
_symmetry_space_group_name_H-M    P1
_symmetry_Int_Tables_number       1
_symmetry_cell_setting            triclinic
loop_
_symmetry_equiv_pos_as_xyz
'x, y, z'
_cell_length_a     33.42103
_cell_length_b     81.164288
_cell_length_c     61.602228
_cell_angle_alpha  90.120806
_cell_angle_beta   90.009277
_cell_angle_gamma 90.102299
loop_
_atom_site_label
_atom_site_type_symbol
_atom_site_fract_x
_atom_site_fract_y
_atom_site_fract_z
_atom_type_partial_charge
C0 C 0.0731 0.15579 0.0702 0.0
C1 C 0.06685 0.17247 0.06966 0.0
N2 N 0.06077 0.17785 0.09009 0.0
N3 N 0.07136 0.15048 0.09089 0.0
C4 C 0.06347 0.16423 0.10273 0.0
H5 H 0.07771 0.14792 0.05625 0.0
Co6 Co 0.07726 0.12801 0.09768 0.0
C7 C 0.03161 0.12601 0.13951 0.0
O8 O 0.00745 0.11495 0.13116 0.0
N9 N 0.084 0.10481 0.10395 0.0
C10 C 0.07216 0.07781 0.10721 0.0
C11 C 0.0552 0.09309 0.10523 0.0
C12 C 0.11855 0.09597 0.10518 0.0
N13 N 0.11215 0.07952 0.10696 0.0
O14 O 0.13172 0.13221 0.10566 0.0
H15 H 0.02348 0.09514 0.10349 0.0
H16 H 0.14804 0.1013 0.10375 0.0
O17 O 0.05943 0.13224 0.12782 0.0
C18 C 0.15013 0.13157 0.08754 0.0
O19 O 0.13021 0.12686 0.07021 0.0
N20 N 0.02587 0.12444 0.08656 0.0
C21 C 0.96164 0.12435 0.05754 0.0
C22 C 0.95954 0.13325 0.07714 0.0
C23 C 0.99231 0.13331 0.09137 0.0
C24 C 0.02803 0.1156 0.06777 0.0
C25 C 0.99621 0.11517 0.05327 0.0
H26 H 0.99182 0.14139 0.10534 0.0
H27 H 0.05579 0.10966 0.06332 0.0
H28 H 0.05961 0.16428 0.12017 0.0
H29 H 0.06561 0.18 0.05519 0.0
H30 H 0.056 0.06628 0.10816 0.0
H31 H 0.93362 0.14069 0.08098 0.0
H32 H 2e-05 0.10862 0.03808 0.0
C33 C 0.44326 0.87137 0.0717 0.0
C34 C 0.45325 0.85507 0.06941 0.0
N35 N 0.45447 0.84815 0.08925 0.0
N36 N 0.43824 0.87491 0.09292 0.0
C37 C 0.44478 0.86041 0.10328 0.0
H38 H 0.44125 0.88028 0.05872 0.0
Co39 Co 0.4284 0.89662 0.10277 0.0
C40 C 0.47708 0.89232 0.14422 0.0
O41 O 0.50858 0.89989 0.13634 0.0
N42 N 0.41734 0.9185 0.11243 0.0
C43 C 0.42068 0.94308 0.12851 0.0
C44 C 0.4384 0.9279 0.1265 0.0
C45 C 0.38692 0.92846 0.10603 0.0
N46 N 0.38824 0.94354 0.11555 0.0
O47 O 0.37427 0.8905 0.10922 0.0
H48 H 0.46546 0.92428 0.13461 0.0
H49 H 0.36477 0.92488 0.09415 0.0
O50 O 0.44539 0.89063 0.13266 0.0
C51 C 0.35682 0.89109 0.09081 0.0
O52 O 0.37747 0.89606 0.07388 0.0
N53 N 0.4801 0.90289 0.09295 0.0
C54 C 0.54227 0.90733 0.06294 0.0
C55 C 0.54421 0.89482 0.07864 0.0
C56 C 0.51255 0.89262 0.0932 0.0
C57 C 0.47905 0.9157 0.07862 0.0
C58 C 0.50981 0.91822 0.0637 0.0
H59 H 0.51274 0.88181 0.10342 0.0
H60 H 0.45238 0.92307 0.077 0.0
H61 H 0.44423 0.85902 0.12075 0.0
H62 H 0.4597 0.84883 0.05427 0.0
H63 H 0.43105 0.95297 0.13889 0.0
H64 H 0.56875 0.88613 0.07883 0.0
H65 H 0.50619 0.92777 0.05162 0.0
C66 C 0.58679 0.86326 0.43582 0.0
C67 C 0.58176 0.84658 0.43387 0.0
N68 N 0.57436 0.84298 0.4129 0.0
N69 N 0.58298 0.87036 0.41618 0.0
C70 C 0.57503 0.85767 0.40244 0.0
H71 H 0.59169 0.86989 0.45082 0.0
Co72 Co 0.58555 0.89337 0.41317 0.0
C73 C 0.53346 0.89829 0.37392 0.0
O74 O 0.5095 0.90818 0.38459 0.0
N75 N 0.58875 0.91701 0.41088 0.0
C76 C 0.57458 0.9439 0.41277 0.0
C77 C 0.55902 0.92823 0.41304 0.0
C78 C 0.62223 0.92649 0.4094 0.0
N79 N 0.61448 0.94282 0.41055 0.0
O80 O 0.63889 0.89145 0.40176 0.0
H81 H 0.52785 0.9254 0.41575 0.0
H82 H 0.6521 0.92164 0.40853 0.0
O83 O 0.56341 0.89177 0.38356 0.0
C84 C 0.66178 0.88964 0.41814 0.0
O85 O 0.64597 0.89034 0.43764 0.0
N86 N 0.53577 0.89458 0.42698 0.0
C87 C 0.47462 0.89106 0.45735 0.0
C88 C 0.47041 0.8845 0.43638 0.0
C89 C 0.50192 0.88605 0.42149 0.0
C90 C 0.53987 0.90118 0.44722 0.0
C91 C 0.50957 0.89971 0.46256 0.0
H92 H 0.50012 0.87956 0.4062 0.0
H93 H 0.56785 0.90692 0.45184 0.0
H94 H 0.56945 0.85916 0.38525 0.0
H95 H 0.58207 0.83781 0.44709 0.0
H96 H 0.55775 0.95521 0.41446 0.0
H97 H 0.44413 0.8774 0.43201 0.0
H98 H 0.51399 0.90486 0.47863 0.0
C99 C 0.90819 0.15716 0.43579 0.0
C100 C 0.91587 0.17364 0.43876 0.0
N101 N 0.92544 0.18033 0.41941 0.0
N102 N 0.91283 0.15331 0.41468 0.0
C103 C 0.9233 0.16769 0.40503 0.0
H104 H 0.90029 0.14841 0.44831 0.0
Co105 Co 0.90544 0.13184 0.40414 0.0
C106 C 0.95775 0.13112 0.36535 0.0
O107 O 0.97487 0.118 0.37368 0.0
N108 N 0.89552 0.10983 0.39367 0.0
C109 C 0.87718 0.08932 0.37146 0.0
C110 C 0.89161 0.10514 0.37266 0.0
C111 C 0.88072 0.09669 0.40481 0.0
N112 N 0.87003 0.08402 0.39171 0.0
O113 O 0.85295 0.1378 0.39485 0.0
H114 H 0.89526 0.11306 0.35876 0.0
H115 H 0.87505 0.09673 0.42207 0.0
O116 O 0.92915 0.13812 0.37575 0.0
C117 C 0.83088 0.13357 0.41078 0.0
O118 O 0.84768 0.1267 0.42777 0.0
N119 N 0.95558 0.12615 0.41625 0.0
C120 C 0.01804 0.12459 0.44647 0.0
C121 C 0.02089 0.13486 0.42824 0.0
C122 C 0.98912 0.13564 0.41348 0.0
C123 C 0.95329 0.11564 0.43343 0.0
C124 C 0.98432 0.11445 0.44846 0.0
H125 H 0.99012 0.14496 0.401 0.0
H126 H 0.92578 0.10936 0.437 0.0
H127 H 0.92924 0.16888 0.38784 0.0
H128 H 0.91544 0.18008 0.45416 0.0
H129 H 0.86922 0.08277 0.35675 0.0
H130 H 0.04589 0.14324 0.42633 0.0
H131 H 0.98071 0.1064 0.46234 0.0
C132 C 0.91663 0.87565 0.93745 0.0
C133 C 0.92097 0.85887 0.93726 0.0
N134 N 0.92764 0.85397 0.91668 0.0
N135 N 0.92021 0.8815 0.91708 0.0
C136 C 0.92707 0.86795 0.90468 0.0
H137 H 0.91238 0.88325 0.95171 0.0
Co138 Co 0.91767 0.90426 0.91121 0.0
C139 C 0.97394 0.90315 0.87235 0.0
O140 O 0.00418 0.9093 0.88328 0.0
N141 N 0.91352 0.92735 0.90575 0.0
C142 C 0.92566 0.95344 0.89663 0.0
C143 C 0.94076 0.93771 0.89704 0.0
C144 C 0.88214 0.9373 0.9107 0.0
N145 N 0.88865 0.95326 0.90526 0.0
O146 O 0.86475 0.90127 0.89981 0.0
H147 H 0.97029 0.93438 0.89178 0.0
H148 H 0.8553 0.93304 0.91868 0.0
O149 O 0.94023 0.90075 0.88177 0.0
C150 C 0.8414 0.9001 0.91607 0.0
O151 O 0.85634 0.90192 0.93564 0.0
N152 N 0.968 0.907 0.92509 0.0
C153 C 0.02814 0.90596 0.95686 0.0
C154 C 0.02802 0.89479 0.93941 0.0
C155 C 0.99772 0.89547 0.92381 0.0
C156 C 0.9684 0.91828 0.94157 0.0
C157 C 0.99851 0.91819 0.9573 0.0
H158 H 0.99677 0.88597 0.9115 0.0
H159 H 0.94374 0.92673 0.94358 0.0
H160 H 0.93216 0.86832 0.88734 0.0
H161 H 0.92083 0.85094 0.95136 0.0
H162 H 0.94094 0.96417 0.89031 0.0
H163 H 0.04955 0.88487 0.93847 0.0
H164 H 0.9974 0.92722 0.97024 0.0
C165 C 0.57798 0.16656 0.93438 0.0
C166 C 0.57132 0.18317 0.93563 0.0
N167 N 0.56681 0.18911 0.91536 0.0
N168 N 0.57777 0.16178 0.91342 0.0
C169 C 0.57081 0.17583 0.90211 0.0
H170 H 0.58159 0.15831 0.948 0.0
Co171 Co 0.58455 0.13942 0.90566 0.0
C172 C 0.52762 0.14055 0.86727 0.0
O173 O 0.49898 0.13317 0.87812 0.0
N174 N 0.59302 0.11685 0.89832 0.0
C175 C 0.5864 0.09086 0.88705 0.0
C176 C 0.56906 0.1062 0.88752 0.0
C177 C 0.62486 0.1075 0.90428 0.0
N178 N 0.62158 0.09165 0.89762 0.0
O179 O 0.63687 0.14444 0.89478 0.0
H180 H 0.54022 0.10902 0.8808 0.0
H181 H 0.64943 0.11204 0.914 0.0
O182 O 0.56128 0.14353 0.87647 0.0
C183 C 0.65928 0.14564 0.91145 0.0
O184 O 0.6436 0.14299 0.93068 0.0
N185 N 0.53491 0.13441 0.91927 0.0
C186 C 0.47567 0.13165 0.95133 0.0
C187 C 0.4734 0.1439 0.93531 0.0
C188 C 0.5033 0.14511 0.91952 0.0
C189 C 0.53672 0.12209 0.9343 0.0
C190 C 0.5071 0.12027 0.95007 0.0
H191 H 0.50238 0.15539 0.9084 0.0
H192 H 0.56274 0.11426 0.93531 0.0
H193 H 0.56837 0.17629 0.8846 0.0
H194 H 0.56857 0.19023 0.95048 0.0
H195 H 0.57397 0.07995 0.87948 0.0
H196 H 0.45028 0.15322 0.93572 0.0
H197 H 0.51006 0.11046 0.96184 0.0
C198 C 0.42818 0.1682 0.56938 0.0
C199 C 0.43977 0.18441 0.56896 0.0
N200 N 0.43967 0.19025 0.58944 0.0
N201 N 0.42066 0.16368 0.59003 0.0
C202 C 0.42763 0.17746 0.60196 0.0
H203 H 0.42689 0.15998 0.55556 0.0
Co204 Co 0.40988 0.14167 0.59748 0.0
C205 C 0.40595 0.14285 0.64474 0.0
O206 O 0.36985 0.13655 0.64294 0.0
N207 N 0.39938 0.11943 0.60457 0.0
C208 C 0.40742 0.09417 0.61772 0.0
C209 C 0.42371 0.10968 0.61636 0.0
C210 C 0.36837 0.1095 0.5989 0.0
N211 N 0.37257 0.094 0.60671 0.0
O212 O 0.35517 0.14725 0.6032 0.0
H213 H 0.45173 0.11361 0.6235 0.0
H214 H 0.34358 0.11346 0.5889 0.0
O215 O 0.42612 0.1459 0.62758 0.0
C216 C 0.33717 0.14873 0.58509 0.0
O217 O 0.35729 0.14612 0.56711 0.0
N218 N 0.4619 0.13626 0.58928 0.0
C219 C 0.53096 0.13488 0.56404 0.0
C220 C 0.53062 0.14369 0.58374 0.0
C221 C 0.4956 0.14419 0.59626 0.0
C222 C 0.4625 0.12683 0.571 0.0
C223 C 0.49677 0.12584 0.55825 0.0
H224 H 0.49451 0.1521 0.61039 0.0
H225 H 0.43513 0.12119 0.56523 0.0
H226 H 0.42596 0.1779 0.61949 0.0
H227 H 0.44839 0.1913 0.55467 0.0
H228 H 0.42012 0.08386 0.62642 0.0
H229 H 0.55642 0.15081 0.58882 0.0
H230 H 0.49524 0.11916 0.54304 0.0
C231 C 0.08068 0.87917 0.57155 0.0
C232 C 0.07263 0.86274 0.56874 0.0
N233 N 0.06182 0.8563 0.58803 0.0
N234 N 0.07523 0.88328 0.59254 0.0
C235 C 0.06417 0.869 0.60232 0.0
H236 H 0.08877 0.88776 0.55889 0.0
Co237 Co 0.08002 0.90526 0.602 0.0
C238 C 0.02427 0.90102 0.64096 0.0
O239 O 0.99291 0.90741 0.63135 0.0
N240 N 0.08613 0.92763 0.61123 0.0
C241 C 0.07445 0.95299 0.62376 0.0
C242 C 0.05931 0.93728 0.62161 0.0
C243 C 0.11735 0.93793 0.60725 0.0
N244 N 0.11106 0.95339 0.6147 0.0
O245 O 0.13244 0.90031 0.6125 0.0
H246 H 0.02987 0.93349 0.62664 0.0
H247 H 0.14369 0.93446 0.59826 0.0
O248 O 0.05759 0.89972 0.63081 0.0
C249 C 0.15579 0.90218 0.59636 0.0
O250 O 0.14085 0.90736 0.57786 0.0
N251 N 0.03035 0.91008 0.58869 0.0
C252 C 0.9723 0.91307 0.55619 0.0
C253 C 0.96901 0.90083 0.57213 0.0
C254 C 0.9987 0.89937 0.58802 0.0
C255 C 0.03298 0.92242 0.57371 0.0
C256 C 0.00413 0.92426 0.55754 0.0
H257 H 0.99765 0.88887 0.59875 0.0
H258 H 0.05931 0.93013 0.57301 0.0
H259 H 0.05613 0.8681 0.61929 0.0
H260 H 0.07413 0.85609 0.55351 0.0
H261 H 0.05944 0.96334 0.63127 0.0
H262 H 0.94541 0.89169 0.57138 0.0
H263 H 0.00793 0.93383 0.54548 0.0
C264 C 0.59436 0.65744 0.07061 0.0
C265 C 0.58937 0.67419 0.06959 0.0
N266 N 0.57453 0.67952 0.08871 0.0
N267 N 0.58291 0.652 0.09027 0.0
C268 C 0.57088 0.66575 0.10103 0.0
H269 H 0.6045 0.6496 0.05752 0.0
Co270 Co 0.58255 0.6294 0.0967 0.0
C271 C 0.53321 0.62756 0.13666 0.0
O272 O 0.50939 0.61701 0.12693 0.0
N273 N 0.58318 0.60585 0.10282 0.0
C274 C 0.56756 0.57902 0.10344 0.0
C275 C 0.55341 0.59468 0.10006 0.0
C276 C 0.61506 0.5963 0.10841 0.0
N277 N 0.60663 0.57995 0.1085 0.0
O278 O 0.63654 0.63147 0.10638 0.0
H279 H 0.52316 0.59746 0.09514 0.0
H280 H 0.64436 0.60111 0.1121 0.0
O281 O 0.56262 0.63382 0.12622 0.0
C282 C 0.6575 0.62778 0.08977 0.0
O283 O 0.63927 0.62228 0.07229 0.0
N284 N 0.53183 0.62812 0.08388 0.0
C285 C 0.47255 0.63272 0.05245 0.0
C286 C 0.46998 0.64058 0.0728 0.0
C287 C 0.50016 0.6382 0.0883 0.0
C288 C 0.53415 0.62013 0.06445 0.0
C289 C 0.50442 0.62186 0.04883 0.0
H290 H 0.49974 0.64553 0.10296 0.0
H291 H 0.56053 0.61301 0.06054 0.0
H292 H 0.55897 0.66562 0.11736 0.0
H293 H 0.59477 0.68174 0.05543 0.0
H294 H 0.55056 0.56778 0.10124 0.0
H295 H 0.44645 0.64937 0.07621 0.0
H296 H 0.50755 0.61529 0.03362 0.0
C297 C 0.92484 0.36771 0.07484 0.0
C298 C 0.93511 0.3514 0.07363 0.0
N299 N 0.9403 0.34569 0.09393 0.0
N300 N 0.92367 0.37248 0.09582 0.0
C301 C 0.93276 0.35866 0.10719 0.0
H302 H 0.92042 0.37586 0.06118 0.0
Co303 Co 0.91619 0.39479 0.10361 0.0
C304 C 0.97088 0.39356 0.1431 0.0
O305 O 0.00057 0.40092 0.13312 0.0
N306 N 0.90762 0.41737 0.11117 0.0
C307 C 0.91695 0.44347 0.12142 0.0
C308 C 0.93424 0.42818 0.1196 0.0
C309 C 0.87423 0.4266 0.10796 0.0
N310 N 0.87911 0.44252 0.11408 0.0
O311 O 0.86334 0.38957 0.11353 0.0
H312 H 0.96495 0.4255 0.12338 0.0
H313 H 0.84721 0.42194 0.10054 0.0
O314 O 0.93797 0.39067 0.13307 0.0
C315 C 0.84236 0.38886 0.09626 0.0
O316 O 0.85944 0.39239 0.07763 0.0
N317 N 0.96613 0.39984 0.09064 0.0
C318 C 0.02409 0.40175 0.05797 0.0
C319 C 0.0282 0.3905 0.07508 0.0
C320 C 0.9986 0.38958 0.09111 0.0
C321 C 0.96286 0.41133 0.07459 0.0
C322 C 0.99169 0.41266 0.05835 0.0
H323 H 0.00019 0.37969 0.1028 0.0
H324 H 0.93599 0.41863 0.07312 0.0
H325 H 0.936 0.35832 0.12466 0.0
H326 H 0.93946 0.34433 0.05889 0.0
H327 H 0.93136 0.45448 0.12758 0.0
H328 H 0.05235 0.38162 0.07519 0.0
H329 H 0.98737 0.42155 0.04548 0.0
C330 C 0.06633 0.37092 0.44283 0.0
C331 C 0.05571 0.35466 0.44442 0.0
N332 N 0.05038 0.3486 0.42425 0.0
N333 N 0.06788 0.37531 0.42175 0.0
C334 C 0.05838 0.36134 0.4107 0.0
H335 H 0.07113 0.37927 0.45629 0.0
Co336 Co 0.07689 0.39742 0.41359 0.0
C337 C 0.02152 0.39603 0.37421 0.0
O338 O 0.99214 0.40381 0.38392 0.0
N339 N 0.08704 0.4197 0.40583 0.0
C340 C 0.08079 0.44575 0.39497 0.0
C341 C 0.06262 0.43056 0.39583 0.0
C342 C 0.11998 0.42874 0.4109 0.0
N343 N 0.11692 0.44462 0.40447 0.0
O344 O 0.1291 0.3917 0.40311 0.0
H345 H 0.0328 0.42798 0.39023 0.0
H346 H 0.14509 0.42398 0.41997 0.0
O347 O 0.05423 0.39315 0.38439 0.0
C348 C 0.15198 0.38987 0.41948 0.0
O349 O 0.13694 0.39194 0.43898 0.0
N350 N 0.02761 0.40323 0.42669 0.0
C351 C 0.96815 0.40757 0.45814 0.0
C352 C 0.9637 0.39568 0.44175 0.0
C353 C 0.99407 0.39353 0.42637 0.0
C354 C 0.03156 0.41518 0.44219 0.0
C355 C 0.00204 0.41771 0.45779 0.0
H356 H 0.99184 0.38329 0.41517 0.0
H357 H 0.05916 0.42203 0.44367 0.0
H358 H 0.05548 0.36071 0.39322 0.0
H359 H 0.05158 0.34787 0.45936 0.0
H360 H 0.06819 0.45681 0.38799 0.0
H361 H 0.93841 0.38732 0.44172 0.0
H362 H 0.00675 0.42701 0.47018 0.0
C363 C 0.43355 0.65771 0.43348 0.0
C364 C 0.44347 0.67412 0.43333 0.0
N365 N 0.44867 0.67886 0.41259 0.0
N366 N 0.4327 0.65196 0.41292 0.0
C367 C 0.44154 0.66524 0.40046 0.0
H368 H 0.42898 0.6502 0.44776 0.0
Co369 Co 0.42546 0.62945 0.40633 0.0
C370 C 0.48313 0.62995 0.36795 0.0
O371 O 0.51224 0.62293 0.3788 0.0
N372 N 0.41697 0.60676 0.39991 0.0
C373 C 0.42403 0.5808 0.38883 0.0
C374 C 0.44113 0.59617 0.38923 0.0
C375 C 0.3853 0.59732 0.40597 0.0
N376 N 0.38885 0.58142 0.39944 0.0
O377 O 0.37359 0.63422 0.3948 0.0
H378 H 0.46986 0.59909 0.38246 0.0
H379 H 0.36061 0.60191 0.41554 0.0
O380 O 0.44949 0.63278 0.37723 0.0
C381 C 0.35046 0.63604 0.41107 0.0
O382 O 0.36529 0.6343 0.43068 0.0
N383 N 0.47439 0.62471 0.42063 0.0
C384 C 0.53141 0.62269 0.4538 0.0
C385 C 0.53635 0.63386 0.43665 0.0
C386 C 0.50716 0.63486 0.4204 0.0
C387 C 0.47023 0.61336 0.43681 0.0
C388 C 0.49851 0.61202 0.45333 0.0
H389 H 0.50949 0.64464 0.40857 0.0
H390 H 0.44314 0.60617 0.43815 0.0
H391 H 0.44479 0.66477 0.38299 0.0
H392 H 0.4475 0.68191 0.44746 0.0
H393 H 0.4367 0.57 0.38117 0.0
H394 H 0.56091 0.64258 0.43664 0.0
H395 H 0.49348 0.60326 0.46631 0.0
C396 C 0.41161 0.37658 0.93696 0.0
C397 C 0.42042 0.36009 0.93778 0.0
N398 N 0.43371 0.35532 0.91813 0.0
N399 N 0.41926 0.38234 0.91688 0.0
C400 C 0.4324 0.36901 0.90561 0.0
H401 H 0.40208 0.38411 0.95049 0.0
Co402 Co 0.41739 0.40497 0.91076 0.0
C403 C 0.46707 0.40707 0.87074 0.0
O404 O 0.49177 0.41723 0.88053 0.0
N405 N 0.41485 0.42844 0.90484 0.0
C406 C 0.42928 0.45534 0.90332 0.0
C407 C 0.44438 0.43982 0.90662 0.0
C408 C 0.38212 0.43768 0.89993 0.0
N409 N 0.38986 0.45405 0.89927 0.0
O410 O 0.36318 0.40234 0.90141 0.0
H411 H 0.47511 0.43728 0.91086 0.0
H412 H 0.35275 0.43262 0.89702 0.0
O413 O 0.43719 0.40111 0.88109 0.0
C414 C 0.34329 0.40536 0.91866 0.0
O415 O 0.36285 0.40997 0.93616 0.0
N416 N 0.46805 0.40698 0.92356 0.0
C417 C 0.52707 0.40397 0.95535 0.0
C418 C 0.53142 0.39609 0.93514 0.0
C419 C 0.50107 0.39753 0.91949 0.0
C420 C 0.46426 0.41504 0.94288 0.0
C421 C 0.4936 0.41397 0.95877 0.0
H422 H 0.50268 0.39008 0.90497 0.0
H423 H 0.43695 0.4216 0.94653 0.0
H424 H 0.44319 0.3695 0.88906 0.0
H425 H 0.41831 0.35229 0.95197 0.0
H426 H 0.44595 0.46672 0.90482 0.0
H427 H 0.55651 0.38799 0.93208 0.0
H428 H 0.48911 0.42029 0.97408 0.0
C429 C 0.06293 0.66426 0.93177 0.0
C430 C 0.0522 0.68051 0.9332 0.0
N431 N 0.05008 0.68672 0.91298 0.0
N432 N 0.06744 0.66004 0.91072 0.0
C433 C 0.05993 0.67411 0.89957 0.0
H434 H 0.06536 0.65578 0.94522 0.0
Co435 Co 0.07634 0.63799 0.90223 0.0
C436 C 0.03062 0.63963 0.85999 0.0
O437 O 0.00104 0.63092 0.86798 0.0
N438 N 0.08629 0.61548 0.89399 0.0
C439 C 0.07722 0.5892 0.88435 0.0
C440 C 0.0596 0.60439 0.88621 0.0
C441 C 0.12026 0.60646 0.89661 0.0
N442 N 0.11541 0.59043 0.891 0.0
O443 O 0.13125 0.64354 0.89672 0.0
H444 H 0.02836 0.6067 0.88338 0.0
H445 H 0.14769 0.61127 0.90339 0.0
O446 O 0.06117 0.64313 0.87175 0.0
C447 C 0.14546 0.64254 0.91594 0.0
O448 O 0.12252 0.6363 0.93121 0.0
N449 N 0.02386 0.63287 0.91152 0.0
C450 C 0.96054 0.63179 0.94107 0.0
C451 C 0.96006 0.64295 0.92373 0.0
C452 C 0.99213 0.64337 0.90919 0.0
C453 C 0.0236 0.62142 0.92771 0.0
C454 C 0.99197 0.62046 0.94239 0.0
H455 H 0.99311 0.65316 0.89733 0.0
H456 H 0.04985 0.614 0.93073 0.0
H457 H 0.05935 0.67489 0.88204 0.0
H458 H 0.04542 0.68719 0.94798 0.0
H459 H 0.0626 0.578 0.87896 0.0
H460 H 0.93636 0.65197 0.92222 0.0
H461 H 0.99405 0.61193 0.95583 0.0
C462 C 0.92954 0.66562 0.56265 0.0
C463 C 0.93617 0.68227 0.56172 0.0
N464 N 0.93969 0.68812 0.58214 0.0
N465 N 0.92884 0.66075 0.58354 0.0
C466 C 0.93519 0.67476 0.59513 0.0
H467 H 0.92631 0.65743 0.54888 0.0
Co468 Co 0.92153 0.63848 0.59132 0.0
C469 C 0.97939 0.63997 0.62961 0.0
O470 O 0.00846 0.63248 0.61925 0.0
N471 N 0.91294 0.61602 0.59885 0.0
C472 C 0.92027 0.59012 0.61005 0.0
C473 C 0.93805 0.60536 0.60867 0.0
C474 C 0.88004 0.60679 0.59431 0.0
N475 N 0.88369 0.59097 0.60099 0.0
O476 O 0.86975 0.64364 0.60287 0.0
H477 H 0.96792 0.60814 0.61402 0.0
H478 H 0.85437 0.61143 0.5856 0.0
O479 O 0.9459 0.64265 0.62011 0.0
C480 C 0.84601 0.64555 0.58687 0.0
O481 O 0.86017 0.64386 0.56711 0.0
N482 N 0.97022 0.63324 0.57718 0.0
C483 C 0.02806 0.62957 0.54472 0.0
C484 C 0.03296 0.64136 0.5612 0.0
C485 C 0.0033 0.64321 0.57707 0.0
C486 C 0.96584 0.62142 0.56155 0.0
C487 C 0.99453 0.61925 0.5454 0.0
H488 H 0.00567 0.65338 0.58836 0.0
H489 H 0.93846 0.61438 0.56044 0.0
H490 H 0.93661 0.67514 0.61267 0.0
H491 H 0.9394 0.68943 0.54702 0.0
H492 H 0.9334 0.57924 0.61723 0.0
H493 H 0.05801 0.64984 0.56096 0.0
H494 H 0.98949 0.61005 0.53292 0.0
C495 C 0.56785 0.37897 0.57238 0.0
C496 C 0.56175 0.36225 0.57204 0.0
N497 N 0.55609 0.35707 0.59257 0.0
N498 N 0.56634 0.38445 0.59304 0.0
C499 C 0.55896 0.37079 0.60505 0.0
H500 H 0.57243 0.38675 0.55837 0.0
Co501 Co 0.57306 0.40683 0.60027 0.0
C502 C 0.51703 0.40517 0.63946 0.0
O503 O 0.48636 0.41182 0.6295 0.0
N504 N 0.58112 0.42939 0.60727 0.0
C505 C 0.57325 0.45528 0.61846 0.0
C506 C 0.55628 0.43985 0.61768 0.0
C507 C 0.61301 0.4389 0.60179 0.0
N508 N 0.60901 0.45472 0.60843 0.0
O509 O 0.62515 0.40202 0.61143 0.0
H510 H 0.52714 0.43676 0.62389 0.0
H511 H 0.63819 0.43445 0.59248 0.0
O512 O 0.55014 0.40301 0.62939 0.0
C513 C 0.64829 0.40081 0.59509 0.0
O514 O 0.63357 0.40338 0.57562 0.0
N515 N 0.52376 0.41158 0.5865 0.0
C516 C 0.46605 0.4137 0.55373 0.0
C517 C 0.46163 0.40239 0.57076 0.0
C518 C 0.49121 0.40133 0.5868 0.0
C519 C 0.5274 0.42308 0.57047 0.0
C520 C 0.49876 0.42447 0.55414 0.0
H521 H 0.48943 0.39139 0.59842 0.0
H522 H 0.55436 0.43036 0.56909 0.0
H523 H 0.55582 0.37086 0.62253 0.0
H524 H 0.56054 0.35454 0.55769 0.0
H525 H 0.56014 0.46608 0.62592 0.0
H526 H 0.43723 0.39359 0.57076 0.0
H527 H 0.50341 0.43331 0.54122 0.0
H528 H 0.49209 0.12361 0.9938 0.0
H529 H 0.44719 0.12491 0.025 0.0
H530 H 0.35206 0.14212 0.98371 0.0
H531 H 0.39591 0.14005 0.95209 0.0
H532 H 0.37012 0.16155 0.02445 0.0
H533 H 0.34287 0.1049 0.99811 0.0
H534 H 0.3648 0.07676 0.98865 0.0
H535 H 0.41664 0.07122 0.052 0.0
H536 H 0.39511 0.09937 0.06177 0.0
H537 H 0.17681 0.15282 0.05806 0.0
H538 H 0.24455 0.15522 0.04453 0.0
H539 H 0.28636 0.12334 0.09579 0.0
H540 H 0.21706 0.12051 0.10903 0.0
H541 H 0.3118 0.11208 0.05957 0.0
H542 H 0.32178 0.16474 0.08988 0.0
H543 H 0.30212 0.19272 0.10116 0.0
H544 H 0.29017 0.20703 0.03443 0.0
H545 H 0.30913 0.17908 0.02269 0.0
C546 C 0.46138 0.1273 0.99113 0.0
C547 C 0.44772 0.13166 0.97023 0.0
C548 C 0.43592 0.1282 0.0091 0.0
C549 C 0.39651 0.1337 0.00662 0.0
C550 C 0.38259 0.13798 0.98592 0.0
C551 C 0.40779 0.13685 0.96787 0.0
C552 C 0.36948 0.13509 0.02555 0.0
C553 C 0.35718 0.1508 0.0322 0.0
C554 C 0.35474 0.12107 0.03648 0.0
C555 C 0.36777 0.10424 0.03057 0.0
C556 C 0.3592 0.0977 0.00994 0.0
C557 C 0.37146 0.08175 0.00455 0.0
C558 C 0.3922 0.07222 0.0197 0.0
C559 C 0.40069 0.07863 0.04027 0.0
C560 C 0.38842 0.09456 0.04575 0.0
C561 C 0.20069 0.14683 0.06695 0.0
C562 C 0.19198 0.1366 0.08463 0.0
C563 C 0.23962 0.14828 0.05928 0.0
C564 C 0.271 0.13964 0.06923 0.0
C565 C 0.26275 0.13022 0.08791 0.0
C566 C 0.22334 0.12874 0.09563 0.0
C567 C 0.31022 0.13865 0.05783 0.0
C568 C 0.32526 0.12299 0.0525 0.0
C569 C 0.32824 0.15281 0.04852 0.0
C570 C 0.3169 0.16974 0.0554 0.0
C571 C 0.31476 0.17381 0.07759 0.0
C572 C 0.30375 0.18969 0.08407 0.0
C573 C 0.29491 0.20165 0.06852 0.0
C574 C 0.2971 0.19776 0.04645 0.0
C575 C 0.30809 0.1819 0.03988 0.0
H576 H 0.28637 0.21393 0.07358 0.0
H577 H 0.40162 0.05987 0.01551 0.0
H578 H 0.01499 0.91172 1.00038 0.0
H579 H 0.061 0.90726 0.0306 0.0
H580 H 0.15109 0.89012 0.98597 0.0
H581 H 0.10631 0.89536 0.95546 0.0
H582 H 0.13399 0.8689 0.02416 0.0
H583 H 0.16144 0.92619 0.00403 0.0
H584 H 0.14204 0.95519 0.99854 0.0
H585 H 0.10336 0.95839 0.06489 0.0
H586 H 0.12194 0.9293 0.07065 0.0
H587 H 0.32883 0.87211 0.05884 0.0
H588 H 0.26115 0.87162 0.04485 0.0
H589 H 0.22121 0.90037 0.0998 0.0
H590 H 0.29046 0.90131 0.11352 0.0
H591 H 0.198 0.91458 0.06506 0.0
H592 H 0.18291 0.85996 0.08827 0.0
H593 H 0.20032 0.83098 0.09544 0.0
H594 H 0.21078 0.82187 0.027 0.0
H595 H 0.19404 0.85084 0.01938 0.0
C596 C 0.04486 0.90737 0.99682 0.0
C597 C 0.0568 0.90398 0.97529 0.0
C598 C 0.07094 0.90464 0.01421 0.0
C599 C 0.10926 0.89827 0.0105 0.0
C600 C 0.12142 0.8949 0.98916 0.0
C601 C 0.09566 0.89786 0.97173 0.0
C602 C 0.1371 0.89513 0.02873 0.0
C603 C 0.14815 0.87883 0.03315 0.0
C604 C 0.15371 0.90807 0.04122 0.0
C605 C 0.14249 0.92551 0.03767 0.0
C606 C 0.14835 0.93302 0.01737 0.0
C607 C 0.1376 0.94948 0.01423 0.0
C608 C 0.12131 0.9586 0.03133 0.0
C609 C 0.11585 0.95129 0.05163 0.0
C610 C 0.12648 0.93482 0.05485 0.0
C611 C 0.30534 0.87778 0.06839 0.0
C612 C 0.31466 0.88665 0.08728 0.0
C613 C 0.26642 0.87743 0.06044 0.0
C614 C 0.23562 0.88581 0.07131 0.0
C615 C 0.24436 0.89373 0.09115 0.0
C616 C 0.28374 0.89411 0.09915 0.0
C617 C 0.19673 0.88826 0.05994 0.0
C618 C 0.18328 0.90448 0.0567 0.0
C619 C 0.1773 0.87517 0.04885 0.0
C620 C 0.18723 0.85764 0.05326 0.0
C621 C 0.18912 0.85181 0.07473 0.0
C622 C 0.19886 0.83537 0.07888 0.0
C623 C 0.20666 0.8246 0.06169 0.0
C624 C 0.20467 0.83023 0.0403 0.0
C625 C 0.19495 0.84666 0.03606 0.0
H626 H 0.21422 0.81188 0.06493 0.0
H627 H 0.11305 0.97135 0.02887 0.0
H628 H 0.70832 0.86675 0.4364 0.0
H629 H 0.77582 0.87185 0.44961 0.0
H630 H 0.78122 0.91661 0.41207 0.0
H631 H 0.71357 0.91125 0.39835 0.0
H632 H 0.85336 0.87987 0.43957 0.0
H633 H 0.80706 0.94685 0.44936 0.0
H634 H 0.74706 0.96449 0.44682 0.0
H635 H 0.67277 0.92376 0.46572 0.0
H636 H 0.73236 0.90601 0.46885 0.0
H637 H 0.99359 0.91612 0.51361 0.0
H638 H 0.95051 0.91385 0.48163 0.0
H639 H 0.84785 0.90705 0.52308 0.0
H640 H 0.8908 0.90943 0.55522 0.0
H641 H 0.83279 0.92811 0.48798 0.0
H642 H 0.89122 0.87455 0.50222 0.0
H643 H 0.94749 0.85538 0.50768 0.0
H644 H 0.9923 0.86677 0.44411 0.0
H645 H 0.93654 0.88621 0.43842 0.0
C646 C 0.7248 0.87716 0.42996 0.0
C647 C 0.70559 0.88876 0.41673 0.0
C648 C 0.7634 0.88011 0.43758 0.0
C649 C 0.78308 0.89484 0.43232 0.0
C650 C 0.76625 0.90527 0.41656 0.0
C651 C 0.7276 0.90217 0.40867 0.0
C652 C 0.81559 0.90062 0.44688 0.0
C653 C 0.84944 0.89066 0.44978 0.0
C654 C 0.81002 0.91449 0.46058 0.0
C655 C 0.77407 0.92509 0.45909 0.0
C656 C 0.77791 0.9417 0.45304 0.0
C657 C 0.74401 0.95171 0.45152 0.0
C658 C 0.70617 0.94524 0.45609 0.0
C659 C 0.70211 0.92875 0.46219 0.0
C660 C 0.73593 0.91872 0.46387 0.0
C661 C 0.96172 0.91446 0.51594 0.0
C662 C 0.94551 0.913 0.53695 0.0
C663 C 0.93722 0.91307 0.49764 0.0
C664 C 0.89606 0.91023 0.5 0.0
C665 C 0.87957 0.90929 0.52093 0.0
C666 C 0.90412 0.91054 0.53926 0.0
C667 C 0.87037 0.90728 0.48075 0.0
C668 C 0.83768 0.91773 0.47716 0.0
C669 C 0.87672 0.89373 0.46666 0.0
C670 C 0.91004 0.88198 0.47001 0.0
C671 C 0.91327 0.87307 0.48949 0.0
C672 C 0.94502 0.86214 0.49261 0.0
C673 C 0.97353 0.8599 0.47628 0.0
C674 C 0.97025 0.86855 0.45677 0.0
C675 C 0.93858 0.87952 0.45358 0.0
H676 H 0.99809 0.85143 0.47872 0.0
H677 H 0.68001 0.95302 0.45504 0.0
H678 H 0.79763 0.16382 0.41524 0.0
H679 H 0.73634 0.16873 0.43614 0.0
H680 H 0.70947 0.11674 0.43397 0.0
H681 H 0.7703 0.11193 0.41304 0.0
H682 H 0.64085 0.13523 0.438 0.0
H683 H 0.77211 0.13082 0.47194 0.0
H684 H 0.84244 0.13952 0.47622 0.0
H685 H 0.80416 0.18827 0.49359 0.0
H686 H 0.73354 0.17989 0.48911 0.0
H687 H 0.56446 0.11085 0.53864 0.0
H688 H 0.60975 0.11465 0.50791 0.0
H689 H 0.61756 0.16659 0.5222 0.0
H690 H 0.5717 0.16294 0.55284 0.0
H691 H 0.69083 0.15304 0.51029 0.0
H692 H 0.55706 0.15464 0.48299 0.0
H693 H 0.48779 0.14476 0.4783 0.0
H694 H 0.531 0.10039 0.44841 0.0
H695 H 0.60061 0.10988 0.45325 0.0
C696 C 0.77717 0.15366 0.41798 0.0
C697 C 0.78828 0.13753 0.41245 0.0
C698 C 0.74246 0.15642 0.4302 0.0
C699 C 0.71891 0.14303 0.43708 0.0
C700 C 0.72721 0.12725 0.42893 0.0
C701 C 0.76184 0.12451 0.41681 0.0
C702 C 0.69131 0.14463 0.45586 0.0
C703 C 0.65165 0.13919 0.45378 0.0
C704 C 0.70537 0.14991 0.47646 0.0
C705 C 0.74765 0.15479 0.48 0.0
C706 C 0.77873 0.14341 0.47663 0.0
C707 C 0.81862 0.14828 0.47905 0.0
C708 C 0.82778 0.16446 0.48509 0.0
C709 C 0.79702 0.17576 0.48886 0.0
C710 C 0.75706 0.17095 0.48639 0.0
C711 C 0.57608 0.12307 0.53538 0.0
C712 C 0.56418 0.13661 0.54811 0.0
C713 C 0.60188 0.12523 0.51778 0.0
C714 C 0.61631 0.14097 0.51249 0.0
C715 C 0.60655 0.15436 0.52593 0.0
C716 C 0.58059 0.15221 0.54355 0.0
C717 C 0.64045 0.14341 0.4925 0.0
C718 C 0.67958 0.14949 0.49443 0.0
C719 C 0.62594 0.1386 0.47181 0.0
C720 C 0.58409 0.13293 0.46862 0.0
C721 C 0.55182 0.14272 0.47555 0.0
C722 C 0.51248 0.1372 0.47285 0.0
C723 C 0.505 0.12195 0.46309 0.0
C724 C 0.53685 0.1122 0.45597 0.0
C725 C 0.57625 0.11765 0.45867 0.0
H726 H 0.47453 0.11769 0.46102 0.0
H727 H 0.85869 0.16822 0.48689 0.0
H728 H 0.78828 0.92285 0.90163 0.0
H729 H 0.72073 0.92544 0.91674 0.0
H730 H 0.73055 0.87676 0.94409 0.0
H731 H 0.79774 0.87422 0.92905 0.0
H732 H 0.64739 0.88818 0.93583 0.0
H733 H 0.77228 0.90445 0.97841 0.0
H734 H 0.8374 0.91886 0.97656 0.0
H735 H 0.77935 0.96185 0.95128 0.0
H736 H 0.71386 0.94784 0.9535 0.0
H737 H 0.57562 0.8811 0.04148 0.0
H738 H 0.61639 0.88151 0.00882 0.0
H739 H 0.61107 0.9346 0.00772 0.0
H740 H 0.57229 0.93438 0.04136 0.0
H741 H 0.68248 0.92538 0.99711 0.0
H742 H 0.55279 0.91003 0.97276 0.0
H743 H 0.48937 0.89447 0.97251 0.0
H744 H 0.55328 0.84976 0.95904 0.0
H745 H 0.61717 0.865 0.95953 0.0
C746 C 0.77488 0.91232 0.9096 0.0
C747 C 0.79794 0.89834 0.91424 0.0
C748 C 0.73642 0.91384 0.91839 0.0
C749 C 0.72106 0.90141 0.93191 0.0
C750 C 0.74179 0.88648 0.93369 0.0
C751 C 0.78016 0.885 0.92501 0.0
C752 C 0.69053 0.90531 0.94857 0.0
C753 C 0.65459 0.89643 0.94914 0.0
C754 C 0.69988 0.91622 0.96577 0.0
C755 C 0.73837 0.9252 0.96631 0.0
C756 C 0.77345 0.91709 0.97281 0.0
C757 C 0.81037 0.92517 0.97167 0.0
C758 C 0.81248 0.94131 0.96389 0.0
C759 C 0.77762 0.94944 0.95749 0.0
C760 C 0.74058 0.94148 0.95883 0.0
C761 C 0.58383 0.89292 0.03469 0.0
C762 C 0.5705 0.90772 0.04419 0.0
C763 C 0.60653 0.89311 0.01566 0.0
C764 C 0.61583 0.90806 0.00537 0.0
C765 C 0.60382 0.92289 0.01516 0.0
C766 C 0.58146 0.92273 0.03437 0.0
C767 C 0.63886 0.90812 0.98469 0.0
C768 C 0.67399 0.91758 0.98354 0.0
C769 C 0.62823 0.89789 0.96685 0.0
C770 C 0.58983 0.88866 0.96629 0.0
C771 C 0.55336 0.89686 0.96986 0.0
C772 C 0.51731 0.8881 0.96967 0.0
C773 C 0.5173 0.87113 0.96579 0.0
C774 C 0.55334 0.8629 0.96204 0.0
C775 C 0.58948 0.87161 0.96224 0.0
H776 H 0.48936 0.86437 0.96566 0.0
H777 H 0.84112 0.9475 0.96274 0.0
H778 H 0.71305 0.12357 0.89584 0.0
H779 H 0.77843 0.1196 0.91307 0.0
H780 H 0.76741 0.167 0.94431 0.0
H781 H 0.70234 0.17083 0.92726 0.0
H782 H 0.8465 0.15808 0.93936 0.0
H783 H 0.72057 0.13395 0.96498 0.0
H784 H 0.66129 0.11604 0.96099 0.0
H785 H 0.73736 0.07406 0.9515 0.0
H786 H 0.7971 0.09182 0.95485 0.0
H787 H 0.92046 0.1521 0.04556 0.0
H788 H 0.87682 0.15553 0.01413 0.0
H789 H 0.89151 0.10415 0.99795 0.0
H790 H 0.93321 0.1004 0.03008 0.0
H791 H 0.81843 0.11247 0.99075 0.0
H792 H 0.94464 0.13557 0.97128 0.0
H793 H 0.00417 0.15328 0.97553 0.0
H794 H 0.93003 0.19639 0.97341 0.0
H795 H 0.86996 0.17894 0.96947 0.0
C796 C 0.72587 0.13356 0.90524 0.0
C797 C 0.7028 0.14744 0.91041 0.0
C798 C 0.76302 0.13122 0.91529 0.0
C799 C 0.77714 0.1428 0.9305 0.0
C800 C 0.75699 0.15785 0.93278 0.0
C801 C 0.71989 0.16011 0.92287 0.0
C802 C 0.80676 0.13811 0.94731 0.0
C803 C 0.84058 0.14807 0.95056 0.0
C804 C 0.79922 0.1249 0.96178 0.0
C805 C 0.76327 0.11424 0.95987 0.0
C806 C 0.72464 0.12093 0.96185 0.0
C807 C 0.69096 0.11081 0.95969 0.0
C808 C 0.69556 0.09394 0.9559 0.0
C809 C 0.73384 0.08715 0.95433 0.0
C810 C 0.76761 0.09724 0.95629 0.0
C811 C 0.91362 0.14142 0.03566 0.0
C812 C 0.93065 0.12599 0.04031 0.0
C813 C 0.88922 0.14347 0.01742 0.0
C814 C 0.88186 0.13021 1.00325 0.0
C815 C 0.89718 0.11463 0.00844 0.0
C816 C 0.92118 0.11252 0.02679 0.0
C817 C 0.85812 0.13258 0.98306 0.0
C818 C 0.82517 0.12223 0.9793 0.0
C819 C 0.86665 0.14537 0.9681 0.0
C820 C 0.90275 0.15593 0.97022 0.0
C821 C 0.941 0.14882 0.97184 0.0
C822 C 0.97485 0.15882 0.97419 0.0
C823 C 0.97088 0.17595 0.97478 0.0
C824 C 0.93305 0.18312 0.97296 0.0
C825 C 0.8991 0.17318 0.97064 0.0
H826 H 0.99712 0.18366 0.97661 0.0
H827 H 0.66946 0.08613 0.9542 0.0
H828 H 0.00199 0.12567 0.48993 0.0
H829 H 0.0489 0.13006 0.51975 0.0
H830 H 0.14668 0.13203 0.47415 0.0
H831 H 0.09988 0.12723 0.44413 0.0
H832 H 0.16621 0.11446 0.51073 0.0
H833 H 0.10558 0.16646 0.49281 0.0
H834 H 0.04861 0.18511 0.48672 0.0
H835 H 0.01188 0.17914 0.55302 0.0
H836 H 0.06803 0.16003 0.55935 0.0
H837 H 0.30053 0.17202 0.56148 0.0
H838 H 0.23354 0.16956 0.54603 0.0
H839 H 0.21021 0.12769 0.58714 0.0
H840 H 0.2775 0.13024 0.60279 0.0
H841 H 0.14884 0.16455 0.55626 0.0
H842 H 0.19376 0.09865 0.55516 0.0
H843 H 0.25433 0.08225 0.56218 0.0
H844 H 0.32682 0.11915 0.53153 0.0
H845 H 0.26655 0.1359 0.52452 0.0
C846 C 0.03357 0.12667 0.48622 0.0
C847 C 0.04723 0.12602 0.46461 0.0
C848 C 0.06029 0.12934 0.50331 0.0
C849 C 0.1012 0.13152 0.49916 0.0
C850 C 0.11517 0.13039 0.4777 0.0
C851 C 0.08841 0.12775 0.46056 0.0
C852 C 0.1292 0.13568 0.51705 0.0
C853 C 0.16204 0.12532 0.52077 0.0
C854 C 0.12405 0.14992 0.53016 0.0
C855 C 0.09075 0.16166 0.52648 0.0
C856 C 0.08518 0.16901 0.50605 0.0
C857 C 0.05304 0.17968 0.50255 0.0
C858 C 0.02662 0.18331 0.51946 0.0
C859 C 0.03233 0.17629 0.53992 0.0
C860 C 0.06428 0.16552 0.54347 0.0
C861 C 0.28023 0.16289 0.56809 0.0
C862 C 0.2939 0.15132 0.58327 0.0
C863 C 0.24194 0.1615 0.55927 0.0
C864 C 0.21716 0.14832 0.56523 0.0
C865 C 0.22896 0.13796 0.58235 0.0
C866 C 0.26728 0.13946 0.59137 0.0
C867 C 0.1851 0.14319 0.55003 0.0
C868 C 0.15204 0.15344 0.54659 0.0
C869 C 0.19014 0.12902 0.53691 0.0
C870 C 0.22577 0.11841 0.53921 0.0
C871 C 0.22257 0.10314 0.54967 0.0
C872 C 0.25687 0.09385 0.55377 0.0
C873 C 0.29441 0.09957 0.54722 0.0
C874 C 0.29773 0.11467 0.53651 0.0
C875 C 0.26354 0.12408 0.53249 0.0
H876 H 0.32089 0.09234 0.55052 0.0
H877 H 0.00177 0.19158 0.51672 0.0
H878 H 0.21503 0.92423 0.59179 0.0
H879 H 0.27968 0.91799 0.57556 0.0
H880 H 0.25719 0.86602 0.58392 0.0
H881 H 0.19178 0.87236 0.59998 0.0
H882 H 0.3491 0.90174 0.5787 0.0
H883 H 0.27234 0.84805 0.53486 0.0
H884 H 0.20407 0.83723 0.5289 0.0
H885 H 0.15655 0.88626 0.53296 0.0
H886 H 0.22455 0.89737 0.53856 0.0
H887 H 0.4867 0.87817 0.49745 0.0
H888 H 0.43836 0.87571 0.52707 0.0
H889 H 0.34615 0.89546 0.48558 0.0
H890 H 0.39437 0.89739 0.45564 0.0
H891 H 0.31523 0.87259 0.51015 0.0
H892 H 0.39944 0.91981 0.52249 0.0
H893 H 0.46346 0.93453 0.5273 0.0
H894 H 0.49018 0.90488 0.58309 0.0
H895 H 0.4265 0.88983 0.57841 0.0
C896 C 0.22492 0.91153 0.59132 0.0
C897 C 0.19873 0.89876 0.59713 0.0
C898 C 0.26184 0.90795 0.58194 0.0
C899 C 0.2728 0.89153 0.57802 0.0
C900 C 0.24902 0.87878 0.58657 0.0
C901 C 0.21191 0.88239 0.59599 0.0
C902 C 0.30387 0.88813 0.56139 0.0
C903 C 0.34203 0.89508 0.56389 0.0
C904 C 0.29416 0.87995 0.54172 0.0
C905 C 0.25341 0.87348 0.53738 0.0
C906 C 0.24731 0.85651 0.53434 0.0
C907 C 0.20868 0.85034 0.53104 0.0
C908 C 0.17598 0.86105 0.53065 0.0
C909 C 0.18187 0.87798 0.53333 0.0
C910 C 0.22045 0.88421 0.53653 0.0
C911 C 0.45598 0.88184 0.49464 0.0
C912 C 0.44423 0.88816 0.4744 0.0
C913 C 0.42843 0.88046 0.51157 0.0
C914 C 0.3888 0.88573 0.50873 0.0
C915 C 0.37659 0.89136 0.48819 0.0
C916 C 0.40407 0.89249 0.47111 0.0
C917 C 0.36064 0.88622 0.52741 0.0
C918 C 0.32288 0.87881 0.5252 0.0
C919 C 0.37029 0.89449 0.54705 0.0
C920 C 0.40846 0.90358 0.54995 0.0
C921 C 0.41911 0.91636 0.53569 0.0
C922 C 0.45531 0.92477 0.5384 0.0
C923 C 0.48093 0.92061 0.55545 0.0
C924 C 0.47034 0.90806 0.56986 0.0
C925 C 0.4342 0.89959 0.56719 0.0
H926 H 0.50894 0.92714 0.55753 0.0
H927 H 0.14608 0.85623 0.52821 0.0
H928 H 0.71028 0.60393 0.08081 0.0
H929 H 0.77545 0.60822 0.06424 0.0
H930 H 0.76685 0.66034 0.0775 0.0
H931 H 0.70097 0.65592 0.09421 0.0
H932 H 0.77205 0.65452 0.03538 0.0
H933 H 0.84821 0.63773 0.09605 0.0
H934 H 0.86701 0.62073 0.12753 0.0
H935 H 0.8864 0.57919 0.08561 0.0
H936 H 0.86718 0.59585 0.05388 0.0
H937 H 0.93675 0.65993 0.96155 0.0
H938 H 0.89521 0.66236 0.99405 0.0
H939 H 0.87929 0.60959 0.9949 0.0
H940 H 0.92124 0.60709 0.96249 0.0
H941 H 0.89592 0.62099 0.03483 0.0
H942 H 0.80562 0.63594 0.97652 0.0
H943 H 0.78406 0.65216 0.9448 0.0
H944 H 0.78927 0.69653 0.98281 0.0
H945 H 0.81135 0.68058 0.0147 0.0
C946 C 0.72339 0.61614 0.08134 0.0
C947 C 0.70106 0.62957 0.08894 0.0
C948 C 0.76069 0.61863 0.07181 0.0
C949 C 0.77615 0.63463 0.06957 0.0
C950 C 0.75556 0.64789 0.07914 0.0
C951 C 0.71819 0.64535 0.08889 0.0
C952 C 0.80857 0.63754 0.05354 0.0
C953 C 0.79977 0.64758 0.03562 0.0
C954 C 0.84422 0.62817 0.05352 0.0
C955 C 0.85612 0.61807 0.07255 0.0
C956 C 0.85625 0.62495 0.09353 0.0
C957 C 0.86702 0.61537 0.11143 0.0
C958 C 0.87787 0.59889 0.10858 0.0
C959 C 0.87804 0.59196 0.0878 0.0
C960 C 0.8673 0.60149 0.06983 0.0
C961 C 0.92376 0.64888 0.96842 0.0
C962 C 0.93185 0.63332 0.95933 0.0
C963 C 0.90028 0.65027 0.9871 0.0
C964 C 0.88402 0.63616 0.99688 0.0
C965 C 0.89175 0.62064 0.98771 0.0
C966 C 0.91547 0.61922 0.96913 0.0
C967 C 0.85854 0.6375 0.01654 0.0
C968 C 0.86872 0.62826 0.03498 0.0
C969 C 0.82397 0.64753 0.01704 0.0
C970 C 0.81061 0.6571 0.9979 0.0
C971 C 0.80247 0.64917 0.97806 0.0
C972 C 0.79011 0.65831 0.96006 0.0
C973 C 0.78543 0.67537 0.96177 0.0
C974 C 0.79299 0.68332 0.9815 0.0
C975 C 0.80542 0.67424 0.99954 0.0
H976 H 0.77585 0.68243 0.94782 0.0
H977 H 0.88616 0.59149 0.12246 0.0
H978 H 0.783 0.40824 0.11242 0.0
H979 H 0.71552 0.4094 0.09682 0.0
H980 H 0.73899 0.36454 0.06132 0.0
H981 H 0.80581 0.36342 0.07693 0.0
H982 H 0.70923 0.4146 0.05518 0.0
H983 H 0.65613 0.34646 0.04316 0.0
H984 H 0.65138 0.32092 0.06461 0.0
H985 H 0.65005 0.3492 0.12359 0.0
H986 H 0.6542 0.37492 0.10251 0.0
H987 H 0.60925 0.40425 0.95512 0.0
H988 H 0.65408 0.40046 0.98633 0.0
H989 H 0.55202 0.39276 0.02797 0.0
H990 H 0.50737 0.39629 0.99696 0.0
H991 H 0.61016 0.37112 0.03709 0.0
H992 H 0.59812 0.42922 0.02909 0.0
H993 H 0.59935 0.45592 0.01007 0.0
H994 H 0.72411 0.44948 0.99581 0.0
H995 H 0.72351 0.42263 0.01453 0.0
C996 C 0.77272 0.39814 0.10232 0.0
C997 C 0.79923 0.38566 0.09598 0.0
C998 C 0.73437 0.39891 0.09318 0.0
C999 C 0.72217 0.38711 0.07775 0.0
C1000 C 0.74726 0.37366 0.07337 0.0
C1001 C 0.78548 0.37296 0.0824 0.0
C1002 C 0.68755 0.39031 0.0632 0.0
C1003 C 0.68728 0.40514 0.05147 0.0
C1004 C 0.65858 0.37809 0.05842 0.0
C1005 C 0.65571 0.36264 0.07122 0.0
C1006 C 0.65458 0.34725 0.0607 0.0
C1007 C 0.65205 0.33273 0.0728 0.0
C1008 C 0.6505 0.33343 0.09545 0.0
C1009 C 0.65139 0.34866 0.10604 0.0
C1010 C 0.6539 0.36322 0.09402 0.0
C1011 C 0.59652 0.40162 0.97091 0.0
C1012 C 0.55486 0.40079 0.97367 0.0
C1013 C 0.62205 0.39956 0.98873 0.0
C1014 C 0.60631 0.39656 0.00954 0.0
C1015 C 0.5648 0.39516 0.01213 0.0
C1016 C 0.53935 0.3973 0.99441 0.0
C1017 C 0.63305 0.39508 0.02869 0.0
C1018 C 0.63182 0.38061 0.04113 0.0
C1019 C 0.66019 0.40775 0.03443 0.0
C1020 C 0.66068 0.42385 0.02306 0.0
C1021 C 0.62574 0.43343 0.02175 0.0
C1022 C 0.62634 0.44861 0.01106 0.0
C1023 C 0.66176 0.45438 1.0017 0.0
C1024 C 0.69668 0.44499 1.00305 0.0
C1025 C 0.69624 0.4298 0.01372 0.0
H1026 H 0.66217 0.46613 0.99344 0.0
H1027 H 0.64855 0.32218 0.10478 0.0
H1028 H 0.20284 0.41104 0.39912 0.0
H1029 H 0.27169 0.41614 0.41131 0.0
H1030 H 0.26704 0.37198 0.45012 0.0
H1031 H 0.19857 0.36712 0.43827 0.0
H1032 H 0.28107 0.4229 0.45319 0.0
H1033 H 0.35737 0.35856 0.46375 0.0
H1034 H 0.36784 0.33329 0.44225 0.0
H1035 H 0.35284 0.36069 0.38328 0.0
H1036 H 0.34286 0.38619 0.40438 0.0
H1037 H 0.3841 0.41206 0.5525 0.0
H1038 H 0.34134 0.40961 0.52024 0.0
H1039 H 0.44576 0.41085 0.47916 0.0
H1040 H 0.48854 0.41331 0.51124 0.0
H1041 H 0.39462 0.38548 0.46866 0.0
H1042 H 0.3888 0.4432 0.4797 0.0
H1043 H 0.3793 0.46941 0.49926 0.0
H1044 H 0.25657 0.45684 0.51161 0.0
H1045 H 0.26552 0.43037 0.49253 0.0
C1046 C 0.21745 0.40198 0.40927 0.0
C1047 C 0.19566 0.3887 0.41781 0.0
C1048 C 0.25663 0.40497 0.41639 0.0
C1049 C 0.27451 0.39451 0.43176 0.0
C1050 C 0.25425 0.38013 0.43809 0.0
C1051 C 0.21508 0.3773 0.43123 0.0
C1052 C 0.30967 0.40002 0.44462 0.0
C1053 C 0.30623 0.41482 0.45633 0.0
C1054 C 0.3428 0.38961 0.44851 0.0
C1055 C 0.3492 0.37431 0.43569 0.0
C1056 C 0.35657 0.35924 0.44619 0.0
C1057 C 0.36235 0.34486 0.43407 0.0
C1058 C 0.36095 0.34538 0.41141 0.0
C1059 C 0.35381 0.3603 0.40083 0.0
C1060 C 0.34802 0.37472 0.41287 0.0
C1061 C 0.39783 0.41191 0.53657 0.0
C1062 C 0.43958 0.41301 0.53438 0.0
C1063 C 0.37344 0.4106 0.51817 0.0
C1064 C 0.39042 0.41019 0.4973 0.0
C1065 C 0.43207 0.41124 0.49509 0.0
C1066 C 0.4564 0.41276 0.51343 0.0
C1067 C 0.36468 0.40789 0.4779 0.0
C1068 C 0.36991 0.39369 0.46514 0.0
C1069 C 0.33333 0.41892 0.4729 0.0
C1070 C 0.32797 0.4347 0.48481 0.0
C1071 C 0.35991 0.44591 0.48681 0.0
C1072 C 0.3546 0.46085 0.49778 0.0
C1073 C 0.31739 0.46477 0.50672 0.0
C1074 C 0.28541 0.45377 0.50471 0.0
C1075 C 0.29059 0.43879 0.49382 0.0
H1076 H 0.31331 0.47636 0.51515 0.0
H1077 H 0.36542 0.33423 0.40206 0.0
H1078 H 0.29704 0.61393 0.39493 0.0
H1079 H 0.22745 0.61182 0.40735 0.0
H1080 H 0.23809 0.65949 0.43804 0.0
H1081 H 0.30713 0.66149 0.4257 0.0
H1082 H 0.21565 0.6095 0.44936 0.0
H1083 H 0.14998 0.67631 0.44923 0.0
H1084 H 0.14427 0.69972 0.42401 0.0
H1085 H 0.15634 0.66689 0.36968 0.0
H1086 H 0.16153 0.64323 0.39454 0.0
H1087 H 0.11004 0.63003 0.54467 0.0
H1088 H 0.15461 0.62974 0.51303 0.0
H1089 H 0.05228 0.62803 0.47041 0.0
H1090 H 0.00767 0.62836 0.50191 0.0
H1091 H 0.10798 0.65103 0.45748 0.0
H1092 H 0.10397 0.59423 0.4756 0.0
H1093 H 0.10768 0.56971 0.49906 0.0
H1094 H 0.23042 0.58073 0.51381 0.0
H1095 H 0.22731 0.60545 0.49066 0.0
C1096 C 0.28359 0.62434 0.40319 0.0
C1097 C 0.30703 0.63795 0.40922 0.0
C1098 C 0.24402 0.62306 0.41051 0.0
C1099 C 0.2275 0.63546 0.42373 0.0
C1100 C 0.24975 0.64986 0.42762 0.0
C1101 C 0.28924 0.65105 0.42048 0.0
C1102 C 0.19126 0.63221 0.43703 0.0
C1103 C 0.19179 0.61847 0.45087 0.0
C1104 C 0.1598 0.64379 0.43888 0.0
C1105 C 0.15632 0.65797 0.4238 0.0
C1106 C 0.15115 0.67405 0.43191 0.0
C1107 C 0.14808 0.68738 0.41767 0.0
C1108 C 0.15001 0.6848 0.39526 0.0
C1109 C 0.15497 0.66887 0.38705 0.0
C1110 C 0.15804 0.6555 0.40121 0.0
C1111 C 0.09713 0.62956 0.52856 0.0
C1112 C 0.05544 0.62907 0.52576 0.0
C1113 C 0.12254 0.62931 0.51051 0.0
C1114 C 0.10669 0.62871 0.48938 0.0
C1115 C 0.06509 0.62841 0.48656 0.0
C1116 C 0.0397 0.62848 0.50457 0.0
C1117 C 0.1337 0.62878 0.47029 0.0
C1118 C 0.13142 0.64192 0.45556 0.0
C1119 C 0.16331 0.61656 0.46739 0.0
C1120 C 0.1653 0.60177 0.4815 0.0
C1121 C 0.13166 0.59151 0.48399 0.0
C1122 C 0.13368 0.57755 0.4972 0.0
C1123 C 0.16924 0.57368 0.50794 0.0
C1124 C 0.20288 0.58375 0.50548 0.0
C1125 C 0.20102 0.59773 0.49229 0.0
H1126 H 0.17076 0.56285 0.51814 0.0
H1127 H 0.14764 0.69513 0.38427 0.0
H1128 H 0.29111 0.38076 0.90716 0.0
H1129 H 0.22211 0.37814 0.92075 0.0
H1130 H 0.23034 0.42706 0.94816 0.0
H1131 H 0.29785 0.42972 0.93423 0.0
H1132 H 0.20659 0.37677 0.96156 0.0
H1133 H 0.14592 0.44442 0.95955 0.0
H1134 H 0.14222 0.46748 0.93368 0.0
H1135 H 0.15209 0.43366 0.88029 0.0
H1136 H 0.15523 0.41033 0.90581 0.0
H1137 H 0.10574 0.39836 0.05705 0.0
H1138 H 0.14896 0.39665 0.02505 0.0
H1139 H 0.0458 0.40127 0.98339 0.0
H1140 H 0.00259 0.4031 0.01526 0.0
H1141 H 0.10288 0.42006 0.96883 0.0
H1142 H 0.09331 0.36408 0.98912 0.0
H1143 H 0.09454 0.34011 0.01363 0.0
H1144 H 0.21914 0.34856 0.02659 0.0
H1145 H 0.21854 0.37274 1.00242 0.0
C1146 C 0.27716 0.3912 0.91508 0.0
C1147 C 0.29941 0.40547 0.9196 0.0
C1148 C 0.23799 0.38966 0.92307 0.0
C1149 C 0.2208 0.40242 0.93548 0.0
C1150 C 0.24221 0.41716 0.93827 0.0
C1151 C 0.281 0.41867 0.93035 0.0
C1152 C 0.18412 0.39964 0.94867 0.0
C1153 C 0.18354 0.38611 0.96286 0.0
C1154 C 0.15346 0.41162 0.95018 0.0
C1155 C 0.15084 0.42559 0.93465 0.0
C1156 C 0.14693 0.44186 0.94229 0.0
C1157 C 0.14504 0.45499 0.92769 0.0
C1158 C 0.14691 0.45203 0.90537 0.0
C1159 C 0.15069 0.43593 0.8976 0.0
C1160 C 0.15257 0.42274 0.91213 0.0
C1161 C 0.0923 0.39895 0.04107 0.0
C1162 C 0.05081 0.401 0.03871 0.0
C1163 C 0.11697 0.3979 0.02278 0.0
C1164 C 0.10057 0.39862 1.00177 0.0
C1165 C 0.05916 0.40071 0.9994 0.0
C1166 C 0.03454 0.40185 0.01765 0.0
C1167 C 0.12687 0.39771 0.98234 0.0
C1168 C 0.12536 0.41053 0.96709 0.0
C1169 C 0.15512 0.38492 0.97957 0.0
C1170 C 0.15581 0.37029 0.99401 0.0
C1171 C 0.12092 0.36089 0.99729 0.0
C1172 C 0.12151 0.34726 0.01112 0.0
C1173 C 0.15688 0.34283 0.02168 0.0
C1174 C 0.19176 0.35201 0.01839 0.0
C1175 C 0.19133 0.36567 0.0046 0.0
H1176 H 0.15728 0.33227 0.03238 0.0
H1177 H 0.14532 0.46222 0.89412 0.0
H1178 H 0.21631 0.64286 0.89236 0.0
H1179 H 0.2837 0.64751 0.90767 0.0
H1180 H 0.23049 0.65925 0.96969 0.0
H1181 H 0.16459 0.6555 0.95441 0.0
H1182 H 0.29418 0.67633 0.96604 0.0
H1183 H 0.2585 0.6181 0.94985 0.0
H1184 H 0.24375 0.5962 0.92317 0.0
H1185 H 0.35824 0.60386 0.89318 0.0
H1186 H 0.37313 0.62616 0.91929 0.0
H1187 H 0.39188 0.63942 0.05486 0.0
H1188 H 0.34656 0.64624 0.02501 0.0
H1189 H 0.44357 0.64158 0.97933 0.0
H1190 H 0.48946 0.63548 0.00899 0.0
H1191 H 0.37325 0.62467 0.96663 0.0
H1192 H 0.41435 0.6782 0.98901 0.0
H1193 H 0.42848 0.70056 0.01507 0.0
H1194 H 0.30475 0.70158 0.03376 0.0
H1195 H 0.28996 0.67904 0.00805 0.0
C1196 C 0.21931 0.64697 0.90902 0.0
C1197 C 0.18545 0.64848 0.92236 0.0
C1198 C 0.25771 0.64949 0.91782 0.0
C1199 C 0.26232 0.6533 0.94005 0.0
C1200 C 0.22809 0.65623 0.9526 0.0
C1201 C 0.19025 0.65391 0.94385 0.0
C1202 C 0.30143 0.65231 0.95155 0.0
C1203 C 0.31159 0.66506 0.96606 0.0
C1204 C 0.32508 0.63783 0.95122 0.0
C1205 C 0.31665 0.62394 0.93627 0.0
C1206 C 0.2804 0.61517 0.93748 0.0
C1207 C 0.27191 0.60277 0.92237 0.0
C1208 C 0.29992 0.59875 0.90637 0.0
C1209 C 0.3365 0.60707 0.9055 0.0
C1210 C 0.34491 0.61962 0.92038 0.0
C1211 C 0.40376 0.64002 0.03853 0.0
C1212 C 0.44437 0.63672 0.03443 0.0
C1213 C 0.37778 0.64387 0.02147 0.0
C1214 C 0.39181 0.64443 0.99998 0.0
C1215 C 0.43214 0.64111 0.99578 0.0
C1216 C 0.45823 0.63748 0.01281 0.0
C1217 C 0.36401 0.64824 0.98193 0.0
C1218 C 0.3564 0.63608 0.96624 0.0
C1219 C 0.34246 0.66319 0.98129 0.0
C1220 C 0.3511 0.67686 0.99667 0.0
C1221 C 0.39019 0.68311 0.99878 0.0
C1222 C 0.39832 0.69583 0.01348 0.0
C1223 C 0.36754 0.70247 0.02608 0.0
C1224 C 0.32856 0.69643 0.02398 0.0
C1225 C 0.32028 0.68369 0.00933 0.0
H1226 H 0.37389 0.71232 0.03746 0.0
H1227 H 0.2935 0.58912 0.89474 0.0
H1228 H 0.61329 0.6246 0.45517 0.0
H1229 H 0.65587 0.6269 0.48747 0.0
H1230 H 0.55137 0.62499 0.52847 0.0
H1231 H 0.50872 0.62279 0.49631 0.0
H1232 H 0.60212 0.64997 0.54008 0.0
H1233 H 0.60936 0.59248 0.52701 0.0
H1234 H 0.61893 0.56693 0.50596 0.0
H1235 H 0.7407 0.58062 0.49286 0.0
H1236 H 0.73168 0.60641 0.5135 0.0
H1237 H 0.79649 0.6238 0.60713 0.0
H1238 H 0.72732 0.61865 0.59553 0.0
H1239 H 0.7294 0.66366 0.55836 0.0
H1240 H 0.79819 0.66855 0.56961 0.0
H1241 H 0.71689 0.61272 0.55354 0.0
H1242 H 0.63846 0.67692 0.54597 0.0
H1243 H 0.62763 0.70162 0.56855 0.0
H1244 H 0.64482 0.67294 0.62628 0.0
H1245 H 0.65517 0.64801 0.60409 0.0
C1246 C 0.59947 0.6246 0.47107 0.0
C1247 C 0.55773 0.62337 0.47321 0.0
C1248 C 0.62378 0.62582 0.48951 0.0
C1249 C 0.60676 0.62596 0.51038 0.0
C1250 C 0.56511 0.62481 0.51254 0.0
C1251 C 0.54085 0.62342 0.49415 0.0
C1252 C 0.63252 0.62792 0.52984 0.0
C1253 C 0.62708 0.64179 0.54318 0.0
C1254 C 0.66417 0.6169 0.5343 0.0
C1255 C 0.66972 0.60145 0.5217 0.0
C1256 C 0.63808 0.59013 0.51948 0.0
C1257 C 0.64342 0.57558 0.50764 0.0
C1258 C 0.68038 0.57217 0.49805 0.0
C1259 C 0.71208 0.58329 0.50028 0.0
C1260 C 0.70687 0.59787 0.51207 0.0
C1261 C 0.78127 0.63301 0.5975 0.0
C1262 C 0.80242 0.64655 0.5892 0.0
C1263 C 0.7419 0.63 0.59071 0.0
C1264 C 0.72319 0.64071 0.57593 0.0
C1265 C 0.74284 0.65531 0.56995 0.0
C1266 C 0.78219 0.65816 0.57646 0.0
C1267 C 0.68784 0.63528 0.56315 0.0
C1268 C 0.69145 0.62075 0.55088 0.0
C1269 C 0.65434 0.64561 0.55985 0.0
C1270 C 0.64775 0.66057 0.57332 0.0
C1271 C 0.63966 0.67584 0.56348 0.0
C1272 C 0.63368 0.6899 0.57622 0.0
C1273 C 0.6356 0.68885 0.59883 0.0
C1274 C 0.64345 0.67374 0.60876 0.0
C1275 C 0.64945 0.65964 0.5961 0.0
H1276 H 0.63097 0.69976 0.60865 0.0
H1277 H 0.68447 0.56089 0.48891 0.0
H1278 H 0.98671 0.41005 0.50117 0.0
H1279 H 0.94097 0.40986 0.53211 0.0
H1280 H 0.84051 0.40586 0.48845 0.0
H1281 H 0.88618 0.40628 0.4573 0.0
H1282 H 0.82731 0.42823 0.52181 0.0
H1283 H 0.87485 0.37242 0.51261 0.0
H1284 H 0.92675 0.35097 0.50962 0.0
H1285 H 0.9699 0.36329 0.57329 0.0
H1286 H 0.91856 0.38499 0.57652 0.0
H1287 H 0.68918 0.37479 0.58029 0.0
H1288 H 0.75716 0.37646 0.56624 0.0
H1289 H 0.77228 0.42377 0.5973 0.0
H1290 H 0.70369 0.42206 0.61131 0.0
H1291 H 0.83547 0.38221 0.57459 0.0
H1292 H 0.80608 0.45005 0.55689 0.0
H1293 H 0.75089 0.47022 0.55788 0.0
H1294 H 0.66609 0.43164 0.54487 0.0
H1295 H 0.72088 0.41133 0.54323 0.0
C1296 C 0.95483 0.40941 0.49811 0.0
C1297 C 0.93999 0.40826 0.47676 0.0
C1298 C 0.92879 0.40918 0.51584 0.0
C1299 C 0.88742 0.40777 0.51258 0.0
C1300 C 0.87239 0.40699 0.4913 0.0
C1301 C 0.89847 0.40711 0.47354 0.0
C1302 C 0.85978 0.40652 0.53132 0.0
C1303 C 0.82938 0.41828 0.5335 0.0
C1304 C 0.86253 0.39355 0.54658 0.0
C1305 C 0.8932 0.38045 0.5447 0.0
C1306 C 0.89563 0.37064 0.5259 0.0
C1307 C 0.9249 0.35843 0.52417 0.0
C1308 C 0.95169 0.3558 0.54123 0.0
C1309 C 0.94918 0.36536 0.56008 0.0
C1310 C 0.92 0.37761 0.56187 0.0
C1311 C 0.7079 0.38505 0.58523 0.0
C1312 C 0.69149 0.39828 0.59683 0.0
C1313 C 0.74674 0.38606 0.5771 0.0
C1314 C 0.7694 0.40044 0.58024 0.0
C1315 C 0.75506 0.41265 0.59448 0.0
C1316 C 0.71606 0.4116 0.60269 0.0
C1317 C 0.8028 0.40386 0.56503 0.0
C1318 C 0.8342 0.39247 0.56335 0.0
C1319 C 0.80064 0.41704 0.54999 0.0
C1320 C 0.76751 0.42917 0.55025 0.0
C1321 C 0.77566 0.44591 0.55413 0.0
C1322 C 0.74447 0.45736 0.55478 0.0
C1323 C 0.705 0.4522 0.55152 0.0
C1324 C 0.69667 0.43561 0.54742 0.0
C1325 C 0.72779 0.42413 0.54658 0.0
H1326 H 0.68087 0.46107 0.55216 0.0
H1327 H 0.97432 0.34634 0.53987 0.0
H1328 H 0.19039 0.08077 0.11956 0.0
H1329 H 0.23854 0.058 0.11959 0.0
H1330 H 0.14831 0.0255 0.09345 0.0
H1331 H 0.10046 0.04802 0.09328 0.0
H1332 H 0.18612 1.01071 0.12555 0.0
H1333 H 0.22547 0.04018 0.06162 0.0
H1334 H 0.24543 0.06486 0.04096 0.0
H1335 H 0.34974 0.07034 0.08104 0.0
H1336 H 0.33025 0.04573 0.10204 0.0
H1337 H 0.31158 0.9429 0.10015 0.0
H1338 H 0.26585 0.96621 0.09656 0.0
H1339 H 0.35691 0.99891 0.12138 0.0
H1340 H 0.40326 0.97592 0.12402 0.0
H1341 H 0.31874 1.01369 0.08963 0.0
H1342 H 0.27795 0.98395 0.15376 0.0
H1343 H 0.25642 0.95941 0.17428 0.0
H1344 H 0.15319 0.95452 0.13323 0.0
H1345 H 0.17436 0.97893 0.11231 0.0
C1346 C 0.1809 0.06882 0.11366 0.0
C1347 C 0.14127 0.0663 0.10661 0.0
C1348 C 0.20849 0.05578 0.11368 0.0
C1349 C 0.19719 0.03997 0.10645 0.0
C1350 C 0.15779 0.0375 0.09927 0.0
C1351 C 0.1303 0.05046 0.09929 0.0
C1352 C 0.2259 0.02586 0.10663 0.0
C1353 C 0.21491 1.01132 0.11745 0.0
C1354 C 0.26383 0.02665 0.09641 0.0
C1355 C 0.2762 0.04121 0.08352 0.0
C1356 C 0.25259 0.04669 0.06608 0.0
C1357 C 0.26384 0.06065 0.05429 0.0
C1358 C 0.29877 0.06918 0.05971 0.0
C1359 C 0.32269 0.06372 0.07685 0.0
C1360 C 0.3116 0.04974 0.08868 0.0
C1361 C 0.32215 0.95505 0.1046 0.0
C1362 C 0.36123 0.95735 0.11263 0.0
C1363 C 0.29574 0.9684 0.10273 0.0
C1364 C 0.30755 0.98436 0.10908 0.0
C1365 C 0.34684 0.98676 0.11649 0.0
C1366 C 0.37329 0.97347 0.11823 0.0
C1367 C 0.27891 0.99851 0.10855 0.0
C1368 C 0.28994 1.01308 0.09771 0.0
C1369 C 0.24088 0.99774 0.11868 0.0
C1370 C 0.22792 0.98317 0.13137 0.0
C1371 C 0.25078 0.97758 0.14904 0.0
C1372 C 0.23862 0.96371 0.16075 0.0
C1373 C 0.20351 0.95539 0.15503 0.0
C1374 C 0.1804 0.96097 0.13763 0.0
C1375 C 0.19244 0.97483 0.12586 0.0
H1376 H 0.19417 0.94465 0.16411 0.0
H1377 H 0.30725 0.08002 0.05061 0.0
H1378 H 0.60677 0.97208 0.43138 0.0
H1379 H 0.65324 0.99525 0.43097 0.0
H1380 H 0.73329 0.96767 0.38977 0.0
H1381 H 0.6871 0.94417 0.39068 0.0
H1382 H 0.77575 0.98439 0.41751 0.0
H1383 H 0.66839 0.99864 0.36985 0.0
H1384 H 0.59825 1.00298 0.35884 0.0
H1385 H 0.58476 0.03982 0.40843 0.0
H1386 H 0.6547 0.03554 0.41992 0.0
H1387 H 0.8788 0.05419 0.37297 0.0
H1388 H 0.83847 0.02944 0.37945 0.0
H1389 H 0.7722 0.05526 0.42896 0.0
H1390 H 0.81275 0.08006 0.42255 0.0
H1391 H 0.72358 0.03961 0.39807 0.0
H1392 H 0.83474 0.02586 0.4437 0.0
H1393 H 0.90584 0.02148 0.45261 0.0
H1394 H 0.91331 0.98364 0.40396 0.0
H1395 H 0.84238 0.98797 0.39452 0.0
C1396 C 0.63409 0.97096 0.42209 0.0
C1397 C 0.64281 0.95633 0.41074 0.0
C1398 C 0.66076 0.98425 0.42187 0.0
C1399 C 0.69646 0.98347 0.40986 0.0
C1400 C 0.70587 0.96869 0.39904 0.0
C1401 C 0.67941 0.95524 0.39954 0.0
C1402 C 0.7234 0.99817 0.40833 0.0
C1403 C 0.76434 0.99641 0.41302 0.0
C1404 C 0.70869 1.01401 0.40279 0.0
C1405 C 0.66666 1.01665 0.39588 0.0
C1406 C 0.65038 1.00759 0.3785 0.0
C1407 C 0.61067 1.01005 0.37216 0.0
C1408 C 0.58703 0.02164 0.38297 0.0
C1409 C 0.60309 0.03083 0.4001 0.0
C1410 C 0.64277 0.0284 0.40652 0.0
C1411 C 0.85595 0.0545 0.38542 0.0
C1412 C 0.84904 0.06904 0.3973 0.0
C1413 C 0.83303 0.04034 0.38918 0.0
C1414 C 0.80238 0.04043 0.40476 0.0
C1415 C 0.79579 0.05487 0.41692 0.0
C1416 C 0.81916 0.06899 0.41337 0.0
C1417 C 0.77572 0.02581 0.40733 0.0
C1418 C 0.73485 0.0276 0.40272 0.0
C1419 C 0.79064 1.00999 0.41261 0.0
C1420 C 0.83332 1.00737 0.41825 0.0
C1421 C 0.85163 1.01672 0.43475 0.0
C1422 C 0.89189 1.01422 0.43993 0.0
C1423 C 0.91411 1.00232 0.42882 0.0
C1424 C 0.89608 0.99287 0.41254 0.0
C1425 C 0.85583 0.99533 0.40728 0.0
H1426 H 0.94527 1.0004 0.43286 0.0
H1427 H 0.5563 0.02352 0.37804 0.0
H1428 H 0.70262 0.09331 0.90103 0.0
H1429 H 0.74917 0.07018 0.90497 0.0
H1430 H 0.64967 0.03629 0.90599 0.0
H1431 H 0.6032 0.05933 0.90231 0.0
H1432 H 0.705 0.02802 0.93623 0.0
H1433 H 0.70481 0.04165 0.86012 0.0
H1434 H 0.71225 0.06007 0.82859 0.0
H1435 H 0.83428 0.06979 0.84638 0.0
H1436 H 0.82739 0.05158 0.8782 0.0
H1437 H 0.8072 0.95296 0.90856 0.0
H1438 H 0.76266 0.97683 0.9107 0.0
H1439 H 0.86477 1.00933 0.90942 0.0
H1440 H 0.90936 0.98564 0.90773 0.0
H1441 H 0.80943 0.01881 0.88034 0.0
H1442 H 0.81117 1.00584 0.95597 0.0
H1443 H 0.80414 0.98945 0.98944 0.0
H1444 H 0.68142 0.97924 0.97367 0.0
H1445 H 0.68774 0.99557 0.94008 0.0
C1446 C 0.69068 0.08096 0.90225 0.0
C1447 C 0.64917 0.07819 0.90113 0.0
C1448 C 0.71733 0.06771 0.90436 0.0
C1449 C 0.70302 0.05141 0.90552 0.0
C1450 C 0.66154 0.0487 0.90508 0.0
C1451 C 0.63497 0.0619 0.90279 0.0
C1452 C 0.73107 0.03712 0.90663 0.0
C1453 C 0.72752 0.02589 0.92386 0.0
C1454 C 0.7612 0.03452 0.89083 0.0
C1455 C 0.76546 0.04539 0.87165 0.0
C1456 C 0.73314 0.04781 0.85739 0.0
C1457 C 0.73727 0.0582 0.83946 0.0
C1458 C 0.77368 0.06613 0.83551 0.0
C1459 C 0.80607 0.06366 0.84947 0.0
C1460 C 0.80208 0.0533 0.86745 0.0
C1461 C 0.82028 0.96515 0.90906 0.0
C1462 C 0.86207 0.96725 0.9078 0.0
C1463 C 0.7947 0.97884 0.91027 0.0
C1464 C 0.81028 0.99495 0.91026 0.0
C1465 C 0.85193 0.99706 0.90936 0.0
C1466 C 0.87746 0.98343 0.90827 0.0
C1467 C 0.78331 1.00962 0.90992 0.0
C1468 C 0.78699 0.02091 0.89276 0.0
C1469 C 0.75345 1.01231 0.92585 0.0
C1470 C 0.75005 1.0018 0.94542 0.0
C1471 C 0.7828 0.99997 0.95954 0.0
C1472 C 0.77886 0.9908 0.97861 0.0
C1473 C 0.7423 0.98337 0.98372 0.0
C1474 C 0.70966 0.98506 0.96973 0.0
C1475 C 0.71339 0.99429 0.95069 0.0
H1476 H 0.73934 0.97622 0.99845 0.0
H1477 H 0.77682 0.07417 0.82162 0.0
H1478 H 0.19228 0.95343 0.61274 0.0
H1479 H 0.23644 0.97744 0.60962 0.0
H1480 H 0.13371 1.00949 0.60888 0.0
H1481 H 0.08943 0.98554 0.61176 0.0
H1482 H 0.19011 0.01796 0.57763 0.0
H1483 H 0.18761 1.00588 0.65426 0.0
H1484 H 0.19512 0.9881 0.68641 0.0
H1485 H 0.31848 0.9798 0.67034 0.0
H1486 H 0.31155 0.99736 0.63791 0.0
H1487 H 0.29152 0.09438 0.6021 0.0
H1488 H 0.24656 0.07039 0.60097 0.0
H1489 H 0.34826 0.03796 0.60506 0.0
H1490 H 0.39305 0.06173 0.60608 0.0
H1491 H 0.29202 0.0296 0.63417 0.0
H1492 H 0.29746 0.0401 0.55837 0.0
H1493 H 0.29199 0.05456 0.52334 0.0
H1494 H 0.16749 0.06384 0.53535 0.0
H1495 H 0.17229 0.04953 0.57056 0.0
C1496 C 0.17906 0.96557 0.61176 0.0
C1497 C 0.13725 0.96753 0.61261 0.0
C1498 C 0.20437 0.97931 0.61012 0.0
C1499 C 0.18845 0.99532 0.6092 0.0
C1500 C 0.14673 0.99729 0.60963 0.0
C1501 C 0.12144 0.98357 0.61146 0.0
C1502 C 0.21523 1.01002 0.608 0.0
C1503 C 0.21197 0.02068 0.59017 0.0
C1504 C 0.24467 1.01327 0.62398 0.0
C1505 C 0.24895 1.00281 0.64355 0.0
C1506 C 0.21626 1.00016 0.65749 0.0
C1507 C 0.22042 0.99014 0.67578 0.0
C1508 C 0.25723 0.98279 0.68038 0.0
C1509 C 0.28998 0.98548 0.66674 0.0
C1510 C 0.28595 0.99548 0.64841 0.0
C1511 C 0.30429 0.08213 0.60242 0.0
C1512 C 0.34593 0.08001 0.60431 0.0
C1513 C 0.27857 0.06842 0.60178 0.0
C1514 C 0.29397 0.05232 0.60283 0.0
C1515 C 0.33556 0.05022 0.60428 0.0
C1516 C 0.36117 0.06386 0.60495 0.0
C1517 C 0.2669 0.03767 0.60378 0.0
C1518 C 0.27006 0.02699 0.62164 0.0
C1519 C 0.23776 0.0343 0.58765 0.0
C1520 C 0.23536 0.04391 0.56724 0.0
C1521 C 0.26905 0.04542 0.55369 0.0
C1522 C 0.26599 0.05346 0.53371 0.0
C1523 C 0.22936 0.06003 0.52707 0.0
C1524 C 0.19579 0.05867 0.54046 0.0
C1525 C 0.19867 0.05061 0.56044 0.0
H1526 H 0.22707 0.06629 0.51162 0.0
H1527 H 0.26039 0.97503 0.69455 0.0
H1528 H 0.89573 0.47488 0.10805 0.0
H1529 H 0.84865 0.49778 0.10748 0.0
H1530 H 0.75059 0.46384 0.11638 0.0
H1531 H 0.79789 0.44074 0.11662 0.0
H1532 H 0.72993 0.48663 0.08811 0.0
H1533 H 0.78878 0.48817 0.15896 0.0
H1534 H 0.84375 0.48878 0.18566 0.0
H1535 H 0.88587 0.53451 0.15912 0.0
H1536 H 0.83145 0.53406 0.13206 0.0
H1537 H 0.5884 0.54805 0.11825 0.0
H1538 H 0.63384 0.52458 0.11914 0.0
H1539 H 0.73331 0.55676 0.10538 0.0
H1540 H 0.68805 0.5803 0.10409 0.0
H1541 H 0.75203 0.53458 0.13677 0.0
H1542 H 0.69274 0.53285 0.0659 0.0
H1543 H 0.63787 0.532 0.03917 0.0
H1544 H 0.59612 0.48635 0.0661 0.0
H1545 H 0.65036 0.48707 0.09326 0.0
C1546 C 0.86419 0.47225 0.11002 0.0
C1547 C 0.85072 0.45594 0.11266 0.0
C1548 C 0.8372 0.48541 0.10971 0.0
C1549 C 0.79596 0.48268 0.11241 0.0
C1550 C 0.78223 0.46634 0.1144 0.0
C1551 C 0.80929 0.45312 0.1145 0.0
C1552 C 0.76745 0.49688 0.11316 0.0
C1553 C 0.73445 0.49698 0.09902 0.0
C1554 C 0.77361 0.51064 0.12702 0.0
C1555 C 0.80623 0.511 0.14336 0.0
C1556 C 0.80992 0.4983 0.15872 0.0
C1557 C 0.84096 0.49862 0.17393 0.0
C1558 C 0.86834 0.51165 0.17405 0.0
C1559 C 0.86466 0.52441 0.15899 0.0
C1560 C 0.8337 0.52414 0.14373 0.0
C1561 C 0.61985 0.55022 0.11527 0.0
C1562 C 0.63416 0.56622 0.11085 0.0
C1563 C 0.64589 0.53671 0.11582 0.0
C1564 C 0.68701 0.5388 0.11199 0.0
C1565 C 0.7017 0.55479 0.10832 0.0
C1566 C 0.67564 0.56831 0.10768 0.0
C1567 C 0.71462 0.52432 0.11172 0.0
C1568 C 0.74745 0.52419 0.12594 0.0
C1569 C 0.70818 0.51051 0.098 0.0
C1570 C 0.67535 0.51012 0.08179 0.0
C1571 C 0.67161 0.52272 0.06628 0.0
C1572 C 0.64066 0.52225 0.05102 0.0
C1573 C 0.61345 0.50916 0.05098 0.0
C1574 C 0.61716 0.4965 0.06618 0.0
C1575 C 0.648 0.49694 0.08152 0.0
H1576 H 0.58954 0.5088 0.03913 0.0
H1577 H 0.89235 0.51188 0.18584 0.0
H1578 H 0.40696 0.5488 0.39965 0.0
H1579 H 0.3609 0.5257 0.40283 0.0
H1580 H 0.26245 0.55936 0.41111 0.0
H1581 H 0.30856 0.58277 0.40757 0.0
H1582 H 0.25829 0.53248 0.43931 0.0
H1583 H 0.27597 0.54151 0.36302 0.0
H1584 H 0.31443 0.54553 0.32929 0.0
H1585 H 0.36818 0.49789 0.33697 0.0
H1586 H 0.33045 0.49368 0.37094 0.0
H1587 H 0.10046 0.47684 0.4114 0.0
H1588 H 0.14821 0.49964 0.41381 0.0
H1589 H 0.24594 0.46547 0.40646 0.0
H1590 H 0.19802 0.44252 0.4041 0.0
H1591 H 0.25113 0.49239 0.37848 0.0
H1592 H 0.23282 0.48288 0.4541 0.0
H1593 H 0.1958 0.47881 0.48827 0.0
H1594 H 0.14407 0.52699 0.48224 0.0
H1595 H 0.18039 0.53126 0.44784 0.0
C1596 C 0.37553 0.55141 0.40196 0.0
C1597 C 0.36157 0.56777 0.40296 0.0
C1598 C 0.34917 0.53811 0.40389 0.0
C1599 C 0.30807 0.54074 0.40686 0.0
C1600 C 0.29404 0.55701 0.40875 0.0
C1601 C 0.32049 0.5704 0.40675 0.0
C1602 C 0.27994 0.52645 0.40737 0.0
C1603 C 0.25626 0.52385 0.42589 0.0
C1604 C 0.27808 0.5149 0.39011 0.0
C1605 C 0.30067 0.51735 0.36964 0.0
C1606 C 0.29623 0.53195 0.35761 0.0
C1607 C 0.31786 0.53425 0.33843 0.0
C1608 C 0.34381 0.52199 0.33102 0.0
C1609 C 0.34811 0.50738 0.34275 0.0
C1610 C 0.32658 0.50503 0.36196 0.0
C1611 C 0.13212 0.47416 0.41037 0.0
C1612 C 0.14543 0.45786 0.40742 0.0
C1613 C 0.15942 0.4872 0.41192 0.0
C1614 C 0.20071 0.4843 0.41038 0.0
C1615 C 0.21421 0.46801 0.40772 0.0
C1616 C 0.18686 0.4549 0.40649 0.0
C1617 C 0.22941 0.4984 0.41041 0.0
C1618 C 0.25316 0.50099 0.39194 0.0
C1619 C 0.23132 0.5099 0.42772 0.0
C1620 C 0.20896 0.50731 0.44824 0.0
C1621 C 0.21319 0.49254 0.45992 0.0
C1622 C 0.19241 0.49021 0.47937 0.0
C1623 C 0.16746 0.50261 0.48738 0.0
C1624 C 0.16332 0.51738 0.47598 0.0
C1625 C 0.18403 0.51976 0.45651 0.0
H1626 H 0.15143 0.50079 0.50245 0.0
H1627 H 0.36053 0.5238 0.31616 0.0
H1628 H 0.30901 0.45328 0.90592 0.0
H1629 H 0.26258 0.47641 0.9042 0.0
H1630 H 0.35946 0.50881 0.88643 0.0
H1631 H 0.40603 0.48573 0.88768 0.0
H1632 H 0.31327 0.52189 0.91888 0.0
H1633 H 0.29196 0.49659 0.84911 0.0
H1634 H 0.27629 0.47362 0.82424 0.0
H1635 H 0.161 0.46793 0.85404 0.0
H1636 H 0.17627 0.49069 0.87939 0.0
H1637 H 0.19657 0.59196 0.88769 0.0
H1638 H 0.24362 0.56879 0.88952 0.0
H1639 H 0.14553 0.53542 0.90105 0.0
H1640 H 0.09859 0.55833 0.89901 0.0
H1641 H 0.19274 0.52268 0.87198 0.0
H1642 H 0.21137 0.54768 0.94114 0.0
H1643 H 0.22693 0.56878 0.96871 0.0
H1644 H 0.3457 0.57379 0.94301 0.0
H1645 H 0.33055 0.55304 0.91487 0.0
C1646 C 0.32054 0.46522 0.90129 0.0
C1647 C 0.36161 0.4675 0.897 0.0
C1648 C 0.29383 0.4785 0.90041 0.0
C1649 C 0.30745 0.49439 0.89516 0.0
C1650 C 0.34824 0.4967 0.89065 0.0
C1651 C 0.37491 0.48343 0.89143 0.0
C1652 C 0.27946 0.50869 0.89474 0.0
C1653 C 0.28723 0.52222 0.90837 0.0
C1654 C 0.24476 0.50886 0.88158 0.0
C1655 C 0.23543 0.49523 0.86629 0.0
C1656 C 0.26341 0.49035 0.85049 0.0
C1657 C 0.25458 0.47738 0.8363 0.0
C1658 C 0.21773 0.46928 0.83762 0.0
C1659 C 0.18958 0.47418 0.8531 0.0
C1660 C 0.19829 0.48712 0.86737 0.0
C1661 C 0.18512 0.57971 0.89084 0.0
C1662 C 0.14372 0.57703 0.89305 0.0
C1663 C 0.21207 0.56648 0.89194 0.0
C1664 C 0.19831 0.55033 0.8956 0.0
C1665 C 0.15703 0.5477 0.89809 0.0
C1666 C 0.13013 0.56085 0.89684 0.0
C1667 C 0.22652 0.53605 0.8961 0.0
C1668 C 0.21881 0.52248 0.88246 0.0
C1669 C 0.26108 0.53579 0.90947 0.0
C1670 C 0.26962 0.54891 0.92569 0.0
C1671 C 0.24061 0.55346 0.94112 0.0
C1672 C 0.24942 0.56531 0.95692 0.0
C1673 C 0.28732 0.57257 0.95766 0.0
C1674 C 0.31641 0.56808 0.94249 0.0
C1675 C 0.30766 0.55634 0.92655 0.0
H1676 H 0.29409 0.58174 0.96992 0.0
H1677 H 0.21094 0.45925 0.82661 0.0
H1678 H 0.89991 0.55832 0.59779 0.0
H1679 H 0.85206 0.5356 0.59665 0.0
H1680 H 0.75445 0.57026 0.59801 0.0
H1681 H 0.80244 0.59315 0.59949 0.0
H1682 H 0.74342 0.54533 0.62711 0.0
H1683 H 0.77637 0.54957 0.55189 0.0
H1684 H 0.82051 0.55109 0.5199 0.0
H1685 H 0.86792 0.50327 0.53467 0.0
H1686 H 0.82444 0.50155 0.56695 0.0
H1687 H 0.59062 0.4872 0.60586 0.0
H1688 H 0.63687 0.51032 0.6026 0.0
H1689 H 0.73636 0.47661 0.60048 0.0
H1690 H 0.68999 0.45329 0.60372 0.0
H1691 H 0.74547 0.50136 0.57103 0.0
H1692 H 0.7145 0.4975 0.6468 0.0
H1693 H 0.67029 0.49579 0.67876 0.0
H1694 H 0.61955 0.54284 0.66297 0.0
H1695 H 0.66308 0.54472 0.63072 0.0
C1696 C 0.86829 0.56116 0.59788 0.0
C1697 C 0.85512 0.57762 0.59888 0.0
C1698 C 0.84089 0.54812 0.59702 0.0
C1699 C 0.79955 0.55116 0.59711 0.0
C1700 C 0.78619 0.56757 0.59789 0.0
C1701 C 0.81367 0.58067 0.59859 0.0
C1702 C 0.77051 0.53715 0.59728 0.0
C1703 C 0.74345 0.53587 0.61463 0.0
C1704 C 0.77118 0.52451 0.58136 0.0
C1705 C 0.79745 0.52551 0.56199 0.0
C1706 C 0.79648 0.53944 0.54844 0.0
C1707 C 0.82132 0.54033 0.53023 0.0
C1708 C 0.8471 0.52731 0.5253 0.0
C1709 C 0.84799 0.51336 0.53854 0.0
C1710 C 0.82323 0.51241 0.55678 0.0
C1711 C 0.62232 0.48464 0.60484 0.0
C1712 C 0.63651 0.46833 0.60534 0.0
C1713 C 0.6488 0.49793 0.60292 0.0
C1714 C 0.69024 0.49528 0.60163 0.0
C1715 C 0.70453 0.479 0.60149 0.0
C1716 C 0.67796 0.46565 0.60334 0.0
C1717 C 0.71847 0.50956 0.60086 0.0
C1718 C 0.7454 0.51085 0.58345 0.0
C1719 C 0.71778 0.52221 0.61675 0.0
C1720 C 0.69178 0.52118 0.63622 0.0
C1721 C 0.6937 0.50743 0.65005 0.0
C1722 C 0.6688 0.50644 0.66823 0.0
C1723 C 0.64206 0.51918 0.67286 0.0
C1724 C 0.64025 0.53297 0.65935 0.0
C1725 C 0.66505 0.53401 0.64112 0.0
H1726 H 0.6228 0.51839 0.68695 0.0
H1727 H 0.8663 0.52802 0.51118 0.0
H1728 H -0.00065 0.32927 0.07381 0.0
H1729 H 0.01852 0.30057 0.07904 0.0
H1730 H 0.93292 0.29625 0.13113 0.0
H1731 H 0.91427 0.32543 0.12614 0.0
H1732 H 0.00162 0.27796 0.13934 0.0
H1733 H 0.9075 0.28271 0.08158 0.0
H1734 H 0.87886 0.29423 0.04801 0.0
H1735 H 0.98393 0.27993 0.01261 0.0
H1736 H 0.01348 0.26854 0.04605 0.0
H1737 H 0.01189 0.18844 0.12272 0.0
H1738 H 0.98979 0.21697 0.12917 0.0
H1739 H 0.06651 0.23364 0.07735 0.0
H1740 H 0.08842 0.20544 0.07097 0.0
H1741 H 0.99151 0.24454 0.07202 0.0
H1742 H 0.08703 0.24154 0.13126 0.0
H1743 H 0.1144 0.22999 0.16514 0.0
H1744 H 0.00382 0.2402 0.19796 0.0
H1745 H 0.97561 0.25163 0.16417 0.0
C1746 C 0.98491 0.32226 0.08654 0.0
C1747 C 0.95489 0.32948 0.09935 0.0
C1748 C 0.99584 0.30584 0.08952 0.0
C1749 C 0.97648 0.29606 0.10511 0.0
C1750 C 0.9481 0.30349 0.11889 0.0
C1751 C 0.93746 0.32013 0.11606 0.0
C1752 C 0.98436 0.27795 0.10565 0.0
C1753 C 0.99879 0.27057 0.12473 0.0
C1754 C 0.98071 0.26823 0.08662 0.0
C1755 C 0.9628 0.27485 0.06637 0.0
C1756 C 0.9246 0.2821 0.06667 0.0
C1757 C 0.90819 0.2886 0.04765 0.0
C1758 C 0.92959 0.28783 0.0282 0.0
C1759 C 0.9674 0.28052 0.0277 0.0
C1760 C 0.98396 0.27402 0.04667 0.0
C1761 C 0.02455 0.19826 0.11304 0.0
C1762 C 0.05153 0.19464 0.09615 0.0
C1763 C 0.01186 0.21457 0.11669 0.0
C1764 C 0.02626 0.22751 0.10363 0.0
C1765 C 0.05458 0.22391 0.08749 0.0
C1766 C 0.06705 0.20774 0.08382 0.0
C1767 C 0.0104 0.24465 0.10544 0.0
C1768 C 0.99406 0.25185 0.08673 0.0
C1769 C 0.01203 0.25405 0.12484 0.0
C1770 C 0.02906 0.24726 0.14513 0.0
C1771 C 0.06844 0.24119 0.14565 0.0
C1772 C 0.08413 0.2347 0.16485 0.0
C1773 C 0.06082 0.23431 0.18367 0.0
C1774 C 0.02182 0.24048 0.18336 0.0
C1775 C 0.00597 0.24698 0.1642 0.0
H1776 H 0.07302 0.22927 0.19851 0.0
H1777 H 0.91685 0.29288 0.0135 0.0
H1778 H 0.51095 0.83065 0.06825 0.0
H1779 H 0.52735 0.80166 0.07303 0.0
H1780 H 0.44202 0.79829 0.12535 0.0
H1781 H 0.42585 0.82773 0.12074 0.0
H1782 H 0.50868 0.77977 0.13399 0.0
H1783 H 0.41676 0.78404 0.07556 0.0
H1784 H 0.38843 0.79496 0.04157 0.0
H1785 H 0.49369 0.77994 0.00687 0.0
H1786 H 0.52294 0.76914 0.04073 0.0
H1787 H 0.51838 0.68999 0.11797 0.0
H1788 H 0.49454 0.71838 0.12313 0.0
H1789 H 0.57935 0.73542 0.07546 0.0
H1790 H 0.60388 0.70745 0.07068 0.0
H1791 H 0.50135 0.74566 0.06716 0.0
H1792 H 0.59427 0.74338 0.12773 0.0
H1793 H 0.62004 0.73214 0.16216 0.0
H1794 H 0.50775 0.74242 0.19319 0.0
H1795 H 0.48113 0.75353 0.15884 0.0
C1796 C 0.49565 0.82377 0.0808 0.0
C1797 C 0.46655 0.83142 0.09385 0.0
C1798 C 0.50507 0.80716 0.08354 0.0
C1799 C 0.48523 0.79759 0.09918 0.0
C1800 C 0.45753 0.80535 0.11305 0.0
C1801 C 0.44832 0.82215 0.11043 0.0
C1802 C 0.49272 0.77945 0.1001 0.0
C1803 C 0.50636 0.77224 0.11948 0.0
C1804 C 0.48972 0.76951 0.08121 0.0
C1805 C 0.47215 0.77587 0.06073 0.0
C1806 C 0.43398 0.78315 0.06071 0.0
C1807 C 0.41775 0.78932 0.04146 0.0
C1808 C 0.43928 0.78817 0.02208 0.0
C1809 C 0.47706 0.78082 0.0219 0.0
C1810 C 0.49346 0.77466 0.04111 0.0
C1811 C 0.53244 0.69982 0.10889 0.0
C1812 C 0.56274 0.6963 0.09365 0.0
C1813 C 0.51867 0.71605 0.11181 0.0
C1814 C 0.53493 0.72905 0.09954 0.0
C1815 C 0.566 0.72561 0.08494 0.0
C1816 C 0.57989 0.70952 0.08214 0.0
C1817 C 0.51873 0.74615 0.10079 0.0
C1818 C 0.50319 0.75314 0.08176 0.0
C1819 C 0.51951 0.75573 0.12004 0.0
C1820 C 0.53556 0.74909 0.14066 0.0
C1821 C 0.57495 0.7431 0.14184 0.0
C1822 C 0.58974 0.73679 0.16135 0.0
C1823 C 0.5655 0.73651 0.17983 0.0
C1824 C 0.52646 0.74261 0.17885 0.0
C1825 C 0.51152 0.74892 0.15937 0.0
H1826 H 0.57701 0.73162 0.19492 0.0
H1827 H 0.42666 0.79295 0.00719 0.0
H1828 H 0.60448 0.81428 0.4273 0.0
H1829 H 0.58329 0.78663 0.41739 0.0
H1830 H 0.50312 0.80666 0.36933 0.0
H1831 H 0.52365 0.83473 0.37987 0.0
H1832 H 0.46553 0.78387 0.39319 0.0
H1833 H 0.5862 0.78444 0.35366 0.0
H1834 H 0.65761 0.78962 0.34629 0.0
H1835 H 0.69045 0.75572 0.39663 0.0
H1836 H 0.61925 0.75052 0.40455 0.0
H1837 H 0.42503 0.69638 0.37729 0.0
H1838 H 0.44656 0.72453 0.36756 0.0
H1839 H 0.52671 0.72507 0.42244 0.0
H1840 H 0.50509 0.6973 0.43219 0.0
H1841 H 0.56116 0.73772 0.38381 0.0
H1842 H 0.43895 0.74269 0.42713 0.0
H1843 H 0.36719 0.73783 0.43401 0.0
H1844 H 0.33753 0.76146 0.37383 0.0
H1845 H 0.40922 0.76626 0.36647 0.0
C1846 C 0.58252 0.81285 0.41452 0.0
C1847 C 0.56552 0.82673 0.40453 0.0
C1848 C 0.57068 0.79697 0.40867 0.0
C1849 C 0.54184 0.79444 0.39243 0.0
C1850 C 0.52553 0.80826 0.38187 0.0
C1851 C 0.53749 0.82429 0.38776 0.0
C1852 C 0.52729 0.77736 0.38795 0.0
C1853 C 0.48636 0.77384 0.3905 0.0
C1854 C 0.55429 0.76415 0.38451 0.0
C1855 C 0.59728 0.76713 0.37974 0.0
C1856 C 0.60863 0.77815 0.36325 0.0
C1857 C 0.64909 0.78109 0.35896 0.0
C1858 C 0.67854 0.77301 0.37099 0.0
C1859 C 0.66759 0.76196 0.38731 0.0
C1860 C 0.62717 0.75899 0.39168 0.0
C1861 C 0.44752 0.70251 0.38706 0.0
C1862 C 0.46313 0.69475 0.40561 0.0
C1863 C 0.45968 0.71857 0.38157 0.0
C1864 C 0.48816 0.72693 0.39434 0.0
C1865 C 0.50476 0.71888 0.41234 0.0
C1866 C 0.49218 0.70306 0.41799 0.0
C1867 C 0.4999 0.74431 0.38992 0.0
C1868 C 0.5403 0.74783 0.38578 0.0
C1869 C 0.47239 0.75749 0.39165 0.0
C1870 C 0.4294 0.75462 0.39611 0.0
C1871 C 0.41713 0.74671 0.41528 0.0
C1872 C 0.37648 0.74399 0.41928 0.0
C1873 C 0.34782 0.74927 0.40433 0.0
C1874 C 0.35976 0.75733 0.38537 0.0
C1875 C 0.40039 0.76005 0.38127 0.0
H1876 H 0.31636 0.74717 0.40746 0.0
H1877 H 0.70985 0.77531 0.36765 0.0
H1878 H 0.07029 0.32941 0.38952 0.0
H1879 H 0.05104 0.3004 0.38367 0.0
H1880 H 0.97883 0.30196 0.44167 0.0
H1881 H 0.99798 0.33056 0.44751 0.0
H1882 H 0.02667 0.27604 0.44243 0.0
H1883 H 0.93843 0.30125 0.38956 0.0
H1884 H 0.92329 0.3179 0.35715 0.0
H1885 H 0.99474 0.28554 0.31792 0.0
H1886 H 0.01075 0.26881 0.35018 0.0
H1887 H 0.90335 0.20706 0.44287 0.0
H1888 H 0.9273 0.23525 0.4389 0.0
H1889 H 0.9972 0.22087 0.38322 0.0
H1890 H 0.9735 0.19235 0.38725 0.0
H1891 H 0.96018 0.25181 0.3778 0.0
H1892 H 0.04501 0.2257 0.42955 0.0
H1893 H 0.06219 0.20914 0.4617 0.0
H1894 H -0.00065 0.24326 0.50266 0.0
H1895 H 0.98153 0.25998 0.47069 0.0
C1896 C 0.04988 0.32357 0.40078 0.0
C1897 C 0.03615 0.3322 0.41915 0.0
C1898 C 0.03889 0.307 0.39746 0.0
C1899 C 0.01361 0.29889 0.41232 0.0
C1900 C 0.99873 0.3078 0.43011 0.0
C1901 C 0.00981 0.32418 0.43347 0.0
C1902 C 0.00386 0.28097 0.41039 0.0
C1903 C 0.01183 0.27083 0.42833 0.0
C1904 C 0.98596 0.27389 0.3917 0.0
C1905 C 0.97617 0.2839 0.37232 0.0
C1906 C 0.95118 0.29776 0.37406 0.0
C1907 C 0.94239 0.3072 0.35571 0.0
C1908 C 0.95815 0.30281 0.3355 0.0
C1909 C 0.98262 0.28894 0.33359 0.0
C1910 C 0.99155 0.27948 0.3519 0.0
C1911 C 0.92391 0.2098 0.42979 0.0
C1912 C 0.93695 0.1973 0.41561 0.0
C1913 C 0.93748 0.22599 0.42748 0.0
C1914 C 0.9646 0.23017 0.41098 0.0
C1915 C 0.97637 0.21794 0.39612 0.0
C1916 C 0.96273 0.20163 0.39843 0.0
C1917 C 0.98165 0.24717 0.41018 0.0
C1918 C 0.97533 0.25705 0.39178 0.0
C1919 C 0.0013 0.25408 0.42841 0.0
C1920 C 0.01172 0.24403 0.4477 0.0
C1921 C 0.03459 0.2296 0.44539 0.0
C1922 C 0.04449 0.2202 0.46359 0.0
C1923 C 0.03178 0.22512 0.48422 0.0
C1924 C 0.00916 0.23946 0.48667 0.0
C1925 C -0.00078 0.24893 0.46852 0.0
H1926 H 0.03958 0.21787 0.4983 0.0
H1927 H 0.95131 0.31013 0.32132 0.0
H1928 H 0.97965 0.84391 0.88528 0.0
H1929 H 0.00205 0.81544 0.87865 0.0
H1930 H 0.91873 0.798 0.92691 0.0
H1931 H 0.89652 0.82617 0.93346 0.0
H1932 H 0.99362 0.7874 0.93489 0.0
H1933 H 0.90524 0.79064 0.87253 0.0
H1934 H 0.88162 0.80237 0.83794 0.0
H1935 H 0.99597 0.79275 0.80882 0.0
H1936 H 0.02044 0.78115 0.84335 0.0
H1937 H 0.98847 0.70269 0.93143 0.0
H1938 H 0.96919 0.73135 0.92606 0.0
H1939 H 0.06069 0.73664 0.87718 0.0
H1940 H 0.07954 0.7075 0.88228 0.0
H1941 H 0.99243 0.75458 0.86686 0.0
H1942 H 0.07986 0.74981 0.9276 0.0
H1943 H 0.10506 0.73816 0.9619 0.0
H1944 H 0.99569 0.75154 0.99392 0.0
H1945 H 0.96958 0.76305 0.95972 0.0
C1946 C 0.96555 0.83393 0.89406 0.0
C1947 C 0.93664 0.83729 0.91008 0.0
C1948 C 0.97842 0.81767 0.89032 0.0
C1949 C 0.9623 0.80455 0.90241 0.0
C1950 C 0.93196 0.80789 0.91754 0.0
C1951 C 0.91929 0.82401 0.92129 0.0
C1952 C 0.97865 0.78749 0.9009 0.0
C1953 C 0.99301 0.78022 0.92002 0.0
C1954 C 0.97959 0.77829 0.88133 0.0
C1955 C 0.96482 0.78521 0.86059 0.0
C1956 C 0.92546 0.79116 0.85881 0.0
C1957 C 0.91189 0.79776 0.8392 0.0
C1958 C 0.93732 0.79836 0.82121 0.0
C1959 C 0.97633 0.79231 0.82278 0.0
C1960 C 0.99005 0.78571 0.84235 0.0
C1961 C 0.00426 0.70991 0.9194 0.0
C1962 C 0.03595 0.70297 0.90753 0.0
C1963 C 0.99323 0.7263 0.91632 0.0
C1964 C 0.01412 0.73632 0.9016 0.0
C1965 C 0.04431 0.72919 0.88874 0.0
C1966 C 0.05508 0.71259 0.89164 0.0
C1967 C 0.00575 0.75437 0.90107 0.0
C1968 C 0.99332 0.76185 0.88164 0.0
C1969 C 0.00688 0.76392 0.92034 0.0
C1970 C 0.02268 0.75721 0.94105 0.0
C1971 C 0.06109 0.75019 0.94192 0.0
C1972 C 0.07555 0.74361 0.96135 0.0
C1973 C 0.05197 0.74409 0.98007 0.0
C1974 C 0.01392 0.75118 0.97941 0.0
C1975 C -0.0007 0.75775 0.96001 0.0
H1976 H 0.06321 0.73898 0.9951 0.0
H1977 H 0.92676 0.80347 0.80605 0.0
H1978 H 0.52458 0.2005 0.88046 0.0
H1979 H 0.50145 0.22897 0.87472 0.0
H1980 H 0.56332 0.2443 0.93276 0.0
H1981 H 0.58718 0.21631 0.93821 0.0
H1982 H 0.48092 0.2524 0.93199 0.0
H1983 H 0.59869 0.25549 0.88573 0.0
H1984 H 0.64008 0.24703 0.85451 0.0
H1985 H 0.54385 0.25863 0.81098 0.0
H1986 H 0.50167 0.26694 0.84199 0.0
H1987 H 0.48041 0.33673 0.94379 0.0
H1988 H 0.50239 0.30853 0.93736 0.0
H1989 H 0.44537 0.30896 0.87453 0.0
H1990 H 0.42409 0.33769 0.88084 0.0
H1991 H 0.51484 0.29149 0.87295 0.0
H1992 H 0.3988 0.2906 0.9173 0.0
H1993 H 0.35474 0.29866 0.9476 0.0
H1994 H 0.44226 0.28173 0.99341 0.0
H1995 H 0.48713 0.2738 0.96339 0.0
C1996 C 0.53392 0.21002 0.89171 0.0
C1997 C 0.55721 0.20602 0.91002 0.0
C1998 C 0.52056 0.22627 0.88846 0.0
C1999 C 0.53032 0.23874 0.90346 0.0
C2000 C 0.55502 0.23487 0.92111 0.0
C2001 C 0.5685 0.21879 0.92426 0.0
C2002 C 0.51301 0.25562 0.90203 0.0
C2003 C 0.4885 0.26096 0.91912 0.0
C2004 C 0.52146 0.26659 0.88479 0.0
C2005 C 0.54686 0.26163 0.86619 0.0
C2006 C 0.58621 0.25608 0.86952 0.0
C2007 C 0.60985 0.25135 0.85186 0.0
C2008 C 0.59456 0.25223 0.83078 0.0
C2009 C 0.55563 0.25791 0.82732 0.0
C2010 C 0.53186 0.26264 0.84493 0.0
C2011 C 0.47269 0.33086 0.92856 0.0
C2012 C 0.44992 0.3393 0.91298 0.0
C2013 C 0.48524 0.31471 0.92488 0.0
C2014 C 0.47461 0.30637 0.90571 0.0
C2015 C 0.45365 0.31505 0.88954 0.0
C2016 C 0.4415 0.33143 0.89313 0.0
C2017 C 0.48407 0.28846 0.90343 0.0
C2018 C 0.50679 0.28288 0.88567 0.0
C2019 C 0.47348 0.27709 0.91991 0.0
C2020 C 0.44643 0.28169 0.93807 0.0
C2021 C 0.40875 0.28868 0.93383 0.0
C2022 C 0.38363 0.29323 0.95096 0.0
C2023 C 0.39572 0.29073 0.97241 0.0
C2024 C 0.43294 0.28366 0.97678 0.0
C2025 C 0.45821 0.27911 0.95971 0.0
H2026 H 0.37623 0.29426 0.98565 0.0
H2027 H 0.61291 0.24857 0.81713 0.0
H2028 H 0.41036 0.20921 0.62223 0.0
H2029 H 0.43032 0.2377 0.6311 0.0
H2030 H 0.51922 0.2361 0.58039 0.0
H2031 H 0.49967 0.2079 0.5717 0.0
H2032 H 0.54822 0.25094 0.61694 0.0
H2033 H 0.42938 0.2537 0.57163 0.0
H2034 H 0.35867 0.24807 0.56283 0.0
H2035 H 0.3219 0.2728 0.62118 0.0
H2036 H 0.39251 0.27839 0.63046 0.0
H2037 H 0.58539 0.32934 0.57452 0.0
H2038 H 0.56588 0.30101 0.58246 0.0
H2039 H 0.48705 0.31827 0.63302 0.0
H2040 H 0.50652 0.34689 0.62491 0.0
H2041 H 0.45006 0.29591 0.60571 0.0
H2042 H 0.56953 0.29767 0.64711 0.0
H2043 H 0.64041 0.30359 0.65503 0.0
H2044 H 0.67651 0.27054 0.6042 0.0
H2045 H 0.60582 0.26459 0.59574 0.0
C2046 C 0.43446 0.21493 0.61322 0.0
C2047 C 0.45311 0.2064 0.5961 0.0
C2048 C 0.44571 0.2312 0.6182 0.0
C2049 C 0.47608 0.23911 0.60627 0.0
C2050 C 0.49571 0.23032 0.58981 0.0
C2051 C 0.48426 0.21422 0.58472 0.0
C2052 C 0.48675 0.25674 0.60997 0.0
C2053 C 0.52676 0.26078 0.61451 0.0
C2054 C 0.45856 0.26961 0.60745 0.0
C2055 C 0.41619 0.26626 0.60188 0.0
C2056 C 0.40622 0.25781 0.58268 0.0
C2057 C 0.36617 0.25465 0.57758 0.0
C2058 C 0.33581 0.26002 0.59148 0.0
C2059 C 0.34545 0.26861 0.61047 0.0
C2060 C 0.38547 0.27178 0.61565 0.0
C2061 C 0.56411 0.32711 0.58744 0.0
C2062 C 0.54741 0.34035 0.59904 0.0
C2063 C 0.55317 0.31089 0.59208 0.0
C2064 C 0.52517 0.30744 0.60846 0.0
C2065 C 0.50882 0.32061 0.62038 0.0
C2066 C 0.52015 0.33693 0.61585 0.0
C2067 C 0.51185 0.29011 0.61201 0.0
C2068 C 0.47137 0.28611 0.60875 0.0
C2069 C 0.53964 0.27726 0.61569 0.0
C2070 C 0.58229 0.28075 0.62072 0.0
C2071 C 0.59256 0.29175 0.63751 0.0
C2072 C 0.63272 0.2951 0.64211 0.0
C2073 C 0.66294 0.28746 0.6301 0.0
C2074 C 0.65306 0.27644 0.61349 0.0
C2075 C 0.61294 0.27306 0.6088 0.0
H2076 H 0.69402 0.29007 0.6337 0.0
H2077 H 0.30482 0.25757 0.5875 0.0
H2078 H 0.92058 0.71543 0.55931 0.0
H2079 H 0.94292 0.74353 0.56608 0.0
H2080 H 0.00035 0.72798 0.6252 0.0
H2081 H 0.97873 0.69943 0.61822 0.0
H2082 H 0.95633 0.76048 0.62661 0.0
H2083 H 0.05915 0.73214 0.58691 0.0
H2084 H 0.08481 0.7142 0.55773 0.0
H2085 H 0.04008 0.74777 0.50976 0.0
H2086 H 0.01354 0.76578 0.53866 0.0
H2087 H 0.06775 0.83798 0.62501 0.0
H2088 H 0.04753 0.80901 0.62963 0.0
H2089 H 0.00351 0.80814 0.56382 0.0
H2090 H 0.0234 0.83673 0.5592 0.0
H2091 H 0.04887 0.78232 0.57063 0.0
H2092 H 0.94232 0.8097 0.60888 0.0
H2093 H 0.91164 0.82721 0.63704 0.0
H2094 H 0.95868 0.79566 0.68673 0.0
H2095 H 0.9906 0.77823 0.65889 0.0
C2096 C 0.93796 0.71788 0.57378 0.0
C2097 C 0.94851 0.70503 0.58798 0.0
C2098 C 0.95047 0.73403 0.57771 0.0
C2099 C 0.97371 0.73784 0.59599 0.0
C2100 C 0.98244 0.7253 0.61097 0.0
C2101 C 0.97002 0.709 0.60697 0.0
C2102 C 0.99097 0.75469 0.59819 0.0
C2103 C 0.97725 0.76522 0.61469 0.0
C2104 C 0.01766 0.76093 0.58239 0.0
C2105 C 0.03413 0.75026 0.56496 0.0
C2106 C 0.05454 0.73564 0.57014 0.0
C2107 C 0.06927 0.72547 0.55365 0.0
C2108 C 0.06402 0.72983 0.53191 0.0
C2109 C 0.04411 0.7444 0.52661 0.0
C2110 C 0.02926 0.75461 0.54304 0.0
C2111 C 0.05339 0.83162 0.61165 0.0
C2112 C 0.0478 0.83964 0.59163 0.0
C2113 C 0.04185 0.81506 0.61429 0.0
C2114 C 0.02413 0.80629 0.59702 0.0
C2115 C 0.01756 0.81449 0.57731 0.0
C2116 C 0.02915 0.83089 0.57466 0.0
C2117 C 0.0135 0.78844 0.59875 0.0
C2118 C 0.02853 0.77764 0.58288 0.0
C2119 C 0.98781 0.78207 0.61506 0.0
C2120 C 0.96941 0.7928 0.6318 0.0
C2121 C 0.94666 0.80664 0.62582 0.0
C2122 C 0.92899 0.81654 0.64174 0.0
C2123 C 0.93339 0.81262 0.66367 0.0
C2124 C 0.9555 0.79877 0.66975 0.0
C2125 C 0.97345 0.78889 0.65391 0.0
H2126 H 0.9195 0.82026 0.67596 0.0
H2127 H 0.07544 0.72193 0.51916 0.0
H2128 H 0.9846 0.11096 0.16949 0.0
H2129 H 0.97405 0.11844 0.2072 0.0
H2130 H 0.05387 0.1599 0.19996 0.0
H2131 H 0.06561 0.1521 0.16187 0.0
H2132 H 0.06794 0.14569 0.23711 0.0
H2133 H 0.95075 0.1655 0.20411 0.0
H2134 H 0.89148 0.16537 0.18028 0.0
H2135 H 0.84075 0.12553 0.2169 0.0
H2136 H 0.89997 0.12524 0.24077 0.0
H2137 H 0.92623 0.15627 0.34053 0.0
H2138 H 0.94161 0.16259 0.30243 0.0
H2139 H 0.02762 0.12302 0.30126 0.0
H2140 H 0.01347 0.11704 0.33903 0.0
H2141 H 0.93056 0.14563 0.26767 0.0
H2142 H 0.10094 0.12845 0.26651 0.0
H2143 H 0.15998 0.13198 0.29008 0.0
H2144 H 0.10414 0.17324 0.32147 0.0
H2145 H 0.045 0.17014 0.29789 0.0
C2146 C -0.00012 0.12174 0.17577 0.0
C2147 C 0.0258 0.13099 0.16253 0.0
C2148 C 0.99356 0.12608 0.19741 0.0
C2149 C 0.01235 0.13998 0.20642 0.0
C2150 C 0.03873 0.14919 0.19337 0.0
C2151 C 0.04541 0.14473 0.1716 0.0
C2152 C 0.00509 0.14427 0.22968 0.0
C2153 C 0.0379 0.14583 0.24377 0.0
C2154 C 0.96587 0.14515 0.2384 0.0
C2155 C 0.92994 0.14531 0.22419 0.0
C2156 C 0.92706 0.15665 0.20702 0.0
C2157 C 0.89345 0.15665 0.1935 0.0
C2158 C 0.86239 0.14544 0.19706 0.0
C2159 C 0.86483 0.13422 0.21417 0.0
C2160 C 0.89839 0.13414 0.22773 0.0
C2161 C 0.94887 0.14912 0.33221 0.0
C2162 C 0.96856 0.13615 0.34289 0.0
C2163 C 0.95758 0.15271 0.3104 0.0
C2164 C 0.98623 0.14345 0.29892 0.0
C2165 C 0.00618 0.13067 0.30976 0.0
C2166 C 0.99773 0.12716 0.33144 0.0
C2167 C 0.99346 0.14607 0.27523 0.0
C2168 C 0.96061 0.14582 0.26103 0.0
C2169 C 0.03261 0.14693 0.2664 0.0
C2170 C 0.06839 0.149 0.28047 0.0
C2171 C 0.10133 0.13835 0.27833 0.0
C2172 C 0.13481 0.14026 0.29173 0.0
C2173 C 0.13578 0.15281 0.30729 0.0
C2174 C 0.10331 0.1635 0.30945 0.0
C2175 C 0.06977 0.16166 0.29609 0.0
H2176 H 0.16171 0.15425 0.31765 0.0
H2177 H 0.8364 0.14546 0.18657 0.0
H2178 H 0.41425 0.89123 0.17296 0.0
H2179 H 0.41867 0.88835 0.21262 0.0
H2180 H 0.54582 0.88036 0.2075 0.0
H2181 H 0.5417 0.88345 0.16811 0.0
H2182 H 0.50738 0.86021 0.2398 0.0
H2183 H 0.51666 0.91732 0.21655 0.0
H2184 H 0.4918 0.94187 0.1973 0.0
H2185 H 0.38497 0.94132 0.23601 0.0
H2186 H 0.40895 0.91658 0.25525 0.0
H2187 H 0.58287 0.88415 0.34343 0.0
H2188 H 0.5689 0.87984 0.30478 0.0
H2189 H 0.44998 0.89936 0.31364 0.0
H2190 H 0.46427 0.90424 0.3519 0.0
H2191 H 0.47919 0.91218 0.27945 0.0
H2192 H 0.47044 0.85704 0.30543 0.0
H2193 H 0.49279 0.83215 0.32482 0.0
H2194 H 0.59347 0.82791 0.2819 0.0
H2195 H 0.57213 0.85295 0.26248 0.0
C2196 C 0.44293 0.88846 0.18027 0.0
C2197 C 0.47768 0.88768 0.16747 0.0
C2198 C 0.44546 0.88687 0.20292 0.0
C2199 C 0.48266 0.88425 0.21303 0.0
C2200 C 0.51684 0.88235 0.20008 0.0
C2201 C 0.51444 0.8842 0.17757 0.0
C2202 C 0.48702 0.88525 0.23703 0.0
C2203 C 0.50138 0.87156 0.24853 0.0
C2204 C 0.47847 0.89997 0.24845 0.0
C2205 C 0.46438 0.915 0.23716 0.0
C2206 C 0.48774 0.92236 0.22084 0.0
C2207 C 0.47382 0.93632 0.20994 0.0
C2208 C 0.43677 0.94312 0.21538 0.0
C2209 C 0.41363 0.93602 0.23179 0.0
C2210 C 0.42736 0.92203 0.24269 0.0
C2211 C 0.55369 0.88742 0.33714 0.0
C2212 C 0.52478 0.89461 0.35076 0.0
C2213 C 0.5456 0.88487 0.31504 0.0
C2214 C 0.50816 0.88912 0.30619 0.0
C2215 C 0.47913 0.89602 0.31993 0.0
C2216 C 0.48736 0.89878 0.34188 0.0
C2217 C 0.49963 0.88709 0.28252 0.0
C2218 C 0.48471 0.90068 0.27096 0.0
C2219 C 0.50719 0.87219 0.27117 0.0
C2220 C 0.51986 0.85698 0.28261 0.0
C2221 C 0.4975 0.85087 0.30021 0.0
C2222 C 0.50997 0.83673 0.3112 0.0
C2223 C 0.54457 0.82848 0.30462 0.0
C2224 C 0.5667 0.83433 0.28699 0.0
C2225 C 0.55441 0.84849 0.27598 0.0
H2226 H 0.5542 0.81753 0.31317 0.0
H2227 H 0.42604 0.95392 0.20692 0.0
H2228 H 0.04198 0.90674 0.84843 0.0
H2229 H 0.05028 0.90382 0.80938 0.0
H2230 H 0.92622 0.88997 0.80304 0.0
H2231 H 0.91755 0.89277 0.84251 0.0
H2232 H 0.97602 0.87107 0.77679 0.0
H2233 H 0.95353 0.92824 0.7908 0.0
H2234 H 0.96416 0.95503 0.80885 0.0
H2235 H 0.08546 0.95614 0.78593 0.0
H2236 H 0.07574 0.92921 0.76801 0.0
H2237 H 0.95779 0.8924 0.66383 0.0
H2238 H 0.95111 0.88959 0.70322 0.0
H2239 H 0.07727 0.89914 0.71082 0.0
H2240 H 0.08436 0.90162 0.67127 0.0
H2241 H 0.02594 0.91974 0.73631 0.0
H2242 H 0.04778 0.86273 0.72169 0.0
H2243 H 0.03733 0.83568 0.70432 0.0
H2244 H 0.91663 0.8344 0.7281 0.0
H2245 H 0.92612 0.8616 0.74535 0.0
C2246 C 0.01634 0.90299 0.83885 0.0
C2247 C 0.97892 0.90015 0.84867 0.0
C2248 C 0.0212 0.90136 0.81645 0.0
C2249 C 0.98876 0.89694 0.80319 0.0
C2250 C 0.95165 0.89347 0.81294 0.0
C2251 C 0.94671 0.89511 0.83549 0.0
C2252 C 0.99372 0.89652 0.77916 0.0
C2253 C 0.98633 0.88178 0.76788 0.0
C2254 C 0.00808 0.91039 0.76757 0.0
C2255 C 0.01401 0.92663 0.77824 0.0
C2256 C 0.98257 0.93413 0.78976 0.0
C2257 C 0.98841 0.94935 0.79994 0.0
C2258 C 0.02549 0.95726 0.79858 0.0
C2259 C 0.05677 0.94998 0.78699 0.0
C2260 C 0.0511 0.93475 0.7768 0.0
C2261 C 0.98426 0.89362 0.67386 0.0
C2262 C 0.02161 0.89724 0.66445 0.0
C2263 C 0.98039 0.89198 0.69636 0.0
C2264 C 0.01366 0.89416 0.70997 0.0
C2265 C 0.05122 0.89738 0.70061 0.0
C2266 C 0.05527 0.89871 0.67802 0.0
C2267 C 0.00848 0.89427 0.73395 0.0
C2268 C 0.01566 0.90902 0.74521 0.0
C2269 C 0.99376 0.88044 0.74544 0.0
C2270 C 0.98754 0.8643 0.73463 0.0
C2271 C 0.01883 0.8568 0.72298 0.0
C2272 C 0.01313 0.84141 0.71322 0.0
C2273 C 0.97635 0.83335 0.71511 0.0
C2274 C 0.9451 0.84068 0.72666 0.0
C2275 C 0.95063 0.85608 0.73644 0.0
H2276 H 0.97215 0.82138 0.70774 0.0
H2277 H 0.02995 0.96905 0.80647 0.0
H2278 H 0.4585 0.13675 0.84452 0.0
H2279 H 0.4481 0.13921 0.80564 0.0
H2280 H 0.57091 0.15418 0.79721 0.0
H2281 H 0.58187 0.15171 0.83664 0.0
H2282 H 0.5129 0.17225 0.77069 0.0
H2283 H 0.55266 0.11701 0.78514 0.0
H2284 H 0.55242 0.09053 0.80466 0.0
H2285 H 0.42898 0.08316 0.78785 0.0
H2286 H 0.42827 0.10975 0.76853 0.0
H2287 H 0.48072 0.15478 0.65565 0.0
H2288 H 0.51049 0.1564 0.6921 0.0
H2289 H 0.40157 0.13702 0.71964 0.0
H2290 H 0.37188 0.13534 0.68365 0.0
H2291 H 0.46684 0.12088 0.73462 0.0
H2292 H 0.42566 0.17757 0.72394 0.0
H2293 H 0.4254 0.20424 0.70483 0.0
H2294 H 0.55228 0.20872 0.7142 0.0
H2295 H 0.55336 0.18194 0.73311 0.0
C2296 C 0.48343 0.14069 0.83456 0.0
C2297 C 0.52123 0.14383 0.84377 0.0
C2298 C 0.47734 0.1421 0.81225 0.0
C2299 C 0.50882 0.14665 0.79846 0.0
C2300 C 0.54622 0.15059 0.80757 0.0
C2301 C 0.55244 0.14914 0.83008 0.0
C2302 C 0.50236 0.14624 0.77456 0.0
C2303 C 0.50369 0.16097 0.76264 0.0
C2304 C 0.49002 0.13155 0.76409 0.0
C2305 C 0.49037 0.11544 0.77549 0.0
C2306 C 0.52538 0.1098 0.78573 0.0
C2307 C 0.52542 0.09477 0.79674 0.0
C2308 C 0.49069 0.08518 0.79752 0.0
C2309 C 0.45587 0.0906 0.78724 0.0
C2310 C 0.45564 0.10565 0.77623 0.0
C2311 C 0.46307 0.15098 0.66951 0.0
C2312 C 0.42391 0.14489 0.66667 0.0
C2313 C 0.4801 0.15194 0.69033 0.0
C2314 C 0.45828 0.14681 0.70865 0.0
C2315 C 0.41909 0.14097 0.70579 0.0
C2316 C 0.40209 0.14007 0.68513 0.0
C2317 C 0.47599 0.14698 0.73085 0.0
C2318 C 0.4768 0.13213 0.74249 0.0
C2319 C 0.49038 0.16154 0.74093 0.0
C2320 C 0.48967 0.17766 0.72969 0.0
C2321 C 0.45356 0.18417 0.72176 0.0
C2322 C 0.45325 0.19932 0.711 0.0
C2323 C 0.48882 0.20814 0.70823 0.0
C2324 C 0.52476 0.20186 0.7163 0.0
C2325 C 0.52524 0.1867 0.72705 0.0
H2326 H 0.48852 0.21986 0.69989 0.0
H2327 H 0.49079 0.07354 0.80606 0.0
H2328 H 0.55112 0.62553 0.34426 0.0
H2329 H 0.56026 0.62864 0.3053 0.0
H2330 H 0.43781 0.64455 0.29881 0.0
H2331 H 0.42835 0.64157 0.33815 0.0
H2332 H 0.52354 0.61184 0.27409 0.0
H2333 H 0.43306 0.67043 0.25335 0.0
H2334 H 0.41341 0.69665 0.2706 0.0
H2335 H 0.517 0.69469 0.31174 0.0
H2336 H 0.5376 0.6686 0.29452 0.0
H2337 H 0.4772 0.61407 0.16342 0.0
H2338 H 0.46947 0.61797 0.20239 0.0
H2339 H 0.56606 0.65322 0.20236 0.0
H2340 H 0.57431 0.64934 0.163 0.0
H2341 H 0.49755 0.66189 0.23018 0.0
H2342 H 0.58986 0.61752 0.21709 0.0
H2343 H 0.61219 0.59164 0.19993 0.0
H2344 H 0.5119 0.56606 0.22758 0.0
H2345 H 0.48863 0.59186 0.24463 0.0
C2346 C 0.52607 0.62983 0.33467 0.0
C2347 C 0.48885 0.63319 0.3444 0.0
C2348 C 0.5314 0.63158 0.31232 0.0
C2349 C 0.49979 0.63681 0.29906 0.0
C2350 C 0.46279 0.64063 0.30872 0.0
C2351 C 0.45738 0.63886 0.33121 0.0
C2352 C 0.5053 0.63729 0.27507 0.0
C2353 C 0.51784 0.62282 0.26457 0.0
C2354 C 0.49833 0.65163 0.26255 0.0
C2355 C 0.48661 0.66746 0.27278 0.0
C2356 C 0.45173 0.67563 0.26601 0.0
C2357 C 0.44042 0.69047 0.2758 0.0
C2358 C 0.46387 0.6973 0.29231 0.0
C2359 C 0.49878 0.68935 0.29901 0.0
C2360 C 0.51026 0.67453 0.28926 0.0
C2361 C 0.49665 0.62281 0.17154 0.0
C2362 C 0.52669 0.63127 0.16004 0.0
C2363 C 0.49209 0.62503 0.19388 0.0
C2364 C 0.51732 0.63579 0.2053 0.0
C2365 C 0.54622 0.64487 0.19382 0.0
C2366 C 0.55102 0.64257 0.17136 0.0
C2367 C 0.51527 0.63641 0.2294 0.0
C2368 C 0.50327 0.65099 0.23983 0.0
C2369 C 0.52316 0.62223 0.242 0.0
C2370 C 0.53732 0.60665 0.23198 0.0
C2371 C 0.57241 0.6064 0.21938 0.0
C2372 C 0.58526 0.59175 0.20969 0.0
C2373 C 0.56343 0.57722 0.21263 0.0
C2374 C 0.52876 0.57732 0.22531 0.0
C2375 C 0.51574 0.59195 0.235 0.0
H2376 H 0.57342 0.56589 0.20511 0.0
H2377 H 0.45503 0.70878 0.29989 0.0
H2378 H 0.08028 0.38757 0.34494 0.0
H2379 H 0.07267 0.38354 0.30565 0.0
H2380 H 0.94544 0.39106 0.31143 0.0
H2381 H 0.95271 0.39509 0.3505 0.0
H2382 H 0.96364 0.36592 0.28255 0.0
H2383 H 0.00347 0.42226 0.29657 0.0
H2384 H 0.04737 0.44391 0.31161 0.0
H2385 H 0.1457 0.42556 0.27383 0.0
H2386 H 0.10248 0.40364 0.2588 0.0
H2387 H 0.91216 0.38909 0.17388 0.0
H2388 H 0.92141 0.38617 0.21319 0.0
H2389 H 0.04951 0.38622 0.20432 0.0
H2390 H 0.0404 0.38969 0.16535 0.0
H2391 H 0.03285 0.40617 0.23506 0.0
H2392 H 0.99344 0.35076 0.21912 0.0
H2393 H 0.9507 0.32869 0.20418 0.0
H2394 H 0.85378 0.34421 0.2451 0.0
H2395 H 0.89578 0.36653 0.26007 0.0
C2396 C 0.05064 0.38815 0.33788 0.0
C2397 C 0.01717 0.39182 0.35085 0.0
C2398 C 0.04634 0.38589 0.31541 0.0
C2399 C 0.00849 0.38716 0.30555 0.0
C2400 C 0.9749 0.39003 0.31864 0.0
C2401 C 0.97919 0.39242 0.34099 0.0
C2402 C 0.00397 0.38661 0.28151 0.0
C2403 C 0.97856 0.37476 0.27213 0.0
C2404 C 0.02398 0.39795 0.26787 0.0
C2405 C 0.04987 0.41121 0.27675 0.0
C2406 C 0.03453 0.42277 0.2916 0.0
C2407 C 0.05928 0.43509 0.30011 0.0
C2408 C 0.09933 0.43608 0.29373 0.0
C2409 C 0.11469 0.42476 0.27879 0.0
C2410 C 0.09008 0.41239 0.27026 0.0
C2411 C 0.94224 0.38823 0.18032 0.0
C2412 C 0.97553 0.38971 0.16651 0.0
C2413 C 0.94755 0.38652 0.20281 0.0
C2414 C 0.98625 0.3859 0.21185 0.0
C2415 C 0.01937 0.38677 0.19788 0.0
C2416 C 0.01409 0.38872 0.17554 0.0
C2417 C 0.99259 0.38537 0.23586 0.0
C2418 C 0.01819 0.39714 0.24532 0.0
C2419 C 0.97297 0.37386 0.24949 0.0
C2420 C 0.94766 0.36042 0.24057 0.0
C2421 C 0.96292 0.34955 0.22481 0.0
C2422 C 0.93884 0.33698 0.21636 0.0
C2423 C 0.89952 0.33508 0.22365 0.0
C2424 C 0.88423 0.34571 0.23945 0.0
C2425 C 0.90817 0.35832 0.24794 0.0
H2426 H 0.88092 0.32534 0.21708 0.0
H2427 H 0.11844 0.44563 0.30033 0.0
H2428 H 0.41266 0.39577 0.8407 0.0
H2429 H 0.42297 0.39244 0.80154 0.0
H2430 H 0.54713 0.40598 0.80923 0.0
H2431 H 0.53652 0.40996 0.84803 0.0
H2432 H 0.51987 0.42192 0.77725 0.0
H2433 H 0.5134 0.36521 0.79723 0.0
H2434 H 0.48507 0.34026 0.81412 0.0
H2435 H 0.38123 0.34388 0.77336 0.0
H2436 H 0.40867 0.369 0.75644 0.0
H2437 H 0.57767 0.40159 0.66915 0.0
H2438 H 0.57118 0.39864 0.70864 0.0
H2439 H 0.44272 0.39763 0.70245 0.0
H2440 H 0.44888 0.40078 0.66311 0.0
H2441 H 0.47438 0.3742 0.73321 0.0
H2442 H 0.48251 0.4322 0.71497 0.0
H2443 H 0.5141 0.45639 0.69788 0.0
H2444 H 0.62011 0.44891 0.73597 0.0
H2445 H 0.58934 0.42449 0.75305 0.0
C2446 C 0.44224 0.39783 0.83404 0.0
C2447 C 0.47371 0.40319 0.84746 0.0
C2448 C 0.4482 0.39587 0.81163 0.0
C2449 C 0.48598 0.39885 0.80228 0.0
C2450 C 0.51764 0.40369 0.81588 0.0
C2451 C 0.51155 0.40592 0.83814 0.0
C2452 C 0.49224 0.39788 0.77828 0.0
C2453 C 0.51049 0.41131 0.76778 0.0
C2454 C 0.4795 0.38422 0.76563 0.0
C2455 C 0.46293 0.36909 0.77571 0.0
C2456 C 0.48438 0.36076 0.79198 0.0
C2457 C 0.4685 0.34658 0.80155 0.0
C2458 C 0.43133 0.34052 0.79486 0.0
C2459 C 0.41 0.34861 0.77855 0.0
C2460 C 0.42572 0.36281 0.76895 0.0
C2461 C 0.54807 0.40051 0.67617 0.0
C2462 C 0.51378 0.40156 0.66301 0.0
C2463 C 0.5444 0.39885 0.69873 0.0
C2464 C 0.50643 0.39801 0.70849 0.0
C2465 C 0.47228 0.39824 0.69527 0.0
C2466 C 0.47589 0.40013 0.67279 0.0
C2467 C 0.50208 0.39814 0.73252 0.0
C2468 C 0.48403 0.38465 0.7429 0.0
C2469 C 0.5155 0.41162 0.74516 0.0
C2470 C 0.5338 0.42642 0.73511 0.0
C2471 C 0.51268 0.43563 0.71958 0.0
C2472 C 0.53041 0.4494 0.70991 0.0
C2473 C 0.56913 0.45416 0.71579 0.0
C2474 C 0.59014 0.44519 0.73141 0.0
C2475 C 0.57257 0.43139 0.74109 0.0
H2476 H 0.58281 0.46482 0.70829 0.0
H2477 H 0.41909 0.32954 0.80228 0.0
H2478 H 0.09128 0.64377 0.83021 0.0
H2479 H 0.08361 0.6476 0.79085 0.0
H2480 H 0.95556 0.65092 0.79884 0.0
H2481 H 0.96307 0.64655 0.83772 0.0
H2482 H 0.9702 0.63012 0.7687 0.0
H2483 H 0.01719 0.68472 0.78422 0.0
H2484 H 0.06319 0.70572 0.79897 0.0
H2485 H 0.15749 0.68759 0.75811 0.0
H2486 H 0.11219 0.66632 0.74333 0.0
H2487 H 0.92261 0.64939 0.65951 0.0
H2488 H 0.932 0.65332 0.69867 0.0
H2489 H 0.05812 0.64358 0.69162 0.0
H2490 H 0.04911 0.63972 0.65263 0.0
H2491 H 0.0441 0.66869 0.72088 0.0
H2492 H 0.99693 0.61338 0.70704 0.0
H2493 H 0.95028 0.59264 0.69221 0.0
H2494 H 0.8549 0.61291 0.73052 0.0
H2495 H 0.9009 0.63393 0.74533 0.0
C2496 C 0.06165 0.64566 0.82354 0.0
C2497 C 0.02777 0.64475 0.83699 0.0
C2498 C 0.05723 0.64786 0.80105 0.0
C2499 C 0.0189 0.64953 0.79175 0.0
C2500 C 0.98539 0.6495 0.80547 0.0
C2501 C 0.98974 0.64705 0.82775 0.0
C2502 C 0.013 0.65003 0.76772 0.0
C2503 C 0.98592 0.63879 0.75837 0.0
C2504 C 0.03411 0.66102 0.754 0.0
C2505 C 0.06139 0.67382 0.76282 0.0
C2506 C 0.04782 0.68512 0.7785 0.0
C2507 C 0.07375 0.6971 0.78685 0.0
C2508 C 0.11327 0.69797 0.77952 0.0
C2509 C 0.12689 0.68689 0.76379 0.0
C2510 C 0.10109 0.67488 0.75541 0.0
C2511 C 0.95241 0.64829 0.66625 0.0
C2512 C 0.98501 0.64405 0.65294 0.0
C2513 C 0.95774 0.65051 0.68865 0.0
C2514 C 0.99574 0.64857 0.69813 0.0
C2515 C 0.02856 0.64513 0.68471 0.0
C2516 C 0.02325 0.64283 0.6624 0.0
C2517 C 0.00102 0.64896 0.72213 0.0
C2518 C 0.02815 0.66021 0.73138 0.0
C2519 C 0.97983 0.63805 0.73585 0.0
C2520 C 0.95224 0.62533 0.72711 0.0
C2521 C 0.96594 0.61348 0.71217 0.0
C2522 C 0.93963 0.60167 0.70379 0.0
C2523 C 0.89962 0.60148 0.71037 0.0
C2524 C 0.88588 0.61308 0.7254 0.0
C2525 C 0.91205 0.62495 0.7338 0.0
H2526 H 0.87929 0.59233 0.70386 0.0
H2527 H 0.1333 0.70724 0.786 0.0
loop_
_geom_bond_atom_site_label_1
_geom_bond_atom_site_label_2
_geom_bond_distance
_geom_bond_site_symmetry_2
_ccdc_geom_bond_type
C0 C1 1.351 . S
C0 N3 1.368 . S
C0 H5 0.931 . S
C1 C0 1.351 . S
C1 N2 1.373 . S
C1 H29 0.930 . S
N2 C1 1.373 . S
N2 C4 1.340 . S
N3 C0 1.368 . S
N3 C4 1.321 . S
N3 Co6 2.135 . S
C4 N2 1.340 . S
C4 N3 1.321 . S
C4 H28 0.930 . S
H5 C0 0.931 . S
Co6 N3 2.135 . S
Co6 N9 2.121 . S
Co6 O14 2.055 . S
Co6 O17 2.039 . S
Co6 N20 2.140 . S
C7 O8 1.227 . S
C7 O17 1.265 . S
O8 C7 1.227 . S
N9 Co6 2.121 . S
N9 C11 1.375 . S
N9 C12 1.313 . S
C10 C11 1.338 . S
C10 N13 1.377 . S
C10 H30 0.930 . S
C11 N9 1.375 . S
C11 C10 1.338 . S
C11 H15 0.931 . S
C12 N9 1.313 . S
C12 N13 1.344 . S
C12 H16 0.930 . S
N13 C10 1.377 . S
N13 C12 1.344 . S
O14 Co6 2.055 . S
O14 C18 1.253 . S
H15 C11 0.931 . S
H16 C12 0.930 . S
O17 Co6 2.039 . S
O17 C7 1.265 . S
C18 O14 1.253 . S
C18 O19 1.227 . S
O19 C18 1.227 . S
N20 Co6 2.140 . S
N20 C23 1.346 1_455 S
N20 C24 1.345 . S
C21 C22 1.387 . S
C21 C25 1.391 . S
C22 C21 1.387 . S
C22 C23 1.369 . S
C22 H31 0.929 . S
C23 N20 1.346 1_655 S
C23 C22 1.369 . S
C23 H26 0.928 . S
C24 N20 1.345 . S
C24 C25 1.371 1_455 S
C24 H27 0.931 . S
C25 C21 1.391 . S
C25 C24 1.371 1_655 S
C25 H32 0.930 . S
H26 C23 0.928 . S
H27 C24 0.931 . S
H28 C4 0.930 . S
H29 C1 0.930 . S
H30 C10 0.930 . S
H31 C22 0.929 . S
H32 C25 0.930 . S
C33 C34 1.351 . S
C33 N36 1.368 . S
C33 H38 0.931 . S
C34 C33 1.351 . S
C34 N35 1.373 . S
C34 H62 0.930 . S
N35 C34 1.373 . S
N35 C37 1.340 . S
N36 C33 1.368 . S
N36 C37 1.321 . S
N36 Co39 2.135 . S
C37 N35 1.340 . S
C37 N36 1.321 . S
C37 H61 0.930 . S
H38 C33 0.931 . S
Co39 N36 2.135 . S
Co39 N42 2.121 . S
Co39 O47 2.055 . S
Co39 O50 2.039 . S
Co39 N53 2.140 . S
C40 O41 1.227 . S
C40 O50 1.265 . S
O41 C40 1.227 . S
N42 Co39 2.121 . S
N42 C44 1.375 . S
N42 C45 1.313 . S
C43 C44 1.338 . S
C43 N46 1.377 . S
C43 H63 0.930 . S
C44 N42 1.375 . S
C44 C43 1.338 . S
C44 H48 0.931 . S
C45 N42 1.313 . S
C45 N46 1.344 . S
C45 H49 0.930 . S
N46 C43 1.377 . S
N46 C45 1.344 . S
O47 Co39 2.055 . S
O47 C51 1.253 . S
H48 C44 0.931 . S
H49 C45 0.930 . S
O50 Co39 2.039 . S
O50 C40 1.265 . S
C51 O47 1.253 . S
C51 O52 1.227 . S
O52 C51 1.227 . S
N53 Co39 2.140 . S
N53 C56 1.346 . S
N53 C57 1.345 . S
C54 C55 1.387 . S
C54 C58 1.391 . S
C55 C54 1.387 . S
C55 C56 1.369 . S
C55 H64 0.929 . S
C56 N53 1.346 . S
C56 C55 1.369 . S
C56 H59 0.928 . S
C57 N53 1.345 . S
C57 C58 1.371 . S
C57 H60 0.931 . S
C58 C54 1.391 . S
C58 C57 1.371 . S
C58 H65 0.930 . S
H59 C56 0.928 . S
H60 C57 0.931 . S
H61 C37 0.930 . S
H62 C34 0.930 . S
H63 C43 0.930 . S
H64 C55 0.929 . S
H65 C58 0.930 . S
C66 C67 1.351 . S
C66 N69 1.368 . S
C66 H71 0.931 . S
C67 C66 1.351 . S
C67 N68 1.373 . S
C67 H95 0.930 . S
N68 C67 1.373 . S
N68 C70 1.340 . S
N69 C66 1.368 . S
N69 C70 1.321 . S
N69 Co72 2.135 . S
C70 N68 1.340 . S
C70 N69 1.321 . S
C70 H94 0.930 . S
H71 C66 0.931 . S
Co72 N69 2.135 . S
Co72 N75 2.121 . S
Co72 O80 2.055 . S
Co72 O83 2.039 . S
Co72 N86 2.140 . S
C73 O74 1.227 . S
C73 O83 1.265 . S
O74 C73 1.227 . S
N75 Co72 2.121 . S
N75 C77 1.375 . S
N75 C78 1.313 . S
C76 C77 1.338 . S
C76 N79 1.377 . S
C76 H96 0.930 . S
C77 N75 1.375 . S
C77 C76 1.338 . S
C77 H81 0.931 . S
C78 N75 1.313 . S
C78 N79 1.344 . S
C78 H82 0.930 . S
N79 C76 1.377 . S
N79 C78 1.344 . S
O80 Co72 2.055 . S
O80 C84 1.253 . S
H81 C77 0.931 . S
H82 C78 0.930 . S
O83 Co72 2.039 . S
O83 C73 1.265 . S
C84 O80 1.253 . S
C84 O85 1.227 . S
O85 C84 1.227 . S
N86 Co72 2.140 . S
N86 C89 1.346 . S
N86 C90 1.345 . S
C87 C88 1.387 . S
C87 C91 1.391 . S
C88 C87 1.387 . S
C88 C89 1.369 . S
C88 H97 0.929 . S
C89 N86 1.346 . S
C89 C88 1.369 . S
C89 H92 0.928 . S
C90 N86 1.345 . S
C90 C91 1.371 . S
C90 H93 0.931 . S
C91 C87 1.391 . S
C91 C90 1.371 . S
C91 H98 0.930 . S
H92 C89 0.928 . S
H93 C90 0.931 . S
H94 C70 0.930 . S
H95 C67 0.930 . S
H96 C76 0.930 . S
H97 C88 0.929 . S
H98 C91 0.930 . S
C99 C100 1.351 . S
C99 N102 1.368 . S
C99 H104 0.931 . S
C100 C99 1.351 . S
C100 N101 1.373 . S
C100 H128 0.930 . S
N101 C100 1.373 . S
N101 C103 1.340 . S
N102 C99 1.368 . S
N102 C103 1.321 . S
N102 Co105 2.135 . S
C103 N101 1.340 . S
C103 N102 1.321 . S
C103 H127 0.930 . S
H104 C99 0.931 . S
Co105 N102 2.135 . S
Co105 N108 2.121 . S
Co105 O113 2.055 . S
Co105 O116 2.039 . S
Co105 N119 2.140 . S
C106 O107 1.227 . S
C106 O116 1.265 . S
O107 C106 1.227 . S
N108 Co105 2.121 . S
N108 C110 1.375 . S
N108 C111 1.313 . S
C109 C110 1.338 . S
C109 N112 1.377 . S
C109 H129 0.930 . S
C110 N108 1.375 . S
C110 C109 1.338 . S
C110 H114 0.931 . S
C111 N108 1.313 . S
C111 N112 1.344 . S
C111 H115 0.930 . S
N112 C109 1.377 . S
N112 C111 1.344 . S
O113 Co105 2.055 . S
O113 C117 1.253 . S
H114 C110 0.931 . S
H115 C111 0.930 . S
O116 Co105 2.039 . S
O116 C106 1.265 . S
C117 O113 1.253 . S
C117 O118 1.227 . S
O118 C117 1.227 . S
N119 Co105 2.140 . S
N119 C122 1.346 1_655 S
N119 C123 1.345 . S
C120 C121 1.387 . S
C120 C124 1.391 . S
C121 C120 1.387 . S
C121 C122 1.369 . S
C121 H130 0.929 . S
C122 N119 1.346 1_455 S
C122 C121 1.369 . S
C122 H125 0.928 . S
C123 N119 1.345 . S
C123 C124 1.371 1_655 S
C123 H126 0.931 . S
C124 C120 1.391 . S
C124 C123 1.371 1_455 S
C124 H131 0.930 . S
H125 C122 0.928 . S
H126 C123 0.931 . S
H127 C103 0.930 . S
H128 C100 0.930 . S
H129 C109 0.930 . S
H130 C121 0.929 . S
H131 C124 0.930 . S
C132 C133 1.351 . S
C132 N135 1.368 . S
C132 H137 0.931 . S
C133 C132 1.351 . S
C133 N134 1.373 . S
C133 H161 0.930 . S
N134 C133 1.373 . S
N134 C136 1.340 . S
N135 C132 1.368 . S
N135 C136 1.321 . S
N135 Co138 2.135 . S
C136 N134 1.340 . S
C136 N135 1.321 . S
C136 H160 0.930 . S
H137 C132 0.931 . S
Co138 N135 2.135 . S
Co138 N141 2.121 . S
Co138 O146 2.055 . S
Co138 O149 2.039 . S
Co138 N152 2.140 . S
C139 O140 1.227 . S
C139 O149 1.265 . S
O140 C139 1.227 . S
N141 Co138 2.121 . S
N141 C143 1.375 . S
N141 C144 1.313 . S
C142 C143 1.338 . S
C142 N145 1.377 . S
C142 H162 0.930 . S
C143 N141 1.375 . S
C143 C142 1.338 . S
C143 H147 0.931 . S
C144 N141 1.313 . S
C144 N145 1.344 . S
C144 H148 0.930 . S
N145 C142 1.377 . S
N145 C144 1.344 . S
O146 Co138 2.055 . S
O146 C150 1.253 . S
H147 C143 0.931 . S
H148 C144 0.930 . S
O149 Co138 2.039 . S
O149 C139 1.265 . S
C150 O146 1.253 . S
C150 O151 1.227 . S
O151 C150 1.227 . S
N152 Co138 2.140 . S
N152 C155 1.346 1_655 S
N152 C156 1.345 . S
C153 C154 1.387 . S
C153 C157 1.391 . S
C154 C153 1.387 . S
C154 C155 1.369 . S
C154 H163 0.929 . S
C155 N152 1.346 1_455 S
C155 C154 1.369 . S
C155 H158 0.928 . S
C156 N152 1.345 . S
C156 C157 1.371 1_655 S
C156 H159 0.931 . S
C157 C153 1.391 . S
C157 C156 1.371 1_455 S
C157 H164 0.930 . S
H158 C155 0.928 . S
H159 C156 0.931 . S
H160 C136 0.930 . S
H161 C133 0.930 . S
H162 C142 0.930 . S
H163 C154 0.929 . S
H164 C157 0.930 . S
C165 C166 1.351 . S
C165 N168 1.368 . S
C165 H170 0.931 . S
C166 C165 1.351 . S
C166 N167 1.373 . S
C166 H194 0.930 . S
N167 C166 1.373 . S
N167 C169 1.340 . S
N168 C165 1.368 . S
N168 C169 1.321 . S
N168 Co171 2.135 . S
C169 N167 1.340 . S
C169 N168 1.321 . S
C169 H193 0.930 . S
H170 C165 0.931 . S
Co171 N168 2.135 . S
Co171 N174 2.121 . S
Co171 O179 2.055 . S
Co171 O182 2.039 . S
Co171 N185 2.140 . S
C172 O173 1.227 . S
C172 O182 1.265 . S
O173 C172 1.227 . S
N174 Co171 2.121 . S
N174 C176 1.375 . S
N174 C177 1.313 . S
C175 C176 1.338 . S
C175 N178 1.377 . S
C175 H195 0.930 . S
C176 N174 1.375 . S
C176 C175 1.338 . S
C176 H180 0.931 . S
C177 N174 1.313 . S
C177 N178 1.344 . S
C177 H181 0.930 . S
N178 C175 1.377 . S
N178 C177 1.344 . S
O179 Co171 2.055 . S
O179 C183 1.253 . S
H180 C176 0.931 . S
H181 C177 0.930 . S
O182 Co171 2.039 . S
O182 C172 1.265 . S
C183 O179 1.253 . S
C183 O184 1.227 . S
O184 C183 1.227 . S
N185 Co171 2.140 . S
N185 C188 1.346 . S
N185 C189 1.345 . S
C186 C187 1.387 . S
C186 C190 1.391 . S
C187 C186 1.387 . S
C187 C188 1.369 . S
C187 H196 0.929 . S
C188 N185 1.346 . S
C188 C187 1.369 . S
C188 H191 0.928 . S
C189 N185 1.345 . S
C189 C190 1.371 . S
C189 H192 0.931 . S
C190 C186 1.391 . S
C190 C189 1.371 . S
C190 H197 0.930 . S
H191 C188 0.928 . S
H192 C189 0.931 . S
H193 C169 0.930 . S
H194 C166 0.930 . S
H195 C175 0.930 . S
H196 C187 0.929 . S
H197 C190 0.930 . S
C198 C199 1.351 . S
C198 N201 1.368 . S
C198 H203 0.931 . S
C199 C198 1.351 . S
C199 N200 1.373 . S
C199 H227 0.930 . S
N200 C199 1.373 . S
N200 C202 1.340 . S
N201 C198 1.368 . S
N201 C202 1.321 . S
N201 Co204 2.135 . S
C202 N200 1.340 . S
C202 N201 1.321 . S
C202 H226 0.930 . S
H203 C198 0.931 . S
Co204 N201 2.135 . S
Co204 N207 2.121 . S
Co204 O212 2.055 . S
Co204 O215 2.039 . S
Co204 N218 2.140 . S
C205 O206 1.227 . S
C205 O215 1.265 . S
O206 C205 1.227 . S
N207 Co204 2.121 . S
N207 C209 1.375 . S
N207 C210 1.313 . S
C208 C209 1.338 . S
C208 N211 1.377 . S
C208 H228 0.930 . S
C209 N207 1.375 . S
C209 C208 1.338 . S
C209 H213 0.931 . S
C210 N207 1.313 . S
C210 N211 1.344 . S
C210 H214 0.930 . S
N211 C208 1.377 . S
N211 C210 1.344 . S
O212 Co204 2.055 . S
O212 C216 1.253 . S
H213 C209 0.931 . S
H214 C210 0.930 . S
O215 Co204 2.039 . S
O215 C205 1.265 . S
C216 O212 1.253 . S
C216 O217 1.227 . S
O217 C216 1.227 . S
N218 Co204 2.140 . S
N218 C221 1.346 . S
N218 C222 1.345 . S
C219 C220 1.387 . S
C219 C223 1.391 . S
C220 C219 1.387 . S
C220 C221 1.369 . S
C220 H229 0.929 . S
C221 N218 1.346 . S
C221 C220 1.369 . S
C221 H224 0.928 . S
C222 N218 1.345 . S
C222 C223 1.371 . S
C222 H225 0.931 . S
C223 C219 1.391 . S
C223 C222 1.371 . S
C223 H230 0.930 . S
H224 C221 0.928 . S
H225 C222 0.931 . S
H226 C202 0.930 . S
H227 C199 0.930 . S
H228 C208 0.930 . S
H229 C220 0.929 . S
H230 C223 0.930 . S
C231 C232 1.351 . S
C231 N234 1.368 . S
C231 H236 0.931 . S
C232 C231 1.351 . S
C232 N233 1.373 . S
C232 H260 0.930 . S
N233 C232 1.373 . S
N233 C235 1.340 . S
N234 C231 1.368 . S
N234 C235 1.321 . S
N234 Co237 2.135 . S
C235 N233 1.340 . S
C235 N234 1.321 . S
C235 H259 0.930 . S
H236 C231 0.931 . S
Co237 N234 2.135 . S
Co237 N240 2.121 . S
Co237 O245 2.055 . S
Co237 O248 2.039 . S
Co237 N251 2.140 . S
C238 O239 1.227 . S
C238 O248 1.265 . S
O239 C238 1.227 . S
N240 Co237 2.121 . S
N240 C242 1.375 . S
N240 C243 1.313 . S
C241 C242 1.338 . S
C241 N244 1.377 . S
C241 H261 0.930 . S
C242 N240 1.375 . S
C242 C241 1.338 . S
C242 H246 0.931 . S
C243 N240 1.313 . S
C243 N244 1.344 . S
C243 H247 0.930 . S
N244 C241 1.377 . S
N244 C243 1.344 . S
O245 Co237 2.055 . S
O245 C249 1.253 . S
H246 C242 0.931 . S
H247 C243 0.930 . S
O248 Co237 2.039 . S
O248 C238 1.265 . S
C249 O245 1.253 . S
C249 O250 1.227 . S
O250 C249 1.227 . S
N251 Co237 2.140 . S
N251 C254 1.346 1_455 S
N251 C255 1.345 . S
C252 C253 1.387 . S
C252 C256 1.391 . S
C253 C252 1.387 . S
C253 C254 1.369 . S
C253 H262 0.929 . S
C254 N251 1.346 1_655 S
C254 C253 1.369 . S
C254 H257 0.928 . S
C255 N251 1.345 . S
C255 C256 1.371 1_455 S
C255 H258 0.931 . S
C256 C252 1.391 . S
C256 C255 1.371 1_655 S
C256 H263 0.930 . S
H257 C254 0.928 . S
H258 C255 0.931 . S
H259 C235 0.930 . S
H260 C232 0.930 . S
H261 C241 0.930 . S
H262 C253 0.929 . S
H263 C256 0.930 . S
C264 C265 1.351 . S
C264 N267 1.368 . S
C264 H269 0.931 . S
C265 C264 1.351 . S
C265 N266 1.373 . S
C265 H293 0.930 . S
N266 C265 1.373 . S
N266 C268 1.340 . S
N267 C264 1.368 . S
N267 C268 1.321 . S
N267 Co270 2.135 . S
C268 N266 1.340 . S
C268 N267 1.321 . S
C268 H292 0.930 . S
H269 C264 0.931 . S
Co270 N267 2.135 . S
Co270 N273 2.121 . S
Co270 O278 2.055 . S
Co270 O281 2.039 . S
Co270 N284 2.140 . S
C271 O272 1.227 . S
C271 O281 1.265 . S
O272 C271 1.227 . S
N273 Co270 2.121 . S
N273 C275 1.375 . S
N273 C276 1.313 . S
C274 C275 1.338 . S
C274 N277 1.377 . S
C274 H294 0.930 . S
C275 N273 1.375 . S
C275 C274 1.338 . S
C275 H279 0.931 . S
C276 N273 1.313 . S
C276 N277 1.344 . S
C276 H280 0.930 . S
N277 C274 1.377 . S
N277 C276 1.344 . S
O278 Co270 2.055 . S
O278 C282 1.253 . S
H279 C275 0.931 . S
H280 C276 0.930 . S
O281 Co270 2.039 . S
O281 C271 1.265 . S
C282 O278 1.253 . S
C282 O283 1.227 . S
O283 C282 1.227 . S
N284 Co270 2.140 . S
N284 C287 1.346 . S
N284 C288 1.345 . S
C285 C286 1.387 . S
C285 C289 1.391 . S
C286 C285 1.387 . S
C286 C287 1.369 . S
C286 H295 0.929 . S
C287 N284 1.346 . S
C287 C286 1.369 . S
C287 H290 0.928 . S
C288 N284 1.345 . S
C288 C289 1.371 . S
C288 H291 0.931 . S
C289 C285 1.391 . S
C289 C288 1.371 . S
C289 H296 0.930 . S
H290 C287 0.928 . S
H291 C288 0.931 . S
H292 C268 0.930 . S
H293 C265 0.930 . S
H294 C274 0.930 . S
H295 C286 0.929 . S
H296 C289 0.930 . S
C297 C298 1.351 . S
C297 N300 1.368 . S
C297 H302 0.931 . S
C298 C297 1.351 . S
C298 N299 1.373 . S
C298 H326 0.930 . S
N299 C298 1.373 . S
N299 C301 1.340 . S
N300 C297 1.368 . S
N300 C301 1.321 . S
N300 Co303 2.135 . S
C301 N299 1.340 . S
C301 N300 1.321 . S
C301 H325 0.930 . S
H302 C297 0.931 . S
Co303 N300 2.135 . S
Co303 N306 2.121 . S
Co303 O311 2.055 . S
Co303 O314 2.039 . S
Co303 N317 2.140 . S
C304 O305 1.227 . S
C304 O314 1.265 . S
O305 C304 1.227 . S
N306 Co303 2.121 . S
N306 C308 1.375 . S
N306 C309 1.313 . S
C307 C308 1.338 . S
C307 N310 1.377 . S
C307 H327 0.930 . S
C308 N306 1.375 . S
C308 C307 1.338 . S
C308 H312 0.931 . S
C309 N306 1.313 . S
C309 N310 1.344 . S
C309 H313 0.930 . S
N310 C307 1.377 . S
N310 C309 1.344 . S
O311 Co303 2.055 . S
O311 C315 1.253 . S
H312 C308 0.931 . S
H313 C309 0.930 . S
O314 Co303 2.039 . S
O314 C304 1.265 . S
C315 O311 1.253 . S
C315 O316 1.227 . S
O316 C315 1.227 . S
N317 Co303 2.140 . S
N317 C320 1.346 1_655 S
N317 C321 1.345 . S
C318 C319 1.387 . S
C318 C322 1.391 . S
C319 C318 1.387 . S
C319 C320 1.369 . S
C319 H328 0.929 . S
C320 N317 1.346 1_455 S
C320 C319 1.369 . S
C320 H323 0.928 . S
C321 N317 1.345 . S
C321 C322 1.371 1_655 S
C321 H324 0.931 . S
C322 C318 1.391 . S
C322 C321 1.371 1_455 S
C322 H329 0.930 . S
H323 C320 0.928 . S
H324 C321 0.931 . S
H325 C301 0.930 . S
H326 C298 0.930 . S
H327 C307 0.930 . S
H328 C319 0.929 . S
H329 C322 0.930 . S
C330 C331 1.351 . S
C330 N333 1.368 . S
C330 H335 0.931 . S
C331 C330 1.351 . S
C331 N332 1.373 . S
C331 H359 0.930 . S
N332 C331 1.373 . S
N332 C334 1.340 . S
N333 C330 1.368 . S
N333 C334 1.321 . S
N333 Co336 2.135 . S
C334 N332 1.340 . S
C334 N333 1.321 . S
C334 H358 0.930 . S
H335 C330 0.931 . S
Co336 N333 2.135 . S
Co336 N339 2.121 . S
Co336 O344 2.055 . S
Co336 O347 2.039 . S
Co336 N350 2.140 . S
C337 O338 1.227 . S
C337 O347 1.265 . S
O338 C337 1.227 . S
N339 Co336 2.121 . S
N339 C341 1.375 . S
N339 C342 1.313 . S
C340 C341 1.338 . S
C340 N343 1.377 . S
C340 H360 0.930 . S
C341 N339 1.375 . S
C341 C340 1.338 . S
C341 H345 0.931 . S
C342 N339 1.313 . S
C342 N343 1.344 . S
C342 H346 0.930 . S
N343 C340 1.377 . S
N343 C342 1.344 . S
O344 Co336 2.055 . S
O344 C348 1.253 . S
H345 C341 0.931 . S
H346 C342 0.930 . S
O347 Co336 2.039 . S
O347 C337 1.265 . S
C348 O344 1.253 . S
C348 O349 1.227 . S
O349 C348 1.227 . S
N350 Co336 2.140 . S
N350 C353 1.346 1_455 S
N350 C354 1.345 . S
C351 C352 1.387 . S
C351 C355 1.391 . S
C352 C351 1.387 . S
C352 C353 1.369 . S
C352 H361 0.929 . S
C353 N350 1.346 1_655 S
C353 C352 1.369 . S
C353 H356 0.928 . S
C354 N350 1.345 . S
C354 C355 1.371 1_455 S
C354 H357 0.931 . S
C355 C351 1.391 . S
C355 C354 1.371 1_655 S
C355 H362 0.930 . S
H356 C353 0.928 . S
H357 C354 0.931 . S
H358 C334 0.930 . S
H359 C331 0.930 . S
H360 C340 0.930 . S
H361 C352 0.929 . S
H362 C355 0.930 . S
C363 C364 1.351 . S
C363 N366 1.368 . S
C363 H368 0.931 . S
C364 C363 1.351 . S
C364 N365 1.373 . S
C364 H392 0.930 . S
N365 C364 1.373 . S
N365 C367 1.340 . S
N366 C363 1.368 . S
N366 C367 1.321 . S
N366 Co369 2.135 . S
C367 N365 1.340 . S
C367 N366 1.321 . S
C367 H391 0.930 . S
H368 C363 0.931 . S
Co369 N366 2.135 . S
Co369 N372 2.121 . S
Co369 O377 2.055 . S
Co369 O380 2.039 . S
Co369 N383 2.140 . S
C370 O371 1.227 . S
C370 O380 1.265 . S
O371 C370 1.227 . S
N372 Co369 2.121 . S
N372 C374 1.375 . S
N372 C375 1.313 . S
C373 C374 1.338 . S
C373 N376 1.377 . S
C373 H393 0.930 . S
C374 N372 1.375 . S
C374 C373 1.338 . S
C374 H378 0.931 . S
C375 N372 1.313 . S
C375 N376 1.344 . S
C375 H379 0.930 . S
N376 C373 1.377 . S
N376 C375 1.344 . S
O377 Co369 2.055 . S
O377 C381 1.253 . S
H378 C374 0.931 . S
H379 C375 0.930 . S
O380 Co369 2.039 . S
O380 C370 1.265 . S
C381 O377 1.253 . S
C381 O382 1.227 . S
O382 C381 1.227 . S
N383 Co369 2.140 . S
N383 C386 1.346 . S
N383 C387 1.345 . S
C384 C385 1.387 . S
C384 C388 1.391 . S
C385 C384 1.387 . S
C385 C386 1.369 . S
C385 H394 0.929 . S
C386 N383 1.346 . S
C386 C385 1.369 . S
C386 H389 0.928 . S
C387 N383 1.345 . S
C387 C388 1.371 . S
C387 H390 0.931 . S
C388 C384 1.391 . S
C388 C387 1.371 . S
C388 H395 0.930 . S
H389 C386 0.928 . S
H390 C387 0.931 . S
H391 C367 0.930 . S
H392 C364 0.930 . S
H393 C373 0.930 . S
H394 C385 0.929 . S
H395 C388 0.930 . S
C396 C397 1.351 . S
C396 N399 1.368 . S
C396 H401 0.931 . S
C397 C396 1.351 . S
C397 N398 1.373 . S
C397 H425 0.930 . S
N398 C397 1.373 . S
N398 C400 1.340 . S
N399 C396 1.368 . S
N399 C400 1.321 . S
N399 Co402 2.135 . S
C400 N398 1.340 . S
C400 N399 1.321 . S
C400 H424 0.930 . S
H401 C396 0.931 . S
Co402 N399 2.135 . S
Co402 N405 2.121 . S
Co402 O410 2.055 . S
Co402 O413 2.039 . S
Co402 N416 2.140 . S
C403 O404 1.227 . S
C403 O413 1.265 . S
O404 C403 1.227 . S
N405 Co402 2.121 . S
N405 C407 1.375 . S
N405 C408 1.313 . S
C406 C407 1.338 . S
C406 N409 1.377 . S
C406 H426 0.930 . S
C407 N405 1.375 . S
C407 C406 1.338 . S
C407 H411 0.931 . S
C408 N405 1.313 . S
C408 N409 1.344 . S
C408 H412 0.930 . S
N409 C406 1.377 . S
N409 C408 1.344 . S
O410 Co402 2.055 . S
O410 C414 1.253 . S
H411 C407 0.931 . S
H412 C408 0.930 . S
O413 Co402 2.039 . S
O413 C403 1.265 . S
C414 O410 1.253 . S
C414 O415 1.227 . S
O415 C414 1.227 . S
N416 Co402 2.140 . S
N416 C419 1.346 . S
N416 C420 1.345 . S
C417 C418 1.387 . S
C417 C421 1.391 . S
C418 C417 1.387 . S
C418 C419 1.369 . S
C418 H427 0.929 . S
C419 N416 1.346 . S
C419 C418 1.369 . S
C419 H422 0.928 . S
C420 N416 1.345 . S
C420 C421 1.371 . S
C420 H423 0.931 . S
C421 C417 1.391 . S
C421 C420 1.371 . S
C421 H428 0.930 . S
H422 C419 0.928 . S
H423 C420 0.931 . S
H424 C400 0.930 . S
H425 C397 0.930 . S
H426 C406 0.930 . S
H427 C418 0.929 . S
H428 C421 0.930 . S
C429 C430 1.351 . S
C429 N432 1.368 . S
C429 H434 0.931 . S
C430 C429 1.351 . S
C430 N431 1.373 . S
C430 H458 0.930 . S
N431 C430 1.373 . S
N431 C433 1.340 . S
N432 C429 1.368 . S
N432 C433 1.321 . S
N432 Co435 2.135 . S
C433 N431 1.340 . S
C433 N432 1.321 . S
C433 H457 0.930 . S
H434 C429 0.931 . S
Co435 N432 2.135 . S
Co435 N438 2.121 . S
Co435 O443 2.055 . S
Co435 O446 2.039 . S
Co435 N449 2.140 . S
C436 O437 1.227 . S
C436 O446 1.265 . S
O437 C436 1.227 . S
N438 Co435 2.121 . S
N438 C440 1.375 . S
N438 C441 1.313 . S
C439 C440 1.338 . S
C439 N442 1.377 . S
C439 H459 0.930 . S
C440 N438 1.375 . S
C440 C439 1.338 . S
C440 H444 0.931 . S
C441 N438 1.313 . S
C441 N442 1.344 . S
C441 H445 0.930 . S
N442 C439 1.377 . S
N442 C441 1.344 . S
O443 Co435 2.055 . S
O443 C447 1.253 . S
H444 C440 0.931 . S
H445 C441 0.930 . S
O446 Co435 2.039 . S
O446 C436 1.265 . S
C447 O443 1.253 . S
C447 O448 1.227 . S
O448 C447 1.227 . S
N449 Co435 2.140 . S
N449 C452 1.346 1_455 S
N449 C453 1.345 . S
C450 C451 1.387 . S
C450 C454 1.391 . S
C451 C450 1.387 . S
C451 C452 1.369 . S
C451 H460 0.929 . S
C452 N449 1.346 1_655 S
C452 C451 1.369 . S
C452 H455 0.928 . S
C453 N449 1.345 . S
C453 C454 1.371 1_455 S
C453 H456 0.931 . S
C454 C450 1.391 . S
C454 C453 1.371 1_655 S
C454 H461 0.930 . S
H455 C452 0.928 . S
H456 C453 0.931 . S
H457 C433 0.930 . S
H458 C430 0.930 . S
H459 C439 0.930 . S
H460 C451 0.929 . S
H461 C454 0.930 . S
C462 C463 1.351 . S
C462 N465 1.368 . S
C462 H467 0.931 . S
C463 C462 1.351 . S
C463 N464 1.373 . S
C463 H491 0.930 . S
N464 C463 1.373 . S
N464 C466 1.340 . S
N465 C462 1.368 . S
N465 C466 1.321 . S
N465 Co468 2.135 . S
C466 N464 1.340 . S
C466 N465 1.321 . S
C466 H490 0.930 . S
H467 C462 0.931 . S
Co468 N465 2.135 . S
Co468 N471 2.121 . S
Co468 O476 2.055 . S
Co468 O479 2.039 . S
Co468 N482 2.140 . S
C469 O470 1.227 . S
C469 O479 1.265 . S
O470 C469 1.227 . S
N471 Co468 2.121 . S
N471 C473 1.375 . S
N471 C474 1.313 . S
C472 C473 1.338 . S
C472 N475 1.377 . S
C472 H492 0.930 . S
C473 N471 1.375 . S
C473 C472 1.338 . S
C473 H477 0.931 . S
C474 N471 1.313 . S
C474 N475 1.344 . S
C474 H478 0.930 . S
N475 C472 1.377 . S
N475 C474 1.344 . S
O476 Co468 2.055 . S
O476 C480 1.253 . S
H477 C473 0.931 . S
H478 C474 0.930 . S
O479 Co468 2.039 . S
O479 C469 1.265 . S
C480 O476 1.253 . S
C480 O481 1.227 . S
O481 C480 1.227 . S
N482 Co468 2.140 . S
N482 C485 1.346 1_655 S
N482 C486 1.345 . S
C483 C484 1.387 . S
C483 C487 1.391 . S
C484 C483 1.387 . S
C484 C485 1.369 . S
C484 H493 0.929 . S
C485 N482 1.346 1_455 S
C485 C484 1.369 . S
C485 H488 0.928 . S
C486 N482 1.345 . S
C486 C487 1.371 1_655 S
C486 H489 0.931 . S
C487 C483 1.391 . S
C487 C486 1.371 1_455 S
C487 H494 0.930 . S
H488 C485 0.928 . S
H489 C486 0.931 . S
H490 C466 0.930 . S
H491 C463 0.930 . S
H492 C472 0.930 . S
H493 C484 0.929 . S
H494 C487 0.930 . S
C495 C496 1.351 . S
C495 N498 1.368 . S
C495 H500 0.931 . S
C496 C495 1.351 . S
C496 N497 1.373 . S
C496 H524 0.930 . S
N497 C496 1.373 . S
N497 C499 1.340 . S
N498 C495 1.368 . S
N498 C499 1.321 . S
N498 Co501 2.135 . S
C499 N497 1.340 . S
C499 N498 1.321 . S
C499 H523 0.930 . S
H500 C495 0.931 . S
Co501 N498 2.135 . S
Co501 N504 2.121 . S
Co501 O509 2.055 . S
Co501 O512 2.039 . S
Co501 N515 2.140 . S
C502 O503 1.227 . S
C502 O512 1.265 . S
O503 C502 1.227 . S
N504 Co501 2.121 . S
N504 C506 1.375 . S
N504 C507 1.313 . S
C505 C506 1.338 . S
C505 N508 1.377 . S
C505 H525 0.930 . S
C506 N504 1.375 . S
C506 C505 1.338 . S
C506 H510 0.931 . S
C507 N504 1.313 . S
C507 N508 1.344 . S
C507 H511 0.930 . S
N508 C505 1.377 . S
N508 C507 1.344 . S
O509 Co501 2.055 . S
O509 C513 1.253 . S
H510 C506 0.931 . S
H511 C507 0.930 . S
O512 Co501 2.039 . S
O512 C502 1.265 . S
C513 O509 1.253 . S
C513 O514 1.227 . S
O514 C513 1.227 . S
N515 Co501 2.140 . S
N515 C518 1.346 . S
N515 C519 1.345 . S
C516 C517 1.387 . S
C516 C520 1.391 . S
C517 C516 1.387 . S
C517 C518 1.369 . S
C517 H526 0.929 . S
C518 N515 1.346 . S
C518 C517 1.369 . S
C518 H521 0.928 . S
C519 N515 1.345 . S
C519 C520 1.371 . S
C519 H522 0.931 . S
C520 C516 1.391 . S
C520 C519 1.371 . S
C520 H527 0.930 . S
H521 C518 0.928 . S
H522 C519 0.931 . S
H523 C499 0.930 . S
H524 C496 0.930 . S
H525 C505 0.930 . S
H526 C517 0.929 . S
H527 C520 0.930 . S
H528 C546 0.951 . S
H529 C548 0.951 1_554 S
H530 C550 0.950 . S
H531 C551 0.950 . S
H532 C553 0.950 . S
H533 C556 0.950 . S
H534 C557 0.950 . S
H535 C559 0.950 . S
H536 C560 0.950 . S
H537 C561 0.951 . S
H538 C563 0.951 . S
H539 C565 0.950 . S
H540 C566 0.950 . S
H541 C568 0.950 . S
H542 C571 0.950 . S
H543 C572 0.950 . S
H544 C574 0.950 . S
H545 C575 0.950 . S
C546 H528 0.951 . S
C546 C547 1.366 . S
C546 C548 1.388 . S
C547 C546 1.366 . S
C547 C551 1.385 . S
C548 H529 0.951 1_556 S
C548 C546 1.388 . S
C548 C549 1.366 . S
C549 C548 1.366 . S
C549 C550 1.414 . S
C549 C552 1.499 . S
C550 H530 0.950 . S
C550 C549 1.414 . S
C550 C551 1.374 . S
C551 H531 0.950 . S
C551 C547 1.385 . S
C551 C550 1.374 . S
C552 C549 1.499 . S
C552 C553 1.373 . S
C552 C554 1.389 1_556 S
C553 H532 0.950 . S
C553 C552 1.373 . S
C553 C569 1.377 1_556 S
C554 C552 1.389 1_554 S
C554 C555 1.524 . S
C554 C568 1.377 . S
C555 C554 1.524 . S
C555 C556 1.397 1_554 S
C555 C560 1.363 . S
C556 H533 0.950 . S
C556 C555 1.397 1_556 S
C556 C557 1.334 . S
C557 H534 0.950 . S
C557 C556 1.334 . S
C557 C558 1.287 1_556 S
C558 C557 1.287 1_554 S
C558 C559 1.524 . S
C558 H577 0.913 . S
C559 H535 0.950 . S
C559 C558 1.524 . S
C559 C560 1.415 . S
C560 H536 0.950 . S
C560 C555 1.363 . S
C560 C559 1.415 . S
C561 H537 0.951 . S
C561 C562 1.366 . S
C561 C563 1.388 . S
C562 C561 1.366 . S
C562 C566 1.385 . S
C563 H538 0.951 . S
C563 C561 1.388 . S
C563 C564 1.366 . S
C564 C563 1.366 . S
C564 C565 1.414 . S
C564 C567 1.499 . S
C565 H539 0.950 . S
C565 C564 1.414 . S
C565 C566 1.374 . S
C566 H540 0.950 . S
C566 C562 1.385 . S
C566 C565 1.374 . S
C567 C564 1.499 . S
C567 C568 1.373 . S
C567 C569 1.389 . S
C568 H541 0.950 . S
C568 C554 1.377 . S
C568 C567 1.373 . S
C569 C553 1.377 1_554 S
C569 C567 1.389 . S
C569 C570 1.524 . S
C570 C569 1.524 . S
C570 C571 1.397 . S
C570 C575 1.363 1_554 S
C571 H542 0.950 . S
C571 C570 1.397 . S
C571 C572 1.334 . S
C572 H543 0.950 . S
C572 C571 1.334 . S
C572 C573 1.244 1_554 S
C573 C572 1.244 1_556 S
C573 C574 1.565 . S
C573 H576 1.006 . S
C574 H544 0.950 . S
C574 C573 1.565 . S
C574 C575 1.415 . S
C575 H545 0.950 . S
C575 C570 1.363 1_556 S
C575 C574 1.415 . S
H576 C573 1.006 . S
H577 C558 0.913 . S
H578 C596 0.951 . S
H579 C598 1.001 . S
H580 C600 0.950 . S
H581 C601 0.950 . S
H582 C603 0.950 . S
H583 C606 0.950 . S
H584 C607 0.950 . S
H585 C609 0.950 . S
H586 C610 0.950 . S
H587 C611 0.951 . S
H588 C613 0.951 . S
H589 C615 0.950 . S
H590 C616 0.950 . S
H591 C618 0.950 . S
H592 C621 0.950 . S
H593 C622 0.950 . S
H594 C624 0.950 1_556 S
H595 C625 0.950 . S
C596 H578 0.951 . S
C596 C597 1.366 . S
C596 C598 1.388 . S
C597 C596 1.366 . S
C597 C601 1.385 . S
C598 H579 1.001 . S
C598 C596 1.388 . S
C598 C599 1.366 . S
C599 C598 1.366 . S
C599 C600 1.414 . S
C599 C602 1.499 . S
C600 H580 0.950 . S
C600 C599 1.414 . S
C600 C601 1.374 . S
C601 H581 0.950 . S
C601 C597 1.385 . S
C601 C600 1.374 . S
C602 C599 1.499 . S
C602 C603 1.373 . S
C602 C604 1.389 1_556 S
C603 H582 0.950 . S
C603 C602 1.373 . S
C603 C619 1.377 1_556 S
C604 C602 1.389 1_554 S
C604 C605 1.523 1_554 S
C604 C618 1.377 . S
C605 C604 1.523 1_556 S
C605 C606 1.405 . S
C605 C610 1.356 1_556 S
C606 H583 0.950 . S
C606 C605 1.405 . S
C606 C607 1.334 . S
C607 H584 0.950 . S
C607 C606 1.334 . S
C607 C608 1.287 . S
C608 C607 1.287 . S
C608 C609 1.524 1_556 S
C608 H627 0.913 . S
C609 H585 0.950 . S
C609 C608 1.524 1_554 S
C609 C610 1.415 . S
C610 H586 0.950 . S
C610 C605 1.356 1_554 S
C610 C609 1.415 . S
C611 H587 0.951 . S
C611 C612 1.366 . S
C611 C613 1.388 . S
C612 C611 1.366 . S
C612 C616 1.385 . S
C613 H588 0.951 . S
C613 C611 1.388 . S
C613 C614 1.366 . S
C614 C613 1.366 . S
C614 C615 1.414 . S
C614 C617 1.499 . S
C615 H589 0.950 . S
C615 C614 1.414 . S
C615 C616 1.374 . S
C616 H590 0.950 . S
C616 C612 1.385 . S
C616 C615 1.374 . S
C617 C614 1.499 . S
C617 C618 1.373 . S
C617 C619 1.389 . S
C618 H591 0.950 . S
C618 C604 1.377 . S
C618 C617 1.373 . S
C619 C603 1.377 1_554 S
C619 C617 1.389 . S
C619 C620 1.524 . S
C620 C619 1.524 . S
C620 C621 1.397 . S
C620 C625 1.363 1_554 S
C621 H592 0.950 . S
C621 C620 1.397 . S
C621 C622 1.334 . S
C622 H593 0.950 . S
C622 C621 1.334 . S
C622 C623 1.287 . S
C623 C622 1.287 . S
C623 C624 1.524 . S
C623 H626 0.999 . S
C624 H594 0.950 1_554 S
C624 C623 1.524 . S
C624 C625 1.415 1_554 S
C625 H595 0.950 . S
C625 C620 1.363 1_556 S
C625 C624 1.415 1_556 S
H626 C623 0.999 . S
H627 C608 0.913 . S
H628 C646 0.951 . S
H629 C648 0.951 . S
H630 C650 0.950 . S
H631 C651 0.950 . S
H632 C653 0.950 . S
H633 C656 0.950 . S
H634 C657 0.950 . S
H635 C659 0.950 . S
H636 C660 0.950 . S
H637 C661 0.951 . S
H638 C663 0.951 . S
H639 C665 0.950 . S
H640 C666 0.950 . S
H641 C668 0.950 . S
H642 C671 0.950 . S
H643 C672 0.950 . S
H644 C674 0.950 . S
H645 C675 0.950 . S
C646 H628 0.951 . S
C646 C647 1.366 . S
C646 C648 1.388 . S
C647 C646 1.366 . S
C647 C651 1.385 . S
C648 H629 0.951 . S
C648 C646 1.388 . S
C648 C649 1.366 . S
C649 C648 1.366 . S
C649 C650 1.414 . S
C649 C652 1.499 . S
C650 H630 0.950 . S
C650 C649 1.414 . S
C650 C651 1.374 . S
C651 H631 0.950 . S
C651 C647 1.385 . S
C651 C650 1.374 . S
C652 C649 1.499 . S
C652 C653 1.373 . S
C652 C654 1.389 . S
C653 H632 0.950 . S
C653 C652 1.373 . S
C653 C669 1.377 . S
C654 C652 1.389 . S
C654 C655 1.524 . S
C654 C668 1.377 . S
C655 C654 1.524 . S
C655 C656 1.397 . S
C655 C660 1.363 . S
C656 H633 0.950 . S
C656 C655 1.397 . S
C656 C657 1.334 . S
C657 H634 0.950 . S
C657 C656 1.334 . S
C657 C658 1.287 . S
C658 C657 1.287 . S
C658 C659 1.524 . S
C658 H677 0.913 . S
C659 H635 0.950 . S
C659 C658 1.524 . S
C659 C660 1.415 . S
C660 H636 0.950 . S
C660 C655 1.363 . S
C660 C659 1.415 . S
C661 H637 0.951 . S
C661 C662 1.366 . S
C661 C663 1.388 . S
C662 C661 1.366 . S
C662 C666 1.385 . S
C663 H638 0.951 . S
C663 C661 1.388 . S
C663 C664 1.366 . S
C664 C663 1.366 . S
C664 C665 1.414 . S
C664 C667 1.499 . S
C665 H639 0.950 . S
C665 C664 1.414 . S
C665 C666 1.374 . S
C666 H640 0.950 . S
C666 C662 1.385 . S
C666 C665 1.374 . S
C667 C664 1.499 . S
C667 C668 1.373 . S
C667 C669 1.389 . S
C668 H641 0.950 . S
C668 C654 1.377 . S
C668 C667 1.373 . S
C669 C653 1.377 . S
C669 C667 1.389 . S
C669 C670 1.524 . S
C670 C669 1.524 . S
C670 C671 1.397 . S
C670 C675 1.363 . S
C671 H642 0.950 . S
C671 C670 1.397 . S
C671 C672 1.334 . S
C672 H643 0.950 . S
C672 C671 1.334 . S
C672 C673 1.287 . S
C673 C672 1.287 . S
C673 C674 1.524 . S
C673 H676 0.999 . S
C674 H644 0.950 . S
C674 C673 1.524 . S
C674 C675 1.415 . S
C675 H645 0.950 . S
C675 C670 1.363 . S
C675 C674 1.415 . S
H676 C673 0.999 . S
H677 C658 0.913 . S
H678 C696 0.951 . S
H679 C698 0.951 . S
H680 C700 0.950 . S
H681 C701 0.950 . S
H682 C703 0.950 . S
H683 C706 0.950 . S
H684 C707 0.950 . S
H685 C709 0.950 . S
H686 C710 0.950 . S
H687 C711 0.951 . S
H688 C713 0.951 . S
H689 C715 0.950 . S
H690 C716 0.950 . S
H691 C718 0.950 . S
H692 C721 0.950 . S
H693 C722 0.950 . S
H694 C724 0.950 . S
H695 C725 0.950 . S
C696 H678 0.951 . S
C696 C697 1.366 . S
C696 C698 1.388 . S
C697 C696 1.366 . S
C697 C701 1.385 . S
C698 H679 0.951 . S
C698 C696 1.388 . S
C698 C699 1.366 . S
C699 C698 1.366 . S
C699 C700 1.414 . S
C699 C702 1.499 . S
C700 H680 0.950 . S
C700 C699 1.414 . S
C700 C701 1.374 . S
C701 H681 0.950 . S
C701 C697 1.385 . S
C701 C700 1.374 . S
C702 C699 1.499 . S
C702 C703 1.373 . S
C702 C704 1.389 . S
C703 H682 0.950 . S
C703 C702 1.373 . S
C703 C719 1.377 . S
C704 C702 1.389 . S
C704 C705 1.524 . S
C704 C718 1.377 . S
C705 C704 1.524 . S
C705 C706 1.397 . S
C705 C710 1.363 . S
C706 H683 0.950 . S
C706 C705 1.397 . S
C706 C707 1.334 . S
C707 H684 0.950 . S
C707 C706 1.334 . S
C707 C708 1.287 . S
C708 C707 1.287 . S
C708 C709 1.524 . S
C708 H727 0.913 . S
C709 H685 0.950 . S
C709 C708 1.524 . S
C709 C710 1.415 . S
C710 H686 0.950 . S
C710 C705 1.363 . S
C710 C709 1.415 . S
C711 H687 0.951 . S
C711 C712 1.366 . S
C711 C713 1.388 . S
C712 C711 1.366 . S
C712 C716 1.385 . S
C713 H688 0.951 . S
C713 C711 1.388 . S
C713 C714 1.366 . S
C714 C713 1.366 . S
C714 C715 1.414 . S
C714 C717 1.499 . S
C715 H689 0.950 . S
C715 C714 1.414 . S
C715 C716 1.374 . S
C716 H690 0.950 . S
C716 C712 1.385 . S
C716 C715 1.374 . S
C717 C714 1.499 . S
C717 C718 1.373 . S
C717 C719 1.389 . S
C718 H691 0.950 . S
C718 C704 1.377 . S
C718 C717 1.373 . S
C719 C703 1.377 . S
C719 C717 1.389 . S
C719 C720 1.524 . S
C720 C719 1.524 . S
C720 C721 1.397 . S
C720 C725 1.363 . S
C721 H692 0.950 . S
C721 C720 1.397 . S
C721 C722 1.334 . S
C722 H693 0.950 . S
C722 C721 1.334 . S
C722 C723 1.287 . S
C723 C722 1.287 . S
C723 C724 1.524 . S
C723 H726 0.999 . S
C724 H694 0.950 . S
C724 C723 1.524 . S
C724 C725 1.415 . S
C725 H695 0.950 . S
C725 C720 1.363 . S
C725 C724 1.415 . S
H726 C723 0.999 . S
H727 C708 0.913 . S
H728 C746 0.951 . S
H729 C748 0.951 . S
H730 C750 0.950 . S
H731 C751 0.950 . S
H732 C753 0.950 . S
H733 C756 0.974 . S
H734 C757 0.950 . S
H735 C759 0.950 . S
H736 C760 0.950 . S
H737 C761 0.951 . S
H738 C763 0.951 . S
H739 C765 0.950 . S
H740 C766 0.950 . S
H741 C768 0.950 . S
H742 C771 0.950 . S
H743 C772 0.950 . S
H744 C774 0.950 . S
H745 C775 0.950 . S
C746 H728 0.951 . S
C746 C747 1.366 . S
C746 C748 1.388 . S
C747 C746 1.366 . S
C747 C751 1.385 . S
C748 H729 0.951 . S
C748 C746 1.388 . S
C748 C749 1.366 . S
C749 C748 1.366 . S
C749 C750 1.414 . S
C749 C752 1.499 . S
C750 H730 0.950 . S
C750 C749 1.414 . S
C750 C751 1.374 . S
C751 H731 0.950 . S
C751 C747 1.385 . S
C751 C750 1.374 . S
C752 C749 1.499 . S
C752 C753 1.373 . S
C752 C754 1.389 1_556 S
C753 H732 0.950 . S
C753 C752 1.373 . S
C753 C769 1.377 . S
C754 C752 1.389 1_554 S
C754 C755 1.524 . S
C754 C768 1.377 . S
C755 C754 1.524 . S
C755 C756 1.397 . S
C755 C760 1.363 . S
C756 H733 0.974 . S
C756 C755 1.397 . S
C756 C757 1.334 . S
C757 H734 0.950 . S
C757 C756 1.334 . S
C757 C758 1.287 . S
C758 C757 1.287 . S
C758 C759 1.524 . S
C758 H777 0.913 . S
C759 H735 0.950 . S
C759 C758 1.524 . S
C759 C760 1.415 . S
C760 H736 0.950 . S
C760 C755 1.363 . S
C760 C759 1.415 . S
C761 H737 0.951 . S
C761 C762 1.366 . S
C761 C763 1.388 . S
C762 C761 1.366 . S
C762 C766 1.385 . S
C763 H738 0.951 . S
C763 C761 1.388 . S
C763 C764 1.366 . S
C764 C763 1.366 . S
C764 C765 1.414 . S
C764 C767 1.499 . S
C765 H739 0.950 . S
C765 C764 1.414 . S
C765 C766 1.374 . S
C766 H740 0.950 . S
C766 C762 1.385 . S
C766 C765 1.374 . S
C767 C764 1.499 . S
C767 C768 1.373 . S
C767 C769 1.389 1_554 S
C768 H741 0.950 . S
C768 C754 1.377 . S
C768 C767 1.373 . S
C769 C753 1.377 . S
C769 C767 1.389 1_556 S
C769 C770 1.524 . S
C770 C769 1.524 . S
C770 C771 1.397 . S
C770 C775 1.363 . S
C771 H742 0.950 . S
C771 C770 1.397 . S
C771 C772 1.334 . S
C772 H743 0.950 . S
C772 C771 1.334 . S
C772 C773 1.287 . S
C773 C772 1.287 . S
C773 C774 1.524 . S
C773 H776 0.999 . S
C774 H744 0.950 . S
C774 C773 1.524 . S
C774 C775 1.415 . S
C775 H745 0.950 . S
C775 C770 1.363 . S
C775 C774 1.415 . S
H776 C773 0.999 . S
H777 C758 0.913 . S
H778 C796 0.951 . S
H779 C798 0.951 . S
H780 C800 0.950 . S
H781 C801 0.950 . S
H782 C803 0.950 . S
H783 C806 0.950 . S
H784 C807 0.950 . S
H785 C809 0.950 . S
H786 C810 0.950 . S
H787 C811 0.951 . S
H788 C813 0.951 . S
H789 C815 0.950 . S
H790 C816 0.950 . S
H791 C818 0.950 . S
H792 C821 0.950 . S
H793 C822 0.950 . S
H794 C824 0.950 . S
H795 C825 0.950 . S
C796 H778 0.951 . S
C796 C797 1.366 . S
C796 C798 1.388 . S
C797 C796 1.366 . S
C797 C801 1.385 . S
C798 H779 0.951 . S
C798 C796 1.388 . S
C798 C799 1.366 . S
C799 C798 1.366 . S
C799 C800 1.414 . S
C799 C802 1.499 . S
C800 H780 0.950 . S
C800 C799 1.414 . S
C800 C801 1.374 . S
C801 H781 0.950 . S
C801 C797 1.385 . S
C801 C800 1.374 . S
C802 C799 1.499 . S
C802 C803 1.373 . S
C802 C804 1.337 1_556 S
C803 H782 0.950 . S
C803 C802 1.373 . S
C803 C819 1.377 . S
C804 C802 1.337 1_554 S
C804 C805 1.550 . S
C804 C818 1.409 . S
C805 C804 1.550 . S
C805 C806 1.397 . S
C805 C810 1.363 . S
C806 H783 0.950 . S
C806 C805 1.397 . S
C806 C807 1.334 . S
C807 H784 0.950 . S
C807 C806 1.334 . S
C807 C808 1.287 . S
C808 C807 1.287 . S
C808 C809 1.524 . S
C808 H827 0.913 . S
C809 H785 0.950 . S
C809 C808 1.524 . S
C809 C810 1.415 . S
C810 H786 0.950 . S
C810 C805 1.363 . S
C810 C809 1.415 . S
C811 H787 0.951 . S
C811 C812 1.366 . S
C811 C813 1.388 . S
C812 C811 1.366 . S
C812 C816 1.385 . S
C813 H788 0.951 . S
C813 C811 1.388 . S
C813 C814 1.366 . S
C814 C813 1.366 . S
C814 C815 1.414 . S
C814 C817 1.499 . S
C815 H789 0.950 . S
C815 C814 1.414 . S
C815 C816 1.374 . S
C816 H790 0.950 . S
C816 C812 1.385 . S
C816 C815 1.374 . S
C817 C814 1.499 . S
C817 C818 1.373 . S
C817 C819 1.389 1_554 S
C818 H791 0.950 . S
C818 C804 1.409 . S
C818 C817 1.373 . S
C819 C803 1.377 . S
C819 C817 1.389 1_556 S
C819 C820 1.524 . S
C820 C819 1.524 . S
C820 C821 1.397 . S
C820 C825 1.363 . S
C821 H792 0.950 . S
C821 C820 1.397 . S
C821 C822 1.334 . S
C822 H793 0.950 . S
C822 C821 1.334 . S
C822 C823 1.287 . S
C823 C822 1.287 . S
C823 C824 1.524 . S
C823 H826 0.999 . S
C824 H794 0.950 . S
C824 C823 1.524 . S
C824 C825 1.415 . S
C825 H795 0.950 . S
C825 C820 1.363 . S
C825 C824 1.415 . S
H826 C823 0.999 . S
H827 C808 0.913 . S
H828 C846 0.951 . S
H829 C848 0.951 . S
H830 C850 0.950 . S
H831 C851 0.950 . S
H832 C853 0.950 . S
H833 C856 0.950 . S
H834 C857 0.950 . S
H835 C859 0.950 . S
H836 C860 0.950 . S
H837 C861 0.951 . S
H838 C863 0.951 . S
H839 C865 0.950 . S
H840 C866 0.950 . S
H841 C868 0.950 . S
H842 C871 0.950 . S
H843 C872 0.950 . S
H844 C874 0.950 . S
H845 C875 0.950 . S
C846 H828 0.951 . S
C846 C847 1.366 . S
C846 C848 1.388 . S
C847 C846 1.366 . S
C847 C851 1.385 . S
C848 H829 0.951 . S
C848 C846 1.388 . S
C848 C849 1.366 . S
C849 C848 1.366 . S
C849 C850 1.414 . S
C849 C852 1.499 . S
C850 H830 0.950 . S
C850 C849 1.414 . S
C850 C851 1.374 . S
C851 H831 0.950 . S
C851 C847 1.385 . S
C851 C850 1.374 . S
C852 C849 1.499 . S
C852 C853 1.373 . S
C852 C854 1.389 . S
C853 H832 0.950 . S
C853 C852 1.373 . S
C853 C869 1.377 . S
C854 C852 1.389 . S
C854 C855 1.524 . S
C854 C868 1.377 . S
C855 C854 1.524 . S
C855 C856 1.397 . S
C855 C860 1.363 . S
C856 H833 0.950 . S
C856 C855 1.397 . S
C856 C857 1.334 . S
C857 H834 0.950 . S
C857 C856 1.334 . S
C857 C858 1.287 . S
C858 C857 1.287 . S
C858 C859 1.524 . S
C858 H877 0.913 . S
C859 H835 0.950 . S
C859 C858 1.524 . S
C859 C860 1.415 . S
C860 H836 0.950 . S
C860 C855 1.363 . S
C860 C859 1.415 . S
C861 H837 0.951 . S
C861 C862 1.366 . S
C861 C863 1.388 . S
C862 C861 1.366 . S
C862 C866 1.385 . S
C863 H838 0.951 . S
C863 C861 1.388 . S
C863 C864 1.366 . S
C864 C863 1.366 . S
C864 C865 1.414 . S
C864 C867 1.499 . S
C865 H839 0.950 . S
C865 C864 1.414 . S
C865 C866 1.374 . S
C866 H840 0.950 . S
C866 C862 1.385 . S
C866 C865 1.374 . S
C867 C864 1.499 . S
C867 C868 1.373 . S
C867 C869 1.389 . S
C868 H841 0.950 . S
C868 C854 1.377 . S
C868 C867 1.373 . S
C869 C853 1.377 . S
C869 C867 1.389 . S
C869 C870 1.524 . S
C870 C869 1.524 . S
C870 C871 1.397 . S
C870 C875 1.363 . S
C871 H842 0.950 . S
C871 C870 1.397 . S
C871 C872 1.334 . S
C872 H843 0.950 . S
C872 C871 1.334 . S
C872 C873 1.287 . S
C873 C872 1.287 . S
C873 C874 1.524 . S
C873 H876 0.999 . S
C874 H844 0.950 . S
C874 C873 1.524 . S
C874 C875 1.415 . S
C875 H845 0.950 . S
C875 C870 1.363 . S
C875 C874 1.415 . S
H876 C873 0.999 . S
H877 C858 0.913 . S
H878 C896 0.951 . S
H879 C898 0.951 . S
H880 C900 0.950 . S
H881 C901 0.950 . S
H882 C903 0.950 . S
H883 C906 0.950 . S
H884 C907 0.950 . S
H885 C909 0.950 . S
H886 C910 0.950 . S
H887 C911 0.951 . S
H888 C913 0.951 . S
H889 C915 0.950 . S
H890 C916 0.950 . S
H891 C918 0.950 . S
H892 C921 0.950 . S
H893 C922 0.950 . S
H894 C924 0.950 . S
H895 C925 0.950 . S
C896 H878 0.951 . S
C896 C897 1.366 . S
C896 C898 1.388 . S
C897 C896 1.366 . S
C897 C901 1.385 . S
C898 H879 0.951 . S
C898 C896 1.388 . S
C898 C899 1.366 . S
C899 C898 1.366 . S
C899 C900 1.414 . S
C899 C902 1.499 . S
C900 H880 0.950 . S
C900 C899 1.414 . S
C900 C901 1.374 . S
C901 H881 0.950 . S
C901 C897 1.385 . S
C901 C900 1.374 . S
C902 C899 1.499 . S
C902 C903 1.373 . S
C902 C904 1.389 . S
C903 H882 0.950 . S
C903 C902 1.373 . S
C903 C919 1.377 . S
C904 C902 1.389 . S
C904 C905 1.524 . S
C904 C918 1.377 . S
C905 C904 1.524 . S
C905 C906 1.397 . S
C905 C910 1.363 . S
C906 H883 0.950 . S
C906 C905 1.397 . S
C906 C907 1.334 . S
C907 H884 0.950 . S
C907 C906 1.334 . S
C907 C908 1.287 . S
C908 C907 1.287 . S
C908 C909 1.524 . S
C908 H927 0.913 . S
C909 H885 0.950 . S
C909 C908 1.524 . S
C909 C910 1.415 . S
C910 H886 0.950 . S
C910 C905 1.363 . S
C910 C909 1.415 . S
C911 H887 0.951 . S
C911 C912 1.366 . S
C911 C913 1.388 . S
C912 C911 1.366 . S
C912 C916 1.385 . S
C913 H888 0.951 . S
C913 C911 1.388 . S
C913 C914 1.366 . S
C914 C913 1.366 . S
C914 C915 1.414 . S
C914 C917 1.499 . S
C915 H889 0.950 . S
C915 C914 1.414 . S
C915 C916 1.374 . S
C916 H890 0.950 . S
C916 C912 1.385 . S
C916 C915 1.374 . S
C917 C914 1.499 . S
C917 C918 1.373 . S
C917 C919 1.389 . S
C918 H891 0.950 . S
C918 C904 1.377 . S
C918 C917 1.373 . S
C919 C903 1.377 . S
C919 C917 1.389 . S
C919 C920 1.524 . S
C920 C919 1.524 . S
C920 C921 1.397 . S
C920 C925 1.363 . S
C921 H892 0.950 . S
C921 C920 1.397 . S
C921 C922 1.334 . S
C922 H893 0.950 . S
C922 C921 1.334 . S
C922 C923 1.287 . S
C923 C922 1.287 . S
C923 C924 1.524 . S
C923 H926 0.999 . S
C924 H894 0.950 . S
C924 C923 1.524 . S
C924 C925 1.415 . S
C925 H895 0.950 . S
C925 C920 1.363 . S
C925 C924 1.415 . S
H926 C923 0.999 . S
H927 C908 0.913 . S
H928 C946 0.951 . S
H929 C948 0.951 . S
H930 C950 0.950 . S
H931 C951 0.950 . S
H932 C953 0.950 . S
H933 C956 0.950 . S
H934 C957 0.950 . S
H935 C959 0.950 . S
H936 C960 0.950 . S
H937 C961 0.951 . S
H938 C963 0.951 . S
H939 C965 0.950 . S
H940 C966 0.950 . S
H941 C968 0.961 . S
H942 C971 0.950 . S
H943 C972 0.950 . S
H944 C974 0.950 . S
H945 C975 0.950 1_554 S
C946 H928 0.951 . S
C946 C947 1.366 . S
C946 C948 1.388 . S
C947 C946 1.366 . S
C947 C951 1.385 . S
C948 H929 0.951 . S
C948 C946 1.388 . S
C948 C949 1.366 . S
C949 C948 1.366 . S
C949 C950 1.414 . S
C949 C952 1.499 . S
C950 H930 0.950 . S
C950 C949 1.414 . S
C950 C951 1.374 . S
C951 H931 0.950 . S
C951 C947 1.385 . S
C951 C950 1.374 . S
C952 C949 1.499 . S
C952 C953 1.373 . S
C952 C954 1.389 . S
C953 H932 0.950 . S
C953 C952 1.373 . S
C953 C969 1.377 1_554 S
C954 C952 1.389 . S
C954 C955 1.524 . S
C954 C968 1.377 . S
C955 C954 1.524 . S
C955 C956 1.397 . S
C955 C960 1.363 . S
C956 H933 0.950 . S
C956 C955 1.397 . S
C956 C957 1.334 . S
C957 H934 0.950 . S
C957 C956 1.334 . S
C957 C958 1.287 . S
C958 C957 1.287 . S
C958 C959 1.524 . S
C958 H977 0.913 . S
C959 H935 0.950 . S
C959 C958 1.524 . S
C959 C960 1.415 . S
C960 H936 0.950 . S
C960 C955 1.363 . S
C960 C959 1.415 . S
C961 H937 0.951 . S
C961 C962 1.366 . S
C961 C963 1.388 . S
C962 C961 1.366 . S
C962 C966 1.385 . S
C963 H938 0.951 . S
C963 C961 1.388 . S
C963 C964 1.366 . S
C964 C963 1.366 . S
C964 C965 1.414 . S
C964 C967 1.499 . S
C965 H939 0.950 . S
C965 C964 1.414 . S
C965 C966 1.374 . S
C966 H940 0.950 . S
C966 C962 1.385 . S
C966 C965 1.374 . S
C967 C964 1.499 . S
C967 C968 1.373 1_556 S
C967 C969 1.389 . S
C968 H941 0.961 . S
C968 C954 1.377 . S
C968 C967 1.373 1_554 S
C969 C953 1.377 1_556 S
C969 C967 1.389 . S
C969 C970 1.524 . S
C970 C969 1.524 . S
C970 C971 1.397 . S
C970 C975 1.363 . S
C971 H942 0.950 . S
C971 C970 1.397 . S
C971 C972 1.334 . S
C972 H943 0.950 . S
C972 C971 1.334 . S
C972 C973 1.287 . S
C973 C972 1.287 . S
C973 C974 1.524 . S
C973 H976 0.999 . S
C974 H944 0.950 . S
C974 C973 1.524 . S
C974 C975 1.415 . S
C975 H945 0.950 1_556 S
C975 C970 1.363 . S
C975 C974 1.415 . S
H976 C973 0.999 . S
H977 C958 0.913 . S
H978 C996 0.951 . S
H979 C998 0.951 . S
H980 C1000 0.950 . S
H981 C1001 0.950 . S
H982 C1003 0.948 . S
H983 C1006 0.950 . S
H984 C1007 0.950 . S
H985 C1009 0.950 . S
H986 C1010 0.950 . S
H987 C1011 0.951 . S
H988 C1013 0.951 . S
H989 C1015 0.950 . S
H990 C1016 0.950 . S
H991 C1018 0.950 . S
H992 C1021 0.950 . S
H993 C1022 0.950 . S
H994 C1024 0.950 . S
H995 C1025 0.950 . S
C996 H978 0.951 . S
C996 C997 1.366 . S
C996 C998 1.388 . S
C997 C996 1.366 . S
C997 C1001 1.385 . S
C998 H979 0.951 . S
C998 C996 1.388 . S
C998 C999 1.366 . S
C999 C998 1.366 . S
C999 C1000 1.414 . S
C999 C1002 1.499 . S
C1000 H980 0.950 . S
C1000 C999 1.414 . S
C1000 C1001 1.374 . S
C1001 H981 0.950 . S
C1001 C997 1.385 . S
C1001 C1000 1.374 . S
C1002 C999 1.499 . S
C1002 C1003 1.379 1_554 S
C1002 C1004 1.389 . S
C1003 H982 0.948 . S
C1003 C1002 1.379 1_556 S
C1003 C1019 1.373 . S
C1004 C1002 1.389 . S
C1004 C1005 1.524 . S
C1004 C1018 1.377 . S
C1005 C1004 1.524 . S
C1005 C1006 1.397 . S
C1005 C1010 1.363 . S
C1006 H983 0.950 . S
C1006 C1005 1.397 . S
C1006 C1007 1.334 . S
C1007 H984 0.950 . S
C1007 C1006 1.334 . S
C1007 C1008 1.287 . S
C1008 C1007 1.287 . S
C1008 C1009 1.524 . S
C1008 H1027 0.913 . S
C1009 H985 0.950 . S
C1009 C1008 1.524 . S
C1009 C1010 1.415 . S
C1010 H986 0.950 . S
C1010 C1005 1.363 . S
C1010 C1009 1.415 . S
C1011 H987 0.951 . S
C1011 C1012 1.366 . S
C1011 C1013 1.388 . S
C1012 C1011 1.366 . S
C1012 C1016 1.385 . S
C1013 H988 0.951 . S
C1013 C1011 1.388 . S
C1013 C1014 1.366 . S
C1014 C1013 1.366 . S
C1014 C1015 1.414 . S
C1014 C1017 1.499 . S
C1015 H989 0.950 . S
C1015 C1014 1.414 . S
C1015 C1016 1.374 . S
C1016 H990 0.950 . S
C1016 C1012 1.385 . S
C1016 C1015 1.374 . S
C1017 C1014 1.499 . S
C1017 C1018 1.373 1_556 S
C1017 C1019 1.389 . S
C1018 H991 0.950 . S
C1018 C1004 1.377 . S
C1018 C1017 1.373 1_554 S
C1019 C1003 1.373 . S
C1019 C1017 1.389 . S
C1019 C1020 1.524 . S
C1020 C1019 1.524 . S
C1020 C1021 1.397 . S
C1020 C1025 1.363 . S
C1021 H992 0.950 . S
C1021 C1020 1.397 . S
C1021 C1022 1.334 . S
C1022 H993 0.950 . S
C1022 C1021 1.334 . S
C1022 C1023 1.287 . S
C1023 C1022 1.287 . S
C1023 C1024 1.524 . S
C1023 H1026 0.999 . S
C1024 H994 0.950 . S
C1024 C1023 1.524 . S
C1024 C1025 1.415 . S
C1025 H995 0.950 . S
C1025 C1020 1.363 . S
C1025 C1024 1.415 . S
H1026 C1023 0.999 . S
H1027 C1008 0.913 . S
H1028 C1046 0.951 . S
H1029 C1048 0.951 . S
H1030 C1050 0.950 . S
H1031 C1051 0.950 . S
H1032 C1053 0.950 . S
H1033 C1056 0.950 . S
H1034 C1057 0.950 . S
H1035 C1059 0.950 . S
H1036 C1060 0.950 . S
H1037 C1061 0.951 . S
H1038 C1063 0.951 . S
H1039 C1065 0.950 . S
H1040 C1066 0.950 . S
H1041 C1068 0.950 . S
H1042 C1071 0.950 . S
H1043 C1072 0.950 . S
H1044 C1074 0.950 . S
H1045 C1075 0.950 . S
C1046 H1028 0.951 . S
C1046 C1047 1.366 . S
C1046 C1048 1.388 . S
C1047 C1046 1.366 . S
C1047 C1051 1.385 . S
C1048 H1029 0.951 . S
C1048 C1046 1.388 . S
C1048 C1049 1.366 . S
C1049 C1048 1.366 . S
C1049 C1050 1.414 . S
C1049 C1052 1.499 . S
C1050 H1030 0.950 . S
C1050 C1049 1.414 . S
C1050 C1051 1.374 . S
C1051 H1031 0.950 . S
C1051 C1047 1.385 . S
C1051 C1050 1.374 . S
C1052 C1049 1.499 . S
C1052 C1053 1.373 . S
C1052 C1054 1.389 . S
C1053 H1032 0.950 . S
C1053 C1052 1.373 . S
C1053 C1069 1.377 . S
C1054 C1052 1.389 . S
C1054 C1055 1.524 . S
C1054 C1068 1.377 . S
C1055 C1054 1.524 . S
C1055 C1056 1.397 . S
C1055 C1060 1.363 . S
C1056 H1033 0.950 . S
C1056 C1055 1.397 . S
C1056 C1057 1.334 . S
C1057 H1034 0.950 . S
C1057 C1056 1.334 . S
C1057 C1058 1.287 . S
C1058 C1057 1.287 . S
C1058 C1059 1.524 . S
C1058 H1077 0.913 . S
C1059 H1035 0.950 . S
C1059 C1058 1.524 . S
C1059 C1060 1.415 . S
C1060 H1036 0.950 . S
C1060 C1055 1.363 . S
C1060 C1059 1.415 . S
C1061 H1037 0.951 . S
C1061 C1062 1.366 . S
C1061 C1063 1.388 . S
C1062 C1061 1.366 . S
C1062 C1066 1.385 . S
C1063 H1038 0.951 . S
C1063 C1061 1.388 . S
C1063 C1064 1.366 . S
C1064 C1063 1.366 . S
C1064 C1065 1.414 . S
C1064 C1067 1.499 . S
C1065 H1039 0.950 . S
C1065 C1064 1.414 . S
C1065 C1066 1.374 . S
C1066 H1040 0.950 . S
C1066 C1062 1.385 . S
C1066 C1065 1.374 . S
C1067 C1064 1.499 . S
C1067 C1068 1.373 . S
C1067 C1069 1.389 . S
C1068 H1041 0.950 . S
C1068 C1054 1.377 . S
C1068 C1067 1.373 . S
C1069 C1053 1.377 . S
C1069 C1067 1.389 . S
C1069 C1070 1.524 . S
C1070 C1069 1.524 . S
C1070 C1071 1.397 . S
C1070 C1075 1.363 . S
C1071 H1042 0.950 . S
C1071 C1070 1.397 . S
C1071 C1072 1.334 . S
C1072 H1043 0.950 . S
C1072 C1071 1.334 . S
C1072 C1073 1.287 . S
C1073 C1072 1.287 . S
C1073 C1074 1.524 . S
C1073 H1076 0.999 . S
C1074 H1044 0.950 . S
C1074 C1073 1.524 . S
C1074 C1075 1.415 . S
C1075 H1045 0.950 . S
C1075 C1070 1.363 . S
C1075 C1074 1.415 . S
H1076 C1073 0.999 . S
H1077 C1058 0.913 . S
H1078 C1096 0.951 . S
H1079 C1098 0.951 . S
H1080 C1100 0.950 . S
H1081 C1101 0.950 . S
H1082 C1103 0.950 . S
H1083 C1106 0.950 . S
H1084 C1107 0.950 . S
H1085 C1109 0.950 . S
H1086 C1110 0.950 . S
H1087 C1111 0.951 . S
H1088 C1113 0.951 . S
H1089 C1115 0.950 . S
H1090 C1116 0.950 . S
H1091 C1118 0.950 . S
H1092 C1121 0.950 . S
H1093 C1122 0.950 . S
H1094 C1124 0.950 . S
H1095 C1125 0.950 . S
C1096 H1078 0.951 . S
C1096 C1097 1.366 . S
C1096 C1098 1.388 . S
C1097 C1096 1.366 . S
C1097 C1101 1.385 . S
C1098 H1079 0.951 . S
C1098 C1096 1.388 . S
C1098 C1099 1.366 . S
C1099 C1098 1.366 . S
C1099 C1100 1.414 . S
C1099 C1102 1.499 . S
C1100 H1080 0.950 . S
C1100 C1099 1.414 . S
C1100 C1101 1.374 . S
C1101 H1081 0.950 . S
C1101 C1097 1.385 . S
C1101 C1100 1.374 . S
C1102 C1099 1.499 . S
C1102 C1103 1.373 . S
C1102 C1104 1.389 . S
C1103 H1082 0.950 . S
C1103 C1102 1.373 . S
C1103 C1119 1.377 . S
C1104 C1102 1.389 . S
C1104 C1105 1.524 . S
C1104 C1118 1.377 . S
C1105 C1104 1.524 . S
C1105 C1106 1.397 . S
C1105 C1110 1.363 . S
C1106 H1083 0.950 . S
C1106 C1105 1.397 . S
C1106 C1107 1.334 . S
C1107 H1084 0.950 . S
C1107 C1106 1.334 . S
C1107 C1108 1.287 . S
C1108 C1107 1.287 . S
C1108 C1109 1.524 . S
C1108 H1127 0.913 . S
C1109 H1085 0.950 . S
C1109 C1108 1.524 . S
C1109 C1110 1.415 . S
C1110 H1086 0.950 . S
C1110 C1105 1.363 . S
C1110 C1109 1.415 . S
C1111 H1087 0.951 . S
C1111 C1112 1.366 . S
C1111 C1113 1.388 . S
C1112 C1111 1.366 . S
C1112 C1116 1.385 . S
C1113 H1088 0.951 . S
C1113 C1111 1.388 . S
C1113 C1114 1.366 . S
C1114 C1113 1.366 . S
C1114 C1115 1.414 . S
C1114 C1117 1.499 . S
C1115 H1089 0.950 . S
C1115 C1114 1.414 . S
C1115 C1116 1.374 . S
C1116 H1090 0.950 . S
C1116 C1112 1.385 . S
C1116 C1115 1.374 . S
C1117 C1114 1.499 . S
C1117 C1118 1.373 . S
C1117 C1119 1.389 . S
C1118 H1091 0.950 . S
C1118 C1104 1.377 . S
C1118 C1117 1.373 . S
C1119 C1103 1.377 . S
C1119 C1117 1.389 . S
C1119 C1120 1.524 . S
C1120 C1119 1.524 . S
C1120 C1121 1.397 . S
C1120 C1125 1.363 . S
C1121 H1092 0.950 . S
C1121 C1120 1.397 . S
C1121 C1122 1.334 . S
C1122 H1093 0.950 . S
C1122 C1121 1.334 . S
C1122 C1123 1.287 . S
C1123 C1122 1.287 . S
C1123 C1124 1.524 . S
C1123 H1126 0.999 . S
C1124 H1094 0.950 . S
C1124 C1123 1.524 . S
C1124 C1125 1.415 . S
C1125 H1095 0.950 . S
C1125 C1120 1.363 . S
C1125 C1124 1.415 . S
H1126 C1123 0.999 . S
H1127 C1108 0.913 . S
H1128 C1146 0.951 . S
H1129 C1148 0.951 . S
H1130 C1150 0.950 . S
H1131 C1151 0.950 . S
H1132 C1153 0.952 . S
H1133 C1156 0.950 . S
H1134 C1157 0.950 . S
H1135 C1159 0.950 . S
H1136 C1160 0.950 . S
H1137 C1161 0.951 . S
H1138 C1163 0.951 . S
H1139 C1165 0.950 . S
H1140 C1166 0.950 . S
H1141 C1168 0.950 . S
H1142 C1171 0.950 . S
H1143 C1172 0.950 . S
H1144 C1174 0.950 . S
H1145 C1175 0.950 . S
C1146 H1128 0.951 . S
C1146 C1147 1.366 . S
C1146 C1148 1.388 . S
C1147 C1146 1.366 . S
C1147 C1151 1.385 . S
C1148 H1129 0.951 . S
C1148 C1146 1.388 . S
C1148 C1149 1.366 . S
C1149 C1148 1.366 . S
C1149 C1150 1.414 . S
C1149 C1152 1.499 . S
C1150 H1130 0.950 . S
C1150 C1149 1.414 . S
C1150 C1151 1.374 . S
C1151 H1131 0.950 . S
C1151 C1147 1.385 . S
C1151 C1150 1.374 . S
C1152 C1149 1.499 . S
C1152 C1153 1.368 1_556 S
C1152 C1154 1.389 . S
C1153 H1132 0.952 . S
C1153 C1152 1.368 1_554 S
C1153 C1169 1.380 . S
C1154 C1152 1.389 . S
C1154 C1155 1.524 . S
C1154 C1168 1.377 . S
C1155 C1154 1.524 . S
C1155 C1156 1.397 . S
C1155 C1160 1.363 . S
C1156 H1133 0.950 . S
C1156 C1155 1.397 . S
C1156 C1157 1.334 . S
C1157 H1134 0.950 . S
C1157 C1156 1.334 . S
C1157 C1158 1.287 . S
C1158 C1157 1.287 . S
C1158 C1159 1.524 . S
C1158 H1177 0.913 . S
C1159 H1135 0.950 . S
C1159 C1158 1.524 . S
C1159 C1160 1.415 . S
C1160 H1136 0.950 . S
C1160 C1155 1.363 . S
C1160 C1159 1.415 . S
C1161 H1137 0.951 . S
C1161 C1162 1.366 . S
C1161 C1163 1.388 . S
C1162 C1161 1.366 . S
C1162 C1166 1.385 . S
C1163 H1138 0.951 . S
C1163 C1161 1.388 . S
C1163 C1164 1.366 . S
C1164 C1163 1.366 . S
C1164 C1165 1.414 . S
C1164 C1167 1.499 . S
C1165 H1139 0.950 . S
C1165 C1164 1.414 . S
C1165 C1166 1.374 . S
C1166 H1140 0.950 . S
C1166 C1162 1.385 . S
C1166 C1165 1.374 . S
C1167 C1164 1.499 . S
C1167 C1168 1.373 1_554 S
C1167 C1169 1.389 . S
C1168 H1141 0.950 . S
C1168 C1154 1.377 . S
C1168 C1167 1.373 1_556 S
C1169 C1153 1.380 . S
C1169 C1167 1.389 . S
C1169 C1170 1.524 . S
C1170 C1169 1.524 . S
C1170 C1171 1.397 . S
C1170 C1175 1.363 . S
C1171 H1142 0.950 . S
C1171 C1170 1.397 . S
C1171 C1172 1.334 . S
C1172 H1143 0.950 . S
C1172 C1171 1.334 . S
C1172 C1173 1.287 . S
C1173 C1172 1.287 . S
C1173 C1174 1.524 . S
C1173 H1176 0.999 . S
C1174 H1144 0.950 . S
C1174 C1173 1.524 . S
C1174 C1175 1.415 . S
C1175 H1145 0.950 . S
C1175 C1170 1.363 . S
C1175 C1174 1.415 . S
H1176 C1173 0.999 . S
H1177 C1158 0.913 . S
H1178 C1196 0.951 . S
H1179 C1198 0.951 . S
H1180 C1200 0.950 . S
H1181 C1201 0.950 . S
H1182 C1203 0.941 1_554 S
H1183 C1206 0.950 . S
H1184 C1207 0.950 . S
H1185 C1209 0.950 . S
H1186 C1210 0.950 . S
H1187 C1211 0.951 . S
H1188 C1213 0.951 . S
H1189 C1215 0.980 . S
H1190 C1216 0.950 . S
H1191 C1218 0.950 . S
H1192 C1221 0.950 . S
H1193 C1222 0.950 . S
H1194 C1224 0.950 . S
H1195 C1225 0.950 . S
C1196 H1178 0.951 . S
C1196 C1197 1.366 . S
C1196 C1198 1.388 . S
C1197 C1196 1.366 . S
C1197 C1201 1.385 . S
C1198 H1179 0.951 . S
C1198 C1196 1.388 . S
C1198 C1199 1.366 . S
C1199 C1198 1.366 . S
C1199 C1200 1.414 . S
C1199 C1202 1.499 . S
C1200 H1180 0.950 . S
C1200 C1199 1.414 . S
C1200 C1201 1.374 . S
C1201 H1181 0.950 . S
C1201 C1197 1.385 . S
C1201 C1200 1.374 . S
C1202 C1199 1.499 . S
C1202 C1203 1.399 . S
C1202 C1204 1.389 . S
C1203 H1182 0.941 1_556 S
C1203 C1202 1.399 . S
C1203 C1219 1.360 1_556 S
C1204 C1202 1.389 . S
C1204 C1205 1.524 . S
C1204 C1218 1.377 . S
C1205 C1204 1.524 . S
C1205 C1206 1.397 . S
C1205 C1210 1.363 . S
C1206 H1183 0.950 . S
C1206 C1205 1.397 . S
C1206 C1207 1.334 . S
C1207 H1184 0.950 . S
C1207 C1206 1.334 . S
C1207 C1208 1.287 . S
C1208 C1207 1.287 . S
C1208 C1209 1.524 . S
C1208 H1227 0.913 . S
C1209 H1185 0.950 . S
C1209 C1208 1.524 . S
C1209 C1210 1.415 . S
C1210 H1186 0.950 . S
C1210 C1205 1.363 . S
C1210 C1209 1.415 . S
C1211 H1187 0.951 . S
C1211 C1212 1.366 . S
C1211 C1213 1.388 . S
C1212 C1211 1.366 . S
C1212 C1216 1.385 . S
C1213 H1188 0.951 . S
C1213 C1211 1.388 . S
C1213 C1214 1.366 . S
C1214 C1213 1.366 . S
C1214 C1215 1.414 . S
C1214 C1217 1.499 . S
C1215 H1189 0.980 . S
C1215 C1214 1.414 . S
C1215 C1216 1.374 . S
C1216 H1190 0.950 . S
C1216 C1212 1.385 . S
C1216 C1215 1.374 . S
C1217 C1214 1.499 . S
C1217 C1218 1.373 1_554 S
C1217 C1219 1.389 . S
C1218 H1191 0.950 . S
C1218 C1204 1.377 . S
C1218 C1217 1.373 1_556 S
C1219 C1203 1.360 1_554 S
C1219 C1217 1.389 . S
C1219 C1220 1.524 . S
C1220 C1219 1.524 . S
C1220 C1221 1.397 . S
C1220 C1225 1.363 . S
C1221 H1192 0.950 . S
C1221 C1220 1.397 . S
C1221 C1222 1.334 . S
C1222 H1193 0.950 . S
C1222 C1221 1.334 . S
C1222 C1223 1.287 . S
C1223 C1222 1.287 . S
C1223 C1224 1.524 . S
C1223 H1226 0.999 . S
C1224 H1194 0.950 . S
C1224 C1223 1.524 . S
C1224 C1225 1.415 . S
C1225 H1195 0.950 . S
C1225 C1220 1.363 . S
C1225 C1224 1.415 . S
H1226 C1223 0.999 . S
H1227 C1208 0.913 . S
H1228 C1246 0.951 . S
H1229 C1248 0.951 . S
H1230 C1250 0.950 . S
H1231 C1251 0.950 . S
H1232 C1253 0.950 . S
H1233 C1256 0.950 . S
H1234 C1257 0.950 . S
H1235 C1259 0.950 . S
H1236 C1260 0.950 . S
H1237 C1261 0.951 . S
H1238 C1263 0.951 . S
H1239 C1265 0.950 . S
H1240 C1266 0.950 . S
H1241 C1268 0.950 . S
H1242 C1271 0.950 . S
H1243 C1272 0.950 . S
H1244 C1274 0.950 . S
H1245 C1275 0.950 . S
C1246 H1228 0.951 . S
C1246 C1247 1.366 . S
C1246 C1248 1.388 . S
C1247 C1246 1.366 . S
C1247 C1251 1.385 . S
C1248 H1229 0.951 . S
C1248 C1246 1.388 . S
C1248 C1249 1.366 . S
C1249 C1248 1.366 . S
C1249 C1250 1.414 . S
C1249 C1252 1.499 . S
C1250 H1230 0.950 . S
C1250 C1249 1.414 . S
C1250 C1251 1.374 . S
C1251 H1231 0.950 . S
C1251 C1247 1.385 . S
C1251 C1250 1.374 . S
C1252 C1249 1.499 . S
C1252 C1253 1.373 . S
C1252 C1254 1.389 . S
C1253 H1232 0.950 . S
C1253 C1252 1.373 . S
C1253 C1269 1.377 . S
C1254 C1252 1.389 . S
C1254 C1255 1.524 . S
C1254 C1268 1.377 . S
C1255 C1254 1.524 . S
C1255 C1256 1.397 . S
C1255 C1260 1.363 . S
C1256 H1233 0.950 . S
C1256 C1255 1.397 . S
C1256 C1257 1.334 . S
C1257 H1234 0.950 . S
C1257 C1256 1.334 . S
C1257 C1258 1.287 . S
C1258 C1257 1.287 . S
C1258 C1259 1.524 . S
C1258 H1277 0.913 . S
C1259 H1235 0.950 . S
C1259 C1258 1.524 . S
C1259 C1260 1.415 . S
C1260 H1236 0.950 . S
C1260 C1255 1.363 . S
C1260 C1259 1.415 . S
C1261 H1237 0.951 . S
C1261 C1262 1.366 . S
C1261 C1263 1.388 . S
C1262 C1261 1.366 . S
C1262 C1266 1.385 . S
C1263 H1238 0.951 . S
C1263 C1261 1.388 . S
C1263 C1264 1.366 . S
C1264 C1263 1.366 . S
C1264 C1265 1.414 . S
C1264 C1267 1.499 . S
C1265 H1239 0.950 . S
C1265 C1264 1.414 . S
C1265 C1266 1.374 . S
C1266 H1240 0.950 . S
C1266 C1262 1.385 . S
C1266 C1265 1.374 . S
C1267 C1264 1.499 . S
C1267 C1268 1.373 . S
C1267 C1269 1.389 . S
C1268 H1241 0.950 . S
C1268 C1254 1.377 . S
C1268 C1267 1.373 . S
C1269 C1253 1.377 . S
C1269 C1267 1.389 . S
C1269 C1270 1.524 . S
C1270 C1269 1.524 . S
C1270 C1271 1.397 . S
C1270 C1275 1.363 . S
C1271 H1242 0.950 . S
C1271 C1270 1.397 . S
C1271 C1272 1.334 . S
C1272 H1243 0.950 . S
C1272 C1271 1.334 . S
C1272 C1273 1.287 . S
C1273 C1272 1.287 . S
C1273 C1274 1.524 . S
C1273 H1276 0.999 . S
C1274 H1244 0.950 . S
C1274 C1273 1.524 . S
C1274 C1275 1.415 . S
C1275 H1245 0.950 . S
C1275 C1270 1.363 . S
C1275 C1274 1.415 . S
H1276 C1273 0.999 . S
H1277 C1258 0.913 . S
H1278 C1296 0.951 . S
H1279 C1298 0.951 . S
H1280 C1300 0.950 . S
H1281 C1301 0.950 . S
H1282 C1303 0.950 . S
H1283 C1306 0.950 . S
H1284 C1307 0.950 . S
H1285 C1309 0.950 . S
H1286 C1310 0.950 . S
H1287 C1311 0.951 . S
H1288 C1313 0.951 . S
H1289 C1315 0.950 . S
H1290 C1316 0.950 . S
H1291 C1318 0.950 . S
H1292 C1321 0.950 . S
H1293 C1322 0.950 . S
H1294 C1324 0.950 . S
H1295 C1325 0.950 . S
C1296 H1278 0.951 . S
C1296 C1297 1.366 . S
C1296 C1298 1.388 . S
C1297 C1296 1.366 . S
C1297 C1301 1.385 . S
C1298 H1279 0.951 . S
C1298 C1296 1.388 . S
C1298 C1299 1.366 . S
C1299 C1298 1.366 . S
C1299 C1300 1.414 . S
C1299 C1302 1.499 . S
C1300 H1280 0.950 . S
C1300 C1299 1.414 . S
C1300 C1301 1.374 . S
C1301 H1281 0.950 . S
C1301 C1297 1.385 . S
C1301 C1300 1.374 . S
C1302 C1299 1.499 . S
C1302 C1303 1.373 . S
C1302 C1304 1.389 . S
C1303 H1282 0.950 . S
C1303 C1302 1.373 . S
C1303 C1319 1.377 . S
C1304 C1302 1.389 . S
C1304 C1305 1.524 . S
C1304 C1318 1.377 . S
C1305 C1304 1.524 . S
C1305 C1306 1.397 . S
C1305 C1310 1.363 . S
C1306 H1283 0.950 . S
C1306 C1305 1.397 . S
C1306 C1307 1.334 . S
C1307 H1284 0.950 . S
C1307 C1306 1.334 . S
C1307 C1308 1.287 . S
C1308 C1307 1.287 . S
C1308 C1309 1.524 . S
C1308 H1327 0.913 . S
C1309 H1285 0.950 . S
C1309 C1308 1.524 . S
C1309 C1310 1.415 . S
C1310 H1286 0.950 . S
C1310 C1305 1.363 . S
C1310 C1309 1.415 . S
C1311 H1287 0.951 . S
C1311 C1312 1.366 . S
C1311 C1313 1.388 . S
C1312 C1311 1.366 . S
C1312 C1316 1.385 . S
C1313 H1288 0.951 . S
C1313 C1311 1.388 . S
C1313 C1314 1.366 . S
C1314 C1313 1.366 . S
C1314 C1315 1.414 . S
C1314 C1317 1.499 . S
C1315 H1289 0.950 . S
C1315 C1314 1.414 . S
C1315 C1316 1.374 . S
C1316 H1290 0.950 . S
C1316 C1312 1.385 . S
C1316 C1315 1.374 . S
C1317 C1314 1.499 . S
C1317 C1318 1.373 . S
C1317 C1319 1.389 . S
C1318 H1291 0.950 . S
C1318 C1304 1.377 . S
C1318 C1317 1.373 . S
C1319 C1303 1.377 . S
C1319 C1317 1.389 . S
C1319 C1320 1.524 . S
C1320 C1319 1.524 . S
C1320 C1321 1.397 . S
C1320 C1325 1.363 . S
C1321 H1292 0.950 . S
C1321 C1320 1.397 . S
C1321 C1322 1.334 . S
C1322 H1293 0.950 . S
C1322 C1321 1.334 . S
C1322 C1323 1.287 . S
C1323 C1322 1.287 . S
C1323 C1324 1.524 . S
C1323 H1326 0.999 . S
C1324 H1294 0.950 . S
C1324 C1323 1.524 . S
C1324 C1325 1.415 . S
C1325 H1295 0.950 . S
C1325 C1320 1.363 . S
C1325 C1324 1.415 . S
H1326 C1323 0.999 . S
H1327 C1308 0.913 . S
H1328 C1346 0.951 . S
H1329 C1348 0.951 . S
H1330 C1350 0.950 . S
H1331 C1351 0.950 . S
H1332 C1353 0.950 . S
H1333 C1356 0.950 . S
H1334 C1357 0.950 . S
H1335 C1359 0.950 . S
H1336 C1360 0.950 . S
H1337 C1361 0.951 . S
H1338 C1363 0.951 . S
H1339 C1365 0.950 . S
H1340 C1366 0.950 . S
H1341 C1368 0.950 . S
H1342 C1371 0.950 . S
H1343 C1372 0.950 . S
H1344 C1374 0.950 . S
H1345 C1375 0.950 . S
C1346 H1328 0.951 . S
C1346 C1347 1.366 . S
C1346 C1348 1.388 . S
C1347 C1346 1.366 . S
C1347 C1351 1.385 . S
C1348 H1329 0.951 . S
C1348 C1346 1.388 . S
C1348 C1349 1.366 . S
C1349 C1348 1.366 . S
C1349 C1350 1.414 . S
C1349 C1352 1.499 . S
C1350 H1330 0.950 . S
C1350 C1349 1.414 . S
C1350 C1351 1.374 . S
C1351 H1331 0.950 . S
C1351 C1347 1.385 . S
C1351 C1350 1.374 . S
C1352 C1349 1.499 . S
C1352 C1353 1.373 1_545 S
C1352 C1354 1.389 . S
C1353 H1332 0.950 . S
C1353 C1352 1.373 1_565 S
C1353 C1369 1.377 . S
C1354 C1352 1.389 . S
C1354 C1355 1.524 . S
C1354 C1368 1.377 . S
C1355 C1354 1.524 . S
C1355 C1356 1.397 . S
C1355 C1360 1.363 . S
C1356 H1333 0.950 . S
C1356 C1355 1.397 . S
C1356 C1357 1.334 . S
C1357 H1334 0.950 . S
C1357 C1356 1.334 . S
C1357 C1358 1.287 . S
C1358 C1357 1.287 . S
C1358 C1359 1.524 . S
C1358 H1377 0.913 . S
C1359 H1335 0.950 . S
C1359 C1358 1.524 . S
C1359 C1360 1.415 . S
C1360 H1336 0.950 . S
C1360 C1355 1.363 . S
C1360 C1359 1.415 . S
C1361 H1337 0.951 . S
C1361 C1362 1.366 . S
C1361 C1363 1.388 . S
C1362 C1361 1.366 . S
C1362 C1366 1.385 . S
C1363 H1338 0.951 . S
C1363 C1361 1.388 . S
C1363 C1364 1.366 . S
C1364 C1363 1.366 . S
C1364 C1365 1.414 . S
C1364 C1367 1.499 . S
C1365 H1339 0.950 . S
C1365 C1364 1.414 . S
C1365 C1366 1.374 . S
C1366 H1340 0.950 . S
C1366 C1362 1.385 . S
C1366 C1365 1.374 . S
C1367 C1364 1.499 . S
C1367 C1368 1.373 1_565 S
C1367 C1369 1.389 . S
C1368 H1341 0.950 . S
C1368 C1354 1.377 . S
C1368 C1367 1.373 1_545 S
C1369 C1353 1.377 . S
C1369 C1367 1.389 . S
C1369 C1370 1.524 . S
C1370 C1369 1.524 . S
C1370 C1371 1.397 . S
C1370 C1375 1.363 . S
C1371 H1342 0.950 . S
C1371 C1370 1.397 . S
C1371 C1372 1.334 . S
C1372 H1343 0.950 . S
C1372 C1371 1.334 . S
C1372 C1373 1.287 . S
C1373 C1372 1.287 . S
C1373 C1374 1.524 . S
C1373 H1376 0.999 . S
C1374 H1344 0.950 . S
C1374 C1373 1.524 . S
C1374 C1375 1.415 . S
C1375 H1345 0.950 . S
C1375 C1370 1.363 . S
C1375 C1374 1.415 . S
H1376 C1373 0.999 . S
H1377 C1358 0.913 . S
H1378 C1396 0.951 . S
H1379 C1398 0.951 . S
H1380 C1400 0.950 . S
H1381 C1401 0.950 . S
H1382 C1403 0.950 . S
H1383 C1406 0.950 . S
H1384 C1407 0.979 . S
H1385 C1409 0.950 . S
H1386 C1410 0.950 . S
H1387 C1411 0.951 . S
H1388 C1413 0.951 . S
H1389 C1415 0.950 . S
H1390 C1416 0.950 . S
H1391 C1418 0.950 . S
H1392 C1421 0.950 . S
H1393 C1422 0.979 . S
H1394 C1424 0.950 . S
H1395 C1425 0.950 . S
C1396 H1378 0.951 . S
C1396 C1397 1.366 . S
C1396 C1398 1.388 . S
C1397 C1396 1.366 . S
C1397 C1401 1.385 . S
C1398 H1379 0.951 . S
C1398 C1396 1.388 . S
C1398 C1399 1.366 . S
C1399 C1398 1.366 . S
C1399 C1400 1.414 . S
C1399 C1402 1.499 . S
C1400 H1380 0.950 . S
C1400 C1399 1.414 . S
C1400 C1401 1.374 . S
C1401 H1381 0.950 . S
C1401 C1397 1.385 . S
C1401 C1400 1.374 . S
C1402 C1399 1.499 . S
C1402 C1403 1.373 . S
C1402 C1404 1.389 1_565 S
C1403 H1382 0.950 . S
C1403 C1402 1.373 . S
C1403 C1419 1.377 . S
C1404 C1402 1.389 1_545 S
C1404 C1405 1.524 . S
C1404 C1418 1.377 . S
C1405 C1404 1.524 . S
C1405 C1406 1.397 1_545 S
C1405 C1410 1.363 . S
C1406 H1383 0.950 . S
C1406 C1405 1.397 1_565 S
C1406 C1407 1.343 . S
C1407 H1384 0.979 . S
C1407 C1406 1.343 . S
C1407 C1408 1.250 1_565 S
C1408 C1407 1.250 1_545 S
C1408 C1409 1.524 . S
C1408 H1427 0.913 . S
C1409 H1385 0.950 . S
C1409 C1408 1.524 . S
C1409 C1410 1.415 . S
C1410 H1386 0.950 . S
C1410 C1405 1.363 . S
C1410 C1409 1.415 . S
C1411 H1387 0.951 . S
C1411 C1412 1.366 . S
C1411 C1413 1.388 . S
C1412 C1411 1.366 . S
C1412 C1416 1.385 . S
C1413 H1388 0.951 . S
C1413 C1411 1.388 . S
C1413 C1414 1.366 . S
C1414 C1413 1.366 . S
C1414 C1415 1.414 . S
C1414 C1417 1.499 . S
C1415 H1389 0.950 . S
C1415 C1414 1.414 . S
C1415 C1416 1.374 . S
C1416 H1390 0.950 . S
C1416 C1412 1.385 . S
C1416 C1415 1.374 . S
C1417 C1414 1.499 . S
C1417 C1418 1.373 . S
C1417 C1419 1.389 1_545 S
C1418 H1391 0.950 . S
C1418 C1404 1.377 . S
C1418 C1417 1.373 . S
C1419 C1403 1.377 . S
C1419 C1417 1.389 1_565 S
C1419 C1420 1.524 . S
C1420 C1419 1.524 . S
C1420 C1421 1.397 1_565 S
C1420 C1425 1.363 . S
C1421 H1392 0.950 . S
C1421 C1420 1.397 1_545 S
C1421 C1422 1.343 . S
C1422 H1393 0.979 . S
C1422 C1421 1.343 . S
C1422 C1423 1.250 1_545 S
C1423 C1422 1.250 1_565 S
C1423 C1424 1.524 . S
C1423 H1426 0.999 . S
C1424 H1394 0.950 . S
C1424 C1423 1.524 . S
C1424 C1425 1.415 . S
C1425 H1395 0.950 . S
C1425 C1420 1.363 . S
C1425 C1424 1.415 . S
H1426 C1423 0.999 . S
H1427 C1408 0.913 . S
H1428 C1446 0.951 . S
H1429 C1448 0.951 . S
H1430 C1450 0.950 . S
H1431 C1451 0.950 . S
H1432 C1453 0.950 . S
H1433 C1456 0.950 . S
H1434 C1457 0.950 . S
H1435 C1459 0.950 . S
H1436 C1460 0.950 . S
H1437 C1461 0.951 . S
H1438 C1463 0.951 . S
H1439 C1465 0.950 . S
H1440 C1466 0.950 . S
H1441 C1468 0.950 . S
H1442 C1471 0.950 . S
H1443 C1472 0.950 . S
H1444 C1474 0.950 . S
H1445 C1475 0.950 . S
C1446 H1428 0.951 . S
C1446 C1447 1.366 . S
C1446 C1448 1.388 . S
C1447 C1446 1.366 . S
C1447 C1451 1.385 . S
C1448 H1429 0.951 . S
C1448 C1446 1.388 . S
C1448 C1449 1.366 . S
C1449 C1448 1.366 . S
C1449 C1450 1.414 . S
C1449 C1452 1.499 . S
C1450 H1430 0.950 . S
C1450 C1449 1.414 . S
C1450 C1451 1.374 . S
C1451 H1431 0.950 . S
C1451 C1447 1.385 . S
C1451 C1450 1.374 . S
C1452 C1449 1.499 . S
C1452 C1453 1.373 . S
C1452 C1454 1.389 . S
C1453 H1432 0.950 . S
C1453 C1452 1.373 . S
C1453 C1469 1.377 1_545 S
C1454 C1452 1.389 . S
C1454 C1455 1.524 . S
C1454 C1468 1.377 1_545 S
C1455 C1454 1.524 . S
C1455 C1456 1.397 . S
C1455 C1460 1.363 . S
C1456 H1433 0.950 . S
C1456 C1455 1.397 . S
C1456 C1457 1.334 . S
C1457 H1434 0.950 . S
C1457 C1456 1.334 . S
C1457 C1458 1.287 . S
C1458 C1457 1.287 . S
C1458 C1459 1.524 . S
C1458 H1477 0.913 . S
C1459 H1435 0.950 . S
C1459 C1458 1.524 . S
C1459 C1460 1.415 . S
C1460 H1436 0.950 . S
C1460 C1455 1.363 . S
C1460 C1459 1.415 . S
C1461 H1437 0.951 . S
C1461 C1462 1.366 . S
C1461 C1463 1.388 . S
C1462 C1461 1.366 . S
C1462 C1466 1.385 . S
C1463 H1438 0.951 . S
C1463 C1461 1.388 . S
C1463 C1464 1.366 . S
C1464 C1463 1.366 . S
C1464 C1465 1.414 . S
C1464 C1467 1.499 . S
C1465 H1439 0.950 . S
C1465 C1464 1.414 . S
C1465 C1466 1.374 . S
C1466 H1440 0.950 . S
C1466 C1462 1.385 . S
C1466 C1465 1.374 . S
C1467 C1464 1.499 . S
C1467 C1468 1.373 . S
C1467 C1469 1.389 . S
C1468 H1441 0.950 . S
C1468 C1454 1.377 1_565 S
C1468 C1467 1.373 . S
C1469 C1453 1.377 1_565 S
C1469 C1467 1.389 . S
C1469 C1470 1.524 . S
C1470 C1469 1.524 . S
C1470 C1471 1.397 . S
C1470 C1475 1.363 . S
C1471 H1442 0.950 . S
C1471 C1470 1.397 . S
C1471 C1472 1.334 . S
C1472 H1443 0.950 . S
C1472 C1471 1.334 . S
C1472 C1473 1.287 . S
C1473 C1472 1.287 . S
C1473 C1474 1.524 . S
C1473 H1476 0.999 . S
C1474 H1444 0.950 . S
C1474 C1473 1.524 . S
C1474 C1475 1.415 . S
C1475 H1445 0.950 . S
C1475 C1470 1.363 . S
C1475 C1474 1.415 . S
H1476 C1473 0.999 . S
H1477 C1458 0.913 . S
H1478 C1496 0.951 . S
H1479 C1498 0.951 . S
H1480 C1500 0.950 . S
H1481 C1501 0.950 . S
H1482 C1503 0.950 . S
H1483 C1506 0.950 . S
H1484 C1507 0.950 . S
H1485 C1509 0.950 . S
H1486 C1510 0.950 . S
H1487 C1511 0.951 . S
H1488 C1513 0.951 . S
H1489 C1515 0.950 . S
H1490 C1516 0.950 . S
H1491 C1518 0.950 . S
H1492 C1521 0.950 . S
H1493 C1522 0.950 . S
H1494 C1524 0.950 . S
H1495 C1525 0.950 . S
C1496 H1478 0.951 . S
C1496 C1497 1.366 . S
C1496 C1498 1.388 . S
C1497 C1496 1.366 . S
C1497 C1501 1.385 . S
C1498 H1479 0.951 . S
C1498 C1496 1.388 . S
C1498 C1499 1.366 . S
C1499 C1498 1.366 . S
C1499 C1500 1.414 . S
C1499 C1502 1.499 . S
C1500 H1480 0.950 . S
C1500 C1499 1.414 . S
C1500 C1501 1.374 . S
C1501 H1481 0.950 . S
C1501 C1497 1.385 . S
C1501 C1500 1.374 . S
C1502 C1499 1.499 . S
C1502 C1503 1.365 1_565 S
C1502 C1504 1.389 . S
C1503 H1482 0.950 . S
C1503 C1502 1.365 1_545 S
C1503 C1519 1.384 . S
C1504 C1502 1.389 . S
C1504 C1505 1.524 . S
C1504 C1518 1.384 . S
C1505 C1504 1.524 . S
C1505 C1506 1.397 . S
C1505 C1510 1.363 . S
C1506 H1483 0.950 . S
C1506 C1505 1.397 . S
C1506 C1507 1.334 . S
C1507 H1484 0.950 . S
C1507 C1506 1.334 . S
C1507 C1508 1.287 . S
C1508 C1507 1.287 . S
C1508 C1509 1.524 . S
C1508 H1527 0.913 . S
C1509 H1485 0.950 . S
C1509 C1508 1.524 . S
C1509 C1510 1.415 . S
C1510 H1486 0.950 . S
C1510 C1505 1.363 . S
C1510 C1509 1.415 . S
C1511 H1487 0.951 . S
C1511 C1512 1.366 . S
C1511 C1513 1.388 . S
C1512 C1511 1.366 . S
C1512 C1516 1.385 . S
C1513 H1488 0.951 . S
C1513 C1511 1.388 . S
C1513 C1514 1.366 . S
C1514 C1513 1.366 . S
C1514 C1515 1.414 . S
C1514 C1517 1.499 . S
C1515 H1489 0.950 . S
C1515 C1514 1.414 . S
C1515 C1516 1.374 . S
C1516 H1490 0.950 . S
C1516 C1512 1.385 . S
C1516 C1515 1.374 . S
C1517 C1514 1.499 . S
C1517 C1518 1.365 1_545 S
C1517 C1519 1.389 . S
C1518 H1491 0.950 . S
C1518 C1504 1.384 . S
C1518 C1517 1.365 1_565 S
C1519 C1503 1.384 . S
C1519 C1517 1.389 . S
C1519 C1520 1.524 . S
C1520 C1519 1.524 . S
C1520 C1521 1.397 . S
C1520 C1525 1.363 . S
C1521 H1492 0.950 . S
C1521 C1520 1.397 . S
C1521 C1522 1.334 . S
C1522 H1493 0.950 . S
C1522 C1521 1.334 . S
C1522 C1523 1.287 . S
C1523 C1522 1.287 . S
C1523 C1524 1.524 . S
C1523 H1526 0.999 . S
C1524 H1494 0.950 . S
C1524 C1523 1.524 . S
C1524 C1525 1.415 . S
C1525 H1495 0.950 . S
C1525 C1520 1.363 . S
C1525 C1524 1.415 . S
H1526 C1523 0.999 . S
H1527 C1508 0.913 . S
H1528 C1546 0.951 . S
H1529 C1548 0.951 . S
H1530 C1550 0.950 . S
H1531 C1551 0.950 . S
H1532 C1553 0.950 . S
H1533 C1556 0.950 . S
H1534 C1557 0.950 . S
H1535 C1559 0.950 . S
H1536 C1560 0.950 . S
H1537 C1561 0.951 . S
H1538 C1563 0.951 . S
H1539 C1565 0.950 . S
H1540 C1566 0.950 . S
H1541 C1568 0.950 . S
H1542 C1571 0.950 . S
H1543 C1572 0.950 . S
H1544 C1574 0.950 . S
H1545 C1575 0.950 . S
C1546 H1528 0.951 . S
C1546 C1547 1.366 . S
C1546 C1548 1.388 . S
C1547 C1546 1.366 . S
C1547 C1551 1.385 . S
C1548 H1529 0.951 . S
C1548 C1546 1.388 . S
C1548 C1549 1.366 . S
C1549 C1548 1.366 . S
C1549 C1550 1.414 . S
C1549 C1552 1.499 . S
C1550 H1530 0.950 . S
C1550 C1549 1.414 . S
C1550 C1551 1.374 . S
C1551 H1531 0.950 . S
C1551 C1547 1.385 . S
C1551 C1550 1.374 . S
C1552 C1549 1.499 . S
C1552 C1553 1.373 . S
C1552 C1554 1.389 . S
C1553 H1532 0.950 . S
C1553 C1552 1.373 . S
C1553 C1569 1.377 . S
C1554 C1552 1.389 . S
C1554 C1555 1.524 . S
C1554 C1568 1.377 . S
C1555 C1554 1.524 . S
C1555 C1556 1.397 . S
C1555 C1560 1.363 . S
C1556 H1533 0.950 . S
C1556 C1555 1.397 . S
C1556 C1557 1.334 . S
C1557 H1534 0.950 . S
C1557 C1556 1.334 . S
C1557 C1558 1.287 . S
C1558 C1557 1.287 . S
C1558 C1559 1.524 . S
C1558 H1577 0.913 . S
C1559 H1535 0.950 . S
C1559 C1558 1.524 . S
C1559 C1560 1.415 . S
C1560 H1536 0.950 . S
C1560 C1555 1.363 . S
C1560 C1559 1.415 . S
C1561 H1537 0.951 . S
C1561 C1562 1.366 . S
C1561 C1563 1.388 . S
C1562 C1561 1.366 . S
C1562 C1566 1.385 . S
C1563 H1538 0.951 . S
C1563 C1561 1.388 . S
C1563 C1564 1.366 . S
C1564 C1563 1.366 . S
C1564 C1565 1.414 . S
C1564 C1567 1.499 . S
C1565 H1539 0.950 . S
C1565 C1564 1.414 . S
C1565 C1566 1.374 . S
C1566 H1540 0.950 . S
C1566 C1562 1.385 . S
C1566 C1565 1.374 . S
C1567 C1564 1.499 . S
C1567 C1568 1.373 . S
C1567 C1569 1.389 . S
C1568 H1541 0.950 . S
C1568 C1554 1.377 . S
C1568 C1567 1.373 . S
C1569 C1553 1.377 . S
C1569 C1567 1.389 . S
C1569 C1570 1.524 . S
C1570 C1569 1.524 . S
C1570 C1571 1.397 . S
C1570 C1575 1.363 . S
C1571 H1542 0.950 . S
C1571 C1570 1.397 . S
C1571 C1572 1.334 . S
C1572 H1543 0.950 . S
C1572 C1571 1.334 . S
C1572 C1573 1.287 . S
C1573 C1572 1.287 . S
C1573 C1574 1.524 . S
C1573 H1576 0.999 . S
C1574 H1544 0.950 . S
C1574 C1573 1.524 . S
C1574 C1575 1.415 . S
C1575 H1545 0.950 . S
C1575 C1570 1.363 . S
C1575 C1574 1.415 . S
H1576 C1573 0.999 . S
H1577 C1558 0.913 . S
H1578 C1596 0.951 . S
H1579 C1598 0.951 . S
H1580 C1600 0.950 . S
H1581 C1601 0.950 . S
H1582 C1603 0.950 . S
H1583 C1606 0.950 . S
H1584 C1607 0.950 . S
H1585 C1609 0.950 . S
H1586 C1610 0.950 . S
H1587 C1611 0.951 . S
H1588 C1613 0.951 . S
H1589 C1615 0.950 . S
H1590 C1616 0.950 . S
H1591 C1618 0.950 . S
H1592 C1621 0.950 . S
H1593 C1622 0.950 . S
H1594 C1624 0.950 . S
H1595 C1625 0.950 . S
C1596 H1578 0.951 . S
C1596 C1597 1.366 . S
C1596 C1598 1.388 . S
C1597 C1596 1.366 . S
C1597 C1601 1.385 . S
C1598 H1579 0.951 . S
C1598 C1596 1.388 . S
C1598 C1599 1.366 . S
C1599 C1598 1.366 . S
C1599 C1600 1.414 . S
C1599 C1602 1.499 . S
C1600 H1580 0.950 . S
C1600 C1599 1.414 . S
C1600 C1601 1.374 . S
C1601 H1581 0.950 . S
C1601 C1597 1.385 . S
C1601 C1600 1.374 . S
C1602 C1599 1.499 . S
C1602 C1603 1.373 . S
C1602 C1604 1.389 . S
C1603 H1582 0.950 . S
C1603 C1602 1.373 . S
C1603 C1619 1.377 . S
C1604 C1602 1.389 . S
C1604 C1605 1.524 . S
C1604 C1618 1.377 . S
C1605 C1604 1.524 . S
C1605 C1606 1.397 . S
C1605 C1610 1.363 . S
C1606 H1583 0.950 . S
C1606 C1605 1.397 . S
C1606 C1607 1.334 . S
C1607 H1584 0.950 . S
C1607 C1606 1.334 . S
C1607 C1608 1.287 . S
C1608 C1607 1.287 . S
C1608 C1609 1.524 . S
C1608 H1627 0.913 . S
C1609 H1585 0.950 . S
C1609 C1608 1.524 . S
C1609 C1610 1.415 . S
C1610 H1586 0.950 . S
C1610 C1605 1.363 . S
C1610 C1609 1.415 . S
C1611 H1587 0.951 . S
C1611 C1612 1.366 . S
C1611 C1613 1.388 . S
C1612 C1611 1.366 . S
C1612 C1616 1.385 . S
C1613 H1588 0.951 . S
C1613 C1611 1.388 . S
C1613 C1614 1.366 . S
C1614 C1613 1.366 . S
C1614 C1615 1.414 . S
C1614 C1617 1.499 . S
C1615 H1589 0.950 . S
C1615 C1614 1.414 . S
C1615 C1616 1.374 . S
C1616 H1590 0.950 . S
C1616 C1612 1.385 . S
C1616 C1615 1.374 . S
C1617 C1614 1.499 . S
C1617 C1618 1.373 . S
C1617 C1619 1.389 . S
C1618 H1591 0.950 . S
C1618 C1604 1.377 . S
C1618 C1617 1.373 . S
C1619 C1603 1.377 . S
C1619 C1617 1.389 . S
C1619 C1620 1.524 . S
C1620 C1619 1.524 . S
C1620 C1621 1.397 . S
C1620 C1625 1.363 . S
C1621 H1592 0.950 . S
C1621 C1620 1.397 . S
C1621 C1622 1.334 . S
C1622 H1593 0.950 . S
C1622 C1621 1.334 . S
C1622 C1623 1.287 . S
C1623 C1622 1.287 . S
C1623 C1624 1.524 . S
C1623 H1626 0.999 . S
C1624 H1594 0.950 . S
C1624 C1623 1.524 . S
C1624 C1625 1.415 . S
C1625 H1595 0.950 . S
C1625 C1620 1.363 . S
C1625 C1624 1.415 . S
H1626 C1623 0.999 . S
H1627 C1608 0.913 . S
H1628 C1646 0.951 . S
H1629 C1648 0.951 . S
H1630 C1650 0.950 . S
H1631 C1651 0.950 . S
H1632 C1653 0.950 . S
H1633 C1656 0.950 . S
H1634 C1657 0.950 . S
H1635 C1659 0.950 . S
H1636 C1660 0.950 . S
H1637 C1661 0.951 . S
H1638 C1663 0.951 . S
H1639 C1665 0.950 . S
H1640 C1666 0.950 . S
H1641 C1668 0.950 . S
H1642 C1671 0.950 . S
H1643 C1672 0.950 . S
H1644 C1674 0.950 . S
H1645 C1675 0.950 . S
C1646 H1628 0.951 . S
C1646 C1647 1.366 . S
C1646 C1648 1.388 . S
C1647 C1646 1.366 . S
C1647 C1651 1.385 . S
C1648 H1629 0.951 . S
C1648 C1646 1.388 . S
C1648 C1649 1.366 . S
C1649 C1648 1.366 . S
C1649 C1650 1.414 . S
C1649 C1652 1.499 . S
C1650 H1630 0.950 . S
C1650 C1649 1.414 . S
C1650 C1651 1.374 . S
C1651 H1631 0.950 . S
C1651 C1647 1.385 . S
C1651 C1650 1.374 . S
C1652 C1649 1.499 . S
C1652 C1653 1.373 . S
C1652 C1654 1.389 . S
C1653 H1632 0.950 . S
C1653 C1652 1.373 . S
C1653 C1669 1.377 . S
C1654 C1652 1.389 . S
C1654 C1655 1.524 . S
C1654 C1668 1.377 . S
C1655 C1654 1.524 . S
C1655 C1656 1.397 . S
C1655 C1660 1.363 . S
C1656 H1633 0.950 . S
C1656 C1655 1.397 . S
C1656 C1657 1.334 . S
C1657 H1634 0.950 . S
C1657 C1656 1.334 . S
C1657 C1658 1.287 . S
C1658 C1657 1.287 . S
C1658 C1659 1.524 . S
C1658 H1677 0.913 . S
C1659 H1635 0.950 . S
C1659 C1658 1.524 . S
C1659 C1660 1.415 . S
C1660 H1636 0.950 . S
C1660 C1655 1.363 . S
C1660 C1659 1.415 . S
C1661 H1637 0.951 . S
C1661 C1662 1.366 . S
C1661 C1663 1.388 . S
C1662 C1661 1.366 . S
C1662 C1666 1.385 . S
C1663 H1638 0.951 . S
C1663 C1661 1.388 . S
C1663 C1664 1.366 . S
C1664 C1663 1.366 . S
C1664 C1665 1.414 . S
C1664 C1667 1.499 . S
C1665 H1639 0.950 . S
C1665 C1664 1.414 . S
C1665 C1666 1.374 . S
C1666 H1640 0.950 . S
C1666 C1662 1.385 . S
C1666 C1665 1.374 . S
C1667 C1664 1.499 . S
C1667 C1668 1.373 . S
C1667 C1669 1.389 . S
C1668 H1641 0.950 . S
C1668 C1654 1.377 . S
C1668 C1667 1.373 . S
C1669 C1653 1.377 . S
C1669 C1667 1.389 . S
C1669 C1670 1.524 . S
C1670 C1669 1.524 . S
C1670 C1671 1.397 . S
C1670 C1675 1.363 . S
C1671 H1642 0.950 . S
C1671 C1670 1.397 . S
C1671 C1672 1.334 . S
C1672 H1643 0.950 . S
C1672 C1671 1.334 . S
C1672 C1673 1.287 . S
C1673 C1672 1.287 . S
C1673 C1674 1.524 . S
C1673 H1676 0.999 . S
C1674 H1644 0.950 . S
C1674 C1673 1.524 . S
C1674 C1675 1.415 . S
C1675 H1645 0.950 . S
C1675 C1670 1.363 . S
C1675 C1674 1.415 . S
H1676 C1673 0.999 . S
H1677 C1658 0.913 . S
H1678 C1696 0.951 . S
H1679 C1698 0.951 . S
H1680 C1700 0.950 . S
H1681 C1701 0.950 . S
H1682 C1703 0.950 . S
H1683 C1706 0.950 . S
H1684 C1707 0.950 . S
H1685 C1709 0.950 . S
H1686 C1710 0.950 . S
H1687 C1711 0.951 . S
H1688 C1713 0.951 . S
H1689 C1715 0.950 . S
H1690 C1716 0.950 . S
H1691 C1718 0.950 . S
H1692 C1721 0.950 . S
H1693 C1722 0.950 . S
H1694 C1724 0.950 . S
H1695 C1725 0.950 . S
C1696 H1678 0.951 . S
C1696 C1697 1.366 . S
C1696 C1698 1.388 . S
C1697 C1696 1.366 . S
C1697 C1701 1.385 . S
C1698 H1679 0.951 . S
C1698 C1696 1.388 . S
C1698 C1699 1.366 . S
C1699 C1698 1.366 . S
C1699 C1700 1.414 . S
C1699 C1702 1.499 . S
C1700 H1680 0.950 . S
C1700 C1699 1.414 . S
C1700 C1701 1.374 . S
C1701 H1681 0.950 . S
C1701 C1697 1.385 . S
C1701 C1700 1.374 . S
C1702 C1699 1.499 . S
C1702 C1703 1.373 . S
C1702 C1704 1.389 . S
C1703 H1682 0.950 . S
C1703 C1702 1.373 . S
C1703 C1719 1.377 . S
C1704 C1702 1.389 . S
C1704 C1705 1.524 . S
C1704 C1718 1.377 . S
C1705 C1704 1.524 . S
C1705 C1706 1.397 . S
C1705 C1710 1.363 . S
C1706 H1683 0.950 . S
C1706 C1705 1.397 . S
C1706 C1707 1.334 . S
C1707 H1684 0.950 . S
C1707 C1706 1.334 . S
C1707 C1708 1.287 . S
C1708 C1707 1.287 . S
C1708 C1709 1.524 . S
C1708 H1727 0.913 . S
C1709 H1685 0.950 . S
C1709 C1708 1.524 . S
C1709 C1710 1.415 . S
C1710 H1686 0.950 . S
C1710 C1705 1.363 . S
C1710 C1709 1.415 . S
C1711 H1687 0.951 . S
C1711 C1712 1.366 . S
C1711 C1713 1.388 . S
C1712 C1711 1.366 . S
C1712 C1716 1.385 . S
C1713 H1688 0.951 . S
C1713 C1711 1.388 . S
C1713 C1714 1.366 . S
C1714 C1713 1.366 . S
C1714 C1715 1.414 . S
C1714 C1717 1.499 . S
C1715 H1689 0.950 . S
C1715 C1714 1.414 . S
C1715 C1716 1.374 . S
C1716 H1690 0.950 . S
C1716 C1712 1.385 . S
C1716 C1715 1.374 . S
C1717 C1714 1.499 . S
C1717 C1718 1.373 . S
C1717 C1719 1.389 . S
C1718 H1691 0.950 . S
C1718 C1704 1.377 . S
C1718 C1717 1.373 . S
C1719 C1703 1.377 . S
C1719 C1717 1.389 . S
C1719 C1720 1.524 . S
C1720 C1719 1.524 . S
C1720 C1721 1.397 . S
C1720 C1725 1.363 . S
C1721 H1692 0.950 . S
C1721 C1720 1.397 . S
C1721 C1722 1.334 . S
C1722 H1693 0.950 . S
C1722 C1721 1.334 . S
C1722 C1723 1.287 . S
C1723 C1722 1.287 . S
C1723 C1724 1.524 . S
C1723 H1726 0.999 . S
C1724 H1694 0.950 . S
C1724 C1723 1.524 . S
C1724 C1725 1.415 . S
C1725 H1695 0.950 . S
C1725 C1720 1.363 . S
C1725 C1724 1.415 . S
H1726 C1723 0.999 . S
H1727 C1708 0.913 . S
H1728 C1746 0.970 . S
H1729 C1748 0.951 . S
H1730 C1750 0.950 . S
H1731 C1751 0.950 . S
H1732 C1753 0.950 . S
H1733 C1756 0.950 . S
H1734 C1757 0.950 1_655 S
H1735 C1759 0.950 . S
H1736 C1760 0.950 . S
H1737 C1761 0.970 . S
H1738 C1763 0.951 . S
H1739 C1765 0.950 . S
H1740 C1766 0.950 . S
H1741 C1768 0.950 . S
H1742 C1771 0.950 . S
H1743 C1772 0.950 1_455 S
H1744 C1774 0.950 . S
H1745 C1775 0.950 . S
C1746 H1728 0.970 . S
C1746 C1747 1.341 1_455 S
C1746 C1748 1.394 . S
C1747 C1746 1.341 1_655 S
C1747 C1751 1.385 . S
C1748 H1729 0.951 . S
C1748 C1746 1.394 . S
C1748 C1749 1.366 1_455 S
C1749 C1748 1.366 1_655 S
C1749 C1750 1.414 . S
C1749 C1752 1.499 . S
C1750 H1730 0.950 . S
C1750 C1749 1.414 . S
C1750 C1751 1.374 . S
C1751 H1731 0.950 . S
C1751 C1747 1.385 . S
C1751 C1750 1.374 . S
C1752 C1749 1.499 . S
C1752 C1753 1.373 . S
C1752 C1754 1.389 1_655 S
C1753 H1732 0.950 . S
C1753 C1752 1.373 . S
C1753 C1769 1.377 . S
C1754 C1752 1.389 1_455 S
C1754 C1755 1.524 . S
C1754 C1768 1.377 . S
C1755 C1754 1.524 . S
C1755 C1756 1.397 1_455 S
C1755 C1760 1.363 . S
C1756 H1733 0.950 . S
C1756 C1755 1.397 1_655 S
C1756 C1757 1.334 1_655 S
C1757 H1734 0.950 1_455 S
C1757 C1756 1.334 1_455 S
C1757 C1758 1.287 . S
C1758 C1757 1.287 . S
C1758 C1759 1.524 . S
C1758 H1777 0.913 . S
C1759 H1735 0.950 . S
C1759 C1758 1.524 . S
C1759 C1760 1.415 . S
C1760 H1736 0.950 . S
C1760 C1755 1.363 . S
C1760 C1759 1.415 . S
C1761 H1737 0.970 . S
C1761 C1762 1.341 1_655 S
C1761 C1763 1.394 . S
C1762 C1761 1.341 1_455 S
C1762 C1766 1.385 . S
C1763 H1738 0.951 . S
C1763 C1761 1.394 . S
C1763 C1764 1.366 1_655 S
C1764 C1763 1.366 1_455 S
C1764 C1765 1.414 . S
C1764 C1767 1.499 . S
C1765 H1739 0.950 . S
C1765 C1764 1.414 . S
C1765 C1766 1.374 . S
C1766 H1740 0.950 . S
C1766 C1762 1.385 . S
C1766 C1765 1.374 . S
C1767 C1764 1.499 . S
C1767 C1768 1.373 . S
C1767 C1769 1.389 1_455 S
C1768 H1741 0.950 . S
C1768 C1754 1.377 . S
C1768 C1767 1.373 . S
C1769 C1753 1.377 . S
C1769 C1767 1.389 1_655 S
C1769 C1770 1.524 . S
C1770 C1769 1.524 . S
C1770 C1771 1.397 1_655 S
C1770 C1775 1.363 . S
C1771 H1742 0.950 . S
C1771 C1770 1.397 1_455 S
C1771 C1772 1.334 1_455 S
C1772 H1743 0.950 1_655 S
C1772 C1771 1.334 1_655 S
C1772 C1773 1.287 . S
C1773 C1772 1.287 . S
C1773 C1774 1.524 . S
C1773 H1776 0.999 . S
C1774 H1744 0.950 . S
C1774 C1773 1.524 . S
C1774 C1775 1.415 . S
C1775 H1745 0.950 . S
C1775 C1770 1.363 . S
C1775 C1774 1.415 . S
H1776 C1773 0.999 . S
H1777 C1758 0.913 . S
H1778 C1796 0.951 . S
H1779 C1798 0.951 . S
H1780 C1800 0.950 . S
H1781 C1801 0.950 . S
H1782 C1803 0.950 . S
H1783 C1806 0.950 . S
H1784 C1807 0.950 . S
H1785 C1809 0.950 . S
H1786 C1810 0.950 . S
H1787 C1811 0.951 . S
H1788 C1813 0.951 . S
H1789 C1815 0.950 . S
H1790 C1816 0.950 . S
H1791 C1818 0.950 . S
H1792 C1821 0.950 . S
H1793 C1822 0.950 . S
H1794 C1824 0.950 . S
H1795 C1825 0.950 . S
C1796 H1778 0.951 . S
C1796 C1797 1.366 . S
C1796 C1798 1.388 . S
C1797 C1796 1.366 . S
C1797 C1801 1.385 . S
C1798 H1779 0.951 . S
C1798 C1796 1.388 . S
C1798 C1799 1.366 . S
C1799 C1798 1.366 . S
C1799 C1800 1.414 . S
C1799 C1802 1.499 . S
C1800 H1780 0.950 . S
C1800 C1799 1.414 . S
C1800 C1801 1.374 . S
C1801 H1781 0.950 . S
C1801 C1797 1.385 . S
C1801 C1800 1.374 . S
C1802 C1799 1.499 . S
C1802 C1803 1.373 . S
C1802 C1804 1.389 . S
C1803 H1782 0.950 . S
C1803 C1802 1.373 . S
C1803 C1819 1.377 . S
C1804 C1802 1.389 . S
C1804 C1805 1.524 . S
C1804 C1818 1.377 . S
C1805 C1804 1.524 . S
C1805 C1806 1.397 . S
C1805 C1810 1.363 . S
C1806 H1783 0.950 . S
C1806 C1805 1.397 . S
C1806 C1807 1.334 . S
C1807 H1784 0.950 . S
C1807 C1806 1.334 . S
C1807 C1808 1.287 . S
C1808 C1807 1.287 . S
C1808 C1809 1.524 . S
C1808 H1827 0.913 . S
C1809 H1785 0.950 . S
C1809 C1808 1.524 . S
C1809 C1810 1.415 . S
C1810 H1786 0.950 . S
C1810 C1805 1.363 . S
C1810 C1809 1.415 . S
C1811 H1787 0.951 . S
C1811 C1812 1.366 . S
C1811 C1813 1.388 . S
C1812 C1811 1.366 . S
C1812 C1816 1.385 . S
C1813 H1788 0.951 . S
C1813 C1811 1.388 . S
C1813 C1814 1.366 . S
C1814 C1813 1.366 . S
C1814 C1815 1.414 . S
C1814 C1817 1.499 . S
C1815 H1789 0.950 . S
C1815 C1814 1.414 . S
C1815 C1816 1.374 . S
C1816 H1790 0.950 . S
C1816 C1812 1.385 . S
C1816 C1815 1.374 . S
C1817 C1814 1.499 . S
C1817 C1818 1.373 . S
C1817 C1819 1.389 . S
C1818 H1791 0.950 . S
C1818 C1804 1.377 . S
C1818 C1817 1.373 . S
C1819 C1803 1.377 . S
C1819 C1817 1.389 . S
C1819 C1820 1.524 . S
C1820 C1819 1.524 . S
C1820 C1821 1.397 . S
C1820 C1825 1.363 . S
C1821 H1792 0.950 . S
C1821 C1820 1.397 . S
C1821 C1822 1.334 . S
C1822 H1793 0.950 . S
C1822 C1821 1.334 . S
C1822 C1823 1.287 . S
C1823 C1822 1.287 . S
C1823 C1824 1.524 . S
C1823 H1826 0.999 . S
C1824 H1794 0.950 . S
C1824 C1823 1.524 . S
C1824 C1825 1.415 . S
C1825 H1795 0.950 . S
C1825 C1820 1.363 . S
C1825 C1824 1.415 . S
H1826 C1823 0.999 . S
H1827 C1808 0.913 . S
H1828 C1846 0.951 . S
H1829 C1848 0.951 . S
H1830 C1850 0.950 . S
H1831 C1851 0.950 . S
H1832 C1853 0.950 . S
H1833 C1856 0.950 . S
H1834 C1857 0.950 . S
H1835 C1859 0.950 . S
H1836 C1860 0.950 . S
H1837 C1861 0.951 . S
H1838 C1863 0.951 . S
H1839 C1865 0.950 . S
H1840 C1866 0.950 . S
H1841 C1868 0.950 . S
H1842 C1871 0.950 . S
H1843 C1872 0.950 . S
H1844 C1874 0.950 . S
H1845 C1875 0.950 . S
C1846 H1828 0.951 . S
C1846 C1847 1.366 . S
C1846 C1848 1.388 . S
C1847 C1846 1.366 . S
C1847 C1851 1.385 . S
C1848 H1829 0.951 . S
C1848 C1846 1.388 . S
C1848 C1849 1.366 . S
C1849 C1848 1.366 . S
C1849 C1850 1.414 . S
C1849 C1852 1.499 . S
C1850 H1830 0.950 . S
C1850 C1849 1.414 . S
C1850 C1851 1.374 . S
C1851 H1831 0.950 . S
C1851 C1847 1.385 . S
C1851 C1850 1.374 . S
C1852 C1849 1.499 . S
C1852 C1853 1.373 . S
C1852 C1854 1.389 . S
C1853 H1832 0.950 . S
C1853 C1852 1.373 . S
C1853 C1869 1.377 . S
C1854 C1852 1.389 . S
C1854 C1855 1.524 . S
C1854 C1868 1.377 . S
C1855 C1854 1.524 . S
C1855 C1856 1.397 . S
C1855 C1860 1.363 . S
C1856 H1833 0.950 . S
C1856 C1855 1.397 . S
C1856 C1857 1.334 . S
C1857 H1834 0.950 . S
C1857 C1856 1.334 . S
C1857 C1858 1.287 . S
C1858 C1857 1.287 . S
C1858 C1859 1.524 . S
C1858 H1877 0.913 . S
C1859 H1835 0.950 . S
C1859 C1858 1.524 . S
C1859 C1860 1.415 . S
C1860 H1836 0.950 . S
C1860 C1855 1.363 . S
C1860 C1859 1.415 . S
C1861 H1837 0.951 . S
C1861 C1862 1.366 . S
C1861 C1863 1.388 . S
C1862 C1861 1.366 . S
C1862 C1866 1.385 . S
C1863 H1838 0.951 . S
C1863 C1861 1.388 . S
C1863 C1864 1.366 . S
C1864 C1863 1.366 . S
C1864 C1865 1.414 . S
C1864 C1867 1.499 . S
C1865 H1839 0.950 . S
C1865 C1864 1.414 . S
C1865 C1866 1.374 . S
C1866 H1840 0.950 . S
C1866 C1862 1.385 . S
C1866 C1865 1.374 . S
C1867 C1864 1.499 . S
C1867 C1868 1.373 . S
C1867 C1869 1.389 . S
C1868 H1841 0.950 . S
C1868 C1854 1.377 . S
C1868 C1867 1.373 . S
C1869 C1853 1.377 . S
C1869 C1867 1.389 . S
C1869 C1870 1.524 . S
C1870 C1869 1.524 . S
C1870 C1871 1.397 . S
C1870 C1875 1.363 . S
C1871 H1842 0.950 . S
C1871 C1870 1.397 . S
C1871 C1872 1.334 . S
C1872 H1843 0.950 . S
C1872 C1871 1.334 . S
C1872 C1873 1.287 . S
C1873 C1872 1.287 . S
C1873 C1874 1.524 . S
C1873 H1876 0.999 . S
C1874 H1844 0.950 . S
C1874 C1873 1.524 . S
C1874 C1875 1.415 . S
C1875 H1845 0.950 . S
C1875 C1870 1.363 . S
C1875 C1874 1.415 . S
H1876 C1873 0.999 . S
H1877 C1858 0.913 . S
H1878 C1896 0.951 . S
H1879 C1898 0.951 . S
H1880 C1900 0.950 . S
H1881 C1901 0.950 . S
H1882 C1903 0.950 . S
H1883 C1906 0.950 . S
H1884 C1907 0.950 . S
H1885 C1909 0.950 . S
H1886 C1910 0.950 . S
H1887 C1911 0.951 . S
H1888 C1913 0.951 . S
H1889 C1915 0.950 . S
H1890 C1916 0.950 . S
H1891 C1918 0.950 . S
H1892 C1921 0.950 . S
H1893 C1922 0.950 . S
H1894 C1924 0.950 . S
H1895 C1925 0.950 . S
C1896 H1878 0.951 . S
C1896 C1897 1.366 . S
C1896 C1898 1.388 . S
C1897 C1896 1.366 . S
C1897 C1901 1.385 1_455 S
C1898 H1879 0.951 . S
C1898 C1896 1.388 . S
C1898 C1899 1.366 . S
C1899 C1898 1.366 . S
C1899 C1900 1.414 1_455 S
C1899 C1902 1.499 . S
C1900 H1880 0.950 . S
C1900 C1899 1.414 1_655 S
C1900 C1901 1.374 . S
C1901 H1881 0.950 . S
C1901 C1897 1.385 1_655 S
C1901 C1900 1.374 . S
C1902 C1899 1.499 . S
C1902 C1903 1.373 1_455 S
C1902 C1904 1.389 . S
C1903 H1882 0.950 . S
C1903 C1902 1.373 1_655 S
C1903 C1919 1.377 . S
C1904 C1902 1.389 . S
C1904 C1905 1.524 . S
C1904 C1918 1.377 . S
C1905 C1904 1.524 . S
C1905 C1906 1.397 . S
C1905 C1910 1.363 . S
C1906 H1883 0.950 . S
C1906 C1905 1.397 . S
C1906 C1907 1.334 . S
C1907 H1884 0.950 . S
C1907 C1906 1.334 . S
C1907 C1908 1.287 . S
C1908 C1907 1.287 . S
C1908 C1909 1.524 . S
C1908 H1927 0.913 . S
C1909 H1885 0.950 . S
C1909 C1908 1.524 . S
C1909 C1910 1.415 . S
C1910 H1886 0.950 . S
C1910 C1905 1.363 . S
C1910 C1909 1.415 . S
C1911 H1887 0.951 . S
C1911 C1912 1.366 . S
C1911 C1913 1.388 . S
C1912 C1911 1.366 . S
C1912 C1916 1.385 1_655 S
C1913 H1888 0.951 . S
C1913 C1911 1.388 . S
C1913 C1914 1.366 . S
C1914 C1913 1.366 . S
C1914 C1915 1.414 1_655 S
C1914 C1917 1.499 . S
C1915 H1889 0.950 . S
C1915 C1914 1.414 1_455 S
C1915 C1916 1.374 . S
C1916 H1890 0.950 . S
C1916 C1912 1.385 1_455 S
C1916 C1915 1.374 . S
C1917 C1914 1.499 . S
C1917 C1918 1.373 1_655 S
C1917 C1919 1.389 . S
C1918 H1891 0.950 . S
C1918 C1904 1.377 . S
C1918 C1917 1.373 1_455 S
C1919 C1903 1.377 . S
C1919 C1917 1.389 . S
C1919 C1920 1.524 . S
C1920 C1919 1.524 . S
C1920 C1921 1.397 . S
C1920 C1925 1.363 . S
C1921 H1892 0.950 . S
C1921 C1920 1.397 . S
C1921 C1922 1.334 . S
C1922 H1893 0.950 . S
C1922 C1921 1.334 . S
C1922 C1923 1.287 . S
C1923 C1922 1.287 . S
C1923 C1924 1.524 . S
C1923 H1926 0.999 . S
C1924 H1894 0.950 . S
C1924 C1923 1.524 . S
C1924 C1925 1.415 . S
C1925 H1895 0.950 . S
C1925 C1920 1.363 . S
C1925 C1924 1.415 . S
H1926 C1923 0.999 . S
H1927 C1908 0.913 . S
H1928 C1946 0.951 1_455 S
H1929 C1948 0.951 . S
H1930 C1950 0.950 . S
H1931 C1951 0.950 . S
H1932 C1953 0.950 . S
H1933 C1956 0.950 . S
H1934 C1957 0.950 . S
H1935 C1959 0.950 . S
H1936 C1960 0.950 . S
H1937 C1961 0.951 1_655 S
H1938 C1963 0.951 . S
H1939 C1965 0.950 . S
H1940 C1966 0.950 . S
H1941 C1968 0.950 . S
H1942 C1971 0.950 . S
H1943 C1972 0.950 . S
H1944 C1974 0.950 . S
H1945 C1975 0.950 . S
C1946 H1928 0.951 1_655 S
C1946 C1947 1.366 . S
C1946 C1948 1.388 1_655 S
C1947 C1946 1.366 . S
C1947 C1951 1.385 . S
C1948 H1929 0.951 . S
C1948 C1946 1.388 1_455 S
C1948 C1949 1.366 1_455 S
C1949 C1948 1.366 1_655 S
C1949 C1950 1.414 . S
C1949 C1952 1.499 . S
C1950 H1930 0.950 . S
C1950 C1949 1.414 . S
C1950 C1951 1.374 . S
C1951 H1931 0.950 . S
C1951 C1947 1.385 . S
C1951 C1950 1.374 . S
C1952 C1949 1.499 . S
C1952 C1953 1.373 . S
C1952 C1954 1.389 1_655 S
C1953 H1932 0.950 . S
C1953 C1952 1.373 . S
C1953 C1969 1.377 . S
C1954 C1952 1.389 1_455 S
C1954 C1955 1.524 . S
C1954 C1968 1.377 . S
C1955 C1954 1.524 . S
C1955 C1956 1.397 1_455 S
C1955 C1960 1.363 . S
C1956 H1933 0.950 . S
C1956 C1955 1.397 1_655 S
C1956 C1957 1.334 . S
C1957 H1934 0.950 . S
C1957 C1956 1.334 . S
C1957 C1958 1.287 . S
C1958 C1957 1.287 . S
C1958 C1959 1.524 1_655 S
C1958 H1977 0.913 . S
C1959 H1935 0.950 . S
C1959 C1958 1.524 1_455 S
C1959 C1960 1.415 . S
C1960 H1936 0.950 . S
C1960 C1955 1.363 . S
C1960 C1959 1.415 . S
C1961 H1937 0.951 1_455 S
C1961 C1962 1.366 . S
C1961 C1963 1.388 1_455 S
C1962 C1961 1.366 . S
C1962 C1966 1.385 . S
C1963 H1938 0.951 . S
C1963 C1961 1.388 1_655 S
C1963 C1964 1.366 1_655 S
C1964 C1963 1.366 1_455 S
C1964 C1965 1.414 . S
C1964 C1967 1.499 . S
C1965 H1939 0.950 . S
C1965 C1964 1.414 . S
C1965 C1966 1.374 . S
C1966 H1940 0.950 . S
C1966 C1962 1.385 . S
C1966 C1965 1.374 . S
C1967 C1964 1.499 . S
C1967 C1968 1.373 . S
C1967 C1969 1.389 1_455 S
C1968 H1941 0.950 . S
C1968 C1954 1.377 . S
C1968 C1967 1.373 . S
C1969 C1953 1.377 . S
C1969 C1967 1.389 1_655 S
C1969 C1970 1.524 . S
C1970 C1969 1.524 . S
C1970 C1971 1.397 1_655 S
C1970 C1975 1.363 . S
C1971 H1942 0.950 . S
C1971 C1970 1.397 1_455 S
C1971 C1972 1.334 . S
C1972 H1943 0.950 . S
C1972 C1971 1.334 . S
C1972 C1973 1.287 . S
C1973 C1972 1.287 . S
C1973 C1974 1.524 1_455 S
C1973 H1976 0.999 . S
C1974 H1944 0.950 . S
C1974 C1973 1.524 1_655 S
C1974 C1975 1.415 . S
C1975 H1945 0.950 . S
C1975 C1970 1.363 . S
C1975 C1974 1.415 . S
H1976 C1973 0.999 . S
H1977 C1958 0.913 . S
H1978 C1996 0.951 . S
H1979 C1998 0.951 . S
H1980 C2000 0.950 . S
H1981 C2001 0.950 . S
H1982 C2003 0.950 . S
H1983 C2006 0.950 . S
H1984 C2007 0.950 . S
H1985 C2009 0.950 . S
H1986 C2010 0.950 . S
H1987 C2011 0.951 . S
H1988 C2013 0.951 . S
H1989 C2015 0.950 . S
H1990 C2016 0.950 . S
H1991 C2018 0.950 . S
H1992 C2021 0.950 . S
H1993 C2022 0.950 . S
H1994 C2024 0.950 . S
H1995 C2025 0.950 . S
C1996 H1978 0.951 . S
C1996 C1997 1.366 . S
C1996 C1998 1.388 . S
C1997 C1996 1.366 . S
C1997 C2001 1.385 . S
C1998 H1979 0.951 . S
C1998 C1996 1.388 . S
C1998 C1999 1.366 . S
C1999 C1998 1.366 . S
C1999 C2000 1.414 . S
C1999 C2002 1.499 . S
C2000 H1980 0.950 . S
C2000 C1999 1.414 . S
C2000 C2001 1.374 . S
C2001 H1981 0.950 . S
C2001 C1997 1.385 . S
C2001 C2000 1.374 . S
C2002 C1999 1.499 . S
C2002 C2003 1.373 . S
C2002 C2004 1.389 . S
C2003 H1982 0.950 . S
C2003 C2002 1.373 . S
C2003 C2019 1.377 . S
C2004 C2002 1.389 . S
C2004 C2005 1.524 . S
C2004 C2018 1.377 . S
C2005 C2004 1.524 . S
C2005 C2006 1.397 . S
C2005 C2010 1.363 . S
C2006 H1983 0.950 . S
C2006 C2005 1.397 . S
C2006 C2007 1.334 . S
C2007 H1984 0.950 . S
C2007 C2006 1.334 . S
C2007 C2008 1.287 . S
C2008 C2007 1.287 . S
C2008 C2009 1.524 . S
C2008 H2027 0.913 . S
C2009 H1985 0.950 . S
C2009 C2008 1.524 . S
C2009 C2010 1.415 . S
C2010 H1986 0.950 . S
C2010 C2005 1.363 . S
C2010 C2009 1.415 . S
C2011 H1987 0.951 . S
C2011 C2012 1.366 . S
C2011 C2013 1.388 . S
C2012 C2011 1.366 . S
C2012 C2016 1.385 . S
C2013 H1988 0.951 . S
C2013 C2011 1.388 . S
C2013 C2014 1.366 . S
C2014 C2013 1.366 . S
C2014 C2015 1.414 . S
C2014 C2017 1.499 . S
C2015 H1989 0.950 . S
C2015 C2014 1.414 . S
C2015 C2016 1.374 . S
C2016 H1990 0.950 . S
C2016 C2012 1.385 . S
C2016 C2015 1.374 . S
C2017 C2014 1.499 . S
C2017 C2018 1.373 . S
C2017 C2019 1.389 . S
C2018 H1991 0.950 . S
C2018 C2004 1.377 . S
C2018 C2017 1.373 . S
C2019 C2003 1.377 . S
C2019 C2017 1.389 . S
C2019 C2020 1.524 . S
C2020 C2019 1.524 . S
C2020 C2021 1.397 . S
C2020 C2025 1.363 . S
C2021 H1992 0.950 . S
C2021 C2020 1.397 . S
C2021 C2022 1.334 . S
C2022 H1993 0.950 . S
C2022 C2021 1.334 . S
C2022 C2023 1.287 . S
C2023 C2022 1.287 . S
C2023 C2024 1.524 . S
C2023 H2026 0.999 . S
C2024 H1994 0.950 . S
C2024 C2023 1.524 . S
C2024 C2025 1.415 . S
C2025 H1995 0.950 . S
C2025 C2020 1.363 . S
C2025 C2024 1.415 . S
H2026 C2023 0.999 . S
H2027 C2008 0.913 . S
H2028 C2046 0.951 . S
H2029 C2048 0.951 . S
H2030 C2050 0.950 . S
H2031 C2051 0.950 . S
H2032 C2053 0.950 . S
H2033 C2056 0.950 . S
H2034 C2057 0.950 . S
H2035 C2059 0.950 . S
H2036 C2060 0.950 . S
H2037 C2061 0.951 . S
H2038 C2063 0.951 . S
H2039 C2065 0.950 . S
H2040 C2066 0.950 . S
H2041 C2068 0.950 . S
H2042 C2071 0.950 . S
H2043 C2072 0.950 . S
H2044 C2074 0.950 . S
H2045 C2075 0.950 . S
C2046 H2028 0.951 . S
C2046 C2047 1.366 . S
C2046 C2048 1.388 . S
C2047 C2046 1.366 . S
C2047 C2051 1.385 . S
C2048 H2029 0.951 . S
C2048 C2046 1.388 . S
C2048 C2049 1.366 . S
C2049 C2048 1.366 . S
C2049 C2050 1.414 . S
C2049 C2052 1.499 . S
C2050 H2030 0.950 . S
C2050 C2049 1.414 . S
C2050 C2051 1.374 . S
C2051 H2031 0.950 . S
C2051 C2047 1.385 . S
C2051 C2050 1.374 . S
C2052 C2049 1.499 . S
C2052 C2053 1.373 . S
C2052 C2054 1.389 . S
C2053 H2032 0.950 . S
C2053 C2052 1.373 . S
C2053 C2069 1.377 . S
C2054 C2052 1.389 . S
C2054 C2055 1.524 . S
C2054 C2068 1.377 . S
C2055 C2054 1.524 . S
C2055 C2056 1.397 . S
C2055 C2060 1.363 . S
C2056 H2033 0.950 . S
C2056 C2055 1.397 . S
C2056 C2057 1.334 . S
C2057 H2034 0.950 . S
C2057 C2056 1.334 . S
C2057 C2058 1.287 . S
C2058 C2057 1.287 . S
C2058 C2059 1.524 . S
C2058 H2077 0.913 . S
C2059 H2035 0.950 . S
C2059 C2058 1.524 . S
C2059 C2060 1.415 . S
C2060 H2036 0.950 . S
C2060 C2055 1.363 . S
C2060 C2059 1.415 . S
C2061 H2037 0.951 . S
C2061 C2062 1.366 . S
C2061 C2063 1.388 . S
C2062 C2061 1.366 . S
C2062 C2066 1.385 . S
C2063 H2038 0.951 . S
C2063 C2061 1.388 . S
C2063 C2064 1.366 . S
C2064 C2063 1.366 . S
C2064 C2065 1.414 . S
C2064 C2067 1.499 . S
C2065 H2039 0.950 . S
C2065 C2064 1.414 . S
C2065 C2066 1.374 . S
C2066 H2040 0.950 . S
C2066 C2062 1.385 . S
C2066 C2065 1.374 . S
C2067 C2064 1.499 . S
C2067 C2068 1.373 . S
C2067 C2069 1.389 . S
C2068 H2041 0.950 . S
C2068 C2054 1.377 . S
C2068 C2067 1.373 . S
C2069 C2053 1.377 . S
C2069 C2067 1.389 . S
C2069 C2070 1.524 . S
C2070 C2069 1.524 . S
C2070 C2071 1.397 . S
C2070 C2075 1.363 . S
C2071 H2042 0.950 . S
C2071 C2070 1.397 . S
C2071 C2072 1.334 . S
C2072 H2043 0.950 . S
C2072 C2071 1.334 . S
C2072 C2073 1.287 . S
C2073 C2072 1.287 . S
C2073 C2074 1.524 . S
C2073 H2076 0.999 . S
C2074 H2044 0.950 . S
C2074 C2073 1.524 . S
C2074 C2075 1.415 . S
C2075 H2045 0.950 . S
C2075 C2070 1.363 . S
C2075 C2074 1.415 . S
H2076 C2073 0.999 . S
H2077 C2058 0.913 . S
H2078 C2096 0.951 . S
H2079 C2098 0.951 . S
H2080 C2100 0.950 . S
H2081 C2101 0.950 1_455 S
H2082 C2103 0.950 . S
H2083 C2106 0.950 . S
H2084 C2107 0.950 . S
H2085 C2109 0.950 . S
H2086 C2110 0.950 . S
H2087 C2111 0.951 . S
H2088 C2113 0.951 . S
H2089 C2115 0.950 . S
H2090 C2116 0.950 1_655 S
H2091 C2118 0.950 . S
H2092 C2121 0.950 . S
H2093 C2122 0.950 . S
H2094 C2124 0.950 . S
H2095 C2125 0.950 . S
C2096 H2078 0.951 . S
C2096 C2097 1.366 . S
C2096 C2098 1.388 . S
C2097 C2096 1.366 . S
C2097 C2101 1.385 . S
C2098 H2079 0.951 . S
C2098 C2096 1.388 . S
C2098 C2099 1.366 . S
C2099 C2098 1.366 . S
C2099 C2100 1.414 1_655 S
C2099 C2102 1.499 . S
C2100 H2080 0.950 . S
C2100 C2099 1.414 1_455 S
C2100 C2101 1.374 1_455 S
C2101 H2081 0.950 1_655 S
C2101 C2097 1.385 . S
C2101 C2100 1.374 1_655 S
C2102 C2099 1.499 . S
C2102 C2103 1.373 . S
C2102 C2104 1.389 . S
C2103 H2082 0.950 . S
C2103 C2102 1.373 . S
C2103 C2119 1.377 1_655 S
C2104 C2102 1.389 . S
C2104 C2105 1.524 . S
C2104 C2118 1.377 1_655 S
C2105 C2104 1.524 . S
C2105 C2106 1.397 1_655 S
C2105 C2110 1.363 . S
C2106 H2083 0.950 . S
C2106 C2105 1.397 1_455 S
C2106 C2107 1.334 . S
C2107 H2084 0.950 . S
C2107 C2106 1.334 . S
C2107 C2108 1.287 . S
C2108 C2107 1.287 . S
C2108 C2109 1.524 1_455 S
C2108 H2127 0.913 . S
C2109 H2085 0.950 . S
C2109 C2108 1.524 1_655 S
C2109 C2110 1.415 . S
C2110 H2086 0.950 . S
C2110 C2105 1.363 . S
C2110 C2109 1.415 . S
C2111 H2087 0.951 . S
C2111 C2112 1.366 . S
C2111 C2113 1.388 . S
C2112 C2111 1.366 . S
C2112 C2116 1.385 . S
C2113 H2088 0.951 . S
C2113 C2111 1.388 . S
C2113 C2114 1.366 . S
C2114 C2113 1.366 . S
C2114 C2115 1.414 1_455 S
C2114 C2117 1.499 . S
C2115 H2089 0.950 . S
C2115 C2114 1.414 1_655 S
C2115 C2116 1.374 1_655 S
C2116 H2090 0.950 1_455 S
C2116 C2112 1.385 . S
C2116 C2115 1.374 1_455 S
C2117 C2114 1.499 . S
C2117 C2118 1.373 . S
C2117 C2119 1.389 . S
C2118 H2091 0.950 . S
C2118 C2104 1.377 1_455 S
C2118 C2117 1.373 . S
C2119 C2103 1.377 1_455 S
C2119 C2117 1.389 . S
C2119 C2120 1.524 . S
C2120 C2119 1.524 . S
C2120 C2121 1.397 1_455 S
C2120 C2125 1.363 . S
C2121 H2092 0.950 . S
C2121 C2120 1.397 1_655 S
C2121 C2122 1.334 . S
C2122 H2093 0.950 . S
C2122 C2121 1.334 . S
C2122 C2123 1.287 . S
C2123 C2122 1.287 . S
C2123 C2124 1.524 1_655 S
C2123 H2126 0.999 . S
C2124 H2094 0.950 . S
C2124 C2123 1.524 1_455 S
C2124 C2125 1.415 . S
C2125 H2095 0.950 . S
C2125 C2120 1.363 . S
C2125 C2124 1.415 . S
H2126 C2123 0.999 . S
H2127 C2108 0.913 . S
H2128 C2146 0.951 . S
H2129 C2148 0.951 . S
H2130 C2150 0.950 . S
H2131 C2151 0.950 . S
H2132 C2153 0.950 . S
H2133 C2156 0.950 . S
H2134 C2157 0.950 . S
H2135 C2159 0.950 . S
H2136 C2160 0.950 . S
H2137 C2161 0.951 . S
H2138 C2163 0.951 . S
H2139 C2165 0.950 . S
H2140 C2166 0.950 . S
H2141 C2168 0.950 . S
H2142 C2171 0.950 . S
H2143 C2172 0.950 . S
H2144 C2174 0.950 . S
H2145 C2175 0.950 . S
C2146 H2128 0.951 . S
C2146 C2147 1.366 . S
C2146 C2148 1.388 . S
C2147 C2146 1.366 . S
C2147 C2151 1.385 . S
C2148 H2129 0.951 . S
C2148 C2146 1.388 . S
C2148 C2149 1.366 . S
C2149 C2148 1.366 . S
C2149 C2150 1.414 . S
C2149 C2152 1.499 . S
C2150 H2130 0.950 . S
C2150 C2149 1.414 . S
C2150 C2151 1.374 . S
C2151 H2131 0.950 . S
C2151 C2147 1.385 . S
C2151 C2150 1.374 . S
C2152 C2149 1.499 . S
C2152 C2153 1.373 . S
C2152 C2154 1.389 1_455 S
C2153 H2132 0.950 . S
C2153 C2152 1.373 . S
C2153 C2169 1.377 . S
C2154 C2152 1.389 1_655 S
C2154 C2155 1.524 . S
C2154 C2168 1.377 . S
C2155 C2154 1.524 . S
C2155 C2156 1.397 . S
C2155 C2160 1.363 . S
C2156 H2133 0.950 . S
C2156 C2155 1.397 . S
C2156 C2157 1.334 . S
C2157 H2134 0.950 . S
C2157 C2156 1.334 . S
C2157 C2158 1.287 . S
C2158 C2157 1.287 . S
C2158 C2159 1.524 . S
C2158 H2177 0.913 . S
C2159 H2135 0.950 . S
C2159 C2158 1.524 . S
C2159 C2160 1.415 . S
C2160 H2136 0.950 . S
C2160 C2155 1.363 . S
C2160 C2159 1.415 . S
C2161 H2137 0.951 . S
C2161 C2162 1.366 . S
C2161 C2163 1.388 . S
C2162 C2161 1.366 . S
C2162 C2166 1.385 . S
C2163 H2138 0.951 . S
C2163 C2161 1.388 . S
C2163 C2164 1.366 . S
C2164 C2163 1.366 . S
C2164 C2165 1.414 . S
C2164 C2167 1.499 . S
C2165 H2139 0.950 . S
C2165 C2164 1.414 . S
C2165 C2166 1.374 . S
C2166 H2140 0.950 . S
C2166 C2162 1.385 . S
C2166 C2165 1.374 . S
C2167 C2164 1.499 . S
C2167 C2168 1.373 . S
C2167 C2169 1.389 1_655 S
C2168 H2141 0.950 . S
C2168 C2154 1.377 . S
C2168 C2167 1.373 . S
C2169 C2153 1.377 . S
C2169 C2167 1.389 1_455 S
C2169 C2170 1.524 . S
C2170 C2169 1.524 . S
C2170 C2171 1.397 . S
C2170 C2175 1.363 . S
C2171 H2142 0.950 . S
C2171 C2170 1.397 . S
C2171 C2172 1.334 . S
C2172 H2143 0.950 . S
C2172 C2171 1.334 . S
C2172 C2173 1.287 . S
C2173 C2172 1.287 . S
C2173 C2174 1.524 . S
C2173 H2176 0.999 . S
C2174 H2144 0.950 . S
C2174 C2173 1.524 . S
C2174 C2175 1.415 . S
C2175 H2145 0.950 . S
C2175 C2170 1.363 . S
C2175 C2174 1.415 . S
H2176 C2173 0.999 . S
H2177 C2158 0.913 . S
H2178 C2196 0.951 . S
H2179 C2198 0.951 . S
H2180 C2200 0.950 . S
H2181 C2201 0.950 . S
H2182 C2203 0.950 . S
H2183 C2206 0.950 . S
H2184 C2207 0.950 . S
H2185 C2209 0.950 . S
H2186 C2210 0.950 . S
H2187 C2211 0.951 . S
H2188 C2213 0.951 . S
H2189 C2215 0.950 . S
H2190 C2216 0.950 . S
H2191 C2218 0.950 . S
H2192 C2221 0.950 . S
H2193 C2222 0.950 . S
H2194 C2224 0.950 . S
H2195 C2225 0.950 . S
C2196 H2178 0.951 . S
C2196 C2197 1.366 . S
C2196 C2198 1.388 . S
C2197 C2196 1.366 . S
C2197 C2201 1.385 . S
C2198 H2179 0.951 . S
C2198 C2196 1.388 . S
C2198 C2199 1.366 . S
C2199 C2198 1.366 . S
C2199 C2200 1.414 . S
C2199 C2202 1.499 . S
C2200 H2180 0.950 . S
C2200 C2199 1.414 . S
C2200 C2201 1.374 . S
C2201 H2181 0.950 . S
C2201 C2197 1.385 . S
C2201 C2200 1.374 . S
C2202 C2199 1.499 . S
C2202 C2203 1.373 . S
C2202 C2204 1.389 . S
C2203 H2182 0.950 . S
C2203 C2202 1.373 . S
C2203 C2219 1.377 . S
C2204 C2202 1.389 . S
C2204 C2205 1.524 . S
C2204 C2218 1.377 . S
C2205 C2204 1.524 . S
C2205 C2206 1.397 . S
C2205 C2210 1.363 . S
C2206 H2183 0.950 . S
C2206 C2205 1.397 . S
C2206 C2207 1.334 . S
C2207 H2184 0.950 . S
C2207 C2206 1.334 . S
C2207 C2208 1.287 . S
C2208 C2207 1.287 . S
C2208 C2209 1.524 . S
C2208 H2227 0.913 . S
C2209 H2185 0.950 . S
C2209 C2208 1.524 . S
C2209 C2210 1.415 . S
C2210 H2186 0.950 . S
C2210 C2205 1.363 . S
C2210 C2209 1.415 . S
C2211 H2187 0.951 . S
C2211 C2212 1.366 . S
C2211 C2213 1.388 . S
C2212 C2211 1.366 . S
C2212 C2216 1.385 . S
C2213 H2188 0.951 . S
C2213 C2211 1.388 . S
C2213 C2214 1.366 . S
C2214 C2213 1.366 . S
C2214 C2215 1.414 . S
C2214 C2217 1.499 . S
C2215 H2189 0.950 . S
C2215 C2214 1.414 . S
C2215 C2216 1.374 . S
C2216 H2190 0.950 . S
C2216 C2212 1.385 . S
C2216 C2215 1.374 . S
C2217 C2214 1.499 . S
C2217 C2218 1.373 . S
C2217 C2219 1.389 . S
C2218 H2191 0.950 . S
C2218 C2204 1.377 . S
C2218 C2217 1.373 . S
C2219 C2203 1.377 . S
C2219 C2217 1.389 . S
C2219 C2220 1.524 . S
C2220 C2219 1.524 . S
C2220 C2221 1.397 . S
C2220 C2225 1.363 . S
C2221 H2192 0.950 . S
C2221 C2220 1.397 . S
C2221 C2222 1.334 . S
C2222 H2193 0.950 . S
C2222 C2221 1.334 . S
C2222 C2223 1.287 . S
C2223 C2222 1.287 . S
C2223 C2224 1.524 . S
C2223 H2226 0.999 . S
C2224 H2194 0.950 . S
C2224 C2223 1.524 . S
C2224 C2225 1.415 . S
C2225 H2195 0.950 . S
C2225 C2220 1.363 . S
C2225 C2224 1.415 . S
H2226 C2223 0.999 . S
H2227 C2208 0.913 . S
H2228 C2246 0.951 1_455 S
H2229 C2248 0.951 1_455 S
H2230 C2250 0.950 . S
H2231 C2251 0.950 . S
H2232 C2253 0.950 . S
H2233 C2256 0.950 . S
H2234 C2257 0.950 . S
H2235 C2259 0.950 . S
H2236 C2260 0.950 . S
H2237 C2261 0.951 1_655 S
H2238 C2263 0.951 1_655 S
H2239 C2265 0.950 . S
H2240 C2266 0.950 . S
H2241 C2268 0.950 . S
H2242 C2271 0.950 . S
H2243 C2272 0.950 . S
H2244 C2274 0.950 . S
H2245 C2275 0.950 . S
C2246 H2228 0.951 1_655 S
C2246 C2247 1.366 . S
C2246 C2248 1.388 . S
C2247 C2246 1.366 . S
C2247 C2251 1.385 . S
C2248 H2229 0.951 1_655 S
C2248 C2246 1.388 . S
C2248 C2249 1.366 . S
C2249 C2248 1.366 . S
C2249 C2250 1.414 . S
C2249 C2252 1.499 . S
C2250 H2230 0.950 . S
C2250 C2249 1.414 . S
C2250 C2251 1.374 . S
C2251 H2231 0.950 . S
C2251 C2247 1.385 . S
C2251 C2250 1.374 . S
C2252 C2249 1.499 . S
C2252 C2253 1.373 . S
C2252 C2254 1.389 . S
C2253 H2232 0.950 . S
C2253 C2252 1.373 . S
C2253 C2269 1.377 1_655 S
C2254 C2252 1.389 . S
C2254 C2255 1.524 . S
C2254 C2268 1.377 1_655 S
C2255 C2254 1.524 . S
C2255 C2256 1.397 . S
C2255 C2260 1.363 1_655 S
C2256 H2233 0.950 . S
C2256 C2255 1.397 . S
C2256 C2257 1.334 . S
C2257 H2234 0.950 . S
C2257 C2256 1.334 . S
C2257 C2258 1.287 . S
C2258 C2257 1.287 . S
C2258 C2259 1.524 1_655 S
C2258 H2277 0.913 . S
C2259 H2235 0.950 . S
C2259 C2258 1.524 1_455 S
C2259 C2260 1.415 . S
C2260 H2236 0.950 . S
C2260 C2255 1.363 1_455 S
C2260 C2259 1.415 . S
C2261 H2237 0.951 1_455 S
C2261 C2262 1.366 . S
C2261 C2263 1.388 . S
C2262 C2261 1.366 . S
C2262 C2266 1.385 . S
C2263 H2238 0.951 1_455 S
C2263 C2261 1.388 . S
C2263 C2264 1.366 . S
C2264 C2263 1.366 . S
C2264 C2265 1.414 . S
C2264 C2267 1.499 . S
C2265 H2239 0.950 . S
C2265 C2264 1.414 . S
C2265 C2266 1.374 . S
C2266 H2240 0.950 . S
C2266 C2262 1.385 . S
C2266 C2265 1.374 . S
C2267 C2264 1.499 . S
C2267 C2268 1.373 . S
C2267 C2269 1.389 . S
C2268 H2241 0.950 . S
C2268 C2254 1.377 1_455 S
C2268 C2267 1.373 . S
C2269 C2253 1.377 1_455 S
C2269 C2267 1.389 . S
C2269 C2270 1.524 . S
C2270 C2269 1.524 . S
C2270 C2271 1.397 . S
C2270 C2275 1.363 1_455 S
C2271 H2242 0.950 . S
C2271 C2270 1.397 . S
C2271 C2272 1.334 . S
C2272 H2243 0.950 . S
C2272 C2271 1.334 . S
C2272 C2273 1.287 . S
C2273 C2272 1.287 . S
C2273 C2274 1.524 1_455 S
C2273 H2276 0.999 . S
C2274 H2244 0.950 . S
C2274 C2273 1.524 1_655 S
C2274 C2275 1.415 . S
C2275 H2245 0.950 . S
C2275 C2270 1.363 1_655 S
C2275 C2274 1.415 . S
H2276 C2273 0.999 . S
H2277 C2258 0.913 . S
H2278 C2296 0.951 . S
H2279 C2298 0.951 . S
H2280 C2300 0.950 . S
H2281 C2301 0.950 . S
H2282 C2303 0.950 . S
H2283 C2306 0.950 . S
H2284 C2307 0.950 . S
H2285 C2309 0.950 . S
H2286 C2310 0.950 . S
H2287 C2311 0.951 . S
H2288 C2313 0.951 . S
H2289 C2315 0.950 . S
H2290 C2316 0.950 . S
H2291 C2318 0.950 . S
H2292 C2321 0.950 . S
H2293 C2322 0.950 . S
H2294 C2324 0.950 . S
H2295 C2325 0.950 . S
C2296 H2278 0.951 . S
C2296 C2297 1.366 . S
C2296 C2298 1.388 . S
C2297 C2296 1.366 . S
C2297 C2301 1.385 . S
C2298 H2279 0.951 . S
C2298 C2296 1.388 . S
C2298 C2299 1.366 . S
C2299 C2298 1.366 . S
C2299 C2300 1.414 . S
C2299 C2302 1.499 . S
C2300 H2280 0.950 . S
C2300 C2299 1.414 . S
C2300 C2301 1.374 . S
C2301 H2281 0.950 . S
C2301 C2297 1.385 . S
C2301 C2300 1.374 . S
C2302 C2299 1.499 . S
C2302 C2303 1.373 . S
C2302 C2304 1.389 . S
C2303 H2282 0.950 . S
C2303 C2302 1.373 . S
C2303 C2319 1.377 . S
C2304 C2302 1.389 . S
C2304 C2305 1.524 . S
C2304 C2318 1.377 . S
C2305 C2304 1.524 . S
C2305 C2306 1.397 . S
C2305 C2310 1.363 . S
C2306 H2283 0.950 . S
C2306 C2305 1.397 . S
C2306 C2307 1.334 . S
C2307 H2284 0.950 . S
C2307 C2306 1.334 . S
C2307 C2308 1.287 . S
C2308 C2307 1.287 . S
C2308 C2309 1.524 . S
C2308 H2327 0.913 . S
C2309 H2285 0.950 . S
C2309 C2308 1.524 . S
C2309 C2310 1.415 . S
C2310 H2286 0.950 . S
C2310 C2305 1.363 . S
C2310 C2309 1.415 . S
C2311 H2287 0.951 . S
C2311 C2312 1.366 . S
C2311 C2313 1.388 . S
C2312 C2311 1.366 . S
C2312 C2316 1.385 . S
C2313 H2288 0.951 . S
C2313 C2311 1.388 . S
C2313 C2314 1.366 . S
C2314 C2313 1.366 . S
C2314 C2315 1.414 . S
C2314 C2317 1.499 . S
C2315 H2289 0.950 . S
C2315 C2314 1.414 . S
C2315 C2316 1.374 . S
C2316 H2290 0.950 . S
C2316 C2312 1.385 . S
C2316 C2315 1.374 . S
C2317 C2314 1.499 . S
C2317 C2318 1.373 . S
C2317 C2319 1.389 . S
C2318 H2291 0.950 . S
C2318 C2304 1.377 . S
C2318 C2317 1.373 . S
C2319 C2303 1.377 . S
C2319 C2317 1.389 . S
C2319 C2320 1.524 . S
C2320 C2319 1.524 . S
C2320 C2321 1.397 . S
C2320 C2325 1.363 . S
C2321 H2292 0.950 . S
C2321 C2320 1.397 . S
C2321 C2322 1.334 . S
C2322 H2293 0.950 . S
C2322 C2321 1.334 . S
C2322 C2323 1.287 . S
C2323 C2322 1.287 . S
C2323 C2324 1.524 . S
C2323 H2326 0.999 . S
C2324 H2294 0.950 . S
C2324 C2323 1.524 . S
C2324 C2325 1.415 . S
C2325 H2295 0.950 . S
C2325 C2320 1.363 . S
C2325 C2324 1.415 . S
H2326 C2323 0.999 . S
H2327 C2308 0.913 . S
H2328 C2346 0.951 . S
H2329 C2348 0.951 . S
H2330 C2350 0.950 . S
H2331 C2351 0.950 . S
H2332 C2353 0.950 . S
H2333 C2356 0.950 . S
H2334 C2357 0.950 . S
H2335 C2359 0.950 . S
H2336 C2360 0.950 . S
H2337 C2361 0.951 . S
H2338 C2363 0.951 . S
H2339 C2365 0.950 . S
H2340 C2366 0.950 . S
H2341 C2368 0.950 . S
H2342 C2371 0.950 . S
H2343 C2372 0.950 . S
H2344 C2374 0.950 . S
H2345 C2375 0.950 . S
C2346 H2328 0.951 . S
C2346 C2347 1.366 . S
C2346 C2348 1.388 . S
C2347 C2346 1.366 . S
C2347 C2351 1.385 . S
C2348 H2329 0.951 . S
C2348 C2346 1.388 . S
C2348 C2349 1.366 . S
C2349 C2348 1.366 . S
C2349 C2350 1.414 . S
C2349 C2352 1.499 . S
C2350 H2330 0.950 . S
C2350 C2349 1.414 . S
C2350 C2351 1.374 . S
C2351 H2331 0.950 . S
C2351 C2347 1.385 . S
C2351 C2350 1.374 . S
C2352 C2349 1.499 . S
C2352 C2353 1.373 . S
C2352 C2354 1.389 . S
C2353 H2332 0.950 . S
C2353 C2352 1.373 . S
C2353 C2369 1.377 . S
C2354 C2352 1.389 . S
C2354 C2355 1.524 . S
C2354 C2368 1.377 . S
C2355 C2354 1.524 . S
C2355 C2356 1.397 . S
C2355 C2360 1.363 . S
C2356 H2333 0.950 . S
C2356 C2355 1.397 . S
C2356 C2357 1.334 . S
C2357 H2334 0.950 . S
C2357 C2356 1.334 . S
C2357 C2358 1.287 . S
C2358 C2357 1.287 . S
C2358 C2359 1.524 . S
C2358 H2377 0.913 . S
C2359 H2335 0.950 . S
C2359 C2358 1.524 . S
C2359 C2360 1.415 . S
C2360 H2336 0.950 . S
C2360 C2355 1.363 . S
C2360 C2359 1.415 . S
C2361 H2337 0.951 . S
C2361 C2362 1.366 . S
C2361 C2363 1.388 . S
C2362 C2361 1.366 . S
C2362 C2366 1.385 . S
C2363 H2338 0.951 . S
C2363 C2361 1.388 . S
C2363 C2364 1.366 . S
C2364 C2363 1.366 . S
C2364 C2365 1.414 . S
C2364 C2367 1.499 . S
C2365 H2339 0.950 . S
C2365 C2364 1.414 . S
C2365 C2366 1.374 . S
C2366 H2340 0.950 . S
C2366 C2362 1.385 . S
C2366 C2365 1.374 . S
C2367 C2364 1.499 . S
C2367 C2368 1.373 . S
C2367 C2369 1.389 . S
C2368 H2341 0.950 . S
C2368 C2354 1.377 . S
C2368 C2367 1.373 . S
C2369 C2353 1.377 . S
C2369 C2367 1.389 . S
C2369 C2370 1.524 . S
C2370 C2369 1.524 . S
C2370 C2371 1.397 . S
C2370 C2375 1.363 . S
C2371 H2342 0.950 . S
C2371 C2370 1.397 . S
C2371 C2372 1.334 . S
C2372 H2343 0.950 . S
C2372 C2371 1.334 . S
C2372 C2373 1.287 . S
C2373 C2372 1.287 . S
C2373 C2374 1.524 . S
C2373 H2376 0.999 . S
C2374 H2344 0.950 . S
C2374 C2373 1.524 . S
C2374 C2375 1.415 . S
C2375 H2345 0.950 . S
C2375 C2370 1.363 . S
C2375 C2374 1.415 . S
H2376 C2373 0.999 . S
H2377 C2358 0.913 . S
H2378 C2396 0.951 . S
H2379 C2398 0.951 . S
H2380 C2400 0.950 . S
H2381 C2401 0.950 1_655 S
H2382 C2403 0.950 . S
H2383 C2406 0.950 . S
H2384 C2407 0.950 . S
H2385 C2409 0.950 . S
H2386 C2410 0.950 . S
H2387 C2411 0.951 . S
H2388 C2413 0.951 . S
H2389 C2415 0.950 . S
H2390 C2416 0.950 1_455 S
H2391 C2418 0.950 . S
H2392 C2421 0.950 . S
H2393 C2422 0.950 . S
H2394 C2424 0.950 . S
H2395 C2425 0.950 . S
C2396 H2378 0.951 . S
C2396 C2397 1.366 . S
C2396 C2398 1.388 . S
C2397 C2396 1.366 . S
C2397 C2401 1.385 . S
C2398 H2379 0.951 . S
C2398 C2396 1.388 . S
C2398 C2399 1.366 . S
C2399 C2398 1.366 . S
C2399 C2400 1.414 1_455 S
C2399 C2402 1.499 . S
C2400 H2380 0.950 . S
C2400 C2399 1.414 1_655 S
C2400 C2401 1.374 1_655 S
C2401 H2381 0.950 1_455 S
C2401 C2397 1.385 . S
C2401 C2400 1.374 1_455 S
C2402 C2399 1.499 . S
C2402 C2403 1.373 1_455 S
C2402 C2404 1.389 . S
C2403 H2382 0.950 . S
C2403 C2402 1.373 1_655 S
C2403 C2419 1.377 . S
C2404 C2402 1.389 . S
C2404 C2405 1.524 . S
C2404 C2418 1.377 . S
C2405 C2404 1.524 . S
C2405 C2406 1.397 . S
C2405 C2410 1.363 . S
C2406 H2383 0.950 . S
C2406 C2405 1.397 . S
C2406 C2407 1.334 . S
C2407 H2384 0.950 . S
C2407 C2406 1.334 . S
C2407 C2408 1.287 . S
C2408 C2407 1.287 . S
C2408 C2409 1.524 . S
C2408 H2427 0.913 . S
C2409 H2385 0.950 . S
C2409 C2408 1.524 . S
C2409 C2410 1.415 . S
C2410 H2386 0.950 . S
C2410 C2405 1.363 . S
C2410 C2409 1.415 . S
C2411 H2387 0.951 . S
C2411 C2412 1.366 . S
C2411 C2413 1.388 . S
C2412 C2411 1.366 . S
C2412 C2416 1.385 . S
C2413 H2388 0.951 . S
C2413 C2411 1.388 . S
C2413 C2414 1.366 . S
C2414 C2413 1.366 . S
C2414 C2415 1.414 1_655 S
C2414 C2417 1.499 . S
C2415 H2389 0.950 . S
C2415 C2414 1.414 1_455 S
C2415 C2416 1.374 1_455 S
C2416 H2390 0.950 1_655 S
C2416 C2412 1.385 . S
C2416 C2415 1.374 1_655 S
C2417 C2414 1.499 . S
C2417 C2418 1.373 1_655 S
C2417 C2419 1.389 . S
C2418 H2391 0.950 . S
C2418 C2404 1.377 . S
C2418 C2417 1.373 1_455 S
C2419 C2403 1.377 . S
C2419 C2417 1.389 . S
C2419 C2420 1.524 . S
C2420 C2419 1.524 . S
C2420 C2421 1.397 . S
C2420 C2425 1.363 . S
C2421 H2392 0.950 . S
C2421 C2420 1.397 . S
C2421 C2422 1.334 . S
C2422 H2393 0.950 . S
C2422 C2421 1.334 . S
C2422 C2423 1.287 . S
C2423 C2422 1.287 . S
C2423 C2424 1.524 . S
C2423 H2426 0.999 . S
C2424 H2394 0.950 . S
C2424 C2423 1.524 . S
C2424 C2425 1.415 . S
C2425 H2395 0.950 . S
C2425 C2420 1.363 . S
C2425 C2424 1.415 . S
H2426 C2423 0.999 . S
H2427 C2408 0.913 . S
H2428 C2446 0.951 . S
H2429 C2448 0.951 . S
H2430 C2450 0.950 . S
H2431 C2451 0.950 . S
H2432 C2453 0.950 . S
H2433 C2456 0.950 . S
H2434 C2457 0.950 . S
H2435 C2459 0.950 . S
H2436 C2460 0.950 . S
H2437 C2461 0.951 . S
H2438 C2463 0.951 . S
H2439 C2465 0.950 . S
H2440 C2466 0.950 . S
H2441 C2468 0.950 . S
H2442 C2471 0.950 . S
H2443 C2472 0.950 . S
H2444 C2474 0.950 . S
H2445 C2475 0.950 . S
C2446 H2428 0.951 . S
C2446 C2447 1.366 . S
C2446 C2448 1.388 . S
C2447 C2446 1.366 . S
C2447 C2451 1.385 . S
C2448 H2429 0.951 . S
C2448 C2446 1.388 . S
C2448 C2449 1.366 . S
C2449 C2448 1.366 . S
C2449 C2450 1.414 . S
C2449 C2452 1.499 . S
C2450 H2430 0.950 . S
C2450 C2449 1.414 . S
C2450 C2451 1.374 . S
C2451 H2431 0.950 . S
C2451 C2447 1.385 . S
C2451 C2450 1.374 . S
C2452 C2449 1.499 . S
C2452 C2453 1.373 . S
C2452 C2454 1.389 . S
C2453 H2432 0.950 . S
C2453 C2452 1.373 . S
C2453 C2469 1.377 . S
C2454 C2452 1.389 . S
C2454 C2455 1.524 . S
C2454 C2468 1.377 . S
C2455 C2454 1.524 . S
C2455 C2456 1.397 . S
C2455 C2460 1.363 . S
C2456 H2433 0.950 . S
C2456 C2455 1.397 . S
C2456 C2457 1.334 . S
C2457 H2434 0.950 . S
C2457 C2456 1.334 . S
C2457 C2458 1.287 . S
C2458 C2457 1.287 . S
C2458 C2459 1.524 . S
C2458 H2477 0.913 . S
C2459 H2435 0.950 . S
C2459 C2458 1.524 . S
C2459 C2460 1.415 . S
C2460 H2436 0.950 . S
C2460 C2455 1.363 . S
C2460 C2459 1.415 . S
C2461 H2437 0.951 . S
C2461 C2462 1.366 . S
C2461 C2463 1.388 . S
C2462 C2461 1.366 . S
C2462 C2466 1.385 . S
C2463 H2438 0.951 . S
C2463 C2461 1.388 . S
C2463 C2464 1.366 . S
C2464 C2463 1.366 . S
C2464 C2465 1.414 . S
C2464 C2467 1.499 . S
C2465 H2439 0.950 . S
C2465 C2464 1.414 . S
C2465 C2466 1.374 . S
C2466 H2440 0.950 . S
C2466 C2462 1.385 . S
C2466 C2465 1.374 . S
C2467 C2464 1.499 . S
C2467 C2468 1.373 . S
C2467 C2469 1.389 . S
C2468 H2441 0.950 . S
C2468 C2454 1.377 . S
C2468 C2467 1.373 . S
C2469 C2453 1.377 . S
C2469 C2467 1.389 . S
C2469 C2470 1.524 . S
C2470 C2469 1.524 . S
C2470 C2471 1.397 . S
C2470 C2475 1.363 . S
C2471 H2442 0.950 . S
C2471 C2470 1.397 . S
C2471 C2472 1.334 . S
C2472 H2443 0.950 . S
C2472 C2471 1.334 . S
C2472 C2473 1.287 . S
C2473 C2472 1.287 . S
C2473 C2474 1.524 . S
C2473 H2476 0.999 . S
C2474 H2444 0.950 . S
C2474 C2473 1.524 . S
C2474 C2475 1.415 . S
C2475 H2445 0.950 . S
C2475 C2470 1.363 . S
C2475 C2474 1.415 . S
H2476 C2473 0.999 . S
H2477 C2458 0.913 . S
H2478 C2496 0.951 . S
H2479 C2498 0.951 . S
H2480 C2500 0.950 . S
H2481 C2501 0.950 1_655 S
H2482 C2503 0.950 . S
H2483 C2506 0.950 . S
H2484 C2507 0.950 . S
H2485 C2509 0.950 . S
H2486 C2510 0.950 . S
H2487 C2511 0.951 . S
H2488 C2513 0.951 . S
H2489 C2515 0.950 . S
H2490 C2516 0.950 1_455 S
H2491 C2518 0.950 . S
H2492 C2521 0.950 . S
H2493 C2522 0.950 . S
H2494 C2524 0.950 . S
H2495 C2525 0.950 . S
C2496 H2478 0.951 . S
C2496 C2497 1.366 . S
C2496 C2498 1.388 . S
C2497 C2496 1.366 . S
C2497 C2501 1.385 . S
C2498 H2479 0.951 . S
C2498 C2496 1.388 . S
C2498 C2499 1.366 . S
C2499 C2498 1.366 . S
C2499 C2500 1.414 1_455 S
C2499 C2502 1.499 . S
C2500 H2480 0.950 . S
C2500 C2499 1.414 1_655 S
C2500 C2501 1.374 1_655 S
C2501 H2481 0.950 1_455 S
C2501 C2497 1.385 . S
C2501 C2500 1.374 1_455 S
C2502 C2499 1.499 . S
C2502 C2503 1.373 1_455 S
C2502 C2504 1.389 . S
C2503 H2482 0.950 . S
C2503 C2502 1.373 1_655 S
C2503 C2519 1.377 . S
C2504 C2502 1.389 . S
C2504 C2505 1.524 . S
C2504 C2518 1.377 . S
C2505 C2504 1.524 . S
C2505 C2506 1.397 . S
C2505 C2510 1.363 . S
C2506 H2483 0.950 . S
C2506 C2505 1.397 . S
C2506 C2507 1.334 . S
C2507 H2484 0.950 . S
C2507 C2506 1.334 . S
C2507 C2508 1.287 . S
C2508 C2507 1.287 . S
C2508 C2509 1.524 . S
C2508 H2527 0.913 . S
C2509 H2485 0.950 . S
C2509 C2508 1.524 . S
C2509 C2510 1.415 . S
C2510 H2486 0.950 . S
C2510 C2505 1.363 . S
C2510 C2509 1.415 . S
C2511 H2487 0.951 . S
C2511 C2512 1.366 . S
C2511 C2513 1.388 . S
C2512 C2511 1.366 . S
C2512 C2516 1.385 . S
C2513 H2488 0.951 . S
C2513 C2511 1.388 . S
C2513 C2514 1.366 . S
C2514 C2513 1.366 . S
C2514 C2515 1.414 1_655 S
C2514 C2517 1.499 . S
C2515 H2489 0.950 . S
C2515 C2514 1.414 1_455 S
C2515 C2516 1.374 1_455 S
C2516 H2490 0.950 1_655 S
C2516 C2512 1.385 . S
C2516 C2515 1.374 1_655 S
C2517 C2514 1.499 . S
C2517 C2518 1.373 1_655 S
C2517 C2519 1.389 . S
C2518 H2491 0.950 . S
C2518 C2504 1.377 . S
C2518 C2517 1.373 1_455 S
C2519 C2503 1.377 . S
C2519 C2517 1.389 . S
C2519 C2520 1.524 . S
C2520 C2519 1.524 . S
C2520 C2521 1.397 . S
C2520 C2525 1.363 . S
C2521 H2492 0.950 . S
C2521 C2520 1.397 . S
C2521 C2522 1.334 . S
C2522 H2493 0.950 . S
C2522 C2521 1.334 . S
C2522 C2523 1.287 . S
C2523 C2522 1.287 . S
C2523 C2524 1.524 . S
C2523 H2526 0.999 . S
C2524 H2494 0.950 . S
C2524 C2523 1.524 . S
C2524 C2525 1.415 . S
C2525 H2495 0.950 . S
C2525 C2520 1.363 . S
C2525 C2524 1.415 . S
H2526 C2523 0.999 . S
H2527 C2508 0.913 . S
C547 C186 0.897 . S
C562 C18 0.896 . S
C597 C153 0.897 . S
C612 C51 0.896 . S
C647 C84 0.897 . S
C662 C252 0.898 . S
C697 C117 0.897 . S
C712 C219 0.897 . S
C747 C150 0.896 . S
C762 C54 0.897 . S
C797 C183 0.896 . S
C812 C21 0.897 . S
C847 C120 0.898 . S
C862 C216 0.896 . S
C897 C249 0.896 . S
C912 C87 0.897 . S
C947 C282 0.896 . S
C962 C450 0.897 . S
C997 C315 0.895 . S
C1012 C417 0.897 . S
C1047 C348 0.896 . S
C1062 C516 0.897 . S
C1097 C381 0.895 . S
C1112 C483 0.897 . S
C1147 C414 0.896 . S
C1162 C318 0.897 . S
C1197 C447 0.896 . S
C1212 C285 0.897 . S
C1247 C384 0.897 . S
C1262 C480 0.896 . S
C1297 C351 0.898 . S
C1312 C513 0.896 . S
C1347 N13 1.676 . S
C1362 N46 1.677 . S
C1397 N79 1.677 . S
C1412 N112 1.676 . S
C1447 N178 1.677 . S
C1462 N145 1.676 . S
C1497 N244 1.677 . S
C1512 N211 1.676 . S
C1547 N310 1.677 . S
C1562 N277 1.676 . S
C1597 N376 1.677 . S
C1612 N343 1.676 . S
C1647 N409 1.677 . S
C1662 N442 1.676 . S
C1697 N475 1.676 . S
C1712 N508 1.677 . S
C1747 N299 1.542 . S
C1762 N2 1.541 . S
C1797 N35 1.542 . S
C1812 N266 1.541 . S
C1847 N68 1.542 . S
C1862 N365 1.542 . S
C1897 N332 1.541 . S
C1912 N101 1.542 . S
C1947 N134 1.541 . S
C1962 N431 1.542 . S
C1997 N167 1.542 . S
C2012 N398 1.542 . S
C2047 N200 1.542 . S
C2062 N497 1.541 . S
C2097 N464 1.542 . S
C2112 N233 1.541 . S
C2147 C7 1.439 . S
C2162 C106 1.439 . S
C2197 C40 1.439 . S
C2212 C73 1.439 . S
C2247 C139 1.439 . S
C2262 C238 1.439 . S
C2297 C172 1.439 . S
C2312 C205 1.439 . S
C2347 C370 1.439 . S
C2362 C271 1.439 . S
C2397 C337 1.439 . S
C2412 C304 1.439 . S
C2447 C403 1.439 . S
C2462 C502 1.439 . S
C2497 C436 1.439 . S
C2512 C469 1.439 . S
