# Generated by pormake.
# Topology wlj, (5)-cn, num edge types: 1
# Building blocks:
#     Node 0, Type 0, BuildingBlock: BEQFEK_clean_sbu_0, # of connection points: 5
#     Node 1, Type 0, BuildingBlock: BEQFEK_clean_sbu_0, # of connection points: 5
#     Node 2, Type 0, BuildingBlock: BEQFEK_clean_sbu_0, # of connection points: 5
#     Node 3, Type 0, BuildingBlock: BEQFEK_clean_sbu_0, # of connection points: 5
#     Node 4, Type 0, BuildingBlock: BEQFEK_clean_sbu_0, # of connection points: 5
#     Node 5, Type 0, BuildingBlock: BEQFEK_clean_sbu_0, # of connection points: 5
#     Edge 6, Type (0, 0), BuildingBlock: EZIPEK_clean_linker_0, # of connection points: 2
#     Edge 7, Type (0, 0), BuildingBlock: EZIPEK_clean_linker_0, # of connection points: 2
#     Edge 8, Type (0, 0), BuildingBlock: EZIPEK_clean_linker_0, # of connection points: 2
#     Edge 9, Type (0, 0), BuildingBlock: EZIPEK_clean_linker_0, # of connection points: 2
#     Edge 10, Type (0, 0), BuildingBlock: EZIPEK_clean_linker_0, # of connection points: 2
#     Edge 11, Type (0, 0), BuildingBlock: EZIPEK_clean_linker_0, # of connection points: 2
#     Edge 12, Type (0, 0), BuildingBlock: EZIPEK_clean_linker_0, # of connection points: 2
#     Edge 13, Type (0, 0), BuildingBlock: EZIPEK_clean_linker_0, # of connection points: 2
#     Edge 14, Type (0, 0), BuildingBlock: EZIPEK_clean_linker_0, # of connection points: 2
#     Edge 15, Type (0, 0), BuildingBlock: EZIPEK_clean_linker_0, # of connection points: 2
#     Edge 16, Type (0, 0), BuildingBlock: EZIPEK_clean_linker_0, # of connection points: 2
#     Edge 17, Type (0, 0), BuildingBlock: EZIPEK_clean_linker_0, # of connection points: 2
#     Edge 18, Type (0, 0), BuildingBlock: EZIPEK_clean_linker_0, # of connection points: 2
#     Edge 19, Type (0, 0), BuildingBlock: EZIPEK_clean_linker_0, # of connection points: 2
#     Edge 20, Type (0, 0), BuildingBlock: EZIPEK_clean_linker_0, # of connection points: 2
# Relax obj value: 0.061
# Max RMSD: 0.095
# Mean RMSD: 0.095
data_MOF--net-wlj--node1-BEQFEK_clean_sbu_0--edge1-EZIPEK_clean_linker_0
_symmetry_space_group_name_H-M    P1
_symmetry_Int_Tables_number       1
_symmetry_cell_setting            triclinic
loop_
_symmetry_equiv_pos_as_xyz
'x, y, z'
_cell_length_a     18.191936
_cell_length_b     18.192896
_cell_length_c     52.514711
_cell_angle_alpha  90.02415
_cell_angle_beta   90.054884
_cell_angle_gamma 120.13499
loop_
_atom_site_label
_atom_site_type_symbol
_atom_site_fract_x
_atom_site_fract_y
_atom_site_fract_z
_atom_type_partial_charge
Co0 Co 0.48713 0.33771 0.2167 0.0
Co1 Co 0.56491 0.25208 0.25164 0.0
C2 C 0.44058 0.15708 0.20875 0.0
O3 O 0.43063 0.21977 0.2032 0.0
O4 O 0.48979 0.16152 0.22679 0.0
C5 C 0.37322 0.39372 0.19488 0.0
O6 O 0.30941 0.32614 0.20528 0.0
C7 C 0.55932 0.13888 0.29312 0.0
C8 C 0.69595 0.19129 0.30116 0.0
C9 C 0.61554 0.12997 0.30891 0.0
N10 N 0.60438 0.20313 0.27682 0.0
N11 N 0.68605 0.23359 0.28163 0.0
C12 C 0.46443 0.08752 0.29362 0.0
H13 H 0.43649 0.11892 0.28226 0.0
H14 H 0.44108 0.07834 0.31354 0.0
H15 H 0.44375 0.0238 0.28543 0.0
C16 C 0.44317 0.37784 0.26805 0.0
N17 N 0.4739 0.33953 0.25283 0.0
N18 N 0.50914 0.30615 0.26726 0.0
C19 C 0.50363 0.32449 0.29184 0.0
C20 C 0.461 0.36928 0.29314 0.0
C21 C 0.40168 0.42601 0.25896 0.0
H22 H 0.441 0.47092 0.24396 0.0
H23 H 0.33848 0.38081 0.25092 0.0
H24 H 0.39273 0.46167 0.27463 0.0
O25 O 0.60966 0.39524 0.20827 0.0
O26 O 0.66662 0.33844 0.23331 0.0
H27 H 0.6072 0.31532 0.30783 0.0
H28 H 0.55497 0.34988 0.33002 0.0
C29 C 0.54507 0.30709 0.31369 0.0
H30 H 0.50257 0.2409 0.32004 0.0
H31 H 0.7352 0.28456 0.27191 0.0
O32 O 0.44799 0.40611 0.19736 0.0
C33 C 0.67341 0.39097 0.21624 0.0
Co34 Co 0.67722 0.14864 0.88466 0.0
Co35 Co 0.75826 0.31596 0.91803 0.0
C36 C 0.85766 0.28319 0.87733 0.0
O37 O 0.7958 0.20952 0.87203 0.0
O38 O 0.85128 0.32947 0.89449 0.0
C39 C 0.62598 0.01607 0.84645 0.0
O40 O 0.69115 0.07341 0.83338 0.0
C41 C 0.86791 0.42651 0.95952 0.0
C42 C 0.81849 0.51419 0.96516 0.0
C43 C 0.87792 0.49438 0.97423 0.0
N44 N 0.80528 0.40685 0.94254 0.0
N45 N 0.77644 0.45997 0.94594 0.0
C46 C 0.91718 0.38121 0.96152 0.0
H47 H 0.88712 0.32234 0.94986 0.0
H48 H 0.92134 0.36542 0.98168 0.0
H49 H 0.98292 0.42381 0.95465 0.0
C50 C 0.63792 0.07008 0.93586 0.0
N51 N 0.67429 0.1389 0.92063 0.0
N52 N 0.70273 0.20792 0.93467 0.0
C53 C 0.68152 0.18436 0.95917 0.0
C54 C 0.64093 0.09653 0.9608 0.0
C55 C 0.60096 0.98076 0.92661 0.0
H56 H 0.65064 0.9757 0.91593 0.0
H57 H 0.57861 0.93448 0.94253 0.0
H58 H 0.54722 0.96527 0.91351 0.0
O59 O 0.61796 0.21043 0.8738 0.0
O60 O 0.67391 0.3278 0.89753 0.0
H61 H 0.64702 0.21079 0.99588 0.0
H62 H 0.75841 0.26639 0.98859 0.0
C63 C 0.6943 0.24363 0.98053 0.0
H64 H 0.68924 0.29843 0.97362 0.0
H65 H 0.727 0.45835 0.93539 0.0
O66 O 0.61186 0.03423 0.86865 0.0
C67 C 0.62235 0.27985 0.88047 0.0
Co68 Co 0.85711 0.52316 0.55175 0.0
Co69 Co 0.68878 0.44235 0.58402 0.0
C70 C 0.72546 0.56985 0.54136 0.0
O71 O 0.7975 0.57826 0.53586 0.0
O72 O 0.68057 0.52179 0.55952 0.0
C73 C 0.02213 0.63776 0.52764 0.0
O74 O 0.0073 0.69983 0.53279 0.0
C75 C 0.58888 0.45319 0.62646 0.0
C76 C 0.47963 0.32208 0.62774 0.0
C77 C 0.51525 0.40017 0.63992 0.0
N78 N 0.59735 0.40783 0.60762 0.0
N79 N 0.53122 0.32988 0.60829 0.0
C80 C 0.65121 0.5449 0.63178 0.0
H81 H 0.71288 0.56506 0.62238 0.0
H82 H 0.66015 0.55642 0.65261 0.0
H83 H 0.62645 0.58488 0.62399 0.0
C84 C 0.93174 0.56744 0.6047 0.0
N85 N 0.86565 0.53566 0.58825 0.0
N86 N 0.79485 0.49215 0.60138 0.0
C87 C 0.81435 0.48993 0.62608 0.0
C88 C 0.90134 0.53921 0.62905 0.0
C89 C 0.02317 0.62059 0.59765 0.0
H90 H 0.05254 0.57998 0.59726 0.0
H91 H 0.03006 0.6511 0.57896 0.0
H92 H 0.0573 0.67029 0.61234 0.0
O93 O 0.79289 0.39985 0.54311 0.0
O94 O 0.67278 0.34115 0.56545 0.0
H95 H 0.78452 0.40692 0.65836 0.0
H96 H 0.73333 0.46888 0.65807 0.0
C97 C 0.75329 0.43235 0.64584 0.0
H98 H 0.69672 0.37859 0.63683 0.0
H99 H 0.52216 0.28145 0.59577 0.0
O100 O 0.96857 0.56251 0.53449 0.0
C101 C 0.72251 0.33555 0.54958 0.0
Co102 Co 0.35338 0.49845 0.8086 0.0
Co103 Co 0.25166 0.55546 0.77258 0.0
C104 C 0.16603 0.44045 0.81644 0.0
O105 O 0.23394 0.43991 0.82225 0.0
O106 O 0.16311 0.48219 0.79736 0.0
C107 C 0.41362 0.38557 0.82621 0.0
O108 O 0.35892 0.33049 0.80987 0.0
C109 C 0.12937 0.54753 0.73312 0.0
C110 C 0.20152 0.67628 0.71661 0.0
C111 C 0.1265 0.59959 0.7143 0.0
N112 N 0.20335 0.59124 0.7459 0.0
N113 N 0.24554 0.66847 0.73603 0.0
C114 C 0.06358 0.45733 0.73848 0.0
H115 H 0.09208 0.42487 0.74899 0.0
H116 H 0.03426 0.42301 0.72048 0.0
H117 H 0.01275 0.45645 0.75036 0.0
C118 C 0.40553 0.46426 0.75796 0.0
N119 N 0.35697 0.48337 0.77289 0.0
N120 N 0.30729 0.49874 0.75827 0.0
C121 C 0.31841 0.4834 0.73387 0.0
C122 C 0.38168 0.46224 0.73277 0.0
C123 C 0.48212 0.46152 0.76691 0.0
H124 H 0.50989 0.50372 0.78357 0.0
H125 H 0.46389 0.39565 0.77229 0.0
H126 H 0.53061 0.48218 0.75163 0.0
O127 O 0.40896 0.62052 0.81508 0.0
O128 O 0.33652 0.66206 0.79081 0.0
H129 H 0.29176 0.55936 0.70905 0.0
H130 H 0.28272 0.4657 0.69403 0.0
C131 C 0.27132 0.49134 0.71182 0.0
H132 H 0.20247 0.45551 0.71595 0.0
H133 H 0.30556 0.71544 0.74217 0.0
O134 O 0.41915 0.45762 0.8286 0.0
C135 C 0.39562 0.67847 0.80683 0.0
Co136 Co 0.52361 0.85582 0.47365 0.0
Co137 Co 0.43933 0.69345 0.43849 0.0
C138 C 0.56869 0.72163 0.48025 0.0
O139 O 0.57779 0.79279 0.48731 0.0
O140 O 0.51971 0.67992 0.46174 0.0
C141 C 0.63764 0.01919 0.49931 0.0
O142 O 0.70078 0.00575 0.49445 0.0
C143 C 0.45185 0.58777 0.39816 0.0
C144 C 0.32129 0.52116 0.38263 0.0
C145 C 0.40167 0.53213 0.37907 0.0
N146 N 0.40367 0.60988 0.41198 0.0
N147 N 0.32549 0.56906 0.40275 0.0
C148 C 0.54427 0.62099 0.40304 0.0
H149 H 0.55222 0.60092 0.4223 0.0
H150 H 0.57854 0.69154 0.40284 0.0
H151 H 0.57226 0.59728 0.38873 0.0
C152 C 0.57287 0.93928 0.42185 0.0
N153 N 0.53704 0.87091 0.43743 0.0
N154 N 0.49064 0.80282 0.42345 0.0
C155 C 0.48962 0.82649 0.39921 0.0
C156 C 0.54319 0.91328 0.39725 0.0
C157 C 0.63574 0.02801 0.42973 0.0
H158 H 0.60452 0.06687 0.43014 0.0
H159 H 0.66306 0.02887 0.44856 0.0
H160 H 0.68762 0.05726 0.41546 0.0
O161 O 0.40002 0.79078 0.48217 0.0
O162 O 0.33873 0.67488 0.45786 0.0
H163 H 0.36547 0.72993 0.38756 0.0
H164 H 0.42566 0.80616 0.3629 0.0
C165 C 0.42959 0.76947 0.3792 0.0
H166 H 0.45155 0.72679 0.37215 0.0
H167 H 0.27544 0.57562 0.40978 0.0
O168 O 0.56287 0.96485 0.49229 0.0
C169 C 0.3347 0.7222 0.47498 0.0
Co170 Co 0.15065 0.66978 0.13905 0.0
Co171 Co 0.31589 0.75199 0.10499 0.0
C172 C 0.28557 0.84832 0.14762 0.0
O173 O 0.21208 0.78651 0.15307 0.0
O174 O 0.33033 0.84272 0.1298 0.0
C175 C 0.98787 0.61965 0.16487 0.0
O176 O 1.00324 0.69753 0.16112 0.0
C177 C 0.42332 0.8649 0.06346 0.0
C178 C 0.51293 0.81826 0.05701 0.0
C179 C 0.49123 0.87682 0.04845 0.0
N180 N 0.40542 0.80193 0.08013 0.0
N181 N 0.45965 0.77475 0.07623 0.0
C182 C 0.37653 0.91282 0.06209 0.0
H183 H 0.31922 0.88269 0.07439 0.0
H184 H 0.35791 0.9154 0.04214 0.0
H185 H 0.41923 0.97916 0.06852 0.0
C186 C 0.06951 0.63987 0.08732 0.0
N187 N 0.13786 0.67118 0.1029 0.0
N188 N 0.20668 0.69778 0.08886 0.0
C189 C 0.18314 0.67861 0.06426 0.0
C190 C 0.0959 0.64233 0.06246 0.0
C191 C 0.98021 0.60961 0.09549 0.0
H192 H 0.97874 0.63504 0.11442 0.0
H193 H 0.94834 0.63011 0.08148 0.0
H194 H 0.94425 0.53926 0.09581 0.0
O195 O 0.21439 0.6107 0.14782 0.0
O196 O 0.33027 0.66629 0.12368 0.0
H197 H 0.2079 0.64079 0.02789 0.0
H198 H 0.2637 0.75263 0.03434 0.0
C199 C 0.24158 0.68938 0.04289 0.0
H200 H 0.29663 0.68478 0.04983 0.0
H201 H 0.45955 0.72554 0.08645 0.0
O202 O 0.04102 0.59881 0.15715 0.0
C203 C 0.28263 0.61397 0.14054 0.0
C204 C 0.40463 0.08297 0.16602 0.0
C205 C 0.39721 0.07822 0.19302 0.0
C206 C 0.32337 0.92263 0.19028 0.0
C207 C 0.32189 0.92738 0.16326 0.0
N208 N 0.34447 0.0132 0.12584 0.0
N209 N 0.33154 0.99245 0.23029 0.0
C210 C 0.35759 0.00793 0.15123 0.0
C211 C 0.35117 0.99768 0.205 0.0
N212 N 0.45998 0.15795 0.15441 0.0
N213 N 0.30275 0.84759 0.20199 0.0
H214 H 0.34788 0.04578 0.24153 0.0
H215 H 0.29119 0.93513 0.23938 0.0
H216 H 0.28638 0.79183 0.19204 0.0
H217 H 0.31107 0.84301 0.22144 0.0
H218 H 0.47388 0.16244 0.13503 0.0
H219 H 0.49904 0.21379 0.16439 0.0
H220 H 0.36225 0.07055 0.11668 0.0
H221 H 0.30779 0.95991 0.11452 0.0
C222 C 0.00878 0.34099 0.82077 0.0
C223 C 0.08862 0.39358 0.83257 0.0
C224 C 0.01781 0.35878 0.87424 0.0
C225 C 0.93725 0.31826 0.86201 0.0
N226 N 0.85807 0.28913 0.82255 0.0
N227 N 0.16633 0.46577 0.87073 0.0
C228 C 0.93308 0.31396 0.83495 0.0
C229 C 0.09267 0.40589 0.85941 0.0
N230 N 1.00505 0.31482 0.79617 0.0
N231 N 0.02334 0.35044 0.89992 0.0
H232 H 0.22182 0.5048 0.86065 0.0
H233 H 0.1697 0.48283 0.88982 0.0
H234 H 0.97035 0.31352 0.91127 0.0
H235 H 0.08103 0.37231 0.90939 0.0
H236 H 0.94847 0.27049 0.78741 0.0
H237 H 0.0593 0.32961 0.78562 0.0
H238 H 0.8541 0.29286 0.80284 0.0
H239 H 0.8018 0.2744 0.83188 0.0
C240 C 0.69867 0.73164 0.5015 0.0
C241 C 0.61087 0.6831 0.49516 0.0
C242 C 0.60456 0.55825 0.51512 0.0
C243 C 0.68823 0.60951 0.52479 0.0
N244 N 0.81044 0.74955 0.53045 0.0
N245 N 0.47578 0.55458 0.50197 0.0
C246 C 0.73432 0.69758 0.51884 0.0
C247 C 0.5625 0.59754 0.5036 0.0
N248 N 0.74889 0.80884 0.49029 0.0
N249 N 0.56596 0.47159 0.51594 0.0
H250 H 0.44117 0.58182 0.49513 0.0
H251 H 0.43781 0.49505 0.51021 0.0
H252 H 0.59581 0.43955 0.52294 0.0
H253 H 0.50823 0.43179 0.50692 0.0
H254 H 0.81475 0.84308 0.49236 0.0
H255 H 0.72607 0.83456 0.47681 0.0
H256 H 0.8424 0.81551 0.52877 0.0
H257 H 0.83768 0.72769 0.54372 0.0
C258 C 0.37582 0.59454 0.17143 0.0
C259 C 0.30966 0.55874 0.15314 0.0
C260 C 0.29338 0.41783 0.15989 0.0
C261 C 0.35695 0.45255 0.17918 0.0
N262 N 0.47399 0.57838 0.19855 0.0
N263 N 0.19968 0.43699 0.13109 0.0
C264 C 0.4029 0.54218 0.18354 0.0
C265 C 0.26694 0.47056 0.14764 0.0
N266 N 0.40913 0.67783 0.17847 0.0
N267 N 0.26307 0.33592 0.15192 0.0
H268 H 0.18154 0.47423 0.12072 0.0
H269 H 0.15846 0.37212 0.12866 0.0
H270 H 0.28498 0.29704 0.15917 0.0
H271 H 0.22291 0.30871 0.13636 0.0
H272 H 0.44847 0.70512 0.1942 0.0
H273 H 0.392 0.71879 0.16989 0.0
H274 H 0.51602 0.64356 0.19953 0.0
H275 H 0.49676 0.54463 0.20844 0.0
C276 C 0.47326 0.77862 0.84279 0.0
C277 C 0.45066 0.76646 0.8166 0.0
C278 C 0.53539 0.92077 0.81042 0.0
C279 C 0.56824 0.93037 0.83554 0.0
N280 N 0.58616 0.86181 0.87241 0.0
N281 N 0.47863 0.82676 0.77415 0.0
C282 C 0.54218 0.85738 0.85086 0.0
C283 C 0.48664 0.83772 0.79995 0.0
N284 N 0.42767 0.71629 0.86019 0.0
N285 N 0.54751 0.98995 0.79681 0.0
H286 H 0.44851 0.76724 0.76545 0.0
H287 H 0.5105 0.8768 0.76138 0.0
H288 H 0.57916 0.05156 0.80411 0.0
H289 H 0.5179 0.98475 0.77936 0.0
H290 H 0.43864 0.7256 0.87973 0.0
H291 H 0.37272 0.65966 0.85543 0.0
H292 H 0.57278 0.80848 0.88324 0.0
H293 H 0.64285 0.91636 0.87728 0.0
C294 C 0.12275 0.70534 0.49085 0.0
C295 C 0.10005 0.65498 0.51332 0.0
C296 C 0.22438 0.63702 0.50756 0.0
C297 C 0.25236 0.69643 0.48736 0.0
N298 N 0.23401 0.7947 0.46112 0.0
N299 N 0.13598 0.58072 0.54483 0.0
C300 C 0.20336 0.73304 0.47945 0.0
C301 C 0.15222 0.62219 0.52205 0.0
N302 N 0.06535 0.72246 0.47947 0.0
N303 N 0.26663 0.59434 0.51288 0.0
H304 H 0.08393 0.56715 0.55611 0.0
H305 H 0.17795 0.56557 0.55366 0.0
H306 H 0.32169 0.60591 0.50335 0.0
H307 H 0.24348 0.54277 0.52526 0.0
H308 H 0.07531 0.75173 0.46176 0.0
H309 H 1.0037 0.69903 0.48623 0.0
H310 H 0.20595 0.83091 0.45674 0.0
H311 H 0.29099 0.8139 0.4515 0.0
C312 C 0.60756 0.38032 0.85148 0.0
C313 C 0.56858 0.30755 0.86727 0.0
C314 C 0.42792 0.2872 0.85695 0.0
C315 C 0.46734 0.36269 0.842 0.0
N316 N 0.59676 0.49235 0.83051 0.0
N317 N 0.44426 0.19889 0.88859 0.0
C318 C 0.55771 0.41289 0.841 0.0
C319 C 0.47933 0.26265 0.87093 0.0
N320 N 0.6919 0.41627 0.8455 0.0
N321 N 0.34121 0.23958 0.85811 0.0
H322 H 0.48003 0.17929 0.89912 0.0
H323 H 0.38103 0.16947 0.89431 0.0
H324 H 0.30123 0.2602 0.85089 0.0
H325 H 0.30846 0.17834 0.86555 0.0
H326 H 0.72154 0.46273 0.83156 0.0
H327 H 0.73078 0.39416 0.85265 0.0
H328 H 0.66182 0.53472 0.83202 0.0
H329 H 0.56454 0.52035 0.82261 0.0
C330 C 0.66011 0.23591 0.51283 0.0
C331 C 0.69671 0.25277 0.53746 0.0
C332 C 0.69239 0.1157 0.53756 0.0
C333 C 0.6535 0.09754 0.51306 0.0
N334 N 0.58324 0.13258 0.47992 0.0
N335 N 0.73782 0.20671 0.57507 0.0
C336 C 0.63198 0.15514 0.50148 0.0
C337 C 0.70993 0.19196 0.55037 0.0
N338 N 0.65411 0.29812 0.49996 0.0
N339 N 0.71202 0.05967 0.54865 0.0
H340 H 0.75368 0.26295 0.5847 0.0
H341 H 0.74046 0.16177 0.58667 0.0
H342 H 0.69213 0.99925 0.54134 0.0
H343 H 0.75026 0.07353 0.56472 0.0
H344 H 0.63884 0.29427 0.48071 0.0
H345 H 0.67046 0.35684 0.50799 0.0
H346 H 0.55708 0.16746 0.4725 0.0
H347 H 0.56199 0.07535 0.47045 0.0
C348 C 0.85367 0.47547 0.16824 0.0
C349 C 0.91007 0.55714 0.17887 0.0
C350 C 0.81385 0.5257 0.21528 0.0
C351 C 0.7568 0.44592 0.20424 0.0
N352 N 0.71679 0.34463 0.17011 0.0
N353 N 0.95517 0.6496 0.21559 0.0
C354 C 0.77566 0.42035 0.18082 0.0
C355 C 0.89309 0.57958 0.20322 0.0
N356 N 0.87525 0.44958 0.14646 0.0
N357 N 0.7907 0.55126 0.23684 0.0
H358 H 0.01561 0.68845 0.20803 0.0
H359 H 0.9504 0.66476 0.23439 0.0
H360 H 0.73448 0.51229 0.24669 0.0
H361 H 0.824 0.61279 0.24408 0.0
H362 H 0.84277 0.38788 0.13938 0.0
H363 H 0.92919 0.48801 0.13587 0.0
H364 H 0.72001 0.32601 0.15163 0.0
H365 H 0.66105 0.30086 0.17936 0.0
C366 C 0.53637 0.03037 0.37403 0.0
C367 C 0.55999 0.96709 0.37424 0.0
C368 C 0.60977 1.00322 0.33012 0.0
C369 C 0.59595 0.07323 0.33128 0.0
N370 N 0.56774 0.16615 0.357 0.0
N371 N 0.63163 0.90147 0.35384 0.0
C372 C 0.56521 0.09043 0.35398 0.0
C373 C 0.60005 0.95551 0.35262 0.0
N374 N 0.48403 0.03161 0.39246 0.0
N375 N 0.63057 0.98133 0.30748 0.0
H376 H 0.62707 0.86645 0.37008 0.0
H377 H 0.66889 0.89694 0.33958 0.0
H378 H 0.63871 0.01525 0.2907 0.0
H379 H 0.63267 0.92566 0.30489 0.0
H380 H 0.45876 0.07183 0.39172 0.0
H381 H 0.4589 0.98666 0.40702 0.0
H382 H 0.55261 0.18469 0.37407 0.0
H383 H 0.59513 0.21442 0.34351 0.0
C384 C 0.91957 0.48518 0.01917 0.0
C385 C 0.93414 0.53355 0.99669 0.0
C386 C 0.04934 0.65741 0.01836 0.0
C387 C 0.04168 0.60516 0.03945 0.0
N388 N 0.98349 0.46332 0.05651 0.0
N389 N 0.02161 0.66305 0.97342 0.0
C390 C 0.98103 0.51715 0.03885 0.0
C391 C 1.00168 0.61907 0.99582 0.0
N392 N 0.84481 0.41092 0.02244 0.0
N393 N 0.0994 0.7437 0.02014 0.0
H394 H 0.98813 0.63693 0.95656 0.0
H395 H 0.07564 0.72256 0.97108 0.0
H396 H 0.1336 0.77417 0.03654 0.0
H397 H 0.10084 0.78531 1.00628 0.0
H398 H 0.8285 0.37656 0.03939 0.0
H399 H 0.79505 0.39023 1.00943 0.0
H400 H 0.94487 0.39748 0.05537 0.0
H401 H 0.02994 0.48358 0.07066 0.0
C402 C 0.42461 0.37305 0.70676 0.0
C403 C 0.42063 0.44854 0.70958 0.0
C404 C 0.46993 0.48765 0.66574 0.0
C405 C 0.48444 0.41821 0.66406 0.0
N406 N 0.49767 0.309 0.68636 0.0
N407 N 0.46587 0.59006 0.69404 0.0
C408 C 0.46841 0.36496 0.68558 0.0
C409 C 0.45168 0.50993 0.6898 0.0
N410 N 0.38391 0.30752 0.72358 0.0
N411 N 0.46865 0.52948 0.64433 0.0
H412 H 0.45773 0.6103 0.71187 0.0
H413 H 0.49457 0.63849 0.68059 0.0
H414 H 0.47524 0.51078 0.62608 0.0
H415 H 0.45136 0.57612 0.6446 0.0
H416 H 0.37889 0.24842 0.72085 0.0
H417 H 0.34774 0.30907 0.73874 0.0
H418 H 0.49357 0.27428 0.70261 0.0
H419 H 0.53483 0.30475 0.67196 0.0
C420 C 0.06434 0.53112 0.67205 0.0
C421 C 0.06282 0.57738 0.69362 0.0
C422 C 0.9535 0.59829 0.67303 0.0
C423 C 0.95209 0.5478 0.65221 0.0
N424 N 0.98837 0.4469 0.63529 0.0
N425 N 0.99569 0.6419 0.71687 0.0
C426 C 1.0019 0.50806 0.65281 0.0
C427 C 1.00398 0.60683 0.69482 0.0
N428 N 0.12821 0.51317 0.66917 0.0
N429 N 0.90933 0.64067 0.67157 0.0
H430 H 0.03216 0.64948 0.73307 0.0
H431 H 0.94813 0.65687 0.71985 0.0
H432 H 0.87106 0.63522 0.65605 0.0
H433 H 0.91519 0.68581 0.68485 0.0
H434 H 0.13744 0.48737 0.65259 0.0
H435 H 0.17726 0.53252 0.68229 0.0
H436 H 0.01711 0.40982 0.6364 0.0
H437 H 0.94198 0.42721 0.62113 0.0
C438 C 0.50195 0.49986 0.31919 0.0
C439 C 0.45004 0.41083 0.31602 0.0
C440 C 0.38275 0.40114 0.35723 0.0
C441 C 0.42526 0.49125 0.35854 0.0
N442 N 0.51876 0.6272 0.3389 0.0
N443 N 0.33556 0.27629 0.33066 0.0
C444 C 0.48362 0.54096 0.33911 0.0
C445 C 0.3891 0.36118 0.33473 0.0
N446 N 0.57021 0.54501 0.30354 0.0
N447 N 0.3386 0.35381 0.37787 0.0
H448 H 0.33901 0.24463 0.31454 0.0
H449 H 0.28359 0.23861 0.34225 0.0
H450 H 0.3348 0.38106 0.39495 0.0
H451 H 0.31317 0.28832 0.37901 0.0
H452 H 0.61579 0.6084 0.3067 0.0
H453 H 0.58594 0.51718 0.28873 0.0
H454 H 0.55263 0.66523 0.32351 0.0
H455 H 0.50919 0.66049 0.35331 0.0
C456 C 0.51441 0.98308 0.9843 0.0
C457 C 0.60272 0.04272 0.9838 0.0
C458 C 0.61557 1.00177 0.02739 0.0
C459 C 0.52986 0.93471 0.02634 0.0
N460 N 0.40707 0.84695 1.00035 0.0
N461 N 0.74097 0.09772 1.00324 0.0
C462 C 0.48164 0.92127 1.00384 0.0
C463 C 0.65452 0.04927 1.00494 0.0
N464 N 0.46132 0.98618 0.96647 0.0
N465 N 0.65926 0.02125 0.04987 0.0
H466 H 0.77208 0.13128 0.98686 0.0
H467 H 0.78197 0.09809 0.01717 0.0
H468 H 0.63259 0.98808 0.0667 0.0
H469 H 0.71903 0.07493 0.05229 0.0
H470 H 0.39538 0.94826 0.96747 0.0
H471 H 0.48237 0.03254 0.9523 0.0
H472 H 0.37276 0.83137 0.98336 0.0
H473 H 0.38607 0.79673 0.01315 0.0
loop_
_geom_bond_atom_site_label_1
_geom_bond_atom_site_label_2
_geom_bond_distance
_geom_bond_site_symmetry_2
_ccdc_geom_bond_type
Co0 O3 1.970 . S
Co0 N17 1.989 . S
Co0 O25 1.967 . S
Co0 O32 1.920 . S
Co1 O4 1.966 . S
Co1 N10 2.022 . S
Co1 N18 1.993 . S
Co1 O26 1.941 . S
C2 O3 1.258 . S
C2 O4 1.263 . S
O3 Co0 1.970 . S
O3 C2 1.258 . S
O4 Co1 1.966 . S
O4 C2 1.263 . S
C5 O6 1.235 . S
C5 O32 1.289 . S
O6 C5 1.235 . S
C7 C9 1.400 . S
C7 N10 1.351 . S
C7 C12 1.501 . S
C8 C9 1.387 . S
C8 N11 1.341 . S
C9 C7 1.400 . S
C9 C8 1.387 . S
N10 Co1 2.022 . S
N10 C7 1.351 . S
N10 N11 1.365 . S
N11 C8 1.341 . S
N11 N10 1.365 . S
N11 H31 0.862 . S
C12 C7 1.501 . S
C12 H13 0.961 . S
C12 H14 0.961 . S
C12 H15 0.960 . S
H13 C12 0.961 . S
H14 C12 0.961 . S
H15 C12 0.960 . S
C16 N17 1.342 . S
C16 C20 1.401 . S
C16 C21 1.499 . S
N17 Co0 1.989 . S
N17 C16 1.342 . S
N17 N18 1.388 . S
N18 Co1 1.993 . S
N18 N17 1.388 . S
N18 C19 1.346 . S
C19 N18 1.346 . S
C19 C20 1.396 . S
C19 C29 1.510 . S
C20 C16 1.401 . S
C20 C19 1.396 . S
C21 C16 1.499 . S
C21 H22 0.959 . S
C21 H23 0.960 . S
C21 H24 0.961 . S
H22 C21 0.959 . S
H23 C21 0.960 . S
H24 C21 0.961 . S
O25 Co0 1.967 . S
O25 C33 1.258 . S
O26 Co1 1.941 . S
O26 C33 1.266 . S
H27 C29 0.959 . S
H28 C29 0.961 . S
C29 C19 1.510 . S
C29 H27 0.959 . S
C29 H28 0.961 . S
C29 H30 0.960 . S
H30 C29 0.960 . S
H31 N11 0.862 . S
O32 Co0 1.920 . S
O32 C5 1.289 . S
C33 O25 1.258 . S
C33 O26 1.266 . S
Co34 O37 1.970 . S
Co34 N51 1.989 . S
Co34 O59 1.967 . S
Co34 O66 1.920 . S
Co35 O38 1.966 . S
Co35 N44 2.022 . S
Co35 N52 1.993 . S
Co35 O60 1.941 . S
C36 O37 1.258 . S
C36 O38 1.263 . S
O37 Co34 1.970 . S
O37 C36 1.258 . S
O38 Co35 1.966 . S
O38 C36 1.263 . S
C39 O40 1.235 . S
C39 O66 1.289 1_565 S
O40 C39 1.235 . S
C41 C43 1.400 . S
C41 N44 1.351 . S
C41 C46 1.501 . S
C42 C43 1.387 . S
C42 N45 1.341 . S
C43 C41 1.400 . S
C43 C42 1.387 . S
N44 Co35 2.022 . S
N44 C41 1.351 . S
N44 N45 1.365 . S
N45 C42 1.341 . S
N45 N44 1.365 . S
N45 H65 0.862 . S
C46 C41 1.501 . S
C46 H47 0.961 . S
C46 H48 0.961 . S
C46 H49 0.960 . S
H47 C46 0.961 . S
H48 C46 0.961 . S
H49 C46 0.960 . S
C50 N51 1.342 . S
C50 C54 1.401 . S
C50 C55 1.499 1_545 S
N51 Co34 1.989 . S
N51 C50 1.342 . S
N51 N52 1.388 . S
N52 Co35 1.993 . S
N52 N51 1.388 . S
N52 C53 1.346 . S
C53 N52 1.346 . S
C53 C54 1.396 . S
C53 C63 1.510 . S
C54 C50 1.401 . S
C54 C53 1.396 . S
C55 C50 1.499 1_565 S
C55 H56 0.959 . S
C55 H57 0.960 . S
C55 H58 0.961 . S
H56 C55 0.959 . S
H57 C55 0.960 . S
H58 C55 0.961 . S
O59 Co34 1.967 . S
O59 C67 1.258 . S
O60 Co35 1.941 . S
O60 C67 1.266 . S
H61 C63 0.959 . S
H62 C63 0.961 . S
C63 C53 1.510 . S
C63 H61 0.959 . S
C63 H62 0.961 . S
C63 H64 0.960 . S
H64 C63 0.960 . S
H65 N45 0.862 . S
O66 Co34 1.920 . S
O66 C39 1.289 1_545 S
C67 O59 1.258 . S
C67 O60 1.266 . S
Co68 O71 1.970 . S
Co68 N85 1.989 . S
Co68 O93 1.967 . S
Co68 O100 1.920 . S
Co69 O72 1.966 . S
Co69 N78 2.022 . S
Co69 N86 1.993 . S
Co69 O94 1.941 . S
C70 O71 1.258 . S
C70 O72 1.263 . S
O71 Co68 1.970 . S
O71 C70 1.258 . S
O72 Co69 1.966 . S
O72 C70 1.263 . S
C73 O74 1.235 . S
C73 O100 1.289 1_455 S
O74 C73 1.235 . S
C75 C77 1.400 . S
C75 N78 1.351 . S
C75 C80 1.501 . S
C76 C77 1.387 . S
C76 N79 1.341 . S
C77 C75 1.400 . S
C77 C76 1.387 . S
N78 Co69 2.022 . S
N78 C75 1.351 . S
N78 N79 1.365 . S
N79 C76 1.341 . S
N79 N78 1.365 . S
N79 H99 0.862 . S
C80 C75 1.501 . S
C80 H81 0.961 . S
C80 H82 0.961 . S
C80 H83 0.960 . S
H81 C80 0.961 . S
H82 C80 0.961 . S
H83 C80 0.960 . S
C84 N85 1.342 . S
C84 C88 1.401 . S
C84 C89 1.499 1_655 S
N85 Co68 1.989 . S
N85 C84 1.342 . S
N85 N86 1.388 . S
N86 Co69 1.993 . S
N86 N85 1.388 . S
N86 C87 1.346 . S
C87 N86 1.346 . S
C87 C88 1.396 . S
C87 C97 1.510 . S
C88 C84 1.401 . S
C88 C87 1.396 . S
C89 C84 1.499 1_455 S
C89 H90 0.959 . S
C89 H91 0.960 . S
C89 H92 0.961 . S
H90 C89 0.959 . S
H91 C89 0.960 . S
H92 C89 0.961 . S
O93 Co68 1.967 . S
O93 C101 1.258 . S
O94 Co69 1.941 . S
O94 C101 1.266 . S
H95 C97 0.959 . S
H96 C97 0.961 . S
C97 C87 1.510 . S
C97 H95 0.959 . S
C97 H96 0.961 . S
C97 H98 0.960 . S
H98 C97 0.960 . S
H99 N79 0.862 . S
O100 Co68 1.920 . S
O100 C73 1.289 1_655 S
C101 O93 1.258 . S
C101 O94 1.266 . S
Co102 O105 1.970 . S
Co102 N119 1.989 . S
Co102 O127 1.967 . S
Co102 O134 1.920 . S
Co103 O106 1.966 . S
Co103 N112 2.022 . S
Co103 N120 1.993 . S
Co103 O128 1.941 . S
C104 O105 1.258 . S
C104 O106 1.263 . S
O105 Co102 1.970 . S
O105 C104 1.258 . S
O106 Co103 1.966 . S
O106 C104 1.263 . S
C107 O108 1.235 . S
C107 O134 1.289 . S
O108 C107 1.235 . S
C109 C111 1.400 . S
C109 N112 1.351 . S
C109 C114 1.501 . S
C110 C111 1.387 . S
C110 N113 1.341 . S
C111 C109 1.400 . S
C111 C110 1.387 . S
N112 Co103 2.022 . S
N112 C109 1.351 . S
N112 N113 1.365 . S
N113 C110 1.341 . S
N113 N112 1.365 . S
N113 H133 0.862 . S
C114 C109 1.501 . S
C114 H115 0.961 . S
C114 H116 0.961 . S
C114 H117 0.960 . S
H115 C114 0.961 . S
H116 C114 0.961 . S
H117 C114 0.960 . S
C118 N119 1.342 . S
C118 C122 1.401 . S
C118 C123 1.499 . S
N119 Co102 1.989 . S
N119 C118 1.342 . S
N119 N120 1.388 . S
N120 Co103 1.993 . S
N120 N119 1.388 . S
N120 C121 1.346 . S
C121 N120 1.346 . S
C121 C122 1.396 . S
C121 C131 1.510 . S
C122 C118 1.401 . S
C122 C121 1.396 . S
C123 C118 1.499 . S
C123 H124 0.959 . S
C123 H125 0.960 . S
C123 H126 0.961 . S
H124 C123 0.959 . S
H125 C123 0.960 . S
H126 C123 0.961 . S
O127 Co102 1.967 . S
O127 C135 1.258 . S
O128 Co103 1.941 . S
O128 C135 1.266 . S
H129 C131 0.959 . S
H130 C131 0.961 . S
C131 C121 1.510 . S
C131 H129 0.959 . S
C131 H130 0.961 . S
C131 H132 0.960 . S
H132 C131 0.960 . S
H133 N113 0.862 . S
O134 Co102 1.920 . S
O134 C107 1.289 . S
C135 O127 1.258 . S
C135 O128 1.266 . S
Co136 O139 1.970 . S
Co136 N153 1.989 . S
Co136 O161 1.967 . S
Co136 O168 1.920 . S
Co137 O140 1.966 . S
Co137 N146 2.022 . S
Co137 N154 1.993 . S
Co137 O162 1.941 . S
C138 O139 1.258 . S
C138 O140 1.263 . S
O139 Co136 1.970 . S
O139 C138 1.258 . S
O140 Co137 1.966 . S
O140 C138 1.263 . S
C141 O142 1.235 . S
C141 O168 1.289 1_545 S
O142 C141 1.235 . S
C143 C145 1.400 . S
C143 N146 1.351 . S
C143 C148 1.501 . S
C144 C145 1.387 . S
C144 N147 1.341 . S
C145 C143 1.400 . S
C145 C144 1.387 . S
N146 Co137 2.022 . S
N146 C143 1.351 . S
N146 N147 1.365 . S
N147 C144 1.341 . S
N147 N146 1.365 . S
N147 H167 0.862 . S
C148 C143 1.501 . S
C148 H149 0.961 . S
C148 H150 0.961 . S
C148 H151 0.960 . S
H149 C148 0.961 . S
H150 C148 0.961 . S
H151 C148 0.960 . S
C152 N153 1.342 . S
C152 C156 1.401 . S
C152 C157 1.499 1_565 S
N153 Co136 1.989 . S
N153 C152 1.342 . S
N153 N154 1.388 . S
N154 Co137 1.993 . S
N154 N153 1.388 . S
N154 C155 1.346 . S
C155 N154 1.346 . S
C155 C156 1.396 . S
C155 C165 1.510 . S
C156 C152 1.401 . S
C156 C155 1.396 . S
C157 C152 1.499 1_545 S
C157 H158 0.959 . S
C157 H159 0.960 . S
C157 H160 0.961 . S
H158 C157 0.959 . S
H159 C157 0.960 . S
H160 C157 0.961 . S
O161 Co136 1.967 . S
O161 C169 1.258 . S
O162 Co137 1.941 . S
O162 C169 1.266 . S
H163 C165 0.959 . S
H164 C165 0.961 . S
C165 C155 1.510 . S
C165 H163 0.959 . S
C165 H164 0.961 . S
C165 H166 0.960 . S
H166 C165 0.960 . S
H167 N147 0.862 . S
O168 Co136 1.920 . S
O168 C141 1.289 1_565 S
C169 O161 1.258 . S
C169 O162 1.266 . S
Co170 O173 1.970 . S
Co170 N187 1.989 . S
Co170 O195 1.967 . S
Co170 O202 1.920 . S
Co171 O174 1.966 . S
Co171 N180 2.022 . S
Co171 N188 1.993 . S
Co171 O196 1.941 . S
C172 O173 1.258 . S
C172 O174 1.263 . S
O173 Co170 1.970 . S
O173 C172 1.258 . S
O174 Co171 1.966 . S
O174 C172 1.263 . S
C175 O176 1.235 . S
C175 O202 1.289 1_655 S
O176 C175 1.235 . S
C177 C179 1.400 . S
C177 N180 1.351 . S
C177 C182 1.501 . S
C178 C179 1.387 . S
C178 N181 1.341 . S
C179 C177 1.400 . S
C179 C178 1.387 . S
N180 Co171 2.022 . S
N180 C177 1.351 . S
N180 N181 1.365 . S
N181 C178 1.341 . S
N181 N180 1.365 . S
N181 H201 0.862 . S
C182 C177 1.501 . S
C182 H183 0.961 . S
C182 H184 0.961 . S
C182 H185 0.960 . S
H183 C182 0.961 . S
H184 C182 0.961 . S
H185 C182 0.960 . S
C186 N187 1.342 . S
C186 C190 1.401 . S
C186 C191 1.499 1_455 S
N187 Co170 1.989 . S
N187 C186 1.342 . S
N187 N188 1.388 . S
N188 Co171 1.993 . S
N188 N187 1.388 . S
N188 C189 1.346 . S
C189 N188 1.346 . S
C189 C190 1.396 . S
C189 C199 1.510 . S
C190 C186 1.401 . S
C190 C189 1.396 . S
C191 C186 1.499 1_655 S
C191 H192 0.959 . S
C191 H193 0.960 . S
C191 H194 0.961 . S
H192 C191 0.959 . S
H193 C191 0.960 . S
H194 C191 0.961 . S
O195 Co170 1.967 . S
O195 C203 1.258 . S
O196 Co171 1.941 . S
O196 C203 1.266 . S
H197 C199 0.959 . S
H198 C199 0.961 . S
C199 C189 1.510 . S
C199 H197 0.959 . S
C199 H198 0.961 . S
C199 H200 0.960 . S
H200 C199 0.960 . S
H201 N181 0.862 . S
O202 Co170 1.920 . S
O202 C175 1.289 1_455 S
C203 O195 1.258 . S
C203 O196 1.266 . S
C204 C205 1.363 . S
C204 C210 1.379 . S
C204 N212 1.356 . S
C205 C204 1.363 . S
C205 C211 1.363 1_545 S
C206 C207 1.363 . S
C206 C211 1.379 . S
C206 N213 1.356 . S
C207 C206 1.363 . S
C207 C210 1.363 1_565 S
N208 C210 1.356 1_565 S
N208 H220 0.984 1_565 S
N208 H221 0.985 . S
N209 C211 1.356 1_545 S
N209 H214 0.984 . S
N209 H215 0.985 1_545 S
C210 C204 1.379 . S
C210 C207 1.363 1_545 S
C210 N208 1.356 1_545 S
C211 C205 1.363 1_565 S
C211 C206 1.379 . S
C211 N209 1.356 1_565 S
N212 C204 1.356 . S
N212 H218 0.984 . S
N212 H219 0.984 . S
N213 C206 1.356 . S
N213 H216 0.984 . S
N213 H217 0.985 . S
H214 N209 0.984 . S
H215 N209 0.985 1_565 S
H216 N213 0.984 . S
H217 N213 0.985 . S
H218 N212 0.984 . S
H219 N212 0.984 . S
H220 N208 0.984 1_545 S
H221 N208 0.985 . S
C222 C223 1.363 1_655 S
C222 C228 1.379 . S
C222 N230 1.356 1_655 S
C223 C222 1.363 1_455 S
C223 C229 1.363 . S
C224 C225 1.363 1_455 S
C224 C229 1.379 . S
C224 N231 1.356 1_455 S
C225 C224 1.363 1_655 S
C225 C228 1.363 . S
N226 C228 1.356 . S
N226 H238 0.984 . S
N226 H239 0.985 . S
N227 C229 1.356 . S
N227 H232 0.984 . S
N227 H233 0.985 . S
C228 C222 1.379 . S
C228 C225 1.363 . S
C228 N226 1.356 . S
C229 C223 1.363 . S
C229 C224 1.379 . S
C229 N227 1.356 . S
N230 C222 1.356 1_455 S
N230 H236 0.984 1_455 S
N230 H237 0.984 . S
N231 C224 1.356 1_655 S
N231 H234 0.984 . S
N231 H235 0.985 1_655 S
H232 N227 0.984 . S
H233 N227 0.985 . S
H234 N231 0.984 . S
H235 N231 0.985 1_455 S
H236 N230 0.984 1_655 S
H237 N230 0.984 . S
H238 N226 0.984 . S
H239 N226 0.985 . S
C240 C241 1.363 . S
C240 C246 1.379 . S
C240 N248 1.356 . S
C241 C240 1.363 . S
C241 C247 1.363 . S
C242 C243 1.363 . S
C242 C247 1.379 . S
C242 N249 1.356 . S
C243 C242 1.363 . S
C243 C246 1.363 . S
N244 C246 1.356 . S
N244 H256 0.984 . S
N244 H257 0.985 . S
N245 C247 1.356 . S
N245 H250 0.984 . S
N245 H251 0.985 . S
C246 C240 1.379 . S
C246 C243 1.363 . S
C246 N244 1.356 . S
C247 C241 1.363 . S
C247 C242 1.379 . S
C247 N245 1.356 . S
N248 C240 1.356 . S
N248 H254 0.984 . S
N248 H255 0.984 . S
N249 C242 1.356 . S
N249 H252 0.984 . S
N249 H253 0.985 . S
H250 N245 0.984 . S
H251 N245 0.985 . S
H252 N249 0.984 . S
H253 N249 0.985 . S
H254 N248 0.984 . S
H255 N248 0.984 . S
H256 N244 0.984 . S
H257 N244 0.985 . S
C258 C259 1.363 . S
C258 C264 1.379 . S
C258 N266 1.356 . S
C259 C258 1.363 . S
C259 C265 1.363 . S
C260 C261 1.363 . S
C260 C265 1.379 . S
C260 N267 1.356 . S
C261 C260 1.363 . S
C261 C264 1.363 . S
N262 C264 1.356 . S
N262 H274 0.984 . S
N262 H275 0.985 . S
N263 C265 1.356 . S
N263 H268 0.984 . S
N263 H269 0.985 . S
C264 C258 1.379 . S
C264 C261 1.363 . S
C264 N262 1.356 . S
C265 C259 1.363 . S
C265 C260 1.379 . S
C265 N263 1.356 . S
N266 C258 1.356 . S
N266 H272 0.984 . S
N266 H273 0.984 . S
N267 C260 1.356 . S
N267 H270 0.984 . S
N267 H271 0.985 . S
H268 N263 0.984 . S
H269 N263 0.985 . S
H270 N267 0.984 . S
H271 N267 0.985 . S
H272 N266 0.984 . S
H273 N266 0.984 . S
H274 N262 0.984 . S
H275 N262 0.985 . S
C276 C277 1.363 . S
C276 C282 1.379 . S
C276 N284 1.356 . S
C277 C276 1.363 . S
C277 C283 1.363 . S
C278 C279 1.363 . S
C278 C283 1.379 . S
C278 N285 1.356 . S
C279 C278 1.363 . S
C279 C282 1.363 . S
N280 C282 1.356 . S
N280 H292 0.984 . S
N280 H293 0.985 . S
N281 C283 1.356 . S
N281 H286 0.984 . S
N281 H287 0.985 . S
C282 C276 1.379 . S
C282 C279 1.363 . S
C282 N280 1.356 . S
C283 C277 1.363 . S
C283 C278 1.379 . S
C283 N281 1.356 . S
N284 C276 1.356 . S
N284 H290 0.984 . S
N284 H291 0.984 . S
N285 C278 1.356 . S
N285 H288 0.984 . S
N285 H289 0.985 . S
H286 N281 0.984 . S
H287 N281 0.985 . S
H288 N285 0.984 . S
H289 N285 0.985 . S
H290 N284 0.984 . S
H291 N284 0.984 . S
H292 N280 0.984 . S
H293 N280 0.985 . S
C294 C295 1.363 . S
C294 C300 1.379 . S
C294 N302 1.356 . S
C295 C294 1.363 . S
C295 C301 1.363 . S
C296 C297 1.363 . S
C296 C301 1.379 . S
C296 N303 1.356 . S
C297 C296 1.363 . S
C297 C300 1.363 . S
N298 C300 1.356 . S
N298 H310 0.984 . S
N298 H311 0.985 . S
N299 C301 1.356 . S
N299 H304 0.984 . S
N299 H305 0.985 . S
C300 C294 1.379 . S
C300 C297 1.363 . S
C300 N298 1.356 . S
C301 C295 1.363 . S
C301 C296 1.379 . S
C301 N299 1.356 . S
N302 C294 1.356 . S
N302 H308 0.984 . S
N302 H309 0.984 . S
N303 C296 1.356 . S
N303 H306 0.984 . S
N303 H307 0.985 . S
H304 N299 0.984 . S
H305 N299 0.985 . S
H306 N303 0.984 . S
H307 N303 0.985 . S
H308 N302 0.984 . S
H309 N302 0.984 . S
H310 N298 0.984 . S
H311 N298 0.985 . S
C312 C313 1.363 . S
C312 C318 1.379 . S
C312 N320 1.356 . S
C313 C312 1.363 . S
C313 C319 1.363 . S
C314 C315 1.363 . S
C314 C319 1.379 . S
C314 N321 1.356 . S
C315 C314 1.363 . S
C315 C318 1.363 . S
N316 C318 1.356 . S
N316 H328 0.984 . S
N316 H329 0.985 . S
N317 C319 1.356 . S
N317 H322 0.984 . S
N317 H323 0.985 . S
C318 C312 1.379 . S
C318 C315 1.363 . S
C318 N316 1.356 . S
C319 C313 1.363 . S
C319 C314 1.379 . S
C319 N317 1.356 . S
N320 C312 1.356 . S
N320 H326 0.984 . S
N320 H327 0.984 . S
N321 C314 1.356 . S
N321 H324 0.984 . S
N321 H325 0.985 . S
H322 N317 0.984 . S
H323 N317 0.985 . S
H324 N321 0.984 . S
H325 N321 0.985 . S
H326 N320 0.984 . S
H327 N320 0.984 . S
H328 N316 0.984 . S
H329 N316 0.985 . S
C330 C331 1.363 . S
C330 C336 1.379 . S
C330 N338 1.356 . S
C331 C330 1.363 . S
C331 C337 1.363 . S
C332 C333 1.363 . S
C332 C337 1.379 . S
C332 N339 1.356 . S
C333 C332 1.363 . S
C333 C336 1.363 . S
N334 C336 1.356 . S
N334 H346 0.984 . S
N334 H347 0.985 . S
N335 C337 1.356 . S
N335 H340 0.984 . S
N335 H341 0.985 . S
C336 C330 1.379 . S
C336 C333 1.363 . S
C336 N334 1.356 . S
C337 C331 1.363 . S
C337 C332 1.379 . S
C337 N335 1.356 . S
N338 C330 1.356 . S
N338 H344 0.984 . S
N338 H345 0.984 . S
N339 C332 1.356 . S
N339 H342 0.984 . S
N339 H343 0.985 . S
H340 N335 0.984 . S
H341 N335 0.985 . S
H342 N339 0.984 . S
H343 N339 0.985 . S
H344 N338 0.984 . S
H345 N338 0.984 . S
H346 N334 0.984 . S
H347 N334 0.985 . S
C348 C349 1.363 . S
C348 C354 1.379 . S
C348 N356 1.356 . S
C349 C348 1.363 . S
C349 C355 1.363 . S
C350 C351 1.363 . S
C350 C355 1.379 . S
C350 N357 1.356 . S
C351 C350 1.363 . S
C351 C354 1.363 . S
N352 C354 1.356 . S
N352 H364 0.984 . S
N352 H365 0.985 . S
N353 C355 1.356 . S
N353 H358 0.984 . S
N353 H359 0.985 . S
C354 C348 1.379 . S
C354 C351 1.363 . S
C354 N352 1.356 . S
C355 C349 1.363 . S
C355 C350 1.379 . S
C355 N353 1.356 . S
N356 C348 1.356 . S
N356 H362 0.984 . S
N356 H363 0.984 . S
N357 C350 1.356 . S
N357 H360 0.984 . S
N357 H361 0.985 . S
H358 N353 0.984 . S
H359 N353 0.985 . S
H360 N357 0.984 . S
H361 N357 0.985 . S
H362 N356 0.984 . S
H363 N356 0.984 . S
H364 N352 0.984 . S
H365 N352 0.985 . S
C366 C367 1.363 1_545 S
C366 C372 1.379 . S
C366 N374 1.356 . S
C367 C366 1.363 1_565 S
C367 C373 1.363 . S
C368 C369 1.363 . S
C368 C373 1.379 1_545 S
C368 N375 1.356 . S
C369 C368 1.363 . S
C369 C372 1.363 . S
N370 C372 1.356 . S
N370 H382 0.984 . S
N370 H383 0.985 . S
N371 C373 1.356 . S
N371 H376 0.984 . S
N371 H377 0.985 . S
C372 C366 1.379 . S
C372 C369 1.363 . S
C372 N370 1.356 . S
C373 C367 1.363 . S
C373 C368 1.379 1_565 S
C373 N371 1.356 . S
N374 C366 1.356 . S
N374 H380 0.984 . S
N374 H381 0.984 1_545 S
N375 C368 1.356 . S
N375 H378 0.984 . S
N375 H379 0.985 . S
H376 N371 0.984 . S
H377 N371 0.985 . S
H378 N375 0.984 . S
H379 N375 0.985 . S
H380 N374 0.984 . S
H381 N374 0.984 1_565 S
H382 N370 0.984 . S
H383 N370 0.985 . S
C384 C385 1.363 1_554 S
C384 C390 1.379 . S
C384 N392 1.356 . S
C385 C384 1.363 1_556 S
C385 C391 1.363 1_655 S
C386 C387 1.363 . S
C386 C391 1.379 1_554 S
C386 N393 1.356 . S
C387 C386 1.363 . S
C387 C390 1.363 1_455 S
N388 C390 1.356 . S
N388 H400 0.984 . S
N388 H401 0.985 . S
N389 C391 1.356 . S
N389 H394 0.984 1_455 S
N389 H395 0.985 . S
C390 C384 1.379 . S
C390 C387 1.363 1_655 S
C390 N388 1.356 . S
C391 C385 1.363 1_455 S
C391 C386 1.379 1_556 S
C391 N389 1.356 . S
N392 C384 1.356 . S
N392 H398 0.984 . S
N392 H399 0.984 1_554 S
N393 C386 1.356 . S
N393 H396 0.984 . S
N393 H397 0.985 . S
H394 N389 0.984 1_655 S
H395 N389 0.985 . S
H396 N393 0.984 . S
H397 N393 0.985 . S
H398 N392 0.984 . S
H399 N392 0.984 1_556 S
H400 N388 0.984 . S
H401 N388 0.985 . S
C402 C403 1.363 . S
C402 C408 1.379 . S
C402 N410 1.356 . S
C403 C402 1.363 . S
C403 C409 1.363 . S
C404 C405 1.363 . S
C404 C409 1.379 . S
C404 N411 1.356 . S
C405 C404 1.363 . S
C405 C408 1.363 . S
N406 C408 1.356 . S
N406 H418 0.984 . S
N406 H419 0.985 . S
N407 C409 1.356 . S
N407 H412 0.984 . S
N407 H413 0.985 . S
C408 C402 1.379 . S
C408 C405 1.363 . S
C408 N406 1.356 . S
C409 C403 1.363 . S
C409 C404 1.379 . S
C409 N407 1.356 . S
N410 C402 1.356 . S
N410 H416 0.984 . S
N410 H417 0.984 . S
N411 C404 1.356 . S
N411 H414 0.984 . S
N411 H415 0.985 . S
H412 N407 0.984 . S
H413 N407 0.985 . S
H414 N411 0.984 . S
H415 N411 0.985 . S
H416 N410 0.984 . S
H417 N410 0.984 . S
H418 N406 0.984 . S
H419 N406 0.985 . S
C420 C421 1.363 . S
C420 C426 1.379 . S
C420 N428 1.356 . S
C421 C420 1.363 . S
C421 C427 1.363 . S
C422 C423 1.363 1_455 S
C422 C427 1.379 . S
C422 N429 1.356 1_455 S
C423 C422 1.363 1_655 S
C423 C426 1.363 1_655 S
N424 C426 1.356 1_655 S
N424 H436 0.984 . S
N424 H437 0.985 . S
N425 C427 1.356 . S
N425 H430 0.984 . S
N425 H431 0.985 . S
C426 C420 1.379 . S
C426 C423 1.363 1_455 S
C426 N424 1.356 1_455 S
C427 C421 1.363 . S
C427 C422 1.379 . S
C427 N425 1.356 . S
N428 C420 1.356 . S
N428 H434 0.984 . S
N428 H435 0.984 . S
N429 C422 1.356 1_655 S
N429 H432 0.984 . S
N429 H433 0.985 . S
H430 N425 0.984 . S
H431 N425 0.985 . S
H432 N429 0.984 . S
H433 N429 0.985 . S
H434 N428 0.984 . S
H435 N428 0.984 . S
H436 N424 0.984 . S
H437 N424 0.985 . S
C438 C439 1.363 . S
C438 C444 1.379 . S
C438 N446 1.356 . S
C439 C438 1.363 . S
C439 C445 1.363 . S
C440 C441 1.363 . S
C440 C445 1.379 . S
C440 N447 1.356 . S
C441 C440 1.363 . S
C441 C444 1.363 . S
N442 C444 1.356 . S
N442 H454 0.984 . S
N442 H455 0.985 . S
N443 C445 1.356 . S
N443 H448 0.984 . S
N443 H449 0.985 . S
C444 C438 1.379 . S
C444 C441 1.363 . S
C444 N442 1.356 . S
C445 C439 1.363 . S
C445 C440 1.379 . S
C445 N443 1.356 . S
N446 C438 1.356 . S
N446 H452 0.984 . S
N446 H453 0.984 . S
N447 C440 1.356 . S
N447 H450 0.984 . S
N447 H451 0.985 . S
H448 N443 0.984 . S
H449 N443 0.985 . S
H450 N447 0.984 . S
H451 N447 0.985 . S
H452 N446 0.984 . S
H453 N446 0.984 . S
H454 N442 0.984 . S
H455 N442 0.985 . S
C456 C457 1.363 1_565 S
C456 C462 1.379 . S
C456 N464 1.356 . S
C457 C456 1.363 1_545 S
C457 C463 1.363 . S
C458 C459 1.363 1_545 S
C458 C463 1.379 1_554 S
C458 N465 1.356 . S
C459 C458 1.363 1_565 S
C459 C462 1.363 1_554 S
N460 C462 1.356 . S
N460 H472 0.984 . S
N460 H473 0.985 1_556 S
N461 C463 1.356 . S
N461 H466 0.984 . S
N461 H467 0.985 . S
C462 C456 1.379 . S
C462 C459 1.363 1_556 S
C462 N460 1.356 . S
C463 C457 1.363 . S
C463 C458 1.379 1_556 S
C463 N461 1.356 . S
N464 C456 1.356 . S
N464 H470 0.984 . S
N464 H471 0.984 . S
N465 C458 1.356 . S
N465 H468 0.984 1_545 S
N465 H469 0.985 . S
H466 N461 0.984 . S
H467 N461 0.985 . S
H468 N465 0.984 1_565 S
H469 N465 0.985 . S
H470 N464 0.984 . S
H471 N464 0.984 . S
H472 N460 0.984 . S
H473 N460 0.985 1_554 S
C205 C2 1.972 . S
C207 C172 1.972 . S
C223 C104 1.972 . S
C225 C36 1.972 . S
C241 C138 1.972 . S
C243 C70 1.972 . S
C259 C203 1.549 . S
C261 C5 1.537 . S
C277 C135 1.549 . S
C279 C39 1.537 . S
C295 C73 1.537 . S
C297 C169 1.549 . S
C313 C67 1.549 . S
C315 C107 1.537 . S
C331 C101 1.549 . S
C333 C141 1.537 . S
C349 C175 1.537 . S
C351 C33 1.549 . S
C367 C156 1.340 . S
C369 C9 1.296 . S
C385 C43 1.296 . S
C387 C190 1.340 . S
C403 C122 1.340 . S
C405 C77 1.296 . S
C421 C111 1.296 . S
C423 C88 1.340 . S
C439 C20 1.340 . S
C441 C145 1.296 . S
C457 C54 1.340 . S
C459 C179 1.296 . S
