# Generated by pormake.
# Topology smd, (6)-cn, num edge types: 1
# Building blocks:
#     Node 0, Type 0, BuildingBlock: OJICUG_clean_sbu_0, # of connection points: 6
#     Node 1, Type 0, BuildingBlock: OJICUG_clean_sbu_0, # of connection points: 6
#     Node 2, Type 0, BuildingBlock: OJICUG_clean_sbu_0, # of connection points: 6
#     Node 3, Type 0, BuildingBlock: OJICUG_clean_sbu_0, # of connection points: 6
#     Node 4, Type 0, BuildingBlock: OJICUG_clean_sbu_0, # of connection points: 6
#     Node 5, Type 0, BuildingBlock: OJICUG_clean_sbu_0, # of connection points: 6
#     Node 6, Type 0, BuildingBlock: OJICUG_clean_sbu_0, # of connection points: 6
#     Node 7, Type 0, BuildingBlock: OJICUG_clean_sbu_0, # of connection points: 6
#     Node 8, Type 0, BuildingBlock: OJICUG_clean_sbu_0, # of connection points: 6
#     Node 9, Type 0, BuildingBlock: OJICUG_clean_sbu_0, # of connection points: 6
#     Node 10, Type 0, BuildingBlock: OJICUG_clean_sbu_0, # of connection points: 6
#     Node 11, Type 0, BuildingBlock: OJICUG_clean_sbu_0, # of connection points: 6
#     Node 12, Type 0, BuildingBlock: OJICUG_clean_sbu_0, # of connection points: 6
#     Node 13, Type 0, BuildingBlock: OJICUG_clean_sbu_0, # of connection points: 6
#     Node 14, Type 0, BuildingBlock: OJICUG_clean_sbu_0, # of connection points: 6
#     Node 15, Type 0, BuildingBlock: OJICUG_clean_sbu_0, # of connection points: 6
#     Node 16, Type 0, BuildingBlock: OJICUG_clean_sbu_0, # of connection points: 6
#     Node 17, Type 0, BuildingBlock: OJICUG_clean_sbu_0, # of connection points: 6
#     Edge 18, Type (0, 0), BuildingBlock: AJUNOK_clean_linker_0, # of connection points: 2
#     Edge 19, Type (0, 0), BuildingBlock: AJUNOK_clean_linker_0, # of connection points: 2
#     Edge 20, Type (0, 0), BuildingBlock: AJUNOK_clean_linker_0, # of connection points: 2
#     Edge 21, Type (0, 0), BuildingBlock: AJUNOK_clean_linker_0, # of connection points: 2
#     Edge 22, Type (0, 0), BuildingBlock: AJUNOK_clean_linker_0, # of connection points: 2
#     Edge 23, Type (0, 0), BuildingBlock: AJUNOK_clean_linker_0, # of connection points: 2
#     Edge 24, Type (0, 0), BuildingBlock: AJUNOK_clean_linker_0, # of connection points: 2
#     Edge 25, Type (0, 0), BuildingBlock: AJUNOK_clean_linker_0, # of connection points: 2
#     Edge 26, Type (0, 0), BuildingBlock: AJUNOK_clean_linker_0, # of connection points: 2
#     Edge 27, Type (0, 0), BuildingBlock: AJUNOK_clean_linker_0, # of connection points: 2
#     Edge 28, Type (0, 0), BuildingBlock: AJUNOK_clean_linker_0, # of connection points: 2
#     Edge 29, Type (0, 0), BuildingBlock: AJUNOK_clean_linker_0, # of connection points: 2
#     Edge 30, Type (0, 0), BuildingBlock: AJUNOK_clean_linker_0, # of connection points: 2
#     Edge 31, Type (0, 0), BuildingBlock: AJUNOK_clean_linker_0, # of connection points: 2
#     Edge 32, Type (0, 0), BuildingBlock: AJUNOK_clean_linker_0, # of connection points: 2
#     Edge 33, Type (0, 0), BuildingBlock: AJUNOK_clean_linker_0, # of connection points: 2
#     Edge 34, Type (0, 0), BuildingBlock: AJUNOK_clean_linker_0, # of connection points: 2
#     Edge 35, Type (0, 0), BuildingBlock: AJUNOK_clean_linker_0, # of connection points: 2
#     Edge 36, Type (0, 0), BuildingBlock: AJUNOK_clean_linker_0, # of connection points: 2
#     Edge 37, Type (0, 0), BuildingBlock: AJUNOK_clean_linker_0, # of connection points: 2
#     Edge 38, Type (0, 0), BuildingBlock: AJUNOK_clean_linker_0, # of connection points: 2
#     Edge 39, Type (0, 0), BuildingBlock: AJUNOK_clean_linker_0, # of connection points: 2
#     Edge 40, Type (0, 0), BuildingBlock: AJUNOK_clean_linker_0, # of connection points: 2
#     Edge 41, Type (0, 0), BuildingBlock: AJUNOK_clean_linker_0, # of connection points: 2
#     Edge 42, Type (0, 0), BuildingBlock: AJUNOK_clean_linker_0, # of connection points: 2
#     Edge 43, Type (0, 0), BuildingBlock: AJUNOK_clean_linker_0, # of connection points: 2
#     Edge 44, Type (0, 0), BuildingBlock: AJUNOK_clean_linker_0, # of connection points: 2
#     Edge 45, Type (0, 0), BuildingBlock: AJUNOK_clean_linker_0, # of connection points: 2
#     Edge 46, Type (0, 0), BuildingBlock: AJUNOK_clean_linker_0, # of connection points: 2
#     Edge 47, Type (0, 0), BuildingBlock: AJUNOK_clean_linker_0, # of connection points: 2
#     Edge 48, Type (0, 0), BuildingBlock: AJUNOK_clean_linker_0, # of connection points: 2
#     Edge 49, Type (0, 0), BuildingBlock: AJUNOK_clean_linker_0, # of connection points: 2
#     Edge 50, Type (0, 0), BuildingBlock: AJUNOK_clean_linker_0, # of connection points: 2
#     Edge 51, Type (0, 0), BuildingBlock: AJUNOK_clean_linker_0, # of connection points: 2
#     Edge 52, Type (0, 0), BuildingBlock: AJUNOK_clean_linker_0, # of connection points: 2
#     Edge 53, Type (0, 0), BuildingBlock: AJUNOK_clean_linker_0, # of connection points: 2
#     Edge 54, Type (0, 0), BuildingBlock: AJUNOK_clean_linker_0, # of connection points: 2
#     Edge 55, Type (0, 0), BuildingBlock: AJUNOK_clean_linker_0, # of connection points: 2
#     Edge 56, Type (0, 0), BuildingBlock: AJUNOK_clean_linker_0, # of connection points: 2
#     Edge 57, Type (0, 0), BuildingBlock: AJUNOK_clean_linker_0, # of connection points: 2
#     Edge 58, Type (0, 0), BuildingBlock: AJUNOK_clean_linker_0, # of connection points: 2
#     Edge 59, Type (0, 0), BuildingBlock: AJUNOK_clean_linker_0, # of connection points: 2
#     Edge 60, Type (0, 0), BuildingBlock: AJUNOK_clean_linker_0, # of connection points: 2
#     Edge 61, Type (0, 0), BuildingBlock: AJUNOK_clean_linker_0, # of connection points: 2
#     Edge 62, Type (0, 0), BuildingBlock: AJUNOK_clean_linker_0, # of connection points: 2
#     Edge 63, Type (0, 0), BuildingBlock: AJUNOK_clean_linker_0, # of connection points: 2
#     Edge 64, Type (0, 0), BuildingBlock: AJUNOK_clean_linker_0, # of connection points: 2
#     Edge 65, Type (0, 0), BuildingBlock: AJUNOK_clean_linker_0, # of connection points: 2
#     Edge 66, Type (0, 0), BuildingBlock: AJUNOK_clean_linker_0, # of connection points: 2
#     Edge 67, Type (0, 0), BuildingBlock: AJUNOK_clean_linker_0, # of connection points: 2
#     Edge 68, Type (0, 0), BuildingBlock: AJUNOK_clean_linker_0, # of connection points: 2
#     Edge 69, Type (0, 0), BuildingBlock: AJUNOK_clean_linker_0, # of connection points: 2
#     Edge 70, Type (0, 0), BuildingBlock: AJUNOK_clean_linker_0, # of connection points: 2
#     Edge 71, Type (0, 0), BuildingBlock: AJUNOK_clean_linker_0, # of connection points: 2
# Relax obj value: 0.160
# Max RMSD: 0.216
# Mean RMSD: 0.216
data_MOF--net-smd--node1-OJICUG_clean_sbu_0--edge1-AJUNOK_clean_linker_0
_symmetry_space_group_name_H-M    P1
_symmetry_Int_Tables_number       1
_symmetry_cell_setting            triclinic
loop_
_symmetry_equiv_pos_as_xyz
'x, y, z'
_cell_length_a     58.09141
_cell_length_b     58.075015
_cell_length_c     11.918217
_cell_angle_alpha  90.035924
_cell_angle_beta   90.063992
_cell_angle_gamma 120.01362
loop_
_atom_site_label
_atom_site_type_symbol
_atom_site_fract_x
_atom_site_fract_y
_atom_site_fract_z
_atom_type_partial_charge
Sc0 Sc 0.98504 0.2304 0.39937 0.0
Sc1 Sc 0.00609 0.18803 0.50449 0.0
Sc2 Sc 0.03048 0.25128 0.61981 0.0
O3 O 0.00736 0.2233 0.50713 0.0
C4 C 0.03928 0.28716 0.41627 0.0
C5 C 0.00256 0.19936 0.24162 0.0
C6 C 0.06655 0.22665 0.54361 0.0
C7 C 0.94609 0.16994 0.46948 0.0
C8 C 0.97908 0.25838 0.60785 0.0
C9 C 0.00816 0.20064 0.76803 0.0
O10 O 0.01588 0.27187 0.37836 0.0
O11 O 0.00295 0.18468 0.32058 0.0
O12 O 0.06224 0.2417 0.6077 0.0
O13 O 0.95136 0.19022 0.41012 0.0
O14 O 0.00246 0.26551 0.64279 0.0
O15 O 0.00873 0.18629 0.68805 0.0
O16 O 0.96769 0.24119 0.53133 0.0
O17 O 0.9638 0.1672 0.52038 0.0
O18 O 0.01211 0.22397 0.75385 0.0
O19 O 0.00025 0.21966 0.25904 0.0
O20 O 0.04975 0.28046 0.49356 0.0
O21 O 0.04824 0.20749 0.48862 0.0
Sc22 Sc 0.78604 0.76524 0.40336 0.0
Sc23 Sc 0.82881 0.82752 0.51628 0.0
Sc24 Sc 0.7636 0.79084 0.61218 0.0
O25 O 0.79293 0.79459 0.51171 0.0
C26 C 0.72958 0.76259 0.40859 0.0
C27 C 0.81714 0.81465 0.25224 0.0
C28 C 0.79248 0.85262 0.54574 0.0
C29 C 0.8457 0.78535 0.47904 0.0
C30 C 0.75661 0.73175 0.60699 0.0
C31 C 0.81187 0.81763 0.77749 0.0
O32 O 0.7443 0.75299 0.38215 0.0
O33 O 0.83291 0.82835 0.33186 0.0
O34 O 0.77435 0.8325 0.59755 0.0
O35 O 0.82639 0.772 0.41226 0.0
O36 O 0.74917 0.74826 0.63632 0.0
O37 O 0.82865 0.83062 0.70018 0.0
O38 O 0.77488 0.73734 0.53569 0.0
O39 O 0.84773 0.80461 0.53656 0.0
O40 O 0.78797 0.79988 0.7576 0.0
O41 O 0.79644 0.79219 0.26721 0.0
O42 O 0.73738 0.78231 0.47381 0.0
O43 O 0.81194 0.85244 0.49856 0.0
Sc44 Sc 0.24898 0.02964 0.4169 0.0
Sc45 Sc 0.18543 0.00821 0.5206 0.0
Sc46 Sc 0.22439 0.98416 0.63608 0.0
O47 O 0.21953 0.00721 0.52374 0.0
C48 C 0.25156 0.97543 0.43313 0.0
C49 C 0.20057 0.01203 0.25806 0.0
C50 C 0.16399 0.94799 0.55774 0.0
C51 C 0.22689 0.06817 0.48713 0.0
C52 C 0.28274 0.03567 0.62575 0.0
C53 C 0.196 0.0063 0.78419 0.0
O54 O 0.25987 -0.00107 0.39605 0.0
O55 O 0.18547 0.01167 0.33676 0.0
O56 O 0.18308 0.95243 0.62371 0.0
O57 O 0.24203 0.06305 0.42775 0.0
O58 O 0.2666 0.01217 0.65933 0.0
O59 O 0.18085 0.0053 0.70429 0.0
O60 O 0.27693 0.04715 0.54981 0.0
O61 O 0.20659 0.05037 0.53817 0.0
O62 O 0.21557 0.00266 0.76985 0.0
O63 O 0.22313 0.01425 0.27601 0.0
O64 O 0.23418 0.96489 0.5094 0.0
O65 O 0.16315 0.9662 0.50233 0.0
Sc66 Sc 0.0286 0.78778 0.61143 0.0
Sc67 Sc 0.00542 0.82754 0.49983 0.0
Sc68 Sc 0.98231 0.76363 0.39654 0.0
O69 O 0.00552 0.79313 0.50181 0.0
C70 C 0.03629 0.76088 0.40703 0.0
C71 C 0.06522 0.84846 0.54141 0.0
C72 C 0.00118 0.81201 0.23723 0.0
C73 C 0.00723 0.81606 0.76299 0.0
C74 C 0.9766 0.72989 0.60112 0.0
C75 C 0.94511 0.78683 0.46692 0.0
O76 O 0.04768 0.77937 0.47874 0.0
O77 O 0.04754 0.84938 0.48215 0.0
O78 O -0.00186 0.7891 0.25508 0.0
O79 O 0.01008 0.796 0.74738 0.0
O80 O 0.96455 0.73662 0.53172 0.0
O81 O 0.96325 0.80696 0.51797 0.0
O82 O 0.00072 0.74534 0.62952 0.0
O83 O 0.00859 0.83157 0.68389 0.0
O84 O 0.94969 0.77161 0.40576 0.0
O85 O 0.06017 0.82908 0.60627 0.0
O86 O 0.01203 0.75139 0.37787 0.0
O87 O 0.00199 0.82742 0.31581 0.0
Sc88 Sc 0.22681 0.25004 0.60638 0.0
Sc89 Sc 0.18615 0.18718 0.49306 0.0
Sc90 Sc 0.25053 0.22733 0.38903 0.0
O91 O 0.22117 0.2215 0.4957 0.0
C92 C 0.25431 0.2846 0.39898 0.0
C93 C 0.16617 0.22712 0.53257 0.0
C94 C 0.20131 0.19731 0.23047 0.0
C95 C 0.19705 0.20009 0.75688 0.0
C96 C 0.28504 0.256 0.59533 0.0
C97 C 0.22673 0.16691 0.46554 0.0
O98 O 0.23704 0.27839 0.47551 0.0
O99 O 0.16472 0.20789 0.47627 0.0
O100 O 0.22476 0.21627 0.24758 0.0
O101 O 0.21703 0.22309 0.74276 0.0
O102 O 0.27921 0.23883 0.51891 0.0
O103 O 0.20598 0.16491 0.51029 0.0
O104 O 0.26879 0.26303 0.63113 0.0
O105 O 0.18203 0.18592 0.67666 0.0
O106 O 0.24293 0.18688 0.40719 0.0
O107 O 0.18589 0.24178 0.59565 0.0
O108 O 0.26227 0.26895 0.36419 0.0
O109 O 0.18555 0.18366 0.30948 0.0
Sc110 Sc 0.76376 0.98633 0.59985 0.0
Sc111 Sc 0.82743 0.01238 0.49238 0.0
Sc112 Sc 0.78553 0.03407 0.39101 0.0
O113 O 0.79232 0.01082 0.4938 0.0
C114 C 0.72903 0.97936 0.39855 0.0
C115 C 0.79112 0.95216 0.5313 0.0
C116 C 0.81581 0.01666 0.22972 0.0
C117 C 0.81307 0.00858 0.75552 0.0
C118 C 0.75726 0.03814 0.59751 0.0
C119 C 0.84586 0.07234 0.46346 0.0
O120 O 0.73723 0.96775 0.46376 0.0
O121 O 0.8088 0.97053 0.47164 0.0
O122 O 0.79551 0.01899 0.24749 0.0
O123 O 0.7896 0.00422 0.73958 0.0
O124 O 0.77621 0.05074 0.5296 0.0
O125 O 0.84787 0.05429 0.51449 0.0
O126 O 0.74826 0.01364 0.62092 0.0
O127 O 0.82809 0.00892 0.67632 0.0
O128 O 0.82617 0.06744 0.40055 0.0
O129 O 0.77489 0.95554 0.59143 0.0
O130 O 0.74331 0.00395 0.37278 0.0
O131 O 0.83067 0.01632 0.30834 0.0
Sc132 Sc 0.64801 0.56498 0.747 0.0
Sc133 Sc 0.6701 0.52307 0.85773 0.0
Sc134 Sc 0.69461 0.5874 0.96913 0.0
O135 O 0.67092 0.55849 0.85782 0.0
C136 C 0.69931 0.62204 0.75348 0.0
C137 C 0.66525 0.53118 0.59433 0.0
C138 C 0.732 0.56529 0.884 0.0
C139 C 0.60892 0.50525 0.8264 0.0
C140 C 0.64339 0.5935 0.9683 0.0
C141 C 0.67605 0.53594 0.12082 0.0
O142 O 0.68044 0.60366 0.69684 0.0
O143 O 0.67218 0.52157 0.67502 0.0
O144 O 0.72912 0.58415 0.92322 0.0
O145 O 0.61285 0.52733 0.78695 0.0
O146 O 0.66243 0.59374 0.02287 0.0
O147 O 0.6677 0.51927 0.04033 0.0
O148 O 0.63686 0.58426 0.86971 0.0
O149 O 0.62762 0.50106 0.85435 0.0
O150 O 0.68644 0.56075 0.10613 0.0
O151 O 0.6564 0.54695 0.6086 0.0
O152 O 0.70588 0.61859 0.85062 0.0
O153 O 0.71259 0.54239 0.86063 0.0
Sc154 Sc 0.45144 0.09632 0.75297 0.0
Sc155 Sc 0.4916 0.16097 0.85412 0.0
Sc156 Sc 0.42683 0.12176 0.95498 0.0
O157 O 0.45676 0.1265 0.85401 0.0
C158 C 0.39399 0.0921 0.74871 0.0
C159 C 0.48091 0.14507 0.59133 0.0
C160 C 0.45199 0.18266 0.88135 0.0
C161 C 0.51208 0.1204 0.82615 0.0
C162 C 0.42167 0.06379 0.95952 0.0
C163 C 0.4758 0.15072 0.11674 0.0
O164 O 0.40964 0.08339 0.7244 0.0
O165 O 0.49437 0.16123 0.67018 0.0
O166 O 0.43522 0.16246 0.93671 0.0
O167 O 0.49176 0.10397 0.77043 0.0
O168 O 0.41324 0.07969 0.98389 0.0
O169 O 0.49201 0.16395 0.03799 0.0
O170 O 0.44058 0.06981 0.89138 0.0
O171 O 0.51399 0.14107 0.87131 0.0
O172 O 0.45187 0.13261 0.09974 0.0
O173 O 0.46255 0.12126 0.60826 0.0
O174 O 0.40027 0.11113 0.81662 0.0
O175 O 0.47249 0.18408 0.83697 0.0
Sc176 Sc 0.91684 0.36591 0.7235 0.0
Sc177 Sc 0.85202 0.33931 0.82375 0.0
Sc178 Sc 0.89365 0.31748 0.93033 0.0
O179 O 0.88736 0.34092 0.82563 0.0
C180 C 0.92267 0.31353 0.72505 0.0
C181 C 0.86803 0.34477 0.5616 0.0
C182 C 0.83298 0.27929 0.85991 0.0
C183 C 0.8902 0.40058 0.79311 0.0
C184 C 0.9505 0.3713 0.92894 0.0
C185 C 0.86345 0.33618 0.08716 0.0
O186 O 0.9311 0.3378 0.69919 0.0
O187 O 0.85182 0.34204 0.63992 0.0
O188 O 0.85314 0.28442 0.91978 0.0
O189 O 0.90713 0.39732 0.73811 0.0
O190 O 0.93568 0.3468 0.95343 0.0
O191 O 0.84868 0.33634 1.00773 0.0
O192 O 0.94336 0.38331 0.86108 0.0
O193 O 0.87025 0.38153 0.84096 0.0
O194 O 0.88334 0.33303 0.07146 0.0
O195 O 0.8919 0.35052 0.57932 0.0
O196 O 0.9038 0.30083 0.79356 0.0
O197 O 0.83112 0.29708 0.80577 0.0
Sc198 Sc 0.69499 0.11973 0.94489 0.0
Sc199 Sc 0.67268 0.161 0.83235 0.0
Sc200 Sc 0.64731 0.09587 0.72742 0.0
O201 O 0.67163 0.12548 0.83472 0.0
C202 C 0.70041 0.09175 0.7277 0.0
C203 C 0.73339 0.18002 0.86715 0.0
C204 C 0.66646 0.14617 0.56982 0.0
C205 C 0.67642 0.15174 0.09691 0.0
C206 C 0.6425 0.06194 0.94117 0.0
C207 C 0.61097 0.11977 0.8088 0.0
O208 O 0.70983 0.10526 0.81664 0.0
O209 O 0.71503 0.18294 0.82405 0.0
O210 O 0.65842 0.12176 0.58615 0.0
O211 O 0.6823 0.13363 0.084 0.0
O212 O 0.63295 0.06597 0.85281 0.0
O213 O 0.63037 0.14185 0.84075 0.0
O214 O 0.66449 0.07928 0.98437 0.0
O215 O 0.67337 0.16422 0.01552 0.0
O216 O 0.61383 0.10169 0.76129 0.0
O217 O 0.72901 0.15908 0.9191 0.0
O218 O 0.67795 0.08612 0.68587 0.0
O219 O 0.67218 0.16288 0.64923 0.0
Sc220 Sc 0.89104 0.5863 0.94038 0.0
Sc221 Sc 0.84972 0.52153 0.83814 0.0
Sc222 Sc 0.91378 0.56105 0.72695 0.0
O223 O 0.88486 0.55622 0.83571 0.0
C224 C 0.91998 0.61915 0.72775 0.0
C225 C 0.8303 0.56336 0.8674 0.0
C226 C 0.86311 0.53113 0.57413 0.0
C227 C 0.86023 0.53698 0.10059 0.0
C228 C 0.9484 0.58982 0.93651 0.0
C229 C 0.88927 0.50007 0.80081 0.0
O230 O 0.90398 0.61456 0.80791 0.0
O231 O 0.82742 0.54175 0.82799 0.0
O232 O 0.88713 0.54916 0.58799 0.0
O233 O 0.87813 0.56093 0.08353 0.0
O234 O 0.94308 0.57379 0.85534 0.0
O235 O 0.86884 0.49825 0.84795 0.0
O236 O 0.93211 0.59671 0.97372 0.0
O237 O 0.84752 0.52058 0.02173 0.0
O238 O 0.90604 0.52075 0.74804 0.0
O239 O 0.85136 0.58041 0.91763 0.0
O240 O 0.92634 0.60234 0.69327 0.0
O241 O 0.84752 0.5182 0.65476 0.0
Sc242 Sc 0.42775 0.31825 0.97361 0.0
Sc243 Sc 0.49284 0.34442 0.86722 0.0
Sc244 Sc 0.45053 0.36574 0.75525 0.0
O245 O 0.457 0.34277 0.86536 0.0
C246 C 0.39341 0.31276 0.75849 0.0
C247 C 0.45207 0.2823 0.89258 0.0
C248 C 0.48355 0.34809 0.60289 0.0
C249 C 0.47866 0.3382 0.12975 0.0
C250 C 0.42266 0.37063 0.97537 0.0
C251 C 0.51059 0.40523 0.83241 0.0
O252 O 0.39727 0.3043 0.85031 0.0
O253 O 0.4743 0.30193 0.86352 0.0
O254 O 0.46595 0.35467 0.61593 0.0
O255 O 0.45402 0.32886 0.11364 0.0
O256 O 0.43464 0.3794 0.8829 0.0
O257 O 0.51439 0.387 0.87072 0.0
O258 O 0.4184 0.34886 0.01973 0.0
O259 O 0.49547 0.34515 0.05023 0.0
O260 O 0.48903 0.40055 0.78507 0.0
O261 O 0.43344 0.28487 0.93604 0.0
O262 O 0.4108 0.33416 0.71175 0.0
O263 O 0.49533 0.34402 0.68423 0.0
Sc264 Sc 0.3137 0.89414 0.0744 0.0
Sc265 Sc 0.33899 0.85491 0.18054 0.0
Sc266 Sc 0.36022 0.91808 0.29352 0.0
O267 O 0.33759 0.88902 0.18284 0.0
C268 C 0.3656 0.95259 0.08497 0.0
C269 C 0.33443 0.86514 0.91765 0.0
C270 C 0.39925 0.89689 0.21853 0.0
C271 C 0.27786 0.83267 0.14411 0.0
C272 C 0.3063 0.92095 0.28573 0.0
C273 C 0.34163 0.86788 0.44486 0.0
O274 O 0.34254 0.93602 0.04751 0.0
O275 O 0.33719 0.85199 0.99709 0.0
O276 O 0.39418 0.91225 0.27644 0.0
O277 O 0.28147 0.85331 0.09136 0.0
O278 O 0.32948 0.9283 0.32374 0.0
O279 O 0.34072 0.85304 0.36394 0.0
O280 O 0.29608 0.90531 0.20328 0.0
O281 O 0.29667 0.83115 0.19136 0.0
O282 O 0.34563 0.89125 0.43149 0.0
O283 O 0.32893 0.88344 0.93367 0.0
O284 O 0.37669 0.94732 0.16469 0.0
O285 O 0.38137 0.87631 0.16894 0.0
Sc286 Sc 0.11904 0.43125 0.05468 0.0
Sc287 Sc 0.15716 0.49637 0.15991 0.0
Sc288 Sc 0.0949 0.45296 0.27702 0.0
O289 O 0.12369 0.46014 0.16355 0.0
C290 C 0.06104 0.42553 0.06099 0.0
C291 C 0.14847 0.48156 0.89743 0.0
C292 C 0.11405 0.51274 0.20155 0.0
C293 C 0.18003 0.45734 0.13211 0.0
C294 C 0.09171 0.39621 0.26622 0.0
C295 C 0.14546 0.48589 0.42482 0.0
O296 O 0.07792 0.42 0.01885 0.0
O297 O 0.1599 0.49818 0.97673 0.0
O298 O 0.09945 0.49225 0.26034 0.0
O299 O 0.15926 0.43909 0.08389 0.0
O300 O 0.08565 0.41246 0.30982 0.0
O301 O 0.15962 0.50012 0.34324 0.0
O302 O 0.10571 0.40125 0.17884 0.0
O303 O 0.18174 0.47872 0.16867 0.0
O304 O 0.12237 0.46599 0.41274 0.0
O305 O 0.13186 0.45724 0.91406 0.0
O306 O 0.06525 0.43922 0.14957 0.0
O307 O 0.13462 0.51612 0.15013 0.0
Sc308 Sc 0.58211 0.69916 0.11433 0.0
Sc309 Sc 0.51805 0.67485 0.21803 0.0
Sc310 Sc 0.55919 0.65325 0.33231 0.0
O311 O 0.55303 0.67561 0.22066 0.0
C312 C 0.58745 0.64629 0.129 0.0
C313 C 0.53324 0.67927 0.9555 0.0
C314 C 0.49868 0.61522 0.25819 0.0
C315 C 0.55753 0.73557 0.18552 0.0
C316 C 0.61655 0.70605 0.32054 0.0
C317 C 0.52902 0.67309 0.48175 0.0
O318 O 0.59476 0.66967 0.09261 0.0
O319 O 0.51774 0.67792 0.03438 0.0
O320 O 0.51836 0.62052 0.32195 0.0
O321 O 0.57346 0.73148 0.12663 0.0
O322 O 0.60112 0.68232 0.35352 0.0
O323 O 0.51375 0.67173 0.40167 0.0
O324 O 0.60972 0.71734 0.24776 0.0
O325 O 0.53749 0.71705 0.23525 0.0
O326 O 0.54939 0.67077 0.46733 0.0
O327 O 0.5565 0.68323 0.97274 0.0
O328 O 0.56995 0.63497 0.20445 0.0
O329 O 0.49717 0.63277 0.20044 0.0
Sc330 Sc 0.36216 0.45468 0.31346 0.0
Sc331 Sc 0.34029 0.49557 0.20127 0.0
Sc332 Sc 0.31568 0.43119 0.09995 0.0
O333 O 0.3394 0.46064 0.20423 0.0
C334 C 0.36908 0.42717 0.10984 0.0
C335 C 0.39978 0.51545 0.24683 0.0
C336 C 0.33597 0.4797 0.93924 0.0
C337 C 0.34158 0.48367 0.46485 0.0
C338 C 0.3096 0.39716 0.30248 0.0
C339 C 0.2796 0.45673 0.16308 0.0
O340 O 0.38085 0.44589 0.1803 0.0
O341 O 0.38253 0.51666 0.18572 0.0
O342 O 0.33185 0.45638 0.95763 0.0
O343 O 0.34404 0.46336 0.4494 0.0
O344 O 0.29755 0.40453 0.23608 0.0
O345 O 0.29797 0.47649 0.2153 0.0
O346 O 0.33381 0.41234 0.33022 0.0
O347 O 0.343 0.49921 0.38563 0.0
O348 O 0.28381 0.44036 0.10824 0.0
O349 O 0.39425 0.49569 0.30995 0.0
O350 O 0.34477 0.41791 0.08167 0.0
O351 O 0.33753 0.49555 0.01727 0.0
Sc352 Sc 0.55905 0.92032 0.31499 0.0
Sc353 Sc 0.51767 0.85603 0.21011 0.0
Sc354 Sc 0.58116 0.89529 0.09896 0.0
O355 O 0.55262 0.89059 0.20817 0.0
C356 C 0.58769 0.9538 0.10543 0.0
C357 C 0.49863 0.89764 0.23681 0.0
C358 C 0.5311 0.86564 0.946 0.0
C359 C 0.52793 0.87122 0.47295 0.0
C360 C 0.61598 0.92322 0.30769 0.0
C361 C 0.55722 0.83486 0.17839 0.0
O362 O 0.57149 0.94891 0.18497 0.0
O363 O 0.4962 0.87665 0.19264 0.0
O364 O 0.55465 0.88462 0.96011 0.0
O365 O 0.54715 0.89456 0.45669 0.0
O366 O 0.60964 0.90629 0.22955 0.0
O367 O 0.53726 0.83353 0.22774 0.0
O368 O 0.6006 0.93149 0.34281 0.0
O369 O 0.51424 0.85558 0.39347 0.0
O370 O 0.57288 0.85452 0.1173 0.0
O371 O 0.51884 0.91373 0.29476 0.0
O372 O 0.59401 0.93706 0.06882 0.0
O373 O 0.51609 0.8518 0.02661 0.0
Sc374 Sc 0.09313 0.65029 0.29139 0.0
Sc375 Sc 0.15588 0.6712 0.17552 0.0
Sc376 Sc 0.11655 0.69641 0.07304 0.0
O377 O 0.1218 0.67252 0.1793 0.0
C378 C 0.05793 0.64427 0.08645 0.0
C379 C 0.11398 0.6113 0.21283 0.0
C380 C 0.1452 0.67614 0.91316 0.0
C381 C 0.14375 0.66961 0.4396 0.0
C382 C 0.09052 0.70414 0.28536 0.0
C383 C 0.17812 0.73225 0.14148 0.0
O384 O 0.06337 0.63316 0.16544 0.0
O385 O 0.13401 0.62898 0.16008 0.0
O386 O 0.12637 0.68079 0.93113 0.0
O387 O 0.12072 0.66647 0.42594 0.0
O388 O 0.10698 0.71457 0.20588 0.0
O389 O 0.1796 0.71351 0.18968 0.0
O390 O 0.08205 0.68043 0.31897 0.0
O391 O 0.15784 0.66882 0.35915 0.0
O392 O 0.15756 0.72848 0.08743 0.0
O393 O 0.09953 0.61657 0.27594 0.0
O394 O 0.07442 0.6673 0.04825 0.0
O395 O 0.15885 0.6738 0.99173 0.0
C396 C 0.06696 0.34774 0.23015 0.0
C397 C 0.07909 0.3688 0.30782 0.0
C398 C 0.05411 0.32124 0.26551 0.0
C399 C 0.0537 0.31501 0.37927 0.0
H400 H 0.06693 0.3518 0.14141 0.0
H401 H 0.04458 0.30556 0.20356 0.0
S402 S 0.08263 0.36294 0.61552 0.0
N403 N 0.0896 0.38183 0.50285 0.0
N404 N 0.0663 0.33191 0.56999 0.0
C405 C 0.06602 0.33591 0.45775 0.0
C406 C 0.07848 0.36288 0.42185 0.0
C407 C 0.68689 0.76148 0.37075 0.0
C408 C 0.70108 0.74781 0.38005 0.0
C409 C 0.65931 0.74771 0.35586 0.0
C410 C 0.64484 0.71977 0.35242 0.0
H411 H 0.6972 0.783 0.37482 0.0
H412 H 0.64923 0.75905 0.34632 0.0
S413 S 0.67252 0.67456 0.37568 0.0
N414 N 0.69861 0.70472 0.38657 0.0
N415 N 0.64667 0.67884 0.35942 0.0
C416 C 0.65872 0.70581 0.36317 0.0
C417 C 0.68688 0.71984 0.37637 0.0
C418 C 0.27047 0.96001 0.2829 0.0
C419 C 0.26488 0.96087 0.39665 0.0
C420 C 0.2835 0.94648 0.24811 0.0
C421 C 0.29207 0.93419 0.32637 0.0
H422 H 0.2645 0.96958 0.22054 0.0
H423 H 0.28736 0.94606 0.1594 0.0
S424 S 0.28325 0.93179 0.63412 0.0
N425 N 0.26908 0.94856 0.5879 0.0
N426 N 0.29466 0.92411 0.52175 0.0
C427 C 0.28709 0.93533 0.44033 0.0
C428 C 0.27316 0.94843 0.47567 0.0
C429 C 0.32464 0.07713 0.67363 0.0
C430 C 0.31054 0.04926 0.66452 0.0
C431 C 0.35186 0.09091 0.69771 0.0
C432 C 0.36611 0.07738 0.71065 0.0
H433 H 0.31454 0.08838 0.66196 0.0
H434 H 0.36184 0.11235 0.70617 0.0
S435 S 0.33851 0.00441 0.69172 0.0
N436 N 0.31277 0.00856 0.66893 0.0
N437 N 0.36412 0.0345 0.71244 0.0
C438 C 0.35231 0.0495 0.70049 0.0
C439 C 0.32445 0.03542 0.67824 0.0
C440 C 0.92382 0.27272 0.67176 0.0
C441 C 0.93749 0.3004 0.6884 0.0
C442 C 0.93755 0.25916 0.64946 0.0
C443 C 0.96548 0.27266 0.64579 0.0
H444 H 0.90231 0.26144 0.67598 0.0
H445 H 0.92618 0.23791 0.63474 0.0
S446 S 0.01066 0.34509 0.68659 0.0
N447 N 0.98052 0.34088 0.70106 0.0
N448 N 0.00641 0.31527 0.66068 0.0
C449 C 0.97945 0.30031 0.66371 0.0
C450 C 0.96543 0.31422 0.68424 0.0
C451 C 0.7387 0.68324 0.57436 0.0
C452 C 0.74153 0.70391 0.64603 0.0
C453 C 0.72414 0.6565 0.60714 0.0
C454 C 0.71242 0.64967 0.71344 0.0
H455 H 0.74761 0.68772 0.49168 0.0
H456 H 0.72267 0.64123 0.55045 0.0
S457 S 0.71253 0.69575 0.92989 0.0
N458 N 0.73019 0.71536 0.82569 0.0
N459 N 0.70328 0.66519 0.88843 0.0
C460 C 0.71462 0.66999 0.785 0.0
C461 C 0.72905 0.69711 0.751 0.0
C462 C 0.9353 0.6886 0.65515 0.0
C463 C 0.96289 0.70194 0.63708 0.0
C464 C 0.92132 0.66146 0.68026 0.0
C465 C 0.93434 0.64657 0.68508 0.0
H466 H 0.92446 0.69929 0.65072 0.0
H467 H 0.90019 0.65208 0.69685 0.0
S468 S 0.00626 0.67198 0.63925 0.0
N469 N 0.0027 0.69827 0.62289 0.0
N470 N 0.9763 0.64701 0.66827 0.0
C471 C 0.96184 0.65954 0.66468 0.0
C472 C 0.97618 0.68733 0.64147 0.0
C473 C 0.31834 0.27639 0.74941 0.0
C474 C 0.31274 0.27018 0.63541 0.0
C475 C 0.34463 0.28996 0.78793 0.0
C476 C 0.36619 0.29844 0.7133 0.0
H477 H 0.30232 0.27042 0.80927 0.0
H478 H 0.34814 0.29422 0.87685 0.0
S479 S 0.36207 0.28825 0.40588 0.0
N480 N 0.3308 0.2739 0.44751 0.0
N481 N 0.38029 0.30034 0.52041 0.0
C482 C 0.3609 0.29292 0.59887 0.0
C483 C 0.33412 0.2785 0.55983 0.0
C484 C 0.70128 0.05193 0.65565 0.0
C485 C 0.71502 0.07919 0.68228 0.0
C486 C 0.7151 0.03836 0.63334 0.0
C487 C 0.74305 0.05175 0.63553 0.0
H488 H 0.67974 0.04082 0.65611 0.0
H489 H 0.70386 0.01742 0.61213 0.0
S490 S 0.78816 0.12322 0.69746 0.0
N491 N 0.75799 0.1191 0.70816 0.0
N492 N 0.78394 0.09375 0.66393 0.0
C493 C 0.75695 0.07907 0.66001 0.0
C494 C 0.74294 0.09276 0.68391 0.0
C495 C 0.65826 0.96455 0.35553 0.0
C496 C 0.64405 0.93672 0.34361 0.0
C497 C 0.68601 0.9784 0.36793 0.0
C498 C 0.70044 0.96485 0.3701 0.0
H499 H 0.64801 0.97581 0.3512 0.0
H500 H 0.69614 -0.00019 0.37808 0.0
S501 S 0.67239 0.89193 0.34539 0.0
N502 N 0.64634 0.89608 0.3364 0.0
N503 N 0.69836 0.92201 0.36135 0.0
C504 C 0.68637 0.93699 0.36007 0.0
C505 C 0.65822 0.92296 0.34651 0.0
C506 C 0.03663 0.71922 0.36379 0.0
C507 C 0.05052 0.74712 0.37163 0.0
C508 C 0.05005 0.7053 0.34259 0.0
C509 C 0.07772 0.71886 0.32628 0.0
H510 H 0.01531 0.708 0.37637 0.0
H511 H 0.03856 0.68384 0.33522 0.0
S512 S 0.12318 0.7918 0.33909 0.0
N513 N 0.09342 0.7878 0.36383 0.0
N514 N 0.1186 0.76161 0.32034 0.0
C515 C 0.09183 0.74674 0.33407 0.0
C516 C 0.07823 0.76088 0.35764 0.0
C517 C 0.26829 0.3543 0.34118 0.0
C518 C 0.29615 0.36873 0.33203 0.0
C519 C 0.25473 0.32679 0.3583 0.0
C520 C 0.26849 0.31264 0.36382 0.0
H521 H 0.25688 0.36438 0.33567 0.0
H522 H 0.23333 0.31653 0.36811 0.0
S523 S 0.34146 0.341 0.3418 0.0
N524 N 0.33706 0.36683 0.3284 0.0
N525 N 0.31147 0.31498 0.35857 0.0
C526 C 0.29631 0.32673 0.35286 0.0
C527 C 0.31018 0.35484 0.33784 0.0
C528 C -0.0071 0.37186 0.96905 0.0
C529 C 0.97848 0.3854 0.96591 0.0
C530 C 0.02022 0.38541 0.99247 0.0
C531 C 0.03385 0.41282 0.01557 0.0
H532 H 0.98311 0.35074 0.95141 0.0
H533 H 0.0305 0.37417 0.99666 0.0
S534 S 0.00532 0.45741 0.01655 0.0
N535 N 0.97998 0.42782 0.98507 0.0
N536 N 0.03116 0.4531 0.03265 0.0
C537 C 0.01971 0.42659 1.01213 0.0
C538 C -0.00795 0.41292 0.9864 0.0
C539 C 0.62256 0.6214 0.9398 0.0
C540 C 0.62959 0.60696 1.01385 0.0
C541 C 0.60908 0.63424 0.97751 0.0
C542 C 0.60156 0.63257 0.09016 0.0
H543 H 0.62778 0.62304 0.85174 0.0
H544 H 0.60418 0.64521 0.91784 0.0
S545 S 0.61623 0.59831 0.31896 0.0
N546 N 0.62906 0.59273 0.20565 0.0
N547 N 0.60301 0.61629 0.27698 0.0
C548 C 0.60867 0.61842 0.16555 0.0
C549 C 0.62293 0.60581 0.12736 0.0
C550 C 0.42066 0.02191 1.01412 0.0
C551 C 0.40698 0.03594 0.99839 0.0
C552 C 0.40701 -0.0053 0.03865 0.0
C553 C 0.37912 0.98034 0.04523 0.0
H554 H 0.44213 0.03206 1.00752 0.0
H555 H 0.41839 0.98481 0.05267 0.0
S556 S 0.33386 0.00764 1.01024 0.0
N557 N 0.36392 0.03345 0.99142 0.0
N558 N 0.33821 0.9821 0.03545 0.0
C559 C 0.36512 -0.00598 0.02867 0.0
C560 C 0.37907 0.02189 1.00612 0.0
C561 C 0.61629 0.01303 0.91112 0.0
C562 C 0.62862 0.03468 0.98634 0.0
C563 C 0.60347 0.98673 0.94948 0.0
C564 C 0.60202 0.98129 0.06443 0.0
H565 H 0.6169 0.01641 0.82149 0.0
H566 H 0.59425 0.97062 0.88925 0.0
S567 S 0.6316 0.03054 0.29554 0.0
N568 N 0.63927 0.04877 0.18052 0.0
N569 N 0.61445 -0.00072 0.25339 0.0
C570 C 0.61431 0.00266 0.14057 0.0
C571 C 0.62785 0.0294 0.10133 0.0
C572 C 0.02365 0.62486 0.9353 0.0
C573 C 0.03012 0.63102 0.0487 0.0
C574 C -0.00299 0.61104 0.9007 0.0
C575 C 0.97605 0.60354 0.97803 0.0
H576 H 0.0392 0.6303 0.87353 0.0
H577 H -0.00719 0.60656 0.81224 0.0
S578 S 0.98301 0.61676 0.28375 0.0
N579 N 0.01385 0.62945 0.23811 0.0
N580 N 0.96377 0.60429 0.1721 0.0
C581 C 0.98239 0.6103 0.0912 0.0
C582 C 0.00946 0.62381 0.12679 0.0
C583 C 0.3694 0.38525 0.06916 0.0
C584 C 0.38311 0.41321 0.07363 0.0
C585 C 0.38282 0.37137 0.04552 0.0
C586 C 0.41024 0.38507 0.02334 0.0
H587 H 0.34824 0.374 0.08554 0.0
H588 H 0.37147 0.34987 0.03993 0.0
S589 S 0.45518 0.45812 0.02505 0.0
N590 N 0.42568 0.45402 0.05657 0.0
N591 N 0.45068 0.42792 1.00776 0.0
C592 C 0.42417 0.41297 0.02801 0.0
C593 C 0.41065 0.42706 0.05427 0.0
C594 C 0.11091 0.23936 0.62839 0.0
C595 C 0.09366 0.23058 0.53526 0.0
C596 C 0.13521 0.23959 0.62552 0.0
C597 C 0.14295 0.23107 0.52938 0.0
H598 H 0.10504 0.24483 0.70565 0.0
H599 H 0.14731 0.24516 0.70077 0.0
S600 S 0.1071 0.21095 0.25752 0.0
N601 N 0.08762 0.21654 0.34002 0.0
N602 N 0.13313 0.217 0.33468 0.0
C603 C 0.1267 0.22405 0.43356 0.0
C604 C 0.10209 0.22379 0.43649 0.0
C605 C 0.76801 0.90254 0.55968 0.0
C606 C 0.79128 0.92677 0.53662 0.0
C607 C 0.76837 0.87849 0.56295 0.0
C608 C 0.79203 0.87795 0.54367 0.0
H609 H 0.74937 0.9021 0.57365 0.0
H610 H 0.74996 0.86022 0.57942 0.0
S611 S 0.85898 0.93661 0.49353 0.0
N612 N 0.83898 0.94898 0.5034 0.0
N613 N 0.83973 0.90427 0.50984 0.0
C614 C 0.81554 0.90226 0.52389 0.0
C615 C 0.81514 0.92652 0.52032 0.0
C616 C 0.10792 0.87971 0.63791 0.0
C617 C 0.09222 0.8718 0.54004 0.0
C618 C 0.13198 0.90394 0.64197 0.0
C619 C 0.14097 0.9209 0.54829 0.0
H620 H 0.10097 0.86778 0.71339 0.0
H621 H 0.14289 0.90999 0.72038 0.0
S622 S 0.10955 0.90682 0.26661 0.0
N623 N 0.08904 0.88104 0.34355 0.0
N624 N 0.13417 0.9265 0.35101 0.0
C625 C 0.12633 0.91229 0.44794 0.0
C626 C 0.10196 0.88774 0.44386 0.0
C627 C 0.24138 0.13613 0.39003 0.0
C628 C 0.23121 0.14426 0.47906 0.0
C629 C 0.24149 0.11206 0.39556 0.0
C630 C 0.23146 0.09551 0.49032 0.0
H631 H 0.24787 0.14764 0.31334 0.0
H632 H 0.24802 0.10568 0.32279 0.0
S633 S 0.2079 0.11073 0.75428 0.0
N634 N 0.21465 0.13599 0.6707 0.0
N635 N 0.21489 0.09085 0.68118 0.0
C636 C 0.2233 0.10455 0.58317 0.0
C637 C 0.22317 0.12893 0.5775 0.0
C638 C 0.87727 0.11657 0.37858 0.0
C639 C 0.86864 0.09963 0.47237 0.0
C640 C 0.90186 0.14033 0.37998 0.0
C641 C 0.91847 0.14769 0.47508 0.0
H642 H 0.86577 0.1107 0.30161 0.0
H643 H 0.90857 0.15214 0.30413 0.0
S644 S 0.90231 0.11287 0.74913 0.0
N645 N 0.87667 0.09384 0.66794 0.0
N646 N 0.92281 0.13827 0.67022 0.0
C647 C 0.90901 0.13198 0.57203 0.0
C648 C 0.88408 0.10798 0.57077 0.0
C649 C 0.90087 0.77357 0.38196 0.0
C650 C 0.91777 0.78186 0.47606 0.0
C651 C 0.87643 0.77296 0.38521 0.0
C652 C 0.86828 0.78053 0.48281 0.0
H653 H 0.90722 0.76904 0.30364 0.0
H654 H 0.86469 0.76811 0.30909 0.0
S655 S 0.90304 0.79829 0.75769 0.0
N656 N 0.92306 0.7939 0.6735 0.0
N657 N 0.87713 0.79259 0.68019 0.0
C658 C 0.88406 0.78664 0.5799 0.0
C659 C 0.90885 0.78737 0.57636 0.0
C660 C 0.8029 0.58222 0.9441 0.0
C661 C 0.80733 0.56778 0.86006 0.0
C662 C 0.77906 0.58291 0.94787 0.0
C663 C 0.75894 0.56918 0.86774 0.0
H664 H 0.81728 0.59183 1.01083 0.0
H665 H 0.77574 0.59291 0.01744 0.0
S666 S 0.76295 0.53307 0.61835 0.0
N667 N 0.79117 0.5428 0.68592 0.0
N668 N 0.74653 0.54403 0.69341 0.0
C669 C 0.76403 0.55648 0.77865 0.0
C670 C 0.78818 0.55579 0.7747 0.0
C671 C 0.43476 0.23567 0.96046 0.0
C672 C 0.4486 0.25543 0.87933 0.0
C673 C 0.43485 0.21153 0.9579 0.0
C674 C 0.44872 0.20635 0.87391 0.0
H675 H 0.42494 0.23939 0.02951 0.0
H676 H 0.42504 0.1974 0.02511 0.0
S677 S 0.48379 0.24974 0.63053 0.0
N678 N 0.47354 0.26689 0.70484 0.0
N679 N 0.47359 0.22162 0.69934 0.0
C680 C 0.46102 0.22526 0.788 0.0
C681 C 0.461 0.24976 0.7909 0.0
C682 C 0.76763 0.22046 0.7692 0.0
C683 C 0.76073 0.20286 0.86027 0.0
C684 C 0.79168 0.24448 0.76758 0.0
C685 C 0.80983 0.25197 0.85719 0.0
H686 H 0.75394 0.21601 0.69984 0.0
H687 H 0.79569 0.25766 0.69681 0.0
S688 S 0.80185 0.21222 0.11305 0.0
N689 N 0.77447 0.1938 0.03988 0.0
N690 N 0.81987 0.23918 0.03724 0.0
C691 C 0.80385 0.23394 0.94629 0.0
C692 C 0.77925 0.20932 0.94774 0.0
C693 C 0.87919 0.45675 0.88533 0.0
C694 C 0.89262 0.47639 0.80328 0.0
C695 C 0.87935 0.43277 0.88322 0.0
C696 C 0.89294 0.42735 0.79896 0.0
H697 H 0.86798 0.45965 0.95088 0.0
H698 H 0.86827 0.41815 0.94734 0.0
S699 S 0.93203 0.47253 0.56633 0.0
N700 N 0.92065 0.4892 0.63706 0.0
N701 N 0.92098 0.44404 0.63319 0.0
C702 C 0.90732 0.4472 0.71863 0.0
C703 C 0.90715 0.47172 0.72077 0.0
C704 C 0.55214 0.43967 0.92422 0.0
C705 C 0.53307 0.43287 0.83884 0.0
C706 C 0.57591 0.46399 0.92307 0.0
C707 C 0.58159 0.48254 0.83661 0.0
H708 H 0.54912 0.42568 0.99054 0.0
H709 H 0.59043 0.46787 0.98828 0.0
S710 S 0.53764 0.47521 0.59703 0.0
N711 N 0.52076 0.44732 0.66871 0.0
N712 N 0.56567 0.49323 0.66682 0.0
C713 C 0.56208 0.47678 0.75434 0.0
C714 C 0.53775 0.45188 0.75538 0.0
C715 C 0.56443 0.10293 0.74126 0.0
C716 C 0.58407 0.11595 0.82386 0.0
C717 C 0.54044 0.10324 0.74539 0.0
C718 C 0.53537 0.11655 0.8323 0.0
H719 H 0.56819 0.09372 0.66989 0.0
H720 H 0.52642 0.09417 0.67702 0.0
S721 S 0.5783 0.14897 0.08032 0.0
N722 N 0.59538 0.13915 1.003 0.0
N723 N 0.55038 0.13969 1.01104 0.0
C724 C 0.55405 0.12784 0.91971 0.0
C725 C 0.57838 0.12755 0.91541 0.0
C726 C 0.46796 0.91252 0.31277 0.0
C727 C 0.47599 0.90228 0.22364 0.0
C728 C 0.44366 0.91227 0.3082 0.0
C729 C 0.42675 0.90177 0.21439 0.0
H730 H 0.47969 0.91928 0.38898 0.0
H731 H 0.43741 0.91889 0.38109 0.0
S732 S 0.4414 0.87765 0.95059 0.0
N733 N 0.46706 0.88503 0.03286 0.0
N734 N 0.42159 0.8846 0.02431 0.0
C735 C 0.43566 0.89352 0.12144 0.0
C736 C 0.46025 0.89377 0.12607 0.0
C737 C 0.10151 0.56738 0.29977 0.0
C738 C 0.10857 0.58374 0.20422 0.0
C739 C 0.10143 0.54317 0.29685 0.0
C740 C 0.10839 0.53475 0.1983 0.0
H741 H 0.09771 0.5741 0.37879 0.0
H742 H 0.09762 0.53189 0.37376 0.0
S743 S 0.12276 0.56769 0.92081 0.0
N744 N 0.11861 0.58791 1.00491 0.0
N745 N 0.11848 0.5425 0.9996 0.0
C746 C 0.11321 0.54985 0.10032 0.0
C747 C 0.1133 0.57435 0.10324 0.0
C748 C 0.45972 0.5797 0.15687 0.0
C749 C 0.47573 0.58795 0.2537 0.0
C750 C 0.43578 0.55561 0.15414 0.0
C751 C 0.42687 0.53877 0.2481 0.0
H752 H 0.46537 0.59231 0.08325 0.0
H753 H 0.42382 0.55049 0.07852 0.0
S754 S 0.46197 0.55061 0.52087 0.0
N755 N 0.48163 0.57694 0.44455 0.0
N756 N 0.43641 0.53141 0.43948 0.0
C757 C 0.44325 0.54611 0.34389 0.0
C758 C 0.46775 0.57078 0.34667 0.0
C759 C 0.57199 0.78021 0.1004 0.0
C760 C 0.56122 0.76264 0.19172 0.0
C761 C 0.57194 0.80437 0.09866 0.0
C762 C 0.56112 0.81166 0.18819 0.0
H763 H 0.57928 0.7747 0.02746 0.0
H764 H 0.57919 0.81671 0.02443 0.0
S765 S 0.53528 0.77498 0.45581 0.0
N766 N 0.54288 0.7559 0.38009 0.0
N767 N 0.54281 0.80116 0.37694 0.0
C768 C 0.5521 0.79514 0.28325 0.0
C769 C 0.55214 0.77065 0.28497 0.0
C770 C 0.24533 0.78917 0.22942 0.0
C771 C 0.25096 0.80874 0.1476 0.0
C772 C 0.22138 0.765 0.22861 0.0
C773 C 0.20191 0.75926 0.14599 0.0
H774 H 0.25979 0.79227 0.29384 0.0
H775 H 0.21837 0.75049 0.2925 0.0
S776 S 0.20621 0.80422 0.9153 0.0
N777 N 0.23458 0.8212 0.98382 0.0
N778 N 0.18941 0.77566 0.98237 0.0
C779 C 0.20674 0.77904 0.06609 0.0
C780 C 0.23127 0.80379 0.06689 0.0
C781 C 0.24784 0.47099 0.22809 0.0
C782 C 0.25275 0.45395 0.16109 0.0
C783 C 0.22398 0.4712 0.22023 0.0
C784 C 0.20381 0.45435 0.14516 0.0
H785 H 0.26279 0.48485 0.28579 0.0
H786 H 0.22161 0.48514 0.27251 0.0
S787 S 0.20554 0.40423 0.95719 0.0
N788 N 0.23458 0.41841 0.02182 0.0
N789 N 0.18957 0.41885 1.00725 0.0
C790 C 0.20781 0.43626 0.08124 0.0
C791 C 0.23228 0.43606 0.08912 0.0
C792 C 0.98027 0.18965 0.05721 0.0
C793 C 0.0012 0.19139 0.12304 0.0
C794 C 0.98127 0.18944 0.94004 0.0
C795 C 0.00319 0.19083 0.88431 0.0
H796 H 0.96382 0.19036 0.09663 0.0
H797 H 0.96578 0.19031 0.89271 0.0
S798 S 0.06172 0.19265 0.01727 0.0
N799 N 0.04329 0.19199 0.1243 0.0
N800 N 0.04521 0.19165 0.90259 0.0
C801 C 0.02319 0.19028 0.94868 0.0
C802 C 0.02218 0.19051 0.06874 0.0
C803 C 0.8022 0.82733 0.08191 0.0
C804 C 0.82208 0.82442 0.13578 0.0
C805 C 0.8006 0.82738 0.96489 0.0
C806 C 0.81878 0.82444 0.89705 0.0
H807 H 0.78654 0.82752 0.13062 0.0
H808 H 0.78395 0.82803 0.92715 0.0
S809 S 0.87612 0.81881 0.99737 0.0
N810 N 0.86162 0.82068 0.11356 0.0
N811 N 0.85873 0.82097 0.89205 0.0
C812 C 0.84008 0.82372 0.9495 0.0
C813 C 0.84168 0.82362 0.06952 0.0
C814 C 0.21363 0.03411 0.07357 0.0
C815 C 0.19409 0.01349 0.13931 0.0
C816 C 0.21231 0.03312 0.95643 0.0
C817 C 0.19137 0.01151 0.90051 0.0
H818 H 0.23106 0.05027 0.11299 0.0
H819 H 0.2289 0.04831 0.90921 0.0
S820 S 0.1336 0.95407 0.03327 0.0
N821 N 0.15178 0.97219 0.14039 0.0
N822 N 0.14938 0.97026 0.91864 0.0
C823 C 0.17049 0.99191 0.96481 0.0
C824 C 0.17182 0.99293 0.08493 0.0
C825 C 0.98023 0.80132 0.93517 0.0
C826 C 0.00276 0.8211 0.87977 0.0
C827 C 0.97903 0.8002 0.05236 0.0
C828 C 0.00037 0.81876 0.11848 0.0
H829 H 0.96426 0.78542 0.8876 0.0
H830 H 0.96201 0.78357 0.09162 0.0
S831 S 0.06287 0.87584 1.01377 0.0
N832 N 0.04604 0.86089 0.89878 0.0
N833 N 0.04375 0.85878 0.12043 0.0
C834 C 0.02214 0.83989 0.06447 0.0
C835 C 0.02335 0.84104 0.94444 0.0
C836 C 0.21108 0.1851 0.04526 0.0
C837 C 0.19394 0.1899 0.11194 0.0
C838 C 0.20991 0.18541 0.928 0.0
C839 C 0.19149 0.19043 0.87327 0.0
H840 H 0.22679 0.18296 0.08414 0.0
H841 H 0.22485 0.18374 0.87997 0.0
S842 S 0.14079 0.202 1.00865 0.0
N843 N 0.1567 0.19784 0.11485 0.0
N844 N 0.15452 0.19848 0.89332 0.0
C845 C 0.1729 0.19325 0.93847 0.0
C846 C 0.17409 0.19293 0.05841 0.0
C847 C 0.81935 -0.00626 0.05793 0.0
C848 C 0.82322 0.01703 0.11108 0.0
C849 C 0.81892 0.9919 0.93995 0.0
C850 C 0.82252 0.01336 0.87251 0.0
H851 H 0.81454 0.97625 0.10731 0.0
H852 H 0.81368 0.97298 0.90155 0.0
S853 S 0.83626 0.07946 0.97167 0.0
N854 N 0.83308 0.06261 0.08787 0.0
N855 N 0.83222 0.05908 0.86711 0.0
C856 C 0.82835 0.03727 0.925 0.0
C857 C 0.82873 0.03913 0.04427 0.0
C858 C 0.69552 0.53804 0.30906 0.0
C859 C 0.67299 0.52698 0.23858 0.0
C860 C 0.69297 0.53669 0.42647 0.0
C861 C 0.66779 0.52469 0.47693 0.0
H862 H 0.71522 0.54937 0.27311 0.0
H863 H 0.71073 0.54707 0.47759 0.0
S864 S 0.60272 0.49101 0.33038 0.0
N865 N 0.62484 0.50177 0.22796 0.0
N866 N 0.61998 0.4999 0.44852 0.0
C867 C 0.64518 0.51209 0.4076 0.0
C868 C 0.64779 0.51302 0.28823 0.0
C869 C 0.49702 0.14131 0.40307 0.0
C870 C 0.48667 0.15346 0.47312 0.0
C871 C 0.49601 0.14284 0.28567 0.0
C872 C 0.48433 0.15633 0.23489 0.0
H873 H 0.5044 0.12911 0.43926 0.0
H874 H 0.50254 0.13175 0.2346 0.0
S875 S 0.45564 0.19253 0.38093 0.0
N876 N 0.46581 0.18061 0.4835 0.0
N877 N 0.46344 0.18312 0.26283 0.0
C878 C 0.47524 0.16975 0.30396 0.0
C879 C 0.47655 0.16843 0.42333 0.0
C880 C 0.87296 0.36383 0.25771 0.0
C881 C 0.85756 0.33916 0.20454 0.0
C882 C 0.87424 0.36578 0.37508 0.0
C883 C 0.86013 0.34315 0.44302 0.0
H884 H 0.88562 0.38136 0.20844 0.0
H885 H 0.88775 0.38484 0.413 0.0
S886 S 0.81592 0.27423 0.34418 0.0
N887 N 0.82697 0.29187 0.22774 0.0
N888 N 0.82923 0.29562 0.44893 0.0
C889 C 0.84334 0.31867 0.39098 0.0
C890 C 0.84212 0.31665 0.27128 0.0
C891 C 0.64811 0.14204 0.26483 0.0
C892 C 0.67288 0.15774 0.21343 0.0
C893 C 0.64585 0.14036 0.38205 0.0
C894 C 0.66825 0.15448 0.45165 0.0
H895 H 0.63079 0.12931 0.21431 0.0
H896 H 0.62675 0.12654 0.4185 0.0
S897 S 0.7372 0.19993 0.3575 0.0
N898 N 0.71994 0.18887 0.23991 0.0
N899 N 0.71558 0.1861 0.4608 0.0
C900 C 0.69276 0.1718 0.40134 0.0
C901 C 0.69511 0.17328 0.2818 0.0
C902 C 0.84699 0.54501 0.28742 0.0
C903 C 0.85335 0.52921 0.21898 0.0
C904 C 0.84711 0.54326 0.40465 0.0
C905 C 0.85368 0.52571 0.45734 0.0
H906 H 0.84361 0.56008 0.25008 0.0
H907 H 0.84413 0.5572 0.4543 0.0
S908 S 0.87012 0.47887 0.31647 0.0
N909 N 0.86459 0.49422 0.21207 0.0
N910 N 0.86522 0.4912 0.43323 0.0
C911 C 0.85836 0.50858 0.39009 0.0
C912 C 0.85804 0.51022 0.2704 0.0
C913 C 0.47424 0.31783 0.31709 0.0
C914 C 0.48718 0.34044 0.24787 0.0
C915 C 0.47568 0.3201 0.43443 0.0
C916 C 0.48988 0.34509 0.48618 0.0
H917 H 0.46143 0.29845 0.28021 0.0
H918 H 0.46383 0.30249 0.4846 0.0
S919 S 0.52878 0.41009 0.34326 0.0
N920 N 0.51626 0.38828 0.2396 0.0
N921 N 0.5185 0.39266 0.46052 0.0
C922 C 0.50432 0.36763 0.41821 0.0
C923 C 0.50314 0.36528 0.29867 0.0
C924 C 0.3607 0.86541 0.62824 0.0
C925 C 0.33812 0.85837 0.56134 0.0
C926 C 0.35909 0.86498 0.74615 0.0
C927 C 0.33489 0.85774 0.79978 0.0
H928 H 0.38005 0.87331 0.58935 0.0
H929 H 0.37719 0.87244 0.795 0.0
S930 S 0.26981 0.83543 0.66231 0.0
N931 N 0.29071 0.84207 0.55709 0.0
N932 N 0.28761 0.84131 0.77799 0.0
C933 C 0.31193 0.84888 0.73367 0.0
C934 C 0.31356 0.84921 0.61436 0.0
C935 C 0.16212 0.47341 0.71216 0.0
C936 C 0.15569 0.48937 0.7792 0.0
C937 C 0.16193 0.47473 0.59496 0.0
C938 C 0.1554 0.49212 0.54068 0.0
H939 H 0.16547 0.45842 0.75061 0.0
H940 H 0.16476 0.46052 0.5466 0.0
S941 S 0.13946 0.53976 0.67695 0.0
N942 N 0.14478 0.52462 0.78289 0.0
N943 N 0.14428 0.52699 0.56142 0.0
C944 C 0.15099 0.50965 0.6063 0.0
C945 C 0.15123 0.50836 0.72618 0.0
C946 C 0.5429 0.70153 0.77113 0.0
C947 C 0.52591 0.67939 0.83709 0.0
C948 C 0.54164 0.70029 0.65385 0.0
C949 C 0.52331 0.67688 0.59838 0.0
H950 H 0.55853 0.71937 0.8105 0.0
H951 H 0.55648 0.71706 0.60626 0.0
S952 S 0.47308 0.61408 0.73226 0.0
N953 N 0.48894 0.63403 0.83893 0.0
N954 N 0.48663 0.63162 0.61735 0.0
C955 C 0.50489 0.65523 0.66308 0.0
C956 C 0.50615 0.65651 0.78305 0.0
C957 C 0.31369 0.46872 0.75467 0.0
C958 C 0.33553 0.48655 0.82044 0.0
C959 C 0.31474 0.4699 0.63747 0.0
C960 C 0.33762 0.48904 0.58178 0.0
H961 H 0.29629 0.45257 0.79414 0.0
H962 H 0.29831 0.45448 0.59007 0.0
S963 S 0.39936 0.54161 0.71507 0.0
N964 N 0.37994 0.52512 0.82194 0.0
N965 N 0.38198 0.52734 0.60031 0.0
C966 C 0.35887 0.50825 0.64626 0.0
C967 C 0.3578 0.50704 0.76626 0.0
C968 C 0.52651 0.84366 0.76125 0.0
C969 C 0.52137 0.86039 0.82945 0.0
C970 C 0.52595 0.84511 0.64336 0.0
C971 C 0.52049 0.86355 0.59103 0.0
H972 H 0.53305 0.83093 0.79903 0.0
H973 H 0.53196 0.83342 0.59347 0.0
S974 S 0.5034 0.90988 0.73238 0.0
N975 N 0.50873 0.8943 0.83629 0.0
N976 N 0.50765 0.8971 0.61567 0.0
C977 C 0.51349 0.87893 0.65853 0.0
C978 C 0.51396 0.87736 0.77773 0.0
C979 C 0.15581 0.69685 0.61081 0.0
C980 C 0.15369 0.67451 0.55579 0.0
C981 C 0.15542 0.69801 0.72788 0.0
C982 C 0.1528 0.67683 0.79442 0.0
H983 H 0.15559 0.7126 0.5629 0.0
H984 H 0.15537 0.71489 0.76654 0.0
S985 S 0.14968 0.61521 0.69082 0.0
N986 N 0.15135 0.6318 0.57558 0.0
N987 N 0.15081 0.63405 0.79722 0.0
C988 C 0.15303 0.65538 0.74097 0.0
C989 C 0.15338 0.65419 0.62093 0.0
loop_
_geom_bond_atom_site_label_1
_geom_bond_atom_site_label_2
_geom_bond_distance
_geom_bond_site_symmetry_2
_ccdc_geom_bond_type
Sc0 O3 2.025 1_655 S
Sc0 O10 2.105 1_655 S
Sc0 O13 2.105 . S
Sc0 O16 2.105 . S
Sc0 O19 2.105 1_655 S
Sc1 O3 2.025 . S
Sc1 O11 2.105 . S
Sc1 O15 2.105 . S
Sc1 O17 2.105 1_455 S
Sc1 O21 2.105 . S
Sc2 O3 2.025 . S
Sc2 O12 2.105 . S
Sc2 O14 2.105 . S
Sc2 O18 2.105 . S
Sc2 O20 2.105 . S
O3 Sc0 2.025 1_455 S
O3 Sc1 2.025 . S
O3 Sc2 2.025 . S
C4 O10 1.268 . S
C4 O20 1.268 . S
C5 O11 1.268 . S
C5 O19 1.268 . S
C6 O12 1.268 . S
C6 O21 1.268 . S
C7 O13 1.268 . S
C7 O17 1.268 . S
C8 O14 1.268 1_655 S
C8 O16 1.268 . S
C9 O15 1.268 . S
C9 O18 1.268 . S
O10 Sc0 2.105 1_455 S
O10 C4 1.268 . S
O11 Sc1 2.105 . S
O11 C5 1.268 . S
O12 Sc2 2.105 . S
O12 C6 1.268 . S
O13 Sc0 2.105 . S
O13 C7 1.268 . S
O14 Sc2 2.105 . S
O14 C8 1.268 1_455 S
O15 Sc1 2.105 . S
O15 C9 1.268 . S
O16 Sc0 2.105 . S
O16 C8 1.268 . S
O17 Sc1 2.105 1_655 S
O17 C7 1.268 . S
O18 Sc2 2.105 . S
O18 C9 1.268 . S
O19 Sc0 2.105 1_455 S
O19 C5 1.268 . S
O20 Sc2 2.105 . S
O20 C4 1.268 . S
O21 Sc1 2.105 . S
O21 C6 1.268 . S
Sc22 O25 2.025 . S
Sc22 O32 2.105 . S
Sc22 O35 2.105 . S
Sc22 O38 2.105 . S
Sc22 O41 2.105 . S
Sc23 O25 2.025 . S
Sc23 O33 2.105 . S
Sc23 O37 2.105 . S
Sc23 O39 2.105 . S
Sc23 O43 2.105 . S
Sc24 O25 2.025 . S
Sc24 O34 2.105 . S
Sc24 O36 2.105 . S
Sc24 O40 2.105 . S
Sc24 O42 2.105 . S
O25 Sc22 2.025 . S
O25 Sc23 2.025 . S
O25 Sc24 2.025 . S
C26 O32 1.268 . S
C26 O42 1.268 . S
C27 O33 1.268 . S
C27 O41 1.268 . S
C28 O34 1.268 . S
C28 O43 1.268 . S
C29 O35 1.268 . S
C29 O39 1.268 . S
C30 O36 1.268 . S
C30 O38 1.268 . S
C31 O37 1.268 . S
C31 O40 1.268 . S
O32 Sc22 2.105 . S
O32 C26 1.268 . S
O33 Sc23 2.105 . S
O33 C27 1.268 . S
O34 Sc24 2.105 . S
O34 C28 1.268 . S
O35 Sc22 2.105 . S
O35 C29 1.268 . S
O36 Sc24 2.105 . S
O36 C30 1.268 . S
O37 Sc23 2.105 . S
O37 C31 1.268 . S
O38 Sc22 2.105 . S
O38 C30 1.268 . S
O39 Sc23 2.105 . S
O39 C29 1.268 . S
O40 Sc24 2.105 . S
O40 C31 1.268 . S
O41 Sc22 2.105 . S
O41 C27 1.268 . S
O42 Sc24 2.105 . S
O42 C26 1.268 . S
O43 Sc23 2.105 . S
O43 C28 1.268 . S
Sc44 O47 2.025 . S
Sc44 O54 2.105 . S
Sc44 O57 2.105 . S
Sc44 O60 2.105 . S
Sc44 O63 2.105 . S
Sc45 O47 2.025 . S
Sc45 O55 2.105 . S
Sc45 O59 2.105 . S
Sc45 O61 2.105 . S
Sc45 O65 2.105 1_545 S
Sc46 O47 2.025 1_565 S
Sc46 O56 2.105 . S
Sc46 O58 2.105 1_565 S
Sc46 O62 2.105 1_565 S
Sc46 O64 2.105 . S
O47 Sc44 2.025 . S
O47 Sc45 2.025 . S
O47 Sc46 2.025 1_545 S
C48 O54 1.268 1_565 S
C48 O64 1.268 . S
C49 O55 1.268 . S
C49 O63 1.268 . S
C50 O56 1.268 . S
C50 O65 1.268 . S
C51 O57 1.268 . S
C51 O61 1.268 . S
C52 O58 1.268 . S
C52 O60 1.268 . S
C53 O59 1.268 . S
C53 O62 1.268 . S
O54 Sc44 2.105 . S
O54 C48 1.268 1_545 S
O55 Sc45 2.105 . S
O55 C49 1.268 . S
O56 Sc46 2.105 . S
O56 C50 1.268 . S
O57 Sc44 2.105 . S
O57 C51 1.268 . S
O58 Sc46 2.105 1_545 S
O58 C52 1.268 . S
O59 Sc45 2.105 . S
O59 C53 1.268 . S
O60 Sc44 2.105 . S
O60 C52 1.268 . S
O61 Sc45 2.105 . S
O61 C51 1.268 . S
O62 Sc46 2.105 1_545 S
O62 C53 1.268 . S
O63 Sc44 2.105 . S
O63 C49 1.268 . S
O64 Sc46 2.105 . S
O64 C48 1.268 . S
O65 Sc45 2.105 1_565 S
O65 C50 1.268 . S
Sc66 O69 2.025 . S
Sc66 O76 2.105 . S
Sc66 O79 2.105 . S
Sc66 O82 2.105 . S
Sc66 O85 2.105 . S
Sc67 O69 2.025 . S
Sc67 O77 2.105 . S
Sc67 O81 2.105 1_455 S
Sc67 O83 2.105 . S
Sc67 O87 2.105 . S
Sc68 O69 2.025 1_655 S
Sc68 O78 2.105 1_655 S
Sc68 O80 2.105 . S
Sc68 O84 2.105 . S
Sc68 O86 2.105 1_655 S
O69 Sc66 2.025 . S
O69 Sc67 2.025 . S
O69 Sc68 2.025 1_455 S
C70 O76 1.268 . S
C70 O86 1.268 . S
C71 O77 1.268 . S
C71 O85 1.268 . S
C72 O78 1.268 . S
C72 O87 1.268 . S
C73 O79 1.268 . S
C73 O83 1.268 . S
C74 O80 1.268 . S
C74 O82 1.268 1_655 S
C75 O81 1.268 . S
C75 O84 1.268 . S
O76 Sc66 2.105 . S
O76 C70 1.268 . S
O77 Sc67 2.105 . S
O77 C71 1.268 . S
O78 Sc68 2.105 1_455 S
O78 C72 1.268 . S
O79 Sc66 2.105 . S
O79 C73 1.268 . S
O80 Sc68 2.105 . S
O80 C74 1.268 . S
O81 Sc67 2.105 1_655 S
O81 C75 1.268 . S
O82 Sc66 2.105 . S
O82 C74 1.268 1_455 S
O83 Sc67 2.105 . S
O83 C73 1.268 . S
O84 Sc68 2.105 . S
O84 C75 1.268 . S
O85 Sc66 2.105 . S
O85 C71 1.268 . S
O86 Sc68 2.105 1_455 S
O86 C70 1.268 . S
O87 Sc67 2.105 . S
O87 C72 1.268 . S
Sc88 O91 2.025 . S
Sc88 O98 2.105 . S
Sc88 O101 2.105 . S
Sc88 O104 2.105 . S
Sc88 O107 2.105 . S
Sc89 O91 2.025 . S
Sc89 O99 2.105 . S
Sc89 O103 2.105 . S
Sc89 O105 2.105 . S
Sc89 O109 2.105 . S
Sc90 O91 2.025 . S
Sc90 O100 2.105 . S
Sc90 O102 2.105 . S
Sc90 O106 2.105 . S
Sc90 O108 2.105 . S
O91 Sc88 2.025 . S
O91 Sc89 2.025 . S
O91 Sc90 2.025 . S
C92 O98 1.268 . S
C92 O108 1.268 . S
C93 O99 1.268 . S
C93 O107 1.268 . S
C94 O100 1.268 . S
C94 O109 1.268 . S
C95 O101 1.268 . S
C95 O105 1.268 . S
C96 O102 1.268 . S
C96 O104 1.268 . S
C97 O103 1.268 . S
C97 O106 1.268 . S
O98 Sc88 2.105 . S
O98 C92 1.268 . S
O99 Sc89 2.105 . S
O99 C93 1.268 . S
O100 Sc90 2.105 . S
O100 C94 1.268 . S
O101 Sc88 2.105 . S
O101 C95 1.268 . S
O102 Sc90 2.105 . S
O102 C96 1.268 . S
O103 Sc89 2.105 . S
O103 C97 1.268 . S
O104 Sc88 2.105 . S
O104 C96 1.268 . S
O105 Sc89 2.105 . S
O105 C95 1.268 . S
O106 Sc90 2.105 . S
O106 C97 1.268 . S
O107 Sc88 2.105 . S
O107 C93 1.268 . S
O108 Sc90 2.105 . S
O108 C92 1.268 . S
O109 Sc89 2.105 . S
O109 C94 1.268 . S
Sc110 O113 2.025 1_565 S
Sc110 O120 2.105 . S
Sc110 O123 2.105 1_565 S
Sc110 O126 2.105 1_565 S
Sc110 O129 2.105 . S
Sc111 O113 2.025 . S
Sc111 O121 2.105 1_545 S
Sc111 O125 2.105 . S
Sc111 O127 2.105 . S
Sc111 O131 2.105 . S
Sc112 O113 2.025 . S
Sc112 O122 2.105 . S
Sc112 O124 2.105 . S
Sc112 O128 2.105 . S
Sc112 O130 2.105 . S
O113 Sc110 2.025 1_545 S
O113 Sc111 2.025 . S
O113 Sc112 2.025 . S
C114 O120 1.268 . S
C114 O130 1.268 1_565 S
C115 O121 1.268 . S
C115 O129 1.268 . S
C116 O122 1.268 . S
C116 O131 1.268 . S
C117 O123 1.268 . S
C117 O127 1.268 . S
C118 O124 1.268 . S
C118 O126 1.268 . S
C119 O125 1.268 . S
C119 O128 1.268 . S
O120 Sc110 2.105 . S
O120 C114 1.268 . S
O121 Sc111 2.105 1_565 S
O121 C115 1.268 . S
O122 Sc112 2.105 . S
O122 C116 1.268 . S
O123 Sc110 2.105 1_545 S
O123 C117 1.268 . S
O124 Sc112 2.105 . S
O124 C118 1.268 . S
O125 Sc111 2.105 . S
O125 C119 1.268 . S
O126 Sc110 2.105 1_545 S
O126 C118 1.268 . S
O127 Sc111 2.105 . S
O127 C117 1.268 . S
O128 Sc112 2.105 . S
O128 C119 1.268 . S
O129 Sc110 2.105 . S
O129 C115 1.268 . S
O130 Sc112 2.105 . S
O130 C114 1.268 1_545 S
O131 Sc111 2.105 . S
O131 C116 1.268 . S
Sc132 O135 2.025 . S
Sc132 O142 2.105 . S
Sc132 O145 2.105 . S
Sc132 O148 2.105 . S
Sc132 O151 2.105 . S
Sc133 O135 2.025 . S
Sc133 O143 2.105 . S
Sc133 O147 2.105 1_556 S
Sc133 O149 2.105 . S
Sc133 O153 2.105 . S
Sc134 O135 2.025 . S
Sc134 O144 2.105 . S
Sc134 O146 2.105 . S
Sc134 O150 2.105 1_556 S
Sc134 O152 2.105 . S
O135 Sc132 2.025 . S
O135 Sc133 2.025 . S
O135 Sc134 2.025 . S
C136 O142 1.268 . S
C136 O152 1.268 . S
C137 O143 1.268 . S
C137 O151 1.268 . S
C138 O144 1.268 . S
C138 O153 1.268 . S
C139 O145 1.268 . S
C139 O149 1.268 . S
C140 O146 1.268 . S
C140 O148 1.268 . S
C141 O147 1.268 . S
C141 O150 1.268 . S
O142 Sc132 2.105 . S
O142 C136 1.268 . S
O143 Sc133 2.105 . S
O143 C137 1.268 . S
O144 Sc134 2.105 . S
O144 C138 1.268 . S
O145 Sc132 2.105 . S
O145 C139 1.268 . S
O146 Sc134 2.105 . S
O146 C140 1.268 . S
O147 Sc133 2.105 1_554 S
O147 C141 1.268 . S
O148 Sc132 2.105 . S
O148 C140 1.268 . S
O149 Sc133 2.105 . S
O149 C139 1.268 . S
O150 Sc134 2.105 1_554 S
O150 C141 1.268 . S
O151 Sc132 2.105 . S
O151 C137 1.268 . S
O152 Sc134 2.105 . S
O152 C136 1.268 . S
O153 Sc133 2.105 . S
O153 C138 1.268 . S
Sc154 O157 2.025 . S
Sc154 O164 2.105 . S
Sc154 O167 2.105 . S
Sc154 O170 2.105 . S
Sc154 O173 2.105 . S
Sc155 O157 2.025 . S
Sc155 O165 2.105 . S
Sc155 O169 2.105 1_556 S
Sc155 O171 2.105 . S
Sc155 O175 2.105 . S
Sc156 O157 2.025 . S
Sc156 O166 2.105 . S
Sc156 O168 2.105 . S
Sc156 O172 2.105 1_556 S
Sc156 O174 2.105 . S
O157 Sc154 2.025 . S
O157 Sc155 2.025 . S
O157 Sc156 2.025 . S
C158 O164 1.268 . S
C158 O174 1.268 . S
C159 O165 1.268 . S
C159 O173 1.268 . S
C160 O166 1.268 . S
C160 O175 1.268 . S
C161 O167 1.268 . S
C161 O171 1.268 . S
C162 O168 1.268 . S
C162 O170 1.268 . S
C163 O169 1.268 . S
C163 O172 1.268 . S
O164 Sc154 2.105 . S
O164 C158 1.268 . S
O165 Sc155 2.105 . S
O165 C159 1.268 . S
O166 Sc156 2.105 . S
O166 C160 1.268 . S
O167 Sc154 2.105 . S
O167 C161 1.268 . S
O168 Sc156 2.105 . S
O168 C162 1.268 . S
O169 Sc155 2.105 1_554 S
O169 C163 1.268 . S
O170 Sc154 2.105 . S
O170 C162 1.268 . S
O171 Sc155 2.105 . S
O171 C161 1.268 . S
O172 Sc156 2.105 1_554 S
O172 C163 1.268 . S
O173 Sc154 2.105 . S
O173 C159 1.268 . S
O174 Sc156 2.105 . S
O174 C158 1.268 . S
O175 Sc155 2.105 . S
O175 C160 1.268 . S
Sc176 O179 2.025 . S
Sc176 O186 2.105 . S
Sc176 O189 2.105 . S
Sc176 O192 2.105 . S
Sc176 O195 2.105 . S
Sc177 O179 2.025 . S
Sc177 O187 2.105 . S
Sc177 O191 2.105 1_556 S
Sc177 O193 2.105 . S
Sc177 O197 2.105 . S
Sc178 O179 2.025 . S
Sc178 O188 2.105 . S
Sc178 O190 2.105 . S
Sc178 O194 2.105 1_556 S
Sc178 O196 2.105 . S
O179 Sc176 2.025 . S
O179 Sc177 2.025 . S
O179 Sc178 2.025 . S
C180 O186 1.268 . S
C180 O196 1.268 . S
C181 O187 1.268 . S
C181 O195 1.268 . S
C182 O188 1.268 . S
C182 O197 1.268 . S
C183 O189 1.268 . S
C183 O193 1.268 . S
C184 O190 1.268 . S
C184 O192 1.268 . S
C185 O191 1.268 . S
C185 O194 1.268 . S
O186 Sc176 2.105 . S
O186 C180 1.268 . S
O187 Sc177 2.105 . S
O187 C181 1.268 . S
O188 Sc178 2.105 . S
O188 C182 1.268 . S
O189 Sc176 2.105 . S
O189 C183 1.268 . S
O190 Sc178 2.105 . S
O190 C184 1.268 . S
O191 Sc177 2.105 1_554 S
O191 C185 1.268 . S
O192 Sc176 2.105 . S
O192 C184 1.268 . S
O193 Sc177 2.105 . S
O193 C183 1.268 . S
O194 Sc178 2.105 1_554 S
O194 C185 1.268 . S
O195 Sc176 2.105 . S
O195 C181 1.268 . S
O196 Sc178 2.105 . S
O196 C180 1.268 . S
O197 Sc177 2.105 . S
O197 C182 1.268 . S
Sc198 O201 2.025 . S
Sc198 O208 2.105 . S
Sc198 O211 2.105 1_556 S
Sc198 O214 2.105 . S
Sc198 O217 2.105 . S
Sc199 O201 2.025 . S
Sc199 O209 2.105 . S
Sc199 O213 2.105 . S
Sc199 O215 2.105 1_556 S
Sc199 O219 2.105 . S
Sc200 O201 2.025 . S
Sc200 O210 2.105 . S
Sc200 O212 2.105 . S
Sc200 O216 2.105 . S
Sc200 O218 2.105 . S
O201 Sc198 2.025 . S
O201 Sc199 2.025 . S
O201 Sc200 2.025 . S
C202 O208 1.268 . S
C202 O218 1.268 . S
C203 O209 1.268 . S
C203 O217 1.268 . S
C204 O210 1.268 . S
C204 O219 1.268 . S
C205 O211 1.268 . S
C205 O215 1.268 . S
C206 O212 1.268 . S
C206 O214 1.268 . S
C207 O213 1.268 . S
C207 O216 1.268 . S
O208 Sc198 2.105 . S
O208 C202 1.268 . S
O209 Sc199 2.105 . S
O209 C203 1.268 . S
O210 Sc200 2.105 . S
O210 C204 1.268 . S
O211 Sc198 2.105 1_554 S
O211 C205 1.268 . S
O212 Sc200 2.105 . S
O212 C206 1.268 . S
O213 Sc199 2.105 . S
O213 C207 1.268 . S
O214 Sc198 2.105 . S
O214 C206 1.268 . S
O215 Sc199 2.105 1_554 S
O215 C205 1.268 . S
O216 Sc200 2.105 . S
O216 C207 1.268 . S
O217 Sc198 2.105 . S
O217 C203 1.268 . S
O218 Sc200 2.105 . S
O218 C202 1.268 . S
O219 Sc199 2.105 . S
O219 C204 1.268 . S
Sc220 O223 2.025 . S
Sc220 O230 2.105 . S
Sc220 O233 2.105 1_556 S
Sc220 O236 2.105 . S
Sc220 O239 2.105 . S
Sc221 O223 2.025 . S
Sc221 O231 2.105 . S
Sc221 O235 2.105 . S
Sc221 O237 2.105 1_556 S
Sc221 O241 2.105 . S
Sc222 O223 2.025 . S
Sc222 O232 2.105 . S
Sc222 O234 2.105 . S
Sc222 O238 2.105 . S
Sc222 O240 2.105 . S
O223 Sc220 2.025 . S
O223 Sc221 2.025 . S
O223 Sc222 2.025 . S
C224 O230 1.268 . S
C224 O240 1.268 . S
C225 O231 1.268 . S
C225 O239 1.268 . S
C226 O232 1.268 . S
C226 O241 1.268 . S
C227 O233 1.268 . S
C227 O237 1.268 . S
C228 O234 1.268 . S
C228 O236 1.268 . S
C229 O235 1.268 . S
C229 O238 1.268 . S
O230 Sc220 2.105 . S
O230 C224 1.268 . S
O231 Sc221 2.105 . S
O231 C225 1.268 . S
O232 Sc222 2.105 . S
O232 C226 1.268 . S
O233 Sc220 2.105 1_554 S
O233 C227 1.268 . S
O234 Sc222 2.105 . S
O234 C228 1.268 . S
O235 Sc221 2.105 . S
O235 C229 1.268 . S
O236 Sc220 2.105 . S
O236 C228 1.268 . S
O237 Sc221 2.105 1_554 S
O237 C227 1.268 . S
O238 Sc222 2.105 . S
O238 C229 1.268 . S
O239 Sc220 2.105 . S
O239 C225 1.268 . S
O240 Sc222 2.105 . S
O240 C224 1.268 . S
O241 Sc221 2.105 . S
O241 C226 1.268 . S
Sc242 O245 2.025 . S
Sc242 O252 2.105 . S
Sc242 O255 2.105 1_556 S
Sc242 O258 2.105 . S
Sc242 O261 2.105 . S
Sc243 O245 2.025 . S
Sc243 O253 2.105 . S
Sc243 O257 2.105 . S
Sc243 O259 2.105 1_556 S
Sc243 O263 2.105 . S
Sc244 O245 2.025 . S
Sc244 O254 2.105 . S
Sc244 O256 2.105 . S
Sc244 O260 2.105 . S
Sc244 O262 2.105 . S
O245 Sc242 2.025 . S
O245 Sc243 2.025 . S
O245 Sc244 2.025 . S
C246 O252 1.268 . S
C246 O262 1.268 . S
C247 O253 1.268 . S
C247 O261 1.268 . S
C248 O254 1.268 . S
C248 O263 1.268 . S
C249 O255 1.268 . S
C249 O259 1.268 . S
C250 O256 1.268 . S
C250 O258 1.268 . S
C251 O257 1.268 . S
C251 O260 1.268 . S
O252 Sc242 2.105 . S
O252 C246 1.268 . S
O253 Sc243 2.105 . S
O253 C247 1.268 . S
O254 Sc244 2.105 . S
O254 C248 1.268 . S
O255 Sc242 2.105 1_554 S
O255 C249 1.268 . S
O256 Sc244 2.105 . S
O256 C250 1.268 . S
O257 Sc243 2.105 . S
O257 C251 1.268 . S
O258 Sc242 2.105 . S
O258 C250 1.268 . S
O259 Sc243 2.105 1_554 S
O259 C249 1.268 . S
O260 Sc244 2.105 . S
O260 C251 1.268 . S
O261 Sc242 2.105 . S
O261 C247 1.268 . S
O262 Sc244 2.105 . S
O262 C246 1.268 . S
O263 Sc243 2.105 . S
O263 C248 1.268 . S
Sc264 O267 2.025 . S
Sc264 O274 2.105 . S
Sc264 O277 2.105 . S
Sc264 O280 2.105 . S
Sc264 O283 2.105 1_554 S
Sc265 O267 2.025 . S
Sc265 O275 2.105 1_554 S
Sc265 O279 2.105 . S
Sc265 O281 2.105 . S
Sc265 O285 2.105 . S
Sc266 O267 2.025 . S
Sc266 O276 2.105 . S
Sc266 O278 2.105 . S
Sc266 O282 2.105 . S
Sc266 O284 2.105 . S
O267 Sc264 2.025 . S
O267 Sc265 2.025 . S
O267 Sc266 2.025 . S
C268 O274 1.268 . S
C268 O284 1.268 . S
C269 O275 1.268 . S
C269 O283 1.268 . S
C270 O276 1.268 . S
C270 O285 1.268 . S
C271 O277 1.268 . S
C271 O281 1.268 . S
C272 O278 1.268 . S
C272 O280 1.268 . S
C273 O279 1.268 . S
C273 O282 1.268 . S
O274 Sc264 2.105 . S
O274 C268 1.268 . S
O275 Sc265 2.105 1_556 S
O275 C269 1.268 . S
O276 Sc266 2.105 . S
O276 C270 1.268 . S
O277 Sc264 2.105 . S
O277 C271 1.268 . S
O278 Sc266 2.105 . S
O278 C272 1.268 . S
O279 Sc265 2.105 . S
O279 C273 1.268 . S
O280 Sc264 2.105 . S
O280 C272 1.268 . S
O281 Sc265 2.105 . S
O281 C271 1.268 . S
O282 Sc266 2.105 . S
O282 C273 1.268 . S
O283 Sc264 2.105 1_556 S
O283 C269 1.268 . S
O284 Sc266 2.105 . S
O284 C268 1.268 . S
O285 Sc265 2.105 . S
O285 C270 1.268 . S
Sc286 O289 2.025 . S
Sc286 O296 2.105 . S
Sc286 O299 2.105 . S
Sc286 O302 2.105 . S
Sc286 O305 2.105 1_554 S
Sc287 O289 2.025 . S
Sc287 O297 2.105 1_554 S
Sc287 O301 2.105 . S
Sc287 O303 2.105 . S
Sc287 O307 2.105 . S
Sc288 O289 2.025 . S
Sc288 O298 2.105 . S
Sc288 O300 2.105 . S
Sc288 O304 2.105 . S
Sc288 O306 2.105 . S
O289 Sc286 2.025 . S
O289 Sc287 2.025 . S
O289 Sc288 2.025 . S
C290 O296 1.268 . S
C290 O306 1.268 . S
C291 O297 1.268 . S
C291 O305 1.268 . S
C292 O298 1.268 . S
C292 O307 1.268 . S
C293 O299 1.268 . S
C293 O303 1.268 . S
C294 O300 1.268 . S
C294 O302 1.268 . S
C295 O301 1.268 . S
C295 O304 1.268 . S
O296 Sc286 2.105 . S
O296 C290 1.268 . S
O297 Sc287 2.105 1_556 S
O297 C291 1.268 . S
O298 Sc288 2.105 . S
O298 C292 1.268 . S
O299 Sc286 2.105 . S
O299 C293 1.268 . S
O300 Sc288 2.105 . S
O300 C294 1.268 . S
O301 Sc287 2.105 . S
O301 C295 1.268 . S
O302 Sc286 2.105 . S
O302 C294 1.268 . S
O303 Sc287 2.105 . S
O303 C293 1.268 . S
O304 Sc288 2.105 . S
O304 C295 1.268 . S
O305 Sc286 2.105 1_556 S
O305 C291 1.268 . S
O306 Sc288 2.105 . S
O306 C290 1.268 . S
O307 Sc287 2.105 . S
O307 C292 1.268 . S
Sc308 O311 2.025 . S
Sc308 O318 2.105 . S
Sc308 O321 2.105 . S
Sc308 O324 2.105 . S
Sc308 O327 2.105 1_554 S
Sc309 O311 2.025 . S
Sc309 O319 2.105 1_554 S
Sc309 O323 2.105 . S
Sc309 O325 2.105 . S
Sc309 O329 2.105 . S
Sc310 O311 2.025 . S
Sc310 O320 2.105 . S
Sc310 O322 2.105 . S
Sc310 O326 2.105 . S
Sc310 O328 2.105 . S
O311 Sc308 2.025 . S
O311 Sc309 2.025 . S
O311 Sc310 2.025 . S
C312 O318 1.268 . S
C312 O328 1.268 . S
C313 O319 1.268 . S
C313 O327 1.268 . S
C314 O320 1.268 . S
C314 O329 1.268 . S
C315 O321 1.268 . S
C315 O325 1.268 . S
C316 O322 1.268 . S
C316 O324 1.268 . S
C317 O323 1.268 . S
C317 O326 1.268 . S
O318 Sc308 2.105 . S
O318 C312 1.268 . S
O319 Sc309 2.105 1_556 S
O319 C313 1.268 . S
O320 Sc310 2.105 . S
O320 C314 1.268 . S
O321 Sc308 2.105 . S
O321 C315 1.268 . S
O322 Sc310 2.105 . S
O322 C316 1.268 . S
O323 Sc309 2.105 . S
O323 C317 1.268 . S
O324 Sc308 2.105 . S
O324 C316 1.268 . S
O325 Sc309 2.105 . S
O325 C315 1.268 . S
O326 Sc310 2.105 . S
O326 C317 1.268 . S
O327 Sc308 2.105 1_556 S
O327 C313 1.268 . S
O328 Sc310 2.105 . S
O328 C312 1.268 . S
O329 Sc309 2.105 . S
O329 C314 1.268 . S
Sc330 O333 2.025 . S
Sc330 O340 2.105 . S
Sc330 O343 2.105 . S
Sc330 O346 2.105 . S
Sc330 O349 2.105 . S
Sc331 O333 2.025 . S
Sc331 O341 2.105 . S
Sc331 O345 2.105 . S
Sc331 O347 2.105 . S
Sc331 O351 2.105 1_554 S
Sc332 O333 2.025 . S
Sc332 O342 2.105 1_554 S
Sc332 O344 2.105 . S
Sc332 O348 2.105 . S
Sc332 O350 2.105 . S
O333 Sc330 2.025 . S
O333 Sc331 2.025 . S
O333 Sc332 2.025 . S
C334 O340 1.268 . S
C334 O350 1.268 . S
C335 O341 1.268 . S
C335 O349 1.268 . S
C336 O342 1.268 . S
C336 O351 1.268 . S
C337 O343 1.268 . S
C337 O347 1.268 . S
C338 O344 1.268 . S
C338 O346 1.268 . S
C339 O345 1.268 . S
C339 O348 1.268 . S
O340 Sc330 2.105 . S
O340 C334 1.268 . S
O341 Sc331 2.105 . S
O341 C335 1.268 . S
O342 Sc332 2.105 1_556 S
O342 C336 1.268 . S
O343 Sc330 2.105 . S
O343 C337 1.268 . S
O344 Sc332 2.105 . S
O344 C338 1.268 . S
O345 Sc331 2.105 . S
O345 C339 1.268 . S
O346 Sc330 2.105 . S
O346 C338 1.268 . S
O347 Sc331 2.105 . S
O347 C337 1.268 . S
O348 Sc332 2.105 . S
O348 C339 1.268 . S
O349 Sc330 2.105 . S
O349 C335 1.268 . S
O350 Sc332 2.105 . S
O350 C334 1.268 . S
O351 Sc331 2.105 1_556 S
O351 C336 1.268 . S
Sc352 O355 2.025 . S
Sc352 O362 2.105 . S
Sc352 O365 2.105 . S
Sc352 O368 2.105 . S
Sc352 O371 2.105 . S
Sc353 O355 2.025 . S
Sc353 O363 2.105 . S
Sc353 O367 2.105 . S
Sc353 O369 2.105 . S
Sc353 O373 2.105 1_554 S
Sc354 O355 2.025 . S
Sc354 O364 2.105 1_554 S
Sc354 O366 2.105 . S
Sc354 O370 2.105 . S
Sc354 O372 2.105 . S
O355 Sc352 2.025 . S
O355 Sc353 2.025 . S
O355 Sc354 2.025 . S
C356 O362 1.268 . S
C356 O372 1.268 . S
C357 O363 1.268 . S
C357 O371 1.268 . S
C358 O364 1.268 . S
C358 O373 1.268 . S
C359 O365 1.268 . S
C359 O369 1.268 . S
C360 O366 1.268 . S
C360 O368 1.268 . S
C361 O367 1.268 . S
C361 O370 1.268 . S
O362 Sc352 2.105 . S
O362 C356 1.268 . S
O363 Sc353 2.105 . S
O363 C357 1.268 . S
O364 Sc354 2.105 1_556 S
O364 C358 1.268 . S
O365 Sc352 2.105 . S
O365 C359 1.268 . S
O366 Sc354 2.105 . S
O366 C360 1.268 . S
O367 Sc353 2.105 . S
O367 C361 1.268 . S
O368 Sc352 2.105 . S
O368 C360 1.268 . S
O369 Sc353 2.105 . S
O369 C359 1.268 . S
O370 Sc354 2.105 . S
O370 C361 1.268 . S
O371 Sc352 2.105 . S
O371 C357 1.268 . S
O372 Sc354 2.105 . S
O372 C356 1.268 . S
O373 Sc353 2.105 1_556 S
O373 C358 1.268 . S
Sc374 O377 2.025 . S
Sc374 O384 2.105 . S
Sc374 O387 2.105 . S
Sc374 O390 2.105 . S
Sc374 O393 2.105 . S
Sc375 O377 2.025 . S
Sc375 O385 2.105 . S
Sc375 O389 2.105 . S
Sc375 O391 2.105 . S
Sc375 O395 2.105 1_554 S
Sc376 O377 2.025 . S
Sc376 O386 2.105 1_554 S
Sc376 O388 2.105 . S
Sc376 O392 2.105 . S
Sc376 O394 2.105 . S
O377 Sc374 2.025 . S
O377 Sc375 2.025 . S
O377 Sc376 2.025 . S
C378 O384 1.268 . S
C378 O394 1.268 . S
C379 O385 1.268 . S
C379 O393 1.268 . S
C380 O386 1.268 . S
C380 O395 1.268 . S
C381 O387 1.268 . S
C381 O391 1.268 . S
C382 O388 1.268 . S
C382 O390 1.268 . S
C383 O389 1.268 . S
C383 O392 1.268 . S
O384 Sc374 2.105 . S
O384 C378 1.268 . S
O385 Sc375 2.105 . S
O385 C379 1.268 . S
O386 Sc376 2.105 1_556 S
O386 C380 1.268 . S
O387 Sc374 2.105 . S
O387 C381 1.268 . S
O388 Sc376 2.105 . S
O388 C382 1.268 . S
O389 Sc375 2.105 . S
O389 C383 1.268 . S
O390 Sc374 2.105 . S
O390 C382 1.268 . S
O391 Sc375 2.105 . S
O391 C381 1.268 . S
O392 Sc376 2.105 . S
O392 C383 1.268 . S
O393 Sc374 2.105 . S
O393 C379 1.268 . S
O394 Sc376 2.105 . S
O394 C378 1.268 . S
O395 Sc375 2.105 1_556 S
O395 C380 1.268 . S
C396 C397 1.369 . S
C396 C398 1.419 . S
C396 H400 0.930 . S
C397 C396 1.369 . S
C397 C406 1.429 . S
C398 C396 1.419 . S
C398 C399 1.363 . S
C398 H401 0.929 . S
C399 C398 1.363 . S
C399 C405 1.428 . S
H400 C396 0.930 . S
H401 C398 0.929 . S
S402 N403 1.613 . S
S402 N404 1.610 . S
N403 S402 1.613 . S
N403 C406 1.350 . S
N404 S402 1.610 . S
N404 C405 1.351 . S
C405 C399 1.428 . S
C405 N404 1.351 . S
C405 C406 1.434 . S
C406 C397 1.429 . S
C406 N403 1.350 . S
C406 C405 1.434 . S
C407 C408 1.369 . S
C407 C409 1.419 . S
C407 H411 0.930 . S
C408 C407 1.369 . S
C408 C417 1.429 . S
C409 C407 1.419 . S
C409 C410 1.363 . S
C409 H412 0.929 . S
C410 C409 1.363 . S
C410 C416 1.428 . S
H411 C407 0.930 . S
H412 C409 0.929 . S
S413 N414 1.613 . S
S413 N415 1.610 . S
N414 S413 1.613 . S
N414 C417 1.350 . S
N415 S413 1.610 . S
N415 C416 1.351 . S
C416 C410 1.428 . S
C416 N415 1.351 . S
C416 C417 1.434 . S
C417 C408 1.429 . S
C417 N414 1.350 . S
C417 C416 1.434 . S
C418 C419 1.369 . S
C418 C420 1.419 . S
C418 H422 0.930 . S
C419 C418 1.369 . S
C419 C428 1.429 . S
C420 C418 1.419 . S
C420 C421 1.363 . S
C420 H423 0.929 . S
C421 C420 1.363 . S
C421 C427 1.428 . S
H422 C418 0.930 . S
H423 C420 0.929 . S
S424 N425 1.613 . S
S424 N426 1.610 . S
N425 S424 1.613 . S
N425 C428 1.350 . S
N426 S424 1.610 . S
N426 C427 1.351 . S
C427 C421 1.428 . S
C427 N426 1.351 . S
C427 C428 1.434 . S
C428 C419 1.429 . S
C428 N425 1.350 . S
C428 C427 1.434 . S
C429 C430 1.369 . S
C429 C431 1.419 . S
C429 H433 0.930 . S
C430 C429 1.369 . S
C430 C439 1.429 . S
C431 C429 1.419 . S
C431 C432 1.363 . S
C431 H434 0.929 . S
C432 C431 1.363 . S
C432 C438 1.428 . S
H433 C429 0.930 . S
H434 C431 0.929 . S
S435 N436 1.613 . S
S435 N437 1.610 . S
N436 S435 1.613 . S
N436 C439 1.350 . S
N437 S435 1.610 . S
N437 C438 1.351 . S
C438 C432 1.428 . S
C438 N437 1.351 . S
C438 C439 1.434 . S
C439 C430 1.429 . S
C439 N436 1.350 . S
C439 C438 1.434 . S
C440 C441 1.369 . S
C440 C442 1.419 . S
C440 H444 0.930 . S
C441 C440 1.369 . S
C441 C450 1.429 . S
C442 C440 1.419 . S
C442 C443 1.363 . S
C442 H445 0.929 . S
C443 C442 1.363 . S
C443 C449 1.428 . S
H444 C440 0.930 . S
H445 C442 0.929 . S
S446 N447 1.613 1_455 S
S446 N448 1.610 . S
N447 S446 1.613 1_655 S
N447 C450 1.350 . S
N448 S446 1.610 . S
N448 C449 1.351 1_455 S
C449 C443 1.428 . S
C449 N448 1.351 1_655 S
C449 C450 1.434 . S
C450 C441 1.429 . S
C450 N447 1.350 . S
C450 C449 1.434 . S
C451 C452 1.369 . S
C451 C453 1.419 . S
C451 H455 0.930 . S
C452 C451 1.369 . S
C452 C461 1.429 . S
C453 C451 1.419 . S
C453 C454 1.363 . S
C453 H456 0.929 . S
C454 C453 1.363 . S
C454 C460 1.428 . S
H455 C451 0.930 . S
H456 C453 0.929 . S
S457 N458 1.613 . S
S457 N459 1.610 . S
N458 S457 1.613 . S
N458 C461 1.350 . S
N459 S457 1.610 . S
N459 C460 1.351 . S
C460 C454 1.428 . S
C460 N459 1.351 . S
C460 C461 1.434 . S
C461 C452 1.429 . S
C461 N458 1.350 . S
C461 C460 1.434 . S
C462 C463 1.369 . S
C462 C464 1.419 . S
C462 H466 0.930 . S
C463 C462 1.369 . S
C463 C472 1.429 . S
C464 C462 1.419 . S
C464 C465 1.363 . S
C464 H467 0.929 . S
C465 C464 1.363 . S
C465 C471 1.428 . S
H466 C462 0.930 . S
H467 C464 0.929 . S
S468 N469 1.613 . S
S468 N470 1.610 1_455 S
N469 S468 1.613 . S
N469 C472 1.350 1_455 S
N470 S468 1.610 1_655 S
N470 C471 1.351 . S
C471 C465 1.428 . S
C471 N470 1.351 . S
C471 C472 1.434 . S
C472 C463 1.429 . S
C472 N469 1.350 1_655 S
C472 C471 1.434 . S
C473 C474 1.369 . S
C473 C475 1.419 . S
C473 H477 0.930 . S
C474 C473 1.369 . S
C474 C483 1.429 . S
C475 C473 1.419 . S
C475 C476 1.363 . S
C475 H478 0.929 . S
C476 C475 1.363 . S
C476 C482 1.428 . S
H477 C473 0.930 . S
H478 C475 0.929 . S
S479 N480 1.613 . S
S479 N481 1.610 . S
N480 S479 1.613 . S
N480 C483 1.350 . S
N481 S479 1.610 . S
N481 C482 1.351 . S
C482 C476 1.428 . S
C482 N481 1.351 . S
C482 C483 1.434 . S
C483 C474 1.429 . S
C483 N480 1.350 . S
C483 C482 1.434 . S
C484 C485 1.369 . S
C484 C486 1.419 . S
C484 H488 0.930 . S
C485 C484 1.369 . S
C485 C494 1.429 . S
C486 C484 1.419 . S
C486 C487 1.363 . S
C486 H489 0.929 . S
C487 C486 1.363 . S
C487 C493 1.428 . S
H488 C484 0.930 . S
H489 C486 0.929 . S
S490 N491 1.613 . S
S490 N492 1.610 . S
N491 S490 1.613 . S
N491 C494 1.350 . S
N492 S490 1.610 . S
N492 C493 1.351 . S
C493 C487 1.428 . S
C493 N492 1.351 . S
C493 C494 1.434 . S
C494 C485 1.429 . S
C494 N491 1.350 . S
C494 C493 1.434 . S
C495 C496 1.369 . S
C495 C497 1.419 . S
C495 H499 0.930 . S
C496 C495 1.369 . S
C496 C505 1.429 . S
C497 C495 1.419 . S
C497 C498 1.363 . S
C497 H500 0.899 1_565 S
C498 C497 1.363 . S
C498 C504 1.428 . S
H499 C495 0.930 . S
H500 C497 0.899 1_545 S
S501 N502 1.613 . S
S501 N503 1.610 . S
N502 S501 1.613 . S
N502 C505 1.350 . S
N503 S501 1.610 . S
N503 C504 1.351 . S
C504 C498 1.428 . S
C504 N503 1.351 . S
C504 C505 1.434 . S
C505 C496 1.429 . S
C505 N502 1.350 . S
C505 C504 1.434 . S
C506 C507 1.369 . S
C506 C508 1.419 . S
C506 H510 0.930 . S
C507 C506 1.369 . S
C507 C516 1.429 . S
C508 C506 1.419 . S
C508 C509 1.363 . S
C508 H511 0.929 . S
C509 C508 1.363 . S
C509 C515 1.428 . S
H510 C506 0.930 . S
H511 C508 0.929 . S
S512 N513 1.613 . S
S512 N514 1.610 . S
N513 S512 1.613 . S
N513 C516 1.350 . S
N514 S512 1.610 . S
N514 C515 1.351 . S
C515 C509 1.428 . S
C515 N514 1.351 . S
C515 C516 1.434 . S
C516 C507 1.429 . S
C516 N513 1.350 . S
C516 C515 1.434 . S
C517 C518 1.369 . S
C517 C519 1.419 . S
C517 H521 0.930 . S
C518 C517 1.369 . S
C518 C527 1.429 . S
C519 C517 1.419 . S
C519 C520 1.363 . S
C519 H522 0.929 . S
C520 C519 1.363 . S
C520 C526 1.428 . S
H521 C517 0.930 . S
H522 C519 0.929 . S
S523 N524 1.613 . S
S523 N525 1.610 . S
N524 S523 1.613 . S
N524 C527 1.350 . S
N525 S523 1.610 . S
N525 C526 1.351 . S
C526 C520 1.428 . S
C526 N525 1.351 . S
C526 C527 1.434 . S
C527 C518 1.429 . S
C527 N524 1.350 . S
C527 C526 1.434 . S
C528 C529 1.364 1_454 S
C528 C530 1.424 . S
C528 H532 0.930 1_455 S
C529 C528 1.364 1_656 S
C529 C538 1.429 1_655 S
C530 C528 1.424 . S
C530 C531 1.363 . S
C530 H533 0.929 . S
C531 C530 1.363 . S
C531 C537 1.428 1_554 S
H532 C528 0.930 1_655 S
H533 C530 0.929 . S
S534 N535 1.613 1_455 S
S534 N536 1.610 . S
N535 S534 1.613 1_655 S
N535 C538 1.350 1_655 S
N536 S534 1.610 . S
N536 C537 1.351 . S
C537 C531 1.428 1_556 S
C537 N536 1.351 . S
C537 C538 1.434 . S
C538 C529 1.429 1_455 S
C538 N535 1.350 1_455 S
C538 C537 1.434 . S
C539 C540 1.369 . S
C539 C541 1.419 . S
C539 H543 0.930 . S
C540 C539 1.369 . S
C540 C549 1.429 1_556 S
C541 C539 1.419 . S
C541 C542 1.363 1_556 S
C541 H544 0.929 . S
C542 C541 1.363 1_554 S
C542 C548 1.428 . S
H543 C539 0.930 . S
H544 C541 0.929 . S
S545 N546 1.613 . S
S545 N547 1.610 . S
N546 S545 1.613 . S
N546 C549 1.350 . S
N547 S545 1.610 . S
N547 C548 1.351 . S
C548 C542 1.428 . S
C548 N547 1.351 . S
C548 C549 1.434 . S
C549 C540 1.429 1_554 S
C549 N546 1.350 . S
C549 C548 1.434 . S
C550 C551 1.369 . S
C550 C552 1.395 1_545 S
C550 H554 0.930 . S
C551 C550 1.369 . S
C551 C560 1.429 1_556 S
C552 C550 1.395 1_565 S
C552 C553 1.367 1_556 S
C552 H555 0.950 . S
C553 C552 1.367 1_554 S
C553 C559 1.428 1_565 S
H554 C550 0.930 . S
H555 C552 0.950 . S
S556 N557 1.613 . S
S556 N558 1.610 1_545 S
N557 S556 1.613 . S
N557 C560 1.350 . S
N558 S556 1.610 1_565 S
N558 C559 1.351 1_565 S
C559 C553 1.428 1_545 S
C559 N558 1.351 1_545 S
C559 C560 1.434 . S
C560 C551 1.429 1_554 S
C560 N557 1.350 . S
C560 C559 1.434 . S
C561 C562 1.369 . S
C561 C563 1.374 1_545 S
C561 H565 0.930 . S
C562 C561 1.369 . S
C562 C571 1.429 1_556 S
C563 C561 1.374 1_565 S
C563 C564 1.391 1_556 S
C563 H566 0.948 . S
C564 C563 1.391 1_554 S
C564 C570 1.428 1_565 S
H565 C561 0.930 . S
H566 C563 0.948 . S
S567 N568 1.613 . S
S567 N569 1.610 1_545 S
N568 S567 1.613 . S
N568 C571 1.350 . S
N569 S567 1.610 1_565 S
N569 C570 1.351 1_565 S
C570 C564 1.428 1_545 S
C570 N569 1.351 1_545 S
C570 C571 1.434 . S
C571 C562 1.429 1_554 S
C571 N568 1.350 . S
C571 C570 1.434 . S
C572 C573 1.369 1_556 S
C572 C574 1.419 . S
C572 H576 0.930 . S
C573 C572 1.369 1_554 S
C573 C582 1.429 . S
C574 C572 1.419 . S
C574 C575 1.363 1_455 S
C574 H577 0.929 1_455 S
C575 C574 1.363 1_655 S
C575 C581 1.428 1_556 S
H576 C572 0.930 . S
H577 C574 0.929 1_655 S
S578 N579 1.613 . S
S578 N580 1.610 1_455 S
N579 S578 1.613 . S
N579 C582 1.350 . S
N580 S578 1.610 1_655 S
N580 C581 1.351 . S
C581 C575 1.428 1_554 S
C581 N580 1.351 . S
C581 C582 1.434 1_655 S
C582 C573 1.429 . S
C582 N579 1.350 . S
C582 C581 1.434 1_455 S
C583 C584 1.369 . S
C583 C585 1.419 . S
C583 H587 0.930 . S
C584 C583 1.369 . S
C584 C593 1.429 1_554 S
C585 C583 1.419 . S
C585 C586 1.363 1_554 S
C585 H588 0.929 . S
C586 C585 1.363 1_556 S
C586 C592 1.428 . S
H587 C583 0.930 . S
H588 C585 0.929 . S
S589 N590 1.613 . S
S589 N591 1.610 . S
N590 S589 1.613 . S
N590 C593 1.350 . S
N591 S589 1.610 . S
N591 C592 1.351 . S
C592 C586 1.428 . S
C592 N591 1.351 . S
C592 C593 1.434 . S
C593 C584 1.429 1_556 S
C593 N590 1.350 . S
C593 C592 1.434 . S
C594 C595 1.369 . S
C594 C596 1.419 . S
C594 H598 0.930 . S
C595 C594 1.369 . S
C595 C604 1.429 . S
C596 C594 1.419 . S
C596 C597 1.363 . S
C596 H599 0.929 . S
C597 C596 1.363 . S
C597 C603 1.428 . S
H598 C594 0.930 . S
H599 C596 0.929 . S
S600 N601 1.613 . S
S600 N602 1.610 . S
N601 S600 1.613 . S
N601 C604 1.350 . S
N602 S600 1.610 . S
N602 C603 1.351 . S
C603 C597 1.428 . S
C603 N602 1.351 . S
C603 C604 1.434 . S
C604 C595 1.429 . S
C604 N601 1.350 . S
C604 C603 1.434 . S
C605 C606 1.369 . S
C605 C607 1.419 . S
C605 H609 0.930 . S
C606 C605 1.369 . S
C606 C615 1.429 . S
C607 C605 1.419 . S
C607 C608 1.363 . S
C607 H610 0.929 . S
C608 C607 1.363 . S
C608 C614 1.428 . S
H609 C605 0.930 . S
H610 C607 0.929 . S
S611 N612 1.613 . S
S611 N613 1.610 . S
N612 S611 1.613 . S
N612 C615 1.350 . S
N613 S611 1.610 . S
N613 C614 1.351 . S
C614 C608 1.428 . S
C614 N613 1.351 . S
C614 C615 1.434 . S
C615 C606 1.429 . S
C615 N612 1.350 . S
C615 C614 1.434 . S
C616 C617 1.369 . S
C616 C618 1.419 . S
C616 H620 0.930 . S
C617 C616 1.369 . S
C617 C626 1.429 . S
C618 C616 1.419 . S
C618 C619 1.363 . S
C618 H621 0.929 . S
C619 C618 1.363 . S
C619 C625 1.428 . S
H620 C616 0.930 . S
H621 C618 0.929 . S
S622 N623 1.613 . S
S622 N624 1.610 . S
N623 S622 1.613 . S
N623 C626 1.350 . S
N624 S622 1.610 . S
N624 C625 1.351 . S
C625 C619 1.428 . S
C625 N624 1.351 . S
C625 C626 1.434 . S
C626 C617 1.429 . S
C626 N623 1.350 . S
C626 C625 1.434 . S
C627 C628 1.369 . S
C627 C629 1.419 . S
C627 H631 0.930 . S
C628 C627 1.369 . S
C628 C637 1.429 . S
C629 C627 1.419 . S
C629 C630 1.363 . S
C629 H632 0.929 . S
C630 C629 1.363 . S
C630 C636 1.428 . S
H631 C627 0.930 . S
H632 C629 0.929 . S
S633 N634 1.613 . S
S633 N635 1.610 . S
N634 S633 1.613 . S
N634 C637 1.350 . S
N635 S633 1.610 . S
N635 C636 1.351 . S
C636 C630 1.428 . S
C636 N635 1.351 . S
C636 C637 1.434 . S
C637 C628 1.429 . S
C637 N634 1.350 . S
C637 C636 1.434 . S
C638 C639 1.369 . S
C638 C640 1.419 . S
C638 H642 0.930 . S
C639 C638 1.369 . S
C639 C648 1.429 . S
C640 C638 1.419 . S
C640 C641 1.363 . S
C640 H643 0.929 . S
C641 C640 1.363 . S
C641 C647 1.428 . S
H642 C638 0.930 . S
H643 C640 0.929 . S
S644 N645 1.613 . S
S644 N646 1.610 . S
N645 S644 1.613 . S
N645 C648 1.350 . S
N646 S644 1.610 . S
N646 C647 1.351 . S
C647 C641 1.428 . S
C647 N646 1.351 . S
C647 C648 1.434 . S
C648 C639 1.429 . S
C648 N645 1.350 . S
C648 C647 1.434 . S
C649 C650 1.369 . S
C649 C651 1.419 . S
C649 H653 0.930 . S
C650 C649 1.369 . S
C650 C659 1.429 . S
C651 C649 1.419 . S
C651 C652 1.363 . S
C651 H654 0.929 . S
C652 C651 1.363 . S
C652 C658 1.428 . S
H653 C649 0.930 . S
H654 C651 0.929 . S
S655 N656 1.613 . S
S655 N657 1.610 . S
N656 S655 1.613 . S
N656 C659 1.350 . S
N657 S655 1.610 . S
N657 C658 1.351 . S
C658 C652 1.428 . S
C658 N657 1.351 . S
C658 C659 1.434 . S
C659 C650 1.429 . S
C659 N656 1.350 . S
C659 C658 1.434 . S
C660 C661 1.369 . S
C660 C662 1.419 . S
C660 H664 0.930 . S
C661 C660 1.369 . S
C661 C670 1.429 . S
C662 C660 1.419 . S
C662 C663 1.363 . S
C662 H665 0.929 . S
C663 C662 1.363 . S
C663 C669 1.428 . S
H664 C660 0.930 . S
H665 C662 0.929 . S
S666 N667 1.613 . S
S666 N668 1.610 . S
N667 S666 1.613 . S
N667 C670 1.350 . S
N668 S666 1.610 . S
N668 C669 1.351 . S
C669 C663 1.428 . S
C669 N668 1.351 . S
C669 C670 1.434 . S
C670 C661 1.429 . S
C670 N667 1.350 . S
C670 C669 1.434 . S
C671 C672 1.369 . S
C671 C673 1.419 . S
C671 H675 0.930 . S
C672 C671 1.369 . S
C672 C681 1.429 . S
C673 C671 1.419 . S
C673 C674 1.363 . S
C673 H676 0.929 . S
C674 C673 1.363 . S
C674 C680 1.428 . S
H675 C671 0.930 . S
H676 C673 0.929 . S
S677 N678 1.613 . S
S677 N679 1.610 . S
N678 S677 1.613 . S
N678 C681 1.350 . S
N679 S677 1.610 . S
N679 C680 1.351 . S
C680 C674 1.428 . S
C680 N679 1.351 . S
C680 C681 1.434 . S
C681 C672 1.429 . S
C681 N678 1.350 . S
C681 C680 1.434 . S
C682 C683 1.369 . S
C682 C684 1.419 . S
C682 H686 0.930 . S
C683 C682 1.369 . S
C683 C692 1.429 . S
C684 C682 1.419 . S
C684 C685 1.363 . S
C684 H687 0.929 . S
C685 C684 1.363 . S
C685 C691 1.428 . S
H686 C682 0.930 . S
H687 C684 0.929 . S
S688 N689 1.613 . S
S688 N690 1.610 . S
N689 S688 1.613 . S
N689 C692 1.350 . S
N690 S688 1.610 . S
N690 C691 1.351 . S
C691 C685 1.428 . S
C691 N690 1.351 . S
C691 C692 1.434 . S
C692 C683 1.429 . S
C692 N689 1.350 . S
C692 C691 1.434 . S
C693 C694 1.369 . S
C693 C695 1.419 . S
C693 H697 0.930 . S
C694 C693 1.369 . S
C694 C703 1.429 . S
C695 C693 1.419 . S
C695 C696 1.363 . S
C695 H698 0.929 . S
C696 C695 1.363 . S
C696 C702 1.428 . S
H697 C693 0.930 . S
H698 C695 0.929 . S
S699 N700 1.613 . S
S699 N701 1.610 . S
N700 S699 1.613 . S
N700 C703 1.350 . S
N701 S699 1.610 . S
N701 C702 1.351 . S
C702 C696 1.428 . S
C702 N701 1.351 . S
C702 C703 1.434 . S
C703 C694 1.429 . S
C703 N700 1.350 . S
C703 C702 1.434 . S
C704 C705 1.369 . S
C704 C706 1.419 . S
C704 H708 0.930 . S
C705 C704 1.369 . S
C705 C714 1.429 . S
C706 C704 1.419 . S
C706 C707 1.363 . S
C706 H709 0.929 . S
C707 C706 1.363 . S
C707 C713 1.428 . S
H708 C704 0.930 . S
H709 C706 0.929 . S
S710 N711 1.613 . S
S710 N712 1.610 . S
N711 S710 1.613 . S
N711 C714 1.350 . S
N712 S710 1.610 . S
N712 C713 1.351 . S
C713 C707 1.428 . S
C713 N712 1.351 . S
C713 C714 1.434 . S
C714 C705 1.429 . S
C714 N711 1.350 . S
C714 C713 1.434 . S
C715 C716 1.369 . S
C715 C717 1.419 . S
C715 H719 0.930 . S
C716 C715 1.369 . S
C716 C725 1.429 . S
C717 C715 1.419 . S
C717 C718 1.363 . S
C717 H720 0.929 . S
C718 C717 1.363 . S
C718 C724 1.428 . S
H719 C715 0.930 . S
H720 C717 0.929 . S
S721 N722 1.613 . S
S721 N723 1.610 . S
N722 S721 1.613 . S
N722 C725 1.350 1_554 S
N723 S721 1.610 . S
N723 C724 1.351 1_554 S
C724 C718 1.428 . S
C724 N723 1.351 1_556 S
C724 C725 1.434 . S
C725 C716 1.429 . S
C725 N722 1.350 1_556 S
C725 C724 1.434 . S
C726 C727 1.369 . S
C726 C728 1.419 . S
C726 H730 0.930 . S
C727 C726 1.369 . S
C727 C736 1.429 . S
C728 C726 1.419 . S
C728 C729 1.363 . S
C728 H731 0.929 . S
C729 C728 1.363 . S
C729 C735 1.428 . S
H730 C726 0.930 . S
H731 C728 0.929 . S
S732 N733 1.613 . S
S732 N734 1.610 . S
N733 S732 1.613 . S
N733 C736 1.350 1_556 S
N734 S732 1.610 . S
N734 C735 1.351 1_556 S
C735 C729 1.428 . S
C735 N734 1.351 1_554 S
C735 C736 1.434 . S
C736 C727 1.429 . S
C736 N733 1.350 1_554 S
C736 C735 1.434 . S
C737 C738 1.369 . S
C737 C739 1.419 . S
C737 H741 0.930 . S
C738 C737 1.369 . S
C738 C747 1.429 . S
C739 C737 1.419 . S
C739 C740 1.363 . S
C739 H742 0.929 . S
C740 C739 1.363 . S
C740 C746 1.428 . S
H741 C737 0.930 . S
H742 C739 0.929 . S
S743 N744 1.613 . S
S743 N745 1.610 . S
N744 S743 1.613 . S
N744 C747 1.350 . S
N745 S743 1.610 . S
N745 C746 1.351 . S
C746 C740 1.428 . S
C746 N745 1.351 . S
C746 C747 1.434 . S
C747 C738 1.429 . S
C747 N744 1.350 . S
C747 C746 1.434 . S
C748 C749 1.369 . S
C748 C750 1.419 . S
C748 H752 0.930 . S
C749 C748 1.369 . S
C749 C758 1.429 . S
C750 C748 1.419 . S
C750 C751 1.363 . S
C750 H753 0.929 . S
C751 C750 1.363 . S
C751 C757 1.428 . S
H752 C748 0.930 . S
H753 C750 0.929 . S
S754 N755 1.613 . S
S754 N756 1.610 . S
N755 S754 1.613 . S
N755 C758 1.350 . S
N756 S754 1.610 . S
N756 C757 1.351 . S
C757 C751 1.428 . S
C757 N756 1.351 . S
C757 C758 1.434 . S
C758 C749 1.429 . S
C758 N755 1.350 . S
C758 C757 1.434 . S
C759 C760 1.369 . S
C759 C761 1.419 . S
C759 H763 0.930 . S
C760 C759 1.369 . S
C760 C769 1.429 . S
C761 C759 1.419 . S
C761 C762 1.363 . S
C761 H764 0.929 . S
C762 C761 1.363 . S
C762 C768 1.428 . S
H763 C759 0.930 . S
H764 C761 0.929 . S
S765 N766 1.613 . S
S765 N767 1.610 . S
N766 S765 1.613 . S
N766 C769 1.350 . S
N767 S765 1.610 . S
N767 C768 1.351 . S
C768 C762 1.428 . S
C768 N767 1.351 . S
C768 C769 1.434 . S
C769 C760 1.429 . S
C769 N766 1.350 . S
C769 C768 1.434 . S
C770 C771 1.369 . S
C770 C772 1.419 . S
C770 H774 0.930 . S
C771 C770 1.369 . S
C771 C780 1.429 . S
C772 C770 1.419 . S
C772 C773 1.363 . S
C772 H775 0.929 . S
C773 C772 1.363 . S
C773 C779 1.428 . S
H774 C770 0.930 . S
H775 C772 0.929 . S
S776 N777 1.613 . S
S776 N778 1.610 . S
N777 S776 1.613 . S
N777 C780 1.350 . S
N778 S776 1.610 . S
N778 C779 1.351 . S
C779 C773 1.428 . S
C779 N778 1.351 . S
C779 C780 1.434 . S
C780 C771 1.429 . S
C780 N777 1.350 . S
C780 C779 1.434 . S
C781 C782 1.369 . S
C781 C783 1.419 . S
C781 H785 0.930 . S
C782 C781 1.369 . S
C782 C791 1.429 . S
C783 C781 1.419 . S
C783 C784 1.363 . S
C783 H786 0.929 . S
C784 C783 1.363 . S
C784 C790 1.428 . S
H785 C781 0.930 . S
H786 C783 0.929 . S
S787 N788 1.613 . S
S787 N789 1.610 . S
N788 S787 1.613 . S
N788 C791 1.350 . S
N789 S787 1.610 . S
N789 C790 1.351 . S
C790 C784 1.428 . S
C790 N789 1.351 . S
C790 C791 1.434 . S
C791 C782 1.429 . S
C791 N788 1.350 . S
C791 C790 1.434 . S
C792 C793 1.369 1_655 S
C792 C794 1.419 1_554 S
C792 H796 0.930 . S
C793 C792 1.369 1_455 S
C793 C802 1.429 . S
C794 C792 1.419 1_556 S
C794 C795 1.363 1_655 S
C794 H797 0.929 . S
C795 C794 1.363 1_455 S
C795 C801 1.428 . S
H796 C792 0.930 . S
H797 C794 0.929 . S
S798 N799 1.613 1_556 S
S798 N800 1.610 . S
N799 S798 1.613 1_554 S
N799 C802 1.350 . S
N800 S798 1.610 . S
N800 C801 1.351 . S
C801 C795 1.428 . S
C801 N800 1.351 . S
C801 C802 1.434 1_556 S
C802 C793 1.429 . S
C802 N799 1.350 . S
C802 C801 1.434 1_554 S
C803 C804 1.369 . S
C803 C805 1.419 1_554 S
C803 H807 0.930 . S
C804 C803 1.369 . S
C804 C813 1.429 . S
C805 C803 1.419 1_556 S
C805 C806 1.363 . S
C805 H808 0.929 . S
C806 C805 1.363 . S
C806 C812 1.428 . S
H807 C803 0.930 . S
H808 C805 0.929 . S
S809 N810 1.613 1_556 S
S809 N811 1.611 . S
N810 S809 1.613 1_554 S
N810 C813 1.350 . S
N811 S809 1.611 . S
N811 C812 1.351 . S
C812 C806 1.428 . S
C812 N811 1.351 . S
C812 C813 1.434 1_556 S
C813 C804 1.429 . S
C813 N810 1.350 . S
C813 C812 1.434 1_554 S
C814 C815 1.369 . S
C814 C816 1.419 1_554 S
C814 H818 0.930 . S
C815 C814 1.369 . S
C815 C824 1.429 1_545 S
C816 C814 1.419 1_556 S
C816 C817 1.363 . S
C816 H819 0.929 . S
C817 C816 1.363 . S
C817 C823 1.428 1_545 S
H818 C814 0.930 . S
H819 C816 0.929 . S
S820 N821 1.613 1_556 S
S820 N822 1.610 . S
N821 S820 1.613 1_554 S
N821 C824 1.350 . S
N822 S820 1.610 . S
N822 C823 1.351 . S
C823 C817 1.428 1_565 S
C823 N822 1.351 . S
C823 C824 1.434 1_556 S
C824 C815 1.429 1_565 S
C824 N821 1.350 . S
C824 C823 1.434 1_554 S
C825 C826 1.369 1_655 S
C825 C827 1.419 1_556 S
C825 H829 0.930 . S
C826 C825 1.369 1_455 S
C826 C835 1.429 . S
C827 C825 1.419 1_554 S
C827 C828 1.363 1_655 S
C827 H830 0.929 . S
C828 C827 1.363 1_455 S
C828 C834 1.428 . S
H829 C825 0.930 . S
H830 C827 0.929 . S
S831 N832 1.613 . S
S831 N833 1.610 1_556 S
N832 S831 1.613 . S
N832 C835 1.350 . S
N833 S831 1.610 1_554 S
N833 C834 1.351 . S
C834 C828 1.428 . S
C834 N833 1.351 . S
C834 C835 1.434 1_554 S
C835 C826 1.429 . S
C835 N832 1.350 . S
C835 C834 1.434 1_556 S
C836 C837 1.369 . S
C836 C838 1.419 1_554 S
C836 H840 0.930 . S
C837 C836 1.369 . S
C837 C846 1.429 . S
C838 C836 1.419 1_556 S
C838 C839 1.363 . S
C838 H841 0.929 . S
C839 C838 1.363 . S
C839 C845 1.428 . S
H840 C836 0.930 . S
H841 C838 0.929 . S
S842 N843 1.613 1_556 S
S842 N844 1.610 . S
N843 S842 1.613 1_554 S
N843 C846 1.350 . S
N844 S842 1.610 . S
N844 C845 1.351 . S
C845 C839 1.428 . S
C845 N844 1.351 . S
C845 C846 1.434 1_556 S
C846 C837 1.429 . S
C846 N843 1.350 . S
C846 C845 1.434 1_554 S
C847 C848 1.369 1_565 S
C847 C849 1.419 1_554 S
C847 H851 0.930 . S
C848 C847 1.369 1_545 S
C848 C857 1.429 . S
C849 C847 1.419 1_556 S
C849 C850 1.363 1_565 S
C849 H852 0.929 . S
C850 C849 1.363 1_545 S
C850 C856 1.428 . S
H851 C847 0.930 . S
H852 C849 0.929 . S
S853 N854 1.613 . S
S853 N855 1.610 1_554 S
N854 S853 1.613 . S
N854 C857 1.350 . S
N855 S853 1.610 1_556 S
N855 C856 1.351 . S
C856 C850 1.428 . S
C856 N855 1.351 . S
C856 C857 1.434 1_556 S
C857 C848 1.429 . S
C857 N854 1.350 . S
C857 C856 1.434 1_554 S
C858 C859 1.369 . S
C858 C860 1.419 . S
C858 H862 0.930 . S
C859 C858 1.369 . S
C859 C868 1.429 . S
C860 C858 1.419 . S
C860 C861 1.363 . S
C860 H863 0.929 . S
C861 C860 1.363 . S
C861 C867 1.428 . S
H862 C858 0.930 . S
H863 C860 0.929 . S
S864 N865 1.613 . S
S864 N866 1.610 . S
N865 S864 1.613 . S
N865 C868 1.350 . S
N866 S864 1.610 . S
N866 C867 1.351 . S
C867 C861 1.428 . S
C867 N866 1.351 . S
C867 C868 1.434 . S
C868 C859 1.429 . S
C868 N865 1.350 . S
C868 C867 1.434 . S
C869 C870 1.369 . S
C869 C871 1.419 . S
C869 H873 0.930 . S
C870 C869 1.369 . S
C870 C879 1.429 . S
C871 C869 1.419 . S
C871 C872 1.363 . S
C871 H874 0.929 . S
C872 C871 1.363 . S
C872 C878 1.428 . S
H873 C869 0.930 . S
H874 C871 0.929 . S
S875 N876 1.613 . S
S875 N877 1.610 . S
N876 S875 1.613 . S
N876 C879 1.350 . S
N877 S875 1.610 . S
N877 C878 1.351 . S
C878 C872 1.428 . S
C878 N877 1.351 . S
C878 C879 1.434 . S
C879 C870 1.429 . S
C879 N876 1.350 . S
C879 C878 1.434 . S
C880 C881 1.369 . S
C880 C882 1.419 . S
C880 H884 0.930 . S
C881 C880 1.369 . S
C881 C890 1.429 . S
C882 C880 1.419 . S
C882 C883 1.363 . S
C882 H885 0.929 . S
C883 C882 1.363 . S
C883 C889 1.428 . S
H884 C880 0.930 . S
H885 C882 0.929 . S
S886 N887 1.613 . S
S886 N888 1.610 . S
N887 S886 1.613 . S
N887 C890 1.350 . S
N888 S886 1.610 . S
N888 C889 1.351 . S
C889 C883 1.428 . S
C889 N888 1.351 . S
C889 C890 1.434 . S
C890 C881 1.429 . S
C890 N887 1.350 . S
C890 C889 1.434 . S
C891 C892 1.369 . S
C891 C893 1.419 . S
C891 H895 0.930 . S
C892 C891 1.369 . S
C892 C901 1.429 . S
C893 C891 1.419 . S
C893 C894 1.363 . S
C893 H896 0.929 . S
C894 C893 1.363 . S
C894 C900 1.428 . S
H895 C891 0.930 . S
H896 C893 0.929 . S
S897 N898 1.613 . S
S897 N899 1.610 . S
N898 S897 1.613 . S
N898 C901 1.350 . S
N899 S897 1.610 . S
N899 C900 1.351 . S
C900 C894 1.428 . S
C900 N899 1.351 . S
C900 C901 1.434 . S
C901 C892 1.429 . S
C901 N898 1.350 . S
C901 C900 1.434 . S
C902 C903 1.369 . S
C902 C904 1.419 . S
C902 H906 0.930 . S
C903 C902 1.369 . S
C903 C912 1.429 . S
C904 C902 1.419 . S
C904 C905 1.363 . S
C904 H907 0.929 . S
C905 C904 1.363 . S
C905 C911 1.428 . S
H906 C902 0.930 . S
H907 C904 0.929 . S
S908 N909 1.613 . S
S908 N910 1.610 . S
N909 S908 1.613 . S
N909 C912 1.350 . S
N910 S908 1.610 . S
N910 C911 1.351 . S
C911 C905 1.428 . S
C911 N910 1.351 . S
C911 C912 1.434 . S
C912 C903 1.429 . S
C912 N909 1.350 . S
C912 C911 1.434 . S
C913 C914 1.369 . S
C913 C915 1.419 . S
C913 H917 0.930 . S
C914 C913 1.369 . S
C914 C923 1.429 . S
C915 C913 1.419 . S
C915 C916 1.363 . S
C915 H918 0.929 . S
C916 C915 1.363 . S
C916 C922 1.428 . S
H917 C913 0.930 . S
H918 C915 0.929 . S
S919 N920 1.613 . S
S919 N921 1.610 . S
N920 S919 1.613 . S
N920 C923 1.350 . S
N921 S919 1.610 . S
N921 C922 1.351 . S
C922 C916 1.428 . S
C922 N921 1.351 . S
C922 C923 1.434 . S
C923 C914 1.429 . S
C923 N920 1.350 . S
C923 C922 1.434 . S
C924 C925 1.369 . S
C924 C926 1.419 . S
C924 H928 0.930 . S
C925 C924 1.369 . S
C925 C934 1.429 . S
C926 C924 1.419 . S
C926 C927 1.363 . S
C926 H929 0.929 . S
C927 C926 1.363 . S
C927 C933 1.428 . S
H928 C924 0.930 . S
H929 C926 0.929 . S
S930 N931 1.613 . S
S930 N932 1.610 . S
N931 S930 1.613 . S
N931 C934 1.350 . S
N932 S930 1.610 . S
N932 C933 1.351 . S
C933 C927 1.428 . S
C933 N932 1.351 . S
C933 C934 1.434 . S
C934 C925 1.429 . S
C934 N931 1.350 . S
C934 C933 1.434 . S
C935 C936 1.369 . S
C935 C937 1.419 . S
C935 H939 0.930 . S
C936 C935 1.369 . S
C936 C945 1.429 . S
C937 C935 1.419 . S
C937 C938 1.363 . S
C937 H940 0.929 . S
C938 C937 1.363 . S
C938 C944 1.428 . S
H939 C935 0.930 . S
H940 C937 0.929 . S
S941 N942 1.613 . S
S941 N943 1.610 . S
N942 S941 1.613 . S
N942 C945 1.350 . S
N943 S941 1.610 . S
N943 C944 1.351 . S
C944 C938 1.428 . S
C944 N943 1.351 . S
C944 C945 1.434 . S
C945 C936 1.429 . S
C945 N942 1.350 . S
C945 C944 1.434 . S
C946 C947 1.369 . S
C946 C948 1.419 . S
C946 H950 0.930 . S
C947 C946 1.369 . S
C947 C956 1.429 . S
C948 C946 1.419 . S
C948 C949 1.363 . S
C948 H951 0.929 . S
C949 C948 1.363 . S
C949 C955 1.428 . S
H950 C946 0.930 . S
H951 C948 0.929 . S
S952 N953 1.613 . S
S952 N954 1.610 . S
N953 S952 1.613 . S
N953 C956 1.350 . S
N954 S952 1.610 . S
N954 C955 1.351 . S
C955 C949 1.428 . S
C955 N954 1.351 . S
C955 C956 1.434 . S
C956 C947 1.429 . S
C956 N953 1.350 . S
C956 C955 1.434 . S
C957 C958 1.369 . S
C957 C959 1.419 . S
C957 H961 0.930 . S
C958 C957 1.369 . S
C958 C967 1.429 . S
C959 C957 1.419 . S
C959 C960 1.363 . S
C959 H962 0.929 . S
C960 C959 1.363 . S
C960 C966 1.428 . S
H961 C957 0.930 . S
H962 C959 0.929 . S
S963 N964 1.613 . S
S963 N965 1.610 . S
N964 S963 1.613 . S
N964 C967 1.350 . S
N965 S963 1.610 . S
N965 C966 1.351 . S
C966 C960 1.428 . S
C966 N965 1.351 . S
C966 C967 1.434 . S
C967 C958 1.429 . S
C967 N964 1.350 . S
C967 C966 1.434 . S
C968 C969 1.369 . S
C968 C970 1.419 . S
C968 H972 0.930 . S
C969 C968 1.369 . S
C969 C978 1.429 . S
C970 C968 1.419 . S
C970 C971 1.363 . S
C970 H973 0.929 . S
C971 C970 1.363 . S
C971 C977 1.428 . S
H972 C968 0.930 . S
H973 C970 0.929 . S
S974 N975 1.613 . S
S974 N976 1.610 . S
N975 S974 1.613 . S
N975 C978 1.350 . S
N976 S974 1.610 . S
N976 C977 1.351 . S
C977 C971 1.428 . S
C977 N976 1.351 . S
C977 C978 1.434 . S
C978 C969 1.429 . S
C978 N975 1.350 . S
C978 C977 1.434 . S
C979 C980 1.369 . S
C979 C981 1.419 . S
C979 H983 0.930 . S
C980 C979 1.369 . S
C980 C989 1.429 . S
C981 C979 1.419 . S
C981 C982 1.363 . S
C981 H984 0.929 . S
C982 C981 1.363 . S
C982 C988 1.428 . S
H983 C979 0.930 . S
H984 C981 0.929 . S
S985 N986 1.613 . S
S985 N987 1.610 . S
N986 S985 1.613 . S
N986 C989 1.350 . S
N987 S985 1.610 . S
N987 C988 1.351 . S
C988 C982 1.428 . S
C988 N987 1.351 . S
C988 C989 1.434 . S
C989 C980 1.429 . S
C989 N986 1.350 . S
C989 C988 1.434 . S
C397 C294 1.283 . S
C399 C4 1.274 . S
C408 C26 1.281 . S
C410 C316 1.273 . S
C419 C48 1.271 . S
C421 C272 1.280 . S
C430 C52 1.280 . S
C432 C158 1.273 . S
C441 C180 1.278 . S
C443 C8 1.273 . S
C452 C30 1.283 . S
C454 C136 1.274 . S
C463 C74 1.274 . S
C465 C224 1.275 . S
C474 C96 1.275 . S
C476 C246 1.282 . S
C485 C202 1.283 . S
C487 C118 1.276 . S
C496 C360 1.282 . S
C498 C114 1.279 . S
C507 C70 1.278 . S
C509 C382 1.281 . S
C518 C338 1.273 . S
C520 C92 1.276 . S
C529 C184 1.275 . S
C531 C290 1.282 . S
C540 C140 1.283 . S
C542 C312 1.276 . S
C551 C162 1.282 . S
C553 C268 1.273 . S
C562 C206 1.279 . S
C564 C356 1.273 . S
C573 C378 1.274 . S
C575 C228 1.282 . S
C584 C334 1.283 . S
C586 C250 1.274 . S
C595 C6 1.588 . S
C597 C93 1.587 . S
C606 C115 1.584 . S
C608 C28 1.584 . S
C617 C71 1.586 . S
C619 C50 1.586 . S
C628 C97 1.588 . S
C630 C51 1.587 . S
C639 C119 1.585 . S
C641 C7 1.585 . S
C650 C75 1.588 . S
C652 C29 1.588 . S
C661 C225 1.585 . S
C663 C138 1.585 . S
C672 C247 1.585 . S
C674 C160 1.585 . S
C683 C203 1.586 . S
C685 C182 1.586 . S
C694 C229 1.583 . S
C696 C183 1.584 . S
C705 C251 1.582 . S
C707 C139 1.583 . S
C716 C207 1.588 . S
C718 C161 1.587 . S
C727 C357 1.588 . S
C729 C270 1.588 . S
C738 C379 1.586 . S
C740 C292 1.586 . S
C749 C314 1.587 . S
C751 C335 1.586 . S
C760 C315 1.587 . S
C762 C361 1.587 . S
C771 C271 1.588 . S
C773 C383 1.587 . S
C782 C339 1.587 . S
C784 C293 1.587 . S
C793 C5 1.661 . S
C795 C9 1.656 . S
C804 C27 1.661 . S
C806 C31 1.658 . S
C815 C49 1.661 . S
C817 C53 1.656 . S
C826 C73 1.654 . S
C828 C72 1.660 . S
C837 C94 1.657 . S
C839 C95 1.655 . S
C848 C116 1.654 . S
C850 C117 1.659 . S
C859 C141 1.659 . S
C861 C137 1.655 . S
C870 C159 1.655 . S
C872 C163 1.657 . S
C881 C185 1.654 . S
C883 C181 1.659 . S
C892 C205 1.656 . S
C894 C204 1.656 . S
C903 C227 1.661 . S
C905 C226 1.657 . S
C914 C249 1.661 . S
C916 C248 1.655 . S
C925 C273 1.655 . S
C927 C269 1.656 . S
C936 C291 1.656 . S
C938 C295 1.656 . S
C947 C313 1.661 . S
C949 C317 1.657 . S
C958 C336 1.661 . S
C960 C337 1.657 . S
C969 C358 1.659 . S
C971 C359 1.655 . S
C980 C381 1.655 . S
C982 C380 1.660 . S
