# Generated by pormake.
# Topology lta, (4)-cn, num edge types: 1
# Building blocks:
#     Node 0, Type 0, BuildingBlock: GALJAG_clean_sbu_0, # of connection points: 4
#     Node 1, Type 0, BuildingBlock: GALJAG_clean_sbu_0, # of connection points: 4
#     Node 2, Type 0, BuildingBlock: GALJAG_clean_sbu_0, # of connection points: 4
#     Node 3, Type 0, BuildingBlock: GALJAG_clean_sbu_0, # of connection points: 4
#     Node 4, Type 0, BuildingBlock: GALJAG_clean_sbu_0, # of connection points: 4
#     Node 5, Type 0, BuildingBlock: GALJAG_clean_sbu_0, # of connection points: 4
#     Node 6, Type 0, BuildingBlock: GALJAG_clean_sbu_0, # of connection points: 4
#     Node 7, Type 0, BuildingBlock: GALJAG_clean_sbu_0, # of connection points: 4
#     Node 8, Type 0, BuildingBlock: GALJAG_clean_sbu_0, # of connection points: 4
#     Node 9, Type 0, BuildingBlock: GALJAG_clean_sbu_0, # of connection points: 4
#     Node 10, Type 0, BuildingBlock: GALJAG_clean_sbu_0, # of connection points: 4
#     Node 11, Type 0, BuildingBlock: GALJAG_clean_sbu_0, # of connection points: 4
#     Node 12, Type 0, BuildingBlock: GALJAG_clean_sbu_0, # of connection points: 4
#     Node 13, Type 0, BuildingBlock: GALJAG_clean_sbu_0, # of connection points: 4
#     Node 14, Type 0, BuildingBlock: GALJAG_clean_sbu_0, # of connection points: 4
#     Node 15, Type 0, BuildingBlock: GALJAG_clean_sbu_0, # of connection points: 4
#     Node 16, Type 0, BuildingBlock: GALJAG_clean_sbu_0, # of connection points: 4
#     Node 17, Type 0, BuildingBlock: GALJAG_clean_sbu_0, # of connection points: 4
#     Node 18, Type 0, BuildingBlock: GALJAG_clean_sbu_0, # of connection points: 4
#     Node 19, Type 0, BuildingBlock: GALJAG_clean_sbu_0, # of connection points: 4
#     Node 20, Type 0, BuildingBlock: GALJAG_clean_sbu_0, # of connection points: 4
#     Node 21, Type 0, BuildingBlock: GALJAG_clean_sbu_0, # of connection points: 4
#     Node 22, Type 0, BuildingBlock: GALJAG_clean_sbu_0, # of connection points: 4
#     Node 23, Type 0, BuildingBlock: GALJAG_clean_sbu_0, # of connection points: 4
#     Edge 24, Type (0, 0), BuildingBlock: CIFDUS_clean_linker_0, # of connection points: 2
#     Edge 25, Type (0, 0), BuildingBlock: CIFDUS_clean_linker_0, # of connection points: 2
#     Edge 26, Type (0, 0), BuildingBlock: CIFDUS_clean_linker_0, # of connection points: 2
#     Edge 27, Type (0, 0), BuildingBlock: CIFDUS_clean_linker_0, # of connection points: 2
#     Edge 28, Type (0, 0), BuildingBlock: CIFDUS_clean_linker_0, # of connection points: 2
#     Edge 29, Type (0, 0), BuildingBlock: CIFDUS_clean_linker_0, # of connection points: 2
#     Edge 30, Type (0, 0), BuildingBlock: CIFDUS_clean_linker_0, # of connection points: 2
#     Edge 31, Type (0, 0), BuildingBlock: CIFDUS_clean_linker_0, # of connection points: 2
#     Edge 32, Type (0, 0), BuildingBlock: CIFDUS_clean_linker_0, # of connection points: 2
#     Edge 33, Type (0, 0), BuildingBlock: CIFDUS_clean_linker_0, # of connection points: 2
#     Edge 34, Type (0, 0), BuildingBlock: CIFDUS_clean_linker_0, # of connection points: 2
#     Edge 35, Type (0, 0), BuildingBlock: CIFDUS_clean_linker_0, # of connection points: 2
#     Edge 36, Type (0, 0), BuildingBlock: CIFDUS_clean_linker_0, # of connection points: 2
#     Edge 37, Type (0, 0), BuildingBlock: CIFDUS_clean_linker_0, # of connection points: 2
#     Edge 38, Type (0, 0), BuildingBlock: CIFDUS_clean_linker_0, # of connection points: 2
#     Edge 39, Type (0, 0), BuildingBlock: CIFDUS_clean_linker_0, # of connection points: 2
#     Edge 40, Type (0, 0), BuildingBlock: CIFDUS_clean_linker_0, # of connection points: 2
#     Edge 41, Type (0, 0), BuildingBlock: CIFDUS_clean_linker_0, # of connection points: 2
#     Edge 42, Type (0, 0), BuildingBlock: CIFDUS_clean_linker_0, # of connection points: 2
#     Edge 43, Type (0, 0), BuildingBlock: CIFDUS_clean_linker_0, # of connection points: 2
#     Edge 44, Type (0, 0), BuildingBlock: CIFDUS_clean_linker_0, # of connection points: 2
#     Edge 45, Type (0, 0), BuildingBlock: CIFDUS_clean_linker_0, # of connection points: 2
#     Edge 46, Type (0, 0), BuildingBlock: CIFDUS_clean_linker_0, # of connection points: 2
#     Edge 47, Type (0, 0), BuildingBlock: CIFDUS_clean_linker_0, # of connection points: 2
#     Edge 48, Type (0, 0), BuildingBlock: CIFDUS_clean_linker_0, # of connection points: 2
#     Edge 49, Type (0, 0), BuildingBlock: CIFDUS_clean_linker_0, # of connection points: 2
#     Edge 50, Type (0, 0), BuildingBlock: CIFDUS_clean_linker_0, # of connection points: 2
#     Edge 51, Type (0, 0), BuildingBlock: CIFDUS_clean_linker_0, # of connection points: 2
#     Edge 52, Type (0, 0), BuildingBlock: CIFDUS_clean_linker_0, # of connection points: 2
#     Edge 53, Type (0, 0), BuildingBlock: CIFDUS_clean_linker_0, # of connection points: 2
#     Edge 54, Type (0, 0), BuildingBlock: CIFDUS_clean_linker_0, # of connection points: 2
#     Edge 55, Type (0, 0), BuildingBlock: CIFDUS_clean_linker_0, # of connection points: 2
#     Edge 56, Type (0, 0), BuildingBlock: CIFDUS_clean_linker_0, # of connection points: 2
#     Edge 57, Type (0, 0), BuildingBlock: CIFDUS_clean_linker_0, # of connection points: 2
#     Edge 58, Type (0, 0), BuildingBlock: CIFDUS_clean_linker_0, # of connection points: 2
#     Edge 59, Type (0, 0), BuildingBlock: CIFDUS_clean_linker_0, # of connection points: 2
#     Edge 60, Type (0, 0), BuildingBlock: CIFDUS_clean_linker_0, # of connection points: 2
#     Edge 61, Type (0, 0), BuildingBlock: CIFDUS_clean_linker_0, # of connection points: 2
#     Edge 62, Type (0, 0), BuildingBlock: CIFDUS_clean_linker_0, # of connection points: 2
#     Edge 63, Type (0, 0), BuildingBlock: CIFDUS_clean_linker_0, # of connection points: 2
#     Edge 64, Type (0, 0), BuildingBlock: CIFDUS_clean_linker_0, # of connection points: 2
#     Edge 65, Type (0, 0), BuildingBlock: CIFDUS_clean_linker_0, # of connection points: 2
#     Edge 66, Type (0, 0), BuildingBlock: CIFDUS_clean_linker_0, # of connection points: 2
#     Edge 67, Type (0, 0), BuildingBlock: CIFDUS_clean_linker_0, # of connection points: 2
#     Edge 68, Type (0, 0), BuildingBlock: CIFDUS_clean_linker_0, # of connection points: 2
#     Edge 69, Type (0, 0), BuildingBlock: CIFDUS_clean_linker_0, # of connection points: 2
#     Edge 70, Type (0, 0), BuildingBlock: CIFDUS_clean_linker_0, # of connection points: 2
#     Edge 71, Type (0, 0), BuildingBlock: CIFDUS_clean_linker_0, # of connection points: 2
# Relax obj value: 0.417
# Max RMSD: 0.230
# Mean RMSD: 0.230
data_MOF--net-lta--node1-GALJAG_clean_sbu_0--edge1-CIFDUS_clean_linker_0
_symmetry_space_group_name_H-M    P1
_symmetry_Int_Tables_number       1
_symmetry_cell_setting            triclinic
loop_
_symmetry_equiv_pos_as_xyz
'x, y, z'
_cell_length_a     49.714588
_cell_length_b     49.760414
_cell_length_c     49.705476
_cell_angle_alpha  90.013002
_cell_angle_beta   90.058445
_cell_angle_gamma 89.888341
loop_
_atom_site_label
_atom_site_type_symbol
_atom_site_fract_x
_atom_site_fract_y
_atom_site_fract_z
_atom_type_partial_charge
In0 In 0.11242 0.30523 0.51377 0.0
O1 O 0.13649 0.34159 0.52756 0.0
O2 O 0.11671 0.31855 0.55753 0.0
C3 C 0.11323 0.32975 0.4655 0.0
C4 C 0.14334 0.26077 0.51007 0.0
C5 C 0.05979 0.29827 0.52405 0.0
O6 O 0.09294 0.31736 0.47424 0.0
O7 O 0.13325 0.32983 0.48116 0.0
O8 O 0.07512 0.27862 0.51903 0.0
O9 O 0.0712 0.32086 0.52425 0.0
C10 C 0.13103 0.33874 0.55216 0.0
O11 O 0.13177 0.27128 0.49018 0.0
O12 O 0.13871 0.2722 0.53221 0.0
In13 In 0.67175 0.11787 0.50375 0.0
O14 O 0.64223 0.14712 0.52341 0.0
O15 O 0.65084 0.11055 0.54371 0.0
C16 C 0.63739 0.10952 0.46271 0.0
C17 C 0.709 0.15699 0.50355 0.0
C18 C 0.69853 0.07078 0.50479 0.0
O19 O 0.63305 0.10096 0.48619 0.0
O20 O 0.65926 0.12203 0.45985 0.0
O21 O 0.69495 0.08392 0.48339 0.0
O22 O 0.68916 0.08175 0.52564 0.0
C23 C 0.63784 0.13233 0.54353 0.0
O24 O 0.70957 0.13785 0.52012 0.0
O25 O 0.68978 0.15626 0.48706 0.0
In26 In 0.85412 0.67411 0.47994 0.0
O27 O 0.81768 0.69506 0.49786 0.0
O28 O 0.83934 0.71567 0.46747 0.0
C29 C 0.90735 0.68202 0.47563 0.0
C30 C 0.85577 0.64765 0.5271 0.0
C31 C 0.83877 0.64683 0.43558 0.0
O32 O 0.89112 0.70128 0.4789 0.0
O33 O 0.89665 0.6591 0.47453 0.0
O34 O 0.82838 0.6428 0.45835 0.0
O35 O 0.85604 0.6653 0.43506 0.0
C36 C 0.82003 0.71599 0.48384 0.0
O37 O 0.84716 0.63711 0.50565 0.0
O38 O 0.86312 0.67182 0.52489 0.0
In39 In 0.29801 0.86408 0.49108 0.0
O40 O 0.30371 0.86639 0.53652 0.0
O41 O 0.31676 0.83095 0.51658 0.0
C42 C 0.33145 0.8534 0.44986 0.0
C43 C 0.24997 0.84072 0.48269 0.0
C44 C 0.30115 0.91806 0.49083 0.0
O45 O 0.33605 0.84549 0.47355 0.0
O46 O 0.30995 0.86662 0.44699 0.0
O47 O 0.27975 0.90579 0.48495 0.0
O48 O 0.32061 0.90311 0.49723 0.0
C49 C 0.31477 0.84363 0.53846 0.0
O50 O 0.25413 0.85607 0.50243 0.0
O51 O 0.26989 0.83739 0.46745 0.0
In52 In 0.12079 0.67833 0.46787 0.0
O53 O 0.13917 0.64063 0.44989 0.0
O54 O 0.11541 0.66559 0.42432 0.0
C55 C 0.13908 0.66331 0.51676 0.0
C56 C 0.14589 0.72525 0.45833 0.0
C57 C 0.06695 0.6746 0.46901 0.0
O58 O 0.1513 0.65743 0.49531 0.0
O59 O 0.11807 0.67712 0.51348 0.0
O60 O 0.07873 0.69625 0.46302 0.0
O61 O 0.08232 0.65517 0.47438 0.0
C62 C 0.12919 0.64438 0.4268 0.0
O63 O 0.12818 0.72276 0.47624 0.0
O64 O 0.15061 0.70423 0.44507 0.0
In65 In 0.30474 0.12951 0.46431 0.0
O66 O 0.3335 0.15265 0.43725 0.0
O67 O 0.31544 0.11729 0.42148 0.0
C68 C 0.33715 0.14118 0.50617 0.0
C69 C 0.26025 0.16045 0.46873 0.0
C70 C 0.29649 0.0762 0.46783 0.0
O71 O 0.34088 0.15087 0.483 0.0
O72 O 0.31697 0.12602 0.50818 0.0
O73 O 0.2777 0.09236 0.46224 0.0
O74 O 0.31918 0.08695 0.47112 0.0
C75 C 0.33159 0.13646 0.41778 0.0
O76 O 0.27014 0.15422 0.44626 0.0
O77 O 0.27285 0.15129 0.48864 0.0
In78 In 0.84697 0.31594 0.53405 0.0
O79 O 0.82805 0.35092 0.51162 0.0
O80 O 0.8532 0.32427 0.48941 0.0
C81 C 0.83433 0.34039 0.5808 0.0
C82 C 0.8175 0.27066 0.53068 0.0
C83 C 0.901 0.31519 0.53317 0.0
O84 O 0.82088 0.34383 0.55956 0.0
O85 O 0.85315 0.32355 0.57873 0.0
O86 O 0.88732 0.29414 0.52936 0.0
O87 O 0.88737 0.33623 0.53695 0.0
C88 C 0.83846 0.34498 0.48922 0.0
O89 O 0.8362 0.2732 0.5476 0.0
O90 O 0.81385 0.29076 0.51583 0.0
In91 In 0.67588 0.8687 0.52133 0.0
O92 O 0.69512 0.8303 0.53763 0.0
O93 O 0.71271 0.84833 0.50335 0.0
C94 C 0.70162 0.9161 0.5254 0.0
C95 C 0.64297 0.87182 0.47835 0.0
C96 C 0.63918 0.86201 0.56053 0.0
O97 O 0.69677 0.90492 0.50317 0.0
O98 O 0.69425 0.90289 0.54575 0.0
O99 O 0.63698 0.85134 0.53762 0.0
O100 O 0.66024 0.87573 0.56392 0.0
C101 C 0.71317 0.82927 0.51994 0.0
O102 O 0.65657 0.85103 0.48366 0.0
O103 O 0.64599 0.89095 0.49473 0.0
In104 In 0.50248 0.11668 0.29744 0.0
O105 O 0.49782 0.12722 0.25284 0.0
O106 O 0.51369 0.15678 0.27916 0.0
C107 C 0.50147 0.06423 0.28442 0.0
C108 C 0.54271 0.1141 0.33368 0.0
C109 C 0.45797 0.13552 0.32217 0.0
O110 O 0.52128 0.07903 0.27877 0.0
O111 O 0.48214 0.07616 0.2957 0.0
O112 O 0.4813 0.14371 0.32776 0.0
O113 O 0.45701 0.11819 0.30367 0.0
C114 C 0.5067 0.15078 0.25558 0.0
O115 O 0.51909 0.10643 0.3387 0.0
O116 O 0.54619 0.12306 0.31019 0.0
In117 In 0.85286 0.47253 0.32134 0.0
O118 O 0.83815 0.49103 0.28234 0.0
O119 O 0.82765 0.45047 0.28962 0.0
C120 C 0.9069 0.4758 0.31946 0.0
C121 C 0.83463 0.5176 0.34515 0.0
C122 C 0.84554 0.43049 0.35468 0.0
O123 O 0.89329 0.46687 0.29996 0.0
O124 O 0.89325 0.48282 0.33962 0.0
O125 O 0.83187 0.4518 0.35608 0.0
O126 O 0.86241 0.42989 0.33572 0.0
C127 C 0.82596 0.47048 0.27419 0.0
O128 O 0.82321 0.49515 0.34806 0.0
O129 O 0.85493 0.51731 0.32993 0.0
In130 In 0.49813 0.85567 0.32229 0.0
O131 O 0.48034 0.83088 0.28811 0.0
O132 O 0.52274 0.83455 0.28971 0.0
C133 C 0.49161 0.9073 0.30712 0.0
C134 C 0.45656 0.83875 0.35273 0.0
C135 C 0.53948 0.85462 0.35728 0.0
O136 O 0.51057 0.89299 0.29814 0.0
O137 O 0.47642 0.89561 0.32361 0.0
O138 O 0.5315 0.83388 0.34501 0.0
O139 O 0.52671 0.87586 0.35172 0.0
C140 C 0.50263 0.82503 0.27766 0.0
O141 O 0.48063 0.83281 0.35815 0.0
O142 O 0.4535 0.85218 0.33146 0.0
In143 In 0.11968 0.46968 0.30797 0.0
O144 O 0.10605 0.43163 0.32916 0.0
O145 O 0.14679 0.44341 0.33421 0.0
C146 C 0.13399 0.51344 0.33643 0.0
C147 C 0.14814 0.4688 0.26179 0.0
C148 C 0.06593 0.47168 0.30138 0.0
O149 O 0.14316 0.49033 0.34143 0.0
O150 O 0.11797 0.51454 0.31675 0.0
O151 O 0.08124 0.46214 0.28348 0.0
O152 O 0.07783 0.48022 0.32207 0.0
C153 C 0.12841 0.42702 0.34022 0.0
O154 O 0.14096 0.44763 0.27365 0.0
O155 O 0.14057 0.4902 0.27295 0.0
In156 In 0.46115 0.85838 0.67762 0.0
O157 O 0.46684 0.85284 0.72317 0.0
O158 O 0.47291 0.8193 0.6975 0.0
C159 C 0.4587 0.91225 0.67414 0.0
C160 C 0.50501 0.85186 0.64665 0.0
C161 C 0.41149 0.84392 0.661 0.0
O162 O 0.4599 0.90035 0.69659 0.0
O163 O 0.45873 0.89696 0.6539 0.0
O164 O 0.43271 0.83301 0.65251 0.0
O165 O 0.41516 0.86128 0.67911 0.0
C166 C 0.47348 0.82845 0.72109 0.0
O167 O 0.48201 0.8436 0.63985 0.0
O168 O 0.50597 0.86343 0.66924 0.0
In169 In 0.15334 0.51798 0.66195 0.0
O170 O 0.16649 0.53638 0.70209 0.0
O171 O 0.18496 0.50004 0.6897 0.0
C172 C 0.09916 0.51773 0.66505 0.0
C173 C 0.16774 0.56174 0.63337 0.0
C174 C 0.16004 0.47171 0.63473 0.0
O175 O 0.11378 0.51711 0.68583 0.0
O176 O 0.11187 0.51852 0.64317 0.0
O177 O 0.1696 0.49381 0.62679 0.0
O178 O 0.14754 0.47281 0.65683 0.0
C179 C 0.18338 0.51819 0.70725 0.0
O180 O 0.18109 0.54019 0.63293 0.0
O181 O 0.14785 0.56151 0.64907 0.0
In182 In 0.46988 0.12484 0.67116 0.0
O183 O 0.48364 0.13988 0.71237 0.0
O184 O 0.45373 0.16234 0.69192 0.0
C185 C 0.46174 0.07208 0.67984 0.0
C186 C 0.42959 0.13402 0.63622 0.0
C187 C 0.51959 0.12962 0.64986 0.0
O188 O 0.45964 0.08915 0.69855 0.0
O189 O 0.46759 0.08177 0.65717 0.0
O190 O 0.50082 0.14582 0.64446 0.0
O191 O 0.51345 0.11152 0.66645 0.0
C192 C 0.46848 0.16018 0.71238 0.0
O193 O 0.45377 0.13985 0.63115 0.0
O194 O 0.42563 0.12396 0.65921 0.0
In195 In 0.88686 0.50945 0.6872 0.0
O196 O 0.87388 0.50046 0.73008 0.0
O197 O 0.85596 0.53392 0.71056 0.0
C198 C 0.94081 0.51487 0.68972 0.0
C199 C 0.87225 0.45852 0.67601 0.0
C200 C 0.87377 0.54154 0.64561 0.0
O201 O 0.92592 0.52046 0.70951 0.0
O202 O 0.92846 0.50677 0.66914 0.0
O203 O 0.87075 0.5164 0.6452 0.0
O204 O 0.88344 0.55078 0.66724 0.0
C205 C 0.85672 0.5191 0.7311 0.0
O206 O 0.85676 0.47834 0.6728 0.0
O207 O 0.89519 0.46432 0.68518 0.0
In208 In 0.30266 0.49028 0.11784 0.0
O209 O 0.2707 0.51321 0.14182 0.0
O210 O 0.26855 0.47069 0.14085 0.0
C211 C 0.28396 0.48834 0.06694 0.0
C212 C 0.34109 0.52824 0.11486 0.0
C213 C 0.33401 0.45063 0.13733 0.0
O214 O 0.29217 0.46786 0.0794 0.0
O215 O 0.28428 0.50977 0.08048 0.0
O216 O 0.31929 0.44782 0.11686 0.0
O217 O 0.33257 0.4734 0.14842 0.0
C218 C 0.25857 0.49232 0.14936 0.0
O219 O 0.33911 0.50926 0.09816 0.0
O220 O 0.3235 0.52824 0.13321 0.0
In221 In 0.32817 0.50427 0.86402 0.0
O222 O 0.36664 0.48835 0.88323 0.0
O223 O 0.34187 0.46063 0.86212 0.0
C224 C 0.36191 0.54298 0.84682 0.0
C225 C 0.29119 0.50106 0.82435 0.0
C226 C 0.30237 0.50785 0.91163 0.0
O227 O 0.36127 0.51992 0.83634 0.0
O228 O 0.34509 0.54666 0.86542 0.0
O229 O 0.30386 0.4862 0.89853 0.0
O230 O 0.31338 0.52769 0.90045 0.0
C231 C 0.36326 0.46451 0.87525 0.0
O232 O 0.29091 0.51948 0.84172 0.0
O233 O 0.30994 0.48426 0.8271 0.0
In234 In 0.50721 0.30794 0.86111 0.0
O235 O 0.51463 0.26404 0.84941 0.0
O236 O 0.48949 0.28767 0.82427 0.0
C237 C 0.51389 0.29459 0.91327 0.0
C238 C 0.54713 0.33576 0.83692 0.0
C239 C 0.46504 0.34136 0.86757 0.0
O240 O 0.4929 0.28882 0.90024 0.0
O241 O 0.53174 0.30648 0.89982 0.0
O242 O 0.48855 0.34735 0.87503 0.0
O243 O 0.46277 0.31839 0.85701 0.0
C244 C 0.50013 0.26511 0.82863 0.0
O245 O 0.52262 0.34159 0.83409 0.0
O246 O 0.55152 0.31544 0.85143 0.0
In247 In 0.69426 0.47549 0.86077 0.0
O248 O 0.65367 0.4919 0.87406 0.0
O249 O 0.68017 0.51877 0.8541 0.0
C250 C 0.67043 0.43267 0.83723 0.0
C251 C 0.73974 0.48391 0.83264 0.0
C252 C 0.70615 0.47077 0.91338 0.0
O253 O 0.66356 0.45654 0.83216 0.0
O254 O 0.69019 0.43058 0.85296 0.0
O255 O 0.7127 0.49113 0.89979 0.0
O256 O 0.69382 0.45289 0.90038 0.0
C257 C 0.65766 0.51536 0.86533 0.0
O258 O 0.73868 0.46833 0.85256 0.0
O259 O 0.71769 0.49484 0.82644 0.0
In260 In 0.52119 0.67995 0.86434 0.0
O261 O 0.51905 0.72346 0.84954 0.0
O262 O 0.5254 0.69277 0.82069 0.0
C263 C 0.52017 0.69824 0.91543 0.0
C264 C 0.47489 0.65414 0.85303 0.0
C265 C 0.56211 0.64433 0.86592 0.0
O266 O 0.54131 0.69906 0.90139 0.0
O267 O 0.50002 0.6885 0.90361 0.0
O268 O 0.53912 0.63948 0.87545 0.0
O269 O 0.56476 0.66756 0.85599 0.0
C270 C 0.52186 0.71742 0.8251 0.0
O271 O 0.49757 0.6451 0.84608 0.0
O272 O 0.47561 0.6763 0.86528 0.0
In273 In 0.68468 0.50217 0.11846 0.0
O274 O 0.71695 0.47969 0.1418 0.0
O275 O 0.71421 0.52189 0.14747 0.0
C276 C 0.70732 0.49476 0.06978 0.0
C277 C 0.64633 0.46479 0.12567 0.0
C278 C 0.65445 0.54703 0.12202 0.0
O279 O 0.71013 0.51623 0.08292 0.0
O280 O 0.69385 0.4769 0.08158 0.0
O281 O 0.65566 0.53001 0.14081 0.0
O282 O 0.66889 0.54165 0.1019 0.0
C283 C 0.72593 0.50023 0.15352 0.0
O284 O 0.64663 0.48042 0.1057 0.0
O285 O 0.66523 0.46824 0.14229 0.0
In286 In 0.48984 0.68174 0.12103 0.0
O287 O 0.4685 0.71744 0.14054 0.0
O288 O 0.50911 0.71012 0.15131 0.0
C289 C 0.48982 0.70223 0.07074 0.0
C290 C 0.53238 0.6496 0.13102 0.0
C291 C 0.44993 0.64534 0.12549 0.0
O292 O 0.51071 0.70106 0.08507 0.0
O293 O 0.46875 0.69407 0.08218 0.0
O294 O 0.46665 0.64517 0.10642 0.0
O295 O 0.45338 0.66386 0.14249 0.0
C296 C 0.48843 0.72437 0.15456 0.0
O297 O 0.51321 0.65211 0.14746 0.0
O298 O 0.53004 0.66333 0.10984 0.0
In299 In 0.49303 0.31616 0.12181 0.0
O300 O 0.4676 0.34809 0.1427 0.0
O301 O 0.44712 0.31726 0.12166 0.0
C302 C 0.52917 0.35614 0.11795 0.0
C303 C 0.50276 0.27733 0.15847 0.0
C304 C 0.49467 0.29755 0.07098 0.0
O305 O 0.50714 0.35632 0.1053 0.0
O306 O 0.53313 0.3356 0.13235 0.0
O307 O 0.51572 0.30234 0.08437 0.0
O308 O 0.47295 0.30161 0.08344 0.0
C309 C 0.44537 0.33851 0.13531 0.0
O310 O 0.4981 0.27219 0.13412 0.0
O311 O 0.50256 0.30193 0.16428 0.0
H312 H 0.09071 0.39221 0.35792 0.0
H313 H 0.17329 0.41592 0.36996 0.0
H314 H 0.17645 0.38639 0.40916 0.0
H315 H 0.15444 0.3569 0.44219 0.0
H316 H 0.07149 0.33424 0.43041 0.0
H317 H 0.06979 0.36031 0.38889 0.0
C318 C 0.10953 0.39062 0.36889 0.0
C319 C 0.13168 0.40632 0.3612 0.0
C320 C 0.11103 0.37404 0.39161 0.0
C321 C 0.15594 0.40404 0.37554 0.0
C322 C 0.15772 0.38728 0.39802 0.0
C323 C 0.13608 0.35752 0.4304 0.0
C324 C 0.11306 0.3439 0.43945 0.0
C325 C 0.13518 0.3727 0.40662 0.0
C326 C 0.08944 0.3447 0.42392 0.0
C327 C 0.08844 0.35959 0.40019 0.0
H328 H 0.64263 0.12588 0.41089 0.0
H329 H 0.58816 0.08586 0.46523 0.0
H330 H 0.55443 0.08286 0.42965 0.0
H331 H 0.5397 0.09334 0.38383 0.0
H332 H 0.59387 0.13348 0.32932 0.0
H333 H 0.62854 0.13459 0.36425 0.0
C334 C 0.62343 0.11636 0.41487 0.0
C335 C 0.61782 0.10623 0.44066 0.0
C336 C 0.60409 0.11481 0.39436 0.0
C337 C 0.59292 0.09386 0.44554 0.0
C338 C 0.57361 0.09217 0.42524 0.0
C339 C 0.55914 0.10222 0.37955 0.0
C340 C 0.5642 0.11345 0.35413 0.0
C341 C 0.57887 0.10286 0.39969 0.0
C342 C 0.5895 0.12475 0.34879 0.0
C343 C 0.6093 0.12543 0.36875 0.0
H344 H 0.80674 0.60274 0.43365 0.0
H345 H 0.86192 0.64976 0.38608 0.0
H346 H 0.86284 0.61471 0.35178 0.0
H347 H 0.85312 0.56826 0.33865 0.0
H348 H 0.7989 0.52063 0.38664 0.0
H349 H 0.79218 0.55848 0.41727 0.0
C350 C 0.8185 0.60555 0.4155 0.0
C351 C 0.83456 0.62858 0.41258 0.0
C352 C 0.81937 0.58507 0.39611 0.0
C353 C 0.84955 0.63208 0.38889 0.0
C354 C 0.8502 0.612 0.36932 0.0
C355 C 0.83949 0.56633 0.35557 0.0
C356 C 0.82688 0.54163 0.36068 0.0
C357 C 0.83602 0.588 0.37324 0.0
C358 C 0.80899 0.53944 0.38243 0.0
C359 C 0.80522 0.56103 0.4 0.0
H360 H 0.37921 0.82694 0.45174 0.0
H361 H 0.32612 0.86967 0.39785 0.0
H362 H 0.35924 0.86595 0.36181 0.0
H363 H 0.40473 0.85434 0.34699 0.0
H364 H 0.45859 0.81303 0.40121 0.0
H365 H 0.42351 0.81198 0.43562 0.0
C366 C 0.3748 0.83518 0.43202 0.0
C367 C 0.35041 0.84881 0.42752 0.0
C368 C 0.39405 0.83325 0.41149 0.0
C369 C 0.34485 0.85925 0.40185 0.0
C370 C 0.36377 0.85715 0.38124 0.0
C371 C 0.40866 0.8447 0.36618 0.0
C372 C 0.43424 0.83396 0.37165 0.0
C373 C 0.38865 0.84472 0.38603 0.0
C374 C 0.43904 0.8215 0.39656 0.0
C375 C 0.41905 0.82102 0.41629 0.0
H376 H 0.14029 0.60859 0.62978 0.0
H377 H 0.20414 0.56325 0.59233 0.0
H378 H 0.20356 0.59374 0.55382 0.0
H379 H 0.17988 0.62863 0.52789 0.0
H380 H 0.11469 0.67253 0.56484 0.0
H381 H 0.12104 0.64749 0.60654 0.0
C382 C 0.15449 0.60575 0.61347 0.0
C383 C 0.1719 0.58348 0.61365 0.0
C384 C 0.15355 0.62289 0.59112 0.0
C385 C 0.19039 0.58016 0.59254 0.0
C386 C 0.18995 0.59749 0.57043 0.0
C387 C 0.16745 0.63308 0.54526 0.0
C388 C 0.14655 0.65203 0.54317 0.0
C389 C 0.17083 0.61821 0.56902 0.0
C390 C 0.13073 0.65779 0.56587 0.0
C391 C 0.13429 0.64344 0.58971 0.0
H392 H 0.3305 0.12587 0.55797 0.0
H393 H 0.38593 0.16617 0.50486 0.0
H394 H 0.41894 0.16916 0.54122 0.0
H395 H 0.43319 0.15729 0.58705 0.0
H396 H 0.37773 0.11684 0.64003 0.0
H397 H 0.34344 0.11715 0.60478 0.0
C398 C 0.34971 0.13553 0.55443 0.0
C399 C 0.3559 0.14556 0.52875 0.0
C400 C 0.36859 0.13705 0.57534 0.0
C401 C 0.38075 0.15823 0.52447 0.0
C402 C 0.39965 0.15988 0.54521 0.0
C403 C 0.4135 0.14879 0.59095 0.0
C404 C 0.40805 0.13685 0.61599 0.0
C405 C 0.39397 0.14889 0.57057 0.0
C406 C 0.38242 0.12607 0.62087 0.0
C407 C 0.36285 0.12617 0.60071 0.0
H408 H 0.8263 0.44338 0.65109 0.0
H409 H 0.90253 0.41286 0.67948 0.0
H410 H 0.89446 0.37034 0.65628 0.0
H411 H 0.86946 0.34529 0.62204 0.0
H412 H 0.79511 0.37749 0.59071 0.0
H413 H 0.79833 0.41562 0.62151 0.0
C414 C 0.8409 0.42722 0.65264 0.0
C415 C 0.86518 0.43136 0.66654 0.0
C416 C 0.8365 0.4032 0.6386 0.0
C417 C 0.88382 0.41022 0.66861 0.0
C418 C 0.87924 0.38594 0.65531 0.0
C419 C 0.85357 0.36027 0.62248 0.0
C420 C 0.83228 0.35884 0.60391 0.0
C421 C 0.85618 0.38267 0.63936 0.0
C422 C 0.81181 0.37831 0.60471 0.0
C423 C 0.81375 0.4002 0.62217 0.0
H424 H 0.5552 0.87173 0.65488 0.0
H425 H 0.50759 0.82592 0.59859 0.0
H426 H 0.54564 0.82357 0.56772 0.0
H427 H 0.59148 0.83653 0.55568 0.0
H428 H 0.639 0.88336 0.61115 0.0
H429 H 0.60198 0.88313 0.64354 0.0
C430 C 0.55325 0.86107 0.63594 0.0
C431 C 0.52862 0.84914 0.62894 0.0
C432 C 0.57513 0.86003 0.61815 0.0
C433 C 0.52633 0.83538 0.60437 0.0
C434 C 0.54806 0.83402 0.5867 0.0
C435 C 0.59383 0.84649 0.57495 0.0
C436 C 0.61785 0.86002 0.58101 0.0
C437 C 0.57241 0.84658 0.59324 0.0
C438 C 0.62064 0.87284 0.60604 0.0
C439 C 0.59948 0.87277 0.62452 0.0
H440 H 0.37455 0.16909 0.41064 0.0
H441 H 0.32906 0.10604 0.37225 0.0
H442 H 0.36299 0.10258 0.33689 0.0
H443 H 0.40811 0.11359 0.3202 0.0
H444 H 0.45478 0.17471 0.36028 0.0
H445 H 0.41777 0.18303 0.39148 0.0
C446 C 0.37182 0.15496 0.39424 0.0
C447 C 0.34949 0.13769 0.39415 0.0
C448 C 0.39177 0.15255 0.37444 0.0
C449 C 0.34619 0.11945 0.37283 0.0
C450 C 0.36563 0.11739 0.35266 0.0
C451 C 0.40998 0.12905 0.33547 0.0
C452 C 0.4342 0.14333 0.33813 0.0
C453 C 0.3889 0.13324 0.35376 0.0
C454 C 0.43638 0.16331 0.35798 0.0
C455 C 0.41525 0.16804 0.37586 0.0
H456 H 0.86204 0.33875 0.44031 0.0
H457 H 0.80573 0.3885 0.48386 0.0
H458 H 0.80104 0.41793 0.44488 0.0
H459 H 0.81525 0.43127 0.39976 0.0
H460 H 0.87287 0.38281 0.35655 0.0
H461 H 0.87445 0.35087 0.39394 0.0
C462 C 0.84858 0.35591 0.44116 0.0
C463 C 0.83439 0.36157 0.46496 0.0
C464 C 0.84623 0.37295 0.41877 0.0
C465 C 0.81699 0.38382 0.4658 0.0
C466 C 0.81428 0.40066 0.44353 0.0
C467 C 0.82789 0.41353 0.39836 0.0
C468 C 0.84399 0.40943 0.3755 0.0
C469 C 0.82913 0.39565 0.4201 0.0
C470 C 0.86031 0.3864 0.37398 0.0
C471 C 0.8613 0.36821 0.39539 0.0
H472 H 0.55657 0.89563 0.38871 0.0
H473 H 0.57071 0.81178 0.37153 0.0
H474 H 0.60489 0.80996 0.40688 0.0
H475 H 0.62948 0.83181 0.44378 0.0
H476 H 0.61437 0.91539 0.46156 0.0
H477 H 0.58187 0.91772 0.42477 0.0
C478 C 0.56725 0.877 0.39259 0.0
C479 C 0.56112 0.85387 0.3776 0.0
C480 C 0.58661 0.87603 0.41309 0.0
C481 C 0.57507 0.82986 0.38286 0.0
C482 C 0.59458 0.82879 0.40307 0.0
C483 C 0.61917 0.85056 0.43949 0.0
C484 C 0.62424 0.87337 0.45538 0.0
C485 C 0.60032 0.85169 0.41848 0.0
C486 C 0.61073 0.89752 0.44965 0.0
C487 C 0.59215 0.89888 0.42863 0.0
H488 H 0.15652 0.59724 0.42819 0.0
H489 H 0.10665 0.64647 0.37685 0.0
H490 H 0.10572 0.61086 0.34304 0.0
H491 H 0.1157 0.56436 0.32999 0.0
H492 H 0.16472 0.51478 0.38181 0.0
H493 H 0.16957 0.55203 0.41343 0.0
C494 C 0.14572 0.60029 0.40946 0.0
C495 C 0.13146 0.6243 0.4051 0.0
C496 C 0.14499 0.57964 0.39029 0.0
C497 C 0.11768 0.62808 0.3807 0.0
C498 C 0.11708 0.60771 0.3614 0.0
C499 C 0.12771 0.56182 0.34804 0.0
C500 C 0.13962 0.53683 0.35371 0.0
C501 C 0.13014 0.58319 0.36627 0.0
C502 C 0.15525 0.53383 0.37708 0.0
C503 C 0.15798 0.55508 0.3952 0.0
H504 H 0.31311 0.86734 0.58764 0.0
H505 H 0.34659 0.79953 0.54503 0.0
H506 H 0.37671 0.79028 0.58269 0.0
H507 H 0.3989 0.80653 0.62359 0.0
H508 H 0.36665 0.8753 0.66553 0.0
H509 H 0.33023 0.87867 0.63267 0.0
C510 C 0.32657 0.85017 0.58688 0.0
C511 C 0.32808 0.8345 0.56339 0.0
C512 C 0.34419 0.84527 0.60841 0.0
C513 C 0.34529 0.81209 0.56278 0.0
C514 C 0.36261 0.80684 0.58427 0.0
C515 C 0.38347 0.82179 0.62595 0.0
C516 C 0.38573 0.84097 0.64658 0.0
C517 C 0.36306 0.82405 0.6066 0.0
C518 C 0.36544 0.86042 0.64967 0.0
C519 C 0.34474 0.8625 0.63075 0.0
H520 H 0.139 0.42272 0.64635 0.0
H521 H 0.18358 0.46578 0.58568 0.0
H522 H 0.18068 0.42717 0.55556 0.0
H523 H 0.16184 0.38296 0.5449 0.0
H524 H 0.1165 0.34007 0.60507 0.0
H525 H 0.1236 0.37669 0.63706 0.0
C526 C 0.14838 0.4235 0.62667 0.0
C527 C 0.16124 0.44714 0.61814 0.0
C528 C 0.14637 0.40133 0.60932 0.0
C529 C 0.17343 0.44784 0.59266 0.0
C530 C 0.17173 0.4258 0.57539 0.0
C531 C 0.15382 0.38147 0.56513 0.0
C532 C 0.13846 0.359 0.57254 0.0
C533 C 0.15769 0.40271 0.58326 0.0
C534 C 0.12832 0.35724 0.59886 0.0
C535 C 0.13229 0.37821 0.61713 0.0
H536 H 0.53605 0.16451 0.61125 0.0
H537 H 0.56143 0.09497 0.6566 0.0
H538 H 0.60181 0.09118 0.629 0.0
H539 H 0.62749 0.10488 0.58931 0.0
H540 H 0.60194 0.17389 0.54329 0.0
H541 H 0.56417 0.18082 0.574 0.0
C542 C 0.55063 0.14879 0.61533 0.0
C543 C 0.54566 0.12989 0.63573 0.0
C544 C 0.57365 0.14651 0.59915 0.0
C545 C 0.56475 0.10968 0.6409 0.0
C546 C 0.5878 0.10744 0.62508 0.0
C547 C 0.61384 0.12163 0.5862 0.0
C548 C 0.61728 0.13867 0.56394 0.0
C549 C 0.59208 0.12531 0.60372 0.0
C550 C 0.59962 0.16043 0.56026 0.0
C551 C 0.57798 0.16435 0.57774 0.0
H552 H 0.88126 0.59546 0.63998 0.0
H553 H 0.85121 0.52538 0.59858 0.0
H554 H 0.84174 0.55238 0.55878 0.0
H555 H 0.84362 0.59534 0.53506 0.0
H556 H 0.87436 0.66553 0.57564 0.0
H557 H 0.88175 0.6391 0.6165 0.0
C558 C 0.87251 0.58618 0.62228 0.0
C559 C 0.86705 0.55847 0.62218 0.0
C560 C 0.86726 0.60181 0.59933 0.0
C561 C 0.85569 0.54667 0.59914 0.0
C562 C 0.85026 0.56208 0.57635 0.0
C563 C 0.85176 0.60491 0.5529 0.0
C564 C 0.8585 0.63229 0.55234 0.0
C565 C 0.8562 0.58958 0.57614 0.0
C566 C 0.86903 0.64443 0.5756 0.0
C567 C 0.87331 0.62933 0.59893 0.0
H568 H 0.33589 0.39885 0.12099 0.0
H569 H 0.37634 0.45638 0.17175 0.0
H570 H 0.41344 0.42479 0.17855 0.0
H571 H 0.4369 0.38346 0.16496 0.0
H572 H 0.39659 0.32631 0.11362 0.0
H573 H 0.35668 0.35495 0.1125 0.0
C574 C 0.35263 0.40427 0.1339 0.0
C575 C 0.35366 0.42999 0.14549 0.0
C576 C 0.37396 0.38618 0.13745 0.0
C577 C 0.37522 0.4367 0.16249 0.0
C578 C 0.39648 0.41871 0.16627 0.0
C579 C 0.41919 0.37706 0.15394 0.0
C580 C 0.4198 0.35307 0.13903 0.0
C581 C 0.39648 0.39379 0.15308 0.0
C582 C 0.39665 0.34482 0.12509 0.0
C583 C 0.37388 0.36123 0.12434 0.0
H584 H 0.468 0.60757 0.82542 0.0
H585 H 0.42551 0.66635 0.87315 0.0
H586 H 0.38546 0.63808 0.873 0.0
H587 H 0.36428 0.59468 0.86346 0.0
H588 H 0.40665 0.53567 0.81597 0.0
H589 H 0.44486 0.56618 0.81153 0.0
C590 C 0.44984 0.61432 0.83547 0.0
C591 C 0.44979 0.63879 0.84958 0.0
C592 C 0.42694 0.59789 0.83546 0.0
C593 C 0.42609 0.64748 0.86228 0.0
C594 C 0.4032 0.63131 0.86228 0.0
C595 C 0.38172 0.58868 0.85179 0.0
C596 C 0.38283 0.5629 0.84035 0.0
C597 C 0.40366 0.60617 0.84956 0.0
C598 C 0.40539 0.55542 0.82506 0.0
C599 C 0.42729 0.57279 0.82262 0.0
H600 H 0.4653 0.39092 0.89023 0.0
H601 H 0.41372 0.33423 0.8496 0.0
H602 H 0.37695 0.36688 0.85 0.0
H603 H 0.36041 0.41244 0.85938 0.0
H604 H 0.41216 0.46928 0.89958 0.0
H605 H 0.44785 0.43556 0.90207 0.0
C606 C 0.44594 0.38565 0.88164 0.0
C607 C 0.44227 0.36031 0.86972 0.0
C608 C 0.42496 0.40455 0.88181 0.0
C609 C 0.41707 0.35368 0.85881 0.0
C610 C 0.39605 0.37233 0.85899 0.0
C611 C 0.37941 0.41735 0.86891 0.0
C612 C 0.38372 0.44333 0.87913 0.0
C613 C 0.39991 0.39796 0.87006 0.0
C614 C 0.40839 0.44941 0.89151 0.0
C615 C 0.42883 0.43018 0.89288 0.0
H616 H 0.62208 0.4332 0.81185 0.0
H617 H 0.68055 0.37985 0.84762 0.0
H618 H 0.64799 0.34321 0.84687 0.0
H619 H 0.60092 0.32881 0.84324 0.0
H620 H 0.54193 0.38284 0.80941 0.0
H621 H 0.57671 0.41656 0.80188 0.0
C622 C 0.62792 0.41337 0.81881 0.0
C623 C 0.65351 0.40935 0.83018 0.0
C624 C 0.60884 0.39261 0.81907 0.0
C625 C 0.66086 0.38352 0.83899 0.0
C626 C 0.6422 0.36259 0.83873 0.0
C627 C 0.5958 0.34775 0.8337 0.0
C628 C 0.56885 0.35353 0.82735 0.0
C629 C 0.61579 0.36727 0.82996 0.0
C630 C 0.56251 0.37803 0.81475 0.0
C631 C 0.58238 0.39737 0.81052 0.0
H632 H 0.66216 0.56759 0.84966 0.0
H633 H 0.60773 0.51153 0.88722 0.0
H634 H 0.57381 0.54675 0.8915 0.0
H635 H 0.55922 0.59311 0.88385 0.0
H636 H 0.61313 0.64944 0.84603 0.0
H637 H 0.64772 0.61453 0.84275 0.0
C638 C 0.64288 0.56313 0.85881 0.0
C639 C 0.63744 0.53698 0.86805 0.0
C640 C 0.62341 0.58351 0.86122 0.0
C641 C 0.61241 0.53149 0.87992 0.0
C642 C 0.59299 0.55162 0.88239 0.0
C643 C 0.5786 0.59781 0.87502 0.0
C644 C 0.58362 0.6238 0.8652 0.0
C645 C 0.59824 0.57765 0.87303 0.0
C646 C 0.60879 0.62957 0.85377 0.0
C647 C 0.62855 0.60961 0.85183 0.0
H648 H 0.61605 0.55856 0.1592 0.0
H649 H 0.65109 0.58719 0.08516 0.0
H650 H 0.61727 0.62266 0.08246 0.0
H651 H 0.57594 0.64335 0.09922 0.0
H652 H 0.5399 0.61443 0.17261 0.0
H653 H 0.57603 0.58132 0.17759 0.0
C654 C 0.61646 0.57279 0.14268 0.0
C655 C 0.6359 0.57018 0.12233 0.0
C656 C 0.59669 0.59291 0.14103 0.0
C657 C 0.63622 0.58872 0.10101 0.0
C658 C 0.61687 0.60896 0.09942 0.0
C659 C 0.57609 0.62994 0.11642 0.0
C660 C 0.55521 0.63114 0.13539 0.0
C661 C 0.59671 0.61089 0.119 0.0
C662 C 0.55574 0.61379 0.15767 0.0
C663 C 0.57635 0.59484 0.16051 0.0
H664 H 0.35083 0.56975 0.1492 0.0
H665 H 0.37987 0.53204 0.07658 0.0
H666 H 0.41607 0.5649 0.07355 0.0
H667 H 0.43958 0.60418 0.09147 0.0
H668 H 0.41102 0.64211 0.16412 0.0
H669 H 0.37454 0.60933 0.16721 0.0
C670 C 0.36507 0.56879 0.1327 0.0
C671 C 0.36267 0.54852 0.11314 0.0
C672 C 0.38593 0.58774 0.1311 0.0
C673 C 0.38128 0.54746 0.0919 0.0
C674 C 0.402 0.56623 0.09014 0.0
C675 C 0.42538 0.60527 0.10799 0.0
C676 C 0.42798 0.6255 0.12753 0.0
C677 C 0.40453 0.58641 0.10963 0.0
C678 C 0.40944 0.62668 0.14882 0.0
C679 C 0.38858 0.60796 0.1506 0.0
H680 H 0.60194 0.45704 0.09511 0.0
H681 H 0.64545 0.42454 0.1629 0.0
H682 H 0.61306 0.3878 0.16638 0.0
H683 H 0.57284 0.3645 0.14956 0.0
H684 H 0.52884 0.39775 0.08246 0.0
H685 H 0.56102 0.43463 0.07925 0.0
C686 C 0.60427 0.44196 0.1107 0.0
C687 C 0.62606 0.44341 0.12866 0.0
C688 C 0.58558 0.421 0.11262 0.0
C689 C 0.62879 0.42384 0.14884 0.0
C690 C 0.61034 0.4028 0.1508 0.0
C691 C 0.57036 0.37981 0.13422 0.0
C692 C 0.54864 0.37836 0.11618 0.0
C693 C 0.58876 0.40109 0.13268 0.0
C694 C 0.54545 0.39844 0.09656 0.0
C695 C 0.56383 0.41951 0.09471 0.0
H696 H 0.02507 0.33815 0.53532 0.0
H697 H 0.02879 0.25289 0.52002 0.0
H698 H 0.97958 0.2503 0.52201 0.0
H699 H 0.93544 0.27297 0.52626 0.0
H700 H 0.93294 0.3585 0.54089 0.0
H701 H 0.98183 0.36027 0.54089 0.0
C702 C 0.01516 0.31893 0.53259 0.0
C703 C 0.03046 0.29577 0.52744 0.0
C704 C 0.9871 0.3177 0.53344 0.0
C705 C 0.01737 0.27101 0.52402 0.0
C706 C 0.98928 0.26955 0.52506 0.0
C707 C 0.94566 0.29194 0.52948 0.0
C708 C 0.93062 0.31558 0.53341 0.0
C709 C 0.97391 0.29286 0.52942 0.0
C710 C 0.94406 0.34003 0.53769 0.0
C711 C 0.97202 0.34108 0.53773 0.0
H712 H 0.70657 0.03884 0.54814 0.0
H713 H 0.7133 0.0404 0.4616 0.0
H714 H 0.72007 0.9918 0.46093 0.0
H715 H 0.71581 0.9486 0.48419 0.0
H716 H 0.7066 0.94693 0.5705 0.0
H717 H 0.70966 -0.00413 0.57209 0.0
C718 C 0.71012 0.02861 0.52919 0.0
C719 C 0.70888 0.04302 0.50492 0.0
C720 C 0.71329 0.00062 0.52891 0.0
C721 C 0.71387 0.02965 0.48053 0.0
C722 C 0.71762 0.00185 0.48013 0.0
C723 C 0.71514 0.95892 0.50341 0.0
C724 C 0.71043 0.9443 0.52712 0.0
C725 C 0.7161 0.98704 0.50408 0.0
C726 C 0.70993 0.95781 0.55193 0.0
C727 C 0.71152 0.9858 0.55284 0.0
H728 H 0.94492 0.64304 0.4756 0.0
H729 H 0.9353 0.72911 0.47127 0.0
H730 H 0.98416 0.73453 0.46808 0.0
H731 H 0.02961 0.71455 0.46703 0.0
H732 H 0.03846 0.62842 0.47289 0.0
H733 H 0.98977 0.62326 0.47492 0.0
C734 C 0.9535 0.663 0.47389 0.0
C735 C 0.93664 0.68564 0.47361 0.0
C736 C 0.98142 0.66592 0.47235 0.0
C737 C 0.94797 0.71138 0.47155 0.0
C738 C 0.97585 0.71448 0.46971 0.0
C739 C 0.02081 0.69469 0.46866 0.0
C740 C 0.03751 0.67191 0.46979 0.0
C741 C 0.99277 0.69187 0.47015 0.0
C742 C 0.02597 0.64627 0.47206 0.0
C743 C -0.00184 0.64328 0.4732 0.0
H744 H 0.33309 0.04 0.4848 0.0
H745 H 0.25078 0.04722 0.4581 0.0
H746 H 0.24462 -0.0013 0.46357 0.0
H747 H 0.26305 0.9542 0.4754 0.0
H748 H 0.34542 0.94777 0.50229 0.0
H749 H 0.35108 -0.00383 0.49744 0.0
C750 C 0.31379 0.03097 0.48013 0.0
C751 C 0.29246 0.04706 0.47094 0.0
C752 C 0.3104 0.00327 0.48345 0.0
C753 C 0.26753 0.03515 0.46515 0.0
C754 C 0.26399 0.00746 0.46829 0.0
C755 C 0.28217 0.96345 0.48031 0.0
C756 C 0.30379 0.94748 0.48915 0.0
C757 C 0.28533 0.99132 0.47738 0.0
C758 C 0.32847 0.95966 0.49544 0.0
C759 C 0.33176 0.98731 0.49263 0.0
H760 H 0.52669 0.94032 0.28113 0.0
H761 H 0.44811 0.93825 0.31794 0.0
H762 H 0.44305 0.98645 0.31107 0.0
H763 H 0.46244 0.02956 0.2986 0.0
H764 H 0.54188 0.03285 0.26392 0.0
H765 H 0.54496 0.98375 0.26551 0.0
C766 C 0.50836 0.95043 0.2873 0.0
C767 C 0.48792 0.93586 0.30023 0.0
C768 C 0.50577 0.97833 0.28375 0.0
C769 C 0.46424 0.94911 0.30816 0.0
C770 C 0.46131 0.97666 0.30424 0.0
C771 C 0.48029 0.01954 0.29101 0.0
C772 C 0.50197 0.03476 0.28135 0.0
C773 C 0.48217 0.99153 0.29265 0.0
C774 C 0.52494 0.02152 0.27153 0.0
C775 C 0.52675 -0.00652 0.27256 0.0
H776 H 0.94129 0.45954 0.27993 0.0
H777 H 0.93878 0.49674 0.35839 0.0
H778 H 0.98766 0.49959 0.35903 0.0
H779 H 0.03098 0.4906 0.33813 0.0
H780 H 0.03459 0.45281 0.26009 0.0
H781 H 0.98534 0.45124 0.25837 0.0
C782 C 0.9515 0.46832 0.29709 0.0
C783 C 0.93648 0.47783 0.31911 0.0
C784 C 0.97972 0.4698 0.29742 0.0
C785 C 0.9499 0.48919 0.34123 0.0
C786 C 0.97785 0.49086 0.34163 0.0
C787 C 0.02103 0.48211 0.32065 0.0
C788 C 0.03634 0.47179 0.29929 0.0
C789 C 0.99292 0.48109 0.31994 0.0
C790 C 0.02318 0.46089 0.27679 0.0
C791 C -0.00495 0.45994 0.27583 0.0
H792 H 0.45594 0.94995 0.71399 0.0
H793 H 0.45954 0.94064 0.62768 0.0
H794 H 0.45971 0.9892 0.62203 0.0
H795 H 0.46033 0.03413 0.64132 0.0
H796 H 0.45658 0.04462 0.72738 0.0
H797 H 0.45473 -0.00425 0.73344 0.0
C798 C 0.45668 0.95862 0.69398 0.0
C799 C 0.45787 0.94174 0.67131 0.0
C800 C 0.45673 0.9867 0.69082 0.0
C801 C 0.45868 0.95318 0.64548 0.0
C802 C 0.45878 0.98096 0.6422 0.0
C803 C 0.459 0.02576 0.66143 0.0
C804 C 0.45874 0.04288 0.68388 0.0
C805 C 0.45804 -0.00214 0.6647 0.0
C806 C 0.45681 0.03177 0.70978 0.0
C807 C 0.45584 0.00387 0.71324 0.0
H808 H 0.97417 0.51087 0.64734 0.0
H809 H 0.97372 0.52396 0.73312 0.0
H810 H 0.02302 0.52591 0.7333 0.0
H811 H 0.06632 0.52314 0.70879 0.0
H812 H 0.0655 0.51107 0.62276 0.0
H813 H 0.01658 0.50944 0.623 0.0
C814 C 0.98483 0.51418 0.66611 0.0
C815 C 0.9704 0.51714 0.69019 0.0
C816 C 0.01295 0.5154 0.666 0.0
C817 C 0.98445 0.52163 0.71431 0.0
C818 C 0.01261 0.52269 0.71441 0.0
C819 C 0.05537 0.52015 0.69015 0.0
C820 C 0.0695 0.51713 0.66582 0.0
C821 C 0.02708 0.51946 0.69036 0.0
C822 C 0.05511 0.51346 0.64176 0.0
C823 C 0.02712 0.5125 0.64185 0.0
H824 H 0.28724 0.46623 0.94328 0.0
H825 H 0.29424 0.55264 0.94207 0.0
H826 H 0.28449 0.55447 0.99018 0.0
H827 H 0.28055 0.53107 0.0334 0.0
H828 H 0.27691 0.44446 0.03501 0.0
H829 H 0.27826 0.44314 0.98591 0.0
C830 C 0.28608 0.48549 0.95345 0.0
C831 C 0.29175 0.50923 0.93928 0.0
C832 C 0.28126 0.48632 0.98123 0.0
C833 C 0.29017 0.53406 0.95265 0.0
C834 C 0.28466 0.53512 0.98016 0.0
C835 C 0.27939 0.51195 0.02296 0.0
C836 C 0.2789 0.48789 0.03773 0.0
C837 C 0.28114 0.51131 -0.00519 0.0
C838 C 0.27749 0.46325 0.02401 0.0
C839 C 0.27838 0.46247 -0.00404 0.0
H840 H 0.47439 0.27976 0.94762 0.0
H841 H 0.55842 0.30105 0.9446 0.0
H842 H 0.56065 0.30071 0.99372 0.0
H843 H 0.5375 0.29911 0.03732 0.0
H844 H 0.45279 0.28063 0.04008 0.0
H845 H 0.45207 0.27486 0.99129 0.0
C846 C 0.49329 0.28388 0.95772 0.0
C847 C 0.51616 0.29058 0.94258 0.0
C848 C 0.49423 0.28436 0.98592 0.0
C849 C 0.5405 0.29597 0.95588 0.0
C850 C 0.54177 0.29584 0.98395 0.0
C851 C 0.51901 0.29337 0.02726 0.0
C852 C 0.49521 0.29046 0.04219 0.0
C853 C 0.51859 0.29079 -0.00085 0.0
C854 C 0.47134 0.28313 0.02895 0.0
C855 C 0.4709 0.27988 0.00107 0.0
H856 H 0.72761 0.50861 0.94628 0.0
H857 H 0.69401 0.42869 0.94599 0.0
H858 H 0.69505 0.42772 -0.00496 0.0
H859 H 0.70036 0.45157 0.03767 0.0
H860 H 0.73199 0.53226 0.03826 0.0
H861 H 0.73739 0.53076 0.9894 0.0
C862 C 0.72091 0.49085 0.95697 0.0
C863 C 0.71041 0.46891 0.94263 0.0
C864 C 0.72112 0.49061 0.98518 0.0
C865 C 0.70194 0.44594 0.95665 0.0
C866 C 0.7025 0.44537 0.98468 0.0
C867 C 0.7089 0.46865 0.02716 0.0
C868 C 0.71546 0.4921 0.04142 0.0
C869 C 0.71128 0.46789 -0.00088 0.0
C870 C 0.72666 0.51402 0.02764 0.0
C871 C 0.72961 0.51323 -0.00029 0.0
H872 H 0.47571 0.70438 0.9458 0.0
H873 H 0.5623 0.70876 0.9493 0.0
H874 H 0.56028 0.7142 -0.00176 0.0
H875 H 0.53404 0.71193 0.0402 0.0
H876 H 0.44752 0.70588 0.03618 0.0
H877 H 0.44934 0.70732 0.98715 0.0
C878 C 0.49414 0.7069 0.95723 0.0
C879 C 0.51913 0.70578 0.9441 0.0
C880 C 0.49281 0.70959 0.98524 0.0
C881 C 0.54283 0.70942 0.95905 0.0
C882 C 0.54167 0.71242 0.98701 0.0
C883 C 0.51556 0.71149 0.02859 0.0
C884 C 0.49069 0.70849 0.04174 0.0
C885 C 0.5168 0.7117 0.00037 0.0
C886 C 0.46691 0.70801 0.02649 0.0
C887 C 0.46794 0.70871 -0.00154 0.0
H888 H 0.16108 0.23891 0.4636 0.0
H889 H 0.16985 0.2338 0.54985 0.0
H890 H 0.20612 0.20099 0.54449 0.0
H891 H 0.23715 0.17628 0.51527 0.0
H892 H 0.22947 0.18263 0.429 0.0
H893 H 0.19079 0.21259 0.43439 0.0
C894 C 0.17071 0.23036 0.48123 0.0
C895 C 0.16292 0.23876 0.50708 0.0
C896 C 0.19184 0.21201 0.47798 0.0
C897 C 0.17557 0.22762 0.52975 0.0
C898 C 0.19634 0.20897 0.52669 0.0
C899 C 0.22692 0.18411 0.49764 0.0
C900 C 0.2362 0.17746 0.47178 0.0
C901 C 0.20495 0.20144 0.5009 0.0
C902 C 0.22274 0.18762 0.44911 0.0
C903 C 0.20065 0.20471 0.45218 0.0
H904 H 0.75076 0.16347 0.53809 0.0
H905 H 0.71091 0.20006 0.47007 0.0
H906 H 0.74173 0.23806 0.47211 0.0
H907 H 0.77869 0.26154 0.49406 0.0
H908 H 0.81869 0.2257 0.56233 0.0
H909 H 0.78907 0.18653 0.55929 0.0
C910 C 0.74895 0.17971 0.52365 0.0
C911 C 0.72858 0.17908 0.50404 0.0
C912 C 0.76664 0.20157 0.52503 0.0
C913 C 0.72642 0.20016 0.4854 0.0
C914 C 0.74399 0.2219 0.48655 0.0
C915 C 0.78101 0.24513 0.50825 0.0
C916 C 0.80068 0.24649 0.52847 0.0
C917 C 0.76396 0.22291 0.50643 0.0
C918 C 0.80358 0.22506 0.54662 0.0
C919 C 0.78667 0.20272 0.5449 0.0
H920 H 0.78203 0.72315 0.522 0.0
H921 H 0.81821 0.76115 0.45293 0.0
H922 H 0.78874 0.80011 0.4586 0.0
H923 H 0.75241 0.82297 0.48285 0.0
H924 H 0.71645 0.78506 0.5521 0.0
H925 H 0.74639 0.74643 0.54684 0.0
C926 C 0.78341 0.73994 0.50816 0.0
C927 C 0.8021 0.7393 0.48701 0.0
C928 C 0.7666 0.76227 0.51166 0.0
C929 C 0.80388 0.76122 0.46933 0.0
C930 C 0.78709 0.78348 0.47258 0.0
C931 C 0.75124 0.80631 0.49687 0.0
C932 C 0.73228 0.80678 0.51779 0.0
C933 C 0.76837 0.78418 0.49365 0.0
C934 C 0.73093 0.78512 0.53583 0.0
C935 C 0.74797 0.76302 0.5328 0.0
H936 H 0.14798 0.76785 0.49217 0.0
H937 H 0.18077 0.73684 0.41799 0.0
H938 H 0.21396 0.77287 0.41722 0.0
H939 H 0.23731 0.80896 0.44074 0.0
H940 H 0.20656 0.83854 0.51633 0.0
H941 H 0.16857 0.80749 0.51328 0.0
C942 C 0.16205 0.76935 0.47557 0.0
C943 C 0.16225 0.74961 0.45536 0.0
C944 C 0.18156 0.78963 0.47568 0.0
C945 C 0.18048 0.75171 0.43392 0.0
C946 C 0.19948 0.77223 0.43349 0.0
C947 C 0.22208 0.80889 0.45636 0.0
C948 C 0.22487 0.82561 0.47893 0.0
C949 C 0.20081 0.79064 0.45478 0.0
C950 C 0.20488 0.82563 0.49886 0.0
C951 C 0.18325 0.80784 0.49717 0.0
H952 H 0.51996 0.20314 0.25924 0.0
H953 H 0.49453 0.14258 0.20257 0.0
H954 H 0.49257 0.17638 0.16685 0.0
H955 H 0.49583 0.22361 0.15251 0.0
H956 H 0.51946 0.28412 0.21006 0.0
H957 H 0.52449 0.24977 0.24474 0.0
C958 C 0.5142 0.19728 0.23902 0.0
C959 C 0.50733 0.17048 0.2335 0.0
C960 C 0.51268 0.21681 0.21883 0.0
C961 C 0.49986 0.16315 0.20726 0.0
C962 C 0.49869 0.18245 0.18688 0.0
C963 C 0.50227 0.22919 0.1726 0.0
C964 C 0.50718 0.2563 0.17881 0.0
C965 C 0.50472 0.2094 0.19254 0.0
C966 C 0.51544 0.26336 0.20488 0.0
C967 C 0.51833 0.24376 0.2247 0.0
H968 H 0.81262 0.51378 0.24445 0.0
H969 H 0.8018 0.4279 0.24936 0.0
H970 H 0.7712 0.42937 0.21078 0.0
H971 H 0.74543 0.45556 0.17768 0.0
H972 H 0.75435 0.54177 0.17485 0.0
H973 H 0.78801 0.5397 0.21065 0.0
C974 C 0.80379 0.49534 0.2369 0.0
C975 C 0.80936 0.47077 0.24967 0.0
C976 C 0.78581 0.49645 0.21525 0.0
C977 C 0.79771 0.44705 0.23983 0.0
C978 C 0.78021 0.4479 0.21784 0.0
C979 C 0.75496 0.47385 0.18475 0.0
C980 C 0.74746 0.49878 0.17378 0.0
C981 C 0.7738 0.47255 0.20569 0.0
C982 C 0.75977 0.52236 0.18314 0.0
C983 C 0.77898 0.52119 0.20357 0.0
H984 H 0.52963 0.74462 0.18378 0.0
H985 H 0.44416 0.75247 0.17056 0.0
H986 H 0.4412 0.78521 0.20709 0.0
H987 H 0.46249 0.8095 0.24439 0.0
H988 H 0.54802 0.80207 0.2573 0.0
H989 H 0.55141 0.77123 0.21916 0.0
C990 C 0.5104 0.75368 0.18876 0.0
C991 C 0.48712 0.74604 0.17469 0.0
C992 C 0.50885 0.77238 0.20979 0.0
C993 C 0.46236 0.75803 0.18117 0.0
C994 C 0.46064 0.77666 0.2021 0.0
C995 C 0.48187 0.80121 0.23876 0.0
C996 C 0.50493 0.80778 0.25371 0.0
C997 C 0.48367 0.78363 0.21681 0.0
C998 C 0.52998 0.79719 0.24608 0.0
C999 C 0.53193 0.77955 0.22433 0.0
H1000 H 0.16899 0.51205 0.23637 0.0
H1001 H 0.16702 0.42536 0.23418 0.0
H1002 H 0.19984 0.42521 0.1976 0.0
H1003 H 0.2313 0.44956 0.16867 0.0
H1004 H 0.23439 0.53618 0.17183 0.0
H1005 H 0.19868 0.53654 0.20563 0.0
C1006 C 0.17553 0.49313 0.22769 0.0
C1007 C 0.16577 0.46874 0.23801 0.0
C1008 C 0.19466 0.4932 0.20702 0.0
C1009 C 0.17436 0.44438 0.22659 0.0
C1010 C 0.19314 0.44429 0.20575 0.0
C1011 C 0.224 0.46854 0.17659 0.0
C1012 C 0.23553 0.49281 0.16796 0.0
C1013 C 0.20378 0.46855 0.19618 0.0
C1014 C 0.22585 0.51724 0.17827 0.0
C1015 C 0.20549 0.51745 0.1976 0.0
H1016 H 0.50387 0.7689 0.82898 0.0
H1017 H 0.53048 0.70916 0.77185 0.0
H1018 H 0.5182 0.73871 0.73469 0.0
H1019 H 0.49742 0.78002 0.71844 0.0
H1020 H 0.47035 0.84014 0.77486 0.0
H1021 H 0.48519 0.81182 0.81243 0.0
C1022 C 0.50733 0.76256 0.80839 0.0
C1023 C 0.51796 0.73688 0.80312 0.0
C1024 C 0.49981 0.7795 0.78708 0.0
C1025 C 0.52227 0.72882 0.77639 0.0
C1026 C 0.51515 0.74564 0.75513 0.0
C1027 C 0.49473 0.78695 0.73897 0.0
C1028 C 0.48252 0.81192 0.74396 0.0
C1029 C 0.5034 0.77073 0.76026 0.0
C1030 C 0.47954 0.82084 0.77059 0.0
C1031 C 0.48806 0.80471 0.79203 0.0
H1032 H 0.25124 0.5365 0.81283 0.0
H1033 H 0.28775 0.46251 0.78576 0.0
H1034 H 0.25694 0.46096 0.74755 0.0
H1035 H 0.2207 0.48124 0.72115 0.0
H1036 H 0.18435 0.55551 0.74754 0.0
H1037 H 0.21403 0.55631 0.78683 0.0
C1038 C 0.25234 0.51998 0.79862 0.0
C1039 C 0.27174 0.49969 0.80202 0.0
C1040 C 0.23469 0.51931 0.7766 0.0
C1041 C 0.27299 0.4784 0.78351 0.0
C1042 C 0.25541 0.4775 0.76166 0.0
C1043 C 0.2192 0.49756 0.73555 0.0
C1044 C 0.20047 0.51832 0.73147 0.0
C1045 C 0.23636 0.49795 0.75791 0.0
C1046 C 0.19869 0.53931 0.75028 0.0
C1047 C 0.21564 0.53979 0.77271 0.0
H1048 H 0.49968 0.16047 0.75723 0.0
H1049 H 0.43915 0.20627 0.71492 0.0
H1050 H 0.44307 0.24244 0.74783 0.0
H1051 H 0.46525 0.26197 0.78713 0.0
H1052 H 0.52579 0.21654 0.82973 0.0
H1053 H 0.52028 0.17918 0.79817 0.0
C1054 C 0.4872 0.17828 0.75538 0.0
C1055 C 0.46927 0.18079 0.73364 0.0
C1056 C 0.48968 0.19907 0.77427 0.0
C1057 C 0.45316 0.20391 0.73147 0.0
C1058 C 0.45542 0.22462 0.75022 0.0
C1059 C 0.47718 0.24386 0.78956 0.0
C1060 C 0.49605 0.24204 0.81052 0.0
C1061 C 0.4739 0.22257 0.77144 0.0
C1062 C 0.5112 0.21839 0.81363 0.0
C1063 C 0.50807 0.19707 0.79561 0.0
H1064 H 0.7494 0.52375 0.79684 0.0
H1065 H 0.78653 0.45572 0.83595 0.0
H1066 H 0.8277 0.46282 0.81017 0.0
H1067 H 0.85165 0.48611 0.77403 0.0
H1068 H 0.81448 0.55395 0.73459 0.0
H1069 H 0.77505 0.54963 0.76352 0.0
C1070 C 0.76656 0.51056 0.79975 0.0
C1071 C 0.76488 0.48902 0.81791 0.0
C1072 C 0.79018 0.51486 0.78499 0.0
C1073 C 0.78733 0.47232 0.82188 0.0
C1074 C 0.81087 0.47639 0.80721 0.0
C1075 C 0.83514 0.50027 0.77213 0.0
C1076 C 0.83584 0.52016 0.75209 0.0
C1077 C 0.81235 0.49732 0.7884 0.0
C1078 C 0.81437 0.53843 0.74987 0.0
C1079 C 0.79173 0.53585 0.76625 0.0
loop_
_geom_bond_atom_site_label_1
_geom_bond_atom_site_label_2
_geom_bond_distance
_geom_bond_site_symmetry_2
_ccdc_geom_bond_type
In0 O1 2.294 . S
In0 O2 2.326 . S
In0 O6 2.266 . S
In0 O7 2.326 . S
In0 O8 2.266 . S
In0 O9 2.326 . S
In0 O11 2.294 . S
In0 O12 2.326 . S
O1 In0 2.294 . S
O1 C10 1.240 . S
O2 In0 2.326 . S
O2 C10 1.252 . S
C3 O6 1.252 . S
C3 O7 1.260 . S
C4 O11 1.240 . S
C4 O12 1.252 . S
C5 O8 1.252 . S
C5 O9 1.260 . S
O6 In0 2.266 . S
O6 C3 1.252 . S
O7 In0 2.326 . S
O7 C3 1.260 . S
O8 In0 2.266 . S
O8 C5 1.252 . S
O9 In0 2.326 . S
O9 C5 1.260 . S
C10 O1 1.240 . S
C10 O2 1.252 . S
O11 In0 2.294 . S
O11 C4 1.240 . S
O12 In0 2.326 . S
O12 C4 1.252 . S
In13 O14 2.294 . S
In13 O15 2.326 . S
In13 O19 2.266 . S
In13 O20 2.326 . S
In13 O21 2.266 . S
In13 O22 2.326 . S
In13 O24 2.294 . S
In13 O25 2.326 . S
O14 In13 2.294 . S
O14 C23 1.240 . S
O15 In13 2.326 . S
O15 C23 1.252 . S
C16 O19 1.252 . S
C16 O20 1.260 . S
C17 O24 1.240 . S
C17 O25 1.252 . S
C18 O21 1.252 . S
C18 O22 1.260 . S
O19 In13 2.266 . S
O19 C16 1.252 . S
O20 In13 2.326 . S
O20 C16 1.260 . S
O21 In13 2.266 . S
O21 C18 1.252 . S
O22 In13 2.326 . S
O22 C18 1.260 . S
C23 O14 1.240 . S
C23 O15 1.252 . S
O24 In13 2.294 . S
O24 C17 1.240 . S
O25 In13 2.326 . S
O25 C17 1.252 . S
In26 O27 2.294 . S
In26 O28 2.326 . S
In26 O32 2.266 . S
In26 O33 2.326 . S
In26 O34 2.266 . S
In26 O35 2.326 . S
In26 O37 2.294 . S
In26 O38 2.326 . S
O27 In26 2.294 . S
O27 C36 1.240 . S
O28 In26 2.326 . S
O28 C36 1.252 . S
C29 O32 1.252 . S
C29 O33 1.260 . S
C30 O37 1.240 . S
C30 O38 1.252 . S
C31 O34 1.252 . S
C31 O35 1.260 . S
O32 In26 2.266 . S
O32 C29 1.252 . S
O33 In26 2.326 . S
O33 C29 1.260 . S
O34 In26 2.266 . S
O34 C31 1.252 . S
O35 In26 2.326 . S
O35 C31 1.260 . S
C36 O27 1.240 . S
C36 O28 1.252 . S
O37 In26 2.294 . S
O37 C30 1.240 . S
O38 In26 2.326 . S
O38 C30 1.252 . S
In39 O40 2.294 . S
In39 O41 2.326 . S
In39 O45 2.266 . S
In39 O46 2.326 . S
In39 O47 2.266 . S
In39 O48 2.326 . S
In39 O50 2.294 . S
In39 O51 2.326 . S
O40 In39 2.294 . S
O40 C49 1.240 . S
O41 In39 2.326 . S
O41 C49 1.252 . S
C42 O45 1.252 . S
C42 O46 1.260 . S
C43 O50 1.240 . S
C43 O51 1.252 . S
C44 O47 1.252 . S
C44 O48 1.260 . S
O45 In39 2.266 . S
O45 C42 1.252 . S
O46 In39 2.326 . S
O46 C42 1.260 . S
O47 In39 2.266 . S
O47 C44 1.252 . S
O48 In39 2.326 . S
O48 C44 1.260 . S
C49 O40 1.240 . S
C49 O41 1.252 . S
O50 In39 2.294 . S
O50 C43 1.240 . S
O51 In39 2.326 . S
O51 C43 1.252 . S
In52 O53 2.294 . S
In52 O54 2.326 . S
In52 O58 2.266 . S
In52 O59 2.326 . S
In52 O60 2.266 . S
In52 O61 2.326 . S
In52 O63 2.294 . S
In52 O64 2.326 . S
O53 In52 2.294 . S
O53 C62 1.240 . S
O54 In52 2.326 . S
O54 C62 1.252 . S
C55 O58 1.252 . S
C55 O59 1.260 . S
C56 O63 1.240 . S
C56 O64 1.252 . S
C57 O60 1.252 . S
C57 O61 1.260 . S
O58 In52 2.266 . S
O58 C55 1.252 . S
O59 In52 2.326 . S
O59 C55 1.260 . S
O60 In52 2.266 . S
O60 C57 1.252 . S
O61 In52 2.326 . S
O61 C57 1.260 . S
C62 O53 1.240 . S
C62 O54 1.252 . S
O63 In52 2.294 . S
O63 C56 1.240 . S
O64 In52 2.326 . S
O64 C56 1.252 . S
In65 O66 2.294 . S
In65 O67 2.326 . S
In65 O71 2.266 . S
In65 O72 2.326 . S
In65 O73 2.266 . S
In65 O74 2.326 . S
In65 O76 2.294 . S
In65 O77 2.326 . S
O66 In65 2.294 . S
O66 C75 1.240 . S
O67 In65 2.326 . S
O67 C75 1.252 . S
C68 O71 1.252 . S
C68 O72 1.260 . S
C69 O76 1.240 . S
C69 O77 1.252 . S
C70 O73 1.252 . S
C70 O74 1.260 . S
O71 In65 2.266 . S
O71 C68 1.252 . S
O72 In65 2.326 . S
O72 C68 1.260 . S
O73 In65 2.266 . S
O73 C70 1.252 . S
O74 In65 2.326 . S
O74 C70 1.260 . S
C75 O66 1.240 . S
C75 O67 1.252 . S
O76 In65 2.294 . S
O76 C69 1.240 . S
O77 In65 2.326 . S
O77 C69 1.252 . S
In78 O79 2.294 . S
In78 O80 2.326 . S
In78 O84 2.266 . S
In78 O85 2.326 . S
In78 O86 2.266 . S
In78 O87 2.326 . S
In78 O89 2.294 . S
In78 O90 2.326 . S
O79 In78 2.294 . S
O79 C88 1.240 . S
O80 In78 2.326 . S
O80 C88 1.252 . S
C81 O84 1.252 . S
C81 O85 1.260 . S
C82 O89 1.240 . S
C82 O90 1.252 . S
C83 O86 1.252 . S
C83 O87 1.260 . S
O84 In78 2.266 . S
O84 C81 1.252 . S
O85 In78 2.326 . S
O85 C81 1.260 . S
O86 In78 2.266 . S
O86 C83 1.252 . S
O87 In78 2.326 . S
O87 C83 1.260 . S
C88 O79 1.240 . S
C88 O80 1.252 . S
O89 In78 2.294 . S
O89 C82 1.240 . S
O90 In78 2.326 . S
O90 C82 1.252 . S
In91 O92 2.294 . S
In91 O93 2.326 . S
In91 O97 2.266 . S
In91 O98 2.326 . S
In91 O99 2.266 . S
In91 O100 2.326 . S
In91 O102 2.294 . S
In91 O103 2.326 . S
O92 In91 2.294 . S
O92 C101 1.240 . S
O93 In91 2.326 . S
O93 C101 1.252 . S
C94 O97 1.252 . S
C94 O98 1.260 . S
C95 O102 1.240 . S
C95 O103 1.252 . S
C96 O99 1.252 . S
C96 O100 1.260 . S
O97 In91 2.266 . S
O97 C94 1.252 . S
O98 In91 2.326 . S
O98 C94 1.260 . S
O99 In91 2.266 . S
O99 C96 1.252 . S
O100 In91 2.326 . S
O100 C96 1.260 . S
C101 O92 1.240 . S
C101 O93 1.252 . S
O102 In91 2.294 . S
O102 C95 1.240 . S
O103 In91 2.326 . S
O103 C95 1.252 . S
In104 O105 2.294 . S
In104 O106 2.326 . S
In104 O110 2.266 . S
In104 O111 2.326 . S
In104 O112 2.266 . S
In104 O113 2.326 . S
In104 O115 2.294 . S
In104 O116 2.326 . S
O105 In104 2.294 . S
O105 C114 1.240 . S
O106 In104 2.326 . S
O106 C114 1.252 . S
C107 O110 1.252 . S
C107 O111 1.260 . S
C108 O115 1.240 . S
C108 O116 1.252 . S
C109 O112 1.252 . S
C109 O113 1.260 . S
O110 In104 2.266 . S
O110 C107 1.252 . S
O111 In104 2.326 . S
O111 C107 1.260 . S
O112 In104 2.266 . S
O112 C109 1.252 . S
O113 In104 2.326 . S
O113 C109 1.260 . S
C114 O105 1.240 . S
C114 O106 1.252 . S
O115 In104 2.294 . S
O115 C108 1.240 . S
O116 In104 2.326 . S
O116 C108 1.252 . S
In117 O118 2.294 . S
In117 O119 2.326 . S
In117 O123 2.266 . S
In117 O124 2.326 . S
In117 O125 2.266 . S
In117 O126 2.326 . S
In117 O128 2.294 . S
In117 O129 2.326 . S
O118 In117 2.294 . S
O118 C127 1.240 . S
O119 In117 2.326 . S
O119 C127 1.252 . S
C120 O123 1.252 . S
C120 O124 1.260 . S
C121 O128 1.240 . S
C121 O129 1.252 . S
C122 O125 1.252 . S
C122 O126 1.260 . S
O123 In117 2.266 . S
O123 C120 1.252 . S
O124 In117 2.326 . S
O124 C120 1.260 . S
O125 In117 2.266 . S
O125 C122 1.252 . S
O126 In117 2.326 . S
O126 C122 1.260 . S
C127 O118 1.240 . S
C127 O119 1.252 . S
O128 In117 2.294 . S
O128 C121 1.240 . S
O129 In117 2.326 . S
O129 C121 1.252 . S
In130 O131 2.294 . S
In130 O132 2.326 . S
In130 O136 2.266 . S
In130 O137 2.326 . S
In130 O138 2.266 . S
In130 O139 2.326 . S
In130 O141 2.294 . S
In130 O142 2.326 . S
O131 In130 2.294 . S
O131 C140 1.240 . S
O132 In130 2.326 . S
O132 C140 1.252 . S
C133 O136 1.252 . S
C133 O137 1.260 . S
C134 O141 1.240 . S
C134 O142 1.252 . S
C135 O138 1.252 . S
C135 O139 1.260 . S
O136 In130 2.266 . S
O136 C133 1.252 . S
O137 In130 2.326 . S
O137 C133 1.260 . S
O138 In130 2.266 . S
O138 C135 1.252 . S
O139 In130 2.326 . S
O139 C135 1.260 . S
C140 O131 1.240 . S
C140 O132 1.252 . S
O141 In130 2.294 . S
O141 C134 1.240 . S
O142 In130 2.326 . S
O142 C134 1.252 . S
In143 O144 2.294 . S
In143 O145 2.326 . S
In143 O149 2.266 . S
In143 O150 2.326 . S
In143 O151 2.266 . S
In143 O152 2.326 . S
In143 O154 2.294 . S
In143 O155 2.326 . S
O144 In143 2.294 . S
O144 C153 1.240 . S
O145 In143 2.326 . S
O145 C153 1.252 . S
C146 O149 1.252 . S
C146 O150 1.260 . S
C147 O154 1.240 . S
C147 O155 1.252 . S
C148 O151 1.252 . S
C148 O152 1.260 . S
O149 In143 2.266 . S
O149 C146 1.252 . S
O150 In143 2.326 . S
O150 C146 1.260 . S
O151 In143 2.266 . S
O151 C148 1.252 . S
O152 In143 2.326 . S
O152 C148 1.260 . S
C153 O144 1.240 . S
C153 O145 1.252 . S
O154 In143 2.294 . S
O154 C147 1.240 . S
O155 In143 2.326 . S
O155 C147 1.252 . S
In156 O157 2.294 . S
In156 O158 2.326 . S
In156 O162 2.266 . S
In156 O163 2.326 . S
In156 O164 2.266 . S
In156 O165 2.326 . S
In156 O167 2.294 . S
In156 O168 2.326 . S
O157 In156 2.294 . S
O157 C166 1.240 . S
O158 In156 2.326 . S
O158 C166 1.252 . S
C159 O162 1.252 . S
C159 O163 1.260 . S
C160 O167 1.240 . S
C160 O168 1.252 . S
C161 O164 1.252 . S
C161 O165 1.260 . S
O162 In156 2.266 . S
O162 C159 1.252 . S
O163 In156 2.326 . S
O163 C159 1.260 . S
O164 In156 2.266 . S
O164 C161 1.252 . S
O165 In156 2.326 . S
O165 C161 1.260 . S
C166 O157 1.240 . S
C166 O158 1.252 . S
O167 In156 2.294 . S
O167 C160 1.240 . S
O168 In156 2.326 . S
O168 C160 1.252 . S
In169 O170 2.294 . S
In169 O171 2.326 . S
In169 O175 2.266 . S
In169 O176 2.326 . S
In169 O177 2.266 . S
In169 O178 2.326 . S
In169 O180 2.294 . S
In169 O181 2.326 . S
O170 In169 2.294 . S
O170 C179 1.240 . S
O171 In169 2.326 . S
O171 C179 1.252 . S
C172 O175 1.252 . S
C172 O176 1.260 . S
C173 O180 1.240 . S
C173 O181 1.252 . S
C174 O177 1.252 . S
C174 O178 1.260 . S
O175 In169 2.266 . S
O175 C172 1.252 . S
O176 In169 2.326 . S
O176 C172 1.260 . S
O177 In169 2.266 . S
O177 C174 1.252 . S
O178 In169 2.326 . S
O178 C174 1.260 . S
C179 O170 1.240 . S
C179 O171 1.252 . S
O180 In169 2.294 . S
O180 C173 1.240 . S
O181 In169 2.326 . S
O181 C173 1.252 . S
In182 O183 2.294 . S
In182 O184 2.326 . S
In182 O188 2.266 . S
In182 O189 2.326 . S
In182 O190 2.266 . S
In182 O191 2.326 . S
In182 O193 2.294 . S
In182 O194 2.326 . S
O183 In182 2.294 . S
O183 C192 1.240 . S
O184 In182 2.326 . S
O184 C192 1.252 . S
C185 O188 1.252 . S
C185 O189 1.260 . S
C186 O193 1.240 . S
C186 O194 1.252 . S
C187 O190 1.252 . S
C187 O191 1.260 . S
O188 In182 2.266 . S
O188 C185 1.252 . S
O189 In182 2.326 . S
O189 C185 1.260 . S
O190 In182 2.266 . S
O190 C187 1.252 . S
O191 In182 2.326 . S
O191 C187 1.260 . S
C192 O183 1.240 . S
C192 O184 1.252 . S
O193 In182 2.294 . S
O193 C186 1.240 . S
O194 In182 2.326 . S
O194 C186 1.252 . S
In195 O196 2.294 . S
In195 O197 2.326 . S
In195 O201 2.266 . S
In195 O202 2.326 . S
In195 O203 2.266 . S
In195 O204 2.326 . S
In195 O206 2.294 . S
In195 O207 2.326 . S
O196 In195 2.294 . S
O196 C205 1.240 . S
O197 In195 2.326 . S
O197 C205 1.252 . S
C198 O201 1.252 . S
C198 O202 1.260 . S
C199 O206 1.240 . S
C199 O207 1.252 . S
C200 O203 1.252 . S
C200 O204 1.260 . S
O201 In195 2.266 . S
O201 C198 1.252 . S
O202 In195 2.326 . S
O202 C198 1.260 . S
O203 In195 2.266 . S
O203 C200 1.252 . S
O204 In195 2.326 . S
O204 C200 1.260 . S
C205 O196 1.240 . S
C205 O197 1.252 . S
O206 In195 2.294 . S
O206 C199 1.240 . S
O207 In195 2.326 . S
O207 C199 1.252 . S
In208 O209 2.294 . S
In208 O210 2.326 . S
In208 O214 2.266 . S
In208 O215 2.326 . S
In208 O216 2.266 . S
In208 O217 2.326 . S
In208 O219 2.294 . S
In208 O220 2.326 . S
O209 In208 2.294 . S
O209 C218 1.240 . S
O210 In208 2.326 . S
O210 C218 1.252 . S
C211 O214 1.252 . S
C211 O215 1.260 . S
C212 O219 1.240 . S
C212 O220 1.252 . S
C213 O216 1.252 . S
C213 O217 1.260 . S
O214 In208 2.266 . S
O214 C211 1.252 . S
O215 In208 2.326 . S
O215 C211 1.260 . S
O216 In208 2.266 . S
O216 C213 1.252 . S
O217 In208 2.326 . S
O217 C213 1.260 . S
C218 O209 1.240 . S
C218 O210 1.252 . S
O219 In208 2.294 . S
O219 C212 1.240 . S
O220 In208 2.326 . S
O220 C212 1.252 . S
In221 O222 2.294 . S
In221 O223 2.326 . S
In221 O227 2.266 . S
In221 O228 2.326 . S
In221 O229 2.266 . S
In221 O230 2.326 . S
In221 O232 2.294 . S
In221 O233 2.326 . S
O222 In221 2.294 . S
O222 C231 1.240 . S
O223 In221 2.326 . S
O223 C231 1.252 . S
C224 O227 1.252 . S
C224 O228 1.260 . S
C225 O232 1.240 . S
C225 O233 1.252 . S
C226 O229 1.252 . S
C226 O230 1.260 . S
O227 In221 2.266 . S
O227 C224 1.252 . S
O228 In221 2.326 . S
O228 C224 1.260 . S
O229 In221 2.266 . S
O229 C226 1.252 . S
O230 In221 2.326 . S
O230 C226 1.260 . S
C231 O222 1.240 . S
C231 O223 1.252 . S
O232 In221 2.294 . S
O232 C225 1.240 . S
O233 In221 2.326 . S
O233 C225 1.252 . S
In234 O235 2.294 . S
In234 O236 2.326 . S
In234 O240 2.266 . S
In234 O241 2.326 . S
In234 O242 2.266 . S
In234 O243 2.326 . S
In234 O245 2.294 . S
In234 O246 2.326 . S
O235 In234 2.294 . S
O235 C244 1.240 . S
O236 In234 2.326 . S
O236 C244 1.252 . S
C237 O240 1.252 . S
C237 O241 1.260 . S
C238 O245 1.240 . S
C238 O246 1.252 . S
C239 O242 1.252 . S
C239 O243 1.260 . S
O240 In234 2.266 . S
O240 C237 1.252 . S
O241 In234 2.326 . S
O241 C237 1.260 . S
O242 In234 2.266 . S
O242 C239 1.252 . S
O243 In234 2.326 . S
O243 C239 1.260 . S
C244 O235 1.240 . S
C244 O236 1.252 . S
O245 In234 2.294 . S
O245 C238 1.240 . S
O246 In234 2.326 . S
O246 C238 1.252 . S
In247 O248 2.294 . S
In247 O249 2.326 . S
In247 O253 2.266 . S
In247 O254 2.326 . S
In247 O255 2.266 . S
In247 O256 2.326 . S
In247 O258 2.294 . S
In247 O259 2.326 . S
O248 In247 2.294 . S
O248 C257 1.240 . S
O249 In247 2.326 . S
O249 C257 1.252 . S
C250 O253 1.252 . S
C250 O254 1.260 . S
C251 O258 1.240 . S
C251 O259 1.252 . S
C252 O255 1.252 . S
C252 O256 1.260 . S
O253 In247 2.266 . S
O253 C250 1.252 . S
O254 In247 2.326 . S
O254 C250 1.260 . S
O255 In247 2.266 . S
O255 C252 1.252 . S
O256 In247 2.326 . S
O256 C252 1.260 . S
C257 O248 1.240 . S
C257 O249 1.252 . S
O258 In247 2.294 . S
O258 C251 1.240 . S
O259 In247 2.326 . S
O259 C251 1.252 . S
In260 O261 2.294 . S
In260 O262 2.326 . S
In260 O266 2.266 . S
In260 O267 2.326 . S
In260 O268 2.266 . S
In260 O269 2.326 . S
In260 O271 2.294 . S
In260 O272 2.326 . S
O261 In260 2.294 . S
O261 C270 1.240 . S
O262 In260 2.326 . S
O262 C270 1.252 . S
C263 O266 1.252 . S
C263 O267 1.260 . S
C264 O271 1.240 . S
C264 O272 1.252 . S
C265 O268 1.252 . S
C265 O269 1.260 . S
O266 In260 2.266 . S
O266 C263 1.252 . S
O267 In260 2.326 . S
O267 C263 1.260 . S
O268 In260 2.266 . S
O268 C265 1.252 . S
O269 In260 2.326 . S
O269 C265 1.260 . S
C270 O261 1.240 . S
C270 O262 1.252 . S
O271 In260 2.294 . S
O271 C264 1.240 . S
O272 In260 2.326 . S
O272 C264 1.252 . S
In273 O274 2.294 . S
In273 O275 2.326 . S
In273 O279 2.266 . S
In273 O280 2.326 . S
In273 O281 2.266 . S
In273 O282 2.326 . S
In273 O284 2.294 . S
In273 O285 2.326 . S
O274 In273 2.294 . S
O274 C283 1.240 . S
O275 In273 2.326 . S
O275 C283 1.252 . S
C276 O279 1.252 . S
C276 O280 1.260 . S
C277 O284 1.240 . S
C277 O285 1.252 . S
C278 O281 1.252 . S
C278 O282 1.260 . S
O279 In273 2.266 . S
O279 C276 1.252 . S
O280 In273 2.326 . S
O280 C276 1.260 . S
O281 In273 2.266 . S
O281 C278 1.252 . S
O282 In273 2.326 . S
O282 C278 1.260 . S
C283 O274 1.240 . S
C283 O275 1.252 . S
O284 In273 2.294 . S
O284 C277 1.240 . S
O285 In273 2.326 . S
O285 C277 1.252 . S
In286 O287 2.294 . S
In286 O288 2.326 . S
In286 O292 2.266 . S
In286 O293 2.326 . S
In286 O294 2.266 . S
In286 O295 2.326 . S
In286 O297 2.294 . S
In286 O298 2.326 . S
O287 In286 2.294 . S
O287 C296 1.240 . S
O288 In286 2.326 . S
O288 C296 1.252 . S
C289 O292 1.252 . S
C289 O293 1.260 . S
C290 O297 1.240 . S
C290 O298 1.252 . S
C291 O294 1.252 . S
C291 O295 1.260 . S
O292 In286 2.266 . S
O292 C289 1.252 . S
O293 In286 2.326 . S
O293 C289 1.260 . S
O294 In286 2.266 . S
O294 C291 1.252 . S
O295 In286 2.326 . S
O295 C291 1.260 . S
C296 O287 1.240 . S
C296 O288 1.252 . S
O297 In286 2.294 . S
O297 C290 1.240 . S
O298 In286 2.326 . S
O298 C290 1.252 . S
In299 O300 2.294 . S
In299 O301 2.326 . S
In299 O305 2.266 . S
In299 O306 2.326 . S
In299 O307 2.266 . S
In299 O308 2.326 . S
In299 O310 2.294 . S
In299 O311 2.326 . S
O300 In299 2.294 . S
O300 C309 1.240 . S
O301 In299 2.326 . S
O301 C309 1.252 . S
C302 O305 1.252 . S
C302 O306 1.260 . S
C303 O310 1.240 . S
C303 O311 1.252 . S
C304 O307 1.252 . S
C304 O308 1.260 . S
O305 In299 2.266 . S
O305 C302 1.252 . S
O306 In299 2.326 . S
O306 C302 1.260 . S
O307 In299 2.266 . S
O307 C304 1.252 . S
O308 In299 2.326 . S
O308 C304 1.260 . S
C309 O300 1.240 . S
C309 O301 1.252 . S
O310 In299 2.294 . S
O310 C303 1.240 . S
O311 In299 2.326 . S
O311 C303 1.252 . S
H312 C318 0.930 . S
H313 C321 0.930 . S
H314 C322 0.930 . S
H315 C323 0.930 . S
H316 C326 0.930 . S
H317 C327 0.930 . S
C318 H312 0.930 . S
C318 C319 1.355 . S
C318 C320 1.415 . S
C319 C318 1.355 . S
C319 C321 1.419 . S
C320 C318 1.415 . S
C320 C325 1.425 . S
C320 C327 1.409 . S
C321 H313 0.930 . S
C321 C319 1.419 . S
C321 C322 1.362 . S
C322 H314 0.930 . S
C322 C321 1.362 . S
C322 C325 1.409 . S
C323 H315 0.930 . S
C323 C324 1.355 . S
C323 C325 1.415 . S
C324 C323 1.355 . S
C324 C326 1.419 . S
C325 C320 1.425 . S
C325 C322 1.409 . S
C325 C323 1.415 . S
C326 H316 0.930 . S
C326 C324 1.419 . S
C326 C327 1.362 . S
C327 H317 0.930 . S
C327 C320 1.409 . S
C327 C326 1.362 . S
H328 C334 0.930 . S
H329 C337 0.930 . S
H330 C338 0.930 . S
H331 C339 0.930 . S
H332 C342 0.930 . S
H333 C343 0.930 . S
C334 H328 0.930 . S
C334 C335 1.355 . S
C334 C336 1.415 . S
C335 C334 1.355 . S
C335 C337 1.419 . S
C336 C334 1.415 . S
C336 C341 1.425 . S
C336 C343 1.409 . S
C337 H329 0.930 . S
C337 C335 1.419 . S
C337 C338 1.362 . S
C338 H330 0.930 . S
C338 C337 1.362 . S
C338 C341 1.409 . S
C339 H331 0.930 . S
C339 C340 1.355 . S
C339 C341 1.415 . S
C340 C339 1.355 . S
C340 C342 1.419 . S
C341 C336 1.425 . S
C341 C338 1.409 . S
C341 C339 1.415 . S
C342 H332 0.930 . S
C342 C340 1.419 . S
C342 C343 1.362 . S
C343 H333 0.930 . S
C343 C336 1.409 . S
C343 C342 1.362 . S
H344 C350 0.930 . S
H345 C353 0.930 . S
H346 C354 0.930 . S
H347 C355 0.930 . S
H348 C358 0.930 . S
H349 C359 0.930 . S
C350 H344 0.930 . S
C350 C351 1.355 . S
C350 C352 1.415 . S
C351 C350 1.355 . S
C351 C353 1.419 . S
C352 C350 1.415 . S
C352 C357 1.425 . S
C352 C359 1.409 . S
C353 H345 0.930 . S
C353 C351 1.419 . S
C353 C354 1.362 . S
C354 H346 0.930 . S
C354 C353 1.362 . S
C354 C357 1.409 . S
C355 H347 0.930 . S
C355 C356 1.355 . S
C355 C357 1.415 . S
C356 C355 1.355 . S
C356 C358 1.419 . S
C357 C352 1.425 . S
C357 C354 1.409 . S
C357 C355 1.415 . S
C358 H348 0.930 . S
C358 C356 1.419 . S
C358 C359 1.362 . S
C359 H349 0.930 . S
C359 C352 1.409 . S
C359 C358 1.362 . S
H360 C366 0.930 . S
H361 C369 0.930 . S
H362 C370 0.930 . S
H363 C371 0.930 . S
H364 C374 0.930 . S
H365 C375 0.930 . S
C366 H360 0.930 . S
C366 C367 1.355 . S
C366 C368 1.415 . S
C367 C366 1.355 . S
C367 C369 1.419 . S
C368 C366 1.415 . S
C368 C373 1.425 . S
C368 C375 1.409 . S
C369 H361 0.930 . S
C369 C367 1.419 . S
C369 C370 1.362 . S
C370 H362 0.930 . S
C370 C369 1.362 . S
C370 C373 1.409 . S
C371 H363 0.930 . S
C371 C372 1.355 . S
C371 C373 1.415 . S
C372 C371 1.355 . S
C372 C374 1.419 . S
C373 C368 1.425 . S
C373 C370 1.409 . S
C373 C371 1.415 . S
C374 H364 0.930 . S
C374 C372 1.419 . S
C374 C375 1.362 . S
C375 H365 0.930 . S
C375 C368 1.409 . S
C375 C374 1.362 . S
H376 C382 0.930 . S
H377 C385 0.930 . S
H378 C386 0.930 . S
H379 C387 0.930 . S
H380 C390 0.930 . S
H381 C391 0.930 . S
C382 H376 0.930 . S
C382 C383 1.355 . S
C382 C384 1.415 . S
C383 C382 1.355 . S
C383 C385 1.419 . S
C384 C382 1.415 . S
C384 C389 1.425 . S
C384 C391 1.409 . S
C385 H377 0.930 . S
C385 C383 1.419 . S
C385 C386 1.362 . S
C386 H378 0.930 . S
C386 C385 1.362 . S
C386 C389 1.409 . S
C387 H379 0.930 . S
C387 C388 1.355 . S
C387 C389 1.415 . S
C388 C387 1.355 . S
C388 C390 1.419 . S
C389 C384 1.425 . S
C389 C386 1.409 . S
C389 C387 1.415 . S
C390 H380 0.930 . S
C390 C388 1.419 . S
C390 C391 1.362 . S
C391 H381 0.930 . S
C391 C384 1.409 . S
C391 C390 1.362 . S
H392 C398 0.930 . S
H393 C401 0.930 . S
H394 C402 0.930 . S
H395 C403 0.930 . S
H396 C406 0.930 . S
H397 C407 0.930 . S
C398 H392 0.930 . S
C398 C399 1.355 . S
C398 C400 1.415 . S
C399 C398 1.355 . S
C399 C401 1.419 . S
C400 C398 1.415 . S
C400 C405 1.425 . S
C400 C407 1.409 . S
C401 H393 0.930 . S
C401 C399 1.419 . S
C401 C402 1.362 . S
C402 H394 0.930 . S
C402 C401 1.362 . S
C402 C405 1.409 . S
C403 H395 0.930 . S
C403 C404 1.355 . S
C403 C405 1.415 . S
C404 C403 1.355 . S
C404 C406 1.419 . S
C405 C400 1.425 . S
C405 C402 1.409 . S
C405 C403 1.415 . S
C406 H396 0.930 . S
C406 C404 1.419 . S
C406 C407 1.362 . S
C407 H397 0.930 . S
C407 C400 1.409 . S
C407 C406 1.362 . S
H408 C414 0.930 . S
H409 C417 0.930 . S
H410 C418 0.930 . S
H411 C419 0.930 . S
H412 C422 0.930 . S
H413 C423 0.930 . S
C414 H408 0.930 . S
C414 C415 1.355 . S
C414 C416 1.415 . S
C415 C414 1.355 . S
C415 C417 1.419 . S
C416 C414 1.415 . S
C416 C421 1.425 . S
C416 C423 1.409 . S
C417 H409 0.930 . S
C417 C415 1.419 . S
C417 C418 1.362 . S
C418 H410 0.930 . S
C418 C417 1.362 . S
C418 C421 1.409 . S
C419 H411 0.930 . S
C419 C420 1.355 . S
C419 C421 1.415 . S
C420 C419 1.355 . S
C420 C422 1.419 . S
C421 C416 1.425 . S
C421 C418 1.409 . S
C421 C419 1.415 . S
C422 H412 0.930 . S
C422 C420 1.419 . S
C422 C423 1.362 . S
C423 H413 0.930 . S
C423 C416 1.409 . S
C423 C422 1.362 . S
H424 C430 0.930 . S
H425 C433 0.930 . S
H426 C434 0.930 . S
H427 C435 0.930 . S
H428 C438 0.930 . S
H429 C439 0.930 . S
C430 H424 0.930 . S
C430 C431 1.355 . S
C430 C432 1.415 . S
C431 C430 1.355 . S
C431 C433 1.419 . S
C432 C430 1.415 . S
C432 C437 1.425 . S
C432 C439 1.409 . S
C433 H425 0.930 . S
C433 C431 1.419 . S
C433 C434 1.362 . S
C434 H426 0.930 . S
C434 C433 1.362 . S
C434 C437 1.409 . S
C435 H427 0.930 . S
C435 C436 1.355 . S
C435 C437 1.415 . S
C436 C435 1.355 . S
C436 C438 1.419 . S
C437 C432 1.425 . S
C437 C434 1.409 . S
C437 C435 1.415 . S
C438 H428 0.930 . S
C438 C436 1.419 . S
C438 C439 1.362 . S
C439 H429 0.930 . S
C439 C432 1.409 . S
C439 C438 1.362 . S
H440 C446 0.930 . S
H441 C449 0.930 . S
H442 C450 0.930 . S
H443 C451 0.930 . S
H444 C454 0.930 . S
H445 C455 0.930 . S
C446 H440 0.930 . S
C446 C447 1.355 . S
C446 C448 1.415 . S
C447 C446 1.355 . S
C447 C449 1.419 . S
C448 C446 1.415 . S
C448 C453 1.425 . S
C448 C455 1.409 . S
C449 H441 0.930 . S
C449 C447 1.419 . S
C449 C450 1.362 . S
C450 H442 0.930 . S
C450 C449 1.362 . S
C450 C453 1.409 . S
C451 H443 0.930 . S
C451 C452 1.355 . S
C451 C453 1.415 . S
C452 C451 1.355 . S
C452 C454 1.419 . S
C453 C448 1.425 . S
C453 C450 1.409 . S
C453 C451 1.415 . S
C454 H444 0.930 . S
C454 C452 1.419 . S
C454 C455 1.362 . S
C455 H445 0.930 . S
C455 C448 1.409 . S
C455 C454 1.362 . S
H456 C462 0.930 . S
H457 C465 0.930 . S
H458 C466 0.930 . S
H459 C467 0.930 . S
H460 C470 0.930 . S
H461 C471 0.930 . S
C462 H456 0.930 . S
C462 C463 1.355 . S
C462 C464 1.415 . S
C463 C462 1.355 . S
C463 C465 1.419 . S
C464 C462 1.415 . S
C464 C469 1.425 . S
C464 C471 1.409 . S
C465 H457 0.930 . S
C465 C463 1.419 . S
C465 C466 1.362 . S
C466 H458 0.930 . S
C466 C465 1.362 . S
C466 C469 1.409 . S
C467 H459 0.930 . S
C467 C468 1.355 . S
C467 C469 1.415 . S
C468 C467 1.355 . S
C468 C470 1.419 . S
C469 C464 1.425 . S
C469 C466 1.409 . S
C469 C467 1.415 . S
C470 H460 0.930 . S
C470 C468 1.419 . S
C470 C471 1.362 . S
C471 H461 0.930 . S
C471 C464 1.409 . S
C471 C470 1.362 . S
H472 C478 0.930 . S
H473 C481 0.930 . S
H474 C482 0.930 . S
H475 C483 0.930 . S
H476 C486 0.930 . S
H477 C487 0.930 . S
C478 H472 0.930 . S
C478 C479 1.355 . S
C478 C480 1.415 . S
C479 C478 1.355 . S
C479 C481 1.419 . S
C480 C478 1.415 . S
C480 C485 1.425 . S
C480 C487 1.409 . S
C481 H473 0.930 . S
C481 C479 1.419 . S
C481 C482 1.362 . S
C482 H474 0.930 . S
C482 C481 1.362 . S
C482 C485 1.409 . S
C483 H475 0.930 . S
C483 C484 1.355 . S
C483 C485 1.415 . S
C484 C483 1.355 . S
C484 C486 1.419 . S
C485 C480 1.425 . S
C485 C482 1.409 . S
C485 C483 1.415 . S
C486 H476 0.930 . S
C486 C484 1.419 . S
C486 C487 1.362 . S
C487 H477 0.930 . S
C487 C480 1.409 . S
C487 C486 1.362 . S
H488 C494 0.930 . S
H489 C497 0.930 . S
H490 C498 0.930 . S
H491 C499 0.930 . S
H492 C502 0.930 . S
H493 C503 0.930 . S
C494 H488 0.930 . S
C494 C495 1.355 . S
C494 C496 1.415 . S
C495 C494 1.355 . S
C495 C497 1.419 . S
C496 C494 1.415 . S
C496 C501 1.425 . S
C496 C503 1.409 . S
C497 H489 0.930 . S
C497 C495 1.419 . S
C497 C498 1.362 . S
C498 H490 0.930 . S
C498 C497 1.362 . S
C498 C501 1.409 . S
C499 H491 0.930 . S
C499 C500 1.355 . S
C499 C501 1.415 . S
C500 C499 1.355 . S
C500 C502 1.419 . S
C501 C496 1.425 . S
C501 C498 1.409 . S
C501 C499 1.415 . S
C502 H492 0.930 . S
C502 C500 1.419 . S
C502 C503 1.362 . S
C503 H493 0.930 . S
C503 C496 1.409 . S
C503 C502 1.362 . S
H504 C510 0.930 . S
H505 C513 0.930 . S
H506 C514 0.930 . S
H507 C515 0.930 . S
H508 C518 0.930 . S
H509 C519 0.930 . S
C510 H504 0.930 . S
C510 C511 1.355 . S
C510 C512 1.415 . S
C511 C510 1.355 . S
C511 C513 1.419 . S
C512 C510 1.415 . S
C512 C517 1.425 . S
C512 C519 1.409 . S
C513 H505 0.930 . S
C513 C511 1.419 . S
C513 C514 1.362 . S
C514 H506 0.930 . S
C514 C513 1.362 . S
C514 C517 1.409 . S
C515 H507 0.930 . S
C515 C516 1.355 . S
C515 C517 1.415 . S
C516 C515 1.355 . S
C516 C518 1.419 . S
C517 C512 1.425 . S
C517 C514 1.409 . S
C517 C515 1.415 . S
C518 H508 0.930 . S
C518 C516 1.419 . S
C518 C519 1.362 . S
C519 H509 0.930 . S
C519 C512 1.409 . S
C519 C518 1.362 . S
H520 C526 0.930 . S
H521 C529 0.930 . S
H522 C530 0.930 . S
H523 C531 0.930 . S
H524 C534 0.930 . S
H525 C535 0.930 . S
C526 H520 0.930 . S
C526 C527 1.355 . S
C526 C528 1.415 . S
C527 C526 1.355 . S
C527 C529 1.419 . S
C528 C526 1.415 . S
C528 C533 1.425 . S
C528 C535 1.409 . S
C529 H521 0.930 . S
C529 C527 1.419 . S
C529 C530 1.362 . S
C530 H522 0.930 . S
C530 C529 1.362 . S
C530 C533 1.409 . S
C531 H523 0.930 . S
C531 C532 1.355 . S
C531 C533 1.415 . S
C532 C531 1.355 . S
C532 C534 1.419 . S
C533 C528 1.425 . S
C533 C530 1.409 . S
C533 C531 1.415 . S
C534 H524 0.930 . S
C534 C532 1.419 . S
C534 C535 1.362 . S
C535 H525 0.930 . S
C535 C528 1.409 . S
C535 C534 1.362 . S
H536 C542 0.930 . S
H537 C545 0.930 . S
H538 C546 0.930 . S
H539 C547 0.930 . S
H540 C550 0.930 . S
H541 C551 0.930 . S
C542 H536 0.930 . S
C542 C543 1.355 . S
C542 C544 1.415 . S
C543 C542 1.355 . S
C543 C545 1.419 . S
C544 C542 1.415 . S
C544 C549 1.425 . S
C544 C551 1.409 . S
C545 H537 0.930 . S
C545 C543 1.419 . S
C545 C546 1.362 . S
C546 H538 0.930 . S
C546 C545 1.362 . S
C546 C549 1.409 . S
C547 H539 0.930 . S
C547 C548 1.355 . S
C547 C549 1.415 . S
C548 C547 1.355 . S
C548 C550 1.419 . S
C549 C544 1.425 . S
C549 C546 1.409 . S
C549 C547 1.415 . S
C550 H540 0.930 . S
C550 C548 1.419 . S
C550 C551 1.362 . S
C551 H541 0.930 . S
C551 C544 1.409 . S
C551 C550 1.362 . S
H552 C558 0.930 . S
H553 C561 0.930 . S
H554 C562 0.930 . S
H555 C563 0.930 . S
H556 C566 0.930 . S
H557 C567 0.930 . S
C558 H552 0.930 . S
C558 C559 1.355 . S
C558 C560 1.415 . S
C559 C558 1.355 . S
C559 C561 1.419 . S
C560 C558 1.415 . S
C560 C565 1.425 . S
C560 C567 1.409 . S
C561 H553 0.930 . S
C561 C559 1.419 . S
C561 C562 1.362 . S
C562 H554 0.930 . S
C562 C561 1.362 . S
C562 C565 1.409 . S
C563 H555 0.930 . S
C563 C564 1.355 . S
C563 C565 1.415 . S
C564 C563 1.355 . S
C564 C566 1.419 . S
C565 C560 1.425 . S
C565 C562 1.409 . S
C565 C563 1.415 . S
C566 H556 0.930 . S
C566 C564 1.419 . S
C566 C567 1.362 . S
C567 H557 0.930 . S
C567 C560 1.409 . S
C567 C566 1.362 . S
H568 C574 0.930 . S
H569 C577 0.930 . S
H570 C578 0.930 . S
H571 C579 0.930 . S
H572 C582 0.930 . S
H573 C583 0.930 . S
C574 H568 0.930 . S
C574 C575 1.355 . S
C574 C576 1.415 . S
C575 C574 1.355 . S
C575 C577 1.419 . S
C576 C574 1.415 . S
C576 C581 1.425 . S
C576 C583 1.409 . S
C577 H569 0.930 . S
C577 C575 1.419 . S
C577 C578 1.362 . S
C578 H570 0.930 . S
C578 C577 1.362 . S
C578 C581 1.409 . S
C579 H571 0.930 . S
C579 C580 1.355 . S
C579 C581 1.415 . S
C580 C579 1.355 . S
C580 C582 1.419 . S
C581 C576 1.425 . S
C581 C578 1.409 . S
C581 C579 1.415 . S
C582 H572 0.930 . S
C582 C580 1.419 . S
C582 C583 1.362 . S
C583 H573 0.930 . S
C583 C576 1.409 . S
C583 C582 1.362 . S
H584 C590 0.930 . S
H585 C593 0.930 . S
H586 C594 0.930 . S
H587 C595 0.930 . S
H588 C598 0.930 . S
H589 C599 0.930 . S
C590 H584 0.930 . S
C590 C591 1.355 . S
C590 C592 1.415 . S
C591 C590 1.355 . S
C591 C593 1.419 . S
C592 C590 1.415 . S
C592 C597 1.425 . S
C592 C599 1.409 . S
C593 H585 0.930 . S
C593 C591 1.419 . S
C593 C594 1.362 . S
C594 H586 0.930 . S
C594 C593 1.362 . S
C594 C597 1.409 . S
C595 H587 0.930 . S
C595 C596 1.355 . S
C595 C597 1.415 . S
C596 C595 1.355 . S
C596 C598 1.419 . S
C597 C592 1.425 . S
C597 C594 1.409 . S
C597 C595 1.415 . S
C598 H588 0.930 . S
C598 C596 1.419 . S
C598 C599 1.362 . S
C599 H589 0.930 . S
C599 C592 1.409 . S
C599 C598 1.362 . S
H600 C606 0.930 . S
H601 C609 0.930 . S
H602 C610 0.930 . S
H603 C611 0.930 . S
H604 C614 0.930 . S
H605 C615 0.930 . S
C606 H600 0.930 . S
C606 C607 1.355 . S
C606 C608 1.415 . S
C607 C606 1.355 . S
C607 C609 1.419 . S
C608 C606 1.415 . S
C608 C613 1.425 . S
C608 C615 1.409 . S
C609 H601 0.930 . S
C609 C607 1.419 . S
C609 C610 1.362 . S
C610 H602 0.930 . S
C610 C609 1.362 . S
C610 C613 1.409 . S
C611 H603 0.930 . S
C611 C612 1.355 . S
C611 C613 1.415 . S
C612 C611 1.355 . S
C612 C614 1.419 . S
C613 C608 1.425 . S
C613 C610 1.409 . S
C613 C611 1.415 . S
C614 H604 0.930 . S
C614 C612 1.419 . S
C614 C615 1.362 . S
C615 H605 0.930 . S
C615 C608 1.409 . S
C615 C614 1.362 . S
H616 C622 0.930 . S
H617 C625 0.930 . S
H618 C626 0.930 . S
H619 C627 0.930 . S
H620 C630 0.930 . S
H621 C631 0.930 . S
C622 H616 0.930 . S
C622 C623 1.355 . S
C622 C624 1.415 . S
C623 C622 1.355 . S
C623 C625 1.419 . S
C624 C622 1.415 . S
C624 C629 1.425 . S
C624 C631 1.409 . S
C625 H617 0.930 . S
C625 C623 1.419 . S
C625 C626 1.362 . S
C626 H618 0.930 . S
C626 C625 1.362 . S
C626 C629 1.409 . S
C627 H619 0.930 . S
C627 C628 1.355 . S
C627 C629 1.415 . S
C628 C627 1.355 . S
C628 C630 1.419 . S
C629 C624 1.425 . S
C629 C626 1.409 . S
C629 C627 1.415 . S
C630 H620 0.930 . S
C630 C628 1.419 . S
C630 C631 1.362 . S
C631 H621 0.930 . S
C631 C624 1.409 . S
C631 C630 1.362 . S
H632 C638 0.930 . S
H633 C641 0.930 . S
H634 C642 0.930 . S
H635 C643 0.930 . S
H636 C646 0.930 . S
H637 C647 0.930 . S
C638 H632 0.930 . S
C638 C639 1.355 . S
C638 C640 1.415 . S
C639 C638 1.355 . S
C639 C641 1.419 . S
C640 C638 1.415 . S
C640 C645 1.425 . S
C640 C647 1.409 . S
C641 H633 0.930 . S
C641 C639 1.419 . S
C641 C642 1.362 . S
C642 H634 0.930 . S
C642 C641 1.362 . S
C642 C645 1.409 . S
C643 H635 0.930 . S
C643 C644 1.355 . S
C643 C645 1.415 . S
C644 C643 1.355 . S
C644 C646 1.419 . S
C645 C640 1.425 . S
C645 C642 1.409 . S
C645 C643 1.415 . S
C646 H636 0.930 . S
C646 C644 1.419 . S
C646 C647 1.362 . S
C647 H637 0.930 . S
C647 C640 1.409 . S
C647 C646 1.362 . S
H648 C654 0.930 . S
H649 C657 0.930 . S
H650 C658 0.930 . S
H651 C659 0.930 . S
H652 C662 0.930 . S
H653 C663 0.930 . S
C654 H648 0.930 . S
C654 C655 1.355 . S
C654 C656 1.415 . S
C655 C654 1.355 . S
C655 C657 1.419 . S
C656 C654 1.415 . S
C656 C661 1.425 . S
C656 C663 1.409 . S
C657 H649 0.930 . S
C657 C655 1.419 . S
C657 C658 1.362 . S
C658 H650 0.930 . S
C658 C657 1.362 . S
C658 C661 1.409 . S
C659 H651 0.930 . S
C659 C660 1.355 . S
C659 C661 1.415 . S
C660 C659 1.355 . S
C660 C662 1.419 . S
C661 C656 1.425 . S
C661 C658 1.409 . S
C661 C659 1.415 . S
C662 H652 0.930 . S
C662 C660 1.419 . S
C662 C663 1.362 . S
C663 H653 0.930 . S
C663 C656 1.409 . S
C663 C662 1.362 . S
H664 C670 0.930 . S
H665 C673 0.930 . S
H666 C674 0.930 . S
H667 C675 0.930 . S
H668 C678 0.930 . S
H669 C679 0.930 . S
C670 H664 0.930 . S
C670 C671 1.355 . S
C670 C672 1.415 . S
C671 C670 1.355 . S
C671 C673 1.419 . S
C672 C670 1.415 . S
C672 C677 1.425 . S
C672 C679 1.409 . S
C673 H665 0.930 . S
C673 C671 1.419 . S
C673 C674 1.362 . S
C674 H666 0.930 . S
C674 C673 1.362 . S
C674 C677 1.409 . S
C675 H667 0.930 . S
C675 C676 1.355 . S
C675 C677 1.415 . S
C676 C675 1.355 . S
C676 C678 1.419 . S
C677 C672 1.425 . S
C677 C674 1.409 . S
C677 C675 1.415 . S
C678 H668 0.930 . S
C678 C676 1.419 . S
C678 C679 1.362 . S
C679 H669 0.930 . S
C679 C672 1.409 . S
C679 C678 1.362 . S
H680 C686 0.930 . S
H681 C689 0.930 . S
H682 C690 0.930 . S
H683 C691 0.930 . S
H684 C694 0.930 . S
H685 C695 0.930 . S
C686 H680 0.930 . S
C686 C687 1.355 . S
C686 C688 1.415 . S
C687 C686 1.355 . S
C687 C689 1.419 . S
C688 C686 1.415 . S
C688 C693 1.425 . S
C688 C695 1.409 . S
C689 H681 0.930 . S
C689 C687 1.419 . S
C689 C690 1.362 . S
C690 H682 0.930 . S
C690 C689 1.362 . S
C690 C693 1.409 . S
C691 H683 0.930 . S
C691 C692 1.355 . S
C691 C693 1.415 . S
C692 C691 1.355 . S
C692 C694 1.419 . S
C693 C688 1.425 . S
C693 C690 1.409 . S
C693 C691 1.415 . S
C694 H684 0.930 . S
C694 C692 1.419 . S
C694 C695 1.362 . S
C695 H685 0.930 . S
C695 C688 1.409 . S
C695 C694 1.362 . S
H696 C702 0.930 . S
H697 C705 0.930 . S
H698 C706 0.937 . S
H699 C707 0.930 . S
H700 C710 0.930 . S
H701 C711 0.937 . S
C702 H696 0.930 . S
C702 C703 1.355 . S
C702 C704 1.415 . S
C703 C702 1.355 . S
C703 C705 1.419 . S
C704 C702 1.415 . S
C704 C709 1.425 1_455 S
C704 C711 1.409 1_455 S
C705 H697 0.930 . S
C705 C703 1.419 . S
C705 C706 1.362 . S
C706 H698 0.937 . S
C706 C705 1.362 . S
C706 C709 1.409 1_455 S
C707 H699 0.930 . S
C707 C708 1.355 . S
C707 C709 1.415 . S
C708 C707 1.355 . S
C708 C710 1.419 . S
C709 C704 1.425 1_655 S
C709 C706 1.409 1_655 S
C709 C707 1.415 . S
C710 H700 0.930 . S
C710 C708 1.419 . S
C710 C711 1.362 . S
C711 H701 0.937 . S
C711 C704 1.409 1_655 S
C711 C710 1.362 . S
H712 C718 0.930 . S
H713 C721 0.930 . S
H714 C722 0.926 1_565 S
H715 C723 0.930 . S
H716 C726 0.930 . S
H717 C727 0.926 1_545 S
C718 H712 0.930 . S
C718 C719 1.355 . S
C718 C720 1.415 . S
C719 C718 1.355 . S
C719 C721 1.419 . S
C720 C718 1.415 . S
C720 C725 1.425 1_545 S
C720 C727 1.409 1_545 S
C721 H713 0.930 . S
C721 C719 1.419 . S
C721 C722 1.362 . S
C722 H714 0.926 1_545 S
C722 C721 1.362 . S
C722 C725 1.409 1_545 S
C723 H715 0.930 . S
C723 C724 1.355 . S
C723 C725 1.415 . S
C724 C723 1.355 . S
C724 C726 1.419 . S
C725 C720 1.425 1_565 S
C725 C722 1.409 1_565 S
C725 C723 1.415 . S
C726 H716 0.930 . S
C726 C724 1.419 . S
C726 C727 1.362 . S
C727 H717 0.926 1_565 S
C727 C720 1.409 1_565 S
C727 C726 1.362 . S
H728 C734 0.930 . S
H729 C737 0.930 . S
H730 C738 0.924 1_455 S
H731 C739 0.930 . S
H732 C742 0.930 . S
H733 C743 0.924 1_655 S
C734 H728 0.930 . S
C734 C735 1.355 . S
C734 C736 1.415 . S
C735 C734 1.355 . S
C735 C737 1.419 . S
C736 C734 1.415 . S
C736 C741 1.425 1_655 S
C736 C743 1.409 1_655 S
C737 H729 0.930 . S
C737 C735 1.419 . S
C737 C738 1.362 . S
C738 H730 0.924 1_655 S
C738 C737 1.362 . S
C738 C741 1.409 1_655 S
C739 H731 0.930 . S
C739 C740 1.355 . S
C739 C741 1.415 . S
C740 C739 1.355 . S
C740 C742 1.419 . S
C741 C736 1.425 1_455 S
C741 C738 1.409 1_455 S
C741 C739 1.415 . S
C742 H732 0.930 . S
C742 C740 1.419 . S
C742 C743 1.362 . S
C743 H733 0.924 1_455 S
C743 C736 1.409 1_455 S
C743 C742 1.362 . S
H744 C750 0.930 . S
H745 C753 0.930 . S
H746 C754 0.928 1_565 S
H747 C755 0.930 . S
H748 C758 0.930 . S
H749 C759 0.928 1_545 S
C750 H744 0.930 . S
C750 C751 1.355 . S
C750 C752 1.415 . S
C751 C750 1.355 . S
C751 C753 1.419 . S
C752 C750 1.415 . S
C752 C757 1.425 1_545 S
C752 C759 1.409 1_545 S
C753 H745 0.930 . S
C753 C751 1.419 . S
C753 C754 1.362 . S
C754 H746 0.928 1_545 S
C754 C753 1.362 . S
C754 C757 1.409 1_545 S
C755 H747 0.930 . S
C755 C756 1.355 . S
C755 C757 1.415 . S
C756 C755 1.355 . S
C756 C758 1.419 . S
C757 C752 1.425 1_565 S
C757 C754 1.409 1_565 S
C757 C755 1.415 . S
C758 H748 0.930 . S
C758 C756 1.419 . S
C758 C759 1.362 . S
C759 H749 0.928 1_565 S
C759 C752 1.409 1_565 S
C759 C758 1.362 . S
H760 C766 0.930 . S
H761 C769 0.930 . S
H762 C770 0.930 . S
H763 C771 0.930 . S
H764 C774 0.930 . S
H765 C775 0.930 . S
C766 H760 0.930 . S
C766 C767 1.355 . S
C766 C768 1.415 . S
C767 C766 1.355 . S
C767 C769 1.419 . S
C768 C766 1.415 . S
C768 C773 1.425 1_565 S
C768 C775 1.409 1_565 S
C769 H761 0.930 . S
C769 C767 1.419 . S
C769 C770 1.362 . S
C770 H762 0.930 . S
C770 C769 1.362 . S
C770 C773 1.409 1_565 S
C771 H763 0.930 . S
C771 C772 1.355 . S
C771 C773 1.415 . S
C772 C771 1.355 . S
C772 C774 1.419 . S
C773 C768 1.425 1_545 S
C773 C770 1.409 1_545 S
C773 C771 1.415 . S
C774 H764 0.930 . S
C774 C772 1.419 . S
C774 C775 1.362 . S
C775 H765 0.930 . S
C775 C768 1.409 1_545 S
C775 C774 1.362 . S
H776 C782 0.930 . S
H777 C785 0.930 . S
H778 C786 0.930 . S
H779 C787 0.930 . S
H780 C790 0.930 . S
H781 C791 0.930 . S
C782 H776 0.930 . S
C782 C783 1.355 . S
C782 C784 1.415 . S
C783 C782 1.355 . S
C783 C785 1.419 . S
C784 C782 1.415 . S
C784 C789 1.425 1_655 S
C784 C791 1.409 1_655 S
C785 H777 0.930 . S
C785 C783 1.419 . S
C785 C786 1.362 . S
C786 H778 0.930 . S
C786 C785 1.362 . S
C786 C789 1.409 1_655 S
C787 H779 0.930 . S
C787 C788 1.355 . S
C787 C789 1.415 . S
C788 C787 1.355 . S
C788 C790 1.419 . S
C789 C784 1.425 1_455 S
C789 C786 1.409 1_455 S
C789 C787 1.415 . S
C790 H780 0.930 . S
C790 C788 1.419 . S
C790 C791 1.362 . S
C791 H781 0.930 . S
C791 C784 1.409 1_455 S
C791 C790 1.362 . S
H792 C798 0.930 . S
H793 C801 0.930 . S
H794 C802 0.930 . S
H795 C803 0.930 . S
H796 C806 0.930 . S
H797 C807 0.930 . S
C798 H792 0.930 . S
C798 C799 1.355 . S
C798 C800 1.415 . S
C799 C798 1.355 . S
C799 C801 1.419 . S
C800 C798 1.415 . S
C800 C805 1.425 1_565 S
C800 C807 1.409 1_565 S
C801 H793 0.930 . S
C801 C799 1.419 . S
C801 C802 1.362 . S
C802 H794 0.930 . S
C802 C801 1.362 . S
C802 C805 1.409 1_565 S
C803 H795 0.930 . S
C803 C804 1.355 . S
C803 C805 1.415 . S
C804 C803 1.355 . S
C804 C806 1.419 . S
C805 C800 1.425 1_545 S
C805 C802 1.409 1_545 S
C805 C803 1.415 . S
C806 H796 0.930 . S
C806 C804 1.419 . S
C806 C807 1.362 . S
C807 H797 0.930 . S
C807 C800 1.409 1_545 S
C807 C806 1.362 . S
H808 C814 0.930 . S
H809 C817 0.930 . S
H810 C818 0.930 . S
H811 C819 0.930 . S
H812 C822 0.930 . S
H813 C823 0.930 . S
C814 H808 0.930 . S
C814 C815 1.355 . S
C814 C816 1.415 . S
C815 C814 1.355 . S
C815 C817 1.419 . S
C816 C814 1.415 . S
C816 C821 1.425 1_655 S
C816 C823 1.409 1_655 S
C817 H809 0.930 . S
C817 C815 1.419 . S
C817 C818 1.362 . S
C818 H810 0.930 . S
C818 C817 1.362 . S
C818 C821 1.409 1_655 S
C819 H811 0.930 . S
C819 C820 1.355 . S
C819 C821 1.415 . S
C820 C819 1.355 . S
C820 C822 1.419 . S
C821 C816 1.425 1_455 S
C821 C818 1.409 1_455 S
C821 C819 1.415 . S
C822 H812 0.930 . S
C822 C820 1.419 . S
C822 C823 1.362 . S
C823 H813 0.930 . S
C823 C816 1.409 1_455 S
C823 C822 1.362 . S
H824 C830 0.930 . S
H825 C833 0.930 . S
H826 C834 0.916 1_554 S
H827 C835 0.930 . S
H828 C838 0.930 . S
H829 C839 0.916 1_556 S
C830 H824 0.930 . S
C830 C831 1.355 . S
C830 C832 1.415 . S
C831 C830 1.355 . S
C831 C833 1.419 . S
C832 C830 1.415 . S
C832 C837 1.425 1_556 S
C832 C839 1.409 1_556 S
C833 H825 0.930 . S
C833 C831 1.419 . S
C833 C834 1.362 . S
C834 H826 0.916 1_556 S
C834 C833 1.362 . S
C834 C837 1.409 1_556 S
C835 H827 0.930 . S
C835 C836 1.355 . S
C835 C837 1.415 . S
C836 C835 1.355 . S
C836 C838 1.419 . S
C837 C832 1.425 1_554 S
C837 C834 1.409 1_554 S
C837 C835 1.415 . S
C838 H828 0.930 . S
C838 C836 1.419 . S
C838 C839 1.362 . S
C839 H829 0.916 1_554 S
C839 C832 1.409 1_554 S
C839 C838 1.362 . S
H840 C846 0.930 . S
H841 C849 0.930 . S
H842 C850 0.930 . S
H843 C851 0.930 . S
H844 C854 0.930 . S
H845 C855 0.930 . S
C846 H840 0.930 . S
C846 C847 1.355 . S
C846 C848 1.415 . S
C847 C846 1.355 . S
C847 C849 1.419 . S
C848 C846 1.415 . S
C848 C853 1.425 1_556 S
C848 C855 1.409 1_556 S
C849 H841 0.930 . S
C849 C847 1.419 . S
C849 C850 1.362 . S
C850 H842 0.930 . S
C850 C849 1.362 . S
C850 C853 1.409 1_556 S
C851 H843 0.930 . S
C851 C852 1.355 . S
C851 C853 1.415 . S
C852 C851 1.355 . S
C852 C854 1.419 . S
C853 C848 1.425 1_554 S
C853 C850 1.409 1_554 S
C853 C851 1.415 . S
C854 H844 0.930 . S
C854 C852 1.419 . S
C854 C855 1.362 . S
C855 H845 0.930 . S
C855 C848 1.409 1_554 S
C855 C854 1.362 . S
H856 C862 0.930 . S
H857 C865 0.930 . S
H858 C866 0.930 . S
H859 C867 0.930 . S
H860 C870 0.930 . S
H861 C871 0.930 . S
C862 H856 0.930 . S
C862 C863 1.355 . S
C862 C864 1.415 . S
C863 C862 1.355 . S
C863 C865 1.419 . S
C864 C862 1.415 . S
C864 C869 1.425 1_556 S
C864 C871 1.409 1_556 S
C865 H857 0.930 . S
C865 C863 1.419 . S
C865 C866 1.362 . S
C866 H858 0.930 . S
C866 C865 1.362 . S
C866 C869 1.409 1_556 S
C867 H859 0.930 . S
C867 C868 1.355 . S
C867 C869 1.415 . S
C868 C867 1.355 . S
C868 C870 1.419 . S
C869 C864 1.425 1_554 S
C869 C866 1.409 1_554 S
C869 C867 1.415 . S
C870 H860 0.930 . S
C870 C868 1.419 . S
C870 C871 1.362 . S
C871 H861 0.930 . S
C871 C864 1.409 1_554 S
C871 C870 1.362 . S
H872 C878 0.930 . S
H873 C881 0.930 . S
H874 C882 0.944 . S
H875 C883 0.930 . S
H876 C886 0.930 . S
H877 C887 0.944 . S
C878 H872 0.930 . S
C878 C879 1.355 . S
C878 C880 1.415 . S
C879 C878 1.355 . S
C879 C881 1.419 . S
C880 C878 1.415 . S
C880 C885 1.425 1_556 S
C880 C887 1.409 1_556 S
C881 H873 0.930 . S
C881 C879 1.419 . S
C881 C882 1.362 . S
C882 H874 0.944 . S
C882 C881 1.362 . S
C882 C885 1.409 1_556 S
C883 H875 0.930 . S
C883 C884 1.355 . S
C883 C885 1.415 . S
C884 C883 1.355 . S
C884 C886 1.419 . S
C885 C880 1.425 1_554 S
C885 C882 1.409 1_554 S
C885 C883 1.415 . S
C886 H876 0.930 . S
C886 C884 1.419 . S
C886 C887 1.362 . S
C887 H877 0.944 . S
C887 C880 1.409 1_554 S
C887 C886 1.362 . S
H888 C894 0.930 . S
H889 C897 0.930 . S
H890 C898 0.930 . S
H891 C899 0.930 . S
H892 C902 0.930 . S
H893 C903 0.930 . S
C894 H888 0.930 . S
C894 C895 1.355 . S
C894 C896 1.415 . S
C895 C894 1.355 . S
C895 C897 1.419 . S
C896 C894 1.415 . S
C896 C901 1.425 . S
C896 C903 1.409 . S
C897 H889 0.930 . S
C897 C895 1.419 . S
C897 C898 1.362 . S
C898 H890 0.930 . S
C898 C897 1.362 . S
C898 C901 1.409 . S
C899 H891 0.930 . S
C899 C900 1.355 . S
C899 C901 1.415 . S
C900 C899 1.355 . S
C900 C902 1.419 . S
C901 C896 1.425 . S
C901 C898 1.409 . S
C901 C899 1.415 . S
C902 H892 0.930 . S
C902 C900 1.419 . S
C902 C903 1.362 . S
C903 H893 0.930 . S
C903 C896 1.409 . S
C903 C902 1.362 . S
H904 C910 0.930 . S
H905 C913 0.930 . S
H906 C914 0.930 . S
H907 C915 0.930 . S
H908 C918 0.930 . S
H909 C919 0.930 . S
C910 H904 0.930 . S
C910 C911 1.355 . S
C910 C912 1.415 . S
C911 C910 1.355 . S
C911 C913 1.419 . S
C912 C910 1.415 . S
C912 C917 1.425 . S
C912 C919 1.409 . S
C913 H905 0.930 . S
C913 C911 1.419 . S
C913 C914 1.362 . S
C914 H906 0.930 . S
C914 C913 1.362 . S
C914 C917 1.409 . S
C915 H907 0.930 . S
C915 C916 1.355 . S
C915 C917 1.415 . S
C916 C915 1.355 . S
C916 C918 1.419 . S
C917 C912 1.425 . S
C917 C914 1.409 . S
C917 C915 1.415 . S
C918 H908 0.930 . S
C918 C916 1.419 . S
C918 C919 1.362 . S
C919 H909 0.930 . S
C919 C912 1.409 . S
C919 C918 1.362 . S
H920 C926 0.930 . S
H921 C929 0.930 . S
H922 C930 0.930 . S
H923 C931 0.930 . S
H924 C934 0.930 . S
H925 C935 0.930 . S
C926 H920 0.930 . S
C926 C927 1.355 . S
C926 C928 1.415 . S
C927 C926 1.355 . S
C927 C929 1.419 . S
C928 C926 1.415 . S
C928 C933 1.425 . S
C928 C935 1.409 . S
C929 H921 0.930 . S
C929 C927 1.419 . S
C929 C930 1.362 . S
C930 H922 0.930 . S
C930 C929 1.362 . S
C930 C933 1.409 . S
C931 H923 0.930 . S
C931 C932 1.355 . S
C931 C933 1.415 . S
C932 C931 1.355 . S
C932 C934 1.419 . S
C933 C928 1.425 . S
C933 C930 1.409 . S
C933 C931 1.415 . S
C934 H924 0.930 . S
C934 C932 1.419 . S
C934 C935 1.362 . S
C935 H925 0.930 . S
C935 C928 1.409 . S
C935 C934 1.362 . S
H936 C942 0.930 . S
H937 C945 0.930 . S
H938 C946 0.930 . S
H939 C947 0.930 . S
H940 C950 0.930 . S
H941 C951 0.930 . S
C942 H936 0.930 . S
C942 C943 1.355 . S
C942 C944 1.415 . S
C943 C942 1.355 . S
C943 C945 1.419 . S
C944 C942 1.415 . S
C944 C949 1.425 . S
C944 C951 1.409 . S
C945 H937 0.930 . S
C945 C943 1.419 . S
C945 C946 1.362 . S
C946 H938 0.930 . S
C946 C945 1.362 . S
C946 C949 1.409 . S
C947 H939 0.930 . S
C947 C948 1.355 . S
C947 C949 1.415 . S
C948 C947 1.355 . S
C948 C950 1.419 . S
C949 C944 1.425 . S
C949 C946 1.409 . S
C949 C947 1.415 . S
C950 H940 0.930 . S
C950 C948 1.419 . S
C950 C951 1.362 . S
C951 H941 0.930 . S
C951 C944 1.409 . S
C951 C950 1.362 . S
H952 C958 0.930 . S
H953 C961 0.930 . S
H954 C962 0.930 . S
H955 C963 0.930 . S
H956 C966 0.930 . S
H957 C967 0.930 . S
C958 H952 0.930 . S
C958 C959 1.355 . S
C958 C960 1.415 . S
C959 C958 1.355 . S
C959 C961 1.419 . S
C960 C958 1.415 . S
C960 C965 1.425 . S
C960 C967 1.409 . S
C961 H953 0.930 . S
C961 C959 1.419 . S
C961 C962 1.362 . S
C962 H954 0.930 . S
C962 C961 1.362 . S
C962 C965 1.409 . S
C963 H955 0.930 . S
C963 C964 1.355 . S
C963 C965 1.415 . S
C964 C963 1.355 . S
C964 C966 1.419 . S
C965 C960 1.425 . S
C965 C962 1.409 . S
C965 C963 1.415 . S
C966 H956 0.930 . S
C966 C964 1.419 . S
C966 C967 1.362 . S
C967 H957 0.930 . S
C967 C960 1.409 . S
C967 C966 1.362 . S
H968 C974 0.930 . S
H969 C977 0.930 . S
H970 C978 0.930 . S
H971 C979 0.930 . S
H972 C982 0.930 . S
H973 C983 0.930 . S
C974 H968 0.930 . S
C974 C975 1.355 . S
C974 C976 1.415 . S
C975 C974 1.355 . S
C975 C977 1.419 . S
C976 C974 1.415 . S
C976 C981 1.425 . S
C976 C983 1.409 . S
C977 H969 0.930 . S
C977 C975 1.419 . S
C977 C978 1.362 . S
C978 H970 0.930 . S
C978 C977 1.362 . S
C978 C981 1.409 . S
C979 H971 0.930 . S
C979 C980 1.355 . S
C979 C981 1.415 . S
C980 C979 1.355 . S
C980 C982 1.419 . S
C981 C976 1.425 . S
C981 C978 1.409 . S
C981 C979 1.415 . S
C982 H972 0.930 . S
C982 C980 1.419 . S
C982 C983 1.362 . S
C983 H973 0.930 . S
C983 C976 1.409 . S
C983 C982 1.362 . S
H984 C990 0.930 . S
H985 C993 0.930 . S
H986 C994 0.930 . S
H987 C995 0.930 . S
H988 C998 0.930 . S
H989 C999 0.930 . S
C990 H984 0.930 . S
C990 C991 1.355 . S
C990 C992 1.415 . S
C991 C990 1.355 . S
C991 C993 1.419 . S
C992 C990 1.415 . S
C992 C997 1.425 . S
C992 C999 1.409 . S
C993 H985 0.930 . S
C993 C991 1.419 . S
C993 C994 1.362 . S
C994 H986 0.930 . S
C994 C993 1.362 . S
C994 C997 1.409 . S
C995 H987 0.930 . S
C995 C996 1.355 . S
C995 C997 1.415 . S
C996 C995 1.355 . S
C996 C998 1.419 . S
C997 C992 1.425 . S
C997 C994 1.409 . S
C997 C995 1.415 . S
C998 H988 0.930 . S
C998 C996 1.419 . S
C998 C999 1.362 . S
C999 H989 0.930 . S
C999 C992 1.409 . S
C999 C998 1.362 . S
H1000 C1006 0.930 . S
H1001 C1009 0.930 . S
H1002 C1010 0.930 . S
H1003 C1011 0.930 . S
H1004 C1014 0.930 . S
H1005 C1015 0.930 . S
C1006 H1000 0.930 . S
C1006 C1007 1.355 . S
C1006 C1008 1.415 . S
C1007 C1006 1.355 . S
C1007 C1009 1.419 . S
C1008 C1006 1.415 . S
C1008 C1013 1.425 . S
C1008 C1015 1.409 . S
C1009 H1001 0.930 . S
C1009 C1007 1.419 . S
C1009 C1010 1.362 . S
C1010 H1002 0.930 . S
C1010 C1009 1.362 . S
C1010 C1013 1.409 . S
C1011 H1003 0.930 . S
C1011 C1012 1.355 . S
C1011 C1013 1.415 . S
C1012 C1011 1.355 . S
C1012 C1014 1.419 . S
C1013 C1008 1.425 . S
C1013 C1010 1.409 . S
C1013 C1011 1.415 . S
C1014 H1004 0.930 . S
C1014 C1012 1.419 . S
C1014 C1015 1.362 . S
C1015 H1005 0.930 . S
C1015 C1008 1.409 . S
C1015 C1014 1.362 . S
H1016 C1022 0.930 . S
H1017 C1025 0.930 . S
H1018 C1026 0.930 . S
H1019 C1027 0.930 . S
H1020 C1030 0.930 . S
H1021 C1031 0.930 . S
C1022 H1016 0.930 . S
C1022 C1023 1.355 . S
C1022 C1024 1.415 . S
C1023 C1022 1.355 . S
C1023 C1025 1.419 . S
C1024 C1022 1.415 . S
C1024 C1029 1.425 . S
C1024 C1031 1.409 . S
C1025 H1017 0.930 . S
C1025 C1023 1.419 . S
C1025 C1026 1.362 . S
C1026 H1018 0.930 . S
C1026 C1025 1.362 . S
C1026 C1029 1.409 . S
C1027 H1019 0.930 . S
C1027 C1028 1.355 . S
C1027 C1029 1.415 . S
C1028 C1027 1.355 . S
C1028 C1030 1.419 . S
C1029 C1024 1.425 . S
C1029 C1026 1.409 . S
C1029 C1027 1.415 . S
C1030 H1020 0.930 . S
C1030 C1028 1.419 . S
C1030 C1031 1.362 . S
C1031 H1021 0.930 . S
C1031 C1024 1.409 . S
C1031 C1030 1.362 . S
H1032 C1038 0.930 . S
H1033 C1041 0.930 . S
H1034 C1042 0.930 . S
H1035 C1043 0.930 . S
H1036 C1046 0.930 . S
H1037 C1047 0.930 . S
C1038 H1032 0.930 . S
C1038 C1039 1.355 . S
C1038 C1040 1.415 . S
C1039 C1038 1.355 . S
C1039 C1041 1.419 . S
C1040 C1038 1.415 . S
C1040 C1045 1.425 . S
C1040 C1047 1.409 . S
C1041 H1033 0.930 . S
C1041 C1039 1.419 . S
C1041 C1042 1.362 . S
C1042 H1034 0.930 . S
C1042 C1041 1.362 . S
C1042 C1045 1.409 . S
C1043 H1035 0.930 . S
C1043 C1044 1.355 . S
C1043 C1045 1.415 . S
C1044 C1043 1.355 . S
C1044 C1046 1.419 . S
C1045 C1040 1.425 . S
C1045 C1042 1.409 . S
C1045 C1043 1.415 . S
C1046 H1036 0.930 . S
C1046 C1044 1.419 . S
C1046 C1047 1.362 . S
C1047 H1037 0.930 . S
C1047 C1040 1.409 . S
C1047 C1046 1.362 . S
H1048 C1054 0.930 . S
H1049 C1057 0.930 . S
H1050 C1058 0.930 . S
H1051 C1059 0.930 . S
H1052 C1062 0.930 . S
H1053 C1063 0.930 . S
C1054 H1048 0.930 . S
C1054 C1055 1.355 . S
C1054 C1056 1.415 . S
C1055 C1054 1.355 . S
C1055 C1057 1.419 . S
C1056 C1054 1.415 . S
C1056 C1061 1.425 . S
C1056 C1063 1.409 . S
C1057 H1049 0.930 . S
C1057 C1055 1.419 . S
C1057 C1058 1.362 . S
C1058 H1050 0.930 . S
C1058 C1057 1.362 . S
C1058 C1061 1.409 . S
C1059 H1051 0.930 . S
C1059 C1060 1.355 . S
C1059 C1061 1.415 . S
C1060 C1059 1.355 . S
C1060 C1062 1.419 . S
C1061 C1056 1.425 . S
C1061 C1058 1.409 . S
C1061 C1059 1.415 . S
C1062 H1052 0.930 . S
C1062 C1060 1.419 . S
C1062 C1063 1.362 . S
C1063 H1053 0.930 . S
C1063 C1056 1.409 . S
C1063 C1062 1.362 . S
H1064 C1070 0.930 . S
H1065 C1073 0.930 . S
H1066 C1074 0.930 . S
H1067 C1075 0.930 . S
H1068 C1078 0.930 . S
H1069 C1079 0.930 . S
C1070 H1064 0.930 . S
C1070 C1071 1.355 . S
C1070 C1072 1.415 . S
C1071 C1070 1.355 . S
C1071 C1073 1.419 . S
C1072 C1070 1.415 . S
C1072 C1077 1.425 . S
C1072 C1079 1.409 . S
C1073 H1065 0.930 . S
C1073 C1071 1.419 . S
C1073 C1074 1.362 . S
C1074 H1066 0.930 . S
C1074 C1073 1.362 . S
C1074 C1077 1.409 . S
C1075 H1067 0.930 . S
C1075 C1076 1.355 . S
C1075 C1077 1.415 . S
C1076 C1075 1.355 . S
C1076 C1078 1.419 . S
C1077 C1072 1.425 . S
C1077 C1074 1.409 . S
C1077 C1075 1.415 . S
C1078 H1068 0.930 . S
C1078 C1076 1.419 . S
C1078 C1079 1.362 . S
C1079 H1069 0.930 . S
C1079 C1072 1.409 . S
C1079 C1078 1.362 . S
C319 C153 1.560 . S
C324 C3 1.544 . S
C335 C16 1.525 . S
C340 C108 1.562 . S
C351 C31 1.573 . S
C356 C121 1.514 . S
C367 C42 1.573 . S
C372 C134 1.514 . S
C383 C173 1.549 . S
C388 C55 1.556 . S
C399 C68 1.529 . S
C404 C186 1.543 . S
C415 C199 1.522 . S
C420 C81 1.543 . S
C431 C160 1.508 . S
C436 C96 1.571 . S
C447 C75 1.560 . S
C452 C109 1.524 . S
C463 C88 1.531 . S
C468 C122 1.569 . S
C479 C135 1.529 . S
C484 C95 1.543 . S
C495 C62 1.566 . S
C500 C146 1.529 . S
C511 C49 1.562 . S
C516 C161 1.541 . S
C527 C174 1.562 . S
C532 C10 1.508 . S
C543 C187 1.528 . S
C548 C23 1.565 . S
C559 C200 1.531 . S
C564 C30 1.539 . S
C575 C213 1.563 . S
C580 C309 1.508 . S
C591 C264 1.560 . S
C596 C224 1.524 . S
C607 C239 1.569 . S
C612 C231 1.507 . S
C623 C250 1.573 . S
C628 C238 1.513 . S
C639 C257 1.508 . S
C644 C265 1.570 . S
C655 C278 1.555 . S
C660 C290 1.550 . S
C671 C212 1.520 . S
C676 C291 1.573 . S
C687 C277 1.557 . S
C692 C302 1.524 . S
C703 C5 1.633 . S
C708 C83 1.621 . S
C719 C18 1.634 . S
C724 C94 1.623 . S
C735 C29 1.634 . S
C740 C57 1.623 . S
C751 C70 1.634 . S
C756 C44 1.622 . S
C767 C133 1.602 . S
C772 C107 1.615 . S
C783 C120 1.605 . S
C788 C148 1.619 . S
C799 C159 1.625 . S
C804 C185 1.635 . S
C815 C198 1.602 . S
C820 C172 1.601 . S
C831 C226 1.633 . S
C836 C211 1.634 . S
C847 C237 1.600 . S
C852 C304 1.604 . S
C863 C252 1.611 . S
C868 C276 1.627 . S
C879 C263 1.633 . S
C884 C289 1.620 . S
C895 C4 1.069 . S
C900 C69 1.058 . S
C911 C17 1.070 . S
C916 C82 1.056 . S
C927 C36 1.070 . S
C932 C101 1.056 . S
C943 C56 1.067 . S
C948 C43 1.061 . S
C959 C114 1.060 . S
C964 C303 1.062 . S
C975 C127 1.062 . S
C980 C283 1.059 . S
C991 C296 1.057 . S
C996 C140 1.064 . S
C1007 C147 1.062 . S
C1012 C218 1.066 . S
C1023 C270 1.070 . S
C1028 C166 1.054 . S
C1039 C225 1.070 . S
C1044 C179 1.057 . S
C1055 C192 1.066 . S
C1060 C244 1.061 . S
C1071 C251 1.056 . S
C1076 C205 1.066 . S
