# Generated by pormake.
# Topology dei, (4)-cn, num edge types: 1
# Building blocks:
#     Node 0, Type 0, BuildingBlock: AZAVOO_clean_sbu_0, # of connection points: 4
#     Node 1, Type 0, BuildingBlock: AZAVOO_clean_sbu_0, # of connection points: 4
#     Node 2, Type 0, BuildingBlock: AZAVOO_clean_sbu_0, # of connection points: 4
#     Node 3, Type 0, BuildingBlock: AZAVOO_clean_sbu_0, # of connection points: 4
#     Node 4, Type 0, BuildingBlock: AZAVOO_clean_sbu_0, # of connection points: 4
#     Node 5, Type 0, BuildingBlock: AZAVOO_clean_sbu_0, # of connection points: 4
#     Node 6, Type 0, BuildingBlock: AZAVOO_clean_sbu_0, # of connection points: 4
#     Node 7, Type 0, BuildingBlock: AZAVOO_clean_sbu_0, # of connection points: 4
#     Node 8, Type 0, BuildingBlock: AZAVOO_clean_sbu_0, # of connection points: 4
#     Node 9, Type 0, BuildingBlock: AZAVOO_clean_sbu_0, # of connection points: 4
#     Node 10, Type 0, BuildingBlock: AZAVOO_clean_sbu_0, # of connection points: 4
#     Node 11, Type 0, BuildingBlock: AZAVOO_clean_sbu_0, # of connection points: 4
#     Node 12, Type 0, BuildingBlock: AZAVOO_clean_sbu_0, # of connection points: 4
#     Node 13, Type 0, BuildingBlock: AZAVOO_clean_sbu_0, # of connection points: 4
#     Node 14, Type 0, BuildingBlock: AZAVOO_clean_sbu_0, # of connection points: 4
#     Node 15, Type 0, BuildingBlock: AZAVOO_clean_sbu_0, # of connection points: 4
#     Node 16, Type 0, BuildingBlock: AZAVOO_clean_sbu_0, # of connection points: 4
#     Node 17, Type 0, BuildingBlock: AZAVOO_clean_sbu_0, # of connection points: 4
#     Node 18, Type 0, BuildingBlock: AZAVOO_clean_sbu_0, # of connection points: 4
#     Node 19, Type 0, BuildingBlock: AZAVOO_clean_sbu_0, # of connection points: 4
#     Node 20, Type 0, BuildingBlock: AZAVOO_clean_sbu_0, # of connection points: 4
#     Node 21, Type 0, BuildingBlock: AZAVOO_clean_sbu_0, # of connection points: 4
#     Node 22, Type 0, BuildingBlock: AZAVOO_clean_sbu_0, # of connection points: 4
#     Node 23, Type 0, BuildingBlock: AZAVOO_clean_sbu_0, # of connection points: 4
#     Node 24, Type 0, BuildingBlock: AZAVOO_clean_sbu_0, # of connection points: 4
#     Node 25, Type 0, BuildingBlock: AZAVOO_clean_sbu_0, # of connection points: 4
#     Node 26, Type 0, BuildingBlock: AZAVOO_clean_sbu_0, # of connection points: 4
#     Node 27, Type 0, BuildingBlock: AZAVOO_clean_sbu_0, # of connection points: 4
#     Node 28, Type 0, BuildingBlock: AZAVOO_clean_sbu_0, # of connection points: 4
#     Node 29, Type 0, BuildingBlock: AZAVOO_clean_sbu_0, # of connection points: 4
#     Node 30, Type 0, BuildingBlock: AZAVOO_clean_sbu_0, # of connection points: 4
#     Node 31, Type 0, BuildingBlock: AZAVOO_clean_sbu_0, # of connection points: 4
#     Edge 32, Type (0, 0), None
#     Edge 33, Type (0, 0), None
#     Edge 34, Type (0, 0), None
#     Edge 35, Type (0, 0), None
#     Edge 36, Type (0, 0), None
#     Edge 37, Type (0, 0), None
#     Edge 38, Type (0, 0), None
#     Edge 39, Type (0, 0), None
#     Edge 40, Type (0, 0), None
#     Edge 41, Type (0, 0), None
#     Edge 42, Type (0, 0), None
#     Edge 43, Type (0, 0), None
#     Edge 44, Type (0, 0), None
#     Edge 45, Type (0, 0), None
#     Edge 46, Type (0, 0), None
#     Edge 47, Type (0, 0), None
#     Edge 48, Type (0, 0), None
#     Edge 49, Type (0, 0), None
#     Edge 50, Type (0, 0), None
#     Edge 51, Type (0, 0), None
#     Edge 52, Type (0, 0), None
#     Edge 53, Type (0, 0), None
#     Edge 54, Type (0, 0), None
#     Edge 55, Type (0, 0), None
#     Edge 56, Type (0, 0), None
#     Edge 57, Type (0, 0), None
#     Edge 58, Type (0, 0), None
#     Edge 59, Type (0, 0), None
#     Edge 60, Type (0, 0), None
#     Edge 61, Type (0, 0), None
#     Edge 62, Type (0, 0), None
#     Edge 63, Type (0, 0), None
#     Edge 64, Type (0, 0), None
#     Edge 65, Type (0, 0), None
#     Edge 66, Type (0, 0), None
#     Edge 67, Type (0, 0), None
#     Edge 68, Type (0, 0), None
#     Edge 69, Type (0, 0), None
#     Edge 70, Type (0, 0), None
#     Edge 71, Type (0, 0), None
#     Edge 72, Type (0, 0), None
#     Edge 73, Type (0, 0), None
#     Edge 74, Type (0, 0), None
#     Edge 75, Type (0, 0), None
#     Edge 76, Type (0, 0), None
#     Edge 77, Type (0, 0), None
#     Edge 78, Type (0, 0), None
#     Edge 79, Type (0, 0), None
#     Edge 80, Type (0, 0), None
#     Edge 81, Type (0, 0), None
#     Edge 82, Type (0, 0), None
#     Edge 83, Type (0, 0), None
#     Edge 84, Type (0, 0), None
#     Edge 85, Type (0, 0), None
#     Edge 86, Type (0, 0), None
#     Edge 87, Type (0, 0), None
#     Edge 88, Type (0, 0), None
#     Edge 89, Type (0, 0), None
#     Edge 90, Type (0, 0), None
#     Edge 91, Type (0, 0), None
#     Edge 92, Type (0, 0), None
#     Edge 93, Type (0, 0), None
#     Edge 94, Type (0, 0), None
#     Edge 95, Type (0, 0), None
# Relax obj value: 0.225
# Max RMSD: 0.123
# Mean RMSD: 0.123
data_MOF--net-dei--node1-AZAVOO_clean_sbu_0--edge1-none
_symmetry_space_group_name_H-M    P1
_symmetry_Int_Tables_number       1
_symmetry_cell_setting            triclinic
loop_
_symmetry_equiv_pos_as_xyz
'x, y, z'
_cell_length_a     25.13022
_cell_length_b     25.13044
_cell_length_c     45.275492
_cell_angle_alpha  90.00104
_cell_angle_beta   90.001672
_cell_angle_gamma 90.002591
loop_
_atom_site_label
_atom_site_type_symbol
_atom_site_fract_x
_atom_site_fract_y
_atom_site_fract_z
_atom_type_partial_charge
Mg0 Mg 0.1142 0.58046 0.04766 0.0
O1 O 0.02728 0.59151 0.06119 0.0
O2 O 0.03712 0.64087 0.10207 0.0
Mg3 Mg 0.12717 0.66344 0.11344 0.0
C4 C 0.00757 0.61644 0.08321 0.0
C5 C 0.13636 0.48285 0.01143 0.0
O6 O 0.18279 0.49883 0.02136 0.0
O7 O 0.12121 0.52514 0.08924 0.0
O8 O 0.17102 0.58676 0.10648 0.0
O9 O 0.1061 0.65704 0.01945 0.0
O10 O 0.13064 0.65584 0.06579 0.0
C11 C 0.14222 0.54714 0.11179 0.0
C12 C 0.11611 0.68309 0.04344 0.0
O13 O 0.09499 0.50919 0.01825 0.0
Mg14 Mg 0.59614 0.86418 0.29768 0.0
O15 O 0.58507 0.77726 0.31121 0.0
O16 O 0.53572 0.78711 0.35209 0.0
Mg17 Mg 0.51319 0.87716 0.36347 0.0
C18 C 0.56013 0.75755 0.33323 0.0
C19 C 0.69378 0.88634 0.26147 0.0
O20 O 0.67785 0.93276 0.27144 0.0
O21 O 0.65148 0.87117 0.33927 0.0
O22 O 0.58988 0.92099 0.35651 0.0
O23 O 0.51956 0.85613 0.26947 0.0
O24 O 0.52076 0.88063 0.31582 0.0
C25 C 0.62949 0.89219 0.36181 0.0
C26 C 0.49351 0.86613 0.29347 0.0
O27 O 0.6674 0.84498 0.26826 0.0
Mg28 Mg 0.31229 0.34613 0.54773 0.0
O29 O 0.39921 0.33508 0.56126 0.0
O30 O 0.38937 0.2857 0.60213 0.0
Mg31 Mg 0.29932 0.26313 0.61351 0.0
C32 C 0.41893 0.31013 0.58328 0.0
C33 C 0.29012 0.44381 0.51153 0.0
O34 O 0.2437 0.42789 0.52152 0.0
O35 O 0.30528 0.40145 0.58932 0.0
O36 O 0.25548 0.33981 0.60654 0.0
O37 O 0.32039 0.26955 0.51952 0.0
O38 O 0.29586 0.27074 0.56585 0.0
C39 C 0.28427 0.37944 0.61186 0.0
C40 C 0.31039 0.2435 0.54351 0.0
O41 O 0.33147 0.41742 0.51831 0.0
Mg42 Mg 0.83042 0.06228 0.79771 0.0
O43 O 0.84147 0.1492 0.81125 0.0
O44 O 0.89083 0.13936 0.85212 0.0
Mg45 Mg 0.91339 0.04931 0.8635 0.0
C46 C 0.8664 0.16892 0.83327 0.0
C47 C 0.73285 0.04012 0.76143 0.0
O48 O 0.74886 -0.00633 0.77133 0.0
O49 O 0.77508 0.05526 0.83929 0.0
O50 O 0.83671 0.00547 0.85652 0.0
O51 O 0.907 0.07038 0.76951 0.0
O52 O 0.9058 0.04585 0.81584 0.0
C53 C 0.79709 0.03426 0.86183 0.0
C54 C 0.93305 0.06038 0.7935 0.0
O55 O 0.75915 0.08149 0.76829 0.0
Mg56 Mg 0.09914 0.33854 0.95868 0.0
O57 O 0.00746 0.33051 0.95195 0.0
O58 O -0.00294 0.2747 0.91407 0.0
Mg59 Mg 0.07862 0.23721 0.90393 0.0
C60 C -0.02229 0.30603 0.93344 0.0
C61 C 0.13338 0.43429 0.99352 0.0
O62 O 0.177 0.40701 0.98843 0.0
O63 O 0.11024 0.37977 0.91302 0.0
O64 O 0.11831 0.30932 0.88338 0.0
O65 O 0.09983 0.273 0.99406 0.0
O66 O 0.11121 0.26099 0.94644 0.0
C67 C 0.12333 0.35879 0.8882 0.0
C68 C 0.10858 0.24076 0.97233 0.0
O69 O 0.08949 0.41719 0.98334 0.0
Mg70 Mg 0.838 0.84915 0.20864 0.0
O71 O 0.84601 0.75748 0.2019 0.0
O72 O 0.9018 0.74707 0.16402 0.0
Mg73 Mg 0.93931 0.82863 0.15388 0.0
C74 C 0.87047 0.72772 0.18339 0.0
C75 C 0.74233 0.88337 0.24355 0.0
O76 O 0.76966 0.92697 0.2385 0.0
O77 O 0.79675 0.86024 0.16297 0.0
O78 O 0.86719 0.86832 0.13333 0.0
O79 O 0.90355 0.84985 0.24401 0.0
O80 O 0.91555 0.86122 0.19638 0.0
C81 C 0.81772 0.87333 0.13816 0.0
C82 C 0.93578 0.8586 0.22227 0.0
O83 O 0.75936 0.8395 0.23331 0.0
Mg84 Mg 0.3273 0.58804 0.45867 0.0
O85 O 0.41898 0.59601 0.45193 0.0
O86 O 0.4294 0.65181 0.41405 0.0
Mg87 Mg 0.34787 0.68936 0.40391 0.0
C88 C 0.44874 0.62047 0.43342 0.0
C89 C 0.29307 0.49236 0.49361 0.0
O90 O 0.24946 0.51971 0.48859 0.0
O91 O 0.31617 0.5468 0.41299 0.0
O92 O 0.30815 0.61726 0.38336 0.0
O93 O 0.32664 0.6536 0.49404 0.0
O94 O 0.31526 0.6656 0.44641 0.0
C95 C 0.3031 0.5678 0.38818 0.0
C96 C 0.3179 0.68583 0.4723 0.0
O97 O 0.33693 0.50938 0.48334 0.0
Mg98 Mg 0.58849 0.07734 0.70871 0.0
O99 O 0.58048 0.16902 0.70197 0.0
O100 O 0.52468 0.17942 0.6641 0.0
Mg101 Mg 0.48718 0.09787 0.65395 0.0
C102 C 0.55601 0.19877 0.68347 0.0
C103 C 0.68429 0.04309 0.74352 0.0
O104 O 0.65704 -0.00055 0.73839 0.0
O105 O 0.62974 0.06624 0.66305 0.0
O106 O 0.55929 0.05818 0.6334 0.0
O107 O 0.52294 0.07666 0.74408 0.0
O108 O 0.51094 0.06528 0.69646 0.0
C109 C 0.60876 0.05315 0.63823 0.0
C110 C 0.49071 0.06791 0.72235 0.0
O111 O 0.66715 0.08699 0.73338 0.0
Mg112 Mg 0.8123 0.34606 0.97157 0.0
O113 O 0.89922 0.33502 0.95804 0.0
O114 O 0.88938 0.28566 0.91716 0.0
Mg115 Mg 0.79932 0.2631 0.90579 0.0
C116 C 0.91893 0.31009 0.93602 0.0
C117 C 0.79014 0.44362 1.00785 0.0
O118 O 0.74369 0.4276 0.99795 0.0
O119 O 0.80528 0.4014 0.92999 0.0
O120 O 0.75547 0.33978 0.91276 0.0
O121 O 0.8204 0.26949 0.99978 0.0
O122 O 0.79586 0.27068 0.95344 0.0
C123 C 0.78427 0.3794 0.90745 0.0
C124 C 0.81039 0.24344 0.97578 0.0
O125 O 0.83151 0.41733 1.00098 0.0
Mg126 Mg 0.3304 0.06231 0.72158 0.0
O127 O 0.34146 0.14922 0.70806 0.0
O128 O 0.39081 0.13939 0.66718 0.0
Mg129 Mg 0.41336 0.04934 0.6558 0.0
C130 C 0.36639 0.16894 0.68604 0.0
C131 C 0.23276 0.04015 0.7578 0.0
O132 O 0.2487 -0.00628 0.74785 0.0
O133 O 0.27507 0.05531 0.68 0.0
O134 O 0.33668 0.0055 0.66276 0.0
O135 O 0.40697 0.07039 0.74979 0.0
O136 O 0.40578 0.04587 0.70345 0.0
C137 C 0.29706 0.0343 0.65745 0.0
C138 C 0.43302 0.06039 0.7258 0.0
O139 O 0.25913 0.08151 0.751 0.0
Mg140 Mg 0.61415 0.58037 0.47154 0.0
O141 O 0.52723 0.59144 0.45801 0.0
O142 O 0.53708 0.64079 0.41713 0.0
Mg143 Mg 0.62713 0.66334 0.40575 0.0
C144 C 0.50752 0.61638 0.43599 0.0
C145 C 0.6363 0.48266 0.5077 0.0
O146 O 0.68271 0.49853 0.49768 0.0
O147 O 0.62114 0.52504 0.42995 0.0
O148 O 0.67097 0.58665 0.41272 0.0
O149 O 0.60609 0.65695 0.49975 0.0
O150 O 0.63059 0.65576 0.45341 0.0
C151 C 0.64216 0.54704 0.40741 0.0
C152 C 0.61609 0.683 0.47576 0.0
O153 O 0.59496 0.5091 0.50096 0.0
Mg154 Mg 0.09609 0.86426 0.22152 0.0
O155 O 0.08505 0.77734 0.20798 0.0
O156 O 0.03566 0.78718 0.16711 0.0
Mg157 Mg 0.0131 0.87722 0.15573 0.0
C158 C 0.0601 0.75763 0.18597 0.0
C159 C 0.19367 0.88645 0.2578 0.0
O160 O 0.17766 0.93289 0.2479 0.0
O161 O 0.15142 0.87129 0.17994 0.0
O162 O 0.08978 0.92107 0.16271 0.0
O163 O 0.01952 0.85615 0.24973 0.0
O164 O 0.0207 0.88069 0.20339 0.0
C165 C 0.1294 0.89228 0.15739 0.0
C166 C -0.00654 0.86614 0.22573 0.0
O167 O 0.16738 0.84508 0.25094 0.0
Mg168 Mg 0.82736 0.58799 0.06054 0.0
O169 O 0.91904 0.59602 0.06728 0.0
O170 O 0.92943 0.65182 0.10516 0.0
Mg171 Mg 0.84787 0.68931 0.1153 0.0
C172 C 0.94878 0.62049 0.08579 0.0
C173 C 0.79311 0.49219 0.02575 0.0
O174 O 0.74948 0.51942 0.03088 0.0
O175 O 0.81626 0.54675 0.10621 0.0
O176 O 0.80819 0.6172 0.13585 0.0
O177 O 0.82666 0.65353 0.02516 0.0
O178 O 0.81529 0.66554 0.07279 0.0
C179 C 0.80317 0.56772 0.13102 0.0
C180 C 0.81791 0.68576 0.0469 0.0
O181 O 0.83701 0.50933 0.03589 0.0
Mg182 Mg 0.08851 0.07736 0.8106 0.0
O183 O 0.08049 0.16904 0.81734 0.0
O184 O 0.02469 0.17944 0.85521 0.0
Mg185 Mg -0.01281 0.09788 0.86535 0.0
C186 C 0.05602 0.19879 0.83584 0.0
C187 C 0.18421 0.04313 0.77572 0.0
O188 O 0.15689 -0.00048 0.78078 0.0
O189 O 0.12976 0.06627 0.85627 0.0
O190 O 0.05931 0.0582 0.8859 0.0
O191 O 0.02296 0.07666 0.77522 0.0
O192 O 0.01096 0.06529 0.82285 0.0
C193 C 0.10878 0.05318 0.88108 0.0
C194 C -0.00927 0.06792 0.79696 0.0
O195 O 0.16716 0.08701 0.78594 0.0
Mg196 Mg 0.59914 0.3385 0.5606 0.0
O197 O 0.50746 0.33051 0.56734 0.0
O198 O 0.49705 0.27471 0.60522 0.0
Mg199 Mg 0.5786 0.23718 0.61536 0.0
C200 C 0.47771 0.30605 0.58585 0.0
C201 C 0.63334 0.43411 0.52562 0.0
O202 O 0.67693 0.40672 0.53061 0.0
O203 O 0.61025 0.37975 0.60627 0.0
O204 O 0.6183 0.30929 0.63591 0.0
O205 O 0.59982 0.27295 0.52523 0.0
O206 O 0.61119 0.26095 0.57286 0.0
C207 C 0.62334 0.35876 0.63109 0.0
C208 C 0.60857 0.24071 0.54697 0.0
O209 O 0.5895 0.41715 0.53593 0.0
Mg210 Mg 0.33803 0.84923 0.31055 0.0
O211 O 0.34601 0.75755 0.31729 0.0
O212 O 0.40181 0.74713 0.35517 0.0
Mg213 Mg 0.43935 0.82867 0.36531 0.0
C214 C 0.37047 0.72779 0.3358 0.0
C215 C 0.24223 0.88349 0.27571 0.0
O216 O 0.26948 0.92712 0.28083 0.0
O217 O 0.29679 0.86035 0.35622 0.0
O218 O 0.36725 0.86837 0.38586 0.0
O219 O 0.40359 0.84989 0.27518 0.0
O220 O 0.41559 0.86127 0.3228 0.0
C221 C 0.31778 0.87342 0.38103 0.0
C222 C 0.43582 0.85863 0.29692 0.0
O223 O 0.25936 0.8396 0.28588 0.0
Mg224 Mg 0.61419 0.0804 0.54773 0.0
O225 O 0.52727 0.09146 0.56126 0.0
O226 O 0.53712 0.14082 0.60213 0.0
Mg227 Mg 0.62717 0.1634 0.61351 0.0
C228 C 0.50756 0.1164 0.58328 0.0
C229 C 0.63637 -0.01727 0.51153 0.0
O230 O 0.68279 -0.00134 0.52151 0.0
O231 O 0.6212 0.02511 0.58932 0.0
O232 O 0.67107 0.08672 0.60659 0.0
O233 O 0.6061 0.15698 0.51952 0.0
O234 O 0.63063 0.15579 0.56586 0.0
C235 C 0.64226 0.04709 0.61185 0.0
C236 C 0.6161 0.18303 0.54351 0.0
O237 O 0.59501 0.00911 0.51831 0.0
Mg238 Mg 0.09606 0.36419 0.79771 0.0
O239 O 0.08501 0.27728 0.81124 0.0
O240 O 0.03566 0.28713 0.85212 0.0
Mg241 Mg 0.01309 0.37718 0.86349 0.0
C242 C 0.06008 0.25757 0.83326 0.0
C243 C 0.19364 0.38636 0.76144 0.0
O244 O 0.17763 0.4328 0.77134 0.0
O245 O 0.15138 0.37121 0.83929 0.0
O246 O 0.08976 0.42109 0.85656 0.0
O247 O 0.01949 0.35609 0.7695 0.0
O248 O 0.02069 0.38063 0.81583 0.0
C249 C 0.12939 0.39228 0.86182 0.0
C250 C -0.00656 0.3661 0.79349 0.0
O251 O 0.16734 0.34499 0.7683 0.0
Mg252 Mg 0.81229 0.84606 0.04766 0.0
O253 O 0.8992 0.83501 0.06119 0.0
O254 O 0.88936 0.78567 0.10207 0.0
Mg255 Mg 0.79931 0.7631 0.11344 0.0
C256 C 0.91892 0.81009 0.08321 0.0
C257 C 0.79014 0.94368 0.01143 0.0
O258 O 0.7437 0.92772 0.02136 0.0
O259 O 0.80529 0.90137 0.08925 0.0
O260 O 0.7554 0.83977 0.10652 0.0
O261 O 0.82038 0.76949 0.01945 0.0
O262 O 0.79584 0.77069 0.06578 0.0
C263 C 0.78422 0.87939 0.11178 0.0
C264 C 0.81038 0.74344 0.04344 0.0
O265 O 0.8315 0.91734 0.01825 0.0
Mg266 Mg 0.33037 0.56239 0.29767 0.0
O267 O 0.34145 0.6493 0.3112 0.0
O268 O 0.39078 0.63945 0.35208 0.0
Mg269 Mg 0.41333 0.54939 0.36346 0.0
C270 C 0.36638 0.66901 0.33322 0.0
C271 C 0.23271 0.54024 0.26147 0.0
O272 O 0.24863 0.49382 0.27145 0.0
O273 O 0.27506 0.5554 0.33926 0.0
O274 O 0.33665 0.50549 0.35653 0.0
O275 O 0.40695 0.57045 0.26946 0.0
O276 O 0.40575 0.54593 0.3158 0.0
C277 C 0.29703 0.53432 0.3618 0.0
C278 C 0.433 0.56044 0.29345 0.0
O279 O 0.2591 0.58159 0.26826 0.0
Mg280 Mg 0.59919 0.83849 0.45868 0.0
O281 O 0.50751 0.83051 0.45193 0.0
O282 O 0.49709 0.77472 0.41405 0.0
Mg283 Mg 0.57863 0.73716 0.40392 0.0
C284 C 0.47776 0.80606 0.43342 0.0
C285 C 0.63342 0.93417 0.49361 0.0
O286 O 0.67703 0.90683 0.48859 0.0
O287 O 0.61033 0.87972 0.413 0.0
O288 O 0.61837 0.80925 0.38337 0.0
O289 O 0.59985 0.77292 0.49404 0.0
O290 O 0.61122 0.76093 0.44642 0.0
C291 C 0.62344 0.85872 0.3882 0.0
C292 C 0.60859 0.74069 0.47231 0.0
O293 O 0.58956 0.91715 0.48335 0.0
Mg294 Mg 0.33798 0.34915 0.70872 0.0
O295 O 0.34599 0.25747 0.70197 0.0
O296 O 0.40179 0.24707 0.6641 0.0
Mg297 Mg 0.43931 0.32862 0.65396 0.0
C298 C 0.37045 0.22772 0.68346 0.0
C299 C 0.2422 0.3834 0.74353 0.0
O300 O 0.26945 0.42703 0.73841 0.0
O301 O 0.29674 0.36026 0.66304 0.0
O302 O 0.36721 0.36834 0.63341 0.0
O303 O 0.40353 0.34983 0.74409 0.0
O304 O 0.41554 0.3612 0.69647 0.0
C305 C 0.31775 0.37339 0.63824 0.0
C306 C 0.43577 0.35857 0.72236 0.0
O307 O 0.25933 0.3395 0.73337 0.0
Mg308 Mg 0.82737 0.08798 0.95868 0.0
O309 O 0.91904 0.09601 0.95194 0.0
O310 O 0.92944 0.15181 0.91407 0.0
Mg311 Mg 0.84788 0.18931 0.90393 0.0
C312 C 0.94879 0.12048 0.93344 0.0
C313 C 0.79312 -0.00776 0.99352 0.0
O314 O 0.7495 0.01954 0.98843 0.0
O315 O 0.81626 0.04674 0.91302 0.0
O316 O 0.80817 0.1172 0.88338 0.0
O317 O 0.82668 0.15352 0.99406 0.0
O318 O 0.8153 0.16553 0.94644 0.0
C319 C 0.80313 0.06774 0.88821 0.0
C320 C 0.81793 0.18576 0.97233 0.0
O321 O 0.83701 0.00933 0.98334 0.0
Mg322 Mg 0.08849 0.57742 0.20864 0.0
O323 O 0.08049 0.6691 0.2019 0.0
O324 O 0.0247 0.67949 0.16402 0.0
Mg325 Mg -0.01283 0.59794 0.15389 0.0
C326 C 0.05603 0.69884 0.18339 0.0
C327 C 0.18416 0.54321 0.24356 0.0
O328 O 0.15681 0.49961 0.23852 0.0
O329 O 0.12974 0.56632 0.16297 0.0
O330 O 0.05927 0.55822 0.13334 0.0
O331 O 0.02295 0.57673 0.24402 0.0
O332 O 0.01094 0.56536 0.19639 0.0
C333 C 0.10874 0.55318 0.13817 0.0
C334 C -0.00929 0.56798 0.22228 0.0
O335 O 0.16714 0.58708 0.23331 0.0
Mg336 Mg 0.31235 0.84615 0.47154 0.0
O337 O 0.39927 0.83508 0.45802 0.0
O338 O 0.38941 0.78574 0.41713 0.0
Mg339 Mg 0.29936 0.76318 0.40575 0.0
C340 C 0.41897 0.81015 0.43599 0.0
C341 C 0.29019 0.94385 0.5077 0.0
O342 O 0.24379 0.92797 0.49768 0.0
O343 O 0.30537 0.90146 0.42995 0.0
O344 O 0.25546 0.83986 0.41267 0.0
O345 O 0.32041 0.76957 0.49975 0.0
O346 O 0.2959 0.77077 0.45341 0.0
C347 C 0.28429 0.87949 0.40741 0.0
C348 C 0.31041 0.74352 0.47575 0.0
O349 O 0.33154 0.91742 0.50095 0.0
Mg350 Mg 0.83041 0.56232 0.22152 0.0
O351 O 0.84146 0.64923 0.20799 0.0
O352 O 0.89083 0.63939 0.16712 0.0
Mg353 Mg 0.9134 0.54933 0.15574 0.0
C354 C 0.8664 0.66894 0.18597 0.0
C355 C 0.73282 0.54013 0.25779 0.0
O356 O 0.74884 0.49369 0.24789 0.0
O357 O 0.77511 0.55529 0.17993 0.0
O358 O 0.83673 0.50542 0.16267 0.0
O359 O 0.90698 0.57043 0.24973 0.0
O360 O 0.90579 0.54589 0.2034 0.0
C361 C 0.7971 0.53423 0.1574 0.0
C362 C 0.93303 0.56043 0.22574 0.0
O363 O 0.75912 0.5815 0.25093 0.0
Mg364 Mg 0.1142 0.08046 0.97158 0.0
O365 O 0.02728 0.09151 0.95804 0.0
O366 O 0.03713 0.14085 0.91716 0.0
Mg367 Mg 0.12719 0.16342 0.90579 0.0
C368 C 0.00757 0.11643 0.93602 0.0
C369 C 0.13635 -0.01711 1.00784 0.0
O370 O 0.1828 -0.0011 0.99794 0.0
O371 O 0.12121 0.02515 0.92999 0.0
O372 O 0.17109 0.08675 0.91272 0.0
O373 O 0.10611 0.15704 0.99978 0.0
O374 O 0.13065 0.15584 0.95345 0.0
C375 C 0.14227 0.04712 0.90746 0.0
C376 C 0.11611 0.18308 0.97579 0.0
O377 O 0.09498 0.0092 1.00098 0.0
Mg378 Mg 0.59607 0.36418 0.7216 0.0
O379 O 0.58501 0.27726 0.70807 0.0
O380 O 0.53567 0.28711 0.66719 0.0
Mg381 Mg 0.5131 0.37717 0.65581 0.0
C382 C 0.56008 0.25755 0.68604 0.0
C383 C 0.69373 0.38633 0.7578 0.0
O384 O 0.6778 0.43275 0.74784 0.0
O385 O 0.65138 0.37117 0.68 0.0
O386 O 0.58978 0.42107 0.66273 0.0
O387 O 0.5195 0.3561 0.74981 0.0
O388 O 0.5207 0.38063 0.70347 0.0
C389 C 0.6294 0.39225 0.65747 0.0
C390 C 0.49345 0.3661 0.72581 0.0
O391 O 0.66735 0.34497 0.751 0.0
Mg392 Mg 0.32735 0.08802 0.56059 0.0
O393 O 0.41903 0.09602 0.56734 0.0
O394 O 0.42944 0.15181 0.60522 0.0
Mg395 Mg 0.34789 0.18934 0.61536 0.0
C396 C 0.44878 0.12047 0.58585 0.0
C397 C 0.29315 -0.0076 0.52562 0.0
O398 O 0.24956 0.01979 0.53061 0.0
O399 O 0.31623 0.04678 0.60626 0.0
O400 O 0.30816 0.11724 0.6359 0.0
O401 O 0.32667 0.15358 0.52522 0.0
O402 O 0.3153 0.16558 0.57285 0.0
C403 C 0.30311 0.06778 0.63107 0.0
C404 C 0.31793 0.18581 0.54696 0.0
O405 O 0.337 0.00938 0.53592 0.0
Mg406 Mg 0.58848 0.57734 0.31054 0.0
O407 O 0.5805 0.66902 0.31729 0.0
O408 O 0.52471 0.67943 0.35517 0.0
Mg409 Mg 0.48715 0.5979 0.3653 0.0
C410 C 0.55605 0.69877 0.3358 0.0
C411 C 0.68426 0.54308 0.2757 0.0
O412 O 0.65701 0.49945 0.28081 0.0
O413 O 0.62971 0.5662 0.35622 0.0
O414 O 0.55923 0.55816 0.38585 0.0
O415 O 0.52292 0.57668 0.27517 0.0
O416 O 0.51092 0.5653 0.32279 0.0
C417 C 0.6087 0.55309 0.38102 0.0
C418 C 0.49069 0.56794 0.29691 0.0
O419 O 0.66714 0.58697 0.28588 0.0
Mg420 Mg 0.09912 0.83854 0.06054 0.0
O421 O 0.00744 0.83051 0.06728 0.0
O422 O -0.00295 0.77472 0.10516 0.0
Mg423 Mg 0.07861 0.73722 0.1153 0.0
C424 C -0.0223 0.80604 0.08579 0.0
C425 C 0.13337 0.93433 0.02575 0.0
O426 O 0.177 0.90709 0.03087 0.0
O427 O 0.11022 0.87979 0.10621 0.0
O428 O 0.11832 0.80933 0.13584 0.0
O429 O 0.09982 0.773 0.02517 0.0
O430 O 0.11119 0.76099 0.07279 0.0
C431 C 0.12336 0.8588 0.13101 0.0
C432 C 0.10857 0.74077 0.0469 0.0
O433 O 0.08947 0.91719 0.03589 0.0
Mg434 Mg 0.83798 0.34912 0.81059 0.0
O435 O 0.84599 0.25744 0.81733 0.0
O436 O 0.9018 0.24705 0.85521 0.0
Mg437 Mg 0.93932 0.3286 0.86535 0.0
C438 C 0.87046 0.2277 0.83584 0.0
C439 C 0.74229 0.38335 0.77571 0.0
O440 O 0.76963 0.42695 0.78076 0.0
O441 O 0.79674 0.36022 0.85626 0.0
O442 O 0.86721 0.36832 0.88589 0.0
O443 O 0.90352 0.34981 0.77522 0.0
O444 O 0.91554 0.36118 0.82284 0.0
C445 C 0.81775 0.37336 0.88107 0.0
C446 C 0.93576 0.35856 0.79695 0.0
O447 O 0.75933 0.33947 0.78594 0.0
loop_
_geom_bond_atom_site_label_1
_geom_bond_atom_site_label_2
_geom_bond_distance
_geom_bond_site_symmetry_2
_ccdc_geom_bond_type
Mg0 O1 2.028 . S
Mg0 O7 1.986 . S
Mg0 O9 2.114 . S
Mg0 O10 2.251 . S
Mg0 O13 2.010 . S
O1 Mg0 2.028 . S
O1 C4 1.250 . S
O2 Mg3 2.028 . S
O2 C4 1.248 . S
Mg3 O2 2.028 . S
Mg3 O8 2.032 . S
Mg3 O10 2.079 . S
C4 O1 1.250 . S
C4 O2 1.248 . S
C5 O6 1.264 1_554 S
C5 O13 1.249 . S
O6 C5 1.264 1_556 S
O7 Mg0 1.986 . S
O7 C11 1.246 . S
O8 Mg3 2.032 . S
O8 C11 1.259 . S
O9 Mg0 2.114 . S
O9 C12 1.252 . S
O10 Mg0 2.251 . S
O10 Mg3 2.079 . S
O10 C12 1.273 . S
C11 O7 1.246 . S
C11 O8 1.259 . S
C12 O9 1.252 . S
C12 O10 1.273 . S
O13 Mg0 2.010 . S
O13 C5 1.249 . S
Mg14 O15 2.028 . S
Mg14 O21 1.986 . S
Mg14 O23 2.114 . S
Mg14 O24 2.251 . S
Mg14 O27 2.010 . S
O15 Mg14 2.028 . S
O15 C18 1.250 . S
O16 Mg17 2.028 . S
O16 C18 1.248 . S
Mg17 O16 2.028 . S
Mg17 O22 2.032 . S
Mg17 O24 2.079 . S
C18 O15 1.250 . S
C18 O16 1.248 . S
C19 O20 1.264 1_565 S
C19 O27 1.249 . S
O20 C19 1.264 1_545 S
O21 Mg14 1.986 . S
O21 C25 1.246 . S
O22 Mg17 2.032 . S
O22 C25 1.259 . S
O23 Mg14 2.114 . S
O23 C26 1.252 . S
O24 Mg14 2.251 . S
O24 Mg17 2.079 . S
O24 C26 1.273 . S
C25 O21 1.246 . S
C25 O22 1.259 . S
C26 O23 1.252 . S
C26 O24 1.273 . S
O27 Mg14 2.010 . S
O27 C19 1.249 . S
Mg28 O29 2.028 . S
Mg28 O35 1.986 . S
Mg28 O37 2.114 . S
Mg28 O38 2.251 . S
Mg28 O41 2.010 . S
O29 Mg28 2.028 . S
O29 C32 1.250 . S
O30 Mg31 2.028 . S
O30 C32 1.248 . S
Mg31 O30 2.028 . S
Mg31 O36 2.032 . S
Mg31 O38 2.079 . S
C32 O29 1.250 . S
C32 O30 1.248 . S
C33 O34 1.264 . S
C33 O41 1.249 . S
O34 C33 1.264 . S
O35 Mg28 1.986 . S
O35 C39 1.246 . S
O36 Mg31 2.032 . S
O36 C39 1.259 . S
O37 Mg28 2.114 . S
O37 C40 1.252 . S
O38 Mg28 2.251 . S
O38 Mg31 2.079 . S
O38 C40 1.273 . S
C39 O35 1.246 . S
C39 O36 1.259 . S
C40 O37 1.252 . S
C40 O38 1.273 . S
O41 Mg28 2.010 . S
O41 C33 1.249 . S
Mg42 O43 2.028 . S
Mg42 O49 1.986 . S
Mg42 O51 2.114 . S
Mg42 O52 2.251 . S
Mg42 O55 2.010 . S
O43 Mg42 2.028 . S
O43 C46 1.250 . S
O44 Mg45 2.028 . S
O44 C46 1.248 . S
Mg45 O44 2.028 . S
Mg45 O50 2.032 . S
Mg45 O52 2.079 . S
C46 O43 1.250 . S
C46 O44 1.248 . S
C47 O48 1.264 1_545 S
C47 O55 1.249 . S
O48 C47 1.264 1_565 S
O49 Mg42 1.986 . S
O49 C53 1.246 . S
O50 Mg45 2.032 . S
O50 C53 1.259 . S
O51 Mg42 2.114 . S
O51 C54 1.252 . S
O52 Mg42 2.251 . S
O52 Mg45 2.079 . S
O52 C54 1.273 . S
C53 O49 1.246 . S
C53 O50 1.259 . S
C54 O51 1.252 . S
C54 O52 1.273 . S
O55 Mg42 2.010 . S
O55 C47 1.249 . S
Mg56 O57 2.028 . S
Mg56 O63 1.986 . S
Mg56 O65 2.114 . S
Mg56 O66 2.251 . S
Mg56 O69 2.010 . S
O57 Mg56 2.028 . S
O57 C60 1.250 . S
O58 Mg59 2.028 . S
O58 C60 1.248 . S
Mg59 O58 2.028 . S
Mg59 O64 2.032 . S
Mg59 O66 2.079 . S
C60 O57 1.250 . S
C60 O58 1.248 . S
C61 O62 1.264 1_556 S
C61 O69 1.249 . S
O62 C61 1.264 1_554 S
O63 Mg56 1.986 . S
O63 C67 1.246 . S
O64 Mg59 2.032 . S
O64 C67 1.259 . S
O65 Mg56 2.114 . S
O65 C68 1.252 . S
O66 Mg56 2.251 . S
O66 Mg59 2.079 . S
O66 C68 1.273 . S
C67 O63 1.246 . S
C67 O64 1.259 . S
C68 O65 1.252 . S
C68 O66 1.273 . S
O69 Mg56 2.010 . S
O69 C61 1.249 . S
Mg70 O71 2.028 . S
Mg70 O77 1.986 . S
Mg70 O79 2.114 . S
Mg70 O80 2.251 . S
Mg70 O83 2.010 . S
O71 Mg70 2.028 . S
O71 C74 1.250 . S
O72 Mg73 2.028 . S
O72 C74 1.248 . S
Mg73 O72 2.028 . S
Mg73 O78 2.032 . S
Mg73 O80 2.079 . S
C74 O71 1.250 . S
C74 O72 1.248 . S
C75 O76 1.264 1_565 S
C75 O83 1.249 . S
O76 C75 1.264 1_545 S
O77 Mg70 1.986 . S
O77 C81 1.246 . S
O78 Mg73 2.032 . S
O78 C81 1.259 . S
O79 Mg70 2.114 . S
O79 C82 1.252 . S
O80 Mg70 2.251 . S
O80 Mg73 2.079 . S
O80 C82 1.273 . S
C81 O77 1.246 . S
C81 O78 1.259 . S
C82 O79 1.252 . S
C82 O80 1.273 . S
O83 Mg70 2.010 . S
O83 C75 1.249 . S
Mg84 O85 2.028 . S
Mg84 O91 1.986 . S
Mg84 O93 2.114 . S
Mg84 O94 2.251 . S
Mg84 O97 2.010 . S
O85 Mg84 2.028 . S
O85 C88 1.250 . S
O86 Mg87 2.028 . S
O86 C88 1.248 . S
Mg87 O86 2.028 . S
Mg87 O92 2.032 . S
Mg87 O94 2.079 . S
C88 O85 1.250 . S
C88 O86 1.248 . S
C89 O90 1.264 . S
C89 O97 1.249 . S
O90 C89 1.264 . S
O91 Mg84 1.986 . S
O91 C95 1.246 . S
O92 Mg87 2.032 . S
O92 C95 1.259 . S
O93 Mg84 2.114 . S
O93 C96 1.252 . S
O94 Mg84 2.251 . S
O94 Mg87 2.079 . S
O94 C96 1.273 . S
C95 O91 1.246 . S
C95 O92 1.259 . S
C96 O93 1.252 . S
C96 O94 1.273 . S
O97 Mg84 2.010 . S
O97 C89 1.249 . S
Mg98 O99 2.028 . S
Mg98 O105 1.986 . S
Mg98 O107 2.114 . S
Mg98 O108 2.251 . S
Mg98 O111 2.010 . S
O99 Mg98 2.028 . S
O99 C102 1.250 . S
O100 Mg101 2.028 . S
O100 C102 1.248 . S
Mg101 O100 2.028 . S
Mg101 O106 2.032 . S
Mg101 O108 2.079 . S
C102 O99 1.250 . S
C102 O100 1.248 . S
C103 O104 1.264 1_545 S
C103 O111 1.249 . S
O104 C103 1.264 1_565 S
O105 Mg98 1.986 . S
O105 C109 1.246 . S
O106 Mg101 2.032 . S
O106 C109 1.259 . S
O107 Mg98 2.114 . S
O107 C110 1.252 . S
O108 Mg98 2.251 . S
O108 Mg101 2.079 . S
O108 C110 1.273 . S
C109 O105 1.246 . S
C109 O106 1.259 . S
C110 O107 1.252 . S
C110 O108 1.273 . S
O111 Mg98 2.010 . S
O111 C103 1.249 . S
Mg112 O113 2.028 . S
Mg112 O119 1.986 . S
Mg112 O121 2.114 . S
Mg112 O122 2.251 . S
Mg112 O125 2.010 . S
O113 Mg112 2.028 . S
O113 C116 1.250 . S
O114 Mg115 2.028 . S
O114 C116 1.248 . S
Mg115 O114 2.028 . S
Mg115 O120 2.032 . S
Mg115 O122 2.079 . S
C116 O113 1.250 . S
C116 O114 1.248 . S
C117 O118 1.264 1_556 S
C117 O125 1.249 . S
O118 C117 1.264 1_554 S
O119 Mg112 1.986 . S
O119 C123 1.246 . S
O120 Mg115 2.032 . S
O120 C123 1.259 . S
O121 Mg112 2.114 . S
O121 C124 1.252 . S
O122 Mg112 2.251 . S
O122 Mg115 2.079 . S
O122 C124 1.273 . S
C123 O119 1.246 . S
C123 O120 1.259 . S
C124 O121 1.252 . S
C124 O122 1.273 . S
O125 Mg112 2.010 . S
O125 C117 1.249 . S
Mg126 O127 2.028 . S
Mg126 O133 1.986 . S
Mg126 O135 2.114 . S
Mg126 O136 2.251 . S
Mg126 O139 2.010 . S
O127 Mg126 2.028 . S
O127 C130 1.250 . S
O128 Mg129 2.028 . S
O128 C130 1.248 . S
Mg129 O128 2.028 . S
Mg129 O134 2.032 . S
Mg129 O136 2.079 . S
C130 O127 1.250 . S
C130 O128 1.248 . S
C131 O132 1.264 1_545 S
C131 O139 1.249 . S
O132 C131 1.264 1_565 S
O133 Mg126 1.986 . S
O133 C137 1.246 . S
O134 Mg129 2.032 . S
O134 C137 1.259 . S
O135 Mg126 2.114 . S
O135 C138 1.252 . S
O136 Mg126 2.251 . S
O136 Mg129 2.079 . S
O136 C138 1.273 . S
C137 O133 1.246 . S
C137 O134 1.259 . S
C138 O135 1.252 . S
C138 O136 1.273 . S
O139 Mg126 2.010 . S
O139 C131 1.249 . S
Mg140 O141 2.028 . S
Mg140 O147 1.986 . S
Mg140 O149 2.114 . S
Mg140 O150 2.251 . S
Mg140 O153 2.010 . S
O141 Mg140 2.028 . S
O141 C144 1.250 . S
O142 Mg143 2.028 . S
O142 C144 1.248 . S
Mg143 O142 2.028 . S
Mg143 O148 2.032 . S
Mg143 O150 2.079 . S
C144 O141 1.250 . S
C144 O142 1.248 . S
C145 O146 1.264 . S
C145 O153 1.249 . S
O146 C145 1.264 . S
O147 Mg140 1.986 . S
O147 C151 1.246 . S
O148 Mg143 2.032 . S
O148 C151 1.259 . S
O149 Mg140 2.114 . S
O149 C152 1.252 . S
O150 Mg140 2.251 . S
O150 Mg143 2.079 . S
O150 C152 1.273 . S
C151 O147 1.246 . S
C151 O148 1.259 . S
C152 O149 1.252 . S
C152 O150 1.273 . S
O153 Mg140 2.010 . S
O153 C145 1.249 . S
Mg154 O155 2.028 . S
Mg154 O161 1.986 . S
Mg154 O163 2.114 . S
Mg154 O164 2.251 . S
Mg154 O167 2.010 . S
O155 Mg154 2.028 . S
O155 C158 1.250 . S
O156 Mg157 2.028 . S
O156 C158 1.248 . S
Mg157 O156 2.028 . S
Mg157 O162 2.032 . S
Mg157 O164 2.079 . S
C158 O155 1.250 . S
C158 O156 1.248 . S
C159 O160 1.264 1_565 S
C159 O167 1.249 . S
O160 C159 1.264 1_545 S
O161 Mg154 1.986 . S
O161 C165 1.246 . S
O162 Mg157 2.032 . S
O162 C165 1.259 . S
O163 Mg154 2.114 . S
O163 C166 1.252 . S
O164 Mg154 2.251 . S
O164 Mg157 2.079 . S
O164 C166 1.273 . S
C165 O161 1.246 . S
C165 O162 1.259 . S
C166 O163 1.252 . S
C166 O164 1.273 . S
O167 Mg154 2.010 . S
O167 C159 1.249 . S
Mg168 O169 2.028 . S
Mg168 O175 1.986 . S
Mg168 O177 2.114 . S
Mg168 O178 2.251 . S
Mg168 O181 2.010 . S
O169 Mg168 2.028 . S
O169 C172 1.250 . S
O170 Mg171 2.028 . S
O170 C172 1.248 . S
Mg171 O170 2.028 . S
Mg171 O176 2.032 . S
Mg171 O178 2.079 . S
C172 O169 1.250 . S
C172 O170 1.248 . S
C173 O174 1.264 1_554 S
C173 O181 1.249 . S
O174 C173 1.264 1_556 S
O175 Mg168 1.986 . S
O175 C179 1.246 . S
O176 Mg171 2.032 . S
O176 C179 1.259 . S
O177 Mg168 2.114 . S
O177 C180 1.252 . S
O178 Mg168 2.251 . S
O178 Mg171 2.079 . S
O178 C180 1.273 . S
C179 O175 1.246 . S
C179 O176 1.259 . S
C180 O177 1.252 . S
C180 O178 1.273 . S
O181 Mg168 2.010 . S
O181 C173 1.249 . S
Mg182 O183 2.028 . S
Mg182 O189 1.986 . S
Mg182 O191 2.114 . S
Mg182 O192 2.251 . S
Mg182 O195 2.010 . S
O183 Mg182 2.028 . S
O183 C186 1.250 . S
O184 Mg185 2.028 . S
O184 C186 1.248 . S
Mg185 O184 2.028 . S
Mg185 O190 2.032 . S
Mg185 O192 2.079 . S
C186 O183 1.250 . S
C186 O184 1.248 . S
C187 O188 1.264 1_545 S
C187 O195 1.249 . S
O188 C187 1.264 1_565 S
O189 Mg182 1.986 . S
O189 C193 1.246 . S
O190 Mg185 2.032 . S
O190 C193 1.259 . S
O191 Mg182 2.114 . S
O191 C194 1.252 . S
O192 Mg182 2.251 . S
O192 Mg185 2.079 . S
O192 C194 1.273 . S
C193 O189 1.246 . S
C193 O190 1.259 . S
C194 O191 1.252 . S
C194 O192 1.273 . S
O195 Mg182 2.010 . S
O195 C187 1.249 . S
Mg196 O197 2.028 . S
Mg196 O203 1.986 . S
Mg196 O205 2.114 . S
Mg196 O206 2.251 . S
Mg196 O209 2.010 . S
O197 Mg196 2.028 . S
O197 C200 1.250 . S
O198 Mg199 2.028 . S
O198 C200 1.248 . S
Mg199 O198 2.028 . S
Mg199 O204 2.032 . S
Mg199 O206 2.079 . S
C200 O197 1.250 . S
C200 O198 1.248 . S
C201 O202 1.264 . S
C201 O209 1.249 . S
O202 C201 1.264 . S
O203 Mg196 1.986 . S
O203 C207 1.246 . S
O204 Mg199 2.032 . S
O204 C207 1.259 . S
O205 Mg196 2.114 . S
O205 C208 1.252 . S
O206 Mg196 2.251 . S
O206 Mg199 2.079 . S
O206 C208 1.273 . S
C207 O203 1.246 . S
C207 O204 1.259 . S
C208 O205 1.252 . S
C208 O206 1.273 . S
O209 Mg196 2.010 . S
O209 C201 1.249 . S
Mg210 O211 2.028 . S
Mg210 O217 1.986 . S
Mg210 O219 2.114 . S
Mg210 O220 2.251 . S
Mg210 O223 2.010 . S
O211 Mg210 2.028 . S
O211 C214 1.250 . S
O212 Mg213 2.028 . S
O212 C214 1.248 . S
Mg213 O212 2.028 . S
Mg213 O218 2.032 . S
Mg213 O220 2.079 . S
C214 O211 1.250 . S
C214 O212 1.248 . S
C215 O216 1.264 1_565 S
C215 O223 1.249 . S
O216 C215 1.264 1_545 S
O217 Mg210 1.986 . S
O217 C221 1.246 . S
O218 Mg213 2.032 . S
O218 C221 1.259 . S
O219 Mg210 2.114 . S
O219 C222 1.252 . S
O220 Mg210 2.251 . S
O220 Mg213 2.079 . S
O220 C222 1.273 . S
C221 O217 1.246 . S
C221 O218 1.259 . S
C222 O219 1.252 . S
C222 O220 1.273 . S
O223 Mg210 2.010 . S
O223 C215 1.249 . S
Mg224 O225 2.028 . S
Mg224 O231 1.986 . S
Mg224 O233 2.114 . S
Mg224 O234 2.251 . S
Mg224 O237 2.010 . S
O225 Mg224 2.028 . S
O225 C228 1.250 . S
O226 Mg227 2.028 . S
O226 C228 1.248 . S
Mg227 O226 2.028 . S
Mg227 O232 2.032 . S
Mg227 O234 2.079 . S
C228 O225 1.250 . S
C228 O226 1.248 . S
C229 O230 1.264 . S
C229 O237 1.249 . S
O230 C229 1.264 . S
O231 Mg224 1.986 . S
O231 C235 1.246 . S
O232 Mg227 2.032 . S
O232 C235 1.259 . S
O233 Mg224 2.114 . S
O233 C236 1.252 . S
O234 Mg224 2.251 . S
O234 Mg227 2.079 . S
O234 C236 1.273 . S
C235 O231 1.246 . S
C235 O232 1.259 . S
C236 O233 1.252 . S
C236 O234 1.273 . S
O237 Mg224 2.010 . S
O237 C229 1.249 . S
Mg238 O239 2.028 . S
Mg238 O245 1.986 . S
Mg238 O247 2.114 . S
Mg238 O248 2.251 . S
Mg238 O251 2.010 . S
O239 Mg238 2.028 . S
O239 C242 1.250 . S
O240 Mg241 2.028 . S
O240 C242 1.248 . S
Mg241 O240 2.028 . S
Mg241 O246 2.032 . S
Mg241 O248 2.079 . S
C242 O239 1.250 . S
C242 O240 1.248 . S
C243 O244 1.264 . S
C243 O251 1.249 . S
O244 C243 1.264 . S
O245 Mg238 1.986 . S
O245 C249 1.246 . S
O246 Mg241 2.032 . S
O246 C249 1.259 . S
O247 Mg238 2.114 . S
O247 C250 1.252 . S
O248 Mg238 2.251 . S
O248 Mg241 2.079 . S
O248 C250 1.273 . S
C249 O245 1.246 . S
C249 O246 1.259 . S
C250 O247 1.252 . S
C250 O248 1.273 . S
O251 Mg238 2.010 . S
O251 C243 1.249 . S
Mg252 O253 2.028 . S
Mg252 O259 1.986 . S
Mg252 O261 2.114 . S
Mg252 O262 2.251 . S
Mg252 O265 2.010 . S
O253 Mg252 2.028 . S
O253 C256 1.250 . S
O254 Mg255 2.028 . S
O254 C256 1.248 . S
Mg255 O254 2.028 . S
Mg255 O260 2.032 . S
Mg255 O262 2.079 . S
C256 O253 1.250 . S
C256 O254 1.248 . S
C257 O258 1.264 1_554 S
C257 O265 1.249 . S
O258 C257 1.264 1_556 S
O259 Mg252 1.986 . S
O259 C263 1.246 . S
O260 Mg255 2.032 . S
O260 C263 1.259 . S
O261 Mg252 2.114 . S
O261 C264 1.252 . S
O262 Mg252 2.251 . S
O262 Mg255 2.079 . S
O262 C264 1.273 . S
C263 O259 1.246 . S
C263 O260 1.259 . S
C264 O261 1.252 . S
C264 O262 1.273 . S
O265 Mg252 2.010 . S
O265 C257 1.249 . S
Mg266 O267 2.028 . S
Mg266 O273 1.986 . S
Mg266 O275 2.114 . S
Mg266 O276 2.251 . S
Mg266 O279 2.010 . S
O267 Mg266 2.028 . S
O267 C270 1.250 . S
O268 Mg269 2.028 . S
O268 C270 1.248 . S
Mg269 O268 2.028 . S
Mg269 O274 2.032 . S
Mg269 O276 2.079 . S
C270 O267 1.250 . S
C270 O268 1.248 . S
C271 O272 1.264 . S
C271 O279 1.249 . S
O272 C271 1.264 . S
O273 Mg266 1.986 . S
O273 C277 1.246 . S
O274 Mg269 2.032 . S
O274 C277 1.259 . S
O275 Mg266 2.114 . S
O275 C278 1.252 . S
O276 Mg266 2.251 . S
O276 Mg269 2.079 . S
O276 C278 1.273 . S
C277 O273 1.246 . S
C277 O274 1.259 . S
C278 O275 1.252 . S
C278 O276 1.273 . S
O279 Mg266 2.010 . S
O279 C271 1.249 . S
Mg280 O281 2.028 . S
Mg280 O287 1.986 . S
Mg280 O289 2.114 . S
Mg280 O290 2.251 . S
Mg280 O293 2.010 . S
O281 Mg280 2.028 . S
O281 C284 1.250 . S
O282 Mg283 2.028 . S
O282 C284 1.248 . S
Mg283 O282 2.028 . S
Mg283 O288 2.032 . S
Mg283 O290 2.079 . S
C284 O281 1.250 . S
C284 O282 1.248 . S
C285 O286 1.264 . S
C285 O293 1.249 . S
O286 C285 1.264 . S
O287 Mg280 1.986 . S
O287 C291 1.246 . S
O288 Mg283 2.032 . S
O288 C291 1.259 . S
O289 Mg280 2.114 . S
O289 C292 1.252 . S
O290 Mg280 2.251 . S
O290 Mg283 2.079 . S
O290 C292 1.273 . S
C291 O287 1.246 . S
C291 O288 1.259 . S
C292 O289 1.252 . S
C292 O290 1.273 . S
O293 Mg280 2.010 . S
O293 C285 1.249 . S
Mg294 O295 2.028 . S
Mg294 O301 1.986 . S
Mg294 O303 2.114 . S
Mg294 O304 2.251 . S
Mg294 O307 2.010 . S
O295 Mg294 2.028 . S
O295 C298 1.250 . S
O296 Mg297 2.028 . S
O296 C298 1.248 . S
Mg297 O296 2.028 . S
Mg297 O302 2.032 . S
Mg297 O304 2.079 . S
C298 O295 1.250 . S
C298 O296 1.248 . S
C299 O300 1.264 . S
C299 O307 1.249 . S
O300 C299 1.264 . S
O301 Mg294 1.986 . S
O301 C305 1.246 . S
O302 Mg297 2.032 . S
O302 C305 1.259 . S
O303 Mg294 2.114 . S
O303 C306 1.252 . S
O304 Mg294 2.251 . S
O304 Mg297 2.079 . S
O304 C306 1.273 . S
C305 O301 1.246 . S
C305 O302 1.259 . S
C306 O303 1.252 . S
C306 O304 1.273 . S
O307 Mg294 2.010 . S
O307 C299 1.249 . S
Mg308 O309 2.028 . S
Mg308 O315 1.986 . S
Mg308 O317 2.114 . S
Mg308 O318 2.251 . S
Mg308 O321 2.010 . S
O309 Mg308 2.028 . S
O309 C312 1.250 . S
O310 Mg311 2.028 . S
O310 C312 1.248 . S
Mg311 O310 2.028 . S
Mg311 O316 2.032 . S
Mg311 O318 2.079 . S
C312 O309 1.250 . S
C312 O310 1.248 . S
C313 O314 1.264 1_556 S
C313 O321 1.249 . S
O314 C313 1.264 1_554 S
O315 Mg308 1.986 . S
O315 C319 1.246 . S
O316 Mg311 2.032 . S
O316 C319 1.259 . S
O317 Mg308 2.114 . S
O317 C320 1.252 . S
O318 Mg308 2.251 . S
O318 Mg311 2.079 . S
O318 C320 1.273 . S
C319 O315 1.246 . S
C319 O316 1.259 . S
C320 O317 1.252 . S
C320 O318 1.273 . S
O321 Mg308 2.010 . S
O321 C313 1.249 . S
Mg322 O323 2.028 . S
Mg322 O329 1.986 . S
Mg322 O331 2.114 . S
Mg322 O332 2.251 . S
Mg322 O335 2.010 . S
O323 Mg322 2.028 . S
O323 C326 1.250 . S
O324 Mg325 2.028 . S
O324 C326 1.248 . S
Mg325 O324 2.028 . S
Mg325 O330 2.032 . S
Mg325 O332 2.079 . S
C326 O323 1.250 . S
C326 O324 1.248 . S
C327 O328 1.264 . S
C327 O335 1.249 . S
O328 C327 1.264 . S
O329 Mg322 1.986 . S
O329 C333 1.246 . S
O330 Mg325 2.032 . S
O330 C333 1.259 . S
O331 Mg322 2.114 . S
O331 C334 1.252 . S
O332 Mg322 2.251 . S
O332 Mg325 2.079 . S
O332 C334 1.273 . S
C333 O329 1.246 . S
C333 O330 1.259 . S
C334 O331 1.252 . S
C334 O332 1.273 . S
O335 Mg322 2.010 . S
O335 C327 1.249 . S
Mg336 O337 2.028 . S
Mg336 O343 1.986 . S
Mg336 O345 2.114 . S
Mg336 O346 2.251 . S
Mg336 O349 2.010 . S
O337 Mg336 2.028 . S
O337 C340 1.250 . S
O338 Mg339 2.028 . S
O338 C340 1.248 . S
Mg339 O338 2.028 . S
Mg339 O344 2.032 . S
Mg339 O346 2.079 . S
C340 O337 1.250 . S
C340 O338 1.248 . S
C341 O342 1.264 . S
C341 O349 1.249 . S
O342 C341 1.264 . S
O343 Mg336 1.986 . S
O343 C347 1.246 . S
O344 Mg339 2.032 . S
O344 C347 1.259 . S
O345 Mg336 2.114 . S
O345 C348 1.252 . S
O346 Mg336 2.251 . S
O346 Mg339 2.079 . S
O346 C348 1.273 . S
C347 O343 1.246 . S
C347 O344 1.259 . S
C348 O345 1.252 . S
C348 O346 1.273 . S
O349 Mg336 2.010 . S
O349 C341 1.249 . S
Mg350 O351 2.028 . S
Mg350 O357 1.986 . S
Mg350 O359 2.114 . S
Mg350 O360 2.251 . S
Mg350 O363 2.010 . S
O351 Mg350 2.028 . S
O351 C354 1.250 . S
O352 Mg353 2.028 . S
O352 C354 1.248 . S
Mg353 O352 2.028 . S
Mg353 O358 2.032 . S
Mg353 O360 2.079 . S
C354 O351 1.250 . S
C354 O352 1.248 . S
C355 O356 1.264 . S
C355 O363 1.249 . S
O356 C355 1.264 . S
O357 Mg350 1.986 . S
O357 C361 1.246 . S
O358 Mg353 2.032 . S
O358 C361 1.259 . S
O359 Mg350 2.114 . S
O359 C362 1.252 . S
O360 Mg350 2.251 . S
O360 Mg353 2.079 . S
O360 C362 1.273 . S
C361 O357 1.246 . S
C361 O358 1.259 . S
C362 O359 1.252 . S
C362 O360 1.273 . S
O363 Mg350 2.010 . S
O363 C355 1.249 . S
Mg364 O365 2.028 . S
Mg364 O371 1.986 . S
Mg364 O373 2.114 . S
Mg364 O374 2.251 . S
Mg364 O377 2.010 . S
O365 Mg364 2.028 . S
O365 C368 1.250 . S
O366 Mg367 2.028 . S
O366 C368 1.248 . S
Mg367 O366 2.028 . S
Mg367 O372 2.032 . S
Mg367 O374 2.079 . S
C368 O365 1.250 . S
C368 O366 1.248 . S
C369 O370 1.264 1_556 S
C369 O377 1.249 . S
O370 C369 1.264 1_554 S
O371 Mg364 1.986 . S
O371 C375 1.246 . S
O372 Mg367 2.032 . S
O372 C375 1.259 . S
O373 Mg364 2.114 . S
O373 C376 1.252 . S
O374 Mg364 2.251 . S
O374 Mg367 2.079 . S
O374 C376 1.273 . S
C375 O371 1.246 . S
C375 O372 1.259 . S
C376 O373 1.252 . S
C376 O374 1.273 . S
O377 Mg364 2.010 . S
O377 C369 1.249 . S
Mg378 O379 2.028 . S
Mg378 O385 1.986 . S
Mg378 O387 2.114 . S
Mg378 O388 2.251 . S
Mg378 O391 2.010 . S
O379 Mg378 2.028 . S
O379 C382 1.250 . S
O380 Mg381 2.028 . S
O380 C382 1.248 . S
Mg381 O380 2.028 . S
Mg381 O386 2.032 . S
Mg381 O388 2.079 . S
C382 O379 1.250 . S
C382 O380 1.248 . S
C383 O384 1.264 . S
C383 O391 1.249 . S
O384 C383 1.264 . S
O385 Mg378 1.986 . S
O385 C389 1.246 . S
O386 Mg381 2.032 . S
O386 C389 1.259 . S
O387 Mg378 2.114 . S
O387 C390 1.252 . S
O388 Mg378 2.251 . S
O388 Mg381 2.079 . S
O388 C390 1.273 . S
C389 O385 1.246 . S
C389 O386 1.259 . S
C390 O387 1.252 . S
C390 O388 1.273 . S
O391 Mg378 2.010 . S
O391 C383 1.249 . S
Mg392 O393 2.028 . S
Mg392 O399 1.986 . S
Mg392 O401 2.114 . S
Mg392 O402 2.251 . S
Mg392 O405 2.010 . S
O393 Mg392 2.028 . S
O393 C396 1.250 . S
O394 Mg395 2.028 . S
O394 C396 1.248 . S
Mg395 O394 2.028 . S
Mg395 O400 2.032 . S
Mg395 O402 2.079 . S
C396 O393 1.250 . S
C396 O394 1.248 . S
C397 O398 1.264 . S
C397 O405 1.249 . S
O398 C397 1.264 . S
O399 Mg392 1.986 . S
O399 C403 1.246 . S
O400 Mg395 2.032 . S
O400 C403 1.259 . S
O401 Mg392 2.114 . S
O401 C404 1.252 . S
O402 Mg392 2.251 . S
O402 Mg395 2.079 . S
O402 C404 1.273 . S
C403 O399 1.246 . S
C403 O400 1.259 . S
C404 O401 1.252 . S
C404 O402 1.273 . S
O405 Mg392 2.010 . S
O405 C397 1.249 . S
Mg406 O407 2.028 . S
Mg406 O413 1.986 . S
Mg406 O415 2.114 . S
Mg406 O416 2.251 . S
Mg406 O419 2.010 . S
O407 Mg406 2.028 . S
O407 C410 1.250 . S
O408 Mg409 2.028 . S
O408 C410 1.248 . S
Mg409 O408 2.028 . S
Mg409 O414 2.032 . S
Mg409 O416 2.079 . S
C410 O407 1.250 . S
C410 O408 1.248 . S
C411 O412 1.264 . S
C411 O419 1.249 . S
O412 C411 1.264 . S
O413 Mg406 1.986 . S
O413 C417 1.246 . S
O414 Mg409 2.032 . S
O414 C417 1.259 . S
O415 Mg406 2.114 . S
O415 C418 1.252 . S
O416 Mg406 2.251 . S
O416 Mg409 2.079 . S
O416 C418 1.273 . S
C417 O413 1.246 . S
C417 O414 1.259 . S
C418 O415 1.252 . S
C418 O416 1.273 . S
O419 Mg406 2.010 . S
O419 C411 1.249 . S
Mg420 O421 2.028 . S
Mg420 O427 1.986 . S
Mg420 O429 2.114 . S
Mg420 O430 2.251 . S
Mg420 O433 2.010 . S
O421 Mg420 2.028 . S
O421 C424 1.250 . S
O422 Mg423 2.028 . S
O422 C424 1.248 . S
Mg423 O422 2.028 . S
Mg423 O428 2.032 . S
Mg423 O430 2.079 . S
C424 O421 1.250 . S
C424 O422 1.248 . S
C425 O426 1.264 1_554 S
C425 O433 1.249 . S
O426 C425 1.264 1_556 S
O427 Mg420 1.986 . S
O427 C431 1.246 . S
O428 Mg423 2.032 . S
O428 C431 1.259 . S
O429 Mg420 2.114 . S
O429 C432 1.252 . S
O430 Mg420 2.251 . S
O430 Mg423 2.079 . S
O430 C432 1.273 . S
C431 O427 1.246 . S
C431 O428 1.259 . S
C432 O429 1.252 . S
C432 O430 1.273 . S
O433 Mg420 2.010 . S
O433 C425 1.249 . S
Mg434 O435 2.028 . S
Mg434 O441 1.986 . S
Mg434 O443 2.114 . S
Mg434 O444 2.251 . S
Mg434 O447 2.010 . S
O435 Mg434 2.028 . S
O435 C438 1.250 . S
O436 Mg437 2.028 . S
O436 C438 1.248 . S
Mg437 O436 2.028 . S
Mg437 O442 2.032 . S
Mg437 O444 2.079 . S
C438 O435 1.250 . S
C438 O436 1.248 . S
C439 O440 1.264 . S
C439 O447 1.249 . S
O440 C439 1.264 . S
O441 Mg434 1.986 . S
O441 C445 1.246 . S
O442 Mg437 2.032 . S
O442 C445 1.259 . S
O443 Mg434 2.114 . S
O443 C446 1.252 . S
O444 Mg434 2.251 . S
O444 Mg437 2.079 . S
O444 C446 1.273 . S
C445 O441 1.246 . S
C445 O442 1.259 . S
C446 O443 1.252 . S
C446 O444 1.273 . S
O447 Mg434 2.010 . S
O447 C439 1.249 . S
C333 C11 1.324 . S
C291 C25 1.324 . S
C305 C39 1.324 . S
C319 C53 1.324 . S
C67 C249 1.324 . S
C263 C81 1.324 . S
C95 C277 1.324 . S
C109 C235 1.324 . S
C445 C123 1.324 . S
C137 C403 1.324 . S
C151 C417 1.324 . S
C165 C431 1.324 . S
C179 C361 1.324 . S
C193 C375 1.324 . S
C207 C389 1.324 . S
C221 C347 1.324 . S
C4 C172 1.574 1_455 S
C410 C18 1.574 . S
C32 C200 1.574 . S
C438 C46 1.574 . S
C116 C60 1.574 1_655 S
C74 C354 1.574 . S
C88 C144 1.574 . S
C102 C382 1.574 . S
C298 C130 1.574 . S
C326 C158 1.574 . S
C186 C242 1.574 . S
C270 C214 1.574 . S
C396 C228 1.574 . S
C256 C424 1.574 1_655 S
C340 C284 1.574 . S
C368 C312 1.574 1_455 S
C61 C5 0.987 1_556 S
C75 C19 0.987 . S
C33 C89 0.987 . S
C47 C103 0.987 . S
C173 C117 0.987 1_554 S
C187 C131 0.987 . S
C201 C145 0.987 . S
C159 C215 0.987 . S
C229 C285 0.987 1_545 S
C243 C299 0.987 . S
C257 C313 0.987 1_564 S
C271 C327 0.987 . S
C397 C341 0.987 1_545 S
C411 C355 0.987 . S
C425 C369 0.987 1_564 S
C439 C383 0.987 . S
C432 C12 1.233 . S
C26 C222 1.233 . S
C404 C40 1.233 . S
C54 C194 1.233 1_655 S
C376 C68 1.233 . S
C82 C166 1.233 1_655 S
C96 C348 1.233 . S
C138 C110 1.233 . S
C124 C320 1.233 . S
C292 C152 1.233 . S
C180 C264 1.233 . S
C208 C236 1.233 . S
C446 C250 1.233 1_655 S
C278 C418 1.233 . S
C306 C390 1.233 . S
C362 C334 1.233 1_655 S
