# Generated by pormake.
# Topology smm, (6)-cn, num edge types: 1
# Building blocks:
#     Node 0, Type 0, BuildingBlock: BETGAK_clean_sbu_0, # of connection points: 6
#     Node 1, Type 0, BuildingBlock: BETGAK_clean_sbu_0, # of connection points: 6
#     Node 2, Type 0, BuildingBlock: BETGAK_clean_sbu_0, # of connection points: 6
#     Node 3, Type 0, BuildingBlock: BETGAK_clean_sbu_0, # of connection points: 6
#     Node 4, Type 0, BuildingBlock: BETGAK_clean_sbu_0, # of connection points: 6
#     Node 5, Type 0, BuildingBlock: BETGAK_clean_sbu_0, # of connection points: 6
#     Node 6, Type 0, BuildingBlock: BETGAK_clean_sbu_0, # of connection points: 6
#     Node 7, Type 0, BuildingBlock: BETGAK_clean_sbu_0, # of connection points: 6
#     Node 8, Type 0, BuildingBlock: BETGAK_clean_sbu_0, # of connection points: 6
#     Edge 9, Type (0, 0), BuildingBlock: UVAHIK_clean_linker_0, # of connection points: 2
#     Edge 10, Type (0, 0), BuildingBlock: UVAHIK_clean_linker_0, # of connection points: 2
#     Edge 11, Type (0, 0), BuildingBlock: UVAHIK_clean_linker_0, # of connection points: 2
#     Edge 12, Type (0, 0), BuildingBlock: UVAHIK_clean_linker_0, # of connection points: 2
#     Edge 13, Type (0, 0), BuildingBlock: UVAHIK_clean_linker_0, # of connection points: 2
#     Edge 14, Type (0, 0), BuildingBlock: UVAHIK_clean_linker_0, # of connection points: 2
#     Edge 15, Type (0, 0), BuildingBlock: UVAHIK_clean_linker_0, # of connection points: 2
#     Edge 16, Type (0, 0), BuildingBlock: UVAHIK_clean_linker_0, # of connection points: 2
#     Edge 17, Type (0, 0), BuildingBlock: UVAHIK_clean_linker_0, # of connection points: 2
#     Edge 18, Type (0, 0), BuildingBlock: UVAHIK_clean_linker_0, # of connection points: 2
#     Edge 19, Type (0, 0), BuildingBlock: UVAHIK_clean_linker_0, # of connection points: 2
#     Edge 20, Type (0, 0), BuildingBlock: UVAHIK_clean_linker_0, # of connection points: 2
#     Edge 21, Type (0, 0), BuildingBlock: UVAHIK_clean_linker_0, # of connection points: 2
#     Edge 22, Type (0, 0), BuildingBlock: UVAHIK_clean_linker_0, # of connection points: 2
#     Edge 23, Type (0, 0), BuildingBlock: UVAHIK_clean_linker_0, # of connection points: 2
#     Edge 24, Type (0, 0), BuildingBlock: UVAHIK_clean_linker_0, # of connection points: 2
#     Edge 25, Type (0, 0), BuildingBlock: UVAHIK_clean_linker_0, # of connection points: 2
#     Edge 26, Type (0, 0), BuildingBlock: UVAHIK_clean_linker_0, # of connection points: 2
#     Edge 27, Type (0, 0), BuildingBlock: UVAHIK_clean_linker_0, # of connection points: 2
#     Edge 28, Type (0, 0), BuildingBlock: UVAHIK_clean_linker_0, # of connection points: 2
#     Edge 29, Type (0, 0), BuildingBlock: UVAHIK_clean_linker_0, # of connection points: 2
#     Edge 30, Type (0, 0), BuildingBlock: UVAHIK_clean_linker_0, # of connection points: 2
#     Edge 31, Type (0, 0), BuildingBlock: UVAHIK_clean_linker_0, # of connection points: 2
#     Edge 32, Type (0, 0), BuildingBlock: UVAHIK_clean_linker_0, # of connection points: 2
#     Edge 33, Type (0, 0), BuildingBlock: UVAHIK_clean_linker_0, # of connection points: 2
#     Edge 34, Type (0, 0), BuildingBlock: UVAHIK_clean_linker_0, # of connection points: 2
#     Edge 35, Type (0, 0), BuildingBlock: UVAHIK_clean_linker_0, # of connection points: 2
# Relax obj value: 0.051
# Max RMSD: 0.128
# Mean RMSD: 0.128
data_MOF--net-smm--node1-BETGAK_clean_sbu_0--edge1-UVAHIK_clean_linker_0
_symmetry_space_group_name_H-M    P1
_symmetry_Int_Tables_number       1
_symmetry_cell_setting            triclinic
loop_
_symmetry_equiv_pos_as_xyz
'x, y, z'
_cell_length_a     85.972346
_cell_length_b     86.154183
_cell_length_c     18.591084
_cell_angle_alpha  90.146234
_cell_angle_beta   89.8077
_cell_angle_gamma 120.10661
loop_
_atom_site_label
_atom_site_type_symbol
_atom_site_fract_x
_atom_site_fract_y
_atom_site_fract_z
_atom_type_partial_charge
La0 La 0.06011 0.2204 0.98118 0.0
La1 La 1.02874 0.18348 0.02294 0.0
C2 C 0.08492 0.24778 0.91835 0.0
C3 C 0.09108 0.26715 0.90551 0.0
C4 C 0.10196 0.28038 0.95589 0.0
C5 C 0.10923 0.29868 0.94045 0.0
C6 C 0.10595 0.30434 0.87401 0.0
C7 C 0.0948 0.29107 0.82418 0.0
C8 C 0.08754 0.27276 0.83959 0.0
C9 C 0.05388 0.21503 0.11971 0.0
C10 C 1.02399 0.21815 0.02571 0.0
C11 C 1.00266 0.15485 0.07223 0.0
C12 C 0.99511 0.13512 0.06299 0.0
C13 C 0.98503 0.12603 0.00168 0.0
C14 C 0.97723 0.10735 -0.00483 0.0
C15 C 0.97921 0.09718 0.04976 0.0
C16 C 0.98941 0.10631 0.11082 0.0
C17 C 0.99718 0.12499 0.11742 0.0
C18 C 0.03561 0.18934 0.88451 0.0
C19 C 0.06584 0.18618 -0.0058 0.0
O20 O 0.08618 0.2429 0.98376 0.0
O21 O 0.0701 0.2358 0.88671 0.0
O22 O 0.06033 0.23059 0.08914 0.0
O23 O 0.0525 0.20358 0.07417 0.0
O24 O 0.03883 0.22706 -0.01334 0.0
O25 O 1.01889 0.20195 0.05219 0.0
O26 O 1.00144 0.16372 0.01744 0.0
O27 O 1.0182 0.16392 0.10483 0.0
O28 O 1.02979 0.17392 0.91492 0.0
O29 O 0.03631 0.20041 0.93029 0.0
O30 O 0.05003 0.17703 0.02641 0.0
O31 O 0.07153 0.20244 0.96663 0.0
H32 H 0.10516 0.27665 0.00696 0.0
H33 H 0.11752 0.30842 0.9807 0.0
H34 H 0.09211 0.29481 0.7721 0.0
H35 H 0.07948 0.26299 0.79899 0.0
H36 H 0.98303 0.13329 0.95866 0.0
H37 H 0.96969 0.1009 0.94694 0.0
H38 H 0.99107 0.09898 0.15448 0.0
H39 H 1.00465 0.1315 0.16574 0.0
La40 La 0.85973 0.86393 -0.00642 0.0
La41 La 0.89549 0.86661 0.03252 0.0
C42 C 0.83107 0.85713 0.92922 0.0
C43 C 0.81217 0.8431 0.91357 0.0
C44 C 0.79896 0.8357 0.96778 0.0
C45 C 0.78076 0.82452 0.95002 0.0
C46 C 0.7753 0.82056 0.87766 0.0
C47 C 0.78867 0.82748 0.8239 0.0
C48 C 0.80682 0.83861 0.84163 0.0
C49 C 0.86813 0.86885 0.13066 0.0
C50 C 0.86101 0.8282 0.0341 0.0
C51 C 0.92553 0.8741 0.08581 0.0
C52 C 0.94495 0.88694 0.07437 0.0
C53 C 0.95233 0.89221 0.00505 0.0
C54 C 0.97098 0.90308 -0.00454 0.0
C55 C 0.98271 0.90898 0.05495 0.0
C56 C 0.97514 0.90406 0.12433 0.0
C57 C 0.95652 0.89317 0.13381 0.0
C58 C 0.88744 0.86298 0.89452 0.0
C59 C 0.89345 0.90258 0.00703 0.0
O60 O 0.8351 0.86352 -0.00524 0.0
O61 O 0.84401 0.8555 0.89934 0.0
O62 O 0.85833 0.87438 0.09938 0.0
O63 O 0.87115 0.85943 0.08751 0.0
O64 O 0.85247 0.83534 0.00014 0.0
O65 O 0.87729 0.83854 0.06151 0.0
O66 O 0.91728 0.86211 0.03544 0.0
O67 O 0.9156 0.88052 0.11064 0.0
O68 O 0.8969 0.85699 0.9247 0.0
O69 O 0.88443 0.87196 0.93967 0.0
O70 O 0.90226 0.89494 0.03408 0.0
O71 O 0.87717 0.89288 0.9787 0.0
H72 H 0.80257 0.83898 0.02377 0.0
H73 H 0.77089 0.81958 -0.00706 0.0
H74 H 0.78509 0.82451 0.76772 0.0
H75 H 0.81665 0.8442 0.79864 0.0
H76 H 0.94372 0.88761 0.95814 0.0
H77 H 0.97622 0.90641 0.94119 0.0
H78 H 0.98361 0.90859 0.1716 0.0
H79 H 0.95117 0.88933 0.18779 0.0
La80 La 0.2158 1.01907 0.98292 0.0
La81 La 0.2136 0.05246 0.02165 0.0
C82 C 0.22258 0.99703 0.91945 0.0
C83 C 0.23622 0.99135 0.9093 0.0
C84 C 0.23969 0.98205 0.96326 0.0
C85 C 0.25055 0.97449 0.94904 0.0
C86 C 0.2582 0.97594 0.88045 0.0
C87 C 0.25512 0.9857 0.82725 0.0
C88 C 0.24425 0.99323 0.84144 0.0
C89 C 0.21066 0.02266 0.1199 0.0
C90 C 0.25178 0.05589 0.02546 0.0
C91 C 0.20643 0.07534 0.07413 0.0
C92 C 0.19397 0.08233 0.06213 0.0
C93 C 0.18922 0.08483 -0.00741 0.0
C94 C 0.17878 0.09302 0.98264 0.0
C95 C 0.17281 0.09891 0.04196 0.0
C96 C 0.17723 0.09589 0.11151 0.0
C97 C 0.18769 0.08775 0.12135 0.0
C98 C 0.2176 0.04794 0.88389 0.0
C99 C 0.17736 1.01472 -0.0058 0.0
O100 O 0.21445 0.99404 0.98187 0.0
O101 O 0.22586 1.01236 0.89155 0.0
O102 O 0.2052 1.00731 0.08864 0.0
O103 O 0.22025 0.03506 0.07695 0.0
O104 O 0.24452 0.04014 -0.0083 0.0
O105 O 0.24155 0.06207 0.05196 0.0
O106 O 0.21859 0.07891 0.02452 0.0
O107 O 0.19958 0.05894 0.0986 0.0
O108 O 0.22364 0.06342 0.91416 0.0
O109 O 0.20833 0.03598 0.92867 0.0
O110 O 0.18515 0.03107 0.02264 0.0
O111 O 0.18698 1.00812 0.96519 0.0
H112 H 0.23365 0.98018 0.01605 0.0
H113 H 0.25279 0.96732 -0.00822 0.0
H114 H 0.26054 0.98696 0.77354 0.0
H115 H 0.24161 1.00002 0.79831 0.0
H116 H 0.19389 0.08081 0.94581 0.0
H117 H 0.17584 0.0952 0.92824 0.0
H118 H 0.17263 0.09985 0.15865 0.0
H119 H 0.19114 0.08597 0.17551 0.0
La120 La 0.72702 0.55281 0.3189 0.0
La121 La 0.69373 0.51705 0.35798 0.0
C122 C 0.74879 0.58169 0.25505 0.0
C123 C 0.75413 0.60092 0.24488 0.0
C124 C 0.76414 0.61397 0.29727 0.0
C125 C 0.77137 0.63231 0.28268 0.0
C126 C 0.76888 0.63817 0.21521 0.0
C127 C 0.75839 0.62505 0.1637 0.0
C128 C 0.7512 0.60672 0.17825 0.0
C129 C 0.72348 0.54433 0.45594 0.0
C130 C 0.6899 0.5515 0.36156 0.0
C131 C 0.67114 0.48693 0.41105 0.0
C132 C 0.66472 0.46752 0.40086 0.0
C133 C 0.66252 0.45986 0.33207 0.0
C134 C 0.65481 0.44121 0.32384 0.0
C135 C 0.64912 0.42975 0.38418 0.0
C136 C 0.65187 0.4376 0.45299 0.0
C137 C 0.65953 0.45622 0.46111 0.0
C138 C 0.69819 0.52538 0.22019 0.0
C139 C 0.73172 0.51901 0.33025 0.0
O140 O 0.75192 0.57678 0.31747 0.0
O141 O 0.73352 0.56936 0.22728 0.0
O142 O 0.73884 0.55431 0.42459 0.0
O143 O 0.71102 0.54129 0.413 0.0
O144 O 0.70571 0.56012 0.32793 0.0
O145 O 0.68377 0.53511 0.38786 0.0
O146 O 0.6675 0.49499 0.35978 0.0
O147 O 0.68738 0.49704 0.43662 0.0
O148 O 0.68269 0.5159 0.25065 0.0
O149 O 0.71021 0.52826 0.26487 0.0
O150 O 0.7153 0.51032 0.35847 0.0
O151 O 0.7383 0.53522 0.30153 0.0
H152 H 0.76684 0.61008 0.34902 0.0
H153 H 0.77912 0.64194 0.32418 0.0
H154 H 0.75633 0.62895 0.11086 0.0
H155 H 0.74384 0.59707 0.13622 0.0
H156 H 0.66638 0.46824 0.28452 0.0
H157 H 0.65282 0.43575 0.26996 0.0
H158 H 0.64805 0.42936 0.50088 0.0
H159 H 0.6611 0.46177 0.51473 0.0
La160 La 0.52651 0.19645 0.32302 0.0
La161 La 0.56223 0.19908 0.36177 0.0
C162 C 0.49768 0.18944 0.25932 0.0
C163 C 0.47852 0.17541 0.24744 0.0
C164 C 0.46498 0.17317 0.29617 0.0
C165 C 0.44674 0.1619 0.27957 0.0
C166 C 0.44151 0.15264 0.21352 0.0
C167 C 0.4551 0.1545 0.16576 0.0
C168 C 0.47333 0.16577 0.18238 0.0
C169 C 0.53495 0.2015 0.46004 0.0
C170 C 0.52776 0.1607 0.3642 0.0
C171 C 0.59226 0.20656 0.41503 0.0
C172 C 0.61167 0.21939 0.40354 0.0
C173 C 0.61903 0.22466 0.3342 0.0
C174 C 0.63768 0.23551 0.32456 0.0
C175 C 0.64941 0.2414 0.38402 0.0
C176 C 0.64186 0.23649 0.45342 0.0
C177 C 0.62325 0.22561 0.46295 0.0
C178 C 0.55408 0.19534 0.22375 0.0
C179 C 0.56038 0.23508 0.33492 0.0
O180 O 0.5023 0.19691 0.32299 0.0
O181 O 0.51025 0.18702 0.23049 0.0
O182 O 0.52511 0.20696 0.42865 0.0
O183 O 0.53794 0.19202 0.41711 0.0
O184 O 0.51914 0.16783 0.33072 0.0
O185 O 0.5441 0.17104 0.39102 0.0
O186 O 0.584 0.19456 0.36471 0.0
O187 O 0.58235 0.213 0.43982 0.0
O188 O 0.56357 0.18938 0.25395 0.0
O189 O 0.55113 0.20437 0.26885 0.0
O190 O 0.5691 0.22742 0.36283 0.0
O191 O 0.54412 0.22535 0.30638 0.0
H192 H 0.4684 0.18059 0.34627 0.0
H193 H 0.43674 0.16103 0.31744 0.0
H194 H 0.45167 0.14742 0.11488 0.0
H195 H 0.48336 0.16734 0.14313 0.0
H196 H 0.61041 0.22006 0.28732 0.0
H197 H 0.64291 0.23884 0.27028 0.0
H198 H 0.65035 0.24102 0.50066 0.0
H199 H 0.61791 0.22177 0.51695 0.0
La200 La 0.88254 0.35198 0.3147 0.0
La201 La 0.88002 0.38519 0.35313 0.0
C202 C 0.88956 0.33009 0.25145 0.0
C203 C 0.90329 0.32452 0.24143 0.0
C204 C 0.90714 0.31567 0.29606 0.0
C205 C 0.91808 0.30819 0.28212 0.0
C206 C 0.92544 0.30929 0.21316 0.0
C207 C 0.92198 0.31862 0.15926 0.0
C208 C 0.91102 0.32607 0.17317 0.0
C209 C 0.87719 0.35546 0.45157 0.0
C210 C 0.9183 0.38893 0.35792 0.0
C211 C 0.87232 0.4078 0.40441 0.0
C212 C 0.85963 0.41453 0.39127 0.0
C213 C 0.86006 0.42333 0.32692 0.0
C214 C 0.8492 0.43108 0.31829 0.0
C215 C 0.83756 0.43023 0.37364 0.0
C216 C 0.83686 0.42105 0.43731 0.0
C217 C 0.84779 0.41338 0.44604 0.0
C218 C 0.88421 0.38073 0.21546 0.0
C219 C 0.84399 0.34732 0.32535 0.0
O220 O 0.88141 0.32705 0.31381 0.0
O221 O 0.89277 0.34539 0.22351 0.0
O222 O 0.87188 0.34015 0.42028 0.0
O223 O 0.88677 0.3679 0.40874 0.0
O224 O 0.91121 0.37323 0.32382 0.0
O225 O 0.90793 0.39495 0.38437 0.0
O226 O 0.88483 0.41158 0.35613 0.0
O227 O 0.86565 0.39144 0.42921 0.0
O228 O 0.89014 0.39619 0.24575 0.0
O229 O 0.87495 0.36876 0.26016 0.0
O230 O 0.85166 0.36364 0.35398 0.0
O231 O 0.85372 0.34084 0.29641 0.0
H232 H 0.90134 0.31409 0.3492 0.0
H233 H 0.92063 0.30136 0.32536 0.0
H234 H 0.92716 0.3196 0.10529 0.0
H235 H 0.90808 0.33252 0.12958 0.0
H236 H 0.86901 0.42452 0.28345 0.0
H237 H 0.84994 0.43778 0.26811 0.0
H238 H 0.82824 0.42025 0.48148 0.0
H239 H 0.84727 0.40686 0.49648 0.0
La240 La 0.3926 0.88674 0.64827 0.0
La241 La 0.36125 0.8498 0.69002 0.0
C242 C 0.41742 0.91392 0.58454 0.0
C243 C 0.42335 0.93302 0.56797 0.0
C244 C 0.42755 0.94592 0.62239 0.0
C245 C 0.43479 0.96414 0.60507 0.0
C246 C 0.43808 0.96998 0.53294 0.0
C247 C 0.4334 0.95693 0.47869 0.0
C248 C 0.42619 0.93875 0.49601 0.0
C249 C 0.38638 0.88137 0.78677 0.0
C250 C 0.35648 0.88447 0.69241 0.0
C251 C 0.33515 0.82116 0.73913 0.0
C252 C 0.32762 0.80143 0.72971 0.0
C253 C 0.31822 0.79248 0.66697 0.0
C254 C 0.31041 0.77381 0.66028 0.0
C255 C 0.31173 0.76349 0.71607 0.0
C256 C 0.32127 0.7725 0.77854 0.0
C257 C 0.32903 0.79117 0.78533 0.0
C258 C 0.36812 0.85569 0.55162 0.0
C259 C 0.39842 0.85256 0.66199 0.0
O260 O 0.41834 0.90969 0.6514 0.0
O261 O 0.40291 0.90155 0.55249 0.0
O262 O 0.39281 0.89692 0.75619 0.0
O263 O 0.38501 0.86991 0.74125 0.0
O264 O 0.37129 0.89335 0.65317 0.0
O265 O 0.3514 0.86829 0.71916 0.0
O266 O 0.33395 0.83006 0.68442 0.0
O267 O 0.35069 0.83021 0.77182 0.0
O268 O 0.36234 0.84028 0.582 0.0
O269 O 0.3688 0.86675 0.59743 0.0
O270 O 0.38252 0.84332 0.69346 0.0
O271 O 0.40418 0.86888 0.63498 0.0
H272 H 0.42562 0.94202 0.67849 0.0
H273 H 0.43834 0.97372 0.64851 0.0
H274 H 0.43538 0.96075 0.42252 0.0
H275 H 0.42314 0.92916 0.4529 0.0
H276 H 0.31676 0.79985 0.62295 0.0
H277 H 0.3034 0.76746 0.61098 0.0
H278 H 0.32241 0.76506 0.82309 0.0
H279 H 0.33598 0.79758 0.83468 0.0
La280 La 0.19283 0.53018 0.65733 0.0
La281 La 0.22868 0.53314 0.69613 0.0
C282 C 0.16401 0.52294 0.59314 0.0
C283 C 0.14485 0.5089 0.58189 0.0
C284 C 0.13164 0.5053 0.63447 0.0
C285 C 0.11332 0.49408 0.61905 0.0
C286 C 0.10769 0.48619 0.5506 0.0
C287 C 0.12096 0.48935 0.49889 0.0
C288 C 0.13927 0.5006 0.51426 0.0
C289 C 0.20117 0.53521 0.79445 0.0
C290 C 0.1944 0.49462 0.69882 0.0
C291 C 0.25894 0.54092 0.74797 0.0
C292 C 0.2784 0.55363 0.73479 0.0
C293 C 0.28703 0.55276 0.67164 0.0
C294 C 0.30569 0.5637 0.66313 0.0
C295 C 0.31627 0.5758 0.71748 0.0
C296 C 0.30752 0.57692 0.77987 0.0
C297 C 0.28887 0.56595 0.78845 0.0
C298 C 0.2206 0.52948 0.55799 0.0
C299 C 0.22639 0.56892 0.67056 0.0
O300 O 0.16868 0.53071 0.65627 0.0
O301 O 0.17652 0.52033 0.56498 0.0
O302 O 0.19116 0.54046 0.76306 0.0
O303 O 0.20434 0.52586 0.75151 0.0
O304 O 0.18569 0.50162 0.66512 0.0
O305 O 0.21069 0.50509 0.72583 0.0
O306 O 0.25031 0.5284 0.69983 0.0
O307 O 0.24915 0.54754 0.77241 0.0
O308 O 0.23017 0.52362 0.58812 0.0
O309 O 0.21752 0.53838 0.60323 0.0
O310 O 0.23517 0.56136 0.69867 0.0
O311 O 0.21026 0.55911 0.64111 0.0
H312 H 0.13537 0.51154 0.68701 0.0
H313 H 0.10355 0.49177 0.66064 0.0
H314 H 0.11721 0.48373 0.44534 0.0
H315 H 0.14905 0.50333 0.47214 0.0
H316 H 0.27946 0.54336 0.62924 0.0
H317 H 0.31187 0.56224 0.6147 0.0
H318 H 0.31509 0.58626 0.82245 0.0
H319 H 0.28265 0.56689 0.83779 0.0
La320 La 0.5495 0.68645 0.65089 0.0
La321 La 0.54718 0.71978 0.68944 0.0
C322 C 0.55652 0.66459 0.58732 0.0
C323 C 0.57036 0.65915 0.57713 0.0
C324 C 0.5731 0.64893 0.62923 0.0
C325 C 0.58415 0.64161 0.61459 0.0
C326 C 0.59273 0.64422 0.54734 0.0
C327 C 0.5904 0.6549 0.49613 0.0
C328 C 0.57932 0.66219 0.51073 0.0
C329 C 0.54417 0.68992 0.7877 0.0
C330 C 0.58538 0.72332 0.694 0.0
C331 C 0.53985 0.74257 0.74168 0.0
C332 C 0.52731 0.74946 0.7297 0.0
C333 C 0.52261 0.75205 0.66018 0.0
C334 C 0.51209 0.76016 0.65034 0.0
C335 C 0.50599 0.76587 0.70975 0.0
C336 C 0.51035 0.76277 0.77926 0.0
C337 C 0.52089 0.75471 0.789 0.0
C338 C 0.5512 0.71523 0.55163 0.0
C339 C 0.51101 0.68196 0.66218 0.0
O340 O 0.54843 0.66155 0.64984 0.0
O341 O 0.55957 0.67983 0.5593 0.0
O342 O 0.53878 0.6746 0.75628 0.0
O343 O 0.55381 0.70238 0.74503 0.0
O344 O 0.5782 0.70757 0.6603 0.0
O345 O 0.57511 0.72948 0.72012 0.0
O346 O 0.55202 0.74617 0.69204 0.0
O347 O 0.53308 0.72619 0.76628 0.0
O348 O 0.55722 0.73071 0.58188 0.0
O349 O 0.54196 0.70329 0.59651 0.0
O350 O 0.51877 0.69834 0.69028 0.0
O351 O 0.52064 0.67534 0.63344 0.0
H352 H 0.56632 0.64614 0.68078 0.0
H353 H 0.58579 0.63371 0.65587 0.0
H354 H 0.59656 0.65707 0.44346 0.0
H355 H 0.57727 0.66971 0.4689 0.0
H356 H 0.52739 0.74816 0.61334 0.0
H357 H 0.5092 0.76241 0.59598 0.0
H358 H 0.50565 0.7666 0.82646 0.0
H359 H 0.5243 0.75286 0.84314 0.0
C360 C 0.13233 0.3361 0.8772 0.0
C361 C 0.11455 0.32394 0.85603 0.0
C362 C 0.14052 0.35438 0.85973 0.0
C363 C 0.13709 0.38645 0.73501 0.0
H364 H 0.16908 0.42192 0.8726 0.0
C365 C 0.16721 0.46339 0.69124 0.0
C366 C 0.18505 0.4749 0.71348 0.0
C367 C 0.15834 0.44498 0.70761 0.0
C368 C 0.16037 0.41223 0.83302 0.0
H369 H 0.09146 0.32186 0.80023 0.0
H370 H 0.10569 0.35365 0.77003 0.0
H371 H 0.1542 0.3902 0.90327 0.0
H372 H 0.20756 0.47577 0.76962 0.0
H373 H 0.19227 0.44388 0.7972 0.0
H374 H 0.14329 0.40855 0.66478 0.0
C375 C 0.11343 0.34899 0.7993 0.0
C376 C 0.15179 0.39395 0.85071 0.0
C377 C 0.10523 0.33069 0.81675 0.0
C378 C 0.19381 0.46742 0.75178 0.0
C379 C 0.18496 0.44906 0.76815 0.0
C380 C 0.14568 0.40477 0.71732 0.0
C381 C 0.13122 0.36114 0.82052 0.0
C382 C 0.14008 0.38074 0.80189 0.0
C383 C 0.16704 0.43754 0.74679 0.0
C384 C 0.15754 0.41795 0.7659 0.0
H385 H 0.14012 0.33145 0.9062 0.0
H386 H 0.15433 0.36315 0.87597 0.0
H387 H 0.12839 0.37675 0.69547 0.0
H388 H 0.15997 0.46862 0.66182 0.0
H389 H 0.14451 0.43664 0.69074 0.0
C390 C 0.74923 0.81497 0.79811 0.0
C391 C 0.75578 0.81 0.85791 0.0
C392 C 0.73096 0.80543 0.77999 0.0
C393 C 0.6888 0.76178 0.80673 0.0
H394 H 0.66607 0.78827 0.74099 0.0
C395 C 0.61618 0.72634 0.69033 0.0
C396 C 0.60505 0.73332 0.70991 0.0
C397 C 0.63454 0.73551 0.70785 0.0
C398 C 0.67213 0.78063 0.75965 0.0
H399 H 0.74796 0.7908 0.94501 0.0
H400 H 0.71605 0.77429 0.9139 0.0
H401 H 0.69772 0.80438 0.77431 0.0
H402 H 0.60476 0.7556 0.7632 0.0
H403 H 0.63657 0.77147 0.79374 0.0
H404 H 0.66308 0.73803 0.79312 0.0
C405 C 0.72514 0.78552 0.88058 0.0
C406 C 0.6904 0.78988 0.77804 0.0
C407 C 0.74345 0.79513 0.89892 0.0
C408 C 0.61285 0.74979 0.74691 0.0
C409 C 0.63118 0.75898 0.7642 0.0
C410 C 0.67052 0.7525 0.78804 0.0
C411 C 0.71861 0.79059 0.821 0.0
C412 C 0.69903 0.78062 0.80185 0.0
C413 C 0.64231 0.75197 0.74516 0.0
C414 C 0.66189 0.7618 0.76432 0.0
H415 H 0.7582 0.82647 0.76571 0.0
H416 H 0.72654 0.80965 0.73329 0.0
H417 H 0.69497 0.75414 0.82418 0.0
H418 H 0.6107 0.7137 0.6618 0.0
H419 H 0.64268 0.72978 0.69145 0.0
C420 C 0.28387 0.9748 0.818 0.0
C421 C 0.26871 0.96674 0.86348 0.0
C422 C 0.29327 0.96589 0.80008 0.0
C423 C 0.3002 0.92819 0.85677 0.0
H424 H 0.31853 0.93243 0.66271 0.0
C425 C 0.3306 0.88504 0.75507 0.0
C426 C 0.34582 0.89338 0.71001 0.0
C427 C 0.32103 0.89375 0.77349 0.0
C428 C 0.3137 0.93123 0.71743 0.0
H429 H 0.25159 0.94272 0.92508 0.0
H430 H 0.2679 0.92727 0.89402 0.0
H431 H 0.30257 0.94811 0.69592 0.0
H432 H 0.36276 0.91757 0.64898 0.0
H433 H 0.34624 0.93271 0.68131 0.0
H434 H 0.31134 0.91129 0.87822 0.0
C435 C 0.27274 0.94064 0.87301 0.0
C436 C 0.30452 0.94027 0.73658 0.0
C437 C 0.26336 0.94955 0.89097 0.0
C438 C 0.35109 0.91063 0.68352 0.0
C439 C 0.34151 0.91932 0.70183 0.0
C440 C 0.30938 0.91913 0.8376 0.0
C441 C 0.28781 0.94862 0.82697 0.0
C442 C 0.29764 0.93893 0.80661 0.0
C443 C 0.32636 0.91106 0.74732 0.0
C444 C 0.31631 0.92053 0.76764 0.0
H445 H 0.28862 0.98811 0.79657 0.0
H446 H 0.30497 0.97267 0.76559 0.0
H447 H 0.29538 0.92699 0.91149 0.0
H448 H 0.32609 0.87178 0.7766 0.0
H449 H 0.30932 0.88681 0.80784 0.0
C450 C 0.41641 0.14193 0.12235 0.0
C451 C 0.42202 0.14175 0.19329 0.0
C452 C 0.39815 0.13227 0.10369 0.0
C453 C 0.35222 0.11135 0.18333 0.0
H454 H 0.33754 0.08807 -0.00268 0.0
C455 C 0.2793 0.08216 0.07921 0.0
C456 C 0.27146 0.06582 0.04118 0.0
C457 C 0.29762 0.09118 0.09682 0.0
C458 C 0.34134 0.09436 0.04975 0.0
H459 H 0.41255 0.13076 0.29977 0.0
H460 H 0.3808 0.11393 0.2673 0.0
H461 H 0.36923 0.10353 0.03062 0.0
H462 H 0.27703 0.04632 -0.00862 0.0
H463 H 0.30889 0.06195 0.02254 0.0
H464 H 0.32432 0.10191 0.20304 0.0
C465 C 0.39052 0.12181 0.22618 0.0
C466 C 0.3596 0.10344 0.06858 0.0
C467 C 0.40879 0.13148 0.24486 0.0
C468 C 0.28255 0.05888 0.02049 0.0
C469 C 0.3009 0.06792 0.03814 0.0
C470 C 0.33396 0.10229 0.16447 0.0
C471 C 0.3849 0.12211 0.15535 0.0
C472 C 0.36534 0.11212 0.13562 0.0
C473 C 0.3087 0.08416 0.07702 0.0
C474 C 0.32823 0.09369 0.09729 0.0
H475 H 0.42609 0.14992 0.08131 0.0
H476 H 0.39441 0.13312 0.04892 0.0
H477 H 0.35605 0.118 0.23508 0.0
H478 H 0.27127 0.088 0.0959 0.0
H479 H 0.30313 0.10378 0.12562 0.0
C480 C 0.95102 0.30811 0.15023 0.0
C481 C 0.93602 0.30017 0.1966 0.0
C482 C 0.9605 0.29926 0.13279 0.0
C483 C 0.95594 0.25387 0.1294 0.0
H484 H 1.00783 0.28072 0.11044 0.0
C485 C 0.9983 0.21882 0.08941 0.0
C486 C 1.01335 0.22706 0.04349 0.0
C487 C 0.98877 0.22755 0.10813 0.0
C488 C 0.99332 0.273 0.11457 0.0
H489 H 0.91933 0.27646 0.26055 0.0
H490 H 0.936 0.26124 0.23133 0.0
H491 H 0.99172 0.29626 0.14339 0.0
H492 H 1.02996 0.25103 0.98069 0.0
H493 H 1.01329 0.26605 0.01235 0.0
H494 H 0.95754 0.2306 0.1004 0.0
C495 C 0.94035 0.27428 0.20778 0.0
C496 C 0.98404 0.28195 0.1336 0.0
C497 C 0.9309 0.28315 0.22538 0.0
C498 C 1.01849 0.24422 0.01634 0.0
C499 C 1.00897 0.25294 0.03502 0.0
C500 C 0.96522 0.24491 0.1103 0.0
C501 C 0.95526 0.28215 0.16097 0.0
C502 C 0.9652 0.27254 0.14123 0.0
C503 C 0.99401 0.24481 0.08153 0.0
C504 C 0.98406 0.25433 0.10242 0.0
H505 H 0.95551 0.32124 0.12744 0.0
H506 H 0.97178 0.30573 0.09607 0.0
H507 H 0.94143 0.24615 0.13356 0.0
H508 H 0.99395 0.20566 0.11176 0.0
H509 H 0.97748 0.22089 0.14471 0.0
C510 C 0.83371 0.7971 0.02493 0.0
C511 C 0.85144 0.80847 0.04875 0.0
C512 C 0.82459 0.77869 0.04126 0.0
C513 C 0.83231 0.74171 0.10195 0.0
H514 H 0.78163 0.71761 0.1507 0.0
C515 C 0.79545 0.66978 0.22092 0.0
C516 C 0.77782 0.6578 0.19748 0.0
C517 C 0.80412 0.68801 0.20227 0.0
C518 C 0.79574 0.72405 0.13645 0.0
H519 H 0.8734 0.80913 0.10851 0.0
H520 H 0.85755 0.77731 0.13735 0.0
H521 H 0.79722 0.74932 0.11818 0.0
H522 H 0.75548 0.656 0.13676 0.0
H523 H 0.77065 0.68768 0.10361 0.0
H524 H 0.83087 0.71648 0.12048 0.0
C525 C 0.85071 0.78249 0.10513 0.0
C526 C 0.80471 0.7423 0.11765 0.0
C527 C 0.85981 0.80086 0.08883 0.0
C528 C 0.76909 0.66471 0.15537 0.0
C529 C 0.77775 0.68298 0.13691 0.0
C530 C 0.82335 0.72349 0.12084 0.0
C531 C 0.83293 0.77109 0.08183 0.0
C532 C 0.82317 0.75146 0.10036 0.0
C533 C 0.79546 0.6949 0.15967 0.0
C534 C 0.80494 0.71437 0.13869 0.0
H535 H 0.8268 0.80242 -0.00612 0.0
H536 H 0.81103 0.77038 0.02144 0.0
H537 H 0.84642 0.7481 0.08772 0.0
H538 H 0.80275 0.66502 0.25264 0.0
H539 H 0.81765 0.69674 0.22171 0.0
C540 C 0.07601 0.48091 0.55617 0.0
C541 C 0.08809 0.47547 0.53205 0.0
C542 C 0.05783 0.47138 0.53653 0.0
C543 C 1.02199 0.42731 0.4665 0.0
H544 H 0.99834 0.45414 0.41811 0.0
C545 C 0.94939 0.39271 0.35019 0.0
C546 C 0.93797 0.39899 0.37399 0.0
C547 C 0.96775 0.40192 0.36774 0.0
C548 C 1.00462 0.44638 0.43223 0.0
H549 H 0.09017 0.45535 0.46915 0.0
H550 H 0.05853 0.43887 0.43433 0.0
H551 H 1.02987 0.47009 0.45302 0.0
H552 H 0.93714 0.42007 0.43505 0.0
H553 H 0.96889 0.43591 0.46609 0.0
H554 H 0.99668 0.40358 0.44607 0.0
C555 C 0.06313 0.45049 0.46889 0.0
C556 C 1.02278 0.45556 0.45233 0.0
C557 C 0.08136 0.46006 0.48832 0.0
C558 C 0.94547 0.41482 0.41534 0.0
C559 C 0.96378 0.42401 0.4329 0.0
C560 C 1.00379 0.4181 0.44653 0.0
C561 C 0.05111 0.45608 0.49225 0.0
C562 C 1.03174 0.44618 0.47005 0.0
C563 C 0.97523 0.4177 0.40958 0.0
C564 C 0.99479 0.42749 0.42935 0.0
H565 H 0.08067 0.4928 0.58916 0.0
H566 H 0.049 0.47601 0.55641 0.0
H567 H 1.02832 0.41959 0.48059 0.0
H568 H 0.94415 0.3806 0.31816 0.0
H569 H 0.97611 0.39674 0.34788 0.0
C570 C 0.59754 0.61756 0.55258 0.0
C571 C 0.60339 0.63522 0.52959 0.0
C572 C 0.60713 0.60889 0.53432 0.0
C573 C 0.64118 0.6106 0.40424 0.0
H574 H 0.64468 0.57868 0.54135 0.0
C575 C 0.6864 0.57892 0.35456 0.0
C576 C 0.67984 0.56112 0.3773 0.0
C577 C 0.67726 0.58812 0.37216 0.0
C578 C 0.64368 0.58738 0.50194 0.0
H579 H 0.62432 0.65762 0.47003 0.0
H580 H 0.64107 0.64258 0.4386 0.0
H581 H 0.62879 0.59442 0.57446 0.0
H582 H 0.6582 0.53904 0.43578 0.0
H583 H 0.64228 0.55493 0.46564 0.0
H584 H 0.65613 0.60355 0.33179 0.0
C585 C 0.62884 0.63528 0.46982 0.0
C586 C 0.63452 0.59644 0.52101 0.0
C587 C 0.61922 0.64396 0.48801 0.0
C588 C 0.66376 0.55274 0.41741 0.0
C589 C 0.65465 0.56193 0.43509 0.0
C590 C 0.65037 0.60155 0.38519 0.0
C591 C 0.62292 0.61758 0.4925 0.0
C592 C 0.63305 0.60815 0.47241 0.0
C593 C 0.6613 0.57981 0.41318 0.0
C594 C 0.6517 0.58972 0.43363 0.0
H595 H 0.58525 0.61022 0.58343 0.0
H596 H 0.60189 0.59518 0.55184 0.0
H597 H 0.64015 0.61926 0.36479 0.0
H598 H 0.69875 0.58587 0.32378 0.0
H599 H 0.68294 0.60191 0.35483 0.0
C600 C 0.52703 0.13334 0.41621 0.0
C601 C 0.51831 0.14096 0.37853 0.0
C602 C 0.51815 0.11493 0.43165 0.0
C603 C 0.47251 0.07442 0.44703 0.0
H604 H 0.49913 0.0491 0.43928 0.0
C605 C 0.44282 1.00124 0.55289 0.0
C606 C 0.44681 0.98956 0.51429 0.0
C607 C 0.4512 1.01957 0.53563 0.0
C608 C 0.4914 0.05586 0.44123 0.0
H609 H 0.49325 0.13489 0.32732 0.0
H610 H 0.47783 0.10277 0.3536 0.0
H611 H 0.51409 0.0808 0.40847 0.0
H612 H 0.46312 0.98842 0.42737 0.0
H613 H 0.47734 1.02007 0.39653 0.0
H614 H 0.44973 0.04934 0.47862 0.0
C615 C 0.49152 0.11111 0.37205 0.0
C616 C 0.50008 0.07419 0.42434 0.0
C617 C 0.50043 0.12956 0.35647 0.0
C618 C 0.45944 0.99683 0.45788 0.0
C619 C 0.46783 1.01513 0.44072 0.0
C620 C 0.46383 0.05606 0.46408 0.0
C621 C 0.50024 0.1035 0.40996 0.0
C622 C 0.4908 0.0838 0.42705 0.0
C623 C 0.4639 0.02683 0.47939 0.0
C624 C 0.47313 0.04648 0.46142 0.0
H625 H 0.54075 0.14163 0.43445 0.0
H626 H 0.52529 0.10973 0.46183 0.0
H627 H 0.46492 0.08132 0.45054 0.0
H628 H 0.43307 0.9962 0.59624 0.0
H629 H 0.44791 0.02811 0.56724 0.0
C630 C 0.14957 0.10342 0.97616 0.0
C631 C 0.16236 0.10843 0.03156 0.0
C632 C 0.1398 0.11233 0.96684 0.0
C633 C 0.13943 0.15434 0.01611 0.0
H634 H 0.0891 0.12633 0.96448 0.0
C635 C 0.09514 0.1871 0.96407 0.0
C636 C 0.07748 0.17786 -0.00856 0.0
C637 C 0.10595 0.17909 0.96416 0.0
C638 C 0.10312 0.1344 0.97928 0.0
H639 H 0.17501 0.12721 0.11954 0.0
H640 H 0.15772 0.1423 0.10459 0.0
H641 H 0.10685 0.11165 0.9756 0.0
H642 H 0.05745 0.15276 0.04001 0.0
H643 H 0.07613 0.13908 0.04071 0.0
H644 H 0.13548 0.17701 0.02192 0.0
C645 C 0.15536 0.13161 0.06765 0.0
C646 C 0.11341 0.12597 -0.0152 0.0
C647 C 0.16513 0.12272 0.07693 0.0
C648 C 0.07093 0.16038 0.01823 0.0
C649 C 0.08166 0.15241 0.01818 0.0
C650 C 0.12912 0.16279 0.01056 0.0
C651 C 0.14249 0.12653 0.01258 0.0
C652 C 0.1317 0.13576 0.00394 0.0
C653 C 0.09934 0.1616 -0.00872 0.0
C654 C 0.11074 0.15291 -0.00715 0.0
H655 H 0.1469 0.09242 0.94039 0.0
H656 H 0.1302 0.10811 0.92326 0.0
H657 H 0.15351 0.16244 0.02995 0.0
H658 H 0.10067 0.20056 0.94299 0.0
H659 H 0.11944 0.18656 0.94239 0.0
C660 C 0.91985 0.9331 0.03535 0.0
C661 C 0.90235 0.9226 0.00767 0.0
C662 C 0.92811 0.95186 0.03827 0.0
C663 C 0.92578 0.99081 0.96351 0.0
H664 H 0.9548 1.01557 0.12993 0.0
C665 C 0.95317 0.06686 0.01378 0.0
C666 C 0.97049 0.07714 0.04348 0.0
C667 C 0.94493 0.04813 0.00845 0.0
C668 C 0.94694 1.00895 0.08255 0.0
H669 H 0.87995 0.92387 0.96084 0.0
H670 H 0.89428 0.95652 0.96647 0.0
H671 H 0.9404 0.98304 0.12212 0.0
H672 H 0.99274 0.07549 0.08957 0.0
H673 H 0.97845 0.04294 0.08014 0.0
H674 H 0.93233 1.01676 0.92402 0.0
C675 C 0.90173 0.95025 -0.01476 0.0
C676 C 0.93864 0.99021 0.07804 0.0
C677 C 0.89344 0.93145 0.98231 0.0
C678 C 0.97931 0.06807 0.06746 0.0
C679 C 0.97107 0.04933 0.06206 0.0
C680 C 0.93409 1.00958 0.96801 0.0
C681 C 0.91916 0.96075 0.01368 0.0
C682 C 0.92794 0.98082 0.01841 0.0
C683 C 0.95373 0.03904 0.03261 0.0
C684 C 0.94483 1.01896 0.02759 0.0
H685 H 0.92723 0.92685 0.05515 0.0
H686 H 0.94164 0.9594 0.05937 0.0
H687 H 0.91789 0.98416 0.91622 0.0
H688 H 0.94579 0.07326 -0.00421 0.0
H689 H 0.93147 0.04073 -0.01343 0.0
C690 C 1.01432 0.91699 0.0893 0.0
C691 C 1.00272 0.9198 0.04487 0.0
C692 C 1.03302 0.92701 0.08004 0.0
C693 C 0.06937 0.96933 -0.00075 0.0
H694 H 0.09817 0.94682 0.02894 0.0
C695 C 0.14698 1.01079 0.02364 0.0
C696 C 0.15731 1.00381 -0.00592 0.0
C697 C 0.12818 1.00048 0.02598 0.0
C698 C 0.09037 0.95333 0.0197 0.0
H699 H 1.00204 0.93562 0.95565 0.0
H700 H 0.03454 0.95278 0.93855 0.0
H701 H 0.06554 0.92897 0.03885 0.0
H702 H 0.15569 0.98038 0.9431 0.0
H703 H 0.12289 0.96247 0.94649 0.0
H704 H 0.09417 0.99362 0.97895 0.0
C705 C 1.02917 0.94295 0.98132 0.0
C706 C 0.07159 0.9431 0.02635 0.0
C707 C 1.01044 0.93292 -0.00938 0.0
C708 C 0.14824 0.98623 0.96635 0.0
C709 C 0.12938 0.97589 0.96875 0.0
C710 C 0.08814 0.97955 -0.00738 0.0
C711 C 0.04076 0.94015 0.02593 0.0
C712 C 0.0608 0.95097 0.0167 0.0
C713 C 0.11907 0.98285 -0.00114 0.0
C714 C 0.09895 0.97175 0.00322 0.0
H715 H 1.00897 0.90687 0.131 0.0
H716 H 0.04143 0.92457 0.11612 0.0
H717 H 0.06161 0.97596 -0.00799 0.0
H718 H 0.15341 0.02423 0.04582 0.0
H719 H 0.12081 1.00627 0.05057 0.0
C720 C 0.73561 0.49262 0.35915 0.0
C721 C 0.74269 0.50996 0.33016 0.0
C722 C 0.74592 0.48418 0.36176 0.0
C723 C 0.78645 0.48522 0.28413 0.0
H724 H 0.78261 0.4574 0.45368 0.0
C725 C 0.8338 0.45616 0.3327 0.0
C726 C 0.82656 0.43922 0.36577 0.0
C727 C 0.8237 0.4648 0.32695 0.0
C728 C 0.78371 0.46489 0.40541 0.0
H729 H 0.76634 0.5319 0.28044 0.0
H730 H 0.78438 0.51722 0.28536 0.0
H731 H 0.76507 0.4724 0.44603 0.0
H732 H 0.80267 0.41801 0.41709 0.0
H733 H 0.78506 0.43294 0.40666 0.0
H734 H 0.80509 0.47767 0.24349 0.0
C735 C 0.77072 0.51006 0.30555 0.0
C736 C 0.77362 0.47356 0.40104 0.0
C737 C 0.76038 0.51854 0.303 0.0
C738 C 0.80884 0.43114 0.39232 0.0
C739 C 0.79872 0.43976 0.38639 0.0
C740 C 0.79654 0.47652 0.28845 0.0
C741 C 0.76369 0.4928 0.33552 0.0
C742 C 0.77476 0.48381 0.34025 0.0
C743 C 0.80601 0.45678 0.35396 0.0
C744 C 0.79529 0.46617 0.34911 0.0
H745 H 0.72203 0.48548 0.38033 0.0
H746 H 0.73987 0.47079 0.38403 0.0
H747 H 0.78756 0.49278 0.23605 0.0
H748 H 0.84748 0.46297 0.3126 0.0
H749 H 0.82994 0.47799 0.30263 0.0
C750 C 0.6453 0.40181 0.32173 0.0
C751 C 0.63997 0.40972 0.37561 0.0
C752 C 0.63663 0.38307 0.31391 0.0
C753 C 0.59443 0.34078 0.36281 0.0
H754 H 0.62243 0.31823 0.31546 0.0
C755 C 0.56081 0.26405 0.30714 0.0
C756 C 0.56945 0.25511 0.33446 0.0
C757 C 0.5693 0.28287 0.30878 0.0
C758 C 0.61437 0.32425 0.32915 0.0
H759 H 0.62091 0.40375 0.46267 0.0
H760 H 0.60621 0.37131 0.45026 0.0
H761 H 0.63732 0.35077 0.32627 0.0
H762 H 0.594 0.25924 0.38474 0.0
H763 H 0.60861 0.29179 0.38814 0.0
H764 H 0.57156 0.31422 0.36754 0.0
C765 C 0.61699 0.37957 0.41336 0.0
C766 C 0.62292 0.34301 0.33449 0.0
C767 C 0.62564 0.39827 0.42117 0.0
C768 C 0.58687 0.26555 0.36292 0.0
C769 C 0.59535 0.28433 0.36447 0.0
C770 C 0.58588 0.32201 0.3574 0.0
C771 C 0.62233 0.37164 0.35962 0.0
C772 C 0.61311 0.35159 0.35187 0.0
C773 C 0.5867 0.29332 0.33767 0.0
C774 C 0.59573 0.31343 0.34095 0.0
H775 H 0.65634 0.41008 0.2859 0.0
H776 H 0.64106 0.37756 0.27138 0.0
H777 H 0.58632 0.34681 0.37532 0.0
H778 H 0.54742 0.25651 0.2847 0.0
H779 H 0.56225 0.28924 0.28678 0.0
C780 C 0.68101 0.24935 0.41821 0.0
C781 C 0.66942 0.2522 0.37388 0.0
C782 C 0.6997 0.25936 0.40893 0.0
C783 C 0.73603 0.30172 0.32857 0.0
H784 H 0.76486 0.27922 0.35799 0.0
C785 C 0.81355 0.34322 0.35456 0.0
C786 C 0.82395 0.33634 0.32489 0.0
C787 C 0.79475 0.33287 0.35648 0.0
C788 C 0.75704 0.28572 0.34882 0.0
H789 H 0.66873 0.26806 0.28481 0.0
H790 H 0.70124 0.2852 0.26765 0.0
H791 H 0.73222 0.26133 0.36752 0.0
H792 H 0.82249 0.31304 0.2733 0.0
H793 H 0.78968 0.29504 0.27597 0.0
H794 H 0.76082 0.32604 0.30873 0.0
C795 C 0.69586 0.27534 0.31036 0.0
C796 C 0.73827 0.27547 0.35524 0.0
C797 C 0.67714 0.26533 0.31969 0.0
C798 C 0.81497 0.31881 0.29664 0.0
C799 C 0.79612 0.30843 0.29862 0.0
C800 C 0.7548 0.31196 0.32214 0.0
C801 C 0.70744 0.27252 0.3549 0.0
C802 C 0.72747 0.28334 0.34573 0.0
C803 C 0.78572 0.31529 0.3288 0.0
C804 C 0.76561 0.30415 0.3327 0.0
H805 H 0.67565 0.23921 0.45986 0.0
H806 H 0.70811 0.2569 0.44494 0.0
H807 H 0.72826 0.30834 0.32143 0.0
H808 H 0.81991 0.35662 0.37714 0.0
H809 H 0.78732 0.33857 0.38117 0.0
C810 C 0.48273 0.77035 0.64391 0.0
C811 C 0.49546 0.77532 0.6995 0.0
C812 C 0.47288 0.77918 0.63473 0.0
C813 C 0.47224 0.82101 0.68492 0.0
H814 H 0.42198 0.79292 0.63226 0.0
C815 C 0.42782 0.85361 0.63267 0.0
C816 C 0.41011 0.84428 0.65952 0.0
C817 C 0.43867 0.84564 0.63291 0.0
C818 C 0.43597 0.80101 0.64736 0.0
H819 H 0.50793 0.79397 0.78803 0.0
H820 H 0.49052 0.80894 0.77332 0.0
H821 H 0.43983 0.77832 0.64326 0.0
H822 H 0.39004 0.8191 0.70735 0.0
H823 H 0.4088 0.8055 0.70831 0.0
H824 H 0.46817 0.8436 0.69112 0.0
C825 C 0.48825 0.79833 0.73611 0.0
C826 C 0.44632 0.79263 0.65282 0.0
C827 C 0.4981 0.78951 0.74525 0.0
C828 C 0.40356 0.82677 0.68598 0.0
C829 C 0.41434 0.81885 0.68608 0.0
C830 C 0.46187 0.8294 0.67943 0.0
C831 C 0.47544 0.79329 0.68083 0.0
C832 C 0.46459 0.80245 0.67231 0.0
C833 C 0.43207 0.82812 0.65966 0.0
C834 C 0.44351 0.81949 0.66133 0.0
H835 H 0.48015 0.75943 0.60785 0.0
H836 H 0.46333 0.775 0.59099 0.0
H837 H 0.4863 0.82913 0.69905 0.0
H838 H 0.43335 0.86709 0.61185 0.0
H839 H 0.45219 0.85318 0.6115 0.0
C840 C 0.22641 0.59776 0.64424 0.0
C841 C 0.23518 0.58893 0.67142 0.0
C842 C 0.2346 0.61655 0.64745 0.0
C843 C 0.27063 0.65642 0.74403 0.0
H844 H 0.26572 0.68323 0.58735 0.0
C845 C 0.3115 0.73429 0.73593 0.0
C846 C 0.303 0.74346 0.7095 0.0
C847 C 0.30326 0.71556 0.73027 0.0
C848 C 0.26708 0.67598 0.63209 0.0
H849 H 0.25971 0.59324 0.7225 0.0
H850 H 0.27395 0.62576 0.72726 0.0
H851 H 0.25132 0.65064 0.57913 0.0
H852 H 0.27886 0.73976 0.65711 0.0
H853 H 0.26452 0.70723 0.64752 0.0
H854 H 0.28633 0.6817 0.79713 0.0
C855 C 0.2606 0.6182 0.70446 0.0
C856 C 0.25879 0.65721 0.62733 0.0
C857 C 0.25244 0.59946 0.70122 0.0
C858 C 0.286 0.73328 0.67708 0.0
C859 C 0.27775 0.71454 0.67153 0.0
C860 C 0.2789 0.67516 0.74882 0.0
C861 C 0.25179 0.62707 0.67806 0.0
C862 C 0.26047 0.64713 0.68315 0.0
C863 C 0.28622 0.70536 0.69814 0.0
C864 C 0.27731 0.68527 0.69288 0.0
H865 H 0.21311 0.59015 0.6211 0.0
H866 H 0.22728 0.62281 0.62719 0.0
H867 H 0.27199 0.64918 0.78881 0.0
H868 H 0.3247 0.74163 0.7602 0.0
H869 H 0.31041 0.70909 0.7503 0.0
C870 C 0.48185 0.65315 0.63806 0.0
C871 C 0.49096 0.67103 0.66256 0.0
C872 C 0.46301 0.64279 0.64171 0.0
C873 C 0.42375 0.64058 0.73705 0.0
H874 H 0.39594 0.60707 0.58593 0.0
C875 C 0.34758 0.59005 0.76979 0.0
C876 C 0.33633 0.58681 0.71 0.0
C877 C 0.36634 0.60012 0.76291 0.0
C878 C 0.40347 0.61645 0.62845 0.0
H879 H 0.48713 0.69205 0.70877 0.0
H880 H 0.45454 0.67419 0.7142 0.0
H881 H 0.42862 0.62508 0.57465 0.0
H882 H 0.33633 0.592 0.59586 0.0
H883 H 0.36898 0.60949 0.58391 0.0
H884 H 0.39866 0.63223 0.79032 0.0
C885 C 0.46191 0.668 0.69335 0.0
C886 C 0.42227 0.62665 0.62235 0.0
C887 C 0.48069 0.67832 0.68973 0.0
C888 C 0.34447 0.59395 0.64301 0.0
C889 C 0.36326 0.60401 0.63611 0.0
C890 C 0.40499 0.63037 0.74322 0.0
C891 C 0.45276 0.65003 0.67005 0.0
C892 C 0.4327 0.63892 0.67648 0.0
C893 C 0.37448 0.60727 0.69599 0.0
C894 C 0.39455 0.61816 0.68903 0.0
H895 H 0.48928 0.64704 0.617 0.0
H896 H 0.4565 0.62897 0.62382 0.0
H897 H 0.43126 0.64968 0.78035 0.0
H898 H 0.34192 0.5845 0.82197 0.0
H899 H 0.37448 0.60205 0.81005 0.0
C900 C 0.03797 0.1793 0.76156 0.0
C901 C 0.03813 0.19247 0.80656 0.0
C902 C 0.03968 0.18181 0.68722 0.0
C903 C 1.03385 0.20748 0.54182 0.0
H904 H 0.06259 0.19266 0.43171 0.0
C905 C 0.05167 0.22535 0.2424 0.0
C906 C 0.05086 0.21186 0.19745 0.0
C907 C 0.04957 0.22274 0.31666 0.0
C908 C 0.05435 0.19667 0.46166 0.0
H909 H 0.04001 0.21849 0.80973 0.0
H910 H 0.04349 0.22316 0.67979 0.0
H911 H 0.06067 0.18909 0.56202 0.0
H912 H 0.04705 0.18504 0.19402 0.0
H913 H 0.04325 0.18038 0.32403 0.0
H914 H 1.02767 0.2152 0.4413 0.0
C915 C 0.04186 0.2108 0.70177 0.0
C916 C 0.05326 0.19464 0.53629 0.0
C917 C 0.0401 0.20825 0.77618 0.0
C918 C 0.04767 0.19561 0.22764 0.0
C919 C 0.04564 0.19302 0.30198 0.0
C920 C 0.035 0.20957 0.46718 0.0
C921 C 0.04158 0.19756 0.65642 0.0
C922 C 0.04298 0.2 0.57722 0.0
C923 C 0.0467 0.20661 0.34727 0.0
C924 C 0.04524 0.20417 0.42635 0.0
H925 H 0.03638 0.16697 0.78376 0.0
H926 H 0.03914 0.17125 0.65377 0.0
H927 H 1.02558 0.21147 0.57165 0.0
H928 H 0.05411 0.238 0.22026 0.0
H929 H 0.05062 0.23351 0.35025 0.0
C930 C 0.88994 0.85373 0.77005 0.0
C931 C 0.88474 0.86316 0.81658 0.0
C932 C 0.88816 0.85454 0.69577 0.0
C933 C 0.88407 0.88239 0.55511 0.0
H934 H 0.86816 0.83982 0.43768 0.0
C935 C 0.8658 0.87892 0.25404 0.0
C936 C 0.87154 0.86978 0.20838 0.0
C937 C 0.86799 0.87875 0.3284 0.0
C938 C 0.87281 0.85186 0.46971 0.0
H939 H 0.87352 0.88073 0.82266 0.0
H940 H 0.86999 0.88182 0.69289 0.0
H941 H 0.87015 0.83779 0.56769 0.0
H942 H 0.88458 0.85382 0.2037 0.0
H943 H 0.88848 0.85359 0.33355 0.0
H944 H 0.88658 0.89641 0.4569 0.0
C945 C 0.8757 0.87402 0.71357 0.0
C946 C 0.87395 0.8507 0.54415 0.0
C947 C 0.87754 0.87326 0.78784 0.0
C948 C 0.87993 0.86088 0.23787 0.0
C949 C 0.88207 0.86066 0.31213 0.0
C950 C 0.88287 0.88354 0.48062 0.0
C951 C 0.8811 0.86477 0.66668 0.0
C952 C 0.87963 0.86596 0.58768 0.0
C953 C 0.87591 0.8694 0.35821 0.0
C954 C 0.87728 0.86829 0.43719 0.0
H955 H 0.8956 0.84591 0.791 0.0
H956 H 0.89266 0.84744 0.66108 0.0
H957 H 0.88876 0.89445 0.58706 0.0
H958 H 0.85932 0.88591 0.23244 0.0
H959 H 0.86302 0.88551 0.36266 0.0
C960 C 0.22688 0.05967 0.75957 0.0
C961 C 0.21756 0.04502 0.806 0.0
C962 C 0.22605 0.05704 0.68528 0.0
C963 C 0.198 0.02493 0.54517 0.0
H964 H 0.24033 0.05191 0.42605 0.0
C965 C 0.20075 1.01026 0.2432 0.0
C966 C 0.2098 0.02516 0.19769 0.0
C967 C 0.20108 1.01262 0.31763 0.0
C968 C 0.22835 0.04443 0.45858 0.0
H969 H 0.2003 1.01615 0.812 0.0
H970 H 0.19913 1.01149 0.68213 0.0
H971 H 0.2427 0.05591 0.55614 0.0
H972 H 0.22573 0.05418 0.19332 0.0
H973 H 0.22623 0.05832 0.32335 0.0
H974 H 0.1837 1.01338 0.4474 0.0
C975 C 0.20684 0.02503 0.70292 0.0
C976 C 0.22971 0.04671 0.53304 0.0
C977 C 0.20764 0.02767 0.77721 0.0
C978 C 0.21874 0.04247 0.22739 0.0
C979 C 0.21911 0.04483 0.30174 0.0
C980 C 0.19665 0.02261 0.47066 0.0
C981 C 0.21591 0.03971 0.65612 0.0
C982 C 0.21454 0.03702 0.57714 0.0
C983 C 0.2105 0.02992 0.34765 0.0
C984 C 0.21181 0.03239 0.42664 0.0
H985 H 0.23458 0.07319 0.78059 0.0
H986 H 0.23301 0.06865 0.65063 0.0
H987 H 0.186 1.01748 0.57763 0.0
H988 H 0.19374 0.99678 0.22143 0.0
H989 H 0.19441 1.00088 0.35176 0.0
C990 C 0.7359 0.54689 0.5791 0.0
C991 C 0.72098 0.54099 0.53373 0.0
C992 C 0.73355 0.54481 0.65352 0.0
C993 C 0.70162 0.53987 0.79531 0.0
H994 H 0.72873 0.52464 0.9127 0.0
C995 C 0.68641 0.52284 0.09604 0.0
C996 C 0.70109 0.52825 0.14228 0.0
C997 C 0.68902 0.52468 0.02172 0.0
C998 C 0.72124 0.52914 0.88072 0.0
H999 H 0.69189 0.52777 0.52962 0.0
H1000 H 0.68775 0.52403 0.65962 0.0
H1001 H 0.73285 0.52663 0.78244 0.0
H1002 H 0.73003 0.54001 0.14791 0.0
H1003 H 0.73468 0.54359 0.01805 0.0
H1004 H 0.69008 0.5425 0.89338 0.0
C1005 C 0.70127 0.53049 0.63791 0.0
C1006 C 0.72356 0.53022 0.80618 0.0
C1007 C 0.70363 0.53254 0.56358 0.0
C1008 C 0.71848 0.53578 0.11328 0.0
C1009 C 0.72111 0.53767 0.03897 0.0
C1010 C 0.69933 0.53884 0.8698 0.0
C1011 C 0.71622 0.53682 0.6837 0.0
C1012 C 0.71374 0.53555 0.76273 0.0
C1013 C 0.70639 0.532 -0.00765 0.0
C1014 C 0.70908 0.53342 0.91332 0.0
H1015 H 0.74942 0.55343 0.55723 0.0
H1016 H 0.74531 0.54991 0.68754 0.0
H1017 H 0.6941 0.54433 0.76326 0.0
H1018 H 0.67286 0.51694 0.1172 0.0
H1019 H 0.67738 0.51999 -0.01278 0.0
C1020 C 0.54696 0.1939 0.56773 0.0
C1021 C 0.53851 0.20267 0.53771 0.0
C1022 C 0.5493 0.19401 0.64201 0.0
C1023 C 0.53049 0.19949 0.81182 0.0
H1024 H 0.57375 0.20358 0.89453 0.0
C1025 C 0.54415 0.20566 0.11738 0.0
C1026 C 0.55153 0.19569 0.14575 0.0
C1027 C 0.54255 0.20672 0.04311 0.0
C1028 C 0.56152 0.20224 0.87212 0.0
H1029 H 0.52641 0.21896 0.56077 0.0
H1030 H 0.53068 0.21937 0.69078 0.0
H1031 H 0.5717 0.20593 0.76457 0.0
H1032 H 0.5628 0.17882 0.11954 0.0
H1033 H 0.55992 0.18059 -0.0105 0.0
H1034 H 0.52031 0.19579 0.91942 0.0
C1035 C 0.53521 0.21212 0.65714 0.0
C1036 C 0.56035 0.20361 0.79776 0.0
C1037 C 0.53286 0.21199 0.58281 0.0
C1038 C 0.55709 0.18663 0.09886 0.0
C1039 C 0.55555 0.18774 0.02455 0.0
C1040 C 0.53167 0.19816 0.88619 0.0
C1041 C 0.54325 0.20294 0.68761 0.0
C1042 C 0.54479 0.20216 0.76677 0.0
C1043 C 0.54837 0.19789 -0.00408 0.0
C1044 C 0.54716 0.19944 0.91706 0.0
H1045 H 0.55145 0.18662 0.534 0.0
H1046 H 0.55537 0.18666 0.66383 0.0
H1047 H 0.5182 0.19802 0.78951 0.0
H1048 H 0.5399 0.2129 0.15247 0.0
H1049 H 0.53713 0.21479 0.0226 0.0
C1050 C 0.86735 0.34303 0.57486 0.0
C1051 C 0.87628 0.35794 0.52934 0.0
C1052 C 0.86766 0.34538 0.64929 0.0
C1053 C 0.89483 0.37731 0.79003 0.0
H1054 H 0.85262 0.35011 0.9095 0.0
C1055 C 0.89341 0.39249 0.09112 0.0
C1056 C 0.88419 0.37783 0.13758 0.0
C1057 C 0.89256 0.38986 0.01682 0.0
C1058 C 0.86458 0.35763 0.87693 0.0
H1059 H 0.89195 0.38698 0.52495 0.0
H1060 H 0.89244 0.3911 0.65498 0.0
H1061 H 0.85025 0.34598 0.77928 0.0
H1062 H 0.86711 0.34894 0.14362 0.0
H1063 H 0.86592 0.34427 0.01377 0.0
H1064 H 0.9092 0.38888 0.88746 0.0
C1065 C 0.88543 0.3776 0.63337 0.0
C1066 C 0.8632 0.3553 0.80242 0.0
C1067 C 0.88506 0.37525 0.55903 0.0
C1068 C 0.87437 0.36046 0.10882 0.0
C1069 C 0.87356 0.35782 0.03453 0.0
C1070 C 0.89622 0.3796 0.86449 0.0
C1071 C 0.87696 0.36268 0.67928 0.0
C1072 C 0.8783 0.36516 0.75826 0.0
C1073 C 0.88251 0.37251 -0.0123 0.0
C1074 C 0.88111 0.36982 0.90873 0.0
H1075 H 0.86045 0.32954 0.55309 0.0
H1076 H 0.86111 0.33363 0.68344 0.0
H1077 H 0.90677 0.38486 0.75738 0.0
H1078 H 0.90103 0.40602 0.11212 0.0
H1079 H 0.89944 0.40148 0.98215 0.0
C1080 C 0.37256 0.87459 0.4433 0.0
C1081 C 0.37064 0.85883 0.47367 0.0
C1082 C 0.37433 0.87716 0.36888 0.0
C1083 C 0.38583 0.86106 0.20343 0.0
H1084 H 0.36018 0.88154 0.10835 0.0
C1085 C 0.3802 0.86197 0.89476 0.0
C1086 C 0.38337 0.87821 0.86452 0.0
C1087 C 0.37819 0.85939 0.9691 0.0
C1088 C 0.36753 0.87593 0.13425 0.0
H1089 H 0.36898 0.83338 0.45087 0.0
H1090 H 0.37176 0.83767 0.32089 0.0
H1091 H 0.35808 0.87781 0.2387 0.0
H1092 H 0.3866 0.90434 0.88728 0.0
H1093 H 0.38313 0.89987 0.01728 0.0
H1094 H 0.39518 0.8591 0.09886 0.0
C1095 C 0.37225 0.84821 0.35433 0.0
C1096 C 0.36637 0.87385 0.20889 0.0
C1097 C 0.37054 0.84569 0.42867 0.0
C1098 C 0.38418 0.8917 0.90945 0.0
C1099 C 0.38209 0.8891 0.98371 0.0
C1100 C 0.38692 0.86309 0.1288 0.0
C1101 C 0.37411 0.86394 0.32354 0.0
C1102 C 0.37552 0.86639 0.24433 0.0
C1103 C 0.37924 0.87298 0.01437 0.0
C1104 C 0.37779 0.87055 0.09345 0.0
H1105 H 0.37243 0.88482 0.47685 0.0
H1106 H 0.37593 0.8895 0.34691 0.0
H1107 H 0.39326 0.85553 0.22919 0.0
H1108 H 0.37959 0.85139 0.86115 0.0
H1109 H 0.37581 0.84676 -0.00881 0.0
C1110 C 0.1989 0.54561 0.91712 0.0
C1111 C 0.20474 0.53645 0.87209 0.0
C1112 C 0.20128 0.54582 -0.00856 0.0
C1113 C 0.22681 0.53788 0.13211 0.0
H1114 H 0.18657 0.52947 0.25377 0.0
C1115 C 0.22378 0.52094 0.43306 0.0
C1116 C 0.21803 0.52983 0.48003 0.0
C1117 C 0.22221 0.52204 0.35879 0.0
C1118 C 0.19799 0.53201 0.22054 0.0
H1119 H 0.21808 0.52078 0.86846 0.0
H1120 H 0.22206 0.52093 -0.00169 0.0
H1121 H 0.18439 0.5316 0.12385 0.0
H1122 H 0.20603 0.54671 0.48691 0.0
H1123 H 0.20323 0.5486 0.35703 0.0
H1124 H 0.24033 0.53811 0.22889 0.0
C1125 C 0.2158 0.5281 0.97643 0.0
C1126 C 0.19676 0.53328 0.14617 0.0
C1127 C 0.21344 0.52792 0.90215 0.0
C1128 C 0.21044 0.53962 0.45175 0.0
C1129 C 0.20882 0.54067 0.37749 0.0
C1130 C 0.22801 0.53657 0.20647 0.0
C1131 C 0.20955 0.53687 0.02197 0.0
C1132 C 0.21114 0.53616 0.10112 0.0
C1133 C 0.21483 0.53202 0.33024 0.0
C1134 C 0.21359 0.53355 0.2514 0.0
H1135 H 0.19227 0.55241 0.89504 0.0
H1136 H 0.19659 0.55294 0.02502 0.0
H1137 H 0.23821 0.54037 0.09893 0.0
H1138 H 0.22964 0.51327 0.45368 0.0
H1139 H 0.22673 0.51502 0.32368 0.0
C1140 C 0.54089 0.69491 0.44511 0.0
C1141 C 0.5509 0.71229 0.47365 0.0
C1142 C 0.53977 0.69223 0.37081 0.0
C1143 C 0.54395 0.71564 0.2008 0.0
H1144 H 0.54804 0.67668 0.11592 0.0
C1145 C 0.55182 0.70954 0.89572 0.0
C1146 C 0.54299 0.6923 0.86541 0.0
C1147 C 0.5518 0.71175 0.97009 0.0
C1148 C 0.54661 0.68746 0.1389 0.0
H1149 H 0.56782 0.74044 0.44774 0.0
H1150 H 0.56595 0.73577 0.31765 0.0
H1151 H 0.55054 0.68101 0.24591 0.0
H1152 H 0.52665 0.66389 0.88801 0.0
H1153 H 0.52639 0.66773 0.01817 0.0
H1154 H 0.54002 0.72211 0.09385 0.0
C1155 C 0.55881 0.72425 0.3526 0.0
C1156 C 0.54809 0.68996 0.21329 0.0
C1157 C 0.55998 0.72691 0.42692 0.0
C1158 C 0.53367 0.67732 0.91028 0.0
C1159 C 0.53362 0.67952 -0.01531 0.0
C1160 C 0.54242 0.71312 0.12642 0.0
C1161 C 0.54857 0.70689 0.3238 0.0
C1162 C 0.54686 0.70413 0.24494 0.0
C1163 C 0.54289 0.69675 0.01545 0.0
C1164 C 0.54382 0.69905 0.09464 0.0
H1165 H 0.53366 0.68342 0.48011 0.0
H1166 H 0.53165 0.67872 0.35014 0.0
H1167 H 0.54264 0.72649 0.22386 0.0
H1168 H 0.55909 0.72132 0.86216 0.0
H1169 H 0.5592 0.72518 -0.00784 0.0
loop_
_geom_bond_atom_site_label_1
_geom_bond_atom_site_label_2
_geom_bond_distance
_geom_bond_site_symmetry_2
_ccdc_geom_bond_type
La0 C2 2.928 1_554 S
La0 O20 2.521 . S
La0 O21 2.628 1_554 S
La0 O22 2.554 . S
La0 O23 2.757 . S
La0 O24 2.470 . S
La0 O29 2.482 1_554 S
La0 O31 2.503 1_554 S
La1 C11 2.928 . S
La1 O23 2.482 1_655 S
La1 O25 2.503 . S
La1 O26 2.521 1_554 S
La1 O27 2.628 . S
La1 O28 2.554 1_554 S
La1 O29 2.757 1_654 S
La1 O30 2.470 1_654 S
C2 La0 2.928 1_556 S
C2 C3 1.503 . S
C2 O20 1.261 1_556 S
C2 O21 1.243 . S
C3 C2 1.503 . S
C3 C4 1.394 1_556 S
C3 C8 1.373 . S
C4 C3 1.394 1_554 S
C4 C5 1.380 . S
C4 H32 0.930 . S
C5 C4 1.380 . S
C5 C6 1.376 1_554 S
C5 H33 0.930 . S
C6 C5 1.376 1_556 S
C6 C7 1.370 . S
C7 C6 1.370 . S
C7 C8 1.396 . S
C7 H34 0.929 . S
C8 C3 1.373 . S
C8 C7 1.396 . S
C8 H35 0.929 . S
C9 O22 1.240 . S
C9 O23 1.289 . S
C10 O24 1.258 1_655 S
C10 O25 1.256 . S
C11 La1 2.928 . S
C11 C12 1.503 . S
C11 O26 1.261 1_554 S
C11 O27 1.243 . S
C12 C11 1.503 . S
C12 C13 1.394 1_554 S
C12 C17 1.373 . S
C13 C12 1.394 1_556 S
C13 C14 1.380 . S
C13 H36 0.930 . S
C14 C13 1.380 . S
C14 C15 1.376 1_556 S
C14 H37 0.930 . S
C15 C14 1.376 1_554 S
C15 C16 1.370 . S
C16 C15 1.370 . S
C16 C17 1.396 . S
C16 H38 0.929 . S
C17 C12 1.373 . S
C17 C16 1.396 . S
C17 H39 0.929 . S
C18 O28 1.240 1_455 S
C18 O29 1.289 . S
C19 O30 1.258 . S
C19 O31 1.256 . S
O20 La0 2.521 . S
O20 C2 1.261 1_554 S
O21 La0 2.628 1_556 S
O21 C2 1.243 . S
O22 La0 2.554 . S
O22 C9 1.240 . S
O23 La0 2.757 . S
O23 La1 2.482 1_455 S
O23 C9 1.289 . S
O24 La0 2.470 . S
O24 C10 1.258 1_455 S
O25 La1 2.503 . S
O25 C10 1.256 . S
O26 La1 2.521 1_556 S
O26 C11 1.261 1_556 S
O27 La1 2.628 . S
O27 C11 1.243 . S
O28 La1 2.554 1_556 S
O28 C18 1.240 1_655 S
O29 La0 2.482 1_556 S
O29 La1 2.757 1_456 S
O29 C18 1.289 . S
O30 La1 2.470 1_456 S
O30 C19 1.258 . S
O31 La0 2.503 1_556 S
O31 C19 1.256 . S
H32 C4 0.930 . S
H33 C5 0.930 . S
H34 C7 0.929 . S
H35 C8 0.929 . S
H36 C13 0.930 . S
H37 C14 0.930 . S
H38 C16 0.929 . S
H39 C17 0.929 . S
La40 C42 2.928 1_554 S
La40 O60 2.521 . S
La40 O61 2.628 1_554 S
La40 O62 2.554 . S
La40 O63 2.757 . S
La40 O64 2.470 . S
La40 O69 2.482 1_554 S
La40 O71 2.503 1_554 S
La41 C51 2.928 . S
La41 O63 2.482 . S
La41 O65 2.503 . S
La41 O66 2.521 1_554 S
La41 O67 2.628 . S
La41 O68 2.554 1_554 S
La41 O69 2.757 1_554 S
La41 O70 2.470 1_554 S
C42 La40 2.928 1_556 S
C42 C43 1.503 . S
C42 O60 1.261 1_556 S
C42 O61 1.243 . S
C43 C42 1.503 . S
C43 C44 1.394 1_556 S
C43 C48 1.373 . S
C44 C43 1.394 1_554 S
C44 C45 1.380 . S
C44 H72 0.930 . S
C45 C44 1.380 . S
C45 C46 1.376 1_554 S
C45 H73 0.930 . S
C46 C45 1.376 1_556 S
C46 C47 1.370 . S
C47 C46 1.370 . S
C47 C48 1.396 . S
C47 H74 0.929 . S
C48 C43 1.373 . S
C48 C47 1.396 . S
C48 H75 0.929 . S
C49 O62 1.240 . S
C49 O63 1.289 . S
C50 O64 1.258 . S
C50 O65 1.256 . S
C51 La41 2.928 . S
C51 C52 1.503 . S
C51 O66 1.261 1_554 S
C51 O67 1.243 . S
C52 C51 1.503 . S
C52 C53 1.394 1_554 S
C52 C57 1.373 . S
C53 C52 1.394 1_556 S
C53 C54 1.380 . S
C53 H76 0.930 . S
C54 C53 1.380 . S
C54 C55 1.376 1_556 S
C54 H77 0.930 . S
C55 C54 1.376 1_554 S
C55 C56 1.370 . S
C56 C55 1.370 . S
C56 C57 1.396 . S
C56 H78 0.929 . S
C57 C52 1.373 . S
C57 C56 1.396 . S
C57 H79 0.929 . S
C58 O68 1.240 . S
C58 O69 1.289 . S
C59 O70 1.258 . S
C59 O71 1.256 . S
O60 La40 2.521 . S
O60 C42 1.261 1_554 S
O61 La40 2.628 1_556 S
O61 C42 1.243 . S
O62 La40 2.554 . S
O62 C49 1.240 . S
O63 La40 2.757 . S
O63 La41 2.482 . S
O63 C49 1.289 . S
O64 La40 2.470 . S
O64 C50 1.258 . S
O65 La41 2.503 . S
O65 C50 1.256 . S
O66 La41 2.521 1_556 S
O66 C51 1.261 1_556 S
O67 La41 2.628 . S
O67 C51 1.243 . S
O68 La41 2.554 1_556 S
O68 C58 1.240 . S
O69 La40 2.482 1_556 S
O69 La41 2.757 1_556 S
O69 C58 1.289 . S
O70 La41 2.470 1_556 S
O70 C59 1.258 . S
O71 La40 2.503 1_556 S
O71 C59 1.256 . S
H72 C44 0.930 . S
H73 C45 0.930 . S
H74 C47 0.929 . S
H75 C48 0.929 . S
H76 C53 0.930 . S
H77 C54 0.930 . S
H78 C56 0.929 . S
H79 C57 0.929 . S
La80 C82 2.928 1_554 S
La80 O100 2.521 . S
La80 O101 2.628 1_554 S
La80 O102 2.554 . S
La80 O103 2.757 1_565 S
La80 O104 2.470 1_565 S
La80 O109 2.482 1_564 S
La80 O111 2.503 1_554 S
La81 C91 2.928 . S
La81 O103 2.482 . S
La81 O105 2.503 . S
La81 O106 2.521 1_554 S
La81 O107 2.628 . S
La81 O108 2.554 1_554 S
La81 O109 2.757 1_554 S
La81 O110 2.470 1_554 S
C82 La80 2.928 1_556 S
C82 C83 1.503 . S
C82 O100 1.261 1_556 S
C82 O101 1.243 . S
C83 C82 1.503 . S
C83 C84 1.394 1_556 S
C83 C88 1.373 . S
C84 C83 1.394 1_554 S
C84 C85 1.380 . S
C84 H112 0.930 . S
C85 C84 1.380 . S
C85 C86 1.376 1_554 S
C85 H113 0.930 . S
C86 C85 1.376 1_556 S
C86 C87 1.370 . S
C87 C86 1.370 . S
C87 C88 1.396 . S
C87 H114 0.929 . S
C88 C83 1.373 . S
C88 C87 1.396 . S
C88 H115 0.929 . S
C89 O102 1.240 1_545 S
C89 O103 1.289 . S
C90 O104 1.258 . S
C90 O105 1.256 . S
C91 La81 2.928 . S
C91 C92 1.503 . S
C91 O106 1.261 1_554 S
C91 O107 1.243 . S
C92 C91 1.503 . S
C92 C93 1.394 1_554 S
C92 C97 1.373 . S
C93 C92 1.394 1_556 S
C93 C94 1.380 . S
C93 H116 0.930 . S
C94 C93 1.380 . S
C94 C95 1.376 1_556 S
C94 H117 0.930 . S
C95 C94 1.376 1_554 S
C95 C96 1.370 . S
C96 C95 1.370 . S
C96 C97 1.396 . S
C96 H118 0.929 . S
C97 C92 1.373 . S
C97 C96 1.396 . S
C97 H119 0.929 . S
C98 O108 1.240 . S
C98 O109 1.289 . S
C99 O110 1.258 1_565 S
C99 O111 1.256 . S
O100 La80 2.521 . S
O100 C82 1.261 1_554 S
O101 La80 2.628 1_556 S
O101 C82 1.243 . S
O102 La80 2.554 . S
O102 C89 1.240 1_565 S
O103 La80 2.757 1_545 S
O103 La81 2.482 . S
O103 C89 1.289 . S
O104 La80 2.470 1_545 S
O104 C90 1.258 . S
O105 La81 2.503 . S
O105 C90 1.256 . S
O106 La81 2.521 1_556 S
O106 C91 1.261 1_556 S
O107 La81 2.628 . S
O107 C91 1.243 . S
O108 La81 2.554 1_556 S
O108 C98 1.240 . S
O109 La80 2.482 1_546 S
O109 La81 2.757 1_556 S
O109 C98 1.289 . S
O110 La81 2.470 1_556 S
O110 C99 1.258 1_545 S
O111 La80 2.503 1_556 S
O111 C99 1.256 . S
H112 C84 0.930 . S
H113 C85 0.930 . S
H114 C87 0.929 . S
H115 C88 0.929 . S
H116 C93 0.930 . S
H117 C94 0.930 . S
H118 C96 0.929 . S
H119 C97 0.929 . S
La120 C122 2.928 . S
La120 O140 2.521 . S
La120 O141 2.628 . S
La120 O142 2.554 . S
La120 O143 2.757 . S
La120 O144 2.470 . S
La120 O149 2.482 . S
La120 O151 2.503 . S
La121 C131 2.928 . S
La121 O143 2.482 . S
La121 O145 2.503 . S
La121 O146 2.521 . S
La121 O147 2.628 . S
La121 O148 2.554 . S
La121 O149 2.757 . S
La121 O150 2.470 . S
C122 La120 2.928 . S
C122 C123 1.503 . S
C122 O140 1.261 . S
C122 O141 1.243 . S
C123 C122 1.503 . S
C123 C124 1.394 . S
C123 C128 1.373 . S
C124 C123 1.394 . S
C124 C125 1.380 . S
C124 H152 0.930 . S
C125 C124 1.380 . S
C125 C126 1.376 . S
C125 H153 0.930 . S
C126 C125 1.376 . S
C126 C127 1.370 . S
C127 C126 1.370 . S
C127 C128 1.396 . S
C127 H154 0.929 . S
C128 C123 1.373 . S
C128 C127 1.396 . S
C128 H155 0.929 . S
C129 O142 1.240 . S
C129 O143 1.289 . S
C130 O144 1.258 . S
C130 O145 1.256 . S
C131 La121 2.928 . S
C131 C132 1.503 . S
C131 O146 1.261 . S
C131 O147 1.243 . S
C132 C131 1.503 . S
C132 C133 1.394 . S
C132 C137 1.373 . S
C133 C132 1.394 . S
C133 C134 1.380 . S
C133 H156 0.930 . S
C134 C133 1.380 . S
C134 C135 1.376 . S
C134 H157 0.930 . S
C135 C134 1.376 . S
C135 C136 1.370 . S
C136 C135 1.370 . S
C136 C137 1.396 . S
C136 H158 0.929 . S
C137 C132 1.373 . S
C137 C136 1.396 . S
C137 H159 0.929 . S
C138 O148 1.240 . S
C138 O149 1.289 . S
C139 O150 1.258 . S
C139 O151 1.256 . S
O140 La120 2.521 . S
O140 C122 1.261 . S
O141 La120 2.628 . S
O141 C122 1.243 . S
O142 La120 2.554 . S
O142 C129 1.240 . S
O143 La120 2.757 . S
O143 La121 2.482 . S
O143 C129 1.289 . S
O144 La120 2.470 . S
O144 C130 1.258 . S
O145 La121 2.503 . S
O145 C130 1.256 . S
O146 La121 2.521 . S
O146 C131 1.261 . S
O147 La121 2.628 . S
O147 C131 1.243 . S
O148 La121 2.554 . S
O148 C138 1.240 . S
O149 La120 2.482 . S
O149 La121 2.757 . S
O149 C138 1.289 . S
O150 La121 2.470 . S
O150 C139 1.258 . S
O151 La120 2.503 . S
O151 C139 1.256 . S
H152 C124 0.930 . S
H153 C125 0.930 . S
H154 C127 0.929 . S
H155 C128 0.929 . S
H156 C133 0.930 . S
H157 C134 0.930 . S
H158 C136 0.929 . S
H159 C137 0.929 . S
La160 C162 2.928 . S
La160 O180 2.521 . S
La160 O181 2.628 . S
La160 O182 2.554 . S
La160 O183 2.757 . S
La160 O184 2.470 . S
La160 O189 2.482 . S
La160 O191 2.503 . S
La161 C171 2.928 . S
La161 O183 2.482 . S
La161 O185 2.503 . S
La161 O186 2.521 . S
La161 O187 2.628 . S
La161 O188 2.554 . S
La161 O189 2.757 . S
La161 O190 2.470 . S
C162 La160 2.928 . S
C162 C163 1.503 . S
C162 O180 1.261 . S
C162 O181 1.243 . S
C163 C162 1.503 . S
C163 C164 1.394 . S
C163 C168 1.373 . S
C164 C163 1.394 . S
C164 C165 1.380 . S
C164 H192 0.930 . S
C165 C164 1.380 . S
C165 C166 1.376 . S
C165 H193 0.930 . S
C166 C165 1.376 . S
C166 C167 1.370 . S
C167 C166 1.370 . S
C167 C168 1.396 . S
C167 H194 0.929 . S
C168 C163 1.373 . S
C168 C167 1.396 . S
C168 H195 0.929 . S
C169 O182 1.240 . S
C169 O183 1.289 . S
C170 O184 1.258 . S
C170 O185 1.256 . S
C171 La161 2.928 . S
C171 C172 1.503 . S
C171 O186 1.261 . S
C171 O187 1.243 . S
C172 C171 1.503 . S
C172 C173 1.394 . S
C172 C177 1.373 . S
C173 C172 1.394 . S
C173 C174 1.380 . S
C173 H196 0.930 . S
C174 C173 1.380 . S
C174 C175 1.376 . S
C174 H197 0.930 . S
C175 C174 1.376 . S
C175 C176 1.370 . S
C176 C175 1.370 . S
C176 C177 1.396 . S
C176 H198 0.929 . S
C177 C172 1.373 . S
C177 C176 1.396 . S
C177 H199 0.929 . S
C178 O188 1.240 . S
C178 O189 1.289 . S
C179 O190 1.258 . S
C179 O191 1.256 . S
O180 La160 2.521 . S
O180 C162 1.261 . S
O181 La160 2.628 . S
O181 C162 1.243 . S
O182 La160 2.554 . S
O182 C169 1.240 . S
O183 La160 2.757 . S
O183 La161 2.482 . S
O183 C169 1.289 . S
O184 La160 2.470 . S
O184 C170 1.258 . S
O185 La161 2.503 . S
O185 C170 1.256 . S
O186 La161 2.521 . S
O186 C171 1.261 . S
O187 La161 2.628 . S
O187 C171 1.243 . S
O188 La161 2.554 . S
O188 C178 1.240 . S
O189 La160 2.482 . S
O189 La161 2.757 . S
O189 C178 1.289 . S
O190 La161 2.470 . S
O190 C179 1.258 . S
O191 La160 2.503 . S
O191 C179 1.256 . S
H192 C164 0.930 . S
H193 C165 0.930 . S
H194 C167 0.929 . S
H195 C168 0.929 . S
H196 C173 0.930 . S
H197 C174 0.930 . S
H198 C176 0.929 . S
H199 C177 0.929 . S
La200 C202 2.928 . S
La200 O220 2.521 . S
La200 O221 2.628 . S
La200 O222 2.554 . S
La200 O223 2.757 . S
La200 O224 2.470 . S
La200 O229 2.482 . S
La200 O231 2.503 . S
La201 C211 2.928 . S
La201 O223 2.482 . S
La201 O225 2.503 . S
La201 O226 2.521 . S
La201 O227 2.628 . S
La201 O228 2.554 . S
La201 O229 2.757 . S
La201 O230 2.470 . S
C202 La200 2.928 . S
C202 C203 1.503 . S
C202 O220 1.261 . S
C202 O221 1.243 . S
C203 C202 1.503 . S
C203 C204 1.394 . S
C203 C208 1.373 . S
C204 C203 1.394 . S
C204 C205 1.380 . S
C204 H232 0.930 . S
C205 C204 1.380 . S
C205 C206 1.376 . S
C205 H233 0.930 . S
C206 C205 1.376 . S
C206 C207 1.370 . S
C207 C206 1.370 . S
C207 C208 1.396 . S
C207 H234 0.929 . S
C208 C203 1.373 . S
C208 C207 1.396 . S
C208 H235 0.929 . S
C209 O222 1.240 . S
C209 O223 1.289 . S
C210 O224 1.258 . S
C210 O225 1.256 . S
C211 La201 2.928 . S
C211 C212 1.503 . S
C211 O226 1.261 . S
C211 O227 1.243 . S
C212 C211 1.503 . S
C212 C213 1.394 . S
C212 C217 1.373 . S
C213 C212 1.394 . S
C213 C214 1.380 . S
C213 H236 0.930 . S
C214 C213 1.380 . S
C214 C215 1.376 . S
C214 H237 0.930 . S
C215 C214 1.376 . S
C215 C216 1.370 . S
C216 C215 1.370 . S
C216 C217 1.396 . S
C216 H238 0.929 . S
C217 C212 1.373 . S
C217 C216 1.396 . S
C217 H239 0.929 . S
C218 O228 1.240 . S
C218 O229 1.289 . S
C219 O230 1.258 . S
C219 O231 1.256 . S
O220 La200 2.521 . S
O220 C202 1.261 . S
O221 La200 2.628 . S
O221 C202 1.243 . S
O222 La200 2.554 . S
O222 C209 1.240 . S
O223 La200 2.757 . S
O223 La201 2.482 . S
O223 C209 1.289 . S
O224 La200 2.470 . S
O224 C210 1.258 . S
O225 La201 2.503 . S
O225 C210 1.256 . S
O226 La201 2.521 . S
O226 C211 1.261 . S
O227 La201 2.628 . S
O227 C211 1.243 . S
O228 La201 2.554 . S
O228 C218 1.240 . S
O229 La200 2.482 . S
O229 La201 2.757 . S
O229 C218 1.289 . S
O230 La201 2.470 . S
O230 C219 1.258 . S
O231 La200 2.503 . S
O231 C219 1.256 . S
H232 C204 0.930 . S
H233 C205 0.930 . S
H234 C207 0.929 . S
H235 C208 0.929 . S
H236 C213 0.930 . S
H237 C214 0.930 . S
H238 C216 0.929 . S
H239 C217 0.929 . S
La240 C242 2.928 . S
La240 O260 2.521 . S
La240 O261 2.628 . S
La240 O262 2.554 . S
La240 O263 2.757 . S
La240 O264 2.470 . S
La240 O269 2.482 . S
La240 O271 2.503 . S
La241 C251 2.928 . S
La241 O263 2.482 . S
La241 O265 2.503 . S
La241 O266 2.521 . S
La241 O267 2.628 . S
La241 O268 2.554 . S
La241 O269 2.757 . S
La241 O270 2.470 . S
C242 La240 2.928 . S
C242 C243 1.503 . S
C242 O260 1.261 . S
C242 O261 1.243 . S
C243 C242 1.503 . S
C243 C244 1.394 . S
C243 C248 1.373 . S
C244 C243 1.394 . S
C244 C245 1.380 . S
C244 H272 0.930 . S
C245 C244 1.380 . S
C245 C246 1.376 . S
C245 H273 0.930 . S
C246 C245 1.376 . S
C246 C247 1.370 . S
C247 C246 1.370 . S
C247 C248 1.396 . S
C247 H274 0.929 . S
C248 C243 1.373 . S
C248 C247 1.396 . S
C248 H275 0.929 . S
C249 O262 1.240 . S
C249 O263 1.289 . S
C250 O264 1.258 . S
C250 O265 1.256 . S
C251 La241 2.928 . S
C251 C252 1.503 . S
C251 O266 1.261 . S
C251 O267 1.243 . S
C252 C251 1.503 . S
C252 C253 1.394 . S
C252 C257 1.373 . S
C253 C252 1.394 . S
C253 C254 1.380 . S
C253 H276 0.930 . S
C254 C253 1.380 . S
C254 C255 1.376 . S
C254 H277 0.930 . S
C255 C254 1.376 . S
C255 C256 1.370 . S
C256 C255 1.370 . S
C256 C257 1.396 . S
C256 H278 0.929 . S
C257 C252 1.373 . S
C257 C256 1.396 . S
C257 H279 0.929 . S
C258 O268 1.240 . S
C258 O269 1.289 . S
C259 O270 1.258 . S
C259 O271 1.256 . S
O260 La240 2.521 . S
O260 C242 1.261 . S
O261 La240 2.628 . S
O261 C242 1.243 . S
O262 La240 2.554 . S
O262 C249 1.240 . S
O263 La240 2.757 . S
O263 La241 2.482 . S
O263 C249 1.289 . S
O264 La240 2.470 . S
O264 C250 1.258 . S
O265 La241 2.503 . S
O265 C250 1.256 . S
O266 La241 2.521 . S
O266 C251 1.261 . S
O267 La241 2.628 . S
O267 C251 1.243 . S
O268 La241 2.554 . S
O268 C258 1.240 . S
O269 La240 2.482 . S
O269 La241 2.757 . S
O269 C258 1.289 . S
O270 La241 2.470 . S
O270 C259 1.258 . S
O271 La240 2.503 . S
O271 C259 1.256 . S
H272 C244 0.930 . S
H273 C245 0.930 . S
H274 C247 0.929 . S
H275 C248 0.929 . S
H276 C253 0.930 . S
H277 C254 0.930 . S
H278 C256 0.929 . S
H279 C257 0.929 . S
La280 C282 2.928 . S
La280 O300 2.521 . S
La280 O301 2.628 . S
La280 O302 2.554 . S
La280 O303 2.757 . S
La280 O304 2.470 . S
La280 O309 2.482 . S
La280 O311 2.503 . S
La281 C291 2.928 . S
La281 O303 2.482 . S
La281 O305 2.503 . S
La281 O306 2.521 . S
La281 O307 2.628 . S
La281 O308 2.554 . S
La281 O309 2.757 . S
La281 O310 2.470 . S
C282 La280 2.928 . S
C282 C283 1.503 . S
C282 O300 1.261 . S
C282 O301 1.243 . S
C283 C282 1.503 . S
C283 C284 1.394 . S
C283 C288 1.373 . S
C284 C283 1.394 . S
C284 C285 1.380 . S
C284 H312 0.930 . S
C285 C284 1.380 . S
C285 C286 1.376 . S
C285 H313 0.930 . S
C286 C285 1.376 . S
C286 C287 1.370 . S
C287 C286 1.370 . S
C287 C288 1.396 . S
C287 H314 0.929 . S
C288 C283 1.373 . S
C288 C287 1.396 . S
C288 H315 0.929 . S
C289 O302 1.240 . S
C289 O303 1.289 . S
C290 O304 1.258 . S
C290 O305 1.256 . S
C291 La281 2.928 . S
C291 C292 1.503 . S
C291 O306 1.261 . S
C291 O307 1.243 . S
C292 C291 1.503 . S
C292 C293 1.394 . S
C292 C297 1.373 . S
C293 C292 1.394 . S
C293 C294 1.380 . S
C293 H316 0.930 . S
C294 C293 1.380 . S
C294 C295 1.376 . S
C294 H317 0.930 . S
C295 C294 1.376 . S
C295 C296 1.370 . S
C296 C295 1.370 . S
C296 C297 1.396 . S
C296 H318 0.929 . S
C297 C292 1.373 . S
C297 C296 1.396 . S
C297 H319 0.929 . S
C298 O308 1.240 . S
C298 O309 1.289 . S
C299 O310 1.258 . S
C299 O311 1.256 . S
O300 La280 2.521 . S
O300 C282 1.261 . S
O301 La280 2.628 . S
O301 C282 1.243 . S
O302 La280 2.554 . S
O302 C289 1.240 . S
O303 La280 2.757 . S
O303 La281 2.482 . S
O303 C289 1.289 . S
O304 La280 2.470 . S
O304 C290 1.258 . S
O305 La281 2.503 . S
O305 C290 1.256 . S
O306 La281 2.521 . S
O306 C291 1.261 . S
O307 La281 2.628 . S
O307 C291 1.243 . S
O308 La281 2.554 . S
O308 C298 1.240 . S
O309 La280 2.482 . S
O309 La281 2.757 . S
O309 C298 1.289 . S
O310 La281 2.470 . S
O310 C299 1.258 . S
O311 La280 2.503 . S
O311 C299 1.256 . S
H312 C284 0.930 . S
H313 C285 0.930 . S
H314 C287 0.929 . S
H315 C288 0.929 . S
H316 C293 0.930 . S
H317 C294 0.930 . S
H318 C296 0.929 . S
H319 C297 0.929 . S
La320 C322 2.928 . S
La320 O340 2.521 . S
La320 O341 2.628 . S
La320 O342 2.554 . S
La320 O343 2.757 . S
La320 O344 2.470 . S
La320 O349 2.482 . S
La320 O351 2.503 . S
La321 C331 2.928 . S
La321 O343 2.482 . S
La321 O345 2.503 . S
La321 O346 2.521 . S
La321 O347 2.628 . S
La321 O348 2.554 . S
La321 O349 2.757 . S
La321 O350 2.470 . S
C322 La320 2.928 . S
C322 C323 1.503 . S
C322 O340 1.261 . S
C322 O341 1.243 . S
C323 C322 1.503 . S
C323 C324 1.394 . S
C323 C328 1.373 . S
C324 C323 1.394 . S
C324 C325 1.380 . S
C324 H352 0.930 . S
C325 C324 1.380 . S
C325 C326 1.376 . S
C325 H353 0.930 . S
C326 C325 1.376 . S
C326 C327 1.370 . S
C327 C326 1.370 . S
C327 C328 1.396 . S
C327 H354 0.929 . S
C328 C323 1.373 . S
C328 C327 1.396 . S
C328 H355 0.929 . S
C329 O342 1.240 . S
C329 O343 1.289 . S
C330 O344 1.258 . S
C330 O345 1.256 . S
C331 La321 2.928 . S
C331 C332 1.503 . S
C331 O346 1.261 . S
C331 O347 1.243 . S
C332 C331 1.503 . S
C332 C333 1.394 . S
C332 C337 1.373 . S
C333 C332 1.394 . S
C333 C334 1.380 . S
C333 H356 0.930 . S
C334 C333 1.380 . S
C334 C335 1.376 . S
C334 H357 0.930 . S
C335 C334 1.376 . S
C335 C336 1.370 . S
C336 C335 1.370 . S
C336 C337 1.396 . S
C336 H358 0.929 . S
C337 C332 1.373 . S
C337 C336 1.396 . S
C337 H359 0.929 . S
C338 O348 1.240 . S
C338 O349 1.289 . S
C339 O350 1.258 . S
C339 O351 1.256 . S
O340 La320 2.521 . S
O340 C322 1.261 . S
O341 La320 2.628 . S
O341 C322 1.243 . S
O342 La320 2.554 . S
O342 C329 1.240 . S
O343 La320 2.757 . S
O343 La321 2.482 . S
O343 C329 1.289 . S
O344 La320 2.470 . S
O344 C330 1.258 . S
O345 La321 2.503 . S
O345 C330 1.256 . S
O346 La321 2.521 . S
O346 C331 1.261 . S
O347 La321 2.628 . S
O347 C331 1.243 . S
O348 La321 2.554 . S
O348 C338 1.240 . S
O349 La320 2.482 . S
O349 La321 2.757 . S
O349 C338 1.289 . S
O350 La321 2.470 . S
O350 C339 1.258 . S
O351 La320 2.503 . S
O351 C339 1.256 . S
H352 C324 0.930 . S
H353 C325 0.930 . S
H354 C327 0.929 . S
H355 C328 0.929 . S
H356 C333 0.930 . S
H357 C334 0.930 . S
H358 C336 0.929 . S
H359 C337 0.929 . S
C360 C361 1.349 . S
C360 C362 1.327 . S
C360 H385 0.950 1_556 S
C361 C360 1.349 . S
C361 C377 1.349 . S
C362 C360 1.327 . S
C362 C381 1.429 . S
C362 H386 0.950 . S
C363 C380 1.574 . S
C363 C382 1.368 . S
C363 H387 0.949 . S
H364 C368 0.949 . S
C365 C366 1.349 . S
C365 C367 1.327 . S
C365 H388 0.950 . S
C366 C365 1.349 . S
C366 C378 1.349 . S
C367 C365 1.327 . S
C367 C383 1.429 . S
C367 H389 0.950 . S
C368 H364 0.949 . S
C368 C376 1.574 . S
C368 C384 1.368 . S
H369 C377 0.950 . S
H370 C375 0.950 . S
H371 C376 0.949 . S
H372 C378 0.950 . S
H373 C379 0.950 . S
H374 C380 0.949 . S
C375 H370 0.950 . S
C375 C377 1.327 . S
C375 C381 1.429 . S
C376 C368 1.574 . S
C376 H371 0.949 . S
C376 C382 1.368 . S
C377 C361 1.349 . S
C377 H369 0.950 . S
C377 C375 1.327 . S
C378 C366 1.349 . S
C378 H372 0.950 . S
C378 C379 1.327 . S
C379 H373 0.950 . S
C379 C378 1.327 . S
C379 C383 1.429 . S
C380 C363 1.574 . S
C380 H374 0.949 . S
C380 C384 1.368 . S
C381 C362 1.429 . S
C381 C375 1.429 . S
C381 C382 1.523 . S
C382 C363 1.368 . S
C382 C376 1.368 . S
C382 C381 1.523 . S
C383 C367 1.429 . S
C383 C379 1.429 . S
C383 C384 1.523 . S
C384 C368 1.368 . S
C384 C380 1.368 . S
C384 C383 1.523 . S
H385 C360 0.950 1_554 S
H386 C362 0.950 . S
H387 C363 0.949 . S
H388 C365 0.950 . S
H389 C367 0.950 . S
C390 C391 1.349 . S
C390 C392 1.327 . S
C390 H415 0.950 . S
C391 C390 1.349 . S
C391 C407 1.349 . S
C392 C390 1.327 . S
C392 C411 1.429 . S
C392 H416 0.950 . S
C393 C410 1.574 . S
C393 C412 1.368 . S
C393 H417 0.949 . S
H394 C398 0.949 . S
C395 C396 1.349 . S
C395 C397 1.327 . S
C395 H418 0.950 . S
C396 C395 1.349 . S
C396 C408 1.349 . S
C397 C395 1.327 . S
C397 C413 1.429 . S
C397 H419 0.950 . S
C398 H394 0.949 . S
C398 C406 1.574 . S
C398 C414 1.368 . S
H399 C407 0.950 1_554 S
H400 C405 0.950 . S
H401 C406 0.949 . S
H402 C408 0.950 . S
H403 C409 0.950 . S
H404 C410 0.949 . S
C405 H400 0.950 . S
C405 C407 1.327 . S
C405 C411 1.429 . S
C406 C398 1.574 . S
C406 H401 0.949 . S
C406 C412 1.368 . S
C407 C391 1.349 . S
C407 H399 0.950 1_556 S
C407 C405 1.327 . S
C408 C396 1.349 . S
C408 H402 0.950 . S
C408 C409 1.327 . S
C409 H403 0.950 . S
C409 C408 1.327 . S
C409 C413 1.429 . S
C410 C393 1.574 . S
C410 H404 0.949 . S
C410 C414 1.368 . S
C411 C392 1.429 . S
C411 C405 1.429 . S
C411 C412 1.523 . S
C412 C393 1.368 . S
C412 C406 1.368 . S
C412 C411 1.523 . S
C413 C397 1.429 . S
C413 C409 1.429 . S
C413 C414 1.523 . S
C414 C398 1.368 . S
C414 C410 1.368 . S
C414 C413 1.523 . S
H415 C390 0.950 . S
H416 C392 0.950 . S
H417 C393 0.949 . S
H418 C395 0.950 . S
H419 C397 0.950 . S
C420 C421 1.349 . S
C420 C422 1.327 . S
C420 H445 0.950 . S
C421 C420 1.349 . S
C421 C437 1.349 . S
C422 C420 1.327 . S
C422 C441 1.429 . S
C422 H446 0.950 . S
C423 C440 1.574 . S
C423 C442 1.368 . S
C423 H447 0.949 . S
H424 C428 0.949 . S
C425 C426 1.349 . S
C425 C427 1.327 . S
C425 H448 0.950 . S
C426 C425 1.349 . S
C426 C438 1.349 . S
C427 C425 1.327 . S
C427 C443 1.429 . S
C427 H449 0.950 . S
C428 H424 0.949 . S
C428 C436 1.574 . S
C428 C444 1.368 . S
H429 C437 0.949 1_554 S
H430 C435 0.950 . S
H431 C436 0.949 . S
H432 C438 0.950 . S
H433 C439 0.950 . S
H434 C440 0.949 . S
C435 H430 0.950 . S
C435 C437 1.327 . S
C435 C441 1.429 . S
C436 C428 1.574 . S
C436 H431 0.949 . S
C436 C442 1.368 . S
C437 C421 1.349 . S
C437 H429 0.949 1_556 S
C437 C435 1.327 . S
C438 C426 1.349 . S
C438 H432 0.950 . S
C438 C439 1.327 . S
C439 H433 0.950 . S
C439 C438 1.327 . S
C439 C443 1.429 . S
C440 C423 1.574 . S
C440 H434 0.949 . S
C440 C444 1.368 . S
C441 C422 1.429 . S
C441 C435 1.429 . S
C441 C442 1.523 . S
C442 C423 1.368 . S
C442 C436 1.368 . S
C442 C441 1.523 . S
C443 C427 1.429 . S
C443 C439 1.429 . S
C443 C444 1.523 . S
C444 C428 1.368 . S
C444 C440 1.368 . S
C444 C443 1.523 . S
H445 C420 0.950 . S
H446 C422 0.950 . S
H447 C423 0.949 . S
H448 C425 0.950 . S
H449 C427 0.950 . S
C450 C451 1.349 . S
C450 C452 1.327 . S
C450 H475 0.950 . S
C451 C450 1.349 . S
C451 C467 1.349 . S
C452 C450 1.327 . S
C452 C471 1.429 . S
C452 H476 0.950 . S
C453 C470 1.574 . S
C453 C472 1.368 . S
C453 H477 0.949 . S
H454 C458 0.949 . S
C455 C456 1.349 . S
C455 C457 1.327 . S
C455 H478 0.950 . S
C456 C455 1.349 . S
C456 C468 1.349 1_554 S
C457 C455 1.327 . S
C457 C473 1.429 . S
C457 H479 0.950 . S
C458 H454 0.949 . S
C458 C466 1.574 . S
C458 C474 1.368 . S
H459 C467 0.950 . S
H460 C465 0.950 . S
H461 C466 0.949 . S
H462 C468 0.950 . S
H463 C469 0.950 1_556 S
H464 C470 0.949 . S
C465 H460 0.950 . S
C465 C467 1.327 . S
C465 C471 1.429 . S
C466 C458 1.574 . S
C466 H461 0.949 . S
C466 C472 1.368 . S
C467 C451 1.349 . S
C467 H459 0.950 . S
C467 C465 1.327 . S
C468 C456 1.349 1_556 S
C468 H462 0.950 . S
C468 C469 1.327 1_556 S
C469 H463 0.950 1_554 S
C469 C468 1.327 1_554 S
C469 C473 1.429 . S
C470 C453 1.574 . S
C470 H464 0.949 . S
C470 C474 1.368 . S
C471 C452 1.429 . S
C471 C465 1.429 . S
C471 C472 1.523 . S
C472 C453 1.368 . S
C472 C466 1.368 . S
C472 C471 1.523 . S
C473 C457 1.429 . S
C473 C469 1.429 . S
C473 C474 1.523 . S
C474 C458 1.368 . S
C474 C470 1.368 . S
C474 C473 1.523 . S
H475 C450 0.950 . S
H476 C452 0.950 . S
H477 C453 0.949 . S
H478 C455 0.950 . S
H479 C457 0.950 . S
C480 C481 1.349 . S
C480 C482 1.327 . S
C480 H505 0.950 . S
C481 C480 1.349 . S
C481 C497 1.349 . S
C482 C480 1.327 . S
C482 C501 1.429 . S
C482 H506 0.950 . S
C483 C500 1.574 . S
C483 C502 1.368 . S
C483 H507 0.949 . S
H484 C488 0.949 . S
C485 C486 1.349 . S
C485 C487 1.327 . S
C485 H508 0.950 . S
C486 C485 1.349 . S
C486 C498 1.349 . S
C487 C485 1.327 . S
C487 C503 1.429 . S
C487 H509 0.950 . S
C488 H484 0.949 . S
C488 C496 1.574 . S
C488 C504 1.368 . S
H489 C497 0.950 . S
H490 C495 0.950 . S
H491 C496 0.949 . S
H492 C498 0.902 1_456 S
H493 C499 0.950 . S
H494 C500 0.949 . S
C495 H490 0.950 . S
C495 C497 1.327 . S
C495 C501 1.429 . S
C496 C488 1.574 . S
C496 H491 0.949 . S
C496 C502 1.368 . S
C497 C481 1.349 . S
C497 H489 0.950 . S
C497 C495 1.327 . S
C498 C486 1.349 . S
C498 H492 0.902 1_654 S
C498 C499 1.327 . S
C499 H493 0.950 . S
C499 C498 1.327 . S
C499 C503 1.429 . S
C500 C483 1.574 . S
C500 H494 0.949 . S
C500 C504 1.368 . S
C501 C482 1.429 . S
C501 C495 1.429 . S
C501 C502 1.523 . S
C502 C483 1.368 . S
C502 C496 1.368 . S
C502 C501 1.523 . S
C503 C487 1.429 . S
C503 C499 1.429 . S
C503 C504 1.523 . S
C504 C488 1.368 . S
C504 C500 1.368 . S
C504 C503 1.523 . S
H505 C480 0.950 . S
H506 C482 0.950 . S
H507 C483 0.949 . S
H508 C485 0.950 . S
H509 C487 0.950 . S
C510 C511 1.349 . S
C510 C512 1.327 . S
C510 H535 0.950 . S
C511 C510 1.349 . S
C511 C527 1.349 . S
C512 C510 1.327 . S
C512 C531 1.429 . S
C512 H536 0.950 . S
C513 C530 1.574 . S
C513 C532 1.368 . S
C513 H537 0.949 . S
H514 C518 0.949 . S
C515 C516 1.349 . S
C515 C517 1.327 . S
C515 H538 0.950 . S
C516 C515 1.349 . S
C516 C528 1.349 . S
C517 C515 1.327 . S
C517 C533 1.429 . S
C517 H539 0.950 . S
C518 H514 0.949 . S
C518 C526 1.574 . S
C518 C534 1.368 . S
H519 C527 0.950 1_556 S
H520 C525 0.950 . S
H521 C526 0.949 . S
H522 C528 0.950 . S
H523 C529 0.950 . S
H524 C530 0.949 . S
C525 H520 0.950 . S
C525 C527 1.327 . S
C525 C531 1.429 . S
C526 C518 1.574 . S
C526 H521 0.949 . S
C526 C532 1.368 . S
C527 C511 1.349 . S
C527 H519 0.950 1_554 S
C527 C525 1.327 . S
C528 C516 1.349 . S
C528 H522 0.950 . S
C528 C529 1.327 . S
C529 H523 0.950 . S
C529 C528 1.327 . S
C529 C533 1.429 . S
C530 C513 1.574 . S
C530 H524 0.949 . S
C530 C534 1.368 . S
C531 C512 1.429 . S
C531 C525 1.429 . S
C531 C532 1.523 . S
C532 C513 1.368 . S
C532 C526 1.368 . S
C532 C531 1.523 . S
C533 C517 1.429 . S
C533 C529 1.429 . S
C533 C534 1.523 . S
C534 C518 1.368 . S
C534 C530 1.368 . S
C534 C533 1.523 . S
H535 C510 0.950 . S
H536 C512 0.950 . S
H537 C513 0.949 . S
H538 C515 0.950 . S
H539 C517 0.950 . S
C540 C541 1.349 . S
C540 C542 1.327 . S
C540 H565 0.950 . S
C541 C540 1.349 . S
C541 C557 1.349 . S
C542 C540 1.327 . S
C542 C561 1.429 . S
C542 H566 0.950 . S
C543 C560 1.574 . S
C543 C562 1.368 . S
C543 H567 0.949 . S
H544 C548 0.949 . S
C545 C546 1.349 . S
C545 C547 1.327 . S
C545 H568 0.950 . S
C546 C545 1.349 . S
C546 C558 1.349 . S
C547 C545 1.327 . S
C547 C563 1.429 . S
C547 H569 0.950 . S
C548 H544 0.949 . S
C548 C556 1.574 . S
C548 C564 1.368 . S
H549 C557 0.950 . S
H550 C555 0.950 . S
H551 C556 0.949 . S
H552 C558 0.950 . S
H553 C559 0.950 . S
H554 C560 0.949 . S
C555 H550 0.950 . S
C555 C557 1.327 . S
C555 C561 1.429 . S
C556 C548 1.574 . S
C556 H551 0.949 . S
C556 C562 1.368 . S
C557 C541 1.349 . S
C557 H549 0.950 . S
C557 C555 1.327 . S
C558 C546 1.349 . S
C558 H552 0.950 . S
C558 C559 1.327 . S
C559 H553 0.950 . S
C559 C558 1.327 . S
C559 C563 1.429 . S
C560 C543 1.574 . S
C560 H554 0.949 . S
C560 C564 1.368 . S
C561 C542 1.429 . S
C561 C555 1.429 . S
C561 C562 1.523 1_455 S
C562 C543 1.368 . S
C562 C556 1.368 . S
C562 C561 1.523 1_655 S
C563 C547 1.429 . S
C563 C559 1.429 . S
C563 C564 1.523 . S
C564 C548 1.368 . S
C564 C560 1.368 . S
C564 C563 1.523 . S
H565 C540 0.950 . S
H566 C542 0.950 . S
H567 C543 0.949 . S
H568 C545 0.950 . S
H569 C547 0.950 . S
C570 C571 1.349 . S
C570 C572 1.327 . S
C570 H595 0.950 . S
C571 C570 1.349 . S
C571 C587 1.349 . S
C572 C570 1.327 . S
C572 C591 1.429 . S
C572 H596 0.950 . S
C573 C590 1.574 . S
C573 C592 1.368 . S
C573 H597 0.949 . S
H574 C578 0.949 . S
C575 C576 1.349 . S
C575 C577 1.327 . S
C575 H598 0.950 . S
C576 C575 1.349 . S
C576 C588 1.349 . S
C577 C575 1.327 . S
C577 C593 1.429 . S
C577 H599 0.950 . S
C578 H574 0.949 . S
C578 C586 1.574 . S
C578 C594 1.368 . S
H579 C587 0.950 . S
H580 C585 0.950 . S
H581 C586 0.949 . S
H582 C588 0.950 . S
H583 C589 0.950 . S
H584 C590 0.949 . S
C585 H580 0.950 . S
C585 C587 1.327 . S
C585 C591 1.429 . S
C586 C578 1.574 . S
C586 H581 0.949 . S
C586 C592 1.368 . S
C587 C571 1.349 . S
C587 H579 0.950 . S
C587 C585 1.327 . S
C588 C576 1.349 . S
C588 H582 0.950 . S
C588 C589 1.327 . S
C589 H583 0.950 . S
C589 C588 1.327 . S
C589 C593 1.429 . S
C590 C573 1.574 . S
C590 H584 0.949 . S
C590 C594 1.368 . S
C591 C572 1.429 . S
C591 C585 1.429 . S
C591 C592 1.523 . S
C592 C573 1.368 . S
C592 C586 1.368 . S
C592 C591 1.523 . S
C593 C577 1.429 . S
C593 C589 1.429 . S
C593 C594 1.523 . S
C594 C578 1.368 . S
C594 C590 1.368 . S
C594 C593 1.523 . S
H595 C570 0.950 . S
H596 C572 0.950 . S
H597 C573 0.949 . S
H598 C575 0.950 . S
H599 C577 0.950 . S
C600 C601 1.349 . S
C600 C602 1.327 . S
C600 H625 0.950 . S
C601 C600 1.349 . S
C601 C617 1.349 . S
C602 C600 1.327 . S
C602 C621 1.429 . S
C602 H626 0.950 . S
C603 C620 1.574 . S
C603 C622 1.368 . S
C603 H627 0.949 . S
H604 C608 0.949 . S
C605 C606 1.349 . S
C605 C607 1.327 1_565 S
C605 H628 0.950 . S
C606 C605 1.349 . S
C606 C618 1.349 . S
C607 C605 1.327 1_545 S
C607 C623 1.429 . S
C607 H629 0.950 . S
C608 H604 0.949 . S
C608 C616 1.574 . S
C608 C624 1.368 . S
H609 C617 0.950 . S
H610 C615 0.950 . S
H611 C616 0.949 . S
H612 C618 0.950 . S
H613 C619 0.950 . S
H614 C620 0.949 . S
C615 H610 0.950 . S
C615 C617 1.327 . S
C615 C621 1.429 . S
C616 C608 1.574 . S
C616 H611 0.949 . S
C616 C622 1.368 . S
C617 C601 1.349 . S
C617 H609 0.950 . S
C617 C615 1.327 . S
C618 C606 1.349 . S
C618 H612 0.950 . S
C618 C619 1.327 1_565 S
C619 H613 0.950 . S
C619 C618 1.327 1_545 S
C619 C623 1.429 . S
C620 C603 1.574 . S
C620 H614 0.949 . S
C620 C624 1.368 . S
C621 C602 1.429 . S
C621 C615 1.429 . S
C621 C622 1.523 . S
C622 C603 1.368 . S
C622 C616 1.368 . S
C622 C621 1.523 . S
C623 C607 1.429 . S
C623 C619 1.429 . S
C623 C624 1.523 . S
C624 C608 1.368 . S
C624 C620 1.368 . S
C624 C623 1.523 . S
H625 C600 0.950 . S
H626 C602 0.950 . S
H627 C603 0.949 . S
H628 C605 0.950 . S
H629 C607 0.950 . S
C630 C631 1.349 1_556 S
C630 C632 1.327 . S
C630 H655 0.950 . S
C631 C630 1.349 1_554 S
C631 C647 1.349 . S
C632 C630 1.327 . S
C632 C651 1.429 1_556 S
C632 H656 0.950 . S
C633 C650 1.574 . S
C633 C652 1.368 . S
C633 H657 0.949 . S
H634 C638 0.949 . S
C635 C636 1.349 . S
C635 C637 1.327 . S
C635 H658 0.950 . S
C636 C635 1.349 . S
C636 C648 1.349 1_554 S
C637 C635 1.327 . S
C637 C653 1.429 . S
C637 H659 0.950 . S
C638 H634 0.949 . S
C638 C646 1.574 . S
C638 C654 1.368 1_556 S
H639 C647 0.950 . S
H640 C645 0.950 . S
H641 C646 0.949 . S
H642 C648 0.950 . S
H643 C649 0.950 . S
H644 C650 0.949 . S
C645 H640 0.950 . S
C645 C647 1.327 . S
C645 C651 1.429 . S
C646 C638 1.574 . S
C646 H641 0.949 . S
C646 C652 1.368 1_556 S
C647 C631 1.349 . S
C647 H639 0.950 . S
C647 C645 1.327 . S
C648 C636 1.349 1_556 S
C648 H642 0.950 . S
C648 C649 1.327 . S
C649 H643 0.950 . S
C649 C648 1.327 . S
C649 C653 1.429 1_556 S
C650 C633 1.574 . S
C650 H644 0.949 . S
C650 C654 1.368 . S
C651 C632 1.429 1_554 S
C651 C645 1.429 . S
C651 C652 1.523 . S
C652 C633 1.368 . S
C652 C646 1.368 1_554 S
C652 C651 1.523 . S
C653 C637 1.429 . S
C653 C649 1.429 1_554 S
C653 C654 1.523 . S
C654 C638 1.368 1_554 S
C654 C650 1.368 . S
C654 C653 1.523 . S
H655 C630 0.950 . S
H656 C632 0.950 . S
H657 C633 0.949 . S
H658 C635 0.950 . S
H659 C637 0.950 . S
C660 C661 1.349 . S
C660 C662 1.327 . S
C660 H685 0.950 . S
C661 C660 1.349 . S
C661 C677 1.349 1_554 S
C662 C660 1.327 . S
C662 C681 1.429 . S
C662 H686 0.950 . S
C663 C680 1.574 . S
C663 C682 1.368 1_556 S
C663 H687 0.949 . S
H664 C668 0.949 . S
C665 C666 1.349 1_556 S
C665 C667 1.327 . S
C665 H688 0.950 . S
C666 C665 1.349 1_554 S
C666 C678 1.349 . S
C667 C665 1.327 . S
C667 C683 1.429 1_556 S
C667 H689 0.950 . S
C668 H664 0.949 . S
C668 C676 1.574 . S
C668 C684 1.368 . S
H669 C677 0.950 . S
H670 C675 0.950 . S
H671 C676 0.949 . S
H672 C678 0.950 . S
H673 C679 0.950 . S
H674 C680 0.949 . S
C675 H670 0.950 . S
C675 C677 1.327 . S
C675 C681 1.429 1_556 S
C676 C668 1.574 . S
C676 H671 0.949 . S
C676 C682 1.368 . S
C677 C661 1.349 1_556 S
C677 H669 0.950 . S
C677 C675 1.327 . S
C678 C666 1.349 . S
C678 H672 0.950 . S
C678 C679 1.327 . S
C679 H673 0.950 . S
C679 C678 1.327 . S
C679 C683 1.429 . S
C680 C663 1.574 . S
C680 H674 0.949 . S
C680 C684 1.368 1_556 S
C681 C662 1.429 . S
C681 C675 1.429 1_554 S
C681 C682 1.523 . S
C682 C663 1.368 1_554 S
C682 C676 1.368 . S
C682 C681 1.523 . S
C683 C667 1.429 1_554 S
C683 C679 1.429 . S
C683 C684 1.523 1_545 S
C684 C668 1.368 . S
C684 C680 1.368 1_554 S
C684 C683 1.523 1_565 S
H685 C660 0.950 . S
H686 C662 0.950 . S
H687 C663 0.949 . S
H688 C665 0.950 . S
H689 C667 0.950 . S
C690 C691 1.349 . S
C690 C692 1.327 1_655 S
C690 H715 0.950 . S
C691 C690 1.349 . S
C691 C707 1.349 1_554 S
C692 C690 1.327 1_455 S
C692 C711 1.429 . S
C692 H716 0.950 . S
C693 C710 1.574 . S
C693 C712 1.368 1_556 S
C693 H717 0.949 . S
H694 C698 0.949 . S
C695 C696 1.349 1_556 S
C695 C697 1.327 . S
C695 H718 0.950 . S
C696 C695 1.349 1_554 S
C696 C708 1.349 . S
C697 C695 1.327 . S
C697 C713 1.429 1_556 S
C697 H719 0.950 . S
C698 H694 0.949 . S
C698 C706 1.574 . S
C698 C714 1.368 . S
H699 C707 0.950 . S
H700 C705 0.950 . S
H701 C706 0.949 . S
H702 C708 0.950 . S
H703 C709 0.950 . S
H704 C710 0.949 . S
C705 H700 0.950 . S
C705 C707 1.327 1_455 S
C705 C711 1.429 1_556 S
C706 C698 1.574 . S
C706 H701 0.949 . S
C706 C712 1.368 . S
C707 C691 1.349 1_556 S
C707 H699 0.950 . S
C707 C705 1.327 1_655 S
C708 C696 1.349 . S
C708 H702 0.950 . S
C708 C709 1.327 . S
C709 H703 0.950 . S
C709 C708 1.327 . S
C709 C713 1.429 . S
C710 C693 1.574 . S
C710 H704 0.949 . S
C710 C714 1.368 1_556 S
C711 C692 1.429 . S
C711 C705 1.429 1_554 S
C711 C712 1.523 . S
C712 C693 1.368 1_554 S
C712 C706 1.368 . S
C712 C711 1.523 . S
C713 C697 1.429 1_554 S
C713 C709 1.429 . S
C713 C714 1.523 . S
C714 C698 1.368 . S
C714 C710 1.368 1_554 S
C714 C713 1.523 . S
H715 C690 0.950 . S
H716 C692 0.950 . S
H717 C693 0.949 . S
H718 C695 0.950 . S
H719 C697 0.950 . S
C720 C721 1.349 . S
C720 C722 1.327 . S
C720 H745 0.950 . S
C721 C720 1.349 . S
C721 C737 1.349 . S
C722 C720 1.327 . S
C722 C741 1.429 . S
C722 H746 0.950 . S
C723 C740 1.574 . S
C723 C742 1.368 . S
C723 H747 0.949 . S
H724 C728 0.949 . S
C725 C726 1.349 . S
C725 C727 1.327 . S
C725 H748 0.950 . S
C726 C725 1.349 . S
C726 C738 1.349 . S
C727 C725 1.327 . S
C727 C743 1.429 . S
C727 H749 0.950 . S
C728 H724 0.949 . S
C728 C736 1.574 . S
C728 C744 1.368 . S
H729 C737 0.950 . S
H730 C735 0.950 . S
H731 C736 0.949 . S
H732 C738 0.950 . S
H733 C739 0.950 . S
H734 C740 0.949 . S
C735 H730 0.950 . S
C735 C737 1.327 . S
C735 C741 1.429 . S
C736 C728 1.574 . S
C736 H731 0.949 . S
C736 C742 1.368 . S
C737 C721 1.349 . S
C737 H729 0.950 . S
C737 C735 1.327 . S
C738 C726 1.349 . S
C738 H732 0.950 . S
C738 C739 1.327 . S
C739 H733 0.950 . S
C739 C738 1.327 . S
C739 C743 1.429 . S
C740 C723 1.574 . S
C740 H734 0.949 . S
C740 C744 1.368 . S
C741 C722 1.429 . S
C741 C735 1.429 . S
C741 C742 1.523 . S
C742 C723 1.368 . S
C742 C736 1.368 . S
C742 C741 1.523 . S
C743 C727 1.429 . S
C743 C739 1.429 . S
C743 C744 1.523 . S
C744 C728 1.368 . S
C744 C740 1.368 . S
C744 C743 1.523 . S
H745 C720 0.950 . S
H746 C722 0.950 . S
H747 C723 0.949 . S
H748 C725 0.950 . S
H749 C727 0.950 . S
C750 C751 1.349 . S
C750 C752 1.327 . S
C750 H775 0.950 . S
C751 C750 1.349 . S
C751 C767 1.349 . S
C752 C750 1.327 . S
C752 C771 1.429 . S
C752 H776 0.950 . S
C753 C770 1.574 . S
C753 C772 1.368 . S
C753 H777 0.949 . S
H754 C758 0.949 . S
C755 C756 1.349 . S
C755 C757 1.327 . S
C755 H778 0.950 . S
C756 C755 1.349 . S
C756 C768 1.349 . S
C757 C755 1.327 . S
C757 C773 1.429 . S
C757 H779 0.950 . S
C758 H754 0.949 . S
C758 C766 1.574 . S
C758 C774 1.368 . S
H759 C767 0.950 . S
H760 C765 0.950 . S
H761 C766 0.949 . S
H762 C768 0.950 . S
H763 C769 0.950 . S
H764 C770 0.949 . S
C765 H760 0.950 . S
C765 C767 1.327 . S
C765 C771 1.429 . S
C766 C758 1.574 . S
C766 H761 0.949 . S
C766 C772 1.368 . S
C767 C751 1.349 . S
C767 H759 0.950 . S
C767 C765 1.327 . S
C768 C756 1.349 . S
C768 H762 0.950 . S
C768 C769 1.327 . S
C769 H763 0.950 . S
C769 C768 1.327 . S
C769 C773 1.429 . S
C770 C753 1.574 . S
C770 H764 0.949 . S
C770 C774 1.368 . S
C771 C752 1.429 . S
C771 C765 1.429 . S
C771 C772 1.523 . S
C772 C753 1.368 . S
C772 C766 1.368 . S
C772 C771 1.523 . S
C773 C757 1.429 . S
C773 C769 1.429 . S
C773 C774 1.523 . S
C774 C758 1.368 . S
C774 C770 1.368 . S
C774 C773 1.523 . S
H775 C750 0.950 . S
H776 C752 0.950 . S
H777 C753 0.949 . S
H778 C755 0.950 . S
H779 C757 0.950 . S
C780 C781 1.349 . S
C780 C782 1.327 . S
C780 H805 0.950 . S
C781 C780 1.349 . S
C781 C797 1.349 . S
C782 C780 1.327 . S
C782 C801 1.429 . S
C782 H806 0.950 . S
C783 C800 1.574 . S
C783 C802 1.368 . S
C783 H807 0.949 . S
H784 C788 0.949 . S
C785 C786 1.349 . S
C785 C787 1.327 . S
C785 H808 0.950 . S
C786 C785 1.349 . S
C786 C798 1.349 . S
C787 C785 1.327 . S
C787 C803 1.429 . S
C787 H809 0.950 . S
C788 H784 0.949 . S
C788 C796 1.574 . S
C788 C804 1.368 . S
H789 C797 0.950 . S
H790 C795 0.950 . S
H791 C796 0.949 . S
H792 C798 0.950 . S
H793 C799 0.950 . S
H794 C800 0.949 . S
C795 H790 0.950 . S
C795 C797 1.327 . S
C795 C801 1.429 . S
C796 C788 1.574 . S
C796 H791 0.949 . S
C796 C802 1.368 . S
C797 C781 1.349 . S
C797 H789 0.950 . S
C797 C795 1.327 . S
C798 C786 1.349 . S
C798 H792 0.950 . S
C798 C799 1.327 . S
C799 H793 0.950 . S
C799 C798 1.327 . S
C799 C803 1.429 . S
C800 C783 1.574 . S
C800 H794 0.949 . S
C800 C804 1.368 . S
C801 C782 1.429 . S
C801 C795 1.429 . S
C801 C802 1.523 . S
C802 C783 1.368 . S
C802 C796 1.368 . S
C802 C801 1.523 . S
C803 C787 1.429 . S
C803 C799 1.429 . S
C803 C804 1.523 . S
C804 C788 1.368 . S
C804 C800 1.368 . S
C804 C803 1.523 . S
H805 C780 0.950 . S
H806 C782 0.950 . S
H807 C783 0.949 . S
H808 C785 0.950 . S
H809 C787 0.950 . S
C810 C811 1.349 . S
C810 C812 1.327 . S
C810 H835 0.950 . S
C811 C810 1.349 . S
C811 C827 1.349 . S
C812 C810 1.327 . S
C812 C831 1.429 . S
C812 H836 0.950 . S
C813 C830 1.574 . S
C813 C832 1.368 . S
C813 H837 0.949 . S
H814 C818 0.949 . S
C815 C816 1.349 . S
C815 C817 1.327 . S
C815 H838 0.950 . S
C816 C815 1.349 . S
C816 C828 1.349 . S
C817 C815 1.327 . S
C817 C833 1.429 . S
C817 H839 0.950 . S
C818 H814 0.949 . S
C818 C826 1.574 . S
C818 C834 1.368 . S
H819 C827 0.950 . S
H820 C825 0.950 . S
H821 C826 0.949 . S
H822 C828 0.950 . S
H823 C829 0.950 . S
H824 C830 0.949 . S
C825 H820 0.950 . S
C825 C827 1.327 . S
C825 C831 1.429 . S
C826 C818 1.574 . S
C826 H821 0.949 . S
C826 C832 1.368 . S
C827 C811 1.349 . S
C827 H819 0.950 . S
C827 C825 1.327 . S
C828 C816 1.349 . S
C828 H822 0.950 . S
C828 C829 1.327 . S
C829 H823 0.950 . S
C829 C828 1.327 . S
C829 C833 1.429 . S
C830 C813 1.574 . S
C830 H824 0.949 . S
C830 C834 1.368 . S
C831 C812 1.429 . S
C831 C825 1.429 . S
C831 C832 1.523 . S
C832 C813 1.368 . S
C832 C826 1.368 . S
C832 C831 1.523 . S
C833 C817 1.429 . S
C833 C829 1.429 . S
C833 C834 1.523 . S
C834 C818 1.368 . S
C834 C830 1.368 . S
C834 C833 1.523 . S
H835 C810 0.950 . S
H836 C812 0.950 . S
H837 C813 0.949 . S
H838 C815 0.950 . S
H839 C817 0.950 . S
C840 C841 1.349 . S
C840 C842 1.327 . S
C840 H865 0.950 . S
C841 C840 1.349 . S
C841 C857 1.349 . S
C842 C840 1.327 . S
C842 C861 1.429 . S
C842 H866 0.950 . S
C843 C860 1.574 . S
C843 C862 1.368 . S
C843 H867 0.949 . S
H844 C848 0.949 . S
C845 C846 1.349 . S
C845 C847 1.327 . S
C845 H868 0.950 . S
C846 C845 1.349 . S
C846 C858 1.349 . S
C847 C845 1.327 . S
C847 C863 1.429 . S
C847 H869 0.950 . S
C848 H844 0.949 . S
C848 C856 1.574 . S
C848 C864 1.368 . S
H849 C857 0.950 . S
H850 C855 0.950 . S
H851 C856 0.949 . S
H852 C858 0.950 . S
H853 C859 0.950 . S
H854 C860 0.949 . S
C855 H850 0.950 . S
C855 C857 1.327 . S
C855 C861 1.429 . S
C856 C848 1.574 . S
C856 H851 0.949 . S
C856 C862 1.368 . S
C857 C841 1.349 . S
C857 H849 0.950 . S
C857 C855 1.327 . S
C858 C846 1.349 . S
C858 H852 0.950 . S
C858 C859 1.327 . S
C859 H853 0.950 . S
C859 C858 1.327 . S
C859 C863 1.429 . S
C860 C843 1.574 . S
C860 H854 0.949 . S
C860 C864 1.368 . S
C861 C842 1.429 . S
C861 C855 1.429 . S
C861 C862 1.523 . S
C862 C843 1.368 . S
C862 C856 1.368 . S
C862 C861 1.523 . S
C863 C847 1.429 . S
C863 C859 1.429 . S
C863 C864 1.523 . S
C864 C848 1.368 . S
C864 C860 1.368 . S
C864 C863 1.523 . S
H865 C840 0.950 . S
H866 C842 0.950 . S
H867 C843 0.949 . S
H868 C845 0.950 . S
H869 C847 0.950 . S
C870 C871 1.349 . S
C870 C872 1.327 . S
C870 H895 0.950 . S
C871 C870 1.349 . S
C871 C887 1.349 . S
C872 C870 1.327 . S
C872 C891 1.429 . S
C872 H896 0.950 . S
C873 C890 1.574 . S
C873 C892 1.368 . S
C873 H897 0.949 . S
H874 C878 0.949 . S
C875 C876 1.349 . S
C875 C877 1.327 . S
C875 H898 0.950 . S
C876 C875 1.349 . S
C876 C888 1.349 . S
C877 C875 1.327 . S
C877 C893 1.429 . S
C877 H899 0.950 . S
C878 H874 0.949 . S
C878 C886 1.574 . S
C878 C894 1.368 . S
H879 C887 0.950 . S
H880 C885 0.950 . S
H881 C886 0.949 . S
H882 C888 0.950 . S
H883 C889 0.950 . S
H884 C890 0.949 . S
C885 H880 0.950 . S
C885 C887 1.327 . S
C885 C891 1.429 . S
C886 C878 1.574 . S
C886 H881 0.949 . S
C886 C892 1.368 . S
C887 C871 1.349 . S
C887 H879 0.950 . S
C887 C885 1.327 . S
C888 C876 1.349 . S
C888 H882 0.950 . S
C888 C889 1.327 . S
C889 H883 0.950 . S
C889 C888 1.327 . S
C889 C893 1.429 . S
C890 C873 1.574 . S
C890 H884 0.949 . S
C890 C894 1.368 . S
C891 C872 1.429 . S
C891 C885 1.429 . S
C891 C892 1.523 . S
C892 C873 1.368 . S
C892 C886 1.368 . S
C892 C891 1.523 . S
C893 C877 1.429 . S
C893 C889 1.429 . S
C893 C894 1.523 . S
C894 C878 1.368 . S
C894 C890 1.368 . S
C894 C893 1.523 . S
H895 C870 0.950 . S
H896 C872 0.950 . S
H897 C873 0.949 . S
H898 C875 0.950 . S
H899 C877 0.950 . S
C900 C901 1.349 1_655 S
C900 C902 1.327 . S
C900 H925 0.950 . S
C901 C900 1.349 1_455 S
C901 C917 1.349 . S
C902 C900 1.327 . S
C902 C921 1.429 1_655 S
C902 H926 0.950 . S
C903 C920 1.574 . S
C903 C922 1.368 . S
C903 H927 0.949 . S
H904 C908 0.949 . S
C905 C906 1.349 . S
C905 C907 1.327 . S
C905 H928 0.950 . S
C906 C905 1.349 . S
C906 C918 1.344 . S
C907 C905 1.327 . S
C907 C923 1.429 . S
C907 H929 0.950 . S
C908 H904 0.949 . S
C908 C916 1.574 . S
C908 C924 1.368 1_655 S
H909 C917 0.950 . S
H910 C915 0.950 . S
H911 C916 0.949 . S
H912 C918 0.954 1_655 S
H913 C919 0.992 . S
H914 C920 0.949 . S
C915 H910 0.950 . S
C915 C917 1.327 . S
C915 C921 1.429 . S
C916 C908 1.574 . S
C916 H911 0.949 . S
C916 C922 1.368 1_655 S
C917 C901 1.349 . S
C917 H909 0.950 . S
C917 C915 1.327 . S
C918 C906 1.344 . S
C918 H912 0.954 1_455 S
C918 C919 1.325 1_455 S
C919 H913 0.992 . S
C919 C918 1.325 1_655 S
C919 C923 1.395 1_655 S
C920 C903 1.574 . S
C920 H914 0.949 . S
C920 C924 1.368 . S
C921 C902 1.429 1_455 S
C921 C915 1.429 . S
C921 C922 1.523 . S
C922 C903 1.368 . S
C922 C916 1.368 1_455 S
C922 C921 1.523 . S
C923 C907 1.429 . S
C923 C919 1.395 1_455 S
C923 C924 1.523 . S
C924 C908 1.368 1_455 S
C924 C920 1.368 . S
C924 C923 1.523 . S
H925 C900 0.950 . S
H926 C902 0.950 . S
H927 C903 0.949 . S
H928 C905 0.950 . S
H929 C907 0.950 . S
C930 C931 1.349 . S
C930 C932 1.327 . S
C930 H955 0.950 . S
C931 C930 1.349 . S
C931 C947 1.349 . S
C932 C930 1.327 . S
C932 C951 1.429 . S
C932 H956 0.950 . S
C933 C950 1.574 . S
C933 C952 1.368 . S
C933 H957 0.949 . S
H934 C938 0.949 . S
C935 C936 1.349 . S
C935 C937 1.327 . S
C935 H958 0.950 . S
C936 C935 1.349 . S
C936 C948 1.349 . S
C937 C935 1.327 . S
C937 C953 1.429 . S
C937 H959 0.950 . S
C938 H934 0.949 . S
C938 C946 1.574 . S
C938 C954 1.368 . S
H939 C947 0.950 . S
H940 C945 0.950 . S
H941 C946 0.949 . S
H942 C948 0.950 . S
H943 C949 0.950 . S
H944 C950 0.949 . S
C945 H940 0.950 . S
C945 C947 1.327 . S
C945 C951 1.429 . S
C946 C938 1.574 . S
C946 H941 0.949 . S
C946 C952 1.368 . S
C947 C931 1.349 . S
C947 H939 0.950 . S
C947 C945 1.327 . S
C948 C936 1.349 . S
C948 H942 0.950 . S
C948 C949 1.327 . S
C949 H943 0.950 . S
C949 C948 1.327 . S
C949 C953 1.429 . S
C950 C933 1.574 . S
C950 H944 0.949 . S
C950 C954 1.368 . S
C951 C932 1.429 . S
C951 C945 1.429 . S
C951 C952 1.523 . S
C952 C933 1.368 . S
C952 C946 1.368 . S
C952 C951 1.523 . S
C953 C937 1.429 . S
C953 C949 1.429 . S
C953 C954 1.523 . S
C954 C938 1.368 . S
C954 C950 1.368 . S
C954 C953 1.523 . S
H955 C930 0.950 . S
H956 C932 0.950 . S
H957 C933 0.949 . S
H958 C935 0.950 . S
H959 C937 0.950 . S
C960 C961 1.349 . S
C960 C962 1.327 . S
C960 H985 0.950 . S
C961 C960 1.349 . S
C961 C977 1.349 . S
C962 C960 1.327 . S
C962 C981 1.429 . S
C962 H986 0.950 . S
C963 C980 1.575 . S
C963 C982 1.350 1_565 S
C963 H987 0.967 . S
H964 C968 0.949 . S
C965 C966 1.349 1_565 S
C965 C967 1.327 . S
C965 H988 0.950 . S
C966 C965 1.349 1_545 S
C966 C978 1.349 . S
C967 C965 1.327 . S
C967 C983 1.429 1_565 S
C967 H989 0.950 . S
C968 H964 0.949 . S
C968 C976 1.574 . S
C968 C984 1.368 . S
H969 C977 0.950 1_565 S
H970 C975 0.950 1_565 S
H971 C976 0.949 . S
H972 C978 0.950 . S
H973 C979 0.950 . S
H974 C980 0.949 . S
C975 H970 0.950 1_545 S
C975 C977 1.327 . S
C975 C981 1.429 . S
C976 C968 1.574 . S
C976 H971 0.949 . S
C976 C982 1.368 . S
C977 C961 1.349 . S
C977 H969 0.950 1_545 S
C977 C975 1.327 . S
C978 C966 1.349 . S
C978 H972 0.950 . S
C978 C979 1.327 . S
C979 H973 0.950 . S
C979 C978 1.327 . S
C979 C983 1.429 . S
C980 C963 1.575 . S
C980 H974 0.949 . S
C980 C984 1.368 1_565 S
C981 C962 1.429 . S
C981 C975 1.429 . S
C981 C982 1.523 . S
C982 C963 1.350 1_545 S
C982 C976 1.368 . S
C982 C981 1.523 . S
C983 C967 1.429 1_545 S
C983 C979 1.429 . S
C983 C984 1.523 . S
C984 C968 1.368 . S
C984 C980 1.368 1_545 S
C984 C983 1.523 . S
H985 C960 0.950 . S
H986 C962 0.950 . S
H987 C963 0.967 . S
H988 C965 0.950 . S
H989 C967 0.950 . S
C990 C991 1.349 . S
C990 C992 1.327 . S
C990 H1015 0.950 . S
C991 C990 1.349 . S
C991 C1007 1.349 . S
C992 C990 1.327 . S
C992 C1011 1.429 . S
C992 H1016 0.950 . S
C993 C1010 1.574 . S
C993 C1012 1.368 . S
C993 H1017 0.949 . S
H994 C998 0.949 . S
C995 C996 1.349 . S
C995 C997 1.327 . S
C995 H1018 0.950 . S
C996 C995 1.349 . S
C996 C1008 1.349 . S
C997 C995 1.327 . S
C997 C1013 1.429 1_554 S
C997 H1019 0.950 . S
C998 H994 0.949 . S
C998 C1006 1.574 . S
C998 C1014 1.368 . S
H999 C1007 0.950 . S
H1000 C1005 0.950 . S
H1001 C1006 0.949 . S
H1002 C1008 0.950 . S
H1003 C1009 0.950 . S
H1004 C1010 0.949 . S
C1005 H1000 0.950 . S
C1005 C1007 1.327 . S
C1005 C1011 1.429 . S
C1006 C998 1.574 . S
C1006 H1001 0.949 . S
C1006 C1012 1.368 . S
C1007 C991 1.349 . S
C1007 H999 0.950 . S
C1007 C1005 1.327 . S
C1008 C996 1.349 . S
C1008 H1002 0.950 . S
C1008 C1009 1.327 . S
C1009 H1003 0.950 . S
C1009 C1008 1.327 . S
C1009 C1013 1.429 1_554 S
C1010 C993 1.574 . S
C1010 H1004 0.949 . S
C1010 C1014 1.368 . S
C1011 C992 1.429 . S
C1011 C1005 1.429 . S
C1011 C1012 1.523 . S
C1012 C993 1.368 . S
C1012 C1006 1.368 . S
C1012 C1011 1.523 . S
C1013 C997 1.429 1_556 S
C1013 C1009 1.429 1_556 S
C1013 C1014 1.523 . S
C1014 C998 1.368 . S
C1014 C1010 1.368 . S
C1014 C1013 1.523 . S
H1015 C990 0.950 . S
H1016 C992 0.950 . S
H1017 C993 0.949 . S
H1018 C995 0.950 . S
H1019 C997 0.950 . S
C1020 C1021 1.349 . S
C1020 C1022 1.327 . S
C1020 H1045 0.950 . S
C1021 C1020 1.349 . S
C1021 C1037 1.349 . S
C1022 C1020 1.327 . S
C1022 C1041 1.429 . S
C1022 H1046 0.950 . S
C1023 C1040 1.574 . S
C1023 C1042 1.368 . S
C1023 H1047 0.949 . S
H1024 C1028 0.949 . S
C1025 C1026 1.349 . S
C1025 C1027 1.327 . S
C1025 H1048 0.950 . S
C1026 C1025 1.349 . S
C1026 C1038 1.349 . S
C1027 C1025 1.327 . S
C1027 C1043 1.429 1_554 S
C1027 H1049 0.950 . S
C1028 H1024 0.949 . S
C1028 C1036 1.574 . S
C1028 C1044 1.368 . S
H1029 C1037 0.950 . S
H1030 C1035 0.950 . S
H1031 C1036 0.949 . S
H1032 C1038 0.950 . S
H1033 C1039 0.950 . S
H1034 C1040 0.949 . S
C1035 H1030 0.950 . S
C1035 C1037 1.327 . S
C1035 C1041 1.429 . S
C1036 C1028 1.574 . S
C1036 H1031 0.949 . S
C1036 C1042 1.368 . S
C1037 C1021 1.349 . S
C1037 H1029 0.950 . S
C1037 C1035 1.327 . S
C1038 C1026 1.349 . S
C1038 H1032 0.950 . S
C1038 C1039 1.327 . S
C1039 H1033 0.950 . S
C1039 C1038 1.327 . S
C1039 C1043 1.429 1_554 S
C1040 C1023 1.574 . S
C1040 H1034 0.949 . S
C1040 C1044 1.368 . S
C1041 C1022 1.429 . S
C1041 C1035 1.429 . S
C1041 C1042 1.523 . S
C1042 C1023 1.368 . S
C1042 C1036 1.368 . S
C1042 C1041 1.523 . S
C1043 C1027 1.429 1_556 S
C1043 C1039 1.429 1_556 S
C1043 C1044 1.523 . S
C1044 C1028 1.368 . S
C1044 C1040 1.368 . S
C1044 C1043 1.523 . S
H1045 C1020 0.950 . S
H1046 C1022 0.950 . S
H1047 C1023 0.949 . S
H1048 C1025 0.950 . S
H1049 C1027 0.950 . S
C1050 C1051 1.349 . S
C1050 C1052 1.327 . S
C1050 H1075 0.950 . S
C1051 C1050 1.349 . S
C1051 C1067 1.349 . S
C1052 C1050 1.327 . S
C1052 C1071 1.429 . S
C1052 H1076 0.950 . S
C1053 C1070 1.574 . S
C1053 C1072 1.368 . S
C1053 H1077 0.949 . S
H1054 C1058 0.949 . S
C1055 C1056 1.349 . S
C1055 C1057 1.327 . S
C1055 H1078 0.950 . S
C1056 C1055 1.349 . S
C1056 C1068 1.349 . S
C1057 C1055 1.327 . S
C1057 C1073 1.429 1_554 S
C1057 H1079 0.950 . S
C1058 H1054 0.949 . S
C1058 C1066 1.574 . S
C1058 C1074 1.368 . S
H1059 C1067 0.950 . S
H1060 C1065 0.950 . S
H1061 C1066 0.949 . S
H1062 C1068 0.950 . S
H1063 C1069 0.950 . S
H1064 C1070 0.949 . S
C1065 H1060 0.950 . S
C1065 C1067 1.327 . S
C1065 C1071 1.429 . S
C1066 C1058 1.574 . S
C1066 H1061 0.949 . S
C1066 C1072 1.368 . S
C1067 C1051 1.349 . S
C1067 H1059 0.950 . S
C1067 C1065 1.327 . S
C1068 C1056 1.349 . S
C1068 H1062 0.950 . S
C1068 C1069 1.327 . S
C1069 H1063 0.950 . S
C1069 C1068 1.327 . S
C1069 C1073 1.429 1_554 S
C1070 C1053 1.574 . S
C1070 H1064 0.949 . S
C1070 C1074 1.368 . S
C1071 C1052 1.429 . S
C1071 C1065 1.429 . S
C1071 C1072 1.523 . S
C1072 C1053 1.368 . S
C1072 C1066 1.368 . S
C1072 C1071 1.523 . S
C1073 C1057 1.429 1_556 S
C1073 C1069 1.429 1_556 S
C1073 C1074 1.523 . S
C1074 C1058 1.368 . S
C1074 C1070 1.368 . S
C1074 C1073 1.523 . S
H1075 C1050 0.950 . S
H1076 C1052 0.950 . S
H1077 C1053 0.949 . S
H1078 C1055 0.950 . S
H1079 C1057 0.950 . S
C1080 C1081 1.349 . S
C1080 C1082 1.327 . S
C1080 H1105 0.950 . S
C1081 C1080 1.349 . S
C1081 C1097 1.349 . S
C1082 C1080 1.327 . S
C1082 C1101 1.429 . S
C1082 H1106 0.950 . S
C1083 C1100 1.574 . S
C1083 C1102 1.368 . S
C1083 H1107 0.949 . S
H1084 C1088 0.949 . S
C1085 C1086 1.349 . S
C1085 C1087 1.327 . S
C1085 H1108 0.950 . S
C1086 C1085 1.349 . S
C1086 C1098 1.349 . S
C1087 C1085 1.327 . S
C1087 C1103 1.429 1_556 S
C1087 H1109 0.950 . S
C1088 H1084 0.949 . S
C1088 C1096 1.574 . S
C1088 C1104 1.368 . S
H1089 C1097 0.950 . S
H1090 C1095 0.950 . S
H1091 C1096 0.949 . S
H1092 C1098 0.950 . S
H1093 C1099 0.957 . S
H1094 C1100 0.949 . S
C1095 H1090 0.950 . S
C1095 C1097 1.327 . S
C1095 C1101 1.429 . S
C1096 C1088 1.574 . S
C1096 H1091 0.949 . S
C1096 C1102 1.368 . S
C1097 C1081 1.349 . S
C1097 H1089 0.950 . S
C1097 C1095 1.327 . S
C1098 C1086 1.349 . S
C1098 H1092 0.950 . S
C1098 C1099 1.327 . S
C1099 H1093 0.957 . S
C1099 C1098 1.327 . S
C1099 C1103 1.429 1_556 S
C1100 C1083 1.574 . S
C1100 H1094 0.949 . S
C1100 C1104 1.368 . S
C1101 C1082 1.429 . S
C1101 C1095 1.429 . S
C1101 C1102 1.523 . S
C1102 C1083 1.368 . S
C1102 C1096 1.368 . S
C1102 C1101 1.523 . S
C1103 C1087 1.429 1_554 S
C1103 C1099 1.429 1_554 S
C1103 C1104 1.523 . S
C1104 C1088 1.368 . S
C1104 C1100 1.368 . S
C1104 C1103 1.523 . S
H1105 C1080 0.950 . S
H1106 C1082 0.950 . S
H1107 C1083 0.949 . S
H1108 C1085 0.950 . S
H1109 C1087 0.950 . S
C1110 C1111 1.349 . S
C1110 C1112 1.327 . S
C1110 H1135 0.950 . S
C1111 C1110 1.349 . S
C1111 C1127 1.349 . S
C1112 C1110 1.327 . S
C1112 C1131 1.429 1_556 S
C1112 H1136 0.950 1_556 S
C1113 C1130 1.574 . S
C1113 C1132 1.368 . S
C1113 H1137 0.949 . S
H1114 C1118 0.949 . S
C1115 C1116 1.349 . S
C1115 C1117 1.327 . S
C1115 H1138 0.950 . S
C1116 C1115 1.349 . S
C1116 C1128 1.349 . S
C1117 C1115 1.327 . S
C1117 C1133 1.429 . S
C1117 H1139 0.950 . S
C1118 H1114 0.949 . S
C1118 C1126 1.574 . S
C1118 C1134 1.368 . S
H1119 C1127 0.950 . S
H1120 C1125 0.950 . S
H1121 C1126 0.949 . S
H1122 C1128 0.950 . S
H1123 C1129 0.950 . S
H1124 C1130 0.949 . S
C1125 H1120 0.950 . S
C1125 C1127 1.327 . S
C1125 C1131 1.429 1_556 S
C1126 C1118 1.574 . S
C1126 H1121 0.949 . S
C1126 C1132 1.368 . S
C1127 C1111 1.349 . S
C1127 H1119 0.950 . S
C1127 C1125 1.327 . S
C1128 C1116 1.349 . S
C1128 H1122 0.950 . S
C1128 C1129 1.327 . S
C1129 H1123 0.950 . S
C1129 C1128 1.327 . S
C1129 C1133 1.429 . S
C1130 C1113 1.574 . S
C1130 H1124 0.949 . S
C1130 C1134 1.368 . S
C1131 C1112 1.429 1_554 S
C1131 C1125 1.429 1_554 S
C1131 C1132 1.523 . S
C1132 C1113 1.368 . S
C1132 C1126 1.368 . S
C1132 C1131 1.523 . S
C1133 C1117 1.429 . S
C1133 C1129 1.429 . S
C1133 C1134 1.523 . S
C1134 C1118 1.368 . S
C1134 C1130 1.368 . S
C1134 C1133 1.523 . S
H1135 C1110 0.950 . S
H1136 C1112 0.950 1_554 S
H1137 C1113 0.949 . S
H1138 C1115 0.950 . S
H1139 C1117 0.950 . S
C1140 C1141 1.349 . S
C1140 C1142 1.327 . S
C1140 H1165 0.950 . S
C1141 C1140 1.349 . S
C1141 C1157 1.349 . S
C1142 C1140 1.327 . S
C1142 C1161 1.429 . S
C1142 H1166 0.950 . S
C1143 C1160 1.574 . S
C1143 C1162 1.368 . S
C1143 H1167 0.949 . S
H1144 C1148 0.949 . S
C1145 C1146 1.349 . S
C1145 C1147 1.327 . S
C1145 H1168 0.950 . S
C1146 C1145 1.349 . S
C1146 C1158 1.349 . S
C1147 C1145 1.327 . S
C1147 C1163 1.429 1_556 S
C1147 H1169 0.950 . S
C1148 H1144 0.949 . S
C1148 C1156 1.574 . S
C1148 C1164 1.368 . S
H1149 C1157 0.950 . S
H1150 C1155 0.950 . S
H1151 C1156 0.949 . S
H1152 C1158 0.950 . S
H1153 C1159 0.950 1_554 S
H1154 C1160 0.949 . S
C1155 H1150 0.950 . S
C1155 C1157 1.327 . S
C1155 C1161 1.429 . S
C1156 C1148 1.574 . S
C1156 H1151 0.949 . S
C1156 C1162 1.368 . S
C1157 C1141 1.349 . S
C1157 H1149 0.950 . S
C1157 C1155 1.327 . S
C1158 C1146 1.349 . S
C1158 H1152 0.950 . S
C1158 C1159 1.327 . S
C1159 H1153 0.950 1_556 S
C1159 C1158 1.327 . S
C1159 C1163 1.429 1_556 S
C1160 C1143 1.574 . S
C1160 H1154 0.949 . S
C1160 C1164 1.368 . S
C1161 C1142 1.429 . S
C1161 C1155 1.429 . S
C1161 C1162 1.523 . S
C1162 C1143 1.368 . S
C1162 C1156 1.368 . S
C1162 C1161 1.523 . S
C1163 C1147 1.429 1_554 S
C1163 C1159 1.429 1_554 S
C1163 C1164 1.523 . S
C1164 C1148 1.368 . S
C1164 C1160 1.368 . S
C1164 C1163 1.523 . S
H1165 C1140 0.950 . S
H1166 C1142 0.950 . S
H1167 C1143 0.949 . S
H1168 C1145 0.950 . S
H1169 C1147 0.950 . S
C361 C6 1.974 . S
C366 C290 1.897 . S
C391 C46 1.974 . S
C396 C330 1.897 . S
C421 C86 1.974 . S
C426 C250 1.897 . S
C451 C166 1.974 . S
C456 C90 1.897 . S
C481 C206 1.974 . S
C486 C10 1.897 . S
C511 C50 1.897 . S
C516 C126 1.974 . S
C541 C286 1.974 . S
C546 C210 1.897 . S
C571 C326 1.974 . S
C576 C130 1.897 . S
C601 C170 1.897 . S
C606 C246 1.974 . S
C631 C95 1.710 . S
C636 C19 1.705 1_554 S
C661 C59 1.705 1_554 S
C666 C15 1.710 . S
C691 C55 1.710 . S
C696 C99 1.705 1_554 S
C721 C139 1.705 . S
C726 C215 1.710 . S
C751 C135 1.710 . S
C756 C179 1.705 . S
C781 C175 1.710 . S
C786 C219 1.705 . S
C811 C335 1.710 . S
C816 C259 1.705 . S
C841 C299 1.705 . S
C846 C255 1.710 . S
C871 C339 1.705 . S
C876 C295 1.710 . S
C901 C18 0.835 . S
C906 C9 0.835 . S
C931 C58 0.835 . S
C936 C49 0.835 . S
C961 C98 0.835 . S
C966 C89 0.835 . S
C991 C129 0.835 . S
C996 C138 0.835 . S
C1021 C169 0.835 . S
C1026 C178 0.835 . S
C1051 C209 0.835 . S
C1056 C218 0.835 . S
C1081 C258 0.835 . S
C1086 C249 0.835 . S
C1111 C289 0.835 . S
C1116 C298 0.835 . S
C1141 C338 0.835 . S
C1146 C329 0.835 . S
