# Generated by pormake.
# Topology una, (4)-cn, num edge types: 1
# Building blocks:
#     Node 0, Type 0, BuildingBlock: ICAMEG_clean_sbu_1, # of connection points: 4
#     Node 1, Type 0, BuildingBlock: ICAMEG_clean_sbu_1, # of connection points: 4
#     Node 2, Type 0, BuildingBlock: ICAMEG_clean_sbu_1, # of connection points: 4
#     Node 3, Type 0, BuildingBlock: ICAMEG_clean_sbu_1, # of connection points: 4
#     Node 4, Type 0, BuildingBlock: ICAMEG_clean_sbu_1, # of connection points: 4
#     Node 5, Type 0, BuildingBlock: ICAMEG_clean_sbu_1, # of connection points: 4
#     Node 6, Type 0, BuildingBlock: ICAMEG_clean_sbu_1, # of connection points: 4
#     Node 7, Type 0, BuildingBlock: ICAMEG_clean_sbu_1, # of connection points: 4
#     Node 8, Type 0, BuildingBlock: ICAMEG_clean_sbu_1, # of connection points: 4
#     Node 9, Type 0, BuildingBlock: ICAMEG_clean_sbu_1, # of connection points: 4
#     Node 10, Type 0, BuildingBlock: ICAMEG_clean_sbu_1, # of connection points: 4
#     Node 11, Type 0, BuildingBlock: ICAMEG_clean_sbu_1, # of connection points: 4
#     Edge 12, Type (0, 0), BuildingBlock: AJUNOK_clean_linker_0, # of connection points: 2
#     Edge 13, Type (0, 0), BuildingBlock: AJUNOK_clean_linker_0, # of connection points: 2
#     Edge 14, Type (0, 0), BuildingBlock: AJUNOK_clean_linker_0, # of connection points: 2
#     Edge 15, Type (0, 0), BuildingBlock: AJUNOK_clean_linker_0, # of connection points: 2
#     Edge 16, Type (0, 0), BuildingBlock: AJUNOK_clean_linker_0, # of connection points: 2
#     Edge 17, Type (0, 0), BuildingBlock: AJUNOK_clean_linker_0, # of connection points: 2
#     Edge 18, Type (0, 0), BuildingBlock: AJUNOK_clean_linker_0, # of connection points: 2
#     Edge 19, Type (0, 0), BuildingBlock: AJUNOK_clean_linker_0, # of connection points: 2
#     Edge 20, Type (0, 0), BuildingBlock: AJUNOK_clean_linker_0, # of connection points: 2
#     Edge 21, Type (0, 0), BuildingBlock: AJUNOK_clean_linker_0, # of connection points: 2
#     Edge 22, Type (0, 0), BuildingBlock: AJUNOK_clean_linker_0, # of connection points: 2
#     Edge 23, Type (0, 0), BuildingBlock: AJUNOK_clean_linker_0, # of connection points: 2
#     Edge 24, Type (0, 0), BuildingBlock: AJUNOK_clean_linker_0, # of connection points: 2
#     Edge 25, Type (0, 0), BuildingBlock: AJUNOK_clean_linker_0, # of connection points: 2
#     Edge 26, Type (0, 0), BuildingBlock: AJUNOK_clean_linker_0, # of connection points: 2
#     Edge 27, Type (0, 0), BuildingBlock: AJUNOK_clean_linker_0, # of connection points: 2
#     Edge 28, Type (0, 0), BuildingBlock: AJUNOK_clean_linker_0, # of connection points: 2
#     Edge 29, Type (0, 0), BuildingBlock: AJUNOK_clean_linker_0, # of connection points: 2
#     Edge 30, Type (0, 0), BuildingBlock: AJUNOK_clean_linker_0, # of connection points: 2
#     Edge 31, Type (0, 0), BuildingBlock: AJUNOK_clean_linker_0, # of connection points: 2
#     Edge 32, Type (0, 0), BuildingBlock: AJUNOK_clean_linker_0, # of connection points: 2
#     Edge 33, Type (0, 0), BuildingBlock: AJUNOK_clean_linker_0, # of connection points: 2
#     Edge 34, Type (0, 0), BuildingBlock: AJUNOK_clean_linker_0, # of connection points: 2
#     Edge 35, Type (0, 0), BuildingBlock: AJUNOK_clean_linker_0, # of connection points: 2
# Relax obj value: 0.056
# Max RMSD: 0.083
# Mean RMSD: 0.083
data_MOF--net-una--node1-ICAMEG_clean_sbu_1--edge1-AJUNOK_clean_linker_0
_symmetry_space_group_name_H-M    P1
_symmetry_Int_Tables_number       1
_symmetry_cell_setting            triclinic
loop_
_symmetry_equiv_pos_as_xyz
'x, y, z'
_cell_length_a     47.272293
_cell_length_b     47.318183
_cell_length_c     16.215337
_cell_angle_alpha  90.069549
_cell_angle_beta   90.065686
_cell_angle_gamma 119.91231
loop_
_atom_site_label
_atom_site_type_symbol
_atom_site_fract_x
_atom_site_fract_y
_atom_site_fract_z
_atom_type_partial_charge
Co0 Co 0.19514 0.48976 0.0235 0.0
Co1 Co 0.13665 0.41163 0.06829 0.0
O2 O 0.14892 0.45672 0.03977 0.0
C3 C 0.16706 0.5246 0.1179 0.0
O4 O 0.14758 0.49749 0.15695 0.0
C5 C 0.08184 0.4068 0.95904 0.0
O6 O 0.0973 0.43849 0.94876 0.0
O7 O 0.1589 0.40934 0.96633 0.0
O8 O 0.20589 0.45617 0.9814 0.0
H9 H 0.15962 0.31961 0.10533 0.0
H10 H 0.14501 0.50161 0.94685 0.0
O11 O 0.18683 0.5252 0.06372 0.0
H12 H 0.21229 0.50053 0.71608 0.0
H13 H 0.28839 0.59962 0.94172 0.0
H14 H 0.25785 0.4924 0.0614 0.0
H15 H 0.22531 0.49357 0.85895 0.0
H16 H 0.2305 0.55773 0.9577 0.0
O17 O 0.09439 0.39336 1.00273 0.0
H18 H 0.17335 0.3761 0.07456 0.0
H19 H 0.07493 0.35139 0.11553 0.0
H20 H 0.31602 0.53355 0.04618 0.0
H21 H 0.13147 0.50933 0.80468 0.0
H22 H 0.33163 0.58758 0.98575 0.0
H23 H 0.16516 0.50866 0.68801 0.0
O24 O 0.20443 0.48208 0.13769 0.0
H25 H 0.06244 0.43874 0.23113 0.0
H26 H 0.13621 0.39336 0.24431 0.0
H27 H 0.1091 0.39639 0.37081 0.0
H28 H 0.07169 0.419 0.36474 0.0
H29 H 0.09052 0.43588 0.10668 0.0
H30 H 0.06005 0.29457 0.14576 0.0
H31 H 0.1026 0.2784 0.14115 0.0
O32 O 0.17806 0.42753 0.13686 0.0
C33 C 0.18857 0.42849 0.9471 0.0
C34 C 0.14089 0.32638 0.10779 0.0
C35 C 0.08499 0.31232 0.13037 0.0
N36 N 0.12504 0.36709 0.09384 0.0
C37 C 0.14854 0.35835 0.09067 0.0
C38 C 0.09355 0.34451 0.11294 0.0
C39 C 0.10888 0.30327 0.1278 0.0
C40 C 0.15985 0.50145 0.89644 0.0
N41 N 0.18566 0.49679 0.91125 0.0
C42 C 0.15206 0.5058 0.81606 0.0
C43 C 0.17097 0.50543 0.75062 0.0
C44 C 0.19744 0.50092 0.76628 0.0
C45 C 0.20454 0.49674 0.84742 0.0
C46 C 0.2819 0.57614 0.96794 0.0
C47 C 0.26441 0.51581 0.03482 0.0
C48 C 0.24915 0.55233 0.97732 0.0
N49 N 0.24076 0.52255 1.01005 0.0
C50 C 0.29741 0.53904 0.02651 0.0
C51 C 0.30615 0.56937 0.99266 0.0
C52 C 0.19901 0.45505 0.16835 0.0
C53 C 0.07849 0.4286 0.23449 0.0
C54 C 0.12012 0.40339 0.24095 0.0
C55 C 0.10475 0.40496 0.31291 0.0
C56 C 0.08376 0.41761 0.30947 0.0
N57 N 0.11469 0.41401 0.16735 0.0
C58 C 0.09429 0.42665 0.16379 0.0
Co59 Co 0.71781 0.18886 0.19061 0.0
Co60 Co 0.7365 0.12954 0.23535 0.0
O61 O 0.70412 0.14251 0.20576 0.0
C62 C 0.6497 0.15759 0.26407 0.0
O63 O 0.64868 0.12957 0.27324 0.0
C64 C 0.69207 0.07985 0.11056 0.0
O65 O 0.68648 0.10183 0.07733 0.0
O66 O 0.76115 0.15116 0.13327 0.0
O67 O 0.76159 0.19846 0.14702 0.0
H68 H 0.85046 0.14935 0.27261 0.0
H69 H 0.65555 0.13919 0.11075 0.0
O70 O 0.67477 0.18203 0.23331 0.0
H71 H 0.72445 0.20893 0.88479 0.0
H72 H 0.70326 0.28422 0.11598 0.0
H73 H 0.7789 0.25049 0.22791 0.0
H74 H 0.74427 0.21997 0.02788 0.0
H75 H 0.68617 0.22594 0.12877 0.0
O76 O 0.71134 0.0872 0.17206 0.0
H77 H 0.8087 0.16448 0.24048 0.0
H78 H 0.73338 0.06733 0.28597 0.0
H79 H 0.79694 0.30899 0.21625 0.0
H80 H 0.6343 0.12806 0.96874 0.0
H81 H 0.75905 0.32621 0.15965 0.0
H82 H 0.66891 0.16294 0.8542 0.0
O83 O 0.73498 0.19753 0.30455 0.0
H84 H 0.6345 0.05578 0.39321 0.0
H85 H 0.7533 0.13009 0.41347 0.0
H86 H 0.72194 0.10362 0.53902 0.0
H87 H 0.66209 0.06605 0.52937 0.0
H88 H 0.66678 0.08307 0.26932 0.0
H89 H 0.7743 0.05107 0.31762 0.0
H90 H 0.83332 0.09227 0.31143 0.0
O91 O 0.76299 0.171 0.30265 0.0
C92 C 0.77179 0.18081 0.11359 0.0
C93 C 0.82481 0.13121 0.27578 0.0
C94 C 0.78207 0.07604 0.30096 0.0
N95 N 0.76866 0.11689 0.26194 0.0
C96 C 0.80107 0.13965 0.25789 0.0
C97 C 0.75902 0.08538 0.28277 0.0
C98 C 0.81518 0.09917 0.29748 0.0
C99 C 0.67054 0.15491 0.06188 0.0
N100 N 0.70107 0.18029 0.07823 0.0
C101 C 0.65846 0.14832 0.98125 0.0
C102 C 0.6779 0.16784 0.917 0.0
C103 C 0.70902 0.19367 0.93405 0.0
C104 C 0.7202 0.19964 0.0154 0.0
C105 C 0.72003 0.27703 0.14053 0.0
C106 C 0.76227 0.25774 0.203 0.0
C107 C 0.71048 0.24405 0.14804 0.0
N108 N 0.73158 0.23478 0.17861 0.0
C109 C 0.77261 0.29093 0.19674 0.0
C110 C 0.75133 0.30057 0.16505 0.0
C111 C 0.7567 0.19208 0.33444 0.0
C112 C 0.66056 0.0721 0.39824 0.0
C113 C 0.72723 0.11406 0.40877 0.0
C114 C 0.70962 0.099 0.48009 0.0
C115 C 0.67605 0.0779 0.47462 0.0
N116 N 0.71185 0.10829 0.33405 0.0
C117 C 0.67898 0.08759 0.32824 0.0
Co118 Co 0.61589 0.72875 0.39296 0.0
Co119 Co 0.53789 0.71174 0.35477 0.0
O120 O 0.57002 0.69706 0.36776 0.0
C121 C 0.6177 0.6784 0.27934 0.0
O122 O 0.58639 0.66521 0.26425 0.0
C123 C 0.50302 0.64971 0.45144 0.0
O124 O 0.53047 0.65706 0.48884 0.0
O125 O 0.54778 0.72963 0.46837 0.0
O126 O 0.60232 0.75589 0.46234 0.0
H127 H 0.49829 0.79215 0.3814 0.0
H128 H 0.59027 0.65852 0.43029 0.0
O129 O 0.63206 0.70317 0.32684 0.0
H130 H 0.63343 0.71596 0.69413 0.0
H131 H 0.73299 0.76541 0.4646 0.0
H132 H 0.65393 0.80085 0.39448 0.0
H133 H 0.63638 0.74648 0.5685 0.0
H134 H 0.67529 0.72493 0.43789 0.0
O135 O 0.50215 0.66888 0.39779 0.0
H136 H 0.53822 0.77327 0.39278 0.0
H137 H 0.46898 0.68085 0.29499 0.0
H138 H 0.71132 0.84217 0.42182 0.0
H139 H 0.58743 0.6271 0.55392 0.0
H140 H 0.7513 0.82451 0.45715 0.0
H141 H 0.609 0.6558 0.68731 0.0
O142 O 0.61773 0.75308 0.29104 0.0
H143 H 0.51099 0.62594 0.13776 0.0
H144 H 0.53285 0.73768 0.1908 0.0
H145 H 0.52235 0.71645 0.0488 0.0
H146 H 0.5111 0.6601 0.02136 0.0
H147 H 0.52235 0.64845 0.27897 0.0
H148 H 0.42828 0.69872 0.28279 0.0
H149 H 0.44289 0.7548 0.32583 0.0
O150 O 0.57191 0.75514 0.30977 0.0
C151 C 0.57567 0.75095 0.4959 0.0
C152 C 0.49165 0.76767 0.36232 0.0
C153 C 0.45236 0.71525 0.30697 0.0
N154 N 0.50602 0.72603 0.3443 0.0
C155 C 0.51419 0.75686 0.36846 0.0
C156 C 0.4755 0.70524 0.31421 0.0
C157 C 0.46057 0.7467 0.33114 0.0
C158 C 0.60018 0.67131 0.48753 0.0
N159 N 0.61371 0.70441 0.49162 0.0
C160 C 0.59828 0.65333 0.55764 0.0
C161 C 0.61031 0.66943 0.63249 0.0
C162 C 0.62398 0.70316 0.63637 0.0
C163 C 0.62544 0.72032 0.56499 0.0
C164 C 0.71578 0.77341 0.4495 0.0
C165 C 0.67114 0.79299 0.41033 0.0
C166 C 0.68309 0.7506 0.43412 0.0
N167 N 0.66119 0.76054 0.41542 0.0
C168 C 0.70363 0.81649 0.42553 0.0
C169 C 0.72604 0.80656 0.4453 0.0
C170 C 0.5991 0.7645 0.27373 0.0
C171 C 0.51587 0.65053 0.14886 0.0
C172 C 0.52843 0.71329 0.17949 0.0
C173 C 0.52225 0.70131 0.09886 0.0
C174 C 0.51595 0.66971 0.08357 0.0
N175 N 0.52859 0.69443 0.24319 0.0
C176 C 0.52225 0.66338 0.22873 0.0
Co177 Co 0.83418 0.5265 0.52529 0.0
Co178 Co 0.89627 0.6033 0.56503 0.0
O179 O 0.88092 0.55769 0.53727 0.0
C180 C 0.86016 0.49216 0.62603 0.0
O181 O 0.87633 0.51898 0.6695 0.0
C182 C 0.95 0.63795 0.4433 0.0
O183 O 0.9342 0.65253 0.41734 0.0
O184 O 0.87371 0.60651 0.46405 0.0
O185 O 0.82541 0.56099 0.48065 0.0
H186 H 0.88383 0.70207 0.59814 0.0
H187 H 0.88277 0.51256 0.44783 0.0
O188 O 0.84145 0.49075 0.56772 0.0
H189 H 0.81273 0.51074 0.21989 0.0
H190 H 0.7367 0.41754 0.45543 0.0
H191 H 0.77357 0.52807 0.56307 0.0
H192 H 0.80217 0.52076 0.36247 0.0
H193 H 0.79544 0.4575 0.46761 0.0
O194 O 0.93733 0.61611 0.49917 0.0
H195 H 0.86548 0.64447 0.56625 0.0
H196 H 0.96037 0.66002 0.61694 0.0
H197 H 0.71465 0.48888 0.55197 0.0
H198 H 0.89382 0.50176 0.30594 0.0
H199 H 0.69586 0.43321 0.49745 0.0
H200 H 0.85868 0.50087 0.19073 0.0
O201 O 0.82662 0.53674 0.63911 0.0
H202 H 0.96724 0.56986 0.71867 0.0
H203 H 0.89937 0.62164 0.74309 0.0
H204 H 0.92628 0.61576 0.86681 0.0
H205 H 0.96072 0.5899 0.855 0.0
H206 H 0.93916 0.57547 0.59691 0.0
H207 H 0.97981 0.71783 0.64896 0.0
H208 H 0.94137 0.73917 0.63989 0.0
O209 O 0.85602 0.59124 0.63439 0.0
C210 C 0.84361 0.58838 0.44603 0.0
C211 C 0.9008 0.69306 0.60241 0.0
C212 C 0.95466 0.7019 0.63097 0.0
N213 N 0.91176 0.64886 0.59015 0.0
C214 C 0.89054 0.66047 0.58446 0.0
C215 C 0.94352 0.66915 0.61273 0.0
C216 C 0.93309 0.71385 0.62584 0.0
C217 C 0.86722 0.51191 0.39809 0.0
N218 N 0.8418 0.51714 0.41354 0.0
C219 C 0.87364 0.50589 0.31785 0.0
C220 C 0.85393 0.50541 0.25322 0.0
C221 C 0.82812 0.51089 0.26948 0.0
C222 C 0.82234 0.51668 0.35044 0.0
C223 C 0.74459 0.44175 0.47914 0.0
C224 C 0.76562 0.5039 0.53925 0.0
C225 C 0.77781 0.46446 0.48634 0.0
N226 N 0.78794 0.49516 0.51555 0.0
C227 C 0.73221 0.48178 0.53329 0.0
C228 C 0.72168 0.45055 0.50272 0.0
C229 C 0.83385 0.56476 0.66724 0.0
C230 C 0.95238 0.58126 0.7246 0.0
C231 C 0.91397 0.61003 0.73751 0.0
C232 C 0.92932 0.60693 0.80777 0.0
C233 C 0.94867 0.59246 0.80108 0.0
N234 N 0.91779 0.59907 0.6626 0.0
C235 C 0.93661 0.58472 0.65573 0.0
Co236 Co 0.31724 0.83484 0.6867 0.0
Co237 Co 0.29472 0.89045 0.74038 0.0
O238 O 0.32881 0.88036 0.708 0.0
C239 C 0.38557 0.86738 0.76118 0.0
O240 O 0.3858 0.89493 0.77278 0.0
C241 C 0.33311 0.94275 0.6149 0.0
O242 O 0.33263 0.9205 0.5655 0.0
O243 O 0.27116 0.87029 0.63526 0.0
O244 O 0.27308 0.82402 0.64266 0.0
H245 H 0.17854 0.86433 0.77375 0.0
H246 H 0.37731 0.88979 0.6126 0.0
O247 O 0.36083 0.84289 0.72908 0.0
H248 H 0.31381 0.82072 0.37842 0.0
H249 H 0.33762 0.74461 0.59616 0.0
H250 H 0.25773 0.77097 0.71614 0.0
H251 H 0.29351 0.80558 0.52031 0.0
H252 H 0.35204 0.80182 0.61845 0.0
O253 O 0.31908 0.93437 0.6849 0.0
H254 H 0.22252 0.85288 0.73772 0.0
H255 H 0.29393 0.94901 0.80701 0.0
H256 H 0.24229 0.71345 0.69468 0.0
H257 H 0.39877 0.90551 0.47176 0.0
H258 H 0.28233 0.69996 0.63394 0.0
H259 H 0.36691 0.87091 0.35322 0.0
O260 O 0.2994 0.82312 0.80021 0.0
H261 H 0.39448 0.96378 0.90731 0.0
H262 H 0.27648 0.88519 0.91889 0.0
H263 H 0.30657 0.90961 0.04769 0.0
H264 H 0.36602 0.94935 0.04243 0.0
H265 H 0.36346 0.93836 0.78005 0.0
H266 H 0.2508 0.96171 0.84273 0.0
H267 H 0.19258 0.91911 0.82655 0.0
O268 O 0.2693 0.84745 0.80064 0.0
C269 C 0.26194 0.84127 0.61155 0.0
C270 C 0.20381 0.8831 0.78102 0.0
C271 C 0.24436 0.93777 0.8196 0.0
N272 N 0.26079 0.90031 0.76993 0.0
C273 C 0.22883 0.87676 0.76077 0.0
C274 C 0.26871 0.93052 0.79877 0.0
C275 C 0.2117 0.91385 0.8106 0.0
C276 C 0.36356 0.87424 0.56187 0.0
N277 N 0.33445 0.84648 0.57533 0.0
C278 C 0.37574 0.88341 0.48197 0.0
C279 C 0.35784 0.86402 0.41547 0.0
C280 C 0.3281 0.83583 0.42954 0.0
C281 C 0.31671 0.82743 0.51021 0.0
C282 C 0.31992 0.75018 0.62243 0.0
C283 C 0.27527 0.76533 0.68946 0.0
C284 C 0.32797 0.78253 0.6354 0.0
N285 N 0.30567 0.78977 0.66806 0.0
C286 C 0.2664 0.7327 0.67757 0.0
C287 C 0.2889 0.72514 0.64362 0.0
C288 C 0.27688 0.82715 0.83108 0.0
C289 C 0.3686 0.94645 0.91045 0.0
C290 C 0.3024 0.90207 0.91608 0.0
C291 C 0.31929 0.91601 0.98924 0.0
C292 C 0.35262 0.93833 0.98624 0.0
N293 N 0.31825 0.91008 0.84196 0.0
C294 C 0.3509 0.932 0.83857 0.0
Co295 Co 0.41691 0.29207 0.8885 0.0
Co296 Co 0.49468 0.30893 0.84933 0.0
O297 O 0.46264 0.32367 0.86264 0.0
C298 C 0.41495 0.34394 0.78108 0.0
O299 O 0.44668 0.35901 0.77111 0.0
C300 C 0.52958 0.37031 0.94775 0.0
O301 O 0.50263 0.3612 0.98939 0.0
O302 O 0.48524 0.29151 0.96317 0.0
O303 O 0.4307 0.26497 0.95718 0.0
H304 H 0.53486 0.22911 0.87892 0.0
H305 H 0.44406 0.36265 0.9289 0.0
O306 O 0.40044 0.3176 0.82286 0.0
H307 H 0.4 0.30431 0.19035 0.0
H308 H 0.30017 0.25539 0.96343 0.0
H309 H 0.37887 0.21996 0.88944 0.0
H310 H 0.39636 0.27407 0.06345 0.0
H311 H 0.35768 0.29588 0.93503 0.0
O312 O 0.53049 0.35205 0.89135 0.0
H313 H 0.49467 0.24771 0.88872 0.0
H314 H 0.56335 0.33966 0.78865 0.0
H315 H 0.32168 0.17865 0.91823 0.0
H316 H 0.44761 0.39374 0.05368 0.0
H317 H 0.28189 0.19629 0.95562 0.0
H318 H 0.42558 0.36462 0.186 0.0
O319 O 0.41476 0.26767 0.78624 0.0
H320 H 0.51944 0.39334 0.63065 0.0
H321 H 0.49936 0.2824 0.68586 0.0
H322 H 0.50857 0.30273 0.54333 0.0
H323 H 0.51898 0.3587 0.51473 0.0
H324 H 0.50932 0.37167 0.77252 0.0
H325 H 0.60417 0.3219 0.77698 0.0
H326 H 0.58999 0.26624 0.82221 0.0
O327 O 0.46042 0.26528 0.80506 0.0
C328 C 0.45745 0.27015 0.99078 0.0
C329 C 0.54131 0.2534 0.85888 0.0
C330 C 0.5802 0.30547 0.80163 0.0
N331 N 0.52656 0.29467 0.83886 0.0
C332 C 0.51862 0.26405 0.86411 0.0
C333 C 0.55698 0.31539 0.80842 0.0
C334 C 0.57224 0.27424 0.82705 0.0
C335 C 0.43377 0.3496 0.98533 0.0
N336 N 0.4195 0.31641 0.98792 0.0
C337 C 0.43614 0.36744 0.05628 0.0
C338 C 0.42388 0.35111 0.13053 0.0
C339 C 0.40956 0.31729 0.13301 0.0
C340 C 0.40765 0.30028 0.06084 0.0
C341 C 0.3173 0.2474 0.9474 0.0
C342 C 0.36173 0.22783 0.90604 0.0
C343 C 0.34987 0.27021 0.93104 0.0
N344 N 0.37169 0.26028 0.9114 0.0
C345 C 0.32937 0.20432 0.9221 0.0
C346 C 0.30705 0.21424 0.94302 0.0
C347 C 0.43321 0.25603 0.7689 0.0
C348 C 0.51496 0.36892 0.64223 0.0
C349 C 0.50346 0.30664 0.67409 0.0
C350 C 0.5089 0.31811 0.59314 0.0
C351 C 0.51469 0.34948 0.57722 0.0
N352 N 0.50344 0.32572 0.73748 0.0
C353 C 0.50925 0.35655 0.72244 0.0
Co354 Co 0.53846 0.83219 0.91679 0.0
Co355 Co 0.61655 0.89275 0.87923 0.0
O356 O 0.57075 0.87889 0.90449 0.0
C357 C 0.50348 0.86001 0.82164 0.0
O358 O 0.53092 0.8804 0.7851 0.0
C359 C 0.61886 0.94539 0.99234 0.0
O360 O 0.58719 0.92867 1.00336 0.0
O361 O 0.61833 0.86998 0.98053 0.0
O362 O 0.57243 0.82237 0.96138 0.0
H363 H 0.71152 0.87382 0.84895 0.0
H364 H 0.52388 0.88039 0.99401 0.0
O365 O 0.50272 0.83968 0.87427 0.0
H366 H 0.52304 0.81126 0.22231 0.0
H367 H 0.4287 0.73621 0.98766 0.0
H368 H 0.53837 0.77088 0.87734 0.0
H369 H 0.53305 0.80057 0.0799 0.0
H370 H 0.46961 0.79459 0.9764 0.0
O371 O 0.63304 0.93419 0.94676 0.0
H372 H 0.65423 0.85819 0.87632 0.0
H373 H 0.67616 0.95572 0.83591 0.0
H374 H 0.49822 0.71225 0.88782 0.0
H375 H 0.5132 0.89165 0.13577 0.0
H376 H 0.44296 0.69457 0.94355 0.0
H377 H 0.51287 0.85699 0.25122 0.0
O378 O 0.54814 0.82429 0.8029 0.0
H379 H 0.58834 0.96663 0.71943 0.0
H380 H 0.63716 0.89594 0.70394 0.0
H381 H 0.63439 0.92387 0.57881 0.0
H382 H 0.61004 0.95975 0.58609 0.0
H383 H 0.59096 0.93767 0.84244 0.0
H384 H 0.73377 0.97249 0.8092 0.0
H385 H 0.75174 0.93135 0.81511 0.0
O386 O 0.6027 0.85226 0.80886 0.0
C387 C 0.59958 0.84006 0.99791 0.0
C388 C 0.70397 0.89195 0.8459 0.0
C389 C 0.71646 0.94733 0.82363 0.0
N390 N 0.66178 0.90591 0.85682 0.0
C391 C 0.67155 0.88322 0.8611 0.0
C392 C 0.68381 0.9377 0.83901 0.0
C393 C 0.72652 0.92424 0.82697 0.0
C394 C 0.52363 0.86515 0.04388 0.0
N395 N 0.5294 0.84009 0.02864 0.0
C396 C 0.51761 0.87165 0.12403 0.0
C397 C 0.51742 0.8522 0.18878 0.0
C398 C 0.52308 0.82652 0.17267 0.0
C399 C 0.52897 0.82074 0.0918 0.0
C400 C 0.45272 0.7436 0.96342 0.0
C401 C 0.5144 0.76341 0.90177 0.0
C402 C 0.47598 0.77664 0.9567 0.0
N403 N 0.50643 0.78617 0.92654 0.0
C404 C 0.49173 0.73016 0.90739 0.0
C405 C 0.46073 0.72025 0.93864 0.0
C406 C 0.57597 0.83074 0.77519 0.0
C407 C 0.59918 0.95121 0.71552 0.0
C408 C 0.62626 0.91122 0.70767 0.0
C409 C 0.62489 0.92713 0.63656 0.0
C410 C 0.61127 0.94728 0.6407 0.0
N411 N 0.61448 0.91528 0.78106 0.0
C412 C 0.60097 0.9349 0.78535 0.0
Co413 Co 0.71523 0.52912 0.08639 0.0
Co414 Co 0.73448 0.60785 0.04929 0.0
O415 O 0.70189 0.56228 0.07423 0.0
C416 C 0.64795 0.49459 1.0078 0.0
O417 O 0.64917 0.52249 0.99467 0.0
C418 C 0.68627 0.61129 0.16661 0.0
O419 O 0.67509 0.58086 0.18809 0.0
O420 O 0.75833 0.60906 0.15164 0.0
O421 O 0.75892 0.56243 0.13337 0.0
H422 H 0.84897 0.70157 0.02269 0.0
H423 H 0.65258 0.516 0.16424 0.0
O424 O 0.67205 0.49375 0.04082 0.0
H425 H 0.71969 0.51158 0.39109 0.0
H426 H 0.69963 0.41831 0.15415 0.0
H427 H 0.77626 0.52827 0.04945 0.0
H428 H 0.74048 0.52203 0.24904 0.0
H429 H 0.68282 0.45981 0.14273 0.0
O430 O 0.70942 0.62483 0.1144 0.0
H431 H 0.8067 0.6446 0.04982 0.0
H432 H 0.73222 0.66786 1.00309 0.0
H433 H 0.79403 0.48747 0.05972 0.0
H434 H 0.63051 0.50466 0.30531 0.0
H435 H 0.75565 0.43208 0.11277 0.0
H436 H 0.66421 0.50257 0.42026 0.0
O437 O 0.73333 0.53902 0.97317 0.0
H438 H 0.63369 0.58283 0.88773 0.0
H439 H 0.75253 0.62698 0.8732 0.0
H440 H 0.72227 0.62435 0.74703 0.0
H441 H 0.66238 0.60226 0.75377 0.0
H442 H 0.66488 0.58546 0.01208 0.0
H443 H 0.77367 0.72515 0.97652 0.0
H444 H 0.83253 0.74229 0.98575 0.0
O445 O 0.76113 0.59345 0.98084 0.0
C446 C 0.76881 0.58972 0.16974 0.0
C447 C 0.82341 0.69438 0.01821 0.0
C448 C 0.78114 0.70761 0.99232 0.0
N449 N 0.76705 0.65283 0.0272 0.0
C450 C 0.79937 0.66215 0.03329 0.0
C451 C 0.75778 0.67515 1.00761 0.0
C452 C 0.81416 0.71721 0.99752 0.0
C453 C 0.66725 0.51469 0.21341 0.0
N454 N 0.6978 0.5197 0.19789 0.0
C455 C 0.65467 0.50842 0.29344 0.0
C456 C 0.67359 0.50728 0.35791 0.0
C457 C 0.70468 0.51229 0.34165 0.0
C458 C 0.71641 0.51842 0.26091 0.0
C459 C 0.7166 0.44238 0.13108 0.0
C460 C 0.75939 0.50423 0.0726 0.0
C461 C 0.7072 0.46598 0.12432 0.0
N462 N 0.7286 0.49653 0.09589 0.0
C463 C 0.76958 0.4812 0.07812 0.0
C464 C 0.74803 0.45012 0.10786 0.0
C465 C 0.75535 0.56666 0.94653 0.0
C466 C 0.65978 0.59252 0.88395 0.0
C467 C 0.72647 0.61696 0.87662 0.0
C468 C 0.70946 0.61572 0.80496 0.0
C469 C 0.67588 0.60337 0.80881 0.0
N470 N 0.71052 0.6062 0.95015 0.0
C471 C 0.67761 0.59416 0.95433 0.0
Co472 Co 0.13697 0.73268 0.2075 0.0
Co473 Co 0.19266 0.70987 0.26072 0.0
O474 O 0.14726 0.69867 0.23894 0.0
C475 C 0.08589 0.69432 0.33462 0.0
O476 O 0.10872 0.6947 0.38156 0.0
C477 C 0.16022 0.64238 0.1819 0.0
O478 O 0.1328 0.64245 0.17021 0.0
O479 O 0.20503 0.72878 0.14836 0.0
O480 O 0.17971 0.75799 0.14605 0.0
H481 H 0.31425 0.78439 0.25698 0.0
H482 H 0.08879 0.66393 0.16877 0.0
O483 O 0.09342 0.7084 0.26464 0.0
H484 H 0.11643 0.72058 0.90087 0.0
H485 H 0.06417 0.77577 0.11209 0.0
H486 H 0.17464 0.80483 0.20646 0.0
H487 H 0.14139 0.75074 0.02924 0.0
H488 H 0.07727 0.73291 0.14757 0.0
O489 O 0.18464 0.66669 0.2156 0.0
H490 H 0.25683 0.76942 0.23482 0.0
H491 H 0.22515 0.67425 0.32693 0.0
H492 H 0.16269 0.84848 0.17082 0.0
H493 H 0.06289 0.63283 0.04192 0.0
H494 H 0.1071 0.83404 0.12326 0.0
H495 H 0.07676 0.66117 0.90668 0.0
O496 O 0.1576 0.75653 0.31188 0.0
H497 H 0.12068 0.62627 0.47012 0.0
H498 H 0.22095 0.73193 0.4287 0.0
H499 H 0.2049 0.71028 0.56926 0.0
H500 H 0.15453 0.65696 0.59083 0.0
H501 H 0.13729 0.64908 0.33077 0.0
H502 H 0.28224 0.68821 0.34999 0.0
H503 H 0.32726 0.74368 0.31534 0.0
O504 O 0.20343 0.75355 0.30751 0.0
C505 C 0.20067 0.75101 0.11704 0.0
C506 C 0.29484 0.76019 0.27275 0.0
C507 C 0.27688 0.70619 0.32479 0.0
N508 N 0.23762 0.72108 0.28007 0.0
C509 C 0.26227 0.75159 0.26045 0.0
C510 C 0.2446 0.69842 0.31141 0.0
C511 C 0.30213 0.73732 0.30535 0.0
C512 C 0.09491 0.67643 0.11018 0.0
N513 N 0.11683 0.70905 0.10645 0.0
C514 C 0.08019 0.65869 0.03854 0.0
C515 C 0.088 0.6746 0.96268 0.0
C516 C 0.11028 0.70792 0.95937 0.0
C517 C 0.12451 0.72484 0.03228 0.0
C518 C 0.08849 0.78237 0.13266 0.0
C519 C 0.15044 0.79836 0.18544 0.0
C520 C 0.09602 0.75821 0.15309 0.0
N521 N 0.12674 0.76637 0.17868 0.0
C522 C 0.14379 0.82318 0.16551 0.0
C523 C 0.11259 0.81506 0.1389 0.0
C524 C 0.18645 0.76537 0.33648 0.0
C525 C 0.14285 0.64938 0.46148 0.0
C526 C 0.19901 0.70867 0.43725 0.0
C527 C 0.19008 0.69652 0.51717 0.0
C528 C 0.16181 0.66664 0.5292 0.0
N529 N 0.18037 0.69156 0.37093 0.0
C530 C 0.15254 0.66232 0.38242 0.0
Co531 Co 0.49618 0.19223 0.41427 0.0
Co532 Co 0.41999 0.12922 0.37321 0.0
O533 O 0.46569 0.14529 0.40235 0.0
C534 C 0.53291 0.16703 0.31913 0.0
O535 O 0.5062 0.1484 0.27718 0.0
C536 C 0.38677 0.07709 0.49924 0.0
O537 O 0.37226 0.09303 0.52461 0.0
O538 O 0.41608 0.15178 0.47304 0.0
O539 O 0.4608 0.20045 0.45559 0.0
H540 H 0.32032 0.1399 0.33494 0.0
H541 H 0.51036 0.14457 0.49595 0.0
O542 O 0.53295 0.18592 0.37516 0.0
H543 H 0.50863 0.21442 0.71945 0.0
H544 H 0.60376 0.29101 0.4872 0.0
H545 H 0.494 0.25203 0.37076 0.0
H546 H 0.50025 0.22466 0.57538 0.0
H547 H 0.56438 0.23213 0.47703 0.0
O548 O 0.40748 0.08861 0.44053 0.0
H549 H 0.37809 0.15919 0.36802 0.0
H550 H 0.36387 0.06451 0.32339 0.0
H551 H 0.53265 0.31111 0.37959 0.0
H552 H 0.51972 0.13394 0.63961 0.0
H553 H 0.58793 0.33097 0.43851 0.0
H554 H 0.51878 0.16898 0.75265 0.0
O555 O 0.48648 0.19897 0.2993 0.0
H556 H 0.4544 0.05819 0.22378 0.0
H557 H 0.40253 0.12581 0.19455 0.0
H558 H 0.40921 0.09889 0.07199 0.0
H559 H 0.43517 0.06463 0.08619 0.0
H560 H 0.44776 0.08607 0.34455 0.0
H561 H 0.3059 0.04412 0.29036 0.0
H562 H 0.28381 0.08197 0.29575 0.0
O563 O 0.43191 0.16916 0.30263 0.0
C564 C 0.43366 0.18189 0.49088 0.0
C565 C 0.32967 0.12318 0.33224 0.0
C566 C 0.32158 0.06943 0.30719 0.0
N567 N 0.37437 0.11307 0.34707 0.0
C568 C 0.36235 0.13397 0.3508 0.0
C569 C 0.35441 0.08111 0.326 0.0
C570 C 0.3092 0.09068 0.31025 0.0
C571 C 0.51029 0.16011 0.54477 0.0
N572 N 0.50488 0.18524 0.5272 0.0
C573 C 0.5155 0.15393 0.62599 0.0
C574 C 0.51498 0.17359 0.68939 0.0
C575 C 0.50941 0.19916 0.6709 0.0
C576 C 0.50449 0.20472 0.58905 0.0
C577 C 0.57972 0.28267 0.46156 0.0
C578 C 0.518 0.26045 0.39646 0.0
C579 C 0.55733 0.24935 0.45549 0.0
N580 N 0.52685 0.23863 0.42363 0.0
C581 C 0.53981 0.29395 0.40113 0.0
C582 C 0.57083 0.30507 0.43419 0.0
C583 C 0.45848 0.19139 0.2701 0.0
C584 C 0.44299 0.073 0.21682 0.0
C585 C 0.41419 0.11129 0.20119 0.0
C586 C 0.41774 0.09593 0.13158 0.0
C587 C 0.43225 0.07667 0.13961 0.0
N588 N 0.42479 0.10759 0.27675 0.0
C589 C 0.43902 0.08872 0.28507 0.0
Co590 Co 0.31862 0.48974 0.59307 0.0
Co591 Co 0.2971 0.41111 0.54532 0.0
O592 O 0.33062 0.45601 0.57395 0.0
C593 C 0.38578 0.52482 0.51324 0.0
O594 O 0.38617 0.49751 0.50324 0.0
C595 C 0.33887 0.4036 0.6722 0.0
O596 O 0.33945 0.42783 0.71309 0.0
O597 O 0.27345 0.40865 0.64916 0.0
O598 O 0.27538 0.45686 0.64131 0.0
H599 H 0.18196 0.31913 0.51227 0.0
H600 H 0.38085 0.49841 0.66416 0.0
O601 O 0.36131 0.52484 0.54626 0.0
H602 H 0.31917 0.50544 0.90032 0.0
H603 H 0.33832 0.60116 0.67248 0.0
H604 H 0.25809 0.49265 0.5652 0.0
H605 H 0.2965 0.49686 0.75992 0.0
H606 H 0.3533 0.55853 0.65442 0.0
O607 O 0.32248 0.39347 0.60555 0.0
H608 H 0.22486 0.37544 0.54427 0.0
H609 H 0.29828 0.35123 0.49214 0.0
H610 H 0.24211 0.53457 0.58233 0.0
H611 H 0.40473 0.50774 0.80323 0.0
H612 H 0.28232 0.58925 0.63663 0.0
H613 H 0.37378 0.51118 0.92282 0.0
O614 O 0.29924 0.48152 0.48116 0.0
H615 H 0.39695 0.43657 0.3804 0.0
H616 H 0.27848 0.39526 0.36788 0.0
H617 H 0.30838 0.39937 0.23996 0.0
H618 H 0.36806 0.42006 0.24571 0.0
H619 H 0.36612 0.43241 0.50676 0.0
H620 H 0.25618 0.29459 0.46032 0.0
H621 H 0.19754 0.27827 0.46995 0.0
O622 O 0.27074 0.42703 0.48117 0.0
C623 C 0.26418 0.42849 0.67208 0.0
C624 C 0.20743 0.32597 0.50761 0.0
C625 C 0.24909 0.31219 0.47855 0.0
N626 N 0.26401 0.36666 0.51947 0.0
C627 C 0.23182 0.35783 0.52544 0.0
C628 C 0.27281 0.34428 0.49684 0.0
C629 C 0.21619 0.30305 0.48394 0.0
C630 C 0.36748 0.50055 0.71521 0.0
N631 N 0.33748 0.49752 0.7032 0.0
C632 C 0.38103 0.50556 0.79418 0.0
C633 C 0.36362 0.5074 0.86127 0.0
C634 C 0.333 0.50419 0.84872 0.0
C635 C 0.32025 0.49923 0.76892 0.0
C636 C 0.32054 0.57739 0.64902 0.0
C637 C 0.27571 0.51633 0.58914 0.0
C638 C 0.3289 0.55316 0.63851 0.0
N639 N 0.30653 0.52302 0.60928 0.0
C640 C 0.26654 0.54001 0.59854 0.0
C641 C 0.28913 0.57069 0.6289 0.0
C642 C 0.27704 0.45462 0.4512 0.0
C643 C 0.37096 0.42755 0.37706 0.0
C644 C 0.30449 0.40463 0.37087 0.0
C645 C 0.32127 0.40673 0.29823 0.0
C646 C 0.35474 0.4183 0.30151 0.0
N647 N 0.32058 0.41383 0.44476 0.0
C648 C 0.35336 0.4251 0.44844 0.0
Co649 Co 0.89825 0.28918 0.71434 0.0
Co650 Co 0.84022 0.30967 0.7604 0.0
O651 O 0.88627 0.32223 0.74409 0.0
C652 C 0.94724 0.33082 0.84268 0.0
O653 O 0.92416 0.33339 0.88069 0.0
C654 C 0.87276 0.37763 0.68638 0.0
O655 O 0.9004 0.37784 0.67698 0.0
O656 O 0.83061 0.29187 0.64702 0.0
O657 O 0.85644 0.26315 0.64802 0.0
H658 H 0.71938 0.23276 0.73816 0.0
H659 H 0.94584 0.35844 0.6796 0.0
O660 O 0.94083 0.31401 0.77672 0.0
H661 H 0.92305 0.30292 0.41002 0.0
H662 H 0.9751 0.24951 0.63059 0.0
H663 H 0.86227 0.21703 0.71013 0.0
H664 H 0.89668 0.27199 0.53613 0.0
H665 H 0.95982 0.2911 0.66256 0.0
O666 O 0.84784 0.35281 0.71644 0.0
H667 H 0.77759 0.24935 0.72533 0.0
H668 H 0.80474 0.34293 0.82249 0.0
H669 H 0.8764 0.17461 0.6777 0.0
H670 H 0.97307 0.3903 0.5551 0.0
H671 H 0.9332 0.19078 0.63767 0.0
H672 H 0.96165 0.36253 0.419 0.0
O673 O 0.87663 0.26493 0.81683 0.0
H674 H 0.90455 0.3932 0.97929 0.0
H675 H 0.80916 0.28504 0.92417 0.0
H676 H 0.82112 0.30578 0.06645 0.0
H677 H 0.86898 0.36035 0.095 0.0
H678 H 0.89218 0.37121 0.83811 0.0
H679 H 0.7468 0.32723 0.83695 0.0
H680 H 0.70365 0.27176 0.79478 0.0
O681 O 0.82988 0.26589 0.8055 0.0
C682 C 0.83548 0.26979 0.61697 0.0
C683 C 0.73796 0.25696 0.75704 0.0
C684 C 0.75334 0.30999 0.8124 0.0
N685 N 0.79457 0.29701 0.77359 0.0
C686 C 0.77097 0.26648 0.7501 0.0
C687 C 0.78612 0.31875 0.80397 0.0
C688 C 0.72915 0.27886 0.78873 0.0
C689 C 0.94081 0.34618 0.62067 0.0
N690 N 0.9195 0.31345 0.61519 0.0
C691 C 0.95627 0.36435 0.55035 0.0
C692 C 0.94984 0.34876 0.47401 0.0
C693 C 0.92816 0.31533 0.46891 0.0
C694 C 0.91315 0.29796 0.54054 0.0
C695 C 0.95026 0.24215 0.64778 0.0
C696 C 0.88697 0.22423 0.6922 0.0
C697 C 0.94147 0.26559 0.66615 0.0
N698 N 0.91011 0.25648 0.68764 0.0
C699 C 0.89486 0.20012 0.67414 0.0
C700 C 0.92673 0.20921 0.65176 0.0
C701 C 0.84727 0.25518 0.83808 0.0
C702 C 0.88347 0.36949 0.96763 0.0
C703 C 0.83013 0.30878 0.93573 0.0
C704 C 0.83668 0.32046 0.01661 0.0
C705 C 0.86355 0.35104 0.03254 0.0
N706 N 0.84975 0.32701 0.87218 0.0
C707 C 0.87616 0.35701 0.88745 0.0
C708 C 0.21412 0.42627 0.27621 0.0
C709 C 0.21893 0.45561 0.24111 0.0
C710 C 0.23273 0.42617 0.34395 0.0
C711 C 0.25722 0.4554 0.3798 0.0
H712 H 0.19583 0.40301 0.25116 0.0
H713 H 0.22786 0.40283 0.36808 0.0
S714 S 0.27958 0.53915 0.31232 0.0
N715 N 0.25007 0.51492 0.24883 0.0
N716 N 0.28494 0.51473 0.37476 0.0
C717 C 0.26221 0.48497 0.34554 0.0
C718 C 0.24319 0.48507 0.27678 0.0
C719 C 0.81977 0.22573 0.50915 0.0
C720 C 0.8151 0.25027 0.54503 0.0
C721 C 0.80093 0.20713 0.44154 0.0
C722 C 0.77637 0.21205 0.4067 0.0
H723 H 0.83821 0.22074 0.5333 0.0
H724 H 0.80576 0.18873 0.4165 0.0
S725 S 0.75387 0.27312 0.47755 0.0
N726 N 0.7837 0.27833 0.53982 0.0
N727 N 0.7484 0.2435 0.41429 0.0
C728 C 0.77134 0.23646 0.44218 0.0
C729 C 0.7906 0.25547 0.51072 0.0
C730 C 0.54766 0.7673 0.60231 0.0
C731 C 0.5769 0.77184 0.56706 0.0
C732 C 0.54773 0.78643 0.66871 0.0
C733 C 0.57704 0.81111 0.70375 0.0
H734 H 0.52426 0.74876 0.57845 0.0
H735 H 0.52438 0.78161 0.69281 0.0
S736 S 0.66065 0.83328 0.63492 0.0
N737 N 0.63624 0.80348 0.57235 0.0
N738 N 0.63637 0.83876 0.69777 0.0
C739 C 0.60655 0.81592 0.66935 0.0
C740 C 0.60647 0.79655 0.6011 0.0
C741 C 0.78916 0.53741 0.77271 0.0
C742 C 0.81454 0.5664 0.7386 0.0
C743 C 0.77036 0.53788 0.83918 0.0
C744 C 0.77596 0.56735 0.8754 0.0
H745 H 0.78352 0.51392 0.74785 0.0
H746 H 0.75124 0.51471 0.86229 0.0
S747 S 0.83959 0.65041 0.81014 0.0
N748 N 0.84404 0.62569 0.74646 0.0
N749 N 0.80935 0.62653 0.87199 0.0
C750 C 0.80138 0.5966 0.84226 0.0
C751 C 0.82042 0.59613 0.77394 0.0
C752 C 0.23342 0.81184 0.93908 0.0
C753 C 0.25795 0.80706 0.90367 0.0
C754 C 0.21554 0.79398 1.00801 0.0
C755 C 0.2209 0.77006 0.04475 0.0
H756 H 0.22784 0.82965 0.9136 0.0
H757 H 0.19721 0.79906 0.03236 0.0
S758 S 0.28224 0.74765 0.97629 0.0
N759 N 0.28672 0.77644 0.91143 0.0
N760 N 0.25288 0.74264 0.03994 0.0
C761 C 0.24533 0.76489 1.01 0.0
C762 C 0.26379 0.78333 0.9399 0.0
C763 C 0.48615 0.23586 0.16445 0.0
C764 C 0.45702 0.2106 0.19836 0.0
C765 C 0.4859 0.25477 0.09811 0.0
C766 C 0.45651 0.24945 0.06186 0.0
H767 H 0.50961 0.24133 0.18943 0.0
H768 H 0.50917 0.27379 0.07516 0.0
S769 S 0.37314 0.18618 0.1264 0.0
N770 N 0.39768 0.18139 0.18999 0.0
N771 N 0.39723 0.21647 0.06498 0.0
C772 C 0.42711 0.22416 0.09477 0.0
C773 C 0.42736 0.20492 0.16283 0.0
C774 C 0.13594 0.55313 0.15362 0.0
C775 C 0.16576 0.55476 0.13469 0.0
C776 C 0.13415 0.5816 0.16657 0.0
C777 C 0.16224 0.61271 0.16299 0.0
H778 H 0.11373 0.52971 0.15722 0.0
H779 H 0.11067 0.57915 0.18108 0.0
S780 S 0.2464 0.63015 0.11733 0.0
N781 N 0.22403 0.59002 0.11339 0.0
N782 N 0.22083 0.6433 0.1394 0.0
C783 C 0.19225 0.61459 0.14476 0.0
C784 C 0.19395 0.5857 0.13014 0.0
C785 C 0.58888 0.13294 0.27114 0.0
C786 C 0.62027 0.16025 0.2809 0.0
C787 C 0.56072 0.13546 0.28181 0.0
C788 C 0.5629 0.1652 0.30452 0.0
H789 H 0.58603 0.10958 0.25347 0.0
H790 H 0.53706 0.11384 0.27346 0.0
S791 S 0.63926 0.24387 0.33844 0.0
N792 N 0.6518 0.21801 0.31429 0.0
N793 N 0.59899 0.22253 0.33615 0.0
C794 C 0.59412 0.1926 0.31525 0.0
C795 C 0.62275 0.19018 0.30293 0.0
C796 C 0.44658 0.5599 0.49966 0.0
C797 C 0.41531 0.55655 0.49458 0.0
C798 C 0.47491 0.59025 0.48749 0.0
C799 C 0.47297 0.61822 0.46802 0.0
H800 H 0.44927 0.53906 0.51478 0.0
H801 H 0.49846 0.59171 0.49211 0.0
S802 S 0.397 0.6225 0.44675 0.0
N803 N 0.38419 0.58393 0.46887 0.0
N804 N 0.43721 0.64062 0.44455 0.0
C805 C 0.44185 0.61512 0.46201 0.0
C806 C 0.4131 0.58441 0.47571 0.0
C807 C 0.83792 0.43187 0.62786 0.0
C808 C 0.86412 0.46352 0.64246 0.0
C809 C 0.84101 0.40429 0.64205 0.0
C810 C 0.87071 0.4073 0.66899 0.0
H811 H 0.81466 0.42835 0.60641 0.0
H812 H 0.82002 0.38039 0.63125 0.0
S813 S 0.94694 0.48474 0.71441 0.0
N814 N 0.92078 0.49629 0.68513 0.0
N815 N 0.92689 0.4445 0.70947 0.0
C816 C 0.89726 0.43881 0.68261 0.0
C817 C 0.89387 0.4669 0.67006 0.0
C818 C 0.44648 0.89316 0.77478 0.0
C819 C 0.41529 0.86517 0.77872 0.0
C820 C 0.47494 0.89123 0.78685 0.0
C821 C 0.47327 0.86136 0.80511 0.0
H822 H 0.44898 0.91668 0.76082 0.0
H823 H 0.49841 0.91339 0.78318 0.0
S824 S 0.39765 0.78093 0.823 0.0
N825 N 0.38457 0.80662 0.80196 0.0
N826 N 0.43784 0.80315 0.82608 0.0
C827 C 0.44225 0.83326 0.80986 0.0
C828 C 0.41335 0.83512 0.79625 0.0
C829 C 0.59033 0.40552 0.95475 0.0
C830 C 0.55921 0.40217 0.96446 0.0
C831 C 0.61885 0.43545 0.96909 0.0
C832 C 0.61739 0.46347 0.99118 0.0
H833 H 0.59269 0.3847 0.93696 0.0
H834 H 0.64226 0.43673 0.96199 0.0
S835 S 0.54189 0.46783 0.02295 0.0
N836 N 0.52861 0.42941 0.99763 0.0
N837 N 0.58214 0.4859 0.02204 0.0
C838 C 0.58642 0.46055 1.00006 0.0
C839 C 0.55736 0.42985 0.98745 0.0
C840 C 0.25221 0.42146 0.82207 0.0
C841 C 0.24105 0.41998 0.74094 0.0
C842 C 0.23396 0.42206 0.88971 0.0
C843 C 0.20356 0.42018 0.87838 0.0
H844 H 0.27623 0.42461 0.833 0.0
H845 H 0.24436 0.42551 0.951 0.0
S846 S 0.16319 0.41469 0.67833 0.0
N847 N 0.19775 0.41616 0.65293 0.0
N848 N 0.16262 0.41551 0.78019 0.0
C849 C 0.19133 0.41676 0.79779 0.0
C850 C 0.21034 0.41716 0.72893 0.0
C851 C 0.78521 0.1844 0.9645 0.0
C852 C 0.79528 0.19551 0.04551 0.0
C853 C 0.80342 0.20289 0.89654 0.0
C854 C 0.83278 0.23244 0.90768 0.0
H855 H 0.76189 0.16262 0.95355 0.0
H856 H 0.79374 0.19484 0.83501 0.0
S857 S 0.87045 0.271 0.10735 0.0
N858 N 0.83665 0.23733 0.13316 0.0
N859 N 0.87183 0.27113 1.00552 0.0
C860 C 0.84408 0.2427 0.98834 0.0
C861 C 0.82504 0.22446 0.05736 0.0
C862 C 0.60816 0.77766 0.1243 0.0
C863 C 0.60741 0.78782 0.20538 0.0
C864 C 0.60764 0.79583 0.05641 0.0
C865 C 0.60755 0.82526 0.06763 0.0
H866 H 0.60661 0.75434 0.11328 0.0
H867 H 0.60587 0.78612 0.99488 0.0
S868 S 0.60735 0.86313 0.26752 0.0
N869 N 0.6073 0.82932 0.29317 0.0
N870 N 0.60826 0.86443 0.16568 0.0
C871 C 0.60887 0.83663 0.14835 0.0
C872 C 0.60828 0.81762 0.2173 0.0
C873 C 0.83984 0.59812 0.29671 0.0
C874 C 0.82891 0.59727 0.37778 0.0
C875 C 0.82111 0.5976 0.22869 0.0
C876 C 0.79148 0.59736 0.23974 0.0
H877 H 0.86165 0.5966 0.28579 0.0
H878 H 0.82911 0.59596 0.16718 0.0
S879 S 0.75317 0.59665 0.4394 0.0
N880 N 0.78706 0.5968 0.46525 0.0
N881 N 0.75283 0.59771 0.33756 0.0
C882 C 0.78136 0.59852 0.3204 0.0
C883 C 0.79984 0.59798 0.38947 0.0
C884 C 0.19105 0.77811 0.48626 0.0
C885 C 0.20099 0.78881 0.40508 0.0
C886 C 0.20981 0.7965 0.55399 0.0
C887 C 0.23855 0.82661 0.54272 0.0
H888 H 0.17001 0.75429 0.49727 0.0
H889 H 0.20269 0.78637 0.61535 0.0
S890 S 0.27405 0.86592 0.34262 0.0
N891 N 0.24088 0.8315 0.31714 0.0
N892 N 0.27522 0.86687 0.4445 0.0
C893 C 0.2476 0.83844 0.46205 0.0
C894 C 0.22905 0.81929 0.39311 0.0
C895 C 0.42412 0.2433 0.61913 0.0
C896 C 0.4248 0.23286 0.69986 0.0
C897 C 0.42471 0.22539 0.55063 0.0
C898 C 0.42476 0.1959 0.56075 0.0
H899 H 0.42578 0.26671 0.60889 0.0
H900 H 0.42673 0.23544 0.48948 0.0
S901 S 0.42433 0.15707 0.75936 0.0
N902 N 0.4245 0.19086 0.78619 0.0
N903 N 0.42365 0.15622 0.65747 0.0
C904 C 0.42317 0.18414 0.64108 0.0
C905 C 0.42373 0.20291 0.71073 0.0
C906 C 0.0265 0.39968 0.93064 0.0
C907 C 0.04779 0.38693 0.92829 0.0
C908 C 0.99383 0.38109 0.90471 0.0
C909 C 0.98144 0.34936 0.87307 0.0
H910 H 0.03499 0.42407 0.95411 0.0
H911 H 0.97834 0.39189 0.908 0.0
S912 S 0.02712 0.30478 0.85298 0.0
N913 N 0.05394 0.34038 0.89292 0.0
N914 N 0.99305 0.30601 0.84079 0.0
C915 C 1.00255 0.33644 0.86953 0.0
C916 C 0.03555 0.35504 0.89812 0.0
C917 C 0.62328 0.9989 0.03028 0.0
C918 C 0.63787 0.97928 0.02477 0.0
C919 C 0.64116 0.03156 0.05649 0.0
C920 C 0.67408 0.04561 0.08049 0.0
H921 H 0.59799 0.98917 0.01252 0.0
H922 H 0.62895 0.04576 0.05922 0.0
S923 S 0.72359 1.00465 0.07902 0.0
N924 N 0.68736 0.97648 0.04522 0.0
N925 N 0.72049 0.03734 0.09765 0.0
C926 C 0.68883 0.02615 0.07655 0.0
C927 C 0.67088 0.99317 0.04779 0.0
C928 C 0.63585 0.61188 0.21203 0.0
C929 C 0.66963 0.62904 0.19631 0.0
C930 C 0.61921 0.62813 0.23688 0.0
C931 C 0.63578 0.66214 0.24902 0.0
H932 H 0.622 0.58567 0.20372 0.0
H933 H 0.5932 0.6138 0.24809 0.0
S934 S 0.7244 0.71838 0.21762 0.0
N935 N 0.71907 0.68204 0.1944 0.0
N936 N 0.68806 0.71242 0.2437 0.0
C937 C 0.66964 0.67957 0.23436 0.0
C938 C 0.68646 0.66309 0.20725 0.0
C939 C 0.02842 0.68351 0.31852 0.0
C940 C 0.05114 0.67828 0.3626 0.0
C941 C 0.99582 0.66979 0.34409 0.0
C942 C 0.98416 0.64986 0.4145 0.0
H943 H 0.03591 0.69884 0.26423 0.0
H944 H 0.97968 0.67516 0.30845 0.0
S945 S 0.03317 0.62736 0.55058 0.0
N946 N 0.05924 0.6509 0.47949 0.0
N947 N 0.99808 0.62505 0.5272 0.0
C948 C 1.0064 0.64379 0.4583 0.0
C949 C 0.03978 0.65802 0.43257 0.0
C950 C 0.37531 0.01944 0.48093 0.0
C951 C 0.37595 0.04385 0.53205 0.0
C952 C 0.36195 0.98703 0.50843 0.0
C953 C 0.349 0.97773 0.58855 0.0
H954 H 0.38417 0.02515 0.41813 0.0
H955 H 0.36126 0.96905 0.46583 0.0
S956 S 0.34874 0.03366 0.74981 0.0
N957 N 0.3648 0.05715 0.6683 0.0
N958 N 0.34066 0.99692 0.72092 0.0
C959 C 0.35097 1.00243 0.64137 0.0
C960 C 0.36415 0.03524 0.61291 0.0
C961 C 0.34679 0.35522 0.69018 0.0
C962 C 0.35845 0.3888 0.70111 0.0
C963 C 0.36503 0.34078 0.71678 0.0
C964 C 0.39615 0.35959 0.75243 0.0
H965 H 0.32315 0.33988 0.66196 0.0
H966 H 0.3549 0.31477 0.70835 0.0
S967 S 0.43799 0.44855 0.79386 0.0
N968 N 0.40299 0.44035 0.75092 0.0
N969 N 0.43771 0.41353 0.79767 0.0
C970 C 0.40824 0.39322 0.76276 0.0
C971 C 0.38929 0.40774 0.73797 0.0
loop_
_geom_bond_atom_site_label_1
_geom_bond_atom_site_label_2
_geom_bond_distance
_geom_bond_site_symmetry_2
_ccdc_geom_bond_type
Co0 O2 2.143 . S
Co0 O8 2.074 1_554 S
Co0 O11 2.093 . S
Co0 O24 2.097 . S
Co0 N41 2.151 1_554 S
Co0 N49 2.214 . S
Co1 O2 2.160 . S
Co1 O7 2.058 1_554 S
Co1 O17 2.057 1_554 S
Co1 O32 2.037 . S
Co1 N36 2.145 . S
Co1 N57 2.257 . S
O2 Co0 2.143 . S
O2 Co1 2.160 . S
C3 O4 1.278 . S
C3 O11 1.224 . S
O4 C3 1.278 . S
C5 O6 1.245 . S
C5 O17 1.232 . S
O6 C5 1.245 . S
O7 Co1 2.058 1_556 S
O7 C33 1.269 . S
O8 Co0 2.074 1_556 S
O8 C33 1.257 . S
H9 C34 0.930 . S
H10 C40 0.930 . S
O11 Co0 2.093 . S
O11 C3 1.224 . S
H12 C44 0.929 . S
H13 C46 0.930 . S
H14 C47 0.930 . S
H15 C45 0.929 . S
H16 C48 0.928 . S
O17 Co1 2.057 1_556 S
O17 C5 1.232 . S
H18 C37 0.929 . S
H19 C38 0.929 . S
H20 C50 0.931 . S
H21 C42 0.929 . S
H22 C51 0.930 . S
H23 C43 0.931 . S
O24 Co0 2.097 . S
O24 C52 1.214 . S
H25 C53 0.929 . S
H26 C54 0.929 . S
H27 C55 0.930 . S
H28 C56 0.929 . S
H29 C58 0.930 . S
H30 C35 0.930 . S
H31 C39 0.930 . S
O32 Co1 2.037 . S
O32 C52 1.234 . S
C33 O7 1.269 . S
C33 O8 1.257 . S
C34 H9 0.930 . S
C34 C37 1.388 . S
C34 C39 1.418 . S
C35 H30 0.930 . S
C35 C38 1.404 . S
C35 C39 1.353 . S
N36 Co1 2.145 . S
N36 C37 1.397 . S
N36 C38 1.334 . S
C37 H18 0.929 . S
C37 C34 1.388 . S
C37 N36 1.397 . S
C38 H19 0.929 . S
C38 C35 1.404 . S
C38 N36 1.334 . S
C39 H31 0.930 . S
C39 C34 1.418 . S
C39 C35 1.353 . S
C40 H10 0.930 . S
C40 N41 1.330 . S
C40 C42 1.446 . S
N41 Co0 2.151 1_556 S
N41 C40 1.330 . S
N41 C45 1.418 . S
C42 H21 0.929 . S
C42 C40 1.446 . S
C42 C43 1.332 . S
C43 H23 0.931 . S
C43 C42 1.332 . S
C43 C44 1.267 . S
C44 H12 0.929 . S
C44 C43 1.267 . S
C44 C45 1.251 . S
C45 H15 0.929 . S
C45 N41 1.418 . S
C45 C44 1.251 . S
C46 H13 0.930 . S
C46 C48 1.406 . S
C46 C51 1.261 . S
C47 H14 0.930 . S
C47 N49 1.325 . S
C47 C50 1.357 . S
C48 H16 0.928 . S
C48 C46 1.406 . S
C48 N49 1.261 . S
N49 Co0 2.214 . S
N49 C47 1.325 . S
N49 C48 1.261 . S
C50 H20 0.931 . S
C50 C47 1.357 . S
C50 C51 1.312 . S
C51 H22 0.930 . S
C51 C46 1.261 . S
C51 C50 1.312 . S
C52 O24 1.214 . S
C52 O32 1.234 . S
C53 H25 0.929 . S
C53 C56 1.391 . S
C53 C58 1.391 . S
C54 H26 0.929 . S
C54 C55 1.390 . S
C54 N57 1.391 . S
C55 H27 0.930 . S
C55 C54 1.390 . S
C55 C56 1.392 . S
C56 H28 0.929 . S
C56 C53 1.391 . S
C56 C55 1.392 . S
N57 Co1 2.257 . S
N57 C54 1.391 . S
N57 C58 1.388 . S
C58 H29 0.930 . S
C58 C53 1.391 . S
C58 N57 1.388 . S
Co59 O61 2.143 . S
Co59 O67 2.074 . S
Co59 O70 2.093 . S
Co59 O83 2.097 . S
Co59 N100 2.151 . S
Co59 N108 2.214 . S
Co60 O61 2.160 . S
Co60 O66 2.058 . S
Co60 O76 2.057 . S
Co60 O91 2.037 . S
Co60 N95 2.145 . S
Co60 N116 2.257 . S
O61 Co59 2.143 . S
O61 Co60 2.160 . S
C62 O63 1.278 . S
C62 O70 1.224 . S
O63 C62 1.278 . S
C64 O65 1.245 . S
C64 O76 1.232 . S
O65 C64 1.245 . S
O66 Co60 2.058 . S
O66 C92 1.269 . S
O67 Co59 2.074 . S
O67 C92 1.257 . S
H68 C93 0.930 . S
H69 C99 0.930 . S
O70 Co59 2.093 . S
O70 C62 1.224 . S
H71 C103 0.929 . S
H72 C105 0.930 . S
H73 C106 0.930 . S
H74 C104 0.929 . S
H75 C107 0.928 . S
O76 Co60 2.057 . S
O76 C64 1.232 . S
H77 C96 0.929 . S
H78 C97 0.929 . S
H79 C109 0.931 . S
H80 C101 0.929 . S
H81 C110 0.930 . S
H82 C102 0.931 . S
O83 Co59 2.097 . S
O83 C111 1.214 . S
H84 C112 0.929 . S
H85 C113 0.929 . S
H86 C114 0.930 . S
H87 C115 0.929 . S
H88 C117 0.930 . S
H89 C94 0.930 . S
H90 C98 0.930 . S
O91 Co60 2.037 . S
O91 C111 1.234 . S
C92 O66 1.269 . S
C92 O67 1.257 . S
C93 H68 0.930 . S
C93 C96 1.388 . S
C93 C98 1.418 . S
C94 H89 0.930 . S
C94 C97 1.404 . S
C94 C98 1.353 . S
N95 Co60 2.145 . S
N95 C96 1.397 . S
N95 C97 1.334 . S
C96 H77 0.929 . S
C96 C93 1.388 . S
C96 N95 1.397 . S
C97 H78 0.929 . S
C97 C94 1.404 . S
C97 N95 1.334 . S
C98 H90 0.930 . S
C98 C93 1.418 . S
C98 C94 1.353 . S
C99 H69 0.930 . S
C99 N100 1.330 . S
C99 C101 1.446 . S
N100 Co59 2.151 . S
N100 C99 1.330 . S
N100 C104 1.418 . S
C101 H80 0.929 . S
C101 C99 1.446 . S
C101 C102 1.332 1_554 S
C102 H82 0.931 . S
C102 C101 1.332 1_556 S
C102 C103 1.267 . S
C103 H71 0.929 . S
C103 C102 1.267 . S
C103 C104 1.251 1_556 S
C104 H74 0.929 . S
C104 N100 1.418 . S
C104 C103 1.251 1_554 S
C105 H72 0.930 . S
C105 C107 1.406 . S
C105 C110 1.261 . S
C106 H73 0.930 . S
C106 N108 1.325 . S
C106 C109 1.357 . S
C107 H75 0.928 . S
C107 C105 1.406 . S
C107 N108 1.261 . S
N108 Co59 2.214 . S
N108 C106 1.325 . S
N108 C107 1.261 . S
C109 H79 0.931 . S
C109 C106 1.357 . S
C109 C110 1.312 . S
C110 H81 0.930 . S
C110 C105 1.261 . S
C110 C109 1.312 . S
C111 O83 1.214 . S
C111 O91 1.234 . S
C112 H84 0.929 . S
C112 C115 1.391 . S
C112 C117 1.391 . S
C113 H85 0.929 . S
C113 C114 1.390 . S
C113 N116 1.391 . S
C114 H86 0.930 . S
C114 C113 1.390 . S
C114 C115 1.392 . S
C115 H87 0.929 . S
C115 C112 1.391 . S
C115 C114 1.392 . S
N116 Co60 2.257 . S
N116 C113 1.391 . S
N116 C117 1.388 . S
C117 H88 0.930 . S
C117 C112 1.391 . S
C117 N116 1.388 . S
Co118 O120 2.143 . S
Co118 O126 2.074 . S
Co118 O129 2.093 . S
Co118 O142 2.097 . S
Co118 N159 2.151 . S
Co118 N167 2.214 . S
Co119 O120 2.160 . S
Co119 O125 2.058 . S
Co119 O135 2.057 . S
Co119 O150 2.037 . S
Co119 N154 2.145 . S
Co119 N175 2.257 . S
O120 Co118 2.143 . S
O120 Co119 2.160 . S
C121 O122 1.278 . S
C121 O129 1.224 . S
O122 C121 1.278 . S
C123 O124 1.245 . S
C123 O135 1.232 . S
O124 C123 1.245 . S
O125 Co119 2.058 . S
O125 C151 1.269 . S
O126 Co118 2.074 . S
O126 C151 1.257 . S
H127 C152 0.930 . S
H128 C158 0.930 . S
O129 Co118 2.093 . S
O129 C121 1.224 . S
H130 C162 0.929 . S
H131 C164 0.930 . S
H132 C165 0.930 . S
H133 C163 0.929 . S
H134 C166 0.928 . S
O135 Co119 2.057 . S
O135 C123 1.232 . S
H136 C155 0.929 . S
H137 C156 0.929 . S
H138 C168 0.931 . S
H139 C160 0.929 . S
H140 C169 0.930 . S
H141 C161 0.931 . S
O142 Co118 2.097 . S
O142 C170 1.214 . S
H143 C171 0.929 . S
H144 C172 0.929 . S
H145 C173 0.930 . S
H146 C174 0.929 . S
H147 C176 0.930 . S
H148 C153 0.930 . S
H149 C157 0.930 . S
O150 Co119 2.037 . S
O150 C170 1.234 . S
C151 O125 1.269 . S
C151 O126 1.257 . S
C152 H127 0.930 . S
C152 C155 1.388 . S
C152 C157 1.418 . S
C153 H148 0.930 . S
C153 C156 1.404 . S
C153 C157 1.353 . S
N154 Co119 2.145 . S
N154 C155 1.397 . S
N154 C156 1.334 . S
C155 H136 0.929 . S
C155 C152 1.388 . S
C155 N154 1.397 . S
C156 H137 0.929 . S
C156 C153 1.404 . S
C156 N154 1.334 . S
C157 H149 0.930 . S
C157 C152 1.418 . S
C157 C153 1.353 . S
C158 H128 0.930 . S
C158 N159 1.330 . S
C158 C160 1.446 . S
N159 Co118 2.151 . S
N159 C158 1.330 . S
N159 C163 1.418 . S
C160 H139 0.929 . S
C160 C158 1.446 . S
C160 C161 1.332 . S
C161 H141 0.931 . S
C161 C160 1.332 . S
C161 C162 1.267 . S
C162 H130 0.929 . S
C162 C161 1.267 . S
C162 C163 1.251 . S
C163 H133 0.929 . S
C163 N159 1.418 . S
C163 C162 1.251 . S
C164 H131 0.930 . S
C164 C166 1.406 . S
C164 C169 1.261 . S
C165 H132 0.930 . S
C165 N167 1.325 . S
C165 C168 1.357 . S
C166 H134 0.928 . S
C166 C164 1.406 . S
C166 N167 1.261 . S
N167 Co118 2.214 . S
N167 C165 1.325 . S
N167 C166 1.261 . S
C168 H138 0.931 . S
C168 C165 1.357 . S
C168 C169 1.312 . S
C169 H140 0.930 . S
C169 C164 1.261 . S
C169 C168 1.312 . S
C170 O142 1.214 . S
C170 O150 1.234 . S
C171 H143 0.929 . S
C171 C174 1.391 . S
C171 C176 1.391 . S
C172 H144 0.929 . S
C172 C173 1.390 . S
C172 N175 1.391 . S
C173 H145 0.930 . S
C173 C172 1.390 . S
C173 C174 1.392 . S
C174 H146 0.929 . S
C174 C171 1.391 . S
C174 C173 1.392 . S
N175 Co119 2.257 . S
N175 C172 1.391 . S
N175 C176 1.388 . S
C176 H147 0.930 . S
C176 C171 1.391 . S
C176 N175 1.388 . S
Co177 O179 2.143 . S
Co177 O185 2.074 . S
Co177 O188 2.093 . S
Co177 O201 2.097 . S
Co177 N218 2.151 . S
Co177 N226 2.214 . S
Co178 O179 2.160 . S
Co178 O184 2.058 . S
Co178 O194 2.057 . S
Co178 O209 2.037 . S
Co178 N213 2.145 . S
Co178 N234 2.257 . S
O179 Co177 2.143 . S
O179 Co178 2.160 . S
C180 O181 1.278 . S
C180 O188 1.224 . S
O181 C180 1.278 . S
C182 O183 1.245 . S
C182 O194 1.232 . S
O183 C182 1.245 . S
O184 Co178 2.058 . S
O184 C210 1.269 . S
O185 Co177 2.074 . S
O185 C210 1.257 . S
H186 C211 0.930 . S
H187 C217 0.930 . S
O188 Co177 2.093 . S
O188 C180 1.224 . S
H189 C221 0.929 . S
H190 C223 0.930 . S
H191 C224 0.930 . S
H192 C222 0.929 . S
H193 C225 0.928 . S
O194 Co178 2.057 . S
O194 C182 1.232 . S
H195 C214 0.929 . S
H196 C215 0.929 . S
H197 C227 0.931 . S
H198 C219 0.929 . S
H199 C228 0.930 . S
H200 C220 0.931 . S
O201 Co177 2.097 . S
O201 C229 1.214 . S
H202 C230 0.929 . S
H203 C231 0.929 . S
H204 C232 0.930 . S
H205 C233 0.929 . S
H206 C235 0.930 . S
H207 C212 0.930 . S
H208 C216 0.930 . S
O209 Co178 2.037 . S
O209 C229 1.234 . S
C210 O184 1.269 . S
C210 O185 1.257 . S
C211 H186 0.930 . S
C211 C214 1.388 . S
C211 C216 1.418 . S
C212 H207 0.930 . S
C212 C215 1.404 . S
C212 C216 1.353 . S
N213 Co178 2.145 . S
N213 C214 1.397 . S
N213 C215 1.334 . S
C214 H195 0.929 . S
C214 C211 1.388 . S
C214 N213 1.397 . S
C215 H196 0.929 . S
C215 C212 1.404 . S
C215 N213 1.334 . S
C216 H208 0.930 . S
C216 C211 1.418 . S
C216 C212 1.353 . S
C217 H187 0.930 . S
C217 N218 1.330 . S
C217 C219 1.446 . S
N218 Co177 2.151 . S
N218 C217 1.330 . S
N218 C222 1.418 . S
C219 H198 0.929 . S
C219 C217 1.446 . S
C219 C220 1.332 . S
C220 H200 0.931 . S
C220 C219 1.332 . S
C220 C221 1.267 . S
C221 H189 0.929 . S
C221 C220 1.267 . S
C221 C222 1.251 . S
C222 H192 0.929 . S
C222 N218 1.418 . S
C222 C221 1.251 . S
C223 H190 0.930 . S
C223 C225 1.406 . S
C223 C228 1.261 . S
C224 H191 0.930 . S
C224 N226 1.325 . S
C224 C227 1.357 . S
C225 H193 0.928 . S
C225 C223 1.406 . S
C225 N226 1.261 . S
N226 Co177 2.214 . S
N226 C224 1.325 . S
N226 C225 1.261 . S
C227 H197 0.931 . S
C227 C224 1.357 . S
C227 C228 1.312 . S
C228 H199 0.930 . S
C228 C223 1.261 . S
C228 C227 1.312 . S
C229 O201 1.214 . S
C229 O209 1.234 . S
C230 H202 0.929 . S
C230 C233 1.391 . S
C230 C235 1.391 . S
C231 H203 0.929 . S
C231 C232 1.390 . S
C231 N234 1.391 . S
C232 H204 0.930 . S
C232 C231 1.390 . S
C232 C233 1.392 . S
C233 H205 0.929 . S
C233 C230 1.391 . S
C233 C232 1.392 . S
N234 Co178 2.257 . S
N234 C231 1.391 . S
N234 C235 1.388 . S
C235 H206 0.930 . S
C235 C230 1.391 . S
C235 N234 1.388 . S
Co236 O238 2.143 . S
Co236 O244 2.074 . S
Co236 O247 2.093 . S
Co236 O260 2.097 . S
Co236 N277 2.151 . S
Co236 N285 2.214 . S
Co237 O238 2.160 . S
Co237 O243 2.058 . S
Co237 O253 2.057 . S
Co237 O268 2.037 . S
Co237 N272 2.145 . S
Co237 N293 2.257 . S
O238 Co236 2.143 . S
O238 Co237 2.160 . S
C239 O240 1.278 . S
C239 O247 1.224 . S
O240 C239 1.278 . S
C241 O242 1.245 . S
C241 O253 1.232 . S
O242 C241 1.245 . S
O243 Co237 2.058 . S
O243 C269 1.269 . S
O244 Co236 2.074 . S
O244 C269 1.257 . S
H245 C270 0.930 . S
H246 C276 0.930 . S
O247 Co236 2.093 . S
O247 C239 1.224 . S
H248 C280 0.929 . S
H249 C282 0.930 . S
H250 C283 0.930 . S
H251 C281 0.929 . S
H252 C284 0.928 . S
O253 Co237 2.057 . S
O253 C241 1.232 . S
H254 C273 0.929 . S
H255 C274 0.929 . S
H256 C286 0.931 . S
H257 C278 0.929 . S
H258 C287 0.930 . S
H259 C279 0.931 . S
O260 Co236 2.097 . S
O260 C288 1.214 . S
H261 C289 0.929 . S
H262 C290 0.929 . S
H263 C291 0.930 1_554 S
H264 C292 0.929 1_554 S
H265 C294 0.930 . S
H266 C271 0.930 . S
H267 C275 0.930 . S
O268 Co237 2.037 . S
O268 C288 1.234 . S
C269 O243 1.269 . S
C269 O244 1.257 . S
C270 H245 0.930 . S
C270 C273 1.388 . S
C270 C275 1.418 . S
C271 H266 0.930 . S
C271 C274 1.404 . S
C271 C275 1.353 . S
N272 Co237 2.145 . S
N272 C273 1.397 . S
N272 C274 1.334 . S
C273 H254 0.929 . S
C273 C270 1.388 . S
C273 N272 1.397 . S
C274 H255 0.929 . S
C274 C271 1.404 . S
C274 N272 1.334 . S
C275 H267 0.930 . S
C275 C270 1.418 . S
C275 C271 1.353 . S
C276 H246 0.930 . S
C276 N277 1.330 . S
C276 C278 1.446 . S
N277 Co236 2.151 . S
N277 C276 1.330 . S
N277 C281 1.418 . S
C278 H257 0.929 . S
C278 C276 1.446 . S
C278 C279 1.332 . S
C279 H259 0.931 . S
C279 C278 1.332 . S
C279 C280 1.267 . S
C280 H248 0.929 . S
C280 C279 1.267 . S
C280 C281 1.251 . S
C281 H251 0.929 . S
C281 N277 1.418 . S
C281 C280 1.251 . S
C282 H249 0.930 . S
C282 C284 1.406 . S
C282 C287 1.261 . S
C283 H250 0.930 . S
C283 N285 1.325 . S
C283 C286 1.357 . S
C284 H252 0.928 . S
C284 C282 1.406 . S
C284 N285 1.261 . S
N285 Co236 2.214 . S
N285 C283 1.325 . S
N285 C284 1.261 . S
C286 H256 0.931 . S
C286 C283 1.357 . S
C286 C287 1.312 . S
C287 H258 0.930 . S
C287 C282 1.261 . S
C287 C286 1.312 . S
C288 O260 1.214 . S
C288 O268 1.234 . S
C289 H261 0.929 . S
C289 C292 1.391 . S
C289 C294 1.391 . S
C290 H262 0.929 . S
C290 C291 1.390 . S
C290 N293 1.391 . S
C291 H263 0.930 1_556 S
C291 C290 1.390 . S
C291 C292 1.392 . S
C292 H264 0.929 1_556 S
C292 C289 1.391 . S
C292 C291 1.392 . S
N293 Co237 2.257 . S
N293 C290 1.391 . S
N293 C294 1.388 . S
C294 H265 0.930 . S
C294 C289 1.391 . S
C294 N293 1.388 . S
Co295 O297 2.143 . S
Co295 O303 2.074 . S
Co295 O306 2.093 . S
Co295 O319 2.097 . S
Co295 N336 2.151 . S
Co295 N344 2.214 . S
Co296 O297 2.160 . S
Co296 O302 2.058 . S
Co296 O312 2.057 . S
Co296 O327 2.037 . S
Co296 N331 2.145 . S
Co296 N352 2.257 . S
O297 Co295 2.143 . S
O297 Co296 2.160 . S
C298 O299 1.278 . S
C298 O306 1.224 . S
O299 C298 1.278 . S
C300 O301 1.245 . S
C300 O312 1.232 . S
O301 C300 1.245 . S
O302 Co296 2.058 . S
O302 C328 1.269 . S
O303 Co295 2.074 . S
O303 C328 1.257 . S
H304 C329 0.930 . S
H305 C335 0.930 . S
O306 Co295 2.093 . S
O306 C298 1.224 . S
H307 C339 0.929 . S
H308 C341 0.930 . S
H309 C342 0.930 . S
H310 C340 0.929 . S
H311 C343 0.928 . S
O312 Co296 2.057 . S
O312 C300 1.232 . S
H313 C332 0.929 . S
H314 C333 0.929 . S
H315 C345 0.931 . S
H316 C337 0.929 . S
H317 C346 0.930 . S
H318 C338 0.931 . S
O319 Co295 2.097 . S
O319 C347 1.214 . S
H320 C348 0.929 . S
H321 C349 0.929 . S
H322 C350 0.930 . S
H323 C351 0.929 . S
H324 C353 0.930 . S
H325 C330 0.930 . S
H326 C334 0.930 . S
O327 Co296 2.037 . S
O327 C347 1.234 . S
C328 O302 1.269 . S
C328 O303 1.257 . S
C329 H304 0.930 . S
C329 C332 1.388 . S
C329 C334 1.418 . S
C330 H325 0.930 . S
C330 C333 1.404 . S
C330 C334 1.353 . S
N331 Co296 2.145 . S
N331 C332 1.397 . S
N331 C333 1.334 . S
C332 H313 0.929 . S
C332 C329 1.388 . S
C332 N331 1.397 . S
C333 H314 0.929 . S
C333 C330 1.404 . S
C333 N331 1.334 . S
C334 H326 0.930 . S
C334 C329 1.418 . S
C334 C330 1.353 . S
C335 H305 0.930 . S
C335 N336 1.330 . S
C335 C337 1.446 1_556 S
N336 Co295 2.151 . S
N336 C335 1.330 . S
N336 C340 1.418 1_556 S
C337 H316 0.929 . S
C337 C335 1.446 1_554 S
C337 C338 1.332 . S
C338 H318 0.931 . S
C338 C337 1.332 . S
C338 C339 1.267 . S
C339 H307 0.929 . S
C339 C338 1.267 . S
C339 C340 1.251 . S
C340 H310 0.929 . S
C340 N336 1.418 1_554 S
C340 C339 1.251 . S
C341 H308 0.930 . S
C341 C343 1.406 . S
C341 C346 1.261 . S
C342 H309 0.930 . S
C342 N344 1.325 . S
C342 C345 1.357 . S
C343 H311 0.928 . S
C343 C341 1.406 . S
C343 N344 1.261 . S
N344 Co295 2.214 . S
N344 C342 1.325 . S
N344 C343 1.261 . S
C345 H315 0.931 . S
C345 C342 1.357 . S
C345 C346 1.312 . S
C346 H317 0.930 . S
C346 C341 1.261 . S
C346 C345 1.312 . S
C347 O319 1.214 . S
C347 O327 1.234 . S
C348 H320 0.929 . S
C348 C351 1.391 . S
C348 C353 1.391 . S
C349 H321 0.929 . S
C349 C350 1.390 . S
C349 N352 1.391 . S
C350 H322 0.930 . S
C350 C349 1.390 . S
C350 C351 1.392 . S
C351 H323 0.929 . S
C351 C348 1.391 . S
C351 C350 1.392 . S
N352 Co296 2.257 . S
N352 C349 1.391 . S
N352 C353 1.388 . S
C353 H324 0.930 . S
C353 C348 1.391 . S
C353 N352 1.388 . S
Co354 O356 2.143 . S
Co354 O362 2.074 . S
Co354 O365 2.093 . S
Co354 O378 2.097 . S
Co354 N395 2.151 . S
Co354 N403 2.214 . S
Co355 O356 2.160 . S
Co355 O361 2.058 . S
Co355 O371 2.057 . S
Co355 O386 2.037 . S
Co355 N390 2.145 . S
Co355 N411 2.257 . S
O356 Co354 2.143 . S
O356 Co355 2.160 . S
C357 O358 1.278 . S
C357 O365 1.224 . S
O358 C357 1.278 . S
C359 O360 1.245 . S
C359 O371 1.232 . S
O360 C359 1.245 . S
O361 Co355 2.058 . S
O361 C387 1.269 . S
O362 Co354 2.074 . S
O362 C387 1.257 . S
H363 C388 0.930 . S
H364 C394 0.930 1_556 S
O365 Co354 2.093 . S
O365 C357 1.224 . S
H366 C398 0.929 . S
H367 C400 0.930 . S
H368 C401 0.930 . S
H369 C399 0.929 . S
H370 C402 0.928 . S
O371 Co355 2.057 . S
O371 C359 1.232 . S
H372 C391 0.929 . S
H373 C392 0.929 . S
H374 C404 0.931 . S
H375 C396 0.929 . S
H376 C405 0.930 . S
H377 C397 0.931 . S
O378 Co354 2.097 . S
O378 C406 1.214 . S
H379 C407 0.929 . S
H380 C408 0.929 . S
H381 C409 0.930 . S
H382 C410 0.929 . S
H383 C412 0.930 . S
H384 C389 0.930 . S
H385 C393 0.930 . S
O386 Co355 2.037 . S
O386 C406 1.234 . S
C387 O361 1.269 . S
C387 O362 1.257 . S
C388 H363 0.930 . S
C388 C391 1.388 . S
C388 C393 1.418 . S
C389 H384 0.930 . S
C389 C392 1.404 . S
C389 C393 1.353 . S
N390 Co355 2.145 . S
N390 C391 1.397 . S
N390 C392 1.334 . S
C391 H372 0.929 . S
C391 C388 1.388 . S
C391 N390 1.397 . S
C392 H373 0.929 . S
C392 C389 1.404 . S
C392 N390 1.334 . S
C393 H385 0.930 . S
C393 C388 1.418 . S
C393 C389 1.353 . S
C394 H364 0.930 1_554 S
C394 N395 1.330 1_554 S
C394 C396 1.446 . S
N395 Co354 2.151 . S
N395 C394 1.330 1_556 S
N395 C399 1.418 1_556 S
C396 H375 0.929 . S
C396 C394 1.446 . S
C396 C397 1.332 . S
C397 H377 0.931 . S
C397 C396 1.332 . S
C397 C398 1.267 . S
C398 H366 0.929 . S
C398 C397 1.267 . S
C398 C399 1.251 . S
C399 H369 0.929 . S
C399 N395 1.418 1_554 S
C399 C398 1.251 . S
C400 H367 0.930 . S
C400 C402 1.406 . S
C400 C405 1.261 . S
C401 H368 0.930 . S
C401 N403 1.325 . S
C401 C404 1.357 . S
C402 H370 0.928 . S
C402 C400 1.406 . S
C402 N403 1.261 . S
N403 Co354 2.214 . S
N403 C401 1.325 . S
N403 C402 1.261 . S
C404 H374 0.931 . S
C404 C401 1.357 . S
C404 C405 1.312 . S
C405 H376 0.930 . S
C405 C400 1.261 . S
C405 C404 1.312 . S
C406 O378 1.214 . S
C406 O386 1.234 . S
C407 H379 0.929 . S
C407 C410 1.391 . S
C407 C412 1.391 . S
C408 H380 0.929 . S
C408 C409 1.390 . S
C408 N411 1.391 . S
C409 H381 0.930 . S
C409 C408 1.390 . S
C409 C410 1.392 . S
C410 H382 0.929 . S
C410 C407 1.391 . S
C410 C409 1.392 . S
N411 Co355 2.257 . S
N411 C408 1.391 . S
N411 C412 1.388 . S
C412 H383 0.930 . S
C412 C407 1.391 . S
C412 N411 1.388 . S
Co413 O415 2.143 . S
Co413 O421 2.074 . S
Co413 O424 2.093 1_554 S
Co413 O437 2.097 1_554 S
Co413 N454 2.151 . S
Co413 N462 2.214 . S
Co414 O415 2.160 . S
Co414 O420 2.058 . S
Co414 O430 2.057 . S
Co414 O445 2.037 1_554 S
Co414 N449 2.145 . S
Co414 N470 2.257 1_554 S
O415 Co413 2.143 . S
O415 Co414 2.160 . S
C416 O417 1.278 . S
C416 O424 1.224 . S
O417 C416 1.278 . S
C418 O419 1.245 . S
C418 O430 1.232 . S
O419 C418 1.245 . S
O420 Co414 2.058 . S
O420 C446 1.269 . S
O421 Co413 2.074 . S
O421 C446 1.257 . S
H422 C447 0.930 . S
H423 C453 0.930 . S
O424 Co413 2.093 1_556 S
O424 C416 1.224 . S
H425 C457 0.929 . S
H426 C459 0.930 . S
H427 C460 0.930 . S
H428 C458 0.929 . S
H429 C461 0.928 . S
O430 Co414 2.057 . S
O430 C418 1.232 . S
H431 C450 0.929 . S
H432 C451 0.929 . S
H433 C463 0.931 . S
H434 C455 0.929 . S
H435 C464 0.930 . S
H436 C456 0.931 . S
O437 Co413 2.097 1_556 S
O437 C465 1.214 . S
H438 C466 0.929 . S
H439 C467 0.929 . S
H440 C468 0.930 . S
H441 C469 0.929 . S
H442 C471 0.930 . S
H443 C448 0.930 . S
H444 C452 0.930 . S
O445 Co414 2.037 1_556 S
O445 C465 1.234 . S
C446 O420 1.269 . S
C446 O421 1.257 . S
C447 H422 0.930 . S
C447 C450 1.388 . S
C447 C452 1.418 . S
C448 H443 0.930 . S
C448 C451 1.404 . S
C448 C452 1.353 1_554 S
N449 Co414 2.145 . S
N449 C450 1.397 1_554 S
N449 C451 1.334 . S
C450 H431 0.929 . S
C450 C447 1.388 . S
C450 N449 1.397 1_556 S
C451 H432 0.929 . S
C451 C448 1.404 . S
C451 N449 1.334 . S
C452 H444 0.930 . S
C452 C447 1.418 . S
C452 C448 1.353 1_556 S
C453 H423 0.930 . S
C453 N454 1.330 . S
C453 C455 1.446 . S
N454 Co413 2.151 . S
N454 C453 1.330 . S
N454 C458 1.418 . S
C455 H434 0.929 . S
C455 C453 1.446 . S
C455 C456 1.332 . S
C456 H436 0.931 . S
C456 C455 1.332 . S
C456 C457 1.267 . S
C457 H425 0.929 . S
C457 C456 1.267 . S
C457 C458 1.251 . S
C458 H428 0.929 . S
C458 N454 1.418 . S
C458 C457 1.251 . S
C459 H426 0.930 . S
C459 C461 1.406 . S
C459 C464 1.261 . S
C460 H427 0.930 . S
C460 N462 1.325 . S
C460 C463 1.357 . S
C461 H429 0.928 . S
C461 C459 1.406 . S
C461 N462 1.261 . S
N462 Co413 2.214 . S
N462 C460 1.325 . S
N462 C461 1.261 . S
C463 H433 0.931 . S
C463 C460 1.357 . S
C463 C464 1.312 . S
C464 H435 0.930 . S
C464 C459 1.261 . S
C464 C463 1.312 . S
C465 O437 1.214 . S
C465 O445 1.234 . S
C466 H438 0.929 . S
C466 C469 1.391 . S
C466 C471 1.391 . S
C467 H439 0.929 . S
C467 C468 1.390 . S
C467 N470 1.391 . S
C468 H440 0.930 . S
C468 C467 1.390 . S
C468 C469 1.392 . S
C469 H441 0.929 . S
C469 C466 1.391 . S
C469 C468 1.392 . S
N470 Co414 2.257 1_556 S
N470 C467 1.391 . S
N470 C471 1.388 . S
C471 H442 0.930 . S
C471 C466 1.391 . S
C471 N470 1.388 . S
Co472 O474 2.143 . S
Co472 O480 2.074 . S
Co472 O483 2.093 . S
Co472 O496 2.097 . S
Co472 N513 2.151 . S
Co472 N521 2.214 . S
Co473 O474 2.160 . S
Co473 O479 2.058 . S
Co473 O489 2.057 . S
Co473 O504 2.037 . S
Co473 N508 2.145 . S
Co473 N529 2.257 . S
O474 Co472 2.143 . S
O474 Co473 2.160 . S
C475 O476 1.278 . S
C475 O483 1.224 . S
O476 C475 1.278 . S
C477 O478 1.245 . S
C477 O489 1.232 . S
O478 C477 1.245 . S
O479 Co473 2.058 . S
O479 C505 1.269 . S
O480 Co472 2.074 . S
O480 C505 1.257 . S
H481 C506 0.930 . S
H482 C512 0.930 . S
O483 Co472 2.093 . S
O483 C475 1.224 . S
H484 C516 0.929 . S
H485 C518 0.930 . S
H486 C519 0.930 . S
H487 C517 0.929 . S
H488 C520 0.928 . S
O489 Co473 2.057 . S
O489 C477 1.232 . S
H490 C509 0.929 . S
H491 C510 0.929 . S
H492 C522 0.931 . S
H493 C514 0.929 . S
H494 C523 0.930 . S
H495 C515 0.931 . S
O496 Co472 2.097 . S
O496 C524 1.214 . S
H497 C525 0.929 . S
H498 C526 0.929 . S
H499 C527 0.930 . S
H500 C528 0.929 . S
H501 C530 0.930 . S
H502 C507 0.930 . S
H503 C511 0.930 . S
O504 Co473 2.037 . S
O504 C524 1.234 . S
C505 O479 1.269 . S
C505 O480 1.257 . S
C506 H481 0.930 . S
C506 C509 1.388 . S
C506 C511 1.418 . S
C507 H502 0.930 . S
C507 C510 1.404 . S
C507 C511 1.353 . S
N508 Co473 2.145 . S
N508 C509 1.397 . S
N508 C510 1.334 . S
C509 H490 0.929 . S
C509 C506 1.388 . S
C509 N508 1.397 . S
C510 H491 0.929 . S
C510 C507 1.404 . S
C510 N508 1.334 . S
C511 H503 0.930 . S
C511 C506 1.418 . S
C511 C507 1.353 . S
C512 H482 0.930 . S
C512 N513 1.330 . S
C512 C514 1.446 . S
N513 Co472 2.151 . S
N513 C512 1.330 . S
N513 C517 1.418 . S
C514 H493 0.929 . S
C514 C512 1.446 . S
C514 C515 1.332 1_554 S
C515 H495 0.931 . S
C515 C514 1.332 1_556 S
C515 C516 1.267 . S
C516 H484 0.929 . S
C516 C515 1.267 . S
C516 C517 1.251 1_556 S
C517 H487 0.929 . S
C517 N513 1.418 . S
C517 C516 1.251 1_554 S
C518 H485 0.930 . S
C518 C520 1.406 . S
C518 C523 1.261 . S
C519 H486 0.930 . S
C519 N521 1.325 . S
C519 C522 1.357 . S
C520 H488 0.928 . S
C520 C518 1.406 . S
C520 N521 1.261 . S
N521 Co472 2.214 . S
N521 C519 1.325 . S
N521 C520 1.261 . S
C522 H492 0.931 . S
C522 C519 1.357 . S
C522 C523 1.312 . S
C523 H494 0.930 . S
C523 C518 1.261 . S
C523 C522 1.312 . S
C524 O496 1.214 . S
C524 O504 1.234 . S
C525 H497 0.929 . S
C525 C528 1.391 . S
C525 C530 1.391 . S
C526 H498 0.929 . S
C526 C527 1.390 . S
C526 N529 1.391 . S
C527 H499 0.930 . S
C527 C526 1.390 . S
C527 C528 1.392 . S
C528 H500 0.929 . S
C528 C525 1.391 . S
C528 C527 1.392 . S
N529 Co473 2.257 . S
N529 C526 1.391 . S
N529 C530 1.388 . S
C530 H501 0.930 . S
C530 C525 1.391 . S
C530 N529 1.388 . S
Co531 O533 2.143 . S
Co531 O539 2.074 . S
Co531 O542 2.093 . S
Co531 O555 2.097 . S
Co531 N572 2.151 . S
Co531 N580 2.214 . S
Co532 O533 2.160 . S
Co532 O538 2.058 . S
Co532 O548 2.057 . S
Co532 O563 2.037 . S
Co532 N567 2.145 . S
Co532 N588 2.257 . S
O533 Co531 2.143 . S
O533 Co532 2.160 . S
C534 O535 1.278 . S
C534 O542 1.224 . S
O535 C534 1.278 . S
C536 O537 1.245 . S
C536 O548 1.232 . S
O537 C536 1.245 . S
O538 Co532 2.058 . S
O538 C564 1.269 . S
O539 Co531 2.074 . S
O539 C564 1.257 . S
H540 C565 0.930 . S
H541 C571 0.930 . S
O542 Co531 2.093 . S
O542 C534 1.224 . S
H543 C575 0.929 . S
H544 C577 0.930 . S
H545 C578 0.930 . S
H546 C576 0.929 . S
H547 C579 0.928 . S
O548 Co532 2.057 . S
O548 C536 1.232 . S
H549 C568 0.929 . S
H550 C569 0.929 . S
H551 C581 0.931 . S
H552 C573 0.929 . S
H553 C582 0.930 . S
H554 C574 0.931 . S
O555 Co531 2.097 . S
O555 C583 1.214 . S
H556 C584 0.929 . S
H557 C585 0.929 . S
H558 C586 0.930 . S
H559 C587 0.929 . S
H560 C589 0.930 . S
H561 C566 0.930 . S
H562 C570 0.930 . S
O563 Co532 2.037 . S
O563 C583 1.234 . S
C564 O538 1.269 . S
C564 O539 1.257 . S
C565 H540 0.930 . S
C565 C568 1.388 . S
C565 C570 1.418 . S
C566 H561 0.930 . S
C566 C569 1.404 . S
C566 C570 1.353 . S
N567 Co532 2.145 . S
N567 C568 1.397 . S
N567 C569 1.334 . S
C568 H549 0.929 . S
C568 C565 1.388 . S
C568 N567 1.397 . S
C569 H550 0.929 . S
C569 C566 1.404 . S
C569 N567 1.334 . S
C570 H562 0.930 . S
C570 C565 1.418 . S
C570 C566 1.353 . S
C571 H541 0.930 . S
C571 N572 1.330 . S
C571 C573 1.446 . S
N572 Co531 2.151 . S
N572 C571 1.330 . S
N572 C576 1.418 . S
C573 H552 0.929 . S
C573 C571 1.446 . S
C573 C574 1.332 . S
C574 H554 0.931 . S
C574 C573 1.332 . S
C574 C575 1.267 . S
C575 H543 0.929 . S
C575 C574 1.267 . S
C575 C576 1.251 . S
C576 H546 0.929 . S
C576 N572 1.418 . S
C576 C575 1.251 . S
C577 H544 0.930 . S
C577 C579 1.406 . S
C577 C582 1.261 . S
C578 H545 0.930 . S
C578 N580 1.325 . S
C578 C581 1.357 . S
C579 H547 0.928 . S
C579 C577 1.406 . S
C579 N580 1.261 . S
N580 Co531 2.214 . S
N580 C578 1.325 . S
N580 C579 1.261 . S
C581 H551 0.931 . S
C581 C578 1.357 . S
C581 C582 1.312 . S
C582 H553 0.930 . S
C582 C577 1.261 . S
C582 C581 1.312 . S
C583 O555 1.214 . S
C583 O563 1.234 . S
C584 H556 0.929 . S
C584 C587 1.391 . S
C584 C589 1.391 . S
C585 H557 0.929 . S
C585 C586 1.390 . S
C585 N588 1.391 . S
C586 H558 0.930 . S
C586 C585 1.390 . S
C586 C587 1.392 . S
C587 H559 0.929 . S
C587 C584 1.391 . S
C587 C586 1.392 . S
N588 Co532 2.257 . S
N588 C585 1.391 . S
N588 C589 1.388 . S
C589 H560 0.930 . S
C589 C584 1.391 . S
C589 N588 1.388 . S
Co590 O592 2.143 . S
Co590 O598 2.074 . S
Co590 O601 2.093 . S
Co590 O614 2.097 . S
Co590 N631 2.151 . S
Co590 N639 2.214 . S
Co591 O592 2.160 . S
Co591 O597 2.058 . S
Co591 O607 2.057 . S
Co591 O622 2.037 . S
Co591 N626 2.145 . S
Co591 N647 2.257 . S
O592 Co590 2.143 . S
O592 Co591 2.160 . S
C593 O594 1.278 . S
C593 O601 1.224 . S
O594 C593 1.278 . S
C595 O596 1.245 . S
C595 O607 1.232 . S
O596 C595 1.245 . S
O597 Co591 2.058 . S
O597 C623 1.269 . S
O598 Co590 2.074 . S
O598 C623 1.257 . S
H599 C624 0.930 . S
H600 C630 0.930 . S
O601 Co590 2.093 . S
O601 C593 1.224 . S
H602 C634 0.929 . S
H603 C636 0.930 . S
H604 C637 0.930 . S
H605 C635 0.929 . S
H606 C638 0.928 . S
O607 Co591 2.057 . S
O607 C595 1.232 . S
H608 C627 0.929 . S
H609 C628 0.929 . S
H610 C640 0.931 . S
H611 C632 0.929 . S
H612 C641 0.930 . S
H613 C633 0.931 . S
O614 Co590 2.097 . S
O614 C642 1.214 . S
H615 C643 0.929 . S
H616 C644 0.929 . S
H617 C645 0.930 . S
H618 C646 0.929 . S
H619 C648 0.930 . S
H620 C625 0.930 . S
H621 C629 0.930 . S
O622 Co591 2.037 . S
O622 C642 1.234 . S
C623 O597 1.269 . S
C623 O598 1.257 . S
C624 H599 0.930 . S
C624 C627 1.388 . S
C624 C629 1.418 . S
C625 H620 0.930 . S
C625 C628 1.404 . S
C625 C629 1.353 . S
N626 Co591 2.145 . S
N626 C627 1.397 . S
N626 C628 1.334 . S
C627 H608 0.929 . S
C627 C624 1.388 . S
C627 N626 1.397 . S
C628 H609 0.929 . S
C628 C625 1.404 . S
C628 N626 1.334 . S
C629 H621 0.930 . S
C629 C624 1.418 . S
C629 C625 1.353 . S
C630 H600 0.930 . S
C630 N631 1.330 . S
C630 C632 1.446 . S
N631 Co590 2.151 . S
N631 C630 1.330 . S
N631 C635 1.418 . S
C632 H611 0.929 . S
C632 C630 1.446 . S
C632 C633 1.332 . S
C633 H613 0.931 . S
C633 C632 1.332 . S
C633 C634 1.267 . S
C634 H602 0.929 . S
C634 C633 1.267 . S
C634 C635 1.251 . S
C635 H605 0.929 . S
C635 N631 1.418 . S
C635 C634 1.251 . S
C636 H603 0.930 . S
C636 C638 1.406 . S
C636 C641 1.261 . S
C637 H604 0.930 . S
C637 N639 1.325 . S
C637 C640 1.357 . S
C638 H606 0.928 . S
C638 C636 1.406 . S
C638 N639 1.261 . S
N639 Co590 2.214 . S
N639 C637 1.325 . S
N639 C638 1.261 . S
C640 H610 0.931 . S
C640 C637 1.357 . S
C640 C641 1.312 . S
C641 H612 0.930 . S
C641 C636 1.261 . S
C641 C640 1.312 . S
C642 O614 1.214 . S
C642 O622 1.234 . S
C643 H615 0.929 . S
C643 C646 1.391 . S
C643 C648 1.391 . S
C644 H616 0.929 . S
C644 C645 1.390 . S
C644 N647 1.391 . S
C645 H617 0.930 . S
C645 C644 1.390 . S
C645 C646 1.392 . S
C646 H618 0.929 . S
C646 C643 1.391 . S
C646 C645 1.392 . S
N647 Co591 2.257 . S
N647 C644 1.391 . S
N647 C648 1.388 . S
C648 H619 0.930 . S
C648 C643 1.391 . S
C648 N647 1.388 . S
Co649 O651 2.143 . S
Co649 O657 2.074 . S
Co649 O660 2.093 . S
Co649 O673 2.097 . S
Co649 N690 2.151 . S
Co649 N698 2.214 . S
Co650 O651 2.160 . S
Co650 O656 2.058 . S
Co650 O666 2.057 . S
Co650 O681 2.037 . S
Co650 N685 2.145 . S
Co650 N706 2.257 . S
O651 Co649 2.143 . S
O651 Co650 2.160 . S
C652 O653 1.278 . S
C652 O660 1.224 . S
O653 C652 1.278 . S
C654 O655 1.245 . S
C654 O666 1.232 . S
O655 C654 1.245 . S
O656 Co650 2.058 . S
O656 C682 1.269 . S
O657 Co649 2.074 . S
O657 C682 1.257 . S
H658 C683 0.930 . S
H659 C689 0.930 . S
O660 Co649 2.093 . S
O660 C652 1.224 . S
H661 C693 0.929 . S
H662 C695 0.930 . S
H663 C696 0.930 . S
H664 C694 0.929 . S
H665 C697 0.928 . S
O666 Co650 2.057 . S
O666 C654 1.232 . S
H667 C686 0.929 . S
H668 C687 0.929 . S
H669 C699 0.931 . S
H670 C691 0.929 . S
H671 C700 0.930 . S
H672 C692 0.931 . S
O673 Co649 2.097 . S
O673 C701 1.214 . S
H674 C702 0.929 . S
H675 C703 0.929 . S
H676 C704 0.930 1_554 S
H677 C705 0.929 1_554 S
H678 C707 0.930 . S
H679 C684 0.930 . S
H680 C688 0.930 . S
O681 Co650 2.037 . S
O681 C701 1.234 . S
C682 O656 1.269 . S
C682 O657 1.257 . S
C683 H658 0.930 . S
C683 C686 1.388 . S
C683 C688 1.418 . S
C684 H679 0.930 . S
C684 C687 1.404 . S
C684 C688 1.353 . S
N685 Co650 2.145 . S
N685 C686 1.397 . S
N685 C687 1.334 . S
C686 H667 0.929 . S
C686 C683 1.388 . S
C686 N685 1.397 . S
C687 H668 0.929 . S
C687 C684 1.404 . S
C687 N685 1.334 . S
C688 H680 0.930 . S
C688 C683 1.418 . S
C688 C684 1.353 . S
C689 H659 0.930 . S
C689 N690 1.330 . S
C689 C691 1.446 . S
N690 Co649 2.151 . S
N690 C689 1.330 . S
N690 C694 1.418 . S
C691 H670 0.929 . S
C691 C689 1.446 . S
C691 C692 1.332 . S
C692 H672 0.931 . S
C692 C691 1.332 . S
C692 C693 1.267 . S
C693 H661 0.929 . S
C693 C692 1.267 . S
C693 C694 1.251 . S
C694 H664 0.929 . S
C694 N690 1.418 . S
C694 C693 1.251 . S
C695 H662 0.930 . S
C695 C697 1.406 . S
C695 C700 1.261 . S
C696 H663 0.930 . S
C696 N698 1.325 . S
C696 C699 1.357 . S
C697 H665 0.928 . S
C697 C695 1.406 . S
C697 N698 1.261 . S
N698 Co649 2.214 . S
N698 C696 1.325 . S
N698 C697 1.261 . S
C699 H669 0.931 . S
C699 C696 1.357 . S
C699 C700 1.312 . S
C700 H671 0.930 . S
C700 C695 1.261 . S
C700 C699 1.312 . S
C701 O673 1.214 . S
C701 O681 1.234 . S
C702 H674 0.929 . S
C702 C705 1.391 . S
C702 C707 1.391 . S
C703 H675 0.929 . S
C703 C704 1.390 . S
C703 N706 1.391 . S
C704 H676 0.930 1_556 S
C704 C703 1.390 . S
C704 C705 1.392 . S
C705 H677 0.929 1_556 S
C705 C702 1.391 . S
C705 C704 1.392 . S
N706 Co650 2.257 . S
N706 C703 1.391 . S
N706 C707 1.388 . S
C707 H678 0.930 . S
C707 C702 1.391 . S
C707 N706 1.388 . S
C708 C709 1.369 . S
C708 C710 1.419 . S
C708 H712 0.930 . S
C709 C708 1.369 . S
C709 C718 1.429 . S
C710 C708 1.419 . S
C710 C711 1.363 . S
C710 H713 0.929 . S
C711 C710 1.363 . S
C711 C717 1.428 . S
H712 C708 0.930 . S
H713 C710 0.929 . S
S714 N715 1.613 . S
S714 N716 1.610 . S
N715 S714 1.613 . S
N715 C718 1.350 . S
N716 S714 1.610 . S
N716 C717 1.351 . S
C717 C711 1.428 . S
C717 N716 1.351 . S
C717 C718 1.434 . S
C718 C709 1.429 . S
C718 N715 1.350 . S
C718 C717 1.434 . S
C719 C720 1.369 . S
C719 C721 1.419 . S
C719 H723 0.930 . S
C720 C719 1.369 . S
C720 C729 1.429 . S
C721 C719 1.419 . S
C721 C722 1.363 . S
C721 H724 0.929 . S
C722 C721 1.363 . S
C722 C728 1.428 . S
H723 C719 0.930 . S
H724 C721 0.929 . S
S725 N726 1.613 . S
S725 N727 1.610 . S
N726 S725 1.613 . S
N726 C729 1.350 . S
N727 S725 1.610 . S
N727 C728 1.351 . S
C728 C722 1.428 . S
C728 N727 1.351 . S
C728 C729 1.434 . S
C729 C720 1.429 . S
C729 N726 1.350 . S
C729 C728 1.434 . S
C730 C731 1.369 . S
C730 C732 1.419 . S
C730 H734 0.930 . S
C731 C730 1.369 . S
C731 C740 1.429 . S
C732 C730 1.419 . S
C732 C733 1.363 . S
C732 H735 0.929 . S
C733 C732 1.363 . S
C733 C739 1.428 . S
H734 C730 0.930 . S
H735 C732 0.929 . S
S736 N737 1.613 . S
S736 N738 1.610 . S
N737 S736 1.613 . S
N737 C740 1.350 . S
N738 S736 1.610 . S
N738 C739 1.351 . S
C739 C733 1.428 . S
C739 N738 1.351 . S
C739 C740 1.434 . S
C740 C731 1.429 . S
C740 N737 1.350 . S
C740 C739 1.434 . S
C741 C742 1.369 . S
C741 C743 1.419 . S
C741 H745 0.930 . S
C742 C741 1.369 . S
C742 C751 1.429 . S
C743 C741 1.419 . S
C743 C744 1.363 . S
C743 H746 0.929 . S
C744 C743 1.363 . S
C744 C750 1.428 . S
H745 C741 0.930 . S
H746 C743 0.929 . S
S747 N748 1.613 . S
S747 N749 1.610 . S
N748 S747 1.613 . S
N748 C751 1.350 . S
N749 S747 1.610 . S
N749 C750 1.351 . S
C750 C744 1.428 . S
C750 N749 1.351 . S
C750 C751 1.434 . S
C751 C742 1.429 . S
C751 N748 1.350 . S
C751 C750 1.434 . S
C752 C753 1.369 . S
C752 C754 1.419 . S
C752 H756 0.930 . S
C753 C752 1.369 . S
C753 C762 1.429 . S
C754 C752 1.419 . S
C754 C755 1.363 1_556 S
C754 H757 0.929 1_556 S
C755 C754 1.363 1_554 S
C755 C761 1.428 1_554 S
H756 C752 0.930 . S
H757 C754 0.929 1_554 S
S758 N759 1.613 . S
S758 N760 1.610 1_556 S
N759 S758 1.613 . S
N759 C762 1.350 . S
N760 S758 1.610 1_554 S
N760 C761 1.351 1_554 S
C761 C755 1.428 1_556 S
C761 N760 1.351 1_556 S
C761 C762 1.434 . S
C762 C753 1.429 . S
C762 N759 1.350 . S
C762 C761 1.434 . S
C763 C764 1.369 . S
C763 C765 1.419 . S
C763 H767 0.930 . S
C764 C763 1.369 . S
C764 C773 1.429 . S
C765 C763 1.419 . S
C765 C766 1.363 . S
C765 H768 0.929 . S
C766 C765 1.363 . S
C766 C772 1.428 . S
H767 C763 0.930 . S
H768 C765 0.929 . S
S769 N770 1.613 . S
S769 N771 1.610 . S
N770 S769 1.613 . S
N770 C773 1.350 . S
N771 S769 1.610 . S
N771 C772 1.351 . S
C772 C766 1.428 . S
C772 N771 1.351 . S
C772 C773 1.434 . S
C773 C764 1.429 . S
C773 N770 1.350 . S
C773 C772 1.434 . S
C774 C775 1.369 . S
C774 C776 1.419 . S
C774 H778 0.930 . S
C775 C774 1.369 . S
C775 C784 1.429 . S
C776 C774 1.419 . S
C776 C777 1.363 . S
C776 H779 0.929 . S
C777 C776 1.363 . S
C777 C783 1.428 . S
H778 C774 0.930 . S
H779 C776 0.929 . S
S780 N781 1.613 . S
S780 N782 1.610 . S
N781 S780 1.613 . S
N781 C784 1.350 . S
N782 S780 1.610 . S
N782 C783 1.351 . S
C783 C777 1.428 . S
C783 N782 1.351 . S
C783 C784 1.434 . S
C784 C775 1.429 . S
C784 N781 1.350 . S
C784 C783 1.434 . S
C785 C786 1.369 . S
C785 C787 1.419 . S
C785 H789 0.930 . S
C786 C785 1.369 . S
C786 C795 1.429 . S
C787 C785 1.419 . S
C787 C788 1.363 . S
C787 H790 0.929 . S
C788 C787 1.363 . S
C788 C794 1.428 . S
H789 C785 0.930 . S
H790 C787 0.929 . S
S791 N792 1.613 . S
S791 N793 1.610 . S
N792 S791 1.613 . S
N792 C795 1.350 . S
N793 S791 1.610 . S
N793 C794 1.351 . S
C794 C788 1.428 . S
C794 N793 1.351 . S
C794 C795 1.434 . S
C795 C786 1.429 . S
C795 N792 1.350 . S
C795 C794 1.434 . S
C796 C797 1.369 . S
C796 C798 1.419 . S
C796 H800 0.930 . S
C797 C796 1.369 . S
C797 C806 1.429 . S
C798 C796 1.419 . S
C798 C799 1.363 . S
C798 H801 0.929 . S
C799 C798 1.363 . S
C799 C805 1.428 . S
H800 C796 0.930 . S
H801 C798 0.929 . S
S802 N803 1.613 . S
S802 N804 1.610 . S
N803 S802 1.613 . S
N803 C806 1.350 . S
N804 S802 1.610 . S
N804 C805 1.351 . S
C805 C799 1.428 . S
C805 N804 1.351 . S
C805 C806 1.434 . S
C806 C797 1.429 . S
C806 N803 1.350 . S
C806 C805 1.434 . S
C807 C808 1.369 . S
C807 C809 1.419 . S
C807 H811 0.930 . S
C808 C807 1.369 . S
C808 C817 1.429 . S
C809 C807 1.419 . S
C809 C810 1.363 . S
C809 H812 0.929 . S
C810 C809 1.363 . S
C810 C816 1.428 . S
H811 C807 0.930 . S
H812 C809 0.929 . S
S813 N814 1.613 . S
S813 N815 1.610 . S
N814 S813 1.613 . S
N814 C817 1.350 . S
N815 S813 1.610 . S
N815 C816 1.351 . S
C816 C810 1.428 . S
C816 N815 1.351 . S
C816 C817 1.434 . S
C817 C808 1.429 . S
C817 N814 1.350 . S
C817 C816 1.434 . S
C818 C819 1.369 . S
C818 C820 1.419 . S
C818 H822 0.930 . S
C819 C818 1.369 . S
C819 C828 1.429 . S
C820 C818 1.419 . S
C820 C821 1.363 . S
C820 H823 0.929 . S
C821 C820 1.363 . S
C821 C827 1.428 . S
H822 C818 0.930 . S
H823 C820 0.929 . S
S824 N825 1.613 . S
S824 N826 1.610 . S
N825 S824 1.613 . S
N825 C828 1.350 . S
N826 S824 1.610 . S
N826 C827 1.351 . S
C827 C821 1.428 . S
C827 N826 1.351 . S
C827 C828 1.434 . S
C828 C819 1.429 . S
C828 N825 1.350 . S
C828 C827 1.434 . S
C829 C830 1.369 . S
C829 C831 1.419 . S
C829 H833 0.930 . S
C830 C829 1.369 . S
C830 C839 1.429 1_556 S
C831 C829 1.419 . S
C831 C832 1.363 . S
C831 H834 0.929 . S
C832 C831 1.363 . S
C832 C838 1.428 1_556 S
H833 C829 0.930 . S
H834 C831 0.929 . S
S835 N836 1.613 . S
S835 N837 1.610 . S
N836 S835 1.613 . S
N836 C839 1.350 . S
N837 S835 1.610 . S
N837 C838 1.351 . S
C838 C832 1.428 1_554 S
C838 N837 1.351 . S
C838 C839 1.434 . S
C839 C830 1.429 1_554 S
C839 N836 1.350 . S
C839 C838 1.434 . S
C840 C841 1.369 . S
C840 C842 1.419 . S
C840 H844 0.930 . S
C841 C840 1.369 . S
C841 C850 1.429 . S
C842 C840 1.419 . S
C842 C843 1.363 . S
C842 H845 0.929 . S
C843 C842 1.363 . S
C843 C849 1.428 . S
H844 C840 0.930 . S
H845 C842 0.929 . S
S846 N847 1.613 . S
S846 N848 1.610 . S
N847 S846 1.613 . S
N847 C850 1.350 . S
N848 S846 1.610 . S
N848 C849 1.351 . S
C849 C843 1.428 . S
C849 N848 1.351 . S
C849 C850 1.434 . S
C850 C841 1.429 . S
C850 N847 1.350 . S
C850 C849 1.434 . S
C851 C852 1.369 1_556 S
C851 C853 1.419 . S
C851 H855 0.930 . S
C852 C851 1.369 1_554 S
C852 C861 1.429 . S
C853 C851 1.419 . S
C853 C854 1.363 . S
C853 H856 0.929 . S
C854 C853 1.363 . S
C854 C860 1.428 . S
H855 C851 0.930 . S
H856 C853 0.929 . S
S857 N858 1.613 1_556 S
S857 N859 1.610 . S
N858 S857 1.613 1_554 S
N858 C861 1.350 . S
N859 S857 1.610 . S
N859 C860 1.351 . S
C860 C854 1.428 . S
C860 N859 1.351 . S
C860 C861 1.434 1_556 S
C861 C852 1.429 . S
C861 N858 1.350 . S
C861 C860 1.434 1_554 S
C862 C863 1.369 . S
C862 C864 1.419 . S
C862 H866 0.930 . S
C863 C862 1.369 . S
C863 C872 1.429 . S
C864 C862 1.419 . S
C864 C865 1.363 . S
C864 H867 0.929 . S
C865 C864 1.363 . S
C865 C871 1.428 . S
H866 C862 0.930 . S
H867 C864 0.929 . S
S868 N869 1.613 . S
S868 N870 1.610 . S
N869 S868 1.613 . S
N869 C872 1.350 . S
N870 S868 1.610 . S
N870 C871 1.351 . S
C871 C865 1.428 . S
C871 N870 1.351 . S
C871 C872 1.434 . S
C872 C863 1.429 . S
C872 N869 1.350 . S
C872 C871 1.434 . S
C873 C874 1.369 . S
C873 C875 1.419 . S
C873 H877 0.930 . S
C874 C873 1.369 . S
C874 C883 1.429 . S
C875 C873 1.419 . S
C875 C876 1.363 . S
C875 H878 0.929 . S
C876 C875 1.363 . S
C876 C882 1.428 . S
H877 C873 0.930 . S
H878 C875 0.929 . S
S879 N880 1.613 . S
S879 N881 1.610 . S
N880 S879 1.613 . S
N880 C883 1.350 . S
N881 S879 1.610 . S
N881 C882 1.351 . S
C882 C876 1.428 . S
C882 N881 1.351 . S
C882 C883 1.434 . S
C883 C874 1.429 . S
C883 N880 1.350 . S
C883 C882 1.434 . S
C884 C885 1.369 . S
C884 C886 1.419 . S
C884 H888 0.930 . S
C885 C884 1.369 . S
C885 C894 1.429 . S
C886 C884 1.419 . S
C886 C887 1.363 . S
C886 H889 0.929 . S
C887 C886 1.363 . S
C887 C893 1.428 . S
H888 C884 0.930 . S
H889 C886 0.929 . S
S890 N891 1.613 . S
S890 N892 1.610 . S
N891 S890 1.613 . S
N891 C894 1.350 . S
N892 S890 1.610 . S
N892 C893 1.351 . S
C893 C887 1.428 . S
C893 N892 1.351 . S
C893 C894 1.434 . S
C894 C885 1.429 . S
C894 N891 1.350 . S
C894 C893 1.434 . S
C895 C896 1.369 . S
C895 C897 1.419 . S
C895 H899 0.930 . S
C896 C895 1.369 . S
C896 C905 1.429 . S
C897 C895 1.419 . S
C897 C898 1.363 . S
C897 H900 0.929 . S
C898 C897 1.363 . S
C898 C904 1.428 . S
H899 C895 0.930 . S
H900 C897 0.929 . S
S901 N902 1.613 . S
S901 N903 1.610 . S
N902 S901 1.613 . S
N902 C905 1.350 . S
N903 S901 1.610 . S
N903 C904 1.351 . S
C904 C898 1.428 . S
C904 N903 1.351 . S
C904 C905 1.434 . S
C905 C896 1.429 . S
C905 N902 1.350 . S
C905 C904 1.434 . S
C906 C907 1.369 . S
C906 C908 1.419 1_455 S
C906 H910 0.930 . S
C907 C906 1.369 . S
C907 C916 1.429 . S
C908 C906 1.419 1_655 S
C908 C909 1.363 . S
C908 H911 0.929 . S
C909 C908 1.363 . S
C909 C915 1.428 . S
H910 C906 0.930 . S
H911 C908 0.929 . S
S912 N913 1.613 . S
S912 N914 1.610 1_455 S
N913 S912 1.613 . S
N913 C916 1.350 . S
N914 S912 1.610 1_655 S
N914 C915 1.351 . S
C915 C909 1.428 . S
C915 N914 1.351 . S
C915 C916 1.434 1_655 S
C916 C907 1.429 . S
C916 N913 1.350 . S
C916 C915 1.434 1_455 S
C917 C918 1.368 1_556 S
C917 C919 1.414 1_566 S
C917 H921 0.936 . S
C918 C917 1.368 1_554 S
C918 C927 1.429 . S
C919 C917 1.414 1_544 S
C919 C920 1.363 . S
C919 H922 0.929 . S
C920 C919 1.363 . S
C920 C926 1.428 . S
H921 C917 0.936 . S
H922 C919 0.929 . S
S923 N924 1.613 . S
S923 N925 1.610 1_565 S
N924 S923 1.613 . S
N924 C927 1.350 . S
N925 S923 1.610 1_545 S
N925 C926 1.351 . S
C926 C920 1.428 . S
C926 N925 1.351 . S
C926 C927 1.434 1_545 S
C927 C918 1.429 . S
C927 N924 1.350 . S
C927 C926 1.434 1_565 S
C928 C929 1.369 . S
C928 C930 1.419 . S
C928 H932 0.930 . S
C929 C928 1.369 . S
C929 C938 1.429 . S
C930 C928 1.419 . S
C930 C931 1.363 . S
C930 H933 0.929 . S
C931 C930 1.363 . S
C931 C937 1.428 . S
H932 C928 0.930 . S
H933 C930 0.929 . S
S934 N935 1.613 . S
S934 N936 1.610 . S
N935 S934 1.613 . S
N935 C938 1.350 . S
N936 S934 1.610 . S
N936 C937 1.351 . S
C937 C931 1.428 . S
C937 N936 1.351 . S
C937 C938 1.434 . S
C938 C929 1.429 . S
C938 N935 1.350 . S
C938 C937 1.434 . S
C939 C940 1.369 . S
C939 C941 1.419 1_455 S
C939 H943 0.930 . S
C940 C939 1.369 . S
C940 C949 1.429 . S
C941 C939 1.419 1_655 S
C941 C942 1.363 . S
C941 H944 0.929 . S
C942 C941 1.363 . S
C942 C948 1.428 . S
H943 C939 0.930 . S
H944 C941 0.929 . S
S945 N946 1.613 . S
S945 N947 1.610 1_455 S
N946 S945 1.613 . S
N946 C949 1.350 . S
N947 S945 1.610 1_655 S
N947 C948 1.351 . S
C948 C942 1.428 . S
C948 N947 1.351 . S
C948 C949 1.434 1_655 S
C949 C940 1.429 . S
C949 N946 1.350 . S
C949 C948 1.434 1_455 S
C950 C951 1.369 . S
C950 C952 1.419 1_545 S
C950 H954 0.930 . S
C951 C950 1.369 . S
C951 C960 1.429 . S
C952 C950 1.419 1_565 S
C952 C953 1.363 . S
C952 H955 0.929 . S
C953 C952 1.363 . S
C953 C959 1.428 . S
H954 C950 0.930 . S
H955 C952 0.929 . S
S956 N957 1.613 . S
S956 N958 1.590 1_545 S
N957 S956 1.613 . S
N957 C960 1.350 . S
N958 S956 1.590 1_565 S
N958 C959 1.351 . S
C959 C953 1.428 . S
C959 N958 1.351 . S
C959 C960 1.434 1_565 S
C960 C951 1.429 . S
C960 N957 1.350 . S
C960 C959 1.434 1_545 S
C961 C962 1.369 . S
C961 C963 1.419 . S
C961 H965 0.930 . S
C962 C961 1.369 . S
C962 C971 1.429 . S
C963 C961 1.419 . S
C963 C964 1.363 . S
C963 H966 0.929 . S
C964 C963 1.363 . S
C964 C970 1.428 . S
H965 C961 0.930 . S
H966 C963 0.929 . S
S967 N968 1.613 . S
S967 N969 1.610 . S
N968 S967 1.613 . S
N968 C971 1.350 . S
N969 S967 1.610 . S
N969 C970 1.351 . S
C970 C964 1.428 . S
C970 N969 1.351 . S
C970 C971 1.434 . S
C971 C962 1.429 . S
C971 N968 1.350 . S
C971 C970 1.434 . S
C709 C52 1.650 . S
C711 C642 1.650 . S
C720 C682 1.650 . S
C722 C111 1.650 . S
C731 C151 1.651 . S
C733 C406 1.651 . S
C742 C229 1.651 . S
C744 C465 1.650 . S
C753 C288 1.650 . S
C755 C505 1.651 . S
C764 C583 1.650 . S
C766 C328 1.652 1_554 S
C775 C3 1.714 . S
C777 C477 1.710 . S
C786 C62 1.715 . S
C788 C534 1.713 . S
C797 C593 1.713 . S
C799 C123 1.711 . S
C808 C180 1.716 . S
C810 C654 1.711 . S
C819 C239 1.714 . S
C821 C357 1.713 . S
C830 C300 1.714 . S
C832 C416 1.714 . S
C841 C623 1.661 . S
C843 C33 1.659 . S
C852 C92 1.657 . S
C854 C701 1.648 . S
C863 C170 1.651 . S
C865 C387 1.658 1_554 S
C874 C210 1.658 . S
C876 C446 1.658 . S
C885 C524 1.651 . S
C887 C269 1.659 . S
C896 C347 1.648 . S
C898 C564 1.658 . S
C907 C5 1.365 . S
C909 C652 1.364 . S
C918 C359 1.366 1_554 S
C920 C64 1.367 . S
C929 C418 1.365 . S
C931 C121 1.363 . S
C940 C475 1.361 . S
C942 C182 1.366 . S
C951 C536 1.365 . S
C953 C241 1.367 . S
C962 C595 1.364 . S
C964 C298 1.364 . S
