# Generated by pormake.
# Topology crr, (4)-cn, num edge types: 1
# Building blocks:
#     Node 0, Type 0, BuildingBlock: ESEHIV_clean_sbu_0, # of connection points: 4
#     Node 1, Type 0, BuildingBlock: ESEHIV_clean_sbu_0, # of connection points: 4
#     Node 2, Type 0, BuildingBlock: ESEHIV_clean_sbu_0, # of connection points: 4
#     Node 3, Type 0, BuildingBlock: ESEHIV_clean_sbu_0, # of connection points: 4
#     Node 4, Type 0, BuildingBlock: ESEHIV_clean_sbu_0, # of connection points: 4
#     Node 5, Type 0, BuildingBlock: ESEHIV_clean_sbu_0, # of connection points: 4
#     Node 6, Type 0, BuildingBlock: ESEHIV_clean_sbu_0, # of connection points: 4
#     Node 7, Type 0, BuildingBlock: ESEHIV_clean_sbu_0, # of connection points: 4
#     Node 8, Type 0, BuildingBlock: ESEHIV_clean_sbu_0, # of connection points: 4
#     Node 9, Type 0, BuildingBlock: ESEHIV_clean_sbu_0, # of connection points: 4
#     Node 10, Type 0, BuildingBlock: ESEHIV_clean_sbu_0, # of connection points: 4
#     Node 11, Type 0, BuildingBlock: ESEHIV_clean_sbu_0, # of connection points: 4
#     Edge 12, Type (0, 0), BuildingBlock: OJICUG_clean_linker_0, # of connection points: 2
#     Edge 13, Type (0, 0), BuildingBlock: OJICUG_clean_linker_0, # of connection points: 2
#     Edge 14, Type (0, 0), BuildingBlock: OJICUG_clean_linker_0, # of connection points: 2
#     Edge 15, Type (0, 0), BuildingBlock: OJICUG_clean_linker_0, # of connection points: 2
#     Edge 16, Type (0, 0), BuildingBlock: OJICUG_clean_linker_0, # of connection points: 2
#     Edge 17, Type (0, 0), BuildingBlock: OJICUG_clean_linker_0, # of connection points: 2
#     Edge 18, Type (0, 0), BuildingBlock: OJICUG_clean_linker_0, # of connection points: 2
#     Edge 19, Type (0, 0), BuildingBlock: OJICUG_clean_linker_0, # of connection points: 2
#     Edge 20, Type (0, 0), BuildingBlock: OJICUG_clean_linker_0, # of connection points: 2
#     Edge 21, Type (0, 0), BuildingBlock: OJICUG_clean_linker_0, # of connection points: 2
#     Edge 22, Type (0, 0), BuildingBlock: OJICUG_clean_linker_0, # of connection points: 2
#     Edge 23, Type (0, 0), BuildingBlock: OJICUG_clean_linker_0, # of connection points: 2
#     Edge 24, Type (0, 0), BuildingBlock: OJICUG_clean_linker_0, # of connection points: 2
#     Edge 25, Type (0, 0), BuildingBlock: OJICUG_clean_linker_0, # of connection points: 2
#     Edge 26, Type (0, 0), BuildingBlock: OJICUG_clean_linker_0, # of connection points: 2
#     Edge 27, Type (0, 0), BuildingBlock: OJICUG_clean_linker_0, # of connection points: 2
#     Edge 28, Type (0, 0), BuildingBlock: OJICUG_clean_linker_0, # of connection points: 2
#     Edge 29, Type (0, 0), BuildingBlock: OJICUG_clean_linker_0, # of connection points: 2
#     Edge 30, Type (0, 0), BuildingBlock: OJICUG_clean_linker_0, # of connection points: 2
#     Edge 31, Type (0, 0), BuildingBlock: OJICUG_clean_linker_0, # of connection points: 2
#     Edge 32, Type (0, 0), BuildingBlock: OJICUG_clean_linker_0, # of connection points: 2
#     Edge 33, Type (0, 0), BuildingBlock: OJICUG_clean_linker_0, # of connection points: 2
#     Edge 34, Type (0, 0), BuildingBlock: OJICUG_clean_linker_0, # of connection points: 2
#     Edge 35, Type (0, 0), BuildingBlock: OJICUG_clean_linker_0, # of connection points: 2
# Relax obj value: 0.035
# Max RMSD: 0.146
# Mean RMSD: 0.115
data_MOF--net-crr--node1-ESEHIV_clean_sbu_0--edge1-OJICUG_clean_linker_0
_symmetry_space_group_name_H-M    P1
_symmetry_Int_Tables_number       1
_symmetry_cell_setting            triclinic
loop_
_symmetry_equiv_pos_as_xyz
'x, y, z'
_cell_length_a     30.836046
_cell_length_b     35.656173
_cell_length_c     31.206221
_cell_angle_alpha  92.830647
_cell_angle_beta   84.768894
_cell_angle_gamma 87.510436
loop_
_atom_site_label
_atom_site_type_symbol
_atom_site_fract_x
_atom_site_fract_y
_atom_site_fract_z
_atom_type_partial_charge
Cu0 Cu 0.11829 0.379 0.41021 0.0
N1 N 0.06833 0.40663 0.39654 0.0
N2 N 1.02303 0.45581 0.38635 0.0
C3 C 0.06404 0.44422 0.3936 0.0
C4 C 1.0006 0.42415 0.38505 0.0
C5 C 0.02856 0.39396 0.39138 0.0
O6 O 0.10976 0.37006 0.47182 0.0
C7 C 0.17296 0.41387 0.35033 0.0
O8 O 0.13872 0.40895 0.32894 0.0
H9 H 0.09041 0.46277 0.39759 0.0
H10 H 1.02036 0.36482 0.39263 0.0
N11 N 0.12401 0.33079 0.38303 0.0
N12 N 0.15235 0.272 0.3688 0.0
C13 C 0.14888 0.30255 0.39654 0.0
C14 C 0.11107 0.31781 0.34525 0.0
C15 C 0.12857 0.28153 0.33635 0.0
C16 C 0.0963 0.39411 0.50223 0.0
O17 O 0.0927 0.42989 0.49434 0.0
H18 H 0.16613 0.3053 0.42514 0.0
H19 H 0.09175 0.33405 0.32487 0.0
O20 O 0.17165 0.40383 0.38918 0.0
H21 H 0.96657 0.42279 0.37945 0.0
H22 H 0.12483 0.26393 0.30779 0.0
Cu23 Cu 0.38078 0.89961 0.62914 0.0
N24 N 0.32907 0.87682 0.61751 0.0
N25 N 0.28638 0.82943 0.60302 0.0
C26 C 0.3275 0.84116 0.60143 0.0
C27 C 0.26093 0.8595 0.61943 0.0
C28 C 0.28735 0.88868 0.62839 0.0
O29 O 0.42097 0.86115 0.64853 0.0
C30 C 0.37508 0.95807 0.57609 0.0
O31 O 0.34024 0.96413 0.60349 0.0
H32 H 0.35636 0.82318 0.59214 0.0
H33 H 0.27712 0.91561 0.64443 0.0
N34 N 0.37632 0.934 0.67672 0.0
N35 N 0.41356 0.97193 0.71772 0.0
C36 C 0.40478 0.96151 0.67748 0.0
C37 C 0.36591 0.92722 0.71845 0.0
C38 C 0.38907 0.95051 0.74384 0.0
C39 C 0.40357 0.8387 0.6751 0.0
O40 O 0.36104 0.83999 0.68318 0.0
H41 H 0.42405 0.96942 0.64888 0.0
H42 H 0.34756 0.90381 0.72943 0.0
O43 O 0.3997 0.92877 0.57948 0.0
H44 H 0.22611 0.85937 0.62796 0.0
H45 H 0.39087 0.94927 0.77822 0.0
Cu46 Cu 0.92117 0.67737 0.36042 0.0
N47 N 0.92096 0.683 0.30086 0.0
N48 N 0.88733 0.68734 0.24042 0.0
C49 C 0.88406 0.69337 0.28357 0.0
C50 C 0.92814 0.67256 0.22976 0.0
C51 C 0.94896 0.6701 0.26713 0.0
O52 O 0.86963 0.70824 0.3847 0.0
C53 C 0.96402 0.60843 0.35947 0.0
O54 O 0.99353 0.62995 0.34205 0.0
H55 H 0.85388 0.70189 0.30269 0.0
H56 H 0.98105 0.65743 0.26951 0.0
N57 N 0.96746 0.69728 0.3876 0.0
N58 N 1.00536 0.70974 0.444 0.0
C59 C 0.97009 0.69376 0.42997 0.0
C60 C 1.00238 0.71633 0.37388 0.0
C61 C 0.02584 0.7242 0.40882 0.0
C62 C 0.87529 0.74329 0.38059 0.0
O63 O 0.91321 0.75333 0.36339 0.0
H64 H 0.94612 0.67974 0.45013 0.0
H65 H 1.01025 0.72378 0.34099 0.0
O66 O 0.92575 0.62316 0.37049 0.0
H67 H 0.9412 0.66253 0.19767 0.0
H68 H 0.05606 0.73859 0.40814 0.0
Cu69 Cu 0.65702 0.10718 0.66621 0.0
N70 N 0.71757 0.11248 0.66279 0.0
N71 N 0.77869 0.14422 0.65333 0.0
C72 C 0.73505 0.14651 0.66265 0.0
C73 C 0.78928 0.10705 0.64727 0.0
C74 C 0.75148 0.0875 0.65319 0.0
O75 O 0.6329 0.15519 0.69313 0.0
C76 C 0.64833 0.0554 0.59947 0.0
O77 O 0.66974 0.03556 0.62571 0.0
H78 H 0.71567 0.1727 0.6668 0.0
H79 H 0.74883 0.05743 0.64901 0.0
N80 N 0.63304 0.07181 0.70278 0.0
N81 N 0.57652 0.03908 0.72776 0.0
C82 C 0.5895 0.07012 0.70814 0.0
C83 C 0.64893 0.04124 0.72079 0.0
C84 C 0.61401 1.02093 0.73627 0.0
C85 C 0.64199 0.15854 0.73225 0.0
O86 O 0.66458 0.13123 0.74795 0.0
H87 H 0.56807 0.09063 0.6953 0.0
H88 H 0.68316 0.03286 0.71982 0.0
O89 O 0.64016 0.09049 0.60914 0.0
H90 H 0.82182 0.09489 0.63833 0.0
H91 H 0.61638 0.99362 0.74974 0.0
Cu92 Cu 0.1573 0.63934 0.65822 0.0
N93 N 0.17676 0.63632 0.71347 0.0
N94 N 0.22399 0.63226 0.7638 0.0
C95 C 0.21844 0.62855 0.72137 0.0
C96 C 0.18396 0.64223 0.78338 0.0
C97 C 0.15499 0.64488 0.75229 0.0
O98 O 0.20268 0.66196 0.62121 0.0
C99 C 0.10401 0.58042 0.66513 0.0
O100 O 0.09134 0.60207 0.69966 0.0
H101 H 0.24457 0.62212 0.69616 0.0
H102 H 0.12095 0.6541 0.75746 0.0
N103 N 0.1099 0.67296 0.65442 0.0
N104 N 0.06615 0.70067 0.6107 0.0
C105 C 0.08517 0.66816 0.62141 0.0
C106 C 0.10572 0.70999 0.66575 0.0
C107 C 0.07876 0.7272 0.63869 0.0
C108 C 0.21878 0.69065 0.63884 0.0
O109 O 0.20726 0.69987 0.67961 0.0
H110 H 0.08631 0.64229 0.60158 0.0
H111 H 0.12483 0.72419 0.68837 0.0
O112 O 0.13618 0.59035 0.64014 0.0
H113 H 0.17663 0.6495 0.81743 0.0
H114 H 0.07201 0.75714 0.63736 0.0
Cu115 Cu 0.62513 0.90966 0.3838 0.0
N116 N 0.68534 0.89896 0.37897 0.0
N117 N 0.7477 0.86501 0.38186 0.0
C118 C 0.70383 0.86571 0.38823 0.0
C119 C 0.75715 0.89945 0.36838 0.0
C120 C 0.71859 0.92035 0.36666 0.0
O121 O 0.60123 0.86018 0.37408 0.0
C122 C 0.61818 0.97263 0.44169 0.0
O123 O 0.63046 0.98881 0.40596 0.0
H124 H 0.6853 0.8425 0.39961 0.0
H125 H 0.71504 0.94892 0.35689 0.0
N126 N 0.60639 0.93944 0.34054 0.0
N127 N 0.5605 0.97353 0.30443 0.0
C128 C 0.56561 0.95446 0.34019 0.0
C129 C 0.62813 0.94918 0.30374 0.0
C130 C 0.59997 0.97022 0.28144 0.0
C131 C 0.6172 0.84488 0.33782 0.0
O132 O 0.64312 0.86427 0.31256 0.0
H133 H 0.5405 0.95184 0.36627 0.0
H134 H 0.6619 0.94126 0.29365 0.0
O135 O 0.61146 0.93741 0.43972 0.0
H136 H 0.78955 0.9087 0.35948 0.0
H137 H 0.60809 0.98187 0.25053 0.0
Cu138 Cu 0.94476 0.36105 0.67072 0.0
N139 N 0.91996 0.32333 0.63805 0.0
N140 N 0.88436 0.27086 0.62565 0.0
C141 C 0.89316 0.29787 0.65511 0.0
C142 C 0.90649 0.27976 0.58845 0.0
C143 C 0.92835 0.31211 0.59618 0.0
O144 O 0.90466 0.37208 0.72305 0.0
C145 C 0.03863 0.34139 0.6695 0.0
O146 O 0.07109 0.32771 0.68932 0.0
H147 H 0.88189 0.29827 0.68901 0.0
H148 H 0.94985 0.32571 0.57313 0.0
N149 N 0.95767 0.40502 0.64247 0.0
N150 N 0.99408 0.45734 0.63117 0.0
C151 C 0.97948 0.43282 0.66026 0.0
C152 C 0.95786 0.41235 0.60055 0.0
C153 C 0.98025 0.44464 0.59348 0.0
C154 C 0.86443 0.38231 0.72275 0.0
O155 O 0.84909 0.38879 0.68576 0.0
H156 H 0.98769 0.43306 0.69326 0.0
H157 H 0.94505 0.39438 0.57629 0.0
O158 O 0.99991 0.34069 0.688 0.0
H159 H 0.90714 0.26387 0.55792 0.0
H160 H 0.98715 0.45691 0.56272 0.0
Cu161 Cu 0.36221 0.1196 0.34784 0.0
N162 N 0.38884 0.1609 0.32398 0.0
N163 N 0.39622 0.20881 0.28073 0.0
C164 C 0.36858 0.18494 0.29949 0.0
C165 C 0.43553 0.19969 0.29417 0.0
C166 C 0.43082 0.17021 0.3212 0.0
O167 O 0.2998 0.13335 0.35 0.0
C168 C 0.41301 0.0725 0.28419 0.0
O169 O 0.42038 0.10296 0.26326 0.0
H170 H 0.33463 0.18354 0.29353 0.0
H171 H 0.45648 0.15538 0.33591 0.0
N172 N 0.37944 0.10999 0.4025 0.0
N173 N 0.39371 0.07685 0.45918 0.0
C174 C 0.3783 0.07614 0.42002 0.0
C175 C 0.39676 0.13287 0.43128 0.0
C176 C 0.40514 0.11259 0.4665 0.0
C177 C 0.28257 0.15453 0.38172 0.0
O178 O 0.30484 0.1603 0.41514 0.0
H179 H 0.36559 0.05162 0.40461 0.0
H180 H 0.40264 0.1622 0.42703 0.0
O181 O 0.3822 0.07347 0.3144 0.0
H182 H 0.46559 0.21284 0.28444 0.0
H183 H 0.41864 0.1233 0.49524 0.0
Cu184 Cu 0.36358 0.42752 0.14848 0.0
N185 N 0.35112 0.37705 0.13991 0.0
N186 N 0.35603 0.31793 0.1607 0.0
C187 C 0.3468 0.35433 0.17316 0.0
C188 C 0.36605 0.31748 0.11768 0.0
C189 C 0.36287 0.354 0.1049 0.0
O190 O 0.34293 0.43899 0.21001 0.0
C191 C 0.43542 0.43041 0.08684 0.0
O192 O 0.40331 0.43312 0.06214 0.0
H193 H 0.34289 0.36468 0.20654 0.0
H194 H 0.37336 0.36332 0.07333 0.0
N195 N 0.33402 0.46123 0.1156 0.0
N196 N 0.32195 0.51491 0.08328 0.0
C197 C 0.34465 0.49723 0.11202 0.0
C198 C 0.30309 0.45577 0.08847 0.0
C199 C 0.29545 0.48895 0.06859 0.0
C200 C 0.30147 0.44423 0.21718 0.0
O201 O 0.27818 0.44479 0.18404 0.0
H202 H 0.36977 0.50971 0.12928 0.0
H203 H 0.28841 0.42925 0.08243 0.0
O204 O 0.42618 0.42907 0.12773 0.0
H205 H 0.37829 0.29299 0.09758 0.0
H206 H 0.27378 0.49298 0.04363 0.0
Cu207 Cu 0.43121 0.68619 0.90538 0.0
N208 N 0.43556 0.73294 0.88035 0.0
N209 N 0.44275 0.77309 0.8274 0.0
C210 C 0.44539 0.73681 0.83786 0.0
C211 C 0.43105 0.79288 0.86502 0.0
C212 C 0.4264 0.76804 0.89758 0.0
O213 O 0.40487 0.65324 0.86379 0.0
C214 C 0.50339 0.69539 0.94951 0.0
O215 O 0.48275 0.72846 0.95576 0.0
H216 H 0.45257 0.71317 0.81481 0.0
H217 H 0.41542 0.77494 0.93107 0.0
N218 N 0.39249 0.68544 0.95489 0.0
N219 N 0.35714 0.65346 1.00605 0.0
C220 C 0.39417 0.65601 0.9801 0.0
C221 C 0.35303 0.70276 0.96564 0.0
C222 C 0.33101 0.68291 0.9972 0.0
C223 C 0.36944 0.66768 0.85204 0.0
O224 O 0.35616 0.70174 0.86672 0.0
H225 H 0.42029 0.63447 0.97599 0.0
H226 H 0.33971 0.72602 0.94923 0.0
O227 O 0.48774 0.67061 0.92505 0.0
H228 H 0.42367 0.8229 0.86837 0.0
H229 H 0.29759 0.68838 1.01062 0.0
Cu230 Cu 0.65583 0.63556 0.14839 0.0
N231 N 0.65757 0.58446 0.15783 0.0
N232 N 0.6766 0.52341 0.14547 0.0
C233 C 0.67775 0.55805 0.1299 0.0
C234 C 0.65443 0.52834 0.1849 0.0
C235 C 0.64293 0.56616 0.19254 0.0
O236 O 0.63147 0.6414 0.09311 0.0
C237 C 0.7287 0.68279 0.1588 0.0
O238 O 0.70006 0.7114 0.16285 0.0
H239 H 0.69265 0.56435 0.09849 0.0
H240 H 0.62565 0.57942 0.22146 0.0
N241 N 0.61998 0.66247 0.19236 0.0
N242 N 0.60029 0.70468 0.24726 0.0
C243 C 0.63283 0.68184 0.22677 0.0
C244 C 0.57747 0.67225 0.19172 0.0
C245 C 0.56524 0.69818 0.22541 0.0
C246 C 0.62465 0.67322 0.07759 0.0
O247 O 0.6369 0.70346 0.0981 0.0
H248 H 0.66616 0.68076 0.23491 0.0
H249 H 0.55758 0.66325 0.16666 0.0
O250 O 0.71625 0.65001 0.14954 0.0
H251 H 0.64749 0.50637 0.20689 0.0
H252 H 0.5339 0.71333 0.23095 0.0
Cu253 Cu 0.67061 0.36279 0.93197 0.0
N254 N 0.70551 0.36407 0.97791 0.0
N255 N 0.72348 0.39308 0.03829 0.0
C256 C 0.71199 0.39715 0.99817 0.0
C257 C 0.72522 0.35572 0.04341 0.0
C258 C 0.71469 0.33771 1.00569 0.0
O259 O 0.61593 0.39047 0.9564 0.0
C260 C 0.74398 0.36733 0.875 0.0
O261 O 0.75628 0.34151 0.90058 0.0
H262 H 0.70233 0.42389 0.986 0.0
H263 H 0.70902 0.30815 1.00104 0.0
N264 N 0.65647 0.31432 0.9142 0.0
N265 N 0.63883 0.26688 0.87031 0.0
C266 C 0.65313 0.30214 0.87304 0.0
C267 C 0.64393 0.28582 0.93837 0.0
C268 C 0.63321 0.25654 0.91146 0.0
C269 C 0.60077 0.38107 0.99387 0.0
O270 O 0.62054 0.35315 1.01128 0.0
H271 H 0.66016 0.31922 0.84577 0.0
H272 H 0.64215 0.28632 0.97313 0.0
O273 O 0.70546 0.38255 0.88253 0.0
H274 H 0.72981 0.34271 0.07339 0.0
H275 H 0.62261 0.22954 0.92153 0.0
C276 C 0.1907 0.22721 0.41214 0.0
C277 C 0.17984 0.23841 0.37173 0.0
H278 H 0.23081 0.19148 0.44689 0.0
C279 C 0.19886 0.21783 0.3345 0.0
H280 H 0.17598 0.24173 0.44151 0.0
C281 C 0.23015 0.18846 0.33762 0.0
C282 C 0.24307 0.17915 0.37803 0.0
H283 H 0.1914 0.22568 0.30284 0.0
H284 H 0.24604 0.17465 0.30829 0.0
C285 C 0.22192 0.1981 0.41523 0.0
C286 C 0.23189 0.78238 0.58913 0.0
C287 C 0.27358 0.79095 0.60043 0.0
H288 H 0.18227 0.74193 0.59052 0.0
C289 C 0.30033 0.76206 0.61487 0.0
H290 H 0.21067 0.80402 0.57784 0.0
C291 C 0.28411 0.72665 0.62204 0.0
C292 C 0.24128 0.71912 0.61396 0.0
H293 H 0.33236 0.76774 0.62445 0.0
H294 H 0.30366 0.70631 0.63757 0.0
C295 C 0.21594 0.74668 0.59565 0.0
C296 C 0.76563 0.79617 0.38178 0.0
C297 C 0.77793 0.83371 0.38686 0.0
H298 H 0.78673 0.7376 0.37635 0.0
C299 C 0.82094 0.84023 0.39533 0.0
H300 H 0.73278 0.7901 0.37501 0.0
C301 C 0.85146 0.81031 0.3963 0.0
C302 C 0.83995 0.77296 0.38885 0.0
H303 H 0.83132 0.86858 0.40039 0.0
H304 H 0.88475 0.81659 0.40133 0.0
C305 C 0.7964 0.76602 0.38279 0.0
C306 C 0.86821 0.20428 0.60911 0.0
C307 C 0.85831 0.23858 0.63306 0.0
H308 H 0.85106 0.14721 0.59717 0.0
C309 C 0.82255 0.24078 0.6646 0.0
H310 H 0.89578 0.20149 0.58491 0.0
C311 C 0.79691 0.20976 0.67149 0.0
C312 C 0.80664 0.17551 0.64746 0.0
H313 H 0.81388 0.26676 0.68344 0.0
H314 H 0.7694 0.21256 0.69579 0.0
C315 C 0.84289 0.17303 0.61647 0.0
C316 C 0.40403 0.26646 0.18293 0.0
C317 C 0.36489 0.28858 0.18927 0.0
H318 H 0.44516 0.22416 0.20783 0.0
C319 C 0.33625 0.28392 0.22606 0.0
H320 H 0.42699 0.26997 0.15521 0.0
C321 C 0.34637 0.2575 0.2558 0.0
C322 C 0.38594 0.23596 0.25 0.0
H323 H 0.3061 0.3009 0.23177 0.0
H324 H 0.32371 0.2544 0.28388 0.0
C325 C 0.41468 0.24069 0.21326 0.0
C326 C 0.30328 0.63151 0.84822 0.0
C327 C 0.33975 0.64675 0.8265 0.0
H328 H 0.23774 0.6145 0.84501 0.0
C329 C 0.33958 0.65264 0.7824 0.0
H330 H 0.30215 0.62786 0.88257 0.0
C331 C 0.30258 0.64535 0.76091 0.0
C332 C 0.26472 0.63273 0.78342 0.0
H333 H 0.36668 0.66571 0.7654 0.0
H334 H 0.30251 0.65244 0.7276 0.0
C335 C 0.26616 0.62451 0.8269 0.0
C336 C 0.64584 0.75028 0.28263 0.0
C337 C 0.60467 0.73588 0.27796 0.0
H338 H 0.68158 0.79573 0.30605 0.0
C339 C 0.56767 0.75519 0.30025 0.0
H340 H 0.67526 0.73676 0.26636 0.0
C341 C 0.57153 0.78954 0.32347 0.0
C342 C 0.61243 0.80506 0.32462 0.0
H343 H 0.5355 0.74468 0.29823 0.0
H344 H 0.5424 0.80506 0.33783 0.0
C345 C 0.64956 0.78439 0.30546 0.0
C346 C 0.76037 0.39123 0.80021 0.0
C347 C 0.77474 0.37595 0.8374 0.0
H348 H 0.77728 0.40513 0.73473 0.0
C349 C 0.81938 0.36563 0.83743 0.0
H350 H 0.72626 0.39931 0.79898 0.0
C351 C 0.84859 0.36913 0.80095 0.0
C352 C 0.83408 0.38275 0.76301 0.0
H353 H 0.83179 0.35398 0.86556 0.0
H354 H 0.88239 0.35995 0.80214 0.0
C355 C 0.78968 0.39439 0.76334 0.0
C356 C 0.4199 0.781 0.71225 0.0
C357 C 0.42845 0.81872 0.70572 0.0
H358 H 0.41796 0.73676 0.75604 0.0
C359 C 0.44787 0.83961 0.73753 0.0
H360 H 0.40371 0.76471 0.68873 0.0
C361 C 0.45501 0.82392 0.77679 0.0
C362 C 0.44334 0.78697 0.78463 0.0
H363 H 0.45347 0.86912 0.73381 0.0
H364 H 0.46743 0.8413 0.8019 0.0
C365 C 0.42771 0.76513 0.75107 0.0
C366 C 0.80577 0.65851 0.16438 0.0
C367 C 0.77276 0.68705 0.17365 0.0
H368 H 0.8688 0.63663 0.1779 0.0
C369 C 0.78058 0.71777 0.20146 0.0
H370 H 0.80077 0.63446 0.14311 0.0
C371 C 0.81921 0.71866 0.22172 0.0
C372 C 0.8513 0.68929 0.21406 0.0
H373 H 0.75586 0.74014 0.20953 0.0
H374 H 0.82347 0.74173 0.24463 0.0
C375 C 0.84483 0.65981 0.18409 0.0
C376 C 0.604 0.18814 0.79901 0.0
C377 C 0.63044 0.19224 0.7607 0.0
H378 H 0.58502 0.20917 0.86358 0.0
C379 C 0.65564 0.22395 0.75697 0.0
H380 H 0.58503 0.16344 0.80289 0.0
C381 C 0.65661 0.24981 0.79224 0.0
C382 C 0.63258 0.24416 0.83185 0.0
H383 H 0.6774 0.227 0.7282 0.0
H384 H 0.67851 0.27264 0.78933 0.0
C385 C 0.60475 0.21395 0.83406 0.0
C386 C 0.28521 0.41656 0.28977 0.0
C387 C 0.27709 0.44442 0.26062 0.0
H388 H 0.25823 0.3851 0.34237 0.0
C389 C 0.2381 0.46665 0.26788 0.0
H390 H 0.31454 0.39845 0.28452 0.0
C391 C 0.20606 0.45888 0.30041 0.0
C392 C 0.21216 0.42884 0.32698 0.0
H393 H 0.23073 0.48817 0.24592 0.0
H394 H 0.17501 0.47465 0.30266 0.0
C395 C 0.25291 0.40886 0.32285 0.0
C396 C 0.07192 0.39 0.62356 0.0
C397 C 0.04879 0.35699 0.62689 0.0
H398 H 0.1042 0.42815 0.58147 0.0
C399 C 0.04221 0.3359 0.5891 0.0
H400 H 0.07861 0.40612 0.65236 0.0
C401 C 0.05809 0.34779 0.54866 0.0
C402 C 0.0805 0.38124 0.54522 0.0
H403 H 0.02618 0.30953 0.59094 0.0
H404 H 0.0527 0.33085 0.52002 0.0
C405 C 0.08677 0.40246 0.58309 0.0
C406 C 0.3846 0.05465 0.53299 0.0
C407 C 0.39398 0.04672 0.48853 0.0
H408 H 0.37137 0.03264 0.59516 0.0
C409 C 0.40138 1.00886 0.47327 0.0
H410 H 0.37847 0.08337 0.54573 0.0
C411 C 0.39816 0.97959 0.50189 0.0
C412 C 0.38648 0.98775 0.54602 0.0
H413 H 0.40906 1.00194 0.43918 0.0
H414 H 0.40263 0.95069 0.4893 0.0
C415 C 0.38043 0.02556 0.56125 0.0
C416 C 1.02132 0.67778 0.55457 0.0
C417 C 0.04694 0.70575 0.57083 0.0
H418 H 0.98871 0.65675 0.50164 0.0
C419 C 0.05748 0.73609 0.54527 0.0
H420 H 1.01291 0.65405 0.57352 0.0
C421 C 0.04375 0.73764 0.50369 0.0
C422 C 1.01884 0.70911 0.48713 0.0
H423 H 0.07778 0.75775 0.55671 0.0
H424 H 0.05279 0.761 0.48444 0.0
C425 C 1.00736 0.67946 0.51338 0.0
C426 C 0.62799 0.05449 0.52277 0.0
C427 C 0.63429 0.03572 0.56031 0.0
H428 H 0.61784 0.04915 0.45569 0.0
C429 C 0.63022 0.99645 0.55963 0.0
H430 H 0.63079 0.08464 0.52226 0.0
C431 C 0.62228 0.97613 0.52183 0.0
C432 C 0.61878 0.99449 0.48351 0.0
H433 H 0.63432 0.98111 0.58822 0.0
H434 H 0.62102 0.94583 0.5222 0.0
C435 C 0.62065 0.03404 0.48466 0.0
C436 C 0.48831 0.04638 0.25868 0.0
C437 C 0.44814 0.04243 0.28287 0.0
H438 H 0.55543 0.02834 0.24694 0.0
C439 C 0.44449 1.0127 0.31076 0.0
H440 H 0.49244 0.06894 0.23687 0.0
C441 C 0.48079 0.98913 0.31642 0.0
C442 C 0.52184 0.99478 0.29456 0.0
H443 H 0.41404 1.00863 0.32978 0.0
H444 H 0.47673 0.96714 0.33888 0.0
C445 C 0.52468 0.02297 0.26453 0.0
C446 C 0.07931 0.52982 0.61394 0.0
C447 C 0.07828 0.54717 0.6555 0.0
H448 H 0.0529 0.48785 0.57328 0.0
C449 C 0.0493 0.5343 0.68844 0.0
H450 H 0.10095 0.53928 0.58778 0.0
C451 C 1.02186 0.50521 0.68023 0.0
C452 C 1.02227 0.48799 0.63875 0.0
H453 H 0.04741 0.54699 0.72086 0.0
H454 H 0.99971 0.49666 0.70646 0.0
C455 C 0.05136 0.50066 0.60558 0.0
C456 C 0.52138 0.99528 0.75653 0.0
C457 C 0.53285 0.02522 0.73057 0.0
H458 H 0.47368 0.95493 0.77332 0.0
C459 C 0.50145 0.03995 0.70495 0.0
H460 H 0.54426 0.98346 0.77708 0.0
C461 C 0.46116 0.02397 0.70338 0.0
C462 C 0.45077 0.99283 0.72724 0.0
H463 H 0.50835 0.06264 0.68411 0.0
H464 H 0.43868 0.03484 0.68175 0.0
C465 C 0.48068 0.97926 0.75492 0.0
C466 C 1.02164 0.55674 0.35721 0.0
C467 C 0.97751 0.56873 0.36685 0.0
H468 H 0.07032 0.51213 0.35534 0.0
C469 C 0.9482 0.54265 0.3832 0.0
H470 H 0.04542 0.57579 0.3445 0.0
C471 C 0.9629 0.50551 0.38954 0.0
C472 C 1.00725 0.49384 0.38002 0.0
H473 H 0.91407 0.55087 0.39103 0.0
H474 H 0.93968 0.4861 0.4024 0.0
C475 C 0.03622 0.52006 0.36375 0.0
C476 C 0.29607 0.5722 0.04903 0.0
C477 C 0.32914 0.55179 0.06743 0.0
H478 H 0.27883 0.62109 1.01553 0.0
C479 C 0.37023 0.56734 0.06843 0.0
H480 H 0.26398 0.56122 0.0481 0.0
C481 C 0.37856 0.60153 0.05007 0.0
C482 C 0.34608 0.62128 0.03036 0.0
H483 H 0.3967 0.55243 0.08181 0.0
H484 H 0.41093 0.61214 0.05024 0.0
C485 C 0.30439 0.60671 0.03088 0.0
C486 C 0.56272 0.71755 0.99206 0.0
C487 C 0.54034 0.68727 0.97565 0.0
H488 H 0.60688 0.73683 0.03629 0.0
C489 C 0.54955 0.65115 0.98966 0.0
H490 H 0.5566 0.74573 0.98179 0.0
C491 C 0.57852 0.64603 1.0215 0.0
C492 C 0.59885 0.67691 0.03973 0.0
H493 H 0.53257 0.62733 0.97793 0.0
H494 H 0.58348 0.61819 0.03313 0.0
C495 C 0.59157 0.71245 0.02351 0.0
C496 C 0.68862 0.42151 0.10714 0.0
C497 C 0.71913 0.42302 0.07108 0.0
H498 H 0.65047 0.45258 0.15893 0.0
C499 C 0.73902 0.45686 0.06303 0.0
H500 H 0.67223 0.39582 0.11338 0.0
C501 C 0.72687 0.48925 0.08901 0.0
C502 C 0.69386 0.4887 0.12321 0.0
H503 H 0.76248 0.45854 0.03525 0.0
H504 H 0.74231 0.51503 0.08121 0.0
C505 C 0.676 0.45411 0.13298 0.0
C506 C 0.51375 0.4066 0.08631 0.0
C507 C 0.48054 0.42386 0.06533 0.0
H508 H 0.57768 0.37992 0.08014 0.0
C509 C 0.4892 0.43089 1.02123 0.0
H510 H 0.50835 0.40074 0.12005 0.0
C511 C 0.52907 0.41898 0.99813 0.0
C512 C 0.56109 0.39941 1.01849 0.0
H513 H 0.46444 0.44443 1.00401 0.0
H514 H 0.53389 0.42344 0.96398 0.0
C515 C 0.55342 0.39443 0.06316 0.0
loop_
_geom_bond_atom_site_label_1
_geom_bond_atom_site_label_2
_geom_bond_distance
_geom_bond_site_symmetry_2
_ccdc_geom_bond_type
Cu0 N1 1.999 . S
Cu0 O6 1.974 . S
Cu0 N11 1.985 . S
Cu0 O20 1.959 . S
N1 Cu0 1.999 . S
N1 C3 1.263 . S
N1 C5 1.389 . S
N2 C3 1.358 . S
N2 C4 1.400 . S
C3 N1 1.263 . S
C3 N2 1.358 . S
C3 H9 0.930 . S
C4 N2 1.400 . S
C4 C5 1.351 . S
C4 H21 0.930 . S
C5 N1 1.389 . S
C5 C4 1.351 . S
C5 H10 0.930 . S
O6 Cu0 1.974 . S
O6 C16 1.282 . S
C7 O8 1.261 . S
C7 O20 1.251 . S
O8 C7 1.261 . S
H9 C3 0.930 . S
H10 C5 0.930 . S
N11 Cu0 1.985 . S
N11 C13 1.335 . S
N11 C14 1.390 . S
N12 C13 1.345 . S
N12 C15 1.336 . S
C13 N11 1.335 . S
C13 N12 1.345 . S
C13 H18 0.930 . S
C14 N11 1.390 . S
C14 C15 1.346 . S
C14 H19 0.930 . S
C15 N12 1.336 . S
C15 C14 1.346 . S
C15 H22 0.929 . S
C16 O6 1.282 . S
C16 O17 1.216 . S
O17 C16 1.216 . S
H18 C13 0.930 . S
H19 C14 0.930 . S
O20 Cu0 1.959 . S
O20 C7 1.251 . S
H21 C4 0.930 . S
H22 C15 0.929 . S
Cu23 N24 1.999 . S
Cu23 O29 1.974 . S
Cu23 N34 1.985 . S
Cu23 O43 1.959 . S
N24 Cu23 1.999 . S
N24 C26 1.263 . S
N24 C28 1.389 . S
N25 C26 1.358 . S
N25 C27 1.400 . S
C26 N24 1.263 . S
C26 N25 1.358 . S
C26 H32 0.930 . S
C27 N25 1.400 . S
C27 C28 1.351 . S
C27 H44 0.930 . S
C28 N24 1.389 . S
C28 C27 1.351 . S
C28 H33 0.930 . S
O29 Cu23 1.974 . S
O29 C39 1.282 . S
C30 O31 1.261 . S
C30 O43 1.251 . S
O31 C30 1.261 . S
H32 C26 0.930 . S
H33 C28 0.930 . S
N34 Cu23 1.985 . S
N34 C36 1.335 . S
N34 C37 1.390 . S
N35 C36 1.345 . S
N35 C38 1.336 . S
C36 N34 1.335 . S
C36 N35 1.345 . S
C36 H41 0.930 . S
C37 N34 1.390 . S
C37 C38 1.346 . S
C37 H42 0.930 . S
C38 N35 1.336 . S
C38 C37 1.346 . S
C38 H45 0.929 . S
C39 O29 1.282 . S
C39 O40 1.216 . S
O40 C39 1.216 . S
H41 C36 0.930 . S
H42 C37 0.930 . S
O43 Cu23 1.959 . S
O43 C30 1.251 . S
H44 C27 0.930 . S
H45 C38 0.929 . S
Cu46 N47 1.999 . S
Cu46 O52 1.974 . S
Cu46 N57 1.985 . S
Cu46 O66 1.959 . S
N47 Cu46 1.999 . S
N47 C49 1.263 . S
N47 C51 1.389 . S
N48 C49 1.358 . S
N48 C50 1.400 . S
C49 N47 1.263 . S
C49 N48 1.358 . S
C49 H55 0.930 . S
C50 N48 1.400 . S
C50 C51 1.351 . S
C50 H67 0.930 . S
C51 N47 1.389 . S
C51 C50 1.351 . S
C51 H56 0.930 . S
O52 Cu46 1.974 . S
O52 C62 1.282 . S
C53 O54 1.261 . S
C53 O66 1.251 . S
O54 C53 1.261 . S
H55 C49 0.930 . S
H56 C51 0.930 . S
N57 Cu46 1.985 . S
N57 C59 1.335 . S
N57 C60 1.390 . S
N58 C59 1.345 . S
N58 C61 1.336 . S
C59 N57 1.335 . S
C59 N58 1.345 . S
C59 H64 0.930 . S
C60 N57 1.390 . S
C60 C61 1.346 . S
C60 H65 0.930 . S
C61 N58 1.336 . S
C61 C60 1.346 . S
C61 H68 0.929 . S
C62 O52 1.282 . S
C62 O63 1.216 . S
O63 C62 1.216 . S
H64 C59 0.930 . S
H65 C60 0.930 . S
O66 Cu46 1.959 . S
O66 C53 1.251 . S
H67 C50 0.930 . S
H68 C61 0.929 . S
Cu69 N70 1.999 . S
Cu69 O75 1.974 . S
Cu69 N80 1.985 . S
Cu69 O89 1.959 . S
N70 Cu69 1.999 . S
N70 C72 1.263 . S
N70 C74 1.389 . S
N71 C72 1.358 . S
N71 C73 1.400 . S
C72 N70 1.263 . S
C72 N71 1.358 . S
C72 H78 0.930 . S
C73 N71 1.400 . S
C73 C74 1.351 . S
C73 H90 0.930 . S
C74 N70 1.389 . S
C74 C73 1.351 . S
C74 H79 0.930 . S
O75 Cu69 1.974 . S
O75 C85 1.282 . S
C76 O77 1.261 . S
C76 O89 1.251 . S
O77 C76 1.261 . S
H78 C72 0.930 . S
H79 C74 0.930 . S
N80 Cu69 1.985 . S
N80 C82 1.335 . S
N80 C83 1.390 . S
N81 C82 1.345 . S
N81 C84 1.336 . S
C82 N80 1.335 . S
C82 N81 1.345 . S
C82 H87 0.930 . S
C83 N80 1.390 . S
C83 C84 1.346 . S
C83 H88 0.930 . S
C84 N81 1.336 . S
C84 C83 1.346 . S
C84 H91 0.929 . S
C85 O75 1.282 . S
C85 O86 1.216 . S
O86 C85 1.216 . S
H87 C82 0.930 . S
H88 C83 0.930 . S
O89 Cu69 1.959 . S
O89 C76 1.251 . S
H90 C73 0.930 . S
H91 C84 0.929 . S
Cu92 N93 1.999 . S
Cu92 O98 1.974 . S
Cu92 N103 1.985 . S
Cu92 O112 1.959 . S
N93 Cu92 1.999 . S
N93 C95 1.263 . S
N93 C97 1.389 . S
N94 C95 1.358 . S
N94 C96 1.400 . S
C95 N93 1.263 . S
C95 N94 1.358 . S
C95 H101 0.930 . S
C96 N94 1.400 . S
C96 C97 1.351 . S
C96 H113 0.930 . S
C97 N93 1.389 . S
C97 C96 1.351 . S
C97 H102 0.930 . S
O98 Cu92 1.974 . S
O98 C108 1.282 . S
C99 O100 1.261 . S
C99 O112 1.251 . S
O100 C99 1.261 . S
H101 C95 0.930 . S
H102 C97 0.930 . S
N103 Cu92 1.985 . S
N103 C105 1.335 . S
N103 C106 1.390 . S
N104 C105 1.345 . S
N104 C107 1.336 . S
C105 N103 1.335 . S
C105 N104 1.345 . S
C105 H110 0.930 . S
C106 N103 1.390 . S
C106 C107 1.346 . S
C106 H111 0.930 . S
C107 N104 1.336 . S
C107 C106 1.346 . S
C107 H114 0.929 . S
C108 O98 1.282 . S
C108 O109 1.216 . S
O109 C108 1.216 . S
H110 C105 0.930 . S
H111 C106 0.930 . S
O112 Cu92 1.959 . S
O112 C99 1.251 . S
H113 C96 0.930 . S
H114 C107 0.929 . S
Cu115 N116 1.999 . S
Cu115 O121 1.974 . S
Cu115 N126 1.985 . S
Cu115 O135 1.959 . S
N116 Cu115 1.999 . S
N116 C118 1.263 . S
N116 C120 1.389 . S
N117 C118 1.358 . S
N117 C119 1.400 . S
C118 N116 1.263 . S
C118 N117 1.358 . S
C118 H124 0.930 . S
C119 N117 1.400 . S
C119 C120 1.351 . S
C119 H136 0.930 . S
C120 N116 1.389 . S
C120 C119 1.351 . S
C120 H125 0.930 . S
O121 Cu115 1.974 . S
O121 C131 1.282 . S
C122 O123 1.261 . S
C122 O135 1.251 . S
O123 C122 1.261 . S
H124 C118 0.930 . S
H125 C120 0.930 . S
N126 Cu115 1.985 . S
N126 C128 1.335 . S
N126 C129 1.390 . S
N127 C128 1.345 . S
N127 C130 1.336 . S
C128 N126 1.335 . S
C128 N127 1.345 . S
C128 H133 0.930 . S
C129 N126 1.390 . S
C129 C130 1.346 . S
C129 H134 0.930 . S
C130 N127 1.336 . S
C130 C129 1.346 . S
C130 H137 0.929 . S
C131 O121 1.282 . S
C131 O132 1.216 . S
O132 C131 1.216 . S
H133 C128 0.930 . S
H134 C129 0.930 . S
O135 Cu115 1.959 . S
O135 C122 1.251 . S
H136 C119 0.930 . S
H137 C130 0.929 . S
Cu138 N139 1.999 . S
Cu138 O144 1.974 . S
Cu138 N149 1.985 . S
Cu138 O158 1.959 . S
N139 Cu138 1.999 . S
N139 C141 1.263 . S
N139 C143 1.389 . S
N140 C141 1.358 . S
N140 C142 1.400 . S
C141 N139 1.263 . S
C141 N140 1.358 . S
C141 H147 0.930 . S
C142 N140 1.400 . S
C142 C143 1.351 . S
C142 H159 0.930 . S
C143 N139 1.389 . S
C143 C142 1.351 . S
C143 H148 0.930 . S
O144 Cu138 1.974 . S
O144 C154 1.282 . S
C145 O146 1.261 . S
C145 O158 1.251 . S
O146 C145 1.261 . S
H147 C141 0.930 . S
H148 C143 0.930 . S
N149 Cu138 1.985 . S
N149 C151 1.335 . S
N149 C152 1.390 . S
N150 C151 1.345 . S
N150 C153 1.336 . S
C151 N149 1.335 . S
C151 N150 1.345 . S
C151 H156 0.930 1_655 S
C152 N149 1.390 . S
C152 C153 1.346 . S
C152 H157 0.930 . S
C153 N150 1.336 . S
C153 C152 1.346 . S
C153 H160 0.929 . S
C154 O144 1.282 . S
C154 O155 1.216 . S
O155 C154 1.216 . S
H156 C151 0.930 1_455 S
H157 C152 0.930 . S
O158 Cu138 1.959 . S
O158 C145 1.251 . S
H159 C142 0.930 . S
H160 C153 0.929 . S
Cu161 N162 1.999 . S
Cu161 O167 1.974 . S
Cu161 N172 1.985 . S
Cu161 O181 1.959 . S
N162 Cu161 1.999 . S
N162 C164 1.263 . S
N162 C166 1.389 . S
N163 C164 1.358 . S
N163 C165 1.400 . S
C164 N162 1.263 . S
C164 N163 1.358 . S
C164 H170 0.930 . S
C165 N163 1.400 . S
C165 C166 1.351 . S
C165 H182 0.930 . S
C166 N162 1.389 . S
C166 C165 1.351 . S
C166 H171 0.930 . S
O167 Cu161 1.974 . S
O167 C177 1.282 . S
C168 O169 1.261 . S
C168 O181 1.251 . S
O169 C168 1.261 . S
H170 C164 0.930 . S
H171 C166 0.930 . S
N172 Cu161 1.985 . S
N172 C174 1.335 . S
N172 C175 1.390 . S
N173 C174 1.345 . S
N173 C176 1.336 . S
C174 N172 1.335 . S
C174 N173 1.345 . S
C174 H179 0.930 1_545 S
C175 N172 1.390 . S
C175 C176 1.346 . S
C175 H180 0.930 . S
C176 N173 1.336 . S
C176 C175 1.346 . S
C176 H183 0.929 . S
C177 O167 1.282 . S
C177 O178 1.216 . S
O178 C177 1.216 . S
H179 C174 0.930 1_565 S
H180 C175 0.930 . S
O181 Cu161 1.959 . S
O181 C168 1.251 . S
H182 C165 0.930 . S
H183 C176 0.929 . S
Cu184 N185 1.999 . S
Cu184 O190 1.974 . S
Cu184 N195 1.985 . S
Cu184 O204 1.959 . S
N185 Cu184 1.999 . S
N185 C187 1.263 . S
N185 C189 1.389 . S
N186 C187 1.358 . S
N186 C188 1.400 . S
C187 N185 1.263 . S
C187 N186 1.358 . S
C187 H193 0.930 . S
C188 N186 1.400 . S
C188 C189 1.351 . S
C188 H205 0.930 . S
C189 N185 1.389 . S
C189 C188 1.351 . S
C189 H194 0.930 . S
O190 Cu184 1.974 . S
O190 C200 1.282 . S
C191 O192 1.261 . S
C191 O204 1.251 . S
O192 C191 1.261 . S
H193 C187 0.930 . S
H194 C189 0.930 . S
N195 Cu184 1.985 . S
N195 C197 1.335 . S
N195 C198 1.390 . S
N196 C197 1.345 . S
N196 C199 1.336 . S
C197 N195 1.335 . S
C197 N196 1.345 . S
C197 H202 0.930 . S
C198 N195 1.390 . S
C198 C199 1.346 . S
C198 H203 0.930 . S
C199 N196 1.336 . S
C199 C198 1.346 . S
C199 H206 0.929 . S
C200 O190 1.282 . S
C200 O201 1.216 . S
O201 C200 1.216 . S
H202 C197 0.930 . S
H203 C198 0.930 . S
O204 Cu184 1.959 . S
O204 C191 1.251 . S
H205 C188 0.930 . S
H206 C199 0.929 . S
Cu207 N208 1.999 . S
Cu207 O213 1.974 . S
Cu207 N218 1.985 . S
Cu207 O227 1.959 . S
N208 Cu207 1.999 . S
N208 C210 1.263 . S
N208 C212 1.389 . S
N209 C210 1.358 . S
N209 C211 1.400 . S
C210 N208 1.263 . S
C210 N209 1.358 . S
C210 H216 0.930 . S
C211 N209 1.400 . S
C211 C212 1.351 . S
C211 H228 0.930 . S
C212 N208 1.389 . S
C212 C211 1.351 . S
C212 H217 0.930 . S
O213 Cu207 1.974 . S
O213 C223 1.282 . S
C214 O215 1.261 . S
C214 O227 1.251 . S
O215 C214 1.261 . S
H216 C210 0.930 . S
H217 C212 0.930 . S
N218 Cu207 1.985 . S
N218 C220 1.335 . S
N218 C221 1.390 . S
N219 C220 1.345 . S
N219 C222 1.336 . S
C220 N218 1.335 . S
C220 N219 1.345 . S
C220 H225 0.930 . S
C221 N218 1.390 . S
C221 C222 1.346 . S
C221 H226 0.930 . S
C222 N219 1.336 . S
C222 C221 1.346 . S
C222 H229 0.929 . S
C223 O213 1.282 . S
C223 O224 1.216 . S
O224 C223 1.216 . S
H225 C220 0.930 . S
H226 C221 0.930 . S
O227 Cu207 1.959 . S
O227 C214 1.251 . S
H228 C211 0.930 . S
H229 C222 0.929 . S
Cu230 N231 1.999 . S
Cu230 O236 1.974 . S
Cu230 N241 1.985 . S
Cu230 O250 1.959 . S
N231 Cu230 1.999 . S
N231 C233 1.263 . S
N231 C235 1.389 . S
N232 C233 1.358 . S
N232 C234 1.400 . S
C233 N231 1.263 . S
C233 N232 1.358 . S
C233 H239 0.930 . S
C234 N232 1.400 . S
C234 C235 1.351 . S
C234 H251 0.930 . S
C235 N231 1.389 . S
C235 C234 1.351 . S
C235 H240 0.930 . S
O236 Cu230 1.974 . S
O236 C246 1.282 . S
C237 O238 1.261 . S
C237 O250 1.251 . S
O238 C237 1.261 . S
H239 C233 0.930 . S
H240 C235 0.930 . S
N241 Cu230 1.985 . S
N241 C243 1.335 . S
N241 C244 1.390 . S
N242 C243 1.345 . S
N242 C245 1.336 . S
C243 N241 1.335 . S
C243 N242 1.345 . S
C243 H248 0.930 . S
C244 N241 1.390 . S
C244 C245 1.346 . S
C244 H249 0.930 . S
C245 N242 1.336 . S
C245 C244 1.346 . S
C245 H252 0.929 . S
C246 O236 1.282 . S
C246 O247 1.216 . S
O247 C246 1.216 . S
H248 C243 0.930 . S
H249 C244 0.930 . S
O250 Cu230 1.959 . S
O250 C237 1.251 . S
H251 C234 0.930 . S
H252 C245 0.929 . S
Cu253 N254 1.999 . S
Cu253 O259 1.974 . S
Cu253 N264 1.985 . S
Cu253 O273 1.959 . S
N254 Cu253 1.999 . S
N254 C256 1.263 . S
N254 C258 1.389 . S
N255 C256 1.358 . S
N255 C257 1.400 . S
C256 N254 1.263 . S
C256 N255 1.358 . S
C256 H262 0.930 . S
C257 N255 1.400 . S
C257 C258 1.351 . S
C257 H274 0.930 . S
C258 N254 1.389 . S
C258 C257 1.351 . S
C258 H263 0.930 . S
O259 Cu253 1.974 . S
O259 C269 1.282 . S
C260 O261 1.261 . S
C260 O273 1.251 . S
O261 C260 1.261 . S
H262 C256 0.930 . S
H263 C258 0.930 . S
N264 Cu253 1.985 . S
N264 C266 1.335 . S
N264 C267 1.390 . S
N265 C266 1.345 . S
N265 C268 1.336 . S
C266 N264 1.335 . S
C266 N265 1.345 . S
C266 H271 0.930 . S
C267 N264 1.390 . S
C267 C268 1.346 . S
C267 H272 0.930 . S
C268 N265 1.336 . S
C268 C267 1.346 . S
C268 H275 0.929 . S
C269 O259 1.282 . S
C269 O270 1.216 . S
O270 C269 1.216 . S
H271 C266 0.930 . S
H272 C267 0.930 . S
O273 Cu253 1.959 . S
O273 C260 1.251 . S
H274 C257 0.930 . S
H275 C268 0.929 . S
C276 C277 1.387 . S
C276 H280 0.950 . S
C276 C285 1.390 . S
C277 C276 1.387 . S
C277 C279 1.387 . S
H278 C285 0.950 . S
C279 C277 1.387 . S
C279 C281 1.390 . S
C279 H283 0.950 . S
H280 C276 0.950 . S
C281 C279 1.390 . S
C281 C282 1.387 . S
C281 H284 0.950 . S
C282 C281 1.387 . S
C282 C285 1.387 . S
H283 C279 0.950 . S
H284 C281 0.950 . S
C285 C276 1.390 . S
C285 H278 0.950 . S
C285 C282 1.387 . S
C286 C287 1.387 . S
C286 H290 0.950 . S
C286 C295 1.390 . S
C287 C286 1.387 . S
C287 C289 1.387 . S
H288 C295 0.950 . S
C289 C287 1.387 . S
C289 C291 1.390 . S
C289 H293 0.950 . S
H290 C286 0.950 . S
C291 C289 1.390 . S
C291 C292 1.387 . S
C291 H294 0.950 . S
C292 C291 1.387 . S
C292 C295 1.387 . S
H293 C289 0.950 . S
H294 C291 0.950 . S
C295 C286 1.390 . S
C295 H288 0.950 . S
C295 C292 1.387 . S
C296 C297 1.387 . S
C296 H300 0.950 . S
C296 C305 1.390 . S
C297 C296 1.387 . S
C297 C299 1.387 . S
H298 C305 0.950 . S
C299 C297 1.387 . S
C299 C301 1.390 . S
C299 H303 0.950 . S
H300 C296 0.950 . S
C301 C299 1.390 . S
C301 C302 1.387 . S
C301 H304 0.950 . S
C302 C301 1.387 . S
C302 C305 1.387 . S
H303 C299 0.950 . S
H304 C301 0.950 . S
C305 C296 1.390 . S
C305 H298 0.950 . S
C305 C302 1.387 . S
C306 C307 1.387 . S
C306 H310 0.950 . S
C306 C315 1.390 . S
C307 C306 1.387 . S
C307 C309 1.387 . S
H308 C315 0.950 . S
C309 C307 1.387 . S
C309 C311 1.390 . S
C309 H313 0.950 . S
H310 C306 0.950 . S
C311 C309 1.390 . S
C311 C312 1.387 . S
C311 H314 0.950 . S
C312 C311 1.387 . S
C312 C315 1.387 . S
H313 C309 0.950 . S
H314 C311 0.950 . S
C315 C306 1.390 . S
C315 H308 0.950 . S
C315 C312 1.387 . S
C316 C317 1.387 . S
C316 H320 0.950 . S
C316 C325 1.390 . S
C317 C316 1.387 . S
C317 C319 1.387 . S
H318 C325 0.950 . S
C319 C317 1.387 . S
C319 C321 1.390 . S
C319 H323 0.950 . S
H320 C316 0.950 . S
C321 C319 1.390 . S
C321 C322 1.387 . S
C321 H324 0.950 . S
C322 C321 1.387 . S
C322 C325 1.387 . S
H323 C319 0.950 . S
H324 C321 0.950 . S
C325 C316 1.390 . S
C325 H318 0.950 . S
C325 C322 1.387 . S
C326 C327 1.387 . S
C326 H330 0.950 . S
C326 C335 1.390 . S
C327 C326 1.387 . S
C327 C329 1.387 . S
H328 C335 0.950 . S
C329 C327 1.387 . S
C329 C331 1.390 . S
C329 H333 0.950 . S
H330 C326 0.950 . S
C331 C329 1.390 . S
C331 C332 1.387 . S
C331 H334 0.950 . S
C332 C331 1.387 . S
C332 C335 1.387 . S
H333 C329 0.950 . S
H334 C331 0.950 . S
C335 C326 1.390 . S
C335 H328 0.950 . S
C335 C332 1.387 . S
C336 C337 1.387 . S
C336 H340 0.950 . S
C336 C345 1.390 . S
C337 C336 1.387 . S
C337 C339 1.387 . S
H338 C345 0.950 . S
C339 C337 1.387 . S
C339 C341 1.390 . S
C339 H343 0.950 . S
H340 C336 0.950 . S
C341 C339 1.390 . S
C341 C342 1.387 . S
C341 H344 0.950 . S
C342 C341 1.387 . S
C342 C345 1.387 . S
H343 C339 0.950 . S
H344 C341 0.950 . S
C345 C336 1.390 . S
C345 H338 0.950 . S
C345 C342 1.387 . S
C346 C347 1.387 . S
C346 H350 0.950 . S
C346 C355 1.390 . S
C347 C346 1.387 . S
C347 C349 1.387 . S
H348 C355 0.950 . S
C349 C347 1.387 . S
C349 C351 1.390 . S
C349 H353 0.950 . S
H350 C346 0.950 . S
C351 C349 1.390 . S
C351 C352 1.387 . S
C351 H354 0.950 . S
C352 C351 1.387 . S
C352 C355 1.387 . S
H353 C349 0.950 . S
H354 C351 0.950 . S
C355 C346 1.390 . S
C355 H348 0.950 . S
C355 C352 1.387 . S
C356 C357 1.387 . S
C356 H360 0.950 . S
C356 C365 1.390 . S
C357 C356 1.387 . S
C357 C359 1.387 . S
H358 C365 0.950 . S
C359 C357 1.387 . S
C359 C361 1.390 . S
C359 H363 0.950 . S
H360 C356 0.950 . S
C361 C359 1.390 . S
C361 C362 1.387 . S
C361 H364 0.950 . S
C362 C361 1.387 . S
C362 C365 1.387 . S
H363 C359 0.950 . S
H364 C361 0.950 . S
C365 C356 1.390 . S
C365 H358 0.950 . S
C365 C362 1.387 . S
C366 C367 1.387 . S
C366 H370 0.950 . S
C366 C375 1.390 . S
C367 C366 1.387 . S
C367 C369 1.387 . S
H368 C375 0.950 . S
C369 C367 1.387 . S
C369 C371 1.390 . S
C369 H373 0.950 . S
H370 C366 0.950 . S
C371 C369 1.390 . S
C371 C372 1.387 . S
C371 H374 0.950 . S
C372 C371 1.387 . S
C372 C375 1.387 . S
H373 C369 0.950 . S
H374 C371 0.950 . S
C375 C366 1.390 . S
C375 H368 0.950 . S
C375 C372 1.387 . S
C376 C377 1.387 . S
C376 H380 0.950 . S
C376 C385 1.390 . S
C377 C376 1.387 . S
C377 C379 1.387 . S
H378 C385 0.950 . S
C379 C377 1.387 . S
C379 C381 1.390 . S
C379 H383 0.950 . S
H380 C376 0.950 . S
C381 C379 1.390 . S
C381 C382 1.387 . S
C381 H384 0.950 . S
C382 C381 1.387 . S
C382 C385 1.387 . S
H383 C379 0.950 . S
H384 C381 0.950 . S
C385 C376 1.390 . S
C385 H378 0.950 . S
C385 C382 1.387 . S
C386 C387 1.387 . S
C386 H390 0.950 . S
C386 C395 1.390 . S
C387 C386 1.387 . S
C387 C389 1.387 . S
H388 C395 0.950 . S
C389 C387 1.387 . S
C389 C391 1.390 . S
C389 H393 0.950 . S
H390 C386 0.950 . S
C391 C389 1.390 . S
C391 C392 1.387 . S
C391 H394 0.950 . S
C392 C391 1.387 . S
C392 C395 1.387 . S
H393 C389 0.950 . S
H394 C391 0.950 . S
C395 C386 1.390 . S
C395 H388 0.950 . S
C395 C392 1.387 . S
C396 C397 1.387 . S
C396 H400 0.950 . S
C396 C405 1.390 1_655 S
C397 C396 1.387 . S
C397 C399 1.387 . S
H398 C405 0.950 . S
C399 C397 1.387 . S
C399 C401 1.390 1_655 S
C399 H403 0.950 . S
H400 C396 0.950 . S
C401 C399 1.390 1_455 S
C401 C402 1.387 . S
C401 H404 0.950 . S
C402 C401 1.387 . S
C402 C405 1.387 . S
H403 C399 0.950 . S
H404 C401 0.950 . S
C405 C396 1.390 1_455 S
C405 H398 0.950 . S
C405 C402 1.387 . S
C406 C407 1.387 . S
C406 H410 0.950 . S
C406 C415 1.390 . S
C407 C406 1.387 . S
C407 C409 1.387 . S
H408 C415 0.950 . S
C409 C407 1.387 . S
C409 C411 1.390 . S
C409 H413 0.950 . S
H410 C406 0.950 . S
C411 C409 1.390 . S
C411 C412 1.387 . S
C411 H414 0.950 . S
C412 C411 1.387 . S
C412 C415 1.387 . S
H413 C409 0.950 . S
H414 C411 0.950 . S
C415 C406 1.390 . S
C415 H408 0.950 . S
C415 C412 1.387 . S
C416 C417 1.387 . S
C416 H420 0.950 . S
C416 C425 1.390 1_455 S
C417 C416 1.387 . S
C417 C419 1.387 1_455 S
H418 C425 0.950 . S
C419 C417 1.387 1_655 S
C419 C421 1.390 . S
C419 H423 0.950 . S
H420 C416 0.950 . S
C421 C419 1.390 . S
C421 C422 1.387 . S
C421 H424 0.950 . S
C422 C421 1.387 . S
C422 C425 1.387 . S
H423 C419 0.950 . S
H424 C421 0.950 . S
C425 C416 1.390 1_655 S
C425 H418 0.950 . S
C425 C422 1.387 . S
C426 C427 1.387 . S
C426 H430 0.950 . S
C426 C435 1.390 . S
C427 C426 1.387 . S
C427 C429 1.387 1_545 S
H428 C435 0.950 . S
C429 C427 1.387 1_565 S
C429 C431 1.390 . S
C429 H433 0.950 . S
H430 C426 0.950 . S
C431 C429 1.390 . S
C431 C432 1.387 . S
C431 H434 0.950 . S
C432 C431 1.387 . S
C432 C435 1.387 1_565 S
H433 C429 0.950 . S
H434 C431 0.950 . S
C435 C426 1.390 . S
C435 H428 0.950 . S
C435 C432 1.387 1_545 S
C436 C437 1.387 . S
C436 H440 0.950 . S
C436 C445 1.390 . S
C437 C436 1.387 . S
C437 C439 1.387 . S
H438 C445 0.950 . S
C439 C437 1.387 . S
C439 C441 1.390 . S
C439 H443 0.950 . S
H440 C436 0.950 . S
C441 C439 1.390 . S
C441 C442 1.387 . S
C441 H444 0.950 . S
C442 C441 1.387 . S
C442 C445 1.387 . S
H443 C439 0.950 . S
H444 C441 0.950 . S
C445 C436 1.390 . S
C445 H438 0.950 . S
C445 C442 1.387 . S
C446 C447 1.387 . S
C446 H450 0.950 . S
C446 C455 1.390 . S
C447 C446 1.387 . S
C447 C449 1.387 . S
H448 C455 0.950 . S
C449 C447 1.387 . S
C449 C451 1.390 . S
C449 H453 0.950 . S
H450 C446 0.950 . S
C451 C449 1.390 . S
C451 C452 1.387 . S
C451 H454 0.950 1_455 S
C452 C451 1.387 . S
C452 C455 1.387 . S
H453 C449 0.950 . S
H454 C451 0.950 1_655 S
C455 C446 1.390 . S
C455 H448 0.950 . S
C455 C452 1.387 . S
C456 C457 1.387 1_545 S
C456 H460 0.950 . S
C456 C465 1.390 . S
C457 C456 1.387 1_565 S
C457 C459 1.387 . S
H458 C465 0.950 . S
C459 C457 1.387 . S
C459 C461 1.390 . S
C459 H463 0.950 . S
H460 C456 0.950 . S
C461 C459 1.390 . S
C461 C462 1.387 . S
C461 H464 0.950 . S
C462 C461 1.387 . S
C462 C465 1.387 1_565 S
H463 C459 0.950 . S
H464 C461 0.950 . S
C465 C456 1.390 . S
C465 H458 0.950 . S
C465 C462 1.387 1_545 S
C466 C467 1.387 . S
C466 H470 0.950 1_655 S
C466 C475 1.390 1_655 S
C467 C466 1.387 . S
C467 C469 1.387 . S
H468 C475 0.950 . S
C469 C467 1.387 . S
C469 C471 1.390 . S
C469 H473 0.950 . S
H470 C466 0.950 1_455 S
C471 C469 1.390 . S
C471 C472 1.387 . S
C471 H474 0.950 . S
C472 C471 1.387 . S
C472 C475 1.387 1_655 S
H473 C469 0.950 . S
H474 C471 0.950 . S
C475 C466 1.390 1_455 S
C475 H468 0.950 . S
C475 C472 1.387 1_455 S
C476 C477 1.387 . S
C476 H480 0.950 . S
C476 C485 1.390 . S
C477 C476 1.387 . S
C477 C479 1.387 1_554 S
H478 C485 0.950 . S
C479 C477 1.387 1_556 S
C479 C481 1.390 . S
C479 H483 0.950 . S
H480 C476 0.950 . S
C481 C479 1.390 . S
C481 C482 1.387 1_556 S
C481 H484 0.950 . S
C482 C481 1.387 1_554 S
C482 C485 1.387 . S
H483 C479 0.950 . S
H484 C481 0.950 . S
C485 C476 1.390 . S
C485 H478 0.950 . S
C485 C482 1.387 . S
C486 C487 1.387 1_554 S
C486 H490 0.948 1_554 S
C486 C495 1.392 . S
C487 C486 1.387 1_556 S
C487 C489 1.387 . S
H488 C495 0.950 . S
C489 C487 1.387 . S
C489 C491 1.390 1_556 S
C489 H493 0.950 . S
H490 C486 0.948 1_556 S
C491 C489 1.390 1_554 S
C491 C492 1.387 . S
C491 H494 0.950 . S
C492 C491 1.387 . S
C492 C495 1.387 . S
H493 C489 0.950 . S
H494 C491 0.950 . S
C495 C486 1.392 . S
C495 H488 0.950 . S
C495 C492 1.387 . S
C496 C497 1.387 . S
C496 H500 0.950 . S
C496 C505 1.390 . S
C497 C496 1.387 . S
C497 C499 1.387 . S
H498 C505 0.950 1_554 S
C499 C497 1.387 . S
C499 C501 1.390 . S
C499 H503 0.950 . S
H500 C496 0.950 . S
C501 C499 1.390 . S
C501 C502 1.387 1_556 S
C501 H504 0.950 . S
C502 C501 1.387 1_554 S
C502 C505 1.387 1_554 S
H503 C499 0.950 . S
H504 C501 0.950 . S
C505 C496 1.390 . S
C505 H498 0.950 1_556 S
C505 C502 1.387 1_556 S
C506 C507 1.387 . S
C506 H510 0.950 . S
C506 C515 1.390 1_554 S
C507 C506 1.387 . S
C507 C509 1.387 . S
H508 C515 0.950 . S
C509 C507 1.387 . S
C509 C511 1.390 1_554 S
C509 H513 0.950 . S
H510 C506 0.950 . S
C511 C509 1.390 1_556 S
C511 C512 1.387 . S
C511 H514 0.950 . S
C512 C511 1.387 . S
C512 C515 1.387 . S
H513 C509 0.950 . S
H514 C511 0.950 . S
C515 C506 1.390 1_556 S
C515 H508 0.950 . S
C515 C512 1.387 . S
C277 N12 1.455 . S
C282 C177 1.508 . S
C287 N25 1.422 . S
C292 C108 1.458 . S
C297 N117 1.439 . S
C302 C62 1.476 . S
C307 N140 1.359 . S
C312 N71 1.359 . S
C317 N186 1.361 . S
C322 N163 1.357 . S
C327 C223 1.476 . S
C332 N94 1.457 . S
C337 N242 1.528 . S
C342 C131 1.532 . S
C347 C260 1.682 . S
C352 C154 1.694 . S
C357 C39 1.533 . S
C362 N209 1.531 . S
C367 C237 1.473 . S
C372 N48 1.468 . S
C377 C85 1.467 . S
C382 N265 1.449 . S
C387 C200 1.658 . S
C392 C7 1.657 . S
C397 C145 1.572 . S
C402 C16 1.537 . S
C407 N173 1.748 1_565 S
C412 C30 1.838 . S
C417 N104 1.335 . S
C422 N58 1.329 . S
C427 C76 1.953 . S
C432 C122 1.948 . S
C437 C168 1.606 . S
C442 N127 1.556 1_545 S
C447 C99 1.797 . S
C452 N150 1.702 1_455 S
C457 N81 1.440 1_565 S
C462 N35 1.470 . S
C467 C53 1.796 . S
C472 N2 1.758 1_655 S
C477 N196 1.407 . S
C482 N219 1.412 1_554 S
C487 C214 1.836 . S
C492 C246 1.858 . S
C497 N255 1.394 . S
C502 N232 1.398 . S
C507 C191 1.764 . S
C512 C269 1.778 . S
