# Generated by pormake.
# Topology gis, (4)-cn, num edge types: 1
# Building blocks:
#     Node 0, Type 0, BuildingBlock: KUFVIS_clean_sbu_0, # of connection points: 4
#     Node 1, Type 0, BuildingBlock: KUFVIS_clean_sbu_0, # of connection points: 4
#     Node 2, Type 0, BuildingBlock: KUFVIS_clean_sbu_0, # of connection points: 4
#     Node 3, Type 0, BuildingBlock: KUFVIS_clean_sbu_0, # of connection points: 4
#     Node 4, Type 0, BuildingBlock: KUFVIS_clean_sbu_0, # of connection points: 4
#     Node 5, Type 0, BuildingBlock: KUFVIS_clean_sbu_0, # of connection points: 4
#     Node 6, Type 0, BuildingBlock: KUFVIS_clean_sbu_0, # of connection points: 4
#     Node 7, Type 0, BuildingBlock: KUFVIS_clean_sbu_0, # of connection points: 4
#     Node 8, Type 0, BuildingBlock: KUFVIS_clean_sbu_0, # of connection points: 4
#     Node 9, Type 0, BuildingBlock: KUFVIS_clean_sbu_0, # of connection points: 4
#     Node 10, Type 0, BuildingBlock: KUFVIS_clean_sbu_0, # of connection points: 4
#     Node 11, Type 0, BuildingBlock: KUFVIS_clean_sbu_0, # of connection points: 4
#     Node 12, Type 0, BuildingBlock: KUFVIS_clean_sbu_0, # of connection points: 4
#     Node 13, Type 0, BuildingBlock: KUFVIS_clean_sbu_0, # of connection points: 4
#     Node 14, Type 0, BuildingBlock: KUFVIS_clean_sbu_0, # of connection points: 4
#     Node 15, Type 0, BuildingBlock: KUFVIS_clean_sbu_0, # of connection points: 4
#     Edge 16, Type (0, 0), BuildingBlock: UVAHIK_clean_linker_0, # of connection points: 2
#     Edge 17, Type (0, 0), BuildingBlock: UVAHIK_clean_linker_0, # of connection points: 2
#     Edge 18, Type (0, 0), BuildingBlock: UVAHIK_clean_linker_0, # of connection points: 2
#     Edge 19, Type (0, 0), BuildingBlock: UVAHIK_clean_linker_0, # of connection points: 2
#     Edge 20, Type (0, 0), BuildingBlock: UVAHIK_clean_linker_0, # of connection points: 2
#     Edge 21, Type (0, 0), BuildingBlock: UVAHIK_clean_linker_0, # of connection points: 2
#     Edge 22, Type (0, 0), BuildingBlock: UVAHIK_clean_linker_0, # of connection points: 2
#     Edge 23, Type (0, 0), BuildingBlock: UVAHIK_clean_linker_0, # of connection points: 2
#     Edge 24, Type (0, 0), BuildingBlock: UVAHIK_clean_linker_0, # of connection points: 2
#     Edge 25, Type (0, 0), BuildingBlock: UVAHIK_clean_linker_0, # of connection points: 2
#     Edge 26, Type (0, 0), BuildingBlock: UVAHIK_clean_linker_0, # of connection points: 2
#     Edge 27, Type (0, 0), BuildingBlock: UVAHIK_clean_linker_0, # of connection points: 2
#     Edge 28, Type (0, 0), BuildingBlock: UVAHIK_clean_linker_0, # of connection points: 2
#     Edge 29, Type (0, 0), BuildingBlock: UVAHIK_clean_linker_0, # of connection points: 2
#     Edge 30, Type (0, 0), BuildingBlock: UVAHIK_clean_linker_0, # of connection points: 2
#     Edge 31, Type (0, 0), BuildingBlock: UVAHIK_clean_linker_0, # of connection points: 2
#     Edge 32, Type (0, 0), BuildingBlock: UVAHIK_clean_linker_0, # of connection points: 2
#     Edge 33, Type (0, 0), BuildingBlock: UVAHIK_clean_linker_0, # of connection points: 2
#     Edge 34, Type (0, 0), BuildingBlock: UVAHIK_clean_linker_0, # of connection points: 2
#     Edge 35, Type (0, 0), BuildingBlock: UVAHIK_clean_linker_0, # of connection points: 2
#     Edge 36, Type (0, 0), BuildingBlock: UVAHIK_clean_linker_0, # of connection points: 2
#     Edge 37, Type (0, 0), BuildingBlock: UVAHIK_clean_linker_0, # of connection points: 2
#     Edge 38, Type (0, 0), BuildingBlock: UVAHIK_clean_linker_0, # of connection points: 2
#     Edge 39, Type (0, 0), BuildingBlock: UVAHIK_clean_linker_0, # of connection points: 2
#     Edge 40, Type (0, 0), BuildingBlock: UVAHIK_clean_linker_0, # of connection points: 2
#     Edge 41, Type (0, 0), BuildingBlock: UVAHIK_clean_linker_0, # of connection points: 2
#     Edge 42, Type (0, 0), BuildingBlock: UVAHIK_clean_linker_0, # of connection points: 2
#     Edge 43, Type (0, 0), BuildingBlock: UVAHIK_clean_linker_0, # of connection points: 2
#     Edge 44, Type (0, 0), BuildingBlock: UVAHIK_clean_linker_0, # of connection points: 2
#     Edge 45, Type (0, 0), BuildingBlock: UVAHIK_clean_linker_0, # of connection points: 2
#     Edge 46, Type (0, 0), BuildingBlock: UVAHIK_clean_linker_0, # of connection points: 2
#     Edge 47, Type (0, 0), BuildingBlock: UVAHIK_clean_linker_0, # of connection points: 2
# Relax obj value: 0.088
# Max RMSD: 0.145
# Mean RMSD: 0.139
data_MOF--net-gis--node1-KUFVIS_clean_sbu_0--edge1-UVAHIK_clean_linker_0
_symmetry_space_group_name_H-M    P1
_symmetry_Int_Tables_number       1
_symmetry_cell_setting            triclinic
loop_
_symmetry_equiv_pos_as_xyz
'x, y, z'
_cell_length_a     64.295606
_cell_length_b     69.656528
_cell_length_c     49.23858
_cell_angle_alpha  90.481365
_cell_angle_beta   90.177088
_cell_angle_gamma 90.117425
loop_
_atom_site_label
_atom_site_type_symbol
_atom_site_fract_x
_atom_site_fract_y
_atom_site_fract_z
_atom_type_partial_charge
Mn0 Mn 0.14107 0.60667 0.10668 0.0
Mn1 Mn 0.11753 0.62633 0.16122 0.0
C2 C 0.10575 0.61168 0.10554 0.0
C3 C 0.1537 0.57891 0.08625 0.0
C4 C 0.14363 0.64909 0.12124 0.0
O5 O 0.16254 0.60453 0.13661 0.0
O6 O 0.14412 0.61427 0.17305 0.0
C7 C 0.10747 0.59108 0.19163 0.0
N8 N 0.10114 0.60754 0.17943 0.0
C9 C 0.06549 0.60161 0.19155 0.0
C10 C 0.07164 0.58465 0.20443 0.0
C11 C 0.09272 0.57935 0.20441 0.0
C12 C 0.0809 0.61278 0.1793 0.0
H13 H 0.12365 0.58693 0.19155 0.0
C14 C 0.16054 0.60728 0.16208 0.0
O15 O 0.16094 0.59565 0.07953 0.0
O16 O 0.13923 0.57844 0.10446 0.0
N17 N 0.09163 0.63844 0.15279 0.0
C18 C 0.08813 0.65462 0.13812 0.0
C19 C 0.06773 0.66153 0.13534 0.0
C20 C 0.0512 0.65183 0.14783 0.0
C21 C 0.05522 0.63535 0.1631 0.0
C22 C 0.07588 0.62921 0.16532 0.0
H23 H 0.10077 0.66213 0.12845 0.0
O24 O 0.116 0.60909 0.08315 0.0
O25 O 0.11647 0.61076 0.12796 0.0
O26 O 0.14681 0.63564 0.10395 0.0
O27 O 0.13367 0.64674 0.14341 0.0
C28 C 0.03949 0.62452 0.1757 0.0
C29 C 0.04462 0.60765 0.1899 0.0
H30 H 0.06029 0.5755 0.21416 0.0
H31 H 0.09757 0.56622 0.21417 0.0
H32 H 0.06475 0.67426 0.1235 0.0
H33 H 0.03546 0.65708 0.14538 0.0
H34 H 0.02336 0.62887 0.17424 0.0
H35 H 0.03235 0.59929 0.19915 0.0
Mn36 Mn 0.65229 0.88075 0.38385 0.0
Mn37 Mn 0.64479 0.8613 0.44555 0.0
C38 C 0.65114 0.84783 0.38815 0.0
C39 C 0.67507 0.89347 0.35213 0.0
C40 C 0.61021 0.87929 0.41213 0.0
O41 O 0.65772 0.903 0.40984 0.0
O42 O 0.65586 0.88783 0.44996 0.0
C43 C 0.68873 0.85882 0.46323 0.0
N44 N 0.67014 0.85012 0.45807 0.0
C45 C 0.6837 0.81934 0.47105 0.0
C46 C 0.70296 0.828 0.47667 0.0
C47 C 0.7055 0.84782 0.47268 0.0
C48 C 0.66757 0.83104 0.46166 0.0
H49 H 0.69075 0.87404 0.4601 0.0
C50 C 0.65941 0.90277 0.43565 0.0
O51 O 0.65544 0.89784 0.35183 0.0
O52 O 0.68138 0.8819 0.37093 0.0
N53 N 0.63418 0.83561 0.44458 0.0
C54 C 0.61471 0.82943 0.43775 0.0
C55 C 0.60959 0.80995 0.44059 0.0
C56 C 0.62446 0.79706 0.45064 0.0
C57 C 0.64432 0.80378 0.45779 0.0
C58 C 0.64844 0.8234 0.45483 0.0
H59 H 0.60316 0.83928 0.4302 0.0
O60 O 0.64825 0.85565 0.36463 0.0
O61 O 0.65511 0.85948 0.40827 0.0
O62 O 0.62104 0.88277 0.39104 0.0
O63 O 0.61778 0.87201 0.43377 0.0
C64 C 0.66023 0.79177 0.46755 0.0
C65 C 0.67994 0.79953 0.47406 0.0
H66 H 0.71594 0.81956 0.48391 0.0
H67 H 0.72034 0.85459 0.47686 0.0
H68 H 0.59422 0.80487 0.43507 0.0
H69 H 0.62046 0.78205 0.45279 0.0
H70 H 0.65755 0.77652 0.46986 0.0
H71 H 0.69212 0.79012 0.48126 0.0
Mn72 Mn 0.34197 0.39475 0.60533 0.0
Mn73 Mn 0.36586 0.37723 0.66068 0.0
C74 C 0.37743 0.38972 0.60452 0.0
C75 C 0.32914 0.42148 0.58301 0.0
C76 C 0.33936 0.35313 0.62208 0.0
O77 O 0.3206 0.39801 0.63536 0.0
O78 O 0.34003 0.39063 0.67193 0.0
C79 C 0.37749 0.41345 0.68874 0.0
N80 N 0.3831 0.39632 0.67745 0.0
C81 C 0.41897 0.4014 0.68963 0.0
C82 C 0.41357 0.41905 0.70152 0.0
C83 C 0.39275 0.42513 0.70098 0.0
C84 C 0.40311 0.3904 0.67766 0.0
H85 H 0.36149 0.41814 0.68841 0.0
C86 C 0.32335 0.39703 0.66098 0.0
O87 O 0.32188 0.40442 0.57766 0.0
O88 O 0.34362 0.42286 0.60129 0.0
N89 N 0.39125 0.36408 0.6526 0.0
C90 C 0.39404 0.34715 0.63904 0.0
C91 C 0.4141 0.33934 0.63699 0.0
C92 C 0.43103 0.34889 0.64916 0.0
C93 C 0.42774 0.36618 0.66327 0.0
C94 C 0.40741 0.37327 0.66463 0.0
H95 H 0.38109 0.33966 0.6298 0.0
O96 O 0.36716 0.39152 0.58197 0.0
O97 O 0.3667 0.39147 0.6267 0.0
O98 O 0.33655 0.36581 0.60391 0.0
O99 O 0.34888 0.35637 0.6445 0.0
C100 C 0.44387 0.37675 0.67581 0.0
C101 C 0.43951 0.39438 0.68888 0.0
H102 H 0.4253 0.42811 0.71096 0.0
H103 H 0.38847 0.43877 0.71001 0.0
H104 H 0.41651 0.32599 0.62608 0.0
H105 H 0.4465 0.34287 0.64743 0.0
H106 H 0.45975 0.37159 0.67515 0.0
H107 H 0.4521 0.40253 0.69804 0.0
Mn108 Mn 0.85748 0.10231 0.88858 0.0
Mn109 Mn 0.88585 0.11726 0.83535 0.0
C110 C 0.89316 0.104 0.89247 0.0
C111 C 0.8404 0.07725 0.9099 0.0
C112 C 0.8606 0.144 0.87155 0.0
O113 O 0.83734 0.10087 0.85678 0.0
O114 O 0.85884 0.10699 0.82182 0.0
C115 C 0.89368 0.0799 0.80825 0.0
N116 N 0.90107 0.09636 0.81989 0.0
C117 C 0.93645 0.08734 0.81048 0.0
C118 C 0.92922 0.07034 0.79824 0.0
C119 C 0.90774 0.06657 0.79722 0.0
C120 C 0.9217 0.10003 0.82125 0.0
H121 H 0.87718 0.077 0.80739 0.0
C122 C 0.84111 0.10215 0.83144 0.0
O123 O 0.83517 0.09498 0.91458 0.0
O124 O 0.85545 0.07415 0.89298 0.0
N125 N 0.91244 0.12758 0.84533 0.0
C126 C 0.91689 0.14431 0.8587 0.0
C127 C 0.93772 0.15 0.86199 0.0
C128 C 0.95373 0.1386 0.85117 0.0
C129 C 0.94875 0.12161 0.83712 0.0
C130 C 0.92771 0.11665 0.83451 0.0
H131 H 0.90466 0.15323 0.86685 0.0
O132 O 0.88169 0.10334 0.91407 0.0
O133 O 0.88341 0.10309 0.86933 0.0
O134 O 0.85523 0.13167 0.88925 0.0
O135 O 0.87112 0.1398 0.85033 0.0
C136 C 0.96383 0.10932 0.82578 0.0
C137 C 0.9577 0.09213 0.81263 0.0
H138 H 0.94001 0.06003 0.78968 0.0
H139 H 0.90205 0.05344 0.7879 0.0
H140 H 0.94143 0.16316 0.8728 0.0
H141 H 0.96978 0.143 0.85384 0.0
H142 H 0.98022 0.11282 0.82739 0.0
H143 H 0.96947 0.08264 0.8044 0.0
Mn144 Mn 0.15183 0.37981 0.89251 0.0
Mn145 Mn 0.14609 0.35734 0.95257 0.0
C146 C 0.15174 0.34683 0.89369 0.0
C147 C 0.17298 0.39483 0.86103 0.0
C148 C 0.1101 0.37457 0.92127 0.0
O149 O 0.15707 0.40102 0.91992 0.0
O150 O 0.15458 0.38458 0.95887 0.0
C151 C 0.19033 0.35811 0.96937 0.0
N152 N 0.17262 0.348 0.96396 0.0
C153 C 0.18937 0.31817 0.97485 0.0
C154 C 0.20775 0.32827 0.98072 0.0
C155 C 0.20824 0.34832 0.97789 0.0
C156 C 0.17202 0.3287 0.9664 0.0
H157 H 0.1908 0.37351 0.96715 0.0
C158 C 0.15801 0.40005 0.94569 0.0
O159 O 0.15319 0.39845 0.86217 0.0
O160 O 0.18042 0.38263 0.87828 0.0
N161 N 0.13807 0.33089 0.95023 0.0
C162 C 0.1192 0.32326 0.94344 0.0
C163 C 0.11615 0.30333 0.945 0.0
C164 C 0.13242 0.29148 0.95387 0.0
C165 C 0.15155 0.2997 0.96133 0.0
C166 C 0.15364 0.31966 0.9595 0.0
H167 H 0.10664 0.33227 0.9366 0.0
O168 O 0.1481 0.35574 0.87115 0.0
O169 O 0.15603 0.35748 0.91486 0.0
O170 O 0.12078 0.38046 0.90117 0.0
O171 O 0.118 0.36602 0.94173 0.0
C172 C 0.1687 0.28884 0.9702 0.0
C173 C 0.18763 0.29806 0.97682 0.0
H174 H 0.2216 0.32077 0.98728 0.0
H175 H 0.2224 0.3562 0.98226 0.0
H176 H 0.10132 0.2971 0.93928 0.0
H177 H 0.13008 0.27609 0.9548 0.0
H178 H 0.16755 0.27338 0.97178 0.0
H179 H 0.20077 0.28954 0.98334 0.0
Mn180 Mn 0.85268 0.8948 0.10158 0.0
Mn181 Mn 0.87895 0.88224 0.15803 0.0
C182 C 0.88846 0.89277 0.10022 0.0
C183 C 0.83654 0.91857 0.07638 0.0
C184 C 0.85515 0.85393 0.12234 0.0
O185 O 0.83132 0.89766 0.13169 0.0
O186 O 0.85157 0.89319 0.16846 0.0
C187 C 0.88593 0.92077 0.18222 0.0
N188 N 0.89366 0.90382 0.1727 0.0
C189 C 0.92864 0.91324 0.18419 0.0
C190 C 0.92105 0.93076 0.19425 0.0
C191 C 0.89961 0.93457 0.19315 0.0
C192 C 0.91428 0.90009 0.17341 0.0
H193 H 0.86945 0.9237 0.18147 0.0
C194 C 0.83421 0.89764 0.15733 0.0
O195 O 0.83135 0.90064 0.07345 0.0
O196 O 0.85094 0.92264 0.09403 0.0
N197 N 0.90583 0.87151 0.15115 0.0
C198 C 0.91071 0.85423 0.13968 0.0
C199 C 0.9316 0.84841 0.13861 0.0
C200 C 0.9472 0.86027 0.1497 0.0
C201 C 0.94176 0.87784 0.1618 0.0
C202 C 0.9207 0.8829 0.16223 0.0
H203 H 0.89878 0.84496 0.13134 0.0
O204 O 0.8777 0.89254 0.07789 0.0
O205 O 0.878 0.89487 0.12262 0.0
O206 O 0.85042 0.86556 0.10344 0.0
O207 O 0.86473 0.85896 0.14407 0.0
C208 C 0.95644 0.89061 0.17325 0.0
C209 C 0.94991 0.90837 0.18424 0.0
H210 H 0.93155 0.94143 0.20273 0.0
H211 H 0.89364 0.94808 0.20079 0.0
H212 H 0.93566 0.83481 0.12929 0.0
H213 H 0.9633 0.85578 0.14874 0.0
H214 H 0.97282 0.88702 0.17339 0.0
H215 H 0.96138 0.9182 0.19257 0.0
Mn216 Mn 0.35859 0.60424 0.38462 0.0
Mn217 Mn 0.38592 0.62019 0.33096 0.0
C218 C 0.39377 0.60904 0.38902 0.0
C219 C 0.34388 0.57845 0.40723 0.0
C220 C 0.3585 0.64573 0.36593 0.0
O221 O 0.339 0.60037 0.35284 0.0
O222 O 0.35959 0.60818 0.31766 0.0
C223 C 0.39628 0.58279 0.30555 0.0
N224 N 0.40255 0.59986 0.3165 0.0
C225 C 0.43856 0.59217 0.30894 0.0
C226 C 0.43248 0.57456 0.29739 0.0
C227 C 0.41125 0.56983 0.29575 0.0
C228 C 0.42294 0.60452 0.31829 0.0
H229 H 0.37998 0.57908 0.30437 0.0
C230 C 0.34245 0.60193 0.32749 0.0
O231 O 0.33666 0.59574 0.41048 0.0
O232 O 0.3594 0.57627 0.39075 0.0
N233 N 0.41176 0.63218 0.34062 0.0
C234 C 0.41505 0.6494 0.35327 0.0
C235 C 0.43549 0.65612 0.35694 0.0
C236 C 0.4523 0.64516 0.34739 0.0
C237 C 0.44851 0.6276 0.33414 0.0
C238 C 0.4278 0.62173 0.33083 0.0
H239 H 0.4022 0.65792 0.3606 0.0
O240 O 0.38215 0.60798 0.41045 0.0
O241 O 0.3845 0.60667 0.36569 0.0
O242 O 0.35367 0.63324 0.38366 0.0
O243 O 0.36966 0.64212 0.34505 0.0
C244 C 0.46449 0.61554 0.32449 0.0
C245 C 0.45952 0.59782 0.31197 0.0
H246 H 0.44398 0.56449 0.28991 0.0
H247 H 0.40645 0.55622 0.28699 0.0
H248 H 0.43828 0.6697 0.36718 0.0
H249 H 0.46804 0.65032 0.35044 0.0
H250 H 0.48065 0.61964 0.32694 0.0
H251 H 0.47194 0.58856 0.30496 0.0
Mn252 Mn 0.64806 0.11046 0.59588 0.0
Mn253 Mn 0.62516 0.13174 0.6497 0.0
C254 C 0.61286 0.11658 0.59473 0.0
C255 C 0.65971 0.08222 0.57574 0.0
C256 C 0.65207 0.15288 0.60908 0.0
O257 O 0.66953 0.10812 0.62607 0.0
O258 O 0.65109 0.11893 0.66191 0.0
C259 C 0.6135 0.09713 0.68062 0.0
N260 N 0.60791 0.11369 0.66807 0.0
C261 C 0.57193 0.10892 0.67954 0.0
C262 C 0.57731 0.09188 0.69276 0.0
C263 C 0.59818 0.08594 0.69324 0.0
C264 C 0.58787 0.11948 0.66735 0.0
H265 H 0.62952 0.09249 0.68094 0.0
C266 C 0.66737 0.11133 0.65145 0.0
O267 O 0.66749 0.09872 0.5689 0.0
O268 O 0.64536 0.08222 0.59417 0.0
N269 N 0.59983 0.14468 0.64084 0.0
C270 C 0.59716 0.1612 0.62663 0.0
C271 C 0.57716 0.16904 0.62407 0.0
C272 C 0.56014 0.15991 0.63629 0.0
C273 C 0.56329 0.14302 0.65104 0.0
C274 C 0.58361 0.136 0.65316 0.0
H275 H 0.61019 0.16836 0.61731 0.0
O276 O 0.62289 0.11327 0.57236 0.0
O277 O 0.62366 0.11568 0.61702 0.0
O278 O 0.65466 0.1391 0.59221 0.0
O279 O 0.64223 0.1514 0.63148 0.0
C280 C 0.54703 0.13278 0.6635 0.0
C281 C 0.55134 0.1157 0.67765 0.0
H282 H 0.56554 0.08317 0.70245 0.0
H283 H 0.60245 0.07275 0.70329 0.0
H284 H 0.57486 0.18209 0.61268 0.0
H285 H 0.54473 0.16597 0.63418 0.0
H286 H 0.53113 0.1378 0.66207 0.0
H287 H 0.53868 0.10784 0.68686 0.0
Mn288 Mn 0.85217 0.38891 0.89811 0.0
Mn289 Mn 0.87751 0.37275 0.84268 0.0
C290 C 0.8876 0.38471 0.90027 0.0
C291 C 0.83802 0.41533 0.92042 0.0
C292 C 0.85143 0.34729 0.8793 0.0
O293 O 0.83125 0.3918 0.86761 0.0
O294 O 0.8509 0.3848 0.83109 0.0
C295 C 0.88731 0.4098 0.81668 0.0
N296 N 0.89379 0.3928 0.82718 0.0
C297 C 0.92948 0.39993 0.81663 0.0
C298 C 0.92318 0.41746 0.80552 0.0
C299 C 0.90201 0.42244 0.80561 0.0
C300 C 0.91412 0.3879 0.82728 0.0
H301 H 0.87105 0.41367 0.8168 0.0
C302 C 0.83394 0.39056 0.84204 0.0
O303 O 0.83125 0.39809 0.92526 0.0
O304 O 0.85295 0.41703 0.90303 0.0
N305 N 0.90353 0.3607 0.85065 0.0
C306 C 0.90713 0.34371 0.86336 0.0
C307 C 0.9276 0.3369 0.86568 0.0
C308 C 0.94411 0.34751 0.85468 0.0
C309 C 0.93999 0.3648 0.84135 0.0
C310 C 0.91927 0.37081 0.83951 0.0
H311 H 0.89451 0.33547 0.8718 0.0
O312 O 0.87678 0.38611 0.9224 0.0
O313 O 0.8774 0.38648 0.87755 0.0
O314 O 0.84752 0.35967 0.8979 0.0
O315 O 0.86158 0.35113 0.8577 0.0
C316 C 0.95568 0.37651 0.83031 0.0
C317 C 0.95043 0.39408 0.81801 0.0
H318 H 0.93448 0.42729 0.79707 0.0
H319 H 0.89704 0.43599 0.7972 0.0
H320 H 0.93065 0.32354 0.87599 0.0
H321 H 0.9599 0.3423 0.85674 0.0
H322 H 0.97186 0.37229 0.83155 0.0
H323 H 0.96265 0.40309 0.80995 0.0
Mn324 Mn 0.34795 0.11764 0.60679 0.0
Mn325 Mn 0.35574 0.13445 0.54348 0.0
C326 C 0.34759 0.15014 0.59965 0.0
C327 C 0.3256 0.10503 0.63902 0.0
C328 C 0.39056 0.12045 0.57989 0.0
O329 O 0.34422 0.09413 0.58291 0.0
O330 O 0.34702 0.10699 0.54125 0.0
C331 C 0.31214 0.13286 0.52414 0.0
N332 N 0.32981 0.14313 0.5291 0.0
C333 C 0.31376 0.17224 0.51354 0.0
C334 C 0.29544 0.16194 0.50806 0.0
C335 C 0.29462 0.14217 0.51343 0.0
C336 C 0.33074 0.16217 0.52411 0.0
H337 H 0.31142 0.11769 0.5284 0.0
C338 C 0.34364 0.09283 0.55712 0.0
O339 O 0.34547 0.10179 0.64005 0.0
O340 O 0.31878 0.11548 0.61921 0.0
N341 N 0.36417 0.1608 0.54223 0.0
C342 C 0.38288 0.1687 0.54912 0.0
C343 C 0.38618 0.18844 0.54532 0.0
C344 C 0.37029 0.19979 0.53423 0.0
C345 C 0.35133 0.19125 0.52675 0.0
C346 C 0.34902 0.17148 0.53078 0.0
H347 H 0.39515 0.16006 0.55766 0.0
O348 O 0.35028 0.14343 0.6239 0.0
O349 O 0.34443 0.13758 0.58029 0.0
O350 O 0.37937 0.11708 0.60068 0.0
O351 O 0.38325 0.12629 0.55723 0.0
C352 C 0.33453 0.20163 0.51584 0.0
C353 C 0.31574 0.19214 0.5093 0.0
H354 H 0.28186 0.16908 0.49991 0.0
H355 H 0.2805 0.13414 0.50939 0.0
H356 H 0.40088 0.1949 0.55105 0.0
H357 H 0.37281 0.21504 0.53161 0.0
H358 H 0.33582 0.21696 0.51265 0.0
H359 H 0.30286 0.20031 0.50119 0.0
Mn360 Mn 0.6511 0.60357 0.39857 0.0
Mn361 Mn 0.62489 0.61843 0.34343 0.0
C362 C 0.61574 0.60848 0.40145 0.0
C363 C 0.66483 0.57776 0.4222 0.0
C364 C 0.65273 0.6443 0.37803 0.0
O365 O 0.67136 0.59947 0.36747 0.0
O366 O 0.65014 0.60426 0.33159 0.0
C367 C 0.61181 0.58094 0.32027 0.0
N368 N 0.60682 0.59871 0.32991 0.0
C369 C 0.5704 0.59318 0.32146 0.0
C370 C 0.57517 0.57489 0.31117 0.0
C371 C 0.59597 0.56872 0.31067 0.0
C372 C 0.58685 0.60474 0.33068 0.0
H373 H 0.62775 0.57611 0.32002 0.0
C374 C 0.66742 0.5989 0.34208 0.0
O375 O 0.67227 0.59499 0.42571 0.0
O376 O 0.64982 0.57569 0.40481 0.0
N377 N 0.59993 0.63216 0.35205 0.0
C378 C 0.59782 0.64975 0.36402 0.0
C379 C 0.57792 0.65779 0.36681 0.0
C380 C 0.56042 0.64775 0.35708 0.0
C381 C 0.56298 0.62973 0.34466 0.0
C382 C 0.58322 0.6225 0.34225 0.0
H383 H 0.61118 0.65762 0.37142 0.0
O384 O 0.62689 0.60756 0.42339 0.0
O385 O 0.62555 0.60589 0.37872 0.0
O386 O 0.65616 0.63249 0.39719 0.0
O387 O 0.64264 0.63997 0.35637 0.0
C388 C 0.54622 0.61852 0.33499 0.0
C389 C 0.54992 0.60023 0.32347 0.0
H390 H 0.56299 0.56538 0.30388 0.0
H391 H 0.59976 0.55457 0.30296 0.0
H392 H 0.57607 0.6717 0.37644 0.0
H393 H 0.5451 0.65396 0.35938 0.0
H394 H 0.53039 0.62369 0.33671 0.0
H395 H 0.53687 0.59161 0.31652 0.0
Mn396 Mn 0.14717 0.89059 0.10164 0.0
Mn397 Mn 0.12024 0.87525 0.15588 0.0
C398 C 0.11142 0.88809 0.09897 0.0
C399 C 0.16328 0.91566 0.07904 0.0
C400 C 0.1456 0.84895 0.1192 0.0
O401 O 0.16788 0.8928 0.13282 0.0
O402 O 0.14706 0.88654 0.16839 0.0
C403 C 0.11159 0.91248 0.18292 0.0
N404 N 0.10457 0.89579 0.17156 0.0
C405 C 0.06906 0.90386 0.18179 0.0
C406 C 0.07591 0.9211 0.19373 0.0
C407 C 0.09726 0.92546 0.1942 0.0
C408 C 0.08406 0.89153 0.17079 0.0
H409 H 0.12799 0.91585 0.18336 0.0
C410 C 0.16448 0.89184 0.1583 0.0
O411 O 0.16886 0.89796 0.07493 0.0
O412 O 0.14843 0.91874 0.0963 0.0
N413 N 0.09386 0.86413 0.14672 0.0
C414 C 0.08974 0.84729 0.13345 0.0
C415 C 0.06905 0.84106 0.13062 0.0
C416 C 0.05285 0.85206 0.14174 0.0
C417 C 0.05748 0.8692 0.15563 0.0
C418 C 0.07839 0.87469 0.15781 0.0
H419 H 0.10212 0.83869 0.12502 0.0
O420 O 0.12245 0.88877 0.07697 0.0
O421 O 0.12162 0.88937 0.12173 0.0
O422 O 0.15019 0.86138 0.10132 0.0
O423 O 0.13548 0.85293 0.14083 0.0
C424 C 0.04217 0.88115 0.16717 0.0
C425 C 0.04794 0.89852 0.18013 0.0
H426 H 0.06491 0.93115 0.20246 0.0
H427 H 0.10266 0.93877 0.20329 0.0
H428 H 0.0656 0.8278 0.1199 0.0
H429 H 0.0369 0.84726 0.13941 0.0
H430 H 0.02587 0.87726 0.16586 0.0
H431 H 0.03599 0.90773 0.18853 0.0
Mn432 Mn 0.84159 0.61621 0.1047 0.0
Mn433 Mn 0.85004 0.63453 0.04245 0.0
C434 C 0.84562 0.64876 0.09996 0.0
C435 C 0.81832 0.60538 0.13711 0.0
C436 C 0.8839 0.61608 0.0763 0.0
O437 O 0.83396 0.59422 0.07967 0.0
O438 O 0.83891 0.6078 0.03896 0.0
C439 C 0.80599 0.63654 0.02505 0.0
N440 N 0.82458 0.6454 0.02973 0.0
C441 C 0.81063 0.67597 0.01644 0.0
C442 C 0.79139 0.66714 0.01128 0.0
C443 C 0.78905 0.64734 0.01566 0.0
C444 C 0.82696 0.66446 0.02573 0.0
H445 H 0.80409 0.62136 0.02853 0.0
C446 C 0.83352 0.59364 0.05386 0.0
O447 O 0.83748 0.59948 0.13692 0.0
O448 O 0.81281 0.61737 0.11844 0.0
N449 N 0.86062 0.66024 0.04208 0.0
C450 C 0.88015 0.66661 0.04824 0.0
C451 C 0.88503 0.68612 0.04507 0.0
C452 C 0.86987 0.69885 0.03536 0.0
C453 C 0.85003 0.6919 0.02859 0.0
C454 C 0.84613 0.67227 0.03193 0.0
H455 H 0.89184 0.65694 0.05583 0.0
O456 O 0.84811 0.64082 0.12347 0.0
O457 O 0.84013 0.63747 0.07993 0.0
O458 O 0.87249 0.61202 0.09667 0.0
O459 O 0.87703 0.6242 0.05485 0.0
C460 C 0.83389 0.70372 0.01901 0.0
C461 C 0.81419 0.69577 0.01302 0.0
H462 H 0.77827 0.67543 0.00411 0.0
H463 H 0.77422 0.64044 0.01185 0.0
H464 H 0.9004 0.69136 0.05027 0.0
H465 H 0.87362 0.71393 0.03324 0.0
H466 H 0.83641 0.71897 0.01639 0.0
H467 H 0.80185 0.70503 0.00589 0.0
Mn468 Mn 0.15137 0.10103 0.89267 0.0
Mn469 Mn 0.12438 0.11373 0.83701 0.0
C470 C 0.11561 0.10278 0.89481 0.0
C471 C 0.16792 0.07685 0.91644 0.0
C472 C 0.14904 0.14182 0.87215 0.0
O473 O 0.17229 0.09863 0.86196 0.0
O474 O 0.15131 0.10232 0.82568 0.0
C475 C 0.1161 0.07542 0.81284 0.0
N476 N 0.10892 0.09245 0.82277 0.0
C477 C 0.07352 0.08366 0.81259 0.0
C478 C 0.08053 0.06605 0.80212 0.0
C479 C 0.10191 0.06189 0.80235 0.0
C480 C 0.08838 0.09653 0.82288 0.0
H481 H 0.13253 0.07221 0.81293 0.0
C482 C 0.16892 0.09822 0.83642 0.0
O483 O 0.17306 0.09472 0.92024 0.0
O484 O 0.15328 0.07311 0.89903 0.0
N485 N 0.09788 0.12488 0.84501 0.0
C486 C 0.09359 0.14214 0.85696 0.0
C487 C 0.07285 0.14825 0.85901 0.0
C488 C 0.05677 0.1367 0.84843 0.0
C489 C 0.06159 0.11914 0.83589 0.0
C490 C 0.08254 0.11378 0.83448 0.0
H491 H 0.10587 0.15117 0.86493 0.0
O492 O 0.1266 0.10284 0.91696 0.0
O493 O 0.12587 0.10104 0.87223 0.0
O494 O 0.15349 0.13032 0.89134 0.0
O495 O 0.1394 0.13671 0.8505 0.0
C496 C 0.04642 0.10665 0.82495 0.0
C497 C 0.05236 0.08887 0.81346 0.0
H498 H 0.06964 0.05559 0.79399 0.0
H499 H 0.10744 0.0483 0.79439 0.0
H500 H 0.06926 0.16185 0.86868 0.0
H501 H 0.04078 0.14143 0.85014 0.0
H502 H 0.0301 0.11046 0.82563 0.0
H503 H 0.04051 0.07925 0.80555 0.0
Mn504 Mn 0.63587 0.39328 0.61728 0.0
Mn505 Mn 0.60959 0.3747 0.67012 0.0
C506 C 0.60052 0.38852 0.61379 0.0
C507 C 0.65003 0.4201 0.59649 0.0
C508 C 0.63635 0.35083 0.63196 0.0
O509 O 0.65603 0.39607 0.64866 0.0
O510 O 0.63636 0.38582 0.68346 0.0
C511 C 0.60036 0.4108 0.69977 0.0
N512 N 0.59361 0.39438 0.68737 0.0
C513 C 0.55798 0.40163 0.69809 0.0
C514 C 0.56455 0.41857 0.71113 0.0
C515 C 0.58583 0.4232 0.71188 0.0
C516 C 0.57317 0.38987 0.68631 0.0
H517 H 0.6167 0.4144 0.70038 0.0
C518 C 0.65316 0.39296 0.67383 0.0
O519 O 0.65722 0.40301 0.59149 0.0
O520 O 0.63473 0.42149 0.61347 0.0
N521 N 0.58339 0.36343 0.66047 0.0
C522 C 0.57956 0.34691 0.64628 0.0
C523 C 0.55898 0.34042 0.64318 0.0
C524 C 0.5426 0.35084 0.65498 0.0
C525 C 0.54696 0.36763 0.66985 0.0
C526 C 0.56777 0.37338 0.67228 0.0
H527 H 0.59209 0.33877 0.63731 0.0
O528 O 0.61169 0.39039 0.59207 0.0
O529 O 0.61033 0.38992 0.63686 0.0
O530 O 0.6413 0.3643 0.61577 0.0
O531 O 0.62514 0.35341 0.65307 0.0
C532 C 0.53146 0.37898 0.68215 0.0
C533 C 0.53694 0.39603 0.69611 0.0
H534 H 0.55339 0.42817 0.7205 0.0
H535 H 0.59101 0.43629 0.7218 0.0
H536 H 0.55576 0.32743 0.63172 0.0
H537 H 0.52674 0.34586 0.65241 0.0
H538 H 0.51524 0.37485 0.68069 0.0
H539 H 0.52485 0.4048 0.7051 0.0
Mn540 Mn 0.34526 0.88239 0.38969 0.0
Mn541 Mn 0.35453 0.86271 0.45102 0.0
C542 C 0.34811 0.84968 0.39322 0.0
C543 C 0.32166 0.89438 0.3583 0.0
C544 C 0.38816 0.88122 0.41697 0.0
O545 O 0.33911 0.90411 0.41584 0.0
O546 O 0.34432 0.88954 0.45593 0.0
C547 C 0.31085 0.86104 0.46966 0.0
N548 N 0.3291 0.85198 0.46405 0.0
C549 C 0.31473 0.82136 0.47642 0.0
C550 C 0.29582 0.83038 0.48252 0.0
C551 C 0.29386 0.8503 0.47908 0.0
C552 C 0.33112 0.83281 0.46714 0.0
H553 H 0.30925 0.87632 0.46687 0.0
C554 C 0.33929 0.90413 0.44168 0.0
O555 O 0.34107 0.89961 0.358 0.0
O556 O 0.31605 0.88242 0.37695 0.0
N557 N 0.3645 0.83685 0.44996 0.0
C558 C 0.38378 0.83035 0.44311 0.0
C559 C 0.38828 0.8107 0.44529 0.0
C560 C 0.37302 0.79798 0.45481 0.0
C561 C 0.35347 0.80508 0.46241 0.0
C562 C 0.34995 0.82483 0.46002 0.0
H563 H 0.39558 0.84006 0.43582 0.0
O564 O 0.35031 0.85794 0.3699 0.0
O565 O 0.34361 0.86078 0.4138 0.0
O566 O 0.37657 0.88555 0.39679 0.0
O567 O 0.38141 0.87296 0.43833 0.0
C568 C 0.33727 0.79331 0.47197 0.0
C569 C 0.31789 0.80143 0.47888 0.0
H570 H 0.28266 0.82214 0.48972 0.0
H571 H 0.27928 0.85735 0.48361 0.0
H572 H 0.40344 0.80535 0.43953 0.0
H573 H 0.37647 0.78281 0.45619 0.0
H574 H 0.3395 0.77797 0.47387 0.0
H575 H 0.3055 0.79221 0.48597 0.0
C576 C 0.15619 0.82167 0.08846 0.0
C577 C 0.15191 0.82874 0.11471 0.0
C578 C 0.16085 0.80223 0.08434 0.0
C579 C 0.17848 0.75877 0.11994 0.0
H580 H 0.14308 0.73061 0.06959 0.0
C581 C 0.15441 0.68152 0.13761 0.0
C582 C 0.15141 0.66868 0.11578 0.0
C583 C 0.15983 0.70056 0.13305 0.0
C584 C 0.15348 0.73826 0.08324 0.0
H585 H 0.14986 0.82111 0.15725 0.0
H586 H 0.15819 0.78741 0.15009 0.0
H587 H 0.14277 0.76569 0.06965 0.0
H588 H 0.15249 0.66564 0.07195 0.0
H589 H 0.16186 0.69932 0.06388 0.0
H590 H 0.18861 0.73143 0.13428 0.0
C591 C 0.15795 0.79684 0.1327 0.0
C592 C 0.15327 0.75835 0.08331 0.0
C593 C 0.153 0.81612 0.13677 0.0
C594 C 0.15472 0.6752 0.08918 0.0
C595 C 0.15997 0.69446 0.08456 0.0
C596 C 0.17878 0.73874 0.11977 0.0
C597 C 0.1617 0.78963 0.10645 0.0
C598 C 0.16512 0.76875 0.10245 0.0
C599 C 0.16234 0.70738 0.1065 0.0
C600 C 0.16561 0.72826 0.10225 0.0
H601 H 0.15541 0.83103 0.07104 0.0
H602 H 0.16368 0.79701 0.0639 0.0
H603 H 0.18805 0.76646 0.13456 0.0
H604 H 0.15214 0.67694 0.15837 0.0
H605 H 0.1612 0.71015 0.1504 0.0
C606 C 0.42367 0.88198 0.43803 0.0
C607 C 0.41078 0.88534 0.41543 0.0
C608 C 0.44511 0.8848 0.4364 0.0
C609 C 0.48786 0.88542 0.38743 0.0
H610 H 0.51904 0.90594 0.4487 0.0
C611 C 0.57786 0.89002 0.38768 0.0
C612 C 0.58758 0.88342 0.41148 0.0
C613 C 0.55636 0.89311 0.38698 0.0
C614 C 0.51055 0.90012 0.43146 0.0
H615 H 0.41044 0.8947 0.37348 0.0
H616 H 0.448 0.89964 0.37071 0.0
H617 H 0.48112 0.9065 0.44954 0.0
H618 H 0.58219 0.87521 0.45335 0.0
H619 H 0.5449 0.88046 0.452 0.0
H620 H 0.51731 0.87862 0.36964 0.0
C621 C 0.44141 0.89469 0.38963 0.0
C622 C 0.48885 0.90045 0.43193 0.0
C623 C 0.41987 0.89195 0.39128 0.0
C624 C 0.57532 0.88032 0.43466 0.0
C625 C 0.5539 0.88346 0.43397 0.0
C626 C 0.5096 0.88509 0.38695 0.0
C627 C 0.45427 0.89101 0.41213 0.0
C628 C 0.47725 0.89271 0.4102 0.0
C629 C 0.54414 0.88977 0.41009 0.0
C630 C 0.52118 0.89205 0.40923 0.0
H631 H 0.41727 0.87688 0.45698 0.0
H632 H 0.45459 0.88156 0.45399 0.0
H633 H 0.47937 0.87918 0.37048 0.0
H634 H 0.58679 0.8926 0.36946 0.0
H635 H 0.54931 0.89813 0.36834 0.0
C636 C 0.33496 0.32521 0.59027 0.0
C637 C 0.33302 0.33314 0.61646 0.0
C638 C 0.3331 0.30536 0.58621 0.0
C639 C 0.3406 0.26139 0.6258 0.0
H640 H 0.32113 0.23534 0.56059 0.0
C641 C 0.36133 0.18301 0.60607 0.0
C642 C 0.34559 0.17091 0.5962 0.0
C643 C 0.35867 0.20285 0.60599 0.0
C644 C 0.32648 0.24243 0.57899 0.0
H645 H 0.32566 0.32697 0.65839 0.0
H646 H 0.32152 0.29257 0.65119 0.0
H647 H 0.31598 0.27003 0.5657 0.0
H648 H 0.31435 0.16962 0.57983 0.0
H649 H 0.30945 0.20454 0.57995 0.0
H650 H 0.35074 0.23399 0.63944 0.0
C651 C 0.32531 0.30145 0.63394 0.0
C652 C 0.32368 0.26229 0.58183 0.0
C653 C 0.32752 0.32117 0.63806 0.0
C654 C 0.32695 0.17884 0.58667 0.0
C655 C 0.32417 0.19876 0.58679 0.0
C656 C 0.3433 0.24165 0.62302 0.0
C657 C 0.32902 0.29319 0.60825 0.0
C658 C 0.33077 0.272 0.60529 0.0
C659 C 0.33992 0.21096 0.59684 0.0
C660 C 0.33649 0.23195 0.59952 0.0
H661 H 0.33931 0.33415 0.5733 0.0
H662 H 0.33613 0.29949 0.56618 0.0
H663 H 0.34665 0.26837 0.64391 0.0
H664 H 0.37567 0.17707 0.61396 0.0
H665 H 0.37123 0.21185 0.61349 0.0
C666 C 0.08272 0.08525 0.88545 0.0
C667 C 0.09292 0.10135 0.89636 0.0
C668 C 0.06116 0.08347 0.88765 0.0
C669 C 0.0152 0.10329 0.92436 0.0
H670 H 0.98555 0.08403 0.86119 0.0
C671 C 0.92723 0.1155 0.91026 0.0
C672 C 0.91578 0.10217 0.8949 0.0
C673 C 0.94879 0.11366 0.91257 0.0
C674 C 0.99345 0.0893 0.87917 0.0
H675 H 0.08925 0.12758 0.91955 0.0
H676 H 0.0514 0.12509 0.92241 0.0
H677 H 0.02306 0.08386 0.86146 0.0
H678 H 0.91706 0.07548 0.87226 0.0
H679 H 0.9546 0.07169 0.87706 0.0
H680 H 0.98546 0.10854 0.94216 0.0
C681 C 0.05989 0.11365 0.91242 0.0
C682 C 0.01513 0.08923 0.8793 0.0
C683 C 0.0815 0.11524 0.91055 0.0
C684 C 0.92584 0.08628 0.8834 0.0
C685 C 0.94733 0.08418 0.88615 0.0
C686 C 0.99346 0.10331 0.92427 0.0
C687 C 0.04941 0.0978 0.90082 0.0
C688 C 0.02632 0.09658 0.90165 0.0
C689 C 0.95918 0.09805 0.90033 0.0
C690 C 0.98229 0.09668 0.90143 0.0
H691 H 0.09145 0.07403 0.87525 0.0
H692 H 0.05374 0.07084 0.87902 0.0
H693 H 0.02327 0.10853 0.94228 0.0
H694 H 0.91958 0.12767 0.91971 0.0
H695 H 0.95732 0.12478 0.92333 0.0
C696 C 0.13661 0.31498 0.88282 0.0
C697 C 0.15315 0.32584 0.89334 0.0
C698 C 0.13812 0.29505 0.88099 0.0
C699 C 0.16854 0.2535 0.90595 0.0
H700 H 0.14136 0.22801 0.8452 0.0
C701 C 0.15469 0.17124 0.90092 0.0
C702 C 0.15432 0.16235 0.87521 0.0
C703 C 0.15706 0.19117 0.90325 0.0
C704 C 0.14935 0.23483 0.86211 0.0
H705 H 0.18486 0.32493 0.90806 0.0
H706 H 0.18784 0.28995 0.90433 0.0
H707 H 0.14091 0.26269 0.84827 0.0
H708 H 0.15762 0.16706 0.83198 0.0
H709 H 0.16263 0.20155 0.83605 0.0
H710 H 0.17751 0.22551 0.91928 0.0
C711 C 0.17332 0.29667 0.89864 0.0
C712 C 0.14876 0.25479 0.86413 0.0
C713 C 0.17165 0.31665 0.90081 0.0
C714 C 0.15752 0.17357 0.85204 0.0
C715 C 0.16025 0.19338 0.85439 0.0
C716 C 0.1693 0.23346 0.9038 0.0
C717 C 0.15652 0.28562 0.88877 0.0
C718 C 0.1581 0.26439 0.88623 0.0
C719 C 0.1594 0.20253 0.87993 0.0
C720 C 0.15958 0.22387 0.88192 0.0
H721 H 0.12235 0.32192 0.87647 0.0
H722 H 0.12475 0.28704 0.87369 0.0
H723 H 0.17581 0.26039 0.92332 0.0
H724 H 0.15215 0.16293 0.91911 0.0
H725 H 0.15615 0.1977 0.92324 0.0
C726 C 0.92201 0.90925 0.10996 0.0
C727 C 0.91123 0.8935 0.09897 0.0
C728 C 0.94365 0.91032 0.10787 0.0
C729 C 0.98878 0.88937 0.07072 0.0
H730 H 0.01944 0.90764 0.13366 0.0
C731 C 0.07696 0.87642 0.0825 0.0
C732 C 0.08872 0.8898 0.09737 0.0
C733 C 0.05533 0.87821 0.08102 0.0
C734 C 0.01124 0.90263 0.11575 0.0
H735 H 0.914 0.86719 0.07571 0.0
H736 H 0.95191 0.86849 0.07295 0.0
H737 H 0.98189 0.90854 0.13396 0.0
H738 H 0.08782 0.91648 0.1201 0.0
H739 H 0.05018 0.92013 0.1168 0.0
H740 H 0.01825 0.88369 0.05238 0.0
C741 C 0.94383 0.88016 0.08299 0.0
C742 C 0.98955 0.90312 0.11596 0.0
C743 C 0.92217 0.87926 0.08479 0.0
C744 C 0.07884 0.90565 0.1093 0.0
C745 C 0.05729 0.90767 0.10742 0.0
C746 C 0.01052 0.88893 0.07047 0.0
C747 C 0.95488 0.89566 0.09465 0.0
C748 C 0.97801 0.89621 0.09365 0.0
C749 C 0.04517 0.8938 0.09365 0.0
C750 C 0.02205 0.89527 0.09317 0.0
H751 H 0.91368 0.92074 0.12012 0.0
H752 H 0.95153 0.92268 0.11656 0.0
H753 H 0.98044 0.88442 0.05284 0.0
H754 H 0.08444 0.86428 0.07275 0.0
H755 H 0.04659 0.8671 0.07053 0.0
C756 C 0.34814 0.67752 0.34771 0.0
C757 C 0.35197 0.66578 0.37017 0.0
C758 C 0.34461 0.69711 0.35126 0.0
C759 C 0.33527 0.73557 0.40314 0.0
H760 H 0.36222 0.76685 0.34876 0.0
C761 C 0.33015 0.81875 0.40234 0.0
C762 C 0.34804 0.82869 0.3943 0.0
C763 C 0.32942 0.79872 0.40053 0.0
C764 C 0.3548 0.75837 0.36434 0.0
H765 H 0.35436 0.66507 0.41404 0.0
H766 H 0.34908 0.69953 0.42029 0.0
H767 H 0.36243 0.73231 0.34385 0.0
H768 H 0.37883 0.82602 0.37721 0.0
H769 H 0.37808 0.79104 0.37509 0.0
H770 H 0.32863 0.76185 0.42429 0.0
C771 C 0.34822 0.69357 0.39994 0.0
C772 C 0.35456 0.73849 0.36124 0.0
C773 C 0.35133 0.67383 0.39639 0.0
C774 C 0.36503 0.8185 0.38398 0.0
C775 C 0.36447 0.79852 0.38253 0.0
C776 C 0.33574 0.75555 0.40642 0.0
C777 C 0.34537 0.70553 0.37732 0.0
C778 C 0.34479 0.72679 0.38055 0.0
C779 C 0.34656 0.78837 0.39043 0.0
C780 C 0.34563 0.76717 0.3871 0.0
H781 H 0.34826 0.67159 0.32729 0.0
H782 H 0.3418 0.70574 0.33343 0.0
H783 H 0.32745 0.72704 0.4183 0.0
H784 H 0.31661 0.82651 0.40949 0.0
H785 H 0.31527 0.79141 0.40637 0.0
C786 C 0.57948 0.13083 0.57922 0.0
C787 C 0.5901 0.11701 0.5944 0.0
C788 C 0.55775 0.13078 0.57839 0.0
C789 C 0.51282 0.09994 0.58158 0.0
H790 H 0.48212 0.1451 0.60464 0.0
C791 C 0.42544 0.11412 0.55937 0.0
C792 C 0.41331 0.11828 0.58237 0.0
C793 C 0.44707 0.11294 0.56153 0.0
C794 C 0.49055 0.13241 0.59821 0.0
H795 H 0.58691 0.09147 0.61877 0.0
H796 H 0.54877 0.09106 0.61678 0.0
H797 H 0.52024 0.1453 0.60642 0.0
H798 H 0.41426 0.12454 0.62559 0.0
H799 H 0.45222 0.12303 0.6291 0.0
H800 H 0.48312 0.08726 0.57255 0.0
C801 C 0.55719 0.10223 0.60625 0.0
C802 C 0.51226 0.13256 0.59911 0.0
C803 C 0.57888 0.10255 0.60756 0.0
C804 C 0.42321 0.12117 0.60758 0.0
C805 C 0.44487 0.12041 0.60959 0.0
C806 C 0.49112 0.09995 0.58008 0.0
C807 C 0.54647 0.11646 0.59188 0.0
C808 C 0.52354 0.11631 0.59088 0.0
C809 C 0.45694 0.11633 0.58657 0.0
C810 C 0.47984 0.11616 0.58847 0.0
H811 H 0.58798 0.14182 0.56845 0.0
H812 H 0.54975 0.14176 0.56696 0.0
H813 H 0.52126 0.08728 0.57505 0.0
H814 H 0.41821 0.1118 0.53971 0.0
H815 H 0.45613 0.10985 0.54351 0.0
C816 C 0.85081 0.17202 0.9016 0.0
C817 C 0.85494 0.16441 0.87562 0.0
C818 C 0.84763 0.19181 0.90518 0.0
C819 C 0.86083 0.23705 0.87113 0.0
H820 H 0.81952 0.26084 0.91772 0.0
C821 C 0.84231 0.31547 0.85957 0.0
C822 C 0.84517 0.32704 0.88279 0.0
C823 C 0.84055 0.29565 0.86182 0.0
C824 C 0.83121 0.25431 0.90485 0.0
H825 H 0.85745 0.17132 0.83286 0.0
H826 H 0.85149 0.20541 0.83899 0.0
H827 H 0.82227 0.2256 0.91561 0.0
H828 H 0.84675 0.32707 0.92677 0.0
H829 H 0.84369 0.29197 0.93069 0.0
H830 H 0.86955 0.26547 0.85991 0.0
C831 C 0.85138 0.19634 0.85675 0.0
C832 C 0.83282 0.23421 0.90365 0.0
C833 C 0.85473 0.17675 0.85322 0.0
C834 C 0.84455 0.31848 0.90855 0.0
C835 C 0.84282 0.29845 0.9108 0.0
C836 C 0.85913 0.25693 0.87218 0.0
C837 C 0.84842 0.20421 0.88281 0.0
C838 C 0.84736 0.2254 0.88625 0.0
C839 C 0.84167 0.28687 0.88732 0.0
C840 C 0.84404 0.26577 0.88855 0.0
H841 H 0.85085 0.16284 0.91925 0.0
H842 H 0.84537 0.19746 0.92552 0.0
H843 H 0.87263 0.23078 0.85818 0.0
H844 H 0.84237 0.32167 0.83946 0.0
H845 H 0.83927 0.28705 0.84344 0.0
C846 C 0.66225 0.6763 0.35911 0.0
C847 C 0.65901 0.66456 0.38179 0.0
C848 C 0.66523 0.69604 0.3624 0.0
C849 C 0.64802 0.73458 0.40515 0.0
H850 H 0.68986 0.7654 0.36917 0.0
C851 C 0.6725 0.81911 0.39847 0.0
C852 C 0.65351 0.82696 0.38999 0.0
C853 C 0.67515 0.79922 0.3991 0.0
C854 C 0.6782 0.75693 0.37947 0.0
H855 H 0.65706 0.66416 0.42575 0.0
H856 H 0.66175 0.69885 0.4314 0.0
H857 H 0.69241 0.73025 0.36788 0.0
H858 H 0.62288 0.82064 0.374 0.0
H859 H 0.62721 0.78568 0.37591 0.0
H860 H 0.63324 0.76113 0.41559 0.0
C861 C 0.66222 0.69265 0.41116 0.0
C862 C 0.67963 0.7369 0.37868 0.0
C863 C 0.65965 0.67283 0.40791 0.0
C864 C 0.63745 0.81477 0.38123 0.0
C865 C 0.63993 0.79488 0.38236 0.0
C866 C 0.64636 0.75455 0.40546 0.0
C867 C 0.66463 0.70445 0.38839 0.0
C868 C 0.66446 0.72558 0.39135 0.0
C869 C 0.65879 0.78694 0.39137 0.0
C870 C 0.66132 0.76588 0.39241 0.0
H871 H 0.66188 0.6703 0.33874 0.0
H872 H 0.66692 0.70487 0.34453 0.0
H873 H 0.63601 0.72613 0.41481 0.0
H874 H 0.68527 0.82839 0.40456 0.0
H875 H 0.68984 0.79341 0.40604 0.0
C876 C 0.82852 0.67996 0.09026 0.0
C877 C 0.84624 0.66973 0.09819 0.0
C878 C 0.82848 0.70003 0.09139 0.0
C879 C 0.85589 0.74046 0.1254 0.0
H880 H 0.82713 0.77128 0.07198 0.0
C881 C 0.84793 0.82151 0.14131 0.0
C882 C 0.8504 0.83333 0.1186 0.0
C883 C 0.84546 0.80173 0.13808 0.0
C884 C 0.8354 0.7629 0.08696 0.0
H885 H 0.87743 0.67196 0.1144 0.0
H886 H 0.87787 0.70696 0.1153 0.0
H887 H 0.82794 0.73644 0.06666 0.0
H888 H 0.85169 0.8338 0.07463 0.0
H889 H 0.84817 0.79912 0.06896 0.0
H890 H 0.86423 0.76675 0.14504 0.0
C891 C 0.86387 0.6997 0.10848 0.0
C892 C 0.83563 0.74289 0.08408 0.0
C893 C 0.86375 0.67969 0.10773 0.0
C894 C 0.8497 0.82503 0.09251 0.0
C895 C 0.8476 0.80515 0.08928 0.0
C896 C 0.85588 0.76039 0.12808 0.0
C897 C 0.84614 0.71015 0.10067 0.0
C898 C 0.84589 0.73143 0.1033 0.0
C899 C 0.84586 0.7932 0.11208 0.0
C900 C 0.84555 0.77191 0.10901 0.0
H901 H 0.8146 0.67243 0.08373 0.0
H902 H 0.81443 0.70756 0.08569 0.0
H903 H 0.86365 0.73214 0.14088 0.0
H904 H 0.84813 0.82754 0.16166 0.0
H905 H 0.84354 0.79309 0.15609 0.0
C906 C 0.63783 0.31597 0.64337 0.0
C907 C 0.64366 0.33103 0.62615 0.0
C908 C 0.64434 0.29726 0.63817 0.0
C909 C 0.6619 0.26484 0.58403 0.0
H910 H 0.67432 0.23252 0.64565 0.0
C911 C 0.64885 0.18329 0.58372 0.0
C912 C 0.65982 0.17201 0.60229 0.0
C913 C 0.65279 0.203 0.58219 0.0
C914 C 0.67141 0.24129 0.628 0.0
H915 H 0.66101 0.3381 0.5898 0.0
H916 H 0.6725 0.30517 0.58078 0.0
H917 H 0.67034 0.26675 0.65239 0.0
H918 H 0.68438 0.17172 0.63234 0.0
H919 H 0.69217 0.20595 0.62872 0.0
H920 H 0.66289 0.23925 0.55963 0.0
C921 C 0.66277 0.308 0.59827 0.0
C922 C 0.66879 0.26095 0.63199 0.0
C923 C 0.65623 0.32685 0.6035 0.0
C924 C 0.67583 0.18027 0.61781 0.0
C925 C 0.68007 0.19988 0.61592 0.0
C926 C 0.66468 0.24509 0.57995 0.0
C927 C 0.65694 0.29302 0.61565 0.0
C928 C 0.66322 0.27285 0.61028 0.0
C929 C 0.6679 0.21168 0.5991 0.0
C930 C 0.66878 0.23297 0.60207 0.0
H931 H 0.62804 0.31853 0.66089 0.0
H932 H 0.63915 0.286 0.65162 0.0
H933 H 0.65765 0.27364 0.56686 0.0
H934 H 0.63621 0.17714 0.5719 0.0
H935 H 0.64291 0.21156 0.56923 0.0
C936 C 0.0781 0.38952 0.90132 0.0
C937 C 0.08725 0.37712 0.92032 0.0
C938 C 0.05649 0.39118 0.89955 0.0
C939 C 0.00894 0.36432 0.9117 0.0
H940 H 0.98145 0.41381 0.91137 0.0
C941 C 0.92003 0.37022 0.91806 0.0
C942 C 0.91033 0.38409 0.90201 0.0
C943 C 0.94165 0.36992 0.92051 0.0
C944 C 0.98888 0.39988 0.91101 0.0
H945 H 0.08077 0.357 0.95269 0.0
H946 H 0.04306 0.35967 0.94916 0.0
H947 H 0.0193 0.4123 0.91482 0.0
H948 H 0.915 0.40967 0.87819 0.0
H949 H 0.95293 0.4089 0.88158 0.0
H950 H 0.97876 0.35181 0.90715 0.0
C951 C 0.05269 0.36808 0.93569 0.0
C952 C 0.01054 0.39905 0.91311 0.0
C953 C 0.07429 0.36663 0.93776 0.0
C954 C 0.92235 0.39838 0.88976 0.0
C955 C 0.94401 0.3981 0.89212 0.0
C956 C 0.98733 0.36514 0.90922 0.0
C957 C 0.0436 0.38027 0.91646 0.0
C958 C 0.02072 0.38125 0.91372 0.0
C959 C 0.95394 0.38369 0.90725 0.0
C960 C 0.977 0.38292 0.90914 0.0
H961 H 0.08763 0.39788 0.88766 0.0
H962 H 0.04983 0.40063 0.88449 0.0
H963 H 0.01648 0.35042 0.91168 0.0
H964 H 0.91087 0.35946 0.9284 0.0
H965 H 0.9487 0.35897 0.93298 0.0
C966 C 0.58262 0.62297 0.41749 0.0
C967 C 0.59304 0.60842 0.40327 0.0
C968 C 0.56091 0.62282 0.4189 0.0
C969 C 0.51495 0.59124 0.41019 0.0
H970 H 0.4862 0.63887 0.39508 0.0
C971 C 0.4282 0.59409 0.38133 0.0
C972 C 0.4164 0.60918 0.39215 0.0
C973 C 0.4497 0.59375 0.38507 0.0
C974 C 0.494 0.62551 0.39965 0.0
H975 H 0.58968 0.58139 0.38177 0.0
H976 H 0.55175 0.58114 0.38381 0.0
H977 H 0.52405 0.63865 0.39803 0.0
H978 H 0.41709 0.63486 0.41711 0.0
H979 H 0.45492 0.6345 0.42352 0.0
H980 H 0.48489 0.57805 0.41146 0.0
C981 C 0.56012 0.59281 0.39361 0.0
C982 C 0.51567 0.62539 0.40138 0.0
C983 C 0.58176 0.59306 0.39209 0.0
C984 C 0.42612 0.62341 0.40797 0.0
C985 C 0.44767 0.62319 0.41155 0.0
C986 C 0.49329 0.59136 0.40843 0.0
C987 C 0.54943 0.60786 0.40662 0.0
C988 C 0.52639 0.60821 0.40644 0.0
C989 C 0.45969 0.60843 0.39994 0.0
C990 C 0.48261 0.60846 0.40293 0.0
H991 H 0.59122 0.63467 0.42687 0.0
H992 H 0.55313 0.63443 0.42951 0.0
H993 H 0.52274 0.57783 0.41453 0.0
H994 H 0.42078 0.58262 0.36984 0.0
H995 H 0.45855 0.58224 0.37579 0.0
C996 C 0.56683 0.40402 0.62434 0.0
C997 C 0.57779 0.3891 0.6117 0.0
C998 C 0.54525 0.40511 0.62179 0.0
C999 C 0.50042 0.38617 0.58139 0.0
H1000 H 0.46949 0.40227 0.64496 0.0
C1001 C 0.41137 0.37623 0.58953 0.0
C1002 C 0.40021 0.39003 0.60427 0.0
C1003 C 0.4331 0.37683 0.58913 0.0
C1004 C 0.47779 0.39783 0.62692 0.0
H1005 H 0.57544 0.36433 0.58513 0.0
H1006 H 0.53751 0.36552 0.58163 0.0
H1007 H 0.507 0.40204 0.64657 0.0
H1008 H 0.4024 0.41623 0.62797 0.0
H1009 H 0.44028 0.41772 0.62679 0.0
H1010 H 0.47099 0.38203 0.56178 0.0
C1011 C 0.54544 0.37658 0.59327 0.0
C1012 C 0.49945 0.39772 0.62784 0.0
C1013 C 0.56709 0.37573 0.59547 0.0
C1014 C 0.41086 0.40507 0.61728 0.0
C1015 C 0.43253 0.40587 0.61658 0.0
C1016 C 0.47868 0.38623 0.58051 0.0
C1017 C 0.53421 0.39122 0.60658 0.0
C1018 C 0.51109 0.39176 0.60517 0.0
C1019 C 0.44396 0.3916 0.60284 0.0
C1020 C 0.46709 0.39194 0.60335 0.0
H1021 H 0.57498 0.41488 0.63616 0.0
H1022 H 0.53727 0.41689 0.63171 0.0
H1023 H 0.50883 0.38194 0.5633 0.0
H1024 H 0.40329 0.36472 0.57894 0.0
H1025 H 0.44136 0.36551 0.57856 0.0
C1026 C 0.07272 0.62466 0.08728 0.0
C1027 C 0.08298 0.61201 0.10469 0.0
C1028 C 0.05109 0.62425 0.08512 0.0
C1029 C 0.0052 0.59319 0.09774 0.0
H1030 H 0.97549 0.64111 0.08858 0.0
C1031 C 0.91496 0.60216 0.10017 0.0
C1032 C 0.90659 0.61267 0.07844 0.0
C1033 C 0.93651 0.60076 0.10364 0.0
C1034 C 0.98363 0.62762 0.09102 0.0
H1035 H 0.07926 0.58789 0.13163 0.0
H1036 H 0.04129 0.58754 0.12884 0.0
H1037 H 0.01303 0.64164 0.09547 0.0
H1038 H 0.91445 0.62923 0.04267 0.0
H1039 H 0.9519 0.62709 0.0492 0.0
H1040 H 0.97546 0.57933 0.09399 0.0
C1041 C 0.0498 0.59791 0.11694 0.0
C1042 C 0.00514 0.62789 0.09483 0.0
C1043 C 0.07147 0.5983 0.11894 0.0
C1044 C 0.92027 0.62115 0.05976 0.0
C1045 C 0.94174 0.62001 0.06351 0.0
C1046 C 0.9836 0.59296 0.09437 0.0
C1047 C 0.03932 0.61098 0.10011 0.0
C1048 C 0.01626 0.61066 0.09776 0.0
C1049 C 0.95002 0.61007 0.08569 0.0
C1050 C 0.97271 0.61017 0.09055 0.0
H1051 H 0.08146 0.63491 0.07543 0.0
H1052 H 0.04363 0.63415 0.07135 0.0
H1053 H 0.01325 0.57963 0.09963 0.0
H1054 H 0.90489 0.59537 0.11485 0.0
H1055 H 0.94259 0.593 0.1209 0.0
C1056 C 0.16808 0.56031 0.04676 0.0
C1057 C 0.16096 0.5609 0.07366 0.0
C1058 C 0.17179 0.54261 0.03393 0.0
C1059 C 0.15478 0.49221 0.03969 0.0
H1060 H 0.19627 0.4824 0.98435 0.0
C1061 C 0.16224 0.41801 0.98974 0.0
C1062 C 0.16279 0.41786 0.96119 0.0
C1063 C 0.16523 0.4351 0.00426 0.0
C1064 C 0.18459 0.48499 -0.00025 0.0
H1065 H 0.15391 0.54383 0.10906 0.0
H1066 H 0.16114 0.51318 0.08722 0.0
H1067 H 0.19625 0.51323 0.00866 0.0
H1068 H 0.16793 0.4355 0.92563 0.0
H1069 H 0.17299 0.4653 0.95107 0.0
H1070 H 0.14299 0.46417 0.03076 0.0
C1071 C 0.16306 0.52616 0.07553 0.0
C1072 C 0.18455 0.50263 0.01361 0.0
C1073 C 0.15903 0.54373 0.08811 0.0
C1074 C 0.16725 0.43508 0.94759 0.0
C1075 C 0.17032 0.45216 0.96215 0.0
C1076 C 0.15492 0.47462 0.02604 0.0
C1077 C 0.16869 0.52531 0.04799 0.0
C1078 C 0.16958 0.50644 0.03372 0.0
C1079 C 0.16892 0.45241 0.9906 0.0
C1080 C 0.16974 0.47083 0.00586 0.0
H1081 H 0.16967 0.5734 0.03522 0.0
H1082 H 0.17606 0.54248 0.01268 0.0
H1083 H 0.14266 0.49479 0.05449 0.0
H1084 H 0.15904 0.40502 0.00092 0.0
H1085 H 0.16435 0.43483 0.02622 0.0
C1086 C 0.68246 0.90777 0.30659 0.0
C1087 C 0.68968 0.90063 0.3315 0.0
C1088 C 0.69655 0.91263 0.28613 0.0
C1089 C 0.75189 0.92358 0.27325 0.0
H1090 H 0.74326 0.89714 0.2045 0.0
C1091 C 0.81934 0.90291 0.20372 0.0
C1092 C 0.81663 0.9028 0.17538 0.0
C1093 C 0.80271 0.90694 0.22094 0.0
C1094 C 0.74574 0.905 0.22331 0.0
H1095 H 0.7172 0.89388 0.35509 0.0
H1096 H 0.7417 0.90254 0.31965 0.0
H1097 H 0.71569 0.89726 0.23841 0.0
H1098 H 0.79429 0.90749 0.14294 0.0
H1099 H 0.76523 0.91466 0.17314 0.0
H1100 H 0.78211 0.93091 0.25854 0.0
C1101 C 0.72522 0.90437 0.31583 0.0
C1102 C 0.72993 0.90506 0.24273 0.0
C1103 C 0.71119 0.89927 0.33605 0.0
C1104 C 0.79693 0.90731 0.16467 0.0
C1105 C 0.78024 0.91137 0.18197 0.0
C1106 C 0.76763 0.92364 0.25379 0.0
C1107 C 0.71807 0.91074 0.29048 0.0
C1108 C 0.73314 0.91379 0.26823 0.0
C1109 C 0.78291 0.91106 0.21031 0.0
C1110 C 0.76502 0.91377 0.22898 0.0
H1111 H 0.66594 0.90895 0.30256 0.0
H1112 H 0.69065 0.91756 0.26679 0.0
H1113 H 0.75463 0.93067 0.2926 0.0
H1114 H 0.83426 0.89955 0.21276 0.0
H1115 H 0.80526 0.90622 0.24265 0.0
C1116 C 0.31127 0.43698 0.54347 0.0
C1117 C 0.32248 0.43862 0.56794 0.0
C1118 C 0.30828 0.45312 0.52713 0.0
C1119 C 0.33706 0.49576 0.51118 0.0
H1120 H 0.28865 0.51268 0.47074 0.0
C1121 C 0.34544 0.544 0.41988 0.0
C1122 C 0.33585 0.562 0.42273 0.0
C1123 C 0.33996 0.5289 0.43676 0.0
C1124 C 0.3022 0.50806 0.48205 0.0
H1125 H 0.33753 0.45861 0.59579 0.0
H1126 H 0.33234 0.48658 0.56735 0.0
H1127 H 0.28517 0.48666 0.50413 0.0
H1128 H 0.31197 0.57794 0.44421 0.0
H1129 H 0.30225 0.55121 0.47386 0.0
H1130 H 0.35424 0.51661 0.48891 0.0
C1131 C 0.32616 0.47286 0.56058 0.0
C1132 C 0.30024 0.49323 0.50096 0.0
C1133 C 0.32915 0.45684 0.57681 0.0
C1134 C 0.3197 0.56424 0.44169 0.0
C1135 C 0.31406 0.54899 0.45851 0.0
C1136 C 0.33906 0.51025 0.49213 0.0
C1137 C 0.31647 0.47102 0.53513 0.0
C1138 C 0.3177 0.48703 0.5157 0.0
C1139 C 0.32464 0.53142 0.45668 0.0
C1140 C 0.32173 0.51645 0.47731 0.0
H1141 H 0.30588 0.42311 0.53623 0.0
H1142 H 0.30081 0.45135 0.50752 0.0
H1143 H 0.35083 0.49108 0.52199 0.0
H1144 H 0.35781 0.54173 0.40532 0.0
H1145 H 0.34821 0.5154 0.43492 0.0
C1146 C 0.68591 0.11485 0.69587 0.0
C1147 C 0.6847 0.10639 0.66992 0.0
C1148 C 0.70257 0.11086 0.71308 0.0
C1149 C 0.75663 0.09277 0.71219 0.0
H1150 H 0.74896 0.09424 0.79022 0.0
C1151 C 0.82466 0.10608 0.78579 0.0
C1152 C 0.82395 0.09841 0.81206 0.0
C1153 C 0.8079 0.10373 0.76801 0.0
C1154 C 0.75143 0.09341 0.76851 0.0
H1155 H 0.69972 0.0866 0.64199 0.0
H1156 H 0.72855 0.07914 0.67242 0.0
H1157 H 0.71885 0.09537 0.76054 0.0
H1158 H 0.80556 0.08141 0.83983 0.0
H1159 H 0.77657 0.07669 0.80846 0.0
H1160 H 0.78919 0.09024 0.72019 0.0
C1161 C 0.71689 0.08929 0.6792 0.0
C1162 C 0.73412 0.0944 0.75142 0.0
C1163 C 0.70032 0.0935 0.66178 0.0
C1164 C 0.80644 0.08771 0.81982 0.0
C1165 C 0.78978 0.08509 0.80186 0.0
C1166 C 0.77394 0.09149 0.72929 0.0
C1167 C 0.71832 0.09806 0.70499 0.0
C1168 C 0.73653 0.09465 0.72304 0.0
C1169 C 0.79012 0.09338 0.77589 0.0
C1170 C 0.77162 0.09232 0.75768 0.0
H1171 H 0.67424 0.12497 0.7027 0.0
H1172 H 0.70334 0.11825 0.7325 0.0
H1173 H 0.75915 0.09301 0.69046 0.0
H1174 H 0.83789 0.11449 0.77924 0.0
H1175 H 0.80864 0.11064 0.74843 0.0
C1176 C 0.81913 0.43143 0.95895 0.0
C1177 C 0.8295 0.43255 0.93396 0.0
C1178 C 0.81323 0.44824 0.97273 0.0
C1179 C 0.80559 0.50062 0.96402 0.0
H1180 H 0.82749 0.50487 0.03725 0.0
C1181 C 0.82908 0.57278 0.0124 0.0
C1182 C 0.82691 0.57544 0.04057 0.0
C1183 C 0.82424 0.55511 0.00028 0.0
C1184 C 0.82084 0.50388 0.01705 0.0
H1185 H 0.84074 0.45193 0.90299 0.0
H1186 H 0.83037 0.48103 0.92675 0.0
H1187 H 0.82715 0.47376 0.01434 0.0
H1188 H 0.81688 0.56183 0.07787 0.0
H1189 H 0.80823 0.53116 0.05664 0.0
H1190 H 0.79986 0.53084 0.96638 0.0
C1191 C 0.82678 0.46731 0.93583 0.0
C1192 C 0.82063 0.48601 0.00394 0.0
C1193 C 0.8329 0.45062 0.92234 0.0
C1194 C 0.81901 0.56024 0.05615 0.0
C1195 C 0.81409 0.54261 0.04401 0.0
C1196 C 0.8057 0.51847 0.97716 0.0
C1197 C 0.81729 0.46635 0.96142 0.0
C1198 C 0.81364 0.48433 0.97698 0.0
C1199 C 0.81699 0.53972 0.01601 0.0
C1200 C 0.81396 0.52042 0.00351 0.0
H1201 H 0.81632 0.41765 0.96832 0.0
H1202 H 0.80588 0.44711 0.99241 0.0
H1203 H 0.79984 0.49967 0.94334 0.0
H1204 H 0.8351 0.58416 -0.00024 0.0
H1205 H 0.82694 0.55332 0.97871 0.0
C1206 C 0.18316 0.09272 0.78976 0.0
C1207 C 0.18625 0.093 0.81804 0.0
C1208 C 0.19961 0.0888 0.77222 0.0
C1209 C 0.2564 0.09188 0.76885 0.0
H1210 H 0.24747 0.06614 0.69961 0.0
C1211 C 0.31889 0.09091 0.6848 0.0
C1212 C 0.31129 0.09774 0.6599 0.0
C1213 C 0.30509 0.08569 0.70539 0.0
C1214 C 0.25022 0.07326 0.71894 0.0
H1215 H 0.20903 0.08863 0.85004 0.0
H1216 H 0.23778 0.08165 0.81928 0.0
H1217 H 0.22037 0.06518 0.73419 0.0
H1218 H 0.28342 0.10357 0.63648 0.0
H1219 H 0.25943 0.09435 0.67224 0.0
H1220 H 0.28602 0.10039 0.75324 0.0
C1221 C 0.22262 0.08473 0.81075 0.0
C1222 C 0.23471 0.07278 0.73869 0.0
C1223 C 0.20612 0.08869 0.82836 0.0
C1224 C 0.28972 0.09845 0.65552 0.0
C1225 C 0.27598 0.09301 0.67591 0.0
C1226 C 0.27197 0.09226 0.74914 0.0
C1227 C 0.21959 0.08498 0.78247 0.0
C1228 C 0.23733 0.08266 0.76349 0.0
C1229 C 0.28351 0.08692 0.70122 0.0
C1230 C 0.26873 0.0835 0.72367 0.0
H1231 H 0.16809 0.09592 0.78102 0.0
H1232 H 0.19679 0.08943 0.75055 0.0
H1233 H 0.25887 0.09977 0.78763 0.0
H1234 H 0.33546 0.0902 0.6887 0.0
H1235 H 0.31128 0.08096 0.72469 0.0
C1236 C 0.68368 0.56384 0.46225 0.0
C1237 C 0.67159 0.56129 0.43863 0.0
C1238 C 0.68661 0.54853 0.48016 0.0
C1239 C 0.65645 0.50986 0.50443 0.0
H1240 H 0.70586 0.48505 0.53267 0.0
C1241 C 0.64976 0.45541 0.58902 0.0
C1242 C 0.6581 0.4373 0.58268 0.0
C1243 C 0.65535 0.47147 0.57402 0.0
C1244 C 0.692 0.49196 0.52496 0.0
H1245 H 0.65476 0.5404 0.41399 0.0
H1246 H 0.65966 0.51398 0.44532 0.0
H1247 H 0.70932 0.51128 0.49959 0.0
H1248 H 0.67991 0.42202 0.5569 0.0
H1249 H 0.68961 0.45029 0.53041 0.0
H1250 H 0.63902 0.4908 0.5293 0.0
C1251 C 0.66674 0.52775 0.45004 0.0
C1252 C 0.69399 0.50692 0.50624 0.0
C1253 C 0.6639 0.54291 0.4322 0.0
C1254 C 0.67313 0.43579 0.56211 0.0
C1255 C 0.67879 0.45195 0.54709 0.0
C1256 C 0.65448 0.49524 0.52329 0.0
C1257 C 0.67743 0.53061 0.47459 0.0
C1258 C 0.67615 0.51572 0.49559 0.0
C1259 C 0.66942 0.46979 0.5524 0.0
C1260 C 0.67218 0.48603 0.53359 0.0
H1261 H 0.68984 0.57785 0.46764 0.0
H1262 H 0.69485 0.551 0.4991 0.0
H1263 H 0.6425 0.51655 0.49653 0.0
H1264 H 0.63834 0.45711 0.60498 0.0
H1265 H 0.6481 0.48512 0.57872 0.0
C1266 C 0.31336 0.90885 0.3131 0.0
C1267 C 0.30661 0.90091 0.33769 0.0
C1268 C 0.29901 0.91296 0.29252 0.0
C1269 C 0.2429 0.91971 0.27873 0.0
H1270 H 0.25468 0.8956 0.20921 0.0
C1271 C 0.17834 0.89602 0.20557 0.0
C1272 C 0.18148 0.89715 0.17738 0.0
C1273 C 0.19436 0.90054 0.22369 0.0
C1274 C 0.25128 0.90279 0.22826 0.0
H1275 H 0.27958 0.89199 0.36065 0.0
H1276 H 0.25464 0.89928 0.32498 0.0
H1277 H 0.28174 0.89717 0.24396 0.0
H1278 H 0.20391 0.90443 0.14621 0.0
H1279 H 0.23188 0.91243 0.17799 0.0
H1280 H 0.2123 0.9249 0.26336 0.0
C1281 C 0.27093 0.90234 0.32149 0.0
C1282 C 0.2668 0.90369 0.24817 0.0
C1283 C 0.28525 0.89802 0.34185 0.0
C1284 C 0.20097 0.90327 0.16778 0.0
C1285 C 0.21703 0.90782 0.18598 0.0
C1286 C 0.22744 0.91891 0.25879 0.0
C1287 C 0.27768 0.90947 0.29641 0.0
C1288 C 0.26254 0.91161 0.27389 0.0
C1289 C 0.21394 0.90638 0.21414 0.0
C1290 C 0.23123 0.90987 0.23365 0.0
H1291 H 0.32975 0.91122 0.30937 0.0
H1292 H 0.3046 0.91853 0.2734 0.0
H1293 H 0.23931 0.92617 0.29824 0.0
H1294 H 0.16356 0.89139 0.21377 0.0
H1295 H 0.19153 0.89893 0.24522 0.0
C1296 C 0.67326 0.06361 0.53582 0.0
C1297 C 0.66606 0.06407 0.5627 0.0
C1298 C 0.67626 0.046 0.52246 0.0
C1299 C 0.65764 0.9959 0.52686 0.0
H1300 H 0.69893 0.98573 0.47136 0.0
C1301 C 0.66528 0.92145 0.47866 0.0
C1302 C 0.66489 0.92084 0.4501 0.0
C1303 C 0.66849 0.93876 0.49247 0.0
C1304 C 0.6873 0.98845 0.48679 0.0
H1305 H 0.65804 0.04675 0.59748 0.0
H1306 H 0.66412 0.01619 0.57478 0.0
H1307 H 0.69951 0.01644 0.49607 0.0
H1308 H 0.66877 0.9379 0.41372 0.0
H1309 H 0.67437 0.9682 0.43806 0.0
H1310 H 0.64546 0.96803 0.51776 0.0
C1311 C 0.66661 0.02926 0.56348 0.0
C1312 C 0.68759 0.00602 0.50088 0.0
C1313 C 0.66326 0.04677 0.57658 0.0
C1314 C 0.66882 0.93785 0.43572 0.0
C1315 C 0.67216 0.9552 0.44962 0.0
C1316 C 0.6575 0.97838 0.51305 0.0
C1317 C 0.67238 0.02861 0.53596 0.0
C1318 C 0.67275 0.00992 0.52114 0.0
C1319 C 0.6715 0.95586 0.47811 0.0
C1320 C 0.6723 0.97445 0.49291 0.0
H1321 H 0.6755 0.0768 0.52469 0.0
H1322 H 0.68064 0.04605 0.50125 0.0
H1323 H 0.64557 -0.00143 0.54171 0.0
H1324 H 0.66255 0.90865 0.49046 0.0
H1325 H 0.66821 0.93884 0.51448 0.0
C1326 C 0.3097 0.40409 0.70747 0.0
C1327 C 0.30651 0.40366 0.67922 0.0
C1328 C 0.29377 0.40963 0.72493 0.0
C1329 C 0.23719 0.41049 0.72908 0.0
H1330 H 0.24906 0.43598 0.79777 0.0
C1331 C 0.17789 0.41139 0.81658 0.0
C1332 C 0.18644 0.40344 0.84025 0.0
C1333 C 0.19088 0.4174 0.79554 0.0
C1334 C 0.24546 0.42902 0.77855 0.0
H1335 H 0.28416 0.40939 0.64715 0.0
H1336 H 0.25623 0.41906 0.67786 0.0
H1337 H 0.27533 0.43567 0.76208 0.0
H1338 H 0.21513 0.39663 0.86128 0.0
H1339 H 0.23773 0.40723 0.82479 0.0
H1340 H 0.20763 0.4032 0.746 0.0
C1341 C 0.2711 0.41494 0.68638 0.0
C1342 C 0.26049 0.42877 0.75818 0.0
C1343 C 0.28711 0.40942 0.66882 0.0
C1344 C 0.20813 0.40259 0.84318 0.0
C1345 C 0.22107 0.40883 0.82238 0.0
C1346 C 0.2221 0.41084 0.74942 0.0
C1347 C 0.27421 0.41492 0.71465 0.0
C1348 C 0.25686 0.41877 0.7337 0.0
C1349 C 0.21258 0.41585 0.79809 0.0
C1350 C 0.22645 0.4194 0.77474 0.0
H1351 H 0.32445 0.39986 0.71625 0.0
H1352 H 0.29659 0.40909 0.74661 0.0
H1353 H 0.23394 0.40258 0.71051 0.0
H1354 H 0.1612 0.41222 0.81384 0.0
H1355 H 0.18398 0.4228 0.77702 0.0
C1356 C 0.82863 0.04327 0.91086 0.0
C1357 C 0.83046 0.06113 0.92397 0.0
C1358 C 0.8218 0.02722 0.92509 0.0
C1359 C 0.80176 0.01114 0.993 0.0
H1360 H 0.83322 0.96543 0.97458 0.0
C1361 C 0.82878 0.95301 0.06767 0.0
C1362 C 0.82742 0.93371 0.05937 0.0
C1363 C 0.82259 0.96763 0.05023 0.0
C1364 C 0.82399 0.97795 0.97967 0.0
H1365 H 0.82584 0.0766 0.96173 0.0
H1366 H 0.81519 0.04844 0.98721 0.0
H1367 H 0.83481 0.99302 0.94509 0.0
H1368 H 0.81765 0.91445 0.02694 0.0
H1369 H 0.80745 0.94017 0.99599 0.0
H1370 H 0.79249 0.9962 0.02898 0.0
C1371 C 0.81821 0.04676 0.96572 0.0
C1372 C 0.82479 0.99384 0.96268 0.0
C1373 C 0.82446 0.06294 0.9512 0.0
C1374 C 0.81885 0.92922 0.03382 0.0
C1375 C 0.81304 0.94389 0.01614 0.0
C1376 C 0.80133 0.99532 0.01032 0.0
C1377 C 0.81736 0.02854 0.95303 0.0
C1378 C 0.81405 0.01084 0.96936 0.0
C1379 C 0.81529 0.96322 0.02402 0.0
C1380 C 0.81278 0.97875 0.00402 0.0
H1381 H 0.83288 0.04163 0.88969 0.0
H1382 H 0.82068 0.01365 0.91431 0.0
H1383 H 0.79289 0.02375 0.99857 0.0
H1384 H 0.83522 0.95685 0.08734 0.0
H1385 H 0.82466 0.98243 0.05666 0.0
C1386 C 0.19404 0.59006 0.17038 0.0
C1387 C 0.1784 0.60252 0.17972 0.0
C1388 C 0.21155 0.58642 0.18635 0.0
C1389 C 0.23269 0.59214 0.25648 0.0
H1390 H 0.28581 0.5901 0.21952 0.0
C1391 C 0.30872 0.58551 0.31701 0.0
C1392 C 0.32525 0.59725 0.30861 0.0
C1393 C 0.29137 0.58274 0.30032 0.0
C1394 C 0.27113 0.59074 0.2302 0.0
H1395 H 0.16869 0.62068 0.21332 0.0
H1396 H 0.1995 0.61488 0.24078 0.0
H1397 H 0.25395 0.59236 0.1931 0.0
H1398 H 0.3369 0.61474 0.27574 0.0
H1399 H 0.30639 0.61048 0.24703 0.0
H1400 H 0.24989 0.59176 0.2936 0.0
C1401 C 0.19806 0.6075 0.22143 0.0
C1402 C 0.25279 0.59174 0.21501 0.0
C1403 C 0.18042 0.61093 0.20561 0.0
C1404 C 0.32445 0.60555 0.28274 0.0
C1405 C 0.30695 0.60301 0.2662 0.0
C1406 C 0.25103 0.59136 0.27167 0.0
C1407 C 0.21396 0.59535 0.21188 0.0
C1408 C 0.23335 0.59274 0.22798 0.0
C1409 C 0.29001 0.59188 0.27502 0.0
C1410 C 0.2705 0.59093 0.25873 0.0
H1411 H 0.19282 0.58315 0.15064 0.0
H1412 H 0.22326 0.57668 0.17857 0.0
H1413 H 0.218 0.59254 0.26716 0.0
H1414 H 0.30903 0.57869 0.33671 0.0
H1415 H 0.27885 0.57369 0.30749 0.0
C1416 C 0.32761 0.06017 0.55944 0.0
C1417 C 0.33911 0.07383 0.54496 0.0
C1418 C 0.32406 0.04189 0.5485 0.0
C1419 C 0.32802 0.01341 0.48405 0.0
H1420 H 0.32925 0.97046 0.53356 0.0
C1421 C 0.3217 0.93607 0.44349 0.0
C1422 C 0.33452 0.92234 0.45583 0.0
C1423 C 0.31885 0.95407 0.45558 0.0
C1424 C 0.32904 0.98225 0.51938 0.0
H1425 H 0.35583 0.07916 0.50763 0.0
H1426 H 0.35054 0.04707 0.48902 0.0
H1427 H 0.33166 0.00292 0.55143 0.0
H1428 H 0.35399 0.91647 0.49076 0.0
H1429 H 0.34986 0.94808 0.51125 0.0
H1430 H 0.32696 0.99275 0.45188 0.0
C1431 C 0.34359 0.05055 0.50843 0.0
C1432 C 0.33007 0.00097 0.52969 0.0
C1433 C 0.34678 0.06895 0.51916 0.0
C1434 C 0.3439 0.92673 0.48089 0.0
C1435 C 0.34141 0.94488 0.4927 0.0
C1436 C 0.32739 0.99469 0.47371 0.0
C1437 C 0.33229 0.03672 0.52302 0.0
C1438 C 0.32982 0.01681 0.51215 0.0
C1439 C 0.32913 0.95892 0.47997 0.0
C1440 C 0.32813 0.97883 0.4912 0.0
H1441 H 0.32129 0.06362 0.57926 0.0
H1442 H 0.31489 0.03183 0.56009 0.0
H1443 H 0.32735 0.0252 0.46989 0.0
H1444 H 0.31406 0.93296 0.42431 0.0
H1445 H 0.30882 0.96427 0.44552 0.0
C1446 C 0.78384 0.60821 0.15938 0.0
C1447 C 0.80331 0.59922 0.15789 0.0
C1448 C 0.7696 0.60306 0.17925 0.0
C1449 C 0.76575 0.58074 0.2465 0.0
H1450 H 0.70701 0.58504 0.22987 0.0
C1451 C 0.67851 0.58186 0.29989 0.0
C1452 C 0.6838 0.5922 0.32348 0.0
C1453 C 0.69372 0.57709 0.28087 0.0
C1454 C 0.72327 0.58328 0.23501 0.0
H1455 H 0.82308 0.57753 0.17579 0.0
H1456 H 0.79785 0.56815 0.21045 0.0
H1457 H 0.73207 0.58628 0.19354 0.0
H1458 H 0.7091 0.60506 0.34637 0.0
H1459 H 0.7355 0.5979 0.31248 0.0
H1460 H 0.75686 0.57729 0.288 0.0
C1461 C 0.79378 0.57943 0.19642 0.0
C1462 C 0.73773 0.58435 0.21407 0.0
C1463 C 0.80818 0.58474 0.17654 0.0
C1464 C 0.70467 0.59704 0.32831 0.0
C1465 C 0.71982 0.59275 0.30892 0.0
C1466 C 0.75123 0.57931 0.26748 0.0
C1467 C 0.77433 0.58859 0.19801 0.0
C1468 C 0.75915 0.58392 0.21967 0.0
C1469 C 0.71445 0.58313 0.2846 0.0
C1470 C 0.72981 0.58128 0.26213 0.0
H1471 H 0.77966 0.61954 0.14545 0.0
H1472 H 0.75504 0.6108 0.18025 0.0
H1473 H 0.78215 0.5803 0.25155 0.0
H1474 H 0.66254 0.57767 0.29596 0.0
H1475 H 0.68905 0.56914 0.26288 0.0
C1476 C 0.18324 0.92814 0.0394 0.0
C1477 C 0.17265 0.93163 0.06384 0.0
C1478 C 0.18977 0.94346 0.02334 0.0
C1479 C 0.19985 0.99543 0.0217 0.0
H1480 H 0.1733 0.99309 0.95102 0.0
C1481 C 0.18073 0.06306 0.95991 0.0
C1482 C 0.17751 0.06122 0.93186 0.0
C1483 C 0.18611 0.04698 0.97525 0.0
C1484 C 0.18143 0.99395 0.97027 0.0
H1485 H 0.16184 0.95375 0.09163 0.0
H1486 H 0.17354 0.98049 0.06374 0.0
H1487 H 0.17285 0.96513 0.9798 0.0
H1488 H 0.17924 0.04197 0.89725 0.0
H1489 H 0.1901 0.01427 0.9235 0.0
H1490 H 0.20844 0.0243 0.01226 0.0
C1491 C 0.17668 0.96595 0.05695 0.0
C1492 C 0.18104 0.97785 0.98685 0.0
C1493 C 0.16984 0.95066 0.07277 0.0
C1494 C 0.18138 0.04359 0.919 0.0
C1495 C 0.18738 0.02769 0.93414 0.0
C1496 C 0.20063 0.0115 0.00486 0.0
C1497 C 0.18615 0.96248 0.03174 0.0
C1498 C 0.18974 0.97859 0.01296 0.0
C1499 C 0.18885 0.02891 0.96264 0.0
C1500 C 0.1909 0.01116 0.97917 0.0
H1501 H 0.18564 0.91361 0.03207 0.0
H1502 H 0.19707 0.94046 0.00397 0.0
H1503 H 0.20676 0.99628 0.04177 0.0
H1504 H 0.17772 0.07656 0.97022 0.0
H1505 H 0.18688 0.04858 0.99711 0.0
C1506 C 0.68643 0.40992 0.68523 0.0
C1507 C 0.67048 0.39721 0.69272 0.0
C1508 C 0.70361 0.41285 0.70219 0.0
C1509 C 0.72366 0.4037 0.7721 0.0
H1510 H 0.77722 0.40658 0.7364 0.0
C1511 C 0.79968 0.40656 0.83402 0.0
C1512 C 0.81623 0.39537 0.82418 0.0
C1513 C 0.78223 0.40994 0.8178 0.0
C1514 C 0.76241 0.40567 0.74672 0.0
H1515 H 0.65979 0.37796 0.72414 0.0
H1516 H 0.69005 0.38249 0.75323 0.0
H1517 H 0.74565 0.40619 0.70926 0.0
H1518 H 0.82766 0.37928 0.78943 0.0
H1519 H 0.79701 0.38459 0.76151 0.0
H1520 H 0.74047 0.4019 0.80944 0.0
C1521 C 0.68911 0.39062 0.73463 0.0
C1522 C 0.74423 0.40576 0.73115 0.0
C1523 C 0.67178 0.38791 0.71786 0.0
C1524 C 0.81521 0.38805 0.79755 0.0
C1525 C 0.79765 0.39121 0.78147 0.0
C1526 C 0.74185 0.40335 0.78765 0.0
C1527 C 0.70539 0.40292 0.72684 0.0
C1528 C 0.72462 0.40449 0.74361 0.0
C1529 C 0.78081 0.40199 0.79151 0.0
C1530 C 0.76147 0.40404 0.77513 0.0
H1531 H 0.68573 0.4175 0.66613 0.0
H1532 H 0.71559 0.42276 0.6958 0.0
H1533 H 0.70884 0.40304 0.78244 0.0
H1534 H 0.80012 0.4126 0.85436 0.0
H1535 H 0.76978 0.41866 0.826 0.0
loop_
_geom_bond_atom_site_label_1
_geom_bond_atom_site_label_2
_geom_bond_distance
_geom_bond_site_symmetry_2
_ccdc_geom_bond_type
Mn0 O5 2.095 . S
Mn0 O15 2.162 . S
Mn0 O16 2.297 . S
Mn0 O24 2.385 . S
Mn0 O25 2.209 . S
Mn0 O26 2.094 . S
Mn1 O6 2.121 . S
Mn1 N8 2.257 . S
Mn1 N17 2.282 . S
Mn1 O25 2.215 . S
Mn1 O27 2.117 . S
C2 O24 1.234 . S
C2 O25 1.283 . S
C3 O15 1.281 . S
C3 O16 1.236 . S
C4 O26 1.240 . S
C4 O27 1.264 . S
O5 Mn0 2.095 . S
O5 C14 1.250 . S
O6 Mn1 2.121 . S
O6 C14 1.258 . S
C7 N8 1.326 . S
C7 C11 1.460 . S
C7 H13 0.929 . S
N8 Mn1 2.257 . S
N8 C7 1.326 . S
N8 C12 1.362 . S
C9 C10 1.258 . S
C9 C12 1.431 . S
C9 C29 1.449 . S
C10 C9 1.258 . S
C10 C11 1.477 . S
C10 H30 0.931 . S
C11 C7 1.460 . S
C11 C10 1.477 . S
C11 H31 0.930 . S
C12 N8 1.362 . S
C12 C9 1.431 . S
C12 C22 1.476 . S
H13 C7 0.929 . S
C14 O5 1.250 . S
C14 O6 1.258 . S
O15 Mn0 2.162 . S
O15 C3 1.281 . S
O16 Mn0 2.297 . S
O16 C3 1.236 . S
N17 Mn1 2.282 . S
N17 C18 1.328 . S
N17 C22 1.318 . S
C18 N17 1.328 . S
C18 C19 1.457 . S
C18 H23 0.929 . S
C19 C18 1.457 . S
C19 C20 1.291 . S
C19 H32 0.931 . S
C20 C19 1.291 . S
C20 C21 1.373 . S
C20 H33 0.929 . S
C21 C20 1.373 . S
C21 C22 1.396 . S
C21 C28 1.403 . S
C22 C12 1.476 . S
C22 N17 1.318 . S
C22 C21 1.396 . S
H23 C18 0.929 . S
O24 Mn0 2.385 . S
O24 C2 1.234 . S
O25 Mn0 2.209 . S
O25 Mn1 2.215 . S
O25 C2 1.283 . S
O26 Mn0 2.094 . S
O26 C4 1.240 . S
O27 Mn1 2.117 . S
O27 C4 1.264 . S
C28 C21 1.403 . S
C28 C29 1.399 . S
C28 H34 0.929 . S
C29 C9 1.449 . S
C29 C28 1.399 . S
C29 H35 0.930 . S
H30 C10 0.931 . S
H31 C11 0.930 . S
H32 C19 0.931 . S
H33 C20 0.929 . S
H34 C28 0.929 . S
H35 C29 0.930 . S
Mn36 O41 2.095 . S
Mn36 O51 2.162 . S
Mn36 O52 2.297 . S
Mn36 O60 2.385 . S
Mn36 O61 2.209 . S
Mn36 O62 2.094 . S
Mn37 O42 2.121 . S
Mn37 N44 2.257 . S
Mn37 N53 2.282 . S
Mn37 O61 2.215 . S
Mn37 O63 2.117 . S
C38 O60 1.234 . S
C38 O61 1.283 . S
C39 O51 1.281 . S
C39 O52 1.236 . S
C40 O62 1.240 . S
C40 O63 1.264 . S
O41 Mn36 2.095 . S
O41 C50 1.250 . S
O42 Mn37 2.121 . S
O42 C50 1.258 . S
C43 N44 1.326 . S
C43 C47 1.460 . S
C43 H49 0.929 . S
N44 Mn37 2.257 . S
N44 C43 1.326 . S
N44 C48 1.362 . S
C45 C46 1.258 . S
C45 C48 1.431 . S
C45 C65 1.449 . S
C46 C45 1.258 . S
C46 C47 1.477 . S
C46 H66 0.931 . S
C47 C43 1.460 . S
C47 C46 1.477 . S
C47 H67 0.930 . S
C48 N44 1.362 . S
C48 C45 1.431 . S
C48 C58 1.476 . S
H49 C43 0.929 . S
C50 O41 1.250 . S
C50 O42 1.258 . S
O51 Mn36 2.162 . S
O51 C39 1.281 . S
O52 Mn36 2.297 . S
O52 C39 1.236 . S
N53 Mn37 2.282 . S
N53 C54 1.328 . S
N53 C58 1.318 . S
C54 N53 1.328 . S
C54 C55 1.457 . S
C54 H59 0.929 . S
C55 C54 1.457 . S
C55 C56 1.291 . S
C55 H68 0.931 . S
C56 C55 1.291 . S
C56 C57 1.373 . S
C56 H69 0.929 . S
C57 C56 1.373 . S
C57 C58 1.396 . S
C57 C64 1.403 . S
C58 C48 1.476 . S
C58 N53 1.318 . S
C58 C57 1.396 . S
H59 C54 0.929 . S
O60 Mn36 2.385 . S
O60 C38 1.234 . S
O61 Mn36 2.209 . S
O61 Mn37 2.215 . S
O61 C38 1.283 . S
O62 Mn36 2.094 . S
O62 C40 1.240 . S
O63 Mn37 2.117 . S
O63 C40 1.264 . S
C64 C57 1.403 . S
C64 C65 1.399 . S
C64 H70 0.929 . S
C65 C45 1.449 . S
C65 C64 1.399 . S
C65 H71 0.930 . S
H66 C46 0.931 . S
H67 C47 0.930 . S
H68 C55 0.931 . S
H69 C56 0.929 . S
H70 C64 0.929 . S
H71 C65 0.930 . S
Mn72 O77 2.095 . S
Mn72 O87 2.162 . S
Mn72 O88 2.297 . S
Mn72 O96 2.385 . S
Mn72 O97 2.209 . S
Mn72 O98 2.094 . S
Mn73 O78 2.121 . S
Mn73 N80 2.257 . S
Mn73 N89 2.282 . S
Mn73 O97 2.215 . S
Mn73 O99 2.117 . S
C74 O96 1.234 . S
C74 O97 1.283 . S
C75 O87 1.281 . S
C75 O88 1.236 . S
C76 O98 1.240 . S
C76 O99 1.264 . S
O77 Mn72 2.095 . S
O77 C86 1.250 . S
O78 Mn73 2.121 . S
O78 C86 1.258 . S
C79 N80 1.326 . S
C79 C83 1.460 . S
C79 H85 0.929 . S
N80 Mn73 2.257 . S
N80 C79 1.326 . S
N80 C84 1.362 . S
C81 C82 1.258 . S
C81 C84 1.431 . S
C81 C101 1.449 . S
C82 C81 1.258 . S
C82 C83 1.477 . S
C82 H102 0.931 . S
C83 C79 1.460 . S
C83 C82 1.477 . S
C83 H103 0.930 . S
C84 N80 1.362 . S
C84 C81 1.431 . S
C84 C94 1.476 . S
H85 C79 0.929 . S
C86 O77 1.250 . S
C86 O78 1.258 . S
O87 Mn72 2.162 . S
O87 C75 1.281 . S
O88 Mn72 2.297 . S
O88 C75 1.236 . S
N89 Mn73 2.282 . S
N89 C90 1.328 . S
N89 C94 1.318 . S
C90 N89 1.328 . S
C90 C91 1.457 . S
C90 H95 0.929 . S
C91 C90 1.457 . S
C91 C92 1.291 . S
C91 H104 0.931 . S
C92 C91 1.291 . S
C92 C93 1.373 . S
C92 H105 0.929 . S
C93 C92 1.373 . S
C93 C94 1.396 . S
C93 C100 1.403 . S
C94 C84 1.476 . S
C94 N89 1.318 . S
C94 C93 1.396 . S
H95 C90 0.929 . S
O96 Mn72 2.385 . S
O96 C74 1.234 . S
O97 Mn72 2.209 . S
O97 Mn73 2.215 . S
O97 C74 1.283 . S
O98 Mn72 2.094 . S
O98 C76 1.240 . S
O99 Mn73 2.117 . S
O99 C76 1.264 . S
C100 C93 1.403 . S
C100 C101 1.399 . S
C100 H106 0.929 . S
C101 C81 1.449 . S
C101 C100 1.399 . S
C101 H107 0.930 . S
H102 C82 0.931 . S
H103 C83 0.930 . S
H104 C91 0.931 . S
H105 C92 0.929 . S
H106 C100 0.929 . S
H107 C101 0.930 . S
Mn108 O113 2.095 . S
Mn108 O123 2.162 . S
Mn108 O124 2.297 . S
Mn108 O132 2.385 . S
Mn108 O133 2.209 . S
Mn108 O134 2.094 . S
Mn109 O114 2.121 . S
Mn109 N116 2.257 . S
Mn109 N125 2.282 . S
Mn109 O133 2.215 . S
Mn109 O135 2.117 . S
C110 O132 1.234 . S
C110 O133 1.283 . S
C111 O123 1.281 . S
C111 O124 1.236 . S
C112 O134 1.240 . S
C112 O135 1.264 . S
O113 Mn108 2.095 . S
O113 C122 1.250 . S
O114 Mn109 2.121 . S
O114 C122 1.258 . S
C115 N116 1.326 . S
C115 C119 1.460 . S
C115 H121 0.929 . S
N116 Mn109 2.257 . S
N116 C115 1.326 . S
N116 C120 1.362 . S
C117 C118 1.258 . S
C117 C120 1.431 . S
C117 C137 1.449 . S
C118 C117 1.258 . S
C118 C119 1.477 . S
C118 H138 0.931 . S
C119 C115 1.460 . S
C119 C118 1.477 . S
C119 H139 0.930 . S
C120 N116 1.362 . S
C120 C117 1.431 . S
C120 C130 1.476 . S
H121 C115 0.929 . S
C122 O113 1.250 . S
C122 O114 1.258 . S
O123 Mn108 2.162 . S
O123 C111 1.281 . S
O124 Mn108 2.297 . S
O124 C111 1.236 . S
N125 Mn109 2.282 . S
N125 C126 1.328 . S
N125 C130 1.318 . S
C126 N125 1.328 . S
C126 C127 1.457 . S
C126 H131 0.929 . S
C127 C126 1.457 . S
C127 C128 1.291 . S
C127 H140 0.931 . S
C128 C127 1.291 . S
C128 C129 1.373 . S
C128 H141 0.929 . S
C129 C128 1.373 . S
C129 C130 1.396 . S
C129 C136 1.403 . S
C130 C120 1.476 . S
C130 N125 1.318 . S
C130 C129 1.396 . S
H131 C126 0.929 . S
O132 Mn108 2.385 . S
O132 C110 1.234 . S
O133 Mn108 2.209 . S
O133 Mn109 2.215 . S
O133 C110 1.283 . S
O134 Mn108 2.094 . S
O134 C112 1.240 . S
O135 Mn109 2.117 . S
O135 C112 1.264 . S
C136 C129 1.403 . S
C136 C137 1.399 . S
C136 H142 0.929 . S
C137 C117 1.449 . S
C137 C136 1.399 . S
C137 H143 0.930 . S
H138 C118 0.931 . S
H139 C119 0.930 . S
H140 C127 0.931 . S
H141 C128 0.929 . S
H142 C136 0.929 . S
H143 C137 0.930 . S
Mn144 O149 2.095 . S
Mn144 O159 2.162 . S
Mn144 O160 2.297 . S
Mn144 O168 2.385 . S
Mn144 O169 2.209 . S
Mn144 O170 2.094 . S
Mn145 O150 2.121 . S
Mn145 N152 2.257 . S
Mn145 N161 2.282 . S
Mn145 O169 2.215 . S
Mn145 O171 2.117 . S
C146 O168 1.234 . S
C146 O169 1.283 . S
C147 O159 1.281 . S
C147 O160 1.236 . S
C148 O170 1.240 . S
C148 O171 1.264 . S
O149 Mn144 2.095 . S
O149 C158 1.250 . S
O150 Mn145 2.121 . S
O150 C158 1.258 . S
C151 N152 1.326 . S
C151 C155 1.460 1_556 S
C151 H157 0.929 . S
N152 Mn145 2.257 . S
N152 C151 1.326 . S
N152 C156 1.362 . S
C153 C154 1.258 1_556 S
C153 C156 1.431 . S
C153 C173 1.449 1_556 S
C154 C153 1.258 1_554 S
C154 C155 1.477 . S
C154 H174 0.931 . S
C155 C151 1.460 1_554 S
C155 C154 1.477 . S
C155 H175 0.930 . S
C156 N152 1.362 . S
C156 C153 1.431 . S
C156 C166 1.476 . S
H157 C151 0.929 . S
C158 O149 1.250 . S
C158 O150 1.258 . S
O159 Mn144 2.162 . S
O159 C147 1.281 . S
O160 Mn144 2.297 . S
O160 C147 1.236 . S
N161 Mn145 2.282 . S
N161 C162 1.328 . S
N161 C166 1.318 . S
C162 N161 1.328 . S
C162 C163 1.457 . S
C162 H167 0.929 . S
C163 C162 1.457 . S
C163 C164 1.291 . S
C163 H176 0.931 . S
C164 C163 1.291 . S
C164 C165 1.373 . S
C164 H177 0.929 . S
C165 C164 1.373 . S
C165 C166 1.396 . S
C165 C172 1.403 . S
C166 C156 1.476 . S
C166 N161 1.318 . S
C166 C165 1.396 . S
H167 C162 0.929 . S
O168 Mn144 2.385 . S
O168 C146 1.234 . S
O169 Mn144 2.209 . S
O169 Mn145 2.215 . S
O169 C146 1.283 . S
O170 Mn144 2.094 . S
O170 C148 1.240 . S
O171 Mn145 2.117 . S
O171 C148 1.264 . S
C172 C165 1.403 . S
C172 C173 1.399 1_556 S
C172 H178 0.929 . S
C173 C153 1.449 1_554 S
C173 C172 1.399 1_554 S
C173 H179 0.930 . S
H174 C154 0.931 . S
H175 C155 0.930 . S
H176 C163 0.931 . S
H177 C164 0.929 . S
H178 C172 0.929 . S
H179 C173 0.930 . S
Mn180 O185 2.095 . S
Mn180 O195 2.162 . S
Mn180 O196 2.297 . S
Mn180 O204 2.385 . S
Mn180 O205 2.209 . S
Mn180 O206 2.094 . S
Mn181 O186 2.121 . S
Mn181 N188 2.257 . S
Mn181 N197 2.282 . S
Mn181 O205 2.215 . S
Mn181 O207 2.117 . S
C182 O204 1.234 . S
C182 O205 1.283 . S
C183 O195 1.281 . S
C183 O196 1.236 . S
C184 O206 1.240 . S
C184 O207 1.264 . S
O185 Mn180 2.095 . S
O185 C194 1.250 . S
O186 Mn181 2.121 . S
O186 C194 1.258 . S
C187 N188 1.326 . S
C187 C191 1.460 . S
C187 H193 0.929 . S
N188 Mn181 2.257 . S
N188 C187 1.326 . S
N188 C192 1.362 . S
C189 C190 1.258 . S
C189 C192 1.431 . S
C189 C209 1.449 . S
C190 C189 1.258 . S
C190 C191 1.477 . S
C190 H210 0.931 . S
C191 C187 1.460 . S
C191 C190 1.477 . S
C191 H211 0.930 . S
C192 N188 1.362 . S
C192 C189 1.431 . S
C192 C202 1.476 . S
H193 C187 0.929 . S
C194 O185 1.250 . S
C194 O186 1.258 . S
O195 Mn180 2.162 . S
O195 C183 1.281 . S
O196 Mn180 2.297 . S
O196 C183 1.236 . S
N197 Mn181 2.282 . S
N197 C198 1.328 . S
N197 C202 1.318 . S
C198 N197 1.328 . S
C198 C199 1.457 . S
C198 H203 0.929 . S
C199 C198 1.457 . S
C199 C200 1.291 . S
C199 H212 0.931 . S
C200 C199 1.291 . S
C200 C201 1.373 . S
C200 H213 0.929 . S
C201 C200 1.373 . S
C201 C202 1.396 . S
C201 C208 1.403 . S
C202 C192 1.476 . S
C202 N197 1.318 . S
C202 C201 1.396 . S
H203 C198 0.929 . S
O204 Mn180 2.385 . S
O204 C182 1.234 . S
O205 Mn180 2.209 . S
O205 Mn181 2.215 . S
O205 C182 1.283 . S
O206 Mn180 2.094 . S
O206 C184 1.240 . S
O207 Mn181 2.117 . S
O207 C184 1.264 . S
C208 C201 1.403 . S
C208 C209 1.399 . S
C208 H214 0.929 . S
C209 C189 1.449 . S
C209 C208 1.399 . S
C209 H215 0.930 . S
H210 C190 0.931 . S
H211 C191 0.930 . S
H212 C199 0.931 . S
H213 C200 0.929 . S
H214 C208 0.929 . S
H215 C209 0.930 . S
Mn216 O221 2.095 . S
Mn216 O231 2.162 . S
Mn216 O232 2.297 . S
Mn216 O240 2.385 . S
Mn216 O241 2.209 . S
Mn216 O242 2.094 . S
Mn217 O222 2.121 . S
Mn217 N224 2.257 . S
Mn217 N233 2.282 . S
Mn217 O241 2.215 . S
Mn217 O243 2.117 . S
C218 O240 1.234 . S
C218 O241 1.283 . S
C219 O231 1.281 . S
C219 O232 1.236 . S
C220 O242 1.240 . S
C220 O243 1.264 . S
O221 Mn216 2.095 . S
O221 C230 1.250 . S
O222 Mn217 2.121 . S
O222 C230 1.258 . S
C223 N224 1.326 . S
C223 C227 1.460 . S
C223 H229 0.929 . S
N224 Mn217 2.257 . S
N224 C223 1.326 . S
N224 C228 1.362 . S
C225 C226 1.258 . S
C225 C228 1.431 . S
C225 C245 1.449 . S
C226 C225 1.258 . S
C226 C227 1.477 . S
C226 H246 0.931 . S
C227 C223 1.460 . S
C227 C226 1.477 . S
C227 H247 0.930 . S
C228 N224 1.362 . S
C228 C225 1.431 . S
C228 C238 1.476 . S
H229 C223 0.929 . S
C230 O221 1.250 . S
C230 O222 1.258 . S
O231 Mn216 2.162 . S
O231 C219 1.281 . S
O232 Mn216 2.297 . S
O232 C219 1.236 . S
N233 Mn217 2.282 . S
N233 C234 1.328 . S
N233 C238 1.318 . S
C234 N233 1.328 . S
C234 C235 1.457 . S
C234 H239 0.929 . S
C235 C234 1.457 . S
C235 C236 1.291 . S
C235 H248 0.931 . S
C236 C235 1.291 . S
C236 C237 1.373 . S
C236 H249 0.929 . S
C237 C236 1.373 . S
C237 C238 1.396 . S
C237 C244 1.403 . S
C238 C228 1.476 . S
C238 N233 1.318 . S
C238 C237 1.396 . S
H239 C234 0.929 . S
O240 Mn216 2.385 . S
O240 C218 1.234 . S
O241 Mn216 2.209 . S
O241 Mn217 2.215 . S
O241 C218 1.283 . S
O242 Mn216 2.094 . S
O242 C220 1.240 . S
O243 Mn217 2.117 . S
O243 C220 1.264 . S
C244 C237 1.403 . S
C244 C245 1.399 . S
C244 H250 0.929 . S
C245 C225 1.449 . S
C245 C244 1.399 . S
C245 H251 0.930 . S
H246 C226 0.931 . S
H247 C227 0.930 . S
H248 C235 0.931 . S
H249 C236 0.929 . S
H250 C244 0.929 . S
H251 C245 0.930 . S
Mn252 O257 2.095 . S
Mn252 O267 2.162 . S
Mn252 O268 2.297 . S
Mn252 O276 2.385 . S
Mn252 O277 2.209 . S
Mn252 O278 2.094 . S
Mn253 O258 2.121 . S
Mn253 N260 2.257 . S
Mn253 N269 2.282 . S
Mn253 O277 2.215 . S
Mn253 O279 2.117 . S
C254 O276 1.234 . S
C254 O277 1.283 . S
C255 O267 1.281 . S
C255 O268 1.236 . S
C256 O278 1.240 . S
C256 O279 1.264 . S
O257 Mn252 2.095 . S
O257 C266 1.250 . S
O258 Mn253 2.121 . S
O258 C266 1.258 . S
C259 N260 1.326 . S
C259 C263 1.460 . S
C259 H265 0.929 . S
N260 Mn253 2.257 . S
N260 C259 1.326 . S
N260 C264 1.362 . S
C261 C262 1.258 . S
C261 C264 1.431 . S
C261 C281 1.449 . S
C262 C261 1.258 . S
C262 C263 1.477 . S
C262 H282 0.931 . S
C263 C259 1.460 . S
C263 C262 1.477 . S
C263 H283 0.930 . S
C264 N260 1.362 . S
C264 C261 1.431 . S
C264 C274 1.476 . S
H265 C259 0.929 . S
C266 O257 1.250 . S
C266 O258 1.258 . S
O267 Mn252 2.162 . S
O267 C255 1.281 . S
O268 Mn252 2.297 . S
O268 C255 1.236 . S
N269 Mn253 2.282 . S
N269 C270 1.328 . S
N269 C274 1.318 . S
C270 N269 1.328 . S
C270 C271 1.457 . S
C270 H275 0.929 . S
C271 C270 1.457 . S
C271 C272 1.291 . S
C271 H284 0.931 . S
C272 C271 1.291 . S
C272 C273 1.373 . S
C272 H285 0.929 . S
C273 C272 1.373 . S
C273 C274 1.396 . S
C273 C280 1.403 . S
C274 C264 1.476 . S
C274 N269 1.318 . S
C274 C273 1.396 . S
H275 C270 0.929 . S
O276 Mn252 2.385 . S
O276 C254 1.234 . S
O277 Mn252 2.209 . S
O277 Mn253 2.215 . S
O277 C254 1.283 . S
O278 Mn252 2.094 . S
O278 C256 1.240 . S
O279 Mn253 2.117 . S
O279 C256 1.264 . S
C280 C273 1.403 . S
C280 C281 1.399 . S
C280 H286 0.929 . S
C281 C261 1.449 . S
C281 C280 1.399 . S
C281 H287 0.930 . S
H282 C262 0.931 . S
H283 C263 0.930 . S
H284 C271 0.931 . S
H285 C272 0.929 . S
H286 C280 0.929 . S
H287 C281 0.930 . S
Mn288 O293 2.095 . S
Mn288 O303 2.162 . S
Mn288 O304 2.297 . S
Mn288 O312 2.385 . S
Mn288 O313 2.209 . S
Mn288 O314 2.094 . S
Mn289 O294 2.121 . S
Mn289 N296 2.257 . S
Mn289 N305 2.282 . S
Mn289 O313 2.215 . S
Mn289 O315 2.117 . S
C290 O312 1.234 . S
C290 O313 1.283 . S
C291 O303 1.281 . S
C291 O304 1.236 . S
C292 O314 1.240 . S
C292 O315 1.264 . S
O293 Mn288 2.095 . S
O293 C302 1.250 . S
O294 Mn289 2.121 . S
O294 C302 1.258 . S
C295 N296 1.326 . S
C295 C299 1.460 . S
C295 H301 0.929 . S
N296 Mn289 2.257 . S
N296 C295 1.326 . S
N296 C300 1.362 . S
C297 C298 1.258 . S
C297 C300 1.431 . S
C297 C317 1.449 . S
C298 C297 1.258 . S
C298 C299 1.477 . S
C298 H318 0.931 . S
C299 C295 1.460 . S
C299 C298 1.477 . S
C299 H319 0.930 . S
C300 N296 1.362 . S
C300 C297 1.431 . S
C300 C310 1.476 . S
H301 C295 0.929 . S
C302 O293 1.250 . S
C302 O294 1.258 . S
O303 Mn288 2.162 . S
O303 C291 1.281 . S
O304 Mn288 2.297 . S
O304 C291 1.236 . S
N305 Mn289 2.282 . S
N305 C306 1.328 . S
N305 C310 1.318 . S
C306 N305 1.328 . S
C306 C307 1.457 . S
C306 H311 0.929 . S
C307 C306 1.457 . S
C307 C308 1.291 . S
C307 H320 0.931 . S
C308 C307 1.291 . S
C308 C309 1.373 . S
C308 H321 0.929 . S
C309 C308 1.373 . S
C309 C310 1.396 . S
C309 C316 1.403 . S
C310 C300 1.476 . S
C310 N305 1.318 . S
C310 C309 1.396 . S
H311 C306 0.929 . S
O312 Mn288 2.385 . S
O312 C290 1.234 . S
O313 Mn288 2.209 . S
O313 Mn289 2.215 . S
O313 C290 1.283 . S
O314 Mn288 2.094 . S
O314 C292 1.240 . S
O315 Mn289 2.117 . S
O315 C292 1.264 . S
C316 C309 1.403 . S
C316 C317 1.399 . S
C316 H322 0.929 . S
C317 C297 1.449 . S
C317 C316 1.399 . S
C317 H323 0.930 . S
H318 C298 0.931 . S
H319 C299 0.930 . S
H320 C307 0.931 . S
H321 C308 0.929 . S
H322 C316 0.929 . S
H323 C317 0.930 . S
Mn324 O329 2.095 . S
Mn324 O339 2.162 . S
Mn324 O340 2.297 . S
Mn324 O348 2.385 . S
Mn324 O349 2.209 . S
Mn324 O350 2.094 . S
Mn325 O330 2.121 . S
Mn325 N332 2.257 . S
Mn325 N341 2.282 . S
Mn325 O349 2.215 . S
Mn325 O351 2.117 . S
C326 O348 1.234 . S
C326 O349 1.283 . S
C327 O339 1.281 . S
C327 O340 1.236 . S
C328 O350 1.240 . S
C328 O351 1.264 . S
O329 Mn324 2.095 . S
O329 C338 1.250 . S
O330 Mn325 2.121 . S
O330 C338 1.258 . S
C331 N332 1.326 . S
C331 C335 1.460 . S
C331 H337 0.929 . S
N332 Mn325 2.257 . S
N332 C331 1.326 . S
N332 C336 1.362 . S
C333 C334 1.258 . S
C333 C336 1.431 . S
C333 C353 1.449 . S
C334 C333 1.258 . S
C334 C335 1.477 . S
C334 H354 0.931 . S
C335 C331 1.460 . S
C335 C334 1.477 . S
C335 H355 0.930 . S
C336 N332 1.362 . S
C336 C333 1.431 . S
C336 C346 1.476 . S
H337 C331 0.929 . S
C338 O329 1.250 . S
C338 O330 1.258 . S
O339 Mn324 2.162 . S
O339 C327 1.281 . S
O340 Mn324 2.297 . S
O340 C327 1.236 . S
N341 Mn325 2.282 . S
N341 C342 1.328 . S
N341 C346 1.318 . S
C342 N341 1.328 . S
C342 C343 1.457 . S
C342 H347 0.929 . S
C343 C342 1.457 . S
C343 C344 1.291 . S
C343 H356 0.931 . S
C344 C343 1.291 . S
C344 C345 1.373 . S
C344 H357 0.929 . S
C345 C344 1.373 . S
C345 C346 1.396 . S
C345 C352 1.403 . S
C346 C336 1.476 . S
C346 N341 1.318 . S
C346 C345 1.396 . S
H347 C342 0.929 . S
O348 Mn324 2.385 . S
O348 C326 1.234 . S
O349 Mn324 2.209 . S
O349 Mn325 2.215 . S
O349 C326 1.283 . S
O350 Mn324 2.094 . S
O350 C328 1.240 . S
O351 Mn325 2.117 . S
O351 C328 1.264 . S
C352 C345 1.403 . S
C352 C353 1.399 . S
C352 H358 0.929 . S
C353 C333 1.449 . S
C353 C352 1.399 . S
C353 H359 0.930 . S
H354 C334 0.931 . S
H355 C335 0.930 . S
H356 C343 0.931 . S
H357 C344 0.929 . S
H358 C352 0.929 . S
H359 C353 0.930 . S
Mn360 O365 2.095 . S
Mn360 O375 2.162 . S
Mn360 O376 2.297 . S
Mn360 O384 2.385 . S
Mn360 O385 2.209 . S
Mn360 O386 2.094 . S
Mn361 O366 2.121 . S
Mn361 N368 2.257 . S
Mn361 N377 2.282 . S
Mn361 O385 2.215 . S
Mn361 O387 2.117 . S
C362 O384 1.234 . S
C362 O385 1.283 . S
C363 O375 1.281 . S
C363 O376 1.236 . S
C364 O386 1.240 . S
C364 O387 1.264 . S
O365 Mn360 2.095 . S
O365 C374 1.250 . S
O366 Mn361 2.121 . S
O366 C374 1.258 . S
C367 N368 1.326 . S
C367 C371 1.460 . S
C367 H373 0.929 . S
N368 Mn361 2.257 . S
N368 C367 1.326 . S
N368 C372 1.362 . S
C369 C370 1.258 . S
C369 C372 1.431 . S
C369 C389 1.449 . S
C370 C369 1.258 . S
C370 C371 1.477 . S
C370 H390 0.931 . S
C371 C367 1.460 . S
C371 C370 1.477 . S
C371 H391 0.930 . S
C372 N368 1.362 . S
C372 C369 1.431 . S
C372 C382 1.476 . S
H373 C367 0.929 . S
C374 O365 1.250 . S
C374 O366 1.258 . S
O375 Mn360 2.162 . S
O375 C363 1.281 . S
O376 Mn360 2.297 . S
O376 C363 1.236 . S
N377 Mn361 2.282 . S
N377 C378 1.328 . S
N377 C382 1.318 . S
C378 N377 1.328 . S
C378 C379 1.457 . S
C378 H383 0.929 . S
C379 C378 1.457 . S
C379 C380 1.291 . S
C379 H392 0.931 . S
C380 C379 1.291 . S
C380 C381 1.373 . S
C380 H393 0.929 . S
C381 C380 1.373 . S
C381 C382 1.396 . S
C381 C388 1.403 . S
C382 C372 1.476 . S
C382 N377 1.318 . S
C382 C381 1.396 . S
H383 C378 0.929 . S
O384 Mn360 2.385 . S
O384 C362 1.234 . S
O385 Mn360 2.209 . S
O385 Mn361 2.215 . S
O385 C362 1.283 . S
O386 Mn360 2.094 . S
O386 C364 1.240 . S
O387 Mn361 2.117 . S
O387 C364 1.264 . S
C388 C381 1.403 . S
C388 C389 1.399 . S
C388 H394 0.929 . S
C389 C369 1.449 . S
C389 C388 1.399 . S
C389 H395 0.930 . S
H390 C370 0.931 . S
H391 C371 0.930 . S
H392 C379 0.931 . S
H393 C380 0.929 . S
H394 C388 0.929 . S
H395 C389 0.930 . S
Mn396 O401 2.095 . S
Mn396 O411 2.162 . S
Mn396 O412 2.297 . S
Mn396 O420 2.385 . S
Mn396 O421 2.209 . S
Mn396 O422 2.094 . S
Mn397 O402 2.121 . S
Mn397 N404 2.257 . S
Mn397 N413 2.282 . S
Mn397 O421 2.215 . S
Mn397 O423 2.117 . S
C398 O420 1.234 . S
C398 O421 1.283 . S
C399 O411 1.281 . S
C399 O412 1.236 . S
C400 O422 1.240 . S
C400 O423 1.264 . S
O401 Mn396 2.095 . S
O401 C410 1.250 . S
O402 Mn397 2.121 . S
O402 C410 1.258 . S
C403 N404 1.326 . S
C403 C407 1.460 . S
C403 H409 0.929 . S
N404 Mn397 2.257 . S
N404 C403 1.326 . S
N404 C408 1.362 . S
C405 C406 1.258 . S
C405 C408 1.431 . S
C405 C425 1.449 . S
C406 C405 1.258 . S
C406 C407 1.477 . S
C406 H426 0.931 . S
C407 C403 1.460 . S
C407 C406 1.477 . S
C407 H427 0.930 . S
C408 N404 1.362 . S
C408 C405 1.431 . S
C408 C418 1.476 . S
H409 C403 0.929 . S
C410 O401 1.250 . S
C410 O402 1.258 . S
O411 Mn396 2.162 . S
O411 C399 1.281 . S
O412 Mn396 2.297 . S
O412 C399 1.236 . S
N413 Mn397 2.282 . S
N413 C414 1.328 . S
N413 C418 1.318 . S
C414 N413 1.328 . S
C414 C415 1.457 . S
C414 H419 0.929 . S
C415 C414 1.457 . S
C415 C416 1.291 . S
C415 H428 0.931 . S
C416 C415 1.291 . S
C416 C417 1.373 . S
C416 H429 0.929 . S
C417 C416 1.373 . S
C417 C418 1.396 . S
C417 C424 1.403 . S
C418 C408 1.476 . S
C418 N413 1.318 . S
C418 C417 1.396 . S
H419 C414 0.929 . S
O420 Mn396 2.385 . S
O420 C398 1.234 . S
O421 Mn396 2.209 . S
O421 Mn397 2.215 . S
O421 C398 1.283 . S
O422 Mn396 2.094 . S
O422 C400 1.240 . S
O423 Mn397 2.117 . S
O423 C400 1.264 . S
C424 C417 1.403 . S
C424 C425 1.399 . S
C424 H430 0.929 . S
C425 C405 1.449 . S
C425 C424 1.399 . S
C425 H431 0.930 . S
H426 C406 0.931 . S
H427 C407 0.930 . S
H428 C415 0.931 . S
H429 C416 0.929 . S
H430 C424 0.929 . S
H431 C425 0.930 . S
Mn432 O437 2.095 . S
Mn432 O447 2.162 . S
Mn432 O448 2.297 . S
Mn432 O456 2.385 . S
Mn432 O457 2.209 . S
Mn432 O458 2.094 . S
Mn433 O438 2.121 . S
Mn433 N440 2.257 . S
Mn433 N449 2.282 . S
Mn433 O457 2.215 . S
Mn433 O459 2.117 . S
C434 O456 1.234 . S
C434 O457 1.283 . S
C435 O447 1.281 . S
C435 O448 1.236 . S
C436 O458 1.240 . S
C436 O459 1.264 . S
O437 Mn432 2.095 . S
O437 C446 1.250 . S
O438 Mn433 2.121 . S
O438 C446 1.258 . S
C439 N440 1.326 . S
C439 C443 1.460 1_554 S
C439 H445 0.929 . S
N440 Mn433 2.257 . S
N440 C439 1.326 . S
N440 C444 1.362 . S
C441 C442 1.258 1_554 S
C441 C444 1.431 . S
C441 C461 1.449 1_554 S
C442 C441 1.258 1_556 S
C442 C443 1.477 . S
C442 H462 0.931 . S
C443 C439 1.460 1_556 S
C443 C442 1.477 . S
C443 H463 0.930 . S
C444 N440 1.362 . S
C444 C441 1.431 . S
C444 C454 1.476 . S
H445 C439 0.929 . S
C446 O437 1.250 . S
C446 O438 1.258 . S
O447 Mn432 2.162 . S
O447 C435 1.281 . S
O448 Mn432 2.297 . S
O448 C435 1.236 . S
N449 Mn433 2.282 . S
N449 C450 1.328 . S
N449 C454 1.318 . S
C450 N449 1.328 . S
C450 C451 1.457 . S
C450 H455 0.929 . S
C451 C450 1.457 . S
C451 C452 1.291 . S
C451 H464 0.931 . S
C452 C451 1.291 . S
C452 C453 1.373 . S
C452 H465 0.929 . S
C453 C452 1.373 . S
C453 C454 1.396 . S
C453 C460 1.403 . S
C454 C444 1.476 . S
C454 N449 1.318 . S
C454 C453 1.396 . S
H455 C450 0.929 . S
O456 Mn432 2.385 . S
O456 C434 1.234 . S
O457 Mn432 2.209 . S
O457 Mn433 2.215 . S
O457 C434 1.283 . S
O458 Mn432 2.094 . S
O458 C436 1.240 . S
O459 Mn433 2.117 . S
O459 C436 1.264 . S
C460 C453 1.403 . S
C460 C461 1.399 1_554 S
C460 H466 0.929 . S
C461 C441 1.449 1_556 S
C461 C460 1.399 1_556 S
C461 H467 0.930 . S
H462 C442 0.931 . S
H463 C443 0.930 . S
H464 C451 0.931 . S
H465 C452 0.929 . S
H466 C460 0.929 . S
H467 C461 0.930 . S
Mn468 O473 2.095 . S
Mn468 O483 2.162 . S
Mn468 O484 2.297 . S
Mn468 O492 2.385 . S
Mn468 O493 2.209 . S
Mn468 O494 2.094 . S
Mn469 O474 2.121 . S
Mn469 N476 2.257 . S
Mn469 N485 2.282 . S
Mn469 O493 2.215 . S
Mn469 O495 2.117 . S
C470 O492 1.234 . S
C470 O493 1.283 . S
C471 O483 1.281 . S
C471 O484 1.236 . S
C472 O494 1.240 . S
C472 O495 1.264 . S
O473 Mn468 2.095 . S
O473 C482 1.250 . S
O474 Mn469 2.121 . S
O474 C482 1.258 . S
C475 N476 1.326 . S
C475 C479 1.460 . S
C475 H481 0.929 . S
N476 Mn469 2.257 . S
N476 C475 1.326 . S
N476 C480 1.362 . S
C477 C478 1.258 . S
C477 C480 1.431 . S
C477 C497 1.449 . S
C478 C477 1.258 . S
C478 C479 1.477 . S
C478 H498 0.931 . S
C479 C475 1.460 . S
C479 C478 1.477 . S
C479 H499 0.930 . S
C480 N476 1.362 . S
C480 C477 1.431 . S
C480 C490 1.476 . S
H481 C475 0.929 . S
C482 O473 1.250 . S
C482 O474 1.258 . S
O483 Mn468 2.162 . S
O483 C471 1.281 . S
O484 Mn468 2.297 . S
O484 C471 1.236 . S
N485 Mn469 2.282 . S
N485 C486 1.328 . S
N485 C490 1.318 . S
C486 N485 1.328 . S
C486 C487 1.457 . S
C486 H491 0.929 . S
C487 C486 1.457 . S
C487 C488 1.291 . S
C487 H500 0.931 . S
C488 C487 1.291 . S
C488 C489 1.373 . S
C488 H501 0.929 . S
C489 C488 1.373 . S
C489 C490 1.396 . S
C489 C496 1.403 . S
C490 C480 1.476 . S
C490 N485 1.318 . S
C490 C489 1.396 . S
H491 C486 0.929 . S
O492 Mn468 2.385 . S
O492 C470 1.234 . S
O493 Mn468 2.209 . S
O493 Mn469 2.215 . S
O493 C470 1.283 . S
O494 Mn468 2.094 . S
O494 C472 1.240 . S
O495 Mn469 2.117 . S
O495 C472 1.264 . S
C496 C489 1.403 . S
C496 C497 1.399 . S
C496 H502 0.929 . S
C497 C477 1.449 . S
C497 C496 1.399 . S
C497 H503 0.930 . S
H498 C478 0.931 . S
H499 C479 0.930 . S
H500 C487 0.931 . S
H501 C488 0.929 . S
H502 C496 0.929 . S
H503 C497 0.930 . S
Mn504 O509 2.095 . S
Mn504 O519 2.162 . S
Mn504 O520 2.297 . S
Mn504 O528 2.385 . S
Mn504 O529 2.209 . S
Mn504 O530 2.094 . S
Mn505 O510 2.121 . S
Mn505 N512 2.257 . S
Mn505 N521 2.282 . S
Mn505 O529 2.215 . S
Mn505 O531 2.117 . S
C506 O528 1.234 . S
C506 O529 1.283 . S
C507 O519 1.281 . S
C507 O520 1.236 . S
C508 O530 1.240 . S
C508 O531 1.264 . S
O509 Mn504 2.095 . S
O509 C518 1.250 . S
O510 Mn505 2.121 . S
O510 C518 1.258 . S
C511 N512 1.326 . S
C511 C515 1.460 . S
C511 H517 0.929 . S
N512 Mn505 2.257 . S
N512 C511 1.326 . S
N512 C516 1.362 . S
C513 C514 1.258 . S
C513 C516 1.431 . S
C513 C533 1.449 . S
C514 C513 1.258 . S
C514 C515 1.477 . S
C514 H534 0.931 . S
C515 C511 1.460 . S
C515 C514 1.477 . S
C515 H535 0.930 . S
C516 N512 1.362 . S
C516 C513 1.431 . S
C516 C526 1.476 . S
H517 C511 0.929 . S
C518 O509 1.250 . S
C518 O510 1.258 . S
O519 Mn504 2.162 . S
O519 C507 1.281 . S
O520 Mn504 2.297 . S
O520 C507 1.236 . S
N521 Mn505 2.282 . S
N521 C522 1.328 . S
N521 C526 1.318 . S
C522 N521 1.328 . S
C522 C523 1.457 . S
C522 H527 0.929 . S
C523 C522 1.457 . S
C523 C524 1.291 . S
C523 H536 0.931 . S
C524 C523 1.291 . S
C524 C525 1.373 . S
C524 H537 0.929 . S
C525 C524 1.373 . S
C525 C526 1.396 . S
C525 C532 1.403 . S
C526 C516 1.476 . S
C526 N521 1.318 . S
C526 C525 1.396 . S
H527 C522 0.929 . S
O528 Mn504 2.385 . S
O528 C506 1.234 . S
O529 Mn504 2.209 . S
O529 Mn505 2.215 . S
O529 C506 1.283 . S
O530 Mn504 2.094 . S
O530 C508 1.240 . S
O531 Mn505 2.117 . S
O531 C508 1.264 . S
C532 C525 1.403 . S
C532 C533 1.399 . S
C532 H538 0.929 . S
C533 C513 1.449 . S
C533 C532 1.399 . S
C533 H539 0.930 . S
H534 C514 0.931 . S
H535 C515 0.930 . S
H536 C523 0.931 . S
H537 C524 0.929 . S
H538 C532 0.929 . S
H539 C533 0.930 . S
Mn540 O545 2.095 . S
Mn540 O555 2.162 . S
Mn540 O556 2.297 . S
Mn540 O564 2.385 . S
Mn540 O565 2.209 . S
Mn540 O566 2.094 . S
Mn541 O546 2.121 . S
Mn541 N548 2.257 . S
Mn541 N557 2.282 . S
Mn541 O565 2.215 . S
Mn541 O567 2.117 . S
C542 O564 1.234 . S
C542 O565 1.283 . S
C543 O555 1.281 . S
C543 O556 1.236 . S
C544 O566 1.240 . S
C544 O567 1.264 . S
O545 Mn540 2.095 . S
O545 C554 1.250 . S
O546 Mn541 2.121 . S
O546 C554 1.258 . S
C547 N548 1.326 . S
C547 C551 1.460 . S
C547 H553 0.929 . S
N548 Mn541 2.257 . S
N548 C547 1.326 . S
N548 C552 1.362 . S
C549 C550 1.258 . S
C549 C552 1.431 . S
C549 C569 1.449 . S
C550 C549 1.258 . S
C550 C551 1.477 . S
C550 H570 0.931 . S
C551 C547 1.460 . S
C551 C550 1.477 . S
C551 H571 0.930 . S
C552 N548 1.362 . S
C552 C549 1.431 . S
C552 C562 1.476 . S
H553 C547 0.929 . S
C554 O545 1.250 . S
C554 O546 1.258 . S
O555 Mn540 2.162 . S
O555 C543 1.281 . S
O556 Mn540 2.297 . S
O556 C543 1.236 . S
N557 Mn541 2.282 . S
N557 C558 1.328 . S
N557 C562 1.318 . S
C558 N557 1.328 . S
C558 C559 1.457 . S
C558 H563 0.929 . S
C559 C558 1.457 . S
C559 C560 1.291 . S
C559 H572 0.931 . S
C560 C559 1.291 . S
C560 C561 1.373 . S
C560 H573 0.929 . S
C561 C560 1.373 . S
C561 C562 1.396 . S
C561 C568 1.403 . S
C562 C552 1.476 . S
C562 N557 1.318 . S
C562 C561 1.396 . S
H563 C558 0.929 . S
O564 Mn540 2.385 . S
O564 C542 1.234 . S
O565 Mn540 2.209 . S
O565 Mn541 2.215 . S
O565 C542 1.283 . S
O566 Mn540 2.094 . S
O566 C544 1.240 . S
O567 Mn541 2.117 . S
O567 C544 1.264 . S
C568 C561 1.403 . S
C568 C569 1.399 . S
C568 H574 0.929 . S
C569 C549 1.449 . S
C569 C568 1.399 . S
C569 H575 0.930 . S
H570 C550 0.931 . S
H571 C551 0.930 . S
H572 C559 0.931 . S
H573 C560 0.929 . S
H574 C568 0.929 . S
H575 C569 0.930 . S
C576 C577 1.349 . S
C576 C578 1.327 . S
C576 H601 0.950 . S
C577 C576 1.349 . S
C577 C593 1.349 . S
C578 C576 1.327 . S
C578 C597 1.429 . S
C578 H602 0.950 . S
C579 C596 1.574 . S
C579 C598 1.368 . S
C579 H603 0.949 . S
H580 C584 0.949 . S
C581 C582 1.349 . S
C581 C583 1.327 . S
C581 H604 0.950 . S
C582 C581 1.349 . S
C582 C594 1.349 . S
C583 C581 1.327 . S
C583 C599 1.429 . S
C583 H605 0.950 . S
C584 H580 0.949 . S
C584 C592 1.574 . S
C584 C600 1.368 . S
H585 C593 0.950 . S
H586 C591 0.950 . S
H587 C592 0.949 . S
H588 C594 0.950 . S
H589 C595 0.950 . S
H590 C596 0.949 . S
C591 H586 0.950 . S
C591 C593 1.327 . S
C591 C597 1.429 . S
C592 C584 1.574 . S
C592 H587 0.949 . S
C592 C598 1.368 . S
C593 C577 1.349 . S
C593 H585 0.950 . S
C593 C591 1.327 . S
C594 C582 1.349 . S
C594 H588 0.950 . S
C594 C595 1.327 . S
C595 H589 0.950 . S
C595 C594 1.327 . S
C595 C599 1.429 . S
C596 C579 1.574 . S
C596 H590 0.949 . S
C596 C600 1.368 . S
C597 C578 1.429 . S
C597 C591 1.429 . S
C597 C598 1.523 . S
C598 C579 1.368 . S
C598 C592 1.368 . S
C598 C597 1.523 . S
C599 C583 1.429 . S
C599 C595 1.429 . S
C599 C600 1.523 . S
C600 C584 1.368 . S
C600 C596 1.368 . S
C600 C599 1.523 . S
H601 C576 0.950 . S
H602 C578 0.950 . S
H603 C579 0.949 . S
H604 C581 0.950 . S
H605 C583 0.950 . S
C606 C607 1.349 . S
C606 C608 1.327 . S
C606 H631 0.950 . S
C607 C606 1.349 . S
C607 C623 1.349 . S
C608 C606 1.327 . S
C608 C627 1.429 . S
C608 H632 0.950 . S
C609 C626 1.574 . S
C609 C628 1.368 . S
C609 H633 0.949 . S
H610 C614 0.949 . S
C611 C612 1.349 . S
C611 C613 1.327 . S
C611 H634 0.950 . S
C612 C611 1.349 . S
C612 C624 1.349 . S
C613 C611 1.327 . S
C613 C629 1.429 . S
C613 H635 0.950 . S
C614 H610 0.949 . S
C614 C622 1.574 . S
C614 C630 1.368 . S
H615 C623 0.950 . S
H616 C621 0.950 . S
H617 C622 0.949 . S
H618 C624 0.950 . S
H619 C625 0.950 . S
H620 C626 0.949 . S
C621 H616 0.950 . S
C621 C623 1.327 . S
C621 C627 1.429 . S
C622 C614 1.574 . S
C622 H617 0.949 . S
C622 C628 1.368 . S
C623 C607 1.349 . S
C623 H615 0.950 . S
C623 C621 1.327 . S
C624 C612 1.349 . S
C624 H618 0.950 . S
C624 C625 1.327 . S
C625 H619 0.950 . S
C625 C624 1.327 . S
C625 C629 1.429 . S
C626 C609 1.574 . S
C626 H620 0.949 . S
C626 C630 1.368 . S
C627 C608 1.429 . S
C627 C621 1.429 . S
C627 C628 1.523 . S
C628 C609 1.368 . S
C628 C622 1.368 . S
C628 C627 1.523 . S
C629 C613 1.429 . S
C629 C625 1.429 . S
C629 C630 1.523 . S
C630 C614 1.368 . S
C630 C626 1.368 . S
C630 C629 1.523 . S
H631 C606 0.950 . S
H632 C608 0.950 . S
H633 C609 0.949 . S
H634 C611 0.950 . S
H635 C613 0.950 . S
C636 C637 1.349 . S
C636 C638 1.327 . S
C636 H661 0.950 . S
C637 C636 1.349 . S
C637 C653 1.349 . S
C638 C636 1.327 . S
C638 C657 1.429 . S
C638 H662 0.950 . S
C639 C656 1.574 . S
C639 C658 1.368 . S
C639 H663 0.949 . S
H640 C644 0.949 . S
C641 C642 1.349 . S
C641 C643 1.327 . S
C641 H664 0.950 . S
C642 C641 1.349 . S
C642 C654 1.349 . S
C643 C641 1.327 . S
C643 C659 1.429 . S
C643 H665 0.950 . S
C644 H640 0.949 . S
C644 C652 1.574 . S
C644 C660 1.368 . S
H645 C653 0.950 . S
H646 C651 0.950 . S
H647 C652 0.949 . S
H648 C654 0.950 . S
H649 C655 0.950 . S
H650 C656 0.949 . S
C651 H646 0.950 . S
C651 C653 1.327 . S
C651 C657 1.429 . S
C652 C644 1.574 . S
C652 H647 0.949 . S
C652 C658 1.368 . S
C653 C637 1.349 . S
C653 H645 0.950 . S
C653 C651 1.327 . S
C654 C642 1.349 . S
C654 H648 0.950 . S
C654 C655 1.327 . S
C655 H649 0.950 . S
C655 C654 1.327 . S
C655 C659 1.429 . S
C656 C639 1.574 . S
C656 H650 0.949 . S
C656 C660 1.368 . S
C657 C638 1.429 . S
C657 C651 1.429 . S
C657 C658 1.523 . S
C658 C639 1.368 . S
C658 C652 1.368 . S
C658 C657 1.523 . S
C659 C643 1.429 . S
C659 C655 1.429 . S
C659 C660 1.523 . S
C660 C644 1.368 . S
C660 C656 1.368 . S
C660 C659 1.523 . S
H661 C636 0.950 . S
H662 C638 0.950 . S
H663 C639 0.949 . S
H664 C641 0.950 . S
H665 C643 0.950 . S
C666 C667 1.349 . S
C666 C668 1.327 . S
C666 H691 0.950 . S
C667 C666 1.349 . S
C667 C683 1.349 . S
C668 C666 1.327 . S
C668 C687 1.429 . S
C668 H692 0.950 . S
C669 C686 1.574 1_455 S
C669 C688 1.368 . S
C669 H693 0.949 . S
H670 C674 0.949 . S
C671 C672 1.349 . S
C671 C673 1.327 . S
C671 H694 0.950 . S
C672 C671 1.349 . S
C672 C684 1.349 . S
C673 C671 1.327 . S
C673 C689 1.429 . S
C673 H695 0.950 . S
C674 H670 0.949 . S
C674 C682 1.574 1_655 S
C674 C690 1.368 . S
H675 C683 0.950 . S
H676 C681 0.950 . S
H677 C682 0.949 . S
H678 C684 0.950 . S
H679 C685 0.950 . S
H680 C686 0.949 . S
C681 H676 0.950 . S
C681 C683 1.327 . S
C681 C687 1.429 . S
C682 C674 1.574 1_455 S
C682 H677 0.949 . S
C682 C688 1.368 . S
C683 C667 1.349 . S
C683 H675 0.950 . S
C683 C681 1.327 . S
C684 C672 1.349 . S
C684 H678 0.950 . S
C684 C685 1.327 . S
C685 H679 0.950 . S
C685 C684 1.327 . S
C685 C689 1.429 . S
C686 C669 1.574 1_655 S
C686 H680 0.949 . S
C686 C690 1.368 . S
C687 C668 1.429 . S
C687 C681 1.429 . S
C687 C688 1.523 . S
C688 C669 1.368 . S
C688 C682 1.368 . S
C688 C687 1.523 . S
C689 C673 1.429 . S
C689 C685 1.429 . S
C689 C690 1.523 . S
C690 C674 1.368 . S
C690 C686 1.368 . S
C690 C689 1.523 . S
H691 C666 0.950 . S
H692 C668 0.950 . S
H693 C669 0.949 . S
H694 C671 0.950 . S
H695 C673 0.950 . S
C696 C697 1.349 . S
C696 C698 1.327 . S
C696 H721 0.950 . S
C697 C696 1.349 . S
C697 C713 1.349 . S
C698 C696 1.327 . S
C698 C717 1.429 . S
C698 H722 0.950 . S
C699 C716 1.574 . S
C699 C718 1.368 . S
C699 H723 0.949 . S
H700 C704 0.949 . S
C701 C702 1.349 . S
C701 C703 1.327 . S
C701 H724 0.950 . S
C702 C701 1.349 . S
C702 C714 1.349 . S
C703 C701 1.327 . S
C703 C719 1.429 . S
C703 H725 0.950 . S
C704 H700 0.949 . S
C704 C712 1.574 . S
C704 C720 1.368 . S
H705 C713 0.950 . S
H706 C711 0.950 . S
H707 C712 0.949 . S
H708 C714 0.950 . S
H709 C715 0.950 . S
H710 C716 0.949 . S
C711 H706 0.950 . S
C711 C713 1.327 . S
C711 C717 1.429 . S
C712 C704 1.574 . S
C712 H707 0.949 . S
C712 C718 1.368 . S
C713 C697 1.349 . S
C713 H705 0.950 . S
C713 C711 1.327 . S
C714 C702 1.349 . S
C714 H708 0.950 . S
C714 C715 1.327 . S
C715 H709 0.950 . S
C715 C714 1.327 . S
C715 C719 1.429 . S
C716 C699 1.574 . S
C716 H710 0.949 . S
C716 C720 1.368 . S
C717 C698 1.429 . S
C717 C711 1.429 . S
C717 C718 1.523 . S
C718 C699 1.368 . S
C718 C712 1.368 . S
C718 C717 1.523 . S
C719 C703 1.429 . S
C719 C715 1.429 . S
C719 C720 1.523 . S
C720 C704 1.368 . S
C720 C716 1.368 . S
C720 C719 1.523 . S
H721 C696 0.950 . S
H722 C698 0.950 . S
H723 C699 0.949 . S
H724 C701 0.950 . S
H725 C703 0.950 . S
C726 C727 1.349 . S
C726 C728 1.327 . S
C726 H751 0.950 . S
C727 C726 1.349 . S
C727 C743 1.349 . S
C728 C726 1.327 . S
C728 C747 1.429 . S
C728 H752 0.950 . S
C729 C746 1.574 1_655 S
C729 C748 1.368 . S
C729 H753 0.949 . S
H730 C734 0.949 . S
C731 C732 1.349 . S
C731 C733 1.327 . S
C731 H754 0.950 . S
C732 C731 1.349 . S
C732 C744 1.349 . S
C733 C731 1.327 . S
C733 C749 1.429 . S
C733 H755 0.950 . S
C734 H730 0.949 . S
C734 C742 1.574 1_455 S
C734 C750 1.368 . S
H735 C743 0.950 . S
H736 C741 0.950 . S
H737 C742 0.949 . S
H738 C744 0.950 . S
H739 C745 0.950 . S
H740 C746 0.949 . S
C741 H736 0.950 . S
C741 C743 1.327 . S
C741 C747 1.429 . S
C742 C734 1.574 1_655 S
C742 H737 0.949 . S
C742 C748 1.368 . S
C743 C727 1.349 . S
C743 H735 0.950 . S
C743 C741 1.327 . S
C744 C732 1.349 . S
C744 H738 0.950 . S
C744 C745 1.327 . S
C745 H739 0.950 . S
C745 C744 1.327 . S
C745 C749 1.429 . S
C746 C729 1.574 1_455 S
C746 H740 0.949 . S
C746 C750 1.368 . S
C747 C728 1.429 . S
C747 C741 1.429 . S
C747 C748 1.523 . S
C748 C729 1.368 . S
C748 C742 1.368 . S
C748 C747 1.523 . S
C749 C733 1.429 . S
C749 C745 1.429 . S
C749 C750 1.523 . S
C750 C734 1.368 . S
C750 C746 1.368 . S
C750 C749 1.523 . S
H751 C726 0.950 . S
H752 C728 0.950 . S
H753 C729 0.949 . S
H754 C731 0.950 . S
H755 C733 0.950 . S
C756 C757 1.349 . S
C756 C758 1.327 . S
C756 H781 0.950 . S
C757 C756 1.349 . S
C757 C773 1.349 . S
C758 C756 1.327 . S
C758 C777 1.429 . S
C758 H782 0.950 . S
C759 C776 1.574 . S
C759 C778 1.368 . S
C759 H783 0.949 . S
H760 C764 0.949 . S
C761 C762 1.349 . S
C761 C763 1.327 . S
C761 H784 0.950 . S
C762 C761 1.349 . S
C762 C774 1.349 . S
C763 C761 1.327 . S
C763 C779 1.429 . S
C763 H785 0.950 . S
C764 H760 0.949 . S
C764 C772 1.574 . S
C764 C780 1.368 . S
H765 C773 0.950 . S
H766 C771 0.950 . S
H767 C772 0.949 . S
H768 C774 0.950 . S
H769 C775 0.950 . S
H770 C776 0.949 . S
C771 H766 0.950 . S
C771 C773 1.327 . S
C771 C777 1.429 . S
C772 C764 1.574 . S
C772 H767 0.949 . S
C772 C778 1.368 . S
C773 C757 1.349 . S
C773 H765 0.950 . S
C773 C771 1.327 . S
C774 C762 1.349 . S
C774 H768 0.950 . S
C774 C775 1.327 . S
C775 H769 0.950 . S
C775 C774 1.327 . S
C775 C779 1.429 . S
C776 C759 1.574 . S
C776 H770 0.949 . S
C776 C780 1.368 . S
C777 C758 1.429 . S
C777 C771 1.429 . S
C777 C778 1.523 . S
C778 C759 1.368 . S
C778 C772 1.368 . S
C778 C777 1.523 . S
C779 C763 1.429 . S
C779 C775 1.429 . S
C779 C780 1.523 . S
C780 C764 1.368 . S
C780 C776 1.368 . S
C780 C779 1.523 . S
H781 C756 0.950 . S
H782 C758 0.950 . S
H783 C759 0.949 . S
H784 C761 0.950 . S
H785 C763 0.950 . S
C786 C787 1.349 . S
C786 C788 1.327 . S
C786 H811 0.950 . S
C787 C786 1.349 . S
C787 C803 1.349 . S
C788 C786 1.327 . S
C788 C807 1.429 . S
C788 H812 0.950 . S
C789 C806 1.574 . S
C789 C808 1.368 . S
C789 H813 0.949 . S
H790 C794 0.949 . S
C791 C792 1.349 . S
C791 C793 1.327 . S
C791 H814 0.950 . S
C792 C791 1.349 . S
C792 C804 1.349 . S
C793 C791 1.327 . S
C793 C809 1.429 . S
C793 H815 0.950 . S
C794 H790 0.949 . S
C794 C802 1.574 . S
C794 C810 1.368 . S
H795 C803 0.950 . S
H796 C801 0.950 . S
H797 C802 0.949 . S
H798 C804 0.950 . S
H799 C805 0.950 . S
H800 C806 0.949 . S
C801 H796 0.950 . S
C801 C803 1.327 . S
C801 C807 1.429 . S
C802 C794 1.574 . S
C802 H797 0.949 . S
C802 C808 1.368 . S
C803 C787 1.349 . S
C803 H795 0.950 . S
C803 C801 1.327 . S
C804 C792 1.349 . S
C804 H798 0.950 . S
C804 C805 1.327 . S
C805 H799 0.950 . S
C805 C804 1.327 . S
C805 C809 1.429 . S
C806 C789 1.574 . S
C806 H800 0.949 . S
C806 C810 1.368 . S
C807 C788 1.429 . S
C807 C801 1.429 . S
C807 C808 1.523 . S
C808 C789 1.368 . S
C808 C802 1.368 . S
C808 C807 1.523 . S
C809 C793 1.429 . S
C809 C805 1.429 . S
C809 C810 1.523 . S
C810 C794 1.368 . S
C810 C806 1.368 . S
C810 C809 1.523 . S
H811 C786 0.950 . S
H812 C788 0.950 . S
H813 C789 0.949 . S
H814 C791 0.950 . S
H815 C793 0.950 . S
C816 C817 1.349 . S
C816 C818 1.327 . S
C816 H841 0.950 . S
C817 C816 1.349 . S
C817 C833 1.349 . S
C818 C816 1.327 . S
C818 C837 1.429 . S
C818 H842 0.950 . S
C819 C836 1.574 . S
C819 C838 1.368 . S
C819 H843 0.949 . S
H820 C824 0.949 . S
C821 C822 1.349 . S
C821 C823 1.327 . S
C821 H844 0.950 . S
C822 C821 1.349 . S
C822 C834 1.349 . S
C823 C821 1.327 . S
C823 C839 1.429 . S
C823 H845 0.950 . S
C824 H820 0.949 . S
C824 C832 1.574 . S
C824 C840 1.368 . S
H825 C833 0.950 . S
H826 C831 0.950 . S
H827 C832 0.949 . S
H828 C834 0.950 . S
H829 C835 0.950 . S
H830 C836 0.949 . S
C831 H826 0.950 . S
C831 C833 1.327 . S
C831 C837 1.429 . S
C832 C824 1.574 . S
C832 H827 0.949 . S
C832 C838 1.368 . S
C833 C817 1.349 . S
C833 H825 0.950 . S
C833 C831 1.327 . S
C834 C822 1.349 . S
C834 H828 0.950 . S
C834 C835 1.327 . S
C835 H829 0.950 . S
C835 C834 1.327 . S
C835 C839 1.429 . S
C836 C819 1.574 . S
C836 H830 0.949 . S
C836 C840 1.368 . S
C837 C818 1.429 . S
C837 C831 1.429 . S
C837 C838 1.523 . S
C838 C819 1.368 . S
C838 C832 1.368 . S
C838 C837 1.523 . S
C839 C823 1.429 . S
C839 C835 1.429 . S
C839 C840 1.523 . S
C840 C824 1.368 . S
C840 C836 1.368 . S
C840 C839 1.523 . S
H841 C816 0.950 . S
H842 C818 0.950 . S
H843 C819 0.949 . S
H844 C821 0.950 . S
H845 C823 0.950 . S
C846 C847 1.349 . S
C846 C848 1.327 . S
C846 H871 0.950 . S
C847 C846 1.349 . S
C847 C863 1.349 . S
C848 C846 1.327 . S
C848 C867 1.429 . S
C848 H872 0.950 . S
C849 C866 1.574 . S
C849 C868 1.368 . S
C849 H873 0.949 . S
H850 C854 0.949 . S
C851 C852 1.349 . S
C851 C853 1.327 . S
C851 H874 0.950 . S
C852 C851 1.349 . S
C852 C864 1.349 . S
C853 C851 1.327 . S
C853 C869 1.429 . S
C853 H875 0.950 . S
C854 H850 0.949 . S
C854 C862 1.574 . S
C854 C870 1.368 . S
H855 C863 0.950 . S
H856 C861 0.950 . S
H857 C862 0.949 . S
H858 C864 0.950 . S
H859 C865 0.950 . S
H860 C866 0.949 . S
C861 H856 0.950 . S
C861 C863 1.327 . S
C861 C867 1.429 . S
C862 C854 1.574 . S
C862 H857 0.949 . S
C862 C868 1.368 . S
C863 C847 1.349 . S
C863 H855 0.950 . S
C863 C861 1.327 . S
C864 C852 1.349 . S
C864 H858 0.950 . S
C864 C865 1.327 . S
C865 H859 0.950 . S
C865 C864 1.327 . S
C865 C869 1.429 . S
C866 C849 1.574 . S
C866 H860 0.949 . S
C866 C870 1.368 . S
C867 C848 1.429 . S
C867 C861 1.429 . S
C867 C868 1.523 . S
C868 C849 1.368 . S
C868 C862 1.368 . S
C868 C867 1.523 . S
C869 C853 1.429 . S
C869 C865 1.429 . S
C869 C870 1.523 . S
C870 C854 1.368 . S
C870 C866 1.368 . S
C870 C869 1.523 . S
H871 C846 0.950 . S
H872 C848 0.950 . S
H873 C849 0.949 . S
H874 C851 0.950 . S
H875 C853 0.950 . S
C876 C877 1.349 . S
C876 C878 1.327 . S
C876 H901 0.950 . S
C877 C876 1.349 . S
C877 C893 1.349 . S
C878 C876 1.327 . S
C878 C897 1.429 . S
C878 H902 0.950 . S
C879 C896 1.574 . S
C879 C898 1.368 . S
C879 H903 0.949 . S
H880 C884 0.949 . S
C881 C882 1.349 . S
C881 C883 1.327 . S
C881 H904 0.950 . S
C882 C881 1.349 . S
C882 C894 1.349 . S
C883 C881 1.327 . S
C883 C899 1.429 . S
C883 H905 0.950 . S
C884 H880 0.949 . S
C884 C892 1.574 . S
C884 C900 1.368 . S
H885 C893 0.950 . S
H886 C891 0.950 . S
H887 C892 0.949 . S
H888 C894 0.950 . S
H889 C895 0.950 . S
H890 C896 0.949 . S
C891 H886 0.950 . S
C891 C893 1.327 . S
C891 C897 1.429 . S
C892 C884 1.574 . S
C892 H887 0.949 . S
C892 C898 1.368 . S
C893 C877 1.349 . S
C893 H885 0.950 . S
C893 C891 1.327 . S
C894 C882 1.349 . S
C894 H888 0.950 . S
C894 C895 1.327 . S
C895 H889 0.950 . S
C895 C894 1.327 . S
C895 C899 1.429 . S
C896 C879 1.574 . S
C896 H890 0.949 . S
C896 C900 1.368 . S
C897 C878 1.429 . S
C897 C891 1.429 . S
C897 C898 1.523 . S
C898 C879 1.368 . S
C898 C892 1.368 . S
C898 C897 1.523 . S
C899 C883 1.429 . S
C899 C895 1.429 . S
C899 C900 1.523 . S
C900 C884 1.368 . S
C900 C896 1.368 . S
C900 C899 1.523 . S
H901 C876 0.950 . S
H902 C878 0.950 . S
H903 C879 0.949 . S
H904 C881 0.950 . S
H905 C883 0.950 . S
C906 C907 1.349 . S
C906 C908 1.327 . S
C906 H931 0.950 . S
C907 C906 1.349 . S
C907 C923 1.349 . S
C908 C906 1.327 . S
C908 C927 1.429 . S
C908 H932 0.950 . S
C909 C926 1.574 . S
C909 C928 1.368 . S
C909 H933 0.949 . S
H910 C914 0.949 . S
C911 C912 1.349 . S
C911 C913 1.327 . S
C911 H934 0.950 . S
C912 C911 1.349 . S
C912 C924 1.349 . S
C913 C911 1.327 . S
C913 C929 1.429 . S
C913 H935 0.950 . S
C914 H910 0.949 . S
C914 C922 1.574 . S
C914 C930 1.368 . S
H915 C923 0.950 . S
H916 C921 0.950 . S
H917 C922 0.949 . S
H918 C924 0.950 . S
H919 C925 0.950 . S
H920 C926 0.949 . S
C921 H916 0.950 . S
C921 C923 1.327 . S
C921 C927 1.429 . S
C922 C914 1.574 . S
C922 H917 0.949 . S
C922 C928 1.368 . S
C923 C907 1.349 . S
C923 H915 0.950 . S
C923 C921 1.327 . S
C924 C912 1.349 . S
C924 H918 0.950 . S
C924 C925 1.327 . S
C925 H919 0.950 . S
C925 C924 1.327 . S
C925 C929 1.429 . S
C926 C909 1.574 . S
C926 H920 0.949 . S
C926 C930 1.368 . S
C927 C908 1.429 . S
C927 C921 1.429 . S
C927 C928 1.523 . S
C928 C909 1.368 . S
C928 C922 1.368 . S
C928 C927 1.523 . S
C929 C913 1.429 . S
C929 C925 1.429 . S
C929 C930 1.523 . S
C930 C914 1.368 . S
C930 C926 1.368 . S
C930 C929 1.523 . S
H931 C906 0.950 . S
H932 C908 0.950 . S
H933 C909 0.949 . S
H934 C911 0.950 . S
H935 C913 0.950 . S
C936 C937 1.349 . S
C936 C938 1.327 . S
C936 H961 0.950 . S
C937 C936 1.349 . S
C937 C953 1.349 . S
C938 C936 1.327 . S
C938 C957 1.429 . S
C938 H962 0.950 . S
C939 C956 1.574 1_455 S
C939 C958 1.368 . S
C939 H963 0.949 . S
H940 C944 0.949 . S
C941 C942 1.349 . S
C941 C943 1.327 . S
C941 H964 0.950 . S
C942 C941 1.349 . S
C942 C954 1.349 . S
C943 C941 1.327 . S
C943 C959 1.429 . S
C943 H965 0.950 . S
C944 H940 0.949 . S
C944 C952 1.574 1_655 S
C944 C960 1.368 . S
H945 C953 0.950 . S
H946 C951 0.950 . S
H947 C952 0.949 . S
H948 C954 0.950 . S
H949 C955 0.950 . S
H950 C956 0.949 . S
C951 H946 0.950 . S
C951 C953 1.327 . S
C951 C957 1.429 . S
C952 C944 1.574 1_455 S
C952 H947 0.949 . S
C952 C958 1.368 . S
C953 C937 1.349 . S
C953 H945 0.950 . S
C953 C951 1.327 . S
C954 C942 1.349 . S
C954 H948 0.950 . S
C954 C955 1.327 . S
C955 H949 0.950 . S
C955 C954 1.327 . S
C955 C959 1.429 . S
C956 C939 1.574 1_655 S
C956 H950 0.949 . S
C956 C960 1.368 . S
C957 C938 1.429 . S
C957 C951 1.429 . S
C957 C958 1.523 . S
C958 C939 1.368 . S
C958 C952 1.368 . S
C958 C957 1.523 . S
C959 C943 1.429 . S
C959 C955 1.429 . S
C959 C960 1.523 . S
C960 C944 1.368 . S
C960 C956 1.368 . S
C960 C959 1.523 . S
H961 C936 0.950 . S
H962 C938 0.950 . S
H963 C939 0.949 . S
H964 C941 0.950 . S
H965 C943 0.950 . S
C966 C967 1.349 . S
C966 C968 1.327 . S
C966 H991 0.950 . S
C967 C966 1.349 . S
C967 C983 1.349 . S
C968 C966 1.327 . S
C968 C987 1.429 . S
C968 H992 0.950 . S
C969 C986 1.574 . S
C969 C988 1.368 . S
C969 H993 0.949 . S
H970 C974 0.949 . S
C971 C972 1.349 . S
C971 C973 1.327 . S
C971 H994 0.950 . S
C972 C971 1.349 . S
C972 C984 1.349 . S
C973 C971 1.327 . S
C973 C989 1.429 . S
C973 H995 0.950 . S
C974 H970 0.949 . S
C974 C982 1.574 . S
C974 C990 1.368 . S
H975 C983 0.950 . S
H976 C981 0.950 . S
H977 C982 0.949 . S
H978 C984 0.950 . S
H979 C985 0.950 . S
H980 C986 0.949 . S
C981 H976 0.950 . S
C981 C983 1.327 . S
C981 C987 1.429 . S
C982 C974 1.574 . S
C982 H977 0.949 . S
C982 C988 1.368 . S
C983 C967 1.349 . S
C983 H975 0.950 . S
C983 C981 1.327 . S
C984 C972 1.349 . S
C984 H978 0.950 . S
C984 C985 1.327 . S
C985 H979 0.950 . S
C985 C984 1.327 . S
C985 C989 1.429 . S
C986 C969 1.574 . S
C986 H980 0.949 . S
C986 C990 1.368 . S
C987 C968 1.429 . S
C987 C981 1.429 . S
C987 C988 1.523 . S
C988 C969 1.368 . S
C988 C982 1.368 . S
C988 C987 1.523 . S
C989 C973 1.429 . S
C989 C985 1.429 . S
C989 C990 1.523 . S
C990 C974 1.368 . S
C990 C986 1.368 . S
C990 C989 1.523 . S
H991 C966 0.950 . S
H992 C968 0.950 . S
H993 C969 0.949 . S
H994 C971 0.950 . S
H995 C973 0.950 . S
C996 C997 1.349 . S
C996 C998 1.327 . S
C996 H1021 0.950 . S
C997 C996 1.349 . S
C997 C1013 1.349 . S
C998 C996 1.327 . S
C998 C1017 1.429 . S
C998 H1022 0.950 . S
C999 C1016 1.574 . S
C999 C1018 1.368 . S
C999 H1023 0.949 . S
H1000 C1004 0.949 . S
C1001 C1002 1.349 . S
C1001 C1003 1.327 . S
C1001 H1024 0.950 . S
C1002 C1001 1.349 . S
C1002 C1014 1.349 . S
C1003 C1001 1.327 . S
C1003 C1019 1.429 . S
C1003 H1025 0.950 . S
C1004 H1000 0.949 . S
C1004 C1012 1.574 . S
C1004 C1020 1.368 . S
H1005 C1013 0.950 . S
H1006 C1011 0.950 . S
H1007 C1012 0.949 . S
H1008 C1014 0.950 . S
H1009 C1015 0.950 . S
H1010 C1016 0.949 . S
C1011 H1006 0.950 . S
C1011 C1013 1.327 . S
C1011 C1017 1.429 . S
C1012 C1004 1.574 . S
C1012 H1007 0.949 . S
C1012 C1018 1.368 . S
C1013 C997 1.349 . S
C1013 H1005 0.950 . S
C1013 C1011 1.327 . S
C1014 C1002 1.349 . S
C1014 H1008 0.950 . S
C1014 C1015 1.327 . S
C1015 H1009 0.950 . S
C1015 C1014 1.327 . S
C1015 C1019 1.429 . S
C1016 C999 1.574 . S
C1016 H1010 0.949 . S
C1016 C1020 1.368 . S
C1017 C998 1.429 . S
C1017 C1011 1.429 . S
C1017 C1018 1.523 . S
C1018 C999 1.368 . S
C1018 C1012 1.368 . S
C1018 C1017 1.523 . S
C1019 C1003 1.429 . S
C1019 C1015 1.429 . S
C1019 C1020 1.523 . S
C1020 C1004 1.368 . S
C1020 C1016 1.368 . S
C1020 C1019 1.523 . S
H1021 C996 0.950 . S
H1022 C998 0.950 . S
H1023 C999 0.949 . S
H1024 C1001 0.950 . S
H1025 C1003 0.950 . S
C1026 C1027 1.349 . S
C1026 C1028 1.327 . S
C1026 H1051 0.950 . S
C1027 C1026 1.349 . S
C1027 C1043 1.349 . S
C1028 C1026 1.327 . S
C1028 C1047 1.429 . S
C1028 H1052 0.950 . S
C1029 C1046 1.574 1_455 S
C1029 C1048 1.368 . S
C1029 H1053 0.949 . S
H1030 C1034 0.949 . S
C1031 C1032 1.349 . S
C1031 C1033 1.327 . S
C1031 H1054 0.950 . S
C1032 C1031 1.349 . S
C1032 C1044 1.349 . S
C1033 C1031 1.327 . S
C1033 C1049 1.429 . S
C1033 H1055 0.950 . S
C1034 H1030 0.949 . S
C1034 C1042 1.574 1_655 S
C1034 C1050 1.368 . S
H1035 C1043 0.950 . S
H1036 C1041 0.950 . S
H1037 C1042 0.949 . S
H1038 C1044 0.950 . S
H1039 C1045 0.950 . S
H1040 C1046 0.949 . S
C1041 H1036 0.950 . S
C1041 C1043 1.327 . S
C1041 C1047 1.429 . S
C1042 C1034 1.574 1_455 S
C1042 H1037 0.949 . S
C1042 C1048 1.368 . S
C1043 C1027 1.349 . S
C1043 H1035 0.950 . S
C1043 C1041 1.327 . S
C1044 C1032 1.349 . S
C1044 H1038 0.950 . S
C1044 C1045 1.327 . S
C1045 H1039 0.950 . S
C1045 C1044 1.327 . S
C1045 C1049 1.429 . S
C1046 C1029 1.574 1_655 S
C1046 H1040 0.949 . S
C1046 C1050 1.368 . S
C1047 C1028 1.429 . S
C1047 C1041 1.429 . S
C1047 C1048 1.523 . S
C1048 C1029 1.368 . S
C1048 C1042 1.368 . S
C1048 C1047 1.523 . S
C1049 C1033 1.429 . S
C1049 C1045 1.429 . S
C1049 C1050 1.523 . S
C1050 C1034 1.368 . S
C1050 C1046 1.368 . S
C1050 C1049 1.523 . S
H1051 C1026 0.950 . S
H1052 C1028 0.950 . S
H1053 C1029 0.949 . S
H1054 C1031 0.950 . S
H1055 C1033 0.950 . S
C1056 C1057 1.349 . S
C1056 C1058 1.327 . S
C1056 H1081 0.950 . S
C1057 C1056 1.349 . S
C1057 C1073 1.349 . S
C1058 C1056 1.327 . S
C1058 C1077 1.429 . S
C1058 H1082 0.950 1_554 S
C1059 C1076 1.574 . S
C1059 C1078 1.368 . S
C1059 H1083 0.949 . S
H1060 C1064 0.949 . S
C1061 C1062 1.349 . S
C1061 C1063 1.327 . S
C1061 H1084 0.950 . S
C1062 C1061 1.349 . S
C1062 C1074 1.349 . S
C1063 C1061 1.327 . S
C1063 C1079 1.429 . S
C1063 H1085 0.950 . S
C1064 H1060 0.949 . S
C1064 C1072 1.574 . S
C1064 C1080 1.368 . S
H1065 C1073 0.950 . S
H1066 C1071 0.950 . S
H1067 C1072 0.949 . S
H1068 C1074 0.950 . S
H1069 C1075 0.950 . S
H1070 C1076 0.949 . S
C1071 H1066 0.950 . S
C1071 C1073 1.327 . S
C1071 C1077 1.429 . S
C1072 C1064 1.574 . S
C1072 H1067 0.949 . S
C1072 C1078 1.368 1_556 S
C1073 C1057 1.349 . S
C1073 H1065 0.950 . S
C1073 C1071 1.327 . S
C1074 C1062 1.349 . S
C1074 H1068 0.950 . S
C1074 C1075 1.327 . S
C1075 H1069 0.950 . S
C1075 C1074 1.327 . S
C1075 C1079 1.429 . S
C1076 C1059 1.574 . S
C1076 H1070 0.949 . S
C1076 C1080 1.368 1_554 S
C1077 C1058 1.429 . S
C1077 C1071 1.429 . S
C1077 C1078 1.523 . S
C1078 C1059 1.368 . S
C1078 C1072 1.368 1_554 S
C1078 C1077 1.523 . S
C1079 C1063 1.429 . S
C1079 C1075 1.429 . S
C1079 C1080 1.523 . S
C1080 C1064 1.368 . S
C1080 C1076 1.368 1_556 S
C1080 C1079 1.523 . S
H1081 C1056 0.950 . S
H1082 C1058 0.950 1_556 S
H1083 C1059 0.949 . S
H1084 C1061 0.950 . S
H1085 C1063 0.950 . S
C1086 C1087 1.349 . S
C1086 C1088 1.327 . S
C1086 H1111 0.950 . S
C1087 C1086 1.349 . S
C1087 C1103 1.349 . S
C1088 C1086 1.327 . S
C1088 C1107 1.429 . S
C1088 H1112 0.950 . S
C1089 C1106 1.574 . S
C1089 C1108 1.368 . S
C1089 H1113 0.949 . S
H1090 C1094 0.949 . S
C1091 C1092 1.349 . S
C1091 C1093 1.327 . S
C1091 H1114 0.950 . S
C1092 C1091 1.349 . S
C1092 C1104 1.349 . S
C1093 C1091 1.327 . S
C1093 C1109 1.429 . S
C1093 H1115 0.950 . S
C1094 H1090 0.949 . S
C1094 C1102 1.574 . S
C1094 C1110 1.368 . S
H1095 C1103 0.950 . S
H1096 C1101 0.950 . S
H1097 C1102 0.949 . S
H1098 C1104 0.950 . S
H1099 C1105 0.950 . S
H1100 C1106 0.949 . S
C1101 H1096 0.950 . S
C1101 C1103 1.327 . S
C1101 C1107 1.429 . S
C1102 C1094 1.574 . S
C1102 H1097 0.949 . S
C1102 C1108 1.368 . S
C1103 C1087 1.349 . S
C1103 H1095 0.950 . S
C1103 C1101 1.327 . S
C1104 C1092 1.349 . S
C1104 H1098 0.950 . S
C1104 C1105 1.327 . S
C1105 H1099 0.950 . S
C1105 C1104 1.327 . S
C1105 C1109 1.429 . S
C1106 C1089 1.574 . S
C1106 H1100 0.949 . S
C1106 C1110 1.368 . S
C1107 C1088 1.429 . S
C1107 C1101 1.429 . S
C1107 C1108 1.523 . S
C1108 C1089 1.368 . S
C1108 C1102 1.368 . S
C1108 C1107 1.523 . S
C1109 C1093 1.429 . S
C1109 C1105 1.429 . S
C1109 C1110 1.523 . S
C1110 C1094 1.368 . S
C1110 C1106 1.368 . S
C1110 C1109 1.523 . S
H1111 C1086 0.950 . S
H1112 C1088 0.950 . S
H1113 C1089 0.949 . S
H1114 C1091 0.950 . S
H1115 C1093 0.950 . S
C1116 C1117 1.349 . S
C1116 C1118 1.327 . S
C1116 H1141 0.950 . S
C1117 C1116 1.349 . S
C1117 C1133 1.349 . S
C1118 C1116 1.327 . S
C1118 C1137 1.429 . S
C1118 H1142 0.950 . S
C1119 C1136 1.574 . S
C1119 C1138 1.368 . S
C1119 H1143 0.949 . S
H1120 C1124 0.949 . S
C1121 C1122 1.349 . S
C1121 C1123 1.327 . S
C1121 H1144 0.950 . S
C1122 C1121 1.349 . S
C1122 C1134 1.349 . S
C1123 C1121 1.327 . S
C1123 C1139 1.429 . S
C1123 H1145 0.950 . S
C1124 H1120 0.949 . S
C1124 C1132 1.574 . S
C1124 C1140 1.368 . S
H1125 C1133 0.950 . S
H1126 C1131 0.950 . S
H1127 C1132 0.949 . S
H1128 C1134 0.950 . S
H1129 C1135 0.950 . S
H1130 C1136 0.949 . S
C1131 H1126 0.950 . S
C1131 C1133 1.327 . S
C1131 C1137 1.429 . S
C1132 C1124 1.574 . S
C1132 H1127 0.949 . S
C1132 C1138 1.368 . S
C1133 C1117 1.349 . S
C1133 H1125 0.950 . S
C1133 C1131 1.327 . S
C1134 C1122 1.349 . S
C1134 H1128 0.950 . S
C1134 C1135 1.327 . S
C1135 H1129 0.950 . S
C1135 C1134 1.327 . S
C1135 C1139 1.429 . S
C1136 C1119 1.574 . S
C1136 H1130 0.949 . S
C1136 C1140 1.368 . S
C1137 C1118 1.429 . S
C1137 C1131 1.429 . S
C1137 C1138 1.523 . S
C1138 C1119 1.368 . S
C1138 C1132 1.368 . S
C1138 C1137 1.523 . S
C1139 C1123 1.429 . S
C1139 C1135 1.429 . S
C1139 C1140 1.523 . S
C1140 C1124 1.368 . S
C1140 C1136 1.368 . S
C1140 C1139 1.523 . S
H1141 C1116 0.950 . S
H1142 C1118 0.950 . S
H1143 C1119 0.949 . S
H1144 C1121 0.950 . S
H1145 C1123 0.950 . S
C1146 C1147 1.349 . S
C1146 C1148 1.327 . S
C1146 H1171 0.950 . S
C1147 C1146 1.349 . S
C1147 C1163 1.349 . S
C1148 C1146 1.327 . S
C1148 C1167 1.429 . S
C1148 H1172 0.950 . S
C1149 C1166 1.574 . S
C1149 C1168 1.368 . S
C1149 H1173 0.949 . S
H1150 C1154 0.949 . S
C1151 C1152 1.349 . S
C1151 C1153 1.327 . S
C1151 H1174 0.950 . S
C1152 C1151 1.349 . S
C1152 C1164 1.349 . S
C1153 C1151 1.327 . S
C1153 C1169 1.429 . S
C1153 H1175 0.950 . S
C1154 H1150 0.949 . S
C1154 C1162 1.574 . S
C1154 C1170 1.368 . S
H1155 C1163 0.950 . S
H1156 C1161 0.950 . S
H1157 C1162 0.949 . S
H1158 C1164 0.950 . S
H1159 C1165 0.950 . S
H1160 C1166 0.949 . S
C1161 H1156 0.950 . S
C1161 C1163 1.327 . S
C1161 C1167 1.429 . S
C1162 C1154 1.574 . S
C1162 H1157 0.949 . S
C1162 C1168 1.368 . S
C1163 C1147 1.349 . S
C1163 H1155 0.950 . S
C1163 C1161 1.327 . S
C1164 C1152 1.349 . S
C1164 H1158 0.950 . S
C1164 C1165 1.327 . S
C1165 H1159 0.950 . S
C1165 C1164 1.327 . S
C1165 C1169 1.429 . S
C1166 C1149 1.574 . S
C1166 H1160 0.949 . S
C1166 C1170 1.368 . S
C1167 C1148 1.429 . S
C1167 C1161 1.429 . S
C1167 C1168 1.523 . S
C1168 C1149 1.368 . S
C1168 C1162 1.368 . S
C1168 C1167 1.523 . S
C1169 C1153 1.429 . S
C1169 C1165 1.429 . S
C1169 C1170 1.523 . S
C1170 C1154 1.368 . S
C1170 C1166 1.368 . S
C1170 C1169 1.523 . S
H1171 C1146 0.950 . S
H1172 C1148 0.950 . S
H1173 C1149 0.949 . S
H1174 C1151 0.950 . S
H1175 C1153 0.950 . S
C1176 C1177 1.349 . S
C1176 C1178 1.327 . S
C1176 H1201 0.950 . S
C1177 C1176 1.349 . S
C1177 C1193 1.349 . S
C1178 C1176 1.327 . S
C1178 C1197 1.429 . S
C1178 H1202 0.951 1_556 S
C1179 C1196 1.574 1_556 S
C1179 C1198 1.368 . S
C1179 H1203 0.949 . S
H1180 C1184 0.949 . S
C1181 C1182 1.349 . S
C1181 C1183 1.327 . S
C1181 H1204 0.950 . S
C1182 C1181 1.349 . S
C1182 C1194 1.349 . S
C1183 C1181 1.327 . S
C1183 C1199 1.429 . S
C1183 H1205 0.950 . S
C1184 H1180 0.949 . S
C1184 C1192 1.574 . S
C1184 C1200 1.368 . S
H1185 C1193 0.950 . S
H1186 C1191 0.950 . S
H1187 C1192 0.949 . S
H1188 C1194 0.950 . S
H1189 C1195 0.950 . S
H1190 C1196 0.950 1_556 S
C1191 H1186 0.950 . S
C1191 C1193 1.327 . S
C1191 C1197 1.429 . S
C1192 C1184 1.574 . S
C1192 H1187 0.949 . S
C1192 C1198 1.368 1_554 S
C1193 C1177 1.349 . S
C1193 H1185 0.950 . S
C1193 C1191 1.327 . S
C1194 C1182 1.349 . S
C1194 H1188 0.950 . S
C1194 C1195 1.327 . S
C1195 H1189 0.950 . S
C1195 C1194 1.327 . S
C1195 C1199 1.429 . S
C1196 C1179 1.574 1_554 S
C1196 H1190 0.950 1_554 S
C1196 C1200 1.368 . S
C1197 C1178 1.429 . S
C1197 C1191 1.429 . S
C1197 C1198 1.523 . S
C1198 C1179 1.368 . S
C1198 C1192 1.368 1_556 S
C1198 C1197 1.523 . S
C1199 C1183 1.429 . S
C1199 C1195 1.429 . S
C1199 C1200 1.523 . S
C1200 C1184 1.368 . S
C1200 C1196 1.368 . S
C1200 C1199 1.523 . S
H1201 C1176 0.950 . S
H1202 C1178 0.951 1_554 S
H1203 C1179 0.949 . S
H1204 C1181 0.950 . S
H1205 C1183 0.950 . S
C1206 C1207 1.349 . S
C1206 C1208 1.327 . S
C1206 H1231 0.950 . S
C1207 C1206 1.349 . S
C1207 C1223 1.349 . S
C1208 C1206 1.327 . S
C1208 C1227 1.429 . S
C1208 H1232 0.950 . S
C1209 C1226 1.574 . S
C1209 C1228 1.368 . S
C1209 H1233 0.949 . S
H1210 C1214 0.949 . S
C1211 C1212 1.349 . S
C1211 C1213 1.327 . S
C1211 H1234 0.950 . S
C1212 C1211 1.349 . S
C1212 C1224 1.349 . S
C1213 C1211 1.327 . S
C1213 C1229 1.429 . S
C1213 H1235 0.950 . S
C1214 H1210 0.949 . S
C1214 C1222 1.574 . S
C1214 C1230 1.368 . S
H1215 C1223 0.950 . S
H1216 C1221 0.950 . S
H1217 C1222 0.949 . S
H1218 C1224 0.950 . S
H1219 C1225 0.950 . S
H1220 C1226 0.949 . S
C1221 H1216 0.950 . S
C1221 C1223 1.327 . S
C1221 C1227 1.429 . S
C1222 C1214 1.574 . S
C1222 H1217 0.949 . S
C1222 C1228 1.368 . S
C1223 C1207 1.349 . S
C1223 H1215 0.950 . S
C1223 C1221 1.327 . S
C1224 C1212 1.349 . S
C1224 H1218 0.950 . S
C1224 C1225 1.327 . S
C1225 H1219 0.950 . S
C1225 C1224 1.327 . S
C1225 C1229 1.429 . S
C1226 C1209 1.574 . S
C1226 H1220 0.949 . S
C1226 C1230 1.368 . S
C1227 C1208 1.429 . S
C1227 C1221 1.429 . S
C1227 C1228 1.523 . S
C1228 C1209 1.368 . S
C1228 C1222 1.368 . S
C1228 C1227 1.523 . S
C1229 C1213 1.429 . S
C1229 C1225 1.429 . S
C1229 C1230 1.523 . S
C1230 C1214 1.368 . S
C1230 C1226 1.368 . S
C1230 C1229 1.523 . S
H1231 C1206 0.950 . S
H1232 C1208 0.950 . S
H1233 C1209 0.949 . S
H1234 C1211 0.950 . S
H1235 C1213 0.950 . S
C1236 C1237 1.349 . S
C1236 C1238 1.327 . S
C1236 H1261 0.950 . S
C1237 C1236 1.349 . S
C1237 C1253 1.349 . S
C1238 C1236 1.327 . S
C1238 C1257 1.429 . S
C1238 H1262 0.950 . S
C1239 C1256 1.574 . S
C1239 C1258 1.368 . S
C1239 H1263 0.949 . S
H1240 C1244 0.949 . S
C1241 C1242 1.349 . S
C1241 C1243 1.327 . S
C1241 H1264 0.950 . S
C1242 C1241 1.349 . S
C1242 C1254 1.349 . S
C1243 C1241 1.327 . S
C1243 C1259 1.429 . S
C1243 H1265 0.950 . S
C1244 H1240 0.949 . S
C1244 C1252 1.574 . S
C1244 C1260 1.368 . S
H1245 C1253 0.950 . S
H1246 C1251 0.950 . S
H1247 C1252 0.949 . S
H1248 C1254 0.950 . S
H1249 C1255 0.950 . S
H1250 C1256 0.949 . S
C1251 H1246 0.950 . S
C1251 C1253 1.327 . S
C1251 C1257 1.429 . S
C1252 C1244 1.574 . S
C1252 H1247 0.949 . S
C1252 C1258 1.368 . S
C1253 C1237 1.349 . S
C1253 H1245 0.950 . S
C1253 C1251 1.327 . S
C1254 C1242 1.349 . S
C1254 H1248 0.950 . S
C1254 C1255 1.327 . S
C1255 H1249 0.950 . S
C1255 C1254 1.327 . S
C1255 C1259 1.429 . S
C1256 C1239 1.574 . S
C1256 H1250 0.949 . S
C1256 C1260 1.368 . S
C1257 C1238 1.429 . S
C1257 C1251 1.429 . S
C1257 C1258 1.523 . S
C1258 C1239 1.368 . S
C1258 C1252 1.368 . S
C1258 C1257 1.523 . S
C1259 C1243 1.429 . S
C1259 C1255 1.429 . S
C1259 C1260 1.523 . S
C1260 C1244 1.368 . S
C1260 C1256 1.368 . S
C1260 C1259 1.523 . S
H1261 C1236 0.950 . S
H1262 C1238 0.950 . S
H1263 C1239 0.949 . S
H1264 C1241 0.950 . S
H1265 C1243 0.950 . S
C1266 C1267 1.349 . S
C1266 C1268 1.327 . S
C1266 H1291 0.950 . S
C1267 C1266 1.349 . S
C1267 C1283 1.349 . S
C1268 C1266 1.327 . S
C1268 C1287 1.429 . S
C1268 H1292 0.950 . S
C1269 C1286 1.574 . S
C1269 C1288 1.368 . S
C1269 H1293 0.949 . S
H1270 C1274 0.949 . S
C1271 C1272 1.349 . S
C1271 C1273 1.327 . S
C1271 H1294 0.950 . S
C1272 C1271 1.349 . S
C1272 C1284 1.349 . S
C1273 C1271 1.327 . S
C1273 C1289 1.429 . S
C1273 H1295 0.950 . S
C1274 H1270 0.949 . S
C1274 C1282 1.574 . S
C1274 C1290 1.368 . S
H1275 C1283 0.950 . S
H1276 C1281 0.950 . S
H1277 C1282 0.949 . S
H1278 C1284 0.950 . S
H1279 C1285 0.950 . S
H1280 C1286 0.949 . S
C1281 H1276 0.950 . S
C1281 C1283 1.327 . S
C1281 C1287 1.429 . S
C1282 C1274 1.574 . S
C1282 H1277 0.949 . S
C1282 C1288 1.368 . S
C1283 C1267 1.349 . S
C1283 H1275 0.950 . S
C1283 C1281 1.327 . S
C1284 C1272 1.349 . S
C1284 H1278 0.950 . S
C1284 C1285 1.327 . S
C1285 H1279 0.950 . S
C1285 C1284 1.327 . S
C1285 C1289 1.429 . S
C1286 C1269 1.574 . S
C1286 H1280 0.949 . S
C1286 C1290 1.368 . S
C1287 C1268 1.429 . S
C1287 C1281 1.429 . S
C1287 C1288 1.523 . S
C1288 C1269 1.368 . S
C1288 C1282 1.368 . S
C1288 C1287 1.523 . S
C1289 C1273 1.429 . S
C1289 C1285 1.429 . S
C1289 C1290 1.523 . S
C1290 C1274 1.368 . S
C1290 C1286 1.368 . S
C1290 C1289 1.523 . S
H1291 C1266 0.950 . S
H1292 C1268 0.950 . S
H1293 C1269 0.949 . S
H1294 C1271 0.950 . S
H1295 C1273 0.950 . S
C1296 C1297 1.349 . S
C1296 C1298 1.327 . S
C1296 H1321 0.950 . S
C1297 C1296 1.349 . S
C1297 C1313 1.349 . S
C1298 C1296 1.327 . S
C1298 C1317 1.429 . S
C1298 H1322 0.950 . S
C1299 C1316 1.619 . S
C1299 C1318 1.328 1_565 S
C1299 H1323 0.947 1_565 S
H1300 C1304 0.949 . S
C1301 C1302 1.349 . S
C1301 C1303 1.327 . S
C1301 H1324 0.950 . S
C1302 C1301 1.349 . S
C1302 C1314 1.349 . S
C1303 C1301 1.327 . S
C1303 C1319 1.429 . S
C1303 H1325 0.950 . S
C1304 H1300 0.949 . S
C1304 C1312 1.574 1_565 S
C1304 C1320 1.368 . S
H1305 C1313 0.950 . S
H1306 C1311 0.950 . S
H1307 C1312 0.949 . S
H1308 C1314 0.950 . S
H1309 C1315 0.950 . S
H1310 C1316 0.949 . S
C1311 H1306 0.950 . S
C1311 C1313 1.327 . S
C1311 C1317 1.429 . S
C1312 C1304 1.574 1_545 S
C1312 H1307 0.949 . S
C1312 C1318 1.368 . S
C1313 C1297 1.349 . S
C1313 H1305 0.950 . S
C1313 C1311 1.327 . S
C1314 C1302 1.349 . S
C1314 H1308 0.950 . S
C1314 C1315 1.327 . S
C1315 H1309 0.950 . S
C1315 C1314 1.327 . S
C1315 C1319 1.429 . S
C1316 C1299 1.619 . S
C1316 H1310 0.949 . S
C1316 C1320 1.368 . S
C1317 C1298 1.429 . S
C1317 C1311 1.429 . S
C1317 C1318 1.523 . S
C1318 C1299 1.328 1_545 S
C1318 C1312 1.368 . S
C1318 C1317 1.523 . S
C1319 C1303 1.429 . S
C1319 C1315 1.429 . S
C1319 C1320 1.523 . S
C1320 C1304 1.368 . S
C1320 C1316 1.368 . S
C1320 C1319 1.523 . S
H1321 C1296 0.950 . S
H1322 C1298 0.950 . S
H1323 C1299 0.947 1_545 S
H1324 C1301 0.950 . S
H1325 C1303 0.950 . S
C1326 C1327 1.349 . S
C1326 C1328 1.327 . S
C1326 H1351 0.950 . S
C1327 C1326 1.349 . S
C1327 C1343 1.349 . S
C1328 C1326 1.327 . S
C1328 C1347 1.429 . S
C1328 H1352 0.950 . S
C1329 C1346 1.574 . S
C1329 C1348 1.368 . S
C1329 H1353 0.949 . S
H1330 C1334 0.949 . S
C1331 C1332 1.349 . S
C1331 C1333 1.327 . S
C1331 H1354 0.950 . S
C1332 C1331 1.349 . S
C1332 C1344 1.349 . S
C1333 C1331 1.327 . S
C1333 C1349 1.429 . S
C1333 H1355 0.950 . S
C1334 H1330 0.949 . S
C1334 C1342 1.574 . S
C1334 C1350 1.368 . S
H1335 C1343 0.950 . S
H1336 C1341 0.950 . S
H1337 C1342 0.949 . S
H1338 C1344 0.950 . S
H1339 C1345 0.950 . S
H1340 C1346 0.949 . S
C1341 H1336 0.950 . S
C1341 C1343 1.327 . S
C1341 C1347 1.429 . S
C1342 C1334 1.574 . S
C1342 H1337 0.949 . S
C1342 C1348 1.368 . S
C1343 C1327 1.349 . S
C1343 H1335 0.950 . S
C1343 C1341 1.327 . S
C1344 C1332 1.349 . S
C1344 H1338 0.950 . S
C1344 C1345 1.327 . S
C1345 H1339 0.950 . S
C1345 C1344 1.327 . S
C1345 C1349 1.429 . S
C1346 C1329 1.574 . S
C1346 H1340 0.949 . S
C1346 C1350 1.368 . S
C1347 C1328 1.429 . S
C1347 C1341 1.429 . S
C1347 C1348 1.523 . S
C1348 C1329 1.368 . S
C1348 C1342 1.368 . S
C1348 C1347 1.523 . S
C1349 C1333 1.429 . S
C1349 C1345 1.429 . S
C1349 C1350 1.523 . S
C1350 C1334 1.368 . S
C1350 C1346 1.368 . S
C1350 C1349 1.523 . S
H1351 C1326 0.950 . S
H1352 C1328 0.950 . S
H1353 C1329 0.949 . S
H1354 C1331 0.950 . S
H1355 C1333 0.950 . S
C1356 C1357 1.349 . S
C1356 C1358 1.327 . S
C1356 H1381 0.950 . S
C1357 C1356 1.349 . S
C1357 C1373 1.349 . S
C1358 C1356 1.327 . S
C1358 C1377 1.429 . S
C1358 H1382 0.950 . S
C1359 C1376 1.574 1_545 S
C1359 C1378 1.368 1_554 S
C1359 H1383 0.949 . S
H1360 C1364 0.949 . S
C1361 C1362 1.349 . S
C1361 C1363 1.327 . S
C1361 H1384 0.950 . S
C1362 C1361 1.349 . S
C1362 C1374 1.349 . S
C1363 C1361 1.327 . S
C1363 C1379 1.429 . S
C1363 H1385 0.950 . S
C1364 H1360 0.949 . S
C1364 C1372 1.574 . S
C1364 C1380 1.368 1_556 S
H1365 C1373 0.950 . S
H1366 C1371 0.950 . S
H1367 C1372 0.949 . S
H1368 C1374 0.950 . S
H1369 C1375 0.950 1_556 S
H1370 C1376 0.949 . S
C1371 H1366 0.950 . S
C1371 C1373 1.327 . S
C1371 C1377 1.429 . S
C1372 C1364 1.574 . S
C1372 H1367 0.949 . S
C1372 C1378 1.368 1_565 S
C1373 C1357 1.349 . S
C1373 H1365 0.950 . S
C1373 C1371 1.327 . S
C1374 C1362 1.349 . S
C1374 H1368 0.950 . S
C1374 C1375 1.327 . S
C1375 H1369 0.950 1_554 S
C1375 C1374 1.327 . S
C1375 C1379 1.429 . S
C1376 C1359 1.574 1_565 S
C1376 H1370 0.949 . S
C1376 C1380 1.368 . S
C1377 C1358 1.429 . S
C1377 C1371 1.429 . S
C1377 C1378 1.523 . S
C1378 C1359 1.368 1_556 S
C1378 C1372 1.368 1_545 S
C1378 C1377 1.523 . S
C1379 C1363 1.429 . S
C1379 C1375 1.429 . S
C1379 C1380 1.523 . S
C1380 C1364 1.368 1_554 S
C1380 C1376 1.368 . S
C1380 C1379 1.523 . S
H1381 C1356 0.950 . S
H1382 C1358 0.950 . S
H1383 C1359 0.949 . S
H1384 C1361 0.950 . S
H1385 C1363 0.950 . S
C1386 C1387 1.349 . S
C1386 C1388 1.327 . S
C1386 H1411 0.950 . S
C1387 C1386 1.349 . S
C1387 C1403 1.349 . S
C1388 C1386 1.327 . S
C1388 C1407 1.429 . S
C1388 H1412 0.950 . S
C1389 C1406 1.574 . S
C1389 C1408 1.368 . S
C1389 H1413 0.949 . S
H1390 C1394 0.949 . S
C1391 C1392 1.349 . S
C1391 C1393 1.327 . S
C1391 H1414 0.950 . S
C1392 C1391 1.349 . S
C1392 C1404 1.349 . S
C1393 C1391 1.327 . S
C1393 C1409 1.429 . S
C1393 H1415 0.950 . S
C1394 H1390 0.949 . S
C1394 C1402 1.574 . S
C1394 C1410 1.368 . S
H1395 C1403 0.950 . S
H1396 C1401 0.950 . S
H1397 C1402 0.949 . S
H1398 C1404 0.950 . S
H1399 C1405 0.950 . S
H1400 C1406 0.949 . S
C1401 H1396 0.950 . S
C1401 C1403 1.327 . S
C1401 C1407 1.429 . S
C1402 C1394 1.574 . S
C1402 H1397 0.949 . S
C1402 C1408 1.368 . S
C1403 C1387 1.349 . S
C1403 H1395 0.950 . S
C1403 C1401 1.327 . S
C1404 C1392 1.349 . S
C1404 H1398 0.950 . S
C1404 C1405 1.327 . S
C1405 H1399 0.950 . S
C1405 C1404 1.327 . S
C1405 C1409 1.429 . S
C1406 C1389 1.574 . S
C1406 H1400 0.949 . S
C1406 C1410 1.368 . S
C1407 C1388 1.429 . S
C1407 C1401 1.429 . S
C1407 C1408 1.523 . S
C1408 C1389 1.368 . S
C1408 C1402 1.368 . S
C1408 C1407 1.523 . S
C1409 C1393 1.429 . S
C1409 C1405 1.429 . S
C1409 C1410 1.523 . S
C1410 C1394 1.368 . S
C1410 C1406 1.368 . S
C1410 C1409 1.523 . S
H1411 C1386 0.950 . S
H1412 C1388 0.950 . S
H1413 C1389 0.949 . S
H1414 C1391 0.950 . S
H1415 C1393 0.950 . S
C1416 C1417 1.349 . S
C1416 C1418 1.327 . S
C1416 H1441 0.950 . S
C1417 C1416 1.349 . S
C1417 C1433 1.349 . S
C1418 C1416 1.327 . S
C1418 C1437 1.429 . S
C1418 H1442 0.950 . S
C1419 C1436 1.574 1_545 S
C1419 C1438 1.368 . S
C1419 H1443 0.949 . S
H1420 C1424 0.949 . S
C1421 C1422 1.349 . S
C1421 C1423 1.327 . S
C1421 H1444 0.950 . S
C1422 C1421 1.349 . S
C1422 C1434 1.349 . S
C1423 C1421 1.327 . S
C1423 C1439 1.429 . S
C1423 H1445 0.950 . S
C1424 H1420 0.949 . S
C1424 C1432 1.574 1_565 S
C1424 C1440 1.368 . S
H1425 C1433 0.950 . S
H1426 C1431 0.950 . S
H1427 C1432 0.949 . S
H1428 C1434 0.950 . S
H1429 C1435 0.950 . S
H1430 C1436 0.949 . S
C1431 H1426 0.950 . S
C1431 C1433 1.327 . S
C1431 C1437 1.429 . S
C1432 C1424 1.574 1_545 S
C1432 H1427 0.949 . S
C1432 C1438 1.368 . S
C1433 C1417 1.349 . S
C1433 H1425 0.950 . S
C1433 C1431 1.327 . S
C1434 C1422 1.349 . S
C1434 H1428 0.950 . S
C1434 C1435 1.327 . S
C1435 H1429 0.950 . S
C1435 C1434 1.327 . S
C1435 C1439 1.429 . S
C1436 C1419 1.574 1_565 S
C1436 H1430 0.949 . S
C1436 C1440 1.368 . S
C1437 C1418 1.429 . S
C1437 C1431 1.429 . S
C1437 C1438 1.523 . S
C1438 C1419 1.368 . S
C1438 C1432 1.368 . S
C1438 C1437 1.523 . S
C1439 C1423 1.429 . S
C1439 C1435 1.429 . S
C1439 C1440 1.523 . S
C1440 C1424 1.368 . S
C1440 C1436 1.368 . S
C1440 C1439 1.523 . S
H1441 C1416 0.950 . S
H1442 C1418 0.950 . S
H1443 C1419 0.949 . S
H1444 C1421 0.950 . S
H1445 C1423 0.950 . S
C1446 C1447 1.349 . S
C1446 C1448 1.327 . S
C1446 H1471 0.950 . S
C1447 C1446 1.349 . S
C1447 C1463 1.349 . S
C1448 C1446 1.327 . S
C1448 C1467 1.429 . S
C1448 H1472 0.950 . S
C1449 C1466 1.574 . S
C1449 C1468 1.368 . S
C1449 H1473 0.949 . S
H1450 C1454 0.949 . S
C1451 C1452 1.349 . S
C1451 C1453 1.327 . S
C1451 H1474 0.950 . S
C1452 C1451 1.349 . S
C1452 C1464 1.349 . S
C1453 C1451 1.327 . S
C1453 C1469 1.429 . S
C1453 H1475 0.950 . S
C1454 H1450 0.949 . S
C1454 C1462 1.574 . S
C1454 C1470 1.368 . S
H1455 C1463 0.950 . S
H1456 C1461 0.950 . S
H1457 C1462 0.949 . S
H1458 C1464 0.950 . S
H1459 C1465 0.950 . S
H1460 C1466 0.949 . S
C1461 H1456 0.950 . S
C1461 C1463 1.327 . S
C1461 C1467 1.429 . S
C1462 C1454 1.574 . S
C1462 H1457 0.949 . S
C1462 C1468 1.368 . S
C1463 C1447 1.349 . S
C1463 H1455 0.950 . S
C1463 C1461 1.327 . S
C1464 C1452 1.349 . S
C1464 H1458 0.950 . S
C1464 C1465 1.327 . S
C1465 H1459 0.950 . S
C1465 C1464 1.327 . S
C1465 C1469 1.429 . S
C1466 C1449 1.574 . S
C1466 H1460 0.949 . S
C1466 C1470 1.368 . S
C1467 C1448 1.429 . S
C1467 C1461 1.429 . S
C1467 C1468 1.523 . S
C1468 C1449 1.368 . S
C1468 C1462 1.368 . S
C1468 C1467 1.523 . S
C1469 C1453 1.429 . S
C1469 C1465 1.429 . S
C1469 C1470 1.523 . S
C1470 C1454 1.368 . S
C1470 C1466 1.368 . S
C1470 C1469 1.523 . S
H1471 C1446 0.950 . S
H1472 C1448 0.950 . S
H1473 C1449 0.949 . S
H1474 C1451 0.950 . S
H1475 C1453 0.950 . S
C1476 C1477 1.349 . S
C1476 C1478 1.327 . S
C1476 H1501 0.950 . S
C1477 C1476 1.349 . S
C1477 C1493 1.349 . S
C1478 C1476 1.327 . S
C1478 C1497 1.429 . S
C1478 H1502 0.950 . S
C1479 C1496 1.578 . S
C1479 C1498 1.365 1_545 S
C1479 H1503 0.948 1_545 S
H1480 C1484 0.949 . S
C1481 C1482 1.349 . S
C1481 C1483 1.327 . S
C1481 H1504 0.950 . S
C1482 C1481 1.349 . S
C1482 C1494 1.349 . S
C1483 C1481 1.327 . S
C1483 C1499 1.429 . S
C1483 H1505 0.950 . S
C1484 H1480 0.949 . S
C1484 C1492 1.574 1_545 S
C1484 C1500 1.368 . S
H1485 C1493 0.950 . S
H1486 C1491 0.950 . S
H1487 C1492 0.949 . S
H1488 C1494 0.950 . S
H1489 C1495 0.950 . S
H1490 C1496 0.949 . S
C1491 H1486 0.950 . S
C1491 C1493 1.327 . S
C1491 C1497 1.429 . S
C1492 C1484 1.574 1_565 S
C1492 H1487 0.949 . S
C1492 C1498 1.368 1_556 S
C1493 C1477 1.349 . S
C1493 H1485 0.950 . S
C1493 C1491 1.327 . S
C1494 C1482 1.349 . S
C1494 H1488 0.950 . S
C1494 C1495 1.327 . S
C1495 H1489 0.950 . S
C1495 C1494 1.327 . S
C1495 C1499 1.429 . S
C1496 C1479 1.578 . S
C1496 H1490 0.949 . S
C1496 C1500 1.368 1_554 S
C1497 C1478 1.429 . S
C1497 C1491 1.429 . S
C1497 C1498 1.523 . S
C1498 C1479 1.365 1_565 S
C1498 C1492 1.368 1_554 S
C1498 C1497 1.523 . S
C1499 C1483 1.429 . S
C1499 C1495 1.429 . S
C1499 C1500 1.523 . S
C1500 C1484 1.368 . S
C1500 C1496 1.368 1_556 S
C1500 C1499 1.523 . S
H1501 C1476 0.950 . S
H1502 C1478 0.950 . S
H1503 C1479 0.948 1_565 S
H1504 C1481 0.950 . S
H1505 C1483 0.950 . S
C1506 C1507 1.349 . S
C1506 C1508 1.327 . S
C1506 H1531 0.950 . S
C1507 C1506 1.349 . S
C1507 C1523 1.349 . S
C1508 C1506 1.327 . S
C1508 C1527 1.429 . S
C1508 H1532 0.950 . S
C1509 C1526 1.574 . S
C1509 C1528 1.368 . S
C1509 H1533 0.949 . S
H1510 C1514 0.949 . S
C1511 C1512 1.349 . S
C1511 C1513 1.327 . S
C1511 H1534 0.950 . S
C1512 C1511 1.349 . S
C1512 C1524 1.349 . S
C1513 C1511 1.327 . S
C1513 C1529 1.429 . S
C1513 H1535 0.950 . S
C1514 H1510 0.949 . S
C1514 C1522 1.574 . S
C1514 C1530 1.368 . S
H1515 C1523 0.950 . S
H1516 C1521 0.950 . S
H1517 C1522 0.949 . S
H1518 C1524 0.950 . S
H1519 C1525 0.950 . S
H1520 C1526 0.949 . S
C1521 H1516 0.950 . S
C1521 C1523 1.327 . S
C1521 C1527 1.429 . S
C1522 C1514 1.574 . S
C1522 H1517 0.949 . S
C1522 C1528 1.368 . S
C1523 C1507 1.349 . S
C1523 H1515 0.950 . S
C1523 C1521 1.327 . S
C1524 C1512 1.349 . S
C1524 H1518 0.950 . S
C1524 C1525 1.327 . S
C1525 H1519 0.950 . S
C1525 C1524 1.327 . S
C1525 C1529 1.429 . S
C1526 C1509 1.574 . S
C1526 H1520 0.949 . S
C1526 C1530 1.368 . S
C1527 C1508 1.429 . S
C1527 C1521 1.429 . S
C1527 C1528 1.523 . S
C1528 C1509 1.368 . S
C1528 C1522 1.368 . S
C1528 C1527 1.523 . S
C1529 C1513 1.429 . S
C1529 C1525 1.429 . S
C1529 C1530 1.523 . S
C1530 C1514 1.368 . S
C1530 C1526 1.368 . S
C1530 C1529 1.523 . S
H1531 C1506 0.950 . S
H1532 C1508 0.950 . S
H1533 C1509 0.949 . S
H1534 C1511 0.950 . S
H1535 C1513 0.950 . S
C577 C400 1.194 . S
C582 C4 1.190 . S
C607 C544 1.283 . S
C612 C40 1.281 . S
C637 C76 1.319 . S
C642 C326 1.316 . S
C667 C470 1.392 . S
C672 C110 1.391 . S
C697 C146 1.247 . S
C702 C472 1.252 . S
C727 C182 1.335 . S
C732 C398 1.330 . S
C757 C220 1.340 . S
C762 C542 1.326 . S
C787 C254 1.415 . S
C792 C328 1.419 . S
C817 C112 1.225 . S
C822 C292 1.220 . S
C847 C364 1.196 . S
C852 C38 1.190 . S
C877 C434 1.231 . S
C882 C184 1.232 . S
C907 C508 1.236 . S
C912 C256 1.230 . S
C937 C148 1.385 . S
C942 C290 1.381 . S
C967 C362 1.445 . S
C972 C218 1.444 . S
C997 C506 1.407 . S
C1002 C74 1.412 . S
C1027 C2 1.369 . S
C1032 C436 1.372 . S
C1057 C3 1.084 . S
C1062 C158 1.050 . S
C1087 C39 1.249 . S
C1092 C194 1.197 . S
C1117 C75 1.211 . S
C1122 C219 1.212 . S
C1147 C266 1.170 . S
C1152 C122 1.170 . S
C1177 C291 1.061 . S
C1182 C446 1.028 . S
C1207 C482 1.247 . S
C1212 C327 1.299 . S
C1237 C363 1.134 . S
C1242 C507 1.135 . S
C1267 C543 1.212 . S
C1272 C410 1.159 . S
C1297 C255 1.014 . S
C1302 C50 0.983 . S
C1327 C86 1.240 . S
C1332 C147 1.293 . S
C1357 C111 1.137 . S
C1362 C183 1.136 . S
C1387 C14 1.223 . S
C1392 C230 1.233 . S
C1417 C338 1.068 . S
C1422 C554 1.061 . S
C1447 C435 1.282 . S
C1452 C374 1.229 . S
C1477 C399 1.124 . S
C1482 C471 1.123 . S
C1507 C518 1.182 . S
C1512 C302 1.180 . S
