# Generated by pormake.
# Topology wgn, (5)-cn, num edge types: 1
# Building blocks:
#     Node 0, Type 0, BuildingBlock: BEQFEK_clean_sbu_0, # of connection points: 5
#     Node 1, Type 0, BuildingBlock: BEQFEK_clean_sbu_0, # of connection points: 5
#     Node 2, Type 0, BuildingBlock: BEQFEK_clean_sbu_0, # of connection points: 5
#     Node 3, Type 0, BuildingBlock: BEQFEK_clean_sbu_0, # of connection points: 5
#     Node 4, Type 0, BuildingBlock: BEQFEK_clean_sbu_0, # of connection points: 5
#     Node 5, Type 0, BuildingBlock: BEQFEK_clean_sbu_0, # of connection points: 5
#     Node 6, Type 0, BuildingBlock: BEQFEK_clean_sbu_0, # of connection points: 5
#     Node 7, Type 0, BuildingBlock: BEQFEK_clean_sbu_0, # of connection points: 5
#     Node 8, Type 0, BuildingBlock: BEQFEK_clean_sbu_0, # of connection points: 5
#     Node 9, Type 0, BuildingBlock: BEQFEK_clean_sbu_0, # of connection points: 5
#     Node 10, Type 0, BuildingBlock: BEQFEK_clean_sbu_0, # of connection points: 5
#     Node 11, Type 0, BuildingBlock: BEQFEK_clean_sbu_0, # of connection points: 5
#     Node 12, Type 0, BuildingBlock: BEQFEK_clean_sbu_0, # of connection points: 5
#     Node 13, Type 0, BuildingBlock: BEQFEK_clean_sbu_0, # of connection points: 5
#     Node 14, Type 0, BuildingBlock: BEQFEK_clean_sbu_0, # of connection points: 5
#     Node 15, Type 0, BuildingBlock: BEQFEK_clean_sbu_0, # of connection points: 5
#     Node 16, Type 0, BuildingBlock: BEQFEK_clean_sbu_0, # of connection points: 5
#     Node 17, Type 0, BuildingBlock: BEQFEK_clean_sbu_0, # of connection points: 5
#     Node 18, Type 0, BuildingBlock: BEQFEK_clean_sbu_0, # of connection points: 5
#     Node 19, Type 0, BuildingBlock: BEQFEK_clean_sbu_0, # of connection points: 5
#     Node 20, Type 0, BuildingBlock: BEQFEK_clean_sbu_0, # of connection points: 5
#     Node 21, Type 0, BuildingBlock: BEQFEK_clean_sbu_0, # of connection points: 5
#     Node 22, Type 0, BuildingBlock: BEQFEK_clean_sbu_0, # of connection points: 5
#     Node 23, Type 0, BuildingBlock: BEQFEK_clean_sbu_0, # of connection points: 5
#     Node 24, Type 0, BuildingBlock: BEQFEK_clean_sbu_0, # of connection points: 5
#     Node 25, Type 0, BuildingBlock: BEQFEK_clean_sbu_0, # of connection points: 5
#     Node 26, Type 0, BuildingBlock: BEQFEK_clean_sbu_0, # of connection points: 5
#     Node 27, Type 0, BuildingBlock: BEQFEK_clean_sbu_0, # of connection points: 5
#     Node 28, Type 0, BuildingBlock: BEQFEK_clean_sbu_0, # of connection points: 5
#     Node 29, Type 0, BuildingBlock: BEQFEK_clean_sbu_0, # of connection points: 5
#     Node 30, Type 0, BuildingBlock: BEQFEK_clean_sbu_0, # of connection points: 5
#     Node 31, Type 0, BuildingBlock: BEQFEK_clean_sbu_0, # of connection points: 5
#     Edge 32, Type (0, 0), BuildingBlock: AJUNOK_clean_linker_0, # of connection points: 2
#     Edge 33, Type (0, 0), BuildingBlock: AJUNOK_clean_linker_0, # of connection points: 2
#     Edge 34, Type (0, 0), BuildingBlock: AJUNOK_clean_linker_0, # of connection points: 2
#     Edge 35, Type (0, 0), BuildingBlock: AJUNOK_clean_linker_0, # of connection points: 2
#     Edge 36, Type (0, 0), BuildingBlock: AJUNOK_clean_linker_0, # of connection points: 2
#     Edge 37, Type (0, 0), BuildingBlock: AJUNOK_clean_linker_0, # of connection points: 2
#     Edge 38, Type (0, 0), BuildingBlock: AJUNOK_clean_linker_0, # of connection points: 2
#     Edge 39, Type (0, 0), BuildingBlock: AJUNOK_clean_linker_0, # of connection points: 2
#     Edge 40, Type (0, 0), BuildingBlock: AJUNOK_clean_linker_0, # of connection points: 2
#     Edge 41, Type (0, 0), BuildingBlock: AJUNOK_clean_linker_0, # of connection points: 2
#     Edge 42, Type (0, 0), BuildingBlock: AJUNOK_clean_linker_0, # of connection points: 2
#     Edge 43, Type (0, 0), BuildingBlock: AJUNOK_clean_linker_0, # of connection points: 2
#     Edge 44, Type (0, 0), BuildingBlock: AJUNOK_clean_linker_0, # of connection points: 2
#     Edge 45, Type (0, 0), BuildingBlock: AJUNOK_clean_linker_0, # of connection points: 2
#     Edge 46, Type (0, 0), BuildingBlock: AJUNOK_clean_linker_0, # of connection points: 2
#     Edge 47, Type (0, 0), BuildingBlock: AJUNOK_clean_linker_0, # of connection points: 2
#     Edge 48, Type (0, 0), BuildingBlock: AJUNOK_clean_linker_0, # of connection points: 2
#     Edge 49, Type (0, 0), BuildingBlock: AJUNOK_clean_linker_0, # of connection points: 2
#     Edge 50, Type (0, 0), BuildingBlock: AJUNOK_clean_linker_0, # of connection points: 2
#     Edge 51, Type (0, 0), BuildingBlock: AJUNOK_clean_linker_0, # of connection points: 2
#     Edge 52, Type (0, 0), BuildingBlock: AJUNOK_clean_linker_0, # of connection points: 2
#     Edge 53, Type (0, 0), BuildingBlock: AJUNOK_clean_linker_0, # of connection points: 2
#     Edge 54, Type (0, 0), BuildingBlock: AJUNOK_clean_linker_0, # of connection points: 2
#     Edge 55, Type (0, 0), BuildingBlock: AJUNOK_clean_linker_0, # of connection points: 2
#     Edge 56, Type (0, 0), BuildingBlock: AJUNOK_clean_linker_0, # of connection points: 2
#     Edge 57, Type (0, 0), BuildingBlock: AJUNOK_clean_linker_0, # of connection points: 2
#     Edge 58, Type (0, 0), BuildingBlock: AJUNOK_clean_linker_0, # of connection points: 2
#     Edge 59, Type (0, 0), BuildingBlock: AJUNOK_clean_linker_0, # of connection points: 2
#     Edge 60, Type (0, 0), BuildingBlock: AJUNOK_clean_linker_0, # of connection points: 2
#     Edge 61, Type (0, 0), BuildingBlock: AJUNOK_clean_linker_0, # of connection points: 2
#     Edge 62, Type (0, 0), BuildingBlock: AJUNOK_clean_linker_0, # of connection points: 2
#     Edge 63, Type (0, 0), BuildingBlock: AJUNOK_clean_linker_0, # of connection points: 2
#     Edge 64, Type (0, 0), BuildingBlock: AJUNOK_clean_linker_0, # of connection points: 2
#     Edge 65, Type (0, 0), BuildingBlock: AJUNOK_clean_linker_0, # of connection points: 2
#     Edge 66, Type (0, 0), BuildingBlock: AJUNOK_clean_linker_0, # of connection points: 2
#     Edge 67, Type (0, 0), BuildingBlock: AJUNOK_clean_linker_0, # of connection points: 2
#     Edge 68, Type (0, 0), BuildingBlock: AJUNOK_clean_linker_0, # of connection points: 2
#     Edge 69, Type (0, 0), BuildingBlock: AJUNOK_clean_linker_0, # of connection points: 2
#     Edge 70, Type (0, 0), BuildingBlock: AJUNOK_clean_linker_0, # of connection points: 2
#     Edge 71, Type (0, 0), BuildingBlock: AJUNOK_clean_linker_0, # of connection points: 2
#     Edge 72, Type (0, 0), BuildingBlock: AJUNOK_clean_linker_0, # of connection points: 2
#     Edge 73, Type (0, 0), BuildingBlock: AJUNOK_clean_linker_0, # of connection points: 2
#     Edge 74, Type (0, 0), BuildingBlock: AJUNOK_clean_linker_0, # of connection points: 2
#     Edge 75, Type (0, 0), BuildingBlock: AJUNOK_clean_linker_0, # of connection points: 2
#     Edge 76, Type (0, 0), BuildingBlock: AJUNOK_clean_linker_0, # of connection points: 2
#     Edge 77, Type (0, 0), BuildingBlock: AJUNOK_clean_linker_0, # of connection points: 2
#     Edge 78, Type (0, 0), BuildingBlock: AJUNOK_clean_linker_0, # of connection points: 2
#     Edge 79, Type (0, 0), BuildingBlock: AJUNOK_clean_linker_0, # of connection points: 2
#     Edge 80, Type (0, 0), BuildingBlock: AJUNOK_clean_linker_0, # of connection points: 2
#     Edge 81, Type (0, 0), BuildingBlock: AJUNOK_clean_linker_0, # of connection points: 2
#     Edge 82, Type (0, 0), BuildingBlock: AJUNOK_clean_linker_0, # of connection points: 2
#     Edge 83, Type (0, 0), BuildingBlock: AJUNOK_clean_linker_0, # of connection points: 2
#     Edge 84, Type (0, 0), BuildingBlock: AJUNOK_clean_linker_0, # of connection points: 2
#     Edge 85, Type (0, 0), BuildingBlock: AJUNOK_clean_linker_0, # of connection points: 2
#     Edge 86, Type (0, 0), BuildingBlock: AJUNOK_clean_linker_0, # of connection points: 2
#     Edge 87, Type (0, 0), BuildingBlock: AJUNOK_clean_linker_0, # of connection points: 2
#     Edge 88, Type (0, 0), BuildingBlock: AJUNOK_clean_linker_0, # of connection points: 2
#     Edge 89, Type (0, 0), BuildingBlock: AJUNOK_clean_linker_0, # of connection points: 2
#     Edge 90, Type (0, 0), BuildingBlock: AJUNOK_clean_linker_0, # of connection points: 2
#     Edge 91, Type (0, 0), BuildingBlock: AJUNOK_clean_linker_0, # of connection points: 2
#     Edge 92, Type (0, 0), BuildingBlock: AJUNOK_clean_linker_0, # of connection points: 2
#     Edge 93, Type (0, 0), BuildingBlock: AJUNOK_clean_linker_0, # of connection points: 2
#     Edge 94, Type (0, 0), BuildingBlock: AJUNOK_clean_linker_0, # of connection points: 2
#     Edge 95, Type (0, 0), BuildingBlock: AJUNOK_clean_linker_0, # of connection points: 2
#     Edge 96, Type (0, 0), BuildingBlock: AJUNOK_clean_linker_0, # of connection points: 2
#     Edge 97, Type (0, 0), BuildingBlock: AJUNOK_clean_linker_0, # of connection points: 2
#     Edge 98, Type (0, 0), BuildingBlock: AJUNOK_clean_linker_0, # of connection points: 2
#     Edge 99, Type (0, 0), BuildingBlock: AJUNOK_clean_linker_0, # of connection points: 2
#     Edge 100, Type (0, 0), BuildingBlock: AJUNOK_clean_linker_0, # of connection points: 2
#     Edge 101, Type (0, 0), BuildingBlock: AJUNOK_clean_linker_0, # of connection points: 2
#     Edge 102, Type (0, 0), BuildingBlock: AJUNOK_clean_linker_0, # of connection points: 2
#     Edge 103, Type (0, 0), BuildingBlock: AJUNOK_clean_linker_0, # of connection points: 2
#     Edge 104, Type (0, 0), BuildingBlock: AJUNOK_clean_linker_0, # of connection points: 2
#     Edge 105, Type (0, 0), BuildingBlock: AJUNOK_clean_linker_0, # of connection points: 2
#     Edge 106, Type (0, 0), BuildingBlock: AJUNOK_clean_linker_0, # of connection points: 2
#     Edge 107, Type (0, 0), BuildingBlock: AJUNOK_clean_linker_0, # of connection points: 2
#     Edge 108, Type (0, 0), BuildingBlock: AJUNOK_clean_linker_0, # of connection points: 2
#     Edge 109, Type (0, 0), BuildingBlock: AJUNOK_clean_linker_0, # of connection points: 2
#     Edge 110, Type (0, 0), BuildingBlock: AJUNOK_clean_linker_0, # of connection points: 2
#     Edge 111, Type (0, 0), BuildingBlock: AJUNOK_clean_linker_0, # of connection points: 2
# Relax obj value: 0.158
# Max RMSD: 0.135
# Mean RMSD: 0.133
data_MOF--net-wgn--node1-BEQFEK_clean_sbu_0--edge1-AJUNOK_clean_linker_0
_symmetry_space_group_name_H-M    P1
_symmetry_Int_Tables_number       1
_symmetry_cell_setting            triclinic
loop_
_symmetry_equiv_pos_as_xyz
'x, y, z'
_cell_length_a     23.151899
_cell_length_b     23.169599
_cell_length_c     118.03921
_cell_angle_alpha  90.015875
_cell_angle_beta   90.038039
_cell_angle_gamma 89.990787
loop_
_atom_site_label
_atom_site_type_symbol
_atom_site_fract_x
_atom_site_fract_y
_atom_site_fract_z
_atom_type_partial_charge
Co0 Co 0.29614 0.14901 0.34111 0.0
Co1 Co 0.29063 0.15654 0.31399 0.0
C2 C 0.24574 0.25138 0.32855 0.0
O3 O 0.25865 0.22623 0.33788 0.0
O4 O 0.25285 0.22675 0.31905 0.0
C5 C 0.26374 0.11221 0.36469 0.0
O6 O 0.21016 0.10719 0.36115 0.0
C7 C 0.26662 0.19301 0.29049 0.0
C8 C 0.32755 0.13853 0.28089 0.0
C9 C 0.28954 0.18435 0.27975 0.0
N10 N 0.291 0.15498 0.29769 0.0
N11 N 0.32737 0.12256 0.29186 0.0
C12 C 0.22171 0.23609 0.29383 0.0
H13 H 0.24335 0.27448 0.29751 0.0
H14 H 0.19279 0.21727 0.30035 0.0
H15 H 0.19568 0.24988 0.28641 0.0
C16 C 0.25999 0.02955 0.33538 0.0
N17 N 0.26776 0.08518 0.33237 0.0
N18 N 0.26202 0.0895 0.32127 0.0
C19 C 0.24768 0.03752 0.317 0.0
C20 C 0.24609 -0.00218 0.32579 0.0
C21 C 0.27747 0.00488 0.3466 0.0
H22 H 0.31442 0.0293 0.35014 0.0
H23 H 0.24047 0.00729 0.35253 0.0
H24 H 0.29028 0.9589 0.34582 0.0
O25 O 0.37563 0.16185 0.33673 0.0
O26 O 0.37178 0.16743 0.318 0.0
H27 H 0.28128 0.01579 0.30072 0.0
H28 H 0.21019 0.98765 0.30345 0.0
C29 C 0.23895 0.02549 0.30467 0.0
H30 H 0.22002 0.06375 0.30042 0.0
H31 H 0.35399 0.09117 0.29545 0.0
O32 O 0.30212 0.1306 0.35786 0.0
C33 C 0.39997 0.16949 0.32722 0.0
Co34 Co 0.07765 0.02945 0.58878 0.0
Co35 Co 0.06841 0.02031 0.56162 0.0
C36 C 0.96584 0.00139 0.57696 0.0
O37 O 0.99347 0.00996 0.58621 0.0
O38 O 0.9912 0.00179 0.56742 0.0
C39 C 0.08691 0.0805 0.61115 0.0
O40 O 0.05171 0.1184 0.60658 0.0
C41 C 0.02334 0.00223 0.53839 0.0
C42 C 0.08983 0.04702 0.52829 0.0
C43 C 0.03582 0.02168 0.5275 0.0
N44 N 0.06801 0.01569 0.54527 0.0
N45 N 0.10762 0.04216 0.5391 0.0
C46 C 0.96637 0.9807 0.54261 0.0
H47 H 0.94491 0.01558 0.54748 0.0
H48 H 0.97356 0.9435 0.54835 0.0
H49 H 0.93712 0.96769 0.53564 0.0
C50 C 0.18459 0.96748 0.58381 0.0
N51 N 0.13135 0.98345 0.58042 0.0
N52 N 0.12813 0.97911 0.56928 0.0
C53 C 0.17905 0.95921 0.56535 0.0
C54 C 0.21693 0.95261 0.57437 0.0
C55 C 0.2076 0.97821 0.59547 0.0
H56 H 0.17855 0.95787 0.60178 0.0
H57 H 0.25181 0.96055 0.59655 0.0
H58 H 0.20853 0.02538 0.5971 0.0
O59 O 0.08529 0.10769 0.58324 0.0
O60 O 0.07891 0.1025 0.56454 0.0
H61 H 0.2105 0.99573 0.54992 0.0
H62 H 0.22909 0.92133 0.55193 0.0
C63 C 0.19428 0.95377 0.55309 0.0
H64 H 0.15579 0.94088 0.5481 0.0
H65 H 0.14468 0.06132 0.54243 0.0
O66 O 0.1007 0.03599 0.60537 0.0
C67 C 0.08491 0.13157 0.57358 0.0
Co68 Co 0.18483 0.85297 0.83725 0.0
Co69 Co 0.18792 0.85724 0.81005 0.0
C70 C 0.23475 0.75698 0.82371 0.0
O71 O 0.22806 0.77946 0.83353 0.0
O72 O 0.22146 0.78392 0.81472 0.0
C73 C 0.1996 0.87647 0.86278 0.0
O74 O 0.2559 0.88137 0.8618 0.0
C75 C 0.21221 0.82415 0.78644 0.0
C76 C 0.15471 0.88351 0.77713 0.0
C77 C 0.18984 0.83562 0.77574 0.0
N78 N 0.19023 0.86275 0.79383 0.0
N79 N 0.15589 0.89805 0.78817 0.0
C80 C 0.2541 0.77774 0.78964 0.0
H81 H 0.28416 0.79395 0.79623 0.0
H82 H 0.27923 0.76305 0.78217 0.0
H83 H 0.23007 0.74049 0.7932 0.0
C84 C 0.22083 0.97481 0.83354 0.0
N85 N 0.21187 0.9209 0.82958 0.0
N86 N 0.21618 0.92159 0.81842 0.0
C87 C 0.2301 0.97533 0.81503 0.0
C88 C 0.23312 0.01099 0.82447 0.0
C89 C 0.20782 0.99325 0.84542 0.0
H90 H 0.16816 0.97145 0.84845 0.0
H91 H 0.24437 0.98094 0.85098 0.0
H92 H 0.20125 0.04057 0.84604 0.0
O93 O 0.1077 0.83525 0.83173 0.0
O94 O 0.10643 0.84664 0.81311 0.0
H95 H 0.1955 0.00469 0.79927 0.0
H96 H 0.26713 0.03066 0.80227 0.0
C97 C 0.238 0.99274 0.80292 0.0
H98 H 0.25614 0.95637 0.79796 0.0
H99 H 0.13073 0.93009 0.79193 0.0
O100 O 0.16937 0.86519 0.85402 0.0
C101 C 0.08126 0.83406 0.82231 0.0
Co102 Co 0.38661 0.93874 0.09083 0.0
Co103 Co 0.39981 0.94758 0.06397 0.0
C104 C 0.48163 0.00639 0.07794 0.0
O105 O 0.46015 0.98229 0.08676 0.0
O106 O 0.45431 0.00715 0.06861 0.0
C107 C 0.34314 0.97096 0.11425 0.0
O108 O 0.32643 0.02115 0.11024 0.0
C109 C 0.44576 0.95132 0.04062 0.0
C110 C 0.38033 0.90249 0.03101 0.0
C111 C 0.43359 0.92925 0.02989 0.0
N112 N 0.40132 0.93902 0.04763 0.0
N113 N 0.36274 0.90923 0.0418 0.0
C114 C 0.50224 0.9754 0.04461 0.0
H115 H 0.51308 0.95745 0.05305 0.0
H116 H 0.49836 0.02294 0.0454 0.0
H117 H 0.53788 0.96506 0.03867 0.0
C118 C 0.26355 0.95244 0.08422 0.0
N119 N 0.32014 0.95295 0.08155 0.0
N120 N 0.32541 0.96028 0.07051 0.0
C121 C 0.27247 0.9688 0.066 0.0
C122 C 0.23139 0.96287 0.07452 0.0
C123 C 0.24016 0.9346 0.09551 0.0
H124 H 0.2702 0.90417 0.09973 0.0
H125 H 0.2345 0.97333 0.10091 0.0
H126 H 0.19739 0.91346 0.09458 0.0
O127 O 0.41098 0.86137 0.08768 0.0
O128 O 0.43286 0.87415 0.06956 0.0
H129 H 0.24892 0.95064 0.0488 0.0
H130 H 0.22597 0.0198 0.05382 0.0
C131 C 0.26183 0.98799 0.05407 0.0
H132 H 0.30146 0.0075 0.05044 0.0
H133 H 0.32607 0.8903 0.04534 0.0
O134 O 0.36872 0.93558 0.10768 0.0
C135 C 0.43423 0.84409 0.07858 0.0
Co136 Co 0.29168 0.8601 0.18337 0.0
Co137 Co 0.27134 0.85187 0.21012 0.0
C138 C 0.21942 0.76675 0.19557 0.0
O139 O 0.24681 0.78722 0.18704 0.0
O140 O 0.2146 0.79555 0.20468 0.0
C141 C 0.26592 0.89881 0.15948 0.0
O142 O 0.21428 0.91416 0.16297 0.0
C143 C 0.25868 0.80539 0.23308 0.0
C144 C 0.31049 0.86493 0.24349 0.0
C145 C 0.28142 0.81275 0.24387 0.0
N146 N 0.27361 0.85084 0.22657 0.0
N147 N 0.30461 0.88637 0.23291 0.0
C148 C 0.22533 0.75444 0.22889 0.0
H149 H 0.25072 0.73176 0.22228 0.0
H150 H 0.18445 0.76986 0.22507 0.0
H151 H 0.21479 0.72386 0.23582 0.0
C152 C 0.27531 0.98366 0.18865 0.0
N153 N 0.27307 0.92793 0.19189 0.0
N154 N 0.26234 0.92548 0.20286 0.0
C155 C 0.25392 0.97976 0.20674 0.0
C156 C 0.26203 0.01843 0.19785 0.0
C157 C 0.29996 0.00369 0.1776 0.0
H158 H 0.3332 0.9729 0.17457 0.0
H159 H 0.26507 0.0066 0.1712 0.0
H160 H 0.3199 0.04704 0.17845 0.0
O161 O 0.36755 0.83655 0.18808 0.0
O162 O 0.34648 0.81761 0.20603 0.0
H163 H 0.27666 0.00796 0.22337 0.0
H164 H 0.20675 0.0312 0.21871 0.0
C165 C 0.23755 0.99447 0.21864 0.0
H166 H 0.21788 0.95662 0.22291 0.0
H167 H 0.3255 0.92297 0.22984 0.0
O168 O 0.30065 0.87533 0.16648 0.0
C169 C 0.38055 0.81479 0.19762 0.0
Co170 Co 0.37861 0.05059 0.43237 0.0
Co171 Co 0.38552 0.0456 0.4595 0.0
C172 C 0.4729 0.98561 0.44548 0.0
O173 O 0.44922 0.00269 0.43624 0.0
O174 O 0.44909 0.99419 0.45507 0.0
C175 C 0.34032 0.02194 0.40857 0.0
O176 O 0.32881 0.96913 0.41192 0.0
C177 C 0.41494 0.03165 0.4839 0.0
C178 C 0.35876 0.09811 0.49149 0.0
C179 C 0.40282 0.05977 0.49409 0.0
N180 N 0.38004 0.05298 0.47574 0.0
N181 N 0.34648 0.09251 0.4804 0.0
C182 C 0.45872 0.98532 0.48188 0.0
H183 H 0.44209 0.95418 0.47553 0.0
H184 H 0.46898 0.96189 0.48982 0.0
H185 H 0.49879 0.00507 0.47848 0.0
C186 C 0.25505 0.0307 0.4378 0.0
N187 N 0.31084 0.03419 0.44102 0.0
N188 N 0.31392 0.02817 0.45212 0.0
C189 C 0.26044 0.01736 0.45617 0.0
C190 C 0.22131 0.01856 0.44722 0.0
C191 C 0.23316 0.04836 0.42637 0.0
H192 H 0.26053 0.0832 0.42284 0.0
H193 H 0.2342 0.0108 0.42058 0.0
H194 H 0.18791 0.06401 0.42687 0.0
O195 O 0.40486 0.12695 0.43616 0.0
O196 O 0.41462 0.1217 0.45483 0.0
H197 H 0.23581 0.04669 0.47261 0.0
H198 H 0.20973 0.97584 0.4691 0.0
C199 C 0.24713 0.00556 0.46835 0.0
H200 H 0.28523 0.98649 0.47264 0.0
H201 H 0.31711 0.11778 0.47589 0.0
O202 O 0.36211 0.05763 0.41557 0.0
C203 C 0.42109 0.14832 0.44551 0.0
Co204 Co 0.19356 0.16767 0.67906 0.0
Co205 Co 0.21131 0.16823 0.70611 0.0
C206 C 0.26398 0.25916 0.69197 0.0
O207 O 0.24204 0.23812 0.68287 0.0
O208 O 0.2613 0.23226 0.70137 0.0
C209 C 0.20476 0.13464 0.65398 0.0
O210 O 0.25858 0.11837 0.65548 0.0
C211 C 0.23484 0.19306 0.73035 0.0
C212 C 0.17107 0.13633 0.73863 0.0
C213 C 0.21065 0.17978 0.74083 0.0
N214 N 0.21025 0.15944 0.72236 0.0
N215 N 0.17222 0.12563 0.72742 0.0
C216 C 0.28028 0.23709 0.72791 0.0
H217 H 0.25933 0.27694 0.7247 0.0
H218 H 0.30985 0.22048 0.72128 0.0
H219 H 0.30564 0.24763 0.73562 0.0
C220 C 0.21235 0.04256 0.68322 0.0
N221 N 0.21304 0.09779 0.68685 0.0
N222 N 0.22378 0.09833 0.69784 0.0
C223 C 0.23325 0.04367 0.70134 0.0
C224 C 0.22604 0.00646 0.69221 0.0
C225 C 0.18924 0.02385 0.67195 0.0
H226 H 0.15412 0.05317 0.6692 0.0
H227 H 0.22445 0.02491 0.66561 0.0
H228 H 0.17206 0.97917 0.67232 0.0
O229 O 0.11968 0.19331 0.68452 0.0
O230 O 0.1341 0.19895 0.70308 0.0
H231 H 0.20909 0.01669 0.71798 0.0
H232 H 0.27711 0.98843 0.71322 0.0
C233 C 0.24895 0.02723 0.71321 0.0
H234 H 0.27143 0.06341 0.7175 0.0
H235 H 0.14477 0.09732 0.72314 0.0
O236 O 0.17664 0.15558 0.66231 0.0
C237 C 0.10328 0.20761 0.69436 0.0
Co238 Co 0.08827 0.95488 0.9305 0.0
Co239 Co 0.07144 0.96814 0.95712 0.0
C240 C 0.9882 0.01816 0.9426 0.0
O241 O 0.01092 0.99252 0.93408 0.0
O242 O 0.01655 0.02538 0.95169 0.0
C243 C 0.08997 0.92075 0.90681 0.0
O244 O 0.04763 0.88721 0.9102 0.0
C245 C 0.02277 0.97823 0.98008 0.0
C246 C 0.07973 0.92155 0.99011 0.0
C247 C 0.02942 0.95365 0.99073 0.0
N248 N 0.06698 0.96134 0.97343 0.0
N249 N 0.10077 0.92728 0.97951 0.0
C250 C 0.97404 0.01564 0.97618 0.0
H251 H 0.94812 0.99179 0.96981 0.0
H252 H 0.99181 0.05492 0.97212 0.0
H253 H 0.94574 0.02883 0.98331 0.0
C254 C 0.20847 0.976 0.93747 0.0
N255 N 0.15188 0.97504 0.94004 0.0
N256 N 0.14576 0.9817 0.95106 0.0
C257 C 0.19822 0.98976 0.95577 0.0
C258 C 0.23989 0.9852 0.94733 0.0
C259 C 0.23177 0.96097 0.926 0.0
H260 H 0.20854 0.92278 0.92263 0.0
H261 H 0.22406 -0.00237 0.92015 0.0
H262 H 0.27863 0.95119 0.92626 0.0
O263 O 0.06946 0.87575 0.93388 0.0
O264 O 0.04282 0.89321 0.9516 0.0
H265 H 0.21581 0.96451 0.97286 0.0
H266 H 0.24637 0.03272 0.9689 0.0
C267 C 0.20791 0.00449 0.96796 0.0
H268 H 0.1693 0.02636 0.97151 0.0
H269 H 0.13614 0.9049 0.97626 0.0
O270 O 0.11171 0.95632 0.9139 0.0
C271 C 0.04473 0.86031 0.94298 0.0
Co272 Co 0.70632 0.84466 0.71689 0.0
Co273 Co 0.65019 0.85118 0.69237 0.0
C274 C 0.70656 0.7442 0.70041 0.0
O275 O 0.721 0.76772 0.70975 0.0
O276 O 0.68058 0.77259 0.69275 0.0
C277 C 0.77853 0.8032 0.73493 0.0
O278 O 0.80402 0.77484 0.72669 0.0
C279 C 0.63252 0.84664 0.66759 0.0
C280 C 0.55763 0.90488 0.66548 0.0
C281 C 0.59675 0.87153 0.65949 0.0
N282 N 0.61646 0.86612 0.67785 0.0
N283 N 0.57108 0.90011 0.67653 0.0
C284 C 0.67849 0.80209 0.6658 0.0
H285 H 0.6712 0.76532 0.6716 0.0
H286 H 0.72126 0.821 0.66786 0.0
H287 H 0.67848 0.78528 0.65701 0.0
C288 C 0.74688 0.96203 0.70905 0.0
N289 N 0.72449 0.9091 0.7071 0.0
N290 N 0.70505 0.90779 0.69659 0.0
C291 C 0.71664 0.95834 0.69145 0.0
C292 C 0.74271 0.99491 0.69918 0.0
C293 C 0.76491 0.98297 0.72049 0.0
H294 H 0.78747 0.94797 0.72514 0.0
H295 H 0.79331 0.02141 0.71977 0.0
H296 H 0.72582 0.99498 0.72539 0.0
O297 O 0.62351 0.84393 0.72027 0.0
O298 O 0.58605 0.85198 0.70304 0.0
H299 H 0.64711 0.98338 0.68063 0.0
H300 H 0.71504 0.01433 0.67668 0.0
C301 C 0.69409 0.97488 0.68001 0.0
H302 H 0.70172 0.93926 0.67393 0.0
H303 H 0.54975 0.92075 0.68318 0.0
O304 O 0.74212 0.84239 0.73239 0.0
C305 C 0.58024 0.84748 0.71371 0.0
Co306 Co 0.88085 0.94916 0.46663 0.0
Co307 Co 0.88103 0.89187 0.44241 0.0
C308 C 0.9738 0.97449 0.44969 0.0
O309 O 0.94991 0.98438 0.45921 0.0
O310 O 0.94989 0.94164 0.44245 0.0
C311 C 0.90673 0.02334 0.48527 0.0
O312 O 0.92849 0.05632 0.47729 0.0
C313 C 0.87744 0.88659 0.41759 0.0
C314 C 0.87742 0.79241 0.41461 0.0
C315 C 0.87934 0.84519 0.40915 0.0
N316 N 0.8745 0.85956 0.42764 0.0
N317 N 0.87403 0.80327 0.42579 0.0
C318 C 0.88354 0.95039 0.4162 0.0
H319 H 0.8755 0.97287 0.42435 0.0
H320 H 0.85279 0.96609 0.40967 0.0
H321 H 0.92788 0.96037 0.41322 0.0
C322 C 0.75591 0.9683 0.45966 0.0
N323 N 0.81094 0.95184 0.45757 0.0
N324 N 0.81266 0.92816 0.44741 0.0
C325 C 0.7594 0.92812 0.44283 0.0
C326 C 0.72141 0.95405 0.45035 0.0
C327 C 0.73648 0.99515 0.47052 0.0
H328 H 0.77182 0.02143 0.47423 0.0
H329 H 0.6976 0.02232 0.46915 0.0
H330 H 0.7254 0.96043 0.47662 0.0
O331 O 0.9054 0.8687 0.46941 0.0
O332 O 0.89994 0.82814 0.45243 0.0
H333 H 0.69666 0.89168 0.43114 0.0
H334 H 0.76141 0.92066 0.42478 0.0
C335 C 0.74402 0.89665 0.43215 0.0
H336 H 0.76383 0.85311 0.43225 0.0
H337 H 0.87338 0.77219 0.43219 0.0
O338 O 0.87612 0.98012 0.48239 0.0
C339 C 0.9109 0.82525 0.46295 0.0
Co340 Co 0.78185 0.14444 0.21889 0.0
Co341 Co 0.82785 0.14014 0.19364 0.0
C342 C 0.75495 0.2365 0.20099 0.0
O343 O 0.75156 0.2147 0.21089 0.0
O344 O 0.78135 0.21059 0.19303 0.0
C345 C 0.70596 0.17599 0.23709 0.0
O346 O 0.67341 0.19442 0.22873 0.0
C347 C 0.84413 0.13917 0.16888 0.0
C348 C 0.9211 0.08321 0.16726 0.0
C349 C 0.88103 0.11426 0.16107 0.0
N350 N 0.86143 0.12336 0.17929 0.0
N351 N 0.90794 0.09062 0.17827 0.0
C352 C 0.79154 0.17467 0.16653 0.0
H353 H 0.75592 0.16126 0.17224 0.0
H354 H 0.7777 0.17055 0.15756 0.0
H355 H 0.80143 0.22063 0.16833 0.0
C356 C 0.75656 0.01964 0.21274 0.0
N357 N 0.77229 0.07433 0.21017 0.0
N358 N 0.7877 0.07579 0.19943 0.0
C359 C 0.7805 0.02329 0.19477 0.0
C360 C 0.76189 0.9854 0.20304 0.0
C361 C 0.74192 -0.0001 0.22445 0.0
H362 H 0.76579 0.02602 0.23079 0.0
H363 H 0.69502 0.0064 0.2259 0.0
H364 H 0.75205 0.95341 0.22556 0.0
O365 O 0.86413 0.16144 0.22118 0.0
O366 O 0.89336 0.15874 0.20331 0.0
H367 H 0.8365 -7e-05 0.18112 0.0
H368 H 0.7646 0.97129 0.17989 0.0
C369 C 0.79016 0.00955 0.18252 0.0
H370 H 0.77735 0.04673 0.17719 0.0
H371 H 0.92991 0.07223 0.18509 0.0
O372 O 0.75025 0.1457 0.23472 0.0
C373 C 0.90341 0.16683 0.21377 0.0
Co374 Co 0.58734 0.02193 0.96865 0.0
Co375 Co 0.59041 0.06475 0.94325 0.0
C376 C 0.48924 0.00319 0.95137 0.0
O377 O 0.51222 -0.00115 0.96117 0.0
O378 O 0.51644 0.02556 0.94313 0.0
C379 C 0.55476 0.9449 0.98664 0.0
O380 O 0.53353 0.91459 0.97821 0.0
C381 C 0.5862 0.08435 0.91858 0.0
C382 C 0.64588 0.15836 0.91683 0.0
C383 C 0.61057 0.12152 0.91077 0.0
N384 N 0.60632 0.09846 0.92889 0.0
N385 N 0.64138 0.14319 0.9278 0.0
C386 C 0.54589 0.03532 0.9163 0.0
H387 H 0.50146 0.04849 0.9187 0.0
H388 H 0.558 -0.00235 0.9216 0.0
H389 H 0.5462 0.02312 0.9072 0.0
C390 C 0.71093 0.99405 0.96179 0.0
N391 N 0.6552 0.00689 0.95941 0.0
N392 N 0.65154 0.01823 0.94848 0.0
C393 C 0.70308 0.00943 0.94353 0.0
C394 C 0.74309 0.99548 0.95177 0.0
C395 C 0.73391 0.98719 0.97355 0.0
H396 H 0.73355 0.02979 0.97784 0.0
H397 H 0.70539 0.95785 0.97843 0.0
H398 H 0.77873 0.97014 0.97344 0.0
O399 O 0.57932 0.10525 0.97122 0.0
O400 O 0.58109 0.13119 0.95316 0.0
H401 H 0.72883 0.06803 0.93048 0.0
H402 H 0.75189 0.99521 0.92817 0.0
C403 C 0.71586 0.02218 0.93135 0.0
H404 H 0.67735 0.01343 0.92606 0.0
H405 H 0.66294 0.16281 0.93454 0.0
O406 O 0.5862 0.98849 0.98435 0.0
C407 C 0.57719 0.14374 0.96359 0.0
Co408 Co 0.71013 0.14067 0.80456 0.0
Co409 Co 0.66254 0.14431 0.8296 0.0
C410 C 0.7438 0.23114 0.82264 0.0
O411 O 0.74185 0.21114 0.81257 0.0
O412 O 0.72223 0.2031 0.83085 0.0
C413 C 0.78222 0.17324 0.78602 0.0
O414 O 0.81205 0.19897 0.79402 0.0
C415 C 0.64344 0.13837 0.85441 0.0
C416 C 0.55004 0.11888 0.85504 0.0
C417 C 0.59806 0.12763 0.86183 0.0
N418 N 0.62324 0.13506 0.84374 0.0
N419 N 0.56729 0.1239 0.8442 0.0
C420 C 0.70442 0.15371 0.85742 0.0
H421 H 0.72314 0.18319 0.85107 0.0
H422 H 0.731 0.11388 0.85759 0.0
H423 H 0.70661 0.1747 0.86586 0.0
C424 C 0.71977 0.01379 0.81098 0.0
N425 N 0.70954 0.07001 0.81339 0.0
N426 N 0.68999 0.07325 0.82386 0.0
C427 C 0.68801 0.02007 0.82845 0.0
C428 C 0.70652 0.98035 0.82048 0.0
C429 C 0.73958 0.9925 0.79968 0.0
H430 H 0.7018 0.98967 0.79392 0.0
H431 H 0.77076 0.02349 0.79595 0.0
H432 H 0.75956 0.94908 0.80041 0.0
O433 O 0.63088 0.16507 0.80145 0.0
O434 O 0.60662 0.18035 0.81938 0.0
H435 H 0.6174 0.02032 0.84008 0.0
H436 H 0.66548 0.96048 0.84201 0.0
C437 C 0.66333 0.007 0.83989 0.0
H438 H 0.68714 0.03182 0.84641 0.0
H439 H 0.5409 0.1193 0.83709 0.0
O440 O 0.743 0.13754 0.78887 0.0
C441 C 0.59707 0.18576 0.80884 0.0
Co442 Co 0.56645 0.97135 0.55455 0.0
Co443 Co 0.5781 0.9091 0.57831 0.0
C444 C 0.46671 0.95864 0.57126 0.0
O445 O 0.48886 0.97702 0.56207 0.0
O446 O 0.4968 0.93193 0.57855 0.0
C447 C 0.51652 0.04733 0.53837 0.0
O448 O 0.49064 0.06719 0.54746 0.0
C449 C 0.57763 0.88851 0.60278 0.0
C450 C 0.6356 0.81314 0.60438 0.0
C451 C 0.60279 0.85178 0.61059 0.0
N452 N 0.59512 0.87273 0.59238 0.0
N453 N 0.62886 0.82694 0.59337 0.0
C454 C 0.5416 0.94068 0.60517 0.0
H455 H 0.54566 0.97245 0.59818 0.0
H456 H 0.55453 0.96086 0.61331 0.0
H457 H 0.49568 0.9274 0.60583 0.0
C458 C 0.68179 0.01635 0.56256 0.0
N459 N 0.62975 0.99188 0.56451 0.0
N460 N 0.63025 0.96976 0.57481 0.0
C461 C 0.68118 0.98149 0.57984 0.0
C462 C 0.71617 0.0106 0.57223 0.0
C463 C 0.70115 0.03655 0.55116 0.0
H464 H 0.66519 0.0591 0.5468 0.0
H465 H 0.73912 0.06558 0.55191 0.0
H466 H 0.71337 -0.00147 0.54597 0.0
O467 O 0.57429 0.89013 0.55001 0.0
O468 O 0.58572 0.84903 0.56685 0.0
H469 H 0.74087 0.9744 0.59401 0.0
H470 H 0.66648 0.96072 0.59727 0.0
C471 C 0.70045 0.95492 0.59077 0.0
H472 H 0.70826 0.90822 0.58945 0.0
H473 H 0.64861 0.80613 0.58656 0.0
O474 O 0.55904 0.01302 0.53964 0.0
C475 C 0.58294 0.84588 0.55611 0.0
Co476 Co 0.77235 0.84322 0.30422 0.0
Co477 Co 0.83816 0.84324 0.3279 0.0
C478 C 0.75198 0.75229 0.32228 0.0
O479 O 0.74046 0.77514 0.31273 0.0
O480 O 0.78677 0.77632 0.32915 0.0
C481 C 0.69615 0.80832 0.28676 0.0
O482 O 0.66708 0.78735 0.29536 0.0
C483 C 0.85544 0.84669 0.35257 0.0
C484 C 0.94625 0.87531 0.35393 0.0
C485 C 0.89836 0.86063 0.36035 0.0
N486 N 0.87676 0.85402 0.34208 0.0
N487 N 0.93122 0.87062 0.34295 0.0
C488 C 0.79641 0.82293 0.35487 0.0
H489 H 0.79235 0.7801 0.35076 0.0
H490 H 0.76347 0.85173 0.35103 0.0
H491 H 0.78772 0.81736 0.36402 0.0
C492 C 0.76074 0.96981 0.31097 0.0
N493 N 0.7756 0.91418 0.31298 0.0
N494 N 0.80108 0.91178 0.32298 0.0
C495 C 0.80231 0.96486 0.32764 0.0
C496 C 0.77703 0.00356 0.32024 0.0
C497 C 0.73399 0.99066 0.3002 0.0
H498 H 0.7076 0.95596 0.2963 0.0
H499 H 0.70708 0.02951 0.30179 0.0
H500 H 0.76883 0.00257 0.29419 0.0
O501 O 0.85026 0.81645 0.30046 0.0
O502 O 0.89645 0.81828 0.31696 0.0
H503 H 0.8789 0.96866 0.3377 0.0
H504 H 0.82902 0.02578 0.34068 0.0
C505 C 0.83248 0.97939 0.3385 0.0
H506 H 0.81367 0.95362 0.34549 0.0
H507 H 0.95798 0.8791 0.33605 0.0
O508 O 0.73599 0.84487 0.28872 0.0
C509 C 0.89505 0.80779 0.30639 0.0
Co510 Co 0.88844 0.02232 0.05398 0.0
Co511 Co 0.88759 0.06813 0.07925 0.0
C512 C 0.98295 0.99512 0.07127 0.0
O513 O 0.95975 0.99153 0.0615 0.0
O514 O 0.95787 0.02146 0.07933 0.0
C515 C 0.87424 0.96083 0.02971 0.0
O516 O 0.82352 0.93558 0.02985 0.0
C517 C 0.88951 0.08276 0.10414 0.0
C518 C 0.84218 0.16512 0.10603 0.0
C519 C 0.86852 0.12145 0.11214 0.0
N520 N 0.87454 0.10191 0.09379 0.0
N521 N 0.84701 0.15154 0.09499 0.0
C522 C 0.92681 0.03092 0.10611 0.0
H523 H 0.96564 0.03361 0.10066 0.0
H524 H 0.90266 0.99144 0.10367 0.0
H525 H 0.94119 0.02772 0.11504 0.0
C526 C 0.76257 0.00126 0.06066 0.0
N527 N 0.81847 0.01371 0.06303 0.0
N528 N 0.82166 0.02863 0.0738 0.0
C529 C 0.76926 0.02389 0.07865 0.0
C530 C 0.72964 0.00738 0.07051 0.0
C531 C 0.74087 0.98615 0.04912 0.0
H532 H 0.76186 0.01417 0.0427 0.0
H533 H 0.75273 0.94074 0.04728 0.0
H534 H 0.69321 0.99016 0.04854 0.0
O535 O 0.90543 0.10463 0.05152 0.0
O536 O 0.90424 0.1334 0.06944 0.0
H537 H 0.75313 0.08928 0.091 0.0
H538 H 0.71448 0.02382 0.09361 0.0
C539 C 0.75605 0.04161 0.09058 0.0
H540 H 0.79075 0.02646 0.09631 0.0
H541 H 0.83086 0.17584 0.08825 0.0
O542 O 0.89148 0.98883 0.03835 0.0
C543 C 0.91075 0.14382 0.05896 0.0
Co544 Co 0.79524 0.64067 0.83886 0.0
Co545 Co 0.77327 0.64694 0.81205 0.0
C546 C 0.71928 0.73184 0.82685 0.0
O547 O 0.74589 0.71118 0.83547 0.0
O548 O 0.718 0.70483 0.81746 0.0
C549 C 0.78204 0.6059 0.86392 0.0
O550 O 0.72809 0.5902 0.86236 0.0
C551 C 0.76548 0.69273 0.78898 0.0
C552 C 0.79853 0.6219 0.77835 0.0
C553 C 0.77951 0.67857 0.77785 0.0
N554 N 0.77368 0.64601 0.79562 0.0
N555 N 0.79437 0.60412 0.78919 0.0
C556 C 0.75544 0.75212 0.79357 0.0
H557 H 0.77694 0.75705 0.80191 0.0
H558 H 0.70845 0.7586 0.79474 0.0
H559 H 0.77204 0.7857 0.78771 0.0
C560 C 0.77968 0.51655 0.83391 0.0
N561 N 0.7773 0.57206 0.83054 0.0
N562 N 0.76412 0.57395 0.81966 0.0
C563 C 0.75353 0.51953 0.81606 0.0
C564 C 0.76398 0.48131 0.82492 0.0
C565 C 0.80464 0.49738 0.845 0.0
H566 H 0.83983 0.52697 0.84762 0.0
H567 H 0.77044 0.49809 0.85156 0.0
H568 H 0.82208 0.45285 0.84442 0.0
O569 O 0.8691 0.66749 0.8337 0.0
O570 O 0.84875 0.68128 0.81555 0.0
H571 H 0.76304 0.48476 0.79937 0.0
H572 H 0.69439 0.47144 0.80575 0.0
C573 C 0.72894 0.50428 0.80473 0.0
H574 H 0.71091 0.54304 0.8005 0.0
H575 H 0.80984 0.56497 0.79226 0.0
O576 O 0.81056 0.62644 0.8556 0.0
C577 C 0.88227 0.68674 0.82399 0.0
Co578 Co 0.60735 0.5294 0.08965 0.0
Co579 Co 0.59209 0.53405 0.06253 0.0
C580 C 0.50867 0.47026 0.07724 0.0
O581 O 0.53282 0.48603 0.0865 0.0
O582 O 0.53129 0.48114 0.06767 0.0
C583 C 0.6069 0.55737 0.11386 0.0
O584 O 0.55827 0.5831 0.11114 0.0
C585 C 0.54514 0.5226 0.03924 0.0
C586 C 0.59686 0.58655 0.02982 0.0
C587 C 0.55113 0.54851 0.02867 0.0
N588 N 0.58669 0.54305 0.04621 0.0
N589 N 0.61688 0.58179 0.0405 0.0
C590 C 0.49461 0.48786 0.04323 0.0
H591 H 0.47469 0.50942 0.05064 0.0
H592 H 0.50995 0.44456 0.04585 0.0
H593 H 0.46078 0.48331 0.03664 0.0
C594 C 0.72692 0.50364 0.08242 0.0
N595 N 0.67076 0.51052 0.07973 0.0
N596 N 0.66594 0.51453 0.06861 0.0
C597 C 0.71908 0.5108 0.06394 0.0
C598 C 0.75982 0.50505 0.07257 0.0
C599 C 0.74835 0.49609 0.09428 0.0
H600 H 0.71956 0.4659 0.09889 0.0
H601 H 0.79311 0.47894 0.09444 0.0
H602 H 0.74716 0.53838 0.09868 0.0
O603 O 0.58515 0.60973 0.08684 0.0
O604 O 0.57009 0.60918 0.06829 0.0
H605 H 0.7349 0.56699 0.05001 0.0
H606 H 0.77162 0.49963 0.04884 0.0
C607 C 0.73088 0.52004 0.05161 0.0
H608 H 0.695 0.50232 0.04647 0.0
H609 H 0.64876 0.60785 0.04407 0.0
O610 O 0.63317 0.52844 0.10622 0.0
C611 C 0.56904 0.63476 0.0778 0.0
Co612 Co 0.70448 0.3465 0.34087 0.0
Co613 Co 0.71396 0.33655 0.31382 0.0
C614 C 0.77127 0.25195 0.3278 0.0
O615 O 0.74896 0.27393 0.33675 0.0
O616 O 0.7717 0.27955 0.31849 0.0
C617 C 0.73747 0.38784 0.3642 0.0
O618 O 0.78863 0.40031 0.36006 0.0
C619 C 0.71768 0.29122 0.29048 0.0
C620 C 0.67066 0.3575 0.28076 0.0
C621 C 0.6962 0.30363 0.27973 0.0
N622 N 0.70638 0.33613 0.29744 0.0
N623 N 0.67763 0.37522 0.29155 0.0
C624 C 0.73945 0.23406 0.29457 0.0
H625 H 0.71976 0.22372 0.30288 0.0
H626 H 0.78698 0.2365 0.29565 0.0
H627 H 0.72897 0.19877 0.28856 0.0
C628 C 0.71831 0.4701 0.33492 0.0
N629 N 0.71909 0.41395 0.33189 0.0
N630 N 0.72615 0.4104 0.3208 0.0
C631 C 0.73342 0.46427 0.31663 0.0
C632 C 0.72761 0.50369 0.32541 0.0
C633 C 0.70133 0.492 0.34637 0.0
H634 H 0.66979 0.46238 0.35036 0.0
H635 H 0.74033 0.49531 0.35178 0.0
H636 H 0.68173 0.53563 0.34578 0.0
O637 O 0.62765 0.32069 0.3373 0.0
O638 O 0.64031 0.30338 0.31894 0.0
H639 H 0.71117 0.49416 0.30003 0.0
H640 H 0.78232 0.51315 0.30454 0.0
C641 C 0.7496 0.47811 0.30467 0.0
H642 H 0.76713 0.43942 0.30034 0.0
H643 H 0.65922 0.41229 0.29504 0.0
O644 O 0.70029 0.36386 0.35776 0.0
C645 C 0.61059 0.29959 0.32796 0.0
Co646 Co 0.94497 0.44361 0.59154 0.0
Co647 Co 0.95172 0.4657 0.56471 0.0
C648 C 0.03737 0.51822 0.57959 0.0
O649 O 0.01549 0.49313 0.58827 0.0
O650 O 0.01079 0.51932 0.57015 0.0
C651 C 0.90143 0.46084 0.61549 0.0
O652 O 0.88376 0.51249 0.61248 0.0
C653 C 0.99321 0.4768 0.54128 0.0
C654 C 0.92353 0.4358 0.5314 0.0
C655 C 0.97813 0.45967 0.53037 0.0
N656 N 0.94882 0.46529 0.54834 0.0
N657 N 0.90763 0.44013 0.54234 0.0
C658 C 0.05227 0.49319 0.54532 0.0
H659 H 0.05336 0.54037 0.54688 0.0
H660 H 0.08598 0.4819 0.53903 0.0
H661 H 0.06207 0.47072 0.5534 0.0
C662 C 0.82042 0.45631 0.58609 0.0
N663 N 0.87639 0.46071 0.58304 0.0
N664 N 0.87914 0.47536 0.57226 0.0
C665 C 0.825 0.4852 0.56842 0.0
C666 C 0.78598 0.47264 0.57701 0.0
C667 C 0.80006 0.42746 0.59672 0.0
H668 H 0.83195 0.39479 0.59955 0.0
H669 H 0.79457 0.46012 0.60349 0.0
H670 H 0.75773 0.40604 0.59536 0.0
O671 O 0.97339 0.37027 0.58638 0.0
O672 O 0.98427 0.38938 0.56805 0.0
H673 H 0.79208 0.47643 0.55155 0.0
H674 H 0.77733 0.5444 0.55807 0.0
C675 C 0.81067 0.5103 0.55709 0.0
H676 H 0.84968 0.52898 0.55307 0.0
H677 H 0.87062 0.42175 0.54583 0.0
O678 O 0.92851 0.42989 0.6083 0.0
C679 C 0.99112 0.35668 0.57658 0.0
Co680 Co 0.79199 0.35087 0.6823 0.0
Co681 Co 0.77929 0.33747 0.70944 0.0
C682 C 0.74454 0.24336 0.69364 0.0
O683 O 0.76079 0.27028 0.68472 0.0
O684 O 0.74476 0.26728 0.70332 0.0
C685 C 0.84089 0.35774 0.6595 0.0
O686 O 0.87704 0.31969 0.66373 0.0
C687 C 0.76715 0.28762 0.73237 0.0
C688 C 0.79959 0.3578 0.74328 0.0
C689 C 0.78048 0.30117 0.74356 0.0
N690 N 0.77625 0.3347 0.72586 0.0
N691 N 0.79624 0.3762 0.73248 0.0
C692 C 0.75703 0.22843 0.72767 0.0
H693 H 0.71237 0.22585 0.72431 0.0
H694 H 0.76341 0.19433 0.73414 0.0
H695 H 0.78756 0.22025 0.72062 0.0
C696 C 0.74246 0.46369 0.68796 0.0
N697 N 0.75528 0.4094 0.69114 0.0
N698 N 0.7486 0.40462 0.70222 0.0
C699 C 0.72909 0.45547 0.70628 0.0
C700 C 0.72551 0.49471 0.69743 0.0
C701 C 0.75544 0.4873 0.67644 0.0
H702 H 0.80046 0.47621 0.67409 0.0
H703 H 0.72592 0.46689 0.67021 0.0
H704 H 0.7504 0.53481 0.67602 0.0
O705 O 0.87072 0.34476 0.68755 0.0
O706 O 0.86171 0.33068 0.70605 0.0
H707 H 0.75212 0.48743 0.72264 0.0
H708 H 0.67797 0.49811 0.71893 0.0
C709 C 0.71453 0.46721 0.71839 0.0
H710 H 0.70281 0.42664 0.7228 0.0
H711 H 0.81168 0.41569 0.72954 0.0
O712 O 0.79852 0.37429 0.66564 0.0
C713 C 0.8926 0.33457 0.6972 0.0
Co714 Co 0.89755 0.5327 0.93179 0.0
Co715 Co 0.91295 0.54075 0.95883 0.0
C716 C -0.00116 0.47921 0.94415 0.0
O717 O 0.97297 0.49142 0.93486 0.0
O718 O 0.9777 0.49282 0.95373 0.0
C719 C 0.893 0.56543 0.9081 0.0
O720 O 0.93641 0.59805 0.91131 0.0
C721 C 0.94946 0.52014 0.98255 0.0
C722 C 0.92261 0.602 0.99052 0.0
C723 C 0.95423 0.55225 0.99251 0.0
N724 N 0.91761 0.55029 0.97502 0.0
N725 N 0.90161 0.59905 0.97991 0.0
C726 C 0.97453 0.46209 0.98008 0.0
H727 H 0.94599 0.4381 0.97417 0.0
H728 H 0.98059 0.43694 0.988 0.0
H729 H 0.01694 0.4679 0.97589 0.0
C730 C 0.77946 0.50317 0.93927 0.0
N731 N 0.83567 0.51106 0.94178 0.0
N732 N 0.84094 0.51731 0.95285 0.0
C733 C 0.7882 0.51578 0.95764 0.0
C734 C 0.74721 0.50658 0.94919 0.0
C735 C 0.75707 0.49556 0.92746 0.0
H736 H 0.78679 0.46743 0.92258 0.0
H737 H 0.71331 0.47604 0.92746 0.0
H738 H 0.7552 0.53826 0.92322 0.0
O739 O 0.91586 0.61437 0.93455 0.0
O740 O 0.9283 0.61719 0.95318 0.0
H741 H 0.79631 0.57764 0.9709 0.0
H742 H 0.73077 0.5371 0.97167 0.0
C743 C 0.77734 0.53431 0.96961 0.0
H744 H 0.79917 0.50399 0.9755 0.0
H745 H 0.87927 0.63204 0.97579 0.0
O746 O 0.87128 0.53056 0.91531 0.0
C747 C 0.92783 0.64161 0.94359 0.0
Co748 Co 0.68158 0.64027 0.18363 0.0
Co749 Co 0.69016 0.64435 0.21094 0.0
C750 C 0.73834 0.73819 0.19639 0.0
O751 O 0.72451 0.71494 0.18692 0.0
O752 O 0.73005 0.71283 0.20576 0.0
C753 C 0.70398 0.60856 0.15889 0.0
O754 O 0.75917 0.60251 0.16119 0.0
C755 C 0.71365 0.68219 0.23442 0.0
C756 C 0.65766 0.62344 0.24417 0.0
C757 C 0.69238 0.67185 0.24526 0.0
N758 N 0.69226 0.64192 0.22729 0.0
N759 N 0.65884 0.60699 0.23323 0.0
C760 C 0.75244 0.73051 0.23085 0.0
H761 H 0.78452 0.71448 0.22463 0.0
H762 H 0.77563 0.74927 0.23821 0.0
H763 H 0.7262 0.76474 0.22675 0.0
C764 C 0.71099 0.51808 0.18873 0.0
N765 N 0.70637 0.57365 0.19204 0.0
N766 N 0.71309 0.57621 0.20315 0.0
C767 C 0.72481 0.52294 0.20711 0.0
C768 C 0.72275 0.48416 0.19814 0.0
C769 C 0.69555 0.49665 0.17715 0.0
H770 H 0.65829 0.52127 0.17379 0.0
H771 H 0.73302 0.50267 0.17143 0.0
H772 H 0.68411 0.45016 0.17726 0.0
O773 O 0.60427 0.65934 0.18877 0.0
O774 O 0.60956 0.66162 0.20752 0.0
H775 H 0.69802 0.50108 0.2239 0.0
H776 H 0.76637 0.47076 0.21984 0.0
C777 C 0.73854 0.50966 0.21922 0.0
H778 H 0.76057 0.54697 0.22323 0.0
H779 H 0.63365 0.57426 0.2297 0.0
O780 O 0.66969 0.62434 0.16677 0.0
C781 C 0.58128 0.66804 0.19839 0.0
Co782 Co 0.62027 0.43841 0.43257 0.0
Co783 Co 0.61163 0.448 0.45959 0.0
C784 C 0.52755 0.50936 0.44541 0.0
O785 O 0.54918 0.48727 0.43639 0.0
O786 O 0.55279 0.50424 0.45494 0.0
C787 C 0.66301 0.46776 0.40916 0.0
O788 O 0.67758 0.51866 0.41314 0.0
C789 C 0.5695 0.45036 0.4832 0.0
C790 C 0.63844 0.40403 0.49233 0.0
C791 C 0.58421 0.42826 0.49379 0.0
N792 N 0.61346 0.44058 0.47592 0.0
N793 N 0.65415 0.41223 0.48146 0.0
C794 C 0.51125 0.47155 0.47959 0.0
H795 H 0.50066 0.45498 0.47103 0.0
H796 H 0.51202 0.51935 0.47929 0.0
H797 H 0.47699 0.45756 0.48555 0.0
C798 C 0.74498 0.45046 0.43848 0.0
N799 N 0.68869 0.45227 0.44145 0.0
N800 N 0.68511 0.46117 0.45247 0.0
C801 C 0.73891 0.46958 0.45663 0.0
C802 C 0.77884 0.46174 0.44794 0.0
C803 C 0.76653 0.43045 0.42718 0.0
H804 H 0.73566 0.39956 0.42335 0.0
H805 H 0.77172 0.46818 0.4215 0.0
H806 H 0.80923 0.40905 0.42801 0.0
O807 O 0.59327 0.36228 0.43637 0.0
O808 O 0.5799 0.37296 0.45483 0.0
H809 H 0.76642 0.45511 0.47376 0.0
H810 H 0.78665 0.52365 0.46807 0.0
C811 C 0.75149 0.49109 0.46833 0.0
H812 H 0.71223 0.51048 0.47215 0.0
H813 H 0.69082 0.39467 0.47767 0.0
O814 O 0.63757 0.43214 0.4157 0.0
C815 C 0.57532 0.34341 0.44581 0.0
Co816 Co 0.20784 0.35624 0.21825 0.0
Co817 Co 0.16958 0.35796 0.19278 0.0
C818 C 0.24475 0.26875 0.19935 0.0
O819 O 0.23836 0.28784 0.2094 0.0
O820 O 0.22769 0.29808 0.19089 0.0
C821 C 0.23214 0.29576 0.23697 0.0
O822 O 0.20203 0.26257 0.23016 0.0
C823 C 0.14963 0.367 0.16822 0.0
C824 C 0.05766 0.39295 0.16776 0.0
C825 C 0.10456 0.3804 0.16095 0.0
N826 N 0.13043 0.37243 0.1789 0.0
N827 N 0.07546 0.38785 0.17857 0.0
C828 C 0.20837 0.34478 0.16522 0.0
H829 H 0.21137 0.29877 0.16773 0.0
H830 H 0.24167 0.36874 0.17008 0.0
H831 H 0.21718 0.34804 0.15601 0.0
C832 C 0.22409 0.48446 0.21283 0.0
N833 N 0.21376 0.42863 0.21006 0.0
N834 N 0.19887 0.42678 0.19927 0.0
C835 C 0.20076 0.4802 0.19482 0.0
C836 C 0.21627 0.51884 0.20321 0.0
C837 C 0.23781 0.50481 0.22453 0.0
H838 H 0.26097 0.47059 0.2293 0.0
H839 H 0.26403 0.54492 0.22425 0.0
H840 H 0.19684 0.5144 0.22903 0.0
O841 O 0.12598 0.33761 0.2206 0.0
O842 O 0.11164 0.32059 0.20237 0.0
H843 H 0.13513 0.48809 0.18219 0.0
H844 H 0.19197 0.53996 0.18068 0.0
C845 C 0.18236 0.49464 0.18298 0.0
H846 H 0.20458 0.46566 0.17693 0.0
H847 H 0.04994 0.39435 0.18574 0.0
O848 O 0.24314 0.3474 0.23379 0.0
C849 C 0.09645 0.31569 0.21266 0.0
Co850 Co 0.40014 0.45779 0.96767 0.0
Co851 Co 0.41456 0.42819 0.94183 0.0
C852 C 0.49689 0.50263 0.95192 0.0
O853 O 0.47179 0.49199 0.96127 0.0
O854 O 0.47332 0.4894 0.94253 0.0
C855 C 0.42111 0.53108 0.98659 0.0
O856 O 0.43897 0.56725 0.97878 0.0
C857 C 0.41274 0.42089 0.91681 0.0
C858 C 0.40652 0.32639 0.91438 0.0
C859 C 0.40915 0.37819 0.90859 0.0
N860 N 0.41126 0.39537 0.92703 0.0
N861 N 0.40787 0.33892 0.9255 0.0
C862 C 0.42146 0.48428 0.91506 0.0
H863 H 0.45938 0.49882 0.92005 0.0
H864 H 0.38333 0.50816 0.91828 0.0
H865 H 0.42844 0.49488 0.906 0.0
C866 C 0.27676 0.47047 0.96008 0.0
N867 N 0.33363 0.46313 0.95799 0.0
N868 N 0.34029 0.44982 0.94721 0.0
C869 C 0.28812 0.44779 0.94215 0.0
C870 C 0.24593 0.46079 0.95009 0.0
C871 C 0.25281 0.48478 0.9715 0.0
H872 H 0.2818 0.5157 0.97589 0.0
H873 H 0.20869 0.50324 0.97082 0.0
H874 H 0.25099 0.44487 0.97668 0.0
O875 O 0.42379 0.37698 0.96941 0.0
O876 O 0.4479 0.36756 0.95133 0.0
H877 H 0.29872 0.38336 0.92934 0.0
H878 H 0.23189 0.42197 0.92825 0.0
C879 C 0.27836 0.42631 0.93032 0.0
H880 H 0.29864 0.4564 0.92422 0.0
H881 H 0.40638 0.30886 0.93208 0.0
O882 O 0.39352 0.48612 0.98356 0.0
C883 C 0.44954 0.3501 0.96152 0.0
Co884 Co 0.27236 0.66962 0.71384 0.0
Co885 Co 0.33016 0.66903 0.68965 0.0
C886 C 0.24777 0.7569 0.69429 0.0
O887 O 0.24588 0.73755 0.70439 0.0
O888 O 0.27313 0.72864 0.68654 0.0
C889 C 0.23966 0.72917 0.73212 0.0
O890 O 0.26965 0.76336 0.72549 0.0
C891 C 0.36741 0.65961 0.6656 0.0
C892 C 0.45946 0.63709 0.66787 0.0
C893 C 0.41788 0.64746 0.65969 0.0
N894 N 0.37861 0.65588 0.67677 0.0
N895 N 0.4338 0.64264 0.67803 0.0
C896 C 0.31028 0.67692 0.66069 0.0
H897 H 0.28397 0.63769 0.65915 0.0
H898 H 0.31615 0.69991 0.65253 0.0
H899 H 0.28626 0.705 0.66659 0.0
C900 C 0.26038 0.54195 0.70778 0.0
N901 N 0.27349 0.59766 0.70545 0.0
N902 N 0.29731 0.59959 0.6953 0.0
C903 C 0.29897 0.54617 0.69082 0.0
C904 C 0.276 0.50759 0.69853 0.0
C905 C 0.23604 0.52181 0.71881 0.0
H906 H 0.27214 0.51264 0.72473 0.0
H907 H 0.20869 0.55606 0.72261 0.0
H908 H 0.21069 0.48158 0.71763 0.0
O909 O 0.35148 0.68889 0.71826 0.0
O910 O 0.3805 0.7068 0.70074 0.0
H911 H 0.37405 0.54099 0.68036 0.0
H912 H 0.32197 0.48569 0.67744 0.0
C913 C 0.3272 0.53171 0.67976 0.0
H914 H 0.30847 0.55893 0.67298 0.0
H915 H 0.45406 0.63755 0.68587 0.0
O916 O 0.23057 0.67729 0.72882 0.0
C917 C 0.38687 0.71119 0.71139 0.0
Co918 Co 0.11963 0.53117 0.4675 0.0
Co919 Co 0.11243 0.57658 0.4424 0.0
C920 C 0.02851 0.49157 0.45013 0.0
O921 O 0.05036 0.49372 0.46006 0.0
O922 O 0.0532 0.51617 0.4418 0.0
C923 C 0.09596 0.45999 0.48678 0.0
O924 O 0.07233 0.4259 0.47919 0.0
C925 C 0.11468 0.58735 0.41765 0.0
C926 C 0.1189 0.68206 0.41548 0.0
C927 C 0.11536 0.63064 0.40956 0.0
N928 N 0.11814 0.61208 0.42792 0.0
N929 N 0.12092 0.66866 0.42656 0.0
C930 C 0.1052 0.5242 0.41581 0.0
H931 H 0.12771 0.49902 0.42248 0.0
H932 H 0.12015 0.51051 0.4073 0.0
H933 H 0.05827 0.515 0.41646 0.0
C934 C 0.24591 0.52205 0.46064 0.0
N935 N 0.18949 0.53242 0.45842 0.0
N936 N 0.18521 0.55162 0.44794 0.0
C937 C 0.23816 0.55405 0.44321 0.0
C938 C 0.27881 0.5355 0.45105 0.0
C939 C 0.26766 0.50034 0.47178 0.0
H940 H 0.23671 0.46864 0.47535 0.0
H941 H 0.31097 0.48029 0.47088 0.0
H942 H 0.27073 0.53706 0.47779 0.0
O943 O 0.09125 0.61002 0.47019 0.0
O944 O 0.07707 0.63438 0.45224 0.0
H945 H 0.23112 0.62286 0.43122 0.0
H946 H 0.2968 0.58213 0.42991 0.0
C947 C 0.24996 0.57897 0.43173 0.0
H948 H 0.22907 0.55171 0.42519 0.0
H949 H 0.1228 0.69822 0.43323 0.0
O950 O 0.12692 0.50193 0.48338 0.0
C951 C 0.07125 0.6441 0.46276 0.0
Co952 Co 0.2139 0.65428 0.30472 0.0
Co953 Co 0.14628 0.64774 0.32801 0.0
C954 C 0.21942 0.74944 0.32176 0.0
O955 O 0.2375 0.72629 0.31264 0.0
O956 O 0.18512 0.72272 0.3283 0.0
C957 C 0.28507 0.64556 0.28102 0.0
O958 O 0.31403 0.5969 0.28049 0.0
C959 C 0.13378 0.64261 0.35277 0.0
C960 C 0.0445 0.61022 0.35467 0.0
C961 C 0.09327 0.62562 0.36076 0.0
N962 N 0.11063 0.63568 0.34241 0.0
N963 N 0.05703 0.61695 0.34362 0.0
C964 C 0.19255 0.66751 0.35485 0.0
H965 H 0.19876 0.70637 0.34953 0.0
H966 H 0.22588 0.63555 0.35235 0.0
H967 H 0.19866 0.6796 0.36386 0.0
C968 C 0.24398 0.53265 0.3124 0.0
N969 N 0.22167 0.58592 0.31409 0.0
N970 N 0.1952 0.58606 0.32399 0.0
C971 C 0.20037 0.5339 0.3289 0.0
C972 C 0.23166 0.49834 0.32181 0.0
C973 C 0.27297 0.51414 0.3017 0.0
H974 H 0.24437 0.52373 0.29439 0.0
H975 H 0.31319 0.53953 0.30061 0.0
H976 H 0.28374 0.46746 0.30183 0.0
O977 O 0.13234 0.66762 0.30068 0.0
O978 O 0.08477 0.65492 0.31683 0.0
H979 H 0.12146 0.52472 0.33815 0.0
H980 H 0.17276 0.4688 0.34108 0.0
C981 C 0.16802 0.51549 0.33929 0.0
H982 H 0.18426 0.53987 0.3467 0.0
H983 H 0.02923 0.60808 0.33688 0.0
O984 O 0.25459 0.6563 0.28974 0.0
C985 C 0.08551 0.66541 0.30627 0.0
Co986 Co 0.10463 0.44618 0.05312 0.0
Co987 Co 0.09313 0.41982 0.07902 0.0
C988 C 0.01015 0.4932 0.06959 0.0
O989 O 0.0329 0.47912 0.06017 0.0
O990 O 0.03586 0.48248 0.07887 0.0
C991 C 0.0778 0.5225 0.03526 0.0
O992 O 0.06005 0.55379 0.04385 0.0
C993 C 0.09441 0.41136 0.1039 0.0
C994 C 0.10671 0.31738 0.10623 0.0
C995 C 0.10035 0.36874 0.11206 0.0
N996 N 0.09815 0.38629 0.09367 0.0
N997 N 0.10517 0.33014 0.09512 0.0
C998 C 0.08101 0.47394 0.10565 0.0
H999 H 0.11377 0.50072 0.10125 0.0
H1000 H 0.07935 0.48549 0.11476 0.0
H1001 H 0.03852 0.4838 0.10175 0.0
C1002 C 0.22996 0.45925 0.06034 0.0
N1003 N 0.17303 0.45206 0.06251 0.0
N1004 N 0.16686 0.44075 0.07338 0.0
C1005 C 0.21907 0.44027 0.07844 0.0
C1006 C 0.26116 0.45188 0.0704 0.0
C1007 C 0.25374 0.4715 0.04882 0.0
H1008 H 0.25681 0.43044 0.04402 0.0
H1009 H 0.22403 0.50055 0.04413 0.0
H1010 H 0.29737 0.4912 0.04938 0.0
O1011 O 0.08106 0.36516 0.05142 0.0
O1012 O 0.05753 0.35993 0.06959 0.0
H1013 H 0.21189 0.37787 0.09169 0.0
H1014 H 0.27508 0.42188 0.09285 0.0
C1015 C 0.22881 0.42213 0.09048 0.0
H1016 H 0.20512 0.45161 0.09622 0.0
H1017 H 0.10893 0.3005 0.0885 0.0
O1018 O 0.1079 0.47762 0.03726 0.0
C1019 C 0.05473 0.3406 0.05954 0.0
Co1020 Co 0.28315 0.34724 0.80329 0.0
Co1021 Co 0.33583 0.35966 0.82799 0.0
C1022 C 0.26569 0.25891 0.82243 0.0
O1023 O 0.25813 0.27918 0.81252 0.0
O1024 O 0.29361 0.28701 0.82989 0.0
C1025 C 0.2584 0.28417 0.7848 0.0
O1026 O 0.29122 0.2525 0.79141 0.0
C1027 C 0.35624 0.3708 0.85255 0.0
C1028 C 0.44175 0.41336 0.85281 0.0
C1029 C 0.39892 0.39133 0.85972 0.0
N1030 N 0.37278 0.38087 0.84182 0.0
N1031 N 0.4239 0.40633 0.84204 0.0
C1032 C 0.30275 0.33842 0.85571 0.0
H1033 H 0.31167 0.29146 0.85511 0.0
H1034 H 0.26737 0.34874 0.8497 0.0
H1035 H 0.28917 0.34829 0.86451 0.0
C1036 C 0.25492 0.47268 0.80848 0.0
N1037 N 0.27248 0.41901 0.8114 0.0
N1038 N 0.29054 0.42046 0.822 0.0
C1039 C 0.2831 0.47375 0.82625 0.0
C1040 C 0.26164 0.50933 0.81783 0.0
C1041 C 0.2383 0.48939 0.79669 0.0
H1042 H 0.26004 0.46079 0.79047 0.0
H1043 H 0.19096 0.48395 0.79567 0.0
H1044 H 0.24944 0.53517 0.79498 0.0
O1045 O 0.36544 0.3352 0.80025 0.0
O1046 O 0.39966 0.34234 0.81773 0.0
H1047 H 0.34322 0.49752 0.83921 0.0
H1048 H 0.27287 0.53015 0.84074 0.0
C1049 C 0.29612 0.49025 0.83825 0.0
H1050 H 0.28279 0.45503 0.84402 0.0
H1051 H 0.44697 0.41824 0.83482 0.0
O1052 O 0.24585 0.33543 0.788 0.0
C1053 C 0.40707 0.33359 0.80721 0.0
Co1054 Co 0.44331 0.51658 0.55539 0.0
Co1055 Co 0.45162 0.5765 0.57918 0.0
C1056 C 0.53597 0.4908 0.57346 0.0
O1057 O 0.51559 0.48845 0.56342 0.0
O1058 O 0.50826 0.51605 0.58128 0.0
C1059 C 0.47145 0.43618 0.53782 0.0
O1060 O 0.50057 0.41099 0.54598 0.0
C1061 C 0.44435 0.59863 0.6035 0.0
C1062 C 0.45323 0.69354 0.60433 0.0
C1063 C 0.44713 0.64465 0.61096 0.0
N1064 N 0.44832 0.61929 0.59291 0.0
N1065 N 0.45376 0.67604 0.59345 0.0
C1066 C 0.44239 0.53577 0.60638 0.0
H1067 H 0.4343 0.50948 0.59868 0.0
H1068 H 0.40815 0.52713 0.61271 0.0
H1069 H 0.4843 0.52289 0.61018 0.0
C1070 C 0.31748 0.5096 0.56303 0.0
N1071 N 0.37406 0.52179 0.56472 0.0
N1072 N 0.37897 0.54818 0.57458 0.0
C1073 C 0.32652 0.55359 0.57939 0.0
C1074 C 0.2857 0.52896 0.57234 0.0
C1075 C 0.29403 0.4823 0.55252 0.0
H1076 H 0.28371 0.51668 0.5463 0.0
H1077 H 0.32674 0.45318 0.54871 0.0
H1078 H 0.25378 0.45809 0.5544 0.0
O1079 O 0.46633 0.59418 0.55057 0.0
O1080 O 0.485 0.62788 0.5678 0.0
H1081 H 0.33803 0.62902 0.58969 0.0
H1082 H 0.26794 0.59637 0.59105 0.0
C1083 C 0.31466 0.58733 0.58997 0.0
H1084 H 0.32989 0.56243 0.5974 0.0
H1085 H 0.45845 0.70277 0.5864 0.0
O1086 O 0.4366 0.47671 0.54036 0.0
C1087 C 0.48774 0.632 0.55709 0.0
C1088 C 0.47804 0.22278 0.31736 0.0
C1089 C 0.45877 0.19326 0.32707 0.0
C1090 C 0.52729 0.25731 0.31772 0.0
C1091 C 0.5587 0.26363 0.32781 0.0
H1092 H 0.4535 0.22165 0.30954 0.0
H1093 H 0.53992 0.28044 0.31014 0.0
S1094 S 0.53289 0.18694 0.35494 0.0
N1095 N 0.47953 0.16628 0.3466 0.0
N1096 N 0.57222 0.2317 0.34729 0.0
C1097 C 0.54226 0.23147 0.33737 0.0
C1098 C 0.49237 0.19591 0.33698 0.0
C1099 C 0.02028 0.27241 0.565 0.0
C1100 C 0.02394 0.30342 0.57518 0.0
C1101 C 0.04639 0.21841 0.564 0.0
C1102 C 0.07692 0.19426 0.57316 0.0
H1103 H 0.99431 0.28834 0.55803 0.0
H1104 H 0.03846 0.19373 0.55636 0.0
S1105 S 0.11235 0.26633 0.60036 0.0
N1106 N 0.06968 0.31218 0.59368 0.0
N1107 N 0.11957 0.21062 0.59175 0.0
C1108 C 0.0867 0.22816 0.58284 0.0
C1109 C 0.05964 0.28277 0.5839 0.0
C1110 C 0.95131 0.75449 0.83277 0.0
C1111 C 0.93225 0.72518 0.82305 0.0
C1112 C -0.00347 0.79383 0.83222 0.0
C1113 C 0.02501 0.80484 0.82195 0.0
H1114 H 0.93109 0.74726 0.84093 0.0
H1115 H 0.01068 0.81403 0.84003 0.0
S1116 S 0.98894 0.74171 0.79386 0.0
N1117 N 0.94247 0.71197 0.80271 0.0
N1118 N 0.02885 0.78555 0.80163 0.0
C1119 C 0.00478 0.77766 0.81202 0.0
C1120 C 0.95823 0.73768 0.81259 0.0
C1121 C 0.48596 0.766 0.06844 0.0
C1122 C 0.46895 0.79104 0.07873 0.0
C1123 C 0.52101 0.7172 0.06825 0.0
C1124 C 0.54045 0.69145 0.07836 0.0
H1125 H 0.47168 0.78382 0.06042 0.0
H1126 H 0.53166 0.69883 0.06008 0.0
S1127 S 0.51274 0.744 0.10759 0.0
N1128 N 0.47738 0.78927 0.09932 0.0
N1129 N 0.54349 0.69716 0.09897 0.0
C1130 C 0.52564 0.71739 0.08874 0.0
C1131 C 0.4896 0.7671 0.08893 0.0
C1132 C 0.50032 0.71588 0.18844 0.0
C1133 C 0.52533 0.69822 0.19873 0.0
C1134 C 0.45472 0.75485 0.18824 0.0
C1135 C 0.43146 0.77715 0.19831 0.0
H1136 H 0.51731 0.70127 0.18039 0.0
H1137 H 0.43742 0.76715 0.18006 0.0
S1138 S 0.47727 0.74078 0.22759 0.0
N1139 N 0.52096 0.70321 0.21936 0.0
N1140 N 0.43399 0.77629 0.21893 0.0
C1141 C 0.45409 0.75811 0.20872 0.0
C1142 C 0.50113 0.71851 0.20894 0.0
C1143 C 0.50259 0.28026 0.45513 0.0
C1144 C 0.54007 0.29065 0.44595 0.0
C1145 C 0.46283 0.23498 0.45482 0.0
C1146 C 0.45886 0.19902 0.44529 0.0
H1147 H 0.50287 0.30807 0.46251 0.0
H1148 H 0.43485 0.22824 0.46205 0.0
S1149 S 0.55162 0.20373 0.41963 0.0
N1150 N 0.57386 0.25827 0.42748 0.0
N1151 N 0.49875 0.17343 0.42685 0.0
C1152 C 0.49706 0.2079 0.43618 0.0
C1153 C 0.53789 0.25357 0.43654 0.0
C1154 C 0.01788 0.24077 0.70523 0.0
C1155 C 0.05199 0.24379 0.69545 0.0
C1156 C 0.96843 0.27481 0.70627 0.0
C1157 C 0.95213 0.31312 0.69757 0.0
H1158 H 0.02826 0.21046 0.71192 0.0
H1159 H 0.94112 0.26832 0.71361 0.0
S1160 S 0.035 0.34605 0.67147 0.0
N1161 N 0.07182 0.29414 0.67776 0.0
N1162 N 0.97917 0.35888 0.67978 0.0
C1163 C 0.989 0.3202 0.68823 0.0
C1164 C 0.0388 0.28508 0.68712 0.0
C1165 C 0.01486 0.76847 0.93377 0.0
C1166 C 0.01274 0.8055 0.94321 0.0
C1167 C 0.98388 0.71688 0.93362 0.0
C1168 C 0.95007 0.70052 0.94294 0.0
H1169 H 0.04123 0.77886 0.92647 0.0
H1170 H 0.98862 0.68848 0.92638 0.0
S1171 S 0.92429 0.78463 0.96918 0.0
N1172 N 0.96985 0.82415 0.96176 0.0
N1173 N 0.9119 0.72672 0.96142 0.0
C1174 C 0.94545 0.73803 0.95222 0.0
C1175 C 0.97685 0.79061 0.95239 0.0
C1176 C 0.4739 0.73854 0.72254 0.0
C1177 C 0.42797 0.75409 0.71546 0.0
C1178 C 0.52141 0.77551 0.72373 0.0
C1179 C 0.52375 0.82804 0.71771 0.0
H1180 H 0.47568 0.69579 0.72624 0.0
H1181 H 0.55928 0.7594 0.72811 0.0
S1182 S 0.40602 0.89407 0.70091 0.0
N1183 N 0.38109 0.82999 0.70459 0.0
N1184 N 0.47095 0.89895 0.70665 0.0
C1185 C 0.47408 0.84732 0.71209 0.0
C1186 C 0.42599 0.81004 0.71092 0.0
C1187 C 0.97117 0.67734 0.46137 0.0
C1188 C 0.02658 0.68551 0.46596 0.0
C1189 C 0.92996 0.72106 0.4618 0.0
C1190 C 0.94298 0.77435 0.46682 0.0
H1191 H 0.96097 0.63824 0.45673 0.0
H1192 H 0.88961 0.71501 0.45729 0.0
S1193 S 0.07887 0.81312 0.48168 0.0
N1194 N 0.09014 0.74685 0.47698 0.0
N1195 N 0.0124 0.83021 0.47781 0.0
C1196 C 0.99606 0.78068 0.47255 0.0
C1197 C 0.03823 0.73584 0.47207 0.0
C1198 C 0.00617 0.18265 0.20969 0.0
C1199 C 0.9585 0.19444 0.21664 0.0
C1200 C 0.05188 0.22139 0.20896 0.0
C1201 C 0.05172 0.27302 0.21521 0.0
H1202 H 0.006 0.14554 0.20409 0.0
H1203 H 0.08644 0.21206 0.20303 0.0
S1204 S 0.94233 0.31899 0.23616 0.0
N1205 N 0.91722 0.2575 0.23104 0.0
N1206 N 0.0048 0.33023 0.22976 0.0
C1207 C 0.00769 0.28246 0.22312 0.0
C1208 C 0.96057 0.24294 0.22383 0.0
C1209 C 0.50862 0.20997 0.97312 0.0
C1210 C 0.55785 0.20228 0.96628 0.0
C1211 C 0.47475 0.25996 0.97212 0.0
C1212 C 0.48922 0.30264 0.96417 0.0
H1213 H 0.49313 0.17508 0.97842 0.0
H1214 H 0.43502 0.26316 0.97692 0.0
S1215 S 0.62153 0.30828 0.94644 0.0
N1216 N 0.62523 0.24562 0.95305 0.0
N1217 N 0.56137 0.33882 0.95093 0.0
C1218 C 0.54176 0.29797 0.95826 0.0
C1219 C 0.57637 0.24793 0.95942 0.0
C1220 C 0.50659 0.21505 0.79893 0.0
C1221 C 0.55493 0.2293 0.80549 0.0
C1222 C 0.46027 0.25381 0.79808 0.0
C1223 C 0.4617 0.30711 0.80384 0.0
H1224 H 0.50256 0.17237 0.79526 0.0
H1225 H 0.42101 0.23939 0.79396 0.0
S1226 S 0.58506 0.36884 0.81967 0.0
N1227 N 0.60664 0.30363 0.81593 0.0
N1228 N 0.51923 0.37601 0.81446 0.0
C1229 C 0.51282 0.32416 0.8092 0.0
C1230 C 0.55965 0.28509 0.81004 0.0
C1231 C 0.52304 0.77719 0.54546 0.0
C1232 C 0.57483 0.78827 0.55134 0.0
C1233 C 0.49682 0.72278 0.54611 0.0
C1234 C 0.52262 0.67882 0.5525 0.0
H1235 H 0.49872 0.81238 0.54173 0.0
H1236 H 0.45361 0.71725 0.54275 0.0
S1237 S 0.66591 0.68187 0.56641 0.0
N1238 N 0.65672 0.74793 0.56146 0.0
N1239 N 0.60791 0.64536 0.56253 0.0
C1240 C 0.57857 0.68688 0.55676 0.0
C1241 C 0.60494 0.74193 0.55615 0.0
C1242 C 0.0383 0.74913 0.29749 0.0
C1243 C 0.03363 0.69209 0.30153 0.0
C1244 C 0.99102 0.78676 0.29799 0.0
C1245 C 0.93793 0.76728 0.30215 0.0
H1246 H 0.08016 0.76686 0.29531 0.0
H1247 H -0.00272 0.83204 0.29606 0.0
S1248 S 0.90074 0.61923 0.31144 0.0
N1249 N 0.97017 0.6161 0.30826 0.0
N1250 N 0.88044 0.68609 0.30866 0.0
C1251 C 0.93092 0.70863 0.30477 0.0
C1252 C 0.97914 0.67089 0.30454 0.0
C1253 C 0.98574 0.20213 0.0492 0.0
C1254 C 0.93586 0.19984 0.05602 0.0
C1255 C 0.02331 0.24965 0.04978 0.0
C1256 C 0.01193 0.29524 0.05729 0.0
H1257 H -0.00151 0.16501 0.04421 0.0
H1258 H 0.06319 0.24876 0.04499 0.0
S1259 S 0.88045 0.3146 0.07493 0.0
N1260 N 0.87204 0.25103 0.06884 0.0
N1261 N 0.94272 0.33945 0.0702 0.0
C1262 C 0.95921 0.29571 0.06323 0.0
C1263 C 0.92095 0.24819 0.06249 0.0
C1264 C 0.2658 0.18308 0.25925 0.0
C1265 C 0.27713 0.21543 0.26903 0.0
C1266 C 0.25293 0.21003 0.24896 0.0
C1267 C 0.25154 0.27068 0.24792 0.0
H1268 H 0.26569 0.13633 0.25959 0.0
H1269 H 0.2435 0.18268 0.24174 0.0
S1270 S 0.28465 0.37527 0.2708 0.0
N1271 N 0.2912 0.31146 0.27692 0.0
N1272 N 0.26636 0.36238 0.2575 0.0
C1273 C 0.26514 0.30378 0.25754 0.0
C1274 C 0.27796 0.2761 0.26812 0.0
C1275 C 0.93576 0.97586 0.50351 0.0
C1276 C 0.9314 0.02634 0.49689 0.0
C1277 C 0.96853 0.9748 0.51353 0.0
C1278 C -0.00258 0.02436 0.51742 0.0
H1279 H 0.91635 0.93591 0.50064 0.0
H1280 H 0.97317 0.93427 0.51801 0.0
S1281 S 0.99516 0.16891 0.5039 0.0
N1282 N 0.95586 0.12809 0.4954 0.0
N1283 N 0.01638 0.12628 0.51431 0.0
C1284 C 0.99147 0.07565 0.51115 0.0
C1285 C 0.95852 0.07666 0.50091 0.0
C1286 C 0.22098 0.81332 0.74463 0.0
C1287 C 0.22083 0.75284 0.74323 0.0
C1288 C 0.21055 0.83899 0.75514 0.0
C1289 C 0.19992 0.80553 0.76481 0.0
H1290 H 0.23014 0.84158 0.73755 0.0
H1291 H 0.21206 0.88565 0.75574 0.0
S1292 S 0.18758 0.64576 0.76564 0.0
N1293 N 0.20468 0.66016 0.75234 0.0
N1294 N 0.18369 0.70875 0.77217 0.0
C1295 C 0.19699 0.74506 0.76353 0.0
C1296 C 0.20763 0.71866 0.75273 0.0
C1297 C 0.50149 0.97965 0.01642 0.0
C1298 C 0.46971 0.93015 0.01941 0.0
C1299 C 0.53187 0.98277 1.00612 0.0
C1300 C 0.53114 0.93676 0.99829 0.0
H1301 H 0.50108 0.01731 0.02185 0.0
H1302 H 0.55378 0.02271 1.00406 0.0
S1303 S 0.45866 0.79538 1.00251 0.0
N1304 N 0.44281 0.83249 0.01404 0.0
N1305 N 0.49893 0.83855 0.99468 0.0
C1306 C 0.50118 0.88625 1.00137 0.0
C1307 C 0.47056 0.88299 0.01188 0.0
C1308 C 0.26256 0.78419 0.26402 0.0
C1309 C 0.28385 0.76999 0.25324 0.0
C1310 C 0.26322 0.74376 0.27291 0.0
C1311 C 0.28614 0.68774 0.27143 0.0
H1312 H 0.24437 0.82657 0.26554 0.0
H1313 H 0.24561 0.7567 0.28102 0.0
S1314 S 0.35119 0.63113 0.24487 0.0
N1315 N 0.33129 0.69756 0.24165 0.0
N1316 N 0.33267 0.62154 0.25825 0.0
C1317 C 0.30894 0.67371 0.2607 0.0
C1318 C 0.30781 0.71481 0.25165 0.0
C1319 C 0.49205 0.04745 0.50633 0.0
C1320 C 0.43185 0.05552 0.50536 0.0
C1321 C 0.51949 0.0457 0.51699 0.0
C1322 C 0.48807 0.05337 0.52709 0.0
H1323 H 0.51854 0.04349 0.49882 0.0
H1324 H 0.56572 0.03867 0.51731 0.0
S1325 S 0.32921 0.07478 0.52921 0.0
N1326 N 0.34174 0.07011 0.51548 0.0
N1327 N 0.39289 0.06829 0.53536 0.0
C1328 C 0.42794 0.06214 0.5262 0.0
C1329 C 0.40005 0.06303 0.5154 0.0
C1330 C 0.23534 0.29306 0.76397 0.0
C1331 C 0.23963 0.25914 0.77381 0.0
C1332 C 0.22605 0.2674 0.75329 0.0
C1333 C 0.22057 0.20702 0.7521 0.0
H1334 H 0.24109 0.33939 0.76446 0.0
H1335 H 0.22294 0.29513 0.74593 0.0
S1336 S 0.22292 0.0998 0.77544 0.0
N1337 N 0.23342 0.16244 0.78177 0.0
N1338 N 0.21632 0.11476 0.76183 0.0
C1339 C 0.22231 0.17314 0.76196 0.0
C1340 C 0.23191 0.19903 0.77276 0.0
C1341 C 0.97098 0.97454 0.02048 0.0
C1342 C 0.91262 0.95738 0.01957 0.0
C1343 C 0.00841 0.9728 0.01113 0.0
C1344 C 0.98888 0.95484 1.00045 0.0
H1345 H 0.98822 0.98929 0.02851 0.0
H1346 H 0.05285 0.98633 0.01225 0.0
S1347 S 0.84179 0.90236 0.99346 0.0
N1348 N 0.83813 0.91959 1.00702 0.0
N1349 N 0.90872 0.91651 0.98951 0.0
C1350 C 0.93117 0.9367 0.99939 0.0
C1351 C 0.89302 0.93795 1.00892 0.0
C1352 C 0.82655 0.71075 0.75981 0.0
C1353 C 0.78077 0.71604 0.76758 0.0
C1354 C 0.82709 0.74186 0.7496 0.0
C1355 C 0.78182 0.77969 0.74668 0.0
H1356 H 0.86198 0.68149 0.76154 0.0
H1357 H 0.86258 0.73482 0.74379 0.0
S1358 S 0.65081 0.80811 0.76398 0.0
N1359 N 0.6882 0.76118 0.77153 0.0
N1360 N 0.68981 0.82085 0.75255 0.0
C1361 C 0.73644 0.78665 0.75453 0.0
C1362 C 0.73568 0.75447 0.7649 0.0
C1363 C 0.74445 0.23351 0.2664 0.0
C1364 C 0.69579 0.26668 0.26936 0.0
C1365 C 0.74611 0.20152 0.25628 0.0
C1366 C 0.69938 0.20187 0.2486 0.0
H1367 H 0.78251 0.23386 0.27174 0.0
H1368 H 0.78543 0.17843 0.25424 0.0
S1369 S 0.56002 0.27848 0.25277 0.0
N1370 N 0.59839 0.29518 0.2641 0.0
N1371 N 0.60158 0.2359 0.24508 0.0
C1372 C 0.64977 0.23349 0.25165 0.0
C1373 C 0.64806 0.26585 0.26197 0.0
C1374 C 0.82971 0.26499 0.76105 0.0
C1375 C 0.78203 0.26284 0.75367 0.0
C1376 C 0.83086 0.23283 0.77112 0.0
C1377 C 0.78425 0.19726 0.7743 0.0
H1378 H 0.86618 0.29256 0.75911 0.0
H1379 H 0.86795 0.23742 0.77665 0.0
S1380 S 0.64842 0.17729 0.75796 0.0
N1381 N 0.68661 0.22292 0.75027 0.0
N1382 N 0.68899 0.1615 0.76904 0.0
C1383 C 0.73687 0.19344 0.76681 0.0
C1384 C 0.73563 0.22659 0.75657 0.0
C1385 C 0.69245 0.80111 0.26544 0.0
C1386 C 0.69747 0.7745 0.2761 0.0
C1387 C 0.69205 0.76801 0.25541 0.0
C1388 C 0.69782 0.70735 0.25572 0.0
H1389 H 0.68727 0.84749 0.26488 0.0
H1390 H 0.68546 0.78997 0.24742 0.0
S1391 S 0.71971 0.61813 0.28143 0.0
N1392 N 0.7133 0.68468 0.28627 0.0
N1393 N 0.71272 0.62298 0.26754 0.0
C1394 C 0.70474 0.68078 0.26632 0.0
C1395 C 0.70477 0.71422 0.27647 0.0
C1396 C 0.4641 0.58848 1.00247 0.0
C1397 C 0.44682 0.53463 0.99811 0.0
C1398 C 0.49677 0.59252 0.01247 0.0
C1399 C 0.51375 0.54287 0.01848 0.0
H1400 H 0.45339 0.62783 0.99798 0.0
H1401 H 0.50942 0.63492 0.01545 0.0
S1402 S 0.48391 0.39131 1.01021 0.0
N1403 N 0.45089 0.43031 1.00046 0.0
N1404 N 0.51387 0.43807 0.01898 0.0
C1405 C 0.49698 0.48875 0.01422 0.0
C1406 C 0.463 0.4846 1.00413 0.0
C1407 C 0.04236 0.41002 0.50238 0.0
C1408 C 0.07441 0.45814 0.49868 0.0
C1409 C 0.01266 0.41057 0.51274 0.0
C1410 C 0.01386 0.45914 0.51989 0.0
H1411 H 0.03859 0.37208 0.49706 0.0
H1412 H 0.98778 0.37283 0.51509 0.0
S1413 S 0.09043 0.59677 0.51423 0.0
N1414 N 0.10586 0.55582 0.50319 0.0
N1415 N 0.04894 0.55702 0.5225 0.0
C1416 C 0.04661 0.50714 0.51646 0.0
C1417 C 0.07726 0.50653 0.50592 0.0
C1418 C 0.96281 0.55832 0.01348 0.0
C1419 C 0.9874 0.54128 1.00312 0.0
C1420 C 0.99309 0.55312 0.0237 0.0
C1421 C 0.04942 0.5303 0.02407 0.0
H1422 H 0.91945 0.57591 0.01372 0.0
H1423 H 0.97147 0.56622 0.03142 0.0
S1424 S 0.13644 0.48483 0.99927 0.0
N1425 N 0.07419 0.50567 0.99378 0.0
N1426 N 0.1299 0.4929 0.01312 0.0
C1427 C 0.07504 0.51345 0.01379 0.0
C1428 C 0.04442 0.51972 1.00329 0.0
C1429 C 0.51565 0.47425 0.5077 0.0
C1430 C 0.54938 0.42655 0.50441 0.0
C1431 C 0.48694 0.47534 0.5182 0.0
C1432 C 0.49145 0.42906 0.5259 0.0
H1433 H 0.51342 0.51221 0.50238 0.0
H1434 H 0.46377 0.51418 0.52053 0.0
S1435 S 0.56921 0.29136 0.52085 0.0
N1436 N 0.58142 0.32979 0.50932 0.0
N1437 N 0.52846 0.33223 0.52906 0.0
C1438 C 0.52293 0.38011 0.52249 0.0
C1439 C 0.55182 0.37886 0.51179 0.0
C1440 C 0.27405 0.90242 0.31747 0.0
C1441 C 0.24005 0.93441 0.32507 0.0
C1442 C 0.2692 0.84219 0.31682 0.0
C1443 C 0.23043 0.81173 0.32381 0.0
H1444 H 0.30473 0.92404 0.312 0.0
H1445 H 0.2953 0.81954 0.31064 0.0
S1446 S 0.13232 0.87673 0.3453 0.0
N1447 N 0.16679 0.93219 0.33973 0.0
N1448 N 0.15818 0.81915 0.33882 0.0
C1449 C 0.19728 0.84357 0.33168 0.0
C1450 C 0.20191 0.90484 0.33222 0.0
C1451 C 0.3143 0.91006 0.57799 0.0
C1452 C 0.28057 0.95526 0.57369 0.0
C1453 C 0.37478 0.91265 0.57754 0.0
C1454 C 0.40336 0.96042 0.57271 0.0
H1455 H 0.29378 0.87237 0.58163 0.0
H1456 H 0.39927 0.87619 0.5807 0.0
S1457 S 0.33394 0.09314 0.5617 0.0
N1458 N 0.27946 0.05154 0.56554 0.0
N1459 N 0.39314 0.05578 0.56441 0.0
C1460 C 0.3699 0.00659 0.5687 0.0
C1461 C 0.30844 0.00419 0.56927 0.0
C1462 C 0.21123 0.16933 0.81739 0.0
C1463 C 0.25163 0.1973 0.82442 0.0
C1464 C 0.2048 0.10919 0.81759 0.0
C1465 C 0.23907 0.07466 0.82471 0.0
H1466 H 0.18535 0.19397 0.81146 0.0
H1467 H 0.17312 0.08959 0.81204 0.0
S1468 S 0.35124 0.12573 0.84475 0.0
N1469 N 0.32573 0.18526 0.83892 0.0
N1470 N 0.31448 0.07219 0.83899 0.0
C1471 C 0.27868 0.10186 0.83195 0.0
C1472 C 0.28471 0.16317 0.8319 0.0
C1473 C 0.07761 0.00751 0.08109 0.0
C1474 C 0.04474 0.97941 0.07268 0.0
C1475 C 0.13772 0.00179 0.08156 0.0
C1476 C 0.16756 0.96721 0.07374 0.0
H1477 H 0.05721 0.03638 0.08709 0.0
H1478 H 0.16118 0.02584 0.08794 0.0
S1479 S 0.10176 0.87838 0.05099 0.0
N1480 N 0.04651 0.91233 0.05682 0.0
N1481 N 0.15954 0.89964 0.05807 0.0
C1482 C 0.13531 0.93667 0.06561 0.0
C1483 C 0.07393 0.94312 0.06502 0.0
C1484 C 0.28756 0.17544 0.2062 0.0
C1485 C 0.25631 0.20611 0.1979 0.0
C1486 C 0.28951 0.11474 0.20617 0.0
C1487 C 0.25947 0.08253 0.19797 0.0
H1488 H 0.30966 0.1985 0.21291 0.0
H1489 H 0.31461 0.09297 0.21263 0.0
S1490 S 0.16752 0.14118 0.17495 0.0
N1491 N 0.19315 0.19879 0.18145 0.0
N1492 N 0.19536 0.08539 0.1817 0.0
C1493 C 0.22795 0.1125 0.18968 0.0
C1494 C 0.22679 0.17407 0.18956 0.0
C1495 C 0.06262 0.02962 0.4556 0.0
C1496 C 0.03528 0.99153 0.44796 0.0
C1497 C 0.12269 0.03857 0.4553 0.0
C1498 C 0.15776 0.0094 0.44745 0.0
H1499 H 0.03767 0.05175 0.46203 0.0
H1500 H 0.14179 0.06836 0.4613 0.0
S1501 S 0.10888 0.90419 0.42578 0.0
N1502 N 0.04904 0.92494 0.43217 0.0
N1503 N 0.16145 0.94011 0.43205 0.0
C1504 C 0.13119 0.97173 0.43972 0.0
C1505 C 0.07013 0.96331 0.43985 0.0
C1506 C 0.19782 0.91004 0.70022 0.0
C1507 C 0.22829 0.9424 0.69212 0.0
C1508 C 0.20099 0.84949 0.7004 0.0
C1509 C 0.23428 0.81895 0.6924 0.0
H1510 H 0.17178 0.93165 0.70655 0.0
H1511 H 0.1786 0.82656 0.70708 0.0
S1512 S 0.32259 0.88447 0.66944 0.0
N1513 N 0.29313 0.94005 0.67599 0.0
N1514 N 0.29799 0.82668 0.67602 0.0
C1515 C 0.26343 0.85111 0.684 0.0
C1516 C 0.2608 0.91267 0.68396 0.0
C1517 C 0.39579 0.02518 0.94187 0.0
C1518 C 0.42651 0.99276 0.94999 0.0
C1519 C 0.33556 0.0227 0.94119 0.0
C1520 C 0.30358 0.98706 0.94846 0.0
H1521 H 0.41816 0.0545 0.93623 0.0
H1522 H 0.31374 0.04952 0.93501 0.0
S1523 S 0.36311 0.88891 0.97039 0.0
N1524 N 0.42036 0.92172 0.96509 0.0
N1525 N 0.30699 0.91495 0.96341 0.0
C1526 C 0.33357 0.95287 0.95636 0.0
C1527 C 0.39507 0.95614 0.9572 0.0
C1528 C 0.70281 0.15298 0.70172 0.0
C1529 C 0.73869 0.17969 0.69362 0.0
C1530 C 0.70588 0.09341 0.70379 0.0
C1531 C 0.74537 0.05844 0.69792 0.0
H1532 H 0.67288 0.1786 0.70666 0.0
H1533 H 0.67676 0.07447 0.70993 0.0
S1534 S 0.85005 0.10645 0.67616 0.0
N1535 N 0.81558 0.16601 0.67984 0.0
N1536 N 0.82128 0.05412 0.6838 0.0
C1537 C 0.7813 0.08425 0.6898 0.0
C1538 C 0.77782 0.14477 0.6876 0.0
C1539 C 0.61915 0.93771 0.45682 0.0
C1540 C 0.65789 0.96045 0.44883 0.0
C1541 C 0.55905 0.94209 0.45525 0.0
C1542 C 0.53524 0.96921 0.4456 0.0
H1543 H 0.63537 0.91644 0.46434 0.0
H1544 H 0.53099 0.92549 0.46182 0.0
S1545 S 0.6192 0.03688 0.42229 0.0
N1546 N 0.6688 0.0116 0.43102 0.0
N1547 N 0.55643 0.01939 0.42795 0.0
C1548 C 0.57395 0.99101 0.43743 0.0
C1549 C 0.63501 0.98694 0.4391 0.0
C1550 C 0.79531 0.83025 0.19446 0.0
C1551 C 0.74409 0.8014 0.19725 0.0
C1552 C 0.80118 0.8897 0.19664 0.0
C1553 C 0.7561 0.92194 0.20167 0.0
H1554 H 0.83118 0.8067 0.19081 0.0
H1555 H 0.84145 0.91062 0.19443 0.0
S1556 S 0.61302 0.86567 0.21026 0.0
N1557 N 0.64747 0.80888 0.20518 0.0
N1558 N 0.65843 0.92033 0.20909 0.0
C1559 C 0.70482 0.8933 0.20445 0.0
C1560 C 0.69884 0.83311 0.20225 0.0
C1561 C 0.835 0.96187 0.94291 0.0
C1562 C 0.80643 0.00057 0.95016 0.0
C1563 C 0.89275 0.97067 0.93975 0.0
C1564 C 0.92438 0.0185 0.94376 0.0
H1565 H 0.81225 0.92469 0.93958 0.0
H1566 H 0.91341 0.93832 0.9345 0.0
S1567 S 0.86832 0.13387 0.96256 0.0
N1568 N 0.81294 0.08971 0.96089 0.0
N1569 N 0.92198 0.10575 0.95517 0.0
C1570 C 0.89595 0.05786 0.95092 0.0
C1571 C 0.837 0.04895 0.9541 0.0
C1572 C 0.74147 0.89255 0.83069 0.0
C1573 C 0.70769 0.91666 0.822 0.0
C1574 C 0.74092 0.833 0.83288 0.0
C1575 C 0.70662 0.79491 0.82643 0.0
H1576 H 0.76906 0.92003 0.83578 0.0
H1577 H 0.76995 0.81653 0.83932 0.0
S1578 S 0.60541 0.83773 0.80349 0.0
N1579 N 0.63562 0.89905 0.80749 0.0
N1580 N 0.63431 0.787 0.81154 0.0
C1581 C 0.67082 0.81905 0.81799 0.0
C1582 C 0.67161 0.87981 0.81576 0.0
C1583 C 0.87301 0.96843 0.56829 0.0
C1584 C 0.90176 0.00051 0.57673 0.0
C1585 C 0.81331 0.97396 0.56652 0.0
C1586 C 0.78011 0.01229 0.57304 0.0
H1587 H 0.89695 0.93884 0.56296 0.0
H1588 H 0.79278 0.94716 0.56016 0.0
S1589 S 0.83402 0.10782 0.5959 0.0
N1590 N 0.89213 0.073 0.59151 0.0
N1591 N 0.7799 0.08345 0.58812 0.0
C1592 C 0.8081 0.04489 0.58145 0.0
C1593 C 0.86883 0.03884 0.58334 0.0
C1594 C 0.81084 0.16392 0.31799 0.0
C1595 C 0.77908 0.18807 0.32705 0.0
C1596 C 0.80834 0.10452 0.3155 0.0
C1597 C 0.77386 0.067 0.32194 0.0
H1598 H 0.8369 0.19141 0.31262 0.0
H1599 H 0.83404 0.08773 0.30858 0.0
S1600 S 0.68162 0.10685 0.34635 0.0
N1601 N 0.71148 0.1683 0.34239 0.0
N1602 N 0.70743 0.05729 0.33768 0.0
C1603 C 0.74235 0.09008 0.33103 0.0
C1604 C 0.74501 0.15029 0.33363 0.0
C1605 C 0.64049 0.97021 0.07993 0.0
C1606 C 0.66593 0.00773 0.07202 0.0
C1607 C 0.58146 0.97362 0.08253 0.0
C1608 C 0.54519 0.01427 0.07721 0.0
H1609 H 0.66663 0.93796 0.08417 0.0
H1610 H 0.56368 0.94218 0.08836 0.0
S1611 S 0.59137 0.12427 0.05625 0.0
N1612 N 0.65131 0.08887 0.05934 0.0
N1613 N 0.53973 0.09388 0.06385 0.0
C1614 C 0.57037 0.05254 0.06937 0.0
C1615 C 0.63075 0.04951 0.06685 0.0
C1616 C 0.78907 0.38552 0.81617 0.0
C1617 C 0.7615 0.4172 0.82478 0.0
C1618 C 0.78637 0.3249 0.81588 0.0
C1619 C 0.75666 0.29359 0.82429 0.0
H1620 H 0.81274 0.4077 0.80957 0.0
H1621 H 0.80653 0.30251 0.80886 0.0
S1622 S 0.67605 0.35717 0.84856 0.0
N1623 N 0.70239 0.41333 0.84171 0.0
N1624 N 0.69895 0.30001 0.84154 0.0
C1625 C 0.73024 0.32513 0.83313 0.0
C1626 C 0.73217 0.38671 0.83327 0.0
C1627 C 0.85161 0.46853 0.06402 0.0
C1628 C 0.82393 0.50623 0.07157 0.0
C1629 C 0.91176 0.46828 0.0629 0.0
C1630 C 0.94708 0.50338 0.06976 0.0
H1631 H 0.82679 0.43774 0.05912 0.0
H1632 H 0.93089 0.43786 0.05703 0.0
S1633 S 0.89646 0.61164 0.09056 0.0
N1634 N 0.83648 0.58331 0.08539 0.0
N1635 N 0.95024 0.57788 0.08417 0.0
C1636 C 0.92027 0.54128 0.07737 0.0
C1637 C 0.8586 0.54369 0.0781 0.0
C1638 C 0.77273 0.65755 0.3315 0.0
C1639 C 0.73722 0.69059 0.32425 0.0
C1640 C 0.76896 0.59728 0.33183 0.0
C1641 C 0.72958 0.5675 0.32495 0.0
H1642 H 0.80589 0.67798 0.33659 0.0
H1643 H 0.79823 0.57365 0.33729 0.0
S1644 S 0.61909 0.63298 0.30623 0.0
N1645 N 0.65603 0.68861 0.31116 0.0
N1646 N 0.64899 0.575 0.31188 0.0
C1647 C 0.69143 0.59963 0.31819 0.0
C1648 C 0.69515 0.66123 0.31784 0.0
C1649 C 0.69166 0.44717 0.56767 0.0
C1650 C 0.72188 0.47399 0.57658 0.0
C1651 C 0.63104 0.44942 0.56706 0.0
C1652 C 0.59831 0.47803 0.57542 0.0
H1653 H 0.715 0.42453 0.56108 0.0
H1654 H 0.60985 0.42997 0.55982 0.0
S1655 S 0.65786 0.55498 0.60056 0.0
N1656 N 0.7152 0.53037 0.59383 0.0
N1657 N 0.60187 0.53276 0.5931 0.0
C1658 C 0.62841 0.50327 0.5846 0.0
C1659 C 0.68997 0.50179 0.58507 0.0
C1660 C 0.75589 0.58994 0.70536 0.0
C1661 C 0.7191 0.55801 0.69825 0.0
C1662 C 0.75262 0.65032 0.70581 0.0
C1663 C 0.71285 0.68089 0.69908 0.0
H1664 H 0.78802 0.56818 0.71048 0.0
H1665 H 0.78149 0.67316 0.71148 0.0
S1666 S 0.60516 0.61607 0.67943 0.0
N1667 N 0.64064 0.56031 0.68466 0.0
N1668 N 0.63438 0.6737 0.68533 0.0
C1669 C 0.67571 0.64904 0.69193 0.0
C1670 C 0.67883 0.58762 0.69158 0.0
C1671 C 0.58881 0.54275 0.9438 0.0
C1672 C 0.56031 0.51049 0.95218 0.0
C1673 C 0.64942 0.54248 0.94303 0.0
C1674 C 0.68334 0.50808 0.95031 0.0
H1675 H 0.56412 0.56778 0.93775 0.0
H1676 H 0.66977 0.56891 0.93662 0.0
S1677 S 0.62948 0.41259 0.97316 0.0
N1678 N 0.57091 0.44319 0.96793 0.0
N1679 N 0.68376 0.43885 0.96573 0.0
C1680 C 0.65527 0.47517 0.95861 0.0
C1681 C 0.59405 0.47733 0.95973 0.0
C1682 C 0.76404 0.39149 0.19111 0.0
C1683 C 0.72654 0.42037 0.19853 0.0
C1684 C 0.76993 0.33137 0.19147 0.0
C1685 C 0.73893 0.29787 0.19936 0.0
H1686 H 0.79016 0.41573 0.18516 0.0
H1687 H 0.80119 0.31146 0.18587 0.0
S1688 S 0.62886 0.35233 0.21954 0.0
N1689 N 0.65271 0.41076 0.21304 0.0
N1690 N 0.66538 0.29786 0.21405 0.0
C1691 C 0.69934 0.32612 0.20649 0.0
C1692 C 0.69282 0.38735 0.20601 0.0
C1693 C 0.87292 0.49687 0.44015 0.0
C1694 C 0.84314 0.46467 0.44836 0.0
C1695 C 0.93329 0.50149 0.44032 0.0
C1696 C 0.9667 0.47471 0.44883 0.0
H1697 H 0.84925 0.52012 0.43368 0.0
H1698 H 0.9535 0.52891 0.43404 0.0
S1699 S 0.91014 0.379 0.47145 0.0
N1700 N 0.85195 0.39993 0.46447 0.0
N1701 N 0.96529 0.41079 0.46515 0.0
C1702 C 0.93756 0.44046 0.45685 0.0
C1703 C 0.87591 0.43504 0.45655 0.0
C1704 C 0.25632 0.60771 0.19426 0.0
C1705 C 0.21724 0.58258 0.20191 0.0
C1706 C 0.25363 0.66666 0.19158 0.0
C1707 C 0.21177 0.70313 0.19648 0.0
H1708 H 0.28907 0.58132 0.19023 0.0
H1709 H 0.28625 0.68413 0.18597 0.0
S1710 S 0.09693 0.65733 0.21647 0.0
N1711 N 0.13365 0.59756 0.21392 0.0
N1712 N 0.1286 0.70863 0.20899 0.0
C1713 C 0.1717 0.67811 0.204 0.0
C1714 C 0.17454 0.61791 0.20671 0.0
C1715 C 0.09911 0.495 0.93731 0.0
C1716 C 0.06072 0.46322 0.94411 0.0
C1717 C 0.15885 0.49391 0.93934 0.0
C1718 C 0.18249 0.4606 0.94817 0.0
H1719 H 0.08266 0.5239 0.93085 0.0
H1720 H 0.1867 0.52055 0.93414 0.0
S1721 S 0.10132 0.3636 0.96738 0.0
N1722 N 0.05104 0.39362 0.95938 0.0
N1723 N 0.16349 0.39053 0.963 0.0
C1724 C 0.14496 0.42626 0.95463 0.0
C1725 C 0.08409 0.42768 0.95262 0.0
C1726 C 0.24207 0.41993 0.68814 0.0
C1727 C 0.27401 0.44389 0.69712 0.0
C1728 C 0.24312 0.3604 0.6859 0.0
C1729 C 0.27613 0.32224 0.69259 0.0
H1730 H 0.21577 0.44756 0.68282 0.0
H1731 H 0.21554 0.34398 0.67922 0.0
S1732 S 0.37204 0.36458 0.71642 0.0
N1733 N 0.3428 0.42599 0.71221 0.0
N1734 N 0.34489 0.31403 0.7081 0.0
C1735 C 0.30985 0.3462 0.70137 0.0
C1736 C 0.30861 0.40691 0.70364 0.0
C1737 C 0.42584 0.49876 0.43836 0.0
C1738 C 0.46531 0.52645 0.44566 0.0
C1739 C 0.36588 0.50188 0.4402 0.0
C1740 C 0.3427 0.53295 0.44939 0.0
H1741 H 0.44134 0.47171 0.43152 0.0
H1742 H 0.33738 0.4786 0.43453 0.0
S1743 S 0.42614 0.61951 0.47011 0.0
N1744 N 0.47592 0.59046 0.46187 0.0
N1745 N 0.3634 0.59645 0.46522 0.0
C1746 C 0.38122 0.56306 0.45643 0.0
C1747 C 0.44233 0.55995 0.45457 0.0
C1748 C 0.20553 0.39733 0.31659 0.0
C1749 C 0.23778 0.43532 0.32335 0.0
C1750 C 0.20448 0.33798 0.31893 0.0
C1751 C 0.2355 0.31447 0.32813 0.0
H1752 H 0.18035 0.41372 0.30955 0.0
H1753 H 0.18006 0.31002 0.31336 0.0
S1754 S 0.32565 0.39699 0.34848 0.0
N1755 N 0.30015 0.4464 0.33972 0.0
N1756 N 0.29899 0.33476 0.34408 0.0
C1757 C 0.2669 0.35252 0.33509 0.0
C1758 C 0.26806 0.41289 0.33267 0.0
C1759 C 0.34787 0.48805 0.08097 0.0
C1760 C 0.32477 0.45275 0.07238 0.0
C1761 C 0.40739 0.48892 0.0833 0.0
C1762 C 0.44639 0.45499 0.07704 0.0
H1763 H 0.3197 0.51614 0.0858 0.0
H1764 H 0.42327 0.51914 0.08958 0.0
S1765 S 0.40747 0.35105 0.05437 0.0
N1766 N 0.34505 0.3795 0.05822 0.0
N1767 N 0.45706 0.38222 0.06237 0.0
C1768 C 0.42358 0.41801 0.06869 0.0
C1769 C 0.36286 0.4168 0.06638 0.0
C1770 C 0.30014 0.60656 0.82347 0.0
C1771 C 0.2554 0.57309 0.81864 0.0
C1772 C 0.29339 0.66604 0.82546 0.0
C1773 C 0.24205 0.69407 0.82246 0.0
H1774 H 0.34067 0.58649 0.82582 0.0
H1775 H 0.32868 0.69023 0.82918 0.0
S1776 S 0.11208 0.62701 0.80953 0.0
N1777 N 0.15793 0.57292 0.81106 0.0
N1778 N 0.14593 0.68479 0.81433 0.0
C1779 C 0.19749 0.66146 0.81743 0.0
C1780 C 0.20403 0.60098 0.81558 0.0
C1781 C 0.18408 0.55747 0.56739 0.0
C1782 C 0.22244 0.52736 0.57445 0.0
C1783 C 0.12456 0.55909 0.56976 0.0
C1784 C 0.10084 0.53002 0.57921 0.0
H1785 H 0.20021 0.58003 0.56 0.0
H1786 H 0.09659 0.5817 0.5639 0.0
S1787 S 0.18478 0.44668 0.60052 0.0
N1788 N 0.23384 0.46996 0.59147 0.0
N1789 N 0.12237 0.47182 0.59589 0.0
C1790 C 0.13959 0.50144 0.58654 0.0
C1791 C 0.20013 0.50012 0.58413 0.0
C1792 C 0.3309 0.11131 0.38146 0.0
C1793 C 0.2815 0.08929 0.37598 0.0
C1794 C 0.3497 0.08916 0.39193 0.0
C1795 C 0.32091 0.0429 0.39723 0.0
H1796 H 0.35503 0.14639 0.37767 0.0
H1797 H 0.38744 0.10819 0.39587 0.0
S1798 S 0.18989 0.96878 0.38636 0.0
N1799 N 0.20419 0.01831 0.3767 0.0
N1800 N 0.24033 0.97582 0.39616 0.0
C1801 C 0.27186 0.01998 0.39179 0.0
C1802 C 0.25194 0.04341 0.38125 0.0
C1803 C 0.19546 0.07924 0.63564 0.0
C1804 C 0.17433 0.12208 0.64305 0.0
C1805 C 0.1662 0.06484 0.62555 0.0
C1806 C 0.11486 0.09318 0.62233 0.0
H1807 H 0.23468 0.056 0.6377 0.0
H1808 H 0.18463 0.03186 0.62015 0.0
S1809 S 0.04128 0.20898 0.6387 0.0
N1810 N 0.09844 0.19257 0.64642 0.0
N1811 N 0.04415 0.16634 0.62751 0.0
C1812 C 0.09331 0.13618 0.62967 0.0
C1813 C 0.12276 0.15036 0.63999 0.0
C1814 C 0.19968 0.91807 0.88257 0.0
C1815 C 0.17052 0.88806 0.87388 0.0
C1816 C 0.17285 0.93023 0.89302 0.0
C1817 C 0.11588 0.91222 0.89532 0.0
H1818 H 0.24365 0.93263 0.88129 0.0
H1819 H 0.19752 0.95282 0.89943 0.0
S1820 S 0.01999 0.83288 0.87541 0.0
N1821 N 0.08073 0.84148 0.8683 0.0
N1822 N 0.03086 0.86358 0.88785 0.0
C1823 C 0.08609 0.88255 0.88667 0.0
C1824 C 0.11317 0.87071 0.876 0.0
C1825 C 0.27889 0.97971 0.13138 0.0
C1826 C 0.32561 0.95248 0.1259 0.0
C1827 C 0.25937 0.96135 0.14208 0.0
C1828 C 0.28622 0.91549 0.1479 0.0
H1829 H 0.25643 0.01507 0.1273 0.0
H1830 H 0.22331 0.98397 0.14588 0.0
S1831 S 0.41083 0.82984 0.1374 0.0
N1832 N 0.39827 0.87692 0.12719 0.0
N1833 N 0.36244 0.84334 0.14733 0.0
C1834 C 0.33334 0.88816 0.14257 0.0
C1835 C 0.35272 0.90633 0.13159 0.0
C1836 C 0.54927 0.85534 0.62891 0.0
C1837 C 0.60186 0.8569 0.623 0.0
C1838 C 0.54807 0.86002 0.64076 0.0
C1839 C 0.59939 0.86668 0.64702 0.0
H1840 H 0.50903 0.84956 0.62436 0.0
H1841 H 0.50681 0.85755 0.64505 0.0
S1842 S 0.74687 0.88337 0.63517 0.0
N1843 N 0.70558 0.87078 0.62403 0.0
N1844 N 0.70319 0.88267 0.64623 0.0
C1845 C 0.65189 0.87113 0.6411 0.0
C1846 C 0.65315 0.86529 0.6291 0.0
C1847 C 0.8475 0.88271 0.37861 0.0
C1848 C 0.89563 0.8597 0.37288 0.0
C1849 C 0.84314 0.87954 0.39044 0.0
C1850 C 0.88696 0.85364 0.3969 0.0
H1851 H 0.81286 0.90311 0.37391 0.0
H1852 H 0.80472 0.89614 0.39455 0.0
S1853 S 0.0257 0.79577 0.38625 0.0
N1854 N 0.99072 0.81609 0.37472 0.0
N1855 N 0.9823 0.81022 0.39698 0.0
C1856 C 0.93651 0.83328 0.39137 0.0
C1857 C 0.94109 0.83668 0.37935 0.0
C1858 C 0.88558 0.16813 0.13087 0.0
C1859 C 0.87143 0.11836 0.12462 0.0
C1860 C 0.88811 0.16678 0.14274 0.0
C1861 C 0.87672 0.11559 0.14867 0.0
H1862 H 0.89534 0.20822 0.12656 0.0
H1863 H 0.89969 0.20571 0.14729 0.0
S1864 S 0.83 0.97601 0.13649 0.0
N1865 N 0.83934 0.01841 0.12539 0.0
N1866 N 0.84684 0.01541 0.14768 0.0
C1867 C 0.86113 0.06604 0.14259 0.0
C1868 C 0.85768 0.06756 0.13055 0.0
C1869 C 0.64959 0.09789 0.89179 0.0
C1870 C 0.60473 0.12055 0.8984 0.0
C1871 C 0.64662 0.09925 0.87995 0.0
C1872 C 0.59933 0.12469 0.87435 0.0
H1873 H 0.68719 0.07897 0.89581 0.0
H1874 H 0.68154 0.07994 0.87519 0.0
S1875 S 0.47011 0.1887 0.88808 0.0
N1876 N 0.51096 0.16712 0.89875 0.0
N1877 N 0.50573 0.17143 0.87643 0.0
C1878 C 0.55357 0.1464 0.88095 0.0
C1879 C 0.55635 0.14421 0.89301 0.0
C1880 C 0.78463 0.5618 0.88353 0.0
C1881 C 0.81126 0.59578 0.87509 0.0
C1882 C 0.81176 0.55086 0.89401 0.0
C1883 C 0.86664 0.57375 0.8966 0.0
H1884 H 0.74239 0.5432 0.88203 0.0
H1885 H 0.78898 0.525 0.90021 0.0
S1886 S 0.95564 0.66505 0.87744 0.0
N1887 N 0.89644 0.65175 0.8701 0.0
N1888 N 0.947 0.6315 0.88965 0.0
C1889 C 0.89394 0.60746 0.8882 0.0
C1890 C 0.86646 0.61837 0.87752 0.0
C1891 C 0.62451 0.61161 0.14429 0.0
C1892 C 0.6806 0.59399 0.14738 0.0
C1893 C 0.60115 0.59866 0.13358 0.0
C1894 C 0.63236 0.56684 0.12542 0.0
H1895 H 0.59839 0.63635 0.15015 0.0
H1896 H 0.55813 0.61429 0.13168 0.0
S1897 S 0.78013 0.50753 0.12942 0.0
N1898 N 0.76625 0.54121 0.14144 0.0
N1899 N 0.72212 0.51624 0.12146 0.0
C1900 C 0.68811 0.54786 0.12848 0.0
C1901 C 0.71222 0.5616 0.13938 0.0
C1902 C 0.67308 0.38257 0.38142 0.0
C1903 C 0.72021 0.40809 0.37576 0.0
C1904 C 0.65487 0.40209 0.39215 0.0
C1905 C 0.68208 0.44893 0.39761 0.0
H1906 H 0.65019 0.34682 0.37757 0.0
H1907 H 0.61879 0.38049 0.39616 0.0
S1908 S 0.8071 0.53164 0.38639 0.0
N1909 N 0.79364 0.48307 0.3765 0.0
N1910 N 0.75896 0.52023 0.39645 0.0
C1911 C 0.72898 0.47516 0.392 0.0
C1912 C 0.74815 0.45464 0.38117 0.0
C1913 C 0.89955 0.36269 0.64154 0.0
C1914 C 0.85322 0.38392 0.64811 0.0
C1915 C 0.91474 0.38778 0.6311 0.0
C1916 C 0.88493 0.43593 0.62676 0.0
H1917 H 0.92478 0.32629 0.64449 0.0
H1918 H 0.95067 0.36947 0.62645 0.0
S1919 S 0.75867 0.50724 0.64026 0.0
N1920 N 0.77631 0.4552 0.64917 0.0
N1921 N 0.80531 0.50278 0.62972 0.0
C1922 C 0.8382 0.45746 0.63316 0.0
C1923 C 0.82224 0.43139 0.64375 0.0
C1924 C 0.06302 0.34075 0.131 0.0
C1925 C 0.10074 0.37455 0.12447 0.0
C1926 C 0.06408 0.34351 0.14285 0.0
C1927 C 0.10393 0.37904 0.1485 0.0
H1928 H 0.03237 0.31214 0.12692 0.0
H1929 H 0.03428 0.31695 0.14763 0.0
S1930 S 0.2121 0.47549 0.13524 0.0
N1931 N 0.17928 0.44414 0.12444 0.0
N1932 N 0.181 0.44962 0.14677 0.0
C1933 C 0.14175 0.41316 0.14207 0.0
C1934 C 0.14031 0.41075 0.13001 0.0
C1935 C 0.44318 0.35552 0.87758 0.0
C1936 C 0.40085 0.389 0.87216 0.0
C1937 C 0.4458 0.35262 0.88943 0.0
C1938 C 0.4071 0.38426 0.89618 0.0
H1939 H 0.47388 0.33082 0.87263 0.0
H1940 H 0.47848 0.32572 0.89334 0.0
S1941 S 0.2888 0.47869 0.88598 0.0
N1942 N 0.31981 0.4546 0.87429 0.0
N1943 N 0.32484 0.44941 0.89661 0.0
C1944 C 0.36494 0.41829 0.89084 0.0
C1945 C 0.36182 0.42064 0.87879 0.0
C1946 C 0.3852 0.62071 0.64018 0.0
C1947 C 0.42698 0.64585 0.6473 0.0
C1948 C 0.39245 0.6198 0.62841 0.0
C1949 C 0.44194 0.64351 0.62337 0.0
H1950 H 0.34675 0.60121 0.64371 0.0
H1951 H 0.35857 0.60138 0.62321 0.0
S1952 S 0.56615 0.71022 0.63819 0.0
N1953 N 0.52104 0.69238 0.64845 0.0
N1954 N 0.5345 0.69045 0.62626 0.0
C1955 C 0.4846 0.66768 0.63035 0.0
C1956 C 0.47738 0.66846 0.64234 0.0
C1957 C 0.05574 0.6487 0.37999 0.0
C1958 C 0.09899 0.62389 0.37321 0.0
C1959 C 0.06108 0.64999 0.39181 0.0
C1960 C 0.10914 0.62534 0.39721 0.0
H1961 H 0.01824 0.66852 0.3761 0.0
H1962 H 0.02752 0.67057 0.39677 0.0
S1963 S 0.23117 0.54978 0.3834 0.0
N1964 N 0.18906 0.56986 0.3728 0.0
N1965 N 0.19935 0.5731 0.39506 0.0
C1966 C 0.15161 0.59852 0.39059 0.0
C1967 C 0.14641 0.59748 0.37855 0.0
loop_
_geom_bond_atom_site_label_1
_geom_bond_atom_site_label_2
_geom_bond_distance
_geom_bond_site_symmetry_2
_ccdc_geom_bond_type
Co0 O3 1.970 . S
Co0 N17 1.989 . S
Co0 O25 1.967 . S
Co0 O32 1.920 . S
Co1 O4 1.966 . S
Co1 N10 2.022 . S
Co1 N18 1.993 . S
Co1 O26 1.941 . S
C2 O3 1.258 . S
C2 O4 1.263 . S
O3 Co0 1.970 . S
O3 C2 1.258 . S
O4 Co1 1.966 . S
O4 C2 1.263 . S
C5 O6 1.235 . S
C5 O32 1.289 . S
O6 C5 1.235 . S
C7 C9 1.400 . S
C7 N10 1.351 . S
C7 C12 1.501 . S
C8 C9 1.387 . S
C8 N11 1.341 . S
C9 C7 1.400 . S
C9 C8 1.387 . S
N10 Co1 2.022 . S
N10 C7 1.351 . S
N10 N11 1.365 . S
N11 C8 1.341 . S
N11 N10 1.365 . S
N11 H31 0.862 . S
C12 C7 1.501 . S
C12 H13 0.961 . S
C12 H14 0.961 . S
C12 H15 0.960 . S
H13 C12 0.961 . S
H14 C12 0.961 . S
H15 C12 0.960 . S
C16 N17 1.342 . S
C16 C20 1.401 . S
C16 C21 1.499 . S
N17 Co0 1.989 . S
N17 C16 1.342 . S
N17 N18 1.388 . S
N18 Co1 1.993 . S
N18 N17 1.388 . S
N18 C19 1.346 . S
C19 N18 1.346 . S
C19 C20 1.396 . S
C19 C29 1.510 . S
C20 C16 1.401 . S
C20 C19 1.396 . S
C21 C16 1.499 . S
C21 H22 0.959 . S
C21 H23 0.960 . S
C21 H24 0.961 . S
H22 C21 0.959 . S
H23 C21 0.960 . S
H24 C21 0.961 . S
O25 Co0 1.967 . S
O25 C33 1.258 . S
O26 Co1 1.941 . S
O26 C33 1.266 . S
H27 C29 0.959 . S
H28 C29 0.961 . S
C29 C19 1.510 . S
C29 H27 0.959 . S
C29 H28 0.961 . S
C29 H30 0.960 . S
H30 C29 0.960 . S
H31 N11 0.862 . S
O32 Co0 1.920 . S
O32 C5 1.289 . S
C33 O25 1.258 . S
C33 O26 1.266 . S
Co34 O37 1.970 1_455 S
Co34 N51 1.989 . S
Co34 O59 1.967 . S
Co34 O66 1.920 . S
Co35 O38 1.966 1_455 S
Co35 N44 2.022 . S
Co35 N52 1.993 . S
Co35 O60 1.941 . S
C36 O37 1.258 . S
C36 O38 1.263 . S
O37 Co34 1.970 1_655 S
O37 C36 1.258 . S
O38 Co35 1.966 1_655 S
O38 C36 1.263 . S
C39 O40 1.235 1_545 S
C39 O66 1.289 . S
O40 C39 1.235 1_565 S
C41 C43 1.400 . S
C41 N44 1.351 . S
C41 C46 1.501 1_445 S
C42 C43 1.387 . S
C42 N45 1.341 . S
C43 C41 1.400 . S
C43 C42 1.387 . S
N44 Co35 2.022 . S
N44 C41 1.351 . S
N44 N45 1.365 . S
N45 C42 1.341 . S
N45 N44 1.365 . S
N45 H65 0.862 . S
C46 C41 1.501 1_665 S
C46 H47 0.961 . S
C46 H48 0.961 . S
C46 H49 0.960 . S
H47 C46 0.961 . S
H48 C46 0.961 . S
H49 C46 0.960 . S
C50 N51 1.342 . S
C50 C54 1.401 . S
C50 C55 1.499 . S
N51 Co34 1.989 . S
N51 C50 1.342 . S
N51 N52 1.388 . S
N52 Co35 1.993 . S
N52 N51 1.388 . S
N52 C53 1.346 . S
C53 N52 1.346 . S
C53 C54 1.396 . S
C53 C63 1.510 . S
C54 C50 1.401 . S
C54 C53 1.396 . S
C55 C50 1.499 . S
C55 H56 0.959 . S
C55 H57 0.960 . S
C55 H58 0.961 . S
H56 C55 0.959 . S
H57 C55 0.960 . S
H58 C55 0.961 . S
O59 Co34 1.967 . S
O59 C67 1.258 . S
O60 Co35 1.941 . S
O60 C67 1.266 . S
H61 C63 0.959 . S
H62 C63 0.961 1_565 S
C63 C53 1.510 . S
C63 H61 0.959 . S
C63 H62 0.961 1_545 S
C63 H64 0.960 . S
H64 C63 0.960 . S
H65 N45 0.862 . S
O66 Co34 1.920 . S
O66 C39 1.289 . S
C67 O59 1.258 . S
C67 O60 1.266 . S
Co68 O71 1.970 . S
Co68 N85 1.989 . S
Co68 O93 1.967 . S
Co68 O100 1.920 . S
Co69 O72 1.966 . S
Co69 N78 2.022 . S
Co69 N86 1.993 . S
Co69 O94 1.941 . S
C70 O71 1.258 . S
C70 O72 1.263 . S
O71 Co68 1.970 . S
O71 C70 1.258 . S
O72 Co69 1.966 . S
O72 C70 1.263 . S
C73 O74 1.235 . S
C73 O100 1.289 . S
O74 C73 1.235 . S
C75 C77 1.400 . S
C75 N78 1.351 . S
C75 C80 1.501 . S
C76 C77 1.387 . S
C76 N79 1.341 . S
C77 C75 1.400 . S
C77 C76 1.387 . S
N78 Co69 2.022 . S
N78 C75 1.351 . S
N78 N79 1.365 . S
N79 C76 1.341 . S
N79 N78 1.365 . S
N79 H99 0.862 . S
C80 C75 1.501 . S
C80 H81 0.961 . S
C80 H82 0.961 . S
C80 H83 0.960 . S
H81 C80 0.961 . S
H82 C80 0.961 . S
H83 C80 0.960 . S
C84 N85 1.342 . S
C84 C88 1.401 . S
C84 C89 1.499 . S
N85 Co68 1.989 . S
N85 C84 1.342 . S
N85 N86 1.388 . S
N86 Co69 1.993 . S
N86 N85 1.388 . S
N86 C87 1.346 . S
C87 N86 1.346 . S
C87 C88 1.396 . S
C87 C97 1.510 . S
C88 C84 1.401 . S
C88 C87 1.396 . S
C89 C84 1.499 . S
C89 H90 0.959 . S
C89 H91 0.960 . S
C89 H92 0.961 . S
H90 C89 0.959 . S
H91 C89 0.960 . S
H92 C89 0.961 . S
O93 Co68 1.967 . S
O93 C101 1.258 . S
O94 Co69 1.941 . S
O94 C101 1.266 . S
H95 C97 0.959 . S
H96 C97 0.961 . S
C97 C87 1.510 . S
C97 H95 0.959 . S
C97 H96 0.961 . S
C97 H98 0.960 . S
H98 C97 0.960 . S
H99 N79 0.862 . S
O100 Co68 1.920 . S
O100 C73 1.289 . S
C101 O93 1.258 . S
C101 O94 1.266 . S
Co102 O105 1.970 . S
Co102 N119 1.989 . S
Co102 O127 1.967 . S
Co102 O134 1.920 . S
Co103 O106 1.966 . S
Co103 N112 2.022 . S
Co103 N120 1.993 . S
Co103 O128 1.941 . S
C104 O105 1.258 . S
C104 O106 1.263 . S
O105 Co102 1.970 . S
O105 C104 1.258 . S
O106 Co103 1.966 . S
O106 C104 1.263 . S
C107 O108 1.215 1_565 S
C107 O134 1.289 . S
O108 C107 1.215 1_545 S
C109 C111 1.400 . S
C109 N112 1.351 . S
C109 C114 1.501 1_565 S
C110 C111 1.387 . S
C110 N113 1.341 . S
C111 C109 1.400 . S
C111 C110 1.387 . S
N112 Co103 2.022 . S
N112 C109 1.351 . S
N112 N113 1.365 . S
N113 C110 1.341 . S
N113 N112 1.365 . S
N113 H133 0.862 . S
C114 C109 1.501 1_545 S
C114 H115 0.961 . S
C114 H116 0.961 . S
C114 H117 0.960 . S
H115 C114 0.961 . S
H116 C114 0.961 . S
H117 C114 0.960 . S
C118 N119 1.342 . S
C118 C122 1.401 . S
C118 C123 1.499 . S
N119 Co102 1.989 . S
N119 C118 1.342 . S
N119 N120 1.388 . S
N120 Co103 1.993 . S
N120 N119 1.388 . S
N120 C121 1.346 . S
C121 N120 1.346 . S
C121 C122 1.396 . S
C121 C131 1.510 . S
C122 C118 1.401 . S
C122 C121 1.396 . S
C123 C118 1.499 . S
C123 H124 0.959 . S
C123 H125 0.960 . S
C123 H126 0.961 . S
H124 C123 0.959 . S
H125 C123 0.960 . S
H126 C123 0.961 . S
O127 Co102 1.967 . S
O127 C135 1.258 . S
O128 Co103 1.941 . S
O128 C135 1.266 . S
H129 C131 0.959 . S
H130 C131 0.961 1_545 S
C131 C121 1.510 . S
C131 H129 0.959 . S
C131 H130 0.961 1_565 S
C131 H132 0.960 . S
H132 C131 0.960 . S
H133 N113 0.862 . S
O134 Co102 1.920 . S
O134 C107 1.289 . S
C135 O127 1.258 . S
C135 O128 1.266 . S
Co136 O139 1.970 . S
Co136 N153 1.989 . S
Co136 O161 1.967 . S
Co136 O168 1.920 . S
Co137 O140 1.966 . S
Co137 N146 2.022 . S
Co137 N154 1.993 . S
Co137 O162 1.941 . S
C138 O139 1.258 . S
C138 O140 1.263 . S
O139 Co136 1.970 . S
O139 C138 1.258 . S
O140 Co137 1.966 . S
O140 C138 1.263 . S
C141 O142 1.235 . S
C141 O168 1.289 . S
O142 C141 1.235 . S
C143 C145 1.400 . S
C143 N146 1.351 . S
C143 C148 1.501 . S
C144 C145 1.387 . S
C144 N147 1.341 . S
C145 C143 1.400 . S
C145 C144 1.387 . S
N146 Co137 2.022 . S
N146 C143 1.351 . S
N146 N147 1.365 . S
N147 C144 1.341 . S
N147 N146 1.365 . S
N147 H167 0.862 . S
C148 C143 1.501 . S
C148 H149 0.961 . S
C148 H150 0.961 . S
C148 H151 0.960 . S
H149 C148 0.961 . S
H150 C148 0.961 . S
H151 C148 0.960 . S
C152 N153 1.342 . S
C152 C156 1.401 . S
C152 C157 1.499 . S
N153 Co136 1.989 . S
N153 C152 1.342 . S
N153 N154 1.388 . S
N154 Co137 1.993 . S
N154 N153 1.388 . S
N154 C155 1.346 . S
C155 N154 1.346 . S
C155 C156 1.396 . S
C155 C165 1.510 . S
C156 C152 1.401 . S
C156 C155 1.396 . S
C157 C152 1.499 . S
C157 H158 0.959 . S
C157 H159 0.960 . S
C157 H160 0.961 . S
H158 C157 0.959 . S
H159 C157 0.960 . S
H160 C157 0.961 . S
O161 Co136 1.967 . S
O161 C169 1.258 . S
O162 Co137 1.941 . S
O162 C169 1.266 . S
H163 C165 0.959 . S
H164 C165 0.961 . S
C165 C155 1.510 . S
C165 H163 0.959 . S
C165 H164 0.961 . S
C165 H166 0.960 . S
H166 C165 0.960 . S
H167 N147 0.862 . S
O168 Co136 1.920 . S
O168 C141 1.289 . S
C169 O161 1.258 . S
C169 O162 1.266 . S
Co170 O173 1.970 . S
Co170 N187 1.989 . S
Co170 O195 1.967 . S
Co170 O202 1.920 . S
Co171 O174 1.966 . S
Co171 N180 2.022 . S
Co171 N188 1.993 . S
Co171 O196 1.941 . S
C172 O173 1.258 . S
C172 O174 1.263 . S
O173 Co170 1.970 . S
O173 C172 1.258 . S
O174 Co171 1.966 . S
O174 C172 1.263 . S
C175 O176 1.215 1_545 S
C175 O202 1.289 . S
O176 C175 1.215 1_565 S
C177 C179 1.400 . S
C177 N180 1.351 . S
C177 C182 1.501 1_545 S
C178 C179 1.387 . S
C178 N181 1.341 . S
C179 C177 1.400 . S
C179 C178 1.387 . S
N180 Co171 2.022 . S
N180 C177 1.351 . S
N180 N181 1.365 . S
N181 C178 1.341 . S
N181 N180 1.365 . S
N181 H201 0.862 . S
C182 C177 1.501 1_565 S
C182 H183 0.961 . S
C182 H184 0.961 . S
C182 H185 0.960 . S
H183 C182 0.961 . S
H184 C182 0.961 . S
H185 C182 0.960 . S
C186 N187 1.342 . S
C186 C190 1.401 . S
C186 C191 1.499 . S
N187 Co170 1.989 . S
N187 C186 1.342 . S
N187 N188 1.388 . S
N188 Co171 1.993 . S
N188 N187 1.388 . S
N188 C189 1.346 . S
C189 N188 1.346 . S
C189 C190 1.396 . S
C189 C199 1.510 . S
C190 C186 1.401 . S
C190 C189 1.396 . S
C191 C186 1.499 . S
C191 H192 0.959 . S
C191 H193 0.960 . S
C191 H194 0.961 . S
H192 C191 0.959 . S
H193 C191 0.960 . S
H194 C191 0.961 . S
O195 Co170 1.967 . S
O195 C203 1.258 . S
O196 Co171 1.941 . S
O196 C203 1.266 . S
H197 C199 0.959 . S
H198 C199 0.961 1_565 S
C199 C189 1.510 . S
C199 H197 0.959 . S
C199 H198 0.961 1_545 S
C199 H200 0.960 . S
H200 C199 0.960 . S
H201 N181 0.862 . S
O202 Co170 1.920 . S
O202 C175 1.289 . S
C203 O195 1.258 . S
C203 O196 1.266 . S
Co204 O207 1.970 . S
Co204 N221 1.989 . S
Co204 O229 1.967 . S
Co204 O236 1.920 . S
Co205 O208 1.966 . S
Co205 N214 2.022 . S
Co205 N222 1.993 . S
Co205 O230 1.941 . S
C206 O207 1.258 . S
C206 O208 1.263 . S
O207 Co204 1.970 . S
O207 C206 1.258 . S
O208 Co205 1.966 . S
O208 C206 1.263 . S
C209 O210 1.235 . S
C209 O236 1.289 . S
O210 C209 1.235 . S
C211 C213 1.400 . S
C211 N214 1.351 . S
C211 C216 1.501 . S
C212 C213 1.387 . S
C212 N215 1.341 . S
C213 C211 1.400 . S
C213 C212 1.387 . S
N214 Co205 2.022 . S
N214 C211 1.351 . S
N214 N215 1.365 . S
N215 C212 1.341 . S
N215 N214 1.365 . S
N215 H235 0.862 . S
C216 C211 1.501 . S
C216 H217 0.961 . S
C216 H218 0.961 . S
C216 H219 0.960 . S
H217 C216 0.961 . S
H218 C216 0.961 . S
H219 C216 0.960 . S
C220 N221 1.342 . S
C220 C224 1.401 . S
C220 C225 1.499 . S
N221 Co204 1.989 . S
N221 C220 1.342 . S
N221 N222 1.388 . S
N222 Co205 1.993 . S
N222 N221 1.388 . S
N222 C223 1.346 . S
C223 N222 1.346 . S
C223 C224 1.396 . S
C223 C233 1.510 . S
C224 C220 1.401 . S
C224 C223 1.396 . S
C225 C220 1.499 . S
C225 H226 0.959 . S
C225 H227 0.960 . S
C225 H228 0.961 . S
H226 C225 0.959 . S
H227 C225 0.960 . S
H228 C225 0.961 . S
O229 Co204 1.967 . S
O229 C237 1.258 . S
O230 Co205 1.941 . S
O230 C237 1.266 . S
H231 C233 0.959 . S
H232 C233 0.961 . S
C233 C223 1.510 . S
C233 H231 0.959 . S
C233 H232 0.961 . S
C233 H234 0.960 . S
H234 C233 0.960 . S
H235 N215 0.862 . S
O236 Co204 1.920 . S
O236 C209 1.289 . S
C237 O229 1.258 . S
C237 O230 1.266 . S
Co238 O241 1.970 1_455 S
Co238 N255 1.989 . S
Co238 O263 1.967 . S
Co238 O270 1.920 . S
Co239 O242 1.966 1_455 S
Co239 N248 2.022 . S
Co239 N256 1.993 . S
Co239 O264 1.941 . S
C240 O241 1.258 . S
C240 O242 1.263 . S
O241 Co238 1.970 1_655 S
O241 C240 1.258 . S
O242 Co239 1.966 1_655 S
O242 C240 1.263 . S
C243 O244 1.235 1_565 S
C243 O270 1.289 . S
O244 C243 1.235 1_545 S
C245 C247 1.400 . S
C245 N248 1.351 . S
C245 C250 1.501 1_465 S
C246 C247 1.387 . S
C246 N249 1.341 . S
C247 C245 1.400 . S
C247 C246 1.387 . S
N248 Co239 2.022 . S
N248 C245 1.351 . S
N248 N249 1.365 . S
N249 C246 1.341 . S
N249 N248 1.365 . S
N249 H269 0.862 . S
C250 C245 1.501 1_645 S
C250 H251 0.961 . S
C250 H252 0.961 . S
C250 H253 0.960 . S
H251 C250 0.961 . S
H252 C250 0.961 . S
H253 C250 0.960 . S
C254 N255 1.342 . S
C254 C258 1.401 . S
C254 C259 1.499 . S
N255 Co238 1.989 . S
N255 C254 1.342 . S
N255 N256 1.388 . S
N256 Co239 1.993 . S
N256 N255 1.388 . S
N256 C257 1.346 . S
C257 N256 1.346 . S
C257 C258 1.396 . S
C257 C267 1.510 . S
C258 C254 1.401 . S
C258 C257 1.396 . S
C259 C254 1.499 . S
C259 H260 0.959 . S
C259 H261 0.960 . S
C259 H262 0.961 . S
H260 C259 0.959 . S
H261 C259 0.960 . S
H262 C259 0.961 . S
O263 Co238 1.967 . S
O263 C271 1.258 . S
O264 Co239 1.941 . S
O264 C271 1.266 . S
H265 C267 0.959 . S
H266 C267 0.961 1_545 S
C267 C257 1.510 . S
C267 H265 0.959 . S
C267 H266 0.961 1_565 S
C267 H268 0.960 . S
H268 C267 0.960 . S
H269 N249 0.862 . S
O270 Co238 1.920 . S
O270 C243 1.289 . S
C271 O263 1.258 . S
C271 O264 1.266 . S
Co272 O275 1.970 . S
Co272 N289 1.989 . S
Co272 O297 1.967 . S
Co272 O304 1.920 . S
Co273 O276 1.966 . S
Co273 N282 2.022 . S
Co273 N290 1.993 . S
Co273 O298 1.941 . S
C274 O275 1.258 . S
C274 O276 1.263 . S
O275 Co272 1.970 . S
O275 C274 1.258 . S
O276 Co273 1.966 . S
O276 C274 1.263 . S
C277 O278 1.235 . S
C277 O304 1.289 . S
O278 C277 1.235 . S
C279 C281 1.400 . S
C279 N282 1.351 . S
C279 C284 1.501 . S
C280 C281 1.387 . S
C280 N283 1.341 . S
C281 C279 1.400 . S
C281 C280 1.387 . S
N282 Co273 2.022 . S
N282 C279 1.351 . S
N282 N283 1.365 . S
N283 C280 1.341 . S
N283 N282 1.365 . S
N283 H303 0.862 . S
C284 C279 1.501 . S
C284 H285 0.961 . S
C284 H286 0.961 . S
C284 H287 0.960 . S
H285 C284 0.961 . S
H286 C284 0.961 . S
H287 C284 0.960 . S
C288 N289 1.342 . S
C288 C292 1.401 . S
C288 C293 1.499 . S
N289 Co272 1.989 . S
N289 C288 1.342 . S
N289 N290 1.388 . S
N290 Co273 1.993 . S
N290 N289 1.388 . S
N290 C291 1.346 . S
C291 N290 1.346 . S
C291 C292 1.396 . S
C291 C301 1.510 . S
C292 C288 1.401 . S
C292 C291 1.396 . S
C293 C288 1.499 . S
C293 H294 0.959 . S
C293 H295 0.960 . S
C293 H296 0.961 . S
H294 C293 0.959 . S
H295 C293 0.960 . S
H296 C293 0.961 . S
O297 Co272 1.967 . S
O297 C305 1.258 . S
O298 Co273 1.941 . S
O298 C305 1.266 . S
H299 C301 0.959 . S
H300 C301 0.961 . S
C301 C291 1.510 . S
C301 H299 0.959 . S
C301 H300 0.961 . S
C301 H302 0.960 . S
H302 C301 0.960 . S
H303 N283 0.862 . S
O304 Co272 1.920 . S
O304 C277 1.289 . S
C305 O297 1.258 . S
C305 O298 1.266 . S
Co306 O309 1.970 1_655 S
Co306 N323 1.989 . S
Co306 O331 1.967 . S
Co306 O338 1.920 . S
Co307 O310 1.966 1_655 S
Co307 N316 2.022 . S
Co307 N324 1.993 . S
Co307 O332 1.941 . S
C308 O309 1.258 . S
C308 O310 1.263 . S
O309 Co306 1.970 1_455 S
O309 C308 1.258 . S
O310 Co307 1.966 1_455 S
O310 C308 1.263 . S
C311 O312 1.235 1_565 S
C311 O338 1.289 . S
O312 C311 1.235 1_545 S
C313 C315 1.400 . S
C313 N316 1.351 . S
C313 C318 1.501 . S
C314 C315 1.387 . S
C314 N317 1.341 . S
C315 C313 1.400 . S
C315 C314 1.387 . S
N316 Co307 2.022 . S
N316 C313 1.351 . S
N316 N317 1.365 . S
N317 C314 1.341 . S
N317 N316 1.365 . S
N317 H337 0.862 . S
C318 C313 1.501 . S
C318 H319 0.961 . S
C318 H320 0.961 1_565 S
C318 H321 0.960 1_655 S
H319 C318 0.961 . S
H320 C318 0.961 1_545 S
H321 C318 0.960 1_455 S
C322 N323 1.342 . S
C322 C326 1.401 . S
C322 C327 1.499 . S
N323 Co306 1.989 . S
N323 C322 1.342 . S
N323 N324 1.388 . S
N324 Co307 1.993 . S
N324 N323 1.388 . S
N324 C325 1.346 . S
C325 N324 1.346 . S
C325 C326 1.396 . S
C325 C335 1.510 . S
C326 C322 1.401 . S
C326 C325 1.396 . S
C327 C322 1.499 . S
C327 H328 0.959 . S
C327 H329 0.960 1_565 S
C327 H330 0.961 . S
H328 C327 0.959 . S
H329 C327 0.960 1_545 S
H330 C327 0.961 . S
O331 Co306 1.967 . S
O331 C339 1.258 . S
O332 Co307 1.941 . S
O332 C339 1.266 . S
H333 C335 0.959 . S
H334 C335 0.961 1_545 S
C335 C325 1.510 . S
C335 H333 0.959 . S
C335 H334 0.961 1_565 S
C335 H336 0.960 . S
H336 C335 0.960 . S
H337 N317 0.862 . S
O338 Co306 1.920 . S
O338 C311 1.289 . S
C339 O331 1.258 . S
C339 O332 1.266 . S
Co340 O343 1.970 . S
Co340 N357 1.989 . S
Co340 O365 1.967 . S
Co340 O372 1.920 . S
Co341 O344 1.966 . S
Co341 N350 2.022 . S
Co341 N358 1.993 . S
Co341 O366 1.941 . S
C342 O343 1.258 . S
C342 O344 1.263 . S
O343 Co340 1.970 . S
O343 C342 1.258 . S
O344 Co341 1.966 . S
O344 C342 1.263 . S
C345 O346 1.235 . S
C345 O372 1.289 . S
O346 C345 1.235 . S
C347 C349 1.400 . S
C347 N350 1.351 . S
C347 C352 1.501 . S
C348 C349 1.387 . S
C348 N351 1.341 . S
C349 C347 1.400 . S
C349 C348 1.387 . S
N350 Co341 2.022 . S
N350 C347 1.351 . S
N350 N351 1.365 . S
N351 C348 1.341 . S
N351 N350 1.365 . S
N351 H371 0.862 . S
C352 C347 1.501 . S
C352 H353 0.961 . S
C352 H354 0.961 . S
C352 H355 0.960 . S
H353 C352 0.961 . S
H354 C352 0.961 . S
H355 C352 0.960 . S
C356 N357 1.342 . S
C356 C360 1.401 . S
C356 C361 1.499 . S
N357 Co340 1.989 . S
N357 C356 1.342 . S
N357 N358 1.388 . S
N358 Co341 1.993 . S
N358 N357 1.388 . S
N358 C359 1.346 . S
C359 N358 1.346 . S
C359 C360 1.396 . S
C359 C369 1.510 . S
C360 C356 1.401 . S
C360 C359 1.396 . S
C361 C356 1.499 . S
C361 H362 0.959 . S
C361 H363 0.960 . S
C361 H364 0.961 . S
H362 C361 0.959 . S
H363 C361 0.960 . S
H364 C361 0.961 . S
O365 Co340 1.967 . S
O365 C373 1.258 . S
O366 Co341 1.941 . S
O366 C373 1.266 . S
H367 C369 0.959 . S
H368 C369 0.961 . S
C369 C359 1.510 . S
C369 H367 0.959 . S
C369 H368 0.961 . S
C369 H370 0.960 . S
H370 C369 0.960 . S
H371 N351 0.862 . S
O372 Co340 1.920 . S
O372 C345 1.289 . S
C373 O365 1.258 . S
C373 O366 1.266 . S
Co374 O377 1.970 . S
Co374 N391 1.989 . S
Co374 O399 1.967 . S
Co374 O406 1.920 . S
Co375 O378 1.966 . S
Co375 N384 2.022 . S
Co375 N392 1.993 . S
Co375 O400 1.941 . S
C376 O377 1.258 . S
C376 O378 1.263 . S
O377 Co374 1.970 . S
O377 C376 1.258 . S
O378 Co375 1.966 . S
O378 C376 1.263 . S
C379 O380 1.235 1_545 S
C379 O406 1.289 . S
O380 C379 1.235 1_565 S
C381 C383 1.400 . S
C381 N384 1.351 . S
C381 C386 1.501 . S
C382 C383 1.387 . S
C382 N385 1.341 . S
C383 C381 1.400 . S
C383 C382 1.387 . S
N384 Co375 2.022 . S
N384 C381 1.351 . S
N384 N385 1.365 . S
N385 C382 1.341 . S
N385 N384 1.365 . S
N385 H405 0.862 . S
C386 C381 1.501 . S
C386 H387 0.961 . S
C386 H388 0.961 1_545 S
C386 H389 0.960 . S
H387 C386 0.961 . S
H388 C386 0.961 1_565 S
H389 C386 0.960 . S
C390 N391 1.342 . S
C390 C394 1.401 . S
C390 C395 1.499 . S
N391 Co374 1.989 . S
N391 C390 1.342 . S
N391 N392 1.388 . S
N392 Co375 1.993 . S
N392 N391 1.388 . S
N392 C393 1.346 . S
C393 N392 1.346 . S
C393 C394 1.396 . S
C393 C403 1.510 . S
C394 C390 1.401 . S
C394 C393 1.396 . S
C395 C390 1.499 . S
C395 H396 0.959 . S
C395 H397 0.960 1_545 S
C395 H398 0.961 . S
H396 C395 0.959 . S
H397 C395 0.960 1_565 S
H398 C395 0.961 . S
O399 Co374 1.967 . S
O399 C407 1.258 . S
O400 Co375 1.941 . S
O400 C407 1.266 . S
H401 C403 0.959 . S
H402 C403 0.961 1_565 S
C403 C393 1.510 . S
C403 H401 0.959 . S
C403 H402 0.961 1_545 S
C403 H404 0.960 . S
H404 C403 0.960 . S
H405 N385 0.862 . S
O406 Co374 1.920 . S
O406 C379 1.289 . S
C407 O399 1.258 . S
C407 O400 1.266 . S
Co408 O411 1.970 . S
Co408 N425 1.989 . S
Co408 O433 1.967 . S
Co408 O440 1.920 . S
Co409 O412 1.966 . S
Co409 N418 2.022 . S
Co409 N426 1.993 . S
Co409 O434 1.941 . S
C410 O411 1.258 . S
C410 O412 1.263 . S
O411 Co408 1.970 . S
O411 C410 1.258 . S
O412 Co409 1.966 . S
O412 C410 1.263 . S
C413 O414 1.235 . S
C413 O440 1.289 . S
O414 C413 1.235 . S
C415 C417 1.400 . S
C415 N418 1.351 . S
C415 C420 1.501 . S
C416 C417 1.387 . S
C416 N419 1.341 . S
C417 C415 1.400 . S
C417 C416 1.387 . S
N418 Co409 2.022 . S
N418 C415 1.351 . S
N418 N419 1.365 . S
N419 C416 1.341 . S
N419 N418 1.365 . S
N419 H439 0.862 . S
C420 C415 1.501 . S
C420 H421 0.961 . S
C420 H422 0.961 . S
C420 H423 0.960 . S
H421 C420 0.961 . S
H422 C420 0.961 . S
H423 C420 0.960 . S
C424 N425 1.342 . S
C424 C428 1.401 . S
C424 C429 1.499 . S
N425 Co408 1.989 . S
N425 C424 1.342 . S
N425 N426 1.388 . S
N426 Co409 1.993 . S
N426 N425 1.388 . S
N426 C427 1.346 . S
C427 N426 1.346 . S
C427 C428 1.396 . S
C427 C437 1.510 . S
C428 C424 1.401 . S
C428 C427 1.396 . S
C429 C424 1.499 . S
C429 H430 0.959 . S
C429 H431 0.960 . S
C429 H432 0.961 . S
H430 C429 0.959 . S
H431 C429 0.960 . S
H432 C429 0.961 . S
O433 Co408 1.967 . S
O433 C441 1.258 . S
O434 Co409 1.941 . S
O434 C441 1.266 . S
H435 C437 0.959 . S
H436 C437 0.961 . S
C437 C427 1.510 . S
C437 H435 0.959 . S
C437 H436 0.961 . S
C437 H438 0.960 . S
H438 C437 0.960 . S
H439 N419 0.862 . S
O440 Co408 1.920 . S
O440 C413 1.289 . S
C441 O433 1.258 . S
C441 O434 1.266 . S
Co442 O445 1.970 . S
Co442 N459 1.989 . S
Co442 O467 1.967 . S
Co442 O474 1.920 . S
Co443 O446 1.966 . S
Co443 N452 2.022 . S
Co443 N460 1.993 . S
Co443 O468 1.941 . S
C444 O445 1.258 . S
C444 O446 1.263 . S
O445 Co442 1.970 . S
O445 C444 1.258 . S
O446 Co443 1.966 . S
O446 C444 1.263 . S
C447 O448 1.235 1_565 S
C447 O474 1.289 . S
O448 C447 1.235 1_545 S
C449 C451 1.400 . S
C449 N452 1.351 . S
C449 C454 1.501 . S
C450 C451 1.387 . S
C450 N453 1.341 . S
C451 C449 1.400 . S
C451 C450 1.387 . S
N452 Co443 2.022 . S
N452 C449 1.351 . S
N452 N453 1.365 . S
N453 C450 1.341 . S
N453 N452 1.365 . S
N453 H473 0.862 . S
C454 C449 1.501 . S
C454 H455 0.961 . S
C454 H456 0.961 1_565 S
C454 H457 0.960 . S
H455 C454 0.961 . S
H456 C454 0.961 1_545 S
H457 C454 0.960 . S
C458 N459 1.342 . S
C458 C462 1.401 . S
C458 C463 1.499 . S
N459 Co442 1.989 . S
N459 C458 1.342 . S
N459 N460 1.388 . S
N460 Co443 1.993 . S
N460 N459 1.388 . S
N460 C461 1.346 . S
C461 N460 1.346 . S
C461 C462 1.396 . S
C461 C471 1.510 . S
C462 C458 1.401 . S
C462 C461 1.396 . S
C463 C458 1.499 . S
C463 H464 0.959 . S
C463 H465 0.960 1_565 S
C463 H466 0.961 . S
H464 C463 0.959 . S
H465 C463 0.960 1_545 S
H466 C463 0.961 . S
O467 Co442 1.967 . S
O467 C475 1.258 . S
O468 Co443 1.941 . S
O468 C475 1.266 . S
H469 C471 0.959 . S
H470 C471 0.961 1_545 S
C471 C461 1.510 . S
C471 H469 0.959 . S
C471 H470 0.961 1_565 S
C471 H472 0.960 . S
H472 C471 0.960 . S
H473 N453 0.862 . S
O474 Co442 1.920 . S
O474 C447 1.289 . S
C475 O467 1.258 . S
C475 O468 1.266 . S
Co476 O479 1.970 . S
Co476 N493 1.989 . S
Co476 O501 1.967 . S
Co476 O508 1.920 . S
Co477 O480 1.966 . S
Co477 N486 2.022 . S
Co477 N494 1.993 . S
Co477 O502 1.941 . S
C478 O479 1.258 . S
C478 O480 1.263 . S
O479 Co476 1.970 . S
O479 C478 1.258 . S
O480 Co477 1.966 . S
O480 C478 1.263 . S
C481 O482 1.235 . S
C481 O508 1.289 . S
O482 C481 1.235 . S
C483 C485 1.400 . S
C483 N486 1.351 . S
C483 C488 1.501 . S
C484 C485 1.387 . S
C484 N487 1.341 . S
C485 C483 1.400 . S
C485 C484 1.387 . S
N486 Co477 2.022 . S
N486 C483 1.351 . S
N486 N487 1.365 . S
N487 C484 1.341 . S
N487 N486 1.365 . S
N487 H507 0.862 . S
C488 C483 1.501 . S
C488 H489 0.961 . S
C488 H490 0.961 . S
C488 H491 0.960 . S
H489 C488 0.961 . S
H490 C488 0.961 . S
H491 C488 0.960 . S
C492 N493 1.342 . S
C492 C496 1.401 . S
C492 C497 1.499 . S
N493 Co476 1.989 . S
N493 C492 1.342 . S
N493 N494 1.388 . S
N494 Co477 1.993 . S
N494 N493 1.388 . S
N494 C495 1.346 . S
C495 N494 1.346 . S
C495 C496 1.396 . S
C495 C505 1.510 . S
C496 C492 1.401 . S
C496 C495 1.396 . S
C497 C492 1.499 . S
C497 H498 0.959 . S
C497 H499 0.960 . S
C497 H500 0.961 . S
H498 C497 0.959 . S
H499 C497 0.960 . S
H500 C497 0.961 . S
O501 Co476 1.967 . S
O501 C509 1.258 . S
O502 Co477 1.941 . S
O502 C509 1.266 . S
H503 C505 0.959 . S
H504 C505 0.961 . S
C505 C495 1.510 . S
C505 H503 0.959 . S
C505 H504 0.961 . S
C505 H506 0.960 . S
H506 C505 0.960 . S
H507 N487 0.862 . S
O508 Co476 1.920 . S
O508 C481 1.289 . S
C509 O501 1.258 . S
C509 O502 1.266 . S
Co510 O513 1.970 1_655 S
Co510 N527 1.989 . S
Co510 O535 1.967 . S
Co510 O542 1.920 . S
Co511 O514 1.966 1_655 S
Co511 N520 2.022 . S
Co511 N528 1.993 . S
Co511 O536 1.941 . S
C512 O513 1.258 . S
C512 O514 1.263 . S
O513 Co510 1.970 1_455 S
O513 C512 1.258 . S
O514 Co511 1.966 1_455 S
O514 C512 1.263 . S
C515 O516 1.235 1_545 S
C515 O542 1.289 . S
O516 C515 1.235 1_565 S
C517 C519 1.400 . S
C517 N520 1.351 . S
C517 C522 1.501 . S
C518 C519 1.387 . S
C518 N521 1.341 . S
C519 C517 1.400 . S
C519 C518 1.387 . S
N520 Co511 2.022 . S
N520 C517 1.351 . S
N520 N521 1.365 . S
N521 C518 1.341 . S
N521 N520 1.365 . S
N521 H541 0.862 . S
C522 C517 1.501 . S
C522 H523 0.961 . S
C522 H524 0.961 1_545 S
C522 H525 0.960 1_655 S
H523 C522 0.961 . S
H524 C522 0.961 1_565 S
H525 C522 0.960 1_455 S
C526 N527 1.342 . S
C526 C530 1.401 . S
C526 C531 1.499 . S
N527 Co510 1.989 . S
N527 C526 1.342 . S
N527 N528 1.388 . S
N528 Co511 1.993 . S
N528 N527 1.388 . S
N528 C529 1.346 . S
C529 N528 1.346 . S
C529 C530 1.396 . S
C529 C539 1.510 . S
C530 C526 1.401 . S
C530 C529 1.396 . S
C531 C526 1.499 . S
C531 H532 0.959 . S
C531 H533 0.960 1_545 S
C531 H534 0.961 . S
H532 C531 0.959 . S
H533 C531 0.960 1_565 S
H534 C531 0.961 . S
O535 Co510 1.967 . S
O535 C543 1.258 . S
O536 Co511 1.941 . S
O536 C543 1.266 . S
H537 C539 0.959 . S
H538 C539 0.961 1_565 S
C539 C529 1.510 . S
C539 H537 0.959 . S
C539 H538 0.961 1_545 S
C539 H540 0.960 . S
H540 C539 0.960 . S
H541 N521 0.862 . S
O542 Co510 1.920 . S
O542 C515 1.289 . S
C543 O535 1.258 . S
C543 O536 1.266 . S
Co544 O547 1.970 . S
Co544 N561 1.989 . S
Co544 O569 1.967 . S
Co544 O576 1.920 . S
Co545 O548 1.966 . S
Co545 N554 2.022 . S
Co545 N562 1.993 . S
Co545 O570 1.941 . S
C546 O547 1.258 . S
C546 O548 1.263 . S
O547 Co544 1.970 . S
O547 C546 1.258 . S
O548 Co545 1.966 . S
O548 C546 1.263 . S
C549 O550 1.235 . S
C549 O576 1.289 . S
O550 C549 1.235 . S
C551 C553 1.400 . S
C551 N554 1.351 . S
C551 C556 1.501 . S
C552 C553 1.387 . S
C552 N555 1.341 . S
C553 C551 1.400 . S
C553 C552 1.387 . S
N554 Co545 2.022 . S
N554 C551 1.351 . S
N554 N555 1.365 . S
N555 C552 1.341 . S
N555 N554 1.365 . S
N555 H575 0.862 . S
C556 C551 1.501 . S
C556 H557 0.961 . S
C556 H558 0.961 . S
C556 H559 0.960 . S
H557 C556 0.961 . S
H558 C556 0.961 . S
H559 C556 0.960 . S
C560 N561 1.342 . S
C560 C564 1.401 . S
C560 C565 1.499 . S
N561 Co544 1.989 . S
N561 C560 1.342 . S
N561 N562 1.388 . S
N562 Co545 1.993 . S
N562 N561 1.388 . S
N562 C563 1.346 . S
C563 N562 1.346 . S
C563 C564 1.396 . S
C563 C573 1.510 . S
C564 C560 1.401 . S
C564 C563 1.396 . S
C565 C560 1.499 . S
C565 H566 0.959 . S
C565 H567 0.960 . S
C565 H568 0.961 . S
H566 C565 0.959 . S
H567 C565 0.960 . S
H568 C565 0.961 . S
O569 Co544 1.967 . S
O569 C577 1.258 . S
O570 Co545 1.941 . S
O570 C577 1.266 . S
H571 C573 0.959 . S
H572 C573 0.961 . S
C573 C563 1.510 . S
C573 H571 0.959 . S
C573 H572 0.961 . S
C573 H574 0.960 . S
H574 C573 0.960 . S
H575 N555 0.862 . S
O576 Co544 1.920 . S
O576 C549 1.289 . S
C577 O569 1.258 . S
C577 O570 1.266 . S
Co578 O581 1.970 . S
Co578 N595 1.989 . S
Co578 O603 1.967 . S
Co578 O610 1.920 . S
Co579 O582 1.966 . S
Co579 N588 2.022 . S
Co579 N596 1.993 . S
Co579 O604 1.941 . S
C580 O581 1.258 . S
C580 O582 1.263 . S
O581 Co578 1.970 . S
O581 C580 1.258 . S
O582 Co579 1.966 . S
O582 C580 1.263 . S
C583 O584 1.235 . S
C583 O610 1.289 . S
O584 C583 1.235 . S
C585 C587 1.400 . S
C585 N588 1.351 . S
C585 C590 1.501 . S
C586 C587 1.387 . S
C586 N589 1.341 . S
C587 C585 1.400 . S
C587 C586 1.387 . S
N588 Co579 2.022 . S
N588 C585 1.351 . S
N588 N589 1.365 . S
N589 C586 1.341 . S
N589 N588 1.365 . S
N589 H609 0.862 . S
C590 C585 1.501 . S
C590 H591 0.961 . S
C590 H592 0.961 . S
C590 H593 0.960 . S
H591 C590 0.961 . S
H592 C590 0.961 . S
H593 C590 0.960 . S
C594 N595 1.342 . S
C594 C598 1.401 . S
C594 C599 1.499 . S
N595 Co578 1.989 . S
N595 C594 1.342 . S
N595 N596 1.388 . S
N596 Co579 1.993 . S
N596 N595 1.388 . S
N596 C597 1.346 . S
C597 N596 1.346 . S
C597 C598 1.396 . S
C597 C607 1.510 . S
C598 C594 1.401 . S
C598 C597 1.396 . S
C599 C594 1.499 . S
C599 H600 0.959 . S
C599 H601 0.960 . S
C599 H602 0.961 . S
H600 C599 0.959 . S
H601 C599 0.960 . S
H602 C599 0.961 . S
O603 Co578 1.967 . S
O603 C611 1.258 . S
O604 Co579 1.941 . S
O604 C611 1.266 . S
H605 C607 0.959 . S
H606 C607 0.961 . S
C607 C597 1.510 . S
C607 H605 0.959 . S
C607 H606 0.961 . S
C607 H608 0.960 . S
H608 C607 0.960 . S
H609 N589 0.862 . S
O610 Co578 1.920 . S
O610 C583 1.289 . S
C611 O603 1.258 . S
C611 O604 1.266 . S
Co612 O615 1.970 . S
Co612 N629 1.989 . S
Co612 O637 1.967 . S
Co612 O644 1.920 . S
Co613 O616 1.966 . S
Co613 N622 2.022 . S
Co613 N630 1.993 . S
Co613 O638 1.941 . S
C614 O615 1.258 . S
C614 O616 1.263 . S
O615 Co612 1.970 . S
O615 C614 1.258 . S
O616 Co613 1.966 . S
O616 C614 1.263 . S
C617 O618 1.235 . S
C617 O644 1.289 . S
O618 C617 1.235 . S
C619 C621 1.400 . S
C619 N622 1.351 . S
C619 C624 1.501 . S
C620 C621 1.387 . S
C620 N623 1.341 . S
C621 C619 1.400 . S
C621 C620 1.387 . S
N622 Co613 2.022 . S
N622 C619 1.351 . S
N622 N623 1.365 . S
N623 C620 1.341 . S
N623 N622 1.365 . S
N623 H643 0.862 . S
C624 C619 1.501 . S
C624 H625 0.961 . S
C624 H626 0.961 . S
C624 H627 0.960 . S
H625 C624 0.961 . S
H626 C624 0.961 . S
H627 C624 0.960 . S
C628 N629 1.342 . S
C628 C632 1.401 . S
C628 C633 1.499 . S
N629 Co612 1.989 . S
N629 C628 1.342 . S
N629 N630 1.388 . S
N630 Co613 1.993 . S
N630 N629 1.388 . S
N630 C631 1.346 . S
C631 N630 1.346 . S
C631 C632 1.396 . S
C631 C641 1.510 . S
C632 C628 1.401 . S
C632 C631 1.396 . S
C633 C628 1.499 . S
C633 H634 0.959 . S
C633 H635 0.960 . S
C633 H636 0.961 . S
H634 C633 0.959 . S
H635 C633 0.960 . S
H636 C633 0.961 . S
O637 Co612 1.967 . S
O637 C645 1.258 . S
O638 Co613 1.941 . S
O638 C645 1.266 . S
H639 C641 0.959 . S
H640 C641 0.961 . S
C641 C631 1.510 . S
C641 H639 0.959 . S
C641 H640 0.961 . S
C641 H642 0.960 . S
H642 C641 0.960 . S
H643 N623 0.862 . S
O644 Co612 1.920 . S
O644 C617 1.289 . S
C645 O637 1.258 . S
C645 O638 1.266 . S
Co646 O649 1.970 1_655 S
Co646 N663 1.989 . S
Co646 O671 1.967 . S
Co646 O678 1.920 . S
Co647 O650 1.966 1_655 S
Co647 N656 2.022 . S
Co647 N664 1.993 . S
Co647 O672 1.941 . S
C648 O649 1.258 . S
C648 O650 1.263 . S
O649 Co646 1.970 1_455 S
O649 C648 1.258 . S
O650 Co647 1.966 1_455 S
O650 C648 1.263 . S
C651 O652 1.235 . S
C651 O678 1.289 . S
O652 C651 1.235 . S
C653 C655 1.400 . S
C653 N656 1.351 . S
C653 C658 1.501 1_655 S
C654 C655 1.387 . S
C654 N657 1.341 . S
C655 C653 1.400 . S
C655 C654 1.387 . S
N656 Co647 2.022 . S
N656 C653 1.351 . S
N656 N657 1.365 . S
N657 C654 1.341 . S
N657 N656 1.365 . S
N657 H677 0.862 . S
C658 C653 1.501 1_455 S
C658 H659 0.961 . S
C658 H660 0.961 . S
C658 H661 0.960 . S
H659 C658 0.961 . S
H660 C658 0.961 . S
H661 C658 0.960 . S
C662 N663 1.342 . S
C662 C666 1.401 . S
C662 C667 1.499 . S
N663 Co646 1.989 . S
N663 C662 1.342 . S
N663 N664 1.388 . S
N664 Co647 1.993 . S
N664 N663 1.388 . S
N664 C665 1.346 . S
C665 N664 1.346 . S
C665 C666 1.396 . S
C665 C675 1.510 . S
C666 C662 1.401 . S
C666 C665 1.396 . S
C667 C662 1.499 . S
C667 H668 0.959 . S
C667 H669 0.960 . S
C667 H670 0.961 . S
H668 C667 0.959 . S
H669 C667 0.960 . S
H670 C667 0.961 . S
O671 Co646 1.967 . S
O671 C679 1.258 . S
O672 Co647 1.941 . S
O672 C679 1.266 . S
H673 C675 0.959 . S
H674 C675 0.961 . S
C675 C665 1.510 . S
C675 H673 0.959 . S
C675 H674 0.961 . S
C675 H676 0.960 . S
H676 C675 0.960 . S
H677 N657 0.862 . S
O678 Co646 1.920 . S
O678 C651 1.289 . S
C679 O671 1.258 . S
C679 O672 1.266 . S
Co680 O683 1.970 . S
Co680 N697 1.989 . S
Co680 O705 1.967 . S
Co680 O712 1.920 . S
Co681 O684 1.966 . S
Co681 N690 2.022 . S
Co681 N698 1.993 . S
Co681 O706 1.941 . S
C682 O683 1.258 . S
C682 O684 1.263 . S
O683 Co680 1.970 . S
O683 C682 1.258 . S
O684 Co681 1.966 . S
O684 C682 1.263 . S
C685 O686 1.235 . S
C685 O712 1.289 . S
O686 C685 1.235 . S
C687 C689 1.400 . S
C687 N690 1.351 . S
C687 C692 1.501 . S
C688 C689 1.387 . S
C688 N691 1.341 . S
C689 C687 1.400 . S
C689 C688 1.387 . S
N690 Co681 2.022 . S
N690 C687 1.351 . S
N690 N691 1.365 . S
N691 C688 1.341 . S
N691 N690 1.365 . S
N691 H711 0.862 . S
C692 C687 1.501 . S
C692 H693 0.961 . S
C692 H694 0.961 . S
C692 H695 0.960 . S
H693 C692 0.961 . S
H694 C692 0.961 . S
H695 C692 0.960 . S
C696 N697 1.342 . S
C696 C700 1.401 . S
C696 C701 1.499 . S
N697 Co680 1.989 . S
N697 C696 1.342 . S
N697 N698 1.388 . S
N698 Co681 1.993 . S
N698 N697 1.388 . S
N698 C699 1.346 . S
C699 N698 1.346 . S
C699 C700 1.396 . S
C699 C709 1.510 . S
C700 C696 1.401 . S
C700 C699 1.396 . S
C701 C696 1.499 . S
C701 H702 0.959 . S
C701 H703 0.960 . S
C701 H704 0.961 . S
H702 C701 0.959 . S
H703 C701 0.960 . S
H704 C701 0.961 . S
O705 Co680 1.967 . S
O705 C713 1.258 . S
O706 Co681 1.941 . S
O706 C713 1.266 . S
H707 C709 0.959 . S
H708 C709 0.961 . S
C709 C699 1.510 . S
C709 H707 0.959 . S
C709 H708 0.961 . S
C709 H710 0.960 . S
H710 C709 0.960 . S
H711 N691 0.862 . S
O712 Co680 1.920 . S
O712 C685 1.289 . S
C713 O705 1.258 . S
C713 O706 1.266 . S
Co714 O717 1.970 1_655 S
Co714 N731 1.989 . S
Co714 O739 1.967 . S
Co714 O746 1.920 . S
Co715 O718 1.966 1_655 S
Co715 N724 2.022 . S
Co715 N732 1.993 . S
Co715 O740 1.941 . S
C716 O717 1.258 . S
C716 O718 1.263 . S
O717 Co714 1.970 1_455 S
O717 C716 1.258 . S
O718 Co715 1.966 1_455 S
O718 C716 1.263 . S
C719 O720 1.235 . S
C719 O746 1.289 . S
O720 C719 1.235 . S
C721 C723 1.400 . S
C721 N724 1.351 . S
C721 C726 1.501 1_655 S
C722 C723 1.387 . S
C722 N725 1.341 . S
C723 C721 1.400 . S
C723 C722 1.387 . S
N724 Co715 2.022 . S
N724 C721 1.351 . S
N724 N725 1.365 . S
N725 C722 1.341 . S
N725 N724 1.365 . S
N725 H745 0.862 . S
C726 C721 1.501 1_455 S
C726 H727 0.961 . S
C726 H728 0.961 . S
C726 H729 0.960 . S
H727 C726 0.961 . S
H728 C726 0.961 . S
H729 C726 0.960 . S
C730 N731 1.342 . S
C730 C734 1.401 . S
C730 C735 1.499 . S
N731 Co714 1.989 . S
N731 C730 1.342 . S
N731 N732 1.388 . S
N732 Co715 1.993 . S
N732 N731 1.388 . S
N732 C733 1.346 . S
C733 N732 1.346 . S
C733 C734 1.396 . S
C733 C743 1.510 . S
C734 C730 1.401 . S
C734 C733 1.396 . S
C735 C730 1.499 . S
C735 H736 0.959 . S
C735 H737 0.960 . S
C735 H738 0.961 . S
H736 C735 0.959 . S
H737 C735 0.960 . S
H738 C735 0.961 . S
O739 Co714 1.967 . S
O739 C747 1.258 . S
O740 Co715 1.941 . S
O740 C747 1.266 . S
H741 C743 0.959 . S
H742 C743 0.961 . S
C743 C733 1.510 . S
C743 H741 0.959 . S
C743 H742 0.961 . S
C743 H744 0.960 . S
H744 C743 0.960 . S
H745 N725 0.862 . S
O746 Co714 1.920 . S
O746 C719 1.289 . S
C747 O739 1.258 . S
C747 O740 1.266 . S
Co748 O751 1.970 . S
Co748 N765 1.989 . S
Co748 O773 1.967 . S
Co748 O780 1.920 . S
Co749 O752 1.966 . S
Co749 N758 2.022 . S
Co749 N766 1.993 . S
Co749 O774 1.941 . S
C750 O751 1.258 . S
C750 O752 1.263 . S
O751 Co748 1.970 . S
O751 C750 1.258 . S
O752 Co749 1.966 . S
O752 C750 1.263 . S
C753 O754 1.235 . S
C753 O780 1.289 . S
O754 C753 1.235 . S
C755 C757 1.400 . S
C755 N758 1.351 . S
C755 C760 1.501 . S
C756 C757 1.387 . S
C756 N759 1.341 . S
C757 C755 1.400 . S
C757 C756 1.387 . S
N758 Co749 2.022 . S
N758 C755 1.351 . S
N758 N759 1.365 . S
N759 C756 1.341 . S
N759 N758 1.365 . S
N759 H779 0.862 . S
C760 C755 1.501 . S
C760 H761 0.961 . S
C760 H762 0.961 . S
C760 H763 0.960 . S
H761 C760 0.961 . S
H762 C760 0.961 . S
H763 C760 0.960 . S
C764 N765 1.342 . S
C764 C768 1.401 . S
C764 C769 1.499 . S
N765 Co748 1.989 . S
N765 C764 1.342 . S
N765 N766 1.388 . S
N766 Co749 1.993 . S
N766 N765 1.388 . S
N766 C767 1.346 . S
C767 N766 1.346 . S
C767 C768 1.396 . S
C767 C777 1.510 . S
C768 C764 1.401 . S
C768 C767 1.396 . S
C769 C764 1.499 . S
C769 H770 0.959 . S
C769 H771 0.960 . S
C769 H772 0.961 . S
H770 C769 0.959 . S
H771 C769 0.960 . S
H772 C769 0.961 . S
O773 Co748 1.967 . S
O773 C781 1.258 . S
O774 Co749 1.941 . S
O774 C781 1.266 . S
H775 C777 0.959 . S
H776 C777 0.961 . S
C777 C767 1.510 . S
C777 H775 0.959 . S
C777 H776 0.961 . S
C777 H778 0.960 . S
H778 C777 0.960 . S
H779 N759 0.862 . S
O780 Co748 1.920 . S
O780 C753 1.289 . S
C781 O773 1.258 . S
C781 O774 1.266 . S
Co782 O785 1.970 . S
Co782 N799 1.989 . S
Co782 O807 1.967 . S
Co782 O814 1.920 . S
Co783 O786 1.966 . S
Co783 N792 2.022 . S
Co783 N800 1.993 . S
Co783 O808 1.941 . S
C784 O785 1.258 . S
C784 O786 1.263 . S
O785 Co782 1.970 . S
O785 C784 1.258 . S
O786 Co783 1.966 . S
O786 C784 1.263 . S
C787 O788 1.235 . S
C787 O814 1.289 . S
O788 C787 1.235 . S
C789 C791 1.400 . S
C789 N792 1.351 . S
C789 C794 1.501 . S
C790 C791 1.387 . S
C790 N793 1.341 . S
C791 C789 1.400 . S
C791 C790 1.387 . S
N792 Co783 2.022 . S
N792 C789 1.351 . S
N792 N793 1.365 . S
N793 C790 1.341 . S
N793 N792 1.365 . S
N793 H813 0.862 . S
C794 C789 1.501 . S
C794 H795 0.961 . S
C794 H796 0.961 . S
C794 H797 0.960 . S
H795 C794 0.961 . S
H796 C794 0.961 . S
H797 C794 0.960 . S
C798 N799 1.342 . S
C798 C802 1.401 . S
C798 C803 1.499 . S
N799 Co782 1.989 . S
N799 C798 1.342 . S
N799 N800 1.388 . S
N800 Co783 1.993 . S
N800 N799 1.388 . S
N800 C801 1.346 . S
C801 N800 1.346 . S
C801 C802 1.396 . S
C801 C811 1.510 . S
C802 C798 1.401 . S
C802 C801 1.396 . S
C803 C798 1.499 . S
C803 H804 0.959 . S
C803 H805 0.960 . S
C803 H806 0.961 . S
H804 C803 0.959 . S
H805 C803 0.960 . S
H806 C803 0.961 . S
O807 Co782 1.967 . S
O807 C815 1.258 . S
O808 Co783 1.941 . S
O808 C815 1.266 . S
H809 C811 0.959 . S
H810 C811 0.961 . S
C811 C801 1.510 . S
C811 H809 0.959 . S
C811 H810 0.961 . S
C811 H812 0.960 . S
H812 C811 0.960 . S
H813 N793 0.862 . S
O814 Co782 1.920 . S
O814 C787 1.289 . S
C815 O807 1.258 . S
C815 O808 1.266 . S
Co816 O819 1.970 . S
Co816 N833 1.989 . S
Co816 O841 1.967 . S
Co816 O848 1.920 . S
Co817 O820 1.966 . S
Co817 N826 2.022 . S
Co817 N834 1.993 . S
Co817 O842 1.941 . S
C818 O819 1.258 . S
C818 O820 1.263 . S
O819 Co816 1.970 . S
O819 C818 1.258 . S
O820 Co817 1.966 . S
O820 C818 1.263 . S
C821 O822 1.235 . S
C821 O848 1.289 . S
O822 C821 1.235 . S
C823 C825 1.400 . S
C823 N826 1.351 . S
C823 C828 1.501 . S
C824 C825 1.387 . S
C824 N827 1.341 . S
C825 C823 1.400 . S
C825 C824 1.387 . S
N826 Co817 2.022 . S
N826 C823 1.351 . S
N826 N827 1.365 . S
N827 C824 1.341 . S
N827 N826 1.365 . S
N827 H847 0.862 . S
C828 C823 1.501 . S
C828 H829 0.961 . S
C828 H830 0.961 . S
C828 H831 0.960 . S
H829 C828 0.961 . S
H830 C828 0.961 . S
H831 C828 0.960 . S
C832 N833 1.342 . S
C832 C836 1.401 . S
C832 C837 1.499 . S
N833 Co816 1.989 . S
N833 C832 1.342 . S
N833 N834 1.388 . S
N834 Co817 1.993 . S
N834 N833 1.388 . S
N834 C835 1.346 . S
C835 N834 1.346 . S
C835 C836 1.396 . S
C835 C845 1.510 . S
C836 C832 1.401 . S
C836 C835 1.396 . S
C837 C832 1.499 . S
C837 H838 0.959 . S
C837 H839 0.960 . S
C837 H840 0.961 . S
H838 C837 0.959 . S
H839 C837 0.960 . S
H840 C837 0.961 . S
O841 Co816 1.967 . S
O841 C849 1.258 . S
O842 Co817 1.941 . S
O842 C849 1.266 . S
H843 C845 0.959 . S
H844 C845 0.961 . S
C845 C835 1.510 . S
C845 H843 0.959 . S
C845 H844 0.961 . S
C845 H846 0.960 . S
H846 C845 0.960 . S
H847 N827 0.862 . S
O848 Co816 1.920 . S
O848 C821 1.289 . S
C849 O841 1.258 . S
C849 O842 1.266 . S
Co850 O853 1.970 . S
Co850 N867 1.989 . S
Co850 O875 1.967 . S
Co850 O882 1.920 . S
Co851 O854 1.966 . S
Co851 N860 2.022 . S
Co851 N868 1.993 . S
Co851 O876 1.941 . S
C852 O853 1.258 . S
C852 O854 1.263 . S
O853 Co850 1.970 . S
O853 C852 1.258 . S
O854 Co851 1.966 . S
O854 C852 1.263 . S
C855 O856 1.235 . S
C855 O882 1.289 . S
O856 C855 1.235 . S
C857 C859 1.400 . S
C857 N860 1.351 . S
C857 C862 1.501 . S
C858 C859 1.387 . S
C858 N861 1.341 . S
C859 C857 1.400 . S
C859 C858 1.387 . S
N860 Co851 2.022 . S
N860 C857 1.351 . S
N860 N861 1.365 . S
N861 C858 1.341 . S
N861 N860 1.365 . S
N861 H881 0.862 . S
C862 C857 1.501 . S
C862 H863 0.961 . S
C862 H864 0.961 . S
C862 H865 0.960 . S
H863 C862 0.961 . S
H864 C862 0.961 . S
H865 C862 0.960 . S
C866 N867 1.342 . S
C866 C870 1.401 . S
C866 C871 1.499 . S
N867 Co850 1.989 . S
N867 C866 1.342 . S
N867 N868 1.388 . S
N868 Co851 1.993 . S
N868 N867 1.388 . S
N868 C869 1.346 . S
C869 N868 1.346 . S
C869 C870 1.396 . S
C869 C879 1.510 . S
C870 C866 1.401 . S
C870 C869 1.396 . S
C871 C866 1.499 . S
C871 H872 0.959 . S
C871 H873 0.960 . S
C871 H874 0.961 . S
H872 C871 0.959 . S
H873 C871 0.960 . S
H874 C871 0.961 . S
O875 Co850 1.967 . S
O875 C883 1.258 . S
O876 Co851 1.941 . S
O876 C883 1.266 . S
H877 C879 0.959 . S
H878 C879 0.961 . S
C879 C869 1.510 . S
C879 H877 0.959 . S
C879 H878 0.961 . S
C879 H880 0.960 . S
H880 C879 0.960 . S
H881 N861 0.862 . S
O882 Co850 1.920 . S
O882 C855 1.289 . S
C883 O875 1.258 . S
C883 O876 1.266 . S
Co884 O887 1.970 . S
Co884 N901 1.989 . S
Co884 O909 1.967 . S
Co884 O916 1.920 . S
Co885 O888 1.966 . S
Co885 N894 2.022 . S
Co885 N902 1.993 . S
Co885 O910 1.941 . S
C886 O887 1.258 . S
C886 O888 1.263 . S
O887 Co884 1.970 . S
O887 C886 1.258 . S
O888 Co885 1.966 . S
O888 C886 1.263 . S
C889 O890 1.235 . S
C889 O916 1.289 . S
O890 C889 1.235 . S
C891 C893 1.400 . S
C891 N894 1.351 . S
C891 C896 1.501 . S
C892 C893 1.387 . S
C892 N895 1.341 . S
C893 C891 1.400 . S
C893 C892 1.387 . S
N894 Co885 2.022 . S
N894 C891 1.351 . S
N894 N895 1.365 . S
N895 C892 1.341 . S
N895 N894 1.365 . S
N895 H915 0.862 . S
C896 C891 1.501 . S
C896 H897 0.961 . S
C896 H898 0.961 . S
C896 H899 0.960 . S
H897 C896 0.961 . S
H898 C896 0.961 . S
H899 C896 0.960 . S
C900 N901 1.342 . S
C900 C904 1.401 . S
C900 C905 1.499 . S
N901 Co884 1.989 . S
N901 C900 1.342 . S
N901 N902 1.388 . S
N902 Co885 1.993 . S
N902 N901 1.388 . S
N902 C903 1.346 . S
C903 N902 1.346 . S
C903 C904 1.396 . S
C903 C913 1.510 . S
C904 C900 1.401 . S
C904 C903 1.396 . S
C905 C900 1.499 . S
C905 H906 0.959 . S
C905 H907 0.960 . S
C905 H908 0.961 . S
H906 C905 0.959 . S
H907 C905 0.960 . S
H908 C905 0.961 . S
O909 Co884 1.967 . S
O909 C917 1.258 . S
O910 Co885 1.941 . S
O910 C917 1.266 . S
H911 C913 0.959 . S
H912 C913 0.961 . S
C913 C903 1.510 . S
C913 H911 0.959 . S
C913 H912 0.961 . S
C913 H914 0.960 . S
H914 C913 0.960 . S
H915 N895 0.862 . S
O916 Co884 1.920 . S
O916 C889 1.289 . S
C917 O909 1.258 . S
C917 O910 1.266 . S
Co918 O921 1.970 1_455 S
Co918 N935 1.989 . S
Co918 O943 1.967 . S
Co918 O950 1.920 . S
Co919 O922 1.966 1_455 S
Co919 N928 2.022 . S
Co919 N936 1.993 . S
Co919 O944 1.941 . S
C920 O921 1.258 . S
C920 O922 1.263 . S
O921 Co918 1.970 1_655 S
O921 C920 1.258 . S
O922 Co919 1.966 1_655 S
O922 C920 1.263 . S
C923 O924 1.235 . S
C923 O950 1.289 . S
O924 C923 1.235 . S
C925 C927 1.400 . S
C925 N928 1.351 . S
C925 C930 1.501 . S
C926 C927 1.387 . S
C926 N929 1.341 . S
C927 C925 1.400 . S
C927 C926 1.387 . S
N928 Co919 2.022 . S
N928 C925 1.351 . S
N928 N929 1.365 . S
N929 C926 1.341 . S
N929 N928 1.365 . S
N929 H949 0.862 . S
C930 C925 1.501 . S
C930 H931 0.961 . S
C930 H932 0.961 . S
C930 H933 0.960 1_455 S
H931 C930 0.961 . S
H932 C930 0.961 . S
H933 C930 0.960 1_655 S
C934 N935 1.342 . S
C934 C938 1.401 . S
C934 C939 1.499 . S
N935 Co918 1.989 . S
N935 C934 1.342 . S
N935 N936 1.388 . S
N936 Co919 1.993 . S
N936 N935 1.388 . S
N936 C937 1.346 . S
C937 N936 1.346 . S
C937 C938 1.396 . S
C937 C947 1.510 . S
C938 C934 1.401 . S
C938 C937 1.396 . S
C939 C934 1.499 . S
C939 H940 0.959 . S
C939 H941 0.960 . S
C939 H942 0.961 . S
H940 C939 0.959 . S
H941 C939 0.960 . S
H942 C939 0.961 . S
O943 Co918 1.967 . S
O943 C951 1.258 . S
O944 Co919 1.941 . S
O944 C951 1.266 . S
H945 C947 0.959 . S
H946 C947 0.961 . S
C947 C937 1.510 . S
C947 H945 0.959 . S
C947 H946 0.961 . S
C947 H948 0.960 . S
H948 C947 0.960 . S
H949 N929 0.862 . S
O950 Co918 1.920 . S
O950 C923 1.289 . S
C951 O943 1.258 . S
C951 O944 1.266 . S
Co952 O955 1.970 . S
Co952 N969 1.989 . S
Co952 O977 1.967 . S
Co952 O984 1.920 . S
Co953 O956 1.966 . S
Co953 N962 2.022 . S
Co953 N970 1.993 . S
Co953 O978 1.941 . S
C954 O955 1.258 . S
C954 O956 1.263 . S
O955 Co952 1.970 . S
O955 C954 1.258 . S
O956 Co953 1.966 . S
O956 C954 1.263 . S
C957 O958 1.235 . S
C957 O984 1.289 . S
O958 C957 1.235 . S
C959 C961 1.400 . S
C959 N962 1.351 . S
C959 C964 1.501 . S
C960 C961 1.387 . S
C960 N963 1.341 . S
C961 C959 1.400 . S
C961 C960 1.387 . S
N962 Co953 2.022 . S
N962 C959 1.351 . S
N962 N963 1.365 . S
N963 C960 1.341 . S
N963 N962 1.365 . S
N963 H983 0.862 . S
C964 C959 1.501 . S
C964 H965 0.961 . S
C964 H966 0.961 . S
C964 H967 0.960 . S
H965 C964 0.961 . S
H966 C964 0.961 . S
H967 C964 0.960 . S
C968 N969 1.342 . S
C968 C972 1.401 . S
C968 C973 1.499 . S
N969 Co952 1.989 . S
N969 C968 1.342 . S
N969 N970 1.388 . S
N970 Co953 1.993 . S
N970 N969 1.388 . S
N970 C971 1.346 . S
C971 N970 1.346 . S
C971 C972 1.396 . S
C971 C981 1.510 . S
C972 C968 1.401 . S
C972 C971 1.396 . S
C973 C968 1.499 . S
C973 H974 0.959 . S
C973 H975 0.960 . S
C973 H976 0.961 . S
H974 C973 0.959 . S
H975 C973 0.960 . S
H976 C973 0.961 . S
O977 Co952 1.967 . S
O977 C985 1.258 . S
O978 Co953 1.941 . S
O978 C985 1.266 . S
H979 C981 0.959 . S
H980 C981 0.961 . S
C981 C971 1.510 . S
C981 H979 0.959 . S
C981 H980 0.961 . S
C981 H982 0.960 . S
H982 C981 0.960 . S
H983 N963 0.862 . S
O984 Co952 1.920 . S
O984 C957 1.289 . S
C985 O977 1.258 . S
C985 O978 1.266 . S
Co986 O989 1.970 1_455 S
Co986 N1003 1.989 . S
Co986 O1011 1.967 . S
Co986 O1018 1.920 . S
Co987 O990 1.966 1_455 S
Co987 N996 2.022 . S
Co987 N1004 1.993 . S
Co987 O1012 1.941 . S
C988 O989 1.258 . S
C988 O990 1.263 . S
O989 Co986 1.970 1_655 S
O989 C988 1.258 . S
O990 Co987 1.966 1_655 S
O990 C988 1.263 . S
C991 O992 1.235 . S
C991 O1018 1.289 . S
O992 C991 1.235 . S
C993 C995 1.400 . S
C993 N996 1.351 . S
C993 C998 1.501 . S
C994 C995 1.387 . S
C994 N997 1.341 . S
C995 C993 1.400 . S
C995 C994 1.387 . S
N996 Co987 2.022 . S
N996 C993 1.351 . S
N996 N997 1.365 . S
N997 C994 1.341 . S
N997 N996 1.365 . S
N997 H1017 0.862 . S
C998 C993 1.501 . S
C998 H999 0.961 . S
C998 H1000 0.961 . S
C998 H1001 0.960 1_455 S
H999 C998 0.961 . S
H1000 C998 0.961 . S
H1001 C998 0.960 1_655 S
C1002 N1003 1.342 . S
C1002 C1006 1.401 . S
C1002 C1007 1.499 . S
N1003 Co986 1.989 . S
N1003 C1002 1.342 . S
N1003 N1004 1.388 . S
N1004 Co987 1.993 . S
N1004 N1003 1.388 . S
N1004 C1005 1.346 . S
C1005 N1004 1.346 . S
C1005 C1006 1.396 . S
C1005 C1015 1.510 . S
C1006 C1002 1.401 . S
C1006 C1005 1.396 . S
C1007 C1002 1.499 . S
C1007 H1008 0.959 . S
C1007 H1009 0.960 . S
C1007 H1010 0.961 . S
H1008 C1007 0.959 . S
H1009 C1007 0.960 . S
H1010 C1007 0.961 . S
O1011 Co986 1.967 . S
O1011 C1019 1.258 . S
O1012 Co987 1.941 . S
O1012 C1019 1.266 . S
H1013 C1015 0.959 . S
H1014 C1015 0.961 . S
C1015 C1005 1.510 . S
C1015 H1013 0.959 . S
C1015 H1014 0.961 . S
C1015 H1016 0.960 . S
H1016 C1015 0.960 . S
H1017 N997 0.862 . S
O1018 Co986 1.920 . S
O1018 C991 1.289 . S
C1019 O1011 1.258 . S
C1019 O1012 1.266 . S
Co1020 O1023 1.970 . S
Co1020 N1037 1.989 . S
Co1020 O1045 1.967 . S
Co1020 O1052 1.920 . S
Co1021 O1024 1.966 . S
Co1021 N1030 2.022 . S
Co1021 N1038 1.993 . S
Co1021 O1046 1.941 . S
C1022 O1023 1.258 . S
C1022 O1024 1.263 . S
O1023 Co1020 1.970 . S
O1023 C1022 1.258 . S
O1024 Co1021 1.966 . S
O1024 C1022 1.263 . S
C1025 O1026 1.235 . S
C1025 O1052 1.289 . S
O1026 C1025 1.235 . S
C1027 C1029 1.400 . S
C1027 N1030 1.351 . S
C1027 C1032 1.501 . S
C1028 C1029 1.387 . S
C1028 N1031 1.341 . S
C1029 C1027 1.400 . S
C1029 C1028 1.387 . S
N1030 Co1021 2.022 . S
N1030 C1027 1.351 . S
N1030 N1031 1.365 . S
N1031 C1028 1.341 . S
N1031 N1030 1.365 . S
N1031 H1051 0.862 . S
C1032 C1027 1.501 . S
C1032 H1033 0.961 . S
C1032 H1034 0.961 . S
C1032 H1035 0.960 . S
H1033 C1032 0.961 . S
H1034 C1032 0.961 . S
H1035 C1032 0.960 . S
C1036 N1037 1.342 . S
C1036 C1040 1.401 . S
C1036 C1041 1.499 . S
N1037 Co1020 1.989 . S
N1037 C1036 1.342 . S
N1037 N1038 1.388 . S
N1038 Co1021 1.993 . S
N1038 N1037 1.388 . S
N1038 C1039 1.346 . S
C1039 N1038 1.346 . S
C1039 C1040 1.396 . S
C1039 C1049 1.510 . S
C1040 C1036 1.401 . S
C1040 C1039 1.396 . S
C1041 C1036 1.499 . S
C1041 H1042 0.959 . S
C1041 H1043 0.960 . S
C1041 H1044 0.961 . S
H1042 C1041 0.959 . S
H1043 C1041 0.960 . S
H1044 C1041 0.961 . S
O1045 Co1020 1.967 . S
O1045 C1053 1.258 . S
O1046 Co1021 1.941 . S
O1046 C1053 1.266 . S
H1047 C1049 0.959 . S
H1048 C1049 0.961 . S
C1049 C1039 1.510 . S
C1049 H1047 0.959 . S
C1049 H1048 0.961 . S
C1049 H1050 0.960 . S
H1050 C1049 0.960 . S
H1051 N1031 0.862 . S
O1052 Co1020 1.920 . S
O1052 C1025 1.289 . S
C1053 O1045 1.258 . S
C1053 O1046 1.266 . S
Co1054 O1057 1.970 . S
Co1054 N1071 1.989 . S
Co1054 O1079 1.967 . S
Co1054 O1086 1.920 . S
Co1055 O1058 1.966 . S
Co1055 N1064 2.022 . S
Co1055 N1072 1.993 . S
Co1055 O1080 1.941 . S
C1056 O1057 1.258 . S
C1056 O1058 1.263 . S
O1057 Co1054 1.970 . S
O1057 C1056 1.258 . S
O1058 Co1055 1.966 . S
O1058 C1056 1.263 . S
C1059 O1060 1.235 . S
C1059 O1086 1.289 . S
O1060 C1059 1.235 . S
C1061 C1063 1.400 . S
C1061 N1064 1.351 . S
C1061 C1066 1.501 . S
C1062 C1063 1.387 . S
C1062 N1065 1.341 . S
C1063 C1061 1.400 . S
C1063 C1062 1.387 . S
N1064 Co1055 2.022 . S
N1064 C1061 1.351 . S
N1064 N1065 1.365 . S
N1065 C1062 1.341 . S
N1065 N1064 1.365 . S
N1065 H1085 0.862 . S
C1066 C1061 1.501 . S
C1066 H1067 0.961 . S
C1066 H1068 0.961 . S
C1066 H1069 0.960 . S
H1067 C1066 0.961 . S
H1068 C1066 0.961 . S
H1069 C1066 0.960 . S
C1070 N1071 1.342 . S
C1070 C1074 1.401 . S
C1070 C1075 1.499 . S
N1071 Co1054 1.989 . S
N1071 C1070 1.342 . S
N1071 N1072 1.388 . S
N1072 Co1055 1.993 . S
N1072 N1071 1.388 . S
N1072 C1073 1.346 . S
C1073 N1072 1.346 . S
C1073 C1074 1.396 . S
C1073 C1083 1.510 . S
C1074 C1070 1.401 . S
C1074 C1073 1.396 . S
C1075 C1070 1.499 . S
C1075 H1076 0.959 . S
C1075 H1077 0.960 . S
C1075 H1078 0.961 . S
H1076 C1075 0.959 . S
H1077 C1075 0.960 . S
H1078 C1075 0.961 . S
O1079 Co1054 1.967 . S
O1079 C1087 1.258 . S
O1080 Co1055 1.941 . S
O1080 C1087 1.266 . S
H1081 C1083 0.959 . S
H1082 C1083 0.961 . S
C1083 C1073 1.510 . S
C1083 H1081 0.959 . S
C1083 H1082 0.961 . S
C1083 H1084 0.960 . S
H1084 C1083 0.960 . S
H1085 N1065 0.862 . S
O1086 Co1054 1.920 . S
O1086 C1059 1.289 . S
C1087 O1079 1.258 . S
C1087 O1080 1.266 . S
C1088 C1089 1.369 . S
C1088 C1090 1.419 . S
C1088 H1092 0.930 . S
C1089 C1088 1.369 . S
C1089 C1098 1.429 . S
C1090 C1088 1.419 . S
C1090 C1091 1.363 . S
C1090 H1093 0.929 . S
C1091 C1090 1.363 . S
C1091 C1097 1.428 . S
H1092 C1088 0.930 . S
H1093 C1090 0.929 . S
S1094 N1095 1.613 . S
S1094 N1096 1.610 . S
N1095 S1094 1.613 . S
N1095 C1098 1.350 . S
N1096 S1094 1.610 . S
N1096 C1097 1.351 . S
C1097 C1091 1.428 . S
C1097 N1096 1.351 . S
C1097 C1098 1.434 . S
C1098 C1089 1.429 . S
C1098 N1095 1.350 . S
C1098 C1097 1.434 . S
C1099 C1100 1.369 . S
C1099 C1101 1.419 . S
C1099 H1103 0.930 . S
C1100 C1099 1.369 . S
C1100 C1109 1.429 1_655 S
C1101 C1099 1.419 . S
C1101 C1102 1.363 1_655 S
C1101 H1104 0.929 . S
C1102 C1101 1.363 1_455 S
C1102 C1108 1.428 . S
H1103 C1099 0.930 . S
H1104 C1101 0.929 . S
S1105 N1106 1.613 . S
S1105 N1107 1.610 . S
N1106 S1105 1.613 . S
N1106 C1109 1.350 . S
N1107 S1105 1.610 . S
N1107 C1108 1.351 . S
C1108 C1102 1.428 . S
C1108 N1107 1.351 . S
C1108 C1109 1.434 . S
C1109 C1100 1.429 1_455 S
C1109 N1106 1.350 . S
C1109 C1108 1.434 . S
C1110 C1111 1.369 . S
C1110 C1112 1.419 1_655 S
C1110 H1114 0.930 . S
C1111 C1110 1.369 . S
C1111 C1120 1.429 . S
C1112 C1110 1.419 1_455 S
C1112 C1113 1.363 . S
C1112 H1115 0.929 . S
C1113 C1112 1.363 . S
C1113 C1119 1.428 . S
H1114 C1110 0.930 . S
H1115 C1112 0.929 . S
S1116 N1117 1.613 1_455 S
S1116 N1118 1.610 . S
N1117 S1116 1.613 1_655 S
N1117 C1120 1.350 . S
N1118 S1116 1.610 . S
N1118 C1119 1.351 . S
C1119 C1113 1.428 . S
C1119 N1118 1.351 . S
C1119 C1120 1.434 1_455 S
C1120 C1111 1.429 . S
C1120 N1117 1.350 . S
C1120 C1119 1.434 1_655 S
C1121 C1122 1.369 . S
C1121 C1123 1.419 . S
C1121 H1125 0.930 . S
C1122 C1121 1.369 . S
C1122 C1131 1.429 . S
C1123 C1121 1.419 . S
C1123 C1124 1.363 . S
C1123 H1126 0.929 . S
C1124 C1123 1.363 . S
C1124 C1130 1.428 . S
H1125 C1121 0.930 . S
H1126 C1123 0.929 . S
S1127 N1128 1.613 . S
S1127 N1129 1.610 . S
N1128 S1127 1.613 . S
N1128 C1131 1.350 . S
N1129 S1127 1.610 . S
N1129 C1130 1.351 . S
C1130 C1124 1.428 . S
C1130 N1129 1.351 . S
C1130 C1131 1.434 . S
C1131 C1122 1.429 . S
C1131 N1128 1.350 . S
C1131 C1130 1.434 . S
C1132 C1133 1.369 . S
C1132 C1134 1.419 . S
C1132 H1136 0.930 . S
C1133 C1132 1.369 . S
C1133 C1142 1.429 . S
C1134 C1132 1.419 . S
C1134 C1135 1.363 . S
C1134 H1137 0.929 . S
C1135 C1134 1.363 . S
C1135 C1141 1.428 . S
H1136 C1132 0.930 . S
H1137 C1134 0.929 . S
S1138 N1139 1.613 . S
S1138 N1140 1.610 . S
N1139 S1138 1.613 . S
N1139 C1142 1.350 . S
N1140 S1138 1.610 . S
N1140 C1141 1.351 . S
C1141 C1135 1.428 . S
C1141 N1140 1.351 . S
C1141 C1142 1.434 . S
C1142 C1133 1.429 . S
C1142 N1139 1.350 . S
C1142 C1141 1.434 . S
C1143 C1144 1.369 . S
C1143 C1145 1.419 . S
C1143 H1147 0.930 . S
C1144 C1143 1.369 . S
C1144 C1153 1.429 . S
C1145 C1143 1.419 . S
C1145 C1146 1.363 . S
C1145 H1148 0.929 . S
C1146 C1145 1.363 . S
C1146 C1152 1.428 . S
H1147 C1143 0.930 . S
H1148 C1145 0.929 . S
S1149 N1150 1.613 . S
S1149 N1151 1.610 . S
N1150 S1149 1.613 . S
N1150 C1153 1.350 . S
N1151 S1149 1.610 . S
N1151 C1152 1.351 . S
C1152 C1146 1.428 . S
C1152 N1151 1.351 . S
C1152 C1153 1.434 . S
C1153 C1144 1.429 . S
C1153 N1150 1.350 . S
C1153 C1152 1.434 . S
C1154 C1155 1.369 . S
C1154 C1156 1.419 1_455 S
C1154 H1158 0.930 . S
C1155 C1154 1.369 . S
C1155 C1164 1.429 . S
C1156 C1154 1.419 1_655 S
C1156 C1157 1.363 . S
C1156 H1159 0.929 . S
C1157 C1156 1.363 . S
C1157 C1163 1.428 . S
H1158 C1154 0.930 . S
H1159 C1156 0.929 . S
S1160 N1161 1.613 . S
S1160 N1162 1.610 1_455 S
N1161 S1160 1.613 . S
N1161 C1164 1.350 . S
N1162 S1160 1.610 1_655 S
N1162 C1163 1.351 . S
C1163 C1157 1.428 . S
C1163 N1162 1.351 . S
C1163 C1164 1.434 1_655 S
C1164 C1155 1.429 . S
C1164 N1161 1.350 . S
C1164 C1163 1.434 1_455 S
C1165 C1166 1.369 1_655 S
C1165 C1167 1.419 . S
C1165 H1169 0.930 . S
C1166 C1165 1.369 1_455 S
C1166 C1175 1.429 . S
C1167 C1165 1.419 . S
C1167 C1168 1.363 . S
C1167 H1170 0.929 . S
C1168 C1167 1.363 . S
C1168 C1174 1.428 1_655 S
H1169 C1165 0.930 . S
H1170 C1167 0.929 . S
S1171 N1172 1.613 . S
S1171 N1173 1.610 . S
N1172 S1171 1.613 . S
N1172 C1175 1.350 . S
N1173 S1171 1.610 . S
N1173 C1174 1.351 . S
C1174 C1168 1.428 1_455 S
C1174 N1173 1.351 . S
C1174 C1175 1.434 . S
C1175 C1166 1.429 . S
C1175 N1172 1.350 . S
C1175 C1174 1.434 . S
C1176 C1177 1.369 . S
C1176 C1178 1.419 . S
C1176 H1180 0.930 . S
C1177 C1176 1.369 . S
C1177 C1186 1.429 . S
C1178 C1176 1.419 . S
C1178 C1179 1.363 . S
C1178 H1181 0.929 . S
C1179 C1178 1.363 . S
C1179 C1185 1.428 . S
H1180 C1176 0.930 . S
H1181 C1178 0.929 . S
S1182 N1183 1.613 . S
S1182 N1184 1.610 . S
N1183 S1182 1.613 . S
N1183 C1186 1.350 . S
N1184 S1182 1.610 . S
N1184 C1185 1.351 . S
C1185 C1179 1.428 . S
C1185 N1184 1.351 . S
C1185 C1186 1.434 . S
C1186 C1177 1.429 . S
C1186 N1183 1.350 . S
C1186 C1185 1.434 . S
C1187 C1188 1.369 1_655 S
C1187 C1189 1.419 . S
C1187 H1191 0.930 . S
C1188 C1187 1.369 1_455 S
C1188 C1197 1.429 . S
C1189 C1187 1.419 . S
C1189 C1190 1.363 . S
C1189 H1192 0.929 . S
C1190 C1189 1.363 . S
C1190 C1196 1.428 1_655 S
H1191 C1187 0.930 . S
H1192 C1189 0.929 . S
S1193 N1194 1.613 . S
S1193 N1195 1.610 . S
N1194 S1193 1.613 . S
N1194 C1197 1.350 . S
N1195 S1193 1.610 . S
N1195 C1196 1.351 . S
C1196 C1190 1.428 1_455 S
C1196 N1195 1.351 . S
C1196 C1197 1.434 . S
C1197 C1188 1.429 . S
C1197 N1194 1.350 . S
C1197 C1196 1.434 . S
C1198 C1199 1.369 . S
C1198 C1200 1.419 1_655 S
C1198 H1202 0.930 . S
C1199 C1198 1.369 . S
C1199 C1208 1.429 . S
C1200 C1198 1.419 1_455 S
C1200 C1201 1.363 . S
C1200 H1203 0.929 . S
C1201 C1200 1.363 . S
C1201 C1207 1.428 . S
H1202 C1198 0.930 . S
H1203 C1200 0.929 . S
S1204 N1205 1.613 . S
S1204 N1206 1.610 1_655 S
N1205 S1204 1.613 . S
N1205 C1208 1.350 . S
N1206 S1204 1.610 1_455 S
N1206 C1207 1.351 . S
C1207 C1201 1.428 . S
C1207 N1206 1.351 . S
C1207 C1208 1.434 1_455 S
C1208 C1199 1.429 . S
C1208 N1205 1.350 . S
C1208 C1207 1.434 1_655 S
C1209 C1210 1.369 . S
C1209 C1211 1.419 . S
C1209 H1213 0.930 . S
C1210 C1209 1.369 . S
C1210 C1219 1.429 . S
C1211 C1209 1.419 . S
C1211 C1212 1.363 . S
C1211 H1214 0.929 . S
C1212 C1211 1.363 . S
C1212 C1218 1.428 . S
H1213 C1209 0.930 . S
H1214 C1211 0.929 . S
S1215 N1216 1.613 . S
S1215 N1217 1.610 . S
N1216 S1215 1.613 . S
N1216 C1219 1.350 . S
N1217 S1215 1.610 . S
N1217 C1218 1.351 . S
C1218 C1212 1.428 . S
C1218 N1217 1.351 . S
C1218 C1219 1.434 . S
C1219 C1210 1.429 . S
C1219 N1216 1.350 . S
C1219 C1218 1.434 . S
C1220 C1221 1.369 . S
C1220 C1222 1.419 . S
C1220 H1224 0.930 . S
C1221 C1220 1.369 . S
C1221 C1230 1.429 . S
C1222 C1220 1.419 . S
C1222 C1223 1.363 . S
C1222 H1225 0.929 . S
C1223 C1222 1.363 . S
C1223 C1229 1.428 . S
H1224 C1220 0.930 . S
H1225 C1222 0.929 . S
S1226 N1227 1.613 . S
S1226 N1228 1.610 . S
N1227 S1226 1.613 . S
N1227 C1230 1.350 . S
N1228 S1226 1.610 . S
N1228 C1229 1.351 . S
C1229 C1223 1.428 . S
C1229 N1228 1.351 . S
C1229 C1230 1.434 . S
C1230 C1221 1.429 . S
C1230 N1227 1.350 . S
C1230 C1229 1.434 . S
C1231 C1232 1.369 . S
C1231 C1233 1.419 . S
C1231 H1235 0.930 . S
C1232 C1231 1.369 . S
C1232 C1241 1.429 . S
C1233 C1231 1.419 . S
C1233 C1234 1.363 . S
C1233 H1236 0.929 . S
C1234 C1233 1.363 . S
C1234 C1240 1.428 . S
H1235 C1231 0.930 . S
H1236 C1233 0.929 . S
S1237 N1238 1.613 . S
S1237 N1239 1.610 . S
N1238 S1237 1.613 . S
N1238 C1241 1.350 . S
N1239 S1237 1.610 . S
N1239 C1240 1.351 . S
C1240 C1234 1.428 . S
C1240 N1239 1.351 . S
C1240 C1241 1.434 . S
C1241 C1232 1.429 . S
C1241 N1238 1.350 . S
C1241 C1240 1.434 . S
C1242 C1243 1.369 . S
C1242 C1244 1.419 1_455 S
C1242 H1246 0.930 . S
C1243 C1242 1.369 . S
C1243 C1252 1.429 . S
C1244 C1242 1.419 1_655 S
C1244 C1245 1.363 . S
C1244 H1247 0.929 . S
C1245 C1244 1.363 . S
C1245 C1251 1.428 . S
H1246 C1242 0.930 . S
H1247 C1244 0.929 . S
S1248 N1249 1.613 1_655 S
S1248 N1250 1.610 . S
N1249 S1248 1.613 1_455 S
N1249 C1252 1.350 . S
N1250 S1248 1.610 . S
N1250 C1251 1.351 . S
C1251 C1245 1.428 . S
C1251 N1250 1.351 . S
C1251 C1252 1.434 1_655 S
C1252 C1243 1.429 . S
C1252 N1249 1.350 . S
C1252 C1251 1.434 1_455 S
C1253 C1254 1.369 1_455 S
C1253 C1255 1.419 . S
C1253 H1257 0.930 . S
C1254 C1253 1.369 1_655 S
C1254 C1263 1.429 . S
C1255 C1253 1.419 . S
C1255 C1256 1.363 . S
C1255 H1258 0.929 . S
C1256 C1255 1.363 . S
C1256 C1262 1.428 1_455 S
H1257 C1253 0.930 . S
H1258 C1255 0.929 . S
S1259 N1260 1.613 . S
S1259 N1261 1.610 . S
N1260 S1259 1.613 . S
N1260 C1263 1.350 . S
N1261 S1259 1.610 . S
N1261 C1262 1.351 . S
C1262 C1256 1.428 1_655 S
C1262 N1261 1.351 . S
C1262 C1263 1.434 . S
C1263 C1254 1.429 . S
C1263 N1260 1.350 . S
C1263 C1262 1.434 . S
C1264 C1265 1.369 . S
C1264 C1266 1.419 . S
C1264 H1268 0.930 . S
C1265 C1264 1.369 . S
C1265 C1274 1.429 . S
C1266 C1264 1.419 . S
C1266 C1267 1.363 . S
C1266 H1269 0.929 . S
C1267 C1266 1.363 . S
C1267 C1273 1.428 . S
H1268 C1264 0.930 . S
H1269 C1266 0.929 . S
S1270 N1271 1.613 . S
S1270 N1272 1.610 . S
N1271 S1270 1.613 . S
N1271 C1274 1.350 . S
N1272 S1270 1.610 . S
N1272 C1273 1.351 . S
C1273 C1267 1.428 . S
C1273 N1272 1.351 . S
C1273 C1274 1.434 . S
C1274 C1265 1.429 . S
C1274 N1271 1.350 . S
C1274 C1273 1.434 . S
C1275 C1276 1.369 1_455 S
C1275 C1277 1.419 . S
C1275 H1279 0.930 . S
C1276 C1275 1.369 1_655 S
C1276 C1285 1.429 1_565 S
C1277 C1275 1.419 . S
C1277 C1278 1.363 . S
C1277 H1280 0.929 . S
C1278 C1277 1.363 . S
C1278 C1284 1.428 1_465 S
H1279 C1275 0.930 . S
H1280 C1277 0.929 . S
S1281 N1282 1.613 . S
S1281 N1283 1.610 . S
N1282 S1281 1.613 . S
N1282 C1285 1.350 . S
N1283 S1281 1.610 . S
N1283 C1284 1.351 . S
C1284 C1278 1.428 1_645 S
C1284 N1283 1.351 . S
C1284 C1285 1.434 . S
C1285 C1276 1.429 1_545 S
C1285 N1282 1.350 . S
C1285 C1284 1.434 . S
C1286 C1287 1.369 . S
C1286 C1288 1.419 . S
C1286 H1290 0.930 . S
C1287 C1286 1.369 . S
C1287 C1296 1.429 . S
C1288 C1286 1.419 . S
C1288 C1289 1.363 . S
C1288 H1291 0.929 . S
C1289 C1288 1.363 . S
C1289 C1295 1.428 . S
H1290 C1286 0.930 . S
H1291 C1288 0.929 . S
S1292 N1293 1.613 . S
S1292 N1294 1.610 . S
N1293 S1292 1.613 . S
N1293 C1296 1.350 . S
N1294 S1292 1.610 . S
N1294 C1295 1.351 . S
C1295 C1289 1.428 . S
C1295 N1294 1.351 . S
C1295 C1296 1.434 . S
C1296 C1287 1.429 . S
C1296 N1293 1.350 . S
C1296 C1295 1.434 . S
C1297 C1298 1.369 . S
C1297 C1299 1.419 1_554 S
C1297 H1301 0.930 . S
C1298 C1297 1.369 . S
C1298 C1307 1.429 1_545 S
C1299 C1297 1.419 1_556 S
C1299 C1300 1.363 . S
C1299 H1302 0.929 . S
C1300 C1299 1.363 . S
C1300 C1306 1.428 1_545 S
H1301 C1297 0.930 . S
H1302 C1299 0.929 . S
S1303 N1304 1.613 1_556 S
S1303 N1305 1.610 . S
N1304 S1303 1.613 1_554 S
N1304 C1307 1.350 . S
N1305 S1303 1.610 . S
N1305 C1306 1.351 . S
C1306 C1300 1.428 1_565 S
C1306 N1305 1.351 . S
C1306 C1307 1.434 1_556 S
C1307 C1298 1.429 1_565 S
C1307 N1304 1.350 . S
C1307 C1306 1.434 1_554 S
C1308 C1309 1.369 . S
C1308 C1310 1.419 . S
C1308 H1312 0.930 . S
C1309 C1308 1.369 . S
C1309 C1318 1.429 . S
C1310 C1308 1.419 . S
C1310 C1311 1.363 . S
C1310 H1313 0.929 . S
C1311 C1310 1.363 . S
C1311 C1317 1.428 . S
H1312 C1308 0.930 . S
H1313 C1310 0.929 . S
S1314 N1315 1.613 . S
S1314 N1316 1.610 . S
N1315 S1314 1.613 . S
N1315 C1318 1.350 . S
N1316 S1314 1.610 . S
N1316 C1317 1.351 . S
C1317 C1311 1.428 . S
C1317 N1316 1.351 . S
C1317 C1318 1.434 . S
C1318 C1309 1.429 . S
C1318 N1315 1.350 . S
C1318 C1317 1.434 . S
C1319 C1320 1.369 . S
C1319 C1321 1.419 . S
C1319 H1323 0.930 . S
C1320 C1319 1.369 . S
C1320 C1329 1.429 1_565 S
C1321 C1319 1.419 . S
C1321 C1322 1.363 . S
C1321 H1324 0.929 . S
C1322 C1321 1.363 . S
C1322 C1328 1.428 1_565 S
H1323 C1319 0.930 . S
H1324 C1321 0.929 . S
S1325 N1326 1.613 . S
S1325 N1327 1.610 . S
N1326 S1325 1.613 . S
N1326 C1329 1.350 . S
N1327 S1325 1.610 . S
N1327 C1328 1.351 . S
C1328 C1322 1.428 1_545 S
C1328 N1327 1.351 . S
C1328 C1329 1.434 . S
C1329 C1320 1.429 1_545 S
C1329 N1326 1.350 . S
C1329 C1328 1.434 . S
C1330 C1331 1.369 . S
C1330 C1332 1.419 . S
C1330 H1334 0.930 . S
C1331 C1330 1.369 . S
C1331 C1340 1.429 . S
C1332 C1330 1.419 . S
C1332 C1333 1.363 . S
C1332 H1335 0.929 . S
C1333 C1332 1.363 . S
C1333 C1339 1.428 . S
H1334 C1330 0.930 . S
H1335 C1332 0.929 . S
S1336 N1337 1.613 . S
S1336 N1338 1.610 . S
N1337 S1336 1.613 . S
N1337 C1340 1.350 . S
N1338 S1336 1.610 . S
N1338 C1339 1.351 . S
C1339 C1333 1.428 . S
C1339 N1338 1.351 . S
C1339 C1340 1.434 . S
C1340 C1331 1.429 . S
C1340 N1337 1.350 . S
C1340 C1339 1.434 . S
C1341 C1342 1.369 1_455 S
C1341 C1343 1.399 1_554 S
C1341 H1345 0.930 . S
C1342 C1341 1.369 1_655 S
C1342 C1351 1.429 1_545 S
C1343 C1341 1.399 1_556 S
C1343 C1344 1.381 . S
C1343 H1346 0.932 . S
C1344 C1343 1.381 . S
C1344 C1350 1.428 1_445 S
H1345 C1341 0.930 . S
H1346 C1343 0.932 . S
S1347 N1348 1.613 1_556 S
S1347 N1349 1.610 . S
N1348 S1347 1.613 1_554 S
N1348 C1351 1.350 . S
N1349 S1347 1.610 . S
N1349 C1350 1.351 . S
C1350 C1344 1.428 1_665 S
C1350 N1349 1.351 . S
C1350 C1351 1.434 1_556 S
C1351 C1342 1.429 1_565 S
C1351 N1348 1.350 . S
C1351 C1350 1.434 1_554 S
C1352 C1353 1.369 . S
C1352 C1354 1.419 . S
C1352 H1356 0.930 . S
C1353 C1352 1.369 . S
C1353 C1362 1.429 . S
C1354 C1352 1.419 . S
C1354 C1355 1.363 . S
C1354 H1357 0.929 . S
C1355 C1354 1.363 . S
C1355 C1361 1.428 . S
H1356 C1352 0.930 . S
H1357 C1354 0.929 . S
S1358 N1359 1.613 . S
S1358 N1360 1.610 . S
N1359 S1358 1.613 . S
N1359 C1362 1.350 . S
N1360 S1358 1.610 . S
N1360 C1361 1.351 . S
C1361 C1355 1.428 . S
C1361 N1360 1.351 . S
C1361 C1362 1.434 . S
C1362 C1353 1.429 . S
C1362 N1359 1.350 . S
C1362 C1361 1.434 . S
C1363 C1364 1.369 . S
C1363 C1365 1.419 . S
C1363 H1367 0.930 . S
C1364 C1363 1.369 . S
C1364 C1373 1.429 . S
C1365 C1363 1.419 . S
C1365 C1366 1.363 . S
C1365 H1368 0.929 . S
C1366 C1365 1.363 . S
C1366 C1372 1.428 . S
H1367 C1363 0.930 . S
H1368 C1365 0.929 . S
S1369 N1370 1.613 . S
S1369 N1371 1.610 . S
N1370 S1369 1.613 . S
N1370 C1373 1.350 . S
N1371 S1369 1.610 . S
N1371 C1372 1.351 . S
C1372 C1366 1.428 . S
C1372 N1371 1.351 . S
C1372 C1373 1.434 . S
C1373 C1364 1.429 . S
C1373 N1370 1.350 . S
C1373 C1372 1.434 . S
C1374 C1375 1.369 . S
C1374 C1376 1.419 . S
C1374 H1378 0.930 . S
C1375 C1374 1.369 . S
C1375 C1384 1.429 . S
C1376 C1374 1.419 . S
C1376 C1377 1.363 . S
C1376 H1379 0.929 . S
C1377 C1376 1.363 . S
C1377 C1383 1.428 . S
H1378 C1374 0.930 . S
H1379 C1376 0.929 . S
S1380 N1381 1.613 . S
S1380 N1382 1.610 . S
N1381 S1380 1.613 . S
N1381 C1384 1.350 . S
N1382 S1380 1.610 . S
N1382 C1383 1.351 . S
C1383 C1377 1.428 . S
C1383 N1382 1.351 . S
C1383 C1384 1.434 . S
C1384 C1375 1.429 . S
C1384 N1381 1.350 . S
C1384 C1383 1.434 . S
C1385 C1386 1.369 . S
C1385 C1387 1.419 . S
C1385 H1389 0.930 . S
C1386 C1385 1.369 . S
C1386 C1395 1.429 . S
C1387 C1385 1.419 . S
C1387 C1388 1.363 . S
C1387 H1390 0.929 . S
C1388 C1387 1.363 . S
C1388 C1394 1.428 . S
H1389 C1385 0.930 . S
H1390 C1387 0.929 . S
S1391 N1392 1.613 . S
S1391 N1393 1.610 . S
N1392 S1391 1.613 . S
N1392 C1395 1.350 . S
N1393 S1391 1.610 . S
N1393 C1394 1.351 . S
C1394 C1388 1.428 . S
C1394 N1393 1.351 . S
C1394 C1395 1.434 . S
C1395 C1386 1.429 . S
C1395 N1392 1.350 . S
C1395 C1394 1.434 . S
C1396 C1397 1.369 . S
C1396 C1398 1.419 1_556 S
C1396 H1400 0.930 . S
C1397 C1396 1.369 . S
C1397 C1406 1.429 . S
C1398 C1396 1.419 1_554 S
C1398 C1399 1.363 . S
C1398 H1401 0.929 . S
C1399 C1398 1.363 . S
C1399 C1405 1.428 . S
H1400 C1396 0.930 . S
H1401 C1398 0.929 . S
S1402 N1403 1.613 1_554 S
S1402 N1404 1.610 . S
N1403 S1402 1.613 1_556 S
N1403 C1406 1.350 . S
N1404 S1402 1.610 . S
N1404 C1405 1.351 . S
C1405 C1399 1.428 . S
C1405 N1404 1.351 . S
C1405 C1406 1.434 1_554 S
C1406 C1397 1.429 . S
C1406 N1403 1.350 . S
C1406 C1405 1.434 1_556 S
C1407 C1408 1.369 . S
C1407 C1409 1.418 1_455 S
C1407 H1411 0.930 . S
C1408 C1407 1.369 . S
C1408 C1417 1.429 1_455 S
C1409 C1407 1.418 1_655 S
C1409 C1410 1.364 . S
C1409 H1412 0.929 1_655 S
C1410 C1409 1.364 . S
C1410 C1416 1.428 . S
H1411 C1407 0.930 . S
H1412 C1409 0.929 1_455 S
S1413 N1414 1.613 . S
S1413 N1415 1.610 . S
N1414 S1413 1.613 . S
N1414 C1417 1.350 . S
N1415 S1413 1.610 . S
N1415 C1416 1.351 . S
C1416 C1410 1.428 . S
C1416 N1415 1.351 . S
C1416 C1417 1.434 . S
C1417 C1408 1.429 1_655 S
C1417 N1414 1.350 . S
C1417 C1416 1.434 . S
C1418 C1419 1.419 . S
C1418 C1420 1.361 1_556 S
C1418 H1422 0.941 . S
C1419 C1418 1.419 . S
C1419 C1428 1.429 1_655 S
C1420 C1418 1.361 1_554 S
C1420 C1421 1.363 1_655 S
C1420 H1423 0.929 . S
C1421 C1420 1.363 1_455 S
C1421 C1427 1.428 . S
H1422 C1418 0.941 . S
H1423 C1420 0.929 . S
S1424 N1425 1.613 . S
S1424 N1426 1.610 1_556 S
N1425 S1424 1.613 . S
N1425 C1428 1.350 . S
N1426 S1424 1.610 1_554 S
N1426 C1427 1.351 . S
C1427 C1421 1.428 . S
C1427 N1426 1.351 . S
C1427 C1428 1.434 1_554 S
C1428 C1419 1.429 1_455 S
C1428 N1425 1.350 . S
C1428 C1427 1.434 1_556 S
C1429 C1430 1.369 . S
C1429 C1431 1.419 . S
C1429 H1433 0.930 . S
C1430 C1429 1.369 . S
C1430 C1439 1.429 . S
C1431 C1429 1.419 . S
C1431 C1432 1.363 . S
C1431 H1434 0.929 . S
C1432 C1431 1.363 . S
C1432 C1438 1.428 . S
H1433 C1429 0.930 . S
H1434 C1431 0.929 . S
S1435 N1436 1.613 . S
S1435 N1437 1.610 . S
N1436 S1435 1.613 . S
N1436 C1439 1.350 . S
N1437 S1435 1.610 . S
N1437 C1438 1.351 . S
C1438 C1432 1.428 . S
C1438 N1437 1.351 . S
C1438 C1439 1.434 . S
C1439 C1430 1.429 . S
C1439 N1436 1.350 . S
C1439 C1438 1.434 . S
C1440 C1441 1.369 . S
C1440 C1442 1.419 . S
C1440 H1444 0.930 . S
C1441 C1440 1.369 . S
C1441 C1450 1.429 . S
C1442 C1440 1.419 . S
C1442 C1443 1.363 . S
C1442 H1445 0.929 . S
C1443 C1442 1.363 . S
C1443 C1449 1.428 . S
H1444 C1440 0.930 . S
H1445 C1442 0.929 . S
S1446 N1447 1.613 . S
S1446 N1448 1.610 . S
N1447 S1446 1.613 . S
N1447 C1450 1.350 . S
N1448 S1446 1.610 . S
N1448 C1449 1.351 . S
C1449 C1443 1.428 . S
C1449 N1448 1.351 . S
C1449 C1450 1.434 . S
C1450 C1441 1.429 . S
C1450 N1447 1.350 . S
C1450 C1449 1.434 . S
C1451 C1452 1.369 1_565 S
C1451 C1453 1.419 . S
C1451 H1455 0.930 . S
C1452 C1451 1.369 1_545 S
C1452 C1461 1.429 . S
C1453 C1451 1.419 . S
C1453 C1454 1.363 . S
C1453 H1456 0.929 . S
C1454 C1453 1.363 . S
C1454 C1460 1.428 1_565 S
H1455 C1451 0.930 . S
H1456 C1453 0.929 . S
S1457 N1458 1.613 . S
S1457 N1459 1.610 . S
N1458 S1457 1.613 . S
N1458 C1461 1.350 . S
N1459 S1457 1.610 . S
N1459 C1460 1.351 . S
C1460 C1454 1.428 1_545 S
C1460 N1459 1.351 . S
C1460 C1461 1.434 . S
C1461 C1452 1.429 . S
C1461 N1458 1.350 . S
C1461 C1460 1.434 . S
C1462 C1463 1.369 . S
C1462 C1464 1.419 . S
C1462 H1466 0.930 . S
C1463 C1462 1.369 . S
C1463 C1472 1.429 . S
C1464 C1462 1.419 . S
C1464 C1465 1.363 . S
C1464 H1467 0.929 . S
C1465 C1464 1.363 . S
C1465 C1471 1.428 . S
H1466 C1462 0.930 . S
H1467 C1464 0.929 . S
S1468 N1469 1.613 . S
S1468 N1470 1.610 . S
N1469 S1468 1.613 . S
N1469 C1472 1.350 . S
N1470 S1468 1.610 . S
N1470 C1471 1.351 . S
C1471 C1465 1.428 . S
C1471 N1470 1.351 . S
C1471 C1472 1.434 . S
C1472 C1463 1.429 . S
C1472 N1469 1.350 . S
C1472 C1471 1.434 . S
C1473 C1474 1.369 . S
C1473 C1475 1.419 . S
C1473 H1477 0.930 . S
C1474 C1473 1.369 . S
C1474 C1483 1.429 1_545 S
C1475 C1473 1.419 . S
C1475 C1476 1.363 1_545 S
C1475 H1478 0.929 . S
C1476 C1475 1.363 1_565 S
C1476 C1482 1.428 . S
H1477 C1473 0.930 . S
H1478 C1475 0.929 . S
S1479 N1480 1.613 . S
S1479 N1481 1.610 . S
N1480 S1479 1.613 . S
N1480 C1483 1.350 . S
N1481 S1479 1.610 . S
N1481 C1482 1.351 . S
C1482 C1476 1.428 . S
C1482 N1481 1.351 . S
C1482 C1483 1.434 . S
C1483 C1474 1.429 1_565 S
C1483 N1480 1.350 . S
C1483 C1482 1.434 . S
C1484 C1485 1.369 . S
C1484 C1486 1.419 . S
C1484 H1488 0.930 . S
C1485 C1484 1.369 . S
C1485 C1494 1.429 . S
C1486 C1484 1.419 . S
C1486 C1487 1.363 . S
C1486 H1489 0.929 . S
C1487 C1486 1.363 . S
C1487 C1493 1.428 . S
H1488 C1484 0.930 . S
H1489 C1486 0.929 . S
S1490 N1491 1.613 . S
S1490 N1492 1.610 . S
N1491 S1490 1.613 . S
N1491 C1494 1.350 . S
N1492 S1490 1.610 . S
N1492 C1493 1.351 . S
C1493 C1487 1.428 . S
C1493 N1492 1.351 . S
C1493 C1494 1.434 . S
C1494 C1485 1.429 . S
C1494 N1491 1.350 . S
C1494 C1493 1.434 . S
C1495 C1496 1.369 1_545 S
C1495 C1497 1.419 . S
C1495 H1499 0.930 . S
C1496 C1495 1.369 1_565 S
C1496 C1505 1.429 . S
C1497 C1495 1.419 . S
C1497 C1498 1.363 . S
C1497 H1500 0.929 . S
C1498 C1497 1.363 . S
C1498 C1504 1.428 1_545 S
H1499 C1495 0.930 . S
H1500 C1497 0.929 . S
S1501 N1502 1.613 . S
S1501 N1503 1.610 . S
N1502 S1501 1.613 . S
N1502 C1505 1.350 . S
N1503 S1501 1.610 . S
N1503 C1504 1.351 . S
C1504 C1498 1.428 1_565 S
C1504 N1503 1.351 . S
C1504 C1505 1.434 . S
C1505 C1496 1.429 . S
C1505 N1502 1.350 . S
C1505 C1504 1.434 . S
C1506 C1507 1.369 . S
C1506 C1508 1.419 . S
C1506 H1510 0.930 . S
C1507 C1506 1.369 . S
C1507 C1516 1.429 . S
C1508 C1506 1.419 . S
C1508 C1509 1.363 . S
C1508 H1511 0.929 . S
C1509 C1508 1.363 . S
C1509 C1515 1.428 . S
H1510 C1506 0.930 . S
H1511 C1508 0.929 . S
S1512 N1513 1.613 . S
S1512 N1514 1.610 . S
N1513 S1512 1.613 . S
N1513 C1516 1.350 . S
N1514 S1512 1.610 . S
N1514 C1515 1.351 . S
C1515 C1509 1.428 . S
C1515 N1514 1.351 . S
C1515 C1516 1.434 . S
C1516 C1507 1.429 . S
C1516 N1513 1.350 . S
C1516 C1515 1.434 . S
C1517 C1518 1.369 . S
C1517 C1519 1.419 1_545 S
C1517 H1521 0.930 . S
C1518 C1517 1.369 . S
C1518 C1527 1.429 . S
C1519 C1517 1.419 1_565 S
C1519 C1520 1.363 . S
C1519 H1522 0.929 . S
C1520 C1519 1.363 . S
C1520 C1526 1.430 . S
H1521 C1517 0.930 . S
H1522 C1519 0.929 . S
S1523 N1524 1.613 1_565 S
S1523 N1525 1.611 . S
N1524 S1523 1.613 1_545 S
N1524 C1527 1.350 . S
N1525 S1523 1.611 . S
N1525 C1526 1.352 . S
C1526 C1520 1.430 . S
C1526 N1525 1.352 . S
C1526 C1527 1.432 1_565 S
C1527 C1518 1.429 . S
C1527 N1524 1.350 . S
C1527 C1526 1.432 1_545 S
C1528 C1529 1.369 . S
C1528 C1530 1.419 . S
C1528 H1532 0.930 . S
C1529 C1528 1.369 . S
C1529 C1538 1.429 . S
C1530 C1528 1.419 . S
C1530 C1531 1.363 . S
C1530 H1533 0.929 . S
C1531 C1530 1.363 . S
C1531 C1537 1.428 . S
H1532 C1528 0.930 . S
H1533 C1530 0.929 . S
S1534 N1535 1.613 . S
S1534 N1536 1.610 . S
N1535 S1534 1.613 . S
N1535 C1538 1.350 . S
N1536 S1534 1.610 . S
N1536 C1537 1.351 . S
C1537 C1531 1.428 . S
C1537 N1536 1.351 . S
C1537 C1538 1.434 . S
C1538 C1529 1.429 . S
C1538 N1535 1.350 . S
C1538 C1537 1.434 . S
C1539 C1540 1.369 . S
C1539 C1541 1.419 . S
C1539 H1543 0.930 . S
C1540 C1539 1.369 . S
C1540 C1549 1.429 1_565 S
C1541 C1539 1.419 . S
C1541 C1542 1.363 1_565 S
C1541 H1544 0.929 . S
C1542 C1541 1.363 1_545 S
C1542 C1548 1.428 . S
H1543 C1539 0.930 . S
H1544 C1541 0.929 . S
S1545 N1546 1.613 . S
S1545 N1547 1.610 . S
N1546 S1545 1.613 . S
N1546 C1549 1.350 . S
N1547 S1545 1.610 . S
N1547 C1548 1.351 . S
C1548 C1542 1.428 . S
C1548 N1547 1.351 . S
C1548 C1549 1.434 . S
C1549 C1540 1.429 1_545 S
C1549 N1546 1.350 . S
C1549 C1548 1.434 . S
C1550 C1551 1.369 . S
C1550 C1552 1.419 . S
C1550 H1554 0.930 . S
C1551 C1550 1.369 . S
C1551 C1560 1.429 . S
C1552 C1550 1.419 . S
C1552 C1553 1.363 . S
C1552 H1555 0.929 . S
C1553 C1552 1.363 . S
C1553 C1559 1.428 . S
H1554 C1550 0.930 . S
H1555 C1552 0.929 . S
S1556 N1557 1.613 . S
S1556 N1558 1.610 . S
N1557 S1556 1.613 . S
N1557 C1560 1.350 . S
N1558 S1556 1.610 . S
N1558 C1559 1.351 . S
C1559 C1553 1.428 . S
C1559 N1558 1.351 . S
C1559 C1560 1.434 . S
C1560 C1551 1.429 . S
C1560 N1557 1.350 . S
C1560 C1559 1.434 . S
C1561 C1562 1.369 1_565 S
C1561 C1563 1.419 . S
C1561 H1565 0.930 . S
C1562 C1561 1.369 1_545 S
C1562 C1571 1.429 . S
C1563 C1561 1.419 . S
C1563 C1564 1.363 . S
C1563 H1566 0.929 . S
C1564 C1563 1.363 . S
C1564 C1570 1.428 1_565 S
H1565 C1561 0.930 . S
H1566 C1563 0.929 . S
S1567 N1568 1.613 . S
S1567 N1569 1.610 . S
N1568 S1567 1.613 . S
N1568 C1571 1.350 . S
N1569 S1567 1.610 . S
N1569 C1570 1.351 . S
C1570 C1564 1.428 1_545 S
C1570 N1569 1.351 . S
C1570 C1571 1.434 . S
C1571 C1562 1.429 . S
C1571 N1568 1.350 . S
C1571 C1570 1.434 . S
C1572 C1573 1.369 . S
C1572 C1574 1.419 . S
C1572 H1576 0.930 . S
C1573 C1572 1.369 . S
C1573 C1582 1.429 . S
C1574 C1572 1.419 . S
C1574 C1575 1.363 . S
C1574 H1577 0.929 . S
C1575 C1574 1.363 . S
C1575 C1581 1.428 . S
H1576 C1572 0.930 . S
H1577 C1574 0.929 . S
S1578 N1579 1.613 . S
S1578 N1580 1.610 . S
N1579 S1578 1.613 . S
N1579 C1582 1.350 . S
N1580 S1578 1.610 . S
N1580 C1581 1.351 . S
C1581 C1575 1.428 . S
C1581 N1580 1.351 . S
C1581 C1582 1.434 . S
C1582 C1573 1.429 . S
C1582 N1579 1.350 . S
C1582 C1581 1.434 . S
C1583 C1584 1.369 1_565 S
C1583 C1585 1.419 . S
C1583 H1587 0.930 . S
C1584 C1583 1.369 1_545 S
C1584 C1593 1.429 . S
C1585 C1583 1.419 . S
C1585 C1586 1.363 . S
C1585 H1588 0.929 . S
C1586 C1585 1.363 . S
C1586 C1592 1.428 1_565 S
H1587 C1583 0.930 . S
H1588 C1585 0.929 . S
S1589 N1590 1.613 . S
S1589 N1591 1.610 . S
N1590 S1589 1.613 . S
N1590 C1593 1.350 . S
N1591 S1589 1.610 . S
N1591 C1592 1.351 . S
C1592 C1586 1.428 1_545 S
C1592 N1591 1.351 . S
C1592 C1593 1.434 . S
C1593 C1584 1.429 . S
C1593 N1590 1.350 . S
C1593 C1592 1.434 . S
C1594 C1595 1.369 . S
C1594 C1596 1.419 . S
C1594 H1598 0.930 . S
C1595 C1594 1.369 . S
C1595 C1604 1.429 . S
C1596 C1594 1.419 . S
C1596 C1597 1.363 . S
C1596 H1599 0.929 . S
C1597 C1596 1.363 . S
C1597 C1603 1.428 . S
H1598 C1594 0.930 . S
H1599 C1596 0.929 . S
S1600 N1601 1.613 . S
S1600 N1602 1.610 . S
N1601 S1600 1.613 . S
N1601 C1604 1.350 . S
N1602 S1600 1.610 . S
N1602 C1603 1.351 . S
C1603 C1597 1.428 . S
C1603 N1602 1.351 . S
C1603 C1604 1.434 . S
C1604 C1595 1.429 . S
C1604 N1601 1.350 . S
C1604 C1603 1.434 . S
C1605 C1606 1.369 1_565 S
C1605 C1607 1.419 . S
C1605 H1609 0.930 . S
C1606 C1605 1.369 1_545 S
C1606 C1615 1.429 . S
C1607 C1605 1.419 . S
C1607 C1608 1.363 . S
C1607 H1610 0.929 . S
C1608 C1607 1.363 . S
C1608 C1614 1.428 1_565 S
H1609 C1605 0.930 . S
H1610 C1607 0.929 . S
S1611 N1612 1.613 . S
S1611 N1613 1.610 . S
N1612 S1611 1.613 . S
N1612 C1615 1.350 . S
N1613 S1611 1.610 . S
N1613 C1614 1.351 . S
C1614 C1608 1.428 1_545 S
C1614 N1613 1.351 . S
C1614 C1615 1.434 . S
C1615 C1606 1.429 . S
C1615 N1612 1.350 . S
C1615 C1614 1.434 . S
C1616 C1617 1.369 . S
C1616 C1618 1.419 . S
C1616 H1620 0.930 . S
C1617 C1616 1.369 . S
C1617 C1626 1.429 . S
C1618 C1616 1.419 . S
C1618 C1619 1.363 . S
C1618 H1621 0.929 . S
C1619 C1618 1.363 . S
C1619 C1625 1.428 . S
H1620 C1616 0.930 . S
H1621 C1618 0.929 . S
S1622 N1623 1.613 . S
S1622 N1624 1.610 . S
N1623 S1622 1.613 . S
N1623 C1626 1.350 . S
N1624 S1622 1.610 . S
N1624 C1625 1.351 . S
C1625 C1619 1.428 . S
C1625 N1624 1.351 . S
C1625 C1626 1.434 . S
C1626 C1617 1.429 . S
C1626 N1623 1.350 . S
C1626 C1625 1.434 . S
C1627 C1628 1.369 . S
C1627 C1629 1.419 . S
C1627 H1631 0.930 . S
C1628 C1627 1.369 . S
C1628 C1637 1.429 . S
C1629 C1627 1.419 . S
C1629 C1630 1.363 . S
C1629 H1632 0.929 . S
C1630 C1629 1.363 . S
C1630 C1636 1.428 . S
H1631 C1627 0.930 . S
H1632 C1629 0.929 . S
S1633 N1634 1.613 . S
S1633 N1635 1.610 . S
N1634 S1633 1.613 . S
N1634 C1637 1.350 . S
N1635 S1633 1.610 . S
N1635 C1636 1.351 . S
C1636 C1630 1.428 . S
C1636 N1635 1.351 . S
C1636 C1637 1.434 . S
C1637 C1628 1.429 . S
C1637 N1634 1.350 . S
C1637 C1636 1.434 . S
C1638 C1639 1.369 . S
C1638 C1640 1.419 . S
C1638 H1642 0.930 . S
C1639 C1638 1.369 . S
C1639 C1648 1.429 . S
C1640 C1638 1.419 . S
C1640 C1641 1.363 . S
C1640 H1643 0.929 . S
C1641 C1640 1.363 . S
C1641 C1647 1.428 . S
H1642 C1638 0.930 . S
H1643 C1640 0.929 . S
S1644 N1645 1.613 . S
S1644 N1646 1.610 . S
N1645 S1644 1.613 . S
N1645 C1648 1.350 . S
N1646 S1644 1.610 . S
N1646 C1647 1.351 . S
C1647 C1641 1.428 . S
C1647 N1646 1.351 . S
C1647 C1648 1.434 . S
C1648 C1639 1.429 . S
C1648 N1645 1.350 . S
C1648 C1647 1.434 . S
C1649 C1650 1.369 . S
C1649 C1651 1.419 . S
C1649 H1653 0.930 . S
C1650 C1649 1.369 . S
C1650 C1659 1.429 . S
C1651 C1649 1.419 . S
C1651 C1652 1.363 . S
C1651 H1654 0.929 . S
C1652 C1651 1.363 . S
C1652 C1658 1.428 . S
H1653 C1649 0.930 . S
H1654 C1651 0.929 . S
S1655 N1656 1.613 . S
S1655 N1657 1.610 . S
N1656 S1655 1.613 . S
N1656 C1659 1.350 . S
N1657 S1655 1.610 . S
N1657 C1658 1.351 . S
C1658 C1652 1.428 . S
C1658 N1657 1.351 . S
C1658 C1659 1.434 . S
C1659 C1650 1.429 . S
C1659 N1656 1.350 . S
C1659 C1658 1.434 . S
C1660 C1661 1.369 . S
C1660 C1662 1.419 . S
C1660 H1664 0.930 . S
C1661 C1660 1.369 . S
C1661 C1670 1.429 . S
C1662 C1660 1.419 . S
C1662 C1663 1.363 . S
C1662 H1665 0.929 . S
C1663 C1662 1.363 . S
C1663 C1669 1.428 . S
H1664 C1660 0.930 . S
H1665 C1662 0.929 . S
S1666 N1667 1.613 . S
S1666 N1668 1.610 . S
N1667 S1666 1.613 . S
N1667 C1670 1.350 . S
N1668 S1666 1.610 . S
N1668 C1669 1.351 . S
C1669 C1663 1.428 . S
C1669 N1668 1.351 . S
C1669 C1670 1.434 . S
C1670 C1661 1.429 . S
C1670 N1667 1.350 . S
C1670 C1669 1.434 . S
C1671 C1672 1.369 . S
C1671 C1673 1.419 . S
C1671 H1675 0.930 . S
C1672 C1671 1.369 . S
C1672 C1681 1.429 . S
C1673 C1671 1.419 . S
C1673 C1674 1.363 . S
C1673 H1676 0.929 . S
C1674 C1673 1.363 . S
C1674 C1680 1.428 . S
H1675 C1671 0.930 . S
H1676 C1673 0.929 . S
S1677 N1678 1.613 . S
S1677 N1679 1.610 . S
N1678 S1677 1.613 . S
N1678 C1681 1.350 . S
N1679 S1677 1.610 . S
N1679 C1680 1.351 . S
C1680 C1674 1.428 . S
C1680 N1679 1.351 . S
C1680 C1681 1.434 . S
C1681 C1672 1.429 . S
C1681 N1678 1.350 . S
C1681 C1680 1.434 . S
C1682 C1683 1.369 . S
C1682 C1684 1.419 . S
C1682 H1686 0.930 . S
C1683 C1682 1.369 . S
C1683 C1692 1.429 . S
C1684 C1682 1.419 . S
C1684 C1685 1.363 . S
C1684 H1687 0.929 . S
C1685 C1684 1.363 . S
C1685 C1691 1.428 . S
H1686 C1682 0.930 . S
H1687 C1684 0.929 . S
S1688 N1689 1.613 . S
S1688 N1690 1.610 . S
N1689 S1688 1.613 . S
N1689 C1692 1.350 . S
N1690 S1688 1.610 . S
N1690 C1691 1.351 . S
C1691 C1685 1.428 . S
C1691 N1690 1.351 . S
C1691 C1692 1.434 . S
C1692 C1683 1.429 . S
C1692 N1689 1.350 . S
C1692 C1691 1.434 . S
C1693 C1694 1.369 . S
C1693 C1695 1.419 . S
C1693 H1697 0.930 . S
C1694 C1693 1.369 . S
C1694 C1703 1.429 . S
C1695 C1693 1.419 . S
C1695 C1696 1.363 . S
C1695 H1698 0.929 . S
C1696 C1695 1.363 . S
C1696 C1702 1.428 . S
H1697 C1693 0.930 . S
H1698 C1695 0.929 . S
S1699 N1700 1.613 . S
S1699 N1701 1.610 . S
N1700 S1699 1.613 . S
N1700 C1703 1.350 . S
N1701 S1699 1.610 . S
N1701 C1702 1.351 . S
C1702 C1696 1.428 . S
C1702 N1701 1.351 . S
C1702 C1703 1.434 . S
C1703 C1694 1.429 . S
C1703 N1700 1.350 . S
C1703 C1702 1.434 . S
C1704 C1705 1.369 . S
C1704 C1706 1.419 . S
C1704 H1708 0.930 . S
C1705 C1704 1.369 . S
C1705 C1714 1.429 . S
C1706 C1704 1.419 . S
C1706 C1707 1.363 . S
C1706 H1709 0.929 . S
C1707 C1706 1.363 . S
C1707 C1713 1.428 . S
H1708 C1704 0.930 . S
H1709 C1706 0.929 . S
S1710 N1711 1.613 . S
S1710 N1712 1.610 . S
N1711 S1710 1.613 . S
N1711 C1714 1.350 . S
N1712 S1710 1.610 . S
N1712 C1713 1.351 . S
C1713 C1707 1.428 . S
C1713 N1712 1.351 . S
C1713 C1714 1.434 . S
C1714 C1705 1.429 . S
C1714 N1711 1.350 . S
C1714 C1713 1.434 . S
C1715 C1716 1.369 . S
C1715 C1717 1.419 . S
C1715 H1719 0.930 . S
C1716 C1715 1.369 . S
C1716 C1725 1.429 . S
C1717 C1715 1.419 . S
C1717 C1718 1.363 . S
C1717 H1720 0.929 . S
C1718 C1717 1.363 . S
C1718 C1724 1.428 . S
H1719 C1715 0.930 . S
H1720 C1717 0.929 . S
S1721 N1722 1.613 . S
S1721 N1723 1.610 . S
N1722 S1721 1.613 . S
N1722 C1725 1.350 . S
N1723 S1721 1.610 . S
N1723 C1724 1.351 . S
C1724 C1718 1.428 . S
C1724 N1723 1.351 . S
C1724 C1725 1.434 . S
C1725 C1716 1.429 . S
C1725 N1722 1.350 . S
C1725 C1724 1.434 . S
C1726 C1727 1.369 . S
C1726 C1728 1.419 . S
C1726 H1730 0.930 . S
C1727 C1726 1.369 . S
C1727 C1736 1.429 . S
C1728 C1726 1.419 . S
C1728 C1729 1.363 . S
C1728 H1731 0.929 . S
C1729 C1728 1.363 . S
C1729 C1735 1.428 . S
H1730 C1726 0.930 . S
H1731 C1728 0.929 . S
S1732 N1733 1.613 . S
S1732 N1734 1.610 . S
N1733 S1732 1.613 . S
N1733 C1736 1.350 . S
N1734 S1732 1.610 . S
N1734 C1735 1.351 . S
C1735 C1729 1.428 . S
C1735 N1734 1.351 . S
C1735 C1736 1.434 . S
C1736 C1727 1.429 . S
C1736 N1733 1.350 . S
C1736 C1735 1.434 . S
C1737 C1738 1.369 . S
C1737 C1739 1.419 . S
C1737 H1741 0.930 . S
C1738 C1737 1.369 . S
C1738 C1747 1.429 . S
C1739 C1737 1.419 . S
C1739 C1740 1.363 . S
C1739 H1742 0.929 . S
C1740 C1739 1.363 . S
C1740 C1746 1.428 . S
H1741 C1737 0.930 . S
H1742 C1739 0.929 . S
S1743 N1744 1.613 . S
S1743 N1745 1.610 . S
N1744 S1743 1.613 . S
N1744 C1747 1.350 . S
N1745 S1743 1.610 . S
N1745 C1746 1.351 . S
C1746 C1740 1.428 . S
C1746 N1745 1.351 . S
C1746 C1747 1.434 . S
C1747 C1738 1.429 . S
C1747 N1744 1.350 . S
C1747 C1746 1.434 . S
C1748 C1749 1.369 . S
C1748 C1750 1.419 . S
C1748 H1752 0.930 . S
C1749 C1748 1.369 . S
C1749 C1758 1.429 . S
C1750 C1748 1.419 . S
C1750 C1751 1.363 . S
C1750 H1753 0.929 . S
C1751 C1750 1.363 . S
C1751 C1757 1.428 . S
H1752 C1748 0.930 . S
H1753 C1750 0.929 . S
S1754 N1755 1.613 . S
S1754 N1756 1.610 . S
N1755 S1754 1.613 . S
N1755 C1758 1.350 . S
N1756 S1754 1.610 . S
N1756 C1757 1.351 . S
C1757 C1751 1.428 . S
C1757 N1756 1.351 . S
C1757 C1758 1.434 . S
C1758 C1749 1.429 . S
C1758 N1755 1.350 . S
C1758 C1757 1.434 . S
C1759 C1760 1.369 . S
C1759 C1761 1.419 . S
C1759 H1763 0.930 . S
C1760 C1759 1.369 . S
C1760 C1769 1.429 . S
C1761 C1759 1.419 . S
C1761 C1762 1.363 . S
C1761 H1764 0.929 . S
C1762 C1761 1.363 . S
C1762 C1768 1.428 . S
H1763 C1759 0.930 . S
H1764 C1761 0.929 . S
S1765 N1766 1.613 . S
S1765 N1767 1.610 . S
N1766 S1765 1.613 . S
N1766 C1769 1.350 . S
N1767 S1765 1.610 . S
N1767 C1768 1.351 . S
C1768 C1762 1.428 . S
C1768 N1767 1.351 . S
C1768 C1769 1.434 . S
C1769 C1760 1.429 . S
C1769 N1766 1.350 . S
C1769 C1768 1.434 . S
C1770 C1771 1.369 . S
C1770 C1772 1.419 . S
C1770 H1774 0.930 . S
C1771 C1770 1.369 . S
C1771 C1780 1.429 . S
C1772 C1770 1.419 . S
C1772 C1773 1.363 . S
C1772 H1775 0.929 . S
C1773 C1772 1.363 . S
C1773 C1779 1.428 . S
H1774 C1770 0.930 . S
H1775 C1772 0.929 . S
S1776 N1777 1.613 . S
S1776 N1778 1.610 . S
N1777 S1776 1.613 . S
N1777 C1780 1.350 . S
N1778 S1776 1.610 . S
N1778 C1779 1.351 . S
C1779 C1773 1.428 . S
C1779 N1778 1.351 . S
C1779 C1780 1.434 . S
C1780 C1771 1.429 . S
C1780 N1777 1.350 . S
C1780 C1779 1.434 . S
C1781 C1782 1.369 . S
C1781 C1783 1.419 . S
C1781 H1785 0.930 . S
C1782 C1781 1.369 . S
C1782 C1791 1.429 . S
C1783 C1781 1.419 . S
C1783 C1784 1.363 . S
C1783 H1786 0.929 . S
C1784 C1783 1.363 . S
C1784 C1790 1.428 . S
H1785 C1781 0.930 . S
H1786 C1783 0.929 . S
S1787 N1788 1.613 . S
S1787 N1789 1.610 . S
N1788 S1787 1.613 . S
N1788 C1791 1.350 . S
N1789 S1787 1.610 . S
N1789 C1790 1.351 . S
C1790 C1784 1.428 . S
C1790 N1789 1.351 . S
C1790 C1791 1.434 . S
C1791 C1782 1.429 . S
C1791 N1788 1.350 . S
C1791 C1790 1.434 . S
C1792 C1793 1.369 . S
C1792 C1794 1.419 . S
C1792 H1796 0.930 . S
C1793 C1792 1.369 . S
C1793 C1802 1.429 . S
C1794 C1792 1.419 . S
C1794 C1795 1.363 . S
C1794 H1797 0.929 . S
C1795 C1794 1.363 . S
C1795 C1801 1.428 . S
H1796 C1792 0.930 . S
H1797 C1794 0.929 . S
S1798 N1799 1.613 1_565 S
S1798 N1800 1.610 1_565 S
N1799 S1798 1.613 1_545 S
N1799 C1802 1.350 . S
N1800 S1798 1.610 1_545 S
N1800 C1801 1.351 . S
C1801 C1795 1.428 . S
C1801 N1800 1.351 . S
C1801 C1802 1.434 . S
C1802 C1793 1.429 . S
C1802 N1799 1.350 . S
C1802 C1801 1.434 . S
C1803 C1804 1.369 . S
C1803 C1805 1.419 . S
C1803 H1807 0.930 . S
C1804 C1803 1.369 . S
C1804 C1813 1.429 . S
C1805 C1803 1.419 . S
C1805 C1806 1.363 . S
C1805 H1808 0.929 . S
C1806 C1805 1.363 . S
C1806 C1812 1.428 . S
H1807 C1803 0.930 . S
H1808 C1805 0.929 . S
S1809 N1810 1.613 . S
S1809 N1811 1.610 . S
N1810 S1809 1.613 . S
N1810 C1813 1.350 . S
N1811 S1809 1.610 . S
N1811 C1812 1.351 . S
C1812 C1806 1.428 . S
C1812 N1811 1.351 . S
C1812 C1813 1.434 . S
C1813 C1804 1.429 . S
C1813 N1810 1.350 . S
C1813 C1812 1.434 . S
C1814 C1815 1.369 . S
C1814 C1816 1.419 . S
C1814 H1818 0.930 . S
C1815 C1814 1.369 . S
C1815 C1824 1.429 . S
C1816 C1814 1.419 . S
C1816 C1817 1.363 . S
C1816 H1819 0.929 . S
C1817 C1816 1.363 . S
C1817 C1823 1.428 . S
H1818 C1814 0.930 . S
H1819 C1816 0.929 . S
S1820 N1821 1.613 . S
S1820 N1822 1.610 . S
N1821 S1820 1.613 . S
N1821 C1824 1.350 . S
N1822 S1820 1.610 . S
N1822 C1823 1.351 . S
C1823 C1817 1.428 . S
C1823 N1822 1.351 . S
C1823 C1824 1.434 . S
C1824 C1815 1.429 . S
C1824 N1821 1.350 . S
C1824 C1823 1.434 . S
C1825 C1826 1.369 . S
C1825 C1827 1.419 . S
C1825 H1829 0.930 . S
C1826 C1825 1.369 . S
C1826 C1835 1.429 . S
C1827 C1825 1.419 . S
C1827 C1828 1.363 . S
C1827 H1830 0.929 . S
C1828 C1827 1.363 . S
C1828 C1834 1.428 . S
H1829 C1825 0.930 . S
H1830 C1827 0.929 . S
S1831 N1832 1.613 . S
S1831 N1833 1.610 . S
N1832 S1831 1.613 . S
N1832 C1835 1.350 . S
N1833 S1831 1.610 . S
N1833 C1834 1.351 . S
C1834 C1828 1.428 . S
C1834 N1833 1.351 . S
C1834 C1835 1.434 . S
C1835 C1826 1.429 . S
C1835 N1832 1.350 . S
C1835 C1834 1.434 . S
C1836 C1837 1.369 . S
C1836 C1838 1.419 . S
C1836 H1840 0.930 . S
C1837 C1836 1.369 . S
C1837 C1846 1.429 . S
C1838 C1836 1.419 . S
C1838 C1839 1.363 . S
C1838 H1841 0.929 . S
C1839 C1838 1.363 . S
C1839 C1845 1.428 . S
H1840 C1836 0.930 . S
H1841 C1838 0.929 . S
S1842 N1843 1.613 . S
S1842 N1844 1.610 . S
N1843 S1842 1.613 . S
N1843 C1846 1.350 . S
N1844 S1842 1.610 . S
N1844 C1845 1.351 . S
C1845 C1839 1.428 . S
C1845 N1844 1.351 . S
C1845 C1846 1.434 . S
C1846 C1837 1.429 . S
C1846 N1843 1.350 . S
C1846 C1845 1.434 . S
C1847 C1848 1.369 . S
C1847 C1849 1.419 . S
C1847 H1851 0.930 . S
C1848 C1847 1.369 . S
C1848 C1857 1.429 . S
C1849 C1847 1.419 . S
C1849 C1850 1.363 . S
C1849 H1852 0.929 . S
C1850 C1849 1.363 . S
C1850 C1856 1.428 . S
H1851 C1847 0.930 . S
H1852 C1849 0.929 . S
S1853 N1854 1.613 . S
S1853 N1855 1.610 . S
N1854 S1853 1.613 . S
N1854 C1857 1.350 . S
N1855 S1853 1.610 . S
N1855 C1856 1.351 . S
C1856 C1850 1.428 . S
C1856 N1855 1.351 . S
C1856 C1857 1.434 . S
C1857 C1848 1.429 . S
C1857 N1854 1.350 . S
C1857 C1856 1.434 . S
C1858 C1859 1.369 . S
C1858 C1860 1.419 . S
C1858 H1862 0.930 . S
C1859 C1858 1.369 . S
C1859 C1868 1.429 . S
C1860 C1858 1.419 . S
C1860 C1861 1.363 . S
C1860 H1863 0.929 . S
C1861 C1860 1.363 . S
C1861 C1867 1.428 . S
H1862 C1858 0.930 . S
H1863 C1860 0.929 . S
S1864 N1865 1.613 . S
S1864 N1866 1.610 1_565 S
N1865 S1864 1.613 . S
N1865 C1868 1.350 1_565 S
N1866 S1864 1.610 1_545 S
N1866 C1867 1.351 . S
C1867 C1861 1.428 . S
C1867 N1866 1.351 . S
C1867 C1868 1.434 . S
C1868 C1859 1.429 . S
C1868 N1865 1.350 1_545 S
C1868 C1867 1.434 . S
C1869 C1870 1.369 . S
C1869 C1871 1.419 . S
C1869 H1873 0.930 . S
C1870 C1869 1.369 . S
C1870 C1879 1.429 . S
C1871 C1869 1.419 . S
C1871 C1872 1.363 . S
C1871 H1874 0.929 . S
C1872 C1871 1.363 . S
C1872 C1878 1.428 . S
H1873 C1869 0.930 . S
H1874 C1871 0.929 . S
S1875 N1876 1.613 . S
S1875 N1877 1.610 . S
N1876 S1875 1.613 . S
N1876 C1879 1.350 . S
N1877 S1875 1.610 . S
N1877 C1878 1.351 . S
C1878 C1872 1.428 . S
C1878 N1877 1.351 . S
C1878 C1879 1.434 . S
C1879 C1870 1.429 . S
C1879 N1876 1.350 . S
C1879 C1878 1.434 . S
C1880 C1881 1.369 . S
C1880 C1882 1.419 . S
C1880 H1884 0.930 . S
C1881 C1880 1.369 . S
C1881 C1890 1.429 . S
C1882 C1880 1.419 . S
C1882 C1883 1.363 . S
C1882 H1885 0.929 . S
C1883 C1882 1.363 . S
C1883 C1889 1.428 . S
H1884 C1880 0.930 . S
H1885 C1882 0.929 . S
S1886 N1887 1.613 . S
S1886 N1888 1.610 . S
N1887 S1886 1.613 . S
N1887 C1890 1.350 . S
N1888 S1886 1.610 . S
N1888 C1889 1.351 . S
C1889 C1883 1.428 . S
C1889 N1888 1.351 . S
C1889 C1890 1.434 . S
C1890 C1881 1.429 . S
C1890 N1887 1.350 . S
C1890 C1889 1.434 . S
C1891 C1892 1.369 . S
C1891 C1893 1.419 . S
C1891 H1895 0.930 . S
C1892 C1891 1.369 . S
C1892 C1901 1.429 . S
C1893 C1891 1.419 . S
C1893 C1894 1.363 . S
C1893 H1896 0.929 . S
C1894 C1893 1.363 . S
C1894 C1900 1.428 . S
H1895 C1891 0.930 . S
H1896 C1893 0.929 . S
S1897 N1898 1.613 . S
S1897 N1899 1.610 . S
N1898 S1897 1.613 . S
N1898 C1901 1.350 . S
N1899 S1897 1.610 . S
N1899 C1900 1.351 . S
C1900 C1894 1.428 . S
C1900 N1899 1.351 . S
C1900 C1901 1.434 . S
C1901 C1892 1.429 . S
C1901 N1898 1.350 . S
C1901 C1900 1.434 . S
C1902 C1903 1.369 . S
C1902 C1904 1.419 . S
C1902 H1906 0.930 . S
C1903 C1902 1.369 . S
C1903 C1912 1.429 . S
C1904 C1902 1.419 . S
C1904 C1905 1.363 . S
C1904 H1907 0.929 . S
C1905 C1904 1.363 . S
C1905 C1911 1.428 . S
H1906 C1902 0.930 . S
H1907 C1904 0.929 . S
S1908 N1909 1.613 . S
S1908 N1910 1.610 . S
N1909 S1908 1.613 . S
N1909 C1912 1.350 . S
N1910 S1908 1.610 . S
N1910 C1911 1.351 . S
C1911 C1905 1.428 . S
C1911 N1910 1.351 . S
C1911 C1912 1.434 . S
C1912 C1903 1.429 . S
C1912 N1909 1.350 . S
C1912 C1911 1.434 . S
C1913 C1914 1.369 . S
C1913 C1915 1.419 . S
C1913 H1917 0.930 . S
C1914 C1913 1.369 . S
C1914 C1923 1.429 . S
C1915 C1913 1.419 . S
C1915 C1916 1.363 . S
C1915 H1918 0.929 . S
C1916 C1915 1.363 . S
C1916 C1922 1.428 . S
H1917 C1913 0.930 . S
H1918 C1915 0.929 . S
S1919 N1920 1.613 . S
S1919 N1921 1.610 . S
N1920 S1919 1.613 . S
N1920 C1923 1.350 . S
N1921 S1919 1.610 . S
N1921 C1922 1.351 . S
C1922 C1916 1.428 . S
C1922 N1921 1.351 . S
C1922 C1923 1.434 . S
C1923 C1914 1.429 . S
C1923 N1920 1.350 . S
C1923 C1922 1.434 . S
C1924 C1925 1.369 . S
C1924 C1926 1.419 . S
C1924 H1928 0.930 . S
C1925 C1924 1.369 . S
C1925 C1934 1.429 . S
C1926 C1924 1.419 . S
C1926 C1927 1.363 . S
C1926 H1929 0.929 . S
C1927 C1926 1.363 . S
C1927 C1933 1.428 . S
H1928 C1924 0.930 . S
H1929 C1926 0.929 . S
S1930 N1931 1.613 . S
S1930 N1932 1.610 . S
N1931 S1930 1.613 . S
N1931 C1934 1.350 . S
N1932 S1930 1.610 . S
N1932 C1933 1.351 . S
C1933 C1927 1.428 . S
C1933 N1932 1.351 . S
C1933 C1934 1.434 . S
C1934 C1925 1.429 . S
C1934 N1931 1.350 . S
C1934 C1933 1.434 . S
C1935 C1936 1.369 . S
C1935 C1937 1.419 . S
C1935 H1939 0.930 . S
C1936 C1935 1.369 . S
C1936 C1945 1.429 . S
C1937 C1935 1.419 . S
C1937 C1938 1.363 . S
C1937 H1940 0.929 . S
C1938 C1937 1.363 . S
C1938 C1944 1.428 . S
H1939 C1935 0.930 . S
H1940 C1937 0.929 . S
S1941 N1942 1.613 . S
S1941 N1943 1.610 . S
N1942 S1941 1.613 . S
N1942 C1945 1.350 . S
N1943 S1941 1.610 . S
N1943 C1944 1.351 . S
C1944 C1938 1.428 . S
C1944 N1943 1.351 . S
C1944 C1945 1.434 . S
C1945 C1936 1.429 . S
C1945 N1942 1.350 . S
C1945 C1944 1.434 . S
C1946 C1947 1.369 . S
C1946 C1948 1.419 . S
C1946 H1950 0.930 . S
C1947 C1946 1.369 . S
C1947 C1956 1.429 . S
C1948 C1946 1.419 . S
C1948 C1949 1.363 . S
C1948 H1951 0.929 . S
C1949 C1948 1.363 . S
C1949 C1955 1.428 . S
H1950 C1946 0.930 . S
H1951 C1948 0.929 . S
S1952 N1953 1.613 . S
S1952 N1954 1.610 . S
N1953 S1952 1.613 . S
N1953 C1956 1.350 . S
N1954 S1952 1.610 . S
N1954 C1955 1.351 . S
C1955 C1949 1.428 . S
C1955 N1954 1.351 . S
C1955 C1956 1.434 . S
C1956 C1947 1.429 . S
C1956 N1953 1.350 . S
C1956 C1955 1.434 . S
C1957 C1958 1.369 . S
C1957 C1959 1.419 . S
C1957 H1961 0.930 . S
C1958 C1957 1.369 . S
C1958 C1967 1.429 . S
C1959 C1957 1.419 . S
C1959 C1960 1.363 . S
C1959 H1962 0.929 . S
C1960 C1959 1.363 . S
C1960 C1966 1.428 . S
H1961 C1957 0.930 . S
H1962 C1959 0.929 . S
S1963 N1964 1.613 . S
S1963 N1965 1.610 . S
N1964 S1963 1.613 . S
N1964 C1967 1.350 . S
N1965 S1963 1.610 . S
N1965 C1966 1.351 . S
C1966 C1960 1.428 . S
C1966 N1965 1.351 . S
C1966 C1967 1.434 . S
C1967 C1958 1.429 . S
C1967 N1964 1.350 . S
C1967 C1966 1.434 . S
C1089 C33 0.436 . S
C1091 C645 0.423 . S
C1100 C679 0.418 . S
C1102 C67 0.437 . S
C1111 C577 0.438 . S
C1113 C101 0.421 . S
C1122 C135 0.426 . S
C1124 C611 0.431 . S
C1133 C781 0.421 . S
C1135 C169 0.433 . S
C1144 C815 0.436 . S
C1146 C203 0.423 . S
C1155 C237 0.423 . S
C1157 C713 0.433 . S
C1166 C271 0.439 . S
C1168 C747 0.421 . S
C1177 C917 0.452 . S
C1179 C305 0.468 . S
C1188 C951 0.474 . S
C1190 C339 0.461 . S
C1199 C373 0.460 . S
C1201 C849 0.471 . S
C1210 C407 0.471 . S
C1212 C883 0.456 . S
C1221 C441 0.454 . S
C1223 C1053 0.462 . S
C1232 C475 0.467 . S
C1234 C1087 0.455 . S
C1243 C985 0.470 . S
C1245 C509 0.455 . S
C1254 C543 0.467 . S
C1256 C1019 0.455 . S
C1265 C9 1.473 . S
C1267 C821 1.599 . S
C1276 C311 1.598 . S
C1278 C43 1.467 1_565 S
C1287 C889 1.600 . S
C1289 C77 1.473 . S
C1298 C111 1.465 1_545 S
C1300 C379 1.597 . S
C1309 C145 1.471 . S
C1311 C957 1.599 . S
C1320 C179 1.467 1_565 S
C1322 C447 1.596 . S
C1331 C1025 1.595 . S
C1333 C213 1.475 . S
C1342 C515 1.599 . S
C1344 C247 1.467 1_545 S
C1353 C553 1.477 . S
C1355 C277 1.595 . S
C1364 C621 1.465 . S
C1366 C345 1.597 . S
C1375 C689 1.476 . S
C1377 C413 1.595 . S
C1386 C481 1.594 . S
C1388 C757 1.471 . S
C1397 C855 1.599 . S
C1399 C587 1.476 . S
C1408 C923 1.597 . S
C1410 C655 1.477 . S
C1419 C723 1.477 . S
C1421 C991 1.599 . S
C1430 C791 1.465 . S
C1432 C1059 1.597 . S
C1441 C20 1.477 1_565 S
C1443 C954 1.466 . S
C1452 C54 1.478 . S
C1454 C444 1.466 . S
C1463 C1022 1.463 . S
C1465 C88 1.479 1_545 S
C1474 C512 1.465 . S
C1476 C122 1.479 . S
C1485 C818 1.465 . S
C1487 C156 1.478 1_545 S
C1496 C308 1.462 . S
C1498 C190 1.480 . S
C1507 C224 1.477 1_565 S
C1509 C886 1.465 . S
C1518 C376 1.463 . S
C1520 C258 1.480 . S
C1529 C682 1.473 . S
C1531 C292 1.482 1_545 S
C1540 C326 1.485 . S
C1542 C172 1.469 . S
C1551 C750 1.465 . S
C1553 C360 1.487 1_565 S
C1562 C394 1.485 . S
C1564 C240 1.471 . S
C1573 C428 1.481 1_565 S
C1575 C546 1.472 . S
C1584 C36 1.472 . S
C1586 C462 1.483 . S
C1595 C614 1.469 . S
C1597 C496 1.483 1_545 S
C1606 C530 1.486 . S
C1608 C104 1.470 . S
C1617 C564 1.477 . S
C1619 C410 1.465 . S
C1628 C598 1.478 . S
C1630 C988 1.466 . S
C1639 C478 1.462 . S
C1641 C632 1.480 . S
C1650 C666 1.478 . S
C1652 C1056 1.466 . S
C1661 C700 1.478 . S
C1663 C274 1.464 . S
C1672 C852 1.461 . S
C1674 C734 1.480 . S
C1683 C768 1.480 . S
C1685 C342 1.463 . S
C1694 C802 1.481 . S
C1696 C920 1.461 . S
C1705 C836 1.481 . S
C1707 C138 1.472 . S
C1716 C716 1.466 . S
C1718 C870 1.487 . S
C1727 C904 1.484 . S
C1729 C206 1.470 . S
C1738 C784 1.473 . S
C1740 C938 1.483 . S
C1749 C972 1.487 . S
C1751 C2 1.466 . S
C1760 C1006 1.484 . S
C1762 C580 1.472 . S
C1771 C1040 1.487 . S
C1773 C70 1.466 . S
C1782 C1074 1.488 . S
C1784 C648 1.467 . S
C1793 C5 2.002 . S
C1795 C175 2.001 . S
C1804 C209 2.000 . S
C1806 C39 2.003 . S
C1815 C73 1.999 . S
C1817 C243 2.004 . S
C1826 C107 2.001 . S
C1828 C141 2.003 . S
C1837 C451 1.342 . S
C1839 C281 1.358 . S
C1848 C485 1.343 . S
C1850 C315 1.354 . S
C1859 C519 1.359 . S
C1861 C349 1.350 . S
C1870 C383 1.356 . S
C1872 C417 1.345 . S
C1881 C549 2.000 . S
C1883 C719 2.003 . S
C1892 C753 2.004 . S
C1894 C583 2.000 . S
C1903 C617 2.001 . S
C1905 C787 2.002 . S
C1914 C685 2.000 . S
C1916 C651 2.003 . S
C1925 C995 1.344 . S
C1927 C825 1.358 . S
C1936 C1029 1.347 . S
C1938 C859 1.358 . S
C1947 C893 1.356 . S
C1949 C1063 1.345 . S
C1958 C961 1.356 . S
C1960 C927 1.352 . S
