# Generated by pormake.
# Topology sml, (6)-cn, num edge types: 1
# Building blocks:
#     Node 0, Type 0, BuildingBlock: MIFKUJ_clean_sbu_0, # of connection points: 6
#     Node 1, Type 0, BuildingBlock: MIFKUJ_clean_sbu_0, # of connection points: 6
#     Node 2, Type 0, BuildingBlock: MIFKUJ_clean_sbu_0, # of connection points: 6
#     Node 3, Type 0, BuildingBlock: MIFKUJ_clean_sbu_0, # of connection points: 6
#     Node 4, Type 0, BuildingBlock: MIFKUJ_clean_sbu_0, # of connection points: 6
#     Node 5, Type 0, BuildingBlock: MIFKUJ_clean_sbu_0, # of connection points: 6
#     Edge 6, Type (0, 0), BuildingBlock: EZIPEK_clean_linker_0, # of connection points: 2
#     Edge 7, Type (0, 0), BuildingBlock: EZIPEK_clean_linker_0, # of connection points: 2
#     Edge 8, Type (0, 0), BuildingBlock: EZIPEK_clean_linker_0, # of connection points: 2
#     Edge 9, Type (0, 0), BuildingBlock: EZIPEK_clean_linker_0, # of connection points: 2
#     Edge 10, Type (0, 0), BuildingBlock: EZIPEK_clean_linker_0, # of connection points: 2
#     Edge 11, Type (0, 0), BuildingBlock: EZIPEK_clean_linker_0, # of connection points: 2
#     Edge 12, Type (0, 0), BuildingBlock: EZIPEK_clean_linker_0, # of connection points: 2
#     Edge 13, Type (0, 0), BuildingBlock: EZIPEK_clean_linker_0, # of connection points: 2
#     Edge 14, Type (0, 0), BuildingBlock: EZIPEK_clean_linker_0, # of connection points: 2
#     Edge 15, Type (0, 0), BuildingBlock: EZIPEK_clean_linker_0, # of connection points: 2
#     Edge 16, Type (0, 0), BuildingBlock: EZIPEK_clean_linker_0, # of connection points: 2
#     Edge 17, Type (0, 0), BuildingBlock: EZIPEK_clean_linker_0, # of connection points: 2
#     Edge 18, Type (0, 0), BuildingBlock: EZIPEK_clean_linker_0, # of connection points: 2
#     Edge 19, Type (0, 0), BuildingBlock: EZIPEK_clean_linker_0, # of connection points: 2
#     Edge 20, Type (0, 0), BuildingBlock: EZIPEK_clean_linker_0, # of connection points: 2
#     Edge 21, Type (0, 0), BuildingBlock: EZIPEK_clean_linker_0, # of connection points: 2
#     Edge 22, Type (0, 0), BuildingBlock: EZIPEK_clean_linker_0, # of connection points: 2
#     Edge 23, Type (0, 0), BuildingBlock: EZIPEK_clean_linker_0, # of connection points: 2
# Relax obj value: 0.139
# Max RMSD: 0.181
# Mean RMSD: 0.181
data_MOF--net-sml--node1-MIFKUJ_clean_sbu_0--edge1-EZIPEK_clean_linker_0
_symmetry_space_group_name_H-M    P1
_symmetry_Int_Tables_number       1
_symmetry_cell_setting            triclinic
loop_
_symmetry_equiv_pos_as_xyz
'x, y, z'
_cell_length_a     28.680851
_cell_length_b     29.046825
_cell_length_c     14.571477
_cell_angle_alpha  88.874783
_cell_angle_beta   90.44885
_cell_angle_gamma 120.3618
loop_
_atom_site_label
_atom_site_type_symbol
_atom_site_fract_x
_atom_site_fract_y
_atom_site_fract_z
_atom_type_partial_charge
Zn0 Zn 0.1958 0.44203 0.11392 0.0
Zn1 Zn 0.19082 0.35963 0.8733 0.0
C2 C 0.18984 0.52866 0.16339 0.0
O3 O 0.24057 0.54223 0.17606 0.0
C4 C 0.21313 0.27999 0.82918 0.0
O5 O 0.16517 0.26017 0.79151 0.0
O6 O 0.21533 0.42652 0.23917 0.0
O7 O 0.15359 0.37758 0.03974 0.0
O8 O 0.11941 0.315 0.9399 0.0
C9 C 0.17897 0.41065 0.30054 0.0
O10 O 0.13086 0.40219 0.27839 0.0
O11 O 0.15733 0.48315 0.13103 0.0
C12 C 0.21394 0.40286 0.68925 0.0
O13 O 0.25977 0.43845 0.72618 0.0
O14 O 0.17699 0.36685 0.73942 0.0
O15 O 0.24168 0.43255 0.92734 0.0
O16 O 0.26312 0.48939 0.03978 0.0
O17 O 0.23112 0.32103 0.8781 0.0
C18 C 0.11425 0.3335 0.01463 0.0
C19 C 0.27337 0.47806 0.96125 0.0
Zn20 Zn 0.78943 0.2186 0.43234 0.0
Zn21 Zn 0.79853 0.19892 0.20553 0.0
C22 C 0.68749 0.2033 0.4828 0.0
O23 O 0.71968 0.24075 0.53922 0.0
C24 C 0.90611 0.21258 0.19398 0.0
O25 O 0.87958 0.16041 0.18723 0.0
O26 O 0.80501 0.23224 0.56861 0.0
O27 O 0.80973 0.16366 0.4025 0.0
O28 O 0.76175 0.12985 0.27771 0.0
C29 C 0.79251 0.19245 0.62217 0.0
O30 O 0.77773 0.14575 0.58698 0.0
O31 O 0.70762 0.18644 0.42393 0.0
C32 C 0.77459 0.21023 0.01449 0.0
O33 O 0.76879 0.24928 0.04491 0.0
O34 O 0.78373 0.18165 0.07066 0.0
O35 O 0.77599 0.25249 0.23337 0.0
O36 O 0.82442 0.28871 0.35818 0.0
O37 O 0.88017 0.23637 0.21022 0.0
C38 C 0.77734 0.12344 0.35618 0.0
C39 C 0.80281 0.29268 0.28392 0.0
Zn40 Zn 0.54139 0.76553 0.77407 0.0
Zn41 Zn 0.60615 0.80235 0.53855 0.0
C42 C 0.47308 0.6549 0.82318 0.0
O43 O 0.5162 0.66286 0.86859 0.0
C44 C 0.68532 0.90776 0.49877 0.0
O45 O 0.7053 0.88156 0.45798 0.0
O46 O 0.54538 0.78325 0.908 0.0
O47 O 0.6055 0.75854 0.74578 0.0
O48 O 0.64692 0.77419 0.61101 0.0
C49 C 0.58845 0.80122 0.95491 0.0
O50 O 0.63478 0.81711 0.91345 0.0
O51 O 0.47559 0.69204 0.77194 0.0
C52 C 0.56647 0.77548 0.35055 0.0
O53 O 0.51921 0.75958 0.38833 0.0
O54 O 0.60812 0.79113 0.40101 0.0
O55 O 0.52782 0.76961 0.57126 0.0
O56 O 0.52451 0.81202 0.69177 0.0
O57 O 0.64335 0.88217 0.54861 0.0
C58 C 0.6424 0.76067 0.69548 0.0
C59 C 0.51063 0.79699 0.60974 0.0
Zn60 Zn 0.76638 0.55017 0.09876 0.0
Zn61 Zn 0.79496 0.59007 0.87165 0.0
C62 C 0.76828 0.45131 0.11143 0.0
O63 O 0.7171 0.43067 0.08976 0.0
C64 C 0.76814 0.67094 0.83677 0.0
O65 O 0.81571 0.69354 0.79702 0.0
O66 O 0.74288 0.55302 0.22995 0.0
O67 O 0.82458 0.62737 0.07422 0.0
O68 O 0.86387 0.62573 0.94529 0.0
C69 C 0.76799 0.54562 0.29593 0.0
O70 O 0.80525 0.53356 0.27856 0.0
O71 O 0.79893 0.50181 0.10963 0.0
C72 C 0.76921 0.56632 0.68652 0.0
O73 O 0.72264 0.53743 0.72827 0.0
O74 O 0.81127 0.59411 0.7347 0.0
O75 O 0.7453 0.51203 0.89582 0.0
O76 O 0.70054 0.51495 0.01564 0.0
O77 O 0.75237 0.62825 0.88392 0.0
C78 C 0.86653 0.64472 0.02432 0.0
C79 C 0.70117 0.49498 0.93895 0.0
Zn80 Zn 0.21573 0.77975 0.45734 0.0
Zn81 Zn 0.17657 0.80338 0.21294 0.0
C82 C 0.31271 0.78691 0.51081 0.0
O83 O 0.27676 0.74986 0.56585 0.0
C84 C 0.07642 0.79989 0.16559 0.0
O85 O 0.10672 0.84988 0.13873 0.0
O86 O 0.1936 0.76164 0.58921 0.0
O87 O 0.1906 0.83156 0.41706 0.0
O88 O 0.22099 0.87101 0.28318 0.0
C89 C 0.18404 0.79097 0.63965 0.0
O90 O 0.18459 0.83322 0.60487 0.0
O91 O 0.29725 0.80938 0.45207 0.0
C92 C 0.18038 0.77275 0.03322 0.0
O93 O 0.15887 0.72599 0.075 0.0
O94 O 0.19547 0.81455 0.07975 0.0
O95 O 0.17902 0.73946 0.25457 0.0
O96 O 0.18723 0.71091 0.39158 0.0
O97 O 0.09758 0.77708 0.21 0.0
C98 C 0.2185 0.87396 0.36967 0.0
C99 C 0.18102 0.70486 0.30567 0.0
Zn100 Zn 0.4409 0.20753 0.75295 0.0
Zn101 Zn 0.39743 0.18972 0.52079 0.0
C102 C 0.49828 0.31735 0.81351 0.0
O103 O 0.46175 0.29843 0.87874 0.0
C104 C 0.30494 0.08714 0.50986 0.0
O105 O 0.2806 0.11515 0.50478 0.0
O106 O 0.43847 0.19153 0.89033 0.0
O107 O 0.36358 0.18035 0.71687 0.0
O108 O 0.36421 0.22358 0.59126 0.0
C109 C 0.39658 0.17915 0.93834 0.0
O110 O 0.35122 0.16829 0.89783 0.0
O111 O 0.49264 0.2882 0.74523 0.0
C112 C 0.4235 0.19641 0.33224 0.0
O113 O 0.46159 0.18894 0.36706 0.0
O114 O 0.39194 0.20193 0.38581 0.0
O115 O 0.47469 0.21489 0.5478 0.0
O116 O 0.47814 0.17671 0.67914 0.0
O117 O 0.35494 0.11033 0.52897 0.0
C118 C 0.3486 0.20862 0.6731 0.0
C119 C 0.49468 0.19261 0.59718 0.0
C120 C 0.26559 0.18928 0.76182 0.0
C121 C 0.31539 0.2267 0.71952 0.0
C122 C 0.29849 0.29924 0.75039 0.0
C123 C 0.25025 0.26246 0.79769 0.0
N124 N 0.19379 0.17527 0.86591 0.0
N125 N 0.38561 0.31837 0.69474 0.0
C126 C 0.23561 0.20825 0.80888 0.0
C127 C 0.33378 0.28201 0.72031 0.0
N128 N 0.24552 0.13572 0.75305 0.0
N129 N 0.30963 0.34997 0.72985 0.0
H130 H 0.41376 0.30773 0.67543 0.0
H131 H 0.40239 0.35937 0.7011 0.0
H132 H 0.28554 0.36521 0.75005 0.0
H133 H 0.34023 0.37569 0.68489 0.0
H134 H 0.2069 0.1068 0.77447 0.0
H135 H 0.26539 0.12002 0.71691 0.0
H136 H 0.18476 0.13679 0.88428 0.0
H137 H 0.17128 0.18818 0.90182 0.0
C138 C 0.05903 0.28827 0.15738 0.0
C139 C 0.06204 0.30605 0.06488 0.0
C140 C 0.96346 0.25632 0.05562 0.0
C141 C 0.96018 0.24382 0.15076 0.0
N142 N 0.00464 0.25341 0.2959 0.0
N143 N 0.01674 0.31729 0.93344 0.0
C144 C 0.00797 0.26168 0.20301 0.0
C145 C 0.01412 0.29308 0.0162 0.0
N146 N 0.10414 0.29383 0.19982 0.0
N147 N 0.91856 0.23154 0.00165 0.0
H148 H 0.0531 0.34617 0.90358 0.0
H149 H 0.98266 0.31298 0.89955 0.0
H150 H 0.88047 0.204 0.02728 0.0
H151 H 0.92038 0.23424 0.93019 0.0
H152 H 0.10314 0.27635 0.26343 0.0
H153 H 0.14195 0.31221 0.16812 0.0
H154 H 0.03826 0.27042 0.3388 0.0
H155 H 0.96776 0.23268 0.3306 0.0
C156 C 0.78723 0.05118 0.43639 0.0
C157 C 0.75337 0.06919 0.39828 0.0
C158 C 0.67358 0.98178 0.43156 0.0
C159 C 0.70718 0.96485 0.47445 0.0
N160 N 0.79388 0.98742 0.53748 0.0
N161 N 0.66334 0.0559 0.38179 0.0
C162 C 0.76342 0.00091 0.48309 0.0
C163 C 0.69626 0.03581 0.40259 0.0
N164 N 0.84194 0.08064 0.42388 0.0
N165 N 0.6206 0.94591 0.41338 0.0
H166 H 0.67769 0.09519 0.3605 0.0
H167 H 0.62188 0.03502 0.39443 0.0
H168 H 0.60167 0.90584 0.43278 0.0
H169 H 0.5964 0.95492 0.37193 0.0
H170 H 0.86798 0.0668 0.44195 0.0
H171 H 0.861 0.1168 0.38738 0.0
H172 H 0.83405 0.01406 0.55385 0.0
H173 H 0.77735 0.95123 0.57391 0.0
C174 C 0.72275 0.77041 0.78202 0.0
C175 C 0.67413 0.73777 0.73388 0.0
C176 C 0.68228 0.65911 0.7655 0.0
C177 C 0.73116 0.69149 0.81415 0.0
N178 N 0.79139 0.77475 0.88642 0.0
N179 N 0.60134 0.6502 0.69552 0.0
C180 C 0.74947 0.74634 0.8276 0.0
C181 C 0.65206 0.68189 0.73044 0.0
N182 N 0.74365 0.82441 0.78273 0.0
N183 N 0.66572 0.60704 0.74846 0.0
H184 H 0.57859 0.66523 0.66513 0.0
H185 H 0.57995 0.60878 0.70246 0.0
H186 H 0.68243 0.58661 0.78011 0.0
H187 H 0.63636 0.58434 0.70028 0.0
H188 H 0.78152 0.85129 0.80891 0.0
H189 H 0.72437 0.84291 0.75141 0.0
H190 H 0.80398 0.81354 0.90617 0.0
H191 H 0.81063 0.7576 0.92239 0.0
C192 C 0.9812 0.72636 0.19018 0.0
C193 C 0.02047 0.76605 0.13082 0.0
C194 C 0.95445 0.73213 0.0056 0.0
C195 C 0.9193 0.6871 0.06075 0.0
N196 N 0.90751 0.63556 0.1999 0.0
N197 N 0.04735 0.79754 0.97349 0.0
C198 C 0.93471 0.68268 0.1519 0.0
C199 C 0.00799 0.76692 0.03615 0.0
N200 N 0.98812 0.73028 0.28314 0.0
N201 N 0.93673 0.74261 0.92503 0.0
H202 H 0.08817 0.82032 -0.01055 0.0
H203 H 0.04029 0.79488 0.90297 0.0
H204 H 0.8972 0.7193 0.90205 0.0
H205 H 0.95955 0.77773 0.88683 0.0
H206 H 0.95832 0.70435 0.32925 0.0
H207 H 0.0209 0.76284 0.31381 0.0
H208 H 0.92004 0.62928 0.26391 0.0
H209 H 0.87685 0.60094 0.17067 0.0
C210 C 0.28329 -0.0073 0.53106 0.0
C211 C 0.2774 0.03111 0.47917 0.0
C212 C 0.22201 0.96247 0.36826 0.0
C213 C 0.23606 0.92686 0.41104 0.0
N214 N 0.28907 0.91311 0.5262 0.0
N215 N 0.25174 0.05481 0.33455 0.0
C216 C 0.2689 0.9432 0.49095 0.0
C217 C 0.24942 0.01674 0.39406 0.0
N218 N 0.30156 0.00286 0.61944 0.0
N219 N 0.18138 0.94438 0.3051 0.0
H220 H 0.27464 0.09559 0.34644 0.0
H221 H 0.23604 0.04605 0.26828 0.0
H222 H 0.15778 0.90414 0.28919 0.0
H223 H 0.16694 0.96821 0.27766 0.0
H224 H 0.30178 0.97401 0.66291 0.0
H225 H 0.31094 0.03812 0.65225 0.0
H226 H 0.31915 0.92701 0.57614 0.0
H227 H 0.27884 0.87624 0.50027 0.0
C228 C 0.19935 0.4466 0.5519 0.0
C229 C 0.20578 0.40477 0.5893 0.0
C230 C 0.20036 0.36936 0.43519 0.0
C231 C 0.1927 0.41059 0.39847 0.0
N232 N 0.19836 0.49553 0.41618 0.0
N233 N 0.20844 0.32377 0.57063 0.0
C234 C 0.1958 0.45114 0.45533 0.0
C235 C 0.20539 0.36546 0.53198 0.0
N236 N 0.19399 0.48043 0.6092 0.0
N237 N 0.20446 0.33517 0.377 0.0
H238 H 0.21317 0.32027 0.64076 0.0
H239 H 0.20349 0.29096 0.53496 0.0
H240 H 0.2016 0.33762 0.30594 0.0
H241 H 0.21437 0.30667 0.39729 0.0
H242 H 0.18271 0.50771 0.58718 0.0
H243 H 0.19651 0.47847 0.68049 0.0
H244 H 0.20619 0.52921 0.45239 0.0
H245 H 0.19798 0.50097 0.34544 0.0
C246 C 0.73786 0.16117 0.86755 0.0
C247 C 0.77932 0.2052 0.91451 0.0
C248 C 0.83201 0.23811 0.77174 0.0
C249 C 0.78823 0.19701 0.72294 0.0
N250 N 0.69441 0.12677 0.72204 0.0
N251 N 0.86322 0.28951 0.91047 0.0
C252 C 0.73981 0.16027 0.77022 0.0
C253 C 0.82539 0.24508 0.86612 0.0
N254 N 0.69642 0.12027 0.91568 0.0
N255 N 0.88096 0.26859 0.72947 0.0
H256 H 0.8629 0.29383 0.98118 0.0
H257 H 0.8936 0.32313 0.87654 0.0
H258 H 0.88813 0.26353 0.66141 0.0
H259 H 0.91594 0.29538 0.76405 0.0
H260 H 0.66855 0.08427 0.88608 0.0
H261 H 0.69222 0.12062 -0.01334 0.0
H262 H 0.65656 0.10327 0.75227 0.0
H263 H 0.69305 0.12662 0.65073 0.0
C264 C 0.5617 0.81953 0.20364 0.0
C265 C 0.57224 0.78197 0.24925 0.0
C266 C 0.59668 0.75954 0.1024 0.0
C267 C 0.58454 0.79597 0.05649 0.0
N268 N 0.55051 0.85668 0.06009 0.0
N269 N 0.59203 0.71087 0.24304 0.0
C270 C 0.5655 0.82472 0.10625 0.0
C271 C 0.58813 0.75084 0.19896 0.0
N272 N 0.54999 0.85173 0.25389 0.0
N273 N 0.61561 0.7326 0.05342 0.0
H274 H 0.58577 0.70326 0.31346 0.0
H275 H 0.59753 0.68259 0.20982 0.0
H276 H 0.61716 0.73317 0.98197 0.0
H277 H 0.63198 0.7111 0.08323 0.0
H278 H 0.54886 0.88456 0.22684 0.0
H279 H 0.54438 0.84785 0.32468 0.0
H280 H 0.52954 0.87313 0.09 0.0
H281 H 0.5566 0.86487 -0.01021 0.0
C282 C 0.79531 0.61053 0.52837 0.0
C283 C 0.77092 0.5636 0.58501 0.0
C284 C 0.7289 0.51002 0.44941 0.0
C285 C 0.76022 0.55487 0.39233 0.0
N286 N 0.82694 0.64812 0.37576 0.0
N287 N 0.72534 0.46717 0.59448 0.0
C288 C 0.79454 0.60537 0.4313 0.0
C289 C 0.74074 0.51283 0.54409 0.0
N290 N 0.81689 0.65974 0.56622 0.0
N291 N 0.68673 0.46523 0.41347 0.0
H292 H 0.73645 0.46745 0.66293 0.0
H293 H 0.7072 0.42955 0.56515 0.0
H294 H 0.67463 0.46449 0.34553 0.0
H295 H 0.66015 0.43223 0.45356 0.0
H296 H 0.82982 0.69464 0.52741 0.0
H297 H 0.81753 0.66533 0.63649 0.0
H298 H 0.85749 0.68437 0.40068 0.0
H299 H 0.82496 0.64626 0.30427 0.0
C300 C 0.1356 0.74645 0.78453 0.0
C301 C 0.1839 0.78398 0.73968 0.0
C302 C 0.23191 0.81025 0.88654 0.0
C303 C 0.18218 0.77591 0.93205 0.0
N304 N 0.08507 0.7173 0.92648 0.0
N305 N 0.27961 0.84659 0.74184 0.0
C306 C 0.13365 0.74507 0.88171 0.0
C307 C 0.23259 0.81483 0.78909 0.0
N308 N 0.0919 0.71151 0.73399 0.0
N309 N 0.27832 0.8374 0.93679 0.0
H310 H 0.28188 0.8474 0.67047 0.0
H311 H 0.31701 0.8712 0.77147 0.0
H312 H 0.28002 0.83152 0.00725 0.0
H313 H 0.31584 0.86525 0.91009 0.0
H314 H 0.05774 0.67879 0.76236 0.0
H315 H 0.09149 0.71247 0.66238 0.0
H316 H 0.0479 0.69881 0.89321 0.0
H317 H 0.08087 0.71701 -0.00254 0.0
C318 C 0.40806 0.23009 0.18104 0.0
C319 C 0.41297 0.19074 0.23222 0.0
C320 C 0.40824 0.14444 0.09047 0.0
C321 C 0.40019 0.18194 0.03975 0.0
N322 N 0.37983 0.25341 0.03937 0.0
N323 N 0.40097 0.10221 0.23856 0.0
C324 C 0.39582 0.22239 0.08586 0.0
C325 C 0.40846 0.14557 0.18781 0.0
N326 N 0.41781 0.27611 0.22193 0.0
N327 N 0.41524 0.10738 0.04596 0.0
H328 H 0.39712 0.09982 0.30987 0.0
H329 H 0.39223 0.06621 0.2096 0.0
H330 H 0.41196 0.10291 0.97495 0.0
H331 H 0.42777 0.08338 0.07911 0.0
H332 H 0.42065 0.30869 0.18566 0.0
H333 H 0.42814 0.28397 0.29092 0.0
H334 H 0.37002 0.27904 0.0719 0.0
H335 H 0.3718 0.25056 0.96927 0.0
C336 C 0.20345 0.61873 0.14104 0.0
C337 C 0.17347 0.5681 0.18375 0.0
C338 C 0.13741 0.60509 0.29346 0.0
C339 C 0.17665 0.65721 0.2626 0.0
N340 N 0.25301 0.71354 0.16368 0.0
N341 N 0.1091 0.51099 0.29865 0.0
C342 C 0.21097 0.66414 0.18741 0.0
C343 C 0.13895 0.56038 0.2588 0.0
N344 N 0.22434 0.623 0.05549 0.0
N345 N 0.09788 0.59827 0.35332 0.0
H346 H 0.10647 0.47701 0.27093 0.0
H347 H 0.08885 0.50414 0.36092 0.0
H348 H 0.09476 0.63006 0.37808 0.0
H349 H 0.06533 0.56105 0.37172 0.0
H350 H 0.24304 0.65855 0.01723 0.0
H351 H 0.21638 0.58921 0.01925 0.0
H352 H 0.28185 0.71943 0.11461 0.0
H353 H 0.26257 0.74804 0.19913 0.0
C354 C 0.59182 0.14376 0.53529 0.0
C355 C 0.63 0.18804 0.48235 0.0
C356 C 0.58053 0.2341 0.50556 0.0
C357 C 0.54129 0.19016 0.55914 0.0
N358 N 0.50135 0.09644 0.6 0.0
N359 N 0.64587 0.26091 0.3829 0.0
C360 C 0.54427 0.14268 0.56673 0.0
C361 C 0.61893 0.22814 0.45556 0.0
N362 N 0.60142 0.10332 0.55589 0.0
N363 N 0.58426 0.28288 0.50764 0.0
H364 H 0.67321 0.25546 0.34431 0.0
H365 H 0.63587 0.28818 0.35531 0.0
H366 H 0.56154 0.29158 0.55205 0.0
H367 H 0.61496 0.31651 0.47401 0.0
H368 H 0.57861 0.07273 0.60305 0.0
H369 H 0.63371 0.10179 0.52672 0.0
H370 H 0.49985 0.05986 0.5999 0.0
H371 H 0.465 0.09343 0.61942 0.0
C372 C 0.36282 0.5115 0.8771 0.0
C373 C 0.32104 0.51992 0.90927 0.0
C374 C 0.37866 0.61601 0.88319 0.0
C375 C 0.41973 0.60799 0.84697 0.0
N376 N 0.44635 0.54738 0.78969 0.0
N377 N 0.28299 0.57718 0.90824 0.0
C378 C 0.41035 0.55538 0.83756 0.0
C379 C 0.32707 0.57127 0.90122 0.0
N380 N 0.35842 0.46264 0.8879 0.0
N381 N 0.38941 0.66584 0.90638 0.0
H382 H 0.24398 0.54464 0.91686 0.0
H383 H 0.28457 0.61328 0.89406 0.0
H384 H 0.42745 0.69994 0.89985 0.0
H385 H 0.36183 0.67231 0.94174 0.0
H386 H 0.38987 0.45563 0.87419 0.0
H387 H 0.32454 0.4297 0.91653 0.0
H388 H 0.43927 0.50972 0.77262 0.0
H389 H 0.48117 0.57869 0.75968 0.0
C390 C 0.77656 0.36216 0.29847 0.0
C391 C 0.80752 0.34401 0.25365 0.0
C392 C 0.82497 0.40744 0.12563 0.0
C393 C 0.78552 0.41767 0.16276 0.0
N394 N 0.72252 0.40399 0.28409 0.0
N395 N 0.86992 0.35507 0.13467 0.0
C396 C 0.76141 0.39522 0.2495 0.0
C397 C 0.83475 0.3688 0.17024 0.0
N398 N 0.7626 0.34876 0.38854 0.0
N399 N 0.85162 0.43356 0.04685 0.0
H400 H 0.87929 0.32887 0.16883 0.0
H401 H 0.89068 0.36986 0.07312 0.0
H402 H 0.844 0.46077 0.01198 0.0
H403 H 0.88236 0.43004 0.01677 0.0
H404 H 0.74484 0.36528 0.42812 0.0
H405 H 0.77351 0.32492 0.42641 0.0
H406 H 0.69841 0.38304 0.34029 0.0
H407 H 0.71205 0.43016 0.25366 0.0
C408 C 0.37144 0.74785 0.50677 0.0
C409 C 0.36776 0.79446 0.51039 0.0
C410 C 0.46287 0.84538 0.55658 0.0
C411 C 0.46234 0.79657 0.57152 0.0
N412 N 0.41183 0.69972 0.57259 0.0
N413 N 0.41004 0.88892 0.53582 0.0
C414 C 0.41577 0.74732 0.5486 0.0
C415 C 0.4138 0.84396 0.53294 0.0
N416 N 0.33206 0.70386 0.46343 0.0
N417 N 0.51029 0.89283 0.5636 0.0
H418 H 0.3755 0.88952 0.51529 0.0
H419 H 0.44019 0.92492 0.56212 0.0
H420 H 0.54672 0.89516 0.58139 0.0
H421 H 0.51448 0.92946 0.54444 0.0
H422 H 0.33495 0.67011 0.45156 0.0
H423 H 0.29956 0.70373 0.43033 0.0
H424 H 0.37625 0.66314 0.56606 0.0
H425 H 0.44173 0.69655 0.60799 0.0
C426 C 0.64709 0.40146 0.87812 0.0
C427 C 0.65033 0.45055 0.90015 0.0
C428 C 0.55691 0.41509 0.84576 0.0
C429 C 0.55198 0.36447 0.83403 0.0
N430 N 0.58952 0.30683 0.85424 0.0
N431 N 0.60817 0.50452 0.90591 0.0
C432 C 0.59647 0.35708 0.85301 0.0
C433 C 0.60512 0.45745 0.88427 0.0
N434 N 0.692 0.39645 0.88221 0.0
N435 N 0.51584 0.42292 0.81751 0.0
H436 H 0.64376 0.53823 0.92627 0.0
H437 H 0.57498 0.50992 0.90732 0.0
H438 H 0.48011 0.3925 0.79 0.0
H439 H 0.51846 0.45997 0.8143 0.0
H440 H 0.69362 0.36477 0.85328 0.0
H441 H 0.72888 0.42496 0.9093 0.0
H442 H 0.61832 0.29809 0.8794 0.0
H443 H 0.55323 0.27259 0.83838 0.0
loop_
_geom_bond_atom_site_label_1
_geom_bond_atom_site_label_2
_geom_bond_distance
_geom_bond_site_symmetry_2
_ccdc_geom_bond_type
Zn0 O6 1.969 . S
Zn0 O7 1.965 . S
Zn0 O11 2.024 . S
Zn0 O16 1.969 . S
Zn1 O8 1.969 . S
Zn1 O14 1.969 . S
Zn1 O15 1.965 . S
Zn1 O17 2.024 . S
C2 O3 1.229 . S
C2 O11 1.058 . S
O3 C2 1.229 . S
C4 O5 1.229 . S
C4 O17 1.058 . S
O5 C4 1.229 . S
O6 Zn0 1.969 . S
O6 C9 1.267 . S
O7 Zn0 1.965 . S
O7 C18 1.260 . S
O8 Zn1 1.969 . S
O8 C18 1.258 1_556 S
C9 O6 1.267 . S
C9 O10 1.228 . S
O10 C9 1.228 . S
O11 Zn0 2.024 . S
O11 C2 1.058 . S
C12 O13 1.228 . S
C12 O14 1.267 . S
O13 C12 1.228 . S
O14 Zn1 1.969 . S
O14 C12 1.267 . S
O15 Zn1 1.965 . S
O15 C19 1.260 . S
O16 Zn0 1.969 . S
O16 C19 1.258 1_554 S
O17 Zn1 2.024 . S
O17 C4 1.058 . S
C18 O7 1.260 . S
C18 O8 1.258 1_554 S
C19 O15 1.260 . S
C19 O16 1.258 1_556 S
Zn20 O26 1.969 . S
Zn20 O27 1.965 . S
Zn20 O31 2.024 . S
Zn20 O36 1.969 . S
Zn21 O28 1.969 . S
Zn21 O34 1.969 . S
Zn21 O35 1.965 . S
Zn21 O37 2.024 . S
C22 O23 1.229 . S
C22 O31 1.058 . S
O23 C22 1.229 . S
C24 O25 1.229 . S
C24 O37 1.058 . S
O25 C24 1.229 . S
O26 Zn20 1.969 . S
O26 C29 1.267 . S
O27 Zn20 1.965 . S
O27 C38 1.260 . S
O28 Zn21 1.969 . S
O28 C38 1.258 . S
C29 O26 1.267 . S
C29 O30 1.228 . S
O30 C29 1.228 . S
O31 Zn20 2.024 . S
O31 C22 1.058 . S
C32 O33 1.228 . S
C32 O34 1.267 . S
O33 C32 1.228 . S
O34 Zn21 1.969 . S
O34 C32 1.267 . S
O35 Zn21 1.965 . S
O35 C39 1.260 . S
O36 Zn20 1.969 . S
O36 C39 1.258 . S
O37 Zn21 2.024 . S
O37 C24 1.058 . S
C38 O27 1.260 . S
C38 O28 1.258 . S
C39 O35 1.260 . S
C39 O36 1.258 . S
Zn40 O46 1.969 . S
Zn40 O47 1.965 . S
Zn40 O51 2.024 . S
Zn40 O56 1.969 . S
Zn41 O48 1.969 . S
Zn41 O54 1.969 . S
Zn41 O55 1.965 . S
Zn41 O57 2.024 . S
C42 O43 1.229 . S
C42 O51 1.058 . S
O43 C42 1.229 . S
C44 O45 1.229 . S
C44 O57 1.058 . S
O45 C44 1.229 . S
O46 Zn40 1.969 . S
O46 C49 1.267 . S
O47 Zn40 1.965 . S
O47 C58 1.260 . S
O48 Zn41 1.969 . S
O48 C58 1.258 . S
C49 O46 1.267 . S
C49 O50 1.228 . S
O50 C49 1.228 . S
O51 Zn40 2.024 . S
O51 C42 1.058 . S
C52 O53 1.228 . S
C52 O54 1.267 . S
O53 C52 1.228 . S
O54 Zn41 1.969 . S
O54 C52 1.267 . S
O55 Zn41 1.965 . S
O55 C59 1.260 . S
O56 Zn40 1.969 . S
O56 C59 1.258 . S
O57 Zn41 2.024 . S
O57 C44 1.058 . S
C58 O47 1.260 . S
C58 O48 1.258 . S
C59 O55 1.260 . S
C59 O56 1.258 . S
Zn60 O66 1.969 . S
Zn60 O67 1.965 . S
Zn60 O71 2.024 . S
Zn60 O76 1.969 . S
Zn61 O68 1.969 . S
Zn61 O74 1.969 . S
Zn61 O75 1.965 . S
Zn61 O77 2.024 . S
C62 O63 1.229 . S
C62 O71 1.058 . S
O63 C62 1.229 . S
C64 O65 1.229 . S
C64 O77 1.058 . S
O65 C64 1.229 . S
O66 Zn60 1.969 . S
O66 C69 1.267 . S
O67 Zn60 1.965 . S
O67 C78 1.260 . S
O68 Zn61 1.969 . S
O68 C78 1.258 1_556 S
C69 O66 1.267 . S
C69 O70 1.228 . S
O70 C69 1.228 . S
O71 Zn60 2.024 . S
O71 C62 1.058 . S
C72 O73 1.228 . S
C72 O74 1.267 . S
O73 C72 1.228 . S
O74 Zn61 1.969 . S
O74 C72 1.267 . S
O75 Zn61 1.965 . S
O75 C79 1.260 . S
O76 Zn60 1.969 . S
O76 C79 1.258 1_554 S
O77 Zn61 2.024 . S
O77 C64 1.058 . S
C78 O67 1.260 . S
C78 O68 1.258 1_554 S
C79 O75 1.260 . S
C79 O76 1.258 1_556 S
Zn80 O86 1.969 . S
Zn80 O87 1.965 . S
Zn80 O91 2.024 . S
Zn80 O96 1.969 . S
Zn81 O88 1.969 . S
Zn81 O94 1.969 . S
Zn81 O95 1.965 . S
Zn81 O97 2.024 . S
C82 O83 1.229 . S
C82 O91 1.058 . S
O83 C82 1.229 . S
C84 O85 1.229 . S
C84 O97 1.058 . S
O85 C84 1.229 . S
O86 Zn80 1.969 . S
O86 C89 1.267 . S
O87 Zn80 1.965 . S
O87 C98 1.260 . S
O88 Zn81 1.969 . S
O88 C98 1.258 . S
C89 O86 1.267 . S
C89 O90 1.228 . S
O90 C89 1.228 . S
O91 Zn80 2.024 . S
O91 C82 1.058 . S
C92 O93 1.228 . S
C92 O94 1.267 . S
O93 C92 1.228 . S
O94 Zn81 1.969 . S
O94 C92 1.267 . S
O95 Zn81 1.965 . S
O95 C99 1.260 . S
O96 Zn80 1.969 . S
O96 C99 1.258 . S
O97 Zn81 2.024 . S
O97 C84 1.058 . S
C98 O87 1.260 . S
C98 O88 1.258 . S
C99 O95 1.260 . S
C99 O96 1.258 . S
Zn100 O106 1.969 . S
Zn100 O107 1.965 . S
Zn100 O111 2.024 . S
Zn100 O116 1.969 . S
Zn101 O108 1.969 . S
Zn101 O114 1.969 . S
Zn101 O115 1.965 . S
Zn101 O117 2.024 . S
C102 O103 1.229 . S
C102 O111 1.058 . S
O103 C102 1.229 . S
C104 O105 1.229 . S
C104 O117 1.058 . S
O105 C104 1.229 . S
O106 Zn100 1.969 . S
O106 C109 1.267 . S
O107 Zn100 1.965 . S
O107 C118 1.260 . S
O108 Zn101 1.969 . S
O108 C118 1.258 . S
C109 O106 1.267 . S
C109 O110 1.228 . S
O110 C109 1.228 . S
O111 Zn100 2.024 . S
O111 C102 1.058 . S
C112 O113 1.228 . S
C112 O114 1.267 . S
O113 C112 1.228 . S
O114 Zn101 1.969 . S
O114 C112 1.267 . S
O115 Zn101 1.965 . S
O115 C119 1.260 . S
O116 Zn100 1.969 . S
O116 C119 1.258 . S
O117 Zn101 2.024 . S
O117 C104 1.058 . S
C118 O107 1.260 . S
C118 O108 1.258 . S
C119 O115 1.260 . S
C119 O116 1.258 . S
C120 C121 1.363 . S
C120 C126 1.379 . S
C120 N128 1.356 . S
C121 C120 1.363 . S
C121 C127 1.363 . S
C122 C123 1.363 . S
C122 C127 1.379 . S
C122 N129 1.356 . S
C123 C122 1.363 . S
C123 C126 1.363 . S
N124 C126 1.356 . S
N124 H136 0.984 . S
N124 H137 0.985 . S
N125 C127 1.356 . S
N125 H130 0.984 . S
N125 H131 0.985 . S
C126 C120 1.379 . S
C126 C123 1.363 . S
C126 N124 1.356 . S
C127 C121 1.363 . S
C127 C122 1.379 . S
C127 N125 1.356 . S
N128 C120 1.356 . S
N128 H134 0.984 . S
N128 H135 0.984 . S
N129 C122 1.356 . S
N129 H132 0.984 . S
N129 H133 0.985 . S
H130 N125 0.984 . S
H131 N125 0.985 . S
H132 N129 0.984 . S
H133 N129 0.985 . S
H134 N128 0.984 . S
H135 N128 0.984 . S
H136 N124 0.984 . S
H137 N124 0.985 . S
C138 C139 1.363 . S
C138 C144 1.379 . S
C138 N146 1.356 . S
C139 C138 1.363 . S
C139 C145 1.363 . S
C140 C141 1.363 . S
C140 C145 1.379 1_655 S
C140 N147 1.356 . S
C141 C140 1.363 . S
C141 C144 1.363 1_655 S
N142 C144 1.356 . S
N142 H154 0.984 . S
N142 H155 0.985 1_455 S
N143 C145 1.356 1_556 S
N143 H148 0.984 . S
N143 H149 0.985 . S
C144 C138 1.379 . S
C144 C141 1.363 1_455 S
C144 N142 1.356 . S
C145 C139 1.363 . S
C145 C140 1.379 1_455 S
C145 N143 1.356 1_554 S
N146 C138 1.356 . S
N146 H152 0.984 . S
N146 H153 0.984 . S
N147 C140 1.356 . S
N147 H150 0.984 . S
N147 H151 0.985 1_554 S
H148 N143 0.984 . S
H149 N143 0.985 . S
H150 N147 0.984 . S
H151 N147 0.985 1_556 S
H152 N146 0.984 . S
H153 N146 0.984 . S
H154 N142 0.984 . S
H155 N142 0.985 1_655 S
C156 C157 1.363 . S
C156 C162 1.379 . S
C156 N164 1.356 . S
C157 C156 1.363 . S
C157 C163 1.363 . S
C158 C159 1.363 . S
C158 C163 1.379 1_565 S
C158 N165 1.356 . S
C159 C158 1.363 . S
C159 C162 1.363 1_565 S
N160 C162 1.356 1_565 S
N160 H172 0.984 1_565 S
N160 H173 0.985 . S
N161 C163 1.356 . S
N161 H166 0.984 . S
N161 H167 0.985 . S
C162 C156 1.379 . S
C162 C159 1.363 1_545 S
C162 N160 1.356 1_545 S
C163 C157 1.363 . S
C163 C158 1.379 1_545 S
C163 N161 1.356 . S
N164 C156 1.356 . S
N164 H170 0.984 . S
N164 H171 0.984 . S
N165 C158 1.356 . S
N165 H168 0.984 . S
N165 H169 0.985 . S
H166 N161 0.984 . S
H167 N161 0.985 . S
H168 N165 0.984 . S
H169 N165 0.985 . S
H170 N164 0.984 . S
H171 N164 0.984 . S
H172 N160 0.984 1_545 S
H173 N160 0.985 . S
C174 C175 1.363 . S
C174 C180 1.379 . S
C174 N182 1.356 . S
C175 C174 1.363 . S
C175 C181 1.363 . S
C176 C177 1.363 . S
C176 C181 1.379 . S
C176 N183 1.356 . S
C177 C176 1.363 . S
C177 C180 1.363 . S
N178 C180 1.356 . S
N178 H190 0.984 . S
N178 H191 0.985 . S
N179 C181 1.356 . S
N179 H184 0.984 . S
N179 H185 0.985 . S
C180 C174 1.379 . S
C180 C177 1.363 . S
C180 N178 1.356 . S
C181 C175 1.363 . S
C181 C176 1.379 . S
C181 N179 1.356 . S
N182 C174 1.356 . S
N182 H188 0.984 . S
N182 H189 0.984 . S
N183 C176 1.356 . S
N183 H186 0.984 . S
N183 H187 0.985 . S
H184 N179 0.984 . S
H185 N179 0.985 . S
H186 N183 0.984 . S
H187 N183 0.985 . S
H188 N182 0.984 . S
H189 N182 0.984 . S
H190 N178 0.984 . S
H191 N178 0.985 . S
C192 C193 1.363 1_655 S
C192 C198 1.379 . S
C192 N200 1.356 . S
C193 C192 1.363 1_455 S
C193 C199 1.363 . S
C194 C195 1.363 . S
C194 C199 1.379 1_655 S
C194 N201 1.356 1_554 S
C195 C194 1.363 . S
C195 C198 1.363 . S
N196 C198 1.356 . S
N196 H208 0.984 . S
N196 H209 0.985 . S
N197 C199 1.356 . S
N197 H202 0.984 . S
N197 H203 0.984 1_554 S
C198 C192 1.379 . S
C198 C195 1.363 . S
C198 N196 1.356 . S
C199 C193 1.363 . S
C199 C194 1.379 1_455 S
C199 N197 1.356 . S
N200 C192 1.356 . S
N200 H206 0.984 . S
N200 H207 0.984 1_655 S
N201 C194 1.356 1_556 S
N201 H204 0.984 . S
N201 H205 0.985 . S
H202 N197 0.984 . S
H203 N197 0.984 1_556 S
H204 N201 0.984 . S
H205 N201 0.985 . S
H206 N200 0.984 . S
H207 N200 0.984 1_455 S
H208 N196 0.984 . S
H209 N196 0.985 . S
C210 C211 1.363 1_565 S
C210 C216 1.379 . S
C210 N218 1.356 1_565 S
C211 C210 1.363 1_545 S
C211 C217 1.363 . S
C212 C213 1.363 . S
C212 C217 1.379 1_565 S
C212 N219 1.356 . S
C213 C212 1.363 . S
C213 C216 1.363 . S
N214 C216 1.356 . S
N214 H226 0.984 . S
N214 H227 0.985 . S
N215 C217 1.356 . S
N215 H220 0.984 . S
N215 H221 0.985 . S
C216 C210 1.379 . S
C216 C213 1.363 . S
C216 N214 1.356 . S
C217 C211 1.363 . S
C217 C212 1.379 1_545 S
C217 N215 1.356 . S
N218 C210 1.356 1_545 S
N218 H224 0.984 1_545 S
N218 H225 0.984 . S
N219 C212 1.356 . S
N219 H222 0.984 . S
N219 H223 0.985 . S
H220 N215 0.984 . S
H221 N215 0.985 . S
H222 N219 0.984 . S
H223 N219 0.985 . S
H224 N218 0.984 1_565 S
H225 N218 0.984 . S
H226 N214 0.984 . S
H227 N214 0.985 . S
C228 C229 1.363 . S
C228 C234 1.379 . S
C228 N236 1.356 . S
C229 C228 1.363 . S
C229 C235 1.363 . S
C230 C231 1.363 . S
C230 C235 1.379 . S
C230 N237 1.356 . S
C231 C230 1.363 . S
C231 C234 1.363 . S
N232 C234 1.356 . S
N232 H244 0.984 . S
N232 H245 0.985 . S
N233 C235 1.356 . S
N233 H238 0.984 . S
N233 H239 0.985 . S
C234 C228 1.379 . S
C234 C231 1.363 . S
C234 N232 1.356 . S
C235 C229 1.363 . S
C235 C230 1.379 . S
C235 N233 1.356 . S
N236 C228 1.356 . S
N236 H242 0.984 . S
N236 H243 0.984 . S
N237 C230 1.356 . S
N237 H240 0.984 . S
N237 H241 0.985 . S
H238 N233 0.984 . S
H239 N233 0.985 . S
H240 N237 0.984 . S
H241 N237 0.985 . S
H242 N236 0.984 . S
H243 N236 0.984 . S
H244 N232 0.984 . S
H245 N232 0.985 . S
C246 C247 1.363 . S
C246 C252 1.379 . S
C246 N254 1.356 . S
C247 C246 1.363 . S
C247 C253 1.363 . S
C248 C249 1.363 . S
C248 C253 1.379 . S
C248 N255 1.356 . S
C249 C248 1.363 . S
C249 C252 1.363 . S
N250 C252 1.356 . S
N250 H262 0.984 . S
N250 H263 0.985 . S
N251 C253 1.356 . S
N251 H256 0.984 1_556 S
N251 H257 0.985 . S
C252 C246 1.379 . S
C252 C249 1.363 . S
C252 N250 1.356 . S
C253 C247 1.363 . S
C253 C248 1.379 . S
C253 N251 1.356 . S
N254 C246 1.356 . S
N254 H260 0.984 . S
N254 H261 0.984 . S
N255 C248 1.356 . S
N255 H258 0.984 . S
N255 H259 0.985 . S
H256 N251 0.984 1_554 S
H257 N251 0.985 . S
H258 N255 0.984 . S
H259 N255 0.985 . S
H260 N254 0.984 . S
H261 N254 0.984 . S
H262 N250 0.984 . S
H263 N250 0.985 . S
C264 C265 1.363 . S
C264 C270 1.379 . S
C264 N272 1.356 . S
C265 C264 1.363 . S
C265 C271 1.363 . S
C266 C267 1.363 . S
C266 C271 1.379 . S
C266 N273 1.356 . S
C267 C266 1.363 . S
C267 C270 1.363 . S
N268 C270 1.356 . S
N268 H280 0.984 . S
N268 H281 0.985 . S
N269 C271 1.356 . S
N269 H274 0.984 . S
N269 H275 0.985 . S
C270 C264 1.379 . S
C270 C267 1.363 . S
C270 N268 1.356 . S
C271 C265 1.363 . S
C271 C266 1.379 . S
C271 N269 1.356 . S
N272 C264 1.356 . S
N272 H278 0.984 . S
N272 H279 0.984 . S
N273 C266 1.356 . S
N273 H276 0.984 1_554 S
N273 H277 0.985 . S
H274 N269 0.984 . S
H275 N269 0.985 . S
H276 N273 0.984 1_556 S
H277 N273 0.985 . S
H278 N272 0.984 . S
H279 N272 0.984 . S
H280 N268 0.984 . S
H281 N268 0.985 . S
C282 C283 1.363 . S
C282 C288 1.379 . S
C282 N290 1.356 . S
C283 C282 1.363 . S
C283 C289 1.363 . S
C284 C285 1.363 . S
C284 C289 1.379 . S
C284 N291 1.356 . S
C285 C284 1.363 . S
C285 C288 1.363 . S
N286 C288 1.356 . S
N286 H298 0.984 . S
N286 H299 0.985 . S
N287 C289 1.356 . S
N287 H292 0.984 . S
N287 H293 0.985 . S
C288 C282 1.379 . S
C288 C285 1.363 . S
C288 N286 1.356 . S
C289 C283 1.363 . S
C289 C284 1.379 . S
C289 N287 1.356 . S
N290 C282 1.356 . S
N290 H296 0.984 . S
N290 H297 0.984 . S
N291 C284 1.356 . S
N291 H294 0.984 . S
N291 H295 0.985 . S
H292 N287 0.984 . S
H293 N287 0.985 . S
H294 N291 0.984 . S
H295 N291 0.985 . S
H296 N290 0.984 . S
H297 N290 0.984 . S
H298 N286 0.984 . S
H299 N286 0.985 . S
C300 C301 1.363 . S
C300 C306 1.379 . S
C300 N308 1.356 . S
C301 C300 1.363 . S
C301 C307 1.363 . S
C302 C303 1.363 . S
C302 C307 1.379 . S
C302 N309 1.356 . S
C303 C302 1.363 . S
C303 C306 1.363 . S
N304 C306 1.356 . S
N304 H316 0.984 . S
N304 H317 0.985 1_556 S
N305 C307 1.356 . S
N305 H310 0.984 . S
N305 H311 0.985 . S
C306 C300 1.379 . S
C306 C303 1.363 . S
C306 N304 1.356 . S
C307 C301 1.363 . S
C307 C302 1.379 . S
C307 N305 1.356 . S
N308 C300 1.356 . S
N308 H314 0.984 . S
N308 H315 0.984 . S
N309 C302 1.356 . S
N309 H312 0.984 . S
N309 H313 0.985 . S
H310 N305 0.984 . S
H311 N305 0.985 . S
H312 N309 0.984 . S
H313 N309 0.985 . S
H314 N308 0.984 . S
H315 N308 0.984 . S
H316 N304 0.984 . S
H317 N304 0.985 1_554 S
C318 C319 1.363 . S
C318 C324 1.379 . S
C318 N326 1.356 . S
C319 C318 1.363 . S
C319 C325 1.363 . S
C320 C321 1.363 . S
C320 C325 1.379 . S
C320 N327 1.356 . S
C321 C320 1.363 . S
C321 C324 1.363 . S
N322 C324 1.356 . S
N322 H334 0.984 . S
N322 H335 0.985 1_554 S
N323 C325 1.356 . S
N323 H328 0.984 . S
N323 H329 0.985 . S
C324 C318 1.379 . S
C324 C321 1.363 . S
C324 N322 1.356 . S
C325 C319 1.363 . S
C325 C320 1.379 . S
C325 N323 1.356 . S
N326 C318 1.356 . S
N326 H332 0.984 . S
N326 H333 0.984 . S
N327 C320 1.356 . S
N327 H330 0.984 . S
N327 H331 0.985 . S
H328 N323 0.984 . S
H329 N323 0.985 . S
H330 N327 0.984 . S
H331 N327 0.985 . S
H332 N326 0.984 . S
H333 N326 0.984 . S
H334 N322 0.984 . S
H335 N322 0.985 1_556 S
C336 C337 1.363 . S
C336 C342 1.379 . S
C336 N344 1.356 . S
C337 C336 1.363 . S
C337 C343 1.363 . S
C338 C339 1.363 . S
C338 C343 1.379 . S
C338 N345 1.356 . S
C339 C338 1.363 . S
C339 C342 1.363 . S
N340 C342 1.356 . S
N340 H352 0.984 . S
N340 H353 0.985 . S
N341 C343 1.356 . S
N341 H346 0.984 . S
N341 H347 0.985 . S
C342 C336 1.379 . S
C342 C339 1.363 . S
C342 N340 1.356 . S
C343 C337 1.363 . S
C343 C338 1.379 . S
C343 N341 1.356 . S
N344 C336 1.356 . S
N344 H350 0.984 . S
N344 H351 0.984 . S
N345 C338 1.356 . S
N345 H348 0.984 . S
N345 H349 0.985 . S
H346 N341 0.984 . S
H347 N341 0.985 . S
H348 N345 0.984 . S
H349 N345 0.985 . S
H350 N344 0.984 . S
H351 N344 0.984 . S
H352 N340 0.984 . S
H353 N340 0.985 . S
C354 C355 1.363 . S
C354 C360 1.379 . S
C354 N362 1.356 . S
C355 C354 1.363 . S
C355 C361 1.363 . S
C356 C357 1.363 . S
C356 C361 1.379 . S
C356 N363 1.356 . S
C357 C356 1.363 . S
C357 C360 1.363 . S
N358 C360 1.356 . S
N358 H370 0.984 . S
N358 H371 0.985 . S
N359 C361 1.356 . S
N359 H364 0.984 . S
N359 H365 0.985 . S
C360 C354 1.379 . S
C360 C357 1.363 . S
C360 N358 1.356 . S
C361 C355 1.363 . S
C361 C356 1.379 . S
C361 N359 1.356 . S
N362 C354 1.356 . S
N362 H368 0.984 . S
N362 H369 0.984 . S
N363 C356 1.356 . S
N363 H366 0.984 . S
N363 H367 0.985 . S
H364 N359 0.984 . S
H365 N359 0.985 . S
H366 N363 0.984 . S
H367 N363 0.985 . S
H368 N362 0.984 . S
H369 N362 0.984 . S
H370 N358 0.984 . S
H371 N358 0.985 . S
C372 C373 1.363 . S
C372 C378 1.379 . S
C372 N380 1.356 . S
C373 C372 1.363 . S
C373 C379 1.363 . S
C374 C375 1.363 . S
C374 C379 1.379 . S
C374 N381 1.356 . S
C375 C374 1.363 . S
C375 C378 1.363 . S
N376 C378 1.356 . S
N376 H388 0.984 . S
N376 H389 0.985 . S
N377 C379 1.356 . S
N377 H382 0.984 1_556 S
N377 H383 0.985 1_556 S
C378 C372 1.379 . S
C378 C375 1.363 . S
C378 N376 1.356 . S
C379 C373 1.363 . S
C379 C374 1.379 . S
C379 N377 1.356 . S
N380 C372 1.356 . S
N380 H386 0.984 . S
N380 H387 0.984 . S
N381 C374 1.356 . S
N381 H384 0.984 . S
N381 H385 0.985 . S
H382 N377 0.984 1_554 S
H383 N377 0.985 1_554 S
H384 N381 0.984 . S
H385 N381 0.985 . S
H386 N380 0.984 . S
H387 N380 0.984 . S
H388 N376 0.984 . S
H389 N376 0.985 . S
C390 C391 1.363 . S
C390 C396 1.379 . S
C390 N398 1.356 . S
C391 C390 1.363 . S
C391 C397 1.363 . S
C392 C393 1.363 . S
C392 C397 1.379 . S
C392 N399 1.356 . S
C393 C392 1.363 . S
C393 C396 1.363 . S
N394 C396 1.356 . S
N394 H406 0.984 . S
N394 H407 0.985 . S
N395 C397 1.356 . S
N395 H400 0.984 . S
N395 H401 0.985 . S
C396 C390 1.379 . S
C396 C393 1.363 . S
C396 N394 1.356 . S
C397 C391 1.363 . S
C397 C392 1.379 . S
C397 N395 1.356 . S
N398 C390 1.356 . S
N398 H404 0.984 . S
N398 H405 0.984 . S
N399 C392 1.356 . S
N399 H402 0.984 . S
N399 H403 0.985 . S
H400 N395 0.984 . S
H401 N395 0.985 . S
H402 N399 0.984 . S
H403 N399 0.985 . S
H404 N398 0.984 . S
H405 N398 0.984 . S
H406 N394 0.984 . S
H407 N394 0.985 . S
C408 C409 1.363 . S
C408 C414 1.379 . S
C408 N416 1.356 . S
C409 C408 1.363 . S
C409 C415 1.363 . S
C410 C411 1.363 . S
C410 C415 1.379 . S
C410 N417 1.356 . S
C411 C410 1.363 . S
C411 C414 1.363 . S
N412 C414 1.356 . S
N412 H424 0.984 . S
N412 H425 0.985 . S
N413 C415 1.356 . S
N413 H418 0.984 . S
N413 H419 0.985 . S
C414 C408 1.379 . S
C414 C411 1.363 . S
C414 N412 1.356 . S
C415 C409 1.363 . S
C415 C410 1.379 . S
C415 N413 1.356 . S
N416 C408 1.356 . S
N416 H422 0.984 . S
N416 H423 0.984 . S
N417 C410 1.356 . S
N417 H420 0.984 . S
N417 H421 0.985 . S
H418 N413 0.984 . S
H419 N413 0.985 . S
H420 N417 0.984 . S
H421 N417 0.985 . S
H422 N416 0.984 . S
H423 N416 0.984 . S
H424 N412 0.984 . S
H425 N412 0.985 . S
C426 C427 1.363 . S
C426 C432 1.379 . S
C426 N434 1.356 . S
C427 C426 1.363 . S
C427 C433 1.363 . S
C428 C429 1.363 . S
C428 C433 1.379 . S
C428 N435 1.356 . S
C429 C428 1.363 . S
C429 C432 1.363 . S
N430 C432 1.356 . S
N430 H442 0.984 . S
N430 H443 0.985 . S
N431 C433 1.356 . S
N431 H436 0.984 . S
N431 H437 0.985 . S
C432 C426 1.379 . S
C432 C429 1.363 . S
C432 N430 1.356 . S
C433 C427 1.363 . S
C433 C428 1.379 . S
C433 N431 1.356 . S
N434 C426 1.356 . S
N434 H440 0.984 . S
N434 H441 0.984 . S
N435 C428 1.356 . S
N435 H438 0.984 . S
N435 H439 0.985 . S
H436 N431 0.984 . S
H437 N431 0.985 . S
H438 N435 0.984 . S
H439 N435 0.985 . S
H440 N434 0.984 . S
H441 N434 0.984 . S
H442 N430 0.984 . S
H443 N430 0.985 . S
C121 C118 1.485 . S
C123 C4 1.395 . S
C139 C18 1.486 . S
C141 C24 1.395 . S
C157 C38 1.485 . S
C159 C44 1.394 . S
C175 C58 1.486 . S
C177 C64 1.395 . S
C193 C84 1.395 . S
C195 C78 1.486 . S
C211 C104 1.394 . S
C213 C98 1.485 . S
C229 C12 1.291 . S
C231 C9 1.291 . S
C247 C32 1.291 1_556 S
C249 C29 1.291 . S
C265 C52 1.291 . S
C267 C49 1.291 1_554 S
C283 C72 1.291 . S
C285 C69 1.291 . S
C301 C89 1.291 . S
C303 C92 1.291 1_556 S
C319 C112 1.291 . S
C321 C109 1.291 1_554 S
C337 C2 1.427 . S
C339 C99 1.532 . S
C355 C22 1.427 . S
C357 C119 1.532 . S
C373 C19 1.532 . S
C375 C42 1.427 . S
C391 C39 1.532 . S
C393 C62 1.427 . S
C409 C82 1.427 . S
C411 C59 1.532 . S
C427 C79 1.532 . S
C429 C102 1.427 . S
