# Generated by pormake.
# Topology unh, (4)-cn, num edge types: 1
# Building blocks:
#     Node 0, Type 0, BuildingBlock: QUQFOY_clean_sbu_1, # of connection points: 4
#     Node 1, Type 0, BuildingBlock: QUQFOY_clean_sbu_1, # of connection points: 4
#     Node 2, Type 0, BuildingBlock: QUQFOY_clean_sbu_1, # of connection points: 4
#     Node 3, Type 0, BuildingBlock: QUQFOY_clean_sbu_1, # of connection points: 4
#     Node 4, Type 0, BuildingBlock: QUQFOY_clean_sbu_1, # of connection points: 4
#     Node 5, Type 0, BuildingBlock: QUQFOY_clean_sbu_1, # of connection points: 4
#     Edge 6, Type (0, 0), BuildingBlock: MIFKUJ_clean_linker_0, # of connection points: 2
#     Edge 7, Type (0, 0), BuildingBlock: MIFKUJ_clean_linker_0, # of connection points: 2
#     Edge 8, Type (0, 0), BuildingBlock: MIFKUJ_clean_linker_0, # of connection points: 2
#     Edge 9, Type (0, 0), BuildingBlock: MIFKUJ_clean_linker_0, # of connection points: 2
#     Edge 10, Type (0, 0), BuildingBlock: MIFKUJ_clean_linker_0, # of connection points: 2
#     Edge 11, Type (0, 0), BuildingBlock: MIFKUJ_clean_linker_0, # of connection points: 2
#     Edge 12, Type (0, 0), BuildingBlock: MIFKUJ_clean_linker_0, # of connection points: 2
#     Edge 13, Type (0, 0), BuildingBlock: MIFKUJ_clean_linker_0, # of connection points: 2
#     Edge 14, Type (0, 0), BuildingBlock: MIFKUJ_clean_linker_0, # of connection points: 2
#     Edge 15, Type (0, 0), BuildingBlock: MIFKUJ_clean_linker_0, # of connection points: 2
#     Edge 16, Type (0, 0), BuildingBlock: MIFKUJ_clean_linker_0, # of connection points: 2
#     Edge 17, Type (0, 0), BuildingBlock: MIFKUJ_clean_linker_0, # of connection points: 2
# Relax obj value: 0.055
# Max RMSD: 0.146
# Mean RMSD: 0.146
data_MOF--net-unh--node1-QUQFOY_clean_sbu_1--edge1-MIFKUJ_clean_linker_0
_symmetry_space_group_name_H-M    P1
_symmetry_Int_Tables_number       1
_symmetry_cell_setting            triclinic
loop_
_symmetry_equiv_pos_as_xyz
'x, y, z'
_cell_length_a     56.666346
_cell_length_b     56.655998
_cell_length_c     29.399891
_cell_angle_alpha  89.996411
_cell_angle_beta   89.99736
_cell_angle_gamma 120.02032
loop_
_atom_site_label
_atom_site_type_symbol
_atom_site_fract_x
_atom_site_fract_y
_atom_site_fract_z
_atom_type_partial_charge
O0 O 0.08976 0.56213 0.02606 0.0
Cd1 Cd 0.11747 0.58842 0.07333 0.0
Cd2 Cd 0.14439 0.56315 0.04721 0.0
O3 O 0.10775 0.53576 0.01745 0.0
O4 O 0.09662 0.59891 0.11577 0.0
O5 O 0.11448 0.57357 0.13609 0.0
C6 C 0.09999 0.58456 0.14647 0.0
C7 C 0.16686 0.55042 0.09962 0.0
C8 C 0.08867 0.54084 0.00959 0.0
C9 C 0.16909 0.62211 0.02258 0.0
O10 O 0.16803 0.59962 0.01391 0.0
O11 O 0.15208 0.62292 0.0499 0.0
O12 O 0.16694 0.54538 0.0568 0.0
O13 O 0.15315 0.56177 0.1127 0.0
O14 O 0.52374 0.09136 0.19676 0.0
Cd15 Cd 0.52469 0.11802 0.24527 0.0
Cd16 Cd 0.57866 0.14456 0.22482 0.0
O17 O 0.56814 0.10961 0.18733 0.0
O18 O 0.49439 0.0966 0.28924 0.0
O19 O 0.53818 0.11557 0.30665 0.0
C20 C 0.51301 0.10049 0.31853 0.0
C21 C 0.61581 0.16339 0.27471 0.0
C22 C 0.54387 0.09085 0.17872 0.0
C23 C 0.54596 0.1725 0.20339 0.0
O24 O 0.56809 0.17203 0.19946 0.0
O25 O 0.52549 0.15306 0.2232 0.0
O26 O 0.61929 0.16603 0.23125 0.0
O27 O 0.59123 0.14895 0.28974 0.0
O28 O 0.4406 0.52974 0.35718 0.0
Cd29 Cd 0.4124 0.52759 0.40334 0.0
Cd30 Cd 0.43719 0.58222 0.38782 0.0
O31 O 0.46277 0.57439 0.34778 0.0
O32 O 0.403 0.49625 0.44499 0.0
O33 O 0.42538 0.53947 0.46677 0.0
C34 C 0.41567 0.51404 0.47656 0.0
C35 C 0.455 0.61842 0.43965 0.0
C36 C 0.45993 0.55107 0.33917 0.0
C37 C 0.3772 0.54718 0.36339 0.0
O38 O 0.39847 0.57065 0.36421 0.0
O39 O 0.37784 0.52642 0.37817 0.0
O40 O 0.45502 0.62259 0.39652 0.0
O41 O 0.4458 0.59368 0.45325 0.0
O42 O 0.90971 0.43673 0.52432 0.0
Cd43 Cd 0.88313 0.41034 0.57258 0.0
Cd44 Cd 0.85457 0.43463 0.54939 0.0
O45 O 0.88941 0.46086 0.51358 0.0
O46 O 0.90501 0.40152 0.61528 0.0
O47 O 0.8854 0.42539 0.63497 0.0
C48 C 0.90071 0.41537 0.64572 0.0
C49 C 0.83286 0.45056 0.59761 0.0
C50 C 0.90918 0.45678 0.50591 0.0
C51 C 0.82979 0.37451 0.5286 0.0
O52 O 0.8292 0.39644 0.52258 0.0
O53 O 0.84923 0.37486 0.55073 0.0
O54 O 0.83095 0.4514 0.55399 0.0
O55 O 0.84826 0.44185 0.61392 0.0
O56 O 0.47574 0.90905 0.696 0.0
Cd57 Cd 0.47492 0.88244 0.74473 0.0
Cd58 Cd 0.42216 0.85389 0.71954 0.0
O59 O 0.43154 0.88857 0.68253 0.0
O60 O 0.50457 0.90448 0.78915 0.0
O61 O 0.46061 0.88437 0.80586 0.0
C62 C 0.48564 0.90002 0.8181 0.0
C63 C 0.38344 0.83264 0.76564 0.0
C64 C 0.45552 0.90845 0.67609 0.0
C65 C 0.45783 0.82898 0.70155 0.0
O66 O 0.43534 0.82834 0.69494 0.0
O67 O 0.47683 0.84856 0.72366 0.0
O68 O 0.38166 0.83033 0.72196 0.0
O69 O 0.40721 0.84807 0.78318 0.0
O70 O 0.56155 0.47339 0.85824 0.0
Cd71 Cd 0.58827 0.47274 0.90556 0.0
Cd72 Cd 0.56146 0.4199 0.88427 0.0
O73 O 0.5344 0.42893 0.8529 0.0
O74 O 0.5997 0.5053 0.94534 0.0
O75 O 0.57452 0.46277 0.96933 0.0
C76 C 0.58584 0.48857 0.97755 0.0
C77 C 0.54739 0.38446 0.93676 0.0
C78 C 0.53987 0.45301 0.84318 0.0
C79 C 0.62034 0.45229 0.857 0.0
O80 O 0.59743 0.43089 0.85058 0.0
O81 O 0.62212 0.47134 0.8823 0.0
O82 O 0.54309 0.37962 0.89377 0.0
O83 O 0.55885 0.40951 0.95008 0.0
H84 H 0.08121 0.49545 0.96384 0.0
H85 H 0.04551 0.46816 0.90875 0.0
H86 H 0.00888 0.51807 0.93093 0.0
H87 H 0.04426 0.54527 0.98643 0.0
H88 H 0.9703 0.46424 0.92231 0.0
H89 H 0.05044 0.53041 0.84178 0.0
H90 H 0.09909 0.5541 0.82074 0.0
H91 H 0.09093 0.47863 0.77357 0.0
H92 H 0.04228 0.45442 0.79494 0.0
H93 H 0.89951 0.4476 0.71392 0.0
H94 H 0.92758 0.4625 0.78251 0.0
H95 H 0.96189 0.41203 0.74687 0.0
H96 H 0.93421 0.39738 0.67781 0.0
H97 H 0.00085 0.46239 0.76487 0.0
H98 H 0.91897 0.39689 0.83885 0.0
H99 H 0.87023 0.3739 0.85907 0.0
H100 H 0.8811 0.44813 0.91762 0.0
H101 H 0.92985 0.47168 0.89719 0.0
C102 C 0.06541 0.50047 0.9574 0.0
C103 C 0.06579 0.52275 0.97923 0.0
C104 C 0.04505 0.48487 0.92582 0.0
C105 C 0.02476 0.49132 0.91531 0.0
C106 C 0.02437 0.51276 0.93849 0.0
C107 C 0.04471 0.52837 0.97006 0.0
C108 C 0.00492 0.47686 0.87822 0.0
C109 C 0.97692 0.46395 0.88779 0.0
C110 C 0.0136 0.47603 0.83341 0.0
C111 C 0.04281 0.49056 0.82044 0.0
C112 C 0.05908 0.51883 0.82727 0.0
C113 C 0.08664 0.53236 0.81522 0.0
C114 C 0.09812 0.51786 0.79596 0.0
C115 C 0.08203 0.48982 0.78858 0.0
C116 C 0.05446 0.47619 0.80063 0.0
C117 C 0.91267 0.4393 0.72106 0.0
C118 C 0.91473 0.42142 0.69027 0.0
C119 C 0.92865 0.44775 0.76043 0.0
C120 C 0.94678 0.4383 0.76998 0.0
C121 C 0.94807 0.41962 0.74017 0.0
C122 C 0.93217 0.41121 0.70075 0.0
C123 C 0.96609 0.44971 0.80876 0.0
C124 C 0.9941 0.46225 0.79946 0.0
C125 C 0.95735 0.45022 0.85369 0.0
C126 C 0.92804 0.43611 0.86613 0.0
C127 C 0.91093 0.40837 0.85571 0.0
C128 C 0.8833 0.39523 0.86728 0.0
C129 C 0.87256 0.40956 0.88952 0.0
C130 C 0.88944 0.43706 0.90035 0.0
C131 C 0.91709 0.45031 0.88884 0.0
H132 H 0.85117 0.39935 0.89845 0.0
H133 H 0.11946 0.52837 0.78664 0.0
H134 H 0.45023 0.89759 0.88358 0.0
H135 H 0.46099 0.9267 0.95064 0.0
H136 H 0.54666 0.9648 0.91921 0.0
H137 H 0.53614 0.93559 0.85223 0.0
H138 H 0.53685 0.95758 0.01197 0.0
H139 H 0.51247 0.99472 0.88525 0.0
H140 H 0.48326 0.99359 0.82213 0.0
H141 H 0.41863 0.9762 0.91629 0.0
H142 H 0.44733 0.97683 0.97994 0.0
H143 H 0.58125 0.08372 0.13 0.0
H144 H 0.57197 0.04804 0.07414 0.0
H145 H 0.48573 0.01189 0.09926 0.0
H146 H 0.49471 0.04748 0.15453 0.0
H147 H 0.49626 0.0175 0.01046 0.0
H148 H 0.52147 0.98206 0.13804 0.0
H149 H 0.55088 0.98325 0.20084 0.0
H150 H 0.61422 0.99786 0.10559 0.0
H151 H 0.58532 0.99713 0.04223 0.0
C152 C 0.47141 0.91181 0.89134 0.0
C153 C 0.49232 0.91449 0.86228 0.0
C154 C 0.47751 0.92849 0.92962 0.0
C155 C 0.50459 0.94822 0.93944 0.0
C156 C 0.52563 0.94976 0.91215 0.0
C157 C 0.51955 0.93309 0.87381 0.0
C158 C 0.51075 0.96863 0.97583 0.0
C159 C 0.52821 0.97088 0.01152 0.0
C160 C 0.49917 0.98572 0.97545 0.0
C161 C 0.48194 0.98554 0.93729 0.0
C162 C 0.49195 0.99045 0.89245 0.0
C163 C 0.4755 0.98993 0.85659 0.0
C164 C 0.44908 0.98475 0.86518 0.0
C165 C 0.43908 0.98016 0.90968 0.0
C166 C 0.45544 0.98061 0.94567 0.0
C167 C 0.56032 0.06806 0.12388 0.0
C168 C 0.53873 0.06856 0.14666 0.0
C169 C 0.55506 0.0476 0.09208 0.0
C170 C 0.52815 0.02719 0.0827 0.0
C171 C 0.50665 0.02744 0.1059 0.0
C172 C 0.51186 0.04783 0.13757 0.0
C173 C 0.52216 0.00634 0.0471 0.0
C174 C 0.50482 0.00412 0.01125 0.0
C175 C 0.5339 0.98938 0.04741 0.0
C176 C 0.55133 0.98982 0.08543 0.0
C177 C 0.54176 0.98577 0.13051 0.0
C178 C 0.55832 0.98631 0.16621 0.0
C179 C 0.58443 0.9907 0.15723 0.0
C180 C 0.59401 0.9945 0.11251 0.0
C181 C 0.57754 0.994 0.07668 0.0
H182 H 0.59722 0.99111 0.18491 0.0
H183 H 0.43638 0.98436 0.83737 0.0
H184 H 0.50081 0.59099 0.2874 0.0
H185 H 0.52961 0.58536 0.23133 0.0
H186 H 0.48998 0.49946 0.26204 0.0
H187 H 0.46144 0.50489 0.31825 0.0
H188 H 0.54439 0.52074 0.25177 0.0
H189 H 0.47092 0.52221 0.17059 0.0
H190 H 0.44263 0.54193 0.1472 0.0
H191 H 0.51326 0.61179 0.09226 0.0
H192 H 0.54204 0.59262 0.1159 0.0
H193 H 0.55749 0.45851 0.05154 0.0
H194 H 0.54407 0.47444 0.11857 0.0
H195 H 0.58926 0.55708 0.06897 0.0
H196 H 0.60261 0.54128 0.00154 0.0
H197 H 0.5381 0.54345 0.09089 0.0
H198 H 0.61054 0.53831 0.16329 0.0
H199 H 0.63802 0.51754 0.18568 0.0
H200 H 0.56925 0.45389 0.2563 0.0
H201 H 0.54122 0.47406 0.23379 0.0
C202 C 0.49838 0.57095 0.28249 0.0
C203 C 0.47864 0.54836 0.30709 0.0
C204 C 0.51482 0.56776 0.25037 0.0
C205 C 0.51175 0.54193 0.24221 0.0
C206 C 0.49272 0.51958 0.26779 0.0
C207 C 0.47629 0.52272 0.29978 0.0
C208 C 0.52728 0.53769 0.20557 0.0
C209 C 0.54295 0.52558 0.21654 0.0
C210 C 0.52594 0.54463 0.15978 0.0
C211 C 0.50867 0.55615 0.14551 0.0
C212 C 0.48044 0.54189 0.15387 0.0
C213 C 0.46432 0.55294 0.14051 0.0
C214 C 0.47615 0.57814 0.1184 0.0
C215 C 0.50413 0.5923 0.10949 0.0
C216 C 0.52036 0.58135 0.12284 0.0
C217 C 0.565 0.48014 0.05525 0.0
C218 C 0.58103 0.49861 0.0211 0.0
C219 C 0.55739 0.48925 0.09372 0.0
C220 C 0.56575 0.51699 0.0989 0.0
C221 C 0.58258 0.5356 0.06566 0.0
C222 C 0.59027 0.52652 0.02722 0.0
C223 C 0.55493 0.52609 0.1369 0.0
C224 C 0.54002 0.53903 0.12617 0.0
C225 C 0.55692 0.51982 0.18283 0.0
C226 C 0.57371 0.50761 0.19654 0.0
C227 C 0.6012 0.51976 0.18329 0.0
C228 C 0.61689 0.50812 0.19607 0.0
C229 C 0.60538 0.48438 0.22232 0.0
C230 C 0.57815 0.47227 0.23594 0.0
C231 C 0.56236 0.48383 0.22324 0.0
H232 H 0.61756 0.4754 0.23218 0.0
H233 H 0.46364 0.58666 0.10806 0.0
H234 H 0.95413 0.45364 0.48182 0.0
H235 H 0.98947 0.48191 0.42721 0.0
H236 H 0.95031 0.52944 0.40425 0.0
H237 H 0.91451 0.50091 0.45851 0.0
H238 H 0.96286 0.51476 0.32574 0.0
H239 H 0.01052 0.55602 0.46328 0.0
H240 H 0.02809 0.55729 0.54049 0.0
H241 H 0.07519 0.52252 0.49036 0.0
H242 H 0.0576 0.52068 0.41293 0.0
H243 H 0.06777 0.60428 0.17816 0.0
H244 H 0.03882 0.58935 0.24587 0.0
H245 H 0.06986 0.53608 0.28147 0.0
H246 H 0.09924 0.55128 0.21441 0.0
H247 H 0.06208 0.55869 0.3565 0.0
H248 H 0.01046 0.5123 0.22233 0.0
H249 H 0.99248 0.50964 0.14494 0.0
H250 H 0.95241 0.55291 0.18934 0.0
H251 H 0.97048 0.55614 0.26689 0.0
C252 C 0.95308 0.47022 0.46548 0.0
C253 C 0.93141 0.47495 0.47453 0.0
C254 C 0.97344 0.4865 0.43443 0.0
C255 C 0.97274 0.50802 0.41201 0.0
C256 C 0.95131 0.513 0.42128 0.0
C257 C 0.93088 0.49669 0.45235 0.0
C258 C 0.9935 0.52418 0.37697 0.0
C259 C 0.98455 0.52487 0.33275 0.0
C260 C 0.02182 0.53684 0.38581 0.0
C261 C 0.03257 0.53803 0.43232 0.0
C262 C 0.02447 0.54846 0.46876 0.0
C263 C 0.03446 0.54931 0.51257 0.0
C264 C 0.05271 0.53994 0.52034 0.0
C265 C 0.06105 0.52976 0.48429 0.0
C266 C 0.0511 0.52884 0.44042 0.0
C267 C 0.0688 0.58974 0.20082 0.0
C268 C 0.08559 0.57874 0.19063 0.0
C269 C 0.05215 0.58115 0.23941 0.0
C270 C 0.05178 0.5612 0.26824 0.0
C271 C 0.06973 0.55142 0.25962 0.0
C272 C 0.08648 0.56009 0.22117 0.0
C273 C 0.03138 0.549 0.30535 0.0
C274 C 0.04038 0.54895 0.34981 0.0
C275 C 0.00306 0.5368 0.29676 0.0
C276 C 0.99208 0.53474 0.25024 0.0
C277 C 0.99798 0.52142 0.21549 0.0
C278 C 0.98775 0.51978 0.17162 0.0
C279 C 0.97138 0.53117 0.1622 0.0
C280 C 0.96514 0.54415 0.19667 0.0
C281 C 0.97536 0.54588 0.24058 0.0
H282 H 0.96348 0.52988 0.12821 0.0
H283 H 0.06042 0.54061 0.55428 0.0
H284 H 0.46248 0.06223 0.34902 0.0
H285 H 0.45191 0.03328 0.41623 0.0
H286 H 0.53673 0.07671 0.45494 0.0
H287 H 0.54753 0.10542 0.3874 0.0
H288 H 0.51778 0.02353 0.45347 0.0
H289 H 0.48759 0.08181 0.51682 0.0
H290 H 0.46164 0.10607 0.51929 0.0
H291 H 0.38647 0.02976 0.51358 0.0
H292 H 0.41198 0.00504 0.51044 0.0
H293 H 0.50314 0.95599 0.66091 0.0
H294 H 0.51165 0.99168 0.60604 0.0
H295 H 0.42743 0.94734 0.56425 0.0
H296 H 0.41854 0.91163 0.61983 0.0
H297 H 0.44598 0.00179 0.56909 0.0
H298 H 0.47577 0.94387 0.50185 0.0
H299 H 0.50126 0.91915 0.49834 0.0
H300 H 0.57681 0.99474 0.50987 0.0
H301 H 0.55173 0.01989 0.51407 0.0
C302 C 0.47881 0.06599 0.3723 0.0
C303 C 0.50587 0.08603 0.36271 0.0
C304 C 0.47271 0.04946 0.41084 0.0
C305 C 0.49352 0.05284 0.44072 0.0
C306 C 0.52036 0.07368 0.43229 0.0
C307 C 0.52648 0.09013 0.39372 0.0
C308 C 0.48779 0.03314 0.47828 0.0
C309 C 0.50242 0.01919 0.47924 0.0
C310 C 0.46712 0.02677 0.51102 0.0
C311 C 0.45172 0.04158 0.51298 0.0
C312 C 0.46553 0.0702 0.51571 0.0
C313 C 0.4509 0.08404 0.51731 0.0
C314 C 0.42243 0.06947 0.51648 0.0
C315 C 0.40853 0.04102 0.51417 0.0
C316 C 0.42306 0.02709 0.51254 0.0
C317 C 0.48634 0.95382 0.64027 0.0
C318 C 0.4602 0.93077 0.64447 0.0
C319 C 0.49127 0.97426 0.60884 0.0
C320 C 0.47028 0.97197 0.58053 0.0
C321 C 0.44394 0.94948 0.58568 0.0
C322 C 0.43893 0.92905 0.61735 0.0
C323 C 0.47616 0.99247 0.54435 0.0
C324 C 0.46147 0.00638 0.54348 0.0
C325 C 0.49673 0.9988 0.51147 0.0
C326 C 0.51186 0.98373 0.50873 0.0
C327 C 0.49781 0.9552 0.50398 0.0
C328 C 0.51218 0.94112 0.50181 0.0
C329 C 0.54063 0.95536 0.50401 0.0
C330 C 0.55477 0.98373 0.50825 0.0
C331 C 0.54049 0.99792 0.51048 0.0
H332 H 0.55172 0.94442 0.50232 0.0
H333 H 0.41114 0.08022 0.51772 0.0
H334 H 0.49404 0.41446 0.79921 0.0
H335 H 0.4664 0.4221 0.74374 0.0
H336 H 0.51692 0.50897 0.76161 0.0
H337 H 0.54453 0.50158 0.81738 0.0
H338 H 0.46261 0.49335 0.75441 0.0
H339 H 0.52836 0.47834 0.67416 0.0
H340 H 0.55165 0.45284 0.65417 0.0
H341 H 0.47568 0.38511 0.60969 0.0
H342 H 0.45187 0.4101 0.63002 0.0
H343 H 0.44671 0.54701 0.54601 0.0
H344 H 0.46077 0.5335 0.61505 0.0
H345 H 0.41089 0.44886 0.57783 0.0
H346 H 0.3972 0.46228 0.50805 0.0
H347 H 0.46027 0.45954 0.59787 0.0
H348 H 0.39512 0.47676 0.67037 0.0
H349 H 0.37218 0.50266 0.68974 0.0
H350 H 0.44631 0.56619 0.74828 0.0
H351 H 0.46983 0.54084 0.7287 0.0
C352 C 0.49913 0.43519 0.79174 0.0
C353 C 0.52169 0.45742 0.81244 0.0
C354 C 0.48332 0.43951 0.75996 0.0
C355 C 0.48981 0.46611 0.74819 0.0
C356 C 0.51157 0.48828 0.77019 0.0
C357 C 0.52742 0.484 0.80191 0.0
C358 C 0.47506 0.47095 0.71099 0.0
C359 C 0.46218 0.48612 0.72008 0.0
C360 C 0.474 0.46095 0.66649 0.0
C361 C 0.4883 0.44596 0.6541 0.0
C362 C 0.5166 0.45793 0.66046 0.0
C363 C 0.52989 0.44358 0.64902 0.0
C364 C 0.51514 0.41734 0.63081 0.0
C365 C 0.48707 0.40542 0.62389 0.0
C366 C 0.47367 0.41966 0.63534 0.0
C367 C 0.43833 0.52549 0.55287 0.0
C368 C 0.42094 0.50572 0.52141 0.0
C369 C 0.4463 0.51778 0.59254 0.0
C370 C 0.43677 0.49013 0.60184 0.0
C371 C 0.41852 0.47031 0.57136 0.0
C372 C 0.41066 0.47801 0.53154 0.0
C373 C 0.44782 0.48213 0.64102 0.0
C374 C 0.4602 0.46645 0.63227 0.0
C375 C 0.44838 0.49168 0.68576 0.0
C376 C 0.43429 0.50697 0.69774 0.0
C377 C 0.4066 0.49634 0.68706 0.0
C378 C 0.39347 0.51091 0.69814 0.0
C379 C 0.40779 0.53608 0.72014 0.0
C380 C 0.43525 0.5467 0.73121 0.0
C381 C 0.44847 0.53222 0.72019 0.0
H382 H 0.39759 0.54733 0.72868 0.0
H383 H 0.52547 0.40627 0.62195 0.0
H384 H 0.18851 0.51711 0.08853 0.0
H385 H 0.22026 0.51252 0.13958 0.0
H386 H 0.21588 0.56839 0.23401 0.0
H387 H 0.18362 0.57255 0.18392 0.0
H388 H 0.27134 0.58046 0.19732 0.0
H389 H 0.18868 0.51135 0.27052 0.0
H390 H 0.14381 0.4693 0.27126 0.0
H391 H 0.18029 0.42357 0.22205 0.0
H392 H 0.22534 0.46546 0.22037 0.0
H393 H 0.35901 0.58334 0.36676 0.0
H394 H 0.31942 0.58026 0.32809 0.0
H395 H 0.30011 0.50199 0.27279 0.0
H396 H 0.33874 0.50428 0.31416 0.0
H397 H 0.25536 0.50015 0.28869 0.0
H398 H 0.33581 0.56494 0.21093 0.0
H399 H 0.38154 0.60527 0.20188 0.0
H400 H 0.3512 0.65709 0.24766 0.0
H401 H 0.30535 0.61701 0.25756 0.0
C402 C 0.19397 0.52805 0.12052 0.0
C403 C 0.18363 0.54523 0.13221 0.0
C404 C 0.21203 0.52537 0.14961 0.0
C405 C 0.22032 0.54013 0.19043 0.0
C406 C 0.20959 0.55679 0.20266 0.0
C407 C 0.19113 0.55907 0.17407 0.0
C408 C 0.24184 0.53991 0.21857 0.0
C409 C 0.26784 0.5631 0.21791 0.0
C410 C 0.23737 0.51678 0.24367 0.0
C411 C 0.21032 0.49159 0.24484 0.0
C412 C 0.18709 0.49238 0.25941 0.0
C413 C 0.16163 0.46856 0.26011 0.0
C414 C 0.15919 0.44379 0.24658 0.0
C415 C 0.18221 0.44278 0.23246 0.0
C416 C 0.20771 0.46655 0.23166 0.0
C417 C 0.3461 0.56535 0.34676 0.0
C418 C 0.352 0.54415 0.3431 0.0
C419 C 0.32358 0.56367 0.32435 0.0
C420 C 0.30717 0.54128 0.29624 0.0
C421 C 0.31249 0.51957 0.29399 0.0
C422 C 0.33458 0.52089 0.31757 0.0
C423 C 0.28513 0.54098 0.26813 0.0
C424 C 0.25903 0.51765 0.26839 0.0
C425 C 0.28968 0.56376 0.24145 0.0
C426 C 0.31721 0.58794 0.23541 0.0
C427 C 0.33894 0.58492 0.21935 0.0
C428 C 0.36487 0.60774 0.21403 0.0
C429 C 0.36929 0.63372 0.2243 0.0
C430 C 0.34776 0.63695 0.23979 0.0
C431 C 0.32179 0.61419 0.24522 0.0
H432 H 0.38938 0.65136 0.22017 0.0
H433 H 0.13946 0.42537 0.24715 0.0
H434 H 0.66816 0.20151 0.25336 0.0
H435 H 0.70464 0.2306 0.30556 0.0
H436 H 0.65271 0.18835 0.41983 0.0
H437 H 0.61571 0.15965 0.36758 0.0
H438 H 0.67466 0.23984 0.43308 0.0
H439 H 0.71011 0.18276 0.39273 0.0
H440 H 0.72414 0.15721 0.3423 0.0
H441 H 0.78437 0.23201 0.28051 0.0
H442 H 0.77046 0.258 0.33012 0.0
H443 H 0.82273 0.32295 0.53578 0.0
H444 H 0.78611 0.28073 0.50254 0.0
H445 H 0.75101 0.3258 0.44313 0.0
H446 H 0.78694 0.36769 0.47666 0.0
H447 H 0.77175 0.26544 0.41678 0.0
H448 H 0.68341 0.28901 0.44069 0.0
H449 H 0.66935 0.31226 0.49619 0.0
H450 H 0.71392 0.29882 0.6013 0.0
H451 H 0.72791 0.27512 0.54664 0.0
C452 C 0.66461 0.19806 0.28958 0.0
C453 C 0.63899 0.17831 0.30631 0.0
C454 C 0.68559 0.21466 0.31948 0.0
C455 C 0.68159 0.21157 0.36676 0.0
C456 C 0.65631 0.19116 0.38353 0.0
C457 C 0.63521 0.1747 0.35361 0.0
C458 C 0.70298 0.23119 0.39828 0.0
C459 C 0.69584 0.24522 0.42977 0.0
C460 C 0.73057 0.23785 0.39491 0.0
C461 C 0.73912 0.22233 0.36503 0.0
C462 C 0.72622 0.19376 0.36819 0.0
C463 C 0.73418 0.17919 0.33977 0.0
C464 C 0.75511 0.19297 0.30818 0.0
C465 C 0.76816 0.22136 0.305 0.0
C466 C 0.76028 0.23603 0.33332 0.0
C467 C 0.80712 0.32381 0.51584 0.0
C468 C 0.80773 0.34871 0.50909 0.0
C469 C 0.78625 0.29969 0.49679 0.0
C470 C 0.76559 0.30002 0.47089 0.0
C471 C 0.76637 0.3249 0.46379 0.0
C472 C 0.78707 0.34891 0.48286 0.0
C473 C 0.74348 0.27469 0.45003 0.0
C474 C 0.75049 0.25967 0.42057 0.0
C475 C 0.71567 0.26667 0.45604 0.0
C476 C 0.70685 0.28042 0.48942 0.0
C477 C 0.69007 0.29084 0.4757 0.0
C478 C 0.68214 0.30414 0.50701 0.0
C479 C 0.69079 0.30707 0.55221 0.0
C480 C 0.7073 0.29661 0.56625 0.0
C481 C 0.71526 0.28326 0.5351 0.0
H482 H 0.68466 0.31741 0.57637 0.0
H483 H 0.76123 0.18165 0.2862 0.0
H484 H 0.42187 0.78581 0.65015 0.0
H485 H 0.42818 0.75023 0.61625 0.0
H486 H 0.50854 0.78596 0.67512 0.0
H487 H 0.50259 0.82229 0.70874 0.0
H488 H 0.50963 0.77211 0.58929 0.0
H489 H 0.45643 0.72668 0.71839 0.0
H490 H 0.41886 0.71158 0.77362 0.0
H491 H 0.36068 0.6678 0.66826 0.0
H492 H 0.39787 0.68295 0.61222 0.0
H493 H 0.45899 0.61673 0.53234 0.0
H494 H 0.46773 0.6529 0.58678 0.0
H495 H 0.47701 0.70675 0.47579 0.0
H496 H 0.46911 0.67109 0.42143 0.0
H497 H 0.43836 0.67472 0.60288 0.0
H498 H 0.51602 0.77213 0.50279 0.0
H499 H 0.55594 0.78672 0.45291 0.0
H500 H 0.57017 0.72535 0.51076 0.0
H501 H 0.53058 0.71064 0.56146 0.0
C502 C 0.44089 0.78614 0.65622 0.0
C503 C 0.46171 0.80693 0.68235 0.0
C504 C 0.4444 0.76562 0.63694 0.0
C505 C 0.46866 0.76513 0.6437 0.0
C506 C 0.48959 0.78587 0.66963 0.0
C507 C 0.48613 0.80657 0.68891 0.0
C508 C 0.47215 0.74334 0.62215 0.0
C509 C 0.49419 0.75078 0.59251 0.0
C510 C 0.45247 0.71542 0.62743 0.0
C511 C 0.42997 0.70608 0.66104 0.0
C512 C 0.43561 0.71397 0.70692 0.0
C513 C 0.41438 0.70538 0.73839 0.0
C514 C 0.3874 0.68877 0.72445 0.0
C515 C 0.38159 0.68066 0.67901 0.0
C516 C 0.40275 0.68921 0.64739 0.0
C517 C 0.46342 0.63646 0.51955 0.0
C518 C 0.46332 0.64102 0.47255 0.0
C519 C 0.46834 0.6571 0.55072 0.0
C520 C 0.47325 0.68268 0.53551 0.0
C521 C 0.47388 0.68745 0.4885 0.0
C522 C 0.46918 0.66693 0.45737 0.0
C523 C 0.4752 0.70357 0.56837 0.0
C524 C 0.45412 0.69596 0.60017 0.0
C525 C 0.49613 0.73122 0.56583 0.0
C526 C 0.52019 0.74017 0.53576 0.0
C527 C 0.52775 0.76185 0.50508 0.0
C528 C 0.5503 0.77011 0.4766 0.0
C529 C 0.56554 0.75693 0.47859 0.0
C530 C 0.55829 0.73549 0.50915 0.0
C531 C 0.53577 0.72715 0.53772 0.0
H532 H 0.58299 0.76335 0.4565 0.0
H533 H 0.37099 0.68215 0.74886 0.0
H534 H 0.67351 0.48009 0.88555 0.0
H535 H 0.7132 0.48276 0.84725 0.0
H536 H 0.66162 0.43467 0.73619 0.0
H537 H 0.62195 0.43055 0.77573 0.0
H538 H 0.69317 0.41726 0.75184 0.0
H539 H 0.70828 0.50818 0.73372 0.0
H540 H 0.7144 0.55247 0.75866 0.0
H541 H 0.78453 0.56743 0.83694 0.0
H542 H 0.77863 0.52306 0.81288 0.0
H543 H 0.79006 0.45701 0.57331 0.0
H544 H 0.75804 0.46119 0.62367 0.0
H545 H 0.80497 0.46291 0.74025 0.0
H546 H 0.83694 0.45803 0.69008 0.0
H547 H 0.77947 0.50434 0.72758 0.0
H548 H 0.76125 0.41001 0.74042 0.0
H549 H 0.75456 0.36749 0.70552 0.0
H550 H 0.68828 0.36153 0.62583 0.0
H551 H 0.69489 0.40428 0.65983 0.0
C552 C 0.67077 0.47016 0.85293 0.0
C553 C 0.64469 0.45507 0.83363 0.0
C554 C 0.69348 0.47182 0.83087 0.0
C555 C 0.69062 0.45921 0.78836 0.0
C556 C 0.6645 0.44445 0.769 0.0
C557 C 0.64179 0.44216 0.79157 0.0
C558 C 0.71445 0.46067 0.76415 0.0
C559 C 0.7119 0.43642 0.74654 0.0
C560 C 0.73925 0.48552 0.75743 0.0
C561 C 0.74283 0.51218 0.77192 0.0
C562 C 0.72488 0.52083 0.75652 0.0
C563 C 0.72833 0.54596 0.77045 0.0
C564 C 0.74978 0.56271 0.79948 0.0
C565 C 0.76789 0.55441 0.81453 0.0
C566 C 0.76451 0.52928 0.80074 0.0
C567 C 0.79391 0.45875 0.60958 0.0
C568 C 0.81596 0.45705 0.62775 0.0
C569 C 0.77558 0.46114 0.63826 0.0
C570 C 0.77921 0.46231 0.6855 0.0
C571 C 0.80197 0.46212 0.70377 0.0
C572 C 0.82012 0.45925 0.67511 0.0
C573 C 0.75772 0.46113 0.71547 0.0
C574 C 0.76074 0.48532 0.73378 0.0
C575 C 0.73309 0.43641 0.72202 0.0
C576 C 0.72873 0.41044 0.70232 0.0
C577 C 0.7454 0.39974 0.71519 0.0
C578 C 0.74159 0.37558 0.69563 0.0
C579 C 0.72105 0.36185 0.66338 0.0
C580 C 0.7042 0.3722 0.65077 0.0
C581 C 0.70795 0.39637 0.67021 0.0
H582 H 0.71816 0.34317 0.64826 0.0
H583 H 0.75242 0.58216 0.81022 0.0
H584 H 0.33557 0.78825 0.74089 0.0
H585 H 0.29772 0.75815 0.78972 0.0
H586 H 0.33821 0.8102 0.90483 0.0
H587 H 0.37705 0.83974 0.85614 0.0
H588 H 0.32007 0.7618 0.93048 0.0
H589 H 0.2777 0.80385 0.85343 0.0
H590 H 0.26338 0.82167 0.78906 0.0
H591 H 0.21676 0.7409 0.73411 0.0
H592 H 0.23109 0.72262 0.7978 0.0
H593 H 0.19152 0.67499 0.05194 0.0
H594 H 0.22679 0.71622 0.01349 0.0
H595 H 0.22778 0.66701 0.90254 0.0
H596 H 0.19338 0.62582 0.94115 0.0
H597 H 0.22312 0.71981 0.88419 0.0
H598 H 0.27483 0.68199 0.95971 0.0
H599 H 0.28827 0.66639 0.02817 0.0
H600 H 0.31568 0.74414 0.09154 0.0
H601 H 0.30201 0.76004 0.02361 0.0
C602 C 0.33628 0.79355 0.77646 0.0
C603 C 0.35927 0.81641 0.79465 0.0
C604 C 0.31446 0.77637 0.80441 0.0
C605 C 0.31471 0.78206 0.85101 0.0
C606 C 0.33742 0.80534 0.86904 0.0
C607 C 0.35957 0.82227 0.84117 0.0
C608 C 0.2922 0.76251 0.88109 0.0
C609 C 0.29888 0.75317 0.92069 0.0
C610 C 0.26438 0.75104 0.86876 0.0
C611 C 0.25562 0.76189 0.83033 0.0
C612 C 0.26454 0.7899 0.82747 0.0
C613 C 0.25639 0.80008 0.79112 0.0
C614 C 0.2392 0.78243 0.75749 0.0
C615 C 0.23008 0.75455 0.76019 0.0
C616 C 0.23817 0.74426 0.79646 0.0
C617 C 0.19927 0.67302 0.01933 0.0
C618 C 0.18982 0.64721 0.99961 0.0
C619 C 0.21935 0.69653 0.9975 0.0
C620 C 0.22973 0.69452 0.95526 0.0
C621 C 0.21992 0.66888 0.93512 0.0
C622 C 0.2004 0.6454 0.95733 0.0
C623 C 0.25132 0.71896 0.93209 0.0
C624 C 0.24437 0.72908 0.89403 0.0
C625 C 0.27876 0.73158 0.94632 0.0
C626 C 0.28706 0.72205 0.98692 0.0
C627 C 0.28344 0.69564 0.98844 0.0
C628 C 0.29117 0.68677 0.02709 0.0
C629 C 0.30272 0.70423 0.06426 0.0
C630 C 0.30666 0.73062 0.06278 0.0
C631 C 0.29894 0.73957 0.02422 0.0
H632 H 0.3087 0.69734 0.09414 0.0
H633 H 0.23293 0.79036 0.72936 0.0
H634 H 0.56017 0.38861 0.02732 0.0
H635 H 0.556 0.35227 0.07758 0.0
H636 H 0.51658 0.29356 0.97012 0.0
H637 H 0.52112 0.32977 0.91946 0.0
H638 H 0.51585 0.30413 0.11136 0.0
H639 H 0.54205 0.25089 0.96866 0.0
H640 H 0.56622 0.26214 0.89505 0.0
H641 H 0.61651 0.34525 0.93773 0.0
H642 H 0.5929 0.3344 0.01177 0.0
H643 H 0.50018 0.17663 0.18938 0.0
H644 H 0.49736 0.21308 0.14934 0.0
H645 H 0.58465 0.25664 0.13165 0.0
H646 H 0.58758 0.22025 0.17057 0.0
H647 H 0.56123 0.25434 0.05451 0.0
H648 H 0.55232 0.27789 0.20761 0.0
H649 H 0.53247 0.2701 0.28456 0.0
H650 H 0.45542 0.2522 0.2279 0.0
H651 H 0.47473 0.25954 0.15053 0.0
C652 C 0.55024 0.36789 0.01459 0.0
C653 C 0.5413 0.36212 0.9692 0.0
C654 C 0.54779 0.34713 0.04343 0.0
C655 C 0.53638 0.32029 0.02737 0.0
C656 C 0.52586 0.31421 0.98299 0.0
C657 C 0.52843 0.33494 0.95409 0.0
C658 C 0.53759 0.29916 0.05553 0.0
C659 C 0.52565 0.29312 0.09894 0.0
C660 C 0.55089 0.28522 0.0397 0.0
C661 C 0.56549 0.29188 0.99552 0.0
C662 C 0.55833 0.27154 0.96236 0.0
C663 C 0.57193 0.27785 0.92057 0.0
C664 C 0.59283 0.30441 0.91166 0.0
C665 C 0.60025 0.3247 0.9446 0.0
C666 C 0.58675 0.31849 0.98646 0.0
C667 C 0.51879 0.19412 0.17737 0.0
C668 C 0.54408 0.19543 0.18294 0.0
C669 C 0.51715 0.21498 0.1546 0.0
C670 C 0.54081 0.23765 0.1375 0.0
C671 C 0.5661 0.23929 0.14425 0.0
C672 C 0.56773 0.21845 0.16663 0.0
C673 C 0.53932 0.25903 0.11044 0.0
C674 C 0.55122 0.26513 0.06702 0.0
C675 C 0.52655 0.2734 0.1268 0.0
C676 C 0.5149 0.26898 0.17326 0.0
C677 C 0.53109 0.27207 0.21154 0.0
C678 C 0.51995 0.26778 0.25523 0.0
C679 C 0.49268 0.26059 0.26111 0.0
C680 C 0.47652 0.25774 0.22329 0.0
C681 C 0.48756 0.26198 0.17951 0.0
H682 H 0.4841 0.25728 0.29497 0.0
H683 H 0.6033 0.30926 0.87927 0.0
loop_
_geom_bond_atom_site_label_1
_geom_bond_atom_site_label_2
_geom_bond_distance
_geom_bond_site_symmetry_2
_ccdc_geom_bond_type
O0 Cd1 2.223 . S
O0 C8 1.315 . S
Cd1 O0 2.223 . S
Cd1 O4 2.297 . S
Cd1 O5 2.439 . S
Cd1 O11 2.240 . S
Cd2 O3 2.240 . S
Cd2 O10 2.223 . S
Cd2 O12 2.297 . S
Cd2 O13 2.439 . S
O3 Cd2 2.240 . S
O3 C8 1.279 . S
O4 Cd1 2.297 . S
O4 C6 1.247 . S
O5 Cd1 2.439 . S
O5 C6 1.208 . S
C6 O4 1.247 . S
C6 O5 1.208 . S
C7 O12 1.247 . S
C7 O13 1.208 . S
C8 O0 1.315 . S
C8 O3 1.279 . S
C9 O10 1.315 . S
C9 O11 1.279 . S
O10 Cd2 2.223 . S
O10 C9 1.315 . S
O11 Cd1 2.240 . S
O11 C9 1.279 . S
O12 Cd2 2.297 . S
O12 C7 1.247 . S
O13 Cd2 2.439 . S
O13 C7 1.208 . S
O14 Cd15 2.223 . S
O14 C22 1.315 . S
Cd15 O14 2.223 . S
Cd15 O18 2.297 . S
Cd15 O19 2.439 . S
Cd15 O25 2.240 . S
Cd16 O17 2.240 . S
Cd16 O24 2.223 . S
Cd16 O26 2.297 . S
Cd16 O27 2.439 . S
O17 Cd16 2.240 . S
O17 C22 1.279 . S
O18 Cd15 2.297 . S
O18 C20 1.247 . S
O19 Cd15 2.439 . S
O19 C20 1.208 . S
C20 O18 1.247 . S
C20 O19 1.208 . S
C21 O26 1.247 . S
C21 O27 1.208 . S
C22 O14 1.315 . S
C22 O17 1.279 . S
C23 O24 1.315 . S
C23 O25 1.279 . S
O24 Cd16 2.223 . S
O24 C23 1.315 . S
O25 Cd15 2.240 . S
O25 C23 1.279 . S
O26 Cd16 2.297 . S
O26 C21 1.247 . S
O27 Cd16 2.439 . S
O27 C21 1.208 . S
O28 Cd29 2.223 . S
O28 C36 1.315 . S
Cd29 O28 2.223 . S
Cd29 O32 2.297 . S
Cd29 O33 2.439 . S
Cd29 O39 2.240 . S
Cd30 O31 2.240 . S
Cd30 O38 2.223 . S
Cd30 O40 2.297 . S
Cd30 O41 2.439 . S
O31 Cd30 2.240 . S
O31 C36 1.279 . S
O32 Cd29 2.297 . S
O32 C34 1.247 . S
O33 Cd29 2.439 . S
O33 C34 1.208 . S
C34 O32 1.247 . S
C34 O33 1.208 . S
C35 O40 1.247 . S
C35 O41 1.208 . S
C36 O28 1.315 . S
C36 O31 1.279 . S
C37 O38 1.315 . S
C37 O39 1.279 . S
O38 Cd30 2.223 . S
O38 C37 1.315 . S
O39 Cd29 2.240 . S
O39 C37 1.279 . S
O40 Cd30 2.297 . S
O40 C35 1.247 . S
O41 Cd30 2.439 . S
O41 C35 1.208 . S
O42 Cd43 2.223 . S
O42 C50 1.315 . S
Cd43 O42 2.223 . S
Cd43 O46 2.297 . S
Cd43 O47 2.439 . S
Cd43 O53 2.240 . S
Cd44 O45 2.240 . S
Cd44 O52 2.223 . S
Cd44 O54 2.297 . S
Cd44 O55 2.439 . S
O45 Cd44 2.240 . S
O45 C50 1.279 . S
O46 Cd43 2.297 . S
O46 C48 1.247 . S
O47 Cd43 2.439 . S
O47 C48 1.208 . S
C48 O46 1.247 . S
C48 O47 1.208 . S
C49 O54 1.247 . S
C49 O55 1.208 . S
C50 O42 1.315 . S
C50 O45 1.279 . S
C51 O52 1.315 . S
C51 O53 1.279 . S
O52 Cd44 2.223 . S
O52 C51 1.315 . S
O53 Cd43 2.240 . S
O53 C51 1.279 . S
O54 Cd44 2.297 . S
O54 C49 1.247 . S
O55 Cd44 2.439 . S
O55 C49 1.208 . S
O56 Cd57 2.223 . S
O56 C64 1.315 . S
Cd57 O56 2.223 . S
Cd57 O60 2.297 . S
Cd57 O61 2.439 . S
Cd57 O67 2.240 . S
Cd58 O59 2.240 . S
Cd58 O66 2.223 . S
Cd58 O68 2.297 . S
Cd58 O69 2.439 . S
O59 Cd58 2.240 . S
O59 C64 1.279 . S
O60 Cd57 2.297 . S
O60 C62 1.247 . S
O61 Cd57 2.439 . S
O61 C62 1.208 . S
C62 O60 1.247 . S
C62 O61 1.208 . S
C63 O68 1.247 . S
C63 O69 1.208 . S
C64 O56 1.315 . S
C64 O59 1.279 . S
C65 O66 1.315 . S
C65 O67 1.279 . S
O66 Cd58 2.223 . S
O66 C65 1.315 . S
O67 Cd57 2.240 . S
O67 C65 1.279 . S
O68 Cd58 2.297 . S
O68 C63 1.247 . S
O69 Cd58 2.439 . S
O69 C63 1.208 . S
O70 Cd71 2.223 . S
O70 C78 1.315 . S
Cd71 O70 2.223 . S
Cd71 O74 2.297 . S
Cd71 O75 2.439 . S
Cd71 O81 2.240 . S
Cd72 O73 2.240 . S
Cd72 O80 2.223 . S
Cd72 O82 2.297 . S
Cd72 O83 2.439 . S
O73 Cd72 2.240 . S
O73 C78 1.279 . S
O74 Cd71 2.297 . S
O74 C76 1.247 . S
O75 Cd71 2.439 . S
O75 C76 1.208 . S
C76 O74 1.247 . S
C76 O75 1.208 . S
C77 O82 1.247 . S
C77 O83 1.208 . S
C78 O70 1.315 . S
C78 O73 1.279 . S
C79 O80 1.315 . S
C79 O81 1.279 . S
O80 Cd72 2.223 . S
O80 C79 1.315 . S
O81 Cd71 2.240 . S
O81 C79 1.279 . S
O82 Cd72 2.297 . S
O82 C77 1.247 . S
O83 Cd72 2.439 . S
O83 C77 1.208 . S
H84 C102 0.951 . S
H85 C104 0.951 . S
H86 C106 0.950 . S
H87 C107 0.950 1_554 S
H88 C109 0.950 1_655 S
H89 C112 0.950 . S
H90 C113 0.950 . S
H91 C115 0.950 . S
H92 C116 0.950 . S
H93 C117 0.951 . S
H94 C119 0.951 . S
H95 C121 0.996 . S
H96 C122 0.950 . S
H97 C124 0.950 . S
H98 C127 0.950 . S
H99 C128 0.950 . S
H100 C130 0.950 . S
H101 C131 0.950 . S
C102 H84 0.951 . S
C102 C103 1.366 . S
C102 C104 1.388 . S
C103 C102 1.366 . S
C103 C107 1.385 . S
C104 H85 0.951 . S
C104 C102 1.388 . S
C104 C105 1.366 . S
C105 C104 1.366 . S
C105 C106 1.414 . S
C105 C108 1.499 . S
C106 H86 0.950 . S
C106 C105 1.414 . S
C106 C107 1.374 . S
C107 H87 0.950 1_556 S
C107 C103 1.385 . S
C107 C106 1.374 . S
C108 C105 1.499 . S
C108 C109 1.373 . S
C108 C110 1.389 . S
C109 H88 0.950 1_455 S
C109 C108 1.373 . S
C109 C125 1.377 1_455 S
C110 C108 1.389 . S
C110 C111 1.524 . S
C110 C124 1.377 . S
C111 C110 1.524 . S
C111 C112 1.397 . S
C111 C116 1.363 . S
C112 H89 0.950 . S
C112 C111 1.397 . S
C112 C113 1.334 . S
C113 H90 0.950 . S
C113 C112 1.334 . S
C113 C114 1.287 . S
C114 C113 1.287 . S
C114 C115 1.524 . S
C114 H133 0.913 . S
C115 H91 0.950 . S
C115 C114 1.524 . S
C115 C116 1.415 . S
C116 H92 0.950 . S
C116 C111 1.363 . S
C116 C115 1.415 . S
C117 H93 0.951 . S
C117 C118 1.366 . S
C117 C119 1.388 . S
C118 C117 1.366 . S
C118 C122 1.385 . S
C119 H94 0.951 . S
C119 C117 1.388 . S
C119 C120 1.366 . S
C120 C119 1.366 . S
C120 C121 1.414 . S
C120 C123 1.499 . S
C121 H95 0.996 . S
C121 C120 1.414 . S
C121 C122 1.374 . S
C122 H96 0.950 . S
C122 C118 1.385 . S
C122 C121 1.374 . S
C123 C120 1.499 . S
C123 C124 1.373 1_655 S
C123 C125 1.389 . S
C124 H97 0.950 . S
C124 C110 1.377 . S
C124 C123 1.373 1_455 S
C125 C109 1.377 1_655 S
C125 C123 1.389 . S
C125 C126 1.524 . S
C126 C125 1.524 . S
C126 C127 1.397 . S
C126 C131 1.363 . S
C127 H98 0.950 . S
C127 C126 1.397 . S
C127 C128 1.334 . S
C128 H99 0.950 . S
C128 C127 1.334 . S
C128 C129 1.287 . S
C129 C128 1.287 . S
C129 C130 1.524 . S
C129 H132 0.999 . S
C130 H100 0.950 . S
C130 C129 1.524 . S
C130 C131 1.415 . S
C131 H101 0.950 . S
C131 C126 1.363 . S
C131 C130 1.415 . S
H132 C129 0.999 . S
H133 C114 0.913 . S
H134 C152 0.951 . S
H135 C154 0.951 . S
H136 C156 0.950 . S
H137 C157 0.950 . S
H138 C159 0.950 . S
H139 C162 0.950 . S
H140 C163 0.950 . S
H141 C165 0.950 . S
H142 C166 0.950 . S
H143 C167 0.951 . S
H144 C169 0.951 . S
H145 C171 0.950 . S
H146 C172 0.950 . S
H147 C174 0.950 . S
H148 C177 0.950 1_545 S
H149 C178 0.950 . S
H150 C180 0.950 . S
H151 C181 0.950 . S
C152 H134 0.951 . S
C152 C153 1.366 . S
C152 C154 1.388 . S
C153 C152 1.366 . S
C153 C157 1.385 . S
C154 H135 0.951 . S
C154 C152 1.388 . S
C154 C155 1.366 . S
C155 C154 1.366 . S
C155 C156 1.414 . S
C155 C158 1.499 . S
C156 H136 0.950 . S
C156 C155 1.414 . S
C156 C157 1.374 . S
C157 H137 0.950 . S
C157 C153 1.385 . S
C157 C156 1.374 . S
C158 C155 1.499 . S
C158 C159 1.373 1_556 S
C158 C160 1.389 1_565 S
C159 H138 0.950 . S
C159 C158 1.373 1_554 S
C159 C175 1.360 1_565 S
C160 C158 1.389 1_545 S
C160 C161 1.524 . S
C160 C174 1.377 . S
C161 C160 1.524 . S
C161 C162 1.397 . S
C161 C166 1.363 . S
C162 H139 0.950 . S
C162 C161 1.397 . S
C162 C163 1.334 . S
C163 H140 0.950 . S
C163 C162 1.334 . S
C163 C164 1.287 . S
C164 C163 1.287 . S
C164 C165 1.524 . S
C164 H183 0.913 . S
C165 H141 0.950 . S
C165 C164 1.524 . S
C165 C166 1.415 . S
C166 H142 0.950 . S
C166 C161 1.363 . S
C166 C165 1.415 . S
C167 H143 0.951 . S
C167 C168 1.366 . S
C167 C169 1.388 . S
C168 C167 1.366 . S
C168 C172 1.385 . S
C169 H144 0.951 . S
C169 C167 1.388 . S
C169 C170 1.366 . S
C170 C169 1.366 . S
C170 C171 1.414 . S
C170 C173 1.499 . S
C171 H145 0.950 . S
C171 C170 1.414 . S
C171 C172 1.374 . S
C172 H146 0.950 . S
C172 C168 1.385 . S
C172 C171 1.374 . S
C173 C170 1.499 . S
C173 C174 1.373 1_554 S
C173 C175 1.423 . S
C174 H147 0.950 . S
C174 C160 1.377 . S
C174 C173 1.373 1_556 S
C175 C159 1.360 1_545 S
C175 C173 1.423 . S
C175 C176 1.508 1_545 S
C176 C175 1.508 1_565 S
C176 C177 1.397 . S
C176 C181 1.363 . S
C177 H148 0.950 1_565 S
C177 C176 1.397 . S
C177 C178 1.334 . S
C178 H149 0.950 . S
C178 C177 1.334 . S
C178 C179 1.287 . S
C179 C178 1.287 . S
C179 C180 1.524 . S
C179 H182 0.999 . S
C180 H150 0.950 . S
C180 C179 1.524 . S
C180 C181 1.415 . S
C181 H151 0.950 . S
C181 C176 1.363 . S
C181 C180 1.415 . S
H182 C179 0.999 . S
H183 C164 0.913 . S
H184 C202 0.951 . S
H185 C204 0.951 . S
H186 C206 0.950 . S
H187 C207 0.950 . S
H188 C209 0.950 . S
H189 C212 0.950 . S
H190 C213 0.950 . S
H191 C215 0.950 . S
H192 C216 0.950 . S
H193 C217 0.951 . S
H194 C219 0.951 . S
H195 C221 0.950 . S
H196 C222 0.950 1_556 S
H197 C224 0.950 . S
H198 C227 0.950 . S
H199 C228 0.950 . S
H200 C230 0.950 . S
H201 C231 0.950 . S
C202 H184 0.951 . S
C202 C203 1.366 . S
C202 C204 1.388 . S
C203 C202 1.366 . S
C203 C207 1.385 . S
C204 H185 0.951 . S
C204 C202 1.388 . S
C204 C205 1.366 . S
C205 C204 1.366 . S
C205 C206 1.414 . S
C205 C208 1.499 . S
C206 H186 0.950 . S
C206 C205 1.414 . S
C206 C207 1.374 . S
C207 H187 0.950 . S
C207 C203 1.385 . S
C207 C206 1.374 . S
C208 C205 1.499 . S
C208 C209 1.373 . S
C208 C210 1.389 . S
C209 H188 0.950 . S
C209 C208 1.373 . S
C209 C225 1.377 . S
C210 C208 1.389 . S
C210 C211 1.524 . S
C210 C224 1.377 . S
C211 C210 1.524 . S
C211 C212 1.397 . S
C211 C216 1.363 . S
C212 H189 0.950 . S
C212 C211 1.397 . S
C212 C213 1.334 . S
C213 H190 0.950 . S
C213 C212 1.334 . S
C213 C214 1.287 . S
C214 C213 1.287 . S
C214 C215 1.524 . S
C214 H233 0.913 . S
C215 H191 0.950 . S
C215 C214 1.524 . S
C215 C216 1.415 . S
C216 H192 0.950 . S
C216 C211 1.363 . S
C216 C215 1.415 . S
C217 H193 0.951 . S
C217 C218 1.366 . S
C217 C219 1.388 . S
C218 C217 1.366 . S
C218 C222 1.385 . S
C219 H194 0.951 . S
C219 C217 1.388 . S
C219 C220 1.366 . S
C220 C219 1.366 . S
C220 C221 1.414 . S
C220 C223 1.499 . S
C221 H195 0.950 . S
C221 C220 1.414 . S
C221 C222 1.374 . S
C222 H196 0.950 1_554 S
C222 C218 1.385 . S
C222 C221 1.374 . S
C223 C220 1.499 . S
C223 C224 1.373 . S
C223 C225 1.389 . S
C224 H197 0.950 . S
C224 C210 1.377 . S
C224 C223 1.373 . S
C225 C209 1.377 . S
C225 C223 1.389 . S
C225 C226 1.524 . S
C226 C225 1.524 . S
C226 C227 1.397 . S
C226 C231 1.363 . S
C227 H198 0.950 . S
C227 C226 1.397 . S
C227 C228 1.334 . S
C228 H199 0.950 . S
C228 C227 1.334 . S
C228 C229 1.287 . S
C229 C228 1.287 . S
C229 C230 1.524 . S
C229 H232 0.999 . S
C230 H200 0.950 . S
C230 C229 1.524 . S
C230 C231 1.415 . S
C231 H201 0.950 . S
C231 C226 1.363 . S
C231 C230 1.415 . S
H232 C229 0.999 . S
H233 C214 0.913 . S
H234 C252 0.951 . S
H235 C254 0.951 . S
H236 C256 0.950 . S
H237 C257 0.950 . S
H238 C259 0.950 . S
H239 C262 0.950 . S
H240 C263 0.950 . S
H241 C265 0.950 . S
H242 C266 0.950 . S
H243 C267 0.951 . S
H244 C269 0.951 . S
H245 C271 0.950 . S
H246 C272 0.950 . S
H247 C274 0.950 1_455 S
H248 C277 0.950 . S
H249 C278 0.950 . S
H250 C280 0.950 . S
H251 C281 0.950 . S
C252 H234 0.951 . S
C252 C253 1.366 . S
C252 C254 1.388 . S
C253 C252 1.366 . S
C253 C257 1.385 . S
C254 H235 0.951 . S
C254 C252 1.388 . S
C254 C255 1.366 . S
C255 C254 1.366 . S
C255 C256 1.414 . S
C255 C258 1.499 . S
C256 H236 0.950 . S
C256 C255 1.414 . S
C256 C257 1.374 . S
C257 H237 0.950 . S
C257 C253 1.385 . S
C257 C256 1.374 . S
C258 C255 1.499 . S
C258 C259 1.373 . S
C258 C260 1.389 . S
C259 H238 0.950 . S
C259 C258 1.373 . S
C259 C275 1.377 . S
C260 C258 1.389 . S
C260 C261 1.524 . S
C260 C274 1.377 . S
C261 C260 1.524 . S
C261 C262 1.397 . S
C261 C266 1.363 . S
C262 H239 0.950 . S
C262 C261 1.397 . S
C262 C263 1.334 . S
C263 H240 0.950 . S
C263 C262 1.334 . S
C263 C264 1.287 . S
C264 C263 1.287 . S
C264 C265 1.524 . S
C264 H283 0.913 . S
C265 H241 0.950 . S
C265 C264 1.524 . S
C265 C266 1.415 . S
C266 H242 0.950 . S
C266 C261 1.363 . S
C266 C265 1.415 . S
C267 H243 0.951 . S
C267 C268 1.366 . S
C267 C269 1.388 . S
C268 C267 1.366 . S
C268 C272 1.385 . S
C269 H244 0.951 . S
C269 C267 1.388 . S
C269 C270 1.366 . S
C270 C269 1.366 . S
C270 C271 1.414 . S
C270 C273 1.499 . S
C271 H245 0.950 . S
C271 C270 1.414 . S
C271 C272 1.374 . S
C272 H246 0.950 . S
C272 C268 1.385 . S
C272 C271 1.374 . S
C273 C270 1.499 . S
C273 C274 1.373 1_455 S
C273 C275 1.389 1_455 S
C274 H247 0.950 1_655 S
C274 C260 1.377 . S
C274 C273 1.373 1_655 S
C275 C259 1.377 . S
C275 C273 1.389 1_655 S
C275 C276 1.524 1_655 S
C276 C275 1.524 1_455 S
C276 C277 1.397 1_455 S
C276 C281 1.363 . S
C277 H248 0.950 . S
C277 C276 1.397 1_655 S
C277 C278 1.334 . S
C278 H249 0.950 . S
C278 C277 1.334 . S
C278 C279 1.287 1_655 S
C279 C278 1.287 1_455 S
C279 C280 1.524 . S
C279 H282 0.999 . S
C280 H250 0.950 . S
C280 C279 1.524 . S
C280 C281 1.415 . S
C281 H251 0.950 . S
C281 C276 1.363 . S
C281 C280 1.415 . S
H282 C279 0.999 . S
H283 C264 0.913 . S
H284 C302 0.951 . S
H285 C304 0.951 . S
H286 C306 0.950 . S
H287 C307 0.950 . S
H288 C309 0.950 . S
H289 C312 0.950 . S
H290 C313 0.950 . S
H291 C315 0.950 . S
H292 C316 0.950 . S
H293 C317 0.951 . S
H294 C319 0.951 . S
H295 C321 0.950 . S
H296 C322 0.950 . S
H297 C324 0.950 . S
H298 C327 0.950 . S
H299 C328 0.950 . S
H300 C330 0.950 1_545 S
H301 C331 0.950 1_545 S
C302 H284 0.951 . S
C302 C303 1.366 . S
C302 C304 1.388 . S
C303 C302 1.366 . S
C303 C307 1.385 . S
C304 H285 0.951 . S
C304 C302 1.388 . S
C304 C305 1.366 . S
C305 C304 1.366 . S
C305 C306 1.414 . S
C305 C308 1.499 . S
C306 H286 0.950 . S
C306 C305 1.414 . S
C306 C307 1.374 . S
C307 H287 0.950 . S
C307 C303 1.385 . S
C307 C306 1.374 . S
C308 C305 1.499 . S
C308 C309 1.373 . S
C308 C310 1.389 1_545 S
C309 H288 0.950 . S
C309 C308 1.373 . S
C309 C325 1.377 1_545 S
C310 C308 1.389 1_565 S
C310 C311 1.524 1_565 S
C310 C324 1.377 . S
C311 C310 1.524 1_545 S
C311 C312 1.397 . S
C311 C316 1.363 1_545 S
C312 H289 0.950 . S
C312 C311 1.397 . S
C312 C313 1.334 . S
C313 H290 0.950 . S
C313 C312 1.334 . S
C313 C314 1.287 . S
C314 C313 1.287 . S
C314 C315 1.524 1_545 S
C314 H333 0.913 . S
C315 H291 0.950 . S
C315 C314 1.524 1_565 S
C315 C316 1.415 . S
C316 H292 0.950 . S
C316 C311 1.363 1_565 S
C316 C315 1.415 . S
C317 H293 0.951 . S
C317 C318 1.366 . S
C317 C319 1.388 . S
C318 C317 1.366 . S
C318 C322 1.385 . S
C319 H294 0.951 . S
C319 C317 1.388 . S
C319 C320 1.366 . S
C320 C319 1.366 . S
C320 C321 1.414 . S
C320 C323 1.499 . S
C321 H295 0.950 . S
C321 C320 1.414 . S
C321 C322 1.374 . S
C322 H296 0.950 . S
C322 C318 1.385 . S
C322 C321 1.374 . S
C323 C320 1.499 . S
C323 C324 1.373 . S
C323 C325 1.389 . S
C324 H297 0.950 . S
C324 C310 1.377 . S
C324 C323 1.373 . S
C325 C309 1.377 1_565 S
C325 C323 1.389 . S
C325 C326 1.524 . S
C326 C325 1.524 . S
C326 C327 1.397 . S
C326 C331 1.363 . S
C327 H298 0.950 . S
C327 C326 1.397 . S
C327 C328 1.334 . S
C328 H299 0.950 . S
C328 C327 1.334 . S
C328 C329 1.287 . S
C329 C328 1.287 . S
C329 C330 1.524 . S
C329 H332 0.999 . S
C330 H300 0.950 1_565 S
C330 C329 1.524 . S
C330 C331 1.415 . S
C331 H301 0.950 1_565 S
C331 C326 1.363 . S
C331 C330 1.415 . S
H332 C329 0.999 . S
H333 C314 0.913 . S
H334 C352 0.951 . S
H335 C354 0.951 . S
H336 C356 0.950 . S
H337 C357 0.950 . S
H338 C359 0.950 . S
H339 C362 0.950 . S
H340 C363 0.950 . S
H341 C365 0.950 . S
H342 C366 0.950 . S
H343 C367 0.951 . S
H344 C369 0.951 . S
H345 C371 0.950 . S
H346 C372 0.950 . S
H347 C374 0.950 . S
H348 C377 0.950 . S
H349 C378 0.950 . S
H350 C380 0.950 . S
H351 C381 0.950 . S
C352 H334 0.951 . S
C352 C353 1.366 . S
C352 C354 1.388 . S
C353 C352 1.366 . S
C353 C357 1.385 . S
C354 H335 0.951 . S
C354 C352 1.388 . S
C354 C355 1.366 . S
C355 C354 1.366 . S
C355 C356 1.414 . S
C355 C358 1.499 . S
C356 H336 0.950 . S
C356 C355 1.414 . S
C356 C357 1.374 . S
C357 H337 0.950 . S
C357 C353 1.385 . S
C357 C356 1.374 . S
C358 C355 1.499 . S
C358 C359 1.373 . S
C358 C360 1.389 . S
C359 H338 0.950 . S
C359 C358 1.373 . S
C359 C375 1.377 . S
C360 C358 1.389 . S
C360 C361 1.524 . S
C360 C374 1.377 . S
C361 C360 1.524 . S
C361 C362 1.397 . S
C361 C366 1.363 . S
C362 H339 0.950 . S
C362 C361 1.397 . S
C362 C363 1.334 . S
C363 H340 0.950 . S
C363 C362 1.334 . S
C363 C364 1.287 . S
C364 C363 1.287 . S
C364 C365 1.524 . S
C364 H383 0.913 . S
C365 H341 0.950 . S
C365 C364 1.524 . S
C365 C366 1.415 . S
C366 H342 0.950 . S
C366 C361 1.363 . S
C366 C365 1.415 . S
C367 H343 0.951 . S
C367 C368 1.366 . S
C367 C369 1.388 . S
C368 C367 1.366 . S
C368 C372 1.385 . S
C369 H344 0.951 . S
C369 C367 1.388 . S
C369 C370 1.366 . S
C370 C369 1.366 . S
C370 C371 1.414 . S
C370 C373 1.499 . S
C371 H345 0.950 . S
C371 C370 1.414 . S
C371 C372 1.374 . S
C372 H346 0.950 . S
C372 C368 1.385 . S
C372 C371 1.374 . S
C373 C370 1.499 . S
C373 C374 1.373 . S
C373 C375 1.389 . S
C374 H347 0.950 . S
C374 C360 1.377 . S
C374 C373 1.373 . S
C375 C359 1.377 . S
C375 C373 1.389 . S
C375 C376 1.524 . S
C376 C375 1.524 . S
C376 C377 1.397 . S
C376 C381 1.363 . S
C377 H348 0.950 . S
C377 C376 1.397 . S
C377 C378 1.334 . S
C378 H349 0.950 . S
C378 C377 1.334 . S
C378 C379 1.287 . S
C379 C378 1.287 . S
C379 C380 1.524 . S
C379 H382 0.999 . S
C380 H350 0.950 . S
C380 C379 1.524 . S
C380 C381 1.415 . S
C381 H351 0.950 . S
C381 C376 1.363 . S
C381 C380 1.415 . S
H382 C379 0.999 . S
H383 C364 0.913 . S
H384 C402 0.951 . S
H385 C404 0.951 . S
H386 C406 0.950 . S
H387 C407 0.950 . S
H388 C409 0.950 . S
H389 C412 0.950 . S
H390 C413 0.950 . S
H391 C415 0.950 . S
H392 C416 0.950 . S
H393 C417 0.951 . S
H394 C419 0.951 . S
H395 C421 0.950 . S
H396 C422 0.950 . S
H397 C424 0.950 . S
H398 C427 0.950 . S
H399 C428 0.950 . S
H400 C430 0.950 . S
H401 C431 0.950 . S
C402 H384 0.951 . S
C402 C403 1.366 . S
C402 C404 1.388 . S
C403 C402 1.366 . S
C403 C407 1.385 . S
C404 H385 0.951 . S
C404 C402 1.388 . S
C404 C405 1.366 . S
C405 C404 1.366 . S
C405 C406 1.414 . S
C405 C408 1.499 . S
C406 H386 0.950 . S
C406 C405 1.414 . S
C406 C407 1.374 . S
C407 H387 0.950 . S
C407 C403 1.385 . S
C407 C406 1.374 . S
C408 C405 1.499 . S
C408 C409 1.373 . S
C408 C410 1.389 . S
C409 H388 0.950 . S
C409 C408 1.373 . S
C409 C425 1.377 . S
C410 C408 1.389 . S
C410 C411 1.524 . S
C410 C424 1.377 . S
C411 C410 1.524 . S
C411 C412 1.397 . S
C411 C416 1.363 . S
C412 H389 0.950 . S
C412 C411 1.397 . S
C412 C413 1.334 . S
C413 H390 0.950 . S
C413 C412 1.334 . S
C413 C414 1.287 . S
C414 C413 1.287 . S
C414 C415 1.524 . S
C414 H433 0.913 . S
C415 H391 0.950 . S
C415 C414 1.524 . S
C415 C416 1.415 . S
C416 H392 0.950 . S
C416 C411 1.363 . S
C416 C415 1.415 . S
C417 H393 0.951 . S
C417 C418 1.366 . S
C417 C419 1.388 . S
C418 C417 1.366 . S
C418 C422 1.385 . S
C419 H394 0.951 . S
C419 C417 1.388 . S
C419 C420 1.366 . S
C420 C419 1.366 . S
C420 C421 1.414 . S
C420 C423 1.499 . S
C421 H395 0.950 . S
C421 C420 1.414 . S
C421 C422 1.374 . S
C422 H396 0.950 . S
C422 C418 1.385 . S
C422 C421 1.374 . S
C423 C420 1.499 . S
C423 C424 1.373 . S
C423 C425 1.389 . S
C424 H397 0.950 . S
C424 C410 1.377 . S
C424 C423 1.373 . S
C425 C409 1.377 . S
C425 C423 1.389 . S
C425 C426 1.524 . S
C426 C425 1.524 . S
C426 C427 1.397 . S
C426 C431 1.363 . S
C427 H398 0.950 . S
C427 C426 1.397 . S
C427 C428 1.334 . S
C428 H399 0.950 . S
C428 C427 1.334 . S
C428 C429 1.287 . S
C429 C428 1.287 . S
C429 C430 1.524 . S
C429 H432 0.999 . S
C430 H400 0.950 . S
C430 C429 1.524 . S
C430 C431 1.415 . S
C431 H401 0.950 . S
C431 C426 1.363 . S
C431 C430 1.415 . S
H432 C429 0.999 . S
H433 C414 0.913 . S
H434 C452 0.951 . S
H435 C454 0.951 . S
H436 C456 0.950 . S
H437 C457 0.950 . S
H438 C459 0.950 . S
H439 C462 0.950 . S
H440 C463 0.950 . S
H441 C465 0.950 . S
H442 C466 0.950 . S
H443 C467 0.951 . S
H444 C469 0.951 . S
H445 C471 0.950 . S
H446 C472 0.950 . S
H447 C474 0.950 . S
H448 C477 0.950 . S
H449 C478 0.950 . S
H450 C480 0.950 . S
H451 C481 0.950 . S
C452 H434 0.951 . S
C452 C453 1.366 . S
C452 C454 1.388 . S
C453 C452 1.366 . S
C453 C457 1.385 . S
C454 H435 0.951 . S
C454 C452 1.388 . S
C454 C455 1.366 . S
C455 C454 1.366 . S
C455 C456 1.414 . S
C455 C458 1.499 . S
C456 H436 0.950 . S
C456 C455 1.414 . S
C456 C457 1.374 . S
C457 H437 0.950 . S
C457 C453 1.385 . S
C457 C456 1.374 . S
C458 C455 1.499 . S
C458 C459 1.373 . S
C458 C460 1.389 . S
C459 H438 0.950 . S
C459 C458 1.373 . S
C459 C475 1.377 . S
C460 C458 1.389 . S
C460 C461 1.524 . S
C460 C474 1.377 . S
C461 C460 1.524 . S
C461 C462 1.397 . S
C461 C466 1.363 . S
C462 H439 0.950 . S
C462 C461 1.397 . S
C462 C463 1.334 . S
C463 H440 0.950 . S
C463 C462 1.334 . S
C463 C464 1.287 . S
C464 C463 1.287 . S
C464 C465 1.524 . S
C464 H483 0.913 . S
C465 H441 0.950 . S
C465 C464 1.524 . S
C465 C466 1.415 . S
C466 H442 0.950 . S
C466 C461 1.363 . S
C466 C465 1.415 . S
C467 H443 0.951 . S
C467 C468 1.366 . S
C467 C469 1.388 . S
C468 C467 1.366 . S
C468 C472 1.385 . S
C469 H444 0.951 . S
C469 C467 1.388 . S
C469 C470 1.366 . S
C470 C469 1.366 . S
C470 C471 1.414 . S
C470 C473 1.499 . S
C471 H445 0.950 . S
C471 C470 1.414 . S
C471 C472 1.374 . S
C472 H446 0.950 . S
C472 C468 1.385 . S
C472 C471 1.374 . S
C473 C470 1.499 . S
C473 C474 1.373 . S
C473 C475 1.389 . S
C474 H447 0.950 . S
C474 C460 1.377 . S
C474 C473 1.373 . S
C475 C459 1.377 . S
C475 C473 1.389 . S
C475 C476 1.524 . S
C476 C475 1.524 . S
C476 C477 1.397 . S
C476 C481 1.363 . S
C477 H448 0.950 . S
C477 C476 1.397 . S
C477 C478 1.334 . S
C478 H449 0.950 . S
C478 C477 1.334 . S
C478 C479 1.287 . S
C479 C478 1.287 . S
C479 C480 1.524 . S
C479 H482 0.999 . S
C480 H450 0.950 . S
C480 C479 1.524 . S
C480 C481 1.415 . S
C481 H451 0.950 . S
C481 C476 1.363 . S
C481 C480 1.415 . S
H482 C479 0.999 . S
H483 C464 0.913 . S
H484 C502 0.951 . S
H485 C504 0.951 . S
H486 C506 0.950 . S
H487 C507 0.950 . S
H488 C509 0.950 . S
H489 C512 0.950 . S
H490 C513 0.950 . S
H491 C515 0.950 . S
H492 C516 0.950 . S
H493 C517 0.951 . S
H494 C519 0.951 . S
H495 C521 0.950 . S
H496 C522 0.950 . S
H497 C524 0.950 . S
H498 C527 0.950 . S
H499 C528 0.950 . S
H500 C530 0.950 . S
H501 C531 0.950 . S
C502 H484 0.951 . S
C502 C503 1.366 . S
C502 C504 1.388 . S
C503 C502 1.366 . S
C503 C507 1.385 . S
C504 H485 0.951 . S
C504 C502 1.388 . S
C504 C505 1.366 . S
C505 C504 1.366 . S
C505 C506 1.414 . S
C505 C508 1.499 . S
C506 H486 0.950 . S
C506 C505 1.414 . S
C506 C507 1.374 . S
C507 H487 0.950 . S
C507 C503 1.385 . S
C507 C506 1.374 . S
C508 C505 1.499 . S
C508 C509 1.373 . S
C508 C510 1.389 . S
C509 H488 0.950 . S
C509 C508 1.373 . S
C509 C525 1.377 . S
C510 C508 1.389 . S
C510 C511 1.524 . S
C510 C524 1.377 . S
C511 C510 1.524 . S
C511 C512 1.397 . S
C511 C516 1.363 . S
C512 H489 0.950 . S
C512 C511 1.397 . S
C512 C513 1.334 . S
C513 H490 0.950 . S
C513 C512 1.334 . S
C513 C514 1.287 . S
C514 C513 1.287 . S
C514 C515 1.524 . S
C514 H533 0.913 . S
C515 H491 0.950 . S
C515 C514 1.524 . S
C515 C516 1.415 . S
C516 H492 0.950 . S
C516 C511 1.363 . S
C516 C515 1.415 . S
C517 H493 0.951 . S
C517 C518 1.366 . S
C517 C519 1.388 . S
C518 C517 1.366 . S
C518 C522 1.385 . S
C519 H494 0.951 . S
C519 C517 1.388 . S
C519 C520 1.366 . S
C520 C519 1.366 . S
C520 C521 1.414 . S
C520 C523 1.499 . S
C521 H495 0.950 . S
C521 C520 1.414 . S
C521 C522 1.374 . S
C522 H496 0.950 . S
C522 C518 1.385 . S
C522 C521 1.374 . S
C523 C520 1.499 . S
C523 C524 1.373 . S
C523 C525 1.389 . S
C524 H497 0.950 . S
C524 C510 1.377 . S
C524 C523 1.373 . S
C525 C509 1.377 . S
C525 C523 1.389 . S
C525 C526 1.524 . S
C526 C525 1.524 . S
C526 C527 1.397 . S
C526 C531 1.363 . S
C527 H498 0.950 . S
C527 C526 1.397 . S
C527 C528 1.334 . S
C528 H499 0.950 . S
C528 C527 1.334 . S
C528 C529 1.287 . S
C529 C528 1.287 . S
C529 C530 1.524 . S
C529 H532 0.999 . S
C530 H500 0.950 . S
C530 C529 1.524 . S
C530 C531 1.415 . S
C531 H501 0.950 . S
C531 C526 1.363 . S
C531 C530 1.415 . S
H532 C529 0.999 . S
H533 C514 0.913 . S
H534 C552 0.951 . S
H535 C554 0.951 . S
H536 C556 0.950 . S
H537 C557 0.950 . S
H538 C559 0.950 . S
H539 C562 0.950 . S
H540 C563 0.950 . S
H541 C565 0.950 . S
H542 C566 0.950 . S
H543 C567 0.951 . S
H544 C569 0.951 . S
H545 C571 0.950 . S
H546 C572 0.950 . S
H547 C574 0.950 . S
H548 C577 0.950 . S
H549 C578 0.950 . S
H550 C580 0.950 . S
H551 C581 0.950 . S
C552 H534 0.951 . S
C552 C553 1.366 . S
C552 C554 1.388 . S
C553 C552 1.366 . S
C553 C557 1.385 . S
C554 H535 0.951 . S
C554 C552 1.388 . S
C554 C555 1.366 . S
C555 C554 1.366 . S
C555 C556 1.414 . S
C555 C558 1.499 . S
C556 H536 0.950 . S
C556 C555 1.414 . S
C556 C557 1.374 . S
C557 H537 0.950 . S
C557 C553 1.385 . S
C557 C556 1.374 . S
C558 C555 1.499 . S
C558 C559 1.373 . S
C558 C560 1.389 . S
C559 H538 0.950 . S
C559 C558 1.373 . S
C559 C575 1.377 . S
C560 C558 1.389 . S
C560 C561 1.524 . S
C560 C574 1.377 . S
C561 C560 1.524 . S
C561 C562 1.397 . S
C561 C566 1.363 . S
C562 H539 0.950 . S
C562 C561 1.397 . S
C562 C563 1.334 . S
C563 H540 0.950 . S
C563 C562 1.334 . S
C563 C564 1.287 . S
C564 C563 1.287 . S
C564 C565 1.524 . S
C564 H583 0.913 . S
C565 H541 0.950 . S
C565 C564 1.524 . S
C565 C566 1.415 . S
C566 H542 0.950 . S
C566 C561 1.363 . S
C566 C565 1.415 . S
C567 H543 0.951 . S
C567 C568 1.366 . S
C567 C569 1.388 . S
C568 C567 1.366 . S
C568 C572 1.385 . S
C569 H544 0.951 . S
C569 C567 1.388 . S
C569 C570 1.366 . S
C570 C569 1.366 . S
C570 C571 1.414 . S
C570 C573 1.499 . S
C571 H545 0.950 . S
C571 C570 1.414 . S
C571 C572 1.374 . S
C572 H546 0.950 . S
C572 C568 1.385 . S
C572 C571 1.374 . S
C573 C570 1.499 . S
C573 C574 1.373 . S
C573 C575 1.389 . S
C574 H547 0.950 . S
C574 C560 1.377 . S
C574 C573 1.373 . S
C575 C559 1.377 . S
C575 C573 1.389 . S
C575 C576 1.524 . S
C576 C575 1.524 . S
C576 C577 1.397 . S
C576 C581 1.363 . S
C577 H548 0.950 . S
C577 C576 1.397 . S
C577 C578 1.334 . S
C578 H549 0.950 . S
C578 C577 1.334 . S
C578 C579 1.287 . S
C579 C578 1.287 . S
C579 C580 1.524 . S
C579 H582 0.999 . S
C580 H550 0.950 . S
C580 C579 1.524 . S
C580 C581 1.415 . S
C581 H551 0.950 . S
C581 C576 1.363 . S
C581 C580 1.415 . S
H582 C579 0.999 . S
H583 C564 0.913 . S
H584 C602 0.951 . S
H585 C604 0.951 . S
H586 C606 0.950 . S
H587 C607 0.950 . S
H588 C609 0.950 . S
H589 C612 0.950 . S
H590 C613 0.950 . S
H591 C615 0.950 . S
H592 C616 0.950 . S
H593 C617 0.951 . S
H594 C619 0.951 . S
H595 C621 0.950 . S
H596 C622 0.950 . S
H597 C624 0.950 . S
H598 C627 0.950 1_556 S
H599 C628 0.950 . S
H600 C630 0.950 . S
H601 C631 0.950 . S
C602 H584 0.951 . S
C602 C603 1.366 . S
C602 C604 1.388 . S
C603 C602 1.366 . S
C603 C607 1.385 . S
C604 H585 0.951 . S
C604 C602 1.388 . S
C604 C605 1.366 . S
C605 C604 1.366 . S
C605 C606 1.414 . S
C605 C608 1.499 . S
C606 H586 0.950 . S
C606 C605 1.414 . S
C606 C607 1.374 . S
C607 H587 0.950 . S
C607 C603 1.385 . S
C607 C606 1.374 . S
C608 C605 1.499 . S
C608 C609 1.373 . S
C608 C610 1.389 . S
C609 H588 0.950 . S
C609 C608 1.373 . S
C609 C625 1.377 . S
C610 C608 1.389 . S
C610 C611 1.524 . S
C610 C624 1.377 . S
C611 C610 1.524 . S
C611 C612 1.397 . S
C611 C616 1.363 . S
C612 H589 0.950 . S
C612 C611 1.397 . S
C612 C613 1.334 . S
C613 H590 0.950 . S
C613 C612 1.334 . S
C613 C614 1.287 . S
C614 C613 1.287 . S
C614 C615 1.524 . S
C614 H633 0.913 . S
C615 H591 0.950 . S
C615 C614 1.524 . S
C615 C616 1.415 . S
C616 H592 0.950 . S
C616 C611 1.363 . S
C616 C615 1.415 . S
C617 H593 0.951 . S
C617 C618 1.366 . S
C617 C619 1.388 . S
C618 C617 1.366 . S
C618 C622 1.385 1_554 S
C619 H594 0.951 . S
C619 C617 1.388 . S
C619 C620 1.366 1_554 S
C620 C619 1.366 1_556 S
C620 C621 1.414 . S
C620 C623 1.499 . S
C621 H595 0.950 . S
C621 C620 1.414 . S
C621 C622 1.374 . S
C622 H596 0.950 . S
C622 C618 1.385 1_556 S
C622 C621 1.374 . S
C623 C620 1.499 . S
C623 C624 1.373 . S
C623 C625 1.389 . S
C624 H597 0.950 . S
C624 C610 1.377 . S
C624 C623 1.373 . S
C625 C609 1.377 . S
C625 C623 1.389 . S
C625 C626 1.524 1_556 S
C626 C625 1.524 1_554 S
C626 C627 1.397 . S
C626 C631 1.363 . S
C627 H598 0.950 1_554 S
C627 C626 1.397 . S
C627 C628 1.334 . S
C628 H599 0.950 . S
C628 C627 1.334 . S
C628 C629 1.287 . S
C629 C628 1.287 . S
C629 C630 1.524 . S
C629 H632 0.999 . S
C630 H600 0.950 . S
C630 C629 1.524 . S
C630 C631 1.415 . S
C631 H601 0.950 . S
C631 C626 1.363 . S
C631 C630 1.415 . S
H632 C629 0.999 . S
H633 C614 0.913 . S
H634 C652 0.951 . S
H635 C654 0.951 . S
H636 C656 0.950 . S
H637 C657 0.950 . S
H638 C659 0.950 . S
H639 C662 0.950 . S
H640 C663 0.950 . S
H641 C665 0.950 . S
H642 C666 0.950 1_554 S
H643 C667 0.951 . S
H644 C669 0.951 . S
H645 C671 0.950 . S
H646 C672 0.950 . S
H647 C674 0.950 . S
H648 C677 0.950 . S
H649 C678 0.950 . S
H650 C680 0.950 . S
H651 C681 0.950 . S
C652 H634 0.951 . S
C652 C653 1.366 . S
C652 C654 1.388 1_556 S
C653 C652 1.366 . S
C653 C657 1.385 . S
C654 H635 0.951 . S
C654 C652 1.388 1_554 S
C654 C655 1.366 . S
C655 C654 1.366 . S
C655 C656 1.414 . S
C655 C658 1.499 . S
C656 H636 0.950 . S
C656 C655 1.414 . S
C656 C657 1.374 1_554 S
C657 H637 0.950 . S
C657 C653 1.385 . S
C657 C656 1.374 1_556 S
C658 C655 1.499 . S
C658 C659 1.373 . S
C658 C660 1.389 . S
C659 H638 0.950 . S
C659 C658 1.373 . S
C659 C675 1.377 . S
C660 C658 1.389 . S
C660 C661 1.524 1_554 S
C660 C674 1.377 . S
C661 C660 1.524 1_556 S
C661 C662 1.397 . S
C661 C666 1.363 . S
C662 H639 0.950 . S
C662 C661 1.397 . S
C662 C663 1.334 . S
C663 H640 0.950 . S
C663 C662 1.334 . S
C663 C664 1.287 . S
C664 C663 1.287 . S
C664 C665 1.524 . S
C664 H683 0.913 . S
C665 H641 0.950 . S
C665 C664 1.524 . S
C665 C666 1.415 . S
C666 H642 0.950 1_556 S
C666 C661 1.363 . S
C666 C665 1.415 . S
C667 H643 0.951 . S
C667 C668 1.366 . S
C667 C669 1.388 . S
C668 C667 1.366 . S
C668 C672 1.385 . S
C669 H644 0.951 . S
C669 C667 1.388 . S
C669 C670 1.366 . S
C670 C669 1.366 . S
C670 C671 1.414 . S
C670 C673 1.499 . S
C671 H645 0.950 . S
C671 C670 1.414 . S
C671 C672 1.374 . S
C672 H646 0.950 . S
C672 C668 1.385 . S
C672 C671 1.374 . S
C673 C670 1.499 . S
C673 C674 1.373 . S
C673 C675 1.389 . S
C674 H647 0.950 . S
C674 C660 1.377 . S
C674 C673 1.373 . S
C675 C659 1.377 . S
C675 C673 1.389 . S
C675 C676 1.524 . S
C676 C675 1.524 . S
C676 C677 1.397 . S
C676 C681 1.363 . S
C677 H648 0.950 . S
C677 C676 1.397 . S
C677 C678 1.334 . S
C678 H649 0.950 . S
C678 C677 1.334 . S
C678 C679 1.287 . S
C679 C678 1.287 . S
C679 C680 1.524 . S
C679 H682 0.999 . S
C680 H650 0.950 . S
C680 C679 1.524 . S
C680 C681 1.415 . S
C681 H651 0.950 . S
C681 C676 1.363 . S
C681 C680 1.415 . S
H682 C679 0.999 . S
H683 C664 0.913 . S
C103 C8 1.420 1_556 S
C118 C48 1.459 . S
C153 C62 1.459 . S
C168 C22 1.420 . S
C203 C36 1.420 . S
C218 C76 1.459 1_554 S
C253 C50 1.420 . S
C268 C6 1.459 . S
C303 C20 1.459 . S
C318 C64 1.420 . S
C353 C78 1.420 . S
C368 C34 1.459 . S
C403 C7 1.314 . S
C418 C37 1.308 . S
C453 C21 1.315 . S
C468 C51 1.309 . S
C503 C65 1.308 . S
C518 C35 1.315 . S
C553 C79 1.307 . S
C568 C49 1.315 . S
C603 C63 1.315 . S
C618 C9 1.309 . S
C653 C77 1.315 . S
C668 C23 1.308 . S
