# Generated by pormake.
# Topology sme, (6)-cn, num edge types: 1
# Building blocks:
#     Node 0, Type 0, BuildingBlock: OJICUG_clean_sbu_0, # of connection points: 6
#     Node 1, Type 0, BuildingBlock: OJICUG_clean_sbu_0, # of connection points: 6
#     Node 2, Type 0, BuildingBlock: OJICUG_clean_sbu_0, # of connection points: 6
#     Node 3, Type 0, BuildingBlock: OJICUG_clean_sbu_0, # of connection points: 6
#     Node 4, Type 0, BuildingBlock: OJICUG_clean_sbu_0, # of connection points: 6
#     Node 5, Type 0, BuildingBlock: OJICUG_clean_sbu_0, # of connection points: 6
#     Node 6, Type 0, BuildingBlock: OJICUG_clean_sbu_0, # of connection points: 6
#     Node 7, Type 0, BuildingBlock: OJICUG_clean_sbu_0, # of connection points: 6
#     Node 8, Type 0, BuildingBlock: OJICUG_clean_sbu_0, # of connection points: 6
#     Node 9, Type 0, BuildingBlock: OJICUG_clean_sbu_0, # of connection points: 6
#     Node 10, Type 0, BuildingBlock: OJICUG_clean_sbu_0, # of connection points: 6
#     Node 11, Type 0, BuildingBlock: OJICUG_clean_sbu_0, # of connection points: 6
#     Node 12, Type 0, BuildingBlock: OJICUG_clean_sbu_0, # of connection points: 6
#     Node 13, Type 0, BuildingBlock: OJICUG_clean_sbu_0, # of connection points: 6
#     Node 14, Type 0, BuildingBlock: OJICUG_clean_sbu_0, # of connection points: 6
#     Node 15, Type 0, BuildingBlock: OJICUG_clean_sbu_0, # of connection points: 6
#     Node 16, Type 0, BuildingBlock: OJICUG_clean_sbu_0, # of connection points: 6
#     Node 17, Type 0, BuildingBlock: OJICUG_clean_sbu_0, # of connection points: 6
#     Edge 18, Type (0, 0), BuildingBlock: CIFDUS_clean_linker_0, # of connection points: 2
#     Edge 19, Type (0, 0), BuildingBlock: CIFDUS_clean_linker_0, # of connection points: 2
#     Edge 20, Type (0, 0), BuildingBlock: CIFDUS_clean_linker_0, # of connection points: 2
#     Edge 21, Type (0, 0), BuildingBlock: CIFDUS_clean_linker_0, # of connection points: 2
#     Edge 22, Type (0, 0), BuildingBlock: CIFDUS_clean_linker_0, # of connection points: 2
#     Edge 23, Type (0, 0), BuildingBlock: CIFDUS_clean_linker_0, # of connection points: 2
#     Edge 24, Type (0, 0), BuildingBlock: CIFDUS_clean_linker_0, # of connection points: 2
#     Edge 25, Type (0, 0), BuildingBlock: CIFDUS_clean_linker_0, # of connection points: 2
#     Edge 26, Type (0, 0), BuildingBlock: CIFDUS_clean_linker_0, # of connection points: 2
#     Edge 27, Type (0, 0), BuildingBlock: CIFDUS_clean_linker_0, # of connection points: 2
#     Edge 28, Type (0, 0), BuildingBlock: CIFDUS_clean_linker_0, # of connection points: 2
#     Edge 29, Type (0, 0), BuildingBlock: CIFDUS_clean_linker_0, # of connection points: 2
#     Edge 30, Type (0, 0), BuildingBlock: CIFDUS_clean_linker_0, # of connection points: 2
#     Edge 31, Type (0, 0), BuildingBlock: CIFDUS_clean_linker_0, # of connection points: 2
#     Edge 32, Type (0, 0), BuildingBlock: CIFDUS_clean_linker_0, # of connection points: 2
#     Edge 33, Type (0, 0), BuildingBlock: CIFDUS_clean_linker_0, # of connection points: 2
#     Edge 34, Type (0, 0), BuildingBlock: CIFDUS_clean_linker_0, # of connection points: 2
#     Edge 35, Type (0, 0), BuildingBlock: CIFDUS_clean_linker_0, # of connection points: 2
#     Edge 36, Type (0, 0), BuildingBlock: CIFDUS_clean_linker_0, # of connection points: 2
#     Edge 37, Type (0, 0), BuildingBlock: CIFDUS_clean_linker_0, # of connection points: 2
#     Edge 38, Type (0, 0), BuildingBlock: CIFDUS_clean_linker_0, # of connection points: 2
#     Edge 39, Type (0, 0), BuildingBlock: CIFDUS_clean_linker_0, # of connection points: 2
#     Edge 40, Type (0, 0), BuildingBlock: CIFDUS_clean_linker_0, # of connection points: 2
#     Edge 41, Type (0, 0), BuildingBlock: CIFDUS_clean_linker_0, # of connection points: 2
#     Edge 42, Type (0, 0), BuildingBlock: CIFDUS_clean_linker_0, # of connection points: 2
#     Edge 43, Type (0, 0), BuildingBlock: CIFDUS_clean_linker_0, # of connection points: 2
#     Edge 44, Type (0, 0), BuildingBlock: CIFDUS_clean_linker_0, # of connection points: 2
#     Edge 45, Type (0, 0), BuildingBlock: CIFDUS_clean_linker_0, # of connection points: 2
#     Edge 46, Type (0, 0), BuildingBlock: CIFDUS_clean_linker_0, # of connection points: 2
#     Edge 47, Type (0, 0), BuildingBlock: CIFDUS_clean_linker_0, # of connection points: 2
#     Edge 48, Type (0, 0), BuildingBlock: CIFDUS_clean_linker_0, # of connection points: 2
#     Edge 49, Type (0, 0), BuildingBlock: CIFDUS_clean_linker_0, # of connection points: 2
#     Edge 50, Type (0, 0), BuildingBlock: CIFDUS_clean_linker_0, # of connection points: 2
#     Edge 51, Type (0, 0), BuildingBlock: CIFDUS_clean_linker_0, # of connection points: 2
#     Edge 52, Type (0, 0), BuildingBlock: CIFDUS_clean_linker_0, # of connection points: 2
#     Edge 53, Type (0, 0), BuildingBlock: CIFDUS_clean_linker_0, # of connection points: 2
#     Edge 54, Type (0, 0), BuildingBlock: CIFDUS_clean_linker_0, # of connection points: 2
#     Edge 55, Type (0, 0), BuildingBlock: CIFDUS_clean_linker_0, # of connection points: 2
#     Edge 56, Type (0, 0), BuildingBlock: CIFDUS_clean_linker_0, # of connection points: 2
#     Edge 57, Type (0, 0), BuildingBlock: CIFDUS_clean_linker_0, # of connection points: 2
#     Edge 58, Type (0, 0), BuildingBlock: CIFDUS_clean_linker_0, # of connection points: 2
#     Edge 59, Type (0, 0), BuildingBlock: CIFDUS_clean_linker_0, # of connection points: 2
#     Edge 60, Type (0, 0), BuildingBlock: CIFDUS_clean_linker_0, # of connection points: 2
#     Edge 61, Type (0, 0), BuildingBlock: CIFDUS_clean_linker_0, # of connection points: 2
#     Edge 62, Type (0, 0), BuildingBlock: CIFDUS_clean_linker_0, # of connection points: 2
#     Edge 63, Type (0, 0), BuildingBlock: CIFDUS_clean_linker_0, # of connection points: 2
#     Edge 64, Type (0, 0), BuildingBlock: CIFDUS_clean_linker_0, # of connection points: 2
#     Edge 65, Type (0, 0), BuildingBlock: CIFDUS_clean_linker_0, # of connection points: 2
#     Edge 66, Type (0, 0), BuildingBlock: CIFDUS_clean_linker_0, # of connection points: 2
#     Edge 67, Type (0, 0), BuildingBlock: CIFDUS_clean_linker_0, # of connection points: 2
#     Edge 68, Type (0, 0), BuildingBlock: CIFDUS_clean_linker_0, # of connection points: 2
#     Edge 69, Type (0, 0), BuildingBlock: CIFDUS_clean_linker_0, # of connection points: 2
#     Edge 70, Type (0, 0), BuildingBlock: CIFDUS_clean_linker_0, # of connection points: 2
#     Edge 71, Type (0, 0), BuildingBlock: CIFDUS_clean_linker_0, # of connection points: 2
# Relax obj value: 0.180
# Max RMSD: 0.201
# Mean RMSD: 0.201
data_MOF--net-sme--node1-OJICUG_clean_sbu_0--edge1-CIFDUS_clean_linker_0
_symmetry_space_group_name_H-M    P1
_symmetry_Int_Tables_number       1
_symmetry_cell_setting            triclinic
loop_
_symmetry_equiv_pos_as_xyz
'x, y, z'
_cell_length_a     41.026569
_cell_length_b     41.045252
_cell_length_c     35.159898
_cell_angle_alpha  89.679614
_cell_angle_beta   90.450174
_cell_angle_gamma 120.1756
loop_
_atom_site_label
_atom_site_type_symbol
_atom_site_fract_x
_atom_site_fract_y
_atom_site_fract_z
_atom_type_partial_charge
Sc0 Sc 0.03545 0.31292 0.80443 0.0
Sc1 Sc 0.03362 0.2389 0.75251 0.0
Sc2 Sc 0.04973 0.24477 0.85081 0.0
O3 O 0.03913 0.26536 0.80261 0.0
C4 C 0.1104 0.33196 0.84968 0.0
C5 C 0.07738 0.32441 0.72424 0.0
C6 C 0.09528 0.22476 0.79033 0.0
C7 C 0.96805 0.26 0.74941 0.0
C8 C 0.00325 0.28108 0.88666 0.0
C9 C 0.9873 0.17061 0.81216 0.0
O10 O 0.08847 0.34183 0.83421 0.0
O11 O 0.06811 0.29003 0.72009 0.0
O12 O 0.08325 0.22498 0.82339 0.0
O13 O 0.98284 0.28678 0.77345 0.0
O14 O 0.01922 0.26144 0.88846 0.0
O15 O -0.00142 0.1846 0.77908 0.0
O16 O 0.00395 0.29889 0.85678 0.0
O17 O 0.98352 0.24119 0.73927 0.0
O18 O 9e-05 0.18994 0.84264 0.0
O19 O 0.06708 0.3358 0.75277 0.0
O20 O 0.10055 0.29796 0.85793 0.0
O21 O 0.08309 0.23356 0.76094 0.0
Sc22 Sc 0.88166 0.87911 0.743 0.0
Sc23 Sc 0.86503 0.87718 0.84024 0.0
Sc24 Sc 0.80425 0.79911 0.78302 0.0
O25 O 0.85026 0.85147 0.78879 0.0
C26 C 0.80116 0.83785 0.70411 0.0
C27 C 0.88756 0.94864 0.78643 0.0
C28 C 0.77739 0.847 0.83067 0.0
C29 C 0.94282 0.8942 0.80826 0.0
C30 C 0.86577 0.79488 0.7326 0.0
C31 C 0.82829 0.79124 0.86769 0.0
O32 O 0.8349 0.86482 0.70575 0.0
O33 O 0.88483 0.93323 0.81853 0.0
O34 O 0.77033 0.81823 0.8108 0.0
O35 O 0.93234 0.89585 0.77453 0.0
O36 O 0.83653 0.77856 0.75355 0.0
O37 O 0.8475 0.82658 0.87231 0.0
O38 O 0.88349 0.83014 0.72607 0.0
O39 O 0.9211 0.88524 0.83689 0.0
O40 O 0.81253 0.77662 0.83612 0.0
O41 O 0.88314 0.93118 0.75541 0.0
O42 O 0.78683 0.81222 0.72938 0.0
O43 O 0.80998 0.87053 0.84367 0.0
Sc44 Sc 0.30696 0.06875 0.78441 0.0
Sc45 Sc 0.23066 0.07116 0.74106 0.0
Sc46 Sc 0.23141 0.05887 0.83983 0.0
O47 O 0.25654 0.06647 0.78843 0.0
C48 C 0.25914 -0.00125 0.83812 0.0
C49 C 0.27011 0.0283 0.70536 0.0
C50 C 0.16183 0.00719 0.78516 0.0
C51 C 0.31601 0.13609 0.7326 0.0
C52 C 0.31742 0.10888 0.86476 0.0
C53 C 0.21149 0.1169 0.80281 0.0
O54 O 0.28646 0.0174 0.81558 0.0
O55 O 0.24599 0.039 0.70453 0.0
O56 O 0.17679 0.02085 0.81718 0.0
O57 O 0.32955 0.11985 0.75276 0.0
O58 O 0.28248 0.09525 0.87063 0.0
O59 O 0.21143 0.10478 0.76958 0.0
O60 O 0.33 0.10214 0.83482 0.0
O61 O 0.28096 0.12217 0.72571 0.0
O62 O 0.2218 0.10585 0.8321 0.0
O63 O 0.29299 0.03596 0.7329 0.0
O64 O 0.23739 0.01028 0.8499 0.0
O65 O 0.17881 0.0202 0.7538 0.0
Sc66 Sc 0.05387 0.81072 0.21605 0.0
Sc67 Sc 0.05482 0.88711 0.26276 0.0
Sc68 Sc 0.04984 0.88086 0.16273 0.0
O69 O 0.05318 0.85971 0.21399 0.0
C70 C 0.09709 0.84334 0.13718 0.0
C71 C 0.11784 0.86304 0.2747 0.0
C72 C 0.1072 0.95545 0.20526 0.0
C73 C 0.00794 0.80215 0.29284 0.0
C74 C 0.98665 0.79422 0.1597 0.0
C75 C -0.00372 0.89851 0.2134 0.0
O76 O 0.08767 0.82124 0.16556 0.0
O77 O 0.10298 0.88309 0.28271 0.0
O78 O 0.09686 0.93571 0.17509 0.0
O79 O 0.01962 0.79004 0.26618 0.0
O80 O 0.00128 0.82793 0.14753 0.0
O81 O 0.00651 0.89294 0.24604 0.0
O82 O 0.00262 0.7834 0.18373 0.0
O83 O 0.01704 0.83664 0.29527 0.0
O84 O 0.01172 0.89715 0.18296 0.0
O85 O 0.10415 0.83666 0.2501 0.0
O86 O 0.08686 0.86753 0.13347 0.0
O87 O 0.09332 0.9419 0.23784 0.0
Sc88 Sc 0.22646 0.25288 0.25933 0.0
Sc89 Sc 0.23027 0.24801 0.15969 0.0
Sc90 Sc 0.30161 0.32613 0.20945 0.0
O91 O 0.25261 0.27593 0.20943 0.0
C92 C 0.25053 0.33943 0.26758 0.0
C93 C 0.15643 0.2324 0.20157 0.0
C94 C 0.26777 0.33388 0.13001 0.0
C95 C 0.21242 0.17956 0.2176 0.0
C96 C 0.31272 0.29149 0.28708 0.0
C97 C 0.31692 0.2728 0.15627 0.0
O98 O 0.22955 0.30457 0.27513 0.0
O99 O 0.17558 0.24152 0.17095 0.0
O100 O 0.28746 0.34753 0.15989 0.0
O101 O 0.22145 0.19937 0.24761 0.0
O102 O 0.32474 0.31338 0.25858 0.0
O103 O 0.28259 0.25088 0.14716 0.0
O104 O 0.2778 0.26805 0.29175 0.0
O105 O 0.21179 0.19285 0.18492 0.0
O106 O 0.32827 0.30234 0.17635 0.0
O107 O 0.17107 0.23381 0.23417 0.0
O108 O 0.27785 0.35202 0.24422 0.0
O109 O 0.24615 0.29852 0.12544 0.0
Sc110 Sc 0.85919 0.05308 0.27136 0.0
Sc111 Sc 0.86086 0.05345 0.17145 0.0
Sc112 Sc 0.78576 0.05347 0.22011 0.0
O113 O 0.83508 0.0531 0.22088 0.0
C114 C 0.77191 0.99332 0.28392 0.0
C115 C 0.87192 0.99542 0.22111 0.0
C116 C 0.77361 0.00545 0.14502 0.0
C117 C 0.93253 0.10683 0.22475 0.0
C118 C 0.82545 0.10493 0.2934 0.0
C119 C 0.83812 0.11631 0.16055 0.0
O120 O 0.8068 0.00734 0.29162 0.0
O121 O 0.86473 0.00438 0.18848 0.0
O122 O 0.76155 0.01421 0.17404 0.0
O123 O 0.91392 0.09865 0.2555 0.0
O124 O 0.80159 0.0933 0.2663 0.0
O125 O 0.86003 0.10338 0.15412 0.0
O126 O 0.84856 0.09338 0.29841 0.0
O127 O 0.91753 0.0907 0.19336 0.0
O128 O 0.80918 0.10011 0.18169 0.0
O129 O 0.87277 0.0124 0.25147 0.0
O130 O 0.75959 0.00674 0.25864 0.0
O131 O 0.80861 0.01773 0.1398 0.0
Sc132 Sc 0.6965 0.63631 0.10998 0.0
Sc133 Sc 0.69849 0.55814 0.07332 0.0
Sc134 Sc 0.70482 0.57262 0.17183 0.0
O135 O 0.6996 0.58901 0.11844 0.0
C136 C 0.766 0.65992 0.16627 0.0
C137 C 0.74108 0.6388 0.03423 0.0
C138 C 0.75807 0.55149 0.12393 0.0
C139 C 0.63229 0.57573 0.05634 0.0
C140 C 0.65679 0.61211 0.19167 0.0
C141 C 0.64781 0.49496 0.13543 0.0
O142 O 0.74849 0.66804 0.14123 0.0
O143 O 0.73333 0.60481 0.03636 0.0
O144 O 0.74262 0.55312 0.15451 0.0
O145 O 0.64506 0.60521 0.07703 0.0
O146 O 0.66912 0.58999 0.19939 0.0
O147 O 0.66262 0.50647 0.10289 0.0
O148 O 0.66339 0.62944 0.16012 0.0
O149 O 0.64906 0.55701 0.05219 0.0
O150 O 0.65717 0.51646 0.16437 0.0
O151 O 0.7296 0.65337 0.05859 0.0
O152 O 0.7532 0.62724 0.18083 0.0
O153 O 0.74802 0.55707 0.09142 0.0
Sc154 Sc 0.45776 0.12717 0.12655 0.0
Sc155 Sc 0.52902 0.19888 0.07192 0.0
Sc156 Sc 0.53306 0.20604 0.17138 0.0
O157 O 0.50673 0.17712 0.12337 0.0
C158 C 0.44718 0.18383 0.17924 0.0
C159 C 0.44271 0.16084 0.05027 0.0
C160 C 0.54785 0.27354 0.1149 0.0
C161 C 0.50408 0.11135 0.0656 0.0
C162 C 0.49598 0.12254 0.2043 0.0
C163 C 0.6013 0.21542 0.12255 0.0
O164 O 0.43412 0.15406 0.15915 0.0
O165 O 0.47671 0.18633 0.04544 0.0
O166 O 0.55002 0.2602 0.14681 0.0
O167 O 0.48023 0.09956 0.0926 0.0
O168 O 0.51988 0.15745 0.20565 0.0
O169 O 0.58446 0.2142 0.09162 0.0
O170 O 0.47285 0.10785 0.17695 0.0
O171 O 0.52203 0.14562 0.05475 0.0
O172 O 0.58581 0.21024 0.15508 0.0
O173 O 0.43258 0.13714 0.07723 0.0
O174 O 0.48192 0.20442 0.18803 0.0
O175 O 0.53787 0.25401 0.08467 0.0
Sc176 Sc 0.97085 0.40619 0.1315 0.0
Sc177 Sc 0.88674 0.39541 0.09193 0.0
Sc178 Sc 0.89409 0.38745 0.19019 0.0
O179 O 0.91751 0.39669 0.13784 0.0
C180 C 0.9294 0.33401 0.18387 0.0
C181 C 0.93172 0.35927 0.05495 0.0
C182 C 0.8222 0.33124 0.14062 0.0
C183 C 0.9683 0.46651 0.07708 0.0
C184 C 0.97994 0.44286 0.21363 0.0
C185 C 0.86884 0.44154 0.15436 0.0
O186 O 0.95661 0.3557 0.16233 0.0
O187 O 0.90307 0.36337 0.05644 0.0
O188 O 0.83889 0.34669 0.17137 0.0
O189 O 0.98635 0.45627 0.09912 0.0
O190 O 0.9448 0.42572 0.21939 0.0
O191 O 0.86752 0.42842 0.12129 0.0
O192 O -0.00617 0.44004 0.18249 0.0
O193 O 0.93293 0.44716 0.07125 0.0
O194 O 0.88052 0.43181 0.18364 0.0
O195 O 0.95804 0.37345 0.07964 0.0
O196 O 0.90522 0.34189 0.19686 0.0
O197 O 0.83719 0.34335 0.10829 0.0
Sc198 Sc 0.72163 0.21341 0.60009 0.0
Sc199 Sc 0.73026 0.21494 0.50092 0.0
Sc200 Sc 0.72977 0.14194 0.55361 0.0
O201 O 0.72758 0.19017 0.5517 0.0
C202 C 0.78386 0.19046 0.6212 0.0
C203 C 0.78233 0.28545 0.55125 0.0
C204 C 0.78101 0.17886 0.48085 0.0
C205 C 0.67169 0.23072 0.54432 0.0
C206 C 0.67255 0.12649 0.6224 0.0
C207 C 0.66894 0.12809 0.4899 0.0
O208 O 0.76773 0.20977 0.62665 0.0
O209 O 0.77738 0.26862 0.5194 0.0
O210 O 0.77196 0.15799 0.51012 0.0
O211 O 0.67504 0.21935 0.57719 0.0
O212 O 0.68779 0.11646 0.59732 0.0
O213 O 0.68154 0.1629 0.48253 0.0
O214 O 0.68098 0.16062 0.62653 0.0
O215 O 0.69253 0.23331 0.51688 0.0
O216 O 0.68515 0.11626 0.51251 0.0
O217 O 0.76244 0.26923 0.58051 0.0
O218 O 0.77366 0.16544 0.59545 0.0
O219 O 0.76788 0.20037 0.47414 0.0
Sc220 Sc 0.89425 0.57245 0.59534 0.0
Sc221 Sc 0.90543 0.58437 0.49645 0.0
Sc222 Sc 0.96725 0.65739 0.55752 0.0
O223 O 0.92215 0.60502 0.54983 0.0
C224 C 0.90674 0.65373 0.6161 0.0
C225 C 0.82743 0.55663 0.53502 0.0
C226 C 0.93859 0.67241 0.47818 0.0
C227 C 0.88898 0.50913 0.5417 0.0
C228 C 0.97781 0.61537 0.63005 0.0
C229 C -0.00608 0.61636 0.49974 0.0
O230 O 0.88968 0.61799 0.61941 0.0
O231 O 0.84826 0.57202 0.50602 0.0
O232 O 0.95495 0.68339 0.51019 0.0
O233 O 0.8957 0.52354 0.57482 0.0
O234 O 0.98899 0.64162 0.60564 0.0
O235 O 0.96097 0.59359 0.48698 0.0
O236 O 0.94422 0.58755 0.63016 0.0
O237 O 0.88877 0.52726 0.51238 0.0
O238 O 0.00124 0.64322 0.52262 0.0
O239 O 0.84055 0.5534 0.56699 0.0
O240 O 0.93502 0.67241 0.59435 0.0
O241 O 0.91987 0.63769 0.46946 0.0
Sc242 Sc 0.52892 0.37128 0.59696 0.0
Sc243 Sc 0.5314 0.38114 0.49718 0.0
Sc244 Sc 0.45987 0.38335 0.5511 0.0
O245 O 0.50655 0.37827 0.54825 0.0
C246 C 0.44008 0.31688 0.60749 0.0
C247 C 0.5369 0.31542 0.53959 0.0
C248 C 0.44455 0.34069 0.47097 0.0
C249 C 0.60372 0.42632 0.55193 0.0
C250 C 0.50152 0.42506 0.62887 0.0
C251 C 0.51576 0.44968 0.49716 0.0
O252 O 0.47447 0.32851 0.61572 0.0
O253 O 0.53399 0.33017 0.50854 0.0
O254 O 0.43467 0.35143 0.50023 0.0
O255 O 0.58544 0.4138 0.58267 0.0
O256 O 0.47665 0.41638 0.60305 0.0
O257 O 0.5328 0.43333 0.48425 0.0
O258 O 0.52429 0.41277 0.62914 0.0
O259 O 0.58825 0.41571 0.51936 0.0
O260 O 0.48834 0.43441 0.52017 0.0
O261 O 0.53627 0.32829 0.57209 0.0
O262 O 0.42956 0.33255 0.58296 0.0
O263 O 0.4784 0.34832 0.46593 0.0
Sc264 Sc 0.37024 0.97475 0.45299 0.0
Sc265 Sc 0.36073 0.8931 0.40974 0.0
Sc266 Sc 0.38807 0.91172 0.50556 0.0
O267 O 0.3726 0.92634 0.45619 0.0
C268 C 0.44779 -0.00079 0.49544 0.0
C269 C 0.40441 0.974 0.37133 0.0
C270 C 0.42755 0.88485 0.44507 0.0
C271 C 0.29789 0.91766 0.40543 0.0
C272 C 0.34238 0.94995 0.53825 0.0
C273 C 0.32153 0.83287 0.47739 0.0
O274 O 0.42525 0.00698 0.47807 0.0
O275 O 0.39302 0.93899 0.37161 0.0
O276 O 0.42125 0.89171 0.47846 0.0
O277 O 0.3155 0.94679 0.42623 0.0
O278 O 0.3579 0.92997 0.54133 0.0
O279 O 0.32729 0.84326 0.44274 0.0
O280 O 0.34286 0.96658 0.50747 0.0
O281 O 0.31086 0.89612 0.39744 0.0
O282 O 0.33954 0.85502 0.50491 0.0
O283 O 0.39802 0.99049 0.39833 0.0
O284 O 0.43854 0.96629 0.50728 0.0
O285 O 0.40947 0.88641 0.41627 0.0
Sc286 Sc 0.21461 0.54109 0.41528 0.0
Sc287 Sc 0.20126 0.53902 0.51387 0.0
Sc288 Sc 0.13432 0.46532 0.45578 0.0
O289 O 0.18349 0.51478 0.46173 0.0
C290 C 0.13319 0.50609 0.37809 0.0
C291 C 0.22437 0.61116 0.46105 0.0
C292 C 0.1146 0.51555 0.50859 0.0
C293 C 0.27765 0.55431 0.47814 0.0
C294 C 0.19053 0.45505 0.40233 0.0
C295 C 0.15934 0.45154 0.53778 0.0
O296 O 0.16821 0.52961 0.37835 0.0
O297 O 0.22288 0.59574 0.49292 0.0
O298 O 0.10506 0.48729 0.48705 0.0
O299 O 0.26587 0.55605 0.4451 0.0
O300 O 0.16128 0.44148 0.42315 0.0
O301 O 0.18128 0.48635 0.54465 0.0
O302 O 0.21246 0.49024 0.39711 0.0
O303 O 0.25665 0.54476 0.50753 0.0
O304 O 0.14232 0.43994 0.50615 0.0
O305 O 0.21845 0.59378 0.42967 0.0
O306 O 0.11713 0.48194 0.40436 0.0
O307 O 0.14806 0.53675 0.52103 0.0
Sc308 Sc 0.5698 0.73551 0.4062 0.0
Sc309 Sc 0.5671 0.72734 0.50583 0.0
Sc310 Sc 0.6457 0.73762 0.45599 0.0
O311 O 0.59434 0.73367 0.45599 0.0
C312 C 0.61138 0.69231 0.37772 0.0
C313 C 0.49836 0.67386 0.45058 0.0
C314 C 0.59586 0.66833 0.50955 0.0
C315 C 0.5495 0.78429 0.46276 0.0
C316 C 0.65588 0.80211 0.3995 0.0
C317 C 0.65132 0.77693 0.53608 0.0
O318 O 0.58518 0.70009 0.37456 0.0
O319 O 0.51303 0.68813 0.4825 0.0
O320 O 0.6236 0.68637 0.48729 0.0
O321 O 0.55092 0.77138 0.43035 0.0
O322 O 0.66913 0.78873 0.4239 0.0
O323 O 0.61622 0.76446 0.5384 0.0
O324 O 0.62122 0.78557 0.38958 0.0
O325 O 0.55781 0.77361 0.49361 0.0
O326 O 0.66596 0.77033 0.50763 0.0
O327 O 0.51624 0.68579 0.41942 0.0
O328 O 0.63495 0.70453 0.40503 0.0
O329 O 0.57386 0.68008 0.51991 0.0
Sc330 Sc 0.39787 0.47962 0.87179 0.0
Sc331 Sc 0.38244 0.54809 0.91504 0.0
Sc332 Sc 0.38415 0.5429 0.81603 0.0
O333 O 0.38858 0.52364 0.86775 0.0
C334 C 0.44005 0.5136 0.79324 0.0
C335 C 0.45311 0.53751 0.93342 0.0
C336 C 0.43456 0.61852 0.85944 0.0
C337 C 0.34399 0.46301 0.94445 0.0
C338 C 0.32899 0.45413 0.81481 0.0
C339 C 0.324 0.5543 0.86191 0.0
O340 O 0.43562 0.49493 0.82358 0.0
O341 O 0.4326 0.55217 0.9391 0.0
O342 O 0.42857 0.59935 0.82907 0.0
O343 O 0.3611 0.45459 0.91991 0.0
O344 O 0.33834 0.48738 0.80382 0.0
O345 O 0.33158 0.54651 0.89471 0.0
O346 O 0.34948 0.44643 0.83622 0.0
O347 O 0.34742 0.49559 0.94584 0.0
O348 O 0.3433 0.55713 0.83298 0.0
O349 O 0.44531 0.51156 0.90908 0.0
O350 O 0.42336 0.532 0.78766 0.0
O351 O 0.41774 0.6039 0.89073 0.0
Sc352 Sc 0.55656 0.91274 0.93224 0.0
Sc353 Sc 0.5628 0.91199 0.83254 0.0
Sc354 Sc 0.63084 0.98951 0.88484 0.0
O355 O 0.58331 0.93823 0.88325 0.0
C356 C 0.5771 -0.00201 0.94375 0.0
C357 C 0.488 0.89397 0.87317 0.0
C358 C 0.59726 -0.00173 0.80627 0.0
C359 C 0.54439 0.84153 0.88727 0.0
C360 C 0.64276 0.9529 0.96072 0.0
C361 C 0.65012 0.94058 0.82938 0.0
O362 O 0.55702 0.96284 0.95044 0.0
O363 O 0.50781 0.90446 0.84303 0.0
O364 O 0.61535 0.01172 0.83702 0.0
O365 O 0.553 0.85994 0.91825 0.0
O366 O 0.65439 0.9757 0.93288 0.0
O367 O 0.61606 0.91666 0.82111 0.0
O368 O 0.60801 0.92845 0.96496 0.0
O369 O 0.54434 0.85637 0.85543 0.0
O370 O 0.65984 0.96989 0.84937 0.0
O371 O 0.50173 0.89378 0.90588 0.0
O372 O 0.60491 0.01192 0.92102 0.0
O373 O 0.5782 0.96299 0.80012 0.0
Sc374 Sc 0.19592 0.70818 0.94054 0.0
Sc375 Sc 0.19189 0.71687 0.84188 0.0
Sc376 Sc 0.11709 0.70685 0.89958 0.0
O377 O 0.168 0.7104 0.89391 0.0
C378 C 0.11143 0.64315 0.95503 0.0
C379 C 0.207 0.65637 0.88026 0.0
C380 C 0.10406 0.66767 0.81828 0.0
C381 C 0.26508 0.7682 0.89381 0.0
C382 C 0.15872 0.75232 0.97554 0.0
C383 C 0.16488 0.77717 0.84521 0.0
O384 O 0.14681 0.65931 0.96024 0.0
O385 O 0.19793 0.66761 0.85015 0.0
O386 O 0.09213 0.67214 0.84991 0.0
O387 O 0.24773 0.7571 0.9251 0.0
O388 O 0.13311 0.74141 0.95021 0.0
O389 O 0.18742 0.76645 0.83366 0.0
O390 O 0.18407 0.74339 0.97529 0.0
O391 O 0.24936 0.75378 0.8621 0.0
O392 O 0.1368 0.75757 0.86679 0.0
O393 O 0.21044 0.67139 0.91259 0.0
O394 O 0.09554 0.65631 0.93359 0.0
O395 O 0.13908 0.68248 0.81135 0.0
H396 H 0.1914 0.14959 0.74662 0.0
H397 H 0.19627 0.14204 0.86892 0.0
H398 H 0.16354 0.17762 0.87562 0.0
H399 H 0.12886 0.20595 0.84683 0.0
H400 H 0.12263 0.21195 0.72449 0.0
H401 H 0.16092 0.18212 0.71792 0.0
C402 C 0.18568 0.15595 0.77484 0.0
C403 C 0.19605 0.14266 0.80724 0.0
C404 C 0.16638 0.17597 0.7785 0.0
C405 C 0.18861 0.15168 0.84347 0.0
C406 C 0.16973 0.17194 0.84732 0.0
C407 C 0.13609 0.2011 0.81864 0.0
C408 C 0.12237 0.21091 0.78617 0.0
C409 C 0.15773 0.18346 0.81503 0.0
C410 C 0.13252 0.20463 0.75 0.0
C411 C 0.15436 0.18743 0.7462 0.0
H412 H 0.95334 0.12142 0.7538 0.0
H413 H 0.96336 0.12617 0.87631 0.0
H414 H 0.92995 0.05738 0.87919 0.0
H415 H 0.90426 -0.00353 0.84655 0.0
H416 H 0.89689 0.99247 0.72383 0.0
H417 H 0.92287 0.06049 0.72162 0.0
C418 C 0.9479 0.10756 0.78127 0.0
C419 C 0.96142 0.12918 0.81477 0.0
C420 C 0.92949 0.06807 0.78268 0.0
C421 C 0.95353 0.11043 0.85002 0.0
C422 C 0.93458 0.07103 0.85169 0.0
C423 C 0.90791 0.01032 0.81927 0.0
C424 C 0.89904 0.98923 0.78536 0.0
C425 C 0.92345 0.04963 0.81812 0.0
C426 C 0.90374 0.00785 0.75038 0.0
C427 C 0.91865 0.04682 0.74907 0.0
H428 H 0.99053 0.89781 0.75406 0.0
H429 H 0.98517 0.91715 0.87389 0.0
H430 H 0.05402 0.94933 0.87809 0.0
H431 H 0.1147 0.98035 0.84553 0.0
H432 H 0.11931 0.96583 0.72436 0.0
H433 H 0.05124 0.92306 0.72292 0.0
C434 C 0.00434 0.90872 0.78127 0.0
C435 C 0.98293 0.90606 0.81344 0.0
C436 C 0.04363 0.92841 0.78305 0.0
C437 C 0.0011 0.91923 0.84866 0.0
C438 C 0.04041 0.93784 0.85097 0.0
C439 C 0.10102 0.96749 0.81881 0.0
C440 C 0.12196 0.97695 0.78489 0.0
C441 C 0.06187 0.94398 0.81798 0.0
C442 C 0.10376 0.95955 0.75072 0.0
C443 C 0.06488 0.93511 0.74988 0.0
H444 H 0.95539 0.90886 0.26896 0.0
H445 H 0.96955 0.91092 0.14708 0.0
H446 H 0.928 0.93613 0.13812 0.0
H447 H 0.8941 0.96543 0.16474 0.0
H448 H 0.87823 0.96247 0.28621 0.0
H449 H 0.91291 0.92929 0.29497 0.0
C450 C 0.949 0.91435 0.24047 0.0
C451 C 0.96657 0.90885 0.20905 0.0
C452 C 0.92471 0.92895 0.23516 0.0
C453 C 0.95726 0.91555 0.17216 0.0
C454 C 0.9333 0.92997 0.16678 0.0
C455 C 0.8974 0.95673 0.19302 0.0
C456 C 0.88438 0.96733 0.22468 0.0
C457 C 0.91781 0.93794 0.19808 0.0
C458 C 0.88865 0.95542 0.26119 0.0
C459 C 0.90863 0.93648 0.26637 0.0
H460 H 0.1382 0.00779 0.26203 0.0
H461 H 0.13496 -0.00348 0.13978 0.0
H462 H 0.16965 0.06482 0.13284 0.0
H463 H 0.19566 0.1278 0.16107 0.0
H464 H 0.1989 0.13889 0.28334 0.0
H465 H 0.16984 0.0709 0.29039 0.0
C466 C 0.14546 0.02017 0.23385 0.0
C467 C 0.13342 -0.00323 0.20154 0.0
C468 C 0.16523 0.05964 0.22992 0.0
C469 C 0.14356 0.0136 0.16528 0.0
C470 C 0.16332 0.05279 0.16119 0.0
C471 C 0.19039 0.11544 0.18929 0.0
C472 C 0.1991 0.13864 0.22154 0.0
C473 C 0.17345 0.07609 0.19327 0.0
C474 C 0.19239 0.12194 0.25789 0.0
C475 C 0.17562 0.08291 0.26203 0.0
H476 H 0.10625 0.21253 0.25991 0.0
H477 H 0.11197 0.21241 0.13734 0.0
H478 H 0.04328 0.1753 0.13351 0.0
H479 H 0.98167 0.13828 0.16511 0.0
H480 H 0.97661 0.1387 0.28776 0.0
H481 H 0.04467 0.18017 0.29113 0.0
C482 C 0.09258 0.20486 0.23226 0.0
C483 C 0.11461 0.21516 0.199 0.0
C484 C 0.05298 0.18309 0.23021 0.0
C485 C 0.09603 0.20501 0.1635 0.0
C486 C 0.05662 0.18352 0.16126 0.0
C487 C -0.00464 0.1476 0.1926 0.0
C488 C 0.97376 0.13482 0.22612 0.0
C489 C 0.03482 0.17162 0.19445 0.0
C490 C 0.99223 0.14774 0.26141 0.0
C491 C 0.03131 0.17151 0.26343 0.0
H492 H 0.8647 0.48516 0.09912 0.0
H493 H 0.83997 0.45675 0.21778 0.0
H494 H 0.80656 0.4922 0.21988 0.0
H495 H 0.77829 0.52478 0.1858 0.0
H496 H 0.80202 0.55081 0.06639 0.0
H497 H 0.84209 0.5228 0.06696 0.0
C498 C 0.8523 0.48696 0.12561 0.0
C499 C 0.85424 0.46781 0.15809 0.0
C500 C 0.83268 0.50668 0.12637 0.0
C501 C 0.83876 0.47113 0.19235 0.0
C502 C 0.81945 0.49119 0.19347 0.0
C503 C 0.79264 0.52485 0.16 0.0
C504 C 0.78658 0.53941 0.12594 0.0
C505 C 0.81529 0.50811 0.16032 0.0
C506 C 0.80568 0.53941 0.0929 0.0
C507 C 0.82863 0.52337 0.09316 0.0
H508 H 0.56626 0.32247 0.17401 0.0
H509 H 0.55461 0.3156 0.05159 0.0
H510 H 0.57977 0.38345 0.04812 0.0
H511 H 0.61111 0.44498 0.07894 0.0
H512 H 0.62562 0.4527 0.20097 0.0
H513 H 0.59229 0.38389 0.2055 0.0
C514 C 0.56892 0.33568 0.14653 0.0
C515 C 0.55916 0.31394 0.11302 0.0
C516 C 0.58387 0.3748 0.14467 0.0
C517 C 0.56224 0.33158 0.07779 0.0
C518 C 0.57665 0.37042 0.07577 0.0
C519 C 0.60666 0.43169 0.10666 0.0
C520 C 0.62144 0.45399 0.13953 0.0
C521 C 0.58848 0.39235 0.10891 0.0
C522 C 0.61469 0.43624 0.17521 0.0
C523 C 0.5959 0.39691 0.17777 0.0
H524 H 0.65146 0.23058 0.18069 0.0
H525 H 0.64234 0.2266 0.05808 0.0
H526 H 0.71049 0.25789 0.05271 0.0
H527 H 0.77273 0.29475 0.08249 0.0
H528 H 0.7819 0.29885 0.20508 0.0
H529 H 0.71399 0.25873 0.21047 0.0
C530 C 0.66429 0.23589 0.1528 0.0
C531 C 0.64175 0.22715 0.11997 0.0
C532 C 0.70369 0.25436 0.14974 0.0
C533 C 0.65894 0.23372 0.08401 0.0
C534 C 0.69803 0.25169 0.08079 0.0
C535 C 0.76 0.28632 0.11038 0.0
C536 C 0.78237 0.30073 0.14321 0.0
C537 C 0.72073 0.26351 0.11344 0.0
C538 C 0.76536 0.28889 0.17917 0.0
C539 C 0.72642 0.26592 0.18239 0.0
H540 H 0.6114 0.22104 0.58754 0.0
H541 H 0.66887 0.26763 0.48128 0.0
H542 H 0.6269 0.29119 0.46669 0.0
H543 H 0.57911 0.30585 0.48693 0.0
H544 H 0.52186 0.26162 0.59329 0.0
H545 H 0.55729 0.22915 0.60409 0.0
C546 C 0.61455 0.23615 0.56117 0.0
C547 C 0.6438 0.24289 0.53608 0.0
C548 C 0.59005 0.24998 0.55257 0.0
C549 C 0.64696 0.26209 0.5016 0.0
C550 C 0.62283 0.27565 0.49295 0.0
C551 C 0.5734 0.28801 0.51177 0.0
C552 C 0.54821 0.28645 0.53933 0.0
C553 C 0.59484 0.27057 0.51854 0.0
C554 C 0.54138 0.26346 0.57166 0.0
C555 C 0.56193 0.2452 0.5781 0.0
H556 H 0.81416 0.33816 0.4944 0.0
H557 H 0.81281 0.32514 0.61639 0.0
H558 H 0.84922 0.39321 0.6242 0.0
H559 H 0.87509 0.45661 0.5971 0.0
H560 H 0.87576 0.47001 0.47516 0.0
H561 H 0.84667 0.40215 0.46687 0.0
C562 C 0.82249 0.35018 0.52263 0.0
C563 C 0.81018 0.3264 0.55471 0.0
C564 C 0.84307 0.38967 0.52709 0.0
C565 C 0.82133 0.34264 0.59111 0.0
C566 C 0.84219 0.38169 0.59569 0.0
C567 C 0.86949 0.44484 0.56867 0.0
C568 C 0.87717 0.46861 0.53693 0.0
C569 C 0.8522 0.40553 0.56398 0.0
C570 C 0.86981 0.45257 0.50029 0.0
C571 C 0.85306 0.41361 0.49542 0.0
H572 H 0.65374 0.46241 0.49376 0.0
H573 H 0.6468 0.45226 0.61627 0.0
H574 H 0.7145 0.4942 0.62153 0.0
H575 H 0.77606 0.5306 0.59191 0.0
H576 H 0.78467 0.54083 0.46965 0.0
H577 H 0.71596 0.5027 0.46397 0.0
C578 C 0.66697 0.46948 0.52163 0.0
C579 C 0.64494 0.45368 0.55452 0.0
C580 C 0.70629 0.49376 0.52461 0.0
C581 C 0.66278 0.4636 0.59037 0.0
C582 C 0.70163 0.4877 0.59349 0.0
C583 C 0.76304 0.52485 0.56393 0.0
C584 C 0.78573 0.53839 0.53126 0.0
C585 C 0.7237 0.50247 0.56085 0.0
C586 C 0.76806 0.53087 0.49534 0.0
C587 C 0.72872 0.50881 0.49206 0.0
H588 H 0.52138 0.80689 0.40435 0.0
H589 H 0.54278 0.81993 0.52543 0.0
H590 H 0.51005 0.85561 0.52963 0.0
H591 H 0.47041 0.87764 0.50021 0.0
H592 H 0.44657 0.86224 0.37964 0.0
H593 H 0.48572 0.83325 0.37405 0.0
C594 C 0.51937 0.81788 0.43166 0.0
C595 C 0.53425 0.81026 0.46461 0.0
C596 C 0.49985 0.83773 0.43403 0.0
C597 C 0.53142 0.82503 0.49963 0.0
C598 C 0.51261 0.84539 0.50209 0.0
C599 C 0.47398 0.86832 0.47255 0.0
C600 C 0.45506 0.87174 0.44047 0.0
C601 C 0.4959 0.85104 0.46965 0.0
C602 C 0.46049 0.85978 0.40488 0.0
C603 C 0.48282 0.84309 0.40167 0.0
H604 H 0.27458 0.78028 0.42688 0.0
H605 H 0.3128 0.793 0.54352 0.0
H606 H 0.28266 0.72446 0.54976 0.0
H607 H 0.25273 0.66187 0.51941 0.0
H608 H 0.21882 0.65089 0.40133 0.0
H609 H 0.24047 0.71802 0.39836 0.0
C610 C 0.27599 0.76821 0.45394 0.0
C611 C 0.29651 0.79194 0.48452 0.0
C612 C 0.25997 0.72908 0.45684 0.0
C613 C 0.29735 0.77554 0.51946 0.0
C614 C 0.28041 0.73632 0.52292 0.0
C615 C 0.2497 0.67405 0.49311 0.0
C616 C 0.23465 0.65134 0.46045 0.0
C617 C 0.26284 0.71295 0.49136 0.0
C618 C 0.23079 0.66768 0.42673 0.0
C619 C 0.24305 0.70609 0.42502 0.0
H620 H 0.32561 0.56365 0.42117 0.0
H621 H 0.3221 0.57639 0.54266 0.0
H622 H 0.39113 0.61114 0.54503 0.0
H623 H 0.45146 0.64478 0.51141 0.0
H624 H 0.45408 0.63547 0.38921 0.0
H625 H 0.38601 0.59235 0.38841 0.0
C626 C 0.33981 0.57359 0.44836 0.0
C627 C 0.3186 0.56795 0.48166 0.0
C628 C 0.37928 0.59461 0.44926 0.0
C629 C 0.33762 0.5804 0.51662 0.0
C630 C 0.3771 0.60056 0.5179 0.0
C631 C 0.43735 0.63308 0.48453 0.0
C632 C 0.45798 0.64395 0.45026 0.0
C633 C 0.3981 0.60898 0.48419 0.0
C634 C 0.43903 0.62802 0.41592 0.0
C635 C 0.40007 0.60336 0.41545 0.0
H636 H 0.23241 0.63392 0.81986 0.0
H637 H 0.20256 0.61069 0.93835 0.0
H638 H 0.23234 0.5724 0.94236 0.0
H639 H 0.27584 0.5544 0.91518 0.0
H640 H 0.30518 0.57702 0.79639 0.0
H641 H 0.2663 0.6058 0.78965 0.0
C642 C 0.23156 0.61963 0.8462 0.0
C643 C 0.21637 0.62607 0.87893 0.0
C644 C 0.24924 0.59793 0.8486 0.0
C645 C 0.21507 0.60702 0.91288 0.0
C646 C 0.23211 0.58509 0.91531 0.0
C647 C 0.2732 0.565 0.88768 0.0
C648 C 0.29439 0.56453 0.85682 0.0
C649 C 0.25086 0.58184 0.88383 0.0
C650 C 0.28991 0.57769 0.82108 0.0
C651 C 0.26762 0.59425 0.81704 0.0
H652 H 0.5275 0.7935 0.8273 0.0
H653 H 0.52895 0.79638 0.95012 0.0
H654 H 0.49747 0.72776 0.95219 0.0
H655 H 0.46463 0.66683 0.91934 0.0
H656 H 0.46276 0.66382 0.79656 0.0
H657 H 0.4995 0.73255 0.79445 0.0
C658 C 0.52134 0.77923 0.85459 0.0
C659 C 0.53029 0.8003 0.8885 0.0
C660 C 0.50284 0.73964 0.85563 0.0
C661 C 0.52236 0.7811 0.92352 0.0
C662 C 0.50415 0.74175 0.92476 0.0
C663 C 0.47244 0.68113 0.89206 0.0
C664 C 0.46043 0.66002 0.85815 0.0
C665 C 0.49345 0.72072 0.89101 0.0
C666 C 0.47141 0.67918 0.82313 0.0
C667 C 0.49236 0.71857 0.82188 0.0
H668 H 0.31433 0.79939 0.83425 0.0
H669 H 0.30786 0.8028 0.95667 0.0
H670 H 0.37559 0.84498 0.96057 0.0
H671 H 0.43737 0.87632 0.93026 0.0
H672 H 0.4449 0.87316 0.80806 0.0
H673 H 0.37626 0.8362 0.80323 0.0
C674 C 0.32764 0.80964 0.86176 0.0
C675 C 0.30582 0.79728 0.8951 0.0
C676 C 0.36696 0.83397 0.86397 0.0
C677 C 0.32373 0.81133 0.93045 0.0
C678 C 0.36261 0.83555 0.9328 0.0
C679 C 0.42408 0.86799 0.90248 0.0
C680 C 0.44647 0.87721 0.86967 0.0
C681 C 0.38461 0.84633 0.89988 0.0
C682 C 0.42853 0.86647 0.8339 0.0
C683 C 0.38919 0.84509 0.83108 0.0
H684 H 0.08626 0.31166 0.6495 0.0
H685 H 0.11909 0.40085 0.73151 0.0
H686 H 0.15111 0.44792 0.68194 0.0
H687 H 0.16523 0.46417 0.61437 0.0
H688 H 0.12957 0.37529 0.53156 0.0
H689 H 0.1039 0.32808 0.58218 0.0
C690 C 0.10085 0.34137 0.65663 0.0
C691 C 0.09991 0.35253 0.69428 0.0
C692 C 0.1187 0.36855 0.62769 0.0
C693 C 0.1189 0.39129 0.7028 0.0
C694 C 0.13733 0.41834 0.67443 0.0
C695 C 0.15254 0.43452 0.60741 0.0
C696 C 0.14941 0.42345 0.56906 0.0
C697 C 0.13679 0.40736 0.63662 0.0
C698 C 0.13235 0.38475 0.56073 0.0
C699 C 0.11751 0.35765 0.5897 0.0
H700 H 0.72825 0.81746 0.54137 0.0
H701 H 0.62727 0.77439 0.60876 0.0
H702 H 0.66473 0.79075 0.66692 0.0
H703 H 0.72564 0.81121 0.69895 0.0
H704 H 0.82688 0.85715 0.6319 0.0
H705 H 0.78996 0.84579 0.5736 0.0
C706 C 0.71449 0.81227 0.56875 0.0
C707 C 0.67492 0.79426 0.5705 0.0
C708 C 0.73622 0.82177 0.60232 0.0
C709 C 0.65765 0.78817 0.60634 0.0
C710 C 0.67903 0.79724 0.63978 0.0
C711 C 0.73955 0.81902 0.67156 0.0
C712 C 0.7788 0.83451 0.66965 0.0
C713 C 0.71822 0.813 0.63813 0.0
C714 C 0.79665 0.84513 0.63408 0.0
C715 C 0.77555 0.83854 0.60071 0.0
H716 H 0.30475 0.98653 0.70076 0.0
H717 H 0.24586 0.02873 0.63276 0.0
H718 H 0.261 0.00633 0.57508 0.0
H719 H 0.29569 0.97955 0.54334 0.0
H720 H 0.35308 0.93598 0.61193 0.0
H721 H 0.33356 0.95384 0.66961 0.0
C722 C 0.29484 0.99045 0.67338 0.0
C723 C 0.27451 0.00966 0.67121 0.0
C724 C 0.30361 0.97746 0.64021 0.0
C725 C 0.26153 0.01404 0.63543 0.0
C726 C 0.27037 0.00142 0.6023 0.0
C727 C 0.30361 0.97361 0.5709 0.0
C728 C 0.32623 0.95678 0.57305 0.0
C729 C 0.29214 0.98384 0.60425 0.0
C730 C 0.33578 0.94893 0.60916 0.0
C731 C 0.32474 0.95928 0.64232 0.0
H732 H 0.45516 0.18482 0.97695 0.0
H733 H 0.36629 0.12554 0.05862 0.0
H734 H 0.31897 0.10894 0.00849 0.0
H735 H 0.30334 0.10438 0.9405 0.0
H736 H 0.3926 0.15952 0.85839 0.0
H737 H 0.43923 0.1851 0.9097 0.0
C738 C 0.42543 0.16891 0.98394 0.0
C739 C 0.41426 0.15609 0.02136 0.0
C740 C 0.39844 0.15845 0.9548 0.0
C741 C 0.37562 0.13535 0.02991 0.0
C742 C 0.34855 0.12584 1.00127 0.0
C743 C 0.3329 0.12269 0.93386 0.0
C744 C 0.34452 0.12981 0.89569 0.0
C745 C 0.35968 0.13619 0.96342 0.0
C746 C 0.38298 0.15335 0.88755 0.0
C747 C 0.40966 0.16792 0.91686 0.0
H748 H 0.95264 0.30571 0.89339 0.0
H749 H 0.01892 0.2712 0.96004 0.0
H750 H 0.00132 0.29053 0.01819 0.0
H751 H 0.97151 0.32238 0.04987 0.0
H752 H 0.90283 0.35414 0.98369 0.0
H753 H 0.91671 0.3306 0.92603 0.0
C754 C 0.96283 0.30193 0.92067 0.0
C755 C 0.98739 0.28728 0.92209 0.0
C756 C 0.95239 0.31293 0.95425 0.0
C757 C -5e-05 0.28228 0.95787 0.0
C758 C 0.99009 0.29358 0.99126 0.0
C759 C 0.95926 0.32377 0.02288 0.0
C760 C 0.93645 0.34037 0.02116 0.0
C761 C 0.96703 0.30975 0.98974 0.0
C762 C 0.92042 0.34148 0.98598 0.0
C763 C 0.92851 0.32817 0.95287 0.0
H764 H 0.78779 0.71461 0.02972 0.0
H765 H 0.73833 0.61356 0.9619 0.0
H766 H 0.76291 0.65134 0.904 0.0
H767 H 0.79364 0.71372 0.87214 0.0
H768 H 0.84532 0.81421 0.94138 0.0
H769 H 0.82515 0.77611 0.99872 0.0
C770 C 0.78283 0.70086 1.0023 0.0
C771 C 0.76096 0.66138 1.00013 0.0
C772 C 0.79729 0.72272 0.96915 0.0
C773 C 0.75517 0.64393 0.96441 0.0
C774 C 0.76902 0.66555 0.93122 0.0
C775 C 0.80095 0.72728 0.89974 0.0
C776 C 0.82061 0.76696 0.90205 0.0
C777 C 0.78941 0.70507 0.93313 0.0
C778 C 0.8301 0.78385 0.93832 0.0
C779 C 0.81843 0.76205 0.97138 0.0
H780 H 0.92344 0.66181 0.40175 0.0
H781 H 0.9716 0.74906 0.48699 0.0
H782 H 0.99349 0.79726 0.43738 0.0
H783 H 0.00541 0.81485 0.3692 0.0
H784 H 0.95958 0.72702 0.28457 0.0
H785 H 0.93021 0.67936 0.3342 0.0
C786 C 0.93806 0.69133 0.40966 0.0
C787 C 0.94593 0.70149 0.44833 0.0
C788 C 0.95143 0.71909 0.38084 0.0
C789 C 0.96516 0.74012 0.45763 0.0
C790 C 0.97787 0.76785 0.42916 0.0
C791 C 0.98828 0.78536 0.36162 0.0
C792 C 0.98494 0.77464 0.3231 0.0
C793 C 0.97212 0.75773 0.39057 0.0
C794 C 0.96294 0.73615 0.31392 0.0
C795 C 0.94613 0.70877 0.34235 0.0
H796 H 0.30141 0.27391 0.3631 0.0
H797 H 0.38805 0.31915 0.27751 0.0
H798 H 0.43628 0.33427 0.32618 0.0
H799 H 0.45483 0.34074 0.39393 0.0
H800 H 0.36839 0.29841 0.47968 0.0
H801 H 0.31963 0.27584 0.43047 0.0
C802 C 0.33076 0.28646 0.35502 0.0
C803 C 0.34093 0.29559 0.31659 0.0
C804 C 0.35869 0.29595 0.3834 0.0
C805 C 0.37928 0.31213 0.30683 0.0
C806 C 0.407 0.32082 0.33471 0.0
C807 C 0.42532 0.32584 0.40183 0.0
C808 C 0.41547 0.32144 0.44059 0.0
C809 C 0.39721 0.31376 0.37324 0.0
C810 C 0.37694 0.30243 0.45016 0.0
C811 C 0.34893 0.28956 0.42197 0.0
H812 H 0.7801 0.19348 0.40574 0.0
H813 H 0.8276 0.14915 0.48672 0.0
H814 H 0.85065 0.12711 0.43456 0.0
H815 H 0.84924 0.11266 0.36676 0.0
H816 H 0.79592 0.15145 0.2865 0.0
H817 H 0.78344 0.18374 0.33764 0.0
C818 C 0.79632 0.17984 0.41208 0.0
C819 C 0.802 0.17286 0.45016 0.0
C820 C 0.80793 0.16575 0.38203 0.0
C821 C 0.82273 0.15477 0.45772 0.0
C822 C 0.83573 0.14199 0.42789 0.0
C823 C 0.83558 0.12883 0.36027 0.0
C824 C 0.82329 0.12943 0.32286 0.0
C825 C 0.82726 0.14611 0.39002 0.0
C826 C 0.80537 0.15027 0.31507 0.0
C827 C 0.79821 0.1687 0.34431 0.0
H828 H 0.78513 0.00768 0.06816 0.0
H829 H 0.69817 0.95648 0.15296 0.0
H830 H 0.64981 0.93196 0.10328 0.0
H831 H 0.63157 0.93146 0.03601 0.0
H832 H 0.71875 0.98536 0.95168 0.0
H833 H 0.76707 0.00188 1.00044 0.0
C834 C 0.75568 0.99033 0.07574 0.0
C835 C 0.74549 0.9841 0.1144 0.0
C836 C 0.72773 0.97715 0.04693 0.0
C837 C 0.70698 0.96192 0.12353 0.0
C838 C 0.67918 0.94797 0.09507 0.0
C839 C 0.6611 0.94616 0.02818 0.0
C840 C 0.67128 0.95738 0.9901 0.0
C841 C 0.68909 0.9564 0.05668 0.0
C842 C 0.70987 0.97666 0.98072 0.0
C843 C 0.73768 0.98618 0.00866 0.0
H844 H 0.136 0.80406 0.97778 0.0
H845 H 0.17614 0.74525 0.04854 0.0
H846 H 0.16402 0.77109 0.10557 0.0
H847 H 0.13565 0.80506 0.1354 0.0
H848 H 0.09863 0.86648 0.06416 0.0
H849 H 0.11659 0.84565 0.00758 0.0
C850 C 0.14253 0.79739 0.00571 0.0
C851 C 0.15644 0.7725 0.00905 0.0
C852 C 0.13599 0.81273 0.03838 0.0
C853 C 0.16538 0.76442 0.04529 0.0
C854 C 0.1583 0.77902 0.07794 0.0
C855 C 0.13215 0.81442 0.10754 0.0
C856 C 0.11528 0.83681 0.10416 0.0
C857 C 0.1427 0.80246 0.07487 0.0
C858 C 0.11144 0.84913 0.06778 0.0
C859 C 0.12146 0.83703 0.03524 0.0
H860 H 0.32821 0.47308 0.01784 0.0
H861 H 0.30894 0.38671 0.93666 0.0
H862 H 0.27906 0.3384 0.98567 0.0
H863 H 0.26432 0.32102 0.05328 0.0
H864 H 0.28734 0.4078 0.13531 0.0
H865 H 0.30907 0.45501 0.08468 0.0
C866 C 0.31682 0.44363 0.01071 0.0
C867 C 0.32108 0.43374 0.97349 0.0
C868 C 0.30043 0.41583 0.03946 0.0
C869 C 0.30642 0.39533 0.96503 0.0
C870 C 0.28928 0.36757 0.99313 0.0
C871 C 0.27321 0.35009 0.05996 0.0
C872 C 0.27405 0.36068 0.09819 0.0
C873 C 0.28695 0.3775 0.03071 0.0
C874 C 0.28638 0.39873 0.10623 0.0
C875 C 0.29899 0.42587 0.07724 0.0
H876 H 0.05885 0.48469 0.37408 0.0
H877 H 0.15794 0.52254 0.30507 0.0
H878 H 0.12 0.51012 0.24733 0.0
H879 H 0.05742 0.48175 0.21646 0.0
H880 H 0.95894 0.44654 0.28623 0.0
H881 H -0.00208 0.46534 0.34318 0.0
C882 C 0.07216 0.49069 0.34639 0.0
C883 C 0.11099 0.50403 0.34386 0.0
C884 C 0.05025 0.48381 0.31327 0.0
C885 C 0.12803 0.51224 0.30781 0.0
C886 C 0.10632 0.50497 0.27473 0.0
C887 C 0.04454 0.47885 0.24402 0.0
C888 C 0.0051 0.46198 0.24679 0.0
C889 C 0.0672 0.48979 0.27707 0.0
C890 C 0.98911 0.45897 0.28292 0.0
C891 C 0.01138 0.46958 0.31575 0.0
H892 H 0.59102 0.68563 0.30252 0.0
H893 H 0.64323 0.64824 0.38551 0.0
H894 H 0.65769 0.61622 0.33583 0.0
H895 H 0.66081 0.60365 0.26822 0.0
H896 H 0.61263 0.64452 0.18429 0.0
H897 H 0.59097 0.66978 0.23474 0.0
C898 C 0.60504 0.66998 0.30979 0.0
C899 C 0.61616 0.66956 0.34776 0.0
C900 C 0.61421 0.65234 0.28079 0.0
C901 C 0.63463 0.64938 0.35655 0.0
C902 C 0.6429 0.63099 0.32812 0.0
C903 C 0.64491 0.6174 0.2609 0.0
C904 C 0.63839 0.62206 0.22234 0.0
C905 C 0.63359 0.63296 0.29002 0.0
C906 C 0.61815 0.64049 0.21361 0.0
C907 C 0.60585 0.6551 0.2425 0.0
H908 H 0.45824 0.04598 0.20924 0.0
H909 H 0.52037 0.14662 0.27683 0.0
H910 H 0.49906 0.10916 0.33496 0.0
H911 H 0.45669 0.04872 0.36663 0.0
H912 H 0.3959 0.94808 0.29886 0.0
H913 H 0.42273 0.98463 0.24094 0.0
C914 C 0.46771 0.05967 0.23666 0.0
C915 C 0.49043 0.09912 0.23857 0.0
C916 C 0.45508 0.03802 0.27004 0.0
C917 C 0.50284 0.11631 0.27439 0.0
C918 C 0.49037 0.09494 0.30775 0.0
C919 C 0.4496 0.03482 0.33917 0.0
C920 C 0.4239 0.9959 0.33698 0.0
C921 C 0.46544 0.05595 0.30591 0.0
C922 C 0.41551 0.97806 0.30131 0.0
C923 C 0.43077 -0.00106 0.26814 0.0
H924 H 0.65778 0.13739 0.6954 0.0
H925 H 0.63205 0.05019 0.61288 0.0
H926 H 0.60138 0.00202 0.6619 0.0
H927 H 0.58949 0.98512 0.72969 0.0
H928 H 0.61879 0.07271 0.81276 0.0
H929 H 0.63978 0.11987 0.76223 0.0
C930 C 0.64465 0.10782 0.68793 0.0
C931 C 0.64752 0.09755 0.65048 0.0
C932 C 0.628 0.08018 0.71659 0.0
C933 C 0.63058 0.059 0.64149 0.0
C934 C 0.61308 0.03137 0.66958 0.0
C935 C 0.59961 0.01439 0.7367 0.0
C936 C 0.60277 0.02527 0.7751 0.0
C937 C 0.61276 0.04167 0.70749 0.0
C938 C 0.61629 0.06347 0.78353 0.0
C939 C 0.62843 0.09056 0.75461 0.0
H940 H 0.11667 0.66994 0.74167 0.0
H941 H 0.02751 0.62148 0.82456 0.0
H942 H 0.98043 0.59692 0.7736 0.0
H943 H 0.96408 0.59482 0.70529 0.0
H944 H 0.05359 0.64672 0.62318 0.0
H945 H 0.10056 0.66368 0.67363 0.0
C946 C 0.08699 0.6534 0.74869 0.0
C947 C 0.0759 0.64783 0.78714 0.0
C948 C 0.05986 0.64009 0.71915 0.0
C949 C 0.03711 0.6265 0.79536 0.0
C950 C 0.01003 0.61244 0.76615 0.0
C951 C -0.00617 0.60908 0.69841 0.0
C952 C 0.0052 0.61948 0.66042 0.0
C953 C 0.02097 0.61985 0.72789 0.0
C954 C 0.04398 0.63849 0.65214 0.0
C955 C 0.07094 0.64831 0.68103 0.0
H956 H 0.48143 0.47904 0.63268 0.0
H957 H 0.519 0.41682 0.70161 0.0
H958 H 0.50754 0.44213 0.75933 0.0
H959 H 0.47939 0.47577 0.79034 0.0
H960 H 0.44474 0.54043 0.72103 0.0
H961 H 0.46326 0.52106 0.66391 0.0
C962 C 0.48765 0.47155 0.66034 0.0
C963 C 0.50054 0.44573 0.66283 0.0
C964 C 0.48136 0.48651 0.69357 0.0
C965 C 0.50904 0.43667 0.69885 0.0
C966 C 0.5023 0.45097 0.73197 0.0
C967 C 0.47663 0.4863 0.76286 0.0
C968 C 0.45987 0.5089 0.76026 0.0
C969 C 0.4874 0.47506 0.72973 0.0
C970 C 0.45708 0.52263 0.72422 0.0
C971 C 0.46749 0.51141 0.69128 0.0
H972 H 0.16762 0.3177 0.84373 0.0
H973 H 0.14356 0.40854 0.85152 0.0
H974 H 0.20878 0.45394 0.83514 0.0
H975 H 0.27153 0.46737 0.81765 0.0
H976 H 0.29689 0.37739 0.8121 0.0
H977 H 0.23109 0.3314 0.82684 0.0
C978 C 0.17682 0.34753 0.84279 0.0
C979 C 0.15093 0.35985 0.84924 0.0
C980 C 0.21392 0.37323 0.83226 0.0
C981 C 0.16311 0.39848 0.84706 0.0
C982 C 0.20018 0.42432 0.83717 0.0
C983 C 0.26251 0.43757 0.81851 0.0
C984 C 0.28876 0.42559 0.81298 0.0
C985 C 0.2255 0.41185 0.82897 0.0
C986 C 0.2769 0.38706 0.81551 0.0
C987 C 0.23956 0.36096 0.82457 0.0
H988 H 0.789 0.91728 0.83563 0.0
H989 H 0.7009 0.80079 0.82662 0.0
H990 H 0.65373 0.82035 0.82023 0.0
H991 H 0.63804 0.87037 0.81827 0.0
H992 H 0.72649 0.9868 0.82745 0.0
H993 H 0.77364 0.96723 0.83126 0.0
C994 C 0.75939 0.89606 0.83299 0.0
C995 C 0.74823 0.85762 0.83237 0.0
C996 C 0.73285 0.9075 0.82827 0.0
C997 C 0.70997 0.83053 0.82772 0.0
C998 C 0.68315 0.8417 0.82368 0.0
C999 C 0.6677 0.89159 0.82018 0.0
C1000 C 0.67884 0.93 0.82251 0.0
C1001 C 0.69438 0.88012 0.82365 0.0
C1002 C 0.71731 0.95707 0.82552 0.0
C1003 C 0.74417 0.9459 0.82813 0.0
H1004 H 0.23531 0.83579 0.83699 0.0
H1005 H 0.1189 0.80736 0.84367 0.0
H1006 H 0.13847 0.87428 0.84625 0.0
H1007 H 0.18864 0.94039 0.84744 0.0
H1008 H 0.30498 0.96861 0.84079 0.0
H1009 H 0.28538 0.90171 0.83867 0.0
C1010 C 0.21416 0.84423 0.83816 0.0
C1011 C 0.17572 0.81683 0.83958 0.0
C1012 C 0.22562 0.88247 0.84085 0.0
C1013 C 0.14866 0.8281 0.84213 0.0
C1014 C 0.15983 0.86624 0.84403 0.0
C1015 C 0.20974 0.93187 0.84645 0.0
C1016 C 0.24819 0.95922 0.84475 0.0
C1017 C 0.19825 0.89358 0.84401 0.0
C1018 C 0.27522 0.9479 0.84249 0.0
C1019 C 0.26403 0.90977 0.84084 0.0
H1020 H 0.45088 0.28528 0.66991 0.0
H1021 H 0.36464 0.27486 0.59128 0.0
H1022 H 0.31768 0.21879 0.62504 0.0
H1023 H 0.30228 0.17142 0.67478 0.0
H1024 H 0.38951 0.18204 0.7522 0.0
H1025 H 0.43521 0.23991 0.72068 0.0
C1026 C 0.42185 0.27078 0.66 0.0
C1027 C 0.41128 0.28386 0.62797 0.0
C1028 C 0.3953 0.23877 0.67923 0.0
C1029 C 0.37345 0.26515 0.61588 0.0
C1030 C 0.34664 0.23315 0.63509 0.0
C1031 C 0.3312 0.18659 0.68498 0.0
C1032 C 0.34264 0.17238 0.71544 0.0
C1033 C 0.35741 0.21955 0.66654 0.0
C1034 C 0.38016 0.19224 0.72842 0.0
C1035 C 0.40629 0.22531 0.71051 0.0
H1036 H 0.82183 0.24671 0.67333 0.0
H1037 H 0.81916 0.14933 0.62341 0.0
H1038 H 0.87444 0.16146 0.66008 0.0
H1039 H 0.92488 0.20054 0.70388 0.0
H1040 H 0.9295 0.29861 0.75399 0.0
H1041 H 0.87179 0.28495 0.71993 0.0
C1042 C 0.83319 0.22802 0.67065 0.0
C1043 C 0.8164 0.19734 0.64535 0.0
C1044 C 0.86535 0.2352 0.69178 0.0
C1045 C 0.83155 0.17338 0.64234 0.0
C1046 C 0.86321 0.1802 0.66336 0.0
C1047 C 0.91335 0.219 0.70754 0.0
C1048 C 0.93176 0.25074 0.73121 0.0
C1049 C 0.88055 0.21123 0.68775 0.0
C1050 C 0.916 0.274 0.73586 0.0
C1051 C 0.88304 0.26627 0.71632 0.0
H1052 H 0.8277 0.71923 0.71873 0.0
H1053 H 0.93544 0.82051 0.70292 0.0
H1054 H 0.95733 0.78585 0.66532 0.0
H1055 H 0.94545 0.72765 0.6349 0.0
H1056 H 0.83827 0.62586 0.65051 0.0
H1057 H 0.81668 0.65992 0.69008 0.0
C1058 C 0.85609 0.73357 0.70742 0.0
C1059 C 0.8797 0.77241 0.71337 0.0
C1060 C 0.86855 0.71353 0.68544 0.0
C1061 C 0.91644 0.79066 0.69843 0.0
C1062 C 0.92907 0.77091 0.67687 0.0
C1063 C 0.9173 0.71293 0.64679 0.0
C1064 C 0.89346 0.67441 0.63954 0.0
C1065 C 0.90518 0.73252 0.6697 0.0
C1066 C 0.85723 0.6556 0.65565 0.0
C1067 C 0.84484 0.67501 0.6783 0.0
H1068 H 0.93721 0.74234 0.20771 0.0
H1069 H 0.94544 0.79221 0.09723 0.0
H1070 H 0.87654 0.75775 0.09144 0.0
H1071 H 0.81452 0.71375 0.1182 0.0
H1072 H 0.80717 0.66534 0.22941 0.0
H1073 H 0.87578 0.70041 0.23517 0.0
C1074 C 0.92402 0.74507 0.18195 0.0
C1075 C 0.94624 0.76905 0.15252 0.0
C1076 C 0.88476 0.7265 0.17956 0.0
C1077 C 0.92876 0.77333 0.11991 0.0
C1078 C 0.88949 0.75406 0.11684 0.0
C1079 C 0.82789 0.71162 0.1441 0.0
C1080 C 0.80593 0.68724 0.17348 0.0
C1081 C 0.86727 0.73095 0.14674 0.0
C1082 C 0.8236 0.68413 0.20655 0.0
C1083 C 0.86274 0.70379 0.20966 0.0
H1084 H 0.37486 0.28514 0.20219 0.0
H1085 H 0.31485 0.22579 0.10071 0.0
H1086 H 0.34757 0.18984 0.10177 0.0
H1087 H 0.39074 0.17378 0.13283 0.0
H1088 H 0.45168 0.2333 0.23385 0.0
H1089 H 0.4195 0.26997 0.2326 0.0
C1090 C 0.36967 0.26507 0.17969 0.0
C1091 C 0.34282 0.25833 0.15112 0.0
C1092 C 0.38749 0.24366 0.1813 0.0
C1093 C 0.33571 0.23163 0.12272 0.0
C1094 C 0.35397 0.21077 0.12364 0.0
C1095 C 0.39641 0.19413 0.15518 0.0
C1096 C 0.42294 0.20035 0.18391 0.0
C1097 C 0.37915 0.21596 0.15331 0.0
C1098 C 0.43084 0.22766 0.21187 0.0
C1099 C 0.4129 0.24892 0.21082 0.0
H1100 H 0.90961 0.17344 0.16478 0.0
H1101 H 0.79568 0.1474 0.14074 0.0
H1102 H 0.81422 0.21348 0.14954 0.0
H1103 H 0.86097 0.27657 0.16986 0.0
H1104 H 0.9754 0.30407 0.19285 0.0
H1105 H 0.95812 0.23848 0.18024 0.0
C1106 C 0.88921 0.18254 0.16008 0.0
C1107 C 0.85141 0.1559 0.15198 0.0
C1108 C 0.89969 0.22011 0.16686 0.0
C1109 C 0.82499 0.1677 0.14668 0.0
C1110 C 0.83541 0.20521 0.15238 0.0
C1111 C 0.88193 0.26797 0.17301 0.0
C1112 C 0.91898 0.29438 0.18369 0.0
C1113 C 0.87224 0.23118 0.16398 0.0
C1114 C 0.94642 0.28361 0.18584 0.0
C1115 C 0.93669 0.24646 0.17802 0.0
H1116 H 0.78757 0.95544 0.33746 0.0
H1117 H 0.69504 0.95348 0.27578 0.0
H1118 H 0.65085 0.89428 0.30673 0.0
H1119 H 0.63891 0.84232 0.34959 0.0
H1120 H 0.732 0.84449 0.41044 0.0
H1121 H 0.77558 0.90464 0.3812 0.0
C1122 C 0.75773 0.94227 0.33083 0.0
C1123 C 0.74471 0.95883 0.30423 0.0
C1124 C 0.73259 0.90822 0.34837 0.0
C1125 C 0.70589 0.94132 0.29612 0.0
C1126 C 0.68058 0.90743 0.31373 0.0
C1127 C 0.66872 0.85589 0.3565 0.0
C1128 C 0.68212 0.83875 0.38201 0.0
C1129 C 0.69372 0.89047 0.33959 0.0
C1130 C 0.72084 0.85693 0.3908 0.0
C1131 C 0.74584 0.89136 0.37413 0.0
H1132 H 0.15262 0.91066 0.33456 0.0
H1133 H 0.15977 0.8295 0.26247 0.0
H1134 H 0.21441 0.83781 0.29802 0.0
H1135 H 0.26056 0.86828 0.34856 0.0
H1136 H 0.25529 0.95053 0.42037 0.0
H1137 H 0.19918 0.94117 0.38604 0.0
C1138 C 0.16618 0.89488 0.32651 0.0
C1139 C 0.15198 0.86953 0.29578 0.0
C1140 C 0.19776 0.89972 0.34714 0.0
C1141 C 0.16993 0.84923 0.28594 0.0
C1142 C 0.20121 0.85386 0.3063 0.0
C1143 C 0.24704 0.88399 0.35707 0.0
C1144 C 0.26216 0.91003 0.38707 0.0
C1145 C 0.21531 0.87897 0.33692 0.0
C1146 C 0.24429 0.93028 0.39737 0.0
C1147 C 0.21227 0.92504 0.37768 0.0
H1148 H 0.24207 0.47213 0.34656 0.0
H1149 H 0.15638 0.37869 0.41113 0.0
H1150 H 0.16712 0.33489 0.37429 0.0
H1151 H 0.19999 0.32317 0.32384 0.0
H1152 H 0.28572 0.41619 0.25891 0.0
H1153 H 0.27539 0.4603 0.296 0.0
C1154 C 0.22587 0.44222 0.35282 0.0
C1155 C 0.19846 0.42873 0.38158 0.0
C1156 C 0.23192 0.41717 0.33138 0.0
C1157 C 0.17761 0.38985 0.38911 0.0
C1158 C 0.18366 0.36477 0.36804 0.0
C1159 C 0.21641 0.35306 0.31755 0.0
C1160 C 0.24356 0.36632 0.28856 0.0
C1161 C 0.21055 0.37815 0.33901 0.0
C1162 C 0.26461 0.4052 0.28104 0.0
C1163 C 0.25879 0.43044 0.30227 0.0
H1164 H 0.04132 0.49914 0.05796 0.0
H1165 H 0.94278 0.51054 0.04542 0.0
H1166 H 0.97802 0.56576 0.00465 0.0
H1167 H 0.03711 0.61071 0.97282 0.0
H1168 H 0.1346 0.59723 0.98509 0.0
H1169 H 0.09915 0.54247 0.02547 0.0
C1170 C 0.02765 0.51394 0.04666 0.0
C1171 C 0.98977 0.50114 0.05481 0.0
C1172 C 0.0477 0.54497 0.0229 0.0
C1173 C 0.9721 0.52008 0.03946 0.0
C1174 C 0.99213 0.5515 0.01612 0.0
C1175 C 0.05039 0.5955 0.98403 0.0
C1176 C 0.08838 0.6081 0.97624 0.0
C1177 C 0.02993 0.56406 0.00749 0.0
C1178 C 0.10541 0.58829 0.99103 0.0
C1179 C 0.08525 0.55701 0.01416 0.0
H1180 H 0.48941 0.49965 0.95021 0.0
H1181 H 0.49211 0.60453 0.97093 0.0
H1182 H 0.54704 0.62527 0.01242 0.0
H1183 H 0.59483 0.61377 0.04204 0.0
H1184 H 0.59053 0.50791 0.02157 0.0
H1185 H 0.53551 0.48741 0.98104 0.0
C1186 C 0.50218 0.52715 0.96358 0.0
C1187 C 0.48695 0.55058 0.95737 0.0
C1188 C 0.53331 0.53867 0.98767 0.0
C1189 C 0.50338 0.58593 0.97535 0.0
C1190 C 0.53474 0.59781 0.99908 0.0
C1191 C 0.58164 0.58611 0.02899 0.0
C1192 C 0.597 0.56264 0.03463 0.0
C1193 C 0.54993 0.57437 0.00548 0.0
C1194 C 0.57957 0.52682 0.01745 0.0
C1195 C 0.54807 0.51497 0.9942 0.0
H1196 H 0.55698 0.12786 0.01183 0.0
H1197 H 0.46994 0.03469 0.07546 0.0
H1198 H 0.48487 0.9913 0.04305 0.0
H1199 H 0.52286 0.98019 0.99705 0.0
H1200 H 0.61001 0.07413 0.93421 0.0
H1201 H 0.59453 0.11695 0.96625 0.0
C1202 C 0.54106 0.09806 0.01867 0.0
C1203 C 0.51231 0.08458 0.04602 0.0
C1204 C 0.54982 0.07344 1.00017 0.0
C1205 C 0.49222 0.04585 0.05452 0.0
C1206 C 0.50073 0.02103 0.03602 0.0
C1207 C 0.53849 0.01002 0.99028 0.0
C1208 C 0.56759 0.02386 0.96325 0.0
C1209 C 0.52953 0.03458 0.00885 0.0
C1210 C 0.58754 0.06263 0.95493 0.0
C1211 C 0.5787 0.08719 0.9732 0.0
H1212 H 0.61071 0.14087 0.48544 0.0
H1213 H 0.63917 0.05341 0.47502 0.0
H1214 H 0.57243 0.00531 0.47786 0.0
H1215 H 0.50689 0.98824 0.48877 0.0
H1216 H 0.47816 0.07544 0.49982 0.0
H1217 H 0.54453 0.12379 0.49239 0.0
C1218 C 0.60221 0.11133 0.48249 0.0
C1219 C 0.6297 0.10062 0.47971 0.0
C1220 C 0.56401 0.08389 0.48577 0.0
C1221 C 0.61838 0.06224 0.47683 0.0
C1222 C 0.58034 0.03477 0.47903 0.0
C1223 C 0.51526 0.01785 0.49018 0.0
C1224 C 0.48794 0.02838 0.49578 0.0
C1225 C 0.55311 0.04529 0.48483 0.0
C1226 C 0.49891 0.06677 0.49621 0.0
C1227 C 0.53671 0.09434 0.49156 0.0
H1228 H 0.98046 0.54571 0.49276 0.0
H1229 H 0.07091 0.66105 0.50237 0.0
H1230 H 0.11644 0.63939 0.51014 0.0
H1231 H 0.12974 0.58741 0.5154 0.0
H1232 H 0.03817 0.47234 0.50782 0.0
H1233 H 0.99327 0.49435 0.49957 0.0
C1234 C 0.01026 0.56627 0.4956 0.0
C1235 C 0.0225 0.60498 0.49616 0.0
C1236 C 0.0357 0.55362 0.50178 0.0
C1237 C 0.06101 0.63113 0.50116 0.0
C1238 C 0.08687 0.61874 0.50614 0.0
C1239 C 0.09984 0.56715 0.51292 0.0
C1240 C 0.08715 0.5283 0.51257 0.0
C1241 C 0.07437 0.58001 0.50716 0.0
C1242 C 0.04847 0.50237 0.50846 0.0
C1243 C 0.02291 0.51492 0.50328 0.0
H1244 H 0.61145 0.62357 0.46697 0.0
H1245 H 0.5518 0.62429 0.56747 0.0
H1246 H 0.52012 0.55565 0.57065 0.0
H1247 H 0.50664 0.49657 0.54271 0.0
H1248 H 0.56559 0.49462 0.44215 0.0
H1249 H 0.59985 0.5637 0.44041 0.0
C1250 C 0.59223 0.60881 0.49015 0.0
C1251 C 0.58391 0.6288 0.51705 0.0
C1252 C 0.57324 0.56952 0.49096 0.0
C1253 C 0.55859 0.60935 0.54656 0.0
C1254 C 0.54023 0.57023 0.54811 0.0
C1255 C 0.52652 0.51103 0.51992 0.0
C1256 C 0.53307 0.49056 0.49207 0.0
C1257 C 0.5466 0.55018 0.51982 0.0
C1258 C 0.55971 0.50987 0.46351 0.0
C1259 C 0.57951 0.54921 0.46278 0.0
loop_
_geom_bond_atom_site_label_1
_geom_bond_atom_site_label_2
_geom_bond_distance
_geom_bond_site_symmetry_2
_ccdc_geom_bond_type
Sc0 O3 2.025 . S
Sc0 O10 2.105 . S
Sc0 O13 2.120 . S
Sc0 O16 2.105 . S
Sc0 O19 2.105 . S
Sc1 O3 2.025 . S
Sc1 O11 2.105 . S
Sc1 O15 2.105 . S
Sc1 O17 2.105 1_455 S
Sc1 O21 2.105 . S
Sc2 O3 2.025 . S
Sc2 O12 2.105 . S
Sc2 O14 2.105 . S
Sc2 O18 2.105 . S
Sc2 O20 2.105 . S
O3 Sc0 2.025 . S
O3 Sc1 2.025 . S
O3 Sc2 2.025 . S
C4 O10 1.268 . S
C4 O20 1.268 . S
C5 O11 1.268 . S
C5 O19 1.268 . S
C6 O12 1.268 . S
C6 O21 1.268 . S
C7 O13 1.265 1_655 S
C7 O17 1.268 . S
C8 O14 1.268 . S
C8 O16 1.268 . S
C9 O15 1.269 1_655 S
C9 O18 1.257 1_655 S
O10 Sc0 2.105 . S
O10 C4 1.268 . S
O11 Sc1 2.105 . S
O11 C5 1.268 . S
O12 Sc2 2.105 . S
O12 C6 1.268 . S
O13 Sc0 2.120 . S
O13 C7 1.265 1_455 S
O14 Sc2 2.105 . S
O14 C8 1.268 . S
O15 Sc1 2.105 . S
O15 C9 1.269 1_455 S
O16 Sc0 2.105 . S
O16 C8 1.268 . S
O17 Sc1 2.105 1_655 S
O17 C7 1.268 . S
O18 Sc2 2.105 . S
O18 C9 1.257 1_455 S
O19 Sc0 2.105 . S
O19 C5 1.268 . S
O20 Sc2 2.105 . S
O20 C4 1.268 . S
O21 Sc1 2.105 . S
O21 C6 1.268 . S
Sc22 O25 2.025 . S
Sc22 O32 2.105 . S
Sc22 O35 2.105 . S
Sc22 O38 2.105 . S
Sc22 O41 2.105 . S
Sc23 O25 2.025 . S
Sc23 O33 2.105 . S
Sc23 O37 2.105 . S
Sc23 O39 2.105 . S
Sc23 O43 2.105 . S
Sc24 O25 2.025 . S
Sc24 O34 2.105 . S
Sc24 O36 2.105 . S
Sc24 O40 2.105 . S
Sc24 O42 2.105 . S
O25 Sc22 2.025 . S
O25 Sc23 2.025 . S
O25 Sc24 2.025 . S
C26 O32 1.268 . S
C26 O42 1.268 . S
C27 O33 1.268 . S
C27 O41 1.268 . S
C28 O34 1.268 . S
C28 O43 1.268 . S
C29 O35 1.268 . S
C29 O39 1.268 . S
C30 O36 1.268 . S
C30 O38 1.268 . S
C31 O37 1.268 . S
C31 O40 1.268 . S
O32 Sc22 2.105 . S
O32 C26 1.268 . S
O33 Sc23 2.105 . S
O33 C27 1.268 . S
O34 Sc24 2.105 . S
O34 C28 1.268 . S
O35 Sc22 2.105 . S
O35 C29 1.268 . S
O36 Sc24 2.105 . S
O36 C30 1.268 . S
O37 Sc23 2.105 . S
O37 C31 1.268 . S
O38 Sc22 2.105 . S
O38 C30 1.268 . S
O39 Sc23 2.105 . S
O39 C29 1.268 . S
O40 Sc24 2.105 . S
O40 C31 1.268 . S
O41 Sc22 2.105 . S
O41 C27 1.268 . S
O42 Sc24 2.105 . S
O42 C26 1.268 . S
O43 Sc23 2.105 . S
O43 C28 1.268 . S
Sc44 O47 2.025 . S
Sc44 O54 2.105 . S
Sc44 O57 2.105 . S
Sc44 O60 2.105 . S
Sc44 O63 2.105 . S
Sc45 O47 2.025 . S
Sc45 O55 2.105 . S
Sc45 O59 2.105 . S
Sc45 O61 2.105 . S
Sc45 O65 2.105 . S
Sc46 O47 2.025 . S
Sc46 O56 2.105 . S
Sc46 O58 2.105 . S
Sc46 O62 2.105 . S
Sc46 O64 2.086 1_545 S
O47 Sc44 2.025 . S
O47 Sc45 2.025 . S
O47 Sc46 2.025 . S
C48 O54 1.268 1_565 S
C48 O64 1.282 . S
C49 O55 1.268 . S
C49 O63 1.268 . S
C50 O56 1.268 . S
C50 O65 1.268 . S
C51 O57 1.268 . S
C51 O61 1.268 . S
C52 O58 1.268 . S
C52 O60 1.268 . S
C53 O59 1.268 . S
C53 O62 1.268 . S
O54 Sc44 2.105 . S
O54 C48 1.268 1_545 S
O55 Sc45 2.105 . S
O55 C49 1.268 . S
O56 Sc46 2.105 . S
O56 C50 1.268 . S
O57 Sc44 2.105 . S
O57 C51 1.268 . S
O58 Sc46 2.105 . S
O58 C52 1.268 . S
O59 Sc45 2.105 . S
O59 C53 1.268 . S
O60 Sc44 2.105 . S
O60 C52 1.268 . S
O61 Sc45 2.105 . S
O61 C51 1.268 . S
O62 Sc46 2.105 . S
O62 C53 1.268 . S
O63 Sc44 2.105 . S
O63 C49 1.268 . S
O64 Sc46 2.086 1_565 S
O64 C48 1.282 . S
O65 Sc45 2.105 . S
O65 C50 1.268 . S
Sc66 O69 2.025 . S
Sc66 O76 2.105 . S
Sc66 O79 2.105 . S
Sc66 O82 2.120 . S
Sc66 O85 2.105 . S
Sc67 O69 2.025 . S
Sc67 O77 2.105 . S
Sc67 O81 2.105 . S
Sc67 O83 2.105 . S
Sc67 O87 2.105 . S
Sc68 O69 2.025 . S
Sc68 O78 2.105 . S
Sc68 O80 2.105 1_455 S
Sc68 O84 2.105 . S
Sc68 O86 2.105 . S
O69 Sc66 2.025 . S
O69 Sc67 2.025 . S
O69 Sc68 2.025 . S
C70 O76 1.268 . S
C70 O86 1.268 . S
C71 O77 1.268 . S
C71 O85 1.268 . S
C72 O78 1.268 . S
C72 O87 1.268 . S
C73 O79 1.268 . S
C73 O83 1.268 . S
C74 O80 1.268 . S
C74 O82 1.252 1_655 S
C75 O81 1.251 1_655 S
C75 O84 1.263 1_655 S
O76 Sc66 2.105 . S
O76 C70 1.268 . S
O77 Sc67 2.105 . S
O77 C71 1.268 . S
O78 Sc68 2.105 . S
O78 C72 1.268 . S
O79 Sc66 2.105 . S
O79 C73 1.268 . S
O80 Sc68 2.105 1_655 S
O80 C74 1.268 . S
O81 Sc67 2.105 . S
O81 C75 1.251 1_455 S
O82 Sc66 2.120 . S
O82 C74 1.252 1_455 S
O83 Sc67 2.105 . S
O83 C73 1.268 . S
O84 Sc68 2.105 . S
O84 C75 1.263 1_455 S
O85 Sc66 2.105 . S
O85 C71 1.268 . S
O86 Sc68 2.105 . S
O86 C70 1.268 . S
O87 Sc67 2.105 . S
O87 C72 1.268 . S
Sc88 O91 2.025 . S
Sc88 O98 2.105 . S
Sc88 O101 2.105 . S
Sc88 O104 2.105 . S
Sc88 O107 2.105 . S
Sc89 O91 2.025 . S
Sc89 O99 2.105 . S
Sc89 O103 2.105 . S
Sc89 O105 2.105 . S
Sc89 O109 2.105 . S
Sc90 O91 2.025 . S
Sc90 O100 2.105 . S
Sc90 O102 2.105 . S
Sc90 O106 2.105 . S
Sc90 O108 2.105 . S
O91 Sc88 2.025 . S
O91 Sc89 2.025 . S
O91 Sc90 2.025 . S
C92 O98 1.268 . S
C92 O108 1.268 . S
C93 O99 1.268 . S
C93 O107 1.268 . S
C94 O100 1.268 . S
C94 O109 1.268 . S
C95 O101 1.268 . S
C95 O105 1.268 . S
C96 O102 1.268 . S
C96 O104 1.268 . S
C97 O103 1.268 . S
C97 O106 1.268 . S
O98 Sc88 2.105 . S
O98 C92 1.268 . S
O99 Sc89 2.105 . S
O99 C93 1.268 . S
O100 Sc90 2.105 . S
O100 C94 1.268 . S
O101 Sc88 2.105 . S
O101 C95 1.268 . S
O102 Sc90 2.105 . S
O102 C96 1.268 . S
O103 Sc89 2.105 . S
O103 C97 1.268 . S
O104 Sc88 2.105 . S
O104 C96 1.268 . S
O105 Sc89 2.105 . S
O105 C95 1.268 . S
O106 Sc90 2.105 . S
O106 C97 1.268 . S
O107 Sc88 2.105 . S
O107 C93 1.268 . S
O108 Sc90 2.105 . S
O108 C92 1.268 . S
O109 Sc89 2.105 . S
O109 C94 1.268 . S
Sc110 O113 2.025 . S
Sc110 O120 2.097 1_545 S
Sc110 O123 2.105 . S
Sc110 O126 2.105 . S
Sc110 O129 2.105 . S
Sc111 O113 2.025 . S
Sc111 O121 2.105 . S
Sc111 O125 2.105 . S
Sc111 O127 2.105 . S
Sc111 O131 2.105 . S
Sc112 O113 2.025 . S
Sc112 O122 2.105 . S
Sc112 O124 2.105 . S
Sc112 O128 2.105 . S
Sc112 O130 2.105 . S
O113 Sc110 2.025 . S
O113 Sc111 2.025 . S
O113 Sc112 2.025 . S
C114 O120 1.265 . S
C114 O130 1.268 1_565 S
C115 O121 1.268 . S
C115 O129 1.268 . S
C116 O122 1.268 . S
C116 O131 1.268 . S
C117 O123 1.268 . S
C117 O127 1.268 . S
C118 O124 1.268 . S
C118 O126 1.268 . S
C119 O125 1.268 . S
C119 O128 1.268 . S
O120 Sc110 2.097 1_565 S
O120 C114 1.265 . S
O121 Sc111 2.105 . S
O121 C115 1.268 . S
O122 Sc112 2.105 . S
O122 C116 1.268 . S
O123 Sc110 2.105 . S
O123 C117 1.268 . S
O124 Sc112 2.105 . S
O124 C118 1.268 . S
O125 Sc111 2.105 . S
O125 C119 1.268 . S
O126 Sc110 2.105 . S
O126 C118 1.268 . S
O127 Sc111 2.105 . S
O127 C117 1.268 . S
O128 Sc112 2.105 . S
O128 C119 1.268 . S
O129 Sc110 2.105 . S
O129 C115 1.268 . S
O130 Sc112 2.105 . S
O130 C114 1.268 1_545 S
O131 Sc111 2.105 . S
O131 C116 1.268 . S
Sc132 O135 2.025 . S
Sc132 O142 2.105 . S
Sc132 O145 2.105 . S
Sc132 O148 2.105 . S
Sc132 O151 2.105 . S
Sc133 O135 2.025 . S
Sc133 O143 2.105 . S
Sc133 O147 2.105 . S
Sc133 O149 2.105 . S
Sc133 O153 2.105 . S
Sc134 O135 2.025 . S
Sc134 O144 2.105 . S
Sc134 O146 2.105 . S
Sc134 O150 2.105 . S
Sc134 O152 2.105 . S
O135 Sc132 2.025 . S
O135 Sc133 2.025 . S
O135 Sc134 2.025 . S
C136 O142 1.268 . S
C136 O152 1.268 . S
C137 O143 1.268 . S
C137 O151 1.268 . S
C138 O144 1.268 . S
C138 O153 1.268 . S
C139 O145 1.268 . S
C139 O149 1.268 . S
C140 O146 1.268 . S
C140 O148 1.268 . S
C141 O147 1.268 . S
C141 O150 1.268 . S
O142 Sc132 2.105 . S
O142 C136 1.268 . S
O143 Sc133 2.105 . S
O143 C137 1.268 . S
O144 Sc134 2.105 . S
O144 C138 1.268 . S
O145 Sc132 2.105 . S
O145 C139 1.268 . S
O146 Sc134 2.105 . S
O146 C140 1.268 . S
O147 Sc133 2.105 . S
O147 C141 1.268 . S
O148 Sc132 2.105 . S
O148 C140 1.268 . S
O149 Sc133 2.105 . S
O149 C139 1.268 . S
O150 Sc134 2.105 . S
O150 C141 1.268 . S
O151 Sc132 2.105 . S
O151 C137 1.268 . S
O152 Sc134 2.105 . S
O152 C136 1.268 . S
O153 Sc133 2.105 . S
O153 C138 1.268 . S
Sc154 O157 2.025 . S
Sc154 O164 2.105 . S
Sc154 O167 2.105 . S
Sc154 O170 2.105 . S
Sc154 O173 2.105 . S
Sc155 O157 2.025 . S
Sc155 O165 2.105 . S
Sc155 O169 2.105 . S
Sc155 O171 2.105 . S
Sc155 O175 2.105 . S
Sc156 O157 2.025 . S
Sc156 O166 2.105 . S
Sc156 O168 2.105 . S
Sc156 O172 2.105 . S
Sc156 O174 2.105 . S
O157 Sc154 2.025 . S
O157 Sc155 2.025 . S
O157 Sc156 2.025 . S
C158 O164 1.268 . S
C158 O174 1.268 . S
C159 O165 1.268 . S
C159 O173 1.268 . S
C160 O166 1.268 . S
C160 O175 1.268 . S
C161 O167 1.268 . S
C161 O171 1.268 . S
C162 O168 1.268 . S
C162 O170 1.268 . S
C163 O169 1.268 . S
C163 O172 1.268 . S
O164 Sc154 2.105 . S
O164 C158 1.268 . S
O165 Sc155 2.105 . S
O165 C159 1.268 . S
O166 Sc156 2.105 . S
O166 C160 1.268 . S
O167 Sc154 2.105 . S
O167 C161 1.268 . S
O168 Sc156 2.105 . S
O168 C162 1.268 . S
O169 Sc155 2.105 . S
O169 C163 1.268 . S
O170 Sc154 2.105 . S
O170 C162 1.268 . S
O171 Sc155 2.105 . S
O171 C161 1.268 . S
O172 Sc156 2.105 . S
O172 C163 1.268 . S
O173 Sc154 2.105 . S
O173 C159 1.268 . S
O174 Sc156 2.105 . S
O174 C158 1.268 . S
O175 Sc155 2.105 . S
O175 C160 1.268 . S
Sc176 O179 2.025 . S
Sc176 O186 2.105 . S
Sc176 O189 2.104 1_655 S
Sc176 O192 2.105 . S
Sc176 O195 2.105 . S
Sc177 O179 2.025 . S
Sc177 O187 2.105 . S
Sc177 O191 2.105 . S
Sc177 O193 2.105 . S
Sc177 O197 2.105 . S
Sc178 O179 2.025 . S
Sc178 O188 2.105 . S
Sc178 O190 2.105 . S
Sc178 O194 2.105 . S
Sc178 O196 2.105 . S
O179 Sc176 2.025 . S
O179 Sc177 2.025 . S
O179 Sc178 2.025 . S
C180 O186 1.268 . S
C180 O196 1.268 . S
C181 O187 1.268 . S
C181 O195 1.268 . S
C182 O188 1.268 . S
C182 O197 1.268 . S
C183 O189 1.255 1_655 S
C183 O193 1.268 . S
C184 O190 1.268 . S
C184 O192 1.268 . S
C185 O191 1.268 . S
C185 O194 1.268 . S
O186 Sc176 2.105 . S
O186 C180 1.268 . S
O187 Sc177 2.105 . S
O187 C181 1.268 . S
O188 Sc178 2.105 . S
O188 C182 1.268 . S
O189 Sc176 2.104 1_455 S
O189 C183 1.255 1_455 S
O190 Sc178 2.105 . S
O190 C184 1.268 . S
O191 Sc177 2.105 . S
O191 C185 1.268 . S
O192 Sc176 2.105 . S
O192 C184 1.268 . S
O193 Sc177 2.105 . S
O193 C183 1.268 . S
O194 Sc178 2.105 . S
O194 C185 1.268 . S
O195 Sc176 2.105 . S
O195 C181 1.268 . S
O196 Sc178 2.105 . S
O196 C180 1.268 . S
O197 Sc177 2.105 . S
O197 C182 1.268 . S
Sc198 O201 2.025 . S
Sc198 O208 2.105 . S
Sc198 O211 2.105 . S
Sc198 O214 2.105 . S
Sc198 O217 2.105 . S
Sc199 O201 2.025 . S
Sc199 O209 2.105 . S
Sc199 O213 2.105 . S
Sc199 O215 2.105 . S
Sc199 O219 2.105 . S
Sc200 O201 2.025 . S
Sc200 O210 2.105 . S
Sc200 O212 2.105 . S
Sc200 O216 2.105 . S
Sc200 O218 2.105 . S
O201 Sc198 2.025 . S
O201 Sc199 2.025 . S
O201 Sc200 2.025 . S
C202 O208 1.268 . S
C202 O218 1.268 . S
C203 O209 1.268 . S
C203 O217 1.268 . S
C204 O210 1.268 . S
C204 O219 1.268 . S
C205 O211 1.268 . S
C205 O215 1.268 . S
C206 O212 1.268 . S
C206 O214 1.268 . S
C207 O213 1.268 . S
C207 O216 1.268 . S
O208 Sc198 2.105 . S
O208 C202 1.268 . S
O209 Sc199 2.105 . S
O209 C203 1.268 . S
O210 Sc200 2.105 . S
O210 C204 1.268 . S
O211 Sc198 2.105 . S
O211 C205 1.268 . S
O212 Sc200 2.105 . S
O212 C206 1.268 . S
O213 Sc199 2.105 . S
O213 C207 1.268 . S
O214 Sc198 2.105 . S
O214 C206 1.268 . S
O215 Sc199 2.105 . S
O215 C205 1.268 . S
O216 Sc200 2.105 . S
O216 C207 1.268 . S
O217 Sc198 2.105 . S
O217 C203 1.268 . S
O218 Sc200 2.105 . S
O218 C202 1.268 . S
O219 Sc199 2.105 . S
O219 C204 1.268 . S
Sc220 O223 2.025 . S
Sc220 O230 2.105 . S
Sc220 O233 2.105 . S
Sc220 O236 2.105 . S
Sc220 O239 2.105 . S
Sc221 O223 2.025 . S
Sc221 O231 2.105 . S
Sc221 O235 2.105 . S
Sc221 O237 2.105 . S
Sc221 O241 2.105 . S
Sc222 O223 2.025 . S
Sc222 O232 2.105 . S
Sc222 O234 2.105 . S
Sc222 O238 2.088 1_655 S
Sc222 O240 2.105 . S
O223 Sc220 2.025 . S
O223 Sc221 2.025 . S
O223 Sc222 2.025 . S
C224 O230 1.268 . S
C224 O240 1.268 . S
C225 O231 1.268 . S
C225 O239 1.268 . S
C226 O232 1.268 . S
C226 O241 1.268 . S
C227 O233 1.268 . S
C227 O237 1.268 . S
C228 O234 1.268 . S
C228 O236 1.268 . S
C229 O235 1.268 . S
C229 O238 1.272 1_655 S
O230 Sc220 2.105 . S
O230 C224 1.268 . S
O231 Sc221 2.105 . S
O231 C225 1.268 . S
O232 Sc222 2.105 . S
O232 C226 1.268 . S
O233 Sc220 2.105 . S
O233 C227 1.268 . S
O234 Sc222 2.105 . S
O234 C228 1.268 . S
O235 Sc221 2.105 . S
O235 C229 1.268 . S
O236 Sc220 2.105 . S
O236 C228 1.268 . S
O237 Sc221 2.105 . S
O237 C227 1.268 . S
O238 Sc222 2.088 1_455 S
O238 C229 1.272 1_455 S
O239 Sc220 2.105 . S
O239 C225 1.268 . S
O240 Sc222 2.105 . S
O240 C224 1.268 . S
O241 Sc221 2.105 . S
O241 C226 1.268 . S
Sc242 O245 2.025 . S
Sc242 O252 2.105 . S
Sc242 O255 2.105 . S
Sc242 O258 2.105 . S
Sc242 O261 2.105 . S
Sc243 O245 2.025 . S
Sc243 O253 2.105 . S
Sc243 O257 2.105 . S
Sc243 O259 2.105 . S
Sc243 O263 2.105 . S
Sc244 O245 2.025 . S
Sc244 O254 2.105 . S
Sc244 O256 2.105 . S
Sc244 O260 2.105 . S
Sc244 O262 2.105 . S
O245 Sc242 2.025 . S
O245 Sc243 2.025 . S
O245 Sc244 2.025 . S
C246 O252 1.268 . S
C246 O262 1.268 . S
C247 O253 1.268 . S
C247 O261 1.268 . S
C248 O254 1.268 . S
C248 O263 1.268 . S
C249 O255 1.268 . S
C249 O259 1.268 . S
C250 O256 1.268 . S
C250 O258 1.268 . S
C251 O257 1.268 . S
C251 O260 1.268 . S
O252 Sc242 2.105 . S
O252 C246 1.268 . S
O253 Sc243 2.105 . S
O253 C247 1.268 . S
O254 Sc244 2.105 . S
O254 C248 1.268 . S
O255 Sc242 2.105 . S
O255 C249 1.268 . S
O256 Sc244 2.105 . S
O256 C250 1.268 . S
O257 Sc243 2.105 . S
O257 C251 1.268 . S
O258 Sc242 2.105 . S
O258 C250 1.268 . S
O259 Sc243 2.105 . S
O259 C249 1.268 . S
O260 Sc244 2.105 . S
O260 C251 1.268 . S
O261 Sc242 2.105 . S
O261 C247 1.268 . S
O262 Sc244 2.105 . S
O262 C246 1.268 . S
O263 Sc243 2.105 . S
O263 C248 1.268 . S
Sc264 O267 2.025 . S
Sc264 O274 2.105 1_565 S
Sc264 O277 2.105 . S
Sc264 O280 2.105 . S
Sc264 O283 2.105 . S
Sc265 O267 2.025 . S
Sc265 O275 2.105 . S
Sc265 O279 2.105 . S
Sc265 O281 2.105 . S
Sc265 O285 2.105 . S
Sc266 O267 2.025 . S
Sc266 O276 2.105 . S
Sc266 O278 2.105 . S
Sc266 O282 2.105 . S
Sc266 O284 2.105 . S
O267 Sc264 2.025 . S
O267 Sc265 2.025 . S
O267 Sc266 2.025 . S
C268 O274 1.268 1_565 S
C268 O284 1.268 . S
C269 O275 1.268 . S
C269 O283 1.268 . S
C270 O276 1.268 . S
C270 O285 1.268 . S
C271 O277 1.268 . S
C271 O281 1.268 . S
C272 O278 1.268 . S
C272 O280 1.268 . S
C273 O279 1.268 . S
C273 O282 1.268 . S
O274 Sc264 2.105 1_545 S
O274 C268 1.268 1_545 S
O275 Sc265 2.105 . S
O275 C269 1.268 . S
O276 Sc266 2.105 . S
O276 C270 1.268 . S
O277 Sc264 2.105 . S
O277 C271 1.268 . S
O278 Sc266 2.105 . S
O278 C272 1.268 . S
O279 Sc265 2.105 . S
O279 C273 1.268 . S
O280 Sc264 2.105 . S
O280 C272 1.268 . S
O281 Sc265 2.105 . S
O281 C271 1.268 . S
O282 Sc266 2.105 . S
O282 C273 1.268 . S
O283 Sc264 2.105 . S
O283 C269 1.268 . S
O284 Sc266 2.105 . S
O284 C268 1.268 . S
O285 Sc265 2.105 . S
O285 C270 1.268 . S
Sc286 O289 2.025 . S
Sc286 O296 2.105 . S
Sc286 O299 2.105 . S
Sc286 O302 2.105 . S
Sc286 O305 2.105 . S
Sc287 O289 2.025 . S
Sc287 O297 2.105 . S
Sc287 O301 2.105 . S
Sc287 O303 2.105 . S
Sc287 O307 2.105 . S
Sc288 O289 2.025 . S
Sc288 O298 2.105 . S
Sc288 O300 2.105 . S
Sc288 O304 2.105 . S
Sc288 O306 2.105 . S
O289 Sc286 2.025 . S
O289 Sc287 2.025 . S
O289 Sc288 2.025 . S
C290 O296 1.268 . S
C290 O306 1.268 . S
C291 O297 1.268 . S
C291 O305 1.268 . S
C292 O298 1.268 . S
C292 O307 1.268 . S
C293 O299 1.268 . S
C293 O303 1.268 . S
C294 O300 1.268 . S
C294 O302 1.268 . S
C295 O301 1.268 . S
C295 O304 1.268 . S
O296 Sc286 2.105 . S
O296 C290 1.268 . S
O297 Sc287 2.105 . S
O297 C291 1.268 . S
O298 Sc288 2.105 . S
O298 C292 1.268 . S
O299 Sc286 2.105 . S
O299 C293 1.268 . S
O300 Sc288 2.105 . S
O300 C294 1.268 . S
O301 Sc287 2.105 . S
O301 C295 1.268 . S
O302 Sc286 2.105 . S
O302 C294 1.268 . S
O303 Sc287 2.105 . S
O303 C293 1.268 . S
O304 Sc288 2.105 . S
O304 C295 1.268 . S
O305 Sc286 2.105 . S
O305 C291 1.268 . S
O306 Sc288 2.105 . S
O306 C290 1.268 . S
O307 Sc287 2.105 . S
O307 C292 1.268 . S
Sc308 O311 2.025 . S
Sc308 O318 2.105 . S
Sc308 O321 2.105 . S
Sc308 O324 2.105 . S
Sc308 O327 2.105 . S
Sc309 O311 2.025 . S
Sc309 O319 2.105 . S
Sc309 O323 2.105 . S
Sc309 O325 2.105 . S
Sc309 O329 2.105 . S
Sc310 O311 2.025 . S
Sc310 O320 2.105 . S
Sc310 O322 2.105 . S
Sc310 O326 2.105 . S
Sc310 O328 2.105 . S
O311 Sc308 2.025 . S
O311 Sc309 2.025 . S
O311 Sc310 2.025 . S
C312 O318 1.268 . S
C312 O328 1.268 . S
C313 O319 1.268 . S
C313 O327 1.268 . S
C314 O320 1.268 . S
C314 O329 1.268 . S
C315 O321 1.268 . S
C315 O325 1.268 . S
C316 O322 1.268 . S
C316 O324 1.268 . S
C317 O323 1.268 . S
C317 O326 1.268 . S
O318 Sc308 2.105 . S
O318 C312 1.268 . S
O319 Sc309 2.105 . S
O319 C313 1.268 . S
O320 Sc310 2.105 . S
O320 C314 1.268 . S
O321 Sc308 2.105 . S
O321 C315 1.268 . S
O322 Sc310 2.105 . S
O322 C316 1.268 . S
O323 Sc309 2.105 . S
O323 C317 1.268 . S
O324 Sc308 2.105 . S
O324 C316 1.268 . S
O325 Sc309 2.105 . S
O325 C315 1.268 . S
O326 Sc310 2.105 . S
O326 C317 1.268 . S
O327 Sc308 2.105 . S
O327 C313 1.268 . S
O328 Sc310 2.105 . S
O328 C312 1.268 . S
O329 Sc309 2.105 . S
O329 C314 1.268 . S
Sc330 O333 2.025 . S
Sc330 O340 2.105 . S
Sc330 O343 2.105 . S
Sc330 O346 2.105 . S
Sc330 O349 2.105 . S
Sc331 O333 2.025 . S
Sc331 O341 2.105 . S
Sc331 O345 2.105 . S
Sc331 O347 2.115 . S
Sc331 O351 2.105 . S
Sc332 O333 2.025 . S
Sc332 O342 2.105 . S
Sc332 O344 2.105 . S
Sc332 O348 2.105 . S
Sc332 O350 2.105 . S
O333 Sc330 2.025 . S
O333 Sc331 2.025 . S
O333 Sc332 2.025 . S
C334 O340 1.268 . S
C334 O350 1.268 . S
C335 O341 1.268 . S
C335 O349 1.268 . S
C336 O342 1.268 . S
C336 O351 1.268 . S
C337 O343 1.268 . S
C337 O347 1.270 . S
C338 O344 1.268 . S
C338 O346 1.268 . S
C339 O345 1.268 . S
C339 O348 1.268 . S
O340 Sc330 2.105 . S
O340 C334 1.268 . S
O341 Sc331 2.105 . S
O341 C335 1.268 . S
O342 Sc332 2.105 . S
O342 C336 1.268 . S
O343 Sc330 2.105 . S
O343 C337 1.268 . S
O344 Sc332 2.105 . S
O344 C338 1.268 . S
O345 Sc331 2.105 . S
O345 C339 1.268 . S
O346 Sc330 2.105 . S
O346 C338 1.268 . S
O347 Sc331 2.115 . S
O347 C337 1.270 . S
O348 Sc332 2.105 . S
O348 C339 1.268 . S
O349 Sc330 2.105 . S
O349 C335 1.268 . S
O350 Sc332 2.105 . S
O350 C334 1.268 . S
O351 Sc331 2.105 . S
O351 C336 1.268 . S
Sc352 O355 2.025 . S
Sc352 O362 2.105 . S
Sc352 O365 2.105 . S
Sc352 O368 2.115 . S
Sc352 O371 2.105 . S
Sc353 O355 2.025 . S
Sc353 O363 2.105 . S
Sc353 O367 2.105 . S
Sc353 O369 2.105 . S
Sc353 O373 2.105 . S
Sc354 O355 2.025 . S
Sc354 O364 2.105 . S
Sc354 O366 2.105 . S
Sc354 O370 2.105 . S
Sc354 O372 2.105 1_565 S
O355 Sc352 2.025 . S
O355 Sc353 2.025 . S
O355 Sc354 2.025 . S
C356 O362 1.268 . S
C356 O372 1.268 1_565 S
C357 O363 1.268 . S
C357 O371 1.268 . S
C358 O364 1.268 . S
C358 O373 1.268 . S
C359 O365 1.268 . S
C359 O369 1.268 . S
C360 O366 1.268 . S
C360 O368 1.270 . S
C361 O367 1.268 . S
C361 O370 1.268 . S
O362 Sc352 2.105 . S
O362 C356 1.268 . S
O363 Sc353 2.105 . S
O363 C357 1.268 . S
O364 Sc354 2.105 . S
O364 C358 1.268 . S
O365 Sc352 2.105 . S
O365 C359 1.268 . S
O366 Sc354 2.105 . S
O366 C360 1.268 . S
O367 Sc353 2.105 . S
O367 C361 1.268 . S
O368 Sc352 2.115 . S
O368 C360 1.270 . S
O369 Sc353 2.105 . S
O369 C359 1.268 . S
O370 Sc354 2.105 . S
O370 C361 1.268 . S
O371 Sc352 2.105 . S
O371 C357 1.268 . S
O372 Sc354 2.105 1_545 S
O372 C356 1.268 1_545 S
O373 Sc353 2.105 . S
O373 C358 1.268 . S
Sc374 O377 2.025 . S
Sc374 O384 2.105 . S
Sc374 O387 2.105 . S
Sc374 O390 2.115 . S
Sc374 O393 2.105 . S
Sc375 O377 2.025 . S
Sc375 O385 2.105 . S
Sc375 O389 2.105 . S
Sc375 O391 2.105 . S
Sc375 O395 2.105 . S
Sc376 O377 2.025 . S
Sc376 O386 2.105 . S
Sc376 O388 2.105 . S
Sc376 O392 2.105 . S
Sc376 O394 2.105 . S
O377 Sc374 2.025 . S
O377 Sc375 2.025 . S
O377 Sc376 2.025 . S
C378 O384 1.268 . S
C378 O394 1.268 . S
C379 O385 1.268 . S
C379 O393 1.268 . S
C380 O386 1.268 . S
C380 O395 1.268 . S
C381 O387 1.268 . S
C381 O391 1.268 . S
C382 O388 1.268 . S
C382 O390 1.270 . S
C383 O389 1.268 . S
C383 O392 1.268 . S
O384 Sc374 2.105 . S
O384 C378 1.268 . S
O385 Sc375 2.105 . S
O385 C379 1.268 . S
O386 Sc376 2.105 . S
O386 C380 1.268 . S
O387 Sc374 2.105 . S
O387 C381 1.268 . S
O388 Sc376 2.105 . S
O388 C382 1.268 . S
O389 Sc375 2.105 . S
O389 C383 1.268 . S
O390 Sc374 2.115 . S
O390 C382 1.270 . S
O391 Sc375 2.105 . S
O391 C381 1.268 . S
O392 Sc376 2.105 . S
O392 C383 1.268 . S
O393 Sc374 2.105 . S
O393 C379 1.268 . S
O394 Sc376 2.105 . S
O394 C378 1.268 . S
O395 Sc375 2.105 . S
O395 C380 1.268 . S
H396 C402 0.930 . S
H397 C405 0.930 . S
H398 C406 0.930 . S
H399 C407 0.930 . S
H400 C410 0.930 . S
H401 C411 0.930 . S
C402 H396 0.930 . S
C402 C403 1.355 . S
C402 C404 1.415 . S
C403 C402 1.355 . S
C403 C405 1.419 . S
C404 C402 1.415 . S
C404 C409 1.425 . S
C404 C411 1.409 . S
C405 H397 0.930 . S
C405 C403 1.419 . S
C405 C406 1.362 . S
C406 H398 0.930 . S
C406 C405 1.362 . S
C406 C409 1.409 . S
C407 H399 0.930 . S
C407 C408 1.355 . S
C407 C409 1.415 . S
C408 C407 1.355 . S
C408 C410 1.419 . S
C409 C404 1.425 . S
C409 C406 1.409 . S
C409 C407 1.415 . S
C410 H400 0.930 . S
C410 C408 1.419 . S
C410 C411 1.362 . S
C411 H401 0.930 . S
C411 C404 1.409 . S
C411 C410 1.362 . S
H412 C418 0.930 1_455 S
H413 C421 0.930 . S
H414 C422 0.930 . S
H415 C423 0.930 . S
H416 C426 0.930 1_565 S
H417 C427 0.930 . S
C418 H412 0.930 1_655 S
C418 C419 1.355 . S
C418 C420 1.415 . S
C419 C418 1.355 . S
C419 C421 1.419 . S
C420 C418 1.415 . S
C420 C425 1.425 . S
C420 C427 1.409 . S
C421 H413 0.930 . S
C421 C419 1.419 . S
C421 C422 1.362 . S
C422 H414 0.930 . S
C422 C421 1.362 . S
C422 C425 1.409 . S
C423 H415 0.930 . S
C423 C424 1.355 1_545 S
C423 C425 1.415 . S
C424 C423 1.355 1_565 S
C424 C426 1.419 1_565 S
C425 C420 1.425 . S
C425 C422 1.409 . S
C425 C423 1.415 . S
C426 H416 0.930 1_545 S
C426 C424 1.419 1_545 S
C426 C427 1.362 . S
C427 H417 0.930 . S
C427 C420 1.409 . S
C427 C426 1.362 . S
H428 C434 0.930 . S
H429 C437 0.930 . S
H430 C438 0.922 1_545 S
H431 C439 0.930 1_545 S
H432 C442 0.930 . S
H433 C443 0.930 . S
C434 H428 0.930 . S
C434 C435 1.355 1_455 S
C434 C436 1.415 . S
C435 C434 1.355 1_655 S
C435 C437 1.419 . S
C436 C434 1.415 . S
C436 C441 1.425 . S
C436 C443 1.409 . S
C437 H429 0.930 . S
C437 C435 1.419 . S
C437 C438 1.362 1_655 S
C438 H430 0.922 1_565 S
C438 C437 1.362 1_455 S
C438 C441 1.409 . S
C439 H431 0.930 1_565 S
C439 C440 1.355 . S
C439 C441 1.415 . S
C440 C439 1.355 . S
C440 C442 1.419 . S
C441 C436 1.425 . S
C441 C438 1.409 . S
C441 C439 1.415 . S
C442 H432 0.930 . S
C442 C440 1.419 . S
C442 C443 1.362 . S
C443 H433 0.930 . S
C443 C436 1.409 . S
C443 C442 1.362 . S
H444 C450 0.930 . S
H445 C453 0.930 1_455 S
H446 C454 0.930 . S
H447 C455 0.930 . S
H448 C458 0.930 . S
H449 C459 0.930 . S
C450 H444 0.930 . S
C450 C451 1.355 . S
C450 C452 1.415 . S
C451 C450 1.355 . S
C451 C453 1.419 . S
C452 C450 1.415 . S
C452 C457 1.425 . S
C452 C459 1.409 . S
C453 H445 0.930 1_655 S
C453 C451 1.419 . S
C453 C454 1.362 . S
C454 H446 0.930 . S
C454 C453 1.362 . S
C454 C457 1.409 . S
C455 H447 0.930 . S
C455 C456 1.355 . S
C455 C457 1.415 . S
C456 C455 1.355 . S
C456 C458 1.419 . S
C457 C452 1.425 . S
C457 C454 1.409 . S
C457 C455 1.415 . S
C458 H448 0.930 . S
C458 C456 1.419 . S
C458 C459 1.362 . S
C459 H449 0.930 . S
C459 C452 1.409 . S
C459 C458 1.362 . S
H460 C466 0.930 1_565 S
H461 C469 0.930 . S
H462 C470 0.930 . S
H463 C471 0.930 . S
H464 C474 0.930 . S
H465 C475 0.930 . S
C466 H460 0.930 1_545 S
C466 C467 1.355 1_545 S
C466 C468 1.415 . S
C467 C466 1.355 1_565 S
C467 C469 1.419 1_565 S
C468 C466 1.415 . S
C468 C473 1.425 . S
C468 C475 1.409 . S
C469 H461 0.930 . S
C469 C467 1.419 1_545 S
C469 C470 1.362 . S
C470 H462 0.930 . S
C470 C469 1.362 . S
C470 C473 1.409 . S
C471 H463 0.930 . S
C471 C472 1.355 . S
C471 C473 1.415 . S
C472 C471 1.355 . S
C472 C474 1.419 . S
C473 C468 1.425 . S
C473 C470 1.409 . S
C473 C471 1.415 . S
C474 H464 0.930 . S
C474 C472 1.419 . S
C474 C475 1.362 . S
C475 H465 0.930 . S
C475 C468 1.409 . S
C475 C474 1.362 . S
H476 C482 0.930 . S
H477 C485 0.930 . S
H478 C486 0.930 . S
H479 C487 0.930 1_655 S
H480 C490 0.930 1_655 S
H481 C491 0.930 . S
C482 H476 0.930 . S
C482 C483 1.355 . S
C482 C484 1.415 . S
C483 C482 1.355 . S
C483 C485 1.419 . S
C484 C482 1.415 . S
C484 C489 1.425 . S
C484 C491 1.409 . S
C485 H477 0.930 . S
C485 C483 1.419 . S
C485 C486 1.362 . S
C486 H478 0.930 . S
C486 C485 1.362 . S
C486 C489 1.409 . S
C487 H479 0.930 1_455 S
C487 C488 1.355 1_455 S
C487 C489 1.415 . S
C488 C487 1.355 1_655 S
C488 C490 1.419 1_655 S
C489 C484 1.425 . S
C489 C486 1.409 . S
C489 C487 1.415 . S
C490 H480 0.930 1_455 S
C490 C488 1.419 1_455 S
C490 C491 1.362 . S
C491 H481 0.930 . S
C491 C484 1.409 . S
C491 C490 1.362 . S
H492 C498 0.930 . S
H493 C501 0.930 . S
H494 C502 0.930 . S
H495 C503 0.930 . S
H496 C506 0.930 . S
H497 C507 0.930 . S
C498 H492 0.930 . S
C498 C499 1.355 . S
C498 C500 1.415 . S
C499 C498 1.355 . S
C499 C501 1.419 . S
C500 C498 1.415 . S
C500 C505 1.425 . S
C500 C507 1.409 . S
C501 H493 0.930 . S
C501 C499 1.419 . S
C501 C502 1.362 . S
C502 H494 0.930 . S
C502 C501 1.362 . S
C502 C505 1.409 . S
C503 H495 0.930 . S
C503 C504 1.355 . S
C503 C505 1.415 . S
C504 C503 1.355 . S
C504 C506 1.419 . S
C505 C500 1.425 . S
C505 C502 1.409 . S
C505 C503 1.415 . S
C506 H496 0.930 . S
C506 C504 1.419 . S
C506 C507 1.362 . S
C507 H497 0.930 . S
C507 C500 1.409 . S
C507 C506 1.362 . S
H508 C514 0.930 . S
H509 C517 0.930 . S
H510 C518 0.930 . S
H511 C519 0.930 . S
H512 C522 0.930 . S
H513 C523 0.930 . S
C514 H508 0.930 . S
C514 C515 1.355 . S
C514 C516 1.415 . S
C515 C514 1.355 . S
C515 C517 1.419 . S
C516 C514 1.415 . S
C516 C521 1.425 . S
C516 C523 1.409 . S
C517 H509 0.930 . S
C517 C515 1.419 . S
C517 C518 1.362 . S
C518 H510 0.930 . S
C518 C517 1.362 . S
C518 C521 1.409 . S
C519 H511 0.930 . S
C519 C520 1.355 . S
C519 C521 1.415 . S
C520 C519 1.355 . S
C520 C522 1.419 . S
C521 C516 1.425 . S
C521 C518 1.409 . S
C521 C519 1.415 . S
C522 H512 0.930 . S
C522 C520 1.419 . S
C522 C523 1.362 . S
C523 H513 0.930 . S
C523 C516 1.409 . S
C523 C522 1.362 . S
H524 C530 0.930 . S
H525 C533 0.930 . S
H526 C534 0.930 . S
H527 C535 0.930 . S
H528 C538 0.930 . S
H529 C539 0.930 . S
C530 H524 0.930 . S
C530 C531 1.355 . S
C530 C532 1.415 . S
C531 C530 1.355 . S
C531 C533 1.419 . S
C532 C530 1.415 . S
C532 C537 1.425 . S
C532 C539 1.409 . S
C533 H525 0.930 . S
C533 C531 1.419 . S
C533 C534 1.362 . S
C534 H526 0.930 . S
C534 C533 1.362 . S
C534 C537 1.409 . S
C535 H527 0.930 . S
C535 C536 1.355 . S
C535 C537 1.415 . S
C536 C535 1.355 . S
C536 C538 1.419 . S
C537 C532 1.425 . S
C537 C534 1.409 . S
C537 C535 1.415 . S
C538 H528 0.930 . S
C538 C536 1.419 . S
C538 C539 1.362 . S
C539 H529 0.930 . S
C539 C532 1.409 . S
C539 C538 1.362 . S
H540 C546 0.930 . S
H541 C549 0.930 . S
H542 C550 0.930 . S
H543 C551 0.930 . S
H544 C554 0.930 . S
H545 C555 0.930 . S
C546 H540 0.930 . S
C546 C547 1.355 . S
C546 C548 1.415 . S
C547 C546 1.355 . S
C547 C549 1.419 . S
C548 C546 1.415 . S
C548 C553 1.425 . S
C548 C555 1.409 . S
C549 H541 0.930 . S
C549 C547 1.419 . S
C549 C550 1.362 . S
C550 H542 0.930 . S
C550 C549 1.362 . S
C550 C553 1.409 . S
C551 H543 0.930 . S
C551 C552 1.355 . S
C551 C553 1.415 . S
C552 C551 1.355 . S
C552 C554 1.419 . S
C553 C548 1.425 . S
C553 C550 1.409 . S
C553 C551 1.415 . S
C554 H544 0.930 . S
C554 C552 1.419 . S
C554 C555 1.362 . S
C555 H545 0.930 . S
C555 C548 1.409 . S
C555 C554 1.362 . S
H556 C562 0.930 . S
H557 C565 0.930 . S
H558 C566 0.930 . S
H559 C567 0.930 . S
H560 C570 0.930 . S
H561 C571 0.930 . S
C562 H556 0.930 . S
C562 C563 1.355 . S
C562 C564 1.415 . S
C563 C562 1.355 . S
C563 C565 1.419 . S
C564 C562 1.415 . S
C564 C569 1.425 . S
C564 C571 1.409 . S
C565 H557 0.930 . S
C565 C563 1.419 . S
C565 C566 1.362 . S
C566 H558 0.930 . S
C566 C565 1.362 . S
C566 C569 1.409 . S
C567 H559 0.930 . S
C567 C568 1.355 . S
C567 C569 1.415 . S
C568 C567 1.355 . S
C568 C570 1.419 . S
C569 C564 1.425 . S
C569 C566 1.409 . S
C569 C567 1.415 . S
C570 H560 0.930 . S
C570 C568 1.419 . S
C570 C571 1.362 . S
C571 H561 0.930 . S
C571 C564 1.409 . S
C571 C570 1.362 . S
H572 C578 0.930 . S
H573 C581 0.930 . S
H574 C582 0.930 . S
H575 C583 0.930 . S
H576 C586 0.930 . S
H577 C587 0.930 . S
C578 H572 0.930 . S
C578 C579 1.355 . S
C578 C580 1.415 . S
C579 C578 1.355 . S
C579 C581 1.419 . S
C580 C578 1.415 . S
C580 C585 1.425 . S
C580 C587 1.409 . S
C581 H573 0.930 . S
C581 C579 1.419 . S
C581 C582 1.362 . S
C582 H574 0.930 . S
C582 C581 1.362 . S
C582 C585 1.409 . S
C583 H575 0.930 . S
C583 C584 1.355 . S
C583 C585 1.415 . S
C584 C583 1.355 . S
C584 C586 1.419 . S
C585 C580 1.425 . S
C585 C582 1.409 . S
C585 C583 1.415 . S
C586 H576 0.930 . S
C586 C584 1.419 . S
C586 C587 1.362 . S
C587 H577 0.930 . S
C587 C580 1.409 . S
C587 C586 1.362 . S
H588 C594 0.930 . S
H589 C597 0.930 . S
H590 C598 0.930 . S
H591 C599 0.930 . S
H592 C602 0.930 . S
H593 C603 0.930 . S
C594 H588 0.930 . S
C594 C595 1.355 . S
C594 C596 1.415 . S
C595 C594 1.355 . S
C595 C597 1.419 . S
C596 C594 1.415 . S
C596 C601 1.425 . S
C596 C603 1.409 . S
C597 H589 0.930 . S
C597 C595 1.419 . S
C597 C598 1.362 . S
C598 H590 0.930 . S
C598 C597 1.362 . S
C598 C601 1.409 . S
C599 H591 0.930 . S
C599 C600 1.355 . S
C599 C601 1.415 . S
C600 C599 1.355 . S
C600 C602 1.419 . S
C601 C596 1.425 . S
C601 C598 1.409 . S
C601 C599 1.415 . S
C602 H592 0.930 . S
C602 C600 1.419 . S
C602 C603 1.362 . S
C603 H593 0.930 . S
C603 C596 1.409 . S
C603 C602 1.362 . S
H604 C610 0.930 . S
H605 C613 0.930 . S
H606 C614 0.930 . S
H607 C615 0.930 . S
H608 C618 0.930 . S
H609 C619 0.930 . S
C610 H604 0.930 . S
C610 C611 1.355 . S
C610 C612 1.415 . S
C611 C610 1.355 . S
C611 C613 1.419 . S
C612 C610 1.415 . S
C612 C617 1.425 . S
C612 C619 1.409 . S
C613 H605 0.930 . S
C613 C611 1.419 . S
C613 C614 1.362 . S
C614 H606 0.930 . S
C614 C613 1.362 . S
C614 C617 1.409 . S
C615 H607 0.930 . S
C615 C616 1.355 . S
C615 C617 1.415 . S
C616 C615 1.355 . S
C616 C618 1.419 . S
C617 C612 1.425 . S
C617 C614 1.409 . S
C617 C615 1.415 . S
C618 H608 0.930 . S
C618 C616 1.419 . S
C618 C619 1.362 . S
C619 H609 0.930 . S
C619 C612 1.409 . S
C619 C618 1.362 . S
H620 C626 0.930 . S
H621 C629 0.930 . S
H622 C630 0.930 . S
H623 C631 0.930 . S
H624 C634 0.930 . S
H625 C635 0.930 . S
C626 H620 0.930 . S
C626 C627 1.355 . S
C626 C628 1.415 . S
C627 C626 1.355 . S
C627 C629 1.419 . S
C628 C626 1.415 . S
C628 C633 1.425 . S
C628 C635 1.409 . S
C629 H621 0.930 . S
C629 C627 1.419 . S
C629 C630 1.362 . S
C630 H622 0.930 . S
C630 C629 1.362 . S
C630 C633 1.409 . S
C631 H623 0.930 . S
C631 C632 1.355 . S
C631 C633 1.415 . S
C632 C631 1.355 . S
C632 C634 1.419 . S
C633 C628 1.425 . S
C633 C630 1.409 . S
C633 C631 1.415 . S
C634 H624 0.930 . S
C634 C632 1.419 . S
C634 C635 1.362 . S
C635 H625 0.930 . S
C635 C628 1.409 . S
C635 C634 1.362 . S
H636 C642 0.930 . S
H637 C645 0.930 . S
H638 C646 0.930 . S
H639 C647 0.930 . S
H640 C650 0.930 . S
H641 C651 0.930 . S
C642 H636 0.930 . S
C642 C643 1.355 . S
C642 C644 1.415 . S
C643 C642 1.355 . S
C643 C645 1.419 . S
C644 C642 1.415 . S
C644 C649 1.425 . S
C644 C651 1.409 . S
C645 H637 0.930 . S
C645 C643 1.419 . S
C645 C646 1.362 . S
C646 H638 0.930 . S
C646 C645 1.362 . S
C646 C649 1.409 . S
C647 H639 0.930 . S
C647 C648 1.355 . S
C647 C649 1.415 . S
C648 C647 1.355 . S
C648 C650 1.419 . S
C649 C644 1.425 . S
C649 C646 1.409 . S
C649 C647 1.415 . S
C650 H640 0.930 . S
C650 C648 1.419 . S
C650 C651 1.362 . S
C651 H641 0.930 . S
C651 C644 1.409 . S
C651 C650 1.362 . S
H652 C658 0.930 . S
H653 C661 0.930 . S
H654 C662 0.930 . S
H655 C663 0.930 . S
H656 C666 0.930 . S
H657 C667 0.930 . S
C658 H652 0.930 . S
C658 C659 1.355 . S
C658 C660 1.415 . S
C659 C658 1.355 . S
C659 C661 1.419 . S
C660 C658 1.415 . S
C660 C665 1.425 . S
C660 C667 1.409 . S
C661 H653 0.930 . S
C661 C659 1.419 . S
C661 C662 1.362 . S
C662 H654 0.930 . S
C662 C661 1.362 . S
C662 C665 1.409 . S
C663 H655 0.930 . S
C663 C664 1.355 . S
C663 C665 1.415 . S
C664 C663 1.355 . S
C664 C666 1.419 . S
C665 C660 1.425 . S
C665 C662 1.409 . S
C665 C663 1.415 . S
C666 H656 0.930 . S
C666 C664 1.419 . S
C666 C667 1.362 . S
C667 H657 0.930 . S
C667 C660 1.409 . S
C667 C666 1.362 . S
H668 C674 0.930 . S
H669 C677 0.930 . S
H670 C678 0.930 . S
H671 C679 0.930 . S
H672 C682 0.930 . S
H673 C683 0.930 . S
C674 H668 0.930 . S
C674 C675 1.355 . S
C674 C676 1.415 . S
C675 C674 1.355 . S
C675 C677 1.419 . S
C676 C674 1.415 . S
C676 C681 1.425 . S
C676 C683 1.409 . S
C677 H669 0.930 . S
C677 C675 1.419 . S
C677 C678 1.362 . S
C678 H670 0.930 . S
C678 C677 1.362 . S
C678 C681 1.409 . S
C679 H671 0.930 . S
C679 C680 1.355 . S
C679 C681 1.415 . S
C680 C679 1.355 . S
C680 C682 1.419 . S
C681 C676 1.425 . S
C681 C678 1.409 . S
C681 C679 1.415 . S
C682 H672 0.930 . S
C682 C680 1.419 . S
C682 C683 1.362 . S
C683 H673 0.930 . S
C683 C676 1.409 . S
C683 C682 1.362 . S
H684 C690 0.930 . S
H685 C693 0.930 . S
H686 C694 0.930 . S
H687 C695 0.930 . S
H688 C698 0.930 . S
H689 C699 0.930 . S
C690 H684 0.930 . S
C690 C691 1.355 . S
C690 C692 1.415 . S
C691 C690 1.355 . S
C691 C693 1.419 . S
C692 C690 1.415 . S
C692 C697 1.425 . S
C692 C699 1.409 . S
C693 H685 0.930 . S
C693 C691 1.419 . S
C693 C694 1.362 . S
C694 H686 0.930 . S
C694 C693 1.362 . S
C694 C697 1.409 . S
C695 H687 0.930 . S
C695 C696 1.355 . S
C695 C697 1.415 . S
C696 C695 1.355 . S
C696 C698 1.419 . S
C697 C692 1.425 . S
C697 C694 1.409 . S
C697 C695 1.415 . S
C698 H688 0.930 . S
C698 C696 1.419 . S
C698 C699 1.362 . S
C699 H689 0.930 . S
C699 C692 1.409 . S
C699 C698 1.362 . S
H700 C706 0.930 . S
H701 C709 0.930 . S
H702 C710 0.930 . S
H703 C711 0.930 . S
H704 C714 0.930 . S
H705 C715 0.930 . S
C706 H700 0.930 . S
C706 C707 1.355 . S
C706 C708 1.415 . S
C707 C706 1.355 . S
C707 C709 1.419 . S
C708 C706 1.415 . S
C708 C713 1.425 . S
C708 C715 1.409 . S
C709 H701 0.930 . S
C709 C707 1.419 . S
C709 C710 1.362 . S
C710 H702 0.930 . S
C710 C709 1.362 . S
C710 C713 1.409 . S
C711 H703 0.930 . S
C711 C712 1.355 . S
C711 C713 1.415 . S
C712 C711 1.355 . S
C712 C714 1.419 . S
C713 C708 1.425 . S
C713 C710 1.409 . S
C713 C711 1.415 . S
C714 H704 0.930 . S
C714 C712 1.419 . S
C714 C715 1.362 . S
C715 H705 0.930 . S
C715 C708 1.409 . S
C715 C714 1.362 . S
H716 C722 0.930 . S
H717 C725 0.930 . S
H718 C726 0.930 . S
H719 C727 0.930 1_545 S
H720 C730 0.930 . S
H721 C731 0.930 . S
C722 H716 0.930 . S
C722 C723 1.355 1_565 S
C722 C724 1.415 . S
C723 C722 1.355 1_545 S
C723 C725 1.419 . S
C724 C722 1.415 . S
C724 C729 1.425 . S
C724 C731 1.409 . S
C725 H717 0.930 . S
C725 C723 1.419 . S
C725 C726 1.362 . S
C726 H718 0.930 . S
C726 C725 1.362 . S
C726 C729 1.409 1_545 S
C727 H719 0.930 1_565 S
C727 C728 1.355 . S
C727 C729 1.415 . S
C728 C727 1.355 . S
C728 C730 1.419 . S
C729 C724 1.425 . S
C729 C726 1.409 1_565 S
C729 C727 1.415 . S
C730 H720 0.930 . S
C730 C728 1.419 . S
C730 C731 1.362 . S
C731 H721 0.930 . S
C731 C724 1.409 . S
C731 C730 1.362 . S
H732 C738 0.930 . S
H733 C741 0.930 1_554 S
H734 C742 0.930 . S
H735 C743 0.930 . S
H736 C746 0.930 . S
H737 C747 0.930 . S
C738 H732 0.930 . S
C738 C739 1.355 . S
C738 C740 1.415 . S
C739 C738 1.355 . S
C739 C741 1.419 . S
C740 C738 1.415 . S
C740 C745 1.425 . S
C740 C747 1.409 . S
C741 H733 0.930 1_556 S
C741 C739 1.419 . S
C741 C742 1.362 . S
C742 H734 0.930 . S
C742 C741 1.362 . S
C742 C745 1.409 . S
C743 H735 0.930 . S
C743 C744 1.355 . S
C743 C745 1.415 . S
C744 C743 1.355 . S
C744 C746 1.419 . S
C745 C740 1.425 . S
C745 C742 1.409 . S
C745 C743 1.415 . S
C746 H736 0.930 . S
C746 C744 1.419 . S
C746 C747 1.362 . S
C747 H737 0.930 . S
C747 C740 1.409 . S
C747 C746 1.362 . S
H748 C754 0.930 . S
H749 C757 0.930 . S
H750 C758 0.930 . S
H751 C759 0.930 . S
H752 C762 0.930 . S
H753 C763 0.930 . S
C754 H748 0.930 . S
C754 C755 1.355 . S
C754 C756 1.415 . S
C755 C754 1.355 . S
C755 C757 1.419 1_655 S
C756 C754 1.415 . S
C756 C761 1.425 . S
C756 C763 1.409 . S
C757 H749 0.930 . S
C757 C755 1.419 1_455 S
C757 C758 1.362 . S
C758 H750 0.930 . S
C758 C757 1.362 . S
C758 C761 1.409 1_455 S
C759 H751 0.930 . S
C759 C760 1.355 . S
C759 C761 1.415 . S
C760 C759 1.355 . S
C760 C762 1.419 . S
C761 C756 1.425 . S
C761 C758 1.409 1_655 S
C761 C759 1.415 . S
C762 H752 0.930 . S
C762 C760 1.419 . S
C762 C763 1.362 . S
C763 H753 0.930 . S
C763 C756 1.409 . S
C763 C762 1.362 . S
H764 C770 0.930 . S
H765 C773 0.930 . S
H766 C774 0.930 . S
H767 C775 0.930 . S
H768 C778 0.930 . S
H769 C779 0.930 . S
C770 H764 0.930 . S
C770 C771 1.355 . S
C770 C772 1.415 . S
C771 C770 1.355 . S
C771 C773 1.419 . S
C772 C770 1.415 . S
C772 C777 1.425 . S
C772 C779 1.409 . S
C773 H765 0.930 . S
C773 C771 1.419 . S
C773 C774 1.362 . S
C774 H766 0.930 . S
C774 C773 1.362 . S
C774 C777 1.409 . S
C775 H767 0.930 . S
C775 C776 1.355 . S
C775 C777 1.415 . S
C776 C775 1.355 . S
C776 C778 1.419 . S
C777 C772 1.425 . S
C777 C774 1.409 . S
C777 C775 1.415 . S
C778 H768 0.930 . S
C778 C776 1.419 . S
C778 C779 1.362 . S
C779 H769 0.930 . S
C779 C772 1.409 . S
C779 C778 1.362 . S
H780 C786 0.930 . S
H781 C789 0.930 . S
H782 C790 0.930 . S
H783 C791 0.930 . S
H784 C794 0.930 . S
H785 C795 0.930 . S
C786 H780 0.930 . S
C786 C787 1.355 . S
C786 C788 1.415 . S
C787 C786 1.355 . S
C787 C789 1.419 . S
C788 C786 1.415 . S
C788 C793 1.425 . S
C788 C795 1.409 . S
C789 H781 0.930 . S
C789 C787 1.419 . S
C789 C790 1.362 1_655 S
C790 H782 0.930 . S
C790 C789 1.362 1_455 S
C790 C793 1.409 1_455 S
C791 H783 0.930 . S
C791 C792 1.355 1_455 S
C791 C793 1.415 1_455 S
C792 C791 1.355 1_655 S
C792 C794 1.419 . S
C793 C788 1.425 . S
C793 C790 1.409 1_655 S
C793 C791 1.415 1_655 S
C794 H784 0.930 . S
C794 C792 1.419 . S
C794 C795 1.362 . S
C795 H785 0.930 . S
C795 C788 1.409 . S
C795 C794 1.362 . S
H796 C802 0.930 . S
H797 C805 0.930 . S
H798 C806 0.930 . S
H799 C807 0.930 . S
H800 C810 0.930 . S
H801 C811 0.930 . S
C802 H796 0.930 . S
C802 C803 1.355 . S
C802 C804 1.415 . S
C803 C802 1.355 . S
C803 C805 1.419 . S
C804 C802 1.415 . S
C804 C809 1.425 . S
C804 C811 1.409 . S
C805 H797 0.930 . S
C805 C803 1.419 . S
C805 C806 1.362 . S
C806 H798 0.930 . S
C806 C805 1.362 . S
C806 C809 1.409 . S
C807 H799 0.930 . S
C807 C808 1.355 . S
C807 C809 1.415 . S
C808 C807 1.355 . S
C808 C810 1.419 . S
C809 C804 1.425 . S
C809 C806 1.409 . S
C809 C807 1.415 . S
C810 H800 0.930 . S
C810 C808 1.419 . S
C810 C811 1.362 . S
C811 H801 0.930 . S
C811 C804 1.409 . S
C811 C810 1.362 . S
H812 C818 0.930 . S
H813 C821 0.930 . S
H814 C822 0.930 . S
H815 C823 0.930 . S
H816 C826 0.930 . S
H817 C827 0.930 . S
C818 H812 0.930 . S
C818 C819 1.355 . S
C818 C820 1.415 . S
C819 C818 1.355 . S
C819 C821 1.419 . S
C820 C818 1.415 . S
C820 C825 1.425 . S
C820 C827 1.409 . S
C821 H813 0.930 . S
C821 C819 1.419 . S
C821 C822 1.362 . S
C822 H814 0.930 . S
C822 C821 1.362 . S
C822 C825 1.409 . S
C823 H815 0.930 . S
C823 C824 1.355 . S
C823 C825 1.415 . S
C824 C823 1.355 . S
C824 C826 1.419 . S
C825 C820 1.425 . S
C825 C822 1.409 . S
C825 C823 1.415 . S
C826 H816 0.930 . S
C826 C824 1.419 . S
C826 C827 1.362 . S
C827 H817 0.930 . S
C827 C820 1.409 . S
C827 C826 1.362 . S
H828 C834 0.928 . S
H829 C837 0.930 . S
H830 C838 0.930 . S
H831 C839 0.930 . S
H832 C842 0.930 1_556 S
H833 C843 0.930 . S
C834 H828 0.928 . S
C834 C835 1.358 . S
C834 C836 1.415 1_545 S
C835 C834 1.358 . S
C835 C837 1.419 1_545 S
C836 C834 1.415 1_565 S
C836 C841 1.425 . S
C836 C843 1.409 . S
C837 H829 0.930 . S
C837 C835 1.419 1_565 S
C837 C838 1.362 . S
C838 H830 0.930 . S
C838 C837 1.362 . S
C838 C841 1.409 . S
C839 H831 0.930 . S
C839 C840 1.355 . S
C839 C841 1.415 . S
C840 C839 1.355 . S
C840 C842 1.419 . S
C841 C836 1.425 . S
C841 C838 1.409 . S
C841 C839 1.415 . S
C842 H832 0.930 1_554 S
C842 C840 1.419 . S
C842 C843 1.362 . S
C843 H833 0.930 . S
C843 C836 1.409 . S
C843 C842 1.362 . S
H844 C850 0.930 . S
H845 C853 0.930 . S
H846 C854 0.930 . S
H847 C855 0.930 . S
H848 C858 0.930 . S
H849 C859 0.930 . S
C850 H844 0.930 . S
C850 C851 1.355 . S
C850 C852 1.415 . S
C851 C850 1.355 . S
C851 C853 1.419 . S
C852 C850 1.415 . S
C852 C857 1.425 . S
C852 C859 1.409 . S
C853 H845 0.930 . S
C853 C851 1.419 . S
C853 C854 1.362 . S
C854 H846 0.930 . S
C854 C853 1.362 . S
C854 C857 1.409 . S
C855 H847 0.930 . S
C855 C856 1.355 . S
C855 C857 1.415 . S
C856 C855 1.355 . S
C856 C858 1.419 . S
C857 C852 1.425 . S
C857 C854 1.409 . S
C857 C855 1.415 . S
C858 H848 0.930 . S
C858 C856 1.419 . S
C858 C859 1.362 . S
C859 H849 0.930 . S
C859 C852 1.409 . S
C859 C858 1.362 . S
H860 C866 0.930 . S
H861 C869 0.930 1_556 S
H862 C870 0.930 . S
H863 C871 0.930 . S
H864 C874 0.930 . S
H865 C875 0.930 . S
C866 H860 0.930 . S
C866 C867 1.355 . S
C866 C868 1.415 . S
C867 C866 1.355 . S
C867 C869 1.419 . S
C868 C866 1.415 . S
C868 C873 1.425 . S
C868 C875 1.409 . S
C869 H861 0.930 1_554 S
C869 C867 1.419 . S
C869 C870 1.362 . S
C870 H862 0.930 . S
C870 C869 1.362 . S
C870 C873 1.409 . S
C871 H863 0.930 . S
C871 C872 1.355 . S
C871 C873 1.415 . S
C872 C871 1.355 . S
C872 C874 1.419 . S
C873 C868 1.425 . S
C873 C870 1.409 . S
C873 C871 1.415 . S
C874 H864 0.930 . S
C874 C872 1.419 . S
C874 C875 1.362 . S
C875 H865 0.930 . S
C875 C868 1.409 . S
C875 C874 1.362 . S
H876 C882 0.930 . S
H877 C885 0.930 . S
H878 C886 0.930 . S
H879 C887 0.930 . S
H880 C890 0.930 . S
H881 C891 0.930 . S
C882 H876 0.930 . S
C882 C883 1.355 . S
C882 C884 1.415 . S
C883 C882 1.355 . S
C883 C885 1.419 . S
C884 C882 1.415 . S
C884 C889 1.425 . S
C884 C891 1.409 . S
C885 H877 0.930 . S
C885 C883 1.419 . S
C885 C886 1.362 . S
C886 H878 0.930 . S
C886 C885 1.362 . S
C886 C889 1.409 . S
C887 H879 0.930 . S
C887 C888 1.355 . S
C887 C889 1.415 . S
C888 C887 1.355 . S
C888 C890 1.419 1_455 S
C889 C884 1.425 . S
C889 C886 1.409 . S
C889 C887 1.415 . S
C890 H880 0.930 . S
C890 C888 1.419 1_655 S
C890 C891 1.362 1_655 S
C891 H881 0.930 . S
C891 C884 1.409 . S
C891 C890 1.362 1_455 S
H892 C898 0.930 . S
H893 C901 0.930 . S
H894 C902 0.930 . S
H895 C903 0.930 . S
H896 C906 0.930 . S
H897 C907 0.930 . S
C898 H892 0.930 . S
C898 C899 1.355 . S
C898 C900 1.415 . S
C899 C898 1.355 . S
C899 C901 1.419 . S
C900 C898 1.415 . S
C900 C905 1.425 . S
C900 C907 1.409 . S
C901 H893 0.930 . S
C901 C899 1.419 . S
C901 C902 1.362 . S
C902 H894 0.930 . S
C902 C901 1.362 . S
C902 C905 1.409 . S
C903 H895 0.930 . S
C903 C904 1.355 . S
C903 C905 1.415 . S
C904 C903 1.355 . S
C904 C906 1.419 . S
C905 C900 1.425 . S
C905 C902 1.409 . S
C905 C903 1.415 . S
C906 H896 0.930 . S
C906 C904 1.419 . S
C906 C907 1.362 . S
C907 H897 0.930 . S
C907 C900 1.409 . S
C907 C906 1.362 . S
H908 C914 0.930 . S
H909 C917 0.930 . S
H910 C918 0.930 . S
H911 C919 0.930 . S
H912 C922 0.930 . S
H913 C923 0.930 . S
C914 H908 0.930 . S
C914 C915 1.355 . S
C914 C916 1.415 . S
C915 C914 1.355 . S
C915 C917 1.419 . S
C916 C914 1.415 . S
C916 C921 1.425 . S
C916 C923 1.409 . S
C917 H909 0.930 . S
C917 C915 1.419 . S
C917 C918 1.362 . S
C918 H910 0.930 . S
C918 C917 1.362 . S
C918 C921 1.409 . S
C919 H911 0.930 . S
C919 C920 1.355 . S
C919 C921 1.415 . S
C920 C919 1.355 . S
C920 C922 1.419 1_545 S
C921 C916 1.425 . S
C921 C918 1.409 . S
C921 C919 1.415 . S
C922 H912 0.930 . S
C922 C920 1.419 1_565 S
C922 C923 1.362 1_565 S
C923 H913 0.930 . S
C923 C916 1.409 . S
C923 C922 1.362 1_545 S
H924 C930 0.930 . S
H925 C933 0.930 . S
H926 C934 0.930 . S
H927 C935 0.930 1_565 S
H928 C938 0.930 . S
H929 C939 0.930 . S
C930 H924 0.930 . S
C930 C931 1.355 . S
C930 C932 1.415 . S
C931 C930 1.355 . S
C931 C933 1.419 . S
C932 C930 1.415 . S
C932 C937 1.425 . S
C932 C939 1.409 . S
C933 H925 0.930 . S
C933 C931 1.419 . S
C933 C934 1.362 . S
C934 H926 0.930 . S
C934 C933 1.362 . S
C934 C937 1.409 . S
C935 H927 0.930 1_545 S
C935 C936 1.355 . S
C935 C937 1.415 . S
C936 C935 1.355 . S
C936 C938 1.419 . S
C937 C932 1.425 . S
C937 C934 1.409 . S
C937 C935 1.415 . S
C938 H928 0.930 . S
C938 C936 1.419 . S
C938 C939 1.362 . S
C939 H929 0.930 . S
C939 C932 1.409 . S
C939 C938 1.362 . S
H940 C946 0.930 . S
H941 C949 0.930 . S
H942 C950 0.930 . S
H943 C951 0.930 1_655 S
H944 C954 0.930 . S
H945 C955 0.930 . S
C946 H940 0.930 . S
C946 C947 1.355 . S
C946 C948 1.415 . S
C947 C946 1.355 . S
C947 C949 1.419 . S
C948 C946 1.415 . S
C948 C953 1.425 . S
C948 C955 1.409 . S
C949 H941 0.930 . S
C949 C947 1.419 . S
C949 C950 1.362 . S
C950 H942 0.930 . S
C950 C949 1.362 . S
C950 C953 1.409 . S
C951 H943 0.930 1_455 S
C951 C952 1.355 . S
C951 C953 1.415 . S
C952 C951 1.355 . S
C952 C954 1.419 . S
C953 C948 1.425 . S
C953 C950 1.409 . S
C953 C951 1.415 . S
C954 H944 0.930 . S
C954 C952 1.419 . S
C954 C955 1.362 . S
C955 H945 0.930 . S
C955 C948 1.409 . S
C955 C954 1.362 . S
H956 C962 0.930 . S
H957 C965 0.930 . S
H958 C966 0.930 . S
H959 C967 0.930 . S
H960 C970 0.930 . S
H961 C971 0.930 . S
C962 H956 0.930 . S
C962 C963 1.355 . S
C962 C964 1.415 . S
C963 C962 1.355 . S
C963 C965 1.419 . S
C964 C962 1.415 . S
C964 C969 1.425 . S
C964 C971 1.409 . S
C965 H957 0.930 . S
C965 C963 1.419 . S
C965 C966 1.362 . S
C966 H958 0.930 . S
C966 C965 1.362 . S
C966 C969 1.409 . S
C967 H959 0.930 . S
C967 C968 1.355 . S
C967 C969 1.415 . S
C968 C967 1.355 . S
C968 C970 1.419 . S
C969 C964 1.425 . S
C969 C966 1.409 . S
C969 C967 1.415 . S
C970 H960 0.930 . S
C970 C968 1.419 . S
C970 C971 1.362 . S
C971 H961 0.930 . S
C971 C964 1.409 . S
C971 C970 1.362 . S
H972 C978 0.930 . S
H973 C981 0.930 . S
H974 C982 0.930 . S
H975 C983 0.930 . S
H976 C986 0.930 . S
H977 C987 0.930 . S
C978 H972 0.930 . S
C978 C979 1.355 . S
C978 C980 1.415 . S
C979 C978 1.355 . S
C979 C981 1.419 . S
C980 C978 1.415 . S
C980 C985 1.425 . S
C980 C987 1.409 . S
C981 H973 0.930 . S
C981 C979 1.419 . S
C981 C982 1.362 . S
C982 H974 0.930 . S
C982 C981 1.362 . S
C982 C985 1.409 . S
C983 H975 0.930 . S
C983 C984 1.355 . S
C983 C985 1.415 . S
C984 C983 1.355 . S
C984 C986 1.419 . S
C985 C980 1.425 . S
C985 C982 1.409 . S
C985 C983 1.415 . S
C986 H976 0.930 . S
C986 C984 1.419 . S
C986 C987 1.362 . S
C987 H977 0.930 . S
C987 C980 1.409 . S
C987 C986 1.362 . S
H988 C994 0.930 . S
H989 C997 0.930 . S
H990 C998 0.930 . S
H991 C999 0.930 . S
H992 C1002 0.930 . S
H993 C1003 0.930 . S
C994 H988 0.930 . S
C994 C995 1.355 . S
C994 C996 1.415 . S
C995 C994 1.355 . S
C995 C997 1.419 . S
C996 C994 1.415 . S
C996 C1001 1.425 . S
C996 C1003 1.409 . S
C997 H989 0.930 . S
C997 C995 1.419 . S
C997 C998 1.362 . S
C998 H990 0.930 . S
C998 C997 1.362 . S
C998 C1001 1.409 . S
C999 H991 0.930 . S
C999 C1000 1.355 . S
C999 C1001 1.415 . S
C1000 C999 1.355 . S
C1000 C1002 1.419 . S
C1001 C996 1.425 . S
C1001 C998 1.409 . S
C1001 C999 1.415 . S
C1002 H992 0.930 . S
C1002 C1000 1.419 . S
C1002 C1003 1.362 . S
C1003 H993 0.930 . S
C1003 C996 1.409 . S
C1003 C1002 1.362 . S
H1004 C1010 0.930 . S
H1005 C1013 0.930 . S
H1006 C1014 0.930 . S
H1007 C1015 0.930 . S
H1008 C1018 0.930 . S
H1009 C1019 0.930 . S
C1010 H1004 0.930 . S
C1010 C1011 1.355 . S
C1010 C1012 1.415 . S
C1011 C1010 1.355 . S
C1011 C1013 1.419 . S
C1012 C1010 1.415 . S
C1012 C1017 1.425 . S
C1012 C1019 1.409 . S
C1013 H1005 0.930 . S
C1013 C1011 1.419 . S
C1013 C1014 1.362 . S
C1014 H1006 0.930 . S
C1014 C1013 1.362 . S
C1014 C1017 1.409 . S
C1015 H1007 0.930 . S
C1015 C1016 1.355 . S
C1015 C1017 1.415 . S
C1016 C1015 1.355 . S
C1016 C1018 1.419 . S
C1017 C1012 1.425 . S
C1017 C1014 1.409 . S
C1017 C1015 1.415 . S
C1018 H1008 0.930 . S
C1018 C1016 1.419 . S
C1018 C1019 1.362 . S
C1019 H1009 0.930 . S
C1019 C1012 1.409 . S
C1019 C1018 1.362 . S
H1020 C1026 0.930 . S
H1021 C1029 0.930 . S
H1022 C1030 0.930 . S
H1023 C1031 0.930 . S
H1024 C1034 0.930 . S
H1025 C1035 0.930 . S
C1026 H1020 0.930 . S
C1026 C1027 1.355 . S
C1026 C1028 1.415 . S
C1027 C1026 1.355 . S
C1027 C1029 1.419 . S
C1028 C1026 1.415 . S
C1028 C1033 1.425 . S
C1028 C1035 1.409 . S
C1029 H1021 0.930 . S
C1029 C1027 1.419 . S
C1029 C1030 1.362 . S
C1030 H1022 0.930 . S
C1030 C1029 1.362 . S
C1030 C1033 1.409 . S
C1031 H1023 0.930 . S
C1031 C1032 1.355 . S
C1031 C1033 1.415 . S
C1032 C1031 1.355 . S
C1032 C1034 1.419 . S
C1033 C1028 1.425 . S
C1033 C1030 1.409 . S
C1033 C1031 1.415 . S
C1034 H1024 0.930 . S
C1034 C1032 1.419 . S
C1034 C1035 1.362 . S
C1035 H1025 0.930 . S
C1035 C1028 1.409 . S
C1035 C1034 1.362 . S
H1036 C1042 0.930 . S
H1037 C1045 0.930 . S
H1038 C1046 0.930 . S
H1039 C1047 0.930 . S
H1040 C1050 0.930 . S
H1041 C1051 0.930 . S
C1042 H1036 0.930 . S
C1042 C1043 1.355 . S
C1042 C1044 1.415 . S
C1043 C1042 1.355 . S
C1043 C1045 1.419 . S
C1044 C1042 1.415 . S
C1044 C1049 1.425 . S
C1044 C1051 1.409 . S
C1045 H1037 0.930 . S
C1045 C1043 1.419 . S
C1045 C1046 1.362 . S
C1046 H1038 0.930 . S
C1046 C1045 1.362 . S
C1046 C1049 1.409 . S
C1047 H1039 0.930 . S
C1047 C1048 1.355 . S
C1047 C1049 1.415 . S
C1048 C1047 1.355 . S
C1048 C1050 1.419 . S
C1049 C1044 1.425 . S
C1049 C1046 1.409 . S
C1049 C1047 1.415 . S
C1050 H1040 0.930 . S
C1050 C1048 1.419 . S
C1050 C1051 1.362 . S
C1051 H1041 0.930 . S
C1051 C1044 1.409 . S
C1051 C1050 1.362 . S
H1052 C1058 0.930 . S
H1053 C1061 0.930 . S
H1054 C1062 0.930 . S
H1055 C1063 0.930 . S
H1056 C1066 0.930 . S
H1057 C1067 0.930 . S
C1058 H1052 0.930 . S
C1058 C1059 1.355 . S
C1058 C1060 1.415 . S
C1059 C1058 1.355 . S
C1059 C1061 1.419 . S
C1060 C1058 1.415 . S
C1060 C1065 1.425 . S
C1060 C1067 1.409 . S
C1061 H1053 0.930 . S
C1061 C1059 1.419 . S
C1061 C1062 1.362 . S
C1062 H1054 0.930 . S
C1062 C1061 1.362 . S
C1062 C1065 1.409 . S
C1063 H1055 0.930 . S
C1063 C1064 1.355 . S
C1063 C1065 1.415 . S
C1064 C1063 1.355 . S
C1064 C1066 1.419 . S
C1065 C1060 1.425 . S
C1065 C1062 1.409 . S
C1065 C1063 1.415 . S
C1066 H1056 0.930 . S
C1066 C1064 1.419 . S
C1066 C1067 1.362 . S
C1067 H1057 0.930 . S
C1067 C1060 1.409 . S
C1067 C1066 1.362 . S
H1068 C1074 0.930 . S
H1069 C1077 0.930 . S
H1070 C1078 0.930 . S
H1071 C1079 0.930 . S
H1072 C1082 0.930 . S
H1073 C1083 0.930 . S
C1074 H1068 0.930 . S
C1074 C1075 1.355 . S
C1074 C1076 1.415 . S
C1075 C1074 1.355 . S
C1075 C1077 1.419 . S
C1076 C1074 1.415 . S
C1076 C1081 1.425 . S
C1076 C1083 1.409 . S
C1077 H1069 0.930 . S
C1077 C1075 1.419 . S
C1077 C1078 1.362 . S
C1078 H1070 0.930 . S
C1078 C1077 1.362 . S
C1078 C1081 1.409 . S
C1079 H1071 0.930 . S
C1079 C1080 1.355 . S
C1079 C1081 1.415 . S
C1080 C1079 1.355 . S
C1080 C1082 1.419 . S
C1081 C1076 1.425 . S
C1081 C1078 1.409 . S
C1081 C1079 1.415 . S
C1082 H1072 0.930 . S
C1082 C1080 1.419 . S
C1082 C1083 1.362 . S
C1083 H1073 0.930 . S
C1083 C1076 1.409 . S
C1083 C1082 1.362 . S
H1084 C1090 0.930 . S
H1085 C1093 0.930 . S
H1086 C1094 0.930 . S
H1087 C1095 0.930 . S
H1088 C1098 0.930 . S
H1089 C1099 0.930 . S
C1090 H1084 0.930 . S
C1090 C1091 1.355 . S
C1090 C1092 1.415 . S
C1091 C1090 1.355 . S
C1091 C1093 1.419 . S
C1092 C1090 1.415 . S
C1092 C1097 1.425 . S
C1092 C1099 1.409 . S
C1093 H1085 0.930 . S
C1093 C1091 1.419 . S
C1093 C1094 1.362 . S
C1094 H1086 0.930 . S
C1094 C1093 1.362 . S
C1094 C1097 1.409 . S
C1095 H1087 0.930 . S
C1095 C1096 1.355 . S
C1095 C1097 1.415 . S
C1096 C1095 1.355 . S
C1096 C1098 1.419 . S
C1097 C1092 1.425 . S
C1097 C1094 1.409 . S
C1097 C1095 1.415 . S
C1098 H1088 0.930 . S
C1098 C1096 1.419 . S
C1098 C1099 1.362 . S
C1099 H1089 0.930 . S
C1099 C1092 1.409 . S
C1099 C1098 1.362 . S
H1100 C1106 0.930 . S
H1101 C1109 0.930 . S
H1102 C1110 0.930 . S
H1103 C1111 0.930 . S
H1104 C1114 0.930 . S
H1105 C1115 0.930 . S
C1106 H1100 0.930 . S
C1106 C1107 1.355 . S
C1106 C1108 1.415 . S
C1107 C1106 1.355 . S
C1107 C1109 1.419 . S
C1108 C1106 1.415 . S
C1108 C1113 1.425 . S
C1108 C1115 1.409 . S
C1109 H1101 0.930 . S
C1109 C1107 1.419 . S
C1109 C1110 1.362 . S
C1110 H1102 0.930 . S
C1110 C1109 1.362 . S
C1110 C1113 1.409 . S
C1111 H1103 0.930 . S
C1111 C1112 1.355 . S
C1111 C1113 1.415 . S
C1112 C1111 1.355 . S
C1112 C1114 1.419 . S
C1113 C1108 1.425 . S
C1113 C1110 1.409 . S
C1113 C1111 1.415 . S
C1114 H1104 0.930 . S
C1114 C1112 1.419 . S
C1114 C1115 1.362 . S
C1115 H1105 0.930 . S
C1115 C1108 1.409 . S
C1115 C1114 1.362 . S
H1116 C1122 0.930 . S
H1117 C1125 0.930 . S
H1118 C1126 0.930 . S
H1119 C1127 0.930 . S
H1120 C1130 0.930 . S
H1121 C1131 0.930 . S
C1122 H1116 0.930 . S
C1122 C1123 1.355 . S
C1122 C1124 1.415 . S
C1123 C1122 1.355 . S
C1123 C1125 1.419 . S
C1124 C1122 1.415 . S
C1124 C1129 1.425 . S
C1124 C1131 1.409 . S
C1125 H1117 0.930 . S
C1125 C1123 1.419 . S
C1125 C1126 1.362 . S
C1126 H1118 0.930 . S
C1126 C1125 1.362 . S
C1126 C1129 1.409 . S
C1127 H1119 0.930 . S
C1127 C1128 1.355 . S
C1127 C1129 1.415 . S
C1128 C1127 1.355 . S
C1128 C1130 1.419 . S
C1129 C1124 1.425 . S
C1129 C1126 1.409 . S
C1129 C1127 1.415 . S
C1130 H1120 0.930 . S
C1130 C1128 1.419 . S
C1130 C1131 1.362 . S
C1131 H1121 0.930 . S
C1131 C1124 1.409 . S
C1131 C1130 1.362 . S
H1132 C1138 0.930 . S
H1133 C1141 0.930 . S
H1134 C1142 0.930 . S
H1135 C1143 0.930 . S
H1136 C1146 0.930 . S
H1137 C1147 0.930 . S
C1138 H1132 0.930 . S
C1138 C1139 1.355 . S
C1138 C1140 1.415 . S
C1139 C1138 1.355 . S
C1139 C1141 1.419 . S
C1140 C1138 1.415 . S
C1140 C1145 1.425 . S
C1140 C1147 1.409 . S
C1141 H1133 0.930 . S
C1141 C1139 1.419 . S
C1141 C1142 1.362 . S
C1142 H1134 0.930 . S
C1142 C1141 1.362 . S
C1142 C1145 1.409 . S
C1143 H1135 0.930 . S
C1143 C1144 1.355 . S
C1143 C1145 1.415 . S
C1144 C1143 1.355 . S
C1144 C1146 1.419 . S
C1145 C1140 1.425 . S
C1145 C1142 1.409 . S
C1145 C1143 1.415 . S
C1146 H1136 0.930 . S
C1146 C1144 1.419 . S
C1146 C1147 1.362 . S
C1147 H1137 0.930 . S
C1147 C1140 1.409 . S
C1147 C1146 1.362 . S
H1148 C1154 0.930 . S
H1149 C1157 0.930 . S
H1150 C1158 0.930 . S
H1151 C1159 0.930 . S
H1152 C1162 0.930 . S
H1153 C1163 0.930 . S
C1154 H1148 0.930 . S
C1154 C1155 1.355 . S
C1154 C1156 1.415 . S
C1155 C1154 1.355 . S
C1155 C1157 1.419 . S
C1156 C1154 1.415 . S
C1156 C1161 1.425 . S
C1156 C1163 1.409 . S
C1157 H1149 0.930 . S
C1157 C1155 1.419 . S
C1157 C1158 1.362 . S
C1158 H1150 0.930 . S
C1158 C1157 1.362 . S
C1158 C1161 1.409 . S
C1159 H1151 0.930 . S
C1159 C1160 1.355 . S
C1159 C1161 1.415 . S
C1160 C1159 1.355 . S
C1160 C1162 1.419 . S
C1161 C1156 1.425 . S
C1161 C1158 1.409 . S
C1161 C1159 1.415 . S
C1162 H1152 0.930 . S
C1162 C1160 1.419 . S
C1162 C1163 1.362 . S
C1163 H1153 0.930 . S
C1163 C1156 1.409 . S
C1163 C1162 1.362 . S
H1164 C1170 0.930 . S
H1165 C1173 0.930 . S
H1166 C1174 0.930 1_655 S
H1167 C1175 0.930 . S
H1168 C1178 0.930 . S
H1169 C1179 0.930 . S
C1170 H1164 0.930 . S
C1170 C1171 1.355 . S
C1170 C1172 1.415 . S
C1171 C1170 1.355 . S
C1171 C1173 1.419 1_455 S
C1172 C1170 1.415 . S
C1172 C1177 1.425 1_554 S
C1172 C1179 1.409 1_554 S
C1173 H1165 0.930 . S
C1173 C1171 1.419 1_655 S
C1173 C1174 1.362 1_655 S
C1174 H1166 0.930 1_455 S
C1174 C1173 1.362 1_455 S
C1174 C1177 1.409 1_554 S
C1175 H1167 0.930 . S
C1175 C1176 1.355 . S
C1175 C1177 1.415 . S
C1176 C1175 1.355 . S
C1176 C1178 1.419 . S
C1177 C1172 1.425 1_556 S
C1177 C1174 1.409 1_556 S
C1177 C1175 1.415 . S
C1178 H1168 0.930 . S
C1178 C1176 1.419 . S
C1178 C1179 1.362 . S
C1179 H1169 0.930 . S
C1179 C1172 1.409 1_556 S
C1179 C1178 1.362 . S
H1180 C1186 0.930 . S
H1181 C1189 0.930 . S
H1182 C1190 0.930 . S
H1183 C1191 0.930 . S
H1184 C1194 0.930 . S
H1185 C1195 0.930 . S
C1186 H1180 0.930 . S
C1186 C1187 1.355 . S
C1186 C1188 1.415 . S
C1187 C1186 1.355 . S
C1187 C1189 1.419 1_556 S
C1188 C1186 1.415 . S
C1188 C1193 1.425 1_556 S
C1188 C1195 1.409 . S
C1189 H1181 0.930 . S
C1189 C1187 1.419 1_554 S
C1189 C1190 1.362 . S
C1190 H1182 0.930 . S
C1190 C1189 1.362 . S
C1190 C1193 1.409 . S
C1191 H1183 0.930 . S
C1191 C1192 1.355 . S
C1191 C1193 1.415 . S
C1192 C1191 1.355 . S
C1192 C1194 1.419 1_554 S
C1193 C1188 1.425 1_554 S
C1193 C1190 1.409 . S
C1193 C1191 1.415 . S
C1194 H1184 0.930 . S
C1194 C1192 1.419 1_556 S
C1194 C1195 1.362 . S
C1195 H1185 0.930 . S
C1195 C1188 1.409 . S
C1195 C1194 1.362 . S
H1196 C1202 0.938 . S
H1197 C1205 0.930 . S
H1198 C1206 0.930 . S
H1199 C1207 0.931 1_565 S
H1200 C1210 0.930 . S
H1201 C1211 0.930 . S
C1202 H1196 0.938 . S
C1202 C1203 1.355 . S
C1202 C1204 1.415 1_554 S
C1203 C1202 1.355 . S
C1203 C1205 1.419 . S
C1204 C1202 1.415 1_556 S
C1204 C1209 1.425 1_556 S
C1204 C1211 1.409 . S
C1205 H1197 0.930 . S
C1205 C1203 1.419 . S
C1205 C1206 1.362 . S
C1206 H1198 0.930 . S
C1206 C1205 1.362 . S
C1206 C1209 1.409 . S
C1207 H1199 0.931 1_545 S
C1207 C1208 1.355 . S
C1207 C1209 1.415 1_556 S
C1208 C1207 1.355 . S
C1208 C1210 1.419 . S
C1209 C1204 1.425 1_554 S
C1209 C1206 1.409 . S
C1209 C1207 1.415 1_554 S
C1210 H1200 0.930 . S
C1210 C1208 1.419 . S
C1210 C1211 1.362 . S
C1211 H1201 0.930 . S
C1211 C1204 1.409 . S
C1211 C1210 1.362 . S
H1212 C1218 0.930 . S
H1213 C1221 0.930 . S
H1214 C1222 0.930 . S
H1215 C1223 0.930 1_565 S
H1216 C1226 0.930 . S
H1217 C1227 0.930 . S
C1218 H1212 0.930 . S
C1218 C1219 1.355 . S
C1218 C1220 1.415 . S
C1219 C1218 1.355 . S
C1219 C1221 1.419 . S
C1220 C1218 1.415 . S
C1220 C1225 1.425 . S
C1220 C1227 1.409 . S
C1221 H1213 0.930 . S
C1221 C1219 1.419 . S
C1221 C1222 1.362 . S
C1222 H1214 0.930 . S
C1222 C1221 1.362 . S
C1222 C1225 1.409 . S
C1223 H1215 0.930 1_545 S
C1223 C1224 1.355 . S
C1223 C1225 1.415 . S
C1224 C1223 1.355 . S
C1224 C1226 1.419 . S
C1225 C1220 1.425 . S
C1225 C1222 1.409 . S
C1225 C1223 1.415 . S
C1226 H1216 0.930 . S
C1226 C1224 1.419 . S
C1226 C1227 1.362 . S
C1227 H1217 0.930 . S
C1227 C1220 1.409 . S
C1227 C1226 1.362 . S
H1228 C1234 0.930 . S
H1229 C1237 0.930 . S
H1230 C1238 0.930 . S
H1231 C1239 0.930 . S
H1232 C1242 0.930 . S
H1233 C1243 0.930 . S
C1234 H1228 0.930 . S
C1234 C1235 1.355 . S
C1234 C1236 1.415 . S
C1235 C1234 1.355 . S
C1235 C1237 1.419 . S
C1236 C1234 1.415 . S
C1236 C1241 1.425 . S
C1236 C1243 1.409 . S
C1237 H1229 0.930 . S
C1237 C1235 1.419 . S
C1237 C1238 1.362 . S
C1238 H1230 0.930 . S
C1238 C1237 1.362 . S
C1238 C1241 1.409 . S
C1239 H1231 0.930 . S
C1239 C1240 1.355 . S
C1239 C1241 1.415 . S
C1240 C1239 1.355 . S
C1240 C1242 1.419 . S
C1241 C1236 1.425 . S
C1241 C1238 1.409 . S
C1241 C1239 1.415 . S
C1242 H1232 0.930 . S
C1242 C1240 1.419 . S
C1242 C1243 1.362 . S
C1243 H1233 0.930 . S
C1243 C1236 1.409 . S
C1243 C1242 1.362 . S
H1244 C1250 0.930 . S
H1245 C1253 0.930 . S
H1246 C1254 0.930 . S
H1247 C1255 0.930 . S
H1248 C1258 0.930 . S
H1249 C1259 0.930 . S
C1250 H1244 0.930 . S
C1250 C1251 1.355 . S
C1250 C1252 1.415 . S
C1251 C1250 1.355 . S
C1251 C1253 1.419 . S
C1252 C1250 1.415 . S
C1252 C1257 1.425 . S
C1252 C1259 1.409 . S
C1253 H1245 0.930 . S
C1253 C1251 1.419 . S
C1253 C1254 1.362 . S
C1254 H1246 0.930 . S
C1254 C1253 1.362 . S
C1254 C1257 1.409 . S
C1255 H1247 0.930 . S
C1255 C1256 1.355 . S
C1255 C1257 1.415 . S
C1256 C1255 1.355 . S
C1256 C1258 1.419 . S
C1257 C1252 1.425 . S
C1257 C1254 1.409 . S
C1257 C1255 1.415 . S
C1258 H1248 0.930 . S
C1258 C1256 1.419 . S
C1258 C1259 1.362 . S
C1259 H1249 0.930 . S
C1259 C1252 1.409 . S
C1259 C1258 1.362 . S
C403 C53 1.478 . S
C408 C6 1.424 . S
C419 C9 1.471 . S
C424 C27 1.396 . S
C435 C29 1.403 . S
C440 C50 1.469 1_565 S
C451 C75 1.414 . S
C456 C115 1.413 1_565 S
C467 C72 1.460 . S
C472 C95 1.468 . S
C483 C93 1.454 . S
C488 C117 1.472 . S
C499 C185 1.464 . S
C504 C138 1.465 . S
C515 C160 1.465 . S
C520 C141 1.399 . S
C531 C163 1.398 . S
C536 C182 1.465 . S
C547 C205 1.386 . S
C552 C247 1.429 . S
C563 C203 1.387 . S
C568 C227 1.423 . S
C579 C249 1.477 . S
C584 C225 1.439 . S
C595 C315 1.471 . S
C600 C270 1.406 . S
C611 C273 1.410 . S
C616 C291 1.474 . S
C627 C293 1.478 . S
C632 C313 1.424 . S
C643 C379 1.386 . S
C648 C339 1.425 . S
C659 C359 1.470 . S
C664 C336 1.404 . S
C675 C381 1.475 . S
C680 C357 1.414 . S
C691 C5 1.809 . S
C696 C295 1.767 . S
C707 C317 1.802 . S
C712 C26 1.783 . S
C723 C49 1.763 . S
C728 C272 1.816 . S
C739 C159 1.802 1_556 S
C744 C52 1.773 . S
C755 C8 1.777 1_655 S
C760 C181 1.808 1_556 S
C771 C137 1.786 1_556 S
C776 C31 1.800 . S
C787 C226 1.764 . S
C792 C73 1.814 1_655 S
C803 C96 1.789 . S
C808 C248 1.785 . S
C819 C204 1.793 . S
C824 C118 1.782 . S
C835 C116 1.776 . S
C840 C360 1.799 1_554 S
C851 C382 1.817 1_554 S
C856 C70 1.762 . S
C867 C337 1.771 1_554 S
C872 C94 1.805 . S
C883 C290 1.765 . S
C888 C184 1.816 1_455 S
C899 C312 1.770 . S
C904 C140 1.806 . S
C915 C162 1.789 . S
C920 C269 1.796 1_545 S
C931 C206 1.773 . S
C936 C358 1.802 1_545 S
C947 C380 1.769 . S
C952 C228 1.806 1_455 S
C963 C250 1.813 . S
C968 C334 1.770 . S
C979 C4 1.133 . S
C984 C338 1.133 . S
C995 C28 1.103 . S
C1000 C361 1.103 . S
C1011 C383 1.106 . S
C1016 C48 1.106 . S
C1027 C246 1.143 . S
C1032 C51 1.143 . S
C1043 C202 1.135 . S
C1048 C7 1.135 . S
C1059 C30 1.113 . S
C1064 C224 1.113 . S
C1075 C74 1.100 . S
C1080 C136 1.100 . S
C1091 C97 1.099 . S
C1096 C158 1.099 . S
C1107 C119 1.111 . S
C1112 C180 1.111 . S
C1123 C114 1.134 . S
C1128 C316 1.134 . S
C1139 C71 1.126 . S
C1144 C271 1.126 . S
C1155 C294 1.131 . S
C1160 C92 1.131 . S
C1171 C183 1.118 1_455 S
C1176 C378 1.118 . S
C1187 C335 1.098 . S
C1192 C139 1.098 . S
C1203 C161 1.126 . S
C1208 C356 1.126 1_545 S
C1219 C207 1.140 . S
C1224 C268 1.140 1_545 S
C1235 C229 1.132 1_455 S
C1240 C292 1.132 . S
C1251 C314 1.091 . S
C1256 C251 1.091 . S
