# Generated by pormake.
# Topology reo-e, (6)-cn, num edge types: 1
# Building blocks:
#     Node 0, Type 0, BuildingBlock: MIDCAF_clean_sbu_0, # of connection points: 6
#     Node 1, Type 0, BuildingBlock: MIDCAF_clean_sbu_0, # of connection points: 6
#     Node 2, Type 0, BuildingBlock: MIDCAF_clean_sbu_0, # of connection points: 6
#     Node 3, Type 0, BuildingBlock: MIDCAF_clean_sbu_0, # of connection points: 6
#     Node 4, Type 0, BuildingBlock: MIDCAF_clean_sbu_0, # of connection points: 6
#     Node 5, Type 0, BuildingBlock: MIDCAF_clean_sbu_0, # of connection points: 6
#     Node 6, Type 0, BuildingBlock: MIDCAF_clean_sbu_0, # of connection points: 6
#     Node 7, Type 0, BuildingBlock: MIDCAF_clean_sbu_0, # of connection points: 6
#     Node 8, Type 0, BuildingBlock: MIDCAF_clean_sbu_0, # of connection points: 6
#     Node 9, Type 0, BuildingBlock: MIDCAF_clean_sbu_0, # of connection points: 6
#     Node 10, Type 0, BuildingBlock: MIDCAF_clean_sbu_0, # of connection points: 6
#     Node 11, Type 0, BuildingBlock: MIDCAF_clean_sbu_0, # of connection points: 6
#     Edge 12, Type (0, 0), None
#     Edge 13, Type (0, 0), None
#     Edge 14, Type (0, 0), None
#     Edge 15, Type (0, 0), None
#     Edge 16, Type (0, 0), None
#     Edge 17, Type (0, 0), None
#     Edge 18, Type (0, 0), None
#     Edge 19, Type (0, 0), None
#     Edge 20, Type (0, 0), None
#     Edge 21, Type (0, 0), None
#     Edge 22, Type (0, 0), None
#     Edge 23, Type (0, 0), None
#     Edge 24, Type (0, 0), None
#     Edge 25, Type (0, 0), None
#     Edge 26, Type (0, 0), None
#     Edge 27, Type (0, 0), None
#     Edge 28, Type (0, 0), None
#     Edge 29, Type (0, 0), None
#     Edge 30, Type (0, 0), None
#     Edge 31, Type (0, 0), None
#     Edge 32, Type (0, 0), None
#     Edge 33, Type (0, 0), None
#     Edge 34, Type (0, 0), None
#     Edge 35, Type (0, 0), None
#     Edge 36, Type (0, 0), None
#     Edge 37, Type (0, 0), None
#     Edge 38, Type (0, 0), None
#     Edge 39, Type (0, 0), None
#     Edge 40, Type (0, 0), None
#     Edge 41, Type (0, 0), None
#     Edge 42, Type (0, 0), None
#     Edge 43, Type (0, 0), None
#     Edge 44, Type (0, 0), None
#     Edge 45, Type (0, 0), None
#     Edge 46, Type (0, 0), None
#     Edge 47, Type (0, 0), None
# Relax obj value: 0.261
# Max RMSD: 0.248
# Mean RMSD: 0.246
data_MOF--net-reo-e--node1-MIDCAF_clean_sbu_0--edge1-none
_symmetry_space_group_name_H-M    P1
_symmetry_Int_Tables_number       1
_symmetry_cell_setting            triclinic
loop_
_symmetry_equiv_pos_as_xyz
'x, y, z'
_cell_length_a     17.321482
_cell_length_b     17.605215
_cell_length_c     17.331822
_cell_angle_alpha  90.261605
_cell_angle_beta   90.242414
_cell_angle_gamma 89.271614
loop_
_atom_site_label
_atom_site_type_symbol
_atom_site_fract_x
_atom_site_fract_y
_atom_site_fract_z
_atom_type_partial_charge
Zn0 Zn 0.08606 0.26122 0.48337 0.0
Zn1 Zn 0.22118 0.08433 0.54526 0.0
Zn2 Zn 0.19229 0.18972 0.4822 0.0
C3 C 0.31272 0.16096 0.40186 0.0
C4 C 0.1494 -0.00194 0.46518 0.0
O5 O 0.1985 0.26025 0.58629 0.0
O6 O 0.07359 0.25773 0.59918 0.0
C7 C 0.16858 0.33935 0.38586 0.0
O8 O 0.25938 0.21023 0.39134 0.0
O9 O 0.30804 0.11244 0.45716 0.0
O10 O 0.16362 -0.01191 0.5354 0.0
O11 O 0.15721 0.0656 0.43707 0.0
O12 O 0.12337 0.35463 0.44067 0.0
O13 O 0.20282 0.2739 0.38384 0.0
O14 O 0.08969 0.12775 0.48474 0.0
O15 O 0.02278 0.19981 0.40837 0.0
C16 C 0.02759 0.14017 0.44772 0.0
O17 O 0.27266 0.19686 0.58912 0.0
O18 O 0.23666 0.0969 0.65467 0.0
C19 C 0.13851 0.27788 0.62549 0.0
C20 C 0.28008 0.15267 0.64839 0.0
Zn21 Zn 0.89445 0.22001 0.5432 0.0
Zn22 Zn 0.75903 0.0691 0.41949 0.0
Zn23 Zn 0.78518 0.17462 0.47918 0.0
C24 C 0.66341 0.14642 0.55891 0.0
C25 C 0.84046 -0.00447 0.50531 0.0
O26 O 0.7835 0.2372 0.38024 0.0
O27 O 0.88796 0.28191 0.43715 0.0
C28 C 0.80819 0.3016 0.62301 0.0
O29 O 0.71558 0.19564 0.56832 0.0
O30 O 0.67 0.09563 0.50561 0.0
O31 O 0.8346 -0.01561 0.43396 0.0
O32 O 0.82063 0.06071 0.53261 0.0
O33 O 0.87617 0.27947 0.63677 0.0
O34 O 0.76827 0.26951 0.56877 0.0
O35 O 0.89656 0.13031 0.44676 0.0
O36 O 0.9572 0.12386 0.55603 0.0
C37 C 0.95807 0.11553 0.48381 0.0
O38 O 0.70628 0.18242 0.37345 0.0
O39 O 0.73293 0.0753 0.31229 0.0
C40 C 0.84068 0.28153 0.38018 0.0
C41 C 0.69476 0.13616 0.3165 0.0
Zn42 Zn 0.69864 0.92755 0.5177 0.0
Zn43 Zn 0.83203 0.67649 0.56369 0.0
Zn44 Zn 0.77746 0.78146 0.51927 0.0
C45 C 0.95591 0.74457 0.50277 0.0
C46 C 0.75706 0.62533 0.43917 0.0
O47 O 0.67726 0.79954 0.60451 0.0
O48 O 0.60496 0.90001 0.5719 0.0
C49 C 0.84403 0.92916 0.55487 0.0
O50 O 0.90983 0.80187 0.51328 0.0
O51 O 0.93006 0.67904 0.51337 0.0
O52 O 0.76078 0.60373 0.50882 0.0
O53 O 0.76436 0.69648 0.42532 0.0
O54 O 0.78631 0.92401 0.59756 0.0
O55 O 0.86457 0.86756 0.52119 0.0
O56 O 0.7235 0.7695 0.41014 0.0
O57 O 0.70056 0.89346 0.40297 0.0
C58 C 0.7017 0.82769 0.37203 0.0
O59 O 0.72692 0.73908 0.62634 0.0
O60 O 0.83478 0.70119 0.67788 0.0
C61 C 0.61621 0.84221 0.61361 0.0
C62 C 0.7626 0.70657 0.68254 0.0
Zn63 Zn 0.16231 0.67548 0.4226 0.0
Zn64 Zn 0.29002 0.9321 0.44606 0.0
Zn65 Zn 0.21326 0.78379 0.4569 0.0
C66 C 0.14303 0.93102 0.41582 0.0
C67 C 0.37358 0.8364 0.35751 0.0
O68 O 0.22668 0.70305 0.55531 0.0
O69 O 0.24332 0.60899 0.47455 0.0
C70 C 0.03906 0.74536 0.48244 0.0
O71 O 0.12384 0.87036 0.45064 0.0
O72 O 0.199 0.92371 0.37082 0.0
O73 O 0.38271 0.89883 0.39235 0.0
O74 O 0.314 0.79459 0.37121 0.0
O75 O 0.06998 0.68039 0.48223 0.0
O76 O 0.08006 0.80217 0.46043 0.0
O77 O 0.26497 0.73315 0.35398 0.0
O78 O 0.15181 0.70868 0.31021 0.0
C79 C 0.22347 0.70268 0.30141 0.0
O80 O 0.26544 0.77917 0.56496 0.0
O81 O 0.29229 0.90216 0.56123 0.0
C82 C 0.23973 0.63182 0.54372 0.0
C83 C 0.28876 0.83962 0.59747 0.0
Zn84 Zn 0.48962 0.28035 0.11901 0.0
Zn85 Zn 0.47419 0.07882 0.26506 0.0
Zn86 Zn 0.48001 0.1901 0.20133 0.0
C87 C 0.6225 0.13731 0.27484 0.0
C88 C 0.45475 0.01791 0.1395 0.0
O89 O 0.37134 0.25284 0.21928 0.0
O90 O 0.37767 0.27146 0.09487 0.0
C91 C 0.57945 0.3439 0.21845 0.0
O92 O 0.5854 0.19924 0.26243 0.0
O93 O 0.59004 0.07419 0.26361 0.0
O94 O 0.41029 0.01129 0.1962 0.0
O95 O 0.4877 0.08248 0.13037 0.0
O96 O 0.52296 0.36941 0.18 0.0
O97 O 0.58299 0.27145 0.22945 0.0
O98 O 0.47582 0.15259 0.07749 0.0
O99 O 0.56258 0.2334 0.04219 0.0
C100 C 0.51683 0.1811 0.02353 0.0
O101 O 0.38067 0.19237 0.28441 0.0
O102 O 0.42776 0.10477 0.36296 0.0
C103 C 0.33939 0.27572 0.15637 0.0
C104 C 0.37757 0.15496 0.34833 0.0
Zn105 Zn 0.71597 0.47609 0.13527 0.0
Zn106 Zn 0.88331 0.48 0.31637 0.0
Zn107 Zn 0.7998 0.4796 0.22566 0.0
C108 C 0.77646 0.56787 0.3798 0.0
C109 C 0.96533 0.5316 0.19955 0.0
O110 O 0.71534 0.37998 0.24028 0.0
O111 O 0.62872 0.46498 0.20943 0.0
C112 C 0.72832 0.62205 0.16552 0.0
O113 O 0.77008 0.57814 0.30632 0.0
O114 O 0.81547 0.51162 0.40298 0.0
O115 O 0.95293 0.55454 0.26756 0.0
O116 O 0.91535 0.48796 0.16795 0.0
O117 O 0.74393 0.58368 0.10562 0.0
O118 O 0.73634 0.58897 0.23117 0.0
O119 O 0.85181 0.47648 0.10487 0.0
O120 O 0.77772 0.38026 0.10157 0.0
C121 C 0.82374 0.42154 0.0653 0.0
O122 O 0.7891 0.37359 0.29188 0.0
O123 O 0.91345 0.37186 0.31777 0.0
C124 C 0.64331 0.39845 0.23221 0.0
C125 C 0.84871 0.34008 0.32137 0.0
Zn126 Zn 0.57909 0.87264 0.2009 0.0
Zn127 Zn 0.54315 0.67393 0.10341 0.0
Zn128 Zn 0.51615 0.76466 0.18496 0.0
C129 C 0.46712 0.77413 0.02061 0.0
C130 C 0.4368 0.60459 0.17271 0.0
O131 O 0.61667 0.7716 0.27713 0.0
O132 O 0.67721 0.87832 0.25186 0.0
C133 C 0.49914 0.94916 0.11962 0.0
O134 O 0.49752 0.81403 0.07366 0.0
O135 O 0.46964 0.70341 0.0257 0.0
O136 O 0.50427 0.58217 0.15512 0.0
O137 O 0.42532 0.67538 0.18896 0.0
O138 O 0.57139 0.9553 0.12195 0.0
O139 O 0.47045 0.88311 0.13463 0.0
O140 O 0.42614 0.75478 0.2589 0.0
O141 O 0.48379 0.86418 0.28318 0.0
C142 C 0.43053 0.81625 0.29778 0.0
O143 O 0.62887 0.70752 0.20786 0.0
O144 O 0.6541 0.69779 0.08557 0.0
C145 C 0.66889 0.82147 0.29439 0.0
C146 C 0.67542 0.68699 0.15423 0.0
Zn147 Zn 0.14928 0.53286 0.27409 0.0
Zn148 Zn 0.28821 0.45557 0.07388 0.0
Zn149 Zn 0.20908 0.48592 0.17342 0.0
C150 C 0.37258 0.55197 0.15565 0.0
C151 C 0.16099 0.49834 0.00508 0.0
O152 O 0.22104 0.40245 0.2724 0.0
O153 O 0.11155 0.44166 0.32296 0.0
C154 C 0.24762 0.62722 0.2779 0.0
O155 O 0.30131 0.57264 0.15814 0.0
O156 O 0.38799 0.48717 0.12787 0.0
O157 O 0.22474 0.53198 0.00999 0.0
O158 O 0.13893 0.46504 0.06679 0.0
O159 O 0.24078 0.57684 0.32822 0.0
O160 O 0.23853 0.6065 0.20718 0.0
O161 O 0.08404 0.48798 0.1453 0.0
O162 O 0.07942 0.59633 0.20463 0.0
C163 C 0.04356 0.54474 0.16935 0.0
O164 O 0.26835 0.38048 0.20594 0.0
O165 O 0.25153 0.34685 0.08636 0.0
C166 C 0.16746 0.39496 0.32286 0.0
C167 C 0.27427 0.32922 0.1534 0.0
Zn168 Zn 0.38089 0.65917 0.93295 0.0
Zn169 Zn 0.41144 0.88924 0.76789 0.0
Zn170 Zn 0.46918 0.77585 0.78718 0.0
C171 C 0.48824 0.95498 0.85761 0.0
C172 C 0.32261 0.83822 0.67407 0.0
O173 O 0.55071 0.6824 0.80011 0.0
O174 O 0.49183 0.62401 0.89775 0.0
C175 C 0.43298 0.80645 0.95197 0.0
O176 O 0.51625 0.88815 0.84206 0.0
O177 O 0.41589 0.96225 0.85763 0.0
O178 O 0.31567 0.89797 0.71355 0.0
O179 O 0.373 0.78642 0.6935 0.0
O180 O 0.36995 0.77709 0.93025 0.0
O181 O 0.48183 0.81891 0.89967 0.0
O182 O 0.35918 0.72099 0.75658 0.0
O183 O 0.32059 0.74037 0.87269 0.0
C184 C 0.30797 0.7099 0.80784 0.0
O185 O 0.5612 0.76717 0.7142 0.0
O186 O 0.50718 0.87853 0.68775 0.0
C187 C 0.54997 0.63186 0.85347 0.0
C188 C 0.55932 0.82783 0.6746 0.0
Zn189 Zn 0.10578 0.49243 0.66299 0.0
Zn190 Zn 0.26323 0.49303 0.85656 0.0
Zn191 Zn 0.18597 0.4919 0.75727 0.0
C192 C 0.14712 0.46312 0.92853 0.0
C193 C 0.26777 0.63661 0.80876 0.0
O194 O 0.19989 0.3786 0.69948 0.0
O195 O 0.07627 0.38408 0.67452 0.0
C196 C 0.00739 0.53673 0.7622 0.0
O197 O 0.12613 0.50604 0.87218 0.0
O198 O 0.19767 0.4137 0.91215 0.0
O199 O 0.25531 0.60635 0.87343 0.0
O200 O 0.25282 0.59829 0.74722 0.0
O201 O 0.0253 0.5656 0.69826 0.0
O202 O 0.06038 0.49933 0.79925 0.0
O203 O 0.2196 0.58532 0.67463 0.0
O204 O 0.17545 0.5207 0.57617 0.0
C205 C 0.2149 0.57541 0.60105 0.0
O206 O 0.26972 0.38953 0.74753 0.0
O207 O 0.35734 0.45995 0.80271 0.0
C208 C 0.13815 0.3458 0.67543 0.0
C209 C 0.34133 0.40079 0.76523 0.0
Zn210 Zn 0.51346 0.28354 0.84767 0.0
Zn211 Zn 0.49917 0.07776 0.69623 0.0
Zn212 Zn 0.49979 0.18921 0.76373 0.0
C213 C 0.52861 0.0202 0.82652 0.0
C214 C 0.5976 0.14374 0.61126 0.0
O215 O 0.39709 0.27258 0.75199 0.0
O216 O 0.47094 0.36766 0.78133 0.0
C217 C 0.48274 0.18873 0.94661 0.0
O218 O 0.49857 0.08649 0.83783 0.0
O219 O 0.56265 0.00838 0.76374 0.0
O220 O 0.54759 0.09423 0.5977 0.0
O221 O 0.59337 0.18446 0.67332 0.0
O222 O 0.44737 0.25057 0.93452 0.0
O223 O 0.51273 0.15383 0.88846 0.0
O224 O 0.60181 0.25084 0.73068 0.0
O225 O 0.62666 0.24784 0.85201 0.0
C226 C 0.64527 0.27145 0.78661 0.0
O227 O 0.39132 0.20423 0.70849 0.0
O228 O 0.38313 0.08029 0.69456 0.0
C229 C 0.40589 0.34479 0.75879 0.0
C230 C 0.35295 0.14596 0.68892 0.0
Zn231 Zn 0.76079 0.50762 0.68789 0.0
Zn232 Zn 0.67442 0.45292 0.89131 0.0
Zn233 Zn 0.77492 0.48629 0.82072 0.0
C234 C 0.8039 0.42953 0.98223 0.0
C235 C 0.66682 0.35067 0.7891 0.0
O236 O 0.7544 0.60689 0.77322 0.0
O237 O 0.69482 0.59712 0.662 0.0
C238 C 0.9231 0.52623 0.77466 0.0
O239 O 0.82969 0.48075 0.93705 0.0
O240 O 0.74368 0.39473 0.96204 0.0
O241 O 0.6159 0.39699 0.81116 0.0
O242 O 0.73744 0.36974 0.79657 0.0
O243 O 0.88005 0.52835 0.71437 0.0
O244 O 0.8934 0.50922 0.83955 0.0
O245 O 0.79811 0.38771 0.73097 0.0
O246 O 0.74503 0.41989 0.61908 0.0
C247 C 0.78204 0.37229 0.65911 0.0
O248 O 0.6708 0.56686 0.82025 0.0
O249 O 0.6141 0.54025 0.92932 0.0
C250 C 0.72677 0.63866 0.7118 0.0
C251 C 0.61613 0.57954 0.86862 0.0
loop_
_geom_bond_atom_site_label_1
_geom_bond_atom_site_label_2
_geom_bond_distance
_geom_bond_site_symmetry_2
_ccdc_geom_bond_type
Zn0 O6 1.920 . S
Zn0 O12 1.898 . S
Zn0 O15 1.905 1_455 S
Zn1 O9 1.905 . S
Zn1 O10 1.898 1_545 S
Zn1 O18 1.920 . S
Zn2 O5 2.080 . S
Zn2 O8 2.114 . S
Zn2 O11 2.120 . S
Zn2 O13 2.120 . S
Zn2 O14 2.114 . S
Zn2 O17 2.080 . S
C3 O8 1.166 . S
C3 O9 1.182 . S
C4 O10 1.167 1_545 S
C4 O11 1.299 . S
O5 Zn2 2.080 . S
O5 C19 1.305 . S
O6 Zn0 1.920 . S
O6 C19 1.234 . S
C7 O12 1.167 . S
C7 O13 1.299 . S
O8 Zn2 2.114 . S
O8 C3 1.166 . S
O9 Zn1 1.905 . S
O9 C3 1.182 . S
O10 Zn1 1.898 1_565 S
O10 C4 1.167 1_565 S
O11 Zn2 2.120 . S
O11 C4 1.299 . S
O12 Zn0 1.898 . S
O12 C7 1.167 . S
O13 Zn2 2.120 . S
O13 C7 1.299 . S
O14 Zn2 2.114 . S
O14 C16 1.166 . S
O15 Zn0 1.905 1_655 S
O15 C16 1.182 1_655 S
C16 O14 1.166 . S
C16 O15 1.182 1_455 S
O17 Zn2 2.080 . S
O17 C20 1.305 . S
O18 Zn1 1.920 . S
O18 C20 1.234 . S
C19 O5 1.305 . S
C19 O6 1.234 . S
C20 O17 1.305 . S
C20 O18 1.234 . S
Zn21 O27 1.920 . S
Zn21 O33 1.898 . S
Zn21 O36 1.905 1_655 S
Zn22 O30 1.905 . S
Zn22 O31 1.898 1_545 S
Zn22 O39 1.920 . S
Zn23 O26 2.080 . S
Zn23 O29 2.114 . S
Zn23 O32 2.120 . S
Zn23 O34 2.120 . S
Zn23 O35 2.114 . S
Zn23 O38 2.080 . S
C24 O29 1.166 . S
C24 O30 1.182 . S
C25 O31 1.167 1_545 S
C25 O32 1.299 . S
O26 Zn23 2.080 . S
O26 C40 1.305 . S
O27 Zn21 1.920 . S
O27 C40 1.234 . S
C28 O33 1.167 . S
C28 O34 1.299 . S
O29 Zn23 2.114 . S
O29 C24 1.166 . S
O30 Zn22 1.905 . S
O30 C24 1.182 . S
O31 Zn22 1.898 1_565 S
O31 C25 1.167 1_565 S
O32 Zn23 2.120 . S
O32 C25 1.299 . S
O33 Zn21 1.898 . S
O33 C28 1.167 . S
O34 Zn23 2.120 . S
O34 C28 1.299 . S
O35 Zn23 2.114 . S
O35 C37 1.166 . S
O36 Zn21 1.905 1_455 S
O36 C37 1.182 1_455 S
C37 O35 1.166 . S
C37 O36 1.182 1_655 S
O38 Zn23 2.080 . S
O38 C41 1.305 . S
O39 Zn22 1.920 . S
O39 C41 1.234 . S
C40 O26 1.305 . S
C40 O27 1.234 . S
C41 O38 1.305 . S
C41 O39 1.234 . S
Zn42 O48 1.920 . S
Zn42 O54 1.898 1_565 S
Zn42 O57 1.905 . S
Zn43 O51 1.905 1_655 S
Zn43 O52 1.898 . S
Zn43 O60 1.920 . S
Zn44 O47 2.080 . S
Zn44 O50 2.114 . S
Zn44 O53 2.120 . S
Zn44 O55 2.120 . S
Zn44 O56 2.114 . S
Zn44 O59 2.080 . S
C45 O50 1.166 . S
C45 O51 1.182 1_655 S
C46 O52 1.167 . S
C46 O53 1.299 . S
O47 Zn44 2.080 . S
O47 C61 1.305 . S
O48 Zn42 1.920 . S
O48 C61 1.234 . S
C49 O54 1.167 1_565 S
C49 O55 1.299 . S
O50 Zn44 2.114 . S
O50 C45 1.166 . S
O51 Zn43 1.905 1_455 S
O51 C45 1.182 1_455 S
O52 Zn43 1.898 . S
O52 C46 1.167 . S
O53 Zn44 2.120 . S
O53 C46 1.299 . S
O54 Zn42 1.898 1_545 S
O54 C49 1.167 1_545 S
O55 Zn44 2.120 . S
O55 C49 1.299 . S
O56 Zn44 2.114 . S
O56 C58 1.166 . S
O57 Zn42 1.905 . S
O57 C58 1.182 . S
C58 O56 1.166 . S
C58 O57 1.182 . S
O59 Zn44 2.080 . S
O59 C62 1.305 . S
O60 Zn43 1.920 . S
O60 C62 1.234 . S
C61 O47 1.305 . S
C61 O48 1.234 . S
C62 O59 1.305 . S
C62 O60 1.234 . S
Zn63 O69 1.920 . S
Zn63 O75 1.898 1_455 S
Zn63 O78 1.905 . S
Zn64 O72 1.905 1_565 S
Zn64 O73 1.898 . S
Zn64 O81 1.920 . S
Zn65 O68 2.080 . S
Zn65 O71 2.114 . S
Zn65 O74 2.120 . S
Zn65 O76 2.120 . S
Zn65 O77 2.114 . S
Zn65 O80 2.080 . S
C66 O71 1.166 . S
C66 O72 1.182 1_565 S
C67 O73 1.167 . S
C67 O74 1.299 . S
O68 Zn65 2.080 . S
O68 C82 1.305 . S
O69 Zn63 1.920 . S
O69 C82 1.234 . S
C70 O75 1.167 1_455 S
C70 O76 1.299 . S
O71 Zn65 2.114 . S
O71 C66 1.166 . S
O72 Zn64 1.905 1_545 S
O72 C66 1.182 1_545 S
O73 Zn64 1.898 . S
O73 C67 1.167 . S
O74 Zn65 2.120 . S
O74 C67 1.299 . S
O75 Zn63 1.898 1_655 S
O75 C70 1.167 1_655 S
O76 Zn65 2.120 . S
O76 C70 1.299 . S
O77 Zn65 2.114 . S
O77 C79 1.166 . S
O78 Zn63 1.905 . S
O78 C79 1.182 . S
C79 O77 1.166 . S
C79 O78 1.182 . S
O80 Zn65 2.080 . S
O80 C83 1.305 . S
O81 Zn64 1.920 . S
O81 C83 1.234 . S
C82 O68 1.305 . S
C82 O69 1.234 . S
C83 O80 1.305 . S
C83 O81 1.234 . S
Zn84 O90 1.920 . S
Zn84 O96 1.898 . S
Zn84 O99 1.905 1_554 S
Zn85 O93 1.905 . S
Zn85 O94 1.898 1_545 S
Zn85 O102 1.920 . S
Zn86 O89 2.080 . S
Zn86 O92 2.114 . S
Zn86 O95 2.120 . S
Zn86 O97 2.120 . S
Zn86 O98 2.114 . S
Zn86 O101 2.080 . S
C87 O92 1.166 . S
C87 O93 1.182 . S
C88 O94 1.167 1_545 S
C88 O95 1.299 . S
O89 Zn86 2.080 . S
O89 C103 1.305 . S
O90 Zn84 1.920 . S
O90 C103 1.234 . S
C91 O96 1.167 . S
C91 O97 1.299 . S
O92 Zn86 2.114 . S
O92 C87 1.166 . S
O93 Zn85 1.905 . S
O93 C87 1.182 . S
O94 Zn85 1.898 1_565 S
O94 C88 1.167 1_565 S
O95 Zn86 2.120 . S
O95 C88 1.299 . S
O96 Zn84 1.898 . S
O96 C91 1.167 . S
O97 Zn86 2.120 . S
O97 C91 1.299 . S
O98 Zn86 2.114 . S
O98 C100 1.166 . S
O99 Zn84 1.905 1_556 S
O99 C100 1.182 1_556 S
C100 O98 1.166 . S
C100 O99 1.182 1_554 S
O101 Zn86 2.080 . S
O101 C104 1.305 . S
O102 Zn85 1.920 . S
O102 C104 1.234 . S
C103 O89 1.305 . S
C103 O90 1.234 . S
C104 O101 1.305 . S
C104 O102 1.234 . S
Zn105 O111 1.920 . S
Zn105 O117 1.898 . S
Zn105 O120 1.905 1_554 S
Zn106 O114 1.905 . S
Zn106 O115 1.898 1_655 S
Zn106 O123 1.920 . S
Zn107 O110 2.080 . S
Zn107 O113 2.114 . S
Zn107 O116 2.120 . S
Zn107 O118 2.120 . S
Zn107 O119 2.114 . S
Zn107 O122 2.080 . S
C108 O113 1.166 . S
C108 O114 1.182 . S
C109 O115 1.167 1_655 S
C109 O116 1.299 . S
O110 Zn107 2.080 . S
O110 C124 1.305 . S
O111 Zn105 1.920 . S
O111 C124 1.234 . S
C112 O117 1.167 . S
C112 O118 1.299 . S
O113 Zn107 2.114 . S
O113 C108 1.166 . S
O114 Zn106 1.905 . S
O114 C108 1.182 . S
O115 Zn106 1.898 1_455 S
O115 C109 1.167 1_455 S
O116 Zn107 2.120 . S
O116 C109 1.299 . S
O117 Zn105 1.898 . S
O117 C112 1.167 . S
O118 Zn107 2.120 . S
O118 C112 1.299 . S
O119 Zn107 2.114 . S
O119 C121 1.166 . S
O120 Zn105 1.905 1_556 S
O120 C121 1.182 1_556 S
C121 O119 1.166 . S
C121 O120 1.182 1_554 S
O122 Zn107 2.080 . S
O122 C125 1.305 . S
O123 Zn106 1.920 . S
O123 C125 1.234 . S
C124 O110 1.305 . S
C124 O111 1.234 . S
C125 O122 1.305 . S
C125 O123 1.234 . S
Zn126 O132 1.920 . S
Zn126 O138 1.898 1_565 S
Zn126 O141 1.905 . S
Zn127 O135 1.905 1_554 S
Zn127 O136 1.898 . S
Zn127 O144 1.920 . S
Zn128 O131 2.080 . S
Zn128 O134 2.114 . S
Zn128 O137 2.120 . S
Zn128 O139 2.120 . S
Zn128 O140 2.114 . S
Zn128 O143 2.080 . S
C129 O134 1.166 . S
C129 O135 1.182 1_554 S
C130 O136 1.167 . S
C130 O137 1.299 . S
O131 Zn128 2.080 . S
O131 C145 1.305 . S
O132 Zn126 1.920 . S
O132 C145 1.234 . S
C133 O138 1.167 1_565 S
C133 O139 1.299 . S
O134 Zn128 2.114 . S
O134 C129 1.166 . S
O135 Zn127 1.905 1_556 S
O135 C129 1.182 1_556 S
O136 Zn127 1.898 . S
O136 C130 1.167 . S
O137 Zn128 2.120 . S
O137 C130 1.299 . S
O138 Zn126 1.898 1_545 S
O138 C133 1.167 1_545 S
O139 Zn128 2.120 . S
O139 C133 1.299 . S
O140 Zn128 2.114 . S
O140 C142 1.166 . S
O141 Zn126 1.905 . S
O141 C142 1.182 . S
C142 O140 1.166 . S
C142 O141 1.182 . S
O143 Zn128 2.080 . S
O143 C146 1.305 . S
O144 Zn127 1.920 . S
O144 C146 1.234 . S
C145 O131 1.305 . S
C145 O132 1.234 . S
C146 O143 1.305 . S
C146 O144 1.234 . S
Zn147 O153 1.920 . S
Zn147 O159 1.898 . S
Zn147 O162 1.905 1_455 S
Zn148 O156 1.905 . S
Zn148 O157 1.898 1_554 S
Zn148 O165 1.920 . S
Zn149 O152 2.080 . S
Zn149 O155 2.114 . S
Zn149 O158 2.120 . S
Zn149 O160 2.120 . S
Zn149 O161 2.114 . S
Zn149 O164 2.080 . S
C150 O155 1.166 . S
C150 O156 1.182 . S
C151 O157 1.167 1_554 S
C151 O158 1.299 . S
O152 Zn149 2.080 . S
O152 C166 1.305 . S
O153 Zn147 1.920 . S
O153 C166 1.234 . S
C154 O159 1.167 . S
C154 O160 1.299 . S
O155 Zn149 2.114 . S
O155 C150 1.166 . S
O156 Zn148 1.905 . S
O156 C150 1.182 . S
O157 Zn148 1.898 1_556 S
O157 C151 1.167 1_556 S
O158 Zn149 2.120 . S
O158 C151 1.299 . S
O159 Zn147 1.898 . S
O159 C154 1.167 . S
O160 Zn149 2.120 . S
O160 C154 1.299 . S
O161 Zn149 2.114 . S
O161 C163 1.166 . S
O162 Zn147 1.905 1_655 S
O162 C163 1.182 1_655 S
C163 O161 1.166 . S
C163 O162 1.182 1_455 S
O164 Zn149 2.080 . S
O164 C167 1.305 . S
O165 Zn148 1.920 . S
O165 C167 1.234 . S
C166 O152 1.305 . S
C166 O153 1.234 . S
C167 O164 1.305 . S
C167 O165 1.234 . S
Zn168 O174 1.920 . S
Zn168 O180 1.898 1_556 S
Zn168 O183 1.905 . S
Zn169 O177 1.905 1_565 S
Zn169 O178 1.898 . S
Zn169 O186 1.920 . S
Zn170 O173 2.080 . S
Zn170 O176 2.114 . S
Zn170 O179 2.120 . S
Zn170 O181 2.120 . S
Zn170 O182 2.114 . S
Zn170 O185 2.080 . S
C171 O176 1.166 . S
C171 O177 1.182 1_565 S
C172 O178 1.167 . S
C172 O179 1.299 . S
O173 Zn170 2.080 . S
O173 C187 1.305 . S
O174 Zn168 1.920 . S
O174 C187 1.234 . S
C175 O180 1.167 1_556 S
C175 O181 1.299 . S
O176 Zn170 2.114 . S
O176 C171 1.166 . S
O177 Zn169 1.905 1_545 S
O177 C171 1.182 1_545 S
O178 Zn169 1.898 . S
O178 C172 1.167 . S
O179 Zn170 2.120 . S
O179 C172 1.299 . S
O180 Zn168 1.898 1_554 S
O180 C175 1.167 1_554 S
O181 Zn170 2.120 . S
O181 C175 1.299 . S
O182 Zn170 2.114 . S
O182 C184 1.166 . S
O183 Zn168 1.905 . S
O183 C184 1.182 . S
C184 O182 1.166 . S
C184 O183 1.182 . S
O185 Zn170 2.080 . S
O185 C188 1.305 . S
O186 Zn169 1.920 . S
O186 C188 1.234 . S
C187 O173 1.305 . S
C187 O174 1.234 . S
C188 O185 1.305 . S
C188 O186 1.234 . S
Zn189 O195 1.920 . S
Zn189 O201 1.898 1_455 S
Zn189 O204 1.905 . S
Zn190 O198 1.905 1_556 S
Zn190 O199 1.898 . S
Zn190 O207 1.920 . S
Zn191 O194 2.080 . S
Zn191 O197 2.114 . S
Zn191 O200 2.120 . S
Zn191 O202 2.120 . S
Zn191 O203 2.114 . S
Zn191 O206 2.080 . S
C192 O197 1.166 . S
C192 O198 1.182 1_556 S
C193 O199 1.167 . S
C193 O200 1.299 . S
O194 Zn191 2.080 . S
O194 C208 1.305 . S
O195 Zn189 1.920 . S
O195 C208 1.234 . S
C196 O201 1.167 1_455 S
C196 O202 1.299 . S
O197 Zn191 2.114 . S
O197 C192 1.166 . S
O198 Zn190 1.905 1_554 S
O198 C192 1.182 1_554 S
O199 Zn190 1.898 . S
O199 C193 1.167 . S
O200 Zn191 2.120 . S
O200 C193 1.299 . S
O201 Zn189 1.898 1_655 S
O201 C196 1.167 1_655 S
O202 Zn191 2.120 . S
O202 C196 1.299 . S
O203 Zn191 2.114 . S
O203 C205 1.166 . S
O204 Zn189 1.905 . S
O204 C205 1.182 . S
C205 O203 1.166 . S
C205 O204 1.182 . S
O206 Zn191 2.080 . S
O206 C209 1.305 . S
O207 Zn190 1.920 . S
O207 C209 1.234 . S
C208 O194 1.305 . S
C208 O195 1.234 . S
C209 O206 1.305 . S
C209 O207 1.234 . S
Zn210 O216 1.920 . S
Zn210 O222 1.898 1_556 S
Zn210 O225 1.905 . S
Zn211 O219 1.905 1_545 S
Zn211 O220 1.898 . S
Zn211 O228 1.920 . S
Zn212 O215 2.080 . S
Zn212 O218 2.114 . S
Zn212 O221 2.120 . S
Zn212 O223 2.120 . S
Zn212 O224 2.114 . S
Zn212 O227 2.080 . S
C213 O218 1.166 . S
C213 O219 1.182 1_545 S
C214 O220 1.167 . S
C214 O221 1.299 . S
O215 Zn212 2.080 . S
O215 C229 1.305 . S
O216 Zn210 1.920 . S
O216 C229 1.234 . S
C217 O222 1.167 1_556 S
C217 O223 1.299 . S
O218 Zn212 2.114 . S
O218 C213 1.166 . S
O219 Zn211 1.905 1_565 S
O219 C213 1.182 1_565 S
O220 Zn211 1.898 . S
O220 C214 1.167 . S
O221 Zn212 2.120 . S
O221 C214 1.299 . S
O222 Zn210 1.898 1_554 S
O222 C217 1.167 1_554 S
O223 Zn212 2.120 . S
O223 C217 1.299 . S
O224 Zn212 2.114 . S
O224 C226 1.166 . S
O225 Zn210 1.905 . S
O225 C226 1.182 . S
C226 O224 1.166 . S
C226 O225 1.182 . S
O227 Zn212 2.080 . S
O227 C230 1.305 . S
O228 Zn211 1.920 . S
O228 C230 1.234 . S
C229 O215 1.305 . S
C229 O216 1.234 . S
C230 O227 1.305 . S
C230 O228 1.234 . S
Zn231 O237 1.920 . S
Zn231 O243 1.898 1_655 S
Zn231 O246 1.905 . S
Zn232 O240 1.905 1_556 S
Zn232 O241 1.898 . S
Zn232 O249 1.920 . S
Zn233 O236 2.080 . S
Zn233 O239 2.114 . S
Zn233 O242 2.120 . S
Zn233 O244 2.120 . S
Zn233 O245 2.114 . S
Zn233 O248 2.080 . S
C234 O239 1.166 . S
C234 O240 1.182 1_556 S
C235 O241 1.167 . S
C235 O242 1.299 . S
O236 Zn233 2.080 . S
O236 C250 1.305 . S
O237 Zn231 1.920 . S
O237 C250 1.234 . S
C238 O243 1.167 1_655 S
C238 O244 1.299 . S
O239 Zn233 2.114 . S
O239 C234 1.166 . S
O240 Zn232 1.905 1_554 S
O240 C234 1.182 1_554 S
O241 Zn232 1.898 . S
O241 C235 1.167 . S
O242 Zn233 2.120 . S
O242 C235 1.299 . S
O243 Zn231 1.898 1_455 S
O243 C238 1.167 1_455 S
O244 Zn233 2.120 . S
O244 C238 1.299 . S
O245 Zn233 2.114 . S
O245 C247 1.166 . S
O246 Zn231 1.905 . S
O246 C247 1.182 . S
C247 O245 1.166 . S
C247 O246 1.182 . S
O248 Zn233 2.080 . S
O248 C251 1.305 . S
O249 Zn232 1.920 . S
O249 C251 1.234 . S
C250 O236 1.305 . S
C250 O237 1.234 . S
C251 O248 1.305 . S
C251 O249 1.234 . S
C7 C166 1.750 . S
C87 C41 1.791 . S
C46 C108 1.787 . S
C67 C142 1.744 . S
C82 C205 1.817 . S
C20 C230 1.798 . S
C247 C28 1.774 . S
C61 C188 1.811 . S
C104 C3 1.831 . S
C125 C40 1.787 . S
C145 C58 1.814 . S
C79 C154 1.750 . S
C83 C172 1.748 . S
C19 C208 1.803 . S
C214 C24 1.760 . S
C250 C62 1.772 . S
C103 C167 1.799 . S
C193 C184 1.779 . S
C209 C229 1.775 . S
C235 C226 1.780 . S
C251 C187 1.789 . S
C146 C112 1.739 . S
C130 C150 1.764 . S
C91 C124 1.758 . S
C66 C4 1.505 1_565 S
C16 C37 1.587 1_455 S
C25 C49 1.441 1_545 S
C70 C45 1.517 1_455 S
C217 C100 1.495 1_556 S
C234 C121 1.574 1_556 S
C129 C175 1.491 1_554 S
C192 C151 1.510 1_556 S
C163 C109 1.493 1_455 S
C238 C196 1.434 1_655 S
C213 C171 1.589 1_545 S
C133 C88 1.456 1_565 S
