# Generated by pormake.
# Topology sxa, (6)-cn, num edge types: 1
# Building blocks:
#     Node 0, Type 0, BuildingBlock: VOLQOD_clean_sbu_1, # of connection points: 6
#     Node 1, Type 0, BuildingBlock: VOLQOD_clean_sbu_1, # of connection points: 6
#     Node 2, Type 0, BuildingBlock: VOLQOD_clean_sbu_1, # of connection points: 6
#     Node 3, Type 0, BuildingBlock: VOLQOD_clean_sbu_1, # of connection points: 6
#     Edge 4, Type (0, 0), BuildingBlock: XIVTED_clean_linker_0, # of connection points: 2
#     Edge 5, Type (0, 0), BuildingBlock: XIVTED_clean_linker_0, # of connection points: 2
#     Edge 6, Type (0, 0), BuildingBlock: XIVTED_clean_linker_0, # of connection points: 2
#     Edge 7, Type (0, 0), BuildingBlock: XIVTED_clean_linker_0, # of connection points: 2
#     Edge 8, Type (0, 0), BuildingBlock: XIVTED_clean_linker_0, # of connection points: 2
#     Edge 9, Type (0, 0), BuildingBlock: XIVTED_clean_linker_0, # of connection points: 2
#     Edge 10, Type (0, 0), BuildingBlock: XIVTED_clean_linker_0, # of connection points: 2
#     Edge 11, Type (0, 0), BuildingBlock: XIVTED_clean_linker_0, # of connection points: 2
#     Edge 12, Type (0, 0), BuildingBlock: XIVTED_clean_linker_0, # of connection points: 2
#     Edge 13, Type (0, 0), BuildingBlock: XIVTED_clean_linker_0, # of connection points: 2
#     Edge 14, Type (0, 0), BuildingBlock: XIVTED_clean_linker_0, # of connection points: 2
#     Edge 15, Type (0, 0), BuildingBlock: XIVTED_clean_linker_0, # of connection points: 2
# Relax obj value: 0.229
# Max RMSD: 0.203
# Mean RMSD: 0.203
data_MOF--net-sxa--node1-VOLQOD_clean_sbu_1--edge1-XIVTED_clean_linker_0
_symmetry_space_group_name_H-M    P1
_symmetry_Int_Tables_number       1
_symmetry_cell_setting            triclinic
loop_
_symmetry_equiv_pos_as_xyz
'x, y, z'
_cell_length_a     25.600117
_cell_length_b     30.488236
_cell_length_c     17.963231
_cell_angle_alpha  89.569509
_cell_angle_beta   90.682315
_cell_angle_gamma 90.616461
loop_
_atom_site_label
_atom_site_type_symbol
_atom_site_fract_x
_atom_site_fract_y
_atom_site_fract_z
_atom_type_partial_charge
O0 O 0.96883 0.75238 0.38944 0.0
Zn1 Zn 0.02154 0.74776 0.30517 0.0
O2 O 0.00449 0.7961 0.23986 0.0
Zn3 Zn 0.96539 0.77531 0.15503 0.0
Zn4 Zn 0.96378 0.84025 0.28909 0.0
Zn5 Zn 0.06692 0.82228 0.20467 0.0
O6 O -0.00489 0.79793 0.05881 0.0
O7 O 0.07738 0.80218 0.10097 0.0
O8 O 0.01726 0.689 0.24713 0.0
O9 O 0.97331 0.7113 0.14669 0.0
O10 O 0.88929 0.78549 0.16781 0.0
O11 O 0.8886 0.83271 0.26125 0.0
O12 O -0.0155 0.90243 0.25208 0.0
O13 O 0.09605 0.75569 0.34506 0.0
O14 O 0.05694 0.88652 0.19171 0.0
O15 O 0.12849 0.80847 0.27229 0.0
C16 C 0.95121 0.7859 0.42346 0.0
C17 C 0.0441 0.80026 0.04768 0.0
C18 C 0.8648 0.80889 0.21389 0.0
C19 C -0.00466 0.68116 0.18415 0.0
C20 C 0.02247 0.91399 0.21022 0.0
C21 C 0.13379 0.78094 0.32568 0.0
O22 O 0.96006 0.82503 0.39951 0.0
O23 O 0.43268 0.23288 0.35182 0.0
Zn24 Zn 0.50564 0.22226 0.31248 0.0
O25 O 0.52166 0.26724 0.24182 0.0
Zn26 Zn 0.56488 0.24509 0.16471 0.0
Zn27 Zn 0.45903 0.28561 0.19584 0.0
Zn28 Zn 0.55609 0.31612 0.28853 0.0
O29 O 0.63965 0.26222 0.18182 0.0
O30 O 0.63215 0.31458 0.26617 0.0
O31 O 0.50995 0.16162 0.26043 0.0
O32 O 0.56017 0.18031 0.16473 0.0
O33 O 0.53597 0.26226 0.06374 0.0
O34 O 0.45331 0.2542 0.09944 0.0
O35 O 0.46725 0.34932 0.168 0.0
O36 O 0.55882 0.23241 0.39596 0.0
O37 O 0.52995 0.37426 0.24379 0.0
O38 O 0.55795 0.3056 0.40005 0.0
C39 C 0.39373 0.25401 0.32534 0.0
C40 C 0.65995 0.29071 0.2251 0.0
C41 C 0.48792 0.25475 0.04892 0.0
C42 C 0.53549 0.15151 0.20219 0.0
C43 C 0.49654 0.38052 0.19124 0.0
C44 C 0.57193 0.26854 0.42753 0.0
O45 O 0.39677 0.27503 0.26371 0.0
O46 O 0.06276 0.25878 0.68103 0.0
Zn47 Zn 0.00905 0.25219 0.76533 0.0
O48 O 0.02458 0.29968 0.83354 0.0
Zn49 Zn 0.05473 0.27651 0.92333 0.0
Zn50 Zn 0.07431 0.34067 0.79314 0.0
Zn51 Zn 0.96387 0.33151 0.85884 0.0
O52 O 0.02836 0.30656 1.01391 0.0
O53 O 0.94937 0.32056 0.96619 0.0
O54 O 0.01078 0.19203 0.82235 0.0
O55 O 0.03117 0.21529 0.93625 0.0
O56 O 0.13265 0.27517 0.91527 0.0
O57 O 0.14592 0.32414 0.82537 0.0
O58 O 0.06095 0.40271 0.831 0.0
O59 O 0.9347 0.26033 0.72441 0.0
O60 O 0.97694 0.39633 0.85848 0.0
O61 O 0.90303 0.31472 0.79212 0.0
C62 C 0.08405 0.29331 0.65276 0.0
C63 C 0.98079 0.3172 1.02155 0.0
C64 C 0.16312 0.29625 0.87206 0.0
C65 C 0.01689 0.18496 0.89236 0.0
C66 C 0.01862 0.4193 0.85432 0.0
C67 C 0.89744 0.28596 0.74125 0.0
O68 O 0.07931 0.331 0.68284 0.0
O69 O 0.59817 0.73606 0.72649 0.0
Zn70 Zn 0.52304 0.72677 0.7642 0.0
O71 O 0.50718 0.77341 0.83174 0.0
Zn72 Zn 0.46817 0.75199 0.91447 0.0
Zn73 Zn 0.56945 0.79745 0.87197 0.0
Zn74 Zn 0.46727 0.81905 0.78508 0.0
O75 O 0.39125 0.75919 0.89651 0.0
O76 O 0.39195 0.80991 0.80733 0.0
O77 O 0.51688 0.66646 0.82057 0.0
O78 O 0.48297 0.68906 0.92699 0.0
O79 O 0.49438 0.77902 1.0096 0.0
O80 O 0.57761 0.77444 0.97561 0.0
O81 O 0.56124 0.86177 0.88726 0.0
O82 O 0.47061 0.73586 0.67839 0.0
O83 O 0.48746 0.87929 0.8285 0.0
O84 O 0.46731 0.80912 0.67399 0.0
C85 C 0.63587 0.76066 0.74926 0.0
C86 C 0.36733 0.78416 0.85067 0.0
C87 C 0.54288 0.77737 1.02566 0.0
C88 C 0.5016 0.65886 0.88727 0.0
C89 C 0.52644 0.88969 0.87018 0.0
C90 C 0.456 0.77152 0.64624 0.0
O91 O 0.63066 0.78552 0.80549 0.0
H92 H 0.10196 0.46377 0.91788 0.0
H93 H 0.91721 0.63983 0.10982 0.0
H94 H 0.93542 0.47169 0.88171 0.0
H95 H 0.07944 0.62598 0.17128 0.0
H96 H 0.9246 0.57823 1.02529 0.0
H97 H 0.09708 0.52547 1.00471 0.0
C98 C 0.06461 0.47915 0.92661 0.0
C99 C 0.01902 0.46251 0.89211 0.0
C100 C 0.9586 0.58807 0.05774 0.0
C101 C 0.01301 0.5323 0.99293 0.0
C102 C 0.95421 0.62302 0.10668 0.0
C103 C -0.0024 0.6377 0.14825 0.0
C104 C 0.00708 0.56774 0.04896 0.0
C105 C 0.04481 0.61515 0.14121 0.0
C106 C 0.06175 0.51393 0.97712 0.0
C107 C 0.9716 0.4833 0.90683 0.0
N108 N 0.04849 0.5815 0.09178 0.0
N109 N 0.96985 0.51679 0.95617 0.0
H110 H 0.54612 0.45863 0.22614 0.0
H111 H 0.48032 0.57536 0.83341 0.0
H112 H 0.44872 0.39817 0.05707 0.0
H113 H 0.53624 0.6446 1.02747 0.0
H114 H 0.47969 0.50673 0.90746 0.0
H115 H 0.55212 0.52473 0.14812 0.0
C116 C 0.52557 0.45933 0.17309 0.0
C117 C 0.49646 0.42276 0.14882 0.0
C118 C 0.49251 0.53698 0.93343 0.0
C119 C 0.50424 0.49812 0.05807 0.0
C120 C 0.49338 0.57593 0.89096 0.0
C121 C 0.50822 0.61563 0.92443 0.0
C122 C 0.50731 0.53787 1.00932 0.0
C123 C 0.5242 0.61471 0.99959 0.0
C124 C 0.52922 0.49702 0.12831 0.0
C125 C 0.47115 0.42562 0.07881 0.0
N126 N 0.52328 0.57665 0.03932 0.0
N127 N 0.47585 0.46243 1.03589 0.0
H128 H 0.61198 0.93198 0.92727 0.0
H129 H 0.44929 0.09925 0.17505 0.0
H130 H 0.44429 0.94174 0.91086 0.0
H131 H 0.61631 0.10518 0.14929 0.0
H132 H 0.4457 0.03603 0.09027 0.0
H133 H 0.61347 0.99215 1.01581 0.0
C134 C 0.57547 0.94738 0.94122 0.0
C135 C 0.52799 0.93195 0.9109 0.0
C136 C 0.48318 0.05077 0.10421 0.0
C137 C 0.52921 1.00045 1.01469 0.0
C138 C 0.48531 0.08627 0.15363 0.0
C139 C 0.53327 0.10701 0.16993 0.0
C140 C 0.5294 0.03593 0.07148 0.0
C141 C 0.57862 0.08984 0.13875 0.0
C142 C 0.57629 0.98157 0.99241 0.0
C143 C 0.48186 0.95299 0.9319 0.0
N144 N 0.57556 0.05553 0.09106 0.0
N145 N 0.48355 0.9859 0.98303 0.0
H146 H 0.09665 0.94638 0.11574 0.0
H147 H 0.94952 0.16585 1.00278 0.0
H148 H 0.94753 0.97909 0.20926 0.0
H149 H 0.06643 0.10725 0.866 0.0
H150 H 0.9492 0.1003 0.08257 0.0
H151 H 0.08989 1.00917 1.03204 0.0
C152 C 0.0627 0.96709 0.11971 0.0
C153 C 0.02251 0.95707 0.17015 0.0
C154 C 0.97418 0.1013 1.03435 0.0
C155 C 0.01445 1.02942 0.07266 0.0
C156 C 0.97402 0.13849 0.98837 0.0
C157 C 0.00734 0.14152 0.92692 0.0
C158 C 0.00903 0.06727 1.02009 0.0
C159 C 0.03936 0.10577 0.91182 0.0
C160 C 0.0587 1.00279 0.07099 0.0
C161 C 0.97962 0.98547 0.17188 0.0
N162 N 0.03993 0.07035 0.95869 0.0
N163 N 0.97672 1.0203 0.12381 0.0
H164 H 0.39779 0.70046 0.59997 0.0
H165 H 0.21631 0.83913 0.32068 0.0
H166 H 0.42287 0.83821 0.5539 0.0
H167 H 0.16814 0.71658 0.42184 0.0
H168 H 0.29953 0.83472 0.38867 0.0
H169 H 0.32211 0.70105 0.51563 0.0
C170 C 0.38815 0.73065 0.57102 0.0
C171 C 0.41678 0.76944 0.58457 0.0
C172 C 0.27078 0.80875 0.39576 0.0
C173 C 0.3296 0.77031 0.48828 0.0
C174 C 0.22322 0.81119 0.35691 0.0
C175 C 0.18485 0.7783 0.36579 0.0
C176 C 0.28052 0.7729 0.44327 0.0
C177 C 0.19627 0.74289 0.41361 0.0
C178 C 0.34455 0.73101 0.52338 0.0
C179 C 0.40192 0.80757 0.54559 0.0
N180 N 0.24301 0.74111 0.45041 0.0
N181 N 0.35927 0.80709 0.49959 0.0
H182 H 0.08843 0.23216 0.5399 0.0
H183 H 0.3862 0.25586 0.47632 0.0
H184 H 0.17188 0.34267 0.6341 0.0
H185 H 0.29163 0.25927 0.27603 0.0
H186 H 0.30716 0.26578 0.55006 0.0
H187 H 0.16181 0.22128 0.45384 0.0
C188 C 0.12169 0.2544 0.54182 0.0
C189 C 0.12373 0.28868 0.59371 0.0
C190 C 0.30386 0.2639 0.48997 0.0
C191 C 0.20783 0.27532 0.49825 0.0
C192 C 0.34874 0.25805 0.44792 0.0
C193 C 0.34546 0.25683 0.36992 0.0
C194 C 0.25512 0.26721 0.45409 0.0
C195 C 0.29582 0.26027 0.33604 0.0
C196 C 0.16333 0.24815 0.49293 0.0
C197 C 0.16813 0.31625 0.59439 0.0
N198 N 0.25235 0.26496 0.3784 0.0
N199 N 0.20874 0.30847 0.54847 0.0
H200 H 0.81609 0.34378 0.74209 0.0
H201 H 0.63077 0.19909 0.47626 0.0
H202 H 0.86187 0.21986 0.64968 0.0
H203 H 0.60686 0.33705 0.51438 0.0
H204 H 0.70755 0.20185 0.55824 0.0
H205 H 0.73252 0.33769 0.67543 0.0
C206 C 0.8086 0.31519 0.708 0.0
C207 C 0.84638 0.28237 0.70129 0.0
C208 C 0.68517 0.2314 0.54924 0.0
C209 C 0.75026 0.27509 0.62528 0.0
C210 C 0.64095 0.22982 0.50291 0.0
C211 C 0.61224 0.26799 0.48784 0.0
C212 C 0.70074 0.27133 0.58147 0.0
C213 C 0.62779 0.30683 0.52396 0.0
C214 C 0.76082 0.31181 0.6699 0.0
C215 C 0.83421 0.24612 0.65618 0.0
N216 N 0.67107 0.30754 0.56873 0.0
N217 N 0.78724 0.24344 0.62005 0.0
H218 H 0.8995 0.70982 0.46161 0.0
H219 H 0.71505 0.82155 0.76113 0.0
H220 H 0.91196 0.84656 0.52052 0.0
H221 H 0.67172 0.70353 0.6433 0.0
H222 H 0.79575 0.82579 0.68997 0.0
H223 H 0.82548 0.70169 0.54563 0.0
C224 C 0.88744 0.73801 0.49319 0.0
C225 C 0.91222 0.77905 0.4836 0.0
C226 C 0.76869 0.79888 0.67989 0.0
C227 C 0.8269 0.7698 0.57989 0.0
C228 C 0.72256 0.79628 0.7207 0.0
C229 C 0.68616 0.76215 0.70819 0.0
C230 C 0.7792 0.76682 0.62661 0.0
C231 C 0.69834 0.73054 0.6547 0.0
C232 C 0.84477 0.73335 0.54068 0.0
C233 C 0.89419 0.81433 0.52582 0.0
N234 N 0.74379 0.7336 0.61605 0.0
N235 N 0.85266 0.80892 0.57191 0.0
H236 H 0.30251 0.8469 0.79337 0.0
H237 H 0.05924 0.72608 0.97091 0.0
H238 H 0.30164 0.71859 0.89678 0.0
H239 H 0.08009 0.8663 0.96055 0.0
H240 H 0.13075 0.71791 0.88301 0.0
H241 H 0.20701 0.84763 0.79935 0.0
C242 C 0.28219 0.81862 0.81631 0.0
C243 C 0.30991 0.7832 0.84692 0.0
C244 C 0.11806 0.75054 0.89727 0.0
C245 C 0.20126 0.78347 0.85186 0.0
C246 C 0.07696 0.7552 0.94659 0.0
C247 C 0.06464 0.79686 0.97282 0.0
C248 C 0.14677 0.78786 0.87544 0.0
C249 C 0.08901 0.83367 0.94128 0.0
C250 C 0.22783 0.81898 0.81907 0.0
C251 C 0.28176 0.74712 0.87471 0.0
N252 N 0.13004 0.82832 0.8953 0.0
N253 N 0.2289 0.7484 0.87733 0.0
H254 H 0.20783 0.21954 0.91497 0.0
H255 H 0.47903 0.32184 0.9507 0.0
H256 H 0.24423 0.3467 0.8207 0.0
H257 H 0.44863 0.18365 0.97865 0.0
H258 H 0.4028 0.32701 0.86856 0.0
H259 H 0.29999 0.20131 0.91221 0.0
C260 C 0.2354 0.24372 0.89405 0.0
C261 C 0.21879 0.2852 0.87044 0.0
C262 C 0.41403 0.29506 0.88962 0.0
C263 C 0.32448 0.26456 0.86645 0.0
C264 C 0.45813 0.29204 0.93559 0.0
C265 C 0.46878 0.2525 0.97244 0.0
C266 C 0.38063 0.25837 0.88261 0.0
C267 C 0.44065 0.21487 0.9519 0.0
C268 C 0.28798 0.23306 0.89116 0.0
C269 C 0.25579 0.31471 0.84117 0.0
N270 N 0.39652 0.21894 0.91022 0.0
N271 N 0.30719 0.30419 0.84154 0.0
H272 H 0.71679 0.36331 0.2652 0.0
H273 H 0.97441 0.25201 0.12384 0.0
H274 H 0.73263 0.22869 0.19709 0.0
H275 H 0.93324 0.38673 0.08275 0.0
H276 H 0.90421 0.2463 0.21507 0.0
H277 H 0.81192 0.3726 0.25824 0.0
C278 C 0.74038 0.33556 0.25002 0.0
C279 C 0.71702 0.29561 0.22911 0.0
C280 C 0.91222 0.27768 0.18866 0.0
C281 C 0.82501 0.30563 0.22362 0.0
C282 C 0.95244 0.28104 0.13726 0.0
C283 C 0.95846 0.31966 0.09557 0.0
C284 C 0.87849 0.31323 0.19752 0.0
C285 C 0.92892 0.35629 0.11369 0.0
C286 C 0.79446 0.34079 0.24677 0.0
C287 C 0.74916 0.26044 0.2112 0.0
N288 N 0.88919 0.35196 0.16245 0.0
N289 N 0.80161 0.26641 0.208 0.0
H290 H 0.79407 0.87073 0.25529 0.0
H291 H 0.56862 0.71194 0.12042 0.0
H292 H 0.80689 0.73605 0.18638 0.0
H293 H 0.56331 0.85256 0.09929 0.0
H294 H 0.64014 0.71937 0.2108 0.0
H295 H 0.69836 0.86212 0.25527 0.0
C296 C 0.77668 0.83932 0.24092 0.0
C297 C 0.80785 0.80449 0.21801 0.0
C298 C 0.62177 0.74872 0.18904 0.0
C299 C 0.69981 0.79398 0.22119 0.0
C300 C 0.58063 0.74444 0.13824 0.0
C301 C 0.56123 0.78172 0.10216 0.0
C302 C 0.64408 0.7904 0.20119 0.0
C303 C 0.57806 0.82314 0.126 0.0
C304 C 0.7224 0.83432 0.24182 0.0
C305 C 0.78395 0.76416 0.20167 0.0
N306 N 0.62001 0.82648 0.17254 0.0
N307 N 0.7313 0.76012 0.20298 0.0
loop_
_geom_bond_atom_site_label_1
_geom_bond_atom_site_label_2
_geom_bond_distance
_geom_bond_site_symmetry_2
_ccdc_geom_bond_type
O0 Zn1 1.953 1_655 S
O0 C16 1.225 . S
Zn1 O0 1.953 1_455 S
Zn1 O2 1.949 . S
Zn1 O8 1.919 . S
Zn1 O13 1.924 . S
O2 Zn1 1.949 . S
O2 Zn3 1.923 . S
O2 Zn4 1.950 1_455 S
O2 Zn5 1.945 . S
Zn3 O2 1.923 . S
Zn3 O6 1.933 . S
Zn3 O9 1.941 . S
Zn3 O10 1.965 1_455 S
Zn4 O2 1.950 1_655 S
Zn4 O11 1.938 . S
Zn4 O12 1.906 1_655 S
Zn4 O22 1.953 . S
Zn5 O2 1.945 . S
Zn5 O7 1.932 . S
Zn5 O14 1.977 . S
Zn5 O15 1.910 . S
O6 Zn3 1.933 . S
O6 C17 1.226 . S
O7 Zn5 1.932 . S
O7 C17 1.307 . S
O8 Zn1 1.919 . S
O8 C19 1.253 . S
O9 Zn3 1.941 . S
O9 C19 1.283 . S
O10 Zn3 1.965 1_655 S
O10 C18 1.303 . S
O11 Zn4 1.938 . S
O11 C18 1.247 . S
O12 Zn4 1.906 1_455 S
O12 C20 1.303 . S
O13 Zn1 1.924 . S
O13 C21 1.311 . S
O14 Zn5 1.977 . S
O14 C20 1.272 . S
O15 Zn5 1.910 . S
O15 C21 1.231 . S
C16 O0 1.225 . S
C16 O22 1.298 . S
C17 O6 1.226 . S
C17 O7 1.307 . S
C18 O10 1.303 . S
C18 O11 1.247 . S
C19 O8 1.253 . S
C19 O9 1.283 . S
C20 O12 1.303 . S
C20 O14 1.272 . S
C21 O13 1.311 . S
C21 O15 1.231 . S
O22 Zn4 1.953 . S
O22 C16 1.298 . S
O23 Zn24 1.953 . S
O23 C39 1.225 . S
Zn24 O23 1.953 . S
Zn24 O25 1.949 . S
Zn24 O31 1.919 . S
Zn24 O36 1.924 . S
O25 Zn24 1.949 . S
O25 Zn26 1.923 . S
O25 Zn27 1.950 . S
O25 Zn28 1.945 . S
Zn26 O25 1.923 . S
Zn26 O29 1.933 . S
Zn26 O32 1.941 . S
Zn26 O33 1.965 . S
Zn27 O25 1.950 . S
Zn27 O34 1.938 . S
Zn27 O35 1.906 . S
Zn27 O45 1.953 . S
Zn28 O25 1.945 . S
Zn28 O30 1.932 . S
Zn28 O37 1.977 . S
Zn28 O38 1.910 . S
O29 Zn26 1.933 . S
O29 C40 1.226 . S
O30 Zn28 1.932 . S
O30 C40 1.307 . S
O31 Zn24 1.919 . S
O31 C42 1.253 . S
O32 Zn26 1.941 . S
O32 C42 1.283 . S
O33 Zn26 1.965 . S
O33 C41 1.303 . S
O34 Zn27 1.938 . S
O34 C41 1.247 . S
O35 Zn27 1.906 . S
O35 C43 1.304 . S
O36 Zn24 1.924 . S
O36 C44 1.311 . S
O37 Zn28 1.977 . S
O37 C43 1.272 . S
O38 Zn28 1.910 . S
O38 C44 1.231 . S
C39 O23 1.225 . S
C39 O45 1.298 . S
C40 O29 1.226 . S
C40 O30 1.307 . S
C41 O33 1.303 . S
C41 O34 1.247 . S
C42 O31 1.253 . S
C42 O32 1.283 . S
C43 O35 1.304 . S
C43 O37 1.272 . S
C44 O36 1.311 . S
C44 O38 1.231 . S
O45 Zn27 1.953 . S
O45 C39 1.298 . S
O46 Zn47 1.953 . S
O46 C62 1.225 . S
Zn47 O46 1.953 . S
Zn47 O48 1.949 . S
Zn47 O54 1.919 . S
Zn47 O59 1.924 1_455 S
O48 Zn47 1.949 . S
O48 Zn49 1.923 . S
O48 Zn50 1.950 . S
O48 Zn51 1.945 1_455 S
Zn49 O48 1.923 . S
Zn49 O52 1.933 1_455 S
Zn49 O55 1.941 . S
Zn49 O56 1.965 . S
Zn50 O48 1.950 . S
Zn50 O57 1.938 . S
Zn50 O58 1.906 . S
Zn50 O68 1.953 . S
Zn51 O48 1.945 1_655 S
Zn51 O53 1.932 . S
Zn51 O60 1.977 . S
Zn51 O61 1.910 . S
O52 Zn49 1.933 1_655 S
O52 C63 1.226 . S
O53 Zn51 1.932 . S
O53 C63 1.307 . S
O54 Zn47 1.919 . S
O54 C65 1.253 . S
O55 Zn49 1.941 . S
O55 C65 1.283 . S
O56 Zn49 1.965 . S
O56 C64 1.303 . S
O57 Zn50 1.938 . S
O57 C64 1.247 . S
O58 Zn50 1.906 . S
O58 C66 1.304 . S
O59 Zn47 1.924 1_655 S
O59 C67 1.311 . S
O60 Zn51 1.977 . S
O60 C66 1.272 1_655 S
O61 Zn51 1.910 . S
O61 C67 1.231 . S
C62 O46 1.225 . S
C62 O68 1.298 . S
C63 O52 1.226 . S
C63 O53 1.307 . S
C64 O56 1.303 . S
C64 O57 1.247 . S
C65 O54 1.253 . S
C65 O55 1.283 . S
C66 O58 1.304 . S
C66 O60 1.272 1_455 S
C67 O59 1.311 . S
C67 O61 1.231 . S
O68 Zn50 1.953 . S
O68 C62 1.298 . S
O69 Zn70 1.953 . S
O69 C85 1.225 . S
Zn70 O69 1.953 . S
Zn70 O71 1.949 . S
Zn70 O77 1.919 . S
Zn70 O82 1.924 . S
O71 Zn70 1.949 . S
O71 Zn72 1.923 . S
O71 Zn73 1.950 . S
O71 Zn74 1.945 . S
Zn72 O71 1.923 . S
Zn72 O75 1.933 . S
Zn72 O78 1.941 . S
Zn72 O79 1.965 . S
Zn73 O71 1.950 . S
Zn73 O80 1.938 . S
Zn73 O81 1.906 . S
Zn73 O91 1.953 . S
Zn74 O71 1.945 . S
Zn74 O76 1.932 . S
Zn74 O83 1.977 . S
Zn74 O84 1.910 . S
O75 Zn72 1.933 . S
O75 C86 1.226 . S
O76 Zn74 1.932 . S
O76 C86 1.307 . S
O77 Zn70 1.919 . S
O77 C88 1.253 . S
O78 Zn72 1.941 . S
O78 C88 1.283 . S
O79 Zn72 1.965 . S
O79 C87 1.303 . S
O80 Zn73 1.938 . S
O80 C87 1.247 . S
O81 Zn73 1.906 . S
O81 C89 1.304 . S
O82 Zn70 1.924 . S
O82 C90 1.311 . S
O83 Zn74 1.977 . S
O83 C89 1.272 . S
O84 Zn74 1.910 . S
O84 C90 1.231 . S
C85 O69 1.225 . S
C85 O91 1.298 . S
C86 O75 1.226 . S
C86 O76 1.307 . S
C87 O79 1.303 . S
C87 O80 1.247 . S
C88 O77 1.253 . S
C88 O78 1.283 . S
C89 O81 1.304 . S
C89 O83 1.272 . S
C90 O82 1.311 . S
C90 O84 1.231 . S
O91 Zn73 1.953 . S
O91 C85 1.298 . S
H92 C98 0.930 . S
H93 C102 0.928 1_655 S
H94 C107 0.929 . S
H95 C105 0.929 . S
H96 C100 0.929 1_556 S
H97 C106 0.929 1_554 S
C98 H92 0.930 . S
C98 C99 1.367 . S
C98 C106 1.378 . S
C99 C98 1.367 . S
C99 C107 1.433 1_455 S
C100 H96 0.929 1_554 S
C100 C102 1.378 1_655 S
C100 C104 1.350 1_655 S
C101 C104 1.463 1_556 S
C101 C106 1.350 . S
C101 N109 1.427 1_455 S
C102 H93 0.928 1_455 S
C102 C100 1.378 1_455 S
C102 C103 1.370 . S
C103 C102 1.370 . S
C103 C105 1.433 . S
C104 C100 1.350 1_455 S
C104 C101 1.463 1_554 S
C104 N108 1.427 . S
C105 H95 0.929 . S
C105 C103 1.433 . S
C105 N108 1.384 . S
C106 H97 0.929 1_556 S
C106 C98 1.378 . S
C106 C101 1.350 . S
C107 H94 0.929 . S
C107 C99 1.433 1_655 S
C107 N109 1.384 . S
N108 C104 1.427 . S
N108 C105 1.384 . S
N109 C101 1.427 1_655 S
N109 C107 1.384 . S
H110 C116 0.930 . S
H111 C120 0.930 . S
H112 C125 0.929 . S
H113 C123 0.929 . S
H114 C118 0.929 . S
H115 C124 0.929 . S
C116 H110 0.930 . S
C116 C117 1.367 . S
C116 C124 1.378 . S
C117 C116 1.367 . S
C117 C125 1.433 . S
C118 H114 0.929 . S
C118 C120 1.378 . S
C118 C122 1.350 . S
C119 C122 1.463 1_554 S
C119 C124 1.350 . S
C119 N127 1.427 . S
C120 H111 0.930 . S
C120 C118 1.378 . S
C120 C121 1.367 . S
C121 C120 1.367 . S
C121 C123 1.433 . S
C122 C118 1.350 . S
C122 C119 1.463 1_556 S
C122 N126 1.427 . S
C123 H113 0.929 . S
C123 C121 1.433 . S
C123 N126 1.384 . S
C124 H115 0.929 . S
C124 C116 1.378 . S
C124 C119 1.350 . S
C125 H112 0.929 . S
C125 C117 1.433 . S
C125 N127 1.384 . S
N126 C122 1.427 . S
N126 C123 1.384 . S
N127 C119 1.427 . S
N127 C125 1.384 . S
H128 C134 0.930 . S
H129 C138 0.930 . S
H130 C143 0.929 . S
H131 C141 0.929 . S
H132 C136 0.936 . S
H133 C142 0.929 1_554 S
C134 H128 0.930 . S
C134 C135 1.367 . S
C134 C142 1.378 . S
C135 C134 1.367 . S
C135 C143 1.433 . S
C136 H132 0.936 . S
C136 C138 1.373 1_556 S
C136 C140 1.348 1_556 S
C137 C140 1.463 1_566 S
C137 C142 1.350 . S
C137 N145 1.427 . S
C138 H129 0.930 . S
C138 C136 1.373 1_554 S
C138 C139 1.367 . S
C139 C138 1.367 . S
C139 C141 1.433 . S
C140 C136 1.348 1_554 S
C140 C137 1.463 1_544 S
C140 N144 1.427 . S
C141 H131 0.929 . S
C141 C139 1.433 . S
C141 N144 1.384 . S
C142 H133 0.929 1_556 S
C142 C134 1.378 . S
C142 C137 1.350 . S
C143 H130 0.929 . S
C143 C135 1.433 . S
C143 N145 1.384 . S
N144 C140 1.427 . S
N144 C141 1.384 . S
N145 C137 1.427 . S
N145 C143 1.384 . S
H146 C152 0.930 . S
H147 C156 0.930 . S
H148 C161 0.929 . S
H149 C159 0.929 . S
H150 C154 0.929 . S
H151 C160 0.929 . S
C152 H146 0.930 . S
C152 C153 1.367 . S
C152 C160 1.378 1_554 S
C153 C152 1.367 . S
C153 C161 1.433 . S
C154 H150 0.929 . S
C154 C156 1.378 1_554 S
C154 C158 1.350 1_554 S
C155 C158 1.463 1_564 S
C155 C160 1.350 1_554 S
C155 N163 1.427 . S
C156 H147 0.930 . S
C156 C154 1.378 1_556 S
C156 C157 1.367 . S
C157 C156 1.367 . S
C157 C159 1.433 . S
C158 C154 1.350 1_556 S
C158 C155 1.463 1_546 S
C158 N162 1.427 . S
C159 H149 0.929 . S
C159 C157 1.433 . S
C159 N162 1.384 . S
C160 H151 0.929 . S
C160 C152 1.378 1_556 S
C160 C155 1.350 1_556 S
C161 H148 0.929 . S
C161 C153 1.433 . S
C161 N163 1.384 . S
N162 C158 1.427 . S
N162 C159 1.384 . S
N163 C155 1.427 . S
N163 C161 1.384 . S
H164 C170 0.930 . S
H165 C174 0.930 . S
H166 C179 0.929 . S
H167 C177 0.929 . S
H168 C172 0.929 . S
H169 C178 0.929 . S
C170 H164 0.930 . S
C170 C171 1.367 . S
C170 C178 1.378 . S
C171 C170 1.367 . S
C171 C179 1.433 . S
C172 H168 0.929 . S
C172 C174 1.378 . S
C172 C176 1.350 . S
C173 C176 1.463 . S
C173 C178 1.350 . S
C173 N181 1.427 . S
C174 H165 0.930 . S
C174 C172 1.378 . S
C174 C175 1.367 . S
C175 C174 1.367 . S
C175 C177 1.433 . S
C176 C172 1.350 . S
C176 C173 1.463 . S
C176 N180 1.427 . S
C177 H167 0.929 . S
C177 C175 1.433 . S
C177 N180 1.384 . S
C178 H169 0.929 . S
C178 C170 1.378 . S
C178 C173 1.350 . S
C179 H166 0.929 . S
C179 C171 1.433 . S
C179 N181 1.384 . S
N180 C176 1.427 . S
N180 C177 1.384 . S
N181 C173 1.427 . S
N181 C179 1.384 . S
H182 C188 0.930 . S
H183 C192 0.930 . S
H184 C197 0.929 . S
H185 C195 0.929 . S
H186 C190 0.929 . S
H187 C196 0.929 . S
C188 H182 0.930 . S
C188 C189 1.367 . S
C188 C196 1.378 . S
C189 C188 1.367 . S
C189 C197 1.433 . S
C190 H186 0.929 . S
C190 C192 1.378 . S
C190 C194 1.350 . S
C191 C194 1.463 . S
C191 C196 1.350 . S
C191 N199 1.427 . S
C192 H183 0.930 . S
C192 C190 1.378 . S
C192 C193 1.367 . S
C193 C192 1.367 . S
C193 C195 1.433 . S
C194 C190 1.350 . S
C194 C191 1.463 . S
C194 N198 1.427 . S
C195 H185 0.929 . S
C195 C193 1.433 . S
C195 N198 1.384 . S
C196 H187 0.929 . S
C196 C188 1.378 . S
C196 C191 1.350 . S
C197 H184 0.929 . S
C197 C189 1.433 . S
C197 N199 1.384 . S
N198 C194 1.427 . S
N198 C195 1.384 . S
N199 C191 1.427 . S
N199 C197 1.384 . S
H200 C206 0.930 . S
H201 C210 0.930 . S
H202 C215 0.929 . S
H203 C213 0.929 . S
H204 C208 0.929 . S
H205 C214 0.929 . S
C206 H200 0.930 . S
C206 C207 1.367 . S
C206 C214 1.378 . S
C207 C206 1.367 . S
C207 C215 1.433 . S
C208 H204 0.929 . S
C208 C210 1.378 . S
C208 C212 1.350 . S
C209 C212 1.463 . S
C209 C214 1.350 . S
C209 N217 1.427 . S
C210 H201 0.930 . S
C210 C208 1.378 . S
C210 C211 1.367 . S
C211 C210 1.367 . S
C211 C213 1.433 . S
C212 C208 1.350 . S
C212 C209 1.463 . S
C212 N216 1.427 . S
C213 H203 0.929 . S
C213 C211 1.433 . S
C213 N216 1.384 . S
C214 H205 0.929 . S
C214 C206 1.378 . S
C214 C209 1.350 . S
C215 H202 0.929 . S
C215 C207 1.433 . S
C215 N217 1.384 . S
N216 C212 1.427 . S
N216 C213 1.384 . S
N217 C209 1.427 . S
N217 C215 1.384 . S
H218 C224 0.930 . S
H219 C228 0.930 . S
H220 C233 0.929 . S
H221 C231 0.929 . S
H222 C226 0.929 . S
H223 C232 0.929 . S
C224 H218 0.930 . S
C224 C225 1.367 . S
C224 C232 1.378 . S
C225 C224 1.367 . S
C225 C233 1.433 . S
C226 H222 0.929 . S
C226 C228 1.378 . S
C226 C230 1.350 . S
C227 C230 1.463 . S
C227 C232 1.350 . S
C227 N235 1.427 . S
C228 H219 0.930 . S
C228 C226 1.378 . S
C228 C229 1.367 . S
C229 C228 1.367 . S
C229 C231 1.433 . S
C230 C226 1.350 . S
C230 C227 1.463 . S
C230 N234 1.427 . S
C231 H221 0.929 . S
C231 C229 1.433 . S
C231 N234 1.384 . S
C232 H223 0.929 . S
C232 C224 1.378 . S
C232 C227 1.350 . S
C233 H220 0.929 . S
C233 C225 1.433 . S
C233 N235 1.384 . S
N234 C230 1.427 . S
N234 C231 1.384 . S
N235 C227 1.427 . S
N235 C233 1.384 . S
H236 C242 0.930 . S
H237 C246 0.930 . S
H238 C251 0.929 . S
H239 C249 0.929 . S
H240 C244 0.929 . S
H241 C250 0.929 . S
C242 H236 0.930 . S
C242 C243 1.367 . S
C242 C250 1.378 . S
C243 C242 1.367 . S
C243 C251 1.433 1_556 S
C244 H240 0.929 . S
C244 C246 1.378 . S
C244 C248 1.350 . S
C245 C248 1.463 1_556 S
C245 C250 1.350 . S
C245 N253 1.427 1_556 S
C246 H237 0.930 . S
C246 C244 1.378 . S
C246 C247 1.367 . S
C247 C246 1.367 . S
C247 C249 1.433 1_554 S
C248 C244 1.350 . S
C248 C245 1.463 1_554 S
C248 N252 1.427 1_554 S
C249 H239 0.929 . S
C249 C247 1.433 1_556 S
C249 N252 1.384 . S
C250 H241 0.929 . S
C250 C242 1.378 . S
C250 C245 1.350 . S
C251 H238 0.929 . S
C251 C243 1.433 1_554 S
C251 N253 1.384 . S
N252 C248 1.427 1_556 S
N252 C249 1.384 . S
N253 C245 1.427 1_554 S
N253 C251 1.384 . S
H254 C260 0.932 . S
H255 C264 0.932 . S
H256 C269 0.929 . S
H257 C267 0.929 . S
H258 C262 0.929 . S
H259 C268 0.929 . S
C260 H254 0.932 . S
C260 C261 1.364 1_554 S
C260 C268 1.379 . S
C261 C260 1.364 1_556 S
C261 C269 1.433 . S
C262 H258 0.929 . S
C262 C264 1.379 . S
C262 C266 1.350 1_556 S
C263 C266 1.463 1_556 S
C263 C268 1.350 1_556 S
C263 N271 1.427 . S
C264 H255 0.932 . S
C264 C262 1.379 . S
C264 C265 1.364 1_556 S
C265 C264 1.364 1_554 S
C265 C267 1.433 . S
C266 C262 1.350 1_554 S
C266 C263 1.463 1_554 S
C266 N270 1.427 . S
C267 H257 0.929 . S
C267 C265 1.433 . S
C267 N270 1.384 . S
C268 H259 0.929 . S
C268 C260 1.379 . S
C268 C263 1.350 1_554 S
C269 H256 0.929 . S
C269 C261 1.433 . S
C269 N271 1.384 . S
N270 C266 1.427 . S
N270 C267 1.384 . S
N271 C263 1.427 . S
N271 C269 1.384 . S
H272 C278 0.930 . S
H273 C282 0.930 . S
H274 C287 0.929 . S
H275 C285 0.929 . S
H276 C280 0.929 . S
H277 C286 0.929 . S
C278 H272 0.930 . S
C278 C279 1.367 . S
C278 C286 1.378 . S
C279 C278 1.367 . S
C279 C287 1.433 1_554 S
C280 H276 0.929 . S
C280 C282 1.378 . S
C280 C284 1.350 . S
C281 C284 1.463 1_554 S
C281 C286 1.350 . S
C281 N289 1.427 1_554 S
C282 H273 0.930 . S
C282 C280 1.378 . S
C282 C283 1.367 . S
C283 C282 1.367 . S
C283 C285 1.433 1_556 S
C284 C280 1.350 . S
C284 C281 1.463 1_556 S
C284 N288 1.427 1_556 S
C285 H275 0.929 . S
C285 C283 1.433 1_554 S
C285 N288 1.384 . S
C286 H277 0.929 . S
C286 C278 1.378 . S
C286 C281 1.350 . S
C287 H274 0.929 . S
C287 C279 1.433 1_556 S
C287 N289 1.384 . S
N288 C284 1.427 1_554 S
N288 C285 1.384 . S
N289 C281 1.427 1_556 S
N289 C287 1.384 . S
H290 C296 0.930 . S
H291 C300 0.930 . S
H292 C305 0.929 . S
H293 C303 0.929 . S
H294 C298 0.929 . S
H295 C304 0.929 . S
C296 H290 0.930 . S
C296 C297 1.367 . S
C296 C304 1.378 . S
C297 C296 1.367 . S
C297 C305 1.433 . S
C298 H294 0.929 . S
C298 C300 1.378 . S
C298 C302 1.350 . S
C299 C302 1.463 1_554 S
C299 C304 1.350 . S
C299 N307 1.427 . S
C300 H291 0.930 . S
C300 C298 1.378 . S
C300 C301 1.367 . S
C301 C300 1.367 . S
C301 C303 1.433 . S
C302 C298 1.350 . S
C302 C299 1.463 1_556 S
C302 N306 1.427 . S
C303 H293 0.929 . S
C303 C301 1.433 . S
C303 N306 1.384 . S
C304 H295 0.929 . S
C304 C296 1.378 . S
C304 C299 1.350 . S
C305 H292 0.929 . S
C305 C297 1.433 . S
C305 N307 1.384 . S
N306 C302 1.427 . S
N306 C303 1.384 . S
N307 C299 1.427 . S
N307 C305 1.384 . S
C99 C66 2.165 . S
C103 C19 2.094 . S
C117 C43 2.170 . S
C121 C88 2.105 . S
C135 C89 2.165 . S
C139 C42 2.094 . S
C153 C20 2.165 . S
C157 C65 2.097 . S
C171 C90 1.522 . S
C175 C21 1.526 . S
C189 C62 2.070 . S
C193 C39 2.070 . S
C207 C67 1.532 . S
C211 C44 1.529 . S
C225 C16 2.069 . S
C229 C85 2.070 . S
C243 C86 0.613 . S
C247 C17 0.615 . S
C261 C64 0.238 . S
C265 C41 0.248 . S
C279 C40 0.615 . S
C283 C63 0.617 . S
C297 C18 0.219 . S
C301 C87 0.267 . S
