# Generated by pormake.
# Topology lcy-e, (6)-cn, num edge types: 1
# Building blocks:
#     Node 0, Type 0, BuildingBlock: KUMBOL_clean_sbu_1, # of connection points: 6
#     Node 1, Type 0, BuildingBlock: KUMBOL_clean_sbu_1, # of connection points: 6
#     Node 2, Type 0, BuildingBlock: KUMBOL_clean_sbu_1, # of connection points: 6
#     Node 3, Type 0, BuildingBlock: KUMBOL_clean_sbu_1, # of connection points: 6
#     Node 4, Type 0, BuildingBlock: KUMBOL_clean_sbu_1, # of connection points: 6
#     Node 5, Type 0, BuildingBlock: KUMBOL_clean_sbu_1, # of connection points: 6
#     Node 6, Type 0, BuildingBlock: KUMBOL_clean_sbu_1, # of connection points: 6
#     Node 7, Type 0, BuildingBlock: KUMBOL_clean_sbu_1, # of connection points: 6
#     Node 8, Type 0, BuildingBlock: KUMBOL_clean_sbu_1, # of connection points: 6
#     Node 9, Type 0, BuildingBlock: KUMBOL_clean_sbu_1, # of connection points: 6
#     Node 10, Type 0, BuildingBlock: KUMBOL_clean_sbu_1, # of connection points: 6
#     Node 11, Type 0, BuildingBlock: KUMBOL_clean_sbu_1, # of connection points: 6
#     Edge 12, Type (0, 0), BuildingBlock: AJUNOK_clean_linker_0, # of connection points: 2
#     Edge 13, Type (0, 0), BuildingBlock: AJUNOK_clean_linker_0, # of connection points: 2
#     Edge 14, Type (0, 0), BuildingBlock: AJUNOK_clean_linker_0, # of connection points: 2
#     Edge 15, Type (0, 0), BuildingBlock: AJUNOK_clean_linker_0, # of connection points: 2
#     Edge 16, Type (0, 0), BuildingBlock: AJUNOK_clean_linker_0, # of connection points: 2
#     Edge 17, Type (0, 0), BuildingBlock: AJUNOK_clean_linker_0, # of connection points: 2
#     Edge 18, Type (0, 0), BuildingBlock: AJUNOK_clean_linker_0, # of connection points: 2
#     Edge 19, Type (0, 0), BuildingBlock: AJUNOK_clean_linker_0, # of connection points: 2
#     Edge 20, Type (0, 0), BuildingBlock: AJUNOK_clean_linker_0, # of connection points: 2
#     Edge 21, Type (0, 0), BuildingBlock: AJUNOK_clean_linker_0, # of connection points: 2
#     Edge 22, Type (0, 0), BuildingBlock: AJUNOK_clean_linker_0, # of connection points: 2
#     Edge 23, Type (0, 0), BuildingBlock: AJUNOK_clean_linker_0, # of connection points: 2
#     Edge 24, Type (0, 0), BuildingBlock: AJUNOK_clean_linker_0, # of connection points: 2
#     Edge 25, Type (0, 0), BuildingBlock: AJUNOK_clean_linker_0, # of connection points: 2
#     Edge 26, Type (0, 0), BuildingBlock: AJUNOK_clean_linker_0, # of connection points: 2
#     Edge 27, Type (0, 0), BuildingBlock: AJUNOK_clean_linker_0, # of connection points: 2
#     Edge 28, Type (0, 0), BuildingBlock: AJUNOK_clean_linker_0, # of connection points: 2
#     Edge 29, Type (0, 0), BuildingBlock: AJUNOK_clean_linker_0, # of connection points: 2
#     Edge 30, Type (0, 0), BuildingBlock: AJUNOK_clean_linker_0, # of connection points: 2
#     Edge 31, Type (0, 0), BuildingBlock: AJUNOK_clean_linker_0, # of connection points: 2
#     Edge 32, Type (0, 0), BuildingBlock: AJUNOK_clean_linker_0, # of connection points: 2
#     Edge 33, Type (0, 0), BuildingBlock: AJUNOK_clean_linker_0, # of connection points: 2
#     Edge 34, Type (0, 0), BuildingBlock: AJUNOK_clean_linker_0, # of connection points: 2
#     Edge 35, Type (0, 0), BuildingBlock: AJUNOK_clean_linker_0, # of connection points: 2
#     Edge 36, Type (0, 0), BuildingBlock: AJUNOK_clean_linker_0, # of connection points: 2
#     Edge 37, Type (0, 0), BuildingBlock: AJUNOK_clean_linker_0, # of connection points: 2
#     Edge 38, Type (0, 0), BuildingBlock: AJUNOK_clean_linker_0, # of connection points: 2
#     Edge 39, Type (0, 0), BuildingBlock: AJUNOK_clean_linker_0, # of connection points: 2
#     Edge 40, Type (0, 0), BuildingBlock: AJUNOK_clean_linker_0, # of connection points: 2
#     Edge 41, Type (0, 0), BuildingBlock: AJUNOK_clean_linker_0, # of connection points: 2
#     Edge 42, Type (0, 0), BuildingBlock: AJUNOK_clean_linker_0, # of connection points: 2
#     Edge 43, Type (0, 0), BuildingBlock: AJUNOK_clean_linker_0, # of connection points: 2
#     Edge 44, Type (0, 0), BuildingBlock: AJUNOK_clean_linker_0, # of connection points: 2
#     Edge 45, Type (0, 0), BuildingBlock: AJUNOK_clean_linker_0, # of connection points: 2
#     Edge 46, Type (0, 0), BuildingBlock: AJUNOK_clean_linker_0, # of connection points: 2
#     Edge 47, Type (0, 0), BuildingBlock: AJUNOK_clean_linker_0, # of connection points: 2
# Relax obj value: 0.091
# Max RMSD: 0.252
# Mean RMSD: 0.251
data_MOF--net-lcy-e--node1-KUMBOL_clean_sbu_1--edge1-AJUNOK_clean_linker_0
_symmetry_space_group_name_H-M    P1
_symmetry_Int_Tables_number       1
_symmetry_cell_setting            triclinic
loop_
_symmetry_equiv_pos_as_xyz
'x, y, z'
_cell_length_a     34.255139
_cell_length_b     33.922201
_cell_length_c     34.22692
_cell_angle_alpha  89.510706
_cell_angle_beta   90.104036
_cell_angle_gamma 89.781849
loop_
_atom_site_label
_atom_site_type_symbol
_atom_site_fract_x
_atom_site_fract_y
_atom_site_fract_z
_atom_type_partial_charge
C0 C 0.04419 0.34321 0.47542 0.0
C1 C 0.05086 0.411 0.4957 0.0
C2 C 0.06761 0.37404 0.48718 0.0
C3 C 1.01006 0.41538 0.49554 0.0
C4 C 1.00331 0.34813 0.47296 0.0
C5 C 0.98629 0.38384 0.48459 0.0
N6 N 0.06173 0.30993 0.4624 0.0
C7 C 0.04059 0.28293 0.44214 0.0
C8 C 0.98104 0.31802 0.45647 0.0
C9 C 0.99993 0.28568 0.44004 0.0
Gd10 Gd 0.16683 0.21866 0.5429 0.0
Gd11 Gd 0.12999 0.30607 0.47002 0.0
N12 N 0.10694 0.36901 0.48657 0.0
C13 C 0.07566 0.44295 0.50214 0.0
C14 C 0.13122 0.40034 0.49182 0.0
C15 C 0.116 0.4377 0.49959 0.0
H16 H 0.16249 0.39678 0.48966 0.0
H17 H 0.1355 0.46226 0.50382 0.0
H18 H 0.13826 0.14534 0.48625 0.0
H19 H 0.05497 0.26025 0.42596 0.0
H20 H 0.16744 0.08773 0.45318 0.0
H21 H 0.0639 0.47198 0.50773 0.0
H22 H 0.99665 0.44341 0.50255 0.0
H23 H 0.23728 0.25615 0.60071 0.0
H24 H 0.94959 0.32066 0.454 0.0
H25 H 0.98336 0.26353 0.42469 0.0
H26 H 0.30296 0.09289 0.48889 0.0
H27 H 0.95493 0.38803 0.48326 0.0
H28 H 0.34296 0.19334 0.57776 0.0
H29 H 0.30709 0.24508 0.61328 0.0
N30 N 0.23375 0.21268 0.55622 0.0
C31 C 0.25238 0.18258 0.53792 0.0
C32 C 0.25273 0.23457 0.58358 0.0
C33 C 0.31236 0.19852 0.57139 0.0
C34 C 0.29234 0.22811 0.59121 0.0
C35 C 0.29222 0.17472 0.54501 0.0
H36 H 0.34079 0.13583 0.53218 0.0
N37 N 0.19254 0.16585 0.50802 0.0
C38 C 0.23103 0.15809 0.51365 0.0
C39 C 0.22574 0.10019 0.47333 0.0
C40 C 0.24881 0.12521 0.49605 0.0
C41 C 0.16934 0.14025 0.48807 0.0
C42 C 0.18573 0.10752 0.4697 0.0
O43 O 0.09758 0.29953 0.53033 0.0
O44 O 0.14238 0.26988 0.57263 0.0
O45 O 0.12347 0.17799 0.56555 0.0
O46 O 0.17812 0.18568 0.59647 0.0
O47 O 0.17835 0.32731 0.50741 0.0
O48 O 0.18782 0.28244 0.55926 0.0
O49 O 0.18305 0.21911 0.47946 0.0
O50 O 0.19277 0.28405 0.47063 0.0
O51 O 0.15788 0.3482 0.43155 0.0
O52 O 0.12305 0.30177 0.40675 0.0
O53 O 0.10631 0.21637 0.51592 0.0
O54 O 0.11819 0.24285 0.45579 0.0
C55 C 0.10961 0.28848 0.56611 0.0
C56 C 0.19207 0.31787 0.54193 0.0
C57 C 0.12441 0.16022 0.63239 0.0
C58 C 0.09282 0.1125 0.67576 0.0
C59 C 0.10241 0.18049 0.69629 0.0
C60 C 0.12024 0.18951 0.66067 0.0
C61 C 0.08914 0.14224 0.70404 0.0
C62 C 0.10983 0.12226 0.6396 0.0
C63 C 0.14474 0.16749 0.59539 0.0
C64 C 0.28869 0.1179 0.50231 0.0
C65 C 0.31028 0.14249 0.52683 0.0
H66 H 0.23835 0.07464 0.4593 0.0
C67 C 0.204 0.24762 0.46516 0.0
C68 C 0.09923 0.21812 0.4783 0.0
C69 C 0.13125 0.36113 0.36997 0.0
C70 C 0.14629 0.40114 0.31247 0.0
C71 C 0.08257 0.40588 0.34339 0.0
C72 C 0.09382 0.37784 0.37138 0.0
C73 C 0.10852 0.41733 0.31396 0.0
C74 C 0.15765 0.3732 0.34079 0.0
C75 C 0.14438 0.33281 0.3998 0.0
H76 H 0.09924 0.20311 0.71815 0.0
H77 H 0.13094 0.21908 0.6553 0.0
H78 H 0.07642 0.13589 0.73233 0.0
H79 H 0.11182 0.10042 0.61677 0.0
H80 H 0.05363 0.41872 0.34445 0.0
H81 H 0.07349 0.36936 0.39412 0.0
H82 H 0.09916 0.43886 0.29232 0.0
H83 H 0.18679 0.3606 0.33987 0.0
C84 C 0.95266 0.7973 0.72037 0.0
C85 C 0.89019 0.79462 0.75387 0.0
C86 C 0.92287 0.81599 0.74074 0.0
C87 C 0.88841 0.75385 0.74739 0.0
C88 C 0.94969 0.75686 0.71167 0.0
C89 C 0.91802 0.73504 0.72623 0.0
N90 N 0.98286 0.81924 0.70649 0.0
C91 C 1.00781 0.80384 0.67947 0.0
C92 C 0.97771 0.73998 0.68716 0.0
C93 C 1.00632 0.76381 0.67024 0.0
Gd94 Gd 0.06839 0.91707 0.80335 0.0
Gd95 Gd 0.98235 0.88561 0.7256 0.0
N96 N 0.92531 0.85545 0.74668 0.0
C97 C 0.85997 0.81511 0.77245 0.0
C98 C 0.89505 0.87596 0.76225 0.0
C99 C 0.86221 0.8561 0.77604 0.0
H100 H 0.89629 0.90768 0.76357 0.0
H101 H 0.83888 0.87264 0.78932 0.0
H102 H 0.14664 0.89046 0.75297 0.0
H103 H 0.02882 0.82228 0.66466 0.0
H104 H 0.20504 0.92229 0.72422 0.0
H105 H 0.83457 0.79965 0.7833 0.0
H106 H 0.86374 0.7368 0.75767 0.0
H107 H 1.01377 0.99232 0.8439 0.0
H108 H 0.97642 0.70904 0.67969 0.0
H109 H 0.02695 0.75149 0.64972 0.0
H110 H 0.18371 0.06045 0.74512 0.0
H111 H 0.91558 0.70382 0.72031 0.0
H112 H 0.06654 0.10028 0.80979 0.0
H113 H 1.01241 0.06346 0.84039 0.0
N114 N 0.06427 0.98627 0.80757 0.0
C115 C 0.09492 1.00582 0.79102 0.0
C116 C 0.03614 1.00675 0.82718 0.0
C117 C 0.06655 0.06834 0.80931 0.0
C118 C 0.03604 0.04782 0.82684 0.0
C119 C 0.09698 0.04737 0.7919 0.0
H120 H 0.131 0.09863 0.7756 0.0
N121 N 0.12082 0.94465 0.76998 0.0
C122 C 0.12443 0.98439 0.77278 0.0
C123 C 0.18632 0.98103 0.7391 0.0
C124 C 0.15699 1.00376 0.75653 0.0
C125 C 0.14943 0.92219 0.75352 0.0
C126 C 0.18251 0.94007 0.73758 0.0
O127 O 0.97828 0.85342 0.78553 0.0
O128 O 0.02858 0.8719 0.82805 0.0
O129 O 0.11896 0.88597 0.82647 0.0
O130 O 0.09284 0.93299 0.85984 0.0
O131 O 0.97649 0.93836 0.76394 0.0
O132 O 1.00492 0.92887 0.82372 0.0
O133 O 0.06993 0.93359 0.73903 0.0
O134 O 1.00628 0.94724 0.72873 0.0
O135 O 0.93249 0.90941 0.69392 0.0
O136 O 0.98516 0.89377 0.66268 0.0
O137 O 0.07303 0.85689 0.77549 0.0
O138 O 0.04505 0.86869 0.71519 0.0
C139 C 0.99786 0.85072 0.81923 0.0
C140 C 0.97376 0.93697 0.80192 0.0
C141 C 0.1325 0.88549 0.89436 0.0
C142 C 0.18177 0.84571 0.92899 0.0
C143 C 0.12594 0.87262 0.96381 0.0
C144 C 0.11225 0.89051 0.92954 0.0
C145 C 0.16017 0.85018 0.96357 0.0
C146 C 0.16721 0.86296 0.89426 0.0
C147 C 0.12045 0.90647 0.85828 0.0
C148 C 0.15912 0.04502 0.75782 0.0
C149 C 0.12908 0.06676 0.77516 0.0
H150 H 0.21185 0.99486 0.72644 0.0
C151 C 0.04295 0.95536 0.7224 0.0
C152 C 0.06723 0.84757 0.73875 0.0
C153 C 0.92565 0.89267 0.62774 0.0
C154 C 0.89006 0.90589 0.5672 0.0
C155 C 0.89588 0.83886 0.5927 0.0
C156 C 0.91728 0.85244 0.62451 0.0
C157 C 0.88276 0.86526 0.56402 0.0
C158 C 0.91159 0.91945 0.59937 0.0
C159 C 0.94949 0.90722 0.66008 0.0
H160 H 0.11015 0.87652 0.99079 0.0
H161 H 0.08585 0.90814 0.93064 0.0
H162 H 0.17038 0.83737 0.99081 0.0
H163 H 0.18327 0.85958 0.86723 0.0
H164 H 0.88974 0.80772 0.59005 0.0
H165 H 0.92757 0.83157 0.64628 0.0
H166 H 0.8668 0.85388 0.53932 0.0
H167 H 0.91821 0.95057 0.60184 0.0
C168 C 0.27763 0.8335 0.06801 0.0
C169 C 0.26542 0.8027 0.13103 0.0
C170 C 0.29022 0.81017 0.09894 0.0
C171 C 0.22771 0.81899 0.13139 0.0
C172 C 0.23999 0.85048 0.06856 0.0
C173 C 0.21497 0.84273 0.10017 0.0
N174 N 0.30262 0.84076 0.03808 0.0
C175 C 0.29283 0.86715 1.00933 0.0
C176 C 0.22902 0.87572 0.03791 0.0
C177 C 0.2557 0.88435 1.00833 0.0
Gd178 Gd 0.41214 0.73146 0.97583 0.0
Gd179 Gd 0.36585 0.81469 0.04493 0.0
N180 N 0.32666 0.79454 0.0976 0.0
C181 C 0.27948 0.7794 0.16197 0.0
C182 C 0.33873 0.76863 0.12573 0.0
C183 C 0.31654 0.76252 0.15933 0.0
H184 H 0.36441 0.75124 0.1213 0.0
H185 H 0.32799 0.74453 0.18292 0.0
H186 H 0.38414 0.77795 0.89375 0.0
H187 H 0.31384 0.87563 0.98738 0.0
H188 H 0.41499 0.80961 0.83603 0.0
H189 H 0.26181 0.77375 0.18762 0.0
H190 H 0.20826 0.81356 0.15576 0.0
H191 H 0.48137 0.67696 0.01868 0.0
H192 H 0.20043 0.88948 0.03734 0.0
H193 H 0.2479 0.90473 0.98508 0.0
H194 H 0.55204 0.7842 0.85395 0.0
H195 H 0.18593 0.85544 0.10101 0.0
H196 H 0.58998 0.70108 0.96148 0.0
H197 H 0.55269 0.66635 1.01308 0.0
N198 N 0.47909 0.71861 0.97206 0.0
C199 C 0.4986 0.73649 0.94238 0.0
C200 C 0.4977 0.69289 0.99667 0.0
C201 C 0.55885 0.70616 0.9641 0.0
C202 C 0.53792 0.68655 0.99332 0.0
C203 C 0.53912 0.731 0.93775 0.0
H204 H 0.58953 0.74575 0.90243 0.0
N205 N 0.43831 0.76166 0.91976 0.0
C206 C 0.47755 0.75847 0.91524 0.0
C207 C 0.47357 0.795 0.85446 0.0
C208 C 0.49636 0.7755 0.88269 0.0
C209 C 0.41557 0.77775 0.89079 0.0
C210 C 0.43293 0.79559 0.85824 0.0
O211 O 0.3381 0.75139 0.045 0.0
O212 O 0.39102 0.71123 0.03288 0.0
O213 O 0.37047 0.70069 0.93851 0.0
O214 O 0.42507 0.6718 0.95632 0.0
O215 O 0.41347 0.78539 0.07804 0.0
O216 O 0.43728 0.73223 0.04091 0.0
O217 O 0.42159 0.79563 0.9656 0.0
O218 O 0.42976 0.81692 0.02715 0.0
O219 O 0.37345 0.86068 0.09041 0.0
O220 O 0.37846 0.87359 0.02744 0.0
O221 O 0.34844 0.74948 0.96763 0.0
O222 O 0.35361 0.81461 0.98076 0.0
C223 C 0.35581 0.71619 0.04611 0.0
C224 C 0.43613 0.75445 0.07369 0.0
C225 C 0.38207 0.63447 0.91377 0.0
C226 C 0.35143 0.60256 0.85766 0.0
C227 C 0.37794 0.56324 0.91103 0.0
C228 C 0.3898 0.59723 0.93016 0.0
C229 C 0.35794 0.5659 0.87575 0.0
C230 C 0.36337 0.63717 0.87689 0.0
C231 C 0.3929 0.6698 0.93613 0.0
C232 C 0.53698 0.7714 0.87876 0.0
C233 C 0.55834 0.74936 0.90632 0.0
H234 H 0.48694 0.80862 0.82909 0.0
C235 C 0.4411 0.81601 0.99077 0.0
C236 C 0.33543 0.78573 0.96396 0.0
C237 C 0.38647 0.92975 0.06845 0.0
C238 C 0.4176 0.98579 0.10051 0.0
C239 C 0.38351 0.99522 0.03894 0.0
C240 C 0.37409 0.95536 0.03832 0.0
C241 C 0.40541 1.0103 0.06959 0.0
C242 C 0.40774 0.94528 0.10021 0.0
C243 C 0.38064 0.88687 0.063 0.0
H244 H 0.38437 0.53459 0.92329 0.0
H245 H 0.40445 0.59444 0.95814 0.0
H246 H 0.34792 0.53909 0.86219 0.0
H247 H 0.35796 0.66574 0.86348 0.0
H248 H 0.37391 1.01449 1.01544 0.0
H249 H 0.35759 0.9444 1.01367 0.0
H250 H 0.412 0.04152 0.06973 0.0
H251 H 0.41729 0.92608 0.12385 0.0
C252 C 0.57791 0.24415 0.22774 0.0
C253 C 0.64043 0.24647 0.26143 0.0
C254 C 0.60783 0.22522 0.24807 0.0
C255 C 0.64156 0.28747 0.25592 0.0
C256 C 0.5804 0.28491 0.21983 0.0
C257 C 0.61183 0.30651 0.2347 0.0
N258 N 0.54946 0.22191 0.21116 0.0
C259 C 0.52625 0.23776 0.18254 0.0
C260 C 0.55306 0.30219 0.19448 0.0
C261 C 0.52649 0.27829 0.17497 0.0
Gd262 Gd 0.47134 0.12382 0.31105 0.0
Gd263 Gd 0.55193 0.15424 0.2265 0.0
N264 N 0.60689 0.18531 0.25131 0.0
C265 C 0.67217 0.22542 0.27711 0.0
C266 C 0.63945 0.16461 0.26163 0.0
C267 C 0.67207 0.18423 0.27606 0.0
H268 H 0.63993 0.13297 0.25874 0.0
H269 H 0.69704 0.1674 0.28588 0.0
H270 H 0.3941 0.15727 0.25903 0.0
H271 H 0.50795 0.21907 0.16496 0.0
H272 H 0.3253 0.13822 0.2509 0.0
H273 H 0.69776 0.2406 0.28782 0.0
H274 H 0.66639 0.30436 0.26589 0.0
H275 H 0.51858 0.04522 0.35206 0.0
H276 H 0.55395 0.33345 0.18777 0.0
H277 H 0.50704 0.29087 0.15321 0.0
H278 H 0.31662 1.01203 0.31457 0.0
H279 H 0.61451 0.33757 0.22778 0.0
H280 H 0.43375 0.95459 0.36674 0.0
H281 H 0.50129 0.97868 0.37435 0.0
N282 N 0.46206 0.05806 0.3288 0.0
C283 C 0.42462 0.04558 0.32452 0.0
C284 C 0.48942 0.0348 0.34678 0.0
C285 C 0.44134 0.98366 0.3559 0.0
C286 C 0.47959 0.99707 0.36007 0.0
C287 C 0.4132 1.00812 0.33839 0.0
H288 H 0.36481 0.96776 0.34544 0.0
N289 N 0.40971 0.10498 0.29022 0.0
C290 C 0.39746 0.07026 0.30604 0.0
C291 C 0.33196 0.08357 0.28282 0.0
C292 C 0.35818 0.05852 0.30249 0.0
C293 C 0.38454 0.12923 0.27041 0.0
C294 C 0.34532 0.11881 0.26632 0.0
O295 O 0.56419 0.17273 0.29067 0.0
O296 O 0.50188 0.18161 0.30861 0.0
O297 O 0.42467 0.15481 0.34055 0.0
O298 O 0.46752 0.12154 0.37498 0.0
O299 O 0.55582 0.09622 0.25875 0.0
O300 O 0.53578 0.1052 0.32146 0.0
O301 O 0.47138 0.08452 0.25742 0.0
O302 O 0.49855 0.12028 0.20543 0.0
O303 O 0.5865 0.11029 0.19526 0.0
O304 O 0.58073 0.16902 0.17214 0.0
O305 O 0.46088 0.17959 0.27585 0.0
O306 O 0.48889 0.17221 0.2149 0.0
C307 C 0.53859 0.1848 0.31678 0.0
C308 C 0.56262 0.0934 0.29624 0.0
C309 C 0.41614 0.15696 0.41058 0.0
C310 C 0.36174 0.19158 0.44189 0.0
C311 C 0.41799 0.17013 0.47998 0.0
C312 C 0.43503 0.15407 0.44682 0.0
C313 C 0.38191 0.18907 0.47758 0.0
C314 C 0.37899 0.17524 0.4083 0.0
C315 C 0.43697 0.14457 0.375 0.0
C316 C 0.34662 0.02165 0.31729 0.0
C317 C 0.37411 0.99637 0.33475 0.0
H318 H 0.30156 0.07555 0.27946 0.0
C319 C 0.47967 0.0893 0.21992 0.0
C320 C 0.46473 0.19004 0.23895 0.0
C321 C 0.58617 0.11885 0.12649 0.0
C322 C 0.60984 0.097 0.06312 0.0
C323 C 0.54041 0.10699 0.0737 0.0
C324 C 0.54789 0.11901 0.1118 0.0
C325 C 0.57117 0.09615 0.04942 0.0
C326 C 0.61727 0.10773 0.10205 0.0
C327 C 0.5938 0.13377 0.16594 0.0
H328 H 0.43303 0.16824 0.50759 0.0
H329 H 0.46349 0.14039 0.4494 0.0
H330 H 0.36949 0.20126 0.50392 0.0
H331 H 0.36396 0.17762 0.38047 0.0
H332 H 0.51076 0.10668 0.06276 0.0
H333 H 0.52377 0.12866 0.12981 0.0
H334 H 0.56486 0.08749 0.01967 0.0
H335 H 0.64705 0.10877 0.11276 0.0
C336 C 0.52899 0.2241 0.59147 0.0
C337 C 0.5048 0.16329 0.56404 0.0
C338 C 0.53497 0.19093 0.56905 0.0
C339 C 0.46758 0.17126 0.57928 0.0
C340 C 0.49241 0.23083 0.6091 0.0
C341 C 0.46124 0.20527 0.60133 0.0
N342 N 0.56015 0.24714 0.59971 0.0
C343 C 0.55795 0.2743 0.6289 0.0
C344 C 0.48903 0.26129 0.63619 0.0
C345 C 0.52226 0.28224 0.64707 0.0
Gd346 Gd 0.65319 0.31081 0.47916 0.0
Gd347 Gd 0.61794 0.23298 0.56524 0.0
N348 N 0.5715 0.18361 0.55579 0.0
C349 C 0.5136 0.12744 0.54602 0.0
C350 C 0.58087 0.14791 0.54032 0.0
C351 C 0.55208 0.11924 0.53526 0.0
H352 H 0.61051 0.1416 0.53167 0.0
H353 H 0.55951 0.09107 0.52259 0.0
H354 H 0.62002 0.39319 0.51845 0.0
H355 H 0.58355 0.29074 0.6374 0.0
H356 H 0.64634 0.45693 0.54168 0.0
H357 H 0.49129 0.10533 0.54176 0.0
H358 H 0.44392 0.1505 0.57558 0.0
H359 H 0.72686 0.26706 0.42954 0.0
H360 H 0.46142 0.26749 0.6503 0.0
H361 H 0.52035 0.30476 0.6692 0.0
H362 H 0.78448 0.44596 0.51962 0.0
H363 H 0.43276 0.2103 0.61412 0.0
H364 H 0.83082 0.33263 0.4509 0.0
H365 H 0.79758 0.27558 0.42127 0.0
N366 N 0.72048 0.31628 0.46746 0.0
C367 C 0.73776 0.34898 0.48219 0.0
C368 C 0.74116 0.29095 0.44446 0.0
C369 C 0.79986 0.3284 0.45569 0.0
C370 C 0.78123 0.29612 0.43897 0.0
C371 C 0.77797 0.35585 0.47682 0.0
H372 H 0.82565 0.39613 0.48774 0.0
N373 N 0.6759 0.37008 0.50434 0.0
C374 C 0.71467 0.37705 0.50045 0.0
C375 C 0.70609 0.44147 0.52891 0.0
C376 C 0.73099 0.41273 0.51335 0.0
C377 C 0.65108 0.39866 0.51743 0.0
C378 C 0.66588 0.43461 0.53044 0.0
O379 O 0.58555 0.22976 0.50462 0.0
O380 O 0.62821 0.25546 0.45821 0.0
O381 O 0.61059 0.34846 0.44933 0.0
O382 O 0.66428 0.33037 0.41944 0.0
O383 O 0.65489 0.20236 0.52265 0.0
O384 O 0.68016 0.24726 0.47662 0.0
O385 O 0.66582 0.32295 0.54198 0.0
O386 O 0.6786 0.26107 0.56395 0.0
O387 O 0.64182 0.18022 0.5927 0.0
O388 O 0.63595 0.23336 0.62633 0.0
O389 O 0.59142 0.31391 0.50243 0.0
O390 O 0.60231 0.2975 0.5662 0.0
C391 C 0.59502 0.23935 0.46768 0.0
C392 C 0.67785 0.21153 0.49361 0.0
C393 C 0.62009 0.37361 0.38338 0.0
C394 C 0.58928 0.4311 0.35252 0.0
C395 C 0.61718 0.37919 0.31294 0.0
C396 C 0.62848 0.3585 0.34638 0.0
C397 C 0.59709 0.41473 0.31587 0.0
C398 C 0.60074 0.4103 0.38654 0.0
C399 C 0.63208 0.35087 0.41814 0.0
C400 C 0.7713 0.41892 0.50949 0.0
C401 C 0.79475 0.3905 0.49137 0.0
H402 H 0.71751 0.4693 0.53909 0.0
C403 C 0.68542 0.29911 0.56488 0.0
C404 C 0.58025 0.31342 0.53903 0.0
C405 C 0.63443 0.17248 0.66066 0.0
C406 C 0.65196 0.13537 0.71963 0.0
C407 C 0.58406 0.14078 0.69924 0.0
C408 C 0.595 0.16355 0.66695 0.0
C409 C 0.61228 0.12689 0.72551 0.0
C410 C 0.66299 0.15802 0.68687 0.0
C411 C 0.64622 0.19636 0.6267 0.0
H412 H 0.62457 0.36806 0.28461 0.0
H413 H 0.64365 0.33061 0.34332 0.0
H414 H 0.58855 0.43006 0.28936 0.0
H415 H 0.59499 0.4227 0.41505 0.0
H416 H 0.55358 0.134 0.70402 0.0
H417 H 0.57277 0.17416 0.64695 0.0
H418 H 0.60316 0.10949 0.75055 0.0
H419 H 0.69353 0.16488 0.68216 0.0
C420 C 0.97126 0.48789 0.68856 0.0
C421 C 1.00106 0.48401 0.62443 0.0
C422 C 0.98988 0.46601 0.6599 0.0
C423 C 0.99558 0.52476 0.61915 0.0
C424 C 0.96395 0.52844 0.68253 0.0
C425 C 0.97734 0.54698 0.64826 0.0
N426 N 0.9575 0.46891 0.72079 0.0
C427 C 0.93232 0.48753 0.74537 0.0
C428 C 0.94165 0.54871 0.71017 0.0
C429 C 0.925 0.52791 0.74126 0.0
Gd430 Gd 0.05012 0.36805 0.80856 0.0
Gd431 Gd 0.97377 0.40186 0.72577 0.0
N432 N 0.99471 0.42663 0.66563 0.0
C433 C 1.01619 0.46022 0.59481 0.0
C434 C 1.00925 0.40341 0.63685 0.0
C435 C 0.02032 0.41975 0.60108 0.0
H436 H 1.01093 0.3722 0.64084 0.0
H437 H 0.03142 0.40096 0.57825 0.0
H438 H 0.99173 0.40067 0.87894 0.0
H439 H 0.91736 0.47122 0.76791 0.0
H440 H 0.95792 0.37384 0.93726 0.0
H441 H 0.02346 0.47255 0.5666 0.0
H442 H 1.00451 0.53919 0.59228 0.0
H443 H 0.10573 0.29378 0.77322 0.0
H444 H 0.93546 0.57988 0.70668 0.0
H445 H 0.90594 0.54278 0.76163 0.0
H446 H 0.99324 0.23677 0.93897 0.0
H447 H 0.97233 0.57818 0.64332 0.0
H448 H 0.08032 0.19023 0.84013 0.0
H449 H 0.11551 0.22303 0.78602 0.0
N450 N 0.06195 0.30042 0.81697 0.0
C451 C 0.04335 0.28332 0.8478 0.0
C452 C 0.08847 0.27958 0.79558 0.0
C453 C 0.07498 0.22117 0.83397 0.0
C454 C 0.09474 0.23952 0.80324 0.0
C455 C 0.04962 0.24326 0.85726 0.0
H456 H 0.03638 0.19626 0.89834 0.0
N457 N 1.01362 0.34485 0.86144 0.0
C458 C 0.01909 0.30629 0.87104 0.0
C459 C 0.97809 0.31439 0.92785 0.0
C460 C 1.001 0.2899 0.90434 0.0
C461 C 0.99353 0.36951 0.88563 0.0
C462 C 0.97468 0.35447 0.91868 0.0
O463 O 0.03526 0.43257 0.72481 0.0
O464 O 0.08056 0.39096 0.75579 0.0
O465 O 0.0721 0.41016 0.85067 0.0
O466 O 0.10393 0.35602 0.84037 0.0
O467 O 1.00734 0.34813 0.70882 0.0
O468 O 0.06405 0.34306 0.74665 0.0
O469 O 0.9859 0.35397 0.80926 0.0
O470 O 0.97369 0.33871 0.74699 0.0
O471 O 0.93183 0.3924 0.67815 0.0
O472 O 0.91397 0.3875 0.73878 0.0
O473 O 0.02932 0.43162 0.80635 0.0
O474 O 0.96618 0.42304 0.78777 0.0
C475 C 0.07187 0.42116 0.73316 0.0
C476 C 0.04299 0.33497 0.7147 0.0
C477 C 0.13853 0.40899 0.86949 0.0
C478 C 0.17933 0.44259 0.91776 0.0
C479 C 0.2036 0.42983 0.85209 0.0
C480 C 0.16837 0.41228 0.84186 0.0
C481 C 0.20946 0.44412 0.8898 0.0
C482 C 0.14383 0.4246 0.90716 0.0
C483 C 0.10201 0.38848 0.86038 0.0
C484 C 1.00693 0.24993 0.91354 0.0
C485 C 0.03132 0.22678 0.89021 0.0
H486 H 0.96366 0.30283 0.95364 0.0
C487 C 0.9717 0.32947 0.78393 0.0
C488 C 0.99272 0.44307 0.80664 0.0
C489 C 0.86322 0.39632 0.69254 0.0
C490 C 0.7993 0.38027 0.66411 0.0
C491 C 0.8067 0.43627 0.70791 0.0
C492 C 0.84638 0.42852 0.71163 0.0
C493 C 0.78329 0.41212 0.68509 0.0
C494 C 0.83975 0.3725 0.6682 0.0
C495 C 0.90351 0.3842 0.70225 0.0
H496 H 0.22654 0.43213 0.83071 0.0
H497 H 0.16459 0.40091 0.81261 0.0
H498 H 0.23783 0.45594 0.89697 0.0
H499 H 0.12021 0.42265 0.92812 0.0
H500 H 0.7938 0.4607 0.72348 0.0
H501 H 0.86356 0.44684 0.73066 0.0
H502 H 0.75232 0.4185 0.68409 0.0
H503 H 0.85302 0.34806 0.65292 0.0
C504 C 0.9831 0.83127 0.05523 0.0
C505 C 0.98185 0.89468 0.02171 0.0
C506 C 0.9624 0.86094 0.03584 0.0
C507 C 0.02254 0.89751 0.02598 0.0
C508 C 0.02353 0.83529 0.06178 0.0
C509 C 0.04326 0.86803 0.04623 0.0
N510 N 0.96326 0.79997 0.0701 0.0
C511 C 0.98093 0.77459 0.09575 0.0
C512 C 0.04259 0.80721 0.08528 0.0
C513 C 0.02097 0.77732 0.10316 0.0
Gd514 Gd 0.86496 0.71438 0.97661 0.0
Gd515 Gd 0.89679 0.798 0.05416 0.0
N516 N 0.92298 0.8577 0.03263 0.0
C517 C 0.95959 0.92522 1.00505 0.0
C518 C 0.90093 0.88829 0.01892 0.0
C519 C 0.9189 0.92236 1.00444 0.0
H520 H 0.8695 0.8866 0.01972 0.0
H521 H 0.9014 0.94656 0.9932 0.0
H522 H 0.88799 0.64082 0.03755 0.0
H523 H 0.96428 0.75224 0.1108 0.0
H524 H 0.8544 0.58629 0.07238 0.0
H525 H 0.97341 0.95171 0.99395 0.0
H526 H 0.03806 0.92305 1.01499 0.0
H527 H 0.7989 0.75461 0.91485 0.0
H528 H 0.07361 0.80931 0.09112 0.0
H529 H 0.03504 0.75649 0.1228 0.0
H530 H 0.72076 0.59868 0.03124 0.0
H531 H 0.07433 0.87147 0.05093 0.0
H532 H 0.68942 0.69828 0.93593 0.0
H533 H 0.72874 0.74816 0.9007 0.0
N534 N 0.79871 0.71126 0.96031 0.0
C535 C 0.77803 0.68265 0.979 0.0
C536 C 0.7818 0.73392 0.93173 0.0
C537 C 0.72008 0.70158 0.94296 0.0
C538 C 0.74214 0.72987 0.92309 0.0
C539 C 0.73808 0.67712 0.97087 0.0
H540 H 0.68677 0.6425 0.98458 0.0
N541 N 0.83572 0.6636 1.01245 0.0
C542 C 0.79712 0.65792 1.00552 0.0
C543 C 0.79769 0.60157 0.04921 0.0
C544 C 0.77689 0.62704 0.02426 0.0
C545 C 0.85679 0.63727 0.03448 0.0
C546 C 0.83791 0.60645 0.05399 0.0
O547 O 0.93179 0.79478 0.99551 0.0
O548 O 0.89183 0.76596 0.94861 0.0
O549 O 0.90646 0.66989 0.95726 0.0
O550 O 0.85539 0.68288 0.92225 0.0
O551 O 0.84474 0.81508 0.01827 0.0
O552 O 0.84598 0.77905 0.96029 0.0
O553 O 0.84706 0.71499 0.03963 0.0
O554 O 0.83362 0.77856 0.05275 0.0
O555 O 0.88821 0.84639 0.09594 0.0
O556 O 0.88323 0.78517 0.11388 0.0
O557 O 0.92578 0.71193 1.00303 0.0
O558 O 0.91305 0.73454 0.06443 0.0
C559 C 0.92231 0.78674 0.95853 0.0
C560 C 0.83803 0.81165 0.98072 0.0
C561 C 0.90897 0.65119 0.89062 0.0
C562 C 0.94244 0.60101 0.85144 0.0
C563 C 0.93601 0.6687 0.82749 0.0
C564 C 0.91611 0.6794 0.86139 0.0
C565 C 0.94896 0.62991 0.82244 0.0
C566 C 0.92244 0.61214 0.8857 0.0
C567 C 0.88668 0.66123 0.92605 0.0
C568 C 0.73689 0.62207 1.0169 0.0
C569 C 0.71753 0.64705 0.99032 0.0
H570 H 0.78317 0.57746 0.06412 0.0
C571 C 0.82351 0.74145 0.05379 0.0
C572 C 0.93387 0.71331 0.04044 0.0
C573 C 0.89317 0.83038 0.16468 0.0
C574 C 0.87732 0.85856 0.22853 0.0
C575 C 0.92899 0.80928 0.22232 0.0
C576 C 0.92258 0.80745 0.18227 0.0
C577 C 0.90619 0.83391 0.24533 0.0
C578 C 0.87114 0.85662 0.18773 0.0
C579 C 0.88057 0.82186 0.12445 0.0
H580 H 0.9412 0.69052 0.80484 0.0
H581 H 0.9061 0.70953 0.86468 0.0
H582 H 0.96368 0.62239 0.79552 0.0
H583 H 0.91742 0.59056 0.90866 0.0
H584 H 0.95109 0.79072 0.23578 0.0
H585 H 0.93944 0.7867 0.16544 0.0
H586 H 0.91115 0.83333 0.27658 0.0
H587 H 0.84899 0.87481 0.17386 0.0
C588 C 0.57586 0.53651 0.20969 0.0
C589 C 0.54677 0.53047 0.14515 0.0
C590 C 0.55296 0.55218 0.17961 0.0
C591 C 0.56213 0.49224 0.14206 0.0
C592 C 0.59232 0.49851 0.20598 0.0
C593 C 0.58456 0.47618 0.17252 0.0
N594 N 0.5843 0.55924 0.24115 0.0
C595 C 0.61145 0.54705 0.26794 0.0
C596 C 0.61766 0.4847 0.23516 0.0
C597 C 0.62754 0.50923 0.2661 0.0
Gd598 Gd 0.48026 0.66445 0.31703 0.0
Gd599 Gd 0.55925 0.6235 0.23802 0.0
N600 N 0.53778 0.58902 0.18338 0.0
C601 C 0.52588 0.54814 0.11442 0.0
C602 C 0.51565 0.6055 0.15438 0.0
C603 C 0.51034 0.58586 0.11907 0.0
H604 H 0.50174 0.63342 0.15879 0.0
H605 H 0.49425 0.59973 0.09546 0.0
H606 H 0.53033 0.63699 0.39588 0.0
H607 H 0.62177 0.56681 0.2902 0.0
H608 H 0.56008 0.6682 0.45403 0.0
H609 H 0.52122 0.53276 0.0872 0.0
H610 H 0.55727 0.47503 0.11599 0.0
H611 H 0.42423 0.73459 0.27499 0.0
H612 H 0.63092 0.45572 0.23329 0.0
H613 H 0.64839 0.49943 0.28794 0.0
H614 H 0.53377 0.80641 0.43555 0.0
H615 H 0.59682 0.44689 0.16936 0.0
H616 H 0.45289 0.84481 0.32728 0.0
H617 H 0.41668 0.80687 0.27762 0.0
N618 N 0.46843 0.73243 0.31861 0.0
C619 C 0.48668 0.75224 0.3477 0.0
C620 C 0.44209 0.75118 0.29492 0.0
C621 C 0.45739 0.81327 0.32522 0.0
C622 C 0.43698 0.792 0.29707 0.0
C623 C 0.48167 0.79327 0.35177 0.0
H624 H 0.49645 0.84428 0.38641 0.0
N625 N 0.51276 0.69157 0.37039 0.0
C626 C 0.50844 0.73105 0.37505 0.0
C627 C 0.54412 0.72717 0.43595 0.0
C628 C 0.52476 0.75008 0.40762 0.0
C629 C 0.52939 0.66869 0.39901 0.0
C630 C 0.54601 0.68623 0.43185 0.0
O631 O 0.49595 0.59752 0.235 0.0
O632 O 0.45124 0.64047 0.26427 0.0
O633 O 0.45571 0.62336 0.35985 0.0
O634 O 0.42528 0.67768 0.34612 0.0
O635 O 0.53232 0.68145 0.22356 0.0
O636 O 0.47167 0.68726 0.25254 0.0
O637 O 0.54503 0.67626 0.32279 0.0
O638 O 0.56433 0.68554 0.26045 0.0
O639 O 0.59135 0.63937 0.18569 0.0
O640 O 0.62211 0.63117 0.24085 0.0
O641 O 0.50079 0.60087 0.31744 0.0
O642 O 0.56486 0.60751 0.30166 0.0
C643 C 0.45939 0.60941 0.24301 0.0
C644 C 0.49596 0.69261 0.22229 0.0
C645 C 0.38913 0.62787 0.38059 0.0
C646 C 0.34929 0.59763 0.43258 0.0
C647 C 0.32136 0.61178 0.36833 0.0
C648 C 0.35699 0.62671 0.35527 0.0
C649 C 0.31739 0.59769 0.4066 0.0
C650 C 0.38517 0.6133 0.41932 0.0
C651 C 0.4263 0.64614 0.36812 0.0
C652 C 0.5209 0.79114 0.41105 0.0
C653 C 0.49971 0.81272 0.38301 0.0
H654 H 0.55703 0.74071 0.46142 0.0
C655 C 0.56415 0.69684 0.2968 0.0
C656 C 0.53715 0.58908 0.32057 0.0
C657 C 0.65977 0.62984 0.18248 0.0
C658 C 0.71617 0.65009 0.1441 0.0
C659 C 0.70791 0.58139 0.16307 0.0
C660 C 0.67316 0.59077 0.18221 0.0
C661 C 0.72948 0.61088 0.14435 0.0
C662 C 0.68105 0.6594 0.16293 0.0
C663 C 0.62463 0.6412 0.20398 0.0
H664 H 0.29653 0.61138 0.34878 0.0
H665 H 0.35927 0.63787 0.32562 0.0
H666 H 0.28908 0.58717 0.41602 0.0
H667 H 0.40995 0.61415 0.43904 0.0
H668 H 0.71838 0.55125 0.16309 0.0
H669 H 0.65706 0.56773 0.19702 0.0
H670 H 0.75665 0.60318 0.13015 0.0
H671 H 0.67086 0.68972 0.16323 0.0
C672 C 0.21179 0.57692 0.23692 0.0
C673 C 0.25125 0.63548 0.24705 0.0
C674 C 0.23702 0.60566 0.22241 0.0
C675 C 0.24053 0.6356 0.2866 0.0
C676 C 0.19957 0.57821 0.27624 0.0
C677 C 0.21478 0.60707 0.30116 0.0
N678 N 0.19712 0.54953 0.2121 0.0
C679 C 0.16688 0.52594 0.22349 0.0
C680 C 0.17115 0.55149 0.28897 0.0
C681 C 0.15416 0.52583 0.26226 0.0
Gd682 Gd 0.29458 0.46541 0.11278 0.0
Gd683 Gd 0.22109 0.55353 0.14802 0.0
N684 N 0.24688 0.60512 0.18394 0.0
C685 C 0.27566 0.66445 0.23103 0.0
C686 C 0.26913 0.6341 0.16781 0.0
C687 C 0.28459 0.66358 0.19122 0.0
H688 H 0.27552 0.63384 0.13713 0.0
H689 H 0.30375 0.68503 0.17838 0.0
H690 H 0.23775 0.38878 0.13126 0.0
H691 H 0.15243 0.50701 0.20279 0.0
H692 H 0.20508 0.33545 0.09443 0.0
H693 H 0.28766 0.68757 0.24904 0.0
H694 H 0.25143 0.6581 0.30603 0.0
H695 H 0.358 0.50793 0.04983 0.0
H696 H 0.16098 0.55156 0.31892 0.0
H697 H 0.13098 0.50625 0.2714 0.0
H698 H 0.24229 0.35993 0.96117 0.0
H699 H 0.20602 0.6082 0.33153 0.0
H700 H 0.33457 0.46276 0.9363 0.0
H701 H 0.37194 0.50663 0.98022 0.0
N702 N 0.30999 0.46817 0.04622 0.0
C703 C 0.29132 0.44135 0.02358 0.0
C704 C 0.3397 0.49029 0.03118 0.0
C705 C 0.3274 0.46394 0.96709 0.0
C706 C 0.34826 0.48909 0.99145 0.0
C707 C 0.29937 0.43874 0.98327 0.0
H708 H 0.28653 0.40751 0.92985 0.0
N709 N 0.25973 0.41681 0.08025 0.0
C710 C 0.26622 0.41439 0.04121 0.0
C711 C 0.22594 0.3561 0.03849 0.0
C712 C 0.24897 0.38419 0.01913 0.0
C713 C 0.23986 0.38792 0.09977 0.0
C714 C 0.2218 0.35769 0.07907 0.0
O715 O 0.28316 0.55389 0.17744 0.0
O716 O 0.32648 0.51107 0.14607 0.0
O717 O 0.315 0.41775 0.15127 0.0
O718 O 0.34559 0.43088 0.09769 0.0
O719 O 0.25378 0.56246 0.09228 0.0
O720 O 0.31249 0.52975 0.09602 0.0
O721 O 0.23018 0.46641 0.09822 0.0
O722 O 0.21869 0.53082 0.0861 0.0
O723 O 0.19284 0.60876 0.1315 0.0
O724 O 0.15855 0.5555 0.13815 0.0
O725 O 0.26962 0.46272 0.17414 0.0
O726 O 0.20932 0.49037 0.16377 0.0
C727 C 0.31879 0.53841 0.17201 0.0
C728 C 0.29154 0.56201 0.08782 0.0
C729 C 0.38052 0.39409 0.14587 0.0
C730 C 0.41774 0.34263 0.17982 0.0
C731 C 0.45012 0.40187 0.15666 0.0
C732 C 0.41503 0.4155 0.14069 0.0
C733 C 0.45144 0.36579 0.17641 0.0
C734 C 0.38211 0.35707 0.16487 0.0
C735 C 0.34356 0.40796 0.12826 0.0
C736 C 0.25572 0.38259 0.97873 0.0
C737 C 0.28078 0.40984 0.96085 0.0
H738 H 0.21209 0.33253 0.02251 0.0
C739 C 0.21499 0.49392 0.07603 0.0
C740 C 0.23311 0.46819 0.18439 0.0
C741 C 0.12502 0.61616 0.14349 0.0
C742 C 0.06268 0.64884 0.12981 0.0
C743 C 0.08889 0.64649 0.19606 0.0
C744 C 0.12147 0.62558 0.18308 0.0
C745 C 0.05968 0.65801 0.16973 0.0
C746 C 0.0957 0.62791 0.11688 0.0
C747 C 0.15827 0.59297 0.12935 0.0
H748 H 0.47656 0.41885 0.15294 0.0
H749 H 0.41492 0.44225 0.12339 0.0
H750 H 0.4791 0.35532 0.18792 0.0
H751 H 0.35597 0.3393 0.1674 0.0
H752 H 0.08616 0.65368 0.22668 0.0
H753 H 0.1437 0.61665 0.20387 0.0
H754 H 0.03473 0.67428 0.18056 0.0
H755 H 0.0982 0.61998 0.08636 0.0
C756 C 0.71376 0.95192 0.79644 0.0
C757 C 0.74587 0.88843 0.78788 0.0
C758 C 0.73684 0.92118 0.81141 0.0
C759 C 0.73434 0.88824 0.74854 0.0
C760 C 0.69988 0.95018 0.75759 0.0
C761 C 0.71161 0.91912 0.73338 0.0
N762 N 0.70123 0.98087 0.82085 0.0
C763 C 0.67105 1.00512 0.80983 0.0
C764 C 0.67249 0.97819 0.74487 0.0
C765 C 0.65724 1.0051 0.77141 0.0
Gd766 Gd 0.80633 0.06502 0.91435 0.0
Gd767 Gd 0.72726 0.97693 0.8844 0.0
N768 N 0.74762 0.92158 0.84971 0.0
C769 C 0.76459 0.85586 0.80501 0.0
C770 C 0.76503 0.88948 0.86671 0.0
C771 C 0.77424 0.85638 0.84461 0.0
H772 H 0.77113 0.88922 0.89738 0.0
H773 H 0.78828 0.83112 0.85823 0.0
H774 H 0.76508 0.14995 0.8892 0.0
H775 H 0.65769 0.02494 0.83051 0.0
H776 H 0.73359 0.20692 0.92143 0.0
H777 H 0.77105 0.82987 0.78803 0.0
H778 H 0.74162 0.86359 0.72996 0.0
H779 H 0.85338 1.01421 0.98882 0.0
H780 H 0.66124 0.97782 0.71526 0.0
H781 H 0.63448 0.02549 0.76245 0.0
H782 H 0.73855 0.17375 0.05798 0.0
H783 H 0.70159 0.91767 0.70338 0.0
H784 H 0.81071 0.05895 0.09638 0.0
H785 H 0.85084 1.01118 0.05991 0.0
N786 N 0.80968 0.05935 0.98326 0.0
C787 C 0.79013 0.08813 1.00293 0.0
C788 C 0.83319 0.0335 1.00346 0.0
C789 C 0.81034 0.05952 0.06472 0.0
C790 C 0.83287 0.03238 0.04426 0.0
C791 C 0.78962 0.08862 0.04417 0.0
H792 H 0.76903 0.1196 0.09533 0.0
N793 N 0.77409 0.1184 0.94232 0.0
C794 C 0.77275 0.11892 0.98196 0.0
C795 C 0.74009 0.18223 0.97936 0.0
C796 C 0.75475 0.15053 1.00152 0.0
C797 C 0.76173 0.15002 0.92059 0.0
C798 C 0.74415 0.18224 0.93874 0.0
O799 O 0.78924 0.96694 0.85889 0.0
O800 O 0.82767 0.02326 0.86914 0.0
O801 O 0.83226 0.11367 0.88167 0.0
O802 O 0.86234 0.08919 0.93168 0.0
O803 O 0.76312 0.98298 0.93847 0.0
O804 O 0.825 1.00089 0.92959 0.0
O805 O 0.74106 0.07204 0.92455 0.0
O806 O 0.7258 1.0093 0.94192 0.0
O807 O 0.70085 0.9246 0.91036 0.0
O808 O 0.66523 0.97559 0.89628 0.0
O809 O 0.77891 0.0697 0.85383 0.0
O810 O 0.7191 0.03903 0.86146 0.0
C811 C 0.82083 0.98901 0.8527 0.0
C812 C 0.79972 0.97349 0.93999 0.0
C813 C 0.90035 0.12623 0.88567 0.0
C814 C 0.93945 0.1744 0.84911 0.0
C815 C 0.97044 0.11802 0.88088 0.0
C816 C 0.93437 0.10469 0.89416 0.0
C817 C 0.97295 0.15192 0.85769 0.0
C818 C 0.90311 0.16135 0.86341 0.0
C819 C 0.86278 0.11569 0.90397 0.0
C820 C 0.75267 0.14996 0.04244 0.0
C821 C 0.76995 0.11904 0.0637 0.0
H822 H 0.72621 0.20713 0.99336 0.0
C823 C 0.71977 0.04732 0.9449 0.0
C824 C 0.74361 0.06082 0.8412 0.0
C825 C 0.63415 0.91406 0.89565 0.0
C826 C 0.57238 0.8806 0.90793 0.0
C827 C 0.59931 0.88353 0.84224 0.0
C828 C 0.63136 0.90452 0.85599 0.0
C829 C 0.56979 0.87203 0.86789 0.0
C830 C 0.60487 0.90161 0.92174 0.0
C831 C 0.66574 0.93949 0.90958 0.0
H832 H 0.99674 0.10259 0.88958 0.0
H833 H 0.93336 0.0783 0.91216 0.0
H834 H 1.00142 0.16137 0.8478 0.0
H835 H 0.87714 0.17896 0.85796 0.0
H836 H 0.59704 0.87666 0.8115 0.0
H837 H 0.6535 0.91389 0.83556 0.0
H838 H 0.54479 0.85649 0.85642 0.0
H839 H 0.60668 0.9094 0.95235 0.0
C840 C 0.82387 0.08179 0.28266 0.0
C841 C 0.79261 0.1461 0.27757 0.0
C842 C 0.8034 0.11265 0.29989 0.0
C843 C 0.80132 0.14758 0.23753 0.0
C844 C 0.8343 0.08421 0.2428 0.0
C845 C 0.82206 0.11671 0.22018 0.0
N846 N 0.83609 0.05098 0.30536 0.0
C847 C 0.86268 0.02469 0.29111 0.0
C848 C 0.85829 0.05482 0.22721 0.0
C849 C 0.87323 0.0254 0.25173 0.0
Gd850 Gd 0.73686 0.97022 0.40572 0.0
Gd851 Gd 0.81574 0.0534 0.37095 0.0
N852 N 0.79537 0.11073 0.33875 0.0
C853 C 0.77413 0.17753 0.29637 0.0
C854 C 0.77745 0.1412 0.35723 0.0
C855 C 0.7664 0.17502 0.33636 0.0
H856 H 0.77171 0.13932 0.38795 0.0
H857 H 0.75192 0.19909 0.3511 0.0
H858 H 0.79072 0.89207 0.38292 0.0
H859 H 0.87703 1.00392 0.31029 0.0
H860 H 0.82403 0.83664 0.4171 0.0
H861 H 0.76568 0.20385 0.28026 0.0
H862 H 0.79292 0.1729 0.21988 0.0
H863 H 0.68053 1.01471 0.47429 0.0
H864 H 0.86702 0.05571 0.19681 0.0
H865 H 0.89367 1.00385 0.24059 0.0
H866 H 0.79623 0.85856 0.55272 0.0
H867 H 0.82954 0.11882 0.18949 0.0
H868 H 0.71116 0.9653 0.58529 0.0
H869 H 0.67329 1.0132 0.5456 0.0
N870 N 0.7262 0.9717 0.47351 0.0
C871 C 0.7455 0.94344 0.49451 0.0
C872 C 0.6992 0.99534 0.49121 0.0
C873 C 0.71553 0.96672 0.55396 0.0
C874 C 0.69422 0.99391 0.53169 0.0
C875 C 0.74077 0.94037 0.53536 0.0
H876 H 0.75696 0.90762 0.58759 0.0
N877 N 0.77184 0.91894 0.43548 0.0
C878 C 0.76832 0.91591 0.47491 0.0
C879 C 0.80718 0.85628 0.47441 0.0
C880 C 0.78647 0.88471 0.49554 0.0
C881 C 0.7901 0.8902 0.41447 0.0
C882 C 0.80876 0.8589 0.43368 0.0
O883 O 0.75391 0.05924 0.34246 0.0
O884 O 0.70764 1.01613 0.37005 0.0
O885 O 0.71439 0.92239 0.37027 0.0
O886 O 0.68245 0.94132 0.42117 0.0
O887 O 0.78155 0.06841 0.42403 0.0
O888 O 0.72252 0.03488 0.42367 0.0
O889 O 0.80103 0.96825 0.4182 0.0
O890 O 0.81528 0.03094 0.43351 0.0
O891 O 0.85528 0.10371 0.37955 0.0
O892 O 0.87491 0.04377 0.38969 0.0
O893 O 0.76205 0.96641 0.34441 0.0
O894 O 0.8239 0.99054 0.35306 0.0
C895 C 0.718 0.04421 0.34568 0.0
C896 C 0.74427 0.06635 0.432 0.0
C897 C 0.64727 0.90624 0.37265 0.0
C898 C 0.60643 0.85563 0.34298 0.0
C899 C 0.58219 0.92278 0.34985 0.0
C900 C 0.61744 0.9341 0.36687 0.0
C901 C 0.57658 0.88383 0.33816 0.0
C902 C 0.64167 0.86701 0.36069 0.0
C903 C 0.68398 0.91673 0.39222 0.0
C904 C 0.78262 0.88235 0.53631 0.0
C905 C 0.76013 0.91026 0.55619 0.0
H906 H 0.82131 0.8317 0.48916 0.0
C907 C 0.81742 0.99332 0.44151 0.0
C908 C 0.79935 0.96705 0.33545 0.0
C909 C 0.92449 0.09015 0.37845 0.0
C910 C 0.98857 0.11756 0.39526 0.0
C911 C 0.98186 0.07102 0.34174 0.0
C912 C 0.9419 0.06882 0.34818 0.0
C913 C 1.00508 0.09448 0.36539 0.0
C914 C 0.94779 0.11519 0.40154 0.0
C915 C 0.88414 0.08095 0.39046 0.0
H916 H 0.55909 0.94424 0.34572 0.0
H917 H 0.62127 0.9644 0.37581 0.0
H918 H 0.5488 0.87567 0.32545 0.0
H919 H 0.6648 0.84546 0.36492 0.0
H920 H 0.9951 0.05361 0.31892 0.0
H921 H 0.92501 0.04898 0.3306 0.0
H922 H 0.03626 0.09421 0.36031 0.0
H923 H 0.93416 0.13213 0.42448 0.0
C924 C 0.19527 0.56679 0.54873 0.0
C925 C 0.13074 0.53767 0.55157 0.0
C926 C 0.16617 0.54766 0.56979 0.0
C927 C 0.12583 0.54481 0.51138 0.0
C928 C 0.18954 0.57585 0.5088 0.0
C929 C 0.15536 0.56342 0.48995 0.0
N930 N 0.22711 0.58025 0.56818 0.0
C931 C 0.25097 0.6074 0.55092 0.0
C932 C 0.21706 0.59945 0.48965 0.0
C933 C 0.24732 0.6162 0.51111 0.0
Gd934 Gd 0.31823 0.48519 0.66586 0.0
Gd935 Gd 0.23081 0.56219 0.63448 0.0
N936 N 0.17139 0.54147 0.60873 0.0
C937 C 0.1006 0.52247 0.57464 0.0
C938 C 0.1419 0.5275 0.6315 0.0
C939 C 0.10606 0.51761 0.61486 0.0
H940 H 0.14569 0.52537 0.66259 0.0
H941 H 0.08271 0.50664 0.63312 0.0
H942 H 0.39063 0.54262 0.63552 0.0
H943 H 0.2729 0.62249 0.56777 0.0
H944 H 0.44968 0.57347 0.66387 0.0
H945 H 0.07264 0.5159 0.56181 0.0
H946 H 0.09889 0.53701 0.4968 0.0
H947 H 0.27592 0.43222 0.73925 0.0
H948 H 0.21383 0.60692 0.45897 0.0
H949 H 0.26734 0.63653 0.4972 0.0
H950 H 0.44471 0.53748 0.7996 0.0
H951 H 0.15064 0.56983 0.45923 0.0
H952 H 0.34089 0.45435 0.84302 0.0
H953 H 0.2875 0.42035 0.80894 0.0
N954 N 0.321 0.47523 0.73358 0.0
C955 C 0.35234 0.49233 0.75118 0.0
C956 C 0.29816 0.44913 0.75371 0.0
C957 C 0.33556 0.46057 0.81236 0.0
C958 C 0.3049 0.44179 0.79337 0.0
C959 C 0.36032 0.48541 0.79111 0.0
H960 H 0.40053 0.49634 0.8387 0.0
N961 N 0.3705 0.52083 0.69022 0.0
C962 C 0.37803 0.51511 0.72884 0.0
C963 C 0.43724 0.55324 0.7224 0.0
C964 C 0.41164 0.53149 0.74602 0.0
C965 C 0.39623 0.5403 0.66657 0.0
C966 C 0.42962 0.55745 0.68246 0.0
O967 O 0.22409 0.50064 0.6059 0.0
O968 O 0.27499 0.45868 0.62624 0.0
O969 O 0.36683 0.46309 0.63134 0.0
O970 O 0.345 0.42867 0.67993 0.0
O971 O 0.22466 0.52588 0.68947 0.0
O972 O 0.25521 0.46596 0.68295 0.0
O973 O 0.31889 0.55036 0.6807 0.0
O974 O 0.25592 0.56204 0.69546 0.0
O975 O 0.1828 0.5962 0.65816 0.0
O976 O 0.23514 0.62601 0.63874 0.0
O977 O 0.31866 0.50887 0.60399 0.0
O978 O 0.29309 0.57062 0.613 0.0
C979 C 0.2437 0.46654 0.60546 0.0
C980 C 0.22392 0.48739 0.69211 0.0
C981 C 0.37728 0.39411 0.62888 0.0
C982 C 0.42361 0.35246 0.59306 0.0
C983 C 0.35866 0.32834 0.60954 0.0
C984 C 0.34941 0.36406 0.62715 0.0
C985 C 0.39561 0.32212 0.59354 0.0
C986 C 0.41396 0.38853 0.61109 0.0
C987 C 0.36984 0.43041 0.65118 0.0
C988 C 0.41905 0.52513 0.78588 0.0
C989 C 0.3937 0.5019 0.80822 0.0
H990 H 0.46333 0.56629 0.7346 0.0
C991 C 0.29291 0.56617 0.70374 0.0
C992 C 0.31213 0.54497 0.59151 0.0
C993 C 0.17584 0.66233 0.63847 0.0
C994 C 0.13968 0.7231 0.65062 0.0
C995 C 0.14081 0.69468 0.58559 0.0
C996 C 0.16444 0.66388 0.59915 0.0
C997 C 0.1285 0.72413 0.61107 0.0
C998 C 0.16307 0.69174 0.6643 0.0
C999 C 0.20019 0.62988 0.65339 0.0
H1000 H 0.3373 0.30507 0.60904 0.0
H1001 H 0.32085 0.36782 0.64016 0.0
H1002 H 0.4023 0.29315 0.58233 0.0
H1003 H 0.43507 0.41222 0.61183 0.0
H1004 H 0.13197 0.69572 0.55522 0.0
H1005 H 0.17361 0.64132 0.57904 0.0
H1006 H 0.10999 0.74765 0.59995 0.0
H1007 H 0.17172 0.69051 0.69478 0.0
C1008 C 0.24454 0.36377 0.56266 0.0
C1009 C 0.20525 0.35275 0.56384 0.0
C1010 C 0.25606 0.40187 0.57343 0.0
C1011 C 0.22876 0.43076 0.58561 0.0
H1012 H 0.26639 0.34319 0.55246 0.0
H1013 H 0.28695 0.40862 0.57275 0.0
S1014 S 0.12206 0.41651 0.59327 0.0
N1015 N 0.13878 0.374 0.57714 0.0
N1016 N 0.16063 0.44509 0.5978 0.0
C1017 C 0.18935 0.42021 0.5862 0.0
C1018 C 0.17764 0.38133 0.57551 0.0
C1019 C 0.8715 0.9356 0.84464 0.0
C1020 C 0.8566 0.97284 0.83388 0.0
C1021 C 0.91115 0.92578 0.8385 0.0
C1022 C 0.93649 0.9516 0.81859 0.0
H1023 H 0.8528 0.91435 0.8589 0.0
H1024 H 0.92136 0.89696 0.84736 0.0
S1025 S 0.91096 0.05102 0.78051 0.0
N1026 N 0.87036 0.03513 0.80114 0.0
N1027 N 0.94311 1.01505 0.78622 0.0
C1028 C 0.92134 0.98803 0.80592 0.0
C1029 C 0.8818 0.99876 0.81379 0.0
C1030 C 0.29918 0.66893 0.05172 0.0
C1031 C 0.3377 0.67906 0.06105 0.0
C1032 C 0.28532 0.63034 0.0585 0.0
C1033 C 0.30932 0.60022 0.07498 0.0
H1034 H 0.28008 0.69045 0.03792 0.0
H1035 H 0.25519 0.62422 0.05114 0.0
S1036 S 0.41207 0.6122 0.10573 0.0
N1037 N 0.39934 0.65606 0.08885 0.0
N1038 N 0.37335 0.58402 0.10047 0.0
C1039 C 0.34778 0.61014 0.0843 0.0
C1040 C 0.36178 0.64937 0.07791 0.0
C1041 C 0.6212 0.04843 0.29286 0.0
C1042 C 0.60316 0.0819 0.30903 0.0
C1043 C 0.66021 0.03828 0.30185 0.0
C1044 C 0.6837 0.06221 0.32579 0.0
H1045 H 0.60465 0.02929 0.27388 0.0
H1046 H 0.6717 1.01059 0.29119 0.0
S1047 S 0.65309 0.15599 0.37099 0.0
N1048 N 0.61377 0.14031 0.34813 0.0
N1049 N 0.68689 0.12222 0.36319 0.0
C1050 C 0.66677 0.09657 0.3406 0.0
C1051 C 0.62663 0.10607 0.33284 0.0
C1052 C 0.6714 0.14425 0.46577 0.0
C1053 C 0.69544 0.17661 0.47501 0.0
C1054 C 0.68706 0.10801 0.45358 0.0
C1055 C 0.72758 0.10244 0.45081 0.0
H1056 H 0.63999 0.14716 0.46756 0.0
H1057 H 0.66724 0.08476 0.44519 0.0
S1058 S 0.8031 0.17684 0.47787 0.0
N1059 N 0.7612 0.20013 0.48378 0.0
N1060 N 0.79161 0.13206 0.46341 0.0
C1061 C 0.75195 0.13425 0.46247 0.0
C1062 C 0.73571 0.17138 0.47358 0.0
C1063 C 0.1337 0.42126 0.69426 0.0
C1064 C 0.10707 0.442 0.71795 0.0
C1065 C 0.17236 0.43431 0.68814 0.0
C1066 C 0.18607 0.46923 0.70503 0.0
H1067 H 0.12473 0.39418 0.68077 0.0
H1068 H 0.1913 0.41736 0.66934 0.0
S1069 S 0.12991 0.53201 0.77381 0.0
N1070 N 0.09887 0.49705 0.76166 0.0
N1071 N 0.17039 0.5227 0.74938 0.0
C1072 C 0.16006 0.48964 0.72988 0.0
C1073 C 0.12091 0.47601 0.73628 0.0
C1074 C 0.84446 0.91387 0.93704 0.0
C1075 C 0.80998 0.9318 0.95028 0.0
C1076 C 0.85104 0.87297 0.94194 0.0
C1077 C 0.8242 0.84875 0.96206 0.0
H1078 H 0.86679 0.93167 0.92338 0.0
H1079 H 0.87892 0.8611 0.93308 0.0
S1080 S 0.73189 0.88196 1.00755 0.0
N1081 N 0.74989 0.92221 0.98714 0.0
N1082 N 0.76334 0.84643 0.99777 0.0
C1083 C 0.79031 0.86665 0.97659 0.0
C1084 C 0.78319 0.90787 0.97093 0.0
C1085 C 0.38598 0.60313 0.23476 0.0
C1086 C 0.42418 0.5896 0.22569 0.0
C1087 C 0.35221 0.58603 0.21852 0.0
C1088 C 0.35467 0.55511 0.19167 0.0
H1089 H 0.38178 0.62733 0.25474 0.0
H1090 H 0.32405 0.59722 0.22713 0.0
S1091 S 0.44769 0.50745 0.15971 0.0
N1092 N 0.46181 0.5415 0.19043 0.0
N1093 N 0.39974 0.51083 0.15791 0.0
C1094 C 0.39285 0.54083 0.18303 0.0
C1095 C 0.42704 0.55772 0.20035 0.0
C1096 C 0.56181 0.23775 0.36198 0.0
C1097 C 0.55013 0.1986 0.3567 0.0
C1098 C 0.57265 0.25156 0.39914 0.0
C1099 C 0.57234 0.22688 0.43277 0.0
H1100 H 0.56331 0.25769 0.33711 0.0
H1101 H 0.58313 0.28154 0.40125 0.0
S1102 S 0.54695 0.12133 0.4348 0.0
N1103 N 0.54044 0.13515 0.38905 0.0
N1104 N 0.56021 0.16157 0.45777 0.0
C1105 C 0.55961 0.18829 0.42813 0.0
C1106 C 0.54862 0.17407 0.39042 0.0
C1107 C 0.11511 0.31153 0.63497 0.0
C1108 C 0.09075 0.30128 0.60304 0.0
C1109 C 0.10025 0.31844 0.67244 0.0
C1110 C 0.0603 0.3153 0.6799 0.0
H1111 H 0.14634 0.31446 0.63096 0.0
H1112 H 0.12003 0.32783 0.69522 0.0
S1113 S 0.98552 0.27901 0.60971 0.0
N1114 N 0.02583 0.28182 0.58346 0.0
N1115 N 0.9976 0.2931 0.65418 0.0
C1116 C 0.0362 0.30087 0.64939 0.0
C1117 C 0.05131 0.29489 0.61085 0.0
C1118 C 0.94096 0.82028 0.85405 0.0
C1119 C 0.98072 0.82951 0.85358 0.0
C1120 C 0.92258 0.80799 0.88847 0.0
C1121 C 0.94312 0.80371 0.92427 0.0
H1122 H 0.92334 0.82431 0.82815 0.0
H1123 H 0.89154 0.80216 0.88687 0.0
S1124 S 0.04907 0.81651 0.93775 0.0
N1125 N 0.04137 0.82856 0.8915 0.0
N1126 N 1.00602 0.80526 0.95604 0.0
C1127 C 0.98313 0.81098 0.92407 0.0
C1128 C 1.00213 0.82355 0.88883 0.0
C1129 C 0.44978 0.73493 0.18284 0.0
C1130 C 0.48388 0.71251 0.18493 0.0
C1131 C 0.43746 0.7514 0.14729 0.0
C1132 C 0.455 0.74144 0.11112 0.0
H1133 H 0.43307 0.74103 0.20882 0.0
H1134 H 0.41412 0.7726 0.14889 0.0
S1135 S 0.55289 0.69686 0.10182 0.0
N1136 N 0.54305 0.69421 0.14893 0.0
N1137 N 0.51385 0.71675 0.08126 0.0
C1138 C 0.49082 0.72198 0.11301 0.0
C1139 C 0.50636 0.70946 0.15001 0.0
C1140 C 0.20535 0.43691 0.2871 0.0
C1141 C 0.1728 0.41267 0.28023 0.0
C1142 C 0.22696 0.4528 0.25575 0.0
C1143 C 0.21639 0.44498 0.21684 0.0
H1144 H 0.21286 0.4452 0.31666 0.0
H1145 H 0.25039 0.47322 0.2619 0.0
S1146 S 0.13659 0.37977 0.18395 0.0
N1147 N 0.13367 0.37864 0.23211 0.0
N1148 N 0.17336 0.40932 0.17341 0.0
C1149 C 0.1852 0.41932 0.2099 0.0
C1150 C 0.16362 0.40292 0.24159 0.0
C1151 C 0.88365 0.92406 0.49673 0.0
C1152 C 0.87613 0.93328 0.53598 0.0
C1153 C 0.8666 0.94576 0.46622 0.0
C1154 C 0.84168 0.97777 0.47372 0.0
H1155 H 0.9017 0.89886 0.48953 0.0
H1156 H 0.87156 0.93627 0.43647 0.0
S1157 S 0.81327 1.01499 0.57095 0.0
N1158 N 0.84279 0.97748 0.58065 0.0
N1159 N 0.8111 0.01866 0.52282 0.0
C1160 C 0.83542 0.98877 0.51261 0.0
C1161 C 0.85258 0.9664 0.5439 0.0
C1162 C 0.34156 0.59963 0.74748 0.0
C1163 C 0.30488 0.58166 0.74255 0.0
C1164 C 0.35547 0.60975 0.78482 0.0
C1165 C 0.33287 0.60276 0.81842 0.0
H1166 H 0.36036 0.60436 0.72249 0.0
H1167 H 0.38497 0.62079 0.78763 0.0
S1168 S 0.23329 0.56077 0.82135 0.0
N1169 N 0.24507 0.56056 0.77459 0.0
N1170 N 0.27105 0.58001 0.84424 0.0
C1171 C 0.29522 0.58739 0.81361 0.0
C1172 C 0.28116 0.57692 0.7758 0.0
C1173 C 0.66486 0.05377 0.04103 0.0
C1174 C 0.64184 0.08775 0.03567 0.0
C1175 C 0.69048 0.04108 1.01164 0.0
C1176 C 0.69413 0.06224 0.97623 0.0
H1177 H 0.66181 0.03605 0.06732 0.0
H1178 H 0.70718 1.01429 1.0165 0.0
S1179 S 0.64194 0.1545 0.94953 0.0
N1180 N 0.62591 0.14352 0.99372 0.0
N1181 N 0.67349 0.11945 0.93837 0.0
C1182 C 0.67238 0.09707 0.97139 0.0
C1183 C 0.6464 0.1099 1.00118 0.0
C1184 C 0.70741 0.09088 0.74037 0.0
C1185 C 0.68097 0.12147 0.74898 0.0
C1186 C 0.72998 0.07288 0.77011 0.0
C1187 C 0.72664 0.08496 0.80921 0.0
H1188 H 0.70906 0.07941 0.71097 0.0
H1189 H 0.74834 0.04791 0.76289 0.0
S1190 S 0.66473 0.16638 0.84578 0.0
N1191 N 0.65544 0.16521 0.79847 0.0
N1192 N 0.6969 0.13091 0.85421 0.0
C1193 C 0.70177 0.11669 0.8176 0.0
C1194 C 0.67917 0.1351 0.7875 0.0
C1195 C 0.17981 0.45036 0.02917 0.0
C1196 C 0.20258 0.484 0.03585 0.0
C1197 C 0.1714 0.43784 0.99104 0.0
C1198 C 0.18542 0.45857 0.95803 0.0
H1199 H 0.16952 0.43281 0.05364 0.0
H1200 H 0.15527 0.4107 0.98756 0.0
S1201 S 0.2437 0.55079 0.96026 0.0
N1202 N 0.23747 0.53898 1.00668 0.0
N1203 N 0.22047 0.51673 0.93523 0.0
C1204 C 0.20665 0.49348 0.96459 0.0
C1205 C 0.21538 0.50597 1.0034 0.0
C1206 C 0.85613 0.92796 0.31234 0.0
C1207 C 0.81639 0.9377 0.30825 0.0
C1208 C 0.87523 0.90401 0.28555 0.0
C1209 C 0.85524 0.88633 0.25435 0.0
H1210 H 0.8732 0.93955 0.33629 0.0
H1211 H 0.90628 0.89944 0.28958 0.0
S1212 S 0.7495 0.89936 0.23242 0.0
N1213 N 0.75697 0.92724 0.27104 0.0
N1214 N 0.79209 0.87888 0.22218 0.0
C1215 C 0.8149 0.89464 0.25048 0.0
C1216 C 0.7956 0.92057 0.27734 0.0
C1217 C 0.3454 0.59192 0.5445 0.0
C1218 C 0.32549 0.55627 0.55154 0.0
C1219 C 0.35477 0.60434 0.50616 0.0
C1220 C 0.34412 0.58182 0.47337 0.0
H1221 H 0.35293 0.61076 0.56875 0.0
H1222 H 0.36895 0.63256 0.50208 0.0
S1223 S 0.29341 0.48522 0.47646 0.0
N1224 N 0.29695 0.49799 0.52276 0.0
N1225 N 0.31449 0.52092 0.45118 0.0
C1226 C 0.32543 0.54547 0.48037 0.0
C1227 C 0.31624 0.53278 0.51926 0.0
C1228 C 0.25174 0.20256 0.43298 0.0
C1229 C 0.24436 0.23809 0.45272 0.0
C1230 C 0.29002 0.18885 0.42705 0.0
C1231 C 0.32228 0.21016 0.44084 0.0
H1232 H 0.22764 0.18421 0.42376 0.0
H1233 H 0.29421 0.16024 0.41385 0.0
S1234 S 0.31906 0.30743 0.48944 0.0
N1235 N 0.27272 0.29613 0.48247 0.0
N1236 N 0.34455 0.27062 0.47102 0.0
C1237 C 0.31536 0.24705 0.45808 0.0
C1238 C 0.27643 0.26103 0.46399 0.0
C1239 C 0.0439 0.06567 0.70477 0.0
C1240 C 0.07908 0.07156 0.68427 0.0
C1241 C 0.03143 0.02779 0.71548 0.0
C1242 C 0.05376 0.99431 0.7063 0.0
H1243 H 0.02599 0.09058 0.71312 0.0
H1244 H 1.00496 0.02489 0.73247 0.0
S1245 S 0.14544 0.99231 0.64923 0.0
N1246 N 0.13478 0.03962 0.65315 0.0
N1247 N 0.11025 0.96857 0.6723 0.0
C1248 C 0.08777 0.99932 0.68415 0.0
C1249 C 0.10071 0.03787 0.67337 0.0
C1250 C 0.22593 0.79081 0.95257 0.0
C1251 C 0.22076 0.82581 0.93051 0.0
C1252 C 0.26335 0.77545 0.96044 0.0
C1253 C 0.29688 0.79465 0.94659 0.0
H1254 H 0.20094 0.77615 0.96537 0.0
H1255 H 0.26612 0.75012 0.97976 0.0
S1256 S 0.29997 0.88528 0.88558 0.0
N1257 N 0.25301 0.87781 0.89336 0.0
N1258 N 0.32292 0.84846 0.90767 0.0
C1259 C 0.29216 0.82799 0.92243 0.0
C1260 C 0.25422 0.84371 0.91448 0.0
C1261 C 0.48762 0.04885 0.15897 0.0
C1262 C 0.46503 0.05908 0.19174 0.0
C1263 C 0.47349 0.02281 0.1304 0.0
C1264 C 0.43674 1.0048 0.13433 0.0
H1265 H 0.51637 0.06123 0.15528 0.0
H1266 H 0.49089 1.01761 0.10455 0.0
S1267 S 0.36651 0.0195 0.21435 0.0
N1268 N 0.40389 0.0478 0.22576 0.0
N1269 N 0.37867 0.99764 0.17339 0.0
C1270 C 0.41484 1.01291 0.16766 0.0
C1271 C 0.42869 0.04016 0.19612 0.0
C1272 C 0.74322 0.37758 0.61746 0.0
C1273 C 0.7729 0.35714 0.63768 0.0
C1274 C 0.71473 0.35795 0.59613 0.0
C1275 C 0.71553 0.31691 0.59099 0.0
H1276 H 0.74128 0.40942 0.61854 0.0
H1277 H 0.6915 0.3756 0.58378 0.0
S1278 S 0.78713 0.24834 0.63681 0.0
N1279 N 0.80071 0.29232 0.6521 0.0
N1280 N 0.7488 0.25578 0.60825 0.0
C1281 C 0.74541 0.2956 0.61018 0.0
C1282 C 0.77394 0.31563 0.63378 0.0
C1283 C 1.00638 0.51445 0.81961 0.0
C1284 C 0.98167 0.48172 0.82389 0.0
C1285 C 0.99392 0.55255 0.82982 0.0
C1286 C 0.95632 0.55954 0.84511 0.0
H1287 H 0.03491 0.51095 0.80658 0.0
H1288 H 1.01369 0.57693 0.82489 0.0
S1289 S 0.88157 0.48296 0.86502 0.0
N1290 N 0.91899 0.45814 0.84723 0.0
N1291 N 0.8952 0.5296 0.8657 0.0
C1292 C 0.93205 0.52664 0.85138 0.0
C1293 C 0.94483 0.48783 0.84102 0.0
C1294 C 0.75513 0.72085 0.06736 0.0
C1295 C 0.79314 0.72789 0.0811 0.0
C1296 C 0.729 0.69744 0.08902 0.0
C1297 C 0.74013 0.68099 0.12523 0.0
H1298 H 0.74644 0.73134 0.03866 0.0
H1299 H 0.7009 0.69029 0.07639 0.0
S1300 S 0.8338 0.69649 0.17684 0.0
N1301 N 0.839 0.71999 0.13474 0.0
N1302 N 0.78935 0.67779 0.17618 0.0
C1303 C 0.77674 0.69075 0.14065 0.0
C1304 C 0.80343 0.71385 0.11839 0.0
C1305 C 0.5361 0.47843 0.33428 0.0
C1306 C 0.57171 0.4711 0.35369 0.0
C1307 C 0.52337 0.51706 0.32626 0.0
C1308 C 0.54621 0.5496 0.33685 0.0
H1309 H 0.51904 0.45405 0.32331 0.0
H1310 H 0.49695 0.52132 0.30927 0.0
S1311 S 0.64027 0.54648 0.39044 0.0
N1312 N 0.6283 0.49966 0.38534 0.0
N1313 N 0.60446 0.57228 0.3702 0.0
C1314 C 0.58061 0.54277 0.35834 0.0
C1315 C 0.59339 0.50347 0.36677 0.0
C1316 C 0.41993 0.26924 0.17335 0.0
C1317 C 0.42126 0.30271 0.19731 0.0
C1318 C 0.43195 0.23207 0.18754 0.0
C1319 C 0.44566 0.22731 0.2261 0.0
H1320 H 0.41184 0.27227 0.14285 0.0
H1321 H 0.43236 0.20736 0.16771 0.0
S1322 S 0.45092 0.30544 0.30129 0.0
N1323 N 0.43424 0.32835 0.26187 0.0
N1324 N 0.45672 0.2589 0.28876 0.0
C1325 C 0.44457 0.2602 0.25094 0.0
C1326 C 0.43256 0.29786 0.23642 0.0
C1327 C 0.93623 0.28504 0.83016 0.0
C1328 C 0.95975 0.28958 0.79682 0.0
C1329 C 0.92804 0.24752 0.8457 0.0
C1330 C 0.94348 0.21318 0.8287 0.0
H1331 H 0.92508 0.31079 0.84505 0.0
H1332 H 0.91113 0.24556 0.87236 0.0
S1333 S 1.0052 0.20922 0.7398 0.0
N1334 N 0.99696 0.25671 0.74626 0.0
N1335 N 0.98178 0.18624 0.77539 0.0
C1336 C 0.96592 0.21737 0.79449 0.0
C1337 C 0.97389 0.25554 0.77848 0.0
C1338 C 0.99162 0.65295 0.11318 0.0
C1339 C 0.03058 0.66043 0.1025 0.0
C1340 C 0.96037 0.66792 0.0911 0.0
C1341 C 0.96675 0.69044 0.05711 0.0
H1342 H 0.98521 0.63651 0.13966 0.0
H1343 H 0.93091 0.66323 0.10164 0.0
S1344 S 0.06275 0.71877 1.01621 0.0
N1345 N 0.07367 0.69188 0.05526 0.0
N1346 N 1.01459 0.71933 1.01333 0.0
C1347 C 1.00537 0.6966 0.04483 0.0
C1348 C 0.03738 0.68175 0.06765 0.0
C1349 C 0.60518 0.78231 0.35518 0.0
C1350 C 0.60026 0.81455 0.32945 0.0
C1351 C 0.59484 0.74394 0.34393 0.0
C1352 C 0.57904 0.73656 0.30673 0.0
H1353 H 0.61555 0.78698 0.38469 0.0
H1354 H 0.5982 0.72004 0.36486 0.0
S1355 S 0.56637 0.81003 0.22665 0.0
N1356 N 0.58333 0.83579 0.26366 0.0
N1357 N 0.56315 0.76419 0.2428 0.0
C1358 C 0.57645 0.76818 0.27998 0.0
C1359 C 0.58707 0.80707 0.29135 0.0
C1360 C 0.53461 0.35139 0.5815 0.0
C1361 C 0.54044 0.32671 0.5493 0.0
C1362 C 0.49686 0.3606 0.59463 0.0
C1363 C 0.46335 0.34562 0.57592 0.0
H1364 H 0.55949 0.36248 0.59757 0.0
H1365 H 0.49416 0.3781 0.62079 0.0
S1366 S 0.46356 0.28247 0.4875 0.0
N1367 N 0.51022 0.28908 0.49756 0.0
N1368 N 0.43928 0.30762 0.52072 0.0
C1369 C 0.4691 0.3225 0.54223 0.0
C1370 C 0.50759 0.31289 0.5292 0.0
C1371 C 0.10455 0.74652 0.7107 0.0
C1372 C 0.12669 0.75507 0.67704 0.0
C1373 C 0.08731 0.77693 0.73255 0.0
C1374 C 0.09159 0.8166 0.72114 0.0
H1375 H 0.09889 0.71618 0.71899 0.0
H1376 H 0.0686 0.7693 0.75694 0.0
S1377 S 0.15131 0.85458 0.63912 0.0
N1378 N 0.15576 0.80617 0.63649 0.0
N1379 N 0.12241 0.86298 0.67671 0.0
C1380 C 0.1154 0.82548 0.68902 0.0
C1381 C 0.13322 0.79477 0.66717 0.0
C1382 C 0.46963 0.86419 0.94477 0.0
C1383 C 0.47499 0.83833 0.97657 0.0
C1384 C 0.50151 0.87938 0.92417 0.0
C1385 C 0.53998 0.86882 0.93425 0.0
H1386 H 0.44042 0.87137 0.93468 0.0
H1387 H 0.49595 0.89836 0.89914 0.0
S1388 S 0.56948 0.80117 1.01483 0.0
N1389 N 0.52132 0.80269 0.01747 0.0
N1390 N 0.58165 0.83094 0.97837 0.0
C1391 C 0.54584 0.84389 0.96685 0.0
C1392 C 0.51319 0.82863 0.98809 0.0
C1393 C 0.04595 0.16275 0.39901 0.0
C1394 C 1.01486 0.1439 0.41842 0.0
C1395 C 0.07358 0.18488 0.4191 0.0
C1396 C 0.07082 0.19102 0.45957 0.0
H1397 H 0.04919 0.1605 0.36765 0.0
H1398 H 0.09696 0.19815 0.40232 0.0
S1399 S 0.99445 0.1502 0.52492 0.0
N1400 N 0.98317 0.13296 0.48133 0.0
N1401 N 0.03389 0.17738 0.51868 0.0
C1402 C 0.03962 0.1732 0.47967 0.0
C1403 C 1.01174 0.14944 0.45919 0.0
loop_
_geom_bond_atom_site_label_1
_geom_bond_atom_site_label_2
_geom_bond_distance
_geom_bond_site_symmetry_2
_ccdc_geom_bond_type
C0 C2 1.422 . S
C0 C4 1.415 1_455 S
C0 N6 1.369 . S
C1 C2 1.421 . S
C1 C3 1.417 1_455 S
C1 C13 1.422 . S
C2 C0 1.422 . S
C2 C1 1.421 . S
C2 N12 1.359 . S
C3 C1 1.417 1_655 S
C3 C5 1.329 . S
C3 H22 0.930 . S
C4 C0 1.415 1_655 S
C4 C5 1.437 . S
C4 C8 1.413 . S
C5 C3 1.329 . S
C5 C4 1.437 . S
C5 H27 0.929 . S
N6 C0 1.369 . S
N6 C7 1.338 . S
N6 Gd11 2.622 . S
C7 N6 1.338 . S
C7 C9 1.378 1_455 S
C7 H19 0.929 . S
C8 C4 1.413 . S
C8 C9 1.348 . S
C8 H24 0.931 . S
C9 C7 1.378 1_655 S
C9 C8 1.348 . S
C9 H25 0.930 . S
Gd10 N30 2.622 . S
Gd10 N37 2.570 . S
Gd10 O44 2.353 . S
Gd10 O45 2.468 . S
Gd10 O46 2.427 . S
Gd10 O48 2.388 . S
Gd10 O49 2.386 . S
Gd10 O53 2.307 . S
Gd10 C63 2.805 . S
Gd11 N6 2.622 . S
Gd11 N12 2.570 . S
Gd11 O43 2.386 . S
Gd11 O47 2.307 . S
Gd11 O50 2.353 . S
Gd11 O51 2.468 . S
Gd11 O52 2.427 . S
Gd11 O54 2.388 . S
Gd11 C75 2.805 . S
N12 C2 1.359 . S
N12 Gd11 2.570 . S
N12 C14 1.343 . S
C13 C1 1.422 . S
C13 C15 1.321 . S
C13 H21 0.931 . S
C14 N12 1.343 . S
C14 C15 1.390 . S
C14 H16 0.931 . S
C15 C13 1.321 . S
C15 C14 1.390 . S
C15 H17 0.930 . S
H16 C14 0.931 . S
H17 C15 0.930 . S
H18 C41 0.931 . S
H19 C7 0.929 . S
H20 C42 0.930 . S
H21 C13 0.931 . S
H22 C3 0.930 . S
H23 C32 0.929 . S
H24 C8 0.931 . S
H25 C9 0.930 . S
H26 C64 0.930 . S
H27 C5 0.929 . S
H28 C33 0.931 . S
H29 C34 0.930 . S
N30 Gd10 2.622 . S
N30 C31 1.369 . S
N30 C32 1.338 . S
C31 N30 1.369 . S
C31 C35 1.415 . S
C31 C38 1.422 . S
C32 H23 0.929 . S
C32 N30 1.338 . S
C32 C34 1.378 . S
C33 H28 0.931 . S
C33 C34 1.348 . S
C33 C35 1.413 . S
C34 H29 0.930 . S
C34 C32 1.378 . S
C34 C33 1.348 . S
C35 C31 1.415 . S
C35 C33 1.413 . S
C35 C65 1.437 . S
H36 C65 0.929 . S
N37 Gd10 2.570 . S
N37 C38 1.359 . S
N37 C41 1.343 . S
C38 C31 1.422 . S
C38 N37 1.359 . S
C38 C40 1.421 . S
C39 C40 1.422 . S
C39 C42 1.321 . S
C39 H66 0.931 . S
C40 C38 1.421 . S
C40 C39 1.422 . S
C40 C64 1.417 . S
C41 H18 0.931 . S
C41 N37 1.343 . S
C41 C42 1.390 . S
C42 H20 0.930 . S
C42 C39 1.321 . S
C42 C41 1.390 . S
O43 Gd11 2.386 . S
O43 C55 1.265 . S
O44 Gd10 2.353 . S
O44 C55 1.242 . S
O45 Gd10 2.468 . S
O45 C63 1.263 . S
O46 Gd10 2.427 . S
O46 C63 1.252 . S
O47 Gd11 2.307 . S
O47 C56 1.261 . S
O48 Gd10 2.388 . S
O48 C56 1.252 . S
O49 Gd10 2.386 . S
O49 C67 1.265 . S
O50 Gd11 2.353 . S
O50 C67 1.242 . S
O51 Gd11 2.468 . S
O51 C75 1.263 . S
O52 Gd11 2.427 . S
O52 C75 1.252 . S
O53 Gd10 2.307 . S
O53 C68 1.261 . S
O54 Gd11 2.388 . S
O54 C68 1.252 . S
C55 O43 1.265 . S
C55 O44 1.242 . S
C56 O47 1.261 . S
C56 O48 1.252 . S
C57 C60 1.394 . S
C57 C62 1.370 . S
C57 C63 1.500 . S
C58 C61 1.383 . S
C58 C62 1.395 . S
C59 C60 1.396 . S
C59 C61 1.365 . S
C59 H76 0.929 . S
C60 C57 1.394 . S
C60 C59 1.396 . S
C60 H77 0.930 . S
C61 C58 1.383 . S
C61 C59 1.365 . S
C61 H78 0.931 . S
C62 C57 1.370 . S
C62 C58 1.395 . S
C62 H79 0.930 . S
C63 Gd10 2.805 . S
C63 O45 1.263 . S
C63 O46 1.252 . S
C63 C57 1.500 . S
C64 H26 0.930 . S
C64 C40 1.417 . S
C64 C65 1.329 . S
C65 C35 1.437 . S
C65 H36 0.929 . S
C65 C64 1.329 . S
H66 C39 0.931 . S
C67 O49 1.265 . S
C67 O50 1.242 . S
C68 O53 1.261 . S
C68 O54 1.252 . S
C69 C72 1.394 . S
C69 C74 1.370 . S
C69 C75 1.500 . S
C70 C73 1.383 . S
C70 C74 1.395 . S
C71 C72 1.396 . S
C71 C73 1.365 . S
C71 H80 0.929 . S
C72 C69 1.394 . S
C72 C71 1.396 . S
C72 H81 0.930 . S
C73 C70 1.383 . S
C73 C71 1.365 . S
C73 H82 0.931 . S
C74 C69 1.370 . S
C74 C70 1.395 . S
C74 H83 0.930 . S
C75 Gd11 2.805 . S
C75 O51 1.263 . S
C75 O52 1.252 . S
C75 C69 1.500 . S
H76 C59 0.929 . S
H77 C60 0.930 . S
H78 C61 0.931 . S
H79 C62 0.930 . S
H80 C71 0.929 . S
H81 C72 0.930 . S
H82 C73 0.931 . S
H83 C74 0.930 . S
C84 C86 1.422 . S
C84 C88 1.415 . S
C84 N90 1.369 . S
C85 C86 1.421 . S
C85 C87 1.417 . S
C85 C97 1.422 . S
C86 C84 1.422 . S
C86 C85 1.421 . S
C86 N96 1.359 . S
C87 C85 1.417 . S
C87 C89 1.329 . S
C87 H106 0.930 . S
C88 C84 1.415 . S
C88 C89 1.437 . S
C88 C92 1.413 . S
C89 C87 1.329 . S
C89 C88 1.437 . S
C89 H111 0.929 . S
N90 C84 1.369 . S
N90 C91 1.338 . S
N90 Gd95 2.622 . S
C91 N90 1.338 . S
C91 C93 1.378 . S
C91 H103 0.924 1_655 S
C92 C88 1.413 . S
C92 C93 1.348 . S
C92 H108 0.931 . S
C93 C91 1.378 . S
C93 C92 1.348 . S
C93 H109 0.930 . S
Gd94 N114 2.622 . S
Gd94 N121 2.570 . S
Gd94 O128 2.353 . S
Gd94 O129 2.468 . S
Gd94 O130 2.427 . S
Gd94 O132 2.388 1_455 S
Gd94 O133 2.386 . S
Gd94 O137 2.307 . S
Gd94 C147 2.805 . S
Gd95 N90 2.622 . S
Gd95 N96 2.570 . S
Gd95 O127 2.386 . S
Gd95 O131 2.307 . S
Gd95 O134 2.353 1_655 S
Gd95 O135 2.468 . S
Gd95 O136 2.427 . S
Gd95 O138 2.388 1_655 S
Gd95 C159 2.805 . S
N96 C86 1.359 . S
N96 Gd95 2.570 . S
N96 C98 1.343 . S
C97 C85 1.422 . S
C97 C99 1.321 . S
C97 H105 0.931 . S
C98 N96 1.343 . S
C98 C99 1.390 . S
C98 H100 0.931 . S
C99 C97 1.321 . S
C99 C98 1.390 . S
C99 H101 0.930 . S
H100 C98 0.931 . S
H101 C99 0.930 . S
H102 C125 0.931 . S
H103 C91 0.924 1_455 S
H104 C126 0.930 . S
H105 C97 0.931 . S
H106 C87 0.930 . S
H107 C116 0.929 . S
H108 C92 0.931 . S
H109 C93 0.930 . S
H110 C148 0.930 . S
H111 C89 0.929 . S
H112 C117 0.931 . S
H113 C118 0.930 . S
N114 Gd94 2.622 . S
N114 C115 1.369 . S
N114 C116 1.338 . S
C115 N114 1.369 . S
C115 C119 1.415 1_565 S
C115 C122 1.422 . S
C116 H107 0.929 . S
C116 N114 1.338 . S
C116 C118 1.378 1_565 S
C117 H112 0.931 . S
C117 C118 1.348 . S
C117 C119 1.413 . S
C118 H113 0.930 . S
C118 C116 1.378 1_545 S
C118 C117 1.348 . S
C119 C115 1.415 1_545 S
C119 C117 1.413 . S
C119 C149 1.437 . S
H120 C149 0.929 . S
N121 Gd94 2.570 . S
N121 C122 1.359 . S
N121 C125 1.343 . S
C122 C115 1.422 . S
C122 N121 1.359 . S
C122 C124 1.421 . S
C123 C124 1.422 . S
C123 C126 1.321 . S
C123 H150 0.931 . S
C124 C122 1.421 . S
C124 C123 1.422 . S
C124 C148 1.417 1_565 S
C125 H102 0.931 . S
C125 N121 1.343 . S
C125 C126 1.390 . S
C126 H104 0.930 . S
C126 C123 1.321 . S
C126 C125 1.390 . S
O127 Gd95 2.386 . S
O127 C139 1.265 . S
O128 Gd94 2.353 . S
O128 C139 1.242 1_455 S
O129 Gd94 2.468 . S
O129 C147 1.263 . S
O130 Gd94 2.427 . S
O130 C147 1.252 . S
O131 Gd95 2.307 . S
O131 C140 1.261 . S
O132 Gd94 2.388 1_655 S
O132 C140 1.252 . S
O133 Gd94 2.386 . S
O133 C151 1.265 . S
O134 Gd95 2.353 1_455 S
O134 C151 1.242 . S
O135 Gd95 2.468 . S
O135 C159 1.263 . S
O136 Gd95 2.427 . S
O136 C159 1.252 . S
O137 Gd94 2.307 . S
O137 C152 1.261 . S
O138 Gd95 2.388 1_455 S
O138 C152 1.252 . S
C139 O127 1.265 . S
C139 O128 1.242 1_655 S
C140 O131 1.261 . S
C140 O132 1.252 . S
C141 C144 1.394 . S
C141 C146 1.370 . S
C141 C147 1.500 . S
C142 C145 1.383 . S
C142 C146 1.395 . S
C143 C144 1.396 . S
C143 C145 1.365 . S
C143 H160 0.929 . S
C144 C141 1.394 . S
C144 C143 1.396 . S
C144 H161 0.930 . S
C145 C142 1.383 . S
C145 C143 1.365 . S
C145 H162 0.931 . S
C146 C141 1.370 . S
C146 C142 1.395 . S
C146 H163 0.930 . S
C147 Gd94 2.805 . S
C147 O129 1.263 . S
C147 O130 1.252 . S
C147 C141 1.500 . S
C148 H110 0.930 . S
C148 C124 1.417 1_545 S
C148 C149 1.329 . S
C149 C119 1.437 . S
C149 H120 0.929 . S
C149 C148 1.329 . S
H150 C123 0.931 . S
C151 O133 1.265 . S
C151 O134 1.242 . S
C152 O137 1.261 . S
C152 O138 1.252 . S
C153 C156 1.394 . S
C153 C158 1.370 . S
C153 C159 1.500 . S
C154 C157 1.383 . S
C154 C158 1.395 . S
C155 C156 1.396 . S
C155 C157 1.365 . S
C155 H164 0.929 . S
C156 C153 1.394 . S
C156 C155 1.396 . S
C156 H165 0.930 . S
C157 C154 1.383 . S
C157 C155 1.365 . S
C157 H166 0.931 . S
C158 C153 1.370 . S
C158 C154 1.395 . S
C158 H167 0.930 . S
C159 Gd95 2.805 . S
C159 O135 1.263 . S
C159 O136 1.252 . S
C159 C153 1.500 . S
H160 C143 0.929 . S
H161 C144 0.930 . S
H162 C145 0.931 . S
H163 C146 0.930 . S
H164 C155 0.929 . S
H165 C156 0.930 . S
H166 C157 0.931 . S
H167 C158 0.930 . S
C168 C170 1.422 . S
C168 C172 1.415 . S
C168 N174 1.369 . S
C169 C170 1.421 . S
C169 C171 1.417 . S
C169 C181 1.422 . S
C170 C168 1.422 . S
C170 C169 1.421 . S
C170 N180 1.359 . S
C171 C169 1.417 . S
C171 C173 1.329 . S
C171 H190 0.930 . S
C172 C168 1.415 . S
C172 C173 1.437 . S
C172 C176 1.413 . S
C173 C171 1.329 . S
C173 C172 1.437 . S
C173 H195 0.929 . S
N174 C168 1.369 . S
N174 C175 1.338 . S
N174 Gd179 2.622 . S
C175 N174 1.338 . S
C175 C177 1.378 . S
C175 H187 0.929 1_554 S
C176 C172 1.413 . S
C176 C177 1.348 . S
C176 H192 0.931 . S
C177 C175 1.378 . S
C177 C176 1.348 . S
C177 H193 0.930 . S
Gd178 N198 2.622 . S
Gd178 N205 2.570 . S
Gd178 O212 2.353 . S
Gd178 O213 2.468 . S
Gd178 O214 2.427 . S
Gd178 O216 2.388 1_556 S
Gd178 O217 2.386 . S
Gd178 O221 2.307 . S
Gd178 C231 2.805 . S
Gd179 N174 2.622 . S
Gd179 N180 2.570 . S
Gd179 O211 2.386 . S
Gd179 O215 2.307 . S
Gd179 O218 2.353 1_554 S
Gd179 O219 2.468 . S
Gd179 O220 2.427 . S
Gd179 O222 2.388 1_554 S
Gd179 C243 2.805 . S
N180 C170 1.359 . S
N180 Gd179 2.570 . S
N180 C182 1.343 . S
C181 C169 1.422 . S
C181 C183 1.321 . S
C181 H189 0.931 . S
C182 N180 1.343 . S
C182 C183 1.390 . S
C182 H184 0.931 . S
C183 C181 1.321 . S
C183 C182 1.390 . S
C183 H185 0.930 . S
H184 C182 0.931 . S
H185 C183 0.930 . S
H186 C209 0.931 . S
H187 C175 0.929 1_556 S
H188 C210 0.930 . S
H189 C181 0.931 . S
H190 C171 0.930 . S
H191 C200 0.929 . S
H192 C176 0.931 . S
H193 C177 0.930 . S
H194 C232 0.930 . S
H195 C173 0.929 . S
H196 C201 0.931 . S
H197 C202 0.930 . S
N198 Gd178 2.622 . S
N198 C199 1.369 . S
N198 C200 1.338 . S
C199 N198 1.369 . S
C199 C203 1.415 . S
C199 C206 1.422 . S
C200 H191 0.929 . S
C200 N198 1.338 . S
C200 C202 1.378 . S
C201 H196 0.931 . S
C201 C202 1.348 . S
C201 C203 1.413 . S
C202 H197 0.930 . S
C202 C200 1.378 . S
C202 C201 1.348 . S
C203 C199 1.415 . S
C203 C201 1.413 . S
C203 C233 1.437 . S
H204 C233 0.929 . S
N205 Gd178 2.570 . S
N205 C206 1.359 . S
N205 C209 1.343 . S
C206 C199 1.422 . S
C206 N205 1.359 . S
C206 C208 1.421 . S
C207 C208 1.422 . S
C207 C210 1.321 . S
C207 H234 0.931 . S
C208 C206 1.421 . S
C208 C207 1.422 . S
C208 C232 1.417 . S
C209 H186 0.931 . S
C209 N205 1.343 . S
C209 C210 1.390 . S
C210 H188 0.930 . S
C210 C207 1.321 . S
C210 C209 1.390 . S
O211 Gd179 2.386 . S
O211 C223 1.265 . S
O212 Gd178 2.353 . S
O212 C223 1.242 1_556 S
O213 Gd178 2.468 . S
O213 C231 1.263 . S
O214 Gd178 2.427 . S
O214 C231 1.252 . S
O215 Gd179 2.307 . S
O215 C224 1.261 . S
O216 Gd178 2.388 1_554 S
O216 C224 1.252 . S
O217 Gd178 2.386 . S
O217 C235 1.265 . S
O218 Gd179 2.353 1_556 S
O218 C235 1.242 . S
O219 Gd179 2.468 . S
O219 C243 1.263 . S
O220 Gd179 2.427 . S
O220 C243 1.252 . S
O221 Gd178 2.307 . S
O221 C236 1.261 . S
O222 Gd179 2.388 1_556 S
O222 C236 1.252 . S
C223 O211 1.265 . S
C223 O212 1.242 1_554 S
C224 O215 1.261 . S
C224 O216 1.252 . S
C225 C228 1.394 . S
C225 C230 1.370 . S
C225 C231 1.500 . S
C226 C229 1.383 . S
C226 C230 1.395 . S
C227 C228 1.396 . S
C227 C229 1.365 . S
C227 H244 0.929 . S
C228 C225 1.394 . S
C228 C227 1.396 . S
C228 H245 0.930 . S
C229 C226 1.383 . S
C229 C227 1.365 . S
C229 H246 0.931 . S
C230 C225 1.370 . S
C230 C226 1.395 . S
C230 H247 0.930 . S
C231 Gd178 2.805 . S
C231 O213 1.263 . S
C231 O214 1.252 . S
C231 C225 1.500 . S
C232 H194 0.930 . S
C232 C208 1.417 . S
C232 C233 1.329 . S
C233 C203 1.437 . S
C233 H204 0.929 . S
C233 C232 1.329 . S
H234 C207 0.931 . S
C235 O217 1.265 . S
C235 O218 1.242 . S
C236 O221 1.261 . S
C236 O222 1.252 . S
C237 C240 1.394 . S
C237 C242 1.370 . S
C237 C243 1.500 . S
C238 C241 1.383 . S
C238 C242 1.395 . S
C239 C240 1.396 . S
C239 C241 1.365 . S
C239 H248 0.929 . S
C240 C237 1.394 . S
C240 C239 1.396 . S
C240 H249 0.930 . S
C241 C238 1.383 . S
C241 C239 1.365 . S
C241 H250 0.931 . S
C242 C237 1.370 . S
C242 C238 1.395 . S
C242 H251 0.930 . S
C243 Gd179 2.805 . S
C243 O219 1.263 . S
C243 O220 1.252 . S
C243 C237 1.500 . S
H244 C227 0.929 . S
H245 C228 0.930 . S
H246 C229 0.931 . S
H247 C230 0.930 . S
H248 C239 0.929 . S
H249 C240 0.930 . S
H250 C241 0.931 . S
H251 C242 0.930 . S
C252 C254 1.422 . S
C252 C256 1.415 . S
C252 N258 1.369 . S
C253 C254 1.421 . S
C253 C255 1.417 . S
C253 C265 1.422 . S
C254 C252 1.422 . S
C254 C253 1.421 . S
C254 N264 1.359 . S
C255 C253 1.417 . S
C255 C257 1.329 . S
C255 H274 0.930 . S
C256 C252 1.415 . S
C256 C257 1.437 . S
C256 C260 1.413 . S
C257 C255 1.329 . S
C257 C256 1.437 . S
C257 H279 0.929 . S
N258 C252 1.369 . S
N258 C259 1.338 . S
N258 Gd263 2.622 . S
C259 N258 1.338 . S
C259 C261 1.378 . S
C259 H271 0.929 . S
C260 C256 1.413 . S
C260 C261 1.348 . S
C260 H276 0.931 . S
C261 C259 1.378 . S
C261 C260 1.348 . S
C261 H277 0.930 . S
Gd262 N282 2.622 . S
Gd262 N289 2.570 . S
Gd262 O296 2.353 . S
Gd262 O297 2.468 . S
Gd262 O298 2.427 . S
Gd262 O300 2.388 . S
Gd262 O301 2.386 . S
Gd262 O305 2.307 . S
Gd262 C315 2.805 . S
Gd263 N258 2.622 . S
Gd263 N264 2.570 . S
Gd263 O295 2.386 . S
Gd263 O299 2.307 . S
Gd263 O302 2.353 . S
Gd263 O303 2.468 . S
Gd263 O304 2.427 . S
Gd263 O306 2.388 . S
Gd263 C327 2.805 . S
N264 C254 1.359 . S
N264 Gd263 2.570 . S
N264 C266 1.343 . S
C265 C253 1.422 . S
C265 C267 1.321 . S
C265 H273 0.931 . S
C266 N264 1.343 . S
C266 C267 1.390 . S
C266 H268 0.931 . S
C267 C265 1.321 . S
C267 C266 1.390 . S
C267 H269 0.930 . S
H268 C266 0.931 . S
H269 C267 0.930 . S
H270 C293 0.931 . S
H271 C259 0.929 . S
H272 C294 0.930 . S
H273 C265 0.931 . S
H274 C255 0.930 . S
H275 C284 0.929 . S
H276 C260 0.931 . S
H277 C261 0.930 . S
H278 C316 0.930 . S
H279 C257 0.929 . S
H280 C285 0.931 . S
H281 C286 0.930 . S
N282 Gd262 2.622 . S
N282 C283 1.369 . S
N282 C284 1.338 . S
C283 N282 1.369 . S
C283 C287 1.415 1_545 S
C283 C290 1.422 . S
C284 H275 0.929 . S
C284 N282 1.338 . S
C284 C286 1.378 1_545 S
C285 H280 0.931 . S
C285 C286 1.348 . S
C285 C287 1.413 . S
C286 H281 0.930 . S
C286 C284 1.378 1_565 S
C286 C285 1.348 . S
C287 C283 1.415 1_565 S
C287 C285 1.413 . S
C287 C317 1.437 . S
H288 C317 0.929 . S
N289 Gd262 2.570 . S
N289 C290 1.359 . S
N289 C293 1.343 . S
C290 C283 1.422 . S
C290 N289 1.359 . S
C290 C292 1.421 . S
C291 C292 1.422 . S
C291 C294 1.321 . S
C291 H318 0.931 . S
C292 C290 1.421 . S
C292 C291 1.422 . S
C292 C316 1.417 1_545 S
C293 H270 0.931 . S
C293 N289 1.343 . S
C293 C294 1.390 . S
C294 H272 0.930 . S
C294 C291 1.321 . S
C294 C293 1.390 . S
O295 Gd263 2.386 . S
O295 C307 1.265 . S
O296 Gd262 2.353 . S
O296 C307 1.242 . S
O297 Gd262 2.468 . S
O297 C315 1.263 . S
O298 Gd262 2.427 . S
O298 C315 1.252 . S
O299 Gd263 2.307 . S
O299 C308 1.261 . S
O300 Gd262 2.388 . S
O300 C308 1.252 . S
O301 Gd262 2.386 . S
O301 C319 1.265 . S
O302 Gd263 2.353 . S
O302 C319 1.242 . S
O303 Gd263 2.468 . S
O303 C327 1.263 . S
O304 Gd263 2.427 . S
O304 C327 1.252 . S
O305 Gd262 2.307 . S
O305 C320 1.261 . S
O306 Gd263 2.388 . S
O306 C320 1.252 . S
C307 O295 1.265 . S
C307 O296 1.242 . S
C308 O299 1.261 . S
C308 O300 1.252 . S
C309 C312 1.394 . S
C309 C314 1.370 . S
C309 C315 1.500 . S
C310 C313 1.383 . S
C310 C314 1.395 . S
C311 C312 1.396 . S
C311 C313 1.365 . S
C311 H328 0.929 . S
C312 C309 1.394 . S
C312 C311 1.396 . S
C312 H329 0.930 . S
C313 C310 1.383 . S
C313 C311 1.365 . S
C313 H330 0.931 . S
C314 C309 1.370 . S
C314 C310 1.395 . S
C314 H331 0.930 . S
C315 Gd262 2.805 . S
C315 O297 1.263 . S
C315 O298 1.252 . S
C315 C309 1.500 . S
C316 H278 0.930 . S
C316 C292 1.417 1_565 S
C316 C317 1.329 . S
C317 C287 1.437 . S
C317 H288 0.929 . S
C317 C316 1.329 . S
H318 C291 0.931 . S
C319 O301 1.265 . S
C319 O302 1.242 . S
C320 O305 1.261 . S
C320 O306 1.252 . S
C321 C324 1.394 . S
C321 C326 1.370 . S
C321 C327 1.500 . S
C322 C325 1.383 . S
C322 C326 1.395 . S
C323 C324 1.396 . S
C323 C325 1.365 . S
C323 H332 0.929 . S
C324 C321 1.394 . S
C324 C323 1.396 . S
C324 H333 0.930 . S
C325 C322 1.383 . S
C325 C323 1.365 . S
C325 H334 0.931 . S
C326 C321 1.370 . S
C326 C322 1.395 . S
C326 H335 0.930 . S
C327 Gd263 2.805 . S
C327 O303 1.263 . S
C327 O304 1.252 . S
C327 C321 1.500 . S
H328 C311 0.929 . S
H329 C312 0.930 . S
H330 C313 0.931 . S
H331 C314 0.930 . S
H332 C323 0.929 . S
H333 C324 0.930 . S
H334 C325 0.931 . S
H335 C326 0.930 . S
C336 C338 1.422 . S
C336 C340 1.415 . S
C336 N342 1.369 . S
C337 C338 1.421 . S
C337 C339 1.417 . S
C337 C349 1.422 . S
C338 C336 1.422 . S
C338 C337 1.421 . S
C338 N348 1.359 . S
C339 C337 1.417 . S
C339 C341 1.329 . S
C339 H358 0.930 . S
C340 C336 1.415 . S
C340 C341 1.437 . S
C340 C344 1.413 . S
C341 C339 1.329 . S
C341 C340 1.437 . S
C341 H363 0.929 . S
N342 C336 1.369 . S
N342 C343 1.338 . S
N342 Gd347 2.622 . S
C343 N342 1.338 . S
C343 C345 1.378 . S
C343 H355 0.929 . S
C344 C340 1.413 . S
C344 C345 1.348 . S
C344 H360 0.931 . S
C345 C343 1.378 . S
C345 C344 1.348 . S
C345 H361 0.930 . S
Gd346 N366 2.622 . S
Gd346 N373 2.570 . S
Gd346 O380 2.353 . S
Gd346 O381 2.468 . S
Gd346 O382 2.427 . S
Gd346 O384 2.388 . S
Gd346 O385 2.386 . S
Gd346 O389 2.307 . S
Gd346 C399 2.805 . S
Gd347 N342 2.622 . S
Gd347 N348 2.570 . S
Gd347 O379 2.386 . S
Gd347 O383 2.307 . S
Gd347 O386 2.353 . S
Gd347 O387 2.468 . S
Gd347 O388 2.427 . S
Gd347 O390 2.388 . S
Gd347 C411 2.805 . S
N348 C338 1.359 . S
N348 Gd347 2.570 . S
N348 C350 1.343 . S
C349 C337 1.422 . S
C349 C351 1.321 . S
C349 H357 0.931 . S
C350 N348 1.343 . S
C350 C351 1.390 . S
C350 H352 0.931 . S
C351 C349 1.321 . S
C351 C350 1.390 . S
C351 H353 0.930 . S
H352 C350 0.931 . S
H353 C351 0.930 . S
H354 C377 0.931 . S
H355 C343 0.929 . S
H356 C378 0.930 . S
H357 C349 0.931 . S
H358 C339 0.930 . S
H359 C368 0.929 . S
H360 C344 0.931 . S
H361 C345 0.930 . S
H362 C400 0.930 . S
H363 C341 0.929 . S
H364 C369 0.931 . S
H365 C370 0.930 . S
N366 Gd346 2.622 . S
N366 C367 1.369 . S
N366 C368 1.338 . S
C367 N366 1.369 . S
C367 C371 1.415 . S
C367 C374 1.422 . S
C368 H359 0.929 . S
C368 N366 1.338 . S
C368 C370 1.378 . S
C369 H364 0.931 . S
C369 C370 1.348 . S
C369 C371 1.413 . S
C370 H365 0.930 . S
C370 C368 1.378 . S
C370 C369 1.348 . S
C371 C367 1.415 . S
C371 C369 1.413 . S
C371 C401 1.437 . S
H372 C401 0.929 . S
N373 Gd346 2.570 . S
N373 C374 1.359 . S
N373 C377 1.343 . S
C374 C367 1.422 . S
C374 N373 1.359 . S
C374 C376 1.421 . S
C375 C376 1.422 . S
C375 C378 1.321 . S
C375 H402 0.931 . S
C376 C374 1.421 . S
C376 C375 1.422 . S
C376 C400 1.417 . S
C377 H354 0.931 . S
C377 N373 1.343 . S
C377 C378 1.390 . S
C378 H356 0.930 . S
C378 C375 1.321 . S
C378 C377 1.390 . S
O379 Gd347 2.386 . S
O379 C391 1.265 . S
O380 Gd346 2.353 . S
O380 C391 1.242 . S
O381 Gd346 2.468 . S
O381 C399 1.263 . S
O382 Gd346 2.427 . S
O382 C399 1.252 . S
O383 Gd347 2.307 . S
O383 C392 1.261 . S
O384 Gd346 2.388 . S
O384 C392 1.252 . S
O385 Gd346 2.386 . S
O385 C403 1.265 . S
O386 Gd347 2.353 . S
O386 C403 1.242 . S
O387 Gd347 2.468 . S
O387 C411 1.263 . S
O388 Gd347 2.427 . S
O388 C411 1.252 . S
O389 Gd346 2.307 . S
O389 C404 1.261 . S
O390 Gd347 2.388 . S
O390 C404 1.252 . S
C391 O379 1.265 . S
C391 O380 1.242 . S
C392 O383 1.261 . S
C392 O384 1.252 . S
C393 C396 1.394 . S
C393 C398 1.370 . S
C393 C399 1.500 . S
C394 C397 1.383 . S
C394 C398 1.395 . S
C395 C396 1.396 . S
C395 C397 1.365 . S
C395 H412 0.929 . S
C396 C393 1.394 . S
C396 C395 1.396 . S
C396 H413 0.930 . S
C397 C394 1.383 . S
C397 C395 1.365 . S
C397 H414 0.931 . S
C398 C393 1.370 . S
C398 C394 1.395 . S
C398 H415 0.930 . S
C399 Gd346 2.805 . S
C399 O381 1.263 . S
C399 O382 1.252 . S
C399 C393 1.500 . S
C400 H362 0.930 . S
C400 C376 1.417 . S
C400 C401 1.329 . S
C401 C371 1.437 . S
C401 H372 0.929 . S
C401 C400 1.329 . S
H402 C375 0.931 . S
C403 O385 1.265 . S
C403 O386 1.242 . S
C404 O389 1.261 . S
C404 O390 1.252 . S
C405 C408 1.394 . S
C405 C410 1.370 . S
C405 C411 1.500 . S
C406 C409 1.383 . S
C406 C410 1.395 . S
C407 C408 1.396 . S
C407 C409 1.365 . S
C407 H416 0.929 . S
C408 C405 1.394 . S
C408 C407 1.396 . S
C408 H417 0.930 . S
C409 C406 1.383 . S
C409 C407 1.365 . S
C409 H418 0.931 . S
C410 C405 1.370 . S
C410 C406 1.395 . S
C410 H419 0.930 . S
C411 Gd347 2.805 . S
C411 O387 1.263 . S
C411 O388 1.252 . S
C411 C405 1.500 . S
H412 C395 0.929 . S
H413 C396 0.930 . S
H414 C397 0.931 . S
H415 C398 0.930 . S
H416 C407 0.929 . S
H417 C408 0.930 . S
H418 C409 0.931 . S
H419 C410 0.930 . S
C420 C422 1.422 . S
C420 C424 1.415 . S
C420 N426 1.369 . S
C421 C422 1.421 . S
C421 C423 1.417 . S
C421 C433 1.422 1_655 S
C422 C420 1.422 . S
C422 C421 1.421 . S
C422 N432 1.359 . S
C423 C421 1.417 . S
C423 C425 1.329 . S
C423 H442 0.930 . S
C424 C420 1.415 . S
C424 C425 1.437 . S
C424 C428 1.413 . S
C425 C423 1.329 . S
C425 C424 1.437 . S
C425 H447 0.929 . S
N426 C420 1.369 . S
N426 C427 1.338 . S
N426 Gd431 2.622 . S
C427 N426 1.338 . S
C427 C429 1.378 . S
C427 H439 0.929 . S
C428 C424 1.413 . S
C428 C429 1.348 . S
C428 H444 0.931 . S
C429 C427 1.378 . S
C429 C428 1.348 . S
C429 H445 0.930 . S
Gd430 N450 2.622 . S
Gd430 N457 2.570 . S
Gd430 O464 2.353 . S
Gd430 O465 2.468 . S
Gd430 O466 2.427 . S
Gd430 O468 2.388 . S
Gd430 O469 2.386 1_455 S
Gd430 O473 2.307 1_455 S
Gd430 C483 2.805 . S
Gd431 N426 2.622 . S
Gd431 N432 2.570 . S
Gd431 O463 2.386 1_655 S
Gd431 O467 2.307 . S
Gd431 O470 2.353 . S
Gd431 O471 2.468 . S
Gd431 O472 2.427 . S
Gd431 O474 2.388 . S
Gd431 C495 2.805 . S
N432 C422 1.359 . S
N432 Gd431 2.570 . S
N432 C434 1.343 . S
C433 C421 1.422 1_455 S
C433 C435 1.321 . S
C433 H441 0.931 . S
C434 N432 1.343 . S
C434 C435 1.390 1_655 S
C434 H436 0.931 . S
C435 C433 1.321 . S
C435 C434 1.390 1_455 S
C435 H437 0.930 . S
H436 C434 0.931 . S
H437 C435 0.930 . S
H438 C461 0.931 . S
H439 C427 0.929 . S
H440 C462 0.930 . S
H441 C433 0.931 . S
H442 C423 0.930 . S
H443 C452 0.929 . S
H444 C428 0.931 . S
H445 C429 0.930 . S
H446 C484 0.930 1_655 S
H447 C425 0.929 . S
H448 C453 0.931 . S
H449 C454 0.930 . S
N450 Gd430 2.622 . S
N450 C451 1.369 . S
N450 C452 1.338 . S
C451 N450 1.369 . S
C451 C455 1.415 . S
C451 C458 1.422 . S
C452 H443 0.929 . S
C452 N450 1.338 . S
C452 C454 1.378 . S
C453 H448 0.931 . S
C453 C454 1.348 . S
C453 C455 1.413 . S
C454 H449 0.930 . S
C454 C452 1.378 . S
C454 C453 1.348 . S
C455 C451 1.415 . S
C455 C453 1.413 . S
C455 C485 1.437 . S
H456 C485 0.929 . S
N457 Gd430 2.570 . S
N457 C458 1.359 . S
N457 C461 1.343 1_455 S
C458 C451 1.422 . S
C458 N457 1.359 . S
C458 C460 1.421 . S
C459 C460 1.422 1_655 S
C459 C462 1.321 . S
C459 H486 0.931 . S
C460 C458 1.421 . S
C460 C459 1.422 1_455 S
C460 C484 1.417 . S
C461 H438 0.931 . S
C461 N457 1.343 1_655 S
C461 C462 1.390 . S
C462 H440 0.930 . S
C462 C459 1.321 . S
C462 C461 1.390 . S
O463 Gd431 2.386 1_455 S
O463 C475 1.265 . S
O464 Gd430 2.353 . S
O464 C475 1.242 . S
O465 Gd430 2.468 . S
O465 C483 1.263 . S
O466 Gd430 2.427 . S
O466 C483 1.252 . S
O467 Gd431 2.307 . S
O467 C476 1.261 1_655 S
O468 Gd430 2.388 . S
O468 C476 1.252 . S
O469 Gd430 2.386 1_655 S
O469 C487 1.265 . S
O470 Gd431 2.353 . S
O470 C487 1.242 . S
O471 Gd431 2.468 . S
O471 C495 1.263 . S
O472 Gd431 2.427 . S
O472 C495 1.252 . S
O473 Gd430 2.307 1_655 S
O473 C488 1.261 . S
O474 Gd431 2.388 . S
O474 C488 1.252 . S
C475 O463 1.265 . S
C475 O464 1.242 . S
C476 O467 1.261 1_455 S
C476 O468 1.252 . S
C477 C480 1.394 . S
C477 C482 1.370 . S
C477 C483 1.500 . S
C478 C481 1.383 . S
C478 C482 1.395 . S
C479 C480 1.396 . S
C479 C481 1.365 . S
C479 H496 0.929 . S
C480 C477 1.394 . S
C480 C479 1.396 . S
C480 H497 0.930 . S
C481 C478 1.383 . S
C481 C479 1.365 . S
C481 H498 0.931 . S
C482 C477 1.370 . S
C482 C478 1.395 . S
C482 H499 0.930 . S
C483 Gd430 2.805 . S
C483 O465 1.263 . S
C483 O466 1.252 . S
C483 C477 1.500 . S
C484 H446 0.930 1_455 S
C484 C460 1.417 . S
C484 C485 1.329 . S
C485 C455 1.437 . S
C485 H456 0.929 . S
C485 C484 1.329 . S
H486 C459 0.931 . S
C487 O469 1.265 . S
C487 O470 1.242 . S
C488 O473 1.261 . S
C488 O474 1.252 . S
C489 C492 1.394 . S
C489 C494 1.370 . S
C489 C495 1.500 . S
C490 C493 1.383 . S
C490 C494 1.395 . S
C491 C492 1.396 . S
C491 C493 1.365 . S
C491 H500 0.929 . S
C492 C489 1.394 . S
C492 C491 1.396 . S
C492 H501 0.930 . S
C493 C490 1.383 . S
C493 C491 1.365 . S
C493 H502 0.931 . S
C494 C489 1.370 . S
C494 C490 1.395 . S
C494 H503 0.930 . S
C495 Gd431 2.805 . S
C495 O471 1.263 . S
C495 O472 1.252 . S
C495 C489 1.500 . S
H496 C479 0.929 . S
H497 C480 0.930 . S
H498 C481 0.931 . S
H499 C482 0.930 . S
H500 C491 0.929 . S
H501 C492 0.930 . S
H502 C493 0.931 . S
H503 C494 0.930 . S
C504 C506 1.422 . S
C504 C508 1.415 1_655 S
C504 N510 1.369 . S
C505 C506 1.421 . S
C505 C507 1.417 1_655 S
C505 C517 1.422 1_554 S
C506 C504 1.422 . S
C506 C505 1.421 . S
C506 N516 1.359 . S
C507 C505 1.417 1_455 S
C507 C509 1.329 . S
C507 H526 0.930 . S
C508 C504 1.415 1_455 S
C508 C509 1.437 . S
C508 C512 1.413 . S
C509 C507 1.329 . S
C509 C508 1.437 . S
C509 H531 0.929 . S
N510 C504 1.369 . S
N510 C511 1.338 . S
N510 Gd515 2.622 . S
C511 N510 1.338 . S
C511 C513 1.378 1_655 S
C511 H523 0.929 . S
C512 C508 1.413 . S
C512 C513 1.348 . S
C512 H528 0.931 . S
C513 C511 1.378 1_455 S
C513 C512 1.348 . S
C513 H529 0.930 . S
Gd514 N534 2.622 . S
Gd514 N541 2.570 . S
Gd514 O548 2.353 . S
Gd514 O549 2.468 . S
Gd514 O550 2.427 . S
Gd514 O552 2.388 . S
Gd514 O553 2.386 1_556 S
Gd514 O557 2.307 1_556 S
Gd514 C567 2.805 . S
Gd515 N510 2.622 . S
Gd515 N516 2.570 . S
Gd515 O547 2.386 1_554 S
Gd515 O551 2.307 1_554 S
Gd515 O554 2.353 . S
Gd515 O555 2.468 . S
Gd515 O556 2.427 . S
Gd515 O558 2.388 . S
Gd515 C579 2.805 . S
N516 C506 1.359 . S
N516 Gd515 2.570 . S
N516 C518 1.343 . S
C517 C505 1.422 1_556 S
C517 C519 1.321 . S
C517 H525 0.931 . S
C518 N516 1.343 . S
C518 C519 1.390 1_554 S
C518 H520 0.931 . S
C519 C517 1.321 . S
C519 C518 1.390 1_556 S
C519 H521 0.930 . S
H520 C518 0.931 . S
H521 C519 0.930 . S
H522 C545 0.931 . S
H523 C511 0.929 . S
H524 C546 0.930 . S
H525 C517 0.931 . S
H526 C507 0.930 . S
H527 C536 0.929 . S
H528 C512 0.931 . S
H529 C513 0.930 . S
H530 C568 0.938 . S
H531 C509 0.929 . S
H532 C537 0.931 . S
H533 C538 0.930 . S
N534 Gd514 2.622 . S
N534 C535 1.369 . S
N534 C536 1.338 . S
C535 N534 1.369 . S
C535 C539 1.415 . S
C535 C542 1.422 . S
C536 H527 0.929 . S
C536 N534 1.338 . S
C536 C538 1.378 . S
C537 H532 0.931 . S
C537 C538 1.348 . S
C537 C539 1.413 . S
C538 H533 0.930 . S
C538 C536 1.378 . S
C538 C537 1.348 . S
C539 C535 1.415 . S
C539 C537 1.413 . S
C539 C569 1.437 . S
H540 C569 0.929 . S
N541 Gd514 2.570 . S
N541 C542 1.359 . S
N541 C545 1.343 1_556 S
C542 C535 1.422 . S
C542 N541 1.359 . S
C542 C544 1.421 . S
C543 C544 1.422 1_554 S
C543 C546 1.321 . S
C543 H570 0.931 . S
C544 C542 1.421 . S
C544 C543 1.422 1_556 S
C544 C568 1.417 . S
C545 H522 0.931 . S
C545 N541 1.343 1_554 S
C545 C546 1.390 . S
C546 H524 0.930 . S
C546 C543 1.321 . S
C546 C545 1.390 . S
O547 Gd515 2.386 1_556 S
O547 C559 1.265 . S
O548 Gd514 2.353 . S
O548 C559 1.242 . S
O549 Gd514 2.468 . S
O549 C567 1.263 . S
O550 Gd514 2.427 . S
O550 C567 1.252 . S
O551 Gd515 2.307 1_556 S
O551 C560 1.261 . S
O552 Gd514 2.388 . S
O552 C560 1.252 . S
O553 Gd514 2.386 1_554 S
O553 C571 1.265 . S
O554 Gd515 2.353 . S
O554 C571 1.242 . S
O555 Gd515 2.468 . S
O555 C579 1.263 . S
O556 Gd515 2.427 . S
O556 C579 1.252 . S
O557 Gd514 2.307 1_554 S
O557 C572 1.261 . S
O558 Gd515 2.388 . S
O558 C572 1.252 . S
C559 O547 1.265 . S
C559 O548 1.242 . S
C560 O551 1.261 . S
C560 O552 1.252 . S
C561 C564 1.394 . S
C561 C566 1.370 . S
C561 C567 1.500 . S
C562 C565 1.383 . S
C562 C566 1.395 . S
C563 C564 1.396 . S
C563 C565 1.365 . S
C563 H580 0.929 . S
C564 C561 1.394 . S
C564 C563 1.396 . S
C564 H581 0.930 . S
C565 C562 1.383 . S
C565 C563 1.365 . S
C565 H582 0.931 . S
C566 C561 1.370 . S
C566 C562 1.395 . S
C566 H583 0.930 . S
C567 Gd514 2.805 . S
C567 O549 1.263 . S
C567 O550 1.252 . S
C567 C561 1.500 . S
C568 H530 0.938 . S
C568 C544 1.417 . S
C568 C569 1.329 . S
C569 C539 1.437 . S
C569 H540 0.929 . S
C569 C568 1.329 . S
H570 C543 0.931 . S
C571 O553 1.265 . S
C571 O554 1.242 . S
C572 O557 1.261 . S
C572 O558 1.252 . S
C573 C576 1.394 . S
C573 C578 1.370 . S
C573 C579 1.500 . S
C574 C577 1.383 . S
C574 C578 1.395 . S
C575 C576 1.396 . S
C575 C577 1.365 . S
C575 H584 0.929 . S
C576 C573 1.394 . S
C576 C575 1.396 . S
C576 H585 0.930 . S
C577 C574 1.383 . S
C577 C575 1.365 . S
C577 H586 0.931 . S
C578 C573 1.370 . S
C578 C574 1.395 . S
C578 H587 0.930 . S
C579 Gd515 2.805 . S
C579 O555 1.263 . S
C579 O556 1.252 . S
C579 C573 1.500 . S
H580 C563 0.929 . S
H581 C564 0.930 . S
H582 C565 0.931 . S
H583 C566 0.930 . S
H584 C575 0.929 . S
H585 C576 0.930 . S
H586 C577 0.931 . S
H587 C578 0.930 . S
C588 C590 1.422 . S
C588 C592 1.415 . S
C588 N594 1.369 . S
C589 C590 1.421 . S
C589 C591 1.417 . S
C589 C601 1.422 . S
C590 C588 1.422 . S
C590 C589 1.421 . S
C590 N600 1.359 . S
C591 C589 1.417 . S
C591 C593 1.329 . S
C591 H610 0.930 . S
C592 C588 1.415 . S
C592 C593 1.437 . S
C592 C596 1.413 . S
C593 C591 1.329 . S
C593 C592 1.437 . S
C593 H615 0.929 . S
N594 C588 1.369 . S
N594 C595 1.338 . S
N594 Gd599 2.622 . S
C595 N594 1.338 . S
C595 C597 1.378 . S
C595 H607 0.929 . S
C596 C592 1.413 . S
C596 C597 1.348 . S
C596 H612 0.931 . S
C597 C595 1.378 . S
C597 C596 1.348 . S
C597 H613 0.930 . S
Gd598 N618 2.622 . S
Gd598 N625 2.570 . S
Gd598 O632 2.353 . S
Gd598 O633 2.468 . S
Gd598 O634 2.427 . S
Gd598 O636 2.388 . S
Gd598 O637 2.386 . S
Gd598 O641 2.307 . S
Gd598 C651 2.805 . S
Gd599 N594 2.622 . S
Gd599 N600 2.570 . S
Gd599 O631 2.386 . S
Gd599 O635 2.307 . S
Gd599 O638 2.353 . S
Gd599 O639 2.468 . S
Gd599 O640 2.427 . S
Gd599 O642 2.388 . S
Gd599 C663 2.805 . S
N600 C590 1.359 . S
N600 Gd599 2.570 . S
N600 C602 1.343 . S
C601 C589 1.422 . S
C601 C603 1.321 . S
C601 H609 0.931 . S
C602 N600 1.343 . S
C602 C603 1.390 . S
C602 H604 0.931 . S
C603 C601 1.321 . S
C603 C602 1.390 . S
C603 H605 0.930 . S
H604 C602 0.931 . S
H605 C603 0.930 . S
H606 C629 0.931 . S
H607 C595 0.929 . S
H608 C630 0.930 . S
H609 C601 0.931 . S
H610 C591 0.930 . S
H611 C620 0.929 . S
H612 C596 0.931 . S
H613 C597 0.930 . S
H614 C652 0.930 . S
H615 C593 0.929 . S
H616 C621 0.931 . S
H617 C622 0.930 . S
N618 Gd598 2.622 . S
N618 C619 1.369 . S
N618 C620 1.338 . S
C619 N618 1.369 . S
C619 C623 1.415 . S
C619 C626 1.422 . S
C620 H611 0.929 . S
C620 N618 1.338 . S
C620 C622 1.378 . S
C621 H616 0.931 . S
C621 C622 1.348 . S
C621 C623 1.413 . S
C622 H617 0.930 . S
C622 C620 1.378 . S
C622 C621 1.348 . S
C623 C619 1.415 . S
C623 C621 1.413 . S
C623 C653 1.437 . S
H624 C653 0.929 . S
N625 Gd598 2.570 . S
N625 C626 1.359 . S
N625 C629 1.343 . S
C626 C619 1.422 . S
C626 N625 1.359 . S
C626 C628 1.421 . S
C627 C628 1.422 . S
C627 C630 1.321 . S
C627 H654 0.931 . S
C628 C626 1.421 . S
C628 C627 1.422 . S
C628 C652 1.417 . S
C629 H606 0.931 . S
C629 N625 1.343 . S
C629 C630 1.390 . S
C630 H608 0.930 . S
C630 C627 1.321 . S
C630 C629 1.390 . S
O631 Gd599 2.386 . S
O631 C643 1.265 . S
O632 Gd598 2.353 . S
O632 C643 1.242 . S
O633 Gd598 2.468 . S
O633 C651 1.263 . S
O634 Gd598 2.427 . S
O634 C651 1.252 . S
O635 Gd599 2.307 . S
O635 C644 1.261 . S
O636 Gd598 2.388 . S
O636 C644 1.252 . S
O637 Gd598 2.386 . S
O637 C655 1.265 . S
O638 Gd599 2.353 . S
O638 C655 1.242 . S
O639 Gd599 2.468 . S
O639 C663 1.263 . S
O640 Gd599 2.427 . S
O640 C663 1.252 . S
O641 Gd598 2.307 . S
O641 C656 1.261 . S
O642 Gd599 2.388 . S
O642 C656 1.252 . S
C643 O631 1.265 . S
C643 O632 1.242 . S
C644 O635 1.261 . S
C644 O636 1.252 . S
C645 C648 1.394 . S
C645 C650 1.370 . S
C645 C651 1.500 . S
C646 C649 1.383 . S
C646 C650 1.395 . S
C647 C648 1.396 . S
C647 C649 1.365 . S
C647 H664 0.929 . S
C648 C645 1.394 . S
C648 C647 1.396 . S
C648 H665 0.930 . S
C649 C646 1.383 . S
C649 C647 1.365 . S
C649 H666 0.931 . S
C650 C645 1.370 . S
C650 C646 1.395 . S
C650 H667 0.930 . S
C651 Gd598 2.805 . S
C651 O633 1.263 . S
C651 O634 1.252 . S
C651 C645 1.500 . S
C652 H614 0.930 . S
C652 C628 1.417 . S
C652 C653 1.329 . S
C653 C623 1.437 . S
C653 H624 0.929 . S
C653 C652 1.329 . S
H654 C627 0.931 . S
C655 O637 1.265 . S
C655 O638 1.242 . S
C656 O641 1.261 . S
C656 O642 1.252 . S
C657 C660 1.394 . S
C657 C662 1.370 . S
C657 C663 1.500 . S
C658 C661 1.383 . S
C658 C662 1.395 . S
C659 C660 1.396 . S
C659 C661 1.365 . S
C659 H668 0.929 . S
C660 C657 1.394 . S
C660 C659 1.396 . S
C660 H669 0.930 . S
C661 C658 1.383 . S
C661 C659 1.365 . S
C661 H670 0.931 . S
C662 C657 1.370 . S
C662 C658 1.395 . S
C662 H671 0.930 . S
C663 Gd599 2.805 . S
C663 O639 1.263 . S
C663 O640 1.252 . S
C663 C657 1.500 . S
H664 C647 0.929 . S
H665 C648 0.930 . S
H666 C649 0.931 . S
H667 C650 0.930 . S
H668 C659 0.929 . S
H669 C660 0.930 . S
H670 C661 0.931 . S
H671 C662 0.930 . S
C672 C674 1.422 . S
C672 C676 1.415 . S
C672 N678 1.369 . S
C673 C674 1.421 . S
C673 C675 1.417 . S
C673 C685 1.422 . S
C674 C672 1.422 . S
C674 C673 1.421 . S
C674 N684 1.359 . S
C675 C673 1.417 . S
C675 C677 1.329 . S
C675 H694 0.930 . S
C676 C672 1.415 . S
C676 C677 1.437 . S
C676 C680 1.413 . S
C677 C675 1.329 . S
C677 C676 1.437 . S
C677 H699 0.929 . S
N678 C672 1.369 . S
N678 C679 1.338 . S
N678 Gd683 2.622 . S
C679 N678 1.338 . S
C679 C681 1.378 . S
C679 H691 0.929 . S
C680 C676 1.413 . S
C680 C681 1.348 . S
C680 H696 0.931 . S
C681 C679 1.378 . S
C681 C680 1.348 . S
C681 H697 0.930 . S
Gd682 N702 2.622 . S
Gd682 N709 2.570 . S
Gd682 O716 2.353 . S
Gd682 O717 2.468 . S
Gd682 O718 2.427 . S
Gd682 O720 2.388 . S
Gd682 O721 2.386 . S
Gd682 O725 2.307 . S
Gd682 C735 2.805 . S
Gd683 N678 2.622 . S
Gd683 N684 2.570 . S
Gd683 O715 2.386 . S
Gd683 O719 2.307 . S
Gd683 O722 2.353 . S
Gd683 O723 2.468 . S
Gd683 O724 2.427 . S
Gd683 O726 2.388 . S
Gd683 C747 2.805 . S
N684 C674 1.359 . S
N684 Gd683 2.570 . S
N684 C686 1.343 . S
C685 C673 1.422 . S
C685 C687 1.321 . S
C685 H693 0.931 . S
C686 N684 1.343 . S
C686 C687 1.390 . S
C686 H688 0.931 . S
C687 C685 1.321 . S
C687 C686 1.390 . S
C687 H689 0.930 . S
H688 C686 0.931 . S
H689 C687 0.930 . S
H690 C713 0.931 . S
H691 C679 0.929 . S
H692 C714 0.930 . S
H693 C685 0.931 . S
H694 C675 0.930 . S
H695 C704 0.929 . S
H696 C680 0.931 . S
H697 C681 0.930 . S
H698 C736 0.930 . S
H699 C677 0.929 . S
H700 C705 0.931 . S
H701 C706 0.930 . S
N702 Gd682 2.622 . S
N702 C703 1.369 . S
N702 C704 1.338 . S
C703 N702 1.369 . S
C703 C707 1.415 1_554 S
C703 C710 1.422 . S
C704 H695 0.929 . S
C704 N702 1.338 . S
C704 C706 1.378 1_554 S
C705 H700 0.931 . S
C705 C706 1.348 . S
C705 C707 1.413 . S
C706 H701 0.930 . S
C706 C704 1.378 1_556 S
C706 C705 1.348 . S
C707 C703 1.415 1_556 S
C707 C705 1.413 . S
C707 C737 1.437 . S
H708 C737 0.929 . S
N709 Gd682 2.570 . S
N709 C710 1.359 . S
N709 C713 1.343 . S
C710 C703 1.422 . S
C710 N709 1.359 . S
C710 C712 1.421 . S
C711 C712 1.422 . S
C711 C714 1.321 . S
C711 H738 0.931 . S
C712 C710 1.421 . S
C712 C711 1.422 . S
C712 C736 1.417 1_554 S
C713 H690 0.931 . S
C713 N709 1.343 . S
C713 C714 1.390 . S
C714 H692 0.930 . S
C714 C711 1.321 . S
C714 C713 1.390 . S
O715 Gd683 2.386 . S
O715 C727 1.265 . S
O716 Gd682 2.353 . S
O716 C727 1.242 . S
O717 Gd682 2.468 . S
O717 C735 1.263 . S
O718 Gd682 2.427 . S
O718 C735 1.252 . S
O719 Gd683 2.307 . S
O719 C728 1.261 . S
O720 Gd682 2.388 . S
O720 C728 1.252 . S
O721 Gd682 2.386 . S
O721 C739 1.265 . S
O722 Gd683 2.353 . S
O722 C739 1.242 . S
O723 Gd683 2.468 . S
O723 C747 1.263 . S
O724 Gd683 2.427 . S
O724 C747 1.252 . S
O725 Gd682 2.307 . S
O725 C740 1.261 . S
O726 Gd683 2.388 . S
O726 C740 1.252 . S
C727 O715 1.265 . S
C727 O716 1.242 . S
C728 O719 1.261 . S
C728 O720 1.252 . S
C729 C732 1.394 . S
C729 C734 1.370 . S
C729 C735 1.500 . S
C730 C733 1.383 . S
C730 C734 1.395 . S
C731 C732 1.396 . S
C731 C733 1.365 . S
C731 H748 0.929 . S
C732 C729 1.394 . S
C732 C731 1.396 . S
C732 H749 0.930 . S
C733 C730 1.383 . S
C733 C731 1.365 . S
C733 H750 0.931 . S
C734 C729 1.370 . S
C734 C730 1.395 . S
C734 H751 0.930 . S
C735 Gd682 2.805 . S
C735 O717 1.263 . S
C735 O718 1.252 . S
C735 C729 1.500 . S
C736 H698 0.930 . S
C736 C712 1.417 1_556 S
C736 C737 1.329 . S
C737 C707 1.437 . S
C737 H708 0.929 . S
C737 C736 1.329 . S
H738 C711 0.931 . S
C739 O721 1.265 . S
C739 O722 1.242 . S
C740 O725 1.261 . S
C740 O726 1.252 . S
C741 C744 1.394 . S
C741 C746 1.370 . S
C741 C747 1.500 . S
C742 C745 1.383 . S
C742 C746 1.395 . S
C743 C744 1.396 . S
C743 C745 1.365 . S
C743 H752 0.929 . S
C744 C741 1.394 . S
C744 C743 1.396 . S
C744 H753 0.930 . S
C745 C742 1.383 . S
C745 C743 1.365 . S
C745 H754 0.931 . S
C746 C741 1.370 . S
C746 C742 1.395 . S
C746 H755 0.930 . S
C747 Gd683 2.805 . S
C747 O723 1.263 . S
C747 O724 1.252 . S
C747 C741 1.500 . S
H748 C731 0.929 . S
H749 C732 0.930 . S
H750 C733 0.931 . S
H751 C734 0.930 . S
H752 C743 0.929 . S
H753 C744 0.930 . S
H754 C745 0.931 . S
H755 C746 0.930 . S
C756 C758 1.422 . S
C756 C760 1.415 . S
C756 N762 1.369 . S
C757 C758 1.421 . S
C757 C759 1.417 . S
C757 C769 1.422 . S
C758 C756 1.422 . S
C758 C757 1.421 . S
C758 N768 1.359 . S
C759 C757 1.417 . S
C759 C761 1.329 . S
C759 H778 0.930 . S
C760 C756 1.415 . S
C760 C761 1.437 . S
C760 C764 1.413 . S
C761 C759 1.329 . S
C761 C760 1.437 . S
C761 H783 0.929 . S
N762 C756 1.369 . S
N762 C763 1.338 . S
N762 Gd767 2.622 . S
C763 N762 1.338 . S
C763 C765 1.378 . S
C763 H775 0.929 . S
C764 C760 1.413 . S
C764 C765 1.348 . S
C764 H780 0.931 . S
C765 C763 1.378 . S
C765 C764 1.348 . S
C765 H781 0.930 . S
Gd766 N786 2.622 . S
Gd766 N793 2.570 . S
Gd766 O800 2.353 . S
Gd766 O801 2.468 . S
Gd766 O802 2.427 . S
Gd766 O804 2.388 1_545 S
Gd766 O805 2.386 . S
Gd766 O809 2.307 . S
Gd766 C819 2.805 . S
Gd767 N762 2.622 . S
Gd767 N768 2.570 . S
Gd767 O799 2.386 . S
Gd767 O803 2.307 . S
Gd767 O806 2.349 1_565 S
Gd767 O807 2.468 . S
Gd767 O808 2.427 . S
Gd767 O810 2.388 1_565 S
Gd767 C831 2.805 . S
N768 C758 1.359 . S
N768 Gd767 2.570 . S
N768 C770 1.343 . S
C769 C757 1.422 . S
C769 C771 1.321 . S
C769 H777 0.931 . S
C770 N768 1.343 . S
C770 C771 1.390 . S
C770 H772 0.931 . S
C771 C769 1.321 . S
C771 C770 1.390 . S
C771 H773 0.930 . S
H772 C770 0.931 . S
H773 C771 0.930 . S
H774 C797 0.931 . S
H775 C763 0.929 . S
H776 C798 0.930 . S
H777 C769 0.931 . S
H778 C759 0.930 . S
H779 C788 0.929 . S
H780 C764 0.931 . S
H781 C765 0.930 . S
H782 C820 0.930 . S
H783 C761 0.929 . S
H784 C789 0.931 . S
H785 C790 0.930 . S
N786 Gd766 2.622 . S
N786 C787 1.369 . S
N786 C788 1.338 . S
C787 N786 1.369 . S
C787 C791 1.415 1_556 S
C787 C794 1.422 . S
C788 H779 0.929 . S
C788 N786 1.338 . S
C788 C790 1.378 1_556 S
C789 H784 0.931 . S
C789 C790 1.348 . S
C789 C791 1.413 . S
C790 H785 0.930 . S
C790 C788 1.378 1_554 S
C790 C789 1.348 . S
C791 C787 1.415 1_554 S
C791 C789 1.413 . S
C791 C821 1.437 . S
H792 C821 0.929 . S
N793 Gd766 2.570 . S
N793 C794 1.359 . S
N793 C797 1.343 . S
C794 C787 1.422 . S
C794 N793 1.359 . S
C794 C796 1.421 . S
C795 C796 1.422 . S
C795 C798 1.321 . S
C795 H822 0.931 . S
C796 C794 1.421 . S
C796 C795 1.422 . S
C796 C820 1.417 1_556 S
C797 H774 0.931 . S
C797 N793 1.343 . S
C797 C798 1.390 . S
C798 H776 0.930 . S
C798 C795 1.321 . S
C798 C797 1.390 . S
O799 Gd767 2.386 . S
O799 C811 1.265 . S
O800 Gd766 2.353 . S
O800 C811 1.242 1_545 S
O801 Gd766 2.468 . S
O801 C819 1.263 . S
O802 Gd766 2.427 . S
O802 C819 1.252 . S
O803 Gd767 2.307 . S
O803 C812 1.261 . S
O804 Gd766 2.388 1_565 S
O804 C812 1.252 . S
O805 Gd766 2.386 . S
O805 C823 1.265 . S
O806 Gd767 2.349 1_545 S
O806 C823 1.246 . S
O807 Gd767 2.468 . S
O807 C831 1.263 . S
O808 Gd767 2.427 . S
O808 C831 1.252 . S
O809 Gd766 2.307 . S
O809 C824 1.261 . S
O810 Gd767 2.388 1_545 S
O810 C824 1.252 . S
C811 O799 1.265 . S
C811 O800 1.242 1_565 S
C812 O803 1.261 . S
C812 O804 1.252 . S
C813 C816 1.394 . S
C813 C818 1.370 . S
C813 C819 1.500 . S
C814 C817 1.383 . S
C814 C818 1.395 . S
C815 C816 1.396 . S
C815 C817 1.365 . S
C815 H832 0.929 . S
C816 C813 1.394 . S
C816 C815 1.396 . S
C816 H833 0.930 . S
C817 C814 1.383 . S
C817 C815 1.365 . S
C817 H834 0.931 . S
C818 C813 1.370 . S
C818 C814 1.395 . S
C818 H835 0.930 . S
C819 Gd766 2.805 . S
C819 O801 1.263 . S
C819 O802 1.252 . S
C819 C813 1.500 . S
C820 H782 0.930 . S
C820 C796 1.417 1_554 S
C820 C821 1.329 . S
C821 C791 1.437 . S
C821 H792 0.929 . S
C821 C820 1.329 . S
H822 C795 0.931 . S
C823 O805 1.265 . S
C823 O806 1.246 . S
C824 O809 1.261 . S
C824 O810 1.252 . S
C825 C828 1.394 . S
C825 C830 1.370 . S
C825 C831 1.500 . S
C826 C829 1.383 . S
C826 C830 1.395 . S
C827 C828 1.396 . S
C827 C829 1.365 . S
C827 H836 0.929 . S
C828 C825 1.394 . S
C828 C827 1.396 . S
C828 H837 0.930 . S
C829 C826 1.383 . S
C829 C827 1.365 . S
C829 H838 0.931 . S
C830 C825 1.370 . S
C830 C826 1.395 . S
C830 H839 0.930 . S
C831 Gd767 2.805 . S
C831 O807 1.263 . S
C831 O808 1.252 . S
C831 C825 1.500 . S
H832 C815 0.929 . S
H833 C816 0.930 . S
H834 C817 0.931 . S
H835 C818 0.930 . S
H836 C827 0.929 . S
H837 C828 0.930 . S
H838 C829 0.931 . S
H839 C830 0.930 . S
C840 C842 1.422 . S
C840 C844 1.415 . S
C840 N846 1.369 . S
C841 C842 1.421 . S
C841 C843 1.417 . S
C841 C853 1.422 . S
C842 C840 1.422 . S
C842 C841 1.421 . S
C842 N852 1.359 . S
C843 C841 1.417 . S
C843 C845 1.329 . S
C843 H862 0.930 . S
C844 C840 1.415 . S
C844 C845 1.437 . S
C844 C848 1.413 . S
C845 C843 1.329 . S
C845 C844 1.437 . S
C845 H867 0.929 . S
N846 C840 1.369 . S
N846 C847 1.338 . S
N846 Gd851 2.622 . S
C847 N846 1.338 . S
C847 C849 1.378 . S
C847 H859 0.934 . S
C848 C844 1.413 . S
C848 C849 1.348 . S
C848 H864 0.931 . S
C849 C847 1.378 . S
C849 C848 1.348 . S
C849 H865 0.930 . S
Gd850 N870 2.622 . S
Gd850 N877 2.570 . S
Gd850 O884 2.353 . S
Gd850 O885 2.468 . S
Gd850 O886 2.427 . S
Gd850 O888 2.388 1_565 S
Gd850 O889 2.386 . S
Gd850 O893 2.307 . S
Gd850 C903 2.805 . S
Gd851 N846 2.622 . S
Gd851 N852 2.570 . S
Gd851 O883 2.386 . S
Gd851 O887 2.307 . S
Gd851 O890 2.353 1_545 S
Gd851 O891 2.468 . S
Gd851 O892 2.427 . S
Gd851 O894 2.388 1_545 S
Gd851 C915 2.805 . S
N852 C842 1.359 . S
N852 Gd851 2.570 . S
N852 C854 1.343 . S
C853 C841 1.422 . S
C853 C855 1.321 . S
C853 H861 0.931 . S
C854 N852 1.343 . S
C854 C855 1.390 . S
C854 H856 0.931 . S
C855 C853 1.321 . S
C855 C854 1.390 . S
C855 H857 0.930 . S
H856 C854 0.931 . S
H857 C855 0.930 . S
H858 C881 0.931 . S
H859 C847 0.934 . S
H860 C882 0.930 . S
H861 C853 0.931 . S
H862 C843 0.930 . S
H863 C872 0.929 . S
H864 C848 0.931 . S
H865 C849 0.930 . S
H866 C904 0.930 . S
H867 C845 0.929 . S
H868 C873 0.931 . S
H869 C874 0.930 . S
N870 Gd850 2.622 . S
N870 C871 1.369 . S
N870 C872 1.338 . S
C871 N870 1.369 . S
C871 C875 1.415 . S
C871 C878 1.422 . S
C872 H863 0.929 . S
C872 N870 1.338 . S
C872 C874 1.378 . S
C873 H868 0.931 . S
C873 C874 1.348 . S
C873 C875 1.413 . S
C874 H869 0.930 . S
C874 C872 1.378 . S
C874 C873 1.348 . S
C875 C871 1.415 . S
C875 C873 1.413 . S
C875 C905 1.437 . S
H876 C905 0.929 . S
N877 Gd850 2.570 . S
N877 C878 1.359 . S
N877 C881 1.343 . S
C878 C871 1.422 . S
C878 N877 1.359 . S
C878 C880 1.421 . S
C879 C880 1.422 . S
C879 C882 1.321 . S
C879 H906 0.931 . S
C880 C878 1.421 . S
C880 C879 1.422 . S
C880 C904 1.417 . S
C881 H858 0.931 . S
C881 N877 1.343 . S
C881 C882 1.390 . S
C882 H860 0.930 . S
C882 C879 1.321 . S
C882 C881 1.390 . S
O883 Gd851 2.386 . S
O883 C895 1.265 . S
O884 Gd850 2.353 . S
O884 C895 1.242 1_565 S
O885 Gd850 2.468 . S
O885 C903 1.263 . S
O886 Gd850 2.427 . S
O886 C903 1.252 . S
O887 Gd851 2.307 . S
O887 C896 1.261 . S
O888 Gd850 2.388 1_545 S
O888 C896 1.252 . S
O889 Gd850 2.386 . S
O889 C907 1.265 . S
O890 Gd851 2.353 1_565 S
O890 C907 1.242 . S
O891 Gd851 2.468 . S
O891 C915 1.263 . S
O892 Gd851 2.427 . S
O892 C915 1.252 . S
O893 Gd850 2.307 . S
O893 C908 1.261 . S
O894 Gd851 2.388 1_565 S
O894 C908 1.252 . S
C895 O883 1.265 . S
C895 O884 1.242 1_545 S
C896 O887 1.261 . S
C896 O888 1.252 . S
C897 C900 1.394 . S
C897 C902 1.370 . S
C897 C903 1.500 . S
C898 C901 1.383 . S
C898 C902 1.395 . S
C899 C900 1.396 . S
C899 C901 1.365 . S
C899 H916 0.929 . S
C900 C897 1.394 . S
C900 C899 1.396 . S
C900 H917 0.930 . S
C901 C898 1.383 . S
C901 C899 1.365 . S
C901 H918 0.931 . S
C902 C897 1.370 . S
C902 C898 1.395 . S
C902 H919 0.930 . S
C903 Gd850 2.805 . S
C903 O885 1.263 . S
C903 O886 1.252 . S
C903 C897 1.500 . S
C904 H866 0.930 . S
C904 C880 1.417 . S
C904 C905 1.329 . S
C905 C875 1.437 . S
C905 H876 0.929 . S
C905 C904 1.329 . S
H906 C879 0.931 . S
C907 O889 1.265 . S
C907 O890 1.242 . S
C908 O893 1.261 . S
C908 O894 1.252 . S
C909 C912 1.394 . S
C909 C914 1.370 . S
C909 C915 1.500 . S
C910 C913 1.383 . S
C910 C914 1.395 . S
C911 C912 1.396 . S
C911 C913 1.365 . S
C911 H920 0.929 . S
C912 C909 1.394 . S
C912 C911 1.396 . S
C912 H921 0.930 . S
C913 C910 1.383 . S
C913 C911 1.365 . S
C913 H922 0.931 . S
C914 C909 1.370 . S
C914 C910 1.395 . S
C914 H923 0.930 . S
C915 Gd851 2.805 . S
C915 O891 1.263 . S
C915 O892 1.252 . S
C915 C909 1.500 . S
H916 C899 0.929 . S
H917 C900 0.930 . S
H918 C901 0.931 . S
H919 C902 0.930 . S
H920 C911 0.929 . S
H921 C912 0.930 . S
H922 C913 0.931 . S
H923 C914 0.930 . S
C924 C926 1.422 . S
C924 C928 1.415 . S
C924 N930 1.369 . S
C925 C926 1.421 . S
C925 C927 1.417 . S
C925 C937 1.422 . S
C926 C924 1.422 . S
C926 C925 1.421 . S
C926 N936 1.359 . S
C927 C925 1.417 . S
C927 C929 1.329 . S
C927 H946 0.930 . S
C928 C924 1.415 . S
C928 C929 1.437 . S
C928 C932 1.413 . S
C929 C927 1.329 . S
C929 C928 1.437 . S
C929 H951 0.929 . S
N930 C924 1.369 . S
N930 C931 1.338 . S
N930 Gd935 2.622 . S
C931 N930 1.338 . S
C931 C933 1.378 . S
C931 H943 0.929 . S
C932 C928 1.413 . S
C932 C933 1.348 . S
C932 H948 0.931 . S
C933 C931 1.378 . S
C933 C932 1.348 . S
C933 H949 0.930 . S
Gd934 N954 2.622 . S
Gd934 N961 2.570 . S
Gd934 O968 2.353 . S
Gd934 O969 2.468 . S
Gd934 O970 2.427 . S
Gd934 O972 2.388 . S
Gd934 O973 2.386 . S
Gd934 O977 2.307 . S
Gd934 C987 2.805 . S
Gd935 N930 2.622 . S
Gd935 N936 2.570 . S
Gd935 O967 2.386 . S
Gd935 O971 2.307 . S
Gd935 O974 2.353 . S
Gd935 O975 2.468 . S
Gd935 O976 2.427 . S
Gd935 O978 2.388 . S
Gd935 C999 2.805 . S
N936 C926 1.359 . S
N936 Gd935 2.570 . S
N936 C938 1.343 . S
C937 C925 1.422 . S
C937 C939 1.321 . S
C937 H945 0.931 . S
C938 N936 1.343 . S
C938 C939 1.390 . S
C938 H940 0.931 . S
C939 C937 1.321 . S
C939 C938 1.390 . S
C939 H941 0.930 . S
H940 C938 0.931 . S
H941 C939 0.930 . S
H942 C965 0.931 . S
H943 C931 0.929 . S
H944 C966 0.930 . S
H945 C937 0.931 . S
H946 C927 0.930 . S
H947 C956 0.929 . S
H948 C932 0.931 . S
H949 C933 0.930 . S
H950 C988 0.930 . S
H951 C929 0.929 . S
H952 C957 0.931 . S
H953 C958 0.930 . S
N954 Gd934 2.622 . S
N954 C955 1.369 . S
N954 C956 1.338 . S
C955 N954 1.369 . S
C955 C959 1.415 . S
C955 C962 1.422 . S
C956 H947 0.929 . S
C956 N954 1.338 . S
C956 C958 1.378 . S
C957 H952 0.931 . S
C957 C958 1.348 . S
C957 C959 1.413 . S
C958 H953 0.930 . S
C958 C956 1.378 . S
C958 C957 1.348 . S
C959 C955 1.415 . S
C959 C957 1.413 . S
C959 C989 1.437 . S
H960 C989 0.929 . S
N961 Gd934 2.570 . S
N961 C962 1.359 . S
N961 C965 1.343 . S
C962 C955 1.422 . S
C962 N961 1.359 . S
C962 C964 1.421 . S
C963 C964 1.422 . S
C963 C966 1.321 . S
C963 H990 0.931 . S
C964 C962 1.421 . S
C964 C963 1.422 . S
C964 C988 1.417 . S
C965 H942 0.931 . S
C965 N961 1.343 . S
C965 C966 1.390 . S
C966 H944 0.930 . S
C966 C963 1.321 . S
C966 C965 1.390 . S
O967 Gd935 2.386 . S
O967 C979 1.265 . S
O968 Gd934 2.353 . S
O968 C979 1.242 . S
O969 Gd934 2.468 . S
O969 C987 1.263 . S
O970 Gd934 2.427 . S
O970 C987 1.252 . S
O971 Gd935 2.307 . S
O971 C980 1.261 . S
O972 Gd934 2.388 . S
O972 C980 1.252 . S
O973 Gd934 2.386 . S
O973 C991 1.265 . S
O974 Gd935 2.353 . S
O974 C991 1.242 . S
O975 Gd935 2.468 . S
O975 C999 1.263 . S
O976 Gd935 2.427 . S
O976 C999 1.252 . S
O977 Gd934 2.307 . S
O977 C992 1.261 . S
O978 Gd935 2.388 . S
O978 C992 1.252 . S
C979 O967 1.265 . S
C979 O968 1.242 . S
C980 O971 1.261 . S
C980 O972 1.252 . S
C981 C984 1.394 . S
C981 C986 1.370 . S
C981 C987 1.500 . S
C982 C985 1.383 . S
C982 C986 1.395 . S
C983 C984 1.396 . S
C983 C985 1.365 . S
C983 H1000 0.929 . S
C984 C981 1.394 . S
C984 C983 1.396 . S
C984 H1001 0.930 . S
C985 C982 1.383 . S
C985 C983 1.365 . S
C985 H1002 0.931 . S
C986 C981 1.370 . S
C986 C982 1.395 . S
C986 H1003 0.930 . S
C987 Gd934 2.805 . S
C987 O969 1.263 . S
C987 O970 1.252 . S
C987 C981 1.500 . S
C988 H950 0.930 . S
C988 C964 1.417 . S
C988 C989 1.329 . S
C989 C959 1.437 . S
C989 H960 0.929 . S
C989 C988 1.329 . S
H990 C963 0.931 . S
C991 O973 1.265 . S
C991 O974 1.242 . S
C992 O977 1.261 . S
C992 O978 1.252 . S
C993 C996 1.394 . S
C993 C998 1.370 . S
C993 C999 1.500 . S
C994 C997 1.383 . S
C994 C998 1.395 . S
C995 C996 1.396 . S
C995 C997 1.365 . S
C995 H1004 0.929 . S
C996 C993 1.394 . S
C996 C995 1.396 . S
C996 H1005 0.930 . S
C997 C994 1.383 . S
C997 C995 1.365 . S
C997 H1006 0.931 . S
C998 C993 1.370 . S
C998 C994 1.395 . S
C998 H1007 0.930 . S
C999 Gd935 2.805 . S
C999 O975 1.263 . S
C999 O976 1.252 . S
C999 C993 1.500 . S
H1000 C983 0.929 . S
H1001 C984 0.930 . S
H1002 C985 0.931 . S
H1003 C986 0.930 . S
H1004 C995 0.929 . S
H1005 C996 0.930 . S
H1006 C997 0.931 . S
H1007 C998 0.930 . S
C1008 C1009 1.369 . S
C1008 C1010 1.419 . S
C1008 H1012 0.930 . S
C1009 C1008 1.369 . S
C1009 C1018 1.429 . S
C1010 C1008 1.419 . S
C1010 C1011 1.363 . S
C1010 H1013 0.929 . S
C1011 C1010 1.363 . S
C1011 C1017 1.428 . S
H1012 C1008 0.930 . S
H1013 C1010 0.929 . S
S1014 N1015 1.613 . S
S1014 N1016 1.610 . S
N1015 S1014 1.613 . S
N1015 C1018 1.350 . S
N1016 S1014 1.610 . S
N1016 C1017 1.351 . S
C1017 C1011 1.428 . S
C1017 N1016 1.351 . S
C1017 C1018 1.434 . S
C1018 C1009 1.429 . S
C1018 N1015 1.350 . S
C1018 C1017 1.434 . S
C1019 C1020 1.369 . S
C1019 C1021 1.419 . S
C1019 H1023 0.930 . S
C1020 C1019 1.369 . S
C1020 C1029 1.429 . S
C1021 C1019 1.419 . S
C1021 C1022 1.363 . S
C1021 H1024 0.929 . S
C1022 C1021 1.363 . S
C1022 C1028 1.428 . S
H1023 C1019 0.930 . S
H1024 C1021 0.929 . S
S1025 N1026 1.613 . S
S1025 N1027 1.610 . S
N1026 S1025 1.613 . S
N1026 C1029 1.350 1_545 S
N1027 S1025 1.610 . S
N1027 C1028 1.351 1_545 S
C1028 C1022 1.428 . S
C1028 N1027 1.351 1_565 S
C1028 C1029 1.434 . S
C1029 C1020 1.429 . S
C1029 N1026 1.350 1_565 S
C1029 C1028 1.434 . S
C1030 C1031 1.369 . S
C1030 C1032 1.419 . S
C1030 H1034 0.930 . S
C1031 C1030 1.369 . S
C1031 C1040 1.429 . S
C1032 C1030 1.419 . S
C1032 C1033 1.363 . S
C1032 H1035 0.929 . S
C1033 C1032 1.363 . S
C1033 C1039 1.428 . S
H1034 C1030 0.930 . S
H1035 C1032 0.929 . S
S1036 N1037 1.613 . S
S1036 N1038 1.610 . S
N1037 S1036 1.613 . S
N1037 C1040 1.350 . S
N1038 S1036 1.610 . S
N1038 C1039 1.351 . S
C1039 C1033 1.428 . S
C1039 N1038 1.351 . S
C1039 C1040 1.434 . S
C1040 C1031 1.429 . S
C1040 N1037 1.350 . S
C1040 C1039 1.434 . S
C1041 C1042 1.369 . S
C1041 C1043 1.419 . S
C1041 H1045 0.930 1_545 S
C1042 C1041 1.369 . S
C1042 C1051 1.429 . S
C1043 C1041 1.419 . S
C1043 C1044 1.363 . S
C1043 H1046 0.929 1_545 S
C1044 C1043 1.363 . S
C1044 C1050 1.428 . S
H1045 C1041 0.930 1_565 S
H1046 C1043 0.929 1_565 S
S1047 N1048 1.613 . S
S1047 N1049 1.610 . S
N1048 S1047 1.613 . S
N1048 C1051 1.350 . S
N1049 S1047 1.610 . S
N1049 C1050 1.351 . S
C1050 C1044 1.428 . S
C1050 N1049 1.351 . S
C1050 C1051 1.434 . S
C1051 C1042 1.429 . S
C1051 N1048 1.350 . S
C1051 C1050 1.434 . S
C1052 C1053 1.369 . S
C1052 C1054 1.419 . S
C1052 H1056 0.930 . S
C1053 C1052 1.369 . S
C1053 C1062 1.429 . S
C1054 C1052 1.419 . S
C1054 C1055 1.363 . S
C1054 H1057 0.929 . S
C1055 C1054 1.363 . S
C1055 C1061 1.428 . S
H1056 C1052 0.930 . S
H1057 C1054 0.929 . S
S1058 N1059 1.613 . S
S1058 N1060 1.610 . S
N1059 S1058 1.613 . S
N1059 C1062 1.350 . S
N1060 S1058 1.610 . S
N1060 C1061 1.351 . S
C1061 C1055 1.428 . S
C1061 N1060 1.351 . S
C1061 C1062 1.434 . S
C1062 C1053 1.429 . S
C1062 N1059 1.350 . S
C1062 C1061 1.434 . S
C1063 C1064 1.369 . S
C1063 C1065 1.419 . S
C1063 H1067 0.930 . S
C1064 C1063 1.369 . S
C1064 C1073 1.429 . S
C1065 C1063 1.419 . S
C1065 C1066 1.363 . S
C1065 H1068 0.929 . S
C1066 C1065 1.363 . S
C1066 C1072 1.428 . S
H1067 C1063 0.930 . S
H1068 C1065 0.929 . S
S1069 N1070 1.613 . S
S1069 N1071 1.610 . S
N1070 S1069 1.613 . S
N1070 C1073 1.350 . S
N1071 S1069 1.610 . S
N1071 C1072 1.351 . S
C1072 C1066 1.428 . S
C1072 N1071 1.351 . S
C1072 C1073 1.434 . S
C1073 C1064 1.429 . S
C1073 N1070 1.350 . S
C1073 C1072 1.434 . S
C1074 C1075 1.369 . S
C1074 C1076 1.419 . S
C1074 H1078 0.930 . S
C1075 C1074 1.369 . S
C1075 C1084 1.429 . S
C1076 C1074 1.419 . S
C1076 C1077 1.363 . S
C1076 H1079 0.929 . S
C1077 C1076 1.363 . S
C1077 C1083 1.428 . S
H1078 C1074 0.930 . S
H1079 C1076 0.929 . S
S1080 N1081 1.613 . S
S1080 N1082 1.610 . S
N1081 S1080 1.613 . S
N1081 C1084 1.350 . S
N1082 S1080 1.610 . S
N1082 C1083 1.351 . S
C1083 C1077 1.428 . S
C1083 N1082 1.351 . S
C1083 C1084 1.434 . S
C1084 C1075 1.429 . S
C1084 N1081 1.350 . S
C1084 C1083 1.434 . S
C1085 C1086 1.369 . S
C1085 C1087 1.419 . S
C1085 H1089 0.930 . S
C1086 C1085 1.369 . S
C1086 C1095 1.429 . S
C1087 C1085 1.419 . S
C1087 C1088 1.363 . S
C1087 H1090 0.929 . S
C1088 C1087 1.363 . S
C1088 C1094 1.428 . S
H1089 C1085 0.930 . S
H1090 C1087 0.929 . S
S1091 N1092 1.613 . S
S1091 N1093 1.610 . S
N1092 S1091 1.613 . S
N1092 C1095 1.350 . S
N1093 S1091 1.610 . S
N1093 C1094 1.351 . S
C1094 C1088 1.428 . S
C1094 N1093 1.351 . S
C1094 C1095 1.434 . S
C1095 C1086 1.429 . S
C1095 N1092 1.350 . S
C1095 C1094 1.434 . S
C1096 C1097 1.369 . S
C1096 C1098 1.419 . S
C1096 H1100 0.930 . S
C1097 C1096 1.369 . S
C1097 C1106 1.429 . S
C1098 C1096 1.419 . S
C1098 C1099 1.363 . S
C1098 H1101 0.929 . S
C1099 C1098 1.363 . S
C1099 C1105 1.428 . S
H1100 C1096 0.930 . S
H1101 C1098 0.929 . S
S1102 N1103 1.613 . S
S1102 N1104 1.610 . S
N1103 S1102 1.613 . S
N1103 C1106 1.350 . S
N1104 S1102 1.610 . S
N1104 C1105 1.351 . S
C1105 C1099 1.428 . S
C1105 N1104 1.351 . S
C1105 C1106 1.434 . S
C1106 C1097 1.429 . S
C1106 N1103 1.350 . S
C1106 C1105 1.434 . S
C1107 C1108 1.369 . S
C1107 C1109 1.419 . S
C1107 H1111 0.930 . S
C1108 C1107 1.369 . S
C1108 C1117 1.429 . S
C1109 C1107 1.419 . S
C1109 C1110 1.363 . S
C1109 H1112 0.929 . S
C1110 C1109 1.363 . S
C1110 C1116 1.428 . S
H1111 C1107 0.930 . S
H1112 C1109 0.929 . S
S1113 N1114 1.613 . S
S1113 N1115 1.610 . S
N1114 S1113 1.613 . S
N1114 C1117 1.350 1_655 S
N1115 S1113 1.610 . S
N1115 C1116 1.351 1_655 S
C1116 C1110 1.428 . S
C1116 N1115 1.351 1_455 S
C1116 C1117 1.434 . S
C1117 C1108 1.429 . S
C1117 N1114 1.350 1_455 S
C1117 C1116 1.434 . S
C1118 C1119 1.369 . S
C1118 C1120 1.419 . S
C1118 H1122 0.930 . S
C1119 C1118 1.369 . S
C1119 C1128 1.429 . S
C1120 C1118 1.419 . S
C1120 C1121 1.363 . S
C1120 H1123 0.929 . S
C1121 C1120 1.363 . S
C1121 C1127 1.428 . S
H1122 C1118 0.930 . S
H1123 C1120 0.929 . S
S1124 N1125 1.613 . S
S1124 N1126 1.610 . S
N1125 S1124 1.613 . S
N1125 C1128 1.350 1_455 S
N1126 S1124 1.610 . S
N1126 C1127 1.351 1_455 S
C1127 C1121 1.428 . S
C1127 N1126 1.351 1_655 S
C1127 C1128 1.434 . S
C1128 C1119 1.429 . S
C1128 N1125 1.350 1_655 S
C1128 C1127 1.434 . S
C1129 C1130 1.369 . S
C1129 C1131 1.419 . S
C1129 H1133 0.930 . S
C1130 C1129 1.369 . S
C1130 C1139 1.429 . S
C1131 C1129 1.419 . S
C1131 C1132 1.363 . S
C1131 H1134 0.929 . S
C1132 C1131 1.363 . S
C1132 C1138 1.428 . S
H1133 C1129 0.930 . S
H1134 C1131 0.929 . S
S1135 N1136 1.613 . S
S1135 N1137 1.610 . S
N1136 S1135 1.613 . S
N1136 C1139 1.350 . S
N1137 S1135 1.610 . S
N1137 C1138 1.351 . S
C1138 C1132 1.428 . S
C1138 N1137 1.351 . S
C1138 C1139 1.434 . S
C1139 C1130 1.429 . S
C1139 N1136 1.350 . S
C1139 C1138 1.434 . S
C1140 C1141 1.369 . S
C1140 C1142 1.419 . S
C1140 H1144 0.930 . S
C1141 C1140 1.369 . S
C1141 C1150 1.429 . S
C1142 C1140 1.419 . S
C1142 C1143 1.363 . S
C1142 H1145 0.929 . S
C1143 C1142 1.363 . S
C1143 C1149 1.428 . S
H1144 C1140 0.930 . S
H1145 C1142 0.929 . S
S1146 N1147 1.613 . S
S1146 N1148 1.610 . S
N1147 S1146 1.613 . S
N1147 C1150 1.350 . S
N1148 S1146 1.610 . S
N1148 C1149 1.351 . S
C1149 C1143 1.428 . S
C1149 N1148 1.351 . S
C1149 C1150 1.434 . S
C1150 C1141 1.429 . S
C1150 N1147 1.350 . S
C1150 C1149 1.434 . S
C1151 C1152 1.369 . S
C1151 C1153 1.419 . S
C1151 H1155 0.930 . S
C1152 C1151 1.369 . S
C1152 C1161 1.429 . S
C1153 C1151 1.419 . S
C1153 C1154 1.363 . S
C1153 H1156 0.929 . S
C1154 C1153 1.363 . S
C1154 C1160 1.428 . S
H1155 C1151 0.930 . S
H1156 C1153 0.929 . S
S1157 N1158 1.613 1_545 S
S1157 N1159 1.610 . S
N1158 S1157 1.613 1_565 S
N1158 C1161 1.350 . S
N1159 S1157 1.610 . S
N1159 C1160 1.351 1_545 S
C1160 C1154 1.428 . S
C1160 N1159 1.351 1_565 S
C1160 C1161 1.434 . S
C1161 C1152 1.429 . S
C1161 N1158 1.350 . S
C1161 C1160 1.434 . S
C1162 C1163 1.369 . S
C1162 C1164 1.419 . S
C1162 H1166 0.930 . S
C1163 C1162 1.369 . S
C1163 C1172 1.429 . S
C1164 C1162 1.419 . S
C1164 C1165 1.363 . S
C1164 H1167 0.929 . S
C1165 C1164 1.363 . S
C1165 C1171 1.428 . S
H1166 C1162 0.930 . S
H1167 C1164 0.929 . S
S1168 N1169 1.613 . S
S1168 N1170 1.610 . S
N1169 S1168 1.613 . S
N1169 C1172 1.350 . S
N1170 S1168 1.610 . S
N1170 C1171 1.351 . S
C1171 C1165 1.428 . S
C1171 N1170 1.351 . S
C1171 C1172 1.434 . S
C1172 C1163 1.429 . S
C1172 N1169 1.350 . S
C1172 C1171 1.434 . S
C1173 C1174 1.369 . S
C1173 C1175 1.419 1_554 S
C1173 H1177 0.930 1_545 S
C1174 C1173 1.369 . S
C1174 C1183 1.429 . S
C1175 C1173 1.419 1_556 S
C1175 C1176 1.363 . S
C1175 H1178 0.929 1_545 S
C1176 C1175 1.363 . S
C1176 C1182 1.428 . S
H1177 C1173 0.930 1_565 S
H1178 C1175 0.929 1_565 S
S1179 N1180 1.613 1_556 S
S1179 N1181 1.610 . S
N1180 S1179 1.613 1_554 S
N1180 C1183 1.350 . S
N1181 S1179 1.610 . S
N1181 C1182 1.351 . S
C1182 C1176 1.428 . S
C1182 N1181 1.351 . S
C1182 C1183 1.434 1_556 S
C1183 C1174 1.429 . S
C1183 N1180 1.350 . S
C1183 C1182 1.434 1_554 S
C1184 C1185 1.369 . S
C1184 C1186 1.419 . S
C1184 H1188 0.930 . S
C1185 C1184 1.369 . S
C1185 C1194 1.429 . S
C1186 C1184 1.419 . S
C1186 C1187 1.363 . S
C1186 H1189 0.929 . S
C1187 C1186 1.363 . S
C1187 C1193 1.428 . S
H1188 C1184 0.930 . S
H1189 C1186 0.929 . S
S1190 N1191 1.613 . S
S1190 N1192 1.610 . S
N1191 S1190 1.613 . S
N1191 C1194 1.350 . S
N1192 S1190 1.610 . S
N1192 C1193 1.351 . S
C1193 C1187 1.428 . S
C1193 N1192 1.351 . S
C1193 C1194 1.434 . S
C1194 C1185 1.429 . S
C1194 N1191 1.350 . S
C1194 C1193 1.434 . S
C1195 C1196 1.369 . S
C1195 C1197 1.419 1_554 S
C1195 H1199 0.930 . S
C1196 C1195 1.369 . S
C1196 C1205 1.429 . S
C1197 C1195 1.419 1_556 S
C1197 C1198 1.363 . S
C1197 H1200 0.929 . S
C1198 C1197 1.363 . S
C1198 C1204 1.428 . S
H1199 C1195 0.930 . S
H1200 C1197 0.929 . S
S1201 N1202 1.613 1_556 S
S1201 N1203 1.610 . S
N1202 S1201 1.613 1_554 S
N1202 C1205 1.350 . S
N1203 S1201 1.610 . S
N1203 C1204 1.351 . S
C1204 C1198 1.428 . S
C1204 N1203 1.351 . S
C1204 C1205 1.434 1_556 S
C1205 C1196 1.429 . S
C1205 N1202 1.350 . S
C1205 C1204 1.434 1_554 S
C1206 C1207 1.369 . S
C1206 C1208 1.419 . S
C1206 H1210 0.930 . S
C1207 C1206 1.369 . S
C1207 C1216 1.429 . S
C1208 C1206 1.419 . S
C1208 C1209 1.363 . S
C1208 H1211 0.929 . S
C1209 C1208 1.363 . S
C1209 C1215 1.428 . S
H1210 C1206 0.930 . S
H1211 C1208 0.929 . S
S1212 N1213 1.613 . S
S1212 N1214 1.610 . S
N1213 S1212 1.613 . S
N1213 C1216 1.350 . S
N1214 S1212 1.610 . S
N1214 C1215 1.351 . S
C1215 C1209 1.428 . S
C1215 N1214 1.351 . S
C1215 C1216 1.434 . S
C1216 C1207 1.429 . S
C1216 N1213 1.350 . S
C1216 C1215 1.434 . S
C1217 C1218 1.369 . S
C1217 C1219 1.419 . S
C1217 H1221 0.930 . S
C1218 C1217 1.369 . S
C1218 C1227 1.429 . S
C1219 C1217 1.419 . S
C1219 C1220 1.363 . S
C1219 H1222 0.929 . S
C1220 C1219 1.363 . S
C1220 C1226 1.428 . S
H1221 C1217 0.930 . S
H1222 C1219 0.929 . S
S1223 N1224 1.613 . S
S1223 N1225 1.610 . S
N1224 S1223 1.613 . S
N1224 C1227 1.350 . S
N1225 S1223 1.610 . S
N1225 C1226 1.351 . S
C1226 C1220 1.428 . S
C1226 N1225 1.351 . S
C1226 C1227 1.434 . S
C1227 C1218 1.429 . S
C1227 N1224 1.350 . S
C1227 C1226 1.434 . S
C1228 C1229 1.369 . S
C1228 C1230 1.419 . S
C1228 H1232 0.930 . S
C1229 C1228 1.369 . S
C1229 C1238 1.429 . S
C1230 C1228 1.419 . S
C1230 C1231 1.363 . S
C1230 H1233 0.929 . S
C1231 C1230 1.363 . S
C1231 C1237 1.428 . S
H1232 C1228 0.930 . S
H1233 C1230 0.929 . S
S1234 N1235 1.613 . S
S1234 N1236 1.610 . S
N1235 S1234 1.613 . S
N1235 C1238 1.350 . S
N1236 S1234 1.610 . S
N1236 C1237 1.351 . S
C1237 C1231 1.428 . S
C1237 N1236 1.351 . S
C1237 C1238 1.434 . S
C1238 C1229 1.429 . S
C1238 N1235 1.350 . S
C1238 C1237 1.434 . S
C1239 C1240 1.369 . S
C1239 C1241 1.419 1_545 S
C1239 H1243 0.907 1_455 S
C1240 C1239 1.369 . S
C1240 C1249 1.429 . S
C1241 C1239 1.419 1_565 S
C1241 C1242 1.363 . S
C1241 H1244 0.929 1_455 S
C1242 C1241 1.363 . S
C1242 C1248 1.428 . S
H1243 C1239 0.907 1_655 S
H1244 C1241 0.929 1_655 S
S1245 N1246 1.613 1_565 S
S1245 N1247 1.610 . S
N1246 S1245 1.613 1_545 S
N1246 C1249 1.350 . S
N1247 S1245 1.610 . S
N1247 C1248 1.351 . S
C1248 C1242 1.428 . S
C1248 N1247 1.351 . S
C1248 C1249 1.434 1_565 S
C1249 C1240 1.429 . S
C1249 N1246 1.350 . S
C1249 C1248 1.434 1_545 S
C1250 C1251 1.369 . S
C1250 C1252 1.419 . S
C1250 H1254 0.930 . S
C1251 C1250 1.369 . S
C1251 C1260 1.429 . S
C1252 C1250 1.419 . S
C1252 C1253 1.363 . S
C1252 H1255 0.929 . S
C1253 C1252 1.363 . S
C1253 C1259 1.428 . S
H1254 C1250 0.930 . S
H1255 C1252 0.929 . S
S1256 N1257 1.613 . S
S1256 N1258 1.610 . S
N1257 S1256 1.613 . S
N1257 C1260 1.350 . S
N1258 S1256 1.610 . S
N1258 C1259 1.351 . S
C1259 C1253 1.428 . S
C1259 N1258 1.351 . S
C1259 C1260 1.434 . S
C1260 C1251 1.429 . S
C1260 N1257 1.350 . S
C1260 C1259 1.434 . S
C1261 C1262 1.369 . S
C1261 C1263 1.419 1_545 S
C1261 H1265 0.930 . S
C1262 C1261 1.369 . S
C1262 C1271 1.429 . S
C1263 C1261 1.419 1_565 S
C1263 C1264 1.363 . S
C1263 H1266 0.929 . S
C1264 C1263 1.363 . S
C1264 C1270 1.428 . S
H1265 C1261 0.930 . S
H1266 C1263 0.929 . S
S1267 N1268 1.613 1_565 S
S1267 N1269 1.610 . S
N1268 S1267 1.613 1_545 S
N1268 C1271 1.350 . S
N1269 S1267 1.610 . S
N1269 C1270 1.351 . S
C1270 C1264 1.428 . S
C1270 N1269 1.351 . S
C1270 C1271 1.434 1_565 S
C1271 C1262 1.429 . S
C1271 N1268 1.350 . S
C1271 C1270 1.434 1_545 S
C1272 C1273 1.369 . S
C1272 C1274 1.419 . S
C1272 H1276 0.930 . S
C1273 C1272 1.369 . S
C1273 C1282 1.429 . S
C1274 C1272 1.419 . S
C1274 C1275 1.363 . S
C1274 H1277 0.929 . S
C1275 C1274 1.363 . S
C1275 C1281 1.428 . S
H1276 C1272 0.930 . S
H1277 C1274 0.929 . S
S1278 N1279 1.613 . S
S1278 N1280 1.610 . S
N1279 S1278 1.613 . S
N1279 C1282 1.350 . S
N1280 S1278 1.610 . S
N1280 C1281 1.351 . S
C1281 C1275 1.428 . S
C1281 N1280 1.351 . S
C1281 C1282 1.434 . S
C1282 C1273 1.429 . S
C1282 N1279 1.350 . S
C1282 C1281 1.434 . S
C1283 C1284 1.369 . S
C1283 C1285 1.419 . S
C1283 H1287 0.930 1_655 S
C1284 C1283 1.369 . S
C1284 C1293 1.429 . S
C1285 C1283 1.419 . S
C1285 C1286 1.363 . S
C1285 H1288 0.929 . S
C1286 C1285 1.363 . S
C1286 C1292 1.428 . S
H1287 C1283 0.930 1_455 S
H1288 C1285 0.929 . S
S1289 N1290 1.613 . S
S1289 N1291 1.610 . S
N1290 S1289 1.613 . S
N1290 C1293 1.350 . S
N1291 S1289 1.610 . S
N1291 C1292 1.351 . S
C1292 C1286 1.428 . S
C1292 N1291 1.351 . S
C1292 C1293 1.434 . S
C1293 C1284 1.429 . S
C1293 N1290 1.350 . S
C1293 C1292 1.434 . S
C1294 C1295 1.369 . S
C1294 C1296 1.419 . S
C1294 H1298 0.930 . S
C1295 C1294 1.369 . S
C1295 C1304 1.429 . S
C1296 C1294 1.419 . S
C1296 C1297 1.363 . S
C1296 H1299 0.929 . S
C1297 C1296 1.363 . S
C1297 C1303 1.428 . S
H1298 C1294 0.930 . S
H1299 C1296 0.929 . S
S1300 N1301 1.613 . S
S1300 N1302 1.610 . S
N1301 S1300 1.613 . S
N1301 C1304 1.350 . S
N1302 S1300 1.610 . S
N1302 C1303 1.351 . S
C1303 C1297 1.428 . S
C1303 N1302 1.351 . S
C1303 C1304 1.434 . S
C1304 C1295 1.429 . S
C1304 N1301 1.350 . S
C1304 C1303 1.434 . S
C1305 C1306 1.369 . S
C1305 C1307 1.419 . S
C1305 H1309 0.930 . S
C1306 C1305 1.369 . S
C1306 C1315 1.429 . S
C1307 C1305 1.419 . S
C1307 C1308 1.363 . S
C1307 H1310 0.929 . S
C1308 C1307 1.363 . S
C1308 C1314 1.428 . S
H1309 C1305 0.930 . S
H1310 C1307 0.929 . S
S1311 N1312 1.613 . S
S1311 N1313 1.610 . S
N1312 S1311 1.613 . S
N1312 C1315 1.350 . S
N1313 S1311 1.610 . S
N1313 C1314 1.351 . S
C1314 C1308 1.428 . S
C1314 N1313 1.351 . S
C1314 C1315 1.434 . S
C1315 C1306 1.429 . S
C1315 N1312 1.350 . S
C1315 C1314 1.434 . S
C1316 C1317 1.369 . S
C1316 C1318 1.419 . S
C1316 H1320 0.930 . S
C1317 C1316 1.369 . S
C1317 C1326 1.429 . S
C1318 C1316 1.419 . S
C1318 C1319 1.363 . S
C1318 H1321 0.929 . S
C1319 C1318 1.363 . S
C1319 C1325 1.428 . S
H1320 C1316 0.930 . S
H1321 C1318 0.929 . S
S1322 N1323 1.613 . S
S1322 N1324 1.610 . S
N1323 S1322 1.613 . S
N1323 C1326 1.350 . S
N1324 S1322 1.610 . S
N1324 C1325 1.351 . S
C1325 C1319 1.428 . S
C1325 N1324 1.351 . S
C1325 C1326 1.434 . S
C1326 C1317 1.429 . S
C1326 N1323 1.350 . S
C1326 C1325 1.434 . S
C1327 C1328 1.369 . S
C1327 C1329 1.419 . S
C1327 H1331 0.930 . S
C1328 C1327 1.369 . S
C1328 C1337 1.429 . S
C1329 C1327 1.419 . S
C1329 C1330 1.363 . S
C1329 H1332 0.929 . S
C1330 C1329 1.363 . S
C1330 C1336 1.428 . S
H1331 C1327 0.930 . S
H1332 C1329 0.929 . S
S1333 N1334 1.613 1_455 S
S1333 N1335 1.610 1_455 S
N1334 S1333 1.613 1_655 S
N1334 C1337 1.350 . S
N1335 S1333 1.610 1_655 S
N1335 C1336 1.351 . S
C1336 C1330 1.428 . S
C1336 N1335 1.351 . S
C1336 C1337 1.434 . S
C1337 C1328 1.429 . S
C1337 N1334 1.350 . S
C1337 C1336 1.434 . S
C1338 C1339 1.369 . S
C1338 C1340 1.419 1_455 S
C1338 H1342 0.930 . S
C1339 C1338 1.369 . S
C1339 C1348 1.429 . S
C1340 C1338 1.419 1_655 S
C1340 C1341 1.363 . S
C1340 H1343 0.929 . S
C1341 C1340 1.363 . S
C1341 C1347 1.428 . S
H1342 C1338 0.930 . S
H1343 C1340 0.929 . S
S1344 N1345 1.613 . S
S1344 N1346 1.610 1_455 S
N1345 S1344 1.613 . S
N1345 C1348 1.350 . S
N1346 S1344 1.610 1_655 S
N1346 C1347 1.351 . S
C1347 C1341 1.428 . S
C1347 N1346 1.351 . S
C1347 C1348 1.434 1_655 S
C1348 C1339 1.429 . S
C1348 N1345 1.350 . S
C1348 C1347 1.434 1_455 S
C1349 C1350 1.369 . S
C1349 C1351 1.419 . S
C1349 H1353 0.930 . S
C1350 C1349 1.369 . S
C1350 C1359 1.429 . S
C1351 C1349 1.419 . S
C1351 C1352 1.363 . S
C1351 H1354 0.929 . S
C1352 C1351 1.363 . S
C1352 C1358 1.428 . S
H1353 C1349 0.930 . S
H1354 C1351 0.929 . S
S1355 N1356 1.613 . S
S1355 N1357 1.610 . S
N1356 S1355 1.613 . S
N1356 C1359 1.350 . S
N1357 S1355 1.610 . S
N1357 C1358 1.351 . S
C1358 C1352 1.428 . S
C1358 N1357 1.351 . S
C1358 C1359 1.434 . S
C1359 C1350 1.429 . S
C1359 N1356 1.350 . S
C1359 C1358 1.434 . S
C1360 C1361 1.369 . S
C1360 C1362 1.419 . S
C1360 H1364 0.930 . S
C1361 C1360 1.369 . S
C1361 C1370 1.429 . S
C1362 C1360 1.419 . S
C1362 C1363 1.363 . S
C1362 H1365 0.929 . S
C1363 C1362 1.363 . S
C1363 C1369 1.428 . S
H1364 C1360 0.930 . S
H1365 C1362 0.929 . S
S1366 N1367 1.613 . S
S1366 N1368 1.610 . S
N1367 S1366 1.613 . S
N1367 C1370 1.350 . S
N1368 S1366 1.610 . S
N1368 C1369 1.351 . S
C1369 C1363 1.428 . S
C1369 N1368 1.351 . S
C1369 C1370 1.434 . S
C1370 C1361 1.429 . S
C1370 N1367 1.350 . S
C1370 C1369 1.434 . S
C1371 C1372 1.369 . S
C1371 C1373 1.419 . S
C1371 H1375 0.930 . S
C1372 C1371 1.369 . S
C1372 C1381 1.429 . S
C1373 C1371 1.419 . S
C1373 C1374 1.363 . S
C1373 H1376 0.929 . S
C1374 C1373 1.363 . S
C1374 C1380 1.428 . S
H1375 C1371 0.930 . S
H1376 C1373 0.929 . S
S1377 N1378 1.613 . S
S1377 N1379 1.610 . S
N1378 S1377 1.613 . S
N1378 C1381 1.350 . S
N1379 S1377 1.610 . S
N1379 C1380 1.351 . S
C1380 C1374 1.428 . S
C1380 N1379 1.351 . S
C1380 C1381 1.434 . S
C1381 C1372 1.429 . S
C1381 N1378 1.350 . S
C1381 C1380 1.434 . S
C1382 C1383 1.369 . S
C1382 C1384 1.419 . S
C1382 H1386 0.930 . S
C1383 C1382 1.369 . S
C1383 C1392 1.429 . S
C1384 C1382 1.419 . S
C1384 C1385 1.363 . S
C1384 H1387 0.929 . S
C1385 C1384 1.363 . S
C1385 C1391 1.428 . S
H1386 C1382 0.930 . S
H1387 C1384 0.929 . S
S1388 N1389 1.613 . S
S1388 N1390 1.610 . S
N1389 S1388 1.613 . S
N1389 C1392 1.350 . S
N1390 S1388 1.610 . S
N1390 C1391 1.351 . S
C1391 C1385 1.428 . S
C1391 N1390 1.351 . S
C1391 C1392 1.434 . S
C1392 C1383 1.429 . S
C1392 N1389 1.350 . S
C1392 C1391 1.434 . S
C1393 C1394 1.369 . S
C1393 C1395 1.419 1_655 S
C1393 H1397 0.930 . S
C1394 C1393 1.369 . S
C1394 C1403 1.429 . S
C1395 C1393 1.419 1_455 S
C1395 C1396 1.363 . S
C1395 H1398 0.929 . S
C1396 C1395 1.363 . S
C1396 C1402 1.428 . S
H1397 C1393 0.930 . S
H1398 C1395 0.929 . S
S1399 N1400 1.613 . S
S1399 N1401 1.610 1_655 S
N1400 S1399 1.613 . S
N1400 C1403 1.350 . S
N1401 S1399 1.610 1_455 S
N1401 C1402 1.351 . S
C1402 C1396 1.428 . S
C1402 N1401 1.351 . S
C1402 C1403 1.434 1_455 S
C1403 C1394 1.429 . S
C1403 N1400 1.350 . S
C1403 C1402 1.434 1_655 S
C1009 C56 1.691 . S
C1011 C979 1.728 . S
C1020 C811 1.762 . S
C1022 C140 1.731 . S
C1031 C223 1.731 . S
C1033 C728 1.700 . S
C1042 C308 1.726 . S
C1044 C895 1.764 . S
C1053 C392 1.727 . S
C1055 C896 1.725 . S
C1064 C475 1.748 . S
C1066 C980 1.719 . S
C1075 C812 1.738 . S
C1077 C560 1.736 . S
C1086 C643 1.719 . S
C1088 C727 1.717 . S
C1097 C307 1.723 . S
C1099 C391 1.727 . S
C1108 C55 1.758 . S
C1110 C476 1.725 . S
C1119 C139 1.724 . S
C1121 C559 1.728 . S
C1130 C644 1.749 . S
C1132 C224 1.754 . S
C1141 C70 1.423 . S
C1143 C740 1.733 . S
C1152 C154 1.450 . S
C1154 C907 1.709 . S
C1163 C991 1.737 . S
C1165 C226 1.787 . S
C1174 C322 1.406 . S
C1176 C823 1.681 . S
C1185 C406 1.423 . S
C1187 C824 1.730 . S
C1196 C739 1.721 . S
C1198 C478 1.775 . S
C1207 C908 1.721 . S
C1209 C574 1.422 . S
C1218 C992 1.788 . S
C1220 C646 1.807 . S
C1229 C67 1.719 . S
C1231 C310 1.769 . S
C1240 C58 1.712 . S
C1242 C151 1.680 . S
C1251 C142 1.761 . S
C1253 C236 1.750 . S
C1262 C319 1.670 . S
C1264 C238 1.411 . S
C1273 C490 1.459 . S
C1275 C403 1.716 . S
C1284 C488 1.754 . S
C1286 C562 1.759 . S
C1295 C571 1.723 . S
C1297 C658 1.443 . S
C1306 C394 1.761 . S
C1308 C656 1.760 . S
C1317 C730 1.725 . S
C1319 C320 1.715 . S
C1328 C487 1.697 . S
C1330 C814 1.744 . S
C1339 C742 1.408 . S
C1341 C572 1.706 . S
C1350 C898 1.759 . S
C1352 C655 1.720 . S
C1361 C404 1.752 . S
C1363 C982 1.768 . S
C1372 C994 1.420 . S
C1374 C152 1.729 . S
C1383 C235 1.704 . S
C1385 C826 1.446 . S
C1394 C910 1.447 . S
C1396 C68 1.738 . S
