# Generated by pormake.
# Topology bcg, (8)-cn, num edge types: 1
# Building blocks:
#     Node 0, Type 0, BuildingBlock: LIZSOE_clean_sbu_0, # of connection points: 8
#     Node 1, Type 0, BuildingBlock: LIZSOE_clean_sbu_0, # of connection points: 8
#     Node 2, Type 0, BuildingBlock: LIZSOE_clean_sbu_0, # of connection points: 8
#     Node 3, Type 0, BuildingBlock: LIZSOE_clean_sbu_0, # of connection points: 8
#     Edge 4, Type (0, 0), BuildingBlock: UVAHIK_clean_linker_0, # of connection points: 2
#     Edge 5, Type (0, 0), BuildingBlock: UVAHIK_clean_linker_0, # of connection points: 2
#     Edge 6, Type (0, 0), BuildingBlock: UVAHIK_clean_linker_0, # of connection points: 2
#     Edge 7, Type (0, 0), BuildingBlock: UVAHIK_clean_linker_0, # of connection points: 2
#     Edge 8, Type (0, 0), BuildingBlock: UVAHIK_clean_linker_0, # of connection points: 2
#     Edge 9, Type (0, 0), BuildingBlock: UVAHIK_clean_linker_0, # of connection points: 2
#     Edge 10, Type (0, 0), BuildingBlock: UVAHIK_clean_linker_0, # of connection points: 2
#     Edge 11, Type (0, 0), BuildingBlock: UVAHIK_clean_linker_0, # of connection points: 2
#     Edge 12, Type (0, 0), BuildingBlock: UVAHIK_clean_linker_0, # of connection points: 2
#     Edge 13, Type (0, 0), BuildingBlock: UVAHIK_clean_linker_0, # of connection points: 2
#     Edge 14, Type (0, 0), BuildingBlock: UVAHIK_clean_linker_0, # of connection points: 2
#     Edge 15, Type (0, 0), BuildingBlock: UVAHIK_clean_linker_0, # of connection points: 2
#     Edge 16, Type (0, 0), BuildingBlock: UVAHIK_clean_linker_0, # of connection points: 2
#     Edge 17, Type (0, 0), BuildingBlock: UVAHIK_clean_linker_0, # of connection points: 2
#     Edge 18, Type (0, 0), BuildingBlock: UVAHIK_clean_linker_0, # of connection points: 2
#     Edge 19, Type (0, 0), BuildingBlock: UVAHIK_clean_linker_0, # of connection points: 2
# Relax obj value: 0.199
# Max RMSD: 0.292
# Mean RMSD: 0.292
data_MOF--net-bcg--node1-LIZSOE_clean_sbu_0--edge1-UVAHIK_clean_linker_0
_symmetry_space_group_name_H-M    P1
_symmetry_Int_Tables_number       1
_symmetry_cell_setting            triclinic
loop_
_symmetry_equiv_pos_as_xyz
'x, y, z'
_cell_length_a     26.042747
_cell_length_b     30.164703
_cell_length_c     28.652255
_cell_angle_alpha  90.212563
_cell_angle_beta   91.271082
_cell_angle_gamma 90.039538
loop_
_atom_site_label
_atom_site_type_symbol
_atom_site_fract_x
_atom_site_fract_y
_atom_site_fract_z
_atom_type_partial_charge
Co0 Co 0.14893 0.28344 0.99391 0.0
N1 N 0.07711 0.2823 0.99604 0.0
C2 C 0.04888 0.30725 0.02515 0.0
N3 N 0.99368 0.26817 0.98296 0.0
C4 C 0.04204 0.25881 0.97045 0.0
C5 C 0.99764 0.2982 0.01757 0.0
Co6 Co 0.37161 0.23068 0.07668 0.0
N7 N 0.4429 0.22511 0.0723 0.0
N8 N 0.52248 0.20854 0.05017 0.0
C9 C 0.52569 0.24123 0.08211 0.0
C10 C 0.4768 0.25119 0.09581 0.0
C11 C 0.47215 0.19865 0.04525 0.0
Co12 Co 0.26075 0.26021 0.0357 0.0
C13 C 0.34053 0.20149 0.09684 0.0
H14 H 0.46647 0.27672 0.12049 0.0
O15 O 0.21482 0.28869 0.98696 0.0
O16 O 0.29735 0.23801 0.9793 0.0
O17 O 0.21686 0.20423 0.03304 0.0
O18 O 0.22296 0.28324 0.09092 0.0
O19 O 0.14689 0.27257 0.05902 0.0
O20 O 0.37325 0.23839 1.01236 0.0
O21 O 0.30616 0.2323 0.08506 0.0
O22 O 0.37636 0.29295 0.08174 0.0
O23 O 0.15147 0.22231 0.98418 0.0
O24 O 0.15466 0.34149 1.0079 0.0
O25 O 0.30669 0.31509 0.03881 0.0
O26 O 0.35817 0.17255 0.0675 0.0
C27 C 0.17834 0.1937 1.0063 0.0
C28 C 0.45213 0.15963 0.0174 0.0
H29 H 0.41883 0.16888 0.99506 0.0
H30 H 0.48186 0.14475 0.99517 0.0
H31 H 0.43952 0.13361 0.04189 0.0
C32 C 0.34553 0.23793 0.97623 0.0
C33 C 0.17507 0.27812 0.09474 0.0
H34 H 0.06468 0.32998 0.051 0.0
H35 H 0.02456 0.2205 0.90805 0.0
H36 H 0.05663 0.19092 0.95413 0.0
H37 H 0.09178 0.22929 0.91921 0.0
C38 C 0.05471 0.22322 0.93576 0.0
C39 C 0.17732 0.31733 0.97674 0.0
C40 C 0.34929 0.32307 0.06152 0.0
H41 H 0.96577 0.31182 0.03656 0.0
H42 H 0.56075 0.25785 0.09326 0.0
Co43 Co 0.62767 0.78322 1.0126 0.0
N44 N 0.5606 0.77287 0.0306 0.0
C45 C 0.53397 0.798 0.06075 0.0
N46 N 0.47954 0.74786 0.03329 0.0
C47 C 0.52628 0.74211 0.01468 0.0
C48 C 0.48425 0.78256 0.06264 0.0
Co49 Co 0.86869 0.73778 0.01808 0.0
N50 N 0.92564 0.72139 0.98355 0.0
N51 N 0.99157 0.68483 0.95184 0.0
C52 C 0.99537 0.72793 0.94074 0.0
C53 C 0.95515 0.75018 0.96009 0.0
C54 C 0.9489 0.68152 0.97754 0.0
Co55 Co 0.75352 0.76908 0.01989 0.0
C56 C 0.83554 0.71537 0.07579 0.0
H57 H 0.94974 0.78565 0.95902 0.0
O58 O 0.68889 0.79268 0.9892 0.0
O59 O 0.77482 0.7539 0.95441 0.0
O60 O 0.72463 0.70804 0.02792 0.0
O61 O 0.72953 0.78711 0.08424 0.0
O62 O 0.64589 0.80226 0.0719 0.0
O63 O 0.82792 0.70339 0.9762 0.0
O64 O 0.81876 0.74997 0.0528 0.0
O65 O 0.86115 0.79374 0.98404 0.0
O66 O 0.64233 0.72509 0.03038 0.0
O67 O 0.61689 0.76587 0.95515 0.0
O68 O 0.78945 0.82657 1.01095 0.0
O69 O 0.86972 0.69084 0.05571 0.0
C70 C 0.67827 0.69737 0.0345 0.0
C71 C 0.93021 0.63834 0.99683 0.0
H72 H 0.88792 0.63562 0.99267 0.0
H73 H 0.94798 0.60984 0.97868 0.0
H74 H 0.94084 0.63634 0.03448 0.0
C75 C 0.80445 0.72264 0.94351 0.0
C76 C 0.68591 0.80139 0.098 0.0
H77 H 0.54923 0.82672 0.07904 0.0
H78 H 0.53152 0.71891 0.94396 0.0
H79 H 0.51186 0.67709 0.98447 0.0
H80 H 0.57739 0.69374 0.98262 0.0
C81 C 0.53767 0.70595 0.97983 0.0
C82 C 0.66389 0.7793 0.95136 0.0
C83 C 0.83349 0.82845 0.9913 0.0
H84 H 0.4533 0.79701 0.0822 0.0
H85 H 0.02753 0.74289 0.92335 0.0
Co86 Co 0.36944 0.79962 0.5671 0.0
N87 N 0.44027 0.79422 0.56496 0.0
C88 C 0.4706 0.81469 0.53402 0.0
N89 N 0.52245 0.77829 0.58179 0.0
C90 C 0.47325 0.77245 0.59397 0.0
C91 C 0.52112 0.80499 0.54435 0.0
Co92 Co 0.14595 0.75712 0.4855 0.0
N93 N 0.07444 0.75565 0.49011 0.0
N94 N 0.99348 0.74475 0.51217 0.0
C95 C 0.99311 0.77613 0.47901 0.0
C96 C 0.04273 0.78227 0.46503 0.0
C97 C 0.04296 0.73257 0.51839 0.0
Co98 Co 0.25782 0.78162 0.52621 0.0
C99 C 0.17552 0.72444 0.4671 0.0
H100 H 0.05513 0.80567 0.43908 0.0
O101 O 0.30467 0.80982 0.57397 0.0
O102 O 0.21979 0.76144 0.58236 0.0
O103 O 0.29873 0.72378 0.53054 0.0
O104 O 0.29728 0.80238 0.4713 0.0
O105 O 0.37021 0.78257 0.50363 0.0
O106 O 0.14475 0.7693 0.54918 0.0
O107 O 0.21149 0.75438 0.47732 0.0
O108 O 0.14586 0.81919 0.4767 0.0
O109 O 0.36209 0.73981 0.58243 0.0
O110 O 0.3679 0.85605 0.54702 0.0
O111 O 0.21519 0.83841 0.52167 0.0
O112 O 0.15491 0.69892 0.49801 0.0
C113 C 0.33515 0.71177 0.55907 0.0
C114 C 0.0599 0.69815 0.55351 0.0
H115 H 0.10059 0.70061 0.56424 0.0
H116 H 0.03669 0.70054 0.58543 0.0
H117 H 0.05347 0.66478 0.53804 0.0
C118 C 0.17211 0.76691 0.58545 0.0
C119 C 0.34376 0.79138 0.46765 0.0
H120 H 0.45681 0.83559 0.50583 0.0
H121 H 0.48658 0.75179 0.66494 0.0
H122 H 0.45744 0.71106 0.62745 0.0
H123 H 0.41964 0.75659 0.6482 0.0
C124 C 0.45794 0.74685 0.63618 0.0
C125 C 0.33826 0.84261 0.57997 0.0
C126 C 0.17439 0.8483 0.49721 0.0
H127 H 0.55433 0.81626 0.52565 0.0
H128 H 0.95944 0.79394 0.46659 0.0
Co129 Co 0.64401 0.22699 0.52487 0.0
N130 N 0.58031 0.21074 0.54522 0.0
C131 C 0.56081 0.21215 0.58843 0.0
N132 N 0.49446 0.2076 0.5392 0.0
C133 C 0.5392 0.20725 0.51612 0.0
C134 C 0.50806 0.20991 0.58479 0.0
Co135 Co 0.85999 0.33143 0.52234 0.0
N136 N 0.9165 0.34778 0.48791 0.0
N137 N 0.9917 0.35278 0.45164 0.0
C138 C 0.96579 0.39065 0.44422 0.0
C139 C 0.91958 0.38739 0.46633 0.0
C140 C 0.96178 0.32763 0.47897 0.0
Co141 Co 0.75448 0.27628 0.5314 0.0
C142 C 0.85018 0.30777 0.58656 0.0
H143 H 0.89025 0.41272 0.46734 0.0
O144 O 0.69995 0.23879 0.50254 0.0
O145 O 0.8051 0.22739 0.53117 0.0
O146 O 0.73464 0.26281 0.59765 0.0
O147 O 0.70292 0.32632 0.53153 0.0
O148 O 0.631 0.2865 0.5422 0.0
O149 O 0.86757 0.26868 0.50043 0.0
O150 O 0.80967 0.31609 0.55942 0.0
O151 O 0.81679 0.34834 0.47252 0.0
O152 O 0.67215 0.2141 0.58409 0.0
O153 O 0.66267 0.1727 0.50429 0.0
O154 O 0.77338 0.28722 0.464 0.0
O155 O 0.89559 0.31749 0.57194 0.0
C156 C 0.70286 0.23391 0.61199 0.0
C157 C 0.97999 0.28487 0.5006 0.0
H158 H 0.95616 0.27354 0.52955 0.0
H159 H 0.98061 0.25886 0.47323 0.0
H160 H 0.02001 0.28874 0.51416 0.0
C161 C 0.84856 0.23085 0.51151 0.0
C162 C 0.65461 0.32366 0.54009 0.0
H163 H 0.5827 0.21884 0.62013 0.0
H164 H 0.55509 0.23846 0.45113 0.0
H165 H 0.50758 0.1945 0.44661 0.0
H166 H 0.5745 0.1816 0.45514 0.0
C167 C 0.54388 0.20532 0.46414 0.0
C168 C 0.69257 0.20029 0.48263 0.0
C169 C 0.79722 0.31945 0.44596 0.0
H170 H 0.48167 0.2142 0.61313 0.0
H171 H 0.98 0.41902 0.4254 0.0
C172 C 0.56202 0.19884 0.9738 0.0
C173 C 0.56379 0.19308 0.02243 0.0
C174 C 0.60483 0.18872 0.94731 0.0
C175 C 0.73518 0.13871 0.954 0.0
H176 H 0.77763 0.25032 0.9004 0.0
C177 C 0.92333 0.21737 0.99863 0.0
C178 C 0.94784 0.24587 0.96795 0.0
C179 C 0.87803 0.19615 0.98482 0.0
C180 C 0.76637 0.21823 0.91359 0.0
H181 H 0.60949 0.17109 0.08158 0.0
H182 H 0.68482 0.15357 0.03573 0.0
H183 H 0.68727 0.23665 0.91284 0.0
H184 H 0.94671 0.27402 0.8987 0.0
H185 H 0.86602 0.23733 0.87422 0.0
H186 H 0.81493 0.12197 0.9583 0.0
C187 C 0.65031 0.1649 0.01766 0.0
C188 C 0.7144 0.21037 0.92076 0.0
C189 C 0.60772 0.17538 0.04406 0.0
C190 C 0.92763 0.25214 0.92271 0.0
C191 C 0.88197 0.23107 0.9088 0.0
C192 C 0.78714 0.14647 0.9466 0.0
C193 C 0.64982 0.17268 0.96923 0.0
C194 C 0.69897 0.17212 0.94453 0.0
C195 C 0.85631 0.20338 0.94006 0.0
C196 C 0.80336 0.18783 0.92996 0.0
H197 H 0.5283 0.21298 0.95679 0.0
H198 H 0.60364 0.19528 0.91016 0.0
H199 H 0.72397 0.1085 0.9714 0.0
H200 H 0.939 0.21219 0.03351 0.0
H201 H 0.85868 0.17591 1.01016 0.0
C202 C 0.05885 0.64581 0.90962 0.0
C203 C 0.03428 0.65499 0.95152 0.0
C204 C 0.10953 0.63084 0.9104 0.0
C205 C 0.22265 0.60907 0.99012 0.0
H206 H 0.27976 0.7063 0.92004 0.0
C207 C 0.40085 0.70731 0.05302 0.0
C208 C 0.43274 0.72585 0.01955 0.0
C209 C 0.35637 0.6844 0.039 0.0
C210 C 0.26535 0.67814 0.93908 0.0
H211 H 0.04 0.65059 0.02673 0.0
H212 H 0.12848 0.62539 0.02852 0.0
H213 H 0.19378 0.6817 0.90233 0.0
H214 H 0.44262 0.73705 0.94575 0.0
H215 H 0.36736 0.69501 0.92097 0.0
H216 H 0.29428 0.60729 0.02834 0.0
C217 C 0.10908 0.62885 0.9949 0.0
C218 C 0.21572 0.66377 0.92867 0.0
C219 C 0.05832 0.64342 0.994 0.0
C220 C 0.41932 0.72183 0.97208 0.0
C221 C 0.3758 0.69823 0.958 0.0
C222 C 0.27281 0.62328 1.00033 0.0
C223 C 0.13636 0.62588 0.95323 0.0
C224 C 0.19296 0.63041 0.95535 0.0
C225 C 0.34336 0.67965 0.99123 0.0
C226 C 0.29389 0.6592 0.97608 0.0
H227 H 0.04039 0.65372 0.87656 0.0
H228 H 0.12931 0.62776 0.87768 0.0
H229 H 0.20615 0.58308 1.01105 0.0
H230 H 0.41058 0.71041 0.08982 0.0
H231 H 0.33164 0.67142 0.06559 0.0
C232 C 0.60806 0.78713 0.61739 0.0
C233 C 0.56749 0.75952 0.60321 0.0
C234 C 0.65434 0.76885 0.63306 0.0
C235 C 0.75064 0.72387 0.66693 0.0
H236 H 0.79232 0.6546 0.56008 0.0
C237 C 0.92496 0.7645 0.56532 0.0
C238 C 0.95105 0.73216 0.54007 0.0
C239 C 0.88385 0.75264 0.59287 0.0
C240 C 0.78171 0.6726 0.59118 0.0
H241 H 0.54145 0.69166 0.59615 0.0
H242 H 0.62304 0.65923 0.62315 0.0
H243 H 0.70223 0.6604 0.57747 0.0
H244 H 0.95665 0.66225 0.52425 0.0
H245 H 0.88372 0.64107 0.57222 0.0
H246 H 0.83017 0.73921 0.67786 0.0
C247 C 0.61895 0.69496 0.62277 0.0
C248 C 0.72978 0.6759 0.60125 0.0
C249 C 0.57247 0.71339 0.60738 0.0
C250 C 0.93657 0.68754 0.54356 0.0
C251 C 0.89522 0.67555 0.57103 0.0
C252 C 0.80266 0.7205 0.65689 0.0
C253 C 0.66093 0.72254 0.63415 0.0
C254 C 0.71363 0.70448 0.63686 0.0
C255 C 0.86788 0.70813 0.59536 0.0
C256 C 0.81811 0.69774 0.61668 0.0
H257 H 0.60442 0.82279 0.61457 0.0
H258 H 0.68614 0.79106 0.64078 0.0
H259 H 0.73915 0.74527 0.6953 0.0
H260 H 0.93631 0.79898 0.56334 0.0
H261 H 0.86302 0.77872 0.61033 0.0
C262 C 0.08249 0.37068 0.46372 0.0
C263 C 0.04447 0.34465 0.44179 0.0
C264 C 0.13326 0.35608 0.46544 0.0
C265 C 0.21276 0.2903 0.50219 0.0
H266 H 0.30145 0.25158 0.40303 0.0
C267 C 0.40092 0.19567 0.53915 0.0
C268 C 0.44391 0.21666 0.52053 0.0
C269 C 0.35144 0.20769 0.52417 0.0
C270 C 0.27675 0.26205 0.43092 0.0
H271 H 0.02918 0.28563 0.40083 0.0
H272 H 0.11885 0.26032 0.40268 0.0
H273 H 0.21722 0.28427 0.38342 0.0
H274 H 0.46889 0.268 0.47331 0.0
H275 H 0.38281 0.28747 0.44564 0.0
H276 H 0.2716 0.26795 0.54974 0.0
C277 C 0.10935 0.29168 0.41886 0.0
C278 C 0.22892 0.28071 0.41974 0.0
C279 C 0.05838 0.30605 0.41773 0.0
C280 C 0.43662 0.2497 0.48656 0.0
C281 C 0.38738 0.26113 0.471 0.0
C282 C 0.25996 0.27097 0.51335 0.0
C283 C 0.14658 0.31558 0.44465 0.0
C284 C 0.19704 0.29561 0.45537 0.0
C285 C 0.34439 0.24072 0.49016 0.0
C286 C 0.29256 0.25714 0.47785 0.0
H287 H 0.07211 0.40032 0.48274 0.0
H288 H 0.16159 0.37512 0.48522 0.0
H289 H 0.18833 0.30097 0.53023 0.0
H290 H 0.40575 0.17064 0.56587 0.0
H291 H 0.31867 0.19174 0.53962 0.0
C292 C 0.64304 0.63864 0.08447 0.0
C293 C 0.66275 0.65114 0.04137 0.0
C294 C 0.61143 0.60131 0.08775 0.0
C295 C 0.55769 0.50421 0.01987 0.0
H296 H 0.44521 0.51854 0.10516 0.0
C297 C 0.37832 0.3897 0.01769 0.0
C298 C 0.37265 0.36758 0.06031 0.0
C299 C 0.4114 0.42626 0.01487 0.0
C300 C 0.47638 0.51422 0.08114 0.0
H301 H 0.66616 0.63448 0.96812 0.0
H302 H 0.6103 0.56997 0.97316 0.0
H303 H 0.51188 0.57509 0.10217 0.0
H304 H 0.39459 0.36738 0.13365 0.0
H305 H 0.45016 0.43256 0.12918 0.0
H306 H 0.52051 0.44386 0.99794 0.0
C307 C 0.62027 0.58766 1.00502 0.0
C308 C 0.51512 0.5463 0.07978 0.0
C309 C 0.65274 0.62449 1.00204 0.0
C310 C 0.3979 0.38424 0.10051 0.0
C311 C 0.4298 0.42136 0.09793 0.0
C312 C 0.51833 0.47258 0.02063 0.0
C313 C 0.59755 0.57649 0.04762 0.0
C314 C 0.55673 0.5416 0.04946 0.0
C315 C 0.43817 0.44182 0.05485 0.0
C316 C 0.47754 0.47714 0.05151 0.0
H317 H 0.64936 0.65938 0.11503 0.0
H318 H 0.59606 0.59319 0.12145 0.0
H319 H 0.58919 0.49891 0.99649 0.0
H320 H 0.35995 0.37701 0.98609 0.0
H321 H 0.41717 0.44163 0.98128 0.0
C322 C 0.64301 0.40711 0.53831 0.0
C323 C 0.6227 0.36437 0.5446 0.0
C324 C 0.61086 0.44451 0.5395 0.0
C325 C 0.53623 0.51807 0.57035 0.0
H326 H 0.40239 0.50884 0.50864 0.0
C327 C 0.37983 0.64903 0.59888 0.0
C328 C 0.35475 0.66573 0.55875 0.0
C329 C 0.41017 0.61096 0.5965 0.0
C330 C 0.43967 0.51204 0.52583 0.0
H331 H 0.55246 0.32797 0.5584 0.0
H332 H 0.49747 0.39249 0.56051 0.0
H333 H 0.46257 0.44693 0.50478 0.0
H334 H 0.33898 0.65395 0.48521 0.0
H335 H 0.39118 0.58651 0.48117 0.0
H336 H 0.51335 0.58325 0.59131 0.0
C337 C 0.5379 0.39725 0.55393 0.0
C338 C 0.47406 0.47646 0.52394 0.0
C339 C 0.56979 0.36016 0.55305 0.0
C340 C 0.35739 0.64158 0.51684 0.0
C341 C 0.38766 0.60318 0.51448 0.0
C342 C 0.50168 0.55354 0.57254 0.0
C343 C 0.55775 0.43985 0.54663 0.0
C344 C 0.52259 0.47886 0.54653 0.0
C345 C 0.41586 0.58838 0.55396 0.0
C346 C 0.45279 0.55081 0.55067 0.0
H347 H 0.68345 0.41164 0.53167 0.0
H348 H 0.62733 0.47695 0.53371 0.0
H349 H 0.57314 0.52095 0.58828 0.0
H350 H 0.37791 0.66668 0.63179 0.0
H351 H 0.43026 0.59983 0.62782 0.0
C352 C 0.13631 0.13137 0.04692 0.0
C353 C 0.15739 0.14848 1.0061 0.0
C354 C 0.10215 0.09552 0.04437 0.0
C355 C 0.05785 1.00075 0.97628 0.0
H356 H 0.92124 0.02958 0.01825 0.0
C357 C 0.8931 0.87663 0.94726 0.0
C358 C 0.85824 0.87174 0.98355 0.0
C359 C 0.92666 0.9128 0.94664 0.0
C360 C 0.95922 0.02053 1.00696 0.0
H361 H 0.16154 0.14085 0.93117 0.0
H362 H 0.10423 0.07641 0.92704 0.0
H363 H 0.99055 0.08352 0.02802 0.0
H364 H 0.8293 0.90183 0.0464 0.0
H365 H 0.8887 0.96407 0.04646 0.0
H366 H 0.02788 0.93732 0.95684 0.0
C367 C 0.1136 0.09094 0.9608 0.0
C368 C 0.99888 0.05156 1.01254 0.0
C369 C 0.14667 0.12743 0.9632 0.0
C370 C 0.85529 0.90514 0.0176 0.0
C371 C 0.88963 0.94086 0.01761 0.0
C372 C 0.01854 0.96933 0.97157 0.0
C373 C 0.08958 0.07576 1.0011 0.0
C374 C 0.04847 0.04193 0.9972 0.0
C375 C 0.92707 0.9444 0.983 0.0
C376 C 0.96848 0.97876 0.98665 0.0
H377 H 0.14307 0.1478 0.08016 0.0
H378 H 0.08409 0.08425 0.0759 0.0
H379 H 0.09584 0.99264 0.96419 0.0
H380 H 0.89596 0.85137 0.92044 0.0
H381 H 0.95351 0.91502 0.91844 0.0
C382 C 0.91283 0.18557 0.4681 0.0
C383 C 0.88077 0.19084 0.50643 0.0
C384 C 0.94691 0.1497 0.46597 0.0
C385 C 0.97819 0.04069 0.52373 0.0
H386 H 0.1076 0.05565 0.4612 0.0
C387 C 0.14983 0.91773 0.53911 0.0
C388 C 0.15463 0.89417 0.49705 0.0
C389 C 0.12072 0.9568 0.54039 0.0
C390 C 0.07166 0.05126 0.47894 0.0
H391 H 0.85871 0.16266 0.57238 0.0
H392 H 0.91931 0.10166 0.57012 0.0
H393 H 0.04648 0.11705 0.4631 0.0
H394 H 0.13512 0.8938 0.42318 0.0
H395 H 0.08647 0.96335 0.4251 0.0
H396 H 1.00488 0.97531 0.54088 0.0
C397 C 0.91746 0.12393 0.54063 0.0
C398 C 0.03618 0.08619 0.4796 0.0
C399 C 0.88266 0.15917 0.54215 0.0
C400 C 0.13245 0.91167 0.45592 0.0
C401 C 0.10459 0.95128 0.457 0.0
C402 C 0.01419 0.00628 0.52399 0.0
C403 C 0.95045 0.11866 0.50264 0.0
C404 C 0.98863 0.0814 0.50179 0.0
C405 C 0.09722 0.97342 0.49945 0.0
C406 C 0.06105 0.0112 0.50144 0.0
H407 H 0.91172 0.20935 0.43986 0.0
H408 H 0.97044 0.1465 0.43549 0.0
H409 H 0.94183 0.03485 0.54019 0.0
H410 H 0.16567 0.90445 0.57142 0.0
H411 H 0.11521 0.97331 0.57355 0.0
C412 C 0.66744 0.16129 0.40798 0.0
C413 C 0.67995 0.20115 0.43136 0.0
C414 C 0.63372 0.16113 0.369 0.0
C415 C 0.55836 0.23466 0.28562 0.0
H416 H 0.45961 0.13865 0.29084 0.0
C417 C 0.36871 0.23617 0.1742 0.0
C418 C 0.36142 0.19787 0.14657 0.0
C419 C 0.40541 0.23672 0.21105 0.0
C420 C 0.48686 0.16567 0.28878 0.0
H421 H 0.67206 0.27274 0.42707 0.0
H422 H 0.6141 0.2724 0.35999 0.0
H423 H 0.53363 0.13922 0.34428 0.0
H424 H 0.3829 0.12871 0.14007 0.0
H425 H 0.44436 0.12913 0.20516 0.0
H426 H 0.51046 0.26142 0.23057 0.0
C427 C 0.62959 0.24099 0.37175 0.0
C428 C 0.52988 0.1658 0.31918 0.0
C429 C 0.66361 0.24118 0.41047 0.0
C430 C 0.38731 0.15888 0.16038 0.0
C431 C 0.42303 0.15918 0.19766 0.0
C432 C 0.51495 0.23474 0.25553 0.0
C433 C 0.61156 0.20082 0.35219 0.0
C434 C 0.56669 0.20012 0.31798 0.0
C435 C 0.43441 0.19858 0.22213 0.0
C436 C 0.47867 0.20014 0.25654 0.0
H437 H 0.67942 0.12984 0.42272 0.0
H438 H 0.62264 0.12951 0.35386 0.0
H439 H 0.58572 0.26151 0.283 0.0
H440 H 0.34954 0.2668 0.16484 0.0
H441 H 0.41248 0.26746 0.22975 0.0
C442 C 0.67746 0.77753 0.17998 0.0
C443 C 0.6769 0.81197 0.14721 0.0
C444 C 0.64654 0.78014 0.21935 0.0
C445 C 0.52288 0.83014 0.24748 0.0
H446 H 0.54701 0.77857 0.36955 0.0
C447 C 0.37023 0.82794 0.39357 0.0
C448 C 0.37075 0.7909 0.42303 0.0
C449 C 0.40755 0.83231 0.35924 0.0
C450 C 0.53943 0.79263 0.33537 0.0
H451 H 0.6484 0.8778 0.132 0.0
H452 H 0.59627 0.88322 0.20141 0.0
H453 H 0.61822 0.78603 0.31623 0.0
H454 H 0.40772 0.72809 0.43791 0.0
H455 H 0.47097 0.73466 0.37713 0.0
H456 H 0.44393 0.83586 0.26611 0.0
C457 C 0.6193 0.85376 0.1964 0.0
C458 C 0.58041 0.79714 0.30498 0.0
C459 C 0.64994 0.85106 0.15715 0.0
C460 C 0.4065 0.75695 0.41547 0.0
C461 C 0.44327 0.76109 0.38116 0.0
C462 C 0.48186 0.82548 0.2778 0.0
C463 C 0.61478 0.81728 0.22636 0.0
C464 C 0.57258 0.81568 0.26054 0.0
C465 C 0.44571 0.79961 0.3539 0.0
C466 C 0.48946 0.80615 0.32192 0.0
H467 H 0.69693 0.74665 0.1725 0.0
H468 H 0.64397 0.75144 0.24177 0.0
H469 H 0.51522 0.84375 0.2131 0.0
H470 H 0.34365 0.85491 0.39938 0.0
H471 H 0.4083 0.86243 0.33883 0.0
C472 C 0.3526 0.82413 0.66585 0.0
C473 C 0.35971 0.85289 0.62804 0.0
C474 C 0.38782 0.82407 0.70393 0.0
C475 C 0.50963 0.88015 0.75077 0.0
H476 H 0.5396 0.76158 0.79452 0.0
C477 C 0.65893 0.8417 0.89821 0.0
C478 C 0.67369 0.79731 0.90473 0.0
C479 C 0.62735 0.85357 0.85996 0.0
C480 C 0.53276 0.79489 0.78195 0.0
H481 H 0.40446 0.9091 0.60481 0.0
H482 H 0.46628 0.90721 0.6681 0.0
H483 H 0.46463 0.77416 0.7453 0.0
H484 H 0.67826 0.73347 0.87072 0.0
H485 H 0.62802 0.75494 0.80175 0.0
H486 H 0.57908 0.90045 0.78606 0.0
C487 C 0.43418 0.88454 0.66949 0.0
C488 C 0.48853 0.80238 0.75435 0.0
C489 C 0.39836 0.88547 0.63254 0.0
C490 C 0.66691 0.76786 0.86698 0.0
C491 C 0.63631 0.77985 0.82815 0.0
C492 C 0.55429 0.87255 0.77789 0.0
C493 C 0.43138 0.85215 0.70453 0.0
C494 C 0.47616 0.84511 0.73795 0.0
C495 C 0.61212 0.82166 0.8263 0.0
C496 C 0.56676 0.82974 0.79394 0.0
H497 H 0.32295 0.79894 0.66413 0.0
H498 H 0.3827 0.79983 0.73118 0.0
H499 H 0.50154 0.91381 0.73998 0.0
H500 H 0.66359 0.86528 0.92663 0.0
H501 H 0.61064 0.88639 0.8599 0.0
C502 C 0.40197 0.27724 0.92212 0.0
C503 C 0.37225 0.23958 0.93144 0.0
C504 C 0.4406 0.27575 0.88904 0.0
C505 C 0.49374 0.20849 0.79191 0.0
H506 H 0.61945 0.27171 0.82456 0.0
C507 C 0.67006 0.19014 0.67825 0.0
C508 C 0.68997 0.23044 0.66196 0.0
C509 C 0.63785 0.18931 0.71663 0.0
C510 C 0.58458 0.25402 0.81487 0.0
H511 H 0.35935 0.17082 0.91336 0.0
H512 H 0.42675 0.16789 0.85509 0.0
H513 H 0.54666 0.27467 0.87682 0.0
H514 H 0.69606 0.30079 0.67625 0.0
H515 H 0.64065 0.29926 0.74415 0.0
H516 H 0.53177 0.18771 0.73008 0.0
C517 C 0.41955 0.19907 0.87258 0.0
C518 C 0.54259 0.25592 0.84466 0.0
C519 C 0.38047 0.20075 0.90558 0.0
C520 C 0.68194 0.26913 0.68831 0.0
C521 C 0.64963 0.26829 0.72694 0.0
C522 C 0.53578 0.20638 0.76232 0.0
C523 C 0.45122 0.23623 0.86488 0.0
C524 C 0.49633 0.2335 0.8334 0.0
C525 C 0.62492 0.22874 0.73983 0.0
C526 C 0.58168 0.22927 0.77326 0.0
H527 H 0.39725 0.30725 0.94249 0.0
H528 H 0.46322 0.30532 0.8835 0.0
H529 H 0.45878 0.19126 0.78163 0.0
H530 H 0.67543 0.15981 0.65856 0.0
H531 H 0.62049 0.15813 0.72633 0.0
C532 C 0.1503 0.75589 0.38804 0.0
C533 C 0.15492 0.71896 0.41766 0.0
C534 C 0.11364 0.75622 0.35123 0.0
C535 C 0.99133 0.69757 0.31657 0.0
H536 H 1.0002 0.76854 0.20469 0.0
C537 C 0.85696 0.68055 0.15248 0.0
C538 C 0.84504 0.71911 0.12697 0.0
C539 C 0.88846 0.68268 0.19279 0.0
C540 C 0.99682 0.74902 0.23612 0.0
H541 H 0.1298 0.65117 0.42738 0.0
H542 H 0.06929 0.65052 0.36178 0.0
H543 H 0.07321 0.76562 0.25939 0.0
H544 H 0.85254 0.79072 0.12696 0.0
H545 H 0.90708 0.79437 0.19728 0.0
H546 H 0.91549 0.67982 0.29215 0.0
C547 C 0.09116 0.68047 0.36857 0.0
C548 C 0.03887 0.74726 0.2676 0.0
C549 C 0.12688 0.68049 0.40577 0.0
C550 C 0.86041 0.76033 0.14584 0.0
C551 C 0.89262 0.7624 0.18572 0.0
C552 C 0.94964 0.69884 0.28477 0.0
C553 C 0.08173 0.71913 0.34238 0.0
C554 C 0.03703 0.72123 0.30824 0.0
C555 C 0.90915 0.7234 0.20825 0.0
C556 C 0.95183 0.7245 0.24406 0.0
H557 H 0.17133 0.78606 0.39592 0.0
H558 H 0.10815 0.78665 0.33188 0.0
H559 H 0.98736 0.67816 0.34799 0.0
H560 H 0.84633 0.64828 0.13859 0.0
H561 H 0.90021 0.65199 0.20936 0.0
C562 C 0.84393 0.35129 0.37875 0.0
C563 C 0.82196 0.31405 0.4 0.0
C564 C 0.8818 0.34633 0.34527 0.0
C565 C 0.94269 0.26788 0.26396 0.0
H566 H 0.06399 0.34022 0.28672 0.0
C567 C 0.12309 0.24152 0.15483 0.0
C568 C 0.14931 0.27942 0.14006 0.0
C569 C 0.08643 0.24436 0.1897 0.0
C570 C 0.03032 0.32008 0.27938 0.0
H571 H 0.81955 0.2422 0.39943 0.0
H572 H 0.88458 0.23353 0.33982 0.0
H573 H 0.98985 0.34855 0.33654 0.0
H574 H 0.15825 0.35002 0.15026 0.0
H575 H 0.09387 0.35549 0.21098 0.0
H576 H 0.98222 0.24019 0.20614 0.0
C577 C 0.87293 0.26668 0.34963 0.0
C578 C 0.98771 0.32487 0.30804 0.0
C579 C 0.83517 0.27165 0.38351 0.0
C580 C 0.13969 0.32008 0.16211 0.0
C581 C 0.10246 0.32312 0.19672 0.0
C582 C 0.98503 0.26345 0.23494 0.0
C583 C 0.89821 0.30396 0.33158 0.0
C584 C 0.94329 0.29888 0.30065 0.0
C585 C 0.07406 0.28549 0.20997 0.0
C586 C 0.02959 0.28946 0.24217 0.0
H587 H 0.8345 0.38442 0.39052 0.0
H588 H 0.8996 0.37577 0.33131 0.0
H589 H 0.90899 0.24764 0.25702 0.0
H590 H 0.12914 0.20994 0.1377 0.0
H591 H 0.06653 0.21442 0.19956 0.0
C592 C 0.16219 0.28927 0.89345 0.0
C593 C 0.15726 0.32314 0.92697 0.0
C594 C 0.12748 0.28645 0.85498 0.0
C595 C 0.02244 0.34727 0.79003 0.0
H596 H 0.96249 0.23059 0.77253 0.0
C597 C 0.84523 0.32802 0.66935 0.0
C598 C 0.84926 0.29407 0.63594 0.0
C599 C 0.87699 0.32816 0.70971 0.0
C600 C 0.97882 0.26342 0.77666 0.0
H601 H 0.11645 0.38412 0.94206 0.0
H602 H 0.05708 0.37917 0.8763 0.0
H603 H 0.03703 0.24021 0.82487 0.0
H604 H 0.88406 0.23046 0.62244 0.0
H605 H 0.93791 0.22975 0.69264 0.0
H606 H 0.96524 0.37056 0.74137 0.0
C607 C 0.08677 0.35419 0.87959 0.0
C608 C 0.02193 0.2689 0.80664 0.0
C609 C 0.12126 0.35706 0.91761 0.0
C610 C 0.87923 0.25679 0.64778 0.0
C611 C 0.91114 0.25688 0.68793 0.0
C612 C 0.97965 0.34179 0.75993 0.0
C613 C 0.08749 0.31766 0.84906 0.0
C614 C 0.0443 0.31099 0.81398 0.0
C615 C 0.91322 0.29408 0.71777 0.0
C616 C 0.95684 0.29982 0.75279 0.0
H617 H 0.18929 0.26254 0.89931 0.0
H618 H 0.13008 0.25837 0.83151 0.0
H619 H 0.03875 0.38012 0.79417 0.0
H620 H 0.82311 0.35752 0.66119 0.0
H621 H 0.8759 0.35672 0.73266 0.0
C622 C 0.14756 0.7322 0.66117 0.0
C623 C 0.14489 0.7679 0.63 0.0
C624 C 0.10994 0.72714 0.69518 0.0
C625 C 0.97482 0.76088 0.71666 0.0
H626 H 1.00122 0.71304 0.8399 0.0
C627 C 0.82883 0.75986 0.86873 0.0
C628 C 0.8288 0.72189 0.89713 0.0
C629 C 0.86395 0.76374 0.83252 0.0
C630 C 0.99323 0.72575 0.80533 0.0
H631 H 0.10308 0.82748 0.61131 0.0
H632 H 0.03932 0.81995 0.67152 0.0
H633 H 0.0727 0.72448 0.7877 0.0
H634 H 0.86192 0.65656 0.90665 0.0
H635 H 0.92309 0.66346 0.84396 0.0
H636 H 0.89542 0.76308 0.73519 0.0
C637 C 0.06911 0.79506 0.66926 0.0
C638 C 0.0342 0.73245 0.77538 0.0
C639 C 0.10624 0.79986 0.63531 0.0
C640 C 0.86133 0.68643 0.88578 0.0
C641 C 0.89669 0.6905 0.85009 0.0
C642 C 0.93392 0.75445 0.74687 0.0
C643 C 0.0692 0.75779 0.69853 0.0
C644 C 0.02563 0.75023 0.73063 0.0
C645 C 0.89975 0.72983 0.82423 0.0
C646 C 0.94265 0.73653 0.79146 0.0
H647 H 0.17618 0.70654 0.65696 0.0
H648 H 0.11116 0.69791 0.71699 0.0
H649 H 0.96644 0.77381 0.68211 0.0
H650 H 0.80451 0.78791 0.87662 0.0
H651 H 0.86531 0.79442 0.81308 0.0
loop_
_geom_bond_atom_site_label_1
_geom_bond_atom_site_label_2
_geom_bond_distance
_geom_bond_site_symmetry_2
_ccdc_geom_bond_type
Co0 N1 2.034 . S
Co0 O15 2.262 1_554 S
Co0 O19 1.958 . S
Co0 O23 1.950 . S
Co0 O24 2.057 1_554 S
N1 Co0 2.034 . S
N1 C2 1.366 . S
N1 C4 1.332 1_554 S
C2 N1 1.366 . S
C2 C5 1.377 1_455 S
C2 H34 0.931 . S
N3 C4 1.346 1_654 S
N3 C5 1.337 . S
C4 N1 1.332 1_556 S
C4 N3 1.346 1_456 S
C4 C38 1.361 . S
C5 C2 1.377 1_655 S
C5 N3 1.337 . S
C5 H41 0.930 . S
Co6 N7 2.034 1_554 S
Co6 O20 1.950 1_554 S
Co6 O21 2.262 . S
Co6 O22 1.958 . S
Co6 O26 2.057 . S
N7 Co6 2.034 1_556 S
N7 C10 1.367 1_556 S
N7 C11 1.332 . S
N8 C9 1.338 . S
N8 C11 1.346 . S
C9 N8 1.338 . S
C9 C10 1.378 1_556 S
C9 H42 0.929 . S
C10 N7 1.367 1_554 S
C10 C9 1.378 1_554 S
C10 H14 0.931 . S
C11 N7 1.332 . S
C11 N8 1.346 . S
C11 C28 1.361 . S
Co12 O15 2.097 1_554 S
Co12 O16 2.065 1_554 S
Co12 O17 2.065 . S
Co12 O18 2.042 . S
Co12 O21 2.097 . S
Co12 O25 2.041 1_554 S
C13 O21 1.253 . S
C13 O26 1.263 . S
H14 C10 0.931 . S
O15 Co0 2.262 1_556 S
O15 Co12 2.097 1_556 S
O15 C39 1.253 . S
O16 Co12 2.065 1_556 S
O16 C32 1.221 . S
O17 Co12 2.065 . S
O17 C27 1.221 . S
O18 Co12 2.042 . S
O18 C33 1.237 . S
O19 Co0 1.958 . S
O19 C33 1.278 . S
O20 Co6 1.950 1_556 S
O20 C32 1.277 . S
O21 Co6 2.262 . S
O21 Co12 2.097 . S
O21 C13 1.253 . S
O22 Co6 1.958 . S
O22 C40 1.278 . S
O23 Co0 1.950 . S
O23 C27 1.277 . S
O24 Co0 2.057 1_556 S
O24 C39 1.263 . S
O25 Co12 2.041 1_556 S
O25 C40 1.235 1_556 S
O26 Co6 2.057 . S
O26 C13 1.263 . S
C27 O17 1.221 . S
C27 O23 1.277 . S
C28 C11 1.361 . S
C28 H29 0.960 . S
C28 H30 0.961 . S
C28 H31 0.961 1_556 S
H29 C28 0.960 . S
H30 C28 0.961 . S
H31 C28 0.961 1_554 S
C32 O16 1.221 . S
C32 O20 1.277 . S
C33 O18 1.237 . S
C33 O19 1.278 . S
H34 C2 0.931 . S
H35 C38 0.961 . S
H36 C38 0.961 . S
H37 C38 0.960 . S
C38 C4 1.361 . S
C38 H35 0.961 . S
C38 H36 0.961 . S
C38 H37 0.960 . S
C39 O15 1.253 . S
C39 O24 1.263 . S
C40 O22 1.278 . S
C40 O25 1.235 1_554 S
H41 C5 0.930 . S
H42 C9 0.929 . S
Co43 N44 2.034 . S
Co43 O58 2.262 1_554 S
Co43 O62 1.958 . S
Co43 O66 1.950 . S
Co43 O67 2.057 1_554 S
N44 Co43 2.034 . S
N44 C45 1.366 . S
N44 C47 1.332 1_554 S
C45 N44 1.366 . S
C45 C48 1.377 . S
C45 H77 0.931 . S
N46 C47 1.346 1_554 S
N46 C48 1.337 . S
C47 N44 1.332 1_556 S
C47 N46 1.346 1_556 S
C47 C81 1.361 . S
C48 C45 1.377 . S
C48 N46 1.337 . S
C48 H84 0.930 . S
Co49 N50 2.034 1_554 S
Co49 O63 1.950 1_554 S
Co49 O64 2.262 . S
Co49 O65 1.958 . S
Co49 O69 2.057 . S
N50 Co49 2.034 1_556 S
N50 C53 1.367 1_556 S
N50 C54 1.332 . S
N51 C52 1.338 . S
N51 C54 1.346 1_455 S
C52 N51 1.338 . S
C52 C53 1.378 1_456 S
C52 H85 0.929 . S
C53 N50 1.367 1_554 S
C53 C52 1.378 1_654 S
C53 H57 0.931 . S
C54 N50 1.332 . S
C54 N51 1.346 1_655 S
C54 C71 1.361 . S
Co55 O58 2.097 1_554 S
Co55 O59 2.065 1_554 S
Co55 O60 2.065 . S
Co55 O61 2.042 . S
Co55 O64 2.097 . S
Co55 O68 2.041 1_554 S
C56 O64 1.253 . S
C56 O69 1.263 . S
H57 C53 0.931 . S
O58 Co43 2.262 1_556 S
O58 Co55 2.097 1_556 S
O58 C82 1.253 . S
O59 Co55 2.065 1_556 S
O59 C75 1.221 . S
O60 Co55 2.065 . S
O60 C70 1.221 . S
O61 Co55 2.042 . S
O61 C76 1.237 . S
O62 Co43 1.958 . S
O62 C76 1.278 . S
O63 Co49 1.950 1_556 S
O63 C75 1.277 . S
O64 Co49 2.262 . S
O64 Co55 2.097 . S
O64 C56 1.253 . S
O65 Co49 1.958 . S
O65 C83 1.278 . S
O66 Co43 1.950 . S
O66 C70 1.277 . S
O67 Co43 2.057 1_556 S
O67 C82 1.263 . S
O68 Co55 2.041 1_556 S
O68 C83 1.235 1_556 S
O69 Co49 2.057 . S
O69 C56 1.263 . S
C70 O60 1.221 . S
C70 O66 1.277 . S
C71 C54 1.361 . S
C71 H72 0.960 . S
C71 H73 0.961 1_655 S
C71 H74 0.961 1_656 S
H72 C71 0.960 . S
H73 C71 0.961 1_455 S
H74 C71 0.961 1_454 S
C75 O59 1.221 . S
C75 O63 1.277 . S
C76 O61 1.237 . S
C76 O62 1.278 . S
H77 C45 0.931 . S
H78 C81 0.961 . S
H79 C81 0.961 . S
H80 C81 0.960 . S
C81 C47 1.361 . S
C81 H78 0.961 . S
C81 H79 0.961 . S
C81 H80 0.960 . S
C82 O58 1.253 . S
C82 O67 1.263 . S
C83 O65 1.278 . S
C83 O68 1.235 1_554 S
H84 C48 0.930 . S
H85 C52 0.929 . S
Co86 N87 2.034 . S
Co86 O101 2.262 . S
Co86 O105 1.958 . S
Co86 O109 1.950 . S
Co86 O110 2.057 . S
N87 Co86 2.034 . S
N87 C88 1.366 . S
N87 C90 1.332 . S
C88 N87 1.366 . S
C88 C91 1.377 . S
C88 H120 0.931 . S
N89 C90 1.346 . S
N89 C91 1.337 . S
C90 N87 1.332 . S
C90 N89 1.346 . S
C90 C124 1.361 . S
C91 C88 1.377 . S
C91 N89 1.337 . S
C91 H127 0.930 . S
Co92 N93 2.034 . S
Co92 O106 1.950 . S
Co92 O107 2.262 . S
Co92 O108 1.958 . S
Co92 O112 2.057 . S
N93 Co92 2.034 . S
N93 C96 1.366 . S
N93 C97 1.332 . S
N94 C95 1.337 . S
N94 C97 1.346 1_655 S
C95 N94 1.337 . S
C95 C96 1.377 1_655 S
C95 H128 0.930 . S
C96 N93 1.366 . S
C96 C95 1.377 1_455 S
C96 H100 0.931 . S
C97 N93 1.332 . S
C97 N94 1.346 1_455 S
C97 C114 1.361 . S
Co98 O101 2.097 . S
Co98 O102 2.065 . S
Co98 O103 2.065 . S
Co98 O104 2.042 . S
Co98 O107 2.097 . S
Co98 O111 2.042 . S
C99 O107 1.253 . S
C99 O112 1.263 . S
H100 C96 0.931 . S
O101 Co86 2.262 . S
O101 Co98 2.097 . S
O101 C125 1.253 . S
O102 Co98 2.065 . S
O102 C118 1.221 . S
O103 Co98 2.065 . S
O103 C113 1.221 . S
O104 Co98 2.042 . S
O104 C119 1.237 . S
O105 Co86 1.958 . S
O105 C119 1.278 . S
O106 Co92 1.950 . S
O106 C118 1.277 . S
O107 Co92 2.262 . S
O107 Co98 2.097 . S
O107 C99 1.253 . S
O108 Co92 1.958 . S
O108 C126 1.278 . S
O109 Co86 1.950 . S
O109 C113 1.277 . S
O110 Co86 2.057 . S
O110 C125 1.263 . S
O111 Co98 2.042 . S
O111 C126 1.237 . S
O112 Co92 2.057 . S
O112 C99 1.263 . S
C113 O103 1.221 . S
C113 O109 1.277 . S
C114 C97 1.361 . S
C114 H115 0.960 . S
C114 H116 0.961 1_455 S
C114 H117 0.961 1_455 S
H115 C114 0.960 . S
H116 C114 0.961 1_655 S
H117 C114 0.961 1_655 S
C118 O102 1.221 . S
C118 O106 1.277 . S
C119 O104 1.237 . S
C119 O105 1.278 . S
H120 C88 0.931 . S
H121 C124 0.961 . S
H122 C124 0.961 . S
H123 C124 0.960 . S
C124 C90 1.361 . S
C124 H121 0.961 . S
C124 H122 0.961 . S
C124 H123 0.960 . S
C125 O101 1.253 . S
C125 O110 1.263 . S
C126 O108 1.278 . S
C126 O111 1.237 . S
H127 C91 0.930 . S
H128 C95 0.930 . S
Co129 N130 2.034 . S
Co129 O144 2.262 . S
Co129 O148 1.958 . S
Co129 O152 1.950 . S
Co129 O153 2.057 . S
N130 Co129 2.034 . S
N130 C131 1.366 . S
N130 C133 1.332 . S
C131 N130 1.366 . S
C131 C134 1.377 . S
C131 H163 0.931 . S
N132 C133 1.346 . S
N132 C134 1.337 . S
C133 N130 1.332 . S
C133 N132 1.346 . S
C133 C167 1.361 . S
C134 C131 1.377 . S
C134 N132 1.337 . S
C134 H170 0.930 . S
Co135 N136 2.034 . S
Co135 O149 1.950 . S
Co135 O150 2.262 . S
Co135 O151 1.958 . S
Co135 O155 2.057 . S
N136 Co135 2.034 . S
N136 C139 1.366 . S
N136 C140 1.332 . S
N137 C138 1.337 . S
N137 C140 1.346 1_455 S
C138 N137 1.337 . S
C138 C139 1.377 1_455 S
C138 H171 0.930 . S
C139 N136 1.366 . S
C139 C138 1.377 1_655 S
C139 H143 0.931 . S
C140 N136 1.332 . S
C140 N137 1.346 1_655 S
C140 C157 1.361 . S
Co141 O144 2.097 . S
Co141 O145 2.065 . S
Co141 O146 2.065 . S
Co141 O147 2.042 . S
Co141 O150 2.097 . S
Co141 O154 2.042 . S
C142 O150 1.253 . S
C142 O155 1.263 . S
H143 C139 0.931 . S
O144 Co129 2.262 . S
O144 Co141 2.097 . S
O144 C168 1.253 . S
O145 Co141 2.065 . S
O145 C161 1.221 . S
O146 Co141 2.065 . S
O146 C156 1.221 . S
O147 Co141 2.042 . S
O147 C162 1.237 . S
O148 Co129 1.958 . S
O148 C162 1.278 . S
O149 Co135 1.950 . S
O149 C161 1.277 . S
O150 Co135 2.262 . S
O150 Co141 2.097 . S
O150 C142 1.253 . S
O151 Co135 1.958 . S
O151 C169 1.278 . S
O152 Co129 1.950 . S
O152 C156 1.277 . S
O153 Co129 2.057 . S
O153 C168 1.263 . S
O154 Co141 2.042 . S
O154 C169 1.237 . S
O155 Co135 2.057 . S
O155 C142 1.263 . S
C156 O146 1.221 . S
C156 O152 1.277 . S
C157 C140 1.361 . S
C157 H158 0.960 . S
C157 H159 0.961 . S
C157 H160 0.961 . S
H158 C157 0.960 . S
H159 C157 0.961 . S
H160 C157 0.961 . S
C161 O145 1.221 . S
C161 O149 1.277 . S
C162 O147 1.237 . S
C162 O148 1.278 . S
H163 C131 0.931 . S
H164 C167 0.961 . S
H165 C167 0.961 . S
H166 C167 0.960 . S
C167 C133 1.361 . S
C167 H164 0.961 . S
C167 H165 0.961 . S
C167 H166 0.960 . S
C168 O144 1.253 . S
C168 O153 1.263 . S
C169 O151 1.278 . S
C169 O154 1.237 . S
H170 C134 0.930 . S
H171 C138 0.930 . S
C172 C173 1.349 1_556 S
C172 C174 1.327 . S
C172 H197 0.950 . S
C173 C172 1.349 1_554 S
C173 C189 1.349 . S
C174 C172 1.327 . S
C174 C193 1.429 1_556 S
C174 H198 0.950 . S
C175 C192 1.574 . S
C175 C194 1.357 1_554 S
C175 H199 0.949 . S
H176 C180 0.949 . S
C177 C178 1.349 1_554 S
C177 C179 1.327 . S
C177 H200 0.950 . S
C178 C177 1.349 1_556 S
C178 C190 1.349 . S
C179 C177 1.327 . S
C179 C195 1.429 1_554 S
C179 H201 0.950 . S
C180 H176 0.949 . S
C180 C188 1.574 . S
C180 C196 1.368 . S
H181 C189 0.950 . S
H182 C187 0.950 . S
H183 C188 0.949 . S
H184 C190 0.950 . S
H185 C191 0.950 . S
H186 C192 0.949 . S
C187 H182 0.950 . S
C187 C189 1.327 . S
C187 C193 1.429 . S
C188 C180 1.574 . S
C188 H183 0.949 . S
C188 C194 1.380 . S
C189 C173 1.349 . S
C189 H181 0.950 . S
C189 C187 1.327 . S
C190 C178 1.349 . S
C190 H184 0.950 . S
C190 C191 1.327 . S
C191 H185 0.950 . S
C191 C190 1.327 . S
C191 C195 1.429 . S
C192 C175 1.574 . S
C192 H186 0.949 . S
C192 C196 1.368 1_554 S
C193 C174 1.429 1_554 S
C193 C187 1.429 . S
C193 C194 1.523 1_554 S
C194 C175 1.357 1_556 S
C194 C188 1.380 . S
C194 C193 1.523 1_556 S
C195 C179 1.429 1_556 S
C195 C191 1.429 . S
C195 C196 1.523 . S
C196 C180 1.368 . S
C196 C192 1.368 1_556 S
C196 C195 1.523 . S
H197 C172 0.950 . S
H198 C174 0.950 . S
H199 C175 0.949 . S
H200 C177 0.950 . S
H201 C179 0.950 . S
C202 C203 1.349 1_556 S
C202 C204 1.327 . S
C202 H227 0.950 . S
C203 C202 1.349 1_554 S
C203 C219 1.349 . S
C204 C202 1.327 . S
C204 C223 1.429 1_556 S
C204 H228 0.950 . S
C205 C222 1.574 . S
C205 C224 1.358 1_554 S
C205 H229 0.949 . S
H206 C210 0.949 . S
C207 C208 1.349 1_554 S
C207 C209 1.327 . S
C207 H230 0.950 . S
C208 C207 1.349 1_556 S
C208 C220 1.349 . S
C209 C207 1.327 . S
C209 C225 1.429 1_554 S
C209 H231 0.950 . S
C210 H206 0.949 . S
C210 C218 1.574 . S
C210 C226 1.368 . S
H211 C219 0.950 . S
H212 C217 0.950 . S
H213 C218 0.949 . S
H214 C220 0.950 . S
H215 C221 0.950 . S
H216 C222 0.949 . S
C217 H212 0.950 . S
C217 C219 1.327 . S
C217 C223 1.429 . S
C218 C210 1.574 . S
C218 H213 0.949 . S
C218 C224 1.379 . S
C219 C203 1.349 . S
C219 H211 0.950 . S
C219 C217 1.327 . S
C220 C208 1.349 . S
C220 H214 0.950 . S
C220 C221 1.327 . S
C221 H215 0.950 . S
C221 C220 1.327 . S
C221 C225 1.429 . S
C222 C205 1.574 . S
C222 H216 0.949 . S
C222 C226 1.368 1_554 S
C223 C204 1.429 1_554 S
C223 C217 1.429 . S
C223 C224 1.523 1_554 S
C224 C205 1.358 1_556 S
C224 C218 1.379 . S
C224 C223 1.523 1_556 S
C225 C209 1.429 1_556 S
C225 C221 1.429 . S
C225 C226 1.523 . S
C226 C210 1.368 . S
C226 C222 1.368 1_556 S
C226 C225 1.523 . S
H227 C202 0.950 . S
H228 C204 0.950 . S
H229 C205 0.949 . S
H230 C207 0.950 . S
H231 C209 0.950 . S
C232 C233 1.349 . S
C232 C234 1.327 . S
C232 H257 0.950 . S
C233 C232 1.349 . S
C233 C249 1.349 . S
C234 C232 1.327 . S
C234 C253 1.429 . S
C234 H258 0.950 . S
C235 C252 1.574 . S
C235 C254 1.368 . S
C235 H259 0.949 . S
H236 C240 0.949 . S
C237 C238 1.349 . S
C237 C239 1.327 . S
C237 H260 0.950 . S
C238 C237 1.349 . S
C238 C250 1.349 . S
C239 C237 1.327 . S
C239 C255 1.429 . S
C239 H261 0.950 . S
C240 H236 0.949 . S
C240 C248 1.574 . S
C240 C256 1.368 . S
H241 C249 0.950 . S
H242 C247 0.950 . S
H243 C248 0.949 . S
H244 C250 0.950 . S
H245 C251 0.950 . S
H246 C252 0.949 . S
C247 H242 0.950 . S
C247 C249 1.327 . S
C247 C253 1.429 . S
C248 C240 1.574 . S
C248 H243 0.949 . S
C248 C254 1.368 . S
C249 C233 1.349 . S
C249 H241 0.950 . S
C249 C247 1.327 . S
C250 C238 1.349 . S
C250 H244 0.950 . S
C250 C251 1.327 . S
C251 H245 0.950 . S
C251 C250 1.327 . S
C251 C255 1.429 . S
C252 C235 1.574 . S
C252 H246 0.949 . S
C252 C256 1.368 . S
C253 C234 1.429 . S
C253 C247 1.429 . S
C253 C254 1.523 . S
C254 C235 1.368 . S
C254 C248 1.368 . S
C254 C253 1.523 . S
C255 C239 1.429 . S
C255 C251 1.429 . S
C255 C256 1.523 . S
C256 C240 1.368 . S
C256 C252 1.368 . S
C256 C255 1.523 . S
H257 C232 0.950 . S
H258 C234 0.950 . S
H259 C235 0.949 . S
H260 C237 0.950 . S
H261 C239 0.950 . S
C262 C263 1.349 . S
C262 C264 1.327 . S
C262 H287 0.950 . S
C263 C262 1.349 . S
C263 C279 1.349 . S
C264 C262 1.327 . S
C264 C283 1.429 . S
C264 H288 0.950 . S
C265 C282 1.574 . S
C265 C284 1.368 . S
C265 H289 0.949 . S
H266 C270 0.949 . S
C267 C268 1.349 . S
C267 C269 1.327 . S
C267 H290 0.950 . S
C268 C267 1.349 . S
C268 C280 1.349 . S
C269 C267 1.327 . S
C269 C285 1.429 . S
C269 H291 0.950 . S
C270 H266 0.949 . S
C270 C278 1.574 . S
C270 C286 1.368 . S
H271 C279 0.950 . S
H272 C277 0.950 . S
H273 C278 0.949 . S
H274 C280 0.950 . S
H275 C281 0.950 . S
H276 C282 0.949 . S
C277 H272 0.950 . S
C277 C279 1.327 . S
C277 C283 1.429 . S
C278 C270 1.574 . S
C278 H273 0.949 . S
C278 C284 1.368 . S
C279 C263 1.349 . S
C279 H271 0.950 . S
C279 C277 1.327 . S
C280 C268 1.349 . S
C280 H274 0.950 . S
C280 C281 1.327 . S
C281 H275 0.950 . S
C281 C280 1.327 . S
C281 C285 1.429 . S
C282 C265 1.574 . S
C282 H276 0.949 . S
C282 C286 1.368 . S
C283 C264 1.429 . S
C283 C277 1.429 . S
C283 C284 1.523 . S
C284 C265 1.368 . S
C284 C278 1.368 . S
C284 C283 1.523 . S
C285 C269 1.429 . S
C285 C281 1.429 . S
C285 C286 1.523 . S
C286 C270 1.368 . S
C286 C282 1.368 . S
C286 C285 1.523 . S
H287 C262 0.950 . S
H288 C264 0.950 . S
H289 C265 0.949 . S
H290 C267 0.950 . S
H291 C269 0.950 . S
C292 C293 1.349 . S
C292 C294 1.327 . S
C292 H317 0.950 . S
C293 C292 1.349 . S
C293 C309 1.349 1_554 S
C294 C292 1.327 . S
C294 C313 1.429 . S
C294 H318 0.950 . S
C295 C312 1.574 . S
C295 C314 1.368 1_556 S
C295 H319 0.949 . S
H296 C300 0.949 . S
C297 C298 1.349 1_556 S
C297 C299 1.327 . S
C297 H320 0.950 . S
C298 C297 1.349 1_554 S
C298 C310 1.349 . S
C299 C297 1.327 . S
C299 C315 1.429 1_556 S
C299 H321 0.950 . S
C300 H296 0.949 . S
C300 C308 1.574 . S
C300 C316 1.368 . S
H301 C309 0.950 . S
H302 C307 0.950 . S
H303 C308 0.949 . S
H304 C310 0.950 . S
H305 C311 0.950 . S
H306 C312 0.949 . S
C307 H302 0.950 . S
C307 C309 1.327 . S
C307 C313 1.429 1_556 S
C308 C300 1.574 . S
C308 H303 0.949 . S
C308 C314 1.368 . S
C309 C293 1.349 1_556 S
C309 H301 0.950 . S
C309 C307 1.327 . S
C310 C298 1.349 . S
C310 H304 0.950 . S
C310 C311 1.327 . S
C311 H305 0.950 . S
C311 C310 1.327 . S
C311 C315 1.429 . S
C312 C295 1.574 . S
C312 H306 0.949 . S
C312 C316 1.368 1_556 S
C313 C294 1.429 . S
C313 C307 1.429 1_554 S
C313 C314 1.523 . S
C314 C295 1.368 1_554 S
C314 C308 1.368 . S
C314 C313 1.523 . S
C315 C299 1.429 1_554 S
C315 C311 1.429 . S
C315 C316 1.523 . S
C316 C300 1.368 . S
C316 C312 1.368 1_554 S
C316 C315 1.523 . S
H317 C292 0.950 . S
H318 C294 0.950 . S
H319 C295 0.949 . S
H320 C297 0.950 . S
H321 C299 0.950 . S
C322 C323 1.349 . S
C322 C324 1.327 . S
C322 H347 0.950 . S
C323 C322 1.349 . S
C323 C339 1.349 . S
C324 C322 1.327 . S
C324 C343 1.429 . S
C324 H348 0.950 . S
C325 C342 1.574 . S
C325 C344 1.368 . S
C325 H349 0.949 . S
H326 C330 0.949 . S
C327 C328 1.349 . S
C327 C329 1.327 . S
C327 H350 0.950 . S
C328 C327 1.349 . S
C328 C340 1.349 . S
C329 C327 1.327 . S
C329 C345 1.429 . S
C329 H351 0.950 . S
C330 H326 0.949 . S
C330 C338 1.574 . S
C330 C346 1.368 . S
H331 C339 0.950 . S
H332 C337 0.950 . S
H333 C338 0.949 . S
H334 C340 0.950 . S
H335 C341 0.950 . S
H336 C342 0.949 . S
C337 H332 0.950 . S
C337 C339 1.327 . S
C337 C343 1.429 . S
C338 C330 1.574 . S
C338 H333 0.949 . S
C338 C344 1.368 . S
C339 C323 1.349 . S
C339 H331 0.950 . S
C339 C337 1.327 . S
C340 C328 1.349 . S
C340 H334 0.950 . S
C340 C341 1.327 . S
C341 H335 0.950 . S
C341 C340 1.327 . S
C341 C345 1.429 . S
C342 C325 1.574 . S
C342 H336 0.949 . S
C342 C346 1.368 . S
C343 C324 1.429 . S
C343 C337 1.429 . S
C343 C344 1.523 . S
C344 C325 1.368 . S
C344 C338 1.368 . S
C344 C343 1.523 . S
C345 C329 1.429 . S
C345 C341 1.429 . S
C345 C346 1.523 . S
C346 C330 1.368 . S
C346 C342 1.368 . S
C346 C345 1.523 . S
H347 C322 0.950 . S
H348 C324 0.950 . S
H349 C325 0.949 . S
H350 C327 0.950 . S
H351 C329 0.950 . S
C352 C353 1.349 . S
C352 C354 1.327 . S
C352 H377 0.950 . S
C353 C352 1.349 . S
C353 C369 1.349 1_554 S
C354 C352 1.327 . S
C354 C373 1.429 . S
C354 H378 0.950 . S
C355 C372 1.574 1_445 S
C355 C374 1.368 1_556 S
C355 H379 0.949 . S
H356 C360 0.949 . S
C357 C358 1.349 1_556 S
C357 C359 1.327 . S
C357 H380 0.950 . S
C358 C357 1.349 1_554 S
C358 C370 1.349 . S
C359 C357 1.327 . S
C359 C375 1.429 1_556 S
C359 H381 0.950 . S
C360 H356 0.949 . S
C360 C368 1.574 1_655 S
C360 C376 1.368 1_545 S
H361 C369 0.950 . S
H362 C367 0.950 . S
H363 C368 0.949 . S
H364 C370 0.950 . S
H365 C371 0.950 . S
H366 C372 0.949 . S
C367 H362 0.950 . S
C367 C369 1.327 . S
C367 C373 1.429 1_556 S
C368 C360 1.574 1_455 S
C368 H363 0.949 . S
C368 C374 1.368 . S
C369 C353 1.349 1_556 S
C369 H361 0.950 . S
C369 C367 1.327 . S
C370 C358 1.349 . S
C370 H364 0.950 . S
C370 C371 1.327 . S
C371 H365 0.950 . S
C371 C370 1.327 . S
C371 C375 1.429 . S
C372 C355 1.574 1_665 S
C372 H366 0.949 . S
C372 C376 1.368 1_556 S
C373 C354 1.429 . S
C373 C367 1.429 1_554 S
C373 C374 1.523 . S
C374 C355 1.368 1_554 S
C374 C368 1.368 . S
C374 C373 1.523 . S
C375 C359 1.429 1_554 S
C375 C371 1.429 . S
C375 C376 1.523 . S
C376 C360 1.368 1_565 S
C376 C372 1.368 1_554 S
C376 C375 1.523 . S
H377 C352 0.950 . S
H378 C354 0.950 . S
H379 C355 0.949 . S
H380 C357 0.950 . S
H381 C359 0.950 . S
C382 C383 1.349 . S
C382 C384 1.327 . S
C382 H407 0.950 . S
C383 C382 1.349 . S
C383 C399 1.349 . S
C384 C382 1.327 . S
C384 C403 1.429 . S
C384 H408 0.950 . S
C385 C402 1.574 1_645 S
C385 C404 1.368 . S
C385 H409 0.949 . S
H386 C390 0.949 . S
C387 C388 1.349 . S
C387 C389 1.327 . S
C387 H410 0.950 . S
C388 C387 1.349 . S
C388 C400 1.349 . S
C389 C387 1.327 . S
C389 C405 1.429 . S
C389 H411 0.950 . S
C390 H386 0.949 . S
C390 C398 1.574 1_455 S
C390 C406 1.368 1_545 S
H391 C399 0.950 . S
H392 C397 0.950 . S
H393 C398 0.949 . S
H394 C400 0.950 . S
H395 C401 0.950 . S
H396 C402 0.949 . S
C397 H392 0.950 . S
C397 C399 1.327 . S
C397 C403 1.429 . S
C398 C390 1.574 1_655 S
C398 H393 0.949 . S
C398 C404 1.368 . S
C399 C383 1.349 . S
C399 H391 0.950 . S
C399 C397 1.327 . S
C400 C388 1.349 . S
C400 H394 0.950 . S
C400 C401 1.327 . S
C401 H395 0.950 . S
C401 C400 1.327 . S
C401 C405 1.429 . S
C402 C385 1.574 1_465 S
C402 H396 0.949 . S
C402 C406 1.368 . S
C403 C384 1.429 . S
C403 C397 1.429 . S
C403 C404 1.523 . S
C404 C385 1.368 . S
C404 C398 1.368 . S
C404 C403 1.523 . S
C405 C389 1.429 . S
C405 C401 1.429 . S
C405 C406 1.523 . S
C406 C390 1.368 1_565 S
C406 C402 1.368 . S
C406 C405 1.523 . S
H407 C382 0.950 . S
H408 C384 0.950 . S
H409 C385 0.949 . S
H410 C387 0.950 . S
H411 C389 0.950 . S
C412 C413 1.349 . S
C412 C414 1.327 . S
C412 H437 0.950 . S
C413 C412 1.349 . S
C413 C429 1.349 . S
C414 C412 1.327 . S
C414 C433 1.429 . S
C414 H438 0.950 . S
C415 C432 1.574 . S
C415 C434 1.368 . S
C415 H439 0.949 . S
H416 C420 0.949 . S
C417 C418 1.349 . S
C417 C419 1.327 . S
C417 H440 0.950 . S
C418 C417 1.349 . S
C418 C430 1.349 . S
C419 C417 1.327 . S
C419 C435 1.429 . S
C419 H441 0.950 . S
C420 H416 0.949 . S
C420 C428 1.574 . S
C420 C436 1.368 . S
H421 C429 0.950 . S
H422 C427 0.950 . S
H423 C428 0.949 . S
H424 C430 0.950 . S
H425 C431 0.950 . S
H426 C432 0.949 . S
C427 H422 0.950 . S
C427 C429 1.327 . S
C427 C433 1.429 . S
C428 C420 1.574 . S
C428 H423 0.949 . S
C428 C434 1.368 . S
C429 C413 1.349 . S
C429 H421 0.950 . S
C429 C427 1.327 . S
C430 C418 1.349 . S
C430 H424 0.950 . S
C430 C431 1.327 . S
C431 H425 0.950 . S
C431 C430 1.327 . S
C431 C435 1.429 . S
C432 C415 1.574 . S
C432 H426 0.949 . S
C432 C436 1.368 . S
C433 C414 1.429 . S
C433 C427 1.429 . S
C433 C434 1.523 . S
C434 C415 1.368 . S
C434 C428 1.368 . S
C434 C433 1.523 . S
C435 C419 1.429 . S
C435 C431 1.429 . S
C435 C436 1.523 . S
C436 C420 1.368 . S
C436 C432 1.368 . S
C436 C435 1.523 . S
H437 C412 0.950 . S
H438 C414 0.950 . S
H439 C415 0.949 . S
H440 C417 0.950 . S
H441 C419 0.950 . S
C442 C443 1.349 . S
C442 C444 1.327 . S
C442 H467 0.950 . S
C443 C442 1.349 . S
C443 C459 1.349 . S
C444 C442 1.327 . S
C444 C463 1.429 . S
C444 H468 0.950 . S
C445 C462 1.574 . S
C445 C464 1.368 . S
C445 H469 0.949 . S
H446 C450 0.949 . S
C447 C448 1.349 . S
C447 C449 1.327 . S
C447 H470 0.950 . S
C448 C447 1.349 . S
C448 C460 1.349 . S
C449 C447 1.327 . S
C449 C465 1.429 . S
C449 H471 0.950 . S
C450 H446 0.949 . S
C450 C458 1.574 . S
C450 C466 1.368 . S
H451 C459 0.950 . S
H452 C457 0.950 . S
H453 C458 0.949 . S
H454 C460 0.950 . S
H455 C461 0.950 . S
H456 C462 0.949 . S
C457 H452 0.950 . S
C457 C459 1.327 . S
C457 C463 1.429 . S
C458 C450 1.574 . S
C458 H453 0.949 . S
C458 C464 1.368 . S
C459 C443 1.349 . S
C459 H451 0.950 . S
C459 C457 1.327 . S
C460 C448 1.349 . S
C460 H454 0.950 . S
C460 C461 1.327 . S
C461 H455 0.950 . S
C461 C460 1.327 . S
C461 C465 1.429 . S
C462 C445 1.574 . S
C462 H456 0.949 . S
C462 C466 1.368 . S
C463 C444 1.429 . S
C463 C457 1.429 . S
C463 C464 1.523 . S
C464 C445 1.368 . S
C464 C458 1.368 . S
C464 C463 1.523 . S
C465 C449 1.429 . S
C465 C461 1.429 . S
C465 C466 1.523 . S
C466 C450 1.368 . S
C466 C462 1.368 . S
C466 C465 1.523 . S
H467 C442 0.950 . S
H468 C444 0.950 . S
H469 C445 0.949 . S
H470 C447 0.950 . S
H471 C449 0.950 . S
C472 C473 1.349 . S
C472 C474 1.327 . S
C472 H497 0.950 . S
C473 C472 1.349 . S
C473 C489 1.349 . S
C474 C472 1.327 . S
C474 C493 1.429 . S
C474 H498 0.950 . S
C475 C492 1.574 . S
C475 C494 1.368 . S
C475 H499 0.949 . S
H476 C480 0.949 . S
C477 C478 1.349 . S
C477 C479 1.327 . S
C477 H500 0.950 . S
C478 C477 1.349 . S
C478 C490 1.349 . S
C479 C477 1.327 . S
C479 C495 1.429 . S
C479 H501 0.950 . S
C480 H476 0.949 . S
C480 C488 1.574 . S
C480 C496 1.368 . S
H481 C489 0.950 . S
H482 C487 0.950 . S
H483 C488 0.949 . S
H484 C490 0.950 . S
H485 C491 0.950 . S
H486 C492 0.949 . S
C487 H482 0.950 . S
C487 C489 1.327 . S
C487 C493 1.429 . S
C488 C480 1.574 . S
C488 H483 0.949 . S
C488 C494 1.368 . S
C489 C473 1.349 . S
C489 H481 0.950 . S
C489 C487 1.327 . S
C490 C478 1.349 . S
C490 H484 0.950 . S
C490 C491 1.327 . S
C491 H485 0.950 . S
C491 C490 1.327 . S
C491 C495 1.429 . S
C492 C475 1.574 . S
C492 H486 0.949 . S
C492 C496 1.368 . S
C493 C474 1.429 . S
C493 C487 1.429 . S
C493 C494 1.523 . S
C494 C475 1.368 . S
C494 C488 1.368 . S
C494 C493 1.523 . S
C495 C479 1.429 . S
C495 C491 1.429 . S
C495 C496 1.523 . S
C496 C480 1.368 . S
C496 C492 1.368 . S
C496 C495 1.523 . S
H497 C472 0.950 . S
H498 C474 0.950 . S
H499 C475 0.949 . S
H500 C477 0.950 . S
H501 C479 0.950 . S
C502 C503 1.349 . S
C502 C504 1.327 . S
C502 H527 0.950 . S
C503 C502 1.349 . S
C503 C519 1.349 . S
C504 C502 1.327 . S
C504 C523 1.429 . S
C504 H528 0.950 . S
C505 C522 1.574 . S
C505 C524 1.368 . S
C505 H529 0.949 . S
H506 C510 0.949 . S
C507 C508 1.349 . S
C507 C509 1.327 . S
C507 H530 0.950 . S
C508 C507 1.349 . S
C508 C520 1.349 . S
C509 C507 1.327 . S
C509 C525 1.429 . S
C509 H531 0.950 . S
C510 H506 0.949 . S
C510 C518 1.574 . S
C510 C526 1.368 . S
H511 C519 0.950 . S
H512 C517 0.950 . S
H513 C518 0.949 . S
H514 C520 0.950 . S
H515 C521 0.950 . S
H516 C522 0.949 . S
C517 H512 0.950 . S
C517 C519 1.327 . S
C517 C523 1.429 . S
C518 C510 1.574 . S
C518 H513 0.949 . S
C518 C524 1.368 . S
C519 C503 1.349 . S
C519 H511 0.950 . S
C519 C517 1.327 . S
C520 C508 1.349 . S
C520 H514 0.950 . S
C520 C521 1.327 . S
C521 H515 0.950 . S
C521 C520 1.327 . S
C521 C525 1.429 . S
C522 C505 1.574 . S
C522 H516 0.949 . S
C522 C526 1.368 . S
C523 C504 1.429 . S
C523 C517 1.429 . S
C523 C524 1.523 . S
C524 C505 1.368 . S
C524 C518 1.368 . S
C524 C523 1.523 . S
C525 C509 1.429 . S
C525 C521 1.429 . S
C525 C526 1.523 . S
C526 C510 1.368 . S
C526 C522 1.368 . S
C526 C525 1.523 . S
H527 C502 0.950 . S
H528 C504 0.950 . S
H529 C505 0.949 . S
H530 C507 0.950 . S
H531 C509 0.950 . S
C532 C533 1.349 . S
C532 C534 1.327 . S
C532 H557 0.950 . S
C533 C532 1.349 . S
C533 C549 1.349 . S
C534 C532 1.327 . S
C534 C553 1.429 . S
C534 H558 0.950 . S
C535 C552 1.588 . S
C535 C554 1.355 1_655 S
C535 H559 0.949 . S
H536 C540 0.949 . S
C537 C538 1.349 . S
C537 C539 1.327 . S
C537 H560 0.950 . S
C538 C537 1.349 . S
C538 C550 1.349 . S
C539 C537 1.327 . S
C539 C555 1.429 . S
C539 H561 0.950 . S
C540 H536 0.949 . S
C540 C548 1.588 . S
C540 C556 1.355 1_455 S
H541 C549 0.950 . S
H542 C547 0.950 . S
H543 C548 0.949 . S
H544 C550 0.950 . S
H545 C551 0.950 . S
H546 C552 0.949 . S
C547 H542 0.950 . S
C547 C549 1.327 . S
C547 C553 1.429 . S
C548 C540 1.588 . S
C548 H543 0.949 . S
C548 C554 1.368 . S
C549 C533 1.349 . S
C549 H541 0.950 . S
C549 C547 1.327 . S
C550 C538 1.349 . S
C550 H544 0.950 . S
C550 C551 1.327 . S
C551 H545 0.950 . S
C551 C550 1.327 . S
C551 C555 1.429 . S
C552 C535 1.588 . S
C552 H546 0.949 . S
C552 C556 1.368 . S
C553 C534 1.429 . S
C553 C547 1.429 . S
C553 C554 1.523 . S
C554 C535 1.355 1_455 S
C554 C548 1.368 . S
C554 C553 1.523 . S
C555 C539 1.429 . S
C555 C551 1.429 . S
C555 C556 1.523 . S
C556 C540 1.355 1_655 S
C556 C552 1.368 . S
C556 C555 1.523 . S
H557 C532 0.950 . S
H558 C534 0.950 . S
H559 C535 0.949 . S
H560 C537 0.950 . S
H561 C539 0.950 . S
C562 C563 1.349 . S
C562 C564 1.327 . S
C562 H587 0.950 . S
C563 C562 1.349 . S
C563 C579 1.349 . S
C564 C562 1.327 . S
C564 C583 1.429 . S
C564 H588 0.950 . S
C565 C582 1.561 1_655 S
C565 C584 1.368 . S
C565 H589 0.949 . S
H566 C570 0.949 . S
C567 C568 1.349 . S
C567 C569 1.327 . S
C567 H590 0.950 . S
C568 C567 1.349 . S
C568 C580 1.349 . S
C569 C567 1.327 . S
C569 C585 1.429 . S
C569 H591 0.950 . S
C570 H566 0.949 . S
C570 C578 1.561 1_455 S
C570 C586 1.368 . S
H571 C579 0.950 . S
H572 C577 0.950 . S
H573 C578 0.950 . S
H574 C580 0.950 . S
H575 C581 0.950 . S
H576 C582 0.950 . S
C577 H572 0.950 . S
C577 C579 1.327 . S
C577 C583 1.429 . S
C578 C570 1.561 1_655 S
C578 H573 0.950 . S
C578 C584 1.380 . S
C579 C563 1.349 . S
C579 H571 0.950 . S
C579 C577 1.327 . S
C580 C568 1.349 . S
C580 H574 0.950 . S
C580 C581 1.327 . S
C581 H575 0.950 . S
C581 C580 1.327 . S
C581 C585 1.429 . S
C582 C565 1.561 1_455 S
C582 H576 0.950 . S
C582 C586 1.380 . S
C583 C564 1.429 . S
C583 C577 1.429 . S
C583 C584 1.523 . S
C584 C565 1.368 . S
C584 C578 1.380 . S
C584 C583 1.523 . S
C585 C569 1.429 . S
C585 C581 1.429 . S
C585 C586 1.523 . S
C586 C570 1.368 . S
C586 C582 1.380 . S
C586 C585 1.523 . S
H587 C562 0.950 . S
H588 C564 0.950 . S
H589 C565 0.949 . S
H590 C567 0.950 . S
H591 C569 0.950 . S
C592 C593 1.349 . S
C592 C594 1.327 . S
C592 H617 0.950 . S
C593 C592 1.349 . S
C593 C609 1.349 . S
C594 C592 1.327 . S
C594 C613 1.429 . S
C594 H618 0.950 . S
C595 C612 1.580 . S
C595 C614 1.368 . S
C595 H619 0.949 . S
H596 C600 0.949 . S
C597 C598 1.349 . S
C597 C599 1.327 . S
C597 H620 0.950 . S
C598 C597 1.349 . S
C598 C610 1.349 . S
C599 C597 1.327 . S
C599 C615 1.429 . S
C599 H621 0.950 . S
C600 H596 0.949 . S
C600 C608 1.580 . S
C600 C616 1.368 . S
H601 C609 0.950 . S
H602 C607 0.950 . S
H603 C608 0.949 1_455 S
H604 C610 0.950 . S
H605 C611 0.950 . S
H606 C612 0.949 1_655 S
C607 H602 0.950 . S
C607 C609 1.327 . S
C607 C613 1.429 . S
C608 C600 1.580 . S
C608 H603 0.949 1_655 S
C608 C614 1.363 1_655 S
C609 C593 1.349 . S
C609 H601 0.950 . S
C609 C607 1.327 . S
C610 C598 1.349 . S
C610 H604 0.950 . S
C610 C611 1.327 . S
C611 H605 0.950 . S
C611 C610 1.327 . S
C611 C615 1.429 . S
C612 C595 1.580 . S
C612 H606 0.949 1_455 S
C612 C616 1.363 1_455 S
C613 C594 1.429 . S
C613 C607 1.429 . S
C613 C614 1.523 . S
C614 C595 1.368 . S
C614 C608 1.363 1_455 S
C614 C613 1.523 . S
C615 C599 1.429 . S
C615 C611 1.429 . S
C615 C616 1.523 . S
C616 C600 1.368 . S
C616 C612 1.363 1_655 S
C616 C615 1.523 . S
H617 C592 0.950 . S
H618 C594 0.950 . S
H619 C595 0.949 . S
H620 C597 0.950 . S
H621 C599 0.950 . S
C622 C623 1.349 . S
C622 C624 1.327 . S
C622 H647 0.950 . S
C623 C622 1.349 . S
C623 C639 1.349 . S
C624 C622 1.327 . S
C624 C643 1.429 . S
C624 H648 0.950 . S
C625 C642 1.574 1_455 S
C625 C644 1.368 . S
C625 H649 0.949 . S
H626 C630 0.949 . S
C627 C628 1.349 . S
C627 C629 1.327 . S
C627 H650 0.950 . S
C628 C627 1.349 . S
C628 C640 1.349 . S
C629 C627 1.327 . S
C629 C645 1.429 . S
C629 H651 0.950 . S
C630 H626 0.949 . S
C630 C638 1.574 1_655 S
C630 C646 1.368 . S
H631 C639 0.950 . S
H632 C637 0.950 . S
H633 C638 0.949 . S
H634 C640 0.950 . S
H635 C641 0.950 . S
H636 C642 0.949 . S
C637 H632 0.950 . S
C637 C639 1.327 . S
C637 C643 1.429 . S
C638 C630 1.574 1_455 S
C638 H633 0.949 . S
C638 C644 1.368 . S
C639 C623 1.349 . S
C639 H631 0.950 . S
C639 C637 1.327 . S
C640 C628 1.349 . S
C640 H634 0.950 . S
C640 C641 1.327 . S
C641 H635 0.950 . S
C641 C640 1.327 . S
C641 C645 1.429 . S
C642 C625 1.574 1_655 S
C642 H636 0.949 . S
C642 C646 1.368 . S
C643 C624 1.429 . S
C643 C637 1.429 . S
C643 C644 1.523 . S
C644 C625 1.368 . S
C644 C638 1.368 . S
C644 C643 1.523 . S
C645 C629 1.429 . S
C645 C641 1.429 . S
C645 C646 1.523 . S
C646 C630 1.368 . S
C646 C642 1.368 . S
C646 C645 1.523 . S
H647 C622 0.950 . S
H648 C624 0.950 . S
H649 C625 0.949 . S
H650 C627 0.950 . S
H651 C629 0.950 . S
C173 N8 0.251 1_554 S
C178 N3 0.449 1_556 S
C203 N51 0.251 1_554 S
C208 N46 0.449 1_556 S
C233 N89 0.449 . S
C238 N94 0.251 . S
C263 N137 0.449 . S
C268 N132 0.251 . S
C293 C70 1.541 . S
C298 C40 1.539 . S
C323 C162 1.539 . S
C328 C113 1.541 . S
C353 C27 1.541 . S
C358 C83 1.539 . S
C383 C161 1.541 . S
C388 C126 1.539 . S
C413 C168 1.495 . S
C418 C13 1.495 . S
C443 C76 1.215 . S
C448 C119 1.215 . S
C473 C125 1.297 . S
C478 C82 1.297 . S
C503 C32 1.302 . S
C508 C156 1.302 . S
C533 C99 1.495 . S
C538 C56 1.495 . S
C563 C169 1.215 . S
C568 C33 1.215 . S
C593 C39 1.297 . S
C598 C142 1.297 . S
C623 C118 1.302 . S
C628 C75 1.302 . S
