# Generated by pormake.
# Topology eci, (8)-cn, num edge types: 1
# Building blocks:
#     Node 0, Type 0, BuildingBlock: AJUNOK_clean_sbu_0, # of connection points: 8
#     Node 1, Type 0, BuildingBlock: AJUNOK_clean_sbu_0, # of connection points: 8
#     Node 2, Type 0, BuildingBlock: AJUNOK_clean_sbu_0, # of connection points: 8
#     Node 3, Type 0, BuildingBlock: AJUNOK_clean_sbu_0, # of connection points: 8
#     Edge 4, Type (0, 0), BuildingBlock: EZIPEK_clean_linker_0, # of connection points: 2
#     Edge 5, Type (0, 0), BuildingBlock: EZIPEK_clean_linker_0, # of connection points: 2
#     Edge 6, Type (0, 0), BuildingBlock: EZIPEK_clean_linker_0, # of connection points: 2
#     Edge 7, Type (0, 0), BuildingBlock: EZIPEK_clean_linker_0, # of connection points: 2
#     Edge 8, Type (0, 0), BuildingBlock: EZIPEK_clean_linker_0, # of connection points: 2
#     Edge 9, Type (0, 0), BuildingBlock: EZIPEK_clean_linker_0, # of connection points: 2
#     Edge 10, Type (0, 0), BuildingBlock: EZIPEK_clean_linker_0, # of connection points: 2
#     Edge 11, Type (0, 0), BuildingBlock: EZIPEK_clean_linker_0, # of connection points: 2
#     Edge 12, Type (0, 0), BuildingBlock: EZIPEK_clean_linker_0, # of connection points: 2
#     Edge 13, Type (0, 0), BuildingBlock: EZIPEK_clean_linker_0, # of connection points: 2
#     Edge 14, Type (0, 0), BuildingBlock: EZIPEK_clean_linker_0, # of connection points: 2
#     Edge 15, Type (0, 0), BuildingBlock: EZIPEK_clean_linker_0, # of connection points: 2
#     Edge 16, Type (0, 0), BuildingBlock: EZIPEK_clean_linker_0, # of connection points: 2
#     Edge 17, Type (0, 0), BuildingBlock: EZIPEK_clean_linker_0, # of connection points: 2
#     Edge 18, Type (0, 0), BuildingBlock: EZIPEK_clean_linker_0, # of connection points: 2
#     Edge 19, Type (0, 0), BuildingBlock: EZIPEK_clean_linker_0, # of connection points: 2
# Relax obj value: 0.381
# Max RMSD: 0.292
# Mean RMSD: 0.292
data_MOF--net-eci--node1-AJUNOK_clean_sbu_0--edge1-EZIPEK_clean_linker_0
_symmetry_space_group_name_H-M    P1
_symmetry_Int_Tables_number       1
_symmetry_cell_setting            triclinic
loop_
_symmetry_equiv_pos_as_xyz
'x, y, z'
_cell_length_a     26.247518
_cell_length_b     26.31731
_cell_length_c     14.68211
_cell_angle_alpha  90.221945
_cell_angle_beta   90.013032
_cell_angle_gamma 89.562233
loop_
_atom_site_label
_atom_site_type_symbol
_atom_site_fract_x
_atom_site_fract_y
_atom_site_fract_z
_atom_type_partial_charge
Cd0 Cd 0.83075 0.76522 0.18452 0.0
Cd1 Cd 0.80614 0.82146 0.89748 0.0
C2 C 0.8248 0.66373 0.06806 0.0
N3 N 0.79257 0.6985 0.10624 0.0
C4 C 0.73435 0.63314 0.1472 0.0
C5 C 0.77046 0.59635 0.12039 0.0
C6 C 0.81445 0.61198 0.07471 0.0
C7 C 0.74655 0.68462 0.14023 0.0
H8 H 0.86182 0.67504 0.04437 0.0
H9 H 0.72275 0.71268 0.17391 0.0
C10 C 0.76627 0.87408 0.11753 0.0
C11 C 0.81172 0.9415 0.85403 0.0
C12 C 0.83284 0.987 0.82386 0.0
C13 C 0.88246 0.98657 0.78866 0.0
C14 C 0.90978 0.94071 0.78376 0.0
C15 C 0.88717 0.89621 0.81418 0.0
N16 N 0.83904 0.89746 0.84807 0.0
H17 H 0.77377 0.94132 0.88265 0.0
H18 H 0.90789 0.86054 0.81109 0.0
C19 C 0.69185 0.84927 0.84254 0.0
N20 N 0.71721 0.81222 0.88888 0.0
C21 C 0.64179 0.76154 0.89361 0.0
C22 C 0.61536 0.79865 0.84335 0.0
C23 C 0.64059 0.84338 0.81951 0.0
C24 C 0.69319 0.76913 0.91579 0.0
H25 H 0.71213 0.88246 0.81979 0.0
H26 H 0.71453 0.73967 0.95045 0.0
C27 C 0.91803 0.76316 0.01558 0.0
C28 C 0.82802 0.72396 0.36563 0.0
N29 N 0.88249 0.83442 0.21359 0.0
C30 C 0.90174 0.83696 0.29947 0.0
C31 C 0.93407 0.87626 0.32427 0.0
C32 C 0.94732 0.9126 0.25936 0.0
C33 C 0.92582 0.91028 0.17198 0.0
C34 C 0.89279 0.87067 0.15051 0.0
C35 C 0.8146 0.76468 0.73562 0.0
O36 O 0.76977 0.83745 0.17348 0.0
O37 O 0.77871 0.86801 0.03442 0.0
O38 O 0.88165 0.78328 0.97081 0.0
O39 O 0.91072 0.75057 0.09803 0.0
O40 O 0.79261 0.75183 0.33435 0.0
O41 O 0.86439 0.71429 0.31156 0.0
O42 O 0.81425 0.74209 0.81226 0.0
O43 O 0.8111 0.8129 0.73526 0.0
H44 H 0.89217 0.80832 0.34883 0.0
H45 H 0.87686 0.8679 0.08285 0.0
H46 H 0.70015 0.62217 0.1832 0.0
H47 H 0.84312 0.58454 0.05359 0.0
H48 H 0.81112 0.02207 0.82869 0.0
H49 H 0.94824 0.9395 0.75697 0.0
H50 H 0.62351 0.72624 0.91178 0.0
H51 H 0.62146 0.87236 0.77966 0.0
H52 H 0.94973 0.87759 0.39251 0.0
H53 H 0.93529 0.93817 0.12074 0.0
Cd54 Cd 0.73204 0.29878 0.40317 0.0
Cd55 Cd 0.69108 0.27984 0.15409 0.0
C56 C 0.81515 0.2736 0.2424 0.0
N57 N 0.79659 0.25587 0.32266 0.0
C58 C 0.87872 0.22358 0.3635 0.0
C59 C 0.89974 0.24812 0.28797 0.0
C60 C 0.86725 0.27063 0.22391 0.0
C61 C 0.82655 0.22821 0.37992 0.0
H62 H 0.79105 0.29441 0.19685 0.0
H63 H 0.81141 0.2154 0.4442 0.0
C64 C 0.61097 0.2545 0.33324 0.0
C65 C 0.57645 0.29509 0.06847 0.0
C66 C 0.53444 0.32171 0.03362 0.0
C67 C 0.53647 0.37484 0.02748 0.0
C68 C 0.58002 0.40018 0.05771 0.0
C69 C 0.62068 0.37227 0.09298 0.0
N70 N 0.6183 0.32075 0.09775 0.0
H71 H 0.57581 0.25407 0.07201 0.0
H72 H 0.65452 0.39176 0.11538 0.0
C73 C 0.69082 0.16262 0.24097 0.0
N74 N 0.71877 0.19438 0.18787 0.0
C75 C 0.76788 0.12306 0.13286 0.0
C76 C 0.73697 0.08973 0.18214 0.0
C77 C 0.69908 0.11013 0.23869 0.0
C78 C 0.75785 0.17548 0.13643 0.0
H79 H 0.66016 0.17685 0.2818 0.0
H80 H 0.77965 0.2008 0.09437 0.0
C81 C 0.75389 0.39058 0.2605 0.0
C82 C 0.75523 0.27912 0.58762 0.0
N83 N 0.67217 0.3657 0.41698 0.0
C84 C 0.67103 0.39002 0.49892 0.0
C85 C 0.63481 0.42769 0.5166 0.0
C86 C 0.59986 0.44114 0.44874 0.0
C87 C 0.60228 0.41658 0.36386 0.0
C88 C 0.63877 0.37837 0.34963 0.0
C89 C 0.72677 0.27363 0.97376 0.0
O90 O 0.64713 0.26123 0.38913 0.0
O91 O 0.61795 0.26281 0.24922 0.0
O92 O 0.73 0.36004 0.20894 0.0
O93 O 0.76876 0.37551 0.33809 0.0
O94 O 0.73142 0.24731 0.53921 0.0
O95 O 0.77178 0.31853 0.54866 0.0
O96 O 0.75232 0.29712 0.03373 0.0
O97 O 0.68587 0.25225 -0.0013 0.0
H98 H 0.69831 0.38029 0.55101 0.0
H99 H 0.64009 0.35857 0.28527 0.0
H100 H 0.90306 0.20595 0.41416 0.0
H101 H 0.88248 0.28955 0.16455 0.0
H102 H 0.50108 0.30127 0.01093 0.0
H103 H 0.58248 0.4412 0.05396 0.0
H104 H 0.79773 0.10852 0.08876 0.0
H105 H 0.67479 0.08545 0.27819 0.0
H106 H 0.63406 0.44625 0.58259 0.0
H107 H 0.57579 0.42633 0.30998 0.0
Cd108 Cd 0.23043 0.20837 0.31012 0.0
Cd109 Cd 0.17626 0.23152 0.56124 0.0
C110 C 0.31776 0.23525 0.45958 0.0
N111 N 0.29453 0.25406 0.3839 0.0
C112 C 0.37187 0.29289 0.33608 0.0
C113 C 0.39799 0.26674 0.40506 0.0
C114 C 0.3701 0.24075 0.47116 0.0
C115 C 0.31956 0.28552 0.32615 0.0
H116 H 0.29743 0.21162 0.50613 0.0
H117 H 0.30065 0.29915 0.26547 0.0
C118 C 0.11207 0.26062 0.35427 0.0
C119 C 0.05755 0.21706 0.61799 0.0
C120 C 0.01405 0.19104 0.64587 0.0
C121 C 0.01788 0.13897 0.66453 0.0
C122 C 0.06474 0.11391 0.65432 0.0
C123 C 0.10694 0.1412 0.62593 0.0
N124 N 0.10268 0.19173 0.60889 0.0
H125 H 0.05543 0.25729 0.6035 0.0
H126 H 0.14324 0.12213 0.61711 0.0
C127 C 0.15042 0.34913 0.53522 0.0
N128 N 0.19184 0.31797 0.54075 0.0
C129 C 0.24718 0.38961 0.54831 0.0
C130 C 0.20499 0.42252 0.54156 0.0
C131 C 0.15621 0.40176 0.53283 0.0
C132 C 0.23969 0.33708 0.54776 0.0
H133 H 0.11266 0.33312 0.53594 0.0
H134 H 0.27175 0.31173 0.55717 0.0
C135 C 0.25337 0.1233 0.47118 0.0
C136 C 0.25235 0.21704 0.12093 0.0
N137 N 0.1716 0.14155 0.32265 0.0
C138 C 0.17239 0.10604 0.25514 0.0
C139 C 0.13543 0.06837 0.25184 0.0
C140 C 0.09851 0.06635 0.32057 0.0
C141 C 0.10073 0.10079 0.39312 0.0
C142 C 0.13766 0.1385 0.39233 0.0
C143 C 0.21427 0.23619 0.7393 0.0
O144 O 0.15141 0.25772 0.30461 0.0
O145 O 0.11416 0.25106 0.43892 0.0
O146 O 0.22632 0.15481 0.51635 0.0
O147 O 0.26354 0.13343 0.38867 0.0
O148 O 0.22936 0.25136 0.16521 0.0
O149 O 0.2678 0.17854 0.16498 0.0
O150 O 0.24417 0.22757 0.67287 0.0
O151 O 0.16762 0.24527 0.72165 0.0
H152 H 0.20139 0.1073 0.20312 0.0
H153 H 0.13945 0.165 0.4476 0.0
H154 H 0.39256 0.31317 0.28391 0.0
H155 H 0.38922 0.22044 0.52554 0.0
H156 H 0.97811 0.21111 0.65332 0.0
H157 H 0.06853 0.07364 0.66814 0.0
H158 H 0.28531 0.40448 0.5563 0.0
H159 H 0.12283 0.4261 0.52852 0.0
H160 H 0.13543 0.04126 0.19612 0.0
H161 H 0.07342 0.09916 0.44827 0.0
Cd162 Cd 0.31931 0.74267 0.54491 0.0
Cd163 Cd 0.30658 0.68942 0.80083 0.0
C164 C 0.30356 0.84465 0.66339 0.0
N165 N 0.27681 0.81228 0.60944 0.0
C166 C 0.22711 0.88116 0.5502 0.0
C167 C 0.25913 0.91558 0.59501 0.0
C168 C 0.29538 0.89699 0.65686 0.0
C169 C 0.23698 0.82907 0.55803 0.0
H170 H 0.33528 0.8308 0.70288 0.0
H171 H 0.21735 0.80281 0.51367 0.0
C172 C 0.25519 0.63179 0.6046 0.0
C173 C 0.32105 0.56899 0.84458 0.0
C174 C 0.34618 0.52428 0.87048 0.0
C175 C 0.39777 0.52625 0.89489 0.0
C176 C 0.4234 0.57269 0.89088 0.0
C177 C 0.39701 0.61624 0.86376 0.0
N178 N 0.34674 0.6137 0.84214 0.0
H179 H 0.28107 0.56809 0.82688 0.0
H180 H 0.41642 0.6523 0.86049 0.0
C181 C 0.19015 0.67062 0.84154 0.0
N182 N 0.21879 0.70837 0.80529 0.0
C183 C 0.14749 0.7657 0.81196 0.0
C184 C 0.11763 0.72751 0.85143 0.0
C185 C 0.13915 0.67923 0.86434 0.0
C186 C 0.19852 0.75529 0.78957 0.0
H187 H 0.20763 0.63419 0.85606 0.0
H188 H 0.22254 0.78532 0.76455 0.0
C189 C 0.41307 0.7595 0.69465 0.0
C190 C 0.30958 0.76439 0.35736 0.0
N191 N 0.38028 0.67644 0.54527 0.0
C192 C 0.41024 0.67401 0.46979 0.0
C193 C 0.44555 0.63482 0.45865 0.0
C194 C 0.4508 0.59815 0.52669 0.0
C195 C 0.42091 0.60206 0.60555 0.0
C196 C 0.38545 0.64177 0.61324 0.0
C197 C 0.30802 0.7291 0.97528 0.0
O198 O 0.26327 0.6681 0.55003 0.0
O199 O 0.26926 0.63424 0.68699 0.0
O200 O 0.38293 0.7343 0.74468 0.0
O201 O 0.39834 0.7737 0.61627 0.0
O202 O 0.2748 0.74249 0.4012 0.0
O203 O 0.34848 0.77856 0.40137 0.0
O204 O 0.31666 0.7582 0.90817 0.0
O205 O 0.29837 0.6826 0.95931 0.0
H206 H 0.40737 0.70307 0.4185 0.0
H207 H 0.36233 0.645 0.67335 0.0
H208 H 0.19881 0.89449 0.502 0.0
H209 H 0.32042 0.92273 0.69285 0.0
H210 H 0.32559 0.48879 0.87275 0.0
H211 H 0.46333 0.57515 0.90894 0.0
H212 H 0.13221 0.80368 0.80284 0.0
H213 H 0.11742 0.64923 0.89593 0.0
H214 H 0.46879 0.63325 0.3977 0.0
H215 H 0.42475 0.5746 0.65988 0.0
C216 C 0.87423 0.71949 0.51517 0.0
C217 C 0.82921 0.71084 0.46427 0.0
C218 C 0.77907 0.71481 0.60525 0.0
C219 C 0.82165 0.73688 0.64916 0.0
N220 N 0.91064 0.75895 0.64917 0.0
N221 N 0.74116 0.68672 0.46228 0.0
C222 C 0.86975 0.73809 0.60556 0.0
C223 C 0.78237 0.70342 0.51045 0.0
N224 N 0.92092 0.70903 0.47836 0.0
N225 N 0.7356 0.70614 0.65384 0.0
H226 H 0.7444 0.67444 0.39478 0.0
H227 H 0.70432 0.68485 0.48804 0.0
H228 H 0.73248 0.71482 0.72302 0.0
H229 H 0.70382 0.68768 0.62793 0.0
H230 H 0.95479 0.71183 0.51493 0.0
H231 H 0.92537 0.69039 0.4162 0.0
H232 H 0.94492 0.76688 0.61665 0.0
H233 H 0.9093 0.771 0.71692 0.0
C234 C 0.79146 0.26149 0.74236 0.0
C235 C 0.75038 0.27781 0.68687 0.0
C236 C 0.7009 0.30158 0.82069 0.0
C237 C 0.73838 0.27863 0.87641 0.0
N238 N 0.81912 0.23518 0.89294 0.0
N239 N 0.66255 0.3056 0.67232 0.0
C240 C 0.784 0.25847 0.83825 0.0
C241 C 0.70407 0.2955 0.72572 0.0
N242 N 0.83721 0.24912 0.70338 0.0
N243 N 0.66343 0.3313 0.85842 0.0
H244 H 0.66282 0.30211 0.60174 0.0
H245 H 0.62642 0.31315 0.69874 0.0
H246 H 0.66139 0.33881 0.928 0.0
H247 H 0.63834 0.35338 0.82006 0.0
H248 H 0.87018 0.24154 0.74049 0.0
H249 H 0.84294 0.24945 0.63303 0.0
H250 H 0.85039 0.21479 0.86834 0.0
H251 H 0.81559 0.23406 0.96353 0.0
C252 C 0.20428 0.18986 0.88414 0.0
C253 C 0.23052 0.22719 0.83382 0.0
C254 C 0.28117 0.24835 0.96873 0.0
C255 C 0.24904 0.21678 0.02111 0.0
N256 N 0.17309 0.16563 0.03132 0.0
N257 N 0.29259 0.29418 0.82686 0.0
C258 C 0.20895 0.18939 0.97957 0.0
C259 C 0.26922 0.25674 0.87527 0.0
N260 N 0.17553 0.15415 0.84058 0.0
N261 N 0.32272 0.27015 0.00853 0.0
H262 H 0.28462 0.30119 0.75843 0.0
H263 H 0.31736 0.32042 0.85573 0.0
H264 H 0.33174 0.2648 0.07712 0.0
H265 H 0.35023 0.29006 0.9725 0.0
H266 H 0.15962 0.12312 0.87372 0.0
H267 H 0.17258 0.1522 0.76997 0.0
H268 H 0.13999 0.14997 0.00426 0.0
H269 H 0.17347 0.16643 0.10205 0.0
C270 C 0.28484 0.78679 0.10652 0.0
C271 C 0.31421 0.74607 0.06964 0.0
C272 C 0.3359 0.71672 0.22061 0.0
C273 C 0.31112 0.75978 0.25832 0.0
N274 N 0.26778 0.84002 0.23894 0.0
N275 N 0.38135 0.68399 0.09071 0.0
C276 C 0.28768 0.79657 0.20173 0.0
C277 C 0.34449 0.71508 0.12655 0.0
N278 N 0.25224 0.81384 0.05235 0.0
N279 N 0.34792 0.67565 0.2732 0.0
H280 H 0.39022 0.68371 0.02145 0.0
H281 H 0.40675 0.66334 0.13108 0.0
H282 H 0.33682 0.67291 0.34104 0.0
H283 H 0.36259 0.64184 0.24634 0.0
H284 H 0.22602 0.84019 0.07776 0.0
H285 H 0.24874 0.80735 0.98256 0.0
H286 H 0.25429 0.87029 0.20004 0.0
H287 H 0.26818 0.84713 0.30894 0.0
C288 C 0.4702 0.79547 0.8175 0.0
C289 C 0.46518 0.77246 0.7299 0.0
C290 C 0.55895 0.76701 0.71752 0.0
C291 C 0.56352 0.78861 0.8058 0.0
N292 N 0.52491 0.81729 0.94544 0.0
N293 N 0.50538 0.74339 0.59051 0.0
C294 C 0.51949 0.80115 0.85733 0.0
C295 C 0.50975 0.7603 0.67821 0.0
N296 N 0.42803 0.81528 0.85978 0.0
N297 N 0.6019 0.75049 0.67306 0.0
H298 H 0.47101 0.73416 0.56049 0.0
H299 H 0.53554 0.74105 0.54471 0.0
H300 H 0.63861 0.75605 0.69812 0.0
H301 H 0.60167 0.72809 0.61454 0.0
H302 H 0.42916 0.83675 0.91936 0.0
H303 H 0.39186 0.8148 0.83062 0.0
H304 H 0.49477 0.82118 -0.009 0.0
H305 H 0.56037 0.82335 0.97556 0.0
C306 C 0.76611 1.00398 0.23916 0.0
C307 C 0.74171 0.03345 0.17091 0.0
C308 C 0.71875 0.95535 0.08887 0.0
C309 C 0.74996 0.92633 0.14838 0.0
N310 N 0.8003 0.92269 0.28725 0.0
N311 N 0.69607 0.03803 0.02848 0.0
C312 C 0.77214 0.95034 0.22646 0.0
C313 C 0.71831 0.00932 0.0952 0.0
N314 N 0.78324 0.02744 0.3166 0.0
N315 N 0.68744 0.93077 0.02905 0.0
H316 H 0.69246 0.07746 0.0325 0.0
H317 H 0.6842 0.02313 0.96626 0.0
H318 H 0.68442 0.89126 0.02772 0.0
H319 H 0.66038 0.9491 -0.01126 0.0
H320 H 0.79551 0.0083 0.37454 0.0
H321 H 0.7827 0.06678 0.32542 0.0
H322 H 0.82328 0.93849 0.3374 0.0
H323 H 0.80126 0.88338 0.28933 0.0
C324 C 0.48849 0.27292 0.46144 0.0
C325 C 0.45327 0.25605 0.39509 0.0
C326 C 0.52296 0.22022 0.30356 0.0
C327 C 0.55846 0.24169 0.36561 0.0
N328 N 0.57253 0.26066 0.5249 0.0
N329 N 0.43539 0.1972 0.27257 0.0
C330 C 0.54073 0.25967 0.45146 0.0
C331 C 0.47 0.22465 0.32179 0.0
N332 N 0.47232 0.30203 0.5332 0.0
N333 N 0.53997 0.19489 0.22795 0.0
H334 H 0.39642 0.19768 0.28625 0.0
H335 H 0.44538 0.17008 0.22387 0.0
H336 H 0.57776 0.18324 0.22039 0.0
H337 H 0.51687 0.18577 0.17269 0.0
H338 H 0.49721 0.3193 0.57892 0.0
H339 H 0.43426 0.31246 0.54266 0.0
H340 H 0.56051 0.27071 0.59017 0.0
H341 H 0.60813 0.24296 0.52424 0.0
C342 C 0.28604 0.98228 0.48284 0.0
C343 C 0.26136 0.96966 0.56606 0.0
C344 C 0.25158 0.0601 0.60153 0.0
C345 C 0.26746 0.07254 0.51188 0.0
N346 N 0.32533 0.04796 0.39198 0.0
N347 N 0.21741 0.99633 0.70236 0.0
C348 C 0.29187 0.03431 0.4587 0.0
C349 C 0.24349 0.00853 0.62504 0.0
N350 N 0.30374 0.94457 0.42653 0.0
N351 N 0.24995 0.09689 0.66715 0.0
H352 H 0.21093 0.95889 0.72209 0.0
H353 H 0.19854 0.02333 0.74236 0.0
H354 H 0.26413 0.13315 0.65576 0.0
H355 H 0.24314 0.08928 0.73562 0.0
H356 H 0.31515 0.95078 0.35961 0.0
H357 H 0.30455 0.90631 0.44457 0.0
H358 H 0.34718 0.0222 0.35451 0.0
H359 H 0.33738 0.08531 0.38373 0.0
C360 C 0.01371 0.77534 0.01297 0.0
C361 C 0.96914 0.75474 0.97217 0.0
C362 C 0.02158 0.72252 0.84479 0.0
C363 C 0.06623 0.73917 0.89012 0.0
N364 N 0.10574 0.7736 0.02501 0.0
N365 N 0.93234 0.70021 0.85757 0.0
C366 C 0.06253 0.7635 0.9762 0.0
C367 C 0.97347 0.72623 0.88988 0.0
N368 N 0.00965 0.80795 0.0851 0.0
N369 N 0.02518 0.70359 0.7582 0.0
H370 H 0.89719 0.7002 0.89051 0.0
H371 H 0.93417 0.67483 0.80308 0.0
H372 H 0.05985 0.69995 0.72391 0.0
H373 H 0.9937 0.69535 0.71776 0.0
H374 H 0.03985 0.82991 0.10838 0.0
H375 H 0.97534 0.81642 0.11688 0.0
H376 H 0.10528 0.78529 0.09288 0.0
H377 H 0.14239 0.76634 0.00054 0.0
C378 C 0.76205 0.48637 0.28734 0.0
C379 C 0.76398 0.44347 0.22761 0.0
C380 C 0.7659 0.50141 0.09667 0.0
C381 C 0.76786 0.54361 0.15649 0.0
N382 N 0.78584 0.57419 0.30859 0.0
N383 N 0.78756 0.41273 0.07781 0.0
C384 C 0.77154 0.5355 0.25182 0.0
C385 C 0.77162 0.4517 0.13274 0.0
N386 N 0.74894 0.48151 0.37685 0.0
N387 N 0.75804 0.50854 0.00567 0.0
H388 H 0.79826 0.37738 0.10364 0.0
H389 H 0.797 0.41762 0.00947 0.0
H390 H 0.75335 0.5445 0.97702 0.0
H391 H 0.7515 0.47858 0.9606 0.0
H392 H 0.74293 0.51261 0.41975 0.0
H393 H 0.73904 0.44749 0.40702 0.0
H394 H 0.79415 0.56877 0.37731 0.0
H395 H 0.79519 0.61034 0.28545 0.0
C396 C 0.98831 0.22815 0.23284 0.0
C397 C 0.95515 0.25857 0.28635 0.0
C398 C 0.02813 0.30485 0.34804 0.0
C399 C 0.06101 0.26733 0.3116 0.0
N400 N 0.07408 0.19651 0.20797 0.0
N401 N 0.94216 0.32873 0.3907 0.0
C402 C 0.0418 0.23055 0.24889 0.0
C403 C 0.97468 0.29821 0.342 0.0
N404 N 0.9685 0.19697 0.16728 0.0
N405 N 0.04853 0.34775 0.38508 0.0
H406 H 0.90264 0.32725 0.38397 0.0
H407 H 0.95426 0.35392 0.44096 0.0
H408 H 0.08763 0.35449 0.38257 0.0
H409 H 0.02701 0.37872 0.40756 0.0
H410 H 0.99038 0.17734 0.11947 0.0
H411 H 0.92942 0.19338 0.15636 0.0
H412 H 0.06219 0.16493 0.17107 0.0
H413 H 0.11343 0.19901 0.21145 0.0
C414 C 0.24169 0.50408 0.48234 0.0
C415 C 0.21185 0.47855 0.54822 0.0
C416 C 0.1955 0.55979 0.62465 0.0
C417 C 0.23382 0.58286 0.57161 0.0
N418 N 0.29715 0.57481 0.45186 0.0
N419 N 0.16623 0.48173 0.6915 0.0
C420 C 0.25755 0.55477 0.49986 0.0
C421 C 0.18986 0.50633 0.62165 0.0
N422 N 0.25442 0.48009 0.40272 0.0
N423 N 0.16401 0.5893 0.67691 0.0
H424 H 0.16335 0.44231 0.69494 0.0
H425 H 0.15412 0.50027 0.7506 0.0
H426 H 0.16558 0.6289 0.67511 0.0
H427 H 0.13286 0.57494 0.71223 0.0
H428 H 0.27188 0.49847 0.34846 0.0
H429 H 0.2428 0.44322 0.38727 0.0
H430 H 0.31906 0.55375 0.40595 0.0
H431 H 0.31085 0.61131 0.46191 0.0
C432 C 0.00682 0.04182 0.29928 0.0
C433 C 0.05821 0.0274 0.31643 0.0
C434 C 0.03684 0.93786 0.29673 0.0
C435 C 0.98514 0.95204 0.28227 0.0
N436 N 0.91869 0.01574 0.28951 0.0
N437 N 0.11921 0.96226 0.3562 0.0
C438 C 0.96942 1.00355 0.28967 0.0
C439 C 0.0723 0.9755 0.32286 0.0
N440 N 0.99403 0.09186 0.28842 0.0
N441 N 0.05256 0.88887 0.28184 0.0
H442 H 0.14579 0.98902 0.37781 0.0
H443 H 0.12981 0.92498 0.37103 0.0
H444 H 0.02788 0.85983 0.2631 0.0
H445 H 0.09074 0.8778 0.28079 0.0
H446 H 0.95859 0.10417 0.2651 0.0
H447 H 0.0198 0.1213 0.29715 0.0
H448 H 0.90452 0.05177 0.30531 0.0
H449 H 0.89026 0.98875 0.28104 0.0
C450 C 0.50886 0.46783 0.47666 0.0
C451 C 0.56097 0.48107 0.46776 0.0
C452 C 0.54111 0.5682 0.51551 0.0
C453 C 0.48851 0.55648 0.51438 0.0
N454 N 0.42113 0.49701 0.48304 0.0
N455 N 0.6254 0.54585 0.46147 0.0
C456 C 0.47197 0.50672 0.49222 0.0
C457 C 0.57678 0.53187 0.48252 0.0
N458 N 0.4948 0.41798 0.47307 0.0
N459 N 0.557 0.61369 0.55017 0.0
H460 H 0.65207 0.52049 0.43429 0.0
H461 H 0.63769 0.58339 0.46223 0.0
H462 H 0.53178 0.64067 0.57696 0.0
H463 H 0.59517 0.62248 0.56081 0.0
H464 H 0.45827 0.4056 0.48868 0.0
H465 H 0.52063 0.38838 0.46149 0.0
H466 H 0.40695 0.46327 0.45619 0.0
H467 H 0.3929 0.52409 0.49624 0.0
C468 C 0.94514 0.08128 0.63189 0.0
C469 C 0.97356 0.10967 0.69603 0.0
C470 C 0.93187 0.06536 0.82166 0.0
C471 C 0.90698 0.03378 0.75744 0.0
N472 N 0.88493 0.01625 0.59978 0.0
N473 N 0.98962 0.13256 0.85381 0.0
C474 C 0.91152 0.04343 0.66272 0.0
C475 C 0.96507 0.10357 0.79078 0.0
N476 N 0.95112 0.08931 0.54061 0.0
N477 N 0.92551 0.05792 0.91302 0.0
H478 H 0.01479 0.16169 0.83765 0.0
H479 H 0.01479 0.16169 0.83765 0.0
H480 H 0.90177 0.03006 0.93962 0.0
H481 H 0.94383 0.08012 0.962 0.0
H482 H 0.93153 0.06838 0.49143 0.0
H483 H 0.97499 0.11728 0.51456 0.0
H484 H 0.85877 0.98803 0.61614 0.0
H485 H 0.85877 0.98803 0.61614 0.0
C486 C 0.45996 0.43041 0.053 0.0
C487 C 0.49313 0.40508 -0.00887 0.0
C488 C 0.45697 0.45303 0.86327 0.0
C489 C 0.42559 0.48014 0.92578 0.0
N490 N 0.38912 0.48912 0.07565 0.0
N491 N 0.51735 0.38393 0.83727 0.0
C492 C 0.42433 0.46678 0.01933 0.0
C493 C 0.48949 0.41357 0.89594 0.0
N494 N 0.46412 0.42091 0.14431 0.0
N495 N 0.45675 0.46642 0.77329 0.0
H496 H 0.54218 0.35542 0.85936 0.0
H497 H 0.51365 0.38486 0.76677 0.0
H498 H 0.43133 0.49314 0.7466 0.0
H499 H 0.48255 0.45268 0.72524 0.0
H500 H 0.4458 0.44204 0.19475 0.0
H501 H 0.48779 0.39248 0.17056 0.0
H502 H 0.38268 0.47804 0.14255 0.0
H503 H 0.36351 0.51698 0.0537 0.0
loop_
_geom_bond_atom_site_label_1
_geom_bond_atom_site_label_2
_geom_bond_distance
_geom_bond_site_symmetry_2
_ccdc_geom_bond_type
Cd0 N3 2.334 . S
Cd0 N29 2.304 . S
Cd0 O36 2.268 . S
Cd0 O39 2.273 . S
Cd0 O40 2.417 . S
Cd0 O41 2.330 . S
Cd1 N16 2.304 . S
Cd1 N20 2.334 . S
Cd1 O37 2.273 . S
Cd1 O38 2.268 . S
Cd1 O42 2.417 . S
Cd1 O43 2.330 . S
C2 N3 1.332 . S
C2 C6 1.381 . S
C2 H8 0.931 . S
N3 Cd0 2.334 . S
N3 C2 1.332 . S
N3 C7 1.328 . S
C4 C5 1.396 . S
C4 C7 1.378 . S
C4 H46 0.931 . S
C5 C4 1.396 . S
C5 C6 1.382 . S
C6 C2 1.381 . S
C6 C5 1.382 . S
C6 H47 0.930 . S
C7 N3 1.328 . S
C7 C4 1.378 . S
C7 H9 0.930 . S
H8 C2 0.931 . S
H9 C7 0.930 . S
C10 O36 1.238 . S
C10 O37 1.253 1_554 S
C11 C12 1.379 . S
C11 N16 1.337 . S
C11 H17 0.929 . S
C12 C11 1.379 . S
C12 C13 1.380 . S
C12 H48 0.929 1_565 S
C13 C12 1.380 . S
C13 C14 1.399 . S
C14 C13 1.399 . S
C14 C15 1.376 . S
C14 H49 0.931 1_655 S
C15 C14 1.376 . S
C15 N16 1.338 . S
C15 H18 0.930 . S
N16 Cd1 2.304 . S
N16 C11 1.337 . S
N16 C15 1.338 . S
H17 C11 0.929 . S
H18 C15 0.930 . S
C19 N20 1.332 . S
C19 C23 1.381 . S
C19 H25 0.931 . S
N20 Cd1 2.334 . S
N20 C19 1.332 . S
N20 C24 1.328 . S
C21 C22 1.396 . S
C21 C24 1.378 . S
C21 H50 0.931 . S
C22 C21 1.396 . S
C22 C23 1.382 . S
C23 C19 1.381 . S
C23 C22 1.382 . S
C23 H51 0.930 . S
C24 N20 1.328 . S
C24 C21 1.378 . S
C24 H26 0.930 . S
H25 C19 0.931 . S
H26 C24 0.930 . S
C27 O38 1.238 . S
C27 O39 1.253 1_556 S
C28 O40 1.239 . S
C28 O41 1.230 . S
N29 Cd0 2.304 . S
N29 C30 1.337 . S
N29 C34 1.338 . S
C30 N29 1.337 . S
C30 C31 1.379 . S
C30 H44 0.929 . S
C31 C30 1.379 . S
C31 C32 1.380 . S
C31 H52 0.929 1_655 S
C32 C31 1.380 . S
C32 C33 1.399 . S
C33 C32 1.399 . S
C33 C34 1.376 . S
C33 H53 0.931 1_565 S
C34 N29 1.338 . S
C34 C33 1.376 . S
C34 H45 0.930 . S
C35 O42 1.239 . S
C35 O43 1.230 . S
O36 Cd0 2.268 . S
O36 C10 1.238 . S
O37 Cd1 2.273 . S
O37 C10 1.253 1_556 S
O38 Cd1 2.268 . S
O38 C27 1.238 . S
O39 Cd0 2.273 . S
O39 C27 1.253 1_554 S
O40 Cd0 2.417 . S
O40 C28 1.239 . S
O41 Cd0 2.330 . S
O41 C28 1.230 . S
O42 Cd1 2.417 . S
O42 C35 1.239 . S
O43 Cd1 2.330 . S
O43 C35 1.230 . S
H44 C30 0.929 . S
H45 C34 0.930 . S
H46 C4 0.931 . S
H47 C6 0.930 . S
H48 C12 0.929 1_545 S
H49 C14 0.931 1_455 S
H50 C21 0.931 . S
H51 C23 0.930 . S
H52 C31 0.929 1_455 S
H53 C33 0.931 1_545 S
Cd54 N57 2.334 . S
Cd54 N83 2.304 . S
Cd54 O90 2.268 . S
Cd54 O93 2.273 . S
Cd54 O94 2.417 . S
Cd54 O95 2.330 . S
Cd55 N70 2.304 . S
Cd55 N74 2.334 . S
Cd55 O91 2.273 . S
Cd55 O92 2.268 . S
Cd55 O96 2.417 1_554 S
Cd55 O97 2.330 1_554 S
C56 N57 1.332 . S
C56 C60 1.381 . S
C56 H62 0.931 . S
N57 Cd54 2.334 . S
N57 C56 1.332 . S
N57 C61 1.328 . S
C58 C59 1.396 . S
C58 C61 1.378 . S
C58 H100 0.931 . S
C59 C58 1.396 . S
C59 C60 1.382 . S
C60 C56 1.381 . S
C60 C59 1.382 . S
C60 H101 0.930 . S
C61 N57 1.328 . S
C61 C58 1.378 . S
C61 H63 0.930 . S
H62 C56 0.931 . S
H63 C61 0.930 . S
C64 O90 1.238 . S
C64 O91 1.253 . S
C65 C66 1.379 . S
C65 N70 1.337 . S
C65 H71 0.929 . S
C66 C65 1.379 . S
C66 C67 1.380 . S
C66 H102 0.929 . S
C67 C66 1.380 . S
C67 C68 1.399 . S
C68 C67 1.399 . S
C68 C69 1.376 . S
C68 H103 0.931 . S
C69 C68 1.376 . S
C69 N70 1.338 . S
C69 H72 0.930 . S
N70 Cd55 2.304 . S
N70 C65 1.337 . S
N70 C69 1.338 . S
H71 C65 0.929 . S
H72 C69 0.930 . S
C73 N74 1.332 . S
C73 C77 1.381 . S
C73 H79 0.931 . S
N74 Cd55 2.334 . S
N74 C73 1.332 . S
N74 C78 1.328 . S
C75 C76 1.396 . S
C75 C78 1.378 . S
C75 H104 0.931 . S
C76 C75 1.396 . S
C76 C77 1.382 . S
C77 C73 1.381 . S
C77 C76 1.382 . S
C77 H105 0.930 . S
C78 N74 1.328 . S
C78 C75 1.378 . S
C78 H80 0.930 . S
H79 C73 0.931 . S
H80 C78 0.930 . S
C81 O92 1.238 . S
C81 O93 1.253 . S
C82 O94 1.239 . S
C82 O95 1.230 . S
N83 Cd54 2.304 . S
N83 C84 1.337 . S
N83 C88 1.338 . S
C84 N83 1.337 . S
C84 C85 1.379 . S
C84 H98 0.929 . S
C85 C84 1.379 . S
C85 C86 1.380 . S
C85 H106 0.929 . S
C86 C85 1.380 . S
C86 C87 1.399 . S
C87 C86 1.399 . S
C87 C88 1.376 . S
C87 H107 0.931 . S
C88 N83 1.338 . S
C88 C87 1.376 . S
C88 H99 0.930 . S
C89 O96 1.239 . S
C89 O97 1.230 . S
O90 Cd54 2.268 . S
O90 C64 1.238 . S
O91 Cd55 2.273 . S
O91 C64 1.253 . S
O92 Cd55 2.268 . S
O92 C81 1.238 . S
O93 Cd54 2.273 . S
O93 C81 1.253 . S
O94 Cd54 2.417 . S
O94 C82 1.239 . S
O95 Cd54 2.330 . S
O95 C82 1.230 . S
O96 Cd55 2.417 1_556 S
O96 C89 1.239 . S
O97 Cd55 2.330 1_556 S
O97 C89 1.230 . S
H98 C84 0.929 . S
H99 C88 0.930 . S
H100 C58 0.931 . S
H101 C60 0.930 . S
H102 C66 0.929 . S
H103 C68 0.931 . S
H104 C75 0.931 . S
H105 C77 0.930 . S
H106 C85 0.929 . S
H107 C87 0.931 . S
Cd108 N111 2.334 . S
Cd108 N137 2.304 . S
Cd108 O144 2.268 . S
Cd108 O147 2.273 . S
Cd108 O148 2.417 . S
Cd108 O149 2.330 . S
Cd109 N124 2.304 . S
Cd109 N128 2.334 . S
Cd109 O145 2.273 . S
Cd109 O146 2.268 . S
Cd109 O150 2.417 . S
Cd109 O151 2.330 . S
C110 N111 1.332 . S
C110 C114 1.381 . S
C110 H116 0.931 . S
N111 Cd108 2.334 . S
N111 C110 1.332 . S
N111 C115 1.328 . S
C112 C113 1.396 . S
C112 C115 1.378 . S
C112 H154 0.931 . S
C113 C112 1.396 . S
C113 C114 1.382 . S
C114 C110 1.381 . S
C114 C113 1.382 . S
C114 H155 0.930 . S
C115 N111 1.328 . S
C115 C112 1.378 . S
C115 H117 0.930 . S
H116 C110 0.931 . S
H117 C115 0.930 . S
C118 O144 1.238 . S
C118 O145 1.253 . S
C119 C120 1.379 . S
C119 N124 1.337 . S
C119 H125 0.929 . S
C120 C119 1.379 . S
C120 C121 1.380 . S
C120 H156 0.929 1_455 S
C121 C120 1.380 . S
C121 C122 1.399 . S
C122 C121 1.399 . S
C122 C123 1.376 . S
C122 H157 0.931 1_545 S
C123 C122 1.376 . S
C123 N124 1.338 . S
C123 H126 0.930 . S
N124 Cd109 2.304 . S
N124 C119 1.337 . S
N124 C123 1.338 . S
H125 C119 0.929 . S
H126 C123 0.930 . S
C127 N128 1.332 . S
C127 C131 1.381 . S
C127 H133 0.931 . S
N128 Cd109 2.334 . S
N128 C127 1.332 . S
N128 C132 1.328 . S
C129 C130 1.396 . S
C129 C132 1.378 . S
C129 H158 0.931 . S
C130 C129 1.396 . S
C130 C131 1.382 . S
C131 C127 1.381 . S
C131 C130 1.382 . S
C131 H159 0.930 . S
C132 N128 1.328 . S
C132 C129 1.378 . S
C132 H134 0.930 . S
H133 C127 0.931 . S
H134 C132 0.930 . S
C135 O146 1.238 . S
C135 O147 1.253 . S
C136 O148 1.239 . S
C136 O149 1.230 . S
N137 Cd108 2.304 . S
N137 C138 1.337 . S
N137 C142 1.338 . S
C138 N137 1.337 . S
C138 C139 1.379 . S
C138 H152 0.929 . S
C139 C138 1.379 . S
C139 C140 1.380 . S
C139 H160 0.929 1_545 S
C140 C139 1.380 . S
C140 C141 1.399 . S
C141 C140 1.399 . S
C141 C142 1.376 . S
C141 H161 0.931 1_455 S
C142 N137 1.338 . S
C142 C141 1.376 . S
C142 H153 0.930 . S
C143 O150 1.239 . S
C143 O151 1.230 . S
O144 Cd108 2.268 . S
O144 C118 1.238 . S
O145 Cd109 2.273 . S
O145 C118 1.253 . S
O146 Cd109 2.268 . S
O146 C135 1.238 . S
O147 Cd108 2.273 . S
O147 C135 1.253 . S
O148 Cd108 2.417 . S
O148 C136 1.239 . S
O149 Cd108 2.330 . S
O149 C136 1.230 . S
O150 Cd109 2.417 . S
O150 C143 1.239 . S
O151 Cd109 2.330 . S
O151 C143 1.230 . S
H152 C138 0.929 . S
H153 C142 0.930 . S
H154 C112 0.931 . S
H155 C114 0.930 . S
H156 C120 0.929 1_655 S
H157 C122 0.931 1_565 S
H158 C129 0.931 . S
H159 C131 0.930 . S
H160 C139 0.929 1_565 S
H161 C141 0.931 1_655 S
Cd162 N165 2.334 . S
Cd162 N191 2.304 . S
Cd162 O198 2.268 . S
Cd162 O201 2.273 . S
Cd162 O202 2.417 . S
Cd162 O203 2.330 . S
Cd163 N178 2.304 . S
Cd163 N182 2.334 . S
Cd163 O199 2.273 . S
Cd163 O200 2.268 . S
Cd163 O204 2.417 1_556 S
Cd163 O205 2.330 1_556 S
C164 N165 1.332 . S
C164 C168 1.381 . S
C164 H170 0.931 . S
N165 Cd162 2.334 . S
N165 C164 1.332 . S
N165 C169 1.328 . S
C166 C167 1.396 . S
C166 C169 1.378 . S
C166 H208 0.931 . S
C167 C166 1.396 . S
C167 C168 1.382 . S
C168 C164 1.381 . S
C168 C167 1.382 . S
C168 H209 0.930 . S
C169 N165 1.328 . S
C169 C166 1.378 . S
C169 H171 0.930 . S
H170 C164 0.931 . S
H171 C169 0.930 . S
C172 O198 1.238 . S
C172 O199 1.253 . S
C173 C174 1.379 . S
C173 N178 1.337 . S
C173 H179 0.929 . S
C174 C173 1.379 . S
C174 C175 1.380 . S
C174 H210 0.929 . S
C175 C174 1.380 . S
C175 C176 1.399 . S
C176 C175 1.399 . S
C176 C177 1.376 . S
C176 H211 0.931 . S
C177 C176 1.376 . S
C177 N178 1.338 . S
C177 H180 0.930 . S
N178 Cd163 2.304 . S
N178 C173 1.337 . S
N178 C177 1.338 . S
H179 C173 0.929 . S
H180 C177 0.930 . S
C181 N182 1.332 . S
C181 C185 1.381 . S
C181 H187 0.931 . S
N182 Cd163 2.334 . S
N182 C181 1.332 . S
N182 C186 1.328 . S
C183 C184 1.396 . S
C183 C186 1.378 . S
C183 H212 0.931 . S
C184 C183 1.396 . S
C184 C185 1.382 . S
C185 C181 1.381 . S
C185 C184 1.382 . S
C185 H213 0.930 . S
C186 N182 1.328 . S
C186 C183 1.378 . S
C186 H188 0.930 . S
H187 C181 0.931 . S
H188 C186 0.930 . S
C189 O200 1.238 . S
C189 O201 1.253 . S
C190 O202 1.239 . S
C190 O203 1.230 . S
N191 Cd162 2.304 . S
N191 C192 1.337 . S
N191 C196 1.338 . S
C192 N191 1.337 . S
C192 C193 1.379 . S
C192 H206 0.929 . S
C193 C192 1.379 . S
C193 C194 1.380 . S
C193 H214 0.929 . S
C194 C193 1.380 . S
C194 C195 1.399 . S
C195 C194 1.399 . S
C195 C196 1.376 . S
C195 H215 0.931 . S
C196 N191 1.338 . S
C196 C195 1.376 . S
C196 H207 0.930 . S
C197 O204 1.239 . S
C197 O205 1.230 . S
O198 Cd162 2.268 . S
O198 C172 1.238 . S
O199 Cd163 2.273 . S
O199 C172 1.253 . S
O200 Cd163 2.268 . S
O200 C189 1.238 . S
O201 Cd162 2.273 . S
O201 C189 1.253 . S
O202 Cd162 2.417 . S
O202 C190 1.239 . S
O203 Cd162 2.330 . S
O203 C190 1.230 . S
O204 Cd163 2.417 1_554 S
O204 C197 1.239 . S
O205 Cd163 2.330 1_554 S
O205 C197 1.230 . S
H206 C192 0.929 . S
H207 C196 0.930 . S
H208 C166 0.931 . S
H209 C168 0.930 . S
H210 C174 0.929 . S
H211 C176 0.931 . S
H212 C183 0.931 . S
H213 C185 0.930 . S
H214 C193 0.929 . S
H215 C195 0.931 . S
C216 C217 1.363 . S
C216 C222 1.379 . S
C216 N224 1.356 . S
C217 C216 1.363 . S
C217 C223 1.363 . S
C218 C219 1.363 . S
C218 C223 1.379 . S
C218 N225 1.356 . S
C219 C218 1.363 . S
C219 C222 1.363 . S
N220 C222 1.356 . S
N220 H232 0.984 . S
N220 H233 0.985 . S
N221 C223 1.356 . S
N221 H226 0.984 . S
N221 H227 0.985 . S
C222 C216 1.379 . S
C222 C219 1.363 . S
C222 N220 1.356 . S
C223 C217 1.363 . S
C223 C218 1.379 . S
C223 N221 1.356 . S
N224 C216 1.356 . S
N224 H230 0.984 . S
N224 H231 0.984 . S
N225 C218 1.356 . S
N225 H228 0.984 . S
N225 H229 0.985 . S
H226 N221 0.984 . S
H227 N221 0.985 . S
H228 N225 0.984 . S
H229 N225 0.985 . S
H230 N224 0.984 . S
H231 N224 0.984 . S
H232 N220 0.984 . S
H233 N220 0.985 . S
C234 C235 1.363 . S
C234 C240 1.379 . S
C234 N242 1.356 . S
C235 C234 1.363 . S
C235 C241 1.363 . S
C236 C237 1.363 . S
C236 C241 1.379 . S
C236 N243 1.356 . S
C237 C236 1.363 . S
C237 C240 1.363 . S
N238 C240 1.356 . S
N238 H250 0.984 . S
N238 H251 0.985 . S
N239 C241 1.356 . S
N239 H244 0.984 . S
N239 H245 0.985 . S
C240 C234 1.379 . S
C240 C237 1.363 . S
C240 N238 1.356 . S
C241 C235 1.363 . S
C241 C236 1.379 . S
C241 N239 1.356 . S
N242 C234 1.356 . S
N242 H248 0.984 . S
N242 H249 0.984 . S
N243 C236 1.356 . S
N243 H246 0.984 . S
N243 H247 0.985 . S
H244 N239 0.984 . S
H245 N239 0.985 . S
H246 N243 0.984 . S
H247 N243 0.985 . S
H248 N242 0.984 . S
H249 N242 0.984 . S
H250 N238 0.984 . S
H251 N238 0.985 . S
C252 C253 1.363 . S
C252 C258 1.379 1_556 S
C252 N260 1.356 . S
C253 C252 1.363 . S
C253 C259 1.363 . S
C254 C255 1.363 . S
C254 C259 1.379 1_554 S
C254 N261 1.356 . S
C255 C254 1.363 . S
C255 C258 1.363 . S
N256 C258 1.356 . S
N256 H268 0.984 . S
N256 H269 0.985 . S
N257 C259 1.356 . S
N257 H262 0.984 . S
N257 H263 0.985 . S
C258 C252 1.379 1_554 S
C258 C255 1.363 . S
C258 N256 1.356 . S
C259 C253 1.363 . S
C259 C254 1.379 1_556 S
C259 N257 1.356 . S
N260 C252 1.356 . S
N260 H266 0.984 . S
N260 H267 0.984 . S
N261 C254 1.356 . S
N261 H264 0.984 . S
N261 H265 0.985 . S
H262 N257 0.984 . S
H263 N257 0.985 . S
H264 N261 0.984 . S
H265 N261 0.985 . S
H266 N260 0.984 . S
H267 N260 0.984 . S
H268 N256 0.984 . S
H269 N256 0.985 . S
C270 C271 1.363 . S
C270 C276 1.379 . S
C270 N278 1.356 . S
C271 C270 1.363 . S
C271 C277 1.363 . S
C272 C273 1.363 . S
C272 C277 1.379 . S
C272 N279 1.356 . S
C273 C272 1.363 . S
C273 C276 1.363 . S
N274 C276 1.356 . S
N274 H286 0.984 . S
N274 H287 0.985 . S
N275 C277 1.356 . S
N275 H280 0.984 . S
N275 H281 0.985 . S
C276 C270 1.379 . S
C276 C273 1.363 . S
C276 N274 1.356 . S
C277 C271 1.363 . S
C277 C272 1.379 . S
C277 N275 1.356 . S
N278 C270 1.356 . S
N278 H284 0.984 . S
N278 H285 0.984 . S
N279 C272 1.356 . S
N279 H282 0.984 . S
N279 H283 0.985 . S
H280 N275 0.984 . S
H281 N275 0.985 . S
H282 N279 0.984 . S
H283 N279 0.985 . S
H284 N278 0.984 . S
H285 N278 0.984 . S
H286 N274 0.984 . S
H287 N274 0.985 . S
C288 C289 1.363 . S
C288 C294 1.379 . S
C288 N296 1.356 . S
C289 C288 1.363 . S
C289 C295 1.363 . S
C290 C291 1.363 . S
C290 C295 1.379 . S
C290 N297 1.356 . S
C291 C290 1.363 . S
C291 C294 1.363 . S
N292 C294 1.356 . S
N292 H304 0.984 . S
N292 H305 0.985 . S
N293 C295 1.356 . S
N293 H298 0.984 . S
N293 H299 0.985 . S
C294 C288 1.379 . S
C294 C291 1.363 . S
C294 N292 1.356 . S
C295 C289 1.363 . S
C295 C290 1.379 . S
C295 N293 1.356 . S
N296 C288 1.356 . S
N296 H302 0.984 . S
N296 H303 0.984 . S
N297 C290 1.356 . S
N297 H300 0.984 . S
N297 H301 0.985 . S
H298 N293 0.984 . S
H299 N293 0.985 . S
H300 N297 0.984 . S
H301 N297 0.985 . S
H302 N296 0.984 . S
H303 N296 0.984 . S
H304 N292 0.984 . S
H305 N292 0.985 . S
C306 C307 1.363 . S
C306 C312 1.401 . S
C306 N314 1.356 . S
C307 C306 1.363 . S
C307 C313 1.363 . S
C308 C309 1.363 1_545 S
C308 C313 1.379 . S
C308 N315 1.357 1_554 S
C309 C308 1.363 1_565 S
C309 C312 1.357 1_565 S
N310 C312 1.335 1_565 S
N310 H322 0.984 . S
N310 H323 0.985 . S
N311 C313 1.356 1_556 S
N311 H316 0.984 1_556 S
N311 H317 0.985 . S
C312 C306 1.401 . S
C312 C309 1.357 1_545 S
C312 N310 1.335 1_545 S
C313 C307 1.363 . S
C313 C308 1.379 . S
C313 N311 1.356 1_554 S
N314 C306 1.356 . S
N314 H320 0.984 . S
N314 H321 0.984 . S
N315 C308 1.357 1_556 S
N315 H318 0.982 1_545 S
N315 H319 0.986 . S
H316 N311 0.984 1_554 S
H317 N311 0.985 . S
H318 N315 0.982 1_565 S
H319 N315 0.986 . S
H320 N314 0.984 . S
H321 N314 0.984 . S
H322 N310 0.984 . S
H323 N310 0.985 . S
C324 C325 1.363 . S
C324 C330 1.379 . S
C324 N332 1.356 . S
C325 C324 1.363 . S
C325 C331 1.363 . S
C326 C327 1.363 . S
C326 C331 1.379 . S
C326 N333 1.356 . S
C327 C326 1.363 . S
C327 C330 1.363 . S
N328 C330 1.356 . S
N328 H340 0.984 . S
N328 H341 0.985 . S
N329 C331 1.356 . S
N329 H334 0.984 . S
N329 H335 0.985 . S
C330 C324 1.379 . S
C330 C327 1.363 . S
C330 N328 1.356 . S
C331 C325 1.363 . S
C331 C326 1.379 . S
C331 N329 1.356 . S
N332 C324 1.356 . S
N332 H338 0.984 . S
N332 H339 0.984 . S
N333 C326 1.356 . S
N333 H336 0.984 . S
N333 H337 0.985 . S
H334 N329 0.984 . S
H335 N329 0.985 . S
H336 N333 0.984 . S
H337 N333 0.985 . S
H338 N332 0.984 . S
H339 N332 0.984 . S
H340 N328 0.984 . S
H341 N328 0.985 . S
C342 C343 1.363 . S
C342 C348 1.379 . S
C342 N350 1.356 . S
C343 C342 1.363 . S
C343 C349 1.363 . S
C344 C345 1.363 1_565 S
C344 C349 1.379 . S
C344 N351 1.356 1_565 S
C345 C344 1.363 1_545 S
C345 C348 1.363 1_545 S
N346 C348 1.356 1_545 S
N346 H358 0.984 1_545 S
N346 H359 0.985 . S
N347 C349 1.356 . S
N347 H352 0.984 . S
N347 H353 0.985 . S
C348 C342 1.379 . S
C348 C345 1.363 1_565 S
C348 N346 1.356 1_565 S
C349 C343 1.363 . S
C349 C344 1.379 . S
C349 N347 1.356 . S
N350 C342 1.356 . S
N350 H356 0.984 . S
N350 H357 0.984 . S
N351 C344 1.356 1_545 S
N351 H354 0.984 . S
N351 H355 0.985 . S
H352 N347 0.984 . S
H353 N347 0.985 . S
H354 N351 0.984 . S
H355 N351 0.985 . S
H356 N350 0.984 . S
H357 N350 0.984 . S
H358 N346 0.984 1_565 S
H359 N346 0.985 . S
C360 C361 1.363 1_455 S
C360 C366 1.379 . S
C360 N368 1.351 1_456 S
C361 C360 1.363 1_655 S
C361 C367 1.363 1_655 S
C362 C363 1.363 . S
C362 C367 1.379 . S
C362 N369 1.356 . S
C363 C362 1.363 . S
C363 C366 1.363 . S
N364 C366 1.356 . S
N364 H376 0.984 . S
N364 H377 0.985 . S
N365 C367 1.356 1_655 S
N365 H370 0.984 . S
N365 H371 0.985 1_655 S
C366 C360 1.379 . S
C366 C363 1.363 . S
C366 N364 1.356 . S
C367 C361 1.363 1_455 S
C367 C362 1.379 . S
C367 N365 1.356 1_455 S
N368 C360 1.351 1_654 S
N368 H374 0.990 . S
N368 H375 0.985 . S
N369 C362 1.356 . S
N369 H372 0.984 . S
N369 H373 0.985 . S
H370 N365 0.984 . S
H371 N365 0.985 1_455 S
H372 N369 0.984 . S
H373 N369 0.985 . S
H374 N368 0.990 . S
H375 N368 0.985 . S
H376 N364 0.984 . S
H377 N364 0.985 . S
C378 C379 1.363 . S
C378 C384 1.379 . S
C378 N386 1.356 . S
C379 C378 1.363 . S
C379 C385 1.363 . S
C380 C381 1.363 . S
C380 C385 1.379 . S
C380 N387 1.356 . S
C381 C380 1.363 . S
C381 C384 1.363 . S
N382 C384 1.356 . S
N382 H394 0.984 . S
N382 H395 0.985 . S
N383 C385 1.356 . S
N383 H388 0.984 . S
N383 H389 0.986 . S
C384 C378 1.379 . S
C384 C381 1.363 . S
C384 N382 1.356 . S
C385 C379 1.363 . S
C385 C380 1.379 . S
C385 N383 1.356 . S
N386 C378 1.356 . S
N386 H392 0.984 . S
N386 H393 0.984 . S
N387 C380 1.356 . S
N387 H390 0.984 . S
N387 H391 0.985 1_554 S
H388 N383 0.984 . S
H389 N383 0.986 . S
H390 N387 0.984 . S
H391 N387 0.985 1_556 S
H392 N386 0.984 . S
H393 N386 0.984 . S
H394 N382 0.984 . S
H395 N382 0.985 . S
C396 C397 1.363 . S
C396 C402 1.390 . S
C396 N404 1.356 . S
C397 C396 1.363 . S
C397 C403 1.363 . S
C398 C399 1.363 1_655 S
C398 C403 1.379 . S
C398 N405 1.368 . S
C399 C398 1.363 1_455 S
C399 C402 1.360 1_455 S
N400 C402 1.346 1_455 S
N400 H412 0.984 . S
N400 H413 0.985 . S
N401 C403 1.356 . S
N401 H406 0.984 . S
N401 H407 0.985 . S
C402 C396 1.390 . S
C402 C399 1.360 1_655 S
C402 N400 1.346 1_655 S
C403 C397 1.363 . S
C403 C398 1.379 . S
C403 N401 1.356 . S
N404 C396 1.356 . S
N404 H410 0.984 . S
N404 H411 0.984 . S
N405 C398 1.368 . S
N405 H408 0.961 1_655 S
N405 H409 0.997 . S
H406 N401 0.984 . S
H407 N401 0.985 . S
H408 N405 0.961 1_455 S
H409 N405 0.997 . S
H410 N404 0.984 . S
H411 N404 0.984 . S
H412 N400 0.984 . S
H413 N400 0.985 . S
C414 C415 1.363 . S
C414 C420 1.379 . S
C414 N422 1.356 . S
C415 C414 1.363 . S
C415 C421 1.363 . S
C416 C417 1.363 . S
C416 C421 1.379 . S
C416 N423 1.356 . S
C417 C416 1.363 . S
C417 C420 1.363 . S
N418 C420 1.356 . S
N418 H430 0.984 . S
N418 H431 0.985 . S
N419 C421 1.356 . S
N419 H424 0.984 . S
N419 H425 0.985 . S
C420 C414 1.379 . S
C420 C417 1.363 . S
C420 N418 1.356 . S
C421 C415 1.363 . S
C421 C416 1.379 . S
C421 N419 1.356 . S
N422 C414 1.356 . S
N422 H428 0.984 . S
N422 H429 0.984 . S
N423 C416 1.356 . S
N423 H426 0.984 . S
N423 H427 0.985 . S
H424 N419 0.984 . S
H425 N419 0.985 . S
H426 N423 0.984 . S
H427 N423 0.985 . S
H428 N422 0.984 . S
H429 N422 0.984 . S
H430 N418 0.984 . S
H431 N418 0.985 . S
C432 C433 1.363 1_645 S
C432 C438 1.379 . S
C432 N440 1.356 . S
C433 C432 1.363 1_465 S
C433 C439 1.363 . S
C434 C435 1.363 . S
C434 C439 1.379 . S
C434 N441 1.356 . S
C435 C434 1.363 . S
C435 C438 1.363 1_465 S
N436 C438 1.356 . S
N436 H448 0.984 . S
N436 H449 0.985 . S
N437 C439 1.356 . S
N437 H442 0.984 . S
N437 H443 0.985 . S
C438 C432 1.379 . S
C438 C435 1.363 1_645 S
C438 N436 1.356 . S
C439 C433 1.363 . S
C439 C434 1.379 . S
C439 N437 1.356 . S
N440 C432 1.356 . S
N440 H446 0.984 . S
N440 H447 0.989 . S
N441 C434 1.356 . S
N441 H444 0.984 . S
N441 H445 0.985 . S
H442 N437 0.984 . S
H443 N437 0.985 . S
H444 N441 0.984 . S
H445 N441 0.985 . S
H446 N440 0.984 . S
H447 N440 0.989 . S
H448 N436 0.984 . S
H449 N436 0.985 . S
C450 C451 1.363 . S
C450 C456 1.379 . S
C450 N458 1.356 . S
C451 C450 1.363 . S
C451 C457 1.363 . S
C452 C453 1.363 . S
C452 C457 1.379 . S
C452 N459 1.356 . S
C453 C452 1.363 . S
C453 C456 1.363 . S
N454 C456 1.356 . S
N454 H466 0.984 . S
N454 H467 0.985 . S
N455 C457 1.356 . S
N455 H460 0.984 . S
N455 H461 0.985 . S
C456 C450 1.379 . S
C456 C453 1.363 . S
C456 N454 1.356 . S
C457 C451 1.363 . S
C457 C452 1.379 . S
C457 N455 1.356 . S
N458 C450 1.356 . S
N458 H464 0.984 . S
N458 H465 0.984 . S
N459 C452 1.356 . S
N459 H462 0.984 . S
N459 H463 0.985 . S
H460 N455 0.984 . S
H461 N455 0.985 . S
H462 N459 0.984 . S
H463 N459 0.985 . S
H464 N458 0.984 . S
H465 N458 0.984 . S
H466 N454 0.984 . S
H467 N454 0.985 . S
C468 C469 1.363 1_565 S
C468 C474 1.379 . S
C468 N476 1.356 . S
C469 C468 1.363 1_545 S
C469 C475 1.363 1_655 S
C470 C471 1.363 1_455 S
C470 C475 1.379 . S
C470 N477 1.356 . S
C471 C470 1.363 1_655 S
C471 C474 1.363 1_545 S
N472 C474 1.356 . S
N472 H484 0.984 . S
N472 H485 0.985 . S
N473 C475 1.356 . S
N473 H478 0.984 . S
N473 H479 0.985 . S
C474 C468 1.379 . S
C474 C471 1.363 1_565 S
C474 N472 1.356 . S
C475 C469 1.363 1_455 S
C475 C470 1.379 . S
C475 N473 1.356 . S
N476 C468 1.356 . S
N476 H482 0.984 . S
N476 H483 0.984 . S
N477 C470 1.356 . S
N477 H480 0.984 . S
N477 H481 0.985 . S
H478 N473 0.984 . S
H479 N473 0.985 . S
H480 N477 0.984 . S
H481 N477 0.985 . S
H482 N476 0.984 . S
H483 N476 0.984 . S
H484 N472 0.984 . S
H485 N472 0.985 . S
C486 C487 1.363 . S
C486 C492 1.379 1_554 S
C486 N494 1.356 . S
C487 C486 1.363 . S
C487 C493 1.363 . S
C488 C489 1.363 . S
C488 C493 1.379 1_556 S
C488 N495 1.356 . S
C489 C488 1.363 . S
C489 C492 1.363 . S
N490 C492 1.356 . S
N490 H502 0.984 . S
N490 H503 0.985 . S
N491 C493 1.356 . S
N491 H496 0.984 . S
N491 H497 0.985 . S
C492 C486 1.379 1_556 S
C492 C489 1.363 . S
C492 N490 1.356 . S
C493 C487 1.363 . S
C493 C488 1.379 1_554 S
C493 N491 1.356 . S
N494 C486 1.356 . S
N494 H500 0.984 . S
N494 H501 0.984 . S
N495 C488 1.356 . S
N495 H498 0.984 . S
N495 H499 0.985 . S
H496 N491 0.984 . S
H497 N491 0.985 . S
H498 N495 0.984 . S
H499 N495 0.985 . S
H500 N494 0.984 . S
H501 N494 0.984 . S
H502 N490 0.984 . S
H503 N490 0.985 . S
C217 C28 1.154 . S
C219 C35 1.154 . S
C235 C82 1.154 . S
C237 C89 1.154 . S
C253 C143 1.154 . S
C255 C136 1.154 . S
C271 C197 1.154 . S
C273 C190 1.154 . S
C289 C189 2.459 . S
C291 C22 2.442 . S
C307 C76 2.442 . S
C309 C10 2.458 . S
C325 C113 2.442 . S
C327 C64 2.459 . S
C343 C167 2.442 . S
C345 C135 2.459 . S
C361 C27 2.459 . S
C363 C184 2.442 . S
C379 C81 2.459 . S
C381 C5 2.442 . S
C397 C59 2.442 . S
C399 C118 2.459 . S
C415 C130 2.442 . S
C417 C172 2.459 . S
C433 C140 0.975 1_565 S
C435 C32 0.974 1_455 S
C451 C86 0.975 . S
C453 C194 0.975 . S
C469 C121 0.975 1_655 S
C471 C13 0.975 1_545 S
C487 C67 0.975 . S
C489 C175 0.975 . S
