# Generated by pormake.
# Topology ske, (6)-cn, num edge types: 1
# Building blocks:
#     Node 0, Type 0, BuildingBlock: UKALOJ_clean_sbu_0, # of connection points: 6
#     Node 1, Type 0, BuildingBlock: UKALOJ_clean_sbu_0, # of connection points: 6
#     Node 2, Type 0, BuildingBlock: UKALOJ_clean_sbu_0, # of connection points: 6
#     Node 3, Type 0, BuildingBlock: UKALOJ_clean_sbu_0, # of connection points: 6
#     Node 4, Type 0, BuildingBlock: UKALOJ_clean_sbu_0, # of connection points: 6
#     Node 5, Type 0, BuildingBlock: UKALOJ_clean_sbu_0, # of connection points: 6
#     Node 6, Type 0, BuildingBlock: UKALOJ_clean_sbu_0, # of connection points: 6
#     Node 7, Type 0, BuildingBlock: UKALOJ_clean_sbu_0, # of connection points: 6
#     Edge 8, Type (0, 0), BuildingBlock: XIVTED_clean_linker_0, # of connection points: 2
#     Edge 9, Type (0, 0), BuildingBlock: XIVTED_clean_linker_0, # of connection points: 2
#     Edge 10, Type (0, 0), BuildingBlock: XIVTED_clean_linker_0, # of connection points: 2
#     Edge 11, Type (0, 0), BuildingBlock: XIVTED_clean_linker_0, # of connection points: 2
#     Edge 12, Type (0, 0), BuildingBlock: XIVTED_clean_linker_0, # of connection points: 2
#     Edge 13, Type (0, 0), BuildingBlock: XIVTED_clean_linker_0, # of connection points: 2
#     Edge 14, Type (0, 0), BuildingBlock: XIVTED_clean_linker_0, # of connection points: 2
#     Edge 15, Type (0, 0), BuildingBlock: XIVTED_clean_linker_0, # of connection points: 2
#     Edge 16, Type (0, 0), BuildingBlock: XIVTED_clean_linker_0, # of connection points: 2
#     Edge 17, Type (0, 0), BuildingBlock: XIVTED_clean_linker_0, # of connection points: 2
#     Edge 18, Type (0, 0), BuildingBlock: XIVTED_clean_linker_0, # of connection points: 2
#     Edge 19, Type (0, 0), BuildingBlock: XIVTED_clean_linker_0, # of connection points: 2
#     Edge 20, Type (0, 0), BuildingBlock: XIVTED_clean_linker_0, # of connection points: 2
#     Edge 21, Type (0, 0), BuildingBlock: XIVTED_clean_linker_0, # of connection points: 2
#     Edge 22, Type (0, 0), BuildingBlock: XIVTED_clean_linker_0, # of connection points: 2
#     Edge 23, Type (0, 0), BuildingBlock: XIVTED_clean_linker_0, # of connection points: 2
#     Edge 24, Type (0, 0), BuildingBlock: XIVTED_clean_linker_0, # of connection points: 2
#     Edge 25, Type (0, 0), BuildingBlock: XIVTED_clean_linker_0, # of connection points: 2
#     Edge 26, Type (0, 0), BuildingBlock: XIVTED_clean_linker_0, # of connection points: 2
#     Edge 27, Type (0, 0), BuildingBlock: XIVTED_clean_linker_0, # of connection points: 2
#     Edge 28, Type (0, 0), BuildingBlock: XIVTED_clean_linker_0, # of connection points: 2
#     Edge 29, Type (0, 0), BuildingBlock: XIVTED_clean_linker_0, # of connection points: 2
#     Edge 30, Type (0, 0), BuildingBlock: XIVTED_clean_linker_0, # of connection points: 2
#     Edge 31, Type (0, 0), BuildingBlock: XIVTED_clean_linker_0, # of connection points: 2
# Relax obj value: 0.072
# Max RMSD: 0.118
# Mean RMSD: 0.118
data_MOF--net-ske--node1-UKALOJ_clean_sbu_0--edge1-XIVTED_clean_linker_0
_symmetry_space_group_name_H-M    P1
_symmetry_Int_Tables_number       1
_symmetry_cell_setting            triclinic
loop_
_symmetry_equiv_pos_as_xyz
'x, y, z'
_cell_length_a     58.327383
_cell_length_b     40.898973
_cell_length_c     15.234151
_cell_angle_alpha  89.99292
_cell_angle_beta   89.917334
_cell_angle_gamma 90.239595
loop_
_atom_site_label
_atom_site_type_symbol
_atom_site_fract_x
_atom_site_fract_y
_atom_site_fract_z
_atom_type_partial_charge
Zn0 Zn 0.13445 0.28819 0.50842 0.0
O1 O 0.12753 0.2939 0.64322 0.0
C2 C 0.18027 0.26517 0.55072 0.0
Zn3 Zn 0.13433 0.23374 0.51119 0.0
C4 C 0.12568 0.26715 0.68534 0.0
O5 O 0.12724 0.24015 0.64473 0.0
C6 C 0.14329 0.25466 0.3342 0.0
O7 O 0.09879 0.23062 0.48488 0.0
O8 O 0.09899 0.28435 0.48206 0.0
N9 N 0.13678 0.18459 0.53434 0.0
C10 C 0.12932 0.157 0.49472 0.0
C11 C 0.15026 0.14266 0.60255 0.0
N12 N 0.1496 0.17549 0.60161 0.0
N13 N 0.13761 0.13035 0.53643 0.0
C14 C 0.13867 0.36476 0.52553 0.0
C15 C 0.12867 0.37845 0.39599 0.0
N16 N 0.13299 0.3371 0.48238 0.0
N17 N 0.12672 0.3458 0.40219 0.0
N18 N 0.13622 0.39094 0.47231 0.0
H19 H 0.13288 0.3663 0.66368 0.0
H20 H 0.15822 0.38802 0.62842 0.0
H21 H 0.15786 0.34366 0.6318 0.0
C22 C 0.14761 0.3658 0.61753 0.0
C23 C 0.115 0.15622 0.41326 0.0
H24 H 0.11363 0.18076 0.38318 0.0
H25 H 0.09749 0.1476 0.43026 0.0
H26 H 0.12238 0.13873 0.36533 0.0
O27 O 0.14143 0.22799 0.37634 0.0
O28 O 0.14158 0.28156 0.37487 0.0
C29 C 0.08809 0.25746 0.47567 0.0
O30 O 0.16953 0.2916 0.53677 0.0
O31 O 0.16991 0.238 0.54057 0.0
Zn32 Zn 0.87084 0.28979 0.51382 0.0
O33 O 0.90641 0.29249 0.48788 0.0
C34 C 0.86201 0.26969 0.33629 0.0
Zn35 Zn 0.87044 0.23535 0.50968 0.0
C36 C 0.91699 0.2656 0.47778 0.0
O37 O 0.90596 0.23878 0.48332 0.0
C38 C 0.82467 0.25891 0.5523 0.0
O39 O 0.87725 0.22904 0.64421 0.0
O40 O 0.87767 0.28277 0.64726 0.0
N41 N 0.87155 0.1865 0.48245 0.0
C42 C 0.86588 0.15879 0.52546 0.0
C43 C 0.87555 0.14529 0.39532 0.0
N44 N 0.87762 0.17792 0.40186 0.0
N45 N 0.86814 0.13269 0.4718 0.0
C46 C 0.87634 0.36648 0.49894 0.0
C47 C 0.85559 0.38079 0.60754 0.0
N48 N 0.86874 0.33888 0.53821 0.0
N49 N 0.85604 0.34796 0.60597 0.0
N50 N 0.86826 0.39312 0.54135 0.0
H51 H 0.8921 0.34274 0.38728 0.0
H52 H 0.90802 0.37627 0.43339 0.0
H53 H 0.88299 0.38459 0.36912 0.0
C54 C 0.89057 0.36732 0.41706 0.0
C55 C 0.8571 0.15765 0.61779 0.0
H56 H 0.84683 0.17973 0.63248 0.0
H57 H 0.87191 0.15718 0.6634 0.0
H58 H 0.84655 0.13539 0.62896 0.0
O59 O 0.83526 0.23236 0.53818 0.0
O60 O 0.83522 0.28596 0.54257 0.0
C61 C 0.8791 0.25559 0.68712 0.0
O62 O 0.86396 0.29615 0.3792 0.0
O63 O 0.86348 0.2426 0.37625 0.0
Zn64 Zn 0.13462 0.78856 0.43835 0.0
O65 O 0.09918 0.79427 0.46405 0.0
C66 C 0.14308 0.76737 0.61583 0.0
Zn67 Zn 0.13388 0.73415 0.44239 0.0
C68 C 0.08817 0.76763 0.47415 0.0
O69 O 0.09874 0.74066 0.46822 0.0
C70 C 0.17997 0.7543 0.40007 0.0
O71 O 0.12679 0.72873 0.30788 0.0
O72 O 0.12759 0.78247 0.30482 0.0
N73 N 0.12931 0.68576 0.46966 0.0
C74 C 0.13719 0.6569 0.43936 0.0
C75 C 0.11567 0.64676 0.5493 0.0
N76 N 0.11598 0.67924 0.53782 0.0
N77 N 0.12888 0.63187 0.48883 0.0
C78 C 0.1314 0.86536 0.4526 0.0
C79 C 0.15438 0.87886 0.34971 0.0
N80 N 0.13904 0.83748 0.41539 0.0
N81 N 0.15317 0.84605 0.35123 0.0
N82 N 0.14081 0.89169 0.41234 0.0
H83 H 0.09809 0.87217 0.50749 0.0
H84 H 0.12113 0.88641 0.57587 0.0
H85 H 0.11529 0.84299 0.56559 0.0
C86 C 0.1157 0.86666 0.53038 0.0
C87 C 0.15214 0.65375 0.35988 0.0
H88 H 0.15054 0.67554 0.31714 0.0
H89 H 0.14755 0.63147 0.32213 0.0
H90 H 0.1703 0.65197 0.38091 0.0
O91 O 0.16882 0.72806 0.41416 0.0
O92 O 0.17003 0.78171 0.40981 0.0
C93 C 0.12552 0.75535 0.26498 0.0
O94 O 0.14165 0.79392 0.57301 0.0
O95 O 0.14108 0.74034 0.57582 0.0
Zn96 Zn 0.87125 0.78924 0.44541 0.0
O97 O 0.87825 0.79492 0.31094 0.0
C98 C 0.82533 0.76778 0.40447 0.0
Zn99 Zn 0.8711 0.73482 0.4418 0.0
C100 C 0.87973 0.76832 0.26811 0.0
O101 O 0.87792 0.74118 0.30806 0.0
C102 C 0.86249 0.75574 0.61916 0.0
O103 O 0.90657 0.73002 0.46655 0.0
O104 O 0.90652 0.78363 0.47071 0.0
N105 N 0.86725 0.68586 0.41856 0.0
C106 C 0.87488 0.65806 0.45614 0.0
C107 C 0.85236 0.64432 0.35227 0.0
N108 N 0.85342 0.67714 0.35377 0.0
N109 N 0.86574 0.63164 0.41553 0.0
C110 C 0.86733 0.86652 0.44194 0.0
C111 C 0.88835 0.87692 0.55291 0.0
N112 N 0.87519 0.83775 0.47284 0.0
N113 N 0.88819 0.84442 0.54166 0.0
N114 N 0.87536 0.89166 0.49163 0.0
H115 H 0.85434 0.84758 0.31962 0.0
H116 H 0.85747 0.89165 0.32373 0.0
H117 H 0.83445 0.87148 0.38204 0.0
C118 C 0.85267 0.86952 0.36178 0.0
C119 C 0.8903 0.65689 0.53459 0.0
H120 H 0.891 0.68081 0.56844 0.0
H121 H 0.90788 0.65057 0.51279 0.0
H122 H 0.88438 0.63768 0.58093 0.0
O123 O 0.86425 0.72921 0.57649 0.0
O124 O 0.86413 0.7828 0.57898 0.0
C125 C 0.91734 0.75685 0.47634 0.0
O126 O 0.83618 0.79435 0.41753 0.0
O127 O 0.83562 0.74067 0.41448 0.0
Zn128 Zn 0.63531 0.79025 0.00972 0.0
O129 O 0.62871 0.79693 0.14449 0.0
C130 C 0.68082 0.76551 0.05224 0.0
Zn131 Zn 0.6344 0.7358 0.01445 0.0
C132 C 0.62651 0.77045 0.18756 0.0
O133 O 0.6276 0.74323 0.14779 0.0
C134 C 0.6433 0.75545 0.83653 0.0
O135 O 0.59874 0.73439 -0.01141 0.0
O136 O 0.59985 0.78808 -0.01576 0.0
N137 N 0.63539 0.6866 0.03922 0.0
C138 C 0.62966 0.65943 -0.00615 0.0
C139 C 0.64513 0.64395 0.11352 0.0
N140 N 0.64483 0.67682 0.1137 0.0
N141 N 0.63559 0.63238 0.03934 0.0
C142 C 0.6405 0.86674 0.02566 0.0
C143 C 0.63185 0.88039 0.89467 0.0
N144 N 0.635 0.83911 -0.01792 0.0
N145 N 0.62959 0.84778 0.90093 0.0
N146 N 0.63876 0.89289 0.97186 0.0
H147 H 0.65919 0.84593 0.13342 0.0
H148 H 0.63354 0.86744 0.16311 0.0
H149 H 0.65876 0.89027 0.13162 0.0
C150 C 0.64864 0.86775 0.11875 0.0
C151 C 0.62019 0.65958 0.90259 0.0
H152 H 0.6096 0.63749 0.89031 0.0
H153 H 0.63465 0.65961 0.85518 0.0
H154 H 0.60978 0.6818 0.89137 0.0
O155 O 0.64116 0.72905 0.87968 0.0
O156 O 0.64206 0.78259 0.87631 0.0
C157 C 0.5885 0.76157 -0.0212 0.0
O158 O 0.67042 0.79212 0.03721 0.0
O159 O 0.67012 0.73851 0.04353 0.0
Zn160 Zn 0.371 0.73564 0.00927 0.0
O161 O 0.37751 0.72972 0.14384 0.0
C162 C 0.32496 0.757 0.04905 0.0
Zn163 Zn 0.37092 0.78991 0.01342 0.0
C164 C 0.37899 0.7563 0.1868 0.0
O165 O 0.37729 0.78345 0.14704 0.0
C166 C 0.36285 0.76915 0.83578 0.0
O167 O 0.40665 0.79441 -0.00948 0.0
O168 O 0.40644 0.74092 -0.01472 0.0
N169 N 0.36788 0.83892 0.03595 0.0
C170 C 0.37437 0.86599 -0.00833 0.0
C171 C 0.35833 0.8816 0.1102 0.0
N172 N 0.3579 0.84874 0.10939 0.0
N173 N 0.36852 0.89319 0.03705 0.0
C174 C 0.36672 0.65856 0.01284 0.0
C175 C 0.38988 0.64811 0.90809 0.0
N176 N 0.3748 0.68737 -0.01756 0.0
N177 N 0.38903 0.68067 0.91716 0.0
N178 N 0.37599 0.63357 0.967 0.0
H179 H 0.35507 0.63327 0.12847 0.0
H180 H 0.33293 0.65174 0.06344 0.0
H181 H 0.35096 0.67729 0.13055 0.0
C182 C 0.35061 0.65509 0.08881 0.0
C183 C 0.3873 0.86548 0.90658 0.0
H184 H 0.39665 0.84223 0.89802 0.0
H185 H 0.39962 0.88619 0.9032 0.0
H186 H 0.37497 0.86771 0.85155 0.0
O187 O 0.36461 0.79568 0.87855 0.0
O188 O 0.36436 0.74208 0.87581 0.0
C189 C 0.41739 0.76772 -0.01943 0.0
O190 O 0.33588 0.73064 0.03562 0.0
O191 O 0.33524 0.78433 0.03985 0.0
Zn192 Zn 0.63414 0.2905 0.94153 0.0
O193 O 0.59858 0.29577 0.96678 0.0
C194 C 0.64263 0.26925 0.11908 0.0
Zn195 Zn 0.63367 0.23607 0.94567 0.0
C196 C 0.58775 0.26898 0.97702 0.0
O197 O 0.59851 0.24216 0.97141 0.0
C198 C 0.6797 0.2567 0.90371 0.0
O199 O 0.62665 0.23069 0.81113 0.0
O200 O 0.62726 0.28444 0.80797 0.0
N201 N 0.62936 0.18758 0.97245 0.0
C202 C 0.63748 0.1589 0.94192 0.0
C203 C 0.61588 0.14825 0.05133 0.0
N204 N 0.616 0.18076 0.04029 0.0
N205 N 0.62927 0.13366 -0.0091 0.0
C206 C 0.63041 0.36726 0.95604 0.0
C207 C 0.65364 0.3812 0.85444 0.0
N208 N 0.63837 0.33953 0.91906 0.0
N209 N 0.65268 0.34837 0.85574 0.0
N210 N 0.63977 0.39378 0.91644 0.0
H211 H 0.61446 0.34468 0.06902 0.0
H212 H 0.59677 0.37271 0.00917 0.0
H213 H 0.61926 0.38837 0.07819 0.0
C214 C 0.61444 0.36819 0.03306 0.0
C215 C 0.65254 0.15608 0.86266 0.0
H216 H 0.6508 0.17788 0.82005 0.0
H217 H 0.64818 0.13376 0.82467 0.0
H218 H 0.67069 0.15459 0.88398 0.0
O219 O 0.66863 0.23038 0.91764 0.0
O220 O 0.66964 0.28403 0.91337 0.0
C221 C 0.62531 0.25729 0.76819 0.0
O222 O 0.64105 0.29579 0.07629 0.0
O223 O 0.6408 0.2422 0.07907 0.0
Zn224 Zn 0.37073 0.2352 0.94251 0.0
O225 O 0.40644 0.23226 0.96639 0.0
C226 C 0.36205 0.25623 0.1194 0.0
Zn227 Zn 0.37005 0.28947 0.94491 0.0
C228 C 0.41679 0.25945 0.97526 0.0
O229 O 0.40549 0.28576 0.9693 0.0
C230 C 0.32442 0.26613 0.90513 0.0
O231 O 0.37669 0.29518 0.81014 0.0
O232 O 0.37734 0.24146 0.80878 0.0
N233 N 0.37313 0.33795 0.97079 0.0
C234 C 0.36563 0.36649 0.93728 0.0
C235 C 0.38736 0.37787 0.04573 0.0
N236 N 0.38646 0.34523 0.03839 0.0
N237 N 0.37436 0.39183 -0.01655 0.0
C238 C 0.37489 0.15922 0.96547 0.0
C239 C 0.35928 0.14304 0.84664 0.0
N240 N 0.36835 0.18606 0.92071 0.0
N241 N 0.35865 0.17588 0.84708 0.0
N242 N 0.36933 0.13181 0.92021 0.0
H243 H 0.39687 0.18363 0.05903 0.0
H244 H 0.39991 0.13968 0.05517 0.0
H245 H 0.3751 0.15798 0.10563 0.0
C246 C 0.38758 0.1602 0.05092 0.0
C247 C 0.35069 0.3695 0.858 0.0
H248 H 0.34939 0.34592 0.82247 0.0
H249 H 0.35755 0.38875 0.8137 0.0
H250 H 0.33327 0.37705 0.87898 0.0
O251 O 0.33495 0.29295 0.91816 0.0
O252 O 0.33503 0.23924 0.91515 0.0
C253 C 0.37869 0.26848 0.76812 0.0
O254 O 0.36422 0.22959 0.07748 0.0
O255 O 0.36327 0.28317 0.07853 0.0
H256 H 0.20565 0.31892 0.59787 0.0
H257 H 0.29774 0.21328 0.86296 0.0
H258 H 0.20647 0.21334 0.60271 0.0
H259 H 0.29921 0.31877 0.85046 0.0
H260 H 0.26332 0.21316 0.77235 0.0
H261 H 0.24 0.31959 0.68943 0.0
C262 C 0.21325 0.29586 0.61691 0.0
C263 C 0.20313 0.26601 0.59252 0.0
C264 C 0.27106 0.23636 0.78991 0.0
C265 C 0.24218 0.26665 0.69895 0.0
C266 C 0.29063 0.23647 0.84237 0.0
C267 C 0.30143 0.26609 0.86433 0.0
C268 C 0.2622 0.26607 0.75888 0.0
C269 C 0.29144 0.29535 0.83535 0.0
C270 C 0.23277 0.29628 0.66988 0.0
C271 C 0.21367 0.23694 0.61976 0.0
N272 N 0.27248 0.29459 0.78362 0.0
N273 N 0.23252 0.238 0.67195 0.0
H274 H 0.70424 0.20299 0.85105 0.0
H275 H 0.79812 0.31114 0.59828 0.0
H276 H 0.70708 0.30848 0.85912 0.0
H277 H 0.79935 0.20558 0.60394 0.0
H278 H 0.76357 0.31018 0.6884 0.0
H279 H 0.73894 0.20298 0.76064 0.0
C280 C 0.71235 0.22612 0.83514 0.0
C281 C 0.70269 0.25579 0.86271 0.0
C282 C 0.77129 0.28719 0.66952 0.0
C283 C 0.7421 0.25595 0.75769 0.0
C284 C 0.79093 0.28771 0.61731 0.0
C285 C 0.8017 0.25839 0.5935 0.0
C286 C 0.76229 0.25715 0.69839 0.0
C287 C 0.79161 0.2288 0.62054 0.0
C288 C 0.73206 0.22609 0.78285 0.0
C289 C 0.71388 0.285 0.83943 0.0
N290 N 0.77254 0.22894 0.67199 0.0
N291 N 0.73286 0.28434 0.78784 0.0
H292 H 0.29756 0.80873 0.09111 0.0
H293 H 0.20429 0.70045 0.34653 0.0
H294 H 0.30019 0.7033 0.10227 0.0
H295 H 0.20746 0.80592 0.35549 0.0
H296 H 0.23892 0.70036 0.25549 0.0
H297 H 0.26294 0.8075 0.18062 0.0
C298 C 0.29067 0.78525 0.11121 0.0
C299 C 0.30187 0.75607 0.08922 0.0
C300 C 0.23212 0.72348 0.27807 0.0
C301 C 0.26235 0.75453 0.19347 0.0
C302 C 0.21247 0.72355 0.3307 0.0
C303 C 0.20292 0.75325 0.35871 0.0
C304 C 0.2422 0.75331 0.25297 0.0
C305 C 0.21416 0.78242 0.33548 0.0
C306 C 0.27097 0.78459 0.16309 0.0
C307 C 0.29211 0.7264 0.11749 0.0
N308 N 0.23308 0.78171 0.28354 0.0
N309 N 0.27298 0.7264 0.16865 0.0
H310 H 0.70725 0.81907 0.09139 0.0
H311 H 0.79752 0.71541 0.37047 0.0
H312 H 0.70612 0.71374 0.11131 0.0
H313 H 0.80117 0.82038 0.3424 0.0
H314 H 0.76304 0.71486 0.2804 0.0
H315 H 0.74169 0.82028 0.18235 0.0
C316 C 0.71444 0.79614 0.11363 0.0
C317 C 0.70374 0.76623 0.09363 0.0
C318 C 0.77126 0.73806 0.29439 0.0
C319 C 0.74291 0.76755 0.1994 0.0
C320 C 0.79087 0.73844 0.34652 0.0
C321 C 0.80231 0.768 0.36398 0.0
C322 C 0.76298 0.76743 0.25912 0.0
C323 C 0.79289 0.79703 0.33089 0.0
C324 C 0.73401 0.7969 0.16624 0.0
C325 C 0.71378 0.73736 0.12485 0.0
N326 N 0.77386 0.79599 0.27951 0.0
N327 N 0.7327 0.73877 0.17662 0.0
H328 H 0.17634 0.93311 0.42336 0.0
H329 H 0.10011 0.09338 0.4953 0.0
H330 H 0.1028 0.92827 0.44635 0.0
H331 H 0.17343 0.08983 0.52656 0.0
H332 H 0.09991 0.03416 0.46493 0.0
H333 H 0.17494 0.99182 0.45006 0.0
C334 C 0.15988 0.94454 0.43475 0.0
C335 C 0.13971 0.92587 0.43396 0.0
C336 C 0.11603 0.04645 0.47801 0.0
C337 C 0.13781 0.99328 0.4636 0.0
C338 C 0.11616 0.08021 0.49423 0.0
C339 C 0.13687 0.09639 0.51225 0.0
C340 C 0.13679 0.02908 0.47947 0.0
C341 C 0.15714 0.07816 0.51275 0.0
C342 C 0.15905 0.97803 0.45002 0.0
C343 C 0.11877 0.94178 0.44849 0.0
N344 N 0.1566 0.0456 0.49642 0.0
N345 N 0.11832 0.97471 0.46246 0.0
H346 H 0.90588 0.42991 0.50035 0.0
H347 H 0.83011 0.59044 0.42718 0.0
H348 H 0.83256 0.43385 0.53203 0.0
H349 H 0.90363 0.595 0.4505 0.0
H350 H 0.83134 0.53178 0.45476 0.0
H351 H 0.90625 0.48912 0.46991 0.0
C352 C 0.88987 0.44317 0.49937 0.0
C353 C 0.86911 0.4271 0.51747 0.0
C354 C 0.84726 0.54549 0.45462 0.0
C355 C 0.86938 0.4944 0.48464 0.0
C356 C 0.84652 0.57896 0.43884 0.0
C357 C 0.86674 0.59752 0.43783 0.0
C358 C 0.86845 0.53018 0.46847 0.0
C359 C 0.88763 0.58157 0.45277 0.0
C360 C 0.8901 0.47692 0.48312 0.0
C361 C 0.84889 0.44544 0.51814 0.0
N362 N 0.88799 0.54866 0.46718 0.0
N363 N 0.84952 0.478 0.50175 0.0
H364 H 0.83769 0.92586 0.4336 0.0
H365 H 0.88687 0.09682 0.60156 0.0
H366 H 0.90523 0.93771 0.54503 0.0
H367 H 0.84281 0.09102 0.37564 0.0
H368 H 0.88657 0.03677 0.61091 0.0
H369 H 0.83317 0.98538 0.43536 0.0
C370 C 0.85178 0.94077 0.45643 0.0
C371 C 0.87221 0.9266 0.48667 0.0
C372 C 0.87666 0.04872 0.56019 0.0
C373 C 0.86643 0.99447 0.49429 0.0
C374 C 0.87664 0.08281 0.55562 0.0
C375 C 0.86475 0.09851 0.48814 0.0
C376 C 0.86448 0.03044 0.49737 0.0
C377 C 0.85212 0.07949 0.42861 0.0
C378 C 0.84899 0.97474 0.45888 0.0
C379 C 0.88927 0.94747 0.52046 0.0
N380 N 0.85231 0.04634 0.43442 0.0
N381 N 0.88597 0.98023 0.52371 0.0
H382 H 0.16684 0.59766 0.43344 0.0
H383 H 0.11734 0.42687 0.60176 0.0
H384 H 0.09886 0.58586 0.5417 0.0
H385 H 0.16186 0.43246 0.37667 0.0
H386 H 0.11762 0.48695 0.61066 0.0
H387 H 0.17144 0.53817 0.43648 0.0
C388 C 0.15268 0.58276 0.45581 0.0
C389 C 0.13209 0.59693 0.4847 0.0
C390 C 0.12764 0.47495 0.56026 0.0
C391 C 0.13796 0.52911 0.49393 0.0
C392 C 0.12766 0.44085 0.55595 0.0
C393 C 0.13968 0.42509 0.48877 0.0
C394 C 0.13995 0.49316 0.49752 0.0
C395 C 0.15245 0.44404 0.42941 0.0
C396 C 0.15551 0.54881 0.45903 0.0
C397 C 0.11494 0.57609 0.51809 0.0
N398 N 0.15226 0.4772 0.43497 0.0
N399 N 0.11828 0.54334 0.52212 0.0
H400 H 0.67261 0.59456 0.02276 0.0
H401 H 0.60115 0.42898 0.95092 0.0
H402 H 0.59909 0.59367 0.00095 0.0
H403 H 0.67452 0.43676 0.92505 0.0
H404 H 0.59934 0.48829 0.97752 0.0
H405 H 0.67321 0.53584 -0.00714 0.0
C406 C 0.65662 0.58182 0.01044 0.0
C407 C 0.63584 0.59874 0.01278 0.0
C408 C 0.61583 0.47694 0.96635 0.0
C409 C 0.63614 0.53149 -0.01955 0.0
C410 C 0.61687 0.4431 0.9523 0.0
C411 C 0.63807 0.428 0.93723 0.0
C412 C 0.63615 0.49559 0.96549 0.0
C413 C 0.65788 0.44752 0.93676 0.0
C414 C 0.65689 0.54837 -0.00636 0.0
C415 C 0.61545 0.58135 -0.00221 0.0
N416 N 0.65645 0.48018 0.95097 0.0
N417 N 0.61607 0.54852 -0.01738 0.0
H418 H 0.36523 0.92339 0.87768 0.0
H419 H 0.36563 0.10185 0.07992 0.0
H420 H 0.37781 0.94133 0.15235 0.0
H421 H 0.37896 0.08362 0.80582 0.0
H422 H 0.36856 0.04325 0.10862 0.0
H423 H 0.36866 0.98197 0.84945 0.0
C424 C 0.36935 0.93948 0.93168 0.0
C425 C 0.37186 0.92732 0.01721 0.0
C426 C 0.3712 0.05215 0.04241 0.0
C427 C 0.37469 0.99463 -0.01394 0.0
C428 C 0.36982 0.0857 0.02618 0.0
C429 C 0.37265 0.09777 0.94063 0.0
C430 C 0.3749 0.03048 0.97229 0.0
C431 C 0.3768 0.0753 0.87278 0.0
C432 C 0.37103 0.97302 0.91572 0.0
C433 C 0.3759 0.94971 0.0854 0.0
N434 N 0.37767 0.04275 0.8899 0.0
N435 N 0.37707 0.98228 0.0685 0.0
H436 H 0.41032 0.43147 0.96445 0.0
H437 H 0.33718 0.59673 -0.01567 0.0
H438 H 0.33657 0.43028 0.97226 0.0
H439 H 0.41082 0.59155 0.97007 0.0
H440 H 0.3354 0.53642 -0.01756 0.0
H441 H 0.4099 0.49091 0.96285 0.0
C442 C 0.394 0.44402 0.96436 0.0
C443 C 0.37349 0.4263 0.96772 0.0
C444 C 0.35192 0.54858 -0.01956 0.0
C445 C 0.37265 0.49443 0.96829 0.0
C446 C 0.35292 0.58284 -0.0173 0.0
C447 C 0.3742 0.59885 0.97822 0.0
C448 C 0.37237 0.53062 0.97353 0.0
C449 C 0.39412 0.57999 0.97374 0.0
C450 C 0.39369 0.47792 0.96406 0.0
C451 C 0.3527 0.44337 0.96827 0.0
N452 N 0.39271 0.54699 0.97136 0.0
N453 N 0.35276 0.47671 0.96928 0.0
H454 H 0.66763 0.10017 0.93649 0.0
H455 H 0.61882 0.92832 0.09998 0.0
H456 H 0.59944 0.0871 0.04179 0.0
H457 H 0.66455 0.93501 0.87865 0.0
H458 H 0.61851 0.98835 0.10943 0.0
H459 H 0.67269 0.04076 0.93892 0.0
C460 C 0.65352 0.08501 0.95807 0.0
C461 C 0.63275 0.09878 -0.01367 0.0
C462 C 0.62892 0.97661 0.05975 0.0
C463 C 0.63912 0.03106 -0.00516 0.0
C464 C 0.62928 0.94253 0.05516 0.0
C465 C 0.64183 0.92707 -0.01111 0.0
C466 C 0.6414 0.99513 -0.00183 0.0
C467 C 0.65475 0.94635 0.93071 0.0
C468 C 0.65661 0.0511 0.96094 0.0
C469 C 0.61566 0.07762 0.01869 0.0
N470 N 0.6542 0.97948 0.93651 0.0
N471 N 0.61925 0.04492 0.02239 0.0
H472 H 0.1534 0.30668 0.22963 0.0
H473 H 0.11549 0.21526 0.79021 0.0
H474 H 0.13417 0.20467 0.21946 0.0
H475 H 0.13525 0.31708 0.79976 0.0
H476 H 0.12134 0.21135 0.948 0.0
H477 H 0.14775 0.31058 0.07171 0.0
C478 C 0.1483 0.28493 0.19387 0.0
C479 C 0.14413 0.2553 0.2377 0.0
C480 C 0.12424 0.23462 0.91584 0.0
C481 C 0.13724 0.25981 0.05709 0.0
C482 C 0.12075 0.23696 0.82581 0.0
C483 C 0.12499 0.26655 0.78184 0.0
C484 C 0.13211 0.26202 0.96232 0.0
C485 C 0.13171 0.29385 0.83118 0.0
C486 C 0.14493 0.28727 0.10376 0.0
C487 C 0.13763 0.22794 0.18816 0.0
N488 N 0.13525 0.29086 0.91892 0.0
N489 N 0.13418 0.23094 0.10038 0.0
H490 H 0.87011 0.32067 0.2234 0.0
H491 H 0.87068 0.20465 0.79979 0.0
H492 H 0.85325 0.21776 0.22978 0.0
H493 H 0.88792 0.30744 0.79383 0.0
H494 H 0.86503 0.20862 0.95854 0.0
H495 H 0.8756 0.31671 0.06457 0.0
C496 C 0.86716 0.29742 0.1912 0.0
C497 C 0.86133 0.26949 0.23975 0.0
C498 C 0.87021 0.23024 0.92247 0.0
C499 C 0.86805 0.26458 0.059 0.0
C500 C 0.87367 0.22788 0.83207 0.0
C501 C 0.87967 0.25577 0.78366 0.0
C502 C 0.87277 0.26068 0.96431 0.0
C503 C 0.88315 0.28534 0.82862 0.0
C504 C 0.87054 0.29506 0.10075 0.0
C505 C 0.8579 0.23988 0.19488 0.0
N506 N 0.8795 0.28707 0.91633 0.0
N507 N 0.86146 0.23816 0.10711 0.0
H508 H 0.13208 0.70381 0.15294 0.0
H509 H 0.13684 0.81893 0.72809 0.0
H510 H 0.11861 0.80757 0.1577 0.0
H511 H 0.14987 0.71506 0.72293 0.0
H512 H 0.13121 0.81559 0.88688 0.0
H513 H 0.13783 0.70715 -0.00579 0.0
C514 C 0.12993 0.72715 0.1204 0.0
C515 C 0.12496 0.75546 0.16848 0.0
C516 C 0.13547 0.79358 0.85099 0.0
C517 C 0.13199 0.75963 -0.01219 0.0
C518 C 0.13891 0.79556 0.76054 0.0
C519 C 0.14371 0.76722 0.71234 0.0
C520 C 0.13683 0.76306 0.89309 0.0
C521 C 0.14605 0.73751 0.75755 0.0
C522 C 0.13345 0.72914 0.03 0.0
C523 C 0.12256 0.78515 0.12318 0.0
N524 N 0.14243 0.73616 0.84534 0.0
N525 N 0.12625 0.78649 0.03544 0.0
H526 H 0.86916 0.70436 0.73157 0.0
H527 H 0.87272 0.8197 0.15601 0.0
H528 H 0.8552 0.80799 0.72608 0.0
H529 H 0.8871 0.7162 0.16094 0.0
H530 H 0.86704 0.81621 -0.00269 0.0
H531 H 0.87468 0.70788 0.89032 0.0
C532 C 0.86687 0.72771 0.76395 0.0
C533 C 0.86183 0.75594 0.71567 0.0
C534 C 0.8716 0.79432 0.03314 0.0
C535 C 0.86858 0.7603 0.89636 0.0
C536 C 0.87507 0.79639 0.12351 0.0
C537 C 0.88028 0.76819 0.17161 0.0
C538 C 0.87335 0.76384 -0.00898 0.0
C539 C 0.88296 0.73854 0.12639 0.0
C540 C 0.87025 0.72979 0.85436 0.0
C541 C 0.85921 0.78563 0.76077 0.0
N542 N 0.87931 0.7371 0.03868 0.0
N543 N 0.86277 0.78707 0.84853 0.0
H544 H 0.63586 0.82103 0.30027 0.0
H545 H 0.63428 0.70479 0.72362 0.0
H546 H 0.61669 0.71893 0.29423 0.0
H547 H 0.65304 0.80703 0.73002 0.0
H548 H 0.62886 0.70903 0.56484 0.0
H549 H 0.64143 0.81677 0.45897 0.0
C550 C 0.63242 0.79791 0.33253 0.0
C551 C 0.62591 0.77028 0.28411 0.0
C552 C 0.63433 0.73046 0.60102 0.0
C553 C 0.63271 0.765 0.46467 0.0
C554 C 0.63766 0.72794 0.69143 0.0
C555 C 0.644 0.75562 0.73998 0.0
C556 C 0.63737 0.76086 0.55931 0.0
C557 C 0.64798 0.78511 0.69512 0.0
C558 C 0.63584 0.79537 0.42289 0.0
C559 C 0.62187 0.74082 0.32903 0.0
N560 N 0.64445 0.787 0.6074 0.0
N561 N 0.62549 0.73891 0.4167 0.0
H562 H 0.37016 0.82042 0.7233 0.0
H563 H 0.3713 0.70504 0.29892 0.0
H564 H 0.35472 0.71704 0.72929 0.0
H565 H 0.38722 0.80827 0.29355 0.0
H566 H 0.36592 0.70862 0.45781 0.0
H567 H 0.37536 0.81681 0.56437 0.0
C568 C 0.36749 0.79712 0.691 0.0
C569 C 0.36214 0.76897 0.7394 0.0
C570 C 0.37075 0.73042 0.42183 0.0
C571 C 0.36849 0.76449 0.5586 0.0
C572 C 0.37405 0.72829 0.33137 0.0
C573 C 0.3796 0.75641 0.28317 0.0
C574 C 0.37303 0.76087 0.46385 0.0
C575 C 0.38279 0.78601 0.32825 0.0
C576 C 0.37068 0.79498 0.6005 0.0
C577 C 0.359 0.73933 0.69445 0.0
N578 N 0.37931 0.7875 0.41604 0.0
N579 N 0.36238 0.73782 0.60659 0.0
H580 H 0.63627 0.32078 0.23128 0.0
H581 H 0.63209 0.20576 0.65635 0.0
H582 H 0.64965 0.21699 0.22616 0.0
H583 H 0.61817 0.3094 0.6608 0.0
H584 H 0.63781 0.20909 0.49759 0.0
H585 H 0.63073 0.31743 0.3901 0.0
C586 C 0.63843 0.29743 0.26375 0.0
C587 C 0.6433 0.26911 0.21556 0.0
C588 C 0.63334 0.23105 0.53333 0.0
C589 C 0.63653 0.26494 0.39634 0.0
C590 C 0.62984 0.22907 0.62374 0.0
C591 C 0.62476 0.25736 0.67171 0.0
C592 C 0.63174 0.26151 0.49106 0.0
C593 C 0.62221 0.287 0.62634 0.0
C594 C 0.63504 0.29544 0.3542 0.0
C595 C 0.64577 0.23942 0.26078 0.0
N596 N 0.62588 0.28834 0.5386 0.0
N597 N 0.6422 0.23807 0.3486 0.0
H598 H 0.35177 0.30803 0.22394 0.0
H599 H 0.38907 0.21677 0.66346 0.0
H600 H 0.37136 0.20637 0.23384 0.0
H601 H 0.36922 0.31833 0.65387 0.0
H602 H 0.38359 0.21293 0.5055 0.0
H603 H 0.3572 0.31188 0.38194 0.0
C604 C 0.35692 0.28636 0.25964 0.0
C605 C 0.36125 0.25684 0.21578 0.0
C606 C 0.38058 0.23612 0.53771 0.0
C607 C 0.36787 0.26129 0.39638 0.0
C608 C 0.38385 0.23842 0.62782 0.0
C609 C 0.37947 0.26791 0.67176 0.0
C610 C 0.37279 0.26347 0.49119 0.0
C611 C 0.37284 0.29517 0.62243 0.0
C612 C 0.36016 0.28866 0.34978 0.0
C613 C 0.36779 0.22956 0.2652 0.0
N614 N 0.36951 0.29222 0.53461 0.0
N615 N 0.37109 0.23252 0.35303 0.0
H616 H 0.05855 0.20522 0.46301 0.0
H617 H 0.94658 0.31772 0.46422 0.0
H618 H 0.06045 0.31078 0.45744 0.0
H619 H 0.94457 0.21216 0.45963 0.0
H620 H 0.98835 0.31568 0.45167 0.0
H621 H 0.01675 0.20718 0.45162 0.0
C622 C 0.05021 0.22879 0.4588 0.0
C623 C 0.06301 0.25787 0.46197 0.0
C624 C 0.97875 0.29297 0.45286 0.0
C625 C 0.01521 0.26031 0.4493 0.0
C626 C 0.9549 0.29413 0.46003 0.0
C627 C 0.94207 0.26508 0.46375 0.0
C628 C 0.98985 0.26254 0.44972 0.0
C629 C 0.95376 0.2352 0.45759 0.0
C630 C 0.02634 0.2299 0.45232 0.0
C631 C 0.05129 0.28772 0.45585 0.0
N632 N 0.97698 0.23471 0.45149 0.0
N633 N 0.02806 0.28816 0.45042 0.0
H634 H 0.94707 0.70513 0.48869 0.0
H635 H 0.05858 0.81972 0.48298 0.0
H636 H 0.94467 0.81064 0.49539 0.0
H637 H 0.06074 0.71432 0.49855 0.0
H638 H 0.01676 0.81713 0.49596 0.0
H639 H 0.98885 0.70802 0.5007 0.0
C640 C 0.9553 0.72886 0.49325 0.0
C641 C 0.94238 0.75765 0.49018 0.0
C642 C 0.02644 0.7946 0.49713 0.0
C643 C 0.9901 0.76121 0.50351 0.0
C644 C 0.05029 0.79609 0.48973 0.0
C645 C 0.06315 0.76721 0.48877 0.0
C646 C 0.01542 0.76401 0.50324 0.0
C647 C 0.05153 0.73724 0.49817 0.0
C648 C 0.97914 0.73053 0.50013 0.0
C649 C 0.95394 0.78777 0.49681 0.0
N650 N 0.02834 0.73642 0.50434 0.0
N651 N 0.97714 0.78876 0.50249 0.0
H652 H 0.56172 0.8158 0.96029 0.0
H653 H 0.44441 0.71432 0.95475 0.0
H654 H 0.55811 0.71033 0.96714 0.0
H655 H 0.44755 0.81956 0.97552 0.0
H656 H 0.486 0.71283 0.94258 0.0
H657 H 0.52005 0.81783 0.94925 0.0
C658 C 0.55218 0.79302 0.95893 0.0
C659 C 0.56343 0.76281 0.96543 0.0
C660 C 0.47763 0.73627 0.94942 0.0
C661 C 0.51565 0.76506 0.95294 0.0
C662 C 0.45384 0.73719 0.95634 0.0
C663 C 0.44247 0.76714 0.96704 0.0
C664 C 0.49025 0.7655 0.95323 0.0
C665 C 0.45562 0.79593 0.96792 0.0
C666 C 0.52837 0.79424 0.95272 0.0
C667 C 0.55016 0.73415 0.96284 0.0
N668 N 0.47885 0.79438 0.96164 0.0
N669 N 0.52695 0.736 0.95726 0.0
H670 H 0.44328 0.31418 -0.00655 0.0
H671 H 0.56097 0.21542 0.00739 0.0
H672 H 0.44739 0.20878 -0.01192 0.0
H673 H 0.5574 0.32036 -0.0209 0.0
H674 H 0.51941 0.21313 0.01873 0.0
H675 H 0.48487 0.31716 0.00605 0.0
C676 C 0.45292 0.2916 -0.00463 0.0
C677 C 0.44183 0.26113 -0.01113 0.0
C678 C 0.52768 0.23669 0.01045 0.0
C679 C 0.48955 0.2645 0.0033 0.0
C680 C 0.55146 0.23807 0.00402 0.0
C681 C 0.5627 0.26815 -0.0087 0.0
C682 C 0.51493 0.26556 0.00412 0.0
C683 C 0.54943 0.29664 -0.01169 0.0
C684 C 0.47669 0.29338 0.00252 0.0
C685 C 0.45522 0.23277 -0.00767 0.0
N686 N 0.5262 0.29463 -0.00591 0.0
N687 N 0.47841 0.23516 -0.00112 0.0
loop_
_geom_bond_atom_site_label_1
_geom_bond_atom_site_label_2
_geom_bond_distance
_geom_bond_site_symmetry_2
_ccdc_geom_bond_type
Zn0 O1 2.055 . S
Zn0 O8 2.046 . S
Zn0 N16 2.036 . S
Zn0 O28 2.053 . S
Zn0 O30 2.066 . S
O1 Zn0 2.055 . S
O1 C4 1.259 . S
C2 O30 1.256 . S
C2 O31 1.244 . S
Zn3 O5 2.046 . S
Zn3 O7 2.055 . S
Zn3 N9 2.036 . S
Zn3 O27 2.066 . S
Zn3 O31 2.053 . S
C4 O1 1.259 . S
C4 O5 1.254 . S
O5 Zn3 2.046 . S
O5 C4 1.254 . S
C6 O27 1.256 . S
C6 O28 1.244 . S
O7 Zn3 2.055 . S
O7 C29 1.259 . S
O8 Zn0 2.046 . S
O8 C29 1.254 . S
N9 Zn3 2.036 . S
N9 C10 1.298 . S
N9 N12 1.398 . S
C10 N9 1.298 . S
C10 N13 1.367 . S
C10 C23 1.481 . S
C11 N12 1.299 . S
C11 N13 1.379 . S
N12 N9 1.398 . S
N12 C11 1.299 . S
N13 C10 1.367 . S
N13 C11 1.379 . S
C14 N16 1.298 . S
C14 N18 1.367 . S
C14 C22 1.481 . S
C15 N17 1.299 . S
C15 N18 1.379 . S
N16 Zn0 2.036 . S
N16 C14 1.298 . S
N16 N17 1.398 . S
N17 C15 1.299 . S
N17 N16 1.398 . S
N18 C14 1.367 . S
N18 C15 1.379 . S
H19 C22 0.980 . S
H20 C22 0.981 . S
H21 C22 0.981 . S
C22 C14 1.481 . S
C22 H19 0.980 . S
C22 H20 0.981 . S
C22 H21 0.981 . S
C23 C10 1.481 . S
C23 H24 0.980 . S
C23 H25 0.981 . S
C23 H26 0.981 . S
H24 C23 0.980 . S
H25 C23 0.981 . S
H26 C23 0.981 . S
O27 Zn3 2.066 . S
O27 C6 1.256 . S
O28 Zn0 2.053 . S
O28 C6 1.244 . S
C29 O7 1.259 . S
C29 O8 1.254 . S
O30 Zn0 2.066 . S
O30 C2 1.256 . S
O31 C2 1.244 . S
O31 Zn3 2.053 . S
Zn32 O33 2.055 . S
Zn32 O40 2.046 . S
Zn32 N48 2.036 . S
Zn32 O60 2.053 . S
Zn32 O62 2.066 . S
O33 Zn32 2.055 . S
O33 C36 1.259 . S
C34 O62 1.256 . S
C34 O63 1.244 . S
Zn35 O37 2.046 . S
Zn35 O39 2.055 . S
Zn35 N41 2.036 . S
Zn35 O59 2.066 . S
Zn35 O63 2.053 . S
C36 O33 1.259 . S
C36 O37 1.254 . S
O37 Zn35 2.046 . S
O37 C36 1.254 . S
C38 O59 1.256 . S
C38 O60 1.244 . S
O39 Zn35 2.055 . S
O39 C61 1.259 . S
O40 Zn32 2.046 . S
O40 C61 1.254 . S
N41 Zn35 2.036 . S
N41 C42 1.298 . S
N41 N44 1.398 . S
C42 N41 1.298 . S
C42 N45 1.367 . S
C42 C55 1.481 . S
C43 N44 1.299 . S
C43 N45 1.379 . S
N44 N41 1.398 . S
N44 C43 1.299 . S
N45 C42 1.367 . S
N45 C43 1.379 . S
C46 N48 1.298 . S
C46 N50 1.367 . S
C46 C54 1.481 . S
C47 N49 1.299 . S
C47 N50 1.379 . S
N48 Zn32 2.036 . S
N48 C46 1.298 . S
N48 N49 1.398 . S
N49 C47 1.299 . S
N49 N48 1.398 . S
N50 C46 1.367 . S
N50 C47 1.379 . S
H51 C54 0.980 . S
H52 C54 0.981 . S
H53 C54 0.981 . S
C54 C46 1.481 . S
C54 H51 0.980 . S
C54 H52 0.981 . S
C54 H53 0.981 . S
C55 C42 1.481 . S
C55 H56 0.980 . S
C55 H57 0.981 . S
C55 H58 0.981 . S
H56 C55 0.980 . S
H57 C55 0.981 . S
H58 C55 0.981 . S
O59 Zn35 2.066 . S
O59 C38 1.256 . S
O60 Zn32 2.053 . S
O60 C38 1.244 . S
C61 O39 1.259 . S
C61 O40 1.254 . S
O62 Zn32 2.066 . S
O62 C34 1.256 . S
O63 C34 1.244 . S
O63 Zn35 2.053 . S
Zn64 O65 2.055 . S
Zn64 O72 2.046 . S
Zn64 N80 2.036 . S
Zn64 O92 2.053 . S
Zn64 O94 2.066 . S
O65 Zn64 2.055 . S
O65 C68 1.259 . S
C66 O94 1.256 . S
C66 O95 1.244 . S
Zn67 O69 2.046 . S
Zn67 O71 2.055 . S
Zn67 N73 2.036 . S
Zn67 O91 2.066 . S
Zn67 O95 2.053 . S
C68 O65 1.259 . S
C68 O69 1.254 . S
O69 Zn67 2.046 . S
O69 C68 1.254 . S
C70 O91 1.256 . S
C70 O92 1.244 . S
O71 Zn67 2.055 . S
O71 C93 1.259 . S
O72 Zn64 2.046 . S
O72 C93 1.254 . S
N73 Zn67 2.036 . S
N73 C74 1.298 . S
N73 N76 1.398 . S
C74 N73 1.298 . S
C74 N77 1.367 . S
C74 C87 1.481 . S
C75 N76 1.299 . S
C75 N77 1.379 . S
N76 N73 1.398 . S
N76 C75 1.299 . S
N77 C74 1.367 . S
N77 C75 1.379 . S
C78 N80 1.298 . S
C78 N82 1.367 . S
C78 C86 1.481 . S
C79 N81 1.299 . S
C79 N82 1.379 . S
N80 Zn64 2.036 . S
N80 C78 1.298 . S
N80 N81 1.398 . S
N81 C79 1.299 . S
N81 N80 1.398 . S
N82 C78 1.367 . S
N82 C79 1.379 . S
H83 C86 0.980 . S
H84 C86 0.981 . S
H85 C86 0.981 . S
C86 C78 1.481 . S
C86 H83 0.980 . S
C86 H84 0.981 . S
C86 H85 0.981 . S
C87 C74 1.481 . S
C87 H88 0.980 . S
C87 H89 0.981 . S
C87 H90 0.981 . S
H88 C87 0.980 . S
H89 C87 0.981 . S
H90 C87 0.981 . S
O91 Zn67 2.066 . S
O91 C70 1.256 . S
O92 Zn64 2.053 . S
O92 C70 1.244 . S
C93 O71 1.259 . S
C93 O72 1.254 . S
O94 Zn64 2.066 . S
O94 C66 1.256 . S
O95 C66 1.244 . S
O95 Zn67 2.053 . S
Zn96 O97 2.055 . S
Zn96 O104 2.046 . S
Zn96 N112 2.036 . S
Zn96 O124 2.053 . S
Zn96 O126 2.066 . S
O97 Zn96 2.055 . S
O97 C100 1.259 . S
C98 O126 1.256 . S
C98 O127 1.244 . S
Zn99 O101 2.046 . S
Zn99 O103 2.055 . S
Zn99 N105 2.036 . S
Zn99 O123 2.066 . S
Zn99 O127 2.053 . S
C100 O97 1.259 . S
C100 O101 1.254 . S
O101 Zn99 2.046 . S
O101 C100 1.254 . S
C102 O123 1.256 . S
C102 O124 1.244 . S
O103 Zn99 2.055 . S
O103 C125 1.259 . S
O104 Zn96 2.046 . S
O104 C125 1.254 . S
N105 Zn99 2.036 . S
N105 C106 1.298 . S
N105 N108 1.398 . S
C106 N105 1.298 . S
C106 N109 1.367 . S
C106 C119 1.481 . S
C107 N108 1.299 . S
C107 N109 1.379 . S
N108 N105 1.398 . S
N108 C107 1.299 . S
N109 C106 1.367 . S
N109 C107 1.379 . S
C110 N112 1.298 . S
C110 N114 1.367 . S
C110 C118 1.481 . S
C111 N113 1.299 . S
C111 N114 1.379 . S
N112 Zn96 2.036 . S
N112 C110 1.298 . S
N112 N113 1.398 . S
N113 C111 1.299 . S
N113 N112 1.398 . S
N114 C110 1.367 . S
N114 C111 1.379 . S
H115 C118 0.980 . S
H116 C118 0.981 . S
H117 C118 0.981 . S
C118 C110 1.481 . S
C118 H115 0.980 . S
C118 H116 0.981 . S
C118 H117 0.981 . S
C119 C106 1.481 . S
C119 H120 0.980 . S
C119 H121 0.981 . S
C119 H122 0.981 . S
H120 C119 0.980 . S
H121 C119 0.981 . S
H122 C119 0.981 . S
O123 Zn99 2.066 . S
O123 C102 1.256 . S
O124 Zn96 2.053 . S
O124 C102 1.244 . S
C125 O103 1.259 . S
C125 O104 1.254 . S
O126 Zn96 2.066 . S
O126 C98 1.256 . S
O127 C98 1.244 . S
O127 Zn99 2.053 . S
Zn128 O129 2.055 . S
Zn128 O136 2.046 . S
Zn128 N144 2.036 . S
Zn128 O156 2.053 1_554 S
Zn128 O158 2.066 . S
O129 Zn128 2.055 . S
O129 C132 1.259 . S
C130 O158 1.256 . S
C130 O159 1.244 . S
Zn131 O133 2.046 . S
Zn131 O135 2.055 . S
Zn131 N137 2.036 . S
Zn131 O155 2.066 1_554 S
Zn131 O159 2.053 . S
C132 O129 1.259 . S
C132 O133 1.254 . S
O133 Zn131 2.046 . S
O133 C132 1.254 . S
C134 O155 1.256 . S
C134 O156 1.244 . S
O135 Zn131 2.055 . S
O135 C157 1.259 . S
O136 Zn128 2.046 . S
O136 C157 1.254 . S
N137 Zn131 2.036 . S
N137 C138 1.298 . S
N137 N140 1.398 . S
C138 N137 1.298 . S
C138 N141 1.367 . S
C138 C151 1.481 1_554 S
C139 N140 1.299 . S
C139 N141 1.379 . S
N140 N137 1.398 . S
N140 C139 1.299 . S
N141 C138 1.367 . S
N141 C139 1.379 . S
C142 N144 1.298 . S
C142 N146 1.367 . S
C142 C150 1.481 . S
C143 N145 1.299 . S
C143 N146 1.379 1_556 S
N144 Zn128 2.036 . S
N144 C142 1.298 . S
N144 N145 1.398 1_554 S
N145 C143 1.299 . S
N145 N144 1.398 1_556 S
N146 C142 1.367 . S
N146 C143 1.379 1_554 S
H147 C150 0.980 . S
H148 C150 0.981 . S
H149 C150 0.981 . S
C150 C142 1.481 . S
C150 H147 0.980 . S
C150 H148 0.981 . S
C150 H149 0.981 . S
C151 C138 1.481 1_556 S
C151 H152 0.980 1_556 S
C151 H153 0.981 1_556 S
C151 H154 0.981 . S
H152 C151 0.980 1_554 S
H153 C151 0.981 1_554 S
H154 C151 0.981 . S
O155 Zn131 2.066 1_556 S
O155 C134 1.256 . S
O156 Zn128 2.053 1_556 S
O156 C134 1.244 . S
C157 O135 1.259 . S
C157 O136 1.254 . S
O158 Zn128 2.066 . S
O158 C130 1.256 . S
O159 C130 1.244 . S
O159 Zn131 2.053 . S
Zn160 O161 2.055 . S
Zn160 O168 2.046 . S
Zn160 N176 2.036 . S
Zn160 O188 2.053 1_554 S
Zn160 O190 2.066 . S
O161 Zn160 2.055 . S
O161 C164 1.259 . S
C162 O190 1.256 . S
C162 O191 1.244 . S
Zn163 O165 2.046 . S
Zn163 O167 2.055 . S
Zn163 N169 2.036 . S
Zn163 O187 2.066 1_554 S
Zn163 O191 2.053 . S
C164 O161 1.259 . S
C164 O165 1.254 . S
O165 Zn163 2.046 . S
O165 C164 1.254 . S
C166 O187 1.256 . S
C166 O188 1.244 . S
O167 Zn163 2.055 . S
O167 C189 1.259 . S
O168 Zn160 2.046 . S
O168 C189 1.254 . S
N169 Zn163 2.036 . S
N169 C170 1.298 . S
N169 N172 1.398 . S
C170 N169 1.298 . S
C170 N173 1.367 . S
C170 C183 1.481 1_554 S
C171 N172 1.299 . S
C171 N173 1.379 . S
N172 N169 1.398 . S
N172 C171 1.299 . S
N173 C170 1.367 . S
N173 C171 1.379 . S
C174 N176 1.298 . S
C174 N178 1.367 . S
C174 C182 1.481 . S
C175 N177 1.299 . S
C175 N178 1.379 1_556 S
N176 Zn160 2.036 . S
N176 C174 1.298 . S
N176 N177 1.398 1_554 S
N177 C175 1.299 . S
N177 N176 1.398 1_556 S
N178 C174 1.367 . S
N178 C175 1.379 1_554 S
H179 C182 0.980 . S
H180 C182 0.981 . S
H181 C182 0.981 . S
C182 C174 1.481 . S
C182 H179 0.980 . S
C182 H180 0.981 . S
C182 H181 0.981 . S
C183 C170 1.481 1_556 S
C183 H184 0.980 1_556 S
C183 H185 0.981 1_556 S
C183 H186 0.981 . S
H184 C183 0.980 1_554 S
H185 C183 0.981 1_554 S
H186 C183 0.981 . S
O187 Zn163 2.066 1_556 S
O187 C166 1.256 . S
O188 Zn160 2.053 1_556 S
O188 C166 1.244 . S
C189 O167 1.259 . S
C189 O168 1.254 . S
O190 Zn160 2.066 . S
O190 C162 1.256 . S
O191 C162 1.244 . S
O191 Zn163 2.053 . S
Zn192 O193 2.055 . S
Zn192 O200 2.046 . S
Zn192 N208 2.036 . S
Zn192 O220 2.053 . S
Zn192 O222 2.066 1_556 S
O193 Zn192 2.055 . S
O193 C196 1.259 . S
C194 O222 1.256 . S
C194 O223 1.244 . S
Zn195 O197 2.046 . S
Zn195 O199 2.055 . S
Zn195 N201 2.036 . S
Zn195 O219 2.066 . S
Zn195 O223 2.053 1_556 S
C196 O193 1.259 . S
C196 O197 1.254 . S
O197 Zn195 2.046 . S
O197 C196 1.254 . S
C198 O219 1.256 . S
C198 O220 1.244 . S
O199 Zn195 2.055 . S
O199 C221 1.259 . S
O200 Zn192 2.046 . S
O200 C221 1.254 . S
N201 Zn195 2.036 . S
N201 C202 1.298 . S
N201 N204 1.398 1_556 S
C202 N201 1.298 . S
C202 N205 1.367 . S
C202 C215 1.481 . S
C203 N204 1.299 . S
C203 N205 1.379 1_554 S
N204 N201 1.398 1_554 S
N204 C203 1.299 . S
N205 C202 1.367 . S
N205 C203 1.379 1_556 S
C206 N208 1.298 . S
C206 N210 1.367 . S
C206 C214 1.481 1_556 S
C207 N209 1.299 . S
C207 N210 1.379 . S
N208 Zn192 2.036 . S
N208 C206 1.298 . S
N208 N209 1.398 . S
N209 C207 1.299 . S
N209 N208 1.398 . S
N210 C206 1.367 . S
N210 C207 1.379 . S
H211 C214 0.980 1_556 S
H212 C214 0.981 1_556 S
H213 C214 0.981 . S
C214 C206 1.481 1_554 S
C214 H211 0.980 1_554 S
C214 H212 0.981 1_554 S
C214 H213 0.981 . S
C215 C202 1.481 . S
C215 H216 0.980 . S
C215 H217 0.981 . S
C215 H218 0.981 . S
H216 C215 0.980 . S
H217 C215 0.981 . S
H218 C215 0.981 . S
O219 Zn195 2.066 . S
O219 C198 1.256 . S
O220 Zn192 2.053 . S
O220 C198 1.244 . S
C221 O199 1.259 . S
C221 O200 1.254 . S
O222 Zn192 2.066 1_554 S
O222 C194 1.256 . S
O223 C194 1.244 . S
O223 Zn195 2.053 1_554 S
Zn224 O225 2.055 . S
Zn224 O232 2.046 . S
Zn224 N240 2.036 . S
Zn224 O252 2.053 . S
Zn224 O254 2.066 1_556 S
O225 Zn224 2.055 . S
O225 C228 1.259 . S
C226 O254 1.256 . S
C226 O255 1.244 . S
Zn227 O229 2.046 . S
Zn227 O231 2.055 . S
Zn227 N233 2.036 . S
Zn227 O251 2.066 . S
Zn227 O255 2.053 1_556 S
C228 O225 1.259 . S
C228 O229 1.254 . S
O229 Zn227 2.046 . S
O229 C228 1.254 . S
C230 O251 1.256 . S
C230 O252 1.244 . S
O231 Zn227 2.055 . S
O231 C253 1.259 . S
O232 Zn224 2.046 . S
O232 C253 1.254 . S
N233 Zn227 2.036 . S
N233 C234 1.298 . S
N233 N236 1.398 1_556 S
C234 N233 1.298 . S
C234 N237 1.367 . S
C234 C247 1.481 . S
C235 N236 1.299 . S
C235 N237 1.379 1_554 S
N236 N233 1.398 1_554 S
N236 C235 1.299 . S
N237 C234 1.367 . S
N237 C235 1.379 1_556 S
C238 N240 1.298 . S
C238 N242 1.367 . S
C238 C246 1.481 1_556 S
C239 N241 1.299 . S
C239 N242 1.379 . S
N240 Zn224 2.036 . S
N240 C238 1.298 . S
N240 N241 1.398 . S
N241 C239 1.299 . S
N241 N240 1.398 . S
N242 C238 1.367 . S
N242 C239 1.379 . S
H243 C246 0.980 1_556 S
H244 C246 0.981 1_556 S
H245 C246 0.981 . S
C246 C238 1.481 1_554 S
C246 H243 0.980 1_554 S
C246 H244 0.981 1_554 S
C246 H245 0.981 . S
C247 C234 1.481 . S
C247 H248 0.980 . S
C247 H249 0.981 . S
C247 H250 0.981 . S
H248 C247 0.980 . S
H249 C247 0.981 . S
H250 C247 0.981 . S
O251 Zn227 2.066 . S
O251 C230 1.256 . S
O252 Zn224 2.053 . S
O252 C230 1.244 . S
C253 O231 1.259 . S
C253 O232 1.254 . S
O254 Zn224 2.066 1_554 S
O254 C226 1.256 . S
O255 C226 1.244 . S
O255 Zn227 2.053 1_554 S
H256 C262 0.930 . S
H257 C266 0.930 . S
H258 C271 0.929 . S
H259 C269 0.929 . S
H260 C264 0.929 . S
H261 C270 0.929 . S
C262 H256 0.930 . S
C262 C263 1.367 . S
C262 C270 1.378 . S
C263 C262 1.367 . S
C263 C271 1.433 . S
C264 H260 0.929 . S
C264 C266 1.378 . S
C264 C268 1.350 . S
C265 C268 1.463 . S
C265 C270 1.350 . S
C265 N273 1.427 . S
C266 H257 0.930 . S
C266 C264 1.378 . S
C266 C267 1.367 . S
C267 C266 1.367 . S
C267 C269 1.433 . S
C268 C264 1.350 . S
C268 C265 1.463 . S
C268 N272 1.427 . S
C269 H259 0.929 . S
C269 C267 1.433 . S
C269 N272 1.384 . S
C270 H261 0.929 . S
C270 C262 1.378 . S
C270 C265 1.350 . S
C271 H258 0.929 . S
C271 C263 1.433 . S
C271 N273 1.384 . S
N272 C268 1.427 . S
N272 C269 1.384 . S
N273 C265 1.427 . S
N273 C271 1.384 . S
H274 C280 0.930 . S
H275 C284 0.930 . S
H276 C289 0.929 . S
H277 C287 0.929 . S
H278 C282 0.929 . S
H279 C288 0.929 . S
C280 H274 0.930 . S
C280 C281 1.367 . S
C280 C288 1.378 . S
C281 C280 1.367 . S
C281 C289 1.433 . S
C282 H278 0.929 . S
C282 C284 1.378 . S
C282 C286 1.350 . S
C283 C286 1.463 . S
C283 C288 1.350 . S
C283 N291 1.427 . S
C284 H275 0.930 . S
C284 C282 1.378 . S
C284 C285 1.367 . S
C285 C284 1.367 . S
C285 C287 1.433 . S
C286 C282 1.350 . S
C286 C283 1.463 . S
C286 N290 1.427 . S
C287 H277 0.929 . S
C287 C285 1.433 . S
C287 N290 1.384 . S
C288 H279 0.929 . S
C288 C280 1.378 . S
C288 C283 1.350 . S
C289 H276 0.929 . S
C289 C281 1.433 . S
C289 N291 1.384 . S
N290 C286 1.427 . S
N290 C287 1.384 . S
N291 C283 1.427 . S
N291 C289 1.384 . S
H292 C298 0.930 . S
H293 C302 0.930 . S
H294 C307 0.929 . S
H295 C305 0.929 . S
H296 C300 0.929 . S
H297 C306 0.929 . S
C298 H292 0.930 . S
C298 C299 1.367 . S
C298 C306 1.378 . S
C299 C298 1.367 . S
C299 C307 1.433 . S
C300 H296 0.929 . S
C300 C302 1.378 . S
C300 C304 1.350 . S
C301 C304 1.463 . S
C301 C306 1.350 . S
C301 N309 1.427 . S
C302 H293 0.930 . S
C302 C300 1.378 . S
C302 C303 1.367 . S
C303 C302 1.367 . S
C303 C305 1.433 . S
C304 C300 1.350 . S
C304 C301 1.463 . S
C304 N308 1.427 . S
C305 H295 0.929 . S
C305 C303 1.433 . S
C305 N308 1.384 . S
C306 H297 0.929 . S
C306 C298 1.378 . S
C306 C301 1.350 . S
C307 H294 0.929 . S
C307 C299 1.433 . S
C307 N309 1.384 . S
N308 C304 1.427 . S
N308 C305 1.384 . S
N309 C301 1.427 . S
N309 C307 1.384 . S
H310 C316 0.930 . S
H311 C320 0.930 . S
H312 C325 0.929 . S
H313 C323 0.929 . S
H314 C318 0.929 . S
H315 C324 0.929 . S
C316 H310 0.930 . S
C316 C317 1.367 . S
C316 C324 1.378 . S
C317 C316 1.367 . S
C317 C325 1.433 . S
C318 H314 0.929 . S
C318 C320 1.378 . S
C318 C322 1.350 . S
C319 C322 1.463 . S
C319 C324 1.350 . S
C319 N327 1.427 . S
C320 H311 0.930 . S
C320 C318 1.378 . S
C320 C321 1.367 . S
C321 C320 1.367 . S
C321 C323 1.433 . S
C322 C318 1.350 . S
C322 C319 1.463 . S
C322 N326 1.427 . S
C323 H313 0.929 . S
C323 C321 1.433 . S
C323 N326 1.384 . S
C324 H315 0.929 . S
C324 C316 1.378 . S
C324 C319 1.350 . S
C325 H312 0.929 . S
C325 C317 1.433 . S
C325 N327 1.384 . S
N326 C322 1.427 . S
N326 C323 1.384 . S
N327 C319 1.427 . S
N327 C325 1.384 . S
H328 C334 0.930 . S
H329 C338 0.930 . S
H330 C343 0.929 . S
H331 C341 0.929 . S
H332 C336 0.929 . S
H333 C342 0.929 . S
C334 H328 0.930 . S
C334 C335 1.367 . S
C334 C342 1.378 . S
C335 C334 1.367 . S
C335 C343 1.433 . S
C336 H332 0.929 . S
C336 C338 1.378 . S
C336 C340 1.350 . S
C337 C340 1.463 1_565 S
C337 C342 1.350 . S
C337 N345 1.427 . S
C338 H329 0.930 . S
C338 C336 1.378 . S
C338 C339 1.367 . S
C339 C338 1.367 . S
C339 C341 1.433 . S
C340 C336 1.350 . S
C340 C337 1.463 1_545 S
C340 N344 1.427 . S
C341 H331 0.929 . S
C341 C339 1.433 . S
C341 N344 1.384 . S
C342 H333 0.929 . S
C342 C334 1.378 . S
C342 C337 1.350 . S
C343 H330 0.929 . S
C343 C335 1.433 . S
C343 N345 1.384 . S
N344 C340 1.427 . S
N344 C341 1.384 . S
N345 C337 1.427 . S
N345 C343 1.384 . S
H346 C352 0.930 . S
H347 C356 0.930 . S
H348 C361 0.929 . S
H349 C359 0.929 . S
H350 C354 0.929 . S
H351 C360 0.929 . S
C352 H346 0.930 . S
C352 C353 1.367 . S
C352 C360 1.378 . S
C353 C352 1.367 . S
C353 C361 1.433 . S
C354 H350 0.929 . S
C354 C356 1.378 . S
C354 C358 1.350 . S
C355 C358 1.463 . S
C355 C360 1.350 . S
C355 N363 1.427 . S
C356 H347 0.930 . S
C356 C354 1.378 . S
C356 C357 1.367 . S
C357 C356 1.367 . S
C357 C359 1.433 . S
C358 C354 1.350 . S
C358 C355 1.463 . S
C358 N362 1.427 . S
C359 H349 0.929 . S
C359 C357 1.433 . S
C359 N362 1.384 . S
C360 H351 0.929 . S
C360 C352 1.378 . S
C360 C355 1.350 . S
C361 H348 0.929 . S
C361 C353 1.433 . S
C361 N363 1.384 . S
N362 C358 1.427 . S
N362 C359 1.384 . S
N363 C355 1.427 . S
N363 C361 1.384 . S
H364 C370 0.930 . S
H365 C374 0.930 . S
H366 C379 0.929 . S
H367 C377 0.929 . S
H368 C372 0.929 . S
H369 C378 0.929 . S
C370 H364 0.930 . S
C370 C371 1.367 . S
C370 C378 1.378 . S
C371 C370 1.367 . S
C371 C379 1.433 . S
C372 H368 0.929 . S
C372 C374 1.378 . S
C372 C376 1.350 . S
C373 C376 1.463 1_565 S
C373 C378 1.350 . S
C373 N381 1.427 . S
C374 H365 0.930 . S
C374 C372 1.378 . S
C374 C375 1.367 . S
C375 C374 1.367 . S
C375 C377 1.433 . S
C376 C372 1.350 . S
C376 C373 1.463 1_545 S
C376 N380 1.427 . S
C377 H367 0.929 . S
C377 C375 1.433 . S
C377 N380 1.384 . S
C378 H369 0.929 . S
C378 C370 1.378 . S
C378 C373 1.350 . S
C379 H366 0.929 . S
C379 C371 1.433 . S
C379 N381 1.384 . S
N380 C376 1.427 . S
N380 C377 1.384 . S
N381 C373 1.427 . S
N381 C379 1.384 . S
H382 C388 0.930 . S
H383 C392 0.930 . S
H384 C397 0.929 . S
H385 C395 0.929 . S
H386 C390 0.929 . S
H387 C396 0.929 . S
C388 H382 0.930 . S
C388 C389 1.367 . S
C388 C396 1.378 . S
C389 C388 1.367 . S
C389 C397 1.433 . S
C390 H386 0.929 . S
C390 C392 1.378 . S
C390 C394 1.350 . S
C391 C394 1.463 . S
C391 C396 1.350 . S
C391 N399 1.427 . S
C392 H383 0.930 . S
C392 C390 1.378 . S
C392 C393 1.367 . S
C393 C392 1.367 . S
C393 C395 1.433 . S
C394 C390 1.350 . S
C394 C391 1.463 . S
C394 N398 1.427 . S
C395 H385 0.929 . S
C395 C393 1.433 . S
C395 N398 1.384 . S
C396 H387 0.929 . S
C396 C388 1.378 . S
C396 C391 1.350 . S
C397 H384 0.929 . S
C397 C389 1.433 . S
C397 N399 1.384 . S
N398 C394 1.427 . S
N398 C395 1.384 . S
N399 C391 1.427 . S
N399 C397 1.384 . S
H400 C406 0.930 . S
H401 C410 0.930 . S
H402 C415 0.929 . S
H403 C413 0.929 . S
H404 C408 0.929 . S
H405 C414 0.929 . S
C406 H400 0.930 . S
C406 C407 1.367 1_556 S
C406 C414 1.378 . S
C407 C406 1.367 1_554 S
C407 C415 1.433 . S
C408 H404 0.929 . S
C408 C410 1.378 . S
C408 C412 1.350 1_554 S
C409 C412 1.463 1_554 S
C409 C414 1.350 1_554 S
C409 N417 1.427 . S
C410 H401 0.930 . S
C410 C408 1.378 . S
C410 C411 1.367 1_554 S
C411 C410 1.367 1_556 S
C411 C413 1.433 . S
C412 C408 1.350 1_556 S
C412 C409 1.463 1_556 S
C412 N416 1.427 . S
C413 H403 0.929 . S
C413 C411 1.433 . S
C413 N416 1.384 . S
C414 H405 0.929 . S
C414 C406 1.378 . S
C414 C409 1.350 1_556 S
C415 H402 0.929 . S
C415 C407 1.433 . S
C415 N417 1.384 . S
N416 C412 1.427 . S
N416 C413 1.384 . S
N417 C409 1.427 . S
N417 C415 1.384 . S
H418 C424 0.930 . S
H419 C428 0.930 . S
H420 C433 0.929 . S
H421 C431 0.929 . S
H422 C426 0.929 . S
H423 C432 0.929 . S
C424 H418 0.930 . S
C424 C425 1.367 1_556 S
C424 C432 1.378 . S
C425 C424 1.367 1_554 S
C425 C433 1.433 . S
C426 H422 0.929 . S
C426 C428 1.378 . S
C426 C430 1.344 1_554 S
C427 C430 1.462 1_564 S
C427 C432 1.344 1_554 S
C427 N435 1.434 . S
C428 H419 0.930 . S
C428 C426 1.378 . S
C428 C429 1.367 1_554 S
C429 C428 1.367 1_556 S
C429 C431 1.433 . S
C430 C426 1.344 1_556 S
C430 C427 1.462 1_546 S
C430 N434 1.434 . S
C431 H421 0.929 . S
C431 C429 1.433 . S
C431 N434 1.384 . S
C432 H423 0.929 . S
C432 C424 1.378 . S
C432 C427 1.344 1_556 S
C433 H420 0.929 . S
C433 C425 1.433 . S
C433 N435 1.384 . S
N434 C430 1.434 . S
N434 C431 1.384 . S
N435 C427 1.434 . S
N435 C433 1.384 . S
H436 C442 0.930 . S
H437 C446 0.930 . S
H438 C451 0.929 . S
H439 C449 0.929 . S
H440 C444 0.929 1_556 S
H441 C450 0.929 1_554 S
C442 H436 0.930 . S
C442 C443 1.367 . S
C442 C450 1.378 . S
C443 C442 1.367 . S
C443 C451 1.433 . S
C444 H440 0.929 1_554 S
C444 C446 1.378 . S
C444 C448 1.350 . S
C445 C448 1.463 1_556 S
C445 C450 1.350 . S
C445 N453 1.427 . S
C446 H437 0.930 . S
C446 C444 1.378 . S
C446 C447 1.367 . S
C447 C446 1.367 . S
C447 C449 1.433 . S
C448 C444 1.350 . S
C448 C445 1.463 1_554 S
C448 N452 1.427 . S
C449 H439 0.929 . S
C449 C447 1.433 . S
C449 N452 1.384 . S
C450 H441 0.929 1_556 S
C450 C442 1.378 . S
C450 C445 1.350 . S
C451 H438 0.929 . S
C451 C443 1.433 . S
C451 N453 1.384 . S
N452 C448 1.427 . S
N452 C449 1.384 . S
N453 C445 1.427 . S
N453 C451 1.384 . S
H454 C460 0.930 . S
H455 C464 0.930 . S
H456 C469 0.929 . S
H457 C467 0.929 . S
H458 C462 0.929 . S
H459 C468 0.929 . S
C460 H454 0.930 . S
C460 C461 1.367 . S
C460 C468 1.378 . S
C461 C460 1.367 . S
C461 C469 1.433 1_556 S
C462 H458 0.929 . S
C462 C464 1.378 . S
C462 C466 1.350 . S
C463 C466 1.463 1_546 S
C463 C468 1.350 . S
C463 N471 1.427 1_556 S
C464 H455 0.930 . S
C464 C462 1.378 . S
C464 C465 1.367 . S
C465 C464 1.367 . S
C465 C467 1.433 1_554 S
C466 C462 1.350 . S
C466 C463 1.463 1_564 S
C466 N470 1.427 1_554 S
C467 H457 0.929 . S
C467 C465 1.433 1_556 S
C467 N470 1.384 . S
C468 H459 0.929 . S
C468 C460 1.378 . S
C468 C463 1.350 . S
C469 H456 0.929 . S
C469 C461 1.433 1_554 S
C469 N471 1.384 . S
N470 C466 1.427 1_556 S
N470 C467 1.384 . S
N471 C463 1.427 1_554 S
N471 C469 1.384 . S
H472 C478 0.930 . S
H473 C482 0.930 . S
H474 C487 0.929 . S
H475 C485 0.929 . S
H476 C480 0.929 1_554 S
H477 C486 0.929 . S
C478 H472 0.930 . S
C478 C479 1.367 . S
C478 C486 1.378 . S
C479 C478 1.367 . S
C479 C487 1.433 . S
C480 H476 0.929 1_556 S
C480 C482 1.378 . S
C480 C484 1.350 1_556 S
C481 C484 1.463 . S
C481 C486 1.350 . S
C481 N489 1.427 . S
C482 H473 0.930 . S
C482 C480 1.378 . S
C482 C483 1.367 . S
C483 C482 1.367 . S
C483 C485 1.433 . S
C484 C480 1.350 1_554 S
C484 C481 1.463 . S
C484 N488 1.427 1_554 S
C485 H475 0.929 . S
C485 C483 1.433 . S
C485 N488 1.384 . S
C486 H477 0.929 . S
C486 C478 1.378 . S
C486 C481 1.350 . S
C487 H474 0.929 . S
C487 C479 1.433 . S
C487 N489 1.384 . S
N488 C484 1.427 1_556 S
N488 C485 1.384 . S
N489 C481 1.427 . S
N489 C487 1.384 . S
H490 C496 0.930 . S
H491 C500 0.930 . S
H492 C505 0.929 . S
H493 C503 0.929 . S
H494 C498 0.929 1_554 S
H495 C504 0.929 . S
C496 H490 0.930 . S
C496 C497 1.367 . S
C496 C504 1.378 . S
C497 C496 1.367 . S
C497 C505 1.433 . S
C498 H494 0.929 1_556 S
C498 C500 1.378 . S
C498 C502 1.350 1_556 S
C499 C502 1.463 . S
C499 C504 1.350 . S
C499 N507 1.427 . S
C500 H491 0.930 . S
C500 C498 1.378 . S
C500 C501 1.367 . S
C501 C500 1.367 . S
C501 C503 1.433 . S
C502 C498 1.350 1_554 S
C502 C499 1.463 . S
C502 N506 1.427 1_554 S
C503 H493 0.929 . S
C503 C501 1.433 . S
C503 N506 1.384 . S
C504 H495 0.929 . S
C504 C496 1.378 . S
C504 C499 1.350 . S
C505 H492 0.929 . S
C505 C497 1.433 . S
C505 N507 1.384 . S
N506 C502 1.427 1_556 S
N506 C503 1.384 . S
N507 C499 1.427 . S
N507 C505 1.384 . S
H508 C514 0.930 . S
H509 C518 0.930 . S
H510 C523 0.929 . S
H511 C521 0.929 . S
H512 C516 0.929 . S
H513 C522 0.929 1_556 S
C514 H508 0.930 . S
C514 C515 1.367 . S
C514 C522 1.378 . S
C515 C514 1.367 . S
C515 C523 1.433 . S
C516 H512 0.929 . S
C516 C518 1.378 . S
C516 C520 1.350 . S
C517 C520 1.463 . S
C517 C522 1.350 1_556 S
C517 N525 1.427 1_556 S
C518 H509 0.930 . S
C518 C516 1.378 . S
C518 C519 1.367 . S
C519 C518 1.367 . S
C519 C521 1.433 . S
C520 C516 1.350 . S
C520 C517 1.463 . S
C520 N524 1.427 . S
C521 H511 0.929 . S
C521 C519 1.433 . S
C521 N524 1.384 . S
C522 H513 0.929 1_554 S
C522 C514 1.378 . S
C522 C517 1.350 1_554 S
C523 H510 0.929 . S
C523 C515 1.433 . S
C523 N525 1.384 . S
N524 C520 1.427 . S
N524 C521 1.384 . S
N525 C517 1.427 1_554 S
N525 C523 1.384 . S
H526 C532 0.930 . S
H527 C536 0.930 . S
H528 C541 0.929 . S
H529 C539 0.929 . S
H530 C534 0.929 1_556 S
H531 C540 0.929 . S
C532 H526 0.930 . S
C532 C533 1.367 . S
C532 C540 1.378 . S
C533 C532 1.367 . S
C533 C541 1.433 . S
C534 H530 0.929 1_554 S
C534 C536 1.378 . S
C534 C538 1.350 1_554 S
C535 C538 1.463 . S
C535 C540 1.350 . S
C535 N543 1.427 . S
C536 H527 0.930 . S
C536 C534 1.378 . S
C536 C537 1.367 . S
C537 C536 1.367 . S
C537 C539 1.433 . S
C538 C534 1.350 1_556 S
C538 C535 1.463 . S
C538 N542 1.427 1_556 S
C539 H529 0.929 . S
C539 C537 1.433 . S
C539 N542 1.384 . S
C540 H531 0.929 . S
C540 C532 1.378 . S
C540 C535 1.350 . S
C541 H528 0.929 . S
C541 C533 1.433 . S
C541 N543 1.384 . S
N542 C538 1.427 1_554 S
N542 C539 1.384 . S
N543 C535 1.427 . S
N543 C541 1.384 . S
H544 C550 0.930 . S
H545 C554 0.930 . S
H546 C559 0.929 . S
H547 C557 0.929 . S
H548 C552 0.929 . S
H549 C558 0.929 . S
C550 H544 0.930 . S
C550 C551 1.367 . S
C550 C558 1.378 . S
C551 C550 1.367 . S
C551 C559 1.433 . S
C552 H548 0.929 . S
C552 C554 1.378 . S
C552 C556 1.350 . S
C553 C556 1.463 . S
C553 C558 1.350 . S
C553 N561 1.427 . S
C554 H545 0.930 . S
C554 C552 1.378 . S
C554 C555 1.367 . S
C555 C554 1.367 . S
C555 C557 1.433 . S
C556 C552 1.350 . S
C556 C553 1.463 . S
C556 N560 1.427 . S
C557 H547 0.929 . S
C557 C555 1.433 . S
C557 N560 1.384 . S
C558 H549 0.929 . S
C558 C550 1.378 . S
C558 C553 1.350 . S
C559 H546 0.929 . S
C559 C551 1.433 . S
C559 N561 1.384 . S
N560 C556 1.427 . S
N560 C557 1.384 . S
N561 C553 1.427 . S
N561 C559 1.384 . S
H562 C568 0.930 . S
H563 C572 0.930 . S
H564 C577 0.929 . S
H565 C575 0.929 . S
H566 C570 0.929 . S
H567 C576 0.929 . S
C568 H562 0.930 . S
C568 C569 1.367 . S
C568 C576 1.378 . S
C569 C568 1.367 . S
C569 C577 1.433 . S
C570 H566 0.929 . S
C570 C572 1.378 . S
C570 C574 1.350 . S
C571 C574 1.463 . S
C571 C576 1.350 . S
C571 N579 1.427 . S
C572 H563 0.930 . S
C572 C570 1.378 . S
C572 C573 1.367 . S
C573 C572 1.367 . S
C573 C575 1.433 . S
C574 C570 1.350 . S
C574 C571 1.463 . S
C574 N578 1.427 . S
C575 H565 0.929 . S
C575 C573 1.433 . S
C575 N578 1.384 . S
C576 H567 0.929 . S
C576 C568 1.378 . S
C576 C571 1.350 . S
C577 H564 0.929 . S
C577 C569 1.433 . S
C577 N579 1.384 . S
N578 C574 1.427 . S
N578 C575 1.384 . S
N579 C571 1.427 . S
N579 C577 1.384 . S
H580 C586 0.930 . S
H581 C590 0.930 . S
H582 C595 0.929 . S
H583 C593 0.929 . S
H584 C588 0.929 . S
H585 C594 0.929 . S
C586 H580 0.930 . S
C586 C587 1.367 . S
C586 C594 1.378 . S
C587 C586 1.367 . S
C587 C595 1.433 . S
C588 H584 0.929 . S
C588 C590 1.378 . S
C588 C592 1.350 . S
C589 C592 1.463 . S
C589 C594 1.350 . S
C589 N597 1.427 . S
C590 H581 0.930 . S
C590 C588 1.378 . S
C590 C591 1.367 . S
C591 C590 1.367 . S
C591 C593 1.433 . S
C592 C588 1.350 . S
C592 C589 1.463 . S
C592 N596 1.427 . S
C593 H583 0.929 . S
C593 C591 1.433 . S
C593 N596 1.384 . S
C594 H585 0.929 . S
C594 C586 1.378 . S
C594 C589 1.350 . S
C595 H582 0.929 . S
C595 C587 1.433 . S
C595 N597 1.384 . S
N596 C592 1.427 . S
N596 C593 1.384 . S
N597 C589 1.427 . S
N597 C595 1.384 . S
H598 C604 0.930 . S
H599 C608 0.930 . S
H600 C613 0.929 . S
H601 C611 0.929 . S
H602 C606 0.929 . S
H603 C612 0.929 . S
C604 H598 0.930 . S
C604 C605 1.367 . S
C604 C612 1.378 . S
C605 C604 1.367 . S
C605 C613 1.433 . S
C606 H602 0.929 . S
C606 C608 1.378 . S
C606 C610 1.350 . S
C607 C610 1.463 . S
C607 C612 1.350 . S
C607 N615 1.427 . S
C608 H599 0.930 . S
C608 C606 1.378 . S
C608 C609 1.367 . S
C609 C608 1.367 . S
C609 C611 1.433 . S
C610 C606 1.350 . S
C610 C607 1.463 . S
C610 N614 1.427 . S
C611 H601 0.929 . S
C611 C609 1.433 . S
C611 N614 1.384 . S
C612 H603 0.929 . S
C612 C604 1.378 . S
C612 C607 1.350 . S
C613 H600 0.929 . S
C613 C605 1.433 . S
C613 N615 1.384 . S
N614 C610 1.427 . S
N614 C611 1.384 . S
N615 C607 1.427 . S
N615 C613 1.384 . S
H616 C622 0.930 . S
H617 C626 0.930 . S
H618 C631 0.929 . S
H619 C629 0.929 . S
H620 C624 0.929 . S
H621 C630 0.929 . S
C622 H616 0.930 . S
C622 C623 1.367 . S
C622 C630 1.378 . S
C623 C622 1.367 . S
C623 C631 1.433 . S
C624 H620 0.929 . S
C624 C626 1.378 . S
C624 C628 1.350 . S
C625 C628 1.463 1_455 S
C625 C630 1.350 . S
C625 N633 1.427 . S
C626 H617 0.930 . S
C626 C624 1.378 . S
C626 C627 1.367 . S
C627 C626 1.367 . S
C627 C629 1.433 . S
C628 C624 1.350 . S
C628 C625 1.463 1_655 S
C628 N632 1.427 . S
C629 H619 0.929 . S
C629 C627 1.433 . S
C629 N632 1.384 . S
C630 H621 0.929 . S
C630 C622 1.378 . S
C630 C625 1.350 . S
C631 H618 0.929 . S
C631 C623 1.433 . S
C631 N633 1.384 . S
N632 C628 1.427 . S
N632 C629 1.384 . S
N633 C625 1.427 . S
N633 C631 1.384 . S
H634 C640 0.930 . S
H635 C644 0.930 . S
H636 C649 0.929 . S
H637 C647 0.929 . S
H638 C642 0.929 . S
H639 C648 0.929 . S
C640 H634 0.930 . S
C640 C641 1.367 . S
C640 C648 1.378 . S
C641 C640 1.367 . S
C641 C649 1.433 . S
C642 H638 0.929 . S
C642 C644 1.378 . S
C642 C646 1.350 . S
C643 C646 1.463 1_655 S
C643 C648 1.350 . S
C643 N651 1.427 . S
C644 H635 0.930 . S
C644 C642 1.378 . S
C644 C645 1.367 . S
C645 C644 1.367 . S
C645 C647 1.433 . S
C646 C642 1.350 . S
C646 C643 1.463 1_455 S
C646 N650 1.427 . S
C647 H637 0.929 . S
C647 C645 1.433 . S
C647 N650 1.384 . S
C648 H639 0.929 . S
C648 C640 1.378 . S
C648 C643 1.350 . S
C649 H636 0.929 . S
C649 C641 1.433 . S
C649 N651 1.384 . S
N650 C646 1.427 . S
N650 C647 1.384 . S
N651 C643 1.427 . S
N651 C649 1.384 . S
H652 C658 0.930 . S
H653 C662 0.930 1_556 S
H654 C667 0.929 1_556 S
H655 C665 0.929 . S
H656 C660 0.929 1_556 S
H657 C666 0.929 . S
C658 H652 0.930 . S
C658 C659 1.367 . S
C658 C666 1.378 . S
C659 C658 1.367 . S
C659 C667 1.433 . S
C660 H656 0.929 1_554 S
C660 C662 1.378 . S
C660 C664 1.350 . S
C661 C664 1.463 . S
C661 C666 1.350 . S
C661 N669 1.427 . S
C662 H653 0.930 1_554 S
C662 C660 1.378 . S
C662 C663 1.367 . S
C663 C662 1.367 . S
C663 C665 1.433 . S
C664 C660 1.350 . S
C664 C661 1.463 . S
C664 N668 1.427 . S
C665 H655 0.929 . S
C665 C663 1.433 . S
C665 N668 1.384 . S
C666 H657 0.929 . S
C666 C658 1.378 . S
C666 C661 1.350 . S
C667 H654 0.929 1_554 S
C667 C659 1.433 . S
C667 N669 1.384 . S
N668 C664 1.427 . S
N668 C665 1.384 . S
N669 C661 1.427 . S
N669 C667 1.384 . S
H670 C676 0.930 . S
H671 C680 0.930 . S
H672 C685 0.929 . S
H673 C683 0.929 . S
H674 C678 0.929 . S
H675 C684 0.929 . S
C676 H670 0.930 . S
C676 C677 1.367 . S
C676 C684 1.378 . S
C677 C676 1.367 . S
C677 C685 1.433 1_556 S
C678 H674 0.929 . S
C678 C680 1.378 . S
C678 C682 1.350 1_554 S
C679 C682 1.463 . S
C679 C684 1.350 . S
C679 N687 1.427 1_556 S
C680 H671 0.930 . S
C680 C678 1.378 . S
C680 C681 1.367 1_554 S
C681 C680 1.367 1_556 S
C681 C683 1.433 . S
C682 C678 1.350 1_556 S
C682 C679 1.463 . S
C682 N686 1.427 . S
C683 H673 0.929 . S
C683 C681 1.433 . S
C683 N686 1.384 . S
C684 H675 0.929 . S
C684 C676 1.378 . S
C684 C679 1.350 . S
C685 H672 0.929 . S
C685 C677 1.433 1_554 S
C685 N687 1.384 . S
N686 C682 1.427 . S
N686 C683 1.384 . S
N687 C679 1.427 1_554 S
N687 C685 1.384 . S
C263 C2 1.660 . S
C267 C230 1.660 . S
C281 C198 1.661 . S
C285 C38 1.661 . S
C299 C162 1.660 . S
C303 C70 1.660 . S
C317 C130 1.663 . S
C321 C98 1.662 . S
C335 N82 1.602 . S
C339 N13 1.608 . S
C353 N50 1.607 . S
C357 N109 1.600 . S
C371 N114 1.434 . S
C375 N45 1.429 . S
C389 N77 1.434 . S
C393 N18 1.425 . S
C407 N141 1.604 . S
C411 N210 1.609 . S
C425 N173 1.610 . S
C429 N242 1.607 . S
C443 N237 1.417 . S
C447 N178 1.429 . S
C461 N205 1.434 . S
C465 N146 1.427 . S
C479 C6 1.298 . S
C483 C4 1.293 . S
C497 C34 1.300 . S
C501 C61 1.297 . S
C515 C93 1.296 . S
C519 C66 1.300 . S
C533 C102 1.300 . S
C537 C100 1.298 . S
C551 C132 1.296 . S
C555 C134 1.300 . S
C569 C166 1.300 . S
C573 C164 1.298 . S
C587 C194 1.300 . S
C591 C221 1.298 . S
C605 C226 1.299 . S
C609 C253 1.297 . S
C623 C29 1.583 . S
C627 C36 1.576 . S
C641 C125 1.575 . S
C645 C68 1.584 . S
C659 C157 1.577 . S
C663 C189 1.580 . S
C677 C228 1.575 . S
C681 C196 1.583 . S
