# Generated by pormake.
# Topology qtz-e, (6)-cn, num edge types: 1
# Building blocks:
#     Node 0, Type 0, BuildingBlock: LEVNOQ01_clean_sbu_1, # of connection points: 6
#     Node 1, Type 0, BuildingBlock: LEVNOQ01_clean_sbu_1, # of connection points: 6
#     Node 2, Type 0, BuildingBlock: LEVNOQ01_clean_sbu_1, # of connection points: 6
#     Node 3, Type 0, BuildingBlock: LEVNOQ01_clean_sbu_1, # of connection points: 6
#     Node 4, Type 0, BuildingBlock: LEVNOQ01_clean_sbu_1, # of connection points: 6
#     Node 5, Type 0, BuildingBlock: LEVNOQ01_clean_sbu_1, # of connection points: 6
#     Edge 6, Type (0, 0), BuildingBlock: KIFKEQ_clean_linker_1, # of connection points: 2
#     Edge 7, Type (0, 0), BuildingBlock: KIFKEQ_clean_linker_1, # of connection points: 2
#     Edge 8, Type (0, 0), BuildingBlock: KIFKEQ_clean_linker_1, # of connection points: 2
#     Edge 9, Type (0, 0), BuildingBlock: KIFKEQ_clean_linker_1, # of connection points: 2
#     Edge 10, Type (0, 0), BuildingBlock: KIFKEQ_clean_linker_1, # of connection points: 2
#     Edge 11, Type (0, 0), BuildingBlock: KIFKEQ_clean_linker_1, # of connection points: 2
#     Edge 12, Type (0, 0), BuildingBlock: KIFKEQ_clean_linker_1, # of connection points: 2
#     Edge 13, Type (0, 0), BuildingBlock: KIFKEQ_clean_linker_1, # of connection points: 2
#     Edge 14, Type (0, 0), BuildingBlock: KIFKEQ_clean_linker_1, # of connection points: 2
#     Edge 15, Type (0, 0), BuildingBlock: KIFKEQ_clean_linker_1, # of connection points: 2
#     Edge 16, Type (0, 0), BuildingBlock: KIFKEQ_clean_linker_1, # of connection points: 2
#     Edge 17, Type (0, 0), BuildingBlock: KIFKEQ_clean_linker_1, # of connection points: 2
#     Edge 18, Type (0, 0), BuildingBlock: KIFKEQ_clean_linker_1, # of connection points: 2
#     Edge 19, Type (0, 0), BuildingBlock: KIFKEQ_clean_linker_1, # of connection points: 2
#     Edge 20, Type (0, 0), BuildingBlock: KIFKEQ_clean_linker_1, # of connection points: 2
#     Edge 21, Type (0, 0), BuildingBlock: KIFKEQ_clean_linker_1, # of connection points: 2
#     Edge 22, Type (0, 0), BuildingBlock: KIFKEQ_clean_linker_1, # of connection points: 2
#     Edge 23, Type (0, 0), BuildingBlock: KIFKEQ_clean_linker_1, # of connection points: 2
# Relax obj value: 0.330
# Max RMSD: 0.227
# Mean RMSD: 0.227
data_MOF--net-qtz-e--node1-LEVNOQ01_clean_sbu_1--edge1-KIFKEQ_clean_linker_1
_symmetry_space_group_name_H-M    P1
_symmetry_Int_Tables_number       1
_symmetry_cell_setting            triclinic
loop_
_symmetry_equiv_pos_as_xyz
'x, y, z'
_cell_length_a     28.558965
_cell_length_b     28.506409
_cell_length_c     31.559808
_cell_angle_alpha  90.349656
_cell_angle_beta   90.001065
_cell_angle_gamma 119.75926
loop_
_atom_site_label
_atom_site_type_symbol
_atom_site_fract_x
_atom_site_fract_y
_atom_site_fract_z
_atom_type_partial_charge
O0 O 0.34783 0.46833 -0.00894 0.0
Mg1 Mg 0.31554 0.51987 0.9808 0.0
O2 O 0.27729 0.38408 -0.00713 0.0
Mg3 Mg 0.20435 0.39631 0.98143 0.0
O4 O 0.24565 0.47805 0.0096 0.0
O5 O 0.30077 0.56091 0.03055 0.0
O6 O 0.13256 0.40751 0.96732 0.0
O7 O 0.17293 0.3672 0.04834 0.0
Mg8 Mg 0.08294 0.27592 0.9797 0.0
O9 O 0.15831 0.3133 0.95799 0.0
O10 O 0.05539 0.32958 0.95821 0.0
O11 O 0.09983 0.28485 0.0455 0.0
O12 O 0.1074 0.22754 0.9439 0.0
C13 C 0.26712 0.47434 0.89583 0.0
C14 C 0.32783 0.41738 -0.00567 0.0
C15 C 0.25532 0.51714 0.03481 0.0
C16 C 0.08237 0.38114 0.95836 0.0
C17 C 0.13627 0.32491 0.06613 0.0
C18 C 0.1541 0.27026 0.9422 0.0
O19 O 0.29151 0.51784 0.91731 0.0
O20 O 0.23913 0.4282 0.91339 0.0
O21 O 0.83443 0.10856 0.37586 0.0
Mg22 Mg 0.79868 0.08954 0.3145 0.0
O23 O 0.81663 0.175 0.38642 0.0
Mg24 Mg 0.80488 0.20906 0.32567 0.0
O25 O 0.83097 0.16158 0.28523 0.0
O26 O 0.84276 0.09623 0.25973 0.0
O27 O 0.79606 0.25095 0.26722 0.0
O28 O 0.89426 0.27844 0.32754 0.0
Mg29 Mg 0.83216 0.32842 0.36126 0.0
O30 O 0.77382 0.25189 0.36704 0.0
O31 O 0.82731 0.33496 0.29327 0.0
O32 O 0.89586 0.31864 0.38646 0.0
O33 O 0.76746 0.31588 0.40106 0.0
C34 C 0.69106 0.08876 0.31435 0.0
C35 C 0.83088 0.1423 0.40025 0.0
C36 C 0.8523 0.14532 0.25716 0.0
C37 C 0.81111 0.30101 0.26255 0.0
C38 C 0.92114 0.31456 0.35519 0.0
C39 C 0.74743 0.26536 0.39243 0.0
O40 O 0.71475 0.06114 0.31074 0.0
O41 O 0.71679 0.1399 0.32032 0.0
O42 O 0.58859 0.89642 0.73194 0.0
Mg43 Mg 0.50968 0.83822 0.7117 0.0
O44 O 0.61654 0.89741 0.66796 0.0
Mg45 Mg 0.59033 0.80565 0.65898 0.0
O46 O 0.52454 0.77701 0.70671 0.0
O47 O 0.46175 0.76976 0.75014 0.0
O48 O 0.56305 0.71562 0.64787 0.0
O49 O 0.64526 0.80828 0.71246 0.0
Mg50 Mg 0.69372 0.79106 0.63074 0.0
O51 O 0.65418 0.82848 0.60954 0.0
O52 O 0.63563 0.70871 0.63222 0.0
O53 O 0.72573 0.82545 0.69027 0.0
O54 O 0.72301 0.83232 0.57453 0.0
C55 C 0.49979 0.82351 0.61053 0.0
C56 C 0.61135 0.9231 0.69916 0.0
C57 C 0.48761 0.74827 0.73321 0.0
C58 C 0.58545 0.68742 0.63948 0.0
C59 C 0.69304 0.81817 0.72007 0.0
C60 C 0.68714 0.84702 0.57827 0.0
O61 O 0.4889 0.83997 0.6451 0.0
O62 O 0.53238 0.8049 0.6092 0.0
O63 O 0.90201 0.72225 0.04769 0.0
Mg64 Mg 0.91498 0.7218 0.98093 0.0
O65 O 0.82678 0.64222 0.05159 0.0
Mg66 Mg 0.79065 0.60377 0.98826 0.0
O67 O 0.83993 0.68062 0.95754 0.0
O68 O 0.88706 0.76574 0.94254 0.0
O69 O 0.74786 0.55846 0.92679 0.0
O70 O 0.7244 0.6279 -0.00637 0.0
Mg71 Mg 0.67028 0.51306 0.01856 0.0
O72 O 0.74538 0.52558 0.02311 0.0
O73 O 0.66293 0.50772 0.95016 0.0
O74 O 0.68662 0.58548 0.05103 0.0
O75 O 0.67839 0.4536 0.05184 0.0
C76 C 0.90882 0.61026 0.96721 0.0
C77 C 0.86472 0.68423 0.06894 0.0
C78 C 0.84129 0.72189 0.94145 0.0
C79 C 0.69753 0.52574 0.92025 0.0
C80 C 0.689 0.61671 0.022 0.0
C81 C 0.72927 0.48253 0.04484 0.0
O82 O 0.9369 0.66174 0.96466 0.0
O83 O 0.85876 0.58533 0.97692 0.0
O84 O 0.10341 0.70286 0.38481 0.0
Mg85 Mg 0.15691 0.68464 0.35118 0.0
O86 O 0.09393 0.72509 0.32186 0.0
Mg87 Mg 0.18273 0.79285 0.31096 0.0
O88 O 0.22399 0.75763 0.3521 0.0
O89 O 0.22131 0.68671 0.38307 0.0
O90 O 0.26745 0.86115 0.29421 0.0
O91 O 0.18183 0.83705 0.36985 0.0
Mg92 Mg 0.18762 0.91475 0.2908 0.0
O93 O 0.15015 0.83556 0.27545 0.0
O94 O 0.26756 0.93556 0.27147 0.0
O95 O 0.18055 0.91355 0.35857 0.0
O96 O 0.11197 0.88229 0.25792 0.0
C97 C 0.15954 0.69083 0.25195 0.0
C98 C 0.07231 0.69639 0.35434 0.0
C99 C 0.24705 0.73768 0.37519 0.0
C100 C 0.29172 0.90891 0.27892 0.0
C101 C 0.18016 0.87821 0.38332 0.0
C102 C 0.10829 0.83574 0.26202 0.0
O103 O 0.14379 0.66208 0.28526 0.0
O104 O 0.18167 0.74242 0.25331 0.0
O105 O 0.26975 0.19816 0.68451 0.0
Mg106 Mg 0.26989 0.1888 0.6173 0.0
O107 O 0.32833 0.17161 0.70305 0.0
Mg108 Mg 0.3755 0.17257 0.64653 0.0
O109 O 0.30244 0.14034 0.60627 0.0
O110 O 0.21607 0.10859 0.59706 0.0
O111 O 0.4271 0.17294 0.59116 0.0
O112 O 0.35504 0.08255 0.65745 0.0
Mg113 Mg 0.44085 0.14642 0.69001 0.0
O114 O 0.45179 0.22167 0.69108 0.0
O115 O 0.46141 0.13089 0.62771 0.0
O116 O 0.36915 0.09394 0.72413 0.0
O117 O 0.50499 0.19725 0.72586 0.0
C118 C 0.37678 0.28503 0.60895 0.0
C119 C 0.29393 0.1857 0.71223 0.0
C120 C 0.25549 0.09921 0.6012 0.0
C121 C 0.45495 0.14915 0.59279 0.0
C122 C 0.35796 0.06288 0.69267 0.0
C123 C 0.49261 0.23357 0.71587 0.0
O124 O 0.33063 0.26278 0.59108 0.0
O125 O 0.39291 0.2578 0.63031 0.0
H126 H 0.24484 0.7156 0.20183 0.0
H127 H 0.07541 0.60153 0.21644 0.0
H128 H 0.25231 0.65487 0.15081 0.0
H129 H 0.08264 0.54058 0.16459 0.0
H130 H 0.15895 0.51315 0.02546 0.0
H131 H 0.12129 0.54871 0.07843 0.0
H132 H 0.23385 0.55229 0.17139 0.0
H133 H 0.27169 0.51771 0.11855 0.0
C134 C 0.20883 0.67846 0.19284 0.0
C135 C 0.15961 0.66302 0.2128 0.0
C136 C 0.2132 0.64338 0.16429 0.0
C137 C 0.16822 0.59278 0.15479 0.0
C138 C 0.11786 0.57915 0.17197 0.0
C139 C 0.11374 0.61396 0.20127 0.0
C140 C 0.17347 0.51889 0.05785 0.0
C141 C 0.21839 0.5136 0.06822 0.0
C142 C 0.1522 0.5394 0.08797 0.0
C143 C 0.17596 0.55447 0.12831 0.0
C144 C 0.21568 0.54171 0.14013 0.0
C145 C 0.23701 0.52163 0.11011 0.0
H146 H 0.50736 0.09167 0.58344 0.0
H147 H 0.47031 0.2018 0.5175 0.0
H148 H 0.56981 0.1006 0.52747 0.0
H149 H 0.53366 0.21166 0.46203 0.0
H150 H 0.64533 0.2217 0.36259 0.0
H151 H 0.56274 0.17438 0.40472 0.0
H152 H 0.6579 0.17744 0.51242 0.0
H153 H 0.7395 0.22352 0.4699 0.0
C154 C 0.51178 0.11704 0.55662 0.0
C155 C 0.48456 0.14679 0.55522 0.0
C156 C 0.54766 0.12218 0.5246 0.0
C157 C 0.55721 0.15731 0.49058 0.0
C158 C 0.52687 0.18381 0.48758 0.0
C159 C 0.49077 0.17849 0.51955 0.0
C160 C 0.64787 0.21033 0.39485 0.0
C161 C 0.69805 0.22559 0.41327 0.0
C162 C 0.60091 0.18372 0.41901 0.0
C163 C 0.60383 0.17279 0.46204 0.0
C164 C 0.65402 0.18465 0.47929 0.0
C165 C 0.70081 0.21114 0.45509 0.0
H166 H 0.34189 0.45074 0.86824 0.0
H167 H 0.23995 0.51399 0.82814 0.0
H168 H 0.40711 0.50312 0.81322 0.0
H169 H 0.30341 0.56387 0.77173 0.0
H170 H 0.42853 0.6631 0.68171 0.0
H171 H 0.37141 0.56985 0.70571 0.0
H172 H 0.45007 0.61377 0.82788 0.0
H173 H 0.5054 0.70702 0.80431 0.0
C174 C 0.33146 0.4725 0.84554 0.0
C175 C 0.2859 0.47831 0.85211 0.0
C176 C 0.36901 0.50275 0.8143 0.0
C177 C 0.36031 0.53761 0.78847 0.0
C178 C 0.31073 0.53676 0.79094 0.0
C179 C 0.27411 0.50794 0.82303 0.0
C180 C 0.43522 0.65192 0.71294 0.0
C181 C 0.47082 0.69164 0.74139 0.0
C182 C 0.40264 0.59875 0.72661 0.0
C183 C 0.40626 0.58485 0.7686 0.0
C184 C 0.44691 0.62332 0.79518 0.0
C185 C 0.47848 0.67666 0.78184 0.0
H186 H 0.88596 0.34195 0.19973 0.0
H187 H 0.72622 0.30773 0.23516 0.0
H188 H 0.88393 0.39486 0.13875 0.0
H189 H 0.72427 0.36033 0.17502 0.0
H190 H 0.77307 0.51966 0.12103 0.0
H191 H 0.80696 0.47593 0.16857 0.0
H192 H 0.79732 0.36924 0.06717 0.0
H193 H 0.76393 0.41393 0.01921 0.0
C194 C 0.84997 0.34449 0.19354 0.0
C195 C 0.80589 0.3207 0.22133 0.0
C196 C 0.849 0.3748 0.15911 0.0
C197 C 0.80425 0.38183 0.15299 0.0
C198 C 0.75926 0.3555 0.17957 0.0
C199 C 0.76011 0.32517 0.21356 0.0
C200 C 0.78133 0.48909 0.10835 0.0
C201 C 0.76664 0.47015 0.06676 0.0
C202 C 0.80034 0.46394 0.13547 0.0
C203 C 0.80418 0.41923 0.12128 0.0
C204 C 0.79495 0.40397 0.07844 0.0
C205 C 0.7759 0.42933 0.05119 0.0
H206 H 0.4483 0.88098 0.59542 0.0
H207 H 0.49251 0.77186 0.53558 0.0
H208 H 0.40001 0.88007 0.53164 0.0
H209 H 0.44157 0.76819 0.47285 0.0
H210 H 0.35262 0.76904 0.35944 0.0
H211 H 0.42582 0.80666 0.41203 0.0
H212 H 0.31697 0.81505 0.50325 0.0
H213 H 0.24565 0.77908 0.45055 0.0
C214 C 0.44792 0.85698 0.56858 0.0
C215 C 0.47359 0.82588 0.57081 0.0
C216 C 0.42007 0.85629 0.53201 0.0
C217 C 0.41614 0.82348 0.49716 0.0
C218 C 0.44415 0.79451 0.49871 0.0
C219 C 0.47288 0.79604 0.53499 0.0
C220 C 0.34555 0.78114 0.3903 0.0
C221 C 0.29431 0.77245 0.40107 0.0
C222 C 0.38703 0.80203 0.42056 0.0
C223 C 0.37729 0.81345 0.46214 0.0
C224 C 0.3266 0.80782 0.47156 0.0
C225 C 0.28557 0.78732 0.44135 0.0
H226 H 0.62091 0.52755 0.86999 0.0
H227 H 0.72901 0.46351 0.87922 0.0
H228 H 0.57473 0.46703 0.81009 0.0
H229 H 0.68125 0.40033 0.82229 0.0
H230 H 0.60077 0.29343 0.71589 0.0
H231 H 0.65677 0.37733 0.75402 0.0
H232 H 0.51303 0.37713 0.79814 0.0
H233 H 0.45768 0.29537 0.75646 0.0
C234 C 0.63536 0.50117 0.85841 0.0
C235 C 0.67881 0.50044 0.87849 0.0
C236 C 0.60848 0.46587 0.82458 0.0
C237 C 0.62353 0.42795 0.8112 0.0
C238 C 0.66885 0.42943 0.83048 0.0
C239 C 0.69651 0.46572 0.86334 0.0
C240 C 0.58149 0.31237 0.73291 0.0
C241 C 0.52525 0.28822 0.73354 0.0
C242 C 0.61346 0.36014 0.7553 0.0
C243 C 0.58981 0.38375 0.78044 0.0
C244 C 0.53316 0.36081 0.77907 0.0
C245 C 0.5012 0.31374 0.75537 0.0
H246 H 0.37482 0.39573 0.06128 0.0
H247 H 0.37374 0.40123 0.92538 0.0
H248 H 0.47201 0.45443 0.06177 0.0
H249 H 0.46897 0.46542 0.92503 0.0
H250 H 0.6471 0.59207 0.94162 0.0
H251 H 0.55699 0.51703 0.93217 0.0
H252 H 0.51595 0.54561 0.05819 0.0
H253 H 0.6088 0.61548 0.0693 0.0
C254 C 0.39587 0.40754 0.03127 0.0
C255 C 0.36702 0.39884 -0.00646 0.0
C256 C 0.45131 0.44344 0.03153 0.0
C257 C 0.47755 0.46989 -0.00614 0.0
C258 C 0.45035 0.44875 0.95516 0.0
C259 C 0.39546 0.41054 0.95523 0.0
C260 C 0.61843 0.58295 0.96704 0.0
C261 C 0.63579 0.60642 0.0074 0.0
C262 C 0.56643 0.5392 0.96175 0.0
C263 C 0.52994 0.5216 -0.00417 0.0
C264 C 0.54419 0.55442 0.03253 0.0
C265 C 0.59688 0.59637 0.03838 0.0
H266 H 0.03645 0.64258 0.27789 0.0
H267 H 0.01421 0.62038 0.41314 0.0
H268 H 0.01178 0.54827 0.26933 0.0
H269 H 0.98716 0.52569 0.40435 0.0
H270 H 0.00889 0.38889 0.39892 0.0
H271 H 0.04091 0.48502 0.39194 0.0
H272 H 0.95665 0.4546 0.27225 0.0
H273 H 0.92971 0.35964 0.27745 0.0
C274 C 0.02409 0.61715 0.30567 0.0
C275 C 0.03025 0.63962 0.34658 0.0
C276 C 0.0107 0.5631 0.30072 0.0
C277 C 0.00162 0.53062 0.33648 0.0
C278 C -0.00232 0.55069 0.37638 0.0
C279 C 0.01158 0.60463 0.38135 0.0
C280 C 0.00019 0.40334 0.36993 0.0
C281 C 0.9646 0.36669 0.33982 0.0
C282 C 0.01692 0.45814 0.36649 0.0
C283 C -0.0024 0.4767 0.33321 0.0
C284 C 0.9707 0.44152 0.29913 0.0
C285 C 0.95556 0.3869 0.30198 0.0
H286 H 0.37944 0.01645 0.62386 0.0
H287 H 0.39943 0.03495 0.75956 0.0
H288 H 0.4531 -0.00145 0.61956 0.0
H289 H 0.47021 0.01309 0.75642 0.0
H290 H 0.61411 -2e-05 0.75243 0.0
H291 H 0.55329 0.03563 0.74784 0.0
H292 H 0.51053 0.97167 0.61999 0.0
H293 H 0.57541 0.94174 0.62375 0.0
C294 C 0.39859 0.01502 0.65309 0.0
C295 C 0.38483 0.02952 0.69182 0.0
C296 C 0.44202 0.00527 0.65073 0.0
C297 C 0.47182 0.00781 0.68734 0.0
C298 C 0.45232 0.01464 0.72671 0.0
C299 C 0.40981 0.02548 0.72887 0.0
C300 C 0.59311 -0.00435 0.72279 0.0
C301 C 0.59754 0.96556 0.6893 0.0
C302 C 0.55618 0.01423 0.72053 0.0
C303 C 0.52131 0.00149 0.68522 0.0
C304 C 0.5331 0.97978 0.64906 0.0
C305 C 0.57149 0.96296 0.65089 0.0
H306 H 0.62145 0.61654 0.64949 0.0
H307 H 0.47683 0.62541 0.62615 0.0
H308 H 0.57068 0.51916 0.64099 0.0
H309 H 0.42538 0.52693 0.61837 0.0
H310 H 0.37196 0.35948 0.55714 0.0
H311 H 0.42137 0.4579 0.56638 0.0
H312 H 0.50032 0.44094 0.67733 0.0
H313 H 0.45293 0.34391 0.66757 0.0
C314 C 0.57866 0.59754 0.64267 0.0
C315 C 0.55305 0.62838 0.63788 0.0
C316 C 0.54957 0.54178 0.63809 0.0
C317 C 0.4943 0.51575 0.62864 0.0
C318 C 0.46822 0.54634 0.62499 0.0
C319 C 0.49742 0.6024 0.62983 0.0
C320 C 0.40034 0.37705 0.58314 0.0
C321 C 0.40909 0.3442 0.61127 0.0
C322 C 0.42807 0.43308 0.58869 0.0
C323 C 0.4644 0.45674 0.62263 0.0
C324 C 0.47315 0.42379 0.65054 0.0
C325 C 0.44607 0.36818 0.64478 0.0
H326 H 0.97613 0.34866 0.97055 0.0
H327 H 0.12716 0.48415 0.9301 0.0
H328 H 0.93425 0.40501 0.96823 0.0
H329 H 0.08488 0.53988 0.9258 0.0
H330 H 0.01365 0.63918 0.98158 0.0
H331 H 0.05462 0.58234 0.97416 0.0
H332 H 0.90372 0.45225 0.92567 0.0
H333 H 0.86225 0.50834 0.93535 0.0
C334 C -9e-05 0.39009 0.96007 0.0
C335 C 0.05483 0.4122 0.95071 0.0
C336 C 0.97596 0.4224 0.95861 0.0
C337 C 0.00637 0.47712 0.94712 0.0
C338 C 0.06066 0.49827 0.93569 0.0
C339 C 0.08475 0.46624 0.9378 0.0
C340 C 0.98955 0.59859 0.969 0.0
C341 C 0.93487 0.57788 0.95926 0.0
C342 C 0.01299 0.56608 0.96449 0.0
C343 C 0.98238 0.51266 0.94934 0.0
C344 C 0.9281 0.49279 0.93821 0.0
C345 C 0.90443 0.52494 0.94351 0.0
H346 H 0.35367 0.86115 0.27422 0.0
H347 H 0.36282 0.0172 0.27374 0.0
H348 H 0.45121 0.9052 0.28047 0.0
H349 H 0.46081 0.06139 0.27907 0.0
H350 H 0.61906 0.11261 0.35079 0.0
H351 H 0.52237 0.0697 0.33621 0.0
H352 H 0.53616 0.96197 0.24642 0.0
H353 H 0.6321 0.00368 0.26227 0.0
C354 C 0.37665 0.90491 0.27466 0.0
C355 C 0.35065 0.93573 0.27415 0.0
C356 C 0.43255 0.93016 0.27804 0.0
C357 C 0.46347 0.9867 0.28101 0.0
C358 C 0.43776 0.01766 0.27776 0.0
C359 C 0.38176 0.99238 0.2742 0.0
C360 C 0.60115 0.07981 0.328 0.0
C361 C 0.63263 0.06143 0.30759 0.0
C362 C 0.54608 0.05551 0.31938 0.0
C363 C 0.52191 0.01292 0.28975 0.0
C364 C 0.55357 -0.00563 0.26964 0.0
C365 C 0.60838 0.01815 0.27874 0.0
H366 H 0.22731 0.12166 0.77347 0.0
H367 H 0.35995 0.281 0.74818 0.0
H368 H 0.22114 0.14952 0.84532 0.0
H369 H 0.35599 0.30919 0.82077 0.0
H370 H 0.2251 0.34039 0.88668 0.0
H371 H 0.28736 0.32692 0.84386 0.0
H372 H 0.24984 0.18336 0.91541 0.0
H373 H 0.18584 0.197 0.9578 0.0
C374 C 0.25561 0.16239 0.78395 0.0
C375 C 0.29251 0.20009 0.75588 0.0
C376 C 0.2532 0.17822 0.82524 0.0
C377 C 0.28784 0.23196 0.8386 0.0
C378 C 0.32836 0.26788 0.81118 0.0
C379 C 0.33027 0.2521 0.76979 0.0
C380 C 0.23221 0.30764 0.89453 0.0
C381 C 0.20031 0.26903 0.9244 0.0
C382 C 0.2682 0.29982 0.87015 0.0
C383 C 0.27206 0.25287 0.87541 0.0
C384 C 0.24621 0.21891 0.90994 0.0
C385 C 0.20944 0.22634 0.93384 0.0
H386 H 0.89259 0.11862 0.1895 0.0
H387 H 0.89981 0.25557 0.25452 0.0
H388 H 0.97624 0.17812 0.15373 0.0
H389 H 0.98666 0.31529 0.2216 0.0
H390 H 0.10887 0.39123 0.10555 0.0
H391 H 0.03647 0.35409 0.15734 0.0
H392 H 0.06799 0.22289 0.18026 0.0
H393 H 0.1372 0.25792 0.12589 0.0
C394 C 0.91223 0.16158 0.19622 0.0
C395 C 0.89197 0.18238 0.22689 0.0
C396 C 0.96063 0.19555 0.17642 0.0
C397 C 0.98996 0.25062 0.18757 0.0
C398 C 0.96607 0.27257 0.21395 0.0
C399 C 0.91665 0.23847 0.233 0.0
C400 C 0.10234 0.35624 0.1236 0.0
C401 C 0.12664 0.32603 0.11114 0.0
C402 C 0.06045 0.33463 0.15291 0.0
C403 C 0.04474 0.28395 0.17064 0.0
C404 C 0.07779 0.26073 0.1652 0.0
C405 C 0.1183 0.28136 0.13495 0.0
H406 H 0.65278 0.91889 0.59538 0.0
H407 H 0.72799 0.87042 0.49927 0.0
H408 H 0.6947 0.00964 0.56543 0.0
H409 H 0.76779 0.95968 0.4683 0.0
H410 H 0.8898 0.11291 0.44986 0.0
H411 H 0.84513 0.04259 0.50261 0.0
H412 H 0.70821 0.06822 0.50133 0.0
H413 H 0.75453 0.14108 0.45114 0.0
C414 C 0.67675 0.92717 0.56713 0.0
C415 C 0.68991 0.88926 0.55092 0.0
C416 C 0.70101 0.97905 0.55027 0.0
C417 C 0.73749 0.99218 0.51676 0.0
C418 C 0.74251 0.95116 0.49604 0.0
C419 C 0.71899 0.89991 0.51317 0.0
C420 C 0.852 0.10614 0.46321 0.0
C421 C 0.82424 0.13006 0.44531 0.0
C422 C 0.826 0.06543 0.49276 0.0
C423 C 0.77205 0.04816 0.50335 0.0
C424 C 0.74926 0.08004 0.49255 0.0
C425 C 0.77613 0.12207 0.46403 0.0
H426 H 0.6414 0.81127 0.795 0.0
H427 H 0.76702 0.78867 0.73843 0.0
H428 H 0.64872 0.76866 0.86041 0.0
H429 H 0.77249 0.74532 0.80208 0.0
H430 H 0.76652 0.64471 0.89048 0.0
H431 H 0.70145 0.65405 0.84668 0.0
H432 H 0.74414 0.80515 0.90928 0.0
H433 H 0.80879 0.79529 0.95357 0.0
C434 C 0.67074 0.79776 0.79669 0.0
C435 C 0.70409 0.8038 0.76187 0.0
C436 C 0.67397 0.77255 0.83354 0.0
C437 C 0.70944 0.75201 0.83518 0.0
C438 C 0.74339 0.75921 0.8008 0.0
C439 C 0.74125 0.78537 0.76477 0.0
C440 C 0.75957 0.67811 0.89657 0.0
C441 C 0.79317 0.72007 0.92419 0.0
C442 C 0.72208 0.68324 0.87184 0.0
C443 C 0.71922 0.73096 0.87424 0.0
C444 C 0.74619 0.76827 0.9069 0.0
C445 C 0.78392 0.76329 0.93144 0.0
H446 H 0.08734 0.74535 0.21796 0.0
H447 H 0.0138 0.81511 0.29652 0.0
H448 H -0.00135 0.6783 0.19163 0.0
H449 H 0.92466 0.74689 0.27142 0.0
H450 H 0.88629 0.76585 0.12389 0.0
H451 H 0.92199 0.77455 0.19505 0.0
H452 H 0.89665 0.61203 0.18697 0.0
H453 H 0.85979 0.60342 0.11566 0.0
C454 C 0.05184 0.74451 0.231 0.0
C455 C 0.05663 0.78631 0.2573 0.0
C456 C 0.00094 0.70563 0.21659 0.0
C457 C 0.95513 0.70904 0.22839 0.0
C458 C 0.95961 0.74444 0.2612 0.0
C459 C 0.01046 0.78388 0.27492 0.0
C460 C 0.88601 0.73127 0.13824 0.0
C461 C 0.87091 0.68424 0.11475 0.0
C462 C 0.90576 0.73574 0.17918 0.0
C463 C 0.91244 0.69391 0.19638 0.0
C464 C 0.89157 0.64458 0.17451 0.0
C465 C 0.87061 0.63973 0.13383 0.0
H466 H 0.32648 0.0705 0.56997 0.0
H467 H 0.1646 0.00517 0.61819 0.0
H468 H 0.30014 0.98562 0.53373 0.0
H469 H 0.13821 0.91978 0.58206 0.0
H470 H 0.12546 0.91652 0.42848 0.0
H471 H 0.13804 0.94181 0.50306 0.0
H472 H 0.25181 0.8842 0.51527 0.0
H473 H 0.23842 0.85841 0.44029 0.0
C474 C 0.2861 0.03696 0.57472 0.0
C475 C 0.24678 0.04461 0.59501 0.0
C476 C 0.27103 0.98802 0.55433 0.0
C477 C 0.21653 0.94721 0.55383 0.0
C478 C 0.18015 0.95132 0.58131 0.0
C479 C 0.19509 0.00031 0.60147 0.0
C480 C 0.15194 0.90802 0.44749 0.0
C481 C 0.18154 0.88634 0.42906 0.0
C482 C 0.15848 0.92142 0.49032 0.0
C483 C 0.19577 0.91457 0.51496 0.0
C484 C 0.22242 0.88919 0.49708 0.0
C485 C 0.215 0.87482 0.45433 0.0
loop_
_geom_bond_atom_site_label_1
_geom_bond_atom_site_label_2
_geom_bond_distance
_geom_bond_site_symmetry_2
_ccdc_geom_bond_type
O0 Mg1 1.990 . S
O0 C14 1.253 . S
Mg1 O0 1.990 . S
Mg1 O4 2.180 . S
Mg1 O5 2.117 . S
Mg1 O19 2.030 1_554 S
O2 Mg3 2.072 1_554 S
O2 C14 1.260 . S
Mg3 O2 2.072 1_556 S
Mg3 O4 2.099 1_556 S
Mg3 O6 2.079 . S
Mg3 O7 2.072 1_556 S
Mg3 O9 2.099 . S
Mg3 O20 2.079 . S
O4 Mg1 2.180 . S
O4 Mg3 2.099 1_554 S
O4 C15 1.279 . S
O5 Mg1 2.117 . S
O5 C15 1.250 . S
O6 Mg3 2.079 . S
O6 C16 1.264 . S
O7 Mg3 2.072 1_554 S
O7 C17 1.260 . S
Mg8 O9 2.180 . S
Mg8 O10 2.030 . S
Mg8 O11 1.990 1_556 S
Mg8 O12 2.117 . S
O9 Mg3 2.099 . S
O9 Mg8 2.180 . S
O9 C18 1.279 . S
O10 Mg8 2.030 . S
O10 C16 1.248 . S
O11 Mg8 1.990 1_554 S
O11 C17 1.253 . S
O12 Mg8 2.117 . S
O12 C18 1.250 . S
C13 O19 1.248 . S
C13 O20 1.264 . S
C14 O0 1.253 . S
C14 O2 1.260 . S
C15 O4 1.279 . S
C15 O5 1.250 . S
C16 O6 1.264 . S
C16 O10 1.248 . S
C17 O7 1.260 . S
C17 O11 1.253 . S
C18 O9 1.279 . S
C18 O12 1.250 . S
O19 Mg1 2.030 1_556 S
O19 C13 1.248 . S
O20 Mg3 2.079 . S
O20 C13 1.264 . S
O21 Mg22 1.990 . S
O21 C35 1.253 . S
Mg22 O21 1.990 . S
Mg22 O25 2.180 . S
Mg22 O26 2.117 . S
Mg22 O40 2.030 . S
O23 Mg24 2.072 . S
O23 C35 1.260 . S
Mg24 O23 2.072 . S
Mg24 O25 2.099 . S
Mg24 O27 2.079 . S
Mg24 O28 2.072 . S
Mg24 O30 2.099 . S
Mg24 O41 2.079 . S
O25 Mg22 2.180 . S
O25 Mg24 2.099 . S
O25 C36 1.279 . S
O26 Mg22 2.117 . S
O26 C36 1.250 . S
O27 Mg24 2.079 . S
O27 C37 1.264 . S
O28 Mg24 2.072 . S
O28 C38 1.260 . S
Mg29 O30 2.180 . S
Mg29 O31 2.030 . S
Mg29 O32 1.990 . S
Mg29 O33 2.117 . S
O30 Mg24 2.099 . S
O30 Mg29 2.180 . S
O30 C39 1.279 . S
O31 Mg29 2.030 . S
O31 C37 1.248 . S
O32 Mg29 1.990 . S
O32 C38 1.253 . S
O33 Mg29 2.117 . S
O33 C39 1.250 . S
C34 O40 1.248 . S
C34 O41 1.264 . S
C35 O21 1.253 . S
C35 O23 1.260 . S
C36 O25 1.279 . S
C36 O26 1.250 . S
C37 O27 1.264 . S
C37 O31 1.248 . S
C38 O28 1.260 . S
C38 O32 1.253 . S
C39 O30 1.279 . S
C39 O33 1.250 . S
O40 Mg22 2.030 . S
O40 C34 1.248 . S
O41 Mg24 2.079 . S
O41 C34 1.264 . S
O42 Mg43 1.990 . S
O42 C56 1.253 . S
Mg43 O42 1.990 . S
Mg43 O46 2.180 . S
Mg43 O47 2.117 . S
Mg43 O61 2.030 . S
O44 Mg45 2.072 . S
O44 C56 1.260 . S
Mg45 O44 2.072 . S
Mg45 O46 2.099 . S
Mg45 O48 2.079 . S
Mg45 O49 2.072 . S
Mg45 O51 2.099 . S
Mg45 O62 2.079 . S
O46 Mg43 2.180 . S
O46 Mg45 2.099 . S
O46 C57 1.279 . S
O47 Mg43 2.117 . S
O47 C57 1.250 . S
O48 Mg45 2.079 . S
O48 C58 1.264 . S
O49 Mg45 2.072 . S
O49 C59 1.260 . S
Mg50 O51 2.180 . S
Mg50 O52 2.030 . S
Mg50 O53 1.990 . S
Mg50 O54 2.117 . S
O51 Mg45 2.099 . S
O51 Mg50 2.180 . S
O51 C60 1.279 . S
O52 Mg50 2.030 . S
O52 C58 1.248 . S
O53 Mg50 1.990 . S
O53 C59 1.253 . S
O54 Mg50 2.117 . S
O54 C60 1.250 . S
C55 O61 1.248 . S
C55 O62 1.264 . S
C56 O42 1.253 . S
C56 O44 1.260 . S
C57 O46 1.279 . S
C57 O47 1.250 . S
C58 O48 1.264 . S
C58 O52 1.248 . S
C59 O49 1.260 . S
C59 O53 1.253 . S
C60 O51 1.279 . S
C60 O54 1.250 . S
O61 Mg43 2.030 . S
O61 C55 1.248 . S
O62 Mg45 2.079 . S
O62 C55 1.264 . S
O63 Mg64 1.990 1_554 S
O63 C77 1.253 . S
Mg64 O63 1.990 1_556 S
Mg64 O67 2.180 . S
Mg64 O68 2.117 . S
Mg64 O82 2.030 . S
O65 Mg66 2.072 1_554 S
O65 C77 1.260 . S
Mg66 O65 2.072 1_556 S
Mg66 O67 2.099 . S
Mg66 O69 2.079 . S
Mg66 O70 2.072 1_556 S
Mg66 O72 2.099 1_556 S
Mg66 O83 2.079 . S
O67 Mg64 2.180 . S
O67 Mg66 2.099 . S
O67 C78 1.279 . S
O68 Mg64 2.117 . S
O68 C78 1.250 . S
O69 Mg66 2.079 . S
O69 C79 1.264 . S
O70 Mg66 2.072 1_554 S
O70 C80 1.260 . S
Mg71 O72 2.180 . S
Mg71 O73 2.030 1_554 S
Mg71 O74 1.990 . S
Mg71 O75 2.117 . S
O72 Mg66 2.099 1_554 S
O72 Mg71 2.180 . S
O72 C81 1.279 . S
O73 Mg71 2.030 1_556 S
O73 C79 1.248 . S
O74 Mg71 1.990 . S
O74 C80 1.253 . S
O75 Mg71 2.117 . S
O75 C81 1.250 . S
C76 O82 1.248 . S
C76 O83 1.264 . S
C77 O63 1.253 . S
C77 O65 1.260 . S
C78 O67 1.279 . S
C78 O68 1.250 . S
C79 O69 1.264 . S
C79 O73 1.248 . S
C80 O70 1.260 . S
C80 O74 1.253 . S
C81 O72 1.279 . S
C81 O75 1.250 . S
O82 Mg64 2.030 . S
O82 C76 1.248 . S
O83 Mg66 2.079 . S
O83 C76 1.264 . S
O84 Mg85 1.990 . S
O84 C98 1.253 . S
Mg85 O84 1.990 . S
Mg85 O88 2.180 . S
Mg85 O89 2.117 . S
Mg85 O103 2.030 . S
O86 Mg87 2.072 . S
O86 C98 1.260 . S
Mg87 O86 2.072 . S
Mg87 O88 2.099 . S
Mg87 O90 2.079 . S
Mg87 O91 2.072 . S
Mg87 O93 2.099 . S
Mg87 O104 2.079 . S
O88 Mg85 2.180 . S
O88 Mg87 2.099 . S
O88 C99 1.279 . S
O89 Mg85 2.117 . S
O89 C99 1.250 . S
O90 Mg87 2.079 . S
O90 C100 1.264 . S
O91 Mg87 2.072 . S
O91 C101 1.260 . S
Mg92 O93 2.180 . S
Mg92 O94 2.030 . S
Mg92 O95 1.990 . S
Mg92 O96 2.117 . S
O93 Mg87 2.099 . S
O93 Mg92 2.180 . S
O93 C102 1.279 . S
O94 Mg92 2.030 . S
O94 C100 1.248 . S
O95 Mg92 1.990 . S
O95 C101 1.253 . S
O96 Mg92 2.117 . S
O96 C102 1.250 . S
C97 O103 1.248 . S
C97 O104 1.264 . S
C98 O84 1.253 . S
C98 O86 1.260 . S
C99 O88 1.279 . S
C99 O89 1.250 . S
C100 O90 1.264 . S
C100 O94 1.248 . S
C101 O91 1.260 . S
C101 O95 1.253 . S
C102 O93 1.279 . S
C102 O96 1.250 . S
O103 Mg85 2.030 . S
O103 C97 1.248 . S
O104 Mg87 2.079 . S
O104 C97 1.264 . S
O105 Mg106 1.990 . S
O105 C119 1.253 . S
Mg106 O105 1.990 . S
Mg106 O109 2.180 . S
Mg106 O110 2.117 . S
Mg106 O124 2.030 . S
O107 Mg108 2.072 . S
O107 C119 1.260 . S
Mg108 O107 2.072 . S
Mg108 O109 2.099 . S
Mg108 O111 2.079 . S
Mg108 O112 2.072 . S
Mg108 O114 2.099 . S
Mg108 O125 2.079 . S
O109 Mg106 2.180 . S
O109 Mg108 2.099 . S
O109 C120 1.279 . S
O110 Mg106 2.117 . S
O110 C120 1.250 . S
O111 Mg108 2.079 . S
O111 C121 1.264 . S
O112 Mg108 2.072 . S
O112 C122 1.260 . S
Mg113 O114 2.180 . S
Mg113 O115 2.030 . S
Mg113 O116 1.990 . S
Mg113 O117 2.117 . S
O114 Mg108 2.099 . S
O114 Mg113 2.180 . S
O114 C123 1.279 . S
O115 Mg113 2.030 . S
O115 C121 1.248 . S
O116 Mg113 1.990 . S
O116 C122 1.253 . S
O117 Mg113 2.117 . S
O117 C123 1.250 . S
C118 O124 1.248 . S
C118 O125 1.264 . S
C119 O105 1.253 . S
C119 O107 1.260 . S
C120 O109 1.279 . S
C120 O110 1.250 . S
C121 O111 1.264 . S
C121 O115 1.248 . S
C122 O112 1.260 . S
C122 O116 1.253 . S
C123 O114 1.279 . S
C123 O117 1.250 . S
O124 Mg106 2.030 . S
O124 C118 1.248 . S
O125 Mg108 2.079 . S
O125 C118 1.264 . S
H126 C134 0.950 . S
H127 C139 0.950 . S
H128 C136 0.950 . S
H129 C138 0.950 . S
H130 C140 0.950 . S
H131 C142 0.950 . S
H132 C144 0.950 . S
H133 C145 0.950 . S
C134 H126 0.950 . S
C134 C135 1.386 . S
C134 C136 1.391 . S
C135 C134 1.386 . S
C135 C139 1.393 . S
C136 H128 0.950 . S
C136 C134 1.391 . S
C136 C137 1.400 . S
C137 C136 1.400 . S
C137 C138 1.398 . S
C137 C143 1.491 . S
C138 H129 0.950 . S
C138 C137 1.398 . S
C138 C139 1.391 . S
C139 H127 0.950 . S
C139 C135 1.393 . S
C139 C138 1.391 . S
C140 H130 0.950 . S
C140 C141 1.386 . S
C140 C142 1.391 . S
C141 C140 1.386 . S
C141 C145 1.393 . S
C142 H131 0.950 . S
C142 C140 1.391 . S
C142 C143 1.400 . S
C143 C137 1.491 . S
C143 C142 1.400 . S
C143 C144 1.398 . S
C144 H132 0.950 . S
C144 C143 1.398 . S
C144 C145 1.391 . S
C145 H133 0.950 . S
C145 C141 1.393 . S
C145 C144 1.391 . S
H146 C154 0.950 . S
H147 C159 0.950 . S
H148 C156 0.950 . S
H149 C158 0.950 . S
H150 C160 0.950 . S
H151 C162 0.950 . S
H152 C164 0.950 . S
H153 C165 0.950 . S
C154 H146 0.950 . S
C154 C155 1.386 . S
C154 C156 1.391 . S
C155 C154 1.386 . S
C155 C159 1.393 . S
C156 H148 0.950 . S
C156 C154 1.391 . S
C156 C157 1.400 . S
C157 C156 1.400 . S
C157 C158 1.398 . S
C157 C163 1.491 . S
C158 H149 0.950 . S
C158 C157 1.398 . S
C158 C159 1.391 . S
C159 H147 0.950 . S
C159 C155 1.393 . S
C159 C158 1.391 . S
C160 H150 0.950 . S
C160 C161 1.386 . S
C160 C162 1.391 . S
C161 C160 1.386 . S
C161 C165 1.393 . S
C162 H151 0.950 . S
C162 C160 1.391 . S
C162 C163 1.400 . S
C163 C157 1.491 . S
C163 C162 1.400 . S
C163 C164 1.398 . S
C164 H152 0.950 . S
C164 C163 1.398 . S
C164 C165 1.391 . S
C165 H153 0.950 . S
C165 C161 1.393 . S
C165 C164 1.391 . S
H166 C174 0.950 . S
H167 C179 0.950 . S
H168 C176 0.950 . S
H169 C178 0.950 . S
H170 C180 0.950 . S
H171 C182 0.950 . S
H172 C184 0.950 . S
H173 C185 0.950 . S
C174 H166 0.950 . S
C174 C175 1.386 . S
C174 C176 1.391 . S
C175 C174 1.386 . S
C175 C179 1.393 . S
C176 H168 0.950 . S
C176 C174 1.391 . S
C176 C177 1.400 . S
C177 C176 1.400 . S
C177 C178 1.398 . S
C177 C183 1.491 . S
C178 H169 0.950 . S
C178 C177 1.398 . S
C178 C179 1.391 . S
C179 H167 0.950 . S
C179 C175 1.393 . S
C179 C178 1.391 . S
C180 H170 0.950 . S
C180 C181 1.386 . S
C180 C182 1.391 . S
C181 C180 1.386 . S
C181 C185 1.393 . S
C182 H171 0.950 . S
C182 C180 1.391 . S
C182 C183 1.400 . S
C183 C177 1.491 . S
C183 C182 1.400 . S
C183 C184 1.398 . S
C184 H172 0.950 . S
C184 C183 1.398 . S
C184 C185 1.391 . S
C185 H173 0.950 . S
C185 C181 1.393 . S
C185 C184 1.391 . S
H186 C194 0.950 . S
H187 C199 0.950 . S
H188 C196 0.950 . S
H189 C198 0.950 . S
H190 C200 0.950 . S
H191 C202 0.950 . S
H192 C204 0.950 . S
H193 C205 0.950 . S
C194 H186 0.950 . S
C194 C195 1.386 . S
C194 C196 1.391 . S
C195 C194 1.386 . S
C195 C199 1.393 . S
C196 H188 0.950 . S
C196 C194 1.391 . S
C196 C197 1.400 . S
C197 C196 1.400 . S
C197 C198 1.398 . S
C197 C203 1.491 . S
C198 H189 0.950 . S
C198 C197 1.398 . S
C198 C199 1.391 . S
C199 H187 0.950 . S
C199 C195 1.393 . S
C199 C198 1.391 . S
C200 H190 0.950 . S
C200 C201 1.386 . S
C200 C202 1.391 . S
C201 C200 1.386 . S
C201 C205 1.393 . S
C202 H191 0.950 . S
C202 C200 1.391 . S
C202 C203 1.400 . S
C203 C197 1.491 . S
C203 C202 1.400 . S
C203 C204 1.398 . S
C204 H192 0.950 . S
C204 C203 1.398 . S
C204 C205 1.391 . S
C205 H193 0.950 . S
C205 C201 1.393 . S
C205 C204 1.391 . S
H206 C214 0.950 . S
H207 C219 0.950 . S
H208 C216 0.950 . S
H209 C218 0.950 . S
H210 C220 0.950 . S
H211 C222 0.950 . S
H212 C224 0.950 . S
H213 C225 0.950 . S
C214 H206 0.950 . S
C214 C215 1.386 . S
C214 C216 1.391 . S
C215 C214 1.386 . S
C215 C219 1.393 . S
C216 H208 0.950 . S
C216 C214 1.391 . S
C216 C217 1.400 . S
C217 C216 1.400 . S
C217 C218 1.398 . S
C217 C223 1.491 . S
C218 H209 0.950 . S
C218 C217 1.398 . S
C218 C219 1.391 . S
C219 H207 0.950 . S
C219 C215 1.393 . S
C219 C218 1.391 . S
C220 H210 0.950 . S
C220 C221 1.386 . S
C220 C222 1.391 . S
C221 C220 1.386 . S
C221 C225 1.393 . S
C222 H211 0.950 . S
C222 C220 1.391 . S
C222 C223 1.400 . S
C223 C217 1.491 . S
C223 C222 1.400 . S
C223 C224 1.398 . S
C224 H212 0.950 . S
C224 C223 1.398 . S
C224 C225 1.391 . S
C225 H213 0.950 . S
C225 C221 1.393 . S
C225 C224 1.391 . S
H226 C234 0.950 . S
H227 C239 0.950 . S
H228 C236 0.950 . S
H229 C238 0.950 . S
H230 C240 0.950 . S
H231 C242 0.950 . S
H232 C244 0.950 . S
H233 C245 0.950 . S
C234 H226 0.950 . S
C234 C235 1.386 . S
C234 C236 1.391 . S
C235 C234 1.386 . S
C235 C239 1.393 . S
C236 H228 0.950 . S
C236 C234 1.391 . S
C236 C237 1.400 . S
C237 C236 1.400 . S
C237 C238 1.398 . S
C237 C243 1.491 . S
C238 H229 0.950 . S
C238 C237 1.398 . S
C238 C239 1.391 . S
C239 H227 0.950 . S
C239 C235 1.393 . S
C239 C238 1.391 . S
C240 H230 0.950 . S
C240 C241 1.386 . S
C240 C242 1.391 . S
C241 C240 1.386 . S
C241 C245 1.393 . S
C242 H231 0.950 . S
C242 C240 1.391 . S
C242 C243 1.400 . S
C243 C237 1.491 . S
C243 C242 1.400 . S
C243 C244 1.398 . S
C244 H232 0.950 . S
C244 C243 1.398 . S
C244 C245 1.391 . S
C245 H233 0.950 . S
C245 C241 1.393 . S
C245 C244 1.391 . S
H246 C254 0.950 . S
H247 C259 0.950 . S
H248 C256 0.950 . S
H249 C258 0.950 . S
H250 C260 0.950 . S
H251 C262 0.950 . S
H252 C264 0.950 . S
H253 C265 0.950 . S
C254 H246 0.950 . S
C254 C255 1.386 . S
C254 C256 1.391 . S
C255 C254 1.386 . S
C255 C259 1.393 1_554 S
C256 H248 0.950 . S
C256 C254 1.391 . S
C256 C257 1.400 . S
C257 C256 1.400 . S
C257 C258 1.398 1_554 S
C257 C263 1.491 . S
C258 H249 0.950 . S
C258 C257 1.398 1_556 S
C258 C259 1.391 . S
C259 H247 0.950 . S
C259 C255 1.393 1_556 S
C259 C258 1.391 . S
C260 H250 0.950 . S
C260 C261 1.386 1_556 S
C260 C262 1.391 . S
C261 C260 1.386 1_554 S
C261 C265 1.393 . S
C262 H251 0.950 . S
C262 C260 1.391 . S
C262 C263 1.400 1_556 S
C263 C257 1.491 . S
C263 C262 1.400 1_554 S
C263 C264 1.398 . S
C264 H252 0.950 . S
C264 C263 1.398 . S
C264 C265 1.391 . S
C265 H253 0.950 . S
C265 C261 1.393 . S
C265 C264 1.391 . S
H266 C274 0.956 . S
H267 C279 0.950 . S
H268 C276 0.950 . S
H269 C278 0.950 . S
H270 C280 0.956 . S
H271 C282 0.950 . S
H272 C284 0.950 . S
H273 C285 0.950 . S
C274 H266 0.956 . S
C274 C275 1.386 . S
C274 C276 1.391 1_455 S
C275 C274 1.386 . S
C275 C279 1.393 . S
C276 H268 0.950 . S
C276 C274 1.391 1_655 S
C276 C277 1.400 1_655 S
C277 C276 1.400 1_455 S
C277 C278 1.398 . S
C277 C283 1.491 1_455 S
C278 H269 0.950 . S
C278 C277 1.398 . S
C278 C279 1.391 . S
C279 H267 0.950 . S
C279 C275 1.393 . S
C279 C278 1.391 . S
C280 H270 0.956 . S
C280 C281 1.386 . S
C280 C282 1.391 1_655 S
C281 C280 1.386 . S
C281 C285 1.393 . S
C282 H271 0.950 . S
C282 C280 1.391 1_455 S
C282 C283 1.400 1_455 S
C283 C277 1.491 1_655 S
C283 C282 1.400 1_655 S
C283 C284 1.398 . S
C284 H272 0.950 . S
C284 C283 1.398 . S
C284 C285 1.391 . S
C285 H273 0.950 . S
C285 C281 1.393 . S
C285 C284 1.391 . S
H286 C294 0.950 . S
H287 C299 0.950 . S
H288 C296 0.950 . S
H289 C298 0.950 . S
H290 C300 0.950 . S
H291 C302 0.950 . S
H292 C304 0.950 . S
H293 C305 0.950 . S
C294 H286 0.950 . S
C294 C295 1.386 . S
C294 C296 1.391 1_545 S
C295 C294 1.386 . S
C295 C299 1.393 . S
C296 H288 0.950 . S
C296 C294 1.391 1_565 S
C296 C297 1.400 1_565 S
C297 C296 1.400 1_545 S
C297 C298 1.398 . S
C297 C303 1.491 1_545 S
C298 H289 0.950 . S
C298 C297 1.398 . S
C298 C299 1.391 . S
C299 H287 0.950 . S
C299 C295 1.393 . S
C299 C298 1.391 . S
C300 H290 0.950 . S
C300 C301 1.386 . S
C300 C302 1.391 1_565 S
C301 C300 1.386 . S
C301 C305 1.393 . S
C302 H291 0.950 . S
C302 C300 1.391 1_545 S
C302 C303 1.400 1_545 S
C303 C297 1.491 1_565 S
C303 C302 1.400 1_565 S
C303 C304 1.398 . S
C304 H292 0.950 . S
C304 C303 1.398 . S
C304 C305 1.391 . S
C305 H293 0.950 . S
C305 C301 1.393 . S
C305 C304 1.391 . S
H306 C314 0.950 . S
H307 C319 0.950 . S
H308 C316 0.950 . S
H309 C318 0.950 . S
H310 C320 0.950 . S
H311 C322 0.950 . S
H312 C324 0.950 . S
H313 C325 0.950 . S
C314 H306 0.950 . S
C314 C315 1.386 . S
C314 C316 1.391 . S
C315 C314 1.386 . S
C315 C319 1.393 . S
C316 H308 0.950 . S
C316 C314 1.391 . S
C316 C317 1.400 . S
C317 C316 1.400 . S
C317 C318 1.398 . S
C317 C323 1.491 . S
C318 H309 0.950 . S
C318 C317 1.398 . S
C318 C319 1.391 . S
C319 H307 0.950 . S
C319 C315 1.393 . S
C319 C318 1.391 . S
C320 H310 0.950 . S
C320 C321 1.386 . S
C320 C322 1.391 . S
C321 C320 1.386 . S
C321 C325 1.393 . S
C322 H311 0.950 . S
C322 C320 1.391 . S
C322 C323 1.400 . S
C323 C317 1.491 . S
C323 C322 1.400 . S
C323 C324 1.398 . S
C324 H312 0.950 . S
C324 C323 1.398 . S
C324 C325 1.391 . S
C325 H313 0.950 . S
C325 C321 1.393 . S
C325 C324 1.391 . S
H326 C334 0.950 1_655 S
H327 C339 0.950 . S
H328 C336 0.950 . S
H329 C338 0.950 . S
H330 C340 0.950 1_455 S
H331 C342 0.950 . S
H332 C344 0.950 . S
H333 C345 0.950 . S
C334 H326 0.950 1_455 S
C334 C335 1.386 . S
C334 C336 1.391 1_455 S
C335 C334 1.386 . S
C335 C339 1.393 . S
C336 H328 0.950 . S
C336 C334 1.391 1_655 S
C336 C337 1.400 1_655 S
C337 C336 1.400 1_455 S
C337 C338 1.398 . S
C337 C343 1.491 1_455 S
C338 H329 0.950 . S
C338 C337 1.398 . S
C338 C339 1.391 . S
C339 H327 0.950 . S
C339 C335 1.393 . S
C339 C338 1.391 . S
C340 H330 0.950 1_655 S
C340 C341 1.386 . S
C340 C342 1.391 1_655 S
C341 C340 1.386 . S
C341 C345 1.393 . S
C342 H331 0.950 . S
C342 C340 1.391 1_455 S
C342 C343 1.400 1_455 S
C343 C337 1.491 1_655 S
C343 C342 1.400 1_655 S
C343 C344 1.398 . S
C344 H332 0.950 . S
C344 C343 1.398 . S
C344 C345 1.391 . S
C345 H333 0.950 . S
C345 C341 1.393 . S
C345 C344 1.391 . S
H346 C354 0.950 . S
H347 C359 0.950 1_545 S
H348 C356 0.950 . S
H349 C358 0.950 . S
H350 C360 0.950 . S
H351 C362 0.950 . S
H352 C364 0.950 . S
H353 C365 0.950 1_565 S
C354 H346 0.950 . S
C354 C355 1.386 . S
C354 C356 1.391 . S
C355 C354 1.386 . S
C355 C359 1.393 . S
C356 H348 0.950 . S
C356 C354 1.391 . S
C356 C357 1.400 . S
C357 C356 1.400 . S
C357 C358 1.398 1_565 S
C357 C363 1.491 1_565 S
C358 H349 0.950 . S
C358 C357 1.398 1_545 S
C358 C359 1.391 1_545 S
C359 H347 0.950 1_565 S
C359 C355 1.393 . S
C359 C358 1.391 1_565 S
C360 H350 0.950 . S
C360 C361 1.386 . S
C360 C362 1.391 . S
C361 C360 1.386 . S
C361 C365 1.393 . S
C362 H351 0.950 . S
C362 C360 1.391 . S
C362 C363 1.400 . S
C363 C357 1.491 1_545 S
C363 C362 1.400 . S
C363 C364 1.398 1_545 S
C364 H352 0.950 . S
C364 C363 1.398 1_565 S
C364 C365 1.391 1_565 S
C365 H353 0.950 1_545 S
C365 C361 1.393 . S
C365 C364 1.391 1_545 S
H366 C374 0.950 . S
H367 C379 0.950 . S
H368 C376 0.950 . S
H369 C378 0.950 . S
H370 C380 0.950 . S
H371 C382 0.950 . S
H372 C384 0.950 . S
H373 C385 0.950 . S
C374 H366 0.950 . S
C374 C375 1.386 . S
C374 C376 1.391 . S
C375 C374 1.386 . S
C375 C379 1.393 . S
C376 H368 0.950 . S
C376 C374 1.391 . S
C376 C377 1.400 . S
C377 C376 1.400 . S
C377 C378 1.398 . S
C377 C383 1.491 . S
C378 H369 0.950 . S
C378 C377 1.398 . S
C378 C379 1.391 . S
C379 H367 0.950 . S
C379 C375 1.393 . S
C379 C378 1.391 . S
C380 H370 0.950 . S
C380 C381 1.386 . S
C380 C382 1.391 . S
C381 C380 1.386 . S
C381 C385 1.393 . S
C382 H371 0.950 . S
C382 C380 1.391 . S
C382 C383 1.400 . S
C383 C377 1.491 . S
C383 C382 1.400 . S
C383 C384 1.398 . S
C384 H372 0.950 . S
C384 C383 1.398 . S
C384 C385 1.391 . S
C385 H373 0.950 . S
C385 C381 1.393 . S
C385 C384 1.391 . S
H386 C394 0.950 . S
H387 C399 0.950 . S
H388 C396 0.950 . S
H389 C398 0.950 . S
H390 C400 0.950 . S
H391 C402 0.950 . S
H392 C404 0.950 . S
H393 C405 0.950 . S
C394 H386 0.950 . S
C394 C395 1.386 . S
C394 C396 1.391 . S
C395 C394 1.386 . S
C395 C399 1.393 . S
C396 H388 0.950 . S
C396 C394 1.391 . S
C396 C397 1.400 . S
C397 C396 1.400 . S
C397 C398 1.398 . S
C397 C403 1.491 1_655 S
C398 H389 0.950 . S
C398 C397 1.398 . S
C398 C399 1.391 . S
C399 H387 0.950 . S
C399 C395 1.393 . S
C399 C398 1.391 . S
C400 H390 0.950 . S
C400 C401 1.386 . S
C400 C402 1.391 . S
C401 C400 1.386 . S
C401 C405 1.393 . S
C402 H391 0.950 . S
C402 C400 1.391 . S
C402 C403 1.400 . S
C403 C397 1.491 1_455 S
C403 C402 1.400 . S
C403 C404 1.398 . S
C404 H392 0.950 . S
C404 C403 1.398 . S
C404 C405 1.391 . S
C405 H393 0.950 . S
C405 C401 1.393 . S
C405 C404 1.391 . S
H406 C414 0.950 . S
H407 C419 0.950 . S
H408 C416 0.950 . S
H409 C418 0.950 . S
H410 C420 0.950 . S
H411 C422 0.950 . S
H412 C424 0.950 . S
H413 C425 0.950 . S
C414 H406 0.950 . S
C414 C415 1.386 . S
C414 C416 1.391 . S
C415 C414 1.386 . S
C415 C419 1.393 . S
C416 H408 0.950 . S
C416 C414 1.391 . S
C416 C417 1.400 . S
C417 C416 1.400 . S
C417 C418 1.398 . S
C417 C423 1.491 1_565 S
C418 H409 0.950 . S
C418 C417 1.398 . S
C418 C419 1.391 . S
C419 H407 0.950 . S
C419 C415 1.393 . S
C419 C418 1.391 . S
C420 H410 0.950 . S
C420 C421 1.386 . S
C420 C422 1.391 . S
C421 C420 1.386 . S
C421 C425 1.393 . S
C422 H411 0.950 . S
C422 C420 1.391 . S
C422 C423 1.400 . S
C423 C417 1.491 1_545 S
C423 C422 1.400 . S
C423 C424 1.398 . S
C424 H412 0.950 . S
C424 C423 1.398 . S
C424 C425 1.391 . S
C425 H413 0.950 . S
C425 C421 1.393 . S
C425 C424 1.391 . S
H426 C434 0.950 . S
H427 C439 0.950 . S
H428 C436 0.950 . S
H429 C438 0.950 . S
H430 C440 0.950 . S
H431 C442 0.950 . S
H432 C444 0.950 . S
H433 C445 0.950 . S
C434 H426 0.950 . S
C434 C435 1.386 . S
C434 C436 1.391 . S
C435 C434 1.386 . S
C435 C439 1.393 . S
C436 H428 0.950 . S
C436 C434 1.391 . S
C436 C437 1.400 . S
C437 C436 1.400 . S
C437 C438 1.398 . S
C437 C443 1.491 . S
C438 H429 0.950 . S
C438 C437 1.398 . S
C438 C439 1.391 . S
C439 H427 0.950 . S
C439 C435 1.393 . S
C439 C438 1.391 . S
C440 H430 0.950 . S
C440 C441 1.386 . S
C440 C442 1.391 . S
C441 C440 1.386 . S
C441 C445 1.393 . S
C442 H431 0.950 . S
C442 C440 1.391 . S
C442 C443 1.400 . S
C443 C437 1.491 . S
C443 C442 1.400 . S
C443 C444 1.398 . S
C444 H432 0.950 . S
C444 C443 1.398 . S
C444 C445 1.391 . S
C445 H433 0.950 . S
C445 C441 1.393 . S
C445 C444 1.391 . S
H446 C454 0.950 . S
H447 C459 0.950 . S
H448 C456 0.950 . S
H449 C458 0.950 1_655 S
H450 C460 0.950 . S
H451 C462 0.950 . S
H452 C464 0.950 1_455 S
H453 C465 0.950 . S
C454 H446 0.950 . S
C454 C455 1.386 . S
C454 C456 1.391 . S
C455 C454 1.386 . S
C455 C459 1.393 . S
C456 H448 0.950 . S
C456 C454 1.391 . S
C456 C457 1.400 . S
C457 C456 1.400 . S
C457 C458 1.398 . S
C457 C463 1.491 1_455 S
C458 H449 0.950 1_455 S
C458 C457 1.398 . S
C458 C459 1.391 . S
C459 H447 0.950 . S
C459 C455 1.393 . S
C459 C458 1.391 . S
C460 H450 0.950 . S
C460 C461 1.386 . S
C460 C462 1.391 . S
C461 C460 1.386 . S
C461 C465 1.393 . S
C462 H451 0.950 . S
C462 C460 1.391 . S
C462 C463 1.400 . S
C463 C457 1.491 1_655 S
C463 C462 1.400 . S
C463 C464 1.398 . S
C464 H452 0.950 1_655 S
C464 C463 1.398 . S
C464 C465 1.391 . S
C465 H453 0.950 . S
C465 C461 1.393 . S
C465 C464 1.391 . S
H466 C474 0.950 . S
H467 C479 0.950 . S
H468 C476 0.950 . S
H469 C478 0.950 . S
H470 C480 0.950 . S
H471 C482 0.950 . S
H472 C484 0.950 . S
H473 C485 0.950 . S
C474 H466 0.950 . S
C474 C475 1.386 . S
C474 C476 1.391 . S
C475 C474 1.386 . S
C475 C479 1.393 . S
C476 H468 0.950 . S
C476 C474 1.391 . S
C476 C477 1.400 . S
C477 C476 1.400 . S
C477 C478 1.398 . S
C477 C483 1.491 1_545 S
C478 H469 0.950 . S
C478 C477 1.398 . S
C478 C479 1.391 . S
C479 H467 0.950 . S
C479 C475 1.393 . S
C479 C478 1.391 . S
C480 H470 0.950 . S
C480 C481 1.386 . S
C480 C482 1.391 . S
C481 C480 1.386 . S
C481 C485 1.393 . S
C482 H471 0.950 . S
C482 C480 1.391 . S
C482 C483 1.400 . S
C483 C477 1.491 1_565 S
C483 C482 1.400 . S
C483 C484 1.398 . S
C484 H472 0.950 . S
C484 C483 1.398 . S
C484 C485 1.391 . S
C485 H473 0.950 . S
C485 C481 1.393 . S
C485 C484 1.391 . S
C135 C97 0.888 . S
C141 C15 0.833 . S
C155 C121 0.912 . S
C161 C39 0.833 . S
C175 C13 0.920 . S
C181 C57 0.848 . S
C195 C37 0.918 . S
C201 C81 0.893 . S
C215 C55 0.911 . S
C221 C99 0.833 . S
C235 C79 0.925 . S
C241 C123 0.871 . S
C255 C14 1.081 . S
C261 C80 1.084 . S
C275 C98 1.048 . S
C281 C38 1.043 . S
C295 C122 1.046 . S
C301 C56 1.041 . S
C315 C58 1.143 . S
C321 C118 1.147 . S
C335 C16 1.144 . S
C341 C76 1.151 . S
C355 C100 1.152 . S
C361 C34 1.146 . S
C375 C119 1.116 . S
C381 C18 1.072 . S
C395 C36 1.088 . S
C401 C17 1.118 . S
C415 C60 1.081 . S
C421 C35 1.090 . S
C435 C59 1.102 . S
C441 C78 1.067 . S
C455 C102 1.096 . S
C461 C77 1.091 . S
C475 C120 1.090 . S
C481 C101 1.090 . S
